# Generated by pormake.
# Topology smd, (6)-cn, num edge types: 1
# Building blocks:
#     Node 0, Type 0, BuildingBlock: CUWYAW_clean_sbu_0, # of connection points: 6
#     Node 1, Type 0, BuildingBlock: CUWYAW_clean_sbu_0, # of connection points: 6
#     Node 2, Type 0, BuildingBlock: CUWYAW_clean_sbu_0, # of connection points: 6
#     Node 3, Type 0, BuildingBlock: CUWYAW_clean_sbu_0, # of connection points: 6
#     Node 4, Type 0, BuildingBlock: CUWYAW_clean_sbu_0, # of connection points: 6
#     Node 5, Type 0, BuildingBlock: CUWYAW_clean_sbu_0, # of connection points: 6
#     Node 6, Type 0, BuildingBlock: CUWYAW_clean_sbu_0, # of connection points: 6
#     Node 7, Type 0, BuildingBlock: CUWYAW_clean_sbu_0, # of connection points: 6
#     Node 8, Type 0, BuildingBlock: CUWYAW_clean_sbu_0, # of connection points: 6
#     Node 9, Type 0, BuildingBlock: CUWYAW_clean_sbu_0, # of connection points: 6
#     Node 10, Type 0, BuildingBlock: CUWYAW_clean_sbu_0, # of connection points: 6
#     Node 11, Type 0, BuildingBlock: CUWYAW_clean_sbu_0, # of connection points: 6
#     Node 12, Type 0, BuildingBlock: CUWYAW_clean_sbu_0, # of connection points: 6
#     Node 13, Type 0, BuildingBlock: CUWYAW_clean_sbu_0, # of connection points: 6
#     Node 14, Type 0, BuildingBlock: CUWYAW_clean_sbu_0, # of connection points: 6
#     Node 15, Type 0, BuildingBlock: CUWYAW_clean_sbu_0, # of connection points: 6
#     Node 16, Type 0, BuildingBlock: CUWYAW_clean_sbu_0, # of connection points: 6
#     Node 17, Type 0, BuildingBlock: CUWYAW_clean_sbu_0, # of connection points: 6
#     Edge 18, Type (0, 0), BuildingBlock: EZIPEK_clean_linker_0, # of connection points: 2
#     Edge 19, Type (0, 0), BuildingBlock: EZIPEK_clean_linker_0, # of connection points: 2
#     Edge 20, Type (0, 0), BuildingBlock: EZIPEK_clean_linker_0, # of connection points: 2
#     Edge 21, Type (0, 0), BuildingBlock: EZIPEK_clean_linker_0, # of connection points: 2
#     Edge 22, Type (0, 0), BuildingBlock: EZIPEK_clean_linker_0, # of connection points: 2
#     Edge 23, Type (0, 0), BuildingBlock: EZIPEK_clean_linker_0, # of connection points: 2
#     Edge 24, Type (0, 0), BuildingBlock: EZIPEK_clean_linker_0, # of connection points: 2
#     Edge 25, Type (0, 0), BuildingBlock: EZIPEK_clean_linker_0, # of connection points: 2
#     Edge 26, Type (0, 0), BuildingBlock: EZIPEK_clean_linker_0, # of connection points: 2
#     Edge 27, Type (0, 0), BuildingBlock: EZIPEK_clean_linker_0, # of connection points: 2
#     Edge 28, Type (0, 0), BuildingBlock: EZIPEK_clean_linker_0, # of connection points: 2
#     Edge 29, Type (0, 0), BuildingBlock: EZIPEK_clean_linker_0, # of connection points: 2
#     Edge 30, Type (0, 0), BuildingBlock: EZIPEK_clean_linker_0, # of connection points: 2
#     Edge 31, Type (0, 0), BuildingBlock: EZIPEK_clean_linker_0, # of connection points: 2
#     Edge 32, Type (0, 0), BuildingBlock: EZIPEK_clean_linker_0, # of connection points: 2
#     Edge 33, Type (0, 0), BuildingBlock: EZIPEK_clean_linker_0, # of connection points: 2
#     Edge 34, Type (0, 0), BuildingBlock: EZIPEK_clean_linker_0, # of connection points: 2
#     Edge 35, Type (0, 0), BuildingBlock: EZIPEK_clean_linker_0, # of connection points: 2
#     Edge 36, Type (0, 0), BuildingBlock: EZIPEK_clean_linker_0, # of connection points: 2
#     Edge 37, Type (0, 0), BuildingBlock: EZIPEK_clean_linker_0, # of connection points: 2
#     Edge 38, Type (0, 0), BuildingBlock: EZIPEK_clean_linker_0, # of connection points: 2
#     Edge 39, Type (0, 0), BuildingBlock: EZIPEK_clean_linker_0, # of connection points: 2
#     Edge 40, Type (0, 0), BuildingBlock: EZIPEK_clean_linker_0, # of connection points: 2
#     Edge 41, Type (0, 0), BuildingBlock: EZIPEK_clean_linker_0, # of connection points: 2
#     Edge 42, Type (0, 0), BuildingBlock: EZIPEK_clean_linker_0, # of connection points: 2
#     Edge 43, Type (0, 0), BuildingBlock: EZIPEK_clean_linker_0, # of connection points: 2
#     Edge 44, Type (0, 0), BuildingBlock: EZIPEK_clean_linker_0, # of connection points: 2
#     Edge 45, Type (0, 0), BuildingBlock: EZIPEK_clean_linker_0, # of connection points: 2
#     Edge 46, Type (0, 0), BuildingBlock: EZIPEK_clean_linker_0, # of connection points: 2
#     Edge 47, Type (0, 0), BuildingBlock: EZIPEK_clean_linker_0, # of connection points: 2
#     Edge 48, Type (0, 0), BuildingBlock: EZIPEK_clean_linker_0, # of connection points: 2
#     Edge 49, Type (0, 0), BuildingBlock: EZIPEK_clean_linker_0, # of connection points: 2
#     Edge 50, Type (0, 0), BuildingBlock: EZIPEK_clean_linker_0, # of connection points: 2
#     Edge 51, Type (0, 0), BuildingBlock: EZIPEK_clean_linker_0, # of connection points: 2
#     Edge 52, Type (0, 0), BuildingBlock: EZIPEK_clean_linker_0, # of connection points: 2
#     Edge 53, Type (0, 0), BuildingBlock: EZIPEK_clean_linker_0, # of connection points: 2
#     Edge 54, Type (0, 0), BuildingBlock: EZIPEK_clean_linker_0, # of connection points: 2
#     Edge 55, Type (0, 0), BuildingBlock: EZIPEK_clean_linker_0, # of connection points: 2
#     Edge 56, Type (0, 0), BuildingBlock: EZIPEK_clean_linker_0, # of connection points: 2
#     Edge 57, Type (0, 0), BuildingBlock: EZIPEK_clean_linker_0, # of connection points: 2
#     Edge 58, Type (0, 0), BuildingBlock: EZIPEK_clean_linker_0, # of connection points: 2
#     Edge 59, Type (0, 0), BuildingBlock: EZIPEK_clean_linker_0, # of connection points: 2
#     Edge 60, Type (0, 0), BuildingBlock: EZIPEK_clean_linker_0, # of connection points: 2
#     Edge 61, Type (0, 0), BuildingBlock: EZIPEK_clean_linker_0, # of connection points: 2
#     Edge 62, Type (0, 0), BuildingBlock: EZIPEK_clean_linker_0, # of connection points: 2
#     Edge 63, Type (0, 0), BuildingBlock: EZIPEK_clean_linker_0, # of connection points: 2
#     Edge 64, Type (0, 0), BuildingBlock: EZIPEK_clean_linker_0, # of connection points: 2
#     Edge 65, Type (0, 0), BuildingBlock: EZIPEK_clean_linker_0, # of connection points: 2
#     Edge 66, Type (0, 0), BuildingBlock: EZIPEK_clean_linker_0, # of connection points: 2
#     Edge 67, Type (0, 0), BuildingBlock: EZIPEK_clean_linker_0, # of connection points: 2
#     Edge 68, Type (0, 0), BuildingBlock: EZIPEK_clean_linker_0, # of connection points: 2
#     Edge 69, Type (0, 0), BuildingBlock: EZIPEK_clean_linker_0, # of connection points: 2
#     Edge 70, Type (0, 0), BuildingBlock: EZIPEK_clean_linker_0, # of connection points: 2
#     Edge 71, Type (0, 0), BuildingBlock: EZIPEK_clean_linker_0, # of connection points: 2
# Relax obj value: 0.293
# Max RMSD: 0.377
# Mean RMSD: 0.350
data_MOF--net-smd--node1-CUWYAW_clean_sbu_0--edge1-EZIPEK_clean_linker_0
_symmetry_space_group_name_H-M    P1
_symmetry_Int_Tables_number       1
_symmetry_cell_setting            triclinic
loop_
_symmetry_equiv_pos_as_xyz
'x, y, z'
_cell_length_a     47.419681
_cell_length_b     47.824322
_cell_length_c     21.016619
_cell_angle_alpha  92.932621
_cell_angle_beta   92.798349
_cell_angle_gamma 119.79701
loop_
_atom_site_label
_atom_site_type_symbol
_atom_site_fract_x
_atom_site_fract_y
_atom_site_fract_z
_atom_type_partial_charge
C0 C 0.96257 0.21778 0.35437 0.0
Eu1 Eu 0.99032 0.23213 0.47237 0.0
C2 C 0.97001 0.22704 0.28747 0.0
C3 C 0.95144 0.23752 0.2523 0.0
C4 C 0.957 0.24492 0.18845 0.0
C5 C 0.98186 0.24282 0.15835 0.0
C6 C 1.00039 0.23231 0.19353 0.0
C7 C 0.99424 0.22407 0.25672 0.0
C8 C 0.96602 0.25361 0.57207 0.0
C9 C 0.05521 0.30044 0.46228 0.0
C10 C 0.05112 0.28113 0.70703 0.0
Eu11 Eu 0.03206 0.25658 0.58742 0.0
C12 C 0.03747 0.28018 0.76982 0.0
C13 C 0.05874 0.29754 0.8243 0.0
C14 C 0.04752 0.29307 0.88571 0.0
C15 C 0.01468 0.27113 0.89417 0.0
C16 C 0.99298 0.25503 0.83927 0.0
C17 C 1.00431 0.25935 0.77781 0.0
C18 C 0.06491 0.23341 0.52235 0.0
C19 C 0.96862 0.18008 0.56959 0.0
O20 O 0.97573 0.20236 0.38103 0.0
O21 O 0.96166 0.23875 0.39531 0.0
O22 O 0.94965 0.22657 0.53637 0.0
O23 O 0.99441 0.26714 0.55324 0.0
O24 O 0.02627 0.27886 0.43652 0.0
O25 O 0.06389 0.298 0.52257 0.0
O26 O 0.04554 0.29619 0.66213 0.0
O27 O 0.04882 0.25411 0.68421 0.0
O28 O 0.07283 0.2473 0.57963 0.0
O29 O 0.03808 0.23115 0.49729 0.0
O30 O 0.98875 0.20603 0.60928 0.0
O31 O 0.96879 0.18299 0.50801 0.0
H32 H 0.93217 0.23952 0.27393 0.0
H33 H 0.94177 0.25215 0.16239 0.0
H34 H 0.01946 0.23005 0.17164 0.0
H35 H 1.00871 0.21557 0.28159 0.0
H36 H 0.08443 0.31366 0.81961 0.0
H37 H 0.06477 0.30588 0.92693 0.0
H38 H 0.9675 0.23815 0.8442 0.0
H39 H 0.98742 0.24564 0.73671 0.0
C40 C 0.7708 0.80648 0.70902 0.0
Eu41 Eu 0.77656 0.78979 0.59199 0.0
C42 C 0.77206 0.7958 0.77404 0.0
C43 C 0.74386 0.78222 0.80761 0.0
C44 C 0.74481 0.77316 0.8698 0.0
C45 C 0.77405 0.77769 0.89995 0.0
C46 C 0.80214 0.79078 0.86634 0.0
C47 C 0.80117 0.79968 0.80401 0.0
C48 C 0.7268 0.77023 0.49149 0.0
C49 C 0.76303 0.71828 0.6021 0.0
C50 C 0.78551 0.73641 0.36736 0.0
Eu51 Eu 0.78848 0.76533 0.4795 0.0
C52 C 0.78438 0.74267 0.29903 0.0
C53 C 0.80225 0.73536 0.25652 0.0
C54 C 0.80072 0.74029 0.19146 0.0
C55 C 0.78083 0.75213 0.16742 0.0
C56 C 0.76279 0.75924 0.20989 0.0
C57 C 0.76479 0.75489 0.27507 0.0
C58 C 0.8464 0.79754 0.55441 0.0
C59 C 0.80193 0.84044 0.49069 0.0
O60 O 0.79804 0.82084 0.68108 0.0
O61 O 0.74595 0.78654 0.66902 0.0
O62 O 0.73903 0.79666 0.5291 0.0
O63 O 0.74159 0.75596 0.51007 0.0
O64 O 0.76128 0.7422 0.63034 0.0
O65 O 0.77339 0.72096 0.54313 0.0
O66 O 0.76031 0.73117 0.39769 0.0
O67 O 0.81265 0.75452 0.4028 0.0
O68 O 0.84194 0.80234 0.49563 0.0
O69 O 0.81824 0.77899 0.57417 0.0
O70 O 0.79125 0.81366 0.45125 0.0
O71 O 0.80543 0.838 0.55218 0.0
H72 H 0.72113 0.77905 0.78603 0.0
H73 H 0.7229 0.76325 0.89495 0.0
H74 H 0.82497 0.7946 0.88883 0.0
H75 H 0.82336 0.80998 0.77975 0.0
H76 H 0.81741 0.72581 0.2737 0.0
H77 H 0.81498 0.7348 0.15975 0.0
H78 H 0.74743 0.76855 0.19263 0.0
H79 H 0.75095 0.76102 0.30667 0.0
C80 C 0.26619 0.04919 0.35856 0.0
Eu81 Eu 0.25143 0.02813 0.47134 0.0
C82 C 0.26431 0.03524 0.29327 0.0
C83 C 0.29063 0.05143 0.25596 0.0
C84 C 0.28915 0.03936 0.19318 0.0
C85 C 0.26129 0.01094 0.16686 0.0
C86 C 0.23546 0.99394 0.20488 0.0
C87 C 0.23699 1.00596 0.26786 0.0
C88 C 0.30564 0.05797 0.56419 0.0
C89 C 0.26055 0.97001 0.44948 0.0
C90 C 0.25039 0.98925 0.69293 0.0
Eu91 Eu 0.24326 0.9981 0.57362 0.0
C92 C 0.25626 0.98689 0.76153 0.0
C93 C 0.23852 0.95769 0.78969 0.0
C94 C 0.24059 0.95733 0.85642 0.0
C95 C 0.26058 0.98614 0.89523 0.0
C96 C 0.28007 0.01471 0.86686 0.0
C97 C 0.27787 0.01512 0.80063 0.0
C98 C 0.18602 0.95953 0.50165 0.0
C99 C 0.22584 0.05889 0.56419 0.0
O100 O 0.23883 0.0427 0.38239 0.0
O101 O 0.28666 0.0478 0.40001 0.0
O102 O 0.28959 0.07109 0.54119 0.0
O103 O 0.29039 0.02908 0.5404 0.0
O104 O 0.24267 0.98101 0.42532 0.0
O105 O 0.27041 0.97848 0.5113 0.0
O106 O 0.25978 0.0174 0.67172 0.0
O107 O 0.23614 0.96486 0.64921 0.0
O108 O 0.20214 0.94969 0.53603 0.0
O109 O 0.20134 0.99081 0.50505 0.0
O110 O 0.23137 0.03988 0.60135 0.0
O111 O 0.2284 0.05615 0.50318 0.0
H112 H 0.31212 0.07375 0.27508 0.0
H113 H 0.30931 0.05269 0.16447 0.0
H114 H 0.21382 0.97193 0.18517 0.0
H115 H 0.21667 0.99271 0.29621 0.0
H116 H 0.22177 0.93562 0.76056 0.0
H117 H 0.2253 0.9351 0.87783 0.0
H118 H 0.29559 0.03712 0.8962 0.0
H119 H 0.29202 0.03796 0.78032 0.0
C120 C 0.97507 0.74015 0.37895 0.0
Eu121 Eu 0.99874 0.7698 0.49415 0.0
C122 C 0.98503 0.74703 0.31274 0.0
C123 C 0.99768 0.77823 0.29181 0.0
C124 C 1.00647 0.78403 0.22888 0.0
C125 C 1.00281 0.7588 0.18555 0.0
C126 C 0.99078 0.72779 0.20675 0.0
C127 C 0.98221 0.72207 0.26977 0.0
C128 C 0.97269 0.8007 0.56196 0.0
C129 C 0.05883 0.8462 0.5096 0.0
C130 C 0.06197 0.81374 0.73102 0.0
Eu131 Eu 0.03755 0.79606 0.61169 0.0
C132 C 0.05181 0.80386 0.79625 0.0
C133 C 0.04574 0.77374 0.81606 0.0
C134 C 0.03757 0.76562 0.87856 0.0
C135 C 0.03517 0.78734 0.92262 0.0
C136 C 0.04103 0.81726 0.90288 0.0
C137 C 0.04932 0.82544 0.84057 0.0
C138 C 0.06535 0.77645 0.51532 0.0
C139 C 0.9785 0.72511 0.62094 0.0
O140 O 0.99372 0.73448 0.41718 0.0
O141 O 0.96546 0.75826 0.40817 0.0
O142 O 0.9801 0.80472 0.50328 0.0
O143 O 0.98404 0.78355 0.58548 0.0
O144 O 0.04356 0.81898 0.47056 0.0
O145 O 0.05403 0.84359 0.57051 0.0
O146 O 0.04768 0.82709 0.7001 0.0
O147 O 0.06677 0.79419 0.69322 0.0
O148 O 0.08111 0.80293 0.55303 0.0
O149 O 0.03706 0.76226 0.53329 0.0
O150 O 1.00569 0.74868 0.64925 0.0
O151 O 0.96952 0.72715 0.5603 0.0
H152 H 1.00066 0.79812 0.32397 0.0
H153 H 0.01579 0.80815 0.2137 0.0
H154 H 0.98793 0.708 0.17442 0.0
H155 H 0.97325 0.69803 0.28489 0.0
H156 H 0.04748 0.75646 0.7835 0.0
H157 H 0.03315 0.74239 0.89262 0.0
H158 H 0.03936 0.83441 0.93594 0.0
H159 H 0.05403 0.84885 0.82712 0.0
C160 C 0.23964 0.27687 0.70033 0.0
Eu161 Eu 0.23957 0.25563 0.58244 0.0
C162 C 0.24495 0.27197 0.76791 0.0
C163 C 0.22588 0.2756 0.81306 0.0
C164 C 0.23046 0.2717 0.87761 0.0
C165 C 0.25434 0.26425 0.89837 0.0
C166 C 0.27368 0.26081 0.85338 0.0
C167 C 0.26895 0.26453 0.78854 0.0
C168 C 0.18605 0.23752 0.50021 0.0
C169 C 0.22458 0.17835 0.56956 0.0
C170 C 0.26427 0.21711 0.36075 0.0
Eu171 Eu 0.25023 0.22963 0.47399 0.0
C172 C 0.26352 0.22601 0.29442 0.0
C173 C 0.28969 0.23207 0.25784 0.0
C174 C 0.28962 0.24013 0.19471 0.0
C175 C 0.26315 0.24196 0.16676 0.0
C176 C 0.23715 0.23642 0.20351 0.0
C177 C 0.23739 0.22868 0.26699 0.0
C178 C 0.30169 0.25363 0.57202 0.0
C179 C 0.25857 0.29784 0.45887 0.0
O180 O 0.26492 0.28936 0.66692 0.0
O181 O 0.21371 0.25396 0.66709 0.0
O182 O 0.20216 0.2647 0.53501 0.0
O183 O 0.20052 0.22082 0.50627 0.0
O184 O 0.23261 0.20485 0.60842 0.0
O185 O 0.2246 0.18072 0.50796 0.0
O186 O 0.23645 0.19883 0.38431 0.0
O187 O 0.28529 0.24016 0.40242 0.0
O188 O 0.28792 0.22525 0.54124 0.0
O189 O 0.2866 0.26709 0.55063 0.0
O190 O 0.24602 0.26906 0.42947 0.0
O191 O 0.26294 0.30071 0.52252 0.0
H192 H 0.20733 0.28144 0.7983 0.0
H193 H 0.21523 0.27434 0.91142 0.0
H194 H 0.29217 0.25494 0.86838 0.0
H195 H 0.28392 0.26151 0.75465 0.0
H196 H 0.31015 0.23029 0.27805 0.0
H197 H 0.30989 0.24431 0.16719 0.0
H198 H 0.21653 0.23777 0.18278 0.0
H199 H 0.21707 0.2245 0.29434 0.0
C200 C 0.80389 0.05411 0.3741 0.0
Eu201 Eu 0.79342 0.02857 0.48515 0.0
C202 C 0.79971 0.04672 0.30322 0.0
C203 C 0.81369 0.03014 0.27281 0.0
C204 C 0.8087 0.02274 0.20624 0.0
C205 C 0.79003 0.03208 0.16846 0.0
C206 C 0.77663 0.04921 0.1984 0.0
C207 C 0.78145 0.05647 0.26503 0.0
C208 C 0.84268 0.06482 0.57579 0.0
C209 C 0.80579 0.96389 0.49265 0.0
C210 C 0.75863 0.96611 0.69091 0.0
Eu211 Eu 0.77656 0.99129 0.58188 0.0
C212 C 0.76356 0.97776 0.76017 0.0
C213 C 0.74556 0.99122 0.78593 0.0
C214 C 0.74939 1.00076 0.85157 0.0
C215 C 0.77134 0.99718 0.89294 0.0
C216 C 0.78948 0.984 0.86748 0.0
C217 C 0.78554 0.97427 0.80195 0.0
C218 C 0.72905 0.96519 0.47544 0.0
C219 C 0.7708 0.05173 0.61514 0.0
O220 O 0.77799 0.04686 0.40426 0.0
O221 O 0.82441 0.04859 0.40694 0.0
O222 O 0.82708 0.07481 0.54068 0.0
O223 O 0.82915 0.03356 0.56591 0.0
O224 O 0.79999 0.98287 0.45541 0.0
O225 O 0.80389 0.9673 0.55363 0.0
O226 O 0.78377 0.9682 0.6637 0.0
O227 O 0.74091 0.97332 0.6531 0.0
O228 O 0.73943 0.94928 0.5078 0.0
O229 O 0.74358 0.9938 0.50094 0.0
O230 O 0.77947 0.03258 0.6393 0.0
O231 O 0.77056 0.0526 0.55137 0.0
H232 H 0.82799 0.02235 0.30051 0.0
H233 H 0.81934 0.0096 0.18413 0.0
H234 H 0.7622 0.05672 0.17022 0.0
H235 H 0.77058 0.06945 0.28687 0.0
H236 H 0.72828 0.99419 0.75554 0.0
H237 H 0.73509 0.0108 0.87019 0.0
H238 H 0.80649 0.98094 0.89853 0.0
H239 H 0.79956 0.96377 0.78404 0.0
C240 C 0.7298 0.59809 1.01627 0.0
Eu241 Eu 0.70264 0.57976 0.89845 0.0
C242 C 0.71909 0.59637 0.08201 0.0
C243 C 0.74037 0.61867 0.1316 0.0
C244 C 0.73034 0.6183 0.19347 0.0
C245 C 0.6978 0.59697 0.20756 0.0
C246 C 0.67799 0.57238 0.15826 0.0
C247 C 0.68808 0.57265 0.09638 0.0
C248 C 0.72634 0.62571 0.80512 0.0
C249 C 0.64155 0.58661 0.91433 0.0
C250 C 0.64023 0.55828 0.66622 0.0
Eu251 Eu 0.66215 0.56253 0.78587 0.0
C252 C 0.65153 0.56702 0.6012 0.0
C253 C 0.64763 0.59093 0.57229 0.0
C254 C 0.65542 0.59776 0.50928 0.0
C255 C 0.66707 0.58064 0.47327 0.0
C256 C 0.67154 0.5571 0.50214 0.0
C257 C 0.66385 0.55032 0.56541 0.0
C258 C 0.62895 0.51473 0.86417 0.0
C259 C 0.72634 0.54957 0.79807 0.0
O260 O 0.7238 0.57107 0.98497 0.0
O261 O 0.72425 0.61642 0.97979 0.0
O262 O 0.74331 0.61637 0.83876 0.0
O263 O 0.69827 0.61072 0.82438 0.0
O264 O 0.65901 0.57584 0.94138 0.0
O265 O 0.64148 0.58835 0.8511 0.0
O266 O 0.64611 0.58184 0.70865 0.0
O267 O 0.64331 0.53548 0.69168 0.0
O268 O 0.61638 0.52655 0.82546 0.0
O269 O 0.66014 0.52874 0.85992 0.0
O270 O 0.70656 0.5554 0.76023 0.0
O271 O 0.72568 0.55281 0.85998 0.0
H272 H 0.76507 0.63633 0.12271 0.0
H273 H 0.74893 0.63462 0.2299 0.0
H274 H 0.65476 0.55203 0.16656 0.0
H275 H 0.67172 0.55403 0.0599 0.0
H276 H 0.63788 0.60395 0.59811 0.0
H277 H 0.65186 0.61609 0.48819 0.0
H278 H 0.68049 0.5436 0.47532 0.0
H279 H 0.66699 0.53161 0.58579 0.0
C280 C 0.42873 0.14472 1.02231 0.0
Eu281 Eu 0.44185 0.13165 0.90856 0.0
C282 C 0.42985 0.13548 0.08875 0.0
C283 C 0.40062 0.11492 0.11567 0.0
C284 C 0.40098 0.10716 0.17907 0.0
C285 C 0.43059 0.11982 0.21707 0.0
C286 C 0.45985 0.13994 0.19017 0.0
C287 C 0.45951 0.14772 0.12675 0.0
C288 C 0.39017 0.1055 0.81086 0.0
C289 C 0.43519 0.06429 0.92797 0.0
C290 C 0.45196 0.08152 0.68312 0.0
Eu291 Eu 0.45246 0.10371 0.80048 0.0
C292 C 0.44697 0.08697 0.61563 0.0
C293 C 0.4668 0.08458 0.57068 0.0
C294 C 0.46263 0.08925 0.50639 0.0
C295 C 0.43831 0.09612 0.48549 0.0
C296 C 0.41819 0.09826 0.53032 0.0
C297 C 0.42266 0.09398 0.59494 0.0
C298 C 0.50574 0.12361 0.8841 0.0
C299 C 0.46662 0.18081 0.80843 0.0
O300 O 0.45629 0.16303 0.99779 0.0
O301 O 0.40719 0.12209 0.9805 0.0
O302 O 0.40334 0.13415 0.84041 0.0
O303 O 0.40584 0.09285 0.8335 0.0
O304 O 0.44732 0.09347 0.95507 0.0
O305 O 0.43041 0.05997 0.86425 0.0
O306 O 0.42667 0.06959 0.71662 0.0
O307 O 0.4782 0.1039 0.71649 0.0
O308 O 0.49053 0.09622 0.84973 0.0
O309 O 0.49101 0.13987 0.87532 0.0
O310 O 0.45905 0.15387 0.77145 0.0
O311 O 0.46655 0.17964 0.87042 0.0
H312 H 0.37735 0.10513 0.08786 0.0
H313 H 0.37812 0.09162 0.19879 0.0
H314 H 0.48295 0.14999 0.21866 0.0
H315 H 0.48248 0.16362 0.10784 0.0
H316 H 0.48564 0.07914 0.58539 0.0
H317 H 0.47844 0.08753 0.47282 0.0
H318 H 0.3993 0.10358 0.51538 0.0
H319 H 0.40725 0.09628 0.62866 0.0
C320 C 0.89745 0.29657 1.01362 0.0
Eu321 Eu 0.90279 0.32281 0.90496 0.0
C322 C 0.90133 0.30559 0.08367 0.0
C323 C 0.92502 0.30327 0.12228 0.0
C324 C 0.92834 0.31013 0.18876 0.0
C325 C 0.90795 0.3194 0.21815 0.0
C326 C 0.88451 0.32221 0.17975 0.0
C327 C 0.88122 0.31539 0.11312 0.0
C328 C 0.92533 0.29597 0.80908 0.0
C329 C 0.96763 0.38493 0.94541 0.0
C330 C 0.93722 0.37659 0.69577 0.0
Eu331 Eu 0.92236 0.35713 0.81029 0.0
C332 C 0.93002 0.36457 0.62732 0.0
C333 C 0.92524 0.38309 0.58299 0.0
C334 C 0.92041 0.37362 0.5175 0.0
C335 C 0.92063 0.34558 0.49492 0.0
C336 C 0.9249 0.32666 0.53923 0.0
C337 C 0.92923 0.33592 0.60501 0.0
C338 C 0.90852 0.39502 0.88693 0.0
C339 C 0.84434 0.29644 0.81212 0.0
O340 O 0.87284 0.29506 0.97958 0.0
O341 O 0.924 0.30919 0.98382 0.0
O342 O 0.89686 0.28166 0.83093 0.0
O343 O 0.93921 0.32422 0.8359 0.0
O344 O 0.9388 0.36711 0.96358 0.0
O345 O 0.96968 0.38219 0.88251 0.0
O346 O 0.91394 0.37728 0.72488 0.0
O347 O 0.9538 0.36749 0.73189 0.0
O348 O 0.93441 0.40491 0.85669 0.0
O349 O 0.89113 0.36363 0.88044 0.0
O350 O 0.8692 0.31266 0.77612 0.0
O351 O 0.85082 0.30122 0.87358 0.0
H352 H 0.94079 0.29578 0.10091 0.0
H353 H 0.94664 0.30789 0.21739 0.0
H354 H 0.86862 0.32945 0.20147 0.0
H355 H 0.86277 0.31753 0.08488 0.0
H356 H 0.92574 0.40525 0.59903 0.0
H357 H 0.9172 0.38858 0.48418 0.0
H358 H 0.92518 0.30495 0.52288 0.0
H359 H 0.93232 0.32096 0.63825 0.0
C360 C 0.62783 0.08458 0.68286 0.0
Eu361 Eu 0.65427 0.10327 0.80209 0.0
C362 C 0.63653 0.08796 0.61485 0.0
C363 C 0.64858 0.11771 0.58748 0.0
C364 C 0.65653 0.12044 0.52362 0.0
C365 C 0.65258 0.09356 0.48517 0.0
C366 C 0.64027 0.06377 0.51213 0.0
C367 C 0.63224 0.061 0.576 0.0
C368 C 0.62436 0.12286 0.886 0.0
C369 C 0.72114 0.1795 0.81786 0.0
C370 C 0.72163 0.13664 0.03115 0.0
Eu371 Eu 0.69626 0.12813 0.91308 0.0
C372 C 0.70963 0.12808 0.09594 0.0
C373 C 0.71898 0.10953 0.13201 0.0
C374 C 0.70906 0.10217 0.19391 0.0
C375 C 0.68957 0.11326 0.22149 0.0
C376 C 0.6796 0.1312 0.18507 0.0
C377 C 0.68947 0.13851 0.12308 0.0
C378 C 0.71975 0.10556 0.81352 0.0
C379 C 0.63454 0.06186 0.92782 0.0
O380 O 0.63635 0.0677 0.71774 0.0
O381 O 0.63118 0.11001 0.71607 0.0
O382 O 0.61048 0.09613 0.84959 0.0
O383 O 0.65528 0.13851 0.8794 0.0
O384 O 0.69899 0.15383 0.77919 0.0
O385 O 0.72172 0.17726 0.8796 0.0
O386 O 0.71736 0.15838 1.00355 0.0
O387 O 0.71662 0.11271 0.99044 0.0
O388 O 0.73717 0.13132 0.85211 0.0
O389 O 0.69136 0.09157 0.83209 0.0
O390 O 0.65234 0.09083 0.95566 0.0
O391 O 0.63384 0.05828 0.86408 0.0
H392 H 0.65213 0.13903 0.61546 0.0
H393 H 0.66597 0.14369 0.50419 0.0
H394 H 0.63708 0.04267 0.48383 0.0
H395 H 0.62301 0.03777 0.59527 0.0
H396 H 0.73433 0.10096 0.11251 0.0
H397 H 0.71696 0.08816 0.22067 0.0
H398 H 0.66447 0.13992 0.20501 0.0
H399 H 0.68151 0.15258 0.09671 0.0
C400 C 0.94105 0.55425 0.68405 0.0
Eu401 Eu 0.9245 0.56243 0.79883 0.0
C402 C 0.93869 0.55969 0.61514 0.0
C403 C 0.9673 0.57522 0.58318 0.0
C404 C 0.96582 0.57971 0.5178 0.0
C405 C 0.93571 0.56963 0.48322 0.0
C406 C 0.90708 0.55399 0.51505 0.0
C407 C 0.90848 0.54856 0.57991 0.0
C408 C 0.90915 0.51459 0.87845 0.0
C409 C 0.84693 0.549 0.80248 0.0
C410 C 0.89655 0.59932 1.0181 0.0
Eu411 Eu 0.90377 0.58092 0.90342 0.0
C412 C 0.90328 0.59418 0.08527 0.0
C413 C 0.87762 0.58013 0.12514 0.0
C414 C 0.88357 0.57554 0.18877 0.0
C415 C 0.91534 0.58507 0.21395 0.0
C416 C 0.94105 0.5991 0.17435 0.0
C417 C 0.93507 0.60355 0.11068 0.0
C418 C 0.92303 0.62527 0.80807 0.0
C419 C 0.97142 0.58699 0.93268 0.0
O420 O 0.95892 0.57946 0.72439 0.0
O421 O 0.91486 0.53294 0.7085 0.0
O422 O 0.93439 0.52712 0.84602 0.0
O423 O 0.89256 0.52903 0.86984 0.0
O424 O 0.87157 0.55416 0.76692 0.0
O425 O 0.85246 0.55265 0.86439 0.0
O426 O 0.87334 0.57437 0.98283 0.0
O427 O 0.92163 0.61662 0.98607 0.0
O428 O 0.89753 0.61636 0.83956 0.0
O429 O 0.93789 0.61172 0.83029 0.0
O430 O 0.94327 0.57645 0.95541 0.0
O431 O 0.9724 0.58834 0.86944 0.0
H432 H 0.9909 0.58363 0.60873 0.0
H433 H 0.98822 0.59139 0.49432 0.0
H434 H 0.88353 0.54563 0.48935 0.0
H435 H 0.88594 0.53622 0.60273 0.0
H436 H 0.85292 0.57284 0.10712 0.0
H437 H 0.86343 0.56486 0.21862 0.0
H438 H 0.96578 0.60673 0.19282 0.0
H439 H 0.95537 0.61447 0.08151 0.0
C440 C 0.45141 0.38226 0.69383 0.0
Eu441 Eu 0.45216 0.36238 0.80779 0.0
C442 C 0.44582 0.37069 0.62559 0.0
C443 C 0.44242 0.38956 0.58026 0.0
C444 C 0.43837 0.37996 0.51495 0.0
C445 C 0.43829 0.3516 0.4939 0.0
C446 C 0.44133 0.33243 0.53925 0.0
C447 C 0.44483 0.3418 0.60482 0.0
C448 C 0.50745 0.39882 0.88637 0.0
C449 C 0.46758 0.30049 0.80741 0.0
C450 C 0.43026 0.3011 1.0183 0.0
Eu451 Eu 0.44308 0.328 0.90976 0.0
C452 C 0.43191 0.30942 0.08755 0.0
C453 C 0.43147 0.28781 0.13072 0.0
C454 C 0.43173 0.2944 0.19647 0.0
C455 C 0.43244 0.32274 0.22006 0.0
C456 C 0.43282 0.34442 0.17698 0.0
C457 C 0.43253 0.33779 0.11114 0.0
C458 C 0.38995 0.29958 0.81442 0.0
C459 C 0.43417 0.38733 0.93852 0.0
O460 O 0.42626 0.36971 0.72734 0.0
O461 O 0.47745 0.38554 0.725 0.0
O462 O 0.49013 0.40935 0.85837 0.0
O463 O 0.49261 0.3676 0.87763 0.0
O464 O 0.45803 0.3175 0.77242 0.0
O465 O 0.46947 0.30506 0.86939 0.0
O466 O 0.45776 0.31056 0.99254 0.0
O467 O 0.40935 0.30458 0.9819 0.0
O468 O 0.4045 0.28539 0.83928 0.0
O469 O 0.40537 0.32825 0.83927 0.0
O470 O 0.44797 0.37215 0.96281 0.0
O471 O 0.4289 0.38471 0.87503 0.0
H472 H 0.44356 0.41211 0.59536 0.0
H473 H 0.43623 0.39512 0.48068 0.0
H474 H 0.44138 0.3105 0.52381 0.0
H475 H 0.44736 0.32688 0.63914 0.0
H476 H 0.43076 0.2657 0.1135 0.0
H477 H 0.43153 0.27747 0.22905 0.0
H478 H 0.43339 0.36643 0.19437 0.0
H479 H 0.43268 0.35473 0.07884 0.0
C480 C 0.30029 0.88642 1.00888 0.0
Eu481 Eu 0.32701 0.90118 0.12667 0.0
C482 C 0.31083 0.89616 0.94425 0.0
C483 C 0.28997 0.89977 0.89981 0.0
C484 C 0.29903 0.90827 0.83803 0.0
C485 C 0.32914 0.91323 0.81934 0.0
C486 C 0.35037 0.91037 0.86421 0.0
C487 C 0.34137 0.90203 0.92614 0.0
C488 C 0.30144 0.92312 0.22467 0.0
C489 C 0.38785 0.97048 0.1207 0.0
C490 C 0.3904 0.95235 0.36136 0.0
Eu491 Eu 0.36533 0.9244 0.24538 0.0
C492 C 0.38126 0.94693 0.4286 0.0
C493 C 0.38801 0.92669 0.46496 0.0
C494 C 0.37971 0.92224 0.52838 0.0
C495 C 0.36456 0.93797 0.55705 0.0
C496 C 0.35797 0.95834 0.52111 0.0
C497 C 0.36641 0.96292 0.45786 0.0
C498 C 0.39063 0.89399 0.17373 0.0
C499 C 0.30285 0.84952 0.22103 0.0
O500 O 0.31138 0.86969 0.03767 0.0
O501 O 0.29999 0.90834 0.04801 0.0
O502 O 0.28457 0.89749 0.18576 0.0
O503 O 0.32973 0.93559 0.20723 0.0
O504 O 0.36398 0.94554 0.08742 0.0
O505 O 0.39355 0.96928 0.18361 0.0
O506 O 0.37301 0.95986 0.3238 0.0
O507 O 0.39782 0.93265 0.33131 0.0
O508 O 0.38326 0.88909 0.23219 0.0
O509 O 0.37995 0.91206 0.1525 0.0
O510 O 0.3174 0.87587 0.26277 0.0
O511 O 0.31216 0.85298 0.16306 0.0
H512 H 0.26649 0.89577 0.91276 0.0
H513 H 0.28234 0.9105 0.80443 0.0
H514 H 0.37374 0.9142 0.85096 0.0
H515 H 0.35815 0.89988 0.95964 0.0
H516 H 0.39972 0.91425 0.44448 0.0
H517 H 0.38501 0.90639 0.55514 0.0
H518 H 0.34627 0.9707 0.54202 0.0
H519 H 0.36132 0.97905 0.43181 0.0
C520 C 0.10271 0.47707 0.37589 0.0
Eu521 Eu 0.12064 0.46789 0.26406 0.0
C522 C 0.10455 0.46914 0.44291 0.0
C523 C 0.08075 0.4667 0.48316 0.0
C524 C 0.08234 0.46011 0.54716 0.0
C525 C 0.10776 0.45573 0.57222 0.0
C526 C 0.13129 0.45758 0.53171 0.0
C527 C 0.12971 0.46422 0.46763 0.0
C528 C 0.07424 0.44285 0.15691 0.0
C529 C 0.1171 0.4015 0.28139 0.0
C530 C 0.14356 0.42753 0.04116 0.0
Eu531 Eu 0.13844 0.44578 0.15859 0.0
C532 C 0.13667 0.43092 0.97263 0.0
C533 C 0.16196 0.45254 0.9376 0.0
C534 C 0.15603 0.45525 0.87276 0.0
C535 C 0.1246 0.43656 0.84119 0.0
C536 C 0.09932 0.41467 0.87582 0.0
C537 C 0.10536 0.41155 0.94044 0.0
C538 C 0.18901 0.46573 0.24881 0.0
C539 C 0.14656 0.52144 0.17403 0.0
O540 O 0.12992 0.49786 0.35333 0.0
O541 O 0.08401 0.45292 0.33377 0.0
O542 O 0.0822 0.46908 0.19236 0.0
O543 O 0.0895 0.4304 0.18159 0.0
O544 O 0.12517 0.42937 0.31091 0.0
O545 O 0.11733 0.40001 0.21767 0.0
O546 O 0.11879 0.41086 0.07416 0.0
O547 O 0.16681 0.45281 0.07541 0.0
O548 O 0.17557 0.4389 0.21273 0.0
O549 O 0.17293 0.48068 0.23934 0.0
O550 O 0.14346 0.49663 0.13531 0.0
O551 O 0.14347 0.51777 0.23475 0.0
H552 H 0.06102 0.47021 0.4652 0.0
H553 H 0.06392 0.45876 0.57739 0.0
H554 H 0.15113 0.45433 0.54997 0.0
H555 H 0.14831 0.46583 0.43762 0.0
H556 H 0.18648 0.46734 0.96029 0.0
H557 H 0.176 0.47219 0.8472 0.0
H558 H 0.07487 0.39995 0.85275 0.0
H559 H 0.08535 0.3942 0.96534 0.0
C560 C 0.60331 0.72528 0.03132 0.0
Eu561 Eu 0.59104 0.70053 0.1417 0.0
C562 C 0.60124 0.71471 0.96324 0.0
C563 C 0.59614 0.73195 0.91636 0.0
C564 C 0.59448 0.72269 0.85145 0.0
C565 C 0.59773 0.69594 0.83255 0.0
C566 C 0.60291 0.67866 0.87927 0.0
C567 C 0.6048 0.68807 0.94421 0.0
C568 C 0.6428 0.73022 0.24187 0.0
C569 C 0.59818 0.64016 0.11887 0.0
C570 C 0.58762 0.64688 0.35889 0.0
Eu571 Eu 0.58077 0.66903 0.25079 0.0
C572 C 0.58341 0.64957 0.42724 0.0
C573 C 0.59203 0.6325 0.46885 0.0
C574 C 0.59324 0.63842 0.53504 0.0
C575 C 0.58586 0.66151 0.56034 0.0
C576 C 0.57633 0.67795 0.51873 0.0
C577 C 0.5752 0.67209 0.45246 0.0
C578 C 0.52169 0.64053 0.18101 0.0
C579 C 0.56373 0.72775 0.23643 0.0
O580 O 0.57573 0.7161 0.05681 0.0
O581 O 0.6248 0.72344 0.06946 0.0
O582 O 0.63044 0.74461 0.21055 0.0
O583 O 0.62719 0.70149 0.21785 0.0
O584 O 0.58958 0.65845 0.09031 0.0
O585 O 0.59955 0.64135 0.18294 0.0
O586 O 0.60974 0.67335 0.33763 0.0
O587 O 0.56171 0.63154 0.31882 0.0
O588 O 0.52713 0.652 0.24039 0.0
O589 O 0.54929 0.64944 0.15829 0.0
O590 O 0.57858 0.7171 0.27634 0.0
O591 O 0.55523 0.71328 0.17884 0.0
H592 H 0.5935 0.75263 0.93001 0.0
H593 H 0.59042 0.73623 0.8159 0.0
H594 H 0.60551 0.65797 0.86543 0.0
H595 H 0.60912 0.67457 0.97929 0.0
H596 H 0.59887 0.61538 0.45013 0.0
H597 H 0.60062 0.62556 0.56657 0.0
H598 H 0.57061 0.69588 0.53763 0.0
H599 H 0.56902 0.68585 0.42098 0.0
C600 C 0.31201 0.42731 0.03327 0.0
Eu601 Eu 0.33383 0.44143 0.15456 0.0
C602 C 0.32396 0.4307 0.96854 0.0
C603 C 0.30986 0.40361 0.9234 0.0
C604 C 0.31883 0.40651 0.86046 0.0
C605 C 0.34206 0.4366 0.84141 0.0
C606 C 0.35687 0.46356 0.88683 0.0
C607 C 0.34797 0.46066 0.94991 0.0
C608 C 0.30353 0.4607 0.23843 0.0
C609 C 0.40073 0.51533 0.18512 0.0
C610 C 0.39916 0.46396 0.38103 0.0
Eu611 Eu 0.37231 0.45914 0.26582 0.0
C612 C 0.38949 0.45971 0.4476 0.0
C613 C 0.41178 0.48038 0.4983 0.0
C614 C 0.40362 0.47624 0.56174 0.0
C615 C 0.37295 0.45138 0.57567 0.0
C616 C 0.35056 0.4307 0.52511 0.0
C617 C 0.35875 0.43477 0.46166 0.0
C618 C 0.39396 0.43564 0.1628 0.0
C619 C 0.30757 0.39566 0.27218 0.0
O620 O 0.31592 0.40761 0.0684 0.0
O621 O 0.31716 0.45342 0.06676 0.0
O622 O 0.28931 0.43594 0.19669 0.0
O623 O 0.33473 0.47475 0.23613 0.0
O624 O 0.38256 0.49058 0.14092 0.0
O625 O 0.39475 0.51041 0.24454 0.0
O626 O 0.4005 0.48856 0.35403 0.0
O627 O 0.38649 0.43791 0.3415 0.0
O628 O 0.41204 0.46099 0.20148 0.0
O629 O 0.36589 0.42359 0.18191 0.0
O630 O 0.32608 0.42348 0.30413 0.0
O631 O 0.30883 0.39421 0.20885 0.0
H632 H 0.29136 0.38027 0.93653 0.0
H633 H 0.30717 0.3854 0.82624 0.0
H634 H 0.37491 0.48697 0.87311 0.0
H635 H 0.35944 0.48194 0.98367 0.0
H636 H 0.43565 0.49964 0.48883 0.0
H637 H 0.42125 0.49241 0.60006 0.0
H638 H 0.32682 0.41129 0.53483 0.0
H639 H 0.34111 0.41825 0.42383 0.0
C640 C 0.578 0.95321 0.36656 0.0
Eu641 Eu 0.57281 0.92476 0.25241 0.0
C642 C 0.58026 0.94675 0.43482 0.0
C643 C 0.55287 0.92367 0.46336 0.0
C644 C 0.55537 0.91831 0.5279 0.0
C645 C 0.58525 0.93589 0.56542 0.0
C646 C 0.61261 0.959 0.53721 0.0
C647 C 0.61012 0.96443 0.47272 0.0
C648 C 0.51512 0.89495 0.17759 0.0
C649 C 0.5557 0.84873 0.23221 0.0
C650 C 0.59301 0.88392 1.02637 0.0
Eu651 Eu 0.58444 0.90061 0.14148 0.0
C652 C 0.59291 0.89388 0.96055 0.0
C653 C 0.61796 0.89793 0.92231 0.0
C654 C 0.61781 0.90616 0.85923 0.0
C655 C 0.59246 0.91035 0.83294 0.0
C656 C 0.56772 0.90697 0.87152 0.0
C657 C 0.56798 0.89892 0.93478 0.0
C658 C 0.63292 0.91878 0.2447 0.0
C659 C 0.59567 0.9704 0.12711 0.0
O660 O 0.60272 0.95881 0.33417 0.0
O661 O 0.55041 0.93538 0.33216 0.0
O662 O 0.51899 0.88957 0.2363 0.0
O663 O 0.54345 0.91274 0.15781 0.0
O664 O 0.56941 0.87501 0.27396 0.0
O665 O 0.54771 0.85317 0.175 0.0
O666 O 0.5651 0.86952 0.05186 0.0
O667 O 0.61686 0.90449 0.06748 0.0
O668 O 0.62081 0.89248 0.20761 0.0
O669 O 0.61985 0.93425 0.22417 0.0
O670 O 0.59611 0.94593 0.09863 0.0
O671 O 0.58754 0.96897 0.18784 0.0
H672 H 0.52944 0.90972 0.43596 0.0
H673 H 0.53395 0.90038 0.54867 0.0
H674 H 0.63591 0.97285 0.56517 0.0
H675 H 0.63162 0.98255 0.45244 0.0
H676 H 0.63754 0.89437 0.94108 0.0
H677 H 0.6372 0.90877 0.8305 0.0
H678 H 0.548 0.9102 0.85237 0.0
H679 H 0.54851 0.89632 0.96324 0.0
C680 C 0.11029 0.71586 0.04937 0.0
Eu681 Eu 0.12066 0.69711 0.1593 0.0
C682 C 0.11542 0.71676 0.98032 0.0
C683 C 0.10954 0.73774 0.94497 0.0
C684 C 0.10747 0.73479 0.87797 0.0
C685 C 0.11128 0.71075 0.84495 0.0
C686 C 0.11832 0.69043 0.88016 0.0
C687 C 0.12031 0.69335 0.94733 0.0
C688 C 0.18071 0.72505 0.22599 0.0
C689 C 0.14096 0.63958 0.16845 0.0
C690 C 0.09957 0.64121 0.38065 0.0
Eu691 Eu 0.11224 0.66435 0.26892 0.0
C692 C 0.10048 0.6543 0.4469 0.0
C693 C 0.07371 0.6379 0.48277 0.0
C694 C 0.07332 0.65046 0.54432 0.0
C695 C 0.09905 0.68091 0.57146 0.0
C696 C 0.12716 0.69536 0.53671 0.0
C697 C 0.1275 0.68288 0.47503 0.0
C698 C 0.06091 0.6334 0.16964 0.0
C699 C 0.10262 0.72437 0.29222 0.0
O700 O 0.0927 0.6872 0.06851 0.0
O701 O 0.13404 0.73522 0.092 0.0
O702 O 0.17436 0.7148 0.16585 0.0
O703 O 0.15347 0.71565 0.2508 0.0
O704 O 0.12824 0.65293 0.13033 0.0
O705 O 0.14449 0.64741 0.23006 0.0
O706 O 0.12739 0.65027 0.3559 0.0
O707 O 0.07757 0.64049 0.33968 0.0
O708 O 0.07576 0.62026 0.19785 0.0
O709 O 0.07532 0.6621 0.19424 0.0
O710 O 0.11092 0.70549 0.3198 0.0
O711 O 0.10212 0.7245 0.2283 0.0
H712 H 0.10506 0.7555 0.96915 0.0
H713 H 0.10189 0.75063 0.8518 0.0
H714 H 0.12126 0.67169 0.85562 0.0
H715 H 0.1243 0.67648 0.97337 0.0
H716 H 0.05299 0.61505 0.46332 0.0
H717 H 0.05285 0.63528 0.5704 0.0
H718 H 0.14976 0.71596 0.5567 0.0
H719 H 0.14914 0.69556 0.44965 0.0
C720 C 0.08117 0.34108 0.30447 0.0
C721 C 0.10658 0.37309 0.32372 0.0
C722 C 0.1023 0.35765 0.43658 0.0
C723 C 0.07716 0.32541 0.41682 0.0
N724 N 0.05727 0.28518 0.32565 0.0
N725 N 0.14975 0.40559 0.40599 0.0
C726 C 0.07106 0.31676 0.34895 0.0
C727 C 0.11965 0.37942 0.38928 0.0
N728 N 0.06526 0.33335 0.24483 0.0
N729 N 0.10964 0.36819 0.49987 0.0
H730 H 0.16421 0.41973 0.37171 0.0
H731 H 0.16192 0.41036 0.45133 0.0
H732 H 0.09832 0.35357 0.53609 0.0
H733 H 0.12548 0.39232 0.51609 0.0
H734 H 0.0447 0.31082 0.23169 0.0
H735 H 0.07046 0.34977 0.21057 0.0
H736 H 0.05674 0.27862 0.27734 0.0
H737 H 0.05088 0.26621 0.35446 0.0
C738 C 0.69257 0.72988 0.3942 0.0
C739 C 0.7021 0.75952 0.43137 0.0
C740 C 0.6677 0.76826 0.34898 0.0
C741 C 0.66445 0.74216 0.30624 0.0
N742 N 0.68326 0.70401 0.28754 0.0
N743 N 0.69606 0.80707 0.44093 0.0
C744 C 0.67984 0.72493 0.32871 0.0
C745 C 0.68905 0.77879 0.40761 0.0
N746 N 0.69324 0.70502 0.422 0.0
N747 N 0.64902 0.78213 0.33684 0.0
H748 H 0.70597 0.81367 0.48801 0.0
H749 H 0.69251 0.82466 0.42073 0.0
H750 H 0.63306 0.77623 0.29651 0.0
H751 H 0.64682 0.79762 0.37031 0.0
H752 H 0.68431 0.68226 0.39773 0.0
H753 H 0.69799 0.70551 0.47108 0.0
H754 H 0.69628 0.6927 0.30118 0.0
H755 H 0.67715 0.70142 0.23849 0.0
C756 C 0.25528 0.92331 0.37534 0.0
C757 C 0.27438 0.95579 0.40236 0.0
C758 C 0.30862 0.96742 0.31094 0.0
C759 C 0.29136 0.93408 0.28593 0.0
N760 N 0.25159 0.87925 0.3066 0.0
N761 N 0.32321 1.00716 0.40184 0.0
C762 C 0.26559 0.91176 0.32157 0.0
C763 C 0.30241 0.97711 0.37214 0.0
N764 N 0.22662 0.90337 0.40036 0.0
N765 N 0.32957 0.99058 0.2746 0.0
H766 H 0.31957 0.01484 0.44642 0.0
H767 H 0.34563 0.02313 0.38574 0.0
H768 H 0.33361 0.98549 0.22855 0.0
H769 H 0.33994 0.01531 0.28673 0.0
H770 H 0.20914 0.88093 0.37799 0.0
H771 H 0.21948 0.91024 0.44176 0.0
H772 H 0.23562 0.86203 0.33508 0.0
H773 H 0.25812 0.86916 0.26952 0.0
C774 C 0.34004 0.05147 0.65615 0.0
C775 C 0.33012 0.07124 0.62425 0.0
C776 C 0.35612 0.11215 0.71806 0.0
C777 C 0.36611 0.09242 0.75007 0.0
N778 N 0.35438 0.03745 0.75701 0.0
N779 N 0.342 0.12611 0.6167 0.0
C780 C 0.35448 0.06048 0.72103 0.0
C781 C 0.34188 0.10318 0.65301 0.0
N782 N 0.33852 0.02537 0.62303 0.0
N783 N 0.35751 0.13825 0.75093 0.0
H784 H 0.33589 0.12196 0.56752 0.0
H785 H 0.3526 0.15041 0.63318 0.0
H786 H 0.36324 0.1434 0.80005 0.0
H787 H 0.3481 0.15186 0.73165 0.0
H788 H 0.34824 0.01193 0.64192 0.0
H789 H 0.33257 0.02032 0.57388 0.0
H790 H 0.34307 0.01308 0.74046 0.0
H791 H 0.36077 0.04146 0.80609 0.0
C792 C 0.96815 0.30366 0.72807 0.0
C793 C 0.93722 0.2837 0.75204 0.0
C794 C 0.92369 0.24506 0.65558 0.0
C795 C 0.95452 0.2652 0.63096 0.0
N796 N 0.99916 0.32028 0.63542 0.0
N797 N 0.89312 0.22863 0.74906 0.0
C798 C 0.97493 0.29623 0.66517 0.0
C799 C 0.91712 0.25253 0.71865 0.0
N800 N 0.99253 0.32849 0.76716 0.0
N801 N 0.89907 0.22006 0.61722 0.0
H802 H 0.88993 0.23143 0.79713 0.0
H803 H 0.87968 0.20467 0.72975 0.0
H804 H 0.90047 0.21576 0.56888 0.0
H805 H 0.87537 0.20673 0.63059 0.0
H806 H 0.01643 0.34172 0.75469 0.0
H807 H 0.99042 0.33256 0.81537 0.0
H808 H 1.01243 0.34416 0.65528 0.0
H809 H 1.00268 0.3178 0.58744 0.0
C810 C 0.77656 0.68323 0.67325 0.0
C811 C 0.75302 0.68916 0.64176 0.0
C812 C 0.71517 0.65871 0.72269 0.0
C813 C 0.73686 0.64881 0.75002 0.0
N814 N 0.78875 0.65043 0.74097 0.0
N815 N 0.69691 0.67527 0.62907 0.0
C816 C 0.7676 0.66057 0.72205 0.0
C817 C 0.72134 0.67413 0.66386 0.0
N818 N 0.80823 0.70062 0.65911 0.0
N819 N 0.69001 0.65643 0.7554 0.0
H820 H 0.7006 0.68623 0.58618 0.0
H821 H 0.67258 0.66243 0.63916 0.0
H822 H 0.6872 0.65073 0.80254 0.0
H823 H 0.67502 0.66531 0.73974 0.0
H824 H 0.82761 0.70121 0.68597 0.0
H825 H 0.81539 0.71642 0.62319 0.0
H826 H 0.80902 0.65492 0.71665 0.0
H827 H 0.78535 0.63552 0.77731 0.0
C828 C 0.95573 0.70674 0.72871 0.0
C829 C 0.95835 0.6981 0.66377 0.0
C830 C 0.93288 0.64124 0.69158 0.0
C831 C 0.93497 0.65047 0.75818 0.0
N832 N 0.95227 0.69405 0.83998 0.0
N833 N 0.95216 0.65609 0.58696 0.0
C834 C 0.94737 0.68383 0.77648 0.0
C835 C 0.94726 0.66503 0.64613 0.0
N836 N 0.96009 0.73679 0.74448 0.0
N837 N 0.916 0.60942 0.67036 0.0
H838 H 0.96232 0.67227 0.55223 0.0
H839 H 0.94826 0.633 0.57467 0.0
H840 H 0.90796 0.59125 0.70116 0.0
H841 H 0.90761 0.60166 0.62249 0.0
H842 H 0.9559 0.7439 0.78903 0.0
H843 H 0.96429 0.75339 0.71067 0.0
H844 H 0.9649 0.71834 0.85707 0.0
H845 H 0.94625 0.67824 0.87592 0.0
C846 C 0.3362 0.24572 0.66228 0.0
C847 C 0.3265 0.26606 0.63176 0.0
C848 C 0.35433 0.30662 0.72583 0.0
C849 C 0.36452 0.28656 0.7557 0.0
N850 N 0.35115 0.23117 0.76209 0.0
N851 N 0.33903 0.32137 0.62684 0.0
C852 C 0.35154 0.25447 0.72659 0.0
C853 C 0.33904 0.29801 0.66156 0.0
N854 N 0.33343 0.21916 0.62859 0.0
N855 N 0.35638 0.33262 0.76048 0.0
H856 H 0.33241 0.31773 0.57788 0.0
H857 H 0.35028 0.34561 0.64415 0.0
H858 H 0.36318 0.33754 0.80938 0.0
H859 H 0.34649 0.34623 0.74323 0.0
H860 H 0.34257 0.20508 0.64663 0.0
H861 H 0.32672 0.2139 0.57976 0.0
H862 H 0.33945 0.20678 0.74561 0.0
H863 H 0.35813 0.2352 0.81092 0.0
C864 C 0.7229 0.08941 0.69511 0.0
C865 C 0.73285 0.09225 0.76154 0.0
C866 C 0.77312 0.07663 0.72906 0.0
C867 C 0.75989 0.06935 0.66299 0.0
N868 N 0.71588 0.06307 0.5894 0.0
N869 N 0.76437 0.08261 0.84104 0.0
C870 C 0.73323 0.07439 0.64776 0.0
C871 C 0.75712 0.08419 0.77804 0.0
N872 N 0.70448 0.10235 0.67579 0.0
N873 N 0.8018 0.07752 0.74591 0.0
H874 H 0.75319 0.08762 0.87797 0.0
H875 H 0.77895 0.07322 0.85629 0.0
H876 H 0.81535 0.07292 0.71406 0.0
H877 H 0.81426 0.08636 0.79108 0.0
H878 H 0.70181 0.10644 0.62821 0.0
H879 H 0.69511 0.11205 0.70795 0.0
H880 H 0.69419 0.06303 0.57884 0.0
H881 H 0.72087 0.0507 0.55374 0.0
C882 C 0.68853 0.95768 0.30486 0.0
C883 C 0.65773 0.92913 0.30333 0.0
C884 C 0.67228 0.92491 0.41702 0.0
C885 C 0.70418 0.95205 0.41619 0.0
N886 N 0.74462 0.98215 0.34498 0.0
N887 N 0.62664 0.87972 0.3541 0.0
C888 C 0.71278 0.96542 0.35647 0.0
C889 C 0.65135 0.91098 0.35835 0.0
N890 N 0.6957 0.97724 0.25599 0.0
N891 N 0.66162 0.91236 0.47361 0.0
H892 H 0.61422 0.86754 0.31056 0.0
H893 H 0.62212 0.86473 0.39112 0.0
H894 H 0.67612 0.92173 0.51679 0.0
H895 H 0.63754 0.8947 0.47815 0.0
H896 H 0.71688 0.99979 0.2585 0.0
H897 H 0.6799 0.97185 0.21516 0.0
H898 H 0.75143 0.98634 0.29851 0.0
H899 H 0.76324 0.9869 0.37939 0.0
C900 C 0.10221 0.78644 0.41911 0.0
C901 C 0.07619 0.76504 0.45558 0.0
C902 C 0.06249 0.72136 0.36951 0.0
C903 C 0.09036 0.74136 0.33729 0.0
N904 N 0.1396 0.79242 0.33778 0.0
N905 N 0.03991 0.70877 0.47165 0.0
C906 C 0.11092 0.77382 0.36388 0.0
C907 C 0.05854 0.73161 0.43216 0.0
N908 N 0.11864 0.81893 0.43593 0.0
N909 N 0.03973 0.69182 0.34051 0.0
H910 H 0.03908 0.71418 0.51992 0.0
H911 H 0.02922 0.68402 0.45908 0.0
H912 H 0.04181 0.68369 0.29485 0.0
H913 H 0.01742 0.67723 0.35876 0.0
H914 H 0.13523 0.83578 0.40772 0.0
H915 H 0.11426 0.82966 0.47545 0.0
H916 H 0.15804 0.81465 0.35908 0.0
H917 H 0.14564 0.78446 0.29627 0.0
C918 C 0.30933 0.35188 0.33213 0.0
C919 C 0.29137 0.36693 0.31212 0.0
C920 C 0.2528 0.33916 0.39425 0.0
C921 C 0.27206 0.32585 0.41667 0.0
N922 N 0.3218 0.32424 0.41338 0.0
N923 N 0.24766 0.37749 0.3291 0.0
C924 C 0.30116 0.33356 0.38714 0.0
C925 C 0.26353 0.36121 0.34475 0.0
N926 N 0.33433 0.35495 0.29793 0.0
N927 N 0.22384 0.33021 0.41962 0.0
H928 H 0.25353 0.39193 0.29082 0.0
H929 H 0.22974 0.37783 0.3553 0.0
H930 H 0.21652 0.31594 0.45809 0.0
H931 H 0.20654 0.33564 0.40107 0.0
H932 H 0.34638 0.34202 0.30488 0.0
H933 H 0.34118 0.3685 0.25854 0.0
H934 H 0.34523 0.33234 0.39974 0.0
H935 H 0.31678 0.31103 0.45342 0.0
C936 C 0.02912 0.42389 0.98506 0.0
C937 C 0.99595 0.40384 0.99828 0.0
C938 C 0.01571 0.40601 0.11162 0.0
C939 C 0.04819 0.42767 0.10033 0.0
N940 N 0.08669 0.4549 1.02372 0.0
N941 N 0.95995 0.39026 0.08521 0.0
C942 C 0.05506 0.43592 0.0361 0.0
C943 C 0.98983 0.39879 0.06447 0.0
N944 N 0.03594 0.43236 0.92424 0.0
N945 N 1.00912 0.39164 0.16764 0.0
H946 H 0.9415 0.39123 0.05863 0.0
H947 H 0.95544 0.38818 0.13312 0.0
H948 H 0.02707 0.39674 0.20433 0.0
H949 H 0.98644 0.37176 0.17356 0.0
H950 H 0.05913 0.44327 0.90821 0.0
H951 H 0.01829 0.42996 0.88959 0.0
H952 H 0.09438 0.46603 0.98177 0.0
H953 H 0.10565 0.45916 0.05664 0.0
C954 C 0.64786 0.63264 0.9894 0.0
C955 C 0.62721 0.60075 0.96016 0.0
C956 C 0.58851 0.59216 0.04283 0.0
C957 C 0.61047 0.62313 0.07498 0.0
N958 N 0.66311 0.67123 0.08269 0.0
N959 N 0.57919 0.54879 0.96338 0.0
C960 C 0.64081 0.64273 0.04922 0.0
C961 C 0.59793 0.58014 0.98837 0.0
N962 N 0.67411 0.65364 0.95903 0.0
N963 N 0.55803 0.57465 0.06295 0.0
H964 H 0.58414 0.54007 0.92136 0.0
H965 H 0.5598 0.53119 0.98559 0.0
H966 H 0.55105 0.58219 0.10361 0.0
H967 H 0.53933 0.55373 0.03786 0.0
H968 H 0.68809 0.67827 0.97295 0.0
H969 H 0.68007 0.64694 0.91597 0.0
H970 H 0.68669 0.68589 0.0701 0.0
H971 H 0.65882 0.67895 0.12662 0.0
C972 C 0.39629 0.03352 1.00936 0.0
C973 C 0.42253 0.03759 0.9732 0.0
C974 C 0.43077 1.00153 0.04354 0.0
C975 C 0.40606 0.99949 0.08239 0.0
N976 N 0.37013 0.01927 0.10864 0.0
N977 N 0.46828 0.02945 0.96316 0.0
C978 C 0.39049 0.01744 0.0671 0.0
C979 C 0.44081 0.02273 0.99252 0.0
N980 N 0.37614 0.04434 0.98727 0.0
N981 N 0.444 0.98237 0.0542 0.0
H982 H 0.47538 0.04364 0.92454 0.0
H983 H 0.48486 0.02257 0.97936 0.0
H984 H 0.43826 0.96792 0.09244 0.0
H985 H 0.4593 0.97966 1.02367 0.0
H986 H 0.35485 0.03976 1.00768 0.0
H987 H 0.379 0.05518 0.94439 0.0
H988 H 0.35992 0.03403 0.10416 0.0
H989 H 0.36646 1.00851 0.15159 0.0
C990 C 0.6448 0.02899 1.00676 0.0
C991 C 0.62171 0.03491 0.97314 0.0
C992 C 0.58152 1.00257 0.04978 0.0
C993 C 0.60549 0.99869 0.08579 0.0
N994 N 0.66188 0.01416 0.10454 0.0
N995 N 0.56908 0.03089 0.96926 0.0
C996 C 0.63771 0.01387 0.06587 0.0
C997 C 0.59034 0.02272 0.99678 0.0
N998 N 0.67355 0.0372 0.98102 0.0
N999 N 0.54996 0.98604 0.0649 0.0
H1000 H 0.57416 0.04397 0.929 0.0
H1001 H 0.5474 0.02621 0.9881 0.0
H1002 H 0.5432 0.97251 0.10449 0.0
H1003 H 0.53046 0.98455 0.03683 0.0
H1004 H 0.69033 0.031 0.99921 0.0
H1005 H 0.67912 0.04747 0.93747 0.0
H1006 H 0.68652 0.02731 0.09692 0.0
H1007 H 0.65747 1.00382 0.14815 0.0
C1008 C 0.02586 0.63976 0.07895 0.0
C1009 C 0.0372 0.62022 0.10779 0.0
C1010 C 1.00933 0.57985 1.01247 0.0
C1011 C 1.00058 0.60081 0.98262 0.0
N1012 N 1.00712 0.65378 0.98219 0.0
N1013 N 0.02866 0.56601 0.10875 0.0
C1014 C 1.01125 0.63176 1.01425 0.0
C1015 C 0.02623 0.58876 0.07595 0.0
N1016 N 0.02585 0.66431 0.11523 0.0
N1017 N 1.00163 0.55133 0.97919 0.0
H1018 H 0.03623 0.56953 0.15716 0.0
H1019 H 0.01936 0.5421 0.09094 0.0
H1020 H 0.9895 0.54467 0.93343 0.0
H1021 H 1.00956 0.53572 0.99366 0.0
H1022 H 0.01559 0.67769 0.09854 0.0
H1023 H 0.03126 0.6681 0.16457 0.0
H1024 H 0.01737 0.67797 0.99934 0.0
H1025 H 0.99647 0.64856 0.93528 0.0
C1026 C 0.38753 0.3906 0.07954 0.0
C1027 C 0.40353 0.42421 0.10146 0.0
C1028 C 0.43836 0.43477 1.00976 0.0
C1029 C 0.42038 0.40173 0.9857 0.0
N1030 N 0.37333 0.34946 0.99147 0.0
N1031 N 0.44062 0.47897 0.07588 0.0
C1032 C 0.39336 0.38027 1.0185 0.0
C1033 C 0.42795 0.44647 0.06327 0.0
N1034 N 0.36859 0.36798 0.11903 0.0
N1035 N 0.46623 0.45502 0.98273 0.0
H1036 H 0.43404 0.48911 0.11291 0.0
H1037 H 0.45546 0.49593 0.04569 0.0
H1038 H 0.47352 0.44773 0.94208 0.0
H1039 H 0.48304 0.47822 1.00291 0.0
H1040 H 0.359 0.34322 0.1088 0.0
H1041 H 0.36587 0.37393 0.16568 0.0
H1042 H 0.35184 0.333 1.00999 0.0
H1043 H 0.37669 0.34136 0.94696 0.0
C1044 C 0.11175 0.24449 0.45224 0.0
C1045 C 0.08828 0.22401 0.49304 0.0
C1046 C 0.12571 0.20348 0.52394 0.0
C1047 C 0.14966 0.22503 0.48495 0.0
N1048 N 0.16043 0.25797 0.39709 0.0
N1049 N 0.06952 0.17771 0.55335 0.0
C1050 C 0.14071 0.24259 0.44387 0.0
C1051 C 0.0942 0.20126 0.52355 0.0
N1052 N 0.10768 0.26763 0.42517 0.0
N1053 N 0.13366 0.18665 0.56468 0.0
H1054 H 0.0466 0.17581 0.55348 0.0
H1055 H 0.07065 0.15853 0.57211 0.0
H1056 H 0.15556 0.18655 0.56477 0.0
H1057 H 0.1192 0.17392 0.60032 0.0
H1058 H 0.12547 0.28609 0.40148 0.0
H1059 H 0.08687 0.26922 0.43032 0.0
H1060 H 0.15438 0.26912 0.36191 0.0
H1061 H 0.1814 0.25666 0.39002 0.0
C1062 C 0.78438 0.90718 0.43407 0.0
C1063 C 0.81023 0.93536 0.4696 0.0
C1064 C 0.83562 0.90228 0.49867 0.0
C1065 C 0.80772 0.87336 0.47042 0.0
N1066 N 0.76167 0.85108 0.39141 0.0
N1067 N 0.86265 0.96047 0.52878 0.0
C1068 C 0.78407 0.8767 0.43179 0.0
C1069 C 0.83671 0.93301 0.49887 0.0
N1070 N 0.75881 0.9089 0.40579 0.0
N1071 N 0.86176 0.90031 0.52327 0.0
H1072 H 0.8652 0.98326 0.52483 0.0
H1073 H 0.88141 0.96109 0.55764 0.0
H1074 H 0.86231 0.87873 0.52018 0.0
H1075 H 0.88384 0.91996 0.54207 0.0
H1076 H 0.7368 0.88876 0.38799 0.0
H1077 H 0.75918 0.9307 0.40226 0.0
H1078 H 0.74614 0.85266 0.35692 0.0
H1079 H 0.76061 0.82882 0.38761 0.0
C1080 C 0.0952 0.90771 0.53205 0.0
C1081 C 0.08587 0.87924 0.49094 0.0
C1082 C 0.13761 0.91034 0.43969 0.0
C1083 C 0.14935 0.93644 0.48849 0.0
N1084 N 0.13837 0.95959 0.58183 0.0
N1085 N 0.09178 0.86105 0.38601 0.0
C1086 C 0.12755 0.93527 0.53394 0.0
C1087 C 0.10513 0.88274 0.43866 0.0
N1088 N 0.0722 0.90914 0.56656 0.0
N1089 N 0.15819 0.91141 0.39542 0.0
H1090 H 0.06736 0.84305 0.38051 0.0
H1091 H 0.10344 0.86332 0.34432 0.0
H1092 H 0.18087 0.93191 0.39212 0.0
H1093 H 0.1535 0.89178 0.36393 0.0
H1094 H 0.0761 0.92989 0.59321 0.0
H1095 H 0.04781 0.89074 0.56163 0.0
H1096 H 0.12564 0.95821 0.62164 0.0
H1097 H 0.16104 0.98061 0.58359 0.0
C1098 C 0.19226 0.11679 0.56021 0.0
C1099 C 0.21882 0.14595 0.59127 0.0
C1100 C 0.24485 0.11434 0.62504 0.0
C1101 C 0.21991 0.08603 0.58843 0.0
N1102 N 0.16559 0.05813 0.53736 0.0
N1103 N 0.26457 0.16948 0.67084 0.0
C1104 C 0.19219 0.08669 0.56146 0.0
C1105 C 0.24312 0.14368 0.62971 0.0
N1106 N 0.16732 0.1182 0.52795 0.0
N1107 N 0.27128 0.11383 0.65236 0.0
H1108 H 0.26398 0.19094 0.67577 0.0
H1109 H 0.28075 0.1686 0.7048 0.0
H1110 H 0.27262 0.09275 0.6529 0.0
H1111 H 0.29237 0.13439 0.67233 0.0
H1112 H 0.14917 0.09937 0.49734 0.0
H1113 H 0.16522 0.13893 0.53109 0.0
H1114 H 0.14337 0.05572 0.52094 0.0
H1115 H 0.16494 0.03604 0.53902 0.0
C1116 C 0.9049 0.08858 0.57125 0.0
C1117 C 0.87836 0.09048 0.59593 0.0
C1118 C 0.91769 0.14865 0.63012 0.0
C1119 C 0.94146 0.14846 0.59176 0.0
N1120 N 0.95818 0.11673 0.52862 0.0
N1121 N 0.86041 0.12543 0.64444 0.0
C1122 C 0.93519 0.11783 0.56362 0.0
C1123 C 0.88528 0.12128 0.6251 0.0
N1124 N 0.90139 0.05896 0.55519 0.0
N1125 N 0.92552 0.17497 0.67125 0.0
H1126 H 0.83631 0.10687 0.64172 0.0
H1127 H 0.86322 0.14802 0.65789 0.0
H1128 H 0.94858 0.19536 0.67725 0.0
H1129 H 0.9102 0.17489 0.70521 0.0
H1130 H 0.92032 0.05558 0.54122 0.0
H1131 H 0.88055 0.03757 0.56327 0.0
H1132 H 0.95394 0.09642 0.49982 0.0
H1133 H 0.98134 0.13681 0.52676 0.0
C1134 C 0.93662 0.82212 0.60683 0.0
C1135 C 0.93923 0.79654 0.57498 0.0
C1136 C 0.87918 0.76815 0.54572 0.0
C1137 C 0.87711 0.79527 0.57127 0.0
N1138 N 0.90463 0.84879 0.62477 0.0
N1139 N 0.9123 0.74566 0.51024 0.0
C1140 C 0.90609 0.8223 0.60208 0.0
C1141 C 0.91014 0.76949 0.54448 0.0
N1142 N 0.96356 0.84633 0.64182 0.0
N1143 N 0.85136 0.74083 0.52133 0.0
H1144 H 0.93361 0.74457 0.51033 0.0
H1145 H 0.89369 0.72801 0.47843 0.0
H1146 H 0.8289 0.73957 0.51575 0.0
H1147 H 0.84989 0.71861 0.51089 0.0
H1148 H 0.96345 0.86456 0.67082 0.0
H1149 H 0.98577 0.84667 0.64558 0.0
H1150 H 0.92496 0.87081 0.64144 0.0
H1151 H 0.88274 0.84907 0.62433 0.0
C1152 C 0.78539 0.51622 0.79949 0.0
C1153 C 0.8133 0.54242 0.77678 0.0
C1154 C 0.77748 0.56351 0.7386 0.0
C1155 C 0.7521 0.54195 0.77485 0.0
N1156 N 0.7302 0.4943 0.83221 0.0
N1157 N 0.83538 0.5914 0.72306 0.0
C1158 C 0.75553 0.517 0.80221 0.0
C1159 C 0.80899 0.56575 0.7445 0.0
N1160 N 0.78763 0.49041 0.8183 0.0
N1161 N 0.77156 0.58166 0.69792 0.0
H1162 H 0.85822 0.59332 0.72431 0.0
H1163 H 0.83496 0.61149 0.70722 0.0
H1164 H 0.749 0.58033 0.69175 0.0
H1165 H 0.78783 0.59535 0.66545 0.0
H1166 H 0.76795 0.46916 0.83086 0.0
H1167 H 0.80893 0.4892 0.81553 0.0
H1168 H 0.73195 0.47792 0.86052 0.0
H1169 H 0.70727 0.49244 0.82973 0.0
C1170 C 0.44696 0.24427 0.74765 0.0
C1171 C 0.47267 0.27299 0.78174 0.0
C1172 C 0.49999 0.24209 0.81133 0.0
C1173 C 0.47263 0.21266 0.78365 0.0
N1174 N 0.42579 0.18806 0.70681 0.0
N1175 N 0.52816 0.30103 0.82691 0.0
C1176 C 0.44806 0.21457 0.7454 0.0
C1177 C 0.50069 0.27232 0.80707 0.0
N1178 N 0.42057 0.24481 0.72032 0.0
N1179 N 0.52506 0.24087 0.84349 0.0
H1180 H 0.52923 0.3232 0.82296 0.0
H1181 H 0.55051 0.30324 0.8415 0.0
H1182 H 0.52654 0.21979 0.8426 0.0
H1183 H 0.54384 0.26022 0.87208 0.0
H1184 H 0.39915 0.22417 0.70188 0.0
H1185 H 0.41978 0.26608 0.71754 0.0
H1186 H 0.40932 0.18847 0.67286 0.0
H1187 H 0.42596 0.16636 0.70394 0.0
C1188 C 0.77351 0.21028 0.75959 0.0
C1189 C 0.74843 0.21054 0.79435 0.0
C1190 C 0.78306 0.27035 0.81261 0.0
C1191 C 0.81006 0.26931 0.78836 0.0
N1192 N 0.83007 0.23861 0.73224 0.0
N1193 N 0.72839 0.24165 0.84892 0.0
C1194 C 0.80471 0.23944 0.75855 0.0
C1195 C 0.7529 0.24099 0.81847 0.0
N1196 N 0.76776 0.18197 0.72845 0.0
N1197 N 0.78649 0.2999 0.82969 0.0
H1198 H 0.70536 0.22121 0.84946 0.0
H1199 H 0.73089 0.26195 0.87501 0.0
H1200 H 0.80801 0.3214 0.82462 0.0
H1201 H 0.76761 0.30344 0.84326 0.0
H1202 H 0.78323 0.17991 0.69757 0.0
H1203 H 0.74602 0.16046 0.72985 0.0
H1204 H 0.82986 0.21753 0.71661 0.0
H1205 H 0.85201 0.25947 0.72663 0.0
C1206 C 0.8775 0.45329 0.848 0.0
C1207 C 0.89664 0.47983 0.89461 0.0
C1208 C 0.91552 0.4461 0.94712 0.0
C1209 C 0.89728 0.41964 0.89967 0.0
N1210 N 0.85537 0.39625 0.81246 0.0
N1211 N 0.92574 0.49761 0.99826 0.0
C1212 C 0.87612 0.42258 0.85316 0.0
C1213 C 0.91269 0.47467 0.94755 0.0
N1214 N 0.86225 0.45807 0.7964 0.0
N1215 N 0.93745 0.44488 0.9897 0.0
H1216 H 0.92361 0.51833 0.99949 0.0
H1217 H 0.93554 0.49464 0.04108 0.0
H1218 H 0.93981 0.42447 0.99142 0.0
H1219 H 0.9546 0.4646 1.02011 0.0
H1220 H 0.85143 0.44164 0.75623 0.0
H1221 H 0.8616 0.47941 0.79275 0.0
H1222 H 0.83725 0.39545 0.78114 0.0
H1223 H 0.85449 0.3741 0.81385 0.0
C1224 C 0.55767 0.44845 0.94228 0.0
C1225 C 0.54436 0.42222 0.89364 0.0
C1226 C 0.59381 0.45365 0.8353 0.0
C1227 C 0.60612 0.48047 0.88234 0.0
N1228 N 0.60413 0.49954 0.98854 0.0
N1229 N 0.5539 0.39731 0.80099 0.0
C1230 C 0.58941 0.47639 0.93852 0.0
C1231 C 0.56401 0.42394 0.84289 0.0
N1232 N 0.53912 0.4473 0.99089 0.0
N1233 N 0.60976 0.45733 0.78124 0.0
H1234 H 0.53231 0.37571 0.80418 0.0
H1235 H 0.56806 0.39554 0.76647 0.0
H1236 H 0.63221 0.47778 0.77607 0.0
H1237 H 0.60043 0.44096 0.74078 0.0
H1238 H 0.54494 0.46694 1.0234 0.0
H1239 H 0.5169 0.42673 0.99699 0.0
H1240 H 0.59509 0.49754 0.03325 0.0
H1241 H 0.62721 0.5196 0.98649 0.0
C1242 C 0.58126 0.12322 0.95215 0.0
C1243 C 0.60272 0.13676 0.90322 0.0
C1244 C 0.56485 0.1532 0.85509 0.0
C1245 C 0.54201 0.13702 0.90072 0.0
N1246 N 0.53198 0.11396 1.00138 0.0
N1247 N 0.61927 0.17253 0.81932 0.0
C1248 C 0.55166 0.1247 0.95241 0.0
C1249 C 0.59598 0.15462 0.8588 0.0
N1250 N 0.58873 0.10768 0.99696 0.0
N1251 N 0.55585 0.1653 0.80553 0.0
H1252 H 0.64195 0.17395 0.82123 0.0
H1253 H 0.61751 0.18828 0.78917 0.0
H1254 H 0.53425 0.16607 0.803 0.0
H1255 H 0.56904 0.17351 0.76582 0.0
H1256 H 0.57299 0.09386 0.02994 0.0
H1257 H 0.61105 0.10826 1.00007 0.0
H1258 H 0.53771 0.10622 0.04287 0.0
H1259 H 0.51071 0.11534 1.00245 0.0
C1260 C 0.48342 0.92501 0.19043 0.0
C1261 C 0.48539 0.89861 0.16061 0.0
C1262 C 0.42571 0.87158 0.12819 0.0
C1263 C 0.42366 0.89761 0.1596 0.0
N1264 N 0.45217 0.95142 0.21311 0.0
N1265 N 0.45958 0.84948 0.09168 0.0
C1266 C 0.45312 0.92508 0.18766 0.0
C1267 C 0.45681 0.87282 0.12628 0.0
N1268 N 0.51028 0.94933 0.22552 0.0
N1269 N 0.39755 0.84505 0.10219 0.0
H1270 H 0.48183 0.85006 0.08974 0.0
H1271 H 0.44082 0.83107 0.06136 0.0
H1272 H 0.37507 0.84413 0.10062 0.0
H1273 H 0.39604 0.82361 0.08437 0.0
H1274 H 0.50988 0.96664 0.25695 0.0
H1275 H 0.53314 0.95141 0.22592 0.0
H1276 H 0.47274 0.97402 0.22499 0.0
H1277 H 0.43058 0.95136 0.21912 0.0
C1278 C 0.17577 0.61261 0.17443 0.0
C1279 C 0.1473 0.61211 0.14735 0.0
C1280 C 0.12288 0.55314 0.11835 0.0
C1281 C 0.14983 0.55287 0.15134 0.0
N1282 N 0.20368 0.58312 0.20454 0.0
N1283 N 0.09922 0.58362 0.07365 0.0
C1284 C 0.177 0.58307 0.1766 0.0
C1285 C 0.12269 0.58297 0.11277 0.0
N1286 N 0.20197 0.64185 0.19684 0.0
N1287 N 0.09609 0.52445 0.09629 0.0
H1288 H 0.09845 0.60462 0.06705 0.0
H1289 H 0.08259 0.56418 0.04209 0.0
H1290 H 0.09581 0.50269 0.09721 0.0
H1291 H 0.07369 0.52193 0.08073 0.0
H1292 H 0.22416 0.64528 0.21613 0.0
H1293 H 0.20214 0.66358 0.19231 0.0
H1294 H 0.2237 0.60316 0.22885 0.0
H1295 H 0.20581 0.5624 0.20326 0.0
C1296 C 0.46207 0.60123 0.13625 0.0
C1297 C 0.49221 0.60663 0.16615 0.0
C1298 C 0.4628 0.55216 0.2048 0.0
C1299 C 0.43251 0.54564 0.17266 0.0
N1300 N 0.40513 0.563 0.09883 0.0
N1301 N 0.52157 0.58217 0.21107 0.0
C1302 C 0.43285 0.56979 0.13491 0.0
C1303 C 0.49255 0.58039 0.19411 0.0
N1304 N 0.46115 0.62649 0.11092 0.0
N1305 N 0.46369 0.53249 0.24884 0.0
H1306 H 0.54389 0.60231 0.20543 0.0
H1307 H 0.52346 0.56235 0.22387 0.0
H1308 H 0.44369 0.51133 0.2598 0.0
H1309 H 0.48421 0.5389 0.27985 0.0
H1310 H 0.43967 0.62573 0.09462 0.0
H1311 H 0.48213 0.64894 0.1091 0.0
H1312 H 0.40421 0.57813 0.0659 0.0
H1313 H 0.38345 0.54099 0.09863 0.0
C1314 C 0.55325 0.77105 0.29546 0.0
C1315 C 0.56602 0.76116 0.24428 0.0
C1316 C 0.5759 0.81053 0.19211 0.0
C1317 C 0.56005 0.81903 0.2394 0.0
N1318 N 0.53362 0.80671 0.33706 0.0
N1319 N 0.58989 0.77345 0.14297 0.0
C1320 C 0.54916 0.79926 0.29192 0.0
C1321 C 0.57755 0.78168 0.19327 0.0
N1322 N 0.5447 0.75325 0.34712 0.0
N1323 N 0.59163 0.83085 0.1464 0.0
H1324 H 0.59987 0.75867 0.14614 0.0
H1325 H 0.58996 0.78125 0.0975 0.0
H1326 H 0.58828 0.84951 0.13353 0.0
H1327 H 0.61012 0.83036 0.12235 0.0
H1328 H 0.5375 0.75968 0.38868 0.0
H1329 H 0.54665 0.73254 0.34973 0.0
H1330 H 0.52258 0.79257 0.37414 0.0
H1331 H 0.53036 0.8267 0.33559 0.0
C1332 C 0.24113 0.81128 0.19557 0.0
C1333 C 0.27085 0.81882 0.23158 0.0
C1334 C 0.24011 0.76449 0.27337 0.0
C1335 C 0.21036 0.75887 0.24114 0.0
N1336 N 0.18237 0.7836 0.19199 0.0
N1337 N 0.29662 0.80326 0.31287 0.0
C1338 C 0.21093 0.78459 0.20953 0.0
C1339 C 0.26957 0.79573 0.27368 0.0
N1340 N 0.24119 0.82813 0.14498 0.0
N1341 N 0.24046 0.73971 0.30203 0.0
H1342 H 0.31841 0.82513 0.31254 0.0
H1343 H 0.29671 0.78893 0.34845 0.0
H1344 H 0.21926 0.71747 0.30422 0.0
H1345 H 0.26172 0.74068 0.32059 0.0
H1346 H 0.22042 0.8212 0.11429 0.0
H1347 H 0.26207 0.84619 0.12789 0.0
H1348 H 0.18145 0.80313 0.17426 0.0
H1349 H 0.15992 0.76489 0.20257 0.0
C1350 C 0.26631 0.46886 0.31128 0.0
C1351 C 0.28399 0.47687 0.25594 0.0
C1352 C 0.24561 0.49287 0.20909 0.0
C1353 C 0.2258 0.4812 0.2611 0.0
N1354 N 0.22371 0.46993 0.3706 0.0
N1355 N 0.2962 0.50555 0.16153 0.0
C1356 C 0.23848 0.47319 0.31527 0.0
C1357 C 0.2756 0.4922 0.20827 0.0
N1358 N 0.27537 0.45578 0.35878 0.0
N1359 N 0.23461 0.50278 0.15865 0.0
H1360 H 0.31807 0.50534 0.16041 0.0
H1361 H 0.29325 0.51913 0.12746 0.0
H1362 H 0.21413 0.50548 0.16004 0.0
H1363 H 0.24512 0.50768 0.11534 0.0
H1364 H 0.26169 0.44587 0.39723 0.0
H1365 H 0.29647 0.45408 0.3582 0.0
H1366 H 0.23228 0.46596 0.41377 0.0
H1367 H 0.20439 0.47446 0.37386 0.0
C1368 C 0.99813 0.28137 0.06918 0.0
C1369 C 0.98759 0.24985 0.08922 0.0
C1370 C 0.99534 0.23265 0.98186 0.0
C1371 C 1.00385 0.26342 0.96057 0.0
N1372 N 1.00668 0.31483 0.98062 0.0
N1373 N 0.96777 0.19348 0.05826 0.0
C1374 C 1.00324 0.28712 1.00333 0.0
C1375 C 0.9837 0.22492 0.04356 0.0
N1376 N 1.00455 0.30624 0.11329 0.0
N1377 N 0.99971 0.21112 0.94439 0.0
H1378 H 0.95791 0.18665 0.10192 0.0
H1379 H 0.96124 0.17396 1.02482 0.0
H1380 H 1.00863 0.21579 0.89946 0.0
H1381 H 0.99743 0.18988 0.96038 0.0
H1382 H 0.01588 0.33036 0.10314 0.0
H1383 H 1.00061 0.30316 0.16137 0.0
H1384 H 1.00301 0.33152 1.00739 0.0
H1385 H 1.01025 0.31969 0.93292 0.0
C1386 C 0.76535 0.73215 0.0497 0.0
C1387 C 0.77976 0.75832 0.09831 0.0
C1388 C 0.78819 0.79649 1.01722 0.0
C1389 C 0.77584 0.77073 0.96823 0.0
N1390 N 0.75658 0.71467 0.93601 0.0
N1391 N 0.81123 0.81586 0.12666 0.0
C1392 C 0.76558 0.73869 0.98399 0.0
C1393 C 0.79291 0.79063 0.08154 0.0
N1394 N 0.75057 0.70104 0.06652 0.0
N1395 N 0.79466 0.82653 1.00253 0.0
H1396 H 0.81592 0.81268 0.17394 0.0
H1397 H 0.82443 0.83985 0.116 0.0
H1398 H 0.79202 0.83201 0.95598 0.0
H1399 H 0.8 0.84534 0.03694 0.0
H1400 H 0.73736 0.68076 0.03421 0.0
H1401 H 0.74931 0.69533 0.1139 0.0
H1402 H 0.75205 0.69151 0.94352 0.0
H1403 H 0.75577 0.71852 0.88769 0.0
C1404 C 0.23995 1.00882 0.05425 0.0
C1405 C 0.25813 1.0008 0.09768 0.0
C1406 C 0.27699 0.98127 1.00817 0.0
C1407 C 0.25768 0.98805 0.96504 0.0
N1408 N 0.2155 1.00168 0.94646 0.0
N1409 N 0.28832 0.97353 0.11779 0.0
C1410 C 0.23741 0.99967 0.98803 0.0
C1411 C 0.27498 0.9852 0.07511 0.0
N1412 N 0.22638 0.02656 0.0759 0.0
N1413 N 0.29786 0.97204 0.98515 0.0
H1414 H 0.28601 0.97511 0.16672 0.0
H1415 H 0.29901 0.9599 0.1046 0.0
H1416 H 0.2992 0.96815 0.93636 0.0
H1417 H 0.31529 0.97029 1.01403 0.0
H1418 H 0.21635 0.03656 0.04576 0.0
H1419 H 0.22735 0.03355 0.12414 0.0
H1420 H 0.19766 1.00663 0.96115 0.0
H1421 H 0.21317 0.99559 0.89736 0.0
C1422 C 0.05044 0.78093 0.03609 0.0
C1423 C 0.02654 0.77891 0.98959 0.0
C1424 C 0.98729 0.76437 0.07187 0.0
C1425 C 1.01069 0.76475 0.11746 0.0
N1426 N 0.06266 0.76827 0.14086 0.0
N1427 N 0.97094 0.76463 0.9605 0.0
C1428 C 0.04169 0.77141 0.0988 0.0
C1429 C 0.99459 0.76948 1.00682 0.0
N1430 N 0.08197 0.7934 1.02115 0.0
N1431 N 0.95823 0.75968 0.09114 0.0
H1432 H 0.97556 0.76905 0.91297 0.0
H1433 H 0.94631 0.7541 0.96781 0.0
H1434 H 0.95133 0.7543 0.13732 0.0
H1435 H 0.94167 0.76296 0.06276 0.0
H1436 H 0.10135 0.79897 0.05458 0.0
H1437 H 0.08931 0.80056 0.97594 0.0
H1438 H 0.08391 0.76893 0.12807 0.0
H1439 H 0.05765 0.76255 0.18775 0.0
C1440 C 0.27323 0.28002 0.08042 0.0
C1441 C 0.26192 0.24807 0.09791 0.0
C1442 C 0.24519 0.22682 0.98509 0.0
C1443 C 0.25803 0.25887 0.96706 0.0
N1444 N 0.28735 0.31637 0.9955 0.0
N1445 N 0.24147 0.19156 0.06727 0.0
C1446 C 0.27291 0.28563 1.01428 0.0
C1447 C 0.24924 0.22164 0.05026 0.0
N1448 N 0.28387 0.30488 0.12727 0.0
N1449 N 0.22771 0.20118 0.94029 0.0
H1450 H 0.2427 0.18641 0.11461 0.0
H1451 H 0.23599 0.17215 0.03443 0.0
H1452 H 0.22426 0.20384 0.89207 0.0
H1453 H 0.2144 0.17729 0.95137 0.0
H1454 H 0.28944 0.32826 0.11888 0.0
H1455 H 0.28557 0.30178 0.17581 0.0
H1456 H 0.30093 0.33716 1.02641 0.0
H1457 H 0.28779 0.32125 0.94763 0.0
C1458 C 0.80747 0.04478 0.05673 0.0
C1459 C 0.78448 0.02378 0.09745 0.0
C1460 C 0.75281 0.98527 1.00419 0.0
C1461 C 0.77518 1.00683 0.96325 0.0
N1462 N 0.82086 0.05905 0.94842 0.0
N1463 N 0.7331 0.97618 0.1101 0.0
C1464 C 0.80169 0.03717 0.98901 0.0
C1465 C 0.75645 0.99467 0.07108 0.0
N1466 N 0.83528 0.07169 0.08306 0.0
N1467 N 0.72873 0.95528 0.97932 0.0
H1468 H 0.73573 0.98143 0.1595 0.0
H1469 H 0.71029 0.95685 0.09351 0.0
H1470 H 0.7249 0.94781 0.93062 0.0
H1471 H 0.71379 0.93695 1.00695 0.0
H1472 H 0.85486 0.08608 0.05725 0.0
H1473 H 0.83976 0.07868 0.13201 0.0
H1474 H 0.83827 0.08293 0.96308 0.0
H1475 H 0.81774 0.05406 0.89886 0.0
C1476 C 0.6543 0.57548 0.2904 0.0
C1477 C 0.68615 0.59807 0.2745 0.0
C1478 C 0.70228 0.6147 0.38953 0.0
C1479 C 0.67349 0.58692 0.40474 0.0
N1480 N 0.62083 0.54099 0.36846 0.0
N1481 N 0.72563 0.65316 0.31088 0.0
C1482 C 0.64912 0.56732 0.3548 0.0
C1483 C 0.70653 0.62196 0.32451 0.0
N1484 N 0.62817 0.56673 0.24751 0.0
N1485 N 0.72582 0.63416 0.43685 0.0
H1486 H 0.72405 0.66053 0.26556 0.0
H1487 H 0.73868 0.67208 0.34609 0.0
H1488 H 0.72344 0.63006 0.4851 0.0
H1489 H 0.74862 0.65288 0.42738 0.0
H1490 H 0.60407 0.55266 0.25827 0.0
H1491 H 0.63069 0.57797 0.20516 0.0
H1492 H 0.60386 0.52418 0.33296 0.0
H1493 H 0.61541 0.53486 0.41501 0.0
C1494 C 0.44339 0.13322 0.39969 0.0
C1495 C 0.43458 0.1017 0.41677 0.0
C1496 C 0.42436 0.0821 0.30258 0.0
C1497 C 0.43099 0.1131 0.28589 0.0
N1498 N 0.4401 0.16618 0.31894 0.0
N1499 N 0.41126 0.04485 0.38525 0.0
C1500 C 0.43851 0.13807 0.33464 0.0
C1501 C 0.42345 0.07574 0.36833 0.0
N1502 N 0.45782 0.15889 0.44515 0.0
N1503 N 0.42007 0.0591 0.25569 0.0
H1504 H 0.4099 0.03924 0.43272 0.0
H1505 H 0.39968 0.02453 0.35257 0.0
H1506 H 0.42074 0.06295 0.20726 0.0
H1507 H 0.41845 0.03717 0.26479 0.0
H1508 H 0.46813 0.18286 0.43442 0.0
H1509 H 0.46219 0.15655 0.49315 0.0
H1510 H 0.44191 0.18382 0.35276 0.0
H1511 H 0.43655 0.17062 0.27198 0.0
C1512 C 0.93737 0.35472 0.31995 0.0
C1513 C 0.91092 0.3257 0.28934 0.0
C1514 C 0.88968 0.30967 0.39388 0.0
C1515 C 0.91789 0.33727 0.42455 0.0
N1516 N 0.97227 0.38177 0.41712 0.0
N1517 N 0.86474 0.27277 0.29811 0.0
C1518 C 0.9429 0.35845 0.38762 0.0
C1519 C 0.8879 0.30229 0.32665 0.0
N1520 N 0.95627 0.37948 0.28458 0.0
N1521 N 0.86403 0.29126 0.42837 0.0
H1522 H 0.86249 0.26663 0.24904 0.0
H1523 H 0.84954 0.25351 0.32367 0.0
H1524 H 0.8643 0.29597 0.47746 0.0
H1525 H 0.8415 0.27299 0.40751 0.0
H1526 H 0.97416 0.4023 0.30459 0.0
H1527 H 0.95128 0.37828 0.23553 0.0
H1528 H 0.99245 0.39578 0.39222 0.0
H1529 H 0.97751 0.38484 0.46663 0.0
C1530 C 0.6476 0.08446 0.30071 0.0
C1531 C 0.68026 0.10685 0.28904 0.0
C1532 C 0.69544 0.11611 0.4054 0.0
C1533 C 0.6621 0.097 0.41727 0.0
N1534 N 0.60569 0.06613 0.37546 0.0
N1535 N 0.73457 0.14748 0.33108 0.0
C1536 C 0.63797 0.08188 0.36463 0.0
C1537 C 0.70401 0.12356 0.34168 0.0
N1538 N 0.62593 0.06494 0.2508 0.0
N1539 N 0.71911 0.12627 0.45485 0.0
H1540 H 0.74187 0.15372 0.28545 0.0
H1541 H 0.7518 0.16298 0.3676 0.0
H1542 H 0.71389 0.12086 0.50181 0.0
H1543 H 0.7439 0.13729 0.44847 0.0
H1544 H 0.60285 0.04569 0.25673 0.0
H1545 H 0.63212 0.06608 0.20365 0.0
H1546 H 0.5869 0.05763 0.33911 0.0
H1547 H 0.59762 0.06392 0.42118 0.0
C1548 C 0.93237 0.60769 0.32912 0.0
C1549 C 0.92184 0.58123 0.28244 0.0
C1550 C 0.92149 0.54717 0.36687 0.0
C1551 C 0.93365 0.57421 0.41316 0.0
N1552 N 0.95864 0.63208 0.43457 0.0
N1553 N 0.91112 0.52719 0.25445 0.0
C1554 C 0.94151 0.60505 0.39312 0.0
C1555 C 0.91778 0.55133 0.30067 0.0
N1556 N 0.93271 0.63514 0.31276 0.0
N1557 N 0.91331 0.51741 0.3863 0.0
H1558 H 0.90767 0.52924 0.20587 0.0
H1559 H 0.91128 0.50607 0.26345 0.0
H1560 H 0.91797 0.51383 0.43332 0.0
H1561 H 0.90057 0.49601 0.35669 0.0
H1562 H 0.93593 0.65351 0.34628 0.0
H1563 H 0.9269 0.63834 0.26618 0.0
H1564 H 0.9673 0.65549 0.42143 0.0
H1565 H 0.96751 0.63142 0.4803 0.0
C1566 C 0.40483 0.31575 0.3222 0.0
C1567 C 0.43387 0.33012 0.29027 0.0
C1568 C 0.46568 0.35911 0.39158 0.0
C1569 C 0.43691 0.3432 0.42411 0.0
N1570 N 0.38013 0.30269 0.42294 0.0
N1571 N 0.49251 0.36179 0.29471 0.0
C1572 C 0.40677 0.32038 0.39013 0.0
C1573 C 0.46448 0.35084 0.32504 0.0
N1574 N 0.37529 0.29861 0.2873 0.0
N1575 N 0.49412 0.38246 0.42426 0.0
H1576 H 0.49259 0.35678 0.24585 0.0
H1577 H 0.51578 0.37387 0.31842 0.0
H1578 H 0.49656 0.38786 0.47363 0.0
H1579 H 0.51485 0.39785 0.40221 0.0
H1580 H 0.35311 0.29084 0.30691 0.0
H1581 H 0.37293 0.2944 0.23761 0.0
H1582 H 0.35853 0.28305 0.40192 0.0
H1583 H 0.38024 0.3063 0.47235 0.0
C1584 C 0.37231 0.95694 0.67499 0.0
C1585 C 0.35486 0.93234 0.6242 0.0
C1586 C 0.32199 0.89493 0.70175 0.0
C1587 C 0.33784 0.9201 0.75197 0.0
N1588 N 0.37445 0.97645 0.78531 0.0
N1589 N 0.30878 0.88019 0.58761 0.0
C1590 C 0.36198 0.95155 0.73822 0.0
C1591 C 0.32845 0.90198 0.63719 0.0
N1592 N 0.39941 0.98505 0.66317 0.0
N1593 N 0.30161 0.86393 0.71592 0.0
H1594 H 0.31254 0.8845 0.53975 0.0
H1595 H 0.28706 0.85918 0.59366 0.0
H1596 H 0.29625 0.85767 0.76242 0.0
H1597 H 0.29224 0.84398 0.68236 0.0
H1598 H 0.41529 1.00248 0.69893 0.0
H1599 H 0.40757 0.98996 0.61767 0.0
H1600 H 0.38969 1.00055 0.77725 0.0
H1601 H 0.36746 0.97339 0.83192 0.0
C1602 C 0.1234 0.47112 0.75491 0.0
C1603 C 0.11829 0.44069 0.77239 0.0
C1604 C 0.10054 0.41881 0.65985 0.0
C1605 C 0.11035 0.45031 0.64148 0.0
N1606 N 0.13485 0.50748 0.6712 0.0
N1607 N 0.1062 0.38646 0.73918 0.0
C1608 C 0.1228 0.47676 0.68899 0.0
C1609 C 0.10784 0.41468 0.72422 0.0
N1610 N 0.12748 0.49424 0.80127 0.0
N1611 N 0.08333 0.39269 0.61622 0.0
H1612 H 0.11208 0.38267 0.78517 0.0
H1613 H 0.10192 0.36794 0.70494 0.0
H1614 H 0.07715 0.39485 0.56912 0.0
H1615 H 0.07264 0.36888 0.62821 0.0
H1616 H 0.12802 0.5156 0.79131 0.0
H1617 H 0.12693 0.49066 0.84985 0.0
H1618 H 0.14757 0.52803 0.70318 0.0
H1619 H 0.13449 0.51262 0.62362 0.0
C1620 C 0.56361 0.66498 0.73121 0.0
C1621 C 0.59492 0.68568 0.76348 0.0
C1622 C 0.62027 0.69105 0.66238 0.0
C1623 C 0.5891 0.66925 0.63062 0.0
N1624 N 0.53194 0.63131 0.63508 0.0
N1625 N 0.65349 0.7145 0.76311 0.0
C1626 C 0.56098 0.655 0.66518 0.0
C1627 C 0.62343 0.69749 0.73002 0.0
N1628 N 0.53635 0.65542 0.76352 0.0
N1629 N 0.64663 0.70646 0.62748 0.0
H1630 H 0.65673 0.72053 0.81237 0.0
H1631 H 0.6752 0.72062 0.74284 0.0
H1632 H 0.64541 0.70196 0.57804 0.0
H1633 H 0.66928 0.72523 0.64656 0.0
H1634 H 0.51274 0.64361 0.74139 0.0
H1635 H 0.53732 0.66102 0.81249 0.0
H1636 H 0.51131 0.61739 0.6588 0.0
H1637 H 0.52904 0.62374 0.58657 0.0
C1638 C 0.37055 0.42935 0.74879 0.0
C1639 C 0.34983 0.44012 0.77312 0.0
C1640 C 0.34551 0.45966 0.66896 0.0
C1641 C 0.36443 0.44697 0.64345 0.0
N1642 N 0.39063 0.41524 0.65538 0.0
N1643 N 0.31309 0.46056 0.75411 0.0
C1644 C 0.37573 0.43053 0.68241 0.0
C1645 C 0.33606 0.45392 0.73252 0.0
N1646 N 0.38597 0.41882 0.78954 0.0
N1647 N 0.33731 0.47798 0.63295 0.0
H1648 H 0.30569 0.45691 0.80035 0.0
H1649 H 0.29942 0.46718 0.72487 0.0
H1650 H 0.34321 0.48216 0.58588 0.0
H1651 H 0.32683 0.49104 0.65102 0.0
H1652 H 0.40407 0.41392 0.77652 0.0
H1653 H 0.38245 0.41727 0.83814 0.0
H1654 H 0.39664 0.4002 0.67939 0.0
H1655 H 0.39455 0.41542 0.60697 0.0
C1656 C 0.58447 0.89289 0.71469 0.0
C1657 C 0.59127 0.91726 0.76437 0.0
C1658 C 0.59172 0.95304 0.68379 0.0
C1659 C 0.58785 0.92976 0.63414 0.0
N1660 N 0.58687 0.88008 0.60261 0.0
N1661 N 0.60734 0.97272 0.7959 0.0
C1662 C 0.58606 0.9004 0.64972 0.0
C1663 C 0.59663 0.94801 0.7488 0.0
N1664 N 0.57522 0.86214 0.72934 0.0
N1665 N 0.58942 0.97937 0.66903 0.0
H1666 H 0.61133 0.97001 0.84388 0.0
H1667 H 0.61505 0.99655 0.78676 0.0
H1668 H 0.58518 0.98349 0.62221 0.0
H1669 H 0.58871 0.99549 0.70327 0.0
H1670 H 0.56651 0.84257 0.695 0.0
H1671 H 0.57338 0.85549 0.77611 0.0
H1672 H 0.58923 0.86011 0.61177 0.0
H1673 H 0.5882 0.88479 0.55459 0.0
C1674 C 0.12528 0.72378 0.66855 0.0
C1675 C 0.09818 0.69511 0.6382 0.0
C1676 C 0.0754 0.68285 0.74252 0.0
C1677 C 0.10633 0.7061 0.7735 0.0
N1678 N 0.16094 0.75012 0.76504 0.0
N1679 N 0.04008 0.6675 0.64482 0.0
C1680 C 0.1313 0.72714 0.73626 0.0
C1681 C 0.07066 0.67986 0.67444 0.0
N1682 N 0.14156 0.74994 0.63452 0.0
N1683 N 0.05053 0.66351 0.77774 0.0
H1684 H 0.03647 0.67055 0.59684 0.0
H1685 H 0.01912 0.65873 0.66929 0.0
H1686 H 0.05252 0.6658 0.82764 0.0
H1687 H 0.02868 0.64397 0.75713 0.0
H1688 H 0.15968 0.77248 0.65539 0.0
H1689 H 0.13328 0.75012 0.58764 0.0
H1690 H 0.18079 0.76389 0.73909 0.0
H1691 H 0.16626 0.75368 0.81454 0.0
loop_
_geom_bond_atom_site_label_1
_geom_bond_atom_site_label_2
_geom_bond_distance
_geom_bond_site_symmetry_2
_ccdc_geom_bond_type
C0 Eu1 2.835 . S
C0 C2 1.500 . S
C0 O20 1.257 1_655 S
C0 O21 1.260 . S
Eu1 C0 2.835 . S
Eu1 O20 2.473 1_655 S
Eu1 O21 2.480 . S
Eu1 O22 2.430 . S
Eu1 O23 2.670 . S
Eu1 O24 2.394 1_655 S
Eu1 O29 2.355 1_655 S
Eu1 O31 2.374 . S
C2 C0 1.500 . S
C2 C3 1.377 . S
C2 C7 1.377 1_655 S
C3 C2 1.377 . S
C3 C4 1.395 . S
C3 H32 0.931 . S
C4 C3 1.395 . S
C4 C5 1.383 1_655 S
C4 H33 0.931 . S
C5 C4 1.383 1_455 S
C5 C6 1.394 . S
C6 C5 1.394 . S
C6 C7 1.378 . S
C6 H34 0.931 . S
C7 C2 1.377 1_455 S
C7 C6 1.378 . S
C7 H35 0.931 . S
C8 O22 1.259 . S
C8 O23 1.270 . S
C9 O24 1.251 . S
C9 O25 1.251 . S
C10 Eu11 2.835 . S
C10 C12 1.500 . S
C10 O26 1.251 1_455 S
C10 O27 1.260 . S
Eu11 C10 2.835 . S
Eu11 O23 2.355 1_455 S
Eu11 O25 2.374 . S
Eu11 O26 2.468 1_455 S
Eu11 O27 2.480 . S
Eu11 O28 2.430 . S
Eu11 O29 2.670 . S
Eu11 O30 2.394 1_455 S
C12 C10 1.500 . S
C12 C13 1.377 . S
C12 C17 1.377 1_455 S
C13 C12 1.377 . S
C13 C14 1.395 . S
C13 H36 0.931 . S
C14 C13 1.395 . S
C14 C15 1.383 . S
C14 H37 0.931 . S
C15 C14 1.383 . S
C15 C16 1.394 1_455 S
C16 C15 1.394 1_655 S
C16 C17 1.378 . S
C16 H38 0.931 . S
C17 C12 1.377 1_655 S
C17 C16 1.378 . S
C17 H39 0.931 . S
C18 O28 1.259 . S
C18 O29 1.270 . S
C19 O30 1.251 . S
C19 O31 1.251 . S
O20 C0 1.257 1_455 S
O20 Eu1 2.473 1_455 S
O21 C0 1.260 . S
O21 Eu1 2.480 . S
O22 Eu1 2.430 . S
O22 C8 1.259 . S
O23 Eu1 2.670 . S
O23 C8 1.270 . S
O23 Eu11 2.355 1_655 S
O24 Eu1 2.394 1_455 S
O24 C9 1.251 . S
O25 C9 1.251 . S
O25 Eu11 2.374 . S
O26 C10 1.251 1_655 S
O26 Eu11 2.468 1_655 S
O27 C10 1.260 . S
O27 Eu11 2.480 . S
O28 Eu11 2.430 . S
O28 C18 1.259 . S
O29 Eu1 2.355 1_455 S
O29 Eu11 2.670 . S
O29 C18 1.270 . S
O30 Eu11 2.394 1_655 S
O30 C19 1.251 . S
O31 Eu1 2.374 . S
O31 C19 1.251 . S
H32 C3 0.931 . S
H33 C4 0.931 . S
H34 C6 0.931 . S
H35 C7 0.931 . S
H36 C13 0.931 . S
H37 C14 0.931 . S
H38 C16 0.931 . S
H39 C17 0.931 . S
C40 Eu41 2.835 . S
C40 C42 1.500 . S
C40 O60 1.257 . S
C40 O61 1.260 . S
Eu41 C40 2.835 . S
Eu41 O60 2.473 . S
Eu41 O61 2.480 . S
Eu41 O62 2.430 . S
Eu41 O63 2.670 . S
Eu41 O64 2.394 . S
Eu41 O69 2.355 . S
Eu41 O71 2.374 . S
C42 C40 1.500 . S
C42 C43 1.377 . S
C42 C47 1.377 . S
C43 C42 1.377 . S
C43 C44 1.395 . S
C43 H72 0.931 . S
C44 C43 1.395 . S
C44 C45 1.383 . S
C44 H73 0.931 . S
C45 C44 1.383 . S
C45 C46 1.394 . S
C46 C45 1.394 . S
C46 C47 1.378 . S
C46 H74 0.931 . S
C47 C42 1.377 . S
C47 C46 1.378 . S
C47 H75 0.931 . S
C48 O62 1.259 . S
C48 O63 1.270 . S
C49 O64 1.251 . S
C49 O65 1.251 . S
C50 Eu51 2.835 . S
C50 C52 1.500 . S
C50 O66 1.257 . S
C50 O67 1.260 . S
Eu51 C50 2.835 . S
Eu51 O63 2.355 . S
Eu51 O65 2.374 . S
Eu51 O66 2.473 . S
Eu51 O67 2.480 . S
Eu51 O68 2.430 . S
Eu51 O69 2.670 . S
Eu51 O70 2.394 . S
C52 C50 1.500 . S
C52 C53 1.377 . S
C52 C57 1.377 . S
C53 C52 1.377 . S
C53 C54 1.395 . S
C53 H76 0.931 . S
C54 C53 1.395 . S
C54 C55 1.383 . S
C54 H77 0.931 . S
C55 C54 1.383 . S
C55 C56 1.394 . S
C56 C55 1.394 . S
C56 C57 1.378 . S
C56 H78 0.931 . S
C57 C52 1.377 . S
C57 C56 1.378 . S
C57 H79 0.931 . S
C58 O68 1.259 . S
C58 O69 1.270 . S
C59 O70 1.251 . S
C59 O71 1.251 . S
O60 C40 1.257 . S
O60 Eu41 2.473 . S
O61 C40 1.260 . S
O61 Eu41 2.480 . S
O62 Eu41 2.430 . S
O62 C48 1.259 . S
O63 Eu41 2.670 . S
O63 C48 1.270 . S
O63 Eu51 2.355 . S
O64 Eu41 2.394 . S
O64 C49 1.251 . S
O65 C49 1.251 . S
O65 Eu51 2.374 . S
O66 C50 1.257 . S
O66 Eu51 2.473 . S
O67 C50 1.260 . S
O67 Eu51 2.480 . S
O68 Eu51 2.430 . S
O68 C58 1.259 . S
O69 Eu41 2.355 . S
O69 Eu51 2.670 . S
O69 C58 1.270 . S
O70 Eu51 2.394 . S
O70 C59 1.251 . S
O71 Eu41 2.374 . S
O71 C59 1.251 . S
H72 C43 0.931 . S
H73 C44 0.931 . S
H74 C46 0.931 . S
H75 C47 0.931 . S
H76 C53 0.931 . S
H77 C54 0.931 . S
H78 C56 0.931 . S
H79 C57 0.931 . S
C80 Eu81 2.835 . S
C80 C82 1.508 . S
C80 O100 1.257 1_545 S
C80 O101 1.260 . S
Eu81 C80 2.835 . S
Eu81 O100 2.473 1_545 S
Eu81 O101 2.480 . S
Eu81 O102 2.430 . S
Eu81 O103 2.670 . S
Eu81 O104 2.394 1_545 S
Eu81 O109 2.355 1_545 S
Eu81 O111 2.374 . S
C82 C80 1.508 . S
C82 C83 1.388 . S
C82 C87 1.361 1_545 S
C83 C82 1.388 . S
C83 C84 1.395 . S
C83 H112 0.931 . S
C84 C83 1.395 . S
C84 C85 1.383 1_545 S
C84 H113 0.931 . S
C85 C84 1.383 1_565 S
C85 C86 1.394 . S
C86 C85 1.394 . S
C86 C87 1.378 . S
C86 H114 0.931 . S
C87 C82 1.361 1_565 S
C87 C86 1.378 . S
C87 H115 0.931 . S
C88 O102 1.259 . S
C88 O103 1.270 . S
C89 O104 1.251 . S
C89 O105 1.251 . S
C90 Eu91 2.835 . S
C90 C92 1.500 1_565 S
C90 O106 1.257 1_565 S
C90 O107 1.260 . S
Eu91 C90 2.835 . S
Eu91 O103 2.355 1_565 S
Eu91 O105 2.374 . S
Eu91 O106 2.473 1_565 S
Eu91 O107 2.480 . S
Eu91 O108 2.430 . S
Eu91 O109 2.670 . S
Eu91 O110 2.394 1_565 S
C92 C90 1.500 1_545 S
C92 C93 1.377 1_545 S
C92 C97 1.377 . S
C93 C92 1.377 1_565 S
C93 C94 1.395 . S
C93 H116 0.931 . S
C94 C93 1.395 . S
C94 C95 1.383 1_565 S
C94 H117 0.931 . S
C95 C94 1.383 1_545 S
C95 C96 1.394 . S
C96 C95 1.394 . S
C96 C97 1.378 . S
C96 H118 0.931 . S
C97 C92 1.377 . S
C97 C96 1.378 . S
C97 H119 0.931 . S
C98 O108 1.259 . S
C98 O109 1.270 . S
C99 O110 1.251 . S
C99 O111 1.251 . S
O100 C80 1.257 1_565 S
O100 Eu81 2.473 1_565 S
O101 C80 1.260 . S
O101 Eu81 2.480 . S
O102 Eu81 2.430 . S
O102 C88 1.259 . S
O103 Eu81 2.670 . S
O103 C88 1.270 . S
O103 Eu91 2.355 1_545 S
O104 Eu81 2.394 1_565 S
O104 C89 1.251 . S
O105 C89 1.251 . S
O105 Eu91 2.374 . S
O106 C90 1.257 1_545 S
O106 Eu91 2.473 1_545 S
O107 C90 1.260 . S
O107 Eu91 2.480 . S
O108 Eu91 2.430 . S
O108 C98 1.259 . S
O109 Eu81 2.355 1_565 S
O109 Eu91 2.670 . S
O109 C98 1.270 . S
O110 Eu91 2.394 1_545 S
O110 C99 1.251 . S
O111 Eu81 2.374 . S
O111 C99 1.251 . S
H112 C83 0.931 . S
H113 C84 0.931 . S
H114 C86 0.931 . S
H115 C87 0.931 . S
H116 C93 0.931 . S
H117 C94 0.931 . S
H118 C96 0.931 . S
H119 C97 0.931 . S
C120 Eu121 2.835 . S
C120 C122 1.500 . S
C120 O140 1.257 1_655 S
C120 O141 1.260 . S
Eu121 C120 2.835 . S
Eu121 O140 2.473 1_655 S
Eu121 O141 2.480 . S
Eu121 O142 2.430 . S
Eu121 O143 2.670 . S
Eu121 O144 2.394 1_655 S
Eu121 O149 2.355 1_655 S
Eu121 O151 2.374 . S
C122 C120 1.500 . S
C122 C123 1.377 . S
C122 C127 1.377 1_655 S
C123 C122 1.377 . S
C123 C124 1.395 . S
C123 H152 0.931 . S
C124 C123 1.395 . S
C124 C125 1.348 1_655 S
C124 H153 0.931 . S
C125 C124 1.348 1_455 S
C125 C126 1.426 . S
C126 C125 1.426 . S
C126 C127 1.378 . S
C126 H154 0.931 . S
C127 C122 1.377 1_455 S
C127 C126 1.378 . S
C127 H155 0.931 . S
C128 O142 1.259 . S
C128 O143 1.270 . S
C129 O144 1.251 . S
C129 O145 1.251 . S
C130 Eu131 2.835 . S
C130 C132 1.500 . S
C130 O146 1.257 1_455 S
C130 O147 1.260 . S
Eu131 C130 2.835 . S
Eu131 O143 2.355 1_455 S
Eu131 O145 2.374 . S
Eu131 O146 2.473 1_455 S
Eu131 O147 2.480 . S
Eu131 O148 2.430 . S
Eu131 O149 2.670 . S
Eu131 O150 2.394 1_455 S
C132 C130 1.500 . S
C132 C133 1.377 . S
C132 C137 1.377 1_455 S
C133 C132 1.377 . S
C133 C134 1.395 . S
C133 H156 0.931 . S
C134 C133 1.395 . S
C134 C135 1.383 . S
C134 H157 0.931 . S
C135 C134 1.383 . S
C135 C136 1.394 1_455 S
C136 C135 1.394 1_655 S
C136 C137 1.378 . S
C136 H158 0.931 . S
C137 C132 1.377 1_655 S
C137 C136 1.378 . S
C137 H159 0.931 . S
C138 O148 1.259 . S
C138 O149 1.270 . S
C139 O150 1.251 . S
C139 O151 1.251 . S
O140 C120 1.257 1_455 S
O140 Eu121 2.473 1_455 S
O141 C120 1.260 . S
O141 Eu121 2.480 . S
O142 Eu121 2.430 . S
O142 C128 1.259 . S
O143 Eu121 2.670 . S
O143 C128 1.270 . S
O143 Eu131 2.355 1_655 S
O144 Eu121 2.394 1_455 S
O144 C129 1.251 . S
O145 C129 1.251 . S
O145 Eu131 2.374 . S
O146 C130 1.257 1_655 S
O146 Eu131 2.473 1_655 S
O147 C130 1.260 . S
O147 Eu131 2.480 . S
O148 Eu131 2.430 . S
O148 C138 1.259 . S
O149 Eu121 2.355 1_455 S
O149 Eu131 2.670 . S
O149 C138 1.270 . S
O150 Eu131 2.394 1_655 S
O150 C139 1.251 . S
O151 Eu121 2.374 . S
O151 C139 1.251 . S
H152 C123 0.931 . S
H153 C124 0.931 . S
H154 C126 0.931 . S
H155 C127 0.931 . S
H156 C133 0.931 . S
H157 C134 0.931 . S
H158 C136 0.931 . S
H159 C137 0.931 . S
C160 Eu161 2.835 . S
C160 C162 1.500 . S
C160 O180 1.257 . S
C160 O181 1.260 . S
Eu161 C160 2.835 . S
Eu161 O180 2.473 . S
Eu161 O181 2.480 . S
Eu161 O182 2.430 . S
Eu161 O183 2.670 . S
Eu161 O184 2.394 . S
Eu161 O189 2.355 . S
Eu161 O191 2.374 . S
C162 C160 1.500 . S
C162 C163 1.377 . S
C162 C167 1.377 . S
C163 C162 1.377 . S
C163 C164 1.395 . S
C163 H192 0.931 . S
C164 C163 1.395 . S
C164 C165 1.383 . S
C164 H193 0.931 . S
C165 C164 1.383 . S
C165 C166 1.394 . S
C166 C165 1.394 . S
C166 C167 1.378 . S
C166 H194 0.931 . S
C167 C162 1.377 . S
C167 C166 1.378 . S
C167 H195 0.931 . S
C168 O182 1.259 . S
C168 O183 1.270 . S
C169 O184 1.251 . S
C169 O185 1.251 . S
C170 Eu171 2.835 . S
C170 C172 1.500 . S
C170 O186 1.257 . S
C170 O187 1.260 . S
Eu171 C170 2.835 . S
Eu171 O183 2.355 . S
Eu171 O185 2.374 . S
Eu171 O186 2.473 . S
Eu171 O187 2.480 . S
Eu171 O188 2.430 . S
Eu171 O189 2.670 . S
Eu171 O190 2.394 . S
C172 C170 1.500 . S
C172 C173 1.377 . S
C172 C177 1.377 . S
C173 C172 1.377 . S
C173 C174 1.395 . S
C173 H196 0.931 . S
C174 C173 1.395 . S
C174 C175 1.383 . S
C174 H197 0.931 . S
C175 C174 1.383 . S
C175 C176 1.394 . S
C176 C175 1.394 . S
C176 C177 1.378 . S
C176 H198 0.931 . S
C177 C172 1.377 . S
C177 C176 1.378 . S
C177 H199 0.931 . S
C178 O188 1.259 . S
C178 O189 1.270 . S
C179 O190 1.251 . S
C179 O191 1.251 . S
O180 C160 1.257 . S
O180 Eu161 2.473 . S
O181 C160 1.260 . S
O181 Eu161 2.480 . S
O182 Eu161 2.430 . S
O182 C168 1.259 . S
O183 Eu161 2.670 . S
O183 C168 1.270 . S
O183 Eu171 2.355 . S
O184 Eu161 2.394 . S
O184 C169 1.251 . S
O185 C169 1.251 . S
O185 Eu171 2.374 . S
O186 C170 1.257 . S
O186 Eu171 2.473 . S
O187 C170 1.260 . S
O187 Eu171 2.480 . S
O188 Eu171 2.430 . S
O188 C178 1.259 . S
O189 Eu161 2.355 . S
O189 Eu171 2.670 . S
O189 C178 1.270 . S
O190 Eu171 2.394 . S
O190 C179 1.251 . S
O191 Eu161 2.374 . S
O191 C179 1.251 . S
H192 C163 0.931 . S
H193 C164 0.931 . S
H194 C166 0.931 . S
H195 C167 0.931 . S
H196 C173 0.931 . S
H197 C174 0.931 . S
H198 C176 0.931 . S
H199 C177 0.931 . S
C200 Eu201 2.835 . S
C200 C202 1.500 . S
C200 O220 1.257 1_545 S
C200 O221 1.260 . S
Eu201 C200 2.835 . S
Eu201 O220 2.473 1_545 S
Eu201 O221 2.480 . S
Eu201 O222 2.430 . S
Eu201 O223 2.670 . S
Eu201 O224 2.394 1_545 S
Eu201 O229 2.355 1_545 S
Eu201 O231 2.374 . S
C202 C200 1.500 . S
C202 C203 1.377 . S
C202 C207 1.377 1_545 S
C203 C202 1.377 . S
C203 C204 1.395 . S
C203 H232 0.931 . S
C204 C203 1.395 . S
C204 C205 1.383 1_545 S
C204 H233 0.931 . S
C205 C204 1.383 1_565 S
C205 C206 1.394 . S
C206 C205 1.394 . S
C206 C207 1.378 . S
C206 H234 0.931 . S
C207 C202 1.377 1_565 S
C207 C206 1.378 . S
C207 H235 0.931 . S
C208 O222 1.259 . S
C208 O223 1.270 . S
C209 O224 1.251 . S
C209 O225 1.251 . S
C210 Eu211 2.835 . S
C210 C212 1.500 1_565 S
C210 O226 1.257 1_565 S
C210 O227 1.260 . S
Eu211 C210 2.835 . S
Eu211 O223 2.355 1_565 S
Eu211 O225 2.374 . S
Eu211 O226 2.473 1_565 S
Eu211 O227 2.480 . S
Eu211 O228 2.430 . S
Eu211 O229 2.670 . S
Eu211 O230 2.394 1_565 S
C212 C210 1.500 1_545 S
C212 C213 1.377 1_545 S
C212 C217 1.377 . S
C213 C212 1.377 1_565 S
C213 C214 1.395 . S
C213 H236 0.931 . S
C214 C213 1.395 . S
C214 C215 1.383 1_565 S
C214 H237 0.931 . S
C215 C214 1.383 1_545 S
C215 C216 1.394 . S
C216 C215 1.394 . S
C216 C217 1.378 . S
C216 H238 0.931 . S
C217 C212 1.377 . S
C217 C216 1.378 . S
C217 H239 0.931 . S
C218 O228 1.259 . S
C218 O229 1.270 . S
C219 O230 1.251 . S
C219 O231 1.251 . S
O220 C200 1.257 1_565 S
O220 Eu201 2.473 1_565 S
O221 C200 1.260 . S
O221 Eu201 2.480 . S
O222 Eu201 2.430 . S
O222 C208 1.259 . S
O223 Eu201 2.670 . S
O223 C208 1.270 . S
O223 Eu211 2.355 1_545 S
O224 Eu201 2.394 1_565 S
O224 C209 1.251 . S
O225 C209 1.251 . S
O225 Eu211 2.374 . S
O226 C210 1.257 1_545 S
O226 Eu211 2.473 1_545 S
O227 C210 1.260 . S
O227 Eu211 2.480 . S
O228 Eu211 2.430 . S
O228 C218 1.259 . S
O229 Eu201 2.355 1_565 S
O229 Eu211 2.670 . S
O229 C218 1.270 . S
O230 Eu211 2.394 1_545 S
O230 C219 1.251 . S
O231 Eu201 2.374 . S
O231 C219 1.251 . S
H232 C203 0.931 . S
H233 C204 0.931 . S
H234 C206 0.931 . S
H235 C207 0.931 . S
H236 C213 0.931 . S
H237 C214 0.931 . S
H238 C216 0.931 . S
H239 C217 0.931 . S
C240 Eu241 2.835 . S
C240 C242 1.500 1_556 S
C240 O260 1.257 . S
C240 O261 1.260 . S
Eu241 C240 2.835 . S
Eu241 O260 2.473 . S
Eu241 O261 2.480 . S
Eu241 O262 2.430 . S
Eu241 O263 2.670 . S
Eu241 O264 2.394 . S
Eu241 O269 2.355 . S
Eu241 O271 2.374 . S
C242 C240 1.500 1_554 S
C242 C243 1.377 . S
C242 C247 1.377 . S
C243 C242 1.377 . S
C243 C244 1.395 . S
C243 H272 0.931 . S
C244 C243 1.395 . S
C244 C245 1.383 . S
C244 H273 0.931 . S
C245 C244 1.383 . S
C245 C246 1.394 . S
C246 C245 1.394 . S
C246 C247 1.378 . S
C246 H274 0.931 . S
C247 C242 1.377 . S
C247 C246 1.378 . S
C247 H275 0.931 . S
C248 O262 1.259 . S
C248 O263 1.270 . S
C249 O264 1.251 . S
C249 O265 1.251 . S
C250 Eu251 2.835 . S
C250 C252 1.500 . S
C250 O266 1.257 . S
C250 O267 1.260 . S
Eu251 C250 2.835 . S
Eu251 O263 2.355 . S
Eu251 O265 2.374 . S
Eu251 O266 2.473 . S
Eu251 O267 2.480 . S
Eu251 O268 2.430 . S
Eu251 O269 2.670 . S
Eu251 O270 2.394 . S
C252 C250 1.500 . S
C252 C253 1.377 . S
C252 C257 1.377 . S
C253 C252 1.377 . S
C253 C254 1.395 . S
C253 H276 0.931 . S
C254 C253 1.395 . S
C254 C255 1.383 . S
C254 H277 0.931 . S
C255 C254 1.383 . S
C255 C256 1.394 . S
C256 C255 1.394 . S
C256 C257 1.378 . S
C256 H278 0.931 . S
C257 C252 1.377 . S
C257 C256 1.378 . S
C257 H279 0.931 . S
C258 O268 1.259 . S
C258 O269 1.270 . S
C259 O270 1.251 . S
C259 O271 1.251 . S
O260 C240 1.257 . S
O260 Eu241 2.473 . S
O261 C240 1.260 . S
O261 Eu241 2.480 . S
O262 Eu241 2.430 . S
O262 C248 1.259 . S
O263 Eu241 2.670 . S
O263 C248 1.270 . S
O263 Eu251 2.355 . S
O264 Eu241 2.394 . S
O264 C249 1.251 . S
O265 C249 1.251 . S
O265 Eu251 2.374 . S
O266 C250 1.257 . S
O266 Eu251 2.473 . S
O267 C250 1.260 . S
O267 Eu251 2.480 . S
O268 Eu251 2.430 . S
O268 C258 1.259 . S
O269 Eu241 2.355 . S
O269 Eu251 2.670 . S
O269 C258 1.270 . S
O270 Eu251 2.394 . S
O270 C259 1.251 . S
O271 Eu241 2.374 . S
O271 C259 1.251 . S
H272 C243 0.931 . S
H273 C244 0.931 . S
H274 C246 0.931 . S
H275 C247 0.931 . S
H276 C253 0.931 . S
H277 C254 0.931 . S
H278 C256 0.931 . S
H279 C257 0.931 . S
C280 Eu281 2.835 . S
C280 C282 1.500 1_556 S
C280 O300 1.257 . S
C280 O301 1.260 . S
Eu281 C280 2.835 . S
Eu281 O300 2.473 . S
Eu281 O301 2.480 . S
Eu281 O302 2.430 . S
Eu281 O303 2.670 . S
Eu281 O304 2.394 . S
Eu281 O309 2.355 . S
Eu281 O311 2.374 . S
C282 C280 1.500 1_554 S
C282 C283 1.377 . S
C282 C287 1.377 . S
C283 C282 1.377 . S
C283 C284 1.395 . S
C283 H312 0.931 . S
C284 C283 1.395 . S
C284 C285 1.383 . S
C284 H313 0.931 . S
C285 C284 1.383 . S
C285 C286 1.394 . S
C286 C285 1.394 . S
C286 C287 1.378 . S
C286 H314 0.931 . S
C287 C282 1.377 . S
C287 C286 1.378 . S
C287 H315 0.931 . S
C288 O302 1.259 . S
C288 O303 1.270 . S
C289 O304 1.251 . S
C289 O305 1.251 . S
C290 Eu291 2.835 . S
C290 C292 1.500 . S
C290 O306 1.257 . S
C290 O307 1.260 . S
Eu291 C290 2.835 . S
Eu291 O303 2.355 . S
Eu291 O305 2.374 . S
Eu291 O306 2.473 . S
Eu291 O307 2.480 . S
Eu291 O308 2.430 . S
Eu291 O309 2.670 . S
Eu291 O310 2.394 . S
C292 C290 1.500 . S
C292 C293 1.377 . S
C292 C297 1.377 . S
C293 C292 1.377 . S
C293 C294 1.395 . S
C293 H316 0.931 . S
C294 C293 1.395 . S
C294 C295 1.383 . S
C294 H317 0.931 . S
C295 C294 1.383 . S
C295 C296 1.394 . S
C296 C295 1.394 . S
C296 C297 1.378 . S
C296 H318 0.931 . S
C297 C292 1.377 . S
C297 C296 1.378 . S
C297 H319 0.931 . S
C298 O308 1.259 . S
C298 O309 1.270 . S
C299 O310 1.251 . S
C299 O311 1.251 . S
O300 C280 1.257 . S
O300 Eu281 2.473 . S
O301 C280 1.260 . S
O301 Eu281 2.480 . S
O302 Eu281 2.430 . S
O302 C288 1.259 . S
O303 Eu281 2.670 . S
O303 C288 1.270 . S
O303 Eu291 2.355 . S
O304 Eu281 2.394 . S
O304 C289 1.251 . S
O305 C289 1.251 . S
O305 Eu291 2.374 . S
O306 C290 1.257 . S
O306 Eu291 2.473 . S
O307 C290 1.260 . S
O307 Eu291 2.480 . S
O308 Eu291 2.430 . S
O308 C298 1.259 . S
O309 Eu281 2.355 . S
O309 Eu291 2.670 . S
O309 C298 1.270 . S
O310 Eu291 2.394 . S
O310 C299 1.251 . S
O311 Eu281 2.374 . S
O311 C299 1.251 . S
H312 C283 0.931 . S
H313 C284 0.931 . S
H314 C286 0.931 . S
H315 C287 0.931 . S
H316 C293 0.931 . S
H317 C294 0.931 . S
H318 C296 0.931 . S
H319 C297 0.931 . S
C320 Eu321 2.835 . S
C320 C322 1.500 1_556 S
C320 O340 1.257 . S
C320 O341 1.260 . S
Eu321 C320 2.835 . S
Eu321 O340 2.473 . S
Eu321 O341 2.480 . S
Eu321 O342 2.430 . S
Eu321 O343 2.670 . S
Eu321 O344 2.394 . S
Eu321 O349 2.355 . S
Eu321 O351 2.374 . S
C322 C320 1.500 1_554 S
C322 C323 1.377 . S
C322 C327 1.377 . S
C323 C322 1.377 . S
C323 C324 1.395 . S
C323 H352 0.931 . S
C324 C323 1.395 . S
C324 C325 1.383 . S
C324 H353 0.931 . S
C325 C324 1.383 . S
C325 C326 1.394 . S
C326 C325 1.394 . S
C326 C327 1.378 . S
C326 H354 0.931 . S
C327 C322 1.377 . S
C327 C326 1.378 . S
C327 H355 0.931 . S
C328 O342 1.259 . S
C328 O343 1.270 . S
C329 O344 1.251 . S
C329 O345 1.251 . S
C330 Eu331 2.835 . S
C330 C332 1.500 . S
C330 O346 1.257 . S
C330 O347 1.260 . S
Eu331 C330 2.835 . S
Eu331 O343 2.355 . S
Eu331 O345 2.374 . S
Eu331 O346 2.473 . S
Eu331 O347 2.480 . S
Eu331 O348 2.430 . S
Eu331 O349 2.670 . S
Eu331 O350 2.394 . S
C332 C330 1.500 . S
C332 C333 1.377 . S
C332 C337 1.377 . S
C333 C332 1.377 . S
C333 C334 1.395 . S
C333 H356 0.931 . S
C334 C333 1.395 . S
C334 C335 1.383 . S
C334 H357 0.931 . S
C335 C334 1.383 . S
C335 C336 1.394 . S
C336 C335 1.394 . S
C336 C337 1.378 . S
C336 H358 0.931 . S
C337 C332 1.377 . S
C337 C336 1.378 . S
C337 H359 0.931 . S
C338 O348 1.259 . S
C338 O349 1.270 . S
C339 O350 1.251 . S
C339 O351 1.251 . S
O340 C320 1.257 . S
O340 Eu321 2.473 . S
O341 C320 1.260 . S
O341 Eu321 2.480 . S
O342 Eu321 2.430 . S
O342 C328 1.259 . S
O343 Eu321 2.670 . S
O343 C328 1.270 . S
O343 Eu331 2.355 . S
O344 Eu321 2.394 . S
O344 C329 1.251 . S
O345 C329 1.251 . S
O345 Eu331 2.374 . S
O346 C330 1.257 . S
O346 Eu331 2.473 . S
O347 C330 1.260 . S
O347 Eu331 2.480 . S
O348 Eu331 2.430 . S
O348 C338 1.259 . S
O349 Eu321 2.355 . S
O349 Eu331 2.670 . S
O349 C338 1.270 . S
O350 Eu331 2.394 . S
O350 C339 1.251 . S
O351 Eu321 2.374 . S
O351 C339 1.251 . S
H352 C323 0.931 . S
H353 C324 0.931 . S
H354 C326 0.931 . S
H355 C327 0.931 . S
H356 C333 0.931 . S
H357 C334 0.931 . S
H358 C336 0.931 . S
H359 C337 0.931 . S
C360 Eu361 2.835 . S
C360 C362 1.500 . S
C360 O380 1.257 . S
C360 O381 1.260 . S
Eu361 C360 2.835 . S
Eu361 O380 2.473 . S
Eu361 O381 2.480 . S
Eu361 O382 2.430 . S
Eu361 O383 2.670 . S
Eu361 O384 2.394 . S
Eu361 O389 2.355 . S
Eu361 O391 2.374 . S
C362 C360 1.500 . S
C362 C363 1.377 . S
C362 C367 1.377 . S
C363 C362 1.377 . S
C363 C364 1.395 . S
C363 H392 0.931 . S
C364 C363 1.395 . S
C364 C365 1.383 . S
C364 H393 0.931 . S
C365 C364 1.383 . S
C365 C366 1.394 . S
C366 C365 1.394 . S
C366 C367 1.378 . S
C366 H394 0.931 . S
C367 C362 1.377 . S
C367 C366 1.378 . S
C367 H395 0.931 . S
C368 O382 1.259 . S
C368 O383 1.270 . S
C369 O384 1.251 . S
C369 O385 1.251 . S
C370 Eu371 2.835 1_554 S
C370 C372 1.500 . S
C370 O386 1.257 1_554 S
C370 O387 1.260 1_554 S
Eu371 C370 2.835 1_556 S
Eu371 O383 2.355 . S
Eu371 O385 2.374 . S
Eu371 O386 2.473 . S
Eu371 O387 2.480 . S
Eu371 O388 2.430 . S
Eu371 O389 2.670 . S
Eu371 O390 2.394 . S
C372 C370 1.500 . S
C372 C373 1.377 . S
C372 C377 1.377 . S
C373 C372 1.377 . S
C373 C374 1.395 . S
C373 H396 0.931 . S
C374 C373 1.395 . S
C374 C375 1.383 . S
C374 H397 0.931 . S
C375 C374 1.383 . S
C375 C376 1.394 . S
C376 C375 1.394 . S
C376 C377 1.378 . S
C376 H398 0.931 . S
C377 C372 1.377 . S
C377 C376 1.378 . S
C377 H399 0.931 . S
C378 O388 1.259 . S
C378 O389 1.270 . S
C379 O390 1.251 . S
C379 O391 1.251 . S
O380 C360 1.257 . S
O380 Eu361 2.473 . S
O381 C360 1.260 . S
O381 Eu361 2.480 . S
O382 Eu361 2.430 . S
O382 C368 1.259 . S
O383 Eu361 2.670 . S
O383 C368 1.270 . S
O383 Eu371 2.355 . S
O384 Eu361 2.394 . S
O384 C369 1.251 . S
O385 C369 1.251 . S
O385 Eu371 2.374 . S
O386 C370 1.257 1_556 S
O386 Eu371 2.473 . S
O387 C370 1.260 1_556 S
O387 Eu371 2.480 . S
O388 Eu371 2.430 . S
O388 C378 1.259 . S
O389 Eu361 2.355 . S
O389 Eu371 2.670 . S
O389 C378 1.270 . S
O390 Eu371 2.394 . S
O390 C379 1.251 . S
O391 Eu361 2.374 . S
O391 C379 1.251 . S
H392 C363 0.931 . S
H393 C364 0.931 . S
H394 C366 0.931 . S
H395 C367 0.931 . S
H396 C373 0.931 . S
H397 C374 0.931 . S
H398 C376 0.931 . S
H399 C377 0.931 . S
C400 Eu401 2.835 . S
C400 C402 1.500 . S
C400 O420 1.257 . S
C400 O421 1.260 . S
Eu401 C400 2.835 . S
Eu401 O420 2.473 . S
Eu401 O421 2.480 . S
Eu401 O422 2.430 . S
Eu401 O423 2.670 . S
Eu401 O424 2.394 . S
Eu401 O429 2.355 . S
Eu401 O431 2.374 . S
C402 C400 1.500 . S
C402 C403 1.377 . S
C402 C407 1.377 . S
C403 C402 1.377 . S
C403 C404 1.395 . S
C403 H432 0.931 . S
C404 C403 1.395 . S
C404 C405 1.383 . S
C404 H433 0.931 . S
C405 C404 1.383 . S
C405 C406 1.394 . S
C406 C405 1.394 . S
C406 C407 1.378 . S
C406 H434 0.931 . S
C407 C402 1.377 . S
C407 C406 1.378 . S
C407 H435 0.931 . S
C408 O422 1.259 . S
C408 O423 1.270 . S
C409 O424 1.251 . S
C409 O425 1.251 . S
C410 Eu411 2.835 1_554 S
C410 C412 1.500 . S
C410 O426 1.257 1_554 S
C410 O427 1.260 . S
Eu411 C410 2.835 1_556 S
Eu411 O423 2.355 . S
Eu411 O425 2.374 . S
Eu411 O426 2.473 . S
Eu411 O427 2.480 1_556 S
Eu411 O428 2.430 . S
Eu411 O429 2.670 . S
Eu411 O430 2.394 . S
C412 C410 1.500 . S
C412 C413 1.377 . S
C412 C417 1.377 . S
C413 C412 1.377 . S
C413 C414 1.395 . S
C413 H436 0.931 . S
C414 C413 1.395 . S
C414 C415 1.383 . S
C414 H437 0.931 . S
C415 C414 1.383 . S
C415 C416 1.394 . S
C416 C415 1.394 . S
C416 C417 1.378 . S
C416 H438 0.931 . S
C417 C412 1.377 . S
C417 C416 1.378 . S
C417 H439 0.931 . S
C418 O428 1.259 . S
C418 O429 1.270 . S
C419 O430 1.251 . S
C419 O431 1.251 . S
O420 C400 1.257 . S
O420 Eu401 2.473 . S
O421 C400 1.260 . S
O421 Eu401 2.480 . S
O422 Eu401 2.430 . S
O422 C408 1.259 . S
O423 Eu401 2.670 . S
O423 C408 1.270 . S
O423 Eu411 2.355 . S
O424 Eu401 2.394 . S
O424 C409 1.251 . S
O425 C409 1.251 . S
O425 Eu411 2.374 . S
O426 C410 1.257 1_556 S
O426 Eu411 2.473 . S
O427 C410 1.260 . S
O427 Eu411 2.480 1_554 S
O428 Eu411 2.430 . S
O428 C418 1.259 . S
O429 Eu401 2.355 . S
O429 Eu411 2.670 . S
O429 C418 1.270 . S
O430 Eu411 2.394 . S
O430 C419 1.251 . S
O431 Eu401 2.374 . S
O431 C419 1.251 . S
H432 C403 0.931 . S
H433 C404 0.931 . S
H434 C406 0.931 . S
H435 C407 0.931 . S
H436 C413 0.931 . S
H437 C414 0.931 . S
H438 C416 0.931 . S
H439 C417 0.931 . S
C440 Eu441 2.835 . S
C440 C442 1.500 . S
C440 O460 1.257 . S
C440 O461 1.260 . S
Eu441 C440 2.835 . S
Eu441 O460 2.473 . S
Eu441 O461 2.480 . S
Eu441 O462 2.430 . S
Eu441 O463 2.670 . S
Eu441 O464 2.394 . S
Eu441 O469 2.355 . S
Eu441 O471 2.374 . S
C442 C440 1.500 . S
C442 C443 1.377 . S
C442 C447 1.377 . S
C443 C442 1.377 . S
C443 C444 1.395 . S
C443 H472 0.931 . S
C444 C443 1.395 . S
C444 C445 1.383 . S
C444 H473 0.931 . S
C445 C444 1.383 . S
C445 C446 1.394 . S
C446 C445 1.394 . S
C446 C447 1.378 . S
C446 H474 0.931 . S
C447 C442 1.377 . S
C447 C446 1.378 . S
C447 H475 0.931 . S
C448 O462 1.259 . S
C448 O463 1.270 . S
C449 O464 1.251 . S
C449 O465 1.251 . S
C450 Eu451 2.835 1_554 S
C450 C452 1.500 . S
C450 O466 1.257 1_554 S
C450 O467 1.260 1_554 S
Eu451 C450 2.835 1_556 S
Eu451 O463 2.355 . S
Eu451 O465 2.374 . S
Eu451 O466 2.473 . S
Eu451 O467 2.480 . S
Eu451 O468 2.430 . S
Eu451 O469 2.670 . S
Eu451 O470 2.394 . S
C452 C450 1.500 . S
C452 C453 1.377 . S
C452 C457 1.377 . S
C453 C452 1.377 . S
C453 C454 1.395 . S
C453 H476 0.931 . S
C454 C453 1.395 . S
C454 C455 1.383 . S
C454 H477 0.931 . S
C455 C454 1.383 . S
C455 C456 1.394 . S
C456 C455 1.394 . S
C456 C457 1.378 . S
C456 H478 0.931 . S
C457 C452 1.377 . S
C457 C456 1.378 . S
C457 H479 0.931 . S
C458 O468 1.259 . S
C458 O469 1.270 . S
C459 O470 1.251 . S
C459 O471 1.251 . S
O460 C440 1.257 . S
O460 Eu441 2.473 . S
O461 C440 1.260 . S
O461 Eu441 2.480 . S
O462 Eu441 2.430 . S
O462 C448 1.259 . S
O463 Eu441 2.670 . S
O463 C448 1.270 . S
O463 Eu451 2.355 . S
O464 Eu441 2.394 . S
O464 C449 1.251 . S
O465 C449 1.251 . S
O465 Eu451 2.374 . S
O466 C450 1.257 1_556 S
O466 Eu451 2.473 . S
O467 C450 1.260 1_556 S
O467 Eu451 2.480 . S
O468 Eu451 2.430 . S
O468 C458 1.259 . S
O469 Eu441 2.355 . S
O469 Eu451 2.670 . S
O469 C458 1.270 . S
O470 Eu451 2.394 . S
O470 C459 1.251 . S
O471 Eu441 2.374 . S
O471 C459 1.251 . S
H472 C443 0.931 . S
H473 C444 0.931 . S
H474 C446 0.931 . S
H475 C447 0.931 . S
H476 C453 0.931 . S
H477 C454 0.931 . S
H478 C456 0.931 . S
H479 C457 0.931 . S
C480 Eu481 2.835 1_556 S
C480 C482 1.500 . S
C480 O500 1.257 . S
C480 O501 1.260 . S
Eu481 C480 2.835 1_554 S
Eu481 O500 2.473 1_554 S
Eu481 O501 2.480 1_554 S
Eu481 O502 2.430 . S
Eu481 O503 2.670 . S
Eu481 O504 2.394 . S
Eu481 O509 2.355 . S
Eu481 O511 2.374 . S
C482 C480 1.500 . S
C482 C483 1.377 . S
C482 C487 1.377 . S
C483 C482 1.377 . S
C483 C484 1.395 . S
C483 H512 0.931 . S
C484 C483 1.395 . S
C484 C485 1.383 . S
C484 H513 0.931 . S
C485 C484 1.383 . S
C485 C486 1.394 . S
C486 C485 1.394 . S
C486 C487 1.378 . S
C486 H514 0.931 . S
C487 C482 1.377 . S
C487 C486 1.378 . S
C487 H515 0.931 . S
C488 O502 1.259 . S
C488 O503 1.270 . S
C489 O504 1.251 . S
C489 O505 1.251 . S
C490 Eu491 2.835 . S
C490 C492 1.500 . S
C490 O506 1.257 . S
C490 O507 1.260 . S
Eu491 C490 2.835 . S
Eu491 O503 2.355 . S
Eu491 O505 2.374 . S
Eu491 O506 2.473 . S
Eu491 O507 2.480 . S
Eu491 O508 2.430 . S
Eu491 O509 2.670 . S
Eu491 O510 2.394 . S
C492 C490 1.500 . S
C492 C493 1.377 . S
C492 C497 1.377 . S
C493 C492 1.377 . S
C493 C494 1.395 . S
C493 H516 0.931 . S
C494 C493 1.395 . S
C494 C495 1.383 . S
C494 H517 0.931 . S
C495 C494 1.383 . S
C495 C496 1.394 . S
C496 C495 1.394 . S
C496 C497 1.378 . S
C496 H518 0.931 . S
C497 C492 1.377 . S
C497 C496 1.378 . S
C497 H519 0.931 . S
C498 O508 1.259 . S
C498 O509 1.270 . S
C499 O510 1.251 . S
C499 O511 1.251 . S
O500 C480 1.257 . S
O500 Eu481 2.473 1_556 S
O501 C480 1.260 . S
O501 Eu481 2.480 1_556 S
O502 Eu481 2.430 . S
O502 C488 1.259 . S
O503 Eu481 2.670 . S
O503 C488 1.270 . S
O503 Eu491 2.355 . S
O504 Eu481 2.394 . S
O504 C489 1.251 . S
O505 C489 1.251 . S
O505 Eu491 2.374 . S
O506 C490 1.257 . S
O506 Eu491 2.473 . S
O507 C490 1.260 . S
O507 Eu491 2.480 . S
O508 Eu491 2.430 . S
O508 C498 1.259 . S
O509 Eu481 2.355 . S
O509 Eu491 2.670 . S
O509 C498 1.270 . S
O510 Eu491 2.394 . S
O510 C499 1.251 . S
O511 Eu481 2.374 . S
O511 C499 1.251 . S
H512 C483 0.931 . S
H513 C484 0.931 . S
H514 C486 0.931 . S
H515 C487 0.931 . S
H516 C493 0.931 . S
H517 C494 0.931 . S
H518 C496 0.931 . S
H519 C497 0.931 . S
C520 Eu521 2.835 . S
C520 C522 1.500 . S
C520 O540 1.257 . S
C520 O541 1.260 . S
Eu521 C520 2.835 . S
Eu521 O540 2.473 . S
Eu521 O541 2.480 . S
Eu521 O542 2.430 . S
Eu521 O543 2.670 . S
Eu521 O544 2.394 . S
Eu521 O549 2.355 . S
Eu521 O551 2.374 . S
C522 C520 1.500 . S
C522 C523 1.377 . S
C522 C527 1.377 . S
C523 C522 1.377 . S
C523 C524 1.395 . S
C523 H552 0.931 . S
C524 C523 1.395 . S
C524 C525 1.383 . S
C524 H553 0.931 . S
C525 C524 1.383 . S
C525 C526 1.394 . S
C526 C525 1.394 . S
C526 C527 1.378 . S
C526 H554 0.931 . S
C527 C522 1.377 . S
C527 C526 1.378 . S
C527 H555 0.931 . S
C528 O542 1.259 . S
C528 O543 1.270 . S
C529 O544 1.251 . S
C529 O545 1.251 . S
C530 Eu531 2.835 1_556 S
C530 C532 1.500 . S
C530 O546 1.257 . S
C530 O547 1.260 . S
Eu531 C530 2.835 1_554 S
Eu531 O543 2.355 . S
Eu531 O545 2.374 . S
Eu531 O546 2.473 1_554 S
Eu531 O547 2.480 1_554 S
Eu531 O548 2.430 . S
Eu531 O549 2.670 . S
Eu531 O550 2.394 . S
C532 C530 1.500 . S
C532 C533 1.377 . S
C532 C537 1.377 . S
C533 C532 1.377 . S
C533 C534 1.395 . S
C533 H556 0.931 . S
C534 C533 1.395 . S
C534 C535 1.383 . S
C534 H557 0.931 . S
C535 C534 1.383 . S
C535 C536 1.394 . S
C536 C535 1.394 . S
C536 C537 1.378 . S
C536 H558 0.931 . S
C537 C532 1.377 . S
C537 C536 1.378 . S
C537 H559 0.931 . S
C538 O548 1.259 . S
C538 O549 1.270 . S
C539 O550 1.251 . S
C539 O551 1.251 . S
O540 C520 1.257 . S
O540 Eu521 2.473 . S
O541 C520 1.260 . S
O541 Eu521 2.480 . S
O542 Eu521 2.430 . S
O542 C528 1.259 . S
O543 Eu521 2.670 . S
O543 C528 1.270 . S
O543 Eu531 2.355 . S
O544 Eu521 2.394 . S
O544 C529 1.251 . S
O545 C529 1.251 . S
O545 Eu531 2.374 . S
O546 C530 1.257 . S
O546 Eu531 2.473 1_556 S
O547 C530 1.260 . S
O547 Eu531 2.480 1_556 S
O548 Eu531 2.430 . S
O548 C538 1.259 . S
O549 Eu521 2.355 . S
O549 Eu531 2.670 . S
O549 C538 1.270 . S
O550 Eu531 2.394 . S
O550 C539 1.251 . S
O551 Eu521 2.374 . S
O551 C539 1.251 . S
H552 C523 0.931 . S
H553 C524 0.931 . S
H554 C526 0.931 . S
H555 C527 0.931 . S
H556 C533 0.931 . S
H557 C534 0.931 . S
H558 C536 0.931 . S
H559 C537 0.931 . S
C560 Eu561 2.835 1_556 S
C560 C562 1.500 . S
C560 O580 1.257 1_556 S
C560 O581 1.260 1_556 S
Eu561 C560 2.835 1_554 S
Eu561 O580 2.473 . S
Eu561 O581 2.480 . S
Eu561 O582 2.430 . S
Eu561 O583 2.670 . S
Eu561 O584 2.394 . S
Eu561 O589 2.355 . S
Eu561 O591 2.374 . S
C562 C560 1.500 . S
C562 C563 1.377 . S
C562 C567 1.377 . S
C563 C562 1.377 . S
C563 C564 1.395 . S
C563 H592 0.931 . S
C564 C563 1.395 . S
C564 C565 1.383 . S
C564 H593 0.931 . S
C565 C564 1.383 . S
C565 C566 1.394 . S
C566 C565 1.394 . S
C566 C567 1.378 . S
C566 H594 0.931 . S
C567 C562 1.377 . S
C567 C566 1.378 . S
C567 H595 0.931 . S
C568 O582 1.259 . S
C568 O583 1.270 . S
C569 O584 1.251 . S
C569 O585 1.251 . S
C570 Eu571 2.835 . S
C570 C572 1.500 . S
C570 O586 1.257 . S
C570 O587 1.260 . S
Eu571 C570 2.835 . S
Eu571 O583 2.355 . S
Eu571 O585 2.374 . S
Eu571 O586 2.473 . S
Eu571 O587 2.480 . S
Eu571 O588 2.430 . S
Eu571 O589 2.670 . S
Eu571 O590 2.394 . S
C572 C570 1.500 . S
C572 C573 1.377 . S
C572 C577 1.377 . S
C573 C572 1.377 . S
C573 C574 1.395 . S
C573 H596 0.931 . S
C574 C573 1.395 . S
C574 C575 1.383 . S
C574 H597 0.931 . S
C575 C574 1.383 . S
C575 C576 1.394 . S
C576 C575 1.394 . S
C576 C577 1.378 . S
C576 H598 0.931 . S
C577 C572 1.377 . S
C577 C576 1.378 . S
C577 H599 0.931 . S
C578 O588 1.259 . S
C578 O589 1.270 . S
C579 O590 1.251 . S
C579 O591 1.251 . S
O580 C560 1.257 1_554 S
O580 Eu561 2.473 . S
O581 C560 1.260 1_554 S
O581 Eu561 2.480 . S
O582 Eu561 2.430 . S
O582 C568 1.259 . S
O583 Eu561 2.670 . S
O583 C568 1.270 . S
O583 Eu571 2.355 . S
O584 Eu561 2.394 . S
O584 C569 1.251 . S
O585 C569 1.251 . S
O585 Eu571 2.374 . S
O586 C570 1.257 . S
O586 Eu571 2.473 . S
O587 C570 1.260 . S
O587 Eu571 2.480 . S
O588 Eu571 2.430 . S
O588 C578 1.259 . S
O589 Eu561 2.355 . S
O589 Eu571 2.670 . S
O589 C578 1.270 . S
O590 Eu571 2.394 . S
O590 C579 1.251 . S
O591 Eu561 2.374 . S
O591 C579 1.251 . S
H592 C563 0.931 . S
H593 C564 0.931 . S
H594 C566 0.931 . S
H595 C567 0.931 . S
H596 C573 0.931 . S
H597 C574 0.931 . S
H598 C576 0.931 . S
H599 C577 0.931 . S
C600 Eu601 2.835 1_556 S
C600 C602 1.500 . S
C600 O620 1.257 1_556 S
C600 O621 1.257 1_556 S
Eu601 C600 2.835 1_554 S
Eu601 O620 2.473 . S
Eu601 O621 2.485 . S
Eu601 O622 2.430 . S
Eu601 O623 2.670 . S
Eu601 O624 2.394 . S
Eu601 O629 2.355 . S
Eu601 O631 2.374 . S
C602 C600 1.500 . S
C602 C603 1.377 . S
C602 C607 1.377 . S
C603 C602 1.377 . S
C603 C604 1.395 . S
C603 H632 0.931 . S
C604 C603 1.395 . S
C604 C605 1.383 . S
C604 H633 0.931 . S
C605 C604 1.383 . S
C605 C606 1.394 . S
C606 C605 1.394 . S
C606 C607 1.378 . S
C606 H634 0.931 . S
C607 C602 1.377 . S
C607 C606 1.378 . S
C607 H635 0.931 . S
C608 O622 1.259 . S
C608 O623 1.270 . S
C609 O624 1.251 . S
C609 O625 1.251 . S
C610 Eu611 2.835 . S
C610 C612 1.500 . S
C610 O626 1.257 . S
C610 O627 1.260 . S
Eu611 C610 2.835 . S
Eu611 O623 2.355 . S
Eu611 O625 2.374 . S
Eu611 O626 2.473 . S
Eu611 O627 2.480 . S
Eu611 O628 2.430 . S
Eu611 O629 2.670 . S
Eu611 O630 2.394 . S
C612 C610 1.500 . S
C612 C613 1.377 . S
C612 C617 1.377 . S
C613 C612 1.377 . S
C613 C614 1.395 . S
C613 H636 0.931 . S
C614 C613 1.395 . S
C614 C615 1.383 . S
C614 H637 0.931 . S
C615 C614 1.383 . S
C615 C616 1.394 . S
C616 C615 1.394 . S
C616 C617 1.378 . S
C616 H638 0.931 . S
C617 C612 1.377 . S
C617 C616 1.378 . S
C617 H639 0.931 . S
C618 O628 1.259 . S
C618 O629 1.270 . S
C619 O630 1.251 . S
C619 O631 1.251 . S
O620 C600 1.257 1_554 S
O620 Eu601 2.473 . S
O621 C600 1.257 1_554 S
O621 Eu601 2.485 . S
O622 Eu601 2.430 . S
O622 C608 1.259 . S
O623 Eu601 2.670 . S
O623 C608 1.270 . S
O623 Eu611 2.355 . S
O624 Eu601 2.394 . S
O624 C609 1.251 . S
O625 C609 1.251 . S
O625 Eu611 2.374 . S
O626 C610 1.257 . S
O626 Eu611 2.473 . S
O627 C610 1.260 . S
O627 Eu611 2.480 . S
O628 Eu611 2.430 . S
O628 C618 1.259 . S
O629 Eu601 2.355 . S
O629 Eu611 2.670 . S
O629 C618 1.270 . S
O630 Eu611 2.394 . S
O630 C619 1.251 . S
O631 Eu601 2.374 . S
O631 C619 1.251 . S
H632 C603 0.931 . S
H633 C604 0.931 . S
H634 C606 0.931 . S
H635 C607 0.931 . S
H636 C613 0.931 . S
H637 C614 0.931 . S
H638 C616 0.931 . S
H639 C617 0.931 . S
C640 Eu641 2.835 . S
C640 C642 1.500 . S
C640 O660 1.257 . S
C640 O661 1.260 . S
Eu641 C640 2.835 . S
Eu641 O660 2.473 . S
Eu641 O661 2.480 . S
Eu641 O662 2.430 . S
Eu641 O663 2.670 . S
Eu641 O664 2.394 . S
Eu641 O669 2.355 . S
Eu641 O671 2.374 . S
C642 C640 1.500 . S
C642 C643 1.377 . S
C642 C647 1.377 . S
C643 C642 1.377 . S
C643 C644 1.395 . S
C643 H672 0.931 . S
C644 C643 1.395 . S
C644 C645 1.383 . S
C644 H673 0.931 . S
C645 C644 1.383 . S
C645 C646 1.394 . S
C646 C645 1.394 . S
C646 C647 1.378 . S
C646 H674 0.931 . S
C647 C642 1.377 . S
C647 C646 1.378 . S
C647 H675 0.931 . S
C648 O662 1.259 . S
C648 O663 1.270 . S
C649 O664 1.251 . S
C649 O665 1.251 . S
C650 Eu651 2.835 . S
C650 C652 1.500 1_554 S
C650 O666 1.257 . S
C650 O667 1.260 . S
Eu651 C650 2.835 . S
Eu651 O663 2.355 . S
Eu651 O665 2.374 . S
Eu651 O666 2.473 . S
Eu651 O667 2.480 . S
Eu651 O668 2.430 . S
Eu651 O669 2.670 . S
Eu651 O670 2.394 . S
C652 C650 1.500 1_556 S
C652 C653 1.377 . S
C652 C657 1.377 . S
C653 C652 1.377 . S
C653 C654 1.395 . S
C653 H676 0.931 . S
C654 C653 1.395 . S
C654 C655 1.383 . S
C654 H677 0.931 . S
C655 C654 1.383 . S
C655 C656 1.394 . S
C656 C655 1.394 . S
C656 C657 1.378 . S
C656 H678 0.931 . S
C657 C652 1.377 . S
C657 C656 1.378 . S
C657 H679 0.931 . S
C658 O668 1.259 . S
C658 O669 1.270 . S
C659 O670 1.251 . S
C659 O671 1.251 . S
O660 C640 1.257 . S
O660 Eu641 2.473 . S
O661 C640 1.260 . S
O661 Eu641 2.480 . S
O662 Eu641 2.430 . S
O662 C648 1.259 . S
O663 Eu641 2.670 . S
O663 C648 1.270 . S
O663 Eu651 2.355 . S
O664 Eu641 2.394 . S
O664 C649 1.251 . S
O665 C649 1.251 . S
O665 Eu651 2.374 . S
O666 C650 1.257 . S
O666 Eu651 2.473 . S
O667 C650 1.260 . S
O667 Eu651 2.480 . S
O668 Eu651 2.430 . S
O668 C658 1.259 . S
O669 Eu641 2.355 . S
O669 Eu651 2.670 . S
O669 C658 1.270 . S
O670 Eu651 2.394 . S
O670 C659 1.251 . S
O671 Eu641 2.374 . S
O671 C659 1.251 . S
H672 C643 0.931 . S
H673 C644 0.931 . S
H674 C646 0.931 . S
H675 C647 0.931 . S
H676 C653 0.931 . S
H677 C654 0.931 . S
H678 C656 0.931 . S
H679 C657 0.931 . S
C680 Eu681 2.835 . S
C680 C682 1.500 1_554 S
C680 O700 1.257 . S
C680 O701 1.260 . S
Eu681 C680 2.835 . S
Eu681 O700 2.473 . S
Eu681 O701 2.480 . S
Eu681 O702 2.430 . S
Eu681 O703 2.670 . S
Eu681 O704 2.394 . S
Eu681 O709 2.355 . S
Eu681 O711 2.374 . S
C682 C680 1.500 1_556 S
C682 C683 1.377 . S
C682 C687 1.377 . S
C683 C682 1.377 . S
C683 C684 1.395 . S
C683 H712 0.931 . S
C684 C683 1.395 . S
C684 C685 1.383 . S
C684 H713 0.931 . S
C685 C684 1.383 . S
C685 C686 1.394 . S
C686 C685 1.394 . S
C686 C687 1.378 . S
C686 H714 0.931 . S
C687 C682 1.377 . S
C687 C686 1.378 . S
C687 H715 0.931 . S
C688 O702 1.259 . S
C688 O703 1.270 . S
C689 O704 1.251 . S
C689 O705 1.251 . S
C690 Eu691 2.835 . S
C690 C692 1.500 . S
C690 O706 1.257 . S
C690 O707 1.260 . S
Eu691 C690 2.835 . S
Eu691 O703 2.355 . S
Eu691 O705 2.374 . S
Eu691 O706 2.473 . S
Eu691 O707 2.480 . S
Eu691 O708 2.430 . S
Eu691 O709 2.670 . S
Eu691 O710 2.394 . S
C692 C690 1.500 . S
C692 C693 1.377 . S
C692 C697 1.377 . S
C693 C692 1.377 . S
C693 C694 1.395 . S
C693 H716 0.931 . S
C694 C693 1.395 . S
C694 C695 1.383 . S
C694 H717 0.931 . S
C695 C694 1.383 . S
C695 C696 1.394 . S
C696 C695 1.394 . S
C696 C697 1.378 . S
C696 H718 0.931 . S
C697 C692 1.377 . S
C697 C696 1.378 . S
C697 H719 0.931 . S
C698 O708 1.259 . S
C698 O709 1.270 . S
C699 O710 1.251 . S
C699 O711 1.251 . S
O700 C680 1.257 . S
O700 Eu681 2.473 . S
O701 C680 1.260 . S
O701 Eu681 2.480 . S
O702 Eu681 2.430 . S
O702 C688 1.259 . S
O703 Eu681 2.670 . S
O703 C688 1.270 . S
O703 Eu691 2.355 . S
O704 Eu681 2.394 . S
O704 C689 1.251 . S
O705 C689 1.251 . S
O705 Eu691 2.374 . S
O706 C690 1.257 . S
O706 Eu691 2.473 . S
O707 C690 1.260 . S
O707 Eu691 2.480 . S
O708 Eu691 2.430 . S
O708 C698 1.259 . S
O709 Eu681 2.355 . S
O709 Eu691 2.670 . S
O709 C698 1.270 . S
O710 Eu691 2.394 . S
O710 C699 1.251 . S
O711 Eu681 2.374 . S
O711 C699 1.251 . S
H712 C683 0.931 . S
H713 C684 0.931 . S
H714 C686 0.931 . S
H715 C687 0.931 . S
H716 C693 0.931 . S
H717 C694 0.931 . S
H718 C696 0.931 . S
H719 C697 0.931 . S
C720 C721 1.363 . S
C720 C726 1.379 . S
C720 N728 1.356 . S
C721 C720 1.363 . S
C721 C727 1.363 . S
C722 C723 1.363 . S
C722 C727 1.379 . S
C722 N729 1.356 . S
C723 C722 1.363 . S
C723 C726 1.363 . S
N724 C726 1.356 . S
N724 H736 0.984 . S
N724 H737 0.985 . S
N725 C727 1.356 . S
N725 H730 0.984 . S
N725 H731 0.985 . S
C726 C720 1.379 . S
C726 C723 1.363 . S
C726 N724 1.356 . S
C727 C721 1.363 . S
C727 C722 1.379 . S
C727 N725 1.356 . S
N728 C720 1.356 . S
N728 H734 0.984 . S
N728 H735 0.984 . S
N729 C722 1.356 . S
N729 H732 0.984 . S
N729 H733 0.985 . S
H730 N725 0.984 . S
H731 N725 0.985 . S
H732 N729 0.984 . S
H733 N729 0.985 . S
H734 N728 0.984 . S
H735 N728 0.984 . S
H736 N724 0.984 . S
H737 N724 0.985 . S
C738 C739 1.363 . S
C738 C744 1.379 . S
C738 N746 1.356 . S
C739 C738 1.363 . S
C739 C745 1.363 . S
C740 C741 1.363 . S
C740 C745 1.379 . S
C740 N747 1.356 . S
C741 C740 1.363 . S
C741 C744 1.363 . S
N742 C744 1.356 . S
N742 H754 0.984 . S
N742 H755 0.985 . S
N743 C745 1.356 . S
N743 H748 0.984 . S
N743 H749 0.985 . S
C744 C738 1.379 . S
C744 C741 1.363 . S
C744 N742 1.356 . S
C745 C739 1.363 . S
C745 C740 1.379 . S
C745 N743 1.356 . S
N746 C738 1.356 . S
N746 H752 0.984 . S
N746 H753 0.984 . S
N747 C740 1.356 . S
N747 H750 0.984 . S
N747 H751 0.985 . S
H748 N743 0.984 . S
H749 N743 0.985 . S
H750 N747 0.984 . S
H751 N747 0.985 . S
H752 N746 0.984 . S
H753 N746 0.984 . S
H754 N742 0.984 . S
H755 N742 0.985 . S
C756 C757 1.363 . S
C756 C762 1.379 . S
C756 N764 1.356 . S
C757 C756 1.363 . S
C757 C763 1.363 . S
C758 C759 1.363 . S
C758 C763 1.379 . S
C758 N765 1.356 . S
C759 C758 1.363 . S
C759 C762 1.363 . S
N760 C762 1.356 . S
N760 H772 0.984 . S
N760 H773 0.985 . S
N761 C763 1.356 . S
N761 H766 0.984 . S
N761 H767 0.985 1_565 S
C762 C756 1.379 . S
C762 C759 1.363 . S
C762 N760 1.356 . S
C763 C757 1.363 . S
C763 C758 1.379 . S
C763 N761 1.356 . S
N764 C756 1.356 . S
N764 H770 0.984 . S
N764 H771 0.984 . S
N765 C758 1.356 . S
N765 H768 0.984 . S
N765 H769 0.990 . S
H766 N761 0.984 . S
H767 N761 0.985 1_545 S
H768 N765 0.984 . S
H769 N765 0.990 . S
H770 N764 0.984 . S
H771 N764 0.984 . S
H772 N760 0.984 . S
H773 N760 0.985 . S
C774 C775 1.363 . S
C774 C780 1.379 . S
C774 N782 1.356 . S
C775 C774 1.363 . S
C775 C781 1.363 . S
C776 C777 1.363 . S
C776 C781 1.379 . S
C776 N783 1.356 . S
C777 C776 1.363 . S
C777 C780 1.363 . S
N778 C780 1.356 . S
N778 H790 0.984 . S
N778 H791 0.985 . S
N779 C781 1.356 . S
N779 H784 0.984 . S
N779 H785 0.985 . S
C780 C774 1.379 . S
C780 C777 1.363 . S
C780 N778 1.356 . S
C781 C775 1.363 . S
C781 C776 1.379 . S
C781 N779 1.356 . S
N782 C774 1.356 . S
N782 H788 0.984 . S
N782 H789 0.984 . S
N783 C776 1.356 . S
N783 H786 0.984 . S
N783 H787 0.985 . S
H784 N779 0.984 . S
H785 N779 0.985 . S
H786 N783 0.984 . S
H787 N783 0.985 . S
H788 N782 0.984 . S
H789 N782 0.984 . S
H790 N778 0.984 . S
H791 N778 0.985 . S
C792 C793 1.363 . S
C792 C798 1.379 . S
C792 N800 1.356 . S
C793 C792 1.363 . S
C793 C799 1.363 . S
C794 C795 1.363 . S
C794 C799 1.379 . S
C794 N801 1.356 . S
C795 C794 1.363 . S
C795 C798 1.363 . S
N796 C798 1.356 . S
N796 H808 0.984 . S
N796 H809 0.985 . S
N797 C799 1.356 . S
N797 H802 0.984 . S
N797 H803 0.985 . S
C798 C792 1.379 . S
C798 C795 1.363 . S
C798 N796 1.356 . S
C799 C793 1.363 . S
C799 C794 1.379 . S
C799 N797 1.356 . S
N800 C792 1.356 . S
N800 H806 0.984 . S
N800 H807 0.984 . S
N801 C794 1.356 . S
N801 H804 0.984 . S
N801 H805 0.985 . S
H802 N797 0.984 . S
H803 N797 0.985 . S
H804 N801 0.984 . S
H805 N801 0.985 . S
H806 N800 0.984 . S
H807 N800 0.984 . S
H808 N796 0.984 . S
H809 N796 0.985 . S
C810 C811 1.363 . S
C810 C816 1.379 . S
C810 N818 1.356 . S
C811 C810 1.363 . S
C811 C817 1.363 . S
C812 C813 1.363 . S
C812 C817 1.379 . S
C812 N819 1.356 . S
C813 C812 1.363 . S
C813 C816 1.363 . S
N814 C816 1.356 . S
N814 H826 0.984 . S
N814 H827 0.985 . S
N815 C817 1.356 . S
N815 H820 0.984 . S
N815 H821 0.985 . S
C816 C810 1.379 . S
C816 C813 1.363 . S
C816 N814 1.356 . S
C817 C811 1.363 . S
C817 C812 1.379 . S
C817 N815 1.356 . S
N818 C810 1.356 . S
N818 H824 0.984 . S
N818 H825 0.984 . S
N819 C812 1.356 . S
N819 H822 0.984 . S
N819 H823 0.985 . S
H820 N815 0.984 . S
H821 N815 0.985 . S
H822 N819 0.984 . S
H823 N819 0.985 . S
H824 N818 0.984 . S
H825 N818 0.984 . S
H826 N814 0.984 . S
H827 N814 0.985 . S
C828 C829 1.363 . S
C828 C834 1.379 . S
C828 N836 1.356 . S
C829 C828 1.363 . S
C829 C835 1.363 . S
C830 C831 1.363 . S
C830 C835 1.379 . S
C830 N837 1.356 . S
C831 C830 1.363 . S
C831 C834 1.363 . S
N832 C834 1.356 . S
N832 H844 0.984 . S
N832 H845 0.985 . S
N833 C835 1.356 . S
N833 H838 0.984 . S
N833 H839 0.985 . S
C834 C828 1.379 . S
C834 C831 1.363 . S
C834 N832 1.356 . S
C835 C829 1.363 . S
C835 C830 1.379 . S
C835 N833 1.356 . S
N836 C828 1.356 . S
N836 H842 0.984 1_655 S
N836 H843 0.984 . S
N837 C830 1.356 . S
N837 H840 0.984 . S
N837 H841 0.985 . S
H838 N833 0.984 . S
H839 N833 0.985 . S
H840 N837 0.984 . S
H841 N837 0.985 . S
H842 N836 0.984 1_455 S
H843 N836 0.984 . S
H844 N832 0.984 . S
H845 N832 0.985 . S
C846 C847 1.363 . S
C846 C852 1.379 . S
C846 N854 1.356 . S
C847 C846 1.363 . S
C847 C853 1.363 . S
C848 C849 1.363 . S
C848 C853 1.379 . S
C848 N855 1.356 . S
C849 C848 1.363 . S
C849 C852 1.363 . S
N850 C852 1.356 . S
N850 H862 0.984 . S
N850 H863 0.985 . S
N851 C853 1.356 . S
N851 H856 0.984 . S
N851 H857 0.985 . S
C852 C846 1.379 . S
C852 C849 1.363 . S
C852 N850 1.356 . S
C853 C847 1.363 . S
C853 C848 1.379 . S
C853 N851 1.356 . S
N854 C846 1.356 . S
N854 H860 0.984 . S
N854 H861 0.984 . S
N855 C848 1.356 . S
N855 H858 0.984 . S
N855 H859 0.985 . S
H856 N851 0.984 . S
H857 N851 0.985 . S
H858 N855 0.984 . S
H859 N855 0.985 . S
H860 N854 0.984 . S
H861 N854 0.984 . S
H862 N850 0.984 . S
H863 N850 0.985 . S
C864 C865 1.363 . S
C864 C870 1.379 . S
C864 N872 1.356 . S
C865 C864 1.363 . S
C865 C871 1.363 . S
C866 C867 1.363 . S
C866 C871 1.379 . S
C866 N873 1.356 . S
C867 C866 1.363 . S
C867 C870 1.363 . S
N868 C870 1.356 . S
N868 H880 0.984 . S
N868 H881 0.985 . S
N869 C871 1.356 . S
N869 H874 0.984 . S
N869 H875 0.985 . S
C870 C864 1.379 . S
C870 C867 1.363 . S
C870 N868 1.356 . S
C871 C865 1.363 . S
C871 C866 1.379 . S
C871 N869 1.356 . S
N872 C864 1.356 . S
N872 H878 0.984 . S
N872 H879 0.984 . S
N873 C866 1.356 . S
N873 H876 0.984 . S
N873 H877 0.985 . S
H874 N869 0.984 . S
H875 N869 0.985 . S
H876 N873 0.984 . S
H877 N873 0.985 . S
H878 N872 0.984 . S
H879 N872 0.984 . S
H880 N868 0.984 . S
H881 N868 0.985 . S
C882 C883 1.363 . S
C882 C888 1.379 . S
C882 N890 1.356 . S
C883 C882 1.363 . S
C883 C889 1.363 . S
C884 C885 1.363 . S
C884 C889 1.379 . S
C884 N891 1.356 . S
C885 C884 1.363 . S
C885 C888 1.363 . S
N886 C888 1.356 . S
N886 H898 0.984 . S
N886 H899 0.985 . S
N887 C889 1.356 . S
N887 H892 0.984 . S
N887 H893 0.985 . S
C888 C882 1.379 . S
C888 C885 1.363 . S
C888 N886 1.356 . S
C889 C883 1.363 . S
C889 C884 1.379 . S
C889 N887 1.356 . S
N890 C882 1.356 . S
N890 H896 0.984 . S
N890 H897 0.984 . S
N891 C884 1.356 . S
N891 H894 0.984 . S
N891 H895 0.985 . S
H892 N887 0.984 . S
H893 N887 0.985 . S
H894 N891 0.984 . S
H895 N891 0.985 . S
H896 N890 0.984 . S
H897 N890 0.984 . S
H898 N886 0.984 . S
H899 N886 0.985 . S
C900 C901 1.363 . S
C900 C906 1.379 . S
C900 N908 1.356 . S
C901 C900 1.363 . S
C901 C907 1.363 . S
C902 C903 1.363 . S
C902 C907 1.379 . S
C902 N909 1.356 . S
C903 C902 1.363 . S
C903 C906 1.363 . S
N904 C906 1.356 . S
N904 H916 0.984 . S
N904 H917 0.985 . S
N905 C907 1.356 . S
N905 H910 0.984 . S
N905 H911 0.985 . S
C906 C900 1.379 . S
C906 C903 1.363 . S
C906 N904 1.356 . S
C907 C901 1.363 . S
C907 C902 1.379 . S
C907 N905 1.356 . S
N908 C900 1.356 . S
N908 H914 0.984 . S
N908 H915 0.984 . S
N909 C902 1.356 . S
N909 H912 0.984 . S
N909 H913 0.985 . S
H910 N905 0.984 . S
H911 N905 0.985 . S
H912 N909 0.984 . S
H913 N909 0.985 . S
H914 N908 0.984 . S
H915 N908 0.984 . S
H916 N904 0.984 . S
H917 N904 0.985 . S
C918 C919 1.363 . S
C918 C924 1.379 . S
C918 N926 1.356 . S
C919 C918 1.363 . S
C919 C925 1.363 . S
C920 C921 1.363 . S
C920 C925 1.379 . S
C920 N927 1.356 . S
C921 C920 1.363 . S
C921 C924 1.363 . S
N922 C924 1.356 . S
N922 H934 0.984 . S
N922 H935 0.985 . S
N923 C925 1.356 . S
N923 H928 0.984 . S
N923 H929 0.985 . S
C924 C918 1.379 . S
C924 C921 1.363 . S
C924 N922 1.356 . S
C925 C919 1.363 . S
C925 C920 1.379 . S
C925 N923 1.356 . S
N926 C918 1.356 . S
N926 H932 0.984 . S
N926 H933 0.984 . S
N927 C920 1.356 . S
N927 H930 0.984 . S
N927 H931 0.985 . S
H928 N923 0.984 . S
H929 N923 0.985 . S
H930 N927 0.984 . S
H931 N927 0.985 . S
H932 N926 0.984 . S
H933 N926 0.984 . S
H934 N922 0.984 . S
H935 N922 0.985 . S
C936 C937 1.363 1_455 S
C936 C942 1.363 1_556 S
C936 N944 1.356 . S
C937 C936 1.363 1_655 S
C937 C943 1.363 . S
C938 C939 1.363 1_655 S
C938 C943 1.379 1_554 S
C938 N945 1.356 . S
C939 C938 1.363 1_455 S
C939 C942 1.380 . S
N940 C942 1.361 . S
N940 H952 0.984 1_554 S
N940 H953 0.985 . S
N941 C943 1.356 . S
N941 H946 0.984 . S
N941 H947 0.998 . S
C942 C936 1.363 1_554 S
C942 C939 1.380 . S
C942 N940 1.361 . S
C943 C937 1.363 . S
C943 C938 1.379 1_556 S
C943 N941 1.356 . S
N944 C936 1.356 . S
N944 H950 0.984 . S
N944 H951 0.984 . S
N945 C938 1.356 . S
N945 H948 0.984 1_655 S
N945 H949 0.985 . S
H946 N941 0.984 . S
H947 N941 0.998 . S
H948 N945 0.984 1_455 S
H949 N945 0.985 . S
H950 N944 0.984 . S
H951 N944 0.984 . S
H952 N940 0.984 1_556 S
H953 N940 0.985 . S
C954 C955 1.363 . S
C954 C960 1.379 1_556 S
C954 N962 1.356 . S
C955 C954 1.363 . S
C955 C961 1.363 . S
C956 C957 1.363 . S
C956 C961 1.379 1_554 S
C956 N963 1.356 . S
C957 C956 1.363 . S
C957 C960 1.363 . S
N958 C960 1.356 . S
N958 H970 0.984 . S
N958 H971 0.985 . S
N959 C961 1.356 . S
N959 H964 0.984 . S
N959 H965 0.985 . S
C960 C954 1.379 1_554 S
C960 C957 1.363 . S
C960 N958 1.356 . S
C961 C955 1.363 . S
C961 C956 1.379 1_556 S
C961 N959 1.356 . S
N962 C954 1.356 . S
N962 H968 0.984 . S
N962 H969 0.984 . S
N963 C956 1.356 . S
N963 H966 0.984 . S
N963 H967 0.985 . S
H964 N959 0.984 . S
H965 N959 0.985 . S
H966 N963 0.984 . S
H967 N963 0.985 . S
H968 N962 0.984 . S
H969 N962 0.984 . S
H970 N958 0.984 . S
H971 N958 0.985 . S
C972 C973 1.363 . S
C972 C978 1.379 1_545 S
C972 N980 1.356 . S
C973 C972 1.363 . S
C973 C979 1.363 . S
C974 C975 1.366 1_545 S
C974 C979 1.396 1_554 S
C974 N981 1.336 1_545 S
C975 C974 1.366 1_565 S
C975 C978 1.363 1_554 S
N976 C978 1.356 1_554 S
N976 H988 0.986 . S
N976 H989 0.985 . S
N977 C979 1.356 . S
N977 H982 0.984 . S
N977 H983 0.985 . S
C978 C972 1.379 1_565 S
C978 C975 1.363 1_556 S
C978 N976 1.356 1_556 S
C979 C973 1.363 . S
C979 C974 1.396 1_556 S
C979 N977 1.356 . S
N980 C972 1.356 . S
N980 H986 0.984 . S
N980 H987 0.984 . S
N981 C974 1.336 1_565 S
N981 H984 0.984 . S
N981 H985 0.985 1_565 S
H982 N977 0.984 . S
H983 N977 0.985 . S
H984 N981 0.984 . S
H985 N981 0.985 1_545 S
H986 N980 0.984 . S
H987 N980 0.984 . S
H988 N976 0.986 . S
H989 N976 0.985 . S
C990 C991 1.353 1_554 S
C990 C996 1.392 . S
C990 N998 1.350 1_554 S
C991 C990 1.353 1_556 S
C991 C997 1.363 1_545 S
C992 C993 1.363 . S
C992 C997 1.379 1_554 S
C992 N999 1.356 . S
C993 C992 1.363 . S
C993 C996 1.363 1_565 S
N994 C996 1.356 . S
N994 H1006 0.984 . S
N994 H1007 0.985 . S
N995 C997 1.356 . S
N995 H1000 0.984 1_565 S
N995 H1001 0.985 . S
C996 C990 1.392 . S
C996 C993 1.363 1_545 S
C996 N994 1.356 . S
C997 C991 1.363 1_565 S
C997 C992 1.379 1_556 S
C997 N995 1.356 . S
N998 C990 1.350 1_556 S
N998 H1004 0.984 1_556 S
N998 H1005 0.984 . S
N999 C992 1.356 . S
N999 H1002 0.984 . S
N999 H1003 0.985 . S
H1000 N995 0.984 1_545 S
H1001 N995 0.985 . S
H1002 N999 0.984 . S
H1003 N999 0.985 . S
H1004 N998 0.984 1_554 S
H1005 N998 0.984 . S
H1006 N994 0.984 . S
H1007 N994 0.985 . S
C1008 C1009 1.363 . S
C1008 C1014 1.379 1_554 S
C1008 N1016 1.356 . S
C1009 C1008 1.363 . S
C1009 C1015 1.363 1_455 S
C1010 C1011 1.363 1_554 S
C1010 C1015 1.379 . S
C1010 N1017 1.356 1_554 S
C1011 C1010 1.363 1_556 S
C1011 C1014 1.363 1_655 S
N1012 C1014 1.356 . S
N1012 H1024 0.984 . S
N1012 H1025 0.969 1_455 S
N1013 C1015 1.356 . S
N1013 H1018 0.984 1_655 S
N1013 H1019 0.985 . S
C1014 C1008 1.379 1_556 S
C1014 C1011 1.363 1_455 S
C1014 N1012 1.356 . S
C1015 C1009 1.363 1_655 S
C1015 C1010 1.379 . S
C1015 N1013 1.356 . S
N1016 C1008 1.356 . S
N1016 H1022 0.984 . S
N1016 H1023 0.984 . S
N1017 C1010 1.356 1_556 S
N1017 H1020 0.984 . S
N1017 H1021 0.985 1_556 S
H1018 N1013 0.984 1_455 S
H1019 N1013 0.985 . S
H1020 N1017 0.984 . S
H1021 N1017 0.985 1_554 S
H1022 N1016 0.984 . S
H1023 N1016 0.984 . S
H1024 N1012 0.984 . S
H1025 N1012 0.969 1_655 S
C1026 C1027 1.363 . S
C1026 C1032 1.379 1_554 S
C1026 N1034 1.356 . S
C1027 C1026 1.363 . S
C1027 C1033 1.363 . S
C1028 C1029 1.363 . S
C1028 C1033 1.379 1_556 S
C1028 N1035 1.356 . S
C1029 C1028 1.363 . S
C1029 C1032 1.363 . S
N1030 C1032 1.356 . S
N1030 H1042 0.984 . S
N1030 H1043 0.985 . S
N1031 C1033 1.356 . S
N1031 H1036 0.984 . S
N1031 H1037 0.985 . S
C1032 C1026 1.379 1_556 S
C1032 C1029 1.363 . S
C1032 N1030 1.356 . S
C1033 C1027 1.363 . S
C1033 C1028 1.379 1_554 S
C1033 N1031 1.356 . S
N1034 C1026 1.356 . S
N1034 H1040 0.984 . S
N1034 H1041 0.984 . S
N1035 C1028 1.356 . S
N1035 H1038 0.984 . S
N1035 H1039 0.985 . S
H1036 N1031 0.984 . S
H1037 N1031 0.985 . S
H1038 N1035 0.984 . S
H1039 N1035 0.985 . S
H1040 N1034 0.984 . S
H1041 N1034 0.984 . S
H1042 N1030 0.984 . S
H1043 N1030 0.985 . S
C1044 C1045 1.363 . S
C1044 C1050 1.379 . S
C1044 N1052 1.356 . S
C1045 C1044 1.363 . S
C1045 C1051 1.363 . S
C1046 C1047 1.363 . S
C1046 C1051 1.379 . S
C1046 N1053 1.356 . S
C1047 C1046 1.363 . S
C1047 C1050 1.363 . S
N1048 C1050 1.356 . S
N1048 H1060 0.984 . S
N1048 H1061 0.985 . S
N1049 C1051 1.356 . S
N1049 H1054 0.984 . S
N1049 H1055 0.985 . S
C1050 C1044 1.379 . S
C1050 C1047 1.363 . S
C1050 N1048 1.356 . S
C1051 C1045 1.363 . S
C1051 C1046 1.379 . S
C1051 N1049 1.356 . S
N1052 C1044 1.356 . S
N1052 H1058 0.984 . S
N1052 H1059 0.984 . S
N1053 C1046 1.356 . S
N1053 H1056 0.984 . S
N1053 H1057 0.985 . S
H1054 N1049 0.984 . S
H1055 N1049 0.985 . S
H1056 N1053 0.984 . S
H1057 N1053 0.985 . S
H1058 N1052 0.984 . S
H1059 N1052 0.984 . S
H1060 N1048 0.984 . S
H1061 N1048 0.985 . S
C1062 C1063 1.363 . S
C1062 C1068 1.379 . S
C1062 N1070 1.356 . S
C1063 C1062 1.363 . S
C1063 C1069 1.363 . S
C1064 C1065 1.363 . S
C1064 C1069 1.379 . S
C1064 N1071 1.356 . S
C1065 C1064 1.363 . S
C1065 C1068 1.363 . S
N1066 C1068 1.356 . S
N1066 H1078 0.984 . S
N1066 H1079 0.985 . S
N1067 C1069 1.356 . S
N1067 H1072 0.984 . S
N1067 H1073 0.985 . S
C1068 C1062 1.379 . S
C1068 C1065 1.363 . S
C1068 N1066 1.356 . S
C1069 C1063 1.363 . S
C1069 C1064 1.379 . S
C1069 N1067 1.356 . S
N1070 C1062 1.356 . S
N1070 H1076 0.984 . S
N1070 H1077 0.984 . S
N1071 C1064 1.356 . S
N1071 H1074 0.984 . S
N1071 H1075 0.985 . S
H1072 N1067 0.984 . S
H1073 N1067 0.985 . S
H1074 N1071 0.984 . S
H1075 N1071 0.985 . S
H1076 N1070 0.984 . S
H1077 N1070 0.984 . S
H1078 N1066 0.984 . S
H1079 N1066 0.985 . S
C1080 C1081 1.363 . S
C1080 C1086 1.379 . S
C1080 N1088 1.356 . S
C1081 C1080 1.363 . S
C1081 C1087 1.363 . S
C1082 C1083 1.363 . S
C1082 C1087 1.379 . S
C1082 N1089 1.356 . S
C1083 C1082 1.363 . S
C1083 C1086 1.363 . S
N1084 C1086 1.356 . S
N1084 H1096 0.984 . S
N1084 H1097 0.985 . S
N1085 C1087 1.356 . S
N1085 H1090 0.984 . S
N1085 H1091 0.985 . S
C1086 C1080 1.379 . S
C1086 C1083 1.363 . S
C1086 N1084 1.356 . S
C1087 C1081 1.363 . S
C1087 C1082 1.379 . S
C1087 N1085 1.356 . S
N1088 C1080 1.356 . S
N1088 H1094 0.984 . S
N1088 H1095 0.984 . S
N1089 C1082 1.356 . S
N1089 H1092 0.984 . S
N1089 H1093 0.985 . S
H1090 N1085 0.984 . S
H1091 N1085 0.985 . S
H1092 N1089 0.984 . S
H1093 N1089 0.985 . S
H1094 N1088 0.984 . S
H1095 N1088 0.984 . S
H1096 N1084 0.984 . S
H1097 N1084 0.985 . S
C1098 C1099 1.363 . S
C1098 C1104 1.379 . S
C1098 N1106 1.356 . S
C1099 C1098 1.363 . S
C1099 C1105 1.363 . S
C1100 C1101 1.363 . S
C1100 C1105 1.379 . S
C1100 N1107 1.356 . S
C1101 C1100 1.363 . S
C1101 C1104 1.363 . S
N1102 C1104 1.356 . S
N1102 H1114 0.984 . S
N1102 H1115 0.985 . S
N1103 C1105 1.356 . S
N1103 H1108 0.984 . S
N1103 H1109 0.985 . S
C1104 C1098 1.379 . S
C1104 C1101 1.363 . S
C1104 N1102 1.356 . S
C1105 C1099 1.363 . S
C1105 C1100 1.379 . S
C1105 N1103 1.356 . S
N1106 C1098 1.356 . S
N1106 H1112 0.984 . S
N1106 H1113 0.984 . S
N1107 C1100 1.356 . S
N1107 H1110 0.984 . S
N1107 H1111 0.985 . S
H1108 N1103 0.984 . S
H1109 N1103 0.985 . S
H1110 N1107 0.984 . S
H1111 N1107 0.985 . S
H1112 N1106 0.984 . S
H1113 N1106 0.984 . S
H1114 N1102 0.984 . S
H1115 N1102 0.985 . S
C1116 C1117 1.363 . S
C1116 C1122 1.379 . S
C1116 N1124 1.356 . S
C1117 C1116 1.363 . S
C1117 C1123 1.363 . S
C1118 C1119 1.363 . S
C1118 C1123 1.379 . S
C1118 N1125 1.356 . S
C1119 C1118 1.363 . S
C1119 C1122 1.363 . S
N1120 C1122 1.356 . S
N1120 H1132 0.984 . S
N1120 H1133 0.985 . S
N1121 C1123 1.356 . S
N1121 H1126 0.984 . S
N1121 H1127 0.985 . S
C1122 C1116 1.379 . S
C1122 C1119 1.363 . S
C1122 N1120 1.356 . S
C1123 C1117 1.363 . S
C1123 C1118 1.379 . S
C1123 N1121 1.356 . S
N1124 C1116 1.356 . S
N1124 H1130 0.984 . S
N1124 H1131 0.984 . S
N1125 C1118 1.356 . S
N1125 H1128 0.984 . S
N1125 H1129 0.985 . S
H1126 N1121 0.984 . S
H1127 N1121 0.985 . S
H1128 N1125 0.984 . S
H1129 N1125 0.985 . S
H1130 N1124 0.984 . S
H1131 N1124 0.984 . S
H1132 N1120 0.984 . S
H1133 N1120 0.985 . S
C1134 C1135 1.363 . S
C1134 C1140 1.379 . S
C1134 N1142 1.356 . S
C1135 C1134 1.363 . S
C1135 C1141 1.363 . S
C1136 C1137 1.363 . S
C1136 C1141 1.379 . S
C1136 N1143 1.356 . S
C1137 C1136 1.363 . S
C1137 C1140 1.363 . S
N1138 C1140 1.356 . S
N1138 H1150 0.984 . S
N1138 H1151 0.985 . S
N1139 C1141 1.356 . S
N1139 H1144 0.984 . S
N1139 H1145 0.985 . S
C1140 C1134 1.379 . S
C1140 C1137 1.363 . S
C1140 N1138 1.356 . S
C1141 C1135 1.363 . S
C1141 C1136 1.379 . S
C1141 N1139 1.356 . S
N1142 C1134 1.356 . S
N1142 H1148 0.984 . S
N1142 H1149 0.984 . S
N1143 C1136 1.356 . S
N1143 H1146 0.984 . S
N1143 H1147 0.985 . S
H1144 N1139 0.984 . S
H1145 N1139 0.985 . S
H1146 N1143 0.984 . S
H1147 N1143 0.985 . S
H1148 N1142 0.984 . S
H1149 N1142 0.984 . S
H1150 N1138 0.984 . S
H1151 N1138 0.985 . S
C1152 C1153 1.363 . S
C1152 C1158 1.379 . S
C1152 N1160 1.356 . S
C1153 C1152 1.363 . S
C1153 C1159 1.363 . S
C1154 C1155 1.363 . S
C1154 C1159 1.379 . S
C1154 N1161 1.356 . S
C1155 C1154 1.363 . S
C1155 C1158 1.363 . S
N1156 C1158 1.356 . S
N1156 H1168 0.984 . S
N1156 H1169 0.985 . S
N1157 C1159 1.356 . S
N1157 H1162 0.984 . S
N1157 H1163 0.985 . S
C1158 C1152 1.379 . S
C1158 C1155 1.363 . S
C1158 N1156 1.356 . S
C1159 C1153 1.363 . S
C1159 C1154 1.379 . S
C1159 N1157 1.356 . S
N1160 C1152 1.356 . S
N1160 H1166 0.984 . S
N1160 H1167 0.984 . S
N1161 C1154 1.356 . S
N1161 H1164 0.984 . S
N1161 H1165 0.985 . S
H1162 N1157 0.984 . S
H1163 N1157 0.985 . S
H1164 N1161 0.984 . S
H1165 N1161 0.985 . S
H1166 N1160 0.984 . S
H1167 N1160 0.984 . S
H1168 N1156 0.984 . S
H1169 N1156 0.985 . S
C1170 C1171 1.363 . S
C1170 C1176 1.379 . S
C1170 N1178 1.356 . S
C1171 C1170 1.363 . S
C1171 C1177 1.363 . S
C1172 C1173 1.363 . S
C1172 C1177 1.379 . S
C1172 N1179 1.356 . S
C1173 C1172 1.363 . S
C1173 C1176 1.363 . S
N1174 C1176 1.356 . S
N1174 H1186 0.984 . S
N1174 H1187 0.985 . S
N1175 C1177 1.356 . S
N1175 H1180 0.984 . S
N1175 H1181 0.985 . S
C1176 C1170 1.379 . S
C1176 C1173 1.363 . S
C1176 N1174 1.356 . S
C1177 C1171 1.363 . S
C1177 C1172 1.379 . S
C1177 N1175 1.356 . S
N1178 C1170 1.356 . S
N1178 H1184 0.984 . S
N1178 H1185 0.984 . S
N1179 C1172 1.356 . S
N1179 H1182 0.984 . S
N1179 H1183 0.985 . S
H1180 N1175 0.984 . S
H1181 N1175 0.985 . S
H1182 N1179 0.984 . S
H1183 N1179 0.985 . S
H1184 N1178 0.984 . S
H1185 N1178 0.984 . S
H1186 N1174 0.984 . S
H1187 N1174 0.985 . S
C1188 C1189 1.363 . S
C1188 C1194 1.379 . S
C1188 N1196 1.356 . S
C1189 C1188 1.363 . S
C1189 C1195 1.363 . S
C1190 C1191 1.363 . S
C1190 C1195 1.379 . S
C1190 N1197 1.356 . S
C1191 C1190 1.363 . S
C1191 C1194 1.363 . S
N1192 C1194 1.356 . S
N1192 H1204 0.984 . S
N1192 H1205 0.985 . S
N1193 C1195 1.356 . S
N1193 H1198 0.984 . S
N1193 H1199 0.985 . S
C1194 C1188 1.379 . S
C1194 C1191 1.363 . S
C1194 N1192 1.356 . S
C1195 C1189 1.363 . S
C1195 C1190 1.379 . S
C1195 N1193 1.356 . S
N1196 C1188 1.356 . S
N1196 H1202 0.984 . S
N1196 H1203 0.984 . S
N1197 C1190 1.356 . S
N1197 H1200 0.984 . S
N1197 H1201 0.985 . S
H1198 N1193 0.984 . S
H1199 N1193 0.985 . S
H1200 N1197 0.984 . S
H1201 N1197 0.985 . S
H1202 N1196 0.984 . S
H1203 N1196 0.984 . S
H1204 N1192 0.984 . S
H1205 N1192 0.985 . S
C1206 C1207 1.363 . S
C1206 C1212 1.379 . S
C1206 N1214 1.356 . S
C1207 C1206 1.363 . S
C1207 C1213 1.363 . S
C1208 C1209 1.363 . S
C1208 C1213 1.379 . S
C1208 N1215 1.356 . S
C1209 C1208 1.363 . S
C1209 C1212 1.363 . S
N1210 C1212 1.356 . S
N1210 H1222 0.984 . S
N1210 H1223 0.985 . S
N1211 C1213 1.356 . S
N1211 H1216 0.984 . S
N1211 H1217 0.985 . S
C1212 C1206 1.379 . S
C1212 C1209 1.363 . S
C1212 N1210 1.356 . S
C1213 C1207 1.363 . S
C1213 C1208 1.379 . S
C1213 N1211 1.356 . S
N1214 C1206 1.356 . S
N1214 H1220 0.984 . S
N1214 H1221 0.984 . S
N1215 C1208 1.356 . S
N1215 H1218 0.984 . S
N1215 H1219 0.985 . S
H1216 N1211 0.984 . S
H1217 N1211 0.985 . S
H1218 N1215 0.984 . S
H1219 N1215 0.985 . S
H1220 N1214 0.984 . S
H1221 N1214 0.984 . S
H1222 N1210 0.984 . S
H1223 N1210 0.985 . S
C1224 C1225 1.363 . S
C1224 C1230 1.379 . S
C1224 N1232 1.356 . S
C1225 C1224 1.363 . S
C1225 C1231 1.363 . S
C1226 C1227 1.363 . S
C1226 C1231 1.379 . S
C1226 N1233 1.356 . S
C1227 C1226 1.363 . S
C1227 C1230 1.363 . S
N1228 C1230 1.356 . S
N1228 H1240 0.984 . S
N1228 H1241 0.985 . S
N1229 C1231 1.356 . S
N1229 H1234 0.984 . S
N1229 H1235 0.985 . S
C1230 C1224 1.379 . S
C1230 C1227 1.363 . S
C1230 N1228 1.356 . S
C1231 C1225 1.363 . S
C1231 C1226 1.379 . S
C1231 N1229 1.356 . S
N1232 C1224 1.356 . S
N1232 H1238 0.984 . S
N1232 H1239 0.984 . S
N1233 C1226 1.356 . S
N1233 H1236 0.984 . S
N1233 H1237 0.985 . S
H1234 N1229 0.984 . S
H1235 N1229 0.985 . S
H1236 N1233 0.984 . S
H1237 N1233 0.985 . S
H1238 N1232 0.984 . S
H1239 N1232 0.984 . S
H1240 N1228 0.984 . S
H1241 N1228 0.985 . S
C1242 C1243 1.363 . S
C1242 C1248 1.379 . S
C1242 N1250 1.356 . S
C1243 C1242 1.363 . S
C1243 C1249 1.363 . S
C1244 C1245 1.363 . S
C1244 C1249 1.379 . S
C1244 N1251 1.356 . S
C1245 C1244 1.363 . S
C1245 C1248 1.363 . S
N1246 C1248 1.356 . S
N1246 H1258 0.984 . S
N1246 H1259 0.985 . S
N1247 C1249 1.356 . S
N1247 H1252 0.984 . S
N1247 H1253 0.985 . S
C1248 C1242 1.379 . S
C1248 C1245 1.363 . S
C1248 N1246 1.356 . S
C1249 C1243 1.363 . S
C1249 C1244 1.379 . S
C1249 N1247 1.356 . S
N1250 C1242 1.356 . S
N1250 H1256 0.984 . S
N1250 H1257 0.984 . S
N1251 C1244 1.356 . S
N1251 H1254 0.984 . S
N1251 H1255 0.985 . S
H1252 N1247 0.984 . S
H1253 N1247 0.985 . S
H1254 N1251 0.984 . S
H1255 N1251 0.985 . S
H1256 N1250 0.984 . S
H1257 N1250 0.984 . S
H1258 N1246 0.984 . S
H1259 N1246 0.985 . S
C1260 C1261 1.363 . S
C1260 C1266 1.379 . S
C1260 N1268 1.356 . S
C1261 C1260 1.363 . S
C1261 C1267 1.363 . S
C1262 C1263 1.363 . S
C1262 C1267 1.379 . S
C1262 N1269 1.356 . S
C1263 C1262 1.363 . S
C1263 C1266 1.363 . S
N1264 C1266 1.356 . S
N1264 H1276 0.984 . S
N1264 H1277 0.985 . S
N1265 C1267 1.356 . S
N1265 H1270 0.984 . S
N1265 H1271 0.985 . S
C1266 C1260 1.379 . S
C1266 C1263 1.363 . S
C1266 N1264 1.356 . S
C1267 C1261 1.363 . S
C1267 C1262 1.379 . S
C1267 N1265 1.356 . S
N1268 C1260 1.356 . S
N1268 H1274 0.984 . S
N1268 H1275 0.984 . S
N1269 C1262 1.356 . S
N1269 H1272 0.984 . S
N1269 H1273 0.985 . S
H1270 N1265 0.984 . S
H1271 N1265 0.985 . S
H1272 N1269 0.984 . S
H1273 N1269 0.985 . S
H1274 N1268 0.984 . S
H1275 N1268 0.984 . S
H1276 N1264 0.984 . S
H1277 N1264 0.985 . S
C1278 C1279 1.363 . S
C1278 C1284 1.379 . S
C1278 N1286 1.356 . S
C1279 C1278 1.363 . S
C1279 C1285 1.363 . S
C1280 C1281 1.363 . S
C1280 C1285 1.379 . S
C1280 N1287 1.356 . S
C1281 C1280 1.363 . S
C1281 C1284 1.363 . S
N1282 C1284 1.356 . S
N1282 H1294 0.984 . S
N1282 H1295 0.985 . S
N1283 C1285 1.356 . S
N1283 H1288 0.984 . S
N1283 H1289 0.986 1_554 S
C1284 C1278 1.379 . S
C1284 C1281 1.363 . S
C1284 N1282 1.356 . S
C1285 C1279 1.363 . S
C1285 C1280 1.379 . S
C1285 N1283 1.356 . S
N1286 C1278 1.356 . S
N1286 H1292 0.984 . S
N1286 H1293 0.984 . S
N1287 C1280 1.356 . S
N1287 H1290 0.984 . S
N1287 H1291 0.985 1_554 S
H1288 N1283 0.984 . S
H1289 N1283 0.986 1_556 S
H1290 N1287 0.984 . S
H1291 N1287 0.985 1_556 S
H1292 N1286 0.984 . S
H1293 N1286 0.984 . S
H1294 N1282 0.984 . S
H1295 N1282 0.985 . S
C1296 C1297 1.363 . S
C1296 C1302 1.379 . S
C1296 N1304 1.356 . S
C1297 C1296 1.363 . S
C1297 C1303 1.363 . S
C1298 C1299 1.363 . S
C1298 C1303 1.379 . S
C1298 N1305 1.356 . S
C1299 C1298 1.363 . S
C1299 C1302 1.363 . S
N1300 C1302 1.356 . S
N1300 H1312 0.984 . S
N1300 H1313 0.985 . S
N1301 C1303 1.356 . S
N1301 H1306 0.984 . S
N1301 H1307 0.985 . S
C1302 C1296 1.379 . S
C1302 C1299 1.363 . S
C1302 N1300 1.356 . S
C1303 C1297 1.363 . S
C1303 C1298 1.379 . S
C1303 N1301 1.356 . S
N1304 C1296 1.356 . S
N1304 H1310 0.984 . S
N1304 H1311 0.984 . S
N1305 C1298 1.356 . S
N1305 H1308 0.984 . S
N1305 H1309 0.985 . S
H1306 N1301 0.984 . S
H1307 N1301 0.985 . S
H1308 N1305 0.984 . S
H1309 N1305 0.985 . S
H1310 N1304 0.984 . S
H1311 N1304 0.984 . S
H1312 N1300 0.984 . S
H1313 N1300 0.985 . S
C1314 C1315 1.363 . S
C1314 C1320 1.379 . S
C1314 N1322 1.356 . S
C1315 C1314 1.363 . S
C1315 C1321 1.363 . S
C1316 C1317 1.363 . S
C1316 C1321 1.379 . S
C1316 N1323 1.356 . S
C1317 C1316 1.363 . S
C1317 C1320 1.363 . S
N1318 C1320 1.356 . S
N1318 H1330 0.984 . S
N1318 H1331 0.985 . S
N1319 C1321 1.356 . S
N1319 H1324 0.984 . S
N1319 H1325 0.985 . S
C1320 C1314 1.379 . S
C1320 C1317 1.363 . S
C1320 N1318 1.356 . S
C1321 C1315 1.363 . S
C1321 C1316 1.379 . S
C1321 N1319 1.356 . S
N1322 C1314 1.356 . S
N1322 H1328 0.984 . S
N1322 H1329 0.984 . S
N1323 C1316 1.356 . S
N1323 H1326 0.984 . S
N1323 H1327 0.985 . S
H1324 N1319 0.984 . S
H1325 N1319 0.985 . S
H1326 N1323 0.984 . S
H1327 N1323 0.985 . S
H1328 N1322 0.984 . S
H1329 N1322 0.984 . S
H1330 N1318 0.984 . S
H1331 N1318 0.985 . S
C1332 C1333 1.363 . S
C1332 C1338 1.379 . S
C1332 N1340 1.356 . S
C1333 C1332 1.363 . S
C1333 C1339 1.363 . S
C1334 C1335 1.363 . S
C1334 C1339 1.379 . S
C1334 N1341 1.356 . S
C1335 C1334 1.363 . S
C1335 C1338 1.363 . S
N1336 C1338 1.356 . S
N1336 H1348 0.984 . S
N1336 H1349 0.985 . S
N1337 C1339 1.356 . S
N1337 H1342 0.984 . S
N1337 H1343 0.985 . S
C1338 C1332 1.379 . S
C1338 C1335 1.363 . S
C1338 N1336 1.356 . S
C1339 C1333 1.363 . S
C1339 C1334 1.379 . S
C1339 N1337 1.356 . S
N1340 C1332 1.356 . S
N1340 H1346 0.984 . S
N1340 H1347 0.984 . S
N1341 C1334 1.356 . S
N1341 H1344 0.984 . S
N1341 H1345 0.985 . S
H1342 N1337 0.984 . S
H1343 N1337 0.985 . S
H1344 N1341 0.984 . S
H1345 N1341 0.985 . S
H1346 N1340 0.984 . S
H1347 N1340 0.984 . S
H1348 N1336 0.984 . S
H1349 N1336 0.985 . S
C1350 C1351 1.363 . S
C1350 C1356 1.379 . S
C1350 N1358 1.356 . S
C1351 C1350 1.363 . S
C1351 C1357 1.363 . S
C1352 C1353 1.363 . S
C1352 C1357 1.379 . S
C1352 N1359 1.356 . S
C1353 C1352 1.363 . S
C1353 C1356 1.363 . S
N1354 C1356 1.356 . S
N1354 H1366 0.984 . S
N1354 H1367 0.985 . S
N1355 C1357 1.356 . S
N1355 H1360 0.984 . S
N1355 H1361 0.985 . S
C1356 C1350 1.379 . S
C1356 C1353 1.363 . S
C1356 N1354 1.356 . S
C1357 C1351 1.363 . S
C1357 C1352 1.379 . S
C1357 N1355 1.356 . S
N1358 C1350 1.356 . S
N1358 H1364 0.984 . S
N1358 H1365 0.984 . S
N1359 C1352 1.356 . S
N1359 H1362 0.984 . S
N1359 H1363 0.985 . S
H1360 N1355 0.984 . S
H1361 N1355 0.985 . S
H1362 N1359 0.984 . S
H1363 N1359 0.985 . S
H1364 N1358 0.984 . S
H1365 N1358 0.984 . S
H1366 N1354 0.984 . S
H1367 N1354 0.985 . S
C1368 C1369 1.363 1_655 S
C1368 C1374 1.379 1_554 S
C1368 N1376 1.356 . S
C1369 C1368 1.363 1_455 S
C1369 C1375 1.363 . S
C1370 C1371 1.363 1_554 S
C1370 C1375 1.379 . S
C1370 N1377 1.356 1_554 S
C1371 C1370 1.363 1_556 S
C1371 C1374 1.363 1_455 S
N1372 C1374 1.356 . S
N1372 H1384 0.984 . S
N1372 H1385 0.985 . S
N1373 C1375 1.356 . S
N1373 H1378 0.984 . S
N1373 H1379 0.985 . S
C1374 C1368 1.379 1_556 S
C1374 C1371 1.363 1_655 S
C1374 N1372 1.356 . S
C1375 C1369 1.363 . S
C1375 C1370 1.379 . S
C1375 N1373 1.356 . S
N1376 C1368 1.356 . S
N1376 H1382 0.984 . S
N1376 H1383 0.984 . S
N1377 C1370 1.356 1_556 S
N1377 H1380 0.984 . S
N1377 H1381 0.985 1_556 S
H1378 N1373 0.984 . S
H1379 N1373 0.985 . S
H1380 N1377 0.984 . S
H1381 N1377 0.985 1_554 S
H1382 N1376 0.984 . S
H1383 N1376 0.984 . S
H1384 N1372 0.984 . S
H1385 N1372 0.985 . S
C1386 C1387 1.363 . S
C1386 C1392 1.379 1_554 S
C1386 N1394 1.356 . S
C1387 C1386 1.363 . S
C1387 C1393 1.353 1_554 S
C1388 C1389 1.363 . S
C1388 C1393 1.389 . S
C1388 N1395 1.356 . S
C1389 C1388 1.363 . S
C1389 C1392 1.363 . S
N1390 C1392 1.356 . S
N1390 H1402 0.984 . S
N1390 H1403 0.985 . S
N1391 C1393 1.352 1_554 S
N1391 H1396 0.984 . S
N1391 H1397 0.985 . S
C1392 C1386 1.379 1_556 S
C1392 C1389 1.363 . S
C1392 N1390 1.356 . S
C1393 C1387 1.353 1_556 S
C1393 C1388 1.389 . S
C1393 N1391 1.352 1_556 S
N1394 C1386 1.356 . S
N1394 H1400 0.984 . S
N1394 H1401 0.984 . S
N1395 C1388 1.356 . S
N1395 H1398 0.984 . S
N1395 H1399 0.985 . S
H1396 N1391 0.984 . S
H1397 N1391 0.985 . S
H1398 N1395 0.984 . S
H1399 N1395 0.985 . S
H1400 N1394 0.984 . S
H1401 N1394 0.984 . S
H1402 N1390 0.984 . S
H1403 N1390 0.985 . S
C1404 C1405 1.363 1_545 S
C1404 C1410 1.379 1_554 S
C1404 N1412 1.356 . S
C1405 C1404 1.363 1_565 S
C1405 C1411 1.363 1_554 S
C1406 C1407 1.363 1_565 S
C1406 C1411 1.379 . S
C1406 N1413 1.356 . S
C1407 C1406 1.363 1_545 S
C1407 C1410 1.363 . S
N1408 C1410 1.356 . S
N1408 H1420 0.984 1_556 S
N1408 H1421 0.985 . S
N1409 C1411 1.356 1_554 S
N1409 H1414 0.984 . S
N1409 H1415 0.985 1_554 S
C1410 C1404 1.379 1_556 S
C1410 C1407 1.363 . S
C1410 N1408 1.356 . S
C1411 C1405 1.363 1_556 S
C1411 C1406 1.379 . S
C1411 N1409 1.356 1_556 S
N1412 C1404 1.356 . S
N1412 H1418 0.984 . S
N1412 H1419 0.984 . S
N1413 C1406 1.356 . S
N1413 H1416 0.984 . S
N1413 H1417 0.985 . S
H1414 N1409 0.984 . S
H1415 N1409 0.985 1_556 S
H1416 N1413 0.984 . S
H1417 N1413 0.985 . S
H1418 N1412 0.984 . S
H1419 N1412 0.984 . S
H1420 N1408 0.984 1_554 S
H1421 N1408 0.985 . S
C1422 C1423 1.363 1_554 S
C1422 C1428 1.379 . S
C1422 N1430 1.356 1_554 S
C1423 C1422 1.363 1_556 S
C1423 C1429 1.363 1_455 S
C1424 C1425 1.363 1_655 S
C1424 C1429 1.379 1_554 S
C1424 N1431 1.356 . S
C1425 C1424 1.363 1_455 S
C1425 C1428 1.363 . S
N1426 C1428 1.356 . S
N1426 H1438 0.984 . S
N1426 H1439 0.985 . S
N1427 C1429 1.356 . S
N1427 H1432 0.984 . S
N1427 H1433 0.985 . S
C1428 C1422 1.379 . S
C1428 C1425 1.363 . S
C1428 N1426 1.356 . S
C1429 C1423 1.363 1_655 S
C1429 C1424 1.379 1_556 S
C1429 N1427 1.356 . S
N1430 C1422 1.356 1_556 S
N1430 H1436 0.984 1_556 S
N1430 H1437 0.984 . S
N1431 C1424 1.356 . S
N1431 H1434 0.984 . S
N1431 H1435 0.985 . S
H1432 N1427 0.984 . S
H1433 N1427 0.985 . S
H1434 N1431 0.984 . S
H1435 N1431 0.985 . S
H1436 N1430 0.984 1_554 S
H1437 N1430 0.984 . S
H1438 N1426 0.984 . S
H1439 N1426 0.985 . S
C1440 C1441 1.363 . S
C1440 C1446 1.379 1_554 S
C1440 N1448 1.356 . S
C1441 C1440 1.363 . S
C1441 C1447 1.363 . S
C1442 C1443 1.363 1_554 S
C1442 C1447 1.379 . S
C1442 N1449 1.356 1_554 S
C1443 C1442 1.363 1_556 S
C1443 C1446 1.363 . S
N1444 C1446 1.356 . S
N1444 H1456 0.984 . S
N1444 H1457 0.985 . S
N1445 C1447 1.356 . S
N1445 H1450 0.984 . S
N1445 H1451 0.985 . S
C1446 C1440 1.379 1_556 S
C1446 C1443 1.363 . S
C1446 N1444 1.356 . S
C1447 C1441 1.363 . S
C1447 C1442 1.379 . S
C1447 N1445 1.356 . S
N1448 C1440 1.356 . S
N1448 H1454 0.984 . S
N1448 H1455 0.984 . S
N1449 C1442 1.356 1_556 S
N1449 H1452 0.984 . S
N1449 H1453 0.985 1_556 S
H1450 N1445 0.984 . S
H1451 N1445 0.985 . S
H1452 N1449 0.984 . S
H1453 N1449 0.985 1_554 S
H1454 N1448 0.984 . S
H1455 N1448 0.984 . S
H1456 N1444 0.984 . S
H1457 N1444 0.985 . S
C1458 C1459 1.363 1_545 S
C1458 C1464 1.379 . S
C1458 N1466 1.356 . S
C1459 C1458 1.363 1_565 S
C1459 C1465 1.363 . S
C1460 C1461 1.363 1_565 S
C1460 C1465 1.379 1_556 S
C1460 N1467 1.356 . S
C1461 C1460 1.363 1_545 S
C1461 C1464 1.363 1_556 S
N1462 C1464 1.356 1_556 S
N1462 H1474 0.984 1_556 S
N1462 H1475 0.985 . S
N1463 C1465 1.356 . S
N1463 H1468 0.984 . S
N1463 H1469 0.985 . S
C1464 C1458 1.379 . S
C1464 C1461 1.363 1_554 S
C1464 N1462 1.356 1_554 S
C1465 C1459 1.363 . S
C1465 C1460 1.379 1_554 S
C1465 N1463 1.356 . S
N1466 C1458 1.356 . S
N1466 H1472 0.984 . S
N1466 H1473 0.984 . S
N1467 C1460 1.356 . S
N1467 H1470 0.984 . S
N1467 H1471 0.985 . S
H1468 N1463 0.984 . S
H1469 N1463 0.985 . S
H1470 N1467 0.984 . S
H1471 N1467 0.985 . S
H1472 N1466 0.984 . S
H1473 N1466 0.984 . S
H1474 N1462 0.984 1_554 S
H1475 N1462 0.985 . S
C1476 C1477 1.363 . S
C1476 C1482 1.379 . S
C1476 N1484 1.356 . S
C1477 C1476 1.363 . S
C1477 C1483 1.363 . S
C1478 C1479 1.363 . S
C1478 C1483 1.379 . S
C1478 N1485 1.356 . S
C1479 C1478 1.363 . S
C1479 C1482 1.363 . S
N1480 C1482 1.356 . S
N1480 H1492 0.984 . S
N1480 H1493 0.985 . S
N1481 C1483 1.356 . S
N1481 H1486 0.984 . S
N1481 H1487 0.985 . S
C1482 C1476 1.379 . S
C1482 C1479 1.363 . S
C1482 N1480 1.356 . S
C1483 C1477 1.363 . S
C1483 C1478 1.379 . S
C1483 N1481 1.356 . S
N1484 C1476 1.356 . S
N1484 H1490 0.984 . S
N1484 H1491 0.984 . S
N1485 C1478 1.356 . S
N1485 H1488 0.984 . S
N1485 H1489 0.985 . S
H1486 N1481 0.984 . S
H1487 N1481 0.985 . S
H1488 N1485 0.984 . S
H1489 N1485 0.985 . S
H1490 N1484 0.984 . S
H1491 N1484 0.984 . S
H1492 N1480 0.984 . S
H1493 N1480 0.985 . S
C1494 C1495 1.363 . S
C1494 C1500 1.379 . S
C1494 N1502 1.356 . S
C1495 C1494 1.363 . S
C1495 C1501 1.363 . S
C1496 C1497 1.363 . S
C1496 C1501 1.379 . S
C1496 N1503 1.356 . S
C1497 C1496 1.363 . S
C1497 C1500 1.363 . S
N1498 C1500 1.356 . S
N1498 H1510 0.984 . S
N1498 H1511 0.985 . S
N1499 C1501 1.356 . S
N1499 H1504 0.984 . S
N1499 H1505 0.985 . S
C1500 C1494 1.379 . S
C1500 C1497 1.363 . S
C1500 N1498 1.356 . S
C1501 C1495 1.363 . S
C1501 C1496 1.379 . S
C1501 N1499 1.356 . S
N1502 C1494 1.356 . S
N1502 H1508 0.984 . S
N1502 H1509 0.984 . S
N1503 C1496 1.356 . S
N1503 H1506 0.984 . S
N1503 H1507 0.985 . S
H1504 N1499 0.984 . S
H1505 N1499 0.985 . S
H1506 N1503 0.984 . S
H1507 N1503 0.985 . S
H1508 N1502 0.984 . S
H1509 N1502 0.984 . S
H1510 N1498 0.984 . S
H1511 N1498 0.985 . S
C1512 C1513 1.363 . S
C1512 C1518 1.379 . S
C1512 N1520 1.356 . S
C1513 C1512 1.363 . S
C1513 C1519 1.363 . S
C1514 C1515 1.363 . S
C1514 C1519 1.379 . S
C1514 N1521 1.356 . S
C1515 C1514 1.363 . S
C1515 C1518 1.363 . S
N1516 C1518 1.356 . S
N1516 H1528 0.984 . S
N1516 H1529 0.985 . S
N1517 C1519 1.356 . S
N1517 H1522 0.984 . S
N1517 H1523 0.985 . S
C1518 C1512 1.379 . S
C1518 C1515 1.363 . S
C1518 N1516 1.356 . S
C1519 C1513 1.363 . S
C1519 C1514 1.379 . S
C1519 N1517 1.356 . S
N1520 C1512 1.356 . S
N1520 H1526 0.984 . S
N1520 H1527 0.984 . S
N1521 C1514 1.356 . S
N1521 H1524 0.984 . S
N1521 H1525 0.985 . S
H1522 N1517 0.984 . S
H1523 N1517 0.985 . S
H1524 N1521 0.984 . S
H1525 N1521 0.985 . S
H1526 N1520 0.984 . S
H1527 N1520 0.984 . S
H1528 N1516 0.984 . S
H1529 N1516 0.985 . S
C1530 C1531 1.363 . S
C1530 C1536 1.379 . S
C1530 N1538 1.356 . S
C1531 C1530 1.363 . S
C1531 C1537 1.363 . S
C1532 C1533 1.363 . S
C1532 C1537 1.379 . S
C1532 N1539 1.356 . S
C1533 C1532 1.363 . S
C1533 C1536 1.363 . S
N1534 C1536 1.356 . S
N1534 H1546 0.984 . S
N1534 H1547 0.985 . S
N1535 C1537 1.356 . S
N1535 H1540 0.984 . S
N1535 H1541 0.985 . S
C1536 C1530 1.379 . S
C1536 C1533 1.363 . S
C1536 N1534 1.356 . S
C1537 C1531 1.363 . S
C1537 C1532 1.379 . S
C1537 N1535 1.356 . S
N1538 C1530 1.356 . S
N1538 H1544 0.984 . S
N1538 H1545 0.984 . S
N1539 C1532 1.356 . S
N1539 H1542 0.984 . S
N1539 H1543 0.985 . S
H1540 N1535 0.984 . S
H1541 N1535 0.985 . S
H1542 N1539 0.984 . S
H1543 N1539 0.985 . S
H1544 N1538 0.984 . S
H1545 N1538 0.984 . S
H1546 N1534 0.984 . S
H1547 N1534 0.985 . S
C1548 C1549 1.363 . S
C1548 C1554 1.379 . S
C1548 N1556 1.356 . S
C1549 C1548 1.363 . S
C1549 C1555 1.363 . S
C1550 C1551 1.363 . S
C1550 C1555 1.379 . S
C1550 N1557 1.356 . S
C1551 C1550 1.363 . S
C1551 C1554 1.363 . S
N1552 C1554 1.356 . S
N1552 H1564 0.984 . S
N1552 H1565 0.985 . S
N1553 C1555 1.356 . S
N1553 H1558 0.984 . S
N1553 H1559 0.985 . S
C1554 C1548 1.379 . S
C1554 C1551 1.363 . S
C1554 N1552 1.356 . S
C1555 C1549 1.363 . S
C1555 C1550 1.379 . S
C1555 N1553 1.356 . S
N1556 C1548 1.356 . S
N1556 H1562 0.984 . S
N1556 H1563 0.984 . S
N1557 C1550 1.356 . S
N1557 H1560 0.984 . S
N1557 H1561 0.985 . S
H1558 N1553 0.984 . S
H1559 N1553 0.985 . S
H1560 N1557 0.984 . S
H1561 N1557 0.985 . S
H1562 N1556 0.984 . S
H1563 N1556 0.984 . S
H1564 N1552 0.984 . S
H1565 N1552 0.985 . S
C1566 C1567 1.363 . S
C1566 C1572 1.379 . S
C1566 N1574 1.356 . S
C1567 C1566 1.363 . S
C1567 C1573 1.363 . S
C1568 C1569 1.363 . S
C1568 C1573 1.379 . S
C1568 N1575 1.356 . S
C1569 C1568 1.363 . S
C1569 C1572 1.363 . S
N1570 C1572 1.356 . S
N1570 H1582 0.984 . S
N1570 H1583 0.985 . S
N1571 C1573 1.356 . S
N1571 H1576 0.984 . S
N1571 H1577 0.985 . S
C1572 C1566 1.379 . S
C1572 C1569 1.363 . S
C1572 N1570 1.356 . S
C1573 C1567 1.363 . S
C1573 C1568 1.379 . S
C1573 N1571 1.356 . S
N1574 C1566 1.356 . S
N1574 H1580 0.984 . S
N1574 H1581 0.984 . S
N1575 C1568 1.356 . S
N1575 H1578 0.984 . S
N1575 H1579 0.985 . S
H1576 N1571 0.984 . S
H1577 N1571 0.985 . S
H1578 N1575 0.984 . S
H1579 N1575 0.985 . S
H1580 N1574 0.984 . S
H1581 N1574 0.984 . S
H1582 N1570 0.984 . S
H1583 N1570 0.985 . S
C1584 C1585 1.363 . S
C1584 C1590 1.379 . S
C1584 N1592 1.356 . S
C1585 C1584 1.363 . S
C1585 C1591 1.363 . S
C1586 C1587 1.363 . S
C1586 C1591 1.379 . S
C1586 N1593 1.356 . S
C1587 C1586 1.363 . S
C1587 C1590 1.363 . S
N1588 C1590 1.356 . S
N1588 H1600 0.984 . S
N1588 H1601 0.985 . S
N1589 C1591 1.356 . S
N1589 H1594 0.984 . S
N1589 H1595 0.985 . S
C1590 C1584 1.379 . S
C1590 C1587 1.363 . S
C1590 N1588 1.356 . S
C1591 C1585 1.363 . S
C1591 C1586 1.379 . S
C1591 N1589 1.356 . S
N1592 C1584 1.356 . S
N1592 H1598 0.984 . S
N1592 H1599 0.984 . S
N1593 C1586 1.356 . S
N1593 H1596 0.984 . S
N1593 H1597 0.985 . S
H1594 N1589 0.984 . S
H1595 N1589 0.985 . S
H1596 N1593 0.984 . S
H1597 N1593 0.985 . S
H1598 N1592 0.984 . S
H1599 N1592 0.984 . S
H1600 N1588 0.984 . S
H1601 N1588 0.985 . S
C1602 C1603 1.363 . S
C1602 C1608 1.379 . S
C1602 N1610 1.356 . S
C1603 C1602 1.363 . S
C1603 C1609 1.363 . S
C1604 C1605 1.363 . S
C1604 C1609 1.379 . S
C1604 N1611 1.356 . S
C1605 C1604 1.363 . S
C1605 C1608 1.363 . S
N1606 C1608 1.356 . S
N1606 H1618 0.984 . S
N1606 H1619 0.985 . S
N1607 C1609 1.356 . S
N1607 H1612 0.984 . S
N1607 H1613 0.985 . S
C1608 C1602 1.379 . S
C1608 C1605 1.363 . S
C1608 N1606 1.356 . S
C1609 C1603 1.363 . S
C1609 C1604 1.379 . S
C1609 N1607 1.356 . S
N1610 C1602 1.356 . S
N1610 H1616 0.984 . S
N1610 H1617 0.984 . S
N1611 C1604 1.356 . S
N1611 H1614 0.984 . S
N1611 H1615 0.985 . S
H1612 N1607 0.984 . S
H1613 N1607 0.985 . S
H1614 N1611 0.984 . S
H1615 N1611 0.985 . S
H1616 N1610 0.984 . S
H1617 N1610 0.984 . S
H1618 N1606 0.984 . S
H1619 N1606 0.985 . S
C1620 C1621 1.363 . S
C1620 C1626 1.379 . S
C1620 N1628 1.356 . S
C1621 C1620 1.363 . S
C1621 C1627 1.363 . S
C1622 C1623 1.363 . S
C1622 C1627 1.379 . S
C1622 N1629 1.356 . S
C1623 C1622 1.363 . S
C1623 C1626 1.363 . S
N1624 C1626 1.356 . S
N1624 H1636 0.984 . S
N1624 H1637 0.985 . S
N1625 C1627 1.356 . S
N1625 H1630 0.984 . S
N1625 H1631 0.985 . S
C1626 C1620 1.379 . S
C1626 C1623 1.363 . S
C1626 N1624 1.356 . S
C1627 C1621 1.363 . S
C1627 C1622 1.379 . S
C1627 N1625 1.356 . S
N1628 C1620 1.356 . S
N1628 H1634 0.984 . S
N1628 H1635 0.984 . S
N1629 C1622 1.356 . S
N1629 H1632 0.984 . S
N1629 H1633 0.985 . S
H1630 N1625 0.984 . S
H1631 N1625 0.985 . S
H1632 N1629 0.984 . S
H1633 N1629 0.985 . S
H1634 N1628 0.984 . S
H1635 N1628 0.984 . S
H1636 N1624 0.984 . S
H1637 N1624 0.985 . S
C1638 C1639 1.363 . S
C1638 C1644 1.379 . S
C1638 N1646 1.356 . S
C1639 C1638 1.363 . S
C1639 C1645 1.363 . S
C1640 C1641 1.363 . S
C1640 C1645 1.379 . S
C1640 N1647 1.356 . S
C1641 C1640 1.363 . S
C1641 C1644 1.363 . S
N1642 C1644 1.356 . S
N1642 H1654 0.984 . S
N1642 H1655 0.985 . S
N1643 C1645 1.356 . S
N1643 H1648 0.984 . S
N1643 H1649 0.985 . S
C1644 C1638 1.379 . S
C1644 C1641 1.363 . S
C1644 N1642 1.356 . S
C1645 C1639 1.363 . S
C1645 C1640 1.379 . S
C1645 N1643 1.356 . S
N1646 C1638 1.356 . S
N1646 H1652 0.984 . S
N1646 H1653 0.984 . S
N1647 C1640 1.356 . S
N1647 H1650 0.984 . S
N1647 H1651 0.985 . S
H1648 N1643 0.984 . S
H1649 N1643 0.985 . S
H1650 N1647 0.984 . S
H1651 N1647 0.985 . S
H1652 N1646 0.984 . S
H1653 N1646 0.984 . S
H1654 N1642 0.984 . S
H1655 N1642 0.985 . S
C1656 C1657 1.363 . S
C1656 C1662 1.379 . S
C1656 N1664 1.356 . S
C1657 C1656 1.363 . S
C1657 C1663 1.363 . S
C1658 C1659 1.363 . S
C1658 C1663 1.379 . S
C1658 N1665 1.356 . S
C1659 C1658 1.363 . S
C1659 C1662 1.363 . S
N1660 C1662 1.356 . S
N1660 H1672 0.984 . S
N1660 H1673 0.985 . S
N1661 C1663 1.356 . S
N1661 H1666 0.984 . S
N1661 H1667 0.985 . S
C1662 C1656 1.379 . S
C1662 C1659 1.363 . S
C1662 N1660 1.356 . S
C1663 C1657 1.363 . S
C1663 C1658 1.379 . S
C1663 N1661 1.356 . S
N1664 C1656 1.356 . S
N1664 H1670 0.984 . S
N1664 H1671 0.984 . S
N1665 C1658 1.356 . S
N1665 H1668 0.984 . S
N1665 H1669 0.985 . S
H1666 N1661 0.984 . S
H1667 N1661 0.985 . S
H1668 N1665 0.984 . S
H1669 N1665 0.985 . S
H1670 N1664 0.984 . S
H1671 N1664 0.984 . S
H1672 N1660 0.984 . S
H1673 N1660 0.985 . S
C1674 C1675 1.363 . S
C1674 C1680 1.379 . S
C1674 N1682 1.356 . S
C1675 C1674 1.363 . S
C1675 C1681 1.363 . S
C1676 C1677 1.363 . S
C1676 C1681 1.379 . S
C1676 N1683 1.356 . S
C1677 C1676 1.363 . S
C1677 C1680 1.363 . S
N1678 C1680 1.356 . S
N1678 H1690 0.984 . S
N1678 H1691 0.985 . S
N1679 C1681 1.356 . S
N1679 H1684 0.984 . S
N1679 H1685 0.985 . S
C1680 C1674 1.379 . S
C1680 C1677 1.363 . S
C1680 N1678 1.356 . S
C1681 C1675 1.363 . S
C1681 C1676 1.379 . S
C1681 N1679 1.356 . S
N1682 C1674 1.356 . S
N1682 H1688 0.984 . S
N1682 H1689 0.984 . S
N1683 C1676 1.356 . S
N1683 H1686 0.984 . S
N1683 H1687 0.985 . S
H1684 N1679 0.984 . S
H1685 N1679 0.985 . S
H1686 N1683 0.984 . S
H1687 N1683 0.985 . S
H1688 N1682 0.984 . S
H1689 N1682 0.984 . S
H1690 N1678 0.984 . S
H1691 N1678 0.985 . S
C721 C529 2.485 . S
C723 C9 2.497 . S
C739 C48 2.096 . S
C741 C568 2.093 . S
C757 C89 2.294 . S
C759 C488 2.316 . S
C775 C88 1.968 . S
C777 C288 1.962 . S
C793 C328 2.234 . S
C795 C8 2.221 . S
C811 C49 2.365 . S
C813 C248 2.395 . S
C829 C139 2.295 . S
C831 C418 2.309 . S
C847 C178 1.854 . S
C849 C458 1.856 . S
C865 C378 2.054 . S
C867 C219 2.028 . S
C883 C658 2.096 . S
C885 C218 2.111 . S
C901 C138 2.319 . S
C903 C699 2.299 . S
C919 C619 2.509 . S
C921 C179 2.482 . S
C937 C329 2.191 . S
C939 C528 2.224 . S
C955 C249 2.390 . S
C957 C569 2.383 . S
C973 C289 2.614 . S
C975 C489 2.636 . S
C991 C379 2.730 . S
C993 C659 2.720 . S
C1009 C698 2.337 . S
C1011 C419 2.323 . S
C1027 C618 2.578 . S
C1029 C459 2.553 . S
C1045 C18 1.449 . S
C1047 C168 1.449 . S
C1063 C209 1.870 . S
C1065 C59 1.873 . S
C1081 C129 1.689 . S
C1083 C98 1.526 . S
C1099 C169 1.889 . S
C1101 C99 1.931 . S
C1117 C208 1.663 . S
C1119 C19 1.736 . S
C1135 C128 1.532 . S
C1137 C58 1.581 . S
C1153 C409 1.926 . S
C1155 C259 1.915 . S
C1171 C449 2.000 . S
C1173 C299 1.991 . S
C1189 C369 2.010 . S
C1191 C339 1.917 . S
C1207 C408 1.515 . S
C1209 C338 1.516 . S
C1225 C448 1.441 . S
C1227 C258 1.558 . S
C1243 C368 1.457 . S
C1245 C298 1.467 . S
C1261 C648 1.558 . S
C1263 C498 1.509 . S
C1279 C689 1.906 . S
C1281 C539 1.865 . S
C1297 C578 1.640 . S
C1299 C609 1.711 . S
C1315 C579 2.015 . S
C1317 C649 2.019 . S
C1333 C499 1.808 . S
C1335 C688 1.644 . S
C1351 C608 1.535 . S
C1353 C538 1.534 . S
C1369 C5 1.297 . S
C1371 C15 1.297 . S
C1387 C55 1.424 . S
C1389 C45 1.424 . S
C1405 C85 1.339 . S
C1407 C95 1.339 . S
C1423 C135 1.382 . S
C1425 C125 1.390 . S
C1441 C175 1.304 . S
C1443 C165 1.304 . S
C1459 C205 1.492 . S
C1461 C215 1.492 . S
C1477 C245 1.603 . S
C1479 C255 1.603 . S
C1495 C295 1.274 . S
C1497 C285 1.274 . S
C1513 C325 1.639 . S
C1515 C335 1.639 . S
C1531 C375 1.251 . S
C1533 C365 1.251 . S
C1549 C415 1.570 . S
C1551 C405 1.570 . S
C1567 C455 1.309 . S
C1569 C445 1.309 . S
C1585 C495 1.269 . S
C1587 C485 1.269 . S
C1603 C535 1.400 . S
C1605 C525 1.400 . S
C1621 C565 1.330 . S
C1623 C575 1.330 . S
C1639 C605 1.424 . S
C1641 C615 1.424 . S
C1657 C655 1.283 . S
C1659 C645 1.283 . S
C1675 C695 1.408 . S
C1677 C685 1.408 . S
