# Generated by pormake.
# Topology uoq, (4)-cn, num edge types: 1
# Building blocks:
#     Node 0, Type 0, BuildingBlock: GALJAG_clean_sbu_0, # of connection points: 4
#     Node 1, Type 0, BuildingBlock: GALJAG_clean_sbu_0, # of connection points: 4
#     Node 2, Type 0, BuildingBlock: GALJAG_clean_sbu_0, # of connection points: 4
#     Node 3, Type 0, BuildingBlock: GALJAG_clean_sbu_0, # of connection points: 4
#     Node 4, Type 0, BuildingBlock: GALJAG_clean_sbu_0, # of connection points: 4
#     Node 5, Type 0, BuildingBlock: GALJAG_clean_sbu_0, # of connection points: 4
#     Node 6, Type 0, BuildingBlock: GALJAG_clean_sbu_0, # of connection points: 4
#     Node 7, Type 0, BuildingBlock: GALJAG_clean_sbu_0, # of connection points: 4
#     Node 8, Type 0, BuildingBlock: GALJAG_clean_sbu_0, # of connection points: 4
#     Node 9, Type 0, BuildingBlock: GALJAG_clean_sbu_0, # of connection points: 4
#     Node 10, Type 0, BuildingBlock: GALJAG_clean_sbu_0, # of connection points: 4
#     Node 11, Type 0, BuildingBlock: GALJAG_clean_sbu_0, # of connection points: 4
#     Edge 12, Type (0, 0), BuildingBlock: EZIPEK_clean_linker_0, # of connection points: 2
#     Edge 13, Type (0, 0), BuildingBlock: EZIPEK_clean_linker_0, # of connection points: 2
#     Edge 14, Type (0, 0), BuildingBlock: EZIPEK_clean_linker_0, # of connection points: 2
#     Edge 15, Type (0, 0), BuildingBlock: EZIPEK_clean_linker_0, # of connection points: 2
#     Edge 16, Type (0, 0), BuildingBlock: EZIPEK_clean_linker_0, # of connection points: 2
#     Edge 17, Type (0, 0), BuildingBlock: EZIPEK_clean_linker_0, # of connection points: 2
#     Edge 18, Type (0, 0), BuildingBlock: EZIPEK_clean_linker_0, # of connection points: 2
#     Edge 19, Type (0, 0), BuildingBlock: EZIPEK_clean_linker_0, # of connection points: 2
#     Edge 20, Type (0, 0), BuildingBlock: EZIPEK_clean_linker_0, # of connection points: 2
#     Edge 21, Type (0, 0), BuildingBlock: EZIPEK_clean_linker_0, # of connection points: 2
#     Edge 22, Type (0, 0), BuildingBlock: EZIPEK_clean_linker_0, # of connection points: 2
#     Edge 23, Type (0, 0), BuildingBlock: EZIPEK_clean_linker_0, # of connection points: 2
#     Edge 24, Type (0, 0), BuildingBlock: EZIPEK_clean_linker_0, # of connection points: 2
#     Edge 25, Type (0, 0), BuildingBlock: EZIPEK_clean_linker_0, # of connection points: 2
#     Edge 26, Type (0, 0), BuildingBlock: EZIPEK_clean_linker_0, # of connection points: 2
#     Edge 27, Type (0, 0), BuildingBlock: EZIPEK_clean_linker_0, # of connection points: 2
#     Edge 28, Type (0, 0), BuildingBlock: EZIPEK_clean_linker_0, # of connection points: 2
#     Edge 29, Type (0, 0), BuildingBlock: EZIPEK_clean_linker_0, # of connection points: 2
#     Edge 30, Type (0, 0), BuildingBlock: EZIPEK_clean_linker_0, # of connection points: 2
#     Edge 31, Type (0, 0), BuildingBlock: EZIPEK_clean_linker_0, # of connection points: 2
#     Edge 32, Type (0, 0), BuildingBlock: EZIPEK_clean_linker_0, # of connection points: 2
#     Edge 33, Type (0, 0), BuildingBlock: EZIPEK_clean_linker_0, # of connection points: 2
#     Edge 34, Type (0, 0), BuildingBlock: EZIPEK_clean_linker_0, # of connection points: 2
#     Edge 35, Type (0, 0), BuildingBlock: EZIPEK_clean_linker_0, # of connection points: 2
# Relax obj value: 0.135
# Max RMSD: 0.151
# Mean RMSD: 0.151
data_MOF--net-uoq--node1-GALJAG_clean_sbu_0--edge1-EZIPEK_clean_linker_0
_symmetry_space_group_name_H-M    P1
_symmetry_Int_Tables_number       1
_symmetry_cell_setting            triclinic
loop_
_symmetry_equiv_pos_as_xyz
'x, y, z'
_cell_length_a     45.859638
_cell_length_b     45.833277
_cell_length_c     14.863936
_cell_angle_alpha  89.984001
_cell_angle_beta   90.024607
_cell_angle_gamma 120.00038
loop_
_atom_site_label
_atom_site_type_symbol
_atom_site_fract_x
_atom_site_fract_y
_atom_site_fract_z
_atom_type_partial_charge
In0 In 0.31395 0.44731 0.25055 0.0
O1 O 0.26646 0.4125 0.3271 0.0
O2 O 0.29101 0.46535 0.35472 0.0
C3 C 0.33982 0.40666 0.27742 0.0
C4 C 0.27524 0.44305 0.10749 0.0
C5 C 0.3698 0.50648 0.28558 0.0
O6 O 0.31833 0.40726 0.3287 0.0
O7 O 0.34751 0.42553 0.20904 0.0
O8 O 0.36089 0.49596 0.20594 0.0
O9 O 0.35065 0.48723 0.34627 0.0
C10 C 0.26672 0.43626 0.37048 0.0
O11 O 0.29259 0.46982 0.15111 0.0
O12 O 0.27953 0.41891 0.13024 0.0
In13 In 0.86436 0.31622 0.57514 0.0
O14 O 0.85342 0.28751 0.70621 0.0
O15 O 0.81231 0.278 0.62 0.0
C16 C 0.93025 0.33835 0.59978 0.0
C17 C 0.83538 0.27589 0.43102 0.0
C18 C 0.86099 0.37173 0.61851 0.0
O19 O 0.90759 0.31539 0.64698 0.0
O20 O 0.91976 0.34859 0.53517 0.0
O21 O 0.87166 0.36862 0.5428 0.0
O22 O 0.85108 0.34675 0.66973 0.0
C23 C 0.82206 0.27119 0.69217 0.0
O24 O 0.83111 0.30035 0.44987 0.0
O25 O 0.85757 0.27434 0.47779 0.0
In26 In 0.54777 0.8653 0.91951 0.0
O27 O 0.58195 0.85304 0.00115 0.0
O28 O 0.52859 0.82119 0.01354 0.0
C29 C 0.58934 0.93115 0.95241 0.0
C30 C 0.55249 0.831 0.77702 0.0
C31 C 0.48971 0.86459 0.95075 0.0
O32 O 0.58129 0.90866 0.01126 0.0
O33 O 0.57746 0.92059 0.87468 0.0
O34 O 0.50375 0.8723 0.87433 0.0
O35 O 0.50448 0.85684 0.00935 0.0
C36 C 0.5576 0.82725 0.03598 0.0
O37 O 0.52489 0.82346 0.81402 0.0
O38 O 0.57733 0.858 0.80509 0.0
In39 In 0.68874 0.55493 0.26617 0.0
O40 O 0.72975 0.58731 0.36523 0.0
O41 O 0.71353 0.5347 0.35711 0.0
C42 C 0.66266 0.59599 0.28069 0.0
C43 C 0.73157 0.56123 0.13205 0.0
C44 C 0.63264 0.49547 0.29808 0.0
O45 O 0.67233 0.58594 0.34679 0.0
O46 O 0.66707 0.58633 0.20477 0.0
O47 O 0.6402 0.50791 0.21973 0.0
O48 O 0.65331 0.51279 0.3586 0.0
C49 C 0.73297 0.56296 0.39211 0.0
O50 O 0.70431 0.53418 0.14625 0.0
O51 O 0.7357 0.58576 0.17964 0.0
In52 In 0.13467 0.68106 0.56977 0.0
O53 O 0.16533 0.70025 0.43981 0.0
O54 O 0.14252 0.72742 0.49006 0.0
C55 C 0.13725 0.62401 0.59363 0.0
C56 C 0.17836 0.72114 0.69306 0.0
C57 C 0.06885 0.65897 0.59765 0.0
O58 O 0.13245 0.63278 0.51688 0.0
O59 O 0.14122 0.64408 0.6564 0.0
O60 O 0.09188 0.68264 0.64209 0.0
O61 O 0.07884 0.64776 0.53421 0.0
C62 C 0.16236 0.7261 0.43362 0.0
O63 O 0.14697 0.7062 0.70574 0.0
O64 O 0.18773 0.7147 0.61967 0.0
In65 In 0.44705 0.13439 0.92087 0.0
O66 O 0.42913 0.14635 0.04928 0.0
O67 O 0.47265 0.18591 0.98505 0.0
C68 C 0.40259 0.06813 0.94252 0.0
C69 C 0.43217 0.16634 0.79014 0.0
C70 C 0.50602 0.13517 0.94125 0.0
O71 O 0.40726 0.09007 0.00026 0.0
O72 O 0.41906 0.07958 0.87035 0.0
O73 O 0.49326 0.13317 0.86454 0.0
O74 O 0.48928 0.1369 0.00594 0.0
C75 C 0.45171 0.17699 0.04871 0.0
O76 O 0.45886 0.16479 0.78986 0.0
O77 O 0.41159 0.14932 0.85123 0.0
In78 In 0.54851 0.68815 0.40923 0.0
O79 O 0.58236 0.72899 0.31155 0.0
O80 O 0.5302 0.7146 0.31799 0.0
C81 C 0.58965 0.66306 0.38001 0.0
C82 C 0.55353 0.7288 0.54808 0.0
C83 C 0.48943 0.63156 0.38047 0.0
O84 O 0.57524 0.66981 0.31824 0.0
O85 O 0.58386 0.66924 0.45895 0.0
O86 O 0.507 0.63517 0.44969 0.0
O87 O 0.50088 0.65667 0.32881 0.0
C88 C 0.55883 0.73341 0.28404 0.0
O89 O 0.52722 0.70091 0.53369 0.0
O90 O 0.57812 0.73444 0.4988 0.0
In91 In 0.86535 0.55301 0.75882 0.0
O92 O 0.85194 0.58572 0.67471 0.0
O93 O 0.82069 0.5322 0.66581 0.0
C94 C 0.93149 0.5934 0.72652 0.0
C95 C 0.83325 0.55999 0.90313 0.0
C96 C 0.86284 0.49406 0.72582 0.0
O97 O 0.90885 0.59138 0.67473 0.0
O98 O 0.92101 0.57634 0.79827 0.0
O99 O 0.8641 0.50467 0.80517 0.0
O100 O 0.86274 0.51305 0.66462 0.0
C101 C 0.82628 0.56086 0.64128 0.0
O102 O 0.82413 0.53212 0.86561 0.0
O103 O 0.86065 0.58407 0.87419 0.0
In104 In 0.30799 0.86197 0.07109 0.0
O105 O 0.28998 0.83017 0.20035 0.0
O106 O 0.25896 0.84802 0.14691 0.0
C107 C 0.36635 0.86255 0.04342 0.0
C108 C 0.27105 0.81964 0.9418 0.0
C109 C 0.33024 0.92832 0.0515 0.0
O110 O 0.3568 0.86495 0.12156 0.0
O111 O 0.34657 0.85966 0.98086 0.0
O112 O 0.30745 0.90615 0.00302 0.0
O113 O 0.34054 0.91712 0.11415 0.0
C114 C 0.2624 0.82989 0.20476 0.0
O115 O 0.27766 0.84987 0.94322 0.0
O116 O 0.28407 0.81114 0.00387 0.0
In117 In 0.45264 0.31468 0.42233 0.0
O118 O 0.46433 0.29584 0.55298 0.0
O119 O 0.4149 0.2673 0.49953 0.0
C120 C 0.51191 0.37153 0.39327 0.0
C121 C 0.45434 0.27341 0.30022 0.0
C122 C 0.41036 0.33872 0.3965 0.0
O123 O 0.49759 0.36513 0.46916 0.0
O124 O 0.49705 0.34921 0.33453 0.0
O125 O 0.41425 0.32049 0.34004 0.0
O126 O 0.42612 0.34319 0.4697 0.0
C127 C 0.43591 0.26934 0.55758 0.0
O128 O 0.43471 0.28517 0.29339 0.0
O129 O 0.47361 0.28316 0.36778 0.0
In130 In 0.1354 0.44451 0.7385 0.0
O131 O 0.17386 0.46888 0.85292 0.0
O132 O 0.14982 0.41584 0.8387 0.0
C133 C 0.13775 0.50254 0.69476 0.0
C134 C 0.17096 0.43356 0.61729 0.0
C135 C 0.06853 0.40388 0.71847 0.0
O136 O 0.13009 0.49037 0.77334 0.0
O137 O 0.14493 0.48608 0.64014 0.0
O138 O 0.08955 0.40837 0.65813 0.0
O139 O 0.08107 0.4186 0.79225 0.0
C140 C 0.17233 0.4418 0.87755 0.0
O141 O 0.1457 0.40947 0.65478 0.0
O142 O 0.17773 0.46284 0.63949 0.0
In143 In 0.68683 0.13745 0.07325 0.0
O144 O 0.70441 0.1741 0.19285 0.0
O145 O 0.73401 0.15204 0.15842 0.0
C146 C 0.62931 0.13755 0.03683 0.0
C147 C 0.72803 0.17573 0.94417 0.0
C148 C 0.66229 0.07065 0.05992 0.0
O149 O 0.63584 0.13161 0.11516 0.0
O150 O 0.65175 0.144 0.97915 0.0
O151 O 0.67831 0.09104 -0.00226 0.0
O152 O 0.66016 0.08393 0.1324 0.0
C153 C 0.73112 0.17319 0.20614 0.0
O154 O 0.72249 0.14618 0.95797 0.0
O155 O 0.7121 0.18524 0.99394 0.0
C156 C 0.39086 0.40851 0.34302 0.0
C157 C 0.35829 0.38936 0.30481 0.0
C158 C 0.35775 0.33703 0.34277 0.0
C159 C 0.39158 0.35621 0.37296 0.0
N160 N 0.44229 0.41037 0.3895 0.0
N161 N 0.31174 0.33596 0.25885 0.0
C162 C 0.40865 0.39201 0.37025 0.0
C163 C 0.34197 0.35373 0.30213 0.0
N164 N 0.40438 0.44239 0.35643 0.0
N165 N 0.34038 0.30294 0.35604 0.0
H166 H 0.29951 0.34752 0.22897 0.0
H167 H 0.30007 0.31021 0.24618 0.0
H168 H 0.35098 0.29006 0.3874 0.0
H169 H 0.31472 0.28781 0.34366 0.0
H170 H 0.42612 0.45695 0.39395 0.0
H171 H 0.3925 0.45564 0.33633 0.0
H172 H 0.45693 0.4361 0.37682 0.0
H173 H 0.45644 0.39974 0.41167 0.0
C174 C 0.98169 0.38932 0.6588 0.0
C175 C 0.966 0.35542 0.62812 0.0
C176 C 0.01542 0.35175 0.67466 0.0
C177 C 0.03211 0.38638 0.69797 0.0
N178 N 0.0331 0.43953 0.70304 0.0
N179 N 0.96868 0.30527 0.59686 0.0
C180 C 0.01572 0.40551 0.68814 0.0
C181 C 0.98303 0.3368 0.63373 0.0
N182 N 0.96371 0.40574 0.66332 0.0
N183 N 0.03035 0.33306 0.69386 0.0
H184 H 0.94514 0.29379 0.56566 0.0
H185 H 0.98104 0.29155 0.59043 0.0
H186 H 0.05394 0.34334 0.72448 0.0
H187 H 0.01838 0.30701 0.68681 0.0
H188 H 0.9722 0.42862 0.69636 0.0
H189 H 0.93915 0.39554 0.63976 0.0
H190 H 0.02417 0.45559 0.6848 0.0
H191 H 0.05758 0.45235 0.72814 0.0
C192 C 0.64306 0.98187 0.00225 0.0
C193 C 0.60874 0.96727 0.9766 0.0
C194 C 0.60837 0.01826 0.02453 0.0
C195 C 0.64341 0.03399 0.04238 0.0
N196 N 0.6952 0.03259 0.04163 0.0
N197 N 0.55968 0.97271 0.95112 0.0
C198 C 0.66108 0.01627 0.02942 0.0
C199 C 0.59168 0.98583 0.98407 0.0
N200 N 0.6583 0.96274 0.0012 0.0
N201 N 0.59089 0.03415 0.04728 0.0
H202 H 0.54617 0.94875 0.92289 0.0
H203 H 0.54734 0.98647 0.94506 0.0
H204 H 0.60217 0.05816 0.07546 0.0
H205 H 0.56475 0.02258 0.04528 0.0
H206 H 0.68191 0.97051 0.0289 0.0
H207 H 0.64653 0.93814 0.97653 0.0
H208 H 0.71028 0.02256 0.02319 0.0
H209 H 0.70882 0.05713 0.06649 0.0
C210 C 0.66264 0.64707 0.34114 0.0
C211 C 0.64553 0.61578 0.29472 0.0
C212 C 0.59179 0.61368 0.31932 0.0
C213 C 0.60902 0.64605 0.35932 0.0
N214 N 0.66102 0.69593 0.39824 0.0
N215 N 0.59491 0.57302 0.22236 0.0
C216 C 0.64455 0.66344 0.36777 0.0
C217 C 0.61047 0.60035 0.27792 0.0
N218 N 0.69618 0.66102 0.35994 0.0
N219 N 0.55748 0.59495 0.32499 0.0
H220 H 0.60767 0.56264 0.18977 0.0
H221 H 0.57004 0.56277 0.20117 0.0
H222 H 0.54317 0.60333 0.35918 0.0
H223 H 0.54358 0.56987 0.30487 0.0
H224 H 0.70923 0.68145 0.40299 0.0
H225 H 0.7108 0.65122 0.33506 0.0
H226 H 0.68708 0.71135 0.39665 0.0
H227 H 0.64843 0.70831 0.4201 0.0
C228 C 0.98409 0.64558 0.67731 0.0
C229 C 0.96718 0.61065 0.6977 0.0
C230 C 0.01766 0.60814 0.65779 0.0
C231 C 0.0334 0.64214 0.62835 0.0
N232 N 0.03037 0.69226 0.59892 0.0
N233 N 0.96514 0.55706 0.6869 0.0
C234 C 0.01629 0.66067 0.63518 0.0
C235 C 0.98319 0.59145 0.68242 0.0
N236 N 0.96976 0.66446 0.70051 0.0
N237 N 0.03595 0.59216 0.6665 0.0
H238 H 0.9395 0.54363 0.7015 0.0
H239 H 0.97478 0.54175 0.66696 0.0
H240 H 0.06162 0.60374 0.65256 0.0
H241 H 0.02646 0.56859 0.69656 0.0
H242 H 0.9822 0.69061 0.69576 0.0
H243 H 0.94633 0.65419 0.73199 0.0
H244 H 0.01775 0.70577 0.59348 0.0
H245 H 0.05378 0.70389 0.56707 0.0
C246 C 0.38074 0.97755 0.98436 0.0
C247 C 0.34838 0.96409 0.0238 0.0
C248 C 0.3493 0.01724 0.9949 0.0
C249 C 0.38313 0.03174 0.96473 0.0
N250 N 0.43353 0.02769 0.95138 0.0
N251 N 0.30287 0.97156 0.07596 0.0
C252 C 0.39953 0.01243 0.96463 0.0
C253 C 0.33285 0.98405 0.03156 0.0
N254 N 0.39321 0.95686 0.96297 0.0
N255 N 0.33263 0.03484 0.98603 0.0
H256 H 0.29015 0.94725 0.10269 0.0
H257 H 0.2919 0.986 0.09243 0.0
H258 H 0.34379 0.05894 0.95816 0.0
H259 H 0.30704 0.02458 -0.00113 0.0
H260 H 0.41504 0.96478 0.92519 0.0
H261 H 0.38016 0.93101 0.97515 0.0
H262 H 0.44723 0.01536 0.96 0.0
H263 H 0.44869 0.05351 0.94149 0.0
C264 C 0.23278 0.45821 0.90693 0.0
C265 C 0.19847 0.441 0.93549 0.0
C266 C 0.21423 0.42181 0.07207 0.0
C267 C 0.2485 0.43938 0.04409 0.0
N268 N 0.29023 0.46991 0.93118 0.0
N269 N 0.15558 0.4029 0.038 0.0
C270 C 0.25772 0.45648 0.9605 0.0
C271 C 0.18893 0.42158 0.01571 0.0
N272 N 0.24143 0.47589 0.82785 0.0
N273 N 0.2061 0.40664 0.1547 0.0
H274 H 0.13659 0.40418 0.00274 0.0
H275 H 0.14628 0.38486 0.08874 0.0
H276 H 0.22345 0.4049 0.19623 0.0
H277 H 0.18266 0.39729 0.18503 0.0
H278 H 0.26606 0.49238 0.80798 0.0
H279 H 0.22389 0.47484 0.78155 0.0
H280 H 0.29867 0.4803 0.86779 0.0
H281 H 0.3088 0.46863 0.96868 0.0
C282 C 0.8063 0.25676 0.28206 0.0
C283 C 0.81196 0.24839 0.36954 0.0
C284 C 0.76799 0.18929 0.34399 0.0
C285 C 0.75936 0.19877 0.26189 0.0
N286 N 0.76882 0.24222 0.15436 0.0
N287 N 0.79459 0.20721 0.48967 0.0
C288 C 0.77811 0.23272 0.23141 0.0
C289 C 0.79217 0.21469 0.40187 0.0
N290 N 0.82867 0.28743 0.24616 0.0
N291 N 0.75292 0.15602 0.36718 0.0
H292 H 0.81143 0.22458 0.53559 0.0
H293 H 0.77785 0.18429 0.5196 0.0
H294 H 0.73398 0.13689 0.32873 0.0
H295 H 0.76099 0.14715 0.42072 0.0
H296 H 0.82811 0.29395 0.17935 0.0
H297 H 0.84996 0.30527 0.28084 0.0
H298 H 0.77869 0.26721 0.13469 0.0
H299 H 0.74957 0.22531 0.11264 0.0
C300 C 0.57583 0.79299 0.73762 0.0
C301 C 0.55565 0.80745 0.71396 0.0
C302 C 0.53329 0.76945 0.58377 0.0
C303 C 0.55399 0.75548 0.60633 0.0
N304 N 0.59884 0.75737 0.69528 0.0
N305 N 0.52039 0.81435 0.60645 0.0
C306 C 0.5766 0.76849 0.68006 0.0
C307 C 0.53572 0.79691 0.6349 0.0
N308 N 0.59276 0.80112 0.81778 0.0
N309 N 0.51143 0.75669 0.51281 0.0
H310 H 0.52231 0.835 0.6413 0.0
H311 H 0.50833 0.81055 0.54469 0.0
H312 H 0.51101 0.73908 0.4678 0.0
H313 H 0.49249 0.76238 0.50036 0.0
H314 H 0.60414 0.78827 0.84449 0.0
H315 H 0.59339 0.81901 0.86201 0.0
H316 H 0.61894 0.76889 0.74 0.0
H317 H 0.59854 0.73772 0.65914 0.0
C318 C 0.77082 0.58413 -0.00086 0.0
C319 C 0.75909 0.56272 0.0755 0.0
C320 C 0.80172 0.54591 0.04897 0.0
C321 C 0.8108 0.56432 0.96734 0.0
N322 N 0.80252 0.59906 0.85978 0.0
N323 N 0.7632 0.52323 0.17514 0.0
C324 C 0.79532 0.58334 0.94166 0.0
C325 C 0.77451 0.54359 0.10094 0.0
N326 N 0.75845 0.60518 0.98131 0.0
N327 N 0.82014 0.53175 0.07829 0.0
H328 H 0.74569 0.52305 0.22004 0.0
H329 H 0.77005 0.50535 0.19084 0.0
H330 H 0.8405 0.53354 0.04227 0.0
H331 H 0.81737 0.52076 0.14126 0.0
H332 H 0.76884 0.62443 0.9338 0.0
H333 H 0.73893 0.60489 0.01801 0.0
H334 H 0.78896 0.60944 0.83168 0.0
H335 H 0.82062 0.5998 0.81612 0.0
C336 C 0.18273 0.75004 0.27964 0.0
C337 C 0.18459 0.75485 0.374 0.0
C338 C 0.23333 0.81197 0.35459 0.0
C339 C 0.23403 0.80538 0.26188 0.0
N340 N 0.2103 0.76799 0.13476 0.0
N341 N 0.21286 0.78959 0.50349 0.0
C342 C 0.20875 0.77448 0.22383 0.0
C343 C 0.20993 0.7858 0.4121 0.0
N344 N 0.15552 0.72241 0.24338 0.0
N345 N 0.25473 0.8435 0.38726 0.0
H346 H 0.19592 0.77177 0.5484 0.0
H347 H 0.23329 0.80953 0.53554 0.0
H348 H 0.27234 0.86298 0.34683 0.0
H349 H 0.25321 0.85125 0.45205 0.0
H350 H 0.15066 0.71884 0.17467 0.0
H351 H 0.13601 0.70425 0.28264 0.0
H352 H 0.19549 0.74451 0.10508 0.0
H353 H 0.2278 0.78575 0.09077 0.0
C354 C 0.42332 0.18446 0.63805 0.0
C355 C 0.42788 0.19034 0.73181 0.0
C356 C 0.42987 0.24469 0.71201 0.0
C357 C 0.42969 0.24074 0.61752 0.0
N358 N 0.42808 0.20768 0.48885 0.0
N359 N 0.43715 0.22661 0.85941 0.0
C360 C 0.42646 0.21064 0.57998 0.0
C361 C 0.43119 0.22045 0.76936 0.0
N362 N 0.41525 0.15349 0.60486 0.0
N363 N 0.42796 0.27131 0.74679 0.0
H364 H 0.43708 0.20917 0.90428 0.0
H365 H 0.44411 0.24973 0.88927 0.0
H366 H 0.42692 0.28939 0.70638 0.0
H367 H 0.42443 0.27397 0.81481 0.0
H368 H 0.40801 0.14614 0.53855 0.0
H369 H 0.41289 0.13392 0.64582 0.0
H370 H 0.4304 0.18858 0.45787 0.0
H371 H 0.42914 0.22547 0.44352 0.0
C372 C 0.21305 0.41648 0.57832 0.0
C373 C 0.19127 0.42836 0.55063 0.0
C374 C 0.21747 0.44316 0.40267 0.0
C375 C 0.23911 0.43099 0.42979 0.0
N376 N 0.254 0.40039 0.53479 0.0
N377 N 0.1666 0.44517 0.43309 0.0
C378 C 0.23556 0.41551 0.5147 0.0
C379 C 0.19156 0.43925 0.46152 0.0
N380 N 0.21363 0.40812 0.66643 0.0
N381 N 0.22222 0.45917 0.32174 0.0
H382 H 0.147 0.44215 0.47491 0.0
H383 H 0.16346 0.45 0.36641 0.0
H384 H 0.23998 0.46126 0.27458 0.0
H385 H 0.2099 0.47212 0.30309 0.0
H386 H 0.23179 0.40333 0.6932 0.0
H387 H 0.19715 0.40807 0.71483 0.0
H388 H 0.24994 0.38563 0.59178 0.0
H389 H 0.27192 0.40056 0.49126 0.0
C390 C 0.76758 0.24564 0.77486 0.0
C391 C 0.79814 0.24623 0.75584 0.0
C392 C 0.78392 0.20162 0.86568 0.0
C393 C 0.75152 0.1981 0.8753 0.0
N394 N 0.70953 0.21048 0.81755 0.0
N395 N 0.83096 0.21821 0.76534 0.0
C396 C 0.74236 0.21816 0.82326 0.0
C397 C 0.8051 0.22228 0.79584 0.0
N398 N 0.76307 0.27193 0.75099 0.0
N399 N 0.79536 0.18694 0.92541 0.0
H400 H 0.84603 0.2315 0.71074 0.0
H401 H 0.83486 0.19887 0.78776 0.0
H402 H 0.78165 0.17321 0.98125 0.0
H403 H 0.82008 0.19167 0.92497 0.0
H404 H 0.74211 0.27352 0.77085 0.0
H405 H 0.78185 0.29394 0.7212 0.0
H406 H 0.70158 0.22301 0.77419 0.0
H407 H 0.68982 0.18912 0.84737 0.0
C408 C 0.54925 0.77048 0.06759 0.0
C409 C 0.56234 0.80441 0.09503 0.0
C410 C 0.58073 0.79291 0.23828 0.0
C411 C 0.56381 0.75827 0.21526 0.0
N412 N 0.53191 0.71309 0.11074 0.0
N413 N 0.58831 0.84818 0.207 0.0
C414 C 0.54825 0.74678 0.13034 0.0
C415 C 0.57805 0.81593 0.17992 0.0
N416 N 0.53852 0.76119 0.98091 0.0
N417 N 0.59882 0.80362 0.31645 0.0
H418 H 0.58662 0.86581 0.16631 0.0
H419 H 0.59631 0.857 0.272 0.0
H420 H 0.60007 0.78726 0.36297 0.0
H421 H 0.61463 0.82887 0.33251 0.0
H422 H 0.53223 0.73785 0.95373 0.0
H423 H 0.53831 0.77776 0.9332 0.0
H424 H 0.51625 0.70248 0.05525 0.0
H425 H 0.53283 0.69524 0.15242 0.0
C426 C 0.79211 0.58218 0.43558 0.0
C427 C 0.75768 0.56681 0.45998 0.0
C428 C 0.76976 0.55291 0.6087 0.0
C429 C 0.80339 0.56481 0.58065 0.0
N430 N 0.84663 0.58794 0.46673 0.0
N431 N 0.7126 0.5365 0.56599 0.0
C432 C 0.8148 0.57916 0.49434 0.0
C433 C 0.74618 0.552 0.54571 0.0
N434 N 0.80292 0.5992 0.35585 0.0
N435 N 0.7607 0.5434 0.69621 0.0
H436 H 0.69485 0.53738 0.52388 0.0
H437 H 0.70195 0.52141 0.62245 0.0
H438 H 0.77723 0.54332 0.74424 0.0
H439 H 0.73766 0.53808 0.72348 0.0
H440 H 0.82819 0.614 0.33851 0.0
H441 H 0.78674 0.60058 0.30897 0.0
H442 H 0.85522 0.59488 0.40111 0.0
H443 H 0.86399 0.58596 0.50782 0.0
C444 C 0.23225 0.74648 0.78 0.0
C445 C 0.20228 0.74642 0.75619 0.0
C446 C 0.21603 0.79232 0.86111 0.0
C447 C 0.2479 0.79523 0.87595 0.0
N448 N 0.28949 0.78025 0.83251 0.0
N449 N 0.1708 0.77598 0.75499 0.0
C450 C 0.25702 0.77381 0.83045 0.0
C451 C 0.19556 0.77126 0.7911 0.0
N452 N 0.23654 0.71993 0.75801 0.0
N453 N 0.20447 0.80829 0.91593 0.0
H454 H 0.15651 0.76271 0.69928 0.0
H455 H 0.16726 0.79592 0.77369 0.0
H456 H 0.21781 0.82272 0.97136 0.0
H457 H 0.17994 0.80402 0.91221 0.0
H458 H 0.25672 0.71758 0.78125 0.0
H459 H 0.21818 0.69853 0.72507 0.0
H460 H 0.29792 0.767 0.7937 0.0
H461 H 0.30877 0.8012 0.86489 0.0
C462 C 0.48322 0.22507 0.15457 0.0
C463 C 0.45236 0.20121 0.11445 0.0
C464 C 0.42246 0.22164 0.20676 0.0
C465 C 0.45376 0.24876 0.23605 0.0
N466 N 0.51443 0.28049 0.22016 0.0
N467 N 0.39371 0.1831 0.08524 0.0
C468 C 0.48439 0.25177 0.20504 0.0
C469 C 0.4222 0.20121 0.13546 0.0
N470 N 0.51102 0.22157 0.14783 0.0
N471 N 0.39311 0.21425 0.24919 0.0
H472 H 0.39273 0.16935 0.02837 0.0
H473 H 0.37218 0.18503 0.09398 0.0
H474 H 0.39216 0.22704 0.30606 0.0
H475 H 0.37021 0.19277 0.23432 0.0
H476 H 0.53329 0.23687 0.18265 0.0
H477 H 0.51053 0.20102 0.11631 0.0
H478 H 0.53698 0.28471 0.19162 0.0
H479 H 0.51636 0.3016 0.2523 0.0
C480 C 0.39814 0.56136 0.36979 0.0
C481 C 0.40038 0.53899 0.30754 0.0
C482 C 0.46044 0.57921 0.28693 0.0
C483 C 0.45892 0.59947 0.35697 0.0
N484 N 0.42747 0.60803 0.47351 0.0
N485 N 0.43532 0.52355 0.22133 0.0
C486 C 0.42814 0.58986 0.40145 0.0
C487 C 0.43195 0.54709 0.26964 0.0
N488 N 0.36733 0.55651 0.39477 0.0
N489 N 0.48894 0.59069 0.23609 0.0
H490 H 0.41547 0.49928 0.20933 0.0
H491 H 0.45854 0.52693 0.20092 0.0
H492 H 0.5107 0.61376 0.24741 0.0
H493 H 0.49007 0.57857 0.17802 0.0
H494 H 0.36417 0.57376 0.43303 0.0
H495 H 0.34473 0.53706 0.36937 0.0
H496 H 0.40649 0.60007 0.51481 0.0
H497 H 0.44869 0.62986 0.49622 0.0
C498 C 0.88458 0.45345 0.74164 0.0
C499 C 0.861 0.46154 0.70429 0.0
C500 C 0.8391 0.41195 0.60578 0.0
C501 C 0.86107 0.40268 0.64749 0.0
N502 N 0.89982 0.41072 0.7682 0.0
N503 N 0.81025 0.44389 0.61801 0.0
C504 C 0.88216 0.42213 0.71978 0.0
C505 C 0.83673 0.43955 0.64087 0.0
N506 N 0.9105 0.47632 0.79397 0.0
N507 N 0.8202 0.39424 0.53323 0.0
H508 H 0.80648 0.46257 0.64621 0.0
H509 H 0.79002 0.42681 0.57895 0.0
H510 H 0.81956 0.37259 0.50887 0.0
H511 H 0.80685 0.40229 0.4935 0.0
H512 H 0.93078 0.47345 0.81316 0.0
H513 H 0.91358 0.49964 0.81195 0.0
H514 H 0.91231 0.42187 0.82797 0.0
H515 H 0.89995 0.3886 0.75315 0.0
C516 C 0.42709 0.83829 0.94137 0.0
C517 C 0.45839 0.8649 0.97217 0.0
C518 C 0.42956 0.89064 0.0495 0.0
C519 C 0.39811 0.8626 0.02471 0.0
N520 N 0.36672 0.80636 0.96424 0.0
N521 N 0.48966 0.91361 0.06713 0.0
C522 C 0.3968 0.83552 0.97501 0.0
C523 C 0.45969 0.8902 0.02998 0.0
N524 N 0.42627 0.81557 0.88036 0.0
N525 N 0.43083 0.91839 0.08774 0.0
H526 H 0.51249 0.91491 0.05228 0.0
H527 H 0.4916 0.93024 0.11762 0.0
H528 H 0.40942 0.91977 0.10369 0.0
H529 H 0.45311 0.94113 0.09701 0.0
H530 H 0.40438 0.79791 0.84782 0.0
H531 H 0.44789 0.81595 0.85696 0.0
H532 H 0.36446 0.78453 0.93604 0.0
H533 H 0.34429 0.80277 0.99215 0.0
C534 C 0.56964 0.45817 0.29388 0.0
C535 C 0.60166 0.46323 0.3194 0.0
C536 C 0.57433 0.41007 0.40408 0.0
C537 C 0.54265 0.40364 0.3713 0.0
N538 N 0.51036 0.41864 0.27229 0.0
N539 N 0.63487 0.44098 0.3839 0.0
C540 C 0.54039 0.42673 0.31199 0.0
C541 C 0.60414 0.4384 0.37084 0.0
N542 N 0.56684 0.48401 0.25717 0.0
N543 N 0.57597 0.38901 0.46645 0.0
H544 H 0.65714 0.46053 0.35727 0.0
H545 H 0.63799 0.42207 0.41312 0.0
H546 H 0.55478 0.36721 0.48938 0.0
H547 H 0.59799 0.39443 0.50036 0.0
H548 H 0.54388 0.48298 0.24683 0.0
H549 H 0.58748 0.50777 0.24529 0.0
H550 H 0.50816 0.43277 0.22058 0.0
H551 H 0.48794 0.39648 0.28594 0.0
C552 C 0.16619 0.59506 0.65977 0.0
C553 C 0.13851 0.59278 0.61087 0.0
C554 C 0.1124 0.53125 0.60781 0.0
C555 C 0.1378 0.53353 0.66692 0.0
N556 N 0.18744 0.56723 0.75627 0.0
N557 N 0.08275 0.55842 0.54883 0.0
C558 C 0.1642 0.56535 0.69541 0.0
C559 C 0.11101 0.56081 0.58693 0.0
N560 N 0.19507 0.62552 0.6681 0.0
N561 N 0.08968 0.5009 0.57106 0.0
H562 H 0.08049 0.57928 0.53214 0.0
H563 H 0.06039 0.53567 0.54047 0.0
H564 H 0.08907 0.47842 0.58663 0.0
H565 H 0.07306 0.49836 0.51985 0.0
H566 H 0.21724 0.62847 0.69587 0.0
H567 H 0.19807 0.64743 0.63814 0.0
H568 H 0.20495 0.58958 0.78732 0.0
H569 H 0.18779 0.54607 0.78068 0.0
C570 C 0.57525 0.11202 0.94979 0.0
C571 C 0.59758 0.13659 0.01218 0.0
C572 C 0.56344 0.16396 0.00937 0.0
C573 C 0.53895 0.13713 0.95631 0.0
N574 N 0.52004 0.08411 0.88029 0.0
N575 N 0.61196 0.1845 0.10758 0.0
C576 C 0.54456 0.11089 0.92681 0.0
C577 C 0.59126 0.16202 0.04428 0.0
N578 N 0.58344 0.08985 0.91194 0.0
N579 N 0.56106 0.19226 0.02189 0.0
H580 H 0.6337 0.18519 0.13124 0.0
H581 H 0.60636 0.20102 0.14127 0.0
H582 H 0.54217 0.19537 0.99222 0.0
H583 H 0.57962 0.21404 0.05289 0.0
H584 H 0.57045 0.07424 0.85797 0.0
H585 H 0.60456 0.08835 0.93056 0.0
H586 H 0.52057 0.06201 0.86805 0.0
H587 H 0.498 0.08299 0.85797 0.0
loop_
_geom_bond_atom_site_label_1
_geom_bond_atom_site_label_2
_geom_bond_distance
_geom_bond_site_symmetry_2
_ccdc_geom_bond_type
In0 O1 2.294 . S
In0 O2 2.326 . S
In0 O6 2.266 . S
In0 O7 2.326 . S
In0 O8 2.266 . S
In0 O9 2.326 . S
In0 O11 2.294 . S
In0 O12 2.326 . S
O1 In0 2.294 . S
O1 C10 1.240 . S
O2 In0 2.326 . S
O2 C10 1.252 . S
C3 O6 1.252 . S
C3 O7 1.260 . S
C4 O11 1.240 . S
C4 O12 1.252 . S
C5 O8 1.252 . S
C5 O9 1.260 . S
O6 In0 2.266 . S
O6 C3 1.252 . S
O7 In0 2.326 . S
O7 C3 1.260 . S
O8 In0 2.266 . S
O8 C5 1.252 . S
O9 In0 2.326 . S
O9 C5 1.260 . S
C10 O1 1.240 . S
C10 O2 1.252 . S
O11 In0 2.294 . S
O11 C4 1.240 . S
O12 In0 2.326 . S
O12 C4 1.252 . S
In13 O14 2.294 . S
In13 O15 2.326 . S
In13 O19 2.266 . S
In13 O20 2.326 . S
In13 O21 2.266 . S
In13 O22 2.326 . S
In13 O24 2.294 . S
In13 O25 2.326 . S
O14 In13 2.294 . S
O14 C23 1.240 . S
O15 In13 2.326 . S
O15 C23 1.252 . S
C16 O19 1.252 . S
C16 O20 1.260 . S
C17 O24 1.240 . S
C17 O25 1.252 . S
C18 O21 1.252 . S
C18 O22 1.260 . S
O19 In13 2.266 . S
O19 C16 1.252 . S
O20 In13 2.326 . S
O20 C16 1.260 . S
O21 In13 2.266 . S
O21 C18 1.252 . S
O22 In13 2.326 . S
O22 C18 1.260 . S
C23 O14 1.240 . S
C23 O15 1.252 . S
O24 In13 2.294 . S
O24 C17 1.240 . S
O25 In13 2.326 . S
O25 C17 1.252 . S
In26 O27 2.294 1_556 S
In26 O28 2.326 . S
In26 O32 2.266 . S
In26 O33 2.326 . S
In26 O34 2.266 . S
In26 O35 2.326 1_556 S
In26 O37 2.294 . S
In26 O38 2.326 . S
O27 In26 2.294 1_554 S
O27 C36 1.240 . S
O28 In26 2.326 . S
O28 C36 1.252 1_556 S
C29 O32 1.252 . S
C29 O33 1.260 . S
C30 O37 1.240 . S
C30 O38 1.252 . S
C31 O34 1.252 . S
C31 O35 1.260 1_556 S
O32 In26 2.266 . S
O32 C29 1.252 . S
O33 In26 2.326 . S
O33 C29 1.260 . S
O34 In26 2.266 . S
O34 C31 1.252 . S
O35 In26 2.326 1_554 S
O35 C31 1.260 1_554 S
C36 O27 1.240 . S
C36 O28 1.252 1_554 S
O37 In26 2.294 . S
O37 C30 1.240 . S
O38 In26 2.326 . S
O38 C30 1.252 . S
In39 O40 2.294 . S
In39 O41 2.326 . S
In39 O45 2.266 . S
In39 O46 2.326 . S
In39 O47 2.266 . S
In39 O48 2.326 . S
In39 O50 2.294 . S
In39 O51 2.326 . S
O40 In39 2.294 . S
O40 C49 1.240 . S
O41 In39 2.326 . S
O41 C49 1.252 . S
C42 O45 1.252 . S
C42 O46 1.260 . S
C43 O50 1.240 . S
C43 O51 1.252 . S
C44 O47 1.252 . S
C44 O48 1.260 . S
O45 In39 2.266 . S
O45 C42 1.252 . S
O46 In39 2.326 . S
O46 C42 1.260 . S
O47 In39 2.266 . S
O47 C44 1.252 . S
O48 In39 2.326 . S
O48 C44 1.260 . S
C49 O40 1.240 . S
C49 O41 1.252 . S
O50 In39 2.294 . S
O50 C43 1.240 . S
O51 In39 2.326 . S
O51 C43 1.252 . S
In52 O53 2.294 . S
In52 O54 2.326 . S
In52 O58 2.266 . S
In52 O59 2.326 . S
In52 O60 2.266 . S
In52 O61 2.326 . S
In52 O63 2.294 . S
In52 O64 2.326 . S
O53 In52 2.294 . S
O53 C62 1.240 . S
O54 In52 2.326 . S
O54 C62 1.252 . S
C55 O58 1.252 . S
C55 O59 1.260 . S
C56 O63 1.240 . S
C56 O64 1.252 . S
C57 O60 1.252 . S
C57 O61 1.260 . S
O58 In52 2.266 . S
O58 C55 1.252 . S
O59 In52 2.326 . S
O59 C55 1.260 . S
O60 In52 2.266 . S
O60 C57 1.252 . S
O61 In52 2.326 . S
O61 C57 1.260 . S
C62 O53 1.240 . S
C62 O54 1.252 . S
O63 In52 2.294 . S
O63 C56 1.240 . S
O64 In52 2.326 . S
O64 C56 1.252 . S
In65 O66 2.294 1_556 S
In65 O67 2.326 . S
In65 O71 2.266 . S
In65 O72 2.326 . S
In65 O73 2.266 . S
In65 O74 2.326 1_556 S
In65 O76 2.294 . S
In65 O77 2.326 . S
O66 In65 2.294 1_554 S
O66 C75 1.240 . S
O67 In65 2.326 . S
O67 C75 1.252 1_556 S
C68 O71 1.252 . S
C68 O72 1.260 . S
C69 O76 1.240 . S
C69 O77 1.252 . S
C70 O73 1.252 . S
C70 O74 1.260 1_556 S
O71 In65 2.266 . S
O71 C68 1.252 . S
O72 In65 2.326 . S
O72 C68 1.260 . S
O73 In65 2.266 . S
O73 C70 1.252 . S
O74 In65 2.326 1_554 S
O74 C70 1.260 1_554 S
C75 O66 1.240 . S
C75 O67 1.252 1_554 S
O76 In65 2.294 . S
O76 C69 1.240 . S
O77 In65 2.326 . S
O77 C69 1.252 . S
In78 O79 2.294 . S
In78 O80 2.326 . S
In78 O84 2.266 . S
In78 O85 2.326 . S
In78 O86 2.266 . S
In78 O87 2.326 . S
In78 O89 2.294 . S
In78 O90 2.326 . S
O79 In78 2.294 . S
O79 C88 1.240 . S
O80 In78 2.326 . S
O80 C88 1.252 . S
C81 O84 1.252 . S
C81 O85 1.260 . S
C82 O89 1.240 . S
C82 O90 1.252 . S
C83 O86 1.252 . S
C83 O87 1.260 . S
O84 In78 2.266 . S
O84 C81 1.252 . S
O85 In78 2.326 . S
O85 C81 1.260 . S
O86 In78 2.266 . S
O86 C83 1.252 . S
O87 In78 2.326 . S
O87 C83 1.260 . S
C88 O79 1.240 . S
C88 O80 1.252 . S
O89 In78 2.294 . S
O89 C82 1.240 . S
O90 In78 2.326 . S
O90 C82 1.252 . S
In91 O92 2.294 . S
In91 O93 2.326 . S
In91 O97 2.266 . S
In91 O98 2.326 . S
In91 O99 2.266 . S
In91 O100 2.326 . S
In91 O102 2.294 . S
In91 O103 2.326 . S
O92 In91 2.294 . S
O92 C101 1.240 . S
O93 In91 2.326 . S
O93 C101 1.252 . S
C94 O97 1.252 . S
C94 O98 1.260 . S
C95 O102 1.240 . S
C95 O103 1.252 . S
C96 O99 1.252 . S
C96 O100 1.260 . S
O97 In91 2.266 . S
O97 C94 1.252 . S
O98 In91 2.326 . S
O98 C94 1.260 . S
O99 In91 2.266 . S
O99 C96 1.252 . S
O100 In91 2.326 . S
O100 C96 1.260 . S
C101 O92 1.240 . S
C101 O93 1.252 . S
O102 In91 2.294 . S
O102 C95 1.240 . S
O103 In91 2.326 . S
O103 C95 1.252 . S
In104 O105 2.294 . S
In104 O106 2.326 . S
In104 O110 2.266 . S
In104 O111 2.326 1_554 S
In104 O112 2.266 . S
In104 O113 2.326 . S
In104 O115 2.294 1_554 S
In104 O116 2.326 . S
O105 In104 2.294 . S
O105 C114 1.240 . S
O106 In104 2.326 . S
O106 C114 1.252 . S
C107 O110 1.252 . S
C107 O111 1.260 1_554 S
C108 O115 1.240 . S
C108 O116 1.252 1_556 S
C109 O112 1.252 . S
C109 O113 1.260 . S
O110 In104 2.266 . S
O110 C107 1.252 . S
O111 In104 2.326 1_556 S
O111 C107 1.260 1_556 S
O112 In104 2.266 . S
O112 C109 1.252 . S
O113 In104 2.326 . S
O113 C109 1.260 . S
C114 O105 1.240 . S
C114 O106 1.252 . S
O115 In104 2.294 1_556 S
O115 C108 1.240 . S
O116 In104 2.326 . S
O116 C108 1.252 1_554 S
In117 O118 2.294 . S
In117 O119 2.326 . S
In117 O123 2.266 . S
In117 O124 2.326 . S
In117 O125 2.266 . S
In117 O126 2.326 . S
In117 O128 2.294 . S
In117 O129 2.326 . S
O118 In117 2.294 . S
O118 C127 1.240 . S
O119 In117 2.326 . S
O119 C127 1.252 . S
C120 O123 1.252 . S
C120 O124 1.260 . S
C121 O128 1.240 . S
C121 O129 1.252 . S
C122 O125 1.252 . S
C122 O126 1.260 . S
O123 In117 2.266 . S
O123 C120 1.252 . S
O124 In117 2.326 . S
O124 C120 1.260 . S
O125 In117 2.266 . S
O125 C122 1.252 . S
O126 In117 2.326 . S
O126 C122 1.260 . S
C127 O118 1.240 . S
C127 O119 1.252 . S
O128 In117 2.294 . S
O128 C121 1.240 . S
O129 In117 2.326 . S
O129 C121 1.252 . S
In130 O131 2.294 . S
In130 O132 2.326 . S
In130 O136 2.266 . S
In130 O137 2.326 . S
In130 O138 2.266 . S
In130 O139 2.326 . S
In130 O141 2.294 . S
In130 O142 2.326 . S
O131 In130 2.294 . S
O131 C140 1.240 . S
O132 In130 2.326 . S
O132 C140 1.252 . S
C133 O136 1.252 . S
C133 O137 1.260 . S
C134 O141 1.240 . S
C134 O142 1.252 . S
C135 O138 1.252 . S
C135 O139 1.260 . S
O136 In130 2.266 . S
O136 C133 1.252 . S
O137 In130 2.326 . S
O137 C133 1.260 . S
O138 In130 2.266 . S
O138 C135 1.252 . S
O139 In130 2.326 . S
O139 C135 1.260 . S
C140 O131 1.240 . S
C140 O132 1.252 . S
O141 In130 2.294 . S
O141 C134 1.240 . S
O142 In130 2.326 . S
O142 C134 1.252 . S
In143 O144 2.294 . S
In143 O145 2.326 . S
In143 O149 2.266 . S
In143 O150 2.326 1_554 S
In143 O151 2.266 . S
In143 O152 2.326 . S
In143 O154 2.294 1_554 S
In143 O155 2.326 . S
O144 In143 2.294 . S
O144 C153 1.240 . S
O145 In143 2.326 . S
O145 C153 1.252 . S
C146 O149 1.252 . S
C146 O150 1.260 1_554 S
C147 O154 1.240 . S
C147 O155 1.252 1_556 S
C148 O151 1.252 . S
C148 O152 1.260 . S
O149 In143 2.266 . S
O149 C146 1.252 . S
O150 In143 2.326 1_556 S
O150 C146 1.260 1_556 S
O151 In143 2.266 . S
O151 C148 1.252 . S
O152 In143 2.326 . S
O152 C148 1.260 . S
C153 O144 1.240 . S
C153 O145 1.252 . S
O154 In143 2.294 1_556 S
O154 C147 1.240 . S
O155 In143 2.326 . S
O155 C147 1.252 1_554 S
C156 C157 1.363 . S
C156 C162 1.379 . S
C156 N164 1.356 . S
C157 C156 1.363 . S
C157 C163 1.363 . S
C158 C159 1.363 . S
C158 C163 1.379 . S
C158 N165 1.356 . S
C159 C158 1.363 . S
C159 C162 1.363 . S
N160 C162 1.356 . S
N160 H172 0.984 . S
N160 H173 0.985 . S
N161 C163 1.356 . S
N161 H166 0.984 . S
N161 H167 0.985 . S
C162 C156 1.379 . S
C162 C159 1.363 . S
C162 N160 1.356 . S
C163 C157 1.363 . S
C163 C158 1.379 . S
C163 N161 1.356 . S
N164 C156 1.356 . S
N164 H170 0.984 . S
N164 H171 0.984 . S
N165 C158 1.356 . S
N165 H168 0.984 . S
N165 H169 0.985 . S
H166 N161 0.984 . S
H167 N161 0.985 . S
H168 N165 0.984 . S
H169 N165 0.985 . S
H170 N164 0.984 . S
H171 N164 0.984 . S
H172 N160 0.984 . S
H173 N160 0.985 . S
C174 C175 1.363 . S
C174 C180 1.379 1_655 S
C174 N182 1.356 . S
C175 C174 1.363 . S
C175 C181 1.363 . S
C176 C177 1.363 . S
C176 C181 1.379 1_455 S
C176 N183 1.356 . S
C177 C176 1.363 . S
C177 C180 1.363 . S
N178 C180 1.356 . S
N178 H190 0.984 . S
N178 H191 0.985 . S
N179 C181 1.356 . S
N179 H184 0.984 . S
N179 H185 0.985 . S
C180 C174 1.379 1_455 S
C180 C177 1.363 . S
C180 N178 1.356 . S
C181 C175 1.363 . S
C181 C176 1.379 1_655 S
C181 N179 1.356 . S
N182 C174 1.356 . S
N182 H188 0.984 . S
N182 H189 0.984 . S
N183 C176 1.356 . S
N183 H186 0.984 . S
N183 H187 0.985 . S
H184 N179 0.984 . S
H185 N179 0.985 . S
H186 N183 0.984 . S
H187 N183 0.985 . S
H188 N182 0.984 . S
H189 N182 0.984 . S
H190 N178 0.984 . S
H191 N178 0.985 . S
C192 C193 1.363 1_554 S
C192 C198 1.379 1_565 S
C192 N200 1.356 . S
C193 C192 1.363 1_556 S
C193 C199 1.363 . S
C194 C195 1.363 1_556 S
C194 C199 1.379 1_545 S
C194 N201 1.356 . S
C195 C194 1.363 1_554 S
C195 C198 1.363 . S
N196 C198 1.356 . S
N196 H208 0.984 . S
N196 H209 0.985 . S
N197 C199 1.356 . S
N197 H202 0.984 . S
N197 H203 0.985 . S
C198 C192 1.379 1_545 S
C198 C195 1.363 . S
C198 N196 1.356 . S
C199 C193 1.363 . S
C199 C194 1.379 1_565 S
C199 N197 1.356 . S
N200 C192 1.356 . S
N200 H206 0.984 . S
N200 H207 0.984 1_554 S
N201 C194 1.356 . S
N201 H204 0.984 1_556 S
N201 H205 0.985 . S
H202 N197 0.984 . S
H203 N197 0.985 . S
H204 N201 0.984 1_554 S
H205 N201 0.985 . S
H206 N200 0.984 . S
H207 N200 0.984 1_556 S
H208 N196 0.984 . S
H209 N196 0.985 . S
C210 C211 1.363 . S
C210 C216 1.379 . S
C210 N218 1.356 . S
C211 C210 1.363 . S
C211 C217 1.363 . S
C212 C213 1.363 . S
C212 C217 1.379 . S
C212 N219 1.356 . S
C213 C212 1.363 . S
C213 C216 1.363 . S
N214 C216 1.356 . S
N214 H226 0.984 . S
N214 H227 0.985 . S
N215 C217 1.356 . S
N215 H220 0.984 . S
N215 H221 0.985 . S
C216 C210 1.379 . S
C216 C213 1.363 . S
C216 N214 1.356 . S
C217 C211 1.363 . S
C217 C212 1.379 . S
C217 N215 1.356 . S
N218 C210 1.356 . S
N218 H224 0.984 . S
N218 H225 0.984 . S
N219 C212 1.356 . S
N219 H222 0.984 . S
N219 H223 0.985 . S
H220 N215 0.984 . S
H221 N215 0.985 . S
H222 N219 0.984 . S
H223 N219 0.985 . S
H224 N218 0.984 . S
H225 N218 0.984 . S
H226 N214 0.984 . S
H227 N214 0.985 . S
C228 C229 1.363 . S
C228 C234 1.379 1_655 S
C228 N236 1.356 . S
C229 C228 1.363 . S
C229 C235 1.363 . S
C230 C231 1.363 . S
C230 C235 1.379 1_455 S
C230 N237 1.356 . S
C231 C230 1.363 . S
C231 C234 1.363 . S
N232 C234 1.356 . S
N232 H244 0.984 . S
N232 H245 0.985 . S
N233 C235 1.356 . S
N233 H238 0.984 . S
N233 H239 0.985 . S
C234 C228 1.379 1_455 S
C234 C231 1.363 . S
C234 N232 1.356 . S
C235 C229 1.363 . S
C235 C230 1.379 1_655 S
C235 N233 1.356 . S
N236 C228 1.356 . S
N236 H242 0.984 . S
N236 H243 0.984 . S
N237 C230 1.356 . S
N237 H240 0.984 . S
N237 H241 0.985 . S
H238 N233 0.984 . S
H239 N233 0.985 . S
H240 N237 0.984 . S
H241 N237 0.985 . S
H242 N236 0.984 . S
H243 N236 0.984 . S
H244 N232 0.984 . S
H245 N232 0.985 . S
C246 C247 1.363 1_556 S
C246 C252 1.379 1_565 S
C246 N254 1.356 . S
C247 C246 1.363 1_554 S
C247 C253 1.363 . S
C248 C249 1.363 1_554 S
C248 C253 1.379 1_545 S
C248 N255 1.356 . S
C249 C248 1.363 1_556 S
C249 C252 1.363 . S
N250 C252 1.356 . S
N250 H262 0.984 . S
N250 H263 0.985 . S
N251 C253 1.356 . S
N251 H256 0.984 . S
N251 H257 0.985 . S
C252 C246 1.379 1_545 S
C252 C249 1.363 . S
C252 N250 1.356 . S
C253 C247 1.363 . S
C253 C248 1.379 1_565 S
C253 N251 1.356 . S
N254 C246 1.356 . S
N254 H260 0.984 . S
N254 H261 0.990 . S
N255 C248 1.356 . S
N255 H258 0.990 . S
N255 H259 0.985 . S
H256 N251 0.984 . S
H257 N251 0.985 . S
H258 N255 0.990 . S
H259 N255 0.985 . S
H260 N254 0.984 . S
H261 N254 0.990 . S
H262 N250 0.984 . S
H263 N250 0.985 . S
C264 C265 1.363 . S
C264 C270 1.379 . S
C264 N272 1.356 . S
C265 C264 1.363 . S
C265 C271 1.363 1_556 S
C266 C267 1.363 . S
C266 C271 1.379 . S
C266 N273 1.356 . S
C267 C266 1.363 . S
C267 C270 1.363 1_554 S
N268 C270 1.356 1_554 S
N268 H280 0.984 1_554 S
N268 H281 0.985 . S
N269 C271 1.356 1_556 S
N269 H274 0.984 . S
N269 H275 0.985 1_556 S
C270 C264 1.379 . S
C270 C267 1.363 1_556 S
C270 N268 1.356 1_556 S
C271 C265 1.363 1_554 S
C271 C266 1.379 . S
C271 N269 1.356 1_554 S
N272 C264 1.356 . S
N272 H278 0.984 . S
N272 H279 0.984 . S
N273 C266 1.356 . S
N273 H276 0.984 . S
N273 H277 0.985 . S
H274 N269 0.984 . S
H275 N269 0.985 1_554 S
H276 N273 0.984 . S
H277 N273 0.985 . S
H278 N272 0.984 . S
H279 N272 0.984 . S
H280 N268 0.984 1_556 S
H281 N268 0.985 . S
C282 C283 1.363 . S
C282 C288 1.379 . S
C282 N290 1.356 . S
C283 C282 1.363 . S
C283 C289 1.363 . S
C284 C285 1.363 . S
C284 C289 1.379 . S
C284 N291 1.356 . S
C285 C284 1.363 . S
C285 C288 1.363 . S
N286 C288 1.356 . S
N286 H298 0.984 . S
N286 H299 0.985 . S
N287 C289 1.356 . S
N287 H292 0.984 . S
N287 H293 0.985 . S
C288 C282 1.379 . S
C288 C285 1.363 . S
C288 N286 1.356 . S
C289 C283 1.363 . S
C289 C284 1.379 . S
C289 N287 1.356 . S
N290 C282 1.356 . S
N290 H296 0.984 . S
N290 H297 0.984 . S
N291 C284 1.356 . S
N291 H294 0.984 . S
N291 H295 0.985 . S
H292 N287 0.984 . S
H293 N287 0.985 . S
H294 N291 0.984 . S
H295 N291 0.985 . S
H296 N290 0.984 . S
H297 N290 0.984 . S
H298 N286 0.984 . S
H299 N286 0.985 . S
C300 C301 1.363 . S
C300 C306 1.379 . S
C300 N308 1.356 . S
C301 C300 1.363 . S
C301 C307 1.363 . S
C302 C303 1.363 . S
C302 C307 1.379 . S
C302 N309 1.356 . S
C303 C302 1.363 . S
C303 C306 1.363 . S
N304 C306 1.356 . S
N304 H316 0.984 . S
N304 H317 0.985 . S
N305 C307 1.356 . S
N305 H310 0.984 . S
N305 H311 0.985 . S
C306 C300 1.379 . S
C306 C303 1.363 . S
C306 N304 1.356 . S
C307 C301 1.363 . S
C307 C302 1.379 . S
C307 N305 1.356 . S
N308 C300 1.356 . S
N308 H314 0.984 . S
N308 H315 0.984 . S
N309 C302 1.356 . S
N309 H312 0.984 . S
N309 H313 0.985 . S
H310 N305 0.984 . S
H311 N305 0.985 . S
H312 N309 0.984 . S
H313 N309 0.985 . S
H314 N308 0.984 . S
H315 N308 0.984 . S
H316 N304 0.984 . S
H317 N304 0.985 . S
C318 C319 1.363 1_556 S
C318 C324 1.379 . S
C318 N326 1.356 1_556 S
C319 C318 1.363 1_554 S
C319 C325 1.363 . S
C320 C321 1.363 1_554 S
C320 C325 1.379 . S
C320 N327 1.356 1_554 S
C321 C320 1.363 1_556 S
C321 C324 1.363 . S
N322 C324 1.356 . S
N322 H334 0.984 . S
N322 H335 0.985 . S
N323 C325 1.356 . S
N323 H328 0.984 . S
N323 H329 0.985 . S
C324 C318 1.379 . S
C324 C321 1.363 . S
C324 N322 1.356 . S
C325 C319 1.363 . S
C325 C320 1.379 . S
C325 N323 1.356 . S
N326 C318 1.356 1_554 S
N326 H332 0.984 1_554 S
N326 H333 0.984 . S
N327 C320 1.356 1_556 S
N327 H330 0.984 . S
N327 H331 0.985 1_556 S
H328 N323 0.984 . S
H329 N323 0.985 . S
H330 N327 0.984 . S
H331 N327 0.985 1_554 S
H332 N326 0.984 1_556 S
H333 N326 0.984 . S
H334 N322 0.984 . S
H335 N322 0.985 . S
C336 C337 1.363 . S
C336 C342 1.379 . S
C336 N344 1.356 . S
C337 C336 1.363 . S
C337 C343 1.363 . S
C338 C339 1.363 . S
C338 C343 1.379 . S
C338 N345 1.356 . S
C339 C338 1.363 . S
C339 C342 1.363 . S
N340 C342 1.356 . S
N340 H352 0.984 . S
N340 H353 0.985 . S
N341 C343 1.356 . S
N341 H346 0.984 . S
N341 H347 0.985 . S
C342 C336 1.379 . S
C342 C339 1.363 . S
C342 N340 1.356 . S
C343 C337 1.363 . S
C343 C338 1.379 . S
C343 N341 1.356 . S
N344 C336 1.356 . S
N344 H350 0.984 . S
N344 H351 0.984 . S
N345 C338 1.356 . S
N345 H348 0.984 . S
N345 H349 0.985 . S
H346 N341 0.984 . S
H347 N341 0.985 . S
H348 N345 0.984 . S
H349 N345 0.985 . S
H350 N344 0.984 . S
H351 N344 0.984 . S
H352 N340 0.984 . S
H353 N340 0.985 . S
C354 C355 1.363 . S
C354 C360 1.379 . S
C354 N362 1.356 . S
C355 C354 1.363 . S
C355 C361 1.363 . S
C356 C357 1.363 . S
C356 C361 1.379 . S
C356 N363 1.356 . S
C357 C356 1.363 . S
C357 C360 1.363 . S
N358 C360 1.356 . S
N358 H370 0.984 . S
N358 H371 0.985 . S
N359 C361 1.356 . S
N359 H364 0.984 . S
N359 H365 0.985 . S
C360 C354 1.379 . S
C360 C357 1.363 . S
C360 N358 1.356 . S
C361 C355 1.363 . S
C361 C356 1.379 . S
C361 N359 1.356 . S
N362 C354 1.356 . S
N362 H368 0.984 . S
N362 H369 0.984 . S
N363 C356 1.356 . S
N363 H366 0.984 . S
N363 H367 0.985 . S
H364 N359 0.984 . S
H365 N359 0.985 . S
H366 N363 0.984 . S
H367 N363 0.985 . S
H368 N362 0.984 . S
H369 N362 0.984 . S
H370 N358 0.984 . S
H371 N358 0.985 . S
C372 C373 1.363 . S
C372 C378 1.379 . S
C372 N380 1.356 . S
C373 C372 1.363 . S
C373 C379 1.363 . S
C374 C375 1.363 . S
C374 C379 1.379 . S
C374 N381 1.356 . S
C375 C374 1.363 . S
C375 C378 1.363 . S
N376 C378 1.356 . S
N376 H388 0.984 . S
N376 H389 0.985 . S
N377 C379 1.356 . S
N377 H382 0.984 . S
N377 H383 0.985 . S
C378 C372 1.379 . S
C378 C375 1.363 . S
C378 N376 1.356 . S
C379 C373 1.363 . S
C379 C374 1.379 . S
C379 N377 1.356 . S
N380 C372 1.356 . S
N380 H386 0.984 . S
N380 H387 0.984 . S
N381 C374 1.356 . S
N381 H384 0.984 . S
N381 H385 0.985 . S
H382 N377 0.984 . S
H383 N377 0.985 . S
H384 N381 0.984 . S
H385 N381 0.985 . S
H386 N380 0.984 . S
H387 N380 0.984 . S
H388 N376 0.984 . S
H389 N376 0.985 . S
C390 C391 1.363 . S
C390 C396 1.379 . S
C390 N398 1.356 . S
C391 C390 1.363 . S
C391 C397 1.363 . S
C392 C393 1.363 . S
C392 C397 1.379 . S
C392 N399 1.356 . S
C393 C392 1.363 . S
C393 C396 1.363 . S
N394 C396 1.356 . S
N394 H406 0.984 . S
N394 H407 0.985 . S
N395 C397 1.356 . S
N395 H400 0.984 . S
N395 H401 0.985 . S
C396 C390 1.379 . S
C396 C393 1.363 . S
C396 N394 1.356 . S
C397 C391 1.363 . S
C397 C392 1.379 . S
C397 N395 1.356 . S
N398 C390 1.356 . S
N398 H404 0.984 . S
N398 H405 0.984 . S
N399 C392 1.356 . S
N399 H402 0.984 . S
N399 H403 0.985 . S
H400 N395 0.984 . S
H401 N395 0.985 . S
H402 N399 0.984 . S
H403 N399 0.985 . S
H404 N398 0.984 . S
H405 N398 0.984 . S
H406 N394 0.984 . S
H407 N394 0.985 . S
C408 C409 1.363 . S
C408 C414 1.379 . S
C408 N416 1.356 1_554 S
C409 C408 1.363 . S
C409 C415 1.363 . S
C410 C411 1.363 . S
C410 C415 1.379 . S
C410 N417 1.356 . S
C411 C410 1.363 . S
C411 C414 1.363 . S
N412 C414 1.356 . S
N412 H424 0.984 . S
N412 H425 0.985 . S
N413 C415 1.356 . S
N413 H418 0.984 . S
N413 H419 0.985 . S
C414 C408 1.379 . S
C414 C411 1.363 . S
C414 N412 1.356 . S
C415 C409 1.363 . S
C415 C410 1.379 . S
C415 N413 1.356 . S
N416 C408 1.356 1_556 S
N416 H422 0.984 . S
N416 H423 0.984 . S
N417 C410 1.356 . S
N417 H420 0.984 . S
N417 H421 0.985 . S
H418 N413 0.984 . S
H419 N413 0.985 . S
H420 N417 0.984 . S
H421 N417 0.985 . S
H422 N416 0.984 . S
H423 N416 0.984 . S
H424 N412 0.984 . S
H425 N412 0.985 . S
C426 C427 1.363 . S
C426 C432 1.379 . S
C426 N434 1.356 . S
C427 C426 1.363 . S
C427 C433 1.363 . S
C428 C429 1.363 . S
C428 C433 1.379 . S
C428 N435 1.356 . S
C429 C428 1.363 . S
C429 C432 1.363 . S
N430 C432 1.356 . S
N430 H442 0.984 . S
N430 H443 0.985 . S
N431 C433 1.356 . S
N431 H436 0.984 . S
N431 H437 0.985 . S
C432 C426 1.379 . S
C432 C429 1.363 . S
C432 N430 1.356 . S
C433 C427 1.363 . S
C433 C428 1.379 . S
C433 N431 1.356 . S
N434 C426 1.356 . S
N434 H440 0.984 . S
N434 H441 0.984 . S
N435 C428 1.356 . S
N435 H438 0.984 . S
N435 H439 0.985 . S
H436 N431 0.984 . S
H437 N431 0.985 . S
H438 N435 0.984 . S
H439 N435 0.985 . S
H440 N434 0.984 . S
H441 N434 0.984 . S
H442 N430 0.984 . S
H443 N430 0.985 . S
C444 C445 1.363 . S
C444 C450 1.379 . S
C444 N452 1.356 . S
C445 C444 1.363 . S
C445 C451 1.363 . S
C446 C447 1.363 . S
C446 C451 1.379 . S
C446 N453 1.356 . S
C447 C446 1.363 . S
C447 C450 1.363 . S
N448 C450 1.356 . S
N448 H460 0.984 . S
N448 H461 0.985 . S
N449 C451 1.356 . S
N449 H454 0.984 . S
N449 H455 0.985 . S
C450 C444 1.379 . S
C450 C447 1.363 . S
C450 N448 1.356 . S
C451 C445 1.363 . S
C451 C446 1.379 . S
C451 N449 1.356 . S
N452 C444 1.356 . S
N452 H458 0.984 . S
N452 H459 0.984 . S
N453 C446 1.356 . S
N453 H456 0.984 . S
N453 H457 0.985 . S
H454 N449 0.984 . S
H455 N449 0.985 . S
H456 N453 0.984 . S
H457 N453 0.985 . S
H458 N452 0.984 . S
H459 N452 0.984 . S
H460 N448 0.984 . S
H461 N448 0.985 . S
C462 C463 1.363 . S
C462 C468 1.379 . S
C462 N470 1.356 . S
C463 C462 1.363 . S
C463 C469 1.363 . S
C464 C465 1.363 . S
C464 C469 1.379 . S
C464 N471 1.356 . S
C465 C464 1.363 . S
C465 C468 1.363 . S
N466 C468 1.356 . S
N466 H478 0.984 . S
N466 H479 0.985 . S
N467 C469 1.356 . S
N467 H472 0.984 . S
N467 H473 0.985 . S
C468 C462 1.379 . S
C468 C465 1.363 . S
C468 N466 1.356 . S
C469 C463 1.363 . S
C469 C464 1.379 . S
C469 N467 1.356 . S
N470 C462 1.356 . S
N470 H476 0.984 . S
N470 H477 0.984 . S
N471 C464 1.356 . S
N471 H474 0.984 . S
N471 H475 0.985 . S
H472 N467 0.984 . S
H473 N467 0.985 . S
H474 N471 0.984 . S
H475 N471 0.985 . S
H476 N470 0.984 . S
H477 N470 0.984 . S
H478 N466 0.984 . S
H479 N466 0.985 . S
C480 C481 1.363 . S
C480 C486 1.379 . S
C480 N488 1.356 . S
C481 C480 1.363 . S
C481 C487 1.363 . S
C482 C483 1.363 . S
C482 C487 1.379 . S
C482 N489 1.356 . S
C483 C482 1.363 . S
C483 C486 1.363 . S
N484 C486 1.356 . S
N484 H496 0.984 . S
N484 H497 0.985 . S
N485 C487 1.356 . S
N485 H490 0.984 . S
N485 H491 0.985 . S
C486 C480 1.379 . S
C486 C483 1.363 . S
C486 N484 1.356 . S
C487 C481 1.363 . S
C487 C482 1.379 . S
C487 N485 1.356 . S
N488 C480 1.356 . S
N488 H494 0.984 . S
N488 H495 0.984 . S
N489 C482 1.356 . S
N489 H492 0.984 . S
N489 H493 0.985 . S
H490 N485 0.984 . S
H491 N485 0.985 . S
H492 N489 0.984 . S
H493 N489 0.985 . S
H494 N488 0.984 . S
H495 N488 0.984 . S
H496 N484 0.984 . S
H497 N484 0.985 . S
C498 C499 1.363 . S
C498 C504 1.379 . S
C498 N506 1.356 . S
C499 C498 1.363 . S
C499 C505 1.363 . S
C500 C501 1.363 . S
C500 C505 1.379 . S
C500 N507 1.356 . S
C501 C500 1.363 . S
C501 C504 1.363 . S
N502 C504 1.356 . S
N502 H514 0.984 . S
N502 H515 0.985 . S
N503 C505 1.356 . S
N503 H508 0.984 . S
N503 H509 0.985 . S
C504 C498 1.379 . S
C504 C501 1.363 . S
C504 N502 1.356 . S
C505 C499 1.363 . S
C505 C500 1.379 . S
C505 N503 1.356 . S
N506 C498 1.356 . S
N506 H512 0.984 . S
N506 H513 0.984 . S
N507 C500 1.356 . S
N507 H510 0.984 . S
N507 H511 0.985 . S
H508 N503 0.984 . S
H509 N503 0.985 . S
H510 N507 0.984 . S
H511 N507 0.985 . S
H512 N506 0.984 . S
H513 N506 0.984 . S
H514 N502 0.984 . S
H515 N502 0.985 . S
C516 C517 1.363 . S
C516 C522 1.379 . S
C516 N524 1.356 . S
C517 C516 1.363 . S
C517 C523 1.363 1_556 S
C518 C519 1.363 . S
C518 C523 1.379 . S
C518 N525 1.356 . S
C519 C518 1.363 . S
C519 C522 1.363 1_554 S
N520 C522 1.356 . S
N520 H532 0.984 . S
N520 H533 0.985 . S
N521 C523 1.356 . S
N521 H526 0.984 . S
N521 H527 0.985 . S
C522 C516 1.379 . S
C522 C519 1.363 1_556 S
C522 N520 1.356 . S
C523 C517 1.363 1_554 S
C523 C518 1.379 . S
C523 N521 1.356 . S
N524 C516 1.356 . S
N524 H530 0.984 . S
N524 H531 0.984 . S
N525 C518 1.356 . S
N525 H528 0.984 . S
N525 H529 0.985 . S
H526 N521 0.984 . S
H527 N521 0.985 . S
H528 N525 0.984 . S
H529 N525 0.985 . S
H530 N524 0.984 . S
H531 N524 0.984 . S
H532 N520 0.984 . S
H533 N520 0.985 . S
C534 C535 1.363 . S
C534 C540 1.379 . S
C534 N542 1.356 . S
C535 C534 1.363 . S
C535 C541 1.363 . S
C536 C537 1.363 . S
C536 C541 1.379 . S
C536 N543 1.356 . S
C537 C536 1.363 . S
C537 C540 1.363 . S
N538 C540 1.356 . S
N538 H550 0.984 . S
N538 H551 0.985 . S
N539 C541 1.356 . S
N539 H544 0.984 . S
N539 H545 0.985 . S
C540 C534 1.379 . S
C540 C537 1.363 . S
C540 N538 1.356 . S
C541 C535 1.363 . S
C541 C536 1.379 . S
C541 N539 1.356 . S
N542 C534 1.356 . S
N542 H548 0.984 . S
N542 H549 0.984 . S
N543 C536 1.356 . S
N543 H546 0.984 . S
N543 H547 0.985 . S
H544 N539 0.984 . S
H545 N539 0.985 . S
H546 N543 0.984 . S
H547 N543 0.985 . S
H548 N542 0.984 . S
H549 N542 0.984 . S
H550 N538 0.984 . S
H551 N538 0.985 . S
C552 C553 1.363 . S
C552 C558 1.379 . S
C552 N560 1.356 . S
C553 C552 1.363 . S
C553 C559 1.363 . S
C554 C555 1.363 . S
C554 C559 1.379 . S
C554 N561 1.356 . S
C555 C554 1.363 . S
C555 C558 1.363 . S
N556 C558 1.356 . S
N556 H568 0.984 . S
N556 H569 0.985 . S
N557 C559 1.356 . S
N557 H562 0.984 . S
N557 H563 0.985 . S
C558 C552 1.379 . S
C558 C555 1.363 . S
C558 N556 1.356 . S
C559 C553 1.363 . S
C559 C554 1.379 . S
C559 N557 1.356 . S
N560 C552 1.356 . S
N560 H566 0.984 . S
N560 H567 0.984 . S
N561 C554 1.356 . S
N561 H564 0.984 . S
N561 H565 0.985 . S
H562 N557 0.984 . S
H563 N557 0.985 . S
H564 N561 0.984 . S
H565 N561 0.985 . S
H566 N560 0.984 . S
H567 N560 0.984 . S
H568 N556 0.984 . S
H569 N556 0.985 . S
C570 C571 1.363 1_556 S
C570 C576 1.379 . S
C570 N578 1.356 . S
C571 C570 1.363 1_554 S
C571 C577 1.363 . S
C572 C573 1.363 1_554 S
C572 C577 1.379 . S
C572 N579 1.356 . S
C573 C572 1.363 1_556 S
C573 C576 1.363 . S
N574 C576 1.356 . S
N574 H586 0.984 . S
N574 H587 0.985 . S
N575 C577 1.356 . S
N575 H580 0.984 . S
N575 H581 0.985 . S
C576 C570 1.379 . S
C576 C573 1.363 . S
C576 N574 1.356 . S
C577 C571 1.363 . S
C577 C572 1.379 . S
C577 N575 1.356 . S
N578 C570 1.356 . S
N578 H584 0.984 . S
N578 H585 0.984 . S
N579 C572 1.356 . S
N579 H582 0.984 . S
N579 H583 0.985 . S
H580 N575 0.984 . S
H581 N575 0.985 . S
H582 N579 0.984 . S
H583 N579 0.985 . S
H584 N578 0.984 . S
H585 N578 0.984 . S
H586 N574 0.984 . S
H587 N574 0.985 . S
C157 C3 1.490 . S
C159 C122 1.490 . S
C175 C16 1.490 . S
C177 C135 1.490 . S
C193 C29 1.489 . S
C195 C148 1.490 . S
C211 C42 1.490 . S
C213 C81 1.490 . S
C229 C94 1.490 . S
C231 C57 1.490 . S
C247 C109 1.490 . S
C249 C68 1.490 . S
C265 C140 1.793 . S
C267 C4 1.793 . S
C283 C17 1.793 . S
C285 C153 1.793 . S
C301 C30 1.793 . S
C303 C82 1.793 . S
C319 C43 1.793 . S
C321 C95 1.793 . S
C337 C62 1.793 . S
C339 C114 1.793 . S
C355 C69 1.793 . S
C357 C127 1.793 . S
C373 C134 1.132 . S
C375 C10 1.132 . S
C391 C23 1.132 . S
C393 C147 1.132 . S
C409 C36 1.132 . S
C411 C88 1.132 . S
C427 C49 1.132 . S
C429 C101 1.132 . S
C445 C56 1.132 . S
C447 C108 1.132 . S
C463 C75 1.132 . S
C465 C121 1.132 . S
C481 C5 1.681 . S
C483 C83 1.681 . S
C499 C96 1.681 . S
C501 C18 1.681 . S
C517 C31 1.681 . S
C519 C107 1.681 . S
C535 C44 1.681 . S
C537 C120 1.681 . S
C553 C55 1.681 . S
C555 C133 1.681 . S
C571 C146 1.681 . S
C573 C70 1.681 . S
