# Generated by pormake.
# Topology ske, (6)-cn, num edge types: 1
# Building blocks:
#     Node 0, Type 0, BuildingBlock: HISSIN_clean_sbu_0, # of connection points: 6
#     Node 1, Type 0, BuildingBlock: HISSIN_clean_sbu_0, # of connection points: 6
#     Node 2, Type 0, BuildingBlock: HISSIN_clean_sbu_0, # of connection points: 6
#     Node 3, Type 0, BuildingBlock: HISSIN_clean_sbu_0, # of connection points: 6
#     Node 4, Type 0, BuildingBlock: HISSIN_clean_sbu_0, # of connection points: 6
#     Node 5, Type 0, BuildingBlock: HISSIN_clean_sbu_0, # of connection points: 6
#     Node 6, Type 0, BuildingBlock: HISSIN_clean_sbu_0, # of connection points: 6
#     Node 7, Type 0, BuildingBlock: HISSIN_clean_sbu_0, # of connection points: 6
#     Edge 8, Type (0, 0), BuildingBlock: TEMPAE_clean_linker_10, # of connection points: 2
#     Edge 9, Type (0, 0), BuildingBlock: TEMPAE_clean_linker_10, # of connection points: 2
#     Edge 10, Type (0, 0), BuildingBlock: TEMPAE_clean_linker_10, # of connection points: 2
#     Edge 11, Type (0, 0), BuildingBlock: TEMPAE_clean_linker_10, # of connection points: 2
#     Edge 12, Type (0, 0), BuildingBlock: TEMPAE_clean_linker_10, # of connection points: 2
#     Edge 13, Type (0, 0), BuildingBlock: TEMPAE_clean_linker_10, # of connection points: 2
#     Edge 14, Type (0, 0), BuildingBlock: TEMPAE_clean_linker_10, # of connection points: 2
#     Edge 15, Type (0, 0), BuildingBlock: TEMPAE_clean_linker_10, # of connection points: 2
#     Edge 16, Type (0, 0), BuildingBlock: TEMPAE_clean_linker_10, # of connection points: 2
#     Edge 17, Type (0, 0), BuildingBlock: TEMPAE_clean_linker_10, # of connection points: 2
#     Edge 18, Type (0, 0), BuildingBlock: TEMPAE_clean_linker_10, # of connection points: 2
#     Edge 19, Type (0, 0), BuildingBlock: TEMPAE_clean_linker_10, # of connection points: 2
#     Edge 20, Type (0, 0), BuildingBlock: TEMPAE_clean_linker_10, # of connection points: 2
#     Edge 21, Type (0, 0), BuildingBlock: TEMPAE_clean_linker_10, # of connection points: 2
#     Edge 22, Type (0, 0), BuildingBlock: TEMPAE_clean_linker_10, # of connection points: 2
#     Edge 23, Type (0, 0), BuildingBlock: TEMPAE_clean_linker_10, # of connection points: 2
#     Edge 24, Type (0, 0), BuildingBlock: TEMPAE_clean_linker_10, # of connection points: 2
#     Edge 25, Type (0, 0), BuildingBlock: TEMPAE_clean_linker_10, # of connection points: 2
#     Edge 26, Type (0, 0), BuildingBlock: TEMPAE_clean_linker_10, # of connection points: 2
#     Edge 27, Type (0, 0), BuildingBlock: TEMPAE_clean_linker_10, # of connection points: 2
#     Edge 28, Type (0, 0), BuildingBlock: TEMPAE_clean_linker_10, # of connection points: 2
#     Edge 29, Type (0, 0), BuildingBlock: TEMPAE_clean_linker_10, # of connection points: 2
#     Edge 30, Type (0, 0), BuildingBlock: TEMPAE_clean_linker_10, # of connection points: 2
#     Edge 31, Type (0, 0), BuildingBlock: TEMPAE_clean_linker_10, # of connection points: 2
# Relax obj value: 0.191
# Max RMSD: 0.200
# Mean RMSD: 0.194
data_MOF--net-ske--node1-HISSIN_clean_sbu_0--edge1-TEMPAE_clean_linker_10
_symmetry_space_group_name_H-M    P1
_symmetry_Int_Tables_number       1
_symmetry_cell_setting            triclinic
loop_
_symmetry_equiv_pos_as_xyz
'x, y, z'
_cell_length_a     105.17018
_cell_length_b     30.749546
_cell_length_c     15.67952
_cell_angle_alpha  89.954799
_cell_angle_beta   89.95226
_cell_angle_gamma 97.932461
loop_
_atom_site_label
_atom_site_type_symbol
_atom_site_fract_x
_atom_site_fract_y
_atom_site_fract_z
_atom_type_partial_charge
Eu0 Eu 0.11957 0.25127 0.59049 0.0
Eu1 Eu 0.1511 0.25407 0.5842 0.0
C2 C 0.13804 0.34007 0.57494 0.0
C3 C 0.08171 0.24335 0.56901 0.0
C4 C 0.07791 0.26589 0.4974 0.0
C5 C 0.0594 0.21307 0.59359 0.0
C6 C 0.06492 0.26276 0.47531 0.0
C7 C 0.07236 0.21618 0.61555 0.0
C8 C 0.05547 0.23722 0.52456 0.0
C9 C 0.09483 0.25269 0.60437 0.0
O10 O 0.14653 0.2679 0.72179 0.0
O11 O 0.12555 0.23541 0.72357 0.0
C12 C 0.13613 0.25133 0.76355 0.0
O13 O 0.12343 0.18433 0.54845 0.0
O14 O 0.17006 0.29186 0.60081 0.0
O15 O 0.16839 0.22451 0.55623 0.0
O16 O 0.14245 0.18516 0.61975 0.0
C17 C 0.13232 0.16354 0.58216 0.0
O18 O 0.12445 0.26058 0.45045 0.0
O19 O 0.14458 0.23866 0.4492 0.0
O20 O 0.14599 0.31809 0.53466 0.0
O21 O 0.10052 0.22001 0.63066 0.0
O22 O 0.10281 0.28456 0.57133 0.0
O23 O 0.12912 0.31921 0.62399 0.0
C24 C 0.18799 0.25379 0.62685 0.0
C25 C 0.19205 0.21233 0.63596 0.0
C26 C 0.20821 0.28735 0.68886 0.0
C27 C 0.20415 0.20854 0.6702 0.0
C28 C 0.19614 0.29113 0.65477 0.0
C29 C 0.21248 0.24613 0.69539 0.0
C30 C 0.17617 0.25939 0.57905 0.0
C31 C 0.1344 0.24899 0.40934 0.0
H32 H 0.0849 0.28725 0.4604 0.0
H33 H 0.0524 0.19353 0.63363 0.0
H34 H 0.06223 0.28128 0.42101 0.0
H35 H 0.07501 0.19898 0.67176 0.0
H36 H 0.18609 0.18294 0.61407 0.0
H37 H 0.21431 0.31688 0.70877 0.0
H38 H 0.20719 0.17633 0.67363 0.0
H39 H 0.19336 0.32358 0.64774 0.0
Eu40 Eu 0.894 0.23981 0.50683 0.0
Eu41 Eu 0.86208 0.22701 0.50573 0.0
C42 C 0.87769 0.14709 0.50861 0.0
C43 C 0.93301 0.24709 0.49984 0.0
C44 C 0.93853 0.21543 0.4533 0.0
C45 C 0.95443 0.28054 0.5417 0.0
C46 C 0.95185 0.21625 0.45101 0.0
C47 C 0.94108 0.27982 0.54366 0.0
C48 C 0.95996 0.24867 0.49548 0.0
C49 C 0.91888 0.24519 0.50343 0.0
O50 O 0.86746 0.21851 0.64367 0.0
O51 O 0.88854 0.25164 0.64332 0.0
C52 C 0.87797 0.23552 0.68398 0.0
O53 O 0.88781 0.30392 0.46808 0.0
O54 O 0.84392 0.18539 0.53182 0.0
O55 O 0.84388 0.24922 0.4727 0.0
O56 O 0.86911 0.2964 0.54481 0.0
C57 C 0.87858 0.32114 0.50631 0.0
O58 O 0.88815 0.22454 0.37024 0.0
O59 O 0.86792 0.2448 0.37033 0.0
O60 O 0.86902 0.1643 0.46498 0.0
O61 O 0.91304 0.2759 0.53715 0.0
O62 O 0.91123 0.21208 0.472 0.0
O63 O 0.88636 0.17229 0.5523 0.0
C64 C 0.82523 0.22012 0.553 0.0
C65 C 0.82127 0.26165 0.56362 0.0
C66 C 0.80531 0.18672 0.61962 0.0
C67 C 0.80938 0.26556 0.60091 0.0
C68 C 0.81717 0.18281 0.58215 0.0
C69 C 0.80118 0.22807 0.62826 0.0
C70 C 0.83694 0.21439 0.50412 0.0
C71 C 0.87808 0.23509 0.3296 0.0
H72 H 0.93257 0.18973 0.4189 0.0
H73 H 0.96043 0.30619 0.57599 0.0
H74 H 0.95578 0.19091 0.4157 0.0
H75 H 0.9371 0.30467 0.58001 0.0
H76 H 0.82722 0.29107 0.54144 0.0
H77 H 0.79918 0.15714 0.63899 0.0
H78 H 0.80654 0.29794 0.60758 0.0
H79 H 0.81987 0.15034 0.57365 0.0
Eu80 Eu 0.15138 0.76569 0.48288 0.0
Eu81 Eu 0.11963 0.73861 0.4812 0.0
C82 C 0.13829 0.66491 0.47982 0.0
C83 C 0.18875 0.78235 0.44794 0.0
C84 C 0.19075 0.7415 0.41447 0.0
C85 C 0.2111 0.81051 0.41917 0.0
C86 C 0.20291 0.7352 0.38377 0.0
C87 C 0.19899 0.81671 0.44974 0.0
C88 C 0.21325 0.7697 0.38584 0.0
C89 C 0.17629 0.79032 0.48335 0.0
O90 O 0.12575 0.73042 0.61822 0.0
O91 O 0.1448 0.77718 0.61748 0.0
C92 C 0.13534 0.75361 0.65886 0.0
O93 O 0.14235 0.82729 0.46187 0.0
O94 O 0.10207 0.69507 0.51668 0.0
O95 O 0.10109 0.74972 0.4304 0.0
O96 O 0.12304 0.80822 0.52902 0.0
C97 C 0.13212 0.83818 0.50001 0.0
O98 O 0.14639 0.74105 0.34954 0.0
O99 O 0.12612 0.75996 0.34789 0.0
O100 O 0.12806 0.67765 0.44506 0.0
O101 O 0.16839 0.80655 0.43218 0.0
O102 O 0.17039 0.76113 0.53541 0.0
O103 O 0.14756 0.6933 0.51142 0.0
C104 C 0.08187 0.72263 0.50605 0.0
C105 C 0.07786 0.76424 0.5134 0.0
C106 C 0.06018 0.68892 0.54139 0.0
C107 C 0.06504 0.76805 0.53284 0.0
C108 C 0.07296 0.68515 0.52189 0.0
C109 C 0.05597 0.73037 0.54524 0.0
C110 C 0.09466 0.71696 0.47171 0.0
C111 C 0.13629 0.75017 0.30731 0.0
H112 H 0.18294 0.71455 0.41236 0.0
H113 H 0.21884 0.83758 0.42313 0.0
H114 H 0.2042 0.70348 0.35779 0.0
H115 H 0.19766 0.84842 0.47573 0.0
H116 H 0.08451 0.79378 0.50149 0.0
H117 H 0.05346 0.65917 0.5495 0.0
H118 H 0.06219 0.80051 0.53654 0.0
H119 H 0.07578 0.6527 0.51568 0.0
Eu120 Eu 0.86437 0.72915 0.49336 0.0
Eu121 Eu 0.89645 0.74309 0.48794 0.0
C122 C 0.88074 0.8223 0.49479 0.0
C123 C 0.82704 0.71587 0.45313 0.0
C124 C 0.82568 0.73626 0.37407 0.0
C125 C 0.804 0.69194 0.45573 0.0
C126 C 0.81351 0.73523 0.33705 0.0
C127 C 0.81615 0.69301 0.49262 0.0
C128 C 0.80247 0.71385 0.37837 0.0
C129 C 0.83927 0.72243 0.50082 0.0
O130 O 0.89131 0.75101 0.62696 0.0
O131 O 0.87048 0.7156 0.62766 0.0
C132 C 0.88095 0.73284 0.6679 0.0
O133 O 0.87078 0.66511 0.45575 0.0
O134 O 0.91488 0.78319 0.5159 0.0
O135 O 0.91436 0.72257 0.44401 0.0
O136 O 0.88984 0.6737 0.52866 0.0
C137 C 0.8802 0.64849 0.49315 0.0
O138 O 0.86948 0.74552 0.35579 0.0
O139 O 0.88976 0.72539 0.35402 0.0
O140 O 0.88937 0.80583 0.44943 0.0
O141 O 0.84556 0.68909 0.51153 0.0
O142 O 0.84685 0.75916 0.48837 0.0
O143 O 0.87226 0.79646 0.53891 0.0
C144 C 0.93424 0.74977 0.51305 0.0
C145 C 0.93825 0.70803 0.5171 0.0
C146 C 0.95594 0.78263 0.55058 0.0
C147 C 0.95105 0.70377 0.53596 0.0
C148 C 0.94316 0.78686 0.53172 0.0
C149 C 0.96014 0.74112 0.55086 0.0
C150 C 0.92156 0.75617 0.47764 0.0
C151 C 0.87952 0.73521 0.31419 0.0
H152 H 0.83394 0.75415 0.34225 0.0
H153 H 0.79574 0.67558 0.48989 0.0
H154 H 0.81271 0.75186 0.27677 0.0
H155 H 0.81696 0.67743 0.55404 0.0
H156 H 0.93163 0.67877 0.50272 0.0
H157 H 0.96266 0.81216 0.56067 0.0
H158 H 0.9539 0.67125 0.53689 0.0
H159 H 0.94039 0.81946 0.52785 0.0
Eu160 Eu 0.62037 0.73941 0.0908 0.0
Eu161 Eu 0.65208 0.7648 0.08758 0.0
C162 C 0.63325 0.83877 0.06912 0.0
C163 C 0.58246 0.72181 0.07297 0.0
C164 C 0.57963 0.75858 0.0273 0.0
C165 C 0.55973 0.69331 0.07615 0.0
C166 C 0.56686 0.7628 1.00677 0.0
C167 C 0.57244 0.68907 0.09604 0.0
C168 C 0.55671 0.73043 0.032 0.0
C169 C 0.59545 0.71804 0.1046 0.0
O170 O 0.64692 0.74006 0.22093 0.0
O171 O 0.627 0.76145 0.22311 0.0
C172 C 0.63703 0.75056 0.26358 0.0
O173 O 0.62862 0.6779 0.12615 0.0
O174 O 0.66954 0.79934 0.14454 0.0
O175 O 0.67079 0.76251 0.02779 0.0
O176 O 0.64793 0.69274 0.05737 0.0
C177 C 0.63864 0.66462 0.08957 0.0
O178 O 0.62619 0.73153 0.95297 0.0
O179 O 0.64549 0.77698 0.95332 0.0
O180 O 0.6436 0.82781 0.10575 0.0
O181 O 0.60273 0.69531 0.06041 0.0
O182 O 0.60192 0.75246 0.14039 0.0
O183 O 0.62397 0.80892 0.04227 0.0
C184 C 0.6892 0.77162 0.11711 0.0
C185 C 0.69002 0.74925 0.19463 0.0
C186 C 0.7121 0.77155 0.09556 0.0
C187 C 0.70186 0.73845 0.22274 0.0
C188 C 0.7003 0.78234 0.06772 0.0
C189 C 0.71307 0.74971 0.17369 0.0
C190 C 0.67712 0.78585 0.08733 0.0
C191 C 0.63589 0.75413 0.91214 0.0
H192 H 0.58724 0.78434 1.00913 0.0
H193 H 0.55225 0.66812 0.09836 0.0
H194 H 0.56493 0.79158 0.97193 0.0
H195 H 0.57441 0.66068 0.13216 0.0
H196 H 0.68155 0.74052 0.23373 0.0
H197 H 0.72053 0.78136 0.05673 0.0
H198 H 0.70223 0.72124 0.28277 0.0
H199 H 0.6999 0.79981 1.00793 0.0
Eu200 Eu 0.39655 0.72689 0.08793 0.0
Eu201 Eu 0.36478 0.72401 0.08246 0.0
C202 C 0.37803 0.63796 0.07208 0.0
C203 C 0.43478 0.7383 0.07261 0.0
C204 C 0.43966 0.71751 1.00225 0.0
C205 C 0.45655 0.77102 0.10812 0.0
C206 C 0.45291 0.72282 0.98607 0.0
C207 C 0.44335 0.76591 0.12397 0.0
C208 C 0.46153 0.74856 0.04051 0.0
C209 C 0.42135 0.72639 0.10215 0.0
O210 O 0.36936 0.70994 0.2198 0.0
O211 O 0.39041 0.74195 0.22124 0.0
C212 C 0.3798 0.72617 0.26133 0.0
O213 O 0.3926 0.79374 0.04582 0.0
O214 O 0.34574 0.68608 0.09827 0.0
O215 O 0.34751 0.75393 0.05596 0.0
O216 O 0.37354 0.79293 0.11708 0.0
C217 C 0.38367 0.81449 0.07912 0.0
O218 O 0.39155 0.71803 0.94805 0.0
O219 O 0.3713 0.73921 0.9472 0.0
O220 O 0.36996 0.66003 0.03301 0.0
O221 O 0.41532 0.75681 0.1348 0.0
O222 O 0.4137 0.69629 0.06154 0.0
O223 O 0.3871 0.65857 0.1202 0.0
C224 C 0.32757 0.72342 0.12096 0.0
C225 C 0.32559 0.76228 0.16307 0.0
C226 C 0.30525 0.69376 0.14755 0.0
C227 C 0.31344 0.76693 0.19636 0.0
C228 C 0.31734 0.68911 0.11468 0.0
C229 C 0.30307 0.73297 0.18753 0.0
C230 C 0.3397 0.71867 0.07624 0.0
C231 C 0.38153 0.72923 0.90722 0.0
H232 H 0.43333 0.69563 0.96194 0.0
H233 H 0.46292 0.79153 0.15056 0.0
H234 H 0.45646 0.70489 0.93374 0.0
H235 H 0.4399 0.78199 0.17915 0.0
H236 H 0.3333 0.78937 0.16851 0.0
H237 H 0.29755 0.66669 0.14089 0.0
H238 H 0.31208 0.79764 0.22642 0.0
H239 H 0.31862 0.6589 0.08225 0.0
Eu240 Eu 0.65093 0.2542 0.97522 0.0
Eu241 Eu 0.61936 0.25088 0.97043 0.0
C242 C 0.63233 0.16345 0.97894 0.0
C243 C 0.68766 0.25503 0.92734 0.0
C244 C 0.69141 0.21362 0.9112 0.0
C245 C 0.70778 0.28952 0.86506 0.0
C246 C 0.7033 0.21028 0.87323 0.0
C247 C 0.69592 0.29285 0.90286 0.0
C248 C 0.71174 0.24825 0.85127 0.0
C249 C 0.67601 0.25984 0.97785 0.0
O250 O 0.62439 0.26058 0.11003 0.0
O251 O 0.64453 0.23874 0.11067 0.0
C252 C 0.63437 0.24909 0.15084 0.0
O253 O 0.64582 0.31795 0.0259 0.0
O254 O 0.60017 0.21866 0.93617 0.0
O255 O 0.60269 0.28505 0.98656 0.0
O256 O 0.62882 0.31919 0.93781 0.0
C257 C 0.63776 0.33994 0.98674 0.0
O258 O 0.64616 0.26848 0.83821 0.0
O259 O 0.62525 0.23535 0.83691 0.0
O260 O 0.6234 0.18408 1.01279 0.0
O261 O 0.66982 0.29251 0.9588 0.0
O262 O 0.66832 0.2246 0.99997 0.0
O263 O 0.64234 0.18523 0.94027 0.0
C264 C 0.58155 0.2445 0.99717 0.0
C265 C 0.57646 0.27922 0.03713 0.0
C266 C 0.5603 0.20133 1.0017 0.0
C267 C 0.56339 0.27546 0.05706 0.0
C268 C 0.57338 0.20514 0.98145 0.0
C269 C 0.55509 0.23697 0.03723 0.0
C270 C 0.59456 0.25218 0.95886 0.0
C271 C 0.63579 0.25166 0.79666 0.0
H272 H 0.68534 0.18383 0.93014 0.0
H273 H 0.71395 0.31939 0.84775 0.0
H274 H 0.7061 0.17801 0.8641 0.0
H275 H 0.69337 0.32522 0.9152 0.0
H276 H 0.58243 0.31019 0.04929 0.0
H277 H 0.55414 0.17136 0.98496 0.0
H278 H 0.5597 0.3033 0.08542 0.0
H279 H 0.57694 0.17802 0.9495 0.0
Eu280 Eu 0.36456 0.21231 0.97405 0.0
Eu281 Eu 0.39608 0.23922 0.97209 0.0
C282 C 0.37756 0.31331 0.97207 0.0
C283 C 0.32748 0.19855 0.93582 0.0
C284 C 0.32409 0.24119 0.93654 0.0
C285 C 0.30672 0.17145 0.87374 0.0
C286 C 0.31201 0.24874 0.90685 0.0
C287 C 0.31873 0.16393 0.90357 0.0
C288 C 0.30315 0.21385 0.87571 0.0
C289 C 0.33966 0.18842 0.97241 0.0
O290 O 0.38993 0.24753 0.10907 0.0
O291 O 0.37101 0.20026 0.10861 0.0
C292 C 0.3804 0.224 0.14995 0.0
O293 O 0.37346 0.1504 0.95334 0.0
O294 O 0.41385 0.27925 1.01456 0.0
O295 O 0.41438 0.2314 0.91365 0.0
O296 O 0.39283 0.16947 1.0193 0.0
C297 C 0.38372 0.13951 0.99093 0.0
O298 O 0.36956 0.23755 0.84102 0.0
O299 O 0.38962 0.21728 0.83922 0.0
O300 O 0.38784 0.30077 0.93753 0.0
O301 O 0.34759 0.17249 0.92089 0.0
O302 O 0.34557 0.21574 0.02775 0.0
O303 O 0.36827 0.2847 1.00303 0.0
C304 C 0.43356 0.24965 0.99475 0.0
C305 C 0.43771 0.20894 0.97781 0.0
C306 C 0.45472 0.27625 0.05193 0.0
C307 C 0.45034 0.20239 0.99585 0.0
C308 C 0.44211 0.28288 0.03347 0.0
C309 C 0.45907 0.2363 0.03135 0.0
C310 C 0.42107 0.26004 0.96299 0.0
C311 C 0.37955 0.22777 0.79853 0.0
H312 H 0.33068 0.26852 0.96093 0.0
H313 H 0.30008 0.14375 0.85131 0.0
H314 H 0.30961 0.28186 0.90834 0.0
H315 H 0.32111 0.13074 0.90299 0.0
H316 H 0.43136 0.18262 0.94789 0.0
H317 H 0.46123 0.30319 0.07846 0.0
H318 H 0.45336 0.17107 0.9802 0.0
H319 H 0.43921 0.31471 0.04629 0.0
C320 C 0.23613 0.27274 0.69436 0.0
C321 C 0.22581 0.24272 0.72417 0.0
C322 C 0.24881 0.26949 0.71883 0.0
C323 C 0.25126 0.23538 0.77455 0.0
C324 C 0.24088 0.20512 0.80537 0.0
C325 C 0.22829 0.2091 0.7797 0.0
C326 C 0.2596 0.30225 0.68413 0.0
C327 C 0.2431 0.16839 0.86513 0.0
C328 C 0.28453 0.20008 0.77453 0.0
C329 C 0.29007 0.22106 0.84769 0.0
C330 C 0.27195 0.20468 0.74977 0.0
C331 C 0.2647 0.23089 0.79934 0.0
C332 C 0.27029 0.25266 0.87259 0.0
C333 C 0.2829 0.24753 0.89583 0.0
C334 C 0.26639 0.18119 0.67086 0.0
C335 C 0.26287 0.28089 0.92711 0.0
H336 H 0.23433 0.29837 0.6503 0.0
H337 H 0.22036 0.18604 0.80361 0.0
H338 H 0.26519 0.31916 0.7374 0.0
H339 H 0.26629 0.28494 0.64641 0.0
H340 H 0.25606 0.32739 0.64285 0.0
H341 H 0.23399 0.14805 0.88451 0.0
H342 H 0.24935 0.14683 0.83399 0.0
H343 H 0.24815 0.18209 0.92329 0.0
H344 H 0.29006 0.18005 0.73636 0.0
H345 H 0.28704 0.2634 0.95302 0.0
H346 H 0.26337 0.20522 0.62489 0.0
H347 H 0.25771 0.15807 0.68793 0.0
H348 H 0.27334 0.16249 0.63872 0.0
H349 H 0.25962 0.30728 0.88785 0.0
H350 H 0.26866 0.29621 0.9812 0.0
H351 H 0.25415 0.26076 0.95304 0.0
C352 C 0.73545 0.27351 0.84842 0.0
C353 C 0.72484 0.24512 0.81776 0.0
C354 C 0.74791 0.27103 0.81832 0.0
C355 C 0.74985 0.23936 0.75592 0.0
C356 C 0.73919 0.21052 0.72471 0.0
C357 C 0.72682 0.21369 0.75612 0.0
C358 C 0.75901 0.30221 0.85361 0.0
C359 C 0.74086 0.17643 0.65791 0.0
C360 C 0.78036 0.2593 0.62264 0.0
C361 C 0.78815 0.23173 0.66242 0.0
C362 C 0.76787 0.26196 0.65215 0.0
C363 C 0.76304 0.23652 0.72336 0.0
C364 C 0.77086 0.20879 0.76411 0.0
C365 C 0.78331 0.2067 0.73311 0.0
C366 C 0.75982 0.29182 0.60678 0.0
C367 C 0.7661 0.18137 0.84055 0.0
H368 H 0.73405 0.29739 0.89713 0.0
H369 H 0.71867 0.19189 0.73161 0.0
H370 H 0.7661 0.28339 0.88355 0.0
H371 H 0.764 0.32193 0.80116 0.0
H372 H 0.75588 0.32498 0.90184 0.0
H373 H 0.73162 0.15647 0.64032 0.0
H374 H 0.74524 0.19265 0.59961 0.0
H375 H 0.74751 0.1541 0.6816 0.0
H376 H 0.78394 0.27823 0.56718 0.0
H377 H 0.7893 0.18566 0.76472 0.0
H378 H 0.75698 0.31648 0.652 0.0
H379 H 0.75087 0.27245 0.58268 0.0
H380 H 0.76498 0.30937 0.55226 0.0
H381 H 0.76355 0.20294 0.89275 0.0
H382 H 0.77335 0.16137 0.86479 0.0
H383 H 0.75726 0.15902 0.82368 0.0
C384 C 0.28793 0.75789 0.29614 0.0
C385 C 0.28989 0.73862 0.21697 0.0
C386 C 0.27549 0.76271 0.32446 0.0
C387 C 0.26475 0.74818 0.27219 0.0
C388 C 0.26669 0.72901 0.19199 0.0
C389 C 0.2792 0.72445 0.16547 0.0
C390 C 0.27384 0.78322 0.41049 0.0
C391 C 0.25554 0.71346 0.1339 0.0
C392 C 0.23151 0.72491 0.37356 0.0
C393 C 0.22629 0.76342 0.35455 0.0
C394 C 0.244 0.71953 0.34733 0.0
C395 C 0.25148 0.75342 0.30081 0.0
C396 C 0.24623 0.79216 0.28073 0.0
C397 C 0.23373 0.79665 0.30768 0.0
C398 C 0.24924 0.6777 0.37001 0.0
C399 C 0.25383 0.82896 0.23076 0.0
H400 H 0.29611 0.7686 0.3366 0.0
H401 H 0.28063 0.7102 0.10358 0.0
H402 H 0.26903 0.81291 0.40294 0.0
H403 H 0.26757 0.75989 0.45155 0.0
H404 H 0.28314 0.79265 0.44363 0.0
H405 H 0.25866 0.69908 0.0737 0.0
H406 H 0.24867 0.68839 0.16697 0.0
H407 H 0.25029 0.74129 0.11778 0.0
H408 H 0.22592 0.69928 0.41057 0.0
H409 H 0.22973 0.82625 0.2915 0.0
H410 H 0.25806 0.68543 0.40894 0.0
H411 H 0.25194 0.66118 0.31116 0.0
H412 H 0.2422 0.65443 0.40622 0.0
H413 H 0.26287 0.84104 0.26487 0.0
H414 H 0.24839 0.85702 0.22055 0.0
H415 H 0.25653 0.8167 0.16769 0.0
C416 C 0.73466 0.72567 0.14719 0.0
C417 C 0.72583 0.74007 0.20435 0.0
C418 C 0.74703 0.71931 0.17376 0.0
C419 C 0.75072 0.72744 0.25974 0.0
C420 C 0.74177 0.74092 0.31829 0.0
C421 C 0.72945 0.74707 0.28995 0.0
C422 C 0.75625 0.70471 0.10935 0.0
C423 C 0.74531 0.74992 0.41052 0.0
C424 C 0.77971 0.68006 0.3476 0.0
C425 C 0.78936 0.71649 0.34393 0.0
C426 C 0.76714 0.683 0.31995 0.0
C427 C 0.76409 0.72335 0.28772 0.0
C428 C 0.77381 0.76006 0.28277 0.0
C429 C 0.78629 0.75621 0.31091 0.0
C430 C 0.75708 0.64305 0.326 0.0
C431 C 0.77097 0.8037 0.24894 0.0
H432 H 0.7319 0.71948 0.08126 0.0
H433 H 0.72278 0.75866 0.33443 0.0
H434 H 0.76469 0.7304 0.10228 0.0
H435 H 0.75984 0.67445 0.13189 0.0
H436 H 0.75175 0.69819 0.04571 0.0
H437 H 0.73709 0.75825 0.44881 0.0
H438 H 0.7488 0.72084 0.43944 0.0
H439 H 0.75325 0.77762 0.41459 0.0
H440 H 0.782 0.6491 0.37211 0.0
H441 H 0.79359 0.78476 0.30908 0.0
H442 H 0.75288 0.63482 0.26218 0.0
H443 H 0.74914 0.6501 0.36821 0.0
H444 H 0.76102 0.61393 0.35136 0.0
H445 H 0.76704 0.79968 0.18335 0.0
H446 H 0.77964 0.82883 0.24763 0.0
H447 H 0.76357 0.81607 0.2892 0.0
C448 C 0.12238 0.89894 0.57052 0.0
C449 C 0.13104 0.88535 0.51141 0.0
C450 C 0.12184 0.94377 0.58485 0.0
C451 C 0.13004 0.97567 0.53817 0.0
C452 C 0.13859 0.96209 0.47709 0.0
C453 C 0.13904 0.91716 0.46485 0.0
C454 C 0.11268 0.95701 0.6511 0.0
C455 C 0.14737 -0.00494 0.4252 0.0
C456 C 0.12235 0.09243 0.51785 0.0
C457 C 0.13116 0.1151 0.5749 0.0
C458 C 0.12169 0.04687 0.50648 0.0
C459 C 0.12993 0.02335 0.55404 0.0
C460 C 0.13857 0.04583 0.61361 0.0
C461 C 0.13914 0.09147 0.62292 0.0
C462 C 0.11245 0.02415 0.44169 0.0
C463 C 0.14741 0.02181 0.66623 0.0
H464 H 0.11621 0.87456 0.60706 0.0
H465 H 0.14571 0.90697 0.41862 0.0
H466 H 0.11816 0.97632 0.70212 0.0
H467 H 0.1062 0.97841 0.62197 0.0
H468 H 0.10675 0.92821 0.68062 0.0
H469 H 0.15311 0.9791 0.37802 0.0
H470 H 0.14167 0.01725 0.39064 0.0
H471 H 0.15406 0.01577 0.4681 0.0
H472 H 0.11618 0.11043 0.48025 0.0
H473 H 0.14591 0.10867 0.66759 0.0
H474 H 0.10619 -0.00365 0.47181 0.0
H475 H 0.11788 0.0103 0.39003 0.0
H476 H 0.10628 0.04676 0.41274 0.0
H477 H 0.1418 -0.00606 0.70054 0.0
H478 H 0.15297 0.04357 0.7136 0.0
H479 H 0.15427 0.00791 0.62377 0.0
C480 C 0.88717 0.39524 0.45025 0.0
C481 C 0.8788 0.36914 0.50529 0.0
C482 C 0.8874 0.44084 0.44786 0.0
C483 C 0.87917 0.4607 0.50245 0.0
C484 C 0.87077 0.43461 0.55857 0.0
C485 C 0.87064 0.38901 0.559 0.0
C486 C 0.8964 0.46775 0.38664 0.0
C487 C 0.86196 0.45488 0.61822 0.0
C488 C 0.8882 0.58159 0.55005 0.0
C489 C 0.87991 0.60048 0.49562 0.0
C490 C 0.88797 0.536 0.55353 0.0
C491 C 0.87935 0.50886 0.50063 0.0
C492 C 0.87099 0.52769 0.44538 0.0
C493 C 0.87132 0.57336 0.44385 0.0
C494 C 0.89694 0.51687 0.61381 0.0
C495 C 0.86176 0.49962 0.3875 0.0
H496 H 0.89345 0.38001 0.40825 0.0
H497 H 0.8642 0.36899 0.60197 0.0
H498 H 0.89085 0.48631 0.3428 0.0
H499 H 0.90312 0.49215 0.42237 0.0
H500 H 0.90211 0.44714 0.34798 0.0
H501 H 0.85611 0.42997 0.65861 0.0
H502 H 0.86767 0.47911 0.66042 0.0
H503 H 0.85537 0.47287 0.58105 0.0
H504 H 0.8948 0.6024 0.59063 0.0
H505 H 0.86493 0.58781 0.40139 0.0
H506 H 0.90342 0.49815 0.57737 0.0
H507 H 0.89134 0.49351 0.65831 0.0
H508 H 0.90289 0.54253 0.65178 0.0
H509 H 0.86714 0.48018 0.34425 0.0
H510 H 0.85592 0.51947 0.34818 0.0
H511 H 0.85518 0.47596 0.42592 0.0
C512 C 0.87206 0.88774 0.55179 0.0
C513 C 0.88046 0.87002 0.49635 0.0
C514 C 0.87153 0.93292 0.55371 0.0
C515 C 0.87956 0.96089 0.49856 0.0
C516 C 0.88806 0.9433 0.44236 0.0
C517 C 0.88844 0.89795 0.44208 0.0
C518 C 0.86241 0.95073 0.61487 0.0
C519 C 0.89672 0.97237 0.38253 0.0
C520 C 0.86993 0.07251 0.45141 0.0
C521 C 0.87804 0.09941 0.50641 0.0
C522 C 0.8704 0.02726 0.44761 0.0
C523 C 0.87913 0.0087 0.50045 0.0
C524 C 0.88731 0.03564 0.55627 0.0
C525 C 0.88669 0.08077 0.55846 0.0
C526 C 0.86156 -0.00068 0.38717 0.0
C527 C 0.89668 0.01677 0.61391 0.0
H528 H 0.86589 0.86632 0.59408 0.0
H529 H 0.89492 0.88438 0.39892 0.0
H530 H 0.86785 0.97476 0.65873 0.0
H531 H 0.8556 0.96837 0.57908 0.0
H532 H 0.85682 0.92444 0.65355 0.0
H533 H 0.90269 0.9534 0.34225 0.0
H534 H 0.89089 -0.00928 0.34023 0.0
H535 H 0.90318 -0.00302 0.41957 0.0
H536 H 0.86326 0.0868 0.41081 0.0
H537 H 0.89297 0.10141 0.60124 0.0
H538 H 0.85522 0.97401 0.42348 0.0
H539 H 0.86728 0.98181 0.34248 0.0
H540 H 0.85547 0.01902 0.34944 0.0
H541 H 0.89143 -0.00808 0.65715 0.0
H542 H 0.90243 0.04235 0.65325 0.0
H543 H 0.90335 -0.00018 0.57528 0.0
C544 C 0.14828 0.60259 0.54153 0.0
C545 C 0.13907 0.6173 0.48794 0.0
C546 C 0.14852 0.5576 0.55528 0.0
C547 C 0.13942 0.52651 0.51376 0.0
C548 C 0.13032 0.54107 0.4578 0.0
C549 C 0.13021 0.58629 0.44591 0.0
C550 C 0.15831 0.54337 0.61588 0.0
C551 C 0.12057 0.50887 0.41155 0.0
C552 C 0.14643 0.40886 0.49613 0.0
C553 C 0.13867 0.38798 0.56113 0.0
C554 C 0.14675 0.4539 0.47988 0.0
C555 C 0.13924 0.47876 0.53039 0.0
C556 C 0.13151 0.458 0.59678 0.0
C557 C 0.13127 0.41281 0.61108 0.0
C558 C 0.15502 0.47478 0.40805 0.0
C559 C 0.12346 0.48352 0.65256 0.0
H560 H 0.15513 0.62625 0.57465 0.0
H561 H 0.12309 0.59732 0.40414 0.0
H562 H 0.15335 0.52501 0.67012 0.0
H563 H 0.16409 0.52082 0.58312 0.0
H564 H 0.16492 0.57162 0.64157 0.0
H565 H 0.1145 0.52545 0.36743 0.0
H566 H 0.12549 0.48541 0.37441 0.0
H567 H 0.11422 0.48943 0.4584 0.0
H568 H 0.15212 0.38989 0.45687 0.0
H569 H 0.12527 0.39695 0.66153 0.0
H570 H 0.1621 0.50186 0.43307 0.0
H571 H 0.14898 0.48935 0.36088 0.0
H572 H 0.1603 0.45088 0.37469 0.0
H573 H 0.12965 0.51099 0.68405 0.0
H574 H 0.11816 0.46268 0.70252 0.0
H575 H 0.1164 0.49814 0.61292 0.0
C576 C 0.63012 0.58594 0.12082 0.0
C577 C 0.63917 0.6169 0.08002 0.0
C578 C 0.63004 0.54071 0.10769 0.0
C579 C 0.63915 0.5261 0.05178 0.0
C580 C 0.64841 0.55713 1.01136 0.0
C581 C 0.64835 0.6021 0.02628 0.0
C582 C 0.62011 0.50857 0.15277 0.0
C583 C 0.65823 0.54287 0.95089 0.0
C584 C 0.64597 0.40814 0.06763 0.0
C585 C 0.63833 0.38775 1.00174 0.0
C586 C 0.64628 0.45306 0.0849 0.0
C587 C 0.63888 0.47836 0.03449 0.0
C588 C 0.63125 0.45809 0.9673 0.0
C589 C 0.631 0.41297 0.95203 0.0
C590 C 0.65444 0.47337 0.15759 0.0
C591 C 0.62333 0.48409 0.91154 0.0
H592 H 0.62301 0.59702 0.1626 0.0
H593 H 0.65535 0.62571 0.99409 0.0
H594 H 0.61382 0.48954 0.1052 0.0
H595 H 0.62488 0.48473 0.18998 0.0
H596 H 0.61401 0.52514 0.19662 0.0
H597 H 0.66492 0.57108 0.92564 0.0
H598 H 0.66393 0.52006 0.98363 0.0
H599 H 0.6533 0.5248 0.89634 0.0
H600 H 0.65159 0.38886 0.10676 0.0
H601 H 0.62509 0.39749 0.90092 0.0
H602 H 0.64835 0.48798 0.20443 0.0
H603 H 0.66164 0.50033 0.13338 0.0
H604 H 0.65956 0.44911 0.19114 0.0
H605 H 0.61628 0.49877 0.95107 0.0
H606 H 0.61805 0.46358 0.86117 0.0
H607 H 0.62962 0.51153 0.88055 0.0
C608 C 0.37679 0.88668 0.11843 0.0
C609 C 0.38477 0.86288 0.07076 0.0
C610 C 0.37731 0.93225 0.10803 0.0
C611 C 0.3859 0.95449 0.0477 0.0
C612 C 0.39413 0.9308 1.00042 0.0
C613 C 0.39352 0.88533 1.01289 0.0
C614 C 0.36849 0.95647 0.16042 0.0
C615 C 0.40332 0.95324 0.93482 0.0
C616 C 0.37675 0.06041 0.95708 0.0
C617 C 0.3848 0.09235 1.00285 0.0
C618 C 0.3772 0.0155 0.97001 0.0
C619 C 0.38579 0.00211 0.03103 0.0
C620 C 0.39403 0.03416 0.07689 0.0
C621 C 0.3935 0.07894 0.06184 0.0
C622 C 0.36838 0.98237 0.91895 0.0
C623 C 0.40323 0.02113 0.14304 0.0
H624 H 0.37006 0.86966 0.1637 0.0
H625 H 0.39969 0.8672 0.97552 0.0
H626 H 0.37411 0.98447 0.19413 0.0
H627 H 0.36162 0.9702 0.11788 0.0
H628 H 0.36296 0.93489 0.20829 0.0
H629 H 0.40946 0.93051 0.90599 0.0
H630 H 0.39784 0.96689 0.88317 0.0
H631 H 0.4096 0.98116 0.96419 0.0
H632 H 0.37006 0.07047 0.91096 0.0
H633 H 0.3997 0.10342 0.09779 0.0
H634 H 0.36171 0.96185 0.9624 0.0
H635 H 0.37405 0.96002 0.8846 0.0
H636 H 0.36262 -0.00182 0.87168 0.0
H637 H 0.39778 0.00201 0.19454 0.0
H638 H 0.40919 0.05002 0.1719 0.0
H639 H 0.40969 -0.0004 0.11403 0.0
C640 C 0.38574 0.39214 0.94005 0.0
C641 C 0.37678 0.36091 0.9809 0.0
C642 C 0.38564 0.4373 0.95274 0.0
C643 C 0.37643 0.45161 1.0083 0.0
C644 C 0.36723 0.4203 0.04856 0.0
C645 C 0.36746 0.37537 0.03403 0.0
C646 C 0.39551 0.46971 0.90777 0.0
C647 C 0.35731 0.43424 0.10866 0.0
C648 C 0.38458 0.56477 0.10778 0.0
C649 C 0.37733 0.59005 0.05769 0.0
C650 C 0.38427 0.51959 0.09297 0.0
C651 C 0.37663 0.4993 0.02582 0.0
C652 C 0.36927 0.52461 0.97518 0.0
C653 C 0.36965 0.56961 0.99202 0.0
C654 C 0.39215 0.49359 0.14897 0.0
C655 C 0.36111 0.50428 0.90249 0.0
H656 H 0.39294 0.38133 0.89862 0.0
H657 H 0.36053 0.35154 0.06621 0.0
H658 H 0.39069 0.49351 0.87078 0.0
H659 H 0.40178 0.48876 0.95542 0.0
H660 H 0.40164 0.45336 0.86373 0.0
H661 H 0.35062 0.40587 0.13323 0.0
H662 H 0.36217 0.45214 0.16366 0.0
H663 H 0.35164 0.45711 0.07592 0.0
H664 H 0.39051 0.58027 0.15878 0.0
H665 H 0.36407 0.58893 0.95262 0.0
H666 H 0.39928 0.47913 0.10969 0.0
H667 H 0.38585 0.46598 0.17943 0.0
H668 H 0.39734 0.51404 0.19976 0.0
H669 H 0.36723 0.48998 0.85538 0.0
H670 H 0.35591 0.52846 0.8693 0.0
H671 H 0.35397 0.47709 0.92655 0.0
C672 C 0.62293 0.09251 0.04707 0.0
C673 C 0.63141 0.11511 0.98774 0.0
C674 C 0.62255 0.04714 0.05998 0.0
C675 C 0.63072 0.02368 1.01164 0.0
C676 C 0.63903 0.04607 0.94992 0.0
C677 C 0.63934 0.09154 0.93913 0.0
C678 C 0.61366 0.02454 0.12706 0.0
C679 C 0.64777 0.02212 0.89632 0.0
C680 C 0.6404 0.91811 0.10081 0.0
C681 C 0.63222 0.88595 0.05648 0.0
C682 C 0.63985 0.96297 0.08782 0.0
C683 C 0.63102 0.97611 0.02817 0.0
C684 C 0.62267 0.94384 0.98353 0.0
C685 C 0.62332 0.89913 0.99864 0.0
C686 C 0.64879 -0.00365 0.13755 0.0
C687 C 0.61323 0.95656 0.91873 0.0
H688 H 0.61681 0.11048 0.08519 0.0
H689 H 0.64585 0.10868 0.89276 0.0
H690 H 0.60732 -0.00352 0.09864 0.0
H691 H 0.61938 0.01108 0.17768 0.0
H692 H 0.60758 0.04712 0.15702 0.0
H693 H 0.6531 0.04379 0.84771 0.0
H694 H 0.65483 0.00869 0.93788 0.0
H695 H 0.64212 -0.00607 0.86336 0.0
H696 H 0.64725 0.90824 0.14602 0.0
H697 H 0.61701 0.87451 0.96377 0.0
H698 H 0.64318 0.01851 0.17296 0.0
H699 H 0.65525 0.01702 0.0931 0.0
H700 H 0.65477 0.98074 0.18373 0.0
H701 H 0.60677 0.97774 0.94884 0.0
H702 H 0.60728 0.92751 0.89036 0.0
H703 H 0.61847 0.97593 0.86671 0.0
C704 C 0.12665 0.27363 0.26826 0.0
C705 C 0.13436 0.2483 0.31465 0.0
C706 C 0.12705 0.2748 0.17857 0.0
C707 C 0.13515 0.24934 0.13409 0.0
C708 C 0.14278 0.22311 0.18064 0.0
C709 C 0.14238 0.22325 0.27023 0.0
C710 C 0.1189 0.30368 0.13142 0.0
C711 C 0.15133 0.19475 0.1358 0.0
C712 C 0.12705 0.22103 0.90237 0.0
C713 C 0.13617 0.25036 0.85825 0.0
C714 C 0.12671 0.22005 0.99192 0.0
C715 C 0.13554 0.2497 0.03886 0.0
C716 C 0.14476 0.27948 0.99475 0.0
C717 C 0.14505 0.27915 0.90499 0.0
C718 C 0.11691 0.18713 0.03631 0.0
C719 C 0.15422 0.31207 0.0424 0.0
H720 H 0.12051 0.29337 0.3021 0.0
H721 H 0.14831 0.20335 0.30556 0.0
H722 H 0.12509 0.32752 0.09089 0.0
H723 H 0.11211 0.28345 0.08844 0.0
H724 H 0.11331 0.32215 0.17535 0.0
H725 H 0.15646 0.17556 0.1812 0.0
H726 H 0.14553 0.17158 0.09207 0.0
H727 H 0.15854 0.2155 0.09635 0.0
H728 H 0.12021 0.19842 0.8668 0.0
H729 H 0.15207 0.30209 0.8714 0.0
H730 H 0.11049 0.20448 0.07617 0.0
H731 H 0.12181 0.16621 0.0796 0.0
H732 H 0.11093 0.1656 0.99061 0.0
H733 H 0.14899 0.33308 0.08339 0.0
H734 H 0.16064 0.33351 0.99877 0.0
H735 H 0.16022 0.29449 0.08497 0.0
C736 C 0.87005 0.26028 0.19002 0.0
C737 C 0.87814 0.23569 0.23496 0.0
C738 C 0.87005 0.26129 0.10038 0.0
C739 C 0.87812 0.23638 0.05441 0.0
C740 C 0.88623 0.21123 0.09946 0.0
C741 C 0.88624 0.21156 0.18912 0.0
C742 C 0.86144 0.28922 0.05486 0.0
C743 C 0.8948 0.18357 0.05293 0.0
C744 C 0.86911 0.2065 0.82451 0.0
C745 C 0.87794 0.23603 0.77864 0.0
C746 C 0.86914 0.206 0.91415 0.0
C747 C 0.87802 0.23641 0.9592 0.0
C748 C 0.88684 0.26671 0.91323 0.0
C749 C 0.88678 0.26585 0.82357 0.0
C750 C 0.85974 0.17262 0.96068 0.0
C751 C 0.89629 0.30022 0.95876 0.0
H752 H 0.86384 0.27929 0.22499 0.0
H753 H 0.89245 0.19224 0.22337 0.0
H754 H 0.86726 0.31306 1.0123 0.0
H755 H 0.85449 0.26826 1.0141 0.0
H756 H 0.85601 0.30763 0.09988 0.0
H757 H 0.90039 0.16533 0.09729 0.0
H758 H 0.88893 0.15959 1.01108 0.0
H759 H 0.90162 0.20467 1.01134 0.0
H760 H 0.86231 0.18314 0.79029 0.0
H761 H 0.89357 0.289 0.7886 0.0
H762 H 0.85345 0.18953 1.00233 0.0
H763 H 0.86502 0.1521 1.00247 0.0
H764 H 0.85361 0.15074 0.91631 0.0
H765 H 0.89109 0.32057 1.00137 0.0
H766 H 0.90228 0.32226 0.91376 0.0
H767 H 0.90273 0.2834 0.99949 0.0
C768 C 0.12737 0.77127 0.16697 0.0
C769 C 0.13637 0.7505 0.21216 0.0
C770 C 0.12728 0.77217 0.07722 0.0
C771 C 0.13626 0.75114 0.03086 0.0
C772 C 0.14532 0.72983 0.07603 0.0
C773 C 0.14534 0.7301 0.16597 0.0
C774 C 0.11758 0.79588 0.03198 0.0
C775 C 0.15494 0.70642 0.02931 0.0
C776 C 0.12789 0.71995 0.79972 0.0
C777 C 0.13553 0.75313 0.75398 0.0
C778 C 0.12818 0.71853 0.88949 0.0
C779 C 0.13614 0.7515 0.9352 0.0
C780 C 0.1438 0.78525 0.88941 0.0
C781 C 0.14349 0.78545 0.79959 0.0
C782 C 0.11999 0.6816 0.93547 0.0
C783 C 0.15226 0.82146 0.93536 0.0
H784 H 0.12044 0.78739 0.20181 0.0
H785 H 0.15229 0.71376 0.20011 0.0
H786 H 0.12259 0.82174 0.98974 0.0
H787 H 0.11133 0.7726 0.99093 0.0
H788 H 0.11142 0.81139 0.07715 0.0
H789 H 0.16122 0.69086 0.07354 0.0
H790 H 0.14985 0.68065 0.98735 0.0
H791 H 0.16106 0.72989 0.98777 0.0
H792 H 0.12178 0.6946 0.76528 0.0
H793 H 0.14939 0.81135 0.76508 0.0
H794 H 0.113 0.69507 0.97751 0.0
H795 H 0.1261 0.66377 0.97681 0.0
H796 H 0.11462 0.65779 0.89075 0.0
H797 H 0.14635 0.83922 0.97825 0.0
H798 H 0.15758 0.84548 0.89065 0.0
H799 H 0.1593 0.80731 0.97585 0.0
C800 C 0.88941 0.76295 0.80878 0.0
C801 C 0.8809 0.73254 0.7627 0.0
C802 C 0.88906 0.76413 0.89847 0.0
C803 C 0.88016 0.73358 0.94338 0.0
C804 C 0.87168 0.7024 0.89718 0.0
C805 C 0.87207 0.70254 0.80754 0.0
C806 C 0.89814 0.79834 0.94517 0.0
C807 C 0.86223 0.66867 0.94248 0.0
C808 C 0.88773 0.71027 0.17508 0.0
C809 C 0.87943 0.73431 0.21943 0.0
C810 C 0.88796 0.70936 0.0855 0.0
C811 C 0.87986 0.73379 0.0387 0.0
C812 C 0.87147 0.75828 0.08304 0.0
C813 C 0.87126 0.75787 0.17283 0.0
C814 C 0.89684 0.6821 0.04092 0.0
C815 C 0.86283 0.78532 0.03561 0.0
H816 H 0.89619 0.7865 0.77468 0.0
H817 H 0.8655 0.67875 0.77252 0.0
H818 H 0.89261 0.81854 0.9859 0.0
H819 H 0.90446 0.78216 0.98791 0.0
H820 H 0.90425 0.82044 0.90093 0.0
H821 H 0.85644 0.64622 0.89737 0.0
H822 H 0.86743 0.64878 0.98605 0.0
H823 H 0.85562 0.68529 0.98218 0.0
H824 H 0.894 0.69166 0.21049 0.0
H825 H 0.86488 0.77675 0.20656 0.0
H826 H 0.90379 0.70348 1.00069 0.0
H827 H 0.89125 0.65796 0.99798 0.0
H828 H 0.90229 0.66406 0.08652 0.0
H829 H 0.86869 0.8097 0.99431 0.0
H830 H 0.85702 0.80304 0.07939 0.0
H831 H 0.85624 0.76388 0.99337 0.0
C832 C 0.64602 0.73032 0.40508 0.0
C833 C 0.63714 0.75107 0.35876 0.0
C834 C 0.64598 0.73013 0.49504 0.0
C835 C 0.63699 0.75184 0.5401 0.0
C836 C 0.62811 0.77327 0.49359 0.0
C837 C 0.62823 0.77232 0.40386 0.0
C838 C 0.65549 0.70635 0.54192 0.0
C839 C 0.6185 0.79742 0.53868 0.0
C840 C 0.62836 0.7209 0.77124 0.0
C841 C 0.63608 0.75379 0.817 0.0
C842 C 0.62871 0.71947 0.68147 0.0
C843 C 0.63681 0.75216 0.63578 0.0
C844 C 0.64454 0.78567 0.68161 0.0
C845 C 0.64416 0.78586 0.77141 0.0
C846 C 0.62044 0.68281 0.63547 0.0
C847 C 0.65314 0.82161 0.6357 0.0
H848 H 0.65291 0.71365 0.37103 0.0
H849 H 0.62137 0.78872 0.36896 0.0
H850 H 0.66164 0.7296 0.58357 0.0
H851 H 0.6503 0.68066 0.58378 0.0
H852 H 0.66175 0.69062 0.49779 0.0
H853 H 0.61243 0.81327 0.49341 0.0
H854 H 0.61214 0.77435 0.57965 0.0
H855 H 0.62357 0.82307 0.58097 0.0
H856 H 0.62216 0.69574 0.80568 0.0
H857 H 0.65013 0.81154 0.80595 0.0
H858 H 0.62652 0.66472 0.59433 0.0
H859 H 0.61354 0.69659 0.59323 0.0
H860 H 0.61497 0.65917 0.68018 0.0
H861 H 0.66015 0.80718 0.59538 0.0
H862 H 0.6585 0.84545 0.68043 0.0
H863 H 0.64732 0.83965 0.59265 0.0
C864 C 0.38911 0.70393 0.76625 0.0
C865 C 0.38154 0.72977 0.81254 0.0
C866 C 0.38869 0.7026 0.67659 0.0
C867 C 0.38071 0.72845 0.63198 0.0
C868 C 0.37322 0.75517 0.67843 0.0
C869 C 0.37362 0.75515 0.76802 0.0
C870 C 0.39668 0.67314 0.6296 0.0
C871 C 0.36481 0.78397 0.63345 0.0
C872 C 0.38898 0.75611 0.40002 0.0
C873 C 0.37976 0.72716 0.35607 0.0
C874 C 0.3893 0.75719 0.48957 0.0
C875 C 0.38033 0.72802 0.53673 0.0
C876 C 0.37101 0.6986 0.49281 0.0
C877 C 0.37075 0.69883 0.40303 0.0
C878 C 0.39921 0.7897 0.53373 0.0
C879 C 0.36141 0.66652 0.54068 0.0
H880 H 0.39516 0.68391 0.8002 0.0
H881 H 0.36779 0.77542 0.8033 0.0
H882 H 0.39039 0.64959 0.58922 0.0
H883 H 0.40356 0.693 0.5865 0.0
H884 H 0.40215 0.65433 0.67364 0.0
H885 H 0.35976 0.8035 0.67875 0.0
H886 H 0.3707 0.80687 0.58954 0.0
H887 H 0.35753 0.76351 0.59415 0.0
H888 H 0.39592 0.77837 0.36433 0.0
H889 H 0.36365 0.67618 0.3696 0.0
H890 H 0.40554 0.77202 0.5737 0.0
H891 H 0.39441 0.81095 0.57689 0.0
H892 H 0.40529 0.81093 0.48788 0.0
H893 H 0.36653 0.64523 0.58185 0.0
H894 H 0.35492 0.64533 0.4972 0.0
H895 H 0.3555 0.68451 0.5831 0.0
C896 C 0.62673 0.27434 0.29164 0.0
C897 C 0.63436 0.24864 0.24551 0.0
C898 C 0.62709 0.27559 0.3813 0.0
C899 C 0.63507 0.24981 0.42605 0.0
C900 C 0.64265 0.22329 0.37976 0.0
C901 C 0.6423 0.22337 0.29015 0.0
C902 C 0.61902 0.30484 0.42814 0.0
C903 C 0.65108 0.19462 0.42491 0.0
C904 C 0.64483 0.2794 0.65526 0.0
C905 C 0.63584 0.25086 0.70192 0.0
C906 C 0.64463 0.2797 0.5655 0.0
C907 C 0.63538 0.25016 0.52129 0.0
C908 C 0.62643 0.2208 0.56813 0.0
C909 C 0.62669 0.2218 0.65769 0.0
C910 C 0.65422 0.31199 0.51796 0.0
C911 C 0.61658 0.18819 0.5236 0.0
H912 H 0.62067 0.29427 0.2576 0.0
H913 H 0.64817 0.20321 0.25499 0.0
H914 H 0.61212 0.28483 0.47093 0.0
H915 H 0.62525 0.32842 0.46881 0.0
H916 H 0.61355 0.32361 0.38398 0.0
H917 H 0.65619 0.17527 0.3797 0.0
H918 H 0.65829 0.21515 0.46454 0.0
H919 H 0.64518 0.17156 0.46852 0.0
H920 H 0.65188 0.30213 0.68891 0.0
H921 H 0.61976 0.19938 0.69317 0.0
H922 H 0.64909 0.33319 0.47666 0.0
H923 H 0.66019 0.29415 0.47571 0.0
H924 H 0.66065 0.33325 0.56166 0.0
H925 H 0.61026 0.20578 0.48343 0.0
H926 H 0.6105 0.16685 0.56923 0.0
H927 H 0.62145 0.16705 0.4806 0.0
C928 C 0.37233 0.19197 0.29091 0.0
C929 C 0.38022 0.22447 0.24508 0.0
C930 C 0.37203 0.19216 0.38075 0.0
C931 C 0.37963 0.22608 0.42633 0.0
C932 C 0.38752 0.25921 0.38037 0.0
C933 C 0.3878 0.2578 0.2906 0.0
C934 C 0.36365 0.15578 0.42695 0.0
C935 C 0.39565 0.29632 0.42609 0.0
C936 C 0.37043 0.24749 0.65717 0.0
C937 C 0.37946 0.22735 0.70335 0.0
C938 C 0.37043 0.24762 0.56723 0.0
C939 C 0.37952 0.22647 0.52201 0.0
C940 C 0.38856 0.20572 0.56835 0.0
C941 C 0.38849 0.20671 0.6581 0.0
C942 C 0.36074 0.2707 0.52053 0.0
C943 C 0.39831 0.18222 0.52306 0.0
H944 H 0.36647 0.16595 0.25656 0.0
H945 H 0.39386 0.28328 0.25599 0.0
H946 H 0.36962 0.13819 0.46979 0.0
H947 H 0.35657 0.16974 0.46751 0.0
H948 H 0.35837 0.13165 0.3824 0.0
H949 H 0.40097 0.32023 0.3812 0.0
H950 H 0.3895 0.314 0.46744 0.0
H951 H 0.40267 0.28304 0.46808 0.0
H952 H 0.36345 0.26371 0.69132 0.0
H953 H 0.39547 0.1908 0.6929 0.0
H954 H 0.35466 0.24707 0.4792 0.0
H955 H 0.36577 0.29656 0.47836 0.0
H956 H 0.35442 0.2861 0.56478 0.0
H957 H 0.39334 0.15625 0.48103 0.0
H958 H 0.40451 0.16689 0.56822 0.0
H959 H 0.40451 0.20559 0.4818 0.0
C960 C 0.03704 0.27828 0.49085 0.0
C961 C 0.04154 0.23833 0.50878 0.0
C962 C 0.02384 0.28073 0.48396 0.0
C963 C 0.01489 0.24236 0.49564 0.0
C964 C 0.01937 0.20172 0.51133 0.0
C965 C 0.03262 0.20018 0.51755 0.0
C966 C 0.01947 0.32467 0.46691 0.0
C967 C 0.01013 0.16003 0.52383 0.0
C968 C 0.9812 0.25514 0.57057 0.0
C969 C 0.97411 0.24851 0.49485 0.0
C970 C 0.99448 0.25342 0.57157 0.0
C971 C 1.00085 0.24503 0.49491 0.0
C972 C 0.99378 0.23884 0.41805 0.0
C973 C 0.9805 0.24058 0.41897 0.0
C974 C 1.00166 0.25999 0.65496 0.0
C975 C 1.00023 0.23019 0.33493 0.0
H976 H 0.04382 0.30806 0.48523 0.0
H977 H 0.03601 0.16909 0.53029 0.0
H978 H 0.01285 0.32231 0.41153 0.0
H979 H 0.01407 0.33457 0.52284 0.0
H980 H 0.02763 0.35082 0.45396 0.0
H981 H 0.01516 0.13081 0.53212 0.0
H982 H 1.0041 0.16322 0.58099 0.0
H983 H 1.00358 0.15441 0.46835 0.0
H984 H 0.97631 0.26072 0.62961 0.0
H985 H 0.97511 0.23597 0.36002 0.0
H986 H 0.00956 0.28774 0.64929 0.0
H987 H 1.00608 0.23022 0.67054 0.0
H988 H 0.99533 0.2668 0.70869 0.0
H989 H 0.00802 0.25742 0.32077 0.0
H990 H 0.99341 0.22667 0.28053 0.0
H991 H 1.00473 0.19971 0.34014 0.0
C992 C 0.97987 0.70881 0.50762 0.0
C993 C 0.97408 0.73733 0.56038 0.0
C994 C 0.99317 0.70734 0.51058 0.0
C995 C 1.00094 0.7351 0.56764 0.0
C996 C 0.99513 0.76316 0.62264 0.0
C997 C 0.9818 0.76396 0.61834 0.0
C998 C 0.99895 0.67695 0.45073 0.0
C999 C 1.00305 0.79309 0.6847 0.0
C1000 C 0.03439 0.70614 0.61312 0.0
C1001 C 0.04203 0.7339 0.55638 0.0
C1002 C 0.02107 0.70685 0.619 0.0
C1003 C 0.01519 0.73599 0.56686 0.0
C1004 C 0.02288 0.76486 0.51107 0.0
C1005 C 0.03617 0.76346 0.5065 0.0
C1006 C 0.01324 0.67571 0.67965 0.0
C1007 C 0.01702 0.79641 0.45423 0.0
H1008 H 0.97407 0.68859 0.46168 0.0
H1009 H 0.97742 0.78572 0.6601 0.0
H1010 H 1.00562 0.6965 0.40585 0.0
H1011 H 1.00462 0.65542 0.4872 0.0
H1012 H 0.99154 0.65597 0.41311 0.0
H1013 H 0.99702 0.81131 0.72609 0.0
H1014 H 0.0088 0.77382 0.72578 0.0
H1015 H 0.0099 0.81722 0.64918 0.0
H1016 H 0.03884 0.68356 0.65271 0.0
H1017 H 0.04191 0.7846 0.46154 0.0
H1018 H 1.00633 0.65232 0.64313 0.0
H1019 H 1.00756 0.69416 0.72284 0.0
H1020 H 0.01932 0.65668 0.71891 0.0
H1021 H 0.01027 0.77777 0.40869 0.0
H1022 H 0.02437 0.81811 0.41736 0.0
H1023 H 0.0114 0.81722 0.49295 0.0
C1024 C 0.53381 0.6993 0.99904 0.0
C1025 C 0.54296 0.73591 1.01709 0.0
C1026 C 0.52064 0.70278 0.99569 0.0
C1027 C 0.51645 0.74405 1.00919 0.0
C1028 C 0.52565 0.7816 1.02264 0.0
C1029 C 0.53877 0.77707 0.02698 0.0
C1030 C 0.51117 0.66183 0.9816 0.0
C1031 C 0.52161 0.82631 0.03625 0.0
C1032 C 0.48171 0.75454 0.95173 0.0
C1033 C 0.47567 0.74917 0.0316 0.0
C1034 C 0.49503 0.75392 0.94345 0.0
C1035 C 0.50243 0.74708 1.01655 0.0
C1036 C 0.49635 0.74172 0.09725 0.0
C1037 C 0.4831 0.74303 0.10379 0.0
C1038 C 0.50117 0.76036 0.85652 0.0
C1039 C 0.50381 0.73371 0.17671 0.0
H1040 H 0.53693 0.66752 0.98928 0.0
H1041 H 0.54568 0.80556 0.04167 0.0
H1042 H 0.50522 0.65459 0.03971 0.0
H1043 H 0.50457 0.66687 0.92852 0.0
H1044 H 0.516 0.63277 0.96685 0.0
H1045 H 0.52992 0.85287 0.03608 0.0
H1046 H 0.51476 0.83334 0.98591 0.0
H1047 H 0.51658 0.82693 0.09839 0.0
H1048 H 0.47604 0.75954 0.8958 0.0
H1049 H 0.47847 0.73811 0.1655 0.0
H1050 H 0.5054 0.73061 0.83812 0.0
H1051 H 0.50912 0.78811 0.85823 0.0
H1052 H 0.4942 0.76707 0.80663 0.0
H1053 H 0.50819 0.70311 0.1694 0.0
H1054 H 0.49768 0.73071 0.23475 0.0
H1055 H 0.51175 0.76098 0.18629 0.0
C1056 C 0.47977 0.24686 0.11383 0.0
C1057 C 0.47289 0.23141 0.04078 0.0
C1058 C 0.49306 0.24563 0.12 0.0
C1059 C 0.49964 0.22895 0.05113 0.0
C1060 C 0.49268 0.21226 0.97818 0.0
C1061 C 0.47941 0.21358 0.97402 0.0
C1062 C 0.5001 0.26332 0.1992 0.0
C1063 C 0.49934 0.19459 0.90298 0.0
C1064 C 0.535 0.27106 1.01806 0.0
C1065 C 0.54094 0.23551 0.04627 0.0
C1066 C 0.5216 0.26954 1.0206 0.0
C1067 C 0.51391 0.23161 0.05261 0.0
C1068 C 0.51985 0.19591 0.08281 0.0
C1069 C 0.53329 0.19818 0.07884 0.0
C1070 C 0.51567 0.30814 0.98688 0.0
C1071 C 0.51198 0.15508 0.1181 0.0
H1072 H 0.47477 0.26029 0.16597 0.0
H1073 H 0.4742 0.20215 0.91686 0.0
H1074 H 0.50587 0.23877 0.22529 0.0
H1075 H 0.50688 0.2931 0.18291 0.0
H1076 H 0.49347 0.272 0.24961 0.0
H1077 H 0.49247 0.18056 0.85319 0.0
H1078 H 0.50614 0.22134 0.87393 0.0
H1079 H 0.50504 0.16878 0.9242 0.0
H1080 H 0.54081 0.2997 0.99141 0.0
H1081 H 0.53783 0.17072 0.10119 0.0
H1082 H 0.50955 0.32042 0.03654 0.0
H1083 H 0.5094 0.29765 0.93166 0.0
H1084 H 0.52301 0.33565 0.9663 0.0
H1085 H 0.50569 0.16391 0.17034 0.0
H1086 H 0.51807 0.13114 0.14292 0.0
H1087 H 0.50564 0.13889 0.06754 0.0
loop_
_geom_bond_atom_site_label_1
_geom_bond_atom_site_label_2
_geom_bond_distance
_geom_bond_site_symmetry_2
_ccdc_geom_bond_type
Eu0 C9 2.828 . S
Eu0 O11 2.392 . S
Eu0 O13 2.418 . S
Eu0 O18 2.373 . S
Eu0 O21 2.488 . S
Eu0 O22 2.471 . S
Eu0 O23 2.349 . S
Eu1 O10 2.373 . S
Eu1 O14 2.488 . S
Eu1 O15 2.471 . S
Eu1 O16 2.349 . S
Eu1 O19 2.392 . S
Eu1 O20 2.418 . S
Eu1 C30 2.828 . S
C2 O20 1.244 . S
C2 O23 1.265 . S
C3 C4 1.379 . S
C3 C7 1.373 . S
C3 C9 1.505 . S
C4 C3 1.379 . S
C4 C6 1.369 . S
C4 H32 0.930 . S
C5 C7 1.383 . S
C5 C8 1.382 . S
C5 H33 0.930 . S
C6 C4 1.369 . S
C6 C8 1.392 . S
C6 H34 0.930 . S
C7 C3 1.373 . S
C7 C5 1.383 . S
C7 H35 0.931 . S
C8 C5 1.382 . S
C8 C6 1.392 . S
C9 Eu0 2.828 . S
C9 C3 1.505 . S
C9 O21 1.249 . S
C9 O22 1.244 . S
O10 Eu1 2.373 . S
O10 C12 1.258 . S
O11 Eu0 2.392 . S
O11 C12 1.242 . S
C12 O10 1.258 . S
C12 O11 1.242 . S
O13 Eu0 2.418 . S
O13 C17 1.244 . S
O14 Eu1 2.488 . S
O14 C30 1.249 . S
O15 Eu1 2.471 . S
O15 C30 1.244 . S
O16 Eu1 2.349 . S
O16 C17 1.265 . S
C17 O13 1.244 . S
C17 O16 1.265 . S
O18 Eu0 2.373 . S
O18 C31 1.258 . S
O19 Eu1 2.392 . S
O19 C31 1.242 . S
O20 Eu1 2.418 . S
O20 C2 1.244 . S
O21 Eu0 2.488 . S
O21 C9 1.249 . S
O22 Eu0 2.471 . S
O22 C9 1.244 . S
O23 Eu0 2.349 . S
O23 C2 1.265 . S
C24 C25 1.379 . S
C24 C28 1.373 . S
C24 C30 1.505 . S
C25 C24 1.379 . S
C25 C27 1.369 . S
C25 H36 0.930 . S
C26 C28 1.383 . S
C26 C29 1.382 . S
C26 H37 0.930 . S
C27 C25 1.369 . S
C27 C29 1.392 . S
C27 H38 0.930 . S
C28 C24 1.373 . S
C28 C26 1.383 . S
C28 H39 0.931 . S
C29 C26 1.382 . S
C29 C27 1.392 . S
C30 Eu1 2.828 . S
C30 O14 1.249 . S
C30 O15 1.244 . S
C30 C24 1.505 . S
C31 O18 1.258 . S
C31 O19 1.242 . S
H32 C4 0.930 . S
H33 C5 0.930 . S
H34 C6 0.930 . S
H35 C7 0.931 . S
H36 C25 0.930 . S
H37 C26 0.930 . S
H38 C27 0.930 . S
H39 C28 0.931 . S
Eu40 C49 2.828 . S
Eu40 O51 2.392 . S
Eu40 O53 2.418 . S
Eu40 O58 2.373 . S
Eu40 O61 2.488 . S
Eu40 O62 2.471 . S
Eu40 O63 2.349 . S
Eu41 O50 2.373 . S
Eu41 O54 2.488 . S
Eu41 O55 2.471 . S
Eu41 O56 2.349 . S
Eu41 O59 2.392 . S
Eu41 O60 2.418 . S
Eu41 C70 2.828 . S
C42 O60 1.244 . S
C42 O63 1.265 . S
C43 C44 1.379 . S
C43 C47 1.373 . S
C43 C49 1.505 . S
C44 C43 1.379 . S
C44 C46 1.369 . S
C44 H72 0.930 . S
C45 C47 1.383 . S
C45 C48 1.382 . S
C45 H73 0.930 . S
C46 C44 1.369 . S
C46 C48 1.392 . S
C46 H74 0.930 . S
C47 C43 1.373 . S
C47 C45 1.383 . S
C47 H75 0.931 . S
C48 C45 1.382 . S
C48 C46 1.392 . S
C49 Eu40 2.828 . S
C49 C43 1.505 . S
C49 O61 1.249 . S
C49 O62 1.244 . S
O50 Eu41 2.373 . S
O50 C52 1.258 . S
O51 Eu40 2.392 . S
O51 C52 1.242 . S
C52 O50 1.258 . S
C52 O51 1.242 . S
O53 Eu40 2.418 . S
O53 C57 1.244 . S
O54 Eu41 2.488 . S
O54 C70 1.249 . S
O55 Eu41 2.471 . S
O55 C70 1.244 . S
O56 Eu41 2.349 . S
O56 C57 1.265 . S
C57 O53 1.244 . S
C57 O56 1.265 . S
O58 Eu40 2.373 . S
O58 C71 1.258 . S
O59 Eu41 2.392 . S
O59 C71 1.242 . S
O60 Eu41 2.418 . S
O60 C42 1.244 . S
O61 Eu40 2.488 . S
O61 C49 1.249 . S
O62 Eu40 2.471 . S
O62 C49 1.244 . S
O63 Eu40 2.349 . S
O63 C42 1.265 . S
C64 C65 1.379 . S
C64 C68 1.373 . S
C64 C70 1.505 . S
C65 C64 1.379 . S
C65 C67 1.369 . S
C65 H76 0.930 . S
C66 C68 1.383 . S
C66 C69 1.382 . S
C66 H77 0.930 . S
C67 C65 1.369 . S
C67 C69 1.392 . S
C67 H78 0.930 . S
C68 C64 1.373 . S
C68 C66 1.383 . S
C68 H79 0.931 . S
C69 C66 1.382 . S
C69 C67 1.392 . S
C70 Eu41 2.828 . S
C70 O54 1.249 . S
C70 O55 1.244 . S
C70 C64 1.505 . S
C71 O58 1.258 . S
C71 O59 1.242 . S
H72 C44 0.930 . S
H73 C45 0.930 . S
H74 C46 0.930 . S
H75 C47 0.931 . S
H76 C65 0.930 . S
H77 C66 0.930 . S
H78 C67 0.930 . S
H79 C68 0.931 . S
Eu80 C89 2.828 . S
Eu80 O91 2.392 . S
Eu80 O93 2.418 . S
Eu80 O98 2.373 . S
Eu80 O101 2.488 . S
Eu80 O102 2.471 . S
Eu80 O103 2.349 . S
Eu81 O90 2.373 . S
Eu81 O94 2.488 . S
Eu81 O95 2.471 . S
Eu81 O96 2.349 . S
Eu81 O99 2.392 . S
Eu81 O100 2.418 . S
Eu81 C110 2.828 . S
C82 O100 1.244 . S
C82 O103 1.265 . S
C83 C84 1.379 . S
C83 C87 1.373 . S
C83 C89 1.505 . S
C84 C83 1.379 . S
C84 C86 1.369 . S
C84 H112 0.930 . S
C85 C87 1.383 . S
C85 C88 1.382 . S
C85 H113 0.930 . S
C86 C84 1.369 . S
C86 C88 1.392 . S
C86 H114 0.930 . S
C87 C83 1.373 . S
C87 C85 1.383 . S
C87 H115 0.931 . S
C88 C85 1.382 . S
C88 C86 1.392 . S
C89 Eu80 2.828 . S
C89 C83 1.505 . S
C89 O101 1.249 . S
C89 O102 1.244 . S
O90 Eu81 2.373 . S
O90 C92 1.258 . S
O91 Eu80 2.392 . S
O91 C92 1.242 . S
C92 O90 1.258 . S
C92 O91 1.242 . S
O93 Eu80 2.418 . S
O93 C97 1.244 . S
O94 Eu81 2.488 . S
O94 C110 1.249 . S
O95 Eu81 2.471 . S
O95 C110 1.244 . S
O96 Eu81 2.349 . S
O96 C97 1.265 . S
C97 O93 1.244 . S
C97 O96 1.265 . S
O98 Eu80 2.373 . S
O98 C111 1.258 . S
O99 Eu81 2.392 . S
O99 C111 1.242 . S
O100 Eu81 2.418 . S
O100 C82 1.244 . S
O101 Eu80 2.488 . S
O101 C89 1.249 . S
O102 Eu80 2.471 . S
O102 C89 1.244 . S
O103 Eu80 2.349 . S
O103 C82 1.265 . S
C104 C105 1.379 . S
C104 C108 1.373 . S
C104 C110 1.505 . S
C105 C104 1.379 . S
C105 C107 1.369 . S
C105 H116 0.930 . S
C106 C108 1.383 . S
C106 C109 1.382 . S
C106 H117 0.930 . S
C107 C105 1.369 . S
C107 C109 1.392 . S
C107 H118 0.930 . S
C108 C104 1.373 . S
C108 C106 1.383 . S
C108 H119 0.931 . S
C109 C106 1.382 . S
C109 C107 1.392 . S
C110 Eu81 2.828 . S
C110 O94 1.249 . S
C110 O95 1.244 . S
C110 C104 1.505 . S
C111 O98 1.258 . S
C111 O99 1.242 . S
H112 C84 0.930 . S
H113 C85 0.930 . S
H114 C86 0.930 . S
H115 C87 0.931 . S
H116 C105 0.930 . S
H117 C106 0.930 . S
H118 C107 0.930 . S
H119 C108 0.931 . S
Eu120 C129 2.828 . S
Eu120 O131 2.392 . S
Eu120 O133 2.418 . S
Eu120 O138 2.373 . S
Eu120 O141 2.488 . S
Eu120 O142 2.471 . S
Eu120 O143 2.349 . S
Eu121 O130 2.373 . S
Eu121 O134 2.488 . S
Eu121 O135 2.471 . S
Eu121 O136 2.349 . S
Eu121 O139 2.392 . S
Eu121 O140 2.418 . S
Eu121 C150 2.828 . S
C122 O140 1.244 . S
C122 O143 1.265 . S
C123 C124 1.379 . S
C123 C127 1.373 . S
C123 C129 1.505 . S
C124 C123 1.379 . S
C124 C126 1.369 . S
C124 H152 0.930 . S
C125 C127 1.383 . S
C125 C128 1.382 . S
C125 H153 0.930 . S
C126 C124 1.369 . S
C126 C128 1.392 . S
C126 H154 0.930 . S
C127 C123 1.373 . S
C127 C125 1.383 . S
C127 H155 0.931 . S
C128 C125 1.382 . S
C128 C126 1.392 . S
C129 Eu120 2.828 . S
C129 C123 1.505 . S
C129 O141 1.249 . S
C129 O142 1.244 . S
O130 Eu121 2.373 . S
O130 C132 1.258 . S
O131 Eu120 2.392 . S
O131 C132 1.242 . S
C132 O130 1.258 . S
C132 O131 1.242 . S
O133 Eu120 2.418 . S
O133 C137 1.244 . S
O134 Eu121 2.488 . S
O134 C150 1.249 . S
O135 Eu121 2.471 . S
O135 C150 1.244 . S
O136 Eu121 2.349 . S
O136 C137 1.265 . S
C137 O133 1.244 . S
C137 O136 1.265 . S
O138 Eu120 2.373 . S
O138 C151 1.258 . S
O139 Eu121 2.392 . S
O139 C151 1.242 . S
O140 Eu121 2.418 . S
O140 C122 1.244 . S
O141 Eu120 2.488 . S
O141 C129 1.249 . S
O142 Eu120 2.471 . S
O142 C129 1.244 . S
O143 Eu120 2.349 . S
O143 C122 1.265 . S
C144 C145 1.379 . S
C144 C148 1.373 . S
C144 C150 1.505 . S
C145 C144 1.379 . S
C145 C147 1.369 . S
C145 H156 0.930 . S
C146 C148 1.383 . S
C146 C149 1.382 . S
C146 H157 0.930 . S
C147 C145 1.369 . S
C147 C149 1.392 . S
C147 H158 0.930 . S
C148 C144 1.373 . S
C148 C146 1.383 . S
C148 H159 0.931 . S
C149 C146 1.382 . S
C149 C147 1.392 . S
C150 Eu121 2.828 . S
C150 O134 1.249 . S
C150 O135 1.244 . S
C150 C144 1.505 . S
C151 O138 1.258 . S
C151 O139 1.242 . S
H152 C124 0.930 . S
H153 C125 0.930 . S
H154 C126 0.930 . S
H155 C127 0.931 . S
H156 C145 0.930 . S
H157 C146 0.930 . S
H158 C147 0.930 . S
H159 C148 0.931 . S
Eu160 C169 2.828 1_554 S
Eu160 O171 2.392 . S
Eu160 O173 2.418 . S
Eu160 O178 2.373 1_554 S
Eu160 O181 2.488 1_554 S
Eu160 O182 2.471 1_554 S
Eu160 O183 2.349 . S
Eu161 O170 2.373 1_556 S
Eu161 O174 2.488 1_556 S
Eu161 O175 2.471 1_556 S
Eu161 O176 2.351 . S
Eu161 O179 2.392 . S
Eu161 O180 2.418 . S
Eu161 C190 2.828 1_556 S
C162 O180 1.244 1_554 S
C162 O183 1.265 . S
C163 C164 1.379 . S
C163 C167 1.373 . S
C163 C169 1.505 . S
C164 C163 1.379 . S
C164 C166 1.369 . S
C164 H192 0.930 . S
C165 C167 1.383 . S
C165 C168 1.382 . S
C165 H193 0.930 . S
C166 C164 1.369 . S
C166 C168 1.392 . S
C166 H194 0.930 . S
C167 C163 1.373 . S
C167 C165 1.383 . S
C167 H195 0.931 . S
C168 C165 1.382 . S
C168 C166 1.392 . S
C169 Eu160 2.828 1_556 S
C169 C163 1.505 . S
C169 O181 1.249 . S
C169 O182 1.244 . S
O170 Eu161 2.373 1_554 S
O170 C172 1.258 . S
O171 Eu160 2.392 . S
O171 C172 1.242 . S
C172 O170 1.258 . S
C172 O171 1.242 . S
O173 Eu160 2.418 . S
O173 C177 1.244 1_554 S
O174 Eu161 2.488 1_554 S
O174 C190 1.249 . S
O175 Eu161 2.471 1_554 S
O175 C190 1.244 . S
O176 Eu161 2.351 . S
O176 C177 1.265 . S
C177 O173 1.244 1_556 S
C177 O176 1.265 . S
O178 Eu160 2.373 1_556 S
O178 C191 1.258 . S
O179 Eu161 2.392 . S
O179 C191 1.242 . S
O180 Eu161 2.418 . S
O180 C162 1.244 1_556 S
O181 Eu160 2.488 1_556 S
O181 C169 1.249 . S
O182 Eu160 2.471 1_556 S
O182 C169 1.244 . S
O183 Eu160 2.349 . S
O183 C162 1.265 . S
C184 C185 1.379 . S
C184 C188 1.373 . S
C184 C190 1.505 . S
C185 C184 1.379 . S
C185 C187 1.369 . S
C185 H196 0.930 . S
C186 C188 1.383 . S
C186 C189 1.382 . S
C186 H197 0.930 . S
C187 C185 1.369 . S
C187 C189 1.392 . S
C187 H198 0.930 . S
C188 C184 1.373 . S
C188 C186 1.383 . S
C188 H199 0.931 . S
C189 C186 1.382 . S
C189 C187 1.392 . S
C190 Eu161 2.828 1_554 S
C190 O174 1.249 . S
C190 O175 1.244 . S
C190 C184 1.505 . S
C191 O178 1.258 . S
C191 O179 1.242 . S
H192 C164 0.930 . S
H193 C165 0.930 . S
H194 C166 0.930 . S
H195 C167 0.931 . S
H196 C185 0.930 . S
H197 C186 0.930 . S
H198 C187 0.930 . S
H199 C188 0.931 . S
Eu200 C209 2.828 1_554 S
Eu200 O211 2.392 . S
Eu200 O213 2.418 . S
Eu200 O218 2.373 1_554 S
Eu200 O221 2.488 1_554 S
Eu200 O222 2.471 1_554 S
Eu200 O223 2.349 . S
Eu201 O210 2.373 1_556 S
Eu201 O214 2.488 1_556 S
Eu201 O215 2.471 1_556 S
Eu201 O216 2.351 . S
Eu201 O219 2.392 . S
Eu201 O220 2.418 . S
Eu201 C230 2.828 1_556 S
C202 O220 1.244 1_554 S
C202 O223 1.265 . S
C203 C204 1.379 . S
C203 C207 1.373 . S
C203 C209 1.505 . S
C204 C203 1.379 . S
C204 C206 1.369 . S
C204 H232 0.930 . S
C205 C207 1.383 . S
C205 C208 1.382 . S
C205 H233 0.930 . S
C206 C204 1.369 . S
C206 C208 1.392 . S
C206 H234 0.930 . S
C207 C203 1.373 . S
C207 C205 1.383 . S
C207 H235 0.931 . S
C208 C205 1.382 . S
C208 C206 1.392 . S
C209 Eu200 2.828 1_556 S
C209 C203 1.505 . S
C209 O221 1.249 . S
C209 O222 1.244 . S
O210 Eu201 2.373 1_554 S
O210 C212 1.258 . S
O211 Eu200 2.392 . S
O211 C212 1.242 . S
C212 O210 1.258 . S
C212 O211 1.242 . S
O213 Eu200 2.418 . S
O213 C217 1.244 1_554 S
O214 Eu201 2.488 1_554 S
O214 C230 1.249 . S
O215 Eu201 2.471 1_554 S
O215 C230 1.244 . S
O216 Eu201 2.351 . S
O216 C217 1.265 . S
C217 O213 1.244 1_556 S
C217 O216 1.265 . S
O218 Eu200 2.373 1_556 S
O218 C231 1.258 . S
O219 Eu201 2.392 . S
O219 C231 1.242 . S
O220 Eu201 2.418 . S
O220 C202 1.244 1_556 S
O221 Eu200 2.488 1_556 S
O221 C209 1.249 . S
O222 Eu200 2.471 1_556 S
O222 C209 1.244 . S
O223 Eu200 2.349 . S
O223 C202 1.265 . S
C224 C225 1.379 . S
C224 C228 1.373 . S
C224 C230 1.505 . S
C225 C224 1.379 . S
C225 C227 1.369 . S
C225 H236 0.930 . S
C226 C228 1.383 . S
C226 C229 1.382 . S
C226 H237 0.930 . S
C227 C225 1.369 . S
C227 C229 1.392 . S
C227 H238 0.930 . S
C228 C224 1.373 . S
C228 C226 1.383 . S
C228 H239 0.931 . S
C229 C226 1.382 . S
C229 C227 1.392 . S
C230 Eu201 2.828 1_554 S
C230 O214 1.249 . S
C230 O215 1.244 . S
C230 C224 1.505 . S
C231 O218 1.258 . S
C231 O219 1.242 . S
H232 C204 0.930 . S
H233 C205 0.930 . S
H234 C206 0.930 . S
H235 C207 0.931 . S
H236 C225 0.930 . S
H237 C226 0.930 . S
H238 C227 0.930 . S
H239 C228 0.931 . S
Eu240 C249 2.828 1_554 S
Eu240 O251 2.392 . S
Eu240 O253 2.418 . S
Eu240 O258 2.373 1_554 S
Eu240 O261 2.488 1_554 S
Eu240 O262 2.471 1_554 S
Eu240 O263 2.351 . S
Eu241 O250 2.373 1_556 S
Eu241 O254 2.488 1_556 S
Eu241 O255 2.471 1_556 S
Eu241 O256 2.349 . S
Eu241 O259 2.392 . S
Eu241 O260 2.418 . S
Eu241 C270 2.828 1_556 S
C242 O260 1.244 1_554 S
C242 O263 1.265 . S
C243 C244 1.379 . S
C243 C247 1.373 . S
C243 C249 1.505 . S
C244 C243 1.379 . S
C244 C246 1.369 . S
C244 H272 0.930 . S
C245 C247 1.383 . S
C245 C248 1.382 . S
C245 H273 0.930 . S
C246 C244 1.369 . S
C246 C248 1.392 . S
C246 H274 0.930 . S
C247 C243 1.373 . S
C247 C245 1.383 . S
C247 H275 0.931 . S
C248 C245 1.382 . S
C248 C246 1.392 . S
C249 Eu240 2.828 1_556 S
C249 C243 1.505 . S
C249 O261 1.249 . S
C249 O262 1.244 . S
O250 Eu241 2.373 1_554 S
O250 C252 1.258 . S
O251 Eu240 2.392 . S
O251 C252 1.242 . S
C252 O250 1.258 . S
C252 O251 1.242 . S
O253 Eu240 2.418 . S
O253 C257 1.244 1_554 S
O254 Eu241 2.488 1_554 S
O254 C270 1.249 . S
O255 Eu241 2.471 1_554 S
O255 C270 1.244 . S
O256 Eu241 2.349 . S
O256 C257 1.265 . S
C257 O253 1.244 1_556 S
C257 O256 1.265 . S
O258 Eu240 2.373 1_556 S
O258 C271 1.258 . S
O259 Eu241 2.392 . S
O259 C271 1.242 . S
O260 Eu241 2.418 . S
O260 C242 1.244 1_556 S
O261 Eu240 2.488 1_556 S
O261 C249 1.249 . S
O262 Eu240 2.471 1_556 S
O262 C249 1.244 . S
O263 Eu240 2.351 . S
O263 C242 1.265 . S
C264 C265 1.379 . S
C264 C268 1.373 . S
C264 C270 1.505 . S
C265 C264 1.379 . S
C265 C267 1.369 . S
C265 H276 0.930 . S
C266 C268 1.383 . S
C266 C269 1.382 . S
C266 H277 0.930 . S
C267 C265 1.369 . S
C267 C269 1.392 . S
C267 H278 0.930 . S
C268 C264 1.373 . S
C268 C266 1.383 . S
C268 H279 0.931 . S
C269 C266 1.382 . S
C269 C267 1.392 . S
C270 Eu241 2.828 1_554 S
C270 O254 1.249 . S
C270 O255 1.244 . S
C270 C264 1.505 . S
C271 O258 1.258 . S
C271 O259 1.242 . S
H272 C244 0.930 . S
H273 C245 0.930 . S
H274 C246 0.930 . S
H275 C247 0.931 . S
H276 C265 0.930 . S
H277 C266 0.930 . S
H278 C267 0.930 . S
H279 C268 0.931 . S
Eu280 C289 2.828 1_554 S
Eu280 O291 2.392 . S
Eu280 O293 2.418 . S
Eu280 O298 2.373 1_554 S
Eu280 O301 2.488 1_554 S
Eu280 O302 2.471 1_554 S
Eu280 O303 2.351 . S
Eu281 O290 2.373 1_556 S
Eu281 O294 2.488 1_556 S
Eu281 O295 2.471 1_556 S
Eu281 O296 2.349 . S
Eu281 O299 2.392 . S
Eu281 O300 2.418 . S
Eu281 C310 2.828 1_556 S
C282 O300 1.244 1_554 S
C282 O303 1.265 . S
C283 C284 1.379 . S
C283 C287 1.373 . S
C283 C289 1.505 . S
C284 C283 1.379 . S
C284 C286 1.369 . S
C284 H312 0.930 . S
C285 C287 1.383 . S
C285 C288 1.382 . S
C285 H313 0.930 . S
C286 C284 1.369 . S
C286 C288 1.392 . S
C286 H314 0.930 . S
C287 C283 1.373 . S
C287 C285 1.383 . S
C287 H315 0.931 . S
C288 C285 1.382 . S
C288 C286 1.392 . S
C289 Eu280 2.828 1_556 S
C289 C283 1.505 . S
C289 O301 1.249 . S
C289 O302 1.244 . S
O290 Eu281 2.373 1_554 S
O290 C292 1.258 . S
O291 Eu280 2.392 . S
O291 C292 1.242 . S
C292 O290 1.258 . S
C292 O291 1.242 . S
O293 Eu280 2.418 . S
O293 C297 1.244 1_554 S
O294 Eu281 2.488 1_554 S
O294 C310 1.249 . S
O295 Eu281 2.471 1_554 S
O295 C310 1.244 . S
O296 Eu281 2.349 . S
O296 C297 1.265 . S
C297 O293 1.244 1_556 S
C297 O296 1.265 . S
O298 Eu280 2.373 1_556 S
O298 C311 1.258 . S
O299 Eu281 2.392 . S
O299 C311 1.242 . S
O300 Eu281 2.418 . S
O300 C282 1.244 1_556 S
O301 Eu280 2.488 1_556 S
O301 C289 1.249 . S
O302 Eu280 2.471 1_556 S
O302 C289 1.244 . S
O303 Eu280 2.351 . S
O303 C282 1.265 . S
C304 C305 1.379 . S
C304 C308 1.373 . S
C304 C310 1.505 . S
C305 C304 1.379 . S
C305 C307 1.369 . S
C305 H316 0.930 . S
C306 C308 1.383 . S
C306 C309 1.382 . S
C306 H317 0.930 . S
C307 C305 1.369 . S
C307 C309 1.392 . S
C307 H318 0.930 . S
C308 C304 1.373 . S
C308 C306 1.383 . S
C308 H319 0.931 . S
C309 C306 1.382 . S
C309 C307 1.392 . S
C310 Eu281 2.828 1_554 S
C310 O294 1.249 . S
C310 O295 1.244 . S
C310 C304 1.505 . S
C311 O298 1.258 . S
C311 O299 1.242 . S
H312 C284 0.930 . S
H313 C285 0.930 . S
H314 C286 0.930 . S
H315 C287 0.931 . S
H316 C305 0.930 . S
H317 C306 0.930 . S
H318 C307 0.930 . S
H319 C308 0.931 . S
C320 C321 1.391 . S
C320 C322 1.394 . S
C320 H336 0.931 . S
C321 C320 1.391 . S
C321 C325 1.376 . S
C322 C320 1.394 . S
C322 C323 1.369 . S
C322 C326 1.531 . S
C323 C322 1.369 . S
C323 C324 1.410 . S
C323 C331 1.503 . S
C324 C323 1.410 . S
C324 C325 1.392 . S
C324 C327 1.511 . S
C325 C321 1.376 . S
C325 C324 1.392 . S
C325 H337 0.929 . S
C326 C322 1.531 . S
C326 H338 0.960 . S
C326 H339 0.962 . S
C326 H340 0.960 . S
C327 C324 1.511 . S
C327 H341 0.961 . S
C327 H342 0.961 . S
C327 H343 0.961 . S
C328 C329 1.370 . S
C328 C330 1.363 . S
C328 H344 0.931 . S
C329 C328 1.370 . S
C329 C333 1.408 . S
C330 C328 1.363 . S
C330 C331 1.370 . S
C330 C334 1.524 . S
C331 C323 1.503 . S
C331 C330 1.370 . S
C331 C332 1.403 . S
C332 C331 1.403 . S
C332 C333 1.404 . S
C332 C335 1.539 . S
C333 C329 1.408 . S
C333 C332 1.404 . S
C333 H345 0.930 . S
C334 C330 1.524 . S
C334 H346 0.956 . S
C334 H347 0.961 . S
C334 H348 0.961 . S
C335 C332 1.539 . S
C335 H349 0.958 . S
C335 H350 0.961 . S
C335 H351 0.960 . S
H336 C320 0.931 . S
H337 C325 0.929 . S
H338 C326 0.960 . S
H339 C326 0.962 . S
H340 C326 0.960 . S
H341 C327 0.961 . S
H342 C327 0.961 . S
H343 C327 0.961 . S
H344 C328 0.931 . S
H345 C333 0.930 . S
H346 C334 0.956 . S
H347 C334 0.961 . S
H348 C334 0.961 . S
H349 C335 0.958 . S
H350 C335 0.961 . S
H351 C335 0.960 . S
C352 C353 1.391 . S
C352 C354 1.394 . S
C352 H368 0.931 . S
C353 C352 1.391 . S
C353 C357 1.376 . S
C354 C352 1.394 . S
C354 C355 1.369 . S
C354 C358 1.531 . S
C355 C354 1.369 . S
C355 C356 1.410 . S
C355 C363 1.503 . S
C356 C355 1.410 . S
C356 C357 1.392 . S
C356 C359 1.511 . S
C357 C353 1.376 . S
C357 C356 1.392 . S
C357 H369 0.929 . S
C358 C354 1.531 . S
C358 H370 0.960 . S
C358 H371 0.962 . S
C358 H372 0.960 . S
C359 C356 1.511 . S
C359 H373 0.961 . S
C359 H374 0.961 . S
C359 H375 0.961 . S
C360 C361 1.370 . S
C360 C362 1.363 . S
C360 H376 0.931 . S
C361 C360 1.370 . S
C361 C365 1.408 . S
C362 C360 1.363 . S
C362 C363 1.370 . S
C362 C366 1.524 . S
C363 C355 1.503 . S
C363 C362 1.370 . S
C363 C364 1.403 . S
C364 C363 1.403 . S
C364 C365 1.404 . S
C364 C367 1.539 . S
C365 C361 1.408 . S
C365 C364 1.404 . S
C365 H377 0.930 . S
C366 C362 1.524 . S
C366 H378 0.956 . S
C366 H379 0.961 . S
C366 H380 0.961 . S
C367 C364 1.539 . S
C367 H381 0.958 . S
C367 H382 0.961 . S
C367 H383 0.960 . S
H368 C352 0.931 . S
H369 C357 0.929 . S
H370 C358 0.960 . S
H371 C358 0.962 . S
H372 C358 0.960 . S
H373 C359 0.961 . S
H374 C359 0.961 . S
H375 C359 0.961 . S
H376 C360 0.931 . S
H377 C365 0.930 . S
H378 C366 0.956 . S
H379 C366 0.961 . S
H380 C366 0.961 . S
H381 C367 0.958 . S
H382 C367 0.961 . S
H383 C367 0.960 . S
C384 C385 1.391 . S
C384 C386 1.394 . S
C384 H400 0.931 . S
C385 C384 1.391 . S
C385 C389 1.376 . S
C386 C384 1.394 . S
C386 C387 1.369 . S
C386 C390 1.531 . S
C387 C386 1.369 . S
C387 C388 1.410 . S
C387 C395 1.503 . S
C388 C387 1.410 . S
C388 C389 1.392 . S
C388 C391 1.511 . S
C389 C385 1.376 . S
C389 C388 1.392 . S
C389 H401 0.929 . S
C390 C386 1.531 . S
C390 H402 0.960 . S
C390 H403 0.962 . S
C390 H404 0.960 . S
C391 C388 1.511 . S
C391 H405 0.961 . S
C391 H406 0.961 . S
C391 H407 0.961 . S
C392 C393 1.370 . S
C392 C394 1.363 . S
C392 H408 0.931 . S
C393 C392 1.370 . S
C393 C397 1.408 . S
C394 C392 1.363 . S
C394 C395 1.370 . S
C394 C398 1.524 . S
C395 C387 1.503 . S
C395 C394 1.370 . S
C395 C396 1.403 . S
C396 C395 1.403 . S
C396 C397 1.404 . S
C396 C399 1.539 . S
C397 C393 1.408 . S
C397 C396 1.404 . S
C397 H409 0.930 . S
C398 C394 1.524 . S
C398 H410 0.956 . S
C398 H411 0.961 . S
C398 H412 0.961 . S
C399 C396 1.539 . S
C399 H413 0.958 . S
C399 H414 0.961 . S
C399 H415 0.960 . S
H400 C384 0.931 . S
H401 C389 0.929 . S
H402 C390 0.960 . S
H403 C390 0.962 . S
H404 C390 0.960 . S
H405 C391 0.961 . S
H406 C391 0.961 . S
H407 C391 0.961 . S
H408 C392 0.931 . S
H409 C397 0.930 . S
H410 C398 0.956 . S
H411 C398 0.961 . S
H412 C398 0.961 . S
H413 C399 0.958 . S
H414 C399 0.961 . S
H415 C399 0.960 . S
C416 C417 1.391 . S
C416 C418 1.394 . S
C416 H432 0.931 . S
C417 C416 1.391 . S
C417 C421 1.376 . S
C418 C416 1.394 . S
C418 C419 1.369 . S
C418 C422 1.531 . S
C419 C418 1.369 . S
C419 C420 1.410 . S
C419 C427 1.503 . S
C420 C419 1.410 . S
C420 C421 1.392 . S
C420 C423 1.511 . S
C421 C417 1.376 . S
C421 C420 1.392 . S
C421 H433 0.929 . S
C422 C418 1.531 . S
C422 H434 0.960 . S
C422 H435 0.962 . S
C422 H436 0.960 . S
C423 C420 1.511 . S
C423 H437 0.961 . S
C423 H438 0.961 . S
C423 H439 0.961 . S
C424 C425 1.370 . S
C424 C426 1.363 . S
C424 H440 0.931 . S
C425 C424 1.370 . S
C425 C429 1.408 . S
C426 C424 1.363 . S
C426 C427 1.370 . S
C426 C430 1.524 . S
C427 C419 1.503 . S
C427 C426 1.370 . S
C427 C428 1.403 . S
C428 C427 1.403 . S
C428 C429 1.404 . S
C428 C431 1.539 . S
C429 C425 1.408 . S
C429 C428 1.404 . S
C429 H441 0.930 . S
C430 C426 1.524 . S
C430 H442 0.956 . S
C430 H443 0.961 . S
C430 H444 0.961 . S
C431 C428 1.539 . S
C431 H445 0.958 . S
C431 H446 0.961 . S
C431 H447 0.960 . S
H432 C416 0.931 . S
H433 C421 0.929 . S
H434 C422 0.960 . S
H435 C422 0.962 . S
H436 C422 0.960 . S
H437 C423 0.961 . S
H438 C423 0.961 . S
H439 C423 0.961 . S
H440 C424 0.931 . S
H441 C429 0.930 . S
H442 C430 0.956 . S
H443 C430 0.961 . S
H444 C430 0.961 . S
H445 C431 0.958 . S
H446 C431 0.961 . S
H447 C431 0.960 . S
C448 C449 1.391 . S
C448 C450 1.394 . S
C448 H464 0.931 . S
C449 C448 1.391 . S
C449 C453 1.376 . S
C450 C448 1.394 . S
C450 C451 1.369 . S
C450 C454 1.531 . S
C451 C450 1.369 . S
C451 C452 1.410 . S
C451 C459 1.503 1_565 S
C452 C451 1.410 . S
C452 C453 1.392 . S
C452 C455 1.511 . S
C453 C449 1.376 . S
C453 C452 1.392 . S
C453 H465 0.929 . S
C454 C450 1.531 . S
C454 H466 0.960 1_565 S
C454 H467 0.962 . S
C454 H468 0.960 . S
C455 C452 1.511 . S
C455 H469 0.961 . S
C455 H470 0.961 1_565 S
C455 H471 0.961 1_565 S
C456 C457 1.370 . S
C456 C458 1.363 . S
C456 H472 0.931 . S
C457 C456 1.370 . S
C457 C461 1.408 . S
C458 C456 1.363 . S
C458 C459 1.370 . S
C458 C462 1.529 . S
C459 C451 1.503 1_545 S
C459 C458 1.370 . S
C459 C460 1.403 . S
C460 C459 1.403 . S
C460 C461 1.404 . S
C460 C463 1.539 . S
C461 C457 1.408 . S
C461 C460 1.404 . S
C461 H473 0.930 . S
C462 C458 1.529 . S
C462 H474 0.953 1_545 S
C462 H475 0.956 1_545 S
C462 H476 0.964 . S
C463 C460 1.539 . S
C463 H477 0.958 . S
C463 H478 0.961 . S
C463 H479 0.960 . S
H464 C448 0.931 . S
H465 C453 0.929 . S
H466 C454 0.960 1_545 S
H467 C454 0.962 . S
H468 C454 0.960 . S
H469 C455 0.961 . S
H470 C455 0.961 1_545 S
H471 C455 0.961 1_545 S
H472 C456 0.931 . S
H473 C461 0.930 . S
H474 C462 0.953 1_565 S
H475 C462 0.956 1_565 S
H476 C462 0.964 . S
H477 C463 0.958 . S
H478 C463 0.961 . S
H479 C463 0.960 . S
C480 C481 1.391 . S
C480 C482 1.394 . S
C480 H496 0.931 . S
C481 C480 1.391 . S
C481 C485 1.376 . S
C482 C480 1.394 . S
C482 C483 1.369 . S
C482 C486 1.531 . S
C483 C482 1.369 . S
C483 C484 1.410 . S
C483 C491 1.503 . S
C484 C483 1.410 . S
C484 C485 1.392 . S
C484 C487 1.511 . S
C485 C481 1.376 . S
C485 C484 1.392 . S
C485 H497 0.929 . S
C486 C482 1.531 . S
C486 H498 0.960 . S
C486 H499 0.962 . S
C486 H500 0.960 . S
C487 C484 1.511 . S
C487 H501 0.961 . S
C487 H502 0.961 . S
C487 H503 0.961 . S
C488 C489 1.370 . S
C488 C490 1.363 . S
C488 H504 0.931 . S
C489 C488 1.370 . S
C489 C493 1.408 . S
C490 C488 1.363 . S
C490 C491 1.370 . S
C490 C494 1.524 . S
C491 C483 1.503 . S
C491 C490 1.370 . S
C491 C492 1.403 . S
C492 C491 1.403 . S
C492 C493 1.404 . S
C492 C495 1.539 . S
C493 C489 1.408 . S
C493 C492 1.404 . S
C493 H505 0.930 . S
C494 C490 1.524 . S
C494 H506 0.956 . S
C494 H507 0.961 . S
C494 H508 0.961 . S
C495 C492 1.539 . S
C495 H509 0.958 . S
C495 H510 0.961 . S
C495 H511 0.960 . S
H496 C480 0.931 . S
H497 C485 0.929 . S
H498 C486 0.960 . S
H499 C486 0.962 . S
H500 C486 0.960 . S
H501 C487 0.961 . S
H502 C487 0.961 . S
H503 C487 0.961 . S
H504 C488 0.931 . S
H505 C493 0.930 . S
H506 C494 0.956 . S
H507 C494 0.961 . S
H508 C494 0.961 . S
H509 C495 0.958 . S
H510 C495 0.961 . S
H511 C495 0.960 . S
C512 C513 1.391 . S
C512 C514 1.394 . S
C512 H528 0.931 . S
C513 C512 1.391 . S
C513 C517 1.376 . S
C514 C512 1.394 . S
C514 C515 1.369 . S
C514 C518 1.531 . S
C515 C514 1.369 . S
C515 C516 1.410 . S
C515 C523 1.503 1_565 S
C516 C515 1.410 . S
C516 C517 1.392 . S
C516 C519 1.511 . S
C517 C513 1.376 . S
C517 C516 1.392 . S
C517 H529 0.929 . S
C518 C514 1.531 . S
C518 H530 0.960 1_565 S
C518 H531 0.962 . S
C518 H532 0.960 . S
C519 C516 1.511 . S
C519 H533 0.961 . S
C519 H534 0.961 . S
C519 H535 0.961 . S
C520 C521 1.370 . S
C520 C522 1.363 . S
C520 H536 0.931 . S
C521 C520 1.370 . S
C521 C525 1.408 . S
C522 C520 1.363 . S
C522 C523 1.370 . S
C522 C526 1.524 1_545 S
C523 C515 1.503 1_545 S
C523 C522 1.370 . S
C523 C524 1.403 . S
C524 C523 1.403 . S
C524 C525 1.404 . S
C524 C527 1.539 . S
C525 C521 1.408 . S
C525 C524 1.404 . S
C525 H537 0.930 . S
C526 C522 1.524 1_565 S
C526 H538 0.956 . S
C526 H539 0.961 . S
C526 H540 0.961 1_565 S
C527 C524 1.539 . S
C527 H541 0.958 . S
C527 H542 0.961 . S
C527 H543 0.960 . S
H528 C512 0.931 . S
H529 C517 0.929 . S
H530 C518 0.960 1_545 S
H531 C518 0.962 . S
H532 C518 0.960 . S
H533 C519 0.961 . S
H534 C519 0.961 . S
H535 C519 0.961 . S
H536 C520 0.931 . S
H537 C525 0.930 . S
H538 C526 0.956 . S
H539 C526 0.961 . S
H540 C526 0.961 1_545 S
H541 C527 0.958 . S
H542 C527 0.961 . S
H543 C527 0.960 . S
C544 C545 1.391 . S
C544 C546 1.394 . S
C544 H560 0.931 . S
C545 C544 1.391 . S
C545 C549 1.376 . S
C546 C544 1.394 . S
C546 C547 1.369 . S
C546 C550 1.531 . S
C547 C546 1.369 . S
C547 C548 1.410 . S
C547 C555 1.503 . S
C548 C547 1.410 . S
C548 C549 1.392 . S
C548 C551 1.511 . S
C549 C545 1.376 . S
C549 C548 1.392 . S
C549 H561 0.929 . S
C550 C546 1.531 . S
C550 H562 0.960 . S
C550 H563 0.962 . S
C550 H564 0.960 . S
C551 C548 1.511 . S
C551 H565 0.961 . S
C551 H566 0.961 . S
C551 H567 0.961 . S
C552 C553 1.370 . S
C552 C554 1.363 . S
C552 H568 0.931 . S
C553 C552 1.370 . S
C553 C557 1.408 . S
C554 C552 1.363 . S
C554 C555 1.370 . S
C554 C558 1.524 . S
C555 C547 1.503 . S
C555 C554 1.370 . S
C555 C556 1.403 . S
C556 C555 1.403 . S
C556 C557 1.404 . S
C556 C559 1.539 . S
C557 C553 1.408 . S
C557 C556 1.404 . S
C557 H569 0.930 . S
C558 C554 1.524 . S
C558 H570 0.956 . S
C558 H571 0.961 . S
C558 H572 0.961 . S
C559 C556 1.539 . S
C559 H573 0.958 . S
C559 H574 0.961 . S
C559 H575 0.960 . S
H560 C544 0.931 . S
H561 C549 0.929 . S
H562 C550 0.960 . S
H563 C550 0.962 . S
H564 C550 0.960 . S
H565 C551 0.961 . S
H566 C551 0.961 . S
H567 C551 0.961 . S
H568 C552 0.931 . S
H569 C557 0.930 . S
H570 C558 0.956 . S
H571 C558 0.961 . S
H572 C558 0.961 . S
H573 C559 0.958 . S
H574 C559 0.961 . S
H575 C559 0.960 . S
C576 C577 1.391 . S
C576 C578 1.394 . S
C576 H592 0.931 . S
C577 C576 1.391 . S
C577 C581 1.376 1_556 S
C578 C576 1.394 . S
C578 C579 1.369 . S
C578 C582 1.531 . S
C579 C578 1.369 . S
C579 C580 1.410 1_556 S
C579 C587 1.503 . S
C580 C579 1.410 1_554 S
C580 C581 1.392 . S
C580 C583 1.511 . S
C581 C577 1.376 1_554 S
C581 C580 1.392 . S
C581 H593 0.929 . S
C582 C578 1.531 . S
C582 H594 0.960 . S
C582 H595 0.962 . S
C582 H596 0.960 . S
C583 C580 1.511 . S
C583 H597 0.961 . S
C583 H598 0.961 . S
C583 H599 0.961 1_554 S
C584 C585 1.370 1_554 S
C584 C586 1.363 . S
C584 H600 0.931 . S
C585 C584 1.370 1_556 S
C585 C589 1.408 . S
C586 C584 1.363 . S
C586 C587 1.370 1_554 S
C586 C590 1.524 . S
C587 C579 1.503 . S
C587 C586 1.370 1_556 S
C587 C588 1.403 . S
C588 C587 1.403 . S
C588 C589 1.404 . S
C588 C591 1.539 . S
C589 C585 1.408 . S
C589 C588 1.404 . S
C589 H601 0.930 . S
C590 C586 1.524 . S
C590 H602 0.956 . S
C590 H603 0.961 . S
C590 H604 0.961 . S
C591 C588 1.539 . S
C591 H605 0.958 . S
C591 H606 0.961 . S
C591 H607 0.960 . S
H592 C576 0.931 . S
H593 C581 0.929 . S
H594 C582 0.960 . S
H595 C582 0.962 . S
H596 C582 0.960 . S
H597 C583 0.961 . S
H598 C583 0.961 . S
H599 C583 0.961 1_556 S
H600 C584 0.931 . S
H601 C589 0.930 . S
H602 C590 0.956 . S
H603 C590 0.961 . S
H604 C590 0.961 . S
H605 C591 0.958 . S
H606 C591 0.961 . S
H607 C591 0.960 . S
C608 C609 1.391 . S
C608 C610 1.394 . S
C608 H624 0.931 . S
C609 C608 1.391 . S
C609 C613 1.376 1_554 S
C610 C608 1.394 . S
C610 C611 1.369 . S
C610 C614 1.531 . S
C611 C610 1.369 . S
C611 C612 1.410 1_554 S
C611 C619 1.503 1_565 S
C612 C611 1.410 1_556 S
C612 C613 1.392 . S
C612 C615 1.511 . S
C613 C609 1.376 1_556 S
C613 C612 1.392 . S
C613 H625 0.929 . S
C614 C610 1.531 . S
C614 H626 0.960 . S
C614 H627 0.963 . S
C614 H628 0.960 . S
C615 C612 1.511 . S
C615 H629 0.961 . S
C615 H630 0.961 1_565 S
C615 H631 0.961 1_556 S
C616 C617 1.370 . S
C616 C618 1.363 . S
C616 H632 0.931 . S
C617 C616 1.370 . S
C617 C621 1.408 1_556 S
C618 C616 1.363 . S
C618 C619 1.370 1_556 S
C618 C622 1.524 . S
C619 C611 1.503 1_545 S
C619 C618 1.370 1_554 S
C619 C620 1.403 . S
C620 C619 1.403 . S
C620 C621 1.404 . S
C620 C623 1.539 . S
C621 C617 1.408 1_554 S
C621 C620 1.404 . S
C621 H633 0.930 . S
C622 C618 1.524 . S
C622 H634 0.956 1_545 S
C622 H635 0.961 1_545 S
C622 H636 0.961 . S
C623 C620 1.539 . S
C623 H637 0.958 . S
C623 H638 0.961 . S
C623 H639 0.960 . S
H624 C608 0.931 . S
H625 C613 0.929 . S
H626 C614 0.960 . S
H627 C614 0.963 . S
H628 C614 0.960 . S
H629 C615 0.961 . S
H630 C615 0.961 1_545 S
H631 C615 0.961 1_554 S
H632 C616 0.931 . S
H633 C621 0.930 . S
H634 C622 0.956 1_565 S
H635 C622 0.961 1_565 S
H636 C622 0.961 . S
H637 C623 0.958 . S
H638 C623 0.961 . S
H639 C623 0.960 . S
C640 C641 1.391 . S
C640 C642 1.394 . S
C640 H656 0.931 . S
C641 C640 1.391 . S
C641 C645 1.376 . S
C642 C640 1.394 . S
C642 C643 1.369 . S
C642 C646 1.531 . S
C643 C642 1.369 . S
C643 C644 1.410 . S
C643 C651 1.503 . S
C644 C643 1.410 . S
C644 C645 1.392 . S
C644 C647 1.511 . S
C645 C641 1.376 . S
C645 C644 1.392 . S
C645 H657 0.929 . S
C646 C642 1.531 . S
C646 H658 0.960 . S
C646 H659 0.962 1_556 S
C646 H660 0.960 . S
C647 C644 1.511 . S
C647 H661 0.961 1_556 S
C647 H662 0.961 1_556 S
C647 H663 0.961 . S
C648 C649 1.370 . S
C648 C650 1.363 . S
C648 H664 0.931 . S
C649 C648 1.370 . S
C649 C653 1.408 1_554 S
C650 C648 1.363 . S
C650 C651 1.370 1_554 S
C650 C654 1.524 . S
C651 C643 1.503 . S
C651 C650 1.370 1_556 S
C651 C652 1.403 . S
C652 C651 1.403 . S
C652 C653 1.404 . S
C652 C655 1.539 . S
C653 C649 1.408 1_556 S
C653 C652 1.404 . S
C653 H665 0.930 . S
C654 C650 1.524 . S
C654 H666 0.956 . S
C654 H667 0.961 . S
C654 H668 0.961 . S
C655 C652 1.539 . S
C655 H669 0.958 . S
C655 H670 0.961 . S
C655 H671 0.960 . S
H656 C640 0.931 . S
H657 C645 0.929 . S
H658 C646 0.960 . S
H659 C646 0.962 1_554 S
H660 C646 0.960 . S
H661 C647 0.961 1_554 S
H662 C647 0.961 1_554 S
H663 C647 0.961 . S
H664 C648 0.931 . S
H665 C653 0.930 . S
H666 C654 0.956 . S
H667 C654 0.961 . S
H668 C654 0.961 . S
H669 C655 0.958 . S
H670 C655 0.961 . S
H671 C655 0.960 . S
C672 C673 1.391 . S
C672 C674 1.394 . S
C672 H688 0.931 . S
C673 C672 1.391 . S
C673 C677 1.376 1_554 S
C674 C672 1.394 . S
C674 C675 1.369 . S
C674 C678 1.531 . S
C675 C674 1.369 . S
C675 C676 1.410 1_554 S
C675 C683 1.503 1_545 S
C676 C675 1.410 1_556 S
C676 C677 1.392 . S
C676 C679 1.511 . S
C677 C673 1.376 1_556 S
C677 C676 1.392 . S
C677 H689 0.929 . S
C678 C674 1.531 . S
C678 H690 0.960 1_545 S
C678 H691 0.962 . S
C678 H692 0.960 . S
C679 C676 1.511 . S
C679 H693 0.961 . S
C679 H694 0.943 1_545 S
C679 H695 0.961 . S
C680 C681 1.370 . S
C680 C682 1.363 . S
C680 H696 0.931 . S
C681 C680 1.370 . S
C681 C685 1.408 1_554 S
C682 C680 1.363 . S
C682 C683 1.370 . S
C682 C686 1.524 . S
C683 C675 1.503 1_565 S
C683 C682 1.370 . S
C683 C684 1.403 1_554 S
C684 C683 1.403 1_556 S
C684 C685 1.404 . S
C684 C687 1.539 . S
C685 C681 1.408 1_556 S
C685 C684 1.404 . S
C685 H697 0.930 . S
C686 C682 1.524 . S
C686 H698 0.956 1_565 S
C686 H699 0.961 1_564 S
C686 H700 0.961 . S
C687 C684 1.539 . S
C687 H701 0.958 1_556 S
C687 H702 0.961 . S
C687 H703 0.960 . S
H688 C672 0.931 . S
H689 C677 0.929 . S
H690 C678 0.960 1_565 S
H691 C678 0.962 . S
H692 C678 0.960 . S
H693 C679 0.961 . S
H694 C679 0.943 1_565 S
H695 C679 0.961 . S
H696 C680 0.931 . S
H697 C685 0.930 . S
H698 C686 0.956 1_545 S
H699 C686 0.961 1_546 S
H700 C686 0.961 . S
H701 C687 0.958 1_554 S
H702 C687 0.961 . S
H703 C687 0.960 . S
C704 C705 1.391 . S
C704 C706 1.394 . S
C704 H720 0.931 . S
C705 C704 1.391 . S
C705 C709 1.376 . S
C706 C704 1.394 . S
C706 C707 1.369 1_554 S
C706 C710 1.531 1_554 S
C707 C706 1.369 1_556 S
C707 C708 1.410 1_556 S
C707 C715 1.503 . S
C708 C707 1.410 1_554 S
C708 C709 1.392 . S
C708 C711 1.512 1_554 S
C709 C705 1.376 . S
C709 C708 1.392 . S
C709 H721 0.929 . S
C710 C706 1.531 1_556 S
C710 H722 0.960 . S
C710 H723 0.962 . S
C710 H724 0.960 . S
C711 C708 1.512 1_556 S
C711 H725 0.961 1_556 S
C711 H726 0.960 . S
C711 H727 0.961 1_556 S
C712 C713 1.370 . S
C712 C714 1.363 . S
C712 H728 0.931 . S
C713 C712 1.370 . S
C713 C717 1.408 . S
C714 C712 1.363 . S
C714 C715 1.370 . S
C714 C718 1.524 . S
C715 C707 1.503 . S
C715 C714 1.370 . S
C715 C716 1.403 . S
C716 C715 1.403 . S
C716 C717 1.404 . S
C716 C719 1.539 . S
C717 C713 1.408 . S
C717 C716 1.404 . S
C717 H729 0.930 . S
C718 C714 1.524 . S
C718 H730 0.956 . S
C718 H731 0.961 . S
C718 H732 0.961 . S
C719 C716 1.539 . S
C719 H733 0.958 . S
C719 H734 0.961 . S
C719 H735 0.960 . S
H720 C704 0.931 . S
H721 C709 0.929 . S
H722 C710 0.960 . S
H723 C710 0.962 . S
H724 C710 0.960 . S
H725 C711 0.961 1_554 S
H726 C711 0.960 . S
H727 C711 0.961 1_554 S
H728 C712 0.931 . S
H729 C717 0.930 . S
H730 C718 0.956 . S
H731 C718 0.961 . S
H732 C718 0.961 . S
H733 C719 0.958 . S
H734 C719 0.961 . S
H735 C719 0.960 . S
C736 C737 1.391 . S
C736 C738 1.394 . S
C736 H752 0.931 . S
C737 C736 1.391 . S
C737 C741 1.376 . S
C738 C736 1.394 . S
C738 C739 1.369 1_554 S
C738 C742 1.531 1_554 S
C739 C738 1.369 1_556 S
C739 C740 1.410 1_556 S
C739 C747 1.503 . S
C740 C739 1.410 1_554 S
C740 C741 1.392 . S
C740 C743 1.511 1_554 S
C741 C737 1.376 . S
C741 C740 1.392 . S
C741 H753 0.929 . S
C742 C738 1.531 1_556 S
C742 H754 0.960 . S
C742 H755 0.962 . S
C742 H756 0.960 1_556 S
C743 C740 1.511 1_556 S
C743 H757 0.961 . S
C743 H758 0.961 . S
C743 H759 0.961 . S
C744 C745 1.370 . S
C744 C746 1.363 . S
C744 H760 0.931 . S
C745 C744 1.370 . S
C745 C749 1.408 . S
C746 C744 1.363 . S
C746 C747 1.370 . S
C746 C750 1.524 . S
C747 C739 1.503 . S
C747 C746 1.370 . S
C747 C748 1.403 . S
C748 C747 1.403 . S
C748 C749 1.404 . S
C748 C751 1.539 . S
C749 C745 1.408 . S
C749 C748 1.404 . S
C749 H761 0.930 . S
C750 C746 1.524 . S
C750 H762 0.956 . S
C750 H763 0.961 . S
C750 H764 0.961 . S
C751 C748 1.539 . S
C751 H765 0.958 . S
C751 H766 0.961 . S
C751 H767 0.960 . S
H752 C736 0.931 . S
H753 C741 0.929 . S
H754 C742 0.960 . S
H755 C742 0.962 . S
H756 C742 0.960 1_554 S
H757 C743 0.961 . S
H758 C743 0.961 . S
H759 C743 0.961 . S
H760 C744 0.931 . S
H761 C749 0.930 . S
H762 C750 0.956 . S
H763 C750 0.961 . S
H764 C750 0.961 . S
H765 C751 0.958 . S
H766 C751 0.961 . S
H767 C751 0.960 . S
C768 C769 1.391 . S
C768 C770 1.394 . S
C768 H784 0.931 . S
C769 C768 1.391 . S
C769 C773 1.376 . S
C770 C768 1.394 . S
C770 C771 1.369 . S
C770 C774 1.531 . S
C771 C770 1.369 . S
C771 C772 1.410 . S
C771 C779 1.503 . S
C772 C771 1.410 . S
C772 C773 1.392 . S
C772 C775 1.511 . S
C773 C769 1.376 . S
C773 C772 1.392 . S
C773 H785 0.929 . S
C774 C770 1.531 . S
C774 H786 0.960 . S
C774 H787 0.962 . S
C774 H788 0.960 . S
C775 C772 1.511 . S
C775 H789 0.961 . S
C775 H790 0.961 . S
C775 H791 0.961 . S
C776 C777 1.370 . S
C776 C778 1.363 . S
C776 H792 0.931 . S
C777 C776 1.370 . S
C777 C781 1.408 . S
C778 C776 1.363 . S
C778 C779 1.370 1_556 S
C778 C782 1.524 1_556 S
C779 C771 1.503 . S
C779 C778 1.370 1_554 S
C779 C780 1.403 1_554 S
C780 C779 1.403 1_556 S
C780 C781 1.404 . S
C780 C783 1.539 . S
C781 C777 1.408 . S
C781 C780 1.404 . S
C781 H793 0.930 . S
C782 C778 1.524 1_554 S
C782 H794 0.956 . S
C782 H795 0.961 . S
C782 H796 0.961 . S
C783 C780 1.539 . S
C783 H797 0.958 1_556 S
C783 H798 0.961 . S
C783 H799 0.960 1_556 S
H784 C768 0.931 . S
H785 C773 0.929 . S
H786 C774 0.960 . S
H787 C774 0.962 . S
H788 C774 0.960 . S
H789 C775 0.961 . S
H790 C775 0.961 . S
H791 C775 0.961 . S
H792 C776 0.931 . S
H793 C781 0.930 . S
H794 C782 0.956 . S
H795 C782 0.961 . S
H796 C782 0.961 . S
H797 C783 0.958 1_554 S
H798 C783 0.961 . S
H799 C783 0.960 1_554 S
C800 C801 1.391 . S
C800 C802 1.394 . S
C800 H816 0.931 . S
C801 C800 1.391 . S
C801 C805 1.376 . S
C802 C800 1.394 . S
C802 C803 1.369 1_556 S
C802 C806 1.531 1_556 S
C803 C802 1.369 1_554 S
C803 C804 1.410 1_554 S
C803 C811 1.503 . S
C804 C803 1.410 1_556 S
C804 C805 1.392 . S
C804 C807 1.513 . S
C805 C801 1.376 . S
C805 C804 1.392 . S
C805 H817 0.929 . S
C806 C802 1.531 1_554 S
C806 H818 0.960 . S
C806 H819 0.962 . S
C806 H820 0.960 . S
C807 C804 1.513 . S
C807 H821 0.963 . S
C807 H822 0.957 1_556 S
C807 H823 0.961 . S
C808 C809 1.370 . S
C808 C810 1.363 . S
C808 H824 0.931 . S
C809 C808 1.370 . S
C809 C813 1.408 . S
C810 C808 1.363 . S
C810 C811 1.370 . S
C810 C814 1.524 . S
C811 C803 1.503 . S
C811 C810 1.370 . S
C811 C812 1.403 . S
C812 C811 1.403 . S
C812 C813 1.404 . S
C812 C815 1.539 . S
C813 C809 1.408 . S
C813 C812 1.404 . S
C813 H825 0.930 . S
C814 C810 1.524 . S
C814 H826 0.956 . S
C814 H827 0.961 . S
C814 H828 0.961 . S
C815 C812 1.539 . S
C815 H829 0.958 . S
C815 H830 0.961 . S
C815 H831 0.960 . S
H816 C800 0.931 . S
H817 C805 0.929 . S
H818 C806 0.960 . S
H819 C806 0.962 . S
H820 C806 0.960 . S
H821 C807 0.963 . S
H822 C807 0.957 1_554 S
H823 C807 0.961 . S
H824 C808 0.931 . S
H825 C813 0.930 . S
H826 C814 0.956 . S
H827 C814 0.961 . S
H828 C814 0.961 . S
H829 C815 0.958 . S
H830 C815 0.961 . S
H831 C815 0.960 . S
C832 C833 1.391 . S
C832 C834 1.394 . S
C832 H848 0.931 . S
C833 C832 1.391 . S
C833 C837 1.376 . S
C834 C832 1.394 . S
C834 C835 1.369 . S
C834 C838 1.531 . S
C835 C834 1.369 . S
C835 C836 1.410 . S
C835 C843 1.503 . S
C836 C835 1.410 . S
C836 C837 1.392 . S
C836 C839 1.511 . S
C837 C833 1.376 . S
C837 C836 1.392 . S
C837 H849 0.929 . S
C838 C834 1.531 . S
C838 H850 0.960 . S
C838 H851 0.962 . S
C838 H852 0.960 . S
C839 C836 1.511 . S
C839 H853 0.961 . S
C839 H854 0.961 . S
C839 H855 0.961 . S
C840 C841 1.370 . S
C840 C842 1.363 . S
C840 H856 0.931 . S
C841 C840 1.370 . S
C841 C845 1.408 . S
C842 C840 1.363 . S
C842 C843 1.370 . S
C842 C846 1.524 . S
C843 C835 1.503 . S
C843 C842 1.370 . S
C843 C844 1.403 . S
C844 C843 1.403 . S
C844 C845 1.404 . S
C844 C847 1.539 . S
C845 C841 1.408 . S
C845 C844 1.404 . S
C845 H857 0.930 . S
C846 C842 1.524 . S
C846 H858 0.956 . S
C846 H859 0.961 . S
C846 H860 0.961 . S
C847 C844 1.539 . S
C847 H861 0.958 . S
C847 H862 0.961 . S
C847 H863 0.960 . S
H848 C832 0.931 . S
H849 C837 0.929 . S
H850 C838 0.960 . S
H851 C838 0.962 . S
H852 C838 0.960 . S
H853 C839 0.961 . S
H854 C839 0.961 . S
H855 C839 0.961 . S
H856 C840 0.931 . S
H857 C845 0.930 . S
H858 C846 0.956 . S
H859 C846 0.961 . S
H860 C846 0.961 . S
H861 C847 0.958 . S
H862 C847 0.961 . S
H863 C847 0.960 . S
C864 C865 1.391 . S
C864 C866 1.394 . S
C864 H880 0.931 . S
C865 C864 1.391 . S
C865 C869 1.376 . S
C866 C864 1.394 . S
C866 C867 1.369 . S
C866 C870 1.531 . S
C867 C866 1.369 . S
C867 C868 1.410 . S
C867 C875 1.503 . S
C868 C867 1.410 . S
C868 C869 1.392 . S
C868 C871 1.511 . S
C869 C865 1.376 . S
C869 C868 1.392 . S
C869 H881 0.929 . S
C870 C866 1.531 . S
C870 H882 0.960 . S
C870 H883 0.962 . S
C870 H884 0.960 . S
C871 C868 1.511 . S
C871 H885 0.961 . S
C871 H886 0.961 . S
C871 H887 0.961 . S
C872 C873 1.370 . S
C872 C874 1.363 . S
C872 H888 0.931 . S
C873 C872 1.370 . S
C873 C877 1.408 . S
C874 C872 1.363 . S
C874 C875 1.370 . S
C874 C878 1.524 . S
C875 C867 1.503 . S
C875 C874 1.370 . S
C875 C876 1.403 . S
C876 C875 1.403 . S
C876 C877 1.404 . S
C876 C879 1.539 . S
C877 C873 1.408 . S
C877 C876 1.404 . S
C877 H889 0.930 . S
C878 C874 1.524 . S
C878 H890 0.956 . S
C878 H891 0.961 . S
C878 H892 0.961 . S
C879 C876 1.539 . S
C879 H893 0.958 . S
C879 H894 0.961 . S
C879 H895 0.960 . S
H880 C864 0.931 . S
H881 C869 0.929 . S
H882 C870 0.960 . S
H883 C870 0.962 . S
H884 C870 0.960 . S
H885 C871 0.961 . S
H886 C871 0.961 . S
H887 C871 0.961 . S
H888 C872 0.931 . S
H889 C877 0.930 . S
H890 C878 0.956 . S
H891 C878 0.961 . S
H892 C878 0.961 . S
H893 C879 0.958 . S
H894 C879 0.961 . S
H895 C879 0.960 . S
C896 C897 1.391 . S
C896 C898 1.394 . S
C896 H912 0.931 . S
C897 C896 1.391 . S
C897 C901 1.376 . S
C898 C896 1.394 . S
C898 C899 1.369 . S
C898 C902 1.531 . S
C899 C898 1.369 . S
C899 C900 1.410 . S
C899 C907 1.503 . S
C900 C899 1.410 . S
C900 C901 1.392 . S
C900 C903 1.511 . S
C901 C897 1.376 . S
C901 C900 1.392 . S
C901 H913 0.929 . S
C902 C898 1.531 . S
C902 H914 0.960 . S
C902 H915 0.962 . S
C902 H916 0.960 . S
C903 C900 1.511 . S
C903 H917 0.961 . S
C903 H918 0.961 . S
C903 H919 0.961 . S
C904 C905 1.370 . S
C904 C906 1.363 . S
C904 H920 0.931 . S
C905 C904 1.370 . S
C905 C909 1.408 . S
C906 C904 1.363 . S
C906 C907 1.370 . S
C906 C910 1.524 . S
C907 C899 1.503 . S
C907 C906 1.370 . S
C907 C908 1.403 . S
C908 C907 1.403 . S
C908 C909 1.404 . S
C908 C911 1.539 . S
C909 C905 1.408 . S
C909 C908 1.404 . S
C909 H921 0.930 . S
C910 C906 1.524 . S
C910 H922 0.956 . S
C910 H923 0.961 . S
C910 H924 0.961 . S
C911 C908 1.539 . S
C911 H925 0.958 . S
C911 H926 0.961 . S
C911 H927 0.960 . S
H912 C896 0.931 . S
H913 C901 0.929 . S
H914 C902 0.960 . S
H915 C902 0.962 . S
H916 C902 0.960 . S
H917 C903 0.961 . S
H918 C903 0.961 . S
H919 C903 0.961 . S
H920 C904 0.931 . S
H921 C909 0.930 . S
H922 C910 0.956 . S
H923 C910 0.961 . S
H924 C910 0.961 . S
H925 C911 0.958 . S
H926 C911 0.961 . S
H927 C911 0.960 . S
C928 C929 1.391 . S
C928 C930 1.394 . S
C928 H944 0.931 . S
C929 C928 1.391 . S
C929 C933 1.376 . S
C930 C928 1.394 . S
C930 C931 1.369 . S
C930 C934 1.531 . S
C931 C930 1.369 . S
C931 C932 1.410 . S
C931 C939 1.503 . S
C932 C931 1.410 . S
C932 C933 1.392 . S
C932 C935 1.511 . S
C933 C929 1.376 . S
C933 C932 1.392 . S
C933 H945 0.929 . S
C934 C930 1.531 . S
C934 H946 0.960 . S
C934 H947 0.962 . S
C934 H948 0.960 . S
C935 C932 1.511 . S
C935 H949 0.961 . S
C935 H950 0.961 . S
C935 H951 0.961 . S
C936 C937 1.370 . S
C936 C938 1.363 . S
C936 H952 0.931 . S
C937 C936 1.370 . S
C937 C941 1.408 . S
C938 C936 1.363 . S
C938 C939 1.370 . S
C938 C942 1.524 . S
C939 C931 1.503 . S
C939 C938 1.370 . S
C939 C940 1.403 . S
C940 C939 1.403 . S
C940 C941 1.404 . S
C940 C943 1.539 . S
C941 C937 1.408 . S
C941 C940 1.404 . S
C941 H953 0.930 . S
C942 C938 1.524 . S
C942 H954 0.956 . S
C942 H955 0.961 . S
C942 H956 0.961 . S
C943 C940 1.539 . S
C943 H957 0.958 . S
C943 H958 0.961 . S
C943 H959 0.960 . S
H944 C928 0.931 . S
H945 C933 0.929 . S
H946 C934 0.960 . S
H947 C934 0.962 . S
H948 C934 0.960 . S
H949 C935 0.961 . S
H950 C935 0.961 . S
H951 C935 0.961 . S
H952 C936 0.931 . S
H953 C941 0.930 . S
H954 C942 0.956 . S
H955 C942 0.961 . S
H956 C942 0.961 . S
H957 C943 0.958 . S
H958 C943 0.961 . S
H959 C943 0.960 . S
C960 C961 1.391 . S
C960 C962 1.394 . S
C960 H976 0.931 . S
C961 C960 1.391 . S
C961 C965 1.376 . S
C962 C960 1.394 . S
C962 C963 1.369 . S
C962 C966 1.531 . S
C963 C962 1.369 . S
C963 C964 1.410 . S
C963 C971 1.503 1_455 S
C964 C963 1.410 . S
C964 C965 1.392 . S
C964 C967 1.511 . S
C965 C961 1.376 . S
C965 C964 1.392 . S
C965 H977 0.929 . S
C966 C962 1.531 . S
C966 H978 0.960 . S
C966 H979 0.962 . S
C966 H980 0.960 . S
C967 C964 1.511 . S
C967 H981 0.961 . S
C967 H982 0.961 1_455 S
C967 H983 0.961 . S
C968 C969 1.370 . S
C968 C970 1.363 . S
C968 H984 0.931 . S
C969 C968 1.370 . S
C969 C973 1.408 . S
C970 C968 1.363 . S
C970 C971 1.370 . S
C970 C974 1.524 . S
C971 C963 1.503 1_655 S
C971 C970 1.370 . S
C971 C972 1.403 . S
C972 C971 1.403 . S
C972 C973 1.404 . S
C972 C975 1.539 . S
C973 C969 1.408 . S
C973 C972 1.404 . S
C973 H985 0.930 . S
C974 C970 1.524 . S
C974 H986 0.920 1_655 S
C974 H987 0.936 1_655 S
C974 H988 0.961 . S
C975 C972 1.539 . S
C975 H989 0.958 . S
C975 H990 0.961 . S
C975 H991 0.960 . S
H976 C960 0.931 . S
H977 C965 0.929 . S
H978 C966 0.960 . S
H979 C966 0.962 . S
H980 C966 0.960 . S
H981 C967 0.961 . S
H982 C967 0.961 1_655 S
H983 C967 0.961 . S
H984 C968 0.931 . S
H985 C973 0.930 . S
H986 C974 0.920 1_455 S
H987 C974 0.936 1_455 S
H988 C974 0.961 . S
H989 C975 0.958 . S
H990 C975 0.961 . S
H991 C975 0.960 . S
C992 C993 1.391 . S
C992 C994 1.394 . S
C992 H1008 0.931 . S
C993 C992 1.391 . S
C993 C997 1.376 . S
C994 C992 1.394 . S
C994 C995 1.369 . S
C994 C998 1.531 . S
C995 C994 1.369 . S
C995 C996 1.410 . S
C995 C1003 1.503 1_655 S
C996 C995 1.410 . S
C996 C997 1.392 . S
C996 C999 1.511 . S
C997 C993 1.376 . S
C997 C996 1.392 . S
C997 H1009 0.929 . S
C998 C994 1.531 . S
C998 H1010 0.960 . S
C998 H1011 0.962 . S
C998 H1012 0.960 . S
C999 C996 1.511 . S
C999 H1013 0.961 . S
C999 H1014 0.961 1_655 S
C999 H1015 0.961 . S
C1000 C1001 1.370 . S
C1000 C1002 1.363 . S
C1000 H1016 0.931 . S
C1001 C1000 1.370 . S
C1001 C1005 1.408 . S
C1002 C1000 1.363 . S
C1002 C1003 1.370 . S
C1002 C1006 1.524 . S
C1003 C995 1.503 1_455 S
C1003 C1002 1.370 . S
C1003 C1004 1.403 . S
C1004 C1003 1.403 . S
C1004 C1005 1.404 . S
C1004 C1007 1.539 . S
C1005 C1001 1.408 . S
C1005 C1004 1.404 . S
C1005 H1017 0.930 . S
C1006 C1002 1.524 . S
C1006 H1018 0.921 1_455 S
C1006 H1019 0.937 1_455 S
C1006 H1020 0.961 . S
C1007 C1004 1.539 . S
C1007 H1021 0.958 . S
C1007 H1022 0.961 . S
C1007 H1023 0.960 . S
H1008 C992 0.931 . S
H1009 C997 0.929 . S
H1010 C998 0.960 . S
H1011 C998 0.962 . S
H1012 C998 0.960 . S
H1013 C999 0.961 . S
H1014 C999 0.961 1_455 S
H1015 C999 0.961 . S
H1016 C1000 0.931 . S
H1017 C1005 0.930 . S
H1018 C1006 0.921 1_655 S
H1019 C1006 0.937 1_655 S
H1020 C1006 0.961 . S
H1021 C1007 0.958 . S
H1022 C1007 0.961 . S
H1023 C1007 0.960 . S
C1024 C1025 1.391 . S
C1024 C1026 1.394 . S
C1024 H1040 0.931 . S
C1025 C1024 1.391 . S
C1025 C1029 1.376 . S
C1026 C1024 1.394 . S
C1026 C1027 1.369 . S
C1026 C1030 1.531 . S
C1027 C1026 1.369 . S
C1027 C1028 1.410 . S
C1027 C1035 1.503 . S
C1028 C1027 1.410 . S
C1028 C1029 1.392 . S
C1028 C1031 1.511 . S
C1029 C1025 1.376 . S
C1029 C1028 1.392 . S
C1029 H1041 0.929 . S
C1030 C1026 1.531 . S
C1030 H1042 0.960 . S
C1030 H1043 0.962 . S
C1030 H1044 0.960 . S
C1031 C1028 1.511 . S
C1031 H1045 0.961 . S
C1031 H1046 0.961 . S
C1031 H1047 0.961 . S
C1032 C1033 1.370 . S
C1032 C1034 1.363 . S
C1032 H1048 0.931 . S
C1033 C1032 1.370 . S
C1033 C1037 1.408 . S
C1034 C1032 1.363 . S
C1034 C1035 1.370 . S
C1034 C1038 1.524 . S
C1035 C1027 1.503 . S
C1035 C1034 1.370 . S
C1035 C1036 1.403 . S
C1036 C1035 1.403 . S
C1036 C1037 1.404 . S
C1036 C1039 1.539 . S
C1037 C1033 1.408 . S
C1037 C1036 1.404 . S
C1037 H1049 0.930 . S
C1038 C1034 1.524 . S
C1038 H1050 0.956 . S
C1038 H1051 0.961 . S
C1038 H1052 0.961 . S
C1039 C1036 1.539 . S
C1039 H1053 0.958 . S
C1039 H1054 0.961 . S
C1039 H1055 0.960 . S
H1040 C1024 0.931 . S
H1041 C1029 0.929 . S
H1042 C1030 0.960 . S
H1043 C1030 0.962 . S
H1044 C1030 0.960 . S
H1045 C1031 0.961 . S
H1046 C1031 0.961 . S
H1047 C1031 0.961 . S
H1048 C1032 0.931 . S
H1049 C1037 0.930 . S
H1050 C1038 0.956 . S
H1051 C1038 0.961 . S
H1052 C1038 0.961 . S
H1053 C1039 0.958 . S
H1054 C1039 0.961 . S
H1055 C1039 0.960 . S
C1056 C1057 1.391 . S
C1056 C1058 1.394 . S
C1056 H1072 0.931 . S
C1057 C1056 1.391 . S
C1057 C1061 1.376 . S
C1058 C1056 1.394 . S
C1058 C1059 1.369 . S
C1058 C1062 1.531 . S
C1059 C1058 1.369 . S
C1059 C1060 1.410 . S
C1059 C1067 1.503 . S
C1060 C1059 1.410 . S
C1060 C1061 1.392 . S
C1060 C1063 1.511 . S
C1061 C1057 1.376 . S
C1061 C1060 1.392 . S
C1061 H1073 0.929 . S
C1062 C1058 1.531 . S
C1062 H1074 0.960 . S
C1062 H1075 0.962 . S
C1062 H1076 0.960 . S
C1063 C1060 1.511 . S
C1063 H1077 0.961 . S
C1063 H1078 0.961 . S
C1063 H1079 0.961 . S
C1064 C1065 1.370 . S
C1064 C1066 1.363 . S
C1064 H1080 0.931 . S
C1065 C1064 1.370 . S
C1065 C1069 1.408 . S
C1066 C1064 1.363 . S
C1066 C1067 1.370 . S
C1066 C1070 1.524 . S
C1067 C1059 1.503 . S
C1067 C1066 1.370 . S
C1067 C1068 1.403 . S
C1068 C1067 1.403 . S
C1068 C1069 1.404 . S
C1068 C1071 1.539 . S
C1069 C1065 1.408 . S
C1069 C1068 1.404 . S
C1069 H1081 0.930 . S
C1070 C1066 1.524 . S
C1070 H1082 0.956 . S
C1070 H1083 0.961 . S
C1070 H1084 0.961 . S
C1071 C1068 1.539 . S
C1071 H1085 0.958 . S
C1071 H1086 0.961 . S
C1071 H1087 0.960 . S
H1072 C1056 0.931 . S
H1073 C1061 0.929 . S
H1074 C1062 0.960 . S
H1075 C1062 0.962 . S
H1076 C1062 0.960 . S
H1077 C1063 0.961 . S
H1078 C1063 0.961 . S
H1079 C1063 0.961 . S
H1080 C1064 0.931 . S
H1081 C1069 0.930 . S
H1082 C1070 0.956 . S
H1083 C1070 0.961 . S
H1084 C1070 0.961 . S
H1085 C1071 0.958 . S
H1086 C1071 0.961 . S
H1087 C1071 0.960 . S
C321 C29 1.660 . S
C329 C288 1.647 . S
C353 C248 1.642 . S
C361 C69 1.653 . S
C385 C229 1.645 . S
C393 C88 1.654 . S
C417 C189 1.647 . S
C425 C128 1.652 . S
C449 C97 1.571 . S
C457 C17 1.550 . S
C481 C57 1.579 . S
C489 C137 1.559 . S
C513 C122 1.546 . S
C521 C42 1.576 . S
C545 C82 1.526 . S
C553 C2 1.581 . S
C577 C177 1.463 . S
C585 C257 1.447 . S
C609 C217 1.437 1_554 S
C617 C297 1.454 . S
C641 C282 1.444 1_556 S
C649 C202 1.447 . S
C673 C242 1.421 . S
C681 C162 1.461 . S
C705 C31 2.038 . S
C713 C12 2.061 . S
C737 C71 2.065 . S
C745 C52 2.048 . S
C769 C111 2.062 . S
C777 C92 2.049 . S
C801 C132 2.038 . S
C809 C151 2.061 . S
C833 C172 2.057 . S
C841 C191 2.052 . S
C865 C231 2.042 . S
C873 C212 2.058 . S
C897 C252 2.052 . S
C905 C271 2.055 . S
C929 C292 2.062 . S
C937 C311 2.048 . S
C961 C8 2.268 . S
C969 C48 2.262 . S
C993 C149 2.226 . S
C1001 C109 2.245 . S
C1025 C168 2.228 . S
C1033 C208 2.246 . S
C1057 C309 2.268 . S
C1065 C269 2.259 . S
