# Generated by pormake.
# Topology snp, (6)-cn, num edge types: 1
# Building blocks:
#     Node 0, Type 0, BuildingBlock: FUNLAD_clean_sbu_0, # of connection points: 6
#     Node 1, Type 0, BuildingBlock: FUNLAD_clean_sbu_0, # of connection points: 6
#     Node 2, Type 0, BuildingBlock: FUNLAD_clean_sbu_0, # of connection points: 6
#     Node 3, Type 0, BuildingBlock: FUNLAD_clean_sbu_0, # of connection points: 6
#     Edge 4, Type (0, 0), BuildingBlock: KIFKEQ_clean_linker_1, # of connection points: 2
#     Edge 5, Type (0, 0), BuildingBlock: KIFKEQ_clean_linker_1, # of connection points: 2
#     Edge 6, Type (0, 0), BuildingBlock: KIFKEQ_clean_linker_1, # of connection points: 2
#     Edge 7, Type (0, 0), BuildingBlock: KIFKEQ_clean_linker_1, # of connection points: 2
#     Edge 8, Type (0, 0), BuildingBlock: KIFKEQ_clean_linker_1, # of connection points: 2
#     Edge 9, Type (0, 0), BuildingBlock: KIFKEQ_clean_linker_1, # of connection points: 2
#     Edge 10, Type (0, 0), BuildingBlock: KIFKEQ_clean_linker_1, # of connection points: 2
#     Edge 11, Type (0, 0), BuildingBlock: KIFKEQ_clean_linker_1, # of connection points: 2
#     Edge 12, Type (0, 0), BuildingBlock: KIFKEQ_clean_linker_1, # of connection points: 2
#     Edge 13, Type (0, 0), BuildingBlock: KIFKEQ_clean_linker_1, # of connection points: 2
#     Edge 14, Type (0, 0), BuildingBlock: KIFKEQ_clean_linker_1, # of connection points: 2
#     Edge 15, Type (0, 0), BuildingBlock: KIFKEQ_clean_linker_1, # of connection points: 2
# Relax obj value: 1.234
# Max RMSD: 0.253
# Mean RMSD: 0.253
data_MOF--net-snp--node1-FUNLAD_clean_sbu_0--edge1-KIFKEQ_clean_linker_1
_symmetry_space_group_name_H-M    P1
_symmetry_Int_Tables_number       1
_symmetry_cell_setting            triclinic
loop_
_symmetry_equiv_pos_as_xyz
'x, y, z'
_cell_length_a     35.126247
_cell_length_b     35.122257
_cell_length_c     22.149049
_cell_angle_alpha  90.906855
_cell_angle_beta   89.715619
_cell_angle_gamma 90.281026
loop_
_atom_site_label
_atom_site_type_symbol
_atom_site_fract_x
_atom_site_fract_y
_atom_site_fract_z
_atom_type_partial_charge
C0 C 0.27043 0.02499 0.94976 0.0
N1 N 0.35016 0.0818 0.06226 0.0
C2 C 0.36931 0.04816 0.06106 0.0
C3 C 0.4091 0.04761 0.06557 0.0
C4 C 0.42952 0.08194 0.07228 0.0
C5 C 0.40891 0.11606 0.07632 0.0
C6 C 0.36918 0.11538 0.07061 0.0
Zn7 Zn 0.29271 0.08304 0.04016 0.0
C8 C 0.27778 0.13522 0.9385 0.0
N9 N 0.17559 0.08753 0.98793 0.0
C10 C 0.16067 0.05201 0.97976 0.0
C11 C 0.16508 0.11669 0.95166 0.0
C12 C 0.14504 0.10898 0.8983 0.0
C13 C 0.13543 0.07119 0.88382 0.0
C14 C 0.14085 0.04306 0.92717 0.0
Zn15 Zn 0.23033 0.08735 0.02014 0.0
O16 O 0.30077 0.03634 0.97559 0.0
C17 C 0.24209 0.03433 0.12126 0.0
O18 O 0.23937 0.0413 0.96191 0.0
H19 H 0.1766 0.14495 0.95939 0.0
H20 H 0.35389 0.02172 0.0544 0.0
H21 H 0.16914 0.02912 1.00876 0.0
O22 O 0.2771 0.04263 0.11128 0.0
O23 O 0.21643 0.04982 0.08981 0.0
H24 H 0.35372 0.14192 0.07044 0.0
O25 O 0.22171 0.13413 0.07764 0.0
O26 O 0.28216 0.12983 0.10336 0.0
O27 O 0.24471 0.12387 0.95151 0.0
O28 O 0.306 0.1233 0.9685 0.0
C29 C 0.24985 0.14616 0.10854 0.0
H30 H 0.42382 0.02061 0.06284 0.0
H31 H 0.42348 0.14319 0.08097 0.0
H32 H 0.13998 0.13159 0.86668 0.0
H33 H 0.13219 1.01382 0.91851 0.0
C34 C 0.13893 0.2813 0.44087 0.0
N35 N 0.0799 0.35073 0.56616 0.0
C36 C 0.11327 0.37062 0.56601 0.0
C37 C 0.11351 0.41035 0.57203 0.0
C38 C 0.07908 0.43034 0.57919 0.0
C39 C 0.04517 0.40875 0.58233 0.0
C40 C 0.0462 0.36896 0.57522 0.0
Zn41 Zn 0.08179 0.29356 0.54057 0.0
C42 C 0.02904 0.2723 0.44381 0.0
N43 N 0.09065 0.17782 0.47834 0.0
C44 C 0.11998 0.16775 0.44076 0.0
C45 C 0.05526 0.16272 0.47019 0.0
C46 C 0.04676 0.1426 0.41739 0.0
C47 C 0.07508 0.13721 0.37327 0.0
C48 C 0.11268 0.14743 0.38704 0.0
Zn49 Zn 0.08987 0.23199 0.51528 0.0
O50 O 0.12293 0.30836 0.46994 0.0
C51 C 0.14415 0.24986 0.6089 0.0
O52 O 0.13006 0.24739 0.45232 0.0
H53 H 0.03209 0.17087 0.49979 0.0
H54 H 0.13983 0.3558 0.55846 0.0
H55 H 0.1482 0.17925 0.44836 0.0
O56 O 0.12804 0.28233 0.60436 0.0
O57 O 0.13314 0.22196 0.57603 0.0
H58 H 0.0199 0.3528 0.5749 0.0
O59 O 0.04876 0.21723 0.58023 0.0
O60 O 0.04022 0.27671 0.60974 0.0
O61 O 0.04751 0.24229 0.45308 0.0
O62 O 0.036 0.30199 0.47564 0.0
C63 C 0.03193 0.24134 0.61433 0.0
H64 H 0.14046 0.42519 0.56834 0.0
H65 H 0.01788 0.42238 0.58911 0.0
H66 H 0.01769 0.13337 0.40949 0.0
H67 H 0.1355 0.14226 0.35493 0.0
C68 C 0.89555 0.10681 0.94845 0.0
N69 N 0.79976 0.07654 0.05733 0.0
C70 C 0.78253 0.11065 0.0483 0.0
C71 C 0.7426 0.11361 0.05058 0.0
C72 C 0.72005 0.08123 0.06267 0.0
C73 C 0.73896 0.04679 0.07324 0.0
C74 C 0.7786 0.04499 0.06959 0.0
Zn75 Zn 0.85822 0.06801 0.04897 0.0
C76 C 0.87435 0.99957 0.97537 0.0
N77 N 0.97557 0.03873 0.03557 0.0
C78 C 0.99362 0.0594 0.99259 0.0
C79 C 0.98029 1.00017 0.03748 0.0
C80 C 0.99379 0.98044 0.98641 0.0
C81 C 1.00414 1.00119 0.93551 0.0
C82 C 1.00705 0.04102 0.94053 0.0
Zn83 Zn 0.91997 0.05501 0.05067 0.0
O84 O 0.86314 0.10834 0.97458 0.0
C85 C 0.90652 0.1231 0.12435 0.0
O86 O 0.92108 0.08585 0.97024 0.0
H87 H 0.96665 0.98398 0.07268 0.0
H88 H 0.79965 0.13543 0.03812 0.0
H89 H 0.99125 0.0901 0.99311 0.0
O90 O 0.87202 0.11323 0.11375 0.0
O91 O 0.93385 0.10453 0.10016 0.0
H92 H 0.7924 0.01791 0.07571 0.0
O93 O 0.91858 0.02474 0.12904 0.0
O94 O 0.85619 0.02718 0.12371 0.0
O95 O 0.90537 1.00607 1.00198 0.0
O96 O 0.84703 0.02278 0.98284 0.0
C97 C 0.88627 1.01508 0.14901 0.0
H98 H 0.72964 0.14079 0.04144 0.0
H99 H 0.7234 0.02113 0.08418 0.0
H100 H 0.9926 0.94961 0.98463 0.0
H101 H 0.01689 0.05783 0.90286 0.0
C102 C 0.11539 0.90036 0.46347 0.0
N103 N 0.04515 0.97886 0.55891 0.0
C104 C 0.06622 0.99792 0.51744 0.0
C105 C 0.04829 1.01238 0.46673 0.0
C106 C 1.0085 1.00977 0.46224 0.0
C107 C 0.98735 0.99889 0.51272 0.0
C108 C 1.00669 0.98438 0.56232 0.0
Zn109 Zn 0.05931 0.92184 0.56345 0.0
C110 C 1.00478 0.88305 0.47541 0.0
N111 N 0.07452 0.79985 0.55223 0.0
C112 C 0.10898 0.78325 0.56128 0.0
C113 C 0.04252 0.77808 0.54587 0.0
C114 C 0.04439 0.73836 0.54757 0.0
C115 C 0.07939 0.72042 0.55722 0.0
C116 C 0.11201 0.74343 0.56444 0.0
Zn117 Zn 0.06734 0.85875 0.55149 0.0
O118 O 0.09747 0.927 0.49017 0.0
C119 C 0.12167 0.90088 0.63938 0.0
O120 O 0.10946 0.86602 0.4793 0.0
H121 H 1.01518 0.79149 0.54025 0.0
H122 H 0.09692 0.9957 0.51753 0.0
H123 H 0.13412 0.80086 0.56662 0.0
O124 O 0.10436 0.93046 0.62209 0.0
O125 O 0.11169 0.8679 0.61953 0.0
H126 H 0.99003 0.97087 0.59711 0.0
O127 O 0.0244 0.85359 0.62332 0.0
O128 O 0.02294 0.91572 0.63591 0.0
O129 O 0.02362 0.85275 0.48302 0.0
O130 O 1.01409 0.91287 0.50429 0.0
C131 C 1.01156 0.88303 0.65088 0.0
H132 H 0.06538 0.02256 0.42936 0.0
H133 H 0.95654 0.99793 0.5114 0.0
H134 H 0.01844 0.72182 0.54272 0.0
H135 H 0.1396 0.73074 0.57185 0.0
H136 H 0.05791 0.94801 0.90519 0.0
H137 H 0.96434 1.01067 0.83109 0.0
H138 H 0.08748 0.94524 0.80636 0.0
H139 H 0.99485 1.00824 0.73196 0.0
H140 H 0.16382 0.018 0.80454 0.0
H141 H 0.12421 0.98015 0.73635 0.0
H142 H 0.03398 0.06208 0.75851 0.0
H143 H 0.07327 0.09956 0.82635 0.0
C144 C 0.04297 0.95989 0.86724 0.0
C145 C 1.01079 0.98259 0.87632 0.0
C146 C 0.05968 0.95821 0.80986 0.0
C147 C 0.04679 0.98352 0.76534 0.0
C148 C 1.00791 0.99295 0.76851 0.0
C149 C 0.99067 0.99503 0.82557 0.0
C150 C 0.13593 0.02857 0.79275 0.0
C151 C 0.12014 0.0599 0.82418 0.0
C152 C 0.11334 1.00714 0.75293 0.0
C153 C 0.07414 1.01499 0.74996 0.0
C154 C 0.06289 0.05261 0.76544 0.0
C155 C 0.08532 0.07439 0.80495 0.0
H156 H 0.95993 0.06623 0.42981 0.0
H157 H 1.01538 0.96519 0.36143 0.0
H158 H 0.95626 0.09043 0.3284 0.0
H159 H 1.01217 0.98959 0.25917 0.0
H160 H 0.1051 0.07428 0.31658 0.0
H161 H 0.06601 0.03052 0.25842 0.0
H162 H 0.9812 0.11706 0.23743 0.0
H163 H 0.02071 0.16169 0.29469 0.0
C164 C 0.96993 0.04855 0.39254 0.0
C165 C 0.9905 1.01543 0.40323 0.0
C166 C 0.96778 0.06215 0.33375 0.0
C167 C 0.9894 0.04431 0.2872 0.0
C168 C 0.9987 1.00578 0.29534 0.0
C169 C 1.00108 0.99198 0.35404 0.0
C170 C 0.07899 0.08466 0.29702 0.0
C171 C 0.06422 0.12012 0.31445 0.0
C172 C 0.05623 0.05961 0.26317 0.0
C173 C 0.01751 0.06888 0.25428 0.0
C174 C 1.00926 0.10796 0.251 0.0
C175 C 0.03166 0.13349 0.2847 0.0
H176 H 0.66948 0.02516 0.02732 0.0
H177 H 0.67273 0.14046 0.0983 0.0
H178 H 0.60084 0.02537 0.03284 0.0
H179 H 0.6034 0.14182 0.09883 0.0
H180 H 0.47826 0.12056 0.1485 0.0
H181 H 0.54781 0.12107 0.14642 0.0
H182 H 0.54605 0.04658 0.98906 0.0
H183 H 0.47691 0.04481 0.99342 0.0
C184 C 0.6557 0.05071 0.04421 0.0
C185 C 0.67726 0.08263 0.06311 0.0
C186 C 0.61588 0.05108 0.04626 0.0
C187 C 0.59594 0.08367 0.06606 0.0
C188 C 0.61741 0.1159 0.08411 0.0
C189 C 0.65742 0.11534 0.08289 0.0
C190 C 0.49289 0.10423 0.11366 0.0
C191 C 0.47204 0.08232 0.07154 0.0
C192 C 0.53287 0.1047 0.11209 0.0
C193 C 0.55312 0.08374 0.06769 0.0
C194 C 0.53195 0.06234 0.02503 0.0
C195 C 0.4921 0.06138 0.02728 0.0
H196 H 0.1335 0.48061 0.62352 0.0
H197 H 0.02369 0.47827 0.53628 0.0
H198 H 0.13515 0.54943 0.61637 0.0
H199 H 0.02383 0.54717 0.53413 0.0
H200 H 0.04858 0.66803 0.47896 0.0
H201 H 0.04908 0.59894 0.48531 0.0
H202 H 0.11313 0.60775 0.65128 0.0
H203 H 0.11406 0.67697 0.64272 0.0
C204 C 0.10952 0.49459 0.60304 0.0
C205 C 0.0786 0.47321 0.58004 0.0
C206 C 0.11021 0.53446 0.59982 0.0
C207 C 0.07974 0.55447 0.57429 0.0
C208 C 0.04834 0.53315 0.55292 0.0
C209 C 0.04791 0.49328 0.5553 0.0
C210 C 0.06288 0.65512 0.51667 0.0
C211 C 0.08127 0.67802 0.56031 0.0
C212 C 0.06292 0.61535 0.52073 0.0
C213 C 0.08078 0.59716 0.56925 0.0
C214 C 0.0995 0.62027 0.61269 0.0
C215 C 0.09999 0.6601 0.60799 0.0
H216 H 0.11707 0.29173 0.32671 0.0
H217 H 0.21603 0.27798 0.43777 0.0
H218 H 0.15159 0.26716 0.24002 0.0
H219 H 0.25247 0.25619 0.34989 0.0
H220 H 0.27511 0.15234 0.22432 0.0
H221 H 0.25557 0.19905 0.30037 0.0
H222 H 0.19399 0.2604 0.16397 0.0
H223 H 0.21105 0.21144 0.08975 0.0
C224 C 0.14715 0.28586 0.33146 0.0
C225 C 0.16397 0.28703 0.38863 0.0
C226 C 0.16719 0.2714 0.28158 0.0
C227 C 0.20491 0.25838 0.28759 0.0
C228 C 0.22315 0.26448 0.34354 0.0
C229 C 0.20265 0.27804 0.39379 0.0
C230 C 0.25786 0.1762 0.21075 0.0
C231 C 0.2441 0.17809 0.15163 0.0
C232 C 0.2468 0.20338 0.25426 0.0
C233 C 0.22252 0.23372 0.23916 0.0
C234 C 0.21154 0.23702 0.17834 0.0
C235 C 0.22158 0.20915 0.13545 0.0
H236 H 1.00772 0.27379 0.7229 0.0
H237 H 0.99122 0.17589 0.60553 0.0
H238 H 0.96745 0.2436 0.80009 0.0
H239 H 0.9508 0.14657 0.6809 0.0
H240 H 0.94054 0.08227 0.8577 0.0
H241 H 0.96758 0.11824 0.77558 0.0
H242 H 0.90261 0.21682 0.83183 0.0
H243 H 0.87534 0.18007 0.91599 0.0
C244 C 0.99492 0.24629 0.71307 0.0
C245 C 1.00332 0.22697 0.65848 0.0
C246 C 0.97173 0.22903 0.75716 0.0
C247 C 0.95637 0.19228 0.74722 0.0
C248 C 0.96281 0.17441 0.69088 0.0
C249 C 0.98604 0.19134 0.64748 0.0
C250 C 0.93134 0.11142 0.8521 0.0
C251 C 0.90553 0.12819 0.89316 0.0
C252 C 0.94684 0.13213 0.8047 0.0
C253 C 0.93726 0.17053 0.79663 0.0
C254 C 0.91069 0.18734 0.83685 0.0
C255 C 0.89469 0.16622 0.88449 0.0
H256 H 0.93644 0.91573 0.49305 0.0
H257 H 1.00626 0.86172 0.35632 0.0
H258 H 0.89515 0.94099 0.41545 0.0
H259 H 0.96589 0.88818 0.27791 0.0
H260 H 0.88827 0.93827 0.14299 0.0
H261 H 0.90709 0.89605 0.2245 0.0
H262 H 0.90636 0.99213 0.34902 0.0
H263 H 0.88703 0.03359 0.26769 0.0
C264 C 0.94207 0.90815 0.44623 0.0
C265 C 0.97426 0.88654 0.43053 0.0
C266 C 0.91875 0.92307 0.40169 0.0
C267 C 0.92749 0.9173 0.34026 0.0
C268 C 0.95797 0.89294 0.3247 0.0
C269 C 0.98109 0.87755 0.36957 0.0
C270 C 0.89047 0.94976 0.18856 0.0
C271 C 0.88521 0.98881 0.19979 0.0
C272 C 0.90184 0.92579 0.235 0.0
C273 C 0.90851 0.94059 0.29342 0.0
C274 C 0.90089 0.97942 0.30505 0.0
C275 C 0.8896 1.0033 0.25859 0.0
H276 H 0.19177 0.92826 0.61389 0.0
H277 H 0.12222 0.88675 0.75954 0.0
H278 H 0.2406 0.94847 0.68576 0.0
H279 H 0.16943 0.90925 0.83247 0.0
H280 H 0.2562 0.94936 0.9601 0.0
H281 H 0.22824 0.90906 0.88076 0.0
H282 H 0.24733 0.99895 0.7526 0.0
H283 H 0.27688 0.03758 0.83117 0.0
C284 C 0.18742 0.92286 0.66147 0.0
C285 C 0.15363 0.90573 0.68147 0.0
C286 C 0.21511 0.93487 0.70286 0.0
C287 C 0.20906 0.93111 0.76544 0.0
C288 C 0.17575 0.91216 0.78489 0.0
C289 C 0.14847 0.89934 0.74321 0.0
C290 C 0.25642 0.95931 0.91404 0.0
C291 C 0.26963 0.99607 0.90122 0.0
C292 C 0.23954 0.93667 0.86874 0.0
C293 C 0.23471 0.95078 0.81004 0.0
C294 C 0.25085 0.98651 0.79659 0.0
C295 C 0.26817 1.00877 0.84164 0.0
H296 H 0.85624 1.00482 0.85661 0.0
H297 H 0.8976 0.92725 0.98977 0.0
H298 H 0.88292 0.96446 0.77647 0.0
H299 H 0.92314 0.886 0.91002 0.0
H300 H 0.02357 0.87799 0.77078 0.0
H301 H 0.97879 0.8966 0.85014 0.0
H302 H 0.88989 0.90681 0.71714 0.0
H303 H 0.93547 0.88885 0.63776 0.0
C304 C 0.86896 0.97792 0.86847 0.0
C305 C 0.87456 0.96894 0.92923 0.0
C306 C 0.88461 0.95482 0.82256 0.0
C307 C 0.90588 0.92221 0.83677 0.0
C308 C 0.90768 0.91125 0.89744 0.0
C309 C 0.89244 0.93451 0.94314 0.0
C310 C 0.99401 0.88243 0.75914 0.0
C311 C 0.98258 0.88099 0.69868 0.0
C312 C 0.96824 0.89329 0.8045 0.0
C313 C 0.93056 0.90335 0.79018 0.0
C314 C 0.91867 0.89956 0.7298 0.0
C315 C 0.94453 0.88868 0.68446 0.0
H316 H 0.27994 1.01497 0.2253 0.0
H317 H 0.17674 0.99261 0.1256 0.0
H318 H 0.2556 0.97576 0.30812 0.0
H319 H 0.15286 0.95336 0.20737 0.0
H320 H 0.12728 0.86603 0.35203 0.0
H321 H 0.16363 0.89262 0.26701 0.0
H322 H 0.20032 0.98631 0.38133 0.0
H323 H 0.1638 0.96027 0.46506 0.0
C324 C 0.25244 1.00118 0.22056 0.0
C325 C 0.2302 1.00722 0.16902 0.0
C326 C 0.23843 0.97882 0.26802 0.0
C327 C 0.20225 0.96133 0.26437 0.0
C328 C 0.18095 0.96597 0.21151 0.0
C329 C 0.19458 0.9888 0.16479 0.0
C330 C 0.14395 0.89172 0.35917 0.0
C331 C 0.14274 0.91103 0.41516 0.0
C332 C 0.16451 0.90714 0.31049 0.0
C333 C 0.18489 0.94167 0.31734 0.0
C334 C 0.18537 0.95955 0.37449 0.0
C335 C 0.1643 0.94466 0.42247 0.0
H336 H 0.14879 0.2746 0.72645 0.0
H337 H 0.2089 0.20996 0.58957 0.0
H338 H 0.19372 0.25318 0.80231 0.0
H339 H 0.2556 0.19067 0.66374 0.0
H340 H 0.28215 0.11194 0.823 0.0
H341 H 0.25731 0.14684 0.73863 0.0
H342 H 0.25193 0.24882 0.85056 0.0
H343 H 0.27497 0.21242 0.93608 0.0
C344 C 0.17244 0.25683 0.71236 0.0
C345 C 0.17515 0.24352 0.65248 0.0
C346 C 0.19849 0.24462 0.75575 0.0
C347 C 0.22833 0.21949 0.73982 0.0
C348 C 0.23252 0.20891 0.67855 0.0
C349 C 0.20593 0.22024 0.63574 0.0
C350 C 0.27758 0.14229 0.82855 0.0
C351 C 0.28129 0.15967 0.88558 0.0
C352 C 0.26294 0.16251 0.7801 0.0
C353 C 0.25179 0.20086 0.78741 0.0
C354 C 0.25923 0.21919 0.84325 0.0
C355 C 0.27342 0.19866 0.89202 0.0
H356 H 0.88385 0.13245 0.24143 0.0
H357 H 0.95049 0.18479 0.10142 0.0
H358 H 0.90779 0.17921 0.31473 0.0
H359 H 0.97202 0.23375 0.1726 0.0
H360 H 0.95132 0.2664 0.44316 0.0
H361 H 0.91425 0.23828 0.36022 0.0
H362 H 1.01509 0.23989 0.24711 0.0
H363 H 0.05033 0.26983 0.32819 0.0
C364 C 0.90263 0.15491 0.22608 0.0
C365 C 0.91546 0.1551 0.16603 0.0
C366 C 0.91629 0.18201 0.268 0.0
C367 C 0.94238 0.21053 0.25038 0.0
C368 C 0.953 0.21184 0.18891 0.0
C369 C 0.94034 0.18403 0.14766 0.0
C370 C 0.96462 0.26278 0.39922 0.0
C371 C 1.00338 0.27129 0.39147 0.0
C372 C 0.94374 0.24567 0.35197 0.0
C373 C 0.96152 0.23591 0.29651 0.0
C374 C 0.99968 0.24728 0.288 0.0
C375 C 0.02013 0.26483 0.33467 0.0
loop_
_geom_bond_atom_site_label_1
_geom_bond_atom_site_label_2
_geom_bond_distance
_geom_bond_site_symmetry_2
_ccdc_geom_bond_type
C0 O16 1.251 . S
C0 O18 1.254 . S
N1 C2 1.333 1_554 S
N1 C6 1.307 . S
N1 Zn7 2.020 . S
C2 N1 1.333 1_556 S
C2 C3 1.379 . S
C2 H20 0.952 . S
C3 C2 1.379 . S
C3 C4 1.390 1_556 S
C3 H30 0.949 . S
C4 C3 1.390 1_554 S
C4 C5 1.357 . S
C5 C4 1.357 . S
C5 C6 1.370 . S
C5 H31 0.950 . S
C6 N1 1.307 . S
C6 C5 1.370 . S
C6 H24 0.948 . S
Zn7 N1 2.020 . S
Zn7 O16 2.039 1_554 S
Zn7 O22 2.034 . S
Zn7 O26 2.025 . S
Zn7 O28 2.024 1_554 S
C8 O27 1.246 . S
C8 O28 1.249 . S
N9 C10 1.306 1_554 S
N9 C11 1.334 . S
N9 Zn15 2.020 . S
C10 N9 1.306 1_556 S
C10 C14 1.370 . S
C10 H21 0.948 . S
C11 N9 1.334 . S
C11 C12 1.379 . S
C11 H19 0.952 . S
C12 C11 1.379 . S
C12 C13 1.390 . S
C12 H32 0.949 . S
C13 C12 1.390 . S
C13 C14 1.357 1_554 S
C14 C10 1.370 . S
C14 C13 1.357 1_556 S
C14 H33 0.950 . S
Zn15 N9 2.020 . S
Zn15 O18 2.025 1_554 S
Zn15 O23 2.024 . S
Zn15 O25 2.039 . S
Zn15 O27 2.034 1_554 S
O16 C0 1.251 . S
O16 Zn7 2.039 1_556 S
C17 O22 1.246 . S
C17 O23 1.249 . S
O18 C0 1.254 . S
O18 Zn15 2.025 1_556 S
H19 C11 0.952 . S
H20 C2 0.952 . S
H21 C10 0.948 . S
O22 Zn7 2.034 . S
O22 C17 1.246 . S
O23 Zn15 2.024 . S
O23 C17 1.249 . S
H24 C6 0.948 . S
O25 Zn15 2.039 . S
O25 C29 1.251 . S
O26 Zn7 2.025 . S
O26 C29 1.254 . S
O27 C8 1.246 . S
O27 Zn15 2.034 1_556 S
O28 Zn7 2.024 1_556 S
O28 C8 1.249 . S
C29 O25 1.251 . S
C29 O26 1.254 . S
H30 C3 0.949 . S
H31 C5 0.950 . S
H32 C12 0.949 . S
H33 C14 0.950 . S
C34 O50 1.251 . S
C34 O52 1.254 . S
N35 C36 1.333 . S
N35 C40 1.307 . S
N35 Zn41 2.020 . S
C36 N35 1.333 . S
C36 C37 1.379 . S
C36 H54 0.952 . S
C37 C36 1.379 . S
C37 C38 1.390 . S
C37 H64 0.949 . S
C38 C37 1.390 . S
C38 C39 1.357 . S
C39 C38 1.357 . S
C39 C40 1.370 . S
C39 H65 0.950 1_455 S
C40 N35 1.307 . S
C40 C39 1.370 . S
C40 H58 0.948 1_455 S
Zn41 N35 2.020 . S
Zn41 O50 2.039 . S
Zn41 O56 2.034 . S
Zn41 O60 2.025 1_455 S
Zn41 O62 2.024 1_455 S
C42 O61 1.245 1_655 S
C42 O62 1.249 . S
N43 C44 1.307 . S
N43 C45 1.333 . S
N43 Zn49 2.020 . S
C44 N43 1.307 . S
C44 C48 1.370 . S
C44 H55 0.948 . S
C45 N43 1.333 . S
C45 C46 1.379 . S
C45 H53 0.952 1_455 S
C46 C45 1.379 . S
C46 C47 1.390 . S
C46 H66 0.949 1_455 S
C47 C46 1.390 . S
C47 C48 1.357 . S
C48 C44 1.370 . S
C48 C47 1.357 . S
C48 H67 0.950 . S
Zn49 N43 2.020 . S
Zn49 O52 2.025 . S
Zn49 O57 2.024 . S
Zn49 O59 2.039 . S
Zn49 O61 2.034 . S
O50 C34 1.251 . S
O50 Zn41 2.039 . S
C51 O56 1.246 . S
C51 O57 1.249 . S
O52 C34 1.254 . S
O52 Zn49 2.025 . S
H53 C45 0.952 1_655 S
H54 C36 0.952 . S
H55 C44 0.948 . S
O56 Zn41 2.034 . S
O56 C51 1.246 . S
O57 Zn49 2.024 . S
O57 C51 1.249 . S
H58 C40 0.948 1_655 S
O59 Zn49 2.039 . S
O59 C63 1.251 1_455 S
O60 Zn41 2.025 1_655 S
O60 C63 1.254 . S
O61 C42 1.245 1_455 S
O61 Zn49 2.034 . S
O62 Zn41 2.024 1_655 S
O62 C42 1.249 . S
C63 O59 1.251 1_655 S
C63 O60 1.254 . S
H64 C37 0.949 . S
H65 C39 0.950 1_655 S
H66 C46 0.949 1_655 S
H67 C48 0.950 . S
C68 O84 1.251 . S
C68 O86 1.254 . S
N69 C70 1.333 1_554 S
N69 C74 1.307 . S
N69 Zn75 2.020 . S
C70 N69 1.333 1_556 S
C70 C71 1.379 . S
C70 H88 0.952 . S
C71 C70 1.379 . S
C71 C72 1.390 1_556 S
C71 H98 0.949 . S
C72 C71 1.390 1_554 S
C72 C73 1.356 . S
C73 C72 1.356 . S
C73 C74 1.370 . S
C73 H99 0.950 1_545 S
C74 N69 1.307 . S
C74 C73 1.370 . S
C74 H92 0.948 1_545 S
Zn75 N69 2.020 . S
Zn75 O84 2.039 1_554 S
Zn75 O90 2.034 . S
Zn75 O94 2.025 1_545 S
Zn75 O96 2.024 1_544 S
C76 O95 1.252 . S
C76 O96 1.249 . S
N77 C78 1.308 . S
N77 C79 1.330 1_556 S
N77 Zn83 2.020 1_556 S
C78 N77 1.308 . S
C78 C82 1.370 1_655 S
C78 H89 0.948 . S
C79 N77 1.330 1_554 S
C79 C80 1.379 1_655 S
C79 H87 0.952 1_545 S
C80 C79 1.379 1_455 S
C80 C81 1.390 . S
C80 H100 0.949 1_545 S
C81 C80 1.390 . S
C81 C82 1.357 1_554 S
C82 C78 1.370 1_455 S
C82 C81 1.357 1_556 S
C82 H101 0.950 . S
Zn83 N77 2.020 1_554 S
Zn83 O86 2.025 1_554 S
Zn83 O91 2.024 . S
Zn83 O93 2.039 . S
Zn83 O95 2.021 1_544 S
O84 C68 1.251 . S
O84 Zn75 2.039 1_556 S
C85 O90 1.246 . S
C85 O91 1.249 . S
O86 C68 1.254 . S
O86 Zn83 2.025 1_556 S
H87 C79 0.952 1_565 S
H88 C70 0.952 . S
H89 C78 0.948 . S
O90 Zn75 2.034 . S
O90 C85 1.246 . S
O91 Zn83 2.024 . S
O91 C85 1.249 . S
H92 C74 0.948 1_565 S
O93 Zn83 2.039 . S
O93 C97 1.251 1_545 S
O94 Zn75 2.025 1_565 S
O94 C97 1.254 . S
O95 C76 1.252 . S
O95 Zn83 2.021 1_566 S
O96 Zn75 2.024 1_566 S
O96 C76 1.249 . S
C97 O93 1.251 1_565 S
C97 O94 1.254 . S
H98 C71 0.949 . S
H99 C73 0.950 1_565 S
H100 C80 0.949 1_565 S
H101 C82 0.950 . S
C102 O118 1.251 . S
C102 O120 1.254 . S
N103 C104 1.333 . S
N103 C108 1.307 . S
N103 Zn109 2.020 . S
C104 N103 1.333 . S
C104 C105 1.379 1_565 S
C104 H122 0.952 . S
C105 C104 1.379 1_545 S
C105 C106 1.390 . S
C105 H132 0.949 . S
C106 C105 1.390 . S
C106 C107 1.357 . S
C107 C106 1.357 . S
C107 C108 1.370 1_545 S
C107 H133 0.950 . S
C108 N103 1.307 . S
C108 C107 1.370 1_565 S
C108 H126 0.948 . S
Zn109 N103 2.020 . S
Zn109 O118 2.039 . S
Zn109 O124 2.034 . S
Zn109 O128 2.025 . S
Zn109 O130 2.024 . S
C110 O129 1.246 . S
C110 O130 1.249 . S
N111 C112 1.307 . S
N111 C113 1.333 . S
N111 Zn117 2.020 . S
C112 N111 1.307 . S
C112 C116 1.370 . S
C112 H123 0.948 . S
C113 N111 1.333 . S
C113 C114 1.379 . S
C113 H121 0.952 . S
C114 C113 1.379 . S
C114 C115 1.390 . S
C114 H134 0.949 . S
C115 C114 1.390 . S
C115 C116 1.357 . S
C116 C112 1.370 . S
C116 C115 1.357 . S
C116 H135 0.950 . S
Zn117 N111 2.020 . S
Zn117 O120 2.025 . S
Zn117 O125 2.024 . S
Zn117 O127 2.039 . S
Zn117 O129 2.034 . S
O118 C102 1.251 . S
O118 Zn109 2.039 . S
C119 O124 1.246 . S
C119 O125 1.249 . S
O120 C102 1.254 . S
O120 Zn117 2.025 . S
H121 C113 0.952 . S
H122 C104 0.952 . S
H123 C112 0.948 . S
O124 Zn109 2.034 . S
O124 C119 1.246 . S
O125 Zn117 2.024 . S
O125 C119 1.249 . S
H126 C108 0.948 . S
O127 Zn117 2.039 . S
O127 C131 1.251 . S
O128 Zn109 2.025 . S
O128 C131 1.254 . S
O129 C110 1.246 . S
O129 Zn117 2.034 . S
O130 Zn109 2.024 . S
O130 C110 1.249 . S
C131 O127 1.251 . S
C131 O128 1.254 . S
H132 C105 0.949 . S
H133 C107 0.950 . S
H134 C114 0.949 . S
H135 C116 0.950 . S
H136 C144 0.950 . S
H137 C149 0.950 . S
H138 C146 0.950 . S
H139 C148 0.950 1_655 S
H140 C150 0.950 . S
H141 C152 0.950 . S
H142 C154 0.950 . S
H143 C155 0.950 . S
C144 H136 0.950 . S
C144 C145 1.386 . S
C144 C146 1.391 1_565 S
C145 C144 1.386 . S
C145 C149 1.393 1_454 S
C146 H138 0.950 . S
C146 C144 1.391 1_545 S
C146 C147 1.400 . S
C147 C146 1.400 . S
C147 C148 1.398 1_554 S
C147 C153 1.491 . S
C148 H139 0.950 1_455 S
C148 C147 1.398 1_556 S
C148 C149 1.391 1_445 S
C149 H137 0.950 . S
C149 C145 1.393 1_656 S
C149 C148 1.391 1_665 S
C150 H140 0.950 . S
C150 C151 1.386 1_556 S
C150 C152 1.391 . S
C151 C150 1.386 1_554 S
C151 C155 1.393 . S
C152 H141 0.950 . S
C152 C150 1.391 . S
C152 C153 1.400 1_556 S
C153 C147 1.491 . S
C153 C152 1.400 1_554 S
C153 C154 1.398 . S
C154 H142 0.950 . S
C154 C153 1.398 . S
C154 C155 1.391 . S
C155 H143 0.950 . S
C155 C151 1.393 . S
C155 C154 1.391 . S
H156 C164 0.950 . S
H157 C169 0.950 1_565 S
H158 C166 0.950 . S
H159 C168 0.950 . S
H160 C170 0.950 . S
H161 C172 0.950 . S
H162 C174 0.950 . S
H163 C175 0.952 . S
C164 H156 0.950 . S
C164 C165 1.386 . S
C164 C166 1.391 . S
C165 C164 1.386 . S
C165 C169 1.393 . S
C166 H158 0.950 . S
C166 C164 1.391 . S
C166 C167 1.400 . S
C167 C166 1.400 . S
C167 C168 1.398 . S
C167 C173 1.491 . S
C168 H159 0.950 . S
C168 C167 1.398 . S
C168 C169 1.391 . S
C169 H157 0.950 1_545 S
C169 C165 1.393 . S
C169 C168 1.391 . S
C170 H160 0.950 . S
C170 C171 1.386 . S
C170 C172 1.391 1_655 S
C171 C170 1.386 . S
C171 C175 1.419 . S
C172 H161 0.950 . S
C172 C170 1.391 1_455 S
C172 C173 1.400 . S
C173 C167 1.491 . S
C173 C172 1.400 . S
C173 C174 1.398 . S
C174 H162 0.950 . S
C174 C173 1.398 . S
C174 C175 1.363 1_455 S
C175 H163 0.952 . S
C175 C171 1.419 . S
C175 C174 1.363 1_655 S
H176 C184 0.950 1_565 S
H177 C189 0.950 . S
H178 C186 0.950 . S
H179 C188 0.950 . S
H180 C190 0.950 . S
H181 C192 0.950 . S
H182 C194 0.950 . S
H183 C195 0.950 . S
C184 H176 0.950 1_545 S
C184 C185 1.386 . S
C184 C186 1.391 . S
C185 C184 1.386 . S
C185 C189 1.393 1_556 S
C186 H178 0.950 . S
C186 C184 1.391 . S
C186 C187 1.400 . S
C187 C186 1.400 . S
C187 C188 1.398 1_556 S
C187 C193 1.491 . S
C188 H179 0.950 . S
C188 C187 1.398 1_554 S
C188 C189 1.391 . S
C189 H177 0.950 . S
C189 C185 1.393 1_554 S
C189 C188 1.391 . S
C190 H180 0.950 . S
C190 C191 1.386 1_554 S
C190 C192 1.391 . S
C191 C190 1.386 1_556 S
C191 C195 1.393 . S
C192 H181 0.950 . S
C192 C190 1.391 . S
C192 C193 1.400 1_554 S
C193 C187 1.491 . S
C193 C192 1.400 1_556 S
C193 C194 1.398 . S
C194 H182 0.950 . S
C194 C193 1.398 . S
C194 C195 1.391 . S
C195 H183 0.950 . S
C195 C191 1.393 . S
C195 C194 1.391 . S
H196 C204 0.950 . S
H197 C209 0.950 . S
H198 C206 0.950 . S
H199 C208 0.950 . S
H200 C210 0.950 . S
H201 C212 0.950 . S
H202 C214 0.950 . S
H203 C215 0.950 . S
C204 H196 0.950 . S
C204 C205 1.386 . S
C204 C206 1.391 . S
C205 C204 1.386 . S
C205 C209 1.393 . S
C206 H198 0.950 . S
C206 C204 1.391 . S
C206 C207 1.400 . S
C207 C206 1.400 . S
C207 C208 1.398 . S
C207 C213 1.491 . S
C208 H199 0.950 . S
C208 C207 1.398 . S
C208 C209 1.391 . S
C209 H197 0.950 . S
C209 C205 1.393 . S
C209 C208 1.391 . S
C210 H200 0.950 . S
C210 C211 1.386 . S
C210 C212 1.391 . S
C211 C210 1.386 . S
C211 C215 1.393 . S
C212 H201 0.950 . S
C212 C210 1.391 . S
C212 C213 1.400 . S
C213 C207 1.491 . S
C213 C212 1.400 . S
C213 C214 1.398 . S
C214 H202 0.950 . S
C214 C213 1.398 . S
C214 C215 1.391 . S
C215 H203 0.950 . S
C215 C211 1.393 . S
C215 C214 1.391 . S
H216 C224 0.950 . S
H217 C229 0.950 . S
H218 C226 0.950 . S
H219 C228 0.950 . S
H220 C230 0.950 . S
H221 C232 0.950 . S
H222 C234 0.950 . S
H223 C235 0.950 . S
C224 H216 0.950 . S
C224 C225 1.386 . S
C224 C226 1.391 . S
C225 C224 1.386 . S
C225 C229 1.393 . S
C226 H218 0.950 . S
C226 C224 1.391 . S
C226 C227 1.400 . S
C227 C226 1.400 . S
C227 C228 1.398 . S
C227 C233 1.491 . S
C228 H219 0.950 . S
C228 C227 1.398 . S
C228 C229 1.391 . S
C229 H217 0.950 . S
C229 C225 1.393 . S
C229 C228 1.391 . S
C230 H220 0.950 . S
C230 C231 1.386 . S
C230 C232 1.391 . S
C231 C230 1.386 . S
C231 C235 1.393 . S
C232 H221 0.950 . S
C232 C230 1.391 . S
C232 C233 1.400 . S
C233 C227 1.491 . S
C233 C232 1.400 . S
C233 C234 1.398 . S
C234 H222 0.950 . S
C234 C233 1.398 . S
C234 C235 1.391 . S
C235 H223 0.950 . S
C235 C231 1.393 . S
C235 C234 1.391 . S
H236 C244 0.950 . S
H237 C249 0.950 . S
H238 C246 0.950 . S
H239 C248 0.950 . S
H240 C250 0.950 . S
H241 C252 0.950 . S
H242 C254 0.950 . S
H243 C255 0.950 . S
C244 H236 0.950 . S
C244 C245 1.386 . S
C244 C246 1.391 . S
C245 C244 1.386 . S
C245 C249 1.393 . S
C246 H238 0.950 . S
C246 C244 1.391 . S
C246 C247 1.400 . S
C247 C246 1.400 . S
C247 C248 1.398 . S
C247 C253 1.491 . S
C248 H239 0.950 . S
C248 C247 1.398 . S
C248 C249 1.391 . S
C249 H237 0.950 . S
C249 C245 1.393 . S
C249 C248 1.391 . S
C250 H240 0.950 . S
C250 C251 1.386 . S
C250 C252 1.391 . S
C251 C250 1.386 . S
C251 C255 1.393 . S
C252 H241 0.950 . S
C252 C250 1.391 . S
C252 C253 1.400 . S
C253 C247 1.491 . S
C253 C252 1.400 . S
C253 C254 1.398 . S
C254 H242 0.950 . S
C254 C253 1.398 . S
C254 C255 1.391 . S
C255 H243 0.950 . S
C255 C251 1.393 . S
C255 C254 1.391 . S
H256 C264 0.950 . S
H257 C269 0.950 . S
H258 C266 0.950 . S
H259 C268 0.950 . S
H260 C270 0.950 . S
H261 C272 0.950 . S
H262 C274 0.950 . S
H263 C275 0.950 . S
C264 H256 0.950 . S
C264 C265 1.386 . S
C264 C266 1.391 . S
C265 C264 1.386 . S
C265 C269 1.393 1_655 S
C266 H258 0.950 . S
C266 C264 1.391 . S
C266 C267 1.400 . S
C267 C266 1.400 . S
C267 C268 1.398 . S
C267 C273 1.491 . S
C268 H259 0.950 . S
C268 C267 1.398 . S
C268 C269 1.391 1_655 S
C269 H257 0.950 . S
C269 C265 1.393 1_455 S
C269 C268 1.391 1_455 S
C270 H260 0.950 . S
C270 C271 1.386 . S
C270 C272 1.391 . S
C271 C270 1.386 . S
C271 C275 1.393 . S
C272 H261 0.950 . S
C272 C270 1.391 . S
C272 C273 1.400 . S
C273 C267 1.491 . S
C273 C272 1.400 . S
C273 C274 1.398 . S
C274 H262 0.950 . S
C274 C273 1.398 . S
C274 C275 1.391 . S
C275 H263 0.950 . S
C275 C271 1.393 . S
C275 C274 1.391 . S
H276 C284 0.950 . S
H277 C289 0.950 . S
H278 C286 0.950 . S
H279 C288 0.950 . S
H280 C290 0.950 . S
H281 C292 0.950 . S
H282 C294 0.950 . S
H283 C295 0.950 1_545 S
C284 H276 0.950 . S
C284 C285 1.386 . S
C284 C286 1.391 . S
C285 C284 1.386 . S
C285 C289 1.393 . S
C286 H278 0.950 . S
C286 C284 1.391 . S
C286 C287 1.400 . S
C287 C286 1.400 . S
C287 C288 1.398 . S
C287 C293 1.491 . S
C288 H279 0.950 . S
C288 C287 1.398 . S
C288 C289 1.391 . S
C289 H277 0.950 . S
C289 C285 1.393 . S
C289 C288 1.391 . S
C290 H280 0.950 . S
C290 C291 1.386 . S
C290 C292 1.391 . S
C291 C290 1.386 . S
C291 C295 1.393 . S
C292 H281 0.950 . S
C292 C290 1.391 . S
C292 C293 1.400 . S
C293 C287 1.491 . S
C293 C292 1.400 . S
C293 C294 1.398 . S
C294 H282 0.950 . S
C294 C293 1.398 . S
C294 C295 1.391 . S
C295 H283 0.950 1_565 S
C295 C291 1.393 . S
C295 C294 1.391 . S
H296 C304 0.950 . S
H297 C309 0.950 . S
H298 C306 0.950 . S
H299 C308 0.950 . S
H300 C310 0.950 . S
H301 C312 0.950 . S
H302 C314 0.950 . S
H303 C315 0.950 . S
C304 H296 0.950 . S
C304 C305 1.386 . S
C304 C306 1.391 . S
C305 C304 1.386 . S
C305 C309 1.393 . S
C306 H298 0.950 . S
C306 C304 1.391 . S
C306 C307 1.400 . S
C307 C306 1.400 . S
C307 C308 1.398 . S
C307 C313 1.491 . S
C308 H299 0.950 . S
C308 C307 1.398 . S
C308 C309 1.391 . S
C309 H297 0.950 . S
C309 C305 1.393 . S
C309 C308 1.391 . S
C310 H300 0.950 . S
C310 C311 1.386 1_455 S
C310 C312 1.391 1_455 S
C311 C310 1.386 1_655 S
C311 C315 1.393 . S
C312 H301 0.950 . S
C312 C310 1.391 1_655 S
C312 C313 1.400 . S
C313 C307 1.491 . S
C313 C312 1.400 . S
C313 C314 1.398 . S
C314 H302 0.950 . S
C314 C313 1.398 . S
C314 C315 1.391 . S
C315 H303 0.950 . S
C315 C311 1.393 . S
C315 C314 1.391 . S
H316 C324 0.950 . S
H317 C329 0.950 . S
H318 C326 0.950 . S
H319 C328 0.950 . S
H320 C330 0.950 . S
H321 C332 0.950 . S
H322 C334 0.950 . S
H323 C335 0.950 . S
C324 H316 0.950 . S
C324 C325 1.386 1_545 S
C324 C326 1.391 1_545 S
C325 C324 1.386 1_565 S
C325 C329 1.393 . S
C326 H318 0.950 . S
C326 C324 1.391 1_565 S
C326 C327 1.400 . S
C327 C326 1.400 . S
C327 C328 1.398 . S
C327 C333 1.491 . S
C328 H319 0.950 . S
C328 C327 1.398 . S
C328 C329 1.391 . S
C329 H317 0.950 . S
C329 C325 1.393 . S
C329 C328 1.391 . S
C330 H320 0.950 . S
C330 C331 1.386 . S
C330 C332 1.391 . S
C331 C330 1.386 . S
C331 C335 1.393 . S
C332 H321 0.950 . S
C332 C330 1.391 . S
C332 C333 1.400 . S
C333 C327 1.491 . S
C333 C332 1.400 . S
C333 C334 1.398 . S
C334 H322 0.950 . S
C334 C333 1.398 . S
C334 C335 1.391 . S
C335 H323 0.950 . S
C335 C331 1.393 . S
C335 C334 1.391 . S
H336 C344 0.950 . S
H337 C349 0.950 . S
H338 C346 0.950 . S
H339 C348 0.950 . S
H340 C350 0.950 . S
H341 C352 0.950 . S
H342 C354 0.950 . S
H343 C355 0.950 . S
C344 H336 0.950 . S
C344 C345 1.386 . S
C344 C346 1.391 . S
C345 C344 1.386 . S
C345 C349 1.393 . S
C346 H338 0.950 . S
C346 C344 1.391 . S
C346 C347 1.400 . S
C347 C346 1.400 . S
C347 C348 1.398 . S
C347 C353 1.491 . S
C348 H339 0.950 . S
C348 C347 1.398 . S
C348 C349 1.391 . S
C349 H337 0.950 . S
C349 C345 1.393 . S
C349 C348 1.391 . S
C350 H340 0.950 . S
C350 C351 1.386 . S
C350 C352 1.391 . S
C351 C350 1.386 . S
C351 C355 1.393 . S
C352 H341 0.950 . S
C352 C350 1.391 . S
C352 C353 1.400 . S
C353 C347 1.491 . S
C353 C352 1.400 . S
C353 C354 1.398 . S
C354 H342 0.950 . S
C354 C353 1.398 . S
C354 C355 1.391 . S
C355 H343 0.950 . S
C355 C351 1.393 . S
C355 C354 1.391 . S
H356 C364 0.950 . S
H357 C369 0.950 . S
H358 C366 0.950 . S
H359 C368 0.950 . S
H360 C370 0.950 . S
H361 C372 0.950 . S
H362 C374 0.950 . S
H363 C375 0.950 . S
C364 H356 0.950 . S
C364 C365 1.386 . S
C364 C366 1.391 . S
C365 C364 1.386 . S
C365 C369 1.393 . S
C366 H358 0.950 . S
C366 C364 1.391 . S
C366 C367 1.400 . S
C367 C366 1.400 . S
C367 C368 1.398 . S
C367 C373 1.491 . S
C368 H359 0.950 . S
C368 C367 1.398 . S
C368 C369 1.391 . S
C369 H357 0.950 . S
C369 C365 1.393 . S
C369 C368 1.391 . S
C370 H360 0.950 . S
C370 C371 1.386 . S
C370 C372 1.391 . S
C371 C370 1.386 . S
C371 C375 1.393 . S
C372 H361 0.950 . S
C372 C370 1.391 . S
C372 C373 1.400 . S
C373 C367 1.491 . S
C373 C372 1.400 . S
C373 C374 1.398 . S
C374 H362 0.950 . S
C374 C373 1.398 . S
C374 C375 1.391 . S
C375 H363 0.950 . S
C375 C371 1.393 . S
C375 C374 1.391 . S
C145 C81 2.766 1_565 S
C151 C13 2.768 . S
C165 C106 2.781 . S
C171 C47 2.781 1_655 S
C185 C72 1.110 1_556 S
C191 C4 1.116 1_556 S
C205 C38 1.109 . S
C211 C115 1.109 . S
C225 C34 1.869 . S
C231 C29 1.856 . S
C245 C63 1.926 . S
C251 C68 1.909 . S
C265 C110 1.890 1_655 S
C271 C97 1.920 . S
C285 C119 1.885 . S
C291 C0 1.889 1_565 S
C305 C76 1.889 . S
C311 C131 1.898 1_655 S
C325 C17 1.898 1_565 S
C331 C102 1.917 . S
C345 C51 1.922 . S
C351 C8 1.950 . S
C365 C85 1.860 . S
C371 C42 1.881 . S
