# Generated by pormake.
# Topology snk, (6)-cn, num edge types: 1
# Building blocks:
#     Node 0, Type 0, BuildingBlock: VOLQOD_clean_sbu_1, # of connection points: 6
#     Node 1, Type 0, BuildingBlock: VOLQOD_clean_sbu_1, # of connection points: 6
#     Node 2, Type 0, BuildingBlock: VOLQOD_clean_sbu_1, # of connection points: 6
#     Node 3, Type 0, BuildingBlock: VOLQOD_clean_sbu_1, # of connection points: 6
#     Node 4, Type 0, BuildingBlock: VOLQOD_clean_sbu_1, # of connection points: 6
#     Node 5, Type 0, BuildingBlock: VOLQOD_clean_sbu_1, # of connection points: 6
#     Node 6, Type 0, BuildingBlock: VOLQOD_clean_sbu_1, # of connection points: 6
#     Node 7, Type 0, BuildingBlock: VOLQOD_clean_sbu_1, # of connection points: 6
#     Edge 8, Type (0, 0), BuildingBlock: EZIPEK_clean_linker_0, # of connection points: 2
#     Edge 9, Type (0, 0), BuildingBlock: EZIPEK_clean_linker_0, # of connection points: 2
#     Edge 10, Type (0, 0), BuildingBlock: EZIPEK_clean_linker_0, # of connection points: 2
#     Edge 11, Type (0, 0), BuildingBlock: EZIPEK_clean_linker_0, # of connection points: 2
#     Edge 12, Type (0, 0), BuildingBlock: EZIPEK_clean_linker_0, # of connection points: 2
#     Edge 13, Type (0, 0), BuildingBlock: EZIPEK_clean_linker_0, # of connection points: 2
#     Edge 14, Type (0, 0), BuildingBlock: EZIPEK_clean_linker_0, # of connection points: 2
#     Edge 15, Type (0, 0), BuildingBlock: EZIPEK_clean_linker_0, # of connection points: 2
#     Edge 16, Type (0, 0), BuildingBlock: EZIPEK_clean_linker_0, # of connection points: 2
#     Edge 17, Type (0, 0), BuildingBlock: EZIPEK_clean_linker_0, # of connection points: 2
#     Edge 18, Type (0, 0), BuildingBlock: EZIPEK_clean_linker_0, # of connection points: 2
#     Edge 19, Type (0, 0), BuildingBlock: EZIPEK_clean_linker_0, # of connection points: 2
#     Edge 20, Type (0, 0), BuildingBlock: EZIPEK_clean_linker_0, # of connection points: 2
#     Edge 21, Type (0, 0), BuildingBlock: EZIPEK_clean_linker_0, # of connection points: 2
#     Edge 22, Type (0, 0), BuildingBlock: EZIPEK_clean_linker_0, # of connection points: 2
#     Edge 23, Type (0, 0), BuildingBlock: EZIPEK_clean_linker_0, # of connection points: 2
#     Edge 24, Type (0, 0), BuildingBlock: EZIPEK_clean_linker_0, # of connection points: 2
#     Edge 25, Type (0, 0), BuildingBlock: EZIPEK_clean_linker_0, # of connection points: 2
#     Edge 26, Type (0, 0), BuildingBlock: EZIPEK_clean_linker_0, # of connection points: 2
#     Edge 27, Type (0, 0), BuildingBlock: EZIPEK_clean_linker_0, # of connection points: 2
#     Edge 28, Type (0, 0), BuildingBlock: EZIPEK_clean_linker_0, # of connection points: 2
#     Edge 29, Type (0, 0), BuildingBlock: EZIPEK_clean_linker_0, # of connection points: 2
#     Edge 30, Type (0, 0), BuildingBlock: EZIPEK_clean_linker_0, # of connection points: 2
#     Edge 31, Type (0, 0), BuildingBlock: EZIPEK_clean_linker_0, # of connection points: 2
# Relax obj value: 0.176
# Max RMSD: 0.167
# Mean RMSD: 0.167
data_MOF--net-snk--node1-VOLQOD_clean_sbu_1--edge1-EZIPEK_clean_linker_0
_symmetry_space_group_name_H-M    P1
_symmetry_Int_Tables_number       1
_symmetry_cell_setting            triclinic
loop_
_symmetry_equiv_pos_as_xyz
'x, y, z'
_cell_length_a     35.620028
_cell_length_b     35.66853
_cell_length_c     12.350735
_cell_angle_alpha  90.142361
_cell_angle_beta   90.085862
_cell_angle_gamma 89.782257
loop_
_atom_site_label
_atom_site_type_symbol
_atom_site_fract_x
_atom_site_fract_y
_atom_site_fract_z
_atom_type_partial_charge
O0 O 0.03406 0.97931 0.5043 0.0
Zn1 Zn 0.99157 0.00464 0.4231 0.0
O2 O 0.99085 0.05683 0.46457 0.0
Zn3 Zn 0.95135 0.06782 0.56521 0.0
Zn4 Zn 0.03931 0.06515 0.52727 0.0
Zn5 Zn 0.98505 0.0891 0.34558 0.0
O6 O 0.92216 0.11453 0.52216 0.0
O7 O 0.93656 0.11609 0.34675 0.0
O8 O 0.94333 0.97977 0.46899 0.0
O9 O 0.91615 0.02443 0.5687 0.0
O10 O 0.97224 0.06854 0.71564 0.0
O11 O 0.03293 0.0575 0.6863 0.0
O12 O 0.06173 0.1149 0.48406 0.0
O13 O 0.0006 0.00071 0.26012 0.0
O14 O 0.02473 0.12787 0.34378 0.0
O15 O 0.99157 0.06044 0.21289 0.0
C16 C 0.06773 0.99104 0.51007 0.0
C17 C 0.91703 0.12713 0.42662 0.0
C18 C 0.00489 0.05969 0.74959 0.0
C19 C 0.91677 0.99137 0.5298 0.0
C20 C 0.05279 0.13532 0.40341 0.0
C21 C -0.00122 0.02659 0.18899 0.0
O22 O 0.07542 0.02458 0.48411 0.0
O23 O 0.33951 0.8766 0.78567 0.0
Zn24 Zn 0.31441 0.83273 0.71315 0.0
O25 O 0.26215 0.8319 0.75515 0.0
Zn26 Zn 0.25177 0.7911 0.85115 0.0
Zn27 Zn 0.25082 0.8791 0.82299 0.0
Zn28 Zn 0.23031 0.826 0.63493 0.0
O29 O 0.2036 0.76354 0.81358 0.0
O30 O 0.20114 0.77927 0.63941 0.0
O31 O 0.33978 0.78444 0.76152 0.0
O32 O 0.29274 0.75349 0.83927 0.0
O33 O 0.25631 0.81043 0.00316 0.0
O34 O 0.25572 0.87242 -0.01864 0.0
O35 O 0.20103 0.90082 0.77476 0.0
O36 O 0.31789 0.84131 0.55035 0.0
O37 O 0.19413 0.86807 0.62319 0.0
O38 O 0.25906 0.82804 0.50325 0.0
C39 C 0.32633 0.90935 0.80271 0.0
C40 C 0.19035 0.75937 0.71827 0.0
C41 C 0.25923 0.84361 0.04076 0.0
C42 C 0.32673 0.7555 0.80894 0.0
C43 C 0.18411 0.89461 0.68549 0.0
C44 C 0.29237 0.8369 0.47899 0.0
O45 O 0.29136 0.91638 0.79624 0.0
O46 O 0.45505 0.17035 -0.00523 0.0
Zn47 Zn 0.50352 0.14487 0.95246 0.0
O48 O 0.50257 0.09268 -0.00617 0.0
Zn49 Zn 0.54936 0.0828 0.06428 0.0
Zn50 Zn 0.46116 0.08206 0.08883 0.0
Zn51 Zn 0.49999 0.06051 0.87322 0.0
O52 O 0.57047 0.03146 0.02709 0.0
O53 O 0.54306 0.02533 0.86718 0.0
O54 O 0.5462 0.1699 0.0312 0.0
O55 O 0.58721 0.12296 0.03275 0.0
O56 O 0.54016 0.09042 0.22025 0.0
O57 O 0.47892 0.08136 0.24277 0.0
O58 O 0.43151 0.03669 0.04069 0.0
O59 O 0.51196 0.14921 0.79018 0.0
O60 O 0.45356 0.03035 0.87299 0.0
O61 O 0.50282 0.08966 0.74215 0.0
C62 C 0.42705 0.15837 0.0485 0.0
C63 C 0.56709 0.01457 0.9365 0.0
C64 C 0.51129 0.08926 0.2802 0.0
C65 C 0.57941 0.15753 0.04624 0.0
C66 C 0.43042 0.0217 0.94685 0.0
C67 C 0.50918 0.12356 0.71858 0.0
O68 O 0.42574 0.1252 0.08558 0.0
O69 O 0.14396 0.28466 0.24267 0.0
Zn70 Zn 0.17533 0.32521 0.17421 0.0
O71 O 0.22692 0.31896 0.21953 0.0
Zn72 Zn 0.24334 0.35689 0.31916 0.0
Zn73 Zn 0.23075 0.27033 0.28329 0.0
Zn74 Zn 0.26007 0.32103 0.10177 0.0
O75 O 0.29287 0.38054 0.27265 0.0
O76 O 0.28858 0.3682 0.09675 0.0
O77 O 0.15615 0.3755 0.22568 0.0
O78 O 0.20377 0.39676 0.32589 0.0
O79 O 0.24282 0.33621 0.46968 0.0
O80 O 0.22443 0.27743 0.4409 0.0
O81 O 0.27879 0.24357 0.24301 0.0
O82 O 0.17128 0.3185 0.01119 0.0
O83 O 0.29727 0.2798 0.10686 0.0
O84 O 0.232 0.31486 0.96918 0.0
C85 C 0.15286 0.25033 0.25543 0.0
C86 C 0.3037 0.38556 0.1752 0.0
C87 C 0.23038 0.30495 0.50389 0.0
C88 C 0.17068 0.40015 0.28789 0.0
C89 C 0.30158 0.25132 0.16693 0.0
C90 C 0.19767 0.31411 0.94263 0.0
O91 O 0.18658 0.23893 0.24656 0.0
O92 O 0.84979 0.36709 0.25501 0.0
Zn93 Zn 0.8189 0.32666 0.18385 0.0
O94 O 0.76727 0.33187 0.22986 0.0
Zn95 Zn 0.75234 0.29357 0.32962 0.0
Zn96 Zn 0.76241 0.38082 0.29237 0.0
Zn97 Zn 0.73386 0.32812 0.1127 0.0
O98 O 0.70361 0.26795 0.28505 0.0
O99 O 0.70728 0.27981 0.10899 0.0
O100 O 0.83909 0.27631 0.23109 0.0
O101 O 0.79261 0.25456 0.33398 0.0
O102 O 0.75305 0.31463 0.47946 0.0
O103 O 0.7673 0.37459 0.45114 0.0
O104 O 0.71499 0.40747 0.24532 0.0
O105 O 0.82236 0.33464 0.02137 0.0
O106 O 0.69553 0.36853 0.116 0.0
O107 O 0.76149 0.33492 -0.02031 0.0
C108 C 0.84053 0.40129 0.26873 0.0
C109 C 0.69313 0.26194 0.18764 0.0
C110 C 0.76313 0.34677 0.51393 0.0
C111 C 0.82527 0.25141 0.29332 0.0
C112 C 0.69172 0.39825 0.17158 0.0
C113 C 0.79567 0.33761 0.95297 0.0
O114 O 0.80673 0.41239 0.25922 0.0
O115 O 0.65306 0.77212 0.7506 0.0
Zn116 Zn 0.67694 0.81797 0.68467 0.0
O117 O 0.72978 0.81896 0.72188 0.0
Zn118 Zn 0.74054 0.86145 0.81185 0.0
Zn119 Zn 0.74141 0.77304 0.79512 0.0
Zn120 Zn 0.76168 0.8238 0.60191 0.0
O121 O 0.7893 0.88739 0.77273 0.0
O122 O 0.78934 0.87164 0.59848 0.0
O123 O 0.6515 0.86347 0.75231 0.0
O124 O 0.70001 0.89962 0.79351 0.0
O125 O 0.73591 0.84505 0.96714 0.0
O126 O 0.73483 0.78287 0.95166 0.0
O127 O 0.79131 0.75091 0.75001 0.0
O128 O 0.67156 0.81452 0.51907 0.0
O129 O 0.79983 0.78332 0.59835 0.0
O130 O 0.73185 0.81901 0.47251 0.0
C131 C 0.66706 0.74017 0.7734 0.0
C132 C 0.80138 0.89146 0.67634 0.0
C133 C 0.73161 0.81255 0.00808 0.0
C134 C 0.66479 0.89453 0.78648 0.0
C135 C 0.80938 0.75737 0.66305 0.0
C136 C 0.69756 0.81517 0.44783 0.0
O137 O 0.70225 0.73433 0.77205 0.0
O138 O 0.54305 0.48093 0.97409 0.0
Zn139 Zn 0.49361 0.50493 0.93345 0.0
O140 O 0.49277 0.55707 -0.02133 0.0
Zn141 Zn 0.44449 0.56427 0.04446 0.0
Zn142 Zn 0.53373 0.56854 0.07565 0.0
Zn143 Zn 0.49642 0.59085 0.86179 0.0
O144 O 0.4185 0.61153 -0.00391 0.0
O145 O 0.45642 0.62957 0.86375 0.0
O146 O 0.45265 0.47657 0.01217 0.0
O147 O 0.40957 0.52138 0.01881 0.0
O148 O 0.4533 0.56118 0.20222 0.0
O149 O 0.5145 0.57043 0.22739 0.0
O150 O 0.56434 0.61374 0.02819 0.0
O151 O 0.48431 0.50224 0.771 0.0
O152 O 0.5446 0.61767 0.85771 0.0
O153 O 0.48959 0.56281 0.72907 0.0
C154 C 0.56941 0.49259 0.03528 0.0
C155 C 0.42697 0.634 0.92003 0.0
C156 C 0.48184 0.56325 0.2636 0.0
C157 C 0.41906 0.48724 0.03033 0.0
C158 C 0.56696 0.62718 0.93283 0.0
C159 C 0.48427 0.52893 0.70237 0.0
O160 O 0.56901 0.5251 0.07761 0.0
O161 O 0.96267 0.67324 0.502 0.0
Zn162 Zn 0.00636 0.64537 0.43633 0.0
O163 O 0.00505 0.59324 0.48139 0.0
Zn164 Zn 0.04507 0.58114 0.58048 0.0
Zn165 Zn 0.95689 0.58515 0.54686 0.0
Zn166 Zn 0.00963 0.56005 0.36303 0.0
O167 O 0.07506 0.53522 0.53372 0.0
O168 O 0.05763 0.53242 0.36085 0.0
O169 O 0.05371 0.67003 0.49031 0.0
O170 O 0.07976 0.62479 0.58987 0.0
O171 O 0.02466 0.57844 0.73088 0.0
O172 O 0.96409 0.59113 0.70464 0.0
O173 O 0.9326 0.53645 0.5013 0.0
O174 O 0.00039 0.64876 0.27345 0.0
O175 O 0.96933 0.52208 0.36184 0.0
O176 O 0.00344 0.5881 0.23047 0.0
C177 C 0.92949 0.66149 0.51872 0.0
C178 C 0.07877 0.52219 0.43804 0.0
C179 C 0.99238 0.58775 0.76651 0.0
C180 C 0.07945 0.65813 0.55355 0.0
C181 C 0.94104 0.51558 0.42102 0.0
C182 C -0.00049 0.62219 0.20436 0.0
O183 O 0.92144 0.62685 0.5152 0.0
C184 C 0.0832 0.19796 0.43135 0.0
C185 C 0.07818 0.16533 0.36748 0.0
C186 C 0.11604 0.19243 0.22233 0.0
C187 C 0.12439 0.22318 0.29053 0.0
N188 N 0.12079 0.25317 0.46605 0.0
N189 N 0.09522 0.12816 0.21109 0.0
C190 C 0.10917 0.22558 0.3967 0.0
C191 C 0.09599 0.16167 0.26513 0.0
N192 N 0.06243 0.20302 0.52324 0.0
N193 N 0.12668 0.19302 0.11599 0.0
H194 H 0.08181 0.10445 0.24125 0.0
H195 H 0.11097 0.12273 0.1418 0.0
H196 H 0.14128 0.21539 0.08189 0.0
H197 H 0.11799 0.17316 0.05938 0.0
H198 H 0.06187 0.22806 0.56677 0.0
H199 H 0.04336 0.18316 0.55127 0.0
H200 H 0.11402 0.2537 0.54804 0.0
H201 H 0.13963 0.2741 0.44399 0.0
C202 C 0.12562 0.98165 0.62623 0.0
C203 C 0.0976 0.96652 0.55625 0.0
C204 C 0.12162 0.90372 0.59538 0.0
C205 C 0.15325 0.91947 0.64857 0.0
N206 N 0.18976 0.97535 0.68536 0.0
N207 N 0.07615 0.91282 0.45304 0.0
C208 C 0.15663 0.95899 0.65588 0.0
C209 C 0.09755 0.92739 0.53469 0.0
N210 N 0.12223 0.0168 0.66927 0.0
N211 N 0.11389 0.86639 0.60472 0.0
H212 H 0.06051 0.9294 0.40008 0.0
H213 H 0.07779 0.88476 0.42961 0.0
H214 H 0.12959 0.84845 0.65372 0.0
H215 H 0.08938 0.85442 0.57422 0.0
H216 H 0.14069 0.02708 0.72778 0.0
H217 H 0.09883 0.03382 0.65808 0.0
H218 H 0.19388 0.00426 0.68188 0.0
H219 H 0.21432 0.9603 0.70031 0.0
C220 C 0.37093 0.93365 0.94234 0.0
C221 C 0.35151 0.93899 0.84301 0.0
C222 C 0.37703 0.00224 0.82962 0.0
C223 C 0.40086 -0.00546 0.91914 0.0
N224 N 0.42429 0.95094 0.05268 0.0
N225 N 0.33908 0.97658 0.68473 0.0
C226 C 0.39876 0.95978 0.97395 0.0
C227 C 0.35518 0.97291 0.78472 0.0
N228 N 0.36171 0.90449 0.00862 0.0
N229 N 0.37457 0.03787 0.78951 0.0
H230 H 0.32316 0.95548 0.64857 0.0
H231 H 0.3442 -0.00082 0.63369 0.0
H232 H 0.38946 0.06032 0.82248 0.0
H233 H 0.35501 0.04592 0.73117 0.0
H234 H 0.37233 0.90143 0.08676 0.0
H235 H 0.34042 0.88558 -0.00996 0.0
H236 H 0.42654 0.92427 0.08639 0.0
H237 H 0.44532 0.96922 0.07809 0.0
C238 C 0.40139 0.21542 0.14148 0.0
C239 C 0.39548 0.1837 0.07387 0.0
C240 C 0.32744 0.1934 0.08215 0.0
C241 C 0.33353 0.22644 0.14361 0.0
N242 N 0.37555 0.272 0.22158 0.0
N243 N 0.35424 0.14602 0.96387 0.0
C244 C 0.37033 0.23841 0.17007 0.0
C245 C 0.35882 0.17357 0.04002 0.0
N246 N 0.43633 0.22257 0.18268 0.0
N247 N 0.29165 0.18104 0.06412 0.0
H248 H 0.37676 0.13154 0.92929 0.0
H249 H 0.32865 0.13974 0.92745 0.0
H250 H 0.26787 0.19558 0.09038 0.0
H251 H 0.28542 0.15506 0.03014 0.0
H252 H 0.44147 0.24241 0.2428 0.0
H253 H 0.46007 0.20684 0.16302 0.0
H254 H 0.40166 0.28471 0.23024 0.0
H255 H 0.35341 0.28841 0.25049 0.0
C256 C 0.84906 0.97479 0.5513 0.0
C257 C 0.8874 0.96503 0.56577 0.0
C258 C 0.86912 0.90735 0.65933 0.0
C259 C 0.83106 0.91864 0.65172 0.0
N260 N 0.78453 0.96523 0.60724 0.0
N261 N 0.93432 0.92562 0.65137 0.0
C262 C 0.82098 0.95313 0.60303 0.0
C263 C 0.89763 0.93223 0.62446 0.0
N264 N 0.83949 0.00373 0.48412 0.0
N265 N 0.87797 0.87236 0.69696 0.0
H266 H 0.95637 0.94293 0.62832 0.0
H267 H 0.94271 0.90466 0.70485 0.0
H268 H 0.85798 0.85392 0.72766 0.0
H269 H 0.90473 0.86065 0.69123 0.0
H270 H 0.81197 0.00995 0.46181 0.0
H271 H 0.85932 0.01948 0.44217 0.0
H272 H 0.77593 0.99181 0.58271 0.0
H273 H 0.76332 0.94981 0.64443 0.0
C274 C 0.90583 0.19581 0.41648 0.0
C275 C 0.89155 0.15891 0.40746 0.0
C276 C 0.83557 0.18232 0.31441 0.0
C277 C 0.84881 0.21953 0.3287 0.0
N278 N 0.89265 0.2623 0.41336 0.0
N279 N 0.84092 0.11684 0.36601 0.0
C280 C 0.88289 0.2265 0.38524 0.0
C281 C 0.85568 0.15213 0.36232 0.0
N282 N 0.94183 0.20144 0.45162 0.0
N283 N 0.8048 0.17576 0.25079 0.0
H284 H 0.85527 0.09424 0.40046 0.0
H285 H 0.81343 0.11058 0.34394 0.0
H286 H 0.79002 0.19711 0.2117 0.0
H287 H 0.79583 0.14907 0.22872 0.0
H288 H 0.95553 0.22711 0.44613 0.0
H289 H 0.95903 0.17985 0.48007 0.0
H290 H 0.91475 0.26852 0.46561 0.0
H291 H 0.87685 0.28585 0.39275 0.0
C292 C 0.63377 0.24738 0.08991 0.0
C293 C 0.66236 0.23558 0.16245 0.0
C294 C 0.63322 0.17378 0.1716 0.0
C295 C 0.60885 0.18377 0.08459 0.0
N296 N 0.593 0.22833 0.94411 0.0
N297 N 0.69336 0.18476 0.25666 0.0
C298 C 0.61106 0.22012 0.03891 0.0
C299 C 0.66329 0.198 0.19932 0.0
N300 N 0.62759 0.28468 0.07172 0.0
N301 N 0.62683 0.14234 0.23163 0.0
H302 H 0.7165 0.20117 0.27669 0.0
H303 H 0.69685 0.15646 0.27518 0.0
H304 H 0.60397 0.12479 0.21922 0.0
H305 H 0.64185 0.13612 0.30189 0.0
H306 H 0.60495 0.29458 0.02626 0.0
H307 H 0.64228 0.3057 0.11242 0.0
H308 H 0.5966 0.25366 0.90353 0.0
H309 H 0.57818 0.20843 0.8994 0.0
C310 C 0.60257 0.92928 0.78508 0.0
C311 C 0.63919 0.92437 0.8285 0.0
C312 C 0.62984 0.98076 0.93883 0.0
C313 C 0.5915 0.98214 0.90768 0.0
N314 N 0.53934 0.94796 0.82919 0.0
N315 N 0.68054 0.9387 -0.01949 0.0
C316 C 0.57712 0.95332 0.83962 0.0
C317 C 0.65081 0.94797 0.91574 0.0
N318 N 0.5923 0.91286 0.68958 0.0
N319 N 0.64721 0.01091 -0.01495 0.0
H320 H 0.69462 0.91317 -0.02414 0.0
H321 H 0.68762 0.95433 0.04906 0.0
H322 H 0.63447 0.03697 -0.00527 0.0
H323 H 0.67602 0.01117 0.00073 0.0
H324 H 0.56646 0.91826 0.65274 0.0
H325 H 0.61099 0.89817 0.64043 0.0
H326 H 0.52813 0.92555 0.78549 0.0
H327 H 0.51966 0.96261 0.87536 0.0
C328 C 0.59674 0.69051 0.95309 0.0
C329 C 0.5965 0.65439 0.905 0.0
C330 C 0.64113 0.67507 0.767 0.0
C331 C 0.64271 0.71064 0.81797 0.0
N332 N 0.63028 0.74885 -0.02386 0.0
N333 N 0.62506 0.60942 0.78426 0.0
C334 C 0.62298 0.71742 0.91609 0.0
C335 C 0.62085 0.64579 0.81749 0.0
N336 N 0.5708 0.69986 0.03012 0.0
N337 N 0.6577 0.6697 0.66836 0.0
H338 H 0.61119 0.58719 0.82146 0.0
H339 H 0.64501 0.60088 0.72768 0.0
H340 H 0.67242 0.69071 0.62819 0.0
H341 H 0.65409 0.64553 0.62206 0.0
H342 H 0.56694 0.72716 0.05826 0.0
H343 H 0.55111 0.68101 0.06004 0.0
H344 H 0.61964 0.75311 0.05376 0.0
H345 H 0.64989 0.76898 0.95343 0.0
C346 C 0.6677 0.45242 0.06484 0.0
C347 C 0.66094 0.42382 0.14195 0.0
C348 C 0.59349 0.43701 0.1372 0.0
C349 C 0.60048 0.4672 0.06512 0.0
N350 N 0.64371 0.50623 0.96659 0.0
N351 N 0.61937 0.39102 0.26187 0.0
C352 C 0.63749 0.4757 0.03091 0.0
C353 C 0.62433 0.41664 0.18089 0.0
N354 N 0.70278 0.45635 0.02128 0.0
N355 N 0.55739 0.42777 0.16354 0.0
H356 H 0.64146 0.37548 0.29486 0.0
H357 H 0.59412 0.38699 0.30236 0.0
H358 H 0.53404 0.44304 0.13787 0.0
H359 H 0.55011 0.40365 0.20564 0.0
H360 H 0.70869 0.47341 0.9553 0.0
H361 H 0.72594 0.44073 0.04699 0.0
H362 H 0.67025 0.51683 0.94992 0.0
H363 H 0.62205 0.52233 0.93347 0.0
C364 C 0.8973 0.49004 0.28244 0.0
C365 C 0.91498 0.48611 0.38497 0.0
C366 C 0.88356 0.42606 0.41222 0.0
C367 C 0.86864 0.42859 0.30563 0.0
N368 N 0.86657 0.45909 0.13194 0.0
N369 N 0.93003 0.44832 0.54069 0.0
C370 C 0.87712 0.45945 0.23847 0.0
C371 C 0.90956 0.45352 0.4482 0.0
N372 N 0.89844 0.5236 0.22922 0.0
N373 N 0.87164 0.39845 0.4806 0.0
H374 H 0.94906 0.4681 0.56987 0.0
H375 H 0.93034 0.42326 0.5838 0.0
H376 H 0.85274 0.37764 0.45749 0.0
H377 H 0.8782 0.39779 0.56278 0.0
H378 H 0.88284 0.52926 0.15974 0.0
H379 H 0.91203 0.54715 0.26022 0.0
H380 H 0.87539 0.47902 0.07605 0.0
H381 H 0.85187 0.43688 0.09694 0.0
C382 C 0.87394 0.73072 0.6896 0.0
C383 C 0.84011 0.73223 0.62932 0.0
C384 C 0.86763 0.69238 0.48842 0.0
C385 C 0.90004 0.6879 0.5535 0.0
N386 N 0.93191 0.69718 0.7245 0.0
N387 N 0.80181 0.70917 0.48206 0.0
C388 C 0.90274 0.7056 0.65644 0.0
C389 C 0.83612 0.7116 0.53148 0.0
N390 N 0.87905 0.75413 0.77613 0.0
N391 N 0.86735 0.67905 0.38449 0.0
H392 H 0.7777 0.72198 0.5128 0.0
H393 H 0.79639 0.69152 0.41661 0.0
H394 H 0.89018 0.665 0.35013 0.0
H395 H 0.846 0.68492 0.32929 0.0
H396 H 0.90471 0.75723 0.81563 0.0
H397 H 0.85846 0.77281 0.80306 0.0
H398 H 0.93299 0.70594 0.80495 0.0
H399 H 0.95362 0.67883 0.70382 0.0
C400 C 0.36367 0.39763 0.07701 0.0
C401 C 0.33557 0.41053 0.14983 0.0
C402 C 0.36757 0.47073 0.16149 0.0
C403 C 0.39106 0.46027 0.073 0.0
N404 N 0.40575 0.41501 0.93284 0.0
N405 N 0.30713 0.4625 0.24608 0.0
C406 C 0.38772 0.42397 0.02706 0.0
C407 C 0.33648 0.44793 0.18835 0.0
N408 N 0.36806 0.36014 0.05742 0.0
N409 N 0.37576 0.50138 0.22345 0.0
H410 H 0.28304 0.44736 0.26471 0.0
H411 H 0.30517 0.49087 0.26596 0.0
H412 H 0.39974 0.51736 0.212 0.0
H413 H 0.3613 0.50797 0.29437 0.0
H414 H 0.39027 0.34925 0.01219 0.0
H415 H 0.3522 0.33977 0.09666 0.0
H416 H 0.40119 0.3899 0.89161 0.0
H417 H 0.42184 0.4341 0.88939 0.0
C418 C 0.38864 0.68999 0.97294 0.0
C419 C 0.40113 0.66491 0.89167 0.0
C420 C 0.3675 0.70135 0.75375 0.0
C421 C 0.35208 0.7241 0.83676 0.0
N422 N 0.34084 0.73385 0.02844 0.0
N423 N 0.39529 0.64139 0.70852 0.0
C424 C 0.36035 0.71649 0.94734 0.0
C425 C 0.38877 0.66916 0.78276 0.0
N426 N 0.40491 0.68977 0.07331 0.0
N427 N 0.36135 0.71001 0.6474 0.0
H428 H 0.40896 0.61638 0.72753 0.0
H429 H 0.38363 0.6413 0.63114 0.0
H430 H 0.34387 0.7319 0.62266 0.0
H431 H 0.37555 0.69696 0.58388 0.0
H432 H 0.39953 0.71022 0.13173 0.0
H433 H 0.42672 0.67162 0.09452 0.0
H434 H 0.34326 0.72621 0.10955 0.0
H435 H 0.31956 0.75325 0.01459 0.0
C436 C 0.17315 0.69705 0.6452 0.0
C437 C 0.16166 0.73099 0.69485 0.0
C438 C 0.09585 0.7164 0.6575 0.0
C439 C 0.10768 0.68448 0.59678 0.0
N440 N 0.15757 0.64702 0.52006 0.0
N441 N 0.11321 0.77516 0.7428 0.0
C442 C 0.14637 0.67533 0.58776 0.0
C443 C 0.12329 0.74121 0.69994 0.0
N444 N 0.20973 0.68567 0.65359 0.0
N445 N 0.05859 0.72223 0.67876 0.0
H446 H 0.13236 0.79289 0.78106 0.0
H447 H 0.08642 0.78667 0.73546 0.0
H448 H 0.03727 0.70495 0.65006 0.0
H449 H 0.0488 0.74241 0.73291 0.0
H450 H 0.21933 0.6595 0.62814 0.0
H451 H 0.22992 0.70118 0.69537 0.0
H452 H 0.18553 0.64133 0.50168 0.0
H453 H 0.13878 0.63127 0.47395 0.0
C454 C 0.1604 0.46893 0.31933 0.0
C455 C 0.14725 0.4315 0.32833 0.0
C456 C 0.09039 0.45379 0.42007 0.0
C457 C 0.10452 0.49082 0.41591 0.0
N458 N 0.15499 0.53357 0.38016 0.0
N459 N 0.1037 0.38748 0.40825 0.0
C460 C 0.14032 0.49832 0.3717 0.0
C461 C 0.11332 0.42364 0.38445 0.0
N462 N 0.19096 0.47655 0.25629 0.0
N463 N 0.05453 0.44755 0.45516 0.0
H464 H 0.11954 0.36422 0.38512 0.0
H465 H 0.08175 0.38052 0.45995 0.0
H466 H 0.03749 0.46862 0.48757 0.0
H467 H 0.04081 0.422 0.44603 0.0
H468 H 0.19981 0.50358 0.23801 0.0
H469 H 0.20565 0.45589 0.21382 0.0
H470 H 0.18243 0.54021 0.35886 0.0
H471 H 0.14063 0.55559 0.41772 0.0
C472 C 0.03778 0.05523 0.93007 0.0
C473 C 0.00845 0.04388 0.85966 0.0
C474 C 0.98023 0.00657 0.00433 0.0
C475 C 0.00824 0.01974 0.07525 0.0
N476 N 0.07048 0.04362 0.09931 0.0
N477 N 0.96174 -0.00328 0.81826 0.0
C478 C 0.03964 0.03932 0.03492 0.0
C479 C 0.98274 0.01564 0.89303 0.0
N480 N 0.06207 0.08293 0.90041 0.0
N481 N 0.95037 0.98712 0.04422 0.0
H482 H 0.96469 0.00081 0.73521 0.0
H483 H 0.9447 0.97406 0.83784 0.0
H484 H 0.94895 0.97873 0.125 0.0
H485 H 0.92658 0.98086 -0.0015 0.0
H486 H 0.08157 0.09468 0.95333 0.0
H487 H 0.06069 0.09652 0.82593 0.0
H488 H 0.09564 0.05495 0.0719 0.0
H489 H 0.07172 0.03218 0.17703 0.0
C490 C 0.27087 0.87651 0.33083 0.0
C491 C 0.2972 0.84948 0.36714 0.0
C492 C 0.30797 0.83042 0.18125 0.0
C493 C 0.27396 0.84874 0.15122 0.0
N494 N 0.22288 0.89053 0.19832 0.0
N495 N 0.34307 0.80183 0.32764 0.0
C496 C 0.25575 0.873 0.22542 0.0
C497 C 0.31712 0.82725 0.29237 0.0
N498 N 0.25918 0.9041 0.39996 0.0
N499 N 0.33207 0.81744 0.1039 0.0
H500 H 0.35105 0.80001 0.4088 0.0
H501 H 0.35524 0.78177 0.277 0.0
H502 H 0.32686 0.82051 0.02122 0.0
H503 H 0.35878 0.80717 0.12202 0.0
H504 H 0.24185 0.92623 0.37641 0.0
H505 H 0.27013 0.90655 0.4782 0.0
H506 H 0.20667 0.90553 0.25374 0.0
H507 H 0.21008 0.88756 0.12287 0.0
C508 C 0.54804 0.10967 0.56234 0.0
C509 C 0.51756 0.13039 0.60465 0.0
C510 C 0.48966 0.13351 0.42528 0.0
C511 C 0.51455 0.10442 0.39095 0.0
N512 N 0.56718 0.06346 0.43016 0.0
N513 N 0.45966 0.1638 0.57847 0.0
C514 C 0.54431 0.09262 0.45947 0.0
C515 C 0.48874 0.1435 0.53625 0.0
N516 N 0.57951 0.1048 0.62405 0.0
N517 N 0.46808 0.15248 0.35189 0.0
H518 H 0.45947 0.17283 0.65892 0.0
H519 H 0.43534 0.17014 0.53511 0.0
H520 H 0.46981 0.14784 0.26873 0.0
H521 H 0.45173 0.1757 0.37237 0.0
H522 H 0.60396 0.09216 0.59523 0.0
H523 H 0.582 0.117 0.70073 0.0
H524 H 0.58705 0.05167 0.48196 0.0
H525 H 0.56396 0.04852 0.35813 0.0
C526 C 0.1794 0.33453 0.75825 0.0
C527 C 0.19027 0.30546 0.82881 0.0
C528 C 0.22363 0.27305 0.68383 0.0
C529 C 0.21469 0.30326 0.614 0.0
N530 N 0.1716 0.35395 0.57248 0.0
N531 N 0.20969 0.24156 0.85299 0.0
C532 C 0.18852 0.3313 0.64719 0.0
C533 C 0.20749 0.27252 0.78841 0.0
N534 N 0.16239 0.36602 0.79816 0.0
N535 N 0.24934 0.24649 0.65363 0.0
H536 H 0.198 0.24128 0.93053 0.0
H537 H 0.21957 0.21563 0.8262 0.0
H538 H 0.26303 0.24677 0.5791 0.0
H539 H 0.25951 0.22596 0.70596 0.0
H540 H 0.15829 0.39025 0.75263 0.0
H541 H 0.15386 0.36832 0.87865 0.0
H542 H 0.15024 0.37281 0.59189 0.0
H543 H 0.17587 0.35088 0.48949 0.0
C544 C 0.78295 0.3793 0.80092 0.0
C545 C 0.8024 0.34739 0.83968 0.0
C546 C 0.80691 0.32325 0.65621 0.0
C547 C 0.77875 0.34942 0.62407 0.0
N548 N 0.73996 0.40328 0.6659 0.0
N549 N 0.83496 0.28936 0.8056 0.0
C550 C 0.76735 0.37839 0.69553 0.0
C551 C 0.81579 0.3198 0.76741 0.0
N552 N 0.77828 0.40957 0.86752 0.0
N553 N 0.8258 0.30257 0.58044 0.0
H554 H 0.84321 0.28697 0.88634 0.0
H555 H 0.84113 0.26592 0.75822 0.0
H556 H 0.82152 0.30589 0.49748 0.0
H557 H 0.84856 0.28535 0.59929 0.0
H558 H 0.76666 0.4349 0.84206 0.0
H559 H 0.78965 0.41018 0.94555 0.0
H560 H 0.72803 0.42258 0.71926 0.0
H561 H 0.72687 0.40271 0.59039 0.0
C562 C 0.71265 0.7765 0.29162 0.0
C563 C 0.69076 0.80627 0.33343 0.0
C564 C 0.68556 0.83207 0.15195 0.0
C565 C 0.71638 0.80908 0.11901 0.0
N566 N 0.76113 0.76013 0.16384 0.0
N567 N 0.6547 0.86238 0.30365 0.0
C568 C 0.73002 0.78082 0.18967 0.0
C569 C 0.67611 0.83382 0.26336 0.0
N570 N 0.71856 0.74532 0.35323 0.0
N571 N 0.66435 0.8507 0.07707 0.0
H572 H 0.64624 0.86327 0.38447 0.0
H573 H 0.64694 0.88568 0.25783 0.0
H574 H 0.66833 0.84752 -0.00606 0.0
H575 H 0.6401 0.86561 0.09712 0.0
H576 H 0.73222 0.72143 0.32426 0.0
H577 H 0.70622 0.74237 0.42944 0.0
H578 H 0.77385 0.74156 0.21776 0.0
H579 H 0.77669 0.76432 0.09355 0.0
C580 C 0.504 0.509 0.51874 0.0
C581 C 0.4757 0.52279 0.58791 0.0
C582 C 0.44887 0.56054 0.44286 0.0
C583 C 0.47829 0.54824 0.37411 0.0
N584 N 0.52326 0.49889 0.33368 0.0
N585 N 0.41405 0.54905 0.60804 0.0
C586 C 0.50266 0.51866 0.40776 0.0
C587 C 0.44534 0.54386 0.54609 0.0
N588 N 0.53307 0.48842 0.55987 0.0
N589 N 0.42603 0.58962 0.41307 0.0
H590 H 0.41163 0.53704 0.68478 0.0
H591 H 0.38965 0.56186 0.57947 0.0
H592 H 0.42892 0.60393 0.34009 0.0
H593 H 0.40639 0.60177 0.46488 0.0
H594 H 0.55703 0.4817 0.51541 0.0
H595 H 0.53377 0.47955 0.64026 0.0
H596 H 0.53911 0.47529 0.35381 0.0
H597 H 0.52104 0.50321 0.25049 0.0
C598 C 0.96014 0.5933 0.94676 0.0
C599 C 0.98976 0.60358 0.87652 0.0
C600 C 0.01893 0.64085 0.02008 0.0
C601 C 0.99046 0.62885 0.0907 0.0
N602 N 0.92744 0.60704 0.11441 0.0
N603 N 0.03725 0.64975 0.8341 0.0
C604 C 0.95851 0.61003 0.05056 0.0
C605 C 0.01609 0.63142 0.90916 0.0
N606 N 0.93532 0.56589 0.91795 0.0
N607 N 0.04942 0.65949 0.05973 0.0
H608 H 0.0337 0.64577 0.75116 0.0
H609 H 0.05493 0.67197 0.85352 0.0
H610 H 0.05121 0.66819 0.14027 0.0
H611 H 0.07338 0.66474 0.01394 0.0
H612 H 0.91548 0.55499 0.97105 0.0
H613 H 0.93663 0.55163 0.84431 0.0
H614 H 0.90203 0.59617 0.08692 0.0
H615 H 0.92639 0.61909 0.19155 0.0
loop_
_geom_bond_atom_site_label_1
_geom_bond_atom_site_label_2
_geom_bond_distance
_geom_bond_site_symmetry_2
_ccdc_geom_bond_type
O0 Zn1 1.953 1_465 S
O0 C16 1.225 . S
Zn1 O0 1.953 1_645 S
Zn1 O2 1.949 1_655 S
Zn1 O8 1.919 1_545 S
Zn1 O13 1.924 1_655 S
O2 Zn1 1.949 1_455 S
O2 Zn3 1.923 1_455 S
O2 Zn4 1.950 . S
O2 Zn5 1.945 1_455 S
Zn3 O2 1.923 1_655 S
Zn3 O6 1.933 . S
Zn3 O9 1.941 . S
Zn3 O10 1.965 . S
Zn4 O2 1.950 . S
Zn4 O11 1.938 . S
Zn4 O12 1.906 . S
Zn4 O22 1.953 . S
Zn5 O2 1.945 1_655 S
Zn5 O7 1.932 . S
Zn5 O14 1.977 1_655 S
Zn5 O15 1.910 1_655 S
O6 Zn3 1.933 . S
O6 C17 1.226 . S
O7 Zn5 1.932 . S
O7 C17 1.307 . S
O8 Zn1 1.919 1_565 S
O8 C19 1.249 1_565 S
O9 Zn3 1.941 . S
O9 C19 1.291 . S
O10 Zn3 1.965 . S
O10 C18 1.303 1_655 S
O11 Zn4 1.938 . S
O11 C18 1.247 . S
O12 Zn4 1.906 . S
O12 C20 1.304 . S
O13 Zn1 1.924 1_455 S
O13 C21 1.311 . S
O14 Zn5 1.977 1_455 S
O14 C20 1.272 . S
O15 Zn5 1.910 1_455 S
O15 C21 1.231 . S
C16 O0 1.225 . S
C16 O22 1.298 1_565 S
C17 O6 1.226 . S
C17 O7 1.307 . S
C18 O10 1.303 1_455 S
C18 O11 1.247 . S
C19 O8 1.249 1_545 S
C19 O9 1.291 . S
C20 O12 1.304 . S
C20 O14 1.272 . S
C21 O13 1.311 . S
C21 O15 1.231 . S
O22 Zn4 1.953 . S
O22 C16 1.298 1_545 S
O23 Zn24 1.953 . S
O23 C39 1.225 . S
Zn24 O23 1.953 . S
Zn24 O25 1.949 . S
Zn24 O31 1.919 . S
Zn24 O36 1.924 . S
O25 Zn24 1.949 . S
O25 Zn26 1.923 . S
O25 Zn27 1.950 . S
O25 Zn28 1.945 . S
Zn26 O25 1.923 . S
Zn26 O29 1.933 . S
Zn26 O32 1.941 . S
Zn26 O33 1.965 1_556 S
Zn27 O25 1.950 . S
Zn27 O34 1.938 . S
Zn27 O35 1.906 . S
Zn27 O45 1.953 . S
Zn28 O25 1.945 . S
Zn28 O30 1.932 . S
Zn28 O37 1.977 . S
Zn28 O38 1.910 . S
O29 Zn26 1.933 . S
O29 C40 1.226 . S
O30 Zn28 1.932 . S
O30 C40 1.307 . S
O31 Zn24 1.919 . S
O31 C42 1.253 . S
O32 Zn26 1.941 . S
O32 C42 1.283 . S
O33 Zn26 1.965 1_554 S
O33 C41 1.303 . S
O34 Zn27 1.938 . S
O34 C41 1.247 1_556 S
O35 Zn27 1.906 . S
O35 C43 1.304 . S
O36 Zn24 1.924 . S
O36 C44 1.311 . S
O37 Zn28 1.977 . S
O37 C43 1.272 . S
O38 Zn28 1.910 . S
O38 C44 1.231 . S
C39 O23 1.225 . S
C39 O45 1.298 . S
C40 O29 1.226 . S
C40 O30 1.307 . S
C41 O33 1.303 . S
C41 O34 1.247 1_554 S
C42 O31 1.253 . S
C42 O32 1.283 . S
C43 O35 1.304 . S
C43 O37 1.272 . S
C44 O36 1.311 . S
C44 O38 1.231 . S
O45 Zn27 1.953 . S
O45 C39 1.298 . S
O46 Zn47 1.953 1_554 S
O46 C62 1.225 . S
Zn47 O46 1.953 1_556 S
Zn47 O48 1.949 1_556 S
Zn47 O54 1.921 . S
Zn47 O59 1.924 . S
O48 Zn47 1.949 1_554 S
O48 Zn49 1.923 . S
O48 Zn50 1.950 . S
O48 Zn51 1.945 1_554 S
Zn49 O48 1.923 . S
Zn49 O52 1.933 . S
Zn49 O55 1.941 . S
Zn49 O56 1.965 . S
Zn50 O48 1.950 . S
Zn50 O57 1.938 . S
Zn50 O58 1.906 . S
Zn50 O68 1.953 . S
Zn51 O48 1.945 1_556 S
Zn51 O53 1.932 . S
Zn51 O60 1.977 . S
Zn51 O61 1.910 . S
O52 Zn49 1.933 . S
O52 C63 1.226 1_554 S
O53 Zn51 1.932 . S
O53 C63 1.307 . S
O54 Zn47 1.921 . S
O54 C65 1.248 1_556 S
O55 Zn49 1.941 . S
O55 C65 1.283 . S
O56 Zn49 1.965 . S
O56 C64 1.303 . S
O57 Zn50 1.938 . S
O57 C64 1.247 . S
O58 Zn50 1.906 . S
O58 C66 1.304 1_554 S
O59 Zn47 1.924 . S
O59 C67 1.311 . S
O60 Zn51 1.977 . S
O60 C66 1.272 . S
O61 Zn51 1.910 . S
O61 C67 1.231 . S
C62 O46 1.225 . S
C62 O68 1.298 . S
C63 O52 1.226 1_556 S
C63 O53 1.307 . S
C64 O56 1.303 . S
C64 O57 1.247 . S
C65 O54 1.248 1_554 S
C65 O55 1.283 . S
C66 O58 1.304 1_556 S
C66 O60 1.272 . S
C67 O59 1.311 . S
C67 O61 1.231 . S
O68 Zn50 1.953 . S
O68 C62 1.298 . S
O69 Zn70 1.953 . S
O69 C85 1.225 . S
Zn70 O69 1.953 . S
Zn70 O71 1.949 . S
Zn70 O77 1.919 . S
Zn70 O82 1.924 . S
O71 Zn70 1.949 . S
O71 Zn72 1.923 . S
O71 Zn73 1.950 . S
O71 Zn74 1.945 . S
Zn72 O71 1.923 . S
Zn72 O75 1.933 . S
Zn72 O78 1.941 . S
Zn72 O79 1.965 . S
Zn73 O71 1.950 . S
Zn73 O80 1.938 . S
Zn73 O81 1.906 . S
Zn73 O91 1.953 . S
Zn74 O71 1.945 . S
Zn74 O76 1.932 . S
Zn74 O83 1.977 . S
Zn74 O84 1.910 1_554 S
O75 Zn72 1.933 . S
O75 C86 1.226 . S
O76 Zn74 1.932 . S
O76 C86 1.307 . S
O77 Zn70 1.919 . S
O77 C88 1.253 . S
O78 Zn72 1.941 . S
O78 C88 1.283 . S
O79 Zn72 1.965 . S
O79 C87 1.303 . S
O80 Zn73 1.938 . S
O80 C87 1.247 . S
O81 Zn73 1.906 . S
O81 C89 1.304 . S
O82 Zn70 1.924 . S
O82 C90 1.311 1_554 S
O83 Zn74 1.977 . S
O83 C89 1.272 . S
O84 Zn74 1.910 1_556 S
O84 C90 1.231 . S
C85 O69 1.225 . S
C85 O91 1.298 . S
C86 O75 1.226 . S
C86 O76 1.307 . S
C87 O79 1.303 . S
C87 O80 1.247 . S
C88 O77 1.253 . S
C88 O78 1.283 . S
C89 O81 1.304 . S
C89 O83 1.272 . S
C90 O82 1.311 1_556 S
C90 O84 1.231 . S
O91 Zn73 1.953 . S
O91 C85 1.298 . S
O92 Zn93 1.953 . S
O92 C108 1.225 . S
Zn93 O92 1.953 . S
Zn93 O94 1.949 . S
Zn93 O100 1.919 . S
Zn93 O105 1.924 . S
O94 Zn93 1.949 . S
O94 Zn95 1.923 . S
O94 Zn96 1.950 . S
O94 Zn97 1.945 . S
Zn95 O94 1.923 . S
Zn95 O98 1.933 . S
Zn95 O101 1.941 . S
Zn95 O102 1.965 . S
Zn96 O94 1.950 . S
Zn96 O103 1.938 . S
Zn96 O104 1.906 . S
Zn96 O114 1.953 . S
Zn97 O94 1.945 . S
Zn97 O99 1.932 . S
Zn97 O106 1.977 . S
Zn97 O107 1.910 1_554 S
O98 Zn95 1.933 . S
O98 C109 1.226 . S
O99 Zn97 1.932 . S
O99 C109 1.307 . S
O100 Zn93 1.919 . S
O100 C111 1.253 . S
O101 Zn95 1.941 . S
O101 C111 1.283 . S
O102 Zn95 1.965 . S
O102 C110 1.303 . S
O103 Zn96 1.938 . S
O103 C110 1.247 . S
O104 Zn96 1.906 . S
O104 C112 1.304 . S
O105 Zn93 1.924 . S
O105 C113 1.311 1_554 S
O106 Zn97 1.977 . S
O106 C112 1.272 . S
O107 Zn97 1.910 1_556 S
O107 C113 1.231 . S
C108 O92 1.225 . S
C108 O114 1.298 . S
C109 O98 1.226 . S
C109 O99 1.307 . S
C110 O102 1.303 . S
C110 O103 1.247 . S
C111 O100 1.253 . S
C111 O101 1.283 . S
C112 O104 1.304 . S
C112 O106 1.272 . S
C113 O105 1.311 1_556 S
C113 O107 1.231 . S
O114 Zn96 1.953 . S
O114 C108 1.298 . S
O115 Zn116 1.953 . S
O115 C131 1.225 . S
Zn116 O115 1.953 . S
Zn116 O117 1.949 . S
Zn116 O123 1.919 . S
Zn116 O128 1.924 . S
O117 Zn116 1.949 . S
O117 Zn118 1.923 . S
O117 Zn119 1.950 . S
O117 Zn120 1.945 . S
Zn118 O117 1.923 . S
Zn118 O121 1.933 . S
Zn118 O124 1.941 . S
Zn118 O125 1.965 1_556 S
Zn119 O117 1.950 . S
Zn119 O126 1.938 . S
Zn119 O127 1.906 . S
Zn119 O137 1.953 . S
Zn120 O117 1.945 . S
Zn120 O122 1.932 . S
Zn120 O129 1.977 . S
Zn120 O130 1.910 . S
O121 Zn118 1.933 . S
O121 C132 1.226 . S
O122 Zn120 1.932 . S
O122 C132 1.307 . S
O123 Zn116 1.919 . S
O123 C134 1.253 . S
O124 Zn118 1.941 . S
O124 C134 1.283 . S
O125 Zn118 1.965 1_554 S
O125 C133 1.303 . S
O126 Zn119 1.938 . S
O126 C133 1.247 1_556 S
O127 Zn119 1.906 . S
O127 C135 1.304 . S
O128 Zn116 1.924 . S
O128 C136 1.311 . S
O129 Zn120 1.977 . S
O129 C135 1.272 . S
O130 Zn120 1.910 . S
O130 C136 1.231 . S
C131 O115 1.225 . S
C131 O137 1.298 . S
C132 O121 1.226 . S
C132 O122 1.307 . S
C133 O125 1.303 . S
C133 O126 1.247 1_554 S
C134 O123 1.253 . S
C134 O124 1.283 . S
C135 O127 1.304 . S
C135 O129 1.272 . S
C136 O128 1.311 . S
C136 O130 1.231 . S
O137 Zn119 1.953 . S
O137 C131 1.298 . S
O138 Zn139 1.953 1_554 S
O138 C154 1.225 . S
Zn139 O138 1.953 1_556 S
Zn139 O140 1.949 1_556 S
Zn139 O146 1.921 . S
Zn139 O151 1.924 . S
O140 Zn139 1.949 1_554 S
O140 Zn141 1.923 . S
O140 Zn142 1.950 . S
O140 Zn143 1.945 1_554 S
Zn141 O140 1.923 . S
Zn141 O144 1.933 . S
Zn141 O147 1.941 . S
Zn141 O148 1.965 . S
Zn142 O140 1.950 . S
Zn142 O149 1.938 . S
Zn142 O150 1.906 . S
Zn142 O160 1.953 . S
Zn143 O140 1.945 1_556 S
Zn143 O145 1.932 . S
Zn143 O152 1.977 . S
Zn143 O153 1.910 . S
O144 Zn141 1.933 . S
O144 C155 1.226 1_554 S
O145 Zn143 1.932 . S
O145 C155 1.307 . S
O146 Zn139 1.921 . S
O146 C157 1.248 1_556 S
O147 Zn141 1.941 . S
O147 C157 1.283 . S
O148 Zn141 1.965 . S
O148 C156 1.303 . S
O149 Zn142 1.938 . S
O149 C156 1.247 . S
O150 Zn142 1.906 . S
O150 C158 1.304 1_554 S
O151 Zn139 1.924 . S
O151 C159 1.311 . S
O152 Zn143 1.977 . S
O152 C158 1.272 . S
O153 Zn143 1.910 . S
O153 C159 1.231 . S
C154 O138 1.225 . S
C154 O160 1.298 . S
C155 O144 1.226 1_556 S
C155 O145 1.307 . S
C156 O148 1.303 . S
C156 O149 1.247 . S
C157 O146 1.248 1_554 S
C157 O147 1.283 . S
C158 O150 1.304 1_556 S
C158 O152 1.272 . S
C159 O151 1.311 . S
C159 O153 1.231 . S
O160 Zn142 1.953 . S
O160 C154 1.298 . S
O161 Zn162 1.953 1_655 S
O161 C177 1.225 . S
Zn162 O161 1.953 1_455 S
Zn162 O163 1.949 . S
Zn162 O169 1.919 . S
Zn162 O174 1.924 . S
O163 Zn162 1.949 . S
O163 Zn164 1.923 . S
O163 Zn165 1.950 1_455 S
O163 Zn166 1.945 . S
Zn164 O163 1.923 . S
Zn164 O167 1.933 . S
Zn164 O170 1.941 . S
Zn164 O171 1.965 . S
Zn165 O163 1.950 1_655 S
Zn165 O172 1.938 . S
Zn165 O173 1.906 . S
Zn165 O183 1.953 . S
Zn166 O163 1.945 . S
Zn166 O168 1.932 . S
Zn166 O175 1.977 1_455 S
Zn166 O176 1.910 . S
O167 Zn164 1.933 . S
O167 C178 1.226 . S
O168 Zn166 1.932 . S
O168 C178 1.307 . S
O169 Zn162 1.919 . S
O169 C180 1.253 . S
O170 Zn164 1.941 . S
O170 C180 1.283 . S
O171 Zn164 1.965 . S
O171 C179 1.303 1_455 S
O172 Zn165 1.938 . S
O172 C179 1.247 . S
O173 Zn165 1.906 . S
O173 C181 1.304 . S
O174 Zn162 1.924 . S
O174 C182 1.311 1_455 S
O175 Zn166 1.977 1_655 S
O175 C181 1.272 . S
O176 Zn166 1.910 . S
O176 C182 1.231 1_455 S
C177 O161 1.225 . S
C177 O183 1.298 . S
C178 O167 1.226 . S
C178 O168 1.307 . S
C179 O171 1.303 1_655 S
C179 O172 1.247 . S
C180 O169 1.253 . S
C180 O170 1.283 . S
C181 O173 1.304 . S
C181 O175 1.272 . S
C182 O174 1.311 1_655 S
C182 O176 1.231 1_655 S
O183 Zn165 1.953 . S
O183 C177 1.298 . S
C184 C185 1.363 . S
C184 C190 1.379 . S
C184 N192 1.356 . S
C185 C184 1.363 . S
C185 C191 1.363 . S
C186 C187 1.363 . S
C186 C191 1.379 . S
C186 N193 1.356 . S
C187 C186 1.363 . S
C187 C190 1.363 . S
N188 C190 1.356 . S
N188 H200 0.984 . S
N188 H201 0.985 . S
N189 C191 1.356 . S
N189 H194 0.984 . S
N189 H195 0.985 . S
C190 C184 1.379 . S
C190 C187 1.363 . S
C190 N188 1.356 . S
C191 C185 1.363 . S
C191 C186 1.379 . S
C191 N189 1.356 . S
N192 C184 1.356 . S
N192 H198 0.984 . S
N192 H199 0.984 . S
N193 C186 1.356 . S
N193 H196 0.984 . S
N193 H197 0.985 . S
H194 N189 0.984 . S
H195 N189 0.985 . S
H196 N193 0.984 . S
H197 N193 0.985 . S
H198 N192 0.984 . S
H199 N192 0.984 . S
H200 N188 0.984 . S
H201 N188 0.985 . S
C202 C203 1.363 . S
C202 C208 1.379 . S
C202 N210 1.356 1_565 S
C203 C202 1.363 . S
C203 C209 1.363 . S
C204 C205 1.363 . S
C204 C209 1.379 . S
C204 N211 1.356 . S
C205 C204 1.363 . S
C205 C208 1.363 . S
N206 C208 1.356 . S
N206 H218 0.984 . S
N206 H219 0.985 . S
N207 C209 1.356 . S
N207 H212 0.984 . S
N207 H213 0.985 . S
C208 C202 1.379 . S
C208 C205 1.363 . S
C208 N206 1.356 . S
C209 C203 1.363 . S
C209 C204 1.379 . S
C209 N207 1.356 . S
N210 C202 1.356 1_545 S
N210 H216 0.984 . S
N210 H217 0.984 . S
N211 C204 1.356 . S
N211 H214 0.984 . S
N211 H215 0.985 . S
H212 N207 0.984 . S
H213 N207 0.985 . S
H214 N211 0.984 . S
H215 N211 0.985 . S
H216 N210 0.984 . S
H217 N210 0.984 . S
H218 N206 0.984 . S
H219 N206 0.985 . S
C220 C221 1.363 . S
C220 C226 1.379 . S
C220 N228 1.356 . S
C221 C220 1.363 . S
C221 C227 1.363 . S
C222 C223 1.363 . S
C222 C227 1.379 . S
C222 N229 1.356 . S
C223 C222 1.363 . S
C223 C226 1.363 . S
N224 C226 1.356 1_554 S
N224 H236 0.984 . S
N224 H237 0.985 1_565 S
N225 C227 1.356 . S
N225 H230 0.984 . S
N225 H231 0.985 . S
C226 C220 1.379 . S
C226 C223 1.363 . S
C226 N224 1.356 1_556 S
C227 C221 1.363 . S
C227 C222 1.379 . S
C227 N225 1.356 . S
N228 C220 1.356 . S
N228 H234 0.984 1_556 S
N228 H235 0.984 . S
N229 C222 1.356 . S
N229 H232 0.984 1_565 S
N229 H233 0.985 . S
H230 N225 0.984 . S
H231 N225 0.985 . S
H232 N229 0.984 1_545 S
H233 N229 0.985 . S
H234 N228 0.984 1_554 S
H235 N228 0.984 . S
H236 N224 0.984 . S
H237 N224 0.985 1_545 S
C238 C239 1.363 . S
C238 C244 1.379 . S
C238 N246 1.356 . S
C239 C238 1.363 . S
C239 C245 1.363 . S
C240 C241 1.363 . S
C240 C245 1.379 . S
C240 N247 1.356 . S
C241 C240 1.363 . S
C241 C244 1.363 . S
N242 C244 1.356 . S
N242 H254 0.984 . S
N242 H255 0.985 . S
N243 C245 1.356 . S
N243 H248 0.984 . S
N243 H249 0.985 . S
C244 C238 1.379 . S
C244 C241 1.363 . S
C244 N242 1.356 . S
C245 C239 1.363 . S
C245 C240 1.379 . S
C245 N243 1.356 . S
N246 C238 1.356 . S
N246 H252 0.984 . S
N246 H253 0.984 . S
N247 C240 1.356 . S
N247 H250 0.984 . S
N247 H251 0.985 . S
H248 N243 0.984 . S
H249 N243 0.985 . S
H250 N247 0.984 . S
H251 N247 0.985 . S
H252 N246 0.984 . S
H253 N246 0.984 . S
H254 N242 0.984 . S
H255 N242 0.985 . S
C256 C257 1.363 . S
C256 C262 1.379 . S
C256 N264 1.356 1_565 S
C257 C256 1.363 . S
C257 C263 1.363 . S
C258 C259 1.363 . S
C258 C263 1.379 . S
C258 N265 1.356 . S
C259 C258 1.363 . S
C259 C262 1.363 . S
N260 C262 1.356 . S
N260 H272 0.984 . S
N260 H273 0.985 . S
N261 C263 1.356 . S
N261 H266 0.984 . S
N261 H267 0.985 . S
C262 C256 1.379 . S
C262 C259 1.363 . S
C262 N260 1.356 . S
C263 C257 1.363 . S
C263 C258 1.379 . S
C263 N261 1.356 . S
N264 C256 1.356 1_545 S
N264 H270 0.984 . S
N264 H271 0.984 . S
N265 C258 1.356 . S
N265 H268 0.984 . S
N265 H269 0.985 . S
H266 N261 0.984 . S
H267 N261 0.985 . S
H268 N265 0.984 . S
H269 N265 0.985 . S
H270 N264 0.984 . S
H271 N264 0.984 . S
H272 N260 0.984 . S
H273 N260 0.985 . S
C274 C275 1.363 . S
C274 C280 1.379 . S
C274 N282 1.356 . S
C275 C274 1.363 . S
C275 C281 1.363 . S
C276 C277 1.363 . S
C276 C281 1.379 . S
C276 N283 1.356 . S
C277 C276 1.363 . S
C277 C280 1.363 . S
N278 C280 1.356 . S
N278 H290 0.984 . S
N278 H291 0.985 . S
N279 C281 1.356 . S
N279 H284 0.984 . S
N279 H285 0.985 . S
C280 C274 1.379 . S
C280 C277 1.363 . S
C280 N278 1.356 . S
C281 C275 1.363 . S
C281 C276 1.379 . S
C281 N279 1.356 . S
N282 C274 1.356 . S
N282 H288 0.984 . S
N282 H289 0.984 . S
N283 C276 1.356 . S
N283 H286 0.984 . S
N283 H287 0.985 . S
H284 N279 0.984 . S
H285 N279 0.985 . S
H286 N283 0.984 . S
H287 N283 0.985 . S
H288 N282 0.984 . S
H289 N282 0.984 . S
H290 N278 0.984 . S
H291 N278 0.985 . S
C292 C293 1.363 . S
C292 C298 1.379 . S
C292 N300 1.356 . S
C293 C292 1.363 . S
C293 C299 1.363 . S
C294 C295 1.363 . S
C294 C299 1.379 . S
C294 N301 1.356 . S
C295 C294 1.363 . S
C295 C298 1.363 . S
N296 C298 1.356 1_556 S
N296 H308 0.984 . S
N296 H309 0.985 . S
N297 C299 1.356 . S
N297 H302 0.984 . S
N297 H303 0.985 . S
C298 C292 1.379 . S
C298 C295 1.363 . S
C298 N296 1.356 1_554 S
C299 C293 1.363 . S
C299 C294 1.379 . S
C299 N297 1.356 . S
N300 C292 1.356 . S
N300 H306 0.977 1_554 S
N300 H307 0.984 . S
N301 C294 1.356 . S
N301 H304 0.984 . S
N301 H305 0.985 . S
H302 N297 0.984 . S
H303 N297 0.985 . S
H304 N301 0.984 . S
H305 N301 0.985 . S
H306 N300 0.977 1_556 S
H307 N300 0.984 . S
H308 N296 0.984 . S
H309 N296 0.985 . S
C310 C311 1.363 . S
C310 C316 1.379 . S
C310 N318 1.356 . S
C311 C310 1.363 . S
C311 C317 1.363 . S
C312 C313 1.363 1_565 S
C312 C317 1.379 . S
C312 N319 1.356 1_566 S
C313 C312 1.363 1_545 S
C313 C316 1.363 1_545 S
N314 C316 1.356 . S
N314 H326 0.984 . S
N314 H327 0.985 1_565 S
N315 C317 1.356 . S
N315 H320 0.984 . S
N315 H321 0.985 1_556 S
C316 C310 1.379 . S
C316 C313 1.363 1_565 S
C316 N314 1.356 . S
C317 C311 1.363 . S
C317 C312 1.379 . S
C317 N315 1.356 . S
N318 C310 1.356 . S
N318 H324 0.984 . S
N318 H325 0.984 . S
N319 C312 1.356 1_544 S
N319 H322 0.984 . S
N319 H323 0.985 . S
H320 N315 0.984 . S
H321 N315 0.985 1_554 S
H322 N319 0.984 . S
H323 N319 0.985 . S
H324 N318 0.984 . S
H325 N318 0.984 . S
H326 N314 0.984 . S
H327 N314 0.985 1_545 S
C328 C329 1.363 . S
C328 C334 1.379 . S
C328 N336 1.356 1_556 S
C329 C328 1.363 . S
C329 C335 1.363 . S
C330 C331 1.363 . S
C330 C335 1.379 . S
C330 N337 1.356 . S
C331 C330 1.363 . S
C331 C334 1.363 . S
N332 C334 1.356 . S
N332 H344 0.984 . S
N332 H345 0.985 . S
N333 C335 1.356 . S
N333 H338 0.984 . S
N333 H339 0.985 . S
C334 C328 1.379 . S
C334 C331 1.363 . S
C334 N332 1.356 . S
C335 C329 1.363 . S
C335 C330 1.379 . S
C335 N333 1.356 . S
N336 C328 1.356 1_554 S
N336 H342 0.984 . S
N336 H343 0.984 . S
N337 C330 1.356 . S
N337 H340 0.984 . S
N337 H341 0.985 . S
H338 N333 0.984 . S
H339 N333 0.985 . S
H340 N337 0.984 . S
H341 N337 0.985 . S
H342 N336 0.984 . S
H343 N336 0.984 . S
H344 N332 0.984 . S
H345 N332 0.985 . S
C346 C347 1.363 . S
C346 C352 1.379 . S
C346 N354 1.356 . S
C347 C346 1.363 . S
C347 C353 1.363 . S
C348 C349 1.363 . S
C348 C353 1.379 . S
C348 N355 1.356 . S
C349 C348 1.363 . S
C349 C352 1.363 . S
N350 C352 1.356 1_556 S
N350 H362 0.984 . S
N350 H363 0.985 . S
N351 C353 1.356 . S
N351 H356 0.984 . S
N351 H357 0.985 . S
C352 C346 1.379 . S
C352 C349 1.363 . S
C352 N350 1.356 1_554 S
C353 C347 1.363 . S
C353 C348 1.379 . S
C353 N351 1.356 . S
N354 C346 1.356 . S
N354 H360 0.984 1_554 S
N354 H361 0.984 . S
N355 C348 1.356 . S
N355 H358 0.984 . S
N355 H359 0.985 . S
H356 N351 0.984 . S
H357 N351 0.985 . S
H358 N355 0.984 . S
H359 N355 0.985 . S
H360 N354 0.984 1_556 S
H361 N354 0.984 . S
H362 N350 0.984 . S
H363 N350 0.985 . S
C364 C365 1.363 . S
C364 C370 1.379 . S
C364 N372 1.356 . S
C365 C364 1.363 . S
C365 C371 1.363 . S
C366 C367 1.363 . S
C366 C371 1.379 . S
C366 N373 1.356 . S
C367 C366 1.363 . S
C367 C370 1.363 . S
N368 C370 1.356 . S
N368 H380 0.984 . S
N368 H381 0.985 . S
N369 C371 1.356 . S
N369 H374 0.984 . S
N369 H375 0.985 . S
C370 C364 1.379 . S
C370 C367 1.363 . S
C370 N368 1.356 . S
C371 C365 1.363 . S
C371 C366 1.379 . S
C371 N369 1.356 . S
N372 C364 1.356 . S
N372 H378 0.984 . S
N372 H379 0.984 . S
N373 C366 1.356 . S
N373 H376 0.984 . S
N373 H377 0.985 . S
H374 N369 0.984 . S
H375 N369 0.985 . S
H376 N373 0.984 . S
H377 N373 0.985 . S
H378 N372 0.984 . S
H379 N372 0.984 . S
H380 N368 0.984 . S
H381 N368 0.985 . S
C382 C383 1.363 . S
C382 C388 1.379 . S
C382 N390 1.356 . S
C383 C382 1.363 . S
C383 C389 1.363 . S
C384 C385 1.363 . S
C384 C389 1.379 . S
C384 N391 1.356 . S
C385 C384 1.363 . S
C385 C388 1.363 . S
N386 C388 1.356 . S
N386 H398 0.984 . S
N386 H399 0.985 . S
N387 C389 1.356 . S
N387 H392 0.984 . S
N387 H393 0.985 . S
C388 C382 1.379 . S
C388 C385 1.363 . S
C388 N386 1.356 . S
C389 C383 1.363 . S
C389 C384 1.379 . S
C389 N387 1.356 . S
N390 C382 1.356 . S
N390 H396 0.984 . S
N390 H397 0.984 . S
N391 C384 1.356 . S
N391 H394 0.984 . S
N391 H395 0.985 . S
H392 N387 0.984 . S
H393 N387 0.985 . S
H394 N391 0.984 . S
H395 N391 0.985 . S
H396 N390 0.984 . S
H397 N390 0.984 . S
H398 N386 0.984 . S
H399 N386 0.985 . S
C400 C401 1.363 . S
C400 C406 1.379 . S
C400 N408 1.356 . S
C401 C400 1.363 . S
C401 C407 1.363 . S
C402 C403 1.363 . S
C402 C407 1.379 . S
C402 N409 1.356 . S
C403 C402 1.363 . S
C403 C406 1.363 . S
N404 C406 1.356 1_556 S
N404 H416 0.984 . S
N404 H417 0.985 . S
N405 C407 1.356 . S
N405 H410 0.984 . S
N405 H411 0.985 . S
C406 C400 1.379 . S
C406 C403 1.363 . S
C406 N404 1.356 1_554 S
C407 C401 1.363 . S
C407 C402 1.379 . S
C407 N405 1.356 . S
N408 C400 1.356 . S
N408 H414 0.984 . S
N408 H415 0.984 . S
N409 C402 1.356 . S
N409 H412 0.984 . S
N409 H413 0.985 . S
H410 N405 0.984 . S
H411 N405 0.985 . S
H412 N409 0.984 . S
H413 N409 0.985 . S
H414 N408 0.984 . S
H415 N408 0.984 . S
H416 N404 0.984 . S
H417 N404 0.985 . S
C418 C419 1.363 . S
C418 C424 1.379 . S
C418 N426 1.356 1_556 S
C419 C418 1.363 . S
C419 C425 1.363 . S
C420 C421 1.363 . S
C420 C425 1.379 . S
C420 N427 1.356 . S
C421 C420 1.363 . S
C421 C424 1.363 . S
N422 C424 1.356 . S
N422 H434 0.984 1_556 S
N422 H435 0.985 . S
N423 C425 1.356 . S
N423 H428 0.984 . S
N423 H429 0.985 . S
C424 C418 1.379 . S
C424 C421 1.363 . S
C424 N422 1.356 . S
C425 C419 1.363 . S
C425 C420 1.379 . S
C425 N423 1.356 . S
N426 C418 1.356 1_554 S
N426 H432 0.984 . S
N426 H433 0.984 . S
N427 C420 1.356 . S
N427 H430 0.984 . S
N427 H431 0.985 . S
H428 N423 0.984 . S
H429 N423 0.985 . S
H430 N427 0.984 . S
H431 N427 0.985 . S
H432 N426 0.984 . S
H433 N426 0.984 . S
H434 N422 0.984 1_554 S
H435 N422 0.985 . S
C436 C437 1.363 . S
C436 C442 1.379 . S
C436 N444 1.356 . S
C437 C436 1.363 . S
C437 C443 1.363 . S
C438 C439 1.363 . S
C438 C443 1.379 . S
C438 N445 1.356 . S
C439 C438 1.363 . S
C439 C442 1.363 . S
N440 C442 1.356 . S
N440 H452 0.984 . S
N440 H453 0.985 . S
N441 C443 1.356 . S
N441 H446 0.984 . S
N441 H447 0.985 . S
C442 C436 1.379 . S
C442 C439 1.363 . S
C442 N440 1.356 . S
C443 C437 1.363 . S
C443 C438 1.379 . S
C443 N441 1.356 . S
N444 C436 1.356 . S
N444 H450 0.984 . S
N444 H451 0.984 . S
N445 C438 1.356 . S
N445 H448 0.984 . S
N445 H449 0.985 . S
H446 N441 0.984 . S
H447 N441 0.985 . S
H448 N445 0.984 . S
H449 N445 0.985 . S
H450 N444 0.984 . S
H451 N444 0.984 . S
H452 N440 0.984 . S
H453 N440 0.985 . S
C454 C455 1.363 . S
C454 C460 1.379 . S
C454 N462 1.356 . S
C455 C454 1.363 . S
C455 C461 1.363 . S
C456 C457 1.363 . S
C456 C461 1.379 . S
C456 N463 1.356 . S
C457 C456 1.363 . S
C457 C460 1.363 . S
N458 C460 1.356 . S
N458 H470 0.984 . S
N458 H471 0.985 . S
N459 C461 1.356 . S
N459 H464 0.984 . S
N459 H465 0.985 . S
C460 C454 1.379 . S
C460 C457 1.363 . S
C460 N458 1.356 . S
C461 C455 1.363 . S
C461 C456 1.379 . S
C461 N459 1.356 . S
N462 C454 1.356 . S
N462 H468 0.984 . S
N462 H469 0.984 . S
N463 C456 1.356 . S
N463 H466 0.984 . S
N463 H467 0.985 . S
H464 N459 0.984 . S
H465 N459 0.985 . S
H466 N463 0.984 . S
H467 N463 0.985 . S
H468 N462 0.984 . S
H469 N462 0.984 . S
H470 N458 0.984 . S
H471 N458 0.985 . S
C472 C473 1.363 . S
C472 C478 1.379 1_556 S
C472 N480 1.356 . S
C473 C472 1.363 . S
C473 C479 1.363 1_455 S
C474 C475 1.363 1_655 S
C474 C479 1.379 1_554 S
C474 N481 1.356 1_545 S
C475 C474 1.363 1_455 S
C475 C478 1.363 . S
N476 C478 1.356 . S
N476 H488 0.984 . S
N476 H489 0.985 . S
N477 C479 1.356 . S
N477 H482 0.984 . S
N477 H483 0.985 1_545 S
C478 C472 1.379 1_554 S
C478 C475 1.363 . S
C478 N476 1.356 . S
C479 C473 1.363 1_655 S
C479 C474 1.379 1_556 S
C479 N477 1.356 . S
N480 C472 1.356 . S
N480 H486 0.984 . S
N480 H487 0.984 . S
N481 C474 1.356 1_565 S
N481 H484 0.984 . S
N481 H485 0.985 . S
H482 N477 0.984 . S
H483 N477 0.985 1_565 S
H484 N481 0.984 . S
H485 N481 0.985 . S
H486 N480 0.984 . S
H487 N480 0.984 . S
H488 N476 0.984 . S
H489 N476 0.985 . S
C490 C491 1.363 . S
C490 C496 1.379 . S
C490 N498 1.356 . S
C491 C490 1.363 . S
C491 C497 1.363 . S
C492 C493 1.363 . S
C492 C497 1.379 . S
C492 N499 1.356 . S
C493 C492 1.363 . S
C493 C496 1.363 . S
N494 C496 1.356 . S
N494 H506 0.984 . S
N494 H507 0.985 . S
N495 C497 1.356 . S
N495 H500 0.984 . S
N495 H501 0.985 . S
C496 C490 1.379 . S
C496 C493 1.363 . S
C496 N494 1.356 . S
C497 C491 1.363 . S
C497 C492 1.379 . S
C497 N495 1.356 . S
N498 C490 1.356 . S
N498 H504 0.984 . S
N498 H505 0.984 . S
N499 C492 1.356 . S
N499 H502 0.984 . S
N499 H503 0.985 . S
H500 N495 0.984 . S
H501 N495 0.985 . S
H502 N499 0.984 . S
H503 N499 0.985 . S
H504 N498 0.984 . S
H505 N498 0.984 . S
H506 N494 0.984 . S
H507 N494 0.985 . S
C508 C509 1.363 . S
C508 C514 1.379 . S
C508 N516 1.356 . S
C509 C508 1.363 . S
C509 C515 1.363 . S
C510 C511 1.363 . S
C510 C515 1.379 . S
C510 N517 1.356 . S
C511 C510 1.363 . S
C511 C514 1.363 . S
N512 C514 1.356 . S
N512 H524 0.984 . S
N512 H525 0.985 . S
N513 C515 1.356 . S
N513 H518 0.984 . S
N513 H519 0.985 . S
C514 C508 1.379 . S
C514 C511 1.363 . S
C514 N512 1.356 . S
C515 C509 1.363 . S
C515 C510 1.379 . S
C515 N513 1.356 . S
N516 C508 1.356 . S
N516 H522 0.984 . S
N516 H523 0.984 . S
N517 C510 1.356 . S
N517 H520 0.984 . S
N517 H521 0.985 . S
H518 N513 0.984 . S
H519 N513 0.985 . S
H520 N517 0.984 . S
H521 N517 0.985 . S
H522 N516 0.984 . S
H523 N516 0.984 . S
H524 N512 0.984 . S
H525 N512 0.985 . S
C526 C527 1.363 . S
C526 C532 1.379 . S
C526 N534 1.356 . S
C527 C526 1.363 . S
C527 C533 1.363 . S
C528 C529 1.363 . S
C528 C533 1.379 . S
C528 N535 1.356 . S
C529 C528 1.363 . S
C529 C532 1.363 . S
N530 C532 1.356 . S
N530 H542 0.984 . S
N530 H543 0.985 . S
N531 C533 1.356 . S
N531 H536 0.984 1_556 S
N531 H537 0.985 . S
C532 C526 1.379 . S
C532 C529 1.363 . S
C532 N530 1.356 . S
C533 C527 1.363 . S
C533 C528 1.379 . S
C533 N531 1.356 . S
N534 C526 1.356 . S
N534 H540 0.984 . S
N534 H541 0.984 . S
N535 C528 1.356 . S
N535 H538 0.984 . S
N535 H539 0.985 . S
H536 N531 0.984 1_554 S
H537 N531 0.985 . S
H538 N535 0.984 . S
H539 N535 0.985 . S
H540 N534 0.984 . S
H541 N534 0.984 . S
H542 N530 0.984 . S
H543 N530 0.985 . S
C544 C545 1.363 . S
C544 C550 1.379 . S
C544 N552 1.356 . S
C545 C544 1.363 . S
C545 C551 1.363 . S
C546 C547 1.363 . S
C546 C551 1.379 . S
C546 N553 1.356 . S
C547 C546 1.363 . S
C547 C550 1.363 . S
N548 C550 1.356 . S
N548 H560 0.984 . S
N548 H561 0.985 . S
N549 C551 1.356 . S
N549 H554 0.984 . S
N549 H555 0.985 . S
C550 C544 1.379 . S
C550 C547 1.363 . S
C550 N548 1.356 . S
C551 C545 1.363 . S
C551 C546 1.379 . S
C551 N549 1.356 . S
N552 C544 1.356 . S
N552 H558 0.984 . S
N552 H559 0.984 . S
N553 C546 1.356 . S
N553 H556 0.984 . S
N553 H557 0.985 . S
H554 N549 0.984 . S
H555 N549 0.985 . S
H556 N553 0.984 . S
H557 N553 0.985 . S
H558 N552 0.984 . S
H559 N552 0.984 . S
H560 N548 0.984 . S
H561 N548 0.985 . S
C562 C563 1.363 . S
C562 C568 1.379 . S
C562 N570 1.356 . S
C563 C562 1.363 . S
C563 C569 1.363 . S
C564 C565 1.363 . S
C564 C569 1.379 . S
C564 N571 1.356 . S
C565 C564 1.363 . S
C565 C568 1.363 . S
N566 C568 1.356 . S
N566 H578 0.984 . S
N566 H579 0.985 . S
N567 C569 1.356 . S
N567 H572 0.984 . S
N567 H573 0.985 . S
C568 C562 1.379 . S
C568 C565 1.363 . S
C568 N566 1.356 . S
C569 C563 1.363 . S
C569 C564 1.379 . S
C569 N567 1.356 . S
N570 C562 1.356 . S
N570 H576 0.984 . S
N570 H577 0.984 . S
N571 C564 1.356 . S
N571 H574 0.984 . S
N571 H575 0.985 . S
H572 N567 0.984 . S
H573 N567 0.985 . S
H574 N571 0.984 . S
H575 N571 0.985 . S
H576 N570 0.984 . S
H577 N570 0.984 . S
H578 N566 0.984 . S
H579 N566 0.985 . S
C580 C581 1.363 . S
C580 C586 1.379 . S
C580 N588 1.356 . S
C581 C580 1.363 . S
C581 C587 1.363 . S
C582 C583 1.363 . S
C582 C587 1.379 . S
C582 N589 1.356 . S
C583 C582 1.363 . S
C583 C586 1.363 . S
N584 C586 1.356 . S
N584 H596 0.984 . S
N584 H597 0.985 . S
N585 C587 1.356 . S
N585 H590 0.984 . S
N585 H591 0.985 . S
C586 C580 1.379 . S
C586 C583 1.363 . S
C586 N584 1.356 . S
C587 C581 1.363 . S
C587 C582 1.379 . S
C587 N585 1.356 . S
N588 C580 1.356 . S
N588 H594 0.984 . S
N588 H595 0.984 . S
N589 C582 1.356 . S
N589 H592 0.984 . S
N589 H593 0.985 . S
H590 N585 0.984 . S
H591 N585 0.985 . S
H592 N589 0.984 . S
H593 N589 0.985 . S
H594 N588 0.984 . S
H595 N588 0.984 . S
H596 N584 0.984 . S
H597 N584 0.985 . S
C598 C599 1.363 . S
C598 C604 1.379 1_556 S
C598 N606 1.356 . S
C599 C598 1.363 . S
C599 C605 1.363 1_655 S
C600 C601 1.363 1_455 S
C600 C605 1.379 1_554 S
C600 N607 1.356 . S
C601 C600 1.363 1_655 S
C601 C604 1.363 . S
N602 C604 1.356 . S
N602 H614 0.984 . S
N602 H615 0.985 . S
N603 C605 1.356 . S
N603 H608 0.984 . S
N603 H609 0.985 . S
C604 C598 1.379 1_554 S
C604 C601 1.363 . S
C604 N602 1.356 . S
C605 C599 1.363 1_455 S
C605 C600 1.379 1_556 S
C605 N603 1.356 . S
N606 C598 1.356 . S
N606 H612 0.984 . S
N606 H613 0.984 . S
N607 C600 1.356 . S
N607 H610 0.984 . S
N607 H611 0.985 . S
H608 N603 0.984 . S
H609 N603 0.985 . S
H610 N607 0.984 . S
H611 N607 0.985 . S
H612 N606 0.984 . S
H613 N606 0.984 . S
H614 N602 0.984 . S
H615 N602 0.985 . S
C185 C20 1.513 . S
C187 C85 1.551 . S
C203 C16 1.551 . S
C205 C43 1.513 . S
C221 C39 1.551 . S
C223 C66 1.513 1_565 S
C239 C62 1.551 . S
C241 C89 1.513 . S
C257 C19 1.493 1_565 S
C259 C132 1.553 . S
C275 C17 1.553 . S
C277 C111 1.497 . S
C293 C109 1.553 . S
C295 C65 1.497 . S
C311 C134 1.497 . S
C313 C63 1.553 . S
C329 C158 1.513 . S
C331 C131 1.551 . S
C347 C112 1.513 . S
C349 C154 1.551 . S
C365 C181 1.513 . S
C367 C108 1.551 . S
C383 C135 1.513 . S
C385 C177 1.551 . S
C401 C86 1.553 . S
C403 C157 1.498 . S
C419 C155 1.553 . S
C421 C42 1.497 . S
C437 C40 1.553 . S
C439 C180 1.497 . S
C455 C88 1.497 . S
C457 C178 1.553 . S
C473 C18 1.211 . S
C475 C21 1.121 . S
C491 C44 1.121 . S
C493 C41 1.211 . S
C509 C67 1.121 . S
C511 C64 1.211 . S
C527 C90 1.121 . S
C529 C87 1.211 . S
C545 C113 1.121 . S
C547 C110 1.211 . S
C563 C136 1.121 . S
C565 C133 1.211 . S
C581 C159 1.121 . S
C583 C156 1.211 . S
C599 C179 1.211 . S
C601 C182 1.121 . S
