# Generated by pormake.
# Topology smu, (6)-cn, num edge types: 1
# Building blocks:
#     Node 0, Type 0, BuildingBlock: OJICUG_clean_sbu_0, # of connection points: 6
#     Node 1, Type 0, BuildingBlock: OJICUG_clean_sbu_0, # of connection points: 6
#     Node 2, Type 0, BuildingBlock: OJICUG_clean_sbu_0, # of connection points: 6
#     Node 3, Type 0, BuildingBlock: OJICUG_clean_sbu_0, # of connection points: 6
#     Node 4, Type 0, BuildingBlock: OJICUG_clean_sbu_0, # of connection points: 6
#     Node 5, Type 0, BuildingBlock: OJICUG_clean_sbu_0, # of connection points: 6
#     Edge 6, Type (0, 0), BuildingBlock: CIFDUS_clean_linker_0, # of connection points: 2
#     Edge 7, Type (0, 0), BuildingBlock: CIFDUS_clean_linker_0, # of connection points: 2
#     Edge 8, Type (0, 0), BuildingBlock: CIFDUS_clean_linker_0, # of connection points: 2
#     Edge 9, Type (0, 0), BuildingBlock: CIFDUS_clean_linker_0, # of connection points: 2
#     Edge 10, Type (0, 0), BuildingBlock: CIFDUS_clean_linker_0, # of connection points: 2
#     Edge 11, Type (0, 0), BuildingBlock: CIFDUS_clean_linker_0, # of connection points: 2
#     Edge 12, Type (0, 0), BuildingBlock: CIFDUS_clean_linker_0, # of connection points: 2
#     Edge 13, Type (0, 0), BuildingBlock: CIFDUS_clean_linker_0, # of connection points: 2
#     Edge 14, Type (0, 0), BuildingBlock: CIFDUS_clean_linker_0, # of connection points: 2
#     Edge 15, Type (0, 0), BuildingBlock: CIFDUS_clean_linker_0, # of connection points: 2
#     Edge 16, Type (0, 0), BuildingBlock: CIFDUS_clean_linker_0, # of connection points: 2
#     Edge 17, Type (0, 0), BuildingBlock: CIFDUS_clean_linker_0, # of connection points: 2
#     Edge 18, Type (0, 0), BuildingBlock: CIFDUS_clean_linker_0, # of connection points: 2
#     Edge 19, Type (0, 0), BuildingBlock: CIFDUS_clean_linker_0, # of connection points: 2
#     Edge 20, Type (0, 0), BuildingBlock: CIFDUS_clean_linker_0, # of connection points: 2
#     Edge 21, Type (0, 0), BuildingBlock: CIFDUS_clean_linker_0, # of connection points: 2
#     Edge 22, Type (0, 0), BuildingBlock: CIFDUS_clean_linker_0, # of connection points: 2
#     Edge 23, Type (0, 0), BuildingBlock: CIFDUS_clean_linker_0, # of connection points: 2
# Relax obj value: 0.250
# Max RMSD: 0.294
# Mean RMSD: 0.265
data_MOF--net-smu--node1-OJICUG_clean_sbu_0--edge1-CIFDUS_clean_linker_0
_symmetry_space_group_name_H-M    P1
_symmetry_Int_Tables_number       1
_symmetry_cell_setting            triclinic
loop_
_symmetry_equiv_pos_as_xyz
'x, y, z'
_cell_length_a     26.779286
_cell_length_b     26.608533
_cell_length_c     27.583253
_cell_angle_alpha  95.473491
_cell_angle_beta   95.896853
_cell_angle_gamma 119.71966
loop_
_atom_site_label
_atom_site_type_symbol
_atom_site_fract_x
_atom_site_fract_y
_atom_site_fract_z
_atom_type_partial_charge
Sc0 Sc 0.30979 0.10595 0.19698 0.0
Sc1 Sc 0.35195 0.02386 0.26062 0.0
Sc2 Sc 0.39888 0.16883 0.31195 0.0
O3 O 0.35391 0.10014 0.2574 0.0
C4 C 0.41614 0.23658 0.22229 0.0
C5 C 0.36016 0.03955 0.1473 0.0
C6 C 0.48475 0.11966 0.2889 0.0
C7 C 0.22501 0.98255 0.22001 0.0
C8 C 0.27344 0.15979 0.28221 0.0
C9 C 0.35908 0.06609 0.37559 0.0
O10 O 0.36764 0.19803 0.19629 0.0
O11 O 0.34691 0.00613 0.18002 0.0
O12 O 0.47556 0.15884 0.30992 0.0
O13 O 0.24254 0.01398 0.18667 0.0
O14 O 0.32319 0.18261 0.31108 0.0
O15 O 0.35551 0.02907 0.3405 0.0
O16 O 0.26041 0.12623 0.24123 0.0
O17 O 0.26 0.98213 0.25429 0.0
O18 O 0.36985 0.117 0.3695 0.0
O19 O 0.361 0.08768 0.15333 0.0
O20 O 0.43581 0.22969 0.26313 0.0
O21 O 0.44443 0.06816 0.26868 0.0
Sc22 Sc 0.77829 0.66301 0.19268 0.0
Sc23 Sc 0.67758 0.68825 0.24755 0.0
Sc24 Sc 0.82148 0.74642 0.3098 0.0
O25 O 0.75885 0.69972 0.24983 0.0
C26 C 0.85433 0.65146 0.28239 0.0
C27 C 0.657 0.56052 0.20824 0.0
C28 C 0.71083 0.67851 0.36021 0.0
C29 C 0.68485 0.6866 0.13413 0.0
C30 C 0.88856 0.78762 0.21797 0.0
C31 C 0.76103 0.82345 0.29745 0.0
O32 O 0.8376 0.64684 0.23677 0.0
O33 O 0.63829 0.59448 0.22215 0.0
O34 O 0.76527 0.70679 0.36066 0.0
O35 O 0.72194 0.67042 0.13793 0.0
O36 O 0.88457 0.78957 0.26366 0.0
O37 O 0.71216 0.78176 0.27297 0.0
O38 O 0.84964 0.74646 0.1844 0.0
O39 O 0.66882 0.70275 0.17146 0.0
O40 O 0.80328 0.81627 0.31216 0.0
O41 O 0.70843 0.57872 0.1994 0.0
O42 O 0.84535 0.68088 0.31548 0.0
O43 O 0.67352 0.6694 0.32275 0.0
Sc44 Sc 0.89298 0.20608 0.19133 0.0
Sc45 Sc 0.00628 0.34341 0.25135 0.0
Sc46 Sc 0.8729 0.27915 0.28949 0.0
O47 O 0.92471 0.27615 0.24424 0.0
C48 C 0.78408 0.22618 0.19692 0.0
C49 C 0.96381 0.30628 0.13366 0.0
C50 C 0.9451 0.41231 0.27388 0.0
C51 C 0.02408 0.23679 0.23082 0.0
C52 C 0.83558 0.14293 0.27391 0.0
C53 C 0.98674 0.32761 0.36183 0.0
O54 O 0.80357 0.19276 0.18312 0.0
O55 O 0.00321 0.33534 0.17191 0.0
O56 O 0.91251 0.37384 0.29811 0.0
O57 O 0.97678 0.20833 0.1989 0.0
O58 O 0.82467 0.18317 0.28783 0.0
O59 O 0.0172 0.35816 0.33173 0.0
O60 O 0.87074 0.14921 0.24449 0.0
O61 O 0.03926 0.28561 0.25693 0.0
O62 O 0.9331 0.28836 0.35022 0.0
O63 O 0.91522 0.26073 0.13522 0.0
O64 O 0.81559 0.2732 0.22737 0.0
O65 O 0.97672 0.40412 0.24674 0.0
Sc66 Sc 0.05065 0.22468 0.71772 0.0
Sc67 Sc 0.98352 0.30616 0.73648 0.0
Sc68 Sc 0.11716 0.34585 0.80833 0.0
O69 O 0.05019 0.29323 0.7531 0.0
C70 C 0.10252 0.22006 0.81322 0.0
C71 C 0.91396 0.16876 0.71601 0.0
C72 C 0.00892 0.32474 0.8559 0.0
C73 C 0.01415 0.27319 0.63233 0.0
C74 C 0.18255 0.32893 0.73093 0.0
C75 C 0.08895 0.4363 0.76195 0.0
O76 O 0.05281 0.19909 0.78774 0.0
O77 O 0.9171 0.21598 0.73447 0.0
O78 O 0.05811 0.32753 0.85915 0.0
O79 O 0.04362 0.25129 0.64926 0.0
O80 O 0.17457 0.3653 0.75697 0.0
O81 O 0.04185 0.39705 0.73442 0.0
O82 O 0.14618 0.27373 0.72257 0.0
O83 O 0.98646 0.29055 0.6579 0.0
O84 O 0.11512 0.42448 0.79627 0.0
O85 O 0.958 0.16708 0.70519 0.0
O86 O 0.13497 0.27574 0.82465 0.0
O87 O 0.97918 0.32209 0.81515 0.0
Sc88 Sc 0.17067 0.86387 0.67987 0.0
Sc89 Sc 0.3069 0.97831 0.74401 0.0
Sc90 Sc 0.22611 0.85658 0.79713 0.0
O91 O 0.23456 0.89845 0.73943 0.0
C92 C 0.09444 0.8239 0.76521 0.0
C93 C 0.20223 -0.00259 0.71739 0.0
C94 C 0.29751 0.97734 0.85814 0.0
C95 C 0.27495 0.93693 0.62596 0.0
C96 C 0.17819 0.75267 0.70576 0.0
C97 C 0.35927 0.90587 0.77838 0.0
O98 O 0.10158 0.83398 0.72178 0.0
O99 O 0.25219 0.01479 0.74269 0.0
O100 O 0.24771 0.93171 0.84818 0.0
O101 O 0.23001 0.88815 0.62755 0.0
O102 O 0.20141 0.77734 0.75027 0.0
O103 O 0.35929 0.93888 0.74769 0.0
O104 O 0.16366 0.7772 0.67376 0.0
O105 O 0.30353 0.97558 0.66448 0.0
O106 O 0.31716 0.87903 0.80201 0.0
O107 O 0.17209 0.94789 0.68774 0.0
O108 O 0.13537 0.83076 0.79795 0.0
O109 O 0.32738 -0.00187 0.82466 0.0
Sc110 Sc 0.56679 0.71429 0.68786 0.0
Sc111 Sc 0.62195 0.62782 0.7288 0.0
Sc112 Sc 0.68235 0.77433 0.78608 0.0
O113 O 0.62393 0.70507 0.73393 0.0
C114 C 0.68446 0.83841 0.69837 0.0
C115 C 0.60403 0.64587 0.61546 0.0
C116 C 0.75819 0.71694 0.7578 0.0
C117 C 0.48743 0.58014 0.70039 0.0
C118 C 0.56683 0.78101 0.78561 0.0
C119 C 0.63639 0.66976 0.84587 0.0
O120 O 0.62975 0.80506 0.6835 0.0
O121 O 0.61479 0.61969 0.64808 0.0
O122 O 0.75273 0.75657 0.78193 0.0
O123 O 0.49603 0.62657 0.68468 0.0
O124 O 0.62169 0.80432 0.79858 0.0
O125 O 0.62811 0.63127 0.80933 0.0
O126 O 0.53758 0.74057 0.7487 0.0
O127 O 0.52861 0.57538 0.72215 0.0
O128 O 0.65338 0.72284 0.84232 0.0
O129 O 0.59098 0.68515 0.62511 0.0
O130 O 0.71328 0.82864 0.73164 0.0
O131 O 0.71482 0.66972 0.73351 0.0
H132 H 0.28187 0.91208 0.92955 0.0
H133 H 0.37497 0.09085 0.90367 0.0
H134 H 0.41283 0.12533 0.9927 0.0
H135 H 0.40873 0.10465 0.07755 0.0
H136 H 0.31254 0.92551 0.10255 0.0
H137 H 0.28852 0.8906 0.01341 0.0
C138 C 0.31049 0.95867 0.94342 0.0
C139 C 0.32426 -0.00071 0.91065 0.0
C140 C 0.33198 0.97773 0.99408 0.0
C141 C 0.36307 0.05914 0.92855 0.0
C142 C 0.38471 0.07865 0.97925 0.0
C143 C 0.38352 0.05784 0.06352 0.0
C144 C 0.36133 0.01768 0.09649 0.0
C145 C 0.36806 0.03837 0.01236 0.0
C146 C 0.32991 0.95725 0.07798 0.0
C147 C 0.31552 0.93736 0.02701 0.0
H148 H 0.68875 0.63455 0.57858 0.0
H149 H 0.52617 0.62841 0.53614 0.0
H150 H 0.54071 0.62978 0.45027 0.0
H151 H 0.60699 0.64854 0.39023 0.0
H152 H 0.77245 0.66038 0.43404 0.0
H153 H 0.7494 0.64058 0.51566 0.0
C154 C 0.65585 0.63166 0.55013 0.0
C155 C 0.60681 0.63176 0.56336 0.0
C156 C 0.66557 0.63475 0.50111 0.0
C157 C 0.56455 0.62873 0.52651 0.0
C158 C 0.57295 0.62983 0.47751 0.0
C159 C 0.63743 0.64567 0.41733 0.0
C160 C 0.69177 0.65725 0.40639 0.0
C161 C 0.6245 0.63541 0.46477 0.0
C162 C 0.73071 0.65299 0.44187 0.0
C163 C 0.7176 0.64148 0.48862 0.0
H164 H 0.89107 0.26094 0.04362 0.0
H165 H 0.06715 0.39194 0.11421 0.0
H166 H 0.09403 0.41371 0.03408 0.0
H167 H 0.07116 0.38849 0.94419 0.0
H168 H 0.89651 0.25824 0.87174 0.0
H169 H 0.86508 0.24395 0.95245 0.0
C170 C 0.93516 0.29467 0.04153 0.0
C171 C 0.97724 0.3239 0.08504 0.0
C172 C 0.95063 0.30704 0.99504 0.0
C173 C 0.03392 0.36817 0.08154 0.0
C174 C 0.04947 0.38072 0.03564 0.0
C175 C 0.02595 0.35762 0.94611 0.0
C176 C 0.98627 0.32394 0.90245 0.0
C177 C 0.00869 0.34934 0.99225 0.0
C178 C 0.92769 0.28471 0.90506 0.0
C179 C 0.90996 0.27623 0.95115 0.0
H180 H 0.30633 0.95632 0.40203 0.0
H181 H 0.39404 0.14086 0.46307 0.0
H182 H 0.37975 0.11743 0.54558 0.0
H183 H 0.3391 0.04501 0.60063 0.0
H184 H 0.2465 0.86026 0.54002 0.0
H185 H 0.26636 0.88329 0.45785 0.0
C186 C 0.32265 0.9914 0.43341 0.0
C187 C 0.35118 0.05035 0.42595 0.0
C188 C 0.31342 0.97762 0.48116 0.0
C189 C 0.37158 0.0951 0.46729 0.0
C190 C 0.36357 0.08178 0.51472 0.0
C191 C 0.32387 0.00968 0.56962 0.0
C192 C 0.29155 0.95092 0.57682 0.0
C193 C 0.33415 0.02324 0.52213 0.0
C194 C 0.27148 0.90589 0.53579 0.0
C195 C 0.28274 0.91905 0.48865 0.0
H196 H 0.62145 0.72909 0.92305 0.0
H197 H 0.63749 0.57759 0.8819 0.0
H198 H 0.64563 0.5654 0.96863 0.0
H199 H 0.66179 0.60589 0.05598 0.0
H200 H 0.65088 0.76006 0.09802 0.0
H201 H 0.62626 0.76286 0.01038 0.0
C202 C 0.62614 0.69294 0.93289 0.0
C203 C 0.63019 0.65496 0.89613 0.0
C204 C 0.63213 0.68713 0.98278 0.0
C205 C 0.6347 0.60759 0.9094 0.0
C206 C 0.63969 0.60087 0.95899 0.0
C207 C 0.6534 0.63983 0.04598 0.0
C208 C 0.65931 0.68357 0.08316 0.0
C209 C 0.64063 0.64168 0.99597 0.0
C210 C 0.64688 0.72627 0.06997 0.0
C211 C 0.63323 0.72798 0.01996 0.0
H212 H 0.00237 0.25054 0.40385 0.0
H213 H 0.02422 0.42274 0.43258 0.0
H214 H 0.03528 0.4217 0.52196 0.0
H215 H 0.02585 0.36527 0.59021 0.0
H216 H 0.00174 0.19186 0.559 0.0
H217 H 0.00321 0.19899 0.47169 0.0
C218 C 0.01165 0.28852 0.43006 0.0
C219 C 0.01312 0.33672 0.41277 0.0
C220 C 0.01544 0.28637 0.48038 0.0
C221 C 0.02416 0.38574 0.44599 0.0
C222 C 0.02933 0.3846 0.49672 0.0
C223 C 0.02059 0.32919 0.56398 0.0
C224 C 0.01243 0.27772 0.58012 0.0
C225 C 0.02254 0.33403 0.51405 0.0
C226 C 0.00731 0.23155 0.5467 0.0
C227 C 0.00857 0.23572 0.49707 0.0
H228 H 0.552 0.20612 0.24087 0.0
H229 H 0.54476 0.06494 0.31038 0.0
H230 H 0.63203 0.0782 0.2788 0.0
H231 H 0.71145 0.13183 0.23328 0.0
H232 H 0.72004 0.27356 0.16437 0.0
H233 H 0.62952 0.2568 0.1917 0.0
C234 C 0.57061 0.17941 0.25006 0.0
C235 C 0.54357 0.13608 0.27937 0.0
C236 C 0.61932 0.18578 0.23008 0.0
C237 C 0.56619 0.09978 0.28922 0.0
C238 C 0.61535 0.10669 0.27046 0.0
C239 C 0.69191 0.15699 0.2222 0.0
C240 C 0.72111 0.20231 0.19527 0.0
C241 C 0.64187 0.14911 0.24042 0.0
C242 C 0.6971 0.23703 0.18353 0.0
C243 C 0.64618 0.22833 0.20018 0.0
H244 H 0.53829 0.49687 0.18617 0.0
H245 H 0.69033 0.48153 0.22299 0.0
H246 H 0.62821 0.37746 0.2253 0.0
H247 H 0.53143 0.29349 0.22474 0.0
H248 H 0.3784 0.30588 0.18571 0.0
H249 H 0.44007 0.40841 0.17541 0.0
C250 C 0.55761 0.4705 0.19435 0.0
C251 C 0.61862 0.49681 0.20508 0.0
C252 C 0.52161 0.41042 0.19512 0.0
C253 C 0.64338 0.46219 0.21473 0.0
C254 C 0.60799 0.40276 0.21618 0.0
C255 C 0.51173 0.31852 0.21314 0.0
C256 C 0.45098 0.29308 0.2064 0.0
C257 C 0.54721 0.37684 0.2075 0.0
C258 C 0.42534 0.32505 0.19085 0.0
C259 C 0.46053 0.38361 0.18545 0.0
H260 H 0.90437 0.45781 0.3412 0.0
H261 H 0.98294 0.48998 0.20978 0.0
H262 H 0.96883 0.57314 0.20526 0.0
H263 H 0.92333 0.62834 0.23232 0.0
H264 H 0.84368 0.59672 0.36284 0.0
H265 H 0.87023 0.52229 0.37473 0.0
C266 C 0.91892 0.4834 0.31187 0.0
C267 C 0.94356 0.46704 0.27532 0.0
C268 C 0.91046 0.53107 0.30932 0.0
C269 C 0.96337 0.50132 0.23814 0.0
C270 C 0.95523 0.54882 0.23543 0.0
C271 C 0.91271 0.6058 0.26386 0.0
C272 C 0.88093 0.61698 0.29624 0.0
C273 C 0.92723 0.56282 0.26989 0.0
C274 C 0.86818 0.58856 0.33746 0.0
C275 C 0.88286 0.54574 0.34397 0.0
H276 H 0.04422 0.48038 0.69528 0.0
H277 H 0.19574 0.52998 0.80443 0.0
H278 H 0.24168 0.62989 0.78729 0.0
H279 H 0.23591 0.7048 0.74733 0.0
H280 H 0.08199 0.65992 0.64406 0.0
H281 H 0.04129 0.55584 0.65076 0.0
C282 C 0.08728 0.513 0.7154 0.0
C283 C 0.11592 0.49754 0.75185 0.0
C284 C 0.11351 0.57095 0.70565 0.0
C285 C 0.17206 0.54048 0.77692 0.0
C286 C 0.19868 0.59765 0.76683 0.0
C287 C 0.19389 0.6721 0.72537 0.0
C288 C 0.16182 0.69017 0.69548 0.0
C289 C 0.16945 0.61348 0.73193 0.0
C290 C 0.10783 0.64725 0.66694 0.0
C291 C 0.08412 0.58789 0.67159 0.0
H292 H 0.36724 0.82369 0.82442 0.0
H293 H 0.46596 0.97102 0.75191 0.0
H294 H 0.54674 0.95261 0.75908 0.0
H295 H 0.58288 0.88612 0.77467 0.0
H296 H 0.47973 0.7331 0.83853 0.0
H297 H 0.40795 0.76327 0.84788 0.0
C298 C 0.40672 0.85232 0.81082 0.0
C299 C 0.41011 0.89798 0.78689 0.0
C300 C 0.45246 0.84071 0.81402 0.0
C301 C 0.46174 0.93483 0.76966 0.0
C302 C 0.50813 0.92457 0.77397 0.0
C303 C 0.54585 0.86097 0.79253 0.0
C304 C 0.53655 0.80828 0.80676 0.0
C305 C 0.50321 0.87659 0.79468 0.0
C306 C 0.48778 0.77447 0.8283 0.0
C307 C 0.4465 0.79126 0.83291 0.0
H308 H 0.21728 0.40848 0.67216 0.0
H309 H 0.27169 0.30798 0.75251 0.0
H310 H 0.37389 0.37599 0.74619 0.0
H311 H 0.44774 0.47301 0.72971 0.0
H312 H 0.3901 0.57462 0.65314 0.0
H313 H 0.28921 0.49735 0.64623 0.0
C314 C 0.2515 0.40043 0.68658 0.0
C315 C 0.23775 0.35373 0.71244 0.0
C316 C 0.30959 0.44087 0.68476 0.0
C317 C 0.28175 0.34344 0.73172 0.0
C318 C 0.34007 0.38286 0.72884 0.0
C319 C 0.41314 0.47797 0.7111 0.0
C320 C 0.42666 0.53028 0.69304 0.0
C321 C 0.35465 0.4333 0.70749 0.0
C322 C 0.38122 0.53549 0.66829 0.0
C323 C 0.32333 0.49116 0.66403 0.0
H324 H 0.15814 0.09806 0.24545 0.0
H325 H 0.29094 0.26178 0.33627 0.0
H326 H 0.2236 0.29925 0.32963 0.0
H327 H 0.13155 0.28927 0.28967 0.0
H328 H 0.00301 0.12765 0.19315 0.0
H329 H 0.06539 0.08631 0.20911 0.0
C330 C 0.17236 0.1418 0.26448 0.0
C331 C 0.22993 0.17733 0.29098 0.0
C332 C 0.13479 0.16399 0.25814 0.0
C333 C 0.24697 0.23337 0.31596 0.0
C334 C 0.20872 0.25508 0.31143 0.0
C335 C 0.11698 0.24494 0.27202 0.0
C336 C 0.06265 0.21194 0.23958 0.0
C337 C 0.15336 0.22152 0.2811 0.0
C338 C 0.04469 0.15444 0.21758 0.0
C339 C 0.0802 0.13059 0.22701 0.0
H340 H 0.98016 0.87622 0.28111 0.0
H341 H 0.92405 0.79562 0.12708 0.0
H342 H 0.0245 0.85396 0.11257 0.0
H343 H 0.13025 0.91857 0.14682 0.0
H344 H 0.18334 0.98658 0.30331 0.0
H345 H 0.08182 0.94146 0.31396 0.0
C346 C 0.98937 0.8715 0.24408 0.0
C347 C 0.94485 0.83073 0.20548 0.0
C348 C 0.04698 0.90204 0.2368 0.0
C349 C 0.95771 0.82637 0.15762 0.0
C350 C 0.01516 0.85929 0.1494 0.0
C351 C 0.1191 0.92323 0.18304 0.0
C352 C 0.16348 0.95441 0.22444 0.0
C353 C 0.06047 0.89552 0.1892 0.0
C354 C 0.14941 0.96122 0.27127 0.0
C355 C 0.09158 0.93602 0.2773 0.0
H356 H 0.87078 0.09684 0.34273 0.0
H357 H 0.72885 0.05544 0.22722 0.0
H358 H 0.68733 0.9507 0.22857 0.0
H359 H 0.70085 0.87067 0.25307 0.0
H360 H 0.84649 0.91368 0.36622 0.0
H361 H 0.87658 0.01697 0.37549 0.0
C362 C 0.82947 0.06479 0.31943 0.0
C363 C 0.80189 0.08373 0.28608 0.0
C364 C 0.80726 0.00451 0.31901 0.0
C365 C 0.74953 0.042 0.25466 0.0
C366 C 0.7264 0.98192 0.25474 0.0
C367 C 0.73838 0.90247 0.28046 0.0
C368 C 0.77191 0.88426 0.30805 0.0
C369 C 0.7562 0.96255 0.28536 0.0
C370 C 0.82038 0.9263 0.34361 0.0
C371 C 0.83773 0.98562 0.34913 0.0
H372 H 0.04901 0.10618 0.76946 0.0
H373 H 0.21731 0.25137 0.84246 0.0
H374 H 0.26334 0.19578 0.81673 0.0
H375 H 0.25608 0.10854 0.76956 0.0
H376 H 0.08792 0.9668 0.69243 0.0
H377 H 0.04187 0.02047 0.72193 0.0
C378 C 0.0958 0.12584 0.7804 0.0
C379 C 0.12961 0.18322 0.80796 0.0
C380 C 0.12216 0.09507 0.76335 0.0
C381 C 0.19007 0.20731 0.82168 0.0
C382 C 0.21649 0.17583 0.80635 0.0
C383 C 0.20937 0.08944 0.75872 0.0
C384 C 0.17558 0.03359 0.72848 0.0
C385 C 0.18306 0.12027 0.77622 0.0
C386 C 0.11517 0.00983 0.715 0.0
C387 C 0.08869 0.04019 0.73241 0.0
H388 H -0.00652 0.74555 0.70609 0.0
H389 H 0.06314 0.85675 0.84896 0.0
H390 H 0.96425 0.83283 0.8602 0.0
H391 H 0.8585 0.78523 0.82592 0.0
H392 H 0.79088 0.67127 0.6839 0.0
H393 H 0.88847 0.69135 0.67576 0.0
C394 C 0.98687 0.76399 0.73997 0.0
C395 C 0.03526 0.80311 0.77651 0.0
C396 C 0.93035 0.74995 0.74604 0.0
C397 C 0.02633 0.82626 0.82048 0.0
C398 C 0.96993 0.81296 0.82665 0.0
C399 C 0.86524 0.76467 0.79336 0.0
C400 C 0.81749 0.72721 0.75537 0.0
C401 C 0.92169 0.77575 0.78915 0.0
C402 C 0.82673 0.7002 0.7137 0.0
C403 C 0.88257 0.71173 0.70892 0.0
H404 H 0.88428 0.06961 0.65443 0.0
H405 H 0.81782 0.14187 0.75936 0.0
H406 H 0.73211 0.04426 0.75487 0.0
H407 H 0.68518 0.93673 0.73126 0.0
H408 H 0.75692 0.86536 0.6317 0.0
H409 H 0.83119 0.96453 0.62294 0.0
C410 C 0.85077 0.06421 0.67598 0.0
C411 C 0.85797 0.11255 0.70809 0.0
C412 C 0.80261 0.00814 0.67394 0.0
C413 C 0.81352 0.10517 0.73478 0.0
C414 C 0.76465 0.04939 0.73231 0.0
C415 C 0.71588 0.9433 0.70627 0.0
C416 C 0.71575 0.89464 0.68154 0.0
C417 C 0.75988 0.00032 0.70338 0.0
C418 C 0.75617 0.90271 0.65026 0.0
C419 C 0.79885 0.95922 0.64579 0.0
loop_
_geom_bond_atom_site_label_1
_geom_bond_atom_site_label_2
_geom_bond_distance
_geom_bond_site_symmetry_2
_ccdc_geom_bond_type
Sc0 O3 2.025 . S
Sc0 O10 2.105 . S
Sc0 O13 2.105 . S
Sc0 O16 2.105 . S
Sc0 O19 2.105 . S
Sc1 O3 2.043 . S
Sc1 O11 2.105 1_545 S
Sc1 O15 2.103 1_545 S
Sc1 O17 2.104 1_545 S
Sc1 O21 2.103 . S
Sc2 O3 2.025 . S
Sc2 O12 2.105 . S
Sc2 O14 2.105 . S
Sc2 O18 2.105 . S
Sc2 O20 2.105 . S
O3 Sc0 2.025 . S
O3 Sc1 2.043 . S
O3 Sc2 2.025 . S
C4 O10 1.268 . S
C4 O20 1.268 . S
C5 O11 1.268 1_545 S
C5 O19 1.268 . S
C6 O12 1.268 . S
C6 O21 1.268 . S
C7 O13 1.268 1_565 S
C7 O17 1.268 . S
C8 O14 1.268 . S
C8 O16 1.268 . S
C9 O15 1.268 1_545 S
C9 O18 1.268 . S
O10 Sc0 2.105 . S
O10 C4 1.268 . S
O11 Sc1 2.105 1_565 S
O11 C5 1.268 1_565 S
O12 Sc2 2.105 . S
O12 C6 1.268 . S
O13 Sc0 2.105 . S
O13 C7 1.268 1_545 S
O14 Sc2 2.105 . S
O14 C8 1.268 . S
O15 Sc1 2.103 1_565 S
O15 C9 1.268 1_565 S
O16 Sc0 2.105 . S
O16 C8 1.268 . S
O17 Sc1 2.104 1_565 S
O17 C7 1.268 . S
O18 Sc2 2.105 . S
O18 C9 1.268 . S
O19 Sc0 2.105 . S
O19 C5 1.268 . S
O20 Sc2 2.105 . S
O20 C4 1.268 . S
O21 Sc1 2.103 . S
O21 C6 1.268 . S
Sc22 O25 2.025 . S
Sc22 O32 2.105 . S
Sc22 O35 2.105 . S
Sc22 O38 2.105 . S
Sc22 O41 2.105 . S
Sc23 O25 2.025 . S
Sc23 O33 2.105 . S
Sc23 O37 2.105 . S
Sc23 O39 2.105 . S
Sc23 O43 2.105 . S
Sc24 O25 2.025 . S
Sc24 O34 2.105 . S
Sc24 O36 2.105 . S
Sc24 O40 2.105 . S
Sc24 O42 2.105 . S
O25 Sc22 2.025 . S
O25 Sc23 2.025 . S
O25 Sc24 2.025 . S
C26 O32 1.268 . S
C26 O42 1.268 . S
C27 O33 1.268 . S
C27 O41 1.268 . S
C28 O34 1.268 . S
C28 O43 1.268 . S
C29 O35 1.268 . S
C29 O39 1.268 . S
C30 O36 1.268 . S
C30 O38 1.268 . S
C31 O37 1.268 . S
C31 O40 1.268 . S
O32 Sc22 2.105 . S
O32 C26 1.268 . S
O33 Sc23 2.105 . S
O33 C27 1.268 . S
O34 Sc24 2.105 . S
O34 C28 1.268 . S
O35 Sc22 2.105 . S
O35 C29 1.268 . S
O36 Sc24 2.105 . S
O36 C30 1.268 . S
O37 Sc23 2.105 . S
O37 C31 1.268 . S
O38 Sc22 2.105 . S
O38 C30 1.268 . S
O39 Sc23 2.105 . S
O39 C29 1.268 . S
O40 Sc24 2.105 . S
O40 C31 1.268 . S
O41 Sc22 2.105 . S
O41 C27 1.268 . S
O42 Sc24 2.105 . S
O42 C26 1.268 . S
O43 Sc23 2.105 . S
O43 C28 1.268 . S
Sc44 O47 2.025 . S
Sc44 O54 2.105 . S
Sc44 O57 2.105 . S
Sc44 O60 2.105 . S
Sc44 O63 2.105 . S
Sc45 O47 2.015 1_455 S
Sc45 O55 2.103 1_455 S
Sc45 O59 2.108 . S
Sc45 O61 2.123 . S
Sc45 O65 2.088 1_455 S
Sc46 O47 2.025 . S
Sc46 O56 2.105 . S
Sc46 O58 2.105 . S
Sc46 O62 2.105 . S
Sc46 O64 2.105 . S
O47 Sc44 2.025 . S
O47 Sc45 2.015 1_655 S
O47 Sc46 2.025 . S
C48 O54 1.268 . S
C48 O64 1.268 . S
C49 O55 1.268 . S
C49 O63 1.268 . S
C50 O56 1.268 . S
C50 O65 1.268 . S
C51 O57 1.268 1_455 S
C51 O61 1.268 . S
C52 O58 1.268 . S
C52 O60 1.268 . S
C53 O59 1.268 1_655 S
C53 O62 1.268 . S
O54 Sc44 2.105 . S
O54 C48 1.268 . S
O55 Sc45 2.103 1_655 S
O55 C49 1.268 . S
O56 Sc46 2.105 . S
O56 C50 1.268 . S
O57 Sc44 2.105 . S
O57 C51 1.268 1_655 S
O58 Sc46 2.105 . S
O58 C52 1.268 . S
O59 Sc45 2.108 . S
O59 C53 1.268 1_455 S
O60 Sc44 2.105 . S
O60 C52 1.268 . S
O61 Sc45 2.123 . S
O61 C51 1.268 . S
O62 Sc46 2.105 . S
O62 C53 1.268 . S
O63 Sc44 2.105 . S
O63 C49 1.268 . S
O64 Sc46 2.105 . S
O64 C48 1.268 . S
O65 Sc45 2.088 1_655 S
O65 C50 1.268 . S
Sc66 O69 2.025 . S
Sc66 O76 2.105 . S
Sc66 O79 2.105 . S
Sc66 O82 2.105 . S
Sc66 O85 2.105 . S
Sc67 O69 2.043 . S
Sc67 O77 2.104 1_455 S
Sc67 O81 2.103 . S
Sc67 O83 2.105 1_455 S
Sc67 O87 2.103 1_455 S
Sc68 O69 2.025 . S
Sc68 O78 2.105 . S
Sc68 O80 2.105 . S
Sc68 O84 2.105 . S
Sc68 O86 2.105 . S
O69 Sc66 2.025 . S
O69 Sc67 2.043 . S
O69 Sc68 2.025 . S
C70 O76 1.268 . S
C70 O86 1.268 . S
C71 O77 1.268 . S
C71 O85 1.268 1_655 S
C72 O78 1.268 . S
C72 O87 1.268 1_455 S
C73 O79 1.268 . S
C73 O83 1.268 1_455 S
C74 O80 1.268 . S
C74 O82 1.268 . S
C75 O81 1.268 . S
C75 O84 1.268 . S
O76 Sc66 2.105 . S
O76 C70 1.268 . S
O77 Sc67 2.104 1_655 S
O77 C71 1.268 . S
O78 Sc68 2.105 . S
O78 C72 1.268 . S
O79 Sc66 2.105 . S
O79 C73 1.268 . S
O80 Sc68 2.105 . S
O80 C74 1.268 . S
O81 Sc67 2.103 . S
O81 C75 1.268 . S
O82 Sc66 2.105 . S
O82 C74 1.268 . S
O83 Sc67 2.105 1_655 S
O83 C73 1.268 1_655 S
O84 Sc68 2.105 . S
O84 C75 1.268 . S
O85 Sc66 2.105 . S
O85 C71 1.268 1_455 S
O86 Sc68 2.105 . S
O86 C70 1.268 . S
O87 Sc67 2.103 1_655 S
O87 C72 1.268 1_655 S
Sc88 O91 2.025 . S
Sc88 O98 2.105 . S
Sc88 O101 2.105 . S
Sc88 O104 2.105 . S
Sc88 O107 2.105 . S
Sc89 O91 2.015 1_545 S
Sc89 O99 2.123 . S
Sc89 O103 2.088 1_545 S
Sc89 O105 2.103 1_545 S
Sc89 O109 2.108 . S
Sc90 O91 2.025 . S
Sc90 O100 2.105 . S
Sc90 O102 2.105 . S
Sc90 O106 2.105 . S
Sc90 O108 2.105 . S
O91 Sc88 2.025 . S
O91 Sc89 2.015 1_565 S
O91 Sc90 2.025 . S
C92 O98 1.268 . S
C92 O108 1.268 . S
C93 O99 1.268 . S
C93 O107 1.268 1_545 S
C94 O100 1.268 . S
C94 O109 1.268 1_565 S
C95 O101 1.268 . S
C95 O105 1.268 . S
C96 O102 1.268 . S
C96 O104 1.268 . S
C97 O103 1.268 . S
C97 O106 1.268 . S
O98 Sc88 2.105 . S
O98 C92 1.268 . S
O99 Sc89 2.123 . S
O99 C93 1.268 . S
O100 Sc90 2.105 . S
O100 C94 1.268 . S
O101 Sc88 2.105 . S
O101 C95 1.268 . S
O102 Sc90 2.105 . S
O102 C96 1.268 . S
O103 Sc89 2.088 1_565 S
O103 C97 1.268 . S
O104 Sc88 2.105 . S
O104 C96 1.268 . S
O105 Sc89 2.103 1_565 S
O105 C95 1.268 . S
O106 Sc90 2.105 . S
O106 C97 1.268 . S
O107 Sc88 2.105 . S
O107 C93 1.268 1_565 S
O108 Sc90 2.105 . S
O108 C92 1.268 . S
O109 Sc89 2.108 . S
O109 C94 1.268 1_545 S
Sc110 O113 2.025 . S
Sc110 O120 2.105 . S
Sc110 O123 2.105 . S
Sc110 O126 2.105 . S
Sc110 O129 2.105 . S
Sc111 O113 2.025 . S
Sc111 O121 2.105 . S
Sc111 O125 2.105 . S
Sc111 O127 2.105 . S
Sc111 O131 2.105 . S
Sc112 O113 2.025 . S
Sc112 O122 2.105 . S
Sc112 O124 2.105 . S
Sc112 O128 2.105 . S
Sc112 O130 2.105 . S
O113 Sc110 2.025 . S
O113 Sc111 2.025 . S
O113 Sc112 2.025 . S
C114 O120 1.268 . S
C114 O130 1.268 . S
C115 O121 1.268 . S
C115 O129 1.268 . S
C116 O122 1.268 . S
C116 O131 1.268 . S
C117 O123 1.268 . S
C117 O127 1.268 . S
C118 O124 1.268 . S
C118 O126 1.268 . S
C119 O125 1.268 . S
C119 O128 1.268 . S
O120 Sc110 2.105 . S
O120 C114 1.268 . S
O121 Sc111 2.105 . S
O121 C115 1.268 . S
O122 Sc112 2.105 . S
O122 C116 1.268 . S
O123 Sc110 2.105 . S
O123 C117 1.268 . S
O124 Sc112 2.105 . S
O124 C118 1.268 . S
O125 Sc111 2.105 . S
O125 C119 1.268 . S
O126 Sc110 2.105 . S
O126 C118 1.268 . S
O127 Sc111 2.105 . S
O127 C117 1.268 . S
O128 Sc112 2.105 . S
O128 C119 1.268 . S
O129 Sc110 2.105 . S
O129 C115 1.268 . S
O130 Sc112 2.105 . S
O130 C114 1.268 . S
O131 Sc111 2.105 . S
O131 C116 1.268 . S
H132 C138 0.930 . S
H133 C141 0.930 . S
H134 C142 0.930 . S
H135 C143 0.930 . S
H136 C146 0.930 . S
H137 C147 0.930 . S
C138 H132 0.930 . S
C138 C139 1.355 . S
C138 C140 1.407 1_556 S
C139 C138 1.355 . S
C139 C141 1.419 1_545 S
C140 C138 1.407 1_554 S
C140 C145 1.420 1_545 S
C140 C147 1.415 . S
C141 H133 0.930 . S
C141 C139 1.419 1_565 S
C141 C142 1.362 . S
C142 H134 0.930 . S
C142 C141 1.362 . S
C142 C145 1.414 1_556 S
C143 H135 0.930 . S
C143 C144 1.355 1_565 S
C143 C145 1.417 . S
C144 C143 1.355 1_545 S
C144 C146 1.419 . S
C145 C140 1.420 1_565 S
C145 C142 1.414 1_554 S
C145 C143 1.417 . S
C146 H136 0.930 . S
C146 C144 1.419 . S
C146 C147 1.362 . S
C147 H137 0.930 . S
C147 C140 1.415 . S
C147 C146 1.362 . S
H148 C154 0.930 . S
H149 C157 0.930 . S
H150 C158 0.930 . S
H151 C159 0.930 . S
H152 C162 0.930 . S
H153 C163 0.930 . S
C154 H148 0.930 . S
C154 C155 1.355 . S
C154 C156 1.415 . S
C155 C154 1.355 . S
C155 C157 1.419 . S
C156 C154 1.415 . S
C156 C161 1.425 . S
C156 C163 1.409 . S
C157 H149 0.930 . S
C157 C155 1.419 . S
C157 C158 1.362 . S
C158 H150 0.930 . S
C158 C157 1.362 . S
C158 C161 1.409 . S
C159 H151 0.930 . S
C159 C160 1.355 . S
C159 C161 1.415 . S
C160 C159 1.355 . S
C160 C162 1.419 . S
C161 C156 1.425 . S
C161 C158 1.409 . S
C161 C159 1.415 . S
C162 H152 0.930 . S
C162 C160 1.419 . S
C162 C163 1.362 . S
C163 H153 0.930 . S
C163 C156 1.409 . S
C163 C162 1.362 . S
H164 C170 0.930 . S
H165 C173 0.930 . S
H166 C174 0.930 . S
H167 C175 0.930 . S
H168 C178 0.930 . S
H169 C179 0.930 . S
C170 H164 0.930 . S
C170 C171 1.355 . S
C170 C172 1.415 . S
C171 C170 1.355 . S
C171 C173 1.419 1_655 S
C172 C170 1.415 . S
C172 C177 1.425 1_655 S
C172 C179 1.409 1_554 S
C173 H165 0.930 . S
C173 C171 1.419 1_455 S
C173 C174 1.362 . S
C174 H166 0.930 . S
C174 C173 1.362 . S
C174 C177 1.409 . S
C175 H167 0.930 . S
C175 C176 1.355 . S
C175 C177 1.415 1_556 S
C176 C175 1.355 . S
C176 C178 1.419 1_455 S
C177 C172 1.425 1_455 S
C177 C174 1.409 . S
C177 C175 1.415 1_554 S
C178 H168 0.930 . S
C178 C176 1.419 1_655 S
C178 C179 1.362 . S
C179 H169 0.930 . S
C179 C172 1.409 1_556 S
C179 C178 1.362 . S
H180 C186 0.930 . S
H181 C189 0.930 . S
H182 C190 0.930 . S
H183 C191 0.930 . S
H184 C194 0.930 . S
H185 C195 0.930 . S
C186 H180 0.930 . S
C186 C187 1.355 1_565 S
C186 C188 1.415 . S
C187 C186 1.355 1_545 S
C187 C189 1.419 . S
C188 C186 1.415 . S
C188 C193 1.425 1_565 S
C188 C195 1.409 . S
C189 H181 0.930 . S
C189 C187 1.419 . S
C189 C190 1.362 . S
C190 H182 0.930 . S
C190 C189 1.362 . S
C190 C193 1.409 . S
C191 H183 0.930 . S
C191 C192 1.355 1_545 S
C191 C193 1.415 . S
C192 C191 1.355 1_565 S
C192 C194 1.419 . S
C193 C188 1.425 1_545 S
C193 C190 1.409 . S
C193 C191 1.415 . S
C194 H184 0.930 . S
C194 C192 1.419 . S
C194 C195 1.362 . S
C195 H185 0.930 . S
C195 C188 1.409 . S
C195 C194 1.362 . S
H196 C202 0.930 . S
H197 C205 0.930 . S
H198 C206 0.930 . S
H199 C207 0.930 . S
H200 C210 0.930 . S
H201 C211 0.930 1_556 S
C202 H196 0.930 . S
C202 C203 1.355 . S
C202 C204 1.415 . S
C203 C202 1.355 . S
C203 C205 1.419 . S
C204 C202 1.415 . S
C204 C209 1.427 . S
C204 C211 1.409 1_556 S
C205 H197 0.930 . S
C205 C203 1.419 . S
C205 C206 1.362 . S
C206 H198 0.930 . S
C206 C205 1.362 . S
C206 C209 1.414 . S
C207 H199 0.930 . S
C207 C208 1.355 . S
C207 C209 1.408 1_554 S
C208 C207 1.355 . S
C208 C210 1.419 . S
C209 C204 1.427 . S
C209 C206 1.414 . S
C209 C207 1.408 1_556 S
C210 H200 0.930 . S
C210 C208 1.419 . S
C210 C211 1.362 . S
C211 H201 0.930 1_554 S
C211 C204 1.409 1_554 S
C211 C210 1.362 . S
H212 C218 0.930 . S
H213 C221 0.930 . S
H214 C222 0.930 . S
H215 C223 0.930 . S
H216 C226 0.930 . S
H217 C227 0.930 . S
C218 H212 0.930 . S
C218 C219 1.355 . S
C218 C220 1.415 . S
C219 C218 1.355 . S
C219 C221 1.419 1_455 S
C220 C218 1.415 . S
C220 C225 1.425 1_455 S
C220 C227 1.409 . S
C221 H213 0.930 . S
C221 C219 1.419 1_655 S
C221 C222 1.362 . S
C222 H214 0.930 . S
C222 C221 1.362 . S
C222 C225 1.409 . S
C223 H215 0.930 . S
C223 C224 1.355 1_655 S
C223 C225 1.415 . S
C224 C223 1.355 1_455 S
C224 C226 1.419 . S
C225 C220 1.425 1_655 S
C225 C222 1.409 . S
C225 C223 1.415 . S
C226 H216 0.930 . S
C226 C224 1.419 . S
C226 C227 1.362 . S
C227 H217 0.930 . S
C227 C220 1.409 . S
C227 C226 1.362 . S
H228 C234 0.930 . S
H229 C237 0.930 . S
H230 C238 0.930 . S
H231 C239 0.930 . S
H232 C242 0.930 . S
H233 C243 0.930 . S
C234 H228 0.930 . S
C234 C235 1.355 . S
C234 C236 1.415 . S
C235 C234 1.355 . S
C235 C237 1.419 . S
C236 C234 1.415 . S
C236 C241 1.425 . S
C236 C243 1.409 . S
C237 H229 0.930 . S
C237 C235 1.419 . S
C237 C238 1.362 . S
C238 H230 0.930 . S
C238 C237 1.362 . S
C238 C241 1.409 . S
C239 H231 0.930 . S
C239 C240 1.355 . S
C239 C241 1.415 . S
C240 C239 1.355 . S
C240 C242 1.419 . S
C241 C236 1.425 . S
C241 C238 1.409 . S
C241 C239 1.415 . S
C242 H232 0.930 . S
C242 C240 1.419 . S
C242 C243 1.362 . S
C243 H233 0.930 . S
C243 C236 1.409 . S
C243 C242 1.362 . S
H244 C250 0.930 . S
H245 C253 0.930 . S
H246 C254 0.930 . S
H247 C255 0.930 . S
H248 C258 0.930 . S
H249 C259 0.930 . S
C250 H244 0.930 . S
C250 C251 1.355 . S
C250 C252 1.415 . S
C251 C250 1.355 . S
C251 C253 1.419 . S
C252 C250 1.415 . S
C252 C257 1.425 . S
C252 C259 1.409 . S
C253 H245 0.930 . S
C253 C251 1.419 . S
C253 C254 1.362 . S
C254 H246 0.930 . S
C254 C253 1.362 . S
C254 C257 1.409 . S
C255 H247 0.930 . S
C255 C256 1.355 . S
C255 C257 1.415 . S
C256 C255 1.355 . S
C256 C258 1.419 . S
C257 C252 1.425 . S
C257 C254 1.409 . S
C257 C255 1.415 . S
C258 H248 0.930 . S
C258 C256 1.419 . S
C258 C259 1.362 . S
C259 H249 0.930 . S
C259 C252 1.409 . S
C259 C258 1.362 . S
H260 C266 0.930 . S
H261 C269 0.930 . S
H262 C270 0.930 . S
H263 C271 0.930 . S
H264 C274 0.930 . S
H265 C275 0.930 . S
C266 H260 0.930 . S
C266 C267 1.355 . S
C266 C268 1.415 . S
C267 C266 1.355 . S
C267 C269 1.419 . S
C268 C266 1.415 . S
C268 C273 1.425 . S
C268 C275 1.409 . S
C269 H261 0.930 . S
C269 C267 1.419 . S
C269 C270 1.362 . S
C270 H262 0.930 . S
C270 C269 1.362 . S
C270 C273 1.409 . S
C271 H263 0.930 . S
C271 C272 1.355 . S
C271 C273 1.415 . S
C272 C271 1.355 . S
C272 C274 1.419 . S
C273 C268 1.425 . S
C273 C270 1.409 . S
C273 C271 1.415 . S
C274 H264 0.930 . S
C274 C272 1.419 . S
C274 C275 1.362 . S
C275 H265 0.930 . S
C275 C268 1.409 . S
C275 C274 1.362 . S
H276 C282 0.930 . S
H277 C285 0.930 . S
H278 C286 0.930 . S
H279 C287 0.930 . S
H280 C290 0.930 . S
H281 C291 0.930 . S
C282 H276 0.930 . S
C282 C283 1.355 . S
C282 C284 1.415 . S
C283 C282 1.355 . S
C283 C285 1.419 . S
C284 C282 1.415 . S
C284 C289 1.425 . S
C284 C291 1.409 . S
C285 H277 0.930 . S
C285 C283 1.419 . S
C285 C286 1.362 . S
C286 H278 0.930 . S
C286 C285 1.362 . S
C286 C289 1.409 . S
C287 H279 0.930 . S
C287 C288 1.355 . S
C287 C289 1.415 . S
C288 C287 1.355 . S
C288 C290 1.419 . S
C289 C284 1.425 . S
C289 C286 1.409 . S
C289 C287 1.415 . S
C290 H280 0.930 . S
C290 C288 1.419 . S
C290 C291 1.362 . S
C291 H281 0.930 . S
C291 C284 1.409 . S
C291 C290 1.362 . S
H292 C298 0.930 . S
H293 C301 0.930 . S
H294 C302 0.930 . S
H295 C303 0.930 . S
H296 C306 0.930 . S
H297 C307 0.930 . S
C298 H292 0.930 . S
C298 C299 1.355 . S
C298 C300 1.415 . S
C299 C298 1.355 . S
C299 C301 1.419 . S
C300 C298 1.415 . S
C300 C305 1.425 . S
C300 C307 1.409 . S
C301 H293 0.930 . S
C301 C299 1.419 . S
C301 C302 1.362 . S
C302 H294 0.930 . S
C302 C301 1.362 . S
C302 C305 1.409 . S
C303 H295 0.930 . S
C303 C304 1.355 . S
C303 C305 1.415 . S
C304 C303 1.355 . S
C304 C306 1.419 . S
C305 C300 1.425 . S
C305 C302 1.409 . S
C305 C303 1.415 . S
C306 H296 0.930 . S
C306 C304 1.419 . S
C306 C307 1.362 . S
C307 H297 0.930 . S
C307 C300 1.409 . S
C307 C306 1.362 . S
H308 C314 0.930 . S
H309 C317 0.930 . S
H310 C318 0.930 . S
H311 C319 0.930 . S
H312 C322 0.930 . S
H313 C323 0.930 . S
C314 H308 0.930 . S
C314 C315 1.355 . S
C314 C316 1.415 . S
C315 C314 1.355 . S
C315 C317 1.419 . S
C316 C314 1.415 . S
C316 C321 1.425 . S
C316 C323 1.409 . S
C317 H309 0.930 . S
C317 C315 1.419 . S
C317 C318 1.362 . S
C318 H310 0.930 . S
C318 C317 1.362 . S
C318 C321 1.409 . S
C319 H311 0.930 . S
C319 C320 1.355 . S
C319 C321 1.415 . S
C320 C319 1.355 . S
C320 C322 1.419 . S
C321 C316 1.425 . S
C321 C318 1.409 . S
C321 C319 1.415 . S
C322 H312 0.930 . S
C322 C320 1.419 . S
C322 C323 1.362 . S
C323 H313 0.930 . S
C323 C316 1.409 . S
C323 C322 1.362 . S
H324 C330 0.930 . S
H325 C333 0.930 . S
H326 C334 0.930 . S
H327 C335 0.930 . S
H328 C338 0.930 . S
H329 C339 0.930 . S
C330 H324 0.930 . S
C330 C331 1.355 . S
C330 C332 1.415 . S
C331 C330 1.355 . S
C331 C333 1.419 . S
C332 C330 1.415 . S
C332 C337 1.425 . S
C332 C339 1.409 . S
C333 H325 0.930 . S
C333 C331 1.419 . S
C333 C334 1.362 . S
C334 H326 0.930 . S
C334 C333 1.362 . S
C334 C337 1.409 . S
C335 H327 0.930 . S
C335 C336 1.355 . S
C335 C337 1.415 . S
C336 C335 1.355 . S
C336 C338 1.419 . S
C337 C332 1.425 . S
C337 C334 1.409 . S
C337 C335 1.415 . S
C338 H328 0.930 . S
C338 C336 1.419 . S
C338 C339 1.362 . S
C339 H329 0.930 . S
C339 C332 1.409 . S
C339 C338 1.362 . S
H340 C346 0.930 . S
H341 C349 0.930 . S
H342 C350 0.930 . S
H343 C351 0.930 . S
H344 C354 0.930 . S
H345 C355 0.930 . S
C346 H340 0.930 . S
C346 C347 1.355 . S
C346 C348 1.415 1_655 S
C347 C346 1.355 . S
C347 C349 1.419 . S
C348 C346 1.415 1_455 S
C348 C353 1.425 . S
C348 C355 1.409 . S
C349 H341 0.930 . S
C349 C347 1.419 . S
C349 C350 1.362 1_655 S
C350 H342 0.930 . S
C350 C349 1.362 1_455 S
C350 C353 1.409 . S
C351 H343 0.930 . S
C351 C352 1.355 . S
C351 C353 1.415 . S
C352 C351 1.355 . S
C352 C354 1.419 . S
C353 C348 1.425 . S
C353 C350 1.409 . S
C353 C351 1.415 . S
C354 H344 0.930 . S
C354 C352 1.419 . S
C354 C355 1.362 . S
C355 H345 0.930 . S
C355 C348 1.409 . S
C355 C354 1.362 . S
H356 C362 0.930 . S
H357 C365 0.930 . S
H358 C366 0.930 . S
H359 C367 0.930 . S
H360 C370 0.930 . S
H361 C371 0.930 . S
C362 H356 0.930 . S
C362 C363 1.355 . S
C362 C364 1.415 1_545 S
C363 C362 1.355 . S
C363 C365 1.419 . S
C364 C362 1.415 1_565 S
C364 C369 1.425 . S
C364 C371 1.409 . S
C365 H357 0.930 . S
C365 C363 1.419 . S
C365 C366 1.362 1_545 S
C366 H358 0.930 . S
C366 C365 1.362 1_565 S
C366 C369 1.409 . S
C367 H359 0.930 . S
C367 C368 1.355 . S
C367 C369 1.415 . S
C368 C367 1.355 . S
C368 C370 1.419 . S
C369 C364 1.425 . S
C369 C366 1.409 . S
C369 C367 1.415 . S
C370 H360 0.930 . S
C370 C368 1.419 . S
C370 C371 1.362 . S
C371 H361 0.930 . S
C371 C364 1.409 . S
C371 C370 1.362 . S
H372 C378 0.930 . S
H373 C381 0.930 . S
H374 C382 0.930 . S
H375 C383 0.930 . S
H376 C386 0.930 . S
H377 C387 0.930 . S
C378 H372 0.930 . S
C378 C379 1.355 . S
C378 C380 1.415 . S
C379 C378 1.355 . S
C379 C381 1.419 . S
C380 C378 1.415 . S
C380 C385 1.425 . S
C380 C387 1.409 . S
C381 H373 0.930 . S
C381 C379 1.419 . S
C381 C382 1.362 . S
C382 H374 0.930 . S
C382 C381 1.362 . S
C382 C385 1.409 . S
C383 H375 0.930 . S
C383 C384 1.355 . S
C383 C385 1.415 . S
C384 C383 1.355 . S
C384 C386 1.419 . S
C385 C380 1.425 . S
C385 C382 1.409 . S
C385 C383 1.415 . S
C386 H376 0.930 . S
C386 C384 1.419 . S
C386 C387 1.362 . S
C387 H377 0.930 . S
C387 C380 1.409 . S
C387 C386 1.362 . S
H388 C394 0.930 . S
H389 C397 0.930 . S
H390 C398 0.930 . S
H391 C399 0.930 . S
H392 C402 0.930 . S
H393 C403 0.930 . S
C394 H388 0.930 . S
C394 C395 1.355 . S
C394 C396 1.415 1_455 S
C395 C394 1.355 . S
C395 C397 1.419 . S
C396 C394 1.415 1_655 S
C396 C401 1.425 . S
C396 C403 1.409 . S
C397 H389 0.930 . S
C397 C395 1.419 . S
C397 C398 1.362 . S
C398 H390 0.930 . S
C398 C397 1.362 . S
C398 C401 1.409 1_455 S
C399 H391 0.930 . S
C399 C400 1.355 . S
C399 C401 1.415 . S
C400 C399 1.355 . S
C400 C402 1.419 . S
C401 C396 1.425 . S
C401 C398 1.409 1_655 S
C401 C399 1.415 . S
C402 H392 0.930 . S
C402 C400 1.419 . S
C402 C403 1.362 . S
C403 H393 0.930 . S
C403 C396 1.409 . S
C403 C402 1.362 . S
H404 C410 0.930 . S
H405 C413 0.930 . S
H406 C414 0.930 . S
H407 C415 0.930 . S
H408 C418 0.930 . S
H409 C419 0.930 . S
C410 H404 0.930 . S
C410 C411 1.355 . S
C410 C412 1.415 . S
C411 C410 1.355 . S
C411 C413 1.419 . S
C412 C410 1.415 . S
C412 C417 1.425 . S
C412 C419 1.409 1_545 S
C413 H405 0.930 . S
C413 C411 1.419 . S
C413 C414 1.362 . S
C414 H406 0.930 . S
C414 C413 1.362 . S
C414 C417 1.409 . S
C415 H407 0.930 . S
C415 C416 1.355 . S
C415 C417 1.415 1_565 S
C416 C415 1.355 . S
C416 C418 1.419 . S
C417 C412 1.425 . S
C417 C414 1.409 . S
C417 C415 1.415 1_545 S
C418 H408 0.930 . S
C418 C416 1.419 . S
C418 C419 1.362 . S
C419 H409 0.930 . S
C419 C412 1.409 1_565 S
C419 C418 1.362 . S
C139 C94 0.714 1_545 S
C144 C5 0.689 . S
C155 C115 1.366 . S
C160 C28 1.348 . S
C171 C49 2.003 . S
C176 C72 2.092 . S
C187 C9 2.114 . S
C192 C95 2.063 . S
C203 C119 1.339 . S
C208 C29 1.368 . S
C219 C53 0.690 1_455 S
C224 C73 0.717 . S
C235 C6 1.518 . S
C240 C48 1.371 . S
C251 C27 1.307 . S
C256 C4 1.278 . S
C267 C50 1.322 . S
C272 C26 1.275 . S
C283 C75 1.508 . S
C288 C96 1.323 . S
C299 C97 1.330 . S
C304 C118 1.282 . S
C315 C74 1.211 . S
C320 C117 1.288 . S
C331 C8 1.333 . S
C336 C51 1.382 . S
C347 C30 1.323 . S
C352 C7 1.337 . S
C363 C52 1.269 . S
C368 C31 1.352 . S
C379 C70 1.311 . S
C384 C93 1.383 . S
C395 C92 1.315 . S
C400 C116 1.369 . S
C411 C71 1.321 . S
C416 C114 1.278 . S
