# Generated by pormake.
# Topology fst, (5)-cn, num edge types: 1
# Building blocks:
#     Node 0, Type 0, BuildingBlock: XOMCOT_clean_sbu_0, # of connection points: 5
#     Node 1, Type 0, BuildingBlock: XOMCOT_clean_sbu_0, # of connection points: 5
#     Node 2, Type 0, BuildingBlock: XOMCOT_clean_sbu_0, # of connection points: 5
#     Node 3, Type 0, BuildingBlock: XOMCOT_clean_sbu_0, # of connection points: 5
#     Node 4, Type 0, BuildingBlock: XOMCOT_clean_sbu_0, # of connection points: 5
#     Node 5, Type 0, BuildingBlock: XOMCOT_clean_sbu_0, # of connection points: 5
#     Node 6, Type 0, BuildingBlock: XOMCOT_clean_sbu_0, # of connection points: 5
#     Node 7, Type 0, BuildingBlock: XOMCOT_clean_sbu_0, # of connection points: 5
#     Node 8, Type 0, BuildingBlock: XOMCOT_clean_sbu_0, # of connection points: 5
#     Node 9, Type 0, BuildingBlock: XOMCOT_clean_sbu_0, # of connection points: 5
#     Node 10, Type 0, BuildingBlock: XOMCOT_clean_sbu_0, # of connection points: 5
#     Node 11, Type 0, BuildingBlock: XOMCOT_clean_sbu_0, # of connection points: 5
#     Edge 12, Type (0, 0), None
#     Edge 13, Type (0, 0), None
#     Edge 14, Type (0, 0), None
#     Edge 15, Type (0, 0), None
#     Edge 16, Type (0, 0), None
#     Edge 17, Type (0, 0), None
#     Edge 18, Type (0, 0), None
#     Edge 19, Type (0, 0), None
#     Edge 20, Type (0, 0), None
#     Edge 21, Type (0, 0), None
#     Edge 22, Type (0, 0), None
#     Edge 23, Type (0, 0), None
#     Edge 24, Type (0, 0), None
#     Edge 25, Type (0, 0), None
#     Edge 26, Type (0, 0), None
#     Edge 27, Type (0, 0), None
#     Edge 28, Type (0, 0), None
#     Edge 29, Type (0, 0), None
#     Edge 30, Type (0, 0), None
#     Edge 31, Type (0, 0), None
#     Edge 32, Type (0, 0), None
#     Edge 33, Type (0, 0), None
#     Edge 34, Type (0, 0), None
#     Edge 35, Type (0, 0), None
#     Edge 36, Type (0, 0), None
#     Edge 37, Type (0, 0), None
#     Edge 38, Type (0, 0), None
#     Edge 39, Type (0, 0), None
#     Edge 40, Type (0, 0), None
#     Edge 41, Type (0, 0), None
# Relax obj value: 0.162
# Max RMSD: 0.148
# Mean RMSD: 0.148
data_MOF--net-fst--node1-XOMCOT_clean_sbu_0--edge1-none
_symmetry_space_group_name_H-M    P1
_symmetry_Int_Tables_number       1
_symmetry_cell_setting            triclinic
loop_
_symmetry_equiv_pos_as_xyz
'x, y, z'
_cell_length_a     35.069488
_cell_length_b     35.069811
_cell_length_c     9.5647752
_cell_angle_alpha  89.994464
_cell_angle_beta   90.0107
_cell_angle_gamma 119.99676
loop_
_atom_site_label
_atom_site_type_symbol
_atom_site_fract_x
_atom_site_fract_y
_atom_site_fract_z
_atom_type_partial_charge
Co0 Co 0.14489 0.4243 0.07266 0.0
C1 C 0.15162 0.43796 0.38311 0.0
C2 C 0.13843 0.3736 0.32355 0.0
C3 C 0.13888 0.37557 0.46749 0.0
N4 N 0.14665 0.41275 0.27048 0.0
N5 N 0.14719 0.41604 0.50363 0.0
H6 H 0.15683 0.47089 0.37833 0.0
H7 H 0.13125 0.34496 0.26175 0.0
C8 C 0.04888 0.35611 1.00265 0.0
O9 O 0.05576 0.35826 0.86756 0.0
N10 N 0.14399 0.4356 0.87262 0.0
C11 C 0.15608 0.47535 0.81488 0.0
C12 C 0.15782 0.47288 0.67261 0.0
C13 C 0.1408 0.40989 0.76238 0.0
N14 N 0.14814 0.43182 0.63988 0.0
C15 C 0.16766 0.51267 0.14352 0.0
C16 C 0.09212 0.50701 0.03316 0.0
C17 C 0.12901 0.54872 0.0536 0.0
C18 C 0.16638 0.55126 0.11652 0.0
C19 C 0.09455 0.46927 0.06271 0.0
N20 N 0.13287 0.47228 0.10961 0.0
H21 H 0.19814 0.5156 0.18025 0.0
H22 H 0.06707 0.43829 0.03149 0.0
H23 H 0.1656 0.50541 0.87052 0.0
H24 H 0.13426 0.37641 0.77192 0.0
O25 O 0.20813 0.4581 0.06418 0.0
O26 O 0.16889 0.38584 0.03317 0.0
O27 O 0.08001 0.37952 0.08714 0.0
C28 C 0.20739 0.42137 0.03973 0.0
H29 H 0.13263 0.3492 0.53915 0.0
H30 H 0.16712 0.49972 0.59986 0.0
H31 H 0.06272 0.50347 0.98412 0.0
H32 H 0.19524 0.58282 0.13827 0.0
Co33 Co 0.73804 0.13615 0.07263 0.0
C34 C 0.73112 0.14289 0.38308 0.0
C35 C 0.78223 0.12961 0.32355 0.0
C36 C 0.78073 0.13008 0.46749 0.0
N37 N 0.75133 0.13788 0.27046 0.0
N38 N 0.7486 0.13845 0.50361 0.0
H39 H 0.70343 0.14816 0.3783 0.0
H40 H 0.80367 0.12239 0.26175 0.0
C41 C 0.71014 0.04013 1.00249 0.0
O42 O 0.71471 0.047 0.86737 0.0
N43 N 0.72585 0.13527 0.87259 0.0
C44 C 0.69821 0.14738 0.81484 0.0
C45 C 0.70242 0.14913 0.67258 0.0
C46 C 0.74837 0.13207 0.76237 0.0
N47 N 0.73379 0.13943 0.63986 0.0
C48 C 0.67244 0.15892 0.14346 0.0
C49 C 0.60256 0.08339 0.03306 0.0
C50 C 0.59775 0.12028 0.0535 0.0
C51 C 0.63257 0.15764 0.11643 0.0
C52 C 0.64274 0.08581 0.06264 0.0
N53 N 0.67804 0.12413 0.10956 0.0
H54 H 0.69999 0.18939 0.1802 0.0
H55 H 0.64623 0.05833 0.03146 0.0
H56 H 0.67767 0.15691 0.87048 0.0
H57 H 0.77528 0.1255 0.77193 0.0
O58 O 0.76748 0.19939 0.06421 0.0
O59 O 0.8005 0.16015 0.03319 0.0
O60 O 0.71796 0.07126 0.08706 0.0
C61 C 0.80346 0.19865 0.03976 0.0
H62 H 0.80082 0.1238 0.53915 0.0
H63 H 0.68489 0.15843 0.59981 0.0
H64 H 0.5767 0.05399 0.98402 0.0
H65 H 0.62986 0.1865 0.13818 0.0
Co66 Co 0.61927 0.72929 0.07264 0.0
C67 C 0.6056 0.72238 0.38309 0.0
C68 C 0.67001 0.77344 0.32354 0.0
C69 C 0.66804 0.77194 0.46748 0.0
N70 N 0.63084 0.74257 0.27047 0.0
N71 N 0.62754 0.73985 0.50361 0.0
H72 H 0.57264 0.69473 0.37832 0.0
H73 H 0.69868 0.79485 0.26173 0.0
C74 C 0.68742 0.70141 1.00253 0.0
O75 O 0.68516 0.70603 0.86741 0.0
N76 N 0.60796 0.71711 0.87261 0.0
C77 C 0.56821 0.68948 0.81486 0.0
C78 C 0.57067 0.69369 0.6726 0.0
C79 C 0.63368 0.73962 0.76237 0.0
N80 N 0.61174 0.72505 0.63987 0.0
C81 C 0.53091 0.66368 0.14347 0.0
C82 C 0.53657 0.59381 0.03308 0.0
C83 C 0.49486 0.589 0.05352 0.0
C84 C 0.49232 0.62381 0.11645 0.0
C85 C 0.57431 0.63399 0.06265 0.0
N86 N 0.5713 0.66929 0.10957 0.0
H87 H 0.52798 0.69123 0.1802 0.0
H88 H 0.60529 0.63748 0.03145 0.0
H89 H 0.53814 0.66895 0.87051 0.0
H90 H 0.66717 0.76653 0.77193 0.0
O91 O 0.58547 0.75873 0.06423 0.0
O92 O 0.65773 0.79175 0.0332 0.0
O93 O 0.66407 0.7092 0.08707 0.0
C94 C 0.6222 0.79472 0.03979 0.0
H95 H 0.69443 0.79202 0.53914 0.0
H96 H 0.54383 0.67616 0.59983 0.0
H97 H 0.54011 0.56795 0.98404 0.0
H98 H 0.46075 0.6211 0.13819 0.0
Co99 Co 0.9074 0.61053 0.07257 0.0
C100 C 0.90064 0.59685 0.38302 0.0
C101 C 0.91399 0.66127 0.32343 0.0
C102 C 0.91352 0.6593 0.46737 0.0
N103 N 0.90568 0.62209 0.27038 0.0
N104 N 0.9051 0.61879 0.50353 0.0
H105 H 0.89533 0.56389 0.37827 0.0
H106 H 0.92124 0.68993 0.2616 0.0
C107 C 1.00342 0.6787 1.00251 0.0
O108 O 0.99653 0.67652 0.8674 0.0
N109 N 0.90827 0.59922 0.87254 0.0
C110 C 0.89615 0.55946 0.81482 0.0
C111 C 0.89441 0.56193 0.67255 0.0
C112 C 0.91148 0.62493 0.76229 0.0
N113 N 0.90412 0.60299 0.6398 0.0
C114 C 0.88465 0.52216 0.14344 0.0
C115 C 0.96018 0.52782 0.03307 0.0
C116 C 0.92329 0.48611 0.05353 0.0
C117 C 0.88594 0.48357 0.11645 0.0
C118 C 0.95775 0.56556 0.06262 0.0
N119 N 0.91943 0.56255 0.10953 0.0
H120 H 0.85417 0.51923 0.18016 0.0
H121 H 0.98522 0.59654 0.0314 0.0
H122 H 0.88662 0.5294 0.87048 0.0
H123 H 0.91805 0.65842 0.77182 0.0
O124 O 0.84416 0.57673 0.06415 0.0
O125 O 0.8834 0.64899 0.03309 0.0
O126 O 0.97229 0.65531 0.08701 0.0
C127 C 0.8449 0.61346 0.03968 0.0
H128 H 0.91984 0.68569 0.53901 0.0
H129 H 0.8851 0.53509 0.5998 0.0
H130 H 0.98958 0.53136 0.98404 0.0
H131 H 0.85708 0.452 0.1382 0.0
Co132 Co 0.31426 0.8987 0.07252 0.0
C133 C 0.32116 0.89193 0.38298 0.0
C134 C 0.27012 0.9053 0.32336 0.0
C135 C 0.27161 0.90482 0.4673 0.0
N136 N 0.30098 0.89699 0.27033 0.0
N137 N 0.30369 0.89639 0.50348 0.0
H138 H 0.34881 0.88661 0.37824 0.0
H139 H 0.24871 0.91256 0.26152 0.0
C140 C 0.34217 0.99472 1.00224 0.0
O141 O 0.33766 0.98785 0.86711 0.0
N142 N 0.32643 0.89955 0.87249 0.0
C143 C 0.35406 0.88742 0.81479 0.0
C144 C 0.34985 0.88568 0.67252 0.0
C145 C 0.30392 0.90276 0.76223 0.0
N146 N 0.31849 0.89539 0.63976 0.0
C147 C 0.37987 0.87594 0.14343 0.0
C148 C 0.44974 0.95146 0.033 0.0
C149 C 0.45456 0.91458 0.05348 0.0
C150 C 0.41974 0.87722 0.11643 0.0
C151 C 0.40956 0.94904 0.06255 0.0
N152 N 0.37426 0.91073 0.10949 0.0
H153 H 0.35233 0.84547 0.18017 0.0
H154 H 0.40607 0.97652 0.03134 0.0
H155 H 0.37459 0.87789 0.87047 0.0
H156 H 0.27702 0.90936 0.77175 0.0
O157 O 0.28482 0.83546 0.06417 0.0
O158 O 0.25179 0.87468 0.03305 0.0
O159 O 0.33433 0.96358 0.08685 0.0
C160 C 0.24883 0.83619 0.03968 0.0
H161 H 0.25153 0.91114 0.53893 0.0
H162 H 0.36737 0.87636 0.59978 0.0
H163 H 0.4756 0.98086 0.98395 0.0
H164 H 0.42245 0.84837 0.13821 0.0
Co165 Co 0.43301 0.30554 0.0726 0.0
C166 C 0.44668 0.31247 0.38306 0.0
C167 C 0.38229 0.26135 0.32346 0.0
C168 C 0.38426 0.26285 0.4674 0.0
N169 N 0.42145 0.29225 0.27041 0.0
N170 N 0.42475 0.29498 0.50356 0.0
H171 H 0.47962 0.34016 0.3783 0.0
H172 H 0.35364 0.2399 0.26163 0.0
C173 C 0.36486 0.33342 1.00243 0.0
O174 O 0.36713 0.32881 0.86732 0.0
N175 N 0.44432 0.31773 0.87257 0.0
C176 C 0.48407 0.34538 0.81485 0.0
C177 C 0.4816 0.34117 0.67259 0.0
C178 C 0.4186 0.29522 0.76231 0.0
N179 N 0.44054 0.3098 0.63983 0.0
C180 C 0.52138 0.37115 0.1435 0.0
C181 C 0.51571 0.44102 0.03311 0.0
C182 C 0.55742 0.44584 0.05358 0.0
C183 C 0.55996 0.41101 0.11651 0.0
C184 C 0.47797 0.40085 0.06266 0.0
N185 N 0.48098 0.36554 0.10957 0.0
H186 H 0.52431 0.3436 0.18024 0.0
H187 H 0.44699 0.39735 0.03145 0.0
H188 H 0.51413 0.36591 0.87052 0.0
H189 H 0.38512 0.2683 0.77184 0.0
O190 O 0.46681 0.2761 0.0642 0.0
O191 O 0.39456 0.24308 0.03311 0.0
O192 O 0.38821 0.32563 0.087 0.0
C193 C 0.43009 0.24012 0.03972 0.0
H194 H 0.35789 0.24275 0.53904 0.0
H195 H 0.50844 0.3587 0.59985 0.0
H196 H 0.51217 0.46688 0.98407 0.0
H197 H 0.59153 0.41372 0.13827 0.0
Co198 Co 0.61934 0.89864 0.98599 0.0
C199 C 0.60566 0.89187 0.67553 0.0
C200 C 0.6701 0.90529 0.73515 0.0
C201 C 0.66812 0.90479 0.59121 0.0
N202 N 0.63091 0.89695 0.78818 0.0
N203 N 0.6276 0.89634 0.55503 0.0
H204 H 0.57269 0.88652 0.68026 0.0
H205 H 0.69876 0.91256 0.79699 0.0
C206 C 0.68736 0.99466 0.05653 0.0
O207 O 0.68475 0.98782 0.1917 0.0
N208 N 0.60801 0.89946 0.18601 0.0
C209 C 0.56825 0.88733 0.24371 0.0
C210 C 0.57072 0.88559 0.38598 0.0
C211 C 0.63373 0.90268 0.29627 0.0
N212 N 0.61179 0.89531 0.41874 0.0
C213 C 0.53098 0.87593 0.91508 0.0
C214 C 0.53665 0.95145 0.02561 0.0
C215 C 0.49495 0.91457 1.00511 0.0
C216 C 0.4924 0.87722 0.9421 0.0
C217 C 0.5744 0.94902 0.99602 0.0
N218 N 0.57138 0.91071 0.94904 0.0
H219 H 0.52804 0.84546 0.87829 0.0
H220 H 0.60538 0.97649 0.02721 0.0
H221 H 0.53819 0.8778 0.18802 0.0
H222 H 0.66724 0.9093 0.28675 0.0
O223 O 0.5855 0.8354 0.99423 0.0
O224 O 0.65776 0.87458 0.02541 0.0
O225 O 0.6642 0.96352 0.97177 0.0
C226 C 0.62221 0.8361 1.01872 0.0
H227 H 0.69451 0.91112 0.51958 0.0
H228 H 0.54388 0.87628 0.45872 0.0
H229 H 0.5402 0.98085 0.07468 0.0
H230 H 0.46083 0.84837 0.9203 0.0
Co231 Co 0.73812 0.61061 0.98596 0.0
C232 C 0.73124 0.59693 0.67551 0.0
C233 C 0.78218 0.6614 0.7351 0.0
C234 C 0.78071 0.65942 0.59117 0.0
N235 N 0.75137 0.62219 0.78815 0.0
N236 N 0.74869 0.61888 0.555 0.0
H237 H 0.70364 0.56394 0.68025 0.0
H238 H 0.80354 0.69008 0.79695 0.0
C239 C 0.71009 0.67861 0.05657 0.0
O240 O 0.71426 0.67594 0.19175 0.0
N241 N 0.72599 0.59928 0.18599 0.0
C242 C 0.69838 0.55951 0.2437 0.0
C243 C 0.70259 0.56198 0.38597 0.0
C244 C 0.74848 0.625 0.29623 0.0
N245 N 0.73392 0.60306 0.41872 0.0
C246 C 0.67247 0.52226 0.91509 0.0
C247 C 0.60264 0.52793 0.02569 0.0
C248 C 0.59781 0.48623 1.00519 0.0
C249 C 0.63261 0.48368 0.94215 0.0
C250 C 0.64281 0.56568 0.99606 0.0
N251 N 0.6781 0.56266 0.94905 0.0
H252 H 0.70001 0.51932 0.8783 0.0
H253 H 0.64631 0.59665 0.02725 0.0
H254 H 0.67786 0.52945 0.18802 0.0
H255 H 0.77535 0.65852 0.2867 0.0
O256 O 0.76753 0.57677 0.99416 0.0
O257 O 0.8006 0.64903 0.02533 0.0
O258 O 0.7181 0.65548 0.97178 0.0
C259 C 0.80353 0.61348 1.01863 0.0
H260 H 0.80075 0.68582 0.51953 0.0
H261 H 0.68507 0.53514 0.45872 0.0
H262 H 0.57679 0.53148 0.07478 0.0
H263 H 0.62989 0.45211 0.92035 0.0
Co264 Co 0.14491 0.72942 0.98594 0.0
C265 C 0.15169 0.72252 0.67549 0.0
C266 C 0.13823 0.77351 0.73504 0.0
C267 C 0.13873 0.77203 0.59111 0.0
N268 N 0.14659 0.74267 0.78811 0.0
N269 N 0.14721 0.73998 0.55497 0.0
H270 H 0.15706 0.69491 0.68026 0.0
H271 H 0.13094 0.79489 0.79686 0.0
C272 C 0.04888 0.70135 0.05655 0.0
O273 O 0.05572 0.70545 0.19174 0.0
N274 N 0.14411 0.71728 0.18597 0.0
C275 C 0.15626 0.68966 0.24371 0.0
C276 C 0.158 0.69387 0.38597 0.0
C277 C 0.14088 0.73978 0.2962 0.0
N278 N 0.14826 0.72521 0.4187 0.0
C279 C 0.16763 0.66378 0.91511 0.0
C280 C 0.09212 0.59393 0.02567 0.0
C281 C 0.12901 0.58911 1.0052 0.0
C282 C 0.16635 0.62391 0.94218 0.0
C283 C 0.09455 0.6341 0.99604 0.0
N284 N 0.13285 0.6694 0.94905 0.0
H285 H 0.1981 0.69131 0.87832 0.0
H286 H 0.06706 0.6376 0.02718 0.0
H287 H 0.16579 0.66913 0.18805 0.0
H288 H 0.13424 0.76665 0.28664 0.0
O289 O 0.20816 0.75882 0.99417 0.0
O290 O 0.16897 0.79189 0.0253 0.0
O291 O 0.08003 0.70941 0.97174 0.0
C292 C 0.20745 0.79483 1.01863 0.0
H293 H 0.13239 0.79209 0.51945 0.0
H294 H 0.16732 0.67635 0.45874 0.0
H295 H 0.06273 0.56808 0.07476 0.0
H296 H 0.1952 0.62119 0.92039 0.0
Co297 Co 0.43296 0.13621 0.98586 0.0
C298 C 0.44663 0.14295 0.67541 0.0
C299 C 0.38222 0.12963 0.73495 0.0
C300 C 0.3842 0.13011 0.59101 0.0
N301 N 0.42139 0.13791 0.78803 0.0
N302 N 0.42469 0.1385 0.55489 0.0
H303 H 0.47958 0.14824 0.68019 0.0
H304 H 0.35356 0.1224 0.79676 0.0
C305 C 0.36492 0.04018 0.05627 0.0
O306 O 0.36747 0.04703 0.19143 0.0
N307 N 0.44428 0.13536 0.1859 0.0
C308 C 0.48403 0.14747 0.24365 0.0
C309 C 0.48157 0.14922 0.38591 0.0
C310 C 0.41856 0.13215 0.29612 0.0
N311 N 0.4405 0.13951 0.41863 0.0
C312 C 0.52131 0.15893 0.91504 0.0
C313 C 0.51565 0.0834 0.02555 0.0
C314 C 0.55735 0.12029 1.00509 0.0
C315 C 0.5599 0.15764 0.94209 0.0
C316 C 0.4779 0.08584 0.99593 0.0
N317 N 0.48092 0.12415 0.94896 0.0
H318 H 0.52425 0.1894 0.87825 0.0
H319 H 0.44693 0.05836 0.02709 0.0
H320 H 0.5141 0.157 0.188 0.0
H321 H 0.38506 0.12555 0.28656 0.0
O322 O 0.46679 0.19945 0.99418 0.0
O323 O 0.39453 0.16025 0.02526 0.0
O324 O 0.38811 0.07132 0.97156 0.0
C325 C 0.43008 0.19874 1.01863 0.0
H326 H 0.35781 0.12382 0.51935 0.0
H327 H 0.5084 0.15852 0.45868 0.0
H328 H 0.51211 0.054 0.07462 0.0
H329 H 0.59147 0.18649 0.92031 0.0
Co330 Co 0.31416 0.42422 0.98591 0.0
C331 C 0.32108 0.43788 0.67545 0.0
C332 C 0.27001 0.37348 0.73502 0.0
C333 C 0.2715 0.37545 0.59108 0.0
N334 N 0.30089 0.41265 0.78808 0.0
N335 N 0.3036 0.41595 0.55494 0.0
H336 H 0.34874 0.47084 0.68022 0.0
H337 H 0.24858 0.34482 0.79683 0.0
C338 C 0.34218 0.35621 0.05645 0.0
O339 O 0.33798 0.35885 0.19162 0.0
N340 N 0.32632 0.43554 0.18594 0.0
C341 C 0.35396 0.47529 0.24367 0.0
C342 C 0.34975 0.47283 0.38594 0.0
C343 C 0.30382 0.40982 0.29618 0.0
N344 N 0.31839 0.43176 0.41867 0.0
C345 C 0.37979 0.51257 0.91504 0.0
C346 C 0.44965 0.5069 0.0256 0.0
C347 C 0.45447 0.5486 1.00512 0.0
C348 C 0.41966 0.55115 0.94209 0.0
C349 C 0.40947 0.46915 0.99598 0.0
N350 N 0.37418 0.47217 0.949 0.0
H351 H 0.35225 0.5155 0.87824 0.0
H352 H 0.40598 0.43818 0.02715 0.0
H353 H 0.37449 0.50535 0.18801 0.0
H354 H 0.27693 0.37632 0.28663 0.0
O355 O 0.28475 0.45805 0.99417 0.0
O356 O 0.25169 0.3858 0.0253 0.0
O357 O 0.33418 0.37935 0.97167 0.0
C358 C 0.24875 0.42135 1.01864 0.0
H359 H 0.25141 0.34907 0.51942 0.0
H360 H 0.36728 0.49966 0.45869 0.0
H361 H 0.4755 0.50335 0.07469 0.0
H362 H 0.42238 0.58272 0.9203 0.0
Co363 Co 0.90738 0.30541 0.98599 0.0
C364 C 0.90063 0.31233 0.67552 0.0
C365 C 0.91401 0.26128 0.73513 0.0
C366 C 0.91352 0.26277 0.59119 0.0
N367 N 0.9057 0.29215 0.78817 0.0
N368 N 0.90508 0.29485 0.55502 0.0
H369 H 0.8953 0.33997 0.68027 0.0
H370 H 0.92127 0.23987 0.79697 0.0
C371 C 1.00342 0.33348 0.05667 0.0
O372 O 0.99658 0.32941 0.19186 0.0
N373 N 0.90821 0.31756 0.18601 0.0
C374 C 0.89607 0.34519 0.24371 0.0
C375 C 0.89433 0.34098 0.38598 0.0
C376 C 0.91142 0.29506 0.29626 0.0
N377 N 0.90405 0.30963 0.41874 0.0
C378 C 0.88467 0.37105 0.91508 0.0
C379 C 0.96018 0.4409 0.02565 0.0
C380 C 0.9233 0.44572 1.00515 0.0
C381 C 0.88595 0.41092 0.94211 0.0
C382 C 0.95776 0.40073 0.99604 0.0
N383 N 0.91945 0.36543 0.94905 0.0
H384 H 0.8542 0.34352 0.87827 0.0
H385 H 0.98524 0.39723 0.02721 0.0
H386 H 0.88654 0.36572 0.18803 0.0
H387 H 0.91806 0.26818 0.28673 0.0
O388 O 0.84414 0.27601 0.99419 0.0
O389 O 0.88333 0.24294 0.02539 0.0
O390 O 0.97227 0.32541 0.97182 0.0
C391 C 0.84485 0.24001 1.01869 0.0
H392 H 0.91982 0.24269 0.51955 0.0
H393 H 0.88502 0.35851 0.45873 0.0
H394 H 0.98958 0.46675 0.07474 0.0
H395 H 0.8571 0.41364 0.9203 0.0
loop_
_geom_bond_atom_site_label_1
_geom_bond_atom_site_label_2
_geom_bond_distance
_geom_bond_site_symmetry_2
_ccdc_geom_bond_type
Co0 N4 2.148 . S
Co0 N10 2.128 1_554 S
Co0 N20 2.194 . S
Co0 O25 2.351 . S
Co0 O26 2.155 . S
Co0 O27 2.096 1_554 S
C1 N4 1.301 . S
C1 N5 1.328 . S
C1 H6 0.930 . S
C2 C3 1.333 . S
C2 N4 1.317 . S
C2 H7 0.930 . S
C3 C2 1.333 . S
C3 N5 1.350 . S
C3 H29 0.931 . S
N4 Co0 2.148 . S
N4 C1 1.301 . S
N4 C2 1.317 . S
N5 C1 1.328 . S
N5 C3 1.350 . S
H6 C1 0.930 . S
H7 C2 0.930 . S
C8 O9 1.224 . S
C8 O27 1.247 . S
O9 C8 1.224 . S
N10 Co0 2.128 1_556 S
N10 C11 1.355 . S
N10 C13 1.311 . S
C11 N10 1.355 . S
C11 C12 1.363 . S
C11 H23 0.929 . S
C12 C11 1.363 . S
C12 N14 1.375 . S
C12 H30 0.931 . S
C13 N10 1.311 . S
C13 N14 1.347 . S
C13 H24 0.929 . S
N14 C12 1.375 . S
N14 C13 1.347 . S
C15 C18 1.365 . S
C15 N20 1.328 . S
C15 H21 0.929 . S
C16 C17 1.362 . S
C16 C19 1.378 . S
C16 H31 0.929 1_554 S
C17 C16 1.362 . S
C17 C18 1.366 . S
C18 C15 1.365 . S
C18 C17 1.366 . S
C18 H32 0.930 . S
C19 C16 1.378 . S
C19 N20 1.315 . S
C19 H22 0.930 1_554 S
N20 Co0 2.194 . S
N20 C15 1.328 . S
N20 C19 1.315 . S
H21 C15 0.929 . S
H22 C19 0.930 1_556 S
H23 C11 0.929 . S
H24 C13 0.929 . S
O25 Co0 2.351 . S
O25 C28 1.244 . S
O26 Co0 2.155 . S
O26 C28 1.240 . S
O27 Co0 2.096 1_556 S
O27 C8 1.247 . S
C28 O25 1.244 . S
C28 O26 1.240 . S
H29 C3 0.931 . S
H30 C12 0.931 . S
H31 C16 0.929 1_556 S
H32 C18 0.930 . S
Co33 N37 2.148 . S
Co33 N43 2.128 1_554 S
Co33 N53 2.194 . S
Co33 O58 2.351 . S
Co33 O59 2.155 . S
Co33 O60 2.096 1_554 S
C34 N37 1.301 . S
C34 N38 1.328 . S
C34 H39 0.930 . S
C35 C36 1.333 . S
C35 N37 1.317 . S
C35 H40 0.930 . S
C36 C35 1.333 . S
C36 N38 1.350 . S
C36 H62 0.931 . S
N37 Co33 2.148 . S
N37 C34 1.301 . S
N37 C35 1.317 . S
N38 C34 1.328 . S
N38 C36 1.350 . S
H39 C34 0.930 . S
H40 C35 0.930 . S
C41 O42 1.224 . S
C41 O60 1.247 . S
O42 C41 1.224 . S
N43 Co33 2.128 1_556 S
N43 C44 1.355 . S
N43 C46 1.311 . S
C44 N43 1.355 . S
C44 C45 1.363 . S
C44 H56 0.929 . S
C45 C44 1.363 . S
C45 N47 1.375 . S
C45 H63 0.931 . S
C46 N43 1.311 . S
C46 N47 1.347 . S
C46 H57 0.929 . S
N47 C45 1.375 . S
N47 C46 1.347 . S
C48 C51 1.365 . S
C48 N53 1.328 . S
C48 H54 0.929 . S
C49 C50 1.362 . S
C49 C52 1.378 . S
C49 H64 0.929 1_554 S
C50 C49 1.362 . S
C50 C51 1.366 . S
C51 C48 1.365 . S
C51 C50 1.366 . S
C51 H65 0.930 . S
C52 C49 1.378 . S
C52 N53 1.315 . S
C52 H55 0.930 1_554 S
N53 Co33 2.194 . S
N53 C48 1.328 . S
N53 C52 1.315 . S
H54 C48 0.929 . S
H55 C52 0.930 1_556 S
H56 C44 0.929 . S
H57 C46 0.929 . S
O58 Co33 2.351 . S
O58 C61 1.244 . S
O59 Co33 2.155 . S
O59 C61 1.240 . S
O60 Co33 2.096 1_556 S
O60 C41 1.247 . S
C61 O58 1.244 . S
C61 O59 1.240 . S
H62 C36 0.931 . S
H63 C45 0.931 . S
H64 C49 0.929 1_556 S
H65 C51 0.930 . S
Co66 N70 2.148 . S
Co66 N76 2.128 1_554 S
Co66 N86 2.194 . S
Co66 O91 2.351 . S
Co66 O92 2.155 . S
Co66 O93 2.096 1_554 S
C67 N70 1.301 . S
C67 N71 1.328 . S
C67 H72 0.930 . S
C68 C69 1.333 . S
C68 N70 1.317 . S
C68 H73 0.930 . S
C69 C68 1.333 . S
C69 N71 1.350 . S
C69 H95 0.931 . S
N70 Co66 2.148 . S
N70 C67 1.301 . S
N70 C68 1.317 . S
N71 C67 1.328 . S
N71 C69 1.350 . S
H72 C67 0.930 . S
H73 C68 0.930 . S
C74 O75 1.224 . S
C74 O93 1.247 . S
O75 C74 1.224 . S
N76 Co66 2.128 1_556 S
N76 C77 1.355 . S
N76 C79 1.311 . S
C77 N76 1.355 . S
C77 C78 1.363 . S
C77 H89 0.929 . S
C78 C77 1.363 . S
C78 N80 1.375 . S
C78 H96 0.931 . S
C79 N76 1.311 . S
C79 N80 1.347 . S
C79 H90 0.929 . S
N80 C78 1.375 . S
N80 C79 1.347 . S
C81 C84 1.365 . S
C81 N86 1.328 . S
C81 H87 0.929 . S
C82 C83 1.362 . S
C82 C85 1.378 . S
C82 H97 0.929 1_554 S
C83 C82 1.362 . S
C83 C84 1.366 . S
C84 C81 1.365 . S
C84 C83 1.366 . S
C84 H98 0.930 . S
C85 C82 1.378 . S
C85 N86 1.315 . S
C85 H88 0.930 1_554 S
N86 Co66 2.194 . S
N86 C81 1.328 . S
N86 C85 1.315 . S
H87 C81 0.929 . S
H88 C85 0.930 1_556 S
H89 C77 0.929 . S
H90 C79 0.929 . S
O91 Co66 2.351 . S
O91 C94 1.244 . S
O92 Co66 2.155 . S
O92 C94 1.240 . S
O93 Co66 2.096 1_556 S
O93 C74 1.247 . S
C94 O91 1.244 . S
C94 O92 1.240 . S
H95 C69 0.931 . S
H96 C78 0.931 . S
H97 C82 0.929 1_556 S
H98 C84 0.930 . S
Co99 N103 2.148 . S
Co99 N109 2.128 1_554 S
Co99 N119 2.194 . S
Co99 O124 2.351 . S
Co99 O125 2.155 . S
Co99 O126 2.096 1_554 S
C100 N103 1.301 . S
C100 N104 1.328 . S
C100 H105 0.930 . S
C101 C102 1.333 . S
C101 N103 1.317 . S
C101 H106 0.930 . S
C102 C101 1.333 . S
C102 N104 1.350 . S
C102 H128 0.931 . S
N103 Co99 2.148 . S
N103 C100 1.301 . S
N103 C101 1.317 . S
N104 C100 1.328 . S
N104 C102 1.350 . S
H105 C100 0.930 . S
H106 C101 0.930 . S
C107 O108 1.224 . S
C107 O126 1.247 . S
O108 C107 1.224 . S
N109 Co99 2.128 1_556 S
N109 C110 1.355 . S
N109 C112 1.311 . S
C110 N109 1.355 . S
C110 C111 1.363 . S
C110 H122 0.929 . S
C111 C110 1.363 . S
C111 N113 1.375 . S
C111 H129 0.931 . S
C112 N109 1.311 . S
C112 N113 1.347 . S
C112 H123 0.929 . S
N113 C111 1.375 . S
N113 C112 1.347 . S
C114 C117 1.365 . S
C114 N119 1.328 . S
C114 H120 0.929 . S
C115 C116 1.362 . S
C115 C118 1.378 . S
C115 H130 0.929 1_554 S
C116 C115 1.362 . S
C116 C117 1.366 . S
C117 C114 1.365 . S
C117 C116 1.366 . S
C117 H131 0.930 . S
C118 C115 1.378 . S
C118 N119 1.315 . S
C118 H121 0.930 1_554 S
N119 Co99 2.194 . S
N119 C114 1.328 . S
N119 C118 1.315 . S
H120 C114 0.929 . S
H121 C118 0.930 1_556 S
H122 C110 0.929 . S
H123 C112 0.929 . S
O124 Co99 2.351 . S
O124 C127 1.244 . S
O125 Co99 2.155 . S
O125 C127 1.240 . S
O126 Co99 2.096 1_556 S
O126 C107 1.247 . S
C127 O124 1.244 . S
C127 O125 1.240 . S
H128 C102 0.931 . S
H129 C111 0.931 . S
H130 C115 0.929 1_556 S
H131 C117 0.930 . S
Co132 N136 2.148 . S
Co132 N142 2.128 1_554 S
Co132 N152 2.194 . S
Co132 O157 2.351 . S
Co132 O158 2.155 . S
Co132 O159 2.096 1_554 S
C133 N136 1.301 . S
C133 N137 1.328 . S
C133 H138 0.930 . S
C134 C135 1.333 . S
C134 N136 1.317 . S
C134 H139 0.930 . S
C135 C134 1.333 . S
C135 N137 1.350 . S
C135 H161 0.931 . S
N136 Co132 2.148 . S
N136 C133 1.301 . S
N136 C134 1.317 . S
N137 C133 1.328 . S
N137 C135 1.350 . S
H138 C133 0.930 . S
H139 C134 0.930 . S
C140 O141 1.224 . S
C140 O159 1.247 . S
O141 C140 1.224 . S
N142 Co132 2.128 1_556 S
N142 C143 1.355 . S
N142 C145 1.311 . S
C143 N142 1.355 . S
C143 C144 1.363 . S
C143 H155 0.929 . S
C144 C143 1.363 . S
C144 N146 1.375 . S
C144 H162 0.931 . S
C145 N142 1.311 . S
C145 N146 1.347 . S
C145 H156 0.929 . S
N146 C144 1.375 . S
N146 C145 1.347 . S
C147 C150 1.365 . S
C147 N152 1.328 . S
C147 H153 0.929 . S
C148 C149 1.362 . S
C148 C151 1.378 . S
C148 H163 0.929 1_554 S
C149 C148 1.362 . S
C149 C150 1.366 . S
C150 C147 1.365 . S
C150 C149 1.366 . S
C150 H164 0.930 . S
C151 C148 1.378 . S
C151 N152 1.315 . S
C151 H154 0.930 1_554 S
N152 Co132 2.194 . S
N152 C147 1.328 . S
N152 C151 1.315 . S
H153 C147 0.929 . S
H154 C151 0.930 1_556 S
H155 C143 0.929 . S
H156 C145 0.929 . S
O157 Co132 2.351 . S
O157 C160 1.244 . S
O158 Co132 2.155 . S
O158 C160 1.240 . S
O159 Co132 2.096 1_556 S
O159 C140 1.247 . S
C160 O157 1.244 . S
C160 O158 1.240 . S
H161 C135 0.931 . S
H162 C144 0.931 . S
H163 C148 0.929 1_556 S
H164 C150 0.930 . S
Co165 N169 2.148 . S
Co165 N175 2.128 1_554 S
Co165 N185 2.194 . S
Co165 O190 2.351 . S
Co165 O191 2.155 . S
Co165 O192 2.096 1_554 S
C166 N169 1.301 . S
C166 N170 1.328 . S
C166 H171 0.930 . S
C167 C168 1.333 . S
C167 N169 1.317 . S
C167 H172 0.930 . S
C168 C167 1.333 . S
C168 N170 1.350 . S
C168 H194 0.931 . S
N169 Co165 2.148 . S
N169 C166 1.301 . S
N169 C167 1.317 . S
N170 C166 1.328 . S
N170 C168 1.350 . S
H171 C166 0.930 . S
H172 C167 0.930 . S
C173 O174 1.224 . S
C173 O192 1.247 . S
O174 C173 1.224 . S
N175 Co165 2.128 1_556 S
N175 C176 1.355 . S
N175 C178 1.311 . S
C176 N175 1.355 . S
C176 C177 1.363 . S
C176 H188 0.929 . S
C177 C176 1.363 . S
C177 N179 1.375 . S
C177 H195 0.931 . S
C178 N175 1.311 . S
C178 N179 1.347 . S
C178 H189 0.929 . S
N179 C177 1.375 . S
N179 C178 1.347 . S
C180 C183 1.365 . S
C180 N185 1.328 . S
C180 H186 0.929 . S
C181 C182 1.362 . S
C181 C184 1.378 . S
C181 H196 0.929 1_554 S
C182 C181 1.362 . S
C182 C183 1.366 . S
C183 C180 1.365 . S
C183 C182 1.366 . S
C183 H197 0.930 . S
C184 C181 1.378 . S
C184 N185 1.315 . S
C184 H187 0.930 1_554 S
N185 Co165 2.194 . S
N185 C180 1.328 . S
N185 C184 1.315 . S
H186 C180 0.929 . S
H187 C184 0.930 1_556 S
H188 C176 0.929 . S
H189 C178 0.929 . S
O190 Co165 2.351 . S
O190 C193 1.244 . S
O191 Co165 2.155 . S
O191 C193 1.240 . S
O192 Co165 2.096 1_556 S
O192 C173 1.247 . S
C193 O190 1.244 . S
C193 O191 1.240 . S
H194 C168 0.931 . S
H195 C177 0.931 . S
H196 C181 0.929 1_556 S
H197 C183 0.930 . S
Co198 N202 2.148 1_554 S
Co198 N208 2.128 . S
Co198 N218 2.194 1_554 S
Co198 O223 2.351 1_554 S
Co198 O224 2.155 . S
Co198 O225 2.096 . S
C199 N202 1.301 . S
C199 N203 1.328 . S
C199 H204 0.930 . S
C200 C201 1.333 . S
C200 N202 1.317 . S
C200 H205 0.930 . S
C201 C200 1.333 . S
C201 N203 1.350 . S
C201 H227 0.931 . S
N202 Co198 2.148 1_556 S
N202 C199 1.301 . S
N202 C200 1.317 . S
N203 C199 1.328 . S
N203 C201 1.350 . S
H204 C199 0.930 . S
H205 C200 0.930 . S
C206 O207 1.224 . S
C206 O225 1.247 . S
O207 C206 1.224 . S
N208 Co198 2.128 . S
N208 C209 1.355 . S
N208 C211 1.311 . S
C209 N208 1.355 . S
C209 C210 1.363 . S
C209 H221 0.929 . S
C210 C209 1.363 . S
C210 N212 1.375 . S
C210 H228 0.931 . S
C211 N208 1.311 . S
C211 N212 1.347 . S
C211 H222 0.929 . S
N212 C210 1.375 . S
N212 C211 1.347 . S
C213 C216 1.365 . S
C213 N218 1.328 . S
C213 H219 0.929 . S
C214 C215 1.362 1_554 S
C214 C217 1.378 . S
C214 H229 0.929 . S
C215 C214 1.362 1_556 S
C215 C216 1.366 . S
C216 C213 1.365 . S
C216 C215 1.366 . S
C216 H230 0.930 . S
C217 C214 1.378 . S
C217 N218 1.315 1_554 S
C217 H220 0.930 . S
N218 Co198 2.194 1_556 S
N218 C213 1.328 . S
N218 C217 1.315 1_556 S
H219 C213 0.929 . S
H220 C217 0.930 . S
H221 C209 0.929 . S
H222 C211 0.929 . S
O223 Co198 2.351 1_556 S
O223 C226 1.244 . S
O224 Co198 2.155 . S
O224 C226 1.240 1_554 S
O225 Co198 2.096 . S
O225 C206 1.247 . S
C226 O223 1.244 . S
C226 O224 1.240 1_556 S
H227 C201 0.931 . S
H228 C210 0.931 . S
H229 C214 0.929 . S
H230 C216 0.930 . S
Co231 N235 2.148 1_554 S
Co231 N241 2.128 . S
Co231 N251 2.194 1_554 S
Co231 O256 2.351 1_554 S
Co231 O257 2.155 . S
Co231 O258 2.096 . S
C232 N235 1.301 . S
C232 N236 1.328 . S
C232 H237 0.930 . S
C233 C234 1.333 . S
C233 N235 1.317 . S
C233 H238 0.930 . S
C234 C233 1.333 . S
C234 N236 1.350 . S
C234 H260 0.931 . S
N235 Co231 2.148 1_556 S
N235 C232 1.301 . S
N235 C233 1.317 . S
N236 C232 1.328 . S
N236 C234 1.350 . S
H237 C232 0.930 . S
H238 C233 0.930 . S
C239 O240 1.224 . S
C239 O258 1.247 . S
O240 C239 1.224 . S
N241 Co231 2.128 . S
N241 C242 1.355 . S
N241 C244 1.311 . S
C242 N241 1.355 . S
C242 C243 1.363 . S
C242 H254 0.929 . S
C243 C242 1.363 . S
C243 N245 1.375 . S
C243 H261 0.931 . S
C244 N241 1.311 . S
C244 N245 1.347 . S
C244 H255 0.929 . S
N245 C243 1.375 . S
N245 C244 1.347 . S
C246 C249 1.365 . S
C246 N251 1.328 . S
C246 H252 0.929 . S
C247 C248 1.362 1_554 S
C247 C250 1.378 . S
C247 H262 0.929 . S
C248 C247 1.362 1_556 S
C248 C249 1.366 . S
C249 C246 1.365 . S
C249 C248 1.366 . S
C249 H263 0.930 . S
C250 C247 1.378 . S
C250 N251 1.315 1_554 S
C250 H253 0.930 . S
N251 Co231 2.194 1_556 S
N251 C246 1.328 . S
N251 C250 1.315 1_556 S
H252 C246 0.929 . S
H253 C250 0.930 . S
H254 C242 0.929 . S
H255 C244 0.929 . S
O256 Co231 2.351 1_556 S
O256 C259 1.244 . S
O257 Co231 2.155 . S
O257 C259 1.240 1_554 S
O258 Co231 2.096 . S
O258 C239 1.247 . S
C259 O256 1.244 . S
C259 O257 1.240 1_556 S
H260 C234 0.931 . S
H261 C243 0.931 . S
H262 C247 0.929 . S
H263 C249 0.930 . S
Co264 N268 2.148 1_554 S
Co264 N274 2.128 . S
Co264 N284 2.194 1_554 S
Co264 O289 2.351 1_554 S
Co264 O290 2.155 . S
Co264 O291 2.096 . S
C265 N268 1.301 . S
C265 N269 1.328 . S
C265 H270 0.930 . S
C266 C267 1.333 . S
C266 N268 1.317 . S
C266 H271 0.930 . S
C267 C266 1.333 . S
C267 N269 1.350 . S
C267 H293 0.931 . S
N268 Co264 2.148 1_556 S
N268 C265 1.301 . S
N268 C266 1.317 . S
N269 C265 1.328 . S
N269 C267 1.350 . S
H270 C265 0.930 . S
H271 C266 0.930 . S
C272 O273 1.224 . S
C272 O291 1.247 . S
O273 C272 1.224 . S
N274 Co264 2.128 . S
N274 C275 1.355 . S
N274 C277 1.311 . S
C275 N274 1.355 . S
C275 C276 1.363 . S
C275 H287 0.929 . S
C276 C275 1.363 . S
C276 N278 1.375 . S
C276 H294 0.931 . S
C277 N274 1.311 . S
C277 N278 1.347 . S
C277 H288 0.929 . S
N278 C276 1.375 . S
N278 C277 1.347 . S
C279 C282 1.365 . S
C279 N284 1.328 . S
C279 H285 0.929 . S
C280 C281 1.362 1_554 S
C280 C283 1.378 . S
C280 H295 0.929 . S
C281 C280 1.362 1_556 S
C281 C282 1.366 . S
C282 C279 1.365 . S
C282 C281 1.366 . S
C282 H296 0.930 . S
C283 C280 1.378 . S
C283 N284 1.315 1_554 S
C283 H286 0.930 . S
N284 Co264 2.194 1_556 S
N284 C279 1.328 . S
N284 C283 1.315 1_556 S
H285 C279 0.929 . S
H286 C283 0.930 . S
H287 C275 0.929 . S
H288 C277 0.929 . S
O289 Co264 2.351 1_556 S
O289 C292 1.244 . S
O290 Co264 2.155 . S
O290 C292 1.240 1_554 S
O291 Co264 2.096 . S
O291 C272 1.247 . S
C292 O289 1.244 . S
C292 O290 1.240 1_556 S
H293 C267 0.931 . S
H294 C276 0.931 . S
H295 C280 0.929 . S
H296 C282 0.930 . S
Co297 N301 2.148 1_554 S
Co297 N307 2.128 . S
Co297 N317 2.194 1_554 S
Co297 O322 2.351 1_554 S
Co297 O323 2.155 . S
Co297 O324 2.096 . S
C298 N301 1.301 . S
C298 N302 1.328 . S
C298 H303 0.930 . S
C299 C300 1.333 . S
C299 N301 1.317 . S
C299 H304 0.930 . S
C300 C299 1.333 . S
C300 N302 1.350 . S
C300 H326 0.931 . S
N301 Co297 2.148 1_556 S
N301 C298 1.301 . S
N301 C299 1.317 . S
N302 C298 1.328 . S
N302 C300 1.350 . S
H303 C298 0.930 . S
H304 C299 0.930 . S
C305 O306 1.224 . S
C305 O324 1.247 . S
O306 C305 1.224 . S
N307 Co297 2.128 . S
N307 C308 1.355 . S
N307 C310 1.311 . S
C308 N307 1.355 . S
C308 C309 1.363 . S
C308 H320 0.929 . S
C309 C308 1.363 . S
C309 N311 1.375 . S
C309 H327 0.931 . S
C310 N307 1.311 . S
C310 N311 1.347 . S
C310 H321 0.929 . S
N311 C309 1.375 . S
N311 C310 1.347 . S
C312 C315 1.365 . S
C312 N317 1.328 . S
C312 H318 0.929 . S
C313 C314 1.362 1_554 S
C313 C316 1.378 . S
C313 H328 0.929 . S
C314 C313 1.362 1_556 S
C314 C315 1.366 . S
C315 C312 1.365 . S
C315 C314 1.366 . S
C315 H329 0.930 . S
C316 C313 1.378 . S
C316 N317 1.315 1_554 S
C316 H319 0.930 . S
N317 Co297 2.194 1_556 S
N317 C312 1.328 . S
N317 C316 1.315 1_556 S
H318 C312 0.929 . S
H319 C316 0.930 . S
H320 C308 0.929 . S
H321 C310 0.929 . S
O322 Co297 2.351 1_556 S
O322 C325 1.244 . S
O323 Co297 2.155 . S
O323 C325 1.240 1_554 S
O324 Co297 2.096 . S
O324 C305 1.247 . S
C325 O322 1.244 . S
C325 O323 1.240 1_556 S
H326 C300 0.931 . S
H327 C309 0.931 . S
H328 C313 0.929 . S
H329 C315 0.930 . S
Co330 N334 2.148 1_554 S
Co330 N340 2.128 . S
Co330 N350 2.194 1_554 S
Co330 O355 2.351 1_554 S
Co330 O356 2.155 . S
Co330 O357 2.096 . S
C331 N334 1.301 . S
C331 N335 1.328 . S
C331 H336 0.930 . S
C332 C333 1.333 . S
C332 N334 1.317 . S
C332 H337 0.930 . S
C333 C332 1.333 . S
C333 N335 1.350 . S
C333 H359 0.931 . S
N334 Co330 2.148 1_556 S
N334 C331 1.301 . S
N334 C332 1.317 . S
N335 C331 1.328 . S
N335 C333 1.350 . S
H336 C331 0.930 . S
H337 C332 0.930 . S
C338 O339 1.224 . S
C338 O357 1.247 . S
O339 C338 1.224 . S
N340 Co330 2.128 . S
N340 C341 1.355 . S
N340 C343 1.311 . S
C341 N340 1.355 . S
C341 C342 1.363 . S
C341 H353 0.929 . S
C342 C341 1.363 . S
C342 N344 1.375 . S
C342 H360 0.931 . S
C343 N340 1.311 . S
C343 N344 1.347 . S
C343 H354 0.929 . S
N344 C342 1.375 . S
N344 C343 1.347 . S
C345 C348 1.365 . S
C345 N350 1.328 . S
C345 H351 0.929 . S
C346 C347 1.362 1_554 S
C346 C349 1.378 . S
C346 H361 0.929 . S
C347 C346 1.362 1_556 S
C347 C348 1.366 . S
C348 C345 1.365 . S
C348 C347 1.366 . S
C348 H362 0.930 . S
C349 C346 1.378 . S
C349 N350 1.315 1_554 S
C349 H352 0.930 . S
N350 Co330 2.194 1_556 S
N350 C345 1.328 . S
N350 C349 1.315 1_556 S
H351 C345 0.929 . S
H352 C349 0.930 . S
H353 C341 0.929 . S
H354 C343 0.929 . S
O355 Co330 2.351 1_556 S
O355 C358 1.244 . S
O356 Co330 2.155 . S
O356 C358 1.240 1_554 S
O357 Co330 2.096 . S
O357 C338 1.247 . S
C358 O355 1.244 . S
C358 O356 1.240 1_556 S
H359 C333 0.931 . S
H360 C342 0.931 . S
H361 C346 0.929 . S
H362 C348 0.930 . S
Co363 N367 2.148 1_554 S
Co363 N373 2.128 . S
Co363 N383 2.194 1_554 S
Co363 O388 2.351 1_554 S
Co363 O389 2.155 . S
Co363 O390 2.096 . S
C364 N367 1.301 . S
C364 N368 1.328 . S
C364 H369 0.930 . S
C365 C366 1.333 . S
C365 N367 1.317 . S
C365 H370 0.930 . S
C366 C365 1.333 . S
C366 N368 1.350 . S
C366 H392 0.931 . S
N367 Co363 2.148 1_556 S
N367 C364 1.301 . S
N367 C365 1.317 . S
N368 C364 1.328 . S
N368 C366 1.350 . S
H369 C364 0.930 . S
H370 C365 0.930 . S
C371 O372 1.224 . S
C371 O390 1.247 . S
O372 C371 1.224 . S
N373 Co363 2.128 . S
N373 C374 1.355 . S
N373 C376 1.311 . S
C374 N373 1.355 . S
C374 C375 1.363 . S
C374 H386 0.929 . S
C375 C374 1.363 . S
C375 N377 1.375 . S
C375 H393 0.931 . S
C376 N373 1.311 . S
C376 N377 1.347 . S
C376 H387 0.929 . S
N377 C375 1.375 . S
N377 C376 1.347 . S
C378 C381 1.365 . S
C378 N383 1.328 . S
C378 H384 0.929 . S
C379 C380 1.362 1_554 S
C379 C382 1.378 . S
C379 H394 0.929 . S
C380 C379 1.362 1_556 S
C380 C381 1.366 . S
C381 C378 1.365 . S
C381 C380 1.366 . S
C381 H395 0.930 . S
C382 C379 1.378 . S
C382 N383 1.315 1_554 S
C382 H385 0.930 . S
N383 Co363 2.194 1_556 S
N383 C378 1.328 . S
N383 C382 1.315 1_556 S
H384 C378 0.929 . S
H385 C382 0.930 . S
H386 C374 0.929 . S
H387 C376 0.929 . S
O388 Co363 2.351 1_556 S
O388 C391 1.244 . S
O389 Co363 2.155 . S
O389 C391 1.240 1_554 S
O390 Co363 2.096 . S
O390 C371 1.247 . S
C391 O388 1.244 . S
C391 O389 1.240 1_556 S
H392 C366 0.931 . S
H393 C375 0.931 . S
H394 C379 0.929 . S
H395 C381 0.930 . S
C281 C17 1.668 1_556 S
C50 C314 1.669 1_554 S
C347 C83 1.668 1_556 S
C380 C116 1.668 1_556 S
C149 C215 1.668 1_554 S
C248 C182 1.668 1_556 S
C358 C28 1.354 1_556 S
C391 C61 1.355 1_556 S
C94 C226 1.354 1_554 S
C259 C127 1.354 1_556 S
C292 C160 1.355 1_556 S
C325 C193 1.353 1_556 S
N5 N14 1.445 . S
N38 N47 1.445 . S
N71 N80 1.445 . S
N104 N113 1.445 . S
N146 N137 1.445 . S
N170 N179 1.445 . S
N212 N203 1.445 . S
N236 N245 1.445 . S
N278 N269 1.445 . S
N311 N302 1.445 . S
N335 N344 1.445 . S
N368 N377 1.445 . S
C8 C371 1.646 1_456 S
C206 C41 1.645 1_564 S
C239 C74 1.645 1_554 S
C272 C107 1.645 1_454 S
C140 C305 1.646 1_566 S
C338 C173 1.645 1_554 S
