# Generated by pormake.
# Topology som, (6)-cn, num edge types: 1
# Building blocks:
#     Node 0, Type 0, BuildingBlock: CUKXOW_clean_sbu_0, # of connection points: 6
#     Node 1, Type 0, BuildingBlock: CUKXOW_clean_sbu_0, # of connection points: 6
#     Node 2, Type 0, BuildingBlock: CUKXOW_clean_sbu_0, # of connection points: 6
#     Node 3, Type 0, BuildingBlock: CUKXOW_clean_sbu_0, # of connection points: 6
#     Node 4, Type 0, BuildingBlock: CUKXOW_clean_sbu_0, # of connection points: 6
#     Node 5, Type 0, BuildingBlock: CUKXOW_clean_sbu_0, # of connection points: 6
#     Node 6, Type 0, BuildingBlock: CUKXOW_clean_sbu_0, # of connection points: 6
#     Node 7, Type 0, BuildingBlock: CUKXOW_clean_sbu_0, # of connection points: 6
#     Node 8, Type 0, BuildingBlock: CUKXOW_clean_sbu_0, # of connection points: 6
#     Node 9, Type 0, BuildingBlock: CUKXOW_clean_sbu_0, # of connection points: 6
#     Node 10, Type 0, BuildingBlock: CUKXOW_clean_sbu_0, # of connection points: 6
#     Node 11, Type 0, BuildingBlock: CUKXOW_clean_sbu_0, # of connection points: 6
#     Node 12, Type 0, BuildingBlock: CUKXOW_clean_sbu_0, # of connection points: 6
#     Node 13, Type 0, BuildingBlock: CUKXOW_clean_sbu_0, # of connection points: 6
#     Node 14, Type 0, BuildingBlock: CUKXOW_clean_sbu_0, # of connection points: 6
#     Node 15, Type 0, BuildingBlock: CUKXOW_clean_sbu_0, # of connection points: 6
#     Node 16, Type 0, BuildingBlock: CUKXOW_clean_sbu_0, # of connection points: 6
#     Node 17, Type 0, BuildingBlock: CUKXOW_clean_sbu_0, # of connection points: 6
#     Node 18, Type 0, BuildingBlock: CUKXOW_clean_sbu_0, # of connection points: 6
#     Node 19, Type 0, BuildingBlock: CUKXOW_clean_sbu_0, # of connection points: 6
#     Node 20, Type 0, BuildingBlock: CUKXOW_clean_sbu_0, # of connection points: 6
#     Node 21, Type 0, BuildingBlock: CUKXOW_clean_sbu_0, # of connection points: 6
#     Node 22, Type 0, BuildingBlock: CUKXOW_clean_sbu_0, # of connection points: 6
#     Node 23, Type 0, BuildingBlock: CUKXOW_clean_sbu_0, # of connection points: 6
#     Node 24, Type 0, BuildingBlock: CUKXOW_clean_sbu_0, # of connection points: 6
#     Node 25, Type 0, BuildingBlock: CUKXOW_clean_sbu_0, # of connection points: 6
#     Node 26, Type 0, BuildingBlock: CUKXOW_clean_sbu_0, # of connection points: 6
#     Node 27, Type 0, BuildingBlock: CUKXOW_clean_sbu_0, # of connection points: 6
#     Node 28, Type 0, BuildingBlock: CUKXOW_clean_sbu_0, # of connection points: 6
#     Node 29, Type 0, BuildingBlock: CUKXOW_clean_sbu_0, # of connection points: 6
#     Node 30, Type 0, BuildingBlock: CUKXOW_clean_sbu_0, # of connection points: 6
#     Node 31, Type 0, BuildingBlock: CUKXOW_clean_sbu_0, # of connection points: 6
#     Edge 32, Type (0, 0), BuildingBlock: CIFDUS_clean_linker_0, # of connection points: 2
#     Edge 33, Type (0, 0), BuildingBlock: CIFDUS_clean_linker_0, # of connection points: 2
#     Edge 34, Type (0, 0), BuildingBlock: CIFDUS_clean_linker_0, # of connection points: 2
#     Edge 35, Type (0, 0), BuildingBlock: CIFDUS_clean_linker_0, # of connection points: 2
#     Edge 36, Type (0, 0), BuildingBlock: CIFDUS_clean_linker_0, # of connection points: 2
#     Edge 37, Type (0, 0), BuildingBlock: CIFDUS_clean_linker_0, # of connection points: 2
#     Edge 38, Type (0, 0), BuildingBlock: CIFDUS_clean_linker_0, # of connection points: 2
#     Edge 39, Type (0, 0), BuildingBlock: CIFDUS_clean_linker_0, # of connection points: 2
#     Edge 40, Type (0, 0), BuildingBlock: CIFDUS_clean_linker_0, # of connection points: 2
#     Edge 41, Type (0, 0), BuildingBlock: CIFDUS_clean_linker_0, # of connection points: 2
#     Edge 42, Type (0, 0), BuildingBlock: CIFDUS_clean_linker_0, # of connection points: 2
#     Edge 43, Type (0, 0), BuildingBlock: CIFDUS_clean_linker_0, # of connection points: 2
#     Edge 44, Type (0, 0), BuildingBlock: CIFDUS_clean_linker_0, # of connection points: 2
#     Edge 45, Type (0, 0), BuildingBlock: CIFDUS_clean_linker_0, # of connection points: 2
#     Edge 46, Type (0, 0), BuildingBlock: CIFDUS_clean_linker_0, # of connection points: 2
#     Edge 47, Type (0, 0), BuildingBlock: CIFDUS_clean_linker_0, # of connection points: 2
#     Edge 48, Type (0, 0), BuildingBlock: CIFDUS_clean_linker_0, # of connection points: 2
#     Edge 49, Type (0, 0), BuildingBlock: CIFDUS_clean_linker_0, # of connection points: 2
#     Edge 50, Type (0, 0), BuildingBlock: CIFDUS_clean_linker_0, # of connection points: 2
#     Edge 51, Type (0, 0), BuildingBlock: CIFDUS_clean_linker_0, # of connection points: 2
#     Edge 52, Type (0, 0), BuildingBlock: CIFDUS_clean_linker_0, # of connection points: 2
#     Edge 53, Type (0, 0), BuildingBlock: CIFDUS_clean_linker_0, # of connection points: 2
#     Edge 54, Type (0, 0), BuildingBlock: CIFDUS_clean_linker_0, # of connection points: 2
#     Edge 55, Type (0, 0), BuildingBlock: CIFDUS_clean_linker_0, # of connection points: 2
#     Edge 56, Type (0, 0), BuildingBlock: CIFDUS_clean_linker_0, # of connection points: 2
#     Edge 57, Type (0, 0), BuildingBlock: CIFDUS_clean_linker_0, # of connection points: 2
#     Edge 58, Type (0, 0), BuildingBlock: CIFDUS_clean_linker_0, # of connection points: 2
#     Edge 59, Type (0, 0), BuildingBlock: CIFDUS_clean_linker_0, # of connection points: 2
#     Edge 60, Type (0, 0), BuildingBlock: CIFDUS_clean_linker_0, # of connection points: 2
#     Edge 61, Type (0, 0), BuildingBlock: CIFDUS_clean_linker_0, # of connection points: 2
#     Edge 62, Type (0, 0), BuildingBlock: CIFDUS_clean_linker_0, # of connection points: 2
#     Edge 63, Type (0, 0), BuildingBlock: CIFDUS_clean_linker_0, # of connection points: 2
#     Edge 64, Type (0, 0), BuildingBlock: CIFDUS_clean_linker_0, # of connection points: 2
#     Edge 65, Type (0, 0), BuildingBlock: CIFDUS_clean_linker_0, # of connection points: 2
#     Edge 66, Type (0, 0), BuildingBlock: CIFDUS_clean_linker_0, # of connection points: 2
#     Edge 67, Type (0, 0), BuildingBlock: CIFDUS_clean_linker_0, # of connection points: 2
#     Edge 68, Type (0, 0), BuildingBlock: CIFDUS_clean_linker_0, # of connection points: 2
#     Edge 69, Type (0, 0), BuildingBlock: CIFDUS_clean_linker_0, # of connection points: 2
#     Edge 70, Type (0, 0), BuildingBlock: CIFDUS_clean_linker_0, # of connection points: 2
#     Edge 71, Type (0, 0), BuildingBlock: CIFDUS_clean_linker_0, # of connection points: 2
#     Edge 72, Type (0, 0), BuildingBlock: CIFDUS_clean_linker_0, # of connection points: 2
#     Edge 73, Type (0, 0), BuildingBlock: CIFDUS_clean_linker_0, # of connection points: 2
#     Edge 74, Type (0, 0), BuildingBlock: CIFDUS_clean_linker_0, # of connection points: 2
#     Edge 75, Type (0, 0), BuildingBlock: CIFDUS_clean_linker_0, # of connection points: 2
#     Edge 76, Type (0, 0), BuildingBlock: CIFDUS_clean_linker_0, # of connection points: 2
#     Edge 77, Type (0, 0), BuildingBlock: CIFDUS_clean_linker_0, # of connection points: 2
#     Edge 78, Type (0, 0), BuildingBlock: CIFDUS_clean_linker_0, # of connection points: 2
#     Edge 79, Type (0, 0), BuildingBlock: CIFDUS_clean_linker_0, # of connection points: 2
#     Edge 80, Type (0, 0), BuildingBlock: CIFDUS_clean_linker_0, # of connection points: 2
#     Edge 81, Type (0, 0), BuildingBlock: CIFDUS_clean_linker_0, # of connection points: 2
#     Edge 82, Type (0, 0), BuildingBlock: CIFDUS_clean_linker_0, # of connection points: 2
#     Edge 83, Type (0, 0), BuildingBlock: CIFDUS_clean_linker_0, # of connection points: 2
#     Edge 84, Type (0, 0), BuildingBlock: CIFDUS_clean_linker_0, # of connection points: 2
#     Edge 85, Type (0, 0), BuildingBlock: CIFDUS_clean_linker_0, # of connection points: 2
#     Edge 86, Type (0, 0), BuildingBlock: CIFDUS_clean_linker_0, # of connection points: 2
#     Edge 87, Type (0, 0), BuildingBlock: CIFDUS_clean_linker_0, # of connection points: 2
#     Edge 88, Type (0, 0), BuildingBlock: CIFDUS_clean_linker_0, # of connection points: 2
#     Edge 89, Type (0, 0), BuildingBlock: CIFDUS_clean_linker_0, # of connection points: 2
#     Edge 90, Type (0, 0), BuildingBlock: CIFDUS_clean_linker_0, # of connection points: 2
#     Edge 91, Type (0, 0), BuildingBlock: CIFDUS_clean_linker_0, # of connection points: 2
#     Edge 92, Type (0, 0), BuildingBlock: CIFDUS_clean_linker_0, # of connection points: 2
#     Edge 93, Type (0, 0), BuildingBlock: CIFDUS_clean_linker_0, # of connection points: 2
#     Edge 94, Type (0, 0), BuildingBlock: CIFDUS_clean_linker_0, # of connection points: 2
#     Edge 95, Type (0, 0), BuildingBlock: CIFDUS_clean_linker_0, # of connection points: 2
#     Edge 96, Type (0, 0), BuildingBlock: CIFDUS_clean_linker_0, # of connection points: 2
#     Edge 97, Type (0, 0), BuildingBlock: CIFDUS_clean_linker_0, # of connection points: 2
#     Edge 98, Type (0, 0), BuildingBlock: CIFDUS_clean_linker_0, # of connection points: 2
#     Edge 99, Type (0, 0), BuildingBlock: CIFDUS_clean_linker_0, # of connection points: 2
#     Edge 100, Type (0, 0), BuildingBlock: CIFDUS_clean_linker_0, # of connection points: 2
#     Edge 101, Type (0, 0), BuildingBlock: CIFDUS_clean_linker_0, # of connection points: 2
#     Edge 102, Type (0, 0), BuildingBlock: CIFDUS_clean_linker_0, # of connection points: 2
#     Edge 103, Type (0, 0), BuildingBlock: CIFDUS_clean_linker_0, # of connection points: 2
#     Edge 104, Type (0, 0), BuildingBlock: CIFDUS_clean_linker_0, # of connection points: 2
#     Edge 105, Type (0, 0), BuildingBlock: CIFDUS_clean_linker_0, # of connection points: 2
#     Edge 106, Type (0, 0), BuildingBlock: CIFDUS_clean_linker_0, # of connection points: 2
#     Edge 107, Type (0, 0), BuildingBlock: CIFDUS_clean_linker_0, # of connection points: 2
#     Edge 108, Type (0, 0), BuildingBlock: CIFDUS_clean_linker_0, # of connection points: 2
#     Edge 109, Type (0, 0), BuildingBlock: CIFDUS_clean_linker_0, # of connection points: 2
#     Edge 110, Type (0, 0), BuildingBlock: CIFDUS_clean_linker_0, # of connection points: 2
#     Edge 111, Type (0, 0), BuildingBlock: CIFDUS_clean_linker_0, # of connection points: 2
#     Edge 112, Type (0, 0), BuildingBlock: CIFDUS_clean_linker_0, # of connection points: 2
#     Edge 113, Type (0, 0), BuildingBlock: CIFDUS_clean_linker_0, # of connection points: 2
#     Edge 114, Type (0, 0), BuildingBlock: CIFDUS_clean_linker_0, # of connection points: 2
#     Edge 115, Type (0, 0), BuildingBlock: CIFDUS_clean_linker_0, # of connection points: 2
#     Edge 116, Type (0, 0), BuildingBlock: CIFDUS_clean_linker_0, # of connection points: 2
#     Edge 117, Type (0, 0), BuildingBlock: CIFDUS_clean_linker_0, # of connection points: 2
#     Edge 118, Type (0, 0), BuildingBlock: CIFDUS_clean_linker_0, # of connection points: 2
#     Edge 119, Type (0, 0), BuildingBlock: CIFDUS_clean_linker_0, # of connection points: 2
#     Edge 120, Type (0, 0), BuildingBlock: CIFDUS_clean_linker_0, # of connection points: 2
#     Edge 121, Type (0, 0), BuildingBlock: CIFDUS_clean_linker_0, # of connection points: 2
#     Edge 122, Type (0, 0), BuildingBlock: CIFDUS_clean_linker_0, # of connection points: 2
#     Edge 123, Type (0, 0), BuildingBlock: CIFDUS_clean_linker_0, # of connection points: 2
#     Edge 124, Type (0, 0), BuildingBlock: CIFDUS_clean_linker_0, # of connection points: 2
#     Edge 125, Type (0, 0), BuildingBlock: CIFDUS_clean_linker_0, # of connection points: 2
#     Edge 126, Type (0, 0), BuildingBlock: CIFDUS_clean_linker_0, # of connection points: 2
#     Edge 127, Type (0, 0), BuildingBlock: CIFDUS_clean_linker_0, # of connection points: 2
# Relax obj value: 0.125
# Max RMSD: 0.180
# Mean RMSD: 0.179
data_MOF--net-som--node1-CUKXOW_clean_sbu_0--edge1-CIFDUS_clean_linker_0
_symmetry_space_group_name_H-M    P1
_symmetry_Int_Tables_number       1
_symmetry_cell_setting            triclinic
loop_
_symmetry_equiv_pos_as_xyz
'x, y, z'
_cell_length_a     12.534752
_cell_length_b     64.026812
_cell_length_c     106.39545
_cell_angle_alpha  90.095523
_cell_angle_beta   90.008239
_cell_angle_gamma 89.964225
loop_
_atom_site_label
_atom_site_type_symbol
_atom_site_fract_x
_atom_site_fract_y
_atom_site_fract_z
_atom_type_partial_charge
Tb0 Tb 0.06672 0.47223 0.06173 0.0
C1 C 0.11464 0.4928 0.08746 0.0
Tb2 Tb 0.09063 0.51977 0.06218 0.0
O3 O 0.23452 0.46852 0.06676 0.0
O4 O 0.18578 0.49423 0.05621 0.0
O5 O 0.0696 0.47669 0.08176 0.0
C6 C 0.14688 0.56041 0.06387 0.0
O7 O 0.13855 0.51049 0.08144 0.0
C8 C 0.8933 0.50593 0.06206 0.0
C9 C 1.0407 0.49766 0.03651 0.0
O10 O 0.05515 0.55257 0.06692 0.0
O11 O 0.20793 0.54525 0.06005 0.0
O12 O 0.92283 0.52347 0.05709 0.0
O13 O 0.97175 0.49785 0.06768 0.0
O14 O 0.0872 0.51412 0.04187 0.0
O15 O 1.01281 0.48087 0.04301 0.0
C16 C 1.01265 0.43181 0.05974 0.0
O17 O 0.09576 0.44051 0.05474 0.0
O18 O 0.95847 0.44599 0.06572 0.0
C19 C 0.26408 0.48607 0.06182 0.0
Tb20 Tb 0.27507 0.77391 0.06326 0.0
C21 C 0.24506 0.75123 0.08873 0.0
Tb22 Tb 0.25467 0.72632 0.06254 0.0
O23 O 0.1086 0.77656 0.06897 0.0
O24 O 0.15673 0.75191 0.05745 0.0
O25 O 0.28602 0.76784 0.08313 0.0
C26 C 0.20139 0.68549 0.06401 0.0
O27 O 0.22016 0.73384 0.08245 0.0
C28 C 0.45033 0.74085 0.0623 0.0
C29 C 0.28325 0.75032 0.03702 0.0
O30 O 0.13478 0.70107 0.06393 0.0
O31 O 0.29715 0.69298 0.06333 0.0
O32 O 0.42129 0.72362 0.0569 0.0
O33 O 0.37261 0.74823 0.06839 0.0
O34 O 0.2444 0.73316 0.04241 0.0
O35 O 0.31012 0.76716 0.0436 0.0
C36 C 0.32732 0.81462 0.06238 0.0
O37 O 0.39476 0.7992 0.06271 0.0
O38 O 0.23161 0.80703 0.06236 0.0
C39 C 0.07931 0.75935 0.06357 0.0
Tb40 Tb 0.09817 0.76774 0.18753 0.0
C41 C 0.12557 0.74288 0.16225 0.0
Tb42 Tb 0.11725 0.7206 0.18875 0.0
O43 O 0.26416 0.7708 0.18166 0.0
O44 O 0.21693 0.74621 0.19324 0.0
O45 O 0.09045 0.76053 0.16743 0.0
C46 C 0.17389 0.68055 0.18752 0.0
O47 O 0.15007 0.72615 0.16897 0.0
C48 C 0.92238 0.7354 0.18936 0.0
C49 C 0.10258 0.74419 0.21422 0.0
O50 O 0.2392 0.69607 0.18897 0.0
O51 O 0.07729 0.68759 0.18669 0.0
O52 O 0.95216 0.71855 0.19514 0.0
O53 O 0.99889 0.74226 0.18291 0.0
O54 O 0.13357 0.72682 0.20853 0.0
O55 O 0.07723 0.76146 0.20786 0.0
C56 C 1.03071 0.80742 0.18899 0.0
O57 O 0.97011 0.79102 0.18947 0.0
O58 O 0.12891 0.80146 0.18769 0.0
C59 C 0.29369 0.75353 0.187 0.0
Tb60 Tb 0.31081 0.46991 0.18564 0.0
C61 C 0.30424 0.49349 0.15877 0.0
Tb62 Tb 0.29199 0.51708 0.18424 0.0
O63 O 0.14423 0.46656 0.19124 0.0
O64 O 0.19187 0.49139 0.17993 0.0
O65 O 0.32029 0.47569 0.16506 0.0
C66 C 0.23545 0.55712 0.18559 0.0
O67 O 0.28241 0.51142 0.16438 0.0
C68 C 0.48673 0.50217 0.18346 0.0
C69 C 0.28846 0.49544 0.21072 0.0
O70 O 0.33021 0.54986 0.18773 0.0
O71 O 0.172 0.54183 0.18276 0.0
O72 O 0.45712 0.51915 0.17782 0.0
O73 O 0.41064 0.49538 0.18999 0.0
O74 O 0.25374 0.51122 0.20382 0.0
O75 O 0.33149 0.47847 0.20552 0.0
C76 C 0.37954 0.43027 0.18428 0.0
O77 O 0.29057 0.43641 0.18929 0.0
O78 O 0.43023 0.4465 0.18005 0.0
C79 C 0.11489 0.48398 0.18608 0.0
Tb80 Tb 1.00319 0.47359 0.93778 0.0
C81 C 1.02579 0.50349 0.96143 0.0
Tb82 Tb 1.02662 0.52397 0.93408 0.0
O83 O 0.17695 0.4675 0.9392 0.0
O84 O 0.11859 0.49686 0.93644 0.0
O85 O 0.99087 0.48517 0.95702 0.0
C86 C 0.09909 0.56263 0.93122 0.0
O87 O 0.05624 0.51938 0.95415 0.0
C88 C 0.82624 0.51069 0.93491 0.0
C89 C 0.99153 0.49453 0.91047 0.0
O90 O 1.01424 0.55744 0.93745 0.0
O91 O 0.14439 0.54601 0.92661 0.0
O92 O 0.85255 0.53021 0.93374 0.0
O93 O 0.91173 0.50063 0.93535 0.0
O94 O 1.02632 0.51295 0.91468 0.0
O95 O 0.96722 0.47841 0.91787 0.0
C96 C 0.94031 0.43407 0.93929 0.0
O97 O 1.01169 0.44128 0.93161 0.0
O98 O 0.90231 0.44925 0.94613 0.0
C99 C 0.2038 0.48691 0.93774 0.0
Tb100 Tb 0.81761 0.27043 0.93686 0.0
C101 C 0.7838 0.24407 0.96068 0.0
Tb102 Tb 0.80101 0.22367 0.93379 0.0
O103 O 0.65038 0.27326 0.94206 0.0
O104 O 0.69936 0.24937 0.93004 0.0
O105 O 0.83538 0.26049 0.95619 0.0
C106 C 0.76241 0.18267 0.93534 0.0
O107 O 0.74726 0.22916 0.95315 0.0
C108 C 0.99534 0.23845 0.93389 0.0
C109 C 0.82807 0.25058 0.90935 0.0
O110 O 0.83287 0.1929 0.94175 0.0
O111 O 0.71211 0.19557 0.92799 0.0
O112 O 0.96644 0.22198 0.92769 0.0
O113 O 0.9188 0.24476 0.94055 0.0
O114 O 0.80168 0.23194 0.91392 0.0
O115 O 0.8418 0.26728 0.9166 0.0
C116 C 0.87738 0.31046 0.93746 0.0
O117 O 0.93328 0.29524 0.93279 0.0
O118 O 0.78868 0.3031 0.94182 0.0
C119 C 0.62186 0.25633 0.93631 0.0
Tb120 Tb 1.00022 0.26917 0.81031 0.0
C121 C 1.04355 0.24505 0.78511 0.0
Tb122 Tb 1.02178 0.2219 0.81117 0.0
O123 O 0.16679 0.27211 0.80474 0.0
O124 O 0.11884 0.2476 0.81639 0.0
O125 O 0.99999 0.26213 0.79012 0.0
C126 C 0.07483 0.18148 0.80978 0.0
O127 O 0.07019 0.22862 0.79199 0.0
C128 C 0.82539 0.2361 0.81111 0.0
C129 C 0.9787 0.24434 0.8364 0.0
O130 O 0.98344 0.18939 0.80668 0.0
O131 O 0.13728 0.19637 0.81359 0.0
O132 O 0.85483 0.21904 0.81667 0.0
O133 O 0.90328 0.24352 0.80509 0.0
O134 O 1.02262 0.22775 0.83107 0.0
O135 O 0.95519 0.2616 0.82993 0.0
C136 C 0.94762 0.30992 0.81153 0.0
O137 O 1.03956 0.30195 0.81433 0.0
O138 O 0.88429 0.29486 0.80813 0.0
C139 C 0.19651 0.25512 0.81035 0.0
Tb140 Tb 0.85154 0.47558 0.81107 0.0
C141 C 0.81304 0.49799 0.78549 0.0
Tb142 Tb 0.83092 0.52303 0.81092 0.0
O143 O 0.68455 0.47231 0.80572 0.0
O144 O 0.73315 0.49772 0.81658 0.0
O145 O 0.86124 0.48185 0.79093 0.0
C146 C 0.77728 0.56339 0.80848 0.0
O147 O 0.77934 0.51434 0.79205 0.0
C148 C 1.02687 0.50873 0.81136 0.0
C149 C 0.8696 0.50148 0.83682 0.0
O150 O 0.85739 0.55426 0.80306 0.0
O151 O 0.7264 0.54972 0.8152 0.0
O152 O 0.99784 0.52636 0.8163 0.0
O153 O 0.94921 0.5009 0.80547 0.0
O154 O 0.83485 0.51848 0.83102 0.0
O155 O 0.88669 0.48345 0.83084 0.0
C156 C 0.90319 0.4348 0.81261 0.0
O157 O 0.97059 0.45023 0.8127 0.0
O158 O 0.80783 0.44241 0.81174 0.0
C159 C 0.65529 0.48981 0.81077 0.0
Tb160 Tb 1.0495 0.97333 0.56425 0.0
C161 C 0.06296 -0.00366 0.59081 0.0
Tb162 Tb 0.05699 0.02064 0.5656 0.0
O163 O 0.21091 0.97213 0.55681 0.0
O164 O 0.16544 -0.00397 0.56912 0.0
O165 O 1.03146 0.97932 0.5846 0.0
C166 C 0.08853 0.06187 0.56503 0.0
O167 O 0.09394 0.01354 0.58495 0.0
C168 C 0.86629 0.00396 0.56715 0.0
C169 C 0.05747 -0.00144 0.53882 0.0
O170 O 1.00324 0.05253 0.56887 0.0
O171 O 0.15779 0.04796 0.56144 0.0
O172 O 0.89399 0.02109 0.5727 0.0
O173 O 0.94219 -0.00211 0.56037 0.0
O174 O 0.07585 0.01588 0.54537 0.0
O175 O 1.03476 0.9804 0.54427 0.0
C176 C 0.99335 0.933 0.56511 0.0
O177 O 0.08795 0.94025 0.56741 0.0
O178 O 0.93043 0.94847 0.56246 0.0
C179 C 0.23948 0.98953 0.56214 0.0
Tb180 Tb 0.28687 0.27265 0.56068 0.0
C181 C 0.24945 0.24965 0.58715 0.0
Tb182 Tb 0.2708 0.22338 0.56245 0.0
O183 O 0.1141 0.2795 0.56079 0.0
O184 O 0.17163 0.24956 0.56205 0.0
O185 O 0.28477 0.26658 0.5811 0.0
C186 C 0.23603 0.18254 0.56013 0.0
O187 O 0.22863 0.23164 0.58147 0.0
C188 C 0.4613 0.24013 0.56517 0.0
C189 C 0.2642 0.24562 0.53594 0.0
O190 O 0.17484 0.19549 0.56622 0.0
O191 O 0.31564 0.19264 0.55529 0.0
O192 O 0.4319 0.22278 0.57042 0.0
O193 O 0.38755 0.24633 0.5581 0.0
O194 O 0.23337 0.22945 0.54285 0.0
O195 O 0.30187 0.26331 0.5409 0.0
C196 C 0.36568 0.31139 0.56105 0.0
O197 O 0.2855 0.30512 0.55428 0.0
O198 O 0.40267 0.29573 0.56751 0.0
C199 C 0.08701 0.25999 0.56185 0.0
Tb200 Tb 1.03444 0.26266 0.6835 0.0
C201 C 0.08685 0.23602 0.65928 0.0
Tb202 Tb 0.07644 0.21397 0.68609 0.0
O203 O 0.20145 0.27324 0.68503 0.0
O204 O 0.16598 0.24216 0.68609 0.0
O205 O 1.04512 0.25353 0.66386 0.0
C206 C 0.15179 0.17484 0.68784 0.0
O207 O 0.1106 0.21943 0.66626 0.0
C208 C 0.86745 0.22209 0.68306 0.0
C209 C 1.03351 0.24161 0.70995 0.0
O210 O 0.17871 0.18844 0.67935 0.0
O211 O 0.08615 0.18365 0.69566 0.0
O212 O 0.90918 0.20365 0.68394 0.0
O213 O 0.94527 0.23459 0.68348 0.0
O214 O 0.0897 0.22561 0.70541 0.0
O215 O 0.98629 0.25547 0.70257 0.0
C216 C 0.94888 0.30074 0.68169 0.0
O217 O 0.98677 0.29244 0.69187 0.0
O218 O 0.95697 0.28739 0.67252 0.0
C219 C 0.24343 0.25483 0.6862 0.0
Tb220 Tb 0.29248 0.96145 0.68779 0.0
C221 C 0.22937 0.98368 0.66266 0.0
Tb222 Tb 0.24809 0.01058 0.68795 0.0
O223 O 0.12461 0.95132 0.68858 0.0
O224 O 0.16059 0.98235 0.68865 0.0
O225 O 0.2808 0.96763 0.6678 0.0
C226 C 0.17558 0.04994 0.68838 0.0
O227 O 0.19909 0.00059 0.6691 0.0
C228 C 0.45798 0.0023 0.68681 0.0
C229 C 0.30044 0.987 0.71325 0.0
O230 O 0.23363 0.04164 0.67959 0.0
O231 O 0.15402 0.03572 0.69675 0.0
O232 O 0.41592 0.02075 0.68695 0.0
O233 O 0.38008 0.98977 0.68722 0.0
O234 O 0.25238 0.00335 0.70799 0.0
O235 O 0.33527 0.97063 0.70677 0.0
C236 C 0.36648 0.92248 0.68905 0.0
O237 O 0.28904 0.93016 0.69565 0.0
O238 O 0.40487 0.9369 0.68169 0.0
C239 C 0.08268 0.9698 0.68895 0.0
Tb240 Tb 1.00306 0.96362 0.43825 0.0
C241 C 1.01544 0.98743 0.46405 0.0
Tb242 Tb 1.02362 0.01301 0.43833 0.0
O243 O 0.16847 0.96111 0.44452 0.0
O244 O 0.12061 0.98669 0.43386 0.0
O245 O 0.98213 0.97049 0.45801 0.0
C246 C 0.10119 0.05198 0.43871 0.0
O247 O 1.0464 0.00481 0.45821 0.0
C248 C 0.82336 0.00071 0.44104 0.0
C249 C 0.98199 0.98885 0.41275 0.0
O250 O 0.1378 0.03639 0.44525 0.0
O251 O 1.0222 0.04549 0.43184 0.0
O252 O 0.85182 0.0202 0.4406 0.0
O253 O 0.90721 0.99015 0.44016 0.0
O254 O 1.02156 0.00596 0.41819 0.0
O255 O 0.95919 0.97141 0.41901 0.0
C256 C 0.95311 0.92306 0.4373 0.0
O257 O 1.03188 0.93178 0.43136 0.0
O258 O 0.90084 0.93731 0.44346 0.0
C259 C 0.19711 0.97906 0.44003 0.0
Tb260 Tb 0.85763 0.75949 0.43744 0.0
C261 C 0.81772 0.73535 0.46252 0.0
Tb262 Tb 0.81371 0.71063 0.43698 0.0
O263 O 0.69004 0.76961 0.4349 0.0
O264 O 0.7259 0.73875 0.43595 0.0
O265 O 0.87335 0.7505 0.45708 0.0
C266 C 0.71938 0.67326 0.43533 0.0
O267 O 0.77137 0.7201 0.45601 0.0
C268 C 1.02322 0.71843 0.43907 0.0
C269 C 0.867 0.73481 0.41166 0.0
O270 O 0.75973 0.68127 0.4455 0.0
O271 O 0.73073 0.68644 0.42617 0.0
O272 O 0.98059 0.69994 0.43878 0.0
O273 O 0.94601 0.73116 0.43849 0.0
O274 O 0.82584 0.71782 0.41696 0.0
O275 O 0.89139 0.75207 0.41797 0.0
C276 C 0.93383 0.79847 0.43839 0.0
O277 O 0.96303 0.78425 0.43036 0.0
O278 O 0.865 0.79044 0.44609 0.0
C279 C 0.64792 0.75114 0.43499 0.0
Tb280 Tb 1.0256 0.78031 0.31473 0.0
C281 C 0.05865 0.75815 0.28871 0.0
Tb282 Tb 0.07187 0.73113 0.31388 0.0
O283 O 0.19378 0.79054 0.31432 0.0
O284 O 0.1582 0.75956 0.31425 0.0
O285 O 1.01583 0.77422 0.29477 0.0
C286 C 0.15931 0.69289 0.31288 0.0
O287 O 0.09776 0.74128 0.29446 0.0
C288 C 0.86176 0.73911 0.31413 0.0
C289 C 1.02043 0.75333 0.33976 0.0
O290 O 0.08227 0.6997 0.30584 0.0
O291 O 0.18922 0.70785 0.32041 0.0
O292 O 0.90438 0.72064 0.31394 0.0
O293 O 0.93933 0.75179 0.31426 0.0
O294 O 0.06456 0.73686 0.33412 0.0
O295 O 0.98907 0.77049 0.33378 0.0
C296 C 0.94816 0.81921 0.31553 0.0
O297 O 1.0184 0.81144 0.32316 0.0
O298 O 0.91851 0.80481 0.30761 0.0
C299 C 0.23621 0.77209 0.31419 0.0
Tb300 Tb 0.85359 0.98435 0.3132 0.0
C301 C 0.83979 0.0087 0.28782 0.0
Tb302 Tb 0.83522 0.03151 0.31441 0.0
O303 O 0.68679 0.98164 0.30773 0.0
O304 O 0.73539 0.00612 0.31925 0.0
O305 O 0.87884 0.99181 0.29344 0.0
C306 C 0.7807 0.07197 0.31308 0.0
O307 O 0.80794 0.02531 0.29434 0.0
C308 C 1.03031 0.01682 0.31499 0.0
C309 C 0.85949 0.00761 0.33983 0.0
O310 O 0.71468 0.05638 0.31237 0.0
O311 O 0.87633 0.06472 0.31451 0.0
O312 O 1.00091 0.034 0.32043 0.0
O313 O 0.9539 0.00972 0.3086 0.0
O314 O 0.82397 0.02496 0.33442 0.0
O315 O 0.88164 0.99042 0.33327 0.0
C316 C 0.90393 0.94366 0.31465 0.0
O317 O 0.96274 0.95895 0.31871 0.0
O318 O 0.81819 0.95134 0.3097 0.0
C319 C 0.65801 -0.00113 0.31311 0.0
Tb320 Tb 0.54174 0.47404 0.56163 0.0
C321 C 0.55286 0.49797 0.58798 0.0
Tb322 Tb 0.55872 0.52148 0.56241 0.0
O323 O 0.70601 0.4714 0.55502 0.0
O324 O 0.66027 0.49611 0.56669 0.0
O325 O 0.52152 0.48083 0.58187 0.0
C326 C 0.61522 0.56152 0.56028 0.0
O327 O 0.5869 0.5149 0.58205 0.0
C328 C 0.36374 0.50661 0.56318 0.0
C329 C 0.55935 0.49828 0.53594 0.0
O330 O 0.5273 0.55476 0.56519 0.0
O331 O 0.6724 0.54571 0.55665 0.0
O332 O 0.39215 0.52416 0.56824 0.0
O333 O 0.44116 0.49942 0.55703 0.0
O334 O 0.57894 0.51569 0.54232 0.0
O335 O 0.53271 0.48046 0.54152 0.0
C336 C 0.47434 0.43431 0.56253 0.0
O337 O 0.57179 0.44048 0.56428 0.0
O338 O 0.41488 0.45053 0.56046 0.0
C339 C 0.73565 0.48888 0.56018 0.0
Tb340 Tb 0.83021 0.77097 0.56393 0.0
C341 C 0.79997 0.74286 0.58834 0.0
Tb342 Tb 0.7839 0.7223 0.56119 0.0
O343 O 0.66234 0.78139 0.56487 0.0
O344 O 0.6976 0.75063 0.56236 0.0
O345 O 0.82847 0.76137 0.58367 0.0
C346 C 0.69452 0.68469 0.55937 0.0
O347 O 0.77563 0.72625 0.5814 0.0
C348 C 0.99437 0.72997 0.56226 0.0
C349 C 0.81207 0.74973 0.53721 0.0
O350 O 0.66684 0.69907 0.56736 0.0
O351 O 0.77065 0.69169 0.55227 0.0
O352 O 0.95139 0.71158 0.56147 0.0
O353 O 0.91698 0.74266 0.56261 0.0
O354 O 0.75932 0.73388 0.54228 0.0
O355 O 0.86085 0.76425 0.54409 0.0
C356 C 0.91253 0.80941 0.56468 0.0
O357 O 0.8374 0.80306 0.55723 0.0
O358 O 0.94385 0.79389 0.57167 0.0
C359 C 0.61971 0.76312 0.56334 0.0
Tb360 Tb 0.6377 0.76533 0.68809 0.0
C361 C 0.66621 0.74434 0.66169 0.0
Tb362 Tb 0.65702 0.71607 0.68628 0.0
O363 O 0.80293 0.76835 0.68209 0.0
O364 O 0.75471 0.74172 0.69188 0.0
O365 O 0.62445 0.7603 0.668 0.0
C366 C 0.71067 0.6756 0.68578 0.0
O367 O 0.69489 0.72642 0.66713 0.0
C368 C 0.45736 0.72909 0.68341 0.0
C369 C 0.6267 0.738 0.71287 0.0
O370 O 0.75647 0.69019 0.67917 0.0
O371 O 0.63793 0.68401 0.69281 0.0
O372 O 0.48524 0.70963 0.68328 0.0
O373 O 0.54161 0.7393 0.6848 0.0
O374 O 0.66372 0.72147 0.70659 0.0
O375 O 0.6026 0.75604 0.70735 0.0
C376 C 0.58743 0.80569 0.69049 0.0
O377 O 0.67914 0.79745 0.69318 0.0
O378 O 0.52275 0.7911 0.68673 0.0
C379 C 0.83141 0.75003 0.68603 0.0
Tb380 Tb 0.76699 0.46247 0.6852 0.0
C381 C 0.71027 0.48444 0.66004 0.0
Tb382 Tb 0.74597 0.50976 0.68545 0.0
O383 O 0.59848 0.45819 0.68086 0.0
O384 O 0.64836 0.48429 0.69097 0.0
O385 O 0.75675 0.46792 0.66517 0.0
C386 C 0.70108 0.55074 0.68451 0.0
O387 O 0.68853 0.50168 0.66656 0.0
C388 C 0.94263 0.49565 0.68556 0.0
C389 C 0.79577 0.48703 0.71066 0.0
O390 O 0.77884 0.5415 0.6787 0.0
O391 O 0.64655 0.53677 0.6906 0.0
O392 O 0.91325 0.51303 0.69074 0.0
O393 O 0.86474 0.48786 0.67972 0.0
O394 O 0.74777 0.50344 0.70554 0.0
O395 O 0.82641 0.47072 0.70386 0.0
C396 C 0.82132 0.42225 0.68733 0.0
O397 O 0.76321 0.43266 0.69521 0.0
O398 O 0.85036 0.43452 0.67825 0.0
C399 C 0.56979 0.47603 0.6855 0.0
Tb400 Tb 0.43141 0.46822 0.436 0.0
C401 C 0.47982 0.48854 0.46174 0.0
Tb402 Tb 0.45475 0.51552 0.43675 0.0
O403 O 0.59902 0.46434 0.44116 0.0
O404 O 0.55103 0.49024 0.43075 0.0
O405 O 0.43245 0.47267 0.45606 0.0
C406 C 0.5204 0.5551 0.43939 0.0
O407 O 0.50886 0.50571 0.45558 0.0
C408 C 0.25693 0.50227 0.43681 0.0
C409 C 0.39902 0.49427 0.411 0.0
O410 O 0.45633 0.54536 0.44694 0.0
O411 O 0.54803 0.54255 0.43038 0.0
O412 O 0.28589 0.52038 0.43256 0.0
O413 O 0.33577 0.49369 0.44205 0.0
O414 O 0.44107 0.51104 0.41646 0.0
O415 O 0.37815 0.47683 0.41726 0.0
C416 C 0.37793 0.42788 0.43426 0.0
O417 O 0.46264 0.43634 0.42949 0.0
O418 O 0.32187 0.44224 0.4398 0.0
C419 C 0.62889 0.48198 0.43636 0.0
Tb420 Tb 0.31888 0.26269 0.43416 0.0
C421 C 0.32143 0.24186 0.46107 0.0
Tb422 Tb 0.30056 0.21343 0.43674 0.0
O423 O 0.15659 0.26347 0.42651 0.0
O424 O 0.20122 0.24006 0.43893 0.0
O425 O 0.35259 0.25781 0.45398 0.0
C426 C 0.22088 0.17468 0.43706 0.0
O427 O 0.28461 0.22393 0.45631 0.0
C428 C 0.50104 0.22579 0.43502 0.0
C429 C 0.33095 0.23513 0.40986 0.0
O430 O 0.29709 0.18154 0.44426 0.0
O431 O 0.18832 0.18977 0.42984 0.0
O432 O 0.47336 0.20638 0.43646 0.0
O433 O 0.41662 0.23627 0.43479 0.0
O434 O 0.29664 0.21851 0.41624 0.0
O435 O 0.35568 0.25319 0.41524 0.0
C436 C 0.36352 0.30343 0.43442 0.0
O437 O 0.4224 0.28904 0.4293 0.0
O438 O 0.28069 0.29482 0.43958 0.0
C439 C 0.12711 0.24624 0.43189 0.0
Tb440 Tb 0.47081 0.27559 0.31101 0.0
C441 C 0.50143 0.25342 0.28523 0.0
Tb442 Tb 0.48972 0.22817 0.31103 0.0
O443 O 0.63648 0.2782 0.30506 0.0
O444 O 0.58869 0.25341 0.31647 0.0
O445 O 0.46202 0.27011 0.29099 0.0
C446 C 0.54716 0.18794 0.30915 0.0
O447 O 0.52835 0.23615 0.29143 0.0
C448 C 0.29446 0.24265 0.31164 0.0
C449 C 0.44962 0.25049 0.33673 0.0
O450 O 0.4547 0.19559 0.30623 0.0
O451 O 0.60817 0.20302 0.31303 0.0
O452 O 0.32339 0.22511 0.31669 0.0
O453 O 0.37195 0.25029 0.30565 0.0
O454 O 0.48632 0.23327 0.33126 0.0
O455 O 0.42992 0.26798 0.33043 0.0
C456 C 0.42114 0.31625 0.31284 0.0
O457 O 0.35483 0.30138 0.31 0.0
O458 O 0.51436 0.30815 0.31478 0.0
C459 C 0.66587 0.26094 0.31038 0.0
Tb460 Tb 0.3444 0.48179 0.3128 0.0
C461 C 0.35255 0.50129 0.28543 0.0
Tb462 Tb 0.32889 0.52931 0.30962 0.0
O463 O 0.18006 0.48097 0.31957 0.0
O464 O 0.22722 0.50343 0.30659 0.0
O465 O 0.37844 0.48537 0.29281 0.0
C466 C 0.26908 0.5697 0.30922 0.0
O467 O 0.31912 0.51958 0.28994 0.0
C468 C 0.52229 0.5139 0.30895 0.0
C469 C 0.32858 0.50879 0.33707 0.0
O470 O 0.21096 0.55393 0.30576 0.0
O471 O 0.36092 0.56271 0.31295 0.0
O472 O 0.49342 0.53065 0.30295 0.0
O473 O 0.44609 0.50777 0.31572 0.0
O474 O 0.30096 0.52508 0.32998 0.0
O475 O 0.36165 0.49083 0.33222 0.0
C476 C 0.39087 0.4409 0.31314 0.0
O477 O 0.29774 0.44894 0.31105 0.0
O478 O 0.45877 0.45593 0.31499 0.0
C479 C 0.15096 0.49745 0.31338 0.0
Tb480 Tb 0.60532 0.97235 0.06481 0.0
C481 C 0.6466 -0.00115 0.08906 0.0
Tb482 Tb 0.6238 0.01955 0.06198 0.0
O483 O 0.77159 0.97024 0.07052 0.0
O484 O 0.72272 0.9935 0.05799 0.0
O485 O 0.60902 0.98083 0.08465 0.0
C486 C 0.67413 0.06023 0.06118 0.0
O487 O 0.66629 0.0152 0.08173 0.0
C488 C 0.4288 0.00484 0.06231 0.0
C489 C 0.58802 0.99352 0.03769 0.0
O490 O 0.58215 0.05258 0.06425 0.0
O491 O 0.739 0.04492 0.05873 0.0
O492 O 0.4577 0.02125 0.05606 0.0
O493 O 0.50636 -0.00165 0.06878 0.0
O494 O 0.62826 0.01107 0.04231 0.0
O495 O 0.56345 0.97732 0.04495 0.0
C496 C 0.55357 0.93161 0.06426 0.0
O497 O 0.6458 0.93949 0.06153 0.0
O498 O 0.48941 0.94673 0.06736 0.0
C499 C 0.8004 0.98677 0.06437 0.0
Tb500 Tb 0.77009 0.27272 0.06241 0.0
C501 C 0.7717 0.24486 0.08715 0.0
Tb502 Tb 0.7578 0.22503 0.06031 0.0
O503 O 0.60657 0.27552 0.05563 0.0
O504 O 0.65382 0.24939 0.06589 0.0
O505 O 0.79731 0.2631 0.08197 0.0
C506 C 0.70685 0.18462 0.05756 0.0
O507 O 0.74185 0.22837 0.08047 0.0
C508 C 0.94993 0.24061 0.06298 0.0
C509 C 0.75531 0.25271 0.03549 0.0
O510 O 0.80121 0.19255 0.05616 0.0
O511 O 0.64042 0.19955 0.06023 0.0
O512 O 0.92161 0.22236 0.06708 0.0
O513 O 0.87391 0.24838 0.05685 0.0
O514 O 0.73155 0.2344 0.04071 0.0
O515 O 0.78372 0.2693 0.0422 0.0
C516 C 0.82127 0.31309 0.0655 0.0
O517 O 0.73133 0.30455 0.06861 0.0
O518 O 0.8834 0.2988 0.06086 0.0
C519 C 0.57802 0.2573 0.05976 0.0
Tb520 Tb 0.59352 0.26974 0.18635 0.0
C521 C 0.64163 0.2484 0.16039 0.0
Tb522 Tb 0.63957 0.22063 0.18472 0.0
O523 O 0.76056 0.27979 0.18913 0.0
O524 O 0.72549 0.24901 0.18648 0.0
O525 O 0.58428 0.26281 0.16634 0.0
C526 C 0.72048 0.18195 0.18403 0.0
O527 O 0.68392 0.23196 0.16617 0.0
C528 C 0.42908 0.22903 0.18383 0.0
C529 C 0.60057 0.24244 0.21127 0.0
O530 O 0.65142 0.18958 0.1762 0.0
O531 O 0.74685 0.19638 0.19209 0.0
O532 O 0.47116 0.21054 0.18357 0.0
O533 O 0.50739 0.24145 0.18451 0.0
O534 O 0.63505 0.2257 0.205 0.0
O535 O 0.57388 0.26044 0.20585 0.0
C536 C 0.50582 0.30791 0.18608 0.0
O537 O 0.47453 0.29245 0.19308 0.0
O538 O 0.58493 0.30171 0.17916 0.0
C539 C 0.80315 0.26138 0.18801 0.0
Tb540 Tb 0.85814 0.97002 0.18727 0.0
C541 C 0.81713 0.99138 0.16135 0.0
Tb542 Tb 0.83456 0.01717 0.18712 0.0
O543 O 0.69122 0.96611 0.18197 0.0
O544 O 0.73798 0.9918 0.19281 0.0
O545 O 0.85503 0.97457 0.1671 0.0
C546 C 0.78052 0.05767 0.18507 0.0
O547 O 0.79897 0.00929 0.16739 0.0
C548 C 1.03228 0.00342 0.18676 0.0
C549 C 0.86027 0.99487 0.21304 0.0
O550 O 0.72346 0.04201 0.18116 0.0
O551 O 0.86661 0.05045 0.19018 0.0
O552 O 1.0033 0.021 0.19168 0.0
O553 O 0.95333 0.99543 0.18123 0.0
O554 O 0.81527 0.01095 0.20718 0.0
O555 O 0.8946 0.9782 0.20679 0.0
C556 C 0.92687 0.93048 0.18911 0.0
O557 O 0.82925 0.93668 0.19064 0.0
O558 O 0.98601 0.94658 0.18665 0.0
C559 C 0.66094 0.98367 0.18694 0.0
Tb560 Tb 0.50201 0.97463 0.93944 0.0
C561 C 0.5321 0.00367 0.96315 0.0
Tb562 Tb 0.54463 0.0231 0.93598 0.0
O563 O 0.66927 0.96402 0.93824 0.0
O564 O 0.63378 0.99503 0.93681 0.0
O565 O 0.48555 0.98667 0.95849 0.0
C566 C 0.62211 0.0613 0.93167 0.0
O567 O 0.57191 0.01883 0.95601 0.0
C568 C 0.33535 0.01537 0.93856 0.0
C569 C 0.5199 0.99327 0.91228 0.0
O570 O 0.64166 0.05014 0.94162 0.0
O571 O 0.56178 0.05068 0.92412 0.0
O572 O 0.37744 0.03374 0.93743 0.0
O573 O 0.41301 0.00276 0.93857 0.0
O574 O 0.56114 0.0108 0.91691 0.0
O575 O 0.48318 0.97785 0.91934 0.0
C576 C 0.41649 0.93674 0.94171 0.0
O577 O 0.38874 0.95063 0.93344 0.0
O578 O 0.49014 0.94445 0.94892 0.0
C579 C 0.71132 0.98238 0.93696 0.0
Tb580 Tb 0.30957 0.77341 0.93817 0.0
C581 C 0.28559 0.74374 0.96187 0.0
Tb582 Tb 0.287 0.723 0.93461 0.0
O583 O 0.13569 0.77951 0.93919 0.0
O584 O 0.19436 0.75013 0.9366 0.0
O585 O 0.32051 0.76197 0.9574 0.0
C586 C 0.21432 0.68437 0.93157 0.0
O587 O 0.25568 0.72771 0.95464 0.0
C588 C 0.48699 0.73625 0.93588 0.0
C589 C 0.32974 0.7521 0.91103 0.0
O590 O 0.29797 0.68955 0.93804 0.0
O591 O 0.1703 0.70099 0.92682 0.0
O592 O 0.46091 0.71672 0.93461 0.0
O593 O 0.40155 0.74634 0.93623 0.0
O594 O 0.29366 0.73374 0.91516 0.0
O595 O 0.35139 0.76839 0.91844 0.0
C596 C 0.36998 0.81298 0.94056 0.0
O597 O 0.30569 0.80577 0.93203 0.0
O598 O 0.40316 0.79773 0.94765 0.0
C599 C 0.10905 0.76009 0.93777 0.0
Tb600 Tb 0.49822 0.77135 0.81288 0.0
C601 C 0.52204 0.74806 0.78688 0.0
Tb602 Tb 0.51924 0.72197 0.81223 0.0
O603 O 0.66381 0.77413 0.80684 0.0
O604 O 0.61575 0.74814 0.8172 0.0
O605 O 0.48404 0.76478 0.79286 0.0
C606 C 0.58248 0.6821 0.81356 0.0
O607 O 0.55242 0.73065 0.79275 0.0
C608 C 0.31898 0.73449 0.80922 0.0
C609 C 0.47937 0.7451 0.83807 0.0
O610 O 0.62379 0.69611 0.80614 0.0
O611 O 0.50758 0.69069 0.82018 0.0
O612 O 0.34765 0.71504 0.80938 0.0
O613 O 0.40278 0.74494 0.81044 0.0
O614 O 0.52151 0.72861 0.8323 0.0
O615 O 0.45571 0.76283 0.83216 0.0
C616 C 0.44812 0.8119 0.81493 0.0
O617 O 0.53455 0.80322 0.81916 0.0
O618 O 0.38875 0.79764 0.80974 0.0
C619 C 0.69252 0.75607 0.81119 0.0
Tb620 Tb 0.37285 0.97754 0.81321 0.0
C621 C 0.34339 0.00113 0.7877 0.0
Tb622 Tb 0.35364 0.02467 0.81389 0.0
O623 O 0.20683 0.97497 0.80748 0.0
O624 O 0.2548 -0.00062 0.81923 0.0
O625 O 0.38284 0.98406 0.79311 0.0
C626 C 0.30164 0.06516 0.81249 0.0
O627 O 0.31752 0.01804 0.79424 0.0
C628 C 0.54918 0.01018 0.81405 0.0
C629 C 0.38669 0.00214 0.83931 0.0
O630 O 0.23404 0.04979 0.81261 0.0
O631 O 0.39739 0.05767 0.81309 0.0
O632 O 0.52001 0.02733 0.81953 0.0
O633 O 0.47173 0.00281 0.80792 0.0
O634 O 0.34469 0.01877 0.83382 0.0
O635 O 0.41065 0.98482 0.83296 0.0
C636 C 0.42068 0.93669 0.81483 0.0
O637 O 0.48978 0.95182 0.81462 0.0
O638 O 0.32596 0.94463 0.81416 0.0
C639 C 0.17748 0.99199 0.81308 0.0
H640 H 0.84539 0.41144 0.07055 0.0
H641 H 0.12954 0.40134 0.04851 0.0
H642 H 0.09802 0.36369 0.04872 0.0
H643 H 0.98967 0.33348 0.05517 0.0
H644 H 0.70321 0.34347 0.07678 0.0
H645 H 0.73582 0.38116 0.07685 0.0
C646 C 0.90002 0.40097 0.06576 0.0
C647 C 0.98954 0.40915 0.05951 0.0
C648 C 0.88135 0.37928 0.06592 0.0
C649 C 0.05987 0.39542 0.05336 0.0
C650 C 1.04209 0.37388 0.05351 0.0
C651 C 0.93486 0.34392 0.05996 0.0
C652 C 0.84452 0.33573 0.06602 0.0
C653 C 0.95331 0.3656 0.05979 0.0
C654 C 0.77354 0.34943 0.07208 0.0
C655 C 0.79199 0.37098 0.07209 0.0
H656 H 0.35828 0.91311 0.06648 0.0
H657 H 0.69156 0.89947 0.06072 0.0
H658 H 0.65234 0.86212 0.05966 0.0
H659 H 0.5229 0.83308 0.06039 0.0
H660 H 0.18883 0.84683 0.06538 0.0
H661 H 0.22834 0.88413 0.0667 0.0
C662 C 0.42214 0.90193 0.06502 0.0
C663 C 0.52766 0.90903 0.06374 0.0
C664 C 0.39879 0.88042 0.06425 0.0
C665 C 0.60961 0.89439 0.06176 0.0
C666 C 0.58728 0.87301 0.06114 0.0
C667 C 0.45894 0.84428 0.06173 0.0
C668 C 0.35318 0.8372 0.06279 0.0
C669 C 0.48216 0.86581 0.06237 0.0
C670 C 0.27096 0.85188 0.0645 0.0
C671 C 0.29347 0.87324 0.06529 0.0
H672 H 0.80601 0.89567 0.19213 0.0
H673 H 0.1301 0.91622 0.18654 0.0
H674 H 0.19121 0.87992 0.18622 0.0
H675 H 0.152 0.84229 0.18713 0.0
H676 H 0.82769 0.82163 0.19233 0.0
H677 H 0.76695 0.85796 0.19321 0.0
C678 C 0.89004 0.89216 0.1909 0.0
C679 C 0.96357 0.90855 0.18938 0.0
C680 C 0.92438 0.87125 0.19062 0.0
C681 C 0.0721 0.90384 0.18775 0.0
C682 C 0.10702 0.8831 0.18755 0.0
C683 C 0.06808 0.84577 0.18848 0.0
C684 C 0.99433 0.82936 0.18966 0.0
C685 C 1.03384 0.86668 0.18891 0.0
C686 C 0.88587 0.83403 0.19139 0.0
C687 C 0.85116 0.85479 0.19189 0.0
H688 H 0.28605 0.39586 0.19438 0.0
H689 H 0.55494 0.41556 0.17208 0.0
H690 H 0.6153 0.37933 0.17029 0.0
H691 H 0.59277 0.34209 0.17523 0.0
H692 H 0.32805 0.3223 0.19816 0.0
H693 H 0.2644 0.35846 0.1995 0.0
C694 C 0.35782 0.39218 0.18913 0.0
C695 C 0.41599 0.40833 0.18335 0.0
C696 C 0.39252 0.3713 0.18823 0.0
C697 C 0.50894 0.4034 0.17661 0.0
C698 C 0.54337 0.38268 0.17557 0.0
C699 C 0.52083 0.34569 0.18047 0.0
C700 C 0.46486 0.32958 0.18655 0.0
C701 C 0.4859 0.36652 0.18135 0.0
C702 C 0.37234 0.33446 0.19339 0.0
C703 C 0.33608 0.35512 0.19417 0.0
H704 H 0.98013 0.59757 0.93015 0.0
H705 H 0.30503 0.57553 0.92953 0.0
H706 H 0.37007 0.61166 0.92948 0.0
H707 H 0.33337 0.64944 0.9307 0.0
H708 H 1.00867 0.67149 0.92933 0.0
H709 H 0.94365 0.63536 0.92898 0.0
C710 C 0.0651 0.60077 0.92991 0.0
C711 C 0.13812 0.58413 0.92998 0.0
C712 C 0.10138 0.62147 0.92955 0.0
C713 C 0.24786 0.58824 0.92947 0.0
C714 C 0.28483 0.60882 0.9295 0.0
C715 C 0.24846 0.64624 0.93023 0.0
C716 C 0.17545 0.66288 0.93018 0.0
C717 C 0.21226 0.62554 0.9297 0.0
C718 C 0.06583 0.65878 0.92938 0.0
C719 C 1.02886 0.63819 0.92922 0.0
H720 H 0.65537 0.15737 0.91906 0.0
H721 H 0.83467 0.157 0.95365 0.0
H722 H 0.8115 0.11924 0.9554 0.0
H723 H 0.73719 0.08627 0.9473 0.0
H724 H 0.56259 0.0864 0.91238 0.0
H725 H 0.58808 0.12409 0.91045 0.0
C726 C 0.68896 0.14898 0.92698 0.0
C727 C 0.74581 0.15991 0.93626 0.0
C728 C 0.6769 0.12717 0.92782 0.0
C729 C 0.79022 0.14888 0.9464 0.0
C730 C 0.7772 0.12729 0.9474 0.0
C731 C 0.70577 0.09455 0.93922 0.0
C732 C 0.64807 0.08362 0.93001 0.0
C733 C 0.72058 0.11625 0.93818 0.0
C734 C 0.60757 0.0945 0.91959 0.0
C735 C 0.62162 0.11607 0.9185 0.0
H736 H 0.26772 0.16345 0.81376 0.0
H737 H 0.93943 0.14926 0.80521 0.0
H738 H 0.9796 0.11188 0.80537 0.0
H739 H 0.10827 0.08309 0.8082 0.0
H740 H 0.43774 0.09748 0.81601 0.0
H741 H 0.39726 0.1348 0.81588 0.0
C742 C 0.20524 0.15214 0.81191 0.0
C743 C 0.10088 0.15902 0.80951 0.0
C744 C 0.22913 0.13069 0.8119 0.0
C745 C 1.02051 0.14428 0.80707 0.0
C746 C 1.04334 0.12291 0.80718 0.0
C747 C 0.17094 0.09444 0.80986 0.0
C748 C 0.27559 0.08761 0.81215 0.0
C749 C 0.14731 0.11592 0.80963 0.0
C750 C 0.35646 0.10241 0.81422 0.0
C751 C 0.33342 0.12374 0.81416 0.0
H752 H 0.73276 0.66088 0.79988 0.0
H753 H 0.49168 0.65284 0.82839 0.0
H754 H 0.52836 0.61547 0.82915 0.0
H755 H 0.62828 0.58485 0.82173 0.0
H756 H 0.87186 0.59249 0.79353 0.0
H757 H 0.83481 0.63001 0.79257 0.0
C758 C 0.68871 0.65091 0.80627 0.0
C759 C 0.60968 0.65962 0.81407 0.0
C760 C 0.7103 0.6293 0.80668 0.0
C761 C 0.55305 0.64654 0.8223 0.0
C762 C 0.57377 0.62513 0.82273 0.0
C763 C 0.6729 0.59474 0.81535 0.0
C764 C 0.75233 0.58594 0.80769 0.0
C765 C 0.65193 0.61631 0.81495 0.0
C766 C 0.81008 0.59893 0.79951 0.0
C767 C 0.78906 0.62039 0.79897 0.0
H768 H 0.10731 0.89948 0.57351 0.0
H769 H 0.81249 0.91667 0.55532 0.0
H770 H 0.7641 0.87991 0.55323 0.0
H771 H 0.80551 0.84298 0.55638 0.0
H772 H 0.09348 0.8251 0.57571 0.0
H773 H 0.14527 0.862 0.57754 0.0
C774 C 1.03243 0.89511 0.56914 0.0
C775 C 0.96362 0.91071 0.56453 0.0
C776 C 1.00431 0.87387 0.56813 0.0
C777 C 0.86656 0.90493 0.55895 0.0
C778 C 0.839 0.88391 0.55772 0.0
C779 C 0.87989 0.84716 0.56095 0.0
C780 C 0.94625 0.83143 0.5658 0.0
C781 C 0.90738 0.86828 0.56222 0.0
C782 C 1.04146 0.83701 0.57188 0.0
C783 C 0.07087 0.85807 0.57292 0.0
H784 H 0.25899 0.34627 0.55416 0.0
H785 H 0.55586 0.32531 0.57024 0.0
H786 H 0.61668 0.36157 0.57212 0.0
H787 H 0.58466 0.39938 0.56919 0.0
H788 H 0.28295 0.42012 0.55423 0.0
H789 H 0.22433 0.3839 0.55199 0.0
C790 C 0.33717 0.34967 0.55802 0.0
C791 C 0.40333 0.33321 0.56196 0.0
C792 C 0.37034 0.37053 0.55934 0.0
C793 C 0.50377 0.33778 0.56712 0.0
C794 C 0.53844 0.35849 0.5682 0.0
C795 C 0.50601 0.39591 0.56548 0.0
C796 C 0.43826 0.41236 0.56185 0.0
C797 C 0.4723 0.37501 0.56437 0.0
C798 C 0.33639 0.40771 0.55711 0.0
C799 C 0.30295 0.38701 0.55579 0.0
H800 H 0.90246 0.32765 0.70048 0.0
H801 H 0.92763 0.32332 0.66015 0.0
H802 H 0.895 0.36092 0.65829 0.0
H803 H 0.86394 0.39527 0.66828 0.0
H804 H 0.82675 0.39892 0.7085 0.0
H805 H 0.86045 0.36141 0.71032 0.0
C806 C 0.89984 0.33494 0.69128 0.0
C807 C 0.91761 0.32284 0.68047 0.0
C808 C 0.88012 0.35646 0.6903 0.0
C809 C 0.91359 0.33237 0.6686 0.0
C810 C 0.89566 0.35386 0.66755 0.0
C811 C 0.86385 0.3878 0.67742 0.0
C812 C 0.84438 0.39975 0.68827 0.0
C813 C 0.87998 0.36611 0.67835 0.0
C814 C 0.84222 0.38996 0.70005 0.0
C815 C 0.86121 0.36854 0.70109 0.0
H816 H 0.3937 0.82431 0.6908 0.0
H817 H 0.73055 0.83757 0.68985 0.0
H818 H 0.69337 0.87506 0.68844 0.0
H819 H 0.56344 0.9043 0.6875 0.0
H820 H 0.22781 0.89069 0.69062 0.0
H821 H 0.26541 0.85329 0.69105 0.0
C822 C 0.45875 0.83546 0.69032 0.0
C823 C 0.56444 0.82829 0.69039 0.0
C824 C 0.43679 0.85696 0.68982 0.0
C825 C 0.64835 0.84281 0.68987 0.0
C826 C 0.62716 0.86422 0.68901 0.0
C827 C 0.49904 0.89305 0.6882 0.0
C828 C 0.39314 0.90009 0.6889 0.0
C829 C 0.52158 0.87151 0.68894 0.0
C830 C 0.31001 0.88552 0.69004 0.0
C831 C 0.33137 0.86415 0.6903 0.0
H832 H 1.01916 0.08579 0.42676 0.0
H833 H 0.26499 0.06733 0.45282 0.0
H834 H 0.32207 0.10374 0.45492 0.0
H835 H 0.30193 0.14095 0.44932 0.0
H836 H 0.05668 0.15927 0.42314 0.0
H837 H 0.99895 0.12292 0.42117 0.0
C838 C 0.08546 0.08975 0.43286 0.0
C839 C 0.13799 0.07391 0.43961 0.0
C840 C 0.11747 0.11074 0.43405 0.0
C841 C 0.22347 0.07925 0.44751 0.0
C842 C 0.25595 0.10008 0.44874 0.0
C843 C 0.23551 0.13696 0.44324 0.0
C844 C 0.18342 0.15277 0.4364 0.0
C845 C 0.20339 0.11597 0.44208 0.0
C846 C 0.09791 0.14739 0.42851 0.0
C847 C 0.06504 0.12659 0.42736 0.0
H848 H 0.65383 0.64718 0.45391 0.0
H849 H 0.69526 0.65111 0.41376 0.0
H850 H 0.64111 0.61461 0.41147 0.0
H851 H 0.58499 0.58128 0.42094 0.0
H852 H 0.52918 0.57807 0.46086 0.0
H853 H 0.58612 0.61446 0.46324 0.0
C854 C 0.65033 0.64002 0.44467 0.0
C855 C 0.67888 0.65172 0.43403 0.0
C856 C 0.61716 0.61913 0.44341 0.0
C857 C 0.67333 0.64239 0.42209 0.0
C858 C 0.64283 0.62151 0.42078 0.0
C859 C 0.5856 0.5886 0.43015 0.0
C860 C 0.55416 0.57706 0.44073 0.0
C861 C 0.6153 0.60968 0.43137 0.0
C862 C 0.55343 0.58671 0.45259 0.0
C863 C 0.58593 0.60749 0.45395 0.0
H864 H 0.37135 0.60351 0.3193 0.0
H865 H 0.09278 0.58581 0.29802 0.0
H866 H 1.03721 0.62235 0.29683 0.0
H867 H 0.06615 0.65933 0.30199 0.0
H868 H 0.33855 0.67729 0.32423 0.0
H869 H 0.39854 0.6408 0.32486 0.0
C870 C 0.29858 0.60771 0.3144 0.0
C871 C 0.23636 0.59197 0.30872 0.0
C872 C 0.26617 0.62881 0.31391 0.0
C873 C 0.14197 0.5976 0.30247 0.0
C874 C 0.11022 0.61851 0.30177 0.0
C875 C 0.139 0.65527 0.30692 0.0
C876 C 0.19823 0.67099 0.313 0.0
C877 C 0.17153 0.63424 0.30746 0.0
C878 C 0.29173 0.66547 0.31947 0.0
C879 C 0.32591 0.6446 0.31983 0.0
H880 H 0.58824 0.08953 0.30753 0.0
H881 H 0.91252 0.1047 0.31752 0.0
H882 H 0.86992 0.14192 0.31708 0.0
H883 H 0.7398 0.1703 0.31411 0.0
H884 H 0.41656 0.15534 0.30359 0.0
H885 H 0.45918 0.11806 0.30391 0.0
C886 C 0.64935 0.10102 0.3096 0.0
C887 C 0.75316 0.09441 0.3126 0.0
C888 C 0.6245 0.12247 0.30921 0.0
C889 C 0.83191 0.10942 0.31519 0.0
C890 C 0.80766 0.13072 0.31494 0.0
C891 C 0.67897 0.15885 0.31184 0.0
C892 C 0.57525 0.16552 0.30886 0.0
C893 C 0.70419 0.13744 0.31199 0.0
C894 C 0.4971 0.15056 0.30591 0.0
C895 C 0.52134 0.12924 0.30612 0.0
H896 H 0.24754 0.51683 0.10189 0.0
H897 H 1.04768 0.46195 0.10318 0.0
H898 H 0.10049 0.45559 0.12481 0.0
H899 H 0.1971 0.46634 0.14387 0.0
H900 H 0.38975 0.52199 0.14305 0.0
H901 H 0.34854 0.527 0.12078 0.0
C902 C 0.21509 0.50357 0.10692 0.0
C903 C 0.14324 0.49003 0.10088 0.0
C904 C 0.24594 0.49989 0.11945 0.0
C905 C 0.103 0.47274 0.10755 0.0
C906 C 0.13343 0.46897 0.11995 0.0
C907 C 0.23218 0.4792 0.13869 0.0
C908 C 0.29742 0.4936 0.14496 0.0
C909 C 0.20469 0.48244 0.12602 0.0
C910 C 0.34012 0.51059 0.1383 0.0
C911 C 0.31577 0.51358 0.12562 0.0
H912 H 0.1899 0.72002 0.10503 0.0
H913 H 0.25246 0.78629 0.1032 0.0
H914 H 0.2149 0.7898 0.1255 0.0
H915 H 0.16712 0.77415 0.14576 0.0
H916 H 0.11245 0.70776 0.14795 0.0
H917 H 0.14291 0.7043 0.12538 0.0
C918 C 0.19539 0.73521 0.10951 0.0
C919 C 0.22444 0.75279 0.10241 0.0
C920 C 0.17451 0.73718 0.12245 0.0
C921 C 0.23118 0.77238 0.10841 0.0
C922 C 0.20923 0.77449 0.12119 0.0
C923 C 0.16086 0.75899 0.14125 0.0
C924 C 0.13735 0.74129 0.14848 0.0
C925 C 0.18097 0.75701 0.12832 0.0
C926 C 0.13092 0.72165 0.14257 0.0
C927 C 0.14836 0.71964 0.12967 0.0
H928 H 0.90294 0.46994 0.85377 0.0
H929 H 0.88846 0.53714 0.85053 0.0
H930 H 0.92843 0.54083 0.87276 0.0
H931 H 0.96593 0.52528 0.89322 0.0
H932 H 0.9744 0.45821 0.89702 0.0
H933 H 0.9388 0.45425 0.87455 0.0
C934 C 0.90858 0.48537 0.85794 0.0
C935 C 0.89234 0.50319 0.85045 0.0
C936 C 0.93078 0.48747 0.87085 0.0
C937 C 0.89964 0.52309 0.85603 0.0
C938 C 0.92296 0.52527 0.86877 0.0
C939 C 0.96082 0.50978 0.88913 0.0
C940 C 0.97335 0.4921 0.89679 0.0
C941 C 0.93859 0.5076 0.87627 0.0
C942 C 0.96492 0.47212 0.89135 0.0
C943 C 0.94459 0.46983 0.87849 0.0
H944 H 0.91979 0.27549 0.85281 0.0
H945 H 0.97296 0.20892 0.85038 0.0
H946 H 0.92538 0.20492 0.87233 0.0
H947 H 0.87233 0.22004 0.89245 0.0
H948 H 0.82581 0.28661 0.89556 0.0
H949 H 0.86617 0.29078 0.87323 0.0
C950 C 0.92093 0.26014 0.85709 0.0
C951 C 0.95065 0.24261 0.84991 0.0
C952 C 0.89423 0.25786 0.86989 0.0
C953 C 0.95163 0.2228 0.85565 0.0
C954 C 0.92389 0.22041 0.86824 0.0
C955 C 0.8699 0.23544 0.88823 0.0
C956 C 0.84562 0.25293 0.89566 0.0
C957 C 0.89541 0.2378 0.87546 0.0
C958 C 0.84438 0.27284 0.89006 0.0
C959 C 0.86758 0.27526 0.87728 0.0
H960 H 0.12786 0.964 0.60553 0.0
H961 H 1.02702 0.02836 0.60678 0.0
H962 H 0.06698 0.03001 0.62922 0.0
H963 H 0.13982 0.01389 0.64814 0.0
H964 H 0.24991 0.94999 0.64689 0.0
H965 H 0.19813 0.94751 0.62482 0.0
C966 C 0.11296 0.97822 0.61081 0.0
C967 C 0.07406 -0.00401 0.60459 0.0
C968 C 0.13942 0.97926 0.62365 0.0
C969 C 0.0569 0.01448 0.61142 0.0
C970 C 0.08011 0.01546 0.62422 0.0
C971 C 0.15245 -0.00062 0.64308 0.0
C972 C 0.19926 0.98222 0.6492 0.0
C973 C 0.12324 -0.00192 0.63038 0.0
C974 C 0.21483 0.96355 0.64243 0.0
C975 C 0.1848 0.96206 0.6298 0.0
H976 H 0.2122 0.21742 0.60304 0.0
H977 H 0.23269 0.28471 0.60194 0.0
H978 H 0.18023 0.28645 0.62408 0.0
H979 H 0.12587 0.26878 0.64365 0.0
H980 H 0.11071 0.20143 0.6446 0.0
H981 H 0.16264 0.19986 0.62251 0.0
C982 C 0.20552 0.23252 0.6076 0.0
C983 C 0.2261 0.25092 0.60079 0.0
C984 C 0.17529 0.2334 0.62028 0.0
C985 C 0.21785 0.27029 0.60695 0.0
C986 C 0.18722 0.2713 0.6196 0.0
C987 C 0.13301 0.25377 0.63899 0.0
C988 C 0.11347 0.23524 0.64574 0.0
C989 C 0.16491 0.25295 0.62632 0.0
C990 C 0.12504 0.21591 0.63962 0.0
C991 C 0.15491 0.215 0.627 0.0
H992 H 0.9455 0.02255 0.39774 0.0
H993 H 0.97198 0.95535 0.39697 0.0
H994 H 0.93543 0.95518 0.37445 0.0
H995 H 0.8962 0.97403 0.35493 0.0
H996 H 0.86285 0.04113 0.35577 0.0
H997 H 0.90093 0.04136 0.37826 0.0
C998 C 0.94388 0.00789 0.39262 0.0
C999 C 0.9621 0.98901 0.39903 0.0
C1000 C 0.92085 0.00785 0.37968 0.0
C1001 C 0.95811 0.97011 0.39229 0.0
C1002 C 0.93723 0.96998 0.37939 0.0
C1003 C 0.89693 0.98871 0.36002 0.0
C1004 C 0.87672 0.00752 0.35363 0.0
C1005 C 0.91829 0.98875 0.37299 0.0
C1006 C 0.87753 0.02638 0.36043 0.0
C1007 C 0.89981 0.02656 0.37331 0.0
H1008 H 0.97426 0.71934 0.35421 0.0
H1009 H 1.02052 0.78608 0.35584 0.0
H1010 H 0.97644 0.78616 0.37814 0.0
H1011 H 0.9214 0.76766 0.39699 0.0
H1012 H 0.8681 0.70107 0.39566 0.0
H1013 H 0.917 0.70061 0.3734 0.0
C1014 C 0.97572 0.73382 0.35952 0.0
C1015 C 1.00096 0.75266 0.35342 0.0
C1016 C 0.94784 0.73385 0.37233 0.0
C1017 C 1.00102 0.77139 0.36032 0.0
C1018 C 0.97572 0.77147 0.37307 0.0
C1019 C 0.9203 0.75299 0.39188 0.0
C1020 C 0.89108 0.73444 0.39803 0.0
C1021 C 0.94813 0.75284 0.37913 0.0
C1022 C 0.88966 0.71563 0.39117 0.0
C1023 C 0.91816 0.71533 0.37844 0.0
H1024 H 0.60334 0.46518 0.60308 0.0
H1025 H 0.52724 0.53087 0.6037 0.0
H1026 H 0.5657 0.53241 0.62618 0.0
H1027 H 0.63144 0.51566 0.64535 0.0
H1028 H 0.71668 0.45031 0.64457 0.0
H1029 H 0.66497 0.44814 0.62252 0.0
C1030 C 0.59338 0.47971 0.60821 0.0
C1031 C 0.56214 0.49785 0.60179 0.0
C1032 C 0.61891 0.48064 0.62107 0.0
C1033 C 0.5513 0.51669 0.60847 0.0
C1034 C 0.57363 0.51761 0.62131 0.0
C1035 C 0.63851 0.50092 0.64039 0.0
C1036 C 0.67861 0.48325 0.64663 0.0
C1037 C 0.60952 0.49978 0.62765 0.0
C1038 C 0.68699 0.46426 0.64001 0.0
C1039 C 0.657 0.46295 0.62738 0.0
H1040 H 0.74204 0.77234 0.60543 0.0
H1041 H 0.83189 0.70755 0.60195 0.0
H1042 H 0.7989 0.70219 0.62432 0.0
H1043 H 0.73895 0.71558 0.64475 0.0
H1044 H 0.64157 0.7801 0.64801 0.0
H1045 H 0.68207 0.78576 0.62591 0.0
C1046 C 0.75577 0.75715 0.60963 0.0
C1047 C 0.78983 0.74042 0.60208 0.0
C1048 C 0.73391 0.75401 0.62244 0.0
C1049 C 0.80554 0.72069 0.60758 0.0
C1050 C 0.78645 0.71759 0.62036 0.0
C1051 C 0.72632 0.73087 0.64064 0.0
C1052 C 0.68686 0.74732 0.64809 0.0
C1053 C 0.74932 0.73407 0.62786 0.0
C1054 C 0.67117 0.76705 0.64254 0.0
C1055 C 0.6948 0.77038 0.62988 0.0
H1056 H 0.31564 0.47726 0.35363 0.0
H1057 H 0.34402 0.54429 0.35159 0.0
H1058 H 0.36684 0.54599 0.3745 0.0
H1059 H 0.38902 0.52787 0.39498 0.0
H1060 H 0.3582 0.46066 0.39623 0.0
H1061 H 0.3268 0.45967 0.37375 0.0
C1062 C 0.32632 0.4923 0.35818 0.0
C1063 C 0.32923 0.51059 0.35092 0.0
C1064 C 0.33989 0.49311 0.37122 0.0
C1065 C 0.34131 0.52997 0.35699 0.0
C1066 C 0.35509 0.53092 0.37006 0.0
C1067 C 0.37526 0.51304 0.39032 0.0
C1068 C 0.37678 0.49437 0.39733 0.0
C1069 C 0.35636 0.51252 0.37726 0.0
C1070 C 0.35758 0.4753 0.39114 0.0
C1071 C 0.33963 0.47467 0.37825 0.0
H1072 H 0.35985 0.26733 0.39391 0.0
H1073 H 0.33673 0.20008 0.39476 0.0
H1074 H 0.37392 0.19872 0.37213 0.0
H1075 H 0.41636 0.21694 0.35216 0.0
H1076 H 0.43601 0.2843 0.35201 0.0
H1077 H 0.39799 0.28522 0.37441 0.0
C1078 C 0.36289 0.25229 0.38921 0.0
C1079 C 0.34614 0.23381 0.39607 0.0
C1080 C 0.38446 0.25166 0.37633 0.0
C1081 C 0.34911 0.21455 0.38971 0.0
C1082 C 0.3709 0.21377 0.37679 0.0
C1083 C 0.41286 0.23178 0.35707 0.0
C1084 C 0.42936 0.25052 0.35042 0.0
C1085 C 0.38954 0.23225 0.37001 0.0
C1086 C 0.42332 0.26965 0.35687 0.0
C1087 C 0.40158 0.27022 0.36969 0.0
H1088 H 0.76025 0.02259 0.14515 0.0
H1089 H 0.81213 0.95597 0.14707 0.0
H1090 H 0.75914 0.95229 0.12518 0.0
H1091 H 0.69792 0.96783 0.10537 0.0
H1092 H 0.65317 0.03451 0.10305 0.0
H1093 H 0.70253 0.03825 0.12516 0.0
C1094 C 0.76036 0.00728 0.14078 0.0
C1095 C 0.79042 0.98963 0.1478 0.0
C1096 C 0.73025 0.00522 0.12809 0.0
C1097 C 0.79013 0.9699 0.14193 0.0
C1098 C 0.75928 0.96772 0.12939 0.0
C1099 C 0.69801 0.98314 0.10974 0.0
C1100 C 0.67115 0.00083 0.10261 0.0
C1101 C 0.72881 0.98525 0.12239 0.0
C1102 C 0.67349 0.02063 0.10835 0.0
C1103 C 0.70184 0.02279 0.12099 0.0
H1104 H 0.71163 0.27477 0.10377 0.0
H1105 H 0.81453 0.21063 0.10125 0.0
H1106 H 0.78553 0.20613 0.1238 0.0
H1107 H 0.72303 0.21993 0.14399 0.0
H1108 H 0.6097 0.28352 0.14631 0.0
H1109 H 0.64954 0.28866 0.12408 0.0
C1110 C 0.72932 0.25994 0.10823 0.0
C1111 C 0.76597 0.2431 0.10094 0.0
C1112 C 0.70899 0.25727 0.12111 0.0
C1113 C 0.78649 0.22381 0.10673 0.0
C1114 C 0.76955 0.22122 0.11959 0.0
C1115 C 0.70713 0.23493 0.13965 0.0
C1116 C 0.6631 0.25127 0.14682 0.0
C1117 C 0.72925 0.23774 0.12684 0.0
C1118 C 0.64269 0.27059 0.14101 0.0
C1119 C 0.66599 0.2736 0.1283 0.0
H1120 H 0.43372 0.97037 0.85551 0.0
H1121 H 0.39743 0.03738 0.8535 0.0
H1122 H 0.4441 0.04057 0.87559 0.0
H1123 H 0.49108 0.0245 0.89565 0.0
H1124 H 0.51706 0.95749 0.8983 0.0
H1125 H 0.47999 0.95416 0.8758 0.0
C1126 C 0.43597 0.98565 0.85992 0.0
C1127 C 0.41156 0.00356 0.85286 0.0
C1128 C 0.46181 0.98741 0.87273 0.0
C1129 C 0.41468 0.02327 0.85872 0.0
C1130 C 0.44201 0.02516 0.87136 0.0
C1131 C 0.49015 0.0092 0.89126 0.0
C1132 C 0.50762 0.9913 0.89856 0.0
C1133 C 0.46549 0.00737 0.87846 0.0
C1134 C 0.50401 0.97151 0.89283 0.0
C1135 C 0.48253 0.96959 0.87999 0.0
H1136 H 0.43049 0.7763 0.85469 0.0
H1137 H 0.47332 0.70949 0.85205 0.0
H1138 H 0.42716 0.70573 0.87415 0.0
H1139 H 0.37441 0.72123 0.89429 0.0
H1140 H 0.33854 0.78807 0.89733 0.0
H1141 H 0.38158 0.79194 0.87506 0.0
C1142 C 0.42989 0.76092 0.85895 0.0
C1143 C 0.45548 0.74324 0.85167 0.0
C1144 C 0.404 0.75883 0.87175 0.0
C1145 C 0.45474 0.72343 0.8574 0.0
C1146 C 0.42783 0.72122 0.87006 0.0
C1147 C 0.3752 0.73663 0.89006 0.0
C1148 C 0.35256 0.75431 0.89745 0.0
C1149 C 0.40204 0.73878 0.87731 0.0
C1150 C 0.35571 0.77419 0.89186 0.0
C1151 C 0.38033 0.77642 0.87912 0.0
H1152 H 0.33517 0.65226 0.06128 0.0
H1153 H 1.00563 0.66794 0.06803 0.0
H1154 H 0.96012 0.63075 0.06901 0.0
H1155 H 1.01382 0.59358 0.06771 0.0
H1156 H 0.34223 0.57804 0.0601 0.0
H1157 H 0.38842 0.61519 0.05973 0.0
C1158 C 0.2534 0.64753 0.06299 0.0
C1159 C 0.17389 0.66289 0.06461 0.0
C1160 C 0.22769 0.62607 0.06339 0.0
C1161 C 0.06829 0.65647 0.06675 0.0
C1162 C 1.04228 0.63518 0.06732 0.0
C1163 C 0.09558 0.59835 0.06602 0.0
C1164 C 0.17464 0.58302 0.06399 0.0
C1165 C 0.12124 0.61982 0.06563 0.0
C1166 C 0.27997 0.58947 0.06171 0.0
C1167 C 0.30638 0.61074 0.06149 0.0
H1168 H 1.04151 0.64774 0.18456 0.0
H1169 H 0.37238 0.66385 0.19002 0.0
H1170 H 0.4206 0.62679 0.1901 0.0
H1171 H 0.368 0.5899 0.18868 0.0
H1172 H 1.03742 0.57386 0.18291 0.0
H1173 H 0.98915 0.6109 0.18295 0.0
C1174 C 0.12415 0.6431 0.18574 0.0
C1175 C 0.20346 0.65836 0.18728 0.0
C1176 C 0.15098 0.62186 0.18577 0.0
C1177 C 0.3102 0.65227 0.18881 0.0
C1178 C 0.33767 0.63113 0.18888 0.0
C1179 C 0.28541 0.59456 0.18747 0.0
C1180 C 0.20615 0.57932 0.18583 0.0
C1181 C 0.25865 0.61581 0.18739 0.0
C1182 C 0.09955 0.58542 0.1842 0.0
C1183 C 0.07204 0.60655 0.18421 0.0
H1184 H 0.77112 0.34253 0.94837 0.0
H1185 H 1.04723 0.32817 0.92575 0.0
H1186 H 0.08974 0.36536 0.92422 0.0
H1187 H 1.04659 0.40183 0.92899 0.0
H1188 H 0.77441 0.4165 0.95217 0.0
H1189 H 0.73144 0.37921 0.9538 0.0
C1190 C 0.84079 0.34759 0.94315 0.0
C1191 C 0.90594 0.33274 0.93714 0.0
C1192 C 0.86486 0.36897 0.94238 0.0
C1193 C 0.99615 0.33938 0.93045 0.0
C1194 C 1.02023 0.36061 0.92955 0.0
C1195 C 0.97772 0.39685 0.93438 0.0
C1196 C 0.91314 0.41178 0.94039 0.0
C1197 C 0.95477 0.37551 0.9354 0.0
C1198 C 0.82491 0.4052 0.94745 0.0
C1199 C 0.80052 0.38394 0.94838 0.0
H1200 H 0.76723 0.40224 0.80948 0.0
H1201 H 0.09758 0.41664 0.81668 0.0
H1202 H 0.14003 0.37927 0.81731 0.0
H1203 H 0.08318 0.34241 0.81559 0.0
H1204 H 0.75378 0.32817 0.80767 0.0
H1205 H 0.7108 0.36549 0.80756 0.0
C1206 C 0.8485 0.39719 0.81122 0.0
C1207 C 0.9292 0.41219 0.81307 0.0
C1208 C 0.87234 0.37568 0.81143 0.0
C1209 C 1.03414 0.40541 0.81523 0.0
C1210 C 0.05836 0.38404 0.8156 0.0
C1211 C 1.00194 0.3475 0.81388 0.0
C1212 C 0.9216 0.33254 0.81168 0.0
C1213 C 0.97816 0.36902 0.81368 0.0
C1214 C 0.81691 0.33936 0.8094 0.0
C1215 C 0.79236 0.36071 0.80933 0.0
H1216 H 0.25145 0.08437 0.55487 0.0
H1217 H 0.95415 0.09045 0.57497 0.0
H1218 H 0.97216 0.12836 0.57506 0.0
H1219 H 0.07302 0.15987 0.56964 0.0
H1220 H 0.36878 0.15423 0.54923 0.0
H1221 H 0.35069 0.11619 0.54896 0.0
C1222 C 0.19094 0.09406 0.55926 0.0
C1223 C 0.10196 0.08471 0.56494 0.0
C1224 C 0.20131 0.11592 0.55919 0.0
C1225 C 1.02352 0.09734 0.57054 0.0
C1226 C 1.03364 0.11902 0.5706 0.0
C1227 C 0.13315 0.15029 0.5651 0.0
C1228 C 0.22201 0.15973 0.55949 0.0
C1229 C 0.12219 0.12848 0.56497 0.0
C1230 C 0.2995 0.14722 0.55361 0.0
C1231 C 0.28937 0.12549 0.55347 0.0
H1232 H 0.06836 0.14387 0.70239 0.0
H1233 H 0.2819 0.15478 0.67131 0.0
H1234 H 0.3042 0.11714 0.66842 0.0
H1235 H 0.26033 0.08109 0.67441 0.0
H1236 H 1.04931 0.0698 0.70565 0.0
H1237 H 1.02727 0.10754 0.7087 0.0
C1238 C 0.12071 0.13798 0.69509 0.0
C1239 C 0.17386 0.15211 0.68711 0.0
C1240 C 0.13223 0.11624 0.69339 0.0
C1241 C 0.24063 0.14425 0.67761 0.0
C1242 C 0.25289 0.12271 0.67591 0.0
C1243 C 0.2088 0.08689 0.68182 0.0
C1244 C 0.15561 0.07267 0.68972 0.0
C1245 C 0.19824 0.10857 0.68365 0.0
C1246 C 0.09036 0.08043 0.69939 0.0
C1247 C 0.07826 0.10201 0.70117 0.0
H1248 H 0.8304 0.82998 0.45005 0.0
H1249 H 0.0875 0.81745 0.42421 0.0
H1250 H 0.11562 0.85506 0.42136 0.0
H1251 H 0.06419 0.8916 0.42602 0.0
H1252 H 0.80185 0.90362 0.45125 0.0
H1253 H 0.77755 0.86615 0.45442 0.0
C1254 C 0.89332 0.8355 0.44389 0.0
C1255 C 0.95752 0.82102 0.43743 0.0
C1256 C 0.90699 0.85705 0.44208 0.0
C1257 C 1.03763 0.82834 0.42934 0.0
C1258 C 0.05329 0.84982 0.42767 0.0
C1259 C 1.00134 0.88596 0.43214 0.0
C1260 C 0.93467 0.90033 0.43837 0.0
C1261 C 0.9878 0.86433 0.43391 0.0
C1262 C 0.85381 0.89286 0.44631 0.0
C1263 C 0.84021 0.87144 0.44817 0.0
H1264 H 1.05187 0.85143 0.32655 0.0
H1265 H 0.78488 0.83723 0.30247 0.0
H1266 H 0.74703 0.8746 0.30016 0.0
H1267 H 0.79265 0.91135 0.30465 0.0
H1268 H 0.06538 0.92546 0.32786 0.0
H1269 H 0.09904 0.88809 0.33078 0.0
C1270 C 0.9848 0.85653 0.32089 0.0
C1271 C 0.92057 0.84164 0.31476 0.0
C1272 C 0.9654 0.87801 0.31936 0.0
C1273 C 0.83499 0.84843 0.30731 0.0
C1274 C 0.81364 0.86978 0.30596 0.0
C1275 C 0.85954 0.90621 0.31033 0.0
C1276 C 0.92654 0.9211 0.31604 0.0
C1277 C 0.87882 0.88471 0.31187 0.0
C1278 C 1.01301 0.91428 0.32335 0.0
C1279 C 1.032 0.89293 0.32505 0.0
H1280 H 0.50758 0.59494 0.56927 0.0
H1281 H 0.78435 0.57762 0.54753 0.0
H1282 H 0.82865 0.6145 0.54452 0.0
H1283 H 0.791 0.65157 0.54855 0.0
H1284 H 0.51991 0.66891 0.57124 0.0
H1285 H 0.4698 0.63208 0.57329 0.0
C1286 C 0.57753 0.59929 0.56387 0.0
C1287 C 0.64285 0.58369 0.55863 0.0
C1288 C 0.6029 0.62047 0.5623 0.0
C1289 C 0.73328 0.58942 0.55168 0.0
C1290 C 0.75838 0.61047 0.54993 0.0
C1291 C 0.72028 0.64726 0.55382 0.0
C1292 C 0.65868 0.66281 0.55968 0.0
C1293 C 0.69394 0.62611 0.55523 0.0
C1294 C 0.56814 0.65712 0.56663 0.0
C1295 C 0.53981 0.63611 0.56783 0.0
H1296 H 0.82206 0.58116 0.67374 0.0
H1297 H 0.54771 0.57164 0.69751 0.0
H1298 H 0.5292 0.60939 0.7003 0.0
H1299 H 0.59191 0.64503 0.6962 0.0
H1300 H 0.8639 0.65503 0.67217 0.0
H1301 H 0.88338 0.61717 0.66934 0.0
C1302 C 0.75782 0.58739 0.67945 0.0
C1303 C 0.68608 0.57364 0.68539 0.0
C1304 C 0.74802 0.60916 0.68106 0.0
C1305 C 0.60359 0.5819 0.69281 0.0
C1306 C 0.59327 0.60348 0.69445 0.0
C1307 C 0.65588 0.63893 0.6904 0.0
C1308 C 0.72691 0.65278 0.68446 0.0
C1309 C 0.66537 0.61723 0.68869 0.0
C1310 C 0.80866 0.64466 0.67688 0.0
C1311 C 0.81949 0.62303 0.67523 0.0
H1312 H 0.50383 0.39681 0.42544 0.0
H1313 H 0.20457 0.40834 0.44421 0.0
H1314 H 0.17434 0.3707 0.44611 0.0
H1315 H 0.23475 0.33452 0.44273 0.0
H1316 H 0.53446 0.32306 0.42404 0.0
H1317 H 0.56349 0.36068 0.4219 0.0
C1318 C 0.43168 0.39106 0.42987 0.0
C1319 C 0.35629 0.40526 0.43464 0.0
C1320 C 0.41554 0.36944 0.43104 0.0
C1321 C 0.26347 0.39766 0.44042 0.0
C1322 C 0.2464 0.37617 0.44155 0.0
C1323 C 0.30656 0.3403 0.43824 0.0
C1324 C 0.38266 0.32612 0.43359 0.0
C1325 C 0.32225 0.36192 0.43698 0.0
C1326 C 0.47503 0.33373 0.42773 0.0
C1327 C 0.49147 0.35521 0.42647 0.0
H1328 H 0.56111 0.34808 0.31598 0.0
H1329 H 0.22738 0.33505 0.31005 0.0
H1330 H 0.18852 0.37254 0.30971 0.0
H1331 H 0.25011 0.40903 0.31075 0.0
H1332 H 0.58405 0.42209 0.31649 0.0
H1333 H 0.62253 0.38459 0.31718 0.0
C1334 C 0.47982 0.35347 0.31466 0.0
C1335 C 0.39708 0.33886 0.31306 0.0
C1336 C 0.45839 0.37504 0.31437 0.0
C1337 C 0.29229 0.34602 0.31131 0.0
C1338 C 0.27013 0.36744 0.31109 0.0
C1339 C 0.3313 0.40365 0.31215 0.0
C1340 C 0.41426 0.41827 0.31355 0.0
C1341 C 0.35262 0.38209 0.31255 0.0
C1342 C 0.51896 0.41111 0.31539 0.0
C1343 C 0.54091 0.38969 0.31579 0.0
H1344 H 0.53582 0.09247 0.06355 0.0
H1345 H 0.86583 0.07835 0.05587 0.0
H1346 H 0.9045 0.11566 0.05357 0.0
H1347 H 0.84452 0.15237 0.05407 0.0
H1348 H 0.51412 0.16633 0.06167 0.0
H1349 H 0.47508 0.12902 0.06355 0.0
C1350 C 0.61624 0.09759 0.0614 0.0
C1351 C 0.69809 0.08274 0.05995 0.0
C1352 C 0.63751 0.11902 0.06 0.0
C1353 C 0.80169 0.08953 0.05707 0.0
C1354 C 0.82371 0.11084 0.05573 0.0
C1355 C 0.76386 0.1472 0.05604 0.0
C1356 C 0.68219 0.16204 0.05772 0.0
C1357 C 0.74226 0.12573 0.05719 0.0
C1358 C 0.57816 0.15518 0.06031 0.0
C1359 C 0.55593 0.13386 0.06143 0.0
H1360 H 0.62246 0.1492 0.17274 0.0
H1361 H 0.88386 0.16467 0.19738 0.0
H1362 H 0.92635 0.12752 0.19974 0.0
H1363 H 0.8863 0.09058 0.19517 0.0
H1364 H 0.61891 0.07505 0.17144 0.0
H1365 H 0.58086 0.11225 0.1684 0.0
C1366 C 0.68934 0.14442 0.17853 0.0
C1367 C 0.75063 0.15963 0.1848 0.0
C1368 C 0.7114 0.12303 0.18009 0.0
C1369 C 0.83597 0.15324 0.19243 0.0
C1370 C 0.85999 0.13201 0.1938 0.0
C1371 C 0.81964 0.09536 0.18934 0.0
C1372 C 0.75542 0.08012 0.18352 0.0
C1373 C 0.79773 0.11676 0.18776 0.0
C1374 C 0.66918 0.0865 0.17604 0.0
C1375 C 0.64768 0.10776 0.17428 0.0
H1376 H 0.27494 0.84513 0.92876 0.0
H1377 H 0.50992 0.83086 0.95708 0.0
H1378 H 0.53959 0.86827 0.96065 0.0
H1379 H 0.50142 0.90497 0.95521 0.0
H1380 H 0.2662 0.91883 0.92682 0.0
H1381 H 0.23203 0.88155 0.92393 0.0
C1382 C 0.33291 0.85021 0.93569 0.0
C1383 C 0.39102 0.83536 0.94257 0.0
C1384 C 0.34843 0.87162 0.93775 0.0
C1385 C 0.46493 0.84209 0.95162 0.0
C1386 C 0.4815 0.86343 0.95368 0.0
C1387 C 0.44167 0.89979 0.94852 0.0
C1388 C 0.38621 0.91454 0.94124 0.0
C1389 C 0.42382 0.87833 0.94677 0.0
C1390 C 0.30956 0.90772 0.93254 0.0
C1391 C 0.29051 0.88643 0.93084 0.0
H1392 H 0.58676 0.84361 0.81965 0.0
H1393 H 0.25839 0.83099 0.81027 0.0
H1394 H 0.22065 0.86849 0.80972 0.0
H1395 H 0.28165 0.90487 0.81153 0.0
H1396 H 0.61189 0.91778 0.81974 0.0
H1397 H 0.6487 0.88022 0.8211 0.0
C1398 C 0.50685 0.84911 0.81757 0.0
C1399 C 0.42518 0.83458 0.81508 0.0
C1400 C 0.48639 0.87073 0.817 0.0
C1401 C 0.32237 0.84188 0.81224 0.0
C1402 C 0.30085 0.86332 0.81192 0.0
C1403 C 0.36167 0.89945 0.81364 0.0
C1404 C 0.44398 0.91405 0.81558 0.0
C1405 C 0.38231 0.87788 0.81421 0.0
C1406 C 0.54734 0.90683 0.81821 0.0
C1407 C 0.56827 0.88536 0.819 0.0
H1408 H 0.72104 0.52365 0.05106 0.0
H1409 H 0.81334 0.47324 0.0756 0.0
H1410 H 0.62633 0.46282 0.07777 0.0
H1411 H 0.43635 0.46832 0.07283 0.0
H1412 H 0.34422 0.51866 0.04823 0.0
H1413 H 0.53118 0.5291 0.04609 0.0
C1414 C 0.70015 0.51035 0.05686 0.0
C1415 C 0.78087 0.49914 0.06311 0.0
C1416 C 0.59246 0.5046 0.05814 0.0
C1417 C 0.75277 0.48198 0.07061 0.0
C1418 C 0.64581 0.4761 0.07189 0.0
C1419 C 0.45727 0.4816 0.06702 0.0
C1420 C 0.37658 0.49282 0.06076 0.0
C1421 C 0.56499 0.48734 0.06573 0.0
C1422 C 0.40473 0.50995 0.05325 0.0
C1423 C 0.51168 0.51583 0.05197 0.0
H1424 H 0.62278 0.72309 0.05143 0.0
H1425 H 0.5295 0.77307 0.07635 0.0
H1426 H 0.71677 0.78296 0.07907 0.0
H1427 H 0.90691 0.77712 0.07449 0.0
H1428 H 1.00005 0.72708 0.0496 0.0
H1429 H 0.8128 0.71721 0.04689 0.0
C1430 C 0.64351 0.73619 0.05743 0.0
C1431 C 0.56263 0.74743 0.06364 0.0
C1432 C 0.75119 0.7416 0.05904 0.0
C1433 C 0.5904 0.76431 0.0714 0.0
C1434 C 0.69741 0.76989 0.073 0.0
C1435 C 0.88613 0.76402 0.0685 0.0
C1436 C 0.96697 0.75278 0.06228 0.0
C1437 C 0.77843 0.75859 0.0669 0.0
C1438 C 0.93917 0.73587 0.05454 0.0
C1439 C 0.83217 0.73029 0.05295 0.0
H1440 H 0.74949 0.71848 0.20063 0.0
H1441 H 0.84378 0.76635 0.17441 0.0
H1442 H 0.65688 0.77599 0.17123 0.0
H1443 H 0.46651 0.7705 0.17575 0.0
H1444 H 0.37229 0.72252 0.2019 0.0
H1445 H 0.55917 0.71292 0.20509 0.0
C1446 C 0.72901 0.73107 0.19425 0.0
C1447 C 0.81008 0.7418 0.18783 0.0
C1448 C 0.62144 0.73631 0.19236 0.0
C1449 C 0.78269 0.75801 0.17956 0.0
C1450 C 0.67588 0.76344 0.17769 0.0
C1451 C 0.48704 0.7579 0.18212 0.0
C1452 C 0.40598 0.74713 0.18852 0.0
C1453 C 0.59461 0.75264 0.184 0.0
C1454 C 0.43336 0.73088 0.19676 0.0
C1455 C 0.54018 0.72548 0.19865 0.0
H1456 H 0.94138 0.46638 0.19679 0.0
H1457 H 1.03706 0.51533 0.17139 0.0
H1458 H 0.85043 0.52505 0.16817 0.0
H1459 H 0.65999 0.51946 0.17251 0.0
H1460 H 0.56393 0.47019 0.19768 0.0
H1461 H 0.75071 0.46046 0.2009 0.0
C1462 C 0.92122 0.47921 0.19059 0.0
C1463 C 1.00264 0.49029 0.18444 0.0
C1464 C 0.81377 0.48448 0.18865 0.0
C1465 C 0.97573 0.50679 0.17637 0.0
C1466 C 0.86905 0.51225 0.17446 0.0
C1467 C 0.68008 0.50655 0.17866 0.0
C1468 C 0.59871 0.49555 0.18485 0.0
C1469 C 0.78746 0.50117 0.18053 0.0
C1470 C 0.62544 0.47885 0.19279 0.0
C1471 C 0.73212 0.47334 0.19467 0.0
H1472 H 0.6473 0.53329 0.93809 0.0
H1473 H 0.75969 0.47021 0.93299 0.0
H1474 H 0.57575 0.45731 0.93363 0.0
H1475 H 0.38308 0.46424 0.9352 0.0
H1476 H 0.27116 0.52717 0.94085 0.0
H1477 H 0.45493 0.5401 0.94024 0.0
C1478 C 0.63134 0.51671 0.93715 0.0
C1479 C 0.71646 0.50263 0.9356 0.0
C1480 C 0.52569 0.50952 0.93747 0.0
C1481 C 0.69528 0.48123 0.93439 0.0
C1482 C 0.59023 0.47391 0.93467 0.0
C1483 C 0.39913 0.48079 0.9363 0.0
C1484 C 0.31393 0.4949 0.9377 0.0
C1485 C 0.5049 0.48794 0.93616 0.0
C1486 C 0.33535 0.51622 0.93926 0.0
C1487 C 0.44042 0.52352 0.93908 0.0
H1488 H 0.44966 0.27381 0.94721 0.0
H1489 H 0.54452 0.22474 0.92171 0.0
H1490 H 0.35731 0.21524 0.91848 0.0
H1491 H 0.16744 0.22115 0.92284 0.0
H1492 H 0.07269 0.27007 0.94845 0.0
H1493 H 0.25982 0.27968 0.95159 0.0
C1494 C 0.42922 0.26101 0.94096 0.0
C1495 C 0.51014 0.24995 0.93469 0.0
C1496 C 0.32189 0.25578 0.93911 0.0
C1497 C 0.48317 0.2334 0.92664 0.0
C1498 C 0.37637 0.22804 0.92477 0.0
C1499 C 0.18787 0.23395 0.92908 0.0
C1500 C 0.107 0.24493 0.93541 0.0
C1501 C 0.2952 0.23918 0.93092 0.0
C1502 C 0.134 0.26146 0.94347 0.0
C1503 C 0.24075 0.26689 0.94529 0.0
H1504 H 0.65372 0.21912 0.82254 0.0
H1505 H 0.74527 0.26753 0.79655 0.0
H1506 H 0.55795 0.27748 0.79393 0.0
H1507 H 0.36818 0.27213 0.7989 0.0
H1508 H 0.27679 0.2237 0.82488 0.0
H1509 H 0.46406 0.21375 0.82749 0.0
C1510 C 0.63259 0.23188 0.81632 0.0
C1511 C 0.71303 0.24267 0.80979 0.0
C1512 C 0.52485 0.23733 0.81478 0.0
C1513 C 0.68476 0.25914 0.80176 0.0
C1514 C 0.57769 0.26474 0.80021 0.0
C1515 C 0.38934 0.25936 0.80511 0.0
C1516 C 0.30893 0.24856 0.81165 0.0
C1517 C 0.49711 0.2539 0.80665 0.0
C1518 C 0.33726 0.23209 0.81967 0.0
C1519 C 0.4443 0.22649 0.82121 0.0
H1520 H 0.1989 0.52696 0.82199 0.0
H1521 H 0.10597 0.47563 0.79808 0.0
H1522 H 0.29323 0.46547 0.79567 0.0
H1523 H 0.48316 0.4715 0.80019 0.0
H1524 H 0.57593 0.52275 0.82416 0.0
H1525 H 0.38874 0.53291 0.82657 0.0
C1526 C 0.21973 0.51352 0.81627 0.0
C1527 C 0.13903 0.502 0.81024 0.0
C1528 C 0.32735 0.50793 0.81485 0.0
C1529 C 0.16681 0.48464 0.80287 0.0
C1530 C 0.27379 0.4789 0.80145 0.0
C1531 C 0.46232 0.48493 0.80592 0.0
C1532 C 0.54303 0.49647 0.81194 0.0
C1533 C 0.35466 0.49049 0.80735 0.0
C1534 C 0.51517 0.51378 0.81935 0.0
C1535 C 0.4082 0.5195 0.82078 0.0
H1536 H 0.41178 0.97179 0.55125 0.0
H1537 H 0.31675 0.02122 0.57651 0.0
H1538 H 0.50375 0.02947 0.58068 0.0
H1539 H 0.69346 0.02198 0.57756 0.0
H1540 H 0.78911 0.97336 0.55179 0.0
H1541 H 0.60213 0.96503 0.54762 0.0
C1542 C 0.43222 0.98446 0.5576 0.0
C1543 C 0.35126 0.99585 0.56361 0.0
C1544 C 0.53957 0.98897 0.56001 0.0
C1545 C 0.37817 0.01226 0.57178 0.0
C1546 C 0.48485 0.01689 0.57422 0.0
C1547 C 0.67326 0.00949 0.57108 0.0
C1548 C 0.75443 -0.00194 0.56513 0.0
C1549 C 0.56605 0.00519 0.56849 0.0
C1550 C 0.72767 0.98207 0.55666 0.0
C1551 C 0.62093 0.97745 0.55418 0.0
H1552 H 0.63837 0.21976 0.57331 0.0
H1553 H 0.53499 0.27519 0.55379 0.0
H1554 H 0.71988 0.2863 0.55129 0.0
H1555 H 0.91079 0.28004 0.55438 0.0
H1556 H 1.01721 0.22325 0.57207 0.0
H1557 H 0.83132 0.21251 0.57533 0.0
C1558 C 0.65652 0.23434 0.5686 0.0
C1559 C 0.57315 0.24699 0.56407 0.0
C1560 C 0.76341 0.24015 0.56669 0.0
C1561 C 0.5976 0.26556 0.55771 0.0
C1562 C 0.70335 0.27179 0.55615 0.0
C1563 C 0.89308 0.26526 0.5589 0.0
C1564 C 0.9768 0.2524 0.56299 0.0
C1565 C 0.78673 0.25918 0.56057 0.0
C1566 C 0.95359 0.23325 0.56874 0.0
C1567 C 0.84751 0.22722 0.57068 0.0
H1568 H 0.75199 0.25882 0.68691 0.0
H1569 H 0.71562 0.19336 0.67842 0.0
H1570 H 0.5222 0.19674 0.67907 0.0
H1571 H 0.35914 0.21819 0.68224 0.0
H1572 H 0.39524 0.28367 0.69064 0.0
H1573 H 0.58875 0.28032 0.68996 0.0
C1574 C 0.70167 0.24538 0.68508 0.0
C1575 C 0.74936 0.22589 0.68255 0.0
C1576 C 0.58865 0.24733 0.6856 0.0
C1577 C 0.68196 0.20862 0.68036 0.0
C1578 C 0.5706 0.21048 0.68077 0.0
C1579 C 0.40941 0.23164 0.68403 0.0
C1580 C 0.36164 0.25112 0.68656 0.0
C1581 C 0.52239 0.22971 0.68348 0.0
C1582 C 0.42898 0.26842 0.6887 0.0
C1583 C 0.54037 0.26658 0.68827 0.0
H1584 H 0.96631 0.00669 0.68597 0.0
H1585 H 0.93135 0.94052 0.69218 0.0
H1586 H 0.73808 0.9438 0.69185 0.0
H1587 H 0.57444 0.96542 0.68979 0.0
H1588 H 0.60932 0.03156 0.68349 0.0
H1589 H 0.80259 0.02828 0.68382 0.0
C1590 C 0.91634 0.99305 0.68731 0.0
C1591 C 0.96445 0.97341 0.68913 0.0
C1592 C 0.80328 0.99496 0.68703 0.0
C1593 C 0.89745 0.95591 0.69076 0.0
C1594 C 0.7861 0.95771 0.69056 0.0
C1595 C 0.62437 0.97904 0.68841 0.0
C1596 C 0.57623 -0.00132 0.68658 0.0
C1597 C 0.73742 0.97713 0.68867 0.0
C1598 C 0.64322 0.01617 0.68492 0.0
C1599 C 0.75458 0.01437 0.68512 0.0
H1600 H 0.64804 0.02164 0.43374 0.0
H1601 H 0.75044 0.96324 0.44977 0.0
H1602 H 0.56447 0.95163 0.45122 0.0
H1603 H 0.37277 0.95838 0.44803 0.0
H1604 H 0.27196 0.01587 0.4306 0.0
H1605 H 0.45722 0.02781 0.42975 0.0
C1606 C 0.62941 0.00635 0.43753 0.0
C1607 C 0.71236 0.99319 0.44158 0.0
C1608 C 0.5227 -0.00021 0.43818 0.0
C1609 C 0.6878 0.97342 0.44641 0.0
C1610 C 0.58153 0.96689 0.44732 0.0
C1611 C 0.39141 0.97356 0.44409 0.0
C1612 C 0.30871 0.98644 0.4396 0.0
C1613 C 0.49836 0.97997 0.44325 0.0
C1614 C 0.33401 0.00589 0.43434 0.0
C1615 C 0.43996 0.01264 0.43377 0.0
H1616 H 0.53263 0.71463 0.43971 0.0
H1617 H 0.4951 0.7795 0.42989 0.0
H1618 H 0.30176 0.77607 0.43062 0.0
H1619 H 0.13895 0.75477 0.43422 0.0
H1620 H 0.17597 0.68985 0.44392 0.0
H1621 H 0.36949 0.69323 0.44316 0.0
C1622 C 0.4821 0.72793 0.43763 0.0
C1623 C 0.52961 0.74728 0.43469 0.0
C1624 C 0.36899 0.72594 0.43816 0.0
C1625 C 0.46178 0.76436 0.43215 0.0
C1626 C 0.35039 0.76247 0.4326 0.0
C1627 C 0.18937 0.74144 0.43626 0.0
C1628 C 0.14172 0.72211 0.43919 0.0
C1629 C 0.30242 0.74339 0.43568 0.0
C1630 C 0.20944 0.70498 0.44166 0.0
C1631 C 0.3209 0.70685 0.4412 0.0
H1632 H 0.35288 0.7348 0.31447 0.0
H1633 H 0.3884 0.80173 0.31343 0.0
H1634 H 0.58162 0.79831 0.31341 0.0
H1635 H 0.74517 0.77636 0.31377 0.0
H1636 H 0.70965 0.70942 0.31482 0.0
H1637 H 0.51638 0.71283 0.31482 0.0
C1638 C 0.40284 0.74859 0.31423 0.0
C1639 C 0.35473 0.76848 0.31396 0.0
C1640 C 0.51597 0.74658 0.31426 0.0
C1641 C 0.42205 0.78615 0.31365 0.0
C1642 C 0.53345 0.78426 0.31365 0.0
C1643 C 0.69514 0.76256 0.31401 0.0
C1644 C 0.74323 0.74268 0.31429 0.0
C1645 C 0.58202 0.76457 0.31397 0.0
C1646 C 0.67596 0.725 0.31459 0.0
C1647 C 0.56455 0.72688 0.31458 0.0
H1648 H 0.20253 0.03504 0.32556 0.0
H1649 H 0.10836 0.98395 0.30151 0.0
H1650 H 0.2956 0.97419 0.29863 0.0
H1651 H 0.48553 0.98052 0.30275 0.0
H1652 H 0.57988 0.0314 0.32694 0.0
H1653 H 0.39262 0.04117 0.32984 0.0
C1654 C 0.22312 0.02173 0.31972 0.0
C1655 C 0.14227 0.01022 0.31373 0.0
C1656 C 0.33063 0.01634 0.31805 0.0
C1657 C 0.16955 0.99301 0.30621 0.0
C1658 C 0.27642 0.98748 0.30453 0.0
C1659 C 0.46501 0.99378 0.30863 0.0
C1660 C 0.54597 0.00532 0.31458 0.0
C1661 C 0.35752 -0.00089 0.31036 0.0
C1662 C 0.51868 0.02241 0.3222 0.0
C1663 C 0.41178 0.02792 0.3239 0.0
H1664 H 0.18996 0.52427 0.57376 0.0
H1665 H 0.28635 0.47549 0.54816 0.0
H1666 H 0.09979 0.46583 0.54483 0.0
H1667 H 0.90895 0.47142 0.54916 0.0
H1668 H 0.81286 0.52106 0.57419 0.0
H1669 H 0.9995 0.53055 0.57757 0.0
C1670 C 0.17001 0.51148 0.56748 0.0
C1671 C 0.25163 0.50034 0.56139 0.0
C1672 C 0.06265 0.50636 0.5654 0.0
C1673 C 0.22493 0.48396 0.55318 0.0
C1674 C 0.11825 0.47858 0.55118 0.0
C1675 C 0.92906 0.48438 0.5553 0.0
C1676 C 0.84766 0.4955 0.56145 0.0
C1677 C 1.03647 0.48969 0.55723 0.0
C1678 C 0.87437 0.51228 0.56936 0.0
C1679 C 0.98098 0.51766 0.57133 0.0
H1680 H 0.50353 0.72588 0.56167 0.0
H1681 H 0.46697 0.79261 0.56496 0.0
H1682 H 0.27375 0.7891 0.56497 0.0
H1683 H 0.11061 0.76713 0.56396 0.0
H1684 H 0.14705 0.70035 0.56103 0.0
H1685 H 0.34036 0.70385 0.561 0.0
C1686 C 0.45335 0.73961 0.56242 0.0
C1687 C 0.50117 0.75947 0.56333 0.0
C1688 C 0.34024 0.73753 0.56248 0.0
C1689 C 0.43356 0.77706 0.56426 0.0
C1690 C 0.32216 0.77511 0.56426 0.0
C1691 C 0.16081 0.75338 0.56335 0.0
C1692 C 0.11297 0.73351 0.56251 0.0
C1693 C 0.2739 0.75544 0.56338 0.0
C1694 C 0.18053 0.7159 0.5617 0.0
C1695 C 0.29195 0.71785 0.56167 0.0
H1696 H 1.00565 0.77185 0.67902 0.0
H1697 H 0.90701 0.7119 0.69334 0.0
H1698 H 0.09316 0.70019 0.69361 0.0
H1699 H 0.28348 0.7072 0.68992 0.0
H1700 H 0.38283 0.76748 0.67635 0.0
H1701 H 0.19645 0.77914 0.67581 0.0
C1702 C 1.02492 0.75619 0.68217 0.0
C1703 C 0.94292 0.74265 0.68606 0.0
C1704 C 0.13199 0.7498 0.68255 0.0
C1705 C 0.96884 0.72251 0.69022 0.0
C1706 C 0.07514 0.71586 0.69041 0.0
C1707 C 0.26414 0.72292 0.68687 0.0
C1708 C 0.34636 0.73664 0.68333 0.0
C1709 C 0.15723 0.7294 0.68662 0.0
C1710 C 0.32086 0.75691 0.67941 0.0
C1711 C 0.21436 0.76345 0.67898 0.0
H1712 H 0.11463 0.51417 0.69596 0.0
H1713 H 1.0209 0.46193 0.67282 0.0
H1714 H 0.20795 0.45145 0.67066 0.0
H1715 H 0.39772 0.45744 0.6752 0.0
H1716 H 0.49138 0.50962 0.69839 0.0
H1717 H 0.30437 0.52009 0.70056 0.0
C1718 C 0.13525 0.50046 0.69046 0.0
C1719 C 0.0545 0.48879 0.68455 0.0
C1720 C 0.24266 0.49468 0.6892 0.0
C1721 C 0.08191 0.47109 0.67747 0.0
C1722 C 0.1887 0.46515 0.67621 0.0
C1723 C 0.37708 0.47112 0.68072 0.0
C1724 C 0.45787 0.48282 0.6866 0.0
C1725 C 0.26966 0.47688 0.68199 0.0
C1726 C 0.43043 0.50049 0.69371 0.0
C1727 C 0.32362 0.5064 0.69499 0.0
H1728 H 0.80159 0.46358 0.44687 0.0
H1729 H 0.70759 0.51565 0.42371 0.0
H1730 H 0.89417 0.52639 0.42175 0.0
H1731 H 0.08416 0.5207 0.42645 0.0
H1732 H 0.17834 0.46873 0.44967 0.0
H1733 H 0.99173 0.45797 0.45164 0.0
C1734 C 0.82206 0.4773 0.44142 0.0
C1735 C 0.74107 0.48888 0.43547 0.0
C1736 C 0.9295 0.48325 0.44026 0.0
C1737 C 0.76849 0.5066 0.42844 0.0
C1738 C 0.87516 0.51268 0.42728 0.0
C1739 C 0.06372 0.507 0.43193 0.0
C1740 C 0.14479 0.49541 0.43783 0.0
C1741 C 0.95631 0.50108 0.43311 0.0
C1742 C 0.11742 0.47773 0.44491 0.0
C1743 C 1.01071 0.47167 0.4461 0.0
H1744 H 0.94972 0.266 0.42329 0.0
H1745 H 0.05394 0.21128 0.44346 0.0
H1746 H 0.86915 0.20002 0.44595 0.0
H1747 H 0.67787 0.20603 0.44275 0.0
H1748 H 0.57111 0.26184 0.42401 0.0
H1749 H 0.75668 0.27273 0.42083 0.0
C1750 C 0.9318 0.25155 0.42815 0.0
C1751 C 1.01538 0.23921 0.43293 0.0
C1752 C 0.82496 0.2456 0.42998 0.0
C1753 C 0.99116 0.22074 0.43942 0.0
C1754 C 0.88546 0.21441 0.44096 0.0
C1755 C 0.69545 0.22063 0.43802 0.0
C1756 C 0.61152 0.23325 0.4337 0.0
C1757 C 0.80184 0.22676 0.43633 0.0
C1758 C 0.63469 0.25212 0.42761 0.0
C1759 C 0.7407 0.25821 0.42569 0.0
H1760 H 0.12276 0.22515 0.32272 0.0
H1761 H 0.21506 0.2747 0.29756 0.0
H1762 H 1.02769 0.28447 0.29479 0.0
H1763 H 0.83774 0.27855 0.29934 0.0
H1764 H 0.74577 0.22919 0.32465 0.0
H1765 H 0.93303 0.21939 0.32738 0.0
C1766 C 0.10176 0.23813 0.31666 0.0
C1767 C 0.1823 0.24926 0.31038 0.0
C1768 C 0.99407 0.24349 0.31504 0.0
C1769 C 0.15433 0.26602 0.30256 0.0
C1770 C 1.04729 0.27152 0.30093 0.0
C1771 C 0.85879 0.26561 0.30542 0.0
C1772 C 0.77824 0.25446 0.3117 0.0
C1773 C 0.96653 0.2603 0.30707 0.0
C1774 C 0.80637 0.2378 0.3196 0.0
C1775 C 0.91339 0.2323 0.32122 0.0
H1776 H 0.9773 0.48164 0.32507 0.0
H1777 H 0.07306 0.52611 0.29684 0.0
H1778 H 0.8864 0.53483 0.29279 0.0
H1779 H 0.69575 0.52951 0.29714 0.0
H1780 H 0.59975 0.48467 0.32515 0.0
H1781 H 0.78654 0.476 0.32923 0.0
C1782 C 0.95716 0.49331 0.31808 0.0
C1783 C 1.03866 0.50344 0.31138 0.0
C1784 C 0.84966 0.49793 0.31564 0.0
C1785 C 1.01172 0.5184 0.30228 0.0
C1786 C 0.90499 0.52324 0.29988 0.0
C1787 C 0.71587 0.51777 0.30409 0.0
C1788 C 0.6344 0.50767 0.3108 0.0
C1789 C 0.82333 0.51305 0.30647 0.0
C1790 C 0.66122 0.49251 0.31979 0.0
C1791 C 0.76796 0.48766 0.32218 0.0
H1792 H 0.97207 0.97087 0.07632 0.0
H1793 H 0.88005 0.0165 0.04857 0.0
H1794 H 0.06744 0.02582 0.04537 0.0
H1795 H 0.25716 0.02067 0.05033 0.0
H1796 H 0.34924 0.97505 0.07808 0.0
H1797 H 0.16183 0.96571 0.08127 0.0
C1798 C 0.99312 0.9829 0.0696 0.0
C1799 C 0.91262 0.99309 0.06273 0.0
C1800 C 0.10084 0.98797 0.06772 0.0
C1801 C 0.9407 0.0086 0.05404 0.0
C1802 C 1.04776 0.01383 0.05216 0.0
C1803 C 0.23612 0.00864 0.05705 0.0
C1804 C 0.31663 -0.00153 0.06392 0.0
C1805 C 0.12842 0.00356 0.05892 0.0
C1806 C 0.28857 0.98295 0.07261 0.0
C1807 C 0.18151 0.9777 0.07448 0.0
H1808 H 0.12334 0.22161 0.07279 0.0
H1809 H 1.02722 0.27379 0.04983 0.0
H1810 H 0.21396 0.28326 0.04653 0.0
H1811 H 0.40461 0.27633 0.04993 0.0
H1812 H 0.50061 0.22406 0.07283 0.0
H1813 H 0.31388 0.21464 0.07615 0.0
C1814 C 0.14343 0.23512 0.06713 0.0
C1815 C 0.06196 0.24713 0.06166 0.0
C1816 C 0.25082 0.24022 0.06509 0.0
C1817 C 0.0887 0.26451 0.05429 0.0
C1818 C 0.1954 0.26981 0.05231 0.0
C1819 C 0.38449 0.26281 0.05558 0.0
C1820 C 0.46593 0.25079 0.06104 0.0
C1821 C 0.27708 0.2577 0.0576 0.0
C1822 C 0.43915 0.23338 0.0684 0.0
C1823 C 0.33246 0.22809 0.07038 0.0
H1824 H 0.91976 0.22521 0.18261 0.0
H1825 H 0.95524 0.28958 0.19378 0.0
H1826 H 0.14867 0.28628 0.19321 0.0
H1827 H 0.31224 0.2652 0.18939 0.0
H1828 H 0.27685 0.20074 0.17846 0.0
H1829 H 0.08344 0.20403 0.17904 0.0
C1830 C 0.96981 0.23843 0.18503 0.0
C1831 C 0.92163 0.25759 0.18829 0.0
C1832 C 0.083 0.23651 0.18463 0.0
C1833 C 0.98898 0.27456 0.19126 0.0
C1834 C 0.10047 0.27275 0.19091 0.0
C1835 C 0.26229 0.25195 0.18706 0.0
C1836 C 0.31049 0.23278 0.18383 0.0
C1837 C 0.14909 0.25384 0.18754 0.0
C1838 C 0.24311 0.21575 0.18098 0.0
C1839 C 0.13163 0.21757 0.18132 0.0
H1840 H 0.48912 0.96567 0.17593 0.0
H1841 H 0.58129 0.01699 0.19989 0.0
H1842 H 0.39424 0.02738 0.20204 0.0
H1843 H 0.20459 0.02152 0.19737 0.0
H1844 H 0.11218 0.97087 0.17293 0.0
H1845 H 0.29919 0.96034 0.17082 0.0
C1846 C 0.46813 0.97915 0.1816 0.0
C1847 C 0.54863 0.99051 0.18779 0.0
C1848 C 0.36049 0.985 0.18279 0.0
C1849 C 0.52063 0.008 0.19506 0.0
C1850 C 0.41375 0.0139 0.1963 0.0
C1851 C 0.22543 0.00816 0.19159 0.0
C1852 C 0.14469 -0.00321 0.18545 0.0
C1853 C 0.33305 0.00245 0.19027 0.0
C1854 C 0.17275 0.97962 0.17793 0.0
C1855 C 0.2797 0.9737 0.17665 0.0
H1856 H 0.82681 0.0194 0.93939 0.0
H1857 H 0.86333 0.95313 0.93366 0.0
H1858 H 0.05675 0.95657 0.93407 0.0
H1859 H 0.21967 0.97836 0.93615 0.0
H1860 H 0.18334 0.04463 0.94191 0.0
H1861 H 0.98992 0.04119 0.9415 0.0
C1862 C 0.87715 0.00578 0.93813 0.0
C1863 C 0.82949 0.98605 0.93644 0.0
C1864 C 0.99015 0.00779 0.9385 0.0
C1865 C 0.89693 0.96857 0.93496 0.0
C1866 C 1.00829 0.97047 0.93522 0.0
C1867 C 0.16944 0.99198 0.93742 0.0
C1868 C 0.21716 0.0117 0.93912 0.0
C1869 C 0.05645 0.98997 0.93706 0.0
C1870 C 0.14973 0.02919 0.94062 0.0
C1871 C 1.03835 0.02729 0.94035 0.0
H1872 H 0.92957 0.78276 0.93566 0.0
H1873 H 1.04232 0.71979 0.94079 0.0
H1874 H 0.85859 0.70684 0.94043 0.0
H1875 H 0.66612 0.71366 0.93864 0.0
H1876 H 0.5527 0.77681 0.93432 0.0
H1877 H 0.73675 0.78971 0.93462 0.0
C1878 C 0.91371 0.7662 0.93669 0.0
C1879 C 0.99907 0.75207 0.93785 0.0
C1880 C 0.808 0.75905 0.93675 0.0
C1881 C 0.97794 0.73074 0.93935 0.0
C1882 C 0.87292 0.72343 0.93933 0.0
C1883 C 0.68189 0.73025 0.9378 0.0
C1884 C 0.5966 0.74434 0.9365 0.0
C1885 C 0.78747 0.73745 0.93797 0.0
C1886 C 0.61741 0.76578 0.93545 0.0
C1887 C 0.72245 0.7731 0.93556 0.0
H1888 H 0.14405 0.71303 0.81604 0.0
H1889 H 0.24505 0.77243 0.80131 0.0
H1890 H 0.05894 0.78416 0.80037 0.0
H1891 H 0.86768 0.77726 0.80366 0.0
H1892 H 0.76768 0.71847 0.81948 0.0
H1893 H 0.95331 0.70651 0.81993 0.0
C1894 C 0.12509 0.72856 0.81264 0.0
C1895 C 0.20777 0.74199 0.80885 0.0
C1896 C 1.01826 0.73514 0.81224 0.0
C1897 C 0.18273 0.76205 0.80451 0.0
C1898 C 0.07636 0.76864 0.80387 0.0
C1899 C 0.88654 0.7618 0.80717 0.0
C1900 C 0.8041 0.74862 0.81138 0.0
C1901 C 0.99353 0.7553 0.80771 0.0
C1902 C 0.82966 0.72875 0.81605 0.0
C1903 C 0.93576 0.72198 0.81636 0.0
H1904 H 0.7205 0.02802 0.82501 0.0
H1905 H 0.6289 0.97789 0.80012 0.0
H1906 H 0.81651 0.96812 0.79748 0.0
H1907 H 1.0061 0.97412 0.80212 0.0
H1908 H 0.09758 0.0242 0.82706 0.0
H1909 H 0.91001 0.03399 0.82968 0.0
C1910 C 0.74168 0.01492 0.81903 0.0
C1911 C 0.66136 0.00363 0.81277 0.0
C1912 C 0.84939 0.00955 0.81749 0.0
C1913 C 0.68954 0.98672 0.80506 0.0
C1914 C 0.79666 0.9812 0.80352 0.0
C1915 C 0.9849 0.98721 0.80811 0.0
C1916 C 0.06522 -0.0015 0.81437 0.0
C1917 C 0.87717 0.99257 0.80965 0.0
C1918 C 1.03698 0.01539 0.8221 0.0
C1919 C 0.92987 0.02091 0.82363 0.0
H1920 H 0.1109 0.52532 0.01865 0.0
H1921 H 0.92835 0.46863 0.02332 0.0
H1922 H 0.90659 0.46572 0.00071 0.0
H1923 H 0.9437 0.4783 0.97955 0.0
H1924 H 0.12527 0.53494 0.97446 0.0
H1925 H 0.14235 0.53878 0.99721 0.0
C1926 C 0.06569 0.51243 0.01473 0.0
C1927 C 1.02217 0.49718 0.02274 0.0
C1928 C 0.05352 0.51072 0.0016 0.0
C1929 C 0.96371 0.48057 0.01744 0.0
C1930 C 0.95103 0.47884 0.00447 0.0
C1931 C 0.98709 0.49151 0.98338 0.0
C1932 C 1.03359 0.5062 0.97525 0.0
C1933 C 0.9966 0.49366 0.99646 0.0
C1934 C 0.08854 0.52333 0.98046 0.0
C1935 C 0.09855 0.52555 0.99349 0.0
H1936 H 0.35032 0.77134 0.97973 0.0
H1937 H 0.20555 0.71059 0.97526 0.0
H1938 H 0.19346 0.70697 0.99808 0.0
H1939 H 0.22212 0.72134 0.01939 0.0
H1940 H 0.36744 0.7822 0.02335 0.0
H1941 H 0.38089 0.78533 0.00069 0.0
C1942 C 0.31597 0.75727 0.98369 0.0
C1943 C 0.27872 0.74131 0.97573 0.0
C1944 C 0.30924 0.75526 0.99679 0.0
C1945 C 0.23497 0.72318 0.98112 0.0
C1946 C 0.22792 0.72107 0.99419 0.0
C1947 C 0.25701 0.73525 0.0153 0.0
C1948 C 0.29326 0.7515 0.02314 0.0
C1949 C 0.26461 0.73705 0.00213 0.0
C1950 C 0.33831 0.76942 0.01762 0.0
C1951 C 0.34621 0.77128 0.00462 0.0
H1952 H 0.12695 0.72805 0.27255 0.0
H1953 H 0.9988 0.79067 0.27355 0.0
H1954 H 1.00164 0.7921 0.25065 0.0
H1955 H 1.03856 0.77537 0.23022 0.0
H1956 H 0.16543 0.71259 0.2296 0.0
H1957 H 0.16473 0.71158 0.25238 0.0
C1958 C 0.09989 0.74206 0.2678 0.0
C1959 C 0.06274 0.75917 0.27481 0.0
C1960 C 0.10118 0.7428 0.25463 0.0
C1961 C 1.02778 0.77718 0.26842 0.0
C1962 C 1.0293 0.77805 0.2553 0.0
C1963 C 0.06617 0.7615 0.23507 0.0
C1964 C 0.10173 0.74413 0.22814 0.0
C1965 C 0.06549 0.76091 0.24829 0.0
C1966 C 0.13718 0.72625 0.23462 0.0
C1967 C 0.13704 0.7256 0.2477 0.0
H1968 H 0.39004 0.47215 0.22873 0.0
H1969 H 0.18222 0.52537 0.22385 0.0
H1970 H 0.18738 0.53235 0.24628 0.0
H1971 H 0.25158 0.52382 0.26736 0.0
H1972 H 0.45658 0.47037 0.27262 0.0
H1973 H 0.45219 0.46319 0.25008 0.0
C1974 C 0.3452 0.48515 0.2326 0.0
C1975 C 0.28623 0.4982 0.22456 0.0
C1976 C 0.34865 0.48922 0.24561 0.0
C1977 C 0.22892 0.51506 0.22975 0.0
C1978 C 0.23181 0.51915 0.24262 0.0
C1979 C 0.29608 0.51071 0.26357 0.0
C1980 C 0.35469 0.49776 0.27167 0.0
C1981 C 0.29207 0.50646 0.25062 0.0
C1982 C 0.4107 0.48064 0.2666 0.0
C1983 C 0.40813 0.47647 0.2537 0.0
H1984 H 0.8145 0.27424 0.97817 0.0
H1985 H 0.71628 0.20999 0.97405 0.0
H1986 H 0.69491 0.2071 0.99683 0.0
H1987 H 0.70959 0.22261 0.01799 0.0
H1988 H 0.80671 0.2871 0.0217 0.0
H1989 H 0.82237 0.29002 0.99901 0.0
C1990 C 0.78848 0.25957 0.98223 0.0
C1991 C 0.76786 0.24232 0.97442 0.0
C1992 C 0.776 0.25804 0.99528 0.0
C1993 C 0.73291 0.22352 0.97985 0.0
C1994 C 0.72076 0.22184 0.99288 0.0
C1995 C 0.7336 0.23734 0.01384 0.0
C1996 C 0.75746 0.25454 0.02161 0.0
C1997 C 0.74279 0.23897 0.0007 0.0
C1998 C 0.7881 0.27353 0.01602 0.0
C1999 C 0.79732 0.27525 0.00301 0.0
H2000 H 0.94687 0.26752 0.76648 0.0
H2001 H 0.17504 0.21813 0.77282 0.0
H2002 H 0.19149 0.21247 0.75028 0.0
H2003 H 0.13802 0.22079 0.72867 0.0
H2004 H 0.90857 0.26998 0.72227 0.0
H2005 H 0.89576 0.27629 0.74477 0.0
C2006 C 1.001 0.2557 0.76291 0.0
C2007 C 0.05925 0.24327 0.77135 0.0
C2008 C 1.00931 0.25228 0.74987 0.0
C2009 C 0.12852 0.22787 0.76656 0.0
C2010 C 0.13805 0.22457 0.75364 0.0
C2011 C 0.08492 0.23284 0.73219 0.0
C2012 C 1.02429 0.24479 0.72373 0.0
C2013 C 0.07793 0.2365 0.7452 0.0
C2014 C 0.9564 0.26046 0.72851 0.0
C2015 C 0.94897 0.26416 0.74142 0.0
H2016 H 0.89119 0.47043 0.76813 0.0
H2017 H 0.70459 0.52688 0.77171 0.0
H2018 H 0.68565 0.52875 0.74899 0.0
H2019 H 0.72111 0.51451 0.72807 0.0
H2020 H 0.90648 0.45799 0.72428 0.0
H2021 H 0.92704 0.45614 0.74705 0.0
C2022 C 0.84606 0.48309 0.76395 0.0
C2023 C 0.79951 0.49846 0.77166 0.0
C2024 C 0.83553 0.48416 0.7508 0.0
C2025 C 0.7416 0.51481 0.76604 0.0
C2026 C 0.73066 0.51594 0.75302 0.0
C2027 C 0.76654 0.50183 0.7322 0.0
C2028 C 0.81219 0.48645 0.72444 0.0
C2029 C 0.77747 0.50075 0.74531 0.0
C2030 C 0.8703 0.47007 0.73 0.0
C2031 C 0.88205 0.46896 0.74304 0.0
H2032 H 1.00034 0.96828 0.52218 0.0
H2033 H 0.11462 0.03181 0.52412 0.0
H2034 H 0.11186 0.03409 0.50123 0.0
H2035 H 0.07608 0.01807 0.48058 0.0
H2036 H 0.96026 0.95455 0.47896 0.0
H2037 H 0.96468 0.95239 0.50174 0.0
C2038 C 1.02502 0.98263 0.51763 0.0
C2039 C 0.05764 -0.00018 0.52491 0.0
C2040 C 1.0228 0.9839 0.50446 0.0
C2041 C 0.08888 0.0183 0.51879 0.0
C2042 C 0.08738 0.01964 0.50567 0.0
C2043 C 1.05175 0.00376 0.4852 0.0
C2044 C 1.01793 0.98654 0.47798 0.0
C2045 C 0.05422 0.00255 0.4984 0.0
C2046 C 0.9867 0.96812 0.48419 0.0
C2047 C 0.98919 0.96681 0.49727 0.0
H2048 H 0.22309 0.21841 0.47905 0.0
H2049 H 0.42283 0.27271 0.47416 0.0
H2050 H 0.41949 0.27924 0.49671 0.0
H2051 H 0.36047 0.26956 0.51796 0.0
H2052 H 0.16034 0.21528 0.52276 0.0
H2053 H 0.16287 0.20893 0.50022 0.0
C2054 C 0.2665 0.23158 0.48291 0.0
C2055 C 0.32319 0.24497 0.47488 0.0
C2056 C 0.26369 0.23541 0.49593 0.0
C2057 C 0.3782 0.26211 0.48008 0.0
C2058 C 0.37632 0.26591 0.49301 0.0
C2059 C 0.3167 0.25645 0.51407 0.0
C2060 C 0.26055 0.24295 0.52209 0.0
C2061 C 0.31899 0.25272 0.50103 0.0
C2062 C 0.20481 0.22593 0.51686 0.0
C2063 C 0.2062 0.22223 0.50393 0.0
H2064 H 0.3983 0.97123 0.77064 0.0
H2065 H 0.25677 0.03256 0.77369 0.0
H2066 H 0.2317 0.03371 0.75101 0.0
H2067 H 0.24842 0.01728 0.73027 0.0
H2068 H 0.39051 0.95596 0.72728 0.0
H2069 H 0.41665 0.95497 0.74991 0.0
C2070 C 0.36203 0.98486 0.76636 0.0
C2071 C 0.32959 0.00174 0.77389 0.0
C2072 C 0.34775 0.98548 0.75328 0.0
C2073 C 0.28282 0.0193 0.76815 0.0
C2074 C 0.26824 0.02 0.75516 0.0
C2075 C 0.28519 0.00371 0.73455 0.0
C2076 C 0.31716 0.98676 0.72703 0.0
C2077 C 0.30023 0.00317 0.74762 0.0
C2078 C 0.36491 0.9693 0.73278 0.0
C2079 C 0.37998 0.96866 0.74576 0.0
H2080 H 0.89506 0.76404 0.47924 0.0
H2081 H 0.71375 0.70676 0.47707 0.0
H2082 H 0.69436 0.70656 0.49983 0.0
H2083 H 0.73005 0.7222 0.52032 0.0
H2084 H 0.91196 0.77933 0.52278 0.0
H2085 H 0.92928 0.78 0.49991 0.0
C2086 C 0.85127 0.7515 0.48372 0.0
C2087 C 0.80618 0.73542 0.47639 0.0
C2088 C 0.84027 0.75143 0.49687 0.0
C2089 C 0.74951 0.71934 0.48242 0.0
C2090 C 0.73824 0.7192 0.49546 0.0
C2091 C 0.77328 0.73488 0.5159 0.0
C2092 C 0.81965 0.75069 0.52331 0.0
C2093 C 0.78343 0.73512 0.50277 0.0
C2094 C 0.87538 0.76694 0.51734 0.0
C2095 C 0.88548 0.76733 0.50425 0.0
H2096 H 0.78994 0.02478 0.22945 0.0
H2097 H 0.945 0.96455 0.22805 0.0
H2098 H 0.95235 0.96359 0.2509 0.0
H2099 H 0.91351 0.9795 0.27133 0.0
H2100 H 0.75894 0.03974 0.27291 0.0
H2101 H 0.75288 0.04095 0.24999 0.0
C2102 C 0.82557 0.01146 0.23413 0.0
C2103 C 0.86656 0.99476 0.22697 0.0
C2104 C 0.82957 0.01095 0.24734 0.0
C2105 C 0.91251 0.97764 0.23325 0.0
C2106 C 0.91681 0.97704 0.24636 0.0
C2107 C 0.87843 0.99292 0.26669 0.0
C2108 C 0.83669 0.00948 0.27388 0.0
C2109 C 0.87526 0.99356 0.2535 0.0
C2110 C 0.79183 0.02675 0.26765 0.0
C2111 C 0.78824 0.02747 0.25452 0.0
H2112 H 0.50912 0.46735 0.51943 0.0
H2113 H 0.60992 0.53178 0.52113 0.0
H2114 H 0.59885 0.53429 0.4983 0.0
H2115 H 0.55237 0.51867 0.47786 0.0
H2116 H 0.44966 0.4543 0.47646 0.0
H2117 H 0.47015 0.45141 0.49909 0.0
C2118 C 0.52937 0.48192 0.51483 0.0
C2119 C 0.55956 0.49935 0.52203 0.0
C2120 C 0.52209 0.48335 0.50171 0.0
C2121 C 0.58581 0.51809 0.51586 0.0
C2122 C 0.57947 0.51958 0.50278 0.0
C2123 C 0.53513 0.50398 0.48249 0.0
C2124 C 0.49873 0.48683 0.47543 0.0
C2125 C 0.54638 0.50238 0.49561 0.0
C2126 C 0.47697 0.46788 0.48162 0.0
C2127 C 0.48872 0.46615 0.4946 0.0
H2128 H 0.60189 0.71825 0.77103 0.0
H2129 H 0.46607 0.7803 0.7714 0.0
H2130 H 0.48672 0.78256 0.74869 0.0
H2131 H 0.5442 0.76723 0.72875 0.0
H2132 H 0.67971 0.70519 0.72819 0.0
H2133 H 0.65809 0.70273 0.75094 0.0
C2134 C 0.57647 0.73227 0.76617 0.0
C2135 C 0.53252 0.74907 0.77299 0.0
C2136 C 0.58869 0.73353 0.75305 0.0
C2137 C 0.50025 0.76709 0.76646 0.0
C2138 C 0.51206 0.76844 0.75344 0.0
C2139 C 0.56929 0.75315 0.73356 0.0
C2140 C 0.61388 0.73646 0.72671 0.0
C2141 C 0.55647 0.75179 0.74665 0.0
C2142 C 0.64526 0.71832 0.73318 0.0
C2143 C 0.63291 0.71688 0.74622 0.0
H2144 H 0.58048 0.22319 0.26955 0.0
H2145 H 0.45033 0.28572 0.26972 0.0
H2146 H 0.47025 0.28772 0.24705 0.0
H2147 H 0.52365 0.27202 0.22719 0.0
H2148 H 0.65372 0.20953 0.22659 0.0
H2149 H 0.63461 0.20733 0.2494 0.0
C2150 C 0.55641 0.23725 0.26464 0.0
C2151 C 0.51392 0.25425 0.27139 0.0
C2152 C 0.56804 0.23836 0.2515 0.0
C2153 C 0.4833 0.27235 0.26483 0.0
C2154 C 0.49463 0.27355 0.25182 0.0
C2155 C 0.54817 0.25788 0.23199 0.0
C2156 C 0.59017 0.24099 0.22512 0.0
C2157 C 0.53686 0.25668 0.24508 0.0
C2158 C 0.62104 0.22281 0.2316 0.0
C2159 C 0.61017 0.22152 0.24466 0.0
H2160 H 0.6258 0.02345 0.02016 0.0
H2161 H 0.50784 0.96046 0.02432 0.0
H2162 H 0.47674 0.95836 0.0017 0.0
H2163 H 0.48559 0.97418 0.98075 0.0
H2164 H 0.60526 0.03709 0.97667 0.0
H2165 H 0.63246 0.0394 0.99932 0.0
C2166 C 0.59333 0.00922 0.01616 0.0
C2167 C 0.5696 0.99211 0.02397 0.0
C2168 C 0.57563 0.00811 0.00316 0.0
C2169 C 0.52721 0.97386 0.01856 0.0
C2170 C 0.50923 0.97265 0.00562 0.0
C2171 C 0.51699 0.98847 0.98479 0.0
C2172 C 0.54328 0.00543 0.97697 0.0
C2173 C 0.53335 0.98966 0.99783 0.0
C2174 C 0.58439 0.02376 0.98242 0.0
C2175 C 0.60015 0.02511 0.99539 0.0
loop_
_geom_bond_atom_site_label_1
_geom_bond_atom_site_label_2
_geom_bond_distance
_geom_bond_site_symmetry_2
_ccdc_geom_bond_type
Tb0 O3 2.453 . S
Tb0 O4 2.596 . S
Tb0 O5 2.374 . S
Tb0 O13 2.343 1_455 S
Tb0 O15 2.353 . S
Tb0 O17 2.427 1_455 S
Tb0 O18 2.513 1_455 S
C1 O5 1.251 . S
C1 O7 1.263 . S
Tb2 O4 2.343 1_655 S
Tb2 O7 2.353 1_655 S
Tb2 O10 2.427 1_655 S
Tb2 O11 2.513 1_655 S
Tb2 O12 2.453 . S
Tb2 O13 2.596 . S
Tb2 O14 2.374 . S
O3 Tb0 2.453 . S
O3 C19 1.245 . S
O4 Tb0 2.596 . S
O4 Tb2 2.343 1_455 S
O4 C19 1.259 . S
O5 Tb0 2.374 . S
O5 C1 1.251 . S
C6 O10 1.275 . S
C6 O11 1.246 . S
O7 C1 1.263 . S
O7 Tb2 2.353 1_455 S
C8 O12 1.245 . S
C8 O13 1.259 . S
C9 O14 1.250 1_455 S
C9 O15 1.263 . S
O10 Tb2 2.427 1_455 S
O10 C6 1.275 . S
O11 Tb2 2.513 1_455 S
O11 C6 1.246 . S
O12 Tb2 2.453 . S
O12 C8 1.245 . S
O13 Tb0 2.343 1_655 S
O13 Tb2 2.596 . S
O13 C8 1.259 . S
O14 Tb2 2.374 . S
O14 C9 1.250 1_655 S
O15 Tb0 2.353 . S
O15 C9 1.263 . S
C16 O17 1.275 . S
C16 O18 1.246 . S
O17 Tb0 2.427 1_655 S
O17 C16 1.275 . S
O18 Tb0 2.513 1_655 S
O18 C16 1.246 . S
C19 O3 1.245 . S
C19 O4 1.259 . S
Tb20 O23 2.453 . S
Tb20 O24 2.596 . S
Tb20 O25 2.374 . S
Tb20 O33 2.343 . S
Tb20 O35 2.353 . S
Tb20 O37 2.427 . S
Tb20 O38 2.513 . S
C21 O25 1.251 . S
C21 O27 1.263 . S
Tb22 O24 2.343 . S
Tb22 O27 2.353 . S
Tb22 O30 2.427 . S
Tb22 O31 2.513 . S
Tb22 O32 2.453 . S
Tb22 O33 2.596 . S
Tb22 O34 2.374 . S
O23 Tb20 2.453 . S
O23 C39 1.245 . S
O24 Tb20 2.596 . S
O24 Tb22 2.343 . S
O24 C39 1.259 . S
O25 Tb20 2.374 . S
O25 C21 1.251 . S
C26 O30 1.275 . S
C26 O31 1.246 . S
O27 C21 1.263 . S
O27 Tb22 2.353 . S
C28 O32 1.245 . S
C28 O33 1.259 . S
C29 O34 1.250 . S
C29 O35 1.263 . S
O30 Tb22 2.427 . S
O30 C26 1.275 . S
O31 Tb22 2.513 . S
O31 C26 1.246 . S
O32 Tb22 2.453 . S
O32 C28 1.245 . S
O33 Tb20 2.343 . S
O33 Tb22 2.596 . S
O33 C28 1.259 . S
O34 Tb22 2.374 . S
O34 C29 1.250 . S
O35 Tb20 2.353 . S
O35 C29 1.263 . S
C36 O37 1.275 . S
C36 O38 1.246 . S
O37 Tb20 2.427 . S
O37 C36 1.275 . S
O38 Tb20 2.513 . S
O38 C36 1.246 . S
C39 O23 1.245 . S
C39 O24 1.259 . S
Tb40 O43 2.453 . S
Tb40 O44 2.596 . S
Tb40 O45 2.374 . S
Tb40 O53 2.343 1_455 S
Tb40 O55 2.353 . S
Tb40 O57 2.427 1_455 S
Tb40 O58 2.513 1_455 S
C41 O45 1.251 . S
C41 O47 1.263 . S
Tb42 O44 2.343 1_655 S
Tb42 O47 2.353 1_655 S
Tb42 O50 2.427 1_655 S
Tb42 O51 2.513 1_655 S
Tb42 O52 2.453 . S
Tb42 O53 2.596 . S
Tb42 O54 2.374 . S
O43 Tb40 2.453 . S
O43 C59 1.245 . S
O44 Tb40 2.596 . S
O44 Tb42 2.343 1_455 S
O44 C59 1.259 . S
O45 Tb40 2.374 . S
O45 C41 1.251 . S
C46 O50 1.275 . S
C46 O51 1.246 . S
O47 C41 1.263 . S
O47 Tb42 2.353 1_455 S
C48 O52 1.245 . S
C48 O53 1.259 . S
C49 O54 1.250 1_455 S
C49 O55 1.263 . S
O50 Tb42 2.427 1_455 S
O50 C46 1.275 . S
O51 Tb42 2.513 1_455 S
O51 C46 1.246 . S
O52 Tb42 2.453 . S
O52 C48 1.245 . S
O53 Tb40 2.343 1_655 S
O53 Tb42 2.596 . S
O53 C48 1.259 . S
O54 Tb42 2.374 . S
O54 C49 1.250 1_655 S
O55 Tb40 2.353 . S
O55 C49 1.263 . S
C56 O57 1.275 . S
C56 O58 1.246 . S
O57 Tb40 2.427 1_655 S
O57 C56 1.275 . S
O58 Tb40 2.513 1_655 S
O58 C56 1.246 . S
C59 O43 1.245 . S
C59 O44 1.259 . S
Tb60 O63 2.453 . S
Tb60 O64 2.596 . S
Tb60 O65 2.374 . S
Tb60 O73 2.343 . S
Tb60 O75 2.353 . S
Tb60 O77 2.427 . S
Tb60 O78 2.513 . S
C61 O65 1.251 . S
C61 O67 1.263 . S
Tb62 O64 2.343 . S
Tb62 O67 2.353 . S
Tb62 O70 2.427 . S
Tb62 O71 2.513 . S
Tb62 O72 2.453 . S
Tb62 O73 2.596 . S
Tb62 O74 2.374 . S
O63 Tb60 2.453 . S
O63 C79 1.245 . S
O64 Tb60 2.596 . S
O64 Tb62 2.343 . S
O64 C79 1.259 . S
O65 Tb60 2.374 . S
O65 C61 1.251 . S
C66 O70 1.275 . S
C66 O71 1.246 . S
O67 C61 1.263 . S
O67 Tb62 2.353 . S
C68 O72 1.245 . S
C68 O73 1.259 . S
C69 O74 1.250 . S
C69 O75 1.263 . S
O70 Tb62 2.427 . S
O70 C66 1.275 . S
O71 Tb62 2.513 . S
O71 C66 1.246 . S
O72 Tb62 2.453 . S
O72 C68 1.245 . S
O73 Tb60 2.343 . S
O73 Tb62 2.596 . S
O73 C68 1.259 . S
O74 Tb62 2.374 . S
O74 C69 1.250 . S
O75 Tb60 2.353 . S
O75 C69 1.263 . S
C76 O77 1.275 . S
C76 O78 1.246 . S
O77 Tb60 2.427 . S
O77 C76 1.275 . S
O78 Tb60 2.513 . S
O78 C76 1.246 . S
C79 O63 1.245 . S
C79 O64 1.259 . S
Tb80 O83 2.453 . S
Tb80 O84 2.596 . S
Tb80 O85 2.374 . S
Tb80 O93 2.343 1_455 S
Tb80 O95 2.353 1_455 S
Tb80 O97 2.427 1_455 S
Tb80 O98 2.513 1_455 S
C81 O85 1.251 1_655 S
C81 O87 1.263 . S
Tb82 O84 2.343 1_655 S
Tb82 O87 2.353 . S
Tb82 O90 2.427 1_655 S
Tb82 O91 2.513 1_655 S
Tb82 O92 2.453 . S
Tb82 O93 2.596 . S
Tb82 O94 2.374 . S
O83 Tb80 2.453 . S
O83 C99 1.245 . S
O84 Tb80 2.596 . S
O84 Tb82 2.343 1_455 S
O84 C99 1.259 . S
O85 Tb80 2.374 . S
O85 C81 1.251 1_455 S
C86 O90 1.275 . S
C86 O91 1.246 . S
O87 C81 1.263 . S
O87 Tb82 2.353 . S
C88 O92 1.245 . S
C88 O93 1.259 . S
C89 O94 1.250 . S
C89 O95 1.263 . S
O90 Tb82 2.427 1_455 S
O90 C86 1.275 . S
O91 Tb82 2.513 1_455 S
O91 C86 1.246 . S
O92 Tb82 2.453 . S
O92 C88 1.245 . S
O93 Tb80 2.343 1_655 S
O93 Tb82 2.596 . S
O93 C88 1.259 . S
O94 Tb82 2.374 . S
O94 C89 1.250 . S
O95 Tb80 2.353 1_655 S
O95 C89 1.263 . S
C96 O97 1.275 . S
C96 O98 1.246 . S
O97 Tb80 2.427 1_655 S
O97 C96 1.275 . S
O98 Tb80 2.513 1_655 S
O98 C96 1.246 . S
C99 O83 1.245 . S
C99 O84 1.259 . S
Tb100 O103 2.453 . S
Tb100 O104 2.596 . S
Tb100 O105 2.374 . S
Tb100 O113 2.343 . S
Tb100 O115 2.353 . S
Tb100 O117 2.427 . S
Tb100 O118 2.513 . S
C101 O105 1.251 . S
C101 O107 1.263 . S
Tb102 O104 2.343 . S
Tb102 O107 2.353 . S
Tb102 O110 2.427 . S
Tb102 O111 2.513 . S
Tb102 O112 2.453 . S
Tb102 O113 2.596 . S
Tb102 O114 2.374 . S
O103 Tb100 2.453 . S
O103 C119 1.245 . S
O104 Tb100 2.596 . S
O104 Tb102 2.343 . S
O104 C119 1.259 . S
O105 Tb100 2.374 . S
O105 C101 1.251 . S
C106 O110 1.275 . S
C106 O111 1.246 . S
O107 C101 1.263 . S
O107 Tb102 2.353 . S
C108 O112 1.245 . S
C108 O113 1.259 . S
C109 O114 1.250 . S
C109 O115 1.263 . S
O110 Tb102 2.427 . S
O110 C106 1.275 . S
O111 Tb102 2.513 . S
O111 C106 1.246 . S
O112 Tb102 2.453 . S
O112 C108 1.245 . S
O113 Tb100 2.343 . S
O113 Tb102 2.596 . S
O113 C108 1.259 . S
O114 Tb102 2.374 . S
O114 C109 1.250 . S
O115 Tb100 2.353 . S
O115 C109 1.263 . S
C116 O117 1.275 . S
C116 O118 1.246 . S
O117 Tb100 2.427 . S
O117 C116 1.275 . S
O118 Tb100 2.513 . S
O118 C116 1.246 . S
C119 O103 1.245 . S
C119 O104 1.259 . S
Tb120 O123 2.453 . S
Tb120 O124 2.596 . S
Tb120 O125 2.374 . S
Tb120 O133 2.343 1_455 S
Tb120 O135 2.353 1_455 S
Tb120 O137 2.427 1_455 S
Tb120 O138 2.513 1_455 S
C121 O125 1.251 1_655 S
C121 O127 1.263 . S
Tb122 O124 2.343 1_655 S
Tb122 O127 2.353 . S
Tb122 O130 2.427 1_655 S
Tb122 O131 2.513 1_655 S
Tb122 O132 2.453 . S
Tb122 O133 2.596 . S
Tb122 O134 2.374 . S
O123 Tb120 2.453 . S
O123 C139 1.245 . S
O124 Tb120 2.596 . S
O124 Tb122 2.343 1_455 S
O124 C139 1.259 . S
O125 Tb120 2.374 . S
O125 C121 1.251 1_455 S
C126 O130 1.275 . S
C126 O131 1.246 . S
O127 C121 1.263 . S
O127 Tb122 2.353 . S
C128 O132 1.245 . S
C128 O133 1.259 . S
C129 O134 1.250 . S
C129 O135 1.263 . S
O130 Tb122 2.427 1_455 S
O130 C126 1.275 . S
O131 Tb122 2.513 1_455 S
O131 C126 1.246 . S
O132 Tb122 2.453 . S
O132 C128 1.245 . S
O133 Tb120 2.343 1_655 S
O133 Tb122 2.596 . S
O133 C128 1.259 . S
O134 Tb122 2.374 . S
O134 C129 1.250 . S
O135 Tb120 2.353 1_655 S
O135 C129 1.263 . S
C136 O137 1.275 . S
C136 O138 1.246 . S
O137 Tb120 2.427 1_655 S
O137 C136 1.275 . S
O138 Tb120 2.513 1_655 S
O138 C136 1.246 . S
C139 O123 1.245 . S
C139 O124 1.259 . S
Tb140 O143 2.453 . S
Tb140 O144 2.596 . S
Tb140 O145 2.374 . S
Tb140 O153 2.343 . S
Tb140 O155 2.353 . S
Tb140 O157 2.427 . S
Tb140 O158 2.513 . S
C141 O145 1.251 . S
C141 O147 1.263 . S
Tb142 O144 2.343 . S
Tb142 O147 2.353 . S
Tb142 O150 2.427 . S
Tb142 O151 2.513 . S
Tb142 O152 2.453 . S
Tb142 O153 2.596 . S
Tb142 O154 2.374 . S
O143 Tb140 2.453 . S
O143 C159 1.245 . S
O144 Tb140 2.596 . S
O144 Tb142 2.343 . S
O144 C159 1.259 . S
O145 Tb140 2.374 . S
O145 C141 1.251 . S
C146 O150 1.275 . S
C146 O151 1.246 . S
O147 C141 1.263 . S
O147 Tb142 2.353 . S
C148 O152 1.245 . S
C148 O153 1.259 . S
C149 O154 1.250 . S
C149 O155 1.263 . S
O150 Tb142 2.427 . S
O150 C146 1.275 . S
O151 Tb142 2.513 . S
O151 C146 1.246 . S
O152 Tb142 2.453 . S
O152 C148 1.245 . S
O153 Tb140 2.343 . S
O153 Tb142 2.596 . S
O153 C148 1.259 . S
O154 Tb142 2.374 . S
O154 C149 1.250 . S
O155 Tb140 2.353 . S
O155 C149 1.263 . S
C156 O157 1.275 . S
C156 O158 1.246 . S
O157 Tb140 2.427 . S
O157 C156 1.275 . S
O158 Tb140 2.513 . S
O158 C156 1.246 . S
C159 O143 1.245 . S
C159 O144 1.259 . S
Tb160 O163 2.453 . S
Tb160 O164 2.596 1_565 S
Tb160 O165 2.374 . S
Tb160 O173 2.343 1_455 S
Tb160 O175 2.353 . S
Tb160 O177 2.427 1_455 S
Tb160 O178 2.513 1_455 S
C161 O165 1.290 . S
C161 O167 1.226 1_565 S
Tb162 O164 2.343 1_655 S
Tb162 O167 2.353 1_655 S
Tb162 O170 2.427 1_655 S
Tb162 O171 2.513 1_655 S
Tb162 O172 2.453 . S
Tb162 O173 2.596 1_545 S
Tb162 O174 2.374 . S
O163 Tb160 2.453 . S
O163 C179 1.245 1_565 S
O164 Tb160 2.596 1_545 S
O164 Tb162 2.343 1_455 S
O164 C179 1.259 . S
O165 Tb160 2.374 . S
O165 C161 1.290 . S
C166 O170 1.275 . S
C166 O171 1.246 . S
O167 C161 1.226 1_545 S
O167 Tb162 2.353 1_455 S
C168 O172 1.245 1_565 S
C168 O173 1.259 . S
C169 O174 1.279 1_455 S
C169 O175 1.236 1_545 S
O170 Tb162 2.427 1_455 S
O170 C166 1.275 . S
O171 Tb162 2.513 1_455 S
O171 C166 1.246 . S
O172 Tb162 2.453 . S
O172 C168 1.245 1_545 S
O173 Tb160 2.343 1_655 S
O173 Tb162 2.596 1_565 S
O173 C168 1.259 . S
O174 Tb162 2.374 . S
O174 C169 1.279 1_655 S
O175 Tb160 2.353 . S
O175 C169 1.236 1_565 S
C176 O177 1.275 . S
C176 O178 1.246 . S
O177 Tb160 2.427 1_655 S
O177 C176 1.275 . S
O178 Tb160 2.513 1_655 S
O178 C176 1.246 . S
C179 O163 1.245 1_545 S
C179 O164 1.259 . S
Tb180 O183 2.453 . S
Tb180 O184 2.596 . S
Tb180 O185 2.374 . S
Tb180 O193 2.343 . S
Tb180 O195 2.353 . S
Tb180 O197 2.427 . S
Tb180 O198 2.513 . S
C181 O185 1.251 . S
C181 O187 1.263 . S
Tb182 O184 2.343 . S
Tb182 O187 2.353 . S
Tb182 O190 2.427 . S
Tb182 O191 2.513 . S
Tb182 O192 2.453 . S
Tb182 O193 2.596 . S
Tb182 O194 2.374 . S
O183 Tb180 2.453 . S
O183 C199 1.245 . S
O184 Tb180 2.596 . S
O184 Tb182 2.343 . S
O184 C199 1.259 . S
O185 Tb180 2.374 . S
O185 C181 1.251 . S
C186 O190 1.275 . S
C186 O191 1.246 . S
O187 C181 1.263 . S
O187 Tb182 2.353 . S
C188 O192 1.245 . S
C188 O193 1.259 . S
C189 O194 1.250 . S
C189 O195 1.263 . S
O190 Tb182 2.427 . S
O190 C186 1.275 . S
O191 Tb182 2.513 . S
O191 C186 1.246 . S
O192 Tb182 2.453 . S
O192 C188 1.245 . S
O193 Tb180 2.343 . S
O193 Tb182 2.596 . S
O193 C188 1.259 . S
O194 Tb182 2.374 . S
O194 C189 1.250 . S
O195 Tb180 2.353 . S
O195 C189 1.263 . S
C196 O197 1.275 . S
C196 O198 1.246 . S
O197 Tb180 2.427 . S
O197 C196 1.275 . S
O198 Tb180 2.513 . S
O198 C196 1.246 . S
C199 O183 1.245 . S
C199 O184 1.259 . S
Tb200 O203 2.453 . S
Tb200 O204 2.596 . S
Tb200 O205 2.374 . S
Tb200 O213 2.343 1_455 S
Tb200 O215 2.353 . S
Tb200 O217 2.427 1_455 S
Tb200 O218 2.513 1_455 S
C201 O205 1.251 . S
C201 O207 1.263 . S
Tb202 O204 2.343 1_655 S
Tb202 O207 2.353 1_655 S
Tb202 O210 2.427 1_655 S
Tb202 O211 2.513 1_655 S
Tb202 O212 2.453 . S
Tb202 O213 2.596 . S
Tb202 O214 2.374 . S
O203 Tb200 2.453 . S
O203 C219 1.245 . S
O204 Tb200 2.596 . S
O204 Tb202 2.343 1_455 S
O204 C219 1.259 . S
O205 Tb200 2.374 . S
O205 C201 1.251 . S
C206 O210 1.275 . S
C206 O211 1.246 . S
O207 C201 1.263 . S
O207 Tb202 2.353 1_455 S
C208 O212 1.245 . S
C208 O213 1.259 . S
C209 O214 1.250 1_455 S
C209 O215 1.263 . S
O210 Tb202 2.427 1_455 S
O210 C206 1.275 . S
O211 Tb202 2.513 1_455 S
O211 C206 1.246 . S
O212 Tb202 2.453 . S
O212 C208 1.245 . S
O213 Tb200 2.343 1_655 S
O213 Tb202 2.596 . S
O213 C208 1.259 . S
O214 Tb202 2.374 . S
O214 C209 1.250 1_655 S
O215 Tb200 2.353 . S
O215 C209 1.263 . S
C216 O217 1.275 . S
C216 O218 1.246 . S
O217 Tb200 2.427 1_655 S
O217 C216 1.275 . S
O218 Tb200 2.513 1_655 S
O218 C216 1.246 . S
C219 O203 1.245 . S
C219 O204 1.259 . S
Tb220 O223 2.453 . S
Tb220 O224 2.596 1_565 S
Tb220 O225 2.374 . S
Tb220 O233 2.343 . S
Tb220 O235 2.353 . S
Tb220 O237 2.427 . S
Tb220 O238 2.513 . S
C221 O225 1.290 . S
C221 O227 1.226 1_565 S
Tb222 O224 2.343 . S
Tb222 O227 2.353 . S
Tb222 O230 2.427 . S
Tb222 O231 2.513 . S
Tb222 O232 2.453 . S
Tb222 O233 2.596 1_545 S
Tb222 O234 2.374 . S
O223 Tb220 2.453 . S
O223 C239 1.245 1_565 S
O224 Tb220 2.596 1_545 S
O224 Tb222 2.343 . S
O224 C239 1.259 . S
O225 Tb220 2.374 . S
O225 C221 1.290 . S
C226 O230 1.275 . S
C226 O231 1.246 . S
O227 C221 1.226 1_545 S
O227 Tb222 2.353 . S
C228 O232 1.245 1_565 S
C228 O233 1.259 . S
C229 O234 1.279 . S
C229 O235 1.236 1_545 S
O230 Tb222 2.427 . S
O230 C226 1.275 . S
O231 Tb222 2.513 . S
O231 C226 1.246 . S
O232 Tb222 2.453 . S
O232 C228 1.245 1_545 S
O233 Tb220 2.343 . S
O233 Tb222 2.596 1_565 S
O233 C228 1.259 . S
O234 Tb222 2.374 . S
O234 C229 1.279 . S
O235 Tb220 2.353 . S
O235 C229 1.236 1_565 S
C236 O237 1.275 . S
C236 O238 1.246 . S
O237 Tb220 2.427 . S
O237 C236 1.275 . S
O238 Tb220 2.513 . S
O238 C236 1.246 . S
C239 O223 1.245 1_545 S
C239 O224 1.259 . S
Tb240 O243 2.453 . S
Tb240 O244 2.596 1_565 S
Tb240 O245 2.374 . S
Tb240 O253 2.343 1_455 S
Tb240 O255 2.353 1_455 S
Tb240 O257 2.427 1_455 S
Tb240 O258 2.513 1_455 S
C241 O245 1.279 1_655 S
C241 O247 1.236 1_565 S
Tb242 O244 2.343 1_655 S
Tb242 O247 2.353 . S
Tb242 O250 2.427 1_655 S
Tb242 O251 2.513 1_655 S
Tb242 O252 2.453 . S
Tb242 O253 2.596 1_545 S
Tb242 O254 2.374 . S
O243 Tb240 2.453 . S
O243 C259 1.245 1_565 S
O244 Tb240 2.596 1_545 S
O244 Tb242 2.343 1_455 S
O244 C259 1.259 . S
O245 Tb240 2.374 . S
O245 C241 1.279 1_455 S
C246 O250 1.275 . S
C246 O251 1.246 . S
O247 C241 1.236 1_545 S
O247 Tb242 2.353 . S
C248 O252 1.245 1_565 S
C248 O253 1.259 . S
C249 O254 1.290 . S
C249 O255 1.226 1_545 S
O250 Tb242 2.427 1_455 S
O250 C246 1.275 . S
O251 Tb242 2.513 1_455 S
O251 C246 1.246 . S
O252 Tb242 2.453 . S
O252 C248 1.245 1_545 S
O253 Tb240 2.343 1_655 S
O253 Tb242 2.596 1_565 S
O253 C248 1.259 . S
O254 Tb242 2.374 . S
O254 C249 1.290 . S
O255 Tb240 2.353 1_655 S
O255 C249 1.226 1_565 S
C256 O257 1.275 . S
C256 O258 1.246 . S
O257 Tb240 2.427 1_655 S
O257 C256 1.275 . S
O258 Tb240 2.513 1_655 S
O258 C256 1.246 . S
C259 O243 1.245 1_545 S
C259 O244 1.259 . S
Tb260 O263 2.453 . S
Tb260 O264 2.596 . S
Tb260 O265 2.374 . S
Tb260 O273 2.343 . S
Tb260 O275 2.353 . S
Tb260 O277 2.427 . S
Tb260 O278 2.513 . S
C261 O265 1.251 . S
C261 O267 1.263 . S
Tb262 O264 2.343 . S
Tb262 O267 2.353 . S
Tb262 O270 2.427 . S
Tb262 O271 2.513 . S
Tb262 O272 2.453 . S
Tb262 O273 2.596 . S
Tb262 O274 2.374 . S
O263 Tb260 2.453 . S
O263 C279 1.245 . S
O264 Tb260 2.596 . S
O264 Tb262 2.343 . S
O264 C279 1.259 . S
O265 Tb260 2.374 . S
O265 C261 1.251 . S
C266 O270 1.275 . S
C266 O271 1.246 . S
O267 C261 1.263 . S
O267 Tb262 2.353 . S
C268 O272 1.245 . S
C268 O273 1.259 . S
C269 O274 1.250 . S
C269 O275 1.263 . S
O270 Tb262 2.427 . S
O270 C266 1.275 . S
O271 Tb262 2.513 . S
O271 C266 1.246 . S
O272 Tb262 2.453 . S
O272 C268 1.245 . S
O273 Tb260 2.343 . S
O273 Tb262 2.596 . S
O273 C268 1.259 . S
O274 Tb262 2.374 . S
O274 C269 1.250 . S
O275 Tb260 2.353 . S
O275 C269 1.263 . S
C276 O277 1.275 . S
C276 O278 1.246 . S
O277 Tb260 2.427 . S
O277 C276 1.275 . S
O278 Tb260 2.513 . S
O278 C276 1.246 . S
C279 O263 1.245 . S
C279 O264 1.259 . S
Tb280 O283 2.453 . S
Tb280 O284 2.596 . S
Tb280 O285 2.374 . S
Tb280 O293 2.343 1_455 S
Tb280 O295 2.353 1_455 S
Tb280 O297 2.427 1_455 S
Tb280 O298 2.513 1_455 S
C281 O285 1.251 1_655 S
C281 O287 1.263 . S
Tb282 O284 2.343 1_655 S
Tb282 O287 2.353 . S
Tb282 O290 2.427 1_655 S
Tb282 O291 2.513 1_655 S
Tb282 O292 2.453 . S
Tb282 O293 2.596 . S
Tb282 O294 2.374 . S
O283 Tb280 2.453 . S
O283 C299 1.245 . S
O284 Tb280 2.596 . S
O284 Tb282 2.343 1_455 S
O284 C299 1.259 . S
O285 Tb280 2.374 . S
O285 C281 1.251 1_455 S
C286 O290 1.275 . S
C286 O291 1.246 . S
O287 C281 1.263 . S
O287 Tb282 2.353 . S
C288 O292 1.245 . S
C288 O293 1.259 . S
C289 O294 1.250 . S
C289 O295 1.263 . S
O290 Tb282 2.427 1_455 S
O290 C286 1.275 . S
O291 Tb282 2.513 1_455 S
O291 C286 1.246 . S
O292 Tb282 2.453 . S
O292 C288 1.245 . S
O293 Tb280 2.343 1_655 S
O293 Tb282 2.596 . S
O293 C288 1.259 . S
O294 Tb282 2.374 . S
O294 C289 1.250 . S
O295 Tb280 2.353 1_655 S
O295 C289 1.263 . S
C296 O297 1.275 . S
C296 O298 1.246 . S
O297 Tb280 2.427 1_655 S
O297 C296 1.275 . S
O298 Tb280 2.513 1_655 S
O298 C296 1.246 . S
C299 O283 1.245 . S
C299 O284 1.259 . S
Tb300 O303 2.453 . S
Tb300 O304 2.596 1_565 S
Tb300 O305 2.374 . S
Tb300 O313 2.343 . S
Tb300 O315 2.353 . S
Tb300 O317 2.427 . S
Tb300 O318 2.513 . S
C301 O305 1.279 . S
C301 O307 1.236 1_565 S
Tb302 O304 2.343 . S
Tb302 O307 2.353 . S
Tb302 O310 2.427 . S
Tb302 O311 2.513 . S
Tb302 O312 2.453 . S
Tb302 O313 2.596 1_545 S
Tb302 O314 2.374 . S
O303 Tb300 2.453 . S
O303 C319 1.245 1_565 S
O304 Tb300 2.596 1_545 S
O304 Tb302 2.343 . S
O304 C319 1.259 . S
O305 Tb300 2.374 . S
O305 C301 1.279 . S
C306 O310 1.275 . S
C306 O311 1.246 . S
O307 C301 1.236 1_545 S
O307 Tb302 2.353 . S
C308 O312 1.245 1_565 S
C308 O313 1.259 . S
C309 O314 1.290 . S
C309 O315 1.226 1_545 S
O310 Tb302 2.427 . S
O310 C306 1.275 . S
O311 Tb302 2.513 . S
O311 C306 1.246 . S
O312 Tb302 2.453 . S
O312 C308 1.245 1_545 S
O313 Tb300 2.343 . S
O313 Tb302 2.596 1_565 S
O313 C308 1.259 . S
O314 Tb302 2.374 . S
O314 C309 1.290 . S
O315 Tb300 2.353 . S
O315 C309 1.226 1_565 S
C316 O317 1.275 . S
C316 O318 1.246 . S
O317 Tb300 2.427 . S
O317 C316 1.275 . S
O318 Tb300 2.513 . S
O318 C316 1.246 . S
C319 O303 1.245 1_545 S
C319 O304 1.259 . S
Tb320 O323 2.453 . S
Tb320 O324 2.596 . S
Tb320 O325 2.374 . S
Tb320 O333 2.343 . S
Tb320 O335 2.353 . S
Tb320 O337 2.427 . S
Tb320 O338 2.513 . S
C321 O325 1.251 . S
C321 O327 1.263 . S
Tb322 O324 2.343 . S
Tb322 O327 2.353 . S
Tb322 O330 2.427 . S
Tb322 O331 2.513 . S
Tb322 O332 2.453 . S
Tb322 O333 2.596 . S
Tb322 O334 2.374 . S
O323 Tb320 2.453 . S
O323 C339 1.245 . S
O324 Tb320 2.596 . S
O324 Tb322 2.343 . S
O324 C339 1.259 . S
O325 Tb320 2.374 . S
O325 C321 1.251 . S
C326 O330 1.275 . S
C326 O331 1.246 . S
O327 C321 1.263 . S
O327 Tb322 2.353 . S
C328 O332 1.245 . S
C328 O333 1.259 . S
C329 O334 1.250 . S
C329 O335 1.263 . S
O330 Tb322 2.427 . S
O330 C326 1.275 . S
O331 Tb322 2.513 . S
O331 C326 1.246 . S
O332 Tb322 2.453 . S
O332 C328 1.245 . S
O333 Tb320 2.343 . S
O333 Tb322 2.596 . S
O333 C328 1.259 . S
O334 Tb322 2.374 . S
O334 C329 1.250 . S
O335 Tb320 2.353 . S
O335 C329 1.263 . S
C336 O337 1.275 . S
C336 O338 1.246 . S
O337 Tb320 2.427 . S
O337 C336 1.275 . S
O338 Tb320 2.513 . S
O338 C336 1.246 . S
C339 O323 1.245 . S
C339 O324 1.259 . S
Tb340 O343 2.453 . S
Tb340 O344 2.596 . S
Tb340 O345 2.374 . S
Tb340 O353 2.343 . S
Tb340 O355 2.353 . S
Tb340 O357 2.427 . S
Tb340 O358 2.513 . S
C341 O345 1.251 . S
C341 O347 1.263 . S
Tb342 O344 2.343 . S
Tb342 O347 2.353 . S
Tb342 O350 2.427 . S
Tb342 O351 2.513 . S
Tb342 O352 2.453 . S
Tb342 O353 2.596 . S
Tb342 O354 2.374 . S
O343 Tb340 2.453 . S
O343 C359 1.245 . S
O344 Tb340 2.596 . S
O344 Tb342 2.343 . S
O344 C359 1.259 . S
O345 Tb340 2.374 . S
O345 C341 1.251 . S
C346 O350 1.275 . S
C346 O351 1.246 . S
O347 C341 1.263 . S
O347 Tb342 2.353 . S
C348 O352 1.245 . S
C348 O353 1.259 . S
C349 O354 1.250 . S
C349 O355 1.263 . S
O350 Tb342 2.427 . S
O350 C346 1.275 . S
O351 Tb342 2.513 . S
O351 C346 1.246 . S
O352 Tb342 2.453 . S
O352 C348 1.245 . S
O353 Tb340 2.343 . S
O353 Tb342 2.596 . S
O353 C348 1.259 . S
O354 Tb342 2.374 . S
O354 C349 1.250 . S
O355 Tb340 2.353 . S
O355 C349 1.263 . S
C356 O357 1.275 . S
C356 O358 1.246 . S
O357 Tb340 2.427 . S
O357 C356 1.275 . S
O358 Tb340 2.513 . S
O358 C356 1.246 . S
C359 O343 1.245 . S
C359 O344 1.259 . S
Tb360 O363 2.453 . S
Tb360 O364 2.596 . S
Tb360 O365 2.374 . S
Tb360 O373 2.343 . S
Tb360 O375 2.353 . S
Tb360 O377 2.427 . S
Tb360 O378 2.513 . S
C361 O365 1.251 . S
C361 O367 1.263 . S
Tb362 O364 2.343 . S
Tb362 O367 2.353 . S
Tb362 O370 2.427 . S
Tb362 O371 2.513 . S
Tb362 O372 2.453 . S
Tb362 O373 2.596 . S
Tb362 O374 2.374 . S
O363 Tb360 2.453 . S
O363 C379 1.245 . S
O364 Tb360 2.596 . S
O364 Tb362 2.343 . S
O364 C379 1.259 . S
O365 Tb360 2.374 . S
O365 C361 1.251 . S
C366 O370 1.275 . S
C366 O371 1.246 . S
O367 C361 1.263 . S
O367 Tb362 2.353 . S
C368 O372 1.245 . S
C368 O373 1.259 . S
C369 O374 1.250 . S
C369 O375 1.263 . S
O370 Tb362 2.427 . S
O370 C366 1.275 . S
O371 Tb362 2.513 . S
O371 C366 1.246 . S
O372 Tb362 2.453 . S
O372 C368 1.245 . S
O373 Tb360 2.343 . S
O373 Tb362 2.596 . S
O373 C368 1.259 . S
O374 Tb362 2.374 . S
O374 C369 1.250 . S
O375 Tb360 2.353 . S
O375 C369 1.263 . S
C376 O377 1.275 . S
C376 O378 1.246 . S
O377 Tb360 2.427 . S
O377 C376 1.275 . S
O378 Tb360 2.513 . S
O378 C376 1.246 . S
C379 O363 1.245 . S
C379 O364 1.259 . S
Tb380 O383 2.453 . S
Tb380 O384 2.596 . S
Tb380 O385 2.374 . S
Tb380 O393 2.343 . S
Tb380 O395 2.353 . S
Tb380 O397 2.427 . S
Tb380 O398 2.513 . S
C381 O385 1.251 . S
C381 O387 1.263 . S
Tb382 O384 2.343 . S
Tb382 O387 2.353 . S
Tb382 O390 2.427 . S
Tb382 O391 2.513 . S
Tb382 O392 2.453 . S
Tb382 O393 2.596 . S
Tb382 O394 2.374 . S
O383 Tb380 2.453 . S
O383 C399 1.245 . S
O384 Tb380 2.596 . S
O384 Tb382 2.343 . S
O384 C399 1.259 . S
O385 Tb380 2.374 . S
O385 C381 1.251 . S
C386 O390 1.275 . S
C386 O391 1.246 . S
O387 C381 1.263 . S
O387 Tb382 2.353 . S
C388 O392 1.245 . S
C388 O393 1.259 . S
C389 O394 1.250 . S
C389 O395 1.263 . S
O390 Tb382 2.427 . S
O390 C386 1.275 . S
O391 Tb382 2.513 . S
O391 C386 1.246 . S
O392 Tb382 2.453 . S
O392 C388 1.245 . S
O393 Tb380 2.343 . S
O393 Tb382 2.596 . S
O393 C388 1.259 . S
O394 Tb382 2.374 . S
O394 C389 1.250 . S
O395 Tb380 2.353 . S
O395 C389 1.263 . S
C396 O397 1.275 . S
C396 O398 1.246 . S
O397 Tb380 2.427 . S
O397 C396 1.275 . S
O398 Tb380 2.513 . S
O398 C396 1.246 . S
C399 O383 1.245 . S
C399 O384 1.259 . S
Tb400 O403 2.453 . S
Tb400 O404 2.596 . S
Tb400 O405 2.374 . S
Tb400 O413 2.343 . S
Tb400 O415 2.353 . S
Tb400 O417 2.427 . S
Tb400 O418 2.513 . S
C401 O405 1.251 . S
C401 O407 1.263 . S
Tb402 O404 2.343 . S
Tb402 O407 2.353 . S
Tb402 O410 2.427 . S
Tb402 O411 2.513 . S
Tb402 O412 2.453 . S
Tb402 O413 2.596 . S
Tb402 O414 2.374 . S
O403 Tb400 2.453 . S
O403 C419 1.245 . S
O404 Tb400 2.596 . S
O404 Tb402 2.343 . S
O404 C419 1.259 . S
O405 Tb400 2.374 . S
O405 C401 1.251 . S
C406 O410 1.275 . S
C406 O411 1.246 . S
O407 C401 1.263 . S
O407 Tb402 2.353 . S
C408 O412 1.245 . S
C408 O413 1.259 . S
C409 O414 1.250 . S
C409 O415 1.263 . S
O410 Tb402 2.427 . S
O410 C406 1.275 . S
O411 Tb402 2.513 . S
O411 C406 1.246 . S
O412 Tb402 2.453 . S
O412 C408 1.245 . S
O413 Tb400 2.343 . S
O413 Tb402 2.596 . S
O413 C408 1.259 . S
O414 Tb402 2.374 . S
O414 C409 1.250 . S
O415 Tb400 2.353 . S
O415 C409 1.263 . S
C416 O417 1.275 . S
C416 O418 1.246 . S
O417 Tb400 2.427 . S
O417 C416 1.275 . S
O418 Tb400 2.513 . S
O418 C416 1.246 . S
C419 O403 1.245 . S
C419 O404 1.259 . S
Tb420 O423 2.453 . S
Tb420 O424 2.596 . S
Tb420 O425 2.374 . S
Tb420 O433 2.343 . S
Tb420 O435 2.353 . S
Tb420 O437 2.427 . S
Tb420 O438 2.513 . S
C421 O425 1.251 . S
C421 O427 1.263 . S
Tb422 O424 2.343 . S
Tb422 O427 2.353 . S
Tb422 O430 2.427 . S
Tb422 O431 2.513 . S
Tb422 O432 2.453 . S
Tb422 O433 2.596 . S
Tb422 O434 2.374 . S
O423 Tb420 2.453 . S
O423 C439 1.245 . S
O424 Tb420 2.596 . S
O424 Tb422 2.343 . S
O424 C439 1.259 . S
O425 Tb420 2.374 . S
O425 C421 1.251 . S
C426 O430 1.275 . S
C426 O431 1.246 . S
O427 C421 1.263 . S
O427 Tb422 2.353 . S
C428 O432 1.245 . S
C428 O433 1.259 . S
C429 O434 1.250 . S
C429 O435 1.263 . S
O430 Tb422 2.427 . S
O430 C426 1.275 . S
O431 Tb422 2.513 . S
O431 C426 1.246 . S
O432 Tb422 2.453 . S
O432 C428 1.245 . S
O433 Tb420 2.343 . S
O433 Tb422 2.596 . S
O433 C428 1.259 . S
O434 Tb422 2.374 . S
O434 C429 1.250 . S
O435 Tb420 2.353 . S
O435 C429 1.263 . S
C436 O437 1.275 . S
C436 O438 1.246 . S
O437 Tb420 2.427 . S
O437 C436 1.275 . S
O438 Tb420 2.513 . S
O438 C436 1.246 . S
C439 O423 1.245 . S
C439 O424 1.259 . S
Tb440 O443 2.453 . S
Tb440 O444 2.596 . S
Tb440 O445 2.374 . S
Tb440 O453 2.343 . S
Tb440 O455 2.353 . S
Tb440 O457 2.427 . S
Tb440 O458 2.513 . S
C441 O445 1.251 . S
C441 O447 1.263 . S
Tb442 O444 2.343 . S
Tb442 O447 2.353 . S
Tb442 O450 2.427 . S
Tb442 O451 2.513 . S
Tb442 O452 2.453 . S
Tb442 O453 2.596 . S
Tb442 O454 2.374 . S
O443 Tb440 2.453 . S
O443 C459 1.245 . S
O444 Tb440 2.596 . S
O444 Tb442 2.343 . S
O444 C459 1.259 . S
O445 Tb440 2.374 . S
O445 C441 1.251 . S
C446 O450 1.275 . S
C446 O451 1.246 . S
O447 C441 1.263 . S
O447 Tb442 2.353 . S
C448 O452 1.245 . S
C448 O453 1.259 . S
C449 O454 1.250 . S
C449 O455 1.263 . S
O450 Tb442 2.427 . S
O450 C446 1.275 . S
O451 Tb442 2.513 . S
O451 C446 1.246 . S
O452 Tb442 2.453 . S
O452 C448 1.245 . S
O453 Tb440 2.343 . S
O453 Tb442 2.596 . S
O453 C448 1.259 . S
O454 Tb442 2.374 . S
O454 C449 1.250 . S
O455 Tb440 2.353 . S
O455 C449 1.263 . S
C456 O457 1.275 . S
C456 O458 1.246 . S
O457 Tb440 2.427 . S
O457 C456 1.275 . S
O458 Tb440 2.513 . S
O458 C456 1.246 . S
C459 O443 1.245 . S
C459 O444 1.259 . S
Tb460 O463 2.453 . S
Tb460 O464 2.596 . S
Tb460 O465 2.374 . S
Tb460 O473 2.343 . S
Tb460 O475 2.353 . S
Tb460 O477 2.427 . S
Tb460 O478 2.513 . S
C461 O465 1.251 . S
C461 O467 1.263 . S
Tb462 O464 2.343 . S
Tb462 O467 2.353 . S
Tb462 O470 2.427 . S
Tb462 O471 2.513 . S
Tb462 O472 2.453 . S
Tb462 O473 2.596 . S
Tb462 O474 2.374 . S
O463 Tb460 2.453 . S
O463 C479 1.245 . S
O464 Tb460 2.596 . S
O464 Tb462 2.343 . S
O464 C479 1.259 . S
O465 Tb460 2.374 . S
O465 C461 1.251 . S
C466 O470 1.275 . S
C466 O471 1.246 . S
O467 C461 1.263 . S
O467 Tb462 2.353 . S
C468 O472 1.245 . S
C468 O473 1.259 . S
C469 O474 1.250 . S
C469 O475 1.263 . S
O470 Tb462 2.427 . S
O470 C466 1.275 . S
O471 Tb462 2.513 . S
O471 C466 1.246 . S
O472 Tb462 2.453 . S
O472 C468 1.245 . S
O473 Tb460 2.343 . S
O473 Tb462 2.596 . S
O473 C468 1.259 . S
O474 Tb462 2.374 . S
O474 C469 1.250 . S
O475 Tb460 2.353 . S
O475 C469 1.263 . S
C476 O477 1.275 . S
C476 O478 1.246 . S
O477 Tb460 2.427 . S
O477 C476 1.275 . S
O478 Tb460 2.513 . S
O478 C476 1.246 . S
C479 O463 1.245 . S
C479 O464 1.259 . S
Tb480 O483 2.453 . S
Tb480 O484 2.596 1_565 S
Tb480 O485 2.374 . S
Tb480 O493 2.343 . S
Tb480 O495 2.353 . S
Tb480 O497 2.427 . S
Tb480 O498 2.513 . S
C481 O485 1.290 . S
C481 O487 1.226 1_565 S
Tb482 O484 2.343 . S
Tb482 O487 2.353 . S
Tb482 O490 2.427 . S
Tb482 O491 2.513 . S
Tb482 O492 2.453 . S
Tb482 O493 2.596 1_545 S
Tb482 O494 2.374 . S
O483 Tb480 2.453 . S
O483 C499 1.245 1_565 S
O484 Tb480 2.596 1_545 S
O484 Tb482 2.343 . S
O484 C499 1.259 . S
O485 Tb480 2.374 . S
O485 C481 1.290 . S
C486 O490 1.275 . S
C486 O491 1.246 . S
O487 C481 1.226 1_545 S
O487 Tb482 2.353 . S
C488 O492 1.245 1_565 S
C488 O493 1.259 . S
C489 O494 1.279 . S
C489 O495 1.236 1_545 S
O490 Tb482 2.427 . S
O490 C486 1.275 . S
O491 Tb482 2.513 . S
O491 C486 1.246 . S
O492 Tb482 2.453 . S
O492 C488 1.245 1_545 S
O493 Tb480 2.343 . S
O493 Tb482 2.596 1_565 S
O493 C488 1.259 . S
O494 Tb482 2.374 . S
O494 C489 1.279 . S
O495 Tb480 2.353 . S
O495 C489 1.236 1_565 S
C496 O497 1.275 . S
C496 O498 1.246 . S
O497 Tb480 2.427 . S
O497 C496 1.275 . S
O498 Tb480 2.513 . S
O498 C496 1.246 . S
C499 O483 1.245 1_545 S
C499 O484 1.259 . S
Tb500 O503 2.453 . S
Tb500 O504 2.596 . S
Tb500 O505 2.374 . S
Tb500 O513 2.343 . S
Tb500 O515 2.353 . S
Tb500 O517 2.427 . S
Tb500 O518 2.513 . S
C501 O505 1.251 . S
C501 O507 1.263 . S
Tb502 O504 2.343 . S
Tb502 O507 2.353 . S
Tb502 O510 2.427 . S
Tb502 O511 2.513 . S
Tb502 O512 2.453 . S
Tb502 O513 2.596 . S
Tb502 O514 2.374 . S
O503 Tb500 2.453 . S
O503 C519 1.245 . S
O504 Tb500 2.596 . S
O504 Tb502 2.343 . S
O504 C519 1.259 . S
O505 Tb500 2.374 . S
O505 C501 1.251 . S
C506 O510 1.275 . S
C506 O511 1.246 . S
O507 C501 1.263 . S
O507 Tb502 2.353 . S
C508 O512 1.245 . S
C508 O513 1.259 . S
C509 O514 1.250 . S
C509 O515 1.263 . S
O510 Tb502 2.427 . S
O510 C506 1.275 . S
O511 Tb502 2.513 . S
O511 C506 1.246 . S
O512 Tb502 2.453 . S
O512 C508 1.245 . S
O513 Tb500 2.343 . S
O513 Tb502 2.596 . S
O513 C508 1.259 . S
O514 Tb502 2.374 . S
O514 C509 1.250 . S
O515 Tb500 2.353 . S
O515 C509 1.263 . S
C516 O517 1.275 . S
C516 O518 1.246 . S
O517 Tb500 2.427 . S
O517 C516 1.275 . S
O518 Tb500 2.513 . S
O518 C516 1.246 . S
C519 O503 1.245 . S
C519 O504 1.259 . S
Tb520 O523 2.453 . S
Tb520 O524 2.596 . S
Tb520 O525 2.374 . S
Tb520 O533 2.343 . S
Tb520 O535 2.353 . S
Tb520 O537 2.427 . S
Tb520 O538 2.513 . S
C521 O525 1.251 . S
C521 O527 1.263 . S
Tb522 O524 2.343 . S
Tb522 O527 2.353 . S
Tb522 O530 2.427 . S
Tb522 O531 2.513 . S
Tb522 O532 2.453 . S
Tb522 O533 2.596 . S
Tb522 O534 2.374 . S
O523 Tb520 2.453 . S
O523 C539 1.245 . S
O524 Tb520 2.596 . S
O524 Tb522 2.343 . S
O524 C539 1.259 . S
O525 Tb520 2.374 . S
O525 C521 1.251 . S
C526 O530 1.275 . S
C526 O531 1.246 . S
O527 C521 1.263 . S
O527 Tb522 2.353 . S
C528 O532 1.245 . S
C528 O533 1.259 . S
C529 O534 1.250 . S
C529 O535 1.263 . S
O530 Tb522 2.427 . S
O530 C526 1.275 . S
O531 Tb522 2.513 . S
O531 C526 1.246 . S
O532 Tb522 2.453 . S
O532 C528 1.245 . S
O533 Tb520 2.343 . S
O533 Tb522 2.596 . S
O533 C528 1.259 . S
O534 Tb522 2.374 . S
O534 C529 1.250 . S
O535 Tb520 2.353 . S
O535 C529 1.263 . S
C536 O537 1.275 . S
C536 O538 1.246 . S
O537 Tb520 2.427 . S
O537 C536 1.275 . S
O538 Tb520 2.513 . S
O538 C536 1.246 . S
C539 O523 1.245 . S
C539 O524 1.259 . S
Tb540 O543 2.453 . S
Tb540 O544 2.596 1_565 S
Tb540 O545 2.374 . S
Tb540 O553 2.343 . S
Tb540 O555 2.353 . S
Tb540 O557 2.427 . S
Tb540 O558 2.513 . S
C541 O545 1.290 . S
C541 O547 1.226 1_565 S
Tb542 O544 2.343 . S
Tb542 O547 2.353 . S
Tb542 O550 2.427 . S
Tb542 O551 2.513 . S
Tb542 O552 2.453 . S
Tb542 O553 2.596 1_545 S
Tb542 O554 2.374 . S
O543 Tb540 2.453 . S
O543 C559 1.245 1_565 S
O544 Tb540 2.596 1_545 S
O544 Tb542 2.343 . S
O544 C559 1.259 . S
O545 Tb540 2.374 . S
O545 C541 1.290 . S
C546 O550 1.275 . S
C546 O551 1.246 . S
O547 C541 1.226 1_545 S
O547 Tb542 2.353 . S
C548 O552 1.245 1_565 S
C548 O553 1.259 . S
C549 O554 1.279 . S
C549 O555 1.236 1_545 S
O550 Tb542 2.427 . S
O550 C546 1.275 . S
O551 Tb542 2.513 . S
O551 C546 1.246 . S
O552 Tb542 2.453 . S
O552 C548 1.245 1_545 S
O553 Tb540 2.343 . S
O553 Tb542 2.596 1_565 S
O553 C548 1.259 . S
O554 Tb542 2.374 . S
O554 C549 1.279 . S
O555 Tb540 2.353 . S
O555 C549 1.236 1_565 S
C556 O557 1.275 . S
C556 O558 1.246 . S
O557 Tb540 2.427 . S
O557 C556 1.275 . S
O558 Tb540 2.513 . S
O558 C556 1.246 . S
C559 O543 1.245 1_545 S
C559 O544 1.259 . S
Tb560 O563 2.453 . S
Tb560 O564 2.596 1_565 S
Tb560 O565 2.374 . S
Tb560 O573 2.343 . S
Tb560 O575 2.353 . S
Tb560 O577 2.427 . S
Tb560 O578 2.513 . S
C561 O565 1.279 . S
C561 O567 1.236 1_565 S
Tb562 O564 2.343 . S
Tb562 O567 2.353 . S
Tb562 O570 2.427 . S
Tb562 O571 2.513 . S
Tb562 O572 2.453 . S
Tb562 O573 2.596 1_545 S
Tb562 O574 2.374 . S
O563 Tb560 2.453 . S
O563 C579 1.245 1_565 S
O564 Tb560 2.596 1_545 S
O564 Tb562 2.343 . S
O564 C579 1.259 . S
O565 Tb560 2.374 . S
O565 C561 1.279 . S
C566 O570 1.275 . S
C566 O571 1.246 . S
O567 C561 1.236 1_545 S
O567 Tb562 2.353 . S
C568 O572 1.245 1_565 S
C568 O573 1.259 . S
C569 O574 1.290 . S
C569 O575 1.226 1_545 S
O570 Tb562 2.427 . S
O570 C566 1.275 . S
O571 Tb562 2.513 . S
O571 C566 1.246 . S
O572 Tb562 2.453 . S
O572 C568 1.245 1_545 S
O573 Tb560 2.343 . S
O573 Tb562 2.596 1_565 S
O573 C568 1.259 . S
O574 Tb562 2.374 . S
O574 C569 1.290 . S
O575 Tb560 2.353 . S
O575 C569 1.226 1_565 S
C576 O577 1.275 . S
C576 O578 1.246 . S
O577 Tb560 2.427 . S
O577 C576 1.275 . S
O578 Tb560 2.513 . S
O578 C576 1.246 . S
C579 O563 1.245 1_545 S
C579 O564 1.259 . S
Tb580 O583 2.453 . S
Tb580 O584 2.596 . S
Tb580 O585 2.374 . S
Tb580 O593 2.343 . S
Tb580 O595 2.353 . S
Tb580 O597 2.427 . S
Tb580 O598 2.513 . S
C581 O585 1.251 . S
C581 O587 1.263 . S
Tb582 O584 2.343 . S
Tb582 O587 2.353 . S
Tb582 O590 2.427 . S
Tb582 O591 2.513 . S
Tb582 O592 2.453 . S
Tb582 O593 2.596 . S
Tb582 O594 2.374 . S
O583 Tb580 2.453 . S
O583 C599 1.245 . S
O584 Tb580 2.596 . S
O584 Tb582 2.343 . S
O584 C599 1.259 . S
O585 Tb580 2.374 . S
O585 C581 1.251 . S
C586 O590 1.275 . S
C586 O591 1.246 . S
O587 C581 1.263 . S
O587 Tb582 2.353 . S
C588 O592 1.245 . S
C588 O593 1.259 . S
C589 O594 1.250 . S
C589 O595 1.263 . S
O590 Tb582 2.427 . S
O590 C586 1.275 . S
O591 Tb582 2.513 . S
O591 C586 1.246 . S
O592 Tb582 2.453 . S
O592 C588 1.245 . S
O593 Tb580 2.343 . S
O593 Tb582 2.596 . S
O593 C588 1.259 . S
O594 Tb582 2.374 . S
O594 C589 1.250 . S
O595 Tb580 2.353 . S
O595 C589 1.263 . S
C596 O597 1.275 . S
C596 O598 1.246 . S
O597 Tb580 2.427 . S
O597 C596 1.275 . S
O598 Tb580 2.513 . S
O598 C596 1.246 . S
C599 O583 1.245 . S
C599 O584 1.259 . S
Tb600 O603 2.453 . S
Tb600 O604 2.596 . S
Tb600 O605 2.374 . S
Tb600 O613 2.343 . S
Tb600 O615 2.353 . S
Tb600 O617 2.427 . S
Tb600 O618 2.513 . S
C601 O605 1.251 . S
C601 O607 1.263 . S
Tb602 O604 2.343 . S
Tb602 O607 2.353 . S
Tb602 O610 2.427 . S
Tb602 O611 2.513 . S
Tb602 O612 2.453 . S
Tb602 O613 2.596 . S
Tb602 O614 2.374 . S
O603 Tb600 2.453 . S
O603 C619 1.245 . S
O604 Tb600 2.596 . S
O604 Tb602 2.343 . S
O604 C619 1.259 . S
O605 Tb600 2.374 . S
O605 C601 1.251 . S
C606 O610 1.275 . S
C606 O611 1.246 . S
O607 C601 1.263 . S
O607 Tb602 2.353 . S
C608 O612 1.245 . S
C608 O613 1.259 . S
C609 O614 1.250 . S
C609 O615 1.263 . S
O610 Tb602 2.427 . S
O610 C606 1.275 . S
O611 Tb602 2.513 . S
O611 C606 1.246 . S
O612 Tb602 2.453 . S
O612 C608 1.245 . S
O613 Tb600 2.343 . S
O613 Tb602 2.596 . S
O613 C608 1.259 . S
O614 Tb602 2.374 . S
O614 C609 1.250 . S
O615 Tb600 2.353 . S
O615 C609 1.263 . S
C616 O617 1.275 . S
C616 O618 1.246 . S
O617 Tb600 2.427 . S
O617 C616 1.275 . S
O618 Tb600 2.513 . S
O618 C616 1.246 . S
C619 O603 1.245 . S
C619 O604 1.259 . S
Tb620 O623 2.453 . S
Tb620 O624 2.596 1_565 S
Tb620 O625 2.374 . S
Tb620 O633 2.343 . S
Tb620 O635 2.353 . S
Tb620 O637 2.427 . S
Tb620 O638 2.513 . S
C621 O625 1.279 . S
C621 O627 1.236 1_565 S
Tb622 O624 2.343 . S
Tb622 O627 2.353 . S
Tb622 O630 2.427 . S
Tb622 O631 2.513 . S
Tb622 O632 2.453 . S
Tb622 O633 2.596 1_545 S
Tb622 O634 2.374 . S
O623 Tb620 2.453 . S
O623 C639 1.245 1_565 S
O624 Tb620 2.596 1_545 S
O624 Tb622 2.343 . S
O624 C639 1.259 . S
O625 Tb620 2.374 . S
O625 C621 1.279 . S
C626 O630 1.275 . S
C626 O631 1.246 . S
O627 C621 1.236 1_545 S
O627 Tb622 2.353 . S
C628 O632 1.245 1_565 S
C628 O633 1.259 . S
C629 O634 1.290 . S
C629 O635 1.226 1_545 S
O630 Tb622 2.427 . S
O630 C626 1.275 . S
O631 Tb622 2.513 . S
O631 C626 1.246 . S
O632 Tb622 2.453 . S
O632 C628 1.245 1_545 S
O633 Tb620 2.343 . S
O633 Tb622 2.596 1_565 S
O633 C628 1.259 . S
O634 Tb622 2.374 . S
O634 C629 1.290 . S
O635 Tb620 2.353 . S
O635 C629 1.226 1_565 S
C636 O637 1.275 . S
C636 O638 1.246 . S
O637 Tb620 2.427 . S
O637 C636 1.275 . S
O638 Tb620 2.513 . S
O638 C636 1.246 . S
C639 O623 1.245 1_545 S
C639 O624 1.259 . S
H640 C646 0.930 . S
H641 C649 0.930 1_455 S
H642 C650 0.930 . S
H643 C651 0.930 . S
H644 C654 0.930 . S
H645 C655 0.930 . S
C646 H640 0.930 . S
C646 C647 1.355 . S
C646 C648 1.415 . S
C647 C646 1.355 . S
C647 C649 1.419 . S
C648 C646 1.415 . S
C648 C653 1.425 . S
C648 C655 1.409 . S
C649 H641 0.930 1_655 S
C649 C647 1.419 . S
C649 C650 1.362 1_655 S
C650 H642 0.930 . S
C650 C649 1.362 1_455 S
C650 C653 1.409 1_455 S
C651 H643 0.930 . S
C651 C652 1.355 . S
C651 C653 1.415 . S
C652 C651 1.355 . S
C652 C654 1.419 . S
C653 C648 1.425 . S
C653 C650 1.409 1_655 S
C653 C651 1.415 . S
C654 H644 0.930 . S
C654 C652 1.419 . S
C654 C655 1.362 . S
C655 H645 0.930 . S
C655 C648 1.409 . S
C655 C654 1.362 . S
H656 C662 0.930 . S
H657 C665 0.930 . S
H658 C666 0.930 . S
H659 C667 0.930 . S
H660 C670 0.930 . S
H661 C671 0.930 . S
C662 H656 0.930 . S
C662 C663 1.355 . S
C662 C664 1.415 . S
C663 C662 1.355 . S
C663 C665 1.419 . S
C664 C662 1.415 . S
C664 C669 1.425 . S
C664 C671 1.409 . S
C665 H657 0.930 . S
C665 C663 1.419 . S
C665 C666 1.362 . S
C666 H658 0.930 . S
C666 C665 1.362 . S
C666 C669 1.409 . S
C667 H659 0.930 . S
C667 C668 1.355 . S
C667 C669 1.415 . S
C668 C667 1.355 . S
C668 C670 1.419 . S
C669 C664 1.425 . S
C669 C666 1.409 . S
C669 C667 1.415 . S
C670 H660 0.930 . S
C670 C668 1.419 . S
C670 C671 1.362 . S
C671 H661 0.930 . S
C671 C664 1.409 . S
C671 C670 1.362 . S
H672 C678 0.930 . S
H673 C681 0.930 . S
H674 C682 0.930 . S
H675 C683 0.930 . S
H676 C686 0.930 . S
H677 C687 0.930 . S
C678 H672 0.930 . S
C678 C679 1.355 . S
C678 C680 1.415 . S
C679 C678 1.355 . S
C679 C681 1.419 . S
C680 C678 1.415 . S
C680 C685 1.425 . S
C680 C687 1.409 . S
C681 H673 0.930 . S
C681 C679 1.419 . S
C681 C682 1.362 . S
C682 H674 0.930 . S
C682 C681 1.362 . S
C682 C685 1.409 . S
C683 H675 0.930 . S
C683 C684 1.355 . S
C683 C685 1.415 . S
C684 C683 1.355 . S
C684 C686 1.419 . S
C685 C680 1.425 . S
C685 C682 1.409 . S
C685 C683 1.415 . S
C686 H676 0.930 . S
C686 C684 1.419 . S
C686 C687 1.362 . S
C687 H677 0.930 . S
C687 C680 1.409 . S
C687 C686 1.362 . S
H688 C694 0.930 . S
H689 C697 0.930 . S
H690 C698 0.930 . S
H691 C699 0.930 . S
H692 C702 0.930 . S
H693 C703 0.930 . S
C694 H688 0.930 . S
C694 C695 1.355 . S
C694 C696 1.415 . S
C695 C694 1.355 . S
C695 C697 1.419 . S
C696 C694 1.415 . S
C696 C701 1.425 . S
C696 C703 1.409 . S
C697 H689 0.930 . S
C697 C695 1.419 . S
C697 C698 1.362 . S
C698 H690 0.930 . S
C698 C697 1.362 . S
C698 C701 1.409 . S
C699 H691 0.930 . S
C699 C700 1.355 . S
C699 C701 1.415 . S
C700 C699 1.355 . S
C700 C702 1.419 . S
C701 C696 1.425 . S
C701 C698 1.409 . S
C701 C699 1.415 . S
C702 H692 0.930 . S
C702 C700 1.419 . S
C702 C703 1.362 . S
C703 H693 0.930 . S
C703 C696 1.409 . S
C703 C702 1.362 . S
H704 C710 0.930 1_655 S
H705 C713 0.930 . S
H706 C714 0.930 . S
H707 C715 0.930 . S
H708 C718 0.930 1_655 S
H709 C719 0.930 1_655 S
C710 H704 0.930 1_455 S
C710 C711 1.355 . S
C710 C712 1.415 . S
C711 C710 1.355 . S
C711 C713 1.419 . S
C712 C710 1.415 . S
C712 C717 1.425 . S
C712 C719 1.409 . S
C713 H705 0.930 . S
C713 C711 1.419 . S
C713 C714 1.362 . S
C714 H706 0.930 . S
C714 C713 1.362 . S
C714 C717 1.409 . S
C715 H707 0.930 . S
C715 C716 1.355 . S
C715 C717 1.415 . S
C716 C715 1.355 . S
C716 C718 1.419 . S
C717 C712 1.425 . S
C717 C714 1.409 . S
C717 C715 1.415 . S
C718 H708 0.930 1_455 S
C718 C716 1.419 . S
C718 C719 1.362 . S
C719 H709 0.930 1_455 S
C719 C712 1.409 . S
C719 C718 1.362 . S
H720 C726 0.930 . S
H721 C729 0.930 . S
H722 C730 0.930 . S
H723 C731 0.930 . S
H724 C734 0.930 . S
H725 C735 0.930 . S
C726 H720 0.930 . S
C726 C727 1.355 . S
C726 C728 1.415 . S
C727 C726 1.355 . S
C727 C729 1.419 . S
C728 C726 1.415 . S
C728 C733 1.425 . S
C728 C735 1.409 . S
C729 H721 0.930 . S
C729 C727 1.419 . S
C729 C730 1.362 . S
C730 H722 0.930 . S
C730 C729 1.362 . S
C730 C733 1.409 . S
C731 H723 0.930 . S
C731 C732 1.355 . S
C731 C733 1.415 . S
C732 C731 1.355 . S
C732 C734 1.419 . S
C733 C728 1.425 . S
C733 C730 1.409 . S
C733 C731 1.415 . S
C734 H724 0.930 . S
C734 C732 1.419 . S
C734 C735 1.362 . S
C735 H725 0.930 . S
C735 C728 1.409 . S
C735 C734 1.362 . S
H736 C742 0.930 . S
H737 C745 0.930 1_655 S
H738 C746 0.930 1_655 S
H739 C747 0.930 . S
H740 C750 0.930 . S
H741 C751 0.930 . S
C742 H736 0.930 . S
C742 C743 1.355 . S
C742 C744 1.415 . S
C743 C742 1.355 . S
C743 C745 1.419 . S
C744 C742 1.415 . S
C744 C749 1.425 . S
C744 C751 1.409 . S
C745 H737 0.930 1_455 S
C745 C743 1.419 . S
C745 C746 1.362 . S
C746 H738 0.930 1_455 S
C746 C745 1.362 . S
C746 C749 1.409 . S
C747 H739 0.930 . S
C747 C748 1.355 . S
C747 C749 1.415 . S
C748 C747 1.355 . S
C748 C750 1.419 . S
C749 C744 1.425 . S
C749 C746 1.409 . S
C749 C747 1.415 . S
C750 H740 0.930 . S
C750 C748 1.419 . S
C750 C751 1.362 . S
C751 H741 0.930 . S
C751 C744 1.409 . S
C751 C750 1.362 . S
H752 C758 0.930 . S
H753 C761 0.930 . S
H754 C762 0.930 . S
H755 C763 0.930 . S
H756 C766 0.930 . S
H757 C767 0.930 . S
C758 H752 0.930 . S
C758 C759 1.355 . S
C758 C760 1.415 . S
C759 C758 1.355 . S
C759 C761 1.419 . S
C760 C758 1.415 . S
C760 C765 1.425 . S
C760 C767 1.409 . S
C761 H753 0.930 . S
C761 C759 1.419 . S
C761 C762 1.362 . S
C762 H754 0.930 . S
C762 C761 1.362 . S
C762 C765 1.409 . S
C763 H755 0.930 . S
C763 C764 1.355 . S
C763 C765 1.415 . S
C764 C763 1.355 . S
C764 C766 1.419 . S
C765 C760 1.425 . S
C765 C762 1.409 . S
C765 C763 1.415 . S
C766 H756 0.930 . S
C766 C764 1.419 . S
C766 C767 1.362 . S
C767 H757 0.930 . S
C767 C760 1.409 . S
C767 C766 1.362 . S
H768 C774 0.930 1_455 S
H769 C777 0.930 . S
H770 C778 0.930 . S
H771 C779 0.930 . S
H772 C782 0.930 1_455 S
H773 C783 0.930 1_455 S
C774 H768 0.930 1_655 S
C774 C775 1.355 . S
C774 C776 1.415 . S
C775 C774 1.355 . S
C775 C777 1.419 . S
C776 C774 1.415 . S
C776 C781 1.425 . S
C776 C783 1.409 . S
C777 H769 0.930 . S
C777 C775 1.419 . S
C777 C778 1.362 . S
C778 H770 0.930 . S
C778 C777 1.362 . S
C778 C781 1.409 . S
C779 H771 0.930 . S
C779 C780 1.355 . S
C779 C781 1.415 . S
C780 C779 1.355 . S
C780 C782 1.419 . S
C781 C776 1.425 . S
C781 C778 1.409 . S
C781 C779 1.415 . S
C782 H772 0.930 1_655 S
C782 C780 1.419 . S
C782 C783 1.362 . S
C783 H773 0.930 1_655 S
C783 C776 1.409 . S
C783 C782 1.362 . S
H784 C790 0.930 . S
H785 C793 0.930 . S
H786 C794 0.930 . S
H787 C795 0.930 . S
H788 C798 0.930 . S
H789 C799 0.930 . S
C790 H784 0.930 . S
C790 C791 1.355 . S
C790 C792 1.415 . S
C791 C790 1.355 . S
C791 C793 1.419 . S
C792 C790 1.415 . S
C792 C797 1.425 . S
C792 C799 1.409 . S
C793 H785 0.930 . S
C793 C791 1.419 . S
C793 C794 1.362 . S
C794 H786 0.930 . S
C794 C793 1.362 . S
C794 C797 1.409 . S
C795 H787 0.930 . S
C795 C796 1.355 . S
C795 C797 1.415 . S
C796 C795 1.355 . S
C796 C798 1.419 . S
C797 C792 1.425 . S
C797 C794 1.409 . S
C797 C795 1.415 . S
C798 H788 0.930 . S
C798 C796 1.419 . S
C798 C799 1.362 . S
C799 H789 0.930 . S
C799 C792 1.409 . S
C799 C798 1.362 . S
H800 C806 0.930 . S
H801 C809 0.930 1_455 S
H802 C810 0.930 1_455 S
H803 C811 0.930 . S
H804 C814 0.930 . S
H805 C815 0.930 . S
C806 H800 0.930 . S
C806 C807 1.355 . S
C806 C808 1.415 . S
C807 C806 1.355 . S
C807 C809 1.419 . S
C808 C806 1.415 . S
C808 C813 1.425 . S
C808 C815 1.409 . S
C809 H801 0.930 1_655 S
C809 C807 1.419 . S
C809 C810 1.362 . S
C810 H802 0.930 1_655 S
C810 C809 1.362 . S
C810 C813 1.409 . S
C811 H803 0.930 . S
C811 C812 1.355 . S
C811 C813 1.415 . S
C812 C811 1.355 . S
C812 C814 1.419 . S
C813 C808 1.425 . S
C813 C810 1.409 . S
C813 C811 1.415 . S
C814 H804 0.930 . S
C814 C812 1.419 . S
C814 C815 1.362 . S
C815 H805 0.930 . S
C815 C808 1.409 . S
C815 C814 1.362 . S
H816 C822 0.930 . S
H817 C825 0.930 . S
H818 C826 0.930 . S
H819 C827 0.930 . S
H820 C830 0.930 . S
H821 C831 0.930 . S
C822 H816 0.930 . S
C822 C823 1.355 . S
C822 C824 1.415 . S
C823 C822 1.355 . S
C823 C825 1.419 . S
C824 C822 1.415 . S
C824 C829 1.425 . S
C824 C831 1.409 . S
C825 H817 0.930 . S
C825 C823 1.419 . S
C825 C826 1.362 . S
C826 H818 0.930 . S
C826 C825 1.362 . S
C826 C829 1.409 . S
C827 H819 0.930 . S
C827 C828 1.355 . S
C827 C829 1.415 . S
C828 C827 1.355 . S
C828 C830 1.419 . S
C829 C824 1.425 . S
C829 C826 1.409 . S
C829 C827 1.415 . S
C830 H820 0.930 . S
C830 C828 1.419 . S
C830 C831 1.362 . S
C831 H821 0.930 . S
C831 C824 1.409 . S
C831 C830 1.362 . S
H832 C838 0.930 . S
H833 C841 0.930 . S
H834 C842 0.930 . S
H835 C843 0.930 . S
H836 C846 0.930 . S
H837 C847 0.930 . S
C838 H832 0.930 . S
C838 C839 1.355 . S
C838 C840 1.415 . S
C839 C838 1.355 . S
C839 C841 1.419 . S
C840 C838 1.415 . S
C840 C845 1.425 . S
C840 C847 1.409 . S
C841 H833 0.930 . S
C841 C839 1.419 . S
C841 C842 1.362 . S
C842 H834 0.930 . S
C842 C841 1.362 . S
C842 C845 1.409 . S
C843 H835 0.930 . S
C843 C844 1.355 . S
C843 C845 1.415 . S
C844 C843 1.355 . S
C844 C846 1.419 . S
C845 C840 1.425 . S
C845 C842 1.409 . S
C845 C843 1.415 . S
C846 H836 0.930 . S
C846 C844 1.419 . S
C846 C847 1.362 . S
C847 H837 0.930 . S
C847 C840 1.409 . S
C847 C846 1.362 . S
H848 C854 0.930 . S
H849 C857 0.930 . S
H850 C858 0.930 . S
H851 C859 0.930 . S
H852 C862 0.930 . S
H853 C863 0.930 . S
C854 H848 0.930 . S
C854 C855 1.355 . S
C854 C856 1.415 . S
C855 C854 1.355 . S
C855 C857 1.419 . S
C856 C854 1.415 . S
C856 C861 1.425 . S
C856 C863 1.409 . S
C857 H849 0.930 . S
C857 C855 1.419 . S
C857 C858 1.362 . S
C858 H850 0.930 . S
C858 C857 1.362 . S
C858 C861 1.409 . S
C859 H851 0.930 . S
C859 C860 1.355 . S
C859 C861 1.415 . S
C860 C859 1.355 . S
C860 C862 1.419 . S
C861 C856 1.425 . S
C861 C858 1.409 . S
C861 C859 1.415 . S
C862 H852 0.930 . S
C862 C860 1.419 . S
C862 C863 1.362 . S
C863 H853 0.930 . S
C863 C856 1.409 . S
C863 C862 1.362 . S
H864 C870 0.930 . S
H865 C873 0.930 . S
H866 C874 0.930 1_655 S
H867 C875 0.930 . S
H868 C878 0.930 . S
H869 C879 0.930 . S
C870 H864 0.930 . S
C870 C871 1.355 . S
C870 C872 1.415 . S
C871 C870 1.355 . S
C871 C873 1.419 . S
C872 C870 1.415 . S
C872 C877 1.425 . S
C872 C879 1.409 . S
C873 H865 0.930 . S
C873 C871 1.419 . S
C873 C874 1.362 . S
C874 H866 0.930 1_455 S
C874 C873 1.362 . S
C874 C877 1.409 . S
C875 H867 0.930 . S
C875 C876 1.355 . S
C875 C877 1.415 . S
C876 C875 1.355 . S
C876 C878 1.419 . S
C877 C872 1.425 . S
C877 C874 1.409 . S
C877 C875 1.415 . S
C878 H868 0.930 . S
C878 C876 1.419 . S
C878 C879 1.362 . S
C879 H869 0.930 . S
C879 C872 1.409 . S
C879 C878 1.362 . S
H880 C886 0.930 . S
H881 C889 0.930 . S
H882 C890 0.930 . S
H883 C891 0.930 . S
H884 C894 0.930 . S
H885 C895 0.930 . S
C886 H880 0.930 . S
C886 C887 1.355 . S
C886 C888 1.415 . S
C887 C886 1.355 . S
C887 C889 1.419 . S
C888 C886 1.415 . S
C888 C893 1.425 . S
C888 C895 1.409 . S
C889 H881 0.930 . S
C889 C887 1.419 . S
C889 C890 1.362 . S
C890 H882 0.930 . S
C890 C889 1.362 . S
C890 C893 1.409 . S
C891 H883 0.930 . S
C891 C892 1.355 . S
C891 C893 1.415 . S
C892 C891 1.355 . S
C892 C894 1.419 . S
C893 C888 1.425 . S
C893 C890 1.409 . S
C893 C891 1.415 . S
C894 H884 0.930 . S
C894 C892 1.419 . S
C894 C895 1.362 . S
C895 H885 0.930 . S
C895 C888 1.409 . S
C895 C894 1.362 . S
H896 C902 0.930 . S
H897 C905 0.930 1_655 S
H898 C906 0.930 1_655 S
H899 C907 0.930 . S
H900 C910 0.930 . S
H901 C911 0.930 . S
C902 H896 0.930 . S
C902 C903 1.355 . S
C902 C904 1.415 . S
C903 C902 1.355 . S
C903 C905 1.419 . S
C904 C902 1.415 . S
C904 C909 1.425 . S
C904 C911 1.409 . S
C905 H897 0.930 1_455 S
C905 C903 1.419 . S
C905 C906 1.362 . S
C906 H898 0.930 1_455 S
C906 C905 1.362 . S
C906 C909 1.409 . S
C907 H899 0.930 . S
C907 C908 1.355 . S
C907 C909 1.415 . S
C908 C907 1.355 . S
C908 C910 1.419 . S
C909 C904 1.425 . S
C909 C906 1.409 . S
C909 C907 1.415 . S
C910 H900 0.930 . S
C910 C908 1.419 . S
C910 C911 1.362 . S
C911 H901 0.930 . S
C911 C904 1.409 . S
C911 C910 1.362 . S
H912 C918 0.930 . S
H913 C921 0.930 . S
H914 C922 0.930 1_655 S
H915 C923 0.930 1_655 S
H916 C926 0.930 . S
H917 C927 0.930 . S
C918 H912 0.930 . S
C918 C919 1.355 . S
C918 C920 1.415 . S
C919 C918 1.355 . S
C919 C921 1.419 . S
C920 C918 1.415 . S
C920 C925 1.425 . S
C920 C927 1.409 . S
C921 H913 0.930 . S
C921 C919 1.419 . S
C921 C922 1.362 . S
C922 H914 0.930 1_455 S
C922 C921 1.362 . S
C922 C925 1.409 . S
C923 H915 0.930 1_455 S
C923 C924 1.355 . S
C923 C925 1.415 . S
C924 C923 1.355 . S
C924 C926 1.419 . S
C925 C920 1.425 . S
C925 C922 1.409 . S
C925 C923 1.415 . S
C926 H916 0.930 . S
C926 C924 1.419 . S
C926 C927 1.362 . S
C927 H917 0.930 . S
C927 C920 1.409 . S
C927 C926 1.362 . S
H928 C934 0.930 . S
H929 C937 0.930 . S
H930 C938 0.930 . S
H931 C939 0.930 . S
H932 C942 0.930 . S
H933 C943 0.930 . S
C934 H928 0.930 . S
C934 C935 1.355 . S
C934 C936 1.415 . S
C935 C934 1.355 . S
C935 C937 1.419 . S
C936 C934 1.415 . S
C936 C941 1.425 . S
C936 C943 1.409 . S
C937 H929 0.930 . S
C937 C935 1.419 . S
C937 C938 1.362 . S
C938 H930 0.930 . S
C938 C937 1.362 . S
C938 C941 1.409 . S
C939 H931 0.930 . S
C939 C940 1.355 . S
C939 C941 1.415 . S
C940 C939 1.355 . S
C940 C942 1.419 . S
C941 C936 1.425 . S
C941 C938 1.409 . S
C941 C939 1.415 . S
C942 H932 0.930 . S
C942 C940 1.419 . S
C942 C943 1.362 . S
C943 H933 0.930 . S
C943 C936 1.409 . S
C943 C942 1.362 . S
H944 C950 0.930 . S
H945 C953 0.930 1_455 S
H946 C954 0.930 1_455 S
H947 C955 0.930 . S
H948 C958 0.930 . S
H949 C959 0.930 . S
C950 H944 0.930 . S
C950 C951 1.355 . S
C950 C952 1.415 . S
C951 C950 1.355 . S
C951 C953 1.419 . S
C952 C950 1.415 . S
C952 C957 1.425 . S
C952 C959 1.409 . S
C953 H945 0.930 1_655 S
C953 C951 1.419 . S
C953 C954 1.362 . S
C954 H946 0.930 1_655 S
C954 C953 1.362 . S
C954 C957 1.409 . S
C955 H947 0.930 . S
C955 C956 1.355 . S
C955 C957 1.415 . S
C956 C955 1.355 . S
C956 C958 1.419 . S
C957 C952 1.425 . S
C957 C954 1.409 . S
C957 C955 1.415 . S
C958 H948 0.930 . S
C958 C956 1.419 . S
C958 C959 1.362 . S
C959 H949 0.930 . S
C959 C952 1.409 . S
C959 C958 1.362 . S
H960 C966 0.930 . S
H961 C969 0.930 . S
H962 C970 0.930 . S
H963 C971 0.930 . S
H964 C974 0.930 . S
H965 C975 0.930 . S
C966 H960 0.930 . S
C966 C967 1.355 1_565 S
C966 C968 1.415 . S
C967 C966 1.355 1_545 S
C967 C969 1.419 . S
C968 C966 1.415 . S
C968 C973 1.425 1_565 S
C968 C975 1.409 . S
C969 H961 0.930 . S
C969 C967 1.419 . S
C969 C970 1.362 . S
C970 H962 0.930 . S
C970 C969 1.362 . S
C970 C973 1.409 . S
C971 H963 0.930 . S
C971 C972 1.355 1_545 S
C971 C973 1.415 . S
C972 C971 1.355 1_565 S
C972 C974 1.419 . S
C973 C968 1.425 1_545 S
C973 C970 1.409 . S
C973 C971 1.415 . S
C974 H964 0.930 . S
C974 C972 1.419 . S
C974 C975 1.362 . S
C975 H965 0.930 . S
C975 C968 1.409 . S
C975 C974 1.362 . S
H976 C982 0.930 . S
H977 C985 0.930 . S
H978 C986 0.930 . S
H979 C987 0.930 . S
H980 C990 0.930 1_655 S
H981 C991 0.930 1_655 S
C982 H976 0.930 . S
C982 C983 1.355 . S
C982 C984 1.415 . S
C983 C982 1.355 . S
C983 C985 1.419 . S
C984 C982 1.415 . S
C984 C989 1.425 . S
C984 C991 1.409 . S
C985 H977 0.930 . S
C985 C983 1.419 . S
C985 C986 1.362 . S
C986 H978 0.930 . S
C986 C985 1.362 . S
C986 C989 1.409 . S
C987 H979 0.930 . S
C987 C988 1.355 . S
C987 C989 1.415 . S
C988 C987 1.355 . S
C988 C990 1.419 . S
C989 C984 1.425 . S
C989 C986 1.409 . S
C989 C987 1.415 . S
C990 H980 0.930 1_455 S
C990 C988 1.419 . S
C990 C991 1.362 . S
C991 H981 0.930 1_455 S
C991 C984 1.409 . S
C991 C990 1.362 . S
H992 C998 0.930 . S
H993 C1001 0.930 . S
H994 C1002 0.930 . S
H995 C1003 0.930 . S
H996 C1006 0.930 . S
H997 C1007 0.930 . S
C998 H992 0.930 . S
C998 C999 1.355 1_545 S
C998 C1000 1.415 . S
C999 C998 1.355 1_565 S
C999 C1001 1.419 . S
C1000 C998 1.415 . S
C1000 C1005 1.425 1_545 S
C1000 C1007 1.409 . S
C1001 H993 0.930 . S
C1001 C999 1.419 . S
C1001 C1002 1.362 . S
C1002 H994 0.930 . S
C1002 C1001 1.362 . S
C1002 C1005 1.409 . S
C1003 H995 0.930 . S
C1003 C1004 1.355 1_565 S
C1003 C1005 1.415 . S
C1004 C1003 1.355 1_545 S
C1004 C1006 1.419 . S
C1005 C1000 1.425 1_565 S
C1005 C1002 1.409 . S
C1005 C1003 1.415 . S
C1006 H996 0.930 . S
C1006 C1004 1.419 . S
C1006 C1007 1.362 . S
C1007 H997 0.930 . S
C1007 C1000 1.409 . S
C1007 C1006 1.362 . S
H1008 C1014 0.930 . S
H1009 C1017 0.930 . S
H1010 C1018 0.930 . S
H1011 C1019 0.930 . S
H1012 C1022 0.930 . S
H1013 C1023 0.930 . S
C1014 H1008 0.930 . S
C1014 C1015 1.355 . S
C1014 C1016 1.415 . S
C1015 C1014 1.355 . S
C1015 C1017 1.419 . S
C1016 C1014 1.415 . S
C1016 C1021 1.425 . S
C1016 C1023 1.409 . S
C1017 H1009 0.930 . S
C1017 C1015 1.419 . S
C1017 C1018 1.362 . S
C1018 H1010 0.930 . S
C1018 C1017 1.362 . S
C1018 C1021 1.409 . S
C1019 H1011 0.930 . S
C1019 C1020 1.355 . S
C1019 C1021 1.415 . S
C1020 C1019 1.355 . S
C1020 C1022 1.419 . S
C1021 C1016 1.425 . S
C1021 C1018 1.409 . S
C1021 C1019 1.415 . S
C1022 H1012 0.930 . S
C1022 C1020 1.419 . S
C1022 C1023 1.362 . S
C1023 H1013 0.930 . S
C1023 C1016 1.409 . S
C1023 C1022 1.362 . S
H1024 C1030 0.930 . S
H1025 C1033 0.930 . S
H1026 C1034 0.930 . S
H1027 C1035 0.930 . S
H1028 C1038 0.930 . S
H1029 C1039 0.930 . S
C1030 H1024 0.930 . S
C1030 C1031 1.355 . S
C1030 C1032 1.415 . S
C1031 C1030 1.355 . S
C1031 C1033 1.419 . S
C1032 C1030 1.415 . S
C1032 C1037 1.425 . S
C1032 C1039 1.409 . S
C1033 H1025 0.930 . S
C1033 C1031 1.419 . S
C1033 C1034 1.362 . S
C1034 H1026 0.930 . S
C1034 C1033 1.362 . S
C1034 C1037 1.409 . S
C1035 H1027 0.930 . S
C1035 C1036 1.355 . S
C1035 C1037 1.415 . S
C1036 C1035 1.355 . S
C1036 C1038 1.419 . S
C1037 C1032 1.425 . S
C1037 C1034 1.409 . S
C1037 C1035 1.415 . S
C1038 H1028 0.930 . S
C1038 C1036 1.419 . S
C1038 C1039 1.362 . S
C1039 H1029 0.930 . S
C1039 C1032 1.409 . S
C1039 C1038 1.362 . S
H1040 C1046 0.930 . S
H1041 C1049 0.930 . S
H1042 C1050 0.930 . S
H1043 C1051 0.930 . S
H1044 C1054 0.930 . S
H1045 C1055 0.930 . S
C1046 H1040 0.930 . S
C1046 C1047 1.355 . S
C1046 C1048 1.415 . S
C1047 C1046 1.355 . S
C1047 C1049 1.419 . S
C1048 C1046 1.415 . S
C1048 C1053 1.425 . S
C1048 C1055 1.409 . S
C1049 H1041 0.930 . S
C1049 C1047 1.419 . S
C1049 C1050 1.362 . S
C1050 H1042 0.930 . S
C1050 C1049 1.362 . S
C1050 C1053 1.409 . S
C1051 H1043 0.930 . S
C1051 C1052 1.355 . S
C1051 C1053 1.415 . S
C1052 C1051 1.355 . S
C1052 C1054 1.419 . S
C1053 C1048 1.425 . S
C1053 C1050 1.409 . S
C1053 C1051 1.415 . S
C1054 H1044 0.930 . S
C1054 C1052 1.419 . S
C1054 C1055 1.362 . S
C1055 H1045 0.930 . S
C1055 C1048 1.409 . S
C1055 C1054 1.362 . S
H1056 C1062 0.930 . S
H1057 C1065 0.930 . S
H1058 C1066 0.930 . S
H1059 C1067 0.930 . S
H1060 C1070 0.930 . S
H1061 C1071 0.930 . S
C1062 H1056 0.930 . S
C1062 C1063 1.355 . S
C1062 C1064 1.415 . S
C1063 C1062 1.355 . S
C1063 C1065 1.419 . S
C1064 C1062 1.415 . S
C1064 C1069 1.425 . S
C1064 C1071 1.409 . S
C1065 H1057 0.930 . S
C1065 C1063 1.419 . S
C1065 C1066 1.362 . S
C1066 H1058 0.930 . S
C1066 C1065 1.362 . S
C1066 C1069 1.409 . S
C1067 H1059 0.930 . S
C1067 C1068 1.355 . S
C1067 C1069 1.415 . S
C1068 C1067 1.355 . S
C1068 C1070 1.419 . S
C1069 C1064 1.425 . S
C1069 C1066 1.409 . S
C1069 C1067 1.415 . S
C1070 H1060 0.930 . S
C1070 C1068 1.419 . S
C1070 C1071 1.362 . S
C1071 H1061 0.930 . S
C1071 C1064 1.409 . S
C1071 C1070 1.362 . S
H1072 C1078 0.930 . S
H1073 C1081 0.930 . S
H1074 C1082 0.930 . S
H1075 C1083 0.930 . S
H1076 C1086 0.930 . S
H1077 C1087 0.930 . S
C1078 H1072 0.930 . S
C1078 C1079 1.355 . S
C1078 C1080 1.415 . S
C1079 C1078 1.355 . S
C1079 C1081 1.419 . S
C1080 C1078 1.415 . S
C1080 C1085 1.425 . S
C1080 C1087 1.409 . S
C1081 H1073 0.930 . S
C1081 C1079 1.419 . S
C1081 C1082 1.362 . S
C1082 H1074 0.930 . S
C1082 C1081 1.362 . S
C1082 C1085 1.409 . S
C1083 H1075 0.930 . S
C1083 C1084 1.355 . S
C1083 C1085 1.415 . S
C1084 C1083 1.355 . S
C1084 C1086 1.419 . S
C1085 C1080 1.425 . S
C1085 C1082 1.409 . S
C1085 C1083 1.415 . S
C1086 H1076 0.930 . S
C1086 C1084 1.419 . S
C1086 C1087 1.362 . S
C1087 H1077 0.930 . S
C1087 C1080 1.409 . S
C1087 C1086 1.362 . S
H1088 C1094 0.930 . S
H1089 C1097 0.930 . S
H1090 C1098 0.930 . S
H1091 C1099 0.930 . S
H1092 C1102 0.930 . S
H1093 C1103 0.930 . S
C1094 H1088 0.930 . S
C1094 C1095 1.355 1_545 S
C1094 C1096 1.415 . S
C1095 C1094 1.355 1_565 S
C1095 C1097 1.419 . S
C1096 C1094 1.415 . S
C1096 C1101 1.425 1_545 S
C1096 C1103 1.409 . S
C1097 H1089 0.930 . S
C1097 C1095 1.419 . S
C1097 C1098 1.362 . S
C1098 H1090 0.930 . S
C1098 C1097 1.362 . S
C1098 C1101 1.409 . S
C1099 H1091 0.930 . S
C1099 C1100 1.355 1_565 S
C1099 C1101 1.415 . S
C1100 C1099 1.355 1_545 S
C1100 C1102 1.419 . S
C1101 C1096 1.425 1_565 S
C1101 C1098 1.409 . S
C1101 C1099 1.415 . S
C1102 H1092 0.930 . S
C1102 C1100 1.419 . S
C1102 C1103 1.362 . S
C1103 H1093 0.930 . S
C1103 C1096 1.409 . S
C1103 C1102 1.362 . S
H1104 C1110 0.930 . S
H1105 C1113 0.930 . S
H1106 C1114 0.930 . S
H1107 C1115 0.930 . S
H1108 C1118 0.930 . S
H1109 C1119 0.930 . S
C1110 H1104 0.930 . S
C1110 C1111 1.355 . S
C1110 C1112 1.415 . S
C1111 C1110 1.355 . S
C1111 C1113 1.419 . S
C1112 C1110 1.415 . S
C1112 C1117 1.425 . S
C1112 C1119 1.409 . S
C1113 H1105 0.930 . S
C1113 C1111 1.419 . S
C1113 C1114 1.362 . S
C1114 H1106 0.930 . S
C1114 C1113 1.362 . S
C1114 C1117 1.409 . S
C1115 H1107 0.930 . S
C1115 C1116 1.355 . S
C1115 C1117 1.415 . S
C1116 C1115 1.355 . S
C1116 C1118 1.419 . S
C1117 C1112 1.425 . S
C1117 C1114 1.409 . S
C1117 C1115 1.415 . S
C1118 H1108 0.930 . S
C1118 C1116 1.419 . S
C1118 C1119 1.362 . S
C1119 H1109 0.930 . S
C1119 C1112 1.409 . S
C1119 C1118 1.362 . S
H1120 C1126 0.930 . S
H1121 C1129 0.930 . S
H1122 C1130 0.930 . S
H1123 C1131 0.930 . S
H1124 C1134 0.930 . S
H1125 C1135 0.930 . S
C1126 H1120 0.930 . S
C1126 C1127 1.355 1_565 S
C1126 C1128 1.415 . S
C1127 C1126 1.355 1_545 S
C1127 C1129 1.419 . S
C1128 C1126 1.415 . S
C1128 C1133 1.425 1_565 S
C1128 C1135 1.409 . S
C1129 H1121 0.930 . S
C1129 C1127 1.419 . S
C1129 C1130 1.362 . S
C1130 H1122 0.930 . S
C1130 C1129 1.362 . S
C1130 C1133 1.409 . S
C1131 H1123 0.930 . S
C1131 C1132 1.355 1_545 S
C1131 C1133 1.415 . S
C1132 C1131 1.355 1_565 S
C1132 C1134 1.419 . S
C1133 C1128 1.425 1_545 S
C1133 C1130 1.409 . S
C1133 C1131 1.415 . S
C1134 H1124 0.930 . S
C1134 C1132 1.419 . S
C1134 C1135 1.362 . S
C1135 H1125 0.930 . S
C1135 C1128 1.409 . S
C1135 C1134 1.362 . S
H1136 C1142 0.930 . S
H1137 C1145 0.930 . S
H1138 C1146 0.930 . S
H1139 C1147 0.930 . S
H1140 C1150 0.930 . S
H1141 C1151 0.930 . S
C1142 H1136 0.930 . S
C1142 C1143 1.355 . S
C1142 C1144 1.415 . S
C1143 C1142 1.355 . S
C1143 C1145 1.419 . S
C1144 C1142 1.415 . S
C1144 C1149 1.425 . S
C1144 C1151 1.409 . S
C1145 H1137 0.930 . S
C1145 C1143 1.419 . S
C1145 C1146 1.362 . S
C1146 H1138 0.930 . S
C1146 C1145 1.362 . S
C1146 C1149 1.409 . S
C1147 H1139 0.930 . S
C1147 C1148 1.355 . S
C1147 C1149 1.415 . S
C1148 C1147 1.355 . S
C1148 C1150 1.419 . S
C1149 C1144 1.425 . S
C1149 C1146 1.409 . S
C1149 C1147 1.415 . S
C1150 H1140 0.930 . S
C1150 C1148 1.419 . S
C1150 C1151 1.362 . S
C1151 H1141 0.930 . S
C1151 C1144 1.409 . S
C1151 C1150 1.362 . S
H1152 C1158 0.930 . S
H1153 C1161 0.929 1_655 S
H1154 C1162 0.930 1_655 S
H1155 C1163 0.930 . S
H1156 C1166 0.930 . S
H1157 C1167 0.930 . S
C1158 H1152 0.930 . S
C1158 C1159 1.355 . S
C1158 C1160 1.415 . S
C1159 C1158 1.355 . S
C1159 C1161 1.420 . S
C1160 C1158 1.415 . S
C1160 C1165 1.425 . S
C1160 C1167 1.409 . S
C1161 H1153 0.929 1_455 S
C1161 C1159 1.420 . S
C1161 C1162 1.362 . S
C1162 H1154 0.930 1_455 S
C1162 C1161 1.362 . S
C1162 C1165 1.409 . S
C1163 H1155 0.930 . S
C1163 C1164 1.355 . S
C1163 C1165 1.415 . S
C1164 C1163 1.355 . S
C1164 C1166 1.419 . S
C1165 C1160 1.425 . S
C1165 C1162 1.409 . S
C1165 C1163 1.415 . S
C1166 H1156 0.930 . S
C1166 C1164 1.419 . S
C1166 C1167 1.362 . S
C1167 H1157 0.930 . S
C1167 C1160 1.409 . S
C1167 C1166 1.362 . S
H1168 C1174 0.930 . S
H1169 C1177 0.930 . S
H1170 C1178 0.930 . S
H1171 C1179 0.930 . S
H1172 C1182 0.930 . S
H1173 C1183 0.930 . S
C1174 H1168 0.930 . S
C1174 C1175 1.355 . S
C1174 C1176 1.415 . S
C1175 C1174 1.355 . S
C1175 C1177 1.419 . S
C1176 C1174 1.415 . S
C1176 C1181 1.425 . S
C1176 C1183 1.409 . S
C1177 H1169 0.930 . S
C1177 C1175 1.419 . S
C1177 C1178 1.362 . S
C1178 H1170 0.930 . S
C1178 C1177 1.362 . S
C1178 C1181 1.409 . S
C1179 H1171 0.930 . S
C1179 C1180 1.355 . S
C1179 C1181 1.415 . S
C1180 C1179 1.355 . S
C1180 C1182 1.419 . S
C1181 C1176 1.425 . S
C1181 C1178 1.409 . S
C1181 C1179 1.415 . S
C1182 H1172 0.930 . S
C1182 C1180 1.419 . S
C1182 C1183 1.362 . S
C1183 H1173 0.930 . S
C1183 C1176 1.409 . S
C1183 C1182 1.362 . S
H1184 C1190 0.930 . S
H1185 C1193 0.930 1_455 S
H1186 C1194 0.930 . S
H1187 C1195 0.930 . S
H1188 C1198 0.930 . S
H1189 C1199 0.930 . S
C1190 H1184 0.930 . S
C1190 C1191 1.355 . S
C1190 C1192 1.415 . S
C1191 C1190 1.355 . S
C1191 C1193 1.419 . S
C1192 C1190 1.415 . S
C1192 C1197 1.425 . S
C1192 C1199 1.409 . S
C1193 H1185 0.930 1_655 S
C1193 C1191 1.419 . S
C1193 C1194 1.362 . S
C1194 H1186 0.930 . S
C1194 C1193 1.362 . S
C1194 C1197 1.409 . S
C1195 H1187 0.930 . S
C1195 C1196 1.355 . S
C1195 C1197 1.415 . S
C1196 C1195 1.355 . S
C1196 C1198 1.419 . S
C1197 C1192 1.425 . S
C1197 C1194 1.409 . S
C1197 C1195 1.415 . S
C1198 H1188 0.930 . S
C1198 C1196 1.419 . S
C1198 C1199 1.362 . S
C1199 H1189 0.930 . S
C1199 C1192 1.409 . S
C1199 C1198 1.362 . S
H1200 C1206 0.930 . S
H1201 C1209 0.930 1_455 S
H1202 C1210 0.930 . S
H1203 C1211 0.930 . S
H1204 C1214 0.930 . S
H1205 C1215 0.930 . S
C1206 H1200 0.930 . S
C1206 C1207 1.355 . S
C1206 C1208 1.415 . S
C1207 C1206 1.355 . S
C1207 C1209 1.419 . S
C1208 C1206 1.415 . S
C1208 C1213 1.425 . S
C1208 C1215 1.409 . S
C1209 H1201 0.930 1_655 S
C1209 C1207 1.419 . S
C1209 C1210 1.362 . S
C1210 H1202 0.930 . S
C1210 C1209 1.362 . S
C1210 C1213 1.409 . S
C1211 H1203 0.930 . S
C1211 C1212 1.355 . S
C1211 C1213 1.415 . S
C1212 C1211 1.355 . S
C1212 C1214 1.419 . S
C1213 C1208 1.425 . S
C1213 C1210 1.409 . S
C1213 C1211 1.415 . S
C1214 H1204 0.930 . S
C1214 C1212 1.419 . S
C1214 C1215 1.362 . S
C1215 H1205 0.930 . S
C1215 C1208 1.409 . S
C1215 C1214 1.362 . S
H1216 C1222 0.930 . S
H1217 C1225 0.930 . S
H1218 C1226 0.930 1_655 S
H1219 C1227 0.930 1_655 S
H1220 C1230 0.930 . S
H1221 C1231 0.930 . S
C1222 H1216 0.930 . S
C1222 C1223 1.355 . S
C1222 C1224 1.415 . S
C1223 C1222 1.355 . S
C1223 C1225 1.419 . S
C1224 C1222 1.415 . S
C1224 C1229 1.425 . S
C1224 C1231 1.409 . S
C1225 H1217 0.930 . S
C1225 C1223 1.419 . S
C1225 C1226 1.362 . S
C1226 H1218 0.930 1_455 S
C1226 C1225 1.362 . S
C1226 C1229 1.409 . S
C1227 H1219 0.930 1_455 S
C1227 C1228 1.355 . S
C1227 C1229 1.415 . S
C1228 C1227 1.355 . S
C1228 C1230 1.419 . S
C1229 C1224 1.425 . S
C1229 C1226 1.409 . S
C1229 C1227 1.415 . S
C1230 H1220 0.930 . S
C1230 C1228 1.419 . S
C1230 C1231 1.362 . S
C1231 H1221 0.930 . S
C1231 C1224 1.409 . S
C1231 C1230 1.362 . S
H1232 C1238 0.930 . S
H1233 C1241 0.930 . S
H1234 C1242 0.930 . S
H1235 C1243 0.930 . S
H1236 C1246 0.930 1_655 S
H1237 C1247 0.930 1_655 S
C1238 H1232 0.930 . S
C1238 C1239 1.355 . S
C1238 C1240 1.415 . S
C1239 C1238 1.355 . S
C1239 C1241 1.419 . S
C1240 C1238 1.415 . S
C1240 C1245 1.425 . S
C1240 C1247 1.409 . S
C1241 H1233 0.930 . S
C1241 C1239 1.419 . S
C1241 C1242 1.362 . S
C1242 H1234 0.930 . S
C1242 C1241 1.362 . S
C1242 C1245 1.409 . S
C1243 H1235 0.930 . S
C1243 C1244 1.355 . S
C1243 C1245 1.415 . S
C1244 C1243 1.355 . S
C1244 C1246 1.419 . S
C1245 C1240 1.425 . S
C1245 C1242 1.409 . S
C1245 C1243 1.415 . S
C1246 H1236 0.930 1_455 S
C1246 C1244 1.419 . S
C1246 C1247 1.362 . S
C1247 H1237 0.930 1_455 S
C1247 C1240 1.409 . S
C1247 C1246 1.362 . S
H1248 C1254 0.930 . S
H1249 C1257 0.930 . S
H1250 C1258 0.930 . S
H1251 C1259 0.930 . S
H1252 C1262 0.930 . S
H1253 C1263 0.930 . S
C1254 H1248 0.930 . S
C1254 C1255 1.355 . S
C1254 C1256 1.415 . S
C1255 C1254 1.355 . S
C1255 C1257 1.419 . S
C1256 C1254 1.415 . S
C1256 C1261 1.425 . S
C1256 C1263 1.409 . S
C1257 H1249 0.930 . S
C1257 C1255 1.419 . S
C1257 C1258 1.362 . S
C1258 H1250 0.930 . S
C1258 C1257 1.362 . S
C1258 C1261 1.409 . S
C1259 H1251 0.930 . S
C1259 C1260 1.355 . S
C1259 C1261 1.415 . S
C1260 C1259 1.355 . S
C1260 C1262 1.419 . S
C1261 C1256 1.425 . S
C1261 C1258 1.409 . S
C1261 C1259 1.415 . S
C1262 H1252 0.930 . S
C1262 C1260 1.419 . S
C1262 C1263 1.362 . S
C1263 H1253 0.930 . S
C1263 C1256 1.409 . S
C1263 C1262 1.362 . S
H1264 C1270 0.930 . S
H1265 C1273 0.930 . S
H1266 C1274 0.930 . S
H1267 C1275 0.930 . S
H1268 C1278 0.930 1_455 S
H1269 C1279 0.930 1_455 S
C1270 H1264 0.930 . S
C1270 C1271 1.355 . S
C1270 C1272 1.415 . S
C1271 C1270 1.355 . S
C1271 C1273 1.419 . S
C1272 C1270 1.415 . S
C1272 C1277 1.425 . S
C1272 C1279 1.409 . S
C1273 H1265 0.930 . S
C1273 C1271 1.419 . S
C1273 C1274 1.362 . S
C1274 H1266 0.930 . S
C1274 C1273 1.362 . S
C1274 C1277 1.409 . S
C1275 H1267 0.930 . S
C1275 C1276 1.355 . S
C1275 C1277 1.415 . S
C1276 C1275 1.355 . S
C1276 C1278 1.419 . S
C1277 C1272 1.425 . S
C1277 C1274 1.409 . S
C1277 C1275 1.415 . S
C1278 H1268 0.930 1_655 S
C1278 C1276 1.419 . S
C1278 C1279 1.362 . S
C1279 H1269 0.930 1_655 S
C1279 C1272 1.409 . S
C1279 C1278 1.362 . S
H1280 C1286 0.930 . S
H1281 C1289 0.930 . S
H1282 C1290 0.930 . S
H1283 C1291 0.930 . S
H1284 C1294 0.930 . S
H1285 C1295 0.930 . S
C1286 H1280 0.930 . S
C1286 C1287 1.355 . S
C1286 C1288 1.415 . S
C1287 C1286 1.355 . S
C1287 C1289 1.419 . S
C1288 C1286 1.415 . S
C1288 C1293 1.425 . S
C1288 C1295 1.409 . S
C1289 H1281 0.930 . S
C1289 C1287 1.419 . S
C1289 C1290 1.362 . S
C1290 H1282 0.930 . S
C1290 C1289 1.362 . S
C1290 C1293 1.409 . S
C1291 H1283 0.930 . S
C1291 C1292 1.355 . S
C1291 C1293 1.415 . S
C1292 C1291 1.355 . S
C1292 C1294 1.419 . S
C1293 C1288 1.425 . S
C1293 C1290 1.409 . S
C1293 C1291 1.415 . S
C1294 H1284 0.930 . S
C1294 C1292 1.419 . S
C1294 C1295 1.362 . S
C1295 H1285 0.930 . S
C1295 C1288 1.409 . S
C1295 C1294 1.362 . S
H1296 C1302 0.930 . S
H1297 C1305 0.930 . S
H1298 C1306 0.930 . S
H1299 C1307 0.930 . S
H1300 C1310 0.930 . S
H1301 C1311 0.930 . S
C1302 H1296 0.930 . S
C1302 C1303 1.355 . S
C1302 C1304 1.415 . S
C1303 C1302 1.355 . S
C1303 C1305 1.419 . S
C1304 C1302 1.415 . S
C1304 C1309 1.425 . S
C1304 C1311 1.409 . S
C1305 H1297 0.930 . S
C1305 C1303 1.419 . S
C1305 C1306 1.362 . S
C1306 H1298 0.930 . S
C1306 C1305 1.362 . S
C1306 C1309 1.409 . S
C1307 H1299 0.930 . S
C1307 C1308 1.355 . S
C1307 C1309 1.415 . S
C1308 C1307 1.355 . S
C1308 C1310 1.419 . S
C1309 C1304 1.425 . S
C1309 C1306 1.409 . S
C1309 C1307 1.415 . S
C1310 H1300 0.930 . S
C1310 C1308 1.419 . S
C1310 C1311 1.362 . S
C1311 H1301 0.930 . S
C1311 C1304 1.409 . S
C1311 C1310 1.362 . S
H1312 C1318 0.930 . S
H1313 C1321 0.930 . S
H1314 C1322 0.930 . S
H1315 C1323 0.930 . S
H1316 C1326 0.930 . S
H1317 C1327 0.930 . S
C1318 H1312 0.930 . S
C1318 C1319 1.355 . S
C1318 C1320 1.415 . S
C1319 C1318 1.355 . S
C1319 C1321 1.419 . S
C1320 C1318 1.415 . S
C1320 C1325 1.425 . S
C1320 C1327 1.409 . S
C1321 H1313 0.930 . S
C1321 C1319 1.419 . S
C1321 C1322 1.362 . S
C1322 H1314 0.930 . S
C1322 C1321 1.362 . S
C1322 C1325 1.409 . S
C1323 H1315 0.930 . S
C1323 C1324 1.355 . S
C1323 C1325 1.415 . S
C1324 C1323 1.355 . S
C1324 C1326 1.419 . S
C1325 C1320 1.425 . S
C1325 C1322 1.409 . S
C1325 C1323 1.415 . S
C1326 H1316 0.930 . S
C1326 C1324 1.419 . S
C1326 C1327 1.362 . S
C1327 H1317 0.930 . S
C1327 C1320 1.409 . S
C1327 C1326 1.362 . S
H1328 C1334 0.930 . S
H1329 C1337 0.930 . S
H1330 C1338 0.930 . S
H1331 C1339 0.930 . S
H1332 C1342 0.930 . S
H1333 C1343 0.930 . S
C1334 H1328 0.930 . S
C1334 C1335 1.355 . S
C1334 C1336 1.415 . S
C1335 C1334 1.355 . S
C1335 C1337 1.419 . S
C1336 C1334 1.415 . S
C1336 C1341 1.425 . S
C1336 C1343 1.409 . S
C1337 H1329 0.930 . S
C1337 C1335 1.419 . S
C1337 C1338 1.362 . S
C1338 H1330 0.930 . S
C1338 C1337 1.362 . S
C1338 C1341 1.409 . S
C1339 H1331 0.930 . S
C1339 C1340 1.355 . S
C1339 C1341 1.415 . S
C1340 C1339 1.355 . S
C1340 C1342 1.419 . S
C1341 C1336 1.425 . S
C1341 C1338 1.409 . S
C1341 C1339 1.415 . S
C1342 H1332 0.930 . S
C1342 C1340 1.419 . S
C1342 C1343 1.362 . S
C1343 H1333 0.930 . S
C1343 C1336 1.409 . S
C1343 C1342 1.362 . S
H1344 C1350 0.930 . S
H1345 C1353 0.930 . S
H1346 C1354 0.930 . S
H1347 C1355 0.930 . S
H1348 C1358 0.930 . S
H1349 C1359 0.930 . S
C1350 H1344 0.930 . S
C1350 C1351 1.355 . S
C1350 C1352 1.415 . S
C1351 C1350 1.355 . S
C1351 C1353 1.419 . S
C1352 C1350 1.415 . S
C1352 C1357 1.425 . S
C1352 C1359 1.409 . S
C1353 H1345 0.930 . S
C1353 C1351 1.419 . S
C1353 C1354 1.362 . S
C1354 H1346 0.930 . S
C1354 C1353 1.362 . S
C1354 C1357 1.409 . S
C1355 H1347 0.930 . S
C1355 C1356 1.355 . S
C1355 C1357 1.415 . S
C1356 C1355 1.355 . S
C1356 C1358 1.419 . S
C1357 C1352 1.425 . S
C1357 C1354 1.409 . S
C1357 C1355 1.415 . S
C1358 H1348 0.930 . S
C1358 C1356 1.419 . S
C1358 C1359 1.362 . S
C1359 H1349 0.930 . S
C1359 C1352 1.409 . S
C1359 C1358 1.362 . S
H1360 C1366 0.930 . S
H1361 C1369 0.930 . S
H1362 C1370 0.930 . S
H1363 C1371 0.930 . S
H1364 C1374 0.930 . S
H1365 C1375 0.930 . S
C1366 H1360 0.930 . S
C1366 C1367 1.355 . S
C1366 C1368 1.415 . S
C1367 C1366 1.355 . S
C1367 C1369 1.419 . S
C1368 C1366 1.415 . S
C1368 C1373 1.425 . S
C1368 C1375 1.409 . S
C1369 H1361 0.930 . S
C1369 C1367 1.419 . S
C1369 C1370 1.362 . S
C1370 H1362 0.930 . S
C1370 C1369 1.362 . S
C1370 C1373 1.409 . S
C1371 H1363 0.930 . S
C1371 C1372 1.355 . S
C1371 C1373 1.415 . S
C1372 C1371 1.355 . S
C1372 C1374 1.419 . S
C1373 C1368 1.425 . S
C1373 C1370 1.409 . S
C1373 C1371 1.415 . S
C1374 H1364 0.930 . S
C1374 C1372 1.419 . S
C1374 C1375 1.362 . S
C1375 H1365 0.930 . S
C1375 C1368 1.409 . S
C1375 C1374 1.362 . S
H1376 C1382 0.930 . S
H1377 C1385 0.930 . S
H1378 C1386 0.930 . S
H1379 C1387 0.930 . S
H1380 C1390 0.930 . S
H1381 C1391 0.930 . S
C1382 H1376 0.930 . S
C1382 C1383 1.355 . S
C1382 C1384 1.415 . S
C1383 C1382 1.355 . S
C1383 C1385 1.419 . S
C1384 C1382 1.415 . S
C1384 C1389 1.425 . S
C1384 C1391 1.409 . S
C1385 H1377 0.930 . S
C1385 C1383 1.419 . S
C1385 C1386 1.362 . S
C1386 H1378 0.930 . S
C1386 C1385 1.362 . S
C1386 C1389 1.409 . S
C1387 H1379 0.930 . S
C1387 C1388 1.355 . S
C1387 C1389 1.415 . S
C1388 C1387 1.355 . S
C1388 C1390 1.419 . S
C1389 C1384 1.425 . S
C1389 C1386 1.409 . S
C1389 C1387 1.415 . S
C1390 H1380 0.930 . S
C1390 C1388 1.419 . S
C1390 C1391 1.362 . S
C1391 H1381 0.930 . S
C1391 C1384 1.409 . S
C1391 C1390 1.362 . S
H1392 C1398 0.930 . S
H1393 C1401 0.930 . S
H1394 C1402 0.930 . S
H1395 C1403 0.930 . S
H1396 C1406 0.930 . S
H1397 C1407 0.930 . S
C1398 H1392 0.930 . S
C1398 C1399 1.355 . S
C1398 C1400 1.415 . S
C1399 C1398 1.355 . S
C1399 C1401 1.419 . S
C1400 C1398 1.415 . S
C1400 C1405 1.425 . S
C1400 C1407 1.409 . S
C1401 H1393 0.930 . S
C1401 C1399 1.419 . S
C1401 C1402 1.362 . S
C1402 H1394 0.930 . S
C1402 C1401 1.362 . S
C1402 C1405 1.409 . S
C1403 H1395 0.930 . S
C1403 C1404 1.355 . S
C1403 C1405 1.415 . S
C1404 C1403 1.355 . S
C1404 C1406 1.419 . S
C1405 C1400 1.425 . S
C1405 C1402 1.409 . S
C1405 C1403 1.415 . S
C1406 H1396 0.930 . S
C1406 C1404 1.419 . S
C1406 C1407 1.362 . S
C1407 H1397 0.930 . S
C1407 C1400 1.409 . S
C1407 C1406 1.362 . S
H1408 C1414 0.930 . S
H1409 C1417 0.930 . S
H1410 C1418 0.930 . S
H1411 C1419 0.930 . S
H1412 C1422 0.930 . S
H1413 C1423 0.930 . S
C1414 H1408 0.930 . S
C1414 C1415 1.355 . S
C1414 C1416 1.415 . S
C1415 C1414 1.355 . S
C1415 C1417 1.419 . S
C1416 C1414 1.415 . S
C1416 C1421 1.425 . S
C1416 C1423 1.409 . S
C1417 H1409 0.930 . S
C1417 C1415 1.419 . S
C1417 C1418 1.362 . S
C1418 H1410 0.930 . S
C1418 C1417 1.362 . S
C1418 C1421 1.409 . S
C1419 H1411 0.930 . S
C1419 C1420 1.355 . S
C1419 C1421 1.415 . S
C1420 C1419 1.355 . S
C1420 C1422 1.419 . S
C1421 C1416 1.425 . S
C1421 C1418 1.409 . S
C1421 C1419 1.415 . S
C1422 H1412 0.930 . S
C1422 C1420 1.419 . S
C1422 C1423 1.362 . S
C1423 H1413 0.930 . S
C1423 C1416 1.409 . S
C1423 C1422 1.362 . S
H1424 C1430 0.930 . S
H1425 C1433 0.930 . S
H1426 C1434 0.930 . S
H1427 C1435 0.930 . S
H1428 C1438 0.930 . S
H1429 C1439 0.930 . S
C1430 H1424 0.930 . S
C1430 C1431 1.355 . S
C1430 C1432 1.415 . S
C1431 C1430 1.355 . S
C1431 C1433 1.419 . S
C1432 C1430 1.415 . S
C1432 C1437 1.425 . S
C1432 C1439 1.409 . S
C1433 H1425 0.930 . S
C1433 C1431 1.419 . S
C1433 C1434 1.362 . S
C1434 H1426 0.930 . S
C1434 C1433 1.362 . S
C1434 C1437 1.409 . S
C1435 H1427 0.930 . S
C1435 C1436 1.355 . S
C1435 C1437 1.415 . S
C1436 C1435 1.355 . S
C1436 C1438 1.419 . S
C1437 C1432 1.425 . S
C1437 C1434 1.409 . S
C1437 C1435 1.415 . S
C1438 H1428 0.930 . S
C1438 C1436 1.419 . S
C1438 C1439 1.362 . S
C1439 H1429 0.930 . S
C1439 C1432 1.409 . S
C1439 C1438 1.362 . S
H1440 C1446 0.930 . S
H1441 C1449 0.930 . S
H1442 C1450 0.930 . S
H1443 C1451 0.930 . S
H1444 C1454 0.930 . S
H1445 C1455 0.930 . S
C1446 H1440 0.930 . S
C1446 C1447 1.355 . S
C1446 C1448 1.415 . S
C1447 C1446 1.355 . S
C1447 C1449 1.419 . S
C1448 C1446 1.415 . S
C1448 C1453 1.425 . S
C1448 C1455 1.409 . S
C1449 H1441 0.930 . S
C1449 C1447 1.419 . S
C1449 C1450 1.362 . S
C1450 H1442 0.930 . S
C1450 C1449 1.362 . S
C1450 C1453 1.409 . S
C1451 H1443 0.930 . S
C1451 C1452 1.355 . S
C1451 C1453 1.415 . S
C1452 C1451 1.355 . S
C1452 C1454 1.419 . S
C1453 C1448 1.425 . S
C1453 C1450 1.409 . S
C1453 C1451 1.415 . S
C1454 H1444 0.930 . S
C1454 C1452 1.419 . S
C1454 C1455 1.362 . S
C1455 H1445 0.930 . S
C1455 C1448 1.409 . S
C1455 C1454 1.362 . S
H1456 C1462 0.930 . S
H1457 C1465 0.930 . S
H1458 C1466 0.930 . S
H1459 C1467 0.930 . S
H1460 C1470 0.930 . S
H1461 C1471 0.930 . S
C1462 H1456 0.930 . S
C1462 C1463 1.355 . S
C1462 C1464 1.415 . S
C1463 C1462 1.355 . S
C1463 C1465 1.419 . S
C1464 C1462 1.415 . S
C1464 C1469 1.425 . S
C1464 C1471 1.409 . S
C1465 H1457 0.930 . S
C1465 C1463 1.419 . S
C1465 C1466 1.362 . S
C1466 H1458 0.930 . S
C1466 C1465 1.362 . S
C1466 C1469 1.409 . S
C1467 H1459 0.930 . S
C1467 C1468 1.355 . S
C1467 C1469 1.415 . S
C1468 C1467 1.355 . S
C1468 C1470 1.419 . S
C1469 C1464 1.425 . S
C1469 C1466 1.409 . S
C1469 C1467 1.415 . S
C1470 H1460 0.930 . S
C1470 C1468 1.419 . S
C1470 C1471 1.362 . S
C1471 H1461 0.930 . S
C1471 C1464 1.409 . S
C1471 C1470 1.362 . S
H1472 C1478 0.930 . S
H1473 C1481 0.930 . S
H1474 C1482 0.930 . S
H1475 C1483 0.930 . S
H1476 C1486 0.930 . S
H1477 C1487 0.930 . S
C1478 H1472 0.930 . S
C1478 C1479 1.355 . S
C1478 C1480 1.415 . S
C1479 C1478 1.355 . S
C1479 C1481 1.419 . S
C1480 C1478 1.415 . S
C1480 C1485 1.425 . S
C1480 C1487 1.409 . S
C1481 H1473 0.930 . S
C1481 C1479 1.419 . S
C1481 C1482 1.362 . S
C1482 H1474 0.930 . S
C1482 C1481 1.362 . S
C1482 C1485 1.409 . S
C1483 H1475 0.930 . S
C1483 C1484 1.355 . S
C1483 C1485 1.415 . S
C1484 C1483 1.355 . S
C1484 C1486 1.419 . S
C1485 C1480 1.425 . S
C1485 C1482 1.409 . S
C1485 C1483 1.415 . S
C1486 H1476 0.930 . S
C1486 C1484 1.419 . S
C1486 C1487 1.362 . S
C1487 H1477 0.930 . S
C1487 C1480 1.409 . S
C1487 C1486 1.362 . S
H1488 C1494 0.930 . S
H1489 C1497 0.930 . S
H1490 C1498 0.930 . S
H1491 C1499 0.930 . S
H1492 C1502 0.930 . S
H1493 C1503 0.930 . S
C1494 H1488 0.930 . S
C1494 C1495 1.355 . S
C1494 C1496 1.415 . S
C1495 C1494 1.355 . S
C1495 C1497 1.419 . S
C1496 C1494 1.415 . S
C1496 C1501 1.425 . S
C1496 C1503 1.409 . S
C1497 H1489 0.930 . S
C1497 C1495 1.419 . S
C1497 C1498 1.362 . S
C1498 H1490 0.930 . S
C1498 C1497 1.362 . S
C1498 C1501 1.409 . S
C1499 H1491 0.930 . S
C1499 C1500 1.355 . S
C1499 C1501 1.415 . S
C1500 C1499 1.355 . S
C1500 C1502 1.419 . S
C1501 C1496 1.425 . S
C1501 C1498 1.409 . S
C1501 C1499 1.415 . S
C1502 H1492 0.930 . S
C1502 C1500 1.419 . S
C1502 C1503 1.362 . S
C1503 H1493 0.930 . S
C1503 C1496 1.409 . S
C1503 C1502 1.362 . S
H1504 C1510 0.930 . S
H1505 C1513 0.930 . S
H1506 C1514 0.930 . S
H1507 C1515 0.930 . S
H1508 C1518 0.930 . S
H1509 C1519 0.930 . S
C1510 H1504 0.930 . S
C1510 C1511 1.355 . S
C1510 C1512 1.415 . S
C1511 C1510 1.355 . S
C1511 C1513 1.419 . S
C1512 C1510 1.415 . S
C1512 C1517 1.425 . S
C1512 C1519 1.409 . S
C1513 H1505 0.930 . S
C1513 C1511 1.419 . S
C1513 C1514 1.362 . S
C1514 H1506 0.930 . S
C1514 C1513 1.362 . S
C1514 C1517 1.409 . S
C1515 H1507 0.930 . S
C1515 C1516 1.355 . S
C1515 C1517 1.415 . S
C1516 C1515 1.355 . S
C1516 C1518 1.419 . S
C1517 C1512 1.425 . S
C1517 C1514 1.409 . S
C1517 C1515 1.415 . S
C1518 H1508 0.930 . S
C1518 C1516 1.419 . S
C1518 C1519 1.362 . S
C1519 H1509 0.930 . S
C1519 C1512 1.409 . S
C1519 C1518 1.362 . S
H1520 C1526 0.930 . S
H1521 C1529 0.930 . S
H1522 C1530 0.930 . S
H1523 C1531 0.930 . S
H1524 C1534 0.930 . S
H1525 C1535 0.930 . S
C1526 H1520 0.930 . S
C1526 C1527 1.355 . S
C1526 C1528 1.415 . S
C1527 C1526 1.355 . S
C1527 C1529 1.419 . S
C1528 C1526 1.415 . S
C1528 C1533 1.425 . S
C1528 C1535 1.409 . S
C1529 H1521 0.930 . S
C1529 C1527 1.419 . S
C1529 C1530 1.362 . S
C1530 H1522 0.930 . S
C1530 C1529 1.362 . S
C1530 C1533 1.409 . S
C1531 H1523 0.930 . S
C1531 C1532 1.355 . S
C1531 C1533 1.415 . S
C1532 C1531 1.355 . S
C1532 C1534 1.419 . S
C1533 C1528 1.425 . S
C1533 C1530 1.409 . S
C1533 C1531 1.415 . S
C1534 H1524 0.930 . S
C1534 C1532 1.419 . S
C1534 C1535 1.362 . S
C1535 H1525 0.930 . S
C1535 C1528 1.409 . S
C1535 C1534 1.362 . S
H1536 C1542 0.930 . S
H1537 C1545 0.930 . S
H1538 C1546 0.930 . S
H1539 C1547 0.930 . S
H1540 C1550 0.930 . S
H1541 C1551 0.930 . S
C1542 H1536 0.930 . S
C1542 C1543 1.355 . S
C1542 C1544 1.415 . S
C1543 C1542 1.355 . S
C1543 C1545 1.419 1_545 S
C1544 C1542 1.415 . S
C1544 C1549 1.425 1_545 S
C1544 C1551 1.409 . S
C1545 H1537 0.930 . S
C1545 C1543 1.419 1_565 S
C1545 C1546 1.362 . S
C1546 H1538 0.930 . S
C1546 C1545 1.362 . S
C1546 C1549 1.409 . S
C1547 H1539 0.930 . S
C1547 C1548 1.355 . S
C1547 C1549 1.415 . S
C1548 C1547 1.355 . S
C1548 C1550 1.419 1_565 S
C1549 C1544 1.425 1_565 S
C1549 C1546 1.409 . S
C1549 C1547 1.415 . S
C1550 H1540 0.930 . S
C1550 C1548 1.419 1_545 S
C1550 C1551 1.362 . S
C1551 H1541 0.930 . S
C1551 C1544 1.409 . S
C1551 C1550 1.362 . S
H1552 C1558 0.930 . S
H1553 C1561 0.930 . S
H1554 C1562 0.930 . S
H1555 C1563 0.930 . S
H1556 C1566 0.930 . S
H1557 C1567 0.930 . S
C1558 H1552 0.930 . S
C1558 C1559 1.355 . S
C1558 C1560 1.415 . S
C1559 C1558 1.355 . S
C1559 C1561 1.419 . S
C1560 C1558 1.415 . S
C1560 C1565 1.425 . S
C1560 C1567 1.409 . S
C1561 H1553 0.930 . S
C1561 C1559 1.419 . S
C1561 C1562 1.362 . S
C1562 H1554 0.930 . S
C1562 C1561 1.362 . S
C1562 C1565 1.409 . S
C1563 H1555 0.930 . S
C1563 C1564 1.355 . S
C1563 C1565 1.415 . S
C1564 C1563 1.355 . S
C1564 C1566 1.419 . S
C1565 C1560 1.425 . S
C1565 C1562 1.409 . S
C1565 C1563 1.415 . S
C1566 H1556 0.930 . S
C1566 C1564 1.419 . S
C1566 C1567 1.362 . S
C1567 H1557 0.930 . S
C1567 C1560 1.409 . S
C1567 C1566 1.362 . S
H1568 C1574 0.930 . S
H1569 C1577 0.930 . S
H1570 C1578 0.930 . S
H1571 C1579 0.930 . S
H1572 C1582 0.930 . S
H1573 C1583 0.930 . S
C1574 H1568 0.930 . S
C1574 C1575 1.355 . S
C1574 C1576 1.415 . S
C1575 C1574 1.355 . S
C1575 C1577 1.419 . S
C1576 C1574 1.415 . S
C1576 C1581 1.425 . S
C1576 C1583 1.409 . S
C1577 H1569 0.930 . S
C1577 C1575 1.419 . S
C1577 C1578 1.362 . S
C1578 H1570 0.930 . S
C1578 C1577 1.362 . S
C1578 C1581 1.409 . S
C1579 H1571 0.930 . S
C1579 C1580 1.355 . S
C1579 C1581 1.415 . S
C1580 C1579 1.355 . S
C1580 C1582 1.419 . S
C1581 C1576 1.425 . S
C1581 C1578 1.409 . S
C1581 C1579 1.415 . S
C1582 H1572 0.930 . S
C1582 C1580 1.419 . S
C1582 C1583 1.362 . S
C1583 H1573 0.930 . S
C1583 C1576 1.409 . S
C1583 C1582 1.362 . S
H1584 C1590 0.930 . S
H1585 C1593 0.930 . S
H1586 C1594 0.930 . S
H1587 C1595 0.930 . S
H1588 C1598 0.930 . S
H1589 C1599 0.930 . S
C1590 H1584 0.930 . S
C1590 C1591 1.355 . S
C1590 C1592 1.415 . S
C1591 C1590 1.355 . S
C1591 C1593 1.419 1_545 S
C1592 C1590 1.415 . S
C1592 C1597 1.425 1_545 S
C1592 C1599 1.409 . S
C1593 H1585 0.930 . S
C1593 C1591 1.419 1_565 S
C1593 C1594 1.362 . S
C1594 H1586 0.930 . S
C1594 C1593 1.362 . S
C1594 C1597 1.409 . S
C1595 H1587 0.930 . S
C1595 C1596 1.355 . S
C1595 C1597 1.415 . S
C1596 C1595 1.355 . S
C1596 C1598 1.419 1_565 S
C1597 C1592 1.425 1_565 S
C1597 C1594 1.409 . S
C1597 C1595 1.415 . S
C1598 H1588 0.930 . S
C1598 C1596 1.419 1_545 S
C1598 C1599 1.362 . S
C1599 H1589 0.930 . S
C1599 C1592 1.409 . S
C1599 C1598 1.362 . S
H1600 C1606 0.930 . S
H1601 C1609 0.930 . S
H1602 C1610 0.930 . S
H1603 C1611 0.930 . S
H1604 C1614 0.930 . S
H1605 C1615 0.930 . S
C1606 H1600 0.930 . S
C1606 C1607 1.355 1_545 S
C1606 C1608 1.415 . S
C1607 C1606 1.355 1_565 S
C1607 C1609 1.419 . S
C1608 C1606 1.415 . S
C1608 C1613 1.425 1_545 S
C1608 C1615 1.409 . S
C1609 H1601 0.930 . S
C1609 C1607 1.419 . S
C1609 C1610 1.362 . S
C1610 H1602 0.930 . S
C1610 C1609 1.362 . S
C1610 C1613 1.409 . S
C1611 H1603 0.930 . S
C1611 C1612 1.355 1_565 S
C1611 C1613 1.415 . S
C1612 C1611 1.355 1_545 S
C1612 C1614 1.419 . S
C1613 C1608 1.425 1_565 S
C1613 C1610 1.409 . S
C1613 C1611 1.415 . S
C1614 H1604 0.930 . S
C1614 C1612 1.419 . S
C1614 C1615 1.362 . S
C1615 H1605 0.930 . S
C1615 C1608 1.409 . S
C1615 C1614 1.362 . S
H1616 C1622 0.930 . S
H1617 C1625 0.930 . S
H1618 C1626 0.930 . S
H1619 C1627 0.930 . S
H1620 C1630 0.930 . S
H1621 C1631 0.930 . S
C1622 H1616 0.930 . S
C1622 C1623 1.355 . S
C1622 C1624 1.415 . S
C1623 C1622 1.355 . S
C1623 C1625 1.419 . S
C1624 C1622 1.415 . S
C1624 C1629 1.425 . S
C1624 C1631 1.409 . S
C1625 H1617 0.930 . S
C1625 C1623 1.419 . S
C1625 C1626 1.362 . S
C1626 H1618 0.930 . S
C1626 C1625 1.362 . S
C1626 C1629 1.409 . S
C1627 H1619 0.930 . S
C1627 C1628 1.355 . S
C1627 C1629 1.415 . S
C1628 C1627 1.355 . S
C1628 C1630 1.419 . S
C1629 C1624 1.425 . S
C1629 C1626 1.409 . S
C1629 C1627 1.415 . S
C1630 H1620 0.930 . S
C1630 C1628 1.419 . S
C1630 C1631 1.362 . S
C1631 H1621 0.930 . S
C1631 C1624 1.409 . S
C1631 C1630 1.362 . S
H1632 C1638 0.930 . S
H1633 C1641 0.930 . S
H1634 C1642 0.930 . S
H1635 C1643 0.930 . S
H1636 C1646 0.930 . S
H1637 C1647 0.930 . S
C1638 H1632 0.930 . S
C1638 C1639 1.355 . S
C1638 C1640 1.415 . S
C1639 C1638 1.355 . S
C1639 C1641 1.419 . S
C1640 C1638 1.415 . S
C1640 C1645 1.425 . S
C1640 C1647 1.409 . S
C1641 H1633 0.930 . S
C1641 C1639 1.419 . S
C1641 C1642 1.362 . S
C1642 H1634 0.930 . S
C1642 C1641 1.362 . S
C1642 C1645 1.409 . S
C1643 H1635 0.930 . S
C1643 C1644 1.355 . S
C1643 C1645 1.415 . S
C1644 C1643 1.355 . S
C1644 C1646 1.419 . S
C1645 C1640 1.425 . S
C1645 C1642 1.409 . S
C1645 C1643 1.415 . S
C1646 H1636 0.930 . S
C1646 C1644 1.419 . S
C1646 C1647 1.362 . S
C1647 H1637 0.930 . S
C1647 C1640 1.409 . S
C1647 C1646 1.362 . S
H1648 C1654 0.930 . S
H1649 C1657 0.930 . S
H1650 C1658 0.930 . S
H1651 C1659 0.930 . S
H1652 C1662 0.930 . S
H1653 C1663 0.930 . S
C1654 H1648 0.930 . S
C1654 C1655 1.355 1_545 S
C1654 C1656 1.415 . S
C1655 C1654 1.355 1_565 S
C1655 C1657 1.419 . S
C1656 C1654 1.415 . S
C1656 C1661 1.425 1_545 S
C1656 C1663 1.409 . S
C1657 H1649 0.930 . S
C1657 C1655 1.419 . S
C1657 C1658 1.362 . S
C1658 H1650 0.930 . S
C1658 C1657 1.362 . S
C1658 C1661 1.409 . S
C1659 H1651 0.930 . S
C1659 C1660 1.355 1_565 S
C1659 C1661 1.415 . S
C1660 C1659 1.355 1_545 S
C1660 C1662 1.419 . S
C1661 C1656 1.425 1_565 S
C1661 C1658 1.409 . S
C1661 C1659 1.415 . S
C1662 H1652 0.930 . S
C1662 C1660 1.419 . S
C1662 C1663 1.362 . S
C1663 H1653 0.930 . S
C1663 C1656 1.409 . S
C1663 C1662 1.362 . S
H1664 C1670 0.930 . S
H1665 C1673 0.930 . S
H1666 C1674 0.930 . S
H1667 C1675 0.930 . S
H1668 C1678 0.930 . S
H1669 C1679 0.930 1_455 S
C1670 H1664 0.930 . S
C1670 C1671 1.355 . S
C1670 C1672 1.415 . S
C1671 C1670 1.355 . S
C1671 C1673 1.419 . S
C1672 C1670 1.415 . S
C1672 C1677 1.425 . S
C1672 C1679 1.409 1_455 S
C1673 H1665 0.930 . S
C1673 C1671 1.419 . S
C1673 C1674 1.362 . S
C1674 H1666 0.930 . S
C1674 C1673 1.362 . S
C1674 C1677 1.409 . S
C1675 H1667 0.930 . S
C1675 C1676 1.355 . S
C1675 C1677 1.415 1_655 S
C1676 C1675 1.355 . S
C1676 C1678 1.419 . S
C1677 C1672 1.425 . S
C1677 C1674 1.409 . S
C1677 C1675 1.415 1_455 S
C1678 H1668 0.930 . S
C1678 C1676 1.419 . S
C1678 C1679 1.362 . S
C1679 H1669 0.930 1_655 S
C1679 C1672 1.409 1_655 S
C1679 C1678 1.362 . S
H1680 C1686 0.930 . S
H1681 C1689 0.930 . S
H1682 C1690 0.930 . S
H1683 C1691 0.930 . S
H1684 C1694 0.930 . S
H1685 C1695 0.930 . S
C1686 H1680 0.930 . S
C1686 C1687 1.355 . S
C1686 C1688 1.415 . S
C1687 C1686 1.355 . S
C1687 C1689 1.419 . S
C1688 C1686 1.415 . S
C1688 C1693 1.425 . S
C1688 C1695 1.409 . S
C1689 H1681 0.930 . S
C1689 C1687 1.419 . S
C1689 C1690 1.362 . S
C1690 H1682 0.930 . S
C1690 C1689 1.362 . S
C1690 C1693 1.409 . S
C1691 H1683 0.930 . S
C1691 C1692 1.355 . S
C1691 C1693 1.415 . S
C1692 C1691 1.355 . S
C1692 C1694 1.419 . S
C1693 C1688 1.425 . S
C1693 C1690 1.409 . S
C1693 C1691 1.415 . S
C1694 H1684 0.930 . S
C1694 C1692 1.419 . S
C1694 C1695 1.362 . S
C1695 H1685 0.930 . S
C1695 C1688 1.409 . S
C1695 C1694 1.362 . S
H1696 C1702 0.930 . S
H1697 C1705 0.930 . S
H1698 C1706 0.928 1_455 S
H1699 C1707 0.930 . S
H1700 C1710 0.930 . S
H1701 C1711 0.930 . S
C1702 H1696 0.930 . S
C1702 C1703 1.355 . S
C1702 C1704 1.415 1_655 S
C1703 C1702 1.355 . S
C1703 C1705 1.419 . S
C1704 C1702 1.415 1_455 S
C1704 C1709 1.425 . S
C1704 C1711 1.409 . S
C1705 H1697 0.930 . S
C1705 C1703 1.419 . S
C1705 C1706 1.366 . S
C1706 H1698 0.928 1_655 S
C1706 C1705 1.366 . S
C1706 C1709 1.407 1_655 S
C1707 H1699 0.930 . S
C1707 C1708 1.355 . S
C1707 C1709 1.415 . S
C1708 C1707 1.355 . S
C1708 C1710 1.419 . S
C1709 C1704 1.425 . S
C1709 C1706 1.407 1_455 S
C1709 C1707 1.415 . S
C1710 H1700 0.930 . S
C1710 C1708 1.419 . S
C1710 C1711 1.362 . S
C1711 H1701 0.930 . S
C1711 C1704 1.409 . S
C1711 C1710 1.362 . S
H1712 C1718 0.930 . S
H1713 C1721 0.930 . S
H1714 C1722 0.930 . S
H1715 C1723 0.930 . S
H1716 C1726 0.930 . S
H1717 C1727 0.930 . S
C1718 H1712 0.930 . S
C1718 C1719 1.355 . S
C1718 C1720 1.415 . S
C1719 C1718 1.355 . S
C1719 C1721 1.419 . S
C1720 C1718 1.415 . S
C1720 C1725 1.425 . S
C1720 C1727 1.409 . S
C1721 H1713 0.930 . S
C1721 C1719 1.419 . S
C1721 C1722 1.362 . S
C1722 H1714 0.930 . S
C1722 C1721 1.362 . S
C1722 C1725 1.409 . S
C1723 H1715 0.930 . S
C1723 C1724 1.355 . S
C1723 C1725 1.415 . S
C1724 C1723 1.355 . S
C1724 C1726 1.419 . S
C1725 C1720 1.425 . S
C1725 C1722 1.409 . S
C1725 C1723 1.415 . S
C1726 H1716 0.930 . S
C1726 C1724 1.419 . S
C1726 C1727 1.362 . S
C1727 H1717 0.930 . S
C1727 C1720 1.409 . S
C1727 C1726 1.362 . S
H1728 C1734 0.930 . S
H1729 C1737 0.930 . S
H1730 C1738 0.930 . S
H1731 C1739 0.930 . S
H1732 C1742 0.930 . S
H1733 C1743 0.930 . S
C1734 H1728 0.930 . S
C1734 C1735 1.355 . S
C1734 C1736 1.415 . S
C1735 C1734 1.355 . S
C1735 C1737 1.419 . S
C1736 C1734 1.415 . S
C1736 C1741 1.425 . S
C1736 C1743 1.409 1_655 S
C1737 H1729 0.930 . S
C1737 C1735 1.419 . S
C1737 C1738 1.362 . S
C1738 H1730 0.930 . S
C1738 C1737 1.362 . S
C1738 C1741 1.409 . S
C1739 H1731 0.930 . S
C1739 C1740 1.355 . S
C1739 C1741 1.415 1_455 S
C1740 C1739 1.355 . S
C1740 C1742 1.419 . S
C1741 C1736 1.425 . S
C1741 C1738 1.409 . S
C1741 C1739 1.415 1_655 S
C1742 H1732 0.930 . S
C1742 C1740 1.419 . S
C1742 C1743 1.362 . S
C1743 H1733 0.930 . S
C1743 C1736 1.409 1_455 S
C1743 C1742 1.362 . S
H1744 C1750 0.930 . S
H1745 C1753 0.930 . S
H1746 C1754 0.930 . S
H1747 C1755 0.930 . S
H1748 C1758 0.930 . S
H1749 C1759 0.930 . S
C1750 H1744 0.930 . S
C1750 C1751 1.355 . S
C1750 C1752 1.415 . S
C1751 C1750 1.355 . S
C1751 C1753 1.419 . S
C1752 C1750 1.415 . S
C1752 C1757 1.425 . S
C1752 C1759 1.409 . S
C1753 H1745 0.930 . S
C1753 C1751 1.419 . S
C1753 C1754 1.362 . S
C1754 H1746 0.930 . S
C1754 C1753 1.362 . S
C1754 C1757 1.409 . S
C1755 H1747 0.930 . S
C1755 C1756 1.355 . S
C1755 C1757 1.415 . S
C1756 C1755 1.355 . S
C1756 C1758 1.419 . S
C1757 C1752 1.425 . S
C1757 C1754 1.409 . S
C1757 C1755 1.415 . S
C1758 H1748 0.930 . S
C1758 C1756 1.419 . S
C1758 C1759 1.362 . S
C1759 H1749 0.930 . S
C1759 C1752 1.409 . S
C1759 C1758 1.362 . S
H1760 C1766 0.930 . S
H1761 C1769 0.930 . S
H1762 C1770 0.930 1_655 S
H1763 C1771 0.930 . S
H1764 C1774 0.930 . S
H1765 C1775 0.930 . S
C1766 H1760 0.930 . S
C1766 C1767 1.355 . S
C1766 C1768 1.415 1_455 S
C1767 C1766 1.355 . S
C1767 C1769 1.419 . S
C1768 C1766 1.415 1_655 S
C1768 C1773 1.425 . S
C1768 C1775 1.409 . S
C1769 H1761 0.930 . S
C1769 C1767 1.419 . S
C1769 C1770 1.362 . S
C1770 H1762 0.930 1_455 S
C1770 C1769 1.362 . S
C1770 C1773 1.409 1_455 S
C1771 H1763 0.930 . S
C1771 C1772 1.355 . S
C1771 C1773 1.415 . S
C1772 C1771 1.355 . S
C1772 C1774 1.419 . S
C1773 C1768 1.425 . S
C1773 C1770 1.409 1_655 S
C1773 C1771 1.415 . S
C1774 H1764 0.930 . S
C1774 C1772 1.419 . S
C1774 C1775 1.362 . S
C1775 H1765 0.930 . S
C1775 C1768 1.409 . S
C1775 C1774 1.362 . S
H1776 C1782 0.930 . S
H1777 C1785 0.930 . S
H1778 C1786 0.930 . S
H1779 C1787 0.930 . S
H1780 C1790 0.930 . S
H1781 C1791 0.930 . S
C1782 H1776 0.930 . S
C1782 C1783 1.355 . S
C1782 C1784 1.415 . S
C1783 C1782 1.355 . S
C1783 C1785 1.419 . S
C1784 C1782 1.415 . S
C1784 C1789 1.425 . S
C1784 C1791 1.409 . S
C1785 H1777 0.930 . S
C1785 C1783 1.419 . S
C1785 C1786 1.362 . S
C1786 H1778 0.930 . S
C1786 C1785 1.362 . S
C1786 C1789 1.409 . S
C1787 H1779 0.930 . S
C1787 C1788 1.355 . S
C1787 C1789 1.415 . S
C1788 C1787 1.355 . S
C1788 C1790 1.419 . S
C1789 C1784 1.425 . S
C1789 C1786 1.409 . S
C1789 C1787 1.415 . S
C1790 H1780 0.930 . S
C1790 C1788 1.419 . S
C1790 C1791 1.362 . S
C1791 H1781 0.930 . S
C1791 C1784 1.409 . S
C1791 C1790 1.362 . S
H1792 C1798 0.930 . S
H1793 C1801 0.930 . S
H1794 C1802 0.930 1_455 S
H1795 C1803 0.930 . S
H1796 C1806 0.930 . S
H1797 C1807 0.930 . S
C1798 H1792 0.930 . S
C1798 C1799 1.355 1_565 S
C1798 C1800 1.415 1_655 S
C1799 C1798 1.355 1_545 S
C1799 C1801 1.419 . S
C1800 C1798 1.415 1_455 S
C1800 C1805 1.425 1_565 S
C1800 C1807 1.409 . S
C1801 H1793 0.930 . S
C1801 C1799 1.419 . S
C1801 C1802 1.362 . S
C1802 H1794 0.930 1_655 S
C1802 C1801 1.362 . S
C1802 C1805 1.409 1_655 S
C1803 H1795 0.930 . S
C1803 C1804 1.355 1_545 S
C1803 C1805 1.415 . S
C1804 C1803 1.355 1_565 S
C1804 C1806 1.419 . S
C1805 C1800 1.425 1_545 S
C1805 C1802 1.409 1_455 S
C1805 C1803 1.415 . S
C1806 H1796 0.930 . S
C1806 C1804 1.419 . S
C1806 C1807 1.362 . S
C1807 H1797 0.930 . S
C1807 C1800 1.409 . S
C1807 C1806 1.362 . S
H1808 C1814 0.930 . S
H1809 C1817 0.930 . S
H1810 C1818 0.930 . S
H1811 C1819 0.930 . S
H1812 C1822 0.930 . S
H1813 C1823 0.930 . S
C1814 H1808 0.930 . S
C1814 C1815 1.355 . S
C1814 C1816 1.415 . S
C1815 C1814 1.355 . S
C1815 C1817 1.419 . S
C1816 C1814 1.415 . S
C1816 C1821 1.425 . S
C1816 C1823 1.409 . S
C1817 H1809 0.930 . S
C1817 C1815 1.419 . S
C1817 C1818 1.362 . S
C1818 H1810 0.930 . S
C1818 C1817 1.362 . S
C1818 C1821 1.409 . S
C1819 H1811 0.930 . S
C1819 C1820 1.355 . S
C1819 C1821 1.415 . S
C1820 C1819 1.355 . S
C1820 C1822 1.419 . S
C1821 C1816 1.425 . S
C1821 C1818 1.409 . S
C1821 C1819 1.415 . S
C1822 H1812 0.930 . S
C1822 C1820 1.419 . S
C1822 C1823 1.362 . S
C1823 H1813 0.930 . S
C1823 C1816 1.409 . S
C1823 C1822 1.362 . S
H1824 C1830 0.930 . S
H1825 C1833 0.930 . S
H1826 C1834 0.930 . S
H1827 C1835 0.930 . S
H1828 C1838 0.930 . S
H1829 C1839 0.930 . S
C1830 H1824 0.930 . S
C1830 C1831 1.355 . S
C1830 C1832 1.415 1_655 S
C1831 C1830 1.355 . S
C1831 C1833 1.419 . S
C1832 C1830 1.415 1_455 S
C1832 C1837 1.425 . S
C1832 C1839 1.409 . S
C1833 H1825 0.930 . S
C1833 C1831 1.419 . S
C1833 C1834 1.362 . S
C1834 H1826 0.930 . S
C1834 C1833 1.362 . S
C1834 C1837 1.409 1_655 S
C1835 H1827 0.930 . S
C1835 C1836 1.355 . S
C1835 C1837 1.415 . S
C1836 C1835 1.355 . S
C1836 C1838 1.419 . S
C1837 C1832 1.425 . S
C1837 C1834 1.409 1_455 S
C1837 C1835 1.415 . S
C1838 H1828 0.930 . S
C1838 C1836 1.419 . S
C1838 C1839 1.362 . S
C1839 H1829 0.930 . S
C1839 C1832 1.409 . S
C1839 C1838 1.362 . S
H1840 C1846 0.930 . S
H1841 C1849 0.930 . S
H1842 C1850 0.930 . S
H1843 C1851 0.930 . S
H1844 C1854 0.930 . S
H1845 C1855 0.930 . S
C1846 H1840 0.930 . S
C1846 C1847 1.355 . S
C1846 C1848 1.415 . S
C1847 C1846 1.355 . S
C1847 C1849 1.419 1_545 S
C1848 C1846 1.415 . S
C1848 C1853 1.425 1_545 S
C1848 C1855 1.409 . S
C1849 H1841 0.930 . S
C1849 C1847 1.419 1_565 S
C1849 C1850 1.362 . S
C1850 H1842 0.930 . S
C1850 C1849 1.362 . S
C1850 C1853 1.409 . S
C1851 H1843 0.930 . S
C1851 C1852 1.355 . S
C1851 C1853 1.415 . S
C1852 C1851 1.355 . S
C1852 C1854 1.419 1_565 S
C1853 C1848 1.425 1_565 S
C1853 C1850 1.409 . S
C1853 C1851 1.415 . S
C1854 H1844 0.930 . S
C1854 C1852 1.419 1_545 S
C1854 C1855 1.362 . S
C1855 H1845 0.930 . S
C1855 C1848 1.409 . S
C1855 C1854 1.362 . S
H1856 C1862 0.930 . S
H1857 C1865 0.930 . S
H1858 C1866 0.930 . S
H1859 C1867 0.930 . S
H1860 C1870 0.930 . S
H1861 C1871 0.930 . S
C1862 H1856 0.930 . S
C1862 C1863 1.355 . S
C1862 C1864 1.415 . S
C1863 C1862 1.355 . S
C1863 C1865 1.419 1_545 S
C1864 C1862 1.415 . S
C1864 C1869 1.425 1_545 S
C1864 C1871 1.409 1_655 S
C1865 H1857 0.930 . S
C1865 C1863 1.419 1_565 S
C1865 C1866 1.362 . S
C1866 H1858 0.930 . S
C1866 C1865 1.362 . S
C1866 C1869 1.409 . S
C1867 H1859 0.930 . S
C1867 C1868 1.355 . S
C1867 C1869 1.415 1_455 S
C1868 C1867 1.355 . S
C1868 C1870 1.419 1_565 S
C1869 C1864 1.425 1_565 S
C1869 C1866 1.409 . S
C1869 C1867 1.415 1_655 S
C1870 H1860 0.930 . S
C1870 C1868 1.419 1_545 S
C1870 C1871 1.362 . S
C1871 H1861 0.930 . S
C1871 C1864 1.409 1_455 S
C1871 C1870 1.362 . S
H1872 C1878 0.930 . S
H1873 C1881 0.930 . S
H1874 C1882 0.930 . S
H1875 C1883 0.930 . S
H1876 C1886 0.930 . S
H1877 C1887 0.930 . S
C1878 H1872 0.930 . S
C1878 C1879 1.355 . S
C1878 C1880 1.415 . S
C1879 C1878 1.355 . S
C1879 C1881 1.419 . S
C1880 C1878 1.415 . S
C1880 C1885 1.425 . S
C1880 C1887 1.409 . S
C1881 H1873 0.930 . S
C1881 C1879 1.419 . S
C1881 C1882 1.362 . S
C1882 H1874 0.930 . S
C1882 C1881 1.362 . S
C1882 C1885 1.409 . S
C1883 H1875 0.930 . S
C1883 C1884 1.355 . S
C1883 C1885 1.415 . S
C1884 C1883 1.355 . S
C1884 C1886 1.419 . S
C1885 C1880 1.425 . S
C1885 C1882 1.409 . S
C1885 C1883 1.415 . S
C1886 H1876 0.930 . S
C1886 C1884 1.419 . S
C1886 C1887 1.362 . S
C1887 H1877 0.930 . S
C1887 C1880 1.409 . S
C1887 C1886 1.362 . S
H1888 C1894 0.930 . S
H1889 C1897 0.930 . S
H1890 C1898 0.930 1_655 S
H1891 C1899 0.930 . S
H1892 C1902 0.930 . S
H1893 C1903 0.930 . S
C1894 H1888 0.930 . S
C1894 C1895 1.355 . S
C1894 C1896 1.415 1_455 S
C1895 C1894 1.355 . S
C1895 C1897 1.419 . S
C1896 C1894 1.415 1_655 S
C1896 C1901 1.425 . S
C1896 C1903 1.409 . S
C1897 H1889 0.930 . S
C1897 C1895 1.419 . S
C1897 C1898 1.362 . S
C1898 H1890 0.930 1_455 S
C1898 C1897 1.362 . S
C1898 C1901 1.409 1_455 S
C1899 H1891 0.930 . S
C1899 C1900 1.355 . S
C1899 C1901 1.415 . S
C1900 C1899 1.355 . S
C1900 C1902 1.419 . S
C1901 C1896 1.425 . S
C1901 C1898 1.409 1_655 S
C1901 C1899 1.415 . S
C1902 H1892 0.930 . S
C1902 C1900 1.419 . S
C1902 C1903 1.362 . S
C1903 H1893 0.930 . S
C1903 C1896 1.409 . S
C1903 C1902 1.362 . S
H1904 C1910 0.930 . S
H1905 C1913 0.930 . S
H1906 C1914 0.930 . S
H1907 C1915 0.930 . S
H1908 C1918 0.930 . S
H1909 C1919 0.930 . S
C1910 H1904 0.930 . S
C1910 C1911 1.355 . S
C1910 C1912 1.415 . S
C1911 C1910 1.355 . S
C1911 C1913 1.419 1_565 S
C1912 C1910 1.415 . S
C1912 C1917 1.425 1_565 S
C1912 C1919 1.409 . S
C1913 H1905 0.930 . S
C1913 C1911 1.419 1_545 S
C1913 C1914 1.362 . S
C1914 H1906 0.930 . S
C1914 C1913 1.362 . S
C1914 C1917 1.409 . S
C1915 H1907 0.930 . S
C1915 C1916 1.355 . S
C1915 C1917 1.415 . S
C1916 C1915 1.355 . S
C1916 C1918 1.419 1_545 S
C1917 C1912 1.425 1_545 S
C1917 C1914 1.409 . S
C1917 C1915 1.415 . S
C1918 H1908 0.930 . S
C1918 C1916 1.419 1_565 S
C1918 C1919 1.362 . S
C1919 H1909 0.930 . S
C1919 C1912 1.409 . S
C1919 C1918 1.362 . S
H1920 C1926 0.930 . S
H1921 C1929 0.930 . S
H1922 C1930 0.930 . S
H1923 C1931 0.930 . S
H1924 C1934 0.930 . S
H1925 C1935 0.930 . S
C1926 H1920 0.930 . S
C1926 C1927 1.355 1_455 S
C1926 C1928 1.415 . S
C1927 C1926 1.355 1_655 S
C1927 C1929 1.419 . S
C1928 C1926 1.415 . S
C1928 C1933 1.425 1_454 S
C1928 C1935 1.409 1_554 S
C1929 H1921 0.930 . S
C1929 C1927 1.419 . S
C1929 C1930 1.362 . S
C1930 H1922 0.930 . S
C1930 C1929 1.362 . S
C1930 C1933 1.409 1_554 S
C1931 H1923 0.930 . S
C1931 C1932 1.355 1_655 S
C1931 C1933 1.415 . S
C1932 C1931 1.355 1_455 S
C1932 C1934 1.419 . S
C1933 C1928 1.425 1_656 S
C1933 C1930 1.409 1_556 S
C1933 C1931 1.415 . S
C1934 H1924 0.930 . S
C1934 C1932 1.419 . S
C1934 C1935 1.362 . S
C1935 H1925 0.930 . S
C1935 C1928 1.409 1_556 S
C1935 C1934 1.362 . S
H1936 C1942 0.930 . S
H1937 C1945 0.930 . S
H1938 C1946 0.930 . S
H1939 C1947 0.930 . S
H1940 C1950 0.930 . S
H1941 C1951 0.930 . S
C1942 H1936 0.930 . S
C1942 C1943 1.355 . S
C1942 C1944 1.415 . S
C1943 C1942 1.355 . S
C1943 C1945 1.419 . S
C1944 C1942 1.415 . S
C1944 C1949 1.425 1_556 S
C1944 C1951 1.409 1_556 S
C1945 H1937 0.930 . S
C1945 C1943 1.419 . S
C1945 C1946 1.362 . S
C1946 H1938 0.930 . S
C1946 C1945 1.362 . S
C1946 C1949 1.409 1_556 S
C1947 H1939 0.930 . S
C1947 C1948 1.355 . S
C1947 C1949 1.415 . S
C1948 C1947 1.355 . S
C1948 C1950 1.419 . S
C1949 C1944 1.425 1_554 S
C1949 C1946 1.409 1_554 S
C1949 C1947 1.415 . S
C1950 H1940 0.930 . S
C1950 C1948 1.419 . S
C1950 C1951 1.362 . S
C1951 H1941 0.930 . S
C1951 C1944 1.409 1_554 S
C1951 C1950 1.362 . S
H1952 C1958 0.930 . S
H1953 C1961 0.930 . S
H1954 C1962 0.930 . S
H1955 C1963 0.930 . S
H1956 C1966 0.930 . S
H1957 C1967 0.930 . S
C1958 H1952 0.930 . S
C1958 C1959 1.355 1_655 S
C1958 C1960 1.415 . S
C1959 C1958 1.355 1_455 S
C1959 C1961 1.419 . S
C1960 C1958 1.415 . S
C1960 C1965 1.425 1_655 S
C1960 C1967 1.409 . S
C1961 H1953 0.930 . S
C1961 C1959 1.419 . S
C1961 C1962 1.362 . S
C1962 H1954 0.930 . S
C1962 C1961 1.362 . S
C1962 C1965 1.409 . S
C1963 H1955 0.930 . S
C1963 C1964 1.355 1_455 S
C1963 C1965 1.415 . S
C1964 C1963 1.355 1_655 S
C1964 C1966 1.419 . S
C1965 C1960 1.425 1_455 S
C1965 C1962 1.409 . S
C1965 C1963 1.415 . S
C1966 H1956 0.930 . S
C1966 C1964 1.419 . S
C1966 C1967 1.362 . S
C1967 H1957 0.930 . S
C1967 C1960 1.409 . S
C1967 C1966 1.362 . S
H1968 C1974 0.930 . S
H1969 C1977 0.930 . S
H1970 C1978 0.930 . S
H1971 C1979 0.930 . S
H1972 C1982 0.930 . S
H1973 C1983 0.930 . S
C1974 H1968 0.930 . S
C1974 C1975 1.355 . S
C1974 C1976 1.415 . S
C1975 C1974 1.355 . S
C1975 C1977 1.419 . S
C1976 C1974 1.415 . S
C1976 C1981 1.425 . S
C1976 C1983 1.409 . S
C1977 H1969 0.930 . S
C1977 C1975 1.419 . S
C1977 C1978 1.362 . S
C1978 H1970 0.930 . S
C1978 C1977 1.362 . S
C1978 C1981 1.409 . S
C1979 H1971 0.930 . S
C1979 C1980 1.355 . S
C1979 C1981 1.415 . S
C1980 C1979 1.355 . S
C1980 C1982 1.419 . S
C1981 C1976 1.425 . S
C1981 C1978 1.409 . S
C1981 C1979 1.415 . S
C1982 H1972 0.930 . S
C1982 C1980 1.419 . S
C1982 C1983 1.362 . S
C1983 H1973 0.930 . S
C1983 C1976 1.409 . S
C1983 C1982 1.362 . S
H1984 C1990 0.930 . S
H1985 C1993 0.930 . S
H1986 C1994 0.930 . S
H1987 C1995 0.930 . S
H1988 C1998 0.930 . S
H1989 C1999 0.930 . S
C1990 H1984 0.930 . S
C1990 C1991 1.355 . S
C1990 C1992 1.415 . S
C1991 C1990 1.355 . S
C1991 C1993 1.419 . S
C1992 C1990 1.415 . S
C1992 C1997 1.425 1_556 S
C1992 C1999 1.409 1_556 S
C1993 H1985 0.930 . S
C1993 C1991 1.419 . S
C1993 C1994 1.362 . S
C1994 H1986 0.930 . S
C1994 C1993 1.362 . S
C1994 C1997 1.409 1_556 S
C1995 H1987 0.930 . S
C1995 C1996 1.355 . S
C1995 C1997 1.415 . S
C1996 C1995 1.355 . S
C1996 C1998 1.419 . S
C1997 C1992 1.425 1_554 S
C1997 C1994 1.409 1_554 S
C1997 C1995 1.415 . S
C1998 H1988 0.930 . S
C1998 C1996 1.419 . S
C1998 C1999 1.362 . S
C1999 H1989 0.930 . S
C1999 C1992 1.409 1_554 S
C1999 C1998 1.362 . S
H2000 C2006 0.930 . S
H2001 C2009 0.930 . S
H2002 C2010 0.930 . S
H2003 C2011 0.930 . S
H2004 C2014 0.930 . S
H2005 C2015 0.930 . S
C2006 H2000 0.930 . S
C2006 C2007 1.355 . S
C2006 C2008 1.415 . S
C2007 C2006 1.355 . S
C2007 C2009 1.419 1_455 S
C2008 C2006 1.415 . S
C2008 C2013 1.425 1_455 S
C2008 C2015 1.409 . S
C2009 H2001 0.930 . S
C2009 C2007 1.419 1_655 S
C2009 C2010 1.362 . S
C2010 H2002 0.930 . S
C2010 C2009 1.362 . S
C2010 C2013 1.409 . S
C2011 H2003 0.930 . S
C2011 C2012 1.355 . S
C2011 C2013 1.415 . S
C2012 C2011 1.355 . S
C2012 C2014 1.419 1_655 S
C2013 C2008 1.425 1_655 S
C2013 C2010 1.409 . S
C2013 C2011 1.415 . S
C2014 H2004 0.930 . S
C2014 C2012 1.419 1_455 S
C2014 C2015 1.362 . S
C2015 H2005 0.930 . S
C2015 C2008 1.409 . S
C2015 C2014 1.362 . S
H2016 C2022 0.930 . S
H2017 C2025 0.930 . S
H2018 C2026 0.930 . S
H2019 C2027 0.930 . S
H2020 C2030 0.930 . S
H2021 C2031 0.930 . S
C2022 H2016 0.930 . S
C2022 C2023 1.355 . S
C2022 C2024 1.415 . S
C2023 C2022 1.355 . S
C2023 C2025 1.419 . S
C2024 C2022 1.415 . S
C2024 C2029 1.425 . S
C2024 C2031 1.409 . S
C2025 H2017 0.930 . S
C2025 C2023 1.419 . S
C2025 C2026 1.362 . S
C2026 H2018 0.930 . S
C2026 C2025 1.362 . S
C2026 C2029 1.409 . S
C2027 H2019 0.930 . S
C2027 C2028 1.355 . S
C2027 C2029 1.415 . S
C2028 C2027 1.355 . S
C2028 C2030 1.419 . S
C2029 C2024 1.425 . S
C2029 C2026 1.409 . S
C2029 C2027 1.415 . S
C2030 H2020 0.930 . S
C2030 C2028 1.419 . S
C2030 C2031 1.362 . S
C2031 H2021 0.930 . S
C2031 C2024 1.409 . S
C2031 C2030 1.362 . S
H2032 C2038 0.930 . S
H2033 C2041 0.930 . S
H2034 C2042 0.930 . S
H2035 C2043 0.930 . S
H2036 C2046 0.930 . S
H2037 C2047 0.930 . S
C2038 H2032 0.930 . S
C2038 C2039 1.355 1_465 S
C2038 C2040 1.415 . S
C2039 C2038 1.355 1_645 S
C2039 C2041 1.419 . S
C2040 C2038 1.415 . S
C2040 C2045 1.425 1_465 S
C2040 C2047 1.409 . S
C2041 H2033 0.930 . S
C2041 C2039 1.419 . S
C2041 C2042 1.362 . S
C2042 H2034 0.930 . S
C2042 C2041 1.362 . S
C2042 C2045 1.409 . S
C2043 H2035 0.930 . S
C2043 C2044 1.355 1_645 S
C2043 C2045 1.415 . S
C2044 C2043 1.355 1_465 S
C2044 C2046 1.419 . S
C2045 C2040 1.425 1_645 S
C2045 C2042 1.409 . S
C2045 C2043 1.415 . S
C2046 H2036 0.930 . S
C2046 C2044 1.419 . S
C2046 C2047 1.362 . S
C2047 H2037 0.930 . S
C2047 C2040 1.409 . S
C2047 C2046 1.362 . S
H2048 C2054 0.930 . S
H2049 C2057 0.930 . S
H2050 C2058 0.930 . S
H2051 C2059 0.930 . S
H2052 C2062 0.930 . S
H2053 C2063 0.930 . S
C2054 H2048 0.930 . S
C2054 C2055 1.355 . S
C2054 C2056 1.415 . S
C2055 C2054 1.355 . S
C2055 C2057 1.419 . S
C2056 C2054 1.415 . S
C2056 C2061 1.425 . S
C2056 C2063 1.409 . S
C2057 H2049 0.930 . S
C2057 C2055 1.419 . S
C2057 C2058 1.362 . S
C2058 H2050 0.930 . S
C2058 C2057 1.362 . S
C2058 C2061 1.409 . S
C2059 H2051 0.930 . S
C2059 C2060 1.355 . S
C2059 C2061 1.415 . S
C2060 C2059 1.355 . S
C2060 C2062 1.419 . S
C2061 C2056 1.425 . S
C2061 C2058 1.409 . S
C2061 C2059 1.415 . S
C2062 H2052 0.930 . S
C2062 C2060 1.419 . S
C2062 C2063 1.362 . S
C2063 H2053 0.930 . S
C2063 C2056 1.409 . S
C2063 C2062 1.362 . S
H2064 C2070 0.930 . S
H2065 C2073 0.930 . S
H2066 C2074 0.930 . S
H2067 C2075 0.930 . S
H2068 C2078 0.930 . S
H2069 C2079 0.930 . S
C2070 H2064 0.930 . S
C2070 C2071 1.355 1_565 S
C2070 C2072 1.415 . S
C2071 C2070 1.355 1_545 S
C2071 C2073 1.419 . S
C2072 C2070 1.415 . S
C2072 C2077 1.425 1_565 S
C2072 C2079 1.409 . S
C2073 H2065 0.930 . S
C2073 C2071 1.419 . S
C2073 C2074 1.362 . S
C2074 H2066 0.930 . S
C2074 C2073 1.362 . S
C2074 C2077 1.409 . S
C2075 H2067 0.930 . S
C2075 C2076 1.355 1_545 S
C2075 C2077 1.415 . S
C2076 C2075 1.355 1_565 S
C2076 C2078 1.419 . S
C2077 C2072 1.425 1_545 S
C2077 C2074 1.409 . S
C2077 C2075 1.415 . S
C2078 H2068 0.930 . S
C2078 C2076 1.419 . S
C2078 C2079 1.362 . S
C2079 H2069 0.930 . S
C2079 C2072 1.409 . S
C2079 C2078 1.362 . S
H2080 C2086 0.930 . S
H2081 C2089 0.930 . S
H2082 C2090 0.930 . S
H2083 C2091 0.930 . S
H2084 C2094 0.930 . S
H2085 C2095 0.930 . S
C2086 H2080 0.930 . S
C2086 C2087 1.355 . S
C2086 C2088 1.415 . S
C2087 C2086 1.355 . S
C2087 C2089 1.419 . S
C2088 C2086 1.415 . S
C2088 C2093 1.425 . S
C2088 C2095 1.409 . S
C2089 H2081 0.930 . S
C2089 C2087 1.419 . S
C2089 C2090 1.362 . S
C2090 H2082 0.930 . S
C2090 C2089 1.362 . S
C2090 C2093 1.409 . S
C2091 H2083 0.930 . S
C2091 C2092 1.355 . S
C2091 C2093 1.415 . S
C2092 C2091 1.355 . S
C2092 C2094 1.419 . S
C2093 C2088 1.425 . S
C2093 C2090 1.409 . S
C2093 C2091 1.415 . S
C2094 H2084 0.930 . S
C2094 C2092 1.419 . S
C2094 C2095 1.362 . S
C2095 H2085 0.930 . S
C2095 C2088 1.409 . S
C2095 C2094 1.362 . S
H2096 C2102 0.930 . S
H2097 C2105 0.930 . S
H2098 C2106 0.930 . S
H2099 C2107 0.930 . S
H2100 C2110 0.930 . S
H2101 C2111 0.930 . S
C2102 H2096 0.930 . S
C2102 C2103 1.355 1_545 S
C2102 C2104 1.415 . S
C2103 C2102 1.355 1_565 S
C2103 C2105 1.419 . S
C2104 C2102 1.415 . S
C2104 C2109 1.425 1_545 S
C2104 C2111 1.409 . S
C2105 H2097 0.930 . S
C2105 C2103 1.419 . S
C2105 C2106 1.362 . S
C2106 H2098 0.930 . S
C2106 C2105 1.362 . S
C2106 C2109 1.409 . S
C2107 H2099 0.930 . S
C2107 C2108 1.355 1_565 S
C2107 C2109 1.415 . S
C2108 C2107 1.355 1_545 S
C2108 C2110 1.419 . S
C2109 C2104 1.425 1_565 S
C2109 C2106 1.409 . S
C2109 C2107 1.415 . S
C2110 H2100 0.930 . S
C2110 C2108 1.419 . S
C2110 C2111 1.362 . S
C2111 H2101 0.930 . S
C2111 C2104 1.409 . S
C2111 C2110 1.362 . S
H2112 C2118 0.930 . S
H2113 C2121 0.930 . S
H2114 C2122 0.930 . S
H2115 C2123 0.930 . S
H2116 C2126 0.930 . S
H2117 C2127 0.930 . S
C2118 H2112 0.930 . S
C2118 C2119 1.355 . S
C2118 C2120 1.415 . S
C2119 C2118 1.355 . S
C2119 C2121 1.419 . S
C2120 C2118 1.415 . S
C2120 C2125 1.425 . S
C2120 C2127 1.409 . S
C2121 H2113 0.930 . S
C2121 C2119 1.419 . S
C2121 C2122 1.362 . S
C2122 H2114 0.930 . S
C2122 C2121 1.362 . S
C2122 C2125 1.409 . S
C2123 H2115 0.930 . S
C2123 C2124 1.355 . S
C2123 C2125 1.415 . S
C2124 C2123 1.355 . S
C2124 C2126 1.419 . S
C2125 C2120 1.425 . S
C2125 C2122 1.409 . S
C2125 C2123 1.415 . S
C2126 H2116 0.930 . S
C2126 C2124 1.419 . S
C2126 C2127 1.362 . S
C2127 H2117 0.930 . S
C2127 C2120 1.409 . S
C2127 C2126 1.362 . S
H2128 C2134 0.930 . S
H2129 C2137 0.930 . S
H2130 C2138 0.930 . S
H2131 C2139 0.930 . S
H2132 C2142 0.930 . S
H2133 C2143 0.930 . S
C2134 H2128 0.930 . S
C2134 C2135 1.355 . S
C2134 C2136 1.415 . S
C2135 C2134 1.355 . S
C2135 C2137 1.419 . S
C2136 C2134 1.415 . S
C2136 C2141 1.425 . S
C2136 C2143 1.409 . S
C2137 H2129 0.930 . S
C2137 C2135 1.419 . S
C2137 C2138 1.362 . S
C2138 H2130 0.930 . S
C2138 C2137 1.362 . S
C2138 C2141 1.409 . S
C2139 H2131 0.930 . S
C2139 C2140 1.355 . S
C2139 C2141 1.415 . S
C2140 C2139 1.355 . S
C2140 C2142 1.419 . S
C2141 C2136 1.425 . S
C2141 C2138 1.409 . S
C2141 C2139 1.415 . S
C2142 H2132 0.930 . S
C2142 C2140 1.419 . S
C2142 C2143 1.362 . S
C2143 H2133 0.930 . S
C2143 C2136 1.409 . S
C2143 C2142 1.362 . S
H2144 C2150 0.930 . S
H2145 C2153 0.930 . S
H2146 C2154 0.930 . S
H2147 C2155 0.930 . S
H2148 C2158 0.930 . S
H2149 C2159 0.930 . S
C2150 H2144 0.930 . S
C2150 C2151 1.355 . S
C2150 C2152 1.415 . S
C2151 C2150 1.355 . S
C2151 C2153 1.419 . S
C2152 C2150 1.415 . S
C2152 C2157 1.425 . S
C2152 C2159 1.409 . S
C2153 H2145 0.930 . S
C2153 C2151 1.419 . S
C2153 C2154 1.362 . S
C2154 H2146 0.930 . S
C2154 C2153 1.362 . S
C2154 C2157 1.409 . S
C2155 H2147 0.930 . S
C2155 C2156 1.355 . S
C2155 C2157 1.415 . S
C2156 C2155 1.355 . S
C2156 C2158 1.419 . S
C2157 C2152 1.425 . S
C2157 C2154 1.409 . S
C2157 C2155 1.415 . S
C2158 H2148 0.930 . S
C2158 C2156 1.419 . S
C2158 C2159 1.362 . S
C2159 H2149 0.930 . S
C2159 C2152 1.409 . S
C2159 C2158 1.362 . S
H2160 C2166 0.930 . S
H2161 C2169 0.930 . S
H2162 C2170 0.930 . S
H2163 C2171 0.930 . S
H2164 C2174 0.930 . S
H2165 C2175 0.930 . S
C2166 H2160 0.930 . S
C2166 C2167 1.341 1_545 S
C2166 C2168 1.415 . S
C2167 C2166 1.341 1_565 S
C2167 C2169 1.437 . S
C2168 C2166 1.415 . S
C2168 C2173 1.425 1_544 S
C2168 C2175 1.409 1_554 S
C2169 H2161 0.930 . S
C2169 C2167 1.437 . S
C2169 C2170 1.362 . S
C2170 H2162 0.930 . S
C2170 C2169 1.362 . S
C2170 C2173 1.409 1_554 S
C2171 H2163 0.930 . S
C2171 C2172 1.345 1_565 S
C2171 C2173 1.415 . S
C2172 C2171 1.345 1_545 S
C2172 C2174 1.431 . S
C2173 C2168 1.425 1_566 S
C2173 C2170 1.409 1_556 S
C2173 C2171 1.415 . S
C2174 H2164 0.930 . S
C2174 C2172 1.431 . S
C2174 C2175 1.362 . S
C2175 H2165 0.930 . S
C2175 C2168 1.409 1_556 S
C2175 C2174 1.362 . S
C647 C16 1.619 . S
C652 C516 1.621 . S
C663 C496 1.605 . S
C668 C36 1.598 . S
C679 C556 1.659 . S
C684 C56 1.658 . S
C695 C76 1.696 . S
C700 C536 1.697 . S
C711 C86 1.698 . S
C716 C586 1.699 . S
C727 C106 1.639 . S
C732 C566 1.628 . S
C743 C126 1.619 . S
C748 C626 1.609 . S
C759 C606 1.621 . S
C764 C146 1.623 . S
C775 C176 1.684 . S
C780 C356 1.677 . S
C791 C196 1.696 . S
C796 C336 1.693 . S
C807 C216 1.629 . S
C812 C396 1.632 . S
C823 C376 1.605 . S
C828 C236 1.599 . S
C839 C246 1.661 . S
C844 C426 1.651 . S
C855 C266 1.629 . S
C860 C406 1.632 . S
C871 C466 1.696 . S
C876 C286 1.694 . S
C887 C306 1.606 . S
C892 C446 1.602 . S
C903 C1 1.479 . S
C908 C61 1.491 . S
C919 C21 1.510 . S
C924 C41 1.512 . S
C935 C149 1.477 . S
C940 C89 1.489 . S
C951 C129 1.477 . S
C956 C109 1.481 . S
C967 C161 1.492 1_545 S
C972 C221 1.487 . S
C983 C181 1.476 . S
C988 C201 1.488 . S
C999 C249 1.493 1_565 S
C1004 C309 1.488 . S
C1015 C289 1.494 . S
C1020 C269 1.479 . S
C1031 C321 1.486 . S
C1036 C381 1.476 . S
C1047 C341 1.510 . S
C1052 C361 1.499 . S
C1063 C469 1.480 . S
C1068 C409 1.475 . S
C1079 C429 1.479 . S
C1084 C449 1.477 . S
C1095 C541 1.495 . S
C1100 C481 1.500 1_545 S
C1111 C501 1.486 . S
C1116 C521 1.474 . S
C1127 C629 1.475 . S
C1132 C569 1.479 1_565 S
C1143 C609 1.488 . S
C1148 C589 1.502 . S
C1159 C26 1.590 . S
C1164 C6 1.590 . S
C1175 C46 1.554 . S
C1180 C66 1.549 . S
C1191 C116 1.556 . S
C1196 C96 1.551 . S
C1207 C156 1.558 . S
C1212 C136 1.554 . S
C1223 C166 1.525 . S
C1228 C186 1.527 . S
C1239 C206 1.601 . S
C1244 C226 1.606 . S
C1255 C276 1.553 . S
C1260 C256 1.554 . S
C1271 C296 1.602 . S
C1276 C316 1.609 . S
C1287 C326 1.488 . S
C1292 C346 1.490 . S
C1303 C386 1.535 . S
C1308 C366 1.540 . S
C1319 C416 1.484 . S
C1324 C436 1.485 . S
C1335 C456 1.493 . S
C1340 C476 1.490 . S
C1351 C486 1.589 . S
C1356 C506 1.598 . S
C1367 C526 1.498 . S
C1372 C546 1.503 . S
C1383 C596 1.510 . S
C1388 C576 1.519 . S
C1399 C616 1.585 . S
C1404 C636 1.594 . S
C1415 C8 1.947 . S
C1420 C19 1.947 . S
C1431 C28 1.867 . S
C1436 C39 1.867 1_655 S
C1447 C48 1.913 . S
C1452 C59 1.913 . S
C1463 C79 1.940 1_655 S
C1468 C68 1.940 . S
C1479 C88 1.942 . S
C1484 C99 1.942 . S
C1495 C119 1.924 . S
C1500 C108 1.924 1_455 S
C1511 C128 1.939 . S
C1516 C139 1.939 . S
C1527 C148 1.869 1_455 S
C1532 C159 1.869 . S
C1543 C179 1.870 . S
C1548 C168 1.870 . S
C1559 C188 1.936 . S
C1564 C199 1.936 1_655 S
C1575 C208 1.875 . S
C1580 C219 1.875 . S
C1591 C239 1.865 1_655 S
C1596 C228 1.865 . S
C1607 C248 1.926 . S
C1612 C259 1.926 . S
C1623 C279 1.876 . S
C1628 C268 1.876 1_455 S
C1639 C299 1.869 . S
C1644 C288 1.869 . S
C1655 C308 1.943 1_455 S
C1660 C319 1.943 . S
C1671 C328 1.949 . S
C1676 C339 1.949 . S
C1687 C359 1.867 . S
C1692 C348 1.867 1_455 S
C1703 C379 1.943 . S
C1708 C368 1.943 . S
C1719 C388 1.942 1_455 S
C1724 C399 1.942 . S
C1735 C419 1.916 . S
C1740 C408 1.916 . S
C1751 C439 1.947 1_655 S
C1756 C428 1.947 . S
C1767 C448 1.948 . S
C1772 C459 1.948 . S
C1783 C479 1.869 1_655 S
C1788 C468 1.869 . S
C1799 C499 1.942 . S
C1804 C488 1.942 . S
C1815 C508 1.903 1_455 S
C1820 C519 1.903 . S
C1831 C539 1.866 . S
C1836 C528 1.866 . S
C1847 C559 1.893 . S
C1852 C548 1.893 1_455 S
C1863 C579 1.871 . S
C1868 C568 1.871 . S
C1879 C599 1.949 1_655 S
C1884 C588 1.949 . S
C1895 C608 1.925 . S
C1900 C619 1.925 . S
C1911 C628 1.913 . S
C1916 C639 1.913 1_655 S
C1927 C9 1.553 1_655 S
C1932 C81 1.553 1_455 S
C1943 C581 1.526 . S
C1948 C29 1.526 . S
C1959 C281 1.546 1_455 S
C1964 C49 1.546 1_655 S
C1975 C69 1.518 . S
C1980 C461 1.518 . S
C1991 C101 1.553 . S
C1996 C509 1.553 . S
C2007 C121 1.487 1_455 S
C2012 C209 1.487 1_655 S
C2023 C141 1.554 . S
C2028 C389 1.554 . S
C2039 C169 1.516 1_655 S
C2044 C241 1.517 1_455 S
C2055 C421 1.531 . S
C2060 C189 1.531 . S
C2071 C621 1.495 1_545 S
C2076 C229 1.494 1_565 S
C2087 C261 1.550 . S
C2092 C349 1.550 . S
C2103 C549 1.534 1_565 S
C2108 C301 1.533 1_545 S
C2119 C329 1.491 . S
C2124 C401 1.491 . S
C2135 C601 1.488 . S
C2140 C369 1.488 . S
C2151 C441 1.510 . S
C2156 C529 1.510 . S
C2167 C489 1.550 1_565 S
C2172 C561 1.550 1_545 S
