# Generated by pormake.
# Topology sra, (4)-cn, num edge types: 1
# Building blocks:
#     Node 0, Type 0, BuildingBlock: CEKHIL_clean_sbu_0, # of connection points: 4
#     Node 1, Type 0, BuildingBlock: CEKHIL_clean_sbu_0, # of connection points: 4
#     Node 2, Type 0, BuildingBlock: CEKHIL_clean_sbu_0, # of connection points: 4
#     Node 3, Type 0, BuildingBlock: CEKHIL_clean_sbu_0, # of connection points: 4
#     Node 4, Type 0, BuildingBlock: CEKHIL_clean_sbu_0, # of connection points: 4
#     Node 5, Type 0, BuildingBlock: CEKHIL_clean_sbu_0, # of connection points: 4
#     Node 6, Type 0, BuildingBlock: CEKHIL_clean_sbu_0, # of connection points: 4
#     Node 7, Type 0, BuildingBlock: CEKHIL_clean_sbu_0, # of connection points: 4
#     Edge 8, Type (0, 0), BuildingBlock: XUDNAN_clean_linker_2, # of connection points: 2
#     Edge 9, Type (0, 0), BuildingBlock: XUDNAN_clean_linker_2, # of connection points: 2
#     Edge 10, Type (0, 0), BuildingBlock: XUDNAN_clean_linker_2, # of connection points: 2
#     Edge 11, Type (0, 0), BuildingBlock: XUDNAN_clean_linker_2, # of connection points: 2
#     Edge 12, Type (0, 0), BuildingBlock: XUDNAN_clean_linker_2, # of connection points: 2
#     Edge 13, Type (0, 0), BuildingBlock: XUDNAN_clean_linker_2, # of connection points: 2
#     Edge 14, Type (0, 0), BuildingBlock: XUDNAN_clean_linker_2, # of connection points: 2
#     Edge 15, Type (0, 0), BuildingBlock: XUDNAN_clean_linker_2, # of connection points: 2
#     Edge 16, Type (0, 0), BuildingBlock: XUDNAN_clean_linker_2, # of connection points: 2
#     Edge 17, Type (0, 0), BuildingBlock: XUDNAN_clean_linker_2, # of connection points: 2
#     Edge 18, Type (0, 0), BuildingBlock: XUDNAN_clean_linker_2, # of connection points: 2
#     Edge 19, Type (0, 0), BuildingBlock: XUDNAN_clean_linker_2, # of connection points: 2
#     Edge 20, Type (0, 0), BuildingBlock: XUDNAN_clean_linker_2, # of connection points: 2
#     Edge 21, Type (0, 0), BuildingBlock: XUDNAN_clean_linker_2, # of connection points: 2
#     Edge 22, Type (0, 0), BuildingBlock: XUDNAN_clean_linker_2, # of connection points: 2
#     Edge 23, Type (0, 0), BuildingBlock: XUDNAN_clean_linker_2, # of connection points: 2
# Relax obj value: 0.033
# Max RMSD: 0.069
# Mean RMSD: 0.069
data_MOF--net-sra--node1-CEKHIL_clean_sbu_0--edge1-XUDNAN_clean_linker_2
_symmetry_space_group_name_H-M    P1
_symmetry_Int_Tables_number       1
_symmetry_cell_setting            triclinic
loop_
_symmetry_equiv_pos_as_xyz
'x, y, z'
_cell_length_a     26.959953
_cell_length_b     52.743899
_cell_length_c     31.234173
_cell_angle_alpha  89.96178
_cell_angle_beta   90.004556
_cell_angle_gamma 89.999226
loop_
_atom_site_label
_atom_site_type_symbol
_atom_site_fract_x
_atom_site_fract_y
_atom_site_fract_z
_atom_type_partial_charge
Co0 Co 0.03081 0.10711 0.15095 0.0
O1 O 0.03382 0.07185 0.13361 0.0
O2 O 1.00026 0.1026 0.09532 0.0
C3 C 0.11052 0.11022 0.17237 0.0
O4 O 0.02281 0.14576 0.15642 0.0
Co5 Co 0.04606 0.12295 0.24523 0.0
O6 O 0.04535 0.15799 0.22258 0.0
C7 C 0.95074 0.10064 0.21966 0.0
C8 C 0.01178 0.07872 0.09853 0.0
C9 C 0.0315 0.16312 0.18456 0.0
O10 O 0.96534 0.10078 0.18041 0.0
O11 O 0.97835 0.10745 0.25093 0.0
O12 O 0.09867 0.11226 0.1322 0.0
O13 O 0.07467 0.10408 0.1979 0.0
Co14 Co 0.01287 0.4052 0.15454 0.0
O15 O 0.01206 0.44062 0.13762 0.0
O16 O 0.02951 0.40864 0.09455 0.0
C17 C 0.94081 0.40559 0.1915 0.0
O18 O 0.01536 0.3663 0.159 0.0
Co19 Co 0.01725 0.38888 0.25028 0.0
O20 O 0.00272 0.35466 0.22738 0.0
C21 C 0.10715 0.40875 0.20812 0.0
C22 C 0.02392 0.43296 0.09946 0.0
C23 C 0.00796 0.34917 0.1879 0.0
O24 O 0.08518 0.40819 0.17142 0.0
O25 O 0.08504 0.40377 0.2434 0.0
O26 O 0.94024 0.40357 0.15 0.0
O27 O 0.98375 0.40959 0.20829 0.0
Co28 Co 0.01997 0.90585 0.84345 0.0
O29 O 0.02151 0.94219 0.84847 0.0
O30 O 0.00483 0.91623 0.9021 0.0
C31 C 0.09142 0.90224 0.80589 0.0
O32 O 0.01624 0.86699 0.84944 0.0
Co33 Co 0.01218 0.88256 0.75161 0.0
O34 O 0.01927 0.85017 0.783 0.0
C35 C 0.92484 0.90674 0.79064 0.0
C36 C 0.00997 0.93943 0.88845 0.0
C37 C 0.01739 0.84783 0.82363 0.0
O38 O 0.94736 0.90771 0.82705 0.0
O39 O 0.94616 0.89971 0.75602 0.0
O40 O 0.09275 0.90417 0.84738 0.0
O41 O 0.04821 0.90495 0.78901 0.0
Co42 Co 0.01033 0.60608 0.84402 0.0
O43 O 0.0082 0.56976 0.84894 0.0
O44 O 0.02887 0.59539 0.90188 0.0
C45 C 0.93649 0.61016 0.8099 0.0
O46 O 0.01476 0.64497 0.84983 0.0
Co47 Co 0.0121 0.62969 0.75208 0.0
O48 O 0.99868 0.66122 0.78444 0.0
C49 C 0.0992 0.60251 0.78524 0.0
C50 C 0.022 0.57227 0.88841 0.0
C51 C 0.00552 0.66388 0.82462 0.0
O52 O 0.08181 0.60371 0.82367 0.0
O53 O 0.07457 0.60923 0.75211 0.0
O54 O 0.93765 0.60807 0.85137 0.0
O55 O 0.9786 0.60731 0.79118 0.0
Co56 Co 0.53222 0.60648 0.6484 0.0
O57 O 0.53615 0.57027 0.64104 0.0
O58 O 0.50399 0.59648 0.5933 0.0
C59 C 0.61097 0.612 0.67125 0.0
O60 O 0.52334 0.64526 0.64516 0.0
Co61 Co 0.5436 0.62841 0.74009 0.0
O62 O 0.54159 0.66145 0.71011 0.0
C63 C 0.44998 0.60382 0.7161 0.0
C64 C 0.51484 0.5733 0.60423 0.0
C65 C 0.52972 0.66419 0.67087 0.0
O66 O 0.46565 0.60219 0.67724 0.0
O67 O 0.47669 0.6122 0.74686 0.0
O68 O 0.601 0.61058 0.63062 0.0
O69 O 0.57415 0.60745 0.69659 0.0
Co70 Co 0.49847 0.90593 0.65069 0.0
O71 O 0.49879 0.94213 0.64331 0.0
O72 O 0.53259 0.91524 0.59763 0.0
C73 C 0.41723 0.90299 0.66779 0.0
O74 O 0.50329 0.86693 0.64845 0.0
Co75 Co 0.47343 0.88472 0.74145 0.0
O76 O 0.47047 0.85216 0.70996 0.0
C77 C 0.57061 0.9084 0.7256 0.0
C78 C 0.52246 0.93865 0.60777 0.0
C79 C 0.48827 0.8485 0.67261 0.0
O80 O 0.56213 0.90832 0.68494 0.0
O81 O 0.53801 0.90213 0.75347 0.0
O82 O 0.43086 0.90386 0.62792 0.0
O83 O 0.45227 0.90631 0.69526 0.0
Co84 Co 0.53318 0.40433 0.34702 0.0
O85 O 0.53335 0.43974 0.36334 0.0
O86 O 0.49841 0.40909 0.40089 0.0
C87 C 0.61451 0.40227 0.33001 0.0
O88 O 0.52748 0.36556 0.34162 0.0
Co89 Co 0.55875 0.38845 0.25363 0.0
O90 O 0.55609 0.35353 0.27701 0.0
C91 C 0.46167 0.4115 0.27253 0.0
C92 C 0.50946 0.43304 0.39757 0.0
C93 C 0.53908 0.34828 0.31407 0.0
O94 O 0.46995 0.40942 0.31306 0.0
O95 O 0.49438 0.40657 0.24402 0.0
O96 O 0.60036 0.40029 0.36964 0.0
O97 O 0.57993 0.40762 0.30296 0.0
Co98 Co 0.5122 0.10605 0.34487 0.0
O99 O 0.51081 0.07072 0.36208 0.0
O100 O 0.53229 0.10252 0.40415 0.0
C101 C 0.43798 0.10616 0.31071 0.0
O102 O 0.51619 0.14491 0.33964 0.0
Co103 Co 0.51148 0.12158 0.24855 0.0
O104 O 0.50319 0.15641 0.27116 0.0
C105 C 0.59977 0.09758 0.2864 0.0
C106 C 0.52551 0.07825 0.39955 0.0
C107 C 0.5098 0.162 0.31047 0.0
O108 O 0.58329 0.10188 0.32449 0.0
O109 O 0.57411 0.1014 0.25254 0.0
O110 O 0.43953 0.10855 0.35216 0.0
O111 O 0.47998 0.10173 0.2927 0.0
H112 H 0.99379 0.30855 0.24108 0.0
H113 H 0.02273 0.3274 0.1081 0.0
H114 H 0.02718 0.28156 0.09086 0.0
H115 H 0.07715 0.25798 0.24866 0.0
H116 H 0.03828 0.23923 0.28334 0.0
H117 H 0.03331 0.27323 0.28381 0.0
H118 H 0.93925 0.26992 0.2674 0.0
H119 H 0.94389 0.23585 0.26698 0.0
H120 H 0.9188 0.25229 0.22124 0.0
H121 H 0.03133 0.2324 0.08964 0.0
H122 H 0.03794 0.18631 0.10528 0.0
H123 H 0.00885 0.20154 0.23935 0.0
C124 C 1.00057 0.30323 0.20813 0.0
C125 C 0.00781 0.32178 0.17596 0.0
C126 C 0.01685 0.31366 0.13337 0.0
C127 C 0.01941 0.28762 0.12327 0.0
C128 C 0.01272 0.2699 0.15606 0.0
C129 C 0.00341 0.27752 0.19761 0.0
C130 C 0.99966 0.25511 0.22768 0.0
C131 C 0.03948 0.25648 0.26293 0.0
C132 C 0.94729 0.25319 0.24695 0.0
C133 C 0.00958 0.23359 0.19693 0.0
C134 C 0.01625 0.24227 0.15557 0.0
C135 C 0.02605 0.2255 0.12195 0.0
C136 C 0.02964 0.19935 0.13107 0.0
C137 C 0.02427 0.19031 0.17356 0.0
C138 C 0.01364 0.2078 0.20657 0.0
H139 H 0.9656 0.80989 0.78734 0.0
H140 H 0.06064 0.82609 0.89569 0.0
H141 H 0.06124 0.78013 0.91436 0.0
H142 H 0.8934 0.75824 0.83761 0.0
H143 H 0.89003 0.74107 0.78781 0.0
H144 H 0.89276 0.77521 0.78749 0.0
H145 H 0.96982 0.77345 0.73787 0.0
H146 H 0.96745 0.73943 0.73814 0.0
H147 H 0.02339 0.75547 0.75439 0.0
H148 H 0.05846 0.73034 0.91432 0.0
H149 H 0.05198 0.6845 0.89618 0.0
H150 H 0.95715 0.70354 0.78879 0.0
C151 C 0.98586 0.80389 0.81554 0.0
C152 C 0.01317 0.82149 0.84003 0.0
C153 C 0.03911 0.8129 0.87671 0.0
C154 C 0.03969 0.78683 0.8874 0.0
C155 C 0.01336 0.76981 0.86153 0.0
C156 C 0.98635 0.77829 0.82669 0.0
C157 C 0.96349 0.75665 0.802 0.0
C158 C 0.90654 0.75787 0.80387 0.0
C159 C 0.98218 0.75624 0.75538 0.0
C160 C 0.9831 0.73441 0.82722 0.0
C161 C 0.0114 0.74207 0.8618 0.0
C162 C 0.03571 0.72428 0.88768 0.0
C163 C 0.03172 0.69826 0.87728 0.0
C164 C 0.00412 0.69037 0.84103 0.0
C165 C 0.97862 0.70882 0.81671 0.0
H166 H 0.48299 0.70062 0.71581 0.0
H167 H 0.55653 0.68755 0.59459 0.0
H168 H 0.54988 0.73365 0.57782 0.0
H169 H 0.3971 0.74989 0.67783 0.0
H170 H 0.40098 0.76688 0.72777 0.0
H171 H 0.40818 0.73293 0.72704 0.0
H172 H 0.49318 0.73741 0.76519 0.0
H173 H 0.48647 0.77131 0.76573 0.0
H174 H 0.54049 0.75714 0.74161 0.0
H175 H 0.54198 0.78339 0.57965 0.0
H176 H 0.52977 0.82889 0.59775 0.0
H177 H 0.45913 0.80649 0.71677 0.0
C178 C 0.49702 0.70735 0.68535 0.0
C179 C 0.52033 0.69058 0.6565 0.0
C180 C 0.53811 0.70009 0.61696 0.0
C181 C 0.53466 0.72625 0.60735 0.0
C182 C 0.5125 0.74243 0.63731 0.0
C183 C 0.49328 0.73305 0.6752 0.0
C184 C 0.47265 0.75388 0.70311 0.0
C185 C 0.41639 0.7507 0.70928 0.0
C186 C 0.49984 0.75499 0.74644 0.0
C187 C 0.48433 0.77674 0.67583 0.0
C188 C 0.50716 0.77007 0.63787 0.0
C189 C 0.52346 0.78864 0.60907 0.0
C190 C 0.51641 0.81448 0.6196 0.0
C191 C 0.49333 0.82151 0.65866 0.0
C192 C 0.4767 0.80211 0.68649 0.0
H193 H 0.52811 0.3093 0.2576 0.0
H194 H 0.53266 0.32533 0.39372 0.0
H195 H 0.52394 0.27929 0.40899 0.0
H196 H 0.4364 0.2593 0.26368 0.0
H197 H 0.46475 0.24134 0.22115 0.0
H198 H 0.4703 0.27536 0.22195 0.0
H199 H 0.5661 0.27136 0.21909 0.0
H200 H 0.56086 0.23735 0.21837 0.0
H201 H 0.59768 0.25265 0.25901 0.0
H202 H 0.51897 0.23002 0.40798 0.0
H203 H 0.51421 0.18412 0.39098 0.0
H204 H 0.51042 0.20241 0.25551 0.0
C205 C 0.52726 0.30325 0.29074 0.0
C206 C 0.53149 0.32099 0.32448 0.0
C207 C 0.52947 0.31213 0.36731 0.0
C208 C 0.52463 0.286 0.37625 0.0
C209 C 0.52115 0.26902 0.34201 0.0
C210 C 0.52187 0.27749 0.30012 0.0
C211 C 0.5173 0.25579 0.26875 0.0
C212 C 0.46933 0.25809 0.24234 0.0
C213 C 0.56322 0.2542 0.23961 0.0
C214 C 0.51489 0.23359 0.2993 0.0
C215 C 0.51712 0.2414 0.34147 0.0
C216 C 0.51683 0.22383 0.37501 0.0
C217 C 0.5142 0.19775 0.36505 0.0
C218 C 0.51172 0.18946 0.3219 0.0
C219 C 0.51189 0.20787 0.2889 0.0
H220 H 0.33961 0.10874 0.33717 0.0
H221 H 0.43391 0.11073 0.22442 0.0
H222 H 0.36072 0.11479 0.17857 0.0
H223 H 0.24501 0.07065 0.29085 0.0
H224 H 0.19389 0.08674 0.31625 0.0
H225 H 0.25385 0.08626 0.34163 0.0
H226 H 0.25377 0.13533 0.34484 0.0
H227 H 0.19373 0.13595 0.31945 0.0
H228 H 0.24474 0.15328 0.29633 0.0
H229 H 0.27926 0.11709 0.144 0.0
H230 H 0.1918 0.1155 0.12195 0.0
H231 H 0.14689 0.11041 0.25524 0.0
C232 C 0.3447 0.11039 0.30289 0.0
C233 C 0.39269 0.10967 0.28453 0.0
C234 C 0.39779 0.11144 0.23945 0.0
C235 C 0.35634 0.11379 0.21297 0.0
C236 C 0.30971 0.11426 0.23183 0.0
C237 C 0.30333 0.11253 0.27564 0.0
C238 C 0.24846 0.11213 0.2869 0.0
C239 C 0.2345 0.08747 0.31028 0.0
C240 C 0.23435 0.13557 0.31346 0.0
C241 C 0.22546 0.11326 0.24249 0.0
C242 C 0.26173 0.1149 0.2114 0.0
C243 C 0.25039 0.11592 0.16798 0.0
C244 C 0.20053 0.11501 0.15579 0.0
C245 C 0.16251 0.1128 0.18682 0.0
C246 C 0.17519 0.11211 0.23081 0.0
H247 H 0.65197 0.40401 0.2485 0.0
H248 H 0.69492 0.39386 0.38136 0.0
H249 H 0.78283 0.39133 0.35947 0.0
H250 H 0.74571 0.36143 0.20268 0.0
H251 H 0.75556 0.38129 0.15647 0.0
H252 H 0.69578 0.3807 0.18228 0.0
H253 H 0.69933 0.42947 0.19161 0.0
H254 H 0.75913 0.43022 0.16603 0.0
H255 H 0.75154 0.44355 0.21875 0.0
H256 H 0.86568 0.3933 0.3242 0.0
H257 H 0.93871 0.39796 0.27767 0.0
H258 H 0.84265 0.40556 0.16685 0.0
C259 C 0.67982 0.40096 0.27294 0.0
C260 C 0.6667 0.39913 0.31667 0.0
C261 C 0.70418 0.39526 0.3477 0.0
C262 C 0.75417 0.39379 0.33557 0.0
C263 C 0.76592 0.39602 0.29227 0.0
C264 C 0.72986 0.39932 0.26136 0.0
C265 C 0.75265 0.40196 0.21718 0.0
C266 C 0.73646 0.38004 0.18793 0.0
C267 C 0.7399 0.42784 0.19724 0.0
C268 C 0.80726 0.40015 0.2282 0.0
C269 C 0.81396 0.39667 0.2717 0.0
C270 C 0.86093 0.3957 0.29003 0.0
C271 C 0.90222 0.39843 0.26327 0.0
C272 C 0.8964 0.40193 0.21856 0.0
C273 C 0.84823 0.40258 0.20082 0.0
H274 H 0.1894 0.90314 0.83062 0.0
H275 H 0.09364 0.89204 0.72049 0.0
H276 H 0.16696 0.8879 0.674 0.0
H277 H 0.27698 0.94151 0.77845 0.0
H278 H 0.33034 0.92872 0.80572 0.0
H279 H 0.27058 0.92823 0.83137 0.0
H280 H 0.27757 0.8796 0.84165 0.0
H281 H 0.33752 0.87996 0.81612 0.0
H282 H 0.28915 0.85965 0.79587 0.0
H283 H 0.24992 0.88831 0.63838 0.0
H284 H 0.33749 0.89303 0.61635 0.0
H285 H 0.37973 0.90389 0.74918 0.0
C286 C 0.18396 0.89938 0.79686 0.0
C287 C 0.13583 0.8978 0.77921 0.0
C288 C 0.13015 0.89326 0.73477 0.0
C289 C 0.17159 0.89082 0.70806 0.0
C290 C 0.21852 0.89292 0.72625 0.0
C291 C 0.22503 0.89698 0.76963 0.0
C292 C 0.27949 0.89994 0.78053 0.0
C293 C 0.28994 0.92616 0.80016 0.0
C294 C 0.29696 0.87851 0.81031 0.0
C295 C 0.30233 0.89749 0.73639 0.0
C296 C 0.26655 0.89322 0.70559 0.0
C297 C 0.27838 0.89138 0.66225 0.0
C298 C 0.32816 0.89414 0.65002 0.0
C299 C 0.36533 0.89874 0.68104 0.0
C300 C 0.35215 0.90017 0.72477 0.0
H301 H 0.64715 0.60664 0.75326 0.0
H302 H 0.68953 0.62858 0.62439 0.0
H303 H 0.77594 0.63419 0.64827 0.0
H304 H 0.73427 0.64947 0.81039 0.0
H305 H 0.74739 0.62639 0.85143 0.0
H306 H 0.68758 0.62672 0.82562 0.0
H307 H 0.69864 0.57954 0.80473 0.0
H308 H 0.75845 0.57908 0.83031 0.0
H309 H 0.75278 0.57006 0.77487 0.0
H310 H 0.85795 0.63353 0.68332 0.0
H311 H 0.93192 0.62691 0.7278 0.0
H312 H 0.83863 0.60569 0.83528 0.0
C313 C 0.6745 0.6131 0.73034 0.0
C314 C 0.66165 0.61727 0.68697 0.0
C315 C 0.69854 0.62531 0.65773 0.0
C316 C 0.7477 0.62863 0.67102 0.0
C317 C 0.7594 0.62391 0.71372 0.0
C318 C 0.72399 0.61642 0.74308 0.0
C319 C 0.74741 0.611 0.78638 0.0
C320 C 0.728 0.6295 0.82047 0.0
C321 C 0.73881 0.58327 0.79984 0.0
C322 C 0.80165 0.61595 0.77634 0.0
C323 C 0.80742 0.62361 0.73429 0.0
C324 C 0.85392 0.6279 0.71646 0.0
C325 C 0.89579 0.62401 0.74205 0.0
C326 C 0.89111 0.61595 0.78514 0.0
C327 C 0.84329 0.61223 0.80266 0.0
H328 H 0.65852 0.90689 0.68107 0.0
H329 H 0.59677 0.92284 0.80655 0.0
H330 H 0.68111 0.92825 0.83558 0.0
H331 H 0.75581 0.86949 0.71721 0.0
H332 H 0.80046 0.88025 0.67829 0.0
H333 H 0.73535 0.88109 0.66585 0.0
H334 H 0.74147 0.92915 0.64923 0.0
H335 H 0.8068 0.92842 0.66142 0.0
H336 H 0.76665 0.95034 0.68895 0.0
H337 H 0.77213 0.92776 0.85274 0.0
H338 H 0.86282 0.92125 0.85634 0.0
H339 H 0.86473 0.90525 0.71989 0.0
C340 C 0.66268 0.91217 0.71437 0.0
C341 C 0.62098 0.91454 0.74144 0.0
C342 C 0.62813 0.9209 0.78513 0.0
C343 C 0.67591 0.92412 0.80194 0.0
C344 C 0.71627 0.92098 0.77469 0.0
C345 C 0.71018 0.91526 0.73178 0.0
C346 C 0.75968 0.91085 0.71019 0.0
C347 C 0.76299 0.88382 0.69183 0.0
C348 C 0.76921 0.93089 0.67539 0.0
C349 C 0.79435 0.91431 0.74789 0.0
C350 C 0.76873 0.92045 0.7847 0.0
C351 C 0.79272 0.92326 0.82399 0.0
C352 C 0.84424 0.91947 0.82574 0.0
C353 C 0.87113 0.91275 0.78846 0.0
C354 C 0.84559 0.91053 0.74902 0.0
H355 H 0.39135 0.61899 0.7834 0.0
H356 H 0.39089 0.57238 0.66887 0.0
H357 H 0.30281 0.5621 0.68123 0.0
H358 H 0.30267 0.58015 0.84711 0.0
H359 H 0.27327 0.60774 0.86981 0.0
H360 H 0.33808 0.6087 0.85564 0.0
H361 H 0.32205 0.64794 0.80765 0.0
H362 H 0.25741 0.64715 0.82178 0.0
H363 H 0.27556 0.6462 0.76626 0.0
H364 H 0.21397 0.56064 0.70069 0.0
H365 H 0.12846 0.5696 0.72422 0.0
H366 H 0.18468 0.61695 0.82668 0.0
C367 C 0.37302 0.60613 0.7615 0.0
C368 C 0.39812 0.59632 0.72531 0.0
C369 C 0.37247 0.5801 0.6968 0.0
C370 C 0.32252 0.574 0.70372 0.0
C371 C 0.29868 0.58426 0.73931 0.0
C372 C 0.32295 0.60002 0.76774 0.0
C373 C 0.28737 0.61052 0.80098 0.0
C374 C 0.30118 0.60121 0.84606 0.0
C375 C 0.28549 0.63967 0.79902 0.0
C376 C 0.23901 0.5988 0.78599 0.0
C377 C 0.24671 0.58342 0.75072 0.0
C378 C 0.20755 0.57222 0.72873 0.0
C379 C 0.15916 0.57742 0.74231 0.0
C380 C 0.15025 0.59361 0.7776 0.0
C381 C 0.1907 0.6039 0.80044 0.0
H382 H 0.6845 0.11294 0.3283 0.0
H383 H 0.6307 0.06378 0.22724 0.0
H384 H 0.71655 0.05524 0.20463 0.0
H385 H 0.77435 0.14205 0.26862 0.0
H386 H 0.82076 0.14449 0.30995 0.0
H387 H 0.75619 0.1431 0.32415 0.0
H388 H 0.77279 0.10415 0.3726 0.0
H389 H 0.83773 0.1056 0.359 0.0
H390 H 0.8034 0.07671 0.3506 0.0
H391 H 0.80501 0.05772 0.18493 0.0
H392 H 0.89278 0.06875 0.17254 0.0
H393 H 0.89164 0.1157 0.2866 0.0
C394 C 0.69111 0.09957 0.30262 0.0
C395 C 0.65115 0.08879 0.27975 0.0
C396 C 0.66092 0.0721 0.24527 0.0
C397 C 0.70955 0.0671 0.23223 0.0
C398 C 0.74815 0.07886 0.25409 0.0
C399 C 0.73975 0.09449 0.28893 0.0
C400 C 0.78771 0.10669 0.30384 0.0
C401 C 0.78453 0.1358 0.30148 0.0
C402 C 0.8012 0.09774 0.34921 0.0
C403 C 0.82373 0.09625 0.27093 0.0
C404 C 0.8001 0.08007 0.24279 0.0
C405 C 0.8243 0.06987 0.20733 0.0
C406 C 0.87403 0.07638 0.20037 0.0
C407 C 0.89914 0.09284 0.22883 0.0
C408 C 0.8737 0.10261 0.26485 0.0
H409 H 0.16786 0.40522 0.27815 0.0
H410 H 0.16877 0.42459 0.14293 0.0
H411 H 0.25933 0.43176 0.1468 0.0
H412 H 0.26369 0.4501 0.31253 0.0
H413 H 0.28968 0.42806 0.35054 0.0
H414 H 0.22447 0.42687 0.33801 0.0
H415 H 0.23288 0.3795 0.31721 0.0
H416 H 0.29796 0.38052 0.32975 0.0
H417 H 0.27792 0.37035 0.27745 0.0
H418 H 0.35038 0.43351 0.1643 0.0
H419 H 0.43496 0.42848 0.19304 0.0
H420 H 0.37392 0.40796 0.31694 0.0
C421 C 0.18674 0.41138 0.24937 0.0
C422 C 0.16098 0.41445 0.21021 0.0
C423 C 0.18757 0.42215 0.1733 0.0
C424 C 0.23897 0.42637 0.17524 0.0
C425 C 0.26314 0.42289 0.21432 0.0
C426 C 0.23784 0.41557 0.2507 0.0
C427 C 0.27275 0.4114 0.28805 0.0
C428 C 0.262 0.43024 0.32443 0.0
C429 C 0.27022 0.38381 0.30402 0.0
C430 C 0.32195 0.41702 0.26683 0.0
C431 C 0.31557 0.42385 0.22441 0.0
C432 C 0.35576 0.42846 0.19757 0.0
C433 C 0.40369 0.4255 0.21422 0.0
C434 C 0.41114 0.41791 0.25734 0.0
C435 C 0.36956 0.41419 0.28411 0.0
H436 H 0.02676 0.02693 0.09832 0.0
H437 H 0.97683 0.08924 0.01832 0.0
H438 H 0.96694 0.05975 0.95762 0.0
H439 H 0.09707 0.99505 0.01926 0.0
H440 H 0.08035 0.96352 0.03624 0.0
H441 H 0.08088 0.98911 0.07436 0.0
H442 H 0.98946 0.97957 0.09404 0.0
H443 H 0.98868 0.95387 0.05603 0.0
H444 H 0.94316 0.97881 0.05241 0.0
H445 H 0.96909 0.02465 0.90422 0.0
H446 H 0.97888 0.98558 0.86188 0.0
H447 H 0.02369 0.94475 0.97613 0.0
C448 C 0.01318 0.03432 0.06816 0.0
C449 C 0.00255 0.06048 0.06313 0.0
C450 C 0.98507 0.06934 0.02307 0.0
C451 C 0.97935 0.05271 0.98836 0.0
C452 C 0.99073 0.02715 0.99422 0.0
C453 C 0.00681 0.01788 0.03318 0.0
C454 C 0.01747 0.9896 0.03043 0.0
C455 C 0.07219 0.98401 0.04068 0.0
C456 C 0.9826 0.97458 0.05999 0.0
C457 C 0.00586 0.98455 0.9836 0.0
C458 C 0.99055 0.00657 0.96344 0.0
C459 C 0.98038 0.00724 0.91977 0.0
C460 C 0.98623 0.98494 0.89596 0.0
C461 C 0.00165 0.96207 0.91572 0.0
C462 C 0.01102 0.96184 0.96031 0.0
H463 H 0.01568 0.56738 0.97696 0.0
H464 H 0.04487 0.5252 0.86041 0.0
H465 H 0.0526 0.48583 0.9022 0.0
H466 H 0.09821 0.53041 0.04759 0.0
H467 H 0.05601 0.5314 0.09232 0.0
H468 H 0.0567 0.55694 0.05394 0.0
H469 H 0.96265 0.55072 0.04082 0.0
H470 H 0.96172 0.52513 0.07901 0.0
H471 H 0.93985 0.51995 0.02518 0.0
H472 H 0.0537 0.45064 0.95514 0.0
H473 H 0.04654 0.42146 0.01652 0.0
H474 H 0.01425 0.4852 0.09989 0.0
C475 C 0.02454 0.54991 0.96048 0.0
C476 C 0.02997 0.54942 0.91538 0.0
C477 C 0.04053 0.52608 0.89486 0.0
C478 C 0.04514 0.50357 0.91834 0.0
C479 C 0.03877 0.50452 0.96251 0.0
C480 C 0.02864 0.52701 0.98354 0.0
C481 C 0.02078 0.52225 0.0311 0.0
C482 C 0.06029 0.53607 0.05781 0.0
C483 C 0.96812 0.52997 0.04482 0.0
C484 C 0.02768 0.49364 0.03323 0.0
C485 C 0.03843 0.48391 0.99327 0.0
C486 C 0.04552 0.45803 0.98668 0.0
C487 C 0.04133 0.44157 0.02179 0.0
C488 C 0.02987 0.45094 0.0631 0.0
C489 C 0.02321 0.47741 0.06877 0.0
H490 H 0.52341 0.48477 0.39638 0.0
H491 H 0.47269 0.42324 0.47765 0.0
H492 H 0.4627 0.45333 0.53763 0.0
H493 H 0.59406 0.51662 0.47401 0.0
H494 H 0.57821 0.54816 0.45645 0.0
H495 H 0.57762 0.52231 0.41887 0.0
H496 H 0.48635 0.53244 0.39952 0.0
H497 H 0.48667 0.55842 0.437 0.0
H498 H 0.4404 0.53389 0.44138 0.0
H499 H 0.46718 0.48889 0.5907 0.0
H500 H 0.48077 0.52807 0.63233 0.0
H501 H 0.52393 0.56765 0.51653 0.0
C502 C 0.5094 0.47769 0.4266 0.0
C503 C 0.49873 0.45158 0.43224 0.0
C504 C 0.48085 0.44311 0.47241 0.0
C505 C 0.47511 0.46008 0.50671 0.0
C506 C 0.48677 0.48558 0.50028 0.0
C507 C 0.50296 0.49445 0.46109 0.0
C508 C 0.51453 0.52264 0.46317 0.0
C509 C 0.56936 0.52772 0.4525 0.0
C510 C 0.47992 0.53774 0.4335 0.0
C511 C 0.50347 0.52813 0.50994 0.0
C512 C 0.48755 0.50641 0.53069 0.0
C513 C 0.47868 0.50609 0.57462 0.0
C514 C 0.48662 0.52842 0.59802 0.0
C515 C 0.50262 0.55093 0.57754 0.0
C516 C 0.51046 0.55086 0.53277 0.0
H517 H 0.51868 0.94343 0.51956 0.0
H518 H 0.55315 0.98436 0.63612 0.0
H519 H 0.56388 0.02377 0.59459 0.0
H520 H 0.60206 0.9801 0.44669 0.0
H521 H 0.55782 0.97967 0.40343 0.0
H522 H 0.55967 0.95386 0.44126 0.0
H523 H 0.46639 0.96056 0.45746 0.0
H524 H 0.46435 0.98651 0.42004 0.0
H525 H 0.44509 0.99131 0.4747 0.0
H526 H 0.56402 0.05945 0.54208 0.0
H527 H 0.55328 0.08917 0.48173 0.0
H528 H 0.5156 0.02614 0.39856 0.0
C529 C 0.53003 0.96055 0.53597 0.0
C530 C 0.53592 0.9608 0.58098 0.0
C531 C 0.54896 0.98374 0.60163 0.0
C532 C 0.55515 0.00623 0.57831 0.0
C533 C 0.54775 1.00562 0.5342 0.0
C534 C 0.53559 0.98341 0.51309 0.0
C535 C 0.52565 0.98859 0.46597 0.0
C536 C 0.56357 0.97473 0.43766 0.0
C537 C 0.4722 0.98131 0.45385 0.0
C538 C 0.53319 0.01714 0.46423 0.0
C539 C 0.5465 0.02649 0.50388 0.0
C540 C 0.55403 0.05233 0.51076 0.0
C541 C 0.54773 0.0691 0.47626 0.0
C542 C 0.53364 0.06008 0.43533 0.0
C543 C 0.52658 0.03367 0.42937 0.0
loop_
_geom_bond_atom_site_label_1
_geom_bond_atom_site_label_2
_geom_bond_distance
_geom_bond_site_symmetry_2
_ccdc_geom_bond_type
Co0 O1 2.216 . S
Co0 O2 2.091 . S
Co0 O4 2.004 . S
Co0 O10 2.021 1_455 S
Co0 O12 2.137 . S
Co0 O13 2.244 . S
O1 Co0 2.216 . S
O1 C8 1.247 . S
O2 Co0 2.091 . S
O2 C8 1.261 . S
C3 O12 1.247 . S
C3 O13 1.272 . S
O4 Co0 2.004 . S
O4 C9 1.259 . S
Co5 O6 2.061 . S
Co5 O11 2.052 1_455 S
Co5 O13 2.135 . S
O6 Co5 2.061 . S
O6 C9 1.235 . S
C7 O10 1.238 . S
C7 O11 1.241 . S
C8 O1 1.247 . S
C8 O2 1.261 . S
C9 O4 1.259 . S
C9 O6 1.235 . S
O10 Co0 2.021 1_655 S
O10 C7 1.238 . S
O11 Co5 2.052 1_655 S
O11 C7 1.241 . S
O12 Co0 2.137 . S
O12 C3 1.247 . S
O13 Co0 2.244 . S
O13 C3 1.272 . S
O13 Co5 2.135 . S
Co14 O15 2.216 . S
Co14 O16 2.091 . S
Co14 O18 2.004 . S
Co14 O24 2.021 . S
Co14 O26 2.137 1_455 S
Co14 O27 2.244 1_455 S
O15 Co14 2.216 . S
O15 C22 1.247 . S
O16 Co14 2.091 . S
O16 C22 1.261 . S
C17 O26 1.247 . S
C17 O27 1.272 . S
O18 Co14 2.004 . S
O18 C23 1.259 . S
Co19 O20 2.061 . S
Co19 O25 2.052 . S
Co19 O27 2.135 1_455 S
O20 Co19 2.061 . S
O20 C23 1.235 . S
C21 O24 1.238 . S
C21 O25 1.241 . S
C22 O15 1.247 . S
C22 O16 1.261 . S
C23 O18 1.259 . S
C23 O20 1.235 . S
O24 Co14 2.021 . S
O24 C21 1.238 . S
O25 Co19 2.052 . S
O25 C21 1.241 . S
O26 Co14 2.137 1_655 S
O26 C17 1.247 . S
O27 Co14 2.244 1_655 S
O27 C17 1.272 . S
O27 Co19 2.135 1_655 S
Co28 O29 2.216 . S
Co28 O30 2.091 . S
Co28 O32 2.004 . S
Co28 O38 2.021 1_455 S
Co28 O40 2.137 . S
Co28 O41 2.244 . S
O29 Co28 2.216 . S
O29 C36 1.247 . S
O30 Co28 2.091 . S
O30 C36 1.261 . S
C31 O40 1.247 . S
C31 O41 1.272 . S
O32 Co28 2.004 . S
O32 C37 1.259 . S
Co33 O34 2.061 . S
Co33 O39 2.052 1_455 S
Co33 O41 2.135 . S
O34 Co33 2.061 . S
O34 C37 1.235 . S
C35 O38 1.238 . S
C35 O39 1.241 . S
C36 O29 1.247 . S
C36 O30 1.261 . S
C37 O32 1.259 . S
C37 O34 1.235 . S
O38 Co28 2.021 1_655 S
O38 C35 1.238 . S
O39 Co33 2.052 1_655 S
O39 C35 1.241 . S
O40 Co28 2.137 . S
O40 C31 1.247 . S
O41 Co28 2.244 . S
O41 C31 1.272 . S
O41 Co33 2.135 . S
Co42 O43 2.216 . S
Co42 O44 2.091 . S
Co42 O46 2.004 . S
Co42 O52 2.021 . S
Co42 O54 2.137 1_455 S
Co42 O55 2.244 1_455 S
O43 Co42 2.216 . S
O43 C50 1.247 . S
O44 Co42 2.091 . S
O44 C50 1.261 . S
C45 O54 1.247 . S
C45 O55 1.272 . S
O46 Co42 2.004 . S
O46 C51 1.259 . S
Co47 O48 2.061 . S
Co47 O53 2.052 . S
Co47 O55 2.135 1_455 S
O48 Co47 2.061 . S
O48 C51 1.235 . S
C49 O52 1.238 . S
C49 O53 1.241 . S
C50 O43 1.247 . S
C50 O44 1.261 . S
C51 O46 1.259 . S
C51 O48 1.235 . S
O52 Co42 2.021 . S
O52 C49 1.238 . S
O53 Co47 2.052 . S
O53 C49 1.241 . S
O54 Co42 2.137 1_655 S
O54 C45 1.247 . S
O55 Co42 2.244 1_655 S
O55 C45 1.272 . S
O55 Co47 2.135 1_655 S
Co56 O57 2.216 . S
Co56 O58 2.091 . S
Co56 O60 2.004 . S
Co56 O66 2.021 . S
Co56 O68 2.137 . S
Co56 O69 2.244 . S
O57 Co56 2.216 . S
O57 C64 1.247 . S
O58 Co56 2.091 . S
O58 C64 1.261 . S
C59 O68 1.247 . S
C59 O69 1.272 . S
O60 Co56 2.004 . S
O60 C65 1.259 . S
Co61 O62 2.061 . S
Co61 O67 2.052 . S
Co61 O69 2.135 . S
O62 Co61 2.061 . S
O62 C65 1.235 . S
C63 O66 1.238 . S
C63 O67 1.241 . S
C64 O57 1.247 . S
C64 O58 1.261 . S
C65 O60 1.259 . S
C65 O62 1.235 . S
O66 Co56 2.021 . S
O66 C63 1.238 . S
O67 Co61 2.052 . S
O67 C63 1.241 . S
O68 Co56 2.137 . S
O68 C59 1.247 . S
O69 Co56 2.244 . S
O69 C59 1.272 . S
O69 Co61 2.135 . S
Co70 O71 2.216 . S
Co70 O72 2.091 . S
Co70 O74 2.004 . S
Co70 O80 2.021 . S
Co70 O82 2.137 . S
Co70 O83 2.244 . S
O71 Co70 2.216 . S
O71 C78 1.247 . S
O72 Co70 2.091 . S
O72 C78 1.261 . S
C73 O82 1.247 . S
C73 O83 1.272 . S
O74 Co70 2.004 . S
O74 C79 1.259 . S
Co75 O76 2.061 . S
Co75 O81 2.052 . S
Co75 O83 2.135 . S
O76 Co75 2.061 . S
O76 C79 1.235 . S
C77 O80 1.238 . S
C77 O81 1.241 . S
C78 O71 1.247 . S
C78 O72 1.261 . S
C79 O74 1.259 . S
C79 O76 1.235 . S
O80 Co70 2.021 . S
O80 C77 1.238 . S
O81 Co75 2.052 . S
O81 C77 1.241 . S
O82 Co70 2.137 . S
O82 C73 1.247 . S
O83 Co70 2.244 . S
O83 C73 1.272 . S
O83 Co75 2.135 . S
Co84 O85 2.216 . S
Co84 O86 2.091 . S
Co84 O88 2.004 . S
Co84 O94 2.021 . S
Co84 O96 2.137 . S
Co84 O97 2.244 . S
O85 Co84 2.216 . S
O85 C92 1.247 . S
O86 Co84 2.091 . S
O86 C92 1.261 . S
C87 O96 1.247 . S
C87 O97 1.272 . S
O88 Co84 2.004 . S
O88 C93 1.259 . S
Co89 O90 2.061 . S
Co89 O95 2.052 . S
Co89 O97 2.135 . S
O90 Co89 2.061 . S
O90 C93 1.235 . S
C91 O94 1.238 . S
C91 O95 1.241 . S
C92 O85 1.247 . S
C92 O86 1.261 . S
C93 O88 1.259 . S
C93 O90 1.235 . S
O94 Co84 2.021 . S
O94 C91 1.238 . S
O95 Co89 2.052 . S
O95 C91 1.241 . S
O96 Co84 2.137 . S
O96 C87 1.247 . S
O97 Co84 2.244 . S
O97 C87 1.272 . S
O97 Co89 2.135 . S
Co98 O99 2.216 . S
Co98 O100 2.091 . S
Co98 O102 2.004 . S
Co98 O108 2.021 . S
Co98 O110 2.137 . S
Co98 O111 2.244 . S
O99 Co98 2.216 . S
O99 C106 1.247 . S
O100 Co98 2.091 . S
O100 C106 1.261 . S
C101 O110 1.247 . S
C101 O111 1.272 . S
O102 Co98 2.004 . S
O102 C107 1.259 . S
Co103 O104 2.061 . S
Co103 O109 2.052 . S
Co103 O111 2.135 . S
O104 Co103 2.061 . S
O104 C107 1.235 . S
C105 O108 1.238 . S
C105 O109 1.241 . S
C106 O99 1.247 . S
C106 O100 1.261 . S
C107 O102 1.259 . S
C107 O104 1.235 . S
O108 Co98 2.021 . S
O108 C105 1.238 . S
O109 Co103 2.052 . S
O109 C105 1.241 . S
O110 Co98 2.137 . S
O110 C101 1.247 . S
O111 Co98 2.244 . S
O111 C101 1.272 . S
O111 Co103 2.135 . S
H112 C124 0.930 1_655 S
H113 C126 0.930 . S
H114 C127 0.930 . S
H115 C131 0.959 . S
H116 C131 0.959 . S
H117 C131 0.961 . S
H118 C132 0.960 . S
H119 C132 0.961 . S
H120 C132 0.959 . S
H121 C135 0.929 . S
H122 C136 0.931 . S
H123 C138 0.930 1_655 S
C124 H112 0.930 1_455 S
C124 C125 1.399 . S
C124 C129 1.399 . S
C125 C124 1.399 . S
C125 C126 1.376 . S
C126 H113 0.930 . S
C126 C125 1.376 . S
C126 C127 1.388 . S
C127 H114 0.930 . S
C127 C126 1.388 . S
C127 C128 1.390 . S
C128 C127 1.390 . S
C128 C129 1.394 . S
C128 C134 1.465 . S
C129 C124 1.399 . S
C129 C128 1.394 . S
C129 C130 1.516 . S
C130 C129 1.516 . S
C130 C131 1.502 1_455 S
C130 C132 1.561 . S
C130 C133 1.526 . S
C131 H115 0.959 . S
C131 H116 0.959 . S
C131 H117 0.961 . S
C131 C130 1.502 1_655 S
C132 H118 0.960 . S
C132 H119 0.961 . S
C132 H120 0.959 . S
C132 C130 1.561 . S
C133 C130 1.526 . S
C133 C134 1.396 . S
C133 C138 1.390 . S
C134 C128 1.465 . S
C134 C133 1.396 . S
C134 C135 1.399 . S
C135 H121 0.929 . S
C135 C134 1.399 . S
C135 C136 1.385 . S
C136 H122 0.931 . S
C136 C135 1.385 . S
C136 C137 1.389 . S
C137 C136 1.389 . S
C137 C138 1.387 . S
C138 H123 0.930 1_455 S
C138 C133 1.390 . S
C138 C137 1.387 . S
H139 C151 0.930 1_655 S
H140 C153 0.930 . S
H141 C154 0.930 . S
H142 C158 0.959 . S
H143 C158 0.959 . S
H144 C158 0.961 . S
H145 C159 0.960 . S
H146 C159 0.961 . S
H147 C159 0.959 . S
H148 C162 0.929 . S
H149 C163 0.931 . S
H150 C165 0.930 1_655 S
C151 H139 0.930 1_455 S
C151 C152 1.399 . S
C151 C156 1.399 . S
C152 C151 1.399 . S
C152 C153 1.376 . S
C153 H140 0.930 . S
C153 C152 1.376 . S
C153 C154 1.388 . S
C154 H141 0.930 . S
C154 C153 1.388 . S
C154 C155 1.390 . S
C155 C154 1.390 . S
C155 C156 1.394 . S
C155 C161 1.465 . S
C156 C151 1.399 . S
C156 C155 1.394 . S
C156 C157 1.516 1_455 S
C157 C156 1.516 1_655 S
C157 C158 1.502 . S
C157 C159 1.561 1_655 S
C157 C160 1.526 1_655 S
C158 H142 0.959 . S
C158 H143 0.959 . S
C158 H144 0.961 . S
C158 C157 1.502 . S
C159 H145 0.960 . S
C159 H146 0.961 . S
C159 H147 0.959 . S
C159 C157 1.561 1_455 S
C160 C157 1.526 1_455 S
C160 C161 1.396 . S
C160 C165 1.390 . S
C161 C155 1.465 . S
C161 C160 1.396 . S
C161 C162 1.399 . S
C162 H148 0.929 . S
C162 C161 1.399 . S
C162 C163 1.385 . S
C163 H149 0.931 . S
C163 C162 1.385 . S
C163 C164 1.389 . S
C164 C163 1.389 . S
C164 C165 1.387 . S
C165 H150 0.930 1_455 S
C165 C160 1.390 . S
C165 C164 1.387 . S
H166 C178 0.930 . S
H167 C180 0.930 . S
H168 C181 0.930 . S
H169 C185 0.959 . S
H170 C185 0.959 . S
H171 C185 0.961 . S
H172 C186 0.960 . S
H173 C186 0.961 . S
H174 C186 0.959 . S
H175 C189 0.929 . S
H176 C190 0.931 . S
H177 C192 0.930 . S
C178 H166 0.930 . S
C178 C179 1.399 . S
C178 C183 1.399 . S
C179 C178 1.399 . S
C179 C180 1.376 . S
C180 H167 0.930 . S
C180 C179 1.376 . S
C180 C181 1.388 . S
C181 H168 0.930 . S
C181 C180 1.388 . S
C181 C182 1.390 . S
C182 C181 1.390 . S
C182 C183 1.394 . S
C182 C188 1.465 . S
C183 C178 1.399 . S
C183 C182 1.394 . S
C183 C184 1.516 . S
C184 C183 1.516 . S
C184 C185 1.502 . S
C184 C186 1.561 . S
C184 C187 1.526 . S
C185 H169 0.959 . S
C185 H170 0.959 . S
C185 H171 0.961 . S
C185 C184 1.502 . S
C186 H172 0.960 . S
C186 H173 0.961 . S
C186 H174 0.959 . S
C186 C184 1.561 . S
C187 C184 1.526 . S
C187 C188 1.396 . S
C187 C192 1.390 . S
C188 C182 1.465 . S
C188 C187 1.396 . S
C188 C189 1.399 . S
C189 H175 0.929 . S
C189 C188 1.399 . S
C189 C190 1.385 . S
C190 H176 0.931 . S
C190 C189 1.385 . S
C190 C191 1.389 . S
C191 C190 1.389 . S
C191 C192 1.387 . S
C192 H177 0.930 . S
C192 C187 1.390 . S
C192 C191 1.387 . S
H193 C205 0.930 . S
H194 C207 0.930 . S
H195 C208 0.930 . S
H196 C212 0.959 . S
H197 C212 0.959 . S
H198 C212 0.961 . S
H199 C213 0.960 . S
H200 C213 0.961 . S
H201 C213 0.959 . S
H202 C216 0.929 . S
H203 C217 0.931 . S
H204 C219 0.930 . S
C205 H193 0.930 . S
C205 C206 1.399 . S
C205 C210 1.399 . S
C206 C205 1.399 . S
C206 C207 1.376 . S
C207 H194 0.930 . S
C207 C206 1.376 . S
C207 C208 1.388 . S
C208 H195 0.930 . S
C208 C207 1.388 . S
C208 C209 1.390 . S
C209 C208 1.390 . S
C209 C210 1.394 . S
C209 C215 1.465 . S
C210 C205 1.399 . S
C210 C209 1.394 . S
C210 C211 1.516 . S
C211 C210 1.516 . S
C211 C212 1.502 . S
C211 C213 1.561 . S
C211 C214 1.526 . S
C212 H196 0.959 . S
C212 H197 0.959 . S
C212 H198 0.961 . S
C212 C211 1.502 . S
C213 H199 0.960 . S
C213 H200 0.961 . S
C213 H201 0.959 . S
C213 C211 1.561 . S
C214 C211 1.526 . S
C214 C215 1.396 . S
C214 C219 1.390 . S
C215 C209 1.465 . S
C215 C214 1.396 . S
C215 C216 1.399 . S
C216 H202 0.929 . S
C216 C215 1.399 . S
C216 C217 1.385 . S
C217 H203 0.931 . S
C217 C216 1.385 . S
C217 C218 1.389 . S
C218 C217 1.389 . S
C218 C219 1.387 . S
C219 H204 0.930 . S
C219 C214 1.390 . S
C219 C218 1.387 . S
H220 C232 0.930 . S
H221 C234 0.930 . S
H222 C235 0.930 . S
H223 C239 0.959 . S
H224 C239 0.959 . S
H225 C239 0.961 . S
H226 C240 0.960 . S
H227 C240 0.961 . S
H228 C240 0.959 . S
H229 C243 0.929 . S
H230 C244 0.931 . S
H231 C246 0.930 . S
C232 H220 0.930 . S
C232 C233 1.399 . S
C232 C237 1.399 . S
C233 C232 1.399 . S
C233 C234 1.376 . S
C234 H221 0.930 . S
C234 C233 1.376 . S
C234 C235 1.388 . S
C235 H222 0.930 . S
C235 C234 1.388 . S
C235 C236 1.390 . S
C236 C235 1.390 . S
C236 C237 1.394 . S
C236 C242 1.465 . S
C237 C232 1.399 . S
C237 C236 1.394 . S
C237 C238 1.516 . S
C238 C237 1.516 . S
C238 C239 1.502 . S
C238 C240 1.561 . S
C238 C241 1.526 . S
C239 H223 0.959 . S
C239 H224 0.959 . S
C239 H225 0.961 . S
C239 C238 1.502 . S
C240 H226 0.960 . S
C240 H227 0.961 . S
C240 H228 0.959 . S
C240 C238 1.561 . S
C241 C238 1.526 . S
C241 C242 1.396 . S
C241 C246 1.390 . S
C242 C236 1.465 . S
C242 C241 1.396 . S
C242 C243 1.399 . S
C243 H229 0.929 . S
C243 C242 1.399 . S
C243 C244 1.385 . S
C244 H230 0.931 . S
C244 C243 1.385 . S
C244 C245 1.389 . S
C245 C244 1.389 . S
C245 C246 1.387 . S
C246 H231 0.930 . S
C246 C241 1.390 . S
C246 C245 1.387 . S
H247 C259 0.930 . S
H248 C261 0.930 . S
H249 C262 0.930 . S
H250 C266 0.959 . S
H251 C266 0.959 . S
H252 C266 0.961 . S
H253 C267 0.960 . S
H254 C267 0.961 . S
H255 C267 0.959 . S
H256 C270 0.929 . S
H257 C271 0.931 . S
H258 C273 0.930 . S
C259 H247 0.930 . S
C259 C260 1.399 . S
C259 C264 1.399 . S
C260 C259 1.399 . S
C260 C261 1.376 . S
C261 H248 0.930 . S
C261 C260 1.376 . S
C261 C262 1.388 . S
C262 H249 0.930 . S
C262 C261 1.388 . S
C262 C263 1.390 . S
C263 C262 1.390 . S
C263 C264 1.394 . S
C263 C269 1.465 . S
C264 C259 1.399 . S
C264 C263 1.394 . S
C264 C265 1.516 . S
C265 C264 1.516 . S
C265 C266 1.502 . S
C265 C267 1.561 . S
C265 C268 1.526 . S
C266 H250 0.959 . S
C266 H251 0.959 . S
C266 H252 0.961 . S
C266 C265 1.502 . S
C267 H253 0.960 . S
C267 H254 0.961 . S
C267 H255 0.959 . S
C267 C265 1.561 . S
C268 C265 1.526 . S
C268 C269 1.396 . S
C268 C273 1.390 . S
C269 C263 1.465 . S
C269 C268 1.396 . S
C269 C270 1.399 . S
C270 H256 0.929 . S
C270 C269 1.399 . S
C270 C271 1.385 . S
C271 H257 0.931 . S
C271 C270 1.385 . S
C271 C272 1.389 . S
C272 C271 1.389 . S
C272 C273 1.387 . S
C273 H258 0.930 . S
C273 C268 1.390 . S
C273 C272 1.387 . S
H274 C286 0.930 . S
H275 C288 0.930 . S
H276 C289 0.930 . S
H277 C293 0.959 . S
H278 C293 0.959 . S
H279 C293 0.961 . S
H280 C294 0.960 . S
H281 C294 0.961 . S
H282 C294 0.959 . S
H283 C297 0.929 . S
H284 C298 0.931 . S
H285 C300 0.930 . S
C286 H274 0.930 . S
C286 C287 1.399 . S
C286 C291 1.399 . S
C287 C286 1.399 . S
C287 C288 1.376 . S
C288 H275 0.930 . S
C288 C287 1.376 . S
C288 C289 1.388 . S
C289 H276 0.930 . S
C289 C288 1.388 . S
C289 C290 1.390 . S
C290 C289 1.390 . S
C290 C291 1.394 . S
C290 C296 1.465 . S
C291 C286 1.399 . S
C291 C290 1.394 . S
C291 C292 1.516 . S
C292 C291 1.516 . S
C292 C293 1.502 . S
C292 C294 1.561 . S
C292 C295 1.526 . S
C293 H277 0.959 . S
C293 H278 0.959 . S
C293 H279 0.961 . S
C293 C292 1.502 . S
C294 H280 0.960 . S
C294 H281 0.961 . S
C294 H282 0.959 . S
C294 C292 1.561 . S
C295 C292 1.526 . S
C295 C296 1.396 . S
C295 C300 1.390 . S
C296 C290 1.465 . S
C296 C295 1.396 . S
C296 C297 1.399 . S
C297 H283 0.929 . S
C297 C296 1.399 . S
C297 C298 1.385 . S
C298 H284 0.931 . S
C298 C297 1.385 . S
C298 C299 1.389 . S
C299 C298 1.389 . S
C299 C300 1.387 . S
C300 H285 0.930 . S
C300 C295 1.390 . S
C300 C299 1.387 . S
H301 C313 0.930 . S
H302 C315 0.930 . S
H303 C316 0.930 . S
H304 C320 0.959 . S
H305 C320 0.959 . S
H306 C320 0.961 . S
H307 C321 0.960 . S
H308 C321 0.961 . S
H309 C321 0.959 . S
H310 C324 0.929 . S
H311 C325 0.931 . S
H312 C327 0.930 . S
C313 H301 0.930 . S
C313 C314 1.399 . S
C313 C318 1.399 . S
C314 C313 1.399 . S
C314 C315 1.376 . S
C315 H302 0.930 . S
C315 C314 1.376 . S
C315 C316 1.388 . S
C316 H303 0.930 . S
C316 C315 1.388 . S
C316 C317 1.390 . S
C317 C316 1.390 . S
C317 C318 1.394 . S
C317 C323 1.465 . S
C318 C313 1.399 . S
C318 C317 1.394 . S
C318 C319 1.516 . S
C319 C318 1.516 . S
C319 C320 1.502 . S
C319 C321 1.561 . S
C319 C322 1.526 . S
C320 H304 0.959 . S
C320 H305 0.959 . S
C320 H306 0.961 . S
C320 C319 1.502 . S
C321 H307 0.960 . S
C321 H308 0.961 . S
C321 H309 0.959 . S
C321 C319 1.561 . S
C322 C319 1.526 . S
C322 C323 1.396 . S
C322 C327 1.390 . S
C323 C317 1.465 . S
C323 C322 1.396 . S
C323 C324 1.399 . S
C324 H310 0.929 . S
C324 C323 1.399 . S
C324 C325 1.385 . S
C325 H311 0.931 . S
C325 C324 1.385 . S
C325 C326 1.389 . S
C326 C325 1.389 . S
C326 C327 1.387 . S
C327 H312 0.930 . S
C327 C322 1.390 . S
C327 C326 1.387 . S
H328 C340 0.930 . S
H329 C342 0.930 . S
H330 C343 0.930 . S
H331 C347 0.959 . S
H332 C347 0.959 . S
H333 C347 0.961 . S
H334 C348 0.960 . S
H335 C348 0.961 . S
H336 C348 0.959 . S
H337 C351 0.929 . S
H338 C352 0.931 . S
H339 C354 0.930 . S
C340 H328 0.930 . S
C340 C341 1.399 . S
C340 C345 1.399 . S
C341 C340 1.399 . S
C341 C342 1.376 . S
C342 H329 0.930 . S
C342 C341 1.376 . S
C342 C343 1.388 . S
C343 H330 0.930 . S
C343 C342 1.388 . S
C343 C344 1.390 . S
C344 C343 1.390 . S
C344 C345 1.394 . S
C344 C350 1.465 . S
C345 C340 1.399 . S
C345 C344 1.394 . S
C345 C346 1.516 . S
C346 C345 1.516 . S
C346 C347 1.502 . S
C346 C348 1.561 . S
C346 C349 1.526 . S
C347 H331 0.959 . S
C347 H332 0.959 . S
C347 H333 0.961 . S
C347 C346 1.502 . S
C348 H334 0.960 . S
C348 H335 0.961 . S
C348 H336 0.959 . S
C348 C346 1.561 . S
C349 C346 1.526 . S
C349 C350 1.396 . S
C349 C354 1.390 . S
C350 C344 1.465 . S
C350 C349 1.396 . S
C350 C351 1.399 . S
C351 H337 0.929 . S
C351 C350 1.399 . S
C351 C352 1.385 . S
C352 H338 0.931 . S
C352 C351 1.385 . S
C352 C353 1.389 . S
C353 C352 1.389 . S
C353 C354 1.387 . S
C354 H339 0.930 . S
C354 C349 1.390 . S
C354 C353 1.387 . S
H355 C367 0.930 . S
H356 C369 0.930 . S
H357 C370 0.930 . S
H358 C374 0.959 . S
H359 C374 0.959 . S
H360 C374 0.961 . S
H361 C375 0.960 . S
H362 C375 0.961 . S
H363 C375 0.959 . S
H364 C378 0.929 . S
H365 C379 0.931 . S
H366 C381 0.930 . S
C367 H355 0.930 . S
C367 C368 1.399 . S
C367 C372 1.399 . S
C368 C367 1.399 . S
C368 C369 1.376 . S
C369 H356 0.930 . S
C369 C368 1.376 . S
C369 C370 1.388 . S
C370 H357 0.930 . S
C370 C369 1.388 . S
C370 C371 1.390 . S
C371 C370 1.390 . S
C371 C372 1.394 . S
C371 C377 1.465 . S
C372 C367 1.399 . S
C372 C371 1.394 . S
C372 C373 1.516 . S
C373 C372 1.516 . S
C373 C374 1.502 . S
C373 C375 1.561 . S
C373 C376 1.526 . S
C374 H358 0.959 . S
C374 H359 0.959 . S
C374 H360 0.961 . S
C374 C373 1.502 . S
C375 H361 0.960 . S
C375 H362 0.961 . S
C375 H363 0.959 . S
C375 C373 1.561 . S
C376 C373 1.526 . S
C376 C377 1.396 . S
C376 C381 1.390 . S
C377 C371 1.465 . S
C377 C376 1.396 . S
C377 C378 1.399 . S
C378 H364 0.929 . S
C378 C377 1.399 . S
C378 C379 1.385 . S
C379 H365 0.931 . S
C379 C378 1.385 . S
C379 C380 1.389 . S
C380 C379 1.389 . S
C380 C381 1.387 . S
C381 H366 0.930 . S
C381 C376 1.390 . S
C381 C380 1.387 . S
H382 C394 0.930 . S
H383 C396 0.930 . S
H384 C397 0.930 . S
H385 C401 0.959 . S
H386 C401 0.959 . S
H387 C401 0.961 . S
H388 C402 0.960 . S
H389 C402 0.961 . S
H390 C402 0.959 . S
H391 C405 0.929 . S
H392 C406 0.931 . S
H393 C408 0.930 . S
C394 H382 0.930 . S
C394 C395 1.399 . S
C394 C399 1.399 . S
C395 C394 1.399 . S
C395 C396 1.376 . S
C396 H383 0.930 . S
C396 C395 1.376 . S
C396 C397 1.388 . S
C397 H384 0.930 . S
C397 C396 1.388 . S
C397 C398 1.390 . S
C398 C397 1.390 . S
C398 C399 1.394 . S
C398 C404 1.465 . S
C399 C394 1.399 . S
C399 C398 1.394 . S
C399 C400 1.516 . S
C400 C399 1.516 . S
C400 C401 1.502 . S
C400 C402 1.561 . S
C400 C403 1.526 . S
C401 H385 0.959 . S
C401 H386 0.959 . S
C401 H387 0.961 . S
C401 C400 1.502 . S
C402 H388 0.960 . S
C402 H389 0.961 . S
C402 H390 0.959 . S
C402 C400 1.561 . S
C403 C400 1.526 . S
C403 C404 1.396 . S
C403 C408 1.390 . S
C404 C398 1.465 . S
C404 C403 1.396 . S
C404 C405 1.399 . S
C405 H391 0.929 . S
C405 C404 1.399 . S
C405 C406 1.385 . S
C406 H392 0.931 . S
C406 C405 1.385 . S
C406 C407 1.389 . S
C407 C406 1.389 . S
C407 C408 1.387 . S
C408 H393 0.930 . S
C408 C403 1.390 . S
C408 C407 1.387 . S
H409 C421 0.930 . S
H410 C423 0.930 . S
H411 C424 0.930 . S
H412 C428 0.959 . S
H413 C428 0.959 . S
H414 C428 0.961 . S
H415 C429 0.960 . S
H416 C429 0.961 . S
H417 C429 0.959 . S
H418 C432 0.929 . S
H419 C433 0.931 . S
H420 C435 0.930 . S
C421 H409 0.930 . S
C421 C422 1.399 . S
C421 C426 1.399 . S
C422 C421 1.399 . S
C422 C423 1.376 . S
C423 H410 0.930 . S
C423 C422 1.376 . S
C423 C424 1.388 . S
C424 H411 0.930 . S
C424 C423 1.388 . S
C424 C425 1.390 . S
C425 C424 1.390 . S
C425 C426 1.394 . S
C425 C431 1.465 . S
C426 C421 1.399 . S
C426 C425 1.394 . S
C426 C427 1.516 . S
C427 C426 1.516 . S
C427 C428 1.502 . S
C427 C429 1.561 . S
C427 C430 1.526 . S
C428 H412 0.959 . S
C428 H413 0.959 . S
C428 H414 0.961 . S
C428 C427 1.502 . S
C429 H415 0.960 . S
C429 H416 0.961 . S
C429 H417 0.959 . S
C429 C427 1.561 . S
C430 C427 1.526 . S
C430 C431 1.396 . S
C430 C435 1.390 . S
C431 C425 1.465 . S
C431 C430 1.396 . S
C431 C432 1.399 . S
C432 H418 0.929 . S
C432 C431 1.399 . S
C432 C433 1.385 . S
C433 H419 0.931 . S
C433 C432 1.385 . S
C433 C434 1.389 . S
C434 C433 1.389 . S
C434 C435 1.387 . S
C435 H420 0.930 . S
C435 C430 1.390 . S
C435 C434 1.387 . S
H436 C448 0.930 . S
H437 C450 0.930 . S
H438 C451 0.930 . S
H439 C455 0.959 . S
H440 C455 0.959 . S
H441 C455 0.961 . S
H442 C456 0.958 1_455 S
H443 C456 0.961 1_455 S
H444 C456 0.959 . S
H445 C459 0.929 1_545 S
H446 C460 0.931 . S
H447 C462 0.930 . S
C448 H436 0.930 . S
C448 C449 1.399 . S
C448 C453 1.399 . S
C449 C448 1.399 . S
C449 C450 1.376 1_455 S
C450 H437 0.930 . S
C450 C449 1.376 1_655 S
C450 C451 1.388 1_554 S
C451 H438 0.930 . S
C451 C450 1.388 1_556 S
C451 C452 1.390 1_556 S
C452 C451 1.390 1_554 S
C452 C453 1.394 1_655 S
C452 C458 1.465 1_544 S
C453 C448 1.399 . S
C453 C452 1.394 1_455 S
C453 C454 1.516 1_545 S
C454 C453 1.516 1_565 S
C454 C455 1.502 . S
C454 C456 1.561 1_455 S
C454 C457 1.526 1_554 S
C455 H439 0.959 . S
C455 H440 0.959 . S
C455 H441 0.961 . S
C455 C454 1.502 . S
C456 H442 0.958 1_655 S
C456 H443 0.961 1_655 S
C456 H444 0.959 . S
C456 C454 1.561 1_655 S
C457 C454 1.526 1_556 S
C457 C458 1.396 1_455 S
C457 C462 1.390 . S
C458 C452 1.465 1_566 S
C458 C457 1.396 1_655 S
C458 C459 1.399 . S
C459 H445 0.929 1_565 S
C459 C458 1.399 . S
C459 C460 1.385 . S
C460 H446 0.931 . S
C460 C459 1.385 . S
C460 C461 1.389 1_655 S
C461 C460 1.389 1_455 S
C461 C462 1.387 . S
C462 H447 0.930 . S
C462 C457 1.390 . S
C462 C461 1.387 . S
H463 C475 0.930 . S
H464 C477 0.930 . S
H465 C478 0.930 . S
H466 C482 0.959 . S
H467 C482 0.959 . S
H468 C482 0.961 . S
H469 C483 0.960 . S
H470 C483 0.961 . S
H471 C483 0.959 1_655 S
H472 C486 0.929 . S
H473 C487 0.931 . S
H474 C489 0.930 . S
C475 H463 0.930 . S
C475 C476 1.399 . S
C475 C480 1.399 . S
C476 C475 1.399 . S
C476 C477 1.376 1_455 S
C477 H464 0.930 . S
C477 C476 1.376 1_655 S
C477 C478 1.388 . S
C478 H465 0.930 . S
C478 C477 1.388 . S
C478 C479 1.390 1_655 S
C479 C478 1.390 1_455 S
C479 C480 1.394 . S
C479 C485 1.465 1_556 S
C480 C475 1.399 . S
C480 C479 1.394 . S
C480 C481 1.516 1_556 S
C481 C480 1.516 1_554 S
C481 C482 1.502 . S
C481 C483 1.561 . S
C481 C484 1.526 . S
C482 H466 0.959 . S
C482 H467 0.959 . S
C482 H468 0.961 . S
C482 C481 1.502 . S
C483 H469 0.960 . S
C483 H470 0.961 . S
C483 H471 0.959 1_455 S
C483 C481 1.561 . S
C484 C481 1.526 . S
C484 C485 1.396 . S
C484 C489 1.390 . S
C485 C479 1.465 1_554 S
C485 C484 1.396 . S
C485 C486 1.399 1_454 S
C486 H472 0.929 . S
C486 C485 1.399 1_656 S
C486 C487 1.385 1_556 S
C487 H473 0.931 . S
C487 C486 1.385 1_554 S
C487 C488 1.389 1_655 S
C488 C487 1.389 1_455 S
C488 C489 1.387 . S
C489 H474 0.930 . S
C489 C484 1.390 . S
C489 C488 1.387 . S
H490 C502 0.930 . S
H491 C504 0.930 . S
H492 C505 0.930 . S
H493 C509 0.959 . S
H494 C509 0.959 . S
H495 C509 0.961 . S
H496 C510 0.960 . S
H497 C510 0.961 . S
H498 C510 0.959 . S
H499 C513 0.929 . S
H500 C514 0.931 . S
H501 C516 0.930 . S
C502 H490 0.930 . S
C502 C503 1.399 . S
C502 C507 1.399 . S
C503 C502 1.399 . S
C503 C504 1.376 . S
C504 H491 0.930 . S
C504 C503 1.376 . S
C504 C505 1.388 . S
C505 H492 0.930 . S
C505 C504 1.388 . S
C505 C506 1.390 . S
C506 C505 1.390 . S
C506 C507 1.394 . S
C506 C512 1.465 . S
C507 C502 1.399 . S
C507 C506 1.394 . S
C507 C508 1.516 . S
C508 C507 1.516 . S
C508 C509 1.502 . S
C508 C510 1.561 . S
C508 C511 1.526 . S
C509 H493 0.959 . S
C509 H494 0.959 . S
C509 H495 0.961 . S
C509 C508 1.502 . S
C510 H496 0.960 . S
C510 H497 0.961 . S
C510 H498 0.959 . S
C510 C508 1.561 . S
C511 C508 1.526 . S
C511 C512 1.396 . S
C511 C516 1.390 . S
C512 C506 1.465 . S
C512 C511 1.396 . S
C512 C513 1.399 . S
C513 H499 0.929 . S
C513 C512 1.399 . S
C513 C514 1.385 . S
C514 H500 0.931 . S
C514 C513 1.385 . S
C514 C515 1.389 . S
C515 C514 1.389 . S
C515 C516 1.387 . S
C516 H501 0.930 . S
C516 C511 1.390 . S
C516 C515 1.387 . S
H517 C529 0.930 . S
H518 C531 0.930 . S
H519 C532 0.930 . S
H520 C536 0.959 1_545 S
H521 C536 0.959 . S
H522 C536 0.961 . S
H523 C537 0.960 . S
H524 C537 0.961 . S
H525 C537 0.959 . S
H526 C540 0.929 . S
H527 C541 0.931 . S
H528 C543 0.930 . S
C529 H517 0.930 . S
C529 C530 1.399 . S
C529 C534 1.399 . S
C530 C529 1.399 . S
C530 C531 1.376 . S
C531 H518 0.930 . S
C531 C530 1.376 . S
C531 C532 1.388 . S
C532 H519 0.930 . S
C532 C531 1.388 . S
C532 C533 1.390 . S
C533 C532 1.390 . S
C533 C534 1.394 . S
C533 C539 1.465 1_565 S
C534 C529 1.399 . S
C534 C533 1.394 . S
C534 C535 1.516 . S
C535 C534 1.516 . S
C535 C536 1.502 . S
C535 C537 1.561 . S
C535 C538 1.526 1_565 S
C536 H520 0.959 1_565 S
C536 H521 0.959 . S
C536 H522 0.961 . S
C536 C535 1.502 . S
C537 H523 0.960 . S
C537 H524 0.961 . S
C537 H525 0.959 . S
C537 C535 1.561 . S
C538 C535 1.526 1_545 S
C538 C539 1.396 . S
C538 C543 1.390 . S
C539 C533 1.465 1_545 S
C539 C538 1.396 . S
C539 C540 1.399 . S
C540 H526 0.929 . S
C540 C539 1.399 . S
C540 C541 1.385 . S
C541 H527 0.931 . S
C541 C540 1.385 . S
C541 C542 1.389 . S
C542 C541 1.389 . S
C542 C543 1.387 . S
C543 H528 0.930 . S
C543 C538 1.390 . S
C543 C542 1.387 . S
C125 C23 1.390 . S
C137 C9 1.383 . S
C152 C37 1.424 . S
C164 C51 1.433 . S
C179 C65 1.427 . S
C191 C79 1.435 . S
C206 C93 1.427 . S
C218 C107 1.435 . S
C233 C101 1.448 . S
C245 C3 1.437 . S
C260 C87 1.417 . S
C272 C17 1.435 . S
C287 C31 1.449 . S
C299 C73 1.434 . S
C314 C59 1.421 . S
C326 C45 1.447 . S
C341 C77 1.331 . S
C353 C35 1.361 . S
C368 C63 1.390 . S
C380 C49 1.366 . S
C395 C105 1.324 . S
C407 C7 1.346 . S
C422 C21 1.389 . S
C434 C91 1.365 . S
C449 C8 1.369 . S
C461 C36 1.372 . S
C476 C50 1.363 . S
C488 C22 1.361 . S
C503 C92 1.363 . S
C515 C64 1.367 . S
C530 C78 1.361 . S
C542 C106 1.360 . S
