# Generated by pormake.
# Topology vbe, (5)-cn, num edge types: 1
# Building blocks:
#     Node 0, Type 0, BuildingBlock: XOMCOT_clean_sbu_0, # of connection points: 5
#     Node 1, Type 0, BuildingBlock: XOMCOT_clean_sbu_0, # of connection points: 5
#     Node 2, Type 0, BuildingBlock: XOMCOT_clean_sbu_0, # of connection points: 5
#     Node 3, Type 0, BuildingBlock: XOMCOT_clean_sbu_0, # of connection points: 5
#     Node 4, Type 0, BuildingBlock: XOMCOT_clean_sbu_0, # of connection points: 5
#     Node 5, Type 0, BuildingBlock: XOMCOT_clean_sbu_0, # of connection points: 5
#     Node 6, Type 0, BuildingBlock: XOMCOT_clean_sbu_0, # of connection points: 5
#     Node 7, Type 0, BuildingBlock: XOMCOT_clean_sbu_0, # of connection points: 5
#     Node 8, Type 0, BuildingBlock: XOMCOT_clean_sbu_0, # of connection points: 5
#     Node 9, Type 0, BuildingBlock: XOMCOT_clean_sbu_0, # of connection points: 5
#     Node 10, Type 0, BuildingBlock: XOMCOT_clean_sbu_0, # of connection points: 5
#     Node 11, Type 0, BuildingBlock: XOMCOT_clean_sbu_0, # of connection points: 5
#     Node 12, Type 0, BuildingBlock: XOMCOT_clean_sbu_0, # of connection points: 5
#     Node 13, Type 0, BuildingBlock: XOMCOT_clean_sbu_0, # of connection points: 5
#     Node 14, Type 0, BuildingBlock: XOMCOT_clean_sbu_0, # of connection points: 5
#     Node 15, Type 0, BuildingBlock: XOMCOT_clean_sbu_0, # of connection points: 5
#     Edge 16, Type (0, 0), BuildingBlock: UVAHIK_clean_linker_0, # of connection points: 2
#     Edge 17, Type (0, 0), BuildingBlock: UVAHIK_clean_linker_0, # of connection points: 2
#     Edge 18, Type (0, 0), BuildingBlock: UVAHIK_clean_linker_0, # of connection points: 2
#     Edge 19, Type (0, 0), BuildingBlock: UVAHIK_clean_linker_0, # of connection points: 2
#     Edge 20, Type (0, 0), BuildingBlock: UVAHIK_clean_linker_0, # of connection points: 2
#     Edge 21, Type (0, 0), BuildingBlock: UVAHIK_clean_linker_0, # of connection points: 2
#     Edge 22, Type (0, 0), BuildingBlock: UVAHIK_clean_linker_0, # of connection points: 2
#     Edge 23, Type (0, 0), BuildingBlock: UVAHIK_clean_linker_0, # of connection points: 2
#     Edge 24, Type (0, 0), BuildingBlock: UVAHIK_clean_linker_0, # of connection points: 2
#     Edge 25, Type (0, 0), BuildingBlock: UVAHIK_clean_linker_0, # of connection points: 2
#     Edge 26, Type (0, 0), BuildingBlock: UVAHIK_clean_linker_0, # of connection points: 2
#     Edge 27, Type (0, 0), BuildingBlock: UVAHIK_clean_linker_0, # of connection points: 2
#     Edge 28, Type (0, 0), BuildingBlock: UVAHIK_clean_linker_0, # of connection points: 2
#     Edge 29, Type (0, 0), BuildingBlock: UVAHIK_clean_linker_0, # of connection points: 2
#     Edge 30, Type (0, 0), BuildingBlock: UVAHIK_clean_linker_0, # of connection points: 2
#     Edge 31, Type (0, 0), BuildingBlock: UVAHIK_clean_linker_0, # of connection points: 2
#     Edge 32, Type (0, 0), BuildingBlock: UVAHIK_clean_linker_0, # of connection points: 2
#     Edge 33, Type (0, 0), BuildingBlock: UVAHIK_clean_linker_0, # of connection points: 2
#     Edge 34, Type (0, 0), BuildingBlock: UVAHIK_clean_linker_0, # of connection points: 2
#     Edge 35, Type (0, 0), BuildingBlock: UVAHIK_clean_linker_0, # of connection points: 2
#     Edge 36, Type (0, 0), BuildingBlock: UVAHIK_clean_linker_0, # of connection points: 2
#     Edge 37, Type (0, 0), BuildingBlock: UVAHIK_clean_linker_0, # of connection points: 2
#     Edge 38, Type (0, 0), BuildingBlock: UVAHIK_clean_linker_0, # of connection points: 2
#     Edge 39, Type (0, 0), BuildingBlock: UVAHIK_clean_linker_0, # of connection points: 2
#     Edge 40, Type (0, 0), BuildingBlock: UVAHIK_clean_linker_0, # of connection points: 2
#     Edge 41, Type (0, 0), BuildingBlock: UVAHIK_clean_linker_0, # of connection points: 2
#     Edge 42, Type (0, 0), BuildingBlock: UVAHIK_clean_linker_0, # of connection points: 2
#     Edge 43, Type (0, 0), BuildingBlock: UVAHIK_clean_linker_0, # of connection points: 2
#     Edge 44, Type (0, 0), BuildingBlock: UVAHIK_clean_linker_0, # of connection points: 2
#     Edge 45, Type (0, 0), BuildingBlock: UVAHIK_clean_linker_0, # of connection points: 2
#     Edge 46, Type (0, 0), BuildingBlock: UVAHIK_clean_linker_0, # of connection points: 2
#     Edge 47, Type (0, 0), BuildingBlock: UVAHIK_clean_linker_0, # of connection points: 2
#     Edge 48, Type (0, 0), BuildingBlock: UVAHIK_clean_linker_0, # of connection points: 2
#     Edge 49, Type (0, 0), BuildingBlock: UVAHIK_clean_linker_0, # of connection points: 2
#     Edge 50, Type (0, 0), BuildingBlock: UVAHIK_clean_linker_0, # of connection points: 2
#     Edge 51, Type (0, 0), BuildingBlock: UVAHIK_clean_linker_0, # of connection points: 2
#     Edge 52, Type (0, 0), BuildingBlock: UVAHIK_clean_linker_0, # of connection points: 2
#     Edge 53, Type (0, 0), BuildingBlock: UVAHIK_clean_linker_0, # of connection points: 2
#     Edge 54, Type (0, 0), BuildingBlock: UVAHIK_clean_linker_0, # of connection points: 2
#     Edge 55, Type (0, 0), BuildingBlock: UVAHIK_clean_linker_0, # of connection points: 2
# Relax obj value: 0.354
# Max RMSD: 0.239
# Mean RMSD: 0.239
data_MOF--net-vbe--node1-XOMCOT_clean_sbu_0--edge1-UVAHIK_clean_linker_0
_symmetry_space_group_name_H-M    P1
_symmetry_Int_Tables_number       1
_symmetry_cell_setting            triclinic
loop_
_symmetry_equiv_pos_as_xyz
'x, y, z'
_cell_length_a     60.819621
_cell_length_b     44.913849
_cell_length_c     67.563043
_cell_angle_alpha  90.024132
_cell_angle_beta   90.003802
_cell_angle_gamma 89.966739
loop_
_atom_site_label
_atom_site_type_symbol
_atom_site_fract_x
_atom_site_fract_y
_atom_site_fract_z
_atom_type_partial_charge
Co0 Co 0.07249 0.09184 0.3634 0.0
C1 C 0.06055 0.05182 0.39662 0.0
C2 C 0.03893 0.04697 0.37187 0.0
C3 C 0.03075 0.03039 0.38726 0.0
N4 N 0.05795 0.05989 0.37754 0.0
N5 N 0.04431 0.03366 0.40287 0.0
H6 H 0.07295 0.06079 0.40628 0.0
H7 H 0.03056 0.05116 0.35803 0.0
C8 C 0.0655 0.04474 0.33274 0.0
O9 O 0.0743 0.02504 0.34475 0.0
N10 N 0.08622 0.12403 0.34927 0.0
C11 C 0.10399 0.13968 0.35502 0.0
C12 C 0.10914 0.15975 0.34033 0.0
C13 C 0.08063 0.13482 0.33138 0.0
N14 N 0.09445 0.15661 0.3255 0.0
C15 C 0.1113 0.06989 0.38251 0.0
C16 C 0.1338 0.0557 0.34826 0.0
C17 C 0.14437 0.05234 0.36653 0.0
C18 C 0.13282 0.05945 0.38382 0.0
C19 C 0.11225 0.06622 0.34763 0.0
N20 N 0.10096 0.07231 0.36466 0.0
H21 H 0.10359 0.07787 0.3958 0.0
H22 H 0.10508 0.07078 0.33334 0.0
H23 H 0.11273 0.13643 0.36879 0.0
H24 H 0.06706 0.12639 0.32267 0.0
O25 O 0.07398 0.11506 0.38747 0.0
O26 O 0.04614 0.11503 0.3662 0.0
O27 O 0.06475 0.0722 0.33762 0.0
C28 C 0.05458 0.1249 0.38263 0.0
H29 H 0.01508 0.01898 0.38746 0.0
H30 H 0.12261 0.17548 0.3406 0.0
H31 H 0.14226 0.05097 0.33451 0.0
H32 H 0.1407 0.05848 0.39818 0.0
Co33 Co 0.43753 0.91052 0.36866 0.0
C34 C 0.45607 0.94972 0.39944 0.0
C35 C 0.47384 0.95335 0.37227 0.0
C36 C 0.48521 0.96857 0.38665 0.0
N37 N 0.45524 0.942 0.38017 0.0
N38 N 0.47401 0.96608 0.40375 0.0
H39 H 0.44553 0.9404 0.41067 0.0
H40 H 0.47996 0.94857 0.35759 0.0
C41 C 0.44366 0.95302 0.33499 0.0
O42 O 0.43711 0.97499 0.34643 0.0
N43 N 0.42065 0.87861 0.35723 0.0
C44 C 0.40403 0.86367 0.36588 0.0
C45 C 0.39697 0.84177 0.35309 0.0
C46 C 0.42349 0.86587 0.33938 0.0
N47 N 0.40919 0.84336 0.33647 0.0
C48 C 0.40285 0.94183 0.38885 0.0
C49 C 0.37794 0.95262 0.35539 0.0
C50 C 0.37009 0.96219 0.3738 0.0
C51 C 0.38273 0.95651 0.39071 0.0
C52 C 0.39804 0.93791 0.35423 0.0
N53 N 0.41066 0.93363 0.37072 0.0
H54 H 0.41157 0.93597 0.40211 0.0
H55 H 0.40311 0.92915 0.34007 0.0
H56 H 0.39758 0.86832 0.38047 0.0
H57 H 0.43603 0.87247 0.3289 0.0
O58 O 0.43681 0.89005 0.39388 0.0
O59 O 0.46246 0.88458 0.37076 0.0
O60 O 0.44395 0.92634 0.3415 0.0
C61 C 0.45496 0.8773 0.38813 0.0
H62 H 0.50125 0.97868 0.38496 0.0
H63 H 0.38376 0.82611 0.3557 0.0
H64 H 0.36824 0.95541 0.34207 0.0
H65 H 0.37695 0.96288 0.40527 0.0
Co66 Co 0.56036 0.90132 0.12183 0.0
C67 C 0.54753 0.94977 0.09367 0.0
C68 C 0.52394 0.94269 0.11673 0.0
C69 C 0.51605 0.96449 0.10439 0.0
N70 N 0.54384 0.93375 0.1102 0.0
N71 N 0.5309 0.96885 0.08988 0.0
H72 H 0.56164 0.94726 0.08423 0.0
H73 H 0.51552 0.93345 0.12942 0.0
C74 C 0.5556 0.94673 0.15372 0.0
O75 O 0.56076 0.96744 0.14079 0.0
N76 N 0.57593 0.86863 0.13376 0.0
C77 C 0.59395 0.85467 0.12681 0.0
C78 C 0.59981 0.83274 0.14006 0.0
C79 C 0.57088 0.85496 0.15089 0.0
N80 N 0.58525 0.83297 0.15514 0.0
C81 C 0.59727 0.92382 0.09999 0.0
C82 C 0.62156 0.94122 0.13253 0.0
C83 C 0.63043 0.94514 0.1136 0.0
C84 C 0.61815 0.93599 0.09718 0.0
C85 C 0.60076 0.92877 0.13466 0.0
N86 N 0.58835 0.92162 0.11848 0.0
H87 H 0.58864 0.91519 0.08728 0.0
H88 H 0.5952 0.92368 0.14942 0.0
H89 H 0.60223 0.86009 0.11312 0.0
H90 H 0.55713 0.86129 0.16015 0.0
O91 O 0.55928 0.87973 0.09709 0.0
O92 O 0.53417 0.8775 0.12088 0.0
O93 O 0.55552 0.91928 0.14872 0.0
C94 C 0.54081 0.86879 0.10352 0.0
H95 H 0.50016 0.97523 0.10548 0.0
H96 H 0.61354 0.81757 0.13858 0.0
H97 H 0.63102 0.9465 0.14566 0.0
H98 H 0.62473 0.93777 0.08233 0.0
Co99 Co 0.92905 0.06384 0.13199 0.0
C100 C 0.94668 0.02427 0.1009 0.0
C101 C 0.96337 0.01795 0.1284 0.0
C102 C 0.97447 0.00241 0.114 0.0
N103 N 0.94555 0.03119 0.12031 0.0
N104 N 0.96401 0.00664 0.09666 0.0
H105 H 0.9369 0.03494 0.08962 0.0
H106 H 0.96929 0.02159 0.14328 0.0
C107 C 0.93295 0.02094 0.16563 0.0
O108 O 0.92639 -0.00062 0.15388 0.0
N109 N 0.91348 0.09692 0.14355 0.0
C110 C 0.89549 0.11051 0.13626 0.0
C111 C 0.88985 0.13348 0.14876 0.0
C112 C 0.91875 0.11185 0.16017 0.0
N113 N 0.90451 0.13431 0.16377 0.0
C114 C 0.89338 0.0352 0.11167 0.0
C115 C 0.8668 0.02923 0.1446 0.0
C116 C 0.85837 0.02177 0.12597 0.0
C117 C 0.87205 0.02436 0.1094 0.0
C118 C 0.88818 0.04001 0.1462 0.0
N119 N 0.90133 0.04262 0.1299 0.0
H120 H 0.90286 0.03944 0.09856 0.0
H121 H 0.89368 0.04781 0.16048 0.0
H122 H 0.88714 0.1042 0.12275 0.0
H123 H 0.93265 0.10625 0.16945 0.0
O124 O 0.92875 0.08428 0.10687 0.0
O125 O 0.9549 0.08819 0.12968 0.0
O126 O 0.93466 0.04758 0.1592 0.0
C127 C 0.94736 0.09592 0.11239 0.0
H128 H 0.98995 0.99087 0.11591 0.0
H129 H 0.87626 0.14875 0.14674 0.0
H130 H 0.85673 0.02774 0.15778 0.0
H131 H 0.86594 0.01973 0.09466 0.0
Co132 Co 0.9289 0.90877 0.63074 0.0
C133 C 0.94954 0.9471 0.60043 0.0
C134 C 0.96815 0.94626 0.62727 0.0
C135 C 0.98018 0.96112 0.61321 0.0
N136 N 0.94862 0.93809 0.61944 0.0
N137 N 0.96851 0.96132 0.5963 0.0
H138 H 0.93762 0.94112 0.58932 0.0
H139 H 0.97421 0.93953 0.64162 0.0
C140 C 0.93838 0.9504 0.6641 0.0
O141 O 0.93249 0.97259 0.65258 0.0
N142 N 0.90986 0.8789 0.64177 0.0
C143 C 0.89233 0.86672 0.63265 0.0
C144 C 0.88387 0.84476 0.64459 0.0
C145 C 0.91183 0.86449 0.65915 0.0
N146 N 0.89612 0.84352 0.66119 0.0
C147 C 0.89522 0.9423 0.61068 0.0
C148 C 0.87115 0.95467 0.64438 0.0
C149 C 0.86234 0.96222 0.62591 0.0
C150 C 0.87481 0.95638 0.60891 0.0
C151 C 0.8914 0.94041 0.64546 0.0
N152 N 0.90347 0.93483 0.62881 0.0
H153 H 0.9035 0.93551 0.59737 0.0
H154 H 0.89672 0.93234 0.65972 0.0
H155 H 0.88634 0.8731 0.61819 0.0
H156 H 0.92481 0.86857 0.66977 0.0
O157 O 0.92699 0.88868 0.60537 0.0
O158 O 0.95207 0.87997 0.62854 0.0
O159 O 0.93654 0.92354 0.65804 0.0
C160 C 0.94416 0.87368 0.61115 0.0
H161 H -0.00299 0.96859 0.61477 0.0
H162 H 0.86985 0.83073 0.64135 0.0
H163 H 0.86207 0.95862 0.65792 0.0
H164 H 0.8683 0.96093 0.5943 0.0
Co165 Co 0.56211 0.08205 0.63376 0.0
C166 C 0.55075 0.03312 0.60621 0.0
C167 C 0.53092 0.03246 0.63236 0.0
C168 C 0.52302 0.01129 0.61951 0.0
N169 N 0.54859 0.04582 0.62416 0.0
N170 N 0.53553 0.01184 0.60307 0.0
H171 H 0.56148 0.04129 0.59476 0.0
H172 H 0.52333 0.03905 0.64616 0.0
C173 C 0.56167 0.04117 0.66892 0.0
O174 O 0.56952 0.01944 0.65796 0.0
N175 N 0.57492 0.11838 0.64343 0.0
C176 C 0.58913 0.13634 0.63387 0.0
C177 C 0.59432 0.15983 0.64615 0.0
C178 C 0.57161 0.13097 0.66123 0.0
N179 N 0.58335 0.15621 0.66334 0.0
C180 C 0.60024 0.06224 0.61241 0.0
C181 C 0.62675 0.05438 0.64519 0.0
C182 C 0.63548 0.04894 0.62636 0.0
C183 C 0.62201 0.05323 0.6098 0.0
C184 C 0.60496 0.06349 0.6471 0.0
N185 N 0.59164 0.06603 0.63091 0.0
H186 H 0.5907 0.06749 0.59946 0.0
H187 H 0.5992 0.0697 0.66162 0.0
H188 H 0.5954 0.13246 0.61912 0.0
H189 H 0.56068 0.12203 0.67236 0.0
O190 O 0.55853 0.10034 0.60797 0.0
O191 O 0.53396 0.10122 0.63223 0.0
O192 O 0.55912 0.06718 0.66166 0.0
C193 C 0.53939 0.1091 0.61438 0.0
H194 H 0.5084 -0.00209 0.62158 0.0
H195 H 0.60562 0.17778 0.64288 0.0
H196 H 0.6369 0.05274 0.65832 0.0
H197 H 0.6283 0.05005 0.59495 0.0
Co198 Co 0.41386 0.09473 0.86571 0.0
C199 C 0.4403 0.07174 0.89926 0.0
C200 C 0.4572 0.06783 0.87164 0.0
C201 C 0.47162 0.06065 0.88651 0.0
N202 N 0.43728 0.07397 0.87952 0.0
N203 N 0.46099 0.0634 0.90387 0.0
H204 H 0.42834 0.07841 0.91015 0.0
H205 H 0.46162 0.07091 0.85628 0.0
C206 C 0.42683 0.04644 0.83763 0.0
O207 O 0.42526 0.02728 0.85226 0.0
N208 N 0.39153 0.11641 0.85163 0.0
C209 C 0.37078 0.12252 0.8572 0.0
C210 C 0.36136 0.14058 0.84302 0.0
C211 C 0.39458 0.13082 0.83443 0.0
N212 N 0.37641 0.14585 0.82871 0.0
C213 C 0.38662 0.05982 0.89163 0.0
C214 C 0.36397 0.03052 0.86201 0.0
C215 C 0.35856 0.02474 0.88178 0.0
C216 C 0.37006 0.03975 0.89671 0.0
C217 C 0.38053 0.05086 0.8576 0.0
N218 N 0.39221 0.06448 0.87232 0.0
H219 H 0.39413 0.07261 0.90324 0.0
H220 H 0.38339 0.05644 0.84228 0.0
H221 H 0.36319 0.11486 0.87075 0.0
H222 H 0.4102 0.13119 0.8268 0.0
O223 O 0.41014 0.12104 0.88817 0.0
O224 O 0.43337 0.12804 0.86324 0.0
O225 O 0.42214 0.07387 0.84042 0.0
C226 C 0.42559 0.13708 0.88015 0.0
H227 H 0.48901 0.05619 0.88479 0.0
H228 H 0.34481 0.14939 0.84345 0.0
H229 H 0.35481 0.02045 0.85 0.0
H230 H 0.36596 0.03653 0.91216 0.0
Co231 Co 0.06506 0.90853 0.86563 0.0
C232 C 0.05492 0.95463 0.89547 0.0
C233 C 0.03906 0.96341 0.86783 0.0
C234 C 0.03101 0.98305 0.88168 0.0
N235 N 0.05439 0.94585 0.87639 0.0
N236 N 0.041 0.97736 0.89905 0.0
H237 H 0.06299 0.94242 0.9071 0.0
H238 H 0.0327 0.96047 0.85302 0.0
C239 C 0.07158 0.95215 0.83236 0.0
O240 O 0.07953 0.97202 0.84472 0.0
N241 N 0.07494 0.87122 0.85483 0.0
C242 C 0.0871 0.85031 0.86401 0.0
C243 C 0.09096 0.82742 0.85088 0.0
C244 C 0.07148 0.86093 0.83639 0.0
N245 N 0.08121 0.83429 0.83353 0.0
C246 C 0.10296 0.91983 0.88987 0.0
C247 C 0.13273 0.92272 0.85905 0.0
C248 C 0.14044 0.9249 0.87852 0.0
C249 C 0.12526 0.92357 0.89406 0.0
C250 C 0.11032 0.91919 0.85553 0.0
N251 N 0.09558 0.91866 0.8708 0.0
H252 H 0.09192 0.91614 0.90204 0.0
H253 H 0.10507 0.9154 0.8405 0.0
H254 H 0.09299 0.85183 0.87909 0.0
H255 H 0.06192 0.8726 0.82534 0.0
O256 O 0.05781 0.88854 0.89019 0.0
O257 O 0.03526 0.89462 0.86469 0.0
O258 O 0.0659 0.92637 0.83842 0.0
C259 C 0.03849 0.88419 0.8824 0.0
H260 H 0.01768 -0.0013 0.87949 0.0
H261 H 0.10064 0.80764 0.8537 0.0
H262 H 0.14396 0.92323 0.84661 0.0
H263 H 0.13066 0.92407 0.90933 0.0
Co264 Co 0.56641 0.58415 0.36546 0.0
C265 C 0.55483 0.54217 0.39769 0.0
C266 C 0.53176 0.54079 0.37381 0.0
C267 C 0.52378 0.52356 0.38899 0.0
N268 N 0.55148 0.55203 0.37908 0.0
N269 N 0.53825 0.52466 0.40407 0.0
H270 H 0.56817 0.54931 0.40697 0.0
H271 H 0.52298 0.54647 0.36041 0.0
C272 C 0.55819 0.53861 0.33396 0.0
O273 O 0.56508 0.51766 0.34605 0.0
N274 N 0.58057 0.6166 0.35192 0.0
C275 C 0.59894 0.63096 0.35762 0.0
C276 C 0.604 0.65202 0.34355 0.0
C277 C 0.5745 0.62921 0.33469 0.0
N278 N 0.58862 0.65086 0.32916 0.0
C279 C 0.60549 0.56158 0.38393 0.0
C280 C 0.62702 0.54689 0.34927 0.0
C281 C 0.63815 0.54385 0.3673 0.0
C282 C 0.62707 0.55116 0.3848 0.0
C283 C 0.60548 0.55743 0.34907 0.0
N284 N 0.59466 0.56385 0.3663 0.0
H285 H 0.59815 0.56968 0.39737 0.0
H286 H 0.59812 0.56219 0.3349 0.0
H287 H 0.6081 0.62624 0.37098 0.0
H288 H 0.56031 0.62227 0.3262 0.0
O289 O 0.56817 0.6063 0.38999 0.0
O290 O 0.54043 0.60799 0.36868 0.0
O291 O 0.55847 0.56591 0.33926 0.0
C292 C 0.54899 0.61704 0.38526 0.0
H293 H 0.50775 0.51313 0.38947 0.0
H294 H 0.61784 0.66715 0.34395 0.0
H295 H 0.63528 0.54278 0.33533 0.0
H296 H 0.63523 0.54976 0.39902 0.0
Co297 Co 0.93182 0.40708 0.35961 0.0
C298 C 0.95012 0.44357 0.39219 0.0
C299 C 0.96958 0.44669 0.36595 0.0
C300 C 0.98075 0.46032 0.38105 0.0
N301 N 0.95 0.43678 0.3727 0.0
N302 N 0.96863 0.45799 0.39764 0.0
H303 H 0.93834 0.435 0.40269 0.0
H304 H 0.97654 0.44174 0.35162 0.0
C305 C 0.9443 0.44738 0.32617 0.0
O306 O 0.93768 0.47042 0.3366 0.0
N307 N 0.91466 0.37677 0.34665 0.0
C308 C 0.89464 0.36679 0.35194 0.0
C309 C 0.88836 0.34495 0.33878 0.0
C310 C 0.92047 0.36078 0.33062 0.0
N311 N 0.90465 0.3412 0.32542 0.0
C312 C 0.89754 0.44358 0.37589 0.0
C313 C 0.8757 0.45262 0.3405 0.0
C314 C 0.86608 0.4628 0.35809 0.0
C315 C 0.87746 0.4586 0.37592 0.0
C316 C 0.8957 0.43758 0.34115 0.0
N317 N 0.9065 0.43337 0.35867 0.0
H318 H 0.90512 0.43861 0.38987 0.0
H319 H 0.90196 0.42801 0.32761 0.0
H320 H 0.88529 0.37487 0.36446 0.0
H321 H 0.93587 0.36369 0.32284 0.0
O322 O 0.92625 0.3877 0.38468 0.0
O323 O 0.95458 0.37851 0.36468 0.0
O324 O 0.94253 0.42105 0.33311 0.0
C325 C 0.94425 0.37299 0.38112 0.0
H326 H -0.00275 0.4692 0.38013 0.0
H327 H 0.87315 0.33249 0.33922 0.0
H328 H 0.86747 0.4553 0.3264 0.0
H329 H 0.87034 0.4653 0.38992 0.0
Co330 Co 0.06206 0.39393 0.11555 0.0
C331 C 0.04394 0.43959 0.08889 0.0
C332 C 0.02404 0.43338 0.11484 0.0
C333 C 0.01439 0.45487 0.10325 0.0
N334 N 0.0425 0.42396 0.10579 0.0
N335 N 0.02697 0.45874 0.08701 0.0
H336 H 0.05681 0.43649 0.07803 0.0
H337 H 0.01796 0.425 0.12881 0.0
C338 C 0.07258 0.41463 0.15676 0.0
O339 O 0.09304 0.40567 0.15482 0.0
N340 N 0.08104 0.36307 0.12612 0.0
C341 C 0.10056 0.35234 0.11981 0.0
C342 C 0.1072 0.32997 0.13245 0.0
C343 C 0.07587 0.3465 0.14208 0.0
N344 N 0.0916 0.32639 0.14641 0.0
C345 C 0.09979 0.4119 0.09325 0.0
C346 C 0.10903 0.46265 0.11475 0.0
C347 C 0.12406 0.45317 0.10031 0.0
C348 C 0.1186 0.42826 0.08879 0.0
C349 C 0.09017 0.44591 0.11839 0.0
N350 N 0.08683 0.41941 0.10894 0.0
H351 H 0.09602 0.39262 0.08434 0.0
H352 H 0.07845 0.45432 0.12897 0.0
H353 H 0.10951 0.35957 0.10695 0.0
H354 H 0.06104 0.34975 0.15068 0.0
O355 O 0.05954 0.37212 0.09099 0.0
O356 O 0.03774 0.3667 0.11707 0.0
O357 O 0.05888 0.41173 0.14259 0.0
C358 C 0.04288 0.35878 0.09914 0.0
H359 H -0.00069 0.4667 0.1065 0.0
H360 H 0.1222 0.31711 0.1313 0.0
H361 H 0.11206 0.48219 0.12372 0.0
H362 H 0.12899 0.421 0.0767 0.0
Co363 Co 0.41714 0.58488 0.13354 0.0
C364 C 0.43443 0.54598 0.10209 0.0
C365 C 0.44996 0.53689 0.12978 0.0
C366 C 0.46129 0.5221 0.11516 0.0
N367 N 0.43272 0.5515 0.12167 0.0
N368 N 0.45164 0.52826 0.09773 0.0
H369 H 0.42488 0.55725 0.09092 0.0
H370 H 0.45568 0.5395 0.1448 0.0
C371 C 0.42036 0.54223 0.16758 0.0
O372 O 0.41172 0.52115 0.15655 0.0
N373 N 0.4026 0.61866 0.14525 0.0
C374 C 0.3867 0.63554 0.13705 0.0
C375 C 0.38185 0.65855 0.14984 0.0
C376 C 0.40721 0.63138 0.16279 0.0
N377 N 0.39472 0.65571 0.16598 0.0
C378 C 0.3813 0.55634 0.11364 0.0
C379 C 0.35368 0.55428 0.14611 0.0
C380 C 0.34578 0.54522 0.12762 0.0
C381 C 0.35993 0.54587 0.11132 0.0
C382 C 0.37534 0.56413 0.14785 0.0
N383 N 0.38893 0.56496 0.13173 0.0
H384 H 0.39115 0.55912 0.10061 0.0
H385 H 0.38088 0.57242 0.16201 0.0
H386 H 0.37934 0.63154 0.12272 0.0
H387 H 0.41986 0.62353 0.17278 0.0
O388 O 0.41707 0.60539 0.1084 0.0
O389 O 0.44355 0.60799 0.13098 0.0
O390 O 0.42287 0.56845 0.16066 0.0
C391 C 0.43607 0.61604 0.11373 0.0
H392 H 0.47682 0.5106 0.11695 0.0
H393 H 0.36977 0.6759 0.14752 0.0
H394 H 0.34307 0.55442 0.15899 0.0
H395 H 0.35416 0.53993 0.09667 0.0
Co396 Co 0.42362 0.41146 0.636 0.0
C397 C 0.44881 0.44028 0.6036 0.0
C398 C 0.46649 0.4401 0.63097 0.0
C399 C 0.48019 0.45076 0.61645 0.0
N400 N 0.44656 0.43427 0.62306 0.0
N401 N 0.46905 0.45062 0.59924 0.0
H402 H 0.4366 0.43535 0.59256 0.0
H403 H 0.4713 0.43501 0.646 0.0
C404 C 0.43552 0.45843 0.6655 0.0
O405 O 0.43415 0.47847 0.65139 0.0
N406 N 0.40159 0.38787 0.6491 0.0
C407 C 0.38084 0.38231 0.64314 0.0
C408 C 0.37123 0.36311 0.6565 0.0
C409 C 0.40449 0.3718 0.66568 0.0
N410 N 0.38622 0.35645 0.67053 0.0
C411 C 0.39452 0.44399 0.61048 0.0
C412 C 0.37112 0.47183 0.64025 0.0
C413 C 0.36437 0.47561 0.62059 0.0
C414 C 0.37644 0.46164 0.60559 0.0
C415 C 0.38924 0.45392 0.64449 0.0
N416 N 0.4011 0.44079 0.62968 0.0
H417 H 0.40219 0.43135 0.59887 0.0
H418 H 0.39278 0.4492 0.65981 0.0
H419 H 0.37335 0.39111 0.62985 0.0
H420 H 0.41978 0.3711 0.67388 0.0
O421 O 0.42119 0.38607 0.61291 0.0
O422 O 0.44409 0.37906 0.63807 0.0
O423 O 0.43089 0.43119 0.66194 0.0
C424 C 0.43677 0.37027 0.62095 0.0
H425 H 0.49744 0.4561 0.61814 0.0
H426 H 0.35482 0.35389 0.65559 0.0
H427 H 0.36169 0.48112 0.65237 0.0
H428 H 0.37148 0.46341 0.59023 0.0
Co429 Co 0.06443 0.58588 0.62584 0.0
C430 C 0.05245 0.53796 0.59765 0.0
C431 C 0.03566 0.53363 0.62531 0.0
C432 C 0.02715 0.51302 0.61239 0.0
N433 N 0.05191 0.54891 0.61624 0.0
N434 N 0.03773 0.51588 0.595 0.0
H435 H 0.06138 0.54804 0.58561 0.0
H436 H 0.02915 0.53866 0.63982 0.0
C437 C 0.06718 0.5454 0.66107 0.0
O438 O 0.07541 0.52423 0.64986 0.0
N439 N 0.076 0.62296 0.63561 0.0
C440 C 0.09013 0.6415 0.62646 0.0
C441 C 0.09449 0.66506 0.63896 0.0
C442 C 0.07184 0.63535 0.65333 0.0
N443 N 0.08306 0.66095 0.65585 0.0
C444 C 0.10282 0.56625 0.60461 0.0
C445 C 0.13061 0.56659 0.63696 0.0
C446 C 0.13936 0.5606 0.61822 0.0
C447 C 0.12514 0.56016 0.60192 0.0
C448 C 0.10825 0.57249 0.63899 0.0
N449 N 0.09446 0.57162 0.62302 0.0
H450 H 0.09265 0.56849 0.59169 0.0
H451 H 0.10233 0.5793 0.65334 0.0
H452 H 0.09702 0.63786 0.6119 0.0
H453 H 0.06075 0.62591 0.66415 0.0
O454 O 0.06045 0.60399 0.60012 0.0
O455 O 0.03571 0.60359 0.62427 0.0
O456 O 0.06239 0.5708 0.65377 0.0
C457 C 0.04109 0.61193 0.60647 0.0
H458 H 0.0133 0.49848 0.61516 0.0
H459 H 0.10565 0.68332 0.63608 0.0
H460 H 0.14104 0.56745 0.64995 0.0
H461 H 0.13138 0.55665 0.58708 0.0
Co462 Co 0.91855 0.59408 0.86023 0.0
C463 C 0.94392 0.57186 0.8947 0.0
C464 C 0.96341 0.57424 0.8684 0.0
C465 C 0.97697 0.56714 0.8839 0.0
N466 N 0.94251 0.57639 0.875 0.0
N467 N 0.9647 0.56587 0.90047 0.0
H468 H 0.93059 0.57569 0.9049 0.0
H469 H 0.96879 0.57951 0.85357 0.0
C470 C 0.93791 0.54971 0.83247 0.0
O471 O 0.93575 0.52957 0.84645 0.0
N472 N 0.89542 0.61282 0.84538 0.0
C473 C 0.87537 0.62079 0.85203 0.0
C474 C 0.86542 0.63827 0.83784 0.0
C475 C 0.89741 0.62513 0.82735 0.0
N476 N 0.87932 0.64074 0.8224 0.0
C477 C 0.89119 0.55464 0.88311 0.0
C478 C 0.87265 0.52659 0.85076 0.0
C479 C 0.86389 0.52111 0.86957 0.0
C480 C 0.87373 0.53484 0.88597 0.0
C481 C 0.88969 0.5469 0.84855 0.0
N482 N 0.89907 0.56041 0.86459 0.0
H483 H 0.89703 0.56705 0.89567 0.0
H484 H 0.89432 0.5531 0.8337 0.0
H485 H 0.86893 0.61552 0.86653 0.0
H486 H 0.91234 0.62445 0.81864 0.0
O487 O 0.9109 0.61806 0.88305 0.0
O488 O 0.93475 0.63072 0.85956 0.0
O489 O 0.93082 0.57621 0.8352 0.0
C490 C 0.92467 0.63747 0.87593 0.0
H491 H 0.99462 0.5644 0.8831 0.0
H492 H 0.8496 0.64919 0.83903 0.0
H493 H 0.86561 0.51655 0.83764 0.0
H494 H 0.86706 0.532 0.90071 0.0
Co495 Co 0.56559 0.40658 0.87168 0.0
C496 C 0.55664 0.45206 0.90195 0.0
C497 C 0.53835 0.46023 0.8755 0.0
C498 C 0.53062 0.47891 0.89006 0.0
N499 N 0.55497 0.44364 0.88286 0.0
N500 N 0.54197 0.47338 0.90677 0.0
H501 H 0.56661 0.4407 0.91272 0.0
H502 H 0.5307 0.45685 0.86124 0.0
C503 C 0.56608 0.44872 0.83698 0.0
O504 O 0.57602 0.46912 0.84768 0.0
N505 N 0.57557 0.36941 0.86068 0.0
C506 C 0.58894 0.34948 0.86948 0.0
C507 C 0.59287 0.32656 0.85641 0.0
C508 C 0.57151 0.35851 0.8425 0.0
N509 N 0.58199 0.33244 0.83946 0.0
C510 C 0.60579 0.4222 0.89146 0.0
C511 C 0.63127 0.42488 0.85768 0.0
C512 C 0.64132 0.42938 0.87611 0.0
C513 C 0.62825 0.42797 0.89316 0.0
C514 C 0.60877 0.41941 0.85666 0.0
N515 N 0.59611 0.41903 0.87336 0.0
H516 H 0.59653 0.41877 0.9048 0.0
H517 H 0.60179 0.41402 0.84242 0.0
H518 H 0.5957 0.35179 0.88421 0.0
H519 H 0.56115 0.36938 0.83169 0.0
O520 O 0.56233 0.38728 0.8972 0.0
O521 O 0.53647 0.39075 0.87414 0.0
O522 O 0.56198 0.4231 0.84426 0.0
C523 C 0.54229 0.38143 0.89158 0.0
H524 H 0.51621 0.49298 0.889 0.0
H525 H 0.60345 0.30755 0.85894 0.0
H526 H 0.64083 0.42442 0.84416 0.0
H527 H 0.63532 0.43078 0.90775 0.0
C528 C 0.94859 0.98584 0.19077 0.0
C529 C 0.94088 0.01435 0.18575 0.0
C530 C 0.95922 0.98113 0.20888 0.0
C531 C 0.9697 0.01592 0.25783 0.0
H532 H 0.02824 0.98231 0.25269 0.0
C533 C 0.04098 0.05608 0.30423 0.0
C534 C 0.05282 0.03494 0.31527 0.0
C535 C 0.02622 0.04703 0.28972 0.0
C536 C 0.01178 0.99118 0.25443 0.0
H537 H 0.93682 0.05972 0.19611 0.0
H538 H 0.95519 0.0516 0.2275 0.0
H539 H 0.00191 0.97712 0.22547 0.0
H540 H 0.05944 0.98775 0.31884 0.0
H541 H 0.03378 0.97197 0.29279 0.0
H542 H 0.98008 0.03171 0.2862 0.0
C543 C 0.9531 0.0328 0.21763 0.0
C544 C 0.99669 0.98814 0.23894 0.0
C545 C 0.94273 0.03755 0.19955 0.0
C546 C 0.05051 0.00455 0.31062 0.0
C547 C 0.03583 0.99549 0.29581 0.0
C548 C 0.9848 0.01915 0.27318 0.0
C549 C 0.96195 0.00476 0.2223 0.0
C550 C 0.97583 0.00161 0.24019 0.0
C551 C 0.02314 0.01669 0.28571 0.0
C552 C 0.00621 0.00785 0.27126 0.0
H553 H 0.9474 0.96757 0.18035 0.0
H554 H 0.9658 0.95927 0.21217 0.0
H555 H 0.95361 0.02601 0.25935 0.0
H556 H 0.04246 0.07968 0.30727 0.0
H557 H 0.0169 0.06379 0.28179 0.0
C558 C 0.54264 0.98438 0.17848 0.0
C559 C 0.54882 0.955 0.17392 0.0
C560 C 0.534 0.99126 0.19711 0.0
C561 C 0.52832 0.96169 0.248 0.0
H562 H 0.4716 0.00134 0.24794 0.0
C563 C 0.46306 0.93552 0.30475 0.0
C564 C 0.45418 0.95922 0.31575 0.0
C565 C 0.47582 0.94104 0.2881 0.0
C566 C 0.48761 0.99078 0.24821 0.0
H567 H 0.5518 0.91012 0.1855 0.0
H568 H 0.53676 0.92202 0.21779 0.0
H569 H 0.49386 0.00068 0.21771 0.0
H570 H 0.4506 0.00727 0.31715 0.0
H571 H 0.47273 0.01682 0.2874 0.0
H572 H 0.52148 0.95024 0.27809 0.0
C573 C 0.53866 0.93983 0.20712 0.0
C574 C 0.50038 0.99045 0.23099 0.0
C575 C 0.5471 0.93294 0.18854 0.0
C576 C 0.4573 0.98856 0.30902 0.0
C577 C 0.46995 0.99407 0.29209 0.0
C578 C 0.51554 0.96184 0.26508 0.0
C579 C 0.53167 0.96892 0.21151 0.0
C580 C 0.52045 0.97486 0.23054 0.0
C581 C 0.4798 0.97032 0.2819 0.0
C582 C 0.49475 0.97539 0.26508 0.0
H583 H 0.54377 0.00183 0.16747 0.0
H584 H 0.52882 0.01388 0.20016 0.0
H585 H 0.54392 0.95005 0.24818 0.0
H586 H 0.46083 0.91262 0.30936 0.0
H587 H 0.48291 0.92236 0.28019 0.0
C588 C 0.96231 0.93277 0.6917 0.0
C589 C 0.95148 0.95636 0.68211 0.0
C590 C 0.97761 0.93846 0.70656 0.0
C591 C 0.99538 0.99018 0.7442 0.0
H592 H 0.05144 0.94993 0.73799 0.0
C593 C 0.05903 0.98937 0.80721 0.0
C594 C 0.06579 0.96032 0.81192 0.0
C595 C 0.04877 0.99518 0.78905 0.0
C596 C 0.03592 0.96141 0.73993 0.0
H597 H 0.94723 0.00434 0.68149 0.0
H598 H 0.97374 0.01415 0.70805 0.0
H599 H 0.02414 0.94722 0.71161 0.0
H600 H 0.06902 0.91525 0.80085 0.0
H601 H 0.05127 0.92518 0.76944 0.0
H602 H 0.00659 0.00288 0.77302 0.0
C603 C 0.97052 0.99135 0.70369 0.0
C604 C 0.02032 0.95983 0.72485 0.0
C605 C 0.95535 0.98569 0.68856 0.0
C606 C 0.06381 0.93781 0.79764 0.0
C607 C 0.05376 0.9436 0.77954 0.0
C608 C 0.01093 0.9915 0.75944 0.0
C609 C 0.98223 0.96779 0.71236 0.0
C610 C -0.00033 0.97335 0.72713 0.0
C611 C 0.04539 0.97208 0.7753 0.0
C612 C 0.03107 0.97622 0.75773 0.0
H613 H 0.95968 0.90989 0.6872 0.0
H614 H 0.98614 0.91988 0.71333 0.0
H615 H 0.97955 0.00081 0.74626 0.0
H616 H 0.06031 0.0071 0.81802 0.0
H617 H 0.04271 0.01742 0.7861 0.0
C618 C 0.54356 0.05866 0.69983 0.0
C619 C 0.5518 0.03492 0.68847 0.0
C620 C 0.53019 0.05321 0.71613 0.0
C621 C 0.51356 0.00673 0.75522 0.0
H622 H 0.45512 0.03855 0.74583 0.0
C623 C 0.4475 0.00969 0.81675 0.0
C624 C 0.43716 0.03754 0.81875 0.0
C625 C 0.45988 0.00313 0.79984 0.0
C626 C 0.47133 0.02953 0.74871 0.0
H627 H 0.554 0.98678 0.68632 0.0
H628 H 0.53075 0.97735 0.71539 0.0
H629 H 0.48229 0.03908 0.71929 0.0
H630 H 0.43073 0.07972 0.80418 0.0
H631 H 0.45236 0.06851 0.77501 0.0
H632 H 0.5031 -0.00109 0.78504 0.0
C633 C 0.53456 8e-05 0.7113 0.0
C634 C 0.48678 0.0297 0.7335 0.0
C635 C 0.54786 0.00553 0.69476 0.0
C636 C 0.43853 0.05807 0.80314 0.0
C637 C 0.45083 0.05153 0.78631 0.0
C638 C 0.49812 0.00686 0.77059 0.0
C639 C 0.52503 0.02396 0.72159 0.0
C640 C 0.50814 0.01907 0.73682 0.0
C641 C 0.46202 0.02424 0.78461 0.0
C642 C 0.47705 0.01916 0.76764 0.0
H643 H 0.54648 0.08157 0.69558 0.0
H644 H 0.52315 0.0719 0.72407 0.0
H645 H 0.53002 -0.00146 0.75802 0.0
H646 H 0.44673 0.99337 0.82852 0.0
H647 H 0.46811 0.98179 0.79886 0.0
C648 C 0.54008 0.50203 0.31111 0.0
C649 C 0.54814 0.53084 0.31478 0.0
C650 C 0.52796 0.49611 0.29393 0.0
C651 C 0.51425 0.52735 0.2446 0.0
H652 H 0.45717 0.49059 0.25246 0.0
C653 C 0.44097 0.55784 0.19763 0.0
C654 C 0.43159 0.53483 0.18634 0.0
C655 C 0.45527 0.55134 0.2131 0.0
C656 C 0.47321 0.50039 0.25002 0.0
H657 H 0.5509 0.57556 0.30292 0.0
H658 H 0.5299 0.56536 0.27321 0.0
H659 H 0.48449 0.48939 0.27917 0.0
H660 H 0.42847 0.48687 0.1835 0.0
H661 H 0.45337 0.47556 0.21115 0.0
H662 H 0.50248 0.53996 0.21597 0.0
C663 C 0.53292 0.54723 0.28342 0.0
C664 C 0.48886 0.49964 0.26521 0.0
C665 C 0.54483 0.55317 0.30056 0.0
C666 C 0.43549 0.50508 0.19189 0.0
C667 C 0.44974 0.49857 0.20762 0.0
C668 C 0.4986 0.52833 0.22958 0.0
C669 C 0.52398 0.51882 0.28007 0.0
C670 C 0.50923 0.51411 0.26288 0.0
C671 C 0.46031 0.52174 0.2178 0.0
C672 C 0.47773 0.51577 0.23243 0.0
H673 H 0.54235 0.48441 0.32186 0.0
H674 H 0.52138 0.47397 0.29166 0.0
H675 H 0.52996 0.53813 0.24222 0.0
H676 H 0.4381 0.581 0.19397 0.0
H677 H 0.46299 0.56954 0.22102 0.0
C678 C 0.9628 0.42692 0.29635 0.0
C679 C 0.9577 0.45163 0.30823 0.0
C680 C 0.97827 0.42929 0.28128 0.0
C681 C 0.02202 0.43468 0.26121 0.0
H682 H 0.02061 0.49649 0.22123 0.0
C683 C 0.07704 0.42601 0.1929 0.0
C684 C 0.06494 0.42857 0.17529 0.0
C685 C 0.06818 0.43624 0.21076 0.0
C686 C 0.02134 0.47925 0.23241 0.0
H687 H 0.96394 0.49865 0.31297 0.0
H688 H 0.99106 0.50284 0.2863 0.0
H689 H 0.99519 0.49889 0.24921 0.0
H690 H 0.03492 0.44596 0.16226 0.0
H691 H 0.01941 0.46308 0.1932 0.0
H692 H 0.0471 0.41396 0.24395 0.0
C693 C 0.98309 0.48162 0.28884 0.0
C694 C 0.00688 0.48073 0.24846 0.0
C695 C 0.96752 0.47924 0.30401 0.0
C696 C 0.04454 0.44325 0.17564 0.0
C697 C 0.03575 0.45348 0.19338 0.0
C698 C 0.03641 0.43317 0.2452 0.0
C699 C 0.98904 0.45641 0.27774 0.0
C700 C 0.00652 0.45779 0.26255 0.0
C701 C 0.04714 0.44931 0.21124 0.0
C702 C 0.03564 0.45481 0.23023 0.0
H703 H 0.95531 0.40542 0.29906 0.0
H704 H 0.98206 0.4097 0.27256 0.0
H705 H 0.02241 0.41705 0.27214 0.0
H706 H 0.09289 0.415 0.19303 0.0
H707 H 0.07743 0.43299 0.22429 0.0
C708 C 0.54554 0.43386 0.8067 0.0
C709 C 0.55595 0.45635 0.81773 0.0
C710 C 0.5324 0.44103 0.79054 0.0
C711 C 0.51988 0.49051 0.75132 0.0
H712 H 0.46009 0.4622 0.75832 0.0
C713 C 0.45624 0.49348 0.68762 0.0
C714 C 0.44529 0.46623 0.68485 0.0
C715 C 0.46809 0.49886 0.70502 0.0
C716 C 0.47668 0.47029 0.75611 0.0
H717 H 0.56206 0.50389 0.81948 0.0
H718 H 0.5392 0.51633 0.79059 0.0
H719 H 0.48613 0.45891 0.78567 0.0
H720 H 0.43722 0.42392 0.69853 0.0
H721 H 0.45788 0.43311 0.72858 0.0
H722 H 0.51086 0.50014 0.72134 0.0
C723 C 0.54114 0.49323 0.79487 0.0
C724 C 0.49151 0.46853 0.77178 0.0
C725 C 0.55421 0.48607 0.81131 0.0
C726 C 0.44551 0.44513 0.70017 0.0
C727 C 0.45726 0.45052 0.71751 0.0
C728 C 0.50505 0.492 0.73548 0.0
C729 C 0.52957 0.47077 0.78486 0.0
C730 C 0.51336 0.47776 0.76932 0.0
C731 C 0.46906 0.47717 0.72 0.0
C732 C 0.4835 0.48092 0.73755 0.0
H733 H 0.54671 0.41071 0.81102 0.0
H734 H 0.52387 0.42333 0.7828 0.0
H735 H 0.53671 0.49766 0.74915 0.0
H736 H 0.45637 0.5102 0.67607 0.0
H737 H 0.47684 0.51972 0.7066 0.0
C738 C 0.95879 0.51409 0.81092 0.0
C739 C 0.95179 0.54329 0.81507 0.0
C740 C 0.97403 0.50873 0.79581 0.0
C741 C 0.01911 0.5449 0.77021 0.0
H742 H 0.00718 0.49315 0.72555 0.0
C743 C 0.05718 0.56342 0.69463 0.0
C744 C 0.06106 0.53942 0.6818 0.0
C745 C 0.04803 0.55868 0.71323 0.0
C746 C 0.01108 0.50707 0.73816 0.0
H747 H 0.95477 0.58962 0.80627 0.0
H748 H 0.98147 0.58021 0.78019 0.0
H749 H 0.98159 0.49446 0.75347 0.0
H750 H 0.0597 0.4914 0.67878 0.0
H751 H 0.04367 0.48301 0.71158 0.0
H752 H 0.04829 0.55804 0.75494 0.0
C753 C 0.97523 0.56155 0.78865 0.0
C754 C 0.99636 0.50791 0.75405 0.0
C755 C 0.9598 0.56687 0.80347 0.0
C756 C 0.05685 0.51032 0.68839 0.0
C757 C 0.04754 0.50554 0.70708 0.0
C758 C 0.03393 0.54381 0.7545 0.0
C759 C 0.98274 0.53255 0.78493 0.0
C760 C -0.00013 0.52771 0.7698 0.0
C761 C 0.04253 0.52979 0.71948 0.0
C762 C 0.0296 0.52584 0.73791 0.0
H763 H 0.95286 0.49548 0.81959 0.0
H764 H 0.97955 0.48616 0.79307 0.0
H765 H 0.02232 0.55994 0.78242 0.0
H766 H 0.06045 0.58608 0.69004 0.0
H767 H 0.04417 0.57793 0.72225 0.0
C768 C 0.0741 0.17695 0.29687 0.0
C769 C 0.09402 0.17251 0.307 0.0
C770 C 0.0737 0.19239 0.27892 0.0
C771 C 0.10873 0.21487 0.23707 0.0
H772 H 0.06396 0.27503 0.22864 0.0
C773 C 0.11191 0.29827 0.17198 0.0
C774 C 0.09193 0.30643 0.16307 0.0
C775 C 0.11208 0.2805 0.18896 0.0
C776 C 0.07638 0.258 0.23061 0.0
H777 H 0.12918 0.18035 0.30604 0.0
H778 H 0.12846 0.20754 0.27481 0.0
H779 H 0.0643 0.2468 0.2594 0.0
H780 H 0.05654 0.30124 0.16441 0.0
H781 H 0.0568 0.26995 0.19384 0.0
H782 H 0.12079 0.226 0.20825 0.0
C783 C 0.11317 0.19897 0.28073 0.0
C784 C 0.07659 0.24187 0.24827 0.0
C785 C 0.11354 0.1837 0.29873 0.0
C786 C 0.07217 0.29577 0.17116 0.0
C787 C 0.07233 0.27789 0.18805 0.0
C788 C 0.10847 0.23091 0.21935 0.0
C789 C 0.09324 0.20355 0.27066 0.0
C790 C 0.09281 0.22022 0.25172 0.0
C791 C 0.09227 0.27037 0.19732 0.0
C792 C 0.09233 0.25274 0.21594 0.0
H793 H 0.05877 0.16883 0.30293 0.0
H794 H 0.05812 0.19538 0.27143 0.0
H795 H 0.12126 0.19804 0.23922 0.0
H796 H 0.12737 0.30643 0.16621 0.0
H797 H 0.12772 0.27545 0.19586 0.0
C798 C 0.39875 0.66291 0.20193 0.0
C799 C 0.39539 0.67489 0.18298 0.0
C800 C 0.39956 0.68151 0.21847 0.0
C801 C 0.41361 0.75605 0.23403 0.0
H802 H 0.37602 0.74101 0.27927 0.0
C803 C 0.41049 0.83688 0.30029 0.0
C804 C 0.40741 0.82481 0.31923 0.0
C805 C 0.40852 0.81893 0.2835 0.0
C806 C 0.38692 0.74529 0.26693 0.0
H807 H 0.39051 0.71553 0.16633 0.0
H808 H 0.39244 0.7483 0.19532 0.0
H809 H 0.37381 0.70867 0.25035 0.0
H810 H 0.40041 0.78457 0.33563 0.0
H811 H 0.39785 0.75281 0.30647 0.0
H812 H 0.42742 0.79185 0.25069 0.0
C813 C 0.39419 0.72449 0.19733 0.0
C814 C 0.38551 0.72685 0.25034 0.0
C815 C 0.39295 0.70581 0.18082 0.0
C816 C 0.40256 0.79443 0.32114 0.0
C817 C 0.40099 0.77632 0.30439 0.0
C818 C 0.41533 0.77418 0.25076 0.0
C819 C 0.39744 0.71245 0.21628 0.0
C820 C 0.3988 0.73213 0.23375 0.0
C821 C 0.40383 0.78835 0.28532 0.0
C822 C 0.40198 0.76908 0.26744 0.0
H823 H 0.40053 0.63911 0.20394 0.0
H824 H 0.40218 0.67178 0.23295 0.0
H825 H 0.4242 0.76032 0.22145 0.0
H826 H 0.41398 0.86036 0.29847 0.0
H827 H 0.41038 0.82918 0.2691 0.0
C828 C 0.56756 0.67563 0.30255 0.0
C829 C 0.58781 0.66855 0.31141 0.0
C830 C 0.56683 0.69298 0.28538 0.0
C831 C 0.60013 0.71597 0.24269 0.0
H832 H 0.55919 0.78197 0.23926 0.0
C833 C 0.60497 0.80271 0.17997 0.0
C834 C 0.58517 0.81394 0.17229 0.0
C835 C 0.60493 0.78455 0.19676 0.0
C836 C 0.5705 0.76337 0.23983 0.0
H837 H 0.62314 0.67363 0.30901 0.0
H838 H 0.62187 0.70393 0.27907 0.0
H839 H 0.55956 0.75071 0.26877 0.0
H840 H 0.54978 0.81442 0.17593 0.0
H841 H 0.54962 0.78233 0.20501 0.0
H842 H 0.61095 0.72828 0.21372 0.0
C843 C 0.60658 0.69607 0.28541 0.0
C844 C 0.57073 0.74551 0.25677 0.0
C845 C 0.6073 0.67898 0.30266 0.0
C846 C 0.56532 0.80646 0.18168 0.0
C847 C 0.56525 0.7881 0.19837 0.0
C848 C 0.59979 0.73366 0.22569 0.0
C849 C 0.58634 0.70332 0.27661 0.0
C850 C 0.58565 0.72175 0.25842 0.0
C851 C 0.58507 0.77698 0.20617 0.0
C852 C 0.58507 0.75771 0.22409 0.0
H853 H 0.55228 0.66811 0.30904 0.0
H854 H 0.551 0.69807 0.27885 0.0
H855 H 0.6116 0.69754 0.24344 0.0
H856 H 0.62054 0.80845 0.17324 0.0
H857 H 0.62054 0.77687 0.20254 0.0
C858 C 0.88534 0.31146 0.30001 0.0
C859 C 0.90503 0.32066 0.30903 0.0
C860 C 0.88568 0.2916 0.28409 0.0
C861 C 0.91971 0.23387 0.26049 0.0
H862 H 0.88202 0.24794 0.21516 0.0
C863 C 0.92483 0.16248 0.18939 0.0
C864 C 0.90492 0.15505 0.18005 0.0
C865 C 0.9252 0.1829 0.20501 0.0
C866 C 0.89246 0.24348 0.2278 0.0
H867 H 0.9405 0.3159 0.30851 0.0
H868 H 0.94111 0.28138 0.28061 0.0
H869 H 0.88196 0.28316 0.24261 0.0
H870 H 0.86973 0.16274 0.18014 0.0
H871 H 0.87032 0.1981 0.20746 0.0
H872 H 0.93006 0.19404 0.2458 0.0
C873 C 0.9254 0.28948 0.28593 0.0
C874 C 0.89244 0.2637 0.24352 0.0
C875 C 0.92507 0.30949 0.30178 0.0
C876 C 0.88538 0.16835 0.18678 0.0
C877 C 0.88573 0.18866 0.20244 0.0
C878 C 0.91967 0.21357 0.2448 0.0
C879 C 0.90571 0.28035 0.27689 0.0
C880 C 0.90601 0.25908 0.26006 0.0
C881 C 0.90566 0.19628 0.21171 0.0
C882 C 0.90598 0.21808 0.22829 0.0
H883 H 0.86966 0.31988 0.3051 0.0
H884 H 0.87022 0.28478 0.27757 0.0
H885 H 0.93015 0.22951 0.27315 0.0
H886 H 0.9402 0.15296 0.18438 0.0
H887 H 0.94088 0.18857 0.21161 0.0
C888 C 0.88373 0.64976 0.78682 0.0
C889 C 0.87721 0.65983 0.80553 0.0
C890 C 0.88378 0.66913 0.77068 0.0
C891 C 0.86554 0.7449 0.75436 0.0
H892 H 0.91255 0.73426 0.71619 0.0
C893 C 0.89582 0.83275 0.69692 0.0
C894 C 0.89344 0.82306 0.67728 0.0
C895 C 0.8927 0.81286 0.71257 0.0
C896 C 0.89934 0.73735 0.72676 0.0
H897 H 0.8655 0.69764 0.8223 0.0
H898 H 0.86652 0.73208 0.79443 0.0
H899 H 0.90889 0.69931 0.74353 0.0
H900 H 0.88645 0.78524 0.65844 0.0
H901 H 0.88176 0.75009 0.68588 0.0
H902 H 0.85689 0.784 0.73782 0.0
C903 C 0.87084 0.70902 0.79184 0.0
C904 C 0.89704 0.71721 0.74232 0.0
C905 C 0.87029 0.6894 0.80786 0.0
C906 C 0.88819 0.79317 0.6735 0.0
C907 C 0.8856 0.77315 0.6891 0.0
C908 C 0.86819 0.76543 0.73901 0.0
C909 C 0.87788 0.69925 0.77307 0.0
C910 C 0.88003 0.72058 0.75631 0.0
C911 C 0.8877 0.78292 0.70871 0.0
C912 C 0.88505 0.76166 0.7251 0.0
H913 H 0.88897 0.62692 0.78477 0.0
H914 H 0.8887 0.66048 0.75639 0.0
H915 H 0.85203 0.74802 0.76458 0.0
H916 H 0.89973 0.85577 0.70011 0.0
H917 H 0.89447 0.8207 0.72765 0.0
C918 C 0.58132 0.32959 0.80301 0.0
C919 C 0.5825 0.31534 0.82148 0.0
C920 C 0.5823 0.31306 0.78553 0.0
C921 C 0.59886 0.23903 0.76616 0.0
H922 H 0.56238 0.26155 0.72151 0.0
C923 C 0.58261 0.16205 0.69957 0.0
C924 C 0.58442 0.17474 0.68065 0.0
C925 C 0.58345 0.17992 0.71644 0.0
C926 C 0.57282 0.25522 0.7338 0.0
H927 H 0.58518 0.27269 0.83619 0.0
H928 H 0.58632 0.24364 0.80572 0.0
H929 H 0.56129 0.29117 0.75175 0.0
H930 H 0.58844 0.21599 0.66447 0.0
H931 H 0.58969 0.24747 0.69408 0.0
H932 H 0.60986 0.20255 0.74829 0.0
C933 C 0.58525 0.26765 0.80467 0.0
C934 C 0.57225 0.27219 0.75112 0.0
C935 C 0.58451 0.28423 0.82214 0.0
C936 C 0.58714 0.20568 0.6789 0.0
C937 C 0.58769 0.22365 0.69579 0.0
C938 C 0.59923 0.2219 0.74893 0.0
C939 C 0.58426 0.28187 0.78614 0.0
C940 C 0.58519 0.26422 0.76755 0.0
C941 C 0.58588 0.21089 0.7147 0.0
C942 C 0.58614 0.22976 0.73263 0.0
H943 H 0.58012 0.35359 0.80207 0.0
H944 H 0.58188 0.32481 0.77154 0.0
H945 H 0.60939 0.23259 0.77835 0.0
H946 H 0.58074 0.13823 0.70134 0.0
H947 H 0.58185 0.16957 0.73084 0.0
C948 C 0.40157 0.31751 0.6921 0.0
C949 C 0.38382 0.3356 0.68651 0.0
C950 C 0.39932 0.29701 0.70746 0.0
C951 C 0.35754 0.25729 0.73784 0.0
H952 H 0.40819 0.24193 0.77119 0.0
C953 C 0.35791 0.1873 0.81091 0.0
C954 C 0.37449 0.16541 0.81182 0.0
C955 C 0.35734 0.20777 0.7953 0.0
C956 C 0.39395 0.24597 0.76193 0.0
H957 H 0.34988 0.34673 0.6926 0.0
H958 H 0.34605 0.31163 0.72003 0.0
H959 H 0.41061 0.27937 0.74528 0.0
H960 H 0.40254 0.14693 0.79606 0.0
H961 H 0.40194 0.18326 0.76947 0.0
H962 H 0.34081 0.22422 0.75517 0.0
C963 C 0.36157 0.31264 0.71221 0.0
C964 C 0.39534 0.26727 0.74699 0.0
C965 C 0.36375 0.33284 0.69658 0.0
C966 C 0.38992 0.16388 0.79631 0.0
C967 C 0.38953 0.18458 0.78095 0.0
C968 C 0.35605 0.23628 0.75307 0.0
C969 C 0.37936 0.29446 0.71787 0.0
C970 C 0.37729 0.27289 0.7345 0.0
C971 C 0.37348 0.20696 0.78048 0.0
C972 C 0.37438 0.23015 0.765 0.0
H973 H 0.41709 0.3188 0.6843 0.0
H974 H 0.41321 0.28289 0.71097 0.0
H975 H 0.34337 0.26074 0.72841 0.0
H976 H 0.34578 0.18936 0.82252 0.0
H977 H 0.34481 0.22492 0.79522 0.0
C978 C 0.08635 0.71005 0.67207 0.0
C979 C 0.08352 0.67908 0.67339 0.0
C980 C 0.08657 0.72757 0.68918 0.0
C981 C 0.09698 0.72395 0.74256 0.0
H982 H 0.06084 0.79496 0.74538 0.0
C983 C 0.08274 0.78612 0.81601 0.0
C984 C 0.08173 0.81733 0.81547 0.0
C985 C 0.08327 0.76968 0.79846 0.0
C986 C 0.07129 0.77546 0.74476 0.0
H987 H 0.07923 0.64207 0.69362 0.0
H988 H 0.07964 0.67262 0.72347 0.0
H989 H 0.06172 0.76582 0.71491 0.0
H990 H 0.08096 0.85586 0.79619 0.0
H991 H 0.0823 0.82729 0.76556 0.0
H992 H 0.10683 0.73362 0.77223 0.0
C993 C 0.08162 0.68336 0.70922 0.0
C994 C 0.07174 0.75876 0.72731 0.0
C995 C 0.08116 0.66593 0.69214 0.0
C996 C 0.08137 0.8318 0.79704 0.0
C997 C 0.08211 0.81539 0.7795 0.0
C998 C 0.0967 0.74077 0.75994 0.0
C999 C 0.08426 0.71434 0.70792 0.0
C1000 C 0.08445 0.73273 0.72611 0.0
C1001 C 0.08303 0.78412 0.77998 0.0
C1002 C 0.08372 0.76661 0.76131 0.0
H1003 H 0.08808 0.72073 0.6578 0.0
H1004 H 0.08875 0.75141 0.68779 0.0
H1005 H 0.10716 0.70416 0.74193 0.0
H1006 H 0.08274 0.7744 0.83 0.0
H1007 H 0.08355 0.74561 0.79941 0.0
C1008 C 0.02712 -0.00102 0.42653 0.0
C1009 C 0.04 0.02433 0.42285 0.0
C1010 C 0.02132 0.99133 0.44584 0.0
C1011 C 0.01378 0.02539 0.49472 0.0
H1012 H 0.01062 0.94348 0.51261 0.0
C1013 C 0.9917 0.99281 0.57498 0.0
C1014 C 0.97665 0.96935 0.57707 0.0
C1015 C 0.00053 -0.0004 0.55646 0.0
C1016 C 0.0113 0.96644 0.50775 0.0
H1017 H 0.05727 0.06119 0.43672 0.0
H1018 H 0.04767 0.04734 0.47034 0.0
H1019 H 0.02505 0.95443 0.47971 0.0
H1020 H 0.9592 0.93434 0.56145 0.0
H1021 H 0.97427 0.94653 0.52911 0.0
H1022 H -9e-05 0.03736 0.52272 0.0
C1023 C 0.0418 0.03363 0.45826 0.0
C1024 C 0.01954 0.97269 0.48894 0.0
C1025 C 0.04755 0.04132 0.43896 0.0
C1026 C 0.97046 0.9529 0.56028 0.0
C1027 C 0.97934 0.95957 0.54181 0.0
C1028 C 0.0056 0.01913 0.51354 0.0
C1029 C 0.02831 0.00887 0.46187 0.0
C1030 C 0.02069 0.00221 0.48218 0.0
C1031 C 0.99455 0.98286 0.53974 0.0
C1032 C 0.00408 0.98959 0.52014 0.0
H1033 H 0.02127 0.9853 0.41444 0.0
H1034 H 0.01076 0.97223 0.44815 0.0
H1035 H 0.01413 0.04833 0.4898 0.0
H1036 H 0.99667 0.00585 0.5877 0.0
H1037 H 0.01232 0.01757 0.55528 0.0
C1038 C 0.50431 0.97163 0.42781 0.0
C1039 C 0.48174 0.97258 0.42337 0.0
C1040 C 0.51146 0.97374 0.44739 0.0
C1041 C 0.49214 0.9598 0.49783 0.0
H1042 H 0.54122 0.0094 0.51368 0.0
C1043 C 0.50891 0.99406 0.57827 0.0
C1044 C 0.53077 -0.00161 0.58428 0.0
C1045 C 0.50418 0.98614 0.55878 0.0
C1046 C 0.52777 0.99496 0.50943 0.0
H1047 H 0.44913 0.97839 0.43569 0.0
H1048 H 0.46162 0.98212 0.4699 0.0
H1049 H 0.53047 0.00741 0.47895 0.0
H1050 H 0.56485 0.99539 0.57524 0.0
H1051 H 0.55663 0.98117 0.54114 0.0
H1052 H 0.48927 0.94756 0.52831 0.0
C1053 C 0.47371 0.97909 0.4583 0.0
C1054 C 0.52156 0.99397 0.48957 0.0
C1055 C 0.46658 0.97709 0.43875 0.0
C1056 C 0.54785 0.99264 0.57084 0.0
C1057 C 0.54314 0.98462 0.55136 0.0
C1058 C 0.4984 0.96068 0.51767 0.0
C1059 C 0.49616 0.97678 0.46283 0.0
C1060 C 0.50347 0.97678 0.48366 0.0
C1061 C 0.52124 0.98228 0.54497 0.0
C1062 C 0.51606 0.97863 0.52372 0.0
H1063 H 0.51638 0.96782 0.41633 0.0
H1064 H 0.52887 0.9718 0.45052 0.0
H1065 H 0.47839 0.94588 0.49357 0.0
H1066 H 0.49539 -0.00137 0.58823 0.0
H1067 H 0.48712 0.98479 0.55427 0.0
C1068 C 0.46246 0.07897 0.93892 0.0
C1069 C 0.47057 0.06149 0.92327 0.0
C1070 C 0.4715 0.07652 0.95783 0.0
C1071 C 0.51971 0.04786 0.98529 0.0
H1072 H 0.47768 0.03603 0.02771 0.0
C1073 C 0.53805 0.97944 0.05465 0.0
C1074 C 0.52823 0.9874 0.07271 0.0
C1075 C 0.53364 0.99565 0.03753 0.0
C1076 C 0.48969 0.03998 0.01617 0.0
H1077 H 0.49469 0.02823 0.91504 0.0
H1078 H 0.5104 0.02373 0.94808 0.0
H1079 H 0.46475 0.05125 0.99521 0.0
H1080 H 0.5073 0.01979 0.08725 0.0
H1081 H 0.49944 0.04809 0.05722 0.0
H1082 H 0.54457 0.03542 0.00614 0.0
C1083 C 0.49728 0.03965 0.94568 0.0
C1084 C 0.48227 0.04866 -0.00248 0.0
C1085 C 0.48824 0.0421 0.92679 0.0
C1086 C 0.51474 0.01279 0.07347 0.0
C1087 C 0.51031 0.02903 0.05631 0.0
C1088 C 0.52715 0.03919 0.00395 0.0
C1089 C 0.48885 0.05661 0.96143 0.0
C1090 C 0.49714 0.05182 0.98176 0.0
C1091 C 0.51932 0.02019 0.03809 0.0
C1092 C 0.51212 0.03431 0.01941 0.0
H1093 H 0.44923 0.09468 0.93658 0.0
H1094 H 0.46487 0.09012 0.96965 0.0
H1095 H 0.53157 0.05067 0.97347 0.0
H1096 H 0.54829 0.95982 0.05346 0.0
H1097 H 0.54055 0.98798 0.02365 0.0
C1098 C 0.9576 -0.00116 0.06102 0.0
C1099 C 0.9722 0.00041 0.07711 0.0
C1100 C 0.96555 -0.00311 0.04171 0.0
C1101 C 0.01408 0.97776 0.01201 0.0
H1102 H 0.98834 0.03177 0.97363 0.0
C1103 C 0.04974 0.98806 0.93386 0.0
C1104 C 0.03437 0.9872 0.91838 0.0
C1105 C 0.04287 0.99269 0.95331 0.0
C1106 C 0.99559 0.01642 0.98414 0.0
H1107 H 0.00665 1e-05 0.08551 0.0
H1108 H 0.02049 0.99614 0.05181 0.0
H1109 H 0.97447 0.03112 0.00751 0.0
H1110 H -0.00014 0.99177 0.91096 0.0
H1111 H 0.98778 -0.00032 0.94489 0.0
H1112 H 0.03496 0.96268 0.98864 0.0
C1113 C 0.00288 -0.00359 0.05419 0.0
C1114 C 0.98762 0.016 0.0035 0.0
C1115 C 0.99493 -0.0015 0.07352 0.0
C1116 C 0.01211 0.99269 0.92255 0.0
C1117 C 0.00521 -0.00283 0.94202 0.0
C1118 C 0.02199 0.97808 0.99263 0.0
C1119 C 0.98827 -0.00373 0.0381 0.0
C1120 C 0.99672 -0.00343 0.01758 0.0
C1121 C 0.02044 -0.00361 0.95766 0.0
C1122 C 0.01278 -0.00266 0.97847 0.0
H1123 H 0.94 -0.00027 0.06336 0.0
H1124 H 0.95392 -0.0038 0.02957 0.0
H1125 H 0.02126 0.96238 0.02253 0.0
H1126 H 0.06702 0.98424 0.93094 0.0
H1127 H 0.05506 0.99263 0.965 0.0
C1128 C 0.52065 0.48979 0.42747 0.0
C1129 C 0.53472 0.51402 0.42393 0.0
C1130 C 0.51571 0.4811 0.44681 0.0
C1131 C 0.51366 0.51189 0.49713 0.0
H1132 H 0.50643 0.42941 0.51274 0.0
C1133 C 0.49456 0.47789 0.57748 0.0
C1134 C 0.47784 0.45668 0.57991 0.0
C1135 C 0.5031 0.48383 0.55872 0.0
C1136 C 0.50828 0.45254 0.50853 0.0
H1137 H 0.55505 0.54763 0.4381 0.0
H1138 H 0.54698 0.53191 0.47162 0.0
H1139 H 0.51903 0.44116 0.47931 0.0
H1140 H 0.4574 0.42437 0.56469 0.0
H1141 H 0.47201 0.43512 0.53191 0.0
H1142 H 0.50275 0.5233 0.52624 0.0
C1143 C 0.53947 0.51994 0.45945 0.0
C1144 C 0.51547 0.45926 0.48942 0.0
C1145 C 0.54434 0.52868 0.44016 0.0
C1146 C 0.47 0.44123 0.56325 0.0
C1147 C 0.47859 0.44707 0.54452 0.0
C1148 C 0.50654 0.50518 0.51622 0.0
C1149 C 0.52479 0.49643 0.463 0.0
C1150 C 0.5181 0.48902 0.48349 0.0
C1151 C 0.49514 0.46852 0.54205 0.0
C1152 C 0.50363 0.47546 0.52206 0.0
H1153 H 0.5132 0.47782 0.4153 0.0
H1154 H 0.50422 0.463 0.44906 0.0
H1155 H 0.51513 0.53506 0.4929 0.0
H1156 H 0.50083 0.49017 0.59005 0.0
H1157 H 0.51599 0.50032 0.55726 0.0
C1158 C 0.04738 0.49894 0.5615 0.0
C1159 C 0.03151 0.50328 0.57629 0.0
C1160 C 0.04109 0.49052 0.54246 0.0
C1161 C 0.99441 0.46195 0.51261 0.0
H1162 H 0.02277 0.50653 0.47059 0.0
C1163 C 0.9604 0.46761 0.43288 0.0
C1164 C 0.97582 0.46358 0.4176 0.0
C1165 C 0.96736 0.47115 0.45243 0.0
C1166 C 0.01485 0.49371 0.48215 0.0
H1167 H 0.99669 0.50118 0.58302 0.0
H1168 H 0.98562 0.48684 0.54974 0.0
H1169 H 0.03507 0.51291 0.50459 0.0
H1170 H 0.0107 0.45995 0.41105 0.0
H1171 H 0.02273 0.46667 0.445 0.0
H1172 H 0.97389 0.44326 0.49003 0.0
C1173 C 0.00298 0.48945 0.55288 0.0
C1174 C 0.02196 0.49723 0.50161 0.0
C1175 C 0.00931 0.49767 0.57196 0.0
C1176 C -0.00165 0.46361 0.4223 0.0
C1177 C 0.00528 0.4673 0.4418 0.0
C1178 C 0.98722 0.45856 0.49311 0.0
C1179 C 0.01875 0.48651 0.53781 0.0
C1180 C 0.01181 0.48143 0.51707 0.0
C1181 C 0.98987 0.47092 0.45706 0.0
C1182 C -0.00264 0.47447 0.47773 0.0
H1183 H 0.06462 0.50274 0.56459 0.0
H1184 H 0.05367 0.48779 0.53126 0.0
H1185 H 0.98642 0.44924 0.52417 0.0
H1186 H 0.94296 0.46804 0.42971 0.0
H1187 H 0.95515 0.47431 0.46392 0.0
C1188 C 0.03976 0.4897 0.05921 0.0
C1189 C 0.02247 0.4778 0.07047 0.0
C1190 C 0.03532 0.50644 0.04228 0.0
C1191 C 0.9903 0.5445 0.01488 0.0
H1192 H 0.02427 0.52155 0.96875 0.0
C1193 C 0.95801 0.552 0.93529 0.0
C1194 C 0.97241 0.56196 0.92044 0.0
C1195 C 0.96551 0.54771 0.95456 0.0
C1196 C 0.01489 0.52861 0.98155 0.0
H1197 H 0.98706 0.47457 0.07318 0.0
H1198 H 0.97926 0.50318 0.0435 0.0
H1199 H 0.03524 0.50374 0.00127 0.0
H1200 H 0.0059 0.57623 0.91449 0.0
H1201 H 0.01906 0.56794 0.94807 0.0
H1202 H 0.96932 0.56813 0.99485 0.0
C1203 C 0.99624 0.50027 0.04792 0.0
C1204 C 0.0212 0.5185 0.0002 0.0
C1205 C 0.00069 0.48376 0.0649 0.0
C1206 C 0.99444 0.56795 0.92541 0.0
C1207 C 0.00198 0.56342 0.94466 0.0
C1208 C 0.9839 0.5544 0.99619 0.0
C1209 C 0.01351 0.51138 0.03624 0.0
C1210 C 0.00865 0.52573 0.01701 0.0
C1211 C 0.98761 0.55308 0.95936 0.0
C1212 C 0.99586 0.54595 0.97933 0.0
H1213 H 0.0567 0.48585 0.06341 0.0
H1214 H 0.04897 0.51511 0.03375 0.0
H1215 H 0.98055 0.5509 0.02761 0.0
H1216 H 0.94104 0.54681 0.93193 0.0
H1217 H 0.95419 0.53923 0.96558 0.0
C1218 C 0.52541 0.50974 0.92979 0.0
C1219 C 0.53582 0.48227 0.92647 0.0
C1220 C 0.51773 0.51716 0.94865 0.0
C1221 C 0.52244 0.49682 0.00151 0.0
H1222 H 0.46281 0.52702 0.00487 0.0
C1223 C 0.47322 0.49772 0.07443 0.0
C1224 C 0.46094 0.52349 0.07844 0.0
C1225 C 0.48299 0.49373 0.0559 0.0
C1226 C 0.47957 0.51891 0.00417 0.0
H1227 H 0.54622 0.441 0.94045 0.0
H1228 H 0.53311 0.45403 0.9731 0.0
H1229 H 0.47977 0.51995 0.97252 0.0
H1230 H 0.44988 0.56576 0.06638 0.0
H1231 H 0.46669 0.55867 0.03417 0.0
H1232 H 0.52212 0.49544 0.03316 0.0
C1233 C 0.53123 0.4701 0.96127 0.0
C1234 C 0.4893 0.51498 0.98566 0.0
C1235 C 0.53883 0.46268 0.94248 0.0
C1236 C 0.45866 0.54522 0.06361 0.0
C1237 C 0.4684 0.54125 0.04515 0.0
C1238 C 0.51271 0.50074 0.02002 0.0
C1239 C 0.52036 0.49722 0.96451 0.0
C1240 C 0.51076 0.50366 0.98415 0.0
C1241 C 0.48068 0.51552 0.04111 0.0
C1242 C 0.49112 0.51161 0.02151 0.0
H1243 H 0.52301 0.52531 0.91775 0.0
H1244 H 0.50958 0.53837 0.9508 0.0
H1245 H 0.5391 0.48836 0.00077 0.0
H1246 H 0.47516 0.48064 0.0856 0.0
H1247 H 0.49218 0.4735 0.0531 0.0
C1248 C 0.17527 0.02404 0.38227 0.0
C1249 C 0.16782 0.04369 0.36755 0.0
C1250 C 0.19754 0.01684 0.38365 0.0
C1251 C 0.24849 0.01536 0.35453 0.0
H1252 H 0.277 0.01244 0.40586 0.0
C1253 C 0.3414 -0.00264 0.36138 0.0
C1254 C 0.3481 0.97601 0.3753 0.0
C1255 C 0.31989 0.0081 0.36146 0.0
C1256 C 0.26921 0.013 0.39145 0.0
H1257 H 0.17787 0.07163 0.34297 0.0
H1258 H 0.2167 0.0589 0.34531 0.0
H1259 H 0.23807 0.02547 0.40369 0.0
H1260 H 0.3378 0.94973 0.40057 0.0
H1261 H 0.30015 0.96842 0.40068 0.0
H1262 H 0.27945 0.0026 0.34226 0.0
C1263 C 0.20529 0.04872 0.35559 0.0
C1264 C 0.24695 0.02038 0.39021 0.0
C1265 C 0.18305 0.05593 0.35421 0.0
C1266 C 0.33314 0.96645 0.3898 0.0
C1267 C 0.31159 0.97714 0.38985 0.0
C1268 C 0.2707 0.00797 0.35576 0.0
C1269 C 0.21276 0.02917 0.37034 0.0
C1270 C 0.23638 0.02156 0.37173 0.0
C1271 C 0.30464 -0.00239 0.37543 0.0
C1272 C 0.28128 0.00665 0.37423 0.0
H1273 H 0.16386 0.01407 0.39263 0.0
H1274 H 0.20281 0.00137 0.395 0.0
H1275 H 0.24069 0.01566 0.34011 0.0
H1276 H 0.35272 0.00543 0.35022 0.0
H1277 H 0.3151 0.02431 0.3504 0.0
C1278 C 0.81878 0.03007 0.13399 0.0
C1279 C 0.83489 0.01394 0.12364 0.0
C1280 C 0.79658 0.02342 0.13158 0.0
C1281 C 0.7572 0.98779 0.09785 0.0
H1282 H 0.7205 0.98511 0.14476 0.0
C1283 C 0.66821 0.94191 0.09908 0.0
C1284 C 0.65305 0.9566 0.11138 0.0
C1285 C 0.69026 0.95052 0.09894 0.0
C1286 C 0.73046 0.9862 0.13148 0.0
H1287 H 0.84042 0.97828 0.10258 0.0
H1288 H 0.80142 0.96649 0.09842 0.0
H1289 H 0.75949 0.99594 0.14804 0.0
H1290 H 0.64864 0.99294 0.13211 0.0
H1291 H 0.68711 0.00819 0.13173 0.0
H1292 H 0.72804 0.97783 0.08134 0.0
C1293 C 0.80605 0.98447 0.10826 0.0
C1294 C 0.75279 0.99233 0.13337 0.0
C1295 C 0.82833 0.99115 0.11067 0.0
C1296 C 0.66008 0.98096 0.12275 0.0
C1297 C 0.68208 0.98961 0.12256 0.0
C1298 C 0.73478 0.98164 0.09596 0.0
C1299 C 0.78999 0.0005 0.11875 0.0
C1300 C 0.76638 0.99331 0.11659 0.0
C1301 C 0.69749 0.97399 0.11107 0.0
C1302 C 0.72119 0.98094 0.11277 0.0
H1303 H 0.82328 0.04826 0.14371 0.0
H1304 H 0.78455 0.03652 0.13958 0.0
H1305 H 0.76727 0.98871 0.08465 0.0
H1306 H 0.66325 0.92288 0.09031 0.0
H1307 H 0.70181 0.93794 0.09004 0.0
C1308 C 0.66815 0.01929 0.63703 0.0
C1309 C 0.65885 0.04033 0.62415 0.0
C1310 C 0.69047 0.01253 0.63595 0.0
C1311 C 0.73931 0.01635 0.60388 0.0
H1312 H 0.77009 0.00858 0.6539 0.0
C1313 C 0.83367 0.99588 0.61094 0.0
C1314 C 0.83946 0.97341 0.62446 0.0
C1315 C 0.81196 0.00618 0.60991 0.0
C1316 C 0.76169 0.01059 0.63982 0.0
H1317 H 0.66554 0.07043 0.59979 0.0
H1318 H 0.70471 0.05856 0.5979 0.0
H1319 H 0.73134 0.02212 0.65374 0.0
H1320 H 0.8268 0.94312 0.64677 0.0
H1321 H 0.78929 0.96134 0.64518 0.0
H1322 H 0.76985 0.00453 0.59003 0.0
C1323 C 0.69463 0.04714 0.60871 0.0
C1324 C 0.73951 0.01824 0.63972 0.0
C1325 C 0.67223 0.05389 0.60978 0.0
C1326 C 0.82307 0.96109 0.63662 0.0
C1327 C 0.80154 0.97145 0.63567 0.0
C1328 C 0.76162 0.00873 0.60398 0.0
C1329 C 0.70403 0.02673 0.62201 0.0
C1330 C 0.72796 0.02059 0.62179 0.0
C1331 C 0.79579 0.99423 0.62245 0.0
C1332 C 0.77286 0.00519 0.62199 0.0
H1333 H 0.65815 0.00811 0.64802 0.0
H1334 H 0.69715 -0.00382 0.64609 0.0
H1335 H 0.7308 0.01793 0.58984 0.0
H1336 H 0.84595 0.00579 0.6014 0.0
H1337 H 0.80792 0.02382 0.59961 0.0
C1338 C 0.32366 0.01484 0.90021 0.0
C1339 C 0.33959 0.0054 0.88652 0.0
C1340 C 0.30413 -0.00108 0.9025 0.0
C1341 C 0.26823 0.95176 0.87288 0.0
H1342 H 0.23449 0.94622 0.92144 0.0
C1343 C 0.17935 0.90975 0.87204 0.0
C1344 C 0.16428 0.92743 0.88253 0.0
C1345 C 0.2019 0.91331 0.87491 0.0
C1346 C 0.24374 0.94765 0.90777 0.0
H1347 H 0.34841 0.97071 0.86567 0.0
H1348 H 0.3143 0.94272 0.86977 0.0
H1349 H 0.27287 0.96232 0.9227 0.0
H1350 H 0.16088 0.962 0.9047 0.0
H1351 H 0.20034 0.96864 0.90951 0.0
H1352 H 0.23907 0.93822 0.85783 0.0
C1353 C 0.31673 0.96275 0.87843 0.0
C1354 C 0.26568 0.9568 0.9085 0.0
C1355 C 0.33623 0.97873 0.87609 0.0
C1356 C 0.17215 0.948 0.89648 0.0
C1357 C 0.19474 0.95167 0.8993 0.0
C1358 C 0.24636 0.94264 0.87216 0.0
C1359 C 0.30018 0.97322 0.89118 0.0
C1360 C 0.27801 0.95954 0.891 0.0
C1361 C 0.20985 0.93473 0.88827 0.0
C1362 C 0.23373 0.94108 0.88953 0.0
H1363 H 0.3257 0.03547 0.90831 0.0
H1364 H 0.29162 0.00778 0.91227 0.0
H1365 H 0.27713 0.95415 0.85909 0.0
H1366 H 0.17371 0.89325 0.8615 0.0
H1367 H 0.21314 0.89956 0.86646 0.0
C1368 C 0.83757 0.49874 0.37056 0.0
C1369 C 0.84343 0.47497 0.35808 0.0
C1370 C 0.8158 0.50863 0.37142 0.0
C1371 C 0.76315 0.50644 0.34424 0.0
H1372 H 0.737 0.51861 0.39597 0.0
C1373 C 0.66971 0.51321 0.35495 0.0
C1374 C 0.66173 0.53561 0.36756 0.0
C1375 C 0.69216 0.50697 0.35412 0.0
C1376 C 0.74414 0.51563 0.38142 0.0
H1377 H 0.83099 0.44286 0.33683 0.0
H1378 H 0.79322 0.46024 0.33821 0.0
H1379 H 0.77614 0.50718 0.39336 0.0
H1380 H 0.671 0.56894 0.38927 0.0
H1381 H 0.71021 0.55788 0.3879 0.0
H1382 H 0.73115 0.51456 0.33229 0.0
C1383 C 0.80547 0.47157 0.34708 0.0
C1384 C 0.76654 0.50917 0.37992 0.0
C1385 C 0.82715 0.46166 0.34626 0.0
C1386 C 0.67661 0.55121 0.37964 0.0
C1387 C 0.69907 0.54495 0.37882 0.0
C1388 C 0.74078 0.51288 0.34573 0.0
C1389 C 0.79952 0.49497 0.35978 0.0
C1390 C 0.7762 0.50415 0.36132 0.0
C1391 C 0.70709 0.52301 0.36588 0.0
C1392 C 0.73099 0.51718 0.36435 0.0
H1393 H 0.8498 0.50961 0.37971 0.0
H1394 H 0.8117 0.52694 0.38119 0.0
H1395 H 0.77023 0.50315 0.32969 0.0
H1396 H 0.65859 0.50058 0.34566 0.0
H1397 H 0.69783 0.48954 0.34428 0.0
C1398 C 0.3059 0.55683 0.1315 0.0
C1399 C 0.32243 0.53751 0.12479 0.0
C1400 C 0.28388 0.55104 0.12717 0.0
C1401 C 0.24898 0.50697 0.09292 0.0
H1402 H 0.20364 0.52196 0.13203 0.0
C1403 C 0.16461 0.45012 0.09425 0.0
C1404 C 0.14594 0.46759 0.09835 0.0
C1405 C 0.18556 0.46257 0.09477 0.0
C1406 C 0.21611 0.51817 0.12086 0.0
H1407 H 0.32911 0.49661 0.10892 0.0
H1408 H 0.2906 0.48574 0.10199 0.0
H1409 H 0.24166 0.53496 0.13945 0.0
H1410 H 0.13477 0.51245 0.10508 0.0
H1411 H 0.17166 0.53383 0.10681 0.0
H1412 H 0.22341 0.48874 0.07479 0.0
C1413 C 0.29459 0.5059 0.11002 0.0
C1414 C 0.23789 0.52558 0.12508 0.0
C1415 C 0.3166 0.51191 0.11413 0.0
C1416 C 0.14876 0.49815 0.10227 0.0
C1417 C 0.16982 0.51049 0.10313 0.0
C1418 C 0.22726 0.49921 0.08882 0.0
C1419 C 0.27798 0.52563 0.11623 0.0
C1420 C 0.25464 0.51959 0.11129 0.0
C1421 C 0.18837 0.49264 0.0997 0.0
C1422 C 0.21073 0.50435 0.10287 0.0
H1423 H 0.31007 0.57697 0.1395 0.0
H1424 H 0.27156 0.56688 0.13198 0.0
H1425 H 0.26138 0.50275 0.08176 0.0
H1426 H 0.16324 0.42642 0.09158 0.0
H1427 H 0.19966 0.44828 0.09232 0.0
C1428 C 0.32819 0.47827 0.60308 0.0
C1429 C 0.34345 0.49113 0.61614 0.0
C1430 C 0.30729 0.49064 0.60081 0.0
C1431 C 0.26767 0.53494 0.62894 0.0
H1432 H 0.23455 0.53395 0.57989 0.0
C1433 C 0.17816 0.5751 0.62579 0.0
C1434 C 0.16336 0.55655 0.61565 0.0
C1435 C 0.20078 0.57075 0.62404 0.0
C1436 C 0.24359 0.53422 0.5937 0.0
H1437 H 0.34931 0.52802 0.63614 0.0
H1438 H 0.31279 0.54983 0.63208 0.0
H1439 H 0.27359 0.52098 0.5796 0.0
H1440 H 0.16062 0.51937 0.59534 0.0
H1441 H 0.20025 0.51156 0.59238 0.0
H1442 H 0.2377 0.54752 0.64314 0.0
C1443 C 0.31687 0.52985 0.62387 0.0
C1444 C 0.26592 0.52685 0.59353 0.0
C1445 C 0.33776 0.51743 0.62617 0.0
C1446 C 0.17166 0.53408 0.60325 0.0
C1447 C 0.19433 0.52969 0.60152 0.0
C1448 C 0.24541 0.54233 0.6291 0.0
C1449 C 0.30122 0.51615 0.61155 0.0
C1450 C 0.27813 0.52677 0.61121 0.0
C1451 C 0.20911 0.54775 0.61211 0.0
C1452 C 0.23306 0.54171 0.61154 0.0
H1453 H 0.33196 0.45775 0.59536 0.0
H1454 H 0.29554 0.4793 0.59142 0.0
H1455 H 0.27647 0.53452 0.64288 0.0
H1456 H 0.17226 0.59306 0.63508 0.0
H1457 H 0.21176 0.58537 0.63209 0.0
C1458 C 0.67789 0.42105 0.89267 0.0
C1459 C 0.66541 0.43421 0.87744 0.0
C1460 C 0.7007 0.42482 0.89334 0.0
C1461 C 0.74755 0.44177 0.86134 0.0
H1462 H 0.77632 0.47203 0.90848 0.0
C1463 C 0.82624 0.5087 0.85749 0.0
C1464 C 0.84296 0.50441 0.87156 0.0
C1465 C 0.80619 0.49418 0.85933 0.0
C1466 C 0.76862 0.46292 0.89535 0.0
H1467 H 0.66707 0.46241 0.85141 0.0
H1468 H 0.70679 0.46844 0.8524 0.0
H1469 H 0.73745 0.45788 0.90983 0.0
H1470 H 0.85158 0.48157 0.89877 0.0
H1471 H 0.81598 0.45632 0.90215 0.0
H1472 H 0.77836 0.44756 0.84666 0.0
C1473 C 0.69894 0.45494 0.86365 0.0
C1474 C 0.74641 0.45493 0.89611 0.0
C1475 C 0.6762 0.45145 0.86309 0.0
C1476 C 0.83901 0.48533 0.88769 0.0
C1477 C 0.81872 0.47087 0.88961 0.0
C1478 C 0.76968 0.44957 0.8606 0.0
C1479 C 0.71142 0.44149 0.87868 0.0
C1480 C 0.73553 0.44535 0.8789 0.0
C1481 C 0.80217 0.47514 0.87537 0.0
C1482 C 0.78021 0.46132 0.87738 0.0
H1483 H 0.67014 0.40728 0.90381 0.0
H1484 H 0.71 0.4142 0.90505 0.0
H1485 H 0.73962 0.43383 0.84798 0.0
H1486 H 0.82836 0.52399 0.84525 0.0
H1487 H 0.79354 0.4986 0.84842 0.0
C1488 C 0.02026 0.15152 0.39194 0.0
C1489 C 0.04287 0.14702 0.39475 0.0
C1490 C 0.00952 0.1749 0.40146 0.0
C1491 C 0.98929 0.22396 0.42654 0.0
H1492 H 0.01827 0.29595 0.40886 0.0
C1493 C 0.97288 0.35559 0.40436 0.0
C1494 C 0.95275 0.35076 0.39486 0.0
C1495 C 0.98327 0.33229 0.41433 0.0
C1496 C 0.01003 0.27644 0.41461 0.0
H1497 H 0.07176 0.16199 0.41068 0.0
H1498 H 0.05302 0.20366 0.42695 0.0
H1499 H 0.03835 0.24959 0.4091 0.0
H1500 H 0.92686 0.31908 0.38897 0.0
H1501 H 0.94538 0.2778 0.40533 0.0
H1502 H 0.96065 0.25068 0.43134 0.0
C1503 C 0.04363 0.18887 0.41752 0.0
C1504 C 0.02165 0.2497 0.41469 0.0
C1505 C 0.05432 0.16514 0.40819 0.0
C1506 C 0.94238 0.3231 0.3964 0.0
C1507 C 0.95299 0.29956 0.40593 0.0
C1508 C 0.97772 0.25086 0.42678 0.0
C1509 C 0.02127 0.19444 0.41378 0.0
C1510 C 0.01104 0.22299 0.4196 0.0
C1511 C 0.97403 0.30354 0.41431 0.0
C1512 C 0.98758 0.27713 0.41968 0.0
H1513 H 0.01101 0.13764 0.38181 0.0
H1514 H 0.99235 0.17887 0.3981 0.0
H1515 H 0.98084 0.20365 0.43065 0.0
H1516 H 0.98097 0.37703 0.40336 0.0
H1517 H -0.00086 0.33643 0.42106 0.0
C1518 C 0.48712 0.84463 0.39454 0.0
C1519 C 0.46616 0.85454 0.40015 0.0
C1520 C 0.49672 0.82033 0.40396 0.0
C1521 C 0.51648 0.77034 0.42712 0.0
H1522 H 0.47572 0.70411 0.4255 0.0
C1523 C 0.54844 0.6526 0.41385 0.0
C1524 C 0.53782 0.63955 0.39755 0.0
C1525 C 0.53879 0.67664 0.42377 0.0
C1526 C 0.48732 0.72237 0.42628 0.0
H1527 H 0.43943 0.84833 0.42097 0.0
H1528 H 0.45625 0.80542 0.43746 0.0
H1529 H 0.46162 0.75475 0.42566 0.0
H1530 H 0.50813 0.63981 0.37978 0.0
H1531 H 0.49159 0.68177 0.39663 0.0
H1532 H 0.54219 0.73807 0.4256 0.0
C1533 C 0.46517 0.81641 0.42568 0.0
C1534 C 0.47923 0.75146 0.42662 0.0
C1535 C 0.45557 0.84095 0.41626 0.0
C1536 C 0.51681 0.64958 0.39219 0.0
C1537 C 0.50719 0.67348 0.40207 0.0
C1538 C 0.52457 0.74127 0.42657 0.0
C1539 C 0.48557 0.80528 0.41919 0.0
C1540 C 0.49377 0.77574 0.42571 0.0
C1541 C 0.51834 0.68792 0.41758 0.0
C1542 C 0.51005 0.71707 0.42481 0.0
H1543 H 0.49577 0.85486 0.38229 0.0
H1544 H 0.51227 0.81219 0.39833 0.0
H1545 H 0.52808 0.78864 0.42695 0.0
H1546 H 0.56459 0.64509 0.41843 0.0
H1547 H 0.5477 0.68711 0.43578 0.0
C1548 C 0.50735 0.83802 0.09852 0.0
C1549 C 0.52849 0.84618 0.09231 0.0
C1550 C 0.49672 0.81381 0.08992 0.0
C1551 C 0.47489 0.76387 0.06807 0.0
H1552 H 0.51315 0.6951 0.07214 0.0
C1553 C 0.43872 0.64923 0.08407 0.0
C1554 C 0.44833 0.63704 0.10116 0.0
C1555 C 0.44942 0.67187 0.07364 0.0
C1556 C 0.50226 0.71406 0.07063 0.0
H1557 H 0.55453 0.83691 0.07126 0.0
H1558 H 0.53593 0.79414 0.05626 0.0
H1559 H 0.52911 0.74466 0.07036 0.0
H1560 H 0.4773 0.63721 0.11986 0.0
H1561 H 0.49573 0.67676 0.10201 0.0
H1562 H 0.44803 0.73351 0.07038 0.0
C1563 C 0.52764 0.80647 0.06785 0.0
C1564 C 0.51141 0.74248 0.06939 0.0
C1565 C 0.53825 0.83093 0.07641 0.0
C1566 C 0.46939 0.6464 0.10686 0.0
C1567 C 0.48009 0.66885 0.09643 0.0
C1568 C 0.46575 0.73546 0.06944 0.0
C1569 C 0.50704 0.79713 0.07495 0.0
C1570 C 0.49777 0.76776 0.06941 0.0
C1571 C 0.46995 0.68251 0.08007 0.0
C1572 C 0.47936 0.71046 0.07204 0.0
H1573 H 0.49934 0.84954 0.11063 0.0
H1574 H 0.48102 0.80702 0.09598 0.0
H1575 H 0.464 0.78295 0.06764 0.0
H1576 H 0.42256 0.64218 0.07924 0.0
H1577 H 0.44128 0.68182 0.061 0.0
C1578 C 0.9795 0.12881 0.10595 0.0
C1579 C 0.9589 0.11795 0.10005 0.0
C1580 C 0.98928 0.1523 0.09578 0.0
C1581 C 0.00954 0.19952 0.07006 0.0
H1582 H 0.96856 0.26559 0.06787 0.0
C1583 C 0.04046 0.3197 0.07284 0.0
C1584 C 0.03108 0.33448 0.08911 0.0
C1585 C 0.03064 0.29395 0.06526 0.0
C1586 C 0.98018 0.2473 0.06804 0.0
H1587 H 0.93307 0.1216 0.07804 0.0
H1588 H 0.95016 0.163 0.0603 0.0
H1589 H 0.95462 0.21502 0.07078 0.0
H1590 H 0.00337 0.33547 0.10926 0.0
H1591 H 0.9863 0.29078 0.09616 0.0
H1592 H 0.03512 0.23208 0.06915 0.0
C1593 C 0.95865 0.15341 0.07287 0.0
C1594 C 0.97221 0.21827 0.06954 0.0
C1595 C 0.94888 0.12975 0.08303 0.0
C1596 C 0.01103 0.32437 0.0968 0.0
C1597 C 0.00112 0.29893 0.08912 0.0
C1598 C 0.01752 0.22857 0.06859 0.0
C1599 C 0.97864 0.16549 0.07951 0.0
C1600 C 0.98684 0.19427 0.07176 0.0
C1601 C 0.01116 0.28291 0.07369 0.0
C1602 C 0.0029 0.2528 0.06878 0.0
H1603 H 0.98769 0.11998 0.11892 0.0
H1604 H 0.00454 0.16131 0.10148 0.0
H1605 H 0.02118 0.18136 0.07136 0.0
H1606 H 0.05592 0.32714 0.0666 0.0
H1607 H 0.03868 0.28207 0.05333 0.0
C1608 C 0.97481 0.83884 0.60389 0.0
C1609 C 0.95377 0.84951 0.59921 0.0
C1610 C 0.98308 0.81353 0.59461 0.0
C1611 C 0.96334 0.744 0.57455 0.0
H1612 H 0.02596 0.73085 0.56836 0.0
C1613 C 0.03465 0.64595 0.5777 0.0
C1614 C 0.02693 0.63237 0.59509 0.0
C1615 C 0.02307 0.66966 0.56923 0.0
C1616 C 0.00834 0.73396 0.56944 0.0
H1617 H 0.92529 0.84318 0.5804 0.0
H1618 H 0.93973 0.79831 0.56422 0.0
H1619 H 0.01172 0.78135 0.56895 0.0
H1620 H 5e-05 0.63094 0.61615 0.0
H1621 H 0.98018 0.67237 0.60176 0.0
H1622 H 0.96008 0.69659 0.57587 0.0
C1623 C 0.94979 0.80966 0.57508 0.0
C1624 C 0.00022 0.76301 0.56999 0.0
C1625 C 0.94158 0.83533 0.58428 0.0
C1626 C 0.00653 0.64115 0.60284 0.0
C1627 C 0.99499 0.6648 0.59442 0.0
C1628 C 0.97146 0.7149 0.57389 0.0
C1629 C 0.97044 0.79814 0.5805 0.0
C1630 C 0.97784 0.76833 0.57377 0.0
C1631 C 0.00359 0.68018 0.57802 0.0
C1632 C 0.99421 0.70962 0.57254 0.0
H1633 H 0.98463 0.84945 0.61526 0.0
H1634 H -0.00111 0.80505 0.59938 0.0
H1635 H 0.94599 0.74733 0.57741 0.0
H1636 H 0.05025 0.63943 0.57128 0.0
H1637 H 0.02996 0.68074 0.55642 0.0
C1638 C 0.46608 0.332 0.6181 0.0
C1639 C 0.4463 0.34405 0.61103 0.0
C1640 C 0.47514 0.30682 0.60929 0.0
C1641 C 0.4596 0.23936 0.58408 0.0
H1642 H 0.52292 0.23015 0.58144 0.0
C1643 C 0.5337 0.14519 0.58662 0.0
C1644 C 0.52533 0.12959 0.60297 0.0
C1645 C 0.52187 0.16899 0.57852 0.0
C1646 C 0.50518 0.23225 0.58149 0.0
H1647 H 0.42063 0.3396 0.58897 0.0
H1648 H 0.43636 0.29473 0.57372 0.0
H1649 H 0.50709 0.27964 0.58411 0.0
H1650 H 0.49718 0.12445 0.62235 0.0
H1651 H 0.47681 0.16591 0.60857 0.0
H1652 H 0.45776 0.19181 0.58243 0.0
C1653 C 0.44487 0.3051 0.58601 0.0
C1654 C 0.49613 0.26066 0.58324 0.0
C1655 C 0.4359 0.33068 0.59472 0.0
C1656 C 0.50415 0.13632 0.60988 0.0
C1657 C 0.49234 0.15996 0.6018 0.0
C1658 C 0.46866 0.21087 0.58228 0.0
C1659 C 0.46456 0.2929 0.59328 0.0
C1660 C 0.47337 0.26433 0.58571 0.0
C1661 C 0.50148 0.17744 0.58663 0.0
C1662 C 0.49162 0.20694 0.58214 0.0
H1663 H 0.47455 0.34189 0.63058 0.0
H1664 H 0.4901 0.29762 0.61549 0.0
H1665 H 0.44197 0.24154 0.58586 0.0
H1666 H 0.54993 0.14029 0.58088 0.0
H1667 H 0.52921 0.1818 0.56666 0.0
C1668 C 0.45506 0.17493 0.88326 0.0
C1669 C 0.43533 0.16287 0.89038 0.0
C1670 C 0.46515 0.19842 0.89311 0.0
C1671 C 0.4542 0.26318 0.92231 0.0
H1672 H 0.5179 0.26385 0.92474 0.0
C1673 C 0.53496 0.34619 0.91953 0.0
C1674 C 0.52721 0.36313 0.90352 0.0
C1675 C 0.52154 0.3244 0.92808 0.0
C1676 C 0.5001 0.26412 0.92485 0.0
H1677 H 0.41056 0.16593 0.91338 0.0
H1678 H 0.42808 0.2081 0.93043 0.0
H1679 H 0.49866 0.21705 0.92031 0.0
H1680 H 0.49872 0.37311 0.88541 0.0
H1681 H 0.47565 0.33504 0.89985 0.0
H1682 H 0.45571 0.31054 0.92573 0.0
C1683 C 0.43577 0.19888 0.91733 0.0
C1684 C 0.48909 0.23724 0.92209 0.0
C1685 C 0.42576 0.17491 0.90756 0.0
C1686 C 0.50525 0.36002 0.89753 0.0
C1687 C 0.49188 0.33837 0.90605 0.0
C1688 C 0.46523 0.29017 0.92515 0.0
C1689 C 0.45567 0.21061 0.91025 0.0
C1690 C 0.4662 0.23682 0.91949 0.0
C1691 C 0.50021 0.31928 0.92074 0.0
C1692 C 0.48837 0.29111 0.92508 0.0
H1693 H 0.4629 0.16609 0.87011 0.0
H1694 H 0.48022 0.20747 0.88705 0.0
H1695 H 0.4365 0.26341 0.92052 0.0
H1696 H 0.55177 0.34841 0.9246 0.0
H1697 H 0.52832 0.31035 0.93959 0.0
C1698 C 0.93068 0.69179 0.87421 0.0
C1699 C 0.92877 0.66602 0.88573 0.0
C1700 C 0.93667 0.71866 0.88294 0.0
C1701 C 0.94139 0.77489 0.90845 0.0
H1702 H 0.00356 0.77075 0.92076 0.0
C1703 C 0.02577 0.85151 0.91023 0.0
C1704 C 0.02137 0.86652 0.89243 0.0
C1705 C 0.01047 0.83135 0.91797 0.0
C1706 C 0.98606 0.77255 0.9181 0.0
H1707 H 0.93108 0.64772 0.9153 0.0
H1708 H 0.9429 0.69495 0.93057 0.0
H1709 H 0.98205 0.72519 0.91909 0.0
H1710 H -0.00308 0.87408 0.86962 0.0
H1711 H 0.97074 0.83872 0.8826 0.0
H1712 H 0.94546 0.82206 0.90656 0.0
C1713 C 0.93903 0.69437 0.91493 0.0
C1714 C 0.97376 0.74634 0.91713 0.0
C1715 C 0.93234 0.66754 0.90624 0.0
C1716 C 0.00088 0.86265 0.88328 0.0
C1717 C 0.98568 0.84255 0.89092 0.0
C1718 C 0.95357 0.80115 0.9098 0.0
C1719 C 0.94141 0.72002 0.90325 0.0
C1720 C 0.95171 0.74725 0.9111 0.0
C1721 C 0.99055 0.82588 0.908 0.0
C1722 C 0.97638 0.80008 0.91325 0.0
H1723 H 0.92794 0.691 0.85836 0.0
H1724 H 0.93876 0.73808 0.87361 0.0
H1725 H 0.92433 0.77602 0.90389 0.0
H1726 H 0.04139 0.85432 0.91771 0.0
H1727 H 0.01461 0.81918 0.93129 0.0
loop_
_geom_bond_atom_site_label_1
_geom_bond_atom_site_label_2
_geom_bond_distance
_geom_bond_site_symmetry_2
_ccdc_geom_bond_type
Co0 N4 2.148 . S
Co0 N10 2.128 . S
Co0 N20 2.194 . S
Co0 O25 2.351 . S
Co0 O26 2.155 . S
Co0 O27 2.096 . S
C1 N4 1.301 . S
C1 N5 1.328 . S
C1 H6 0.930 . S
C2 C3 1.333 . S
C2 N4 1.317 . S
C2 H7 0.930 . S
C3 C2 1.333 . S
C3 N5 1.350 . S
C3 H29 0.931 . S
N4 Co0 2.148 . S
N4 C1 1.301 . S
N4 C2 1.317 . S
N5 C1 1.328 . S
N5 C3 1.350 . S
H6 C1 0.930 . S
H7 C2 0.930 . S
C8 O9 1.224 . S
C8 O27 1.247 . S
O9 C8 1.224 . S
N10 Co0 2.128 . S
N10 C11 1.355 . S
N10 C13 1.311 . S
C11 N10 1.355 . S
C11 C12 1.363 . S
C11 H23 0.929 . S
C12 C11 1.363 . S
C12 N14 1.375 . S
C12 H30 0.931 . S
C13 N10 1.311 . S
C13 N14 1.347 . S
C13 H24 0.929 . S
N14 C12 1.375 . S
N14 C13 1.347 . S
C15 C18 1.365 . S
C15 N20 1.328 . S
C15 H21 0.929 . S
C16 C17 1.362 . S
C16 C19 1.378 . S
C16 H31 0.929 . S
C17 C16 1.362 . S
C17 C18 1.366 . S
C18 C15 1.365 . S
C18 C17 1.366 . S
C18 H32 0.930 . S
C19 C16 1.378 . S
C19 N20 1.315 . S
C19 H22 0.930 . S
N20 Co0 2.194 . S
N20 C15 1.328 . S
N20 C19 1.315 . S
H21 C15 0.929 . S
H22 C19 0.930 . S
H23 C11 0.929 . S
H24 C13 0.929 . S
O25 Co0 2.351 . S
O25 C28 1.244 . S
O26 Co0 2.155 . S
O26 C28 1.240 . S
O27 Co0 2.096 . S
O27 C8 1.247 . S
C28 O25 1.244 . S
C28 O26 1.240 . S
H29 C3 0.931 . S
H30 C12 0.931 . S
H31 C16 0.929 . S
H32 C18 0.930 . S
Co33 N37 2.148 . S
Co33 N43 2.128 . S
Co33 N53 2.194 . S
Co33 O58 2.351 . S
Co33 O59 2.155 . S
Co33 O60 2.096 . S
C34 N37 1.301 . S
C34 N38 1.328 . S
C34 H39 0.930 . S
C35 C36 1.333 . S
C35 N37 1.317 . S
C35 H40 0.930 . S
C36 C35 1.333 . S
C36 N38 1.350 . S
C36 H62 0.931 . S
N37 Co33 2.148 . S
N37 C34 1.301 . S
N37 C35 1.317 . S
N38 C34 1.328 . S
N38 C36 1.350 . S
H39 C34 0.930 . S
H40 C35 0.930 . S
C41 O42 1.224 . S
C41 O60 1.247 . S
O42 C41 1.224 . S
N43 Co33 2.128 . S
N43 C44 1.355 . S
N43 C46 1.311 . S
C44 N43 1.355 . S
C44 C45 1.363 . S
C44 H56 0.929 . S
C45 C44 1.363 . S
C45 N47 1.375 . S
C45 H63 0.931 . S
C46 N43 1.311 . S
C46 N47 1.347 . S
C46 H57 0.929 . S
N47 C45 1.375 . S
N47 C46 1.347 . S
C48 C51 1.365 . S
C48 N53 1.328 . S
C48 H54 0.929 . S
C49 C50 1.362 . S
C49 C52 1.378 . S
C49 H64 0.929 . S
C50 C49 1.362 . S
C50 C51 1.366 . S
C51 C48 1.365 . S
C51 C50 1.366 . S
C51 H65 0.930 . S
C52 C49 1.378 . S
C52 N53 1.315 . S
C52 H55 0.930 . S
N53 Co33 2.194 . S
N53 C48 1.328 . S
N53 C52 1.315 . S
H54 C48 0.929 . S
H55 C52 0.930 . S
H56 C44 0.929 . S
H57 C46 0.929 . S
O58 Co33 2.351 . S
O58 C61 1.244 . S
O59 Co33 2.155 . S
O59 C61 1.240 . S
O60 Co33 2.096 . S
O60 C41 1.247 . S
C61 O58 1.244 . S
C61 O59 1.240 . S
H62 C36 0.931 . S
H63 C45 0.931 . S
H64 C49 0.929 . S
H65 C51 0.930 . S
Co66 N70 2.148 . S
Co66 N76 2.128 . S
Co66 N86 2.194 . S
Co66 O91 2.351 . S
Co66 O92 2.155 . S
Co66 O93 2.096 . S
C67 N70 1.301 . S
C67 N71 1.328 . S
C67 H72 0.930 . S
C68 C69 1.333 . S
C68 N70 1.317 . S
C68 H73 0.930 . S
C69 C68 1.333 . S
C69 N71 1.350 . S
C69 H95 0.931 . S
N70 Co66 2.148 . S
N70 C67 1.301 . S
N70 C68 1.317 . S
N71 C67 1.328 . S
N71 C69 1.350 . S
H72 C67 0.930 . S
H73 C68 0.930 . S
C74 O75 1.224 . S
C74 O93 1.247 . S
O75 C74 1.224 . S
N76 Co66 2.128 . S
N76 C77 1.355 . S
N76 C79 1.311 . S
C77 N76 1.355 . S
C77 C78 1.363 . S
C77 H89 0.929 . S
C78 C77 1.363 . S
C78 N80 1.375 . S
C78 H96 0.931 . S
C79 N76 1.311 . S
C79 N80 1.347 . S
C79 H90 0.929 . S
N80 C78 1.375 . S
N80 C79 1.347 . S
C81 C84 1.365 . S
C81 N86 1.328 . S
C81 H87 0.929 . S
C82 C83 1.362 . S
C82 C85 1.378 . S
C82 H97 0.929 . S
C83 C82 1.362 . S
C83 C84 1.366 . S
C84 C81 1.365 . S
C84 C83 1.366 . S
C84 H98 0.930 . S
C85 C82 1.378 . S
C85 N86 1.315 . S
C85 H88 0.930 . S
N86 Co66 2.194 . S
N86 C81 1.328 . S
N86 C85 1.315 . S
H87 C81 0.929 . S
H88 C85 0.930 . S
H89 C77 0.929 . S
H90 C79 0.929 . S
O91 Co66 2.351 . S
O91 C94 1.244 . S
O92 Co66 2.155 . S
O92 C94 1.240 . S
O93 Co66 2.096 . S
O93 C74 1.247 . S
C94 O91 1.244 . S
C94 O92 1.240 . S
H95 C69 0.931 . S
H96 C78 0.931 . S
H97 C82 0.929 . S
H98 C84 0.930 . S
Co99 N103 2.148 . S
Co99 N109 2.128 . S
Co99 N119 2.194 . S
Co99 O124 2.351 . S
Co99 O125 2.155 . S
Co99 O126 2.096 . S
C100 N103 1.301 . S
C100 N104 1.328 . S
C100 H105 0.930 . S
C101 C102 1.333 . S
C101 N103 1.317 . S
C101 H106 0.930 . S
C102 C101 1.333 . S
C102 N104 1.350 . S
C102 H128 0.931 . S
N103 Co99 2.148 . S
N103 C100 1.301 . S
N103 C101 1.317 . S
N104 C100 1.328 . S
N104 C102 1.350 . S
H105 C100 0.930 . S
H106 C101 0.930 . S
C107 O108 1.224 . S
C107 O126 1.247 . S
O108 C107 1.224 . S
N109 Co99 2.128 . S
N109 C110 1.355 . S
N109 C112 1.311 . S
C110 N109 1.355 . S
C110 C111 1.363 . S
C110 H122 0.929 . S
C111 C110 1.363 . S
C111 N113 1.375 . S
C111 H129 0.931 . S
C112 N109 1.311 . S
C112 N113 1.347 . S
C112 H123 0.929 . S
N113 C111 1.375 . S
N113 C112 1.347 . S
C114 C117 1.365 . S
C114 N119 1.328 . S
C114 H120 0.929 . S
C115 C116 1.362 . S
C115 C118 1.378 . S
C115 H130 0.929 . S
C116 C115 1.362 . S
C116 C117 1.366 . S
C117 C114 1.365 . S
C117 C116 1.366 . S
C117 H131 0.930 . S
C118 C115 1.378 . S
C118 N119 1.315 . S
C118 H121 0.930 . S
N119 Co99 2.194 . S
N119 C114 1.328 . S
N119 C118 1.315 . S
H120 C114 0.929 . S
H121 C118 0.930 . S
H122 C110 0.929 . S
H123 C112 0.929 . S
O124 Co99 2.351 . S
O124 C127 1.244 . S
O125 Co99 2.155 . S
O125 C127 1.240 . S
O126 Co99 2.096 . S
O126 C107 1.247 . S
C127 O124 1.244 . S
C127 O125 1.240 . S
H128 C102 0.931 . S
H129 C111 0.931 . S
H130 C115 0.929 . S
H131 C117 0.930 . S
Co132 N136 2.148 . S
Co132 N142 2.128 . S
Co132 N152 2.194 . S
Co132 O157 2.351 . S
Co132 O158 2.155 . S
Co132 O159 2.096 . S
C133 N136 1.301 . S
C133 N137 1.328 . S
C133 H138 0.930 . S
C134 C135 1.333 . S
C134 N136 1.317 . S
C134 H139 0.930 . S
C135 C134 1.333 . S
C135 N137 1.350 . S
C135 H161 0.931 . S
N136 Co132 2.148 . S
N136 C133 1.301 . S
N136 C134 1.317 . S
N137 C133 1.328 . S
N137 C135 1.350 . S
H138 C133 0.930 . S
H139 C134 0.930 . S
C140 O141 1.224 . S
C140 O159 1.247 . S
O141 C140 1.224 . S
N142 Co132 2.128 . S
N142 C143 1.355 . S
N142 C145 1.311 . S
C143 N142 1.355 . S
C143 C144 1.363 . S
C143 H155 0.929 . S
C144 C143 1.363 . S
C144 N146 1.375 . S
C144 H162 0.931 . S
C145 N142 1.311 . S
C145 N146 1.347 . S
C145 H156 0.929 . S
N146 C144 1.375 . S
N146 C145 1.347 . S
C147 C150 1.365 . S
C147 N152 1.328 . S
C147 H153 0.929 . S
C148 C149 1.362 . S
C148 C151 1.378 . S
C148 H163 0.929 . S
C149 C148 1.362 . S
C149 C150 1.366 . S
C150 C147 1.365 . S
C150 C149 1.366 . S
C150 H164 0.930 . S
C151 C148 1.378 . S
C151 N152 1.315 . S
C151 H154 0.930 . S
N152 Co132 2.194 . S
N152 C147 1.328 . S
N152 C151 1.315 . S
H153 C147 0.929 . S
H154 C151 0.930 . S
H155 C143 0.929 . S
H156 C145 0.929 . S
O157 Co132 2.351 . S
O157 C160 1.244 . S
O158 Co132 2.155 . S
O158 C160 1.240 . S
O159 Co132 2.096 . S
O159 C140 1.247 . S
C160 O157 1.244 . S
C160 O158 1.240 . S
H161 C135 0.931 . S
H162 C144 0.931 . S
H163 C148 0.929 . S
H164 C150 0.930 . S
Co165 N169 2.148 . S
Co165 N175 2.128 . S
Co165 N185 2.194 . S
Co165 O190 2.351 . S
Co165 O191 2.155 . S
Co165 O192 2.096 . S
C166 N169 1.301 . S
C166 N170 1.328 . S
C166 H171 0.930 . S
C167 C168 1.333 . S
C167 N169 1.317 . S
C167 H172 0.930 . S
C168 C167 1.333 . S
C168 N170 1.350 . S
C168 H194 0.931 . S
N169 Co165 2.148 . S
N169 C166 1.301 . S
N169 C167 1.317 . S
N170 C166 1.328 . S
N170 C168 1.350 . S
H171 C166 0.930 . S
H172 C167 0.930 . S
C173 O174 1.224 . S
C173 O192 1.247 . S
O174 C173 1.224 . S
N175 Co165 2.128 . S
N175 C176 1.355 . S
N175 C178 1.311 . S
C176 N175 1.355 . S
C176 C177 1.363 . S
C176 H188 0.929 . S
C177 C176 1.363 . S
C177 N179 1.375 . S
C177 H195 0.931 . S
C178 N175 1.311 . S
C178 N179 1.347 . S
C178 H189 0.929 . S
N179 C177 1.375 . S
N179 C178 1.347 . S
C180 C183 1.365 . S
C180 N185 1.328 . S
C180 H186 0.929 . S
C181 C182 1.362 . S
C181 C184 1.378 . S
C181 H196 0.929 . S
C182 C181 1.362 . S
C182 C183 1.366 . S
C183 C180 1.365 . S
C183 C182 1.366 . S
C183 H197 0.930 . S
C184 C181 1.378 . S
C184 N185 1.315 . S
C184 H187 0.930 . S
N185 Co165 2.194 . S
N185 C180 1.328 . S
N185 C184 1.315 . S
H186 C180 0.929 . S
H187 C184 0.930 . S
H188 C176 0.929 . S
H189 C178 0.929 . S
O190 Co165 2.351 . S
O190 C193 1.244 . S
O191 Co165 2.155 . S
O191 C193 1.240 . S
O192 Co165 2.096 . S
O192 C173 1.247 . S
C193 O190 1.244 . S
C193 O191 1.240 . S
H194 C168 0.931 . S
H195 C177 0.931 . S
H196 C181 0.929 . S
H197 C183 0.930 . S
Co198 N202 2.148 . S
Co198 N208 2.128 . S
Co198 N218 2.194 . S
Co198 O223 2.351 . S
Co198 O224 2.155 . S
Co198 O225 2.096 . S
C199 N202 1.301 . S
C199 N203 1.328 . S
C199 H204 0.930 . S
C200 C201 1.333 . S
C200 N202 1.317 . S
C200 H205 0.930 . S
C201 C200 1.333 . S
C201 N203 1.350 . S
C201 H227 0.931 . S
N202 Co198 2.148 . S
N202 C199 1.301 . S
N202 C200 1.317 . S
N203 C199 1.328 . S
N203 C201 1.350 . S
H204 C199 0.930 . S
H205 C200 0.930 . S
C206 O207 1.224 . S
C206 O225 1.247 . S
O207 C206 1.224 . S
N208 Co198 2.128 . S
N208 C209 1.355 . S
N208 C211 1.311 . S
C209 N208 1.355 . S
C209 C210 1.363 . S
C209 H221 0.929 . S
C210 C209 1.363 . S
C210 N212 1.375 . S
C210 H228 0.931 . S
C211 N208 1.311 . S
C211 N212 1.347 . S
C211 H222 0.929 . S
N212 C210 1.375 . S
N212 C211 1.347 . S
C213 C216 1.365 . S
C213 N218 1.328 . S
C213 H219 0.929 . S
C214 C215 1.362 . S
C214 C217 1.378 . S
C214 H229 0.929 . S
C215 C214 1.362 . S
C215 C216 1.366 . S
C216 C213 1.365 . S
C216 C215 1.366 . S
C216 H230 0.930 . S
C217 C214 1.378 . S
C217 N218 1.315 . S
C217 H220 0.930 . S
N218 Co198 2.194 . S
N218 C213 1.328 . S
N218 C217 1.315 . S
H219 C213 0.929 . S
H220 C217 0.930 . S
H221 C209 0.929 . S
H222 C211 0.929 . S
O223 Co198 2.351 . S
O223 C226 1.244 . S
O224 Co198 2.155 . S
O224 C226 1.240 . S
O225 Co198 2.096 . S
O225 C206 1.247 . S
C226 O223 1.244 . S
C226 O224 1.240 . S
H227 C201 0.931 . S
H228 C210 0.931 . S
H229 C214 0.929 . S
H230 C216 0.930 . S
Co231 N235 2.148 . S
Co231 N241 2.128 . S
Co231 N251 2.194 . S
Co231 O256 2.351 . S
Co231 O257 2.155 . S
Co231 O258 2.096 . S
C232 N235 1.301 . S
C232 N236 1.328 . S
C232 H237 0.930 . S
C233 C234 1.333 . S
C233 N235 1.317 . S
C233 H238 0.930 . S
C234 C233 1.333 . S
C234 N236 1.350 . S
C234 H260 0.931 . S
N235 Co231 2.148 . S
N235 C232 1.301 . S
N235 C233 1.317 . S
N236 C232 1.328 . S
N236 C234 1.350 . S
H237 C232 0.930 . S
H238 C233 0.930 . S
C239 O240 1.224 . S
C239 O258 1.247 . S
O240 C239 1.224 . S
N241 Co231 2.128 . S
N241 C242 1.355 . S
N241 C244 1.311 . S
C242 N241 1.355 . S
C242 C243 1.363 . S
C242 H254 0.929 . S
C243 C242 1.363 . S
C243 N245 1.375 . S
C243 H261 0.931 . S
C244 N241 1.311 . S
C244 N245 1.347 . S
C244 H255 0.929 . S
N245 C243 1.375 . S
N245 C244 1.347 . S
C246 C249 1.365 . S
C246 N251 1.328 . S
C246 H252 0.929 . S
C247 C248 1.362 . S
C247 C250 1.378 . S
C247 H262 0.929 . S
C248 C247 1.362 . S
C248 C249 1.366 . S
C249 C246 1.365 . S
C249 C248 1.366 . S
C249 H263 0.930 . S
C250 C247 1.378 . S
C250 N251 1.315 . S
C250 H253 0.930 . S
N251 Co231 2.194 . S
N251 C246 1.328 . S
N251 C250 1.315 . S
H252 C246 0.929 . S
H253 C250 0.930 . S
H254 C242 0.929 . S
H255 C244 0.929 . S
O256 Co231 2.351 . S
O256 C259 1.244 . S
O257 Co231 2.155 . S
O257 C259 1.240 . S
O258 Co231 2.096 . S
O258 C239 1.247 . S
C259 O256 1.244 . S
C259 O257 1.240 . S
H260 C234 0.931 . S
H261 C243 0.931 . S
H262 C247 0.929 . S
H263 C249 0.930 . S
Co264 N268 2.148 . S
Co264 N274 2.128 . S
Co264 N284 2.194 . S
Co264 O289 2.351 . S
Co264 O290 2.155 . S
Co264 O291 2.096 . S
C265 N268 1.301 . S
C265 N269 1.328 . S
C265 H270 0.930 . S
C266 C267 1.333 . S
C266 N268 1.317 . S
C266 H271 0.930 . S
C267 C266 1.333 . S
C267 N269 1.350 . S
C267 H293 0.931 . S
N268 Co264 2.148 . S
N268 C265 1.301 . S
N268 C266 1.317 . S
N269 C265 1.328 . S
N269 C267 1.350 . S
H270 C265 0.930 . S
H271 C266 0.930 . S
C272 O273 1.224 . S
C272 O291 1.247 . S
O273 C272 1.224 . S
N274 Co264 2.128 . S
N274 C275 1.355 . S
N274 C277 1.311 . S
C275 N274 1.355 . S
C275 C276 1.363 . S
C275 H287 0.929 . S
C276 C275 1.363 . S
C276 N278 1.375 . S
C276 H294 0.931 . S
C277 N274 1.311 . S
C277 N278 1.347 . S
C277 H288 0.929 . S
N278 C276 1.375 . S
N278 C277 1.347 . S
C279 C282 1.365 . S
C279 N284 1.328 . S
C279 H285 0.929 . S
C280 C281 1.362 . S
C280 C283 1.378 . S
C280 H295 0.929 . S
C281 C280 1.362 . S
C281 C282 1.366 . S
C282 C279 1.365 . S
C282 C281 1.366 . S
C282 H296 0.930 . S
C283 C280 1.378 . S
C283 N284 1.315 . S
C283 H286 0.930 . S
N284 Co264 2.194 . S
N284 C279 1.328 . S
N284 C283 1.315 . S
H285 C279 0.929 . S
H286 C283 0.930 . S
H287 C275 0.929 . S
H288 C277 0.929 . S
O289 Co264 2.351 . S
O289 C292 1.244 . S
O290 Co264 2.155 . S
O290 C292 1.240 . S
O291 Co264 2.096 . S
O291 C272 1.247 . S
C292 O289 1.244 . S
C292 O290 1.240 . S
H293 C267 0.931 . S
H294 C276 0.931 . S
H295 C280 0.929 . S
H296 C282 0.930 . S
Co297 N301 2.148 . S
Co297 N307 2.128 . S
Co297 N317 2.194 . S
Co297 O322 2.351 . S
Co297 O323 2.155 . S
Co297 O324 2.096 . S
C298 N301 1.301 . S
C298 N302 1.328 . S
C298 H303 0.930 . S
C299 C300 1.333 . S
C299 N301 1.317 . S
C299 H304 0.930 . S
C300 C299 1.333 . S
C300 N302 1.350 . S
C300 H326 0.931 . S
N301 Co297 2.148 . S
N301 C298 1.301 . S
N301 C299 1.317 . S
N302 C298 1.328 . S
N302 C300 1.350 . S
H303 C298 0.930 . S
H304 C299 0.930 . S
C305 O306 1.224 . S
C305 O324 1.247 . S
O306 C305 1.224 . S
N307 Co297 2.128 . S
N307 C308 1.355 . S
N307 C310 1.311 . S
C308 N307 1.355 . S
C308 C309 1.363 . S
C308 H320 0.929 . S
C309 C308 1.363 . S
C309 N311 1.375 . S
C309 H327 0.931 . S
C310 N307 1.311 . S
C310 N311 1.347 . S
C310 H321 0.929 . S
N311 C309 1.375 . S
N311 C310 1.347 . S
C312 C315 1.365 . S
C312 N317 1.328 . S
C312 H318 0.929 . S
C313 C314 1.362 . S
C313 C316 1.378 . S
C313 H328 0.929 . S
C314 C313 1.362 . S
C314 C315 1.366 . S
C315 C312 1.365 . S
C315 C314 1.366 . S
C315 H329 0.930 . S
C316 C313 1.378 . S
C316 N317 1.315 . S
C316 H319 0.930 . S
N317 Co297 2.194 . S
N317 C312 1.328 . S
N317 C316 1.315 . S
H318 C312 0.929 . S
H319 C316 0.930 . S
H320 C308 0.929 . S
H321 C310 0.929 . S
O322 Co297 2.351 . S
O322 C325 1.244 . S
O323 Co297 2.155 . S
O323 C325 1.240 . S
O324 Co297 2.096 . S
O324 C305 1.247 . S
C325 O322 1.244 . S
C325 O323 1.240 . S
H326 C300 0.931 . S
H327 C309 0.931 . S
H328 C313 0.929 . S
H329 C315 0.930 . S
Co330 N334 2.148 . S
Co330 N340 2.128 . S
Co330 N350 2.194 . S
Co330 O355 2.351 . S
Co330 O356 2.155 . S
Co330 O357 2.096 . S
C331 N334 1.301 . S
C331 N335 1.328 . S
C331 H336 0.930 . S
C332 C333 1.333 . S
C332 N334 1.317 . S
C332 H337 0.930 . S
C333 C332 1.333 . S
C333 N335 1.350 . S
C333 H359 0.931 . S
N334 Co330 2.148 . S
N334 C331 1.301 . S
N334 C332 1.317 . S
N335 C331 1.328 . S
N335 C333 1.350 . S
H336 C331 0.930 . S
H337 C332 0.930 . S
C338 O339 1.224 . S
C338 O357 1.247 . S
O339 C338 1.224 . S
N340 Co330 2.128 . S
N340 C341 1.355 . S
N340 C343 1.311 . S
C341 N340 1.355 . S
C341 C342 1.363 . S
C341 H353 0.929 . S
C342 C341 1.363 . S
C342 N344 1.375 . S
C342 H360 0.931 . S
C343 N340 1.311 . S
C343 N344 1.347 . S
C343 H354 0.929 . S
N344 C342 1.375 . S
N344 C343 1.347 . S
C345 C348 1.365 . S
C345 N350 1.328 . S
C345 H351 0.929 . S
C346 C347 1.362 . S
C346 C349 1.378 . S
C346 H361 0.929 . S
C347 C346 1.362 . S
C347 C348 1.366 . S
C348 C345 1.365 . S
C348 C347 1.366 . S
C348 H362 0.930 . S
C349 C346 1.378 . S
C349 N350 1.315 . S
C349 H352 0.930 . S
N350 Co330 2.194 . S
N350 C345 1.328 . S
N350 C349 1.315 . S
H351 C345 0.929 . S
H352 C349 0.930 . S
H353 C341 0.929 . S
H354 C343 0.929 . S
O355 Co330 2.351 . S
O355 C358 1.244 . S
O356 Co330 2.155 . S
O356 C358 1.240 . S
O357 Co330 2.096 . S
O357 C338 1.247 . S
C358 O355 1.244 . S
C358 O356 1.240 . S
H359 C333 0.931 . S
H360 C342 0.931 . S
H361 C346 0.929 . S
H362 C348 0.930 . S
Co363 N367 2.148 . S
Co363 N373 2.128 . S
Co363 N383 2.194 . S
Co363 O388 2.351 . S
Co363 O389 2.155 . S
Co363 O390 2.096 . S
C364 N367 1.301 . S
C364 N368 1.328 . S
C364 H369 0.930 . S
C365 C366 1.333 . S
C365 N367 1.317 . S
C365 H370 0.930 . S
C366 C365 1.333 . S
C366 N368 1.350 . S
C366 H392 0.931 . S
N367 Co363 2.148 . S
N367 C364 1.301 . S
N367 C365 1.317 . S
N368 C364 1.328 . S
N368 C366 1.350 . S
H369 C364 0.930 . S
H370 C365 0.930 . S
C371 O372 1.224 . S
C371 O390 1.247 . S
O372 C371 1.224 . S
N373 Co363 2.128 . S
N373 C374 1.355 . S
N373 C376 1.311 . S
C374 N373 1.355 . S
C374 C375 1.363 . S
C374 H386 0.929 . S
C375 C374 1.363 . S
C375 N377 1.375 . S
C375 H393 0.931 . S
C376 N373 1.311 . S
C376 N377 1.347 . S
C376 H387 0.929 . S
N377 C375 1.375 . S
N377 C376 1.347 . S
C378 C381 1.365 . S
C378 N383 1.328 . S
C378 H384 0.929 . S
C379 C380 1.362 . S
C379 C382 1.378 . S
C379 H394 0.929 . S
C380 C379 1.362 . S
C380 C381 1.366 . S
C381 C378 1.365 . S
C381 C380 1.366 . S
C381 H395 0.930 . S
C382 C379 1.378 . S
C382 N383 1.315 . S
C382 H385 0.930 . S
N383 Co363 2.194 . S
N383 C378 1.328 . S
N383 C382 1.315 . S
H384 C378 0.929 . S
H385 C382 0.930 . S
H386 C374 0.929 . S
H387 C376 0.929 . S
O388 Co363 2.351 . S
O388 C391 1.244 . S
O389 Co363 2.155 . S
O389 C391 1.240 . S
O390 Co363 2.096 . S
O390 C371 1.247 . S
C391 O388 1.244 . S
C391 O389 1.240 . S
H392 C366 0.931 . S
H393 C375 0.931 . S
H394 C379 0.929 . S
H395 C381 0.930 . S
Co396 N400 2.148 . S
Co396 N406 2.128 . S
Co396 N416 2.194 . S
Co396 O421 2.351 . S
Co396 O422 2.155 . S
Co396 O423 2.096 . S
C397 N400 1.301 . S
C397 N401 1.328 . S
C397 H402 0.930 . S
C398 C399 1.333 . S
C398 N400 1.317 . S
C398 H403 0.930 . S
C399 C398 1.333 . S
C399 N401 1.350 . S
C399 H425 0.931 . S
N400 Co396 2.148 . S
N400 C397 1.301 . S
N400 C398 1.317 . S
N401 C397 1.328 . S
N401 C399 1.350 . S
H402 C397 0.930 . S
H403 C398 0.930 . S
C404 O405 1.224 . S
C404 O423 1.247 . S
O405 C404 1.224 . S
N406 Co396 2.128 . S
N406 C407 1.355 . S
N406 C409 1.311 . S
C407 N406 1.355 . S
C407 C408 1.363 . S
C407 H419 0.929 . S
C408 C407 1.363 . S
C408 N410 1.375 . S
C408 H426 0.931 . S
C409 N406 1.311 . S
C409 N410 1.347 . S
C409 H420 0.929 . S
N410 C408 1.375 . S
N410 C409 1.347 . S
C411 C414 1.365 . S
C411 N416 1.328 . S
C411 H417 0.929 . S
C412 C413 1.362 . S
C412 C415 1.378 . S
C412 H427 0.929 . S
C413 C412 1.362 . S
C413 C414 1.366 . S
C414 C411 1.365 . S
C414 C413 1.366 . S
C414 H428 0.930 . S
C415 C412 1.378 . S
C415 N416 1.315 . S
C415 H418 0.930 . S
N416 Co396 2.194 . S
N416 C411 1.328 . S
N416 C415 1.315 . S
H417 C411 0.929 . S
H418 C415 0.930 . S
H419 C407 0.929 . S
H420 C409 0.929 . S
O421 Co396 2.351 . S
O421 C424 1.244 . S
O422 Co396 2.155 . S
O422 C424 1.240 . S
O423 Co396 2.096 . S
O423 C404 1.247 . S
C424 O421 1.244 . S
C424 O422 1.240 . S
H425 C399 0.931 . S
H426 C408 0.931 . S
H427 C412 0.929 . S
H428 C414 0.930 . S
Co429 N433 2.148 . S
Co429 N439 2.128 . S
Co429 N449 2.194 . S
Co429 O454 2.351 . S
Co429 O455 2.155 . S
Co429 O456 2.096 . S
C430 N433 1.301 . S
C430 N434 1.328 . S
C430 H435 0.930 . S
C431 C432 1.333 . S
C431 N433 1.317 . S
C431 H436 0.930 . S
C432 C431 1.333 . S
C432 N434 1.350 . S
C432 H458 0.931 . S
N433 Co429 2.148 . S
N433 C430 1.301 . S
N433 C431 1.317 . S
N434 C430 1.328 . S
N434 C432 1.350 . S
H435 C430 0.930 . S
H436 C431 0.930 . S
C437 O438 1.224 . S
C437 O456 1.247 . S
O438 C437 1.224 . S
N439 Co429 2.128 . S
N439 C440 1.355 . S
N439 C442 1.311 . S
C440 N439 1.355 . S
C440 C441 1.363 . S
C440 H452 0.929 . S
C441 C440 1.363 . S
C441 N443 1.375 . S
C441 H459 0.931 . S
C442 N439 1.311 . S
C442 N443 1.347 . S
C442 H453 0.929 . S
N443 C441 1.375 . S
N443 C442 1.347 . S
C444 C447 1.365 . S
C444 N449 1.328 . S
C444 H450 0.929 . S
C445 C446 1.362 . S
C445 C448 1.378 . S
C445 H460 0.929 . S
C446 C445 1.362 . S
C446 C447 1.366 . S
C447 C444 1.365 . S
C447 C446 1.366 . S
C447 H461 0.930 . S
C448 C445 1.378 . S
C448 N449 1.315 . S
C448 H451 0.930 . S
N449 Co429 2.194 . S
N449 C444 1.328 . S
N449 C448 1.315 . S
H450 C444 0.929 . S
H451 C448 0.930 . S
H452 C440 0.929 . S
H453 C442 0.929 . S
O454 Co429 2.351 . S
O454 C457 1.244 . S
O455 Co429 2.155 . S
O455 C457 1.240 . S
O456 Co429 2.096 . S
O456 C437 1.247 . S
C457 O454 1.244 . S
C457 O455 1.240 . S
H458 C432 0.931 . S
H459 C441 0.931 . S
H460 C445 0.929 . S
H461 C447 0.930 . S
Co462 N466 2.148 . S
Co462 N472 2.128 . S
Co462 N482 2.194 . S
Co462 O487 2.351 . S
Co462 O488 2.155 . S
Co462 O489 2.096 . S
C463 N466 1.301 . S
C463 N467 1.328 . S
C463 H468 0.930 . S
C464 C465 1.333 . S
C464 N466 1.317 . S
C464 H469 0.930 . S
C465 C464 1.333 . S
C465 N467 1.350 . S
C465 H491 0.931 . S
N466 Co462 2.148 . S
N466 C463 1.301 . S
N466 C464 1.317 . S
N467 C463 1.328 . S
N467 C465 1.350 . S
H468 C463 0.930 . S
H469 C464 0.930 . S
C470 O471 1.224 . S
C470 O489 1.247 . S
O471 C470 1.224 . S
N472 Co462 2.128 . S
N472 C473 1.355 . S
N472 C475 1.311 . S
C473 N472 1.355 . S
C473 C474 1.363 . S
C473 H485 0.929 . S
C474 C473 1.363 . S
C474 N476 1.375 . S
C474 H492 0.931 . S
C475 N472 1.311 . S
C475 N476 1.347 . S
C475 H486 0.929 . S
N476 C474 1.375 . S
N476 C475 1.347 . S
C477 C480 1.365 . S
C477 N482 1.328 . S
C477 H483 0.929 . S
C478 C479 1.362 . S
C478 C481 1.378 . S
C478 H493 0.929 . S
C479 C478 1.362 . S
C479 C480 1.366 . S
C480 C477 1.365 . S
C480 C479 1.366 . S
C480 H494 0.930 . S
C481 C478 1.378 . S
C481 N482 1.315 . S
C481 H484 0.930 . S
N482 Co462 2.194 . S
N482 C477 1.328 . S
N482 C481 1.315 . S
H483 C477 0.929 . S
H484 C481 0.930 . S
H485 C473 0.929 . S
H486 C475 0.929 . S
O487 Co462 2.351 . S
O487 C490 1.244 . S
O488 Co462 2.155 . S
O488 C490 1.240 . S
O489 Co462 2.096 . S
O489 C470 1.247 . S
C490 O487 1.244 . S
C490 O488 1.240 . S
H491 C465 0.931 . S
H492 C474 0.931 . S
H493 C478 0.929 . S
H494 C480 0.930 . S
Co495 N499 2.148 . S
Co495 N505 2.128 . S
Co495 N515 2.194 . S
Co495 O520 2.351 . S
Co495 O521 2.155 . S
Co495 O522 2.096 . S
C496 N499 1.301 . S
C496 N500 1.328 . S
C496 H501 0.930 . S
C497 C498 1.333 . S
C497 N499 1.317 . S
C497 H502 0.930 . S
C498 C497 1.333 . S
C498 N500 1.350 . S
C498 H524 0.931 . S
N499 Co495 2.148 . S
N499 C496 1.301 . S
N499 C497 1.317 . S
N500 C496 1.328 . S
N500 C498 1.350 . S
H501 C496 0.930 . S
H502 C497 0.930 . S
C503 O504 1.224 . S
C503 O522 1.247 . S
O504 C503 1.224 . S
N505 Co495 2.128 . S
N505 C506 1.355 . S
N505 C508 1.311 . S
C506 N505 1.355 . S
C506 C507 1.363 . S
C506 H518 0.929 . S
C507 C506 1.363 . S
C507 N509 1.375 . S
C507 H525 0.931 . S
C508 N505 1.311 . S
C508 N509 1.347 . S
C508 H519 0.929 . S
N509 C507 1.375 . S
N509 C508 1.347 . S
C510 C513 1.365 . S
C510 N515 1.328 . S
C510 H516 0.929 . S
C511 C512 1.362 . S
C511 C514 1.378 . S
C511 H526 0.929 . S
C512 C511 1.362 . S
C512 C513 1.366 . S
C513 C510 1.365 . S
C513 C512 1.366 . S
C513 H527 0.930 . S
C514 C511 1.378 . S
C514 N515 1.315 . S
C514 H517 0.930 . S
N515 Co495 2.194 . S
N515 C510 1.328 . S
N515 C514 1.315 . S
H516 C510 0.929 . S
H517 C514 0.930 . S
H518 C506 0.929 . S
H519 C508 0.929 . S
O520 Co495 2.351 . S
O520 C523 1.244 . S
O521 Co495 2.155 . S
O521 C523 1.240 . S
O522 Co495 2.096 . S
O522 C503 1.247 . S
C523 O520 1.244 . S
C523 O521 1.240 . S
H524 C498 0.931 . S
H525 C507 0.931 . S
H526 C511 0.929 . S
H527 C513 0.930 . S
C528 C529 1.349 . S
C528 C530 1.327 . S
C528 H553 0.950 . S
C529 C528 1.349 . S
C529 C545 1.349 . S
C530 C528 1.327 . S
C530 C549 1.429 . S
C530 H554 0.950 . S
C531 C548 1.574 . S
C531 C550 1.368 . S
C531 H555 0.949 . S
H532 C536 0.949 . S
C533 C534 1.349 . S
C533 C535 1.327 . S
C533 H556 0.950 . S
C534 C533 1.349 . S
C534 C546 1.349 . S
C535 C533 1.327 . S
C535 C551 1.429 . S
C535 H557 0.950 . S
C536 H532 0.949 . S
C536 C544 1.574 . S
C536 C552 1.368 . S
H537 C545 0.950 . S
H538 C543 0.950 . S
H539 C544 0.949 . S
H540 C546 0.950 . S
H541 C547 0.950 . S
H542 C548 0.949 . S
C543 H538 0.950 . S
C543 C545 1.327 . S
C543 C549 1.429 . S
C544 C536 1.574 . S
C544 H539 0.949 . S
C544 C550 1.368 1_455 S
C545 C529 1.349 . S
C545 H537 0.950 . S
C545 C543 1.327 . S
C546 C534 1.349 . S
C546 H540 0.950 . S
C546 C547 1.327 . S
C547 H541 0.950 . S
C547 C546 1.327 . S
C547 C551 1.429 . S
C548 C531 1.574 . S
C548 H542 0.949 . S
C548 C552 1.368 1_655 S
C549 C530 1.429 . S
C549 C543 1.429 . S
C549 C550 1.523 . S
C550 C531 1.368 . S
C550 C544 1.368 1_655 S
C550 C549 1.523 . S
C551 C535 1.429 . S
C551 C547 1.429 . S
C551 C552 1.523 . S
C552 C536 1.368 . S
C552 C548 1.368 1_455 S
C552 C551 1.523 . S
H553 C528 0.950 . S
H554 C530 0.950 . S
H555 C531 0.949 . S
H556 C533 0.950 . S
H557 C535 0.950 . S
C558 C559 1.349 . S
C558 C560 1.327 . S
C558 H583 0.950 . S
C559 C558 1.349 . S
C559 C575 1.349 . S
C560 C558 1.327 . S
C560 C579 1.429 . S
C560 H584 0.950 . S
C561 C578 1.574 . S
C561 C580 1.368 . S
C561 H585 0.949 . S
H562 C566 0.949 . S
C563 C564 1.349 . S
C563 C565 1.327 . S
C563 H586 0.950 . S
C564 C563 1.349 . S
C564 C576 1.349 . S
C565 C563 1.327 . S
C565 C581 1.429 . S
C565 H587 0.950 . S
C566 H562 0.949 . S
C566 C574 1.574 . S
C566 C582 1.368 . S
H567 C575 0.950 . S
H568 C573 0.950 . S
H569 C574 0.949 . S
H570 C576 0.950 . S
H571 C577 0.950 . S
H572 C578 0.949 . S
C573 H568 0.950 . S
C573 C575 1.327 . S
C573 C579 1.429 . S
C574 C566 1.574 . S
C574 H569 0.949 . S
C574 C580 1.368 . S
C575 C559 1.349 . S
C575 H567 0.950 . S
C575 C573 1.327 . S
C576 C564 1.349 . S
C576 H570 0.950 . S
C576 C577 1.327 . S
C577 H571 0.950 . S
C577 C576 1.327 . S
C577 C581 1.429 . S
C578 C561 1.574 . S
C578 H572 0.949 . S
C578 C582 1.368 . S
C579 C560 1.429 . S
C579 C573 1.429 . S
C579 C580 1.523 . S
C580 C561 1.368 . S
C580 C574 1.368 . S
C580 C579 1.523 . S
C581 C565 1.429 . S
C581 C577 1.429 . S
C581 C582 1.523 . S
C582 C566 1.368 . S
C582 C578 1.368 . S
C582 C581 1.523 . S
H583 C558 0.950 . S
H584 C560 0.950 . S
H585 C561 0.949 . S
H586 C563 0.950 . S
H587 C565 0.950 . S
C588 C589 1.349 . S
C588 C590 1.327 . S
C588 H613 0.950 . S
C589 C588 1.349 . S
C589 C605 1.349 . S
C590 C588 1.327 . S
C590 C609 1.429 . S
C590 H614 0.950 . S
C591 C608 1.574 . S
C591 C610 1.368 . S
C591 H615 0.949 . S
H592 C596 0.949 . S
C593 C594 1.349 . S
C593 C595 1.327 . S
C593 H616 0.950 . S
C594 C593 1.349 . S
C594 C606 1.349 . S
C595 C593 1.327 . S
C595 C611 1.429 . S
C595 H617 0.950 . S
C596 H592 0.949 . S
C596 C604 1.574 . S
C596 C612 1.368 . S
H597 C605 0.950 . S
H598 C603 0.950 . S
H599 C604 0.949 . S
H600 C606 0.950 . S
H601 C607 0.950 . S
H602 C608 0.949 . S
C603 H598 0.950 . S
C603 C605 1.327 . S
C603 C609 1.429 . S
C604 C596 1.574 . S
C604 H599 0.949 . S
C604 C610 1.368 1_455 S
C605 C589 1.349 . S
C605 H597 0.950 . S
C605 C603 1.327 . S
C606 C594 1.349 . S
C606 H600 0.950 . S
C606 C607 1.327 . S
C607 H601 0.950 . S
C607 C606 1.327 . S
C607 C611 1.429 . S
C608 C591 1.574 . S
C608 H602 0.949 . S
C608 C612 1.368 1_655 S
C609 C590 1.429 . S
C609 C603 1.429 . S
C609 C610 1.523 . S
C610 C591 1.368 . S
C610 C604 1.368 1_655 S
C610 C609 1.523 . S
C611 C595 1.429 . S
C611 C607 1.429 . S
C611 C612 1.523 . S
C612 C596 1.368 . S
C612 C608 1.368 1_455 S
C612 C611 1.523 . S
H613 C588 0.950 . S
H614 C590 0.950 . S
H615 C591 0.949 . S
H616 C593 0.950 . S
H617 C595 0.950 . S
C618 C619 1.349 . S
C618 C620 1.327 . S
C618 H643 0.950 . S
C619 C618 1.349 . S
C619 C635 1.349 . S
C620 C618 1.327 . S
C620 C639 1.429 . S
C620 H644 0.950 . S
C621 C638 1.574 . S
C621 C640 1.368 . S
C621 H645 0.949 . S
H622 C626 0.949 . S
C623 C624 1.349 . S
C623 C625 1.327 . S
C623 H646 0.950 . S
C624 C623 1.349 . S
C624 C636 1.349 . S
C625 C623 1.327 . S
C625 C641 1.429 . S
C625 H647 0.950 . S
C626 H622 0.949 . S
C626 C634 1.574 . S
C626 C642 1.368 . S
H627 C635 0.950 . S
H628 C633 0.950 . S
H629 C634 0.949 . S
H630 C636 0.950 . S
H631 C637 0.950 . S
H632 C638 0.949 . S
C633 H628 0.950 . S
C633 C635 1.327 . S
C633 C639 1.429 . S
C634 C626 1.574 . S
C634 H629 0.949 . S
C634 C640 1.368 . S
C635 C619 1.349 . S
C635 H627 0.950 . S
C635 C633 1.327 . S
C636 C624 1.349 . S
C636 H630 0.950 . S
C636 C637 1.327 . S
C637 H631 0.950 . S
C637 C636 1.327 . S
C637 C641 1.429 . S
C638 C621 1.574 . S
C638 H632 0.949 . S
C638 C642 1.368 . S
C639 C620 1.429 . S
C639 C633 1.429 . S
C639 C640 1.523 . S
C640 C621 1.368 . S
C640 C634 1.368 . S
C640 C639 1.523 . S
C641 C625 1.429 . S
C641 C637 1.429 . S
C641 C642 1.523 . S
C642 C626 1.368 . S
C642 C638 1.368 . S
C642 C641 1.523 . S
H643 C618 0.950 . S
H644 C620 0.950 . S
H645 C621 0.949 . S
H646 C623 0.950 . S
H647 C625 0.950 . S
C648 C649 1.349 . S
C648 C650 1.327 . S
C648 H673 0.950 . S
C649 C648 1.349 . S
C649 C665 1.349 . S
C650 C648 1.327 . S
C650 C669 1.429 . S
C650 H674 0.950 . S
C651 C668 1.574 . S
C651 C670 1.368 . S
C651 H675 0.949 . S
H652 C656 0.949 . S
C653 C654 1.349 . S
C653 C655 1.327 . S
C653 H676 0.950 . S
C654 C653 1.349 . S
C654 C666 1.349 . S
C655 C653 1.327 . S
C655 C671 1.429 . S
C655 H677 0.950 . S
C656 H652 0.949 . S
C656 C664 1.574 . S
C656 C672 1.368 . S
H657 C665 0.950 . S
H658 C663 0.950 . S
H659 C664 0.949 . S
H660 C666 0.950 . S
H661 C667 0.950 . S
H662 C668 0.949 . S
C663 H658 0.950 . S
C663 C665 1.327 . S
C663 C669 1.429 . S
C664 C656 1.574 . S
C664 H659 0.949 . S
C664 C670 1.368 . S
C665 C649 1.349 . S
C665 H657 0.950 . S
C665 C663 1.327 . S
C666 C654 1.349 . S
C666 H660 0.950 . S
C666 C667 1.327 . S
C667 H661 0.950 . S
C667 C666 1.327 . S
C667 C671 1.429 . S
C668 C651 1.574 . S
C668 H662 0.949 . S
C668 C672 1.368 . S
C669 C650 1.429 . S
C669 C663 1.429 . S
C669 C670 1.523 . S
C670 C651 1.368 . S
C670 C664 1.368 . S
C670 C669 1.523 . S
C671 C655 1.429 . S
C671 C667 1.429 . S
C671 C672 1.523 . S
C672 C656 1.368 . S
C672 C668 1.368 . S
C672 C671 1.523 . S
H673 C648 0.950 . S
H674 C650 0.950 . S
H675 C651 0.949 . S
H676 C653 0.950 . S
H677 C655 0.950 . S
C678 C679 1.349 . S
C678 C680 1.327 . S
C678 H703 0.950 . S
C679 C678 1.349 . S
C679 C695 1.349 . S
C680 C678 1.327 . S
C680 C699 1.429 . S
C680 H704 0.950 . S
C681 C698 1.574 . S
C681 C700 1.368 1_455 S
C681 H705 0.949 . S
H682 C686 0.949 . S
C683 C684 1.349 . S
C683 C685 1.327 . S
C683 H706 0.950 . S
C684 C683 1.349 . S
C684 C696 1.349 . S
C685 C683 1.327 . S
C685 C701 1.429 . S
C685 H707 0.950 . S
C686 H682 0.949 . S
C686 C694 1.574 . S
C686 C702 1.368 1_655 S
H687 C695 0.950 . S
H688 C693 0.950 . S
H689 C694 0.949 . S
H690 C696 0.950 . S
H691 C697 0.950 . S
H692 C698 0.949 . S
C693 H688 0.950 . S
C693 C695 1.327 . S
C693 C699 1.429 . S
C694 C686 1.574 . S
C694 H689 0.949 . S
C694 C700 1.368 . S
C695 C679 1.349 . S
C695 H687 0.950 . S
C695 C693 1.327 . S
C696 C684 1.349 . S
C696 H690 0.950 . S
C696 C697 1.327 . S
C697 H691 0.950 . S
C697 C696 1.327 . S
C697 C701 1.429 . S
C698 C681 1.574 . S
C698 H692 0.949 . S
C698 C702 1.368 . S
C699 C680 1.429 . S
C699 C693 1.429 . S
C699 C700 1.523 . S
C700 C681 1.368 1_655 S
C700 C694 1.368 . S
C700 C699 1.523 . S
C701 C685 1.429 . S
C701 C697 1.429 . S
C701 C702 1.523 . S
C702 C686 1.368 1_455 S
C702 C698 1.368 . S
C702 C701 1.523 . S
H703 C678 0.950 . S
H704 C680 0.950 . S
H705 C681 0.949 . S
H706 C683 0.950 . S
H707 C685 0.950 . S
C708 C709 1.349 . S
C708 C710 1.327 . S
C708 H733 0.950 . S
C709 C708 1.349 . S
C709 C725 1.349 . S
C710 C708 1.327 . S
C710 C729 1.429 . S
C710 H734 0.950 . S
C711 C728 1.574 . S
C711 C730 1.368 . S
C711 H735 0.949 . S
H712 C716 0.949 . S
C713 C714 1.349 . S
C713 C715 1.327 . S
C713 H736 0.950 . S
C714 C713 1.349 . S
C714 C726 1.349 . S
C715 C713 1.327 . S
C715 C731 1.429 . S
C715 H737 0.950 . S
C716 H712 0.949 . S
C716 C724 1.574 . S
C716 C732 1.368 . S
H717 C725 0.950 . S
H718 C723 0.950 . S
H719 C724 0.949 . S
H720 C726 0.950 . S
H721 C727 0.950 . S
H722 C728 0.949 . S
C723 H718 0.950 . S
C723 C725 1.327 . S
C723 C729 1.429 . S
C724 C716 1.574 . S
C724 H719 0.949 . S
C724 C730 1.368 . S
C725 C709 1.349 . S
C725 H717 0.950 . S
C725 C723 1.327 . S
C726 C714 1.349 . S
C726 H720 0.950 . S
C726 C727 1.327 . S
C727 H721 0.950 . S
C727 C726 1.327 . S
C727 C731 1.429 . S
C728 C711 1.574 . S
C728 H722 0.949 . S
C728 C732 1.368 . S
C729 C710 1.429 . S
C729 C723 1.429 . S
C729 C730 1.523 . S
C730 C711 1.368 . S
C730 C724 1.368 . S
C730 C729 1.523 . S
C731 C715 1.429 . S
C731 C727 1.429 . S
C731 C732 1.523 . S
C732 C716 1.368 . S
C732 C728 1.368 . S
C732 C731 1.523 . S
H733 C708 0.950 . S
H734 C710 0.950 . S
H735 C711 0.949 . S
H736 C713 0.950 . S
H737 C715 0.950 . S
C738 C739 1.349 . S
C738 C740 1.327 . S
C738 H763 0.950 . S
C739 C738 1.349 . S
C739 C755 1.349 . S
C740 C738 1.327 . S
C740 C759 1.429 . S
C740 H764 0.950 . S
C741 C758 1.574 . S
C741 C760 1.368 1_455 S
C741 H765 0.949 . S
H742 C746 0.949 . S
C743 C744 1.349 . S
C743 C745 1.327 . S
C743 H766 0.950 . S
C744 C743 1.349 . S
C744 C756 1.349 . S
C745 C743 1.327 . S
C745 C761 1.429 . S
C745 H767 0.950 . S
C746 H742 0.949 . S
C746 C754 1.574 . S
C746 C762 1.368 1_655 S
H747 C755 0.950 . S
H748 C753 0.950 . S
H749 C754 0.949 . S
H750 C756 0.950 . S
H751 C757 0.950 . S
H752 C758 0.949 . S
C753 H748 0.950 . S
C753 C755 1.327 . S
C753 C759 1.429 . S
C754 C746 1.574 . S
C754 H749 0.949 . S
C754 C760 1.368 . S
C755 C739 1.349 . S
C755 H747 0.950 . S
C755 C753 1.327 . S
C756 C744 1.349 . S
C756 H750 0.950 . S
C756 C757 1.327 . S
C757 H751 0.950 . S
C757 C756 1.327 . S
C757 C761 1.429 . S
C758 C741 1.574 . S
C758 H752 0.949 . S
C758 C762 1.368 . S
C759 C740 1.429 . S
C759 C753 1.429 . S
C759 C760 1.523 . S
C760 C741 1.368 1_655 S
C760 C754 1.368 . S
C760 C759 1.523 . S
C761 C745 1.429 . S
C761 C757 1.429 . S
C761 C762 1.523 . S
C762 C746 1.368 1_455 S
C762 C758 1.368 . S
C762 C761 1.523 . S
H763 C738 0.950 . S
H764 C740 0.950 . S
H765 C741 0.949 . S
H766 C743 0.950 . S
H767 C745 0.950 . S
C768 C769 1.349 . S
C768 C770 1.327 . S
C768 H793 0.950 . S
C769 C768 1.349 . S
C769 C785 1.349 . S
C770 C768 1.327 . S
C770 C789 1.429 . S
C770 H794 0.950 . S
C771 C788 1.574 . S
C771 C790 1.368 . S
C771 H795 0.949 . S
H772 C776 0.949 . S
C773 C774 1.349 . S
C773 C775 1.327 . S
C773 H796 0.950 . S
C774 C773 1.349 . S
C774 C786 1.349 . S
C775 C773 1.327 . S
C775 C791 1.429 . S
C775 H797 0.950 . S
C776 H772 0.949 . S
C776 C784 1.574 . S
C776 C792 1.368 . S
H777 C785 0.950 . S
H778 C783 0.950 . S
H779 C784 0.949 . S
H780 C786 0.950 . S
H781 C787 0.950 . S
H782 C788 0.949 . S
C783 H778 0.950 . S
C783 C785 1.327 . S
C783 C789 1.429 . S
C784 C776 1.574 . S
C784 H779 0.949 . S
C784 C790 1.368 . S
C785 C769 1.349 . S
C785 H777 0.950 . S
C785 C783 1.327 . S
C786 C774 1.349 . S
C786 H780 0.950 . S
C786 C787 1.327 . S
C787 H781 0.950 . S
C787 C786 1.327 . S
C787 C791 1.429 . S
C788 C771 1.574 . S
C788 H782 0.949 . S
C788 C792 1.368 . S
C789 C770 1.429 . S
C789 C783 1.429 . S
C789 C790 1.523 . S
C790 C771 1.368 . S
C790 C784 1.368 . S
C790 C789 1.523 . S
C791 C775 1.429 . S
C791 C787 1.429 . S
C791 C792 1.523 . S
C792 C776 1.368 . S
C792 C788 1.368 . S
C792 C791 1.523 . S
H793 C768 0.950 . S
H794 C770 0.950 . S
H795 C771 0.949 . S
H796 C773 0.950 . S
H797 C775 0.950 . S
C798 C799 1.349 . S
C798 C800 1.327 . S
C798 H823 0.950 . S
C799 C798 1.349 . S
C799 C815 1.349 . S
C800 C798 1.327 . S
C800 C819 1.429 . S
C800 H824 0.950 . S
C801 C818 1.574 . S
C801 C820 1.368 . S
C801 H825 0.949 . S
H802 C806 0.949 . S
C803 C804 1.349 . S
C803 C805 1.327 . S
C803 H826 0.950 . S
C804 C803 1.349 . S
C804 C816 1.349 . S
C805 C803 1.327 . S
C805 C821 1.429 . S
C805 H827 0.950 . S
C806 H802 0.949 . S
C806 C814 1.574 . S
C806 C822 1.368 . S
H807 C815 0.950 . S
H808 C813 0.950 . S
H809 C814 0.949 . S
H810 C816 0.950 . S
H811 C817 0.950 . S
H812 C818 0.949 . S
C813 H808 0.950 . S
C813 C815 1.327 . S
C813 C819 1.429 . S
C814 C806 1.574 . S
C814 H809 0.949 . S
C814 C820 1.368 . S
C815 C799 1.349 . S
C815 H807 0.950 . S
C815 C813 1.327 . S
C816 C804 1.349 . S
C816 H810 0.950 . S
C816 C817 1.327 . S
C817 H811 0.950 . S
C817 C816 1.327 . S
C817 C821 1.429 . S
C818 C801 1.574 . S
C818 H812 0.949 . S
C818 C822 1.368 . S
C819 C800 1.429 . S
C819 C813 1.429 . S
C819 C820 1.523 . S
C820 C801 1.368 . S
C820 C814 1.368 . S
C820 C819 1.523 . S
C821 C805 1.429 . S
C821 C817 1.429 . S
C821 C822 1.523 . S
C822 C806 1.368 . S
C822 C818 1.368 . S
C822 C821 1.523 . S
H823 C798 0.950 . S
H824 C800 0.950 . S
H825 C801 0.949 . S
H826 C803 0.950 . S
H827 C805 0.950 . S
C828 C829 1.349 . S
C828 C830 1.327 . S
C828 H853 0.950 . S
C829 C828 1.349 . S
C829 C845 1.349 . S
C830 C828 1.327 . S
C830 C849 1.429 . S
C830 H854 0.950 . S
C831 C848 1.574 . S
C831 C850 1.368 . S
C831 H855 0.949 . S
H832 C836 0.949 . S
C833 C834 1.349 . S
C833 C835 1.327 . S
C833 H856 0.950 . S
C834 C833 1.349 . S
C834 C846 1.349 . S
C835 C833 1.327 . S
C835 C851 1.429 . S
C835 H857 0.950 . S
C836 H832 0.949 . S
C836 C844 1.574 . S
C836 C852 1.368 . S
H837 C845 0.950 . S
H838 C843 0.950 . S
H839 C844 0.949 . S
H840 C846 0.950 . S
H841 C847 0.950 . S
H842 C848 0.949 . S
C843 H838 0.950 . S
C843 C845 1.327 . S
C843 C849 1.429 . S
C844 C836 1.574 . S
C844 H839 0.949 . S
C844 C850 1.368 . S
C845 C829 1.349 . S
C845 H837 0.950 . S
C845 C843 1.327 . S
C846 C834 1.349 . S
C846 H840 0.950 . S
C846 C847 1.327 . S
C847 H841 0.950 . S
C847 C846 1.327 . S
C847 C851 1.429 . S
C848 C831 1.574 . S
C848 H842 0.949 . S
C848 C852 1.368 . S
C849 C830 1.429 . S
C849 C843 1.429 . S
C849 C850 1.523 . S
C850 C831 1.368 . S
C850 C844 1.368 . S
C850 C849 1.523 . S
C851 C835 1.429 . S
C851 C847 1.429 . S
C851 C852 1.523 . S
C852 C836 1.368 . S
C852 C848 1.368 . S
C852 C851 1.523 . S
H853 C828 0.950 . S
H854 C830 0.950 . S
H855 C831 0.949 . S
H856 C833 0.950 . S
H857 C835 0.950 . S
C858 C859 1.349 . S
C858 C860 1.327 . S
C858 H883 0.950 . S
C859 C858 1.349 . S
C859 C875 1.349 . S
C860 C858 1.327 . S
C860 C879 1.429 . S
C860 H884 0.950 . S
C861 C878 1.574 . S
C861 C880 1.368 . S
C861 H885 0.949 . S
H862 C866 0.949 . S
C863 C864 1.349 . S
C863 C865 1.327 . S
C863 H886 0.950 . S
C864 C863 1.349 . S
C864 C876 1.349 . S
C865 C863 1.327 . S
C865 C881 1.429 . S
C865 H887 0.950 . S
C866 H862 0.949 . S
C866 C874 1.574 . S
C866 C882 1.368 . S
H867 C875 0.950 . S
H868 C873 0.950 . S
H869 C874 0.949 . S
H870 C876 0.950 . S
H871 C877 0.950 . S
H872 C878 0.949 . S
C873 H868 0.950 . S
C873 C875 1.327 . S
C873 C879 1.429 . S
C874 C866 1.574 . S
C874 H869 0.949 . S
C874 C880 1.368 . S
C875 C859 1.349 . S
C875 H867 0.950 . S
C875 C873 1.327 . S
C876 C864 1.349 . S
C876 H870 0.950 . S
C876 C877 1.327 . S
C877 H871 0.950 . S
C877 C876 1.327 . S
C877 C881 1.429 . S
C878 C861 1.574 . S
C878 H872 0.949 . S
C878 C882 1.368 . S
C879 C860 1.429 . S
C879 C873 1.429 . S
C879 C880 1.523 . S
C880 C861 1.368 . S
C880 C874 1.368 . S
C880 C879 1.523 . S
C881 C865 1.429 . S
C881 C877 1.429 . S
C881 C882 1.523 . S
C882 C866 1.368 . S
C882 C878 1.368 . S
C882 C881 1.523 . S
H883 C858 0.950 . S
H884 C860 0.950 . S
H885 C861 0.949 . S
H886 C863 0.950 . S
H887 C865 0.950 . S
C888 C889 1.349 . S
C888 C890 1.327 . S
C888 H913 0.950 . S
C889 C888 1.349 . S
C889 C905 1.349 . S
C890 C888 1.327 . S
C890 C909 1.429 . S
C890 H914 0.950 . S
C891 C908 1.574 . S
C891 C910 1.368 . S
C891 H915 0.949 . S
H892 C896 0.949 . S
C893 C894 1.349 . S
C893 C895 1.327 . S
C893 H916 0.950 . S
C894 C893 1.349 . S
C894 C906 1.349 . S
C895 C893 1.327 . S
C895 C911 1.429 . S
C895 H917 0.950 . S
C896 H892 0.949 . S
C896 C904 1.574 . S
C896 C912 1.368 . S
H897 C905 0.950 . S
H898 C903 0.950 . S
H899 C904 0.949 . S
H900 C906 0.950 . S
H901 C907 0.950 . S
H902 C908 0.949 . S
C903 H898 0.950 . S
C903 C905 1.327 . S
C903 C909 1.429 . S
C904 C896 1.574 . S
C904 H899 0.949 . S
C904 C910 1.368 . S
C905 C889 1.349 . S
C905 H897 0.950 . S
C905 C903 1.327 . S
C906 C894 1.349 . S
C906 H900 0.950 . S
C906 C907 1.327 . S
C907 H901 0.950 . S
C907 C906 1.327 . S
C907 C911 1.429 . S
C908 C891 1.574 . S
C908 H902 0.949 . S
C908 C912 1.368 . S
C909 C890 1.429 . S
C909 C903 1.429 . S
C909 C910 1.523 . S
C910 C891 1.368 . S
C910 C904 1.368 . S
C910 C909 1.523 . S
C911 C895 1.429 . S
C911 C907 1.429 . S
C911 C912 1.523 . S
C912 C896 1.368 . S
C912 C908 1.368 . S
C912 C911 1.523 . S
H913 C888 0.950 . S
H914 C890 0.950 . S
H915 C891 0.949 . S
H916 C893 0.950 . S
H917 C895 0.950 . S
C918 C919 1.349 . S
C918 C920 1.327 . S
C918 H943 0.950 . S
C919 C918 1.349 . S
C919 C935 1.349 . S
C920 C918 1.327 . S
C920 C939 1.429 . S
C920 H944 0.950 . S
C921 C938 1.574 . S
C921 C940 1.368 . S
C921 H945 0.949 . S
H922 C926 0.949 . S
C923 C924 1.349 . S
C923 C925 1.327 . S
C923 H946 0.950 . S
C924 C923 1.349 . S
C924 C936 1.349 . S
C925 C923 1.327 . S
C925 C941 1.429 . S
C925 H947 0.950 . S
C926 H922 0.949 . S
C926 C934 1.574 . S
C926 C942 1.368 . S
H927 C935 0.950 . S
H928 C933 0.950 . S
H929 C934 0.949 . S
H930 C936 0.950 . S
H931 C937 0.950 . S
H932 C938 0.949 . S
C933 H928 0.950 . S
C933 C935 1.327 . S
C933 C939 1.429 . S
C934 C926 1.574 . S
C934 H929 0.949 . S
C934 C940 1.368 . S
C935 C919 1.349 . S
C935 H927 0.950 . S
C935 C933 1.327 . S
C936 C924 1.349 . S
C936 H930 0.950 . S
C936 C937 1.327 . S
C937 H931 0.950 . S
C937 C936 1.327 . S
C937 C941 1.429 . S
C938 C921 1.574 . S
C938 H932 0.949 . S
C938 C942 1.368 . S
C939 C920 1.429 . S
C939 C933 1.429 . S
C939 C940 1.523 . S
C940 C921 1.368 . S
C940 C934 1.368 . S
C940 C939 1.523 . S
C941 C925 1.429 . S
C941 C937 1.429 . S
C941 C942 1.523 . S
C942 C926 1.368 . S
C942 C938 1.368 . S
C942 C941 1.523 . S
H943 C918 0.950 . S
H944 C920 0.950 . S
H945 C921 0.949 . S
H946 C923 0.950 . S
H947 C925 0.950 . S
C948 C949 1.349 . S
C948 C950 1.327 . S
C948 H973 0.950 . S
C949 C948 1.349 . S
C949 C965 1.349 . S
C950 C948 1.327 . S
C950 C969 1.429 . S
C950 H974 0.950 . S
C951 C968 1.574 . S
C951 C970 1.368 . S
C951 H975 0.949 . S
H952 C956 0.949 . S
C953 C954 1.349 . S
C953 C955 1.327 . S
C953 H976 0.950 . S
C954 C953 1.349 . S
C954 C966 1.349 . S
C955 C953 1.327 . S
C955 C971 1.429 . S
C955 H977 0.950 . S
C956 H952 0.949 . S
C956 C964 1.574 . S
C956 C972 1.368 . S
H957 C965 0.950 . S
H958 C963 0.950 . S
H959 C964 0.949 . S
H960 C966 0.950 . S
H961 C967 0.950 . S
H962 C968 0.949 . S
C963 H958 0.950 . S
C963 C965 1.327 . S
C963 C969 1.429 . S
C964 C956 1.574 . S
C964 H959 0.949 . S
C964 C970 1.368 . S
C965 C949 1.349 . S
C965 H957 0.950 . S
C965 C963 1.327 . S
C966 C954 1.349 . S
C966 H960 0.950 . S
C966 C967 1.327 . S
C967 H961 0.950 . S
C967 C966 1.327 . S
C967 C971 1.429 . S
C968 C951 1.574 . S
C968 H962 0.949 . S
C968 C972 1.368 . S
C969 C950 1.429 . S
C969 C963 1.429 . S
C969 C970 1.523 . S
C970 C951 1.368 . S
C970 C964 1.368 . S
C970 C969 1.523 . S
C971 C955 1.429 . S
C971 C967 1.429 . S
C971 C972 1.523 . S
C972 C956 1.368 . S
C972 C968 1.368 . S
C972 C971 1.523 . S
H973 C948 0.950 . S
H974 C950 0.950 . S
H975 C951 0.949 . S
H976 C953 0.950 . S
H977 C955 0.950 . S
C978 C979 1.349 . S
C978 C980 1.327 . S
C978 H1003 0.950 . S
C979 C978 1.349 . S
C979 C995 1.349 . S
C980 C978 1.327 . S
C980 C999 1.429 . S
C980 H1004 0.950 . S
C981 C998 1.574 . S
C981 C1000 1.368 . S
C981 H1005 0.949 . S
H982 C986 0.949 . S
C983 C984 1.349 . S
C983 C985 1.327 . S
C983 H1006 0.950 . S
C984 C983 1.349 . S
C984 C996 1.349 . S
C985 C983 1.327 . S
C985 C1001 1.429 . S
C985 H1007 0.950 . S
C986 H982 0.949 . S
C986 C994 1.574 . S
C986 C1002 1.368 . S
H987 C995 0.950 . S
H988 C993 0.950 . S
H989 C994 0.949 . S
H990 C996 0.950 . S
H991 C997 0.950 . S
H992 C998 0.949 . S
C993 H988 0.950 . S
C993 C995 1.327 . S
C993 C999 1.429 . S
C994 C986 1.574 . S
C994 H989 0.949 . S
C994 C1000 1.368 . S
C995 C979 1.349 . S
C995 H987 0.950 . S
C995 C993 1.327 . S
C996 C984 1.349 . S
C996 H990 0.950 . S
C996 C997 1.327 . S
C997 H991 0.950 . S
C997 C996 1.327 . S
C997 C1001 1.429 . S
C998 C981 1.574 . S
C998 H992 0.949 . S
C998 C1002 1.368 . S
C999 C980 1.429 . S
C999 C993 1.429 . S
C999 C1000 1.523 . S
C1000 C981 1.368 . S
C1000 C994 1.368 . S
C1000 C999 1.523 . S
C1001 C985 1.429 . S
C1001 C997 1.429 . S
C1001 C1002 1.523 . S
C1002 C986 1.368 . S
C1002 C998 1.368 . S
C1002 C1001 1.523 . S
H1003 C978 0.950 . S
H1004 C980 0.950 . S
H1005 C981 0.949 . S
H1006 C983 0.950 . S
H1007 C985 0.950 . S
C1008 C1009 1.349 . S
C1008 C1010 1.327 . S
C1008 H1033 0.950 . S
C1009 C1008 1.349 . S
C1009 C1025 1.349 . S
C1010 C1008 1.327 . S
C1010 C1029 1.429 . S
C1010 H1034 0.950 1_545 S
C1011 C1028 1.574 . S
C1011 C1030 1.368 1_655 S
C1011 H1035 0.949 . S
H1012 C1016 0.949 . S
C1013 C1014 1.349 . S
C1013 C1015 1.327 . S
C1013 H1036 0.950 . S
C1014 C1013 1.349 . S
C1014 C1026 1.349 . S
C1015 C1013 1.327 . S
C1015 C1031 1.429 . S
C1015 H1037 0.950 1_565 S
C1016 H1012 0.949 . S
C1016 C1024 1.574 . S
C1016 C1032 1.368 1_455 S
H1017 C1025 0.950 . S
H1018 C1023 0.950 . S
H1019 C1024 0.949 . S
H1020 C1026 0.950 . S
H1021 C1027 0.950 . S
H1022 C1028 0.949 . S
C1023 H1018 0.950 . S
C1023 C1025 1.327 . S
C1023 C1029 1.429 . S
C1024 C1016 1.574 . S
C1024 H1019 0.949 . S
C1024 C1030 1.368 1_565 S
C1025 C1009 1.349 . S
C1025 H1017 0.950 . S
C1025 C1023 1.327 . S
C1026 C1014 1.349 . S
C1026 H1020 0.950 . S
C1026 C1027 1.327 . S
C1027 H1021 0.950 . S
C1027 C1026 1.327 . S
C1027 C1031 1.429 . S
C1028 C1011 1.574 . S
C1028 H1022 0.949 . S
C1028 C1032 1.368 1_545 S
C1029 C1010 1.429 . S
C1029 C1023 1.429 . S
C1029 C1030 1.523 . S
C1030 C1011 1.368 1_455 S
C1030 C1024 1.368 1_545 S
C1030 C1029 1.523 . S
C1031 C1015 1.429 . S
C1031 C1027 1.429 . S
C1031 C1032 1.523 . S
C1032 C1016 1.368 1_655 S
C1032 C1028 1.368 1_565 S
C1032 C1031 1.523 . S
H1033 C1008 0.950 . S
H1034 C1010 0.950 1_565 S
H1035 C1011 0.949 . S
H1036 C1013 0.950 . S
H1037 C1015 0.950 1_545 S
C1038 C1039 1.349 . S
C1038 C1040 1.327 . S
C1038 H1063 0.950 . S
C1039 C1038 1.349 . S
C1039 C1055 1.349 . S
C1040 C1038 1.327 . S
C1040 C1059 1.429 . S
C1040 H1064 0.950 . S
C1041 C1058 1.574 . S
C1041 C1060 1.368 1_545 S
C1041 H1065 0.949 . S
H1042 C1046 0.949 . S
C1043 C1044 1.349 . S
C1043 C1045 1.327 . S
C1043 H1066 0.950 . S
C1044 C1043 1.349 . S
C1044 C1056 1.349 . S
C1045 C1043 1.327 . S
C1045 C1061 1.429 . S
C1045 H1067 0.950 . S
C1046 H1042 0.949 . S
C1046 C1054 1.574 . S
C1046 C1062 1.368 1_565 S
H1047 C1055 0.950 . S
H1048 C1053 0.952 . S
H1049 C1054 0.949 . S
H1050 C1056 0.950 . S
H1051 C1057 0.952 . S
H1052 C1058 0.949 . S
C1053 H1048 0.952 . S
C1053 C1055 1.327 . S
C1053 C1059 1.429 . S
C1054 C1046 1.574 . S
C1054 H1049 0.949 . S
C1054 C1060 1.368 . S
C1055 C1039 1.349 . S
C1055 H1047 0.950 . S
C1055 C1053 1.327 . S
C1056 C1044 1.349 . S
C1056 H1050 0.950 . S
C1056 C1057 1.327 . S
C1057 H1051 0.952 . S
C1057 C1056 1.327 . S
C1057 C1061 1.429 . S
C1058 C1041 1.574 . S
C1058 H1052 0.949 . S
C1058 C1062 1.368 . S
C1059 C1040 1.429 . S
C1059 C1053 1.429 . S
C1059 C1060 1.523 . S
C1060 C1041 1.368 1_565 S
C1060 C1054 1.368 . S
C1060 C1059 1.523 . S
C1061 C1045 1.429 . S
C1061 C1057 1.429 . S
C1061 C1062 1.523 . S
C1062 C1046 1.368 1_545 S
C1062 C1058 1.368 . S
C1062 C1061 1.523 . S
H1063 C1038 0.950 . S
H1064 C1040 0.950 . S
H1065 C1041 0.949 . S
H1066 C1043 0.950 . S
H1067 C1045 0.950 . S
C1068 C1069 1.349 . S
C1068 C1070 1.327 . S
C1068 H1093 0.950 . S
C1069 C1068 1.349 . S
C1069 C1085 1.349 . S
C1070 C1068 1.327 . S
C1070 C1089 1.429 . S
C1070 H1094 0.950 . S
C1071 C1088 1.574 . S
C1071 C1090 1.368 1_565 S
C1071 H1095 0.949 . S
H1072 C1076 0.949 . S
C1073 C1074 1.349 . S
C1073 C1075 1.327 . S
C1073 H1096 0.950 . S
C1074 C1073 1.349 . S
C1074 C1086 1.349 . S
C1075 C1073 1.327 . S
C1075 C1091 1.429 . S
C1075 H1097 0.950 . S
C1076 H1072 0.949 . S
C1076 C1084 1.574 . S
C1076 C1092 1.368 1_545 S
H1077 C1085 0.950 . S
H1078 C1083 0.950 1_565 S
H1079 C1084 0.949 . S
H1080 C1086 0.950 . S
H1081 C1087 0.950 1_545 S
H1082 C1088 0.949 . S
C1083 H1078 0.950 1_545 S
C1083 C1085 1.327 . S
C1083 C1089 1.429 . S
C1084 C1076 1.574 . S
C1084 H1079 0.949 . S
C1084 C1090 1.368 1_554 S
C1085 C1069 1.349 . S
C1085 H1077 0.950 . S
C1085 C1083 1.327 . S
C1086 C1074 1.349 . S
C1086 H1080 0.950 . S
C1086 C1087 1.327 . S
C1087 H1081 0.950 1_565 S
C1087 C1086 1.327 . S
C1087 C1091 1.429 . S
C1088 C1071 1.574 . S
C1088 H1082 0.949 . S
C1088 C1092 1.368 1_556 S
C1089 C1070 1.429 . S
C1089 C1083 1.429 . S
C1089 C1090 1.523 . S
C1090 C1071 1.368 1_545 S
C1090 C1084 1.368 1_556 S
C1090 C1089 1.523 . S
C1091 C1075 1.429 . S
C1091 C1087 1.429 . S
C1091 C1092 1.523 . S
C1092 C1076 1.368 1_565 S
C1092 C1088 1.368 1_554 S
C1092 C1091 1.523 . S
H1093 C1068 0.950 . S
H1094 C1070 0.950 . S
H1095 C1071 0.949 . S
H1096 C1073 0.950 . S
H1097 C1075 0.950 . S
C1098 C1099 1.349 . S
C1098 C1100 1.327 . S
C1098 H1123 0.950 . S
C1099 C1098 1.349 . S
C1099 C1115 1.349 . S
C1100 C1098 1.327 . S
C1100 C1119 1.429 . S
C1100 H1124 0.950 . S
C1101 C1118 1.555 1_544 S
C1101 C1120 1.368 1_455 S
C1101 H1125 0.949 . S
H1102 C1106 0.949 . S
C1103 C1104 1.349 . S
C1103 C1105 1.327 . S
C1103 H1126 0.950 . S
C1104 C1103 1.349 . S
C1104 C1116 1.349 . S
C1105 C1103 1.327 . S
C1105 C1121 1.429 . S
C1105 H1127 0.950 . S
C1106 H1102 0.949 . S
C1106 C1114 1.555 1_566 S
C1106 C1122 1.368 1_655 S
H1107 C1115 0.950 . S
H1108 C1113 0.950 1_455 S
H1109 C1114 0.950 . S
H1110 C1116 0.950 . S
H1111 C1117 0.950 1_655 S
H1112 C1118 0.950 . S
C1113 H1108 0.950 1_655 S
C1113 C1115 1.327 . S
C1113 C1119 1.429 . S
C1114 C1106 1.555 1_544 S
C1114 H1109 0.950 . S
C1114 C1120 1.386 . S
C1115 C1099 1.349 . S
C1115 H1107 0.950 . S
C1115 C1113 1.327 . S
C1116 C1104 1.349 . S
C1116 H1110 0.950 . S
C1116 C1117 1.327 . S
C1117 H1111 0.950 1_455 S
C1117 C1116 1.327 . S
C1117 C1121 1.429 . S
C1118 C1101 1.555 1_566 S
C1118 H1112 0.950 . S
C1118 C1122 1.386 . S
C1119 C1100 1.429 . S
C1119 C1113 1.429 . S
C1119 C1120 1.523 . S
C1120 C1101 1.368 1_655 S
C1120 C1114 1.386 . S
C1120 C1119 1.523 . S
C1121 C1105 1.429 . S
C1121 C1117 1.429 . S
C1121 C1122 1.523 . S
C1122 C1106 1.368 1_455 S
C1122 C1118 1.386 . S
C1122 C1121 1.523 . S
H1123 C1098 0.950 . S
H1124 C1100 0.950 . S
H1125 C1101 0.949 . S
H1126 C1103 0.950 . S
H1127 C1105 0.950 . S
C1128 C1129 1.349 . S
C1128 C1130 1.327 . S
C1128 H1153 0.950 . S
C1129 C1128 1.349 . S
C1129 C1145 1.349 . S
C1130 C1128 1.327 . S
C1130 C1149 1.429 . S
C1130 H1154 0.950 . S
C1131 C1148 1.574 . S
C1131 C1150 1.368 . S
C1131 H1155 0.949 . S
H1132 C1136 0.949 . S
C1133 C1134 1.349 . S
C1133 C1135 1.327 . S
C1133 H1156 0.950 . S
C1134 C1133 1.349 . S
C1134 C1146 1.349 . S
C1135 C1133 1.327 . S
C1135 C1151 1.429 . S
C1135 H1157 0.950 . S
C1136 H1132 0.949 . S
C1136 C1144 1.574 . S
C1136 C1152 1.368 . S
H1137 C1145 0.950 . S
H1138 C1143 0.950 . S
H1139 C1144 0.949 . S
H1140 C1146 0.950 . S
H1141 C1147 0.950 . S
H1142 C1148 0.949 . S
C1143 H1138 0.950 . S
C1143 C1145 1.327 . S
C1143 C1149 1.429 . S
C1144 C1136 1.574 . S
C1144 H1139 0.949 . S
C1144 C1150 1.368 . S
C1145 C1129 1.349 . S
C1145 H1137 0.950 . S
C1145 C1143 1.327 . S
C1146 C1134 1.349 . S
C1146 H1140 0.950 . S
C1146 C1147 1.327 . S
C1147 H1141 0.950 . S
C1147 C1146 1.327 . S
C1147 C1151 1.429 . S
C1148 C1131 1.574 . S
C1148 H1142 0.949 . S
C1148 C1152 1.368 . S
C1149 C1130 1.429 . S
C1149 C1143 1.429 . S
C1149 C1150 1.523 . S
C1150 C1131 1.368 . S
C1150 C1144 1.368 . S
C1150 C1149 1.523 . S
C1151 C1135 1.429 . S
C1151 C1147 1.429 . S
C1151 C1152 1.523 . S
C1152 C1136 1.368 . S
C1152 C1148 1.368 . S
C1152 C1151 1.523 . S
H1153 C1128 0.950 . S
H1154 C1130 0.950 . S
H1155 C1131 0.949 . S
H1156 C1133 0.950 . S
H1157 C1135 0.950 . S
C1158 C1159 1.349 . S
C1158 C1160 1.327 . S
C1158 H1183 0.950 . S
C1159 C1158 1.349 . S
C1159 C1175 1.349 . S
C1160 C1158 1.327 . S
C1160 C1179 1.429 . S
C1160 H1184 0.950 . S
C1161 C1178 1.574 . S
C1161 C1180 1.368 1_655 S
C1161 H1185 0.949 . S
H1162 C1166 0.949 . S
C1163 C1164 1.349 . S
C1163 C1165 1.327 . S
C1163 H1186 0.950 . S
C1164 C1163 1.349 . S
C1164 C1176 1.349 . S
C1165 C1163 1.327 . S
C1165 C1181 1.429 . S
C1165 H1187 0.950 . S
C1166 H1162 0.949 . S
C1166 C1174 1.574 . S
C1166 C1182 1.368 1_455 S
H1167 C1175 0.950 . S
H1168 C1173 0.950 1_655 S
H1169 C1174 0.949 . S
H1170 C1176 0.950 . S
H1171 C1177 0.950 1_455 S
H1172 C1178 0.949 . S
C1173 H1168 0.950 1_455 S
C1173 C1175 1.327 . S
C1173 C1179 1.429 . S
C1174 C1166 1.574 . S
C1174 H1169 0.949 . S
C1174 C1180 1.368 . S
C1175 C1159 1.349 . S
C1175 H1167 0.950 . S
C1175 C1173 1.327 . S
C1176 C1164 1.349 . S
C1176 H1170 0.950 . S
C1176 C1177 1.327 . S
C1177 H1171 0.950 1_655 S
C1177 C1176 1.327 . S
C1177 C1181 1.429 . S
C1178 C1161 1.574 . S
C1178 H1172 0.949 . S
C1178 C1182 1.368 . S
C1179 C1160 1.429 . S
C1179 C1173 1.429 . S
C1179 C1180 1.523 . S
C1180 C1161 1.368 1_455 S
C1180 C1174 1.368 . S
C1180 C1179 1.523 . S
C1181 C1165 1.429 . S
C1181 C1177 1.429 . S
C1181 C1182 1.523 . S
C1182 C1166 1.368 1_655 S
C1182 C1178 1.368 . S
C1182 C1181 1.523 . S
H1183 C1158 0.950 . S
H1184 C1160 0.950 . S
H1185 C1161 0.949 . S
H1186 C1163 0.950 . S
H1187 C1165 0.950 . S
C1188 C1189 1.349 . S
C1188 C1190 1.327 . S
C1188 H1213 0.950 . S
C1189 C1188 1.349 . S
C1189 C1205 1.349 . S
C1190 C1188 1.327 . S
C1190 C1209 1.429 . S
C1190 H1214 0.950 . S
C1191 C1208 1.574 . S
C1191 C1210 1.368 1_655 S
C1191 H1215 0.949 . S
H1192 C1196 0.949 . S
C1193 C1194 1.349 . S
C1193 C1195 1.327 . S
C1193 H1216 0.950 . S
C1194 C1193 1.349 . S
C1194 C1206 1.349 . S
C1195 C1193 1.327 . S
C1195 C1211 1.429 . S
C1195 H1217 0.950 . S
C1196 H1192 0.949 . S
C1196 C1204 1.574 . S
C1196 C1212 1.368 1_455 S
H1197 C1205 0.950 . S
H1198 C1203 0.975 . S
H1199 C1204 0.949 . S
H1200 C1206 0.950 . S
H1201 C1207 0.975 . S
H1202 C1208 0.949 . S
C1203 H1198 0.975 . S
C1203 C1205 1.327 . S
C1203 C1209 1.429 . S
C1204 C1196 1.574 . S
C1204 H1199 0.949 . S
C1204 C1210 1.368 1_556 S
C1205 C1189 1.349 . S
C1205 H1197 0.950 . S
C1205 C1203 1.327 . S
C1206 C1194 1.349 . S
C1206 H1200 0.950 . S
C1206 C1207 1.327 . S
C1207 H1201 0.975 . S
C1207 C1206 1.327 . S
C1207 C1211 1.429 . S
C1208 C1191 1.574 . S
C1208 H1202 0.949 . S
C1208 C1212 1.368 1_554 S
C1209 C1190 1.429 . S
C1209 C1203 1.429 . S
C1209 C1210 1.523 . S
C1210 C1191 1.368 1_455 S
C1210 C1204 1.368 1_554 S
C1210 C1209 1.523 . S
C1211 C1195 1.429 . S
C1211 C1207 1.429 . S
C1211 C1212 1.523 . S
C1212 C1196 1.368 1_655 S
C1212 C1208 1.368 1_556 S
C1212 C1211 1.523 . S
H1213 C1188 0.950 . S
H1214 C1190 0.950 . S
H1215 C1191 0.949 . S
H1216 C1193 0.950 . S
H1217 C1195 0.950 . S
C1218 C1219 1.349 . S
C1218 C1220 1.327 . S
C1218 H1243 0.950 . S
C1219 C1218 1.349 . S
C1219 C1235 1.349 . S
C1220 C1218 1.327 . S
C1220 C1239 1.429 . S
C1220 H1244 0.950 . S
C1221 C1238 1.574 . S
C1221 C1240 1.368 1_554 S
C1221 H1245 0.949 . S
H1222 C1226 0.949 . S
C1223 C1224 1.349 . S
C1223 C1225 1.327 . S
C1223 H1246 0.950 . S
C1224 C1223 1.349 . S
C1224 C1236 1.349 . S
C1225 C1223 1.327 . S
C1225 C1241 1.429 . S
C1225 H1247 0.950 . S
C1226 H1222 0.949 . S
C1226 C1234 1.574 . S
C1226 C1242 1.368 1_556 S
H1227 C1235 0.950 . S
H1228 C1233 0.950 . S
H1229 C1234 0.949 . S
H1230 C1236 0.950 . S
H1231 C1237 0.950 . S
H1232 C1238 0.949 . S
C1233 H1228 0.950 . S
C1233 C1235 1.327 . S
C1233 C1239 1.429 . S
C1234 C1226 1.574 . S
C1234 H1229 0.949 . S
C1234 C1240 1.368 . S
C1235 C1219 1.349 . S
C1235 H1227 0.950 . S
C1235 C1233 1.327 . S
C1236 C1224 1.349 . S
C1236 H1230 0.950 . S
C1236 C1237 1.327 . S
C1237 H1231 0.950 . S
C1237 C1236 1.327 . S
C1237 C1241 1.429 . S
C1238 C1221 1.574 . S
C1238 H1232 0.949 . S
C1238 C1242 1.368 . S
C1239 C1220 1.429 . S
C1239 C1233 1.429 . S
C1239 C1240 1.523 . S
C1240 C1221 1.368 1_556 S
C1240 C1234 1.368 . S
C1240 C1239 1.523 . S
C1241 C1225 1.429 . S
C1241 C1237 1.429 . S
C1241 C1242 1.523 . S
C1242 C1226 1.368 1_554 S
C1242 C1238 1.368 . S
C1242 C1241 1.523 . S
H1243 C1218 0.950 . S
H1244 C1220 0.950 . S
H1245 C1221 0.949 . S
H1246 C1223 0.950 . S
H1247 C1225 0.950 . S
C1248 C1249 1.349 . S
C1248 C1250 1.327 . S
C1248 H1273 0.950 . S
C1249 C1248 1.349 . S
C1249 C1265 1.349 . S
C1250 C1248 1.327 . S
C1250 C1269 1.429 . S
C1250 H1274 0.950 . S
C1251 C1268 1.574 . S
C1251 C1270 1.368 . S
C1251 H1275 0.949 . S
H1252 C1256 0.949 . S
C1253 C1254 1.349 . S
C1253 C1255 1.327 . S
C1253 H1276 0.950 . S
C1254 C1253 1.349 . S
C1254 C1266 1.349 . S
C1255 C1253 1.327 . S
C1255 C1271 1.429 . S
C1255 H1277 0.950 . S
C1256 H1252 0.949 . S
C1256 C1264 1.574 . S
C1256 C1272 1.368 . S
H1257 C1265 0.950 . S
H1258 C1263 0.950 . S
H1259 C1264 0.949 . S
H1260 C1266 0.950 . S
H1261 C1267 0.950 . S
H1262 C1268 0.949 . S
C1263 H1258 0.950 . S
C1263 C1265 1.327 . S
C1263 C1269 1.429 . S
C1264 C1256 1.574 . S
C1264 H1259 0.949 . S
C1264 C1270 1.368 1_565 S
C1265 C1249 1.349 . S
C1265 H1257 0.950 . S
C1265 C1263 1.327 . S
C1266 C1254 1.349 . S
C1266 H1260 0.950 . S
C1266 C1267 1.327 . S
C1267 H1261 0.950 . S
C1267 C1266 1.327 . S
C1267 C1271 1.429 . S
C1268 C1251 1.574 . S
C1268 H1262 0.949 . S
C1268 C1272 1.368 1_545 S
C1269 C1250 1.429 . S
C1269 C1263 1.429 . S
C1269 C1270 1.523 . S
C1270 C1251 1.368 . S
C1270 C1264 1.368 1_545 S
C1270 C1269 1.523 . S
C1271 C1255 1.429 . S
C1271 C1267 1.429 . S
C1271 C1272 1.523 . S
C1272 C1256 1.368 . S
C1272 C1268 1.368 1_565 S
C1272 C1271 1.523 . S
H1273 C1248 0.950 . S
H1274 C1250 0.950 . S
H1275 C1251 0.949 . S
H1276 C1253 0.950 . S
H1277 C1255 0.950 . S
C1278 C1279 1.349 . S
C1278 C1280 1.327 . S
C1278 H1303 0.950 . S
C1279 C1278 1.349 . S
C1279 C1295 1.349 . S
C1280 C1278 1.327 . S
C1280 C1299 1.429 . S
C1280 H1304 0.950 . S
C1281 C1298 1.574 . S
C1281 C1300 1.368 1_565 S
C1281 H1305 0.949 . S
H1282 C1286 0.949 . S
C1283 C1284 1.349 . S
C1283 C1285 1.327 . S
C1283 H1306 0.950 . S
C1284 C1283 1.349 . S
C1284 C1296 1.349 . S
C1285 C1283 1.327 . S
C1285 C1301 1.429 . S
C1285 H1307 0.950 . S
C1286 H1282 0.949 . S
C1286 C1294 1.574 . S
C1286 C1302 1.368 1_545 S
H1287 C1295 0.950 . S
H1288 C1293 0.950 . S
H1289 C1294 0.949 . S
H1290 C1296 0.950 . S
H1291 C1297 0.950 . S
H1292 C1298 0.949 . S
C1293 H1288 0.950 . S
C1293 C1295 1.327 . S
C1293 C1299 1.429 . S
C1294 C1286 1.574 . S
C1294 H1289 0.949 . S
C1294 C1300 1.368 . S
C1295 C1279 1.349 . S
C1295 H1287 0.950 . S
C1295 C1293 1.327 . S
C1296 C1284 1.349 . S
C1296 H1290 0.950 . S
C1296 C1297 1.327 . S
C1297 H1291 0.950 . S
C1297 C1296 1.327 . S
C1297 C1301 1.429 . S
C1298 C1281 1.574 . S
C1298 H1292 0.949 . S
C1298 C1302 1.368 . S
C1299 C1280 1.429 . S
C1299 C1293 1.429 . S
C1299 C1300 1.523 . S
C1300 C1281 1.368 1_545 S
C1300 C1294 1.368 . S
C1300 C1299 1.523 . S
C1301 C1285 1.429 . S
C1301 C1297 1.429 . S
C1301 C1302 1.523 . S
C1302 C1286 1.368 1_565 S
C1302 C1298 1.368 . S
C1302 C1301 1.523 . S
H1303 C1278 0.950 . S
H1304 C1280 0.950 . S
H1305 C1281 0.949 . S
H1306 C1283 0.950 . S
H1307 C1285 0.950 . S
C1308 C1309 1.349 . S
C1308 C1310 1.327 . S
C1308 H1333 0.950 . S
C1309 C1308 1.349 . S
C1309 C1325 1.349 . S
C1310 C1308 1.327 . S
C1310 C1329 1.429 . S
C1310 H1334 0.950 . S
C1311 C1328 1.574 . S
C1311 C1330 1.368 . S
C1311 H1335 0.949 . S
H1312 C1316 0.949 . S
C1313 C1314 1.349 . S
C1313 C1315 1.327 . S
C1313 H1336 0.950 . S
C1314 C1313 1.349 . S
C1314 C1326 1.349 . S
C1315 C1313 1.327 . S
C1315 C1331 1.429 . S
C1315 H1337 0.950 . S
C1316 H1312 0.949 . S
C1316 C1324 1.574 . S
C1316 C1332 1.368 . S
H1317 C1325 0.950 . S
H1318 C1323 0.950 . S
H1319 C1324 0.949 . S
H1320 C1326 0.950 . S
H1321 C1327 0.950 . S
H1322 C1328 0.949 . S
C1323 H1318 0.950 . S
C1323 C1325 1.327 . S
C1323 C1329 1.429 . S
C1324 C1316 1.574 . S
C1324 H1319 0.949 . S
C1324 C1330 1.368 1_565 S
C1325 C1309 1.349 . S
C1325 H1317 0.950 . S
C1325 C1323 1.327 . S
C1326 C1314 1.349 . S
C1326 H1320 0.950 . S
C1326 C1327 1.327 . S
C1327 H1321 0.950 . S
C1327 C1326 1.327 . S
C1327 C1331 1.429 . S
C1328 C1311 1.574 . S
C1328 H1322 0.949 . S
C1328 C1332 1.368 1_545 S
C1329 C1310 1.429 . S
C1329 C1323 1.429 . S
C1329 C1330 1.523 . S
C1330 C1311 1.368 . S
C1330 C1324 1.368 1_545 S
C1330 C1329 1.523 . S
C1331 C1315 1.429 . S
C1331 C1327 1.429 . S
C1331 C1332 1.523 . S
C1332 C1316 1.368 . S
C1332 C1328 1.368 1_565 S
C1332 C1331 1.523 . S
H1333 C1308 0.950 . S
H1334 C1310 0.950 . S
H1335 C1311 0.949 . S
H1336 C1313 0.950 . S
H1337 C1315 0.950 . S
C1338 C1339 1.349 . S
C1338 C1340 1.327 . S
C1338 H1363 0.950 . S
C1339 C1338 1.349 . S
C1339 C1355 1.349 . S
C1340 C1338 1.327 . S
C1340 C1359 1.429 . S
C1340 H1364 0.950 . S
C1341 C1358 1.574 . S
C1341 C1360 1.368 1_565 S
C1341 H1365 0.949 . S
H1342 C1346 0.949 . S
C1343 C1344 1.349 . S
C1343 C1345 1.327 . S
C1343 H1366 0.950 . S
C1344 C1343 1.349 . S
C1344 C1356 1.349 . S
C1345 C1343 1.327 . S
C1345 C1361 1.429 . S
C1345 H1367 0.950 . S
C1346 H1342 0.949 . S
C1346 C1354 1.574 . S
C1346 C1362 1.368 1_545 S
H1347 C1355 0.950 . S
H1348 C1353 0.950 . S
H1349 C1354 0.949 . S
H1350 C1356 0.950 . S
H1351 C1357 0.950 . S
H1352 C1358 0.949 . S
C1353 H1348 0.950 . S
C1353 C1355 1.327 . S
C1353 C1359 1.429 . S
C1354 C1346 1.574 . S
C1354 H1349 0.949 . S
C1354 C1360 1.368 . S
C1355 C1339 1.349 . S
C1355 H1347 0.950 . S
C1355 C1353 1.327 . S
C1356 C1344 1.349 . S
C1356 H1350 0.950 . S
C1356 C1357 1.327 . S
C1357 H1351 0.950 . S
C1357 C1356 1.327 . S
C1357 C1361 1.429 . S
C1358 C1341 1.574 . S
C1358 H1352 0.949 . S
C1358 C1362 1.368 . S
C1359 C1340 1.429 . S
C1359 C1353 1.429 . S
C1359 C1360 1.523 . S
C1360 C1341 1.368 1_545 S
C1360 C1354 1.368 . S
C1360 C1359 1.523 . S
C1361 C1345 1.429 . S
C1361 C1357 1.429 . S
C1361 C1362 1.523 . S
C1362 C1346 1.368 1_565 S
C1362 C1358 1.368 . S
C1362 C1361 1.523 . S
H1363 C1338 0.950 . S
H1364 C1340 0.950 . S
H1365 C1341 0.949 . S
H1366 C1343 0.950 . S
H1367 C1345 0.950 . S
C1368 C1369 1.349 . S
C1368 C1370 1.327 . S
C1368 H1393 0.950 . S
C1369 C1368 1.349 . S
C1369 C1385 1.349 . S
C1370 C1368 1.327 . S
C1370 C1389 1.429 . S
C1370 H1394 0.950 . S
C1371 C1388 1.574 . S
C1371 C1390 1.368 . S
C1371 H1395 0.949 . S
H1372 C1376 0.949 . S
C1373 C1374 1.349 . S
C1373 C1375 1.327 . S
C1373 H1396 0.950 . S
C1374 C1373 1.349 . S
C1374 C1386 1.349 . S
C1375 C1373 1.327 . S
C1375 C1391 1.429 . S
C1375 H1397 0.950 . S
C1376 H1372 0.949 . S
C1376 C1384 1.574 . S
C1376 C1392 1.368 . S
H1377 C1385 0.950 . S
H1378 C1383 0.950 . S
H1379 C1384 0.949 . S
H1380 C1386 0.950 . S
H1381 C1387 0.950 . S
H1382 C1388 0.949 . S
C1383 H1378 0.950 . S
C1383 C1385 1.327 . S
C1383 C1389 1.429 . S
C1384 C1376 1.574 . S
C1384 H1379 0.949 . S
C1384 C1390 1.368 . S
C1385 C1369 1.349 . S
C1385 H1377 0.950 . S
C1385 C1383 1.327 . S
C1386 C1374 1.349 . S
C1386 H1380 0.950 . S
C1386 C1387 1.327 . S
C1387 H1381 0.950 . S
C1387 C1386 1.327 . S
C1387 C1391 1.429 . S
C1388 C1371 1.574 . S
C1388 H1382 0.949 . S
C1388 C1392 1.368 . S
C1389 C1370 1.429 . S
C1389 C1383 1.429 . S
C1389 C1390 1.523 . S
C1390 C1371 1.368 . S
C1390 C1384 1.368 . S
C1390 C1389 1.523 . S
C1391 C1375 1.429 . S
C1391 C1387 1.429 . S
C1391 C1392 1.523 . S
C1392 C1376 1.368 . S
C1392 C1388 1.368 . S
C1392 C1391 1.523 . S
H1393 C1368 0.950 . S
H1394 C1370 0.950 . S
H1395 C1371 0.949 . S
H1396 C1373 0.950 . S
H1397 C1375 0.950 . S
C1398 C1399 1.349 . S
C1398 C1400 1.327 . S
C1398 H1423 0.950 . S
C1399 C1398 1.349 . S
C1399 C1415 1.349 . S
C1400 C1398 1.327 . S
C1400 C1419 1.429 . S
C1400 H1424 0.950 . S
C1401 C1418 1.574 . S
C1401 C1420 1.368 . S
C1401 H1425 0.949 . S
H1402 C1406 0.949 . S
C1403 C1404 1.349 . S
C1403 C1405 1.327 . S
C1403 H1426 0.950 . S
C1404 C1403 1.349 . S
C1404 C1416 1.349 . S
C1405 C1403 1.327 . S
C1405 C1421 1.429 . S
C1405 H1427 0.950 . S
C1406 H1402 0.949 . S
C1406 C1414 1.574 . S
C1406 C1422 1.368 . S
H1407 C1415 0.950 . S
H1408 C1413 0.950 . S
H1409 C1414 0.949 . S
H1410 C1416 0.950 . S
H1411 C1417 0.950 . S
H1412 C1418 0.949 . S
C1413 H1408 0.950 . S
C1413 C1415 1.327 . S
C1413 C1419 1.429 . S
C1414 C1406 1.574 . S
C1414 H1409 0.949 . S
C1414 C1420 1.368 . S
C1415 C1399 1.349 . S
C1415 H1407 0.950 . S
C1415 C1413 1.327 . S
C1416 C1404 1.349 . S
C1416 H1410 0.950 . S
C1416 C1417 1.327 . S
C1417 H1411 0.950 . S
C1417 C1416 1.327 . S
C1417 C1421 1.429 . S
C1418 C1401 1.574 . S
C1418 H1412 0.949 . S
C1418 C1422 1.368 . S
C1419 C1400 1.429 . S
C1419 C1413 1.429 . S
C1419 C1420 1.523 . S
C1420 C1401 1.368 . S
C1420 C1414 1.368 . S
C1420 C1419 1.523 . S
C1421 C1405 1.429 . S
C1421 C1417 1.429 . S
C1421 C1422 1.523 . S
C1422 C1406 1.368 . S
C1422 C1418 1.368 . S
C1422 C1421 1.523 . S
H1423 C1398 0.950 . S
H1424 C1400 0.950 . S
H1425 C1401 0.949 . S
H1426 C1403 0.950 . S
H1427 C1405 0.950 . S
C1428 C1429 1.349 . S
C1428 C1430 1.327 . S
C1428 H1453 0.950 . S
C1429 C1428 1.349 . S
C1429 C1445 1.349 . S
C1430 C1428 1.327 . S
C1430 C1449 1.429 . S
C1430 H1454 0.950 . S
C1431 C1448 1.574 . S
C1431 C1450 1.368 . S
C1431 H1455 0.949 . S
H1432 C1436 0.949 . S
C1433 C1434 1.349 . S
C1433 C1435 1.327 . S
C1433 H1456 0.950 . S
C1434 C1433 1.349 . S
C1434 C1446 1.349 . S
C1435 C1433 1.327 . S
C1435 C1451 1.429 . S
C1435 H1457 0.950 . S
C1436 H1432 0.949 . S
C1436 C1444 1.574 . S
C1436 C1452 1.368 . S
H1437 C1445 0.950 . S
H1438 C1443 0.950 . S
H1439 C1444 0.949 . S
H1440 C1446 0.950 . S
H1441 C1447 0.950 . S
H1442 C1448 0.949 . S
C1443 H1438 0.950 . S
C1443 C1445 1.327 . S
C1443 C1449 1.429 . S
C1444 C1436 1.574 . S
C1444 H1439 0.949 . S
C1444 C1450 1.368 . S
C1445 C1429 1.349 . S
C1445 H1437 0.950 . S
C1445 C1443 1.327 . S
C1446 C1434 1.349 . S
C1446 H1440 0.950 . S
C1446 C1447 1.327 . S
C1447 H1441 0.950 . S
C1447 C1446 1.327 . S
C1447 C1451 1.429 . S
C1448 C1431 1.574 . S
C1448 H1442 0.949 . S
C1448 C1452 1.368 . S
C1449 C1430 1.429 . S
C1449 C1443 1.429 . S
C1449 C1450 1.523 . S
C1450 C1431 1.368 . S
C1450 C1444 1.368 . S
C1450 C1449 1.523 . S
C1451 C1435 1.429 . S
C1451 C1447 1.429 . S
C1451 C1452 1.523 . S
C1452 C1436 1.368 . S
C1452 C1448 1.368 . S
C1452 C1451 1.523 . S
H1453 C1428 0.950 . S
H1454 C1430 0.950 . S
H1455 C1431 0.949 . S
H1456 C1433 0.950 . S
H1457 C1435 0.950 . S
C1458 C1459 1.349 . S
C1458 C1460 1.327 . S
C1458 H1483 0.950 . S
C1459 C1458 1.349 . S
C1459 C1475 1.349 . S
C1460 C1458 1.327 . S
C1460 C1479 1.429 . S
C1460 H1484 0.950 . S
C1461 C1478 1.574 . S
C1461 C1480 1.368 . S
C1461 H1485 0.949 . S
H1462 C1466 0.949 . S
C1463 C1464 1.349 . S
C1463 C1465 1.327 . S
C1463 H1486 0.950 . S
C1464 C1463 1.349 . S
C1464 C1476 1.349 . S
C1465 C1463 1.327 . S
C1465 C1481 1.429 . S
C1465 H1487 0.950 . S
C1466 H1462 0.949 . S
C1466 C1474 1.574 . S
C1466 C1482 1.368 . S
H1467 C1475 0.950 . S
H1468 C1473 0.950 . S
H1469 C1474 0.949 . S
H1470 C1476 0.950 . S
H1471 C1477 0.950 . S
H1472 C1478 0.949 . S
C1473 H1468 0.950 . S
C1473 C1475 1.327 . S
C1473 C1479 1.429 . S
C1474 C1466 1.574 . S
C1474 H1469 0.949 . S
C1474 C1480 1.368 . S
C1475 C1459 1.349 . S
C1475 H1467 0.950 . S
C1475 C1473 1.327 . S
C1476 C1464 1.349 . S
C1476 H1470 0.950 . S
C1476 C1477 1.327 . S
C1477 H1471 0.950 . S
C1477 C1476 1.327 . S
C1477 C1481 1.429 . S
C1478 C1461 1.574 . S
C1478 H1472 0.949 . S
C1478 C1482 1.368 . S
C1479 C1460 1.429 . S
C1479 C1473 1.429 . S
C1479 C1480 1.523 . S
C1480 C1461 1.368 . S
C1480 C1474 1.368 . S
C1480 C1479 1.523 . S
C1481 C1465 1.429 . S
C1481 C1477 1.429 . S
C1481 C1482 1.523 . S
C1482 C1466 1.368 . S
C1482 C1478 1.368 . S
C1482 C1481 1.523 . S
H1483 C1458 0.950 . S
H1484 C1460 0.950 . S
H1485 C1461 0.949 . S
H1486 C1463 0.950 . S
H1487 C1465 0.950 . S
C1488 C1489 1.349 . S
C1488 C1490 1.327 . S
C1488 H1513 0.950 . S
C1489 C1488 1.349 . S
C1489 C1505 1.349 . S
C1490 C1488 1.327 . S
C1490 C1509 1.429 . S
C1490 H1514 0.950 . S
C1491 C1508 1.574 1_455 S
C1491 C1510 1.368 . S
C1491 H1515 0.949 . S
H1492 C1496 0.949 . S
C1493 C1494 1.349 . S
C1493 C1495 1.327 . S
C1493 H1516 0.950 . S
C1494 C1493 1.349 . S
C1494 C1506 1.349 . S
C1495 C1493 1.327 . S
C1495 C1511 1.429 . S
C1495 H1517 0.950 . S
C1496 H1492 0.949 . S
C1496 C1504 1.574 1_655 S
C1496 C1512 1.368 . S
H1497 C1505 0.950 . S
H1498 C1503 0.950 . S
H1499 C1504 0.949 . S
H1500 C1506 0.950 . S
H1501 C1507 0.950 . S
H1502 C1508 0.949 . S
C1503 H1498 0.950 . S
C1503 C1505 1.327 . S
C1503 C1509 1.429 . S
C1504 C1496 1.574 1_455 S
C1504 H1499 0.949 . S
C1504 C1510 1.368 . S
C1505 C1489 1.349 . S
C1505 H1497 0.950 . S
C1505 C1503 1.327 . S
C1506 C1494 1.349 . S
C1506 H1500 0.950 . S
C1506 C1507 1.327 . S
C1507 H1501 0.950 . S
C1507 C1506 1.327 . S
C1507 C1511 1.429 . S
C1508 C1491 1.574 1_655 S
C1508 H1502 0.949 . S
C1508 C1512 1.368 . S
C1509 C1490 1.429 . S
C1509 C1503 1.429 . S
C1509 C1510 1.523 . S
C1510 C1491 1.368 . S
C1510 C1504 1.368 . S
C1510 C1509 1.523 . S
C1511 C1495 1.429 . S
C1511 C1507 1.429 . S
C1511 C1512 1.523 . S
C1512 C1496 1.368 . S
C1512 C1508 1.368 . S
C1512 C1511 1.523 . S
H1513 C1488 0.950 . S
H1514 C1490 0.950 . S
H1515 C1491 0.949 . S
H1516 C1493 0.950 . S
H1517 C1495 0.950 . S
C1518 C1519 1.349 . S
C1518 C1520 1.327 . S
C1518 H1543 0.950 . S
C1519 C1518 1.349 . S
C1519 C1535 1.349 . S
C1520 C1518 1.327 . S
C1520 C1539 1.429 . S
C1520 H1544 0.950 . S
C1521 C1538 1.574 . S
C1521 C1540 1.368 . S
C1521 H1545 0.949 . S
H1522 C1526 0.949 . S
C1523 C1524 1.349 . S
C1523 C1525 1.327 . S
C1523 H1546 0.950 . S
C1524 C1523 1.349 . S
C1524 C1536 1.349 . S
C1525 C1523 1.327 . S
C1525 C1541 1.429 . S
C1525 H1547 0.950 . S
C1526 H1522 0.949 . S
C1526 C1534 1.574 . S
C1526 C1542 1.368 . S
H1527 C1535 0.950 . S
H1528 C1533 0.950 . S
H1529 C1534 0.949 . S
H1530 C1536 0.950 . S
H1531 C1537 0.950 . S
H1532 C1538 0.949 . S
C1533 H1528 0.950 . S
C1533 C1535 1.327 . S
C1533 C1539 1.429 . S
C1534 C1526 1.574 . S
C1534 H1529 0.949 . S
C1534 C1540 1.368 . S
C1535 C1519 1.349 . S
C1535 H1527 0.950 . S
C1535 C1533 1.327 . S
C1536 C1524 1.349 . S
C1536 H1530 0.950 . S
C1536 C1537 1.327 . S
C1537 H1531 0.950 . S
C1537 C1536 1.327 . S
C1537 C1541 1.429 . S
C1538 C1521 1.574 . S
C1538 H1532 0.949 . S
C1538 C1542 1.368 . S
C1539 C1520 1.429 . S
C1539 C1533 1.429 . S
C1539 C1540 1.523 . S
C1540 C1521 1.368 . S
C1540 C1534 1.368 . S
C1540 C1539 1.523 . S
C1541 C1525 1.429 . S
C1541 C1537 1.429 . S
C1541 C1542 1.523 . S
C1542 C1526 1.368 . S
C1542 C1538 1.368 . S
C1542 C1541 1.523 . S
H1543 C1518 0.950 . S
H1544 C1520 0.950 . S
H1545 C1521 0.949 . S
H1546 C1523 0.950 . S
H1547 C1525 0.950 . S
C1548 C1549 1.349 . S
C1548 C1550 1.327 . S
C1548 H1573 0.950 . S
C1549 C1548 1.349 . S
C1549 C1565 1.349 . S
C1550 C1548 1.327 . S
C1550 C1569 1.429 . S
C1550 H1574 0.950 . S
C1551 C1568 1.574 . S
C1551 C1570 1.368 . S
C1551 H1575 0.949 . S
H1552 C1556 0.949 . S
C1553 C1554 1.349 . S
C1553 C1555 1.327 . S
C1553 H1576 0.950 . S
C1554 C1553 1.349 . S
C1554 C1566 1.349 . S
C1555 C1553 1.327 . S
C1555 C1571 1.429 . S
C1555 H1577 0.950 . S
C1556 H1552 0.949 . S
C1556 C1564 1.574 . S
C1556 C1572 1.368 . S
H1557 C1565 0.950 . S
H1558 C1563 0.950 . S
H1559 C1564 0.949 . S
H1560 C1566 0.950 . S
H1561 C1567 0.950 . S
H1562 C1568 0.949 . S
C1563 H1558 0.950 . S
C1563 C1565 1.327 . S
C1563 C1569 1.429 . S
C1564 C1556 1.574 . S
C1564 H1559 0.949 . S
C1564 C1570 1.368 . S
C1565 C1549 1.349 . S
C1565 H1557 0.950 . S
C1565 C1563 1.327 . S
C1566 C1554 1.349 . S
C1566 H1560 0.950 . S
C1566 C1567 1.327 . S
C1567 H1561 0.950 . S
C1567 C1566 1.327 . S
C1567 C1571 1.429 . S
C1568 C1551 1.574 . S
C1568 H1562 0.949 . S
C1568 C1572 1.368 . S
C1569 C1550 1.429 . S
C1569 C1563 1.429 . S
C1569 C1570 1.523 . S
C1570 C1551 1.368 . S
C1570 C1564 1.368 . S
C1570 C1569 1.523 . S
C1571 C1555 1.429 . S
C1571 C1567 1.429 . S
C1571 C1572 1.523 . S
C1572 C1556 1.368 . S
C1572 C1568 1.368 . S
C1572 C1571 1.523 . S
H1573 C1548 0.950 . S
H1574 C1550 0.950 . S
H1575 C1551 0.949 . S
H1576 C1553 0.950 . S
H1577 C1555 0.950 . S
C1578 C1579 1.349 . S
C1578 C1580 1.327 . S
C1578 H1603 0.950 . S
C1579 C1578 1.349 . S
C1579 C1595 1.349 . S
C1580 C1578 1.327 . S
C1580 C1599 1.429 . S
C1580 H1604 0.950 . S
C1581 C1598 1.574 1_655 S
C1581 C1600 1.368 . S
C1581 H1605 0.949 . S
H1582 C1586 0.949 . S
C1583 C1584 1.349 . S
C1583 C1585 1.327 . S
C1583 H1606 0.950 . S
C1584 C1583 1.349 . S
C1584 C1596 1.349 . S
C1585 C1583 1.327 . S
C1585 C1601 1.429 . S
C1585 H1607 0.950 . S
C1586 H1582 0.949 . S
C1586 C1594 1.574 1_455 S
C1586 C1602 1.368 . S
H1587 C1595 0.950 . S
H1588 C1593 0.950 . S
H1589 C1594 0.949 . S
H1590 C1596 0.950 . S
H1591 C1597 0.950 . S
H1592 C1598 0.949 . S
C1593 H1588 0.950 . S
C1593 C1595 1.327 . S
C1593 C1599 1.429 . S
C1594 C1586 1.574 1_655 S
C1594 H1589 0.949 . S
C1594 C1600 1.368 . S
C1595 C1579 1.349 . S
C1595 H1587 0.950 . S
C1595 C1593 1.327 . S
C1596 C1584 1.349 . S
C1596 H1590 0.950 . S
C1596 C1597 1.327 . S
C1597 H1591 0.950 . S
C1597 C1596 1.327 . S
C1597 C1601 1.429 . S
C1598 C1581 1.574 1_455 S
C1598 H1592 0.949 . S
C1598 C1602 1.368 . S
C1599 C1580 1.429 . S
C1599 C1593 1.429 . S
C1599 C1600 1.523 . S
C1600 C1581 1.368 . S
C1600 C1594 1.368 . S
C1600 C1599 1.523 . S
C1601 C1585 1.429 . S
C1601 C1597 1.429 . S
C1601 C1602 1.523 . S
C1602 C1586 1.368 . S
C1602 C1598 1.368 . S
C1602 C1601 1.523 . S
H1603 C1578 0.950 . S
H1604 C1580 0.950 . S
H1605 C1581 0.949 . S
H1606 C1583 0.950 . S
H1607 C1585 0.950 . S
C1608 C1609 1.349 . S
C1608 C1610 1.327 . S
C1608 H1633 0.950 . S
C1609 C1608 1.349 . S
C1609 C1625 1.349 . S
C1610 C1608 1.327 . S
C1610 C1629 1.429 . S
C1610 H1634 0.950 . S
C1611 C1628 1.574 1_655 S
C1611 C1630 1.368 . S
C1611 H1635 0.949 . S
H1612 C1616 0.949 . S
C1613 C1614 1.349 . S
C1613 C1615 1.327 . S
C1613 H1636 0.950 . S
C1614 C1613 1.349 . S
C1614 C1626 1.349 . S
C1615 C1613 1.327 . S
C1615 C1631 1.429 . S
C1615 H1637 0.950 . S
C1616 H1612 0.949 . S
C1616 C1624 1.574 1_455 S
C1616 C1632 1.368 . S
H1617 C1625 0.950 . S
H1618 C1623 0.950 . S
H1619 C1624 0.949 . S
H1620 C1626 0.950 . S
H1621 C1627 0.950 . S
H1622 C1628 0.949 . S
C1623 H1618 0.950 . S
C1623 C1625 1.327 . S
C1623 C1629 1.429 . S
C1624 C1616 1.574 1_655 S
C1624 H1619 0.949 . S
C1624 C1630 1.368 . S
C1625 C1609 1.349 . S
C1625 H1617 0.950 . S
C1625 C1623 1.327 . S
C1626 C1614 1.349 . S
C1626 H1620 0.950 . S
C1626 C1627 1.327 . S
C1627 H1621 0.950 . S
C1627 C1626 1.327 . S
C1627 C1631 1.429 . S
C1628 C1611 1.574 1_455 S
C1628 H1622 0.949 . S
C1628 C1632 1.368 . S
C1629 C1610 1.429 . S
C1629 C1623 1.429 . S
C1629 C1630 1.523 . S
C1630 C1611 1.368 . S
C1630 C1624 1.368 . S
C1630 C1629 1.523 . S
C1631 C1615 1.429 . S
C1631 C1627 1.429 . S
C1631 C1632 1.523 . S
C1632 C1616 1.368 . S
C1632 C1628 1.368 . S
C1632 C1631 1.523 . S
H1633 C1608 0.950 . S
H1634 C1610 0.950 . S
H1635 C1611 0.949 . S
H1636 C1613 0.950 . S
H1637 C1615 0.950 . S
C1638 C1639 1.349 . S
C1638 C1640 1.327 . S
C1638 H1663 0.950 . S
C1639 C1638 1.349 . S
C1639 C1655 1.349 . S
C1640 C1638 1.327 . S
C1640 C1659 1.429 . S
C1640 H1664 0.950 . S
C1641 C1658 1.574 . S
C1641 C1660 1.368 . S
C1641 H1665 0.949 . S
H1642 C1646 0.949 . S
C1643 C1644 1.349 . S
C1643 C1645 1.327 . S
C1643 H1666 0.950 . S
C1644 C1643 1.349 . S
C1644 C1656 1.349 . S
C1645 C1643 1.327 . S
C1645 C1661 1.429 . S
C1645 H1667 0.950 . S
C1646 H1642 0.949 . S
C1646 C1654 1.574 . S
C1646 C1662 1.368 . S
H1647 C1655 0.950 . S
H1648 C1653 0.950 . S
H1649 C1654 0.949 . S
H1650 C1656 0.950 . S
H1651 C1657 0.950 . S
H1652 C1658 0.949 . S
C1653 H1648 0.950 . S
C1653 C1655 1.327 . S
C1653 C1659 1.429 . S
C1654 C1646 1.574 . S
C1654 H1649 0.949 . S
C1654 C1660 1.368 . S
C1655 C1639 1.349 . S
C1655 H1647 0.950 . S
C1655 C1653 1.327 . S
C1656 C1644 1.349 . S
C1656 H1650 0.950 . S
C1656 C1657 1.327 . S
C1657 H1651 0.950 . S
C1657 C1656 1.327 . S
C1657 C1661 1.429 . S
C1658 C1641 1.574 . S
C1658 H1652 0.949 . S
C1658 C1662 1.368 . S
C1659 C1640 1.429 . S
C1659 C1653 1.429 . S
C1659 C1660 1.523 . S
C1660 C1641 1.368 . S
C1660 C1654 1.368 . S
C1660 C1659 1.523 . S
C1661 C1645 1.429 . S
C1661 C1657 1.429 . S
C1661 C1662 1.523 . S
C1662 C1646 1.368 . S
C1662 C1658 1.368 . S
C1662 C1661 1.523 . S
H1663 C1638 0.950 . S
H1664 C1640 0.950 . S
H1665 C1641 0.949 . S
H1666 C1643 0.950 . S
H1667 C1645 0.950 . S
C1668 C1669 1.349 . S
C1668 C1670 1.327 . S
C1668 H1693 0.950 . S
C1669 C1668 1.349 . S
C1669 C1685 1.349 . S
C1670 C1668 1.327 . S
C1670 C1689 1.429 . S
C1670 H1694 0.950 . S
C1671 C1688 1.574 . S
C1671 C1690 1.368 . S
C1671 H1695 0.949 . S
H1672 C1676 0.949 . S
C1673 C1674 1.349 . S
C1673 C1675 1.327 . S
C1673 H1696 0.950 . S
C1674 C1673 1.349 . S
C1674 C1686 1.349 . S
C1675 C1673 1.327 . S
C1675 C1691 1.429 . S
C1675 H1697 0.950 . S
C1676 H1672 0.949 . S
C1676 C1684 1.574 . S
C1676 C1692 1.368 . S
H1677 C1685 0.950 . S
H1678 C1683 0.950 . S
H1679 C1684 0.949 . S
H1680 C1686 0.950 . S
H1681 C1687 0.950 . S
H1682 C1688 0.949 . S
C1683 H1678 0.950 . S
C1683 C1685 1.327 . S
C1683 C1689 1.429 . S
C1684 C1676 1.574 . S
C1684 H1679 0.949 . S
C1684 C1690 1.368 . S
C1685 C1669 1.349 . S
C1685 H1677 0.950 . S
C1685 C1683 1.327 . S
C1686 C1674 1.349 . S
C1686 H1680 0.950 . S
C1686 C1687 1.327 . S
C1687 H1681 0.950 . S
C1687 C1686 1.327 . S
C1687 C1691 1.429 . S
C1688 C1671 1.574 . S
C1688 H1682 0.949 . S
C1688 C1692 1.368 . S
C1689 C1670 1.429 . S
C1689 C1683 1.429 . S
C1689 C1690 1.523 . S
C1690 C1671 1.368 . S
C1690 C1684 1.368 . S
C1690 C1689 1.523 . S
C1691 C1675 1.429 . S
C1691 C1687 1.429 . S
C1691 C1692 1.523 . S
C1692 C1676 1.368 . S
C1692 C1688 1.368 . S
C1692 C1691 1.523 . S
H1693 C1668 0.950 . S
H1694 C1670 0.950 . S
H1695 C1671 0.949 . S
H1696 C1673 0.950 . S
H1697 C1675 0.950 . S
C1698 C1699 1.349 . S
C1698 C1700 1.327 . S
C1698 H1723 0.950 . S
C1699 C1698 1.349 . S
C1699 C1715 1.349 . S
C1700 C1698 1.327 . S
C1700 C1719 1.429 . S
C1700 H1724 0.950 . S
C1701 C1718 1.574 1_655 S
C1701 C1720 1.368 . S
C1701 H1725 0.949 . S
H1702 C1706 0.949 . S
C1703 C1704 1.349 . S
C1703 C1705 1.327 . S
C1703 H1726 0.950 . S
C1704 C1703 1.349 . S
C1704 C1716 1.349 . S
C1705 C1703 1.327 . S
C1705 C1721 1.429 . S
C1705 H1727 0.950 . S
C1706 H1702 0.949 . S
C1706 C1714 1.574 1_455 S
C1706 C1722 1.368 . S
H1707 C1715 0.950 . S
H1708 C1713 0.950 . S
H1709 C1714 0.949 . S
H1710 C1716 0.950 . S
H1711 C1717 0.950 . S
H1712 C1718 0.949 . S
C1713 H1708 0.950 . S
C1713 C1715 1.327 . S
C1713 C1719 1.429 . S
C1714 C1706 1.574 1_655 S
C1714 H1709 0.949 . S
C1714 C1720 1.368 . S
C1715 C1699 1.349 . S
C1715 H1707 0.950 . S
C1715 C1713 1.327 . S
C1716 C1704 1.349 . S
C1716 H1710 0.950 . S
C1716 C1717 1.327 . S
C1717 H1711 0.950 . S
C1717 C1716 1.327 . S
C1717 C1721 1.429 . S
C1718 C1701 1.574 1_455 S
C1718 H1712 0.949 . S
C1718 C1722 1.368 . S
C1719 C1700 1.429 . S
C1719 C1713 1.429 . S
C1719 C1720 1.523 . S
C1720 C1701 1.368 . S
C1720 C1714 1.368 . S
C1720 C1719 1.523 . S
C1721 C1705 1.429 . S
C1721 C1717 1.429 . S
C1721 C1722 1.523 . S
C1722 C1706 1.368 . S
C1722 C1718 1.368 . S
C1722 C1721 1.523 . S
H1723 C1698 0.950 . S
H1724 C1700 0.950 . S
H1725 C1701 0.949 . S
H1726 C1703 0.950 . S
H1727 C1705 0.950 . S
C529 C107 1.298 . S
C534 C8 1.298 . S
C559 C74 1.298 . S
C564 C41 1.298 . S
C589 C140 1.298 . S
C594 C239 1.298 . S
C619 C173 1.298 . S
C624 C206 1.298 . S
C649 C272 1.298 . S
C654 C371 1.298 . S
C679 C305 1.298 . S
C684 C338 1.298 . S
C709 C503 1.298 . S
C714 C404 1.298 . S
C739 C470 1.298 . S
C744 C437 1.298 . S
C769 N14 0.461 . S
C774 N344 0.461 . S
C799 N377 0.462 . S
C804 N47 0.462 . S
C829 N278 0.461 . S
C834 N80 0.461 . S
C859 N311 0.462 . S
C864 N113 0.462 . S
C889 N476 0.461 . S
C894 N146 0.461 . S
C919 N509 0.462 . S
C924 N179 0.462 . S
C949 N410 0.461 . S
C954 N212 0.461 . S
C979 N443 0.462 . S
C984 N245 0.462 . S
C1009 N5 1.483 . S
C1014 N137 1.483 . S
C1039 N38 1.483 . S
C1044 N170 1.483 . S
C1069 N203 1.483 . S
C1074 N71 1.483 . S
C1099 N104 1.483 . S
C1104 N236 1.483 . S
C1129 N269 1.483 . S
C1134 N401 1.483 . S
C1159 N434 1.483 . S
C1164 N302 1.483 . S
C1189 N335 1.483 . S
C1194 N467 1.483 . S
C1219 N500 1.483 . S
C1224 N368 1.483 . S
C1249 C17 1.286 . S
C1254 C50 1.286 . S
C1279 C116 1.286 . S
C1284 C83 1.286 . S
C1309 C182 1.286 . S
C1314 C149 1.286 . S
C1339 C215 1.286 . S
C1344 C248 1.286 . S
C1369 C314 1.286 . S
C1374 C281 1.286 . S
C1399 C380 1.286 . S
C1404 C347 1.286 . S
C1429 C413 1.286 . S
C1434 C446 1.286 . S
C1459 C512 1.286 . S
C1464 C479 1.286 . S
C1489 C28 0.532 . S
C1494 C325 0.532 . S
C1519 C61 0.532 . S
C1524 C292 0.532 . S
C1549 C94 0.532 . S
C1554 C391 0.532 . S
C1579 C127 0.532 . S
C1584 C358 0.532 . S
C1609 C160 0.532 . S
C1614 C457 0.532 . S
C1639 C424 0.532 . S
C1644 C193 0.532 . S
C1669 C226 0.532 . S
C1674 C523 0.532 . S
C1699 C490 0.532 . S
C1704 C259 0.532 . S
