# Generated by pormake.
# Topology rob, (6)-cn, num edge types: 1
# Building blocks:
#     Node 0, Type 0, BuildingBlock: JUFBIX_clean_sbu_0, # of connection points: 6
#     Node 1, Type 0, BuildingBlock: JUFBIX_clean_sbu_0, # of connection points: 6
#     Node 2, Type 0, BuildingBlock: JUFBIX_clean_sbu_0, # of connection points: 6
#     Node 3, Type 0, BuildingBlock: JUFBIX_clean_sbu_0, # of connection points: 6
#     Edge 4, Type (0, 0), BuildingBlock: CIFDUS_clean_linker_0, # of connection points: 2
#     Edge 5, Type (0, 0), BuildingBlock: CIFDUS_clean_linker_0, # of connection points: 2
#     Edge 6, Type (0, 0), BuildingBlock: CIFDUS_clean_linker_0, # of connection points: 2
#     Edge 7, Type (0, 0), BuildingBlock: CIFDUS_clean_linker_0, # of connection points: 2
#     Edge 8, Type (0, 0), BuildingBlock: CIFDUS_clean_linker_0, # of connection points: 2
#     Edge 9, Type (0, 0), BuildingBlock: CIFDUS_clean_linker_0, # of connection points: 2
#     Edge 10, Type (0, 0), BuildingBlock: CIFDUS_clean_linker_0, # of connection points: 2
#     Edge 11, Type (0, 0), BuildingBlock: CIFDUS_clean_linker_0, # of connection points: 2
#     Edge 12, Type (0, 0), BuildingBlock: CIFDUS_clean_linker_0, # of connection points: 2
#     Edge 13, Type (0, 0), BuildingBlock: CIFDUS_clean_linker_0, # of connection points: 2
#     Edge 14, Type (0, 0), BuildingBlock: CIFDUS_clean_linker_0, # of connection points: 2
#     Edge 15, Type (0, 0), BuildingBlock: CIFDUS_clean_linker_0, # of connection points: 2
# Relax obj value: 0.357
# Max RMSD: 0.264
# Mean RMSD: 0.264
data_MOF--net-rob--node1-JUFBIX_clean_sbu_0--edge1-CIFDUS_clean_linker_0
_symmetry_space_group_name_H-M    P1
_symmetry_Int_Tables_number       1
_symmetry_cell_setting            triclinic
loop_
_symmetry_equiv_pos_as_xyz
'x, y, z'
_cell_length_a     15.464438
_cell_length_b     20.947658
_cell_length_c     25.024422
_cell_angle_alpha  94.918821
_cell_angle_beta   90.596365
_cell_angle_gamma 89.992293
loop_
_atom_site_label
_atom_site_type_symbol
_atom_site_fract_x
_atom_site_fract_y
_atom_site_fract_z
_atom_type_partial_charge
Co0 Co 0.22057 0.26878 0.99992 0.0
C1 C 0.18243 0.14196 0.01767 0.0
Co2 Co 0.32988 0.21511 0.03257 0.0
C3 C 0.13237 0.32555 0.91354 0.0
C4 C 0.04658 0.31052 0.97768 0.0
N5 N 0.1307 0.3081 0.96439 0.0
N6 N 0.05249 0.33633 0.89352 0.0
C7 C 0.99857 0.32774 0.93448 0.0
H8 H 0.19107 0.32613 0.89056 0.0
H9 H 0.02102 0.29542 0.01466 0.0
C10 C 0.3698 0.34123 0.01487 0.0
N11 N 0.42017 0.17528 0.0664 0.0
C12 C 0.45472 0.19542 0.11462 0.0
C13 C 0.46607 0.12245 0.04993 0.0
N14 N 0.51946 0.15743 0.12911 0.0
C15 C 0.52776 0.11154 0.08849 0.0
C16 C 0.32867 0.20128 0.92414 0.0
O17 O 0.29197 0.34341 0.9978 0.0
O18 O 0.39785 0.28976 0.03214 0.0
O19 O 0.37359 0.18567 0.96372 0.0
O20 O 0.2624 0.236 0.93272 0.0
O21 O 0.26112 0.14031 0.03277 0.0
H22 H 0.45513 0.09351 0.01257 0.0
H23 H 0.4336 0.23774 0.13878 0.0
O24 O 0.15156 0.19379 1.00237 0.0
O25 O 0.17861 0.3006 0.06855 0.0
O26 O 0.2845 0.24522 0.10081 0.0
C27 C 0.21953 0.28192 0.10874 0.0
H28 H 0.9287 0.32849 0.93241 0.0
H29 H 0.57343 0.07228 0.08746 0.0
Co30 Co 0.67811 0.79205 0.97885 0.0
C31 C 0.63197 0.66801 0.99622 0.0
Co32 Co 0.78594 0.73697 0.01188 0.0
C33 C 0.59012 0.84677 0.89103 0.0
C34 C 0.51256 0.85322 0.96143 0.0
N35 N 0.59156 0.83532 0.94346 0.0
N36 N 0.513 0.86904 0.87499 0.0
C37 C 0.46428 0.87388 0.9196 0.0
H38 H 0.64279 0.83491 0.86396 0.0
H39 H 0.4896 0.84818 1.00153 0.0
C40 C 0.82985 0.86186 0.99418 0.0
N41 N 0.87193 0.69438 0.04759 0.0
C42 C 0.92175 0.72068 0.08841 0.0
C43 C 0.88859 0.63099 0.04576 0.0
N44 N 0.96767 0.67641 0.11265 0.0
C45 C 0.94697 0.61976 0.08604 0.0
C46 C 0.78675 0.72216 0.90336 0.0
O47 O 0.75191 0.864 0.97776 0.0
O48 O 0.85871 0.81023 0.01094 0.0
O49 O 0.82936 0.70513 0.94349 0.0
O50 O 0.72131 0.75819 0.9114 0.0
O51 O 0.71025 0.66428 0.01214 0.0
H52 H 0.85704 0.59495 0.01876 0.0
H53 H 0.91992 0.77099 0.10253 0.0
O54 O 0.60474 0.72028 0.98002 0.0
O55 O 0.6366 0.82433 0.04791 0.0
O56 O 0.74295 0.76895 0.07953 0.0
C57 C 0.67862 0.80602 0.08784 0.0
H58 H 0.39718 0.88843 0.92158 0.0
H59 H 0.97043 0.5735 0.096 0.0
Co60 Co 0.18123 0.7371 0.51494 0.0
C61 C 0.14836 0.86173 0.49002 0.0
Co62 Co 0.2917 0.7834 0.47749 0.0
C63 C 0.08694 0.69064 0.60344 0.0
C64 C 0.01009 0.68658 0.53175 0.0
N65 N 0.09026 0.70096 0.55084 0.0
N66 N 0.00775 0.67189 0.61825 0.0
C67 C 0.95946 0.66872 0.5729 0.0
H68 H 0.14026 0.70032 0.63123 0.0
H69 H 0.9884 0.69155 0.49109 0.0
C70 C 0.32657 0.65955 0.50326 0.0
N71 N 0.38232 0.81991 0.44173 0.0
C72 C 0.38455 0.8317 0.38943 0.0
C73 C 0.46268 0.83409 0.46053 0.0
N74 N 0.46324 0.85126 0.37447 0.0
C75 C 0.51238 0.85334 0.41945 0.0
C76 C 0.29418 0.80593 0.58754 0.0
O77 O 0.24957 0.66224 0.52098 0.0
O78 O 0.35724 0.70738 0.48169 0.0
O79 O 0.338 0.81674 0.54648 0.0
O80 O 0.22547 0.77313 0.58113 0.0
O81 O 0.22602 0.85879 0.47383 0.0
H82 H 0.48508 0.82823 0.50089 0.0
H83 H 0.33077 0.82271 0.36192 0.0
O84 O 0.11468 0.81298 0.50881 0.0
O85 O 0.1373 0.70158 0.4477 0.0
O86 O 0.24298 0.74976 0.40971 0.0
C87 C 0.17523 0.71525 0.40541 0.0
H88 H 0.89148 0.65657 0.56983 0.0
H89 H 0.58027 0.86577 0.42231 0.0
Co90 Co 0.70472 0.2532 0.53681 0.0
C91 C 0.67468 0.37785 0.51241 0.0
Co92 Co 0.815 0.29542 0.49609 0.0
C93 C 0.61448 0.20067 0.6232 0.0
C94 C 0.533 0.2058 0.55417 0.0
N95 N 0.61414 0.21794 0.57245 0.0
N96 N 0.53666 0.17901 0.63775 0.0
C97 C 0.48546 0.18175 0.59399 0.0
H98 H 0.67003 0.20645 0.64975 0.0
H99 H 0.50902 0.21527 0.51489 0.0
C100 C 0.84294 0.17007 0.51949 0.0
N101 N 0.90707 0.3294 0.45922 0.0
C102 C 0.91258 0.3354 0.40589 0.0
C103 C 0.98695 0.34452 0.47859 0.0
N104 N 0.99264 0.35216 0.39114 0.0
C105 C 0.03945 0.35843 0.43701 0.0
C106 C 0.82485 0.3159 0.6072 0.0
O107 O 0.76811 0.1761 0.53986 0.0
O108 O 0.87625 0.21711 0.49812 0.0
O109 O 0.86564 0.32587 0.56476 0.0
O110 O 0.75353 0.28597 0.60311 0.0
O111 O 0.75137 0.37373 0.49411 0.0
H112 H 0.00753 0.34232 0.5198 0.0
H113 H 0.86056 0.32371 0.37756 0.0
O114 O 0.64207 0.33011 0.53315 0.0
O115 O 0.656 0.22149 0.47038 0.0
O116 O 0.76277 0.26377 0.42899 0.0
C117 C 0.69229 0.23256 0.42699 0.0
H118 H 0.41776 0.16888 0.59097 0.0
H119 H 0.1077 0.36976 0.44013 0.0
H120 H 0.66611 0.54992 0.02957 0.0
H121 H 0.46332 0.66145 0.96284 0.0
H122 H 0.36434 0.57085 0.96261 0.0
H123 H 0.33474 0.4595 0.98129 0.0
H124 H 0.53793 0.34855 0.04838 0.0
H125 H 0.63655 0.43906 0.04843 0.0
C126 C 0.6003 0.55444 0.01497 0.0
C127 C 0.57247 0.61249 0.99628 0.0
C128 C 0.54337 0.50211 0.01497 0.0
C129 C 0.48675 0.61739 0.97752 0.0
C130 C 0.42989 0.56554 0.97734 0.0
C131 C 0.40054 0.45516 0.99595 0.0
C132 C 0.42854 0.39719 0.01476 0.0
C133 C 0.45741 0.50762 0.99598 0.0
C134 C 0.51426 0.3925 0.03361 0.0
C135 C 0.57099 0.44431 0.03369 0.0
H136 H 0.49488 0.64158 0.47433 0.0
H137 H 0.28028 0.54796 0.54448 0.0
H138 H 0.36962 0.45353 0.55425 0.0
H139 H 0.50786 0.39732 0.54262 0.0
H140 H 0.72286 0.49018 0.47231 0.0
H141 H 0.63401 0.58528 0.46314 0.0
C142 C 0.46749 0.60051 0.49168 0.0
C143 C 0.38076 0.60194 0.50852 0.0
C144 C 0.51933 0.54629 0.49732 0.0
C145 C 0.34666 0.54827 0.53109 0.0
C146 C 0.39776 0.4942 0.53675 0.0
C147 C 0.53561 0.43838 0.52543 0.0
C148 C 0.6221 0.4365 0.50823 0.0
C149 C 0.4841 0.4927 0.52003 0.0
C150 C 0.6566 0.49022 0.48593 0.0
C151 C 0.60576 0.54463 0.4806 0.0
H152 H 0.01575 0.12841 0.98316 0.0
H153 H 0.22594 0.02507 0.05098 0.0
H154 H 0.1357 0.92924 0.04943 0.0
H155 H 0.99708 0.87476 0.02883 0.0
H156 H 0.78757 0.97847 0.96056 0.0
H157 H 0.87784 0.07404 0.96227 0.0
C158 C 0.04192 0.08499 0.99769 0.0
C159 C 0.12749 0.08404 0.01721 0.0
C160 C 0.98986 0.03001 0.99653 0.0
C161 C 0.16028 0.02722 0.03575 0.0
C162 C 0.10874 0.97234 0.03486 0.0
C163 C 0.97119 0.9182 0.0142 0.0
C164 C 0.88565 0.91931 0.99456 0.0
C165 C 0.02346 0.97316 0.01529 0.0
C166 C 0.85316 0.97614 0.97588 0.0
C167 C 0.90472 0.03092 0.97686 0.0
H168 H 0.99761 0.13922 0.47364 0.0
H169 H 0.79213 0.06167 0.56412 0.0
H170 H 0.86698 0.95884 0.56159 0.0
H171 H 0.99132 0.89101 0.53415 0.0
H172 H 0.19672 0.96935 0.44405 0.0
H173 H 0.12093 0.0715 0.44576 0.0
C174 C 0.96921 0.09992 0.49296 0.0
C175 C 0.88947 0.10828 0.51912 0.0
C176 C 0.01238 0.04086 0.49123 0.0
C177 C 0.85354 0.05667 0.54374 0.0
C178 C 0.89621 0.99775 0.54226 0.0
C179 C 0.01926 0.9303 0.51461 0.0
C180 C 0.09958 0.92242 0.48901 0.0
C181 C 0.97564 0.98926 0.51606 0.0
C182 C 0.13503 0.97401 0.46412 0.0
C183 C 0.09182 0.03257 0.46512 0.0
H184 H 0.76649 0.20629 0.32897 0.0
H185 H 0.52045 0.2168 0.40911 0.0
H186 H 0.44524 0.19301 0.32366 0.0
H187 H 0.4486 0.17369 0.2257 0.0
H188 H 0.69242 0.15544 0.14472 0.0
H189 H 0.76992 0.17702 0.23076 0.0
C190 C 0.69649 0.20292 0.32757 0.0
C191 C 0.64902 0.21365 0.37517 0.0
C192 C 0.6535 0.18782 0.27823 0.0
C193 C 0.55843 0.20852 0.37305 0.0
C194 C 0.5153 0.19512 0.3242 0.0
C195 C 0.51873 0.17407 0.22724 0.0
C196 C 0.5652 0.16371 0.17947 0.0
C197 C 0.56207 0.18534 0.27658 0.0
C198 C 0.65588 0.16327 0.18137 0.0
C199 C 0.69985 0.17588 0.23038 0.0
H200 H 0.52115 0.84917 0.12579 0.0
H201 H 0.77991 0.80321 0.17638 0.0
H202 H 0.73774 0.81891 0.26987 0.0
H203 H 0.62536 0.83495 0.33689 0.0
H204 H 0.36514 0.87946 0.28867 0.0
H205 H 0.40982 0.8749 0.19503 0.0
C206 C 0.56844 0.84366 0.15736 0.0
C207 C 0.65329 0.82443 0.14399 0.0
C208 C 0.54337 0.85167 0.21157 0.0
C209 C 0.71386 0.81728 0.18541 0.0
C210 C 0.68989 0.82623 0.23903 0.0
C211 C 0.57852 0.8451 0.3063 0.0
C212 C 0.49171 0.85688 0.32016 0.0
C213 C 0.60443 0.84187 0.25255 0.0
C214 C 0.4321 0.86908 0.27931 0.0
C215 C 0.45768 0.86671 0.22563 0.0
H216 H 0.34951 0.85678 0.83637 0.0
H217 H 0.61226 0.88794 0.78844 0.0
H218 H 0.56748 0.87607 0.69421 0.0
H219 H 0.45492 0.84679 0.62484 0.0
H220 H 0.19327 0.81569 0.67549 0.0
H221 H 0.23631 0.83878 0.76867 0.0
C222 C 0.397 0.86252 0.80566 0.0
C223 C 0.48448 0.87236 0.81996 0.0
C224 C 0.371 0.85515 0.75154 0.0
C225 C 0.54471 0.87902 0.77889 0.0
C226 C 0.5191 0.8724 0.72482 0.0
C227 C 0.40727 0.84608 0.65627 0.0
C228 C 0.32127 0.82863 0.64301 0.0
C229 C 0.43267 0.85875 0.71053 0.0
C230 C 0.26024 0.82801 0.68435 0.0
C231 C 0.28467 0.8413 0.73786 0.0
H232 H 0.37416 0.17991 0.67613 0.0
H233 H 0.64047 0.14989 0.72109 0.0
H234 H 0.59856 0.14714 0.81453 0.0
H235 H 0.48771 0.16561 0.8849 0.0
H236 H 0.22277 0.19658 0.83743 0.0
H237 H 0.26275 0.18485 0.74351 0.0
C238 C 0.42327 0.1713 0.70576 0.0
C239 C 0.51073 0.16666 0.69122 0.0
C240 C 0.39892 0.17015 0.75938 0.0
C241 C 0.57284 0.15554 0.73099 0.0
C242 C 0.54891 0.15361 0.78458 0.0
C243 C 0.43872 0.16846 0.85387 0.0
C244 C 0.35281 0.18293 0.86809 0.0
C245 C 0.4624 0.1629 0.79952 0.0
C246 C 0.28973 0.18645 0.82754 0.0
C247 C 0.31243 0.17978 0.77375 0.0
H248 H 0.96756 0.60655 0.19807 0.0
H249 H 0.0809 0.77246 0.13611 0.0
H250 H 0.16158 0.79639 0.22026 0.0
H251 H 0.19361 0.77326 0.31316 0.0
H252 H 0.07041 0.61253 0.37799 0.0
H253 H 1.00041 0.58295 0.29122 0.0
C254 C 0.01092 0.64734 0.20292 0.0
C255 C 0.01895 0.68752 0.16097 0.0
C256 C 0.05489 0.6618 0.25204 0.0
C257 C 0.07384 0.74105 0.16798 0.0
C258 C 0.11985 0.75465 0.21602 0.0
C259 C 0.15229 0.7313 0.30809 0.0
C260 C 0.13766 0.69491 0.35188 0.0
C261 C 0.11006 0.71583 0.25858 0.0
C262 C 0.08271 0.64132 0.34492 0.0
C263 C 0.04261 0.62443 0.29531 0.0
H264 H 0.15293 0.32029 0.35726 0.0
H265 H 0.90313 0.38051 0.30241 0.0
H266 H 0.9525 0.36808 0.20947 0.0
H267 H 0.06473 0.33351 0.14327 0.0
H268 H 0.31251 0.27063 0.20014 0.0
H269 H 0.26629 0.29163 0.29249 0.0
C270 C 0.10968 0.33199 0.3252 0.0
C271 C 0.02435 0.35124 0.33696 0.0
C272 C 0.13811 0.32388 0.27194 0.0
C273 C 0.96886 0.36496 0.29451 0.0
C274 C 0.99713 0.35797 0.24133 0.0
C275 C 0.10882 0.32513 0.17591 0.0
C276 C 0.19186 0.30021 0.16457 0.0
C277 C 0.08128 0.33637 0.22944 0.0
C278 C 0.24805 0.28934 0.20745 0.0
C279 C 0.22172 0.30136 0.26047 0.0
H280 H 0.99269 0.31454 0.64281 0.0
H281 H 0.73273 0.35945 0.69392 0.0
H282 H 0.78224 0.37699 0.78694 0.0
H283 H 0.89612 0.37015 0.85449 0.0
H284 H 0.15423 0.31497 0.8046 0.0
H285 H 0.10929 0.31247 0.71131 0.0
C286 C 0.94748 0.32947 0.67429 0.0
C287 C 0.85925 0.33589 0.66153 0.0
C288 C 0.97592 0.33716 0.72827 0.0
C289 C 0.80098 0.35419 0.70278 0.0
C290 C 0.82919 0.36402 0.75603 0.0
C291 C 0.94295 0.35744 0.82355 0.0
C292 C 0.02846 0.34201 0.83776 0.0
C293 C 0.91607 0.35392 0.76946 0.0
C294 C 0.088 0.32735 0.79608 0.0
C295 C 0.06221 0.32544 0.74214 0.0
H296 H 0.84521 0.69083 0.65453 0.0
H297 H 0.10364 0.64496 0.70525 0.0
H298 H 0.05706 0.65142 0.79859 0.0
H299 H 0.94459 0.67845 0.86669 0.0
H300 H 0.68745 0.72539 0.81378 0.0
H301 H 0.73159 0.70888 0.72069 0.0
C302 C 0.89122 0.68084 0.68563 0.0
C303 C 0.97811 0.66795 0.67253 0.0
C304 C 0.86421 0.68513 0.7392 0.0
C305 C 0.03667 0.65607 0.71401 0.0
C306 C 0.01 0.65955 0.76751 0.0
C307 C 0.89805 0.68406 0.83472 0.0
C308 C 0.81309 0.70375 0.84735 0.0
C309 C 0.92422 0.67538 0.78076 0.0
C310 C 0.75357 0.71101 0.80538 0.0
C311 C 0.77867 0.70155 0.75197 0.0
loop_
_geom_bond_atom_site_label_1
_geom_bond_atom_site_label_2
_geom_bond_distance
_geom_bond_site_symmetry_2
_ccdc_geom_bond_type
Co0 N5 2.057 . S
Co0 O17 2.021 . S
Co0 O20 2.062 . S
Co0 O24 2.117 . S
Co0 O25 2.020 1_556 S
C1 O21 1.271 . S
C1 O24 1.246 1_554 S
Co2 N11 2.057 . S
Co2 O18 2.117 . S
Co2 O19 2.020 1_554 S
Co2 O21 2.021 . S
Co2 O26 2.062 . S
C3 N5 1.316 . S
C3 N6 1.347 . S
C3 H8 0.931 . S
C4 N5 1.375 . S
C4 C7 1.350 1_455 S
C4 H9 0.930 . S
N5 Co0 2.057 . S
N5 C3 1.316 . S
N5 C4 1.375 . S
N6 C3 1.347 . S
N6 C7 1.373 1_455 S
C7 C4 1.350 1_655 S
C7 N6 1.373 1_655 S
C7 H28 0.931 . S
H8 C3 0.931 . S
H9 C4 0.930 . S
C10 O17 1.268 . S
C10 O18 1.249 1_556 S
N11 Co2 2.057 . S
N11 C12 1.316 . S
N11 C13 1.375 . S
C12 N11 1.316 . S
C12 N14 1.347 . S
C12 H23 0.931 . S
C13 N11 1.375 . S
C13 C15 1.350 . S
C13 H22 0.930 . S
N14 C12 1.347 . S
N14 C15 1.373 . S
C15 C13 1.350 . S
C15 N14 1.373 . S
C15 H29 0.931 . S
C16 O19 1.256 . S
C16 O20 1.255 . S
O17 Co0 2.021 . S
O17 C10 1.268 . S
O18 Co2 2.117 . S
O18 C10 1.249 1_554 S
O19 Co2 2.020 1_556 S
O19 C16 1.256 . S
O20 Co0 2.062 . S
O20 C16 1.255 . S
O21 C1 1.271 . S
O21 Co2 2.021 . S
H22 C13 0.930 . S
H23 C12 0.931 . S
O24 Co0 2.117 . S
O24 C1 1.246 1_556 S
O25 Co0 2.020 1_554 S
O25 C27 1.256 . S
O26 Co2 2.062 . S
O26 C27 1.255 . S
C27 O25 1.256 . S
C27 O26 1.255 . S
H28 C7 0.931 . S
H29 C15 0.931 . S
Co30 N35 2.057 . S
Co30 O47 2.021 . S
Co30 O50 2.062 . S
Co30 O54 2.117 . S
Co30 O55 2.020 1_556 S
C31 O51 1.271 . S
C31 O54 1.246 1_554 S
Co32 N41 2.057 . S
Co32 O48 2.117 . S
Co32 O49 2.020 1_554 S
Co32 O51 2.021 . S
Co32 O56 2.062 . S
C33 N35 1.316 . S
C33 N36 1.347 . S
C33 H38 0.931 . S
C34 N35 1.375 . S
C34 C37 1.350 . S
C34 H39 0.930 . S
N35 Co30 2.057 . S
N35 C33 1.316 . S
N35 C34 1.375 . S
N36 C33 1.347 . S
N36 C37 1.373 . S
C37 C34 1.350 . S
C37 N36 1.373 . S
C37 H58 0.931 . S
H38 C33 0.931 . S
H39 C34 0.930 . S
C40 O47 1.268 . S
C40 O48 1.249 1_556 S
N41 Co32 2.057 . S
N41 C42 1.316 . S
N41 C43 1.375 . S
C42 N41 1.316 . S
C42 N44 1.347 . S
C42 H53 0.931 . S
C43 N41 1.375 . S
C43 C45 1.350 1_655 S
C43 H52 0.930 . S
N44 C42 1.347 . S
N44 C45 1.373 1_655 S
C45 C43 1.350 1_455 S
C45 N44 1.373 1_455 S
C45 H59 0.931 . S
C46 O49 1.256 . S
C46 O50 1.255 . S
O47 Co30 2.021 . S
O47 C40 1.268 . S
O48 Co32 2.117 . S
O48 C40 1.249 1_554 S
O49 Co32 2.020 1_556 S
O49 C46 1.256 . S
O50 Co30 2.062 . S
O50 C46 1.255 . S
O51 C31 1.271 . S
O51 Co32 2.021 . S
H52 C43 0.930 . S
H53 C42 0.931 . S
O54 Co30 2.117 . S
O54 C31 1.246 1_556 S
O55 Co30 2.020 1_554 S
O55 C57 1.256 . S
O56 Co32 2.062 . S
O56 C57 1.255 . S
C57 O55 1.256 . S
C57 O56 1.255 . S
H58 C37 0.931 . S
H59 C45 0.931 . S
Co60 N65 2.057 . S
Co60 O77 2.021 . S
Co60 O80 2.062 . S
Co60 O84 2.117 . S
Co60 O85 2.020 . S
C61 O81 1.259 . S
C61 O84 1.258 . S
Co62 N71 2.057 . S
Co62 O78 2.117 . S
Co62 O79 2.020 . S
Co62 O81 2.021 . S
Co62 O86 2.062 . S
C63 N65 1.316 . S
C63 N66 1.347 . S
C63 H68 0.931 . S
C64 N65 1.375 . S
C64 C67 1.350 1_455 S
C64 H69 0.930 . S
N65 Co60 2.057 . S
N65 C63 1.316 . S
N65 C64 1.375 . S
N66 C63 1.347 . S
N66 C67 1.373 1_455 S
C67 C64 1.350 1_655 S
C67 N66 1.373 1_655 S
C67 H88 0.931 . S
H68 C63 0.931 . S
H69 C64 0.930 . S
C70 O77 1.259 . S
C70 O78 1.258 . S
N71 Co62 2.057 . S
N71 C72 1.316 . S
N71 C73 1.375 . S
C72 N71 1.316 . S
C72 N74 1.347 . S
C72 H83 0.931 . S
C73 N71 1.375 . S
C73 C75 1.350 . S
C73 H82 0.930 . S
N74 C72 1.347 . S
N74 C75 1.373 . S
C75 C73 1.350 . S
C75 N74 1.373 . S
C75 H89 0.931 . S
C76 O79 1.256 . S
C76 O80 1.255 . S
O77 Co60 2.021 . S
O77 C70 1.259 . S
O78 Co62 2.117 . S
O78 C70 1.258 . S
O79 Co62 2.020 . S
O79 C76 1.256 . S
O80 Co60 2.062 . S
O80 C76 1.255 . S
O81 C61 1.259 . S
O81 Co62 2.021 . S
H82 C73 0.930 . S
H83 C72 0.931 . S
O84 Co60 2.117 . S
O84 C61 1.258 . S
O85 Co60 2.020 . S
O85 C87 1.256 . S
O86 Co62 2.062 . S
O86 C87 1.255 . S
C87 O85 1.256 . S
C87 O86 1.255 . S
H88 C67 0.931 . S
H89 C75 0.931 . S
Co90 N95 2.057 . S
Co90 O107 2.021 . S
Co90 O110 2.062 . S
Co90 O114 2.117 . S
Co90 O115 2.020 . S
C91 O111 1.259 . S
C91 O114 1.258 . S
Co92 N101 2.057 . S
Co92 O108 2.117 . S
Co92 O109 2.020 . S
Co92 O111 2.021 . S
Co92 O116 2.062 . S
C93 N95 1.316 . S
C93 N96 1.347 . S
C93 H98 0.931 . S
C94 N95 1.375 . S
C94 C97 1.350 . S
C94 H99 0.930 . S
N95 Co90 2.057 . S
N95 C93 1.316 . S
N95 C94 1.375 . S
N96 C93 1.347 . S
N96 C97 1.373 . S
C97 C94 1.350 . S
C97 N96 1.373 . S
C97 H118 0.931 . S
H98 C93 0.931 . S
H99 C94 0.930 . S
C100 O107 1.259 . S
C100 O108 1.258 . S
N101 Co92 2.057 . S
N101 C102 1.316 . S
N101 C103 1.375 . S
C102 N101 1.316 . S
C102 N104 1.347 . S
C102 H113 0.931 . S
C103 N101 1.375 . S
C103 C105 1.350 1_655 S
C103 H112 0.930 . S
N104 C102 1.347 . S
N104 C105 1.373 1_655 S
C105 C103 1.350 1_455 S
C105 N104 1.373 1_455 S
C105 H119 0.931 . S
C106 O109 1.256 . S
C106 O110 1.255 . S
O107 Co90 2.021 . S
O107 C100 1.259 . S
O108 Co92 2.117 . S
O108 C100 1.258 . S
O109 Co92 2.020 . S
O109 C106 1.256 . S
O110 Co90 2.062 . S
O110 C106 1.255 . S
O111 C91 1.259 . S
O111 Co92 2.021 . S
H112 C103 0.930 . S
H113 C102 0.931 . S
O114 Co90 2.117 . S
O114 C91 1.258 . S
O115 Co90 2.020 . S
O115 C117 1.256 . S
O116 Co92 2.062 . S
O116 C117 1.255 . S
C117 O115 1.256 . S
C117 O116 1.255 . S
H118 C97 0.931 . S
H119 C105 0.931 . S
H120 C126 0.930 . S
H121 C129 0.930 . S
H122 C130 0.930 . S
H123 C131 0.930 . S
H124 C134 0.930 . S
H125 C135 0.930 . S
C126 H120 0.930 . S
C126 C127 1.355 1_554 S
C126 C128 1.415 . S
C127 C126 1.355 1_556 S
C127 C129 1.419 . S
C128 C126 1.415 . S
C128 C133 1.425 1_554 S
C128 C135 1.409 . S
C129 H121 0.930 . S
C129 C127 1.419 . S
C129 C130 1.362 . S
C130 H122 0.930 . S
C130 C129 1.362 . S
C130 C133 1.409 . S
C131 H123 0.930 . S
C131 C132 1.355 1_556 S
C131 C133 1.415 . S
C132 C131 1.355 1_554 S
C132 C134 1.419 . S
C133 C128 1.425 1_556 S
C133 C130 1.409 . S
C133 C131 1.415 . S
C134 H124 0.930 . S
C134 C132 1.419 . S
C134 C135 1.362 . S
C135 H125 0.930 . S
C135 C128 1.409 . S
C135 C134 1.362 . S
H136 C142 0.930 . S
H137 C145 0.930 . S
H138 C146 0.930 . S
H139 C147 0.930 . S
H140 C150 0.930 . S
H141 C151 0.930 . S
C142 H136 0.930 . S
C142 C143 1.355 . S
C142 C144 1.415 . S
C143 C142 1.355 . S
C143 C145 1.419 . S
C144 C142 1.415 . S
C144 C149 1.425 . S
C144 C151 1.409 . S
C145 H137 0.930 . S
C145 C143 1.419 . S
C145 C146 1.362 . S
C146 H138 0.930 . S
C146 C145 1.362 . S
C146 C149 1.409 . S
C147 H139 0.930 . S
C147 C148 1.355 . S
C147 C149 1.415 . S
C148 C147 1.355 . S
C148 C150 1.419 . S
C149 C144 1.425 . S
C149 C146 1.409 . S
C149 C147 1.415 . S
C150 H140 0.930 . S
C150 C148 1.419 . S
C150 C151 1.362 . S
C151 H141 0.930 . S
C151 C144 1.409 . S
C151 C150 1.362 . S
H152 C158 0.930 . S
H153 C161 0.930 . S
H154 C162 0.930 . S
H155 C163 0.930 . S
H156 C166 0.930 . S
H157 C167 0.930 . S
C158 H152 0.930 . S
C158 C159 1.356 . S
C158 C160 1.415 1_455 S
C159 C158 1.356 . S
C159 C161 1.419 1_554 S
C160 C158 1.415 1_655 S
C160 C165 1.425 1_644 S
C160 C167 1.409 . S
C161 H153 0.930 . S
C161 C159 1.419 1_556 S
C161 C162 1.362 1_545 S
C162 H154 0.930 . S
C162 C161 1.362 1_565 S
C162 C165 1.409 . S
C163 H155 0.930 . S
C163 C164 1.355 . S
C163 C165 1.415 1_655 S
C164 C163 1.355 . S
C164 C166 1.419 1_556 S
C165 C160 1.425 1_466 S
C165 C162 1.409 . S
C165 C163 1.415 1_455 S
C166 H156 0.930 . S
C166 C164 1.419 1_554 S
C166 C167 1.362 1_565 S
C167 H157 0.930 . S
C167 C160 1.409 . S
C167 C166 1.362 1_545 S
H168 C174 0.930 . S
H169 C177 0.930 . S
H170 C178 0.930 . S
H171 C179 0.930 . S
H172 C182 0.930 . S
H173 C183 0.930 . S
C174 H168 0.930 . S
C174 C175 1.355 . S
C174 C176 1.415 1_655 S
C175 C174 1.355 . S
C175 C177 1.419 . S
C176 C174 1.415 1_455 S
C176 C181 1.425 1_445 S
C176 C183 1.409 . S
C177 H169 0.930 . S
C177 C175 1.419 . S
C177 C178 1.362 1_545 S
C178 H170 0.930 . S
C178 C177 1.362 1_565 S
C178 C181 1.409 . S
C179 H171 0.930 . S
C179 C180 1.355 . S
C179 C181 1.415 1_455 S
C180 C179 1.355 . S
C180 C182 1.419 . S
C181 C176 1.425 1_665 S
C181 C178 1.409 . S
C181 C179 1.415 1_655 S
C182 H172 0.930 . S
C182 C180 1.419 . S
C182 C183 1.362 1_565 S
C183 H173 0.930 . S
C183 C176 1.409 . S
C183 C182 1.362 1_545 S
H184 C190 0.930 . S
H185 C193 0.930 . S
H186 C194 0.930 . S
H187 C195 0.930 . S
H188 C198 0.930 . S
H189 C199 0.930 . S
C190 H184 0.930 . S
C190 C191 1.355 . S
C190 C192 1.415 . S
C191 C190 1.355 . S
C191 C193 1.419 . S
C192 C190 1.415 . S
C192 C197 1.425 . S
C192 C199 1.409 . S
C193 H185 0.930 . S
C193 C191 1.419 . S
C193 C194 1.362 . S
C194 H186 0.930 . S
C194 C193 1.362 . S
C194 C197 1.409 . S
C195 H187 0.930 . S
C195 C196 1.355 . S
C195 C197 1.415 . S
C196 C195 1.355 . S
C196 C198 1.419 . S
C197 C192 1.425 . S
C197 C194 1.409 . S
C197 C195 1.415 . S
C198 H188 0.930 . S
C198 C196 1.419 . S
C198 C199 1.362 . S
C199 H189 0.930 . S
C199 C192 1.409 . S
C199 C198 1.362 . S
H200 C206 0.930 . S
H201 C209 0.930 . S
H202 C210 0.930 . S
H203 C211 0.930 . S
H204 C214 0.930 . S
H205 C215 0.930 . S
C206 H200 0.930 . S
C206 C207 1.355 . S
C206 C208 1.415 . S
C207 C206 1.355 . S
C207 C209 1.419 . S
C208 C206 1.415 . S
C208 C213 1.425 . S
C208 C215 1.409 . S
C209 H201 0.930 . S
C209 C207 1.419 . S
C209 C210 1.362 . S
C210 H202 0.930 . S
C210 C209 1.362 . S
C210 C213 1.409 . S
C211 H203 0.930 . S
C211 C212 1.355 . S
C211 C213 1.415 . S
C212 C211 1.355 . S
C212 C214 1.419 . S
C213 C208 1.425 . S
C213 C210 1.409 . S
C213 C211 1.415 . S
C214 H204 0.930 . S
C214 C212 1.419 . S
C214 C215 1.362 . S
C215 H205 0.930 . S
C215 C208 1.409 . S
C215 C214 1.362 . S
H216 C222 0.930 . S
H217 C225 0.930 . S
H218 C226 0.930 . S
H219 C227 0.930 . S
H220 C230 0.930 . S
H221 C231 0.930 . S
C222 H216 0.930 . S
C222 C223 1.355 . S
C222 C224 1.415 . S
C223 C222 1.355 . S
C223 C225 1.419 . S
C224 C222 1.415 . S
C224 C229 1.425 . S
C224 C231 1.409 . S
C225 H217 0.930 . S
C225 C223 1.419 . S
C225 C226 1.362 . S
C226 H218 0.930 . S
C226 C225 1.362 . S
C226 C229 1.409 . S
C227 H219 0.930 . S
C227 C228 1.355 . S
C227 C229 1.415 . S
C228 C227 1.355 . S
C228 C230 1.419 . S
C229 C224 1.425 . S
C229 C226 1.409 . S
C229 C227 1.415 . S
C230 H220 0.930 . S
C230 C228 1.419 . S
C230 C231 1.362 . S
C231 H221 0.930 . S
C231 C224 1.409 . S
C231 C230 1.362 . S
H232 C238 0.930 . S
H233 C241 0.930 . S
H234 C242 0.930 . S
H235 C243 0.930 . S
H236 C246 0.930 . S
H237 C247 0.930 . S
C238 H232 0.930 . S
C238 C239 1.355 . S
C238 C240 1.415 . S
C239 C238 1.355 . S
C239 C241 1.419 . S
C240 C238 1.415 . S
C240 C245 1.425 . S
C240 C247 1.409 . S
C241 H233 0.930 . S
C241 C239 1.419 . S
C241 C242 1.362 . S
C242 H234 0.930 . S
C242 C241 1.362 . S
C242 C245 1.409 . S
C243 H235 0.930 . S
C243 C244 1.355 . S
C243 C245 1.415 . S
C244 C243 1.355 . S
C244 C246 1.419 . S
C245 C240 1.425 . S
C245 C242 1.409 . S
C245 C243 1.415 . S
C246 H236 0.930 . S
C246 C244 1.419 . S
C246 C247 1.362 . S
C247 H237 0.930 . S
C247 C240 1.409 . S
C247 C246 1.362 . S
H248 C254 0.934 . S
H249 C257 0.930 . S
H250 C258 0.930 . S
H251 C259 0.930 . S
H252 C262 0.930 . S
H253 C263 0.930 . S
C254 H248 0.934 . S
C254 C255 1.355 1_655 S
C254 C256 1.410 1_655 S
C255 C254 1.355 1_455 S
C255 C257 1.421 . S
C256 C254 1.410 1_455 S
C256 C261 1.425 . S
C256 C263 1.409 . S
C257 H249 0.930 . S
C257 C255 1.421 . S
C257 C258 1.362 . S
C258 H250 0.930 . S
C258 C257 1.362 . S
C258 C261 1.409 . S
C259 H251 0.930 . S
C259 C260 1.355 . S
C259 C261 1.415 . S
C260 C259 1.355 . S
C260 C262 1.419 . S
C261 C256 1.425 . S
C261 C258 1.409 . S
C261 C259 1.415 . S
C262 H252 0.930 . S
C262 C260 1.419 . S
C262 C263 1.362 . S
C263 H253 0.930 . S
C263 C256 1.409 . S
C263 C262 1.362 . S
H264 C270 0.930 . S
H265 C273 0.930 . S
H266 C274 0.930 . S
H267 C275 0.930 . S
H268 C278 0.930 . S
H269 C279 0.930 . S
C270 H264 0.930 . S
C270 C271 1.355 1_455 S
C270 C272 1.415 . S
C271 C270 1.355 1_655 S
C271 C273 1.419 . S
C272 C270 1.415 . S
C272 C277 1.425 . S
C272 C279 1.409 . S
C273 H265 0.930 . S
C273 C271 1.419 . S
C273 C274 1.362 . S
C274 H266 0.930 . S
C274 C273 1.362 . S
C274 C277 1.409 1_655 S
C275 H267 0.930 . S
C275 C276 1.355 . S
C275 C277 1.415 . S
C276 C275 1.355 . S
C276 C278 1.419 . S
C277 C272 1.425 . S
C277 C274 1.409 1_455 S
C277 C275 1.415 . S
C278 H268 0.930 . S
C278 C276 1.419 . S
C278 C279 1.362 . S
C279 H269 0.930 . S
C279 C272 1.409 . S
C279 C278 1.362 . S
H280 C286 0.930 . S
H281 C289 0.930 . S
H282 C290 0.930 . S
H283 C291 0.930 . S
H284 C294 0.930 . S
H285 C295 0.930 . S
C286 H280 0.930 . S
C286 C287 1.355 . S
C286 C288 1.415 . S
C287 C286 1.355 . S
C287 C289 1.419 . S
C288 C286 1.415 . S
C288 C293 1.425 . S
C288 C295 1.409 1_655 S
C289 H281 0.930 . S
C289 C287 1.419 . S
C289 C290 1.362 . S
C290 H282 0.930 . S
C290 C289 1.362 . S
C290 C293 1.409 . S
C291 H283 0.930 . S
C291 C292 1.355 1_655 S
C291 C293 1.415 . S
C292 C291 1.355 1_455 S
C292 C294 1.419 . S
C293 C288 1.425 . S
C293 C290 1.409 . S
C293 C291 1.415 . S
C294 H284 0.930 . S
C294 C292 1.419 . S
C294 C295 1.362 . S
C295 H285 0.930 . S
C295 C288 1.409 1_455 S
C295 C294 1.362 . S
H296 C302 0.930 . S
H297 C305 0.930 . S
H298 C306 0.930 . S
H299 C307 0.930 1_455 S
H300 C310 0.930 . S
H301 C311 0.930 . S
C302 H296 0.930 . S
C302 C303 1.355 1_655 S
C302 C304 1.415 . S
C303 C302 1.355 1_455 S
C303 C305 1.419 . S
C304 C302 1.415 . S
C304 C309 1.425 . S
C304 C311 1.409 . S
C305 H297 0.930 . S
C305 C303 1.419 . S
C305 C306 1.362 . S
C306 H298 0.930 . S
C306 C305 1.362 . S
C306 C309 1.409 1_455 S
C307 H299 0.930 1_655 S
C307 C308 1.355 . S
C307 C309 1.415 . S
C308 C307 1.355 . S
C308 C310 1.419 . S
C309 C304 1.425 . S
C309 C306 1.409 1_655 S
C309 C307 1.415 . S
C310 H300 0.930 . S
C310 C308 1.419 . S
C310 C311 1.362 . S
C311 H301 0.930 . S
C311 C304 1.409 . S
C311 C310 1.362 . S
C127 C31 1.673 1_556 S
C132 C10 1.673 1_554 S
C143 C70 1.696 . S
C148 C91 1.696 . S
C159 C1 1.696 . S
C164 C40 1.696 . S
C175 C100 1.691 . S
C180 C61 1.691 . S
C191 C117 1.103 . S
C196 N14 1.071 . S
C207 C57 1.054 . S
C212 N74 1.062 . S
C223 N36 1.037 . S
C228 C76 1.065 . S
C239 N96 1.002 . S
C244 C16 1.088 . S
C255 N44 0.994 1_455 S
C260 C87 1.098 . S
C271 N104 1.101 . S
C276 C27 1.054 . S
C287 C106 1.064 . S
C292 N6 1.036 . S
C303 N66 1.032 . S
C308 C46 1.068 . S
