# Generated by pormake.
# Topology ske, (6)-cn, num edge types: 1
# Building blocks:
#     Node 0, Type 0, BuildingBlock: PAMTOO_clean_sbu_0, # of connection points: 6
#     Node 1, Type 0, BuildingBlock: PAMTOO_clean_sbu_0, # of connection points: 6
#     Node 2, Type 0, BuildingBlock: PAMTOO_clean_sbu_0, # of connection points: 6
#     Node 3, Type 0, BuildingBlock: PAMTOO_clean_sbu_0, # of connection points: 6
#     Node 4, Type 0, BuildingBlock: PAMTOO_clean_sbu_0, # of connection points: 6
#     Node 5, Type 0, BuildingBlock: PAMTOO_clean_sbu_0, # of connection points: 6
#     Node 6, Type 0, BuildingBlock: PAMTOO_clean_sbu_0, # of connection points: 6
#     Node 7, Type 0, BuildingBlock: PAMTOO_clean_sbu_0, # of connection points: 6
#     Edge 8, Type (0, 0), BuildingBlock: EZIPEK_clean_linker_0, # of connection points: 2
#     Edge 9, Type (0, 0), BuildingBlock: EZIPEK_clean_linker_0, # of connection points: 2
#     Edge 10, Type (0, 0), BuildingBlock: EZIPEK_clean_linker_0, # of connection points: 2
#     Edge 11, Type (0, 0), BuildingBlock: EZIPEK_clean_linker_0, # of connection points: 2
#     Edge 12, Type (0, 0), BuildingBlock: EZIPEK_clean_linker_0, # of connection points: 2
#     Edge 13, Type (0, 0), BuildingBlock: EZIPEK_clean_linker_0, # of connection points: 2
#     Edge 14, Type (0, 0), BuildingBlock: EZIPEK_clean_linker_0, # of connection points: 2
#     Edge 15, Type (0, 0), BuildingBlock: EZIPEK_clean_linker_0, # of connection points: 2
#     Edge 16, Type (0, 0), BuildingBlock: EZIPEK_clean_linker_0, # of connection points: 2
#     Edge 17, Type (0, 0), BuildingBlock: EZIPEK_clean_linker_0, # of connection points: 2
#     Edge 18, Type (0, 0), BuildingBlock: EZIPEK_clean_linker_0, # of connection points: 2
#     Edge 19, Type (0, 0), BuildingBlock: EZIPEK_clean_linker_0, # of connection points: 2
#     Edge 20, Type (0, 0), BuildingBlock: EZIPEK_clean_linker_0, # of connection points: 2
#     Edge 21, Type (0, 0), BuildingBlock: EZIPEK_clean_linker_0, # of connection points: 2
#     Edge 22, Type (0, 0), BuildingBlock: EZIPEK_clean_linker_0, # of connection points: 2
#     Edge 23, Type (0, 0), BuildingBlock: EZIPEK_clean_linker_0, # of connection points: 2
#     Edge 24, Type (0, 0), BuildingBlock: EZIPEK_clean_linker_0, # of connection points: 2
#     Edge 25, Type (0, 0), BuildingBlock: EZIPEK_clean_linker_0, # of connection points: 2
#     Edge 26, Type (0, 0), BuildingBlock: EZIPEK_clean_linker_0, # of connection points: 2
#     Edge 27, Type (0, 0), BuildingBlock: EZIPEK_clean_linker_0, # of connection points: 2
#     Edge 28, Type (0, 0), BuildingBlock: EZIPEK_clean_linker_0, # of connection points: 2
#     Edge 29, Type (0, 0), BuildingBlock: EZIPEK_clean_linker_0, # of connection points: 2
#     Edge 30, Type (0, 0), BuildingBlock: EZIPEK_clean_linker_0, # of connection points: 2
#     Edge 31, Type (0, 0), BuildingBlock: EZIPEK_clean_linker_0, # of connection points: 2
# Relax obj value: 0.155
# Max RMSD: 0.184
# Mean RMSD: 0.177
data_MOF--net-ske--node1-PAMTOO_clean_sbu_0--edge1-EZIPEK_clean_linker_0
_symmetry_space_group_name_H-M    P1
_symmetry_Int_Tables_number       1
_symmetry_cell_setting            triclinic
loop_
_symmetry_equiv_pos_as_xyz
'x, y, z'
_cell_length_a     88.264675
_cell_length_b     22.186589
_cell_length_c     11.387348
_cell_angle_alpha  90.097737
_cell_angle_beta   90.105009
_cell_angle_gamma 89.853625
loop_
_atom_site_label
_atom_site_type_symbol
_atom_site_fract_x
_atom_site_fract_y
_atom_site_fract_z
_atom_type_partial_charge
Dy0 Dy 0.16445 0.23951 0.4656 0.0
Dy1 Dy 0.12639 0.24035 0.46357 0.0
C2 C 0.14498 0.11837 0.47539 0.0
O3 O 0.15818 0.22444 0.27704 0.0
O4 O 0.13295 0.25277 0.27502 0.0
O5 O 0.18598 0.19573 0.42985 0.0
O6 O 0.18527 0.28719 0.49731 0.0
O7 O 0.13432 0.33016 0.52616 0.0
O8 O 0.15675 0.33353 0.42697 0.0
O9 O 0.1326 0.22562 0.6525 0.0
O10 O 0.15819 0.24872 0.65535 0.0
O11 O 0.10587 0.29007 0.42486 0.0
O12 O 0.10464 0.20094 0.50469 0.0
C13 C 0.14559 0.238 0.22066 0.0
O14 O 0.15662 0.14781 0.51868 0.0
O15 O 0.13369 0.14608 0.42277 0.0
C16 C 0.20776 0.23071 0.53751 0.0
C17 C 0.23691 0.21833 0.63768 0.0
C18 C 0.23047 0.17066 0.57378 0.0
C19 C 0.21602 0.17679 0.52403 0.0
C20 C 0.21408 0.27749 0.60533 0.0
C21 C 0.22849 0.27125 0.65515 0.0
C22 C 0.19384 0.24175 0.46725 0.0
C23 C 0.14564 0.36053 0.48241 0.0
C24 C 0.14534 0.23662 0.70882 0.0
C25 C 0.0816 0.24137 0.42124 0.0
C26 C 0.05012 0.23229 0.38226 0.0
C27 C 0.057 0.28893 0.39293 0.0
C28 C 0.07258 0.29339 0.4117 0.0
C29 C 0.07485 0.18458 0.40509 0.0
C30 C 0.05922 0.18014 0.38461 0.0
C31 C 0.09716 0.24805 0.46747 0.0
H32 H 0.23685 0.12953 0.55926 0.0
H33 H 0.21159 0.14024 0.4711 0.0
H34 H 0.20817 0.31998 0.6161 0.0
H35 H 0.23331 0.30859 0.70382 0.0
H36 H 0.05019 0.32963 0.39137 0.0
H37 H 0.07747 0.33763 0.4252 0.0
H38 H 0.08149 0.14368 0.41319 0.0
H39 H 0.05409 0.13602 0.37648 0.0
Dy40 Dy 0.87016 0.23158 0.4695 0.0
Dy41 Dy 0.90839 0.22952 0.46858 0.0
C42 C 0.89034 0.35261 0.47838 0.0
O43 O 0.87602 0.24049 0.28003 0.0
O44 O 0.90188 0.2231 0.27805 0.0
O45 O 0.84872 0.27697 0.43977 0.0
O46 O 0.84923 0.18333 0.49515 0.0
O47 O 0.90009 0.14039 0.52912 0.0
O48 O 0.87785 0.13825 0.42688 0.0
O49 O 0.90176 0.24486 0.65639 0.0
O50 O 0.87652 0.21668 0.6571 0.0
O51 O 0.92877 0.18047 0.42435 0.0
O52 O 0.93019 0.26527 0.52039 0.0
C53 C 0.88886 0.23252 0.22384 0.0
O54 O 0.87834 0.3241 0.51837 0.0
O55 O 0.9019 0.32434 0.43131 0.0
C56 C 0.82649 0.23706 0.53245 0.0
C57 C 0.79796 0.25005 0.64024 0.0
C58 C 0.80946 0.29247 0.66168 0.0
C59 C 0.82366 0.28622 0.60745 0.0
C60 C 0.81505 0.19435 0.51344 0.0
C61 C 0.8009 0.20087 0.56636 0.0
C62 C 0.8408 0.22944 0.46745 0.0
C63 C 0.88875 0.11076 0.48362 0.0
C64 C 0.88917 0.23073 0.71174 0.0
C65 C 0.95301 0.22993 0.4264 0.0
C66 C 0.98446 0.23264 0.38346 0.0
C67 C 0.97549 0.18725 0.33348 0.0
C68 C 0.95989 0.18575 0.35511 0.0
C69 C 0.96196 0.27728 0.47037 0.0
C70 C 0.97755 0.27858 0.44911 0.0
C71 C 0.93762 0.22007 0.47432 0.0
H72 H 0.80737 0.33058 0.71902 0.0
H73 H 0.83233 0.31977 0.62333 0.0
H74 H 0.817 0.15612 0.456 0.0
H75 H 0.79222 0.16749 0.54967 0.0
H76 H 0.98069 0.15127 0.28318 0.0
H77 H 0.95339 0.1481 0.32155 0.0
H78 H 0.95709 0.31144 0.52703 0.0
H79 H 0.98435 0.31383 0.48856 0.0
Dy80 Dy 0.1646 0.744 0.57534 0.0
Dy81 Dy 0.12684 0.73775 0.57991 0.0
C82 C 0.14422 0.86084 0.55688 0.0
O83 O 0.15889 0.72576 0.7637 0.0
O84 O 0.13389 0.75525 0.76532 0.0
O85 O 0.18429 0.79815 0.54156 0.0
O86 O 0.187 0.70771 0.61107 0.0
O87 O 0.13534 0.64428 0.61301 0.0
O88 O 0.15846 0.65026 0.52124 0.0
O89 O 0.13218 0.72913 0.38783 0.0
O90 O 0.15799 0.74935 0.38546 0.0
O91 O 0.10548 0.69107 0.55793 0.0
O92 O 0.10607 0.7835 0.629 0.0
C93 C 0.14641 0.74017 0.8202 0.0
O94 O 0.15545 0.83589 0.61454 0.0
O95 O 0.13313 0.82857 0.51422 0.0
C96 C 0.20775 0.74866 0.50133 0.0
C97 C 0.2366 0.74615 0.39557 0.0
C98 C 0.22582 0.789 0.36032 0.0
C99 C 0.21151 0.79044 0.41304 0.0
C100 C 0.21844 0.70451 0.53306 0.0
C101 C 0.23275 0.70328 0.48064 0.0
C102 C 0.1938 0.75593 0.57223 0.0
C103 C 0.14696 0.6188 0.56071 0.0
C104 C 0.14502 0.73891 0.33185 0.0
C105 C 0.08138 0.73598 0.61333 0.0
C106 C 0.04982 0.73568 0.64327 0.0
C107 C 0.05838 0.68427 0.67129 0.0
C108 C 0.07406 0.68417 0.65486 0.0
C109 C 0.07287 0.788 0.58906 0.0
C110 C 0.05715 0.78762 0.60259 0.0
C111 C 0.09793 0.73666 0.60114 0.0
H112 H 0.22866 0.82245 0.2948 0.0
H113 H 0.20364 0.82556 0.38742 0.0
H114 H 0.21594 0.6723 0.60169 0.0
H115 H 0.24096 0.66984 0.50848 0.0
H116 H 0.05286 0.64391 0.70301 0.0
H117 H 0.08049 0.64394 0.67585 0.0
H118 H 0.07836 0.82862 0.55825 0.0
H119 H 0.05068 0.82767 0.581 0.0
Dy120 Dy 0.87014 0.72917 0.56819 0.0
Dy121 Dy 0.90822 0.735 0.56944 0.0
C122 C 0.89085 0.61152 0.54266 0.0
O123 O 0.87648 0.74773 0.75489 0.0
O124 O 0.90156 0.71764 0.75637 0.0
O125 O 0.85029 0.67499 0.54082 0.0
O126 O 0.84784 0.76703 0.60282 0.0
O127 O 0.89964 0.82701 0.61216 0.0
O128 O 0.87693 0.82212 0.51388 0.0
O129 O 0.90178 0.74155 0.37821 0.0
O130 O 0.87574 0.72828 0.37795 0.0
O131 O 0.92961 0.77964 0.53247 0.0
O132 O 0.92909 0.68928 0.60741 0.0
C133 C 0.889 0.73324 0.8108 0.0
O134 O 0.87915 0.63574 0.59606 0.0
O135 O 0.90222 0.64402 0.50724 0.0
C136 C 0.82684 0.72384 0.49768 0.0
C137 C 0.79788 0.72307 0.39211 0.0
C138 C 0.80903 0.68208 0.35523 0.0
C139 C 0.82338 0.68226 0.40783 0.0
C140 C 0.81578 0.76618 0.53102 0.0
C141 C 0.80142 0.76579 0.47874 0.0
C142 C 0.84089 0.71814 0.56843 0.0
C143 C 0.88828 0.85314 0.55783 0.0
C144 C 0.88873 0.73429 0.32294 0.0
C145 C 0.95287 0.7405 0.61759 0.0
C146 C 0.98436 0.74179 0.65587 0.0
C147 C 0.97697 0.7934 0.61343 0.0
C148 C 0.96132 0.79274 0.59405 0.0
C149 C 0.96026 0.69027 0.66714 0.0
C150 C 0.97587 0.69094 0.68614 0.0
C151 C 0.93748 0.73318 0.5684 0.0
H152 H 0.80646 0.64889 0.28826 0.0
H153 H 0.83156 0.64856 0.38067 0.0
H154 H 0.81805 0.79824 0.60067 0.0
H155 H 0.79296 0.79797 0.50763 0.0
H156 H 0.98344 0.83291 0.58929 0.0
H157 H 0.95601 0.83176 0.55422 0.0
H158 H 0.95415 0.64891 0.68424 0.0
H159 H 0.98146 0.65065 0.71823 0.0
Dy160 Dy 0.66395 0.73749 0.03954 0.0
Dy161 Dy 0.62583 0.73806 0.04168 0.0
C162 C 0.6453 0.61573 0.02934 0.0
O163 O 0.65713 0.72166 0.85197 0.0
O164 O 0.63214 0.75359 0.85391 0.0
O165 O 0.68579 0.69708 1.001 0.0
O166 O 0.68438 0.78761 0.07257 0.0
O167 O 0.63446 0.82751 0.09911 0.0
O168 O 0.65552 0.82751 0.98445 0.0
O169 O 0.632 0.72529 0.2297 0.0
O170 O 0.65771 0.74516 0.23034 0.0
O171 O 0.60537 0.78873 1.00686 0.0
O172 O 0.60408 0.69898 0.08391 0.0
C173 C 0.64451 0.73732 0.79768 0.0
O174 O 0.65697 0.64358 0.07569 0.0
O175 O 0.63315 0.64464 0.99224 0.0
C176 C 0.70726 0.73327 0.11052 0.0
C177 C 0.73641 0.72254 0.21108 0.0
C178 C 0.73022 0.6747 0.14622 0.0
C179 C 0.71576 0.68 0.09632 0.0
C180 C 0.71334 0.78019 0.17928 0.0
C181 C 0.72775 0.77476 0.22934 0.0
C182 C 0.6933 0.7436 0.04042 0.0
C183 C 0.64498 0.85637 0.04189 0.0
C184 C 0.64484 0.73459 0.28532 0.0
C185 C 0.58119 0.74001 0.9996 0.0
C186 C 0.54985 0.7304 0.95587 0.0
C187 C 0.55657 0.78715 0.96974 0.0
C188 C 0.5721 0.79189 0.99096 0.0
C189 C 0.5746 0.68324 0.9798 0.0
C190 C 0.55904 0.67855 0.95705 0.0
C191 C 0.59662 0.74653 0.04832 0.0
H192 H 0.73678 0.63407 0.13121 0.0
H193 H 0.71151 0.64334 0.0428 0.0
H194 H 0.70723 0.82219 0.1907 0.0
H195 H 0.73237 0.81218 0.27889 0.0
H196 H 0.54968 0.82764 0.96912 0.0
H197 H 0.57686 0.83611 1.00713 0.0
H198 H 0.5813 0.64245 0.98699 0.0
H199 H 0.55401 0.63437 0.94652 0.0
Dy200 Dy 0.37014 0.74057 0.04009 0.0
Dy201 Dy 0.40833 0.74108 0.0431 0.0
C202 C 0.38929 0.85833 0.02747 0.0
O203 O 0.37684 0.72081 0.85373 0.0
O204 O 0.40191 0.75161 0.85373 0.0
O205 O 0.3505 0.79682 0.06612 0.0
O206 O 0.34774 0.7041 1.00805 0.0
O207 O 0.40108 0.64599 1.01049 0.0
O208 O 0.37644 0.64595 0.07968 0.0
O209 O 0.40235 0.73094 0.23153 0.0
O210 O 0.37653 0.74931 0.23086 0.0
O211 O 0.43016 0.70133 0.0823 0.0
O212 O 0.42874 0.79215 1.01025 0.0
C213 C 0.38942 0.73556 0.79853 0.0
O214 O 0.37897 0.82723 0.97291 0.0
O215 O 0.39962 0.83186 0.09129 0.0
C216 C 0.32672 0.75184 0.10585 0.0
C217 C 0.29774 0.74923 0.20969 0.0
C218 C 0.30345 0.80303 0.16323 0.0
C219 C 0.31782 0.80434 0.11233 0.0
C220 C 0.32115 0.6981 0.15457 0.0
C221 C 0.30677 0.69694 0.20677 0.0
C222 C 0.34098 0.75425 0.03833 0.0
C223 C 0.38885 0.61776 0.04746 0.0
C224 C 0.38943 0.7391 0.28631 0.0
C225 C 0.45307 0.74417 1.00439 0.0
C226 C 0.48427 0.73273 0.9585 0.0
C227 C 0.47438 0.68478 0.93322 0.0
C228 C 0.45885 0.69022 0.95725 0.0
C229 C 0.46288 0.79297 0.0227 0.0
C230 C 0.47834 0.78723 1.00066 0.0
C231 C 0.43752 0.74953 0.05023 0.0
H232 H 0.29668 0.84381 0.16481 0.0
H233 H 0.32183 0.84623 0.07484 0.0
H234 H 0.32773 0.65689 0.15031 0.0
H235 H 0.30253 0.65501 0.24234 0.0
H236 H 0.47881 0.64239 0.90052 0.0
H237 H 0.45151 0.65185 0.94299 0.0
H238 H 0.45867 0.83484 0.05957 0.0
H239 H 0.48578 0.82471 0.02021 0.0
Dy240 Dy 0.66464 0.23248 0.99357 0.0
Dy241 Dy 0.62613 0.24209 0.99932 0.0
C242 C 0.64734 0.35801 0.97962 0.0
O243 O 0.65784 0.23331 0.18438 0.0
O244 O 0.63152 0.23722 0.18962 0.0
O245 O 0.68619 0.27433 0.03424 0.0
O246 O 0.68541 0.18269 0.96877 0.0
O247 O 0.6315 0.147 0.04519 0.0
O248 O 0.65628 0.13847 0.98165 0.0
O249 O 0.63283 0.24124 0.80901 0.0
O250 O 0.65893 0.22879 0.80396 0.0
O251 O 0.60426 0.20295 0.96108 0.0
O252 O 0.60583 0.29662 1.016 0.0
C253 C 0.64483 0.23425 0.24148 0.0
O254 O 0.65862 0.32582 0.9392 0.0
O255 O 0.63537 0.33405 0.02815 0.0
C256 C 0.70793 0.23838 0.92838 0.0
C257 C 0.7369 0.25116 0.82639 0.0
C258 C 0.73025 0.29942 0.88735 0.0
C259 C 0.71588 0.29312 0.9379 0.0
C260 C 0.71446 0.19091 0.86354 0.0
C261 C 0.72878 0.19735 0.81273 0.0
C262 C 0.69403 0.22781 0.99866 0.0
C263 C 0.64347 0.11501 1.01701 0.0
C264 C 0.6457 0.23442 0.75216 0.0
C265 C 0.58155 0.24974 0.03338 0.0
C266 C 0.5504 0.2401 0.08306 0.0
C267 C 0.56038 0.19316 0.11391 0.0
C268 C 0.57588 0.19769 0.0882 0.0
C269 C 0.57166 0.29787 1.00995 0.0
C270 C 0.55623 0.29302 0.03396 0.0
C271 C 0.59696 0.25279 0.98369 0.0
H272 H 0.73638 0.34125 0.8989 0.0
H273 H 0.71127 0.33033 0.98823 0.0
H274 H 0.70878 0.14787 0.85574 0.0
H275 H 0.73377 0.15955 0.76635 0.0
H276 H 0.55603 0.15197 0.15191 0.0
H277 H 0.58326 0.15979 0.10665 0.0
H278 H 0.57577 0.33823 0.96713 0.0
H279 H 0.54871 0.32968 1.00989 0.0
Dy280 Dy 0.37049 0.23849 0.98848 0.0
Dy281 Dy 0.40909 0.23315 0.99371 0.0
C282 C 0.38876 0.11589 0.98576 0.0
O283 O 0.37733 0.233 0.17896 0.0
O284 O 0.40363 0.23902 0.18367 0.0
O285 O 0.34917 0.19309 0.01953 0.0
O286 O 0.34941 0.28765 0.97222 0.0
O287 O 0.4036 0.32828 0.03794 0.0
O288 O 0.3781 0.33389 0.99054 0.0
O289 O 0.40207 0.2291 0.80374 0.0
O290 O 0.37605 0.2438 0.79849 0.0
O291 O 0.4308 0.27329 0.954 0.0
O292 O 0.42955 0.18013 1.01072 0.0
C293 C 0.39036 0.23629 0.23582 0.0
O294 O 0.37774 0.14617 0.93606 0.0
O295 O 0.40032 0.14225 0.03558 0.0
C296 C 0.32678 0.23401 0.93015 0.0
C297 C 0.29815 0.22119 0.82271 0.0
C298 C 0.30965 0.17853 0.80163 0.0
C299 C 0.32388 0.18467 0.85568 0.0
C300 C 0.31535 0.27706 0.94848 0.0
C301 C 0.30116 0.27062 0.89579 0.0
C302 C 0.34109 0.24091 0.99628 0.0
C303 C 0.391 0.35851 0.02132 0.0
C304 C 0.3892 0.23619 0.74665 0.0
C305 C 0.4535 0.22959 0.03497 0.0
C306 C 0.4848 0.23213 0.08535 0.0
C307 C 0.47712 0.28534 0.05501 0.0
C308 C 0.46159 0.28412 0.02997 0.0
C309 C 0.46108 0.17722 0.07279 0.0
C310 C 0.47658 0.17854 0.09825 0.0
C311 C 0.43835 0.2244 0.97958 0.0
H312 H 0.30751 0.14022 0.74493 0.0
H313 H 0.33251 0.15076 0.84029 0.0
H314 H 0.31734 0.31539 1.00555 0.0
H315 H 0.29249 0.30421 0.91222 0.0
H316 H 0.48331 0.32709 0.04451 0.0
H317 H 0.45615 0.32514 1.00002 0.0
H318 H 0.45526 0.13433 0.07584 0.0
H319 H 0.48235 0.13702 0.12109 0.0
C320 C 0.25659 0.17947 0.77967 0.0
C321 C 0.25288 0.21482 0.67987 0.0
C322 C 0.27901 0.25233 0.67062 0.0
C323 C 0.28288 0.21539 0.76792 0.0
N324 N 0.27618 0.1372 0.9051 0.0
N325 N 0.26095 0.27566 0.51635 0.0
C326 C 0.27192 0.17664 0.81895 0.0
C327 C 0.26422 0.24864 0.62133 0.0
N328 N 0.24532 0.1509 0.8401 0.0
N329 N 0.28942 0.29187 0.62673 0.0
H330 H 0.25028 0.27366 0.47703 0.0
H331 H 0.26906 0.29566 0.46297 0.0
H332 H 0.30066 0.29315 0.65499 0.0
H333 H 0.28675 0.32576 0.56701 0.0
H334 H 0.24692 0.12996 0.92089 0.0
H335 H 0.23401 0.15167 0.81359 0.0
H336 H 0.26925 0.10296 0.93643 0.0
H337 H 0.2871 0.13581 0.94011 0.0
C338 C 0.76435 0.22221 0.84287 0.0
C339 C 0.75282 0.25512 0.78374 0.0
C340 C 0.77163 0.29381 0.64427 0.0
C341 C 0.78276 0.2557 0.69563 0.0
N342 N 0.78968 0.17977 0.83735 0.0
N343 N 0.74491 0.31776 0.62206 0.0
C344 C 0.77911 0.21889 0.79334 0.0
C345 C 0.75632 0.29022 0.68332 0.0
N346 N 0.7613 0.19578 0.94865 0.0
N347 N 0.7757 0.33336 0.55801 0.0
H348 H 0.73359 0.31623 0.64808 0.0
H349 H 0.7464 0.33843 0.54095 0.0
H350 H 0.78662 0.33542 0.52356 0.0
H351 H 0.76859 0.36714 0.52631 0.0
H352 H 0.76955 0.17649 1.00219 0.0
H353 H 0.75067 0.19769 0.98841 0.0
H354 H 0.78716 0.14597 0.89747 0.0
H355 H 0.80089 0.17868 0.80867 0.0
C356 C 0.27057 0.71527 0.1981 0.0
C357 C 0.28208 0.74775 0.25815 0.0
C358 C 0.26331 0.78477 0.39997 0.0
C359 C 0.25219 0.74748 0.34681 0.0
N360 N 0.24545 0.67135 0.20501 0.0
N361 N 0.29003 0.80626 0.42603 0.0
C362 C 0.2559 0.71086 0.24883 0.0
C363 C 0.27861 0.78076 0.36169 0.0
N364 N 0.27343 0.69109 0.08981 0.0
N365 N 0.25921 0.82463 0.48602 0.0
H366 H 0.3014 0.80339 0.40204 0.0
H367 H 0.28843 0.82564 0.50842 0.0
H368 H 0.24824 0.82737 0.51952 0.0
H369 H 0.26637 0.85811 0.51804 0.0
H370 H 0.26506 0.67262 0.03623 0.0
H371 H 0.28392 0.6943 0.04837 0.0
H372 H 0.24804 0.63834 0.14304 0.0
H373 H 0.23439 0.66859 0.2367 0.0
C374 C 0.76356 0.75558 0.19817 0.0
C375 C 0.75235 0.71987 0.25398 0.0
C376 C 0.77152 0.6802 0.39009 0.0
C377 C 0.78232 0.72058 0.34201 0.0
N378 N 0.7885 0.80104 0.20861 0.0
N379 N 0.74503 0.65306 0.41048 0.0
C380 C 0.7783 0.75952 0.24833 0.0
C381 C 0.75618 0.68313 0.35158 0.0
N382 N 0.76026 0.78397 0.09468 0.0
N383 N 0.77598 0.63871 0.47193 0.0
H384 H 0.73368 0.65395 0.38464 0.0
H385 H 0.74675 0.63088 0.48987 0.0
H386 H 0.78695 0.63682 0.50593 0.0
H387 H 0.76915 0.60343 0.50018 0.0
H388 H 0.76833 0.80541 0.04311 0.0
H389 H 0.74965 0.78166 0.05449 0.0
H390 H 0.78569 0.83568 0.15093 0.0
H391 H 0.79962 0.80346 0.23932 0.0
C392 C 0.15465 0.95105 0.45283 0.0
C393 C 0.14432 0.92664 0.53534 0.0
C394 C 0.13328 0.02693 0.56813 0.0
C395 C 0.14435 0.05207 0.49203 0.0
N396 N 0.16632 0.03986 0.36842 0.0
N397 N 0.12488 0.94039 0.68101 0.0
C398 C 0.15528 0.01459 0.43645 0.0
C399 C 0.13384 0.96427 0.59494 0.0
N400 N 0.16341 0.91315 0.38656 0.0
N401 N 0.12227 0.06301 0.61534 0.0
H402 H 0.12486 0.89464 0.70193 0.0
H403 H 0.11823 0.96605 0.73764 0.0
H404 H 0.12212 0.10969 0.60609 0.0
H405 H 0.11277 0.04667 0.65875 0.0
H406 H 0.16991 0.9271 0.3155 0.0
H407 H 0.16337 0.8665 0.39676 0.0
H408 H 0.17572 0.01634 0.33748 0.0
H409 H 0.16658 0.08558 0.34754 0.0
C410 C 0.89216 0.45718 0.39554 0.0
C411 C 0.89139 0.4188 0.49469 0.0
C412 C 0.89105 0.50668 0.62596 0.0
C413 C 0.89171 0.54519 0.52652 0.0
N414 N 0.89689 0.55665 0.31861 0.0
N415 N 0.89432 0.40573 0.70336 0.0
C416 C 0.8935 0.52039 0.41193 0.0
C417 C 0.89191 0.44317 0.60989 0.0
N418 N 0.89115 0.43339 0.28509 0.0
N419 N 0.89009 0.53086 0.73619 0.0
H420 H 0.89579 0.35942 0.6939 0.0
H421 H 0.89631 0.42059 0.7887 0.0
H422 H 0.8917 0.57654 0.75321 0.0
H423 H 0.88734 0.50595 0.81054 0.0
H424 H 0.88919 0.45908 0.21009 0.0
H425 H 0.89146 0.38729 0.26888 0.0
H426 H 0.90021 0.54025 0.2369 0.0
H427 H 0.8976 0.60329 0.32347 0.0
C428 C 0.87706 0.95569 0.5934 0.0
C429 C 0.88853 0.9194 0.54164 0.0
C430 C 0.89928 0.00825 0.44468 0.0
C431 C 0.88823 0.0448 0.50021 0.0
N432 N 0.8681 0.05634 0.64127 0.0
N433 N 0.91201 0.91189 0.43316 0.0
C434 C 0.87745 0.01935 0.57791 0.0
C435 C 0.9001 0.94594 0.47208 0.0
N436 N 0.86588 0.92931 0.6584 0.0
N437 N 0.90865 0.03279 0.36211 0.0
H438 H 0.91266 0.8654 0.44343 0.0
H439 H 0.92176 0.93006 0.39618 0.0
H440 H 0.90872 0.07861 0.34213 0.0
H441 H 0.91556 0.00738 0.30688 0.0
H442 H 0.85617 0.9518 0.68639 0.0
H443 H 0.86593 0.88373 0.68061 0.0
H444 H 0.86122 0.04167 0.70951 0.0
H445 H 0.86795 0.10301 0.63142 0.0
C446 C 0.13668 0.52817 0.45497 0.0
C447 C 0.14671 0.55263 0.54046 0.0
C448 C 0.15546 0.45075 0.59156 0.0
C449 C 0.14614 0.42668 0.50125 0.0
N450 N 0.12858 0.44096 0.34174 0.0
N451 N 0.16663 0.53913 0.68305 0.0
C452 C 0.1369 0.46502 0.43172 0.0
C453 C 0.15641 0.51442 0.60656 0.0
N454 N 0.12681 0.56537 0.397 0.0
N455 N 0.16292 0.41248 0.66606 0.0
H456 H 0.16724 0.58527 0.6999 0.0
H457 H 0.17516 0.51468 0.72466 0.0
H458 H 0.16273 0.36579 0.65635 0.0
H459 H 0.16841 0.42631 0.74235 0.0
H460 H 0.11804 0.55027 0.34351 0.0
H461 H 0.12684 0.61205 0.4068 0.0
H462 H 0.12307 0.46641 0.27793 0.0
H463 H 0.12778 0.39471 0.32687 0.0
C464 C 0.652 0.5127 0.10493 0.0
C465 C 0.64644 0.54959 1.01265 0.0
C466 C 0.64226 0.45962 0.8918 0.0
C467 C 0.64872 0.424 0.9818 0.0
N468 N 0.66508 0.4201 0.15058 0.0
N469 N 0.64179 0.55864 0.80421 0.0
C470 C 0.65527 0.45156 0.08125 0.0
C471 C 0.64305 0.52331 0.90165 0.0
N472 N 0.65364 0.53485 0.21615 0.0
N473 N 0.63555 0.43294 0.797 0.0
H474 H 0.6441 0.60461 0.80636 0.0
H475 H 0.6405 0.54126 0.71971 0.0
H476 H 0.63535 0.38628 0.78522 0.0
H477 H 0.62942 0.45711 0.73442 0.0
H478 H 0.65625 0.50741 0.28771 0.0
H479 H 0.65092 0.57898 0.23907 0.0
H480 H 0.67106 0.43985 0.21964 0.0
H481 H 0.66857 0.37643 0.12964 0.0
C482 C 0.37813 0.9579 0.07803 0.0
C483 C 0.38912 0.92414 1.01544 0.0
C484 C 0.39926 0.01597 0.92698 0.0
C485 C 0.38814 0.04974 0.98873 0.0
N486 N 0.36592 0.05431 0.11181 0.0
N487 N 0.4087 0.91744 0.86869 0.0
C488 C 0.37721 0.02108 0.06056 0.0
C489 C 0.39934 0.95216 0.93678 0.0
N490 N 0.36893 0.92956 0.15712 0.0
N491 N 0.40973 0.04519 0.85937 0.0
H492 H 0.40918 0.87061 0.87504 0.0
H493 H 0.41536 0.93409 0.8009 0.0
H494 H 0.40925 0.09136 0.84245 0.0
H495 H 0.41922 0.02454 0.823 0.0
H496 H 0.36195 0.95186 0.21657 0.0
H497 H 0.36885 0.88297 0.1685 0.0
H498 H 0.3566 0.03577 0.15402 0.0
H499 H 0.36535 0.10111 0.10728 0.0
C500 C 0.39723 0.45987 0.94265 0.0
C501 C 0.39127 0.4245 0.03461 0.0
C502 C 0.38427 0.51618 0.1418 0.0
C503 C 0.38873 0.55104 0.043 0.0
N504 N 0.39435 0.55277 0.83585 0.0
N505 N 0.37697 0.41778 0.21459 0.0
C506 C 0.39381 0.52199 0.93944 0.0
C507 C 0.38409 0.45226 0.13212 0.0
N508 N 0.40623 0.4345 0.8586 0.0
N509 N 0.38072 0.54357 0.24575 0.0
H510 H 0.37699 0.37079 0.21223 0.0
H511 H 0.37017 0.43579 0.28062 0.0
H512 H 0.38039 0.59012 0.25661 0.0
H513 H 0.3792 0.52001 0.32388 0.0
H514 H 0.41172 0.45976 0.79443 0.0
H515 H 0.4096 0.38952 0.8615 0.0
H516 H 0.3968 0.53216 0.75573 0.0
H517 H 0.39034 0.59682 0.82803 0.0
C518 C 0.65291 0.02045 0.10914 0.0
C519 C 0.64288 0.04895 0.029 0.0
C520 C 0.63394 0.95071 0.95888 0.0
C521 C 0.64438 0.92253 0.03637 0.0
N522 N 0.66559 0.92857 0.16945 0.0
N523 N 0.62273 0.04357 0.88592 0.0
C524 C 0.65436 0.95681 0.10729 0.0
C525 C 0.63302 0.01473 0.9563 0.0
N526 N 0.66047 0.05425 0.19097 0.0
N527 N 0.62555 0.91601 0.88358 0.0
H528 H 0.62201 0.09026 0.87904 0.0
H529 H 0.6143 0.02211 0.83784 0.0
H530 H 0.626 0.86909 0.88317 0.0
H531 H 0.61871 0.9328 0.8168 0.0
H532 H 0.66666 0.03592 0.26016 0.0
H533 H 0.65942 0.101 0.19676 0.0
H534 H 0.67427 0.95123 0.21277 0.0
H535 H 0.66702 0.88193 0.17004 0.0
C536 C 0.14083 0.2892 0.02609 0.0
C537 C 0.14568 0.23738 0.0892 0.0
C538 C 0.15142 0.18652 0.90186 0.0
C539 C 0.14519 0.23618 0.83959 0.0
N540 N 0.13179 0.33107 0.84239 0.0
N541 N 0.15318 0.13263 0.0866 0.0
C542 C 0.13915 0.2862 0.90182 0.0
C543 C 0.15042 0.18496 0.02692 0.0
N544 N 0.13874 0.34256 0.08404 0.0
N545 N 0.15828 0.1407 0.84152 0.0
H546 H 0.152 0.12885 0.17732 0.0
H547 H 0.15521 0.09141 0.04567 0.0
H548 H 0.15846 0.13845 0.75012 0.0
H549 H 0.16467 0.10703 0.88176 0.0
H550 H 0.13659 0.38331 0.04183 0.0
H551 H 0.14084 0.34754 0.17355 0.0
H552 H 0.12559 0.36491 0.88388 0.0
H553 H 0.13087 0.33197 0.75124 0.0
C554 C 0.88102 0.27824 0.02799 0.0
C555 C 0.88852 0.23171 0.09213 0.0
C556 C 0.8974 0.18739 0.90594 0.0
C557 C 0.88911 0.23151 0.84236 0.0
N558 N 0.87104 0.31335 0.84177 0.0
N559 N 0.90022 0.13325 0.08901 0.0
C560 C 0.88029 0.27508 0.90312 0.0
C561 C 0.89581 0.18404 0.03021 0.0
N562 N 0.87509 0.32704 0.08526 0.0
N563 N 0.90664 0.1479 0.84774 0.0
H564 H 0.89812 0.12681 0.17804 0.0
H565 H 0.90428 0.09459 0.04761 0.0
H566 H 0.90737 0.14589 0.75653 0.0
H567 H 0.91438 0.11986 0.8902 0.0
H568 H 0.87158 0.36618 0.04267 0.0
H569 H 0.8746 0.33087 0.17602 0.0
H570 H 0.86283 0.3404 0.88114 0.0
H571 H 0.87076 0.31537 0.75042 0.0
C572 C 0.13981 0.78999 0.13841 0.0
C573 C 0.145 0.73857 0.20095 0.0
C574 C 0.15038 0.68687 1.01411 0.0
C575 C 0.14631 0.73996 0.95156 0.0
N576 N 0.13929 0.84519 0.95443 0.0
N577 N 0.15683 0.64056 0.20068 0.0
C578 C 0.1415 0.79231 1.01385 0.0
C579 C 0.15082 0.68788 0.13934 0.0
N580 N 0.13331 0.83682 0.19832 0.0
N581 N 0.15297 0.63438 0.95415 0.0
H582 H 0.15646 0.63774 0.29194 0.0
H583 H 0.16303 0.60587 0.16191 0.0
H584 H 0.15222 0.631 0.86307 0.0
H585 H 0.15446 0.59274 0.99455 0.0
H586 H 0.12772 0.87263 0.15811 0.0
H587 H 0.13258 0.83811 0.28953 0.0
H588 H 0.13702 0.8863 0.99482 0.0
H589 H 0.14111 0.84958 0.86446 0.0
C590 C 0.89636 0.78015 1.00394 0.0
C591 C 0.88879 0.73368 0.94156 0.0
C592 C 0.88096 0.68728 0.12824 0.0
C593 C 0.88855 0.7341 0.19126 0.0
N594 N 0.89976 0.83311 0.18825 0.0
N595 N 0.8749 0.64056 0.94051 0.0
C596 C 0.8954 0.78242 0.12881 0.0
C597 C 0.88121 0.68701 1.00282 0.0
N598 N 0.90454 0.82219 0.94358 0.0
N599 N 0.87314 0.64381 0.18781 0.0
H600 H 0.87412 0.64041 0.8492 0.0
H601 H 0.87114 0.60048 0.97736 0.0
H602 H 0.87361 0.63798 0.27828 0.0
H603 H 0.86554 0.61411 0.14881 0.0
H604 H 0.91194 0.85243 0.98347 0.0
H605 H 0.90472 0.82448 0.85215 0.0
H606 H 0.90351 0.87238 0.14793 0.0
H607 H 0.89797 0.83871 0.27787 0.0
C608 C 0.63664 0.69048 0.48058 0.0
C609 C 0.64458 0.73561 0.41689 0.0
C610 C 0.65323 0.77966 0.60383 0.0
C611 C 0.64428 0.73759 0.66679 0.0
N612 N 0.62442 0.6627 0.66244 0.0
N613 N 0.65646 0.83354 0.42118 0.0
C614 C 0.635 0.69621 0.60441 0.0
C615 C 0.65187 0.78298 0.47936 0.0
N616 N 0.63124 0.64043 0.42444 0.0
N617 N 0.66279 0.81759 0.66255 0.0
H618 H 0.65434 0.84033 0.33222 0.0
H619 H 0.66057 0.87185 0.46343 0.0
H620 H 0.66334 0.82006 0.75383 0.0
H621 H 0.67087 0.84389 0.6202 0.0
H622 H 0.62698 0.60314 0.46892 0.0
H623 H 0.63237 0.6331 0.33464 0.0
H624 H 0.61623 0.63712 0.6193 0.0
H625 H 0.62294 0.66417 0.75309 0.0
C626 C 0.39842 0.69427 0.60414 0.0
C627 C 0.38945 0.73635 0.66759 0.0
C628 C 0.3825 0.78558 0.48182 0.0
C629 C 0.38959 0.73833 0.41775 0.0
N630 N 0.40244 0.64173 0.42069 0.0
N631 N 0.37156 0.81903 0.66543 0.0
C632 C 0.39709 0.6911 0.47962 0.0
C633 C 0.38095 0.78069 0.60588 0.0
N634 N 0.40844 0.65781 0.66211 0.0
N635 N 0.37825 0.8373 0.42556 0.0
H636 H 0.37071 0.81967 0.75656 0.0
H637 H 0.36381 0.84731 0.62368 0.0
H638 H 0.38038 0.84468 0.33685 0.0
H639 H 0.37437 0.87565 0.46913 0.0
H640 H 0.41646 0.63123 0.61928 0.0
H641 H 0.40971 0.65789 0.75306 0.0
H642 H 0.40626 0.60292 0.46288 0.0
H643 H 0.4018 0.63676 0.32996 0.0
C644 C 0.63798 0.18613 0.43483 0.0
C645 C 0.64523 0.23346 0.37253 0.0
C646 C 0.65271 0.28118 0.55924 0.0
C647 C 0.6453 0.23441 0.62155 0.0
N648 N 0.63228 0.13915 0.62259 0.0
N649 N 0.65735 0.33052 0.37332 0.0
C650 C 0.63812 0.18635 0.56028 0.0
C651 C 0.6522 0.28177 0.43434 0.0
N652 N 0.63098 0.14094 0.37352 0.0
N653 N 0.66023 0.32529 0.61982 0.0
H654 H 0.65642 0.33354 0.28268 0.0
H655 H 0.66129 0.37014 0.41139 0.0
H656 H 0.65958 0.33033 0.71056 0.0
H657 H 0.66771 0.35559 0.58159 0.0
H658 H 0.62388 0.10894 0.41061 0.0
H659 H 0.63194 0.13587 0.28287 0.0
H660 H 0.6279 0.10003 0.58563 0.0
H661 H 0.63253 0.1373 0.71391 0.0
C662 C 0.39638 0.28571 0.42993 0.0
C663 C 0.39005 0.23638 0.36677 0.0
C664 C 0.38319 0.18698 0.5528 0.0
C665 C 0.38962 0.23593 0.61585 0.0
N666 N 0.40109 0.33414 0.61825 0.0
N667 N 0.37992 0.13554 0.36613 0.0
C668 C 0.39606 0.28561 0.55524 0.0
C669 C 0.38397 0.18604 0.42772 0.0
N670 N 0.40274 0.33261 0.3697 0.0
N671 N 0.37624 0.14143 0.61286 0.0
H672 H 0.3809 0.13218 0.27522 0.0
H673 H 0.37682 0.09493 0.40457 0.0
H674 H 0.37648 0.13799 0.70407 0.0
H675 H 0.36955 0.10857 0.57349 0.0
H676 H 0.40907 0.36688 0.40784 0.0
H677 H 0.40211 0.33701 0.27885 0.0
H678 H 0.40485 0.37442 0.5823 0.0
H679 H 0.40078 0.33552 0.70946 0.0
C680 C 0.02526 0.20406 0.47494 0.0
C681 C 0.03328 0.22814 0.37771 0.0
C682 C 1.00919 0.25686 0.28458 0.0
C683 C 1.00125 0.2289 0.37772 0.0
N684 N 1.00151 0.16562 0.54984 0.0
N685 N 0.03301 0.26789 0.1808 0.0
C686 C 1.00924 0.1991 0.46904 0.0
C687 C 0.02527 0.25182 0.27971 0.0
N688 N 0.03282 0.18919 0.57583 0.0
N689 N 1.0014 0.28939 0.20239 0.0
H690 H 0.04476 0.26396 0.17369 0.0
H691 H 0.02775 0.28001 0.1024 0.0
H692 H 0.9896 0.2924 0.20135 0.0
H693 H 1.00662 0.31671 0.14028 0.0
H694 H 0.02737 0.17785 0.65374 0.0
H695 H 0.04451 0.19359 0.58573 0.0
H696 H 1.00684 0.13716 0.60984 0.0
H697 H 0.98973 0.16217 0.55068 0.0
C698 C 1.00861 0.71012 0.56029 0.0
C699 C 1.00113 0.73845 0.65598 0.0
C700 C 0.02558 0.7648 0.74451 0.0
C701 C 0.03305 0.73451 0.65095 0.0
N702 N 0.03199 0.67114 0.47848 0.0
N703 N 1.00196 0.7849 0.847 0.0
C704 C 0.02464 0.70474 0.56176 0.0
C705 C 1.00947 0.76366 0.75042 0.0
N706 N 1.0004 0.69071 0.46546 0.0
N707 N 0.0339 0.79521 0.82675 0.0
H708 H 0.99016 0.78536 0.85316 0.0
H709 H 1.00729 0.79815 0.92433 0.0
H710 H 0.04571 0.79393 0.82948 0.0
H711 H 0.02922 0.8242 0.88886 0.0
H712 H 1.00524 0.67628 0.38699 0.0
H713 H 0.98862 0.69307 0.46123 0.0
H714 H 0.0265 0.64164 0.42149 0.0
H715 H 0.04375 0.66956 0.47042 0.0
C716 C 0.52506 0.74882 0.852 0.0
C717 C 0.53303 0.72561 0.95048 0.0
C718 C 0.50898 0.69665 0.04212 0.0
C719 C 0.50099 0.72555 0.94961 0.0
N720 N 0.50116 0.78427 0.77171 0.0
N721 N 0.5326 0.68708 0.14877 0.0
C722 C 0.50896 0.75304 0.85581 0.0
C723 C 0.52501 0.70153 0.04771 0.0
N724 N 0.53288 0.7654 0.75374 0.0
N725 N 0.50125 0.66502 0.12569 0.0
H726 H 0.54429 0.69135 0.15842 0.0
H727 H 0.52721 0.67609 0.22707 0.0
H728 H 0.48947 0.66328 0.12964 0.0
H729 H 0.50653 0.63668 0.18609 0.0
H730 H 0.52771 0.77731 0.67488 0.0
H731 H 0.54465 0.76235 0.74768 0.0
H732 H 0.50633 0.81191 0.70992 0.0
H733 H 0.48935 0.78534 0.76774 0.0
C734 C 0.50943 0.25743 0.18615 0.0
C735 C 0.50165 0.23108 0.08985 0.0
C736 C 0.52589 0.2014 1.00118 0.0
C737 C 0.53369 0.23276 0.09163 0.0
N738 N 0.53318 0.29511 0.26506 0.0
N739 N 0.50229 0.18636 0.89644 0.0
C740 C 0.52553 0.262 0.1829 0.0
C741 C 0.50983 0.20488 0.99522 0.0
N742 N 0.50142 0.27662 0.2819 0.0
N743 N 0.53383 0.1684 0.9204 0.0
H744 H 0.49055 0.18868 0.88736 0.0
H745 H 0.5077 0.17354 0.81913 0.0
H746 H 0.54562 0.16736 0.91685 0.0
H747 H 0.52876 0.13837 0.86207 0.0
H748 H 0.50644 0.29069 0.36002 0.0
H749 H 0.48964 0.27412 0.28667 0.0
H750 H 0.5279 0.3236 0.32513 0.0
H751 H 0.54498 0.2967 0.26916 0.0
loop_
_geom_bond_atom_site_label_1
_geom_bond_atom_site_label_2
_geom_bond_distance
_geom_bond_site_symmetry_2
_ccdc_geom_bond_type
Dy0 O3 2.307 . S
Dy0 O5 2.395 . S
Dy0 O6 2.379 . S
Dy0 O8 2.339 . S
Dy0 O10 2.298 . S
Dy0 O14 2.275 . S
Dy0 C22 2.738 . S
Dy1 O4 2.298 . S
Dy1 O7 2.275 . S
Dy1 O9 2.307 . S
Dy1 O11 2.395 . S
Dy1 O12 2.379 . S
Dy1 O15 2.339 . S
Dy1 C31 2.738 . S
C2 O14 1.254 . S
C2 O15 1.257 . S
O3 Dy0 2.307 . S
O3 C13 1.266 . S
O4 Dy1 2.298 . S
O4 C13 1.236 . S
O5 Dy0 2.395 . S
O5 C22 1.255 . S
O6 Dy0 2.379 . S
O6 C22 1.249 . S
O7 Dy1 2.275 . S
O7 C23 1.254 . S
O8 Dy0 2.339 . S
O8 C23 1.257 . S
O9 Dy1 2.307 . S
O9 C24 1.266 . S
O10 Dy0 2.298 . S
O10 C24 1.236 . S
O11 Dy1 2.395 . S
O11 C31 1.255 . S
O12 Dy1 2.379 . S
O12 C31 1.249 . S
C13 O3 1.266 . S
C13 O4 1.236 . S
O14 Dy0 2.275 . S
O14 C2 1.254 . S
O15 Dy1 2.339 . S
O15 C2 1.257 . S
C16 C19 1.344 . S
C16 C20 1.328 . S
C16 C22 1.516 . S
C17 C18 1.304 . S
C17 C21 1.323 . S
C18 C17 1.304 . S
C18 C19 1.371 . S
C18 H32 0.930 . S
C19 C16 1.344 . S
C19 C18 1.371 . S
C19 H33 0.931 . S
C20 C16 1.328 . S
C20 C21 1.433 . S
C20 H34 0.931 . S
C21 C17 1.323 . S
C21 C20 1.433 . S
C21 H35 0.933 . S
C22 Dy0 2.738 . S
C22 O5 1.255 . S
C22 O6 1.249 . S
C22 C16 1.516 . S
C23 O7 1.254 . S
C23 O8 1.257 . S
C24 O9 1.266 . S
C24 O10 1.236 . S
C25 C28 1.344 . S
C25 C29 1.328 . S
C25 C31 1.516 . S
C26 C27 1.304 . S
C26 C30 1.323 . S
C27 C26 1.304 . S
C27 C28 1.371 . S
C27 H36 0.930 . S
C28 C25 1.344 . S
C28 C27 1.371 . S
C28 H37 0.931 . S
C29 C25 1.328 . S
C29 C30 1.433 . S
C29 H38 0.931 . S
C30 C26 1.323 . S
C30 C29 1.433 . S
C30 H39 0.933 . S
C31 Dy1 2.738 . S
C31 O11 1.255 . S
C31 O12 1.249 . S
C31 C25 1.516 . S
H32 C18 0.930 . S
H33 C19 0.931 . S
H34 C20 0.931 . S
H35 C21 0.933 . S
H36 C27 0.930 . S
H37 C28 0.931 . S
H38 C29 0.931 . S
H39 C30 0.933 . S
Dy40 O43 2.307 . S
Dy40 O45 2.395 . S
Dy40 O46 2.379 . S
Dy40 O48 2.339 . S
Dy40 O50 2.298 . S
Dy40 O54 2.275 . S
Dy40 C62 2.738 . S
Dy41 O44 2.298 . S
Dy41 O47 2.275 . S
Dy41 O49 2.307 . S
Dy41 O51 2.395 . S
Dy41 O52 2.379 . S
Dy41 O55 2.339 . S
Dy41 C71 2.738 . S
C42 O54 1.254 . S
C42 O55 1.257 . S
O43 Dy40 2.307 . S
O43 C53 1.266 . S
O44 Dy41 2.298 . S
O44 C53 1.236 . S
O45 Dy40 2.395 . S
O45 C62 1.255 . S
O46 Dy40 2.379 . S
O46 C62 1.249 . S
O47 Dy41 2.275 . S
O47 C63 1.254 . S
O48 Dy40 2.339 . S
O48 C63 1.257 . S
O49 Dy41 2.307 . S
O49 C64 1.266 . S
O50 Dy40 2.298 . S
O50 C64 1.236 . S
O51 Dy41 2.395 . S
O51 C71 1.255 . S
O52 Dy41 2.379 . S
O52 C71 1.249 . S
C53 O43 1.266 . S
C53 O44 1.236 . S
O54 Dy40 2.275 . S
O54 C42 1.254 . S
O55 Dy41 2.339 . S
O55 C42 1.257 . S
C56 C59 1.344 . S
C56 C60 1.328 . S
C56 C62 1.516 . S
C57 C58 1.304 . S
C57 C61 1.323 . S
C58 C57 1.304 . S
C58 C59 1.371 . S
C58 H72 0.930 . S
C59 C56 1.344 . S
C59 C58 1.371 . S
C59 H73 0.931 . S
C60 C56 1.328 . S
C60 C61 1.433 . S
C60 H74 0.931 . S
C61 C57 1.323 . S
C61 C60 1.433 . S
C61 H75 0.933 . S
C62 Dy40 2.738 . S
C62 O45 1.255 . S
C62 O46 1.249 . S
C62 C56 1.516 . S
C63 O47 1.254 . S
C63 O48 1.257 . S
C64 O49 1.266 . S
C64 O50 1.236 . S
C65 C68 1.344 . S
C65 C69 1.328 . S
C65 C71 1.516 . S
C66 C67 1.304 . S
C66 C70 1.323 . S
C67 C66 1.304 . S
C67 C68 1.371 . S
C67 H76 0.930 . S
C68 C65 1.344 . S
C68 C67 1.371 . S
C68 H77 0.931 . S
C69 C65 1.328 . S
C69 C70 1.433 . S
C69 H78 0.931 . S
C70 C66 1.323 . S
C70 C69 1.433 . S
C70 H79 0.933 . S
C71 Dy41 2.738 . S
C71 O51 1.255 . S
C71 O52 1.249 . S
C71 C65 1.516 . S
H72 C58 0.930 . S
H73 C59 0.931 . S
H74 C60 0.931 . S
H75 C61 0.933 . S
H76 C67 0.930 . S
H77 C68 0.931 . S
H78 C69 0.931 . S
H79 C70 0.933 . S
Dy80 O83 2.307 . S
Dy80 O85 2.395 . S
Dy80 O86 2.379 . S
Dy80 O88 2.339 . S
Dy80 O90 2.298 . S
Dy80 O94 2.275 . S
Dy80 C102 2.738 . S
Dy81 O84 2.298 . S
Dy81 O87 2.275 . S
Dy81 O89 2.307 . S
Dy81 O91 2.395 . S
Dy81 O92 2.379 . S
Dy81 O95 2.339 . S
Dy81 C111 2.738 . S
C82 O94 1.254 . S
C82 O95 1.257 . S
O83 Dy80 2.307 . S
O83 C93 1.266 . S
O84 Dy81 2.298 . S
O84 C93 1.236 . S
O85 Dy80 2.395 . S
O85 C102 1.255 . S
O86 Dy80 2.379 . S
O86 C102 1.249 . S
O87 Dy81 2.275 . S
O87 C103 1.254 . S
O88 Dy80 2.339 . S
O88 C103 1.257 . S
O89 Dy81 2.307 . S
O89 C104 1.266 . S
O90 Dy80 2.298 . S
O90 C104 1.236 . S
O91 Dy81 2.395 . S
O91 C111 1.255 . S
O92 Dy81 2.379 . S
O92 C111 1.249 . S
C93 O83 1.266 . S
C93 O84 1.236 . S
O94 Dy80 2.275 . S
O94 C82 1.254 . S
O95 Dy81 2.339 . S
O95 C82 1.257 . S
C96 C99 1.344 . S
C96 C100 1.328 . S
C96 C102 1.516 . S
C97 C98 1.304 . S
C97 C101 1.323 . S
C98 C97 1.304 . S
C98 C99 1.371 . S
C98 H112 0.930 . S
C99 C96 1.344 . S
C99 C98 1.371 . S
C99 H113 0.931 . S
C100 C96 1.328 . S
C100 C101 1.433 . S
C100 H114 0.931 . S
C101 C97 1.323 . S
C101 C100 1.433 . S
C101 H115 0.933 . S
C102 Dy80 2.738 . S
C102 O85 1.255 . S
C102 O86 1.249 . S
C102 C96 1.516 . S
C103 O87 1.254 . S
C103 O88 1.257 . S
C104 O89 1.266 . S
C104 O90 1.236 . S
C105 C108 1.344 . S
C105 C109 1.328 . S
C105 C111 1.516 . S
C106 C107 1.304 . S
C106 C110 1.323 . S
C107 C106 1.304 . S
C107 C108 1.371 . S
C107 H116 0.930 . S
C108 C105 1.344 . S
C108 C107 1.371 . S
C108 H117 0.931 . S
C109 C105 1.328 . S
C109 C110 1.433 . S
C109 H118 0.931 . S
C110 C106 1.323 . S
C110 C109 1.433 . S
C110 H119 0.933 . S
C111 Dy81 2.738 . S
C111 O91 1.255 . S
C111 O92 1.249 . S
C111 C105 1.516 . S
H112 C98 0.930 . S
H113 C99 0.931 . S
H114 C100 0.931 . S
H115 C101 0.933 . S
H116 C107 0.930 . S
H117 C108 0.931 . S
H118 C109 0.931 . S
H119 C110 0.933 . S
Dy120 O123 2.307 . S
Dy120 O125 2.395 . S
Dy120 O126 2.379 . S
Dy120 O128 2.339 . S
Dy120 O130 2.298 . S
Dy120 O134 2.275 . S
Dy120 C142 2.738 . S
Dy121 O124 2.298 . S
Dy121 O127 2.275 . S
Dy121 O129 2.307 . S
Dy121 O131 2.395 . S
Dy121 O132 2.379 . S
Dy121 O135 2.339 . S
Dy121 C151 2.738 . S
C122 O134 1.254 . S
C122 O135 1.257 . S
O123 Dy120 2.307 . S
O123 C133 1.266 . S
O124 Dy121 2.298 . S
O124 C133 1.236 . S
O125 Dy120 2.395 . S
O125 C142 1.255 . S
O126 Dy120 2.379 . S
O126 C142 1.249 . S
O127 Dy121 2.275 . S
O127 C143 1.254 . S
O128 Dy120 2.339 . S
O128 C143 1.257 . S
O129 Dy121 2.307 . S
O129 C144 1.266 . S
O130 Dy120 2.298 . S
O130 C144 1.236 . S
O131 Dy121 2.395 . S
O131 C151 1.255 . S
O132 Dy121 2.379 . S
O132 C151 1.249 . S
C133 O123 1.266 . S
C133 O124 1.236 . S
O134 Dy120 2.275 . S
O134 C122 1.254 . S
O135 Dy121 2.339 . S
O135 C122 1.257 . S
C136 C139 1.344 . S
C136 C140 1.328 . S
C136 C142 1.516 . S
C137 C138 1.304 . S
C137 C141 1.323 . S
C138 C137 1.304 . S
C138 C139 1.371 . S
C138 H152 0.930 . S
C139 C136 1.344 . S
C139 C138 1.371 . S
C139 H153 0.931 . S
C140 C136 1.328 . S
C140 C141 1.433 . S
C140 H154 0.931 . S
C141 C137 1.323 . S
C141 C140 1.433 . S
C141 H155 0.933 . S
C142 Dy120 2.738 . S
C142 O125 1.255 . S
C142 O126 1.249 . S
C142 C136 1.516 . S
C143 O127 1.254 . S
C143 O128 1.257 . S
C144 O129 1.266 . S
C144 O130 1.236 . S
C145 C148 1.344 . S
C145 C149 1.328 . S
C145 C151 1.516 . S
C146 C147 1.304 . S
C146 C150 1.323 . S
C147 C146 1.304 . S
C147 C148 1.371 . S
C147 H156 0.930 . S
C148 C145 1.344 . S
C148 C147 1.371 . S
C148 H157 0.931 . S
C149 C145 1.328 . S
C149 C150 1.433 . S
C149 H158 0.931 . S
C150 C146 1.323 . S
C150 C149 1.433 . S
C150 H159 0.933 . S
C151 Dy121 2.738 . S
C151 O131 1.255 . S
C151 O132 1.249 . S
C151 C145 1.516 . S
H152 C138 0.930 . S
H153 C139 0.931 . S
H154 C140 0.931 . S
H155 C141 0.933 . S
H156 C147 0.930 . S
H157 C148 0.931 . S
H158 C149 0.931 . S
H159 C150 0.933 . S
Dy160 O163 2.307 . S
Dy160 O165 2.395 1_556 S
Dy160 O166 2.379 1_556 S
Dy160 O168 2.339 . S
Dy160 O170 2.298 1_556 S
Dy160 O174 2.275 . S
Dy160 C182 2.738 1_556 S
Dy161 O164 2.298 1_554 S
Dy161 O167 2.275 . S
Dy161 O169 2.307 . S
Dy161 O171 2.395 1_554 S
Dy161 O172 2.379 1_554 S
Dy161 O175 2.339 . S
Dy161 C191 2.738 1_554 S
C162 O174 1.254 1_554 S
C162 O175 1.257 . S
O163 Dy160 2.307 . S
O163 C173 1.266 . S
O164 Dy161 2.298 1_556 S
O164 C173 1.236 . S
O165 Dy160 2.395 1_554 S
O165 C182 1.255 . S
O166 Dy160 2.379 1_554 S
O166 C182 1.249 . S
O167 Dy161 2.275 . S
O167 C183 1.254 1_554 S
O168 Dy160 2.339 . S
O168 C183 1.257 . S
O169 Dy161 2.307 . S
O169 C184 1.266 . S
O170 Dy160 2.298 1_554 S
O170 C184 1.236 . S
O171 Dy161 2.395 1_556 S
O171 C191 1.255 . S
O172 Dy161 2.379 1_556 S
O172 C191 1.249 . S
C173 O163 1.266 . S
C173 O164 1.236 . S
O174 Dy160 2.275 . S
O174 C162 1.254 1_556 S
O175 Dy161 2.339 . S
O175 C162 1.257 . S
C176 C179 1.344 . S
C176 C180 1.328 . S
C176 C182 1.516 . S
C177 C178 1.304 . S
C177 C181 1.323 . S
C178 C177 1.304 . S
C178 C179 1.371 . S
C178 H192 0.930 . S
C179 C176 1.344 . S
C179 C178 1.371 . S
C179 H193 0.931 . S
C180 C176 1.328 . S
C180 C181 1.433 . S
C180 H194 0.931 . S
C181 C177 1.323 . S
C181 C180 1.433 . S
C181 H195 0.933 . S
C182 Dy160 2.738 1_554 S
C182 O165 1.255 . S
C182 O166 1.249 . S
C182 C176 1.516 . S
C183 O167 1.254 1_556 S
C183 O168 1.257 . S
C184 O169 1.266 . S
C184 O170 1.236 . S
C185 C188 1.344 . S
C185 C189 1.328 . S
C185 C191 1.516 . S
C186 C187 1.304 . S
C186 C190 1.323 . S
C187 C186 1.304 . S
C187 C188 1.371 . S
C187 H196 0.930 . S
C188 C185 1.344 . S
C188 C187 1.371 . S
C188 H197 0.931 . S
C189 C185 1.328 . S
C189 C190 1.433 . S
C189 H198 0.931 . S
C190 C186 1.323 . S
C190 C189 1.433 . S
C190 H199 0.933 . S
C191 Dy161 2.738 1_556 S
C191 O171 1.255 . S
C191 O172 1.249 . S
C191 C185 1.516 . S
H192 C178 0.930 . S
H193 C179 0.931 . S
H194 C180 0.931 . S
H195 C181 0.933 . S
H196 C187 0.930 . S
H197 C188 0.931 . S
H198 C189 0.931 . S
H199 C190 0.933 . S
Dy200 O203 2.307 . S
Dy200 O205 2.395 1_556 S
Dy200 O206 2.379 1_556 S
Dy200 O208 2.339 . S
Dy200 O210 2.298 1_556 S
Dy200 O214 2.275 . S
Dy200 C222 2.738 1_556 S
Dy201 O204 2.298 1_554 S
Dy201 O207 2.275 . S
Dy201 O209 2.307 . S
Dy201 O211 2.395 1_554 S
Dy201 O212 2.379 1_554 S
Dy201 O215 2.339 . S
Dy201 C231 2.738 1_554 S
C202 O214 1.254 1_554 S
C202 O215 1.257 . S
O203 Dy200 2.307 . S
O203 C213 1.266 . S
O204 Dy201 2.298 1_556 S
O204 C213 1.236 . S
O205 Dy200 2.395 1_554 S
O205 C222 1.255 . S
O206 Dy200 2.379 1_554 S
O206 C222 1.249 . S
O207 Dy201 2.275 . S
O207 C223 1.254 1_554 S
O208 Dy200 2.339 . S
O208 C223 1.257 . S
O209 Dy201 2.307 . S
O209 C224 1.266 . S
O210 Dy200 2.298 1_554 S
O210 C224 1.236 . S
O211 Dy201 2.395 1_556 S
O211 C231 1.255 . S
O212 Dy201 2.379 1_556 S
O212 C231 1.249 . S
C213 O203 1.266 . S
C213 O204 1.236 . S
O214 Dy200 2.275 . S
O214 C202 1.254 1_556 S
O215 Dy201 2.339 . S
O215 C202 1.257 . S
C216 C219 1.344 . S
C216 C220 1.328 . S
C216 C222 1.516 . S
C217 C218 1.304 . S
C217 C221 1.323 . S
C218 C217 1.304 . S
C218 C219 1.371 . S
C218 H232 0.930 . S
C219 C216 1.344 . S
C219 C218 1.371 . S
C219 H233 0.931 . S
C220 C216 1.328 . S
C220 C221 1.433 . S
C220 H234 0.931 . S
C221 C217 1.323 . S
C221 C220 1.433 . S
C221 H235 0.933 . S
C222 Dy200 2.738 1_554 S
C222 O205 1.255 . S
C222 O206 1.249 . S
C222 C216 1.516 . S
C223 O207 1.254 1_556 S
C223 O208 1.257 . S
C224 O209 1.266 . S
C224 O210 1.236 . S
C225 C228 1.344 . S
C225 C229 1.328 . S
C225 C231 1.516 . S
C226 C227 1.304 . S
C226 C230 1.323 . S
C227 C226 1.304 . S
C227 C228 1.371 . S
C227 H236 0.930 . S
C228 C225 1.344 . S
C228 C227 1.371 . S
C228 H237 0.931 . S
C229 C225 1.328 . S
C229 C230 1.433 . S
C229 H238 0.931 . S
C230 C226 1.323 . S
C230 C229 1.433 . S
C230 H239 0.933 . S
C231 Dy201 2.738 1_556 S
C231 O211 1.255 . S
C231 O212 1.249 . S
C231 C225 1.516 . S
H232 C218 0.930 . S
H233 C219 0.931 . S
H234 C220 0.931 . S
H235 C221 0.933 . S
H236 C227 0.930 . S
H237 C228 0.931 . S
H238 C229 0.931 . S
H239 C230 0.933 . S
Dy240 O243 2.307 . S
Dy240 O245 2.395 1_554 S
Dy240 O246 2.379 1_554 S
Dy240 O248 2.339 . S
Dy240 O250 2.298 1_554 S
Dy240 O254 2.275 . S
Dy240 C262 2.738 1_554 S
Dy241 O244 2.298 1_556 S
Dy241 O247 2.275 . S
Dy241 O249 2.307 . S
Dy241 O251 2.395 1_556 S
Dy241 O252 2.379 1_556 S
Dy241 O255 2.339 . S
Dy241 C271 2.738 1_556 S
C242 O254 1.254 1_556 S
C242 O255 1.257 . S
O243 Dy240 2.307 . S
O243 C253 1.266 . S
O244 Dy241 2.298 1_554 S
O244 C253 1.236 . S
O245 Dy240 2.395 1_556 S
O245 C262 1.255 . S
O246 Dy240 2.379 1_556 S
O246 C262 1.249 . S
O247 Dy241 2.275 . S
O247 C263 1.254 1_556 S
O248 Dy240 2.339 . S
O248 C263 1.257 . S
O249 Dy241 2.307 . S
O249 C264 1.266 . S
O250 Dy240 2.298 1_556 S
O250 C264 1.236 . S
O251 Dy241 2.395 1_554 S
O251 C271 1.255 . S
O252 Dy241 2.379 1_554 S
O252 C271 1.249 . S
C253 O243 1.266 . S
C253 O244 1.236 . S
O254 Dy240 2.275 . S
O254 C242 1.254 1_554 S
O255 Dy241 2.339 . S
O255 C242 1.257 . S
C256 C259 1.344 . S
C256 C260 1.328 . S
C256 C262 1.516 . S
C257 C258 1.304 . S
C257 C261 1.323 . S
C258 C257 1.304 . S
C258 C259 1.371 . S
C258 H272 0.930 . S
C259 C256 1.344 . S
C259 C258 1.371 . S
C259 H273 0.931 . S
C260 C256 1.328 . S
C260 C261 1.433 . S
C260 H274 0.931 . S
C261 C257 1.323 . S
C261 C260 1.433 . S
C261 H275 0.933 . S
C262 Dy240 2.738 1_556 S
C262 O245 1.255 . S
C262 O246 1.249 . S
C262 C256 1.516 . S
C263 O247 1.254 1_554 S
C263 O248 1.257 . S
C264 O249 1.266 . S
C264 O250 1.236 . S
C265 C268 1.344 . S
C265 C269 1.328 . S
C265 C271 1.516 . S
C266 C267 1.304 . S
C266 C270 1.323 . S
C267 C266 1.304 . S
C267 C268 1.371 . S
C267 H276 0.930 . S
C268 C265 1.344 . S
C268 C267 1.371 . S
C268 H277 0.931 . S
C269 C265 1.328 . S
C269 C270 1.433 . S
C269 H278 0.931 . S
C270 C266 1.323 . S
C270 C269 1.433 . S
C270 H279 0.933 . S
C271 Dy241 2.738 1_554 S
C271 O251 1.255 . S
C271 O252 1.249 . S
C271 C265 1.516 . S
H272 C258 0.930 . S
H273 C259 0.931 . S
H274 C260 0.931 . S
H275 C261 0.933 . S
H276 C267 0.930 . S
H277 C268 0.931 . S
H278 C269 0.931 . S
H279 C270 0.933 . S
Dy280 O283 2.307 . S
Dy280 O285 2.395 1_554 S
Dy280 O286 2.379 1_554 S
Dy280 O288 2.339 . S
Dy280 O290 2.298 1_554 S
Dy280 O294 2.275 . S
Dy280 C302 2.738 1_554 S
Dy281 O284 2.298 1_556 S
Dy281 O287 2.275 . S
Dy281 O289 2.307 . S
Dy281 O291 2.395 1_556 S
Dy281 O292 2.379 1_556 S
Dy281 O295 2.339 . S
Dy281 C311 2.738 1_556 S
C282 O294 1.254 1_556 S
C282 O295 1.257 . S
O283 Dy280 2.307 . S
O283 C293 1.266 . S
O284 Dy281 2.298 1_554 S
O284 C293 1.236 . S
O285 Dy280 2.395 1_556 S
O285 C302 1.255 . S
O286 Dy280 2.379 1_556 S
O286 C302 1.249 . S
O287 Dy281 2.275 . S
O287 C303 1.254 1_556 S
O288 Dy280 2.339 . S
O288 C303 1.257 . S
O289 Dy281 2.307 . S
O289 C304 1.266 . S
O290 Dy280 2.298 1_556 S
O290 C304 1.236 . S
O291 Dy281 2.395 1_554 S
O291 C311 1.255 . S
O292 Dy281 2.379 1_554 S
O292 C311 1.249 . S
C293 O283 1.266 . S
C293 O284 1.236 . S
O294 Dy280 2.275 . S
O294 C282 1.254 1_554 S
O295 Dy281 2.339 . S
O295 C282 1.257 . S
C296 C299 1.344 . S
C296 C300 1.328 . S
C296 C302 1.516 . S
C297 C298 1.304 . S
C297 C301 1.323 . S
C298 C297 1.304 . S
C298 C299 1.371 . S
C298 H312 0.930 . S
C299 C296 1.344 . S
C299 C298 1.371 . S
C299 H313 0.931 . S
C300 C296 1.328 . S
C300 C301 1.433 . S
C300 H314 0.931 . S
C301 C297 1.323 . S
C301 C300 1.433 . S
C301 H315 0.933 . S
C302 Dy280 2.738 1_556 S
C302 O285 1.255 . S
C302 O286 1.249 . S
C302 C296 1.516 . S
C303 O287 1.254 1_554 S
C303 O288 1.257 . S
C304 O289 1.266 . S
C304 O290 1.236 . S
C305 C308 1.344 . S
C305 C309 1.328 . S
C305 C311 1.516 . S
C306 C307 1.304 . S
C306 C310 1.323 . S
C307 C306 1.304 . S
C307 C308 1.371 . S
C307 H316 0.930 . S
C308 C305 1.344 . S
C308 C307 1.371 . S
C308 H317 0.931 . S
C309 C305 1.328 . S
C309 C310 1.433 . S
C309 H318 0.931 . S
C310 C306 1.323 . S
C310 C309 1.433 . S
C310 H319 0.933 . S
C311 Dy281 2.738 1_554 S
C311 O291 1.255 . S
C311 O292 1.249 . S
C311 C305 1.516 . S
H312 C298 0.930 . S
H313 C299 0.931 . S
H314 C300 0.931 . S
H315 C301 0.933 . S
H316 C307 0.930 . S
H317 C308 0.931 . S
H318 C309 0.931 . S
H319 C310 0.933 . S
C320 C321 1.363 . S
C320 C326 1.379 . S
C320 N328 1.356 . S
C321 C320 1.363 . S
C321 C327 1.363 . S
C322 C323 1.363 . S
C322 C327 1.379 . S
C322 N329 1.356 . S
C323 C322 1.363 . S
C323 C326 1.363 . S
N324 C326 1.356 . S
N324 H336 0.984 . S
N324 H337 0.985 . S
N325 C327 1.356 . S
N325 H330 0.984 . S
N325 H331 0.985 . S
C326 C320 1.379 . S
C326 C323 1.363 . S
C326 N324 1.356 . S
C327 C321 1.363 . S
C327 C322 1.379 . S
C327 N325 1.356 . S
N328 C320 1.356 . S
N328 H334 0.984 . S
N328 H335 0.984 . S
N329 C322 1.356 . S
N329 H332 0.984 . S
N329 H333 0.985 . S
H330 N325 0.984 . S
H331 N325 0.985 . S
H332 N329 0.984 . S
H333 N329 0.985 . S
H334 N328 0.984 . S
H335 N328 0.984 . S
H336 N324 0.984 . S
H337 N324 0.985 . S
C338 C339 1.363 . S
C338 C344 1.379 . S
C338 N346 1.356 . S
C339 C338 1.363 . S
C339 C345 1.363 . S
C340 C341 1.363 . S
C340 C345 1.379 . S
C340 N347 1.356 . S
C341 C340 1.363 . S
C341 C344 1.363 . S
N342 C344 1.356 . S
N342 H354 0.984 . S
N342 H355 0.985 . S
N343 C345 1.356 . S
N343 H348 0.984 . S
N343 H349 0.985 . S
C344 C338 1.379 . S
C344 C341 1.363 . S
C344 N342 1.356 . S
C345 C339 1.363 . S
C345 C340 1.379 . S
C345 N343 1.356 . S
N346 C338 1.356 . S
N346 H352 0.984 . S
N346 H353 0.984 . S
N347 C340 1.356 . S
N347 H350 0.984 . S
N347 H351 0.985 . S
H348 N343 0.984 . S
H349 N343 0.985 . S
H350 N347 0.984 . S
H351 N347 0.985 . S
H352 N346 0.984 . S
H353 N346 0.984 . S
H354 N342 0.984 . S
H355 N342 0.985 . S
C356 C357 1.363 . S
C356 C362 1.379 . S
C356 N364 1.356 . S
C357 C356 1.363 . S
C357 C363 1.363 . S
C358 C359 1.363 . S
C358 C363 1.379 . S
C358 N365 1.356 . S
C359 C358 1.363 . S
C359 C362 1.363 . S
N360 C362 1.356 . S
N360 H372 0.984 . S
N360 H373 0.985 . S
N361 C363 1.356 . S
N361 H366 0.984 . S
N361 H367 0.985 . S
C362 C356 1.379 . S
C362 C359 1.363 . S
C362 N360 1.356 . S
C363 C357 1.363 . S
C363 C358 1.379 . S
C363 N361 1.356 . S
N364 C356 1.356 . S
N364 H370 0.984 . S
N364 H371 0.984 . S
N365 C358 1.356 . S
N365 H368 0.984 . S
N365 H369 0.985 . S
H366 N361 0.984 . S
H367 N361 0.985 . S
H368 N365 0.984 . S
H369 N365 0.985 . S
H370 N364 0.984 . S
H371 N364 0.984 . S
H372 N360 0.984 . S
H373 N360 0.985 . S
C374 C375 1.363 . S
C374 C380 1.379 . S
C374 N382 1.356 . S
C375 C374 1.363 . S
C375 C381 1.363 . S
C376 C377 1.363 . S
C376 C381 1.379 . S
C376 N383 1.356 . S
C377 C376 1.363 . S
C377 C380 1.363 . S
N378 C380 1.356 . S
N378 H390 0.984 . S
N378 H391 0.985 . S
N379 C381 1.356 . S
N379 H384 0.984 . S
N379 H385 0.985 . S
C380 C374 1.379 . S
C380 C377 1.363 . S
C380 N378 1.356 . S
C381 C375 1.363 . S
C381 C376 1.379 . S
C381 N379 1.356 . S
N382 C374 1.356 . S
N382 H388 0.984 . S
N382 H389 0.984 . S
N383 C376 1.356 . S
N383 H386 0.984 . S
N383 H387 0.985 . S
H384 N379 0.984 . S
H385 N379 0.985 . S
H386 N383 0.984 . S
H387 N383 0.985 . S
H388 N382 0.984 . S
H389 N382 0.984 . S
H390 N378 0.984 . S
H391 N378 0.985 . S
C392 C393 1.363 . S
C392 C398 1.379 1_565 S
C392 N400 1.356 . S
C393 C392 1.363 . S
C393 C399 1.363 . S
C394 C395 1.363 . S
C394 C399 1.379 1_545 S
C394 N401 1.356 . S
C395 C394 1.363 . S
C395 C398 1.363 . S
N396 C398 1.356 . S
N396 H408 0.984 . S
N396 H409 0.985 . S
N397 C399 1.356 . S
N397 H402 0.984 . S
N397 H403 0.985 . S
C398 C392 1.379 1_545 S
C398 C395 1.363 . S
C398 N396 1.356 . S
C399 C393 1.363 . S
C399 C394 1.379 1_565 S
C399 N397 1.356 . S
N400 C392 1.356 . S
N400 H406 0.984 . S
N400 H407 0.984 . S
N401 C394 1.356 . S
N401 H404 0.984 . S
N401 H405 0.985 . S
H402 N397 0.984 . S
H403 N397 0.985 . S
H404 N401 0.984 . S
H405 N401 0.985 . S
H406 N400 0.984 . S
H407 N400 0.984 . S
H408 N396 0.984 . S
H409 N396 0.985 . S
C410 C411 1.363 . S
C410 C416 1.379 . S
C410 N418 1.356 . S
C411 C410 1.363 . S
C411 C417 1.363 . S
C412 C413 1.363 . S
C412 C417 1.379 . S
C412 N419 1.356 . S
C413 C412 1.363 . S
C413 C416 1.363 . S
N414 C416 1.356 . S
N414 H426 0.984 . S
N414 H427 0.985 . S
N415 C417 1.356 . S
N415 H420 0.984 . S
N415 H421 0.985 . S
C416 C410 1.379 . S
C416 C413 1.363 . S
C416 N414 1.356 . S
C417 C411 1.363 . S
C417 C412 1.379 . S
C417 N415 1.356 . S
N418 C410 1.356 . S
N418 H424 0.984 . S
N418 H425 0.984 . S
N419 C412 1.356 . S
N419 H422 0.984 . S
N419 H423 0.985 . S
H420 N415 0.984 . S
H421 N415 0.985 . S
H422 N419 0.984 . S
H423 N419 0.985 . S
H424 N418 0.984 . S
H425 N418 0.984 . S
H426 N414 0.984 . S
H427 N414 0.985 . S
C428 C429 1.363 . S
C428 C434 1.379 1_565 S
C428 N436 1.356 . S
C429 C428 1.363 . S
C429 C435 1.363 . S
C430 C431 1.363 . S
C430 C435 1.379 1_545 S
C430 N437 1.356 . S
C431 C430 1.363 . S
C431 C434 1.363 . S
N432 C434 1.356 . S
N432 H444 0.984 . S
N432 H445 0.985 . S
N433 C435 1.356 . S
N433 H438 0.984 . S
N433 H439 0.985 . S
C434 C428 1.379 1_545 S
C434 C431 1.363 . S
C434 N432 1.356 . S
C435 C429 1.363 . S
C435 C430 1.379 1_565 S
C435 N433 1.356 . S
N436 C428 1.356 . S
N436 H442 0.984 . S
N436 H443 0.984 . S
N437 C430 1.356 . S
N437 H440 0.984 . S
N437 H441 0.985 . S
H438 N433 0.984 . S
H439 N433 0.985 . S
H440 N437 0.984 . S
H441 N437 0.985 . S
H442 N436 0.984 . S
H443 N436 0.984 . S
H444 N432 0.984 . S
H445 N432 0.985 . S
C446 C447 1.363 . S
C446 C452 1.379 . S
C446 N454 1.356 . S
C447 C446 1.363 . S
C447 C453 1.363 . S
C448 C449 1.363 . S
C448 C453 1.379 . S
C448 N455 1.356 . S
C449 C448 1.363 . S
C449 C452 1.363 . S
N450 C452 1.356 . S
N450 H462 0.984 . S
N450 H463 0.985 . S
N451 C453 1.356 . S
N451 H456 0.984 . S
N451 H457 0.985 . S
C452 C446 1.379 . S
C452 C449 1.363 . S
C452 N450 1.356 . S
C453 C447 1.363 . S
C453 C448 1.379 . S
C453 N451 1.356 . S
N454 C446 1.356 . S
N454 H460 0.984 . S
N454 H461 0.984 . S
N455 C448 1.356 . S
N455 H458 0.984 . S
N455 H459 0.985 . S
H456 N451 0.984 . S
H457 N451 0.985 . S
H458 N455 0.984 . S
H459 N455 0.985 . S
H460 N454 0.984 . S
H461 N454 0.984 . S
H462 N450 0.984 . S
H463 N450 0.985 . S
C464 C465 1.363 . S
C464 C470 1.379 . S
C464 N472 1.356 . S
C465 C464 1.363 . S
C465 C471 1.363 1_554 S
C466 C467 1.363 . S
C466 C471 1.379 . S
C466 N473 1.356 . S
C467 C466 1.363 . S
C467 C470 1.363 1_556 S
N468 C470 1.356 . S
N468 H480 0.984 . S
N468 H481 0.985 . S
N469 C471 1.356 . S
N469 H474 0.984 . S
N469 H475 0.985 . S
C470 C464 1.379 . S
C470 C467 1.363 1_554 S
C470 N468 1.356 . S
C471 C465 1.363 1_556 S
C471 C466 1.379 . S
C471 N469 1.356 . S
N472 C464 1.356 . S
N472 H478 0.984 . S
N472 H479 0.984 . S
N473 C466 1.356 . S
N473 H476 0.984 . S
N473 H477 0.985 . S
H474 N469 0.984 . S
H475 N469 0.985 . S
H476 N473 0.984 . S
H477 N473 0.985 . S
H478 N472 0.984 . S
H479 N472 0.984 . S
H480 N468 0.984 . S
H481 N468 0.985 . S
C482 C483 1.363 . S
C482 C488 1.379 1_565 S
C482 N490 1.356 . S
C483 C482 1.363 . S
C483 C489 1.363 1_554 S
C484 C485 1.363 . S
C484 C489 1.379 1_545 S
C484 N491 1.356 . S
C485 C484 1.363 . S
C485 C488 1.363 1_556 S
N486 C488 1.356 . S
N486 H498 0.984 . S
N486 H499 0.985 . S
N487 C489 1.356 . S
N487 H492 0.984 . S
N487 H493 0.985 . S
C488 C482 1.379 1_545 S
C488 C485 1.363 1_554 S
C488 N486 1.356 . S
C489 C483 1.363 1_556 S
C489 C484 1.379 1_565 S
C489 N487 1.356 . S
N490 C482 1.356 . S
N490 H496 0.984 . S
N490 H497 0.984 . S
N491 C484 1.356 . S
N491 H494 0.984 . S
N491 H495 0.985 . S
H492 N487 0.984 . S
H493 N487 0.985 . S
H494 N491 0.984 . S
H495 N491 0.985 . S
H496 N490 0.984 . S
H497 N490 0.984 . S
H498 N486 0.984 . S
H499 N486 0.985 . S
C500 C501 1.363 1_556 S
C500 C506 1.379 . S
C500 N508 1.356 . S
C501 C500 1.363 1_554 S
C501 C507 1.363 . S
C502 C503 1.363 1_554 S
C502 C507 1.379 . S
C502 N509 1.356 . S
C503 C502 1.363 1_556 S
C503 C506 1.363 . S
N504 C506 1.356 . S
N504 H516 0.984 . S
N504 H517 0.985 . S
N505 C507 1.356 . S
N505 H510 0.984 . S
N505 H511 0.985 . S
C506 C500 1.379 . S
C506 C503 1.363 . S
C506 N504 1.356 . S
C507 C501 1.363 . S
C507 C502 1.379 . S
C507 N505 1.356 . S
N508 C500 1.356 . S
N508 H514 0.984 . S
N508 H515 0.984 . S
N509 C502 1.356 . S
N509 H512 0.984 . S
N509 H513 0.985 . S
H510 N505 0.984 . S
H511 N505 0.985 . S
H512 N509 0.984 . S
H513 N509 0.985 . S
H514 N508 0.984 . S
H515 N508 0.984 . S
H516 N504 0.984 . S
H517 N504 0.985 . S
C518 C519 1.363 . S
C518 C524 1.379 1_545 S
C518 N526 1.356 . S
C519 C518 1.363 . S
C519 C525 1.363 1_554 S
C520 C521 1.363 . S
C520 C525 1.379 1_565 S
C520 N527 1.356 . S
C521 C520 1.363 . S
C521 C524 1.363 1_556 S
N522 C524 1.356 . S
N522 H534 0.984 . S
N522 H535 0.985 . S
N523 C525 1.356 . S
N523 H528 0.984 . S
N523 H529 0.985 . S
C524 C518 1.379 1_565 S
C524 C521 1.363 1_554 S
C524 N522 1.356 . S
C525 C519 1.363 1_556 S
C525 C520 1.379 1_545 S
C525 N523 1.356 . S
N526 C518 1.356 . S
N526 H532 0.984 . S
N526 H533 0.984 . S
N527 C520 1.356 . S
N527 H530 0.984 . S
N527 H531 0.985 . S
H528 N523 0.984 . S
H529 N523 0.985 . S
H530 N527 0.984 . S
H531 N527 0.985 . S
H532 N526 0.984 . S
H533 N526 0.984 . S
H534 N522 0.984 . S
H535 N522 0.985 . S
C536 C537 1.363 1_556 S
C536 C542 1.379 . S
C536 N544 1.356 1_556 S
C537 C536 1.363 1_554 S
C537 C543 1.363 . S
C538 C539 1.363 . S
C538 C543 1.379 1_556 S
C538 N545 1.356 . S
C539 C538 1.363 . S
C539 C542 1.363 . S
N540 C542 1.356 . S
N540 H552 0.984 . S
N540 H553 0.985 . S
N541 C543 1.356 . S
N541 H546 0.984 . S
N541 H547 0.985 . S
C542 C536 1.379 . S
C542 C539 1.363 . S
C542 N540 1.356 . S
C543 C537 1.363 . S
C543 C538 1.379 1_554 S
C543 N541 1.356 . S
N544 C536 1.356 1_554 S
N544 H550 0.984 . S
N544 H551 0.984 . S
N545 C538 1.356 . S
N545 H548 0.984 . S
N545 H549 0.985 . S
H546 N541 0.984 . S
H547 N541 0.985 . S
H548 N545 0.984 . S
H549 N545 0.985 . S
H550 N544 0.984 . S
H551 N544 0.984 . S
H552 N540 0.984 . S
H553 N540 0.985 . S
C554 C555 1.363 . S
C554 C560 1.379 1_554 S
C554 N562 1.356 . S
C555 C554 1.363 . S
C555 C561 1.363 1_554 S
C556 C557 1.363 . S
C556 C561 1.379 . S
C556 N563 1.356 . S
C557 C556 1.363 . S
C557 C560 1.363 . S
N558 C560 1.356 . S
N558 H570 0.984 . S
N558 H571 0.985 . S
N559 C561 1.356 1_554 S
N559 H564 0.984 . S
N559 H565 0.985 . S
C560 C554 1.379 1_556 S
C560 C557 1.363 . S
C560 N558 1.356 . S
C561 C555 1.363 1_556 S
C561 C556 1.379 . S
C561 N559 1.356 1_556 S
N562 C554 1.356 . S
N562 H568 0.984 . S
N562 H569 0.984 . S
N563 C556 1.356 . S
N563 H566 0.984 . S
N563 H567 0.985 . S
H564 N559 0.984 . S
H565 N559 0.985 . S
H566 N563 0.984 . S
H567 N563 0.985 . S
H568 N562 0.984 . S
H569 N562 0.984 . S
H570 N558 0.984 . S
H571 N558 0.985 . S
C572 C573 1.363 . S
C572 C578 1.379 . S
C572 N580 1.356 . S
C573 C572 1.363 . S
C573 C579 1.363 . S
C574 C575 1.363 1_554 S
C574 C579 1.379 . S
C574 N581 1.356 1_554 S
C575 C574 1.363 1_556 S
C575 C578 1.363 1_556 S
N576 C578 1.356 1_556 S
N576 H588 0.984 . S
N576 H589 0.985 . S
N577 C579 1.356 . S
N577 H582 0.984 . S
N577 H583 0.985 . S
C578 C572 1.379 . S
C578 C575 1.363 1_554 S
C578 N576 1.356 1_554 S
C579 C573 1.363 . S
C579 C574 1.379 . S
C579 N577 1.356 . S
N580 C572 1.356 . S
N580 H586 0.984 . S
N580 H587 0.984 . S
N581 C574 1.356 1_556 S
N581 H584 0.984 . S
N581 H585 0.985 . S
H582 N577 0.984 . S
H583 N577 0.985 . S
H584 N581 0.984 . S
H585 N581 0.985 . S
H586 N580 0.984 . S
H587 N580 0.984 . S
H588 N576 0.984 . S
H589 N576 0.985 . S
C590 C591 1.363 1_554 S
C590 C596 1.379 . S
C590 N598 1.356 1_554 S
C591 C590 1.363 1_556 S
C591 C597 1.363 . S
C592 C593 1.363 . S
C592 C597 1.379 1_554 S
C592 N599 1.356 . S
C593 C592 1.363 . S
C593 C596 1.363 . S
N594 C596 1.356 . S
N594 H606 0.984 . S
N594 H607 0.985 . S
N595 C597 1.356 . S
N595 H600 0.984 . S
N595 H601 0.985 . S
C596 C590 1.379 . S
C596 C593 1.363 . S
C596 N594 1.356 . S
C597 C591 1.363 . S
C597 C592 1.379 1_556 S
C597 N595 1.356 . S
N598 C590 1.356 1_556 S
N598 H604 0.984 . S
N598 H605 0.984 . S
N599 C592 1.356 . S
N599 H602 0.984 . S
N599 H603 0.985 . S
H600 N595 0.984 . S
H601 N595 0.985 . S
H602 N599 0.984 . S
H603 N599 0.985 . S
H604 N598 0.984 . S
H605 N598 0.984 . S
H606 N594 0.984 . S
H607 N594 0.985 . S
C608 C609 1.363 . S
C608 C614 1.379 . S
C608 N616 1.356 . S
C609 C608 1.363 . S
C609 C615 1.363 . S
C610 C611 1.363 . S
C610 C615 1.379 . S
C610 N617 1.356 . S
C611 C610 1.363 . S
C611 C614 1.363 . S
N612 C614 1.356 . S
N612 H624 0.984 . S
N612 H625 0.985 . S
N613 C615 1.356 . S
N613 H618 0.984 . S
N613 H619 0.985 . S
C614 C608 1.379 . S
C614 C611 1.363 . S
C614 N612 1.356 . S
C615 C609 1.363 . S
C615 C610 1.379 . S
C615 N613 1.356 . S
N616 C608 1.356 . S
N616 H622 0.984 . S
N616 H623 0.984 . S
N617 C610 1.356 . S
N617 H620 0.984 . S
N617 H621 0.985 . S
H618 N613 0.984 . S
H619 N613 0.985 . S
H620 N617 0.984 . S
H621 N617 0.985 . S
H622 N616 0.984 . S
H623 N616 0.984 . S
H624 N612 0.984 . S
H625 N612 0.985 . S
C626 C627 1.363 . S
C626 C632 1.379 . S
C626 N634 1.356 . S
C627 C626 1.363 . S
C627 C633 1.363 . S
C628 C629 1.363 . S
C628 C633 1.379 . S
C628 N635 1.356 . S
C629 C628 1.363 . S
C629 C632 1.363 . S
N630 C632 1.356 . S
N630 H642 0.984 . S
N630 H643 0.985 . S
N631 C633 1.356 . S
N631 H636 0.984 . S
N631 H637 0.985 . S
C632 C626 1.379 . S
C632 C629 1.363 . S
C632 N630 1.356 . S
C633 C627 1.363 . S
C633 C628 1.379 . S
C633 N631 1.356 . S
N634 C626 1.356 . S
N634 H640 0.984 . S
N634 H641 0.984 . S
N635 C628 1.356 . S
N635 H638 0.984 . S
N635 H639 0.985 . S
H636 N631 0.984 . S
H637 N631 0.985 . S
H638 N635 0.984 . S
H639 N635 0.985 . S
H640 N634 0.984 . S
H641 N634 0.984 . S
H642 N630 0.984 . S
H643 N630 0.985 . S
C644 C645 1.363 . S
C644 C650 1.379 . S
C644 N652 1.356 . S
C645 C644 1.363 . S
C645 C651 1.363 . S
C646 C647 1.363 . S
C646 C651 1.379 . S
C646 N653 1.356 . S
C647 C646 1.363 . S
C647 C650 1.363 . S
N648 C650 1.356 . S
N648 H660 0.984 . S
N648 H661 0.985 . S
N649 C651 1.356 . S
N649 H654 0.984 . S
N649 H655 0.985 . S
C650 C644 1.379 . S
C650 C647 1.363 . S
C650 N648 1.356 . S
C651 C645 1.363 . S
C651 C646 1.379 . S
C651 N649 1.356 . S
N652 C644 1.356 . S
N652 H658 0.984 . S
N652 H659 0.984 . S
N653 C646 1.356 . S
N653 H656 0.984 . S
N653 H657 0.985 . S
H654 N649 0.984 . S
H655 N649 0.985 . S
H656 N653 0.984 . S
H657 N653 0.985 . S
H658 N652 0.984 . S
H659 N652 0.984 . S
H660 N648 0.984 . S
H661 N648 0.985 . S
C662 C663 1.363 . S
C662 C668 1.379 . S
C662 N670 1.356 . S
C663 C662 1.363 . S
C663 C669 1.363 . S
C664 C665 1.363 . S
C664 C669 1.379 . S
C664 N671 1.356 . S
C665 C664 1.363 . S
C665 C668 1.363 . S
N666 C668 1.356 . S
N666 H678 0.984 . S
N666 H679 0.985 . S
N667 C669 1.356 . S
N667 H672 0.984 . S
N667 H673 0.985 . S
C668 C662 1.379 . S
C668 C665 1.363 . S
C668 N666 1.356 . S
C669 C663 1.363 . S
C669 C664 1.379 . S
C669 N667 1.356 . S
N670 C662 1.356 . S
N670 H676 0.984 . S
N670 H677 0.984 . S
N671 C664 1.356 . S
N671 H674 0.984 . S
N671 H675 0.985 . S
H672 N667 0.984 . S
H673 N667 0.985 . S
H674 N671 0.984 . S
H675 N671 0.985 . S
H676 N670 0.984 . S
H677 N670 0.984 . S
H678 N666 0.984 . S
H679 N666 0.985 . S
C680 C681 1.363 . S
C680 C686 1.379 1_455 S
C680 N688 1.356 . S
C681 C680 1.363 . S
C681 C687 1.363 . S
C682 C683 1.363 . S
C682 C687 1.379 1_655 S
C682 N689 1.356 . S
C683 C682 1.363 . S
C683 C686 1.363 . S
N684 C686 1.356 . S
N684 H696 0.984 . S
N684 H697 0.985 . S
N685 C687 1.356 . S
N685 H690 0.984 . S
N685 H691 0.985 1_554 S
C686 C680 1.379 1_655 S
C686 C683 1.363 . S
C686 N684 1.356 . S
C687 C681 1.363 . S
C687 C682 1.379 1_455 S
C687 N685 1.356 . S
N688 C680 1.356 . S
N688 H694 0.984 . S
N688 H695 0.984 . S
N689 C682 1.356 . S
N689 H692 0.984 . S
N689 H693 0.985 1_554 S
H690 N685 0.984 . S
H691 N685 0.985 1_556 S
H692 N689 0.984 . S
H693 N689 0.985 1_556 S
H694 N688 0.984 . S
H695 N688 0.984 . S
H696 N684 0.984 . S
H697 N684 0.985 . S
C698 C699 1.363 . S
C698 C704 1.379 1_655 S
C698 N706 1.356 . S
C699 C698 1.363 . S
C699 C705 1.363 . S
C700 C701 1.363 . S
C700 C705 1.379 1_455 S
C700 N707 1.356 . S
C701 C700 1.363 . S
C701 C704 1.363 . S
N702 C704 1.356 . S
N702 H714 0.984 . S
N702 H715 0.985 . S
N703 C705 1.356 . S
N703 H708 0.984 . S
N703 H709 0.985 1_556 S
C704 C698 1.379 1_455 S
C704 C701 1.363 . S
C704 N702 1.356 . S
C705 C699 1.363 . S
C705 C700 1.379 1_655 S
C705 N703 1.356 . S
N706 C698 1.356 . S
N706 H712 0.984 . S
N706 H713 0.984 . S
N707 C700 1.356 . S
N707 H710 0.984 . S
N707 H711 0.985 1_556 S
H708 N703 0.984 . S
H709 N703 0.985 1_554 S
H710 N707 0.984 . S
H711 N707 0.985 1_554 S
H712 N706 0.984 . S
H713 N706 0.984 . S
H714 N702 0.984 . S
H715 N702 0.985 . S
C716 C717 1.363 . S
C716 C722 1.379 . S
C716 N724 1.356 . S
C717 C716 1.363 . S
C717 C723 1.363 . S
C718 C719 1.363 . S
C718 C723 1.379 . S
C718 N725 1.356 . S
C719 C718 1.363 . S
C719 C722 1.363 . S
N720 C722 1.356 . S
N720 H732 0.984 . S
N720 H733 0.985 . S
N721 C723 1.356 . S
N721 H726 0.984 . S
N721 H727 0.985 . S
C722 C716 1.379 . S
C722 C719 1.363 . S
C722 N720 1.356 . S
C723 C717 1.363 . S
C723 C718 1.379 . S
C723 N721 1.356 . S
N724 C716 1.356 . S
N724 H730 0.984 . S
N724 H731 0.984 . S
N725 C718 1.356 . S
N725 H728 0.984 . S
N725 H729 0.985 . S
H726 N721 0.984 . S
H727 N721 0.985 . S
H728 N725 0.984 . S
H729 N725 0.985 . S
H730 N724 0.984 . S
H731 N724 0.984 . S
H732 N720 0.984 . S
H733 N720 0.985 . S
C734 C735 1.363 . S
C734 C740 1.379 . S
C734 N742 1.356 . S
C735 C734 1.363 . S
C735 C741 1.363 . S
C736 C737 1.363 . S
C736 C741 1.379 . S
C736 N743 1.356 . S
C737 C736 1.363 . S
C737 C740 1.363 . S
N738 C740 1.356 . S
N738 H750 0.984 . S
N738 H751 0.985 . S
N739 C741 1.356 . S
N739 H744 0.984 . S
N739 H745 0.985 . S
C740 C734 1.379 . S
C740 C737 1.363 . S
C740 N738 1.356 . S
C741 C735 1.363 . S
C741 C736 1.379 . S
C741 N739 1.356 . S
N742 C734 1.356 . S
N742 H748 0.984 . S
N742 H749 0.984 . S
N743 C736 1.356 . S
N743 H746 0.984 . S
N743 H747 0.985 . S
H744 N739 0.984 . S
H745 N739 0.985 . S
H746 N743 0.984 . S
H747 N743 0.985 . S
H748 N742 0.984 . S
H749 N742 0.984 . S
H750 N738 0.984 . S
H751 N738 0.985 . S
C321 C17 1.644 . S
C323 C297 1.644 . S
C339 C257 1.644 . S
C341 C57 1.644 . S
C357 C217 1.644 . S
C359 C97 1.644 . S
C375 C177 1.644 . S
C377 C137 1.644 . S
C393 C82 1.183 . S
C395 C2 1.183 . S
C411 C42 1.183 . S
C413 C122 1.183 . S
C429 C143 1.937 . S
C431 C63 1.937 . S
C447 C103 1.937 . S
C449 C23 1.937 . S
C465 C162 1.108 . S
C467 C242 1.108 . S
C483 C202 1.108 . S
C485 C282 1.108 . S
C501 C303 1.820 . S
C503 C223 1.820 . S
C519 C263 1.820 . S
C521 C183 1.820 . S
C537 C13 1.915 . S
C539 C24 1.915 . S
C555 C53 1.915 . S
C557 C64 1.915 . S
C573 C104 1.915 . S
C575 C93 1.915 . S
C591 C133 1.915 . S
C593 C144 1.915 . S
C609 C184 1.915 . S
C611 C173 1.915 . S
C627 C213 1.915 . S
C629 C224 1.915 . S
C645 C253 1.915 . S
C647 C264 1.915 . S
C663 C293 1.915 . S
C665 C304 1.915 . S
C681 C26 2.101 . S
C683 C66 2.101 . S
C699 C146 2.102 . S
C701 C106 2.102 . S
C717 C186 2.101 . S
C719 C226 2.101 . S
C735 C306 2.101 . S
C737 C266 2.101 . S
