# Generated by pormake.
# Topology umv, (4)-cn, num edge types: 1
# Building blocks:
#     Node 0, Type 0, BuildingBlock: CEKHIL_clean_sbu_0, # of connection points: 4
#     Node 1, Type 0, BuildingBlock: CEKHIL_clean_sbu_0, # of connection points: 4
#     Node 2, Type 0, BuildingBlock: CEKHIL_clean_sbu_0, # of connection points: 4
#     Node 3, Type 0, BuildingBlock: CEKHIL_clean_sbu_0, # of connection points: 4
#     Node 4, Type 0, BuildingBlock: CEKHIL_clean_sbu_0, # of connection points: 4
#     Node 5, Type 0, BuildingBlock: CEKHIL_clean_sbu_0, # of connection points: 4
#     Node 6, Type 0, BuildingBlock: CEKHIL_clean_sbu_0, # of connection points: 4
#     Node 7, Type 0, BuildingBlock: CEKHIL_clean_sbu_0, # of connection points: 4
#     Node 8, Type 0, BuildingBlock: CEKHIL_clean_sbu_0, # of connection points: 4
#     Node 9, Type 0, BuildingBlock: CEKHIL_clean_sbu_0, # of connection points: 4
#     Node 10, Type 0, BuildingBlock: CEKHIL_clean_sbu_0, # of connection points: 4
#     Node 11, Type 0, BuildingBlock: CEKHIL_clean_sbu_0, # of connection points: 4
#     Node 12, Type 0, BuildingBlock: CEKHIL_clean_sbu_0, # of connection points: 4
#     Node 13, Type 0, BuildingBlock: CEKHIL_clean_sbu_0, # of connection points: 4
#     Node 14, Type 0, BuildingBlock: CEKHIL_clean_sbu_0, # of connection points: 4
#     Node 15, Type 0, BuildingBlock: CEKHIL_clean_sbu_0, # of connection points: 4
#     Node 16, Type 0, BuildingBlock: CEKHIL_clean_sbu_0, # of connection points: 4
#     Node 17, Type 0, BuildingBlock: CEKHIL_clean_sbu_0, # of connection points: 4
#     Node 18, Type 0, BuildingBlock: CEKHIL_clean_sbu_0, # of connection points: 4
#     Node 19, Type 0, BuildingBlock: CEKHIL_clean_sbu_0, # of connection points: 4
#     Node 20, Type 0, BuildingBlock: CEKHIL_clean_sbu_0, # of connection points: 4
#     Node 21, Type 0, BuildingBlock: CEKHIL_clean_sbu_0, # of connection points: 4
#     Node 22, Type 0, BuildingBlock: CEKHIL_clean_sbu_0, # of connection points: 4
#     Node 23, Type 0, BuildingBlock: CEKHIL_clean_sbu_0, # of connection points: 4
#     Node 24, Type 0, BuildingBlock: CEKHIL_clean_sbu_0, # of connection points: 4
#     Node 25, Type 0, BuildingBlock: CEKHIL_clean_sbu_0, # of connection points: 4
#     Node 26, Type 0, BuildingBlock: CEKHIL_clean_sbu_0, # of connection points: 4
#     Node 27, Type 0, BuildingBlock: CEKHIL_clean_sbu_0, # of connection points: 4
#     Node 28, Type 0, BuildingBlock: CEKHIL_clean_sbu_0, # of connection points: 4
#     Node 29, Type 0, BuildingBlock: CEKHIL_clean_sbu_0, # of connection points: 4
#     Node 30, Type 0, BuildingBlock: CEKHIL_clean_sbu_0, # of connection points: 4
#     Node 31, Type 0, BuildingBlock: CEKHIL_clean_sbu_0, # of connection points: 4
#     Edge 32, Type (0, 0), BuildingBlock: AJUNOK_clean_linker_0, # of connection points: 2
#     Edge 33, Type (0, 0), BuildingBlock: AJUNOK_clean_linker_0, # of connection points: 2
#     Edge 34, Type (0, 0), BuildingBlock: AJUNOK_clean_linker_0, # of connection points: 2
#     Edge 35, Type (0, 0), BuildingBlock: AJUNOK_clean_linker_0, # of connection points: 2
#     Edge 36, Type (0, 0), BuildingBlock: AJUNOK_clean_linker_0, # of connection points: 2
#     Edge 37, Type (0, 0), BuildingBlock: AJUNOK_clean_linker_0, # of connection points: 2
#     Edge 38, Type (0, 0), BuildingBlock: AJUNOK_clean_linker_0, # of connection points: 2
#     Edge 39, Type (0, 0), BuildingBlock: AJUNOK_clean_linker_0, # of connection points: 2
#     Edge 40, Type (0, 0), BuildingBlock: AJUNOK_clean_linker_0, # of connection points: 2
#     Edge 41, Type (0, 0), BuildingBlock: AJUNOK_clean_linker_0, # of connection points: 2
#     Edge 42, Type (0, 0), BuildingBlock: AJUNOK_clean_linker_0, # of connection points: 2
#     Edge 43, Type (0, 0), BuildingBlock: AJUNOK_clean_linker_0, # of connection points: 2
#     Edge 44, Type (0, 0), BuildingBlock: AJUNOK_clean_linker_0, # of connection points: 2
#     Edge 45, Type (0, 0), BuildingBlock: AJUNOK_clean_linker_0, # of connection points: 2
#     Edge 46, Type (0, 0), BuildingBlock: AJUNOK_clean_linker_0, # of connection points: 2
#     Edge 47, Type (0, 0), BuildingBlock: AJUNOK_clean_linker_0, # of connection points: 2
#     Edge 48, Type (0, 0), BuildingBlock: AJUNOK_clean_linker_0, # of connection points: 2
#     Edge 49, Type (0, 0), BuildingBlock: AJUNOK_clean_linker_0, # of connection points: 2
#     Edge 50, Type (0, 0), BuildingBlock: AJUNOK_clean_linker_0, # of connection points: 2
#     Edge 51, Type (0, 0), BuildingBlock: AJUNOK_clean_linker_0, # of connection points: 2
#     Edge 52, Type (0, 0), BuildingBlock: AJUNOK_clean_linker_0, # of connection points: 2
#     Edge 53, Type (0, 0), BuildingBlock: AJUNOK_clean_linker_0, # of connection points: 2
#     Edge 54, Type (0, 0), BuildingBlock: AJUNOK_clean_linker_0, # of connection points: 2
#     Edge 55, Type (0, 0), BuildingBlock: AJUNOK_clean_linker_0, # of connection points: 2
#     Edge 56, Type (0, 0), BuildingBlock: AJUNOK_clean_linker_0, # of connection points: 2
#     Edge 57, Type (0, 0), BuildingBlock: AJUNOK_clean_linker_0, # of connection points: 2
#     Edge 58, Type (0, 0), BuildingBlock: AJUNOK_clean_linker_0, # of connection points: 2
#     Edge 59, Type (0, 0), BuildingBlock: AJUNOK_clean_linker_0, # of connection points: 2
#     Edge 60, Type (0, 0), BuildingBlock: AJUNOK_clean_linker_0, # of connection points: 2
#     Edge 61, Type (0, 0), BuildingBlock: AJUNOK_clean_linker_0, # of connection points: 2
#     Edge 62, Type (0, 0), BuildingBlock: AJUNOK_clean_linker_0, # of connection points: 2
#     Edge 63, Type (0, 0), BuildingBlock: AJUNOK_clean_linker_0, # of connection points: 2
#     Edge 64, Type (0, 0), BuildingBlock: AJUNOK_clean_linker_0, # of connection points: 2
#     Edge 65, Type (0, 0), BuildingBlock: AJUNOK_clean_linker_0, # of connection points: 2
#     Edge 66, Type (0, 0), BuildingBlock: AJUNOK_clean_linker_0, # of connection points: 2
#     Edge 67, Type (0, 0), BuildingBlock: AJUNOK_clean_linker_0, # of connection points: 2
#     Edge 68, Type (0, 0), BuildingBlock: AJUNOK_clean_linker_0, # of connection points: 2
#     Edge 69, Type (0, 0), BuildingBlock: AJUNOK_clean_linker_0, # of connection points: 2
#     Edge 70, Type (0, 0), BuildingBlock: AJUNOK_clean_linker_0, # of connection points: 2
#     Edge 71, Type (0, 0), BuildingBlock: AJUNOK_clean_linker_0, # of connection points: 2
#     Edge 72, Type (0, 0), BuildingBlock: AJUNOK_clean_linker_0, # of connection points: 2
#     Edge 73, Type (0, 0), BuildingBlock: AJUNOK_clean_linker_0, # of connection points: 2
#     Edge 74, Type (0, 0), BuildingBlock: AJUNOK_clean_linker_0, # of connection points: 2
#     Edge 75, Type (0, 0), BuildingBlock: AJUNOK_clean_linker_0, # of connection points: 2
#     Edge 76, Type (0, 0), BuildingBlock: AJUNOK_clean_linker_0, # of connection points: 2
#     Edge 77, Type (0, 0), BuildingBlock: AJUNOK_clean_linker_0, # of connection points: 2
#     Edge 78, Type (0, 0), BuildingBlock: AJUNOK_clean_linker_0, # of connection points: 2
#     Edge 79, Type (0, 0), BuildingBlock: AJUNOK_clean_linker_0, # of connection points: 2
#     Edge 80, Type (0, 0), BuildingBlock: AJUNOK_clean_linker_0, # of connection points: 2
#     Edge 81, Type (0, 0), BuildingBlock: AJUNOK_clean_linker_0, # of connection points: 2
#     Edge 82, Type (0, 0), BuildingBlock: AJUNOK_clean_linker_0, # of connection points: 2
#     Edge 83, Type (0, 0), BuildingBlock: AJUNOK_clean_linker_0, # of connection points: 2
#     Edge 84, Type (0, 0), BuildingBlock: AJUNOK_clean_linker_0, # of connection points: 2
#     Edge 85, Type (0, 0), BuildingBlock: AJUNOK_clean_linker_0, # of connection points: 2
#     Edge 86, Type (0, 0), BuildingBlock: AJUNOK_clean_linker_0, # of connection points: 2
#     Edge 87, Type (0, 0), BuildingBlock: AJUNOK_clean_linker_0, # of connection points: 2
#     Edge 88, Type (0, 0), BuildingBlock: AJUNOK_clean_linker_0, # of connection points: 2
#     Edge 89, Type (0, 0), BuildingBlock: AJUNOK_clean_linker_0, # of connection points: 2
#     Edge 90, Type (0, 0), BuildingBlock: AJUNOK_clean_linker_0, # of connection points: 2
#     Edge 91, Type (0, 0), BuildingBlock: AJUNOK_clean_linker_0, # of connection points: 2
#     Edge 92, Type (0, 0), BuildingBlock: AJUNOK_clean_linker_0, # of connection points: 2
#     Edge 93, Type (0, 0), BuildingBlock: AJUNOK_clean_linker_0, # of connection points: 2
#     Edge 94, Type (0, 0), BuildingBlock: AJUNOK_clean_linker_0, # of connection points: 2
#     Edge 95, Type (0, 0), BuildingBlock: AJUNOK_clean_linker_0, # of connection points: 2
# Relax obj value: 0.126
# Max RMSD: 0.110
# Mean RMSD: 0.110
data_MOF--net-umv--node1-CEKHIL_clean_sbu_0--edge1-AJUNOK_clean_linker_0
_symmetry_space_group_name_H-M    P1
_symmetry_Int_Tables_number       1
_symmetry_cell_setting            triclinic
loop_
_symmetry_equiv_pos_as_xyz
'x, y, z'
_cell_length_a     76.116755
_cell_length_b     18.761644
_cell_length_c     42.695178
_cell_angle_alpha  90.006339
_cell_angle_beta   89.969222
_cell_angle_gamma 90.063785
loop_
_atom_site_label
_atom_site_type_symbol
_atom_site_fract_x
_atom_site_fract_y
_atom_site_fract_z
_atom_type_partial_charge
Co0 Co 0.06982 0.10119 0.32031 0.0
O1 O 0.04499 0.12645 0.31658 0.0
O2 O 0.06466 0.14463 0.27977 0.0
C3 C 0.06492 -0.00603 0.34384 0.0
O4 O 0.09666 0.08685 0.31504 0.0
Co5 Co 0.08815 0.06588 0.38457 0.0
O6 O 0.10932 0.04601 0.35922 0.0
C7 C 0.07682 0.21229 0.36766 0.0
C8 C 0.04855 0.15337 0.28926 0.0
C9 C 0.11025 0.06574 0.33074 0.0
O10 O 0.07461 0.19576 0.33876 0.0
O11 O 0.08025 0.1669 0.38917 0.0
O12 O 0.06439 -0.00141 0.31331 0.0
O13 O 0.06809 0.05236 0.35796 0.0
Co14 Co 0.22346 0.12727 0.31671 0.0
O15 O 0.24873 0.11475 0.31188 0.0
O16 O 0.22931 0.08512 0.27611 0.0
C17 C 0.22445 0.23694 0.33956 0.0
O18 O 0.19635 0.12819 0.31292 0.0
Co19 Co 0.20612 0.14823 0.38306 0.0
O20 O 0.18373 0.15358 0.35945 0.0
C21 C 0.2227 0.01322 0.36422 0.0
C22 C 0.24564 0.08401 0.28515 0.0
C23 C 0.18268 0.13869 0.33039 0.0
O24 O 0.22217 0.03129 0.33532 0.0
O25 O 0.21887 0.05528 0.38681 0.0
O26 O 0.22523 0.23147 0.30906 0.0
O27 O 0.22411 0.17764 0.35416 0.0
Co28 Co 0.06306 0.13542 0.94169 0.0
O29 O 0.03795 0.12068 0.94699 0.0
O30 O 0.05773 0.09361 0.98257 0.0
C31 C 0.06139 0.24431 0.91889 0.0
O32 O 0.09012 0.1399 0.94488 0.0
Co33 Co 0.07971 0.15725 0.87498 0.0
O34 O 0.10197 0.17126 0.89844 0.0
C35 C 0.06544 0.01856 0.89501 0.0
C36 C 0.04135 0.09091 0.97378 0.0
C37 C 0.10346 0.15527 0.92734 0.0
O38 O 0.0649 0.03885 0.92362 0.0
O39 O 0.0691 0.05971 0.872 0.0
O40 O 0.06103 0.23918 0.9494 0.0
O41 O 0.06168 0.18522 0.90408 0.0
Co42 Co 0.21734 0.10853 0.93887 0.0
O43 O 0.24265 0.123 0.94233 0.0
O44 O 0.22379 0.14909 0.97953 0.0
C45 C 0.21821 -0.00038 0.91491 0.0
O46 O 0.19025 0.10466 0.94416 0.0
Co47 Co 0.19926 0.09417 0.87343 0.0
O48 O 0.17718 0.08565 0.89742 0.0
C49 C 0.21744 0.22376 0.89277 0.0
C50 C 0.23994 0.15209 0.96954 0.0
C51 C 0.17642 0.09583 0.92687 0.0
O52 O 0.21541 0.20582 0.92145 0.0
O53 O 0.21389 0.18214 0.86993 0.0
O54 O 0.21981 0.00409 0.94532 0.0
O55 O 0.21747 0.05964 0.90081 0.0
Co56 Co 0.97363 0.87846 0.69431 0.0
O57 O 0.99879 0.86156 0.69967 0.0
O58 O 0.97874 0.83368 0.73462 0.0
C59 C 0.97585 0.98886 0.67251 0.0
O60 O 0.9465 0.88402 0.69754 0.0
Co61 Co 0.9569 0.90642 0.62797 0.0
O62 O 0.93453 0.9165 0.65134 0.0
C63 C 0.97235 0.76815 0.64536 0.0
C64 C 0.99516 0.83057 0.72613 0.0
C65 C 0.9331 0.89947 0.68012 0.0
O66 O 0.97152 0.78374 0.67453 0.0
O67 O 0.96921 0.8128 0.62339 0.0
O68 O 0.97634 0.9821 0.70298 0.0
O69 O 0.97506 0.93031 0.65744 0.0
Co70 Co 0.81925 0.85846 0.68932 0.0
O71 O 0.7941 0.87579 0.6925 0.0
O72 O 0.81285 0.89681 0.73048 0.0
C73 C 0.81687 0.75227 0.6637 0.0
O74 O 0.84626 0.85079 0.69472 0.0
Co75 Co 0.8377 0.84061 0.62369 0.0
O76 O 0.85936 0.826 0.64851 0.0
C77 C 0.82211 0.97625 0.64452 0.0
C78 C 0.79678 0.90206 0.72022 0.0
C79 C 0.86007 0.83822 0.67783 0.0
O80 O 0.82228 0.95608 0.67315 0.0
O81 O 0.82575 0.93555 0.62135 0.0
O82 O 0.81575 0.75409 0.69424 0.0
O83 O 0.81866 0.81302 0.65071 0.0
Co84 Co 0.96879 0.85514 0.07069 0.0
O85 O 0.99356 0.88131 0.06704 0.0
O86 O 0.97387 0.89849 0.03018 0.0
C87 C 0.97377 0.74829 0.0944 0.0
O88 O 0.94204 0.84034 0.06529 0.0
Co89 Co 0.95037 0.82025 0.13498 0.0
O90 O 0.92907 0.80239 0.10973 0.0
C91 C 0.96179 0.96629 0.11777 0.0
C92 C 0.98993 0.90819 0.03974 0.0
C93 C 0.92832 0.82117 0.08111 0.0
O94 O 0.9638 0.94957 0.08887 0.0
O95 O 0.95858 0.92103 0.13946 0.0
O96 O 0.97439 0.75272 0.06387 0.0
O97 O 0.97048 0.80669 0.10842 0.0
Co98 Co 0.81557 0.88028 0.06654 0.0
O99 O 0.7904 0.86389 0.06081 0.0
O100 O 0.81064 0.83602 0.02619 0.0
C101 C 0.81363 0.99079 0.08843 0.0
O102 O 0.84264 0.88443 0.06333 0.0
Co103 Co 0.83248 0.90782 0.13271 0.0
O104 O 0.85497 0.91489 0.10946 0.0
C105 C 0.81704 0.76929 0.11535 0.0
C106 C 0.7942 0.83295 0.03438 0.0
C107 C 0.85618 0.89794 0.08064 0.0
O108 O 0.81747 0.78535 0.0862 0.0
O109 O 0.82032 0.8138 0.13732 0.0
O110 O 0.81316 0.98406 0.05796 0.0
O111 O 0.81424 0.93217 0.10348 0.0
Co112 Co 0.07113 0.60854 0.8205 0.0
O113 O 0.0458 0.62205 0.81676 0.0
O114 O 0.06481 0.65155 0.78027 0.0
C115 C 0.07051 0.49805 0.84277 0.0
O116 O 0.09823 0.60615 0.81576 0.0
Co117 Co 0.08865 0.59 0.88654 0.0
O118 O 0.11092 0.5852 0.86271 0.0
C119 C 0.07134 0.72226 0.86805 0.0
C120 C 0.04858 0.65287 0.78995 0.0
C121 C 0.11191 0.59713 0.8334 0.0
O122 O 0.07284 0.7048 0.83919 0.0
O123 O 0.07486 0.67993 0.89065 0.0
O124 O 0.06891 0.50453 0.81245 0.0
O125 O 0.07095 0.55696 0.85779 0.0
Co126 Co 0.22527 0.63378 0.81757 0.0
O127 O 0.25025 0.61702 0.81061 0.0
O128 O 0.22946 0.59055 0.77675 0.0
C129 C 0.22754 0.74329 0.83967 0.0
O130 O 0.19819 0.63968 0.81575 0.0
Co131 Co 0.20968 0.65813 0.88484 0.0
O132 O 0.18704 0.6723 0.86253 0.0
C133 C 0.22388 0.51923 0.86527 0.0
C134 C 0.246 0.58659 0.7843 0.0
C135 C 0.18513 0.65607 0.83373 0.0
O136 O 0.2235 0.53811 0.83646 0.0
O137 O 0.22071 0.56153 0.8881 0.0
O138 O 0.2275 0.73719 0.80918 0.0
O139 O 0.2274 0.68457 0.85478 0.0
Co140 Co 0.06735 0.62666 0.4427 0.0
O141 O 0.04248 0.60262 0.44665 0.0
O142 O 0.06214 0.58474 0.48349 0.0
C143 C 0.06348 0.73404 0.41893 0.0
O144 O 0.09417 0.64012 0.44773 0.0
Co145 Co 0.08541 0.65545 0.37751 0.0
O146 O 0.10669 0.67617 0.40256 0.0
C147 C 0.0749 0.51056 0.39734 0.0
C148 C 0.04603 0.57604 0.47404 0.0
C149 C 0.10771 0.65923 0.43139 0.0
O150 O 0.07187 0.53101 0.42542 0.0
O151 O 0.07855 0.55273 0.37466 0.0
O152 O 0.06248 0.72922 0.4494 0.0
O153 O 0.06584 0.67496 0.40468 0.0
Co154 Co 0.22098 0.60417 0.44042 0.0
O155 O 0.24626 0.61956 0.44331 0.0
O156 O 0.22761 0.64418 0.48106 0.0
C157 C 0.22253 0.49654 0.41548 0.0
O158 O 0.19398 0.59985 0.44636 0.0
Co159 Co 0.202 0.5852 0.37545 0.0
O160 O 0.18026 0.57704 0.40056 0.0
C161 C 0.21957 0.71856 0.39423 0.0
C162 C 0.24367 0.648 0.47067 0.0
C163 C 0.17992 0.58976 0.42986 0.0
O164 O 0.21861 0.70111 0.42315 0.0
O165 O 0.2157 0.67601 0.37181 0.0
O166 O 0.22382 0.49927 0.446 0.0
O167 O 0.22106 0.55704 0.40225 0.0
Co168 Co 0.97422 0.37965 0.19239 0.0
O169 O 0.99923 0.35907 0.19557 0.0
O170 O 0.98015 0.33719 0.23296 0.0
C171 C 0.97724 0.48803 0.16905 0.0
O172 O 0.94728 0.38957 0.19765 0.0
Co173 Co 0.95605 0.40774 0.12707 0.0
O174 O 0.93462 0.42432 0.15236 0.0
C175 C 0.96694 0.26351 0.14684 0.0
C176 C 0.99625 0.33129 0.22291 0.0
C177 C 0.93365 0.40676 0.18113 0.0
O178 O 0.97021 0.28388 0.17484 0.0
O179 O 0.96312 0.30539 0.12418 0.0
O180 O 0.97839 0.48271 0.19949 0.0
O181 O 0.97528 0.42897 0.15463 0.0
Co182 Co 0.82026 0.35699 0.18953 0.0
O183 O 0.79507 0.37467 0.19397 0.0
O184 O 0.81457 0.39473 0.23088 0.0
C185 C 0.81775 0.25078 0.16381 0.0
O186 O 0.84728 0.34971 0.19439 0.0
Co187 Co 0.83848 0.33998 0.12391 0.0
O188 O 0.86047 0.32778 0.14805 0.0
C189 C 0.82215 0.47426 0.14456 0.0
C190 C 0.79836 0.40066 0.22159 0.0
C191 C 0.86114 0.33886 0.17746 0.0
O192 O 0.82299 0.45474 0.17325 0.0
O193 O 0.8258 0.43336 0.12147 0.0
O194 O 0.81687 0.25253 0.19439 0.0
O195 O 0.81938 0.31164 0.15081 0.0
Co196 Co 0.97128 0.35501 0.57129 0.0
O197 O 0.99649 0.37128 0.56797 0.0
O198 O 0.97766 0.39263 0.53012 0.0
C199 C 0.97309 0.24876 0.59709 0.0
O200 O 0.9443 0.34874 0.5656 0.0
Co201 Co 0.95251 0.33961 0.63655 0.0
O202 O 0.9308 0.32688 0.61169 0.0
C203 C 0.96928 0.47305 0.61599 0.0
C204 C 0.99375 0.39763 0.54026 0.0
C205 C 0.93034 0.33788 0.58227 0.0
O206 O 0.96867 0.45301 0.58735 0.0
O207 O 0.96537 0.43265 0.63913 0.0
O208 O 0.97436 0.25041 0.56656 0.0
O209 O 0.97158 0.30975 0.61001 0.0
Co210 Co 0.81737 0.38206 0.56651 0.0
O211 O 0.79227 0.36407 0.56261 0.0
O212 O 0.8117 0.33657 0.52651 0.0
C213 C 0.81506 0.49237 0.58834 0.0
O214 O 0.84439 0.38865 0.56204 0.0
Co215 Co 0.83497 0.41169 0.6321 0.0
O216 O 0.85687 0.42314 0.60755 0.0
C217 C 0.82001 0.27183 0.61536 0.0
C218 C 0.79547 0.3329 0.53604 0.0
C219 C 0.85796 0.40503 0.57884 0.0
O220 O 0.82009 0.28763 0.58619 0.0
O221 O 0.82343 0.31651 0.6372 0.0
O222 O 0.81418 0.48549 0.55791 0.0
O223 O 0.81635 0.43395 0.60337 0.0
Co224 Co 0.56851 0.10358 0.81614 0.0
O225 O 0.54338 0.12244 0.81343 0.0
O226 O 0.56216 0.14478 0.7756 0.0
C227 C 0.56579 -0.00396 0.84076 0.0
O228 O 0.59543 0.09581 0.81 0.0
Co229 Co 0.58765 0.07879 0.88066 0.0
O230 O 0.6091 0.06638 0.85506 0.0
C231 C 0.57229 0.2175 0.86264 0.0
C232 C 0.54614 0.15035 0.78602 0.0
C233 C 0.60946 0.08176 0.82601 0.0
O234 O 0.5719 0.19985 0.83368 0.0
O235 O 0.57611 0.17417 0.88479 0.0
O236 O 0.56465 -0.00071 0.81024 0.0
O237 O 0.56803 0.05595 0.85419 0.0
Co238 Co 0.7219 0.12844 0.8162 0.0
O239 O 0.74687 0.10484 0.81313 0.0
O240 O 0.72757 0.08526 0.77587 0.0
C241 C 0.726 0.23621 0.8398 0.0
O242 O 0.69509 0.14041 0.81004 0.0
Co243 Co 0.70256 0.1638 0.87959 0.0
O244 O 0.68161 0.18145 0.85339 0.0
C245 C 0.71407 0.01701 0.86315 0.0
C246 C 0.74362 0.07749 0.78575 0.0
C247 C 0.68117 0.16049 0.82505 0.0
O248 O 0.71728 0.03357 0.83455 0.0
O249 O 0.7099 0.06221 0.88432 0.0
O250 O 0.72688 0.23151 0.8093 0.0
O251 O 0.72298 0.17764 0.85388 0.0
Co252 Co 0.56879 0.12302 0.4375 0.0
O253 O 0.54368 0.10394 0.44008 0.0
O254 O 0.56222 0.08591 0.4787 0.0
C255 C 0.56636 0.22826 0.41113 0.0
O256 O 0.59567 0.13198 0.44385 0.0
Co257 Co 0.58817 0.1408 0.37277 0.0
O258 O 0.6094 0.1576 0.39836 0.0
C259 C 0.57429 0.00239 0.39436 0.0
C260 C 0.54627 0.07893 0.46807 0.0
C261 C 0.60971 0.14487 0.42765 0.0
O262 O 0.57246 0.02503 0.42242 0.0
O263 O 0.57829 0.04203 0.37101 0.0
O264 O 0.56487 0.22714 0.44162 0.0
O265 O 0.56849 0.16729 0.39848 0.0
Co266 Co 0.72234 0.09558 0.44187 0.0
O267 O 0.74741 0.11564 0.44653 0.0
O268 O 0.72742 0.14025 0.48208 0.0
C269 C 0.72522 0.98584 0.41966 0.0
O270 O 0.69535 0.08744 0.44612 0.0
Co271 Co 0.7048 0.06585 0.37638 0.0
O272 O 0.68276 0.05439 0.40056 0.0
C273 C 0.71943 0.20623 0.39339 0.0
C274 C 0.74371 0.14581 0.47316 0.0
C275 C 0.68173 0.07156 0.42938 0.0
O276 O 0.71933 0.19018 0.42253 0.0
O277 O 0.7161 0.16163 0.37147 0.0
O278 O 0.72592 0.99232 0.45012 0.0
O279 O 0.7237 0.04439 0.40475 0.0
Co280 Co 0.47297 0.88366 0.19123 0.0
O281 O 0.49813 0.86517 0.19403 0.0
O282 O 0.47913 0.83763 0.23084 0.0
C283 C 0.47539 -0.00574 0.16961 0.0
O284 O 0.44601 0.88982 0.19711 0.0
Co285 Co 0.4539 0.91796 0.12741 0.0
O286 O 0.43252 0.92876 0.15334 0.0
C287 C 0.46774 0.77444 0.14216 0.0
C288 C 0.49525 0.83407 0.22074 0.0
C289 C 0.43205 0.90743 0.18165 0.0
O290 O 0.46972 0.78978 0.17122 0.0
O291 O 0.46355 0.82 0.12117 0.0
O292 O 0.47653 0.98696 0.19998 0.0
O293 O 0.47352 0.93624 0.15449 0.0
Co294 Co 0.31961 0.85293 0.18976 0.0
O295 O 0.2946 0.87524 0.19335 0.0
O296 O 0.314 0.89402 0.23053 0.0
C297 C 0.31599 0.74605 0.16489 0.0
O298 O 0.34647 0.84194 0.19542 0.0
Co299 Co 0.33841 0.82701 0.12511 0.0
O300 O 0.35991 0.81194 0.15024 0.0
C301 C 0.32402 0.96711 0.14363 0.0
C302 C 0.29794 0.90227 0.22076 0.0
C303 C 0.3604 0.82686 0.17932 0.0
O304 O 0.32363 0.94902 0.17253 0.0
O305 O 0.32758 0.92388 0.1213 0.0
O306 O 0.31501 0.74917 0.19544 0.0
O307 O 0.31857 0.80585 0.15151 0.0
Co308 Co 0.47216 0.85718 0.56707 0.0
O309 O 0.49721 0.87688 0.5623 0.0
O310 O 0.47746 0.89596 0.52571 0.0
C311 C 0.47531 0.75098 0.59237 0.0
O312 O 0.44516 0.84779 0.56284 0.0
Co313 Co 0.45444 0.8361 0.63312 0.0
O314 O 0.43252 0.82064 0.60913 0.0
C315 C 0.46886 0.97423 0.61233 0.0
C316 C 0.4937 0.90286 0.53478 0.0
C317 C 0.43152 0.83397 0.57993 0.0
O318 O 0.46894 0.95442 0.58363 0.0
O319 O 0.46552 0.93279 0.63539 0.0
O320 O 0.47596 0.75307 0.56179 0.0
O321 O 0.47349 0.81146 0.60556 0.0
Co322 Co 0.31819 0.87885 0.56475 0.0
O323 O 0.29307 0.86052 0.55992 0.0
O324 O 0.31299 0.83421 0.5245 0.0
C325 C 0.31571 0.98883 0.58684 0.0
O326 O 0.34526 0.88554 0.56099 0.0
Co327 Co 0.33528 0.9069 0.63081 0.0
O328 O 0.35756 0.91643 0.60715 0.0
C329 C 0.31999 0.76827 0.61331 0.0
C330 C 0.29665 0.82991 0.53335 0.0
C331 C 0.35878 0.90011 0.57827 0.0
O332 O 0.32072 0.78416 0.58419 0.0
O333 O 0.32316 0.81273 0.63535 0.0
O334 O 0.31506 0.9823 0.55637 0.0
O335 O 0.31686 0.9302 0.60178 0.0
Co336 Co 0.56902 0.59857 0.31474 0.0
O337 O 0.54403 0.6202 0.31034 0.0
O338 O 0.56403 0.64565 0.27494 0.0
C339 C 0.56542 0.48812 0.33581 0.0
O340 O 0.59601 0.58896 0.31043 0.0
Co341 Co 0.58657 0.56152 0.37958 0.0
O342 O 0.60841 0.54878 0.35501 0.0
C343 C 0.5734 0.70568 0.36471 0.0
C344 C 0.54774 0.65105 0.28387 0.0
C345 C 0.60954 0.5695 0.32667 0.0
O346 O 0.57251 0.69168 0.33534 0.0
O347 O 0.57653 0.65889 0.38577 0.0
O348 O 0.56494 0.49593 0.3054 0.0
O349 O 0.56737 0.54565 0.35125 0.0
Co350 Co 0.72287 0.61936 0.3186 0.0
O351 O 0.74802 0.60175 0.31559 0.0
O352 O 0.72928 0.5806 0.27757 0.0
C353 C 0.72517 0.72588 0.34409 0.0
O354 O 0.69591 0.62675 0.31286 0.0
Co355 Co 0.70406 0.63867 0.38383 0.0
O356 O 0.68251 0.65262 0.35864 0.0
C357 C 0.71937 0.50189 0.36361 0.0
C358 C 0.74533 0.57517 0.28791 0.0
C359 C 0.68198 0.63947 0.32938 0.0
O360 O 0.71972 0.52189 0.33495 0.0
O361 O 0.71557 0.54293 0.38658 0.0
O362 O 0.72639 0.7238 0.31356 0.0
O363 O 0.72332 0.66525 0.35713 0.0
Co364 Co 0.56598 0.62768 0.94012 0.0
O365 O 0.54075 0.61114 0.94341 0.0
O366 O 0.55968 0.58564 0.98055 0.0
C367 C 0.56423 0.73677 0.91682 0.0
O368 O 0.59298 0.63303 0.94555 0.0
Co369 Co 0.5845 0.65167 0.8749 0.0
O370 O 0.60626 0.66194 0.9 0.0
C371 C 0.56947 0.51301 0.89323 0.0
C372 C 0.54354 0.58208 0.97058 0.0
C373 C 0.60688 0.6463 0.92902 0.0
O374 O 0.56869 0.5316 0.92205 0.0
O375 O 0.57338 0.55534 0.87076 0.0
O376 O 0.56298 0.73155 0.94727 0.0
O377 O 0.56556 0.6774 0.90244 0.0
Co378 Co 0.71973 0.60328 0.93904 0.0
O379 O 0.74471 0.6255 0.94159 0.0
O380 O 0.72586 0.64589 0.97949 0.0
C381 C 0.72314 0.49542 0.91533 0.0
O382 O 0.69288 0.59172 0.94526 0.0
Co383 Co 0.70076 0.5747 0.87468 0.0
O384 O 0.67967 0.55642 0.90059 0.0
C385 C 0.71231 0.71903 0.89354 0.0
C386 C 0.74185 0.65288 0.96907 0.0
C387 C 0.67906 0.57371 0.92941 0.0
O388 O 0.71537 0.6988 0.92163 0.0
O389 O 0.70824 0.67671 0.87115 0.0
O390 O 0.72443 0.50054 0.94576 0.0
O391 O 0.72059 0.55437 0.90109 0.0
Co392 Co 0.47252 0.38153 0.69016 0.0
O393 O 0.49757 0.36182 0.69502 0.0
O394 O 0.47754 0.33727 0.73052 0.0
C395 C 0.47548 0.49115 0.66789 0.0
O396 O 0.44551 0.38955 0.69409 0.0
Co397 Co 0.45522 0.41103 0.6244 0.0
O398 O 0.43315 0.42289 0.64838 0.0
C399 C 0.46942 0.27028 0.64182 0.0
C400 C 0.49386 0.33208 0.72173 0.0
C401 C 0.43198 0.40546 0.67714 0.0
O402 O 0.46951 0.28676 0.67092 0.0
O403 O 0.46614 0.31464 0.6198 0.0
O404 O 0.4761 0.48482 0.69836 0.0
O405 O 0.474 0.43253 0.653 0.0
Co406 Co 0.31877 0.35558 0.6874 0.0
O407 O 0.29368 0.37353 0.69126 0.0
O408 O 0.31292 0.39488 0.72849 0.0
C409 C 0.31627 0.24899 0.66215 0.0
O410 O 0.34574 0.34802 0.69227 0.0
Co411 Co 0.33678 0.33693 0.62148 0.0
O412 O 0.35869 0.32434 0.64583 0.0
C413 C 0.32122 0.47262 0.64216 0.0
C414 C 0.29679 0.4008 0.71868 0.0
C415 C 0.35949 0.33629 0.67517 0.0
O416 O 0.3217 0.45283 0.67083 0.0
O417 O 0.32469 0.43158 0.61903 0.0
O418 O 0.31532 0.2512 0.69271 0.0
O419 O 0.31791 0.30958 0.64897 0.0
Co420 Co 0.46886 0.35871 0.06805 0.0
O421 O 0.49386 0.38036 0.064 0.0
O422 O 0.47447 0.3969 0.02663 0.0
C423 C 0.47245 0.25359 0.09402 0.0
O424 O 0.44189 0.34714 0.06311 0.0
Co425 Co 0.45061 0.3378 0.13362 0.0
O426 O 0.429 0.3198 0.10918 0.0
C427 C 0.46388 0.4776 0.11207 0.0
C428 C 0.49057 0.40537 0.03624 0.0
C429 C 0.42817 0.33264 0.07993 0.0
O430 O 0.46496 0.45599 0.08374 0.0
O431 O 0.4604 0.43679 0.13531 0.0
O432 O 0.47331 0.25501 0.06345 0.0
O433 O 0.47011 0.31416 0.1069 0.0
Co434 Co 0.31478 0.37696 0.06617 0.0
O435 O 0.28963 0.35842 0.06141 0.0
O436 O 0.30943 0.33446 0.02549 0.0
C437 C 0.31234 0.4862 0.08923 0.0
O438 O 0.34183 0.38415 0.06205 0.0
Co439 Co 0.33226 0.4031 0.13212 0.0
O440 O 0.35435 0.41472 0.10803 0.0
C441 C 0.31859 0.26244 0.11329 0.0
C442 C 0.29311 0.32963 0.03441 0.0
C443 C 0.35545 0.39866 0.0791 0.0
O444 O 0.31766 0.28107 0.08447 0.0
O445 O 0.32207 0.30512 0.13583 0.0
O446 O 0.31154 0.48066 0.05875 0.0
O447 O 0.31356 0.427 0.10377 0.0
C448 C 0.13372 0.15201 0.31557 0.0
C449 C 0.12829 0.08047 0.31886 0.0
C450 C 0.15167 0.17099 0.31614 0.0
C451 C 0.16488 0.11893 0.31893 0.0
H452 H 0.12402 0.19424 0.31576 0.0
H453 H 0.15517 0.22696 0.31664 0.0
S454 S 0.15773 0.92392 0.32508 0.0
N455 N 0.13769 0.95741 0.32311 0.0
N456 N 0.17128 0.99255 0.32256 0.0
C457 C 0.15964 0.04698 0.31951 0.0
C458 C 0.1414 0.02786 0.31986 0.0
C459 C 0.15239 0.18157 0.93776 0.0
C460 C 0.15859 0.1109 0.9393 0.0
C461 C 0.13427 0.19683 0.93707 0.0
C462 C 0.12164 0.14212 0.93868 0.0
H463 H 0.16158 0.22487 0.93399 0.0
H464 H 0.13013 0.25128 0.93298 0.0
S465 S 0.13097 0.94879 0.94537 0.0
N466 N 0.15062 0.98622 0.94394 0.0
N467 N 0.11665 0.01489 0.94407 0.0
C468 C 0.12768 0.07184 0.94282 0.0
C469 C 0.14612 0.0562 0.94274 0.0
C470 C 0.90881 0.8138 0.69116 0.0
C471 C 0.91492 0.88476 0.69123 0.0
C472 C 0.89069 0.79793 0.69029 0.0
C473 C 0.87797 0.85237 0.6904 0.0
H474 H 0.91809 0.7704 0.6887 0.0
H475 H 0.88665 0.74301 0.68715 0.0
S476 S 0.88705 0.0465 0.69307 0.0
N477 N 0.90675 0.00955 0.69296 0.0
N478 N 0.87283 0.97988 0.69282 0.0
C479 C 0.88392 0.92319 0.69308 0.0
C480 C 0.90235 0.93937 0.69309 0.0
C481 C 0.89702 0.78705 0.07044 0.0
C482 C 0.91046 0.83858 0.06926 0.0
C483 C 0.87917 0.80686 0.07005 0.0
C484 C 0.87407 0.87905 0.06946 0.0
H485 H 0.90033 0.73148 0.07397 0.0
H486 H 0.86932 0.76571 0.07323 0.0
S487 S 0.90405 0.0343 0.06477 0.0
N488 N 0.91733 0.9647 0.06517 0.0
N489 N 0.88387 0.00174 0.06607 0.0
C490 C 0.88732 0.93073 0.06654 0.0
C491 C 0.90548 0.9105 0.06597 0.0
C492 C 0.14238 0.55915 0.81876 0.0
C493 C 0.12982 0.61376 0.82162 0.0
C494 C 0.16055 0.57441 0.81889 0.0
C495 C 0.16679 0.6446 0.82286 0.0
H496 H 0.13819 0.50395 0.81879 0.0
H497 H 0.16973 0.53033 0.81883 0.0
S498 S 0.13933 0.80678 0.82954 0.0
N499 N 0.12496 0.74113 0.82619 0.0
N500 N 0.15894 0.76929 0.82779 0.0
C501 C 0.15436 0.69982 0.82397 0.0
C502 C 0.13593 0.6845 0.823 0.0
C503 C 0.13133 0.57432 0.44675 0.0
C504 C 0.12575 0.64557 0.4433 0.0
C505 C 0.14931 0.55609 0.44593 0.0
C506 C 0.16238 0.60867 0.4427 0.0
H507 H 0.12171 0.53169 0.44677 0.0
H508 H 0.15291 0.50026 0.44535 0.0
S509 S 0.1548 0.8033 0.43622 0.0
N510 N 0.13484 0.76897 0.43864 0.0
N511 N 0.16851 0.7353 0.43871 0.0
C512 C 0.157 0.68041 0.44215 0.0
C513 C 0.13873 0.69875 0.44205 0.0
C514 C 0.90261 0.44306 0.19253 0.0
C515 C 0.91564 0.38991 0.19256 0.0
C516 C 0.88459 0.42538 0.1919 0.0
C517 C 0.87893 0.3539 0.19031 0.0
H518 H 0.90637 0.49859 0.19057 0.0
H519 H 0.87511 0.46808 0.18953 0.0
S520 S 0.90771 0.19484 0.19128 0.0
N521 N 0.9215 0.26276 0.1932 0.0
N522 N 0.8878 0.22988 0.19045 0.0
C523 C 0.89177 0.30038 0.19214 0.0
C524 C 0.91007 0.31833 0.1937 0.0
C525 C 0.90699 0.42462 0.56833 0.0
C526 C 0.91266 0.35317 0.56918 0.0
C527 C 0.88898 0.44206 0.56794 0.0
C528 C 0.87598 0.38871 0.56745 0.0
H529 H 0.91646 0.46732 0.57116 0.0
H530 H 0.88521 0.49743 0.57045 0.0
S531 S 0.88395 0.19379 0.56646 0.0
N532 N 0.90385 0.22905 0.56765 0.0
N533 N 0.87012 0.26158 0.56537 0.0
C534 C 0.88154 0.3173 0.56548 0.0
C535 C 0.89985 0.29956 0.56677 0.0
C536 C 0.64993 0.19274 0.81292 0.0
C537 C 0.66344 0.1416 0.81289 0.0
C538 C 0.63209 0.17233 0.8126 0.0
C539 C 0.62708 0.09998 0.81328 0.0
H540 H 0.65314 0.24867 0.81563 0.0
H541 H 0.6222 0.21343 0.81513 0.0
S542 S 0.65731 0.94545 0.81148 0.0
N543 N 0.67049 0.01548 0.81087 0.0
N544 N 0.63709 0.97744 0.81201 0.0
C545 C 0.64043 0.04856 0.81128 0.0
C546 C 0.65857 0.06932 0.81061 0.0
C547 C 0.65853 0.16072 0.44147 0.0
C548 C 0.66381 0.08873 0.44098 0.0
C549 C 0.64062 0.17983 0.44077 0.0
C550 C 0.62732 0.12768 0.44061 0.0
H551 H 0.66828 0.20251 0.43918 0.0
H552 H 0.6372 0.23548 0.43787 0.0
S553 S 0.63416 0.93204 0.44239 0.0
N554 N 0.65427 0.96545 0.44223 0.0
N555 N 0.62072 0.00113 0.44259 0.0
C556 C 0.63245 0.05579 0.443 0.0
C557 C 0.65066 0.03633 0.44273 0.0
C558 C 0.38299 0.91603 0.19485 0.0
C559 C 0.3781 0.84379 0.19206 0.0
C560 C 0.40079 0.93698 0.19495 0.0
C561 C 0.41439 0.88632 0.19337 0.0
H562 H 0.37302 0.95713 0.19368 0.0
H563 H 0.40391 -0.00672 0.19386 0.0
S564 S 0.40862 0.69025 0.18911 0.0
N565 N 0.38834 0.72162 0.18968 0.0
N566 N 0.42167 0.76045 0.19161 0.0
C567 C 0.40964 0.81374 0.19352 0.0
C568 C 0.39155 0.79258 0.1924 0.0
C569 C 0.38256 0.81219 0.5682 0.0
C570 C 0.37681 0.88352 0.56701 0.0
C571 C 0.40059 0.7951 0.56908 0.0
C572 C 0.41356 0.84856 0.56785 0.0
H573 H 0.37309 0.7697 0.57152 0.0
H574 H 0.40438 0.74018 0.57302 0.0
S575 S 0.40542 0.04295 0.56198 0.0
N576 N 0.38554 0.00747 0.56305 0.0
N577 N 0.41932 0.97539 0.56313 0.0
C578 C 0.40795 0.91953 0.56404 0.0
C579 C 0.38961 0.93704 0.56404 0.0
C580 C 0.65113 0.6761 0.31662 0.0
C581 C 0.66424 0.62327 0.31663 0.0
C582 C 0.63314 0.65798 0.31552 0.0
C583 C 0.62759 0.58627 0.31545 0.0
H584 H 0.65474 0.73149 0.31983 0.0
H585 H 0.62354 0.70021 0.31792 0.0
S586 S 0.65666 0.42811 0.3136 0.0
N587 N 0.67037 0.49648 0.31404 0.0
N588 N 0.63669 0.46257 0.31364 0.0
C589 C 0.64056 0.53326 0.31364 0.0
C590 C 0.65885 0.55175 0.31379 0.0
C591 C 0.65582 0.66154 0.94317 0.0
C592 C 0.66119 0.58969 0.94172 0.0
C593 C 0.63788 0.68042 0.94243 0.0
C594 C 0.62462 0.62813 0.94129 0.0
H595 H 0.66553 0.70365 0.94157 0.0
H596 H 0.63442 0.73622 0.94037 0.0
S597 S 0.63166 0.43261 0.94028 0.0
N598 N 0.65173 0.4663 0.94096 0.0
N599 N 0.61815 0.50145 0.94128 0.0
C600 C 0.62982 0.55621 0.94268 0.0
C601 C 0.64806 0.53705 0.94246 0.0
C602 C 0.38292 0.42366 0.68829 0.0
C603 C 0.37732 0.35205 0.68755 0.0
C604 C 0.40091 0.44162 0.68827 0.0
C605 C 0.41397 0.38862 0.68847 0.0
H606 H 0.37337 0.4661 0.68577 0.0
H607 H 0.40461 0.4971 0.68577 0.0
S608 S 0.40623 0.19345 0.6894 0.0
N609 N 0.38628 0.22816 0.68869 0.0
N610 N 0.41998 0.26163 0.69025 0.0
C611 C 0.4085 0.31703 0.69043 0.0
C612 C 0.39021 0.29877 0.68954 0.0
C613 C 0.3864 0.43544 0.06663 0.0
C614 C 0.37343 0.38194 0.06754 0.0
C615 C 0.40444 0.41822 0.06619 0.0
C616 C 0.41022 0.3469 0.06766 0.0
H617 H 0.38261 0.49091 0.06855 0.0
H618 H 0.41391 0.46122 0.06789 0.0
S619 S 0.38158 0.18713 0.06887 0.0
N620 N 0.36768 0.25467 0.06762 0.0
N621 N 0.40146 0.22267 0.06844 0.0
C622 C 0.39739 0.29304 0.06682 0.0
C623 C 0.37905 0.3105 0.06634 0.0
C624 C 1.01828 0.20868 0.28356 0.0
C625 C 0.03534 0.19758 0.27146 0.0
C626 C 1.00593 0.25277 0.26821 0.0
C627 C 1.01 0.28838 0.24 0.0
H628 H 1.01439 0.18322 0.30524 0.0
H629 H 0.993 0.2585 0.27851 0.0
S630 S 0.05286 0.27832 0.19832 0.0
N631 N 0.05557 0.22691 0.2293 0.0
N632 N 0.03261 0.30916 0.20073 0.0
C633 C 0.02705 0.27797 0.2277 0.0
C634 C 0.0396 0.2329 0.24328 0.0
C635 C 0.25525 0.0022 0.24094 0.0
C636 C 0.25948 0.04119 0.2682 0.0
C637 C 0.26757 0.95688 0.22618 0.0
C638 C 0.28474 0.94766 0.23803 0.0
H639 H 0.24221 0.00606 0.23097 0.0
H640 H 0.26355 0.9288 0.20521 0.0
S641 S 0.3028 0.03842 0.30843 0.0
N642 N 0.28243 0.06794 0.30605 0.0
N643 N 0.30533 0.98328 0.27864 0.0
C644 C 0.28919 0.9867 0.26516 0.0
C645 C 0.27668 0.03315 0.28008 0.0
C646 C 0.03212 0.0108 0.01881 0.0
C647 C 0.02775 0.04761 0.99107 0.0
C648 C 1.01999 0.96533 0.03401 0.0
C649 C 1.0029 0.95389 0.02214 0.0
H650 H 0.04512 0.01656 0.02883 0.0
H651 H 0.0241 0.93894 0.05534 0.0
S652 S 0.98466 0.03743 0.95025 0.0
N653 N 1.00484 0.06928 0.95253 0.0
N654 N 0.9823 0.9843 0.98077 0.0
C655 C 0.99835 0.99048 0.99445 0.0
C656 C 1.01065 0.03706 0.97908 0.0
C657 C 0.25009 0.23162 0.01421 0.0
C658 C 0.25395 0.19487 0.98619 0.0
C659 C 0.2626 0.27596 0.0291 0.0
C660 C 0.27963 0.28622 0.01673 0.0
H661 H 0.23721 0.22657 0.02476 0.0
H662 H 0.25886 0.30205 0.05073 0.0
S663 S 0.29652 0.20362 0.94353 0.0
N664 N 0.27624 0.17304 0.94651 0.0
N665 N 0.29952 0.25562 0.97426 0.0
C666 C 0.28364 0.25011 0.98862 0.0
C667 C 0.27092 0.20482 0.97349 0.0
C668 C 0.02594 0.78011 0.73188 0.0
C669 C 1.00864 0.78669 0.74351 0.0
C670 C 0.03853 0.7358 0.74646 0.0
C671 C 0.03451 0.69539 0.77342 0.0
H672 H 0.02983 0.80926 0.71111 0.0
H673 H 0.05163 0.7338 0.73658 0.0
S674 S 0.99111 0.69248 0.81347 0.0
N675 N 0.98824 0.74787 0.78388 0.0
N676 N 1.01169 0.66535 0.81108 0.0
C677 C 1.01724 0.70131 0.78527 0.0
C678 C 1.00442 0.74657 0.77045 0.0
C679 C 0.774 0.02259 0.78087 0.0
C680 C 0.75705 0.03367 0.76829 0.0
C681 C 0.78654 0.97891 0.76573 0.0
C682 C 0.78278 0.94373 0.73729 0.0
H683 H 0.77765 0.0478 0.80274 0.0
H684 H 0.79938 0.97329 0.77636 0.0
S685 S 0.74031 0.95378 0.69441 0.0
N686 N 0.73726 0.00465 0.72547 0.0
N687 N 0.76057 0.92319 0.69732 0.0
C688 C 0.76584 0.95402 0.72455 0.0
C689 C 0.7531 -0.00135 0.7399 0.0
C690 C 0.75126 0.73569 0.01308 0.0
C691 C 0.75558 0.69654 0.98591 0.0
C692 C 0.76361 0.78056 0.02808 0.0
C693 C 0.78092 0.78881 0.01666 0.0
H694 H 0.73815 0.73221 0.02281 0.0
H695 H 0.75954 0.8087 0.049 0.0
S696 S 0.79915 0.69775 0.94648 0.0
N697 N 0.77867 0.6691 0.94844 0.0
N698 N 0.80165 0.75263 0.97637 0.0
C699 C 0.78541 0.74983 0.98954 0.0
C700 C 0.77286 0.70409 0.9743 0.0
C701 C 0.27601 0.52992 0.77796 0.0
C702 C 0.25886 0.54115 0.76635 0.0
C703 C 0.28793 0.48328 0.76301 0.0
C704 C 0.28333 0.44528 0.73569 0.0
H705 H 0.28029 0.55697 0.79903 0.0
H706 H 0.30095 0.47759 0.7729 0.0
S707 S 0.24006 0.4549 0.6955 0.0
N708 N 0.23797 0.50947 0.7256 0.0
N709 N 0.26018 0.42261 0.6977 0.0
C710 C 0.26621 0.45591 0.72384 0.0
C711 C 0.25408 0.50347 0.73905 0.0
C712 C 1.01589 0.51957 0.47952 0.0
C713 C 0.03286 0.5315 0.49181 0.0
C714 C 1.00359 0.47503 0.49478 0.0
C715 C 1.00762 0.43979 0.52307 0.0
H716 H 1.01202 0.54477 0.45778 0.0
H717 H 0.9907 0.46884 0.48436 0.0
S718 S 0.05029 0.45166 0.56515 0.0
N719 N 0.05302 0.50305 0.53414 0.0
N720 N 0.0301 0.42001 0.56258 0.0
C721 C 0.02459 0.45085 0.53553 0.0
C722 C 0.03711 0.49637 0.52003 0.0
C723 C 0.25366 0.73094 0.51417 0.0
C724 C 0.25767 0.69128 0.487 0.0
C725 C 0.26613 0.7764 0.52846 0.0
C726 C 0.28327 0.78488 0.5163 0.0
H727 H 0.24067 0.72754 0.52442 0.0
H728 H 0.26227 0.80494 0.54941 0.0
S729 S 0.30071 0.69295 0.44573 0.0
N730 N 0.28031 0.66375 0.44866 0.0
N731 N 0.30353 0.74842 0.47532 0.0
C732 C 0.28748 0.74539 0.48919 0.0
C733 C 0.27479 0.69899 0.47467 0.0
C734 C 0.76798 0.45522 0.22691 0.0
C735 C 0.78485 0.44301 0.23959 0.0
C736 C 0.7555 0.49892 0.24219 0.0
C737 C 0.75926 0.533 0.27089 0.0
H738 H 0.76436 0.43122 0.20476 0.0
H739 H 0.74274 0.50563 0.2314 0.0
S740 S 0.80145 0.51893 0.31437 0.0
N741 N 0.80451 0.4692 0.28295 0.0
N742 N 0.78131 0.55068 0.31139 0.0
C743 C 0.77609 0.52126 0.28383 0.0
C744 C 0.78876 0.4766 0.26833 0.0
C745 C 0.78629 0.24703 0.49302 0.0
C746 C 0.78185 0.28777 0.51967 0.0
C747 C 0.7741 0.20046 0.47865 0.0
C748 C 0.75685 0.19184 0.49027 0.0
H749 H 0.79939 0.25061 0.48322 0.0
H750 H 0.77826 0.17118 0.45809 0.0
S751 S 0.73836 0.28617 0.55938 0.0
N752 N 0.75871 0.31608 0.55693 0.0
N753 N 0.73603 0.22922 0.53021 0.0
C754 C 0.75224 0.23227 0.5169 0.0
C755 C 0.76462 0.27987 0.53146 0.0
C756 C 0.52416 0.27697 0.72699 0.0
C757 C 0.50709 0.2873 0.73918 0.0
C758 C 0.53646 0.23166 0.74174 0.0
C759 C 0.53235 0.19406 0.76943 0.0
H760 H 0.52808 0.30384 0.70566 0.0
H761 H 0.5494 0.22664 0.73141 0.0
S762 S 0.48948 0.20151 0.81113 0.0
N763 N 0.48682 0.2551 0.78085 0.0
N764 N 0.50973 0.17072 0.80836 0.0
C765 C 0.51531 0.20376 0.78184 0.0
C766 C 0.5028 0.24999 0.76684 0.0
C767 C 0.52396 0.95815 0.52908 0.0
C768 C 0.50703 0.94588 0.51667 0.0
C769 C 0.53633 0.00223 0.51373 0.0
C770 C 0.53241 0.03659 0.48518 0.0
H771 H 0.52772 0.93383 0.55108 0.0
H772 H 0.54915 0.0089 0.5243 0.0
S773 S 0.48996 0.02284 0.44247 0.0
N774 N 0.48709 0.97255 0.47379 0.0
N775 N 0.51012 0.05473 0.44515 0.0
C776 C 0.51551 0.02487 0.4725 0.0
C777 C 0.50293 0.97985 0.48811 0.0
C778 C 0.50498 0.75087 0.2643 0.0
C779 C 0.50908 0.78989 0.23699 0.0
C780 C 0.51735 0.70547 0.27881 0.0
C781 C 0.53449 0.69642 0.26674 0.0
H782 H 0.492 0.75492 0.27455 0.0
H783 H 0.51342 0.67744 0.29985 0.0
S784 S 0.55211 0.78613 0.19571 0.0
N785 N 0.53178 0.81595 0.19852 0.0
N786 N 0.55482 0.73132 0.22556 0.0
C787 C 0.53878 0.73513 0.23944 0.0
C788 C 0.52619 0.7815 0.22469 0.0
C789 C 0.52099 0.45948 0.0307 0.0
C790 C 0.50396 0.44878 0.0184 0.0
C791 C 0.53347 0.50352 0.01559 0.0
C792 C 0.52957 0.53957 0.98742 0.0
H793 H 0.52475 0.43382 0.0524 0.0
H794 H 0.54636 0.50888 0.02606 0.0
S795 S 0.48687 0.53081 0.94529 0.0
N796 N 0.48394 0.47906 0.97612 0.0
N797 N 0.50717 0.5612 0.94795 0.0
C798 C 0.51257 0.52959 0.97491 0.0
C799 C 0.49988 0.48452 0.99026 0.0
C800 C 0.07209 0.41074 0.36008 0.0
C801 C 0.0746 0.4343 0.39092 0.0
C802 C 0.07254 0.33861 0.35293 0.0
C803 C 0.0756 0.28756 0.37639 0.0
H804 H 0.06982 0.44824 0.34121 0.0
H805 H 0.07067 0.32316 0.32871 0.0
S806 S 0.08243 0.32252 0.46128 0.0
N807 N 0.07986 0.40189 0.44538 0.0
N808 N 0.08062 0.26548 0.43207 0.0
C809 C 0.07776 0.31041 0.40758 0.0
C810 C 0.07727 0.38406 0.41483 0.0
C811 C 0.22119 0.81566 0.35541 0.0
C812 C 0.22382 0.7923 0.3863 0.0
C813 C 0.2221 0.88747 0.34805 0.0
C814 C 0.22561 0.93824 0.37136 0.0
H815 H 0.21745 0.77898 0.33698 0.0
H816 H 0.21891 0.90328 0.32432 0.0
S817 S 0.23804 0.9028 0.45388 0.0
N818 N 0.23345 0.82372 0.43905 0.0
N819 N 0.235 0.96008 0.42504 0.0
C820 C 0.23007 0.91523 0.4016 0.0
C821 C 0.22922 0.84173 0.40913 0.0
C822 C 0.06948 0.89456 0.91206 0.0
C823 C 0.0639 0.94251 0.8889 0.0
C824 C 0.07103 0.82245 0.90548 0.0
C825 C 0.067 0.79607 0.87557 0.0
H826 H 0.07364 0.91316 0.93492 0.0
H827 H 0.07626 0.78801 0.92358 0.0
S828 S 0.04823 0.8982 0.80906 0.0
N829 N 0.05187 0.95828 0.83658 0.0
N830 N 0.05457 0.82139 0.82411 0.0
C831 C 0.05999 0.84262 0.85299 0.0
C832 C 0.0585 0.91636 0.85969 0.0
C833 C 0.22198 0.39421 0.84814 0.0
C834 C 0.22584 0.44341 0.87195 0.0
C835 C 0.22026 0.32229 0.85487 0.0
C836 C 0.2224 0.29718 0.88559 0.0
H837 H 0.21919 0.41149 0.82445 0.0
H838 H 0.2163 0.28704 0.83605 0.0
S839 S 0.23722 0.40213 0.95444 0.0
N840 N 0.23499 0.46119 0.92605 0.0
N841 N 0.23191 0.3246 0.93881 0.0
C842 C 0.22809 0.34468 0.90898 0.0
C843 C 0.22977 0.41831 0.90211 0.0
C844 C 0.97 0.67085 0.60668 0.0
C845 C 0.97505 0.69371 0.63669 0.0
C846 C 0.96911 0.59877 0.59961 0.0
C847 C 0.9732 0.54753 0.62237 0.0
H848 H 0.96571 0.70841 0.589 0.0
H849 H 0.9642 0.58329 0.57678 0.0
S850 S 0.99127 0.58026 0.70173 0.0
N851 N 0.98727 0.6603 0.6874 0.0
N852 N 0.9854 0.52365 0.67402 0.0
C853 C 0.97986 0.56954 0.65144 0.0
C854 C 0.98087 0.64313 0.65862 0.0
C855 C 0.82427 0.10181 0.66036 0.0
C856 C 0.81891 0.05111 0.63822 0.0
C857 C 0.82365 0.17395 0.65335 0.0
C858 C 0.8176 0.19732 0.62403 0.0
H859 H 0.82986 0.08569 0.6826 0.0
H860 H 0.82882 0.21109 0.67047 0.0
S861 S 0.79852 0.08549 0.56087 0.0
N862 N 0.80493 0.02832 0.58794 0.0
N863 N 0.80353 0.16511 0.57469 0.0
C864 C 0.81079 0.14732 0.60272 0.0
C865 C 0.81153 0.0737 0.60983 0.0
C866 C 0.9706 0.1625 0.11068 0.0
C867 C 0.96655 0.18744 0.14074 0.0
C868 C 0.96917 0.09053 0.10361 0.0
C869 C 0.9635 0.04138 0.12635 0.0
H870 H 0.97485 0.19884 0.09245 0.0
H871 H 0.97247 0.07369 0.08006 0.0
S872 S 0.95112 0.08142 0.20873 0.0
N873 N 0.9567 0.15901 0.19354 0.0
N874 N 0.95379 0.02293 0.18029 0.0
C875 C 0.95955 0.06582 0.15672 0.0
C876 C 0.96115 0.13918 0.16393 0.0
C877 C 0.82161 0.6001 0.16084 0.0
C878 C 0.81794 0.54843 0.13803 0.0
C879 C 0.82011 0.67205 0.15389 0.0
C880 C 0.81487 0.69445 0.12391 0.0
H881 H 0.82659 0.58521 0.18369 0.0
H882 H 0.82407 0.71003 0.17166 0.0
S883 S 0.79971 0.57916 0.05861 0.0
N884 N 0.806 0.52324 0.08627 0.0
N885 N 0.80303 0.65961 0.07309 0.0
C886 C 0.80952 0.64318 0.10187 0.0
C887 C 0.81114 0.56971 0.10895 0.0
C888 C 0.57434 0.31611 0.90067 0.0
C889 C 0.56927 0.29198 0.87086 0.0
C890 C 0.57352 0.3879 0.90818 0.0
C891 C 0.56767 0.43774 0.88609 0.0
H892 H 0.57967 0.27997 0.91801 0.0
H893 H 0.57833 0.40468 0.93092 0.0
S894 S 0.54992 0.40073 0.80694 0.0
N895 N 0.55595 0.32219 0.82061 0.0
N896 N 0.55466 0.45849 0.83488 0.0
C897 C 0.56149 0.41424 0.85695 0.0
C898 C 0.56221 0.34083 0.8493 0.0
C899 C 0.71499 0.81773 0.85555 0.0
C900 C 0.71341 0.79512 0.88675 0.0
C901 C 0.71559 0.88979 0.84823 0.0
C902 C 0.71457 0.94168 0.87188 0.0
H903 H 0.71572 0.77961 0.83652 0.0
H904 H 0.71655 0.90462 0.82376 0.0
S905 S 0.71105 0.9097 0.95759 0.0
N906 N 0.71125 0.82964 0.94169 0.0
N907 N 0.71264 0.96572 0.92797 0.0
C908 C 0.71339 0.91979 0.90334 0.0
C909 C 0.71276 0.84628 0.91078 0.0
C910 C 0.56663 0.83102 0.352 0.0
C911 C 0.57168 0.78007 0.37436 0.0
C912 C 0.56701 0.90315 0.35906 0.0
C913 C 0.57229 0.9265 0.38876 0.0
H914 H 0.5628 0.81552 0.32851 0.0
H915 H 0.56344 0.9409 0.34094 0.0
S916 S 0.58524 0.8149 0.4566 0.0
N917 N 0.58095 0.75774 0.42825 0.0
N918 N 0.58157 0.89435 0.44146 0.0
C919 C 0.57644 0.87637 0.41198 0.0
C920 C 0.57614 0.80271 0.40478 0.0
C921 C 0.71644 0.30433 0.35528 0.0
C922 C 0.7221 0.28068 0.3848 0.0
C923 C 0.71642 0.37642 0.34804 0.0
C924 C 0.722 0.42679 0.37015 0.0
H925 H 0.71118 0.26752 0.33811 0.0
H926 H 0.71113 0.39289 0.32561 0.0
S927 S 0.74134 0.3913 0.44826 0.0
N928 N 0.73589 0.31208 0.43451 0.0
N929 N 0.73562 0.44873 0.4208 0.0
C930 C 0.72891 0.40379 0.39884 0.0
C931 C 0.72904 0.33023 0.4062 0.0
C932 C 0.46933 0.57568 0.14926 0.0
C933 C 0.46655 0.55329 0.1183 0.0
C934 C 0.47056 0.64753 0.15648 0.0
C935 C 0.46898 0.69955 0.133 0.0
H936 H 0.47023 0.53762 0.16828 0.0
H937 H 0.47215 0.66206 0.18088 0.0
S938 S 0.46389 0.66793 0.04754 0.0
N939 N 0.46385 0.58785 0.06344 0.0
N940 N 0.46633 0.72385 0.07703 0.0
C941 C 0.46726 0.67783 0.1016 0.0
C942 C 0.466 0.60436 0.09423 0.0
C943 C 0.32577 0.0666 0.10596 0.0
C944 C 0.32079 0.04157 0.13567 0.0
C945 C 0.32416 0.13817 0.0984 0.0
C946 C 0.31761 0.18689 0.12037 0.0
H947 H 0.33152 0.03132 0.08868 0.0
H948 H 0.32886 0.15582 0.07572 0.0
S949 S 0.30017 0.14694 0.19952 0.0
N950 N 0.30709 0.06957 0.1859 0.0
N951 N 0.30432 0.20539 0.17156 0.0
C952 C 0.31167 0.16237 0.14952 0.0
C953 C 0.3132 0.08922 0.15723 0.0
C954 C 0.46592 0.17182 0.60402 0.0
C955 C 0.4718 0.19561 0.6334 0.0
C956 C 0.46577 0.0997 0.59686 0.0
C957 C 0.47143 0.0494 0.61891 0.0
H958 H 0.46064 0.20859 0.58688 0.0
H959 H 0.46038 0.08319 0.57451 0.0
S960 S 0.49111 0.08516 0.69676 0.0
N961 N 0.48571 0.16434 0.68299 0.0
N962 N 0.48522 0.02764 0.66944 0.0
C963 C 0.47847 0.0725 0.64751 0.0
C964 C 0.47872 0.1461 0.65479 0.0
C965 C 0.32277 0.5981 0.65847 0.0
C966 C 0.31801 0.54753 0.63581 0.0
C967 C 0.32237 0.67027 0.65153 0.0
C968 C 0.31715 0.69388 0.62176 0.0
H969 H 0.32777 0.58191 0.68114 0.0
H970 H 0.3271 0.70722 0.66912 0.0
S971 S 0.29955 0.5828 0.55698 0.0
N972 N 0.30523 0.52535 0.58445 0.0
N973 N 0.30428 0.66223 0.57131 0.0
C974 C 0.31081 0.64413 0.59988 0.0
C975 C 0.31131 0.57044 0.60693 0.0
C976 C 0.06544 0.79847 0.3676 0.0
C977 C 0.06317 0.80132 0.40052 0.0
C978 C 0.06553 0.8603 0.34905 0.0
C979 C 0.06335 0.92758 0.36266 0.0
H980 H 0.06731 0.7479 0.35586 0.0
H981 H 0.06769 0.8554 0.32406 0.0
S982 S 0.05541 0.96427 0.44734 0.0
N983 N 0.05774 0.87694 0.44549 0.0
N984 N 0.05765 -0.0068 0.41106 0.0
C985 C 0.06052 0.93106 0.39547 0.0
C986 C 0.0605 0.86805 0.41428 0.0
C987 C 0.22294 0.36295 0.40959 0.0
C988 C 0.22268 0.43072 0.39587 0.0
C989 C 0.22336 0.3012 0.39099 0.0
C990 C 0.22356 0.30442 0.35783 0.0
H991 H 0.22288 0.35742 0.43484 0.0
H992 H 0.22368 0.25031 0.40293 0.0
S993 S 0.22316 0.46886 0.31004 0.0
N994 N 0.22283 0.49735 0.3466 0.0
N995 N 0.22344 0.38108 0.31222 0.0
C996 C 0.22325 0.37168 0.34378 0.0
C997 C 0.22285 0.43474 0.36263 0.0
C998 C 0.0577 0.37689 0.8522 0.0
C999 C 0.06986 0.42991 0.86041 0.0
C1000 C 0.05467 0.31826 0.872 0.0
C1001 C 0.06347 0.31106 0.90092 0.0
H1002 H 0.05007 0.38183 0.83089 0.0
H1003 H 0.04524 0.27827 0.8647 0.0
S1004 S 0.09858 0.42896 0.93089 0.0
N1005 N 0.09225 0.46659 0.89781 0.0
N1006 N 0.08612 0.35751 0.93509 0.0
C1007 C 0.07603 0.36225 0.90892 0.0
C1008 C 0.07933 0.42134 0.88862 0.0
C1009 C 0.22888 0.87419 0.90749 0.0
C1010 C 0.21919 0.93247 0.89637 0.0
C1011 C 0.2319 0.81437 0.88842 0.0
C1012 C 0.22547 0.81057 0.85742 0.0
H1013 H 0.23455 0.87547 0.93074 0.0
H1014 H 0.23944 0.77061 0.89806 0.0
S1015 S 0.19747 0.94454 0.81835 0.0
N1016 N 0.20183 0.97924 0.85301 0.0
N1017 N 0.20782 0.86733 0.81748 0.0
C1018 C 0.21544 0.86741 0.84625 0.0
C1019 C 0.21221 0.9281 0.86568 0.0
C1020 C 0.97501 0.11585 0.60302 0.0
C1021 C 0.97346 0.18323 0.61682 0.0
C1022 C 0.97583 0.05412 0.62148 0.0
C1023 C 0.97511 0.05682 0.65461 0.0
H1024 H 0.97568 0.11061 0.57778 0.0
H1025 H 0.97711 0.00361 0.60943 0.0
S1026 S 0.97115 0.22015 0.70262 0.0
N1027 N 0.97141 0.24913 0.66612 0.0
N1028 N 0.97273 0.13258 0.70033 0.0
C1029 C 0.97356 0.12368 0.66878 0.0
C1030 C 0.97277 0.18688 0.65003 0.0
C1031 C 0.81605 0.55744 0.63938 0.0
C1032 C 0.81548 0.56036 0.60623 0.0
C1033 C 0.81648 0.61921 0.65784 0.0
C1034 C 0.81636 0.6868 0.64403 0.0
H1035 H 0.8161 0.50671 0.65147 0.0
H1036 H 0.81694 0.6138 0.68309 0.0
S1037 S 0.81437 0.72452 0.5583 0.0
N1038 N 0.81452 0.6367 0.56053 0.0
N1039 N 0.81515 0.75331 0.59481 0.0
C1040 C 0.81564 0.69074 0.61084 0.0
C1041 C 0.81523 0.62752 0.59207 0.0
C1042 C 0.97518 0.5527 0.11786 0.0
C1043 C 0.97696 0.55558 0.15087 0.0
C1044 C 0.97452 0.61467 0.09945 0.0
C1045 C 0.97561 0.68214 0.1133 0.0
H1046 H 0.97417 0.50196 0.10591 0.0
H1047 H 0.97284 0.60961 0.07436 0.0
S1048 S 0.98171 0.7193 0.19845 0.0
N1049 N 0.98063 0.6316 0.19626 0.0
N1050 N 0.97964 0.74823 0.16214 0.0
C1051 C 0.97788 0.68579 0.14625 0.0
C1052 C 0.97849 0.62259 0.16491 0.0
C1053 C 0.81597 0.11772 0.15794 0.0
C1054 C 0.81692 0.18524 0.1441 0.0
C1055 C 0.81488 0.05598 0.1395 0.0
C1056 C 0.81472 0.05878 0.10633 0.0
H1057 H 0.81602 0.11236 0.1832 0.0
H1058 H 0.81409 0.00539 0.15161 0.0
S1059 S 0.8166 0.22265 0.05826 0.0
N1060 N 0.8173 0.25147 0.09477 0.0
N1061 N 0.81546 0.13496 0.06057 0.0
C1062 C 0.81561 0.12584 0.09213 0.0
C1063 C 0.81667 0.18904 0.11088 0.0
C1064 C 0.56613 0.80078 0.86538 0.0
C1065 C 0.56466 0.80418 0.89844 0.0
C1066 C 0.56632 0.86241 0.84668 0.0
C1067 C 0.56509 0.93017 0.86024 0.0
H1068 H 0.5671 0.74984 0.85359 0.0
H1069 H 0.56758 0.85685 0.82153 0.0
S1070 S 0.56025 0.96871 0.94556 0.0
N1071 N 0.56152 0.88103 0.94367 0.0
N1072 N 0.56171 -0.00301 0.90905 0.0
C1073 C 0.56341 0.93435 0.89331 0.0
C1074 C 0.56324 0.87146 0.91226 0.0
C1075 C 0.72205 0.43094 0.86389 0.0
C1076 C 0.72428 0.42838 0.89683 0.0
C1077 C 0.72316 0.36948 0.84517 0.0
C1078 C 0.72655 0.30288 0.85864 0.0
H1079 H 0.71929 0.48099 0.85228 0.0
H1080 H 0.72096 0.37399 0.82019 0.0
S1081 S 0.73475 0.26749 0.94332 0.0
N1082 N 0.73086 0.35392 0.94166 0.0
N1083 N 0.73319 0.23848 0.90694 0.0
C1084 C 0.72928 0.29983 0.89148 0.0
C1085 C 0.72808 0.36241 0.91045 0.0
C1086 C 0.56352 0.42243 0.38647 0.0
C1087 C 0.56512 0.41984 0.35344 0.0
C1088 C 0.56396 0.36076 0.40495 0.0
C1089 C 0.56598 0.2935 0.39127 0.0
H1090 H 0.56195 0.47292 0.39845 0.0
H1091 H 0.56273 0.36599 0.43012 0.0
S1092 S 0.5703 0.25675 0.3057 0.0
N1093 N 0.5686 0.3443 0.30788 0.0
N1094 N 0.56915 0.22763 0.34213 0.0
C1095 C 0.56735 0.28983 0.35812 0.0
C1096 C 0.56696 0.35306 0.33933 0.0
C1097 C 0.72478 0.92093 0.36847 0.0
C1098 C 0.72527 0.91795 0.40162 0.0
C1099 C 0.72483 0.85916 0.34995 0.0
C1100 C 0.72536 0.79152 0.36372 0.0
H1101 H 0.72439 0.97171 0.35644 0.0
H1102 H 0.72437 0.86457 0.3247 0.0
S1103 S 0.7274 0.75378 0.44945 0.0
N1104 N 0.72665 0.84155 0.44727 0.0
N1105 N 0.72692 0.72506 0.41292 0.0
C1106 C 0.72604 0.7876 0.39692 0.0
C1107 C 0.72596 0.85078 0.41573 0.0
C1108 C 0.47383 0.12077 0.10007 0.0
C1109 C 0.47352 0.18842 0.11381 0.0
C1110 C 0.47457 0.0592 0.11859 0.0
C1111 C 0.47501 0.06232 0.15175 0.0
H1112 H 0.4734 0.11515 0.07483 0.0
H1113 H 0.47476 0.00843 0.10653 0.0
S1114 S 0.47522 0.2268 0.1995 0.0
N1115 N 0.47435 0.25533 0.16296 0.0
N1116 N 0.47554 0.13896 0.19738 0.0
C1117 C 0.47495 0.12955 0.16585 0.0
C1118 C 0.47424 0.19263 0.147 0.0
C1119 C 0.31476 0.61245 0.15916 0.0
C1120 C 0.31473 0.68022 0.14542 0.0
C1121 C 0.31394 0.55068 0.1406 0.0
C1122 C 0.31304 0.55385 0.10747 0.0
H1123 H 0.31555 0.60694 0.18437 0.0
H1124 H 0.31401 0.49979 0.15255 0.0
S1125 S 0.31177 0.71844 0.0598 0.0
N1126 N 0.31307 0.74692 0.0963 0.0
N1127 N 0.31172 0.63063 0.06195 0.0
C1128 C 0.31278 0.62117 0.09345 0.0
C1129 C 0.31359 0.68425 0.11226 0.0
C1130 C 0.47457 0.556 0.61672 0.0
C1131 C 0.47553 0.55898 0.64984 0.0
C1132 C 0.47464 0.61775 0.59819 0.0
C1133 C 0.47569 0.68532 0.61194 0.0
H1134 H 0.47377 0.50528 0.60471 0.0
H1135 H 0.47375 0.61239 0.57298 0.0
S1136 S 0.47926 0.72295 0.69752 0.0
N1137 N 0.478 0.63526 0.69539 0.0
N1138 N 0.47837 0.75168 0.66101 0.0
C1139 C 0.47691 0.68921 0.64508 0.0
C1140 C 0.47677 0.62608 0.6639 0.0
C1141 C 0.31675 0.05391 0.63794 0.0
C1142 C 0.31592 0.05675 0.60481 0.0
C1143 C 0.31679 0.11575 0.65641 0.0
C1144 C 0.316 0.18329 0.64259 0.0
H1145 H 0.31731 0.00322 0.65001 0.0
H1146 H 0.31751 0.11048 0.68164 0.0
S1147 S 0.31301 0.2206 0.55692 0.0
N1148 N 0.31395 0.13288 0.55915 0.0
N1149 N 0.31382 0.2495 0.59341 0.0
C1150 C 0.31499 0.18706 0.60942 0.0
C1151 C 0.315 0.12382 0.59067 0.0
loop_
_geom_bond_atom_site_label_1
_geom_bond_atom_site_label_2
_geom_bond_distance
_geom_bond_site_symmetry_2
_ccdc_geom_bond_type
Co0 O1 2.216 . S
Co0 O2 2.091 . S
Co0 O4 2.004 . S
Co0 O10 2.021 . S
Co0 O12 2.137 . S
Co0 O13 2.244 . S
O1 Co0 2.216 . S
O1 C8 1.247 . S
O2 Co0 2.091 . S
O2 C8 1.261 . S
C3 O12 1.247 . S
C3 O13 1.272 . S
O4 Co0 2.004 . S
O4 C9 1.259 . S
Co5 O6 2.061 . S
Co5 O11 2.052 . S
Co5 O13 2.135 . S
O6 Co5 2.061 . S
O6 C9 1.235 . S
C7 O10 1.238 . S
C7 O11 1.241 . S
C8 O1 1.247 . S
C8 O2 1.261 . S
C9 O4 1.259 . S
C9 O6 1.235 . S
O10 Co0 2.021 . S
O10 C7 1.238 . S
O11 Co5 2.052 . S
O11 C7 1.241 . S
O12 Co0 2.137 . S
O12 C3 1.247 . S
O13 Co0 2.244 . S
O13 C3 1.272 . S
O13 Co5 2.135 . S
Co14 O15 2.216 . S
Co14 O16 2.091 . S
Co14 O18 2.004 . S
Co14 O24 2.021 . S
Co14 O26 2.137 . S
Co14 O27 2.244 . S
O15 Co14 2.216 . S
O15 C22 1.247 . S
O16 Co14 2.091 . S
O16 C22 1.261 . S
C17 O26 1.247 . S
C17 O27 1.272 . S
O18 Co14 2.004 . S
O18 C23 1.259 . S
Co19 O20 2.061 . S
Co19 O25 2.052 . S
Co19 O27 2.135 . S
O20 Co19 2.061 . S
O20 C23 1.235 . S
C21 O24 1.238 1_565 S
C21 O25 1.241 1_565 S
C22 O15 1.247 . S
C22 O16 1.261 . S
C23 O18 1.259 . S
C23 O20 1.235 . S
O24 Co14 2.021 . S
O24 C21 1.238 1_545 S
O25 Co19 2.052 . S
O25 C21 1.241 1_545 S
O26 Co14 2.137 . S
O26 C17 1.247 . S
O27 Co14 2.244 . S
O27 C17 1.272 . S
O27 Co19 2.135 . S
Co28 O29 2.216 . S
Co28 O30 2.091 . S
Co28 O32 2.004 . S
Co28 O38 2.021 . S
Co28 O40 2.137 . S
Co28 O41 2.244 . S
O29 Co28 2.216 . S
O29 C36 1.247 . S
O30 Co28 2.091 . S
O30 C36 1.261 . S
C31 O40 1.247 . S
C31 O41 1.272 . S
O32 Co28 2.004 . S
O32 C37 1.259 . S
Co33 O34 2.061 . S
Co33 O39 2.052 . S
Co33 O41 2.135 . S
O34 Co33 2.061 . S
O34 C37 1.235 . S
C35 O38 1.238 1_565 S
C35 O39 1.241 1_565 S
C36 O29 1.247 . S
C36 O30 1.261 . S
C37 O32 1.259 . S
C37 O34 1.235 . S
O38 Co28 2.021 . S
O38 C35 1.238 1_545 S
O39 Co33 2.052 . S
O39 C35 1.241 1_545 S
O40 Co28 2.137 . S
O40 C31 1.247 . S
O41 Co28 2.244 . S
O41 C31 1.272 . S
O41 Co33 2.135 . S
Co42 O43 2.216 . S
Co42 O44 2.091 . S
Co42 O46 2.004 . S
Co42 O52 2.021 . S
Co42 O54 2.137 . S
Co42 O55 2.244 . S
O43 Co42 2.216 . S
O43 C50 1.247 . S
O44 Co42 2.091 . S
O44 C50 1.261 . S
C45 O54 1.247 . S
C45 O55 1.272 . S
O46 Co42 2.004 . S
O46 C51 1.259 . S
Co47 O48 2.061 . S
Co47 O53 2.052 . S
Co47 O55 2.135 . S
O48 Co47 2.061 . S
O48 C51 1.235 . S
C49 O52 1.238 . S
C49 O53 1.241 . S
C50 O43 1.247 . S
C50 O44 1.261 . S
C51 O46 1.259 . S
C51 O48 1.235 . S
O52 Co42 2.021 . S
O52 C49 1.238 . S
O53 Co47 2.052 . S
O53 C49 1.241 . S
O54 Co42 2.137 . S
O54 C45 1.247 . S
O55 Co42 2.244 . S
O55 C45 1.272 . S
O55 Co47 2.135 . S
Co56 O57 2.216 . S
Co56 O58 2.091 . S
Co56 O60 2.004 . S
Co56 O66 2.021 . S
Co56 O68 2.137 . S
Co56 O69 2.244 . S
O57 Co56 2.216 . S
O57 C64 1.247 . S
O58 Co56 2.091 . S
O58 C64 1.261 . S
C59 O68 1.247 . S
C59 O69 1.272 . S
O60 Co56 2.004 . S
O60 C65 1.259 . S
Co61 O62 2.061 . S
Co61 O67 2.052 . S
Co61 O69 2.135 . S
O62 Co61 2.061 . S
O62 C65 1.235 . S
C63 O66 1.238 . S
C63 O67 1.241 . S
C64 O57 1.247 . S
C64 O58 1.261 . S
C65 O60 1.259 . S
C65 O62 1.235 . S
O66 Co56 2.021 . S
O66 C63 1.238 . S
O67 Co61 2.052 . S
O67 C63 1.241 . S
O68 Co56 2.137 . S
O68 C59 1.247 . S
O69 Co56 2.244 . S
O69 C59 1.272 . S
O69 Co61 2.135 . S
Co70 O71 2.216 . S
Co70 O72 2.091 . S
Co70 O74 2.004 . S
Co70 O80 2.021 . S
Co70 O82 2.137 . S
Co70 O83 2.244 . S
O71 Co70 2.216 . S
O71 C78 1.247 . S
O72 Co70 2.091 . S
O72 C78 1.261 . S
C73 O82 1.247 . S
C73 O83 1.272 . S
O74 Co70 2.004 . S
O74 C79 1.259 . S
Co75 O76 2.061 . S
Co75 O81 2.052 . S
Co75 O83 2.135 . S
O76 Co75 2.061 . S
O76 C79 1.235 . S
C77 O80 1.238 1_545 S
C77 O81 1.241 1_545 S
C78 O71 1.247 . S
C78 O72 1.261 . S
C79 O74 1.259 . S
C79 O76 1.235 . S
O80 Co70 2.021 . S
O80 C77 1.238 1_565 S
O81 Co75 2.052 . S
O81 C77 1.241 1_565 S
O82 Co70 2.137 . S
O82 C73 1.247 . S
O83 Co70 2.244 . S
O83 C73 1.272 . S
O83 Co75 2.135 . S
Co84 O85 2.216 . S
Co84 O86 2.091 . S
Co84 O88 2.004 . S
Co84 O94 2.021 . S
Co84 O96 2.137 . S
Co84 O97 2.244 . S
O85 Co84 2.216 . S
O85 C92 1.247 . S
O86 Co84 2.091 . S
O86 C92 1.261 . S
C87 O96 1.247 . S
C87 O97 1.272 . S
O88 Co84 2.004 . S
O88 C93 1.259 . S
Co89 O90 2.061 . S
Co89 O95 2.052 . S
Co89 O97 2.135 . S
O90 Co89 2.061 . S
O90 C93 1.235 . S
C91 O94 1.238 1_545 S
C91 O95 1.241 1_545 S
C92 O85 1.247 . S
C92 O86 1.261 . S
C93 O88 1.259 . S
C93 O90 1.235 . S
O94 Co84 2.021 . S
O94 C91 1.238 1_565 S
O95 Co89 2.052 . S
O95 C91 1.241 1_565 S
O96 Co84 2.137 . S
O96 C87 1.247 . S
O97 Co84 2.244 . S
O97 C87 1.272 . S
O97 Co89 2.135 . S
Co98 O99 2.216 . S
Co98 O100 2.091 . S
Co98 O102 2.004 . S
Co98 O108 2.021 . S
Co98 O110 2.137 . S
Co98 O111 2.244 . S
O99 Co98 2.216 . S
O99 C106 1.247 . S
O100 Co98 2.091 . S
O100 C106 1.261 . S
C101 O110 1.247 . S
C101 O111 1.272 . S
O102 Co98 2.004 . S
O102 C107 1.259 . S
Co103 O104 2.061 . S
Co103 O109 2.052 . S
Co103 O111 2.135 . S
O104 Co103 2.061 . S
O104 C107 1.235 . S
C105 O108 1.238 . S
C105 O109 1.241 . S
C106 O99 1.247 . S
C106 O100 1.261 . S
C107 O102 1.259 . S
C107 O104 1.235 . S
O108 Co98 2.021 . S
O108 C105 1.238 . S
O109 Co103 2.052 . S
O109 C105 1.241 . S
O110 Co98 2.137 . S
O110 C101 1.247 . S
O111 Co98 2.244 . S
O111 C101 1.272 . S
O111 Co103 2.135 . S
Co112 O113 2.216 . S
Co112 O114 2.091 . S
Co112 O116 2.004 . S
Co112 O122 2.021 . S
Co112 O124 2.137 . S
Co112 O125 2.244 . S
O113 Co112 2.216 . S
O113 C120 1.247 . S
O114 Co112 2.091 . S
O114 C120 1.261 . S
C115 O124 1.247 . S
C115 O125 1.272 . S
O116 Co112 2.004 . S
O116 C121 1.259 . S
Co117 O118 2.061 . S
Co117 O123 2.052 . S
Co117 O125 2.135 . S
O118 Co117 2.061 . S
O118 C121 1.235 . S
C119 O122 1.238 . S
C119 O123 1.241 . S
C120 O113 1.247 . S
C120 O114 1.261 . S
C121 O116 1.259 . S
C121 O118 1.235 . S
O122 Co112 2.021 . S
O122 C119 1.238 . S
O123 Co117 2.052 . S
O123 C119 1.241 . S
O124 Co112 2.137 . S
O124 C115 1.247 . S
O125 Co112 2.244 . S
O125 C115 1.272 . S
O125 Co117 2.135 . S
Co126 O127 2.216 . S
Co126 O128 2.091 . S
Co126 O130 2.004 . S
Co126 O136 2.021 . S
Co126 O138 2.137 . S
Co126 O139 2.244 . S
O127 Co126 2.216 . S
O127 C134 1.247 . S
O128 Co126 2.091 . S
O128 C134 1.261 . S
C129 O138 1.247 . S
C129 O139 1.272 . S
O130 Co126 2.004 . S
O130 C135 1.259 . S
Co131 O132 2.061 . S
Co131 O137 2.052 . S
Co131 O139 2.135 . S
O132 Co131 2.061 . S
O132 C135 1.235 . S
C133 O136 1.238 . S
C133 O137 1.241 . S
C134 O127 1.247 . S
C134 O128 1.261 . S
C135 O130 1.259 . S
C135 O132 1.235 . S
O136 Co126 2.021 . S
O136 C133 1.238 . S
O137 Co131 2.052 . S
O137 C133 1.241 . S
O138 Co126 2.137 . S
O138 C129 1.247 . S
O139 Co126 2.244 . S
O139 C129 1.272 . S
O139 Co131 2.135 . S
Co140 O141 2.216 . S
Co140 O142 2.091 . S
Co140 O144 2.004 . S
Co140 O150 2.021 . S
Co140 O152 2.137 . S
Co140 O153 2.244 . S
O141 Co140 2.216 . S
O141 C148 1.247 . S
O142 Co140 2.091 . S
O142 C148 1.261 . S
C143 O152 1.247 . S
C143 O153 1.272 . S
O144 Co140 2.004 . S
O144 C149 1.259 . S
Co145 O146 2.061 . S
Co145 O151 2.052 . S
Co145 O153 2.135 . S
O146 Co145 2.061 . S
O146 C149 1.235 . S
C147 O150 1.238 . S
C147 O151 1.241 . S
C148 O141 1.247 . S
C148 O142 1.261 . S
C149 O144 1.259 . S
C149 O146 1.235 . S
O150 Co140 2.021 . S
O150 C147 1.238 . S
O151 Co145 2.052 . S
O151 C147 1.241 . S
O152 Co140 2.137 . S
O152 C143 1.247 . S
O153 Co140 2.244 . S
O153 C143 1.272 . S
O153 Co145 2.135 . S
Co154 O155 2.216 . S
Co154 O156 2.091 . S
Co154 O158 2.004 . S
Co154 O164 2.021 . S
Co154 O166 2.137 . S
Co154 O167 2.244 . S
O155 Co154 2.216 . S
O155 C162 1.247 . S
O156 Co154 2.091 . S
O156 C162 1.261 . S
C157 O166 1.247 . S
C157 O167 1.272 . S
O158 Co154 2.004 . S
O158 C163 1.259 . S
Co159 O160 2.061 . S
Co159 O165 2.052 . S
Co159 O167 2.135 . S
O160 Co159 2.061 . S
O160 C163 1.235 . S
C161 O164 1.238 . S
C161 O165 1.241 . S
C162 O155 1.247 . S
C162 O156 1.261 . S
C163 O158 1.259 . S
C163 O160 1.235 . S
O164 Co154 2.021 . S
O164 C161 1.238 . S
O165 Co159 2.052 . S
O165 C161 1.241 . S
O166 Co154 2.137 . S
O166 C157 1.247 . S
O167 Co154 2.244 . S
O167 C157 1.272 . S
O167 Co159 2.135 . S
Co168 O169 2.216 . S
Co168 O170 2.091 . S
Co168 O172 2.004 . S
Co168 O178 2.021 . S
Co168 O180 2.137 . S
Co168 O181 2.244 . S
O169 Co168 2.216 . S
O169 C176 1.247 . S
O170 Co168 2.091 . S
O170 C176 1.261 . S
C171 O180 1.247 . S
C171 O181 1.272 . S
O172 Co168 2.004 . S
O172 C177 1.259 . S
Co173 O174 2.061 . S
Co173 O179 2.052 . S
Co173 O181 2.135 . S
O174 Co173 2.061 . S
O174 C177 1.235 . S
C175 O178 1.238 . S
C175 O179 1.241 . S
C176 O169 1.247 . S
C176 O170 1.261 . S
C177 O172 1.259 . S
C177 O174 1.235 . S
O178 Co168 2.021 . S
O178 C175 1.238 . S
O179 Co173 2.052 . S
O179 C175 1.241 . S
O180 Co168 2.137 . S
O180 C171 1.247 . S
O181 Co168 2.244 . S
O181 C171 1.272 . S
O181 Co173 2.135 . S
Co182 O183 2.216 . S
Co182 O184 2.091 . S
Co182 O186 2.004 . S
Co182 O192 2.021 . S
Co182 O194 2.137 . S
Co182 O195 2.244 . S
O183 Co182 2.216 . S
O183 C190 1.247 . S
O184 Co182 2.091 . S
O184 C190 1.261 . S
C185 O194 1.247 . S
C185 O195 1.272 . S
O186 Co182 2.004 . S
O186 C191 1.259 . S
Co187 O188 2.061 . S
Co187 O193 2.052 . S
Co187 O195 2.135 . S
O188 Co187 2.061 . S
O188 C191 1.235 . S
C189 O192 1.238 . S
C189 O193 1.241 . S
C190 O183 1.247 . S
C190 O184 1.261 . S
C191 O186 1.259 . S
C191 O188 1.235 . S
O192 Co182 2.021 . S
O192 C189 1.238 . S
O193 Co187 2.052 . S
O193 C189 1.241 . S
O194 Co182 2.137 . S
O194 C185 1.247 . S
O195 Co182 2.244 . S
O195 C185 1.272 . S
O195 Co187 2.135 . S
Co196 O197 2.216 . S
Co196 O198 2.091 . S
Co196 O200 2.004 . S
Co196 O206 2.021 . S
Co196 O208 2.137 . S
Co196 O209 2.244 . S
O197 Co196 2.216 . S
O197 C204 1.247 . S
O198 Co196 2.091 . S
O198 C204 1.261 . S
C199 O208 1.247 . S
C199 O209 1.272 . S
O200 Co196 2.004 . S
O200 C205 1.259 . S
Co201 O202 2.061 . S
Co201 O207 2.052 . S
Co201 O209 2.135 . S
O202 Co201 2.061 . S
O202 C205 1.235 . S
C203 O206 1.238 . S
C203 O207 1.241 . S
C204 O197 1.247 . S
C204 O198 1.261 . S
C205 O200 1.259 . S
C205 O202 1.235 . S
O206 Co196 2.021 . S
O206 C203 1.238 . S
O207 Co201 2.052 . S
O207 C203 1.241 . S
O208 Co196 2.137 . S
O208 C199 1.247 . S
O209 Co196 2.244 . S
O209 C199 1.272 . S
O209 Co201 2.135 . S
Co210 O211 2.216 . S
Co210 O212 2.091 . S
Co210 O214 2.004 . S
Co210 O220 2.021 . S
Co210 O222 2.137 . S
Co210 O223 2.244 . S
O211 Co210 2.216 . S
O211 C218 1.247 . S
O212 Co210 2.091 . S
O212 C218 1.261 . S
C213 O222 1.247 . S
C213 O223 1.272 . S
O214 Co210 2.004 . S
O214 C219 1.259 . S
Co215 O216 2.061 . S
Co215 O221 2.052 . S
Co215 O223 2.135 . S
O216 Co215 2.061 . S
O216 C219 1.235 . S
C217 O220 1.238 . S
C217 O221 1.241 . S
C218 O211 1.247 . S
C218 O212 1.261 . S
C219 O214 1.259 . S
C219 O216 1.235 . S
O220 Co210 2.021 . S
O220 C217 1.238 . S
O221 Co215 2.052 . S
O221 C217 1.241 . S
O222 Co210 2.137 . S
O222 C213 1.247 . S
O223 Co210 2.244 . S
O223 C213 1.272 . S
O223 Co215 2.135 . S
Co224 O225 2.216 . S
Co224 O226 2.091 . S
Co224 O228 2.004 . S
Co224 O234 2.021 . S
Co224 O236 2.137 . S
Co224 O237 2.244 . S
O225 Co224 2.216 . S
O225 C232 1.247 . S
O226 Co224 2.091 . S
O226 C232 1.261 . S
C227 O236 1.247 . S
C227 O237 1.272 . S
O228 Co224 2.004 . S
O228 C233 1.259 . S
Co229 O230 2.061 . S
Co229 O235 2.052 . S
Co229 O237 2.135 . S
O230 Co229 2.061 . S
O230 C233 1.235 . S
C231 O234 1.238 . S
C231 O235 1.241 . S
C232 O225 1.247 . S
C232 O226 1.261 . S
C233 O228 1.259 . S
C233 O230 1.235 . S
O234 Co224 2.021 . S
O234 C231 1.238 . S
O235 Co229 2.052 . S
O235 C231 1.241 . S
O236 Co224 2.137 . S
O236 C227 1.247 . S
O237 Co224 2.244 . S
O237 C227 1.272 . S
O237 Co229 2.135 . S
Co238 O239 2.216 . S
Co238 O240 2.091 . S
Co238 O242 2.004 . S
Co238 O248 2.021 . S
Co238 O250 2.137 . S
Co238 O251 2.244 . S
O239 Co238 2.216 . S
O239 C246 1.247 . S
O240 Co238 2.091 . S
O240 C246 1.261 . S
C241 O250 1.247 . S
C241 O251 1.272 . S
O242 Co238 2.004 . S
O242 C247 1.259 . S
Co243 O244 2.061 . S
Co243 O249 2.052 . S
Co243 O251 2.135 . S
O244 Co243 2.061 . S
O244 C247 1.235 . S
C245 O248 1.238 1_565 S
C245 O249 1.241 1_565 S
C246 O239 1.247 . S
C246 O240 1.261 . S
C247 O242 1.259 . S
C247 O244 1.235 . S
O248 Co238 2.021 . S
O248 C245 1.238 1_545 S
O249 Co243 2.052 . S
O249 C245 1.241 1_545 S
O250 Co238 2.137 . S
O250 C241 1.247 . S
O251 Co238 2.244 . S
O251 C241 1.272 . S
O251 Co243 2.135 . S
Co252 O253 2.216 . S
Co252 O254 2.091 . S
Co252 O256 2.004 . S
Co252 O262 2.021 . S
Co252 O264 2.137 . S
Co252 O265 2.244 . S
O253 Co252 2.216 . S
O253 C260 1.247 . S
O254 Co252 2.091 . S
O254 C260 1.261 . S
C255 O264 1.247 . S
C255 O265 1.272 . S
O256 Co252 2.004 . S
O256 C261 1.259 . S
Co257 O258 2.061 . S
Co257 O263 2.052 . S
Co257 O265 2.135 . S
O258 Co257 2.061 . S
O258 C261 1.235 . S
C259 O262 1.238 1_565 S
C259 O263 1.241 1_565 S
C260 O253 1.247 . S
C260 O254 1.261 . S
C261 O256 1.259 . S
C261 O258 1.235 . S
O262 Co252 2.021 . S
O262 C259 1.238 1_545 S
O263 Co257 2.052 . S
O263 C259 1.241 1_545 S
O264 Co252 2.137 . S
O264 C255 1.247 . S
O265 Co252 2.244 . S
O265 C255 1.272 . S
O265 Co257 2.135 . S
Co266 O267 2.216 . S
Co266 O268 2.091 . S
Co266 O270 2.004 . S
Co266 O276 2.021 . S
Co266 O278 2.137 . S
Co266 O279 2.244 . S
O267 Co266 2.216 . S
O267 C274 1.247 . S
O268 Co266 2.091 . S
O268 C274 1.261 . S
C269 O278 1.247 . S
C269 O279 1.272 . S
O270 Co266 2.004 . S
O270 C275 1.259 . S
Co271 O272 2.061 . S
Co271 O277 2.052 . S
Co271 O279 2.135 . S
O272 Co271 2.061 . S
O272 C275 1.235 . S
C273 O276 1.238 . S
C273 O277 1.241 . S
C274 O267 1.247 . S
C274 O268 1.261 . S
C275 O270 1.259 . S
C275 O272 1.235 . S
O276 Co266 2.021 . S
O276 C273 1.238 . S
O277 Co271 2.052 . S
O277 C273 1.241 . S
O278 Co266 2.137 . S
O278 C269 1.247 . S
O279 Co266 2.244 . S
O279 C269 1.272 . S
O279 Co271 2.135 . S
Co280 O281 2.216 . S
Co280 O282 2.091 . S
Co280 O284 2.004 . S
Co280 O290 2.021 . S
Co280 O292 2.137 . S
Co280 O293 2.244 . S
O281 Co280 2.216 . S
O281 C288 1.247 . S
O282 Co280 2.091 . S
O282 C288 1.261 . S
C283 O292 1.247 . S
C283 O293 1.272 . S
O284 Co280 2.004 . S
O284 C289 1.259 . S
Co285 O286 2.061 . S
Co285 O291 2.052 . S
Co285 O293 2.135 . S
O286 Co285 2.061 . S
O286 C289 1.235 . S
C287 O290 1.238 . S
C287 O291 1.241 . S
C288 O281 1.247 . S
C288 O282 1.261 . S
C289 O284 1.259 . S
C289 O286 1.235 . S
O290 Co280 2.021 . S
O290 C287 1.238 . S
O291 Co285 2.052 . S
O291 C287 1.241 . S
O292 Co280 2.137 . S
O292 C283 1.247 . S
O293 Co280 2.244 . S
O293 C283 1.272 . S
O293 Co285 2.135 . S
Co294 O295 2.216 . S
Co294 O296 2.091 . S
Co294 O298 2.004 . S
Co294 O304 2.021 . S
Co294 O306 2.137 . S
Co294 O307 2.244 . S
O295 Co294 2.216 . S
O295 C302 1.247 . S
O296 Co294 2.091 . S
O296 C302 1.261 . S
C297 O306 1.247 . S
C297 O307 1.272 . S
O298 Co294 2.004 . S
O298 C303 1.259 . S
Co299 O300 2.061 . S
Co299 O305 2.052 . S
Co299 O307 2.135 . S
O300 Co299 2.061 . S
O300 C303 1.235 . S
C301 O304 1.238 1_545 S
C301 O305 1.241 1_545 S
C302 O295 1.247 . S
C302 O296 1.261 . S
C303 O298 1.259 . S
C303 O300 1.235 . S
O304 Co294 2.021 . S
O304 C301 1.238 1_565 S
O305 Co299 2.052 . S
O305 C301 1.241 1_565 S
O306 Co294 2.137 . S
O306 C297 1.247 . S
O307 Co294 2.244 . S
O307 C297 1.272 . S
O307 Co299 2.135 . S
Co308 O309 2.216 . S
Co308 O310 2.091 . S
Co308 O312 2.004 . S
Co308 O318 2.021 . S
Co308 O320 2.137 . S
Co308 O321 2.244 . S
O309 Co308 2.216 . S
O309 C316 1.247 . S
O310 Co308 2.091 . S
O310 C316 1.261 . S
C311 O320 1.247 . S
C311 O321 1.272 . S
O312 Co308 2.004 . S
O312 C317 1.259 . S
Co313 O314 2.061 . S
Co313 O319 2.052 . S
Co313 O321 2.135 . S
O314 Co313 2.061 . S
O314 C317 1.235 . S
C315 O318 1.238 1_545 S
C315 O319 1.241 1_545 S
C316 O309 1.247 . S
C316 O310 1.261 . S
C317 O312 1.259 . S
C317 O314 1.235 . S
O318 Co308 2.021 . S
O318 C315 1.238 1_565 S
O319 Co313 2.052 . S
O319 C315 1.241 1_565 S
O320 Co308 2.137 . S
O320 C311 1.247 . S
O321 Co308 2.244 . S
O321 C311 1.272 . S
O321 Co313 2.135 . S
Co322 O323 2.216 . S
Co322 O324 2.091 . S
Co322 O326 2.004 . S
Co322 O332 2.021 . S
Co322 O334 2.137 . S
Co322 O335 2.244 . S
O323 Co322 2.216 . S
O323 C330 1.247 . S
O324 Co322 2.091 . S
O324 C330 1.261 . S
C325 O334 1.247 . S
C325 O335 1.272 . S
O326 Co322 2.004 . S
O326 C331 1.259 . S
Co327 O328 2.061 . S
Co327 O333 2.052 . S
Co327 O335 2.135 . S
O328 Co327 2.061 . S
O328 C331 1.235 . S
C329 O332 1.238 . S
C329 O333 1.241 . S
C330 O323 1.247 . S
C330 O324 1.261 . S
C331 O326 1.259 . S
C331 O328 1.235 . S
O332 Co322 2.021 . S
O332 C329 1.238 . S
O333 Co327 2.052 . S
O333 C329 1.241 . S
O334 Co322 2.137 . S
O334 C325 1.247 . S
O335 Co322 2.244 . S
O335 C325 1.272 . S
O335 Co327 2.135 . S
Co336 O337 2.216 . S
Co336 O338 2.091 . S
Co336 O340 2.004 . S
Co336 O346 2.021 . S
Co336 O348 2.137 . S
Co336 O349 2.244 . S
O337 Co336 2.216 . S
O337 C344 1.247 . S
O338 Co336 2.091 . S
O338 C344 1.261 . S
C339 O348 1.247 . S
C339 O349 1.272 . S
O340 Co336 2.004 . S
O340 C345 1.259 . S
Co341 O342 2.061 . S
Co341 O347 2.052 . S
Co341 O349 2.135 . S
O342 Co341 2.061 . S
O342 C345 1.235 . S
C343 O346 1.238 . S
C343 O347 1.241 . S
C344 O337 1.247 . S
C344 O338 1.261 . S
C345 O340 1.259 . S
C345 O342 1.235 . S
O346 Co336 2.021 . S
O346 C343 1.238 . S
O347 Co341 2.052 . S
O347 C343 1.241 . S
O348 Co336 2.137 . S
O348 C339 1.247 . S
O349 Co336 2.244 . S
O349 C339 1.272 . S
O349 Co341 2.135 . S
Co350 O351 2.216 . S
Co350 O352 2.091 . S
Co350 O354 2.004 . S
Co350 O360 2.021 . S
Co350 O362 2.137 . S
Co350 O363 2.244 . S
O351 Co350 2.216 . S
O351 C358 1.247 . S
O352 Co350 2.091 . S
O352 C358 1.261 . S
C353 O362 1.247 . S
C353 O363 1.272 . S
O354 Co350 2.004 . S
O354 C359 1.259 . S
Co355 O356 2.061 . S
Co355 O361 2.052 . S
Co355 O363 2.135 . S
O356 Co355 2.061 . S
O356 C359 1.235 . S
C357 O360 1.238 . S
C357 O361 1.241 . S
C358 O351 1.247 . S
C358 O352 1.261 . S
C359 O354 1.259 . S
C359 O356 1.235 . S
O360 Co350 2.021 . S
O360 C357 1.238 . S
O361 Co355 2.052 . S
O361 C357 1.241 . S
O362 Co350 2.137 . S
O362 C353 1.247 . S
O363 Co350 2.244 . S
O363 C353 1.272 . S
O363 Co355 2.135 . S
Co364 O365 2.216 . S
Co364 O366 2.091 . S
Co364 O368 2.004 . S
Co364 O374 2.021 . S
Co364 O376 2.137 . S
Co364 O377 2.244 . S
O365 Co364 2.216 . S
O365 C372 1.247 . S
O366 Co364 2.091 . S
O366 C372 1.261 . S
C367 O376 1.247 . S
C367 O377 1.272 . S
O368 Co364 2.004 . S
O368 C373 1.259 . S
Co369 O370 2.061 . S
Co369 O375 2.052 . S
Co369 O377 2.135 . S
O370 Co369 2.061 . S
O370 C373 1.235 . S
C371 O374 1.238 . S
C371 O375 1.241 . S
C372 O365 1.247 . S
C372 O366 1.261 . S
C373 O368 1.259 . S
C373 O370 1.235 . S
O374 Co364 2.021 . S
O374 C371 1.238 . S
O375 Co369 2.052 . S
O375 C371 1.241 . S
O376 Co364 2.137 . S
O376 C367 1.247 . S
O377 Co364 2.244 . S
O377 C367 1.272 . S
O377 Co369 2.135 . S
Co378 O379 2.216 . S
Co378 O380 2.091 . S
Co378 O382 2.004 . S
Co378 O388 2.021 . S
Co378 O390 2.137 . S
Co378 O391 2.244 . S
O379 Co378 2.216 . S
O379 C386 1.247 . S
O380 Co378 2.091 . S
O380 C386 1.261 . S
C381 O390 1.247 . S
C381 O391 1.272 . S
O382 Co378 2.004 . S
O382 C387 1.259 . S
Co383 O384 2.061 . S
Co383 O389 2.052 . S
Co383 O391 2.135 . S
O384 Co383 2.061 . S
O384 C387 1.235 . S
C385 O388 1.238 . S
C385 O389 1.241 . S
C386 O379 1.247 . S
C386 O380 1.261 . S
C387 O382 1.259 . S
C387 O384 1.235 . S
O388 Co378 2.021 . S
O388 C385 1.238 . S
O389 Co383 2.052 . S
O389 C385 1.241 . S
O390 Co378 2.137 . S
O390 C381 1.247 . S
O391 Co378 2.244 . S
O391 C381 1.272 . S
O391 Co383 2.135 . S
Co392 O393 2.216 . S
Co392 O394 2.091 . S
Co392 O396 2.004 . S
Co392 O402 2.021 . S
Co392 O404 2.137 . S
Co392 O405 2.244 . S
O393 Co392 2.216 . S
O393 C400 1.247 . S
O394 Co392 2.091 . S
O394 C400 1.261 . S
C395 O404 1.247 . S
C395 O405 1.272 . S
O396 Co392 2.004 . S
O396 C401 1.259 . S
Co397 O398 2.061 . S
Co397 O403 2.052 . S
Co397 O405 2.135 . S
O398 Co397 2.061 . S
O398 C401 1.235 . S
C399 O402 1.238 . S
C399 O403 1.241 . S
C400 O393 1.247 . S
C400 O394 1.261 . S
C401 O396 1.259 . S
C401 O398 1.235 . S
O402 Co392 2.021 . S
O402 C399 1.238 . S
O403 Co397 2.052 . S
O403 C399 1.241 . S
O404 Co392 2.137 . S
O404 C395 1.247 . S
O405 Co392 2.244 . S
O405 C395 1.272 . S
O405 Co397 2.135 . S
Co406 O407 2.216 . S
Co406 O408 2.091 . S
Co406 O410 2.004 . S
Co406 O416 2.021 . S
Co406 O418 2.137 . S
Co406 O419 2.244 . S
O407 Co406 2.216 . S
O407 C414 1.247 . S
O408 Co406 2.091 . S
O408 C414 1.261 . S
C409 O418 1.247 . S
C409 O419 1.272 . S
O410 Co406 2.004 . S
O410 C415 1.259 . S
Co411 O412 2.061 . S
Co411 O417 2.052 . S
Co411 O419 2.135 . S
O412 Co411 2.061 . S
O412 C415 1.235 . S
C413 O416 1.238 . S
C413 O417 1.241 . S
C414 O407 1.247 . S
C414 O408 1.261 . S
C415 O410 1.259 . S
C415 O412 1.235 . S
O416 Co406 2.021 . S
O416 C413 1.238 . S
O417 Co411 2.052 . S
O417 C413 1.241 . S
O418 Co406 2.137 . S
O418 C409 1.247 . S
O419 Co406 2.244 . S
O419 C409 1.272 . S
O419 Co411 2.135 . S
Co420 O421 2.216 . S
Co420 O422 2.091 . S
Co420 O424 2.004 . S
Co420 O430 2.021 . S
Co420 O432 2.137 . S
Co420 O433 2.244 . S
O421 Co420 2.216 . S
O421 C428 1.247 . S
O422 Co420 2.091 . S
O422 C428 1.261 . S
C423 O432 1.247 . S
C423 O433 1.272 . S
O424 Co420 2.004 . S
O424 C429 1.259 . S
Co425 O426 2.061 . S
Co425 O431 2.052 . S
Co425 O433 2.135 . S
O426 Co425 2.061 . S
O426 C429 1.235 . S
C427 O430 1.238 . S
C427 O431 1.241 . S
C428 O421 1.247 . S
C428 O422 1.261 . S
C429 O424 1.259 . S
C429 O426 1.235 . S
O430 Co420 2.021 . S
O430 C427 1.238 . S
O431 Co425 2.052 . S
O431 C427 1.241 . S
O432 Co420 2.137 . S
O432 C423 1.247 . S
O433 Co420 2.244 . S
O433 C423 1.272 . S
O433 Co425 2.135 . S
Co434 O435 2.216 . S
Co434 O436 2.091 . S
Co434 O438 2.004 . S
Co434 O444 2.021 . S
Co434 O446 2.137 . S
Co434 O447 2.244 . S
O435 Co434 2.216 . S
O435 C442 1.247 . S
O436 Co434 2.091 . S
O436 C442 1.261 . S
C437 O446 1.247 . S
C437 O447 1.272 . S
O438 Co434 2.004 . S
O438 C443 1.259 . S
Co439 O440 2.061 . S
Co439 O445 2.052 . S
Co439 O447 2.135 . S
O440 Co439 2.061 . S
O440 C443 1.235 . S
C441 O444 1.238 . S
C441 O445 1.241 . S
C442 O435 1.247 . S
C442 O436 1.261 . S
C443 O438 1.259 . S
C443 O440 1.235 . S
O444 Co434 2.021 . S
O444 C441 1.238 . S
O445 Co439 2.052 . S
O445 C441 1.241 . S
O446 Co434 2.137 . S
O446 C437 1.247 . S
O447 Co434 2.244 . S
O447 C437 1.272 . S
O447 Co439 2.135 . S
C448 C449 1.369 . S
C448 C450 1.419 . S
C448 H452 0.930 . S
C449 C448 1.369 . S
C449 C458 1.429 . S
C450 C448 1.419 . S
C450 C451 1.363 . S
C450 H453 0.929 . S
C451 C450 1.363 . S
C451 C457 1.428 . S
H452 C448 0.930 . S
H453 C450 0.929 . S
S454 N455 1.613 . S
S454 N456 1.610 . S
N455 S454 1.613 . S
N455 C458 1.350 1_565 S
N456 S454 1.610 . S
N456 C457 1.351 1_565 S
C457 C451 1.428 . S
C457 N456 1.351 1_545 S
C457 C458 1.434 . S
C458 C449 1.429 . S
C458 N455 1.350 1_545 S
C458 C457 1.434 . S
C459 C460 1.369 . S
C459 C461 1.419 . S
C459 H463 0.930 . S
C460 C459 1.369 . S
C460 C469 1.429 . S
C461 C459 1.419 . S
C461 C462 1.363 . S
C461 H464 0.929 . S
C462 C461 1.363 . S
C462 C468 1.428 . S
H463 C459 0.930 . S
H464 C461 0.929 . S
S465 N466 1.614 1_565 S
S465 N467 1.610 . S
N466 S465 1.614 1_545 S
N466 C469 1.349 . S
N467 S465 1.610 . S
N467 C468 1.351 1_565 S
C468 C462 1.428 . S
C468 N467 1.351 1_545 S
C468 C469 1.434 . S
C469 C460 1.429 . S
C469 N466 1.349 . S
C469 C468 1.434 . S
C470 C471 1.369 . S
C470 C472 1.419 . S
C470 H474 0.930 . S
C471 C470 1.369 . S
C471 C480 1.429 . S
C472 C470 1.419 . S
C472 C473 1.363 . S
C472 H475 0.929 . S
C473 C472 1.363 . S
C473 C479 1.428 . S
H474 C470 0.930 . S
H475 C472 0.929 . S
S476 N477 1.613 . S
S476 N478 1.610 . S
N477 S476 1.613 . S
N477 C480 1.350 . S
N478 S476 1.610 . S
N478 C479 1.351 . S
C479 C473 1.428 . S
C479 N478 1.351 . S
C479 C480 1.434 . S
C480 C471 1.429 . S
C480 N477 1.350 . S
C480 C479 1.434 . S
C481 C482 1.369 . S
C481 C483 1.419 . S
C481 H485 0.930 . S
C482 C481 1.369 . S
C482 C491 1.429 . S
C483 C481 1.419 . S
C483 C484 1.363 . S
C483 H486 0.929 . S
C484 C483 1.363 . S
C484 C490 1.428 . S
H485 C481 0.930 . S
H486 C483 0.929 . S
S487 N488 1.613 . S
S487 N489 1.610 . S
N488 S487 1.613 . S
N488 C491 1.350 . S
N489 S487 1.610 . S
N489 C490 1.351 . S
C490 C484 1.428 . S
C490 N489 1.351 . S
C490 C491 1.434 . S
C491 C482 1.429 . S
C491 N488 1.350 . S
C491 C490 1.434 . S
C492 C493 1.369 . S
C492 C494 1.419 . S
C492 H496 0.930 . S
C493 C492 1.369 . S
C493 C502 1.429 . S
C494 C492 1.419 . S
C494 C495 1.363 . S
C494 H497 0.929 . S
C495 C494 1.363 . S
C495 C501 1.428 . S
H496 C492 0.930 . S
H497 C494 0.929 . S
S498 N499 1.613 . S
S498 N500 1.610 . S
N499 S498 1.613 . S
N499 C502 1.350 . S
N500 S498 1.610 . S
N500 C501 1.351 . S
C501 C495 1.428 . S
C501 N500 1.351 . S
C501 C502 1.434 . S
C502 C493 1.429 . S
C502 N499 1.350 . S
C502 C501 1.434 . S
C503 C504 1.369 . S
C503 C505 1.419 . S
C503 H507 0.930 . S
C504 C503 1.369 . S
C504 C513 1.429 . S
C505 C503 1.419 . S
C505 C506 1.363 . S
C505 H508 0.929 . S
C506 C505 1.363 . S
C506 C512 1.428 . S
H507 C503 0.930 . S
H508 C505 0.929 . S
S509 N510 1.613 . S
S509 N511 1.610 . S
N510 S509 1.613 . S
N510 C513 1.350 . S
N511 S509 1.610 . S
N511 C512 1.351 . S
C512 C506 1.428 . S
C512 N511 1.351 . S
C512 C513 1.434 . S
C513 C504 1.429 . S
C513 N510 1.350 . S
C513 C512 1.434 . S
C514 C515 1.369 . S
C514 C516 1.419 . S
C514 H518 0.930 . S
C515 C514 1.369 . S
C515 C524 1.429 . S
C516 C514 1.419 . S
C516 C517 1.363 . S
C516 H519 0.929 . S
C517 C516 1.363 . S
C517 C523 1.428 . S
H518 C514 0.930 . S
H519 C516 0.929 . S
S520 N521 1.613 . S
S520 N522 1.610 . S
N521 S520 1.613 . S
N521 C524 1.350 . S
N522 S520 1.610 . S
N522 C523 1.351 . S
C523 C517 1.428 . S
C523 N522 1.351 . S
C523 C524 1.434 . S
C524 C515 1.429 . S
C524 N521 1.350 . S
C524 C523 1.434 . S
C525 C526 1.369 . S
C525 C527 1.419 . S
C525 H529 0.930 . S
C526 C525 1.369 . S
C526 C535 1.429 . S
C527 C525 1.419 . S
C527 C528 1.363 . S
C527 H530 0.929 . S
C528 C527 1.363 . S
C528 C534 1.428 . S
H529 C525 0.930 . S
H530 C527 0.929 . S
S531 N532 1.613 . S
S531 N533 1.610 . S
N532 S531 1.613 . S
N532 C535 1.350 . S
N533 S531 1.610 . S
N533 C534 1.351 . S
C534 C528 1.428 . S
C534 N533 1.351 . S
C534 C535 1.434 . S
C535 C526 1.429 . S
C535 N532 1.350 . S
C535 C534 1.434 . S
C536 C537 1.369 . S
C536 C538 1.419 . S
C536 H540 0.930 . S
C537 C536 1.369 . S
C537 C546 1.429 . S
C538 C536 1.419 . S
C538 C539 1.363 . S
C538 H541 0.929 . S
C539 C538 1.363 . S
C539 C545 1.428 . S
H540 C536 0.930 . S
H541 C538 0.929 . S
S542 N543 1.613 1_565 S
S542 N544 1.610 1_565 S
N543 S542 1.613 1_545 S
N543 C546 1.350 . S
N544 S542 1.610 1_545 S
N544 C545 1.351 . S
C545 C539 1.428 . S
C545 N544 1.351 . S
C545 C546 1.434 . S
C546 C537 1.429 . S
C546 N543 1.350 . S
C546 C545 1.434 . S
C547 C548 1.369 . S
C547 C549 1.419 . S
C547 H551 0.930 . S
C548 C547 1.369 . S
C548 C557 1.429 . S
C549 C547 1.419 . S
C549 C550 1.363 . S
C549 H552 0.929 . S
C550 C549 1.363 . S
C550 C556 1.428 . S
H551 C547 0.930 . S
H552 C549 0.929 . S
S553 N554 1.613 . S
S553 N555 1.610 . S
N554 S553 1.613 . S
N554 C557 1.350 . S
N555 S553 1.610 . S
N555 C556 1.351 . S
C556 C550 1.428 . S
C556 N555 1.351 . S
C556 C557 1.434 . S
C557 C548 1.429 . S
C557 N554 1.350 . S
C557 C556 1.434 . S
C558 C559 1.369 . S
C558 C560 1.419 . S
C558 H562 0.930 . S
C559 C558 1.369 . S
C559 C568 1.429 . S
C560 C558 1.419 . S
C560 C561 1.363 . S
C560 H563 0.929 . S
C561 C560 1.363 . S
C561 C567 1.428 . S
H562 C558 0.930 . S
H563 C560 0.929 . S
S564 N565 1.613 . S
S564 N566 1.610 . S
N565 S564 1.613 . S
N565 C568 1.350 . S
N566 S564 1.610 . S
N566 C567 1.351 . S
C567 C561 1.428 . S
C567 N566 1.351 . S
C567 C568 1.434 . S
C568 C559 1.429 . S
C568 N565 1.350 . S
C568 C567 1.434 . S
C569 C570 1.369 . S
C569 C571 1.419 . S
C569 H573 0.930 . S
C570 C569 1.369 . S
C570 C579 1.429 . S
C571 C569 1.419 . S
C571 C572 1.363 . S
C571 H574 0.929 . S
C572 C571 1.363 . S
C572 C578 1.428 . S
H573 C569 0.930 . S
H574 C571 0.929 . S
S575 N576 1.613 1_545 S
S575 N577 1.610 1_545 S
N576 S575 1.613 1_565 S
N576 C579 1.350 . S
N577 S575 1.610 1_565 S
N577 C578 1.351 . S
C578 C572 1.428 . S
C578 N577 1.351 . S
C578 C579 1.434 . S
C579 C570 1.429 . S
C579 N576 1.350 . S
C579 C578 1.434 . S
C580 C581 1.369 . S
C580 C582 1.419 . S
C580 H584 0.930 . S
C581 C580 1.369 . S
C581 C590 1.429 . S
C582 C580 1.419 . S
C582 C583 1.363 . S
C582 H585 0.929 . S
C583 C582 1.363 . S
C583 C589 1.428 . S
H584 C580 0.930 . S
H585 C582 0.929 . S
S586 N587 1.613 . S
S586 N588 1.610 . S
N587 S586 1.613 . S
N587 C590 1.350 . S
N588 S586 1.610 . S
N588 C589 1.351 . S
C589 C583 1.428 . S
C589 N588 1.351 . S
C589 C590 1.434 . S
C590 C581 1.429 . S
C590 N587 1.350 . S
C590 C589 1.434 . S
C591 C592 1.369 . S
C591 C593 1.419 . S
C591 H595 0.930 . S
C592 C591 1.369 . S
C592 C601 1.429 . S
C593 C591 1.419 . S
C593 C594 1.363 . S
C593 H596 0.929 . S
C594 C593 1.363 . S
C594 C600 1.428 . S
H595 C591 0.930 . S
H596 C593 0.929 . S
S597 N598 1.613 . S
S597 N599 1.610 . S
N598 S597 1.613 . S
N598 C601 1.350 . S
N599 S597 1.610 . S
N599 C600 1.351 . S
C600 C594 1.428 . S
C600 N599 1.351 . S
C600 C601 1.434 . S
C601 C592 1.429 . S
C601 N598 1.350 . S
C601 C600 1.434 . S
C602 C603 1.369 . S
C602 C604 1.419 . S
C602 H606 0.930 . S
C603 C602 1.369 . S
C603 C612 1.429 . S
C604 C602 1.419 . S
C604 C605 1.363 . S
C604 H607 0.929 . S
C605 C604 1.363 . S
C605 C611 1.428 . S
H606 C602 0.930 . S
H607 C604 0.929 . S
S608 N609 1.613 . S
S608 N610 1.610 . S
N609 S608 1.613 . S
N609 C612 1.350 . S
N610 S608 1.610 . S
N610 C611 1.351 . S
C611 C605 1.428 . S
C611 N610 1.351 . S
C611 C612 1.434 . S
C612 C603 1.429 . S
C612 N609 1.350 . S
C612 C611 1.434 . S
C613 C614 1.369 . S
C613 C615 1.419 . S
C613 H617 0.930 . S
C614 C613 1.369 . S
C614 C623 1.429 . S
C615 C613 1.419 . S
C615 C616 1.363 . S
C615 H618 0.929 . S
C616 C615 1.363 . S
C616 C622 1.428 . S
H617 C613 0.930 . S
H618 C615 0.929 . S
S619 N620 1.613 . S
S619 N621 1.610 . S
N620 S619 1.613 . S
N620 C623 1.350 . S
N621 S619 1.610 . S
N621 C622 1.351 . S
C622 C616 1.428 . S
C622 N621 1.351 . S
C622 C623 1.434 . S
C623 C614 1.429 . S
C623 N620 1.350 . S
C623 C622 1.434 . S
C624 C625 1.369 . S
C624 C626 1.419 1_455 S
C624 H628 0.930 . S
C625 C624 1.369 . S
C625 C634 1.429 . S
C626 C624 1.419 1_655 S
C626 C627 1.363 . S
C626 H629 0.929 . S
C627 C626 1.363 . S
C627 C633 1.428 . S
H628 C624 0.930 . S
H629 C626 0.929 . S
S630 N631 1.613 1_655 S
S630 N632 1.610 . S
N631 S630 1.613 1_455 S
N631 C634 1.350 . S
N632 S630 1.610 . S
N632 C633 1.351 . S
C633 C627 1.428 . S
C633 N632 1.351 . S
C633 C634 1.434 1_655 S
C634 C625 1.429 . S
C634 N631 1.350 . S
C634 C633 1.434 1_455 S
C635 C636 1.369 . S
C635 C637 1.419 . S
C635 H639 0.930 . S
C636 C635 1.369 . S
C636 C645 1.429 1_545 S
C637 C635 1.419 . S
C637 C638 1.363 1_545 S
C637 H640 0.929 . S
C638 C637 1.363 1_565 S
C638 C644 1.428 . S
H639 C635 0.930 . S
H640 C637 0.929 . S
S641 N642 1.613 . S
S641 N643 1.610 . S
N642 S641 1.613 . S
N642 C645 1.350 . S
N643 S641 1.610 . S
N643 C644 1.351 . S
C644 C638 1.428 . S
C644 N643 1.351 . S
C644 C645 1.434 . S
C645 C636 1.429 1_565 S
C645 N642 1.350 . S
C645 C644 1.434 . S
C646 C647 1.369 1_565 S
C646 C648 1.435 . S
C646 H650 0.930 . S
C647 C646 1.369 1_545 S
C647 C656 1.395 1_456 S
C648 C646 1.435 . S
C648 C649 1.345 1_456 S
C648 H651 0.931 . S
C649 C648 1.345 1_654 S
C649 C655 1.428 1_565 S
H650 C646 0.930 . S
H651 C648 0.931 . S
S652 N653 1.613 . S
S652 N654 1.610 . S
N653 S652 1.613 . S
N653 C656 1.356 . S
N654 S652 1.610 . S
N654 C655 1.351 . S
C655 C649 1.428 1_545 S
C655 N654 1.351 . S
C655 C656 1.466 . S
C656 C647 1.395 1_654 S
C656 N653 1.356 . S
C656 C655 1.466 . S
C657 C658 1.376 . S
C657 C659 1.412 1_556 S
C657 H661 0.930 . S
C658 C657 1.376 . S
C658 C667 1.429 . S
C659 C657 1.412 1_554 S
C659 C660 1.363 . S
C659 H662 0.929 . S
C660 C659 1.363 . S
C660 C666 1.436 . S
H661 C657 0.930 . S
H662 C659 0.929 . S
S663 N664 1.613 . S
S663 N665 1.601 1_556 S
N664 S663 1.613 . S
N664 C667 1.350 . S
N665 S663 1.601 1_554 S
N665 C666 1.351 . S
C666 C660 1.436 . S
C666 N665 1.351 . S
C666 C667 1.426 1_554 S
C667 C658 1.429 . S
C667 N664 1.350 . S
C667 C666 1.426 1_556 S
C668 C669 1.369 1_455 S
C668 C670 1.419 . S
C668 H672 0.930 . S
C669 C668 1.369 1_655 S
C669 C678 1.429 . S
C670 C668 1.419 . S
C670 C671 1.363 . S
C670 H673 0.929 . S
C671 C670 1.363 . S
C671 C677 1.428 1_455 S
H672 C668 0.930 . S
H673 C670 0.929 . S
S674 N675 1.613 . S
S674 N676 1.610 . S
N675 S674 1.613 . S
N675 C678 1.350 . S
N676 S674 1.610 . S
N676 C677 1.351 . S
C677 C671 1.428 1_655 S
C677 N676 1.351 . S
C677 C678 1.434 . S
C678 C669 1.429 . S
C678 N675 1.350 . S
C678 C677 1.434 . S
C679 C680 1.369 . S
C679 C681 1.419 . S
C679 H683 0.930 . S
C680 C679 1.369 . S
C680 C689 1.429 1_545 S
C681 C679 1.419 . S
C681 C682 1.363 1_545 S
C681 H684 0.929 . S
C682 C681 1.363 1_565 S
C682 C688 1.428 . S
H683 C679 0.930 . S
H684 C681 0.929 . S
S685 N686 1.613 . S
S685 N687 1.610 . S
N686 S685 1.613 . S
N686 C689 1.350 . S
N687 S685 1.610 . S
N687 C688 1.351 . S
C688 C682 1.428 . S
C688 N687 1.351 . S
C688 C689 1.434 . S
C689 C680 1.429 1_565 S
C689 N686 1.350 . S
C689 C688 1.434 . S
C690 C691 1.369 1_554 S
C690 C692 1.419 . S
C690 H694 0.930 . S
C691 C690 1.369 1_556 S
C691 C700 1.429 . S
C692 C690 1.419 . S
C692 C693 1.363 . S
C692 H695 0.929 . S
C693 C692 1.363 . S
C693 C699 1.428 1_554 S
H694 C690 0.930 . S
H695 C692 0.929 . S
S696 N697 1.613 . S
S696 N698 1.610 . S
N697 S696 1.613 . S
N697 C700 1.350 . S
N698 S696 1.610 . S
N698 C699 1.351 . S
C699 C693 1.428 1_556 S
C699 N698 1.351 . S
C699 C700 1.434 . S
C700 C691 1.429 . S
C700 N697 1.350 . S
C700 C699 1.434 . S
C701 C702 1.369 . S
C701 C703 1.419 . S
C701 H705 0.930 . S
C702 C701 1.369 . S
C702 C711 1.429 . S
C703 C701 1.419 . S
C703 C704 1.363 . S
C703 H706 0.929 . S
C704 C703 1.363 . S
C704 C710 1.428 . S
H705 C701 0.930 . S
H706 C703 0.929 . S
S707 N708 1.613 . S
S707 N709 1.610 . S
N708 S707 1.613 . S
N708 C711 1.350 . S
N709 S707 1.610 . S
N709 C710 1.351 . S
C710 C704 1.428 . S
C710 N709 1.351 . S
C710 C711 1.434 . S
C711 C702 1.429 . S
C711 N708 1.350 . S
C711 C710 1.434 . S
C712 C713 1.369 1_655 S
C712 C714 1.419 . S
C712 H716 0.930 . S
C713 C712 1.369 1_455 S
C713 C722 1.429 . S
C714 C712 1.419 . S
C714 C715 1.363 . S
C714 H717 0.929 . S
C715 C714 1.363 . S
C715 C721 1.428 1_655 S
H716 C712 0.930 . S
H717 C714 0.929 . S
S718 N719 1.613 . S
S718 N720 1.610 . S
N719 S718 1.613 . S
N719 C722 1.350 . S
N720 S718 1.610 . S
N720 C721 1.351 . S
C721 C715 1.428 1_455 S
C721 N720 1.351 . S
C721 C722 1.434 . S
C722 C713 1.429 . S
C722 N719 1.350 . S
C722 C721 1.434 . S
C723 C724 1.369 . S
C723 C725 1.419 . S
C723 H727 0.930 . S
C724 C723 1.369 . S
C724 C733 1.429 . S
C725 C723 1.419 . S
C725 C726 1.363 . S
C725 H728 0.929 . S
C726 C725 1.363 . S
C726 C732 1.428 . S
H727 C723 0.930 . S
H728 C725 0.929 . S
S729 N730 1.613 . S
S729 N731 1.610 . S
N730 S729 1.613 . S
N730 C733 1.350 . S
N731 S729 1.610 . S
N731 C732 1.351 . S
C732 C726 1.428 . S
C732 N731 1.351 . S
C732 C733 1.434 . S
C733 C724 1.429 . S
C733 N730 1.350 . S
C733 C732 1.434 . S
C734 C735 1.369 . S
C734 C736 1.419 . S
C734 H738 0.930 . S
C735 C734 1.369 . S
C735 C744 1.429 . S
C736 C734 1.419 . S
C736 C737 1.363 . S
C736 H739 0.929 . S
C737 C736 1.363 . S
C737 C743 1.428 . S
H738 C734 0.930 . S
H739 C736 0.929 . S
S740 N741 1.613 . S
S740 N742 1.610 . S
N741 S740 1.613 . S
N741 C744 1.350 . S
N742 S740 1.610 . S
N742 C743 1.351 . S
C743 C737 1.428 . S
C743 N742 1.351 . S
C743 C744 1.434 . S
C744 C735 1.429 . S
C744 N741 1.350 . S
C744 C743 1.434 . S
C745 C746 1.369 . S
C745 C747 1.419 . S
C745 H749 0.930 . S
C746 C745 1.369 . S
C746 C755 1.429 . S
C747 C745 1.419 . S
C747 C748 1.363 . S
C747 H750 0.929 . S
C748 C747 1.363 . S
C748 C754 1.428 . S
H749 C745 0.930 . S
H750 C747 0.929 . S
S751 N752 1.613 . S
S751 N753 1.610 . S
N752 S751 1.613 . S
N752 C755 1.350 . S
N753 S751 1.610 . S
N753 C754 1.351 . S
C754 C748 1.428 . S
C754 N753 1.351 . S
C754 C755 1.434 . S
C755 C746 1.429 . S
C755 N752 1.350 . S
C755 C754 1.434 . S
C756 C757 1.369 . S
C756 C758 1.419 . S
C756 H760 0.930 . S
C757 C756 1.369 . S
C757 C766 1.429 . S
C758 C756 1.419 . S
C758 C759 1.363 . S
C758 H761 0.929 . S
C759 C758 1.363 . S
C759 C765 1.428 . S
H760 C756 0.930 . S
H761 C758 0.929 . S
S762 N763 1.613 . S
S762 N764 1.610 . S
N763 S762 1.613 . S
N763 C766 1.350 . S
N764 S762 1.610 . S
N764 C765 1.351 . S
C765 C759 1.428 . S
C765 N764 1.351 . S
C765 C766 1.434 . S
C766 C757 1.429 . S
C766 N763 1.350 . S
C766 C765 1.434 . S
C767 C768 1.369 . S
C767 C769 1.419 . S
C767 H771 0.930 . S
C768 C767 1.369 . S
C768 C777 1.429 1_565 S
C769 C767 1.419 . S
C769 C770 1.363 1_565 S
C769 H772 0.929 . S
C770 C769 1.363 1_545 S
C770 C776 1.428 . S
H771 C767 0.930 . S
H772 C769 0.929 . S
S773 N774 1.613 . S
S773 N775 1.610 . S
N774 S773 1.613 . S
N774 C777 1.350 . S
N775 S773 1.610 . S
N775 C776 1.351 . S
C776 C770 1.428 . S
C776 N775 1.351 . S
C776 C777 1.434 . S
C777 C768 1.429 1_545 S
C777 N774 1.350 . S
C777 C776 1.434 . S
C778 C779 1.369 . S
C778 C780 1.419 . S
C778 H782 0.930 . S
C779 C778 1.369 . S
C779 C788 1.429 . S
C780 C778 1.419 . S
C780 C781 1.363 . S
C780 H783 0.929 . S
C781 C780 1.363 . S
C781 C787 1.428 . S
H782 C778 0.930 . S
H783 C780 0.929 . S
S784 N785 1.613 . S
S784 N786 1.610 . S
N785 S784 1.613 . S
N785 C788 1.350 . S
N786 S784 1.610 . S
N786 C787 1.351 . S
C787 C781 1.428 . S
C787 N786 1.351 . S
C787 C788 1.434 . S
C788 C779 1.429 . S
C788 N785 1.350 . S
C788 C787 1.434 . S
C789 C790 1.369 . S
C789 C791 1.419 . S
C789 H793 0.930 . S
C790 C789 1.369 . S
C790 C799 1.429 1_554 S
C791 C789 1.419 . S
C791 C792 1.363 1_554 S
C791 H794 0.929 . S
C792 C791 1.363 1_556 S
C792 C798 1.428 . S
H793 C789 0.930 . S
H794 C791 0.929 . S
S795 N796 1.613 . S
S795 N797 1.610 . S
N796 S795 1.613 . S
N796 C799 1.350 . S
N797 S795 1.610 . S
N797 C798 1.351 . S
C798 C792 1.428 . S
C798 N797 1.351 . S
C798 C799 1.434 . S
C799 C790 1.429 1_556 S
C799 N796 1.350 . S
C799 C798 1.434 . S
C800 C801 1.369 . S
C800 C802 1.419 . S
C800 H804 0.930 . S
C801 C800 1.369 . S
C801 C810 1.429 . S
C802 C800 1.419 . S
C802 C803 1.363 . S
C802 H805 0.929 . S
C803 C802 1.363 . S
C803 C809 1.428 . S
H804 C800 0.930 . S
H805 C802 0.929 . S
S806 N807 1.613 . S
S806 N808 1.610 . S
N807 S806 1.613 . S
N807 C810 1.350 . S
N808 S806 1.610 . S
N808 C809 1.351 . S
C809 C803 1.428 . S
C809 N808 1.351 . S
C809 C810 1.434 . S
C810 C801 1.429 . S
C810 N807 1.350 . S
C810 C809 1.434 . S
C811 C812 1.369 . S
C811 C813 1.419 . S
C811 H815 0.930 . S
C812 C811 1.369 . S
C812 C821 1.429 . S
C813 C811 1.419 . S
C813 C814 1.363 . S
C813 H816 0.929 . S
C814 C813 1.363 . S
C814 C820 1.428 . S
H815 C811 0.930 . S
H816 C813 0.929 . S
S817 N818 1.613 . S
S817 N819 1.610 . S
N818 S817 1.613 . S
N818 C821 1.350 . S
N819 S817 1.610 . S
N819 C820 1.351 . S
C820 C814 1.428 . S
C820 N819 1.351 . S
C820 C821 1.434 . S
C821 C812 1.429 . S
C821 N818 1.350 . S
C821 C820 1.434 . S
C822 C823 1.369 . S
C822 C824 1.419 . S
C822 H826 0.930 . S
C823 C822 1.369 . S
C823 C832 1.429 . S
C824 C822 1.419 . S
C824 C825 1.363 . S
C824 H827 0.929 . S
C825 C824 1.363 . S
C825 C831 1.428 . S
H826 C822 0.930 . S
H827 C824 0.929 . S
S828 N829 1.613 . S
S828 N830 1.610 . S
N829 S828 1.613 . S
N829 C832 1.350 . S
N830 S828 1.610 . S
N830 C831 1.351 . S
C831 C825 1.428 . S
C831 N830 1.351 . S
C831 C832 1.434 . S
C832 C823 1.429 . S
C832 N829 1.350 . S
C832 C831 1.434 . S
C833 C834 1.369 . S
C833 C835 1.419 . S
C833 H837 0.930 . S
C834 C833 1.369 . S
C834 C843 1.429 . S
C835 C833 1.419 . S
C835 C836 1.363 . S
C835 H838 0.929 . S
C836 C835 1.363 . S
C836 C842 1.428 . S
H837 C833 0.930 . S
H838 C835 0.929 . S
S839 N840 1.613 . S
S839 N841 1.610 . S
N840 S839 1.613 . S
N840 C843 1.350 . S
N841 S839 1.610 . S
N841 C842 1.351 . S
C842 C836 1.428 . S
C842 N841 1.351 . S
C842 C843 1.434 . S
C843 C834 1.429 . S
C843 N840 1.350 . S
C843 C842 1.434 . S
C844 C845 1.369 . S
C844 C846 1.419 . S
C844 H848 0.930 . S
C845 C844 1.369 . S
C845 C854 1.429 . S
C846 C844 1.419 . S
C846 C847 1.363 . S
C846 H849 0.929 . S
C847 C846 1.363 . S
C847 C853 1.428 . S
H848 C844 0.930 . S
H849 C846 0.929 . S
S850 N851 1.613 . S
S850 N852 1.610 . S
N851 S850 1.613 . S
N851 C854 1.350 . S
N852 S850 1.610 . S
N852 C853 1.351 . S
C853 C847 1.428 . S
C853 N852 1.351 . S
C853 C854 1.434 . S
C854 C845 1.429 . S
C854 N851 1.350 . S
C854 C853 1.434 . S
C855 C856 1.369 . S
C855 C857 1.419 . S
C855 H859 0.930 . S
C856 C855 1.369 . S
C856 C865 1.429 . S
C857 C855 1.419 . S
C857 C858 1.363 . S
C857 H860 0.929 . S
C858 C857 1.363 . S
C858 C864 1.428 . S
H859 C855 0.930 . S
H860 C857 0.929 . S
S861 N862 1.613 . S
S861 N863 1.610 . S
N862 S861 1.613 . S
N862 C865 1.350 . S
N863 S861 1.610 . S
N863 C864 1.351 . S
C864 C858 1.428 . S
C864 N863 1.351 . S
C864 C865 1.434 . S
C865 C856 1.429 . S
C865 N862 1.350 . S
C865 C864 1.434 . S
C866 C867 1.369 . S
C866 C868 1.419 . S
C866 H870 0.930 . S
C867 C866 1.369 . S
C867 C876 1.429 . S
C868 C866 1.419 . S
C868 C869 1.363 . S
C868 H871 0.929 . S
C869 C868 1.363 . S
C869 C875 1.428 . S
H870 C866 0.930 . S
H871 C868 0.929 . S
S872 N873 1.613 . S
S872 N874 1.610 . S
N873 S872 1.613 . S
N873 C876 1.350 . S
N874 S872 1.610 . S
N874 C875 1.351 . S
C875 C869 1.428 . S
C875 N874 1.351 . S
C875 C876 1.434 . S
C876 C867 1.429 . S
C876 N873 1.350 . S
C876 C875 1.434 . S
C877 C878 1.369 . S
C877 C879 1.419 . S
C877 H881 0.930 . S
C878 C877 1.369 . S
C878 C887 1.429 . S
C879 C877 1.419 . S
C879 C880 1.363 . S
C879 H882 0.929 . S
C880 C879 1.363 . S
C880 C886 1.428 . S
H881 C877 0.930 . S
H882 C879 0.929 . S
S883 N884 1.613 . S
S883 N885 1.610 . S
N884 S883 1.613 . S
N884 C887 1.350 . S
N885 S883 1.610 . S
N885 C886 1.351 . S
C886 C880 1.428 . S
C886 N885 1.351 . S
C886 C887 1.434 . S
C887 C878 1.429 . S
C887 N884 1.350 . S
C887 C886 1.434 . S
C888 C889 1.369 . S
C888 C890 1.419 . S
C888 H892 0.930 . S
C889 C888 1.369 . S
C889 C898 1.429 . S
C890 C888 1.419 . S
C890 C891 1.363 . S
C890 H893 0.929 . S
C891 C890 1.363 . S
C891 C897 1.428 . S
H892 C888 0.930 . S
H893 C890 0.929 . S
S894 N895 1.613 . S
S894 N896 1.610 . S
N895 S894 1.613 . S
N895 C898 1.350 . S
N896 S894 1.610 . S
N896 C897 1.351 . S
C897 C891 1.428 . S
C897 N896 1.351 . S
C897 C898 1.434 . S
C898 C889 1.429 . S
C898 N895 1.350 . S
C898 C897 1.434 . S
C899 C900 1.369 . S
C899 C901 1.419 . S
C899 H903 0.930 . S
C900 C899 1.369 . S
C900 C909 1.429 . S
C901 C899 1.419 . S
C901 C902 1.363 . S
C901 H904 0.929 . S
C902 C901 1.363 . S
C902 C908 1.428 . S
H903 C899 0.930 . S
H904 C901 0.929 . S
S905 N906 1.613 . S
S905 N907 1.610 . S
N906 S905 1.613 . S
N906 C909 1.350 . S
N907 S905 1.610 . S
N907 C908 1.351 . S
C908 C902 1.428 . S
C908 N907 1.351 . S
C908 C909 1.434 . S
C909 C900 1.429 . S
C909 N906 1.350 . S
C909 C908 1.434 . S
C910 C911 1.369 . S
C910 C912 1.419 . S
C910 H914 0.930 . S
C911 C910 1.369 . S
C911 C920 1.429 . S
C912 C910 1.419 . S
C912 C913 1.363 . S
C912 H915 0.929 . S
C913 C912 1.363 . S
C913 C919 1.428 . S
H914 C910 0.930 . S
H915 C912 0.929 . S
S916 N917 1.613 . S
S916 N918 1.610 . S
N917 S916 1.613 . S
N917 C920 1.350 . S
N918 S916 1.610 . S
N918 C919 1.351 . S
C919 C913 1.428 . S
C919 N918 1.351 . S
C919 C920 1.434 . S
C920 C911 1.429 . S
C920 N917 1.350 . S
C920 C919 1.434 . S
C921 C922 1.369 . S
C921 C923 1.419 . S
C921 H925 0.930 . S
C922 C921 1.369 . S
C922 C931 1.429 . S
C923 C921 1.419 . S
C923 C924 1.363 . S
C923 H926 0.929 . S
C924 C923 1.363 . S
C924 C930 1.428 . S
H925 C921 0.930 . S
H926 C923 0.929 . S
S927 N928 1.613 . S
S927 N929 1.610 . S
N928 S927 1.613 . S
N928 C931 1.350 . S
N929 S927 1.610 . S
N929 C930 1.351 . S
C930 C924 1.428 . S
C930 N929 1.351 . S
C930 C931 1.434 . S
C931 C922 1.429 . S
C931 N928 1.350 . S
C931 C930 1.434 . S
C932 C933 1.369 . S
C932 C934 1.419 . S
C932 H936 0.930 . S
C933 C932 1.369 . S
C933 C942 1.429 . S
C934 C932 1.419 . S
C934 C935 1.363 . S
C934 H937 0.929 . S
C935 C934 1.363 . S
C935 C941 1.428 . S
H936 C932 0.930 . S
H937 C934 0.929 . S
S938 N939 1.613 . S
S938 N940 1.610 . S
N939 S938 1.613 . S
N939 C942 1.350 . S
N940 S938 1.610 . S
N940 C941 1.351 . S
C941 C935 1.428 . S
C941 N940 1.351 . S
C941 C942 1.434 . S
C942 C933 1.429 . S
C942 N939 1.350 . S
C942 C941 1.434 . S
C943 C944 1.369 . S
C943 C945 1.419 . S
C943 H947 0.930 . S
C944 C943 1.369 . S
C944 C953 1.429 . S
C945 C943 1.419 . S
C945 C946 1.363 . S
C945 H948 0.929 . S
C946 C945 1.363 . S
C946 C952 1.428 . S
H947 C943 0.930 . S
H948 C945 0.929 . S
S949 N950 1.613 . S
S949 N951 1.610 . S
N950 S949 1.613 . S
N950 C953 1.350 . S
N951 S949 1.610 . S
N951 C952 1.351 . S
C952 C946 1.428 . S
C952 N951 1.351 . S
C952 C953 1.434 . S
C953 C944 1.429 . S
C953 N950 1.350 . S
C953 C952 1.434 . S
C954 C955 1.369 . S
C954 C956 1.419 . S
C954 H958 0.930 . S
C955 C954 1.369 . S
C955 C964 1.429 . S
C956 C954 1.419 . S
C956 C957 1.363 . S
C956 H959 0.929 . S
C957 C956 1.363 . S
C957 C963 1.428 . S
H958 C954 0.930 . S
H959 C956 0.929 . S
S960 N961 1.613 . S
S960 N962 1.610 . S
N961 S960 1.613 . S
N961 C964 1.350 . S
N962 S960 1.610 . S
N962 C963 1.351 . S
C963 C957 1.428 . S
C963 N962 1.351 . S
C963 C964 1.434 . S
C964 C955 1.429 . S
C964 N961 1.350 . S
C964 C963 1.434 . S
C965 C966 1.369 . S
C965 C967 1.419 . S
C965 H969 0.930 . S
C966 C965 1.369 . S
C966 C975 1.429 . S
C967 C965 1.419 . S
C967 C968 1.363 . S
C967 H970 0.929 . S
C968 C967 1.363 . S
C968 C974 1.428 . S
H969 C965 0.930 . S
H970 C967 0.929 . S
S971 N972 1.613 . S
S971 N973 1.610 . S
N972 S971 1.613 . S
N972 C975 1.350 . S
N973 S971 1.610 . S
N973 C974 1.351 . S
C974 C968 1.428 . S
C974 N973 1.351 . S
C974 C975 1.434 . S
C975 C966 1.429 . S
C975 N972 1.350 . S
C975 C974 1.434 . S
C976 C977 1.369 . S
C976 C978 1.419 . S
C976 H980 0.930 . S
C977 C976 1.369 . S
C977 C986 1.429 . S
C978 C976 1.419 . S
C978 C979 1.363 . S
C978 H981 0.929 . S
C979 C978 1.363 . S
C979 C985 1.428 . S
H980 C976 0.930 . S
H981 C978 0.929 . S
S982 N983 1.613 . S
S982 N984 1.610 . S
N983 S982 1.613 . S
N983 C986 1.350 . S
N984 S982 1.610 . S
N984 C985 1.351 . S
C985 C979 1.428 . S
C985 N984 1.351 . S
C985 C986 1.434 . S
C986 C977 1.429 . S
C986 N983 1.350 . S
C986 C985 1.434 . S
C987 C988 1.369 . S
C987 C989 1.419 . S
C987 H991 0.930 . S
C988 C987 1.369 . S
C988 C997 1.429 . S
C989 C987 1.419 . S
C989 C990 1.363 . S
C989 H992 0.929 . S
C990 C989 1.363 . S
C990 C996 1.428 . S
H991 C987 0.930 . S
H992 C989 0.929 . S
S993 N994 1.613 . S
S993 N995 1.610 . S
N994 S993 1.613 . S
N994 C997 1.350 . S
N995 S993 1.610 . S
N995 C996 1.351 . S
C996 C990 1.428 . S
C996 N995 1.351 . S
C996 C997 1.434 . S
C997 C988 1.429 . S
C997 N994 1.350 . S
C997 C996 1.434 . S
C998 C999 1.369 . S
C998 C1000 1.419 . S
C998 H1002 0.930 . S
C999 C998 1.369 . S
C999 C1008 1.429 . S
C1000 C998 1.419 . S
C1000 C1001 1.363 . S
C1000 H1003 0.929 . S
C1001 C1000 1.363 . S
C1001 C1007 1.428 . S
H1002 C998 0.930 . S
H1003 C1000 0.929 . S
S1004 N1005 1.613 . S
S1004 N1006 1.610 . S
N1005 S1004 1.613 . S
N1005 C1008 1.350 . S
N1006 S1004 1.610 . S
N1006 C1007 1.351 . S
C1007 C1001 1.428 . S
C1007 N1006 1.351 . S
C1007 C1008 1.434 . S
C1008 C999 1.429 . S
C1008 N1005 1.350 . S
C1008 C1007 1.434 . S
C1009 C1010 1.369 . S
C1009 C1011 1.419 . S
C1009 H1013 0.930 . S
C1010 C1009 1.369 . S
C1010 C1019 1.429 . S
C1011 C1009 1.419 . S
C1011 C1012 1.363 . S
C1011 H1014 0.929 . S
C1012 C1011 1.363 . S
C1012 C1018 1.428 . S
H1013 C1009 0.930 . S
H1014 C1011 0.929 . S
S1015 N1016 1.613 . S
S1015 N1017 1.610 . S
N1016 S1015 1.613 . S
N1016 C1019 1.350 . S
N1017 S1015 1.610 . S
N1017 C1018 1.351 . S
C1018 C1012 1.428 . S
C1018 N1017 1.351 . S
C1018 C1019 1.434 . S
C1019 C1010 1.429 . S
C1019 N1016 1.350 . S
C1019 C1018 1.434 . S
C1020 C1021 1.369 . S
C1020 C1022 1.419 . S
C1020 H1024 0.930 . S
C1021 C1020 1.369 . S
C1021 C1030 1.429 . S
C1022 C1020 1.419 . S
C1022 C1023 1.363 . S
C1022 H1025 0.929 . S
C1023 C1022 1.363 . S
C1023 C1029 1.428 . S
H1024 C1020 0.930 . S
H1025 C1022 0.929 . S
S1026 N1027 1.613 . S
S1026 N1028 1.610 . S
N1027 S1026 1.613 . S
N1027 C1030 1.350 . S
N1028 S1026 1.610 . S
N1028 C1029 1.351 . S
C1029 C1023 1.428 . S
C1029 N1028 1.351 . S
C1029 C1030 1.434 . S
C1030 C1021 1.429 . S
C1030 N1027 1.350 . S
C1030 C1029 1.434 . S
C1031 C1032 1.369 . S
C1031 C1033 1.419 . S
C1031 H1035 0.930 . S
C1032 C1031 1.369 . S
C1032 C1041 1.429 . S
C1033 C1031 1.419 . S
C1033 C1034 1.363 . S
C1033 H1036 0.929 . S
C1034 C1033 1.363 . S
C1034 C1040 1.428 . S
H1035 C1031 0.930 . S
H1036 C1033 0.929 . S
S1037 N1038 1.613 . S
S1037 N1039 1.610 . S
N1038 S1037 1.613 . S
N1038 C1041 1.350 . S
N1039 S1037 1.610 . S
N1039 C1040 1.351 . S
C1040 C1034 1.428 . S
C1040 N1039 1.351 . S
C1040 C1041 1.434 . S
C1041 C1032 1.429 . S
C1041 N1038 1.350 . S
C1041 C1040 1.434 . S
C1042 C1043 1.369 . S
C1042 C1044 1.419 . S
C1042 H1046 0.930 . S
C1043 C1042 1.369 . S
C1043 C1052 1.429 . S
C1044 C1042 1.419 . S
C1044 C1045 1.363 . S
C1044 H1047 0.929 . S
C1045 C1044 1.363 . S
C1045 C1051 1.428 . S
H1046 C1042 0.930 . S
H1047 C1044 0.929 . S
S1048 N1049 1.613 . S
S1048 N1050 1.610 . S
N1049 S1048 1.613 . S
N1049 C1052 1.350 . S
N1050 S1048 1.610 . S
N1050 C1051 1.351 . S
C1051 C1045 1.428 . S
C1051 N1050 1.351 . S
C1051 C1052 1.434 . S
C1052 C1043 1.429 . S
C1052 N1049 1.350 . S
C1052 C1051 1.434 . S
C1053 C1054 1.369 . S
C1053 C1055 1.419 . S
C1053 H1057 0.930 . S
C1054 C1053 1.369 . S
C1054 C1063 1.429 . S
C1055 C1053 1.419 . S
C1055 C1056 1.363 . S
C1055 H1058 0.929 . S
C1056 C1055 1.363 . S
C1056 C1062 1.428 . S
H1057 C1053 0.930 . S
H1058 C1055 0.929 . S
S1059 N1060 1.613 . S
S1059 N1061 1.610 . S
N1060 S1059 1.613 . S
N1060 C1063 1.350 . S
N1061 S1059 1.610 . S
N1061 C1062 1.351 . S
C1062 C1056 1.428 . S
C1062 N1061 1.351 . S
C1062 C1063 1.434 . S
C1063 C1054 1.429 . S
C1063 N1060 1.350 . S
C1063 C1062 1.434 . S
C1064 C1065 1.369 . S
C1064 C1066 1.419 . S
C1064 H1068 0.930 . S
C1065 C1064 1.369 . S
C1065 C1074 1.429 . S
C1066 C1064 1.419 . S
C1066 C1067 1.363 . S
C1066 H1069 0.929 . S
C1067 C1066 1.363 . S
C1067 C1073 1.428 . S
H1068 C1064 0.930 . S
H1069 C1066 0.929 . S
S1070 N1071 1.613 . S
S1070 N1072 1.610 . S
N1071 S1070 1.613 . S
N1071 C1074 1.350 . S
N1072 S1070 1.610 . S
N1072 C1073 1.351 . S
C1073 C1067 1.428 . S
C1073 N1072 1.351 . S
C1073 C1074 1.434 . S
C1074 C1065 1.429 . S
C1074 N1071 1.350 . S
C1074 C1073 1.434 . S
C1075 C1076 1.369 . S
C1075 C1077 1.419 . S
C1075 H1079 0.930 . S
C1076 C1075 1.369 . S
C1076 C1085 1.429 . S
C1077 C1075 1.419 . S
C1077 C1078 1.363 . S
C1077 H1080 0.929 . S
C1078 C1077 1.363 . S
C1078 C1084 1.428 . S
H1079 C1075 0.930 . S
H1080 C1077 0.929 . S
S1081 N1082 1.613 . S
S1081 N1083 1.610 . S
N1082 S1081 1.613 . S
N1082 C1085 1.350 . S
N1083 S1081 1.610 . S
N1083 C1084 1.351 . S
C1084 C1078 1.428 . S
C1084 N1083 1.351 . S
C1084 C1085 1.434 . S
C1085 C1076 1.429 . S
C1085 N1082 1.350 . S
C1085 C1084 1.434 . S
C1086 C1087 1.369 . S
C1086 C1088 1.419 . S
C1086 H1090 0.930 . S
C1087 C1086 1.369 . S
C1087 C1096 1.429 . S
C1088 C1086 1.419 . S
C1088 C1089 1.363 . S
C1088 H1091 0.929 . S
C1089 C1088 1.363 . S
C1089 C1095 1.428 . S
H1090 C1086 0.930 . S
H1091 C1088 0.929 . S
S1092 N1093 1.613 . S
S1092 N1094 1.610 . S
N1093 S1092 1.613 . S
N1093 C1096 1.350 . S
N1094 S1092 1.610 . S
N1094 C1095 1.351 . S
C1095 C1089 1.428 . S
C1095 N1094 1.351 . S
C1095 C1096 1.434 . S
C1096 C1087 1.429 . S
C1096 N1093 1.350 . S
C1096 C1095 1.434 . S
C1097 C1098 1.369 . S
C1097 C1099 1.419 . S
C1097 H1101 0.930 . S
C1098 C1097 1.369 . S
C1098 C1107 1.429 . S
C1099 C1097 1.419 . S
C1099 C1100 1.363 . S
C1099 H1102 0.929 . S
C1100 C1099 1.363 . S
C1100 C1106 1.428 . S
H1101 C1097 0.930 . S
H1102 C1099 0.929 . S
S1103 N1104 1.613 . S
S1103 N1105 1.610 . S
N1104 S1103 1.613 . S
N1104 C1107 1.350 . S
N1105 S1103 1.610 . S
N1105 C1106 1.351 . S
C1106 C1100 1.428 . S
C1106 N1105 1.351 . S
C1106 C1107 1.434 . S
C1107 C1098 1.429 . S
C1107 N1104 1.350 . S
C1107 C1106 1.434 . S
C1108 C1109 1.369 . S
C1108 C1110 1.419 . S
C1108 H1112 0.930 . S
C1109 C1108 1.369 . S
C1109 C1118 1.429 . S
C1110 C1108 1.419 . S
C1110 C1111 1.363 . S
C1110 H1113 0.929 . S
C1111 C1110 1.363 . S
C1111 C1117 1.428 . S
H1112 C1108 0.930 . S
H1113 C1110 0.929 . S
S1114 N1115 1.613 . S
S1114 N1116 1.610 . S
N1115 S1114 1.613 . S
N1115 C1118 1.350 . S
N1116 S1114 1.610 . S
N1116 C1117 1.351 . S
C1117 C1111 1.428 . S
C1117 N1116 1.351 . S
C1117 C1118 1.434 . S
C1118 C1109 1.429 . S
C1118 N1115 1.350 . S
C1118 C1117 1.434 . S
C1119 C1120 1.369 . S
C1119 C1121 1.419 . S
C1119 H1123 0.930 . S
C1120 C1119 1.369 . S
C1120 C1129 1.429 . S
C1121 C1119 1.419 . S
C1121 C1122 1.363 . S
C1121 H1124 0.929 . S
C1122 C1121 1.363 . S
C1122 C1128 1.428 . S
H1123 C1119 0.930 . S
H1124 C1121 0.929 . S
S1125 N1126 1.613 . S
S1125 N1127 1.610 . S
N1126 S1125 1.613 . S
N1126 C1129 1.350 . S
N1127 S1125 1.610 . S
N1127 C1128 1.351 . S
C1128 C1122 1.428 . S
C1128 N1127 1.351 . S
C1128 C1129 1.434 . S
C1129 C1120 1.429 . S
C1129 N1126 1.350 . S
C1129 C1128 1.434 . S
C1130 C1131 1.369 . S
C1130 C1132 1.419 . S
C1130 H1134 0.930 . S
C1131 C1130 1.369 . S
C1131 C1140 1.429 . S
C1132 C1130 1.419 . S
C1132 C1133 1.363 . S
C1132 H1135 0.929 . S
C1133 C1132 1.363 . S
C1133 C1139 1.428 . S
H1134 C1130 0.930 . S
H1135 C1132 0.929 . S
S1136 N1137 1.613 . S
S1136 N1138 1.610 . S
N1137 S1136 1.613 . S
N1137 C1140 1.350 . S
N1138 S1136 1.610 . S
N1138 C1139 1.351 . S
C1139 C1133 1.428 . S
C1139 N1138 1.351 . S
C1139 C1140 1.434 . S
C1140 C1131 1.429 . S
C1140 N1137 1.350 . S
C1140 C1139 1.434 . S
C1141 C1142 1.369 . S
C1141 C1143 1.419 . S
C1141 H1145 0.930 . S
C1142 C1141 1.369 . S
C1142 C1151 1.429 . S
C1143 C1141 1.419 . S
C1143 C1144 1.363 . S
C1143 H1146 0.929 . S
C1144 C1143 1.363 . S
C1144 C1150 1.428 . S
H1145 C1141 0.930 . S
H1146 C1143 0.929 . S
S1147 N1148 1.613 . S
S1147 N1149 1.610 . S
N1148 S1147 1.613 . S
N1148 C1151 1.350 . S
N1149 S1147 1.610 . S
N1149 C1150 1.351 . S
C1150 C1144 1.428 . S
C1150 N1149 1.351 . S
C1150 C1151 1.434 . S
C1151 C1142 1.429 . S
C1151 N1148 1.350 . S
C1151 C1150 1.434 . S
C449 C9 1.427 . S
C451 C23 1.428 . S
C460 C51 1.425 . S
C462 C37 1.426 . S
C471 C65 1.425 . S
C473 C79 1.425 . S
C482 C93 1.424 . S
C484 C107 1.425 . S
C493 C121 1.428 . S
C495 C135 1.428 . S
C504 C149 1.424 . S
C506 C163 1.425 . S
C515 C177 1.424 . S
C517 C191 1.425 . S
C526 C205 1.431 . S
C528 C219 1.430 . S
C537 C247 1.427 . S
C539 C233 1.427 . S
C548 C275 1.424 . S
C550 C261 1.425 . S
C559 C303 1.431 . S
C561 C289 1.430 . S
C570 C331 1.427 . S
C572 C317 1.427 . S
C581 C359 1.431 . S
C583 C345 1.430 . S
C592 C387 1.425 . S
C594 C373 1.426 . S
C603 C415 1.431 . S
C605 C401 1.430 . S
C614 C443 1.428 . S
C616 C429 1.428 . S
C625 C8 1.560 . S
C627 C176 1.554 . S
C636 C22 1.554 . S
C638 C302 1.559 . S
C647 C36 1.560 . S
C649 C92 1.554 . S
C658 C50 1.560 . S
C660 C442 1.554 . S
C669 C64 1.559 . S
C671 C120 1.555 . S
C680 C246 1.554 . S
C682 C78 1.559 . S
C691 C386 1.555 . S
C693 C106 1.558 . S
C702 C134 1.556 . S
C704 C414 1.557 . S
C713 C148 1.554 . S
C715 C204 1.558 . S
C724 C162 1.554 . S
C726 C330 1.559 . S
C735 C190 1.561 . S
C737 C358 1.554 . S
C746 C218 1.561 . S
C748 C274 1.553 . S
C757 C400 1.557 . S
C759 C232 1.557 . S
C768 C316 1.554 . S
C770 C260 1.558 . S
C779 C288 1.557 . S
C781 C344 1.556 . S
C790 C428 1.560 . S
C792 C372 1.555 . S
C801 C147 0.973 . S
C803 C7 0.972 . S
C812 C161 0.977 . S
C814 C21 0.973 . S
C823 C35 0.979 . S
C825 C119 0.977 . S
C834 C133 0.973 . S
C836 C49 0.978 . S
C845 C63 0.980 . S
C847 C203 0.974 . S
C856 C77 0.972 . S
C858 C217 0.978 . S
C867 C175 0.977 . S
C869 C91 0.972 . S
C878 C189 0.975 . S
C880 C105 0.979 . S
C889 C231 0.980 . S
C891 C371 0.976 . S
C900 C385 0.974 . S
C902 C245 0.972 . S
C911 C343 0.971 . S
C913 C259 0.975 . S
C922 C273 0.980 . S
C924 C357 0.977 . S
C933 C427 0.975 . S
C935 C287 0.972 . S
C944 C301 0.979 . S
C946 C441 0.978 . S
C955 C399 0.979 . S
C957 C315 0.973 . S
C966 C413 0.975 . S
C968 C329 0.979 . S
C977 C143 1.585 . S
C979 C3 1.585 1_565 S
C988 C157 1.583 . S
C990 C17 1.583 . S
C999 C115 1.583 . S
C1001 C31 1.583 . S
C1010 C45 1.583 1_565 S
C1012 C129 1.583 . S
C1021 C199 1.583 . S
C1023 C59 1.584 1_545 S
C1032 C213 1.585 . S
C1034 C73 1.583 . S
C1043 C171 1.585 . S
C1045 C87 1.584 . S
C1054 C185 1.583 . S
C1056 C101 1.584 1_545 S
C1065 C367 1.586 . S
C1067 C227 1.584 1_565 S
C1076 C381 1.585 . S
C1078 C241 1.584 . S
C1087 C339 1.584 . S
C1089 C255 1.583 . S
C1098 C269 1.585 1_565 S
C1100 C353 1.583 . S
C1109 C423 1.583 . S
C1111 C283 1.584 1_545 S
C1120 C297 1.583 . S
C1122 C437 1.585 . S
C1131 C395 1.585 . S
C1133 C311 1.584 . S
C1142 C325 1.586 1_545 S
C1144 C409 1.584 . S
