# Generated by pormake.
# Topology umw, (4)-cn, num edge types: 1
# Building blocks:
#     Node 0, Type 0, BuildingBlock: ICAMEG_clean_sbu_1, # of connection points: 4
#     Node 1, Type 0, BuildingBlock: ICAMEG_clean_sbu_1, # of connection points: 4
#     Node 2, Type 0, BuildingBlock: ICAMEG_clean_sbu_1, # of connection points: 4
#     Node 3, Type 0, BuildingBlock: ICAMEG_clean_sbu_1, # of connection points: 4
#     Node 4, Type 0, BuildingBlock: ICAMEG_clean_sbu_1, # of connection points: 4
#     Node 5, Type 0, BuildingBlock: ICAMEG_clean_sbu_1, # of connection points: 4
#     Node 6, Type 0, BuildingBlock: ICAMEG_clean_sbu_1, # of connection points: 4
#     Node 7, Type 0, BuildingBlock: ICAMEG_clean_sbu_1, # of connection points: 4
#     Edge 8, Type (0, 0), BuildingBlock: AJUNOK_clean_linker_0, # of connection points: 2
#     Edge 9, Type (0, 0), BuildingBlock: AJUNOK_clean_linker_0, # of connection points: 2
#     Edge 10, Type (0, 0), BuildingBlock: AJUNOK_clean_linker_0, # of connection points: 2
#     Edge 11, Type (0, 0), BuildingBlock: AJUNOK_clean_linker_0, # of connection points: 2
#     Edge 12, Type (0, 0), BuildingBlock: AJUNOK_clean_linker_0, # of connection points: 2
#     Edge 13, Type (0, 0), BuildingBlock: AJUNOK_clean_linker_0, # of connection points: 2
#     Edge 14, Type (0, 0), BuildingBlock: AJUNOK_clean_linker_0, # of connection points: 2
#     Edge 15, Type (0, 0), BuildingBlock: AJUNOK_clean_linker_0, # of connection points: 2
#     Edge 16, Type (0, 0), BuildingBlock: AJUNOK_clean_linker_0, # of connection points: 2
#     Edge 17, Type (0, 0), BuildingBlock: AJUNOK_clean_linker_0, # of connection points: 2
#     Edge 18, Type (0, 0), BuildingBlock: AJUNOK_clean_linker_0, # of connection points: 2
#     Edge 19, Type (0, 0), BuildingBlock: AJUNOK_clean_linker_0, # of connection points: 2
#     Edge 20, Type (0, 0), BuildingBlock: AJUNOK_clean_linker_0, # of connection points: 2
#     Edge 21, Type (0, 0), BuildingBlock: AJUNOK_clean_linker_0, # of connection points: 2
#     Edge 22, Type (0, 0), BuildingBlock: AJUNOK_clean_linker_0, # of connection points: 2
#     Edge 23, Type (0, 0), BuildingBlock: AJUNOK_clean_linker_0, # of connection points: 2
# Relax obj value: 0.115
# Max RMSD: 0.126
# Mean RMSD: 0.126
data_MOF--net-umw--node1-ICAMEG_clean_sbu_1--edge1-AJUNOK_clean_linker_0
_symmetry_space_group_name_H-M    P1
_symmetry_Int_Tables_number       1
_symmetry_cell_setting            triclinic
loop_
_symmetry_equiv_pos_as_xyz
'x, y, z'
_cell_length_a     32.02926
_cell_length_b     32.027474
_cell_length_c     22.175882
_cell_angle_alpha  90.04756
_cell_angle_beta   89.968628
_cell_angle_gamma 90.088202
loop_
_atom_site_label
_atom_site_type_symbol
_atom_site_fract_x
_atom_site_fract_y
_atom_site_fract_z
_atom_type_partial_charge
Co0 Co 0.49364 0.19768 0.3006 0.0
Co1 Co 0.39035 0.17866 0.34068 0.0
O2 O 0.43334 0.20916 0.29519 0.0
C3 C 0.47686 0.17957 0.17283 0.0
O4 O 0.44115 0.16298 0.18935 0.0
C5 C 0.374 0.26509 0.39135 0.0
O6 O 0.41337 0.26853 0.40708 0.0
O7 O 0.4244 0.18043 0.41651 0.0
O8 O 0.48993 0.19629 0.3889 0.0
H9 H 0.33865 0.06566 0.47907 0.0
H10 H 0.46379 0.26889 0.22768 0.0
O11 O 0.4999 0.19795 0.21117 0.0
H12 H 0.55267 0.33129 0.38544 0.0
H13 H 0.64507 0.2189 0.2471 0.0
H14 H 0.54574 0.14066 0.37416 0.0
H15 H 0.54264 0.25503 0.38015 0.0
H16 H 0.56942 0.23225 0.23996 0.0
O17 O 0.36138 0.23237 0.36389 0.0
H18 H 0.39149 0.10496 0.4214 0.0
H19 H 0.29776 0.18626 0.35457 0.0
H20 H 0.62116 0.1266 0.38316 0.0
H21 H 0.47328 0.34535 0.23087 0.0
H22 H 0.6714 0.16584 0.31926 0.0
H23 H 0.51792 0.37701 0.3103 0.0
O24 O 0.48479 0.1356 0.29741 0.0
H25 H 0.32543 0.23918 0.15418 0.0
H26 H 0.34275 0.11189 0.2765 0.0
H27 H 0.30192 0.10861 0.18232 0.0
H28 H 0.29299 0.17263 0.12049 0.0
H29 H 0.36644 0.24086 0.24834 0.0
H30 H 0.24397 0.14823 0.41208 0.0
H31 H 0.26427 0.08731 0.47477 0.0
O32 O 0.41683 0.12454 0.31775 0.0
C33 C 0.46274 0.18774 0.42862 0.0
C34 C 0.3294 0.09217 0.45197 0.0
C35 C 0.27629 0.13857 0.41451 0.0
N36 N 0.34782 0.14812 0.38498 0.0
C37 C 0.35918 0.11452 0.41914 0.0
C38 C 0.30695 0.1602 0.38234 0.0
C39 C 0.28769 0.10436 0.44959 0.0
C40 C 0.48348 0.28246 0.26211 0.0
N41 N 0.50271 0.25754 0.30359 0.0
C42 C 0.48864 0.32576 0.26381 0.0
C43 C 0.51365 0.34351 0.30843 0.0
C44 C 0.53313 0.31788 0.35063 0.0
C45 C 0.52721 0.27471 0.34757 0.0
C46 C 0.6235 0.20164 0.27524 0.0
C47 C 0.56741 0.15798 0.34636 0.0
C48 C 0.58062 0.209 0.27131 0.0
N49 N 0.55318 0.18733 0.30669 0.0
C50 C 0.61008 0.14984 0.35159 0.0
C51 C 0.63825 0.17185 0.31572 0.0
C52 C 0.4532 0.11164 0.30372 0.0
C53 C 0.32913 0.21107 0.18068 0.0
C54 C 0.33926 0.13977 0.24957 0.0
C55 C 0.31596 0.13778 0.19644 0.0
C56 C 0.31095 0.17372 0.1618 0.0
N57 N 0.35713 0.17647 0.26766 0.0
C58 C 0.35224 0.21185 0.23406 0.0
Co59 Co 0.82331 0.49218 0.56147 0.0
Co60 Co 0.84176 0.39288 0.61409 0.0
O61 O 0.81077 0.4321 0.56318 0.0
C62 C 0.82848 0.47216 0.43374 0.0
O63 O 0.84889 0.43844 0.44983 0.0
C64 C 0.75397 0.37068 0.65224 0.0
O65 O 0.74746 0.41001 0.66617 0.0
O66 O 0.83094 0.42794 0.68636 0.0
O67 O 0.83684 0.49261 0.64842 0.0
H68 H 0.9448 0.35335 0.77496 0.0
H69 H 0.74314 0.46231 0.51123 0.0
O70 O 0.81137 0.49485 0.47363 0.0
H71 H 0.70462 0.55553 0.67935 0.0
H72 H 0.79454 0.64244 0.50851 0.0
H73 H 0.89387 0.54517 0.6032 0.0
H74 H 0.77855 0.54415 0.65314 0.0
H75 H 0.77936 0.56704 0.51231 0.0
O76 O 0.78904 0.35971 0.62985 0.0
H77 H 0.90614 0.4019 0.7093 0.0
H78 H 0.84239 0.30017 0.62775 0.0
H79 H 0.91011 0.62033 0.60099 0.0
H80 H 0.66872 0.47319 0.53549 0.0
H81 H 0.86024 0.66962 0.55336 0.0
H82 H 0.6491 0.52002 0.6202 0.0
O83 O 0.88303 0.48057 0.54294 0.0
H84 H 0.80215 0.31824 0.42318 0.0
H85 H 0.91805 0.3544 0.56 0.0
H86 H 0.93248 0.31375 0.46791 0.0
H87 H 0.87426 0.29526 0.39885 0.0
H88 H 0.78922 0.35953 0.51529 0.0
H89 H 0.88001 0.25054 0.69291 0.0
H90 H 0.93179 0.27707 0.76704 0.0
O91 O 0.89557 0.42388 0.59988 0.0
C92 C 0.83561 0.46727 0.69235 0.0
C93 C 0.92234 0.34141 0.74281 0.0
C94 C 0.88594 0.28371 0.69683 0.0
N95 N 0.87202 0.35389 0.6647 0.0
C96 C 0.90039 0.36874 0.70544 0.0
C97 C 0.86458 0.31197 0.66021 0.0
C98 C 0.915 0.29861 0.73837 0.0
C99 C 0.73478 0.48305 0.54776 0.0
N100 N 0.76511 0.50277 0.58041 0.0
C101 C 0.69263 0.48896 0.56146 0.0
C102 C 0.68164 0.51518 0.60906 0.0
C103 C 0.71277 0.53509 0.64229 0.0
C104 C 0.7546 0.52841 0.62735 0.0
C105 C 0.81641 0.62133 0.52975 0.0
C106 C 0.87178 0.56637 0.58299 0.0
C107 C 0.80797 0.57857 0.53211 0.0
N108 N 0.83533 0.55167 0.55898 0.0
C109 C 0.88125 0.60893 0.58161 0.0
C110 C 0.85328 0.63656 0.55485 0.0
C111 C 0.90773 0.45447 0.56745 0.0
C112 C 0.82776 0.32599 0.45301 0.0
C113 C 0.89256 0.34668 0.53005 0.0
C114 C 0.90092 0.32353 0.47805 0.0
C115 C 0.86823 0.31316 0.43934 0.0
N116 N 0.85277 0.35919 0.54312 0.0
C117 C 0.82059 0.34918 0.50536 0.0
Co118 Co 0.51953 0.81173 0.79713 0.0
Co119 Co 0.62243 0.8288 0.84061 0.0
O120 O 0.57982 0.80006 0.79226 0.0
C121 C 0.53875 0.8342 0.67096 0.0
O122 O 0.57474 0.84918 0.68927 0.0
C123 C 0.63687 0.74077 0.88608 0.0
O124 O 0.59705 0.73696 0.89905 0.0
O125 O 0.58726 0.82547 0.91515 0.0
O126 O 0.52214 0.80868 0.88592 0.0
H127 H 0.67319 0.93643 -0.01154 0.0
H128 H 0.5527 0.74356 0.72089 0.0
O129 O 0.51461 0.81557 0.70763 0.0
H130 H 0.45476 0.67528 0.86145 0.0
H131 H 0.36872 0.79607 0.73622 0.0
H132 H 0.46692 0.86483 0.87592 0.0
H133 H 0.46502 0.75158 0.86377 0.0
H134 H 0.44427 0.782 0.72981 0.0
O135 O 0.65041 0.77426 0.86172 0.0
H136 H 0.62071 0.89935 0.92709 0.0
H137 H 0.71482 0.82035 0.85542 0.0
H138 H 0.39156 0.87934 0.88444 0.0
H139 H 0.543 0.66718 0.7161 0.0
H140 H 0.34189 0.8449 0.81418 0.0
H141 H 0.4939 0.63252 0.78699 0.0
O142 O 0.52879 0.8738 0.80016 0.0
H143 H 0.68968 0.77233 0.65293 0.0
H144 H 0.67092 0.8969 0.7809 0.0
H145 H 0.71295 0.90217 0.68796 0.0
H146 H 0.72261 0.83953 0.62331 0.0
H147 H 0.64748 0.76863 0.74593 0.0
H148 H 0.76825 0.85617 0.91651 0.0
H149 H 0.74757 0.91483 0.98348 0.0
O150 O 0.59694 0.8837 0.82008 0.0
C151 C 0.54912 0.81663 0.92635 0.0
C152 C 0.6826 0.91092 0.95947 0.0
C153 C 0.73593 0.86583 0.91918 0.0
N154 N 0.66463 0.85759 0.88783 0.0
C155 C 0.65302 0.88983 0.92456 0.0
C156 C 0.70549 0.84548 0.88493 0.0
C157 C 0.72432 0.89876 0.95669 0.0
C158 C 0.53128 0.72868 0.75187 0.0
N159 N 0.50997 0.75191 0.79338 0.0
C160 C 0.52592 0.68543 0.74895 0.0
C161 C 0.49838 0.666 0.78875 0.0
C162 C 0.47649 0.68995 0.83061 0.0
C163 C 0.4827 0.73311 0.83221 0.0
C164 C 0.39004 0.81124 0.76714 0.0
C165 C 0.44549 0.84953 0.84539 0.0
C166 C 0.43287 0.8035 0.7636 0.0
N167 N 0.46 0.82247 0.80257 0.0
C168 C 0.40286 0.85795 0.85035 0.0
C169 C 0.37501 0.83863 0.81089 0.0
C170 C 0.56062 0.89729 0.80749 0.0
C171 C 0.68571 0.79984 0.68072 0.0
C172 C 0.67479 0.86959 0.75279 0.0
C173 C 0.69875 0.87272 0.70035 0.0
C174 C 0.70416 0.83756 0.66411 0.0
N175 N 0.65671 0.83252 0.76868 0.0
C176 C 0.66194 0.7979 0.73347 0.0
Co177 Co 0.1915 0.52303 0.05874 0.0
Co178 Co 0.17578 0.62645 0.10113 0.0
O179 O 0.20339 0.58326 0.05231 0.0
C180 C 0.16908 0.53991 0.93167 0.0
O181 O 0.15315 0.57591 0.9481 0.0
C182 C 0.26542 0.641 0.13737 0.0
O183 O 0.271 0.60051 0.1418 0.0
O184 O 0.18185 0.59276 0.17652 0.0
O185 O 0.19535 0.52683 0.14736 0.0
H186 H 0.07215 0.67917 0.25328 0.0
H187 H 0.25979 0.55599 0.98231 0.0
O188 O 0.18754 0.5168 0.96964 0.0
H189 H 0.32767 0.45806 0.1228 0.0
H190 H 0.20463 0.37141 0.00044 0.0
H191 H 0.13889 0.47171 0.13992 0.0
H192 H 0.25134 0.46802 0.12467 0.0
H193 H 0.21986 0.4467 -0.00749 0.0
O194 O 0.2305 0.65531 0.11903 0.0
H195 H 0.10789 0.62575 0.19204 0.0
H196 H 0.18421 0.71906 0.11195 0.0
H197 H 0.12317 0.39664 0.14988 0.0
H198 H 0.33619 0.54665 0.9781 0.0
H199 H 0.15609 0.34591 0.07973 0.0
H200 H 0.37066 0.49761 0.04901 0.0
O201 O 0.12944 0.53253 0.0621 0.0
H202 H 0.22667 0.69109 0.90842 0.0
H203 H 0.10534 0.67214 0.04259 0.0
H204 H 0.09718 0.71202 0.94826 0.0
H205 H 0.15818 0.72177 0.88047 0.0
H206 H 0.23326 0.65104 0.00298 0.0
H207 H 0.14959 0.77343 0.17275 0.0
H208 H 0.09299 0.75362 0.24388 0.0
O209 O 0.12047 0.60004 0.08542 0.0
C210 C 0.19021 0.55457 0.18767 0.0
C211 C 0.09673 0.6882 0.22241 0.0
C212 C 0.14023 0.74109 0.17727 0.0
N213 N 0.14808 0.66925 0.14842 0.0
C214 C 0.11705 0.6581 0.18755 0.0
C215 C 0.15983 0.71014 0.14312 0.0
C216 C 0.10846 0.72996 0.21714 0.0
C217 C 0.27458 0.5346 0.01332 0.0
N218 N 0.25124 0.51321 0.05466 0.0
C219 C 0.31784 0.52942 0.0107 0.0
C220 C 0.33717 0.50192 0.05051 0.0
C221 C 0.31309 0.47979 0.09199 0.0
C222 C 0.26992 0.48583 0.0933 0.0
C223 C 0.19012 0.39319 0.03132 0.0
C224 C 0.15356 0.44981 0.10946 0.0
C225 C 0.19851 0.43589 0.02692 0.0
N226 N 0.18034 0.4636 0.06579 0.0
C227 C 0.14445 0.40734 0.11523 0.0
C228 C 0.16289 0.37891 0.07582 0.0
C229 C 0.10604 0.56404 0.0723 0.0
C230 C 0.19987 0.6871 0.93761 0.0
C231 C 0.13192 0.67603 0.01317 0.0
C232 C 0.12717 0.69878 0.95991 0.0
C233 C 0.16142 0.70426 0.92192 0.0
N234 N 0.16973 0.6593 0.02823 0.0
C235 C 0.20345 0.66458 -0.00873 0.0
Co236 Co 0.50604 0.85071 0.29309 0.0
Co237 Co 0.40483 0.85547 0.24248 0.0
O238 O 0.44733 0.83231 0.29645 0.0
C239 C 0.48644 0.85803 0.4227 0.0
O240 O 0.45177 0.87724 0.4078 0.0
C241 C 0.38927 0.76436 0.21842 0.0
O242 O 0.42952 0.75914 0.21013 0.0
O243 O 0.43967 0.84043 0.17185 0.0
O244 O 0.50395 0.85701 0.20388 0.0
H245 H 0.35594 0.93796 0.06348 0.0
H246 H 0.48365 0.77158 0.35416 0.0
O247 O 0.51098 0.84461 0.38214 0.0
H248 H 0.58184 0.73167 0.1928 0.0
H249 H 0.65778 0.84594 0.35216 0.0
H250 H 0.55189 0.91788 0.22896 0.0
H251 H 0.56317 0.80549 0.20883 0.0
H252 H 0.58437 0.82261 0.35348 0.0
O253 O 0.3755 0.79973 0.23609 0.0
H254 H 0.40798 0.90942 0.13422 0.0
H255 H 0.31198 0.84893 0.23343 0.0
H256 H 0.62502 0.94201 0.22591 0.0
H257 H 0.50175 0.69735 0.34001 0.0
H258 H 0.67854 0.90596 0.28785 0.0
H259 H 0.55106 0.677 0.25869 0.0
O260 O 0.48906 0.91019 0.30331 0.0
H261 H 0.33793 0.82678 0.44294 0.0
H262 H 0.3598 0.93214 0.28399 0.0
H263 H 0.3197 0.9509 0.37494 0.0
H264 H 0.30852 0.89799 0.45523 0.0
H265 H 0.37822 0.80949 0.35132 0.0
H266 H 0.2589 0.87655 0.16356 0.0
H267 H 0.28077 0.9216 0.078 0.0
O268 O 0.43142 0.91244 0.24638 0.0
C269 C 0.47855 0.84602 0.16277 0.0
C270 C 0.34599 0.9185 0.1007 0.0
C271 C 0.29154 0.88404 0.15688 0.0
N272 N 0.363 0.87797 0.1883 0.0
C273 C 0.37531 0.90232 0.14096 0.0
C274 C 0.32174 0.86846 0.19627 0.0
C275 C 0.30383 0.90929 0.10887 0.0
C276 C 0.50542 0.76298 0.31905 0.0
N277 N 0.52243 0.79285 0.28256 0.0
C278 C 0.51545 0.7209 0.31111 0.0
C279 C 0.54308 0.70949 0.26542 0.0
C280 C 0.56034 0.74015 0.22842 0.0
C281 C 0.54958 0.78191 0.23767 0.0
C282 C 0.63476 0.86186 0.32489 0.0
C283 C 0.57504 0.90187 0.25578 0.0
C284 C 0.59312 0.84885 0.32554 0.0
N285 N 0.56391 0.86869 0.29103 0.0
C286 C 0.61638 0.91575 0.25398 0.0
C287 C 0.64639 0.89553 0.28879 0.0
C288 C 0.46065 0.93049 0.27575 0.0
C289 C 0.34249 0.85006 0.40819 0.0
C290 C 0.3552 0.90899 0.31877 0.0
C291 C 0.33235 0.91976 0.37011 0.0
C292 C 0.32605 0.89005 0.41511 0.0
N293 N 0.37127 0.86971 0.31235 0.0
C294 C 0.36512 0.8404 0.35617 0.0
Co295 Co 0.16874 0.50377 0.55513 0.0
Co296 Co 0.1594 0.40503 0.49635 0.0
O297 O 0.18498 0.44439 0.55359 0.0
C298 C 0.15997 0.48236 0.6839 0.0
O299 O 0.1389 0.44894 0.66786 0.0
C300 C 0.25037 0.38696 0.47516 0.0
O301 O 0.25875 0.42704 0.47808 0.0
O302 O 0.17587 0.44176 0.42861 0.0
O303 O 0.1607 0.5049 0.46619 0.0
H304 H 0.07324 0.36699 0.31523 0.0
H305 H 0.24784 0.47781 0.61273 0.0
O306 O 0.17617 0.50588 0.64419 0.0
H307 H 0.28869 0.57927 0.4562 0.0
H308 H 0.17989 0.65342 0.62345 0.0
H309 H 0.10179 0.55346 0.49717 0.0
H310 H 0.21459 0.56177 0.47266 0.0
H311 H 0.20079 0.57941 0.61902 0.0
O312 O 0.21355 0.37363 0.48606 0.0
H313 H 0.10504 0.41483 0.38939 0.0
H314 H 0.16121 0.31245 0.47965 0.0
H315 H 0.08006 0.62727 0.49988 0.0
H316 H 0.32236 0.4948 0.59827 0.0
H317 H 0.1192 0.67782 0.56341 0.0
H318 H 0.34318 0.54576 0.51936 0.0
O319 O 0.10917 0.48806 0.56653 0.0
H320 H 0.18586 0.329 0.69032 0.0
H321 H 0.08067 0.36249 0.53548 0.0
H322 H 0.06044 0.3198 0.62328 0.0
H323 H 0.11325 0.30276 0.70145 0.0
H324 H 0.20466 0.37194 0.6019 0.0
H325 H 0.13028 0.26348 0.40625 0.0
H326 H 0.08585 0.29068 0.32338 0.0
O327 O 0.10372 0.43386 0.50299 0.0
C328 C 0.17067 0.48094 0.42286 0.0
C329 C 0.09238 0.35472 0.35129 0.0
C330 C 0.12438 0.29663 0.40239 0.0
N331 N 0.13446 0.36643 0.43926 0.0
C332 C 0.11034 0.38165 0.39354 0.0
C333 C 0.14177 0.32451 0.44386 0.0
C334 C 0.09949 0.31192 0.35587 0.0
C335 C 0.25667 0.5003 0.5787 0.0
N336 N 0.22691 0.51883 0.54374 0.0
C337 C 0.2989 0.50968 0.57056 0.0
C338 C 0.31057 0.53824 0.52622 0.0
C339 C 0.28002 0.55703 0.49074 0.0
C340 C 0.2381 0.54689 0.50016 0.0
C341 C 0.16261 0.63171 0.59553 0.0
C342 C 0.11913 0.5753 0.52468 0.0
C343 C 0.17424 0.58974 0.59294 0.0
N344 N 0.15267 0.56216 0.55762 0.0
C345 C 0.10661 0.61704 0.52613 0.0
C346 C 0.12857 0.64538 0.56182 0.0
C347 C 0.08752 0.46191 0.53655 0.0
C348 C 0.16262 0.3361 0.65646 0.0
C349 C 0.10382 0.35528 0.56935 0.0
C350 C 0.0922 0.33101 0.6189 0.0
C351 C 0.12185 0.32145 0.66272 0.0
N352 N 0.14389 0.36952 0.56354 0.0
C353 C 0.17312 0.36024 0.60625 0.0
Co354 Co 0.51248 0.15895 0.79715 0.0
Co355 Co 0.61152 0.15192 0.73991 0.0
O356 O 0.57135 0.17714 0.79597 0.0
C357 C 0.5338 0.15584 0.92676 0.0
O358 O 0.56829 0.13585 0.91303 0.0
C359 C 0.62986 0.24316 0.71773 0.0
O360 O 0.58972 0.25138 0.71743 0.0
O361 O 0.57478 0.16732 0.67133 0.0
O362 O 0.51233 0.14935 0.70847 0.0
H363 H 0.65204 0.06644 0.55913 0.0
H364 H 0.53648 0.24004 0.85123 0.0
O365 O 0.5094 0.16834 0.88557 0.0
H366 H 0.43356 0.27453 0.69369 0.0
H367 H 0.36189 0.16725 0.86192 0.0
H368 H 0.46546 0.08821 0.74351 0.0
H369 H 0.45304 0.20139 0.71321 0.0
H370 H 0.43527 0.19044 0.85753 0.0
O371 O 0.64271 0.20641 0.72992 0.0
H372 H 0.60319 0.09796 0.63202 0.0
H373 H 0.70442 0.15343 0.72641 0.0
H374 H 0.39236 0.06408 0.74635 0.0
H375 H 0.51752 0.31368 0.8337 0.0
H376 H 0.33997 0.10374 0.8058 0.0
H377 H 0.4658 0.33131 0.7543 0.0
O378 O 0.52974 0.09986 0.81084 0.0
H379 H 0.68505 0.1813 0.93517 0.0
H380 H 0.65523 0.07429 0.78109 0.0
H381 H 0.69724 0.0556 0.87011 0.0
H382 H 0.71247 0.10934 0.94792 0.0
H383 H 0.64275 0.1985 0.84556 0.0
H384 H 0.75439 0.12241 0.65466 0.0
H385 H 0.72828 0.07849 0.57031 0.0
O386 O 0.5834 0.09585 0.74668 0.0
C387 C 0.5358 0.16033 0.66503 0.0
C388 C 0.66382 0.08544 0.59576 0.0
C389 C 0.72126 0.11677 0.64944 0.0
N390 N 0.65092 0.1272 0.68376 0.0
C391 C 0.6363 0.1034 0.63716 0.0
C392 C 0.6928 0.13421 0.68999 0.0
C393 C 0.70659 0.09219 0.60208 0.0
C394 C 0.51372 0.24747 0.81691 0.0
N395 N 0.49589 0.21643 0.78334 0.0
C396 C 0.5032 0.28921 0.80706 0.0
C397 C 0.47422 0.29909 0.76246 0.0
C398 C 0.45615 0.26726 0.72841 0.0
C399 C 0.46743 0.22588 0.73951 0.0
C400 C 0.38439 0.14979 0.83566 0.0
C401 C 0.44283 0.10576 0.76928 0.0
C402 C 0.42601 0.16275 0.83302 0.0
N403 N 0.45456 0.14101 0.79964 0.0
C404 C 0.40149 0.09189 0.77081 0.0
C405 C 0.37211 0.11415 0.80419 0.0
C406 C 0.556 0.07863 0.78036 0.0
C407 C 0.67874 0.15764 0.90148 0.0
C408 C 0.66153 0.0978 0.81481 0.0
C409 C 0.68548 0.08707 0.86506 0.0
C410 C 0.69405 0.11725 0.90867 0.0
N411 N 0.64663 0.1375 0.80808 0.0
C412 C 0.65496 0.16725 0.85058 0.0
Co413 Co 0.84081 0.50913 0.0609 0.0
Co414 Co 0.85023 0.61269 0.01508 0.0
O415 O 0.82396 0.56843 0.06366 0.0
C416 C 0.85076 0.53128 0.18948 0.0
O417 O 0.86324 0.56894 0.17461 0.0
C418 C 0.7596 0.62173 0.97828 0.0
O419 O 0.75302 0.58147 0.98401 0.0
O420 O 0.84776 0.57732 0.94085 0.0
O421 O 0.84067 0.51099 0.97257 0.0
H422 H 0.95475 0.66897 0.86684 0.0
H423 H 0.76663 0.53686 0.1299 0.0
O424 O 0.84053 0.50487 0.14969 0.0
H425 H 0.71376 0.43183 0.98618 0.0
H426 H 0.83757 0.35833 0.12593 0.0
H427 H 0.90017 0.46053 0.98628 0.0
H428 H 0.78874 0.44916 -0.01002 0.0
H429 H 0.81611 0.43218 0.12881 0.0
O430 O 0.79478 0.63767 -0.00775 0.0
H431 H 0.92118 0.61485 0.92936 0.0
H432 H 0.83611 0.70432 -0.0009 0.0
H433 H 0.92224 0.38688 0.98153 0.0
H434 H 0.69145 0.52013 0.12831 0.0
H435 H 0.89091 0.33521 0.05177 0.0
H436 H 0.66453 0.4674 0.05585 0.0
O437 O 0.90195 0.52349 0.06324 0.0
H438 H 0.78987 0.67606 0.20286 0.0
H439 H 0.91534 0.66537 0.07498 0.0
H440 H 0.91812 0.70715 0.16837 0.0
H441 H 0.85501 0.71269 0.23305 0.0
H442 H 0.7887 0.63431 0.10927 0.0
H443 H 0.86857 0.75936 0.93705 0.0
H444 H 0.92837 0.74184 0.87035 0.0
O445 O 0.90663 0.59052 0.03523 0.0
C446 C 0.84336 0.53823 0.93129 0.0
C447 C 0.92873 0.67702 0.89575 0.0
C448 C 0.88035 0.72773 0.93512 0.0
N449 N 0.87666 0.65633 0.96773 0.0
C450 C 0.90961 0.6465 0.93129 0.0
C451 C 0.86202 0.69638 0.97004 0.0
C452 C 0.9139 0.71788 0.89771 0.0
C453 C 0.75517 0.51384 0.0983 0.0
N454 N 0.782 0.4944 0.05947 0.0
C455 C 0.71256 0.50452 0.09758 0.0
C456 C 0.69747 0.47495 0.05689 0.0
C457 C 0.72505 0.45504 0.01772 0.0
C458 C 0.76745 0.4652 0.01971 0.0
C459 C 0.85144 0.38054 0.09507 0.0
C460 C 0.88617 0.43819 0.01673 0.0
C461 C 0.83952 0.42246 0.09661 0.0
N462 N 0.8568 0.45069 0.05762 0.0
C463 C 0.89889 0.39654 0.01394 0.0
C464 C 0.88134 0.36758 0.05342 0.0
C465 C 0.92322 0.55637 0.05217 0.0
C466 C 0.81757 0.67391 0.17505 0.0
C467 C 0.88792 0.66737 0.10311 0.0
C468 C 0.88958 0.69124 0.15579 0.0
C469 C 0.85415 0.69439 0.19201 0.0
N470 N 0.85199 0.64726 0.0869 0.0
C471 C 0.81705 0.65041 0.12197 0.0
C472 C 0.51948 0.19654 0.50453 0.0
C473 C 0.47849 0.18327 0.49107 0.0
C474 C 0.53784 0.18842 0.56034 0.0
C475 C 0.51606 0.1667 0.60538 0.0
H476 H 0.53813 0.21292 0.47138 0.0
H477 H 0.56936 0.1995 0.56812 0.0
S478 S 0.40761 0.12544 0.59381 0.0
N479 N 0.41633 0.14801 0.52817 0.0
N480 N 0.45091 0.13199 0.63292 0.0
C481 C 0.47479 0.15362 0.59301 0.0
C482 C 0.45595 0.16221 0.53607 0.0
C483 C 0.8169 0.46739 0.80081 0.0
C484 C 0.83889 0.48542 0.75292 0.0
C485 C 0.81774 0.48562 0.8579 0.0
C486 C 0.8408 0.5223 0.86928 0.0
H487 H 0.79831 0.43949 0.79395 0.0
H488 H 0.79989 0.47083 0.89327 0.0
S489 S 0.9058 0.58024 0.75943 0.0
N490 N 0.88588 0.54098 0.72066 0.0
N491 N 0.887 0.57535 0.82836 0.0
C492 C 0.86299 0.54063 0.82179 0.0
C493 C 0.86226 0.52203 0.76355 0.0
C494 C 0.5336 0.85724 0.08481 0.0
C495 C 0.49619 0.83761 0.10261 0.0
C496 C 0.5519 0.84864 0.02885 0.0
C497 C 0.53359 0.81989 -0.01111 0.0
H498 H 0.54853 0.87999 0.11389 0.0
H499 H 0.57972 0.86575 0.01607 0.0
S500 S 0.4391 0.75554 0.01808 0.0
N501 N 0.44361 0.78545 0.07832 0.0
N502 N 0.47855 0.76847 0.97398 0.0
C503 C 0.49732 0.7986 0.00752 0.0
C504 C 0.47841 0.80773 0.06408 0.0
C505 C 0.15395 0.53577 0.34709 0.0
C506 C 0.17736 0.50044 0.36376 0.0
C507 C 0.16002 0.55504 0.29112 0.0
C508 C 0.18999 0.53981 0.25048 0.0
H509 H 0.12999 0.54792 0.3768 0.0
H510 H 0.13991 0.58078 0.27863 0.0
S511 S 0.26447 0.45317 0.27778 0.0
N512 N 0.23469 0.45405 0.33851 0.0
N513 N 0.2471 0.49114 0.23426 0.0
C514 C 0.21535 0.50623 0.26845 0.0
C515 C 0.20873 0.48624 0.32484 0.0
C516 C 0.35383 0.32984 0.45031 0.0
C517 C 0.34296 0.29787 0.40925 0.0
C518 C 0.32411 0.35911 0.47088 0.0
C519 C 0.28222 0.35714 0.45197 0.0
H520 H 0.38537 0.33193 0.46762 0.0
H521 H 0.33375 0.38277 0.50293 0.0
S522 S 0.23846 0.28369 0.33892 0.0
N523 N 0.28768 0.2694 0.3459 0.0
N524 N 0.23233 0.32337 0.38557 0.0
C525 C 0.27128 0.32642 0.40949 0.0
C526 C 0.30146 0.29711 0.3879 0.0
C527 C 0.68484 0.34863 0.69813 0.0
C528 C 0.72145 0.33822 0.66587 0.0
C529 C 0.65501 0.31805 0.71411 0.0
C530 C 0.66081 0.2757 0.6993 0.0
H531 H 0.67932 0.38059 0.71189 0.0
H532 H 0.62767 0.32754 0.73938 0.0
S533 S 0.74843 0.23226 0.60935 0.0
N534 N 0.75947 0.2824 0.61548 0.0
N535 N 0.70414 0.2256 0.64612 0.0
C536 C 0.69654 0.26508 0.66566 0.0
C537 C 0.72659 0.29609 0.64882 0.0
C538 C 0.68517 0.64674 0.96709 0.0
C539 C 0.72755 0.64937 0.95074 0.0
C540 C 0.65569 0.67556 0.9447 0.0
C541 C 0.66739 0.70775 0.90452 0.0
H542 H 0.67502 0.62324 -0.00097 0.0
H543 H 0.62374 0.67323 0.96036 0.0
S544 S 0.77364 0.72338 0.8405 0.0
N545 N 0.77893 0.68378 0.8874 0.0
N546 N 0.72402 0.73687 0.84435 0.0
C547 C 0.70938 0.70891 0.88534 0.0
C548 C 0.73928 0.68006 0.90869 0.0
C549 C 0.28664 0.71199 0.17434 0.0
C550 C 0.29819 0.67102 0.15836 0.0
C551 C 0.31604 0.74116 0.19513 0.0
C552 C 0.35873 0.73113 0.20036 0.0
H553 H 0.25436 0.72177 0.17129 0.0
H554 H 0.30504 0.77217 0.20625 0.0
S555 S 0.4057 0.62803 0.16438 0.0
N556 N 0.35551 0.62171 0.14981 0.0
N557 N 0.41098 0.6767 0.18789 0.0
C558 C 0.37084 0.69017 0.18471 0.0
C559 C 0.34062 0.66016 0.1641 0.0
C560 C 0.48902 0.99868 0.31672 0.0
C561 C 0.46076 0.97724 0.27873 0.0
C562 C 0.48773 0.04246 0.323 0.0
C563 C 0.45795 0.06638 0.29192 0.0
H564 H 0.51177 0.98151 0.34292 0.0
H565 H 0.50917 0.05751 0.35395 0.0
S566 S 0.3806 0.02731 0.18119 0.0
N567 N 0.40463 0.98497 0.20528 0.0
N568 N 0.40246 0.0665 0.21779 0.0
C569 C 0.43085 0.04583 0.25209 0.0
C570 C 0.43219 1.00152 0.24528 0.0
C571 C 0.97922 0.47013 0.60583 0.0
C572 C 0.95293 0.45927 0.5576 0.0
C573 C 0.02271 0.47248 0.59808 0.0
C574 C 0.04137 0.46292 0.54221 0.0
H575 H 0.96606 0.47658 0.6499 0.0
H576 H 0.04194 0.48045 0.6366 0.0
S577 S 0.98545 0.43325 0.40188 0.0
N578 N 0.94797 0.43986 0.45217 0.0
N579 N 0.02964 0.44309 0.4376 0.0
C580 C 0.01511 0.45232 0.49359 0.0
C581 C 0.97087 0.45081 0.50129 0.0
C582 C 0.52844 0.96725 0.83015 0.0
C583 C 0.55654 0.94271 0.79678 0.0
C584 C 0.52789 0.01109 0.82404 0.0
C585 C 0.55518 0.0319 0.7839 0.0
H586 H 0.50774 0.95263 0.86254 0.0
H587 H 0.50643 0.02877 0.85182 0.0
S588 S 0.63095 0.98004 0.68074 0.0
N589 N 0.60955 0.94137 0.71894 0.0
N590 N 0.60858 0.02286 0.70642 0.0
C591 C 0.58206 0.00697 0.7484 0.0
C592 C 0.58273 0.96266 0.75514 0.0
C593 C 0.99124 0.59427 0.0636 0.0
C594 C 0.96973 0.556 0.05919 0.0
C595 C 0.03475 0.59611 0.06827 0.0
C596 C 0.05953 0.5598 0.06786 0.0
H597 H 0.97442 0.6235 0.06354 0.0
H598 H 0.04893 0.6267 0.07176 0.0
S599 S 0.0192 0.45114 0.05744 0.0
N600 N 0.97682 0.48042 0.0555 0.0
N601 N 0.05892 0.48385 0.06307 0.0
C602 C 0.03864 0.52106 0.06358 0.0
C603 C 0.99384 0.51917 0.05965 0.0
C604 C 0.47784 0.16616 0.00341 0.0
C605 C 0.52068 0.16177 -0.00995 0.0
C606 C 0.46388 0.17176 0.06266 0.0
C607 C 0.49227 0.17404 0.11063 0.0
H608 H 0.45469 0.16473 0.96788 0.0
H609 H 0.43065 0.17473 0.07084 0.0
S610 S 0.60758 0.1635 0.10023 0.0
N611 N 0.59126 0.1593 0.02986 0.0
N612 N 0.56516 0.17032 0.14138 0.0
C613 C 0.5352 0.16965 0.09805 0.0
C614 C 0.54937 0.16332 0.03773 0.0
C615 C 0.85526 0.47657 0.2679 0.0
C616 C 0.84673 0.51831 0.25259 0.0
C617 C 0.8484 0.46174 0.32627 0.0
C618 C 0.832 0.4879 0.37126 0.0
H619 H 0.86745 0.45514 0.2344 0.0
H620 H 0.85608 0.42952 0.33609 0.0
S621 S 0.8028 0.59964 0.35255 0.0
N622 N 0.82054 0.58548 0.28572 0.0
N623 N 0.80651 0.55775 0.39553 0.0
C624 C 0.82279 0.52974 0.35604 0.0
C625 C 0.83058 0.54497 0.29671 0.0
C626 C 0.554 0.84237 0.56124 0.0
C627 C 0.52474 0.8408 0.60827 0.0
C628 C 0.54116 0.84785 0.5014 0.0
C629 C 0.49865 0.85284 0.48654 0.0
H630 H 0.587 0.83867 0.57058 0.0
H631 H 0.56487 0.8485 0.46656 0.0
S632 S 0.40987 0.85342 0.59384 0.0
N633 N 0.45146 0.84615 0.63648 0.0
N634 N 0.42747 0.85687 0.52403 0.0
C635 C 0.46915 0.85222 0.53332 0.0
C636 C 0.48216 0.84603 0.59417 0.0
C637 C 0.1686 0.5529 0.82083 0.0
C638 C 0.16508 0.5249 0.86909 0.0
C639 C 0.16734 0.53861 0.76115 0.0
C640 C 0.16168 0.49591 0.7476 0.0
H641 H 0.17327 0.58592 0.82921 0.0
H642 H 0.17044 0.56139 0.72537 0.0
S643 S 0.14816 0.41038 0.85842 0.0
N644 N 0.154 0.45282 0.89991 0.0
N645 N 0.15114 0.42608 0.78763 0.0
C646 C 0.15707 0.46776 0.79557 0.0
C647 C 0.15895 0.48223 0.85635 0.0
loop_
_geom_bond_atom_site_label_1
_geom_bond_atom_site_label_2
_geom_bond_distance
_geom_bond_site_symmetry_2
_ccdc_geom_bond_type
Co0 O2 2.143 . S
Co0 O8 2.074 . S
Co0 O11 2.093 . S
Co0 O24 2.097 . S
Co0 N41 2.151 . S
Co0 N49 2.214 . S
Co1 O2 2.160 . S
Co1 O7 2.058 . S
Co1 O17 2.057 . S
Co1 O32 2.037 . S
Co1 N36 2.145 . S
Co1 N57 2.257 . S
O2 Co0 2.143 . S
O2 Co1 2.160 . S
C3 O4 1.278 . S
C3 O11 1.224 . S
O4 C3 1.278 . S
C5 O6 1.245 . S
C5 O17 1.232 . S
O6 C5 1.245 . S
O7 Co1 2.058 . S
O7 C33 1.269 . S
O8 Co0 2.074 . S
O8 C33 1.257 . S
H9 C34 0.930 . S
H10 C40 0.930 . S
O11 Co0 2.093 . S
O11 C3 1.224 . S
H12 C44 0.929 . S
H13 C46 0.930 . S
H14 C47 0.930 . S
H15 C45 0.929 . S
H16 C48 0.928 . S
O17 Co1 2.057 . S
O17 C5 1.232 . S
H18 C37 0.929 . S
H19 C38 0.929 . S
H20 C50 0.931 . S
H21 C42 0.929 . S
H22 C51 0.930 . S
H23 C43 0.931 . S
O24 Co0 2.097 . S
O24 C52 1.214 . S
H25 C53 0.929 . S
H26 C54 0.929 . S
H27 C55 0.930 . S
H28 C56 0.929 . S
H29 C58 0.930 . S
H30 C35 0.930 . S
H31 C39 0.930 . S
O32 Co1 2.037 . S
O32 C52 1.234 . S
C33 O7 1.269 . S
C33 O8 1.257 . S
C34 H9 0.930 . S
C34 C37 1.388 . S
C34 C39 1.418 . S
C35 H30 0.930 . S
C35 C38 1.404 . S
C35 C39 1.353 . S
N36 Co1 2.145 . S
N36 C37 1.397 . S
N36 C38 1.334 . S
C37 H18 0.929 . S
C37 C34 1.388 . S
C37 N36 1.397 . S
C38 H19 0.929 . S
C38 C35 1.404 . S
C38 N36 1.334 . S
C39 H31 0.930 . S
C39 C34 1.418 . S
C39 C35 1.353 . S
C40 H10 0.930 . S
C40 N41 1.330 . S
C40 C42 1.446 . S
N41 Co0 2.151 . S
N41 C40 1.330 . S
N41 C45 1.418 . S
C42 H21 0.929 . S
C42 C40 1.446 . S
C42 C43 1.332 . S
C43 H23 0.931 . S
C43 C42 1.332 . S
C43 C44 1.267 . S
C44 H12 0.929 . S
C44 C43 1.267 . S
C44 C45 1.251 . S
C45 H15 0.929 . S
C45 N41 1.418 . S
C45 C44 1.251 . S
C46 H13 0.930 . S
C46 C48 1.406 . S
C46 C51 1.261 . S
C47 H14 0.930 . S
C47 N49 1.325 . S
C47 C50 1.357 . S
C48 H16 0.928 . S
C48 C46 1.406 . S
C48 N49 1.261 . S
N49 Co0 2.214 . S
N49 C47 1.325 . S
N49 C48 1.261 . S
C50 H20 0.931 . S
C50 C47 1.357 . S
C50 C51 1.312 . S
C51 H22 0.930 . S
C51 C46 1.261 . S
C51 C50 1.312 . S
C52 O24 1.214 . S
C52 O32 1.234 . S
C53 H25 0.929 . S
C53 C56 1.391 . S
C53 C58 1.391 . S
C54 H26 0.929 . S
C54 C55 1.390 . S
C54 N57 1.391 . S
C55 H27 0.930 . S
C55 C54 1.390 . S
C55 C56 1.392 . S
C56 H28 0.929 . S
C56 C53 1.391 . S
C56 C55 1.392 . S
N57 Co1 2.257 . S
N57 C54 1.391 . S
N57 C58 1.388 . S
C58 H29 0.930 . S
C58 C53 1.391 . S
C58 N57 1.388 . S
Co59 O61 2.143 . S
Co59 O67 2.074 . S
Co59 O70 2.093 . S
Co59 O83 2.097 . S
Co59 N100 2.151 . S
Co59 N108 2.214 . S
Co60 O61 2.160 . S
Co60 O66 2.058 . S
Co60 O76 2.057 . S
Co60 O91 2.037 . S
Co60 N95 2.145 . S
Co60 N116 2.257 . S
O61 Co59 2.143 . S
O61 Co60 2.160 . S
C62 O63 1.278 . S
C62 O70 1.224 . S
O63 C62 1.278 . S
C64 O65 1.245 . S
C64 O76 1.232 . S
O65 C64 1.245 . S
O66 Co60 2.058 . S
O66 C92 1.269 . S
O67 Co59 2.074 . S
O67 C92 1.257 . S
H68 C93 0.930 . S
H69 C99 0.930 . S
O70 Co59 2.093 . S
O70 C62 1.224 . S
H71 C103 0.929 . S
H72 C105 0.930 . S
H73 C106 0.930 . S
H74 C104 0.929 . S
H75 C107 0.928 . S
O76 Co60 2.057 . S
O76 C64 1.232 . S
H77 C96 0.929 . S
H78 C97 0.929 . S
H79 C109 0.931 . S
H80 C101 0.929 . S
H81 C110 0.930 . S
H82 C102 0.931 . S
O83 Co59 2.097 . S
O83 C111 1.214 . S
H84 C112 0.929 . S
H85 C113 0.929 . S
H86 C114 0.930 . S
H87 C115 0.929 . S
H88 C117 0.930 . S
H89 C94 0.930 . S
H90 C98 0.930 . S
O91 Co60 2.037 . S
O91 C111 1.234 . S
C92 O66 1.269 . S
C92 O67 1.257 . S
C93 H68 0.930 . S
C93 C96 1.388 . S
C93 C98 1.418 . S
C94 H89 0.930 . S
C94 C97 1.404 . S
C94 C98 1.353 . S
N95 Co60 2.145 . S
N95 C96 1.397 . S
N95 C97 1.334 . S
C96 H77 0.929 . S
C96 C93 1.388 . S
C96 N95 1.397 . S
C97 H78 0.929 . S
C97 C94 1.404 . S
C97 N95 1.334 . S
C98 H90 0.930 . S
C98 C93 1.418 . S
C98 C94 1.353 . S
C99 H69 0.930 . S
C99 N100 1.330 . S
C99 C101 1.446 . S
N100 Co59 2.151 . S
N100 C99 1.330 . S
N100 C104 1.418 . S
C101 H80 0.929 . S
C101 C99 1.446 . S
C101 C102 1.332 . S
C102 H82 0.931 . S
C102 C101 1.332 . S
C102 C103 1.267 . S
C103 H71 0.929 . S
C103 C102 1.267 . S
C103 C104 1.251 . S
C104 H74 0.929 . S
C104 N100 1.418 . S
C104 C103 1.251 . S
C105 H72 0.930 . S
C105 C107 1.406 . S
C105 C110 1.261 . S
C106 H73 0.930 . S
C106 N108 1.325 . S
C106 C109 1.357 . S
C107 H75 0.928 . S
C107 C105 1.406 . S
C107 N108 1.261 . S
N108 Co59 2.214 . S
N108 C106 1.325 . S
N108 C107 1.261 . S
C109 H79 0.931 . S
C109 C106 1.357 . S
C109 C110 1.312 . S
C110 H81 0.930 . S
C110 C105 1.261 . S
C110 C109 1.312 . S
C111 O83 1.214 . S
C111 O91 1.234 . S
C112 H84 0.929 . S
C112 C115 1.391 . S
C112 C117 1.391 . S
C113 H85 0.929 . S
C113 C114 1.390 . S
C113 N116 1.391 . S
C114 H86 0.930 . S
C114 C113 1.390 . S
C114 C115 1.392 . S
C115 H87 0.929 . S
C115 C112 1.391 . S
C115 C114 1.392 . S
N116 Co60 2.257 . S
N116 C113 1.391 . S
N116 C117 1.388 . S
C117 H88 0.930 . S
C117 C112 1.391 . S
C117 N116 1.388 . S
Co118 O120 2.143 . S
Co118 O126 2.074 . S
Co118 O129 2.093 . S
Co118 O142 2.097 . S
Co118 N159 2.151 . S
Co118 N167 2.214 . S
Co119 O120 2.160 . S
Co119 O125 2.058 . S
Co119 O135 2.057 . S
Co119 O150 2.037 . S
Co119 N154 2.145 . S
Co119 N175 2.257 . S
O120 Co118 2.143 . S
O120 Co119 2.160 . S
C121 O122 1.278 . S
C121 O129 1.224 . S
O122 C121 1.278 . S
C123 O124 1.245 . S
C123 O135 1.232 . S
O124 C123 1.245 . S
O125 Co119 2.058 . S
O125 C151 1.269 . S
O126 Co118 2.074 . S
O126 C151 1.257 . S
H127 C152 0.930 . S
H128 C158 0.930 . S
O129 Co118 2.093 . S
O129 C121 1.224 . S
H130 C162 0.929 . S
H131 C164 0.930 . S
H132 C165 0.930 . S
H133 C163 0.929 . S
H134 C166 0.928 . S
O135 Co119 2.057 . S
O135 C123 1.232 . S
H136 C155 0.929 . S
H137 C156 0.929 . S
H138 C168 0.931 . S
H139 C160 0.929 . S
H140 C169 0.930 . S
H141 C161 0.931 . S
O142 Co118 2.097 . S
O142 C170 1.214 . S
H143 C171 0.929 . S
H144 C172 0.929 . S
H145 C173 0.930 . S
H146 C174 0.929 . S
H147 C176 0.930 . S
H148 C153 0.932 . S
H149 C157 0.930 . S
O150 Co119 2.037 . S
O150 C170 1.234 . S
C151 O125 1.269 . S
C151 O126 1.257 . S
C152 H127 0.930 . S
C152 C155 1.388 1_554 S
C152 C157 1.418 . S
C153 H148 0.932 . S
C153 C156 1.399 1_554 S
C153 C157 1.356 . S
N154 Co119 2.145 . S
N154 C155 1.397 . S
N154 C156 1.334 . S
C155 H136 0.929 . S
C155 C152 1.388 1_556 S
C155 N154 1.397 . S
C156 H137 0.929 . S
C156 C153 1.399 1_556 S
C156 N154 1.334 . S
C157 H149 0.930 . S
C157 C152 1.418 . S
C157 C153 1.356 . S
C158 H128 0.930 . S
C158 N159 1.330 . S
C158 C160 1.446 . S
N159 Co118 2.151 . S
N159 C158 1.330 . S
N159 C163 1.418 . S
C160 H139 0.929 . S
C160 C158 1.446 . S
C160 C161 1.332 . S
C161 H141 0.931 . S
C161 C160 1.332 . S
C161 C162 1.267 . S
C162 H130 0.929 . S
C162 C161 1.267 . S
C162 C163 1.251 . S
C163 H133 0.929 . S
C163 N159 1.418 . S
C163 C162 1.251 . S
C164 H131 0.930 . S
C164 C166 1.406 . S
C164 C169 1.261 . S
C165 H132 0.930 . S
C165 N167 1.325 . S
C165 C168 1.357 . S
C166 H134 0.928 . S
C166 C164 1.406 . S
C166 N167 1.261 . S
N167 Co118 2.214 . S
N167 C165 1.325 . S
N167 C166 1.261 . S
C168 H138 0.931 . S
C168 C165 1.357 . S
C168 C169 1.312 . S
C169 H140 0.930 . S
C169 C164 1.261 . S
C169 C168 1.312 . S
C170 O142 1.214 . S
C170 O150 1.234 . S
C171 H143 0.929 . S
C171 C174 1.391 . S
C171 C176 1.391 . S
C172 H144 0.929 . S
C172 C173 1.390 . S
C172 N175 1.391 . S
C173 H145 0.930 . S
C173 C172 1.390 . S
C173 C174 1.392 . S
C174 H146 0.929 . S
C174 C171 1.391 . S
C174 C173 1.392 . S
N175 Co119 2.257 . S
N175 C172 1.391 . S
N175 C176 1.388 . S
C176 H147 0.930 . S
C176 C171 1.391 . S
C176 N175 1.388 . S
Co177 O179 2.143 . S
Co177 O185 2.074 . S
Co177 O188 2.093 1_554 S
Co177 O201 2.097 . S
Co177 N218 2.151 . S
Co177 N226 2.214 . S
Co178 O179 2.160 . S
Co178 O184 2.058 . S
Co178 O194 2.057 . S
Co178 O209 2.037 . S
Co178 N213 2.145 . S
Co178 N234 2.257 . S
O179 Co177 2.143 . S
O179 Co178 2.160 . S
C180 O181 1.278 . S
C180 O188 1.224 . S
O181 C180 1.278 . S
C182 O183 1.245 . S
C182 O194 1.232 . S
O183 C182 1.245 . S
O184 Co178 2.058 . S
O184 C210 1.269 . S
O185 Co177 2.074 . S
O185 C210 1.257 . S
H186 C211 0.930 . S
H187 C217 0.936 . S
O188 Co177 2.093 1_556 S
O188 C180 1.224 . S
H189 C221 0.929 . S
H190 C223 0.930 . S
H191 C224 0.930 . S
H192 C222 0.929 . S
H193 C225 0.928 . S
O194 Co178 2.057 . S
O194 C182 1.232 . S
H195 C214 0.929 . S
H196 C215 0.929 . S
H197 C227 0.931 . S
H198 C219 0.929 . S
H199 C228 0.930 . S
H200 C220 0.931 . S
O201 Co177 2.097 . S
O201 C229 1.214 . S
H202 C230 0.929 . S
H203 C231 0.929 . S
H204 C232 0.930 . S
H205 C233 0.929 . S
H206 C235 0.930 . S
H207 C212 0.930 . S
H208 C216 0.930 . S
O209 Co178 2.037 . S
O209 C229 1.234 . S
C210 O184 1.269 . S
C210 O185 1.257 . S
C211 H186 0.930 . S
C211 C214 1.388 . S
C211 C216 1.418 . S
C212 H207 0.930 . S
C212 C215 1.404 . S
C212 C216 1.353 . S
N213 Co178 2.145 . S
N213 C214 1.397 . S
N213 C215 1.334 . S
C214 H195 0.929 . S
C214 C211 1.388 . S
C214 N213 1.397 . S
C215 H196 0.929 . S
C215 C212 1.404 . S
C215 N213 1.334 . S
C216 H208 0.930 . S
C216 C211 1.418 . S
C216 C212 1.353 . S
C217 H187 0.936 . S
C217 N218 1.330 . S
C217 C219 1.446 . S
N218 Co177 2.151 . S
N218 C217 1.330 . S
N218 C222 1.418 . S
C219 H198 0.929 . S
C219 C217 1.446 . S
C219 C220 1.332 . S
C220 H200 0.931 . S
C220 C219 1.332 . S
C220 C221 1.267 . S
C221 H189 0.929 . S
C221 C220 1.267 . S
C221 C222 1.251 . S
C222 H192 0.929 . S
C222 N218 1.418 . S
C222 C221 1.251 . S
C223 H190 0.930 . S
C223 C225 1.406 . S
C223 C228 1.261 . S
C224 H191 0.930 . S
C224 N226 1.325 . S
C224 C227 1.357 . S
C225 H193 0.928 . S
C225 C223 1.406 . S
C225 N226 1.261 . S
N226 Co177 2.214 . S
N226 C224 1.325 . S
N226 C225 1.261 . S
C227 H197 0.931 . S
C227 C224 1.357 . S
C227 C228 1.312 . S
C228 H199 0.930 . S
C228 C223 1.261 . S
C228 C227 1.312 . S
C229 O201 1.214 . S
C229 O209 1.234 . S
C230 H202 0.929 . S
C230 C233 1.391 . S
C230 C235 1.391 1_556 S
C231 H203 0.929 . S
C231 C232 1.390 1_554 S
C231 N234 1.391 . S
C232 H204 0.930 . S
C232 C231 1.390 1_556 S
C232 C233 1.392 . S
C233 H205 0.929 . S
C233 C230 1.391 . S
C233 C232 1.392 . S
N234 Co178 2.257 . S
N234 C231 1.391 . S
N234 C235 1.388 . S
C235 H206 0.930 . S
C235 C230 1.391 1_554 S
C235 N234 1.388 . S
Co236 O238 2.143 . S
Co236 O244 2.074 . S
Co236 O247 2.093 . S
Co236 O260 2.097 . S
Co236 N277 2.151 . S
Co236 N285 2.214 . S
Co237 O238 2.160 . S
Co237 O243 2.058 . S
Co237 O253 2.057 . S
Co237 O268 2.037 . S
Co237 N272 2.145 . S
Co237 N293 2.257 . S
O238 Co236 2.143 . S
O238 Co237 2.160 . S
C239 O240 1.278 . S
C239 O247 1.224 . S
O240 C239 1.278 . S
C241 O242 1.245 . S
C241 O253 1.232 . S
O242 C241 1.245 . S
O243 Co237 2.058 . S
O243 C269 1.269 . S
O244 Co236 2.074 . S
O244 C269 1.257 . S
H245 C270 0.930 . S
H246 C276 0.930 . S
O247 Co236 2.093 . S
O247 C239 1.224 . S
H248 C280 0.929 . S
H249 C282 0.930 . S
H250 C283 0.930 . S
H251 C281 0.929 . S
H252 C284 0.928 . S
O253 Co237 2.057 . S
O253 C241 1.232 . S
H254 C273 0.929 . S
H255 C274 0.929 . S
H256 C286 0.931 . S
H257 C278 0.929 . S
H258 C287 0.930 . S
H259 C279 0.931 . S
O260 Co236 2.097 . S
O260 C288 1.214 . S
H261 C289 0.929 . S
H262 C290 0.929 . S
H263 C291 0.930 . S
H264 C292 0.929 . S
H265 C294 0.930 . S
H266 C271 0.930 . S
H267 C275 0.930 . S
O268 Co237 2.037 . S
O268 C288 1.234 . S
C269 O243 1.269 . S
C269 O244 1.257 . S
C270 H245 0.930 . S
C270 C273 1.388 . S
C270 C275 1.418 . S
C271 H266 0.930 . S
C271 C274 1.404 . S
C271 C275 1.353 . S
N272 Co237 2.145 . S
N272 C273 1.397 . S
N272 C274 1.334 . S
C273 H254 0.929 . S
C273 C270 1.388 . S
C273 N272 1.397 . S
C274 H255 0.929 . S
C274 C271 1.404 . S
C274 N272 1.334 . S
C275 H267 0.930 . S
C275 C270 1.418 . S
C275 C271 1.353 . S
C276 H246 0.930 . S
C276 N277 1.330 . S
C276 C278 1.446 . S
N277 Co236 2.151 . S
N277 C276 1.330 . S
N277 C281 1.418 . S
C278 H257 0.929 . S
C278 C276 1.446 . S
C278 C279 1.332 . S
C279 H259 0.931 . S
C279 C278 1.332 . S
C279 C280 1.267 . S
C280 H248 0.929 . S
C280 C279 1.267 . S
C280 C281 1.251 . S
C281 H251 0.929 . S
C281 N277 1.418 . S
C281 C280 1.251 . S
C282 H249 0.930 . S
C282 C284 1.406 . S
C282 C287 1.261 . S
C283 H250 0.930 . S
C283 N285 1.325 . S
C283 C286 1.357 . S
C284 H252 0.928 . S
C284 C282 1.406 . S
C284 N285 1.261 . S
N285 Co236 2.214 . S
N285 C283 1.325 . S
N285 C284 1.261 . S
C286 H256 0.931 . S
C286 C283 1.357 . S
C286 C287 1.312 . S
C287 H258 0.930 . S
C287 C282 1.261 . S
C287 C286 1.312 . S
C288 O260 1.214 . S
C288 O268 1.234 . S
C289 H261 0.929 . S
C289 C292 1.391 . S
C289 C294 1.391 . S
C290 H262 0.929 . S
C290 C291 1.390 . S
C290 N293 1.391 . S
C291 H263 0.930 . S
C291 C290 1.390 . S
C291 C292 1.392 . S
C292 H264 0.929 . S
C292 C289 1.391 . S
C292 C291 1.392 . S
N293 Co237 2.257 . S
N293 C290 1.391 . S
N293 C294 1.388 . S
C294 H265 0.930 . S
C294 C289 1.391 . S
C294 N293 1.388 . S
Co295 O297 2.143 . S
Co295 O303 2.074 . S
Co295 O306 2.093 . S
Co295 O319 2.097 . S
Co295 N336 2.151 . S
Co295 N344 2.214 . S
Co296 O297 2.160 . S
Co296 O302 2.058 . S
Co296 O312 2.057 . S
Co296 O327 2.037 . S
Co296 N331 2.145 . S
Co296 N352 2.257 . S
O297 Co295 2.143 . S
O297 Co296 2.160 . S
C298 O299 1.278 . S
C298 O306 1.224 . S
O299 C298 1.278 . S
C300 O301 1.245 . S
C300 O312 1.232 . S
O301 C300 1.245 . S
O302 Co296 2.058 . S
O302 C328 1.269 . S
O303 Co295 2.074 . S
O303 C328 1.257 . S
H304 C329 0.930 . S
H305 C335 0.930 . S
O306 Co295 2.093 . S
O306 C298 1.224 . S
H307 C339 0.929 . S
H308 C341 0.930 . S
H309 C342 0.930 . S
H310 C340 0.929 . S
H311 C343 0.928 . S
O312 Co296 2.057 . S
O312 C300 1.232 . S
H313 C332 0.929 . S
H314 C333 0.929 . S
H315 C345 0.931 . S
H316 C337 0.929 . S
H317 C346 0.930 . S
H318 C338 0.931 . S
O319 Co295 2.097 . S
O319 C347 1.214 . S
H320 C348 0.929 . S
H321 C349 0.929 . S
H322 C350 0.930 . S
H323 C351 0.929 . S
H324 C353 0.930 . S
H325 C330 0.930 . S
H326 C334 0.930 . S
O327 Co296 2.037 . S
O327 C347 1.234 . S
C328 O302 1.269 . S
C328 O303 1.257 . S
C329 H304 0.930 . S
C329 C332 1.388 . S
C329 C334 1.418 . S
C330 H325 0.930 . S
C330 C333 1.404 . S
C330 C334 1.353 . S
N331 Co296 2.145 . S
N331 C332 1.397 . S
N331 C333 1.334 . S
C332 H313 0.929 . S
C332 C329 1.388 . S
C332 N331 1.397 . S
C333 H314 0.929 . S
C333 C330 1.404 . S
C333 N331 1.334 . S
C334 H326 0.930 . S
C334 C329 1.418 . S
C334 C330 1.353 . S
C335 H305 0.930 . S
C335 N336 1.330 . S
C335 C337 1.446 . S
N336 Co295 2.151 . S
N336 C335 1.330 . S
N336 C340 1.418 . S
C337 H316 0.929 . S
C337 C335 1.446 . S
C337 C338 1.332 . S
C338 H318 0.931 . S
C338 C337 1.332 . S
C338 C339 1.267 . S
C339 H307 0.929 . S
C339 C338 1.267 . S
C339 C340 1.251 . S
C340 H310 0.929 . S
C340 N336 1.418 . S
C340 C339 1.251 . S
C341 H308 0.930 . S
C341 C343 1.406 . S
C341 C346 1.261 . S
C342 H309 0.930 . S
C342 N344 1.325 . S
C342 C345 1.357 . S
C343 H311 0.928 . S
C343 C341 1.406 . S
C343 N344 1.261 . S
N344 Co295 2.214 . S
N344 C342 1.325 . S
N344 C343 1.261 . S
C345 H315 0.931 . S
C345 C342 1.357 . S
C345 C346 1.312 . S
C346 H317 0.930 . S
C346 C341 1.261 . S
C346 C345 1.312 . S
C347 O319 1.214 . S
C347 O327 1.234 . S
C348 H320 0.929 . S
C348 C351 1.391 . S
C348 C353 1.391 . S
C349 H321 0.929 . S
C349 C350 1.390 . S
C349 N352 1.391 . S
C350 H322 0.930 . S
C350 C349 1.390 . S
C350 C351 1.392 . S
C351 H323 0.929 . S
C351 C348 1.391 . S
C351 C350 1.392 . S
N352 Co296 2.257 . S
N352 C349 1.391 . S
N352 C353 1.388 . S
C353 H324 0.930 . S
C353 C348 1.391 . S
C353 N352 1.388 . S
Co354 O356 2.143 . S
Co354 O362 2.074 . S
Co354 O365 2.093 . S
Co354 O378 2.097 . S
Co354 N395 2.151 . S
Co354 N403 2.214 . S
Co355 O356 2.160 . S
Co355 O361 2.058 . S
Co355 O371 2.057 . S
Co355 O386 2.037 . S
Co355 N390 2.145 . S
Co355 N411 2.257 . S
O356 Co354 2.143 . S
O356 Co355 2.160 . S
C357 O358 1.278 . S
C357 O365 1.224 . S
O358 C357 1.278 . S
C359 O360 1.245 . S
C359 O371 1.232 . S
O360 C359 1.245 . S
O361 Co355 2.058 . S
O361 C387 1.269 . S
O362 Co354 2.074 . S
O362 C387 1.257 . S
H363 C388 0.930 . S
H364 C394 0.930 . S
O365 Co354 2.093 . S
O365 C357 1.224 . S
H366 C398 0.929 . S
H367 C400 0.930 . S
H368 C401 0.930 . S
H369 C399 0.929 . S
H370 C402 0.928 . S
O371 Co355 2.057 . S
O371 C359 1.232 . S
H372 C391 0.929 . S
H373 C392 0.929 . S
H374 C404 0.931 . S
H375 C396 0.929 . S
H376 C405 0.930 . S
H377 C397 0.931 . S
O378 Co354 2.097 . S
O378 C406 1.214 . S
H379 C407 0.929 . S
H380 C408 0.929 . S
H381 C409 0.930 . S
H382 C410 0.929 . S
H383 C412 0.930 . S
H384 C389 0.930 . S
H385 C393 0.930 . S
O386 Co355 2.037 . S
O386 C406 1.234 . S
C387 O361 1.269 . S
C387 O362 1.257 . S
C388 H363 0.930 . S
C388 C391 1.388 . S
C388 C393 1.418 . S
C389 H384 0.930 . S
C389 C392 1.404 . S
C389 C393 1.353 . S
N390 Co355 2.145 . S
N390 C391 1.397 . S
N390 C392 1.334 . S
C391 H372 0.929 . S
C391 C388 1.388 . S
C391 N390 1.397 . S
C392 H373 0.929 . S
C392 C389 1.404 . S
C392 N390 1.334 . S
C393 H385 0.930 . S
C393 C388 1.418 . S
C393 C389 1.353 . S
C394 H364 0.930 . S
C394 N395 1.330 . S
C394 C396 1.446 . S
N395 Co354 2.151 . S
N395 C394 1.330 . S
N395 C399 1.418 . S
C396 H375 0.929 . S
C396 C394 1.446 . S
C396 C397 1.332 . S
C397 H377 0.931 . S
C397 C396 1.332 . S
C397 C398 1.267 . S
C398 H366 0.929 . S
C398 C397 1.267 . S
C398 C399 1.251 . S
C399 H369 0.929 . S
C399 N395 1.418 . S
C399 C398 1.251 . S
C400 H367 0.930 . S
C400 C402 1.406 . S
C400 C405 1.261 . S
C401 H368 0.930 . S
C401 N403 1.325 . S
C401 C404 1.357 . S
C402 H370 0.928 . S
C402 C400 1.406 . S
C402 N403 1.261 . S
N403 Co354 2.214 . S
N403 C401 1.325 . S
N403 C402 1.261 . S
C404 H374 0.931 . S
C404 C401 1.357 . S
C404 C405 1.312 . S
C405 H376 0.930 . S
C405 C400 1.261 . S
C405 C404 1.312 . S
C406 O378 1.214 . S
C406 O386 1.234 . S
C407 H379 0.929 . S
C407 C410 1.391 . S
C407 C412 1.391 . S
C408 H380 0.929 . S
C408 C409 1.390 . S
C408 N411 1.391 . S
C409 H381 0.930 . S
C409 C408 1.390 . S
C409 C410 1.392 . S
C410 H382 0.929 . S
C410 C407 1.391 . S
C410 C409 1.392 . S
N411 Co355 2.257 . S
N411 C408 1.391 . S
N411 C412 1.388 . S
C412 H383 0.930 . S
C412 C407 1.391 . S
C412 N411 1.388 . S
Co413 O415 2.143 . S
Co413 O421 2.074 1_554 S
Co413 O424 2.093 . S
Co413 O437 2.097 . S
Co413 N454 2.151 . S
Co413 N462 2.214 . S
Co414 O415 2.160 1_556 S
Co414 O420 2.058 . S
Co414 O430 2.057 . S
Co414 O445 2.037 1_556 S
Co414 N449 2.145 . S
Co414 N470 2.257 1_556 S
O415 Co413 2.143 . S
O415 Co414 2.160 1_554 S
C416 O417 1.278 . S
C416 O424 1.224 . S
O417 C416 1.278 . S
C418 O419 1.245 . S
C418 O430 1.232 1_554 S
O419 C418 1.245 . S
O420 Co414 2.058 . S
O420 C446 1.269 . S
O421 Co413 2.074 1_556 S
O421 C446 1.257 . S
H422 C447 0.930 . S
H423 C453 0.930 . S
O424 Co413 2.093 . S
O424 C416 1.224 . S
H425 C457 0.929 1_556 S
H426 C459 0.930 . S
H427 C460 0.930 . S
H428 C458 0.929 1_556 S
H429 C461 0.928 . S
O430 Co414 2.057 . S
O430 C418 1.232 1_556 S
H431 C450 0.929 . S
H432 C451 0.929 . S
H433 C463 0.931 1_556 S
H434 C455 0.929 . S
H435 C464 0.930 . S
H436 C456 0.931 . S
O437 Co413 2.097 . S
O437 C465 1.214 . S
H438 C466 0.929 . S
H439 C467 0.929 . S
H440 C468 0.930 . S
H441 C469 0.929 . S
H442 C471 0.930 . S
H443 C448 0.930 . S
H444 C452 0.930 . S
O445 Co414 2.037 1_554 S
O445 C465 1.234 . S
C446 O420 1.269 . S
C446 O421 1.257 . S
C447 H422 0.930 . S
C447 C450 1.388 . S
C447 C452 1.418 . S
C448 H443 0.930 . S
C448 C451 1.404 . S
C448 C452 1.353 . S
N449 Co414 2.145 . S
N449 C450 1.397 . S
N449 C451 1.334 . S
C450 H431 0.929 . S
C450 C447 1.388 . S
C450 N449 1.397 . S
C451 H432 0.929 . S
C451 C448 1.404 . S
C451 N449 1.334 . S
C452 H444 0.930 . S
C452 C447 1.418 . S
C452 C448 1.353 . S
C453 H423 0.930 . S
C453 N454 1.330 . S
C453 C455 1.446 . S
N454 Co413 2.151 . S
N454 C453 1.330 . S
N454 C458 1.418 . S
C455 H434 0.929 . S
C455 C453 1.446 . S
C455 C456 1.332 . S
C456 H436 0.931 . S
C456 C455 1.332 . S
C456 C457 1.267 . S
C457 H425 0.929 1_554 S
C457 C456 1.267 . S
C457 C458 1.251 . S
C458 H428 0.929 1_554 S
C458 N454 1.418 . S
C458 C457 1.251 . S
C459 H426 0.930 . S
C459 C461 1.406 . S
C459 C464 1.261 . S
C460 H427 0.930 . S
C460 N462 1.325 . S
C460 C463 1.357 . S
C461 H429 0.928 . S
C461 C459 1.406 . S
C461 N462 1.261 . S
N462 Co413 2.214 . S
N462 C460 1.325 . S
N462 C461 1.261 . S
C463 H433 0.931 1_554 S
C463 C460 1.357 . S
C463 C464 1.312 . S
C464 H435 0.930 . S
C464 C459 1.261 . S
C464 C463 1.312 . S
C465 O437 1.214 . S
C465 O445 1.234 . S
C466 H438 0.929 . S
C466 C469 1.391 . S
C466 C471 1.391 . S
C467 H439 0.929 . S
C467 C468 1.390 . S
C467 N470 1.391 . S
C468 H440 0.930 . S
C468 C467 1.390 . S
C468 C469 1.392 . S
C469 H441 0.929 . S
C469 C466 1.391 . S
C469 C468 1.392 . S
N470 Co414 2.257 1_554 S
N470 C467 1.391 . S
N470 C471 1.388 . S
C471 H442 0.930 . S
C471 C466 1.391 . S
C471 N470 1.388 . S
C472 C473 1.369 . S
C472 C474 1.419 . S
C472 H476 0.930 . S
C473 C472 1.369 . S
C473 C482 1.429 . S
C474 C472 1.419 . S
C474 C475 1.363 . S
C474 H477 0.929 . S
C475 C474 1.363 . S
C475 C481 1.428 . S
H476 C472 0.930 . S
H477 C474 0.929 . S
S478 N479 1.613 . S
S478 N480 1.610 . S
N479 S478 1.613 . S
N479 C482 1.350 . S
N480 S478 1.610 . S
N480 C481 1.351 . S
C481 C475 1.428 . S
C481 N480 1.351 . S
C481 C482 1.434 . S
C482 C473 1.429 . S
C482 N479 1.350 . S
C482 C481 1.434 . S
C483 C484 1.369 . S
C483 C485 1.419 . S
C483 H487 0.930 . S
C484 C483 1.369 . S
C484 C493 1.429 . S
C485 C483 1.419 . S
C485 C486 1.363 . S
C485 H488 0.929 . S
C486 C485 1.363 . S
C486 C492 1.428 . S
H487 C483 0.930 . S
H488 C485 0.929 . S
S489 N490 1.613 . S
S489 N491 1.610 . S
N490 S489 1.613 . S
N490 C493 1.350 . S
N491 S489 1.610 . S
N491 C492 1.351 . S
C492 C486 1.428 . S
C492 N491 1.351 . S
C492 C493 1.434 . S
C493 C484 1.429 . S
C493 N490 1.350 . S
C493 C492 1.434 . S
C494 C495 1.369 . S
C494 C496 1.419 . S
C494 H498 0.930 . S
C495 C494 1.369 . S
C495 C504 1.429 . S
C496 C494 1.419 . S
C496 C497 1.363 1_554 S
C496 H499 0.929 . S
C497 C496 1.363 1_556 S
C497 C503 1.428 1_556 S
H498 C494 0.930 . S
H499 C496 0.929 . S
S500 N501 1.613 . S
S500 N502 1.610 1_554 S
N501 S500 1.613 . S
N501 C504 1.350 . S
N502 S500 1.610 1_556 S
N502 C503 1.351 1_556 S
C503 C497 1.428 1_554 S
C503 N502 1.351 1_554 S
C503 C504 1.434 . S
C504 C495 1.429 . S
C504 N501 1.350 . S
C504 C503 1.434 . S
C505 C506 1.369 . S
C505 C507 1.419 . S
C505 H509 0.930 . S
C506 C505 1.369 . S
C506 C515 1.429 . S
C507 C505 1.419 . S
C507 C508 1.363 . S
C507 H510 0.929 . S
C508 C507 1.363 . S
C508 C514 1.428 . S
H509 C505 0.930 . S
H510 C507 0.929 . S
S511 N512 1.613 . S
S511 N513 1.610 . S
N512 S511 1.613 . S
N512 C515 1.350 . S
N513 S511 1.610 . S
N513 C514 1.351 . S
C514 C508 1.428 . S
C514 N513 1.351 . S
C514 C515 1.434 . S
C515 C506 1.429 . S
C515 N512 1.350 . S
C515 C514 1.434 . S
C516 C517 1.369 . S
C516 C518 1.419 . S
C516 H520 0.930 . S
C517 C516 1.369 . S
C517 C526 1.429 . S
C518 C516 1.419 . S
C518 C519 1.363 . S
C518 H521 0.929 . S
C519 C518 1.363 . S
C519 C525 1.428 . S
H520 C516 0.930 . S
H521 C518 0.929 . S
S522 N523 1.613 . S
S522 N524 1.610 . S
N523 S522 1.613 . S
N523 C526 1.350 . S
N524 S522 1.610 . S
N524 C525 1.351 . S
C525 C519 1.428 . S
C525 N524 1.351 . S
C525 C526 1.434 . S
C526 C517 1.429 . S
C526 N523 1.350 . S
C526 C525 1.434 . S
C527 C528 1.369 . S
C527 C529 1.419 . S
C527 H531 0.930 . S
C528 C527 1.369 . S
C528 C537 1.429 . S
C529 C527 1.419 . S
C529 C530 1.363 . S
C529 H532 0.929 . S
C530 C529 1.363 . S
C530 C536 1.428 . S
H531 C527 0.930 . S
H532 C529 0.929 . S
S533 N534 1.613 . S
S533 N535 1.610 . S
N534 S533 1.613 . S
N534 C537 1.350 . S
N535 S533 1.610 . S
N535 C536 1.351 . S
C536 C530 1.428 . S
C536 N535 1.351 . S
C536 C537 1.434 . S
C537 C528 1.429 . S
C537 N534 1.350 . S
C537 C536 1.434 . S
C538 C539 1.369 . S
C538 C540 1.419 . S
C538 H542 0.930 1_556 S
C539 C538 1.369 . S
C539 C548 1.429 . S
C540 C538 1.419 . S
C540 C541 1.363 . S
C540 H543 0.929 . S
C541 C540 1.363 . S
C541 C547 1.428 . S
H542 C538 0.930 1_554 S
H543 C540 0.929 . S
S544 N545 1.613 . S
S544 N546 1.610 . S
N545 S544 1.613 . S
N545 C548 1.350 . S
N546 S544 1.610 . S
N546 C547 1.351 . S
C547 C541 1.428 . S
C547 N546 1.351 . S
C547 C548 1.434 . S
C548 C539 1.429 . S
C548 N545 1.350 . S
C548 C547 1.434 . S
C549 C550 1.369 . S
C549 C551 1.419 . S
C549 H553 0.930 . S
C550 C549 1.369 . S
C550 C559 1.429 . S
C551 C549 1.419 . S
C551 C552 1.363 . S
C551 H554 0.929 . S
C552 C551 1.363 . S
C552 C558 1.428 . S
H553 C549 0.930 . S
H554 C551 0.929 . S
S555 N556 1.613 . S
S555 N557 1.610 . S
N556 S555 1.613 . S
N556 C559 1.350 . S
N557 S555 1.610 . S
N557 C558 1.351 . S
C558 C552 1.428 . S
C558 N557 1.351 . S
C558 C559 1.434 . S
C559 C550 1.429 . S
C559 N556 1.350 . S
C559 C558 1.434 . S
C560 C561 1.369 . S
C560 C562 1.419 1_565 S
C560 H564 0.930 . S
C561 C560 1.369 . S
C561 C570 1.429 . S
C562 C560 1.419 1_545 S
C562 C563 1.363 . S
C562 H565 0.929 . S
C563 C562 1.363 . S
C563 C569 1.428 . S
H564 C560 0.930 . S
H565 C562 0.929 . S
S566 N567 1.613 1_545 S
S566 N568 1.610 . S
N567 S566 1.613 1_565 S
N567 C570 1.350 . S
N568 S566 1.610 . S
N568 C569 1.351 . S
C569 C563 1.428 . S
C569 N568 1.351 . S
C569 C570 1.434 1_545 S
C570 C561 1.429 . S
C570 N567 1.350 . S
C570 C569 1.434 1_565 S
C571 C572 1.369 . S
C571 C573 1.419 1_655 S
C571 H575 0.930 . S
C572 C571 1.369 . S
C572 C581 1.429 . S
C573 C571 1.419 1_455 S
C573 C574 1.363 . S
C573 H576 0.929 . S
C574 C573 1.363 . S
C574 C580 1.428 . S
H575 C571 0.930 . S
H576 C573 0.929 . S
S577 N578 1.613 . S
S577 N579 1.610 1_655 S
N578 S577 1.613 . S
N578 C581 1.350 . S
N579 S577 1.610 1_455 S
N579 C580 1.351 . S
C580 C574 1.428 . S
C580 N579 1.351 . S
C580 C581 1.434 1_455 S
C581 C572 1.429 . S
C581 N578 1.350 . S
C581 C580 1.434 1_655 S
C582 C583 1.369 . S
C582 C584 1.419 1_565 S
C582 H586 0.930 . S
C583 C582 1.369 . S
C583 C592 1.429 . S
C584 C582 1.419 1_545 S
C584 C585 1.363 . S
C584 H587 0.929 . S
C585 C584 1.363 . S
C585 C591 1.428 . S
H586 C582 0.930 . S
H587 C584 0.929 . S
S588 N589 1.613 . S
S588 N590 1.610 1_565 S
N589 S588 1.613 . S
N589 C592 1.350 . S
N590 S588 1.610 1_545 S
N590 C591 1.351 . S
C591 C585 1.428 . S
C591 N590 1.351 . S
C591 C592 1.434 1_545 S
C592 C583 1.429 . S
C592 N589 1.350 . S
C592 C591 1.434 1_565 S
C593 C594 1.369 . S
C593 C595 1.419 1_655 S
C593 H597 0.930 . S
C594 C593 1.369 . S
C594 C603 1.429 . S
C595 C593 1.419 1_455 S
C595 C596 1.363 . S
C595 H598 0.929 . S
C596 C595 1.363 . S
C596 C602 1.428 . S
H597 C593 0.930 . S
H598 C595 0.929 . S
S599 N600 1.613 . S
S599 N601 1.610 1_655 S
N600 S599 1.613 . S
N600 C603 1.350 . S
N601 S599 1.610 1_455 S
N601 C602 1.351 . S
C602 C596 1.428 . S
C602 N601 1.351 . S
C602 C603 1.434 1_455 S
C603 C594 1.429 . S
C603 N600 1.350 . S
C603 C602 1.434 1_655 S
C604 C605 1.369 . S
C604 C606 1.419 . S
C604 H608 0.930 . S
C605 C604 1.369 . S
C605 C614 1.429 . S
C606 C604 1.419 . S
C606 C607 1.363 . S
C606 H609 0.929 . S
C607 C606 1.363 . S
C607 C613 1.428 . S
H608 C604 0.930 . S
H609 C606 0.929 . S
S610 N611 1.613 . S
S610 N612 1.610 . S
N611 S610 1.613 . S
N611 C614 1.350 . S
N612 S610 1.610 . S
N612 C613 1.351 . S
C613 C607 1.428 . S
C613 N612 1.351 . S
C613 C614 1.434 . S
C614 C605 1.429 . S
C614 N611 1.350 . S
C614 C613 1.434 . S
C615 C616 1.369 . S
C615 C617 1.419 . S
C615 H619 0.930 . S
C616 C615 1.369 . S
C616 C625 1.429 . S
C617 C615 1.419 . S
C617 C618 1.363 . S
C617 H620 0.929 . S
C618 C617 1.363 . S
C618 C624 1.428 . S
H619 C615 0.930 . S
H620 C617 0.929 . S
S621 N622 1.613 . S
S621 N623 1.610 . S
N622 S621 1.613 . S
N622 C625 1.350 . S
N623 S621 1.610 . S
N623 C624 1.351 . S
C624 C618 1.428 . S
C624 N623 1.351 . S
C624 C625 1.434 . S
C625 C616 1.429 . S
C625 N622 1.350 . S
C625 C624 1.434 . S
C626 C627 1.369 . S
C626 C628 1.419 . S
C626 H630 0.930 . S
C627 C626 1.369 . S
C627 C636 1.429 . S
C628 C626 1.419 . S
C628 C629 1.363 . S
C628 H631 0.929 . S
C629 C628 1.363 . S
C629 C635 1.428 . S
H630 C626 0.930 . S
H631 C628 0.929 . S
S632 N633 1.613 . S
S632 N634 1.610 . S
N633 S632 1.613 . S
N633 C636 1.350 . S
N634 S632 1.610 . S
N634 C635 1.351 . S
C635 C629 1.428 . S
C635 N634 1.351 . S
C635 C636 1.434 . S
C636 C627 1.429 . S
C636 N633 1.350 . S
C636 C635 1.434 . S
C637 C638 1.369 . S
C637 C639 1.419 . S
C637 H641 0.930 . S
C638 C637 1.369 . S
C638 C647 1.429 . S
C639 C637 1.419 . S
C639 C640 1.363 . S
C639 H642 0.929 . S
C640 C639 1.363 . S
C640 C646 1.428 . S
H641 C637 0.930 . S
H642 C639 0.929 . S
S643 N644 1.613 . S
S643 N645 1.610 . S
N644 S643 1.613 . S
N644 C647 1.350 . S
N645 S643 1.610 . S
N645 C646 1.351 . S
C646 C640 1.428 . S
C646 N645 1.351 . S
C646 C647 1.434 . S
C647 C638 1.429 . S
C647 N644 1.350 . S
C647 C646 1.434 . S
C473 C33 1.067 . S
C475 C387 1.068 . S
C484 C92 1.069 . S
C486 C446 1.066 . S
C495 C269 1.067 . S
C497 C151 1.068 . S
C506 C328 1.068 . S
C508 C210 1.067 . S
C517 C5 1.625 . S
C519 C300 1.620 . S
C528 C64 1.624 . S
C530 C359 1.621 . S
C539 C418 1.619 1_556 S
C541 C123 1.624 . S
C550 C182 1.625 . S
C552 C241 1.619 . S
C561 C288 1.601 . S
C563 C52 1.599 . S
C572 C111 1.600 . S
C574 C347 1.600 . S
C583 C170 1.599 . S
C585 C406 1.601 . S
C594 C465 1.599 . S
C596 C229 1.602 . S
C605 C357 1.374 1_554 S
C607 C3 1.372 . S
C616 C416 1.374 . S
C618 C62 1.372 . S
C627 C121 1.372 . S
C629 C239 1.373 . S
C638 C180 1.368 . S
C640 C298 1.371 . S
