# Generated by pormake.
# Topology lhb, (8)-cn, num edge types: 1
# Building blocks:
#     Node 0, Type 0, BuildingBlock: EBIMEJ_clean_sbu_0, # of connection points: 8
#     Node 1, Type 0, BuildingBlock: EBIMEJ_clean_sbu_0, # of connection points: 8
#     Node 2, Type 0, BuildingBlock: EBIMEJ_clean_sbu_0, # of connection points: 8
#     Node 3, Type 0, BuildingBlock: EBIMEJ_clean_sbu_0, # of connection points: 8
#     Node 4, Type 0, BuildingBlock: EBIMEJ_clean_sbu_0, # of connection points: 8
#     Node 5, Type 0, BuildingBlock: EBIMEJ_clean_sbu_0, # of connection points: 8
#     Node 6, Type 0, BuildingBlock: EBIMEJ_clean_sbu_0, # of connection points: 8
#     Node 7, Type 0, BuildingBlock: EBIMEJ_clean_sbu_0, # of connection points: 8
#     Edge 8, Type (0, 0), BuildingBlock: AJUNOK_clean_linker_0, # of connection points: 2
#     Edge 9, Type (0, 0), BuildingBlock: AJUNOK_clean_linker_0, # of connection points: 2
#     Edge 10, Type (0, 0), BuildingBlock: AJUNOK_clean_linker_0, # of connection points: 2
#     Edge 11, Type (0, 0), BuildingBlock: AJUNOK_clean_linker_0, # of connection points: 2
#     Edge 12, Type (0, 0), BuildingBlock: AJUNOK_clean_linker_0, # of connection points: 2
#     Edge 13, Type (0, 0), BuildingBlock: AJUNOK_clean_linker_0, # of connection points: 2
#     Edge 14, Type (0, 0), BuildingBlock: AJUNOK_clean_linker_0, # of connection points: 2
#     Edge 15, Type (0, 0), BuildingBlock: AJUNOK_clean_linker_0, # of connection points: 2
#     Edge 16, Type (0, 0), BuildingBlock: AJUNOK_clean_linker_0, # of connection points: 2
#     Edge 17, Type (0, 0), BuildingBlock: AJUNOK_clean_linker_0, # of connection points: 2
#     Edge 18, Type (0, 0), BuildingBlock: AJUNOK_clean_linker_0, # of connection points: 2
#     Edge 19, Type (0, 0), BuildingBlock: AJUNOK_clean_linker_0, # of connection points: 2
#     Edge 20, Type (0, 0), BuildingBlock: AJUNOK_clean_linker_0, # of connection points: 2
#     Edge 21, Type (0, 0), BuildingBlock: AJUNOK_clean_linker_0, # of connection points: 2
#     Edge 22, Type (0, 0), BuildingBlock: AJUNOK_clean_linker_0, # of connection points: 2
#     Edge 23, Type (0, 0), BuildingBlock: AJUNOK_clean_linker_0, # of connection points: 2
#     Edge 24, Type (0, 0), BuildingBlock: AJUNOK_clean_linker_0, # of connection points: 2
#     Edge 25, Type (0, 0), BuildingBlock: AJUNOK_clean_linker_0, # of connection points: 2
#     Edge 26, Type (0, 0), BuildingBlock: AJUNOK_clean_linker_0, # of connection points: 2
#     Edge 27, Type (0, 0), BuildingBlock: AJUNOK_clean_linker_0, # of connection points: 2
#     Edge 28, Type (0, 0), BuildingBlock: AJUNOK_clean_linker_0, # of connection points: 2
#     Edge 29, Type (0, 0), BuildingBlock: AJUNOK_clean_linker_0, # of connection points: 2
#     Edge 30, Type (0, 0), BuildingBlock: AJUNOK_clean_linker_0, # of connection points: 2
#     Edge 31, Type (0, 0), BuildingBlock: AJUNOK_clean_linker_0, # of connection points: 2
#     Edge 32, Type (0, 0), BuildingBlock: AJUNOK_clean_linker_0, # of connection points: 2
#     Edge 33, Type (0, 0), BuildingBlock: AJUNOK_clean_linker_0, # of connection points: 2
#     Edge 34, Type (0, 0), BuildingBlock: AJUNOK_clean_linker_0, # of connection points: 2
#     Edge 35, Type (0, 0), BuildingBlock: AJUNOK_clean_linker_0, # of connection points: 2
#     Edge 36, Type (0, 0), BuildingBlock: AJUNOK_clean_linker_0, # of connection points: 2
#     Edge 37, Type (0, 0), BuildingBlock: AJUNOK_clean_linker_0, # of connection points: 2
#     Edge 38, Type (0, 0), BuildingBlock: AJUNOK_clean_linker_0, # of connection points: 2
#     Edge 39, Type (0, 0), BuildingBlock: AJUNOK_clean_linker_0, # of connection points: 2
# Relax obj value: 0.067
# Max RMSD: 0.169
# Mean RMSD: 0.169
data_MOF--net-lhb--node1-EBIMEJ_clean_sbu_0--edge1-AJUNOK_clean_linker_0
_symmetry_space_group_name_H-M    P1
_symmetry_Int_Tables_number       1
_symmetry_cell_setting            triclinic
loop_
_symmetry_equiv_pos_as_xyz
'x, y, z'
_cell_length_a     24.530885
_cell_length_b     11.847393
_cell_length_c     52.953829
_cell_angle_alpha  81.704209
_cell_angle_beta   89.848444
_cell_angle_gamma 89.980025
loop_
_atom_site_label
_atom_site_type_symbol
_atom_site_fract_x
_atom_site_fract_y
_atom_site_fract_z
_atom_type_partial_charge
Co0 Co 0.96389 0.91246 0.98356 0.0
Co1 Co 0.07272 0.00958 1.01193 0.0
Co2 Co 0.97292 0.92179 0.04268 0.0
H3 H 0.9776 0.94542 1.01296 0.0
O4 O 0.99251 0.00955 1.00717 0.0
H5 H 0.06355 0.00742 0.04224 0.0
O6 O 0.05177 0.94087 0.04859 0.0
Co7 Co 0.06695 0.05789 0.07105 0.0
O8 O 0.13961 0.1121 0.0548 0.0
O9 O 0.15181 0.02795 1.01976 0.0
O10 O 0.01885 0.96675 0.09873 0.0
O11 O 0.95983 0.86267 0.07905 0.0
O12 O 0.94785 0.90245 0.94599 0.0
O13 O 0.90459 0.01669 0.96444 0.0
O14 O 0.01972 0.17169 0.04962 0.0
O15 O 0.06399 0.17763 1.01283 0.0
C16 C 0.8726 0.83872 1.01921 0.0
C17 C 0.07434 0.96119 0.95822 0.0
C18 C 0.10047 0.11899 0.11223 0.0
C19 C 1.00518 0.7152 1.01765 0.0
C20 C 0.16914 0.08992 0.03615 0.0
C21 C 0.98004 0.89408 0.09915 0.0
C22 C 0.91151 -0.02253 0.94383 0.0
C23 C 0.03595 0.22631 0.02856 0.0
O24 O 0.89794 0.82873 0.99871 0.0
O25 O 0.89315 0.89322 0.03617 0.0
O26 O 0.09053 0.0315 0.97333 0.0
O27 O 0.03043 0.90494 0.96243 0.0
O28 O 0.08182 0.18589 0.09369 0.0
O29 O 0.10004 0.01842 0.10724 0.0
O30 O 1.00295 0.76691 0.99501 0.0
O31 O 0.99066 0.76161 0.03697 0.0
Co32 Co 0.20685 0.30892 0.32076 0.0
Co33 Co 0.29896 0.17267 0.2914 0.0
Co34 Co 0.20007 0.26303 0.26149 0.0
H35 H 0.2093 0.25916 0.29182 0.0
O36 O 0.22063 0.19215 0.29791 0.0
H37 H 0.29353 0.1947 0.26156 0.0
O38 O 0.27966 0.26002 0.25598 0.0
Co39 Co 0.30496 0.15946 0.23208 0.0
O40 O 0.37101 0.07364 0.24742 0.0
O41 O 0.37795 0.1436 0.28424 0.0
O42 O 0.23529 0.15064 0.21236 0.0
O43 O 0.18289 0.29159 0.22331 0.0
O44 O 0.1948 0.42936 0.34573 0.0
O45 O 0.16732 0.26476 0.35536 0.0
O46 O 0.27161 0.00912 0.24435 0.0
O47 O 0.28055 0.01256 0.28617 0.0
C48 C 0.10336 0.33785 0.28688 0.0
C49 C 0.29667 0.15195 0.34787 0.0
C50 C 0.3556 0.22883 0.19203 0.0
C51 C 0.24097 0.47143 0.27869 0.0
C52 C 0.39657 0.08331 0.26791 0.0
C53 C 0.19493 0.21865 0.20817 0.0
C54 C 0.17087 0.3611 0.36252 0.0
C55 C 0.26895 0.96097 0.26728 0.0
O56 O 0.13281 0.36108 0.30545 0.0
O57 O 0.12149 0.28069 0.26976 0.0
O58 O 0.31241 0.11383 0.32768 0.0
O59 O 0.26017 0.22962 0.34768 0.0
O60 O 0.31653 0.16004 0.19372 0.0
O61 O 0.36596 0.25966 0.21324 0.0
O62 O 0.25854 0.40962 0.2985 0.0
O63 O 0.20982 0.4294 0.2632 0.0
Co64 Co 0.70457 0.80607 0.32125 0.0
Co65 Co 0.79742 0.66885 0.29235 0.0
Co66 Co 0.69868 0.75921 0.26228 0.0
H67 H 0.70777 0.75548 0.29253 0.0
O68 O 0.71904 0.68837 0.29866 0.0
H69 H 0.79359 0.69569 0.26241 0.0
O70 O 0.77862 0.7603 0.25721 0.0
Co71 Co 0.80855 0.66848 0.23244 0.0
O72 O 0.87413 0.58058 0.24785 0.0
O73 O 0.87673 0.64188 0.28573 0.0
O74 O 0.74193 0.66774 0.2099 0.0
O75 O 0.68112 0.7871 0.22405 0.0
O76 O 0.70734 0.90601 0.35098 0.0
O77 O 0.64678 0.78674 0.34995 0.0
O78 O 0.77422 0.51767 0.24302 0.0
O79 O 0.77917 0.51046 0.28533 0.0
C80 C 0.6014 0.8333 0.28716 0.0
C81 C 0.79354 0.64499 0.34865 0.0
C82 C 0.86423 0.74861 0.19447 0.0
C83 C 0.73547 0.97543 0.27925 0.0
C84 C 0.89785 0.58708 0.26899 0.0
C85 C 0.69787 0.72591 0.20717 0.0
C86 C 0.66552 0.86183 0.36205 0.0
C87 C 0.76923 0.4642 0.26539 0.0
O88 O 0.63067 0.8582 0.30564 0.0
O89 O 0.61976 0.77405 0.27046 0.0
O90 O 0.80978 0.60559 0.32864 0.0
O91 O 0.75722 0.72333 0.34798 0.0
O92 O 0.88413 0.7065 0.21553 0.0
O93 O 0.81327 0.74748 0.1953 0.0
O94 O 0.75142 0.92207 0.30042 0.0
O95 O 0.70705 0.9268 0.26373 0.0
Co96 Co 0.96197 0.40586 0.4825 0.0
Co97 Co 0.06857 0.5061 0.51223 0.0
Co98 Co 0.9683 0.4172 0.54194 0.0
H99 H 0.97427 0.43918 0.5121 0.0
O100 O 0.98893 0.50379 0.50654 0.0
H101 H 0.05851 0.50326 0.54249 0.0
O102 O 0.04673 0.43652 0.54866 0.0
Co103 Co 0.06093 0.55384 0.57132 0.0
O104 O 0.13486 0.60699 0.55608 0.0
O105 O 0.14716 0.52475 0.52072 0.0
O106 O 1.00903 0.46965 0.59832 0.0
O107 O 0.95325 0.36004 0.57828 0.0
O108 O 0.94376 0.40207 0.44471 0.0
O109 O 0.90408 0.51647 0.46453 0.0
O110 O 0.01187 0.66268 0.54959 0.0
O111 O 0.05848 0.67361 0.51337 0.0
C112 C 0.8699 0.33125 0.51805 0.0
C113 C 0.07345 0.46008 0.45857 0.0
C114 C 0.09528 0.6121 0.61272 0.0
C115 C 0.99891 0.20723 0.51746 0.0
C116 C 0.16476 0.58346 0.53765 0.0
C117 C 0.9706 0.39635 0.59838 0.0
C118 C 0.90878 0.47983 0.44352 0.0
C119 C 0.02767 0.71883 0.52864 0.0
O120 O 0.89489 0.32197 0.49734 0.0
O121 O 0.88947 0.38846 0.53471 0.0
O122 O 0.08718 0.53094 0.47396 0.0
O123 O 0.03048 0.39923 0.46197 0.0
O124 O 0.06981 0.67679 0.59588 0.0
O125 O 0.10117 0.51543 0.60591 0.0
O126 O 0.99768 0.25712 0.49463 0.0
O127 O 0.98587 0.2565 0.53658 0.0
Co128 Co 0.20915 0.80625 0.82027 0.0
Co129 Co 0.30202 0.67284 0.79036 0.0
Co130 Co 0.20195 0.75871 0.76119 0.0
H131 H 0.21186 0.75583 0.79142 0.0
O132 O 0.22389 0.68935 0.7975 0.0
H133 H 0.2955 0.69319 0.76074 0.0
O134 O 0.28118 0.75786 0.75499 0.0
Co135 Co 0.30656 0.65447 0.73171 0.0
O136 O 0.37328 0.56935 0.74688 0.0
O137 O 0.38091 0.64839 0.78253 0.0
O138 O 0.23686 0.64557 0.71206 0.0
O139 O 0.1832 0.78448 0.72307 0.0
O140 O 0.20942 0.91454 0.84844 0.0
O141 O 0.15614 0.77937 0.85081 0.0
O142 O 0.26856 0.50953 0.74426 0.0
O143 O 0.28484 0.51109 0.78558 0.0
C144 C 0.10542 0.83443 0.78638 0.0
C145 C 0.30025 0.64856 0.8469 0.0
C146 C 0.36073 0.72058 0.69265 0.0
C147 C 0.24202 0.9693 0.77824 0.0
C148 C 0.39992 0.58662 0.76659 0.0
C149 C 0.19553 0.71113 0.70803 0.0
C150 C 0.17197 0.86187 0.86139 0.0
C151 C 0.26928 0.46027 0.76712 0.0
O152 O 0.13458 0.85992 0.80491 0.0
O153 O 0.12381 0.77342 0.77008 0.0
O154 O 0.31713 0.61517 0.8264 0.0
O155 O 0.26209 0.72283 0.84719 0.0
O156 O 0.33202 0.63218 0.69589 0.0
O157 O 0.3587 0.77248 0.71171 0.0
O158 O 0.26031 0.9076 0.79791 0.0
O159 O 0.21108 0.92625 0.76275 0.0
Co160 Co 0.70754 0.3047 0.822 0.0
Co161 Co 0.79965 0.16662 0.79213 0.0
Co162 Co 0.70001 0.25737 0.76267 0.0
H163 H 0.70972 0.25441 0.79306 0.0
O164 O 0.72122 0.18733 0.7991 0.0
H165 H 0.7939 0.19033 0.76237 0.0
O166 O 0.77965 0.2554 0.75696 0.0
Co167 Co 0.80536 0.15704 0.73273 0.0
O168 O 0.87355 0.07644 0.74685 0.0
O169 O 0.87886 0.13699 0.78479 0.0
O170 O 0.72896 0.12229 0.72168 0.0
O171 O 0.68274 0.28002 0.72426 0.0
O172 O 0.65274 0.4017 0.84022 0.0
O173 O 0.71388 0.31454 0.86103 0.0
O174 O 0.77409 0.0041 0.74429 0.0
O175 O 0.78144 0.00688 0.78636 0.0
C176 C 0.60488 0.33937 0.78726 0.0
C177 C 0.79629 0.1387 0.84867 0.0
C178 C 0.85577 0.24291 0.69351 0.0
C179 C 0.74153 0.46841 0.77915 0.0
C180 C 0.89893 0.08319 0.76754 0.0
C181 C 0.6947 0.19652 0.71195 0.0
C182 C 0.67391 0.38006 0.86194 0.0
C183 C 0.77101 0.9559 0.76721 0.0
O184 O 0.63447 0.36133 0.80593 0.0
O185 O 0.62154 0.27633 0.77099 0.0
O186 O 0.81353 0.10587 0.82815 0.0
O187 O 0.75842 0.21387 0.8489 0.0
O188 O 0.80531 0.24896 0.69656 0.0
O189 O 0.87803 0.18995 0.71296 0.0
O190 O 0.75748 0.41096 0.79991 0.0
O191 O 0.71049 0.42435 0.76386 0.0
Co192 Co 0.45983 0.91476 0.48307 0.0
Co193 Co 0.56845 0.00911 0.5115 0.0
Co194 Co 0.47105 0.91771 0.54236 0.0
H195 H 0.47421 0.94533 0.51257 0.0
O196 O 0.48842 0.01059 0.50726 0.0
H197 H 0.56107 0.00436 0.54211 0.0
O198 O 0.54977 0.93701 0.54802 0.0
Co199 Co 0.56587 0.05093 0.57139 0.0
O200 O 0.64061 0.09568 0.55538 0.0
O201 O 0.64759 0.02249 0.5184 0.0
O202 O 0.51394 0.96502 0.59841 0.0
O203 O 0.46002 0.85274 0.5783 0.0
O204 O 0.43025 0.89065 0.44818 0.0
O205 O 0.41462 0.04283 0.46169 0.0
O206 O 0.5192 0.1692 0.55113 0.0
O207 O 0.5612 0.17559 0.51366 0.0
C208 C 0.36899 0.83901 0.51921 0.0
C209 C 0.56876 0.9568 0.45973 0.0
C210 C 0.60394 0.1051 0.61267 0.0
C211 C 0.49822 0.71112 0.51562 0.0
C212 C 0.66793 0.0742 0.5359 0.0
C213 C 0.47738 0.88728 0.59855 0.0
C214 C 0.40796 -0.01365 0.44359 0.0
C215 C 0.53404 0.22344 0.52979 0.0
O216 O 0.39182 0.83486 0.49775 0.0
O217 O 0.39143 0.88943 0.53637 0.0
O218 O 0.58295 0.03586 0.47288 0.0
O219 O 0.534 0.88261 0.46902 0.0
O220 O 0.56573 0.15679 0.60014 0.0
O221 O 0.61984 0.02368 0.6017 0.0
O222 O 0.49204 0.76233 0.49315 0.0
O223 O 0.48939 0.75948 0.53534 0.0
Co224 Co 0.46809 0.41442 0.98122 0.0
Co225 Co 0.57398 0.50697 1.01262 0.0
Co226 Co 0.47328 0.4187 0.041 0.0
H227 H 0.47987 0.44412 1.01116 0.0
O228 O 0.49483 0.50901 1.00625 0.0
H229 H 0.5636 0.5002 0.04295 0.0
O230 O 0.55133 0.43333 0.04856 0.0
Co231 Co 0.56637 0.5475 0.07211 0.0
O232 O 0.64119 0.60075 0.05707 0.0
O233 O 0.65205 0.5187 1.02163 0.0
O234 O 0.51324 0.45903 0.09824 0.0
O235 O 0.45751 0.35594 0.07677 0.0
O236 O 0.4506 0.40367 0.94379 0.0
O237 O 0.41076 0.52339 0.96205 0.0
O238 O 0.52136 0.66861 0.05179 0.0
O239 O 0.56568 0.67365 1.01496 0.0
C240 C 0.37467 0.34063 1.01625 0.0
C241 C 0.57775 0.48639 0.9567 0.0
C242 C 0.60023 0.61618 0.11245 0.0
C243 C 0.50412 0.21199 1.01524 0.0
C244 C 0.6702 0.57821 0.0382 0.0
C245 C 0.47437 0.38675 0.09752 0.0
C246 C 0.41591 0.48218 0.94159 0.0
C247 C 0.53728 0.72212 0.03057 0.0
O248 O 0.40074 0.32879 0.99593 0.0
O249 O 0.39453 0.39702 0.03295 0.0
O250 O 0.59365 0.54124 0.97479 0.0
O251 O 0.53443 0.42612 0.95816 0.0
O252 O 0.55121 0.59597 0.10796 0.0
O253 O 0.62978 0.59577 0.09423 0.0
O254 O 0.50358 0.26566 0.99278 0.0
O255 O 0.49027 0.25879 0.03463 0.0
C256 C 0.13555 0.06406 0.15666 0.0
C257 C 0.11921 0.15103 0.13725 0.0
C258 C 0.15575 0.08829 0.18004 0.0
C259 C 0.16137 0.20109 0.1854 0.0
H260 H 0.13406 0.97572 0.1536 0.0
H261 H 0.16911 0.01713 0.19383 0.0
S262 S 0.12288 0.46143 0.14152 0.0
N263 N 0.10799 0.35597 0.12537 0.0
N264 N 0.14721 0.40132 0.16934 0.0
C265 C 0.14358 0.28945 0.16657 0.0
C266 C 0.12248 0.26454 0.14253 0.0
C267 C 0.89618 0.83872 0.12439 0.0
C268 C 0.95305 0.85311 0.12385 0.0
C269 C 0.8682 0.80732 0.14737 0.0
C270 C 0.89584 0.78616 0.17081 0.0
H271 H 0.87272 0.85453 0.10692 0.0
H272 H 0.82442 0.79926 0.14659 0.0
S273 S 0.04521 0.80783 0.17985 0.0
N274 N 0.03646 0.84294 0.14878 0.0
N275 N 0.9838 0.77995 0.19205 0.0
C276 C 0.9529 0.79866 0.17061 0.0
C277 C 0.98147 0.83315 0.14713 0.0
C278 C 0.13085 0.52322 0.41832 0.0
C279 C 0.10748 0.43669 0.43616 0.0
C280 C 0.15238 0.49885 0.3947 0.0
C281 C 0.15102 0.38735 0.38798 0.0
H282 H 0.13028 0.61068 0.42205 0.0
H283 H 0.16882 0.5684 0.38134 0.0
S284 S 0.09891 0.1289 0.429 0.0
N285 N 0.0889 0.23319 0.44601 0.0
N286 N 0.12726 0.1894 0.40217 0.0
C287 C 0.12978 0.30016 0.40616 0.0
C288 C 0.10872 0.3243 0.43002 0.0
C289 C 0.85936 0.51386 0.37484 0.0
C290 C 0.81997 0.60118 0.3736 0.0
C291 C 0.88743 0.47533 0.39749 0.0
C292 C 0.87736 0.52188 0.42005 0.0
H293 H 0.86915 0.47506 0.35808 0.0
H294 H 0.91764 0.40879 0.39722 0.0
S295 S 0.77689 0.74877 0.42784 0.0
N296 N 0.77142 0.73083 0.39761 0.0
N297 N 0.82407 0.65767 0.44008 0.0
C298 C 0.83749 0.60761 0.41938 0.0
C299 C 0.80882 0.64723 0.39625 0.0
C300 C 0.14228 0.55804 0.65458 0.0
C301 C 0.11552 0.6423 0.63771 0.0
C302 C 0.16457 0.58148 0.67762 0.0
C303 C 0.16191 0.69098 0.68528 0.0
H304 H 0.14705 0.47267 0.64981 0.0
H305 H 0.18549 0.51234 0.68934 0.0
S306 S 0.09169 0.9408 0.64921 0.0
N307 N 0.08387 0.83917 0.63114 0.0
N308 N 0.12656 0.88333 0.67453 0.0
C309 C 0.13303 0.77546 0.66922 0.0
C310 C 0.10993 0.75127 0.64545 0.0
C311 C 0.94211 0.281 0.66801 0.0
C312 C 0.88477 0.28609 0.66939 0.0
C313 C 0.97004 0.31795 0.64505 0.0
C314 C 0.94145 0.35873 0.62261 0.0
H315 H 0.96562 0.24804 0.68475 0.0
H316 H 0.01413 0.31275 0.64474 0.0
S317 S 0.79191 0.39955 0.61649 0.0
N318 N 0.80094 0.34267 0.64652 0.0
N319 N 0.85335 0.41011 0.60353 0.0
C320 C 0.88438 0.36625 0.62384 0.0
C321 C 0.85605 0.33042 0.64719 0.0
C322 C 0.16563 -0.01437 0.89744 0.0
C323 C 0.15016 0.88796 0.88652 0.0
C324 C 0.14315 0.00918 0.92099 0.0
C325 C 0.10454 0.93549 0.93461 0.0
H326 H 0.19464 0.04527 0.88752 0.0
H327 H 0.15507 0.08656 0.92818 0.0
S328 S 0.05378 0.66305 0.91485 0.0
N329 N 0.09562 0.71575 0.89182 0.0
N330 N 0.05542 0.75481 0.93539 0.0
C331 C 0.09077 0.83524 0.92401 0.0
C332 C 0.11286 0.81299 0.90023 0.0
C333 C 0.8105 0.13196 0.89617 0.0
C334 C 0.8239 0.09145 0.87314 0.0
C335 C 0.83863 0.09452 0.91897 0.0
C336 C 0.88133 0.01479 0.91974 0.0
H337 H 0.77852 0.19446 0.89662 0.0
H338 H 0.82703 0.129 0.93607 0.0
S339 S 0.93255 0.87926 0.86524 0.0
N340 N 0.88295 0.96399 0.85305 0.0
N341 N 0.93541 0.89511 0.89564 0.0
C342 C 0.89481 0.97222 0.89705 0.0
C343 C 0.86626 0.01001 0.87387 0.0
C344 C 0.63029 0.24803 0.67321 0.0
C345 C 0.67032 0.17688 0.68646 0.0
C346 C 0.60878 0.22569 0.64942 0.0
C347 C 0.62648 0.13159 0.63773 0.0
H348 H 0.61536 0.32119 0.68125 0.0
H349 H 0.57803 0.28265 0.64011 0.0
S350 S 0.73044 0.91865 0.66376 0.0
N351 N 0.72645 0.00688 0.68504 0.0
N352 N 0.68657 0.96788 0.64139 0.0
C353 C 0.66643 0.06081 0.65067 0.0
C354 C 0.6881 0.08259 0.67462 0.0
C355 C 0.45247 0.89884 0.64425 0.0
C356 C 0.45122 0.83881 0.62313 0.0
C357 C 0.42353 0.85969 0.66676 0.0
C358 C 0.39253 0.75875 0.66908 0.0
H359 H 0.47471 -0.02162 0.64317 0.0
H360 H 0.42493 0.90978 0.68232 0.0
S361 S 0.37938 0.56461 0.62026 0.0
N362 N 0.41882 0.66906 0.60675 0.0
N363 N 0.36462 0.59641 0.64883 0.0
C364 C 0.39223 0.69617 0.64843 0.0
C365 C 0.42153 0.73589 0.62555 0.0
C366 C 0.65763 0.42082 0.93249 0.0
C367 C 0.6097 0.48638 0.9326 0.0
C368 C 0.67905 0.38989 0.90957 0.0
C369 C 0.65333 0.4225 0.88576 0.0
H370 H 0.67685 0.38723 0.9504 0.0
H371 H 0.71498 0.33637 0.91071 0.0
S372 S 0.5288 0.60184 0.87564 0.0
N373 N 0.53887 0.58757 0.90675 0.0
N374 N 0.57874 0.53101 0.86402 0.0
C375 C 0.60673 0.49238 0.88563 0.0
C376 C 0.58506 0.52357 0.90889 0.0
C377 C 0.34609 0.60807 0.91666 0.0
C378 C 0.38554 0.5212 0.91764 0.0
C379 C 0.31784 0.64714 0.89397 0.0
C380 C 0.32811 0.60134 0.87126 0.0
H381 H 0.33713 0.6468 0.93353 0.0
H382 H 0.28833 0.71505 0.89419 0.0
S383 S 0.42699 0.36929 0.864 0.0
N384 N 0.43253 0.38843 0.89413 0.0
N385 N 0.38044 0.46141 0.85167 0.0
C386 C 0.36719 0.51307 0.87219 0.0
C387 C 0.39559 0.4732 0.89528 0.0
C388 C 0.67735 0.68025 0.13805 0.0
C389 C 0.62151 0.65661 0.13623 0.0
C390 C 0.70003 0.71037 0.16048 0.0
C391 C 0.66847 0.71986 0.18243 0.0
H392 H 0.70443 0.67231 0.1222 0.0
H393 H 0.74356 0.72192 0.16087 0.0
S394 S 0.51941 0.66956 0.18762 0.0
N395 N 0.53424 0.64799 0.15825 0.0
N396 N 0.57726 0.70436 0.20048 0.0
C397 C 0.61204 0.70053 0.18065 0.0
C398 C 0.58863 0.669 0.15763 0.0
C399 C 0.43174 0.33828 0.16779 0.0
C400 C 0.38592 0.26671 0.16797 0.0
C401 C 0.46079 0.37461 0.14513 0.0
C402 C 0.44518 0.34104 0.12169 0.0
H403 H 0.44527 0.36681 0.18527 0.0
H404 H 0.49548 0.43028 0.14606 0.0
S405 S 0.32798 0.15185 0.11215 0.0
N406 N 0.32645 0.16245 0.14285 0.0
N407 N 0.38049 0.22953 0.10049 0.0
C408 C 0.39951 0.26818 0.12178 0.0
C409 C 0.37006 0.23152 0.14482 0.0
C410 C 0.63994 -0.00139 0.4234 0.0
C411 C 0.59383 0.93855 0.43431 0.0
C412 C 0.66327 0.97481 0.40005 0.0
C413 C 0.64139 0.89024 0.38659 0.0
H414 H 0.65856 0.06331 0.43306 0.0
H415 H 0.69887 0.02253 0.39259 0.0
S416 S 0.52132 0.70817 0.40622 0.0
N417 N 0.52748 0.78995 0.42869 0.0
N418 N 0.57109 0.74738 0.386 0.0
C419 C 0.59541 0.83079 0.39716 0.0
C420 C 0.57178 0.85434 0.42059 0.0
C421 C 0.34593 0.12519 0.41695 0.0
C422 C 0.37862 0.02663 0.41945 0.0
C423 C 0.31848 0.16379 0.394 0.0
C424 C 0.32337 0.10622 0.37253 0.0
H425 H 0.34144 0.17284 0.43281 0.0
H426 H 0.29408 0.24053 0.39298 0.0
S427 S 0.4045 0.84352 0.3694 0.0
N428 N 0.41372 0.87169 0.39867 0.0
N429 N 0.36363 0.9445 0.35567 0.0
C430 C 0.35589 0.00718 0.37496 0.0
C431 C 0.38308 0.96742 0.39835 0.0
C432 C 0.98818 0.51895 0.0395 0.0
C433 C 0.01706 0.59234 1.02103 0.0
C434 C 0.9934 0.40081 0.04114 0.0
C435 C 0.02807 0.35131 1.0245 0.0
H436 H 0.96007 0.55281 0.05233 0.0
H437 H 0.96996 0.34801 0.05568 0.0
S438 S 0.11615 0.50813 0.97411 0.0
N439 N 0.08355 0.60895 0.98658 0.0
N440 N 0.09391 0.38611 0.98974 0.0
C441 C 0.05796 0.42416 1.00617 0.0
C442 C 0.0524 0.54482 1.00446 0.0
C443 C 0.22974 0.66646 0.25444 0.0
C444 C 0.24952 0.59578 0.27606 0.0
C445 C 0.23451 0.78492 0.25221 0.0
C446 C 0.25893 0.83721 0.27158 0.0
H447 H 0.21037 0.63032 0.23908 0.0
H448 H 0.21925 0.83583 0.23503 0.0
S449 S 0.3169 0.69052 0.33221 0.0
N450 N 0.2943 0.58684 0.31738 0.0
N451 N 0.30303 0.8096 0.31311 0.0
C452 C 0.27838 0.76779 0.29343 0.0
C453 C 0.27393 0.64706 0.29565 0.0
C454 C 0.74699 0.15918 0.29589 0.0
C455 C 0.74323 0.09971 0.2748 0.0
C456 C 0.75352 0.27733 0.29264 0.0
C457 C 0.75689 0.34079 0.26815 0.0
H458 H 0.7445 0.11427 0.31519 0.0
H459 H 0.75671 0.31868 0.30954 0.0
S460 S 0.74907 0.22409 0.20657 0.0
N461 N 0.74277 0.11149 0.22868 0.0
N462 N 0.75536 0.33425 0.22219 0.0
C463 C 0.75241 0.28211 0.24678 0.0
C464 C 0.74549 0.16145 0.2502 0.0
C465 C 0.05189 0.91629 0.50853 0.0
C466 C 0.01719 0.84272 0.52445 0.0
C467 C 0.0467 0.03485 0.50682 0.0
C468 C 1.0072 0.08342 0.52122 0.0
H469 H 0.08408 0.88236 0.49776 0.0
H470 H 0.07405 0.08891 0.49433 0.0
S471 S 0.90217 0.92928 0.56327 0.0
N472 N 0.93877 0.82777 0.55311 0.0
N473 N 0.92998 0.05054 0.55013 0.0
C474 C 0.97145 0.01129 0.53668 0.0
C475 C 0.97614 0.89089 0.5382 0.0
C476 C 0.22971 0.16514 0.75435 0.0
C477 C 0.2497 0.0942 0.77587 0.0
C478 C 0.23436 0.28373 0.75218 0.0
C479 C 0.25893 0.33621 0.77151 0.0
H480 H 0.21044 0.12905 0.73895 0.0
H481 H 0.21907 0.33454 0.735 0.0
S482 S 0.31647 0.1893 0.83228 0.0
N483 N 0.29416 0.08558 0.81733 0.0
N484 N 0.30252 0.30831 0.81318 0.0
C485 C 0.27817 0.26658 0.7934 0.0
C486 C 0.27384 0.14569 0.79556 0.0
C487 C 0.71912 0.66519 0.7583 0.0
C488 C 0.75212 0.59215 0.77515 0.0
C489 C 0.72453 0.78362 0.75626 0.0
C490 C 0.76243 0.83259 0.77128 0.0
H491 H 0.6882 0.631 0.74696 0.0
H492 H 0.69871 0.83732 0.74295 0.0
S493 S 0.86264 0.6804 0.81608 0.0
N494 N 0.82726 0.57828 0.80555 0.0
N495 N 0.83633 0.80125 0.8019 0.0
C496 C 0.79642 0.76124 0.78775 0.0
C497 C 0.79159 0.64081 0.78961 0.0
C498 C 0.50599 0.52276 0.54299 0.0
C499 C 0.51102 0.58823 0.51879 0.0
C500 C 0.51274 0.40473 0.54619 0.0
C501 C 0.52507 0.34747 0.52535 0.0
H502 H 0.49576 0.56232 0.5596 0.0
H503 H 0.50859 0.35837 0.56529 0.0
S504 S 0.54435 0.47908 0.4581 0.0
N505 N 0.53071 0.58703 0.4736 0.0
N506 N 0.54287 0.36444 0.47981 0.0
C507 C 0.53104 0.41163 0.50111 0.0
C508 C 0.5242 0.53213 0.49779 0.0
C509 C 0.51918 0.90588 0.04659 0.0
C510 C 0.52871 0.84647 1.02581 0.0
C511 C 0.51291 0.0242 0.04305 0.0
C512 C 0.51565 0.08807 1.01856 0.0
H513 H 0.51708 0.86091 0.06589 0.0
H514 H 0.50526 0.06543 0.05969 0.0
S515 S 0.53942 0.9722 0.95771 0.0
N516 N 0.5405 0.85926 0.97993 0.0
N517 N 0.52872 0.08211 0.973 0.0
C518 C 0.52556 0.02954 0.99755 0.0
C519 C 0.53206 0.90873 1.00124 0.0
C520 C 0.30638 0.19308 1.0071 0.0
C521 C 0.32156 0.27994 1.02137 0.0
C522 C 0.25798 0.13026 1.01229 0.0
C523 C 0.22254 0.15116 0.03204 0.0
H524 H 0.33236 0.1723 0.99186 0.0
H525 H 0.24824 0.06519 1.00061 0.0
S526 S 0.24209 0.3735 0.07444 0.0
N527 N 0.29614 0.38574 0.05565 0.0
N528 N 0.2059 0.26871 0.06561 0.0
C529 C 0.23725 0.23842 0.04644 0.0
C530 C 0.28641 0.3024 0.04106 0.0
C531 C 0.7974 0.75202 0.04844 0.0
C532 C 0.81965 0.77681 1.02372 0.0
C533 C 0.75011 0.68484 0.05314 0.0
C534 C 0.72337 0.63864 0.03338 0.0
H535 H 0.81699 0.78332 0.06438 0.0
H536 H 0.73438 0.66914 0.07245 0.0
S537 S 0.76288 0.68409 0.96486 0.0
N538 N 0.80926 0.75394 0.97894 0.0
N539 N 0.72171 0.62713 0.98788 0.0
C540 C 0.74503 0.66349 1.00855 0.0
C541 C 0.79264 0.73274 1.00371 0.0
C542 C 0.02391 0.40955 0.25932 0.0
C543 C 0.04876 0.3932 0.28349 0.0
C544 C 0.97589 0.47364 0.25484 0.0
C545 C 0.95033 0.52439 0.27431 0.0
H546 H 0.0424 0.37519 0.24346 0.0
H547 H 0.95894 0.48388 0.23578 0.0
S548 S 0.99706 0.50162 0.34157 0.0
N549 N 0.04271 0.42906 0.32757 0.0
N550 N 0.95281 0.54946 0.31912 0.0
C551 C 0.97423 0.50704 0.29873 0.0
C552 C 0.02315 0.44147 0.30332 0.0
C553 C 0.2923 0.72083 0.50553 0.0
C554 C 0.31659 0.77551 0.52468 0.0
C555 C 0.24482 0.6549 0.51018 0.0
C556 C 0.21911 0.64054 0.5342 0.0
H557 H 0.30996 0.72894 0.48659 0.0
H558 H 0.22742 0.61744 0.49454 0.0
S559 S 0.26717 0.75993 0.59151 0.0
N560 N 0.31192 0.80655 0.56909 0.0
N561 N 0.22297 0.68308 0.57785 0.0
C562 C 0.24344 0.69282 0.55374 0.0
C563 C 0.29189 0.76013 0.54899 0.0
C564 C 0.78451 0.24719 0.5029 0.0
C565 C 0.81837 0.26626 0.52331 0.0
C566 C 0.7373 0.18005 0.50698 0.0
C567 C 0.72218 0.12885 0.53164 0.0
H568 H 0.79425 0.2856 0.48359 0.0
H569 H 0.71153 0.17142 0.49079 0.0
S570 S 0.80099 0.13686 0.591 0.0
N571 N 0.83632 0.21796 0.56875 0.0
N572 N 0.74725 0.09303 0.57641 0.0
C573 C 0.75656 0.14386 0.5521 0.0
C574 C 0.80467 0.21223 0.54796 0.0
C575 C 0.97935 0.01484 0.79545 0.0
C576 C 0.95182 0.02017 0.77198 0.0
C577 C 0.0278 0.95171 0.80027 0.0
C578 C 0.05086 0.89033 0.78191 0.0
H579 H 0.96344 0.05975 0.8103 0.0
H580 H 0.04756 0.95208 0.81852 0.0
S581 S 0.99476 0.87436 0.71734 0.0
N582 N 0.95159 0.95661 0.73016 0.0
N583 N 0.04165 0.83856 0.73928 0.0
C584 C 0.02331 0.89356 0.75849 0.0
C585 C 0.97427 0.95829 0.75352 0.0
C586 C 0.51018 0.35882 0.76887 0.0
C587 C 0.55227 0.40189 0.78273 0.0
C588 C 0.46134 0.4197 0.76359 0.0
C589 C 0.45263 0.52617 0.77191 0.0
H590 H 0.51487 0.27729 0.76212 0.0
H591 H 0.42985 0.3822 0.75313 0.0
S592 S 0.55236 0.68388 0.80593 0.0
N593 N 0.58357 0.56344 0.80261 0.0
N594 N 0.49151 0.67543 0.79314 0.0
C595 C 0.49458 0.57107 0.78541 0.0
C596 C 0.54442 0.5097 0.79066 0.0
C597 C 0.53519 -0.01401 0.29529 0.0
C598 C 0.54692 0.88919 0.28343 0.0
C599 C 0.48658 0.04794 0.2904 0.0
C600 C 0.44763 0.01618 0.27335 0.0
H601 H 0.56442 0.01646 0.30805 0.0
H602 H 0.48003 0.12252 0.29969 0.0
S603 S 0.45397 0.75918 0.24062 0.0
N604 N 0.51249 0.75813 0.25597 0.0
N605 N 0.42116 0.87348 0.2469 0.0
C606 C 0.45765 0.91666 0.26225 0.0
C607 C 0.50718 0.85361 0.26723 0.0
loop_
_geom_bond_atom_site_label_1
_geom_bond_atom_site_label_2
_geom_bond_distance
_geom_bond_site_symmetry_2
_ccdc_geom_bond_type
Co0 H3 2.400 1_565 S
Co0 O4 2.009 1_565 S
Co0 O12 2.115 . S
Co0 O13 2.315 1_565 S
Co0 O24 2.053 . S
Co0 O27 2.094 1_655 S
Co0 O30 2.122 . S
Co1 O4 2.126 1_455 S
Co1 H5 2.388 1_546 S
Co1 O6 2.053 1_546 S
Co1 O9 2.047 . S
Co1 O15 2.113 . S
Co1 O26 2.063 . S
Co2 H3 2.388 1_564 S
Co2 O4 2.053 1_564 S
Co2 O6 2.126 1_655 S
Co2 O11 2.063 . S
Co2 O25 2.047 . S
Co2 O31 2.113 . S
H3 Co0 2.400 1_545 S
H3 Co2 2.388 1_546 S
H3 O4 0.760 . S
O4 Co0 2.009 1_545 S
O4 Co1 2.126 1_655 S
O4 Co2 2.053 1_546 S
O4 H3 0.760 . S
H5 Co1 2.388 1_564 S
H5 O6 0.760 . S
H5 Co7 2.400 1_565 S
O6 Co1 2.053 1_564 S
O6 Co2 2.126 1_455 S
O6 H5 0.760 . S
O6 Co7 2.009 1_565 S
Co7 H5 2.400 1_545 S
Co7 O6 2.009 1_545 S
Co7 O8 2.053 . S
Co7 O10 2.094 1_455 S
Co7 O14 2.122 . S
Co7 O28 2.115 . S
Co7 O29 2.315 1_545 S
O8 Co7 2.053 . S
O8 C20 1.259 . S
O9 Co1 2.047 . S
O9 C20 1.257 1_556 S
O10 Co7 2.094 1_655 S
O10 C21 1.253 1_545 S
O11 Co2 2.063 . S
O11 C21 1.268 . S
O12 Co0 2.115 . S
O12 C22 1.281 . S
O13 Co0 2.315 1_545 S
O13 C22 1.252 1_545 S
O14 Co7 2.122 . S
O14 C23 1.272 . S
O15 Co1 2.113 . S
O15 C23 1.245 1_556 S
C16 O24 1.259 . S
C16 O25 1.257 1_556 S
C17 O26 1.268 . S
C17 O27 1.253 1_545 S
C18 O28 1.281 . S
C18 O29 1.252 1_545 S
C19 O30 1.272 . S
C19 O31 1.245 1_556 S
C20 O8 1.259 . S
C20 O9 1.257 1_554 S
C21 O10 1.253 1_565 S
C21 O11 1.268 . S
C22 O12 1.281 . S
C22 O13 1.252 1_565 S
C23 O14 1.272 . S
C23 O15 1.245 1_554 S
O24 Co0 2.053 . S
O24 C16 1.259 . S
O25 Co2 2.047 . S
O25 C16 1.257 1_554 S
O26 Co1 2.063 . S
O26 C17 1.268 . S
O27 Co0 2.094 1_455 S
O27 C17 1.253 1_565 S
O28 Co7 2.115 . S
O28 C18 1.281 . S
O29 Co7 2.315 1_565 S
O29 C18 1.252 1_565 S
O30 Co0 2.122 . S
O30 C19 1.272 . S
O31 Co2 2.113 . S
O31 C19 1.245 1_554 S
Co32 H35 2.400 . S
Co32 O36 2.009 . S
Co32 O44 2.115 . S
Co32 O45 2.315 . S
Co32 O56 2.053 . S
Co32 O59 2.094 . S
Co32 O62 2.122 . S
Co33 O36 2.126 . S
Co33 H37 2.388 . S
Co33 O38 2.053 . S
Co33 O41 2.047 . S
Co33 O47 2.113 . S
Co33 O58 2.063 . S
Co34 H35 2.388 . S
Co34 O36 2.053 . S
Co34 O38 2.126 . S
Co34 O43 2.063 . S
Co34 O57 2.047 . S
Co34 O63 2.113 . S
H35 Co32 2.400 . S
H35 Co34 2.388 . S
H35 O36 0.760 . S
O36 Co32 2.009 . S
O36 Co33 2.126 . S
O36 Co34 2.053 . S
O36 H35 0.760 . S
H37 Co33 2.388 . S
H37 O38 0.760 . S
H37 Co39 2.400 . S
O38 Co33 2.053 . S
O38 Co34 2.126 . S
O38 H37 0.760 . S
O38 Co39 2.009 . S
Co39 H37 2.400 . S
Co39 O38 2.009 . S
Co39 O40 2.053 . S
Co39 O42 2.094 . S
Co39 O46 2.122 1_545 S
Co39 O60 2.115 . S
Co39 O61 2.315 . S
O40 Co39 2.053 . S
O40 C52 1.259 . S
O41 Co33 2.047 . S
O41 C52 1.257 . S
O42 Co39 2.094 . S
O42 C53 1.253 . S
O43 Co34 2.063 . S
O43 C53 1.268 . S
O44 Co32 2.115 . S
O44 C54 1.281 . S
O45 Co32 2.315 . S
O45 C54 1.252 . S
O46 Co39 2.122 1_565 S
O46 C55 1.272 . S
O47 Co33 2.113 . S
O47 C55 1.245 1_545 S
C48 O56 1.259 . S
C48 O57 1.257 . S
C49 O58 1.268 . S
C49 O59 1.253 . S
C50 O60 1.281 . S
C50 O61 1.252 . S
C51 O62 1.272 . S
C51 O63 1.245 . S
C52 O40 1.259 . S
C52 O41 1.257 . S
C53 O42 1.253 . S
C53 O43 1.268 . S
C54 O44 1.281 . S
C54 O45 1.252 . S
C55 O46 1.272 . S
C55 O47 1.245 1_565 S
O56 Co32 2.053 . S
O56 C48 1.259 . S
O57 Co34 2.047 . S
O57 C48 1.257 . S
O58 Co33 2.063 . S
O58 C49 1.268 . S
O59 Co32 2.094 . S
O59 C49 1.253 . S
O60 Co39 2.115 . S
O60 C50 1.281 . S
O61 Co39 2.315 . S
O61 C50 1.252 . S
O62 Co32 2.122 . S
O62 C51 1.272 . S
O63 Co34 2.113 . S
O63 C51 1.245 . S
Co64 H67 2.400 . S
Co64 O68 2.009 . S
Co64 O76 2.115 . S
Co64 O77 2.315 . S
Co64 O88 2.053 . S
Co64 O91 2.094 . S
Co64 O94 2.122 1_565 S
Co65 O68 2.126 . S
Co65 H69 2.388 . S
Co65 O70 2.053 . S
Co65 O73 2.047 . S
Co65 O79 2.113 . S
Co65 O90 2.063 . S
Co66 H67 2.388 . S
Co66 O68 2.053 . S
Co66 O70 2.126 . S
Co66 O75 2.063 . S
Co66 O89 2.047 . S
Co66 O95 2.113 . S
H67 Co64 2.400 . S
H67 Co66 2.388 . S
H67 O68 0.760 . S
O68 Co64 2.009 . S
O68 Co65 2.126 . S
O68 Co66 2.053 . S
O68 H67 0.760 . S
H69 Co65 2.388 . S
H69 O70 0.760 . S
H69 Co71 2.400 . S
O70 Co65 2.053 . S
O70 Co66 2.126 . S
O70 H69 0.760 . S
O70 Co71 2.009 . S
Co71 H69 2.400 . S
Co71 O70 2.009 . S
Co71 O72 2.053 . S
Co71 O74 2.094 . S
Co71 O78 2.122 . S
Co71 O92 2.115 . S
Co71 O93 2.315 . S
O72 Co71 2.053 . S
O72 C84 1.259 . S
O73 Co65 2.047 . S
O73 C84 1.257 . S
O74 Co71 2.094 . S
O74 C85 1.253 . S
O75 Co66 2.063 . S
O75 C85 1.268 . S
O76 Co64 2.115 . S
O76 C86 1.281 . S
O77 Co64 2.315 . S
O77 C86 1.252 . S
O78 Co71 2.122 . S
O78 C87 1.272 . S
O79 Co65 2.113 . S
O79 C87 1.245 . S
C80 O88 1.259 . S
C80 O89 1.257 . S
C81 O90 1.268 . S
C81 O91 1.253 . S
C82 O92 1.281 . S
C82 O93 1.252 . S
C83 O94 1.272 . S
C83 O95 1.245 1_545 S
C84 O72 1.259 . S
C84 O73 1.257 . S
C85 O74 1.253 . S
C85 O75 1.268 . S
C86 O76 1.281 . S
C86 O77 1.252 . S
C87 O78 1.272 . S
C87 O79 1.245 . S
O88 Co64 2.053 . S
O88 C80 1.259 . S
O89 Co66 2.047 . S
O89 C80 1.257 . S
O90 Co65 2.063 . S
O90 C81 1.268 . S
O91 Co64 2.094 . S
O91 C81 1.253 . S
O92 Co71 2.115 . S
O92 C82 1.281 . S
O93 Co71 2.315 . S
O93 C82 1.252 . S
O94 Co64 2.122 1_545 S
O94 C83 1.272 . S
O95 Co66 2.113 . S
O95 C83 1.245 1_565 S
Co96 H99 2.400 . S
Co96 O100 2.009 . S
Co96 O108 2.115 . S
Co96 O109 2.315 . S
Co96 O120 2.053 . S
Co96 O123 2.094 1_655 S
Co96 O126 2.122 . S
Co97 O100 2.126 1_455 S
Co97 H101 2.388 . S
Co97 O102 2.053 . S
Co97 O105 2.047 . S
Co97 O111 2.113 . S
Co97 O122 2.063 . S
Co98 H99 2.388 . S
Co98 O100 2.053 . S
Co98 O102 2.126 1_655 S
Co98 O107 2.063 . S
Co98 O121 2.047 . S
Co98 O127 2.113 . S
H99 Co96 2.400 . S
H99 Co98 2.388 . S
H99 O100 0.760 . S
O100 Co96 2.009 . S
O100 Co97 2.126 1_655 S
O100 Co98 2.053 . S
O100 H99 0.760 . S
H101 Co97 2.388 . S
H101 O102 0.760 . S
H101 Co103 2.400 . S
O102 Co97 2.053 . S
O102 Co98 2.126 1_455 S
O102 H101 0.760 . S
O102 Co103 2.009 . S
Co103 H101 2.400 . S
Co103 O102 2.009 . S
Co103 O104 2.053 . S
Co103 O106 2.094 1_455 S
Co103 O110 2.122 . S
Co103 O124 2.115 . S
Co103 O125 2.315 . S
O104 Co103 2.053 . S
O104 C116 1.259 . S
O105 Co97 2.047 . S
O105 C116 1.257 . S
O106 Co103 2.094 1_655 S
O106 C117 1.253 . S
O107 Co98 2.063 . S
O107 C117 1.268 . S
O108 Co96 2.115 . S
O108 C118 1.281 . S
O109 Co96 2.315 . S
O109 C118 1.252 . S
O110 Co103 2.122 . S
O110 C119 1.272 . S
O111 Co97 2.113 . S
O111 C119 1.245 . S
C112 O120 1.259 . S
C112 O121 1.257 . S
C113 O122 1.268 . S
C113 O123 1.253 . S
C114 O124 1.281 . S
C114 O125 1.252 . S
C115 O126 1.272 . S
C115 O127 1.245 . S
C116 O104 1.259 . S
C116 O105 1.257 . S
C117 O106 1.253 . S
C117 O107 1.268 . S
C118 O108 1.281 . S
C118 O109 1.252 . S
C119 O110 1.272 . S
C119 O111 1.245 . S
O120 Co96 2.053 . S
O120 C112 1.259 . S
O121 Co98 2.047 . S
O121 C112 1.257 . S
O122 Co97 2.063 . S
O122 C113 1.268 . S
O123 Co96 2.094 1_455 S
O123 C113 1.253 . S
O124 Co103 2.115 . S
O124 C114 1.281 . S
O125 Co103 2.315 . S
O125 C114 1.252 . S
O126 Co96 2.122 . S
O126 C115 1.272 . S
O127 Co98 2.113 . S
O127 C115 1.245 . S
Co128 H131 2.400 . S
Co128 O132 2.009 . S
Co128 O140 2.115 . S
Co128 O141 2.315 . S
Co128 O152 2.053 . S
Co128 O155 2.094 . S
Co128 O158 2.122 1_565 S
Co129 O132 2.126 . S
Co129 H133 2.388 . S
Co129 O134 2.053 . S
Co129 O137 2.047 . S
Co129 O143 2.113 . S
Co129 O154 2.063 . S
Co130 H131 2.388 . S
Co130 O132 2.053 . S
Co130 O134 2.126 . S
Co130 O139 2.063 . S
Co130 O153 2.047 . S
Co130 O159 2.113 . S
H131 Co128 2.400 . S
H131 Co130 2.388 . S
H131 O132 0.760 . S
O132 Co128 2.009 . S
O132 Co129 2.126 . S
O132 Co130 2.053 . S
O132 H131 0.760 . S
H133 Co129 2.388 . S
H133 O134 0.760 . S
H133 Co135 2.400 . S
O134 Co129 2.053 . S
O134 Co130 2.126 . S
O134 H133 0.760 . S
O134 Co135 2.009 . S
Co135 H133 2.400 . S
Co135 O134 2.009 . S
Co135 O136 2.053 . S
Co135 O138 2.094 . S
Co135 O142 2.122 . S
Co135 O156 2.115 . S
Co135 O157 2.315 . S
O136 Co135 2.053 . S
O136 C148 1.259 . S
O137 Co129 2.047 . S
O137 C148 1.257 . S
O138 Co135 2.094 . S
O138 C149 1.253 . S
O139 Co130 2.063 . S
O139 C149 1.268 . S
O140 Co128 2.115 . S
O140 C150 1.281 . S
O141 Co128 2.315 . S
O141 C150 1.252 . S
O142 Co135 2.122 . S
O142 C151 1.272 . S
O143 Co129 2.113 . S
O143 C151 1.245 . S
C144 O152 1.259 . S
C144 O153 1.257 . S
C145 O154 1.268 . S
C145 O155 1.253 . S
C146 O156 1.281 . S
C146 O157 1.252 . S
C147 O158 1.272 . S
C147 O159 1.245 1_545 S
C148 O136 1.259 . S
C148 O137 1.257 . S
C149 O138 1.253 . S
C149 O139 1.268 . S
C150 O140 1.281 . S
C150 O141 1.252 . S
C151 O142 1.272 . S
C151 O143 1.245 . S
O152 Co128 2.053 . S
O152 C144 1.259 . S
O153 Co130 2.047 . S
O153 C144 1.257 . S
O154 Co129 2.063 . S
O154 C145 1.268 . S
O155 Co128 2.094 . S
O155 C145 1.253 . S
O156 Co135 2.115 . S
O156 C146 1.281 . S
O157 Co135 2.315 . S
O157 C146 1.252 . S
O158 Co128 2.122 1_545 S
O158 C147 1.272 . S
O159 Co130 2.113 . S
O159 C147 1.245 1_565 S
Co160 H163 2.400 . S
Co160 O164 2.009 . S
Co160 O172 2.115 . S
Co160 O173 2.315 . S
Co160 O184 2.053 . S
Co160 O187 2.094 . S
Co160 O190 2.122 . S
Co161 O164 2.126 . S
Co161 H165 2.388 . S
Co161 O166 2.053 . S
Co161 O169 2.047 . S
Co161 O175 2.113 . S
Co161 O186 2.063 . S
Co162 H163 2.388 . S
Co162 O164 2.053 . S
Co162 O166 2.126 . S
Co162 O171 2.063 . S
Co162 O185 2.047 . S
Co162 O191 2.113 . S
H163 Co160 2.400 . S
H163 Co162 2.388 . S
H163 O164 0.760 . S
O164 Co160 2.009 . S
O164 Co161 2.126 . S
O164 Co162 2.053 . S
O164 H163 0.760 . S
H165 Co161 2.388 . S
H165 O166 0.760 . S
H165 Co167 2.400 . S
O166 Co161 2.053 . S
O166 Co162 2.126 . S
O166 H165 0.760 . S
O166 Co167 2.009 . S
Co167 H165 2.400 . S
Co167 O166 2.009 . S
Co167 O168 2.053 . S
Co167 O170 2.094 . S
Co167 O174 2.122 1_545 S
Co167 O188 2.115 . S
Co167 O189 2.315 . S
O168 Co167 2.053 . S
O168 C180 1.259 . S
O169 Co161 2.047 . S
O169 C180 1.257 . S
O170 Co167 2.094 . S
O170 C181 1.253 . S
O171 Co162 2.063 . S
O171 C181 1.268 . S
O172 Co160 2.115 . S
O172 C182 1.281 . S
O173 Co160 2.315 . S
O173 C182 1.252 . S
O174 Co167 2.122 1_565 S
O174 C183 1.272 . S
O175 Co161 2.113 . S
O175 C183 1.245 1_545 S
C176 O184 1.259 . S
C176 O185 1.257 . S
C177 O186 1.268 . S
C177 O187 1.253 . S
C178 O188 1.281 . S
C178 O189 1.252 . S
C179 O190 1.272 . S
C179 O191 1.245 . S
C180 O168 1.259 . S
C180 O169 1.257 . S
C181 O170 1.253 . S
C181 O171 1.268 . S
C182 O172 1.281 . S
C182 O173 1.252 . S
C183 O174 1.272 . S
C183 O175 1.245 1_565 S
O184 Co160 2.053 . S
O184 C176 1.259 . S
O185 Co162 2.047 . S
O185 C176 1.257 . S
O186 Co161 2.063 . S
O186 C177 1.268 . S
O187 Co160 2.094 . S
O187 C177 1.253 . S
O188 Co167 2.115 . S
O188 C178 1.281 . S
O189 Co167 2.315 . S
O189 C178 1.252 . S
O190 Co160 2.122 . S
O190 C179 1.272 . S
O191 Co162 2.113 . S
O191 C179 1.245 . S
Co192 H195 2.400 1_565 S
Co192 O196 2.009 1_565 S
Co192 O204 2.115 . S
Co192 O205 2.315 1_565 S
Co192 O216 2.053 . S
Co192 O219 2.094 . S
Co192 O222 2.122 . S
Co193 O196 2.126 . S
Co193 H197 2.388 1_545 S
Co193 O198 2.053 1_545 S
Co193 O201 2.047 . S
Co193 O207 2.113 . S
Co193 O218 2.063 . S
Co194 H195 2.388 1_565 S
Co194 O196 2.053 1_565 S
Co194 O198 2.126 . S
Co194 O203 2.063 . S
Co194 O217 2.047 . S
Co194 O223 2.113 . S
H195 Co192 2.400 1_545 S
H195 Co194 2.388 1_545 S
H195 O196 0.760 . S
O196 Co192 2.009 1_545 S
O196 Co193 2.126 . S
O196 Co194 2.053 1_545 S
O196 H195 0.760 . S
H197 Co193 2.388 1_565 S
H197 O198 0.760 . S
H197 Co199 2.400 1_565 S
O198 Co193 2.053 1_565 S
O198 Co194 2.126 . S
O198 H197 0.760 . S
O198 Co199 2.009 1_565 S
Co199 H197 2.400 1_545 S
Co199 O198 2.009 1_545 S
Co199 O200 2.053 . S
Co199 O202 2.094 . S
Co199 O206 2.122 . S
Co199 O220 2.115 . S
Co199 O221 2.315 1_545 S
O200 Co199 2.053 . S
O200 C212 1.259 . S
O201 Co193 2.047 . S
O201 C212 1.257 . S
O202 Co199 2.094 . S
O202 C213 1.253 1_545 S
O203 Co194 2.063 . S
O203 C213 1.268 . S
O204 Co192 2.115 . S
O204 C214 1.281 . S
O205 Co192 2.315 1_545 S
O205 C214 1.252 1_545 S
O206 Co199 2.122 . S
O206 C215 1.272 . S
O207 Co193 2.113 . S
O207 C215 1.245 . S
C208 O216 1.259 . S
C208 O217 1.257 . S
C209 O218 1.268 . S
C209 O219 1.253 1_545 S
C210 O220 1.281 . S
C210 O221 1.252 1_545 S
C211 O222 1.272 . S
C211 O223 1.245 . S
C212 O200 1.259 . S
C212 O201 1.257 . S
C213 O202 1.253 1_565 S
C213 O203 1.268 . S
C214 O204 1.281 . S
C214 O205 1.252 1_565 S
C215 O206 1.272 . S
C215 O207 1.245 . S
O216 Co192 2.053 . S
O216 C208 1.259 . S
O217 Co194 2.047 . S
O217 C208 1.257 . S
O218 Co193 2.063 . S
O218 C209 1.268 . S
O219 Co192 2.094 . S
O219 C209 1.253 1_565 S
O220 Co199 2.115 . S
O220 C210 1.281 . S
O221 Co199 2.315 1_565 S
O221 C210 1.252 1_565 S
O222 Co192 2.122 . S
O222 C211 1.272 . S
O223 Co194 2.113 . S
O223 C211 1.245 . S
Co224 H227 2.400 . S
Co224 O228 2.009 . S
Co224 O236 2.115 . S
Co224 O237 2.315 . S
Co224 O248 2.053 . S
Co224 O251 2.094 . S
Co224 O254 2.122 . S
Co225 O228 2.126 . S
Co225 H229 2.388 1_556 S
Co225 O230 2.053 1_556 S
Co225 O233 2.047 . S
Co225 O239 2.113 . S
Co225 O250 2.063 . S
Co226 H227 2.388 1_554 S
Co226 O228 2.053 1_554 S
Co226 O230 2.126 . S
Co226 O235 2.063 . S
Co226 O249 2.047 . S
Co226 O255 2.113 . S
H227 Co224 2.400 . S
H227 Co226 2.388 1_556 S
H227 O228 0.760 . S
O228 Co224 2.009 . S
O228 Co225 2.126 . S
O228 Co226 2.053 1_556 S
O228 H227 0.760 . S
H229 Co225 2.388 1_554 S
H229 O230 0.760 . S
H229 Co231 2.400 . S
O230 Co225 2.053 1_554 S
O230 Co226 2.126 . S
O230 H229 0.760 . S
O230 Co231 2.009 . S
Co231 H229 2.400 . S
Co231 O230 2.009 . S
Co231 O232 2.053 . S
Co231 O234 2.094 . S
Co231 O238 2.122 . S
Co231 O252 2.115 . S
Co231 O253 2.315 . S
O232 Co231 2.053 . S
O232 C244 1.259 . S
O233 Co225 2.047 . S
O233 C244 1.257 1_556 S
O234 Co231 2.094 . S
O234 C245 1.253 . S
O235 Co226 2.063 . S
O235 C245 1.268 . S
O236 Co224 2.115 . S
O236 C246 1.281 . S
O237 Co224 2.315 . S
O237 C246 1.252 . S
O238 Co231 2.122 . S
O238 C247 1.272 . S
O239 Co225 2.113 . S
O239 C247 1.245 1_556 S
C240 O248 1.259 . S
C240 O249 1.257 1_556 S
C241 O250 1.268 . S
C241 O251 1.253 . S
C242 O252 1.281 . S
C242 O253 1.252 . S
C243 O254 1.272 . S
C243 O255 1.245 1_556 S
C244 O232 1.259 . S
C244 O233 1.257 1_554 S
C245 O234 1.253 . S
C245 O235 1.268 . S
C246 O236 1.281 . S
C246 O237 1.252 . S
C247 O238 1.272 . S
C247 O239 1.245 1_554 S
O248 Co224 2.053 . S
O248 C240 1.259 . S
O249 Co226 2.047 . S
O249 C240 1.257 1_554 S
O250 Co225 2.063 . S
O250 C241 1.268 . S
O251 Co224 2.094 . S
O251 C241 1.253 . S
O252 Co231 2.115 . S
O252 C242 1.281 . S
O253 Co231 2.315 . S
O253 C242 1.252 . S
O254 Co224 2.122 . S
O254 C243 1.272 . S
O255 Co226 2.113 . S
O255 C243 1.245 1_554 S
C256 C257 1.369 . S
C256 C258 1.419 . S
C256 H260 0.930 1_545 S
C257 C256 1.369 . S
C257 C266 1.429 . S
C258 C256 1.419 . S
C258 C259 1.363 . S
C258 H261 0.929 . S
C259 C258 1.363 . S
C259 C265 1.428 . S
H260 C256 0.930 1_565 S
H261 C258 0.929 . S
S262 N263 1.613 . S
S262 N264 1.610 . S
N263 S262 1.613 . S
N263 C266 1.350 . S
N264 S262 1.610 . S
N264 C265 1.351 . S
C265 C259 1.428 . S
C265 N264 1.351 . S
C265 C266 1.434 . S
C266 C257 1.429 . S
C266 N263 1.350 . S
C266 C265 1.434 . S
C267 C268 1.369 . S
C267 C269 1.419 . S
C267 H271 0.930 . S
C268 C267 1.369 . S
C268 C277 1.429 . S
C269 C267 1.419 . S
C269 C270 1.363 . S
C269 H272 0.929 . S
C270 C269 1.363 . S
C270 C276 1.428 . S
H271 C267 0.930 . S
H272 C269 0.929 . S
S273 N274 1.613 . S
S273 N275 1.610 1_455 S
N274 S273 1.613 . S
N274 C277 1.350 1_455 S
N275 S273 1.610 1_655 S
N275 C276 1.351 . S
C276 C270 1.428 . S
C276 N275 1.351 . S
C276 C277 1.434 . S
C277 C268 1.429 . S
C277 N274 1.350 1_655 S
C277 C276 1.434 . S
C278 C279 1.369 . S
C278 C280 1.419 . S
C278 H282 0.930 . S
C279 C278 1.369 . S
C279 C288 1.429 . S
C280 C278 1.419 . S
C280 C281 1.363 . S
C280 H283 0.929 . S
C281 C280 1.363 . S
C281 C287 1.428 . S
H282 C278 0.930 . S
H283 C280 0.929 . S
S284 N285 1.613 . S
S284 N286 1.610 . S
N285 S284 1.613 . S
N285 C288 1.350 . S
N286 S284 1.610 . S
N286 C287 1.351 . S
C287 C281 1.428 . S
C287 N286 1.351 . S
C287 C288 1.434 . S
C288 C279 1.429 . S
C288 N285 1.350 . S
C288 C287 1.434 . S
C289 C290 1.369 . S
C289 C291 1.419 . S
C289 H293 0.930 . S
C290 C289 1.369 . S
C290 C299 1.429 . S
C291 C289 1.419 . S
C291 C292 1.363 . S
C291 H294 0.929 . S
C292 C291 1.363 . S
C292 C298 1.428 . S
H293 C289 0.930 . S
H294 C291 0.929 . S
S295 N296 1.613 . S
S295 N297 1.610 . S
N296 S295 1.613 . S
N296 C299 1.350 . S
N297 S295 1.610 . S
N297 C298 1.351 . S
C298 C292 1.428 . S
C298 N297 1.351 . S
C298 C299 1.434 . S
C299 C290 1.429 . S
C299 N296 1.350 . S
C299 C298 1.434 . S
C300 C301 1.369 . S
C300 C302 1.419 . S
C300 H304 0.930 . S
C301 C300 1.369 . S
C301 C310 1.429 . S
C302 C300 1.419 . S
C302 C303 1.363 . S
C302 H305 0.929 . S
C303 C302 1.363 . S
C303 C309 1.428 . S
H304 C300 0.930 . S
H305 C302 0.929 . S
S306 N307 1.613 . S
S306 N308 1.610 . S
N307 S306 1.613 . S
N307 C310 1.350 . S
N308 S306 1.610 . S
N308 C309 1.351 . S
C309 C303 1.428 . S
C309 N308 1.351 . S
C309 C310 1.434 . S
C310 C301 1.429 . S
C310 N307 1.350 . S
C310 C309 1.434 . S
C311 C312 1.369 . S
C311 C313 1.419 . S
C311 H315 0.930 . S
C312 C311 1.369 . S
C312 C321 1.429 . S
C313 C311 1.419 . S
C313 C314 1.363 . S
C313 H316 0.929 . S
C314 C313 1.363 . S
C314 C320 1.428 . S
H315 C311 0.930 . S
H316 C313 0.929 . S
S317 N318 1.613 . S
S317 N319 1.610 . S
N318 S317 1.613 . S
N318 C321 1.350 . S
N319 S317 1.610 . S
N319 C320 1.351 . S
C320 C314 1.428 . S
C320 N319 1.351 . S
C320 C321 1.434 . S
C321 C312 1.429 . S
C321 N318 1.350 . S
C321 C320 1.434 . S
C322 C323 1.369 . S
C322 C324 1.419 1_565 S
C322 H326 0.930 1_565 S
C323 C322 1.369 . S
C323 C332 1.429 . S
C324 C322 1.419 1_545 S
C324 C325 1.363 1_545 S
C324 H327 0.929 . S
C325 C324 1.363 1_565 S
C325 C331 1.428 . S
H326 C322 0.930 1_545 S
H327 C324 0.929 . S
S328 N329 1.613 . S
S328 N330 1.610 . S
N329 S328 1.613 . S
N329 C332 1.350 . S
N330 S328 1.610 . S
N330 C331 1.351 . S
C331 C325 1.428 . S
C331 N330 1.351 . S
C331 C332 1.434 . S
C332 C323 1.429 . S
C332 N329 1.350 . S
C332 C331 1.434 . S
C333 C334 1.369 . S
C333 C335 1.419 . S
C333 H337 0.930 . S
C334 C333 1.369 . S
C334 C343 1.429 . S
C335 C333 1.419 . S
C335 C336 1.371 . S
C335 H338 0.929 . S
C336 C335 1.371 . S
C336 C342 1.424 1_545 S
H337 C333 0.930 . S
H338 C335 0.929 . S
S339 N340 1.613 . S
S339 N341 1.610 . S
N340 S339 1.613 . S
N340 C343 1.350 1_565 S
N341 S339 1.610 . S
N341 C342 1.351 . S
C342 C336 1.424 1_565 S
C342 N341 1.351 . S
C342 C343 1.434 1_565 S
C343 C334 1.429 . S
C343 N340 1.350 1_545 S
C343 C342 1.434 1_545 S
C344 C345 1.369 . S
C344 C346 1.419 . S
C344 H348 0.930 . S
C345 C344 1.369 . S
C345 C354 1.429 . S
C346 C344 1.419 . S
C346 C347 1.363 . S
C346 H349 0.929 . S
C347 C346 1.363 . S
C347 C353 1.428 . S
H348 C344 0.930 . S
H349 C346 0.929 . S
S350 N351 1.613 . S
S350 N352 1.610 . S
N351 S350 1.613 . S
N351 C354 1.350 . S
N352 S350 1.610 . S
N352 C353 1.351 . S
C353 C347 1.428 . S
C353 N352 1.351 . S
C353 C354 1.434 . S
C354 C345 1.429 . S
C354 N351 1.350 . S
C354 C353 1.434 . S
C355 C356 1.369 . S
C355 C357 1.419 . S
C355 H359 0.930 1_565 S
C356 C355 1.369 . S
C356 C365 1.429 . S
C357 C355 1.419 . S
C357 C358 1.363 . S
C357 H360 0.929 . S
C358 C357 1.363 . S
C358 C364 1.428 . S
H359 C355 0.930 1_545 S
H360 C357 0.929 . S
S361 N362 1.613 . S
S361 N363 1.610 . S
N362 S361 1.613 . S
N362 C365 1.350 . S
N363 S361 1.610 . S
N363 C364 1.351 . S
C364 C358 1.428 . S
C364 N363 1.351 . S
C364 C365 1.434 . S
C365 C356 1.429 . S
C365 N362 1.350 . S
C365 C364 1.434 . S
C366 C367 1.369 . S
C366 C368 1.419 . S
C366 H370 0.930 . S
C367 C366 1.369 . S
C367 C376 1.429 . S
C368 C366 1.419 . S
C368 C369 1.363 . S
C368 H371 0.929 . S
C369 C368 1.363 . S
C369 C375 1.428 . S
H370 C366 0.930 . S
H371 C368 0.929 . S
S372 N373 1.613 . S
S372 N374 1.610 . S
N373 S372 1.613 . S
N373 C376 1.350 . S
N374 S372 1.610 . S
N374 C375 1.351 . S
C375 C369 1.428 . S
C375 N374 1.351 . S
C375 C376 1.434 . S
C376 C367 1.429 . S
C376 N373 1.350 . S
C376 C375 1.434 . S
C377 C378 1.369 . S
C377 C379 1.419 . S
C377 H381 0.930 . S
C378 C377 1.369 . S
C378 C387 1.429 . S
C379 C377 1.419 . S
C379 C380 1.363 . S
C379 H382 0.929 . S
C380 C379 1.363 . S
C380 C386 1.428 . S
H381 C377 0.930 . S
H382 C379 0.929 . S
S383 N384 1.613 . S
S383 N385 1.610 . S
N384 S383 1.613 . S
N384 C387 1.350 . S
N385 S383 1.610 . S
N385 C386 1.351 . S
C386 C380 1.428 . S
C386 N385 1.351 . S
C386 C387 1.434 . S
C387 C378 1.429 . S
C387 N384 1.350 . S
C387 C386 1.434 . S
C388 C389 1.369 . S
C388 C390 1.419 . S
C388 H392 0.930 . S
C389 C388 1.369 . S
C389 C398 1.429 . S
C390 C388 1.419 . S
C390 C391 1.363 . S
C390 H393 0.929 . S
C391 C390 1.363 . S
C391 C397 1.428 . S
H392 C388 0.930 . S
H393 C390 0.929 . S
S394 N395 1.613 . S
S394 N396 1.610 . S
N395 S394 1.613 . S
N395 C398 1.350 . S
N396 S394 1.610 . S
N396 C397 1.351 . S
C397 C391 1.428 . S
C397 N396 1.351 . S
C397 C398 1.434 . S
C398 C389 1.429 . S
C398 N395 1.350 . S
C398 C397 1.434 . S
C399 C400 1.369 . S
C399 C401 1.419 . S
C399 H403 0.930 . S
C400 C399 1.369 . S
C400 C409 1.429 . S
C401 C399 1.419 . S
C401 C402 1.363 . S
C401 H404 0.929 . S
C402 C401 1.363 . S
C402 C408 1.428 . S
H403 C399 0.930 . S
H404 C401 0.929 . S
S405 N406 1.613 . S
S405 N407 1.610 . S
N406 S405 1.613 . S
N406 C409 1.350 . S
N407 S405 1.610 . S
N407 C408 1.351 . S
C408 C402 1.428 . S
C408 N407 1.351 . S
C408 C409 1.434 . S
C409 C400 1.429 . S
C409 N406 1.350 . S
C409 C408 1.434 . S
C410 C411 1.369 1_545 S
C410 C412 1.419 1_545 S
C410 H414 0.930 . S
C411 C410 1.369 1_565 S
C411 C420 1.429 . S
C412 C410 1.419 1_565 S
C412 C413 1.363 . S
C412 H415 0.929 . S
C413 C412 1.363 . S
C413 C419 1.428 . S
H414 C410 0.930 . S
H415 C412 0.929 . S
S416 N417 1.613 . S
S416 N418 1.610 . S
N417 S416 1.613 . S
N417 C420 1.350 . S
N418 S416 1.610 . S
N418 C419 1.351 . S
C419 C413 1.428 . S
C419 N418 1.351 . S
C419 C420 1.434 . S
C420 C411 1.429 . S
C420 N417 1.350 . S
C420 C419 1.434 . S
C421 C422 1.374 . S
C421 C423 1.419 . S
C421 H425 0.930 . S
C422 C421 1.374 . S
C422 C431 1.426 1_545 S
C423 C421 1.419 . S
C423 C424 1.363 . S
C423 H426 0.929 . S
C424 C423 1.363 . S
C424 C430 1.428 . S
H425 C421 0.930 . S
H426 C423 0.929 . S
S427 N428 1.613 . S
S427 N429 1.610 . S
N428 S427 1.613 . S
N428 C431 1.350 . S
N429 S427 1.610 . S
N429 C430 1.351 1_565 S
C430 C424 1.428 . S
C430 N429 1.351 1_545 S
C430 C431 1.434 1_545 S
C431 C422 1.426 1_565 S
C431 N428 1.350 . S
C431 C430 1.434 1_565 S
C432 C433 1.369 . S
C432 C434 1.419 . S
C432 H436 0.930 . S
C433 C432 1.369 . S
C433 C442 1.429 1_654 S
C434 C432 1.419 . S
C434 C435 1.363 1_654 S
C434 H437 0.929 . S
C435 C434 1.363 1_456 S
C435 C441 1.428 . S
H436 C432 0.930 . S
H437 C434 0.929 . S
S438 N439 1.613 . S
S438 N440 1.610 . S
N439 S438 1.613 . S
N439 C442 1.350 . S
N440 S438 1.610 . S
N440 C441 1.351 . S
C441 C435 1.428 . S
C441 N440 1.351 . S
C441 C442 1.434 . S
C442 C433 1.429 1_456 S
C442 N439 1.350 . S
C442 C441 1.434 . S
C443 C444 1.369 . S
C443 C445 1.419 . S
C443 H447 0.930 . S
C444 C443 1.369 . S
C444 C453 1.429 . S
C445 C443 1.419 . S
C445 C446 1.363 . S
C445 H448 0.929 . S
C446 C445 1.363 . S
C446 C452 1.428 . S
H447 C443 0.930 . S
H448 C445 0.929 . S
S449 N450 1.613 . S
S449 N451 1.610 . S
N450 S449 1.613 . S
N450 C453 1.350 . S
N451 S449 1.610 . S
N451 C452 1.351 . S
C452 C446 1.428 . S
C452 N451 1.351 . S
C452 C453 1.434 . S
C453 C444 1.429 . S
C453 N450 1.350 . S
C453 C452 1.434 . S
C454 C455 1.369 . S
C454 C456 1.419 . S
C454 H458 0.930 . S
C455 C454 1.369 . S
C455 C464 1.429 . S
C456 C454 1.419 . S
C456 C457 1.363 . S
C456 H459 0.929 . S
C457 C456 1.363 . S
C457 C463 1.428 . S
H458 C454 0.930 . S
H459 C456 0.929 . S
S460 N461 1.613 . S
S460 N462 1.610 . S
N461 S460 1.613 . S
N461 C464 1.350 . S
N462 S460 1.610 . S
N462 C463 1.351 . S
C463 C457 1.428 . S
C463 N462 1.351 . S
C463 C464 1.434 . S
C464 C455 1.429 . S
C464 N461 1.350 . S
C464 C463 1.434 . S
C465 C466 1.369 . S
C465 C467 1.419 1_565 S
C465 H469 0.930 . S
C466 C465 1.369 . S
C466 C475 1.429 1_455 S
C467 C465 1.419 1_545 S
C467 C468 1.363 1_455 S
C467 H470 0.929 . S
C468 C467 1.363 1_655 S
C468 C474 1.428 . S
H469 C465 0.930 . S
H470 C467 0.929 . S
S471 N472 1.613 . S
S471 N473 1.610 1_565 S
N472 S471 1.613 . S
N472 C475 1.350 . S
N473 S471 1.610 1_545 S
N473 C474 1.351 . S
C474 C468 1.428 . S
C474 N473 1.351 . S
C474 C475 1.434 1_545 S
C475 C466 1.429 1_655 S
C475 N472 1.350 . S
C475 C474 1.434 1_565 S
C476 C477 1.369 . S
C476 C478 1.419 . S
C476 H480 0.930 . S
C477 C476 1.369 . S
C477 C486 1.429 . S
C478 C476 1.419 . S
C478 C479 1.363 . S
C478 H481 0.929 . S
C479 C478 1.363 . S
C479 C485 1.428 . S
H480 C476 0.930 . S
H481 C478 0.929 . S
S482 N483 1.613 . S
S482 N484 1.610 . S
N483 S482 1.613 . S
N483 C486 1.350 . S
N484 S482 1.610 . S
N484 C485 1.351 . S
C485 C479 1.428 . S
C485 N484 1.351 . S
C485 C486 1.434 . S
C486 C477 1.429 . S
C486 N483 1.350 . S
C486 C485 1.434 . S
C487 C488 1.369 . S
C487 C489 1.419 . S
C487 H491 0.930 . S
C488 C487 1.369 . S
C488 C497 1.429 . S
C489 C487 1.419 . S
C489 C490 1.363 . S
C489 H492 0.929 . S
C490 C489 1.363 . S
C490 C496 1.428 . S
H491 C487 0.930 . S
H492 C489 0.929 . S
S493 N494 1.613 . S
S493 N495 1.610 . S
N494 S493 1.613 . S
N494 C497 1.350 . S
N495 S493 1.610 . S
N495 C496 1.351 . S
C496 C490 1.428 . S
C496 N495 1.351 . S
C496 C497 1.434 . S
C497 C488 1.429 . S
C497 N494 1.350 . S
C497 C496 1.434 . S
C498 C499 1.369 . S
C498 C500 1.419 . S
C498 H502 0.930 . S
C499 C498 1.369 . S
C499 C508 1.429 . S
C500 C498 1.419 . S
C500 C501 1.363 . S
C500 H503 0.929 . S
C501 C500 1.363 . S
C501 C507 1.428 . S
H502 C498 0.930 . S
H503 C500 0.929 . S
S504 N505 1.613 . S
S504 N506 1.610 . S
N505 S504 1.613 . S
N505 C508 1.350 . S
N506 S504 1.610 . S
N506 C507 1.351 . S
C507 C501 1.428 . S
C507 N506 1.351 . S
C507 C508 1.434 . S
C508 C499 1.429 . S
C508 N505 1.350 . S
C508 C507 1.434 . S
C509 C510 1.369 1_554 S
C509 C511 1.419 1_565 S
C509 H513 0.930 . S
C510 C509 1.369 1_556 S
C510 C519 1.429 . S
C511 C509 1.419 1_545 S
C511 C512 1.363 . S
C511 H514 0.929 . S
C512 C511 1.363 . S
C512 C518 1.428 1_554 S
H513 C509 0.930 . S
H514 C511 0.929 . S
S515 N516 1.613 1_545 S
S515 N517 1.610 . S
N516 S515 1.613 1_565 S
N516 C519 1.350 . S
N517 S515 1.610 . S
N517 C518 1.351 . S
C518 C512 1.428 1_556 S
C518 N517 1.351 . S
C518 C519 1.434 1_545 S
C519 C510 1.429 . S
C519 N516 1.350 . S
C519 C518 1.434 1_565 S
C520 C521 1.369 . S
C520 C522 1.415 1_556 S
C520 H524 0.930 . S
C521 C520 1.369 . S
C521 C530 1.417 1_556 S
C522 C520 1.415 1_554 S
C522 C523 1.371 . S
C522 H525 0.930 . S
C523 C522 1.371 . S
C523 C529 1.428 . S
H524 C520 0.930 . S
H525 C522 0.930 . S
S526 N527 1.613 . S
S526 N528 1.610 . S
N527 S526 1.613 . S
N527 C530 1.361 . S
N528 S526 1.610 . S
N528 C529 1.351 . S
C529 C523 1.428 . S
C529 N528 1.351 . S
C529 C530 1.439 . S
C530 C521 1.417 1_554 S
C530 N527 1.361 . S
C530 C529 1.439 . S
C531 C532 1.369 1_554 S
C531 C533 1.419 . S
C531 H535 0.930 . S
C532 C531 1.369 1_556 S
C532 C541 1.429 . S
C533 C531 1.419 . S
C533 C534 1.363 . S
C533 H536 0.929 . S
C534 C533 1.363 . S
C534 C540 1.428 1_554 S
H535 C531 0.930 . S
H536 C533 0.929 . S
S537 N538 1.613 . S
S537 N539 1.610 . S
N538 S537 1.613 . S
N538 C541 1.350 . S
N539 S537 1.610 . S
N539 C540 1.351 . S
C540 C534 1.428 1_556 S
C540 N539 1.351 . S
C540 C541 1.434 . S
C541 C532 1.429 . S
C541 N538 1.350 . S
C541 C540 1.434 . S
C542 C543 1.369 . S
C542 C544 1.419 1_455 S
C542 H546 0.930 . S
C543 C542 1.369 . S
C543 C552 1.429 . S
C544 C542 1.419 1_655 S
C544 C545 1.363 . S
C544 H547 0.929 . S
C545 C544 1.363 . S
C545 C551 1.428 . S
H546 C542 0.930 . S
H547 C544 0.929 . S
S548 N549 1.613 1_655 S
S548 N550 1.610 . S
N549 S548 1.613 1_455 S
N549 C552 1.350 . S
N550 S548 1.610 . S
N550 C551 1.351 . S
C551 C545 1.428 . S
C551 N550 1.351 . S
C551 C552 1.434 1_655 S
C552 C543 1.429 . S
C552 N549 1.350 . S
C552 C551 1.434 1_455 S
C553 C554 1.369 . S
C553 C555 1.419 . S
C553 H557 0.930 . S
C554 C553 1.369 . S
C554 C563 1.429 . S
C555 C553 1.419 . S
C555 C556 1.363 . S
C555 H558 0.929 . S
C556 C555 1.363 . S
C556 C562 1.428 . S
H557 C553 0.930 . S
H558 C555 0.929 . S
S559 N560 1.613 . S
S559 N561 1.610 . S
N560 S559 1.613 . S
N560 C563 1.350 . S
N561 S559 1.610 . S
N561 C562 1.351 . S
C562 C556 1.428 . S
C562 N561 1.351 . S
C562 C563 1.434 . S
C563 C554 1.429 . S
C563 N560 1.350 . S
C563 C562 1.434 . S
C564 C565 1.369 . S
C564 C566 1.419 . S
C564 H568 0.930 . S
C565 C564 1.369 . S
C565 C574 1.429 . S
C566 C564 1.419 . S
C566 C567 1.363 . S
C566 H569 0.929 . S
C567 C566 1.363 . S
C567 C573 1.428 . S
H568 C564 0.930 . S
H569 C566 0.929 . S
S570 N571 1.613 . S
S570 N572 1.610 . S
N571 S570 1.613 . S
N571 C574 1.350 . S
N572 S570 1.610 . S
N572 C573 1.351 . S
C573 C567 1.428 . S
C573 N572 1.351 . S
C573 C574 1.434 . S
C574 C565 1.429 . S
C574 N571 1.350 . S
C574 C573 1.434 . S
C575 C576 1.369 . S
C575 C577 1.419 1_655 S
C575 H579 0.930 . S
C576 C575 1.369 . S
C576 C585 1.429 1_545 S
C577 C575 1.419 1_455 S
C577 C578 1.363 1_545 S
C577 H580 0.929 . S
C578 C577 1.363 1_565 S
C578 C584 1.428 . S
H579 C575 0.930 . S
H580 C577 0.929 . S
S581 N582 1.613 . S
S581 N583 1.610 1_655 S
N582 S581 1.613 . S
N582 C585 1.350 . S
N583 S581 1.610 1_455 S
N583 C584 1.351 . S
C584 C578 1.428 . S
C584 N583 1.351 . S
C584 C585 1.434 1_455 S
C585 C576 1.429 1_565 S
C585 N582 1.350 . S
C585 C584 1.434 1_655 S
C586 C587 1.369 . S
C586 C588 1.419 . S
C586 H590 0.930 . S
C587 C586 1.369 . S
C587 C596 1.429 . S
C588 C586 1.419 . S
C588 C589 1.363 . S
C588 H591 0.929 . S
C589 C588 1.363 . S
C589 C595 1.428 . S
H590 C586 0.930 . S
H591 C588 0.929 . S
S592 N593 1.613 . S
S592 N594 1.610 . S
N593 S592 1.613 . S
N593 C596 1.350 . S
N594 S592 1.610 . S
N594 C595 1.351 . S
C595 C589 1.428 . S
C595 N594 1.351 . S
C595 C596 1.434 . S
C596 C587 1.429 . S
C596 N593 1.350 . S
C596 C595 1.434 . S
C597 C598 1.369 1_545 S
C597 C599 1.419 . S
C597 H601 0.930 . S
C598 C597 1.369 1_565 S
C598 C607 1.429 . S
C599 C597 1.419 . S
C599 C600 1.363 . S
C599 H602 0.929 . S
C600 C599 1.363 . S
C600 C606 1.428 1_545 S
H601 C597 0.930 . S
H602 C599 0.929 . S
S603 N604 1.613 . S
S603 N605 1.610 . S
N604 S603 1.613 . S
N604 C607 1.350 . S
N605 S603 1.610 . S
N605 C606 1.351 . S
C606 C600 1.428 1_565 S
C606 N605 1.351 . S
C606 C607 1.434 . S
C607 C598 1.429 . S
C607 N604 1.350 . S
C607 C606 1.434 . S
C257 C18 2.051 . S
C259 C53 2.023 . S
C268 C21 1.881 . S
C270 C82 1.826 . S
C279 C113 2.016 . S
C281 C54 2.058 . S
C290 C81 1.884 . S
C292 C118 1.823 . S
C301 C114 2.052 . S
C303 C149 2.024 . S
C312 C178 1.830 . S
C314 C117 1.879 . S
C323 C150 2.057 . S
C325 C17 2.018 1_565 S
C334 C177 1.879 . S
C336 C22 1.826 1_545 S
C345 C181 2.022 . S
C347 C210 2.054 . S
C356 C213 1.879 . S
C358 C146 1.829 . S
C367 C241 2.020 . S
C369 C182 2.054 . S
C378 C246 1.828 . S
C380 C145 1.880 . S
C389 C242 2.056 . S
C391 C85 2.021 . S
C400 C50 1.830 . S
C402 C245 1.880 . S
C411 C209 2.017 1_565 S
C413 C86 2.057 . S
C422 C214 1.828 1_545 S
C424 C49 1.879 . S
C433 C19 1.107 1_554 S
C435 C23 1.117 1_556 S
C444 C51 1.107 . S
C446 C55 1.117 . S
C455 C83 1.116 . S
C457 C87 1.109 . S
C466 C119 1.116 . S
C468 C115 1.110 . S
C477 C147 1.107 . S
C479 C151 1.117 . S
C488 C179 1.112 . S
C490 C183 1.113 . S
C499 C211 1.108 . S
C501 C215 1.116 . S
C510 C247 1.118 1_556 S
C512 C243 1.108 1_554 S
C521 C240 1.435 . S
C523 C20 1.435 . S
C532 C16 1.435 . S
C534 C244 1.434 . S
C543 C48 1.435 . S
C545 C84 1.434 . S
C554 C208 1.434 . S
C556 C116 1.436 . S
C565 C112 1.433 . S
C567 C212 1.435 . S
C576 C180 1.434 . S
C578 C144 1.435 . S
C587 C176 1.435 . S
C589 C148 1.435 . S
C598 C80 1.435 . S
C600 C52 1.435 . S
