# Generated by pormake.
# Topology sxb, (6)-cn, num edge types: 1
# Building blocks:
#     Node 0, Type 0, BuildingBlock: CUKXOW_clean_sbu_0, # of connection points: 6
#     Node 1, Type 0, BuildingBlock: CUKXOW_clean_sbu_0, # of connection points: 6
#     Node 2, Type 0, BuildingBlock: CUKXOW_clean_sbu_0, # of connection points: 6
#     Node 3, Type 0, BuildingBlock: CUKXOW_clean_sbu_0, # of connection points: 6
#     Edge 4, Type (0, 0), BuildingBlock: MIFKUJ_clean_linker_0, # of connection points: 2
#     Edge 5, Type (0, 0), BuildingBlock: MIFKUJ_clean_linker_0, # of connection points: 2
#     Edge 6, Type (0, 0), BuildingBlock: MIFKUJ_clean_linker_0, # of connection points: 2
#     Edge 7, Type (0, 0), BuildingBlock: MIFKUJ_clean_linker_0, # of connection points: 2
#     Edge 8, Type (0, 0), BuildingBlock: MIFKUJ_clean_linker_0, # of connection points: 2
#     Edge 9, Type (0, 0), BuildingBlock: MIFKUJ_clean_linker_0, # of connection points: 2
#     Edge 10, Type (0, 0), BuildingBlock: MIFKUJ_clean_linker_0, # of connection points: 2
#     Edge 11, Type (0, 0), BuildingBlock: MIFKUJ_clean_linker_0, # of connection points: 2
#     Edge 12, Type (0, 0), BuildingBlock: MIFKUJ_clean_linker_0, # of connection points: 2
#     Edge 13, Type (0, 0), BuildingBlock: MIFKUJ_clean_linker_0, # of connection points: 2
#     Edge 14, Type (0, 0), BuildingBlock: MIFKUJ_clean_linker_0, # of connection points: 2
#     Edge 15, Type (0, 0), BuildingBlock: MIFKUJ_clean_linker_0, # of connection points: 2
# Relax obj value: 0.013
# Max RMSD: 0.064
# Mean RMSD: 0.064
data_MOF--net-sxb--node1-CUKXOW_clean_sbu_0--edge1-MIFKUJ_clean_linker_0
_symmetry_space_group_name_H-M    P1
_symmetry_Int_Tables_number       1
_symmetry_cell_setting            triclinic
loop_
_symmetry_equiv_pos_as_xyz
'x, y, z'
_cell_length_a     18.815038
_cell_length_b     41.265155
_cell_length_c     39.549899
_cell_angle_alpha  89.73977
_cell_angle_beta   103.17511
_cell_angle_gamma 89.85886
loop_
_atom_site_label
_atom_site_type_symbol
_atom_site_fract_x
_atom_site_fract_y
_atom_site_fract_z
_atom_type_partial_charge
Tb0 Tb 0.98655 0.02559 0.98652 0.0
C1 C 0.98471 0.9875 0.91817 0.0
Tb2 Tb 1.02606 0.95215 0.99183 0.0
O3 O 0.08752 0.0367 0.97059 0.0
O4 O 0.0834 -0.00329 0.0023 0.0
O5 O 0.95755 0.0127 0.93188 0.0
C6 C 0.10109 0.89713 -0.00314 0.0
O7 O 1.01957 0.96315 0.93715 0.0
C8 C 0.88286 0.96081 0.98235 0.0
C9 C 1.01386 0.98949 0.05904 0.0
O10 O 0.10087 0.91952 0.97368 0.0
O11 O 0.05905 0.90569 0.01713 0.0
O12 O 0.91423 0.93252 0.98549 0.0
O13 O 0.93285 0.98115 0.98363 0.0
O14 O 0.04752 0.96568 0.04635 0.0
O15 O 0.97877 0.01325 0.03927 0.0
C16 C 0.93452 0.08494 0.99023 0.0
O17 O 0.99571 0.07398 0.00892 0.0
O18 O 0.9023 0.06244 0.96943 0.0
C19 C 0.12233 0.01116 0.98486 0.0
Tb20 Tb 0.07296 0.02785 0.4958 0.0
C21 C 0.06299 -0.00735 0.56571 0.0
Tb22 Tb 0.04349 0.95077 0.49637 0.0
O23 O 0.95862 0.04275 0.49336 0.0
O24 O 0.9882 -0.00493 0.49409 0.0
O25 O 0.08703 0.01846 0.55129 0.0
C26 C 0.97801 0.89396 0.49501 0.0
O27 O 0.03734 0.96594 0.5484 0.0
C28 C 0.18345 0.96505 0.50242 0.0
C29 C 0.04542 0.98683 0.42556 0.0
O30 O 0.03698 0.90233 0.51728 0.0
O31 O 0.95557 0.91764 0.47337 0.0
O32 O 0.159 0.93571 0.50353 0.0
O33 O 0.12874 0.98344 0.49773 0.0
O34 O 1.02777 0.96011 0.4408 0.0
O35 O 0.07038 0.01389 0.44235 0.0
C36 C 0.13361 0.08563 0.4953 0.0
O37 O 0.07374 0.07632 0.47434 0.0
O38 O 0.16035 0.06216 0.5166 0.0
C39 C 0.93436 0.01327 0.49329 0.0
Tb40 Tb 0.50825 0.53039 -0.00279 0.0
C41 C 0.50551 0.49359 0.92761 0.0
Tb42 Tb 0.54661 0.45424 -0.00205 0.0
O43 O 0.6218 0.54774 0.00203 0.0
O44 O 0.59738 0.49961 -8e-05 0.0
O45 O 0.47485 0.51691 0.94266 0.0
C46 C 0.61882 0.39901 -0.00149 0.0
O47 O 0.54534 0.4697 0.94517 0.0
C48 C 0.40542 0.46537 0.99368 0.0
C49 C 0.54496 0.49026 0.0685 0.0
O50 O 0.55988 0.40706 0.97585 0.0
O51 O 0.63734 0.42208 0.02103 0.0
O52 O 0.43468 0.43661 0.99573 0.0
O53 O 0.45648 0.48503 0.99395 0.0
O54 O 0.56305 0.46374 0.05328 0.0
O55 O 0.51993 0.51751 0.05173 0.0
C56 C 0.43999 0.58679 -0.00309 0.0
O57 O 0.4444 0.56439 0.02045 0.0
O58 O 0.47299 0.57723 0.97323 0.0
C59 C 0.64944 0.51887 0.00165 0.0
Tb60 Tb 0.55766 0.53205 0.5006 0.0
C61 C 0.54603 0.49714 0.57019 0.0
Tb62 Tb 0.51938 0.45575 0.50025 0.0
O63 O 0.44442 0.54939 0.49751 0.0
O64 O 0.46885 0.50122 0.49763 0.0
O65 O 0.57247 0.52237 0.55593 0.0
C66 C 0.44675 0.4008 0.49918 0.0
O67 O 0.51641 0.47118 0.55259 0.0
C68 C 0.66056 0.46697 0.50519 0.0
C69 C 0.53183 0.49063 0.43061 0.0
O70 O 0.50583 0.40826 0.52189 0.0
O71 O 0.42841 0.4243 0.47683 0.0
O72 O 0.6326 0.43811 0.50469 0.0
O73 O 0.60845 0.48648 0.50318 0.0
O74 O 0.50557 0.46541 0.44496 0.0
O75 O 0.56084 0.51671 0.44819 0.0
C76 C 0.62717 0.5877 0.50047 0.0
O77 O 0.56692 0.57985 0.4788 0.0
O78 O 0.6486 0.56416 0.52248 0.0
C79 C 0.41679 0.52047 0.49683 0.0
H80 H 0.38024 0.61073 0.048 0.0
H81 H 0.32915 0.66494 0.05113 0.0
H82 H 0.37591 0.68944 0.95224 0.0
H83 H 0.42834 0.63539 0.94932 0.0
H84 H 0.41188 0.73859 -0.00018 0.0
H85 H 0.20827 0.66734 0.95759 0.0
H86 H 0.13508 0.61862 0.96086 0.0
H87 H 0.09055 0.65172 0.05669 0.0
H88 H 0.16562 0.70033 0.05459 0.0
H89 H 0.17958 0.87424 0.95228 0.0
H90 H 0.24222 0.82192 0.9552 0.0
H91 H 0.17642 0.79896 0.05021 0.0
H92 H 0.11201 0.85089 0.04681 0.0
H93 H 0.15327 0.74926 0.0076 0.0
H94 H 0.35225 0.82025 0.05097 0.0
H95 H 0.42779 0.86883 0.05053 0.0
H96 H 0.48193 0.83701 0.95624 0.0
H97 H 0.40564 0.78837 0.95583 0.0
C98 C 0.37947 0.6277 0.02694 0.0
C99 C 0.40752 0.61897 -0.00171 0.0
C100 C 0.35047 0.6586 0.02878 0.0
C101 C 0.34835 0.68103 0.00178 0.0
C102 C 0.37725 0.67245 0.97334 0.0
C103 C 0.40659 0.64158 0.97158 0.0
C104 C 0.31358 0.71306 0.00257 0.0
C105 C 0.35516 0.74101 0.00116 0.0
C106 C 0.24019 0.71603 0.00533 0.0
C107 C 0.19318 0.68733 0.00609 0.0
C108 C 0.18327 0.66416 0.97948 0.0
C109 C 0.1414 0.63654 0.98113 0.0
C110 C 0.10804 0.63202 0.00892 0.0
C111 C 0.11646 0.65521 0.03517 0.0
C112 C 0.15877 0.68279 0.0338 0.0
C113 C 0.17885 0.85803 0.97382 0.0
C114 C 0.14118 0.8664 -0.00068 0.0
C115 C 0.21485 0.82828 0.97557 0.0
C116 C 0.21459 0.80675 0.00314 0.0
C117 C 0.17725 0.81525 0.02874 0.0
C118 C 0.14074 0.84488 0.02683 0.0
C119 C 0.25137 0.77491 0.00467 0.0
C120 C 0.21014 0.74694 0.00647 0.0
C121 C 0.32525 0.77198 0.00267 0.0
C122 C 0.3727 0.80078 0.00322 0.0
C123 C 0.37993 0.82368 0.03003 0.0
C124 C 0.42291 0.85124 0.02993 0.0
C125 C 0.45952 0.85608 0.00331 0.0
C126 C 0.45347 0.83325 0.97682 0.0
C127 C 0.41043 0.80565 0.97676 0.0
H128 H 0.49267 0.87748 0.00324 0.0
H129 H 0.07565 0.61058 0.01011 0.0
H130 H 0.74761 0.3804 0.04142 0.0
H131 H 0.80795 0.32742 0.04284 0.0
H132 H 0.63544 0.2951 0.95816 0.0
H133 H 0.57512 0.34773 0.95672 0.0
H134 H 0.66643 0.25118 0.01153 0.0
H135 H 0.79594 0.31522 0.94289 0.0
H136 H 0.86845 0.36188 0.9311 0.0
H137 H 0.03881 0.33696 0.01966 0.0
H138 H 0.96682 0.29032 0.03225 0.0
H139 H 0.80907 0.11086 0.9516 0.0
H140 H 0.76156 0.16559 0.95579 0.0
H141 H 0.94854 0.18753 0.03819 0.0
H142 H 0.99691 0.13295 0.03366 0.0
H143 H 0.9157 0.23709 0.99159 0.0
H144 H 0.78859 0.17041 0.05768 0.0
H145 H 0.71609 0.12325 0.0681 0.0
H146 H 0.5403 0.15324 0.98412 0.0
H147 H 0.61218 0.20037 0.97288 0.0
C148 C 0.72287 0.36193 0.02313 0.0
C149 C 0.65682 0.36791 -0.00098 0.0
C150 C 0.75733 0.33182 0.0239 0.0
C151 C 0.72596 0.30748 0.00057 0.0
C152 C 0.66019 0.31359 0.97644 0.0
C153 C 0.62603 0.34363 0.97555 0.0
C154 C 0.7608 0.27535 0.00132 0.0
C155 C 0.72071 0.24804 0.00692 0.0
C156 C 0.83227 0.2715 0.99621 0.0
C157 C 0.87574 0.29946 0.98869 0.0
C158 C 0.84863 0.31983 0.96001 0.0
C159 C 0.88967 0.34623 0.95314 0.0
C160 C 0.95821 0.35235 0.97459 0.0
C161 C 0.98578 0.33212 0.00302 0.0
C162 C 0.94489 0.3057 0.01003 0.0
C163 C 0.83998 0.12742 0.97053 0.0
C164 C 0.90628 0.11782 0.99244 0.0
C165 C 0.81281 0.15857 0.97298 0.0
C166 C 0.85121 0.18039 -0.00239 0.0
C167 C 0.91815 0.17098 0.01908 0.0
C168 C 0.94547 0.13985 0.01656 0.0
C169 C 0.82075 0.21287 0.00118 0.0
C170 C 0.86171 0.24023 0.99654 0.0
C171 C 0.74998 0.21681 0.00719 0.0
C172 C 0.70602 0.1888 0.01428 0.0
C173 C 0.73463 0.16686 0.04131 0.0
C174 C 0.69363 0.14013 0.04737 0.0
C175 C 0.6237 0.13521 0.02674 0.0
C176 C 0.59451 0.15708 8e-05 0.0
C177 C 0.63531 0.18382 0.99388 0.0
H178 H 0.59208 0.11448 0.03144 0.0
H179 H 0.98997 0.37275 0.96917 0.0
H180 H 0.07621 0.13579 0.45362 0.0
H181 H 0.12265 0.19105 0.45459 0.0
H182 H 0.30399 0.16501 0.53865 0.0
H183 H 0.25688 0.10951 0.53812 0.0
H184 H 0.24031 0.22353 0.54921 0.0
H185 H 0.32768 0.17099 0.45718 0.0
H186 H 0.31293 0.13958 0.40313 0.0
H187 H 0.16922 0.21279 0.34772 0.0
H188 H 0.18233 0.24443 0.40157 0.0
H189 H 0.48556 0.34993 0.54294 0.0
H190 H 0.42326 0.29804 0.54181 0.0
H191 H 0.25732 0.33057 0.45384 0.0
H192 H 0.32086 0.38256 0.45446 0.0
H193 H 0.30328 0.27064 0.44411 0.0
H194 H 0.22031 0.32532 0.53345 0.0
H195 H 0.23257 0.35776 0.58665 0.0
H196 H 0.36154 0.2823 0.64629 0.0
H197 H 0.35114 0.24959 0.59334 0.0
C198 C 0.12609 0.14183 0.47225 0.0
C199 C 0.16338 0.11849 0.49568 0.0
C200 C 0.15251 0.17335 0.47275 0.0
C201 C 0.21702 0.18195 0.49646 0.0
C202 C 0.25408 0.15874 0.52015 0.0
C203 C 0.22747 0.12712 0.51972 0.0
C204 C 0.24611 0.21511 0.49619 0.0
C205 C 0.25493 0.23377 0.52641 0.0
C206 C 0.26247 0.22871 0.46596 0.0
C207 C 0.25547 0.20992 0.43347 0.0
C208 C 0.29257 0.18029 0.43352 0.0
C209 C 0.28455 0.16246 0.40291 0.0
C210 C 0.24002 0.17415 0.37203 0.0
C211 C 0.20362 0.20375 0.37166 0.0
C212 C 0.21138 0.22165 0.40221 0.0
C213 C 0.43561 0.34606 0.52347 0.0
C214 C 0.40765 0.37009 0.49881 0.0
C215 C 0.3999 0.31651 0.52296 0.0
C216 C 0.33514 0.31069 0.49807 0.0
C217 C 0.30706 0.33472 0.47335 0.0
C218 C 0.34312 0.36431 0.47376 0.0
C219 C 0.29866 0.27897 0.49732 0.0
C220 C 0.28824 0.26057 0.46689 0.0
C221 C 0.28016 0.26575 0.52725 0.0
C222 C 0.28535 0.28507 0.55934 0.0
C223 C 0.25165 0.31569 0.55787 0.0
C224 C 0.25825 0.33414 0.58799 0.0
C225 C 0.29792 0.32213 0.61981 0.0
C226 C 0.33086 0.29158 0.62161 0.0
C227 C 0.32456 0.27306 0.59155 0.0
H228 H 0.30303 0.33646 0.64309 0.0
H229 H 0.23384 0.1603 0.34837 0.0
H230 H 0.84982 0.87468 0.45293 0.0
H231 H 0.79044 0.82187 0.45329 0.0
H232 H 0.96709 0.78968 0.53666 0.0
H233 H 1.02667 0.84226 0.53631 0.0
H234 H 0.92752 0.7444 0.48397 0.0
H235 H 0.81213 0.81288 0.55485 0.0
H236 H 0.7467 0.86213 0.56599 0.0
H237 H 0.56771 0.83876 0.4811 0.0
H238 H 0.63261 0.78959 0.46911 0.0
H239 H 0.75988 0.6055 0.53975 0.0
H240 H 0.82111 0.65778 0.53821 0.0
H241 H 0.63931 0.69163 0.45837 0.0
H242 H 0.57816 0.63967 0.45987 0.0
H243 H 0.68121 0.73634 0.50877 0.0
H244 H 0.79025 0.66834 0.43776 0.0
H245 H 0.85529 0.62101 0.42173 0.0
H246 H 0.04445 0.64455 0.50116 0.0
H247 H 0.97982 0.69155 0.5184 0.0
C248 C 0.87586 0.85626 0.47123 0.0
C249 C 0.94247 0.86237 0.49466 0.0
C250 C 0.84197 0.82624 0.47147 0.0
C251 C 0.87435 0.80211 0.49518 0.0
C252 C 0.94146 0.80807 0.5182 0.0
C253 C 0.97516 0.83807 0.51805 0.0
C254 C 0.83791 0.77069 0.49639 0.0
C255 C 0.87414 0.74247 0.48989 0.0
C256 C 0.76745 0.76859 0.50312 0.0
C257 C 0.72753 0.7977 0.51089 0.0
C258 C 0.75899 0.81833 0.53844 0.0
C259 C 0.722 0.84623 0.54491 0.0
C260 C 0.65318 0.85362 0.52421 0.0
C261 C 0.62106 0.83302 0.49709 0.0
C262 C 0.6579 0.80512 0.49047 0.0
C263 C 0.73322 0.62418 0.52195 0.0
C264 C 0.66455 0.61875 0.49993 0.0
C265 C 0.76817 0.65389 0.521 0.0
C266 C 0.73467 0.67842 0.49805 0.0
C267 C 0.66583 0.673 0.47628 0.0
C268 C 0.63118 0.64333 0.47709 0.0
C269 C 0.77109 0.70985 0.49664 0.0
C270 C 0.73479 0.73814 0.50304 0.0
C271 C 0.84121 0.71202 0.48944 0.0
C272 C 0.87975 0.68328 0.4797 0.0
C273 C 0.84532 0.66318 0.45219 0.0
C274 C 0.8822 0.63644 0.44281 0.0
C275 C 0.95393 0.62977 0.46042 0.0
C276 C 0.9889 0.64978 0.48751 0.0
C277 C 0.95207 0.67642 0.49718 0.0
H278 H 0.98246 0.6091 0.45306 0.0
H279 H 0.62469 0.87526 0.52921 0.0
H280 H 0.20556 0.95729 0.00977 0.0
H281 H 0.33382 0.94743 0.00889 0.0
H282 H 0.3448 0.04231 0.96387 0.0
H283 H 0.21607 0.05091 0.96219 0.0
H284 H 0.4147 0.00609 0.93392 0.0
H285 H 0.41882 0.019 0.05497 0.0
H286 H 0.38609 0.00729 0.11071 0.0
H287 H 0.46949 0.91042 0.10978 0.0
H288 H 0.5021 0.92148 0.05387 0.0
H289 H 0.80644 0.01845 0.97318 0.0
H290 H 0.67754 0.02699 0.9743 0.0
H291 H 0.65578 0.92495 0.99353 0.0
H292 H 0.78369 0.9164 0.99213 0.0
H293 H 0.59387 0.96411 0.03681 0.0
H294 H 0.58925 0.95384 0.91446 0.0
H295 H 0.62648 0.96856 0.8605 0.0
H296 H 0.54867 0.06569 0.86722 0.0
H297 H 0.51183 0.05165 0.92148 0.0
C298 C 0.23533 0.9758 -0.00064 0.0
C299 C 0.20047 0.00474 0.9858 0.0
C300 C 0.3091 0.97038 -0.00073 0.0
C301 C 0.35026 -0.00568 0.98679 0.0
C302 C 0.31501 0.02328 0.97351 0.0
C303 C 0.24115 0.02827 0.97273 0.0
C304 C 0.42944 0.98947 0.98692 0.0
C305 C 0.4537 -0.00265 0.95673 0.0
C306 C 0.48121 0.97752 0.01628 0.0
C307 C 0.46186 0.97091 0.04997 0.0
C308 C 0.42963 -0.00488 0.06652 0.0
C309 C 0.41123 0.98862 0.09818 0.0
C310 C 0.42542 0.95809 0.11371 0.0
C311 C 0.45833 0.93403 0.09768 0.0
C312 C 0.47679 0.9404 0.06601 0.0
C313 C 0.77404 -0.00207 0.97756 0.0
C314 C 0.80511 0.96679 0.98242 0.0
C315 C 0.70041 0.00277 0.97818 0.0
C316 C 0.65679 0.97655 0.98391 0.0
C317 C 0.6882 0.94554 0.98914 0.0
C318 C 0.7613 0.94069 0.98815 0.0
C319 C 0.57823 0.98112 0.98414 0.0
C320 C 0.55437 0.97302 0.01424 0.0
C321 C 0.52708 -0.00656 0.95501 0.0
C322 C 0.54839 0.00177 0.92218 0.0
C323 C 0.58053 0.97839 0.90455 0.0
C324 C 0.60149 0.9866 0.87389 0.0
C325 C 0.59011 0.01806 0.86048 0.0
C326 C 0.55752 0.04135 0.87765 0.0
C327 C 0.53652 0.03327 0.90833 0.0
H328 H 0.60642 0.02437 0.83676 0.0
H329 H 0.41112 0.9531 0.13822 0.0
H330 H 0.24531 0.01161 0.46835 0.0
H331 H 0.3763 0.01717 0.4692 0.0
H332 H 0.42743 0.94223 0.54737 0.0
H333 H 0.29726 0.93569 0.54543 0.0
H334 H 0.52455 -0.00335 0.55995 0.0
H335 H 0.41878 0.92143 0.47407 0.0
H336 H 0.34025 0.89718 0.42213 0.0
H337 H 0.42637 0.96286 0.35721 0.0
H338 H 0.49992 0.98958 0.40866 0.0
H339 H 0.88383 0.95671 0.51707 0.0
H340 H 0.75823 0.94603 0.52327 0.0
H341 H 0.69025 0.03967 0.47857 0.0
H342 H 0.81485 0.05077 0.47334 0.0
H343 H 0.60661 0.96941 0.45284 0.0
H344 H 0.69433 0.04996 0.54621 0.0
H345 H 0.78149 0.06707 0.59957 0.0
H346 H 0.74079 0.97954 0.65105 0.0
H347 H 0.65428 0.96164 0.59765 0.0
C348 C 0.28482 -0.00315 0.48614 0.0
C349 C 0.26147 0.97333 0.50693 0.0
C350 C 0.35943 -0.00016 0.48645 0.0
C351 C 0.41166 0.97993 0.50821 0.0
C352 C 0.38832 0.95781 0.5304 0.0
C353 C 0.31396 0.95415 0.52929 0.0
C354 C 0.49013 0.98092 0.50682 0.0
C355 C 0.54221 0.99062 0.53648 0.0
C356 C 0.5139 0.97223 0.47652 0.0
C357 C 0.46383 0.95815 0.44552 0.0
C358 C 0.41881 0.93166 0.44883 0.0
C359 C 0.37492 0.91745 0.41936 0.0
C360 C 0.37706 0.92885 0.38631 0.0
C361 C 0.42292 0.95457 0.38273 0.0
C362 C 0.46525 0.96948 0.41209 0.0
C363 C 0.84182 0.97482 0.50841 0.0
C364 C 0.85887 0.00455 0.49468 0.0
C365 C 0.77043 0.96882 0.51218 0.0
C366 C 0.71534 -0.00771 0.50176 0.0
C367 C 0.73213 0.02143 0.48709 0.0
C368 C 0.80326 0.02767 0.48402 0.0
C369 C 0.63935 0.98667 0.50511 0.0
C370 C 0.58809 0.97568 0.47603 0.0
C371 C 0.61647 -0.00636 0.53594 0.0
C372 C 0.66879 0.00426 0.56782 0.0
C373 C 0.70478 0.03415 0.56873 0.0
C374 C 0.75385 0.04404 0.59901 0.0
C375 C 0.76684 0.02435 0.62864 0.0
C376 C 0.7308 -0.00528 0.62804 0.0
C377 C 0.68179 0.98469 0.59778 0.0
H378 H 0.80447 0.03216 0.6521 0.0
H379 H 0.34391 0.91752 0.36348 0.0
H380 H 0.71065 0.46053 0.98964 0.0
H381 H 0.83806 0.45026 0.98701 0.0
H382 H 0.88771 0.55126 0.00755 0.0
H383 H 0.76124 0.5614 0.0105 0.0
H384 H 0.94407 0.52775 0.95361 0.0
H385 H 0.93538 0.49345 0.0714 0.0
H386 H 0.88407 0.45983 0.11174 0.0
H387 H 0.94304 0.37346 0.06431 0.0
H388 H 0.99466 0.40665 0.02373 0.0
H389 H 0.33444 0.52425 0.99347 0.0
H390 H 0.20518 0.53292 0.99394 0.0
H391 H 0.17192 0.42943 0.99212 0.0
H392 H 0.30028 0.4209 0.99277 0.0
H393 H 0.10436 0.45239 0.03507 0.0
H394 H 0.11615 0.4793 0.92077 0.0
H395 H 0.15499 0.50622 0.87231 0.0
H396 H 0.07733 0.5975 0.90134 0.0
H397 H 0.04014 0.57134 0.9508 0.0
C398 C 0.74911 0.48032 0.99419 0.0
C399 C 0.7263 0.5116 0.00093 0.0
C400 C 0.8218 0.47453 0.99244 0.0
C401 C 0.87282 0.49998 -0.00265 0.0
C402 C 0.84958 0.53124 0.00368 0.0
C403 C 0.77729 0.53696 0.00554 0.0
C404 C 0.95059 0.49437 0.99613 0.0
C405 C 0.97962 0.51165 0.97173 0.0
C406 C 0.996 0.47226 0.01871 0.0
C407 C 0.96814 0.45249 0.04429 0.0
C408 C 0.9373 0.46729 0.06957 0.0
C409 C 0.90824 0.44833 0.0925 0.0
C410 C 0.91011 0.41453 0.09053 0.0
C411 C 0.94159 0.39963 0.06581 0.0
C412 C 0.97089 0.4185 0.0429 0.0
C413 C 0.29943 0.50348 0.99333 0.0
C414 C 0.32763 0.47194 0.99327 0.0
C415 C 0.22539 0.50838 0.99337 0.0
C416 C 0.17811 0.4818 0.9929 0.0
C417 C 0.20677 0.45038 0.99273 0.0
C418 C 0.28038 0.44554 0.99295 0.0
C419 C 0.09905 0.48632 0.99286 0.0
C420 C 0.06949 0.46873 0.01698 0.0
C421 C 0.05252 0.50735 0.96915 0.0
C422 C 0.07663 0.52343 0.94 0.0
C423 C 0.10852 0.50523 0.91727 0.0
C424 C 0.13015 0.52035 0.88957 0.0
C425 C 0.11916 0.5536 0.88393 0.0
C426 C 0.08635 0.57179 0.90594 0.0
C427 C 0.06518 0.55684 0.93389 0.0
H428 H 0.13567 0.56525 0.86238 0.0
H429 H 0.88728 0.3999 0.1082 0.0
H430 H 0.35875 0.46345 0.51515 0.0
H431 H 0.23193 0.45376 0.51888 0.0
H432 H 0.1753 0.55167 0.48381 0.0
H433 H 0.30184 0.56155 0.4813 0.0
H434 H 0.11226 0.53919 0.53364 0.0
H435 H 0.13069 0.48074 0.42974 0.0
H436 H 0.18308 0.44028 0.39651 0.0
H437 H 0.13837 0.36455 0.46347 0.0
H438 H 0.08623 0.40462 0.49726 0.0
H439 H 0.72292 0.52372 0.48896 0.0
H440 H 0.85181 0.53263 0.48845 0.0
H441 H 0.90212 0.43431 0.52375 0.0
H442 H 0.7738 0.42527 0.52328 0.0
H443 H 0.96938 0.44614 0.47549 0.0
H444 H 0.94531 0.50328 0.57769 0.0
H445 H 0.88971 0.54298 0.61042 0.0
H446 H 0.94544 0.62034 0.54844 0.0
H447 H 1.00102 0.58097 0.51512 0.0
C448 C 0.3189 0.48269 0.50788 0.0
C449 C 0.33998 0.51312 0.49753 0.0
C450 C 0.2463 0.4772 0.51001 0.0
C451 C 0.19311 0.50186 0.50118 0.0
C452 C 0.21472 0.5322 0.49085 0.0
C453 C 0.28717 0.53778 0.48922 0.0
C454 C 0.1151 0.49651 0.50271 0.0
C455 C 0.08091 0.519 0.52057 0.0
C456 C 0.07402 0.46978 0.48653 0.0
C457 C 0.10501 0.44569 0.46613 0.0
C458 C 0.13234 0.45548 0.43745 0.0
C459 C 0.16189 0.43261 0.4185 0.0
C460 C 0.16393 0.39987 0.42784 0.0
C461 C 0.13657 0.38991 0.45621 0.0
C462 C 0.10693 0.41267 0.47523 0.0
C463 C 0.7618 0.50424 0.49701 0.0
C464 C 0.73845 0.47392 0.5065 0.0
C465 C 0.83556 0.50928 0.49671 0.0
C466 C 0.8875 0.48423 0.50644 0.0
C467 C 0.86368 0.45405 0.51604 0.0
C468 C 0.79019 0.44894 0.51593 0.0
C469 C 0.96634 0.48894 0.50617 0.0
C470 C 1.00072 0.46631 0.48862 0.0
C471 C 1.00765 0.51542 0.52282 0.0
C472 C 0.97646 0.53917 0.54359 0.0
C473 C 0.94543 0.52874 0.57092 0.0
C474 C 0.914 0.55117 0.5896 0.0
C475 C 0.91383 0.58415 0.5814 0.0
C476 C 0.94552 0.59478 0.55466 0.0
C477 C 0.97704 0.57244 0.53591 0.0
H478 H 0.88926 0.60147 0.59581 0.0
H479 H 0.18677 0.38221 0.41311 0.0
H480 H 0.07143 0.93705 0.38461 0.0
H481 H 0.06179 0.93849 0.32154 0.0
H482 H 0.98707 0.03755 0.31773 0.0
H483 H 0.99966 0.03676 0.38086 0.0
H484 H 0.90419 0.9843 0.26354 0.0
H485 H 0.12679 0.04154 0.31103 0.0
H486 H 0.2486 0.05075 0.34866 0.0
H487 H 0.32981 0.96587 0.30719 0.0
H488 H 0.20781 0.95542 0.27058 0.0
H489 H 0.94172 0.03076 0.09391 0.0
H490 H 0.94144 0.02995 0.15565 0.0
H491 H 0.08566 0.94712 0.17092 0.0
H492 H 0.08679 0.94781 0.10928 0.0
H493 H 0.13032 -0.00655 0.21963 0.0
H494 H 0.90592 0.93848 0.16919 0.0
H495 H 0.78553 0.93273 0.12897 0.0
H496 H 0.70747 0.01685 0.173 0.0
H497 H 0.82781 0.02341 0.21316 0.0
C498 C 0.05278 0.95906 0.37024 0.0
C499 C 0.0367 0.98685 0.38752 0.0
C500 C 0.04731 0.95986 0.33435 0.0
C501 C 1.02378 0.98814 0.31516 0.0
C502 C 1.00533 0.01554 0.33218 0.0
C503 C 1.01291 0.01508 0.36817 0.0
C504 C 1.02103 0.98941 0.2775 0.0
C505 C 0.95341 0.98661 0.25382 0.0
C506 C 0.08537 -0.00787 0.26503 0.0
C507 C 0.15773 -0.0027 0.28863 0.0
C508 C 0.17011 0.02434 0.31068 0.0
C509 C 0.23934 0.02987 0.33177 0.0
C510 C 0.29692 0.0088 0.33061 0.0
C511 C 0.28522 0.98204 0.30849 0.0
C512 C 0.21593 0.97622 0.28765 0.0
C513 C 0.97351 0.01233 0.11036 0.0
C514 C 1.01438 0.98934 0.09658 0.0
C515 C 0.97283 0.01182 0.14563 0.0
C516 C 1.01286 0.98825 0.16781 0.0
C517 C 0.05418 0.96545 0.15422 0.0
C518 C 0.05473 0.96587 0.11894 0.0
C519 C 1.01356 0.98793 0.2054 0.0
C520 C 0.08091 0.99098 0.22919 0.0
C521 C 0.9488 0.98573 0.21783 0.0
C522 C 0.87614 0.9816 0.19397 0.0
C523 C 0.86327 0.9559 0.17013 0.0
C524 C 0.795 0.95247 0.14737 0.0
C525 C 0.73893 0.97446 0.14837 0.0
C526 C 0.75097 -0.00014 0.17223 0.0
C527 C 0.81918 0.00342 0.19501 0.0
H528 H 0.68611 0.97177 0.13072 0.0
H529 H 0.35067 0.01345 0.34661 0.0
H530 H 0.94003 0.03669 0.87106 0.0
H531 H 0.94841 0.03841 0.8103 0.0
H532 H 1.02964 0.94015 0.81878 0.0
H533 H 1.02269 0.93838 0.87954 0.0
H534 H 0.11391 0.97678 0.79086 0.0
H535 H 0.85738 0.96036 0.77234 0.0
H536 H 0.73065 0.9704 0.77677 0.0
H537 H 0.73321 0.06333 0.7278 0.0
H538 H 0.86053 0.05414 0.72369 0.0
H539 H 0.07067 0.94205 0.61068 0.0
H540 H 0.05604 0.94344 0.67054 0.0
H541 H 1.02985 0.04726 0.66367 0.0
H542 H 0.04598 0.04618 0.60376 0.0
H543 H 0.91829 0.01013 0.68998 0.0
H544 H 0.17849 0.02414 0.70898 0.0
H545 H 0.30208 0.01028 0.70231 0.0
H546 H 0.28681 0.91684 0.74831 0.0
H547 H 0.1626 0.92997 0.75477 0.0
C548 C 0.95869 0.01526 0.85989 0.0
C549 C 0.98109 0.98746 0.88031 0.0
C550 C 0.96327 0.01627 0.82506 0.0
C551 C 0.98962 0.98939 0.80991 0.0
C552 C 1.00955 0.96125 0.82993 0.0
C553 C 1.00532 0.96027 0.86471 0.0
C554 C 1.00102 -0.00884 0.77397 0.0
C555 C 0.07071 0.98373 0.76881 0.0
C556 C 0.94521 0.00089 0.74519 0.0
C557 C 0.86901 0.00675 0.7482 0.0
C558 C 0.83132 0.98313 0.76294 0.0
C559 C 0.75927 0.98863 0.7653 0.0
C560 C 0.724 0.01754 0.75271 0.0
C561 C 0.76068 0.04099 0.73766 0.0
C562 C 0.83282 0.03566 0.73533 0.0
C563 C 0.06249 0.96523 0.622 0.0
C564 C 0.05981 -0.00596 0.60264 0.0
C565 C 0.05416 0.96596 0.65616 0.0
C566 C 0.04192 -0.00456 0.67141 0.0
C567 C 0.03933 0.0243 0.65225 0.0
C568 C 0.0491 0.02366 0.61821 0.0
C569 C 1.03065 -0.00424 0.70722 0.0
C570 C 0.96119 0.00347 0.71225 0.0
C571 C 0.08619 0.98586 0.73583 0.0
C572 C 0.16094 0.97793 0.73204 0.0
C573 C 0.20119 0.00052 0.71737 0.0
C574 C 0.27142 -0.00718 0.71369 0.0
C575 C 0.30221 0.96267 0.7248 0.0
C576 C 0.26286 0.94018 0.73968 0.0
C577 C 0.19257 0.94775 0.74338 0.0
H578 H 0.3566 0.95675 0.72194 0.0
H579 H 0.66818 0.02173 0.75452 0.0
H580 H 0.56102 0.54 0.38958 0.0
H581 H 0.5633 0.53798 0.32825 0.0
H582 H 0.50467 0.43691 0.32505 0.0
H583 H 0.50228 0.43857 0.38669 0.0
H584 H 0.62097 0.45086 0.29327 0.0
H585 H 0.37831 0.49003 0.29057 0.0
H586 H 0.28765 0.52629 0.30709 0.0
H587 H 0.38372 0.60817 0.26731 0.0
H588 H 0.47563 0.57244 0.25098 0.0
H589 H 0.54268 0.4368 0.10927 0.0
H590 H 0.54135 0.43543 0.17087 0.0
H591 H 0.55904 0.5397 0.17499 0.0
H592 H 0.55728 0.54127 0.11309 0.0
H593 H 0.46123 0.52237 0.20682 0.0
H594 H 0.70523 0.48614 0.21098 0.0
H595 H 0.80079 0.45202 0.19557 0.0
H596 H 0.71034 0.36769 0.23374 0.0
H597 H 0.61358 0.40126 0.24895 0.0
C598 C 0.54845 0.51729 0.37595 0.0
C599 C 0.53128 0.48944 0.39312 0.0
C600 C 0.54961 0.51624 0.34082 0.0
C601 C 0.5337 0.48736 0.32211 0.0
C602 C 0.51703 0.45944 0.3391 0.0
C603 C 0.51534 0.4605 0.37426 0.0
C604 C 0.53488 0.48647 0.28481 0.0
C605 C 0.58537 0.4661 0.27418 0.0
C606 C 0.48985 0.50709 0.26026 0.0
C607 C 0.43424 0.52858 0.26982 0.0
C608 C 0.38045 0.51579 0.28558 0.0
C609 C 0.32877 0.53625 0.29487 0.0
C610 C 0.33002 0.56953 0.28833 0.0
C611 C 0.38285 0.5824 0.27239 0.0
C612 C 0.4347 0.56205 0.26308 0.0
C613 C 0.54705 0.4594 0.1234 0.0
C614 C 0.55014 0.48915 0.10634 0.0
C615 C 0.54653 0.45859 0.15868 0.0
C616 C 0.55094 0.48744 0.17779 0.0
C617 C 0.55537 0.51711 0.16085 0.0
C618 C 0.55456 0.51798 0.12547 0.0
C619 C 0.54801 0.48694 0.21504 0.0
C620 C 0.49698 0.50703 0.22574 0.0
C621 C 0.59336 0.46639 0.23972 0.0
C622 C 0.65172 0.44618 0.23078 0.0
C623 C 0.7054 0.46029 0.21586 0.0
C624 C 0.75983 0.44105 0.2072 0.0
C625 C 0.76152 0.4077 0.21359 0.0
C626 C 0.7089 0.39353 0.22876 0.0
C627 C 0.65429 0.41265 0.23743 0.0
H628 H 0.80369 0.39285 0.20686 0.0
H629 H 0.28998 0.58532 0.29554 0.0
H630 H 0.5374 0.4462 0.613 0.0
H631 H 0.52739 0.44793 0.67331 0.0
H632 H 0.54093 0.55229 0.6719 0.0
H633 H 0.55352 0.55066 0.61162 0.0
H634 H 0.61681 0.52927 0.73174 0.0
H635 H 0.37511 0.51251 0.66298 0.0
H636 H 0.28134 0.48563 0.61818 0.0
H637 H 0.31815 0.39635 0.6758 0.0
H638 H 0.41292 0.42257 0.72072 0.0
H639 H 0.48001 0.54681 0.88511 0.0
H640 H 0.48144 0.54939 0.8233 0.0
H641 H 0.5164 0.4461 0.82284 0.0
H642 H 0.51636 0.44335 0.88464 0.0
H643 H 0.40953 0.47189 0.76354 0.0
H644 H 0.65637 0.48801 0.82959 0.0
H645 H 0.75144 0.51455 0.874 0.0
H646 H 0.70296 0.6057 0.82081 0.0
H647 H 0.60664 0.57975 0.77636 0.0
C648 C 0.53862 0.46954 0.62554 0.0
C649 C 0.54557 0.49833 0.60746 0.0
C650 C 0.53253 0.4705 0.65999 0.0
C651 C 0.53149 0.50029 0.67686 0.0
C652 C 0.54106 0.52904 0.6593 0.0
C653 C 0.54828 0.52808 0.62489 0.0
C654 C 0.51948 0.50127 0.71264 0.0
C655 C 0.57074 0.51722 0.73852 0.0
C656 C 0.4599 0.48511 0.72164 0.0
C657 C 0.40151 0.46947 0.69512 0.0
C658 C 0.36342 0.48711 0.66604 0.0
C659 C 0.31009 0.47199 0.64062 0.0
C660 C 0.2939 0.43929 0.64412 0.0
C661 C 0.33077 0.42168 0.67313 0.0
C662 C 0.38423 0.43667 0.6986 0.0
C663 C 0.48699 0.5246 0.87171 0.0
C664 C 0.49846 0.4949 0.88969 0.0
C665 C 0.48801 0.52614 0.8365 0.0
C666 C 0.49937 0.49795 0.81871 0.0
C667 C 0.50752 0.46809 0.8362 0.0
C668 C 0.50781 0.46661 0.8715 0.0
C669 C 0.50697 0.49972 0.78237 0.0
C670 C 0.45496 0.48425 0.7565 0.0
C671 C 0.56556 0.51642 0.77333 0.0
C672 C 0.62368 0.53203 0.7999 0.0
C673 C 0.66546 0.51377 0.82755 0.0
C674 C 0.71968 0.52869 0.85269 0.0
C675 C 0.73307 0.56182 0.85029 0.0
C676 C 0.69241 0.58006 0.82268 0.0
C677 C 0.63801 0.56526 0.7975 0.0
H678 H 0.7751 0.57332 0.86977 0.0
H679 H 0.25272 0.4276 0.62438 0.0
loop_
_geom_bond_atom_site_label_1
_geom_bond_atom_site_label_2
_geom_bond_distance
_geom_bond_site_symmetry_2
_ccdc_geom_bond_type
Tb0 O3 2.453 . S
Tb0 O4 2.596 1_545 S
Tb0 O5 2.374 1_454 S
Tb0 O13 2.343 1_454 S
Tb0 O15 2.353 . S
Tb0 O17 2.427 1_455 S
Tb0 O18 2.513 1_454 S
C1 O5 1.251 . S
C1 O7 1.263 1_545 S
Tb2 O4 2.343 1_656 S
Tb2 O7 2.353 . S
Tb2 O10 2.427 1_655 S
Tb2 O11 2.513 1_656 S
Tb2 O12 2.453 . S
Tb2 O13 2.596 1_565 S
Tb2 O14 2.374 1_656 S
O3 Tb0 2.453 . S
O3 C19 1.245 . S
O4 Tb0 2.596 1_565 S
O4 Tb2 2.343 1_454 S
O4 C19 1.259 1_565 S
O5 Tb0 2.374 1_656 S
O5 C1 1.251 . S
C6 O10 1.275 1_554 S
C6 O11 1.246 . S
O7 C1 1.263 1_565 S
O7 Tb2 2.353 . S
C8 O12 1.245 . S
C8 O13 1.259 1_565 S
C9 O14 1.250 . S
C9 O15 1.263 1_565 S
O10 Tb2 2.427 1_455 S
O10 C6 1.275 1_556 S
O11 Tb2 2.513 1_454 S
O11 C6 1.246 . S
O12 Tb2 2.453 . S
O12 C8 1.245 . S
O13 Tb0 2.343 1_656 S
O13 Tb2 2.596 1_545 S
O13 C8 1.259 1_545 S
O14 Tb2 2.374 1_454 S
O14 C9 1.250 . S
O15 Tb0 2.353 . S
O15 C9 1.263 1_545 S
C16 O17 1.275 1_556 S
C16 O18 1.246 . S
O17 Tb0 2.427 1_655 S
O17 C16 1.275 1_554 S
O18 Tb0 2.513 1_656 S
O18 C16 1.246 . S
C19 O3 1.245 . S
C19 O4 1.259 1_545 S
Tb20 O23 2.453 . S
Tb20 O24 2.596 1_545 S
Tb20 O25 2.374 1_655 S
Tb20 O33 2.343 1_655 S
Tb20 O35 2.353 . S
Tb20 O37 2.427 1_655 S
Tb20 O38 2.513 1_655 S
C21 O25 1.251 . S
C21 O27 1.263 1_545 S
Tb22 O24 2.343 1_455 S
Tb22 O27 2.353 . S
Tb22 O30 2.427 1_455 S
Tb22 O31 2.513 1_455 S
Tb22 O32 2.453 . S
Tb22 O33 2.596 1_565 S
Tb22 O34 2.374 1_455 S
O23 Tb20 2.453 . S
O23 C39 1.245 . S
O24 Tb20 2.596 1_565 S
O24 Tb22 2.343 1_655 S
O24 C39 1.259 1_565 S
O25 Tb20 2.374 1_455 S
O25 C21 1.251 . S
C26 O30 1.275 . S
C26 O31 1.246 . S
O27 C21 1.263 1_565 S
O27 Tb22 2.353 . S
C28 O32 1.245 . S
C28 O33 1.259 1_565 S
C29 O34 1.250 . S
C29 O35 1.263 1_565 S
O30 Tb22 2.427 1_655 S
O30 C26 1.275 . S
O31 Tb22 2.513 1_655 S
O31 C26 1.246 . S
O32 Tb22 2.453 . S
O32 C28 1.245 . S
O33 Tb20 2.343 1_455 S
O33 Tb22 2.596 1_545 S
O33 C28 1.259 1_545 S
O34 Tb22 2.374 1_655 S
O34 C29 1.250 . S
O35 Tb20 2.353 . S
O35 C29 1.263 1_545 S
C36 O37 1.275 . S
C36 O38 1.246 . S
O37 Tb20 2.427 1_455 S
O37 C36 1.275 . S
O38 Tb20 2.513 1_455 S
O38 C36 1.246 . S
C39 O23 1.245 . S
C39 O24 1.259 1_545 S
Tb40 O43 2.453 . S
Tb40 O44 2.596 . S
Tb40 O45 2.374 1_554 S
Tb40 O53 2.343 1_554 S
Tb40 O55 2.353 . S
Tb40 O57 2.427 . S
Tb40 O58 2.513 1_554 S
C41 O45 1.251 . S
C41 O47 1.263 . S
Tb42 O44 2.343 1_556 S
Tb42 O47 2.353 . S
Tb42 O50 2.427 . S
Tb42 O51 2.513 1_556 S
Tb42 O52 2.453 . S
Tb42 O53 2.596 . S
Tb42 O54 2.374 1_556 S
O43 Tb40 2.453 . S
O43 C59 1.245 . S
O44 Tb40 2.596 . S
O44 Tb42 2.343 1_554 S
O44 C59 1.259 . S
O45 Tb40 2.374 1_556 S
O45 C41 1.251 . S
C46 O50 1.275 1_554 S
C46 O51 1.246 . S
O47 C41 1.263 . S
O47 Tb42 2.353 . S
C48 O52 1.245 . S
C48 O53 1.259 . S
C49 O54 1.250 . S
C49 O55 1.263 . S
O50 Tb42 2.427 . S
O50 C46 1.275 1_556 S
O51 Tb42 2.513 1_554 S
O51 C46 1.246 . S
O52 Tb42 2.453 . S
O52 C48 1.245 . S
O53 Tb40 2.343 1_556 S
O53 Tb42 2.596 . S
O53 C48 1.259 . S
O54 Tb42 2.374 1_554 S
O54 C49 1.250 . S
O55 Tb40 2.353 . S
O55 C49 1.263 . S
C56 O57 1.275 1_556 S
C56 O58 1.246 . S
O57 Tb40 2.427 . S
O57 C56 1.275 1_554 S
O58 Tb40 2.513 1_556 S
O58 C56 1.246 . S
C59 O43 1.245 . S
C59 O44 1.259 . S
Tb60 O63 2.453 . S
Tb60 O64 2.596 . S
Tb60 O65 2.374 . S
Tb60 O73 2.343 . S
Tb60 O75 2.353 . S
Tb60 O77 2.427 . S
Tb60 O78 2.513 . S
C61 O65 1.251 . S
C61 O67 1.263 . S
Tb62 O64 2.343 . S
Tb62 O67 2.353 . S
Tb62 O70 2.427 . S
Tb62 O71 2.513 . S
Tb62 O72 2.453 . S
Tb62 O73 2.596 . S
Tb62 O74 2.374 . S
O63 Tb60 2.453 . S
O63 C79 1.245 . S
O64 Tb60 2.596 . S
O64 Tb62 2.343 . S
O64 C79 1.259 . S
O65 Tb60 2.374 . S
O65 C61 1.251 . S
C66 O70 1.275 . S
C66 O71 1.246 . S
O67 C61 1.263 . S
O67 Tb62 2.353 . S
C68 O72 1.245 . S
C68 O73 1.259 . S
C69 O74 1.250 . S
C69 O75 1.263 . S
O70 Tb62 2.427 . S
O70 C66 1.275 . S
O71 Tb62 2.513 . S
O71 C66 1.246 . S
O72 Tb62 2.453 . S
O72 C68 1.245 . S
O73 Tb60 2.343 . S
O73 Tb62 2.596 . S
O73 C68 1.259 . S
O74 Tb62 2.374 . S
O74 C69 1.250 . S
O75 Tb60 2.353 . S
O75 C69 1.263 . S
C76 O77 1.275 . S
C76 O78 1.246 . S
O77 Tb60 2.427 . S
O77 C76 1.275 . S
O78 Tb60 2.513 . S
O78 C76 1.246 . S
C79 O63 1.245 . S
C79 O64 1.259 . S
H80 C98 0.951 . S
H81 C100 0.951 . S
H82 C102 0.950 . S
H83 C103 0.950 . S
H84 C105 0.950 . S
H85 C108 0.950 . S
H86 C109 0.950 . S
H87 C111 0.950 . S
H88 C112 0.950 . S
H89 C113 0.951 . S
H90 C115 0.951 . S
H91 C117 0.950 . S
H92 C118 0.950 . S
H93 C120 0.950 . S
H94 C123 0.950 . S
H95 C124 0.950 . S
H96 C126 0.950 . S
H97 C127 0.950 . S
C98 H80 0.951 . S
C98 C99 1.366 1_554 S
C98 C100 1.388 . S
C99 C98 1.366 1_556 S
C99 C103 1.385 . S
C100 H81 0.951 . S
C100 C98 1.388 . S
C100 C101 1.366 1_554 S
C101 C100 1.366 1_556 S
C101 C102 1.414 . S
C101 C104 1.499 . S
C102 H82 0.950 . S
C102 C101 1.414 . S
C102 C103 1.374 . S
C103 H83 0.950 . S
C103 C99 1.385 . S
C103 C102 1.374 . S
C104 C101 1.499 . S
C104 C105 1.373 . S
C104 C106 1.379 1_556 S
C105 H84 0.950 . S
C105 C104 1.373 . S
C105 C121 1.381 . S
C106 C104 1.379 1_554 S
C106 C107 1.532 1_554 S
C106 C120 1.382 . S
C107 C106 1.532 1_556 S
C107 C108 1.413 . S
C107 C112 1.345 1_556 S
C108 H85 0.950 . S
C108 C107 1.413 . S
C108 C109 1.334 . S
C109 H86 0.950 . S
C109 C108 1.334 . S
C109 C110 1.287 . S
C110 C109 1.287 . S
C110 C111 1.524 1_556 S
C110 H129 0.913 . S
C111 H87 0.950 . S
C111 C110 1.524 1_554 S
C111 C112 1.415 . S
C112 H88 0.950 . S
C112 C107 1.345 1_554 S
C112 C111 1.415 . S
C113 H89 0.951 . S
C113 C114 1.366 1_556 S
C113 C115 1.388 . S
C114 C113 1.366 1_554 S
C114 C118 1.385 . S
C115 H90 0.951 . S
C115 C113 1.388 . S
C115 C116 1.366 1_556 S
C116 C115 1.366 1_554 S
C116 C117 1.414 . S
C116 C119 1.499 . S
C117 H91 0.950 . S
C117 C116 1.414 . S
C117 C118 1.374 . S
C118 H92 0.950 . S
C118 C114 1.385 . S
C118 C117 1.374 . S
C119 C116 1.499 . S
C119 C120 1.373 . S
C119 C121 1.381 1_554 S
C120 H93 0.950 . S
C120 C106 1.382 . S
C120 C119 1.373 . S
C121 C105 1.381 . S
C121 C119 1.381 1_556 S
C121 C122 1.532 1_556 S
C122 C121 1.532 1_554 S
C122 C123 1.419 . S
C122 C127 1.339 1_554 S
C123 H94 0.950 . S
C123 C122 1.419 . S
C123 C124 1.334 . S
C124 H95 0.950 . S
C124 C123 1.334 . S
C124 C125 1.287 . S
C125 C124 1.287 . S
C125 C126 1.524 1_554 S
C125 H128 0.999 . S
C126 H96 0.950 . S
C126 C125 1.524 1_556 S
C126 C127 1.415 . S
C127 H97 0.950 . S
C127 C122 1.339 1_556 S
C127 C126 1.415 . S
H128 C125 0.999 . S
H129 C110 0.913 . S
H130 C148 0.951 . S
H131 C150 0.951 . S
H132 C152 0.950 . S
H133 C153 0.950 . S
H134 C155 0.950 . S
H135 C158 0.950 . S
H136 C159 0.950 . S
H137 C161 0.950 . S
H138 C162 0.950 . S
H139 C163 0.951 . S
H140 C165 0.951 . S
H141 C167 0.950 . S
H142 C168 0.950 . S
H143 C170 0.950 . S
H144 C173 0.950 . S
H145 C174 0.950 . S
H146 C176 0.950 . S
H147 C177 0.950 . S
C148 H130 0.951 . S
C148 C149 1.366 . S
C148 C150 1.388 . S
C149 C148 1.366 . S
C149 C153 1.385 1_554 S
C150 H131 0.951 . S
C150 C148 1.388 . S
C150 C151 1.362 1_554 S
C151 C150 1.362 1_556 S
C151 C152 1.414 . S
C151 C154 1.501 . S
C152 H132 0.950 . S
C152 C151 1.414 . S
C152 C153 1.374 . S
C153 H133 0.950 . S
C153 C149 1.385 1_556 S
C153 C152 1.374 . S
C154 C151 1.501 . S
C154 C155 1.373 1_556 S
C154 C156 1.389 . S
C155 H134 0.950 . S
C155 C154 1.373 1_554 S
C155 C171 1.377 . S
C156 C154 1.389 . S
C156 C157 1.524 . S
C156 C170 1.377 . S
C157 C156 1.524 . S
C157 C158 1.397 . S
C157 C162 1.363 . S
C158 H135 0.950 . S
C158 C157 1.397 . S
C158 C159 1.334 . S
C159 H136 0.950 . S
C159 C158 1.334 . S
C159 C160 1.287 . S
C160 C159 1.287 . S
C160 C161 1.524 . S
C160 H179 0.913 . S
C161 H137 0.950 . S
C161 C160 1.524 . S
C161 C162 1.415 . S
C162 H138 0.950 . S
C162 C157 1.363 . S
C162 C161 1.415 . S
C163 H139 0.951 . S
C163 C164 1.366 . S
C163 C165 1.388 . S
C164 C163 1.366 . S
C164 C168 1.385 1_556 S
C165 H140 0.951 . S
C165 C163 1.388 . S
C165 C166 1.361 1_556 S
C166 C165 1.361 1_554 S
C166 C167 1.414 . S
C166 C169 1.502 . S
C167 H141 0.950 . S
C167 C166 1.414 . S
C167 C168 1.374 . S
C168 H142 0.950 . S
C168 C164 1.385 1_554 S
C168 C167 1.374 . S
C169 C166 1.502 . S
C169 C170 1.373 1_554 S
C169 C171 1.389 . S
C170 H143 0.950 . S
C170 C156 1.377 . S
C170 C169 1.373 1_556 S
C171 C155 1.377 . S
C171 C169 1.389 . S
C171 C172 1.524 . S
C172 C171 1.524 . S
C172 C173 1.397 . S
C172 C177 1.363 . S
C173 H144 0.950 . S
C173 C172 1.397 . S
C173 C174 1.334 . S
C174 H145 0.950 . S
C174 C173 1.334 . S
C174 C175 1.287 . S
C175 C174 1.287 . S
C175 C176 1.524 . S
C175 H178 0.999 . S
C176 H146 0.950 . S
C176 C175 1.524 . S
C176 C177 1.415 . S
C177 H147 0.950 . S
C177 C172 1.363 . S
C177 C176 1.415 . S
H178 C175 0.999 . S
H179 C160 0.913 . S
H180 C198 0.951 . S
H181 C200 0.951 . S
H182 C202 0.950 . S
H183 C203 0.950 . S
H184 C205 0.950 . S
H185 C208 0.950 . S
H186 C209 0.950 . S
H187 C211 0.950 1_655 S
H188 C212 0.950 . S
H189 C213 0.951 . S
H190 C215 0.951 . S
H191 C217 0.950 . S
H192 C218 0.950 . S
H193 C220 0.950 . S
H194 C223 0.950 . S
H195 C224 0.950 . S
H196 C226 0.950 . S
H197 C227 0.950 . S
C198 H180 0.951 . S
C198 C199 1.366 . S
C198 C200 1.388 . S
C199 C198 1.366 . S
C199 C203 1.385 . S
C200 H181 0.951 . S
C200 C198 1.388 . S
C200 C201 1.366 . S
C201 C200 1.366 . S
C201 C202 1.414 . S
C201 C204 1.499 . S
C202 H182 0.950 . S
C202 C201 1.414 . S
C202 C203 1.374 . S
C203 H183 0.950 . S
C203 C199 1.385 . S
C203 C202 1.374 . S
C204 C201 1.499 . S
C204 C205 1.373 . S
C204 C206 1.389 . S
C205 H184 0.950 . S
C205 C204 1.373 . S
C205 C221 1.377 . S
C206 C204 1.389 . S
C206 C207 1.524 . S
C206 C220 1.377 . S
C207 C206 1.524 . S
C207 C208 1.397 . S
C207 C212 1.363 . S
C208 H185 0.950 . S
C208 C207 1.397 . S
C208 C209 1.334 . S
C209 H186 0.950 . S
C209 C208 1.334 . S
C209 C210 1.287 . S
C210 C209 1.287 . S
C210 C211 1.524 . S
C210 H229 0.913 1_455 S
C211 H187 0.950 1_455 S
C211 C210 1.524 . S
C211 C212 1.414 . S
C212 H188 0.950 . S
C212 C207 1.363 . S
C212 C211 1.414 . S
C213 H189 0.951 . S
C213 C214 1.366 . S
C213 C215 1.388 . S
C214 C213 1.366 . S
C214 C218 1.385 . S
C215 H190 0.951 . S
C215 C213 1.388 . S
C215 C216 1.366 . S
C216 C215 1.366 . S
C216 C217 1.414 . S
C216 C219 1.499 . S
C217 H191 0.950 . S
C217 C216 1.414 . S
C217 C218 1.374 . S
C218 H192 0.950 . S
C218 C214 1.385 . S
C218 C217 1.374 . S
C219 C216 1.499 . S
C219 C220 1.373 . S
C219 C221 1.389 . S
C220 H193 0.950 . S
C220 C206 1.377 . S
C220 C219 1.373 . S
C221 C205 1.377 . S
C221 C219 1.389 . S
C221 C222 1.524 . S
C222 C221 1.524 . S
C222 C223 1.397 . S
C222 C227 1.363 . S
C223 H194 0.950 . S
C223 C222 1.397 . S
C223 C224 1.334 . S
C224 H195 0.950 . S
C224 C223 1.334 . S
C224 C225 1.287 . S
C225 C224 1.287 . S
C225 C226 1.524 . S
C225 H228 0.999 . S
C226 H196 0.950 . S
C226 C225 1.524 . S
C226 C227 1.415 . S
C227 H197 0.950 . S
C227 C222 1.363 . S
C227 C226 1.415 . S
H228 C225 0.999 . S
H229 C210 0.913 1_655 S
H230 C248 0.951 . S
H231 C250 0.951 . S
H232 C252 0.950 . S
H233 C253 0.950 . S
H234 C255 0.950 . S
H235 C258 0.950 . S
H236 C259 0.950 . S
H237 C261 0.950 . S
H238 C262 0.950 . S
H239 C263 0.951 . S
H240 C265 0.951 . S
H241 C267 0.950 . S
H242 C268 0.950 . S
H243 C270 0.950 . S
H244 C273 0.950 . S
H245 C274 0.950 . S
H246 C276 0.950 . S
H247 C277 0.950 . S
C248 H230 0.951 . S
C248 C249 1.366 . S
C248 C250 1.388 . S
C249 C248 1.366 . S
C249 C253 1.385 . S
C250 H231 0.951 . S
C250 C248 1.388 . S
C250 C251 1.366 . S
C251 C250 1.366 . S
C251 C252 1.414 . S
C251 C254 1.499 . S
C252 H232 0.950 . S
C252 C251 1.414 . S
C252 C253 1.374 . S
C253 H233 0.950 . S
C253 C249 1.385 . S
C253 C252 1.374 . S
C254 C251 1.499 . S
C254 C255 1.373 . S
C254 C256 1.389 . S
C255 H234 0.950 . S
C255 C254 1.373 . S
C255 C271 1.377 . S
C256 C254 1.389 . S
C256 C257 1.524 . S
C256 C270 1.377 . S
C257 C256 1.524 . S
C257 C258 1.397 . S
C257 C262 1.363 . S
C258 H235 0.950 . S
C258 C257 1.397 . S
C258 C259 1.334 . S
C259 H236 0.950 . S
C259 C258 1.334 . S
C259 C260 1.287 . S
C260 C259 1.287 . S
C260 C261 1.524 . S
C260 H279 0.913 . S
C261 H237 0.950 . S
C261 C260 1.524 . S
C261 C262 1.415 . S
C262 H238 0.950 . S
C262 C257 1.363 . S
C262 C261 1.415 . S
C263 H239 0.951 . S
C263 C264 1.366 . S
C263 C265 1.388 . S
C264 C263 1.366 . S
C264 C268 1.385 . S
C265 H240 0.951 . S
C265 C263 1.388 . S
C265 C266 1.366 . S
C266 C265 1.366 . S
C266 C267 1.414 . S
C266 C269 1.499 . S
C267 H241 0.950 . S
C267 C266 1.414 . S
C267 C268 1.374 . S
C268 H242 0.950 . S
C268 C264 1.385 . S
C268 C267 1.374 . S
C269 C266 1.499 . S
C269 C270 1.373 . S
C269 C271 1.389 . S
C270 H243 0.950 . S
C270 C256 1.377 . S
C270 C269 1.373 . S
C271 C255 1.377 . S
C271 C269 1.389 . S
C271 C272 1.524 . S
C272 C271 1.524 . S
C272 C273 1.397 . S
C272 C277 1.363 . S
C273 H244 0.950 . S
C273 C272 1.397 . S
C273 C274 1.334 . S
C274 H245 0.950 . S
C274 C273 1.334 . S
C274 C275 1.287 . S
C275 C274 1.287 . S
C275 C276 1.524 . S
C275 H278 0.999 . S
C276 H246 0.950 . S
C276 C275 1.524 . S
C276 C277 1.415 . S
C277 H247 0.950 . S
C277 C272 1.363 . S
C277 C276 1.415 . S
H278 C275 0.999 . S
H279 C260 0.913 . S
H280 C298 0.951 . S
H281 C300 0.951 . S
H282 C302 0.950 . S
H283 C303 0.950 . S
H284 C305 0.950 . S
H285 C308 0.950 . S
H286 C309 0.950 . S
H287 C311 0.950 . S
H288 C312 0.950 . S
H289 C313 0.951 . S
H290 C315 0.951 . S
H291 C317 0.950 . S
H292 C318 0.950 . S
H293 C320 0.950 . S
H294 C323 0.950 . S
H295 C324 0.950 . S
H296 C326 0.950 . S
H297 C327 0.950 . S
C298 H280 0.951 . S
C298 C299 1.352 1_554 S
C298 C300 1.388 . S
C299 C298 1.352 1_556 S
C299 C303 1.407 1_565 S
C300 H281 0.951 . S
C300 C298 1.388 . S
C300 C301 1.387 . S
C301 C300 1.387 . S
C301 C302 1.400 1_564 S
C301 C304 1.494 1_565 S
C302 H282 0.950 . S
C302 C301 1.400 1_546 S
C302 C303 1.374 . S
C303 H283 0.950 . S
C303 C299 1.407 1_545 S
C303 C302 1.374 . S
C304 C301 1.494 1_545 S
C304 C305 1.353 1_554 S
C304 C306 1.403 . S
C305 H284 0.950 . S
C305 C304 1.353 1_556 S
C305 C321 1.376 1_545 S
C306 C304 1.403 . S
C306 C307 1.527 . S
C306 C320 1.376 1_545 S
C307 C306 1.527 . S
C307 C308 1.397 . S
C307 C312 1.363 1_545 S
C308 H285 0.950 . S
C308 C307 1.397 . S
C308 C309 1.334 . S
C309 H286 0.950 . S
C309 C308 1.334 . S
C309 C310 1.287 . S
C310 C309 1.287 . S
C310 C311 1.524 1_545 S
C310 H329 0.913 . S
C311 H287 0.950 . S
C311 C310 1.524 1_565 S
C311 C312 1.415 . S
C312 H288 0.950 . S
C312 C307 1.363 1_565 S
C312 C311 1.415 . S
C313 H289 0.951 . S
C313 C314 1.366 1_556 S
C313 C315 1.388 . S
C314 C313 1.366 1_554 S
C314 C318 1.385 1_545 S
C315 H290 0.951 . S
C315 C313 1.388 . S
C315 C316 1.382 . S
C316 C315 1.382 . S
C316 C317 1.403 1_546 S
C316 C319 1.494 1_545 S
C317 H291 0.950 . S
C317 C316 1.403 1_564 S
C317 C318 1.374 . S
C318 H292 0.950 . S
C318 C314 1.385 1_565 S
C318 C317 1.374 . S
C319 C316 1.494 1_565 S
C319 C320 1.361 1_556 S
C319 C321 1.398 . S
C320 H293 0.950 . S
C320 C306 1.376 1_565 S
C320 C319 1.361 1_554 S
C321 C305 1.376 1_565 S
C321 C319 1.398 . S
C321 C322 1.526 . S
C322 C321 1.526 . S
C322 C323 1.397 . S
C322 C327 1.363 1_565 S
C323 H294 0.950 . S
C323 C322 1.397 . S
C323 C324 1.334 . S
C324 H295 0.950 . S
C324 C323 1.334 . S
C324 C325 1.287 . S
C325 C324 1.287 . S
C325 C326 1.524 1_565 S
C325 H328 0.999 . S
C326 H296 0.950 . S
C326 C325 1.524 1_545 S
C326 C327 1.415 . S
C327 H297 0.950 . S
C327 C322 1.363 1_545 S
C327 C326 1.415 . S
H328 C325 0.999 . S
H329 C310 0.913 . S
H330 C348 0.951 . S
H331 C350 0.951 . S
H332 C352 0.950 . S
H333 C353 0.950 . S
H334 C355 0.950 . S
H335 C358 0.950 . S
H336 C359 0.950 . S
H337 C361 0.950 . S
H338 C362 0.950 . S
H339 C363 0.951 . S
H340 C365 0.951 . S
H341 C367 0.950 . S
H342 C368 0.950 . S
H343 C370 0.950 . S
H344 C373 0.950 . S
H345 C374 0.950 . S
H346 C376 0.950 . S
H347 C377 0.950 . S
C348 H330 0.951 . S
C348 C349 1.366 . S
C348 C350 1.388 . S
C349 C348 1.366 . S
C349 C353 1.385 1_545 S
C350 H331 0.951 . S
C350 C348 1.388 . S
C350 C351 1.377 . S
C351 C350 1.377 . S
C351 C352 1.406 1_545 S
C351 C354 1.497 1_545 S
C352 H332 0.950 . S
C352 C351 1.406 1_565 S
C352 C353 1.374 . S
C353 H333 0.950 . S
C353 C349 1.385 1_565 S
C353 C352 1.374 . S
C354 C351 1.497 1_565 S
C354 C355 1.360 1_565 S
C354 C356 1.402 . S
C355 H334 0.950 . S
C355 C354 1.360 1_545 S
C355 C371 1.377 . S
C356 C354 1.402 . S
C356 C357 1.524 . S
C356 C370 1.377 . S
C357 C356 1.524 . S
C357 C358 1.397 . S
C357 C362 1.363 . S
C358 H335 0.950 . S
C358 C357 1.397 . S
C358 C359 1.334 . S
C359 H336 0.950 . S
C359 C358 1.334 . S
C359 C360 1.287 . S
C360 C359 1.287 . S
C360 C361 1.524 . S
C360 H379 0.913 . S
C361 H337 0.950 . S
C361 C360 1.524 . S
C361 C362 1.415 . S
C362 H338 0.950 . S
C362 C357 1.363 . S
C362 C361 1.415 . S
C363 H339 0.951 . S
C363 C364 1.366 . S
C363 C365 1.388 . S
C364 C363 1.366 . S
C364 C368 1.385 1_565 S
C365 H340 0.951 . S
C365 C363 1.388 . S
C365 C366 1.375 . S
C366 C365 1.375 . S
C366 C367 1.408 1_565 S
C366 C369 1.498 1_565 S
C367 H341 0.950 . S
C367 C366 1.408 1_545 S
C367 C368 1.374 . S
C368 H342 0.950 . S
C368 C364 1.385 1_545 S
C368 C367 1.374 . S
C369 C366 1.498 1_545 S
C369 C370 1.373 1_545 S
C369 C371 1.389 . S
C370 H343 0.950 . S
C370 C356 1.377 . S
C370 C369 1.373 1_565 S
C371 C355 1.377 . S
C371 C369 1.389 . S
C371 C372 1.524 . S
C372 C371 1.524 . S
C372 C373 1.397 . S
C372 C377 1.363 . S
C373 H344 0.950 . S
C373 C372 1.397 . S
C373 C374 1.334 . S
C374 H345 0.950 . S
C374 C373 1.334 . S
C374 C375 1.287 . S
C375 C374 1.287 . S
C375 C376 1.524 . S
C375 H378 0.999 . S
C376 H346 0.950 . S
C376 C375 1.524 . S
C376 C377 1.415 . S
C377 H347 0.950 . S
C377 C372 1.363 . S
C377 C376 1.415 . S
H378 C375 0.999 . S
H379 C360 0.913 . S
H380 C398 0.951 . S
H381 C400 0.951 . S
H382 C402 0.950 . S
H383 C403 0.950 . S
H384 C405 0.950 . S
H385 C408 0.950 . S
H386 C409 0.950 . S
H387 C411 0.950 . S
H388 C412 0.950 1_556 S
H389 C413 0.951 . S
H390 C415 0.951 . S
H391 C417 0.950 . S
H392 C418 0.950 . S
H393 C420 0.950 . S
H394 C423 0.950 . S
H395 C424 0.950 . S
H396 C426 0.950 . S
H397 C427 0.950 1_554 S
C398 H380 0.951 . S
C398 C399 1.385 . S
C398 C400 1.388 . S
C399 C398 1.385 . S
C399 C403 1.374 1_556 S
C400 H381 0.951 . S
C400 C398 1.388 . S
C400 C401 1.366 1_556 S
C401 C400 1.366 1_554 S
C401 C402 1.414 . S
C401 C404 1.499 . S
C402 H382 0.950 . S
C402 C401 1.414 . S
C402 C403 1.374 . S
C403 H383 0.950 . S
C403 C399 1.374 1_554 S
C403 C402 1.374 . S
C404 C401 1.499 . S
C404 C405 1.373 1_554 S
C404 C406 1.389 . S
C405 H384 0.950 . S
C405 C404 1.373 1_556 S
C405 C421 1.377 1_655 S
C406 C404 1.389 . S
C406 C407 1.524 . S
C406 C420 1.377 1_655 S
C407 C406 1.524 . S
C407 C408 1.397 . S
C407 C412 1.363 . S
C408 H385 0.950 . S
C408 C407 1.397 . S
C408 C409 1.334 . S
C409 H386 0.950 . S
C409 C408 1.334 . S
C409 C410 1.287 . S
C410 C409 1.287 . S
C410 C411 1.524 . S
C410 H429 0.913 . S
C411 H387 0.950 . S
C411 C410 1.524 . S
C411 C412 1.415 . S
C412 H388 0.950 1_554 S
C412 C407 1.363 . S
C412 C411 1.415 . S
C413 H389 0.951 . S
C413 C414 1.366 . S
C413 C415 1.388 . S
C414 C413 1.366 . S
C414 C418 1.385 1_554 S
C415 H390 0.951 . S
C415 C413 1.388 . S
C415 C416 1.366 1_554 S
C416 C415 1.366 1_556 S
C416 C417 1.414 . S
C416 C419 1.499 . S
C417 H391 0.950 . S
C417 C416 1.414 . S
C417 C418 1.374 . S
C418 H392 0.950 . S
C418 C414 1.385 1_556 S
C418 C417 1.374 . S
C419 C416 1.499 . S
C419 C420 1.373 1_556 S
C419 C421 1.389 . S
C420 H393 0.950 . S
C420 C406 1.377 1_455 S
C420 C419 1.373 1_554 S
C421 C405 1.377 1_455 S
C421 C419 1.389 . S
C421 C422 1.524 . S
C422 C421 1.524 . S
C422 C423 1.397 . S
C422 C427 1.363 . S
C423 H394 0.950 . S
C423 C422 1.397 . S
C423 C424 1.334 . S
C424 H395 0.950 . S
C424 C423 1.334 . S
C424 C425 1.287 . S
C425 C424 1.287 . S
C425 C426 1.524 . S
C425 H428 0.999 . S
C426 H396 0.950 . S
C426 C425 1.524 . S
C426 C427 1.415 . S
C427 H397 0.950 1_556 S
C427 C422 1.363 . S
C427 C426 1.415 . S
H428 C425 0.999 . S
H429 C410 0.913 . S
H430 C448 0.951 . S
H431 C450 0.951 . S
H432 C452 0.950 . S
H433 C453 0.950 . S
H434 C455 0.950 . S
H435 C458 0.950 . S
H436 C459 0.950 . S
H437 C461 0.950 1_655 S
H438 C462 0.950 1_655 S
H439 C463 0.951 . S
H440 C465 0.951 . S
H441 C467 0.950 . S
H442 C468 0.950 . S
H443 C470 0.950 . S
H444 C473 0.950 . S
H445 C474 0.950 . S
H446 C476 0.950 1_455 S
H447 C477 0.950 1_455 S
C448 H430 0.951 . S
C448 C449 1.366 . S
C448 C450 1.388 . S
C449 C448 1.366 . S
C449 C453 1.385 . S
C450 H431 0.951 . S
C450 C448 1.388 . S
C450 C451 1.366 . S
C451 C450 1.366 . S
C451 C452 1.414 . S
C451 C454 1.499 . S
C452 H432 0.950 . S
C452 C451 1.414 . S
C452 C453 1.374 . S
C453 H433 0.950 . S
C453 C449 1.385 . S
C453 C452 1.374 . S
C454 C451 1.499 . S
C454 C455 1.373 . S
C454 C456 1.389 . S
C455 H434 0.950 . S
C455 C454 1.373 . S
C455 C471 1.377 1_455 S
C456 C454 1.389 . S
C456 C457 1.524 . S
C456 C470 1.377 1_455 S
C457 C456 1.524 . S
C457 C458 1.397 . S
C457 C462 1.363 . S
C458 H435 0.950 . S
C458 C457 1.397 . S
C458 C459 1.334 . S
C459 H436 0.950 . S
C459 C458 1.334 . S
C459 C460 1.287 . S
C460 C459 1.287 . S
C460 C461 1.524 . S
C460 H479 0.913 . S
C461 H437 0.950 1_455 S
C461 C460 1.524 . S
C461 C462 1.415 . S
C462 H438 0.950 1_455 S
C462 C457 1.363 . S
C462 C461 1.415 . S
C463 H439 0.951 . S
C463 C464 1.366 . S
C463 C465 1.388 . S
C464 C463 1.366 . S
C464 C468 1.385 . S
C465 H440 0.951 . S
C465 C463 1.388 . S
C465 C466 1.366 . S
C466 C465 1.366 . S
C466 C467 1.414 . S
C466 C469 1.499 . S
C467 H441 0.950 . S
C467 C466 1.414 . S
C467 C468 1.374 . S
C468 H442 0.950 . S
C468 C464 1.385 . S
C468 C467 1.374 . S
C469 C466 1.499 . S
C469 C470 1.373 . S
C469 C471 1.389 . S
C470 H443 0.950 . S
C470 C456 1.377 1_655 S
C470 C469 1.373 . S
C471 C455 1.377 1_655 S
C471 C469 1.389 . S
C471 C472 1.524 . S
C472 C471 1.524 . S
C472 C473 1.397 . S
C472 C477 1.363 . S
C473 H444 0.950 . S
C473 C472 1.397 . S
C473 C474 1.334 . S
C474 H445 0.950 . S
C474 C473 1.334 . S
C474 C475 1.287 . S
C475 C474 1.287 . S
C475 C476 1.524 . S
C475 H478 0.999 . S
C476 H446 0.950 1_655 S
C476 C475 1.524 . S
C476 C477 1.415 . S
C477 H447 0.950 1_655 S
C477 C472 1.363 . S
C477 C476 1.415 . S
H478 C475 0.999 . S
H479 C460 0.913 . S
H480 C498 0.951 . S
H481 C500 0.951 . S
H482 C502 0.950 . S
H483 C503 0.950 . S
H484 C505 0.950 . S
H485 C508 0.950 . S
H486 C509 0.950 . S
H487 C511 0.950 . S
H488 C512 0.928 1_565 S
H489 C513 0.951 . S
H490 C515 0.951 . S
H491 C517 0.950 . S
H492 C518 0.950 . S
H493 C520 0.950 . S
H494 C523 0.950 . S
H495 C524 0.950 . S
H496 C526 0.950 . S
H497 C527 0.950 1_545 S
C498 H480 0.951 . S
C498 C499 1.366 . S
C498 C500 1.388 . S
C499 C498 1.366 . S
C499 C503 1.385 1_465 S
C500 H481 0.951 . S
C500 C498 1.388 . S
C500 C501 1.365 1_565 S
C501 C500 1.365 1_545 S
C501 C502 1.414 1_455 S
C501 C504 1.494 . S
C502 H482 0.950 . S
C502 C501 1.414 1_655 S
C502 C503 1.374 . S
C503 H483 0.950 . S
C503 C499 1.385 1_645 S
C503 C502 1.374 . S
C504 C501 1.494 . S
C504 C505 1.355 1_445 S
C504 C506 1.410 . S
C505 H484 0.950 . S
C505 C504 1.355 1_665 S
C505 C521 1.377 . S
C506 C504 1.410 . S
C506 C507 1.524 . S
C506 C520 1.377 . S
C507 C506 1.524 . S
C507 C508 1.397 . S
C507 C512 1.376 . S
C508 H485 0.950 . S
C508 C507 1.397 . S
C508 C509 1.334 . S
C509 H486 0.950 . S
C509 C508 1.334 . S
C509 C510 1.287 . S
C510 C509 1.287 . S
C510 C511 1.524 . S
C510 H529 0.913 . S
C511 H487 0.950 . S
C511 C510 1.524 . S
C511 C512 1.424 . S
C512 H488 0.928 1_545 S
C512 C507 1.376 . S
C512 C511 1.424 . S
C513 H489 0.951 . S
C513 C514 1.378 1_545 S
C513 C515 1.388 . S
C514 C513 1.378 1_565 S
C514 C518 1.377 1_655 S
C515 H490 0.951 . S
C515 C513 1.388 . S
C515 C516 1.366 1_545 S
C516 C515 1.366 1_565 S
C516 C517 1.414 1_655 S
C516 C519 1.496 . S
C517 H491 0.950 . S
C517 C516 1.414 1_455 S
C517 C518 1.374 . S
C518 H492 0.950 . S
C518 C514 1.377 1_455 S
C518 C517 1.374 . S
C519 C516 1.496 . S
C519 C520 1.364 1_665 S
C519 C521 1.402 . S
C520 H493 0.950 . S
C520 C506 1.377 . S
C520 C519 1.364 1_445 S
C521 C505 1.377 . S
C521 C519 1.402 . S
C521 C522 1.524 . S
C522 C521 1.524 . S
C522 C523 1.397 . S
C522 C527 1.363 . S
C523 H494 0.950 . S
C523 C522 1.397 . S
C523 C524 1.334 . S
C524 H495 0.950 . S
C524 C523 1.334 . S
C524 C525 1.287 . S
C525 C524 1.287 . S
C525 C526 1.524 . S
C525 H528 0.999 . S
C526 H496 0.950 . S
C526 C525 1.524 . S
C526 C527 1.415 . S
C527 H497 0.950 1_565 S
C527 C522 1.363 . S
C527 C526 1.415 . S
H528 C525 0.999 . S
H529 C510 0.913 . S
H530 C548 0.951 . S
H531 C550 0.951 . S
H532 C552 0.950 . S
H533 C553 0.950 . S
H534 C555 0.950 . S
H535 C558 0.950 . S
H536 C559 0.950 . S
H537 C561 0.950 . S
H538 C562 0.950 1_545 S
H539 C563 0.951 . S
H540 C565 0.951 . S
H541 C567 0.950 . S
H542 C568 0.950 . S
H543 C570 0.950 . S
H544 C573 0.950 . S
H545 C574 0.950 . S
H546 C576 0.950 . S
H547 C577 0.950 1_565 S
C548 H530 0.951 . S
C548 C549 1.366 1_655 S
C548 C550 1.388 . S
C549 C548 1.366 1_455 S
C549 C553 1.385 1_545 S
C550 H531 0.951 . S
C550 C548 1.388 . S
C550 C551 1.367 1_545 S
C551 C550 1.367 1_565 S
C551 C552 1.413 1_655 S
C551 C554 1.497 1_655 S
C552 H532 0.950 . S
C552 C551 1.413 1_455 S
C552 C553 1.374 . S
C553 H533 0.950 . S
C553 C549 1.385 1_565 S
C553 C552 1.374 . S
C554 C551 1.497 1_455 S
C554 C555 1.370 1_565 S
C554 C556 1.392 1_455 S
C555 H534 0.950 . S
C555 C554 1.370 1_545 S
C555 C571 1.377 . S
C556 C554 1.392 1_655 S
C556 C557 1.524 . S
C556 C570 1.377 . S
C557 C556 1.524 . S
C557 C558 1.397 . S
C557 C562 1.363 . S
C558 H535 0.950 . S
C558 C557 1.397 . S
C558 C559 1.334 . S
C559 H536 0.950 . S
C559 C558 1.334 . S
C559 C560 1.287 . S
C560 C559 1.287 . S
C560 C561 1.524 . S
C560 H579 0.913 . S
C561 H537 0.950 . S
C561 C560 1.524 . S
C561 C562 1.415 . S
C562 H538 0.950 1_565 S
C562 C557 1.363 . S
C562 C561 1.415 . S
C563 H539 0.951 . S
C563 C564 1.366 1_465 S
C563 C565 1.388 . S
C564 C563 1.366 1_645 S
C564 C568 1.385 . S
C565 H540 0.951 . S
C565 C563 1.388 . S
C565 C566 1.366 1_565 S
C566 C565 1.366 1_545 S
C566 C567 1.414 1_455 S
C566 C569 1.499 1_455 S
C567 H541 0.950 . S
C567 C566 1.414 1_655 S
C567 C568 1.374 . S
C568 H542 0.950 . S
C568 C564 1.385 . S
C568 C567 1.374 . S
C569 C566 1.499 1_655 S
C569 C570 1.373 1_545 S
C569 C571 1.389 1_655 S
C570 H543 0.950 . S
C570 C556 1.377 . S
C570 C569 1.373 1_565 S
C571 C555 1.377 . S
C571 C569 1.389 1_455 S
C571 C572 1.524 . S
C572 C571 1.524 . S
C572 C573 1.397 . S
C572 C577 1.363 . S
C573 H544 0.950 . S
C573 C572 1.397 . S
C573 C574 1.334 . S
C574 H545 0.950 . S
C574 C573 1.334 . S
C574 C575 1.287 . S
C575 C574 1.287 . S
C575 C576 1.524 . S
C575 H578 0.999 . S
C576 H546 0.950 . S
C576 C575 1.524 . S
C576 C577 1.415 . S
C577 H547 0.950 1_545 S
C577 C572 1.363 . S
C577 C576 1.415 . S
H578 C575 0.999 . S
H579 C560 0.913 . S
H580 C598 0.951 . S
H581 C600 0.951 . S
H582 C602 0.950 . S
H583 C603 0.950 . S
H584 C605 0.950 . S
H585 C608 0.950 . S
H586 C609 0.950 . S
H587 C611 0.950 . S
H588 C612 0.950 . S
H589 C613 0.951 . S
H590 C615 0.951 . S
H591 C617 0.950 . S
H592 C618 0.950 . S
H593 C620 0.950 . S
H594 C623 0.950 . S
H595 C624 0.950 . S
H596 C626 0.950 . S
H597 C627 0.950 . S
C598 H580 0.951 . S
C598 C599 1.366 . S
C598 C600 1.388 . S
C599 C598 1.366 . S
C599 C603 1.385 . S
C600 H581 0.951 . S
C600 C598 1.388 . S
C600 C601 1.366 . S
C601 C600 1.366 . S
C601 C602 1.414 . S
C601 C604 1.499 . S
C602 H582 0.950 . S
C602 C601 1.414 . S
C602 C603 1.374 . S
C603 H583 0.950 . S
C603 C599 1.385 . S
C603 C602 1.374 . S
C604 C601 1.499 . S
C604 C605 1.373 . S
C604 C606 1.389 . S
C605 H584 0.950 . S
C605 C604 1.373 . S
C605 C621 1.377 . S
C606 C604 1.389 . S
C606 C607 1.524 . S
C606 C620 1.377 . S
C607 C606 1.524 . S
C607 C608 1.397 . S
C607 C612 1.363 . S
C608 H585 0.950 . S
C608 C607 1.397 . S
C608 C609 1.334 . S
C609 H586 0.950 . S
C609 C608 1.334 . S
C609 C610 1.287 . S
C610 C609 1.287 . S
C610 C611 1.524 . S
C610 H629 0.913 . S
C611 H587 0.950 . S
C611 C610 1.524 . S
C611 C612 1.415 . S
C612 H588 0.950 . S
C612 C607 1.363 . S
C612 C611 1.415 . S
C613 H589 0.951 . S
C613 C614 1.366 . S
C613 C615 1.388 . S
C614 C613 1.366 . S
C614 C618 1.385 . S
C615 H590 0.951 . S
C615 C613 1.388 . S
C615 C616 1.366 . S
C616 C615 1.366 . S
C616 C617 1.414 . S
C616 C619 1.499 . S
C617 H591 0.950 . S
C617 C616 1.414 . S
C617 C618 1.374 . S
C618 H592 0.950 . S
C618 C614 1.385 . S
C618 C617 1.374 . S
C619 C616 1.499 . S
C619 C620 1.373 . S
C619 C621 1.389 . S
C620 H593 0.950 . S
C620 C606 1.377 . S
C620 C619 1.373 . S
C621 C605 1.377 . S
C621 C619 1.389 . S
C621 C622 1.524 . S
C622 C621 1.524 . S
C622 C623 1.397 . S
C622 C627 1.363 . S
C623 H594 0.950 . S
C623 C622 1.397 . S
C623 C624 1.334 . S
C624 H595 0.950 . S
C624 C623 1.334 . S
C624 C625 1.287 . S
C625 C624 1.287 . S
C625 C626 1.524 . S
C625 H628 0.999 . S
C626 H596 0.950 . S
C626 C625 1.524 . S
C626 C627 1.415 . S
C627 H597 0.950 . S
C627 C622 1.363 . S
C627 C626 1.415 . S
H628 C625 0.999 . S
H629 C610 0.913 . S
H630 C648 0.951 . S
H631 C650 0.951 . S
H632 C652 0.950 . S
H633 C653 0.950 . S
H634 C655 0.950 . S
H635 C658 0.950 . S
H636 C659 0.950 . S
H637 C661 0.950 . S
H638 C662 0.950 . S
H639 C663 0.951 . S
H640 C665 0.951 . S
H641 C667 0.950 . S
H642 C668 0.950 . S
H643 C670 0.950 . S
H644 C673 0.950 . S
H645 C674 0.950 . S
H646 C676 0.950 . S
H647 C677 0.950 . S
C648 H630 0.951 . S
C648 C649 1.366 . S
C648 C650 1.388 . S
C649 C648 1.366 . S
C649 C653 1.385 . S
C650 H631 0.951 . S
C650 C648 1.388 . S
C650 C651 1.366 . S
C651 C650 1.366 . S
C651 C652 1.414 . S
C651 C654 1.499 . S
C652 H632 0.950 . S
C652 C651 1.414 . S
C652 C653 1.374 . S
C653 H633 0.950 . S
C653 C649 1.385 . S
C653 C652 1.374 . S
C654 C651 1.499 . S
C654 C655 1.373 . S
C654 C656 1.389 . S
C655 H634 0.950 . S
C655 C654 1.373 . S
C655 C671 1.377 . S
C656 C654 1.389 . S
C656 C657 1.524 . S
C656 C670 1.377 . S
C657 C656 1.524 . S
C657 C658 1.397 . S
C657 C662 1.363 . S
C658 H635 0.950 . S
C658 C657 1.397 . S
C658 C659 1.334 . S
C659 H636 0.950 . S
C659 C658 1.334 . S
C659 C660 1.287 . S
C660 C659 1.287 . S
C660 C661 1.524 . S
C660 H679 0.913 . S
C661 H637 0.950 . S
C661 C660 1.524 . S
C661 C662 1.415 . S
C662 H638 0.950 . S
C662 C657 1.363 . S
C662 C661 1.415 . S
C663 H639 0.951 . S
C663 C664 1.366 . S
C663 C665 1.388 . S
C664 C663 1.366 . S
C664 C668 1.385 . S
C665 H640 0.951 . S
C665 C663 1.388 . S
C665 C666 1.366 . S
C666 C665 1.366 . S
C666 C667 1.414 . S
C666 C669 1.499 . S
C667 H641 0.950 . S
C667 C666 1.414 . S
C667 C668 1.374 . S
C668 H642 0.950 . S
C668 C664 1.385 . S
C668 C667 1.374 . S
C669 C666 1.499 . S
C669 C670 1.373 . S
C669 C671 1.389 . S
C670 H643 0.950 . S
C670 C656 1.377 . S
C670 C669 1.373 . S
C671 C655 1.377 . S
C671 C669 1.389 . S
C671 C672 1.524 . S
C672 C671 1.524 . S
C672 C673 1.397 . S
C672 C677 1.363 . S
C673 H644 0.950 . S
C673 C672 1.397 . S
C673 C674 1.334 . S
C674 H645 0.950 . S
C674 C673 1.334 . S
C674 C675 1.287 . S
C675 C674 1.287 . S
C675 C676 1.524 . S
C675 H678 0.999 . S
C676 H646 0.950 . S
C676 C675 1.524 . S
C676 C677 1.415 . S
C677 H647 0.950 . S
C677 C672 1.363 . S
C677 C676 1.415 . S
H678 C675 0.999 . S
H679 C660 0.913 . S
C99 C56 1.481 . S
C114 C6 1.481 . S
C149 C46 1.480 . S
C164 C16 1.480 . S
C199 C36 1.481 . S
C214 C66 1.479 . S
C249 C26 1.481 . S
C264 C76 1.483 . S
C299 C19 1.817 1_566 S
C314 C8 1.828 1_544 S
C349 C28 1.828 1_545 S
C364 C39 1.828 1_565 S
C399 C59 1.817 1_556 S
C414 C48 1.828 1_554 S
C449 C79 1.828 . S
C464 C68 1.828 . S
C499 C29 1.487 1_455 S
C514 C9 1.479 1_655 S
C549 C1 1.488 1_455 S
C564 C21 1.491 1_655 S
C599 C69 1.488 . S
C614 C49 1.485 . S
C649 C61 1.487 . S
C664 C41 1.490 . S
