# Generated by pormake.
# Topology whz, (6)-cn, num edge types: 1
# Building blocks:
#     Node 0, Type 0, BuildingBlock: IZENUY_clean_sbu_0, # of connection points: 6
#     Node 1, Type 0, BuildingBlock: IZENUY_clean_sbu_0, # of connection points: 6
#     Node 2, Type 0, BuildingBlock: IZENUY_clean_sbu_0, # of connection points: 6
#     Node 3, Type 0, BuildingBlock: IZENUY_clean_sbu_0, # of connection points: 6
#     Node 4, Type 0, BuildingBlock: IZENUY_clean_sbu_0, # of connection points: 6
#     Node 5, Type 0, BuildingBlock: IZENUY_clean_sbu_0, # of connection points: 6
#     Node 6, Type 0, BuildingBlock: IZENUY_clean_sbu_0, # of connection points: 6
#     Node 7, Type 0, BuildingBlock: IZENUY_clean_sbu_0, # of connection points: 6
#     Node 8, Type 0, BuildingBlock: IZENUY_clean_sbu_0, # of connection points: 6
#     Node 9, Type 0, BuildingBlock: IZENUY_clean_sbu_0, # of connection points: 6
#     Node 10, Type 0, BuildingBlock: IZENUY_clean_sbu_0, # of connection points: 6
#     Node 11, Type 0, BuildingBlock: IZENUY_clean_sbu_0, # of connection points: 6
#     Node 12, Type 0, BuildingBlock: IZENUY_clean_sbu_0, # of connection points: 6
#     Node 13, Type 0, BuildingBlock: IZENUY_clean_sbu_0, # of connection points: 6
#     Node 14, Type 0, BuildingBlock: IZENUY_clean_sbu_0, # of connection points: 6
#     Node 15, Type 0, BuildingBlock: IZENUY_clean_sbu_0, # of connection points: 6
#     Edge 16, Type (0, 0), None
#     Edge 17, Type (0, 0), None
#     Edge 18, Type (0, 0), None
#     Edge 19, Type (0, 0), None
#     Edge 20, Type (0, 0), None
#     Edge 21, Type (0, 0), None
#     Edge 22, Type (0, 0), None
#     Edge 23, Type (0, 0), None
#     Edge 24, Type (0, 0), None
#     Edge 25, Type (0, 0), None
#     Edge 26, Type (0, 0), None
#     Edge 27, Type (0, 0), None
#     Edge 28, Type (0, 0), None
#     Edge 29, Type (0, 0), None
#     Edge 30, Type (0, 0), None
#     Edge 31, Type (0, 0), None
#     Edge 32, Type (0, 0), None
#     Edge 33, Type (0, 0), None
#     Edge 34, Type (0, 0), None
#     Edge 35, Type (0, 0), None
#     Edge 36, Type (0, 0), None
#     Edge 37, Type (0, 0), None
#     Edge 38, Type (0, 0), None
#     Edge 39, Type (0, 0), None
#     Edge 40, Type (0, 0), None
#     Edge 41, Type (0, 0), None
#     Edge 42, Type (0, 0), None
#     Edge 43, Type (0, 0), None
#     Edge 44, Type (0, 0), None
#     Edge 45, Type (0, 0), None
#     Edge 46, Type (0, 0), None
#     Edge 47, Type (0, 0), None
#     Edge 48, Type (0, 0), None
#     Edge 49, Type (0, 0), None
#     Edge 50, Type (0, 0), None
#     Edge 51, Type (0, 0), None
#     Edge 52, Type (0, 0), None
#     Edge 53, Type (0, 0), None
#     Edge 54, Type (0, 0), None
#     Edge 55, Type (0, 0), None
#     Edge 56, Type (0, 0), None
#     Edge 57, Type (0, 0), None
#     Edge 58, Type (0, 0), None
#     Edge 59, Type (0, 0), None
#     Edge 60, Type (0, 0), None
#     Edge 61, Type (0, 0), None
#     Edge 62, Type (0, 0), None
#     Edge 63, Type (0, 0), None
# Relax obj value: 0.408
# Max RMSD: 0.254
# Mean RMSD: 0.254
data_MOF--net-whz--node1-IZENUY_clean_sbu_0--edge1-none
_symmetry_space_group_name_H-M    P1
_symmetry_Int_Tables_number       1
_symmetry_cell_setting            triclinic
loop_
_symmetry_equiv_pos_as_xyz
'x, y, z'
_cell_length_a     15.883124
_cell_length_b     15.879146
_cell_length_c     21.157097
_cell_angle_alpha  90.0
_cell_angle_beta   90.0
_cell_angle_gamma 90.013628
loop_
_atom_site_label
_atom_site_type_symbol
_atom_site_fract_x
_atom_site_fract_y
_atom_site_fract_z
_atom_type_partial_charge
Fe0 Fe 0.40674 0.29168 0.23224 0.0
Fe1 Fe 0.22422 0.26607 0.19569 0.0
O2 O 0.32846 0.2325 0.19141 0.0
Fe3 Fe 0.35769 0.14452 0.14517 0.0
O4 O 0.40235 0.09211 0.21413 0.0
O5 O 0.4778 0.19903 0.24306 0.0
O6 O 0.36599 0.26225 0.30613 0.0
C7 C 0.29114 0.2768 0.32005 0.0
C8 C 0.48615 0.27264 0.12305 0.0
O9 O 0.23559 0.29531 0.27923 0.0
C10 C 0.2347 0.2148 1.06569 0.0
O11 O 0.34877 0.39405 0.23727 0.0
O12 O 0.25794 0.36684 0.16563 0.0
O13 O 0.46116 0.1952 0.12189 0.0
O14 O 0.44692 0.32416 0.15662 0.0
C15 C 0.21402 0.0952 0.21402 0.0
O16 O 0.19308 0.23736 0.11397 0.0
O17 O 0.30965 0.18736 1.07222 0.0
C18 C 0.28513 0.41758 0.20628 0.0
O19 O 0.19072 0.16844 0.22763 0.0
O20 O 0.26186 0.08248 0.16633 0.0
C21 C 0.45288 0.12363 0.253 0.0
Fe22 Fe 0.52181 0.65684 0.48224 0.0
Fe23 Fe 0.54747 0.4743 0.4457 0.0
O24 O 0.58099 0.57858 0.44141 0.0
Fe25 Fe 0.66893 0.6079 0.39515 0.0
O26 O 0.72133 0.65261 0.46411 0.0
O27 O 0.61442 0.72798 0.49306 0.0
O28 O 0.55125 0.61609 0.55613 0.0
C29 C 0.53667 0.54122 0.57005 0.0
C30 C 0.54079 0.73628 0.37304 0.0
O31 O 0.51822 0.48564 0.52923 0.0
C32 C 0.59871 0.48481 0.3157 0.0
O33 O 0.41949 0.59879 0.48727 0.0
O34 O 0.4467 0.50791 0.41564 0.0
O35 O 0.61822 0.71135 0.37188 0.0
O36 O 0.48931 0.697 0.40663 0.0
C37 C 0.71832 0.46425 0.46401 0.0
O38 O 0.57619 0.44316 0.36398 0.0
O39 O 0.62611 0.55981 0.32221 0.0
C40 C 0.39597 0.53512 0.45628 0.0
O41 O 0.64511 0.4409 0.47764 0.0
O42 O 0.731 0.51209 0.41632 0.0
C43 C 0.68981 0.70313 0.50299 0.0
Fe44 Fe 0.33906 0.79746 0.69569 0.0
Fe45 Fe 0.20559 0.91901 0.64517 0.0
O46 O 0.23483 0.83104 0.69141 0.0
Fe47 Fe 0.15654 0.77185 0.73224 0.0
O48 O 0.19729 0.80129 0.80613 0.0
O49 O 0.32769 0.76823 0.77923 0.0
O50 O 0.37256 0.8951 0.72763 0.0
C51 C 0.34926 0.96833 0.71402 0.0
C52 C 0.27815 0.64595 0.70628 0.0
O53 O 0.30143 0.98105 0.66633 0.0
C54 C 0.07713 0.7909 0.62305 0.0
O55 O 0.3702 0.82618 0.61397 0.0
O56 O 0.25363 0.87617 0.57222 0.0
O57 O 0.21451 0.66948 0.73727 0.0
O58 O 0.30534 0.6967 0.66563 0.0
C59 C 0.1104 0.93991 0.753 0.0
O60 O 0.10213 0.86833 0.62189 0.0
O61 O 0.11636 0.73938 0.65662 0.0
C62 C 0.32858 0.84874 0.56569 0.0
O63 O 0.16094 0.97142 0.71413 0.0
O64 O 0.08549 0.8645 0.74306 0.0
C65 C 0.27214 0.78673 0.82005 0.0
Fe66 Fe 0.04147 0.40669 0.98224 0.0
Fe67 Fe 1.01581 0.58924 0.9457 0.0
O68 O 0.98229 0.48495 0.94141 0.0
Fe69 Fe 0.89435 0.45563 0.89515 0.0
O70 O 0.84195 0.41092 0.96411 0.0
O71 O 0.94886 0.33555 0.99306 0.0
O72 O 1.01203 0.44744 1.05613 0.0
C73 C 1.02661 0.52232 1.07005 0.0
C74 C 1.02249 0.32725 0.87304 0.0
O75 O 0.04506 0.5779 1.02923 0.0
C76 C 0.96457 0.57872 0.8157 0.0
O77 O 0.14379 0.46474 0.98727 0.0
O78 O 0.11658 0.55562 0.91564 0.0
O79 O 0.94506 0.35218 0.87188 0.0
O80 O 0.07397 0.36653 0.90663 0.0
C81 C 0.84497 0.59928 0.96401 0.0
O82 O 0.98709 0.62037 0.86398 0.0
O83 O 0.93717 0.50373 0.82221 0.0
C84 C 0.16732 0.52841 0.95628 0.0
O85 O 0.91817 0.62263 0.97764 0.0
O86 O 0.83228 0.55144 0.91632 0.0
C87 C 0.87347 0.36041 1.00299 0.0
Fe88 Fe 0.65657 0.77183 0.97236 0.0
Fe89 Fe 0.83909 0.79746 1.00892 0.0
O90 O 0.73485 0.83101 1.0132 0.0
Fe91 Fe 0.7056 0.91899 1.05944 0.0
O92 O 0.66096 0.9714 0.99048 0.0
O93 O 0.58551 0.86449 0.96153 0.0
O94 O 0.69734 0.80128 0.89848 0.0
C95 C 0.7722 0.78672 0.88456 0.0
C96 C 0.57713 0.79089 1.08154 0.0
O97 O 0.82774 0.7682 0.92539 0.0
C98 C 0.8286 0.84874 0.13891 0.0
O99 O 0.71454 0.66947 0.96733 0.0
O100 O 0.80543 0.69668 1.039 0.0
O101 O 0.60214 0.86832 1.08271 0.0
O102 O 0.61636 0.73936 1.04797 0.0
C103 C 0.84926 0.96833 0.99059 0.0
O104 O 0.87023 0.8262 1.09064 0.0
O105 O 0.75364 0.87615 0.13239 0.0
C106 C 0.77815 0.64597 0.99836 0.0
O107 O 0.87256 0.8951 0.97697 0.0
O108 O 0.80144 0.98104 1.03828 0.0
C109 C 0.61042 0.93989 0.9516 0.0
Fe110 Fe 0.39435 0.45563 0.80946 0.0
Fe111 Fe 0.54147 0.40669 0.72237 0.0
O112 O 0.48229 0.48495 0.7632 0.0
Fe113 Fe 0.51581 0.58924 0.75891 0.0
O114 O 0.41817 0.62263 0.72697 0.0
O115 O 0.33228 0.55143 0.7883 0.0
O116 O 0.34195 0.41092 0.74051 0.0
C117 C 0.37347 0.3604 0.70163 0.0
C118 C 0.46457 0.57872 0.88891 0.0
O119 O 0.44886 0.33554 0.71156 0.0
C120 C 0.66731 0.52841 0.74832 0.0
O121 O 0.44506 0.35218 0.83274 0.0
O122 O 0.57397 0.36653 0.79798 0.0
O123 O 0.48708 0.62037 0.84062 0.0
O124 O 0.43718 0.50372 0.8824 0.0
C125 C 0.52655 0.52232 0.63456 0.0
O126 O 0.64379 0.46474 0.71733 0.0
O127 O 0.61658 0.55563 0.78896 0.0
C128 C 0.52249 0.32725 0.83157 0.0
O129 O 0.51202 0.44743 0.64848 0.0
O130 O 0.54506 0.57789 0.67538 0.0
C131 C 0.34497 0.59927 0.74061 0.0
Fe132 Fe 0.85768 0.14454 0.55944 0.0
Fe133 Fe 0.90672 0.2917 0.47236 0.0
O134 O 0.82843 0.23252 0.5132 0.0
Fe135 Fe 0.72419 0.26607 0.50892 0.0
O136 O 0.69072 0.16843 0.47697 0.0
O137 O 0.76184 0.0825 0.53828 0.0
O138 O 0.90232 0.09213 0.49048 0.0
C139 C 0.95286 0.12364 0.4516 0.0
C140 C 0.73469 0.2148 0.63891 0.0
O141 O 0.97777 0.19905 0.46153 0.0
C142 C 0.78513 0.41757 0.49836 0.0
O143 O 0.96114 0.19521 0.58271 0.0
O144 O 0.94692 0.32417 0.54797 0.0
O145 O 0.69305 0.23733 0.59064 0.0
O146 O 0.80964 0.18738 0.63239 0.0
C147 C 0.79109 0.27682 0.38456 0.0
O148 O 0.84874 0.39406 0.46733 0.0
O149 O 0.75785 0.36685 0.539 0.0
C150 C 0.98615 0.27264 0.58154 0.0
O151 O 0.86594 0.26225 0.39848 0.0
O152 O 0.73555 0.29533 0.42539 0.0
C153 C 0.71402 0.0952 0.49059 0.0
Fe154 Fe 0.04748 0.4743 0.25891 0.0
Fe155 Fe 0.16893 0.60791 0.30946 0.0
O156 O 0.081 0.57859 0.2632 0.0
Fe157 Fe 1.02181 0.65685 0.22237 0.0
O158 O 0.05126 0.61611 0.14848 0.0
O159 O 1.01823 0.48564 0.17538 0.0
O160 O 0.14512 0.4409 0.22697 0.0
C161 C 0.21831 0.46427 0.24061 0.0
C162 C 0.89597 0.53512 0.24832 0.0
O163 O 0.231 0.51211 0.2883 0.0
C164 C 0.04079 0.73628 0.33157 0.0
O165 O 0.0762 0.44316 0.34062 0.0
O166 O 0.1261 0.55981 0.3824 0.0
O167 O 0.91949 0.59879 0.21733 0.0
O168 O 0.94671 0.50791 0.28896 0.0
C169 C 0.18981 0.70313 0.20163 0.0
O170 O 0.11822 0.71135 0.33274 0.0
O171 O 0.98931 0.697 0.29798 0.0
C172 C 0.09871 0.48481 0.38891 0.0
O173 O 0.22133 0.65262 0.24051 0.0
O174 O 0.11442 0.72799 0.21156 0.0
C175 C 0.03673 0.54122 0.13456 0.0
Fe176 Fe 0.90676 0.7917 0.73226 0.0
Fe177 Fe 0.72425 0.76609 0.69568 0.0
O178 O 0.82848 0.73251 0.6914 0.0
Fe179 Fe 0.85773 0.64453 0.64516 0.0
O180 O 0.9024 0.59213 0.71412 0.0
O181 O 0.97783 0.69906 0.74307 0.0
O182 O 0.86599 0.76222 0.80614 0.0
C183 C 0.79112 0.77672 0.82004 0.0
C184 C 0.98609 0.77269 0.62303 0.0
O185 O 0.7356 0.7953 0.77923 0.0
C186 C 0.73474 0.7148 0.56569 0.0
O187 O 0.84877 0.89405 0.73732 0.0
O188 O 0.75797 0.86687 0.66564 0.0
O189 O 0.96119 0.69523 0.62188 0.0
O190 O 0.94695 0.82423 0.65666 0.0
C191 C 0.71405 0.59522 0.714 0.0
O192 O 0.69311 0.73739 0.61396 0.0
O193 O 0.80968 0.68736 0.57221 0.0
C194 C 0.78515 0.9176 0.70631 0.0
O195 O 0.69074 0.66845 0.7276 0.0
O196 O 0.76191 0.58248 0.66633 0.0
C197 C 0.95291 0.62366 0.753 0.0
Fe198 Fe 0.04749 0.9743 0.9457 0.0
Fe199 Fe 0.16893 0.10793 0.89515 0.0
O200 O 0.08098 0.0786 0.9414 0.0
Fe201 Fe 1.02178 0.15685 0.98225 0.0
O202 O 0.05126 0.11609 1.05613 0.0
O203 O 1.01822 0.98564 1.02922 0.0
O204 O 0.14513 0.94094 0.97764 0.0
C205 C 0.21833 0.96428 0.964 0.0
C206 C 0.89599 0.03514 0.95625 0.0
O207 O 0.23101 1.01213 0.91631 0.0
C208 C 0.04074 0.23621 0.87302 0.0
O209 O 0.07623 0.94317 0.86398 0.0
O210 O 0.12611 0.05984 0.82221 0.0
O211 O 0.91948 0.09878 0.98729 0.0
O212 O 0.9467 1.00786 0.91562 0.0
C213 C 0.18978 0.20313 1.00299 0.0
O214 O 0.1182 0.21137 0.87187 0.0
O215 O 0.98925 0.19702 0.90665 0.0
C216 C 0.09873 0.98484 0.8157 0.0
O217 O 0.22132 0.15264 0.9641 0.0
O218 O 0.11439 0.228 0.99307 0.0
C219 C 0.03668 0.04121 1.07005 0.0
Fe220 Fe 0.65652 0.27183 0.23226 0.0
Fe221 Fe 0.83904 0.29744 0.19568 0.0
O222 O 0.7348 0.33102 0.1914 0.0
Fe223 Fe 0.70555 0.419 0.14516 0.0
O224 O 0.66089 0.47141 0.21412 0.0
O225 O 0.58546 0.36448 0.24307 0.0
O226 O 0.69729 0.30132 0.30614 0.0
C227 C 0.77216 0.28682 0.32004 0.0
C228 C 0.57719 0.29084 0.12303 0.0
O229 O 0.82769 0.26823 0.27923 0.0
C230 C 0.82854 0.34873 1.06569 0.0
O231 O 0.71451 0.16948 0.23732 0.0
O232 O 0.80531 0.19667 0.16564 0.0
O233 O 0.6021 0.3683 0.12188 0.0
O234 O 0.61633 0.23931 0.15666 0.0
C235 C 0.84923 0.46831 0.214 0.0
O236 O 0.87017 0.32614 0.11396 0.0
O237 O 0.7536 0.37618 1.07221 0.0
C238 C 0.77813 0.14593 0.20631 0.0
O239 O 0.87255 0.39509 0.2276 0.0
O240 O 0.80137 0.48105 0.16633 0.0
C241 C 0.61037 0.43988 0.253 0.0
Fe242 Fe 0.5415 0.90669 0.48225 0.0
Fe243 Fe 0.5158 0.08923 0.4457 0.0
O244 O 0.4823 0.98493 0.4414 0.0
Fe245 Fe 0.39436 0.9556 0.39515 0.0
O246 O 0.34197 0.91089 0.4641 0.0
O247 O 0.44889 0.83554 0.49307 0.0
O248 O 0.51202 0.94744 0.55613 0.0
C249 C 0.52661 1.02232 0.57005 0.0
C250 C 0.52254 0.82733 0.37302 0.0
O251 O 0.54507 0.0779 0.52922 0.0
C252 C 0.46455 0.0787 0.3157 0.0
O253 O 0.6438 0.96476 0.48729 0.0
O254 O 0.61658 0.05568 0.41562 0.0
O255 O 0.44508 0.85216 0.37187 0.0
O256 O 0.57403 0.86652 0.40665 0.0
C257 C 0.34495 0.09925 0.464 0.0
O258 O 0.48705 0.12036 0.36398 0.0
O259 O 0.43717 1.0037 0.32221 0.0
C260 C 0.66729 1.02839 0.45625 0.0
O261 O 0.41815 0.12259 0.47764 0.0
O262 O 0.33227 0.0514 0.41631 0.0
C263 C 0.37351 0.86041 0.50299 0.0
Fe264 Fe 0.15655 0.27182 0.47233 0.0
Fe265 Fe 0.33907 0.29745 0.50893 0.0
O266 O 0.23482 0.331 0.51321 0.0
Fe267 Fe 0.20556 0.41898 0.55944 0.0
O268 O 0.16091 0.47139 0.49048 0.0
O269 O 0.08548 0.36446 0.46152 0.0
O270 O 0.19734 0.30131 0.39847 0.0
C271 C 0.27221 0.2868 0.38457 0.0
C272 C 0.0772 0.29083 0.58156 0.0
O273 O 0.32773 0.26821 0.42539 0.0
C274 C 0.32856 0.34873 0.63892 0.0
O275 O 0.21454 0.16947 0.46728 0.0
O276 O 0.3054 0.19665 0.53899 0.0
O277 O 0.10211 0.36829 0.58272 0.0
O278 O 0.11633 0.23929 0.54793 0.0
C279 C 0.34923 0.46831 0.49061 0.0
O280 O 0.37019 0.32617 0.59065 0.0
O281 O 0.2536 0.37616 0.6324 0.0
C282 C 0.27813 0.14595 0.49833 0.0
O283 O 0.37255 0.39509 0.47699 0.0
O284 O 0.30139 0.48104 0.53828 0.0
C285 C 0.11039 0.43986 0.4516 0.0
Fe286 Fe 1.01579 0.08923 0.25891 0.0
Fe287 Fe 0.89436 0.95559 0.30947 0.0
O288 O 0.9823 0.98493 0.26321 0.0
Fe289 Fe 0.0415 0.90668 0.22236 0.0
O290 O 1.01202 0.94743 0.14848 0.0
O291 O 0.04506 0.07789 0.17538 0.0
O292 O 0.91814 0.12259 0.22696 0.0
C293 C 0.84495 0.09923 0.24062 0.0
C294 C 0.16729 1.0284 0.24835 0.0
O295 O 0.83227 0.05139 0.28831 0.0
C296 C 1.02254 0.82732 0.33159 0.0
O297 O 0.98704 0.12036 0.34062 0.0
O298 O 0.93718 1.00369 0.38241 0.0
O299 O 0.1438 0.96476 0.21732 0.0
O300 O 0.11658 0.05568 0.28898 0.0
C301 C 0.87351 0.8604 0.20162 0.0
O302 O 0.94508 0.85216 0.33274 0.0
O303 O 0.07403 0.86652 0.29796 0.0
C304 C 0.96455 0.0787 0.38891 0.0
O305 O 0.84197 0.91088 0.24051 0.0
O306 O 0.9489 0.83553 0.21155 0.0
C307 C 1.02655 1.02232 0.13456 0.0
Fe308 Fe 0.35772 0.64455 1.05944 0.0
Fe309 Fe 0.40673 0.79172 0.97233 0.0
O310 O 0.32846 0.73254 1.01321 0.0
Fe311 Fe 0.22421 0.76609 1.00893 0.0
O312 O 0.19074 0.66844 0.97699 0.0
O313 O 0.26189 0.5825 1.03828 0.0
O314 O 0.40237 0.59214 0.99048 0.0
C315 C 0.45289 0.62367 0.9516 0.0
C316 C 0.23473 0.7148 0.13892 0.0
O317 O 0.4778 0.69907 0.96152 0.0
C318 C 0.28515 0.91759 0.99833 0.0
O319 O 0.46117 0.69524 1.08272 0.0
O320 O 0.44695 0.82424 1.04793 0.0
O321 O 0.19309 0.73736 1.09065 0.0
O322 O 0.30968 0.68738 0.1324 0.0
C323 C 0.29107 0.77673 0.88457 0.0
O324 O 0.34874 0.89407 0.96728 0.0
O325 O 0.25788 0.86688 1.03899 0.0
C326 C 0.48609 0.7727 1.08156 0.0
O327 O 0.36594 0.76222 0.89847 0.0
O328 O 0.23555 0.79532 0.92539 0.0
C329 C 0.21405 0.59522 0.99061 0.0
Fe330 Fe 0.52178 0.15685 0.72236 0.0
Fe331 Fe 0.54749 0.9743 0.75891 0.0
O332 O 0.58098 0.0786 0.76321 0.0
Fe333 Fe 0.66892 0.10794 0.80947 0.0
O334 O 0.72132 0.15265 0.74051 0.0
O335 O 0.61439 0.228 0.71155 0.0
O336 O 0.55127 0.1161 0.64848 0.0
C337 C 0.53674 0.04121 0.63456 0.0
C338 C 0.54074 0.23621 0.83159 0.0
O339 O 0.51823 0.98564 0.67538 0.0
C340 C 0.59874 0.98483 0.88891 0.0
O341 O 0.41949 0.09877 0.71732 0.0
O342 O 0.44671 1.00785 0.78898 0.0
O343 O 0.6182 0.21138 0.83274 0.0
O344 O 0.48925 0.19702 0.79796 0.0
C345 C 0.71833 0.9643 0.74062 0.0
O346 O 0.57624 0.94317 0.84062 0.0
O347 O 0.62611 0.05984 0.88241 0.0
C348 C 0.39599 0.03514 0.74835 0.0
O349 O 0.64514 0.94095 0.72696 0.0
O350 O 0.73101 1.01214 0.78831 0.0
C351 C 0.68977 0.20313 0.70162 0.0
loop_
_geom_bond_atom_site_label_1
_geom_bond_atom_site_label_2
_geom_bond_distance
_geom_bond_site_symmetry_2
_ccdc_geom_bond_type
Fe0 O2 1.918 . S
Fe0 O5 1.997 . S
Fe0 O6 2.002 . S
Fe0 O11 1.976 . S
Fe0 O14 1.996 . S
Fe1 O2 1.918 . S
Fe1 O9 1.997 . S
Fe1 O12 1.996 . S
Fe1 O16 1.976 . S
Fe1 O19 2.002 . S
O2 Fe0 1.918 . S
O2 Fe1 1.918 . S
O2 Fe3 1.918 . S
Fe3 O2 1.918 . S
Fe3 O4 2.002 . S
Fe3 O13 1.976 . S
Fe3 O17 1.996 . S
Fe3 O20 1.997 . S
O4 Fe3 2.002 . S
O4 C21 1.295 . S
O5 Fe0 1.997 . S
O5 C21 1.235 . S
O6 Fe0 2.002 . S
O6 C7 1.295 . S
C7 O6 1.295 . S
C7 O9 1.235 . S
C8 O13 1.287 . S
C8 O14 1.255 . S
O9 Fe1 1.997 . S
O9 C7 1.235 . S
C10 O16 1.287 . S
C10 O17 1.255 . S
O11 Fe0 1.976 . S
O11 C18 1.287 . S
O12 Fe1 1.996 . S
O12 C18 1.255 . S
O13 Fe3 1.976 . S
O13 C8 1.287 . S
O14 Fe0 1.996 . S
O14 C8 1.255 . S
C15 O19 1.295 . S
C15 O20 1.235 . S
O16 Fe1 1.976 . S
O16 C10 1.287 . S
O17 Fe3 1.996 . S
O17 C10 1.255 . S
C18 O11 1.287 . S
C18 O12 1.255 . S
O19 Fe1 2.002 . S
O19 C15 1.295 . S
O20 Fe3 1.997 . S
O20 C15 1.235 . S
C21 O4 1.295 . S
C21 O5 1.235 . S
Fe22 O24 1.918 . S
Fe22 O27 1.997 . S
Fe22 O28 2.002 . S
Fe22 O33 1.976 . S
Fe22 O36 1.996 . S
Fe23 O24 1.918 . S
Fe23 O31 1.997 . S
Fe23 O34 1.996 . S
Fe23 O38 1.976 . S
Fe23 O41 2.002 . S
O24 Fe22 1.918 . S
O24 Fe23 1.918 . S
O24 Fe25 1.918 . S
Fe25 O24 1.918 . S
Fe25 O26 2.002 . S
Fe25 O35 1.976 . S
Fe25 O39 1.996 . S
Fe25 O42 1.997 . S
O26 Fe25 2.002 . S
O26 C43 1.295 . S
O27 Fe22 1.997 . S
O27 C43 1.235 . S
O28 Fe22 2.002 . S
O28 C29 1.295 . S
C29 O28 1.295 . S
C29 O31 1.235 . S
C30 O35 1.287 . S
C30 O36 1.255 . S
O31 Fe23 1.997 . S
O31 C29 1.235 . S
C32 O38 1.287 . S
C32 O39 1.255 . S
O33 Fe22 1.976 . S
O33 C40 1.287 . S
O34 Fe23 1.996 . S
O34 C40 1.255 . S
O35 Fe25 1.976 . S
O35 C30 1.287 . S
O36 Fe22 1.996 . S
O36 C30 1.255 . S
C37 O41 1.295 . S
C37 O42 1.235 . S
O38 Fe23 1.976 . S
O38 C32 1.287 . S
O39 Fe25 1.996 . S
O39 C32 1.255 . S
C40 O33 1.287 . S
C40 O34 1.255 . S
O41 Fe23 2.002 . S
O41 C37 1.295 . S
O42 Fe25 1.997 . S
O42 C37 1.235 . S
C43 O26 1.295 . S
C43 O27 1.235 . S
Fe44 O46 1.918 . S
Fe44 O49 1.997 . S
Fe44 O50 2.002 . S
Fe44 O55 1.976 . S
Fe44 O58 1.996 . S
Fe45 O46 1.918 . S
Fe45 O53 1.997 . S
Fe45 O56 1.996 . S
Fe45 O60 1.976 . S
Fe45 O63 2.002 . S
O46 Fe44 1.918 . S
O46 Fe45 1.918 . S
O46 Fe47 1.918 . S
Fe47 O46 1.918 . S
Fe47 O48 2.002 . S
Fe47 O57 1.976 . S
Fe47 O61 1.996 . S
Fe47 O64 1.997 . S
O48 Fe47 2.002 . S
O48 C65 1.295 . S
O49 Fe44 1.997 . S
O49 C65 1.235 . S
O50 Fe44 2.002 . S
O50 C51 1.295 . S
C51 O50 1.295 . S
C51 O53 1.235 . S
C52 O57 1.287 . S
C52 O58 1.255 . S
O53 Fe45 1.997 . S
O53 C51 1.235 . S
C54 O60 1.287 . S
C54 O61 1.255 . S
O55 Fe44 1.976 . S
O55 C62 1.287 . S
O56 Fe45 1.996 . S
O56 C62 1.255 . S
O57 Fe47 1.976 . S
O57 C52 1.287 . S
O58 Fe44 1.996 . S
O58 C52 1.255 . S
C59 O63 1.295 . S
C59 O64 1.235 . S
O60 Fe45 1.976 . S
O60 C54 1.287 . S
O61 Fe47 1.996 . S
O61 C54 1.255 . S
C62 O55 1.287 . S
C62 O56 1.255 . S
O63 Fe45 2.002 . S
O63 C59 1.295 . S
O64 Fe47 1.997 . S
O64 C59 1.235 . S
C65 O48 1.295 . S
C65 O49 1.235 . S
Fe66 O68 1.918 . S
Fe66 O71 1.997 . S
Fe66 O72 2.002 1_655 S
Fe66 O77 1.976 1_655 S
Fe66 O80 1.996 . S
Fe67 O68 1.918 . S
Fe67 O75 1.997 . S
Fe67 O78 1.996 1_655 S
Fe67 O82 1.976 . S
Fe67 O85 2.002 . S
O68 Fe66 1.918 . S
O68 Fe67 1.918 . S
O68 Fe69 1.918 . S
Fe69 O68 1.918 . S
Fe69 O70 2.002 . S
Fe69 O79 1.976 . S
Fe69 O83 1.996 . S
Fe69 O86 1.997 . S
O70 Fe69 2.002 . S
O70 C87 1.295 . S
O71 Fe66 1.997 . S
O71 C87 1.235 . S
O72 Fe66 2.002 1_455 S
O72 C73 1.295 1_455 S
C73 O72 1.295 1_655 S
C73 O75 1.235 . S
C74 O79 1.287 . S
C74 O80 1.255 . S
O75 Fe67 1.997 . S
O75 C73 1.235 . S
C76 O82 1.287 . S
C76 O83 1.255 . S
O77 Fe66 1.976 1_455 S
O77 C84 1.287 . S
O78 Fe67 1.996 1_455 S
O78 C84 1.255 . S
O79 Fe69 1.976 . S
O79 C74 1.287 . S
O80 Fe66 1.996 . S
O80 C74 1.255 . S
C81 O85 1.295 . S
C81 O86 1.235 . S
O82 Fe67 1.976 . S
O82 C76 1.287 . S
O83 Fe69 1.996 . S
O83 C76 1.255 . S
C84 O77 1.287 . S
C84 O78 1.255 . S
O85 Fe67 2.002 . S
O85 C81 1.295 . S
O86 Fe69 1.997 . S
O86 C81 1.235 . S
C87 O70 1.295 . S
C87 O71 1.235 . S
Fe88 O90 1.918 . S
Fe88 O93 1.997 . S
Fe88 O94 2.002 . S
Fe88 O99 1.976 . S
Fe88 O102 1.996 . S
Fe89 O90 1.918 . S
Fe89 O97 1.997 . S
Fe89 O100 1.996 . S
Fe89 O104 1.976 . S
Fe89 O107 2.002 . S
O90 Fe88 1.918 . S
O90 Fe89 1.918 . S
O90 Fe91 1.918 . S
Fe91 O90 1.918 . S
Fe91 O92 2.002 . S
Fe91 O101 1.976 . S
Fe91 O105 1.996 . S
Fe91 O108 1.997 . S
O92 Fe91 2.002 . S
O92 C109 1.295 . S
O93 Fe88 1.997 . S
O93 C109 1.235 . S
O94 Fe88 2.002 . S
O94 C95 1.295 . S
C95 O94 1.295 . S
C95 O97 1.235 . S
C96 O101 1.287 . S
C96 O102 1.255 . S
O97 Fe89 1.997 . S
O97 C95 1.235 . S
C98 O104 1.287 . S
C98 O105 1.255 . S
O99 Fe88 1.976 . S
O99 C106 1.287 . S
O100 Fe89 1.996 . S
O100 C106 1.255 . S
O101 Fe91 1.976 . S
O101 C96 1.287 . S
O102 Fe88 1.996 . S
O102 C96 1.255 . S
C103 O107 1.295 . S
C103 O108 1.235 . S
O104 Fe89 1.976 . S
O104 C98 1.287 . S
O105 Fe91 1.996 . S
O105 C98 1.255 . S
C106 O99 1.287 . S
C106 O100 1.255 . S
O107 Fe89 2.002 . S
O107 C103 1.295 . S
O108 Fe91 1.997 . S
O108 C103 1.235 . S
C109 O92 1.295 . S
C109 O93 1.235 . S
Fe110 O112 1.918 . S
Fe110 O115 1.997 . S
Fe110 O116 2.002 . S
Fe110 O121 1.976 . S
Fe110 O124 1.996 . S
Fe111 O112 1.918 . S
Fe111 O119 1.997 . S
Fe111 O122 1.996 . S
Fe111 O126 1.976 . S
Fe111 O129 2.002 . S
O112 Fe110 1.918 . S
O112 Fe111 1.918 . S
O112 Fe113 1.918 . S
Fe113 O112 1.918 . S
Fe113 O114 2.002 . S
Fe113 O123 1.976 . S
Fe113 O127 1.996 . S
Fe113 O130 1.997 . S
O114 Fe113 2.002 . S
O114 C131 1.295 . S
O115 Fe110 1.997 . S
O115 C131 1.235 . S
O116 Fe110 2.002 . S
O116 C117 1.295 . S
C117 O116 1.295 . S
C117 O119 1.235 . S
C118 O123 1.287 . S
C118 O124 1.255 . S
O119 Fe111 1.997 . S
O119 C117 1.235 . S
C120 O126 1.287 . S
C120 O127 1.255 . S
O121 Fe110 1.976 . S
O121 C128 1.287 . S
O122 Fe111 1.996 . S
O122 C128 1.255 . S
O123 Fe113 1.976 . S
O123 C118 1.287 . S
O124 Fe110 1.996 . S
O124 C118 1.255 . S
C125 O129 1.295 . S
C125 O130 1.235 . S
O126 Fe111 1.976 . S
O126 C120 1.287 . S
O127 Fe113 1.996 . S
O127 C120 1.255 . S
C128 O121 1.287 . S
C128 O122 1.255 . S
O129 Fe111 2.002 . S
O129 C125 1.295 . S
O130 Fe113 1.997 . S
O130 C125 1.235 . S
C131 O114 1.295 . S
C131 O115 1.235 . S
Fe132 O134 1.918 . S
Fe132 O137 1.997 . S
Fe132 O138 2.002 . S
Fe132 O143 1.976 . S
Fe132 O146 1.996 . S
Fe133 O134 1.918 . S
Fe133 O141 1.997 . S
Fe133 O144 1.996 . S
Fe133 O148 1.976 . S
Fe133 O151 2.002 . S
O134 Fe132 1.918 . S
O134 Fe133 1.918 . S
O134 Fe135 1.918 . S
Fe135 O134 1.918 . S
Fe135 O136 2.002 . S
Fe135 O145 1.976 . S
Fe135 O149 1.996 . S
Fe135 O152 1.997 . S
O136 Fe135 2.002 . S
O136 C153 1.295 . S
O137 Fe132 1.997 . S
O137 C153 1.235 . S
O138 Fe132 2.002 . S
O138 C139 1.295 . S
C139 O138 1.295 . S
C139 O141 1.235 . S
C140 O145 1.287 . S
C140 O146 1.255 . S
O141 Fe133 1.997 . S
O141 C139 1.235 . S
C142 O148 1.287 . S
C142 O149 1.255 . S
O143 Fe132 1.976 . S
O143 C150 1.287 . S
O144 Fe133 1.996 . S
O144 C150 1.255 . S
O145 Fe135 1.976 . S
O145 C140 1.287 . S
O146 Fe132 1.996 . S
O146 C140 1.255 . S
C147 O151 1.295 . S
C147 O152 1.235 . S
O148 Fe133 1.976 . S
O148 C142 1.287 . S
O149 Fe135 1.996 . S
O149 C142 1.255 . S
C150 O143 1.287 . S
C150 O144 1.255 . S
O151 Fe133 2.002 . S
O151 C147 1.295 . S
O152 Fe135 1.997 . S
O152 C147 1.235 . S
C153 O136 1.295 . S
C153 O137 1.235 . S
Fe154 O156 1.918 . S
Fe154 O159 1.997 . S
Fe154 O160 2.002 . S
Fe154 O165 1.976 . S
Fe154 O168 1.996 1_455 S
Fe155 O156 1.918 . S
Fe155 O163 1.997 . S
Fe155 O166 1.996 . S
Fe155 O170 1.976 . S
Fe155 O173 2.002 . S
O156 Fe154 1.918 . S
O156 Fe155 1.918 . S
O156 Fe157 1.918 . S
Fe157 O156 1.918 . S
Fe157 O158 2.002 1_455 S
Fe157 O167 1.976 1_455 S
Fe157 O171 1.996 . S
Fe157 O174 1.997 . S
O158 Fe157 2.002 1_655 S
O158 C175 1.295 1_655 S
O159 Fe154 1.997 . S
O159 C175 1.235 . S
O160 Fe154 2.002 . S
O160 C161 1.295 . S
C161 O160 1.295 . S
C161 O163 1.235 . S
C162 O167 1.287 . S
C162 O168 1.255 . S
O163 Fe155 1.997 . S
O163 C161 1.235 . S
C164 O170 1.287 . S
C164 O171 1.255 . S
O165 Fe154 1.976 . S
O165 C172 1.287 . S
O166 Fe155 1.996 . S
O166 C172 1.255 . S
O167 Fe157 1.976 1_655 S
O167 C162 1.287 . S
O168 Fe154 1.996 1_655 S
O168 C162 1.255 . S
C169 O173 1.295 . S
C169 O174 1.235 . S
O170 Fe155 1.976 . S
O170 C164 1.287 . S
O171 Fe157 1.996 . S
O171 C164 1.255 . S
C172 O165 1.287 . S
C172 O166 1.255 . S
O173 Fe155 2.002 . S
O173 C169 1.295 . S
O174 Fe157 1.997 . S
O174 C169 1.235 . S
C175 O158 1.295 1_455 S
C175 O159 1.235 . S
Fe176 O178 1.918 . S
Fe176 O181 1.997 . S
Fe176 O182 2.002 . S
Fe176 O187 1.976 . S
Fe176 O190 1.996 . S
Fe177 O178 1.918 . S
Fe177 O185 1.997 . S
Fe177 O188 1.996 . S
Fe177 O192 1.976 . S
Fe177 O195 2.002 . S
O178 Fe176 1.918 . S
O178 Fe177 1.918 . S
O178 Fe179 1.918 . S
Fe179 O178 1.918 . S
Fe179 O180 2.002 . S
Fe179 O189 1.976 . S
Fe179 O193 1.996 . S
Fe179 O196 1.997 . S
O180 Fe179 2.002 . S
O180 C197 1.295 . S
O181 Fe176 1.997 . S
O181 C197 1.235 . S
O182 Fe176 2.002 . S
O182 C183 1.295 . S
C183 O182 1.295 . S
C183 O185 1.235 . S
C184 O189 1.287 . S
C184 O190 1.255 . S
O185 Fe177 1.997 . S
O185 C183 1.235 . S
C186 O192 1.287 . S
C186 O193 1.255 . S
O187 Fe176 1.976 . S
O187 C194 1.287 . S
O188 Fe177 1.996 . S
O188 C194 1.255 . S
O189 Fe179 1.976 . S
O189 C184 1.287 . S
O190 Fe176 1.996 . S
O190 C184 1.255 . S
C191 O195 1.295 . S
C191 O196 1.235 . S
O192 Fe177 1.976 . S
O192 C186 1.287 . S
O193 Fe179 1.996 . S
O193 C186 1.255 . S
C194 O187 1.287 . S
C194 O188 1.255 . S
O195 Fe177 2.002 . S
O195 C191 1.295 . S
O196 Fe179 1.997 . S
O196 C191 1.235 . S
C197 O180 1.295 . S
C197 O181 1.235 . S
Fe198 O200 1.918 1_565 S
Fe198 O203 1.997 . S
Fe198 O204 2.002 . S
Fe198 O209 1.976 . S
Fe198 O212 1.996 1_455 S
Fe199 O200 1.918 . S
Fe199 O207 1.997 . S
Fe199 O210 1.996 . S
Fe199 O214 1.976 . S
Fe199 O217 2.002 . S
O200 Fe198 1.918 1_545 S
O200 Fe199 1.918 . S
O200 Fe201 1.918 . S
Fe201 O200 1.918 . S
Fe201 O202 2.002 1_455 S
Fe201 O211 1.976 1_455 S
Fe201 O215 1.996 . S
Fe201 O218 1.997 . S
O202 Fe201 2.002 1_655 S
O202 C219 1.295 1_645 S
O203 Fe198 1.997 . S
O203 C219 1.235 . S
O204 Fe198 2.002 . S
O204 C205 1.295 . S
C205 O204 1.295 . S
C205 O207 1.235 1_565 S
C206 O211 1.287 . S
C206 O212 1.255 1_545 S
O207 Fe199 1.997 . S
O207 C205 1.235 1_545 S
C208 O214 1.287 . S
C208 O215 1.255 . S
O209 Fe198 1.976 . S
O209 C216 1.287 1_565 S
O210 Fe199 1.996 . S
O210 C216 1.255 . S
O211 Fe201 1.976 1_655 S
O211 C206 1.287 . S
O212 Fe198 1.996 1_655 S
O212 C206 1.255 1_565 S
C213 O217 1.295 . S
C213 O218 1.235 . S
O214 Fe199 1.976 . S
O214 C208 1.287 . S
O215 Fe201 1.996 . S
O215 C208 1.255 . S
C216 O209 1.287 1_545 S
C216 O210 1.255 . S
O217 Fe199 2.002 . S
O217 C213 1.295 . S
O218 Fe201 1.997 . S
O218 C213 1.235 . S
C219 O202 1.295 1_465 S
C219 O203 1.235 . S
Fe220 O222 1.918 . S
Fe220 O225 1.997 . S
Fe220 O226 2.002 . S
Fe220 O231 1.976 . S
Fe220 O234 1.996 . S
Fe221 O222 1.918 . S
Fe221 O229 1.997 . S
Fe221 O232 1.996 . S
Fe221 O236 1.976 . S
Fe221 O239 2.002 . S
O222 Fe220 1.918 . S
O222 Fe221 1.918 . S
O222 Fe223 1.918 . S
Fe223 O222 1.918 . S
Fe223 O224 2.002 . S
Fe223 O233 1.976 . S
Fe223 O237 1.996 . S
Fe223 O240 1.997 . S
O224 Fe223 2.002 . S
O224 C241 1.295 . S
O225 Fe220 1.997 . S
O225 C241 1.235 . S
O226 Fe220 2.002 . S
O226 C227 1.295 . S
C227 O226 1.295 . S
C227 O229 1.235 . S
C228 O233 1.287 . S
C228 O234 1.255 . S
O229 Fe221 1.997 . S
O229 C227 1.235 . S
C230 O236 1.287 . S
C230 O237 1.255 . S
O231 Fe220 1.976 . S
O231 C238 1.287 . S
O232 Fe221 1.996 . S
O232 C238 1.255 . S
O233 Fe223 1.976 . S
O233 C228 1.287 . S
O234 Fe220 1.996 . S
O234 C228 1.255 . S
C235 O239 1.295 . S
C235 O240 1.235 . S
O236 Fe221 1.976 . S
O236 C230 1.287 . S
O237 Fe223 1.996 . S
O237 C230 1.255 . S
C238 O231 1.287 . S
C238 O232 1.255 . S
O239 Fe221 2.002 . S
O239 C235 1.295 . S
O240 Fe223 1.997 . S
O240 C235 1.235 . S
C241 O224 1.295 . S
C241 O225 1.235 . S
Fe242 O244 1.918 . S
Fe242 O247 1.997 . S
Fe242 O248 2.002 . S
Fe242 O253 1.976 . S
Fe242 O256 1.996 . S
Fe243 O244 1.918 1_545 S
Fe243 O251 1.997 . S
Fe243 O254 1.996 . S
Fe243 O258 1.976 . S
Fe243 O261 2.002 . S
O244 Fe242 1.918 . S
O244 Fe243 1.918 1_565 S
O244 Fe245 1.918 . S
Fe245 O244 1.918 . S
Fe245 O246 2.002 . S
Fe245 O255 1.976 . S
Fe245 O259 1.996 . S
Fe245 O262 1.997 . S
O246 Fe245 2.002 . S
O246 C263 1.295 . S
O247 Fe242 1.997 . S
O247 C263 1.235 . S
O248 Fe242 2.002 . S
O248 C249 1.295 1_565 S
C249 O248 1.295 1_545 S
C249 O251 1.235 . S
C250 O255 1.287 . S
C250 O256 1.255 . S
O251 Fe243 1.997 . S
O251 C249 1.235 . S
C252 O258 1.287 1_565 S
C252 O259 1.255 . S
O253 Fe242 1.976 . S
O253 C260 1.287 . S
O254 Fe243 1.996 . S
O254 C260 1.255 1_545 S
O255 Fe245 1.976 . S
O255 C250 1.287 . S
O256 Fe242 1.996 . S
O256 C250 1.255 . S
C257 O261 1.295 . S
C257 O262 1.235 1_545 S
O258 Fe243 1.976 . S
O258 C252 1.287 1_545 S
O259 Fe245 1.996 . S
O259 C252 1.255 . S
C260 O253 1.287 . S
C260 O254 1.255 1_565 S
O261 Fe243 2.002 . S
O261 C257 1.295 . S
O262 Fe245 1.997 . S
O262 C257 1.235 1_565 S
C263 O246 1.295 . S
C263 O247 1.235 . S
Fe264 O266 1.918 . S
Fe264 O269 1.997 . S
Fe264 O270 2.002 . S
Fe264 O275 1.976 . S
Fe264 O278 1.996 . S
Fe265 O266 1.918 . S
Fe265 O273 1.997 . S
Fe265 O276 1.996 . S
Fe265 O280 1.976 . S
Fe265 O283 2.002 . S
O266 Fe264 1.918 . S
O266 Fe265 1.918 . S
O266 Fe267 1.918 . S
Fe267 O266 1.918 . S
Fe267 O268 2.002 . S
Fe267 O277 1.976 . S
Fe267 O281 1.996 . S
Fe267 O284 1.997 . S
O268 Fe267 2.002 . S
O268 C285 1.295 . S
O269 Fe264 1.997 . S
O269 C285 1.235 . S
O270 Fe264 2.002 . S
O270 C271 1.295 . S
C271 O270 1.295 . S
C271 O273 1.235 . S
C272 O277 1.287 . S
C272 O278 1.255 . S
O273 Fe265 1.997 . S
O273 C271 1.235 . S
C274 O280 1.287 . S
C274 O281 1.255 . S
O275 Fe264 1.976 . S
O275 C282 1.287 . S
O276 Fe265 1.996 . S
O276 C282 1.255 . S
O277 Fe267 1.976 . S
O277 C272 1.287 . S
O278 Fe264 1.996 . S
O278 C272 1.255 . S
C279 O283 1.295 . S
C279 O284 1.235 . S
O280 Fe265 1.976 . S
O280 C274 1.287 . S
O281 Fe267 1.996 . S
O281 C274 1.255 . S
C282 O275 1.287 . S
C282 O276 1.255 . S
O283 Fe265 2.002 . S
O283 C279 1.295 . S
O284 Fe267 1.997 . S
O284 C279 1.235 . S
C285 O268 1.295 . S
C285 O269 1.235 . S
Fe286 O288 1.918 1_545 S
Fe286 O291 1.997 . S
Fe286 O292 2.002 . S
Fe286 O297 1.976 . S
Fe286 O300 1.996 1_655 S
Fe287 O288 1.918 . S
Fe287 O295 1.997 . S
Fe287 O298 1.996 . S
Fe287 O302 1.976 . S
Fe287 O305 2.002 . S
O288 Fe286 1.918 1_565 S
O288 Fe287 1.918 . S
O288 Fe289 1.918 . S
Fe289 O288 1.918 . S
Fe289 O290 2.002 1_655 S
Fe289 O299 1.976 1_655 S
Fe289 O303 1.996 . S
Fe289 O306 1.997 . S
O290 Fe289 2.002 1_455 S
O290 C307 1.295 1_465 S
O291 Fe286 1.997 . S
O291 C307 1.235 . S
O292 Fe286 2.002 . S
O292 C293 1.295 . S
C293 O292 1.295 . S
C293 O295 1.235 1_545 S
C294 O299 1.287 . S
C294 O300 1.255 1_565 S
O295 Fe287 1.997 . S
O295 C293 1.235 1_565 S
C296 O302 1.287 . S
C296 O303 1.255 . S
O297 Fe286 1.976 . S
O297 C304 1.287 1_545 S
O298 Fe287 1.996 . S
O298 C304 1.255 . S
O299 Fe289 1.976 1_455 S
O299 C294 1.287 . S
O300 Fe286 1.996 1_455 S
O300 C294 1.255 1_545 S
C301 O305 1.295 . S
C301 O306 1.235 . S
O302 Fe287 1.976 . S
O302 C296 1.287 . S
O303 Fe289 1.996 . S
O303 C296 1.255 . S
C304 O297 1.287 1_565 S
C304 O298 1.255 . S
O305 Fe287 2.002 . S
O305 C301 1.295 . S
O306 Fe289 1.997 . S
O306 C301 1.235 . S
C307 O290 1.295 1_645 S
C307 O291 1.235 . S
Fe308 O310 1.918 . S
Fe308 O313 1.997 . S
Fe308 O314 2.002 . S
Fe308 O319 1.976 . S
Fe308 O322 1.996 . S
Fe309 O310 1.918 . S
Fe309 O317 1.997 . S
Fe309 O320 1.996 . S
Fe309 O324 1.976 . S
Fe309 O327 2.002 . S
O310 Fe308 1.918 . S
O310 Fe309 1.918 . S
O310 Fe311 1.918 . S
Fe311 O310 1.918 . S
Fe311 O312 2.002 . S
Fe311 O321 1.976 . S
Fe311 O325 1.996 . S
Fe311 O328 1.997 . S
O312 Fe311 2.002 . S
O312 C329 1.295 . S
O313 Fe308 1.997 . S
O313 C329 1.235 . S
O314 Fe308 2.002 . S
O314 C315 1.295 . S
C315 O314 1.295 . S
C315 O317 1.235 . S
C316 O321 1.287 . S
C316 O322 1.255 . S
O317 Fe309 1.997 . S
O317 C315 1.235 . S
C318 O324 1.287 . S
C318 O325 1.255 . S
O319 Fe308 1.976 . S
O319 C326 1.287 . S
O320 Fe309 1.996 . S
O320 C326 1.255 . S
O321 Fe311 1.976 . S
O321 C316 1.287 . S
O322 Fe308 1.996 . S
O322 C316 1.255 . S
C323 O327 1.295 . S
C323 O328 1.235 . S
O324 Fe309 1.976 . S
O324 C318 1.287 . S
O325 Fe311 1.996 . S
O325 C318 1.255 . S
C326 O319 1.287 . S
C326 O320 1.255 . S
O327 Fe309 2.002 . S
O327 C323 1.295 . S
O328 Fe311 1.997 . S
O328 C323 1.235 . S
C329 O312 1.295 . S
C329 O313 1.235 . S
Fe330 O332 1.918 . S
Fe330 O335 1.997 . S
Fe330 O336 2.002 . S
Fe330 O341 1.976 . S
Fe330 O344 1.996 . S
Fe331 O332 1.918 1_565 S
Fe331 O339 1.997 . S
Fe331 O342 1.996 . S
Fe331 O346 1.976 . S
Fe331 O349 2.002 . S
O332 Fe330 1.918 . S
O332 Fe331 1.918 1_545 S
O332 Fe333 1.918 . S
Fe333 O332 1.918 . S
Fe333 O334 2.002 . S
Fe333 O343 1.976 . S
Fe333 O347 1.996 . S
Fe333 O350 1.997 . S
O334 Fe333 2.002 . S
O334 C351 1.295 . S
O335 Fe330 1.997 . S
O335 C351 1.235 . S
O336 Fe330 2.002 . S
O336 C337 1.295 1_545 S
C337 O336 1.295 1_565 S
C337 O339 1.235 . S
C338 O343 1.287 . S
C338 O344 1.255 . S
O339 Fe331 1.997 . S
O339 C337 1.235 . S
C340 O346 1.287 1_545 S
C340 O347 1.255 . S
O341 Fe330 1.976 . S
O341 C348 1.287 . S
O342 Fe331 1.996 . S
O342 C348 1.255 1_565 S
O343 Fe333 1.976 . S
O343 C338 1.287 . S
O344 Fe330 1.996 . S
O344 C338 1.255 . S
C345 O349 1.295 . S
C345 O350 1.235 1_565 S
O346 Fe331 1.976 . S
O346 C340 1.287 1_565 S
O347 Fe333 1.996 . S
O347 C340 1.255 . S
C348 O341 1.287 . S
C348 O342 1.255 1_545 S
O349 Fe331 2.002 . S
O349 C345 1.295 . S
O350 Fe333 1.997 . S
O350 C345 1.235 1_545 S
C351 O334 1.295 . S
C351 O335 1.235 . S
C7 C271 1.622 . S
C125 C29 1.622 . S
C65 C323 1.622 . S
C73 C175 1.622 1_656 S
C95 C183 1.622 . S
C227 C147 1.622 . S
C307 C219 1.622 1_644 S
C249 C337 1.622 1_545 S
C213 C10 2.026 1_556 S
C32 C241 2.026 . S
C62 C263 2.026 . S
C197 C76 2.026 . S
C301 C98 2.026 1_554 S
C315 C118 2.026 . S
C140 C351 2.026 . S
C285 C172 2.026 . S
C186 C43 2.026 . S
C216 C59 2.026 1_545 S
C230 C87 2.026 1_554 S
C21 C252 2.026 1_545 S
C117 C274 2.026 . S
C304 C139 2.026 1_565 S
C169 C316 2.026 1_554 S
C340 C109 2.026 1_545 S
C8 C228 1.901 . S
C30 C250 1.901 . S
C184 C54 1.901 1_655 S
C74 C208 1.901 1_655 S
C96 C326 1.901 . S
C128 C338 1.901 . S
C272 C150 1.901 1_455 S
C164 C296 1.901 1_455 S
C18 C161 1.781 . S
C279 C40 1.781 . S
C52 C131 1.781 . S
C84 C329 1.781 . S
C106 C81 1.781 . S
C191 C120 1.781 . S
C142 C37 1.781 . S
C235 C162 1.781 . S
C194 C345 1.781 . S
C103 C206 1.781 1_565 S
C293 C238 1.781 . S
C260 C153 1.781 1_565 S
C282 C257 1.781 . S
C294 C15 1.781 1_565 S
C205 C318 1.781 . S
C51 C348 1.781 1_565 S
