# Generated by pormake.
# Topology rob, (6)-cn, num edge types: 1
# Building blocks:
#     Node 0, Type 0, BuildingBlock: NUHQIS_clean_sbu_0, # of connection points: 6
#     Node 1, Type 0, BuildingBlock: NUHQIS_clean_sbu_0, # of connection points: 6
#     Node 2, Type 0, BuildingBlock: NUHQIS_clean_sbu_0, # of connection points: 6
#     Node 3, Type 0, BuildingBlock: NUHQIS_clean_sbu_0, # of connection points: 6
#     Edge 4, Type (0, 0), BuildingBlock: TEMPAE_clean_linker_10, # of connection points: 2
#     Edge 5, Type (0, 0), BuildingBlock: TEMPAE_clean_linker_10, # of connection points: 2
#     Edge 6, Type (0, 0), BuildingBlock: TEMPAE_clean_linker_10, # of connection points: 2
#     Edge 7, Type (0, 0), BuildingBlock: TEMPAE_clean_linker_10, # of connection points: 2
#     Edge 8, Type (0, 0), BuildingBlock: TEMPAE_clean_linker_10, # of connection points: 2
#     Edge 9, Type (0, 0), BuildingBlock: TEMPAE_clean_linker_10, # of connection points: 2
#     Edge 10, Type (0, 0), BuildingBlock: TEMPAE_clean_linker_10, # of connection points: 2
#     Edge 11, Type (0, 0), BuildingBlock: TEMPAE_clean_linker_10, # of connection points: 2
#     Edge 12, Type (0, 0), BuildingBlock: TEMPAE_clean_linker_10, # of connection points: 2
#     Edge 13, Type (0, 0), BuildingBlock: TEMPAE_clean_linker_10, # of connection points: 2
#     Edge 14, Type (0, 0), BuildingBlock: TEMPAE_clean_linker_10, # of connection points: 2
#     Edge 15, Type (0, 0), BuildingBlock: TEMPAE_clean_linker_10, # of connection points: 2
# Relax obj value: 0.031
# Max RMSD: 0.132
# Mean RMSD: 0.132
data_MOF--net-rob--node1-NUHQIS_clean_sbu_0--edge1-TEMPAE_clean_linker_10
_symmetry_space_group_name_H-M    P1
_symmetry_Int_Tables_number       1
_symmetry_cell_setting            triclinic
loop_
_symmetry_equiv_pos_as_xyz
'x, y, z'
_cell_length_a     16.045623
_cell_length_b     26.250053
_cell_length_c     36.633619
_cell_angle_alpha  94.679665
_cell_angle_beta   90.124229
_cell_angle_gamma 90.001992
loop_
_atom_site_label
_atom_site_type_symbol
_atom_site_fract_x
_atom_site_fract_y
_atom_site_fract_z
_atom_type_partial_charge
Tb0 Tb 0.16216 0.26645 0.04433 0.0
Eu1 Eu 0.31832 0.20704 0.99928 0.0
C2 C 0.32042 0.32555 1.02334 0.0
C3 C 0.16575 0.25839 0.95811 0.0
C4 C 0.02854 0.31644 0.12143 0.0
C5 C 0.93206 0.32648 0.17256 0.0
C6 C 0.94734 0.32383 0.13483 0.0
C7 C 0.09466 0.31346 0.14625 0.0
C8 C 0.07954 0.31571 0.18395 0.0
C9 C 0.99778 0.32127 0.19752 0.0
C10 C 0.04246 0.30565 0.08184 0.0
O11 O 0.1211 0.19212 1.02018 0.0
O12 O 0.24215 0.1482 0.02511 0.0
O13 O 0.36118 0.21293 0.05813 0.0
O14 O 0.23535 0.23327 0.08666 0.0
C15 C 0.16069 0.14911 0.0238 0.0
O16 O 0.36047 0.14317 0.96212 0.0
O17 O 0.44694 0.20367 0.97973 0.0
O18 O 0.33103 0.29158 0.9955 0.0
O19 O 0.26995 0.31667 0.05023 0.0
O20 O 0.14638 0.28711 0.98808 0.0
O21 O 0.21644 0.21922 0.9588 0.0
C22 C 0.31463 0.22021 0.08767 0.0
O23 O 0.09972 0.33234 0.06685 0.0
O24 O 0.04849 0.25731 0.07113 0.0
C25 C 0.45551 0.16842 0.91847 0.0
C26 C 0.49309 0.17514 0.84366 0.0
C27 C 0.5343 0.13951 0.86413 0.0
C28 C 0.5155 0.13614 0.90117 0.0
C29 C 0.41445 0.20417 0.89833 0.0
C30 C 0.4329 0.20746 0.86128 0.0
C31 C 0.43326 0.16353 0.95701 0.0
H32 H 0.86831 0.33025 0.18206 0.0
H33 H 0.89535 0.32568 0.11606 0.0
H34 H 0.15756 0.3078 0.13628 0.0
H35 H 0.1316 0.31213 0.20243 0.0
H36 H 0.58182 0.11455 0.85163 0.0
H37 H 0.54766 0.10825 0.91628 0.0
H38 H 0.36763 0.2293 0.91124 0.0
H39 H 0.39917 0.23487 0.84634 0.0
Tb40 Tb 0.66961 0.76785 0.0479 0.0
Eu41 Eu 0.82037 0.704 1.00303 0.0
C42 C 0.83062 0.8223 0.02405 0.0
C43 C 0.67125 0.75935 0.96203 0.0
C44 C 0.54059 0.81275 0.12684 0.0
C45 C 0.48611 0.8551 0.1833 0.0
C46 C 0.50252 0.85509 0.14575 0.0
C47 C 0.56294 0.77064 0.14605 0.0
C48 C 0.54654 0.77056 0.18346 0.0
C49 C 0.50762 0.8127 0.20261 0.0
C50 C 0.55843 0.81284 0.08738 0.0
O51 O 0.62098 0.694 0.0262 0.0
O52 O 0.73985 0.64667 0.02833 0.0
O53 O 0.86257 0.7122 0.06223 0.0
O54 O 0.73356 0.72644 0.08865 0.0
C55 C 0.65839 0.64985 0.02834 0.0
O56 O 0.85851 0.63911 0.96588 0.0
O57 O 0.94925 0.69676 0.98414 0.0
O58 O 0.83833 0.78744 0.99666 0.0
O59 O 0.78168 0.81471 0.05169 0.0
O60 O 0.65489 0.78912 0.99186 0.0
O61 O 0.71881 0.7187 0.96282 0.0
C62 C 0.81354 0.71621 0.09115 0.0
O63 O 0.62823 0.83413 0.07898 0.0
O64 O 0.54713 0.76958 0.06803 0.0
C65 C 0.95534 0.66296 0.92254 0.0
C66 C 0.99292 0.67125 0.84788 0.0
C67 C 0.03304 0.63452 0.86778 0.0
C68 C 0.0142 0.63035 0.90475 0.0
C69 C 0.91553 0.69984 0.90298 0.0
C70 C 0.93386 0.70386 0.86602 0.0
C71 C 0.9328 0.65753 0.96098 0.0
H72 H 0.45708 0.88845 0.19725 0.0
H73 H 0.48552 0.88814 0.13147 0.0
H74 H 0.59263 0.73754 0.13206 0.0
H75 H 0.56294 0.73695 0.1972 0.0
H76 H 0.07974 0.6093 0.85492 0.0
H77 H 0.04545 0.60162 0.91941 0.0
H78 H 0.86971 0.72531 0.9163 0.0
H79 H 0.90089 0.73211 0.85156 0.0
Tb80 Tb 0.18461 0.70506 0.50328 0.0
Eu81 Eu 0.33673 0.76772 0.54793 0.0
C82 C 0.34546 0.64942 0.5242 0.0
C83 C 0.19114 0.71242 0.58998 0.0
C84 C 0.0478 0.6653 0.42497 0.0
C85 C 0.01777 0.6253 0.36404 0.0
C86 C 0.03784 0.62133 0.40092 0.0
C87 C 0.03704 0.7135 0.41149 0.0
C88 C 0.01621 0.71751 0.37469 0.0
C89 C 0.00668 0.67347 0.35035 0.0
C90 C 0.07442 0.66026 0.46321 0.0
O91 O 0.16681 0.78596 0.4976 0.0
O92 O 0.21958 0.8148 0.55314 0.0
O93 O 0.34967 0.78896 0.48991 0.0
O94 O 0.27927 0.71945 0.46275 0.0
C95 C 0.17085 0.82102 0.52512 0.0
O96 O 0.38923 0.83729 0.57583 0.0
O97 O 0.45803 0.7664 0.57485 0.0
O98 O 0.38553 0.69271 0.52255 0.0
O99 O 0.26386 0.64868 0.52632 0.0
O100 O 0.14321 0.71118 0.56058 0.0
O101 O 0.27086 0.72311 0.58862 0.0
C102 C 0.32856 0.75922 0.46072 0.0
O103 O 0.14947 0.64248 0.46705 0.0
O104 O 0.0589 0.69867 0.48718 0.0
C105 C 0.46352 0.8198 0.62923 0.0
C106 C 0.48971 0.82169 0.70568 0.0
C107 C 0.55625 0.82996 0.6818 0.0
C108 C 0.54319 0.82902 0.64397 0.0
C109 C 0.39653 0.81247 0.65285 0.0
C110 C 0.4094 0.81359 0.69071 0.0
C111 C 0.45206 0.8133 0.58923 0.0
H112 H 0.01243 0.59054 0.34614 0.0
H113 H 0.04693 0.58378 0.41057 0.0
H114 H 0.04523 0.74818 0.42929 0.0
H115 H 0.007 0.75524 0.36544 0.0
H116 H 0.61916 0.83534 0.69215 0.0
H117 H 0.59581 0.83406 0.62613 0.0
H118 H 0.33455 0.80482 0.64195 0.0
H119 H 0.35653 0.80759 0.70818 0.0
Tb120 Tb 0.68272 0.20544 0.49861 0.0
Eu121 Eu 0.83818 0.26537 0.54277 0.0
C122 C 0.84414 0.14822 0.51696 0.0
C123 C 0.69154 0.21106 0.58509 0.0
C124 C 0.54521 0.1671 0.42089 0.0
C125 C 0.48966 0.12957 0.36302 0.0
C126 C 0.50917 0.12575 0.39997 0.0
C127 C 0.56176 0.21242 0.40433 0.0
C128 C 0.54177 0.21644 0.36747 0.0
C129 C 0.50561 0.17501 0.34621 0.0
C130 C 0.57084 0.1615 0.45904 0.0
O131 O 0.66523 0.28686 0.49496 0.0
O132 O 0.72238 0.3133 0.55018 0.0
O133 O 0.85016 0.28829 0.48506 0.0
O134 O 0.77334 0.222 0.45697 0.0
C135 C 0.67178 0.32088 0.52305 0.0
O136 O 0.89576 0.33396 0.56983 0.0
O137 O 0.95789 0.26095 0.57062 0.0
O138 O 0.88465 0.19127 0.51513 0.0
O139 O 0.76274 0.14814 0.5202 0.0
O140 O 0.64279 0.21097 0.55602 0.0
O141 O 0.77166 0.22047 0.58325 0.0
C142 C 0.82443 0.26102 0.45543 0.0
O143 O 0.6454 0.143 0.4628 0.0
O144 O 0.55676 0.20045 0.48271 0.0
C145 C 0.96559 0.31578 0.62422 0.0
C146 C 0.98879 0.31882 0.7009 0.0
C147 C 0.05631 0.3266 0.67743 0.0
C148 C 0.04475 0.32505 0.63948 0.0
C149 C 0.8976 0.30907 0.64743 0.0
C150 C 0.909 0.3107 0.68539 0.0
C151 C 0.95561 0.30839 0.58417 0.0
H152 H 0.46339 0.09653 0.34748 0.0
H153 H 0.49725 0.09016 0.41208 0.0
H154 H 0.59072 0.24464 0.41985 0.0
H155 H 0.55411 0.25225 0.35577 0.0
H156 H 0.11884 0.33201 0.68824 0.0
H157 H 0.09811 0.32964 0.62197 0.0
H158 H 0.83598 0.30143 0.63611 0.0
H159 H 0.85543 0.30504 0.70254 0.0
C160 C 0.52193 0.60402 1.02171 0.0
C161 C 0.60778 0.60282 0.02894 0.0
C162 C 0.47342 0.55954 1.02132 0.0
C163 C 0.51152 0.51286 0.02871 0.0
C164 C 0.59787 0.51151 0.03659 0.0
C165 C 0.64508 0.55648 0.03644 0.0
C166 C 0.38163 0.56234 1.01246 0.0
C167 C 0.64047 0.46247 0.04495 0.0
C168 C 0.37351 0.40559 0.05735 0.0
C169 C 0.36772 0.37401 0.02467 0.0
C170 C 0.42034 0.45089 0.05912 0.0
C171 C 0.46141 0.46515 0.02734 0.0
C172 C 0.45491 0.43376 0.99417 0.0
C173 C 0.40853 0.38841 0.99329 0.0
C174 C 0.42658 0.48322 0.09506 0.0
C175 C 0.49705 0.44803 0.95961 0.0
H176 H 0.49262 0.63965 1.01582 0.0
H177 H 0.71127 0.5553 0.04228 0.0
H178 H 0.36741 0.5369 0.98754 0.0
H179 H 0.34426 0.54866 0.03515 0.0
H180 H 0.36136 0.60175 1.00779 0.0
H181 H 0.70751 0.46823 0.05172 0.0
H182 H 0.60928 0.44608 0.06833 0.0
H183 H 0.63529 0.43388 1.02102 0.0
H184 H 0.34249 0.39455 0.08175 0.0
H185 H 0.40396 0.36434 0.96788 0.0
H186 H 0.40267 0.52224 0.0918 0.0
H187 H 0.49283 0.48714 0.10358 0.0
H188 H 0.39104 0.46671 0.11726 0.0
H189 H 0.47531 0.4862 0.95267 0.0
H190 H 0.48452 0.41991 0.9359 0.0
H191 H 0.56541 0.45064 0.96395 0.0
C192 C 0.47835 0.60003 0.51629 0.0
C193 C 0.39285 0.60107 0.52421 0.0
C194 C 0.52405 0.55445 0.51614 0.0
C195 C 0.48342 0.50897 0.52443 0.0
C196 C 0.39726 0.5098 0.53266 0.0
C197 C 0.35289 0.55581 0.53227 0.0
C198 C 0.61573 0.55492 0.50691 0.0
C199 C 0.35199 0.4621 0.54194 0.0
C200 C 0.58185 0.38191 0.49187 0.0
C201 C 0.62308 0.36877 0.52358 0.0
C202 C 0.53627 0.42748 0.49176 0.0
C203 C 0.53105 0.46041 0.52425 0.0
C204 C 0.57182 0.44715 0.55645 0.0
C205 C 0.61777 0.40159 0.55567 0.0
C206 C 0.49424 0.44059 0.4568 0.0
C207 C 0.56687 0.48108 0.5917 0.0
H208 H 0.50964 0.63479 0.50991 0.0
H209 H 0.28692 0.55634 0.53859 0.0
H210 H 0.65281 0.54206 0.53004 0.0
H211 H 0.62824 0.52776 0.48273 0.0
H212 H 0.63787 0.59345 0.50089 0.0
H213 H 0.28514 0.46937 0.54823 0.0
H214 H 0.35628 0.43236 0.5187 0.0
H215 H 0.38184 0.44635 0.56594 0.0
H216 H 0.5859 0.35684 0.46692 0.0
H217 H 0.64909 0.39154 0.58033 0.0
H218 H 0.51825 0.47761 0.44861 0.0
H219 H 0.42619 0.44512 0.46127 0.0
H220 H 0.50448 0.41089 0.43387 0.0
H221 H 0.59347 0.51922 0.58766 0.0
H222 H 0.60084 0.4648 0.61451 0.0
H223 H 0.50077 0.48698 0.59983 0.0
C224 C 0.15255 0.05572 0.03267 0.0
C225 C 0.11301 0.10094 0.0242 0.0
C226 C 0.10776 0.00987 0.03316 0.0
C227 C 0.02164 0.00921 0.02467 0.0
C228 C 0.98143 0.05469 1.01603 0.0
C229 C 0.02752 0.10007 1.01608 0.0
C230 C 0.15251 0.96216 0.04283 0.0
C231 C 0.88979 0.05535 1.00655 0.0
C232 C 0.92114 0.88253 0.99255 0.0
C233 C 0.87959 0.87003 0.02426 0.0
C234 C 0.96769 0.92773 0.99231 0.0
C235 C 0.97345 0.96091 0.02467 0.0
C236 C 0.93223 0.94833 0.05685 0.0
C237 C 0.88537 0.90315 0.05621 0.0
C238 C 0.01016 0.94016 0.95737 0.0
C239 C 0.93764 0.9826 0.09195 0.0
H240 H 0.2185 0.05616 0.03916 0.0
H241 H 0.99651 0.13481 1.00942 0.0
H242 H 0.1224 0.94678 0.06686 0.0
H243 H 0.14801 0.9322 1.01974 0.0
H244 H 0.21941 0.96926 0.04925 0.0
H245 H 0.86806 0.09385 1.00024 0.0
H246 H 0.87713 0.02797 0.98248 0.0
H247 H 0.85246 0.0429 0.02967 0.0
H248 H 0.91671 0.85722 0.96772 0.0
H249 H 0.85381 0.89361 0.08088 0.0
H250 H 0.07824 0.94438 0.96201 0.0
H251 H 0.98677 0.97718 0.94886 0.0
H252 H 0.99962 0.91026 0.93458 0.0
H253 H 0.0038 0.98822 0.10018 0.0
H254 H 0.90336 0.96677 0.11479 0.0
H255 H 0.91164 0.02082 0.08764 0.0
C256 C 0.97647 0.09822 0.50908 0.0
C257 C 0.89103 0.0997 0.51713 0.0
C258 C 0.02211 0.05275 0.50992 0.0
C259 C 0.98148 0.00782 0.51936 0.0
C260 C 0.89523 0.00898 0.5274 0.0
C261 C 0.85093 0.05488 0.52601 0.0
C262 C 0.11387 0.05282 0.50081 0.0
C263 C 0.84993 0.96188 0.53781 0.0
C264 C 0.08145 0.87955 0.4914 0.0
C265 C 0.12187 0.86859 0.52385 0.0
C266 C 0.03563 0.92476 0.48953 0.0
C267 C 0.02941 0.95961 0.52098 0.0
C268 C 0.06941 0.9486 0.55391 0.0
C269 C 0.11555 0.90331 0.5549 0.0
C270 C 0.99442 0.93542 0.45384 0.0
C271 C 0.06345 0.98466 0.5881 0.0
H272 H 0.00786 0.13264 0.50204 0.0
H273 H 0.78499 0.05573 0.5324 0.0
H274 H 0.15078 0.04195 0.52461 0.0
H275 H 0.12691 0.02402 0.47766 0.0
H276 H 0.13574 0.09075 0.49333 0.0
H277 H 0.78271 0.96917 0.54323 0.0
H278 H 0.85566 0.93079 0.51556 0.0
H279 H 0.87873 0.94792 0.56269 0.0
H280 H 0.08622 0.853 0.46722 0.0
H281 H 0.14627 0.89499 0.58012 0.0
H282 H 0.01853 0.97176 0.44448 0.0
H283 H 0.92626 0.94011 0.45783 0.0
H284 H 0.0053 0.90438 0.43189 0.0
H285 H 0.08988 0.02243 0.58288 0.0
H286 H 0.09702 0.97006 0.61166 0.0
H287 H 0.99713 -0.00916 0.59576 0.0
C288 C 0.41122 0.15662 0.29169 0.0
C289 C 0.4841 0.17931 0.30684 0.0
C290 C 0.38897 0.16143 0.25501 0.0
C291 C 0.44006 0.19026 0.23287 0.0
C292 C 0.5142 0.21276 0.24775 0.0
C293 C 0.53557 0.20675 0.2844 0.0
C294 C 0.30958 0.13658 0.2402 0.0
C295 C 0.56989 0.24435 0.22526 0.0
C296 C 0.40762 0.17401 0.12926 0.0
C297 C 0.35183 0.21384 0.12403 0.0
C298 C 0.43779 0.16605 0.16451 0.0
C299 C 0.41288 0.19943 0.19494 0.0
C300 C 0.35905 0.24084 0.18939 0.0
C301 C 0.32883 0.24723 0.1541 0.0
C302 C 0.49406 0.12103 0.16936 0.0
C303 C 0.33201 0.27797 0.22081 0.0
H304 H 0.3702 0.136 0.30875 0.0
H305 H 0.59276 0.2237 0.29548 0.0
H306 H 0.26408 0.16646 0.23387 0.0
H307 H 0.32229 0.11297 0.2143 0.0
H308 H 0.28045 0.11198 0.25991 0.0
H309 H 0.62711 0.25751 0.24035 0.0
H310 H 0.58847 0.22192 0.1996 0.0
H311 H 0.53528 0.27837 0.21733 0.0
H312 H 0.42537 0.14808 0.10603 0.0
H313 H 0.28751 0.27879 0.14998 0.0
H314 H 0.46277 0.09429 0.18688 0.0
H315 H 0.55239 0.13399 0.18353 0.0
H316 H 0.51038 0.0999 0.14282 0.0
H317 H 0.29193 0.25803 0.23976 0.0
H318 H 0.29655 0.3108 0.21135 0.0
H319 H 0.38705 0.29291 0.23665 0.0
C320 C 0.41084 0.83014 0.25606 0.0
C321 C 0.48745 0.81142 0.24224 0.0
C322 C 0.38833 0.82553 0.29269 0.0
C323 C 0.44344 0.80129 0.31607 0.0
C324 C 0.52194 0.7838 0.30266 0.0
C325 C 0.54307 0.78925 0.26601 0.0
C326 C 0.3041 0.8448 0.30593 0.0
C327 C 0.58242 0.75759 0.32662 0.0
C328 C 0.40495 0.81495 0.41908 0.0
C329 C 0.36087 0.76988 0.42414 0.0
C330 C 0.43258 0.82575 0.38409 0.0
C331 C 0.41617 0.79052 0.35354 0.0
C332 C 0.37258 0.74476 0.35857 0.0
C333 C 0.34535 0.73511 0.39368 0.0
C334 C 0.47827 0.87514 0.37972 0.0
C335 C 0.3541 0.70602 0.32678 0.0
H336 H 0.36698 0.8468 0.23791 0.0
H337 H 0.60297 0.77549 0.25583 0.0
H338 H 0.2639 0.81196 0.31156 0.0
H339 H 0.31067 0.86924 0.33195 0.0
H340 H 0.27206 0.86709 0.28555 0.0
H341 H 0.64305 0.74925 0.3128 0.0
H342 H 0.59398 0.78166 0.35244 0.0
H343 H 0.55512 0.72106 0.33415 0.0
H344 H 0.41693 0.84217 0.44236 0.0
H345 H 0.31149 0.70011 0.39715 0.0
H346 H 0.44295 0.89837 0.36097 0.0
H347 H 0.54019 0.86705 0.36713 0.0
H348 H 0.48729 0.89814 0.40626 0.0
H349 H 0.31487 0.72368 0.30626 0.0
H350 H 0.32121 0.67179 0.33545 0.0
H351 H 0.41294 0.69348 0.31296 0.0
C352 C 0.57378 0.80775 0.92328 0.0
C353 C 0.63782 0.77184 0.92596 0.0
C354 C 0.54274 0.81922 0.88888 0.0
C355 C 0.57756 0.79481 0.85648 0.0
C356 C 0.64269 0.75893 0.85911 0.0
C357 C 0.67135 0.74761 0.89369 0.0
C358 C 0.47255 0.85721 0.88717 0.0
C359 C 0.68265 0.73257 0.82534 0.0
C360 C 0.46489 0.78172 0.76484 0.0
C361 C 0.50525 0.81878 0.74566 0.0
C362 C 0.48454 0.77536 0.80159 0.0
C363 C 0.54676 0.8064 0.81961 0.0
C364 C 0.5853 0.84524 0.80093 0.0
C365 C 0.56383 0.85111 0.7643 0.0
C366 C 0.44145 0.73374 0.82054 0.0
C367 C 0.65204 0.87912 0.81909 0.0
H368 H 0.54731 0.82653 0.94804 0.0
H369 H 0.72103 0.71994 0.89531 0.0
H370 H 0.49255 0.8896 0.87161 0.0
H371 H 0.4186 0.83886 0.87236 0.0
H372 H 0.45174 0.87254 0.91482 0.0
H373 H 0.73346 0.70615 0.83212 0.0
H374 H 0.6351 0.71045 0.8087 0.0
H375 H 0.70883 0.76143 0.80804 0.0
H376 H 0.42019 0.75613 0.75074 0.0
H377 H 0.59413 0.88057 0.75004 0.0
H378 H 0.41874 0.74879 0.84791 0.0
H379 H 0.48647 0.70269 0.82482 0.0
H380 H 0.38789 0.7171 0.80439 0.0
H381 H 0.63007 0.89643 0.84598 0.0
H382 H 0.67086 0.91023 0.802 0.0
H383 H 0.70788 0.85581 0.82429 0.0
C384 C 0.71039 0.2003 0.65182 0.0
C385 C 0.65659 0.202 0.6216 0.0
C386 C 0.67971 0.1947 0.68707 0.0
C387 C 0.59278 0.19066 0.69255 0.0
C388 C 0.53794 0.19162 0.6622 0.0
C389 C 0.57049 0.19723 0.62705 0.0
C390 C 0.74059 0.19398 0.71858 0.0
C391 C 0.44484 0.18764 0.66701 0.0
C392 C 0.52812 0.13475 0.78087 0.0
C393 C 0.51363 0.17895 0.80425 0.0
C394 C 0.55125 0.13791 0.74413 0.0
C395 C 0.56001 0.18644 0.73029 0.0
C396 C 0.54326 0.23115 0.75342 0.0
C397 C 0.52044 0.22688 0.79007 0.0
C398 C 0.56858 0.08932 0.72041 0.0
C399 C 0.55198 0.28364 0.73979 0.0
H400 H 0.77706 0.2039 0.64813 0.0
H401 H 0.52837 0.19869 0.60399 0.0
H402 H 0.72954 0.22748 0.73845 0.0
H403 H 0.73115 0.15917 0.73333 0.0
H404 H 0.80648 0.19495 0.7094 0.0
H405 H 0.41075 0.18744 0.64057 0.0
H406 H 0.42923 0.15221 0.68009 0.0
H407 H 0.42229 0.22031 0.68548 0.0
H408 H 0.52159 0.09752 0.79135 0.0
H409 H 0.51027 0.26128 0.80793 0.0
H410 H 0.63528 0.08806 0.71245 0.0
H411 H 0.5314 0.08845 0.6948 0.0
H412 H 0.55405 0.05455 0.73458 0.0
H413 H 0.6182 0.29078 0.73319 0.0
H414 H 0.53067 0.31436 0.7603 0.0
H415 H 0.51551 0.28603 0.71422 0.0
C416 C 0.92165 0.68197 0.13279 0.0
C417 C 0.8478 0.70929 0.12812 0.0
C418 C 0.95219 0.67464 0.16809 0.0
C419 C 0.90873 0.69601 0.19937 0.0
C420 C 0.83516 0.72454 0.19468 0.0
C421 C 0.80535 0.7304 0.15925 0.0
C422 C 0.03017 0.64336 0.17195 0.0
C423 C 0.78733 0.74872 0.2271 0.0
C424 C 0.9303 0.64263 0.2925 0.0
C425 C 0.98491 0.67781 0.31098 0.0
C426 C 0.90747 0.64706 0.25581 0.0
C427 C 0.93885 0.6881 0.23712 0.0
C428 C 0.99492 0.72332 0.25534 0.0
C429 C 0.01768 0.71755 0.29187 0.0
C430 C 0.84814 0.60839 0.23733 0.0
C431 C 0.02913 0.76797 0.23659 0.0
H432 H 0.95466 0.66546 0.1089 0.0
H433 H 0.74886 0.75219 0.15596 0.0
H434 H 0.07782 0.66632 0.18791 0.0
H435 H 0.01593 0.60971 0.18732 0.0
H436 H 0.05715 0.62974 0.145 0.0
H437 H 0.73629 0.77386 0.21867 0.0
H438 H 0.75979 0.71844 0.24274 0.0
H439 H 0.82972 0.77168 0.24591 0.0
H440 H 0.90362 0.61215 0.30694 0.0
H441 H 0.06123 0.74438 0.30549 0.0
H442 H 0.87418 0.59251 0.21076 0.0
H443 H 0.78833 0.62729 0.23142 0.0
H444 H 0.83503 0.57632 0.25448 0.0
H445 H 0.0597 0.75431 0.21048 0.0
H446 H 0.07494 0.79065 0.25393 0.0
H447 H 0.97726 0.79351 0.22973 0.0
C448 C 0.9198 0.30751 0.4148 0.0
C449 C 0.85331 0.27367 0.41871 0.0
C450 C 0.94736 0.31875 0.37987 0.0
C451 C 0.90711 0.29588 0.34816 0.0
C452 C 0.83916 0.26235 0.35201 0.0
C453 C 0.81333 0.25161 0.38712 0.0
C454 C 0.01995 0.35472 0.37686 0.0
C455 C 0.79379 0.2375 0.31901 0.0
C456 C 0.92235 0.35111 0.2555 0.0
C457 C 0.98018 0.31811 0.23719 0.0
C458 C 0.9004 0.34564 0.29211 0.0
C459 C 0.93656 0.30592 0.3108 0.0
C460 C 0.99678 0.27345 0.29279 0.0
C461 C 0.01798 0.28001 0.25629 0.0
C462 C 0.83665 0.38142 0.31043 0.0
C463 C 0.03635 0.23036 0.31157 0.0
H464 H 0.95097 0.3248 0.439 0.0
H465 H 0.76119 0.22591 0.38973 0.0
H466 H 0.07188 0.33446 0.36194 0.0
H467 H 0.00145 0.387 0.36084 0.0
H468 H 0.04315 0.37039 0.40409 0.0
H469 H 0.74234 0.21219 0.32673 0.0
H470 H 0.7673 0.26726 0.30253 0.0
H471 H 0.83803 0.21454 0.30119 0.0
H472 H 0.89366 0.381 0.24104 0.0
H473 H 0.06196 0.25395 0.24224 0.0
H474 H 0.86075 0.39835 0.33713 0.0
H475 H 0.77935 0.35978 0.31609 0.0
H476 H 0.81962 0.41285 0.29328 0.0
H477 H 0.06313 0.24495 0.33835 0.0
H478 H 0.08639 0.2109 0.29479 0.0
H479 H 0.98813 0.2017 0.3171 0.0
C480 C 0.96202 0.27928 0.76006 0.0
C481 C 0.0028 0.31633 0.74102 0.0
C482 C 0.98059 0.27314 0.79695 0.0
C483 C 0.04203 0.30447 0.81528 0.0
C484 C 0.08077 0.34339 0.79676 0.0
C485 C 0.0605 0.34896 0.75995 0.0
C486 C 0.93738 0.23137 0.8157 0.0
C487 C 0.14659 0.37763 0.81525 0.0
C488 C 0.06726 0.30579 0.91908 0.0
C489 C 0.13208 0.27043 0.92196 0.0
C490 C 0.0365 0.31705 0.88458 0.0
C491 C 0.07223 0.29294 0.85228 0.0
C492 C 0.13793 0.2575 0.8551 0.0
C493 C 0.16645 0.24646 0.88976 0.0
C494 C 0.96579 0.35465 0.88265 0.0
C495 C 0.17875 0.23137 0.82145 0.0
H496 H 0.91797 0.25349 0.74573 0.0
H497 H 0.09111 0.37839 0.74577 0.0
H498 H 0.98251 0.20042 0.8201 0.0
H499 H 0.91408 0.24629 0.84299 0.0
H500 H 0.88423 0.21463 0.79933 0.0
H501 H 0.1652 0.40895 0.79832 0.0
H502 H 0.12383 0.39469 0.84209 0.0
H503 H 0.20271 0.35467 0.82061 0.0
H504 H 0.04017 0.32441 0.94376 0.0
H505 H 0.21673 0.21921 0.89149 0.0
H506 H 0.91247 0.33609 0.8675 0.0
H507 H 0.98573 0.38728 0.86732 0.0
H508 H 0.9441 0.36966 0.91023 0.0
H509 H 0.13171 0.20906 0.80464 0.0
H510 H 0.22974 0.20517 0.82838 0.0
H511 H 0.2049 0.26037 0.80427 0.0
C512 C 0.06976 0.69791 0.63165 0.0
C513 C 0.15587 0.70286 0.62634 0.0
C514 C 0.03707 0.69169 0.6667 0.0
C515 C 0.09181 0.69018 0.69705 0.0
C516 C 0.17874 0.69444 0.69169 0.0
C517 C 0.20952 0.70072 0.65657 0.0
C518 C 0.94396 0.68766 0.6714 0.0
C519 C 0.23951 0.69309 0.7232 0.0
C520 C 0.02027 0.72424 0.79493 0.0
C521 C 0.01335 0.67593 0.80854 0.0
C522 C 0.04257 0.72934 0.75833 0.0
C523 C 0.05899 0.6851 0.73467 0.0
C524 C 0.05025 0.6362 0.74794 0.0
C525 C 0.02739 0.6322 0.78462 0.0
C526 C 0.05118 0.78221 0.74531 0.0
C527 C 0.06738 0.58809 0.72366 0.0
H528 H 0.02777 0.69974 0.60859 0.0
H529 H 0.27622 0.70441 0.65298 0.0
H530 H 0.92824 0.65189 0.68404 0.0
H531 H 0.92143 0.71996 0.69024 0.0
H532 H 0.90994 0.6881 0.64498 0.0
H533 H 0.30543 0.69505 0.71418 0.0
H534 H 0.22758 0.72574 0.74369 0.0
H535 H 0.23083 0.65754 0.73717 0.0
H536 H 0.01053 0.75831 0.81318 0.0
H537 H 0.02072 0.59469 0.79462 0.0
H538 H 0.01488 0.78511 0.71976 0.0
H539 H 0.11742 0.78961 0.73891 0.0
H540 H 0.02962 0.81248 0.76612 0.0
H541 H 0.03007 0.58782 0.69812 0.0
H542 H 0.05289 0.55296 0.73741 0.0
H543 H 0.13404 0.58697 0.71563 0.0
loop_
_geom_bond_atom_site_label_1
_geom_bond_atom_site_label_2
_geom_bond_distance
_geom_bond_site_symmetry_2
_ccdc_geom_bond_type
Tb0 C10 2.825 . S
Tb0 O11 2.347 . S
Tb0 O14 2.366 . S
Tb0 O19 2.418 . S
Tb0 O20 2.384 1_554 S
Tb0 O23 2.479 . S
Tb0 O24 2.471 . S
Eu1 O12 2.418 . S
Eu1 O13 2.384 1_556 S
Eu1 O16 2.479 . S
Eu1 O17 2.471 . S
Eu1 O18 2.347 . S
Eu1 O21 2.366 . S
Eu1 C31 2.825 . S
C2 O18 1.259 1_554 S
C2 O19 1.265 . S
C3 O20 1.255 . S
C3 O21 1.265 . S
C4 C6 1.380 . S
C4 C7 1.374 . S
C4 C10 1.507 . S
C5 C6 1.384 . S
C5 C9 1.387 . S
C5 H32 0.930 . S
C6 C4 1.380 . S
C6 C5 1.384 . S
C6 H33 0.931 . S
C7 C4 1.374 . S
C7 C8 1.390 . S
C7 H34 0.930 . S
C8 C7 1.390 . S
C8 C9 1.391 . S
C8 H35 0.930 . S
C9 C5 1.387 . S
C9 C8 1.391 . S
C10 Tb0 2.825 . S
C10 C4 1.507 . S
C10 O23 1.238 . S
C10 O24 1.247 . S
O11 Tb0 2.347 . S
O11 C15 1.259 1_554 S
O12 Eu1 2.418 . S
O12 C15 1.265 . S
O13 Eu1 2.384 1_554 S
O13 C22 1.255 . S
O14 Tb0 2.366 . S
O14 C22 1.265 . S
C15 O11 1.259 1_556 S
C15 O12 1.265 . S
O16 Eu1 2.479 . S
O16 C31 1.238 . S
O17 Eu1 2.471 . S
O17 C31 1.247 . S
O18 Eu1 2.347 . S
O18 C2 1.259 1_556 S
O19 Tb0 2.418 . S
O19 C2 1.265 . S
O20 Tb0 2.384 1_556 S
O20 C3 1.255 . S
O21 Eu1 2.366 . S
O21 C3 1.265 . S
C22 O13 1.255 . S
C22 O14 1.265 . S
O23 Tb0 2.479 . S
O23 C10 1.238 . S
O24 Tb0 2.471 . S
O24 C10 1.247 . S
C25 C28 1.380 . S
C25 C29 1.374 . S
C25 C31 1.507 . S
C26 C27 1.387 . S
C26 C30 1.391 . S
C27 C26 1.387 . S
C27 C28 1.384 . S
C27 H36 0.930 . S
C28 C25 1.380 . S
C28 C27 1.384 . S
C28 H37 0.931 . S
C29 C25 1.374 . S
C29 C30 1.390 . S
C29 H38 0.930 . S
C30 C26 1.391 . S
C30 C29 1.390 . S
C30 H39 0.930 . S
C31 Eu1 2.825 . S
C31 O16 1.238 . S
C31 O17 1.247 . S
C31 C25 1.507 . S
H32 C5 0.930 . S
H33 C6 0.931 . S
H34 C7 0.930 . S
H35 C8 0.930 . S
H36 C27 0.930 . S
H37 C28 0.931 . S
H38 C29 0.930 . S
H39 C30 0.930 . S
Tb40 C50 2.825 . S
Tb40 O51 2.347 . S
Tb40 O54 2.366 . S
Tb40 O59 2.418 . S
Tb40 O60 2.384 1_554 S
Tb40 O63 2.479 . S
Tb40 O64 2.471 . S
Eu41 O52 2.418 . S
Eu41 O53 2.384 1_556 S
Eu41 O56 2.479 . S
Eu41 O57 2.471 . S
Eu41 O58 2.347 . S
Eu41 O61 2.366 . S
Eu41 C71 2.825 . S
C42 O58 1.259 1_554 S
C42 O59 1.265 . S
C43 O60 1.255 . S
C43 O61 1.265 . S
C44 C46 1.380 . S
C44 C47 1.374 . S
C44 C50 1.507 . S
C45 C46 1.384 . S
C45 C49 1.387 . S
C45 H72 0.930 . S
C46 C44 1.380 . S
C46 C45 1.384 . S
C46 H73 0.931 . S
C47 C44 1.374 . S
C47 C48 1.390 . S
C47 H74 0.930 . S
C48 C47 1.390 . S
C48 C49 1.391 . S
C48 H75 0.930 . S
C49 C45 1.387 . S
C49 C48 1.391 . S
C50 Tb40 2.825 . S
C50 C44 1.507 . S
C50 O63 1.238 . S
C50 O64 1.247 . S
O51 Tb40 2.347 . S
O51 C55 1.259 1_554 S
O52 Eu41 2.418 . S
O52 C55 1.265 . S
O53 Eu41 2.384 1_554 S
O53 C62 1.255 . S
O54 Tb40 2.366 . S
O54 C62 1.265 . S
C55 O51 1.259 1_556 S
C55 O52 1.265 . S
O56 Eu41 2.479 . S
O56 C71 1.238 . S
O57 Eu41 2.471 . S
O57 C71 1.247 . S
O58 Eu41 2.347 . S
O58 C42 1.259 1_556 S
O59 Tb40 2.418 . S
O59 C42 1.265 . S
O60 Tb40 2.384 1_556 S
O60 C43 1.255 . S
O61 Eu41 2.366 . S
O61 C43 1.265 . S
C62 O53 1.255 . S
C62 O54 1.265 . S
O63 Tb40 2.479 . S
O63 C50 1.238 . S
O64 Tb40 2.471 . S
O64 C50 1.247 . S
C65 C68 1.380 . S
C65 C69 1.374 . S
C65 C71 1.507 . S
C66 C67 1.387 . S
C66 C70 1.391 . S
C67 C66 1.387 . S
C67 C68 1.384 . S
C67 H76 0.930 . S
C68 C65 1.380 . S
C68 C67 1.384 . S
C68 H77 0.931 . S
C69 C65 1.374 . S
C69 C70 1.390 . S
C69 H78 0.930 . S
C70 C66 1.391 . S
C70 C69 1.390 . S
C70 H79 0.930 . S
C71 Eu41 2.825 . S
C71 O56 1.238 . S
C71 O57 1.247 . S
C71 C65 1.507 . S
H72 C45 0.930 . S
H73 C46 0.931 . S
H74 C47 0.930 . S
H75 C48 0.930 . S
H76 C67 0.930 . S
H77 C68 0.931 . S
H78 C69 0.930 . S
H79 C70 0.930 . S
Tb80 C90 2.825 . S
Tb80 O91 2.347 . S
Tb80 O94 2.366 . S
Tb80 O99 2.418 . S
Tb80 O100 2.384 . S
Tb80 O103 2.479 . S
Tb80 O104 2.471 . S
Eu81 O92 2.418 . S
Eu81 O93 2.384 . S
Eu81 O96 2.479 . S
Eu81 O97 2.471 . S
Eu81 O98 2.347 . S
Eu81 O101 2.366 . S
Eu81 C111 2.825 . S
C82 O98 1.259 . S
C82 O99 1.265 . S
C83 O100 1.255 . S
C83 O101 1.265 . S
C84 C86 1.380 . S
C84 C87 1.374 . S
C84 C90 1.507 . S
C85 C86 1.384 . S
C85 C89 1.387 . S
C85 H112 0.930 . S
C86 C84 1.380 . S
C86 C85 1.384 . S
C86 H113 0.931 . S
C87 C84 1.374 . S
C87 C88 1.390 . S
C87 H114 0.930 . S
C88 C87 1.390 . S
C88 C89 1.391 . S
C88 H115 0.930 . S
C89 C85 1.387 . S
C89 C88 1.391 . S
C90 Tb80 2.825 . S
C90 C84 1.507 . S
C90 O103 1.238 . S
C90 O104 1.247 . S
O91 Tb80 2.347 . S
O91 C95 1.259 . S
O92 Eu81 2.418 . S
O92 C95 1.265 . S
O93 Eu81 2.384 . S
O93 C102 1.255 . S
O94 Tb80 2.366 . S
O94 C102 1.265 . S
C95 O91 1.259 . S
C95 O92 1.265 . S
O96 Eu81 2.479 . S
O96 C111 1.238 . S
O97 Eu81 2.471 . S
O97 C111 1.247 . S
O98 Eu81 2.347 . S
O98 C82 1.259 . S
O99 Tb80 2.418 . S
O99 C82 1.265 . S
O100 Tb80 2.384 . S
O100 C83 1.255 . S
O101 Eu81 2.366 . S
O101 C83 1.265 . S
C102 O93 1.255 . S
C102 O94 1.265 . S
O103 Tb80 2.479 . S
O103 C90 1.238 . S
O104 Tb80 2.471 . S
O104 C90 1.247 . S
C105 C108 1.380 . S
C105 C109 1.374 . S
C105 C111 1.507 . S
C106 C107 1.387 . S
C106 C110 1.391 . S
C107 C106 1.387 . S
C107 C108 1.384 . S
C107 H116 0.930 . S
C108 C105 1.380 . S
C108 C107 1.384 . S
C108 H117 0.931 . S
C109 C105 1.374 . S
C109 C110 1.390 . S
C109 H118 0.930 . S
C110 C106 1.391 . S
C110 C109 1.390 . S
C110 H119 0.930 . S
C111 Eu81 2.825 . S
C111 O96 1.238 . S
C111 O97 1.247 . S
C111 C105 1.507 . S
H112 C85 0.930 . S
H113 C86 0.931 . S
H114 C87 0.930 . S
H115 C88 0.930 . S
H116 C107 0.930 . S
H117 C108 0.931 . S
H118 C109 0.930 . S
H119 C110 0.930 . S
Tb120 C130 2.825 . S
Tb120 O131 2.347 . S
Tb120 O134 2.366 . S
Tb120 O139 2.418 . S
Tb120 O140 2.384 . S
Tb120 O143 2.479 . S
Tb120 O144 2.471 . S
Eu121 O132 2.418 . S
Eu121 O133 2.384 . S
Eu121 O136 2.479 . S
Eu121 O137 2.471 . S
Eu121 O138 2.347 . S
Eu121 O141 2.366 . S
Eu121 C151 2.825 . S
C122 O138 1.259 . S
C122 O139 1.265 . S
C123 O140 1.255 . S
C123 O141 1.265 . S
C124 C126 1.380 . S
C124 C127 1.374 . S
C124 C130 1.507 . S
C125 C126 1.384 . S
C125 C129 1.387 . S
C125 H152 0.930 . S
C126 C124 1.380 . S
C126 C125 1.384 . S
C126 H153 0.931 . S
C127 C124 1.374 . S
C127 C128 1.390 . S
C127 H154 0.930 . S
C128 C127 1.390 . S
C128 C129 1.391 . S
C128 H155 0.930 . S
C129 C125 1.387 . S
C129 C128 1.391 . S
C130 Tb120 2.825 . S
C130 C124 1.507 . S
C130 O143 1.238 . S
C130 O144 1.247 . S
O131 Tb120 2.347 . S
O131 C135 1.259 . S
O132 Eu121 2.418 . S
O132 C135 1.265 . S
O133 Eu121 2.384 . S
O133 C142 1.255 . S
O134 Tb120 2.366 . S
O134 C142 1.265 . S
C135 O131 1.259 . S
C135 O132 1.265 . S
O136 Eu121 2.479 . S
O136 C151 1.238 . S
O137 Eu121 2.471 . S
O137 C151 1.247 . S
O138 Eu121 2.347 . S
O138 C122 1.259 . S
O139 Tb120 2.418 . S
O139 C122 1.265 . S
O140 Tb120 2.384 . S
O140 C123 1.255 . S
O141 Eu121 2.366 . S
O141 C123 1.265 . S
C142 O133 1.255 . S
C142 O134 1.265 . S
O143 Tb120 2.479 . S
O143 C130 1.238 . S
O144 Tb120 2.471 . S
O144 C130 1.247 . S
C145 C148 1.380 . S
C145 C149 1.374 . S
C145 C151 1.507 . S
C146 C147 1.387 . S
C146 C150 1.391 . S
C147 C146 1.387 . S
C147 C148 1.384 . S
C147 H156 0.930 . S
C148 C145 1.380 . S
C148 C147 1.384 . S
C148 H157 0.931 . S
C149 C145 1.374 . S
C149 C150 1.390 . S
C149 H158 0.930 . S
C150 C146 1.391 . S
C150 C149 1.390 . S
C150 H159 0.930 . S
C151 Eu121 2.825 . S
C151 O136 1.238 . S
C151 O137 1.247 . S
C151 C145 1.507 . S
H152 C125 0.930 . S
H153 C126 0.931 . S
H154 C127 0.930 . S
H155 C128 0.930 . S
H156 C147 0.930 . S
H157 C148 0.931 . S
H158 C149 0.930 . S
H159 C150 0.930 . S
C160 C161 1.391 . S
C160 C162 1.394 . S
C160 H176 0.930 1_556 S
C161 C160 1.391 . S
C161 C165 1.376 . S
C162 C160 1.394 . S
C162 C163 1.369 . S
C162 C166 1.531 . S
C163 C162 1.369 . S
C163 C164 1.410 . S
C163 C171 1.503 . S
C164 C163 1.410 . S
C164 C165 1.392 . S
C164 C167 1.511 . S
C165 C161 1.376 . S
C165 C164 1.392 . S
C165 H177 0.929 . S
C166 C162 1.531 . S
C166 H178 0.960 . S
C166 H179 0.962 1_556 S
C166 H180 0.960 . S
C167 C164 1.511 . S
C167 H181 0.961 . S
C167 H182 0.961 . S
C167 H183 0.961 . S
C168 C169 1.344 1_554 S
C168 C170 1.363 . S
C168 H184 0.931 . S
C169 C168 1.344 1_556 S
C169 C173 1.440 . S
C170 C168 1.363 . S
C170 C171 1.370 1_554 S
C170 C174 1.524 . S
C171 C163 1.503 . S
C171 C170 1.370 1_556 S
C171 C172 1.403 . S
C172 C171 1.403 . S
C172 C173 1.404 . S
C172 C175 1.539 . S
C173 C169 1.440 . S
C173 C172 1.404 . S
C173 H185 0.930 . S
C174 C170 1.524 . S
C174 H186 0.956 . S
C174 H187 0.961 . S
C174 H188 0.961 . S
C175 C172 1.539 . S
C175 H189 0.958 . S
C175 H190 0.961 . S
C175 H191 0.960 . S
H176 C160 0.930 1_554 S
H177 C165 0.929 . S
H178 C166 0.960 . S
H179 C166 0.962 1_554 S
H180 C166 0.960 . S
H181 C167 0.961 . S
H182 C167 0.961 . S
H183 C167 0.961 . S
H184 C168 0.931 . S
H185 C173 0.930 . S
H186 C174 0.956 . S
H187 C174 0.961 . S
H188 C174 0.961 . S
H189 C175 0.958 . S
H190 C175 0.961 . S
H191 C175 0.960 . S
C192 C193 1.391 . S
C192 C194 1.394 . S
C192 H208 0.931 . S
C193 C192 1.391 . S
C193 C197 1.376 . S
C194 C192 1.394 . S
C194 C195 1.369 . S
C194 C198 1.531 . S
C195 C194 1.369 . S
C195 C196 1.410 . S
C195 C203 1.503 . S
C196 C195 1.410 . S
C196 C197 1.392 . S
C196 C199 1.511 . S
C197 C193 1.376 . S
C197 C196 1.392 . S
C197 H209 0.929 . S
C198 C194 1.531 . S
C198 H210 0.960 . S
C198 H211 0.962 . S
C198 H212 0.960 . S
C199 C196 1.511 . S
C199 H213 0.961 . S
C199 H214 0.961 . S
C199 H215 0.961 . S
C200 C201 1.370 . S
C200 C202 1.363 . S
C200 H216 0.931 . S
C201 C200 1.370 . S
C201 C205 1.408 . S
C202 C200 1.363 . S
C202 C203 1.370 . S
C202 C206 1.524 . S
C203 C195 1.503 . S
C203 C202 1.370 . S
C203 C204 1.403 . S
C204 C203 1.403 . S
C204 C205 1.404 . S
C204 C207 1.539 . S
C205 C201 1.408 . S
C205 C204 1.404 . S
C205 H217 0.930 . S
C206 C202 1.524 . S
C206 H218 0.956 . S
C206 H219 0.961 . S
C206 H220 0.961 . S
C207 C204 1.539 . S
C207 H221 0.958 . S
C207 H222 0.961 . S
C207 H223 0.960 . S
H208 C192 0.931 . S
H209 C197 0.929 . S
H210 C198 0.960 . S
H211 C198 0.962 . S
H212 C198 0.960 . S
H213 C199 0.961 . S
H214 C199 0.961 . S
H215 C199 0.961 . S
H216 C200 0.931 . S
H217 C205 0.930 . S
H218 C206 0.956 . S
H219 C206 0.961 . S
H220 C206 0.961 . S
H221 C207 0.958 . S
H222 C207 0.961 . S
H223 C207 0.960 . S
C224 C225 1.391 . S
C224 C226 1.394 . S
C224 H240 0.931 . S
C225 C224 1.391 . S
C225 C229 1.376 1_554 S
C226 C224 1.394 . S
C226 C227 1.369 . S
C226 C230 1.531 1_545 S
C227 C226 1.369 . S
C227 C228 1.410 1_454 S
C227 C235 1.503 1_445 S
C228 C227 1.410 1_656 S
C228 C229 1.392 1_655 S
C228 C231 1.511 . S
C229 C225 1.376 1_556 S
C229 C228 1.392 1_455 S
C229 H241 0.929 . S
C230 C226 1.531 1_565 S
C230 H242 0.960 . S
C230 H243 0.962 . S
C230 H244 0.960 . S
C231 C228 1.511 . S
C231 H245 0.961 . S
C231 H246 0.961 . S
C231 H247 0.961 . S
C232 C233 1.370 1_556 S
C232 C234 1.363 . S
C232 H248 0.931 . S
C233 C232 1.370 1_554 S
C233 C237 1.408 . S
C234 C232 1.363 . S
C234 C235 1.370 1_556 S
C234 C238 1.524 1_655 S
C235 C227 1.503 1_665 S
C235 C234 1.370 1_554 S
C235 C236 1.403 . S
C236 C235 1.403 . S
C236 C237 1.404 . S
C236 C239 1.539 1_565 S
C237 C233 1.408 . S
C237 C236 1.404 . S
C237 H249 0.930 . S
C238 C234 1.524 1_455 S
C238 H250 0.956 . S
C238 H251 0.961 . S
C238 H252 0.961 . S
C239 C236 1.539 1_545 S
C239 H253 0.958 . S
C239 H254 0.961 . S
C239 H255 0.960 . S
H240 C224 0.931 . S
H241 C229 0.929 . S
H242 C230 0.960 . S
H243 C230 0.962 . S
H244 C230 0.960 . S
H245 C231 0.961 . S
H246 C231 0.961 . S
H247 C231 0.961 . S
H248 C232 0.931 . S
H249 C237 0.930 . S
H250 C238 0.956 . S
H251 C238 0.961 . S
H252 C238 0.961 . S
H253 C239 0.958 . S
H254 C239 0.961 . S
H255 C239 0.960 . S
C256 C257 1.391 . S
C256 C258 1.394 1_655 S
C256 H272 0.931 . S
C257 C256 1.391 . S
C257 C261 1.376 . S
C258 C256 1.394 1_455 S
C258 C259 1.369 1_455 S
C258 C262 1.531 . S
C259 C258 1.369 1_655 S
C259 C260 1.410 . S
C259 C267 1.503 1_645 S
C260 C259 1.410 . S
C260 C261 1.392 . S
C260 C263 1.511 1_545 S
C261 C257 1.376 . S
C261 C260 1.392 . S
C261 H273 0.929 . S
C262 C258 1.531 . S
C262 H274 0.960 . S
C262 H275 0.962 . S
C262 H276 0.960 . S
C263 C260 1.511 1_565 S
C263 H277 0.961 . S
C263 H278 0.961 . S
C263 H279 0.961 . S
C264 C265 1.370 . S
C264 C266 1.363 . S
C264 H280 0.931 . S
C265 C264 1.370 . S
C265 C269 1.408 . S
C266 C264 1.363 . S
C266 C267 1.370 . S
C266 C270 1.524 1_455 S
C267 C259 1.503 1_465 S
C267 C266 1.370 . S
C267 C268 1.403 . S
C268 C267 1.403 . S
C268 C269 1.404 . S
C268 C271 1.539 1_565 S
C269 C265 1.408 . S
C269 C268 1.404 . S
C269 H281 0.930 . S
C270 C266 1.524 1_655 S
C270 H282 0.956 . S
C270 H283 0.961 . S
C270 H284 0.961 . S
C271 C268 1.539 1_545 S
C271 H285 0.958 . S
C271 H286 0.961 1_545 S
C271 H287 0.960 . S
H272 C256 0.931 . S
H273 C261 0.929 . S
H274 C262 0.960 . S
H275 C262 0.962 . S
H276 C262 0.960 . S
H277 C263 0.961 . S
H278 C263 0.961 . S
H279 C263 0.961 . S
H280 C264 0.931 . S
H281 C269 0.930 . S
H282 C270 0.956 . S
H283 C270 0.961 . S
H284 C270 0.961 . S
H285 C271 0.958 . S
H286 C271 0.961 1_565 S
H287 C271 0.960 . S
C288 C289 1.391 . S
C288 C290 1.394 . S
C288 H304 0.931 . S
C289 C288 1.391 . S
C289 C293 1.376 . S
C290 C288 1.394 . S
C290 C291 1.369 . S
C290 C294 1.531 . S
C291 C290 1.369 . S
C291 C292 1.410 . S
C291 C299 1.503 . S
C292 C291 1.410 . S
C292 C293 1.392 . S
C292 C295 1.511 . S
C293 C289 1.376 . S
C293 C292 1.392 . S
C293 H305 0.929 . S
C294 C290 1.531 . S
C294 H306 0.960 . S
C294 H307 0.962 . S
C294 H308 0.960 . S
C295 C292 1.511 . S
C295 H309 0.961 . S
C295 H310 0.961 . S
C295 H311 0.961 . S
C296 C297 1.370 . S
C296 C298 1.363 . S
C296 H312 0.931 . S
C297 C296 1.370 . S
C297 C301 1.408 . S
C298 C296 1.363 . S
C298 C299 1.370 . S
C298 C302 1.524 . S
C299 C291 1.503 . S
C299 C298 1.370 . S
C299 C300 1.403 . S
C300 C299 1.403 . S
C300 C301 1.404 . S
C300 C303 1.539 . S
C301 C297 1.408 . S
C301 C300 1.404 . S
C301 H313 0.930 . S
C302 C298 1.524 . S
C302 H314 0.956 . S
C302 H315 0.961 . S
C302 H316 0.961 . S
C303 C300 1.539 . S
C303 H317 0.958 . S
C303 H318 0.961 . S
C303 H319 0.960 . S
H304 C288 0.931 . S
H305 C293 0.929 . S
H306 C294 0.960 . S
H307 C294 0.962 . S
H308 C294 0.960 . S
H309 C295 0.961 . S
H310 C295 0.961 . S
H311 C295 0.961 . S
H312 C296 0.931 . S
H313 C301 0.930 . S
H314 C302 0.956 . S
H315 C302 0.961 . S
H316 C302 0.961 . S
H317 C303 0.958 . S
H318 C303 0.961 . S
H319 C303 0.960 . S
C320 C321 1.391 . S
C320 C322 1.394 . S
C320 H336 0.931 . S
C321 C320 1.391 . S
C321 C325 1.376 . S
C322 C320 1.394 . S
C322 C323 1.369 . S
C322 C326 1.531 . S
C323 C322 1.369 . S
C323 C324 1.410 . S
C323 C331 1.503 . S
C324 C323 1.410 . S
C324 C325 1.392 . S
C324 C327 1.511 . S
C325 C321 1.376 . S
C325 C324 1.392 . S
C325 H337 0.929 . S
C326 C322 1.531 . S
C326 H338 0.960 . S
C326 H339 0.962 . S
C326 H340 0.960 . S
C327 C324 1.511 . S
C327 H341 0.961 . S
C327 H342 0.961 . S
C327 H343 0.961 . S
C328 C329 1.370 . S
C328 C330 1.363 . S
C328 H344 0.931 . S
C329 C328 1.370 . S
C329 C333 1.408 . S
C330 C328 1.363 . S
C330 C331 1.370 . S
C330 C334 1.524 . S
C331 C323 1.503 . S
C331 C330 1.370 . S
C331 C332 1.403 . S
C332 C331 1.403 . S
C332 C333 1.404 . S
C332 C335 1.539 . S
C333 C329 1.408 . S
C333 C332 1.404 . S
C333 H345 0.930 . S
C334 C330 1.524 . S
C334 H346 0.956 . S
C334 H347 0.961 . S
C334 H348 0.961 . S
C335 C332 1.539 . S
C335 H349 0.958 . S
C335 H350 0.961 . S
C335 H351 0.960 . S
H336 C320 0.931 . S
H337 C325 0.929 . S
H338 C326 0.960 . S
H339 C326 0.962 . S
H340 C326 0.960 . S
H341 C327 0.961 . S
H342 C327 0.961 . S
H343 C327 0.961 . S
H344 C328 0.931 . S
H345 C333 0.930 . S
H346 C334 0.956 . S
H347 C334 0.961 . S
H348 C334 0.961 . S
H349 C335 0.958 . S
H350 C335 0.961 . S
H351 C335 0.960 . S
C352 C353 1.391 . S
C352 C354 1.394 . S
C352 H368 0.931 . S
C353 C352 1.391 . S
C353 C357 1.376 . S
C354 C352 1.394 . S
C354 C355 1.369 . S
C354 C358 1.531 . S
C355 C354 1.369 . S
C355 C356 1.410 . S
C355 C363 1.503 . S
C356 C355 1.410 . S
C356 C357 1.392 . S
C356 C359 1.511 . S
C357 C353 1.376 . S
C357 C356 1.392 . S
C357 H369 0.929 . S
C358 C354 1.531 . S
C358 H370 0.960 . S
C358 H371 0.962 . S
C358 H372 0.960 . S
C359 C356 1.511 . S
C359 H373 0.961 . S
C359 H374 0.961 . S
C359 H375 0.961 . S
C360 C361 1.370 . S
C360 C362 1.363 . S
C360 H376 0.931 . S
C361 C360 1.370 . S
C361 C365 1.408 . S
C362 C360 1.363 . S
C362 C363 1.370 . S
C362 C366 1.524 . S
C363 C355 1.503 . S
C363 C362 1.370 . S
C363 C364 1.403 . S
C364 C363 1.403 . S
C364 C365 1.404 . S
C364 C367 1.539 . S
C365 C361 1.408 . S
C365 C364 1.404 . S
C365 H377 0.930 . S
C366 C362 1.524 . S
C366 H378 0.956 . S
C366 H379 0.961 . S
C366 H380 0.961 . S
C367 C364 1.539 . S
C367 H381 0.958 . S
C367 H382 0.961 . S
C367 H383 0.960 . S
H368 C352 0.931 . S
H369 C357 0.929 . S
H370 C358 0.960 . S
H371 C358 0.962 . S
H372 C358 0.960 . S
H373 C359 0.961 . S
H374 C359 0.961 . S
H375 C359 0.961 . S
H376 C360 0.931 . S
H377 C365 0.930 . S
H378 C366 0.956 . S
H379 C366 0.961 . S
H380 C366 0.961 . S
H381 C367 0.958 . S
H382 C367 0.961 . S
H383 C367 0.960 . S
C384 C385 1.391 . S
C384 C386 1.394 . S
C384 H400 0.931 . S
C385 C384 1.391 . S
C385 C389 1.376 . S
C386 C384 1.394 . S
C386 C387 1.369 . S
C386 C390 1.531 . S
C387 C386 1.369 . S
C387 C388 1.410 . S
C387 C395 1.503 . S
C388 C387 1.410 . S
C388 C389 1.392 . S
C388 C391 1.511 . S
C389 C385 1.376 . S
C389 C388 1.392 . S
C389 H401 0.929 . S
C390 C386 1.531 . S
C390 H402 0.960 . S
C390 H403 0.962 . S
C390 H404 0.960 . S
C391 C388 1.511 . S
C391 H405 0.961 . S
C391 H406 0.961 . S
C391 H407 0.961 . S
C392 C393 1.370 . S
C392 C394 1.363 . S
C392 H408 0.931 . S
C393 C392 1.370 . S
C393 C397 1.408 . S
C394 C392 1.363 . S
C394 C395 1.370 . S
C394 C398 1.524 . S
C395 C387 1.503 . S
C395 C394 1.370 . S
C395 C396 1.403 . S
C396 C395 1.403 . S
C396 C397 1.404 . S
C396 C399 1.539 . S
C397 C393 1.408 . S
C397 C396 1.404 . S
C397 H409 0.930 . S
C398 C394 1.524 . S
C398 H410 0.956 . S
C398 H411 0.961 . S
C398 H412 0.961 . S
C399 C396 1.539 . S
C399 H413 0.958 . S
C399 H414 0.961 . S
C399 H415 0.960 . S
H400 C384 0.931 . S
H401 C389 0.929 . S
H402 C390 0.960 . S
H403 C390 0.962 . S
H404 C390 0.960 . S
H405 C391 0.961 . S
H406 C391 0.961 . S
H407 C391 0.961 . S
H408 C392 0.931 . S
H409 C397 0.930 . S
H410 C398 0.956 . S
H411 C398 0.961 . S
H412 C398 0.961 . S
H413 C399 0.958 . S
H414 C399 0.961 . S
H415 C399 0.960 . S
C416 C417 1.391 . S
C416 C418 1.394 . S
C416 H432 0.931 . S
C417 C416 1.391 . S
C417 C421 1.376 . S
C418 C416 1.394 . S
C418 C419 1.369 . S
C418 C422 1.531 . S
C419 C418 1.369 . S
C419 C420 1.410 . S
C419 C427 1.503 . S
C420 C419 1.410 . S
C420 C421 1.392 . S
C420 C423 1.511 . S
C421 C417 1.376 . S
C421 C420 1.392 . S
C421 H433 0.929 . S
C422 C418 1.531 . S
C422 H434 0.960 . S
C422 H435 0.962 . S
C422 H436 0.960 . S
C423 C420 1.511 . S
C423 H437 0.961 . S
C423 H438 0.961 . S
C423 H439 0.961 . S
C424 C425 1.370 . S
C424 C426 1.363 . S
C424 H440 0.931 . S
C425 C424 1.370 . S
C425 C429 1.408 1_655 S
C426 C424 1.363 . S
C426 C427 1.370 . S
C426 C430 1.524 . S
C427 C419 1.503 . S
C427 C426 1.370 . S
C427 C428 1.403 1_655 S
C428 C427 1.403 1_455 S
C428 C429 1.404 . S
C428 C431 1.539 . S
C429 C425 1.408 1_455 S
C429 C428 1.404 . S
C429 H441 0.930 . S
C430 C426 1.524 . S
C430 H442 0.956 . S
C430 H443 0.961 . S
C430 H444 0.961 . S
C431 C428 1.539 . S
C431 H445 0.958 . S
C431 H446 0.961 . S
C431 H447 0.960 . S
H432 C416 0.931 . S
H433 C421 0.929 . S
H434 C422 0.960 . S
H435 C422 0.962 . S
H436 C422 0.960 . S
H437 C423 0.961 . S
H438 C423 0.961 . S
H439 C423 0.961 . S
H440 C424 0.931 . S
H441 C429 0.930 . S
H442 C430 0.956 . S
H443 C430 0.961 . S
H444 C430 0.961 . S
H445 C431 0.958 . S
H446 C431 0.961 . S
H447 C431 0.960 . S
C448 C449 1.391 . S
C448 C450 1.394 . S
C448 H464 0.931 . S
C449 C448 1.391 . S
C449 C453 1.376 . S
C450 C448 1.394 . S
C450 C451 1.369 . S
C450 C454 1.531 1_655 S
C451 C450 1.369 . S
C451 C452 1.410 . S
C451 C459 1.503 . S
C452 C451 1.410 . S
C452 C453 1.392 . S
C452 C455 1.511 . S
C453 C449 1.376 . S
C453 C452 1.392 . S
C453 H465 0.929 . S
C454 C450 1.531 1_455 S
C454 H466 0.960 . S
C454 H467 0.962 . S
C454 H468 0.960 . S
C455 C452 1.511 . S
C455 H469 0.961 . S
C455 H470 0.961 . S
C455 H471 0.961 . S
C456 C457 1.370 . S
C456 C458 1.363 . S
C456 H472 0.931 . S
C457 C456 1.370 . S
C457 C461 1.408 . S
C458 C456 1.363 . S
C458 C459 1.370 . S
C458 C462 1.524 . S
C459 C451 1.503 . S
C459 C458 1.370 . S
C459 C460 1.403 . S
C460 C459 1.403 . S
C460 C461 1.404 . S
C460 C463 1.539 . S
C461 C457 1.408 . S
C461 C460 1.404 . S
C461 H473 0.930 . S
C462 C458 1.524 . S
C462 H474 0.956 . S
C462 H475 0.961 . S
C462 H476 0.961 . S
C463 C460 1.539 . S
C463 H477 0.958 . S
C463 H478 0.961 . S
C463 H479 0.960 . S
H464 C448 0.931 . S
H465 C453 0.929 . S
H466 C454 0.960 . S
H467 C454 0.962 . S
H468 C454 0.960 . S
H469 C455 0.961 . S
H470 C455 0.961 . S
H471 C455 0.961 . S
H472 C456 0.931 . S
H473 C461 0.930 . S
H474 C462 0.956 . S
H475 C462 0.961 . S
H476 C462 0.961 . S
H477 C463 0.958 . S
H478 C463 0.961 . S
H479 C463 0.960 . S
C480 C481 1.391 . S
C480 C482 1.394 . S
C480 H496 0.931 . S
C481 C480 1.391 . S
C481 C485 1.376 . S
C482 C480 1.394 . S
C482 C483 1.369 . S
C482 C486 1.531 . S
C483 C482 1.369 . S
C483 C484 1.410 . S
C483 C491 1.503 . S
C484 C483 1.410 . S
C484 C485 1.392 . S
C484 C487 1.511 . S
C485 C481 1.376 . S
C485 C484 1.392 . S
C485 H497 0.929 1_455 S
C486 C482 1.531 . S
C486 H498 0.960 . S
C486 H499 0.962 . S
C486 H500 0.960 . S
C487 C484 1.511 . S
C487 H501 0.961 . S
C487 H502 0.961 . S
C487 H503 0.961 . S
C488 C489 1.370 . S
C488 C490 1.363 . S
C488 H504 0.931 . S
C489 C488 1.370 . S
C489 C493 1.408 . S
C490 C488 1.363 . S
C490 C491 1.370 . S
C490 C494 1.524 1_455 S
C491 C483 1.503 . S
C491 C490 1.370 . S
C491 C492 1.403 . S
C492 C491 1.403 . S
C492 C493 1.404 . S
C492 C495 1.539 . S
C493 C489 1.408 . S
C493 C492 1.404 . S
C493 H505 0.930 . S
C494 C490 1.524 1_655 S
C494 H506 0.956 . S
C494 H507 0.961 . S
C494 H508 0.961 . S
C495 C492 1.539 . S
C495 H509 0.958 . S
C495 H510 0.961 . S
C495 H511 0.960 . S
H496 C480 0.931 . S
H497 C485 0.929 1_655 S
H498 C486 0.960 . S
H499 C486 0.962 . S
H500 C486 0.960 . S
H501 C487 0.961 . S
H502 C487 0.961 . S
H503 C487 0.961 . S
H504 C488 0.931 . S
H505 C493 0.930 . S
H506 C494 0.956 . S
H507 C494 0.961 . S
H508 C494 0.961 . S
H509 C495 0.958 . S
H510 C495 0.961 . S
H511 C495 0.960 . S
C512 C513 1.391 . S
C512 C514 1.394 . S
C512 H528 0.931 . S
C513 C512 1.391 . S
C513 C517 1.376 . S
C514 C512 1.394 . S
C514 C515 1.369 . S
C514 C518 1.531 . S
C515 C514 1.369 . S
C515 C516 1.410 . S
C515 C523 1.503 . S
C516 C515 1.410 . S
C516 C517 1.392 . S
C516 C519 1.511 . S
C517 C513 1.376 . S
C517 C516 1.392 . S
C517 H529 0.929 . S
C518 C514 1.531 . S
C518 H530 0.960 1_455 S
C518 H531 0.962 . S
C518 H532 0.960 . S
C519 C516 1.511 . S
C519 H533 0.961 . S
C519 H534 0.961 . S
C519 H535 0.961 . S
C520 C521 1.370 . S
C520 C522 1.363 . S
C520 H536 0.931 . S
C521 C520 1.370 . S
C521 C525 1.408 1_455 S
C522 C520 1.363 . S
C522 C523 1.370 . S
C522 C526 1.524 . S
C523 C515 1.503 . S
C523 C522 1.370 . S
C523 C524 1.403 1_455 S
C524 C523 1.403 1_655 S
C524 C525 1.404 . S
C524 C527 1.539 . S
C525 C521 1.408 1_655 S
C525 C524 1.404 . S
C525 H537 0.930 . S
C526 C522 1.524 . S
C526 H538 0.956 . S
C526 H539 0.961 . S
C526 H540 0.961 . S
C527 C524 1.539 . S
C527 H541 0.958 . S
C527 H542 0.961 . S
C527 H543 0.960 . S
H528 C512 0.931 . S
H529 C517 0.929 . S
H530 C518 0.960 1_655 S
H531 C518 0.962 . S
H532 C518 0.960 . S
H533 C519 0.961 . S
H534 C519 0.961 . S
H535 C519 0.961 . S
H536 C520 0.931 . S
H537 C525 0.930 . S
H538 C526 0.956 . S
H539 C526 0.961 . S
H540 C526 0.961 . S
H541 C527 0.958 . S
H542 C527 0.961 . S
H543 C527 0.960 . S
C161 C55 1.499 . S
C169 C2 1.514 1_556 S
C193 C82 1.520 . S
C201 C135 1.512 . S
C225 C15 1.526 1_554 S
C233 C42 1.508 . S
C257 C122 1.526 . S
C265 C95 1.509 . S
C289 C129 1.297 . S
C297 C22 1.294 . S
C321 C49 1.299 . S
C329 C102 1.294 . S
C353 C43 1.303 . S
C361 C106 1.307 . S
C385 C123 1.295 . S
C393 C26 1.301 . S
C417 C62 1.306 . S
C425 C89 1.296 1_655 S
C449 C142 1.294 . S
C457 C9 1.295 1_655 S
C481 C146 1.302 1_455 S
C489 C3 1.301 . S
C513 C83 1.306 . S
C521 C66 1.305 1_455 S
