# Generated by pormake.
# Topology whz, (6)-cn, num edge types: 1
# Building blocks:
#     Node 0, Type 0, BuildingBlock: BETGAK_clean_sbu_0, # of connection points: 6
#     Node 1, Type 0, BuildingBlock: BETGAK_clean_sbu_0, # of connection points: 6
#     Node 2, Type 0, BuildingBlock: BETGAK_clean_sbu_0, # of connection points: 6
#     Node 3, Type 0, BuildingBlock: BETGAK_clean_sbu_0, # of connection points: 6
#     Node 4, Type 0, BuildingBlock: BETGAK_clean_sbu_0, # of connection points: 6
#     Node 5, Type 0, BuildingBlock: BETGAK_clean_sbu_0, # of connection points: 6
#     Node 6, Type 0, BuildingBlock: BETGAK_clean_sbu_0, # of connection points: 6
#     Node 7, Type 0, BuildingBlock: BETGAK_clean_sbu_0, # of connection points: 6
#     Node 8, Type 0, BuildingBlock: BETGAK_clean_sbu_0, # of connection points: 6
#     Node 9, Type 0, BuildingBlock: BETGAK_clean_sbu_0, # of connection points: 6
#     Node 10, Type 0, BuildingBlock: BETGAK_clean_sbu_0, # of connection points: 6
#     Node 11, Type 0, BuildingBlock: BETGAK_clean_sbu_0, # of connection points: 6
#     Node 12, Type 0, BuildingBlock: BETGAK_clean_sbu_0, # of connection points: 6
#     Node 13, Type 0, BuildingBlock: BETGAK_clean_sbu_0, # of connection points: 6
#     Node 14, Type 0, BuildingBlock: BETGAK_clean_sbu_0, # of connection points: 6
#     Node 15, Type 0, BuildingBlock: BETGAK_clean_sbu_0, # of connection points: 6
#     Edge 16, Type (0, 0), BuildingBlock: AJUNOK_clean_linker_0, # of connection points: 2
#     Edge 17, Type (0, 0), BuildingBlock: AJUNOK_clean_linker_0, # of connection points: 2
#     Edge 18, Type (0, 0), BuildingBlock: AJUNOK_clean_linker_0, # of connection points: 2
#     Edge 19, Type (0, 0), BuildingBlock: AJUNOK_clean_linker_0, # of connection points: 2
#     Edge 20, Type (0, 0), BuildingBlock: AJUNOK_clean_linker_0, # of connection points: 2
#     Edge 21, Type (0, 0), BuildingBlock: AJUNOK_clean_linker_0, # of connection points: 2
#     Edge 22, Type (0, 0), BuildingBlock: AJUNOK_clean_linker_0, # of connection points: 2
#     Edge 23, Type (0, 0), BuildingBlock: AJUNOK_clean_linker_0, # of connection points: 2
#     Edge 24, Type (0, 0), BuildingBlock: AJUNOK_clean_linker_0, # of connection points: 2
#     Edge 25, Type (0, 0), BuildingBlock: AJUNOK_clean_linker_0, # of connection points: 2
#     Edge 26, Type (0, 0), BuildingBlock: AJUNOK_clean_linker_0, # of connection points: 2
#     Edge 27, Type (0, 0), BuildingBlock: AJUNOK_clean_linker_0, # of connection points: 2
#     Edge 28, Type (0, 0), BuildingBlock: AJUNOK_clean_linker_0, # of connection points: 2
#     Edge 29, Type (0, 0), BuildingBlock: AJUNOK_clean_linker_0, # of connection points: 2
#     Edge 30, Type (0, 0), BuildingBlock: AJUNOK_clean_linker_0, # of connection points: 2
#     Edge 31, Type (0, 0), BuildingBlock: AJUNOK_clean_linker_0, # of connection points: 2
#     Edge 32, Type (0, 0), BuildingBlock: AJUNOK_clean_linker_0, # of connection points: 2
#     Edge 33, Type (0, 0), BuildingBlock: AJUNOK_clean_linker_0, # of connection points: 2
#     Edge 34, Type (0, 0), BuildingBlock: AJUNOK_clean_linker_0, # of connection points: 2
#     Edge 35, Type (0, 0), BuildingBlock: AJUNOK_clean_linker_0, # of connection points: 2
#     Edge 36, Type (0, 0), BuildingBlock: AJUNOK_clean_linker_0, # of connection points: 2
#     Edge 37, Type (0, 0), BuildingBlock: AJUNOK_clean_linker_0, # of connection points: 2
#     Edge 38, Type (0, 0), BuildingBlock: AJUNOK_clean_linker_0, # of connection points: 2
#     Edge 39, Type (0, 0), BuildingBlock: AJUNOK_clean_linker_0, # of connection points: 2
#     Edge 40, Type (0, 0), BuildingBlock: AJUNOK_clean_linker_0, # of connection points: 2
#     Edge 41, Type (0, 0), BuildingBlock: AJUNOK_clean_linker_0, # of connection points: 2
#     Edge 42, Type (0, 0), BuildingBlock: AJUNOK_clean_linker_0, # of connection points: 2
#     Edge 43, Type (0, 0), BuildingBlock: AJUNOK_clean_linker_0, # of connection points: 2
#     Edge 44, Type (0, 0), BuildingBlock: AJUNOK_clean_linker_0, # of connection points: 2
#     Edge 45, Type (0, 0), BuildingBlock: AJUNOK_clean_linker_0, # of connection points: 2
#     Edge 46, Type (0, 0), BuildingBlock: AJUNOK_clean_linker_0, # of connection points: 2
#     Edge 47, Type (0, 0), BuildingBlock: AJUNOK_clean_linker_0, # of connection points: 2
#     Edge 48, Type (0, 0), BuildingBlock: AJUNOK_clean_linker_0, # of connection points: 2
#     Edge 49, Type (0, 0), BuildingBlock: AJUNOK_clean_linker_0, # of connection points: 2
#     Edge 50, Type (0, 0), BuildingBlock: AJUNOK_clean_linker_0, # of connection points: 2
#     Edge 51, Type (0, 0), BuildingBlock: AJUNOK_clean_linker_0, # of connection points: 2
#     Edge 52, Type (0, 0), BuildingBlock: AJUNOK_clean_linker_0, # of connection points: 2
#     Edge 53, Type (0, 0), BuildingBlock: AJUNOK_clean_linker_0, # of connection points: 2
#     Edge 54, Type (0, 0), BuildingBlock: AJUNOK_clean_linker_0, # of connection points: 2
#     Edge 55, Type (0, 0), BuildingBlock: AJUNOK_clean_linker_0, # of connection points: 2
#     Edge 56, Type (0, 0), BuildingBlock: AJUNOK_clean_linker_0, # of connection points: 2
#     Edge 57, Type (0, 0), BuildingBlock: AJUNOK_clean_linker_0, # of connection points: 2
#     Edge 58, Type (0, 0), BuildingBlock: AJUNOK_clean_linker_0, # of connection points: 2
#     Edge 59, Type (0, 0), BuildingBlock: AJUNOK_clean_linker_0, # of connection points: 2
#     Edge 60, Type (0, 0), BuildingBlock: AJUNOK_clean_linker_0, # of connection points: 2
#     Edge 61, Type (0, 0), BuildingBlock: AJUNOK_clean_linker_0, # of connection points: 2
#     Edge 62, Type (0, 0), BuildingBlock: AJUNOK_clean_linker_0, # of connection points: 2
#     Edge 63, Type (0, 0), BuildingBlock: AJUNOK_clean_linker_0, # of connection points: 2
# Relax obj value: 0.927
# Max RMSD: 0.340
# Mean RMSD: 0.340
data_MOF--net-whz--node1-BETGAK_clean_sbu_0--edge1-AJUNOK_clean_linker_0
_symmetry_space_group_name_H-M    P1
_symmetry_Int_Tables_number       1
_symmetry_cell_setting            triclinic
loop_
_symmetry_equiv_pos_as_xyz
'x, y, z'
_cell_length_a     25.543259
_cell_length_b     25.568073
_cell_length_c     56.61234
_cell_angle_alpha  90.268035
_cell_angle_beta   89.62417
_cell_angle_gamma 90.296515
loop_
_atom_site_label
_atom_site_type_symbol
_atom_site_fract_x
_atom_site_fract_y
_atom_site_fract_z
_atom_type_partial_charge
La0 La 0.35335 0.26656 0.21104 0.0
La1 La 0.35805 0.21004 0.16537 0.0
C2 C 0.35972 0.30258 0.2516 0.0
C3 C 0.38761 0.34772 0.26166 0.0
C4 C 0.36991 0.39912 0.25756 0.0
C5 C 0.3717 0.43462 0.27653 0.0
C6 C 0.37752 0.41197 0.29894 0.0
C7 C 0.42131 0.37838 0.29888 0.0
C8 C 0.42124 0.34005 0.28099 0.0
C9 C 0.33038 0.32759 0.17405 0.0
C10 C 0.45882 0.26587 0.18371 0.0
C11 C 0.35311 0.18228 0.12236 0.0
C12 C 0.32592 0.1786 0.09916 0.0
C13 C 0.34176 0.13959 0.08323 0.0
C14 C 0.32337 0.13857 1.05996 0.0
C15 C 0.28738 0.17601 1.05172 0.0
C16 C 0.27117 0.21509 0.0679 0.0
C17 C 0.29068 0.21672 0.09121 0.0
C18 C 0.39303 0.15864 0.20381 0.0
C19 C 0.25426 0.1997 0.19667 0.0
O20 O 0.31992 0.31239 0.23772 0.0
O21 O 0.38912 0.26401 0.24415 0.0
O22 O 0.36256 0.33871 0.19089 0.0
O23 O 0.31827 0.28021 0.17713 0.0
O24 O 0.4371 0.26227 0.20469 0.0
O25 O 0.43093 0.25652 0.16462 0.0
O26 O 0.34037 0.15114 0.13989 0.0
O27 O 0.36756 0.22879 0.12966 0.0
O28 O 0.41404 0.15345 0.18293 0.0
O29 O 0.35551 0.18827 0.2013 0.0
O30 O 0.27547 0.1954 0.17515 0.0
O31 O 0.27956 0.22276 0.21432 0.0
H32 H 0.34923 0.40941 0.24162 0.0
H33 H 0.35437 0.4729 0.27468 0.0
H34 H 0.44192 0.37043 0.31512 0.0
H35 H 0.44047 0.30297 0.28387 0.0
H36 H 0.37007 0.11058 0.08857 0.0
H37 H 0.33852 0.10856 1.04827 0.0
H38 H 0.24252 0.2439 1.06291 0.0
H39 H 0.27821 0.2478 0.103 0.0
La40 La 0.61095 0.59857 0.45847 0.0
La41 La 0.67 0.60089 0.41537 0.0
C42 C 0.56901 0.60027 0.49824 0.0
C43 C 0.53868 0.64029 0.51103 0.0
C44 C 0.48366 0.63558 0.51303 0.0
C45 C 0.45966 0.65307 0.53405 0.0
C46 C 0.49366 0.66087 0.55325 0.0
C47 C 0.53669 0.69241 0.54654 0.0
C48 C 0.56395 0.676 0.52627 0.0
C49 C 0.55522 0.56724 0.42183 0.0
C50 C 0.60586 0.70346 0.4317 0.0
C51 C 0.69316 0.60844 0.3717 0.0
C52 C 0.69942 0.58199 0.34824 0.0
C53 C 0.74027 0.59794 0.33316 0.0
C54 C 0.7428 0.5806 0.30959 0.0
C55 C 0.70453 0.54646 0.30019 0.0
C56 C 0.66413 0.52956 0.31559 0.0
C57 C 0.66155 0.54713 0.33922 0.0
C58 C 0.72268 0.632 0.45415 0.0
C59 C 0.68563 0.50214 0.4451 0.0
O60 O 0.54668 0.57897 0.47986 0.0
O61 O 0.619 0.60948 0.49497 0.0
O62 O 0.54246 0.60397 0.43643 0.0
O63 O 0.60224 0.55473 0.42609 0.0
O64 O 0.60123 0.68142 0.45253 0.0
O65 O 0.62856 0.67769 0.41403 0.0
O66 O 0.72814 0.60191 0.38825 0.0
O67 O 0.64582 0.6117 0.38047 0.0
O68 O 0.743 0.60494 0.43697 0.0
O69 O 0.67685 0.64234 0.44825 0.0
O70 O 0.68663 0.51996 0.42327 0.0
O71 O 0.66044 0.52789 0.46213 0.0
H72 H 0.4611 0.61277 0.50051 0.0
H73 H 0.41901 0.64288 0.53719 0.0
H74 H 0.5564 0.71724 0.55923 0.0
H75 H 0.60487 0.68634 0.52408 0.0
H76 H 0.7696 0.62536 0.33942 0.0
H77 H 0.77455 0.59488 0.29859 0.0
H78 H 0.63497 0.50173 0.30964 0.0
H79 H 0.62938 0.53405 0.3503 0.0
La80 La 0.2794 0.83879 0.71227 0.0
La81 La 0.27455 0.89693 0.66742 0.0
C82 C 0.271 0.7865 0.74966 0.0
C83 C 0.23947 0.77729 0.77104 0.0
C84 C 0.26464 0.74509 0.78737 0.0
C85 C 0.28068 0.76713 0.80881 0.0
C86 C 0.26939 0.82 0.81334 0.0
C87 C 0.22697 0.84224 0.80138 0.0
C88 C 0.21121 0.82013 0.77991 0.0
C89 C 0.34073 0.80032 0.67801 0.0
C90 C 0.17514 0.83116 0.6811 0.0
C91 C 0.28876 0.91552 0.624 0.0
C92 C 0.30063 0.92379 0.59818 0.0
C93 C 0.26877 0.95489 0.58382 0.0
C94 C 0.27986 0.9608 0.55951 0.0
C95 C 0.32354 0.93627 0.54875 0.0
C96 C 0.35509 0.90488 0.56318 0.0
C97 C 0.34386 0.89876 0.58741 0.0
C98 C 0.24442 0.95128 0.7063 0.0
C99 C 0.36328 0.92537 0.70344 0.0
O100 O 0.25524 0.76874 0.72922 0.0
O101 O 0.29215 0.83318 0.74822 0.0
O102 O 0.35409 0.81015 0.69938 0.0
O103 O 0.29433 0.81677 0.67618 0.0
O104 O 0.19816 0.8219 0.7016 0.0
O105 O 0.19809 0.85917 0.66437 0.0
O106 O 0.24976 0.93647 0.63603 0.0
O107 O 0.31897 0.8857 0.63673 0.0
O108 O 0.26784 0.97178 0.68795 0.0
O109 O 0.2363 0.90407 0.7014 0.0
O110 O 0.35081 0.92085 0.68091 0.0
O111 O 0.33566 0.90154 0.72011 0.0
H112 H 0.28352 0.70943 0.78147 0.0
H113 H 0.31117 0.74766 0.81861 0.0
H114 H 0.21504 0.88182 0.80532 0.0
H115 H 0.18802 0.84366 0.76809 0.0
H116 H 0.23495 0.9744 0.59131 0.0
H117 H 0.25367 0.98436 0.54908 0.0
H118 H 0.38921 0.88563 0.55583 0.0
H119 H 0.36937 0.87424 0.59775 0.0
La120 La 1.02483 0.53393 0.95902 0.0
La121 La 0.96465 0.51651 0.91675 0.0
C122 C 0.08086 0.51999 0.99439 0.0
C123 C 0.09206 0.47464 1.00925 0.0
C124 C 0.13572 0.47862 1.02405 0.0
C125 C 0.12805 0.46955 1.04821 0.0
C126 C 0.07604 0.46283 1.05611 0.0
C127 C 1.04367 0.43391 1.04082 0.0
C128 C 1.0499 0.44291 1.01663 0.0
C129 C 0.068 0.5785 0.92194 0.0
C130 C 1.02642 0.42234 0.9336 0.0
C131 C 0.93092 0.53795 0.87597 0.0
C132 C 0.92634 0.54668 0.84992 0.0
C133 C 0.88018 0.53258 0.83802 0.0
C134 C 0.87244 0.54669 0.81427 0.0
C135 C 0.91073 0.57537 0.8017 0.0
C136 C 0.95675 0.5898 0.81375 0.0
C137 C 0.96453 0.57554 0.83741 0.0
C138 C 0.9179 0.48303 0.95685 0.0
C139 C 0.94351 0.62098 0.94881 0.0
O140 O 0.09909 0.51843 0.97289 0.0
O141 O 1.03293 0.53827 0.99564 0.0
O142 O 1.05832 0.60085 0.94193 0.0
O143 O 1.04778 0.53273 0.92247 0.0
O144 O 1.02414 0.44797 0.95394 0.0
O145 O 1.01162 0.44601 0.91411 0.0
O146 O 0.91682 0.49502 0.88706 0.0
O147 O 0.96491 0.56603 0.88773 0.0
O148 O 0.91076 0.46081 0.93631 0.0
O149 O 0.94524 0.52244 0.95314 0.0
O150 O 0.93381 0.59296 0.92943 0.0
O151 O 0.97846 0.60486 0.96436 0.0
H152 H 0.17071 0.49924 1.01833 0.0
H153 H 0.15783 0.48311 1.06024 0.0
H154 H 1.00595 0.41964 1.04691 0.0
H155 H 1.01714 0.43525 1.00503 0.0
H156 H 0.84939 0.5116 0.84728 0.0
H157 H 0.83631 0.53515 0.80576 0.0
H158 H 0.98633 0.61354 0.80511 0.0
H159 H 1.00003 0.58843 0.84608 0.0
La160 La 0.76905 0.91127 0.96176 0.0
La161 La 0.78191 0.85431 0.91756 0.0
C162 C 0.79368 0.94487 1.00252 0.0
C163 C 0.79989 0.94743 1.02878 0.0
C164 C 0.80425 0.9966 1.03986 0.0
C165 C 0.82006 1.00116 1.06357 0.0
C166 C 0.83212 0.95657 0.077 0.0
C167 C 0.82538 0.90713 0.06614 0.0
C168 C 0.80997 0.90263 1.04234 0.0
C169 C 0.7333 0.96037 0.92319 0.0
C170 C 0.8715 0.93287 0.92785 0.0
C171 C 0.7666 0.80365 0.88053 0.0
C172 C 0.7217 0.7805 0.86817 0.0
C173 C 0.72855 0.73005 0.85856 0.0
C174 C 0.71465 0.7224 0.83484 0.0
C175 C 0.70797 0.76844 0.82165 0.0
C176 C 0.67257 0.802 0.83341 0.0
C177 C 0.68495 0.81322 0.85707 0.0
C178 C 0.83125 0.81057 0.95285 0.0
C179 C 0.67326 0.8484 0.94581 0.0
O180 O 0.75144 0.96032 0.99153 0.0
O181 O 0.8193 0.90897 0.99075 0.0
O182 O 0.71206 0.96572 0.94405 0.0
O183 O 0.77275 0.93302 0.92577 0.0
O184 O 0.84593 0.94095 0.94817 0.0
O185 O 0.852 0.90113 0.91156 0.0
O186 O 0.77991 0.7817 0.90033 0.0
O187 O 0.77039 0.8549 0.88104 0.0
O188 O 0.85083 0.8209 0.93234 0.0
O189 O 0.78483 0.82906 0.95376 0.0
O190 O 0.69714 0.84931 0.92506 0.0
O191 O 0.69766 0.86452 0.96502 0.0
H192 H 0.79768 1.03191 1.02982 0.0
H193 H 0.8248 1.03989 0.07111 0.0
H194 H 0.83265 0.87171 0.07596 0.0
H195 H 0.80739 0.86411 1.03437 0.0
H196 H 0.75168 0.70083 0.86748 0.0
H197 H 0.72414 0.68579 0.82618 0.0
H198 H 0.65005 0.83015 0.82356 0.0
H199 H 0.6735 0.85037 0.86473 0.0
La200 La 0.46965 0.51301 0.71178 0.0
La201 La 0.52841 0.51903 0.66753 0.0
C202 C 0.44913 0.51552 0.75557 0.0
C203 C 0.42581 0.53965 0.77708 0.0
C204 C 0.41322 0.50706 0.79618 0.0
C205 C 0.4034 0.52804 0.81869 0.0
C206 C 0.40572 0.58239 0.82274 0.0
C207 C 0.41468 0.61527 0.80313 0.0
C208 C 0.42519 0.59414 0.78061 0.0
C209 C 0.41524 0.48626 0.6733 0.0
C210 C 0.44515 0.60512 0.67667 0.0
C211 C 0.58763 0.49968 0.63352 0.0
C212 C 0.60148 0.45305 0.61946 0.0
C213 C 0.6475 0.45786 0.6059 0.0
C214 C 0.64218 0.4593 0.58123 0.0
C215 C 0.59069 0.46064 0.57256 0.0
C216 C 0.55566 0.42694 0.58451 0.0
C217 C 0.5598 0.42529 0.60909 0.0
C218 C 0.56323 0.58419 0.70032 0.0
C219 C 0.53047 0.41151 0.69649 0.0
O220 O 0.42031 0.48961 0.74035 0.0
O221 O 0.48815 0.54038 0.74549 0.0
O222 O 0.39543 0.51111 0.69138 0.0
O223 O 0.46201 0.47571 0.67799 0.0
O224 O 0.44781 0.59075 0.69918 0.0
O225 O 0.46898 0.57809 0.65962 0.0
O226 O 0.60419 0.50143 0.6553 0.0
O227 O 0.53957 0.51742 0.6311 0.0
O228 O 0.555 0.59536 0.67856 0.0
O229 O 0.54941 0.53679 0.70335 0.0
O230 O 0.54086 0.43717 0.67685 0.0
O231 O 0.50369 0.43402 0.71375 0.0
H232 H 0.41408 0.46493 0.79404 0.0
H233 H 0.39666 0.50131 0.83319 0.0
H234 H 0.4149 0.65737 0.80526 0.0
H235 H 0.43494 0.62029 0.76623 0.0
H236 H 0.68293 0.47359 0.61368 0.0
H237 H 0.67409 0.47554 0.57086 0.0
H238 H 0.5183 0.41639 0.57688 0.0
H239 H 0.52529 0.41531 0.61931 0.0
La240 La 0.85937 0.2126 0.46067 0.0
La241 La 0.84764 0.25543 0.41311 0.0
C242 C 0.83994 0.19655 0.50394 0.0
C243 C 0.82664 0.1897 0.52965 0.0
C244 C 0.84478 0.14664 0.54252 0.0
C245 C 0.8299 0.13946 0.56631 0.0
C246 C 0.79608 0.1749 0.57798 0.0
C247 C 0.77991 0.21919 0.56536 0.0
C248 C 0.79452 0.22622 0.54155 0.0
C249 C 0.89199 0.15321 0.4235 0.0
C250 C 0.7546 0.18444 0.43147 0.0
C251 C 0.87291 0.27742 0.37145 0.0
C252 C 0.88722 0.32851 0.36194 0.0
C253 C 0.88104 0.37198 0.37701 0.0
C254 C 0.85384 0.41551 0.36886 0.0
C255 C 0.83337 0.41415 0.34595 0.0
C256 C 0.85621 0.37931 0.32945 0.0
C257 C 0.88218 0.33526 0.33764 0.0
C258 C 0.80114 0.31536 0.44392 0.0
C259 C 0.95454 0.27737 0.44348 0.0
O260 O 0.87118 0.16616 0.49154 0.0
O261 O 0.82049 0.23517 0.49179 0.0
O262 O 0.91672 0.15542 0.44361 0.0
O263 O 0.85283 0.18084 0.42618 0.0
O264 O 0.78049 0.18289 0.45172 0.0
O265 O 0.77483 0.20904 0.41299 0.0
O266 O 0.82445 0.27515 0.379 0.0
O267 O 0.90544 0.25686 0.3864 0.0
O268 O 0.78865 0.3103 0.42198 0.0
O269 O 0.84479 0.29209 0.44749 0.0
O270 O 0.92764 0.28202 0.42357 0.0
O271 O 0.93351 0.25405 0.46197 0.0
H272 H 0.86996 0.118 0.53414 0.0
H273 H 0.84462 0.10562 0.57552 0.0
H274 H 0.75414 0.24748 0.57362 0.0
H275 H 0.77989 0.26012 0.53234 0.0
H276 H 0.88674 0.36798 0.39586 0.0
H277 H 0.83925 0.44366 0.38159 0.0
H278 H 0.84402 0.37894 0.31115 0.0
H279 H 0.88872 0.30281 0.3256 0.0
La280 La 0.16428 0.59681 0.2102 0.0
La281 La 0.10355 0.5897 0.16623 0.0
C282 C 0.18173 0.58395 0.25348 0.0
C283 C 0.18592 0.57315 0.27936 0.0
C284 C 0.22787 0.59189 0.29294 0.0
C285 C 0.23266 0.57758 0.31684 0.0
C286 C 0.19568 0.54407 0.32782 0.0
C287 C 0.15319 0.52641 0.31423 0.0
C288 C 0.14812 0.54115 0.29052 0.0
C289 C 0.21859 0.61804 0.16994 0.0
C290 C 0.18305 0.499 0.17732 0.0
C291 C 1.04992 0.61204 0.13084 0.0
C292 C 1.01622 0.65473 0.12256 0.0
C293 C 0.96153 0.6466 0.12333 0.0
C294 C 0.93378 0.65126 0.10211 0.0
C295 C 0.96448 0.65357 0.08146 0.0
C296 C 1.00533 0.69071 0.08375 0.0
C297 C 1.03572 0.68646 0.10418 0.0
C298 C 0.06512 0.53217 0.2004 0.0
C299 C 0.0952 0.69326 0.19869 0.0
O300 O 0.20569 0.62126 0.24148 0.0
O301 O 0.15012 0.55499 0.24079 0.0
O302 O 0.23932 0.59912 0.1891 0.0
O303 O 0.17208 0.62938 0.17522 0.0
O304 O 0.18337 0.51751 0.1991 0.0
O305 O 0.15772 0.52345 0.16028 0.0
O306 O 1.03244 0.58342 0.14823 0.0
O307 O 0.10006 0.62131 0.13216 0.0
O308 O 0.07305 0.51664 0.17892 0.0
O309 O 0.08273 0.57879 0.20236 0.0
O310 O 0.0779 0.66526 0.18065 0.0
O311 O 0.13073 0.67496 0.21327 0.0
H312 H 0.25756 0.61669 0.28499 0.0
H313 H 0.26585 0.59232 0.32669 0.0
H314 H 0.1248 0.4993 0.32154 0.0
H315 H 0.1152 0.52577 0.28067 0.0
H316 H 0.94286 0.62745 0.13817 0.0
H317 H 0.89375 0.63724 0.10137 0.0
H318 H 1.02289 0.70862 0.0683 0.0
H319 H 0.07624 0.69918 0.10371 0.0
La320 La 0.85427 0.7672 0.70968 0.0
La321 La 0.85071 0.70504 0.66687 0.0
C322 C 0.85815 0.81148 0.74888 0.0
C323 C 0.89397 0.84901 0.7603 0.0
C324 C 0.87629 0.90029 0.76488 0.0
C325 C 0.88784 0.92239 0.78702 0.0
C326 C 0.90273 0.88638 0.80453 0.0
C327 C 0.94409 0.85502 0.79616 0.0
C328 C 0.93556 0.83047 0.77423 0.0
C329 C 0.82209 0.82094 0.67286 0.0
C330 C 0.95689 0.76782 0.6807 0.0
C331 C 0.85343 0.68156 0.62327 0.0
C332 C 0.82637 0.67045 0.60052 0.0
C333 C 0.84772 0.63222 0.58552 0.0
C334 C 0.82949 0.6255 0.56241 0.0
C335 C 0.78812 0.65591 0.55357 0.0
C336 C 0.76597 0.69381 0.56885 0.0
C337 C 0.78507 0.70123 0.59198 0.0
C338 C 0.87852 0.65219 0.70512 0.0
C339 C 0.75476 0.69453 0.69977 0.0
O340 O 0.82979 0.82892 0.73151 0.0
O341 O 0.87542 0.76394 0.74527 0.0
O342 O 0.86014 0.83397 0.68661 0.0
O343 O 0.80883 0.77452 0.67802 0.0
O344 O 0.93524 0.78081 0.70093 0.0
O345 O 0.93131 0.73901 0.66492 0.0
O346 O 0.85258 0.64666 0.64015 0.0
O347 O 0.85279 0.72946 0.63152 0.0
O348 O 0.85124 0.63226 0.68798 0.0
O349 O 0.89219 0.69773 0.69941 0.0
O350 O 0.77023 0.69084 0.67752 0.0
O351 O 0.78322 0.71945 0.71579 0.0
H352 H 0.84821 0.91922 0.75355 0.0
H353 H 0.86945 0.95898 0.79188 0.0
H354 H 0.97164 0.83814 0.80837 0.0
H355 H 0.95509 0.79396 0.77023 0.0
H356 H 0.88039 0.60881 0.59135 0.0
H357 H 0.84952 0.59753 0.55122 0.0
H358 H 0.73414 0.71812 0.56287 0.0
H359 H 0.76829 0.7317 0.60297 0.0
La360 La 0.10608 0.09028 0.95888 0.0
La361 La 0.16278 0.10905 0.91497 0.0
C362 C 1.05335 0.09865 0.99591 0.0
C363 C 1.0272 0.14235 1.00808 0.0
C364 C 0.97923 0.13189 1.01955 0.0
C365 C 0.97344 0.14879 1.0431 0.0
C366 C 1.01907 0.16788 1.05413 0.0
C367 C 1.04868 0.20174 1.03965 0.0
C368 C 1.05725 0.18483 1.01641 0.0
C369 C 0.06334 1.04232 0.92271 0.0
C370 C 0.09849 0.20284 0.93384 0.0
C371 C 0.1937 0.10812 0.87219 0.0
C372 C 0.20666 0.08053 0.84967 0.0
C373 C 0.2241 0.11094 0.83062 0.0
C374 C 0.23085 0.08915 0.80806 0.0
C375 C 0.2221 1.03542 0.80374 0.0
C376 C 0.20425 1.00484 0.823 0.0
C377 C 0.19625 1.02717 0.84564 0.0
C378 C 0.20746 0.14594 0.9548 0.0
C379 C 0.18467 1.00376 0.94409 0.0
O380 O 1.03315 0.08384 0.97591 0.0
O381 O 0.1048 0.09881 0.99564 0.0
O382 O 0.07494 1.02112 0.94263 0.0
O383 O 0.08137 0.08895 0.92276 0.0
O384 O 0.09518 0.17542 0.95356 0.0
O385 O 0.12015 0.18233 0.91481 0.0
O386 O 0.2257 0.1069 0.89018 0.0
O387 O 0.14469 0.10848 0.8789 0.0
O388 O 0.21026 0.17026 0.93465 0.0
O389 O 0.1843 0.10413 0.951 0.0
O390 O 0.1831 1.02604 0.92283 0.0
O391 O 0.16166 1.02626 0.96261 0.0
H392 H 0.95259 0.10246 1.01273 0.0
H393 H 0.94259 0.13117 1.05364 0.0
H394 H 0.07691 0.22854 1.04725 0.0
H395 H 0.0919 0.19814 1.00702 0.0
H396 H 0.23073 0.15254 0.83298 0.0
H397 H 0.24131 0.11539 0.79385 0.0
H398 H 0.19626 0.96364 0.82068 0.0
H399 H 0.18146 1.00294 0.85987 0.0
La400 La 0.78455 0.34108 0.21454 0.0
La401 La 0.77325 0.39664 0.16894 0.0
C402 C 0.76773 0.29391 0.25268 0.0
C403 C 0.72243 0.28987 0.26854 0.0
C404 C 0.72979 0.26741 0.2907 0.0
C405 C 0.70224 0.28719 0.3101 0.0
C406 C 0.67106 0.33208 0.30717 0.0
C407 C 0.65138 0.34169 0.28449 0.0
C408 C 0.67882 0.32213 0.26497 0.0
C409 C 0.83635 0.29741 0.17978 0.0
C410 C 0.67772 0.33399 0.1851 0.0
C411 C 0.79393 0.41841 0.12646 0.0
C412 C 0.80838 0.42754 0.10116 0.0
C413 C 0.7873 0.46924 0.08833 0.0
C414 C 0.80081 0.4766 1.06443 0.0
C415 C 0.83609 0.4427 1.05274 0.0
C416 C 0.85635 0.40049 0.06552 0.0
C417 C 0.84267 0.39299 0.08934 0.0
C418 C 0.73335 0.44612 0.20711 0.0
C419 C 0.87264 0.4226 0.20263 0.0
O420 O 0.76361 0.27151 0.23198 0.0
O421 O 0.78801 0.34103 0.25136 0.0
O422 O 0.85305 0.30374 0.20103 0.0
O423 O 0.79023 0.31585 0.17834 0.0
O424 O 0.70038 0.33666 0.20604 0.0
O425 O 0.70253 0.35006 0.16602 0.0
O426 O 0.75669 0.44252 0.13828 0.0
O427 O 0.81982 0.38452 0.139 0.0
O428 O 0.71563 0.45259 0.18573 0.0
O429 O 0.77306 0.41861 0.20506 0.0
O430 O 0.84872 0.42857 0.18196 0.0
O431 O 0.85292 0.39196 0.21939 0.0
H432 H 0.7621 0.24096 0.29368 0.0
H433 H 0.71549 0.27579 0.32747 0.0
H434 H 0.62482 0.37398 0.28174 0.0
H435 H 0.6713 0.33897 0.24788 0.0
H436 H 0.76038 0.49623 0.09674 0.0
H437 H 0.78356 0.50903 1.05508 0.0
H438 H 0.88386 0.37389 1.05725 0.0
H439 H 0.85943 0.36014 0.09857 0.0
La440 La 0.50011 1.01799 0.46456 0.0
La441 La 0.46044 1.01313 0.41673 0.0
C442 C 0.51868 0.98489 0.5052 0.0
C443 C 0.56461 0.96292 0.51706 0.0
C444 C 0.61347 0.98042 0.50854 0.0
C445 C 0.64199 1.01506 0.52275 0.0
C446 C 0.62215 1.02745 0.54526 0.0
C447 C 0.58817 0.99109 0.55608 0.0
C448 C 0.55859 0.95799 0.54156 0.0
C449 C 0.56264 0.06921 0.43597 0.0
C450 C 0.52696 0.91806 0.4314 0.0
C451 C 0.44494 1.03453 0.37373 0.0
C452 C 0.4387 1.04844 0.34819 0.0
C453 C 0.39262 1.03643 0.33578 0.0
C454 C 0.38739 1.0501 0.31182 0.0
C455 C 0.42821 0.07582 0.29947 0.0
C456 C 0.47434 0.08755 0.31192 0.0
C457 C 0.47948 0.07409 0.33586 0.0
C458 C 0.39824 0.97564 0.4517 0.0
C459 C 0.43334 0.11307 0.45015 0.0
O460 O 0.52461 1.03354 0.49843 0.0
O461 O 0.49494 0.95632 0.48932 0.0
O462 O 0.55272 0.08097 0.45779 0.0
O463 O 0.53945 1.02602 0.43091 0.0
O464 O 0.53125 0.94307 0.45177 0.0
O465 O 0.50192 0.93925 0.41361 0.0
O466 O 0.41151 1.00691 0.38627 0.0
O467 O 0.48586 1.05004 0.38567 0.0
O468 O 0.40314 0.95242 0.43125 0.0
O469 O 0.42581 1.01523 0.45065 0.0
O470 O 0.43547 0.09278 0.42842 0.0
O471 O 0.45077 0.08648 0.46841 0.0
H472 H 0.62144 0.98025 0.48972 0.0
H473 H 0.67093 1.04011 0.51438 0.0
H474 H 0.57481 0.99749 0.57406 0.0
H475 H 0.52333 0.94045 0.54884 0.0
H476 H 0.36041 1.01677 0.34462 0.0
H477 H 0.35115 1.0405 0.30293 0.0
H478 H 0.50609 0.10847 0.30335 0.0
H479 H 0.51556 0.08421 0.34478 0.0
La480 La 0.2726 0.40944 0.46066 0.0
La481 La 0.28473 0.35246 0.4165 0.0
C482 C 0.29378 0.43645 0.50255 0.0
C483 C 0.31025 0.45121 0.52703 0.0
C484 C 0.27409 0.46915 0.54403 0.0
C485 C 0.28922 0.47702 0.56771 0.0
C486 C 0.34121 0.46796 0.57501 0.0
C487 C 0.37743 0.45141 0.55767 0.0
C488 C 0.36223 0.44302 0.53417 0.0
C489 C 0.23672 0.45876 0.42234 0.0
C490 C 0.37597 0.42915 0.42712 0.0
C491 C 0.26694 0.29726 0.38097 0.0
C492 C 0.21933 0.27807 0.36922 0.0
C493 C 0.22352 0.23099 0.3564 0.0
C494 C 0.20882 0.23148 0.33252 0.0
C495 C 0.19712 0.28079 0.32288 0.0
C496 C 0.16676 0.31262 0.33796 0.0
C497 C 0.1821 0.31463 0.36163 0.0
C498 C 0.33192 0.308 0.4522 0.0
C499 C 0.17554 0.34911 0.44397 0.0
O500 O 0.25349 0.45561 0.49124 0.0
O501 O 0.32138 0.40336 0.49004 0.0
O502 O 0.21598 0.46446 0.4433 0.0
O503 O 0.27636 0.43146 0.42465 0.0
O504 O 0.35115 0.43676 0.44769 0.0
O505 O 0.35465 0.40015 0.4102 0.0
O506 O 0.27661 0.27767 0.40163 0.0
O507 O 0.27688 0.34771 0.37981 0.0
O508 O 0.35274 0.31809 0.4319 0.0
O509 O 0.28604 0.32742 0.45262 0.0
O510 O 0.19936 0.35267 0.42325 0.0
O511 O 0.20123 0.36206 0.46332 0.0
H512 H 0.2336 0.4752 0.53922 0.0
H513 H 0.25952 0.48834 0.58042 0.0
H514 H 0.41776 0.44426 0.56232 0.0
H515 H 0.39127 0.42923 0.52161 0.0
H516 H 0.24833 0.19973 0.3626 0.0
H517 H 0.22329 0.2005 0.32116 0.0
H518 H 0.14596 0.34592 0.33104 0.0
H519 H 0.17349 0.34933 0.37198 0.0
La520 La 0.96649 1.01659 0.21149 0.0
La521 La 1.02741 1.01731 0.16824 0.0
C522 C 0.95004 1.01235 0.25567 0.0
C523 C 0.94466 1.03718 0.27948 0.0
C524 C 0.90287 1.02137 0.29398 0.0
C525 C 0.89962 1.03775 0.31756 0.0
C526 C 0.93743 0.07168 0.32744 0.0
C527 C 0.97988 0.08717 0.31305 0.0
C528 C 0.98362 0.0699 0.28934 0.0
C529 C 0.9144 0.98249 0.17375 0.0
C530 C 0.94494 0.10849 0.17778 0.0
C531 C 0.07169 1.01569 0.12886 0.0
C532 C 0.11862 0.99033 0.11907 0.0
C533 C 0.16763 1.01587 0.12105 0.0
C534 C 0.19877 1.01953 0.10061 0.0
C535 C 0.17285 1.00892 0.07928 0.0
C536 C 0.14625 0.96041 0.08064 0.0
C537 C 0.1124 0.9549 0.10013 0.0
C538 C 0.07916 1.05801 0.20475 0.0
C539 C 1.034 0.91397 0.19678 0.0
O540 O 0.91231 1.01597 0.24012 0.0
O541 O 0.99647 1.01151 0.24575 0.0
O542 O 0.89251 1.00711 0.19139 0.0
O543 O 0.96129 0.97414 0.17907 0.0
O544 O 0.94479 0.09479 0.20031 0.0
O545 O 0.97049 0.08063 0.16159 0.0
O546 O 0.0792 1.05262 0.14445 0.0
O547 O 1.03162 0.98588 0.13394 0.0
O548 O 0.09565 1.0211 0.19099 0.0
O549 O 1.0315 0.06476 0.19958 0.0
O550 O 1.04791 0.93837 0.17736 0.0
O551 O 1.0028 0.93717 0.21248 0.0
H552 H 0.87309 0.99506 0.2872 0.0
H553 H 0.86695 1.02389 0.32815 0.0
H554 H 1.00964 0.11324 0.31998 0.0
H555 H 1.01713 0.08183 0.27882 0.0
H556 H 0.17773 1.03902 0.13645 0.0
H557 H 0.23395 1.04331 0.10086 0.0
H558 H 0.13809 0.93811 0.06477 0.0
H559 H 0.07798 0.93019 0.09868 0.0
La560 La 0.35841 0.7035 0.96105 0.0
La561 La 0.34253 0.76876 0.92192 0.0
C562 C 0.37302 0.67752 1.00401 0.0
C563 C 0.35039 0.67143 1.02822 0.0
C564 C 0.38359 0.65719 1.04686 0.0
C565 C 0.36464 0.65296 0.07019 0.0
C566 C 0.31177 0.6627 0.07553 0.0
C567 C 0.27881 0.67826 1.05685 0.0
C568 C 0.29785 0.68259 1.03351 0.0
C569 C 0.38912 0.65939 0.92039 0.0
C570 C 0.26437 0.67694 0.92774 0.0
C571 C 0.32563 0.83481 0.89045 0.0
C572 C 0.36022 0.85416 0.87164 0.0
C573 C 0.36304 0.90979 0.86639 0.0
C574 C 0.41917 0.91944 0.86509 0.0
C575 C 0.43676 0.89825 0.84364 0.0
C576 C 0.43528 0.8428 0.84536 0.0
C577 C 0.39716 0.82005 0.86049 0.0
C578 C 0.3013 0.81603 0.96837 0.0
C579 C 0.45429 0.7774 0.94428 0.0
O580 O 0.36001 0.64444 0.9873 0.0
O581 O 0.37703 0.72508 0.9959 0.0
O582 O 0.36947 0.63401 0.93824 0.0
O583 O 0.39545 0.70642 0.92624 0.0
O584 O 0.28036 0.67601 0.95007 0.0
O585 O 0.28828 0.70659 0.91182 0.0
O586 O 0.341 0.84738 0.91176 0.0
O587 O 0.31077 0.7857 0.88877 0.0
O588 O 0.30792 0.77426 0.95625 0.0
O589 O 0.30815 0.77345 0.95586 0.0
O590 O 0.42472 0.79192 0.92642 0.0
O591 O 0.43637 0.74241 0.95962 0.0
H592 H 0.42451 0.64909 1.04335 0.0
H593 H 0.39103 0.64047 0.08393 0.0
H594 H 0.2379 0.68651 1.06029 0.0
H595 H 0.27156 0.69453 1.01962 0.0
H596 H 0.29763 0.96484 0.84434 0.0
H597 H 0.43556 0.95712 0.86998 0.0
H598 H 0.45728 0.81836 0.83322 0.0
H599 H 0.39553 0.77808 0.86285 0.0
La600 La 0.6539 0.09601 0.71139 0.0
La601 La 0.59881 0.07971 0.66702 0.0
C602 C 0.67478 0.07892 0.75401 0.0
C603 C 0.68244 0.06597 0.77941 0.0
C604 C 0.72007 0.09204 0.79313 0.0
C605 C 0.72539 0.0805 0.81724 0.0
C606 C 0.69368 1.04211 0.82821 0.0
C607 C 0.65528 1.01698 0.81455 0.0
C608 C 0.64969 1.02878 0.79053 0.0
C609 C 0.70501 0.12997 0.67238 0.0
C610 C 0.67497 0.99049 0.68043 0.0
C611 C 0.55637 0.1005 0.62882 0.0
C612 C 0.55867 0.15105 0.6167 0.0
C613 C 0.51466 0.1721 0.60557 0.0
C614 C 0.5223 0.21417 0.59003 0.0
C615 C 0.57389 0.22267 0.58157 0.0
C616 C 0.61084 0.22123 0.59989 0.0
C617 C 0.60575 0.18018 0.61603 0.0
C618 C 0.55191 1.03468 0.70309 0.0
C619 C 0.5925 0.18993 0.69447 0.0
O620 O 0.69787 0.11696 0.74227 0.0
O621 O 0.64321 1.05019 0.74124 0.0
O622 O 0.70968 0.15212 0.69312 0.0
O623 O 0.67727 0.09044 0.6754 0.0
O624 O 0.68451 1.01875 0.6998 0.0
O625 O 0.64322 1.00745 0.66377 0.0
O626 O 0.53048 0.10018 0.6488 0.0
O627 O 0.60112 0.07583 0.63012 0.0
O628 O 0.5588 1.01424 0.6824 0.0
O629 O 0.57238 0.08024 0.70297 0.0
O630 O 0.59687 0.16518 0.67395 0.0
O631 O 0.60669 0.1661 0.71388 0.0
H632 H 0.74529 0.12146 0.78527 0.0
H633 H 0.75469 0.10156 0.8273 0.0
H634 H 0.63038 0.98714 0.8223 0.0
H635 H 0.61964 1.00843 0.78062 0.0
H636 H 0.47606 0.15516 0.60801 0.0
H637 H 0.489 0.22954 0.58066 0.0
H638 H 0.6488 0.23973 0.5978 0.0
H639 H 0.63884 0.16957 0.62673 0.0
C640 C 0.3328 0.33968 0.32185 0.0
C641 C 0.32783 0.38551 0.30824 0.0
C642 C 0.29342 0.30208 0.32286 0.0
C643 C 0.24326 0.31069 0.31326 0.0
H644 H 0.36905 0.33022 0.3306 0.0
H645 H 0.30267 0.26702 0.3325 0.0
S646 S 0.20446 0.42617 0.27859 0.0
N647 N 0.26537 0.43878 0.28633 0.0
N648 N 0.19016 0.36864 0.28998 0.0
C649 C 0.23612 0.35709 0.30066 0.0
C650 C 0.27743 0.39497 0.29858 0.0
C651 C 0.51769 0.51574 0.55753 0.0
C652 C 0.56766 0.51359 0.56767 0.0
C653 C 0.48868 0.56187 0.55727 0.0
C654 C 0.51005 0.61023 0.56508 0.0
H655 H 0.50033 0.481 0.54982 0.0
H656 H 0.45084 0.55978 0.54884 0.0
S657 S 0.63447 0.62561 0.59814 0.0
N658 N 0.63426 0.56433 0.58909 0.0
N659 N 0.57868 0.64981 0.58889 0.0
C660 C 0.55741 0.60767 0.57766 0.0
C661 C 0.58731 0.56059 0.578 0.0
C662 C 0.35731 0.85481 0.80123 0.0
C663 C 0.31438 0.85522 0.81739 0.0
C664 C 0.402 0.888 0.80309 0.0
C665 C 0.4092 0.92233 0.82243 0.0
H666 H 0.35784 0.82599 0.78715 0.0
H667 H 0.43571 0.87835 0.79226 0.0
S668 S 0.30052 0.97223 0.87895 0.0
N669 N 0.27695 0.90349 0.85825 0.0
N670 N 0.36107 0.9919 0.85268 0.0
C671 C 0.36289 0.94796 0.82966 0.0
C672 C 0.3127 0.89663 0.83305 0.0
C673 C 1.05862 0.55888 1.053 0.0
C674 C 1.04933 0.51108 0.06477 0.0
C675 C 1.02551 0.60155 1.05568 0.0
C676 C 0.98375 0.60124 0.07205 0.0
H677 H 0.09101 0.56375 1.04086 0.0
H678 H 1.03516 0.63644 1.04578 0.0
S679 S 0.93967 0.48307 0.10572 0.0
N680 N 0.99274 0.46371 0.09154 0.0
N681 N 0.93097 0.54445 0.09792 0.0
C682 C 0.97238 0.55242 0.08317 0.0
C683 C 1.00569 0.50811 0.07971 0.0
C684 C 0.75985 0.85119 0.81286 0.0
C685 C 0.75901 0.79598 0.81465 0.0
C686 C 0.80613 0.88027 0.81411 0.0
C687 C 0.85578 0.85632 0.81446 0.0
H688 H 0.72402 0.87328 0.81145 0.0
H689 H 0.80263 0.92235 0.81304 0.0
S690 S 0.87805 0.71265 0.82007 0.0
N691 N 0.81438 0.71833 0.8168 0.0
N692 N 0.90061 0.77304 0.82017 0.0
C693 C 0.85603 0.80112 0.8172 0.0
C694 C 0.80854 0.77116 0.81594 0.0
C695 C 0.71789 0.41639 0.30932 0.0
C696 C 0.68799 0.37813 0.32133 0.0
C697 C 0.76137 0.43988 0.31991 0.0
C698 C 0.77685 0.42486 0.34253 0.0
H699 H 0.71361 0.42176 0.29049 0.0
H700 H 0.78836 0.46165 0.30887 0.0
S701 S 0.6981 0.34495 0.38454 0.0
N702 N 0.66608 0.3408 0.35936 0.0
N703 N 0.74834 0.38431 0.37943 0.0
C704 C 0.74011 0.39693 0.35647 0.0
C705 C 0.69548 0.37332 0.34569 0.0
C706 C 0.0923 1.04049 1.05802 0.0
C707 C 0.13804 1.05324 0.07074 0.0
C708 C 1.05031 0.07463 1.05651 0.0
C709 C 1.05327 0.1267 0.06493 0.0
H710 H 0.08701 1.0024 1.04998 0.0
H711 H 1.01644 1.05988 1.04724 0.0
S712 S 0.16395 0.18406 0.09801 0.0
N713 N 0.18358 0.12445 0.09136 0.0
N714 N 0.10466 0.18919 0.0871 0.0
C715 C 0.09847 0.14092 0.07735 0.0
C716 C 0.14121 0.10524 0.07977 0.0
C717 C 0.65288 0.11928 0.55347 0.0
C718 C 0.61197 0.0835 0.54983 0.0
C719 C 0.64183 0.17208 0.55824 0.0
C720 C 0.58938 0.1899 0.56024 0.0
H721 H 0.69305 0.10602 0.55383 0.0
H722 H 0.67388 0.19694 0.56362 0.0
S723 S 0.47266 0.11764 0.53895 0.0
N724 N 0.51891 0.07336 0.54141 0.0
N725 N 0.50149 0.17376 0.54522 0.0
C726 C 0.55116 0.15771 0.54969 0.0
C727 C 0.56102 0.1035 0.54695 0.0
C728 C 0.24303 0.11545 0.99308 0.0
C729 C 0.23096 0.15802 0.97844 0.0
C730 C 0.25991 0.12206 1.0164 0.0
C731 C 0.26662 0.17197 1.02667 0.0
H732 H 0.23868 0.07593 0.98655 0.0
H733 H 0.26688 0.08704 1.02656 0.0
S734 S 0.23621 0.29739 0.99646 0.0
N735 N 0.22327 0.25227 0.9763 0.0
N736 N 0.25714 0.26573 1.01995 0.0
C737 C 0.25388 0.21545 1.01229 0.0
C738 C 0.236 0.20833 0.98828 0.0
C739 C 0.75956 0.51357 0.26594 0.0
C740 C 0.70961 0.52578 0.27512 0.0
C741 C 0.7661 0.48987 0.24371 0.0
C742 C 0.72332 0.4779 0.22899 0.0
H743 H 0.79433 0.52037 0.27635 0.0
H744 H 0.80551 0.4801 0.23817 0.0
S745 S 0.58439 0.5061 0.24293 0.0
N746 N 0.6163 0.52717 0.26646 0.0
N747 N 0.62919 0.48277 0.22456 0.0
C748 C 0.67327 0.49183 0.23722 0.0
C749 C 0.66632 0.51556 0.26022 0.0
C750 C 0.35439 0.90329 0.50805 0.0
C751 C 0.33737 0.9448 0.52293 0.0
C752 C 0.37014 0.91168 0.4842 0.0
C753 C 0.36935 0.96197 0.47416 0.0
H754 H 0.35649 0.864 0.51503 0.0
H755 H 0.3855 0.87915 0.47404 0.0
S756 S 0.3284 0.08408 0.50507 0.0
N757 N 0.32232 1.03837 0.52537 0.0
N758 N 0.34784 1.05333 0.48092 0.0
C759 C 0.35068 1.00319 0.48864 0.0
C760 C 0.33581 0.99494 0.51282 0.0
C761 C 0.84537 0.62938 0.74596 0.0
C762 C 0.88594 0.62889 0.72898 0.0
C763 C 0.85337 0.61155 0.7692 0.0
C764 C 0.90216 0.59169 0.77643 0.0
H765 H 0.80731 0.64448 0.74153 0.0
H766 H 0.8213 0.61453 0.78174 0.0
S767 S 1.01894 0.57571 0.73759 0.0
N768 N 0.97535 0.60385 0.72044 0.0
N769 N 0.99001 0.56806 0.76353 0.0
C770 C 0.94228 0.589 0.75919 0.0
C771 C 0.93427 0.60804 0.73568 0.0
C772 C 0.84931 1.00328 0.14146 0.0
C773 C 0.89179 0.97357 0.14962 0.0
C774 C 0.83036 0.99769 0.11814 0.0
C775 C 0.85277 0.96186 0.10191 0.0
H776 H 0.83109 1.0318 0.15304 0.0
H777 H 0.7976 1.02153 0.11282 0.0
S778 S 0.9656 0.87517 0.11448 0.0
N779 N 0.95507 0.90632 0.13966 0.0
N780 N 0.92158 0.89762 0.09592 0.0
C781 C 0.89547 0.93211 0.10996 0.0
C782 C 0.91435 0.9375 0.1337 0.0
C783 C 0.36184 0.59934 0.8873 0.0
C784 C 0.39484 0.63931 0.89579 0.0
C785 C 0.36475 0.58217 0.86364 0.0
C786 C 0.40127 0.60375 0.8475 0.0
H787 H 0.33276 0.5819 0.89889 0.0
H788 H 0.33786 0.55185 0.85793 0.0
S789 S 0.49931 0.70707 0.86175 0.0
N790 N 0.46603 0.69914 0.88659 0.0
N791 N 0.47325 0.66572 0.8426 0.0
C792 C 0.43497 0.64342 0.85602 0.0
C793 C 0.43136 0.66138 0.88 0.0
C794 C 0.77205 0.20263 0.62035 0.0
C795 C 0.7749 0.16369 0.60249 0.0
C796 C 0.75133 0.19183 0.64322 0.0
C797 C 0.73176 0.14182 0.64908 0.0
H798 H 0.7861 0.24179 0.61666 0.0
H799 H 0.74947 0.22313 0.65614 0.0
S800 S 0.72722 1.02695 0.60827 0.0
N801 N 0.75409 0.07377 0.59232 0.0
N802 N 0.71615 1.05352 0.63438 0.0
C803 C 0.73423 0.10299 0.63118 0.0
C804 C 0.75539 0.11383 0.60821 0.0
C805 C 0.26352 0.48879 0.38213 0.0
C806 C 0.22353 0.48388 0.3993 0.0
C807 C 0.25416 0.50914 0.35959 0.0
C808 C 0.20382 0.52463 0.35265 0.0
H809 H 0.3028 0.47595 0.38593 0.0
H810 H 0.28666 0.51117 0.34724 0.0
S811 S 0.08371 0.51473 0.39002 0.0
N812 N 0.13072 0.49314 0.4073 0.0
N813 N 0.11229 0.53099 0.3648 0.0
C814 C 0.16283 0.51873 0.36945 0.0
C815 C 0.17282 0.49861 0.39274 0.0
C816 C 0.75682 0.69255 0.51426 0.0
C817 C 0.77006 0.64908 0.52833 0.0
C818 C 0.74245 0.6867 0.49029 0.0
C819 C 0.74269 0.6375 0.47894 0.0
H820 H 0.75797 0.7316 0.52171 0.0
H821 H 0.73152 0.72117 0.48046 0.0
S822 S 0.76826 0.51054 0.50811 0.0
N823 N 0.77525 0.55417 0.52942 0.0
N824 N 0.75546 0.54446 0.48414 0.0
C825 C 0.75584 0.59394 0.49275 0.0
C826 C 0.76766 0.5994 0.51741 0.0
C827 C 0.19592 0.97356 0.77006 0.0
C828 C 0.22975 1.01269 0.77909 0.0
C829 C 0.2008 0.95444 0.74663 0.0
C830 C 0.23863 0.97448 0.73074 0.0
H831 H 0.16474 0.95793 0.78102 0.0
H832 H 0.17408 0.92407 0.74078 0.0
S833 S 0.34048 0.07292 0.74572 0.0
N834 N 0.307 0.06563 0.77049 0.0
N835 N 0.31153 1.0345 0.72624 0.0
C836 C 0.27262 1.01331 0.7395 0.0
C837 C 0.26941 1.03104 0.76362 0.0
C838 C 0.8564 0.41289 1.01052 0.0
C839 C 0.85409 0.45303 1.02781 0.0
C840 C 0.87492 0.42255 0.98724 0.0
C841 C 0.89228 0.47265 0.98041 0.0
H842 H 0.84395 0.37362 1.01504 0.0
H843 H 0.87698 0.39036 0.97478 0.0
S844 S 0.89435 0.59117 1.01905 0.0
N845 N 0.8719 0.54438 1.03634 0.0
N846 N 0.90383 0.56309 0.99313 0.0
C847 C 0.88917 0.513 0.99757 0.0
C848 C 0.8709 0.50313 1.02107 0.0
C849 C 0.36629 0.13821 0.24527 0.0
C850 C 0.40436 0.13348 0.22715 0.0
C851 C 0.37421 0.11888 0.26812 0.0
C852 C 0.42089 0.09374 0.27434 0.0
H853 H 0.32961 0.15772 0.24195 0.0
H854 H 0.34368 0.1249 0.28122 0.0
S855 S 0.53273 0.06847 0.23351 0.0
N856 N 0.4902 0.09988 0.21695 0.0
N857 N 0.50555 0.06332 0.25999 0.0
C858 C 0.45932 0.08787 0.25637 0.0
C859 C 0.45092 0.10751 0.23282 0.0
C860 C 0.41023 0.44115 0.63388 0.0
C861 C 0.39226 0.48099 0.64908 0.0
C862 C 0.39304 0.43697 0.61035 0.0
C863 C 0.35771 0.47318 0.60056 0.0
H864 H 0.4379 0.41267 0.64028 0.0
H865 H 0.40767 0.40474 0.59979 0.0
S866 S 0.30181 0.58761 0.63252 0.0
N867 N 0.33745 0.55785 0.65259 0.0
N868 N 0.30788 0.55248 0.60811 0.0
C869 C 0.33985 0.51371 0.61559 0.0
C870 C 0.35639 0.51701 0.63982 0.0
C871 C 0.96709 0.09296 0.36991 0.0
C872 C 0.92876 0.09372 0.3519 0.0
C873 C 0.95587 0.11085 0.39332 0.0
C874 C 0.90565 0.12937 0.39964 0.0
H875 H 1.00574 0.07796 0.36596 0.0
H876 H 0.9866 0.11044 0.40638 0.0
S877 S 0.7923 0.14005 0.35851 0.0
N878 N 0.84052 0.11861 0.34176 0.0
N879 N 0.81735 0.14417 0.38516 0.0
C880 C 0.86748 0.1291 0.38153 0.0
C881 C 0.87952 0.11362 0.35789 0.0
C882 C 0.28953 0.65905 0.14345 0.0
C883 C 0.24466 0.62685 0.14591 0.0
C884 C 0.31163 0.67079 0.12089 0.0
C885 C 0.2896 0.65107 0.09974 0.0
H886 H 0.30708 0.67629 0.15903 0.0
H887 H 0.34562 0.6962 0.11999 0.0
S888 S 0.17853 0.55834 0.09577 0.0
N889 N 0.1845 0.57078 0.12415 0.0
N890 N 0.22449 0.59353 0.08294 0.0
C891 C 0.24651 0.61754 0.10198 0.0
C892 C 0.22448 0.60538 0.12466 0.0
C893 C 0.66207 1.01814 0.8697 0.0
C894 C 0.70336 1.02543 0.8532 0.0
C895 C 0.67147 0.99988 0.89292 0.0
C896 C 0.7225 0.98809 0.90042 0.0
H897 H 0.62214 1.02604 0.86455 0.0
H898 H 0.63854 0.99314 0.90468 0.0
S899 S 0.84408 1.00094 0.86408 0.0
N900 N 0.79676 1.01815 0.84613 0.0
N901 N 0.81479 0.9881 0.88943 0.0
C902 C 0.76388 0.99686 0.88416 0.0
C903 C 0.75429 1.01434 0.86068 0.0
C904 C 0.53468 0.31697 0.16621 0.0
C905 C 0.51553 0.27951 0.1823 0.0
C906 C 0.58745 0.33386 0.1668 0.0
C907 C 0.62286 0.31386 0.18349 0.0
H908 H 0.50834 0.33468 0.15368 0.0
H909 H 0.60017 0.36389 0.15457 0.0
S910 S 0.59372 0.2097 0.22716 0.0
N911 N 0.53732 0.21963 0.21386 0.0
N912 N 0.63575 0.25073 0.21483 0.0
C913 C 0.60446 0.27486 0.19895 0.0
C914 C 0.55105 0.25787 0.19838 0.0
C915 C 0.59529 0.79235 0.44928 0.0
C916 C 0.58986 0.75918 0.42955 0.0
C917 C 0.57649 0.84374 0.4492 0.0
C918 C 0.5505 0.86456 0.42947 0.0
H919 H 0.61387 0.7783 0.46518 0.0
H920 H 0.58151 0.86683 0.46512 0.0
S921 S 0.52633 0.79359 0.37309 0.0
N922 N 0.55762 0.75073 0.3895 0.0
N923 N 0.5212 0.84726 0.38931 0.0
C924 C 0.54565 0.83204 0.40934 0.0
C925 C 0.56559 0.77951 0.40938 0.0
C926 C 1.05222 0.74703 0.67552 0.0
C927 C 1.01193 0.78428 0.67683 0.0
C928 C 0.10529 0.76239 0.67648 0.0
C929 C 0.11964 0.8155 0.67821 0.0
H930 H 1.04263 0.70572 0.67496 0.0
H931 H 0.13525 0.73256 0.67626 0.0
S932 S 1.02903 0.92798 0.6819 0.0
N933 N 0.99008 0.87634 0.68008 0.0
N934 N 0.08943 0.90518 0.68086 0.0
C935 C 0.07975 0.85304 0.67882 0.0
C936 C 1.02596 0.83741 0.6784 0.0
C937 C 1.05527 0.33964 0.9544 0.0
C938 C 1.04411 0.36613 0.93315 0.0
C939 C 0.07217 0.2871 0.9545 0.0
C940 C 0.07936 0.25847 0.93337 0.0
H941 H 1.05093 0.35959 0.97121 0.0
H942 H 0.08034 0.26905 0.97135 0.0
S943 S 1.05459 0.30846 0.87293 0.0
N944 N 1.04075 0.35847 0.89037 0.0
N945 N 0.07271 0.26074 0.89057 0.0
C946 C 0.0682 0.28436 0.91204 0.0
C947 C 1.05057 0.33769 0.91193 0.0
C948 C 0.57699 0.86399 0.93963 0.0
C949 C 0.61757 0.83061 0.94681 0.0
C950 C 0.52439 0.84664 0.93886 0.0
C951 C 0.51022 0.79526 0.94537 0.0
H952 H 0.58606 0.90372 0.93436 0.0
H953 H 0.49455 0.87376 0.93325 0.0
S954 S 0.60291 0.69061 0.96217 0.0
N955 N 0.64066 0.74256 0.95826 0.0
N956 N 0.5424 0.71007 0.9572 0.0
C957 C 0.55078 0.76127 0.95203 0.0
C958 C 0.60425 0.77887 0.95261 0.0
C959 C 0.55989 0.32855 0.71729 0.0
C960 C 0.54301 0.35438 0.69681 0.0
C961 C 0.57541 0.27542 0.71654 0.0
C962 C 0.57413 0.24583 0.69533 0.0
H963 H 0.56251 0.34984 0.73383 0.0
H964 H 0.58915 0.25768 0.73267 0.0
S965 S 0.52576 0.29407 0.63765 0.0
N966 N 0.52147 0.34509 0.65537 0.0
N967 N 0.54942 0.24651 0.65394 0.0
C968 C 0.55506 0.27108 0.67508 0.0
C969 C 0.53985 0.32485 0.67583 0.0
C970 C 0.08625 0.33976 0.42514 0.0
C971 C 0.1189 0.33231 0.44486 0.0
C972 C 1.03338 0.32313 0.42508 0.0
C973 C 1.01035 0.29756 0.44466 0.0
H974 H 0.10162 0.35885 0.4095 0.0
H975 H 1.01058 0.32996 0.40934 0.0
S976 S 0.07964 0.26604 0.50045 0.0
N977 N 0.12437 0.29649 0.48436 0.0
N978 N 1.02605 0.26466 0.4843 0.0
C979 C 1.04278 0.28974 0.46451 0.0
C980 C 0.09654 0.3072 0.46461 0.0
C981 C 0.08316 0.77888 0.17901 0.0
C982 C 0.07948 0.74923 0.19977 0.0
C983 C 0.069 0.83172 0.17859 0.0
C984 C 1.04932 0.85763 0.19884 0.0
H985 H 0.09774 0.76114 0.16284 0.0
H986 H 0.07305 0.85212 0.16194 0.0
S987 S 1.02893 0.79636 0.25755 0.0
N988 N 1.05367 0.7488 0.24111 0.0
N989 N 1.02523 0.84813 0.24026 0.0
C990 C 1.0445 0.82811 0.21974 0.0
C991 C 1.06013 0.77407 0.22025 0.0
C992 C 0.2502 0.37049 0.18967 0.0
C993 C 0.28728 0.36593 0.17126 0.0
C994 C 0.2145 0.41194 0.19054 0.0
C995 C 0.21342 0.45027 0.1728 0.0
H996 H 0.25054 0.34318 0.20423 0.0
H997 H 0.18879 0.41508 0.20578 0.0
S998 S 0.29852 0.45315 0.11941 0.0
N999 N 0.31848 0.40112 0.13401 0.0
N1000 N 0.25021 0.47848 0.13522 0.0
C1001 C 0.2479 0.44426 0.15343 0.0
C1002 C 0.28518 0.4023 0.15279 0.0
C1003 C 0.47383 0.44285 0.42656 0.0
C1004 C 0.42317 0.46129 0.42177 0.0
C1005 C 0.51816 0.47577 0.42417 0.0
C1006 C 0.51318 0.52824 0.41688 0.0
H1007 H 0.47895 0.40356 0.43321 0.0
H1008 H 0.5559 0.46112 0.42963 0.0
S1009 S 0.38946 0.59388 0.40072 0.0
N1010 N 0.3711 0.5343 0.40843 0.0
N1011 N 0.45377 0.59548 0.4035 0.0
C1012 C 0.46298 0.54583 0.41083 0.0
C1013 C 0.41812 0.51264 0.41346 0.0
C1014 C 0.33696 0.70471 0.68205 0.0
C1015 C 0.35698 0.74803 0.66965 0.0
C1016 C 0.3648 0.65778 0.68318 0.0
C1017 C 0.41271 0.65141 0.67115 0.0
H1018 H 0.30222 0.70885 0.69298 0.0
H1019 H 0.34979 0.62694 0.69445 0.0
S1020 S 0.47761 0.74997 0.63298 0.0
N1021 N 0.42509 0.78018 0.64333 0.0
N1022 N 0.47569 0.69018 0.64398 0.0
C1023 C 0.43044 0.69243 0.65665 0.0
C1024 C 0.40291 0.74118 0.65622 0.0
C1025 C 0.13002 0.64108 0.90399 0.0
C1026 C 0.12136 0.59063 0.91317 0.0
C1027 C 0.17797 0.6675 0.90728 0.0
C1028 C 0.21832 0.64502 0.92058 0.0
H1029 H 0.09777 0.66236 0.89633 0.0
H1030 H 0.18173 0.70741 0.90113 0.0
S1031 S 0.21939 0.51024 0.94437 0.0
N1032 N 0.16106 0.51585 0.93221 0.0
N1033 N 0.24945 0.56676 0.93997 0.0
C1034 C 0.21202 0.59297 0.92794 0.0
C1035 C 0.16411 0.56533 0.92367 0.0
C1036 C 0.89707 0.75397 0.97137 0.0
C1037 C 0.84688 0.75851 0.96144 0.0
C1038 C 0.92712 0.70829 0.96837 0.0
C1039 C 0.90878 0.66613 0.95461 0.0
H1040 H 0.91521 0.78775 0.97962 0.0
H1041 H 0.96643 0.70761 0.97541 0.0
S1042 S 0.77656 0.65539 0.92785 0.0
N1043 N 0.77732 0.71388 0.94033 0.0
N1044 N 0.83415 0.62941 0.93355 0.0
C1045 C 0.85691 0.66854 0.94625 0.0
C1046 C 0.82579 0.71422 0.9501 0.0
C1047 C 0.65897 0.69265 0.70931 0.0
C1048 C 0.70671 0.66617 0.707 0.0
C1049 C 0.61145 0.66476 0.71091 0.0
C1050 C 0.61016 0.60957 0.71043 0.0
H1051 H 0.658 0.73491 0.70806 0.0
H1052 H 0.57518 0.6865 0.7102 0.0
S1053 S 0.72554 0.52256 0.70765 0.0
N1054 N 0.75057 0.58222 0.70669 0.0
N1055 N 0.66149 0.52998 0.70992 0.0
C1056 C 0.65811 0.58299 0.71038 0.0
C1057 C 0.70637 0.61131 0.70846 0.0
C1058 C 0.72959 0.36523 0.4628 0.0
C1059 C 0.78229 0.36422 0.45509 0.0
C1060 C 0.69888 0.41086 0.46106 0.0
C1061 C 0.71943 0.45656 0.45079 0.0
H1062 H 0.71047 0.32914 0.46805 0.0
H1063 H 0.65789 0.40906 0.46603 0.0
S1064 S 0.8572 0.47713 0.43161 0.0
N1065 N 0.85523 0.4155 0.44019 0.0
N1066 N 0.79752 0.50007 0.43578 0.0
C1067 C 0.77306 0.45725 0.44484 0.0
C1068 C 0.80456 0.41154 0.44744 0.0
C1069 C 0.96419 0.43382 0.21781 0.0
C1070 C 0.91915 0.45561 0.20774 0.0
C1071 C 1.01149 0.46231 0.21871 0.0
C1072 C 1.01477 0.51403 0.21036 0.0
H1073 H 0.96404 0.39324 0.22322 0.0
H1074 H 1.04673 0.44224 0.22404 0.0
S1075 S 0.90536 0.59161 0.18626 0.0
N1076 N 0.87906 0.53381 0.19189 0.0
N1077 N 0.96717 0.58768 0.19442 0.0
C1078 C 0.9685 0.53784 0.20263 0.0
C1079 C 0.9209 0.50847 0.20103 0.0
C1080 C 0.72881 0.85297 0.67134 0.0
C1081 C 0.78296 0.86261 0.66838 0.0
C1082 C 0.69311 0.89451 0.6743 0.0
C1083 C 0.71067 0.94672 0.67485 0.0
H1084 H 0.71434 0.81322 0.67286 0.0
H1085 H 0.65212 0.88565 0.67737 0.0
S1086 S 0.84668 0.99318 0.66498 0.0
N1087 N 0.85067 0.92884 0.66327 0.0
N1088 N 0.78443 1.006 0.67027 0.0
C1089 C 0.76392 0.95684 0.67062 0.0
C1090 C 0.79978 0.91502 0.6669 0.0
C1091 C 0.92354 1.01537 0.93323 0.0
C1092 C 0.91744 0.96654 0.92195 0.0
C1093 C 0.9684 1.04624 0.92947 0.0
C1094 C 1.00996 1.02845 0.91513 0.0
H1095 H 0.89428 1.02923 0.94567 0.0
H1096 H 0.97291 0.08162 0.93985 0.0
S1097 S 1.00906 0.90914 0.87793 0.0
N1098 N 0.95263 0.90684 0.89233 0.0
N1099 N 1.03874 0.9632 0.88688 0.0
C1100 C 1.00216 0.98242 0.90206 0.0
C1101 C 0.95564 0.9517 0.9052 0.0
C1102 C 0.85968 0.15557 0.17342 0.0
C1103 C 0.91452 0.15526 0.17072 0.0
C1104 C 0.83101 0.20239 0.17175 0.0
C1105 C 0.85651 0.2505 0.1677 0.0
H1106 H 0.83924 0.12004 0.17842 0.0
H1107 H 0.78983 0.20176 0.17646 0.0
S1108 S 0.99833 0.27031 0.15756 0.0
N1109 N 0.99193 0.20671 0.16181 0.0
N1110 N 0.93855 0.29422 0.15903 0.0
C1111 C 0.91037 0.24973 0.1628 0.0
C1112 C 0.93939 0.20227 0.16443 0.0
C1113 C 0.65707 0.07494 0.44345 0.0
C1114 C 0.61569 0.08486 0.42782 0.0
C1115 C 0.70177 0.10681 0.44406 0.0
C1116 C 0.70809 0.14938 0.4286 0.0
H1117 H 0.65261 1.0453 0.45695 0.0
H1118 H 0.73086 0.09881 0.45739 0.0
S1119 S 0.61662 0.18486 0.38063 0.0
N1120 N 0.58692 0.13591 0.39434 0.0
N1121 N 0.67284 0.19412 0.39438 0.0
C1122 C 0.66977 0.1562 0.41106 0.0
C1123 C 0.62321 0.12433 0.4109 0.0
C1124 C 0.39515 0.24911 0.47092 0.0
C1125 C 0.34528 0.25559 0.46094 0.0
C1126 C 0.42267 0.20186 0.46834 0.0
C1127 C 0.40212 0.16055 0.45475 0.0
H1128 H 0.4149 0.28222 0.47898 0.0
H1129 H 0.46169 0.19901 0.4756 0.0
S1130 S 0.26991 0.15444 0.42835 0.0
N1131 N 0.27314 0.21316 0.44056 0.0
N1132 N 0.32663 0.12639 0.43381 0.0
C1133 C 0.35091 0.16503 0.44622 0.0
C1134 C 0.32191 0.21197 0.44995 0.0
C1135 C 0.15597 0.10393 0.22346 0.0
C1136 C 0.11561 0.10342 0.20666 0.0
C1137 C 0.19912 0.1384 0.22124 0.0
C1138 C 0.20427 0.17191 0.20161 0.0
H1139 H 0.15556 0.07573 0.23769 0.0
H1140 H 0.23037 0.13607 0.23403 0.0
S1141 S 0.10943 0.18665 0.1533 0.0
N1142 N 0.08257 0.14234 0.17074 0.0
N1143 N 0.16486 0.20397 0.16588 0.0
C1144 C 0.16346 0.17311 0.18534 0.0
C1145 C 0.11887 0.13968 0.18804 0.0
C1146 C 0.25124 0.95473 0.96727 0.0
C1147 C 0.21683 0.95618 0.94799 0.0
C1148 C 0.28025 0.9098 0.97248 0.0
C1149 C 0.27561 0.86383 0.95897 0.0
H1150 H 0.25558 0.98853 0.97865 0.0
H1151 H 0.30547 0.91059 0.98781 0.0
S1152 S 0.18707 0.84566 0.90763 0.0
N1153 N 0.17894 0.90749 0.91539 0.0
N1154 N 0.23021 0.82151 0.92622 0.0
C1155 C 0.24065 0.86434 0.9397 0.0
C1156 C 0.21227 0.91094 0.93393 0.0
C1157 C 0.44794 0.94505 0.72425 0.0
C1158 C 0.40696 0.96119 0.70955 0.0
C1159 C 0.49465 0.97453 0.72568 0.0
C1160 C 0.50045 1.02219 0.7135 0.0
H1161 H 0.44598 0.90723 0.73277 0.0
H1162 H 0.52808 0.95746 0.73439 0.0
S1163 S 0.40063 0.08626 0.67665 0.0
N1164 N 0.37367 1.02997 0.68429 0.0
N1165 N 0.45796 0.08814 0.6899 0.0
C1166 C 0.45678 1.04192 0.70168 0.0
C1167 C 0.41116 1.0104 0.69867 0.0
loop_
_geom_bond_atom_site_label_1
_geom_bond_atom_site_label_2
_geom_bond_distance
_geom_bond_site_symmetry_2
_ccdc_geom_bond_type
La0 C2 2.928 . S
La0 O20 2.521 . S
La0 O21 2.628 . S
La0 O22 2.554 . S
La0 O23 2.757 . S
La0 O24 2.470 . S
La0 O29 2.482 . S
La0 O31 2.503 . S
La1 C11 2.928 . S
La1 O23 2.482 . S
La1 O25 2.503 . S
La1 O26 2.521 . S
La1 O27 2.628 . S
La1 O28 2.554 . S
La1 O29 2.757 . S
La1 O30 2.470 . S
C2 La0 2.928 . S
C2 C3 1.503 . S
C2 O20 1.261 . S
C2 O21 1.243 . S
C3 C2 1.503 . S
C3 C4 1.394 . S
C3 C8 1.373 . S
C4 C3 1.394 . S
C4 C5 1.380 . S
C4 H32 0.930 . S
C5 C4 1.380 . S
C5 C6 1.376 . S
C5 H33 0.930 . S
C6 C5 1.376 . S
C6 C7 1.370 . S
C7 C6 1.370 . S
C7 C8 1.396 . S
C7 H34 0.929 . S
C8 C3 1.373 . S
C8 C7 1.396 . S
C8 H35 0.929 . S
C9 O22 1.240 . S
C9 O23 1.289 . S
C10 O24 1.258 . S
C10 O25 1.256 . S
C11 La1 2.928 . S
C11 C12 1.503 . S
C11 O26 1.261 . S
C11 O27 1.243 . S
C12 C11 1.503 . S
C12 C13 1.394 1_545 S
C12 C17 1.373 . S
C13 C12 1.394 1_565 S
C13 C14 1.380 . S
C13 H36 0.930 . S
C14 C13 1.380 . S
C14 C15 1.376 . S
C14 H37 0.930 . S
C15 C14 1.376 . S
C15 C16 1.370 1_565 S
C16 C15 1.370 1_545 S
C16 C17 1.396 . S
C16 H38 0.929 . S
C17 C12 1.373 . S
C17 C16 1.396 . S
C17 H39 0.929 . S
C18 O28 1.240 . S
C18 O29 1.289 . S
C19 O30 1.258 . S
C19 O31 1.256 . S
O20 La0 2.521 . S
O20 C2 1.261 . S
O21 La0 2.628 . S
O21 C2 1.243 . S
O22 La0 2.554 . S
O22 C9 1.240 . S
O23 La0 2.757 . S
O23 La1 2.482 . S
O23 C9 1.289 . S
O24 La0 2.470 . S
O24 C10 1.258 . S
O25 La1 2.503 . S
O25 C10 1.256 . S
O26 La1 2.521 . S
O26 C11 1.261 . S
O27 La1 2.628 . S
O27 C11 1.243 . S
O28 La1 2.554 . S
O28 C18 1.240 . S
O29 La0 2.482 . S
O29 La1 2.757 . S
O29 C18 1.289 . S
O30 La1 2.470 . S
O30 C19 1.258 . S
O31 La0 2.503 . S
O31 C19 1.256 . S
H32 C4 0.930 . S
H33 C5 0.930 . S
H34 C7 0.929 . S
H35 C8 0.929 . S
H36 C13 0.930 . S
H37 C14 0.930 . S
H38 C16 0.929 . S
H39 C17 0.929 . S
La40 C42 2.928 . S
La40 O60 2.521 . S
La40 O61 2.628 . S
La40 O62 2.554 . S
La40 O63 2.757 . S
La40 O64 2.470 . S
La40 O69 2.482 . S
La40 O71 2.503 . S
La41 C51 2.928 . S
La41 O63 2.482 . S
La41 O65 2.503 . S
La41 O66 2.521 . S
La41 O67 2.628 . S
La41 O68 2.554 . S
La41 O69 2.757 . S
La41 O70 2.470 . S
C42 La40 2.928 . S
C42 C43 1.503 . S
C42 O60 1.261 . S
C42 O61 1.243 . S
C43 C42 1.503 . S
C43 C44 1.394 . S
C43 C48 1.373 . S
C44 C43 1.394 . S
C44 C45 1.380 . S
C44 H72 0.930 . S
C45 C44 1.380 . S
C45 C46 1.376 . S
C45 H73 0.930 . S
C46 C45 1.376 . S
C46 C47 1.370 . S
C47 C46 1.370 . S
C47 C48 1.396 . S
C47 H74 0.929 . S
C48 C43 1.373 . S
C48 C47 1.396 . S
C48 H75 0.929 . S
C49 O62 1.240 . S
C49 O63 1.289 . S
C50 O64 1.258 . S
C50 O65 1.256 . S
C51 La41 2.928 . S
C51 C52 1.503 . S
C51 O66 1.261 . S
C51 O67 1.243 . S
C52 C51 1.503 . S
C52 C53 1.394 . S
C52 C57 1.373 . S
C53 C52 1.394 . S
C53 C54 1.380 . S
C53 H76 0.930 . S
C54 C53 1.380 . S
C54 C55 1.376 . S
C54 H77 0.930 . S
C55 C54 1.376 . S
C55 C56 1.370 . S
C56 C55 1.370 . S
C56 C57 1.396 . S
C56 H78 0.929 . S
C57 C52 1.373 . S
C57 C56 1.396 . S
C57 H79 0.929 . S
C58 O68 1.240 . S
C58 O69 1.289 . S
C59 O70 1.258 . S
C59 O71 1.256 . S
O60 La40 2.521 . S
O60 C42 1.261 . S
O61 La40 2.628 . S
O61 C42 1.243 . S
O62 La40 2.554 . S
O62 C49 1.240 . S
O63 La40 2.757 . S
O63 La41 2.482 . S
O63 C49 1.289 . S
O64 La40 2.470 . S
O64 C50 1.258 . S
O65 La41 2.503 . S
O65 C50 1.256 . S
O66 La41 2.521 . S
O66 C51 1.261 . S
O67 La41 2.628 . S
O67 C51 1.243 . S
O68 La41 2.554 . S
O68 C58 1.240 . S
O69 La40 2.482 . S
O69 La41 2.757 . S
O69 C58 1.289 . S
O70 La41 2.470 . S
O70 C59 1.258 . S
O71 La40 2.503 . S
O71 C59 1.256 . S
H72 C44 0.930 . S
H73 C45 0.930 . S
H74 C47 0.929 . S
H75 C48 0.929 . S
H76 C53 0.930 . S
H77 C54 0.930 . S
H78 C56 0.929 . S
H79 C57 0.929 . S
La80 C82 2.928 . S
La80 O100 2.521 . S
La80 O101 2.628 . S
La80 O102 2.554 . S
La80 O103 2.757 . S
La80 O104 2.470 . S
La80 O109 2.482 . S
La80 O111 2.503 . S
La81 C91 2.928 . S
La81 O103 2.482 . S
La81 O105 2.503 . S
La81 O106 2.521 . S
La81 O107 2.628 . S
La81 O108 2.554 . S
La81 O109 2.757 . S
La81 O110 2.470 . S
C82 La80 2.928 . S
C82 C83 1.503 . S
C82 O100 1.261 . S
C82 O101 1.243 . S
C83 C82 1.503 . S
C83 C84 1.394 . S
C83 C88 1.373 . S
C84 C83 1.394 . S
C84 C85 1.380 . S
C84 H112 0.930 . S
C85 C84 1.380 . S
C85 C86 1.376 . S
C85 H113 0.930 . S
C86 C85 1.376 . S
C86 C87 1.370 . S
C87 C86 1.370 . S
C87 C88 1.396 . S
C87 H114 0.929 . S
C88 C83 1.373 . S
C88 C87 1.396 . S
C88 H115 0.929 . S
C89 O102 1.240 . S
C89 O103 1.289 . S
C90 O104 1.258 . S
C90 O105 1.256 . S
C91 La81 2.928 . S
C91 C92 1.503 . S
C91 O106 1.261 . S
C91 O107 1.243 . S
C92 C91 1.503 . S
C92 C93 1.394 1_565 S
C92 C97 1.373 . S
C93 C92 1.394 1_545 S
C93 C94 1.380 . S
C93 H116 0.930 . S
C94 C93 1.380 . S
C94 C95 1.376 . S
C94 H117 0.930 . S
C95 C94 1.376 . S
C95 C96 1.370 1_545 S
C96 C95 1.370 1_565 S
C96 C97 1.396 . S
C96 H118 0.929 . S
C97 C92 1.373 . S
C97 C96 1.396 . S
C97 H119 0.929 . S
C98 O108 1.240 . S
C98 O109 1.289 . S
C99 O110 1.258 . S
C99 O111 1.256 . S
O100 La80 2.521 . S
O100 C82 1.261 . S
O101 La80 2.628 . S
O101 C82 1.243 . S
O102 La80 2.554 . S
O102 C89 1.240 . S
O103 La80 2.757 . S
O103 La81 2.482 . S
O103 C89 1.289 . S
O104 La80 2.470 . S
O104 C90 1.258 . S
O105 La81 2.503 . S
O105 C90 1.256 . S
O106 La81 2.521 . S
O106 C91 1.261 . S
O107 La81 2.628 . S
O107 C91 1.243 . S
O108 La81 2.554 . S
O108 C98 1.240 . S
O109 La80 2.482 . S
O109 La81 2.757 . S
O109 C98 1.289 . S
O110 La81 2.470 . S
O110 C99 1.258 . S
O111 La80 2.503 . S
O111 C99 1.256 . S
H112 C84 0.930 . S
H113 C85 0.930 . S
H114 C87 0.929 . S
H115 C88 0.929 . S
H116 C93 0.930 . S
H117 C94 0.930 . S
H118 C96 0.929 . S
H119 C97 0.929 . S
La120 C122 2.928 . S
La120 O140 2.521 . S
La120 O141 2.628 . S
La120 O142 2.554 . S
La120 O143 2.757 . S
La120 O144 2.470 . S
La120 O149 2.482 . S
La120 O151 2.503 . S
La121 C131 2.928 . S
La121 O143 2.482 . S
La121 O145 2.503 . S
La121 O146 2.521 . S
La121 O147 2.628 . S
La121 O148 2.554 . S
La121 O149 2.757 . S
La121 O150 2.470 . S
C122 La120 2.928 . S
C122 C123 1.503 . S
C122 O140 1.261 . S
C122 O141 1.243 . S
C123 C122 1.503 . S
C123 C124 1.394 1_655 S
C123 C128 1.373 . S
C124 C123 1.394 1_455 S
C124 C125 1.380 . S
C124 H152 0.930 . S
C125 C124 1.380 . S
C125 C126 1.376 . S
C125 H153 0.930 . S
C126 C125 1.376 . S
C126 C127 1.370 1_455 S
C127 C126 1.370 1_655 S
C127 C128 1.396 . S
C127 H154 0.929 . S
C128 C123 1.373 . S
C128 C127 1.396 . S
C128 H155 0.929 . S
C129 O142 1.240 . S
C129 O143 1.289 . S
C130 O144 1.258 . S
C130 O145 1.256 . S
C131 La121 2.928 . S
C131 C132 1.503 . S
C131 O146 1.261 . S
C131 O147 1.243 . S
C132 C131 1.503 . S
C132 C133 1.394 . S
C132 C137 1.373 . S
C133 C132 1.394 . S
C133 C134 1.380 . S
C133 H156 0.930 . S
C134 C133 1.380 . S
C134 C135 1.376 . S
C134 H157 0.930 . S
C135 C134 1.376 . S
C135 C136 1.370 . S
C136 C135 1.370 . S
C136 C137 1.396 . S
C136 H158 0.929 . S
C137 C132 1.373 . S
C137 C136 1.396 . S
C137 H159 0.929 . S
C138 O148 1.240 . S
C138 O149 1.289 . S
C139 O150 1.258 . S
C139 O151 1.256 . S
O140 La120 2.521 . S
O140 C122 1.261 . S
O141 La120 2.628 . S
O141 C122 1.243 . S
O142 La120 2.554 . S
O142 C129 1.240 . S
O143 La120 2.757 . S
O143 La121 2.482 . S
O143 C129 1.289 . S
O144 La120 2.470 . S
O144 C130 1.258 . S
O145 La121 2.503 . S
O145 C130 1.256 . S
O146 La121 2.521 . S
O146 C131 1.261 . S
O147 La121 2.628 . S
O147 C131 1.243 . S
O148 La121 2.554 . S
O148 C138 1.240 . S
O149 La120 2.482 . S
O149 La121 2.757 . S
O149 C138 1.289 . S
O150 La121 2.470 . S
O150 C139 1.258 . S
O151 La120 2.503 . S
O151 C139 1.256 . S
H152 C124 0.930 . S
H153 C125 0.930 . S
H154 C127 0.929 . S
H155 C128 0.929 . S
H156 C133 0.930 . S
H157 C134 0.930 . S
H158 C136 0.929 . S
H159 C137 0.929 . S
La160 C162 2.928 . S
La160 O180 2.521 . S
La160 O181 2.628 . S
La160 O182 2.554 . S
La160 O183 2.757 . S
La160 O184 2.470 . S
La160 O189 2.482 . S
La160 O191 2.503 . S
La161 C171 2.928 . S
La161 O183 2.482 . S
La161 O185 2.503 . S
La161 O186 2.521 . S
La161 O187 2.628 . S
La161 O188 2.554 . S
La161 O189 2.757 . S
La161 O190 2.470 . S
C162 La160 2.928 . S
C162 C163 1.503 . S
C162 O180 1.261 . S
C162 O181 1.243 . S
C163 C162 1.503 . S
C163 C164 1.394 1_565 S
C163 C168 1.373 . S
C164 C163 1.394 1_545 S
C164 C165 1.380 . S
C164 H192 0.930 . S
C165 C164 1.380 . S
C165 C166 1.376 . S
C165 H193 0.930 . S
C166 C165 1.376 . S
C166 C167 1.370 1_545 S
C167 C166 1.370 1_565 S
C167 C168 1.396 . S
C167 H194 0.929 . S
C168 C163 1.373 . S
C168 C167 1.396 . S
C168 H195 0.929 . S
C169 O182 1.240 . S
C169 O183 1.289 . S
C170 O184 1.258 . S
C170 O185 1.256 . S
C171 La161 2.928 . S
C171 C172 1.503 . S
C171 O186 1.261 . S
C171 O187 1.243 . S
C172 C171 1.503 . S
C172 C173 1.394 . S
C172 C177 1.373 . S
C173 C172 1.394 . S
C173 C174 1.380 . S
C173 H196 0.930 . S
C174 C173 1.380 . S
C174 C175 1.376 . S
C174 H197 0.930 . S
C175 C174 1.376 . S
C175 C176 1.370 . S
C176 C175 1.370 . S
C176 C177 1.396 . S
C176 H198 0.929 . S
C177 C172 1.373 . S
C177 C176 1.396 . S
C177 H199 0.929 . S
C178 O188 1.240 . S
C178 O189 1.289 . S
C179 O190 1.258 . S
C179 O191 1.256 . S
O180 La160 2.521 . S
O180 C162 1.261 . S
O181 La160 2.628 . S
O181 C162 1.243 . S
O182 La160 2.554 . S
O182 C169 1.240 . S
O183 La160 2.757 . S
O183 La161 2.482 . S
O183 C169 1.289 . S
O184 La160 2.470 . S
O184 C170 1.258 . S
O185 La161 2.503 . S
O185 C170 1.256 . S
O186 La161 2.521 . S
O186 C171 1.261 . S
O187 La161 2.628 . S
O187 C171 1.243 . S
O188 La161 2.554 . S
O188 C178 1.240 . S
O189 La160 2.482 . S
O189 La161 2.757 . S
O189 C178 1.289 . S
O190 La161 2.470 . S
O190 C179 1.258 . S
O191 La160 2.503 . S
O191 C179 1.256 . S
H192 C164 0.930 . S
H193 C165 0.930 . S
H194 C167 0.929 . S
H195 C168 0.929 . S
H196 C173 0.930 . S
H197 C174 0.930 . S
H198 C176 0.929 . S
H199 C177 0.929 . S
La200 C202 2.928 . S
La200 O220 2.521 . S
La200 O221 2.628 . S
La200 O222 2.554 . S
La200 O223 2.757 . S
La200 O224 2.470 . S
La200 O229 2.482 . S
La200 O231 2.503 . S
La201 C211 2.928 . S
La201 O223 2.482 . S
La201 O225 2.503 . S
La201 O226 2.521 . S
La201 O227 2.628 . S
La201 O228 2.554 . S
La201 O229 2.757 . S
La201 O230 2.470 . S
C202 La200 2.928 . S
C202 C203 1.503 . S
C202 O220 1.261 . S
C202 O221 1.243 . S
C203 C202 1.503 . S
C203 C204 1.394 . S
C203 C208 1.373 . S
C204 C203 1.394 . S
C204 C205 1.380 . S
C204 H232 0.930 . S
C205 C204 1.380 . S
C205 C206 1.376 . S
C205 H233 0.930 . S
C206 C205 1.376 . S
C206 C207 1.370 . S
C207 C206 1.370 . S
C207 C208 1.396 . S
C207 H234 0.929 . S
C208 C203 1.373 . S
C208 C207 1.396 . S
C208 H235 0.929 . S
C209 O222 1.240 . S
C209 O223 1.289 . S
C210 O224 1.258 . S
C210 O225 1.256 . S
C211 La201 2.928 . S
C211 C212 1.503 . S
C211 O226 1.261 . S
C211 O227 1.243 . S
C212 C211 1.503 . S
C212 C213 1.394 . S
C212 C217 1.373 . S
C213 C212 1.394 . S
C213 C214 1.380 . S
C213 H236 0.930 . S
C214 C213 1.380 . S
C214 C215 1.376 . S
C214 H237 0.930 . S
C215 C214 1.376 . S
C215 C216 1.370 . S
C216 C215 1.370 . S
C216 C217 1.396 . S
C216 H238 0.929 . S
C217 C212 1.373 . S
C217 C216 1.396 . S
C217 H239 0.929 . S
C218 O228 1.240 . S
C218 O229 1.289 . S
C219 O230 1.258 . S
C219 O231 1.256 . S
O220 La200 2.521 . S
O220 C202 1.261 . S
O221 La200 2.628 . S
O221 C202 1.243 . S
O222 La200 2.554 . S
O222 C209 1.240 . S
O223 La200 2.757 . S
O223 La201 2.482 . S
O223 C209 1.289 . S
O224 La200 2.470 . S
O224 C210 1.258 . S
O225 La201 2.503 . S
O225 C210 1.256 . S
O226 La201 2.521 . S
O226 C211 1.261 . S
O227 La201 2.628 . S
O227 C211 1.243 . S
O228 La201 2.554 . S
O228 C218 1.240 . S
O229 La200 2.482 . S
O229 La201 2.757 . S
O229 C218 1.289 . S
O230 La201 2.470 . S
O230 C219 1.258 . S
O231 La200 2.503 . S
O231 C219 1.256 . S
H232 C204 0.930 . S
H233 C205 0.930 . S
H234 C207 0.929 . S
H235 C208 0.929 . S
H236 C213 0.930 . S
H237 C214 0.930 . S
H238 C216 0.929 . S
H239 C217 0.929 . S
La240 C242 2.928 . S
La240 O260 2.521 . S
La240 O261 2.628 . S
La240 O262 2.554 . S
La240 O263 2.757 . S
La240 O264 2.470 . S
La240 O269 2.482 . S
La240 O271 2.503 . S
La241 C251 2.928 . S
La241 O263 2.482 . S
La241 O265 2.503 . S
La241 O266 2.521 . S
La241 O267 2.628 . S
La241 O268 2.554 . S
La241 O269 2.757 . S
La241 O270 2.470 . S
C242 La240 2.928 . S
C242 C243 1.503 . S
C242 O260 1.261 . S
C242 O261 1.243 . S
C243 C242 1.503 . S
C243 C244 1.394 1_545 S
C243 C248 1.373 . S
C244 C243 1.394 1_565 S
C244 C245 1.380 . S
C244 H272 0.930 . S
C245 C244 1.380 . S
C245 C246 1.376 . S
C245 H273 0.930 . S
C246 C245 1.376 . S
C246 C247 1.370 1_565 S
C247 C246 1.370 1_545 S
C247 C248 1.396 . S
C247 H274 0.929 . S
C248 C243 1.373 . S
C248 C247 1.396 . S
C248 H275 0.929 . S
C249 O262 1.240 . S
C249 O263 1.289 . S
C250 O264 1.258 . S
C250 O265 1.256 . S
C251 La241 2.928 . S
C251 C252 1.503 . S
C251 O266 1.261 . S
C251 O267 1.243 . S
C252 C251 1.503 . S
C252 C253 1.394 . S
C252 C257 1.373 . S
C253 C252 1.394 . S
C253 C254 1.380 . S
C253 H276 0.930 . S
C254 C253 1.380 . S
C254 C255 1.376 . S
C254 H277 0.930 . S
C255 C254 1.376 . S
C255 C256 1.370 . S
C256 C255 1.370 . S
C256 C257 1.396 . S
C256 H278 0.929 . S
C257 C252 1.373 . S
C257 C256 1.396 . S
C257 H279 0.929 . S
C258 O268 1.240 . S
C258 O269 1.289 . S
C259 O270 1.258 . S
C259 O271 1.256 . S
O260 La240 2.521 . S
O260 C242 1.261 . S
O261 La240 2.628 . S
O261 C242 1.243 . S
O262 La240 2.554 . S
O262 C249 1.240 . S
O263 La240 2.757 . S
O263 La241 2.482 . S
O263 C249 1.289 . S
O264 La240 2.470 . S
O264 C250 1.258 . S
O265 La241 2.503 . S
O265 C250 1.256 . S
O266 La241 2.521 . S
O266 C251 1.261 . S
O267 La241 2.628 . S
O267 C251 1.243 . S
O268 La241 2.554 . S
O268 C258 1.240 . S
O269 La240 2.482 . S
O269 La241 2.757 . S
O269 C258 1.289 . S
O270 La241 2.470 . S
O270 C259 1.258 . S
O271 La240 2.503 . S
O271 C259 1.256 . S
H272 C244 0.930 . S
H273 C245 0.930 . S
H274 C247 0.929 . S
H275 C248 0.929 . S
H276 C253 0.930 . S
H277 C254 0.930 . S
H278 C256 0.929 . S
H279 C257 0.929 . S
La280 C282 2.928 . S
La280 O300 2.521 . S
La280 O301 2.628 . S
La280 O302 2.554 . S
La280 O303 2.757 . S
La280 O304 2.470 . S
La280 O309 2.482 . S
La280 O311 2.503 . S
La281 C291 2.928 . S
La281 O303 2.482 . S
La281 O305 2.503 . S
La281 O306 2.521 . S
La281 O307 2.628 . S
La281 O308 2.554 . S
La281 O309 2.757 . S
La281 O310 2.470 . S
C282 La280 2.928 . S
C282 C283 1.503 . S
C282 O300 1.261 . S
C282 O301 1.243 . S
C283 C282 1.503 . S
C283 C284 1.394 . S
C283 C288 1.373 . S
C284 C283 1.394 . S
C284 C285 1.380 . S
C284 H312 0.930 . S
C285 C284 1.380 . S
C285 C286 1.376 . S
C285 H313 0.930 . S
C286 C285 1.376 . S
C286 C287 1.370 . S
C287 C286 1.370 . S
C287 C288 1.396 . S
C287 H314 0.929 . S
C288 C283 1.373 . S
C288 C287 1.396 . S
C288 H315 0.929 . S
C289 O302 1.240 . S
C289 O303 1.289 . S
C290 O304 1.258 . S
C290 O305 1.256 . S
C291 La281 2.928 . S
C291 C292 1.503 . S
C291 O306 1.261 . S
C291 O307 1.243 . S
C292 C291 1.503 . S
C292 C293 1.394 1_455 S
C292 C297 1.373 . S
C293 C292 1.394 1_655 S
C293 C294 1.380 . S
C293 H316 0.930 . S
C294 C293 1.380 . S
C294 C295 1.376 . S
C294 H317 0.930 . S
C295 C294 1.376 . S
C295 C296 1.370 1_655 S
C296 C295 1.370 1_455 S
C296 C297 1.396 . S
C296 H318 0.929 . S
C297 C292 1.373 . S
C297 C296 1.396 . S
C297 H319 0.929 . S
C298 O308 1.240 . S
C298 O309 1.289 . S
C299 O310 1.258 . S
C299 O311 1.256 . S
O300 La280 2.521 . S
O300 C282 1.261 . S
O301 La280 2.628 . S
O301 C282 1.243 . S
O302 La280 2.554 . S
O302 C289 1.240 . S
O303 La280 2.757 . S
O303 La281 2.482 . S
O303 C289 1.289 . S
O304 La280 2.470 . S
O304 C290 1.258 . S
O305 La281 2.503 . S
O305 C290 1.256 . S
O306 La281 2.521 . S
O306 C291 1.261 . S
O307 La281 2.628 . S
O307 C291 1.243 . S
O308 La281 2.554 . S
O308 C298 1.240 . S
O309 La280 2.482 . S
O309 La281 2.757 . S
O309 C298 1.289 . S
O310 La281 2.470 . S
O310 C299 1.258 . S
O311 La280 2.503 . S
O311 C299 1.256 . S
H312 C284 0.930 . S
H313 C285 0.930 . S
H314 C287 0.929 . S
H315 C288 0.929 . S
H316 C293 0.930 . S
H317 C294 0.930 . S
H318 C296 0.929 . S
H319 C297 0.929 . S
La320 C322 2.928 . S
La320 O340 2.521 . S
La320 O341 2.628 . S
La320 O342 2.554 . S
La320 O343 2.757 . S
La320 O344 2.470 . S
La320 O349 2.482 . S
La320 O351 2.503 . S
La321 C331 2.928 . S
La321 O343 2.482 . S
La321 O345 2.503 . S
La321 O346 2.521 . S
La321 O347 2.628 . S
La321 O348 2.554 . S
La321 O349 2.757 . S
La321 O350 2.470 . S
C322 La320 2.928 . S
C322 C323 1.503 . S
C322 O340 1.261 . S
C322 O341 1.243 . S
C323 C322 1.503 . S
C323 C324 1.394 . S
C323 C328 1.373 . S
C324 C323 1.394 . S
C324 C325 1.380 . S
C324 H352 0.930 . S
C325 C324 1.380 . S
C325 C326 1.376 . S
C325 H353 0.930 . S
C326 C325 1.376 . S
C326 C327 1.370 . S
C327 C326 1.370 . S
C327 C328 1.396 . S
C327 H354 0.929 . S
C328 C323 1.373 . S
C328 C327 1.396 . S
C328 H355 0.929 . S
C329 O342 1.240 . S
C329 O343 1.289 . S
C330 O344 1.258 . S
C330 O345 1.256 . S
C331 La321 2.928 . S
C331 C332 1.503 . S
C331 O346 1.261 . S
C331 O347 1.243 . S
C332 C331 1.503 . S
C332 C333 1.394 . S
C332 C337 1.373 . S
C333 C332 1.394 . S
C333 C334 1.380 . S
C333 H356 0.930 . S
C334 C333 1.380 . S
C334 C335 1.376 . S
C334 H357 0.930 . S
C335 C334 1.376 . S
C335 C336 1.370 . S
C336 C335 1.370 . S
C336 C337 1.396 . S
C336 H358 0.929 . S
C337 C332 1.373 . S
C337 C336 1.396 . S
C337 H359 0.929 . S
C338 O348 1.240 . S
C338 O349 1.289 . S
C339 O350 1.258 . S
C339 O351 1.256 . S
O340 La320 2.521 . S
O340 C322 1.261 . S
O341 La320 2.628 . S
O341 C322 1.243 . S
O342 La320 2.554 . S
O342 C329 1.240 . S
O343 La320 2.757 . S
O343 La321 2.482 . S
O343 C329 1.289 . S
O344 La320 2.470 . S
O344 C330 1.258 . S
O345 La321 2.503 . S
O345 C330 1.256 . S
O346 La321 2.521 . S
O346 C331 1.261 . S
O347 La321 2.628 . S
O347 C331 1.243 . S
O348 La321 2.554 . S
O348 C338 1.240 . S
O349 La320 2.482 . S
O349 La321 2.757 . S
O349 C338 1.289 . S
O350 La321 2.470 . S
O350 C339 1.258 . S
O351 La320 2.503 . S
O351 C339 1.256 . S
H352 C324 0.930 . S
H353 C325 0.930 . S
H354 C327 0.929 . S
H355 C328 0.929 . S
H356 C333 0.930 . S
H357 C334 0.930 . S
H358 C336 0.929 . S
H359 C337 0.929 . S
La360 C362 2.928 1_565 S
La360 O380 2.521 1_565 S
La360 O381 2.628 1_565 S
La360 O382 2.554 . S
La360 O383 2.756 1_565 S
La360 O384 2.470 1_565 S
La360 O389 2.482 1_565 S
La360 O391 2.503 . S
La361 C371 2.928 . S
La361 O383 2.495 . S
La361 O385 2.503 . S
La361 O386 2.521 . S
La361 O387 2.628 1_545 S
La361 O388 2.554 . S
La361 O389 2.757 . S
La361 O390 2.470 1_545 S
C362 La360 2.928 1_545 S
C362 C363 1.503 . S
C362 O380 1.261 . S
C362 O381 1.243 . S
C363 C362 1.503 . S
C363 C364 1.394 1_455 S
C363 C368 1.373 . S
C364 C363 1.394 1_655 S
C364 C365 1.380 . S
C364 H392 0.930 . S
C365 C364 1.380 . S
C365 C366 1.376 . S
C365 H393 0.930 . S
C366 C365 1.376 . S
C366 C367 1.370 1_655 S
C367 C366 1.370 1_455 S
C367 C368 1.396 . S
C367 H394 0.929 . S
C368 C363 1.373 . S
C368 C367 1.396 . S
C368 H395 0.929 . S
C369 O382 1.240 . S
C369 O383 1.282 1_565 S
C370 O384 1.258 . S
C370 O385 1.256 . S
C371 La361 2.928 . S
C371 C372 1.503 1_545 S
C371 O386 1.261 . S
C371 O387 1.243 1_545 S
C372 C371 1.503 1_565 S
C372 C373 1.394 1_565 S
C372 C377 1.373 . S
C373 C372 1.394 1_545 S
C373 C374 1.378 1_545 S
C373 H396 0.930 . S
C374 C373 1.378 1_565 S
C374 C375 1.382 . S
C374 H397 0.927 1_565 S
C375 C374 1.382 . S
C375 C376 1.370 . S
C376 C375 1.370 . S
C376 C377 1.396 . S
C376 H398 0.929 . S
C377 C372 1.373 . S
C377 C376 1.396 . S
C377 H399 0.929 . S
C378 O388 1.240 . S
C378 O389 1.289 . S
C379 O390 1.258 . S
C379 O391 1.256 . S
O380 La360 2.521 1_545 S
O380 C362 1.261 . S
O381 La360 2.628 1_545 S
O381 C362 1.243 . S
O382 La360 2.554 . S
O382 C369 1.240 . S
O383 La360 2.756 1_545 S
O383 La361 2.495 . S
O383 C369 1.282 1_545 S
O384 La360 2.470 1_545 S
O384 C370 1.258 . S
O385 La361 2.503 . S
O385 C370 1.256 . S
O386 La361 2.521 . S
O386 C371 1.261 . S
O387 La361 2.628 1_565 S
O387 C371 1.243 1_565 S
O388 La361 2.554 . S
O388 C378 1.240 . S
O389 La360 2.482 1_545 S
O389 La361 2.757 . S
O389 C378 1.289 . S
O390 La361 2.470 1_565 S
O390 C379 1.258 . S
O391 La360 2.503 . S
O391 C379 1.256 . S
H392 C364 0.930 . S
H393 C365 0.930 . S
H394 C367 0.929 . S
H395 C368 0.929 . S
H396 C373 0.930 . S
H397 C374 0.927 1_545 S
H398 C376 0.929 . S
H399 C377 0.929 . S
La400 C402 2.928 . S
La400 O420 2.521 . S
La400 O421 2.628 . S
La400 O422 2.554 . S
La400 O423 2.757 . S
La400 O424 2.470 . S
La400 O429 2.482 . S
La400 O431 2.503 . S
La401 C411 2.928 . S
La401 O423 2.482 . S
La401 O425 2.503 . S
La401 O426 2.521 . S
La401 O427 2.628 . S
La401 O428 2.554 . S
La401 O429 2.757 . S
La401 O430 2.470 . S
C402 La400 2.928 . S
C402 C403 1.503 . S
C402 O420 1.261 . S
C402 O421 1.243 . S
C403 C402 1.503 . S
C403 C404 1.394 . S
C403 C408 1.373 . S
C404 C403 1.394 . S
C404 C405 1.380 . S
C404 H432 0.930 . S
C405 C404 1.380 . S
C405 C406 1.376 . S
C405 H433 0.930 . S
C406 C405 1.376 . S
C406 C407 1.370 . S
C407 C406 1.370 . S
C407 C408 1.396 . S
C407 H434 0.929 . S
C408 C403 1.373 . S
C408 C407 1.396 . S
C408 H435 0.929 . S
C409 O422 1.240 . S
C409 O423 1.289 . S
C410 O424 1.258 . S
C410 O425 1.256 . S
C411 La401 2.928 . S
C411 C412 1.503 . S
C411 O426 1.261 . S
C411 O427 1.243 . S
C412 C411 1.503 . S
C412 C413 1.394 . S
C412 C417 1.373 . S
C413 C412 1.394 . S
C413 C414 1.380 . S
C413 H436 0.930 . S
C414 C413 1.380 . S
C414 C415 1.376 . S
C414 H437 0.930 . S
C415 C414 1.376 . S
C415 C416 1.370 . S
C416 C415 1.370 . S
C416 C417 1.396 . S
C416 H438 0.929 . S
C417 C412 1.373 . S
C417 C416 1.396 . S
C417 H439 0.929 . S
C418 O428 1.240 . S
C418 O429 1.289 . S
C419 O430 1.258 . S
C419 O431 1.256 . S
O420 La400 2.521 . S
O420 C402 1.261 . S
O421 La400 2.628 . S
O421 C402 1.243 . S
O422 La400 2.554 . S
O422 C409 1.240 . S
O423 La400 2.757 . S
O423 La401 2.482 . S
O423 C409 1.289 . S
O424 La400 2.470 . S
O424 C410 1.258 . S
O425 La401 2.503 . S
O425 C410 1.256 . S
O426 La401 2.521 . S
O426 C411 1.261 . S
O427 La401 2.628 . S
O427 C411 1.243 . S
O428 La401 2.554 . S
O428 C418 1.240 . S
O429 La400 2.482 . S
O429 La401 2.757 . S
O429 C418 1.289 . S
O430 La401 2.470 . S
O430 C419 1.258 . S
O431 La400 2.503 . S
O431 C419 1.256 . S
H432 C404 0.930 . S
H433 C405 0.930 . S
H434 C407 0.929 . S
H435 C408 0.929 . S
H436 C413 0.930 . S
H437 C414 0.930 . S
H438 C416 0.929 . S
H439 C417 0.929 . S
La440 C442 2.928 1_545 S
La440 O460 2.521 1_545 S
La440 O461 2.628 1_545 S
La440 O462 2.554 . S
La440 O463 2.756 1_545 S
La440 O464 2.470 1_545 S
La440 O469 2.482 1_545 S
La440 O471 2.503 . S
La441 C451 2.928 . S
La441 O463 2.495 . S
La441 O465 2.503 . S
La441 O466 2.521 . S
La441 O467 2.628 1_565 S
La441 O468 2.554 . S
La441 O469 2.757 . S
La441 O470 2.470 1_565 S
C442 La440 2.928 1_565 S
C442 C443 1.503 . S
C442 O460 1.261 . S
C442 O461 1.243 . S
C443 C442 1.503 . S
C443 C444 1.394 . S
C443 C448 1.373 . S
C444 C443 1.394 . S
C444 C445 1.380 . S
C444 H472 0.930 . S
C445 C444 1.380 . S
C445 C446 1.376 . S
C445 H473 0.930 . S
C446 C445 1.376 . S
C446 C447 1.370 . S
C447 C446 1.370 . S
C447 C448 1.396 . S
C447 H474 0.929 . S
C448 C443 1.373 . S
C448 C447 1.396 . S
C448 H475 0.929 . S
C449 O462 1.240 . S
C449 O463 1.282 1_545 S
C450 O464 1.258 . S
C450 O465 1.256 . S
C451 La441 2.928 . S
C451 C452 1.503 1_565 S
C451 O466 1.261 . S
C451 O467 1.243 1_565 S
C452 C451 1.503 1_545 S
C452 C453 1.394 1_545 S
C452 C457 1.373 . S
C453 C452 1.394 1_565 S
C453 C454 1.378 1_565 S
C453 H476 0.930 . S
C454 C453 1.378 1_545 S
C454 C455 1.382 . S
C454 H477 0.927 1_545 S
C455 C454 1.382 . S
C455 C456 1.370 . S
C456 C455 1.370 . S
C456 C457 1.396 . S
C456 H478 0.929 . S
C457 C452 1.373 . S
C457 C456 1.396 . S
C457 H479 0.929 . S
C458 O468 1.240 . S
C458 O469 1.289 . S
C459 O470 1.258 . S
C459 O471 1.256 . S
O460 La440 2.521 1_565 S
O460 C442 1.261 . S
O461 La440 2.628 1_565 S
O461 C442 1.243 . S
O462 La440 2.554 . S
O462 C449 1.240 . S
O463 La440 2.756 1_565 S
O463 La441 2.495 . S
O463 C449 1.282 1_565 S
O464 La440 2.470 1_565 S
O464 C450 1.258 . S
O465 La441 2.503 . S
O465 C450 1.256 . S
O466 La441 2.521 . S
O466 C451 1.261 . S
O467 La441 2.628 1_545 S
O467 C451 1.243 1_545 S
O468 La441 2.554 . S
O468 C458 1.240 . S
O469 La440 2.482 1_565 S
O469 La441 2.757 . S
O469 C458 1.289 . S
O470 La441 2.470 1_545 S
O470 C459 1.258 . S
O471 La440 2.503 . S
O471 C459 1.256 . S
H472 C444 0.930 . S
H473 C445 0.930 . S
H474 C447 0.929 . S
H475 C448 0.929 . S
H476 C453 0.930 . S
H477 C454 0.927 1_565 S
H478 C456 0.929 . S
H479 C457 0.929 . S
La480 C482 2.928 . S
La480 O500 2.521 . S
La480 O501 2.628 . S
La480 O502 2.554 . S
La480 O503 2.757 . S
La480 O504 2.470 . S
La480 O509 2.482 . S
La480 O511 2.503 . S
La481 C491 2.928 . S
La481 O503 2.482 . S
La481 O505 2.503 . S
La481 O506 2.521 . S
La481 O507 2.628 . S
La481 O508 2.554 . S
La481 O509 2.757 . S
La481 O510 2.470 . S
C482 La480 2.928 . S
C482 C483 1.503 . S
C482 O500 1.261 . S
C482 O501 1.243 . S
C483 C482 1.503 . S
C483 C484 1.394 . S
C483 C488 1.373 . S
C484 C483 1.394 . S
C484 C485 1.380 . S
C484 H512 0.930 . S
C485 C484 1.380 . S
C485 C486 1.376 . S
C485 H513 0.930 . S
C486 C485 1.376 . S
C486 C487 1.370 . S
C487 C486 1.370 . S
C487 C488 1.396 . S
C487 H514 0.929 . S
C488 C483 1.373 . S
C488 C487 1.396 . S
C488 H515 0.929 . S
C489 O502 1.240 . S
C489 O503 1.289 . S
C490 O504 1.258 . S
C490 O505 1.256 . S
C491 La481 2.928 . S
C491 C492 1.503 . S
C491 O506 1.261 . S
C491 O507 1.243 . S
C492 C491 1.503 . S
C492 C493 1.394 . S
C492 C497 1.373 . S
C493 C492 1.394 . S
C493 C494 1.380 . S
C493 H516 0.930 . S
C494 C493 1.380 . S
C494 C495 1.376 . S
C494 H517 0.930 . S
C495 C494 1.376 . S
C495 C496 1.370 . S
C496 C495 1.370 . S
C496 C497 1.396 . S
C496 H518 0.929 . S
C497 C492 1.373 . S
C497 C496 1.396 . S
C497 H519 0.929 . S
C498 O508 1.240 . S
C498 O509 1.289 . S
C499 O510 1.258 . S
C499 O511 1.256 . S
O500 La480 2.521 . S
O500 C482 1.261 . S
O501 La480 2.628 . S
O501 C482 1.243 . S
O502 La480 2.554 . S
O502 C489 1.240 . S
O503 La480 2.757 . S
O503 La481 2.482 . S
O503 C489 1.289 . S
O504 La480 2.470 . S
O504 C490 1.258 . S
O505 La481 2.503 . S
O505 C490 1.256 . S
O506 La481 2.521 . S
O506 C491 1.261 . S
O507 La481 2.628 . S
O507 C491 1.243 . S
O508 La481 2.554 . S
O508 C498 1.240 . S
O509 La480 2.482 . S
O509 La481 2.757 . S
O509 C498 1.289 . S
O510 La481 2.470 . S
O510 C499 1.258 . S
O511 La480 2.503 . S
O511 C499 1.256 . S
H512 C484 0.930 . S
H513 C485 0.930 . S
H514 C487 0.929 . S
H515 C488 0.929 . S
H516 C493 0.930 . S
H517 C494 0.930 . S
H518 C496 0.929 . S
H519 C497 0.929 . S
La520 C522 2.928 . S
La520 O540 2.521 . S
La520 O541 2.628 1_565 S
La520 O542 2.554 . S
La520 O543 2.757 . S
La520 O544 2.470 1_565 S
La520 O549 2.495 . S
La520 O551 2.503 . S
La521 C531 2.928 1_545 S
La521 O543 2.482 1_545 S
La521 O545 2.503 . S
La521 O546 2.521 1_545 S
La521 O547 2.628 1_545 S
La521 O548 2.554 . S
La521 O549 2.756 1_545 S
La521 O550 2.470 1_545 S
C522 La520 2.928 . S
C522 C523 1.503 1_565 S
C522 O540 1.261 . S
C522 O541 1.243 1_565 S
C523 C522 1.503 1_545 S
C523 C524 1.394 1_545 S
C523 C528 1.373 . S
C524 C523 1.394 1_565 S
C524 C525 1.378 1_565 S
C524 H552 0.930 . S
C525 C524 1.378 1_545 S
C525 C526 1.382 . S
C525 H553 0.927 1_545 S
C526 C525 1.382 . S
C526 C527 1.370 . S
C527 C526 1.370 . S
C527 C528 1.396 . S
C527 H554 0.929 . S
C528 C523 1.373 . S
C528 C527 1.396 . S
C528 H555 0.929 . S
C529 O542 1.240 . S
C529 O543 1.289 . S
C530 O544 1.258 . S
C530 O545 1.256 . S
C531 La521 2.928 1_565 S
C531 C532 1.503 . S
C531 O546 1.261 . S
C531 O547 1.243 . S
C532 C531 1.503 . S
C532 C533 1.394 1_655 S
C532 C537 1.373 . S
C533 C532 1.394 1_455 S
C533 C534 1.380 . S
C533 H556 0.930 . S
C534 C533 1.380 . S
C534 C535 1.376 . S
C534 H557 0.930 . S
C535 C534 1.376 . S
C535 C536 1.370 1_455 S
C536 C535 1.370 1_655 S
C536 C537 1.396 . S
C536 H558 0.929 . S
C537 C532 1.373 . S
C537 C536 1.396 . S
C537 H559 0.929 . S
C538 O548 1.240 . S
C538 O549 1.282 1_545 S
C539 O550 1.258 . S
C539 O551 1.256 . S
O540 La520 2.521 . S
O540 C522 1.261 . S
O541 La520 2.628 1_545 S
O541 C522 1.243 1_545 S
O542 La520 2.554 . S
O542 C529 1.240 . S
O543 La520 2.757 . S
O543 La521 2.482 1_565 S
O543 C529 1.289 . S
O544 La520 2.470 1_545 S
O544 C530 1.258 . S
O545 La521 2.503 . S
O545 C530 1.256 . S
O546 La521 2.521 1_565 S
O546 C531 1.261 . S
O547 La521 2.628 1_565 S
O547 C531 1.243 . S
O548 La521 2.554 . S
O548 C538 1.240 . S
O549 La520 2.495 . S
O549 La521 2.756 1_565 S
O549 C538 1.282 1_565 S
O550 La521 2.470 1_565 S
O550 C539 1.258 . S
O551 La520 2.503 . S
O551 C539 1.256 . S
H552 C524 0.930 . S
H553 C525 0.927 1_565 S
H554 C527 0.929 . S
H555 C528 0.929 . S
H556 C533 0.930 . S
H557 C534 0.930 . S
H558 C536 0.929 . S
H559 C537 0.929 . S
La560 C562 2.928 . S
La560 O580 2.521 . S
La560 O581 2.628 . S
La560 O582 2.554 . S
La560 O583 2.757 . S
La560 O584 2.470 . S
La560 O589 2.482 . S
La560 O591 2.503 . S
La561 C571 2.928 . S
La561 O583 2.482 . S
La561 O585 2.503 . S
La561 O586 2.521 . S
La561 O587 2.628 . S
La561 O588 2.554 . S
La561 O589 2.757 . S
La561 O590 2.470 . S
C562 La560 2.928 . S
C562 C563 1.503 . S
C562 O580 1.261 . S
C562 O581 1.243 . S
C563 C562 1.503 . S
C563 C564 1.394 . S
C563 C568 1.373 . S
C564 C563 1.394 . S
C564 C565 1.380 . S
C564 H592 0.930 . S
C565 C564 1.380 . S
C565 C566 1.376 . S
C565 H593 0.930 . S
C566 C565 1.376 . S
C566 C567 1.370 . S
C567 C566 1.370 . S
C567 C568 1.396 . S
C567 H594 0.929 . S
C568 C563 1.373 . S
C568 C567 1.396 . S
C568 H595 0.929 . S
C569 O582 1.240 . S
C569 O583 1.289 . S
C570 O584 1.258 . S
C570 O585 1.256 . S
C571 La561 2.928 . S
C571 C572 1.503 . S
C571 O586 1.261 . S
C571 O587 1.243 . S
C572 C571 1.503 . S
C572 C573 1.394 . S
C572 C577 1.373 . S
C573 C572 1.394 . S
C573 C574 1.380 . S
C573 H596 0.930 . S
C574 C573 1.380 . S
C574 C575 1.376 . S
C574 H597 0.930 . S
C575 C574 1.376 . S
C575 C576 1.370 . S
C576 C575 1.370 . S
C576 C577 1.396 . S
C576 H598 0.929 . S
C577 C572 1.373 . S
C577 C576 1.396 . S
C577 H599 0.929 . S
C578 O588 1.240 . S
C578 O589 1.289 . S
C579 O590 1.258 . S
C579 O591 1.256 . S
O580 La560 2.521 . S
O580 C562 1.261 . S
O581 La560 2.628 . S
O581 C562 1.243 . S
O582 La560 2.554 . S
O582 C569 1.240 . S
O583 La560 2.757 . S
O583 La561 2.482 . S
O583 C569 1.289 . S
O584 La560 2.470 . S
O584 C570 1.258 . S
O585 La561 2.503 . S
O585 C570 1.256 . S
O586 La561 2.521 . S
O586 C571 1.261 . S
O587 La561 2.628 . S
O587 C571 1.243 . S
O588 La561 2.554 . S
O588 C578 1.240 . S
O589 La560 2.482 . S
O589 La561 2.757 . S
O589 C578 1.289 . S
O590 La561 2.470 . S
O590 C579 1.258 . S
O591 La560 2.503 . S
O591 C579 1.256 . S
H592 C564 0.930 . S
H593 C565 0.930 . S
H594 C567 0.929 . S
H595 C568 0.929 . S
H596 C573 0.930 . S
H597 C574 0.930 . S
H598 C576 0.929 . S
H599 C577 0.929 . S
La600 C602 2.928 . S
La600 O620 2.521 . S
La600 O621 2.628 1_545 S
La600 O622 2.554 . S
La600 O623 2.757 . S
La600 O624 2.470 1_545 S
La600 O629 2.495 . S
La600 O631 2.503 . S
La601 C611 2.928 1_565 S
La601 O623 2.482 1_565 S
La601 O625 2.503 . S
La601 O626 2.521 1_565 S
La601 O627 2.628 1_565 S
La601 O628 2.554 . S
La601 O629 2.756 1_565 S
La601 O630 2.470 1_565 S
C602 La600 2.928 . S
C602 C603 1.503 1_545 S
C602 O620 1.261 . S
C602 O621 1.243 1_545 S
C603 C602 1.503 1_565 S
C603 C604 1.394 1_565 S
C603 C608 1.373 . S
C604 C603 1.394 1_545 S
C604 C605 1.378 1_545 S
C604 H632 0.930 . S
C605 C604 1.378 1_565 S
C605 C606 1.382 . S
C605 H633 0.927 1_565 S
C606 C605 1.382 . S
C606 C607 1.370 . S
C607 C606 1.370 . S
C607 C608 1.396 . S
C607 H634 0.929 . S
C608 C603 1.373 . S
C608 C607 1.396 . S
C608 H635 0.929 . S
C609 O622 1.240 . S
C609 O623 1.289 . S
C610 O624 1.258 . S
C610 O625 1.256 . S
C611 La601 2.928 1_545 S
C611 C612 1.503 . S
C611 O626 1.261 . S
C611 O627 1.243 . S
C612 C611 1.503 . S
C612 C613 1.394 . S
C612 C617 1.373 . S
C613 C612 1.394 . S
C613 C614 1.380 . S
C613 H636 0.930 . S
C614 C613 1.380 . S
C614 C615 1.376 . S
C614 H637 0.930 . S
C615 C614 1.376 . S
C615 C616 1.370 . S
C616 C615 1.370 . S
C616 C617 1.396 . S
C616 H638 0.929 . S
C617 C612 1.373 . S
C617 C616 1.396 . S
C617 H639 0.929 . S
C618 O628 1.240 . S
C618 O629 1.282 1_565 S
C619 O630 1.258 . S
C619 O631 1.256 . S
O620 La600 2.521 . S
O620 C602 1.261 . S
O621 La600 2.628 1_565 S
O621 C602 1.243 1_565 S
O622 La600 2.554 . S
O622 C609 1.240 . S
O623 La600 2.757 . S
O623 La601 2.482 1_545 S
O623 C609 1.289 . S
O624 La600 2.470 1_565 S
O624 C610 1.258 . S
O625 La601 2.503 . S
O625 C610 1.256 . S
O626 La601 2.521 1_545 S
O626 C611 1.261 . S
O627 La601 2.628 1_545 S
O627 C611 1.243 . S
O628 La601 2.554 . S
O628 C618 1.240 . S
O629 La600 2.495 . S
O629 La601 2.756 1_545 S
O629 C618 1.282 1_545 S
O630 La601 2.470 1_545 S
O630 C619 1.258 . S
O631 La600 2.503 . S
O631 C619 1.256 . S
H632 C604 0.930 . S
H633 C605 0.927 1_545 S
H634 C607 0.929 . S
H635 C608 0.929 . S
H636 C613 0.930 . S
H637 C614 0.930 . S
H638 C616 0.929 . S
H639 C617 0.929 . S
C640 C641 1.369 . S
C640 C642 1.419 . S
C640 H644 0.930 . S
C641 C640 1.369 . S
C641 C650 1.429 . S
C642 C640 1.419 . S
C642 C643 1.363 . S
C642 H645 0.929 . S
C643 C642 1.363 . S
C643 C649 1.428 . S
H644 C640 0.930 . S
H645 C642 0.929 . S
S646 N647 1.613 . S
S646 N648 1.610 . S
N647 S646 1.613 . S
N647 C650 1.350 . S
N648 S646 1.610 . S
N648 C649 1.351 . S
C649 C643 1.428 . S
C649 N648 1.351 . S
C649 C650 1.434 . S
C650 C641 1.429 . S
C650 N647 1.350 . S
C650 C649 1.434 . S
C651 C652 1.369 . S
C651 C653 1.419 . S
C651 H655 0.930 . S
C652 C651 1.369 . S
C652 C661 1.429 . S
C653 C651 1.419 . S
C653 C654 1.363 . S
C653 H656 0.929 . S
C654 C653 1.363 . S
C654 C660 1.428 . S
H655 C651 0.930 . S
H656 C653 0.929 . S
S657 N658 1.613 . S
S657 N659 1.610 . S
N658 S657 1.613 . S
N658 C661 1.350 . S
N659 S657 1.610 . S
N659 C660 1.351 . S
C660 C654 1.428 . S
C660 N659 1.351 . S
C660 C661 1.434 . S
C661 C652 1.429 . S
C661 N658 1.350 . S
C661 C660 1.434 . S
C662 C663 1.369 . S
C662 C664 1.419 . S
C662 H666 0.930 . S
C663 C662 1.369 . S
C663 C672 1.429 . S
C664 C662 1.419 . S
C664 C665 1.363 . S
C664 H667 0.929 . S
C665 C664 1.363 . S
C665 C671 1.428 . S
H666 C662 0.930 . S
H667 C664 0.929 . S
S668 N669 1.613 . S
S668 N670 1.610 . S
N669 S668 1.613 . S
N669 C672 1.350 . S
N670 S668 1.610 . S
N670 C671 1.351 . S
C671 C665 1.428 . S
C671 N670 1.351 . S
C671 C672 1.434 . S
C672 C663 1.429 . S
C672 N669 1.350 . S
C672 C671 1.434 . S
C673 C674 1.335 1_556 S
C673 C675 1.419 . S
C673 H677 0.930 . S
C674 C673 1.335 1_554 S
C674 C683 1.463 1_455 S
C675 C673 1.419 . S
C675 C676 1.387 1_455 S
C675 H678 0.929 . S
C676 C675 1.387 1_655 S
C676 C682 1.404 1_556 S
H677 C673 0.930 . S
H678 C675 0.929 . S
S679 N680 1.613 . S
S679 N681 1.610 . S
N680 S679 1.613 . S
N680 C683 1.350 . S
N681 S679 1.610 . S
N681 C682 1.351 . S
C682 C676 1.404 1_554 S
C682 N681 1.351 . S
C682 C683 1.434 . S
C683 C674 1.463 1_655 S
C683 N680 1.350 . S
C683 C682 1.434 . S
C684 C685 1.369 . S
C684 C686 1.419 . S
C684 H688 0.930 . S
C685 C684 1.369 . S
C685 C694 1.429 . S
C686 C684 1.419 . S
C686 C687 1.363 . S
C686 H689 0.929 . S
C687 C686 1.363 . S
C687 C693 1.428 . S
H688 C684 0.930 . S
H689 C686 0.929 . S
S690 N691 1.613 . S
S690 N692 1.610 . S
N691 S690 1.613 . S
N691 C694 1.350 . S
N692 S690 1.610 . S
N692 C693 1.351 . S
C693 C687 1.428 . S
C693 N692 1.351 . S
C693 C694 1.434 . S
C694 C685 1.429 . S
C694 N691 1.350 . S
C694 C693 1.434 . S
C695 C696 1.369 . S
C695 C697 1.419 . S
C695 H699 0.930 . S
C696 C695 1.369 . S
C696 C705 1.429 . S
C697 C695 1.419 . S
C697 C698 1.363 . S
C697 H700 0.929 . S
C698 C697 1.363 . S
C698 C704 1.428 . S
H699 C695 0.930 . S
H700 C697 0.929 . S
S701 N702 1.613 . S
S701 N703 1.610 . S
N702 S701 1.613 . S
N702 C705 1.350 . S
N703 S701 1.610 . S
N703 C704 1.351 . S
C704 C698 1.428 . S
C704 N703 1.351 . S
C704 C705 1.434 . S
C705 C696 1.429 . S
C705 N702 1.350 . S
C705 C704 1.434 . S
C706 C707 1.390 1_655 S
C706 C708 1.419 1_565 S
C706 H710 0.930 . S
C707 C706 1.390 1_455 S
C707 C716 1.407 1_556 S
C708 C706 1.419 1_545 S
C708 C709 1.318 1_556 S
C708 H711 0.929 . S
C709 C708 1.318 1_554 S
C709 C715 1.474 1_655 S
H710 C706 0.930 . S
H711 C708 0.929 . S
S712 N713 1.613 1_545 S
S712 N714 1.610 . S
N713 S712 1.613 1_565 S
N713 C716 1.350 . S
N714 S712 1.610 . S
N714 C715 1.351 . S
C715 C709 1.474 1_455 S
C715 N714 1.351 . S
C715 C716 1.434 1_545 S
C716 C707 1.407 1_554 S
C716 N713 1.350 . S
C716 C715 1.434 1_565 S
C717 C718 1.369 . S
C717 C719 1.419 1_565 S
C717 H721 0.930 . S
C718 C717 1.369 . S
C718 C727 1.429 . S
C719 C717 1.419 1_545 S
C719 C720 1.363 . S
C719 H722 0.929 . S
C720 C719 1.363 . S
C720 C726 1.428 . S
H721 C717 0.930 . S
H722 C719 0.929 . S
S723 N724 1.613 . S
S723 N725 1.610 1_565 S
N724 S723 1.613 . S
N724 C727 1.350 . S
N725 S723 1.610 1_545 S
N725 C726 1.351 . S
C726 C720 1.428 . S
C726 N725 1.351 . S
C726 C727 1.434 1_545 S
C727 C718 1.429 . S
C727 N724 1.350 . S
C727 C726 1.434 1_565 S
C728 C729 1.369 1_565 S
C728 C730 1.419 . S
C728 H732 0.930 . S
C729 C728 1.369 1_545 S
C729 C738 1.429 . S
C730 C728 1.419 . S
C730 C731 1.356 1_565 S
C730 H733 0.929 . S
C731 C730 1.356 1_545 S
C731 C737 1.441 . S
H732 C728 0.930 . S
H733 C730 0.929 . S
S734 N735 1.613 . S
S734 N736 1.610 . S
N735 S734 1.613 . S
N735 C738 1.350 . S
N736 S734 1.610 . S
N736 C737 1.351 . S
C737 C731 1.441 . S
C737 N736 1.351 . S
C737 C738 1.434 . S
C738 C729 1.429 . S
C738 N735 1.350 . S
C738 C737 1.434 . S
C739 C740 1.369 . S
C739 C741 1.419 . S
C739 H743 0.930 . S
C740 C739 1.369 . S
C740 C749 1.429 . S
C741 C739 1.419 . S
C741 C742 1.363 . S
C741 H744 0.929 . S
C742 C741 1.363 . S
C742 C748 1.428 . S
H743 C739 0.930 . S
H744 C741 0.929 . S
S745 N746 1.613 . S
S745 N747 1.610 . S
N746 S745 1.613 . S
N746 C749 1.350 . S
N747 S745 1.610 . S
N747 C748 1.351 . S
C748 C742 1.428 . S
C748 N747 1.351 . S
C748 C749 1.434 . S
C749 C740 1.429 . S
C749 N746 1.350 . S
C749 C748 1.434 . S
C750 C751 1.362 1_565 S
C750 C752 1.419 . S
C750 H754 0.930 . S
C751 C750 1.362 1_545 S
C751 C760 1.432 . S
C752 C750 1.419 . S
C752 C753 1.363 . S
C752 H755 0.929 . S
C753 C752 1.363 . S
C753 C759 1.428 1_565 S
H754 C750 0.930 . S
H755 C752 0.929 . S
S756 N757 1.613 . S
S756 N758 1.610 . S
N757 S756 1.613 . S
N757 C760 1.350 . S
N758 S756 1.610 . S
N758 C759 1.351 . S
C759 C753 1.428 1_545 S
C759 N758 1.351 . S
C759 C760 1.434 . S
C760 C751 1.432 . S
C760 N757 1.350 . S
C760 C759 1.434 . S
C761 C762 1.369 . S
C761 C763 1.419 . S
C761 H765 0.930 . S
C762 C761 1.369 . S
C762 C771 1.429 . S
C763 C761 1.419 . S
C763 C764 1.363 . S
C763 H766 0.929 . S
C764 C763 1.363 . S
C764 C770 1.428 . S
H765 C761 0.930 . S
H766 C763 0.929 . S
S767 N768 1.613 . S
S767 N769 1.610 . S
N768 S767 1.613 . S
N768 C771 1.350 . S
N769 S767 1.610 . S
N769 C770 1.351 . S
C770 C764 1.428 . S
C770 N769 1.351 . S
C770 C771 1.434 . S
C771 C762 1.429 . S
C771 N768 1.350 . S
C771 C770 1.434 . S
C772 C773 1.369 . S
C772 C774 1.419 1_565 S
C772 H776 0.930 . S
C773 C772 1.369 . S
C773 C782 1.429 . S
C774 C772 1.419 1_545 S
C774 C775 1.363 1_545 S
C774 H777 0.929 . S
C775 C774 1.363 1_565 S
C775 C781 1.429 . S
H776 C772 0.930 . S
H777 C774 0.929 . S
S778 N779 1.613 . S
S778 N780 1.610 . S
N779 S778 1.613 . S
N779 C782 1.350 . S
N780 S778 1.610 . S
N780 C781 1.351 . S
C781 C775 1.429 . S
C781 N780 1.351 . S
C781 C782 1.434 . S
C782 C773 1.429 . S
C782 N779 1.350 . S
C782 C781 1.434 . S
C783 C784 1.369 . S
C783 C785 1.419 . S
C783 H787 0.930 . S
C784 C783 1.369 . S
C784 C793 1.429 . S
C785 C783 1.419 . S
C785 C786 1.363 . S
C785 H788 0.929 . S
C786 C785 1.363 . S
C786 C792 1.428 . S
H787 C783 0.930 . S
H788 C785 0.929 . S
S789 N790 1.613 . S
S789 N791 1.610 . S
N790 S789 1.613 . S
N790 C793 1.350 . S
N791 S789 1.610 . S
N791 C792 1.351 . S
C792 C786 1.428 . S
C792 N791 1.351 . S
C792 C793 1.434 . S
C793 C784 1.429 . S
C793 N790 1.350 . S
C793 C792 1.434 . S
C794 C795 1.362 1_545 S
C794 C796 1.419 . S
C794 H798 0.930 . S
C795 C794 1.362 1_565 S
C795 C804 1.433 . S
C796 C794 1.419 . S
C796 C797 1.363 . S
C796 H799 0.929 . S
C797 C796 1.363 . S
C797 C803 1.428 1_545 S
H798 C794 0.930 . S
H799 C796 0.929 . S
S800 N801 1.613 . S
S800 N802 1.610 . S
N801 S800 1.613 . S
N801 C804 1.350 . S
N802 S800 1.610 . S
N802 C803 1.351 . S
C803 C797 1.428 1_565 S
C803 N802 1.351 . S
C803 C804 1.434 . S
C804 C795 1.433 . S
C804 N801 1.350 . S
C804 C803 1.434 . S
C805 C806 1.369 . S
C805 C807 1.419 . S
C805 H809 0.930 . S
C806 C805 1.369 . S
C806 C815 1.429 . S
C807 C805 1.419 . S
C807 C808 1.363 . S
C807 H810 0.929 . S
C808 C807 1.363 . S
C808 C814 1.428 . S
H809 C805 0.930 . S
H810 C807 0.929 . S
S811 N812 1.613 . S
S811 N813 1.610 . S
N812 S811 1.613 . S
N812 C815 1.350 . S
N813 S811 1.610 . S
N813 C814 1.351 . S
C814 C808 1.428 . S
C814 N813 1.351 . S
C814 C815 1.434 . S
C815 C806 1.429 . S
C815 N812 1.350 . S
C815 C814 1.434 . S
C816 C817 1.369 . S
C816 C818 1.419 . S
C816 H820 0.930 . S
C817 C816 1.369 . S
C817 C826 1.429 . S
C818 C816 1.419 . S
C818 C819 1.363 . S
C818 H821 0.929 . S
C819 C818 1.363 . S
C819 C825 1.428 . S
H820 C816 0.930 . S
H821 C818 0.929 . S
S822 N823 1.613 . S
S822 N824 1.610 . S
N823 S822 1.613 . S
N823 C826 1.350 . S
N824 S822 1.610 . S
N824 C825 1.351 . S
C825 C819 1.428 . S
C825 N824 1.351 . S
C825 C826 1.434 . S
C826 C817 1.429 . S
C826 N823 1.350 . S
C826 C825 1.434 . S
C827 C828 1.369 . S
C827 C829 1.419 . S
C827 H831 0.930 . S
C828 C827 1.369 . S
C828 C837 1.429 . S
C829 C827 1.419 . S
C829 C830 1.363 . S
C829 H832 0.929 . S
C830 C829 1.363 . S
C830 C836 1.428 . S
H831 C827 0.930 . S
H832 C829 0.929 . S
S833 N834 1.613 . S
S833 N835 1.610 . S
N834 S833 1.613 . S
N834 C837 1.350 1_545 S
N835 S833 1.610 . S
N835 C836 1.351 1_545 S
C836 C830 1.428 . S
C836 N835 1.351 1_565 S
C836 C837 1.434 . S
C837 C828 1.429 . S
C837 N834 1.350 1_565 S
C837 C836 1.434 . S
C838 C839 1.369 . S
C838 C840 1.419 . S
C838 H842 0.930 . S
C839 C838 1.369 . S
C839 C848 1.429 . S
C840 C838 1.419 . S
C840 C841 1.363 . S
C840 H843 0.929 . S
C841 C840 1.363 . S
C841 C847 1.428 . S
H842 C838 0.930 . S
H843 C840 0.929 . S
S844 N845 1.613 . S
S844 N846 1.610 . S
N845 S844 1.613 . S
N845 C848 1.350 . S
N846 S844 1.610 . S
N846 C847 1.351 . S
C847 C841 1.428 . S
C847 N846 1.351 . S
C847 C848 1.434 . S
C848 C839 1.429 . S
C848 N845 1.350 . S
C848 C847 1.434 . S
C849 C850 1.369 . S
C849 C851 1.419 . S
C849 H853 0.930 . S
C850 C849 1.369 . S
C850 C859 1.429 . S
C851 C849 1.419 . S
C851 C852 1.363 . S
C851 H854 0.929 . S
C852 C851 1.363 . S
C852 C858 1.428 . S
H853 C849 0.930 . S
H854 C851 0.929 . S
S855 N856 1.613 . S
S855 N857 1.610 . S
N856 S855 1.613 . S
N856 C859 1.350 1_565 S
N857 S855 1.610 . S
N857 C858 1.351 1_565 S
C858 C852 1.428 . S
C858 N857 1.351 1_545 S
C858 C859 1.434 . S
C859 C850 1.429 . S
C859 N856 1.350 1_545 S
C859 C858 1.434 . S
C860 C861 1.369 . S
C860 C862 1.419 . S
C860 H864 0.930 . S
C861 C860 1.369 . S
C861 C870 1.429 . S
C862 C860 1.419 . S
C862 C863 1.363 . S
C862 H865 0.929 . S
C863 C862 1.363 . S
C863 C869 1.428 . S
H864 C860 0.930 . S
H865 C862 0.929 . S
S866 N867 1.613 . S
S866 N868 1.610 . S
N867 S866 1.613 . S
N867 C870 1.350 . S
N868 S866 1.610 . S
N868 C869 1.351 . S
C869 C863 1.428 . S
C869 N868 1.351 . S
C869 C870 1.434 . S
C870 C861 1.429 . S
C870 N867 1.350 . S
C870 C869 1.434 . S
C871 C872 1.369 . S
C871 C873 1.419 . S
C871 H875 0.930 1_545 S
C872 C871 1.369 . S
C872 C881 1.429 . S
C873 C871 1.419 . S
C873 C874 1.363 . S
C873 H876 0.929 1_545 S
C874 C873 1.363 . S
C874 C880 1.428 . S
H875 C871 0.930 1_565 S
H876 C873 0.929 1_565 S
S877 N878 1.613 . S
S877 N879 1.610 . S
N878 S877 1.613 . S
N878 C881 1.350 . S
N879 S877 1.610 . S
N879 C880 1.351 . S
C880 C874 1.428 . S
C880 N879 1.351 . S
C880 C881 1.434 . S
C881 C872 1.429 . S
C881 N878 1.350 . S
C881 C880 1.434 . S
C882 C883 1.369 . S
C882 C884 1.419 . S
C882 H886 0.930 . S
C883 C882 1.369 . S
C883 C892 1.429 . S
C884 C882 1.419 . S
C884 C885 1.363 . S
C884 H887 0.929 . S
C885 C884 1.363 . S
C885 C891 1.428 . S
H886 C882 0.930 . S
H887 C884 0.929 . S
S888 N889 1.613 . S
S888 N890 1.610 . S
N889 S888 1.613 . S
N889 C892 1.350 . S
N890 S888 1.610 . S
N890 C891 1.351 . S
C891 C885 1.428 . S
C891 N890 1.351 . S
C891 C892 1.434 . S
C892 C883 1.429 . S
C892 N889 1.350 . S
C892 C891 1.434 . S
C893 C894 1.369 . S
C893 C895 1.419 . S
C893 H897 0.930 1_565 S
C894 C893 1.369 . S
C894 C903 1.429 . S
C895 C893 1.419 . S
C895 C896 1.363 . S
C895 H898 0.929 1_565 S
C896 C895 1.363 . S
C896 C902 1.428 . S
H897 C893 0.930 1_545 S
H898 C895 0.929 1_545 S
S899 N900 1.613 . S
S899 N901 1.610 . S
N900 S899 1.613 . S
N900 C903 1.350 . S
N901 S899 1.610 . S
N901 C902 1.351 . S
C902 C896 1.428 . S
C902 N901 1.351 . S
C902 C903 1.434 . S
C903 C894 1.429 . S
C903 N900 1.350 . S
C903 C902 1.434 . S
C904 C905 1.369 . S
C904 C906 1.419 . S
C904 H908 0.930 . S
C905 C904 1.369 . S
C905 C914 1.429 . S
C906 C904 1.419 . S
C906 C907 1.363 . S
C906 H909 0.929 . S
C907 C906 1.363 . S
C907 C913 1.428 . S
H908 C904 0.930 . S
H909 C906 0.929 . S
S910 N911 1.613 . S
S910 N912 1.610 . S
N911 S910 1.613 . S
N911 C914 1.350 . S
N912 S910 1.610 . S
N912 C913 1.351 . S
C913 C907 1.428 . S
C913 N912 1.351 . S
C913 C914 1.434 . S
C914 C905 1.429 . S
C914 N911 1.350 . S
C914 C913 1.434 . S
C915 C916 1.369 . S
C915 C917 1.419 . S
C915 H919 0.930 . S
C916 C915 1.369 . S
C916 C925 1.429 . S
C917 C915 1.419 . S
C917 C918 1.363 . S
C917 H920 0.929 . S
C918 C917 1.363 . S
C918 C924 1.428 . S
H919 C915 0.930 . S
H920 C917 0.929 . S
S921 N922 1.613 . S
S921 N923 1.610 . S
N922 S921 1.613 . S
N922 C925 1.350 . S
N923 S921 1.610 . S
N923 C924 1.351 . S
C924 C918 1.428 . S
C924 N923 1.351 . S
C924 C925 1.434 . S
C925 C916 1.429 . S
C925 N922 1.350 . S
C925 C924 1.434 . S
C926 C927 1.369 . S
C926 C928 1.419 1_655 S
C926 H930 0.930 . S
C927 C926 1.369 . S
C927 C936 1.429 . S
C928 C926 1.419 1_455 S
C928 C929 1.363 . S
C928 H931 0.929 . S
C929 C928 1.363 . S
C929 C935 1.428 . S
H930 C926 0.930 . S
H931 C928 0.929 . S
S932 N933 1.613 . S
S932 N934 1.600 1_655 S
N933 S932 1.613 . S
N933 C936 1.350 . S
N934 S932 1.600 1_455 S
N934 C935 1.352 . S
C935 C929 1.428 . S
C935 N934 1.352 . S
C935 C936 1.434 1_455 S
C936 C927 1.429 . S
C936 N933 1.350 . S
C936 C935 1.434 1_655 S
C937 C938 1.369 . S
C937 C939 1.419 1_655 S
C937 H941 0.930 . S
C938 C937 1.369 . S
C938 C947 1.429 . S
C939 C937 1.419 1_455 S
C939 C940 1.363 . S
C939 H942 0.929 . S
C940 C939 1.363 . S
C940 C946 1.428 . S
H941 C937 0.930 . S
H942 C939 0.929 . S
S943 N944 1.613 . S
S943 N945 1.610 1_655 S
N944 S943 1.613 . S
N944 C947 1.350 . S
N945 S943 1.610 1_455 S
N945 C946 1.351 . S
C946 C940 1.428 . S
C946 N945 1.351 . S
C946 C947 1.434 1_455 S
C947 C938 1.429 . S
C947 N944 1.350 . S
C947 C946 1.434 1_655 S
C948 C949 1.369 . S
C948 C950 1.419 . S
C948 H952 0.930 . S
C949 C948 1.369 . S
C949 C958 1.429 . S
C950 C948 1.419 . S
C950 C951 1.363 . S
C950 H953 0.929 . S
C951 C950 1.363 . S
C951 C957 1.428 . S
H952 C948 0.930 . S
H953 C950 0.929 . S
S954 N955 1.613 . S
S954 N956 1.610 . S
N955 S954 1.613 . S
N955 C958 1.350 . S
N956 S954 1.610 . S
N956 C957 1.351 . S
C957 C951 1.428 . S
C957 N956 1.351 . S
C957 C958 1.434 . S
C958 C949 1.429 . S
C958 N955 1.350 . S
C958 C957 1.434 . S
C959 C960 1.369 . S
C959 C961 1.419 . S
C959 H963 0.930 . S
C960 C959 1.369 . S
C960 C969 1.429 . S
C961 C959 1.419 . S
C961 C962 1.363 . S
C961 H964 0.929 . S
C962 C961 1.363 . S
C962 C968 1.428 . S
H963 C959 0.930 . S
H964 C961 0.929 . S
S965 N966 1.613 . S
S965 N967 1.610 . S
N966 S965 1.613 . S
N966 C969 1.350 . S
N967 S965 1.610 . S
N967 C968 1.351 . S
C968 C962 1.428 . S
C968 N967 1.351 . S
C968 C969 1.434 . S
C969 C960 1.429 . S
C969 N966 1.350 . S
C969 C968 1.434 . S
C970 C971 1.369 . S
C970 C972 1.419 1_455 S
C970 H974 0.930 . S
C971 C970 1.369 . S
C971 C980 1.429 . S
C972 C970 1.419 1_655 S
C972 C973 1.363 . S
C972 H975 0.929 . S
C973 C972 1.363 . S
C973 C979 1.428 . S
H974 C970 0.930 . S
H975 C972 0.929 . S
S976 N977 1.613 . S
S976 N978 1.610 1_455 S
N977 S976 1.613 . S
N977 C980 1.350 . S
N978 S976 1.610 1_655 S
N978 C979 1.351 . S
C979 C973 1.428 . S
C979 N978 1.351 . S
C979 C980 1.434 1_655 S
C980 C971 1.429 . S
C980 N977 1.350 . S
C980 C979 1.434 1_455 S
C981 C982 1.369 . S
C981 C983 1.419 . S
C981 H985 0.930 . S
C982 C981 1.369 . S
C982 C991 1.429 1_455 S
C983 C981 1.419 . S
C983 C984 1.363 1_455 S
C983 H986 0.929 . S
C984 C983 1.363 1_655 S
C984 C990 1.428 . S
H985 C981 0.930 . S
H986 C983 0.929 . S
S987 N988 1.613 . S
S987 N989 1.610 . S
N988 S987 1.613 . S
N988 C991 1.350 . S
N989 S987 1.610 . S
N989 C990 1.351 . S
C990 C984 1.428 . S
C990 N989 1.351 . S
C990 C991 1.434 . S
C991 C982 1.429 1_655 S
C991 N988 1.350 . S
C991 C990 1.434 . S
C992 C993 1.369 . S
C992 C994 1.419 . S
C992 H996 0.930 . S
C993 C992 1.369 . S
C993 C1002 1.429 . S
C994 C992 1.419 . S
C994 C995 1.363 . S
C994 H997 0.929 . S
C995 C994 1.363 . S
C995 C1001 1.428 . S
H996 C992 0.930 . S
H997 C994 0.929 . S
S998 N999 1.613 . S
S998 N1000 1.610 . S
N999 S998 1.613 . S
N999 C1002 1.350 . S
N1000 S998 1.610 . S
N1000 C1001 1.351 . S
C1001 C995 1.428 . S
C1001 N1000 1.351 . S
C1001 C1002 1.434 . S
C1002 C993 1.429 . S
C1002 N999 1.350 . S
C1002 C1001 1.434 . S
C1003 C1004 1.369 . S
C1003 C1005 1.419 . S
C1003 H1007 0.930 . S
C1004 C1003 1.369 . S
C1004 C1013 1.429 . S
C1005 C1003 1.419 . S
C1005 C1006 1.363 . S
C1005 H1008 0.929 . S
C1006 C1005 1.363 . S
C1006 C1012 1.428 . S
H1007 C1003 0.930 . S
H1008 C1005 0.929 . S
S1009 N1010 1.613 . S
S1009 N1011 1.610 . S
N1010 S1009 1.613 . S
N1010 C1013 1.350 . S
N1011 S1009 1.610 . S
N1011 C1012 1.351 . S
C1012 C1006 1.428 . S
C1012 N1011 1.351 . S
C1012 C1013 1.434 . S
C1013 C1004 1.429 . S
C1013 N1010 1.350 . S
C1013 C1012 1.434 . S
C1014 C1015 1.369 . S
C1014 C1016 1.419 . S
C1014 H1018 0.930 . S
C1015 C1014 1.369 . S
C1015 C1024 1.429 . S
C1016 C1014 1.419 . S
C1016 C1017 1.363 . S
C1016 H1019 0.929 . S
C1017 C1016 1.363 . S
C1017 C1023 1.428 . S
H1018 C1014 0.930 . S
H1019 C1016 0.929 . S
S1020 N1021 1.613 . S
S1020 N1022 1.610 . S
N1021 S1020 1.613 . S
N1021 C1024 1.350 . S
N1022 S1020 1.610 . S
N1022 C1023 1.351 . S
C1023 C1017 1.428 . S
C1023 N1022 1.351 . S
C1023 C1024 1.434 . S
C1024 C1015 1.429 . S
C1024 N1021 1.350 . S
C1024 C1023 1.434 . S
C1025 C1026 1.369 . S
C1025 C1027 1.419 . S
C1025 H1029 0.930 . S
C1026 C1025 1.369 . S
C1026 C1035 1.429 . S
C1027 C1025 1.419 . S
C1027 C1028 1.363 . S
C1027 H1030 0.929 . S
C1028 C1027 1.363 . S
C1028 C1034 1.428 . S
H1029 C1025 0.930 . S
H1030 C1027 0.929 . S
S1031 N1032 1.613 . S
S1031 N1033 1.610 . S
N1032 S1031 1.613 . S
N1032 C1035 1.350 . S
N1033 S1031 1.610 . S
N1033 C1034 1.351 . S
C1034 C1028 1.428 . S
C1034 N1033 1.351 . S
C1034 C1035 1.434 . S
C1035 C1026 1.429 . S
C1035 N1032 1.350 . S
C1035 C1034 1.434 . S
C1036 C1037 1.369 . S
C1036 C1038 1.419 . S
C1036 H1040 0.930 . S
C1037 C1036 1.369 . S
C1037 C1046 1.429 . S
C1038 C1036 1.419 . S
C1038 C1039 1.363 . S
C1038 H1041 0.929 . S
C1039 C1038 1.363 . S
C1039 C1045 1.428 . S
H1040 C1036 0.930 . S
H1041 C1038 0.929 . S
S1042 N1043 1.613 . S
S1042 N1044 1.610 . S
N1043 S1042 1.613 . S
N1043 C1046 1.350 . S
N1044 S1042 1.610 . S
N1044 C1045 1.351 . S
C1045 C1039 1.428 . S
C1045 N1044 1.351 . S
C1045 C1046 1.434 . S
C1046 C1037 1.429 . S
C1046 N1043 1.350 . S
C1046 C1045 1.434 . S
C1047 C1048 1.369 . S
C1047 C1049 1.419 . S
C1047 H1051 0.930 . S
C1048 C1047 1.369 . S
C1048 C1057 1.429 . S
C1049 C1047 1.419 . S
C1049 C1050 1.363 . S
C1049 H1052 0.929 . S
C1050 C1049 1.363 . S
C1050 C1056 1.428 . S
H1051 C1047 0.930 . S
H1052 C1049 0.929 . S
S1053 N1054 1.613 . S
S1053 N1055 1.610 . S
N1054 S1053 1.613 . S
N1054 C1057 1.350 . S
N1055 S1053 1.610 . S
N1055 C1056 1.351 . S
C1056 C1050 1.428 . S
C1056 N1055 1.351 . S
C1056 C1057 1.434 . S
C1057 C1048 1.429 . S
C1057 N1054 1.350 . S
C1057 C1056 1.434 . S
C1058 C1059 1.369 . S
C1058 C1060 1.419 . S
C1058 H1062 0.930 . S
C1059 C1058 1.369 . S
C1059 C1068 1.429 . S
C1060 C1058 1.419 . S
C1060 C1061 1.363 . S
C1060 H1063 0.929 . S
C1061 C1060 1.363 . S
C1061 C1067 1.428 . S
H1062 C1058 0.930 . S
H1063 C1060 0.929 . S
S1064 N1065 1.613 . S
S1064 N1066 1.610 . S
N1065 S1064 1.613 . S
N1065 C1068 1.350 . S
N1066 S1064 1.610 . S
N1066 C1067 1.351 . S
C1067 C1061 1.428 . S
C1067 N1066 1.351 . S
C1067 C1068 1.434 . S
C1068 C1059 1.429 . S
C1068 N1065 1.350 . S
C1068 C1067 1.434 . S
C1069 C1070 1.369 . S
C1069 C1071 1.419 . S
C1069 H1073 0.930 . S
C1070 C1069 1.369 . S
C1070 C1079 1.429 . S
C1071 C1069 1.419 . S
C1071 C1072 1.363 . S
C1071 H1074 0.929 . S
C1072 C1071 1.363 . S
C1072 C1078 1.428 . S
H1073 C1069 0.930 . S
H1074 C1071 0.929 . S
S1075 N1076 1.613 . S
S1075 N1077 1.610 . S
N1076 S1075 1.613 . S
N1076 C1079 1.350 . S
N1077 S1075 1.610 . S
N1077 C1078 1.351 . S
C1078 C1072 1.428 . S
C1078 N1077 1.351 . S
C1078 C1079 1.434 . S
C1079 C1070 1.429 . S
C1079 N1076 1.350 . S
C1079 C1078 1.434 . S
C1080 C1081 1.369 . S
C1080 C1082 1.419 . S
C1080 H1084 0.930 . S
C1081 C1080 1.369 . S
C1081 C1090 1.429 . S
C1082 C1080 1.419 . S
C1082 C1083 1.363 . S
C1082 H1085 0.929 . S
C1083 C1082 1.363 . S
C1083 C1089 1.428 . S
H1084 C1080 0.930 . S
H1085 C1082 0.929 . S
S1086 N1087 1.613 . S
S1086 N1088 1.610 . S
N1087 S1086 1.613 . S
N1087 C1090 1.350 . S
N1088 S1086 1.610 . S
N1088 C1089 1.351 . S
C1089 C1083 1.428 . S
C1089 N1088 1.351 . S
C1089 C1090 1.434 . S
C1090 C1081 1.429 . S
C1090 N1087 1.350 . S
C1090 C1089 1.434 . S
C1091 C1092 1.369 . S
C1091 C1093 1.419 . S
C1091 H1095 0.930 . S
C1092 C1091 1.369 . S
C1092 C1101 1.429 . S
C1093 C1091 1.419 . S
C1093 C1094 1.363 . S
C1093 H1096 0.929 . S
C1094 C1093 1.363 . S
C1094 C1100 1.428 . S
H1095 C1091 0.930 . S
H1096 C1093 0.929 . S
S1097 N1098 1.613 . S
S1097 N1099 1.610 . S
N1098 S1097 1.613 . S
N1098 C1101 1.350 . S
N1099 S1097 1.610 . S
N1099 C1100 1.351 . S
C1100 C1094 1.428 . S
C1100 N1099 1.351 . S
C1100 C1101 1.434 . S
C1101 C1092 1.429 . S
C1101 N1098 1.350 . S
C1101 C1100 1.434 . S
C1102 C1103 1.369 . S
C1102 C1104 1.419 . S
C1102 H1106 0.930 . S
C1103 C1102 1.369 . S
C1103 C1112 1.429 . S
C1104 C1102 1.419 . S
C1104 C1105 1.363 . S
C1104 H1107 0.929 . S
C1105 C1104 1.363 . S
C1105 C1111 1.428 . S
H1106 C1102 0.930 . S
H1107 C1104 0.929 . S
S1108 N1109 1.613 . S
S1108 N1110 1.610 . S
N1109 S1108 1.613 . S
N1109 C1112 1.350 . S
N1110 S1108 1.610 . S
N1110 C1111 1.351 . S
C1111 C1105 1.428 . S
C1111 N1110 1.351 . S
C1111 C1112 1.434 . S
C1112 C1103 1.429 . S
C1112 N1109 1.350 . S
C1112 C1111 1.434 . S
C1113 C1114 1.369 . S
C1113 C1115 1.419 . S
C1113 H1117 0.930 . S
C1114 C1113 1.369 . S
C1114 C1123 1.429 . S
C1115 C1113 1.419 . S
C1115 C1116 1.363 . S
C1115 H1118 0.929 . S
C1116 C1115 1.363 . S
C1116 C1122 1.428 . S
H1117 C1113 0.930 . S
H1118 C1115 0.929 . S
S1119 N1120 1.613 . S
S1119 N1121 1.610 . S
N1120 S1119 1.613 . S
N1120 C1123 1.350 . S
N1121 S1119 1.610 . S
N1121 C1122 1.351 . S
C1122 C1116 1.428 . S
C1122 N1121 1.351 . S
C1122 C1123 1.434 . S
C1123 C1114 1.429 . S
C1123 N1120 1.350 . S
C1123 C1122 1.434 . S
C1124 C1125 1.369 . S
C1124 C1126 1.419 . S
C1124 H1128 0.930 . S
C1125 C1124 1.369 . S
C1125 C1134 1.429 . S
C1126 C1124 1.419 . S
C1126 C1127 1.363 . S
C1126 H1129 0.929 . S
C1127 C1126 1.363 . S
C1127 C1133 1.428 . S
H1128 C1124 0.930 . S
H1129 C1126 0.929 . S
S1130 N1131 1.613 . S
S1130 N1132 1.610 . S
N1131 S1130 1.613 . S
N1131 C1134 1.350 . S
N1132 S1130 1.610 . S
N1132 C1133 1.351 . S
C1133 C1127 1.428 . S
C1133 N1132 1.351 . S
C1133 C1134 1.434 . S
C1134 C1125 1.429 . S
C1134 N1131 1.350 . S
C1134 C1133 1.434 . S
C1135 C1136 1.369 . S
C1135 C1137 1.419 . S
C1135 H1139 0.930 1_545 S
C1136 C1135 1.369 . S
C1136 C1145 1.429 . S
C1137 C1135 1.419 . S
C1137 C1138 1.363 . S
C1137 H1140 0.929 . S
C1138 C1137 1.363 . S
C1138 C1144 1.428 . S
H1139 C1135 0.930 1_565 S
H1140 C1137 0.929 . S
S1141 N1142 1.613 1_455 S
S1141 N1143 1.610 . S
N1142 S1141 1.613 1_655 S
N1142 C1145 1.350 1_655 S
N1143 S1141 1.610 . S
N1143 C1144 1.351 . S
C1144 C1138 1.428 . S
C1144 N1143 1.351 . S
C1144 C1145 1.434 . S
C1145 C1136 1.429 . S
C1145 N1142 1.350 1_455 S
C1145 C1144 1.434 . S
C1146 C1147 1.369 . S
C1146 C1148 1.419 . S
C1146 H1150 0.930 . S
C1147 C1146 1.369 . S
C1147 C1156 1.429 . S
C1148 C1146 1.419 . S
C1148 C1149 1.363 . S
C1148 H1151 0.929 . S
C1149 C1148 1.363 . S
C1149 C1155 1.428 . S
H1150 C1146 0.930 . S
H1151 C1148 0.929 . S
S1152 N1153 1.613 . S
S1152 N1154 1.610 . S
N1153 S1152 1.613 . S
N1153 C1156 1.350 . S
N1154 S1152 1.610 . S
N1154 C1155 1.351 . S
C1155 C1149 1.428 . S
C1155 N1154 1.351 . S
C1155 C1156 1.434 . S
C1156 C1147 1.429 . S
C1156 N1153 1.350 . S
C1156 C1155 1.434 . S
C1157 C1158 1.369 . S
C1157 C1159 1.419 . S
C1157 H1161 0.930 . S
C1158 C1157 1.369 . S
C1158 C1167 1.429 . S
C1159 C1157 1.419 . S
C1159 C1160 1.363 . S
C1159 H1162 0.929 . S
C1160 C1159 1.363 . S
C1160 C1166 1.443 . S
H1161 C1157 0.930 . S
H1162 C1159 0.929 . S
S1163 N1164 1.613 . S
S1163 N1165 1.610 . S
N1164 S1163 1.613 . S
N1164 C1167 1.350 1_545 S
N1165 S1163 1.610 . S
N1165 C1166 1.329 1_545 S
C1166 C1160 1.443 . S
C1166 N1165 1.329 1_565 S
C1166 C1167 1.440 . S
C1167 C1158 1.429 . S
C1167 N1164 1.350 1_565 S
C1167 C1166 1.440 . S
C641 C6 1.331 . S
C643 C495 1.326 . S
C652 C215 1.321 . S
C654 C46 1.333 . S
C663 C86 1.333 . S
C665 C575 1.323 . S
C674 C126 1.307 1_554 S
C676 C295 1.311 1_556 S
C685 C175 1.333 . S
C687 C326 1.323 . S
C696 C406 1.335 . S
C698 C255 1.322 . S
C707 C535 1.309 1_556 S
C709 C366 1.310 1_554 S
C718 C446 1.320 . S
C720 C615 1.334 . S
C729 C378 2.551 . S
C731 C15 2.457 1_546 S
C740 C55 2.458 . S
C742 C418 2.551 . S
C751 C95 2.468 . S
C753 C458 2.546 . S
C762 C338 2.552 . S
C764 C135 2.460 . S
C773 C529 2.546 . S
C775 C166 2.463 1_564 S
C784 C569 2.547 . S
C786 C206 2.462 . S
C795 C246 2.468 . S
C797 C609 2.546 . S
C806 C489 2.548 . S
C808 C286 2.460 . S
C817 C335 2.466 . S
C819 C58 2.546 . S
C828 C375 2.463 . S
C830 C98 2.549 . S
C839 C415 2.466 1_556 S
C841 C138 2.546 . S
C850 C18 2.552 . S
C852 C455 2.460 . S
C861 C209 2.550 . S
C863 C486 2.464 . S
C872 C526 2.464 . S
C874 C249 2.546 . S
C883 C289 2.546 . S
C885 C566 2.463 1_554 S
C894 C606 2.464 . S
C896 C169 2.546 . S
C905 C10 3.062 . S
C907 C410 3.061 . S
C916 C50 3.058 . S
C918 C450 3.059 . S
C927 C330 3.059 . S
C929 C90 3.061 . S
C938 C130 3.059 . S
C940 C370 3.059 . S
C949 C179 3.060 . S
C951 C579 3.061 . S
C960 C219 3.062 . S
C962 C619 3.061 . S
C971 C499 3.059 . S
C973 C259 3.060 . S
C982 C299 3.059 . S
C984 C539 3.060 . S
C993 C9 1.955 . S
C995 C290 2.246 . S
C1004 C490 2.245 . S
C1006 C49 1.955 . S
C1015 C89 1.956 . S
C1017 C210 2.246 . S
C1026 C129 1.944 1_455 S
C1028 C570 2.252 . S
C1037 C178 1.946 . S
C1039 C139 2.252 . S
C1048 C339 2.249 . S
C1050 C218 1.951 . S
C1059 C258 1.952 . S
C1061 C59 2.248 . S
C1070 C419 2.253 . S
C1072 C298 1.945 1_655 S
C1081 C329 1.953 . S
C1083 C610 2.247 . S
C1092 C170 2.245 . S
C1094 C369 1.955 1_655 S
C1103 C530 2.252 . S
C1105 C409 1.947 . S
C1114 C449 1.956 . S
C1116 C250 2.246 . S
C1125 C498 1.947 . S
C1127 C459 2.251 . S
C1136 C538 1.944 1_455 S
C1138 C19 2.252 . S
C1147 C379 2.253 . S
C1149 C578 1.946 . S
C1158 C99 2.251 . S
C1160 C618 1.949 . S
