# Generated by pormake.
# Topology umo, (4)-cn, num edge types: 1
# Building blocks:
#     Node 0, Type 0, BuildingBlock: KOZSID_clean_sbu_0, # of connection points: 4
#     Node 1, Type 0, BuildingBlock: KOZSID_clean_sbu_0, # of connection points: 4
#     Node 2, Type 0, BuildingBlock: KOZSID_clean_sbu_0, # of connection points: 4
#     Node 3, Type 0, BuildingBlock: KOZSID_clean_sbu_0, # of connection points: 4
#     Node 4, Type 0, BuildingBlock: KOZSID_clean_sbu_0, # of connection points: 4
#     Node 5, Type 0, BuildingBlock: KOZSID_clean_sbu_0, # of connection points: 4
#     Node 6, Type 0, BuildingBlock: KOZSID_clean_sbu_0, # of connection points: 4
#     Node 7, Type 0, BuildingBlock: KOZSID_clean_sbu_0, # of connection points: 4
#     Node 8, Type 0, BuildingBlock: KOZSID_clean_sbu_0, # of connection points: 4
#     Node 9, Type 0, BuildingBlock: KOZSID_clean_sbu_0, # of connection points: 4
#     Node 10, Type 0, BuildingBlock: KOZSID_clean_sbu_0, # of connection points: 4
#     Node 11, Type 0, BuildingBlock: KOZSID_clean_sbu_0, # of connection points: 4
#     Edge 12, Type (0, 0), BuildingBlock: CIFDUS_clean_linker_0, # of connection points: 2
#     Edge 13, Type (0, 0), BuildingBlock: CIFDUS_clean_linker_0, # of connection points: 2
#     Edge 14, Type (0, 0), BuildingBlock: CIFDUS_clean_linker_0, # of connection points: 2
#     Edge 15, Type (0, 0), BuildingBlock: CIFDUS_clean_linker_0, # of connection points: 2
#     Edge 16, Type (0, 0), BuildingBlock: CIFDUS_clean_linker_0, # of connection points: 2
#     Edge 17, Type (0, 0), BuildingBlock: CIFDUS_clean_linker_0, # of connection points: 2
#     Edge 18, Type (0, 0), BuildingBlock: CIFDUS_clean_linker_0, # of connection points: 2
#     Edge 19, Type (0, 0), BuildingBlock: CIFDUS_clean_linker_0, # of connection points: 2
#     Edge 20, Type (0, 0), BuildingBlock: CIFDUS_clean_linker_0, # of connection points: 2
#     Edge 21, Type (0, 0), BuildingBlock: CIFDUS_clean_linker_0, # of connection points: 2
#     Edge 22, Type (0, 0), BuildingBlock: CIFDUS_clean_linker_0, # of connection points: 2
#     Edge 23, Type (0, 0), BuildingBlock: CIFDUS_clean_linker_0, # of connection points: 2
#     Edge 24, Type (0, 0), BuildingBlock: CIFDUS_clean_linker_0, # of connection points: 2
#     Edge 25, Type (0, 0), BuildingBlock: CIFDUS_clean_linker_0, # of connection points: 2
#     Edge 26, Type (0, 0), BuildingBlock: CIFDUS_clean_linker_0, # of connection points: 2
#     Edge 27, Type (0, 0), BuildingBlock: CIFDUS_clean_linker_0, # of connection points: 2
#     Edge 28, Type (0, 0), BuildingBlock: CIFDUS_clean_linker_0, # of connection points: 2
#     Edge 29, Type (0, 0), BuildingBlock: CIFDUS_clean_linker_0, # of connection points: 2
#     Edge 30, Type (0, 0), BuildingBlock: CIFDUS_clean_linker_0, # of connection points: 2
#     Edge 31, Type (0, 0), BuildingBlock: CIFDUS_clean_linker_0, # of connection points: 2
#     Edge 32, Type (0, 0), BuildingBlock: CIFDUS_clean_linker_0, # of connection points: 2
#     Edge 33, Type (0, 0), BuildingBlock: CIFDUS_clean_linker_0, # of connection points: 2
#     Edge 34, Type (0, 0), BuildingBlock: CIFDUS_clean_linker_0, # of connection points: 2
#     Edge 35, Type (0, 0), BuildingBlock: CIFDUS_clean_linker_0, # of connection points: 2
# Relax obj value: 0.199
# Max RMSD: 0.246
# Mean RMSD: 0.246
data_MOF--net-umo--node1-KOZSID_clean_sbu_0--edge1-CIFDUS_clean_linker_0
_symmetry_space_group_name_H-M    P1
_symmetry_Int_Tables_number       1
_symmetry_cell_setting            triclinic
loop_
_symmetry_equiv_pos_as_xyz
'x, y, z'
_cell_length_a     58.17455
_cell_length_b     58.194285
_cell_length_c     34.383004
_cell_angle_alpha  90.084883
_cell_angle_beta   89.820414
_cell_angle_gamma 119.98514
loop_
_atom_site_label
_atom_site_type_symbol
_atom_site_fract_x
_atom_site_fract_y
_atom_site_fract_z
_atom_type_partial_charge
C0 C 0.21158 0.52174 0.3317 0.0
C1 C 0.21447 0.49971 0.32594 0.0
C2 C 0.20248 0.48316 0.35715 0.0
C3 C 0.19286 0.49593 0.37996 0.0
N4 N 0.19798 0.51927 0.36474 0.0
Co5 Co 0.18804 0.5442 0.38724 0.0
N6 N 0.18561 0.52964 0.43993 0.0
C7 C 0.18239 0.50558 0.4482 0.0
C8 C 0.18131 0.50088 0.48746 0.0
C9 C 0.18373 0.52324 0.50478 0.0
C10 C 0.18594 0.54035 0.47497 0.0
N11 N 0.17817 0.56925 0.40991 0.0
C12 C 0.17917 0.57682 0.44745 0.0
C13 C 0.16997 0.59461 0.45081 0.0
C14 C 0.16297 0.59807 0.41394 0.0
C15 C 0.16817 0.58217 0.39014 0.0
N16 N 0.19054 0.55818 0.33412 0.0
C17 C 0.1795 0.57238 0.32185 0.0
C18 C 0.18766 0.58203 0.28483 0.0
C19 C 0.20485 0.5734 0.27359 0.0
C20 C 0.20608 0.55858 0.30427 0.0
N21 N 0.14981 0.51824 0.37906 0.0
C22 C 0.09423 0.4848 0.36678 0.0
C23 C 0.11311 0.4875 0.3385 0.0
C24 C 0.14058 0.50433 0.34505 0.0
C25 C 0.10441 0.49926 0.40146 0.0
C26 C 0.13182 0.51524 0.40718 0.0
N27 N 0.22579 0.57078 0.39532 0.0
C28 C 0.26119 0.61612 0.3876 0.0
C29 C 0.27915 0.61058 0.40633 0.0
C30 C 0.26981 0.5845 0.41953 0.0
C31 C 0.24313 0.56479 0.41326 0.0
C32 C 0.2348 0.59625 0.38293 0.0
H33 H 0.23643 0.54481 0.42315 0.0
H34 H 0.2216 0.60175 0.36942 0.0
H35 H 0.15438 0.50634 0.32239 0.0
H36 H 0.13835 0.52574 0.43438 0.0
C37 C 0.18489 0.49009 0.41894 0.0
C38 C 0.22144 0.54454 0.30529 0.0
C39 C 0.18639 0.5656 0.4805 0.0
C40 C 0.16848 0.58231 0.34912 0.0
H41 H 0.22456 0.49624 0.30212 0.0
H42 H 0.20233 0.46488 0.36357 0.0
H43 H 0.17994 0.48371 0.50184 0.0
H44 H 0.18369 0.52641 0.53578 0.0
H45 H 0.16826 0.60386 0.47714 0.0
H46 H 0.15584 0.61129 0.40543 0.0
H47 H 0.18351 0.59565 0.26913 0.0
H48 H 0.21574 0.57841 0.24653 0.0
H49 H 0.1069 0.47671 0.31136 0.0
H50 H 0.09143 0.49897 0.42424 0.0
H51 H 0.26731 0.63601 0.3776 0.0
H52 H 0.28302 0.57938 0.43437 0.0
C53 C 0.69863 0.20774 0.50039 0.0
C54 C 0.72383 0.21082 0.49748 0.0
C55 C 0.72643 0.19718 0.52817 0.0
C56 C 0.70269 0.1864 0.54785 0.0
N57 N 0.68546 0.19239 0.53125 0.0
Co58 Co 0.64901 0.18054 0.54916 0.0
N59 N 0.65756 0.17483 0.60258 0.0
C60 C 0.67779 0.17103 0.61247 0.0
C61 C 0.67829 0.16649 0.65154 0.0
C62 C 0.65691 0.16726 0.667 0.0
C63 C 0.64454 0.17234 0.63637 0.0
N64 N 0.61246 0.1686 0.5673 0.0
C65 C 0.60311 0.16687 0.60402 0.0
C66 C 0.57608 0.15803 0.60338 0.0
C67 C 0.5684 0.15358 0.56504 0.0
C68 C 0.59106 0.16009 0.54428 0.0
N69 N 0.64108 0.18643 0.49536 0.0
C70 C 0.61674 0.17621 0.47975 0.0
C71 C 0.61748 0.18664 0.44363 0.0
C72 C 0.64382 0.20442 0.43637 0.0
C73 C 0.65798 0.20362 0.46829 0.0
N74 N 0.63819 0.14331 0.53597 0.0
C75 C 0.61762 0.08952 0.51363 0.0
C76 C 0.63568 0.11066 0.48988 0.0
C77 C 0.64553 0.13718 0.50137 0.0
C78 C 0.61108 0.09632 0.54962 0.0
C79 C 0.62165 0.12305 0.56026 0.0
N80 N 0.65894 0.21735 0.56179 0.0
C81 C 0.6495 0.25307 0.55506 0.0
C82 C 0.67244 0.27032 0.57556 0.0
C83 C 0.68844 0.26038 0.58967 0.0
C84 C 0.68148 0.23387 0.58208 0.0
C85 C 0.64299 0.22682 0.54897 0.0
H86 H 0.69429 0.22672 0.59242 0.0
H87 H 0.62494 0.21422 0.53352 0.0
H88 H 0.65869 0.15277 0.48182 0.0
H89 H 0.61571 0.12725 0.58787 0.0
C90 C 0.69784 0.1757 0.58549 0.0
C91 C 0.68727 0.2186 0.47276 0.0
C92 C 0.61907 0.1718 0.63966 0.0
C93 C 0.59413 0.16333 0.50369 0.0
H94 H 0.73879 0.22189 0.47568 0.0
H95 H 0.74401 0.19643 0.53624 0.0
H96 H 0.69279 0.1636 0.66712 0.0
H97 H 0.65085 0.16391 0.69721 0.0
H98 H 0.56321 0.15511 0.62791 0.0
H99 H 0.54885 0.14748 0.55364 0.0
H100 H 0.60074 0.18351 0.42609 0.0
H101 H 0.65121 0.21705 0.4111 0.0
H102 H 0.64216 0.10691 0.46226 0.0
H103 H 0.59714 0.08119 0.56919 0.0
H104 H 0.63628 0.25969 0.54435 0.0
H105 H 0.7063 0.27306 0.60593 0.0
C106 C 0.50496 0.69855 0.68496 0.0
C107 C 0.5235 0.72496 0.69278 0.0
C108 C 0.53698 0.72516 0.72551 0.0
C109 C 0.52557 0.69918 0.73688 0.0
N110 N 0.50573 0.68274 0.71317 0.0
Co111 Co 0.48048 0.64482 0.72277 0.0
N112 N 0.48863 0.64879 0.77883 0.0
C113 C 0.5108 0.66815 0.7954 0.0
C114 C 0.51081 0.66566 0.83509 0.0
C115 C 0.48723 0.64327 0.84382 0.0
C116 C 0.47419 0.63326 0.80873 0.0
N117 N 0.45501 0.607 0.7326 0.0
C118 C 0.44294 0.595 0.76636 0.0
C119 C 0.42615 0.56806 0.76061 0.0
C120 C 0.428 0.56329 0.72171 0.0
C121 C 0.44582 0.58753 0.70591 0.0
N122 N 0.47287 0.64114 0.66666 0.0
C123 C 0.46247 0.61842 0.64626 0.0
C124 C 0.45906 0.62232 0.60771 0.0
C125 C 0.46782 0.64906 0.60416 0.0
C126 C 0.47596 0.66003 0.64087 0.0
N127 N 0.50874 0.63589 0.71368 0.0
C128 C 0.54214 0.61548 0.69196 0.0
C129 C 0.54207 0.63625 0.67106 0.0
C130 C 0.52535 0.6461 0.68231 0.0
C131 C 0.52619 0.60649 0.72554 0.0
C132 C 0.50992 0.61702 0.73598 0.0
N133 N 0.45164 0.65278 0.73085 0.0
C134 C 0.40748 0.64292 0.71381 0.0
C135 C 0.40905 0.66278 0.73864 0.0
C136 C 0.43294 0.67789 0.75925 0.0
C137 C 0.45404 0.67267 0.75476 0.0
C138 C 0.42847 0.63796 0.71099 0.0
H139 H 0.47222 0.68461 0.77063 0.0
H140 H 0.42587 0.62204 0.69221 0.0
H141 H 0.52508 0.66128 0.66461 0.0
H142 H 0.49732 0.60891 0.76121 0.0
C143 C 0.5278 0.69093 0.77421 0.0
C144 C 0.48736 0.68842 0.65051 0.0
C145 C 0.44882 0.60856 0.80425 0.0
C146 C 0.45068 0.59383 0.66596 0.0
H147 H 0.52663 0.74266 0.67815 0.0
H148 H 0.55162 0.74247 0.74112 0.0
H149 H 0.52544 0.67928 0.85547 0.0
H150 H 0.48047 0.63547 0.87273 0.0
H151 H 0.41404 0.55347 0.78224 0.0
H152 H 0.41684 0.54459 0.70657 0.0
H153 H 0.44984 0.60735 0.58535 0.0
H154 H 0.46788 0.65922 0.57779 0.0
H155 H 0.55448 0.64463 0.6456 0.0
H156 H 0.52524 0.59053 0.74288 0.0
H157 H 0.39015 0.63113 0.69608 0.0
H158 H 0.43531 0.69339 0.77906 0.0
C159 C 0.81475 0.50161 0.85542 0.0
C160 C 0.80768 0.52083 0.86258 0.0
C161 C 0.82056 0.53388 0.89575 0.0
C162 C 0.8342 0.52163 0.90773 0.0
N163 N 0.83054 0.50157 0.88418 0.0
Co164 Co 0.8433 0.47633 0.89362 0.0
N165 N 0.84814 0.48507 0.94965 0.0
C166 C 0.85127 0.50755 0.96576 0.0
C167 C 0.85599 0.50906 0.00499 0.0
C168 C 0.85598 0.48615 0.01406 0.0
C169 C 0.85103 0.4718 0.97968 0.0
N170 N 0.85607 0.45106 0.90347 0.0
C171 C 0.85742 0.43993 0.93745 0.0
C172 C 0.86695 0.42263 0.93094 0.0
C173 C 0.87223 0.42359 0.89173 0.0
C174 C 0.86549 0.4412 0.87632 0.0
N175 N 0.8385 0.46802 0.83745 0.0
C176 C 0.85009 0.45684 0.817 0.0
C177 C 0.84261 0.45323 0.77855 0.0
C178 C 0.82533 0.4628 0.77489 0.0
C179 C 0.82309 0.47163 0.81144 0.0
N180 N 0.88033 0.50453 0.88338 0.0
C181 C 0.93378 0.53813 0.86018 0.0
C182 C 0.91255 0.5375 0.83967 0.0
C183 C 0.8862 0.52071 0.85165 0.0
C184 C 0.92741 0.52262 0.89408 0.0
C185 C 0.90078 0.50621 0.90523 0.0
N186 N 0.80655 0.44759 0.90255 0.0
C187 C 0.77192 0.40369 0.88485 0.0
C188 C 0.75296 0.40702 0.90522 0.0
C189 C 0.76166 0.43081 0.92595 0.0
C190 C 0.78859 0.45096 0.92405 0.0
C191 C 0.79833 0.4239 0.88411 0.0
H192 H 0.79477 0.46945 0.93909 0.0
H193 H 0.81198 0.42047 0.86741 0.0
H194 H 0.87047 0.52008 0.83427 0.0
H195 H 0.89676 0.49397 0.9307 0.0
C196 C 0.84513 0.52426 0.94471 0.0
C197 C 0.80765 0.48484 0.82025 0.0
C198 C 0.85145 0.44689 0.97607 0.0
C199 C 0.86305 0.44526 0.8365 0.0
H200 H 0.79429 0.52493 0.84629 0.0
H201 H 0.81865 0.54921 0.91077 0.0
H202 H 0.8583 0.52451 0.02486 0.0
H203 H 0.85959 0.48088 0.04264 0.0
H204 H 0.8698 0.41057 0.95213 0.0
H205 H 0.87907 0.41194 0.87617 0.0
H206 H 0.84798 0.44361 0.75625 0.0
H207 H 0.81544 0.46315 0.74847 0.0
H208 H 0.91615 0.54955 0.81395 0.0
H209 H 0.94277 0.52214 0.91114 0.0
H210 H 0.76633 0.38549 0.86915 0.0
H211 H 0.74768 0.43414 0.94239 0.0
C212 C 0.32255 0.81037 0.01455 0.0
C213 C 0.29625 0.80402 0.01966 0.0
C214 C 0.2957 0.81861 0.05058 0.0
C215 C 0.32131 0.8324 0.06372 0.0
N216 N 0.33785 0.8273 0.04282 0.0
Co217 Co 0.37496 0.83839 0.05614 0.0
N218 N 0.36931 0.84443 0.11095 0.0
C219 C 0.35006 0.84873 0.12443 0.0
C220 C 0.35089 0.85187 0.16403 0.0
C221 C 0.37209 0.84958 0.17603 0.0
C222 C 0.38324 0.84542 0.1428 0.0
N223 N 0.41189 0.84909 0.06962 0.0
C224 C 0.4223 0.84936 0.10491 0.0
C225 C 0.44918 0.85805 0.10164 0.0
C226 C 0.45555 0.86337 0.06276 0.0
C227 C 0.43228 0.85771 0.04448 0.0
N228 N 0.38025 0.83266 0.00118 0.0
C229 C 0.4037 0.8434 0.98251 0.0
C230 C 0.40085 0.835 0.94448 0.0
C231 C 0.37402 0.81798 0.93941 0.0
C232 C 0.36193 0.81676 0.97479 0.0
N233 N 0.38626 0.87594 0.04432 0.0
C234 C 0.40883 0.93006 0.02215 0.0
C235 C 0.38869 0.9094 1.0 0.0
C236 C 0.37783 0.8827 0.01141 0.0
C237 C 0.41631 0.92264 0.0567 0.0
C238 C 0.40472 0.89581 0.06733 0.0
N239 N 0.36477 0.80123 0.06747 0.0
C240 C 0.37314 0.76493 0.05749 0.0
C241 C 0.35269 0.74878 0.08309 0.0
C242 C 0.33825 0.75945 0.10079 0.0
C243 C 0.34435 0.7856 0.09215 0.0
C244 C 0.37907 0.79097 0.05058 0.0
H245 H 0.33279 0.79328 0.10566 0.0
H246 H 0.3956 0.80291 0.03174 0.0
H247 H 0.36309 0.86741 0.99298 0.0
H248 H 0.41153 0.89113 0.09369 0.0
C249 C 0.32852 0.84361 0.10081 0.0
C250 C 0.3331 0.80117 0.98251 0.0
C251 C 0.4075 0.84362 0.1418 0.0
C252 C 0.42754 0.85555 0.00401 0.0
H253 H 0.27875 0.78963 0.00446 0.0
H254 H 0.27824 0.81727 0.06408 0.0
H255 H 0.33684 0.85394 0.18229 0.0
H256 H 0.37823 0.85057 0.20591 0.0
H257 H 0.4627 0.86047 0.12489 0.0
H258 H 0.47464 0.86962 0.04935 0.0
H259 H 0.41647 0.83935 0.92361 0.0
H260 H 0.36451 0.80739 0.91299 0.0
H261 H 0.38139 0.91365 0.97365 0.0
H262 H 0.43179 0.9373 0.07503 0.0
H263 H 0.38515 0.75776 0.04374 0.0
H264 H 0.32233 0.74766 0.12097 0.0
C265 C 0.52229 0.32147 0.17088 0.0
C266 C 0.50061 0.29607 0.16815 0.0
C267 C 0.48471 0.29287 0.19977 0.0
C268 C 0.49757 0.31648 0.21976 0.0
N269 N 0.52031 0.33415 0.20237 0.0
Co270 Co 0.54521 0.3703 0.22029 0.0
N271 N 0.53252 0.36086 0.27444 0.0
C272 C 0.50897 0.34017 0.28536 0.0
C273 C 0.50503 0.3391 0.32482 0.0
C274 C 0.52733 0.36059 0.33947 0.0
C275 C 0.54379 0.37364 0.30797 0.0
N276 N 0.56992 0.40671 0.2381 0.0
C277 C 0.57804 0.41595 0.27463 0.0
C278 C 0.59561 0.44311 0.27386 0.0
C279 C 0.59788 0.45097 0.23563 0.0
C280 C 0.58179 0.42827 0.21504 0.0
N281 N 0.55751 0.37874 0.16573 0.0
C282 C 0.57064 0.40306 0.14987 0.0
C283 C 0.57945 0.40242 0.11289 0.0
C284 C 0.57146 0.37615 0.10556 0.0
C285 C 0.55803 0.36207 0.13849 0.0
N286 N 0.51823 0.38113 0.2109 0.0
C287 C 0.48476 0.40253 0.19605 0.0
C288 C 0.48942 0.38802 0.16747 0.0
C289 C 0.50581 0.37713 0.17566 0.0
C290 C 0.49673 0.40548 0.23236 0.0
C291 C 0.51351 0.39504 0.23899 0.0
N292 N 0.57292 0.36075 0.22941 0.0
C293 C 0.61807 0.37135 0.21767 0.0
C294 C 0.6148 0.34968 0.23983 0.0
C295 C 0.58935 0.33313 0.25598 0.0
C296 C 0.56864 0.33884 0.25004 0.0
C297 C 0.59755 0.37691 0.21401 0.0
H298 H 0.54928 0.32572 0.26232 0.0
H299 H 0.60182 0.39449 0.19813 0.0
H300 H 0.50891 0.36598 0.15316 0.0
H301 H 0.52324 0.39899 0.26677 0.0
C302 C 0.4928 0.32051 0.25847 0.0
C303 C 0.54495 0.33301 0.14411 0.0
C304 C 0.56803 0.39975 0.31036 0.0
C305 C 0.58079 0.42555 0.17418 0.0
H306 H 0.49716 0.28127 0.14631 0.0
H307 H 0.46696 0.27487 0.20851 0.0
H308 H 0.48818 0.32427 0.34111 0.0
H309 H 0.53064 0.36638 0.36976 0.0
H310 H 0.60566 0.45596 0.29828 0.0
H311 H 0.61054 0.47071 0.22417 0.0
H312 H 0.59214 0.41922 0.09465 0.0
H313 H 0.5758 0.3687 0.07945 0.0
H314 H 0.48038 0.38502 0.13905 0.0
H315 H 0.49384 0.41659 0.25527 0.0
H316 H 0.63643 0.38433 0.2027 0.0
H317 H 0.58539 0.31611 0.27348 0.0
C318 C 0.51046 0.812 0.48096 0.0
C319 C 0.53095 0.80664 0.47446 0.0
C320 C 0.5444 0.82069 0.44214 0.0
C321 C 0.53114 0.83328 0.42995 0.0
N322 N 0.5101 0.82789 0.45259 0.0
Co323 Co 0.48336 0.83861 0.44244 0.0
N324 N 0.4934 0.84495 0.3869 0.0
C325 C 0.51678 0.84987 0.37171 0.0
C326 C 0.51881 0.85507 0.33259 0.0
C327 C 0.4953 0.85349 0.32264 0.0
C328 C 0.48012 0.84724 0.35645 0.0
N329 N 0.45648 0.84912 0.43198 0.0
C330 C 0.44578 0.8504 0.39762 0.0
C331 C 0.42724 0.85844 0.40347 0.0
C332 C 0.42681 0.8627 0.44281 0.0
C333 C 0.44496 0.85693 0.45886 0.0
N334 N 0.47402 0.83251 0.49824 0.0
C335 C 0.46128 0.84258 0.51851 0.0
C336 C 0.4572 0.83434 0.55666 0.0
C337 C 0.46809 0.81818 0.5603 0.0
C338 C 0.47811 0.81731 0.52401 0.0
N339 N 0.50968 0.87617 0.45385 0.0
C340 C 0.54179 0.93026 0.47547 0.0
C341 C 0.54198 0.90967 0.49682 0.0
C342 C 0.52585 0.88296 0.48569 0.0
C343 C 0.52582 0.92282 0.44201 0.0
C344 C 0.51029 0.89599 0.43164 0.0
N345 N 0.45637 0.80139 0.43156 0.0
C346 C 0.41221 0.76466 0.44348 0.0
C347 C 0.41606 0.74873 0.4168 0.0
C348 C 0.44071 0.75977 0.39759 0.0
C349 C 0.46073 0.78601 0.40577 0.0
C350 C 0.43228 0.79079 0.44998 0.0
H351 H 0.4796 0.79397 0.39104 0.0
H352 H 0.42801 0.8025 0.46979 0.0
H353 H 0.52595 0.86772 0.50346 0.0
H354 H 0.49801 0.89133 0.40616 0.0
C355 C 0.53401 0.84475 0.3933 0.0
C356 C 0.49264 0.80318 0.51516 0.0
C357 C 0.45435 0.84595 0.35927 0.0
C358 C 0.44861 0.85437 0.49879 0.0
H359 H 0.53567 0.79361 0.49055 0.0
H360 H 0.56071 0.82019 0.4277 0.0
H361 H 0.53503 0.85866 0.31332 0.0
H362 H 0.49017 0.85694 0.29387 0.0
H363 H 0.41538 0.86108 0.38169 0.0
H364 H 0.41407 0.86838 0.45795 0.0
H365 H 0.44635 0.83838 0.57869 0.0
H366 H 0.46842 0.80804 0.58647 0.0
H367 H 0.55433 0.91399 0.52232 0.0
H368 H 0.5244 0.93745 0.42441 0.0
H369 H 0.39339 0.75724 0.45843 0.0
H370 H 0.44452 0.74819 0.37658 0.0
C371 C 0.70444 0.49956 0.6495 0.0
C372 C 0.73073 0.51892 0.64262 0.0
C373 C 0.73074 0.53354 0.6114 0.0
C374 C 0.70479 0.52199 0.59984 0.0
N375 N 0.68856 0.50098 0.62203 0.0
Co376 Co 0.65096 0.47527 0.61105 0.0
N377 N 0.65515 0.48583 0.55585 0.0
C378 C 0.67421 0.50894 0.54099 0.0
C379 C 0.67207 0.51052 0.50146 0.0
C380 C 0.65022 0.48697 0.49102 0.0
C381 C 0.64015 0.47237 0.52502 0.0
N382 N 0.6135 0.44932 0.5999 0.0
C383 C 0.60205 0.43846 0.56538 0.0
C384 C 0.5752 0.42071 0.57028 0.0
C385 C 0.56993 0.42065 0.60944 0.0
C386 C 0.59378 0.43839 0.62623 0.0
N387 N 0.647 0.46523 0.66633 0.0
C388 C 0.62406 0.45332 0.68638 0.0
C389 C 0.62781 0.44861 0.72439 0.0
C390 C 0.65468 0.45811 0.728 0.0
C391 C 0.66589 0.46795 0.69181 0.0
N392 N 0.64076 0.50223 0.62336 0.0
C393 C 0.62018 0.53517 0.64693 0.0
C394 C 0.6405 0.53431 0.66793 0.0
C395 C 0.65044 0.51783 0.65576 0.0
C396 C 0.61147 0.51996 0.6127 0.0
C397 C 0.62203 0.5039 0.6014 0.0
N398 N 0.6603 0.4478 0.59943 0.0
C399 C 0.65211 0.4034 0.61065 0.0
C400 C 0.67247 0.40743 0.58498 0.0
C401 C 0.68664 0.4322 0.56643 0.0
C402 C 0.68046 0.45224 0.57442 0.0
C403 C 0.64615 0.42354 0.61703 0.0
H404 H 0.69187 0.47126 0.56034 0.0
H405 H 0.62987 0.41932 0.63626 0.0
H406 H 0.66543 0.5171 0.67329 0.0
H407 H 0.61426 0.49203 0.57549 0.0
C408 C 0.69663 0.52547 0.56313 0.0
C409 C 0.69447 0.48056 0.68247 0.0
C410 C 0.61592 0.4464 0.52771 0.0
C411 C 0.59964 0.44167 0.66636 0.0
H412 H 0.74849 0.5219 0.65685 0.0
H413 H 0.74797 0.54911 0.59669 0.0
H414 H 0.68563 0.52617 0.48218 0.0
H415 H 0.64288 0.48126 0.46171 0.0
H416 H 0.561 0.40919 0.54793 0.0
H417 H 0.55118 0.40833 0.62403 0.0
H418 H 0.61271 0.43812 0.74627 0.0
H419 H 0.66478 0.45754 0.75404 0.0
H420 H 0.64859 0.54606 0.694 0.0
H421 H 0.59579 0.51955 0.59533 0.0
H422 H 0.64029 0.38445 0.62501 0.0
H423 H 0.70248 0.4361 0.54618 0.0
C424 C 0.21156 0.69971 0.81145 0.0
C425 C 0.21922 0.72587 0.80222 0.0
C426 C 0.20606 0.72522 0.76893 0.0
C427 C 0.19167 0.69896 0.75891 0.0
N428 N 0.19514 0.68312 0.78381 0.0
Co429 Co 0.18145 0.64472 0.77725 0.0
N430 N 0.17618 0.64689 0.721 0.0
C431 C 0.17312 0.66577 0.7033 0.0
C432 C 0.1682 0.66128 0.66422 0.0
C433 C 0.16807 0.63805 0.65704 0.0
C434 C 0.17317 0.62979 0.6923 0.0
N435 N 0.16786 0.60632 0.77017 0.0
C436 C 0.16662 0.59284 0.73725 0.0
C437 C 0.15677 0.5662 0.7455 0.0
C438 C 0.15129 0.56308 0.7848 0.0
C439 C 0.15823 0.58794 0.79851 0.0
N440 N 0.18658 0.64298 0.83371 0.0
C441 C 0.17456 0.62095 0.85571 0.0
C442 C 0.18236 0.62601 0.89398 0.0
C443 C 0.20027 0.65282 0.89584 0.0
C444 C 0.20256 0.66269 0.85845 0.0
N445 N 0.14473 0.63699 0.78735 0.0
C446 C 0.09144 0.61765 0.81097 0.0
C447 C 0.09761 0.60783 0.77756 0.0
C448 C 0.12413 0.61781 0.76619 0.0
C449 C 0.11279 0.6387 0.83071 0.0
C450 C 0.13911 0.64806 0.81846 0.0
N451 N 0.21768 0.65126 0.76817 0.0
C452 C 0.24988 0.6379 0.782 0.0
C453 C 0.26765 0.65598 0.75498 0.0
C454 C 0.26033 0.6726 0.73553 0.0
C455 C 0.23511 0.66987 0.74252 0.0
C456 C 0.22529 0.63581 0.78801 0.0
H457 H 0.22946 0.68233 0.72676 0.0
H458 H 0.21216 0.62105 0.80836 0.0
H459 H 0.12795 0.60895 0.74125 0.0
H460 H 0.15499 0.66353 0.83521 0.0
C461 C 0.18004 0.68951 0.72253 0.0
C462 C 0.21862 0.69095 0.84758 0.0
C463 C 0.17324 0.60487 0.69806 0.0
C464 C 0.16098 0.59577 0.83786 0.0
H465 H 0.23316 0.74379 0.81721 0.0
H466 H 0.20823 0.74208 0.75257 0.0
H467 H 0.16604 0.67388 0.64317 0.0
H468 H 0.16448 0.62829 0.62909 0.0
H469 H 0.15392 0.55066 0.72545 0.0
H470 H 0.14432 0.54507 0.80158 0.0
H471 H 0.17679 0.61175 0.91737 0.0
H472 H 0.21054 0.6638 0.92162 0.0
H473 H 0.08219 0.5916 0.76112 0.0
H474 H 0.10933 0.64764 0.85602 0.0
H475 H 0.25472 0.62482 0.79794 0.0
H476 H 0.2735 0.68682 0.71424 0.0
C477 C 0.52742 0.20711 0.99565 0.0
C478 C 0.50519 0.21002 0.99774 0.0
C479 C 0.48934 0.19614 0.96678 0.0
C480 C 0.50273 0.18552 0.94778 0.0
N481 N 0.52579 0.19183 0.96516 0.0
Co482 Co 0.5513 0.18095 0.94857 0.0
N483 N 0.53804 0.17539 0.8947 0.0
C484 C 0.51416 0.17143 0.88351 0.0
C485 C 0.51063 0.16833 0.84399 0.0
C486 C 0.53362 0.17029 0.82968 0.0
C487 C 0.54991 0.1743 0.86147 0.0
N488 N 0.57667 0.16978 0.9318 0.0
C489 C 0.5855 0.16922 0.89551 0.0
C490 C 0.60338 0.16005 0.89654 0.0
C491 C 0.60562 0.15477 0.93501 0.0
C492 C 0.58896 0.16089 0.95533 0.0
N493 N 0.56426 0.1869 0.0027 0.0
C494 C 0.5782 0.17685 0.0193 0.0
C495 C 0.58717 0.18749 0.05565 0.0
C496 C 0.57834 0.20527 0.06176 0.0
C497 C 0.56424 0.20443 0.02883 0.0
N498 N 0.52516 0.14347 0.96104 0.0
C499 C 0.49232 0.08947 0.98303 0.0
C500 C 0.49468 0.11045 0.00647 0.0
C501 C 0.51117 0.13705 0.9952 0.0
C502 C 0.50619 0.09654 0.94743 0.0
C503 C 0.52216 0.12338 0.93694 0.0
N504 N 0.57804 0.2181 0.93704 0.0
C505 C 0.62261 0.25396 0.94801 0.0
C506 C 0.61661 0.27217 0.93142 0.0
C507 C 0.5911 0.26264 0.91588 0.0
C508 C 0.57196 0.23543 0.91921 0.0
C509 C 0.60335 0.22726 0.95016 0.0
H510 H 0.55213 0.2285 0.90844 0.0
H511 H 0.60888 0.21418 0.96394 0.0
H512 H 0.51304 0.15249 0.01462 0.0
H513 H 0.53277 0.12784 0.90968 0.0
C514 C 0.49784 0.17533 0.90978 0.0
C515 C 0.55006 0.21929 0.02232 0.0
C516 C 0.57569 0.17542 0.85984 0.0
C517 C 0.58842 0.16395 0.99606 0.0
H518 H 0.50126 0.22148 0.01879 0.0
H519 H 0.47116 0.19541 0.95783 0.0
H520 H 0.49385 0.16604 0.82733 0.0
H521 H 0.53776 0.16887 0.79937 0.0
H522 H 0.61362 0.15743 0.8721 0.0
H523 H 0.61877 0.14842 0.94682 0.0
H524 H 0.60036 0.18439 0.07423 0.0
H525 H 0.58254 0.21771 0.08708 0.0
H526 H 0.48401 0.10654 0.03372 0.0
H527 H 0.50554 0.08155 0.92808 0.0
H528 H 0.64215 0.26041 0.95985 0.0
H529 H 0.58575 0.27617 0.90257 0.0
C530 C 0.33117 0.52271 0.1717 0.0
C531 C 0.30626 0.50065 0.17739 0.0
C532 C 0.30182 0.48409 0.14628 0.0
C533 C 0.32427 0.49687 0.12362 0.0
N534 N 0.34245 0.52023 0.13882 0.0
Co535 Co 0.37743 0.54508 0.11644 0.0
N536 N 0.36536 0.53055 0.06358 0.0
C537 C 0.34436 0.50656 0.0554 0.0
C538 C 0.34121 0.50129 0.01628 0.0
C539 C 0.36169 0.52315 0.99886 0.0
C540 C 0.37628 0.54069 0.02847 0.0
N541 N 0.41264 0.56977 0.09409 0.0
C542 C 0.41996 0.57648 0.05646 0.0
C543 C 0.44698 0.59449 0.05395 0.0
C544 C 0.45679 0.59852 0.09118 0.0
C545 C 0.43532 0.58297 0.11446 0.0
N546 N 0.38858 0.55931 0.16966 0.0
C547 C 0.4137 0.57371 0.18228 0.0
C548 C 0.41494 0.58357 0.21907 0.0
C549 C 0.38905 0.57488 0.22987 0.0
C550 C 0.37324 0.55982 0.19917 0.0
N551 N 0.38963 0.51907 0.12516 0.0
C552 C 0.41435 0.48809 0.13813 0.0
C553 C 0.40036 0.4926 0.168 0.0
C554 C 0.388 0.50785 0.16085 0.0
C555 C 0.41413 0.49838 0.10125 0.0
C556 C 0.40221 0.51389 0.09561 0.0
N557 N 0.36641 0.57172 0.10775 0.0
C558 C 0.37636 0.61712 0.11463 0.0
C559 C 0.35274 0.61139 0.09614 0.0
C560 C 0.33593 0.58519 0.0835 0.0
C561 C 0.34296 0.56556 0.09007 0.0
C562 C 0.38295 0.5973 0.1196 0.0
H563 H 0.32959 0.54549 0.08064 0.0
H564 H 0.40171 0.6029 0.13298 0.0
H565 H 0.37785 0.51128 0.18457 0.0
H566 H 0.40404 0.52235 0.06719 0.0
C567 C 0.3264 0.4911 0.08465 0.0
C568 C 0.34386 0.5456 0.19793 0.0
C569 C 0.40226 0.56467 0.02261 0.0
C570 C 0.43477 0.58348 0.15539 0.0
H571 H 0.2926 0.49719 0.20107 0.0
H572 H 0.28372 0.46581 0.13978 0.0
H573 H 0.32571 0.48382 0.00203 0.0
H574 H 0.36585 0.52545 0.96797 0.0
H575 H 0.45848 0.60363 0.02796 0.0
H576 H 0.477 0.61189 0.10024 0.0
H577 H 0.43259 0.59734 0.23487 0.0
H578 H 0.38296 0.58 0.25664 0.0
H579 H 0.39963 0.48521 0.1971 0.0
H580 H 0.4235 0.49492 0.07647 0.0
H581 H 0.39018 0.63711 0.12423 0.0
H582 H 0.31748 0.57991 0.06888 0.0
C583 C 0.82076 0.32585 0.33943 0.0
C584 C 0.81699 0.30047 0.34349 0.0
C585 C 0.82753 0.29565 0.31071 0.0
C586 C 0.83726 0.31837 0.28874 0.0
N587 N 0.83355 0.33701 0.30592 0.0
Co588 Co 0.84479 0.37265 0.28558 0.0
N589 N 0.84527 0.36103 0.23176 0.0
C590 C 0.84704 0.33964 0.22138 0.0
C591 C 0.84702 0.33662 0.18178 0.0
C592 C 0.84538 0.35752 0.16647 0.0
C593 C 0.84467 0.37231 0.19776 0.0
N594 N 0.85604 0.40838 0.26503 0.0
C595 C 0.85452 0.41584 0.22824 0.0
C596 C 0.86501 0.44309 0.2263 0.0
C597 C 0.87338 0.45277 0.26331 0.0
C598 C 0.86764 0.43098 0.28576 0.0
N599 N 0.84425 0.3836 0.33988 0.0
C600 C 0.85688 0.40866 0.35325 0.0
C601 C 0.84985 0.41005 0.39104 0.0
C602 C 0.83177 0.38436 0.40165 0.0
C603 C 0.82887 0.36843 0.36982 0.0
N604 N 0.88272 0.38295 0.29142 0.0
C605 C 0.9384 0.40511 0.30248 0.0
C606 C 0.91979 0.3886 0.33075 0.0
C607 C 0.89225 0.37791 0.32479 0.0
C608 C 0.9279 0.4093 0.26812 0.0
C609 C 0.90044 0.39788 0.26299 0.0
N610 N 0.80743 0.36382 0.27987 0.0
C611 C 0.77563 0.37835 0.28958 0.0
C612 C 0.7566 0.35745 0.26719 0.0
C613 C 0.76304 0.33861 0.2531 0.0
C614 C 0.78864 0.34211 0.25995 0.0
C615 C 0.80065 0.38139 0.2949 0.0
H616 H 0.79352 0.32785 0.24818 0.0
H617 H 0.81481 0.39879 0.3103 0.0
H618 H 0.87868 0.36607 0.3476 0.0
H619 H 0.89364 0.40211 0.23627 0.0
C620 C 0.84427 0.3208 0.24927 0.0
C621 C 0.81234 0.33909 0.36778 0.0
C622 C 0.84539 0.39781 0.19449 0.0
C623 C 0.86829 0.43005 0.32674 0.0
H624 H 0.80725 0.28678 0.36727 0.0
H625 H 0.82673 0.27725 0.30287 0.0
H626 H 0.84718 0.32062 0.1659 0.0
H627 H 0.84496 0.36143 0.13582 0.0
H628 H 0.86663 0.4547 0.20081 0.0
H629 H 0.88173 0.47312 0.27287 0.0
H630 H 0.85535 0.4278 0.40782 0.0
H631 H 0.82146 0.37862 0.42916 0.0
H632 H 0.92626 0.38396 0.35758 0.0
H633 H 0.94067 0.42213 0.2453 0.0
H634 H 0.77161 0.39313 0.30192 0.0
H635 H 0.74894 0.32201 0.23572 0.0
H636 H 0.31485 0.6454 0.35376 0.0
H637 H 0.3052 0.62588 0.47576 0.0
H638 H 0.34745 0.66613 0.48979 0.0
H639 H 0.38538 0.70895 0.4679 0.0
H640 H 0.3959 0.72756 0.34557 0.0
H641 H 0.35542 0.68568 0.33106 0.0
C642 C 0.32224 0.64979 0.38334 0.0
C643 C 0.3068 0.63266 0.41372 0.0
C644 C 0.34668 0.67295 0.39113 0.0
C645 C 0.31672 0.63856 0.45185 0.0
C646 C 0.34081 0.66171 0.4599 0.0
C647 C 0.37896 0.70365 0.43803 0.0
C648 C 0.39363 0.7215 0.40785 0.0
C649 C 0.3557 0.67936 0.42988 0.0
C650 C 0.38515 0.71419 0.36929 0.0
C651 C 0.36187 0.69029 0.36102 0.0
H652 H 0.67543 0.30663 0.52289 0.0
H653 H 0.68204 0.29582 0.64547 0.0
H654 H 0.68443 0.33831 0.65925 0.0
H655 H 0.68042 0.37656 0.63676 0.0
H656 H 0.67506 0.38789 0.51397 0.0
H657 H 0.67665 0.34744 0.49985 0.0
C658 C 0.67779 0.31381 0.55256 0.0
C659 C 0.67839 0.29801 0.58317 0.0
C660 C 0.67918 0.33829 0.5602 0.0
C661 C 0.68168 0.30764 0.62142 0.0
C662 C 0.68284 0.33185 0.62931 0.0
C663 C 0.67995 0.37031 0.60689 0.0
C664 C 0.67745 0.38514 0.57643 0.0
C665 C 0.68098 0.34704 0.59901 0.0
C666 C 0.67712 0.37696 0.53788 0.0
C667 C 0.67785 0.35371 0.52983 0.0
H668 H 0.32016 0.69635 0.75715 0.0
H669 H 0.2702 0.61286 0.73333 0.0
H670 H 0.30902 0.60759 0.72798 0.0
H671 H 0.35637 0.62551 0.73403 0.0
H672 H 0.40823 0.70939 0.75306 0.0
H673 H 0.36953 0.71541 0.75791 0.0
C674 C 0.31793 0.67718 0.75006 0.0
C675 C 0.29224 0.65498 0.74584 0.0
C676 C 0.34061 0.67417 0.74712 0.0
C677 C 0.28967 0.6302 0.73698 0.0
C678 C 0.31188 0.62713 0.73407 0.0
C679 C 0.35958 0.64535 0.73827 0.0
C680 C 0.38558 0.66695 0.74273 0.0
C681 C 0.33737 0.64883 0.7397 0.0
C682 C 0.38865 0.6922 0.74988 0.0
C683 C 0.36645 0.69574 0.75225 0.0
H684 H 0.71813 0.38273 0.9657 0.0
H685 H 0.72409 0.38246 0.84075 0.0
H686 H 0.68053 0.34245 0.83706 0.0
H687 H 0.64296 0.30427 0.86981 0.0
H688 H 0.63777 0.30343 0.99477 0.0
H689 H 0.67813 0.34694 0.99805 0.0
C690 C 0.70959 0.37423 0.93767 0.0
C691 C 0.72453 0.38548 0.9036 0.0
C692 C 0.68456 0.35076 0.93577 0.0
C693 C 0.71319 0.37404 0.86748 0.0
C694 C 0.68823 0.35111 0.86532 0.0
C695 C 0.6503 0.31404 0.8976 0.0
C696 C 0.63733 0.30077 0.93197 0.0
C697 C 0.67403 0.33881 0.89931 0.0
C698 C 0.64735 0.31338 0.96791 0.0
C699 C 0.67054 0.33819 0.9698 0.0
H700 H 0.34387 0.70881 0.03272 0.0
H701 H 0.35187 0.72825 0.15472 0.0
H702 H 0.351 0.6867 0.17004 0.0
H703 H 0.35176 0.6465 0.14808 0.0
H704 H 0.34176 0.62607 0.02641 0.0
H705 H 0.33934 0.66599 0.01161 0.0
C706 C 0.34503 0.70372 0.0627 0.0
C707 C 0.34803 0.72169 0.09256 0.0
C708 C 0.34429 0.67963 0.0713 0.0
C709 C 0.34935 0.71474 0.13127 0.0
C710 C 0.34905 0.69104 0.13999 0.0
C711 C 0.34865 0.65062 0.11841 0.0
C712 C 0.34705 0.63334 0.08834 0.0
C713 C 0.34706 0.67357 0.11019 0.0
C714 C 0.34286 0.63888 0.05008 0.0
C715 C 0.34167 0.66184 0.0416 0.0
H716 H 0.70363 0.31648 0.26796 0.0
H717 H 0.75366 0.39976 0.24197 0.0
H718 H 0.71499 0.40469 0.23439 0.0
H719 H 0.6679 0.38694 0.23933 0.0
H720 H 0.61541 0.3028 0.2555 0.0
H721 H 0.65399 0.29703 0.26452 0.0
C722 C 0.70597 0.33555 0.26001 0.0
C723 C 0.73178 0.35788 0.25663 0.0
C724 C 0.68322 0.33833 0.25482 0.0
C725 C 0.73426 0.38238 0.24596 0.0
C726 C 0.71208 0.38527 0.24152 0.0
C727 C 0.66437 0.367 0.2434 0.0
C728 C 0.63817 0.34537 0.246 0.0
C729 C 0.68653 0.36357 0.24654 0.0
C730 C 0.63501 0.3201 0.25362 0.0
C731 C 0.65721 0.31669 0.25839 0.0
H732 H 0.21295 0.62058 0.64585 0.0
H733 H 0.13276 0.55861 0.66858 0.0
H734 H 0.12971 0.541 0.60294 0.0
H735 H 0.14875 0.54539 0.53714 0.0
H736 H 0.22809 0.60865 0.51326 0.0
H737 H 0.23243 0.62429 0.58067 0.0
C738 C 0.19513 0.60274 0.63666 0.0
C739 C 0.17344 0.59034 0.66243 0.0
C740 C 0.19311 0.59358 0.59824 0.0
C741 C 0.15008 0.56782 0.6499 0.0
C742 C 0.14815 0.55811 0.61206 0.0
C743 C 0.16693 0.56261 0.5469 0.0
C744 C 0.18811 0.57597 0.52059 0.0
C745 C 0.16931 0.57119 0.58571 0.0
C746 C 0.21157 0.59825 0.53316 0.0
C747 C 0.21409 0.607 0.57168 0.0
H748 H 0.63571 0.20817 0.69794 0.0
H749 H 0.57714 0.1275 0.67066 0.0
H750 H 0.5596 0.12088 0.73704 0.0
H751 H 0.56074 0.13819 0.80305 0.0
H752 H 0.61923 0.21871 0.83086 0.0
H753 H 0.63755 0.22519 0.76471 0.0
C754 C 0.6189 0.1893 0.70658 0.0
C755 C 0.60711 0.16862 0.67918 0.0
C756 C 0.60928 0.18551 0.74509 0.0
C757 C 0.58588 0.14397 0.69088 0.0
C758 C 0.57609 0.14009 0.72894 0.0
C759 C 0.57767 0.15702 0.79455 0.0
C760 C 0.58871 0.17799 0.8215 0.0
C761 C 0.58762 0.16069 0.75631 0.0
C762 C 0.61058 0.20233 0.81047 0.0
C763 C 0.62087 0.20606 0.77263 0.0
H764 H 0.38761 0.5855 0.96335 0.0
H765 H 0.43992 0.55556 0.99131 0.0
H766 H 0.45625 0.56282 0.92419 0.0
H767 H 0.45722 0.5798 0.8582 0.0
H768 H 0.4063 0.61133 0.83044 0.0
H769 H 0.38706 0.60055 0.89609 0.0
C770 C 0.40274 0.58082 0.95461 0.0
C771 C 0.41321 0.57081 0.9823 0.0
C772 C 0.41178 0.58478 0.9158 0.0
C773 C 0.43225 0.56408 0.97065 0.0
C774 C 0.44133 0.56792 0.93222 0.0
C775 C 0.44136 0.58354 0.86638 0.0
C776 C 0.4328 0.59592 0.83967 0.0
C777 C 0.43135 0.57838 0.9046 0.0
C778 C 0.41275 0.60136 0.85051 0.0
C779 C 0.40209 0.59557 0.88816 0.0
H780 H 0.88206 0.41678 0.13658 0.0
H781 H 0.80259 0.39859 0.16493 0.0
H782 H 0.79628 0.40928 0.09814 0.0
H783 H 0.81372 0.42419 0.03171 0.0
H784 H 0.89389 0.44411 0.00436 0.0
H785 H 0.89939 0.43141 0.07001 0.0
C786 C 0.8635 0.41544 0.128 0.0
C787 C 0.84284 0.40716 0.15538 0.0
C788 C 0.85995 0.42117 0.08948 0.0
C789 C 0.81877 0.4052 0.14424 0.0
C790 C 0.81512 0.41105 0.10605 0.0
C791 C 0.83212 0.42506 0.03998 0.0
C792 C 0.85304 0.43414 0.01283 0.0
C793 C 0.8355 0.41887 0.07834 0.0
C794 C 0.87715 0.43612 0.02417 0.0
C795 C 0.88046 0.42938 0.06196 0.0
H796 H 0.43062 0.88071 0.1981 0.0
H797 H 0.40788 0.80013 0.16916 0.0
H798 H 0.41805 0.79271 0.23568 0.0
H799 H 0.43209 0.80905 0.30278 0.0
H800 H 0.45351 0.88933 0.33176 0.0
H801 H 0.44391 0.89676 0.26516 0.0
C802 C 0.42835 0.8617 0.20641 0.0
C803 C 0.41873 0.84099 0.17909 0.0
C804 C 0.43294 0.85729 0.24502 0.0
C805 C 0.41556 0.81635 0.18983 0.0
C806 C 0.42097 0.81203 0.22792 0.0
C807 C 0.43388 0.82787 0.29459 0.0
C808 C 0.44259 0.84835 0.32227 0.0
C809 C 0.42913 0.8322 0.25596 0.0
C810 C 0.44584 0.87302 0.31126 0.0
C811 C 0.4409 0.87741 0.27302 0.0
H812 H 0.59042 0.38561 0.36776 0.0
H813 H 0.56214 0.43952 0.34146 0.0
H814 H 0.57152 0.45662 0.40809 0.0
H815 H 0.58868 0.45684 0.47364 0.0
H816 H 0.61804 0.40387 0.49995 0.0
H817 H 0.6065 0.38498 0.4342 0.0
C818 C 0.58672 0.40136 0.37668 0.0
C819 C 0.57647 0.41198 0.34959 0.0
C820 C 0.59172 0.41071 0.41526 0.0
C821 C 0.57091 0.43178 0.36154 0.0
C822 C 0.57591 0.44125 0.39973 0.0
C823 C 0.59197 0.44076 0.46503 0.0
C824 C 0.60389 0.43147 0.49136 0.0
C825 C 0.58628 0.43086 0.42684 0.0
C826 C 0.60853 0.41097 0.4801 0.0
C827 C 0.60227 0.40048 0.44243 0.0
H828 H 0.96734 0.41866 0.37156 0.0
H829 H 0.97831 0.42146 0.24687 0.0
H830 H 0.02601 0.44641 0.25533 0.0
H831 H 0.06534 0.46899 0.29757 0.0
H832 H 0.0544 0.46027 0.42224 0.0
H833 H 1.00672 0.43636 0.41375 0.0
C834 C 0.9799 0.4242 0.346 0.0
C835 C 0.9683 0.41838 0.30846 0.0
C836 C 1.00788 0.43794 0.35092 0.0
C837 C 0.98581 0.42623 0.27624 0.0
C838 C 1.01347 0.4404 0.28099 0.0
C839 C 0.0528 0.46162 0.32312 0.0
C840 C 0.06439 0.46761 0.36067 0.0
C841 C 0.02484 0.44668 0.31818 0.0
C842 C 0.0469 0.45745 0.39286 0.0
C843 C 0.01925 0.44327 0.3881 0.0
H844 H 0.56384 0.97617 0.43087 0.0
H845 H 0.55435 0.94995 0.55035 0.0
H846 H 0.57775 0.99588 0.57214 0.0
H847 H 0.60011 0.04383 0.55801 0.0
H848 H 0.60575 0.0697 0.43884 0.0
H849 H 0.58484 0.02392 0.4169 0.0
C850 C 0.56652 0.98025 0.46177 0.0
C851 C 0.5571 0.95896 0.48862 0.0
C852 C 0.57951 1.00699 0.47447 0.0
C853 C 0.56161 0.9654 0.52852 0.0
C854 C 0.57486 0.99188 0.54121 0.0
C855 C 0.59661 0.03966 0.52721 0.0
C856 C 0.60498 0.06087 0.5004 0.0
C857 C 0.58378 0.0129 0.51452 0.0
C858 C 0.60038 0.05438 0.46053 0.0
C859 C 0.58806 0.02795 0.44779 0.0
H860 H 0.56648 0.59325 0.73476 0.0
H861 H 0.55227 0.60746 0.61636 0.0
H862 H 0.57576 0.58547 0.59242 0.0
H863 H 0.5996 0.5611 0.6044 0.0
H864 H 0.61132 0.54433 0.72268 0.0
H865 H 0.58978 0.56827 0.74673 0.0
C866 C 0.56828 0.59145 0.70368 0.0
C867 C 0.5575 0.60242 0.67769 0.0
C868 C 0.58154 0.57821 0.68979 0.0
C869 C 0.56065 0.59995 0.63746 0.0
C870 C 0.57396 0.58706 0.62356 0.0
C871 C 0.59734 0.56242 0.63548 0.0
C872 C 0.60744 0.55076 0.66142 0.0
C873 C 0.58438 0.57595 0.64939 0.0
C874 C 0.60444 0.55335 0.70165 0.0
C875 C 0.59181 0.56692 0.7156 0.0
H876 H 0.04441 0.5955 0.76963 0.0
H877 H 0.07443 0.61073 0.88713 0.0
H878 H 0.02922 0.5889 0.91241 0.0
H879 H 0.98076 0.56419 0.90173 0.0
H880 H 0.95093 0.54681 0.78417 0.0
H881 H 0.99608 0.57057 0.75896 0.0
C882 C 0.04122 0.59398 0.80081 0.0
C883 C 0.0633 0.60508 0.82616 0.0
C884 C 0.01492 0.58088 0.81543 0.0
C885 C 0.05824 0.60302 0.86654 0.0
C886 C 0.0322 0.59023 0.88119 0.0
C887 C 0.984 0.5654 0.87057 0.0
C888 C 0.96196 0.55362 0.84515 0.0
C889 C 1.01033 0.57889 0.85597 0.0
C890 C 0.96707 0.55596 0.80479 0.0
C891 C 0.99308 0.56943 0.79018 0.0
H892 H 0.4655 0.04349 0.93862 0.0
H893 H 0.48336 0.06976 0.05798 0.0
H894 H 0.45838 0.02406 0.08011 0.0
H895 H 0.43195 0.97623 0.0664 0.0
H896 H 0.41763 0.9496 0.94696 0.0
H897 H 0.44045 0.99543 0.92481 0.0
C898 C 0.46428 0.03943 0.96952 0.0
C899 C 0.47646 0.06077 0.99628 0.0
C900 C 0.45027 0.01269 0.98239 0.0
C901 C 0.47391 0.05438 0.03625 0.0
C902 C 0.45973 0.02798 0.04914 0.0
C903 C 0.43395 0.98019 0.03544 0.0
C904 C 0.42259 0.95878 0.00872 0.0
C905 C 0.44788 1.0069 0.02254 0.0
C906 C 0.42534 0.9651 0.96872 0.0
C907 C 0.43875 0.99155 0.95581 0.0
H908 H 0.40522 0.44804 0.19119 0.0
H909 H 0.46 0.49645 0.10107 0.0
H910 H 0.48448 0.47315 0.10839 0.0
H911 H 0.49172 0.43949 0.14101 0.0
H912 H 0.4403 0.3941 0.23541 0.0
H913 H 0.41375 0.41571 0.22608 0.0
C914 C 0.42259 0.45375 0.17326 0.0
C915 C 0.42993 0.47386 0.1448 0.0
C916 C 0.43747 0.44065 0.17838 0.0
C917 C 0.45278 0.48058 0.1222 0.0
C918 C 0.4672 0.46737 0.12662 0.0
C919 C 0.47454 0.43416 0.15926 0.0
C920 C 0.46785 0.41489 0.18856 0.0
C921 C 0.45976 0.4473 0.15447 0.0
C922 C 0.44582 0.40869 0.21249 0.0
C923 C 0.43065 0.42113 0.20719 0.0
H924 H 0.26937 0.55221 0.32719 0.0
H925 H 0.22433 0.54697 0.22498 0.0
H926 H 0.26065 0.55189 0.18355 0.0
H927 H 0.30331 0.55284 0.17608 0.0
H928 H 0.34322 0.54771 0.27824 0.0
H929 H 0.31141 0.55191 0.31972 0.0
C930 C 0.26776 0.55266 0.2958 0.0
C931 C 0.24458 0.55058 0.27937 0.0
C932 C 0.28797 0.55348 0.27207 0.0
C933 C 0.24245 0.55029 0.23864 0.0
C934 C 0.26306 0.55246 0.21484 0.0
C935 C 0.3053 0.55317 0.20747 0.0
C936 C 0.32653 0.55132 0.22389 0.0
C937 C 0.2857 0.55357 0.23121 0.0
C938 C 0.32829 0.55085 0.26461 0.0
C939 C 0.30963 0.55262 0.28843 0.0
H940 H 0.76421 0.29958 0.34531 0.0
H941 H 0.80906 0.33788 0.44844 0.0
H942 H 0.77206 0.30694 0.48909 0.0
H943 H 0.72857 0.26589 0.49564 0.0
H944 H 0.69007 0.22117 0.39247 0.0
H945 H 0.72241 0.25719 0.35182 0.0
C946 C 0.76572 0.30142 0.37673 0.0
C947 C 0.789 0.32215 0.39356 0.0
C948 C 0.74528 0.282 0.40002 0.0
C949 C 0.79088 0.32361 0.43436 0.0
C950 C 0.76988 0.30533 0.45775 0.0
C951 C 0.72704 0.26427 0.4642 0.0
C952 C 0.70581 0.2414 0.44726 0.0
C953 C 0.74715 0.28415 0.44092 0.0
C954 C 0.70479 0.23918 0.40649 0.0
C955 C 0.72379 0.2596 0.38314 0.0
H956 H 0.52525 0.7342 0.61558 0.0
H957 H 0.44064 0.68227 0.62226 0.0
H958 H 0.43406 0.71268 0.5803 0.0
H959 H 0.45315 0.75532 0.54284 0.0
H960 H 0.53643 0.81196 0.55562 0.0
H961 H 0.54277 0.77971 0.59228 0.0
C962 C 0.50525 0.73014 0.61006 0.0
C963 C 0.48347 0.70654 0.6238 0.0
C964 C 0.50149 0.74888 0.58973 0.0
C965 C 0.4578 0.7005 0.61257 0.0
C966 C 0.45402 0.71802 0.58894 0.0
C967 C 0.47254 0.76064 0.55427 0.0
C968 C 0.49465 0.78539 0.54459 0.0
C969 C 0.47577 0.74251 0.5777 0.0
C970 C 0.51942 0.79252 0.56099 0.0
C971 C 0.52306 0.77411 0.58195 0.0
H972 H 0.76114 0.44539 0.78896 0.0
H973 H 0.81649 0.52936 0.78189 0.0
H974 H 0.78465 0.53583 0.74437 0.0
H975 H 0.73953 0.51808 0.71938 0.0
H976 H 0.68935 0.43353 0.70732 0.0
H977 H 0.71948 0.42658 0.74929 0.0
C978 C 0.76631 0.46497 0.77852 0.0
C979 C 0.79048 0.48714 0.79002 0.0
C980 C 0.74848 0.46838 0.75467 0.0
C981 C 0.79746 0.51223 0.77496 0.0
C982 C 0.77928 0.51595 0.75355 0.0
C983 C 0.73586 0.49809 0.72359 0.0
C984 C 0.71277 0.47643 0.70847 0.0
C985 C 0.75451 0.49426 0.74404 0.0
C986 C 0.70719 0.45064 0.71811 0.0
C987 C 0.72454 0.44665 0.74178 0.0
H988 H 0.28965 0.79489 0.94242 0.0
H989 H 0.3373 0.75821 0.95999 0.0
H990 H 0.30661 0.72056 0.91918 0.0
H991 H 0.26475 0.69756 0.87982 0.0
H992 H 0.2116 0.72902 0.88229 0.0
H993 H 0.24446 0.7681 0.91743 0.0
C994 C 0.29264 0.77804 0.93949 0.0
C995 C 0.31511 0.77889 0.95602 0.0
C996 C 0.27356 0.75532 0.91996 0.0
C997 C 0.31993 0.75793 0.94813 0.0
C998 C 0.30223 0.73626 0.92517 0.0
C999 C 0.26029 0.7128 0.8887 0.0
C1000 C 0.23643 0.71125 0.87651 0.0
C1001 C 0.27868 0.73454 0.91134 0.0
C1002 C 0.23038 0.73048 0.88966 0.0
C1003 C 0.24914 0.75283 0.90971 0.0
H1004 H 0.5525 0.32518 0.06663 0.0
H1005 H 0.55511 0.29866 0.18266 0.0
H1006 H 0.55893 0.26177 0.15626 0.0
H1007 H 0.55513 0.23368 0.10001 0.0
H1008 H 0.55862 0.26342 0.98415 0.0
H1009 H 0.55936 0.30269 0.01063 0.0
C1010 C 0.5554 0.31235 0.08625 0.0
C1011 C 0.55376 0.31502 0.12671 0.0
C1012 C 0.55826 0.29138 0.07084 0.0
C1013 C 0.55625 0.29709 0.1514 0.0
C1014 C 0.55835 0.27588 0.13632 0.0
C1015 C 0.55758 0.24933 0.08053 0.0
C1016 C 0.55715 0.24558 0.04002 0.0
C1017 C 0.55858 0.27233 0.09603 0.0
C1018 C 0.55897 0.26577 0.01543 0.0
C1019 C 0.55927 0.28823 0.03056 0.0
loop_
_geom_bond_atom_site_label_1
_geom_bond_atom_site_label_2
_geom_bond_distance
_geom_bond_site_symmetry_2
_ccdc_geom_bond_type
C0 C1 1.443 . S
C0 N4 1.376 . S
C0 C38 1.389 . S
C1 C0 1.443 . S
C1 C2 1.340 . S
C1 H41 0.951 . S
C2 C1 1.340 . S
C2 C3 1.439 . S
C2 H42 0.950 . S
C3 C2 1.439 . S
C3 N4 1.374 . S
C3 C37 1.395 . S
N4 C0 1.376 . S
N4 C3 1.374 . S
N4 Co5 2.008 . S
Co5 N4 2.008 . S
Co5 N6 1.995 . S
Co5 N11 2.008 . S
Co5 N16 1.995 . S
Co5 N21 2.282 . S
Co5 N27 2.282 . S
N6 Co5 1.995 . S
N6 C7 1.376 . S
N6 C10 1.383 . S
C7 N6 1.376 . S
C7 C8 1.446 . S
C7 C37 1.391 . S
C8 C7 1.446 . S
C8 C9 1.339 . S
C8 H43 0.949 . S
C9 C8 1.339 . S
C9 C10 1.439 . S
C9 H44 0.950 . S
C10 N6 1.383 . S
C10 C9 1.439 . S
C10 C39 1.392 . S
N11 Co5 2.008 . S
N11 C12 1.376 . S
N11 C15 1.374 . S
C12 N11 1.376 . S
C12 C13 1.443 . S
C12 C39 1.389 . S
C13 C12 1.443 . S
C13 C14 1.340 . S
C13 H45 0.951 . S
C14 C13 1.340 . S
C14 C15 1.439 . S
C14 H46 0.950 . S
C15 N11 1.374 . S
C15 C14 1.439 . S
C15 C40 1.395 . S
N16 Co5 1.995 . S
N16 C17 1.376 . S
N16 C20 1.383 . S
C17 N16 1.376 . S
C17 C18 1.446 . S
C17 C40 1.391 . S
C18 C17 1.446 . S
C18 C19 1.339 . S
C18 H47 0.949 . S
C19 C18 1.339 . S
C19 C20 1.439 . S
C19 H48 0.950 . S
C20 N16 1.383 . S
C20 C19 1.439 . S
C20 C38 1.392 . S
N21 Co5 2.282 . S
N21 C24 1.332 . S
N21 C26 1.332 . S
C22 C23 1.386 . S
C22 C25 1.388 . S
C23 C22 1.386 . S
C23 C24 1.382 . S
C23 H49 0.950 . S
C24 N21 1.332 . S
C24 C23 1.382 . S
C24 H35 0.952 . S
C25 C22 1.388 . S
C25 C26 1.382 . S
C25 H50 0.950 . S
C26 N21 1.332 . S
C26 C25 1.382 . S
C26 H36 0.948 . S
N27 Co5 2.282 . S
N27 C31 1.332 . S
N27 C32 1.332 . S
C28 C29 1.388 . S
C28 C32 1.382 . S
C28 H51 0.950 . S
C29 C28 1.388 . S
C29 C30 1.386 . S
C30 C29 1.386 . S
C30 C31 1.382 . S
C30 H52 0.950 . S
C31 N27 1.332 . S
C31 C30 1.382 . S
C31 H33 0.952 . S
C32 N27 1.332 . S
C32 C28 1.382 . S
C32 H34 0.948 . S
H33 C31 0.952 . S
H34 C32 0.948 . S
H35 C24 0.952 . S
H36 C26 0.948 . S
C37 C3 1.395 . S
C37 C7 1.391 . S
C38 C0 1.389 . S
C38 C20 1.392 . S
C39 C10 1.392 . S
C39 C12 1.389 . S
C40 C15 1.395 . S
C40 C17 1.391 . S
H41 C1 0.951 . S
H42 C2 0.950 . S
H43 C8 0.949 . S
H44 C9 0.950 . S
H45 C13 0.951 . S
H46 C14 0.950 . S
H47 C18 0.949 . S
H48 C19 0.950 . S
H49 C23 0.950 . S
H50 C25 0.950 . S
H51 C28 0.950 . S
H52 C30 0.950 . S
C53 C54 1.443 . S
C53 N57 1.376 . S
C53 C91 1.389 . S
C54 C53 1.443 . S
C54 C55 1.340 . S
C54 H94 0.951 . S
C55 C54 1.340 . S
C55 C56 1.439 . S
C55 H95 0.950 . S
C56 C55 1.439 . S
C56 N57 1.374 . S
C56 C90 1.395 . S
N57 C53 1.376 . S
N57 C56 1.374 . S
N57 Co58 2.008 . S
Co58 N57 2.008 . S
Co58 N59 1.995 . S
Co58 N64 2.008 . S
Co58 N69 1.995 . S
Co58 N74 2.282 . S
Co58 N80 2.282 . S
N59 Co58 1.995 . S
N59 C60 1.376 . S
N59 C63 1.383 . S
C60 N59 1.376 . S
C60 C61 1.446 . S
C60 C90 1.391 . S
C61 C60 1.446 . S
C61 C62 1.339 . S
C61 H96 0.949 . S
C62 C61 1.339 . S
C62 C63 1.439 . S
C62 H97 0.950 . S
C63 N59 1.383 . S
C63 C62 1.439 . S
C63 C92 1.392 . S
N64 Co58 2.008 . S
N64 C65 1.376 . S
N64 C68 1.374 . S
C65 N64 1.376 . S
C65 C66 1.443 . S
C65 C92 1.389 . S
C66 C65 1.443 . S
C66 C67 1.340 . S
C66 H98 0.951 . S
C67 C66 1.340 . S
C67 C68 1.439 . S
C67 H99 0.950 . S
C68 N64 1.374 . S
C68 C67 1.439 . S
C68 C93 1.395 . S
N69 Co58 1.995 . S
N69 C70 1.376 . S
N69 C73 1.383 . S
C70 N69 1.376 . S
C70 C71 1.446 . S
C70 C93 1.391 . S
C71 C70 1.446 . S
C71 C72 1.339 . S
C71 H100 0.949 . S
C72 C71 1.339 . S
C72 C73 1.439 . S
C72 H101 0.950 . S
C73 N69 1.383 . S
C73 C72 1.439 . S
C73 C91 1.392 . S
N74 Co58 2.282 . S
N74 C77 1.332 . S
N74 C79 1.332 . S
C75 C76 1.386 . S
C75 C78 1.388 . S
C76 C75 1.386 . S
C76 C77 1.382 . S
C76 H102 0.950 . S
C77 N74 1.332 . S
C77 C76 1.382 . S
C77 H88 0.952 . S
C78 C75 1.388 . S
C78 C79 1.382 . S
C78 H103 0.950 . S
C79 N74 1.332 . S
C79 C78 1.382 . S
C79 H89 0.948 . S
N80 Co58 2.282 . S
N80 C84 1.332 . S
N80 C85 1.332 . S
C81 C82 1.388 . S
C81 C85 1.382 . S
C81 H104 0.950 . S
C82 C81 1.388 . S
C82 C83 1.386 . S
C83 C82 1.386 . S
C83 C84 1.382 . S
C83 H105 0.950 . S
C84 N80 1.332 . S
C84 C83 1.382 . S
C84 H86 0.952 . S
C85 N80 1.332 . S
C85 C81 1.382 . S
C85 H87 0.948 . S
H86 C84 0.952 . S
H87 C85 0.948 . S
H88 C77 0.952 . S
H89 C79 0.948 . S
C90 C56 1.395 . S
C90 C60 1.391 . S
C91 C53 1.389 . S
C91 C73 1.392 . S
C92 C63 1.392 . S
C92 C65 1.389 . S
C93 C68 1.395 . S
C93 C70 1.391 . S
H94 C54 0.951 . S
H95 C55 0.950 . S
H96 C61 0.949 . S
H97 C62 0.950 . S
H98 C66 0.951 . S
H99 C67 0.950 . S
H100 C71 0.949 . S
H101 C72 0.950 . S
H102 C76 0.950 . S
H103 C78 0.950 . S
H104 C81 0.950 . S
H105 C83 0.950 . S
C106 C107 1.443 . S
C106 N110 1.376 . S
C106 C144 1.389 . S
C107 C106 1.443 . S
C107 C108 1.340 . S
C107 H147 0.951 . S
C108 C107 1.340 . S
C108 C109 1.439 . S
C108 H148 0.950 . S
C109 C108 1.439 . S
C109 N110 1.374 . S
C109 C143 1.395 . S
N110 C106 1.376 . S
N110 C109 1.374 . S
N110 Co111 2.008 . S
Co111 N110 2.008 . S
Co111 N112 1.995 . S
Co111 N117 2.008 . S
Co111 N122 1.995 . S
Co111 N127 2.282 . S
Co111 N133 2.282 . S
N112 Co111 1.995 . S
N112 C113 1.376 . S
N112 C116 1.383 . S
C113 N112 1.376 . S
C113 C114 1.446 . S
C113 C143 1.391 . S
C114 C113 1.446 . S
C114 C115 1.339 . S
C114 H149 0.949 . S
C115 C114 1.339 . S
C115 C116 1.439 . S
C115 H150 0.950 . S
C116 N112 1.383 . S
C116 C115 1.439 . S
C116 C145 1.392 . S
N117 Co111 2.008 . S
N117 C118 1.376 . S
N117 C121 1.374 . S
C118 N117 1.376 . S
C118 C119 1.443 . S
C118 C145 1.389 . S
C119 C118 1.443 . S
C119 C120 1.340 . S
C119 H151 0.951 . S
C120 C119 1.340 . S
C120 C121 1.439 . S
C120 H152 0.950 . S
C121 N117 1.374 . S
C121 C120 1.439 . S
C121 C146 1.395 . S
N122 Co111 1.995 . S
N122 C123 1.376 . S
N122 C126 1.383 . S
C123 N122 1.376 . S
C123 C124 1.446 . S
C123 C146 1.391 . S
C124 C123 1.446 . S
C124 C125 1.339 . S
C124 H153 0.949 . S
C125 C124 1.339 . S
C125 C126 1.439 . S
C125 H154 0.950 . S
C126 N122 1.383 . S
C126 C125 1.439 . S
C126 C144 1.392 . S
N127 Co111 2.282 . S
N127 C130 1.332 . S
N127 C132 1.332 . S
C128 C129 1.386 . S
C128 C131 1.388 . S
C129 C128 1.386 . S
C129 C130 1.382 . S
C129 H155 0.950 . S
C130 N127 1.332 . S
C130 C129 1.382 . S
C130 H141 0.952 . S
C131 C128 1.388 . S
C131 C132 1.382 . S
C131 H156 0.950 . S
C132 N127 1.332 . S
C132 C131 1.382 . S
C132 H142 0.948 . S
N133 Co111 2.282 . S
N133 C137 1.332 . S
N133 C138 1.332 . S
C134 C135 1.388 . S
C134 C138 1.382 . S
C134 H157 0.950 . S
C135 C134 1.388 . S
C135 C136 1.386 . S
C136 C135 1.386 . S
C136 C137 1.382 . S
C136 H158 0.950 . S
C137 N133 1.332 . S
C137 C136 1.382 . S
C137 H139 0.952 . S
C138 N133 1.332 . S
C138 C134 1.382 . S
C138 H140 0.948 . S
H139 C137 0.952 . S
H140 C138 0.948 . S
H141 C130 0.952 . S
H142 C132 0.948 . S
C143 C109 1.395 . S
C143 C113 1.391 . S
C144 C106 1.389 . S
C144 C126 1.392 . S
C145 C116 1.392 . S
C145 C118 1.389 . S
C146 C121 1.395 . S
C146 C123 1.391 . S
H147 C107 0.951 . S
H148 C108 0.950 . S
H149 C114 0.949 . S
H150 C115 0.950 . S
H151 C119 0.951 . S
H152 C120 0.950 . S
H153 C124 0.949 . S
H154 C125 0.950 . S
H155 C129 0.950 . S
H156 C131 0.950 . S
H157 C134 0.950 . S
H158 C136 0.950 . S
C159 C160 1.443 . S
C159 N163 1.376 . S
C159 C197 1.389 . S
C160 C159 1.443 . S
C160 C161 1.340 . S
C160 H200 0.951 . S
C161 C160 1.340 . S
C161 C162 1.439 . S
C161 H201 0.950 . S
C162 C161 1.439 . S
C162 N163 1.374 . S
C162 C196 1.395 . S
N163 C159 1.376 . S
N163 C162 1.374 . S
N163 Co164 2.008 . S
Co164 N163 2.008 . S
Co164 N165 1.995 . S
Co164 N170 2.008 . S
Co164 N175 1.995 . S
Co164 N180 2.282 . S
Co164 N186 2.282 . S
N165 Co164 1.995 . S
N165 C166 1.376 . S
N165 C169 1.383 . S
C166 N165 1.376 . S
C166 C167 1.446 1_556 S
C166 C196 1.391 . S
C167 C166 1.446 1_554 S
C167 C168 1.339 . S
C167 H202 0.949 . S
C168 C167 1.339 . S
C168 C169 1.439 1_554 S
C168 H203 0.950 . S
C169 N165 1.383 . S
C169 C168 1.439 1_556 S
C169 C198 1.392 . S
N170 Co164 2.008 . S
N170 C171 1.376 . S
N170 C174 1.374 . S
C171 N170 1.376 . S
C171 C172 1.443 . S
C171 C198 1.389 . S
C172 C171 1.443 . S
C172 C173 1.340 . S
C172 H204 0.951 . S
C173 C172 1.340 . S
C173 C174 1.439 . S
C173 H205 0.950 . S
C174 N170 1.374 . S
C174 C173 1.439 . S
C174 C199 1.395 . S
N175 Co164 1.995 . S
N175 C176 1.376 . S
N175 C179 1.383 . S
C176 N175 1.376 . S
C176 C177 1.446 . S
C176 C199 1.391 . S
C177 C176 1.446 . S
C177 C178 1.339 . S
C177 H206 0.949 . S
C178 C177 1.339 . S
C178 C179 1.439 . S
C178 H207 0.950 . S
C179 N175 1.383 . S
C179 C178 1.439 . S
C179 C197 1.392 . S
N180 Co164 2.282 . S
N180 C183 1.332 . S
N180 C185 1.332 . S
C181 C182 1.386 . S
C181 C184 1.388 . S
C182 C181 1.386 . S
C182 C183 1.382 . S
C182 H208 0.950 . S
C183 N180 1.332 . S
C183 C182 1.382 . S
C183 H194 0.952 . S
C184 C181 1.388 . S
C184 C185 1.382 . S
C184 H209 0.950 . S
C185 N180 1.332 . S
C185 C184 1.382 . S
C185 H195 0.948 . S
N186 Co164 2.282 . S
N186 C190 1.332 . S
N186 C191 1.332 . S
C187 C188 1.388 . S
C187 C191 1.382 . S
C187 H210 0.950 . S
C188 C187 1.388 . S
C188 C189 1.386 . S
C189 C188 1.386 . S
C189 C190 1.382 . S
C189 H211 0.950 . S
C190 N186 1.332 . S
C190 C189 1.382 . S
C190 H192 0.952 . S
C191 N186 1.332 . S
C191 C187 1.382 . S
C191 H193 0.948 . S
H192 C190 0.952 . S
H193 C191 0.948 . S
H194 C183 0.952 . S
H195 C185 0.948 . S
C196 C162 1.395 . S
C196 C166 1.391 . S
C197 C159 1.389 . S
C197 C179 1.392 . S
C198 C169 1.392 . S
C198 C171 1.389 . S
C199 C174 1.395 . S
C199 C176 1.391 . S
H200 C160 0.951 . S
H201 C161 0.950 . S
H202 C167 0.949 . S
H203 C168 0.950 . S
H204 C172 0.951 . S
H205 C173 0.950 . S
H206 C177 0.949 . S
H207 C178 0.950 . S
H208 C182 0.950 . S
H209 C184 0.950 . S
H210 C187 0.950 . S
H211 C189 0.950 . S
C212 C213 1.443 . S
C212 N216 1.376 . S
C212 C250 1.389 1_554 S
C213 C212 1.443 . S
C213 C214 1.340 . S
C213 H253 0.951 . S
C214 C213 1.340 . S
C214 C215 1.439 . S
C214 H254 0.950 . S
C215 C214 1.439 . S
C215 N216 1.374 . S
C215 C249 1.395 . S
N216 C212 1.376 . S
N216 C215 1.374 . S
N216 Co217 2.008 . S
Co217 N216 2.008 . S
Co217 N218 1.995 . S
Co217 N223 2.008 . S
Co217 N228 1.995 . S
Co217 N233 2.282 . S
Co217 N239 2.282 . S
N218 Co217 1.995 . S
N218 C219 1.376 . S
N218 C222 1.383 . S
C219 N218 1.376 . S
C219 C220 1.446 . S
C219 C249 1.391 . S
C220 C219 1.446 . S
C220 C221 1.339 . S
C220 H255 0.949 . S
C221 C220 1.339 . S
C221 C222 1.439 . S
C221 H256 0.950 . S
C222 N218 1.383 . S
C222 C221 1.439 . S
C222 C251 1.392 . S
N223 Co217 2.008 . S
N223 C224 1.376 . S
N223 C227 1.374 . S
C224 N223 1.376 . S
C224 C225 1.443 . S
C224 C251 1.389 . S
C225 C224 1.443 . S
C225 C226 1.340 . S
C225 H257 0.951 . S
C226 C225 1.340 . S
C226 C227 1.439 . S
C226 H258 0.950 . S
C227 N223 1.374 . S
C227 C226 1.439 . S
C227 C252 1.395 . S
N228 Co217 1.995 . S
N228 C229 1.376 . S
N228 C232 1.383 1_554 S
C229 N228 1.376 . S
C229 C230 1.446 1_554 S
C229 C252 1.391 . S
C230 C229 1.446 1_556 S
C230 C231 1.339 . S
C230 H259 0.949 . S
C231 C230 1.339 . S
C231 C232 1.439 . S
C231 H260 0.950 . S
C232 N228 1.383 1_556 S
C232 C231 1.439 . S
C232 C250 1.392 . S
N233 Co217 2.282 . S
N233 C236 1.332 . S
N233 C238 1.332 . S
C234 C235 1.386 . S
C234 C237 1.388 . S
C235 C234 1.386 . S
C235 C236 1.382 . S
C235 H261 0.950 . S
C236 N233 1.332 . S
C236 C235 1.382 . S
C236 H247 0.952 . S
C237 C234 1.388 . S
C237 C238 1.382 . S
C237 H262 0.950 . S
C238 N233 1.332 . S
C238 C237 1.382 . S
C238 H248 0.948 . S
N239 Co217 2.282 . S
N239 C243 1.332 . S
N239 C244 1.332 . S
C240 C241 1.388 . S
C240 C244 1.382 . S
C240 H263 0.950 . S
C241 C240 1.388 . S
C241 C242 1.386 . S
C242 C241 1.386 . S
C242 C243 1.382 . S
C242 H264 0.950 . S
C243 N239 1.332 . S
C243 C242 1.382 . S
C243 H245 0.952 . S
C244 N239 1.332 . S
C244 C240 1.382 . S
C244 H246 0.948 . S
H245 C243 0.952 . S
H246 C244 0.948 . S
H247 C236 0.952 . S
H248 C238 0.948 . S
C249 C215 1.395 . S
C249 C219 1.391 . S
C250 C212 1.389 1_556 S
C250 C232 1.392 . S
C251 C222 1.392 . S
C251 C224 1.389 . S
C252 C227 1.395 . S
C252 C229 1.391 . S
H253 C213 0.951 . S
H254 C214 0.950 . S
H255 C220 0.949 . S
H256 C221 0.950 . S
H257 C225 0.951 . S
H258 C226 0.950 . S
H259 C230 0.949 . S
H260 C231 0.950 . S
H261 C235 0.950 . S
H262 C237 0.950 . S
H263 C240 0.950 . S
H264 C242 0.950 . S
C265 C266 1.443 . S
C265 N269 1.376 . S
C265 C303 1.389 . S
C266 C265 1.443 . S
C266 C267 1.340 . S
C266 H306 0.951 . S
C267 C266 1.340 . S
C267 C268 1.439 . S
C267 H307 0.950 . S
C268 C267 1.439 . S
C268 N269 1.374 . S
C268 C302 1.395 . S
N269 C265 1.376 . S
N269 C268 1.374 . S
N269 Co270 2.008 . S
Co270 N269 2.008 . S
Co270 N271 1.995 . S
Co270 N276 2.008 . S
Co270 N281 1.995 . S
Co270 N286 2.282 . S
Co270 N292 2.282 . S
N271 Co270 1.995 . S
N271 C272 1.376 . S
N271 C275 1.383 . S
C272 N271 1.376 . S
C272 C273 1.446 . S
C272 C302 1.391 . S
C273 C272 1.446 . S
C273 C274 1.339 . S
C273 H308 0.949 . S
C274 C273 1.339 . S
C274 C275 1.439 . S
C274 H309 0.950 . S
C275 N271 1.383 . S
C275 C274 1.439 . S
C275 C304 1.392 . S
N276 Co270 2.008 . S
N276 C277 1.376 . S
N276 C280 1.374 . S
C277 N276 1.376 . S
C277 C278 1.443 . S
C277 C304 1.389 . S
C278 C277 1.443 . S
C278 C279 1.340 . S
C278 H310 0.951 . S
C279 C278 1.340 . S
C279 C280 1.439 . S
C279 H311 0.950 . S
C280 N276 1.374 . S
C280 C279 1.439 . S
C280 C305 1.395 . S
N281 Co270 1.995 . S
N281 C282 1.376 . S
N281 C285 1.383 . S
C282 N281 1.376 . S
C282 C283 1.446 . S
C282 C305 1.391 . S
C283 C282 1.446 . S
C283 C284 1.339 . S
C283 H312 0.949 . S
C284 C283 1.339 . S
C284 C285 1.439 . S
C284 H313 0.950 . S
C285 N281 1.383 . S
C285 C284 1.439 . S
C285 C303 1.392 . S
N286 Co270 2.282 . S
N286 C289 1.332 . S
N286 C291 1.332 . S
C287 C288 1.386 . S
C287 C290 1.388 . S
C288 C287 1.386 . S
C288 C289 1.382 . S
C288 H314 0.950 . S
C289 N286 1.332 . S
C289 C288 1.382 . S
C289 H300 0.952 . S
C290 C287 1.388 . S
C290 C291 1.382 . S
C290 H315 0.950 . S
C291 N286 1.332 . S
C291 C290 1.382 . S
C291 H301 0.948 . S
N292 Co270 2.282 . S
N292 C296 1.332 . S
N292 C297 1.332 . S
C293 C294 1.388 . S
C293 C297 1.382 . S
C293 H316 0.950 . S
C294 C293 1.388 . S
C294 C295 1.386 . S
C295 C294 1.386 . S
C295 C296 1.382 . S
C295 H317 0.950 . S
C296 N292 1.332 . S
C296 C295 1.382 . S
C296 H298 0.952 . S
C297 N292 1.332 . S
C297 C293 1.382 . S
C297 H299 0.948 . S
H298 C296 0.952 . S
H299 C297 0.948 . S
H300 C289 0.952 . S
H301 C291 0.948 . S
C302 C268 1.395 . S
C302 C272 1.391 . S
C303 C265 1.389 . S
C303 C285 1.392 . S
C304 C275 1.392 . S
C304 C277 1.389 . S
C305 C280 1.395 . S
C305 C282 1.391 . S
H306 C266 0.951 . S
H307 C267 0.950 . S
H308 C273 0.949 . S
H309 C274 0.950 . S
H310 C278 0.951 . S
H311 C279 0.950 . S
H312 C283 0.949 . S
H313 C284 0.950 . S
H314 C288 0.950 . S
H315 C290 0.950 . S
H316 C293 0.950 . S
H317 C295 0.950 . S
C318 C319 1.443 . S
C318 N322 1.376 . S
C318 C356 1.389 . S
C319 C318 1.443 . S
C319 C320 1.340 . S
C319 H359 0.951 . S
C320 C319 1.340 . S
C320 C321 1.439 . S
C320 H360 0.950 . S
C321 C320 1.439 . S
C321 N322 1.374 . S
C321 C355 1.395 . S
N322 C318 1.376 . S
N322 C321 1.374 . S
N322 Co323 2.008 . S
Co323 N322 2.008 . S
Co323 N324 1.995 . S
Co323 N329 2.008 . S
Co323 N334 1.995 . S
Co323 N339 2.282 . S
Co323 N345 2.282 . S
N324 Co323 1.995 . S
N324 C325 1.376 . S
N324 C328 1.383 . S
C325 N324 1.376 . S
C325 C326 1.446 . S
C325 C355 1.391 . S
C326 C325 1.446 . S
C326 C327 1.339 . S
C326 H361 0.949 . S
C327 C326 1.339 . S
C327 C328 1.439 . S
C327 H362 0.950 . S
C328 N324 1.383 . S
C328 C327 1.439 . S
C328 C357 1.392 . S
N329 Co323 2.008 . S
N329 C330 1.376 . S
N329 C333 1.374 . S
C330 N329 1.376 . S
C330 C331 1.443 . S
C330 C357 1.389 . S
C331 C330 1.443 . S
C331 C332 1.340 . S
C331 H363 0.951 . S
C332 C331 1.340 . S
C332 C333 1.439 . S
C332 H364 0.950 . S
C333 N329 1.374 . S
C333 C332 1.439 . S
C333 C358 1.395 . S
N334 Co323 1.995 . S
N334 C335 1.376 . S
N334 C338 1.383 . S
C335 N334 1.376 . S
C335 C336 1.446 . S
C335 C358 1.391 . S
C336 C335 1.446 . S
C336 C337 1.339 . S
C336 H365 0.949 . S
C337 C336 1.339 . S
C337 C338 1.439 . S
C337 H366 0.950 . S
C338 N334 1.383 . S
C338 C337 1.439 . S
C338 C356 1.392 . S
N339 Co323 2.282 . S
N339 C342 1.332 . S
N339 C344 1.332 . S
C340 C341 1.386 . S
C340 C343 1.388 . S
C341 C340 1.386 . S
C341 C342 1.382 . S
C341 H367 0.950 . S
C342 N339 1.332 . S
C342 C341 1.382 . S
C342 H353 0.952 . S
C343 C340 1.388 . S
C343 C344 1.382 . S
C343 H368 0.950 . S
C344 N339 1.332 . S
C344 C343 1.382 . S
C344 H354 0.948 . S
N345 Co323 2.282 . S
N345 C349 1.332 . S
N345 C350 1.332 . S
C346 C347 1.388 . S
C346 C350 1.382 . S
C346 H369 0.950 . S
C347 C346 1.388 . S
C347 C348 1.386 . S
C348 C347 1.386 . S
C348 C349 1.382 . S
C348 H370 0.950 . S
C349 N345 1.332 . S
C349 C348 1.382 . S
C349 H351 0.952 . S
C350 N345 1.332 . S
C350 C346 1.382 . S
C350 H352 0.948 . S
H351 C349 0.952 . S
H352 C350 0.948 . S
H353 C342 0.952 . S
H354 C344 0.948 . S
C355 C321 1.395 . S
C355 C325 1.391 . S
C356 C318 1.389 . S
C356 C338 1.392 . S
C357 C328 1.392 . S
C357 C330 1.389 . S
C358 C333 1.395 . S
C358 C335 1.391 . S
H359 C319 0.951 . S
H360 C320 0.950 . S
H361 C326 0.949 . S
H362 C327 0.950 . S
H363 C331 0.951 . S
H364 C332 0.950 . S
H365 C336 0.949 . S
H366 C337 0.950 . S
H367 C341 0.950 . S
H368 C343 0.950 . S
H369 C346 0.950 . S
H370 C348 0.950 . S
C371 C372 1.443 . S
C371 N375 1.376 . S
C371 C409 1.389 . S
C372 C371 1.443 . S
C372 C373 1.340 . S
C372 H412 0.951 . S
C373 C372 1.340 . S
C373 C374 1.439 . S
C373 H413 0.950 . S
C374 C373 1.439 . S
C374 N375 1.374 . S
C374 C408 1.395 . S
N375 C371 1.376 . S
N375 C374 1.374 . S
N375 Co376 2.008 . S
Co376 N375 2.008 . S
Co376 N377 1.995 . S
Co376 N382 2.008 . S
Co376 N387 1.995 . S
Co376 N392 2.282 . S
Co376 N398 2.282 . S
N377 Co376 1.995 . S
N377 C378 1.376 . S
N377 C381 1.383 . S
C378 N377 1.376 . S
C378 C379 1.446 . S
C378 C408 1.391 . S
C379 C378 1.446 . S
C379 C380 1.339 . S
C379 H414 0.949 . S
C380 C379 1.339 . S
C380 C381 1.439 . S
C380 H415 0.950 . S
C381 N377 1.383 . S
C381 C380 1.439 . S
C381 C410 1.392 . S
N382 Co376 2.008 . S
N382 C383 1.376 . S
N382 C386 1.374 . S
C383 N382 1.376 . S
C383 C384 1.443 . S
C383 C410 1.389 . S
C384 C383 1.443 . S
C384 C385 1.340 . S
C384 H416 0.951 . S
C385 C384 1.340 . S
C385 C386 1.439 . S
C385 H417 0.950 . S
C386 N382 1.374 . S
C386 C385 1.439 . S
C386 C411 1.395 . S
N387 Co376 1.995 . S
N387 C388 1.376 . S
N387 C391 1.383 . S
C388 N387 1.376 . S
C388 C389 1.446 . S
C388 C411 1.391 . S
C389 C388 1.446 . S
C389 C390 1.339 . S
C389 H418 0.949 . S
C390 C389 1.339 . S
C390 C391 1.439 . S
C390 H419 0.950 . S
C391 N387 1.383 . S
C391 C390 1.439 . S
C391 C409 1.392 . S
N392 Co376 2.282 . S
N392 C395 1.332 . S
N392 C397 1.332 . S
C393 C394 1.386 . S
C393 C396 1.388 . S
C394 C393 1.386 . S
C394 C395 1.382 . S
C394 H420 0.950 . S
C395 N392 1.332 . S
C395 C394 1.382 . S
C395 H406 0.952 . S
C396 C393 1.388 . S
C396 C397 1.382 . S
C396 H421 0.950 . S
C397 N392 1.332 . S
C397 C396 1.382 . S
C397 H407 0.948 . S
N398 Co376 2.282 . S
N398 C402 1.332 . S
N398 C403 1.332 . S
C399 C400 1.388 . S
C399 C403 1.382 . S
C399 H422 0.950 . S
C400 C399 1.388 . S
C400 C401 1.386 . S
C401 C400 1.386 . S
C401 C402 1.382 . S
C401 H423 0.950 . S
C402 N398 1.332 . S
C402 C401 1.382 . S
C402 H404 0.952 . S
C403 N398 1.332 . S
C403 C399 1.382 . S
C403 H405 0.948 . S
H404 C402 0.952 . S
H405 C403 0.948 . S
H406 C395 0.952 . S
H407 C397 0.948 . S
C408 C374 1.395 . S
C408 C378 1.391 . S
C409 C371 1.389 . S
C409 C391 1.392 . S
C410 C381 1.392 . S
C410 C383 1.389 . S
C411 C386 1.395 . S
C411 C388 1.391 . S
H412 C372 0.951 . S
H413 C373 0.950 . S
H414 C379 0.949 . S
H415 C380 0.950 . S
H416 C384 0.951 . S
H417 C385 0.950 . S
H418 C389 0.949 . S
H419 C390 0.950 . S
H420 C394 0.950 . S
H421 C396 0.950 . S
H422 C399 0.950 . S
H423 C401 0.950 . S
C424 C425 1.443 . S
C424 N428 1.376 . S
C424 C462 1.389 . S
C425 C424 1.443 . S
C425 C426 1.340 . S
C425 H465 0.951 . S
C426 C425 1.340 . S
C426 C427 1.439 . S
C426 H466 0.950 . S
C427 C426 1.439 . S
C427 N428 1.374 . S
C427 C461 1.395 . S
N428 C424 1.376 . S
N428 C427 1.374 . S
N428 Co429 2.008 . S
Co429 N428 2.008 . S
Co429 N430 1.995 . S
Co429 N435 2.008 . S
Co429 N440 1.995 . S
Co429 N445 2.282 . S
Co429 N451 2.282 . S
N430 Co429 1.995 . S
N430 C431 1.376 . S
N430 C434 1.383 . S
C431 N430 1.376 . S
C431 C432 1.446 . S
C431 C461 1.391 . S
C432 C431 1.446 . S
C432 C433 1.339 . S
C432 H467 0.949 . S
C433 C432 1.339 . S
C433 C434 1.439 . S
C433 H468 0.950 . S
C434 N430 1.383 . S
C434 C433 1.439 . S
C434 C463 1.392 . S
N435 Co429 2.008 . S
N435 C436 1.376 . S
N435 C439 1.374 . S
C436 N435 1.376 . S
C436 C437 1.443 . S
C436 C463 1.389 . S
C437 C436 1.443 . S
C437 C438 1.340 . S
C437 H469 0.951 . S
C438 C437 1.340 . S
C438 C439 1.439 . S
C438 H470 0.950 . S
C439 N435 1.374 . S
C439 C438 1.439 . S
C439 C464 1.395 . S
N440 Co429 1.995 . S
N440 C441 1.376 . S
N440 C444 1.383 . S
C441 N440 1.376 . S
C441 C442 1.446 . S
C441 C464 1.391 . S
C442 C441 1.446 . S
C442 C443 1.339 . S
C442 H471 0.949 . S
C443 C442 1.339 . S
C443 C444 1.439 . S
C443 H472 0.950 . S
C444 N440 1.383 . S
C444 C443 1.439 . S
C444 C462 1.392 . S
N445 Co429 2.282 . S
N445 C448 1.332 . S
N445 C450 1.332 . S
C446 C447 1.386 . S
C446 C449 1.388 . S
C447 C446 1.386 . S
C447 C448 1.382 . S
C447 H473 0.950 . S
C448 N445 1.332 . S
C448 C447 1.382 . S
C448 H459 0.952 . S
C449 C446 1.388 . S
C449 C450 1.382 . S
C449 H474 0.950 . S
C450 N445 1.332 . S
C450 C449 1.382 . S
C450 H460 0.948 . S
N451 Co429 2.282 . S
N451 C455 1.332 . S
N451 C456 1.332 . S
C452 C453 1.388 . S
C452 C456 1.382 . S
C452 H475 0.950 . S
C453 C452 1.388 . S
C453 C454 1.386 . S
C454 C453 1.386 . S
C454 C455 1.382 . S
C454 H476 0.950 . S
C455 N451 1.332 . S
C455 C454 1.382 . S
C455 H457 0.952 . S
C456 N451 1.332 . S
C456 C452 1.382 . S
C456 H458 0.948 . S
H457 C455 0.952 . S
H458 C456 0.948 . S
H459 C448 0.952 . S
H460 C450 0.948 . S
C461 C427 1.395 . S
C461 C431 1.391 . S
C462 C424 1.389 . S
C462 C444 1.392 . S
C463 C434 1.392 . S
C463 C436 1.389 . S
C464 C439 1.395 . S
C464 C441 1.391 . S
H465 C425 0.951 . S
H466 C426 0.950 . S
H467 C432 0.949 . S
H468 C433 0.950 . S
H469 C437 0.951 . S
H470 C438 0.950 . S
H471 C442 0.949 . S
H472 C443 0.950 . S
H473 C447 0.950 . S
H474 C449 0.950 . S
H475 C452 0.950 . S
H476 C454 0.950 . S
C477 C478 1.443 . S
C477 N481 1.376 . S
C477 C515 1.389 1_556 S
C478 C477 1.443 . S
C478 C479 1.340 . S
C478 H518 0.951 . S
C479 C478 1.340 . S
C479 C480 1.439 . S
C479 H519 0.950 . S
C480 C479 1.439 . S
C480 N481 1.374 . S
C480 C514 1.395 . S
N481 C477 1.376 . S
N481 C480 1.374 . S
N481 Co482 2.008 . S
Co482 N481 2.008 . S
Co482 N483 1.995 . S
Co482 N488 2.008 . S
Co482 N493 1.995 . S
Co482 N498 2.282 . S
Co482 N504 2.282 . S
N483 Co482 1.995 . S
N483 C484 1.376 . S
N483 C487 1.383 . S
C484 N483 1.376 . S
C484 C485 1.446 . S
C484 C514 1.391 . S
C485 C484 1.446 . S
C485 C486 1.339 . S
C485 H520 0.949 . S
C486 C485 1.339 . S
C486 C487 1.439 . S
C486 H521 0.950 . S
C487 N483 1.383 . S
C487 C486 1.439 . S
C487 C516 1.392 . S
N488 Co482 2.008 . S
N488 C489 1.376 . S
N488 C492 1.374 . S
C489 N488 1.376 . S
C489 C490 1.443 . S
C489 C516 1.389 . S
C490 C489 1.443 . S
C490 C491 1.340 . S
C490 H522 0.951 . S
C491 C490 1.340 . S
C491 C492 1.439 . S
C491 H523 0.950 . S
C492 N488 1.374 . S
C492 C491 1.439 . S
C492 C517 1.395 . S
N493 Co482 1.995 . S
N493 C494 1.376 . S
N493 C497 1.383 1_556 S
C494 N493 1.376 . S
C494 C495 1.446 1_556 S
C494 C517 1.391 . S
C495 C494 1.446 1_554 S
C495 C496 1.339 . S
C495 H524 0.949 . S
C496 C495 1.339 . S
C496 C497 1.439 . S
C496 H525 0.950 . S
C497 N493 1.383 1_554 S
C497 C496 1.439 . S
C497 C515 1.392 . S
N498 Co482 2.282 . S
N498 C501 1.332 . S
N498 C503 1.332 . S
C499 C500 1.386 . S
C499 C502 1.388 . S
C500 C499 1.386 . S
C500 C501 1.382 . S
C500 H526 0.950 . S
C501 N498 1.332 . S
C501 C500 1.382 . S
C501 H512 0.952 . S
C502 C499 1.388 . S
C502 C503 1.382 . S
C502 H527 0.950 . S
C503 N498 1.332 . S
C503 C502 1.382 . S
C503 H513 0.948 . S
N504 Co482 2.282 . S
N504 C508 1.332 . S
N504 C509 1.332 . S
C505 C506 1.388 . S
C505 C509 1.382 . S
C505 H528 0.950 . S
C506 C505 1.388 . S
C506 C507 1.386 . S
C507 C506 1.386 . S
C507 C508 1.382 . S
C507 H529 0.950 . S
C508 N504 1.332 . S
C508 C507 1.382 . S
C508 H510 0.952 . S
C509 N504 1.332 . S
C509 C505 1.382 . S
C509 H511 0.948 . S
H510 C508 0.952 . S
H511 C509 0.948 . S
H512 C501 0.952 . S
H513 C503 0.948 . S
C514 C480 1.395 . S
C514 C484 1.391 . S
C515 C477 1.389 1_554 S
C515 C497 1.392 . S
C516 C487 1.392 . S
C516 C489 1.389 . S
C517 C492 1.395 . S
C517 C494 1.391 . S
H518 C478 0.951 . S
H519 C479 0.950 . S
H520 C485 0.949 . S
H521 C486 0.950 . S
H522 C490 0.951 . S
H523 C491 0.950 . S
H524 C495 0.949 . S
H525 C496 0.950 . S
H526 C500 0.950 . S
H527 C502 0.950 . S
H528 C505 0.950 . S
H529 C507 0.950 . S
C530 C531 1.443 . S
C530 N534 1.376 . S
C530 C568 1.389 . S
C531 C530 1.443 . S
C531 C532 1.340 . S
C531 H571 0.951 . S
C532 C531 1.340 . S
C532 C533 1.439 . S
C532 H572 0.950 . S
C533 C532 1.439 . S
C533 N534 1.374 . S
C533 C567 1.395 . S
N534 C530 1.376 . S
N534 C533 1.374 . S
N534 Co535 2.008 . S
Co535 N534 2.008 . S
Co535 N536 1.995 . S
Co535 N541 2.008 . S
Co535 N546 1.995 . S
Co535 N551 2.282 . S
Co535 N557 2.282 . S
N536 Co535 1.995 . S
N536 C537 1.376 . S
N536 C540 1.383 . S
C537 N536 1.376 . S
C537 C538 1.446 1_554 S
C537 C567 1.391 . S
C538 C537 1.446 1_556 S
C538 C539 1.339 . S
C538 H573 0.949 . S
C539 C538 1.339 . S
C539 C540 1.439 1_556 S
C539 H574 0.950 . S
C540 N536 1.383 . S
C540 C539 1.439 1_554 S
C540 C569 1.392 . S
N541 Co535 2.008 . S
N541 C542 1.376 . S
N541 C545 1.374 . S
C542 N541 1.376 . S
C542 C543 1.443 . S
C542 C569 1.389 . S
C543 C542 1.443 . S
C543 C544 1.340 . S
C543 H575 0.951 . S
C544 C543 1.340 . S
C544 C545 1.439 . S
C544 H576 0.950 . S
C545 N541 1.374 . S
C545 C544 1.439 . S
C545 C570 1.395 . S
N546 Co535 1.995 . S
N546 C547 1.376 . S
N546 C550 1.383 . S
C547 N546 1.376 . S
C547 C548 1.446 . S
C547 C570 1.391 . S
C548 C547 1.446 . S
C548 C549 1.339 . S
C548 H577 0.949 . S
C549 C548 1.339 . S
C549 C550 1.439 . S
C549 H578 0.950 . S
C550 N546 1.383 . S
C550 C549 1.439 . S
C550 C568 1.392 . S
N551 Co535 2.282 . S
N551 C554 1.332 . S
N551 C556 1.332 . S
C552 C553 1.386 . S
C552 C555 1.388 . S
C553 C552 1.386 . S
C553 C554 1.382 . S
C553 H579 0.950 . S
C554 N551 1.332 . S
C554 C553 1.382 . S
C554 H565 0.952 . S
C555 C552 1.388 . S
C555 C556 1.382 . S
C555 H580 0.950 . S
C556 N551 1.332 . S
C556 C555 1.382 . S
C556 H566 0.948 . S
N557 Co535 2.282 . S
N557 C561 1.332 . S
N557 C562 1.332 . S
C558 C559 1.388 . S
C558 C562 1.382 . S
C558 H581 0.950 . S
C559 C558 1.388 . S
C559 C560 1.386 . S
C560 C559 1.386 . S
C560 C561 1.382 . S
C560 H582 0.950 . S
C561 N557 1.332 . S
C561 C560 1.382 . S
C561 H563 0.952 . S
C562 N557 1.332 . S
C562 C558 1.382 . S
C562 H564 0.948 . S
H563 C561 0.952 . S
H564 C562 0.948 . S
H565 C554 0.952 . S
H566 C556 0.948 . S
C567 C533 1.395 . S
C567 C537 1.391 . S
C568 C530 1.389 . S
C568 C550 1.392 . S
C569 C540 1.392 . S
C569 C542 1.389 . S
C570 C545 1.395 . S
C570 C547 1.391 . S
H571 C531 0.951 . S
H572 C532 0.950 . S
H573 C538 0.949 . S
H574 C539 0.950 . S
H575 C543 0.951 . S
H576 C544 0.950 . S
H577 C548 0.949 . S
H578 C549 0.950 . S
H579 C553 0.950 . S
H580 C555 0.950 . S
H581 C558 0.950 . S
H582 C560 0.950 . S
C583 C584 1.443 . S
C583 N587 1.376 . S
C583 C621 1.389 . S
C584 C583 1.443 . S
C584 C585 1.340 . S
C584 H624 0.951 . S
C585 C584 1.340 . S
C585 C586 1.439 . S
C585 H625 0.950 . S
C586 C585 1.439 . S
C586 N587 1.374 . S
C586 C620 1.395 . S
N587 C583 1.376 . S
N587 C586 1.374 . S
N587 Co588 2.008 . S
Co588 N587 2.008 . S
Co588 N589 1.995 . S
Co588 N594 2.008 . S
Co588 N599 1.995 . S
Co588 N604 2.282 . S
Co588 N610 2.282 . S
N589 Co588 1.995 . S
N589 C590 1.376 . S
N589 C593 1.383 . S
C590 N589 1.376 . S
C590 C591 1.446 . S
C590 C620 1.391 . S
C591 C590 1.446 . S
C591 C592 1.339 . S
C591 H626 0.949 . S
C592 C591 1.339 . S
C592 C593 1.439 . S
C592 H627 0.950 . S
C593 N589 1.383 . S
C593 C592 1.439 . S
C593 C622 1.392 . S
N594 Co588 2.008 . S
N594 C595 1.376 . S
N594 C598 1.374 . S
C595 N594 1.376 . S
C595 C596 1.443 . S
C595 C622 1.389 . S
C596 C595 1.443 . S
C596 C597 1.340 . S
C596 H628 0.951 . S
C597 C596 1.340 . S
C597 C598 1.439 . S
C597 H629 0.950 . S
C598 N594 1.374 . S
C598 C597 1.439 . S
C598 C623 1.395 . S
N599 Co588 1.995 . S
N599 C600 1.376 . S
N599 C603 1.383 . S
C600 N599 1.376 . S
C600 C601 1.446 . S
C600 C623 1.391 . S
C601 C600 1.446 . S
C601 C602 1.339 . S
C601 H630 0.949 . S
C602 C601 1.339 . S
C602 C603 1.439 . S
C602 H631 0.950 . S
C603 N599 1.383 . S
C603 C602 1.439 . S
C603 C621 1.392 . S
N604 Co588 2.282 . S
N604 C607 1.332 . S
N604 C609 1.332 . S
C605 C606 1.386 . S
C605 C608 1.388 . S
C606 C605 1.386 . S
C606 C607 1.382 . S
C606 H632 0.950 . S
C607 N604 1.332 . S
C607 C606 1.382 . S
C607 H618 0.952 . S
C608 C605 1.388 . S
C608 C609 1.382 . S
C608 H633 0.950 . S
C609 N604 1.332 . S
C609 C608 1.382 . S
C609 H619 0.948 . S
N610 Co588 2.282 . S
N610 C614 1.332 . S
N610 C615 1.332 . S
C611 C612 1.388 . S
C611 C615 1.382 . S
C611 H634 0.950 . S
C612 C611 1.388 . S
C612 C613 1.386 . S
C613 C612 1.386 . S
C613 C614 1.382 . S
C613 H635 0.950 . S
C614 N610 1.332 . S
C614 C613 1.382 . S
C614 H616 0.952 . S
C615 N610 1.332 . S
C615 C611 1.382 . S
C615 H617 0.948 . S
H616 C614 0.952 . S
H617 C615 0.948 . S
H618 C607 0.952 . S
H619 C609 0.948 . S
C620 C586 1.395 . S
C620 C590 1.391 . S
C621 C583 1.389 . S
C621 C603 1.392 . S
C622 C593 1.392 . S
C622 C595 1.389 . S
C623 C598 1.395 . S
C623 C600 1.391 . S
H624 C584 0.951 . S
H625 C585 0.950 . S
H626 C591 0.949 . S
H627 C592 0.950 . S
H628 C596 0.951 . S
H629 C597 0.950 . S
H630 C601 0.949 . S
H631 C602 0.950 . S
H632 C606 0.950 . S
H633 C608 0.950 . S
H634 C611 0.950 . S
H635 C613 0.950 . S
H636 C642 0.930 . S
H637 C645 0.930 . S
H638 C646 0.930 . S
H639 C647 0.930 . S
H640 C650 0.930 . S
H641 C651 0.930 . S
C642 H636 0.930 . S
C642 C643 1.355 . S
C642 C644 1.415 . S
C643 C642 1.355 . S
C643 C645 1.419 . S
C644 C642 1.415 . S
C644 C649 1.425 . S
C644 C651 1.409 . S
C645 H637 0.930 . S
C645 C643 1.419 . S
C645 C646 1.362 . S
C646 H638 0.930 . S
C646 C645 1.362 . S
C646 C649 1.409 . S
C647 H639 0.930 . S
C647 C648 1.355 . S
C647 C649 1.415 . S
C648 C647 1.355 . S
C648 C650 1.419 . S
C649 C644 1.425 . S
C649 C646 1.409 . S
C649 C647 1.415 . S
C650 H640 0.930 . S
C650 C648 1.419 . S
C650 C651 1.362 . S
C651 H641 0.930 . S
C651 C644 1.409 . S
C651 C650 1.362 . S
H652 C658 0.930 . S
H653 C661 0.930 . S
H654 C662 0.930 . S
H655 C663 0.930 . S
H656 C666 0.930 . S
H657 C667 0.930 . S
C658 H652 0.930 . S
C658 C659 1.355 . S
C658 C660 1.415 . S
C659 C658 1.355 . S
C659 C661 1.419 . S
C660 C658 1.415 . S
C660 C665 1.425 . S
C660 C667 1.409 . S
C661 H653 0.930 . S
C661 C659 1.419 . S
C661 C662 1.362 . S
C662 H654 0.930 . S
C662 C661 1.362 . S
C662 C665 1.409 . S
C663 H655 0.930 . S
C663 C664 1.355 . S
C663 C665 1.415 . S
C664 C663 1.355 . S
C664 C666 1.419 . S
C665 C660 1.425 . S
C665 C662 1.409 . S
C665 C663 1.415 . S
C666 H656 0.930 . S
C666 C664 1.419 . S
C666 C667 1.362 . S
C667 H657 0.930 . S
C667 C660 1.409 . S
C667 C666 1.362 . S
H668 C674 0.930 . S
H669 C677 0.930 . S
H670 C678 0.930 . S
H671 C679 0.930 . S
H672 C682 0.930 . S
H673 C683 0.930 . S
C674 H668 0.930 . S
C674 C675 1.355 . S
C674 C676 1.415 . S
C675 C674 1.355 . S
C675 C677 1.419 . S
C676 C674 1.415 . S
C676 C681 1.425 . S
C676 C683 1.409 . S
C677 H669 0.930 . S
C677 C675 1.419 . S
C677 C678 1.362 . S
C678 H670 0.930 . S
C678 C677 1.362 . S
C678 C681 1.409 . S
C679 H671 0.930 . S
C679 C680 1.355 . S
C679 C681 1.415 . S
C680 C679 1.355 . S
C680 C682 1.419 . S
C681 C676 1.425 . S
C681 C678 1.409 . S
C681 C679 1.415 . S
C682 H672 0.930 . S
C682 C680 1.419 . S
C682 C683 1.362 . S
C683 H673 0.930 . S
C683 C676 1.409 . S
C683 C682 1.362 . S
H684 C690 0.930 . S
H685 C693 0.930 . S
H686 C694 0.930 . S
H687 C695 0.930 . S
H688 C698 0.930 . S
H689 C699 0.930 . S
C690 H684 0.930 . S
C690 C691 1.355 . S
C690 C692 1.415 . S
C691 C690 1.355 . S
C691 C693 1.419 . S
C692 C690 1.415 . S
C692 C697 1.425 . S
C692 C699 1.409 . S
C693 H685 0.930 . S
C693 C691 1.419 . S
C693 C694 1.362 . S
C694 H686 0.930 . S
C694 C693 1.362 . S
C694 C697 1.409 . S
C695 H687 0.930 . S
C695 C696 1.355 . S
C695 C697 1.415 . S
C696 C695 1.355 . S
C696 C698 1.419 . S
C697 C692 1.425 . S
C697 C694 1.409 . S
C697 C695 1.415 . S
C698 H688 0.930 . S
C698 C696 1.419 . S
C698 C699 1.362 . S
C699 H689 0.930 . S
C699 C692 1.409 . S
C699 C698 1.362 . S
H700 C706 0.930 . S
H701 C709 0.930 . S
H702 C710 0.930 . S
H703 C711 0.930 . S
H704 C714 0.930 . S
H705 C715 0.930 . S
C706 H700 0.930 . S
C706 C707 1.355 . S
C706 C708 1.415 . S
C707 C706 1.355 . S
C707 C709 1.419 . S
C708 C706 1.415 . S
C708 C713 1.425 . S
C708 C715 1.409 . S
C709 H701 0.930 . S
C709 C707 1.419 . S
C709 C710 1.362 . S
C710 H702 0.930 . S
C710 C709 1.362 . S
C710 C713 1.409 . S
C711 H703 0.930 . S
C711 C712 1.355 . S
C711 C713 1.415 . S
C712 C711 1.355 . S
C712 C714 1.419 . S
C713 C708 1.425 . S
C713 C710 1.409 . S
C713 C711 1.415 . S
C714 H704 0.930 . S
C714 C712 1.419 . S
C714 C715 1.362 . S
C715 H705 0.930 . S
C715 C708 1.409 . S
C715 C714 1.362 . S
H716 C722 0.930 . S
H717 C725 0.930 . S
H718 C726 0.930 . S
H719 C727 0.930 . S
H720 C730 0.930 . S
H721 C731 0.930 . S
C722 H716 0.930 . S
C722 C723 1.355 . S
C722 C724 1.415 . S
C723 C722 1.355 . S
C723 C725 1.419 . S
C724 C722 1.415 . S
C724 C729 1.425 . S
C724 C731 1.409 . S
C725 H717 0.930 . S
C725 C723 1.419 . S
C725 C726 1.362 . S
C726 H718 0.930 . S
C726 C725 1.362 . S
C726 C729 1.409 . S
C727 H719 0.930 . S
C727 C728 1.355 . S
C727 C729 1.415 . S
C728 C727 1.355 . S
C728 C730 1.419 . S
C729 C724 1.425 . S
C729 C726 1.409 . S
C729 C727 1.415 . S
C730 H720 0.930 . S
C730 C728 1.419 . S
C730 C731 1.362 . S
C731 H721 0.930 . S
C731 C724 1.409 . S
C731 C730 1.362 . S
H732 C738 0.930 . S
H733 C741 0.930 . S
H734 C742 0.930 . S
H735 C743 0.930 . S
H736 C746 0.930 . S
H737 C747 0.930 . S
C738 H732 0.930 . S
C738 C739 1.355 . S
C738 C740 1.415 . S
C739 C738 1.355 . S
C739 C741 1.419 . S
C740 C738 1.415 . S
C740 C745 1.425 . S
C740 C747 1.409 . S
C741 H733 0.930 . S
C741 C739 1.419 . S
C741 C742 1.362 . S
C742 H734 0.930 . S
C742 C741 1.362 . S
C742 C745 1.409 . S
C743 H735 0.930 . S
C743 C744 1.355 . S
C743 C745 1.415 . S
C744 C743 1.355 . S
C744 C746 1.419 . S
C745 C740 1.425 . S
C745 C742 1.409 . S
C745 C743 1.415 . S
C746 H736 0.930 . S
C746 C744 1.419 . S
C746 C747 1.362 . S
C747 H737 0.930 . S
C747 C740 1.409 . S
C747 C746 1.362 . S
H748 C754 0.930 . S
H749 C757 0.930 . S
H750 C758 0.930 . S
H751 C759 0.930 . S
H752 C762 0.930 . S
H753 C763 0.930 . S
C754 H748 0.930 . S
C754 C755 1.355 . S
C754 C756 1.415 . S
C755 C754 1.355 . S
C755 C757 1.419 . S
C756 C754 1.415 . S
C756 C761 1.425 . S
C756 C763 1.409 . S
C757 H749 0.930 . S
C757 C755 1.419 . S
C757 C758 1.362 . S
C758 H750 0.930 . S
C758 C757 1.362 . S
C758 C761 1.409 . S
C759 H751 0.930 . S
C759 C760 1.355 . S
C759 C761 1.415 . S
C760 C759 1.355 . S
C760 C762 1.419 . S
C761 C756 1.425 . S
C761 C758 1.409 . S
C761 C759 1.415 . S
C762 H752 0.930 . S
C762 C760 1.419 . S
C762 C763 1.362 . S
C763 H753 0.930 . S
C763 C756 1.409 . S
C763 C762 1.362 . S
H764 C770 0.930 . S
H765 C773 0.930 1_554 S
H766 C774 0.930 . S
H767 C775 0.930 . S
H768 C778 0.930 . S
H769 C779 0.930 . S
C770 H764 0.930 . S
C770 C771 1.355 . S
C770 C772 1.415 . S
C771 C770 1.355 . S
C771 C773 1.419 . S
C772 C770 1.415 . S
C772 C777 1.425 . S
C772 C779 1.409 . S
C773 H765 0.930 1_556 S
C773 C771 1.419 . S
C773 C774 1.362 . S
C774 H766 0.930 . S
C774 C773 1.362 . S
C774 C777 1.409 . S
C775 H767 0.930 . S
C775 C776 1.355 . S
C775 C777 1.415 . S
C776 C775 1.355 . S
C776 C778 1.419 . S
C777 C772 1.425 . S
C777 C774 1.409 . S
C777 C775 1.415 . S
C778 H768 0.930 . S
C778 C776 1.419 . S
C778 C779 1.362 . S
C779 H769 0.930 . S
C779 C772 1.409 . S
C779 C778 1.362 . S
H780 C786 0.930 . S
H781 C789 0.930 . S
H782 C790 0.930 . S
H783 C791 0.930 . S
H784 C794 0.930 . S
H785 C795 0.930 . S
C786 H780 0.930 . S
C786 C787 1.355 . S
C786 C788 1.415 . S
C787 C786 1.355 . S
C787 C789 1.419 . S
C788 C786 1.415 . S
C788 C793 1.425 . S
C788 C795 1.409 . S
C789 H781 0.930 . S
C789 C787 1.419 . S
C789 C790 1.362 . S
C790 H782 0.930 . S
C790 C789 1.362 . S
C790 C793 1.409 . S
C791 H783 0.930 . S
C791 C792 1.355 . S
C791 C793 1.415 . S
C792 C791 1.355 . S
C792 C794 1.419 . S
C793 C788 1.425 . S
C793 C790 1.409 . S
C793 C791 1.415 . S
C794 H784 0.930 . S
C794 C792 1.419 . S
C794 C795 1.362 . S
C795 H785 0.930 . S
C795 C788 1.409 . S
C795 C794 1.362 . S
H796 C802 0.930 . S
H797 C805 0.930 . S
H798 C806 0.930 . S
H799 C807 0.930 . S
H800 C810 0.930 . S
H801 C811 0.930 . S
C802 H796 0.930 . S
C802 C803 1.355 . S
C802 C804 1.415 . S
C803 C802 1.355 . S
C803 C805 1.419 . S
C804 C802 1.415 . S
C804 C809 1.425 . S
C804 C811 1.409 . S
C805 H797 0.930 . S
C805 C803 1.419 . S
C805 C806 1.362 . S
C806 H798 0.930 . S
C806 C805 1.362 . S
C806 C809 1.409 . S
C807 H799 0.930 . S
C807 C808 1.355 . S
C807 C809 1.415 . S
C808 C807 1.355 . S
C808 C810 1.419 . S
C809 C804 1.425 . S
C809 C806 1.409 . S
C809 C807 1.415 . S
C810 H800 0.930 . S
C810 C808 1.419 . S
C810 C811 1.362 . S
C811 H801 0.930 . S
C811 C804 1.409 . S
C811 C810 1.362 . S
H812 C818 0.930 . S
H813 C821 0.930 . S
H814 C822 0.930 . S
H815 C823 0.930 . S
H816 C826 0.930 . S
H817 C827 0.930 . S
C818 H812 0.930 . S
C818 C819 1.355 . S
C818 C820 1.415 . S
C819 C818 1.355 . S
C819 C821 1.419 . S
C820 C818 1.415 . S
C820 C825 1.425 . S
C820 C827 1.409 . S
C821 H813 0.930 . S
C821 C819 1.419 . S
C821 C822 1.362 . S
C822 H814 0.930 . S
C822 C821 1.362 . S
C822 C825 1.409 . S
C823 H815 0.930 . S
C823 C824 1.355 . S
C823 C825 1.415 . S
C824 C823 1.355 . S
C824 C826 1.419 . S
C825 C820 1.425 . S
C825 C822 1.409 . S
C825 C823 1.415 . S
C826 H816 0.930 . S
C826 C824 1.419 . S
C826 C827 1.362 . S
C827 H817 0.930 . S
C827 C820 1.409 . S
C827 C826 1.362 . S
H828 C834 0.930 . S
H829 C837 0.930 . S
H830 C838 0.930 . S
H831 C839 0.930 . S
H832 C842 0.930 . S
H833 C843 0.930 . S
C834 H828 0.930 . S
C834 C835 1.355 . S
C834 C836 1.415 . S
C835 C834 1.355 . S
C835 C837 1.419 . S
C836 C834 1.415 . S
C836 C841 1.425 1_655 S
C836 C843 1.409 . S
C837 H829 0.930 . S
C837 C835 1.419 . S
C837 C838 1.362 1_655 S
C838 H830 0.930 . S
C838 C837 1.362 1_455 S
C838 C841 1.409 . S
C839 H831 0.930 . S
C839 C840 1.355 . S
C839 C841 1.415 . S
C840 C839 1.355 . S
C840 C842 1.419 . S
C841 C836 1.425 1_455 S
C841 C838 1.409 . S
C841 C839 1.415 . S
C842 H832 0.930 . S
C842 C840 1.419 . S
C842 C843 1.362 1_455 S
C843 H833 0.930 . S
C843 C836 1.409 . S
C843 C842 1.362 1_655 S
H844 C850 0.930 . S
H845 C853 0.930 . S
H846 C854 0.930 . S
H847 C855 0.930 . S
H848 C858 0.930 . S
H849 C859 0.930 . S
C850 H844 0.930 . S
C850 C851 1.355 . S
C850 C852 1.415 1_565 S
C851 C850 1.355 . S
C851 C853 1.419 . S
C852 C850 1.415 1_545 S
C852 C857 1.425 1_545 S
C852 C859 1.409 . S
C853 H845 0.930 . S
C853 C851 1.419 . S
C853 C854 1.362 . S
C854 H846 0.930 . S
C854 C853 1.362 . S
C854 C857 1.409 . S
C855 H847 0.930 . S
C855 C856 1.355 . S
C855 C857 1.415 1_545 S
C856 C855 1.355 . S
C856 C858 1.419 . S
C857 C852 1.425 1_565 S
C857 C854 1.409 . S
C857 C855 1.415 1_565 S
C858 H848 0.930 . S
C858 C856 1.419 . S
C858 C859 1.362 . S
C859 H849 0.930 . S
C859 C852 1.409 . S
C859 C858 1.362 . S
H860 C866 0.930 . S
H861 C869 0.930 . S
H862 C870 0.930 . S
H863 C871 0.930 . S
H864 C874 0.930 . S
H865 C875 0.930 . S
C866 H860 0.930 . S
C866 C867 1.355 . S
C866 C868 1.415 . S
C867 C866 1.355 . S
C867 C869 1.419 . S
C868 C866 1.415 . S
C868 C873 1.425 . S
C868 C875 1.409 . S
C869 H861 0.930 . S
C869 C867 1.419 . S
C869 C870 1.362 . S
C870 H862 0.930 . S
C870 C869 1.362 . S
C870 C873 1.409 . S
C871 H863 0.930 . S
C871 C872 1.355 . S
C871 C873 1.415 . S
C872 C871 1.355 . S
C872 C874 1.419 . S
C873 C868 1.425 . S
C873 C870 1.409 . S
C873 C871 1.415 . S
C874 H864 0.930 . S
C874 C872 1.419 . S
C874 C875 1.362 . S
C875 H865 0.930 . S
C875 C868 1.409 . S
C875 C874 1.362 . S
H876 C882 0.930 . S
H877 C885 0.930 . S
H878 C886 0.930 . S
H879 C887 0.930 . S
H880 C890 0.930 . S
H881 C891 0.930 . S
C882 H876 0.930 . S
C882 C883 1.355 . S
C882 C884 1.415 1_455 S
C883 C882 1.355 . S
C883 C885 1.419 . S
C884 C882 1.415 1_655 S
C884 C889 1.425 1_655 S
C884 C891 1.409 . S
C885 H877 0.930 . S
C885 C883 1.419 . S
C885 C886 1.362 . S
C886 H878 0.930 . S
C886 C885 1.362 . S
C886 C889 1.409 . S
C887 H879 0.930 . S
C887 C888 1.355 . S
C887 C889 1.415 1_655 S
C888 C887 1.355 . S
C888 C890 1.419 . S
C889 C884 1.425 1_455 S
C889 C886 1.409 . S
C889 C887 1.415 1_455 S
C890 H880 0.930 . S
C890 C888 1.419 . S
C890 C891 1.362 . S
C891 H881 0.930 . S
C891 C884 1.409 . S
C891 C890 1.362 . S
H892 C898 0.930 . S
H893 C901 0.930 1_554 S
H894 C902 0.930 . S
H895 C903 0.930 . S
H896 C906 0.930 1_556 S
H897 C907 0.930 . S
C898 H892 0.930 . S
C898 C899 1.355 . S
C898 C900 1.415 1_545 S
C899 C898 1.355 . S
C899 C901 1.419 . S
C900 C898 1.415 1_565 S
C900 C905 1.425 1_566 S
C900 C907 1.409 . S
C901 H893 0.930 1_556 S
C901 C899 1.419 . S
C901 C902 1.362 1_556 S
C902 H894 0.930 . S
C902 C901 1.362 1_554 S
C902 C905 1.409 . S
C903 H895 0.930 . S
C903 C904 1.355 . S
C903 C905 1.415 1_565 S
C904 C903 1.355 . S
C904 C906 1.419 . S
C905 C900 1.425 1_544 S
C905 C902 1.409 . S
C905 C903 1.415 1_545 S
C906 H896 0.930 1_554 S
C906 C904 1.419 . S
C906 C907 1.362 1_554 S
C907 H897 0.930 . S
C907 C900 1.409 . S
C907 C906 1.362 1_556 S
H908 C914 0.930 . S
H909 C917 0.930 . S
H910 C918 0.930 . S
H911 C919 0.930 . S
H912 C922 0.930 . S
H913 C923 0.930 . S
C914 H908 0.930 . S
C914 C915 1.355 . S
C914 C916 1.415 . S
C915 C914 1.355 . S
C915 C917 1.419 . S
C916 C914 1.415 . S
C916 C921 1.425 . S
C916 C923 1.409 . S
C917 H909 0.930 . S
C917 C915 1.419 . S
C917 C918 1.362 . S
C918 H910 0.930 . S
C918 C917 1.362 . S
C918 C921 1.409 . S
C919 H911 0.930 . S
C919 C920 1.355 . S
C919 C921 1.415 . S
C920 C919 1.355 . S
C920 C922 1.419 . S
C921 C916 1.425 . S
C921 C918 1.409 . S
C921 C919 1.415 . S
C922 H912 0.930 . S
C922 C920 1.419 . S
C922 C923 1.362 . S
C923 H913 0.930 . S
C923 C916 1.409 . S
C923 C922 1.362 . S
H924 C930 0.930 . S
H925 C933 0.930 . S
H926 C934 0.930 . S
H927 C935 0.930 . S
H928 C938 0.930 . S
H929 C939 0.930 . S
C930 H924 0.930 . S
C930 C931 1.355 . S
C930 C932 1.415 . S
C931 C930 1.355 . S
C931 C933 1.419 . S
C932 C930 1.415 . S
C932 C937 1.425 . S
C932 C939 1.409 . S
C933 H925 0.930 . S
C933 C931 1.419 . S
C933 C934 1.362 . S
C934 H926 0.930 . S
C934 C933 1.362 . S
C934 C937 1.409 . S
C935 H927 0.930 . S
C935 C936 1.355 . S
C935 C937 1.415 . S
C936 C935 1.355 . S
C936 C938 1.419 . S
C937 C932 1.425 . S
C937 C934 1.409 . S
C937 C935 1.415 . S
C938 H928 0.930 . S
C938 C936 1.419 . S
C938 C939 1.362 . S
C939 H929 0.930 . S
C939 C932 1.409 . S
C939 C938 1.362 . S
H940 C946 0.930 . S
H941 C949 0.930 . S
H942 C950 0.930 . S
H943 C951 0.930 . S
H944 C954 0.930 . S
H945 C955 0.930 . S
C946 H940 0.930 . S
C946 C947 1.355 . S
C946 C948 1.415 . S
C947 C946 1.355 . S
C947 C949 1.419 . S
C948 C946 1.415 . S
C948 C953 1.425 . S
C948 C955 1.409 . S
C949 H941 0.930 . S
C949 C947 1.419 . S
C949 C950 1.362 . S
C950 H942 0.930 . S
C950 C949 1.362 . S
C950 C953 1.409 . S
C951 H943 0.930 . S
C951 C952 1.355 . S
C951 C953 1.415 . S
C952 C951 1.355 . S
C952 C954 1.419 . S
C953 C948 1.425 . S
C953 C950 1.409 . S
C953 C951 1.415 . S
C954 H944 0.930 . S
C954 C952 1.419 . S
C954 C955 1.362 . S
C955 H945 0.930 . S
C955 C948 1.409 . S
C955 C954 1.362 . S
H956 C962 0.930 . S
H957 C965 0.930 . S
H958 C966 0.930 . S
H959 C967 0.930 . S
H960 C970 0.930 . S
H961 C971 0.930 . S
C962 H956 0.930 . S
C962 C963 1.355 . S
C962 C964 1.415 . S
C963 C962 1.355 . S
C963 C965 1.419 . S
C964 C962 1.415 . S
C964 C969 1.425 . S
C964 C971 1.409 . S
C965 H957 0.930 . S
C965 C963 1.419 . S
C965 C966 1.362 . S
C966 H958 0.930 . S
C966 C965 1.362 . S
C966 C969 1.409 . S
C967 H959 0.930 . S
C967 C968 1.355 . S
C967 C969 1.415 . S
C968 C967 1.355 . S
C968 C970 1.419 . S
C969 C964 1.425 . S
C969 C966 1.409 . S
C969 C967 1.415 . S
C970 H960 0.930 . S
C970 C968 1.419 . S
C970 C971 1.362 . S
C971 H961 0.930 . S
C971 C964 1.409 . S
C971 C970 1.362 . S
H972 C978 0.930 . S
H973 C981 0.930 . S
H974 C982 0.930 . S
H975 C983 0.930 . S
H976 C986 0.930 . S
H977 C987 0.930 . S
C978 H972 0.930 . S
C978 C979 1.355 . S
C978 C980 1.415 . S
C979 C978 1.355 . S
C979 C981 1.419 . S
C980 C978 1.415 . S
C980 C985 1.425 . S
C980 C987 1.409 . S
C981 H973 0.930 . S
C981 C979 1.419 . S
C981 C982 1.362 . S
C982 H974 0.930 . S
C982 C981 1.362 . S
C982 C985 1.409 . S
C983 H975 0.930 . S
C983 C984 1.355 . S
C983 C985 1.415 . S
C984 C983 1.355 . S
C984 C986 1.419 . S
C985 C980 1.425 . S
C985 C982 1.409 . S
C985 C983 1.415 . S
C986 H976 0.930 . S
C986 C984 1.419 . S
C986 C987 1.362 . S
C987 H977 0.930 . S
C987 C980 1.409 . S
C987 C986 1.362 . S
H988 C994 0.930 . S
H989 C997 0.930 . S
H990 C998 0.930 . S
H991 C999 0.930 . S
H992 C1002 0.930 . S
H993 C1003 0.930 . S
C994 H988 0.930 . S
C994 C995 1.355 . S
C994 C996 1.415 . S
C995 C994 1.355 . S
C995 C997 1.419 . S
C996 C994 1.415 . S
C996 C1001 1.425 . S
C996 C1003 1.409 . S
C997 H989 0.930 . S
C997 C995 1.419 . S
C997 C998 1.362 . S
C998 H990 0.930 . S
C998 C997 1.362 . S
C998 C1001 1.409 . S
C999 H991 0.930 . S
C999 C1000 1.355 . S
C999 C1001 1.415 . S
C1000 C999 1.355 . S
C1000 C1002 1.419 . S
C1001 C996 1.425 . S
C1001 C998 1.409 . S
C1001 C999 1.415 . S
C1002 H992 0.930 . S
C1002 C1000 1.419 . S
C1002 C1003 1.362 . S
C1003 H993 0.930 . S
C1003 C996 1.409 . S
C1003 C1002 1.362 . S
H1004 C1010 0.930 . S
H1005 C1013 0.930 . S
H1006 C1014 0.930 . S
H1007 C1015 0.930 . S
H1008 C1018 0.930 1_556 S
H1009 C1019 0.930 . S
C1010 H1004 0.930 . S
C1010 C1011 1.355 . S
C1010 C1012 1.415 . S
C1011 C1010 1.355 . S
C1011 C1013 1.419 . S
C1012 C1010 1.415 . S
C1012 C1017 1.425 . S
C1012 C1019 1.409 . S
C1013 H1005 0.930 . S
C1013 C1011 1.419 . S
C1013 C1014 1.362 . S
C1014 H1006 0.930 . S
C1014 C1013 1.362 . S
C1014 C1017 1.409 . S
C1015 H1007 0.930 . S
C1015 C1016 1.355 . S
C1015 C1017 1.415 . S
C1016 C1015 1.355 . S
C1016 C1018 1.419 . S
C1017 C1012 1.425 . S
C1017 C1014 1.409 . S
C1017 C1015 1.415 . S
C1018 H1008 0.930 1_554 S
C1018 C1016 1.419 . S
C1018 C1019 1.362 . S
C1019 H1009 0.930 . S
C1019 C1012 1.409 . S
C1019 C1018 1.362 . S
C643 C29 1.541 . S
C648 C347 1.570 . S
C659 C82 1.574 . S
C664 C400 1.531 . S
C675 C453 1.532 . S
C680 C135 1.573 . S
C691 C188 1.534 . S
C696 C506 1.569 . S
C707 C241 1.575 . S
C712 C559 1.533 . S
C723 C612 1.531 . S
C728 C294 1.575 . S
C739 C463 1.479 . S
C744 C39 1.412 . S
C755 C92 1.461 . S
C760 C516 1.456 . S
C771 C569 1.461 1_556 S
C776 C145 1.419 . S
C787 C622 1.431 . S
C792 C198 1.480 1_554 S
C803 C251 1.431 . S
C808 C357 1.479 . S
C819 C304 1.465 . S
C824 C410 1.417 . S
C835 C605 2.125 . S
C840 C22 2.126 . S
C851 C340 2.072 . S
C856 C75 2.080 . S
C867 C128 2.073 . S
C872 C393 2.073 . S
C883 C446 2.073 . S
C888 C181 2.073 . S
C899 C499 2.086 . S
C904 C234 2.074 . S
C915 C552 2.092 . S
C920 C287 2.109 . S
C931 C38 1.870 . S
C936 C568 1.875 . S
C947 C621 1.876 . S
C952 C91 1.877 . S
C963 C144 1.856 . S
C968 C356 1.864 . S
C979 C197 1.875 . S
C984 C409 1.869 . S
C995 C250 1.865 . S
C1000 C462 1.872 . S
C1011 C303 1.847 . S
C1016 C515 1.844 . S
