# Generated by pormake.
# Topology pcb, (4)-cn, num edge types: 1
# Building blocks:
#     Node 0, Type 0, BuildingBlock: KUFVIS_clean_sbu_0, # of connection points: 4
#     Node 1, Type 0, BuildingBlock: KUFVIS_clean_sbu_0, # of connection points: 4
#     Node 2, Type 0, BuildingBlock: KUFVIS_clean_sbu_0, # of connection points: 4
#     Node 3, Type 0, BuildingBlock: KUFVIS_clean_sbu_0, # of connection points: 4
#     Node 4, Type 0, BuildingBlock: KUFVIS_clean_sbu_0, # of connection points: 4
#     Node 5, Type 0, BuildingBlock: KUFVIS_clean_sbu_0, # of connection points: 4
#     Node 6, Type 0, BuildingBlock: KUFVIS_clean_sbu_0, # of connection points: 4
#     Node 7, Type 0, BuildingBlock: KUFVIS_clean_sbu_0, # of connection points: 4
#     Node 8, Type 0, BuildingBlock: KUFVIS_clean_sbu_0, # of connection points: 4
#     Node 9, Type 0, BuildingBlock: KUFVIS_clean_sbu_0, # of connection points: 4
#     Node 10, Type 0, BuildingBlock: KUFVIS_clean_sbu_0, # of connection points: 4
#     Node 11, Type 0, BuildingBlock: KUFVIS_clean_sbu_0, # of connection points: 4
#     Node 12, Type 0, BuildingBlock: KUFVIS_clean_sbu_0, # of connection points: 4
#     Node 13, Type 0, BuildingBlock: KUFVIS_clean_sbu_0, # of connection points: 4
#     Node 14, Type 0, BuildingBlock: KUFVIS_clean_sbu_0, # of connection points: 4
#     Node 15, Type 0, BuildingBlock: KUFVIS_clean_sbu_0, # of connection points: 4
#     Edge 16, Type (0, 0), None
#     Edge 17, Type (0, 0), None
#     Edge 18, Type (0, 0), None
#     Edge 19, Type (0, 0), None
#     Edge 20, Type (0, 0), None
#     Edge 21, Type (0, 0), None
#     Edge 22, Type (0, 0), None
#     Edge 23, Type (0, 0), None
#     Edge 24, Type (0, 0), None
#     Edge 25, Type (0, 0), None
#     Edge 26, Type (0, 0), None
#     Edge 27, Type (0, 0), None
#     Edge 28, Type (0, 0), None
#     Edge 29, Type (0, 0), None
#     Edge 30, Type (0, 0), None
#     Edge 31, Type (0, 0), None
#     Edge 32, Type (0, 0), None
#     Edge 33, Type (0, 0), None
#     Edge 34, Type (0, 0), None
#     Edge 35, Type (0, 0), None
#     Edge 36, Type (0, 0), None
#     Edge 37, Type (0, 0), None
#     Edge 38, Type (0, 0), None
#     Edge 39, Type (0, 0), None
#     Edge 40, Type (0, 0), None
#     Edge 41, Type (0, 0), None
#     Edge 42, Type (0, 0), None
#     Edge 43, Type (0, 0), None
#     Edge 44, Type (0, 0), None
#     Edge 45, Type (0, 0), None
#     Edge 46, Type (0, 0), None
#     Edge 47, Type (0, 0), None
# Relax obj value: 0.285
# Max RMSD: 0.156
# Mean RMSD: 0.156
data_MOF--net-pcb--node1-KUFVIS_clean_sbu_0--edge1-none
_symmetry_space_group_name_H-M    P1
_symmetry_Int_Tables_number       1
_symmetry_cell_setting            triclinic
loop_
_symmetry_equiv_pos_as_xyz
'x, y, z'
_cell_length_a     19.213113
_cell_length_b     20.98691
_cell_length_c     20.986781
_cell_angle_alpha  90.000238
_cell_angle_beta   90.001194
_cell_angle_gamma 89.998059
loop_
_atom_site_label
_atom_site_type_symbol
_atom_site_fract_x
_atom_site_fract_y
_atom_site_fract_z
_atom_type_partial_charge
Mn0 Mn 0.08537 0.19114 0.20701 0.0
Mn1 Mn 0.04345 0.34222 0.16289 0.0
C2 C -0.01169 0.25002 0.25016 0.0
C3 C 0.08718 0.07388 0.21508 0.0
C4 C 0.17429 0.30917 0.22531 0.0
O5 O 0.11454 0.19652 0.11055 0.0
O6 O 0.05554 0.28745 0.08337 0.0
C7 C 0.90508 0.34914 0.09905 0.0
N8 N 0.9487 0.36799 0.14591 0.0
C9 C 0.86071 0.44057 0.18552 0.0
C10 C 0.81854 0.42617 0.13374 0.0
C11 C 0.84004 0.37959 0.09097 0.0
C12 C 0.927 0.41209 0.18894 0.0
H13 H 0.91773 0.30672 0.07417 0.0
C14 C 0.08531 0.23347 0.06843 0.0
O15 O 0.13893 0.10964 0.2301 0.0
O16 O 0.03415 0.10531 0.19233 0.0
N17 N 0.0284 0.38738 0.24352 0.0
C18 C 0.06155 0.38039 0.30098 0.0
C19 C 0.04045 0.41515 0.35445 0.0
C20 C -0.01922 0.4526 0.35132 0.0
C21 C 0.94214 0.45371 0.2951 0.0
C22 C -0.03188 0.42076 0.24165 0.0
H23 H 0.09988 0.34489 0.30945 0.0
O24 O 0.02224 0.20784 0.28261 0.0
O25 O 0.01625 0.26028 0.19677 0.0
O26 O 0.15675 0.25417 0.244 0.0
O27 O 0.14431 0.33475 0.17843 0.0
C28 C 0.8763 0.48266 0.29196 0.0
C29 C 0.8365 0.47783 0.2364 0.0
H30 H 0.7673 0.4472 0.12886 0.0
H31 H 0.80356 0.36606 0.05453 0.0
H32 H 0.06796 0.41005 0.39918 0.0
H33 H -0.03703 0.47745 0.3935 0.0
H34 H 0.85437 0.5065 0.33303 0.0
H35 H 0.7852 0.49929 0.23501 0.0
Mn36 Mn 0.8149 0.20699 0.19113 0.0
Mn37 Mn 0.85681 0.16288 0.34221 0.0
C38 C 0.91187 0.25014 0.24995 0.0
C39 C 0.81309 0.21508 0.07387 0.0
C40 C 0.72596 0.22529 0.30916 0.0
O41 O 0.78573 0.11053 0.19651 0.0
O42 O 0.84471 0.08336 0.28744 0.0
C43 C -0.00481 0.09907 0.34911 0.0
N44 N -0.04844 0.14591 0.36797 0.0
C45 C 0.03955 0.18554 0.44054 0.0
C46 C 0.08174 0.13377 0.42613 0.0
C47 C 0.06024 0.091 0.37955 0.0
C48 C -0.02674 0.18895 0.41206 0.0
H49 H -0.01746 0.07418 0.30669 0.0
C50 C 0.81495 0.06841 0.23346 0.0
O51 O 0.76133 0.23009 0.10963 0.0
O52 O 0.86611 0.19233 0.10529 0.0
N53 N 0.87185 0.24352 0.38735 0.0
C54 C 0.8387 0.30097 0.38036 0.0
C55 C 0.85979 0.35445 0.41511 0.0
C56 C 0.91946 0.35132 0.45257 0.0
C57 C -0.04189 0.29511 0.45369 0.0
C58 C 0.93214 0.24165 0.42074 0.0
H59 H 0.80037 0.30945 0.34485 0.0
O60 O 0.87798 0.28264 0.2078 0.0
O61 O 0.88401 0.19673 0.26025 0.0
O62 O 0.74351 0.24398 0.25415 0.0
O63 O 0.75594 0.17841 0.33474 0.0
C64 C 0.02395 0.29198 0.48263 0.0
C65 C 0.06376 0.23642 0.4778 0.0
H66 H 0.13298 0.1289 0.44715 0.0
H67 H 0.09673 0.05458 0.36601 0.0
H68 H 0.83228 0.39917 0.41002 0.0
H69 H 0.93726 0.3935 0.47742 0.0
H70 H 0.04588 0.33305 0.50647 0.0
H71 H 0.11506 0.23504 0.49925 0.0
Mn72 Mn 0.81489 0.88082 0.207 0.0
Mn73 Mn 0.85681 0.72974 0.1629 0.0
C74 C 0.91195 0.82195 0.25016 0.0
C75 C 0.8131 0.99807 0.21511 0.0
C76 C 0.72597 0.76279 0.2253 0.0
O77 O 0.78572 0.87544 0.11055 0.0
O78 O 0.84472 0.78451 0.08337 0.0
C79 C -0.00481 0.72283 0.09906 0.0
N80 N -0.04844 0.70398 0.14591 0.0
C81 C 0.03955 0.6314 0.18553 0.0
C82 C 0.08173 0.6458 0.13375 0.0
C83 C 0.06023 0.69239 0.09098 0.0
C84 C -0.02674 0.65988 0.18895 0.0
H85 H -0.01746 0.76526 0.07419 0.0
C86 C 0.81495 0.8385 0.06843 0.0
O87 O 0.76133 0.96232 0.2301 0.0
O88 O 0.86611 0.96666 0.19233 0.0
N89 N 0.87186 0.68459 0.24352 0.0
C90 C 0.83871 0.69158 0.30098 0.0
C91 C 0.85982 0.65682 0.35445 0.0
C92 C 0.91949 0.61937 0.35132 0.0
C93 C -0.04187 0.61825 0.2951 0.0
C94 C 0.93215 0.6512 0.24165 0.0
H95 H 0.80039 0.72708 0.30945 0.0
O96 O 0.87803 0.86413 0.28261 0.0
O97 O 0.88401 0.81169 0.19677 0.0
O98 O 0.74351 0.8178 0.244 0.0
O99 O 0.75595 0.73721 0.17843 0.0
C100 C 0.02397 0.5893 0.29196 0.0
C101 C 0.06377 0.59413 0.2364 0.0
H102 H 0.13297 0.62478 0.12887 0.0
H103 H 0.09671 0.70592 0.05456 0.0
H104 H 0.83232 0.66192 0.39918 0.0
H105 H 0.9373 0.59452 0.3935 0.0
H106 H 0.0459 0.56546 0.33304 0.0
H107 H 0.11506 0.57268 0.23502 0.0
Mn108 Mn 0.08537 0.86496 0.19113 0.0
Mn109 Mn 0.04347 0.90908 0.34221 0.0
C110 C -0.01161 0.82183 0.24996 0.0
C111 C 0.08717 0.85688 0.07387 0.0
C112 C 0.1743 0.84668 0.30916 0.0
O113 O 0.11455 0.96142 0.19651 0.0
O114 O 0.05556 0.98861 0.28743 0.0
C115 C 0.90509 0.9729 0.34911 0.0
N116 N 0.94872 0.92606 0.36797 0.0
C117 C 0.86074 0.88643 0.44055 0.0
C118 C 0.81855 0.9382 0.42614 0.0
C119 C 0.84004 0.98098 0.37956 0.0
C120 C 0.92703 0.88302 0.41207 0.0
H121 H 0.91773 0.99779 0.3067 0.0
C122 C 0.08532 1.00355 0.23345 0.0
O123 O 0.13893 0.84186 0.10963 0.0
O124 O 0.03415 0.87964 0.10529 0.0
N125 N 0.02843 0.82845 0.38735 0.0
C126 C 0.06158 0.77099 0.38035 0.0
C127 C 0.04049 0.71752 0.41511 0.0
C128 C -0.01917 0.72065 0.45258 0.0
C129 C 0.94218 0.77687 0.45369 0.0
C130 C -0.03185 0.83032 0.42074 0.0
H131 H 0.09989 0.76252 0.34484 0.0
O132 O 0.02228 0.78932 0.2078 0.0
O133 O 0.01626 0.87524 0.26025 0.0
O134 O 0.15676 0.82798 0.25416 0.0
O135 O 0.14433 0.89356 0.33474 0.0
C136 C 0.87634 0.78 0.48264 0.0
C137 C 0.83654 0.83556 0.47781 0.0
H138 H 0.76731 0.94308 0.44717 0.0
H139 H 0.80355 1.0174 0.36603 0.0
H140 H 0.06799 0.67279 0.41001 0.0
H141 H -0.03698 0.67847 0.47743 0.0
H142 H 0.85442 0.73892 0.50648 0.0
H143 H 0.78524 0.83694 0.49927 0.0
Mn144 Mn 0.08537 0.88082 0.86496 0.0
Mn145 Mn 0.04346 0.72974 0.90908 0.0
C146 C -0.01169 0.82195 0.82181 0.0
C147 C 0.08717 0.99808 0.85689 0.0
C148 C 0.1743 0.76279 0.84666 0.0
O149 O 0.11455 0.87544 0.96141 0.0
O150 O 0.05555 0.78452 0.9886 0.0
C151 C 0.9051 0.72283 0.97291 0.0
N152 N 0.94872 0.70397 0.92606 0.0
C153 C 0.86074 0.63139 0.88644 0.0
C154 C 0.81856 0.64579 0.93822 0.0
C155 C 0.84006 0.69237 0.981 0.0
C156 C 0.92702 0.65987 0.88303 0.0
H157 H 0.91773 0.76525 0.99779 0.0
C158 C 0.08532 0.8385 1.00354 0.0
O159 O 0.13893 0.96232 0.84186 0.0
O160 O 0.03415 0.96666 0.87964 0.0
N161 N 0.02842 0.68458 0.82845 0.0
C162 C 0.06156 0.69158 0.77099 0.0
C163 C 0.04046 0.65682 0.71752 0.0
C164 C -0.0192 0.61936 0.72065 0.0
C165 C 0.94216 0.61825 0.77687 0.0
C166 C -0.03186 0.6512 0.83033 0.0
H167 H 0.09988 0.72709 0.76251 0.0
O168 O 0.02223 0.86412 0.78936 0.0
O169 O 0.01625 0.81169 0.8752 0.0
O170 O 0.15675 0.81779 0.82796 0.0
O171 O 0.14433 0.73722 0.89355 0.0
C172 C 0.87632 0.58929 0.78001 0.0
C173 C 0.83653 0.59412 0.83557 0.0
H174 H 0.76733 0.62476 0.94311 0.0
H175 H 0.80358 0.7059 1.01743 0.0
H176 H 0.06796 0.66192 0.67279 0.0
H177 H -0.03701 0.59451 0.67847 0.0
H178 H 0.85439 0.56545 0.73894 0.0
H179 H 0.78523 0.57266 0.83696 0.0
Mn180 Mn 0.08537 0.207 0.88083 0.0
Mn181 Mn 0.04347 0.16288 0.72975 0.0
C182 C -0.01168 0.25015 0.82195 0.0
C183 C 0.08716 0.21511 0.99809 0.0
C184 C 0.1743 0.22529 0.76281 0.0
O185 O 0.11455 0.11054 0.87546 0.0
O186 O 0.05556 0.08336 0.78453 0.0
C187 C 0.9051 0.09904 0.72283 0.0
N188 N 0.94872 0.14589 0.70398 0.0
C189 C 0.86074 0.18551 0.63139 0.0
C190 C 0.81857 0.13373 0.64579 0.0
C191 C 0.84006 0.09096 0.69237 0.0
C192 C 0.92703 0.18893 0.65988 0.0
H193 H 0.91774 0.07416 0.76525 0.0
C194 C 0.08532 0.06842 0.83852 0.0
O195 O 0.13893 0.2301 0.96234 0.0
O196 O 0.03415 0.19233 0.96667 0.0
N197 N 0.02843 0.2435 0.68459 0.0
C198 C 0.06157 0.30096 0.69159 0.0
C199 C 0.04047 0.35443 0.65683 0.0
C200 C -0.01919 0.3513 0.61937 0.0
C201 C 0.94217 0.29508 0.61825 0.0
C202 C -0.03186 0.24163 0.6512 0.0
H203 H 0.09989 0.30944 0.7271 0.0
O204 O 0.02224 0.28261 0.86412 0.0
O205 O 0.01626 0.19676 0.8117 0.0
O206 O 0.15676 0.24399 0.81781 0.0
O207 O 0.14433 0.17841 0.73723 0.0
C208 C 0.87633 0.29194 0.58929 0.0
C209 C 0.83653 0.23638 0.59412 0.0
H210 H 0.76733 0.12885 0.62475 0.0
H211 H 0.80358 0.05453 0.7059 0.0
H212 H 0.06797 0.39916 0.66192 0.0
H213 H -0.037 0.39348 0.59451 0.0
H214 H 0.8544 0.33302 0.56545 0.0
H215 H 0.78524 0.235 0.57266 0.0
Mn216 Mn 0.8149 0.19114 0.86496 0.0
Mn217 Mn 0.85681 0.34221 0.90908 0.0
C218 C 0.91188 0.24995 0.82182 0.0
C219 C 0.81308 0.07388 0.85689 0.0
C220 C 0.72597 0.30917 0.84666 0.0
O221 O 0.78571 0.19652 0.96141 0.0
O222 O 0.84471 0.28744 0.9886 0.0
C223 C -0.00481 0.3491 0.9729 0.0
N224 N -0.04845 0.36797 0.92605 0.0
C225 C 0.03954 0.44054 0.88642 0.0
C226 C 0.08173 0.42613 0.93819 0.0
C227 C 0.06024 0.37955 0.98097 0.0
C228 C -0.02675 0.41206 0.88301 0.0
H229 H -0.01746 0.30669 0.99778 0.0
C230 C 0.81494 0.23345 1.00354 0.0
O231 O 0.76133 0.10964 0.84186 0.0
O232 O 0.86611 0.1053 0.87964 0.0
N233 N 0.87185 0.38735 0.82844 0.0
C234 C 0.8387 0.38035 0.77098 0.0
C235 C 0.8598 0.4151 0.71751 0.0
C236 C 0.91946 0.45256 0.72064 0.0
C237 C -0.04189 0.45368 0.77686 0.0
C238 C 0.93213 0.42074 0.83031 0.0
H239 H 0.80039 0.34484 0.76251 0.0
O240 O 0.87799 0.20779 0.78932 0.0
O241 O 0.88401 0.26025 0.87523 0.0
O242 O 0.74352 0.25417 0.82797 0.0
O243 O 0.75594 0.33474 0.89355 0.0
C244 C 0.02395 0.48263 0.77999 0.0
C245 C 0.06375 0.4778 0.83555 0.0
H246 H 0.13297 0.44715 0.94307 0.0
H247 H 0.09673 0.36601 1.01739 0.0
H248 H 0.8323 0.41 0.67278 0.0
H249 H 0.93727 0.47742 0.67846 0.0
H250 H 0.04587 0.50647 0.73891 0.0
H251 H 0.11505 0.49925 0.83693 0.0
Mn252 Mn 0.8149 0.86496 0.88084 0.0
Mn253 Mn 0.8568 0.90908 0.72976 0.0
C254 C 0.91187 0.82182 0.82201 0.0
C255 C 0.8131 0.85685 0.99809 0.0
C256 C 0.72596 0.84668 0.76281 0.0
O257 O 0.78571 0.96142 0.87546 0.0
O258 O 0.8447 0.98861 0.78453 0.0
C259 C -0.00482 0.97289 0.72287 0.0
N260 N -0.04846 0.92606 0.704 0.0
C261 C 0.03953 0.88643 0.63142 0.0
C262 C 0.08172 0.93819 0.64584 0.0
C263 C 0.06023 0.98096 0.69243 0.0
C264 C -0.02676 0.88302 0.6599 0.0
H265 H -0.01745 0.99776 0.7653 0.0
C266 C 0.81494 1.00354 0.83852 0.0
O267 O 0.76133 0.84186 0.96233 0.0
O268 O 0.86611 0.87963 0.96668 0.0
N269 N 0.87184 0.82845 0.68461 0.0
C270 C 0.83869 0.77099 0.69162 0.0
C271 C 0.85979 0.71752 0.65686 0.0
C272 C 0.91945 0.72065 0.61939 0.0
C273 C -0.04191 0.77687 0.61827 0.0
C274 C 0.93212 0.83032 0.65123 0.0
H275 H 0.80038 0.76252 0.72712 0.0
O276 O 0.87799 0.78932 0.86417 0.0
O277 O 0.884 0.87524 0.81172 0.0
O278 O 0.74351 0.82798 0.81781 0.0
O279 O 0.75593 0.89356 0.73723 0.0
C280 C 0.02393 0.78 0.58932 0.0
C281 C 0.06373 0.83555 0.59415 0.0
H282 H 0.13296 0.94306 0.62482 0.0
H283 H 0.09673 1.01737 0.70597 0.0
H284 H 0.83229 0.67279 0.66195 0.0
H285 H 0.93725 0.67847 0.59454 0.0
H286 H 0.04586 0.73892 0.56548 0.0
H287 H 0.11503 0.83693 0.5727 0.0
Mn288 Mn 0.58537 0.69114 0.70701 0.0
Mn289 Mn 0.54345 0.84222 0.66289 0.0
C290 C 0.48831 0.75002 0.75016 0.0
C291 C 0.58717 0.57388 0.71508 0.0
C292 C 0.67429 0.80917 0.7253 0.0
O293 O 0.61454 0.69652 0.61055 0.0
O294 O 0.55554 0.78745 0.58337 0.0
C295 C 0.40508 0.84914 0.59905 0.0
N296 N 0.4487 0.86799 0.64591 0.0
C297 C 0.36071 0.94056 0.68553 0.0
C298 C 0.31854 0.92617 0.63375 0.0
C299 C 0.34004 0.87959 0.59097 0.0
C300 C 0.427 0.91209 0.68894 0.0
H301 H 0.41773 0.80672 0.57417 0.0
C302 C 0.58531 0.73347 0.56843 0.0
O303 O 0.63893 0.60964 0.7301 0.0
O304 O 0.53415 0.60531 0.69233 0.0
N305 N 0.5284 0.88738 0.74352 0.0
C306 C 0.56156 0.88039 0.80097 0.0
C307 C 0.54045 0.91515 0.85445 0.0
C308 C 0.48078 0.9526 0.85132 0.0
C309 C 0.44214 0.95371 0.7951 0.0
C310 C 0.46812 0.92076 0.74165 0.0
H311 H 0.59988 0.84489 0.80945 0.0
O312 O 0.52224 0.70784 0.78261 0.0
O313 O 0.51625 0.76028 0.69677 0.0
O314 O 0.65675 0.75417 0.744 0.0
O315 O 0.64431 0.83476 0.67843 0.0
C316 C 0.3763 0.98266 0.79196 0.0
C317 C 0.3365 0.97783 0.7364 0.0
H318 H 0.2673 0.9472 0.62886 0.0
H319 H 0.30356 0.86606 0.55453 0.0
H320 H 0.56796 0.91006 0.89918 0.0
H321 H 0.46297 0.97745 0.8935 0.0
H322 H 0.35437 1.0065 0.83303 0.0
H323 H 0.2852 0.99929 0.73501 0.0
Mn324 Mn 0.3149 0.70699 0.69113 0.0
Mn325 Mn 0.35681 0.66288 0.84221 0.0
C326 C 0.41187 0.75014 0.74995 0.0
C327 C 0.31309 0.71508 0.57387 0.0
C328 C 0.22596 0.72528 0.80916 0.0
O329 O 0.28573 0.61053 0.69651 0.0
O330 O 0.34471 0.58336 0.78744 0.0
C331 C 0.49519 0.59907 0.84911 0.0
N332 N 0.45156 0.64591 0.86797 0.0
C333 C 0.53955 0.68555 0.94054 0.0
C334 C 0.58174 0.63378 0.92613 0.0
C335 C 0.56024 0.591 0.87955 0.0
C336 C 0.47326 0.68895 0.91206 0.0
H337 H 0.48254 0.57418 0.80669 0.0
C338 C 0.31495 0.56841 0.73346 0.0
O339 O 0.26133 0.73009 0.60963 0.0
O340 O 0.36611 0.69233 0.60529 0.0
N341 N 0.37185 0.74351 0.88735 0.0
C342 C 0.33869 0.80097 0.88036 0.0
C343 C 0.35979 0.85445 0.91512 0.0
C344 C 0.41946 0.85132 0.95257 0.0
C345 C 0.45811 0.79511 0.95369 0.0
C346 C 0.43214 0.74165 0.92074 0.0
H347 H 0.30037 0.80944 0.84486 0.0
O348 O 0.37798 0.78264 0.7078 0.0
O349 O 0.38401 0.69673 0.76025 0.0
O350 O 0.24351 0.74398 0.75415 0.0
O351 O 0.25594 0.67841 0.83475 0.0
C352 C 0.52395 0.79198 0.98263 0.0
C353 C 0.56376 0.73642 0.9778 0.0
H354 H 0.63298 0.6289 0.94715 0.0
H355 H 0.59673 0.55458 0.86601 0.0
H356 H 0.33228 0.89917 0.91002 0.0
H357 H 0.43726 0.8935 0.97742 0.0
H358 H 0.54588 0.83305 1.00647 0.0
H359 H 0.61506 0.73504 0.99925 0.0
Mn360 Mn 0.3149 0.38082 0.70701 0.0
Mn361 Mn 0.35682 0.22974 0.6629 0.0
C362 C 0.41195 0.32195 0.75016 0.0
C363 C 0.3131 0.49807 0.71511 0.0
C364 C 0.22597 0.26279 0.7253 0.0
O365 O 0.28572 0.37544 0.61055 0.0
O366 O 0.34472 0.28451 0.58337 0.0
C367 C 0.49519 0.22283 0.59906 0.0
N368 N 0.45156 0.20398 0.64591 0.0
C369 C 0.53955 0.1314 0.68553 0.0
C370 C 0.58173 0.1458 0.63376 0.0
C371 C 0.56023 0.19239 0.59098 0.0
C372 C 0.47326 0.15988 0.68895 0.0
H373 H 0.48254 0.26526 0.57419 0.0
C374 C 0.31495 0.3385 0.56843 0.0
O375 O 0.26133 0.46232 0.7301 0.0
O376 O 0.36612 0.46666 0.69233 0.0
N377 N 0.37186 0.18458 0.74352 0.0
C378 C 0.33871 0.19158 0.80098 0.0
C379 C 0.35982 0.15682 0.85445 0.0
C380 C 0.41949 0.11937 0.85132 0.0
C381 C 0.45813 0.11825 0.7951 0.0
C382 C 0.43215 0.1512 0.74165 0.0
H383 H 0.30039 0.22708 0.80945 0.0
O384 O 0.37803 0.36412 0.78261 0.0
O385 O 0.38401 0.31169 0.69677 0.0
O386 O 0.24351 0.3178 0.744 0.0
O387 O 0.25595 0.23721 0.67843 0.0
C388 C 0.52397 0.0893 0.79197 0.0
C389 C 0.56377 0.09413 0.73641 0.0
H390 H 0.63297 0.12478 0.62888 0.0
H391 H 0.59671 0.20592 0.55456 0.0
H392 H 0.33232 0.16192 0.89918 0.0
H393 H 0.4373 0.09452 0.8935 0.0
H394 H 0.5459 0.06547 0.83304 0.0
H395 H 0.61506 0.07268 0.73502 0.0
Mn396 Mn 0.58537 0.36496 0.69113 0.0
Mn397 Mn 0.54347 0.40908 0.84221 0.0
C398 C 0.48839 0.32183 0.74996 0.0
C399 C 0.58717 0.35688 0.57387 0.0
C400 C 0.67431 0.34668 0.80916 0.0
O401 O 0.61455 0.46142 0.69651 0.0
O402 O 0.55556 0.48861 0.78744 0.0
C403 C 0.40509 0.4729 0.84911 0.0
N404 N 0.44872 0.42606 0.86797 0.0
C405 C 0.36074 0.38643 0.94055 0.0
C406 C 0.31855 0.4382 0.92614 0.0
C407 C 0.34004 0.48097 0.87956 0.0
C408 C 0.42703 0.38302 0.91207 0.0
H409 H 0.41773 0.49779 0.8067 0.0
C410 C 0.58532 0.50355 0.73345 0.0
O411 O 0.63893 0.34186 0.60963 0.0
O412 O 0.53415 0.37963 0.60529 0.0
N413 N 0.52843 0.32845 0.88735 0.0
C414 C 0.56158 0.271 0.88035 0.0
C415 C 0.54049 0.21752 0.91511 0.0
C416 C 0.48083 0.22065 0.95258 0.0
C417 C 0.44218 0.27687 0.95369 0.0
C418 C 0.46815 0.33032 0.92074 0.0
H419 H 0.59989 0.26252 0.84485 0.0
O420 O 0.52228 0.28932 0.7078 0.0
O421 O 0.51626 0.37524 0.76025 0.0
O422 O 0.65676 0.32798 0.75416 0.0
O423 O 0.64433 0.39356 0.83474 0.0
C424 C 0.37634 0.28 0.98264 0.0
C425 C 0.33653 0.33555 0.97781 0.0
H426 H 0.26731 0.44308 0.94717 0.0
H427 H 0.30355 0.5174 0.86603 0.0
H428 H 0.568 0.1728 0.91002 0.0
H429 H 0.46303 0.17847 0.97743 0.0
H430 H 0.35442 0.23892 1.00648 0.0
H431 H 0.28524 0.33693 0.99927 0.0
Mn432 Mn 0.58537 0.38082 0.36496 0.0
Mn433 Mn 0.54346 0.22974 0.40908 0.0
C434 C 0.48831 0.32194 0.32181 0.0
C435 C 0.58717 0.49808 0.35689 0.0
C436 C 0.6743 0.26279 0.34666 0.0
O437 O 0.61455 0.37544 0.46141 0.0
O438 O 0.55555 0.28452 0.4886 0.0
C439 C 0.4051 0.22283 0.47291 0.0
N440 N 0.44872 0.20397 0.42606 0.0
C441 C 0.36074 0.13139 0.38644 0.0
C442 C 0.31856 0.14579 0.43822 0.0
C443 C 0.34006 0.19237 0.481 0.0
C444 C 0.42702 0.15987 0.38303 0.0
H445 H 0.41773 0.26525 0.49779 0.0
C446 C 0.58532 0.3385 0.50354 0.0
O447 O 0.63893 0.46232 0.34186 0.0
O448 O 0.53415 0.46666 0.37964 0.0
N449 N 0.52842 0.18458 0.32845 0.0
C450 C 0.56157 0.19158 0.27099 0.0
C451 C 0.54046 0.15682 0.21752 0.0
C452 C 0.4808 0.11936 0.22065 0.0
C453 C 0.44216 0.11825 0.27687 0.0
C454 C 0.46814 0.1512 0.33032 0.0
H455 H 0.59988 0.22708 0.26251 0.0
O456 O 0.52223 0.36412 0.28935 0.0
O457 O 0.51625 0.31169 0.3752 0.0
O458 O 0.65675 0.31779 0.32796 0.0
O459 O 0.64433 0.23721 0.39354 0.0
C460 C 0.37632 0.08929 0.28001 0.0
C461 C 0.33653 0.09412 0.33557 0.0
H462 H 0.26732 0.12476 0.4431 0.0
H463 H 0.30357 0.2059 0.51743 0.0
H464 H 0.56796 0.16192 0.17279 0.0
H465 H 0.46299 0.09451 0.17847 0.0
H466 H 0.35439 0.06545 0.23894 0.0
H467 H 0.28523 0.07267 0.33696 0.0
Mn468 Mn 0.58537 0.707 0.38083 0.0
Mn469 Mn 0.54347 0.66288 0.22975 0.0
C470 C 0.48832 0.75015 0.32195 0.0
C471 C 0.58716 0.71511 0.49809 0.0
C472 C 0.67431 0.72528 0.26281 0.0
O473 O 0.61454 0.61054 0.37546 0.0
O474 O 0.55556 0.58336 0.28453 0.0
C475 C 0.4051 0.59904 0.22283 0.0
N476 N 0.44872 0.64589 0.20398 0.0
C477 C 0.36074 0.68551 0.13139 0.0
C478 C 0.31857 0.63374 0.14579 0.0
C479 C 0.34006 0.59096 0.19237 0.0
C480 C 0.42703 0.68893 0.15988 0.0
H481 H 0.41774 0.57416 0.26525 0.0
C482 C 0.58531 0.56842 0.33852 0.0
O483 O 0.63893 0.7301 0.46234 0.0
O484 O 0.53415 0.69233 0.46667 0.0
N485 N 0.52843 0.7435 0.18459 0.0
C486 C 0.56157 0.80096 0.19159 0.0
C487 C 0.54047 0.85443 0.15682 0.0
C488 C 0.48081 0.8513 0.11937 0.0
C489 C 0.44217 0.79508 0.11825 0.0
C490 C 0.46814 0.74163 0.1512 0.0
H491 H 0.59989 0.80943 0.22709 0.0
O492 O 0.52224 0.78261 0.36412 0.0
O493 O 0.51626 0.69676 0.3117 0.0
O494 O 0.65676 0.74399 0.31781 0.0
O495 O 0.64433 0.67841 0.23723 0.0
C496 C 0.37633 0.79195 0.0893 0.0
C497 C 0.33653 0.73639 0.09412 0.0
H498 H 0.26733 0.62885 0.12476 0.0
H499 H 0.30358 0.55453 0.2059 0.0
H500 H 0.56798 0.89916 0.16192 0.0
H501 H 0.463 0.89348 0.09451 0.0
H502 H 0.3544 0.83302 0.06546 0.0
H503 H 0.28524 0.735 0.07266 0.0
Mn504 Mn 0.3149 0.69114 0.36496 0.0
Mn505 Mn 0.35681 0.84221 0.40908 0.0
C506 C 0.41188 0.74995 0.32182 0.0
C507 C 0.31309 0.57388 0.35689 0.0
C508 C 0.22597 0.80917 0.34667 0.0
O509 O 0.28571 0.69652 0.46141 0.0
O510 O 0.34471 0.78744 0.4886 0.0
C511 C 0.49519 0.8491 0.4729 0.0
N512 N 0.45155 0.86797 0.42605 0.0
C513 C 0.53954 0.94054 0.38642 0.0
C514 C 0.58173 0.92613 0.43819 0.0
C515 C 0.56024 0.87955 0.48096 0.0
C516 C 0.47325 0.91206 0.38301 0.0
H517 H 0.48254 0.80669 0.49778 0.0
C518 C 0.31494 0.73345 0.50354 0.0
O519 O 0.26133 0.60964 0.34186 0.0
O520 O 0.36611 0.6053 0.37964 0.0
N521 N 0.37185 0.88735 0.32844 0.0
C522 C 0.3387 0.88035 0.27099 0.0
C523 C 0.3598 0.91511 0.21751 0.0
C524 C 0.41946 0.95257 0.22064 0.0
C525 C 0.45811 0.95368 0.27686 0.0
C526 C 0.43213 0.92074 0.33031 0.0
H527 H 0.30039 0.84485 0.26251 0.0
O528 O 0.37799 0.7078 0.28932 0.0
O529 O 0.38401 0.76025 0.37523 0.0
O530 O 0.24352 0.75416 0.32797 0.0
O531 O 0.25594 0.83475 0.39355 0.0
C532 C 0.52395 0.98263 0.27999 0.0
C533 C 0.56375 0.9778 0.33554 0.0
H534 H 0.63297 0.94715 0.44307 0.0
H535 H 0.59673 0.86601 0.51739 0.0
H536 H 0.33229 0.91001 0.17278 0.0
H537 H 0.43727 0.97742 0.17846 0.0
H538 H 0.54587 1.00647 0.23891 0.0
H539 H 0.61505 0.99925 0.33693 0.0
Mn540 Mn 0.3149 0.36496 0.38084 0.0
Mn541 Mn 0.3568 0.40908 0.22976 0.0
C542 C 0.41187 0.32182 0.32201 0.0
C543 C 0.3131 0.35685 0.49809 0.0
C544 C 0.22596 0.34668 0.26281 0.0
O545 O 0.28571 0.46142 0.37546 0.0
O546 O 0.3447 0.48861 0.28453 0.0
C547 C 0.49518 0.47289 0.22287 0.0
N548 N 0.45154 0.42606 0.204 0.0
C549 C 0.53953 0.38642 0.13143 0.0
C550 C 0.58172 0.43819 0.14584 0.0
C551 C 0.56023 0.48095 0.19243 0.0
C552 C 0.47324 0.38302 0.1599 0.0
H553 H 0.48254 0.49776 0.2653 0.0
C554 C 0.31494 0.50354 0.33852 0.0
O555 O 0.26133 0.34186 0.46233 0.0
O556 O 0.36612 0.37963 0.46668 0.0
N557 N 0.37184 0.32845 0.18461 0.0
C558 C 0.33869 0.271 0.19161 0.0
C559 C 0.35979 0.21752 0.15685 0.0
C560 C 0.41945 0.22065 0.11939 0.0
C561 C 0.45809 0.27686 0.11827 0.0
C562 C 0.43212 0.33032 0.15123 0.0
H563 H 0.30038 0.26252 0.22712 0.0
O564 O 0.37799 0.28932 0.36417 0.0
O565 O 0.384 0.37524 0.31172 0.0
O566 O 0.24351 0.32798 0.31781 0.0
O567 O 0.25593 0.39356 0.23723 0.0
C568 C 0.52393 0.27999 0.08932 0.0
C569 C 0.56373 0.33555 0.09416 0.0
H570 H 0.63296 0.44306 0.12482 0.0
H571 H 0.59673 0.51737 0.20597 0.0
H572 H 0.33228 0.1728 0.16195 0.0
H573 H 0.43725 0.17847 0.09454 0.0
H574 H 0.54586 0.23892 0.06548 0.0
H575 H 0.61503 0.33693 0.0727 0.0
loop_
_geom_bond_atom_site_label_1
_geom_bond_atom_site_label_2
_geom_bond_distance
_geom_bond_site_symmetry_2
_ccdc_geom_bond_type
Mn0 O5 2.095 . S
Mn0 O15 2.162 . S
Mn0 O16 2.297 . S
Mn0 O24 2.385 . S
Mn0 O25 2.209 . S
Mn0 O26 2.094 . S
Mn1 O6 2.121 . S
Mn1 N8 2.257 . S
Mn1 N17 2.282 . S
Mn1 O25 2.215 . S
Mn1 O27 2.117 . S
C2 O24 1.234 . S
C2 O25 1.283 . S
C3 O15 1.281 . S
C3 O16 1.236 . S
C4 O26 1.240 . S
C4 O27 1.264 . S
O5 Mn0 2.095 . S
O5 C14 1.250 . S
O6 Mn1 2.121 . S
O6 C14 1.258 . S
C7 N8 1.326 1_556 S
C7 C11 1.460 1_455 S
C7 H13 0.929 . S
N8 Mn1 2.257 . S
N8 C7 1.326 1_554 S
N8 C12 1.362 1_455 S
C9 C10 1.270 . S
C9 C12 1.431 . S
C9 C29 1.449 . S
C10 C9 1.270 . S
C10 C11 1.471 1_554 S
C10 H30 0.925 1_554 S
C11 C7 1.460 1_655 S
C11 C10 1.471 1_556 S
C11 H31 0.930 . S
C12 N8 1.362 1_655 S
C12 C9 1.431 . S
C12 C22 1.476 . S
H13 C7 0.929 . S
C14 O5 1.250 . S
C14 O6 1.258 . S
O15 Mn0 2.162 . S
O15 C3 1.281 . S
O16 Mn0 2.297 . S
O16 C3 1.236 . S
N17 Mn1 2.282 . S
N17 C18 1.328 . S
N17 C22 1.318 1_455 S
C18 N17 1.328 . S
C18 C19 1.457 1_455 S
C18 H23 0.929 . S
C19 C18 1.457 1_655 S
C19 C20 1.291 . S
C19 H32 0.931 . S
C20 C19 1.291 . S
C20 C21 1.373 . S
C20 H33 0.929 . S
C21 C20 1.373 . S
C21 C22 1.396 . S
C21 C28 1.403 . S
C22 C12 1.476 . S
C22 N17 1.318 1_655 S
C22 C21 1.396 . S
H23 C18 0.929 . S
O24 Mn0 2.385 . S
O24 C2 1.234 . S
O25 Mn0 2.209 . S
O25 Mn1 2.215 . S
O25 C2 1.283 . S
O26 Mn0 2.094 . S
O26 C4 1.240 . S
O27 Mn1 2.117 . S
O27 C4 1.264 . S
C28 C21 1.403 . S
C28 C29 1.399 . S
C28 H34 0.929 . S
C29 C9 1.449 . S
C29 C28 1.399 . S
C29 H35 0.930 . S
H30 C10 0.925 1_556 S
H31 C11 0.930 . S
H32 C19 0.931 . S
H33 C20 0.929 . S
H34 C28 0.929 . S
H35 C29 0.930 . S
Mn36 O41 2.095 . S
Mn36 O51 2.162 . S
Mn36 O52 2.297 . S
Mn36 O60 2.385 . S
Mn36 O61 2.209 . S
Mn36 O62 2.094 . S
Mn37 O42 2.121 . S
Mn37 N44 2.257 . S
Mn37 N53 2.282 . S
Mn37 O61 2.215 . S
Mn37 O63 2.117 . S
C38 O60 1.234 . S
C38 O61 1.283 . S
C39 O51 1.281 . S
C39 O52 1.236 . S
C40 O62 1.240 . S
C40 O63 1.264 . S
O41 Mn36 2.095 . S
O41 C50 1.250 . S
O42 Mn37 2.121 . S
O42 C50 1.258 . S
C43 N44 1.326 1_565 S
C43 C47 1.460 1_655 S
C43 H49 0.929 . S
N44 Mn37 2.257 . S
N44 C43 1.326 1_545 S
N44 C48 1.362 1_655 S
C45 C46 1.270 . S
C45 C48 1.431 . S
C45 C65 1.449 . S
C46 C45 1.270 . S
C46 C47 1.471 1_545 S
C46 H66 0.925 1_545 S
C47 C43 1.460 1_455 S
C47 C46 1.471 1_565 S
C47 H67 0.930 . S
C48 N44 1.362 1_455 S
C48 C45 1.431 . S
C48 C58 1.476 . S
H49 C43 0.929 . S
C50 O41 1.250 . S
C50 O42 1.258 . S
O51 Mn36 2.162 . S
O51 C39 1.281 . S
O52 Mn36 2.297 . S
O52 C39 1.236 . S
N53 Mn37 2.282 . S
N53 C54 1.328 . S
N53 C58 1.318 1_655 S
C54 N53 1.328 . S
C54 C55 1.457 1_655 S
C54 H59 0.929 . S
C55 C54 1.457 1_455 S
C55 C56 1.291 . S
C55 H68 0.931 . S
C56 C55 1.291 . S
C56 C57 1.373 . S
C56 H69 0.929 . S
C57 C56 1.373 . S
C57 C58 1.396 . S
C57 C64 1.403 . S
C58 C48 1.476 . S
C58 N53 1.318 1_455 S
C58 C57 1.396 . S
H59 C54 0.929 . S
O60 Mn36 2.385 . S
O60 C38 1.234 . S
O61 Mn36 2.209 . S
O61 Mn37 2.215 . S
O61 C38 1.283 . S
O62 Mn36 2.094 . S
O62 C40 1.240 . S
O63 Mn37 2.117 . S
O63 C40 1.264 . S
C64 C57 1.403 . S
C64 C65 1.399 . S
C64 H70 0.929 . S
C65 C45 1.449 . S
C65 C64 1.399 . S
C65 H71 0.930 . S
H66 C46 0.925 1_565 S
H67 C47 0.930 . S
H68 C55 0.931 . S
H69 C56 0.929 . S
H70 C64 0.929 . S
H71 C65 0.930 . S
Mn72 O77 2.095 . S
Mn72 O87 2.162 . S
Mn72 O88 2.297 . S
Mn72 O96 2.385 . S
Mn72 O97 2.209 . S
Mn72 O98 2.094 . S
Mn73 O78 2.121 . S
Mn73 N80 2.257 . S
Mn73 N89 2.282 . S
Mn73 O97 2.215 . S
Mn73 O99 2.117 . S
C74 O96 1.234 . S
C74 O97 1.283 . S
C75 O87 1.281 . S
C75 O88 1.236 . S
C76 O98 1.240 . S
C76 O99 1.264 . S
O77 Mn72 2.095 . S
O77 C86 1.250 . S
O78 Mn73 2.121 . S
O78 C86 1.258 . S
C79 N80 1.326 1_556 S
C79 C83 1.460 1_655 S
C79 H85 0.929 . S
N80 Mn73 2.257 . S
N80 C79 1.326 1_554 S
N80 C84 1.362 1_655 S
C81 C82 1.270 . S
C81 C84 1.431 . S
C81 C101 1.449 . S
C82 C81 1.270 . S
C82 C83 1.471 1_554 S
C82 H102 0.925 1_554 S
C83 C79 1.460 1_455 S
C83 C82 1.471 1_556 S
C83 H103 0.930 . S
C84 N80 1.362 1_455 S
C84 C81 1.431 . S
C84 C94 1.476 . S
H85 C79 0.929 . S
C86 O77 1.250 . S
C86 O78 1.258 . S
O87 Mn72 2.162 . S
O87 C75 1.281 . S
O88 Mn72 2.297 . S
O88 C75 1.236 . S
N89 Mn73 2.282 . S
N89 C90 1.328 . S
N89 C94 1.318 1_655 S
C90 N89 1.328 . S
C90 C91 1.457 1_655 S
C90 H95 0.929 . S
C91 C90 1.457 1_455 S
C91 C92 1.291 . S
C91 H104 0.931 . S
C92 C91 1.291 . S
C92 C93 1.373 . S
C92 H105 0.929 . S
C93 C92 1.373 . S
C93 C94 1.396 . S
C93 C100 1.403 . S
C94 C84 1.476 . S
C94 N89 1.318 1_455 S
C94 C93 1.396 . S
H95 C90 0.929 . S
O96 Mn72 2.385 . S
O96 C74 1.234 . S
O97 Mn72 2.209 . S
O97 Mn73 2.215 . S
O97 C74 1.283 . S
O98 Mn72 2.094 . S
O98 C76 1.240 . S
O99 Mn73 2.117 . S
O99 C76 1.264 . S
C100 C93 1.403 . S
C100 C101 1.399 . S
C100 H106 0.929 . S
C101 C81 1.449 . S
C101 C100 1.399 . S
C101 H107 0.930 . S
H102 C82 0.925 1_556 S
H103 C83 0.930 . S
H104 C91 0.931 . S
H105 C92 0.929 . S
H106 C100 0.929 . S
H107 C101 0.930 . S
Mn108 O113 2.095 . S
Mn108 O123 2.162 . S
Mn108 O124 2.297 . S
Mn108 O132 2.385 . S
Mn108 O133 2.209 . S
Mn108 O134 2.094 . S
Mn109 O114 2.121 . S
Mn109 N116 2.257 . S
Mn109 N125 2.282 . S
Mn109 O133 2.215 . S
Mn109 O135 2.117 . S
C110 O132 1.234 . S
C110 O133 1.283 . S
C111 O123 1.281 . S
C111 O124 1.236 . S
C112 O134 1.240 . S
C112 O135 1.264 . S
O113 Mn108 2.095 . S
O113 C122 1.250 . S
O114 Mn109 2.121 . S
O114 C122 1.258 . S
C115 N116 1.326 1_545 S
C115 C119 1.460 1_455 S
C115 H121 0.929 . S
N116 Mn109 2.257 . S
N116 C115 1.326 1_565 S
N116 C120 1.362 1_455 S
C117 C118 1.270 . S
C117 C120 1.431 . S
C117 C137 1.449 . S
C118 C117 1.270 . S
C118 C119 1.471 1_565 S
C118 H138 0.925 1_565 S
C119 C115 1.460 1_655 S
C119 C118 1.471 1_545 S
C119 H139 0.930 . S
C120 N116 1.362 1_655 S
C120 C117 1.431 . S
C120 C130 1.476 . S
H121 C115 0.929 . S
C122 O113 1.250 . S
C122 O114 1.258 . S
O123 Mn108 2.162 . S
O123 C111 1.281 . S
O124 Mn108 2.297 . S
O124 C111 1.236 . S
N125 Mn109 2.282 . S
N125 C126 1.328 . S
N125 C130 1.318 1_455 S
C126 N125 1.328 . S
C126 C127 1.457 1_455 S
C126 H131 0.929 . S
C127 C126 1.457 1_655 S
C127 C128 1.291 . S
C127 H140 0.931 . S
C128 C127 1.291 . S
C128 C129 1.373 . S
C128 H141 0.929 . S
C129 C128 1.373 . S
C129 C130 1.396 . S
C129 C136 1.403 . S
C130 C120 1.476 . S
C130 N125 1.318 1_655 S
C130 C129 1.396 . S
H131 C126 0.929 . S
O132 Mn108 2.385 . S
O132 C110 1.234 . S
O133 Mn108 2.209 . S
O133 Mn109 2.215 . S
O133 C110 1.283 . S
O134 Mn108 2.094 . S
O134 C112 1.240 . S
O135 Mn109 2.117 . S
O135 C112 1.264 . S
C136 C129 1.403 . S
C136 C137 1.399 . S
C136 H142 0.929 . S
C137 C117 1.449 . S
C137 C136 1.399 . S
C137 H143 0.930 . S
H138 C118 0.925 1_545 S
H139 C119 0.930 . S
H140 C127 0.931 . S
H141 C128 0.929 . S
H142 C136 0.929 . S
H143 C137 0.930 . S
Mn144 O149 2.095 . S
Mn144 O159 2.162 . S
Mn144 O160 2.297 . S
Mn144 O168 2.385 . S
Mn144 O169 2.209 . S
Mn144 O170 2.094 . S
Mn145 O150 2.121 . S
Mn145 N152 2.257 . S
Mn145 N161 2.282 . S
Mn145 O169 2.215 . S
Mn145 O171 2.117 . S
C146 O168 1.234 . S
C146 O169 1.283 . S
C147 O159 1.281 . S
C147 O160 1.236 . S
C148 O170 1.240 . S
C148 O171 1.264 . S
O149 Mn144 2.095 . S
O149 C158 1.250 . S
O150 Mn145 2.121 . S
O150 C158 1.258 . S
C151 N152 1.326 1_554 S
C151 C155 1.460 1_455 S
C151 H157 0.929 . S
N152 Mn145 2.257 . S
N152 C151 1.326 1_556 S
N152 C156 1.362 1_455 S
C153 C154 1.270 . S
C153 C156 1.431 . S
C153 C173 1.449 . S
C154 C153 1.270 . S
C154 C155 1.471 1_556 S
C154 H174 0.925 1_556 S
C155 C151 1.460 1_655 S
C155 C154 1.471 1_554 S
C155 H175 0.930 . S
C156 N152 1.362 1_655 S
C156 C153 1.431 . S
C156 C166 1.476 . S
H157 C151 0.929 . S
C158 O149 1.250 . S
C158 O150 1.258 . S
O159 Mn144 2.162 . S
O159 C147 1.281 . S
O160 Mn144 2.297 . S
O160 C147 1.236 . S
N161 Mn145 2.282 . S
N161 C162 1.328 . S
N161 C166 1.318 1_455 S
C162 N161 1.328 . S
C162 C163 1.457 1_455 S
C162 H167 0.929 . S
C163 C162 1.457 1_655 S
C163 C164 1.291 . S
C163 H176 0.931 . S
C164 C163 1.291 . S
C164 C165 1.373 . S
C164 H177 0.929 . S
C165 C164 1.373 . S
C165 C166 1.396 . S
C165 C172 1.403 . S
C166 C156 1.476 . S
C166 N161 1.318 1_655 S
C166 C165 1.396 . S
H167 C162 0.929 . S
O168 Mn144 2.385 . S
O168 C146 1.234 . S
O169 Mn144 2.209 . S
O169 Mn145 2.215 . S
O169 C146 1.283 . S
O170 Mn144 2.094 . S
O170 C148 1.240 . S
O171 Mn145 2.117 . S
O171 C148 1.264 . S
C172 C165 1.403 . S
C172 C173 1.399 . S
C172 H178 0.929 . S
C173 C153 1.449 . S
C173 C172 1.399 . S
C173 H179 0.930 . S
H174 C154 0.925 1_554 S
H175 C155 0.930 . S
H176 C163 0.931 . S
H177 C164 0.929 . S
H178 C172 0.929 . S
H179 C173 0.930 . S
Mn180 O185 2.095 . S
Mn180 O195 2.162 . S
Mn180 O196 2.297 . S
Mn180 O204 2.385 . S
Mn180 O205 2.209 . S
Mn180 O206 2.094 . S
Mn181 O186 2.121 . S
Mn181 N188 2.257 . S
Mn181 N197 2.282 . S
Mn181 O205 2.215 . S
Mn181 O207 2.117 . S
C182 O204 1.234 . S
C182 O205 1.283 . S
C183 O195 1.281 . S
C183 O196 1.236 . S
C184 O206 1.240 . S
C184 O207 1.264 . S
O185 Mn180 2.095 . S
O185 C194 1.250 . S
O186 Mn181 2.121 . S
O186 C194 1.258 . S
C187 N188 1.326 1_565 S
C187 C191 1.460 1_455 S
C187 H193 0.929 . S
N188 Mn181 2.257 . S
N188 C187 1.326 1_545 S
N188 C192 1.362 1_455 S
C189 C190 1.270 . S
C189 C192 1.431 . S
C189 C209 1.449 . S
C190 C189 1.270 . S
C190 C191 1.471 1_545 S
C190 H210 0.925 1_545 S
C191 C187 1.460 1_655 S
C191 C190 1.471 1_565 S
C191 H211 0.930 . S
C192 N188 1.362 1_655 S
C192 C189 1.431 . S
C192 C202 1.476 . S
H193 C187 0.929 . S
C194 O185 1.250 . S
C194 O186 1.258 . S
O195 Mn180 2.162 . S
O195 C183 1.281 . S
O196 Mn180 2.297 . S
O196 C183 1.236 . S
N197 Mn181 2.282 . S
N197 C198 1.328 . S
N197 C202 1.318 1_455 S
C198 N197 1.328 . S
C198 C199 1.457 1_455 S
C198 H203 0.929 . S
C199 C198 1.457 1_655 S
C199 C200 1.291 . S
C199 H212 0.931 . S
C200 C199 1.291 . S
C200 C201 1.373 . S
C200 H213 0.929 . S
C201 C200 1.373 . S
C201 C202 1.396 . S
C201 C208 1.403 . S
C202 C192 1.476 . S
C202 N197 1.318 1_655 S
C202 C201 1.396 . S
H203 C198 0.929 . S
O204 Mn180 2.385 . S
O204 C182 1.234 . S
O205 Mn180 2.209 . S
O205 Mn181 2.215 . S
O205 C182 1.283 . S
O206 Mn180 2.094 . S
O206 C184 1.240 . S
O207 Mn181 2.117 . S
O207 C184 1.264 . S
C208 C201 1.403 . S
C208 C209 1.399 . S
C208 H214 0.929 . S
C209 C189 1.449 . S
C209 C208 1.399 . S
C209 H215 0.930 . S
H210 C190 0.925 1_565 S
H211 C191 0.930 . S
H212 C199 0.931 . S
H213 C200 0.929 . S
H214 C208 0.929 . S
H215 C209 0.930 . S
Mn216 O221 2.095 . S
Mn216 O231 2.162 . S
Mn216 O232 2.297 . S
Mn216 O240 2.385 . S
Mn216 O241 2.209 . S
Mn216 O242 2.094 . S
Mn217 O222 2.121 . S
Mn217 N224 2.257 . S
Mn217 N233 2.282 . S
Mn217 O241 2.215 . S
Mn217 O243 2.117 . S
C218 O240 1.234 . S
C218 O241 1.283 . S
C219 O231 1.281 . S
C219 O232 1.236 . S
C220 O242 1.240 . S
C220 O243 1.264 . S
O221 Mn216 2.095 . S
O221 C230 1.250 . S
O222 Mn217 2.121 . S
O222 C230 1.258 . S
C223 N224 1.326 1_554 S
C223 C227 1.460 1_655 S
C223 H229 0.929 . S
N224 Mn217 2.257 . S
N224 C223 1.326 1_556 S
N224 C228 1.362 1_655 S
C225 C226 1.270 . S
C225 C228 1.431 . S
C225 C245 1.449 . S
C226 C225 1.270 . S
C226 C227 1.471 1_556 S
C226 H246 0.925 1_556 S
C227 C223 1.460 1_455 S
C227 C226 1.471 1_554 S
C227 H247 0.930 . S
C228 N224 1.362 1_455 S
C228 C225 1.431 . S
C228 C238 1.476 . S
H229 C223 0.929 . S
C230 O221 1.250 . S
C230 O222 1.258 . S
O231 Mn216 2.162 . S
O231 C219 1.281 . S
O232 Mn216 2.297 . S
O232 C219 1.236 . S
N233 Mn217 2.282 . S
N233 C234 1.328 . S
N233 C238 1.318 1_655 S
C234 N233 1.328 . S
C234 C235 1.457 1_655 S
C234 H239 0.929 . S
C235 C234 1.457 1_455 S
C235 C236 1.291 . S
C235 H248 0.931 . S
C236 C235 1.291 . S
C236 C237 1.373 . S
C236 H249 0.929 . S
C237 C236 1.373 . S
C237 C238 1.396 . S
C237 C244 1.403 . S
C238 C228 1.476 . S
C238 N233 1.318 1_455 S
C238 C237 1.396 . S
H239 C234 0.929 . S
O240 Mn216 2.385 . S
O240 C218 1.234 . S
O241 Mn216 2.209 . S
O241 Mn217 2.215 . S
O241 C218 1.283 . S
O242 Mn216 2.094 . S
O242 C220 1.240 . S
O243 Mn217 2.117 . S
O243 C220 1.264 . S
C244 C237 1.403 . S
C244 C245 1.399 . S
C244 H250 0.929 . S
C245 C225 1.449 . S
C245 C244 1.399 . S
C245 H251 0.930 . S
H246 C226 0.925 1_554 S
H247 C227 0.930 . S
H248 C235 0.931 . S
H249 C236 0.929 . S
H250 C244 0.929 . S
H251 C245 0.930 . S
Mn252 O257 2.095 . S
Mn252 O267 2.162 . S
Mn252 O268 2.297 . S
Mn252 O276 2.385 . S
Mn252 O277 2.209 . S
Mn252 O278 2.094 . S
Mn253 O258 2.121 . S
Mn253 N260 2.257 . S
Mn253 N269 2.282 . S
Mn253 O277 2.215 . S
Mn253 O279 2.117 . S
C254 O276 1.234 . S
C254 O277 1.283 . S
C255 O267 1.281 . S
C255 O268 1.236 . S
C256 O278 1.240 . S
C256 O279 1.264 . S
O257 Mn252 2.095 . S
O257 C266 1.250 . S
O258 Mn253 2.121 . S
O258 C266 1.258 . S
C259 N260 1.326 1_545 S
C259 C263 1.460 1_655 S
C259 H265 0.929 . S
N260 Mn253 2.257 . S
N260 C259 1.326 1_565 S
N260 C264 1.362 1_655 S
C261 C262 1.270 . S
C261 C264 1.431 . S
C261 C281 1.449 . S
C262 C261 1.270 . S
C262 C263 1.471 1_565 S
C262 H282 0.925 1_565 S
C263 C259 1.460 1_455 S
C263 C262 1.471 1_545 S
C263 H283 0.930 . S
C264 N260 1.362 1_455 S
C264 C261 1.431 . S
C264 C274 1.476 . S
H265 C259 0.929 . S
C266 O257 1.250 . S
C266 O258 1.258 . S
O267 Mn252 2.162 . S
O267 C255 1.281 . S
O268 Mn252 2.297 . S
O268 C255 1.236 . S
N269 Mn253 2.282 . S
N269 C270 1.328 . S
N269 C274 1.318 1_655 S
C270 N269 1.328 . S
C270 C271 1.457 1_655 S
C270 H275 0.929 . S
C271 C270 1.457 1_455 S
C271 C272 1.291 . S
C271 H284 0.931 . S
C272 C271 1.291 . S
C272 C273 1.373 . S
C272 H285 0.929 . S
C273 C272 1.373 . S
C273 C274 1.396 . S
C273 C280 1.403 . S
C274 C264 1.476 . S
C274 N269 1.318 1_455 S
C274 C273 1.396 . S
H275 C270 0.929 . S
O276 Mn252 2.385 . S
O276 C254 1.234 . S
O277 Mn252 2.209 . S
O277 Mn253 2.215 . S
O277 C254 1.283 . S
O278 Mn252 2.094 . S
O278 C256 1.240 . S
O279 Mn253 2.117 . S
O279 C256 1.264 . S
C280 C273 1.403 . S
C280 C281 1.399 . S
C280 H286 0.929 . S
C281 C261 1.449 . S
C281 C280 1.399 . S
C281 H287 0.930 . S
H282 C262 0.925 1_545 S
H283 C263 0.930 . S
H284 C271 0.931 . S
H285 C272 0.929 . S
H286 C280 0.929 . S
H287 C281 0.930 . S
Mn288 O293 2.095 . S
Mn288 O303 2.162 . S
Mn288 O304 2.297 . S
Mn288 O312 2.385 . S
Mn288 O313 2.209 . S
Mn288 O314 2.094 . S
Mn289 O294 2.121 . S
Mn289 N296 2.257 . S
Mn289 N305 2.282 . S
Mn289 O313 2.215 . S
Mn289 O315 2.117 . S
C290 O312 1.234 . S
C290 O313 1.283 . S
C291 O303 1.281 . S
C291 O304 1.236 . S
C292 O314 1.240 . S
C292 O315 1.264 . S
O293 Mn288 2.095 . S
O293 C302 1.250 . S
O294 Mn289 2.121 . S
O294 C302 1.258 . S
C295 N296 1.326 . S
C295 C299 1.460 . S
C295 H301 0.929 . S
N296 Mn289 2.257 . S
N296 C295 1.326 . S
N296 C300 1.362 . S
C297 C298 1.258 . S
C297 C300 1.431 . S
C297 C317 1.449 . S
C298 C297 1.258 . S
C298 C299 1.477 . S
C298 H318 0.931 . S
C299 C295 1.460 . S
C299 C298 1.477 . S
C299 H319 0.930 . S
C300 N296 1.362 . S
C300 C297 1.431 . S
C300 C310 1.476 . S
H301 C295 0.929 . S
C302 O293 1.250 . S
C302 O294 1.258 . S
O303 Mn288 2.162 . S
O303 C291 1.281 . S
O304 Mn288 2.297 . S
O304 C291 1.236 . S
N305 Mn289 2.282 . S
N305 C306 1.328 . S
N305 C310 1.318 . S
C306 N305 1.328 . S
C306 C307 1.457 . S
C306 H311 0.929 . S
C307 C306 1.457 . S
C307 C308 1.291 . S
C307 H320 0.931 . S
C308 C307 1.291 . S
C308 C309 1.373 . S
C308 H321 0.929 . S
C309 C308 1.373 . S
C309 C310 1.396 . S
C309 C316 1.403 . S
C310 C300 1.476 . S
C310 N305 1.318 . S
C310 C309 1.396 . S
H311 C306 0.929 . S
O312 Mn288 2.385 . S
O312 C290 1.234 . S
O313 Mn288 2.209 . S
O313 Mn289 2.215 . S
O313 C290 1.283 . S
O314 Mn288 2.094 . S
O314 C292 1.240 . S
O315 Mn289 2.117 . S
O315 C292 1.264 . S
C316 C309 1.403 . S
C316 C317 1.399 . S
C316 H322 0.929 . S
C317 C297 1.449 . S
C317 C316 1.399 . S
C317 H323 0.930 . S
H318 C298 0.931 . S
H319 C299 0.930 . S
H320 C307 0.931 . S
H321 C308 0.929 . S
H322 C316 0.929 . S
H323 C317 0.930 . S
Mn324 O329 2.095 . S
Mn324 O339 2.162 . S
Mn324 O340 2.297 . S
Mn324 O348 2.385 . S
Mn324 O349 2.209 . S
Mn324 O350 2.094 . S
Mn325 O330 2.121 . S
Mn325 N332 2.257 . S
Mn325 N341 2.282 . S
Mn325 O349 2.215 . S
Mn325 O351 2.117 . S
C326 O348 1.234 . S
C326 O349 1.283 . S
C327 O339 1.281 . S
C327 O340 1.236 . S
C328 O350 1.240 . S
C328 O351 1.264 . S
O329 Mn324 2.095 . S
O329 C338 1.250 . S
O330 Mn325 2.121 . S
O330 C338 1.258 . S
C331 N332 1.326 . S
C331 C335 1.460 . S
C331 H337 0.929 . S
N332 Mn325 2.257 . S
N332 C331 1.326 . S
N332 C336 1.362 . S
C333 C334 1.258 . S
C333 C336 1.431 . S
C333 C353 1.449 . S
C334 C333 1.258 . S
C334 C335 1.477 . S
C334 H354 0.931 . S
C335 C331 1.460 . S
C335 C334 1.477 . S
C335 H355 0.930 . S
C336 N332 1.362 . S
C336 C333 1.431 . S
C336 C346 1.476 . S
H337 C331 0.929 . S
C338 O329 1.250 . S
C338 O330 1.258 . S
O339 Mn324 2.162 . S
O339 C327 1.281 . S
O340 Mn324 2.297 . S
O340 C327 1.236 . S
N341 Mn325 2.282 . S
N341 C342 1.328 . S
N341 C346 1.318 . S
C342 N341 1.328 . S
C342 C343 1.457 . S
C342 H347 0.929 . S
C343 C342 1.457 . S
C343 C344 1.291 . S
C343 H356 0.931 . S
C344 C343 1.291 . S
C344 C345 1.373 . S
C344 H357 0.929 . S
C345 C344 1.373 . S
C345 C346 1.396 . S
C345 C352 1.403 . S
C346 C336 1.476 . S
C346 N341 1.318 . S
C346 C345 1.396 . S
H347 C342 0.929 . S
O348 Mn324 2.385 . S
O348 C326 1.234 . S
O349 Mn324 2.209 . S
O349 Mn325 2.215 . S
O349 C326 1.283 . S
O350 Mn324 2.094 . S
O350 C328 1.240 . S
O351 Mn325 2.117 . S
O351 C328 1.264 . S
C352 C345 1.403 . S
C352 C353 1.399 . S
C352 H358 0.929 . S
C353 C333 1.449 . S
C353 C352 1.399 . S
C353 H359 0.930 . S
H354 C334 0.931 . S
H355 C335 0.930 . S
H356 C343 0.931 . S
H357 C344 0.929 . S
H358 C352 0.929 . S
H359 C353 0.930 . S
Mn360 O365 2.095 . S
Mn360 O375 2.162 . S
Mn360 O376 2.297 . S
Mn360 O384 2.385 . S
Mn360 O385 2.209 . S
Mn360 O386 2.094 . S
Mn361 O366 2.121 . S
Mn361 N368 2.257 . S
Mn361 N377 2.282 . S
Mn361 O385 2.215 . S
Mn361 O387 2.117 . S
C362 O384 1.234 . S
C362 O385 1.283 . S
C363 O375 1.281 . S
C363 O376 1.236 . S
C364 O386 1.240 . S
C364 O387 1.264 . S
O365 Mn360 2.095 . S
O365 C374 1.250 . S
O366 Mn361 2.121 . S
O366 C374 1.258 . S
C367 N368 1.326 . S
C367 C371 1.460 . S
C367 H373 0.929 . S
N368 Mn361 2.257 . S
N368 C367 1.326 . S
N368 C372 1.362 . S
C369 C370 1.258 . S
C369 C372 1.431 . S
C369 C389 1.449 . S
C370 C369 1.258 . S
C370 C371 1.477 . S
C370 H390 0.931 . S
C371 C367 1.460 . S
C371 C370 1.477 . S
C371 H391 0.930 . S
C372 N368 1.362 . S
C372 C369 1.431 . S
C372 C382 1.476 . S
H373 C367 0.929 . S
C374 O365 1.250 . S
C374 O366 1.258 . S
O375 Mn360 2.162 . S
O375 C363 1.281 . S
O376 Mn360 2.297 . S
O376 C363 1.236 . S
N377 Mn361 2.282 . S
N377 C378 1.328 . S
N377 C382 1.318 . S
C378 N377 1.328 . S
C378 C379 1.457 . S
C378 H383 0.929 . S
C379 C378 1.457 . S
C379 C380 1.291 . S
C379 H392 0.931 . S
C380 C379 1.291 . S
C380 C381 1.373 . S
C380 H393 0.929 . S
C381 C380 1.373 . S
C381 C382 1.396 . S
C381 C388 1.403 . S
C382 C372 1.476 . S
C382 N377 1.318 . S
C382 C381 1.396 . S
H383 C378 0.929 . S
O384 Mn360 2.385 . S
O384 C362 1.234 . S
O385 Mn360 2.209 . S
O385 Mn361 2.215 . S
O385 C362 1.283 . S
O386 Mn360 2.094 . S
O386 C364 1.240 . S
O387 Mn361 2.117 . S
O387 C364 1.264 . S
C388 C381 1.403 . S
C388 C389 1.399 . S
C388 H394 0.929 . S
C389 C369 1.449 . S
C389 C388 1.399 . S
C389 H395 0.930 . S
H390 C370 0.931 . S
H391 C371 0.930 . S
H392 C379 0.931 . S
H393 C380 0.929 . S
H394 C388 0.929 . S
H395 C389 0.930 . S
Mn396 O401 2.095 . S
Mn396 O411 2.162 . S
Mn396 O412 2.297 . S
Mn396 O420 2.385 . S
Mn396 O421 2.209 . S
Mn396 O422 2.094 . S
Mn397 O402 2.121 . S
Mn397 N404 2.257 . S
Mn397 N413 2.282 . S
Mn397 O421 2.215 . S
Mn397 O423 2.117 . S
C398 O420 1.234 . S
C398 O421 1.283 . S
C399 O411 1.281 . S
C399 O412 1.236 . S
C400 O422 1.240 . S
C400 O423 1.264 . S
O401 Mn396 2.095 . S
O401 C410 1.250 . S
O402 Mn397 2.121 . S
O402 C410 1.258 . S
C403 N404 1.326 . S
C403 C407 1.460 . S
C403 H409 0.929 . S
N404 Mn397 2.257 . S
N404 C403 1.326 . S
N404 C408 1.362 . S
C405 C406 1.258 . S
C405 C408 1.431 . S
C405 C425 1.449 . S
C406 C405 1.258 . S
C406 C407 1.477 . S
C406 H426 0.931 . S
C407 C403 1.460 . S
C407 C406 1.477 . S
C407 H427 0.930 . S
C408 N404 1.362 . S
C408 C405 1.431 . S
C408 C418 1.476 . S
H409 C403 0.929 . S
C410 O401 1.250 . S
C410 O402 1.258 . S
O411 Mn396 2.162 . S
O411 C399 1.281 . S
O412 Mn396 2.297 . S
O412 C399 1.236 . S
N413 Mn397 2.282 . S
N413 C414 1.328 . S
N413 C418 1.318 . S
C414 N413 1.328 . S
C414 C415 1.457 . S
C414 H419 0.929 . S
C415 C414 1.457 . S
C415 C416 1.291 . S
C415 H428 0.931 . S
C416 C415 1.291 . S
C416 C417 1.373 . S
C416 H429 0.929 . S
C417 C416 1.373 . S
C417 C418 1.396 . S
C417 C424 1.403 . S
C418 C408 1.476 . S
C418 N413 1.318 . S
C418 C417 1.396 . S
H419 C414 0.929 . S
O420 Mn396 2.385 . S
O420 C398 1.234 . S
O421 Mn396 2.209 . S
O421 Mn397 2.215 . S
O421 C398 1.283 . S
O422 Mn396 2.094 . S
O422 C400 1.240 . S
O423 Mn397 2.117 . S
O423 C400 1.264 . S
C424 C417 1.403 . S
C424 C425 1.399 . S
C424 H430 0.929 . S
C425 C405 1.449 . S
C425 C424 1.399 . S
C425 H431 0.930 . S
H426 C406 0.931 . S
H427 C407 0.930 . S
H428 C415 0.931 . S
H429 C416 0.929 . S
H430 C424 0.929 . S
H431 C425 0.930 . S
Mn432 O437 2.095 . S
Mn432 O447 2.162 . S
Mn432 O448 2.297 . S
Mn432 O456 2.385 . S
Mn432 O457 2.209 . S
Mn432 O458 2.094 . S
Mn433 O438 2.121 . S
Mn433 N440 2.257 . S
Mn433 N449 2.282 . S
Mn433 O457 2.215 . S
Mn433 O459 2.117 . S
C434 O456 1.234 . S
C434 O457 1.283 . S
C435 O447 1.281 . S
C435 O448 1.236 . S
C436 O458 1.240 . S
C436 O459 1.264 . S
O437 Mn432 2.095 . S
O437 C446 1.250 . S
O438 Mn433 2.121 . S
O438 C446 1.258 . S
C439 N440 1.326 . S
C439 C443 1.460 . S
C439 H445 0.929 . S
N440 Mn433 2.257 . S
N440 C439 1.326 . S
N440 C444 1.362 . S
C441 C442 1.258 . S
C441 C444 1.431 . S
C441 C461 1.449 . S
C442 C441 1.258 . S
C442 C443 1.477 . S
C442 H462 0.931 . S
C443 C439 1.460 . S
C443 C442 1.477 . S
C443 H463 0.930 . S
C444 N440 1.362 . S
C444 C441 1.431 . S
C444 C454 1.476 . S
H445 C439 0.929 . S
C446 O437 1.250 . S
C446 O438 1.258 . S
O447 Mn432 2.162 . S
O447 C435 1.281 . S
O448 Mn432 2.297 . S
O448 C435 1.236 . S
N449 Mn433 2.282 . S
N449 C450 1.328 . S
N449 C454 1.318 . S
C450 N449 1.328 . S
C450 C451 1.457 . S
C450 H455 0.929 . S
C451 C450 1.457 . S
C451 C452 1.291 . S
C451 H464 0.931 . S
C452 C451 1.291 . S
C452 C453 1.373 . S
C452 H465 0.929 . S
C453 C452 1.373 . S
C453 C454 1.396 . S
C453 C460 1.403 . S
C454 C444 1.476 . S
C454 N449 1.318 . S
C454 C453 1.396 . S
H455 C450 0.929 . S
O456 Mn432 2.385 . S
O456 C434 1.234 . S
O457 Mn432 2.209 . S
O457 Mn433 2.215 . S
O457 C434 1.283 . S
O458 Mn432 2.094 . S
O458 C436 1.240 . S
O459 Mn433 2.117 . S
O459 C436 1.264 . S
C460 C453 1.403 . S
C460 C461 1.399 . S
C460 H466 0.929 . S
C461 C441 1.449 . S
C461 C460 1.399 . S
C461 H467 0.930 . S
H462 C442 0.931 . S
H463 C443 0.930 . S
H464 C451 0.931 . S
H465 C452 0.929 . S
H466 C460 0.929 . S
H467 C461 0.930 . S
Mn468 O473 2.095 . S
Mn468 O483 2.162 . S
Mn468 O484 2.297 . S
Mn468 O492 2.385 . S
Mn468 O493 2.209 . S
Mn468 O494 2.094 . S
Mn469 O474 2.121 . S
Mn469 N476 2.257 . S
Mn469 N485 2.282 . S
Mn469 O493 2.215 . S
Mn469 O495 2.117 . S
C470 O492 1.234 . S
C470 O493 1.283 . S
C471 O483 1.281 . S
C471 O484 1.236 . S
C472 O494 1.240 . S
C472 O495 1.264 . S
O473 Mn468 2.095 . S
O473 C482 1.250 . S
O474 Mn469 2.121 . S
O474 C482 1.258 . S
C475 N476 1.326 . S
C475 C479 1.460 . S
C475 H481 0.929 . S
N476 Mn469 2.257 . S
N476 C475 1.326 . S
N476 C480 1.362 . S
C477 C478 1.258 . S
C477 C480 1.431 . S
C477 C497 1.449 . S
C478 C477 1.258 . S
C478 C479 1.477 . S
C478 H498 0.931 . S
C479 C475 1.460 . S
C479 C478 1.477 . S
C479 H499 0.930 . S
C480 N476 1.362 . S
C480 C477 1.431 . S
C480 C490 1.476 . S
H481 C475 0.929 . S
C482 O473 1.250 . S
C482 O474 1.258 . S
O483 Mn468 2.162 . S
O483 C471 1.281 . S
O484 Mn468 2.297 . S
O484 C471 1.236 . S
N485 Mn469 2.282 . S
N485 C486 1.328 . S
N485 C490 1.318 . S
C486 N485 1.328 . S
C486 C487 1.457 . S
C486 H491 0.929 . S
C487 C486 1.457 . S
C487 C488 1.291 . S
C487 H500 0.931 . S
C488 C487 1.291 . S
C488 C489 1.373 . S
C488 H501 0.929 . S
C489 C488 1.373 . S
C489 C490 1.396 . S
C489 C496 1.403 . S
C490 C480 1.476 . S
C490 N485 1.318 . S
C490 C489 1.396 . S
H491 C486 0.929 . S
O492 Mn468 2.385 . S
O492 C470 1.234 . S
O493 Mn468 2.209 . S
O493 Mn469 2.215 . S
O493 C470 1.283 . S
O494 Mn468 2.094 . S
O494 C472 1.240 . S
O495 Mn469 2.117 . S
O495 C472 1.264 . S
C496 C489 1.403 . S
C496 C497 1.399 . S
C496 H502 0.929 . S
C497 C477 1.449 . S
C497 C496 1.399 . S
C497 H503 0.930 . S
H498 C478 0.931 . S
H499 C479 0.930 . S
H500 C487 0.931 . S
H501 C488 0.929 . S
H502 C496 0.929 . S
H503 C497 0.930 . S
Mn504 O509 2.095 . S
Mn504 O519 2.162 . S
Mn504 O520 2.297 . S
Mn504 O528 2.385 . S
Mn504 O529 2.209 . S
Mn504 O530 2.094 . S
Mn505 O510 2.121 . S
Mn505 N512 2.257 . S
Mn505 N521 2.282 . S
Mn505 O529 2.215 . S
Mn505 O531 2.117 . S
C506 O528 1.234 . S
C506 O529 1.283 . S
C507 O519 1.281 . S
C507 O520 1.236 . S
C508 O530 1.240 . S
C508 O531 1.264 . S
O509 Mn504 2.095 . S
O509 C518 1.250 . S
O510 Mn505 2.121 . S
O510 C518 1.258 . S
C511 N512 1.326 . S
C511 C515 1.460 . S
C511 H517 0.929 . S
N512 Mn505 2.257 . S
N512 C511 1.326 . S
N512 C516 1.362 . S
C513 C514 1.258 . S
C513 C516 1.431 . S
C513 C533 1.449 . S
C514 C513 1.258 . S
C514 C515 1.477 . S
C514 H534 0.931 . S
C515 C511 1.460 . S
C515 C514 1.477 . S
C515 H535 0.930 . S
C516 N512 1.362 . S
C516 C513 1.431 . S
C516 C526 1.476 . S
H517 C511 0.929 . S
C518 O509 1.250 . S
C518 O510 1.258 . S
O519 Mn504 2.162 . S
O519 C507 1.281 . S
O520 Mn504 2.297 . S
O520 C507 1.236 . S
N521 Mn505 2.282 . S
N521 C522 1.328 . S
N521 C526 1.318 . S
C522 N521 1.328 . S
C522 C523 1.457 . S
C522 H527 0.929 . S
C523 C522 1.457 . S
C523 C524 1.291 . S
C523 H536 0.931 . S
C524 C523 1.291 . S
C524 C525 1.373 . S
C524 H537 0.929 . S
C525 C524 1.373 . S
C525 C526 1.396 . S
C525 C532 1.403 . S
C526 C516 1.476 . S
C526 N521 1.318 . S
C526 C525 1.396 . S
H527 C522 0.929 . S
O528 Mn504 2.385 . S
O528 C506 1.234 . S
O529 Mn504 2.209 . S
O529 Mn505 2.215 . S
O529 C506 1.283 . S
O530 Mn504 2.094 . S
O530 C508 1.240 . S
O531 Mn505 2.117 . S
O531 C508 1.264 . S
C532 C525 1.403 . S
C532 C533 1.399 . S
C532 H538 0.929 . S
C533 C513 1.449 . S
C533 C532 1.399 . S
C533 H539 0.930 . S
H534 C514 0.931 . S
H535 C515 0.930 . S
H536 C523 0.931 . S
H537 C524 0.929 . S
H538 C532 0.929 . S
H539 C533 0.930 . S
Mn540 O545 2.095 . S
Mn540 O555 2.162 . S
Mn540 O556 2.297 . S
Mn540 O564 2.385 . S
Mn540 O565 2.209 . S
Mn540 O566 2.094 . S
Mn541 O546 2.121 . S
Mn541 N548 2.257 . S
Mn541 N557 2.282 . S
Mn541 O565 2.215 . S
Mn541 O567 2.117 . S
C542 O564 1.234 . S
C542 O565 1.283 . S
C543 O555 1.281 . S
C543 O556 1.236 . S
C544 O566 1.240 . S
C544 O567 1.264 . S
O545 Mn540 2.095 . S
O545 C554 1.250 . S
O546 Mn541 2.121 . S
O546 C554 1.258 . S
C547 N548 1.326 . S
C547 C551 1.460 . S
C547 H553 0.929 . S
N548 Mn541 2.257 . S
N548 C547 1.326 . S
N548 C552 1.362 . S
C549 C550 1.258 . S
C549 C552 1.431 . S
C549 C569 1.449 . S
C550 C549 1.258 . S
C550 C551 1.477 . S
C550 H570 0.931 . S
C551 C547 1.460 . S
C551 C550 1.477 . S
C551 H571 0.930 . S
C552 N548 1.362 . S
C552 C549 1.431 . S
C552 C562 1.476 . S
H553 C547 0.929 . S
C554 O545 1.250 . S
C554 O546 1.258 . S
O555 Mn540 2.162 . S
O555 C543 1.281 . S
O556 Mn540 2.297 . S
O556 C543 1.236 . S
N557 Mn541 2.282 . S
N557 C558 1.328 . S
N557 C562 1.318 . S
C558 N557 1.328 . S
C558 C559 1.457 . S
C558 H563 0.929 . S
C559 C558 1.457 . S
C559 C560 1.291 . S
C559 H572 0.931 . S
C560 C559 1.291 . S
C560 C561 1.373 . S
C560 H573 0.929 . S
C561 C560 1.373 . S
C561 C562 1.396 . S
C561 C568 1.403 . S
C562 C552 1.476 . S
C562 N557 1.318 . S
C562 C561 1.396 . S
H563 C558 0.929 . S
O564 Mn540 2.385 . S
O564 C542 1.234 . S
O565 Mn540 2.209 . S
O565 Mn541 2.215 . S
O565 C542 1.283 . S
O566 Mn540 2.094 . S
O566 C544 1.240 . S
O567 Mn541 2.117 . S
O567 C544 1.264 . S
C568 C561 1.403 . S
C568 C569 1.399 . S
C568 H574 0.929 . S
C569 C549 1.449 . S
C569 C568 1.399 . S
C569 H575 0.930 . S
H570 C550 0.931 . S
H571 C551 0.930 . S
H572 C559 0.931 . S
H573 C560 0.929 . S
H574 C568 0.929 . S
H575 C569 0.930 . S
C544 C4 1.110 . S
C436 C40 1.110 . S
C76 C472 1.110 . S
C508 C112 1.110 . S
C328 C148 1.110 . S
C184 C364 1.110 . S
C220 C400 1.110 . S
C256 C292 1.110 . S
C183 C14 1.676 1_556 S
C230 C39 1.676 1_556 S
C255 C86 1.676 1_556 S
C111 C158 1.676 1_554 S
C2 C38 1.818 1_455 S
C75 C50 1.676 1_565 S
C74 C110 1.818 1_655 S
C3 C122 1.676 1_545 S
C254 C146 1.818 1_655 S
C147 C194 1.676 1_565 S
C182 C218 1.818 1_455 S
C266 C219 1.676 1_565 S
C471 C302 1.676 . S
C327 C518 1.676 . S
C543 C374 1.676 . S
C446 C399 1.676 . S
C290 C326 1.818 . S
C338 C363 1.676 . S
C398 C362 1.818 . S
C291 C410 1.676 . S
C542 C434 1.818 . S
C435 C482 1.676 . S
C470 C506 1.818 . S
C554 C507 1.676 . S
