# Generated by pormake.
# Topology umv, (4)-cn, num edge types: 1
# Building blocks:
#     Node 0, Type 0, BuildingBlock: UXUYUI_clean_sbu_0, # of connection points: 4
#     Node 1, Type 0, BuildingBlock: UXUYUI_clean_sbu_0, # of connection points: 4
#     Node 2, Type 0, BuildingBlock: UXUYUI_clean_sbu_0, # of connection points: 4
#     Node 3, Type 0, BuildingBlock: UXUYUI_clean_sbu_0, # of connection points: 4
#     Node 4, Type 0, BuildingBlock: UXUYUI_clean_sbu_0, # of connection points: 4
#     Node 5, Type 0, BuildingBlock: UXUYUI_clean_sbu_0, # of connection points: 4
#     Node 6, Type 0, BuildingBlock: UXUYUI_clean_sbu_0, # of connection points: 4
#     Node 7, Type 0, BuildingBlock: UXUYUI_clean_sbu_0, # of connection points: 4
#     Node 8, Type 0, BuildingBlock: UXUYUI_clean_sbu_0, # of connection points: 4
#     Node 9, Type 0, BuildingBlock: UXUYUI_clean_sbu_0, # of connection points: 4
#     Node 10, Type 0, BuildingBlock: UXUYUI_clean_sbu_0, # of connection points: 4
#     Node 11, Type 0, BuildingBlock: UXUYUI_clean_sbu_0, # of connection points: 4
#     Node 12, Type 0, BuildingBlock: UXUYUI_clean_sbu_0, # of connection points: 4
#     Node 13, Type 0, BuildingBlock: UXUYUI_clean_sbu_0, # of connection points: 4
#     Node 14, Type 0, BuildingBlock: UXUYUI_clean_sbu_0, # of connection points: 4
#     Node 15, Type 0, BuildingBlock: UXUYUI_clean_sbu_0, # of connection points: 4
#     Node 16, Type 0, BuildingBlock: UXUYUI_clean_sbu_0, # of connection points: 4
#     Node 17, Type 0, BuildingBlock: UXUYUI_clean_sbu_0, # of connection points: 4
#     Node 18, Type 0, BuildingBlock: UXUYUI_clean_sbu_0, # of connection points: 4
#     Node 19, Type 0, BuildingBlock: UXUYUI_clean_sbu_0, # of connection points: 4
#     Node 20, Type 0, BuildingBlock: UXUYUI_clean_sbu_0, # of connection points: 4
#     Node 21, Type 0, BuildingBlock: UXUYUI_clean_sbu_0, # of connection points: 4
#     Node 22, Type 0, BuildingBlock: UXUYUI_clean_sbu_0, # of connection points: 4
#     Node 23, Type 0, BuildingBlock: UXUYUI_clean_sbu_0, # of connection points: 4
#     Node 24, Type 0, BuildingBlock: UXUYUI_clean_sbu_0, # of connection points: 4
#     Node 25, Type 0, BuildingBlock: UXUYUI_clean_sbu_0, # of connection points: 4
#     Node 26, Type 0, BuildingBlock: UXUYUI_clean_sbu_0, # of connection points: 4
#     Node 27, Type 0, BuildingBlock: UXUYUI_clean_sbu_0, # of connection points: 4
#     Node 28, Type 0, BuildingBlock: UXUYUI_clean_sbu_0, # of connection points: 4
#     Node 29, Type 0, BuildingBlock: UXUYUI_clean_sbu_0, # of connection points: 4
#     Node 30, Type 0, BuildingBlock: UXUYUI_clean_sbu_0, # of connection points: 4
#     Node 31, Type 0, BuildingBlock: UXUYUI_clean_sbu_0, # of connection points: 4
#     Edge 32, Type (0, 0), BuildingBlock: OJICUG_clean_linker_0, # of connection points: 2
#     Edge 33, Type (0, 0), BuildingBlock: OJICUG_clean_linker_0, # of connection points: 2
#     Edge 34, Type (0, 0), BuildingBlock: OJICUG_clean_linker_0, # of connection points: 2
#     Edge 35, Type (0, 0), BuildingBlock: OJICUG_clean_linker_0, # of connection points: 2
#     Edge 36, Type (0, 0), BuildingBlock: OJICUG_clean_linker_0, # of connection points: 2
#     Edge 37, Type (0, 0), BuildingBlock: OJICUG_clean_linker_0, # of connection points: 2
#     Edge 38, Type (0, 0), BuildingBlock: OJICUG_clean_linker_0, # of connection points: 2
#     Edge 39, Type (0, 0), BuildingBlock: OJICUG_clean_linker_0, # of connection points: 2
#     Edge 40, Type (0, 0), BuildingBlock: OJICUG_clean_linker_0, # of connection points: 2
#     Edge 41, Type (0, 0), BuildingBlock: OJICUG_clean_linker_0, # of connection points: 2
#     Edge 42, Type (0, 0), BuildingBlock: OJICUG_clean_linker_0, # of connection points: 2
#     Edge 43, Type (0, 0), BuildingBlock: OJICUG_clean_linker_0, # of connection points: 2
#     Edge 44, Type (0, 0), BuildingBlock: OJICUG_clean_linker_0, # of connection points: 2
#     Edge 45, Type (0, 0), BuildingBlock: OJICUG_clean_linker_0, # of connection points: 2
#     Edge 46, Type (0, 0), BuildingBlock: OJICUG_clean_linker_0, # of connection points: 2
#     Edge 47, Type (0, 0), BuildingBlock: OJICUG_clean_linker_0, # of connection points: 2
#     Edge 48, Type (0, 0), BuildingBlock: OJICUG_clean_linker_0, # of connection points: 2
#     Edge 49, Type (0, 0), BuildingBlock: OJICUG_clean_linker_0, # of connection points: 2
#     Edge 50, Type (0, 0), BuildingBlock: OJICUG_clean_linker_0, # of connection points: 2
#     Edge 51, Type (0, 0), BuildingBlock: OJICUG_clean_linker_0, # of connection points: 2
#     Edge 52, Type (0, 0), BuildingBlock: OJICUG_clean_linker_0, # of connection points: 2
#     Edge 53, Type (0, 0), BuildingBlock: OJICUG_clean_linker_0, # of connection points: 2
#     Edge 54, Type (0, 0), BuildingBlock: OJICUG_clean_linker_0, # of connection points: 2
#     Edge 55, Type (0, 0), BuildingBlock: OJICUG_clean_linker_0, # of connection points: 2
#     Edge 56, Type (0, 0), BuildingBlock: OJICUG_clean_linker_0, # of connection points: 2
#     Edge 57, Type (0, 0), BuildingBlock: OJICUG_clean_linker_0, # of connection points: 2
#     Edge 58, Type (0, 0), BuildingBlock: OJICUG_clean_linker_0, # of connection points: 2
#     Edge 59, Type (0, 0), BuildingBlock: OJICUG_clean_linker_0, # of connection points: 2
#     Edge 60, Type (0, 0), BuildingBlock: OJICUG_clean_linker_0, # of connection points: 2
#     Edge 61, Type (0, 0), BuildingBlock: OJICUG_clean_linker_0, # of connection points: 2
#     Edge 62, Type (0, 0), BuildingBlock: OJICUG_clean_linker_0, # of connection points: 2
#     Edge 63, Type (0, 0), BuildingBlock: OJICUG_clean_linker_0, # of connection points: 2
#     Edge 64, Type (0, 0), BuildingBlock: OJICUG_clean_linker_0, # of connection points: 2
#     Edge 65, Type (0, 0), BuildingBlock: OJICUG_clean_linker_0, # of connection points: 2
#     Edge 66, Type (0, 0), BuildingBlock: OJICUG_clean_linker_0, # of connection points: 2
#     Edge 67, Type (0, 0), BuildingBlock: OJICUG_clean_linker_0, # of connection points: 2
#     Edge 68, Type (0, 0), BuildingBlock: OJICUG_clean_linker_0, # of connection points: 2
#     Edge 69, Type (0, 0), BuildingBlock: OJICUG_clean_linker_0, # of connection points: 2
#     Edge 70, Type (0, 0), BuildingBlock: OJICUG_clean_linker_0, # of connection points: 2
#     Edge 71, Type (0, 0), BuildingBlock: OJICUG_clean_linker_0, # of connection points: 2
#     Edge 72, Type (0, 0), BuildingBlock: OJICUG_clean_linker_0, # of connection points: 2
#     Edge 73, Type (0, 0), BuildingBlock: OJICUG_clean_linker_0, # of connection points: 2
#     Edge 74, Type (0, 0), BuildingBlock: OJICUG_clean_linker_0, # of connection points: 2
#     Edge 75, Type (0, 0), BuildingBlock: OJICUG_clean_linker_0, # of connection points: 2
#     Edge 76, Type (0, 0), BuildingBlock: OJICUG_clean_linker_0, # of connection points: 2
#     Edge 77, Type (0, 0), BuildingBlock: OJICUG_clean_linker_0, # of connection points: 2
#     Edge 78, Type (0, 0), BuildingBlock: OJICUG_clean_linker_0, # of connection points: 2
#     Edge 79, Type (0, 0), BuildingBlock: OJICUG_clean_linker_0, # of connection points: 2
#     Edge 80, Type (0, 0), BuildingBlock: OJICUG_clean_linker_0, # of connection points: 2
#     Edge 81, Type (0, 0), BuildingBlock: OJICUG_clean_linker_0, # of connection points: 2
#     Edge 82, Type (0, 0), BuildingBlock: OJICUG_clean_linker_0, # of connection points: 2
#     Edge 83, Type (0, 0), BuildingBlock: OJICUG_clean_linker_0, # of connection points: 2
#     Edge 84, Type (0, 0), BuildingBlock: OJICUG_clean_linker_0, # of connection points: 2
#     Edge 85, Type (0, 0), BuildingBlock: OJICUG_clean_linker_0, # of connection points: 2
#     Edge 86, Type (0, 0), BuildingBlock: OJICUG_clean_linker_0, # of connection points: 2
#     Edge 87, Type (0, 0), BuildingBlock: OJICUG_clean_linker_0, # of connection points: 2
#     Edge 88, Type (0, 0), BuildingBlock: OJICUG_clean_linker_0, # of connection points: 2
#     Edge 89, Type (0, 0), BuildingBlock: OJICUG_clean_linker_0, # of connection points: 2
#     Edge 90, Type (0, 0), BuildingBlock: OJICUG_clean_linker_0, # of connection points: 2
#     Edge 91, Type (0, 0), BuildingBlock: OJICUG_clean_linker_0, # of connection points: 2
#     Edge 92, Type (0, 0), BuildingBlock: OJICUG_clean_linker_0, # of connection points: 2
#     Edge 93, Type (0, 0), BuildingBlock: OJICUG_clean_linker_0, # of connection points: 2
#     Edge 94, Type (0, 0), BuildingBlock: OJICUG_clean_linker_0, # of connection points: 2
#     Edge 95, Type (0, 0), BuildingBlock: OJICUG_clean_linker_0, # of connection points: 2
# Relax obj value: 0.218
# Max RMSD: 0.127
# Mean RMSD: 0.126
data_MOF--net-umv--node1-UXUYUI_clean_sbu_0--edge1-OJICUG_clean_linker_0
_symmetry_space_group_name_H-M    P1
_symmetry_Int_Tables_number       1
_symmetry_cell_setting            triclinic
loop_
_symmetry_equiv_pos_as_xyz
'x, y, z'
_cell_length_a     103.45229
_cell_length_b     28.86692
_cell_length_c     100.13777
_cell_angle_alpha  89.999477
_cell_angle_beta   89.999818
_cell_angle_gamma 89.999554
loop_
_atom_site_label
_atom_site_type_symbol
_atom_site_fract_x
_atom_site_fract_y
_atom_site_fract_z
_atom_type_partial_charge
Li0 Li 0.03086 0.13308 0.30896 0.0
Li1 Li 0.03538 0.16032 0.33154 0.0
Li2 Li 0.05247 0.11622 0.31865 0.0
Li3 Li 0.03351 0.07731 0.32823 0.0
C4 C 0.04721 0.21179 0.30619 0.0
N5 N 0.05294 0.28293 0.28865 0.0
C6 C 0.04037 0.25352 0.30677 0.0
C7 C 0.0572 0.2068 0.29689 0.0
C8 C 0.04333 0.28889 0.29776 0.0
C9 C 0.05989 0.243 0.28806 0.0
C10 C 0.00963 0.14346 0.33211 0.0
C11 C 0.99942 0.16533 0.35284 0.0
N12 N 0.98902 0.18124 0.34591 0.0
C13 C 0.99878 0.1596 0.32521 0.0
C14 C 0.00989 0.14595 0.34605 0.0
C15 C 0.98848 0.17873 0.33236 0.0
C16 C 0.02217 0.13452 0.28113 0.0
N17 N 0.02177 0.15461 0.29342 0.0
C18 C 0.00981 0.21883 0.28473 0.0
C19 C 0.0155 0.19542 0.2954 0.0
C20 C 0.01065 0.20022 0.27183 0.0
C21 C 0.01677 0.15716 0.2701 0.0
H22 H 0.02687 0.10149 0.27979 0.0
H23 H 0.01523 0.21051 0.30527 0.0
C24 C 0.04164 0.21631 0.35342 0.0
N25 N 0.03326 0.21172 0.34306 0.0
C26 C 0.04121 0.25561 0.3615 0.0
C27 C 0.02339 0.28431 0.34823 0.0
C28 C 0.02419 0.24449 0.34039 0.0
C29 C 0.0321 0.29051 0.35884 0.0
H30 H 0.04884 0.18986 0.35521 0.0
H31 H 0.01773 0.24013 0.33199 0.0
C32 C 0.04609 0.05224 0.29845 0.0
N33 N 0.0579 0.01293 0.27643 0.0
C34 C 0.04737 0.00414 0.29751 0.0
C35 C 0.05076 0.08025 0.28816 0.0
C36 C 0.05338 0.98494 0.28631 0.0
C37 C 0.05671 0.05978 0.27711 0.0
C38 C 0.05118 0.08186 0.34755 0.0
C39 C 0.06094 0.04949 0.34508 0.0
C40 C 0.04507 0.08262 0.36 0.0
C41 C 0.06431 0.01794 0.35507 0.0
C42 C 0.04869 0.05038 0.36971 0.0
N43 N 0.05815 0.01896 0.36706 0.0
C44 C 0.07682 0.15044 0.32248 0.0
C45 C 0.0774 0.08241 0.30922 0.0
C46 C 0.09025 0.15392 0.3221 0.0
N47 N 0.07069 0.11512 0.31613 0.0
C48 C 0.09089 0.08493 0.30843 0.0
C49 C 0.09745 0.12084 0.31504 0.0
H50 H 0.07121 0.17573 0.32796 0.0
H51 H 0.07239 0.05395 0.30453 0.0
C52 C 0.01903 0.02236 0.34655 0.0
N53 N 0.02867 0.02119 0.33732 0.0
C54 C 0.01733 0.98555 0.35544 0.0
C55 C 0.0349 0.94538 0.34457 0.0
C56 C 0.03639 0.98331 0.33601 0.0
C57 C 0.02551 0.94686 0.35468 0.0
H58 H 0.01304 0.05271 0.34747 0.0
H59 H 0.04425 0.98373 0.32891 0.0
O60 O 0.04444 0.1767 0.31497 0.0
O61 O 0.01985 0.12496 0.32523 0.0
O62 O 0.04046 0.07165 0.30949 0.0
O63 O 0.04746 0.11204 0.33774 0.0
H64 H 0.0328 0.25855 0.31404 0.0
H65 H 0.06291 0.17551 0.29652 0.0
H66 H 0.03801 0.32114 0.29802 0.0
H67 H 0.06754 0.23942 0.28077 0.0
H68 H 0.99957 0.16783 0.36362 0.0
H69 H 0.99825 0.15705 0.31445 0.0
H70 H 0.0182 0.13366 0.35156 0.0
H71 H 0.98005 0.19146 0.32714 0.0
H72 H 0.00522 0.252 0.28649 0.0
H73 H 0.01741 0.14134 0.26031 0.0
H74 H 0.04801 0.25881 0.36968 0.0
H75 H 0.01633 0.3106 0.34574 0.0
H76 H 0.04373 0.9818 0.30532 0.0
H77 H 0.04968 0.11737 0.28863 0.0
H78 H 0.05445 0.94777 0.28547 0.0
H79 H 0.06035 0.08115 0.26908 0.0
H80 H 0.06571 0.0482 0.33547 0.0
H81 H 0.03755 0.10755 0.3621 0.0
H82 H 0.07177 0.99244 0.35326 0.0
H83 H 0.04396 0.05028 0.37934 0.0
H84 H 0.09496 0.18224 0.32727 0.0
H85 H 0.09615 0.05843 0.30304 0.0
H86 H 0.00991 0.98779 0.36304 0.0
H87 H 0.04151 0.91639 0.34377 0.0
Li88 Li 0.19828 0.13358 0.31932 0.0
Li89 Li 0.21715 0.17179 0.32916 0.0
Li90 Li 0.22008 0.11558 0.31009 0.0
Li91 Li 0.21494 0.08921 0.33264 0.0
C92 C 0.20533 0.19533 0.2988 0.0
N93 N 0.19448 0.23166 0.27584 0.0
C94 C 0.20272 0.24275 0.29789 0.0
C95 C 0.20246 0.16649 0.28799 0.0
C96 C 0.19722 0.26043 0.28622 0.0
C97 C 0.19698 0.18546 0.27648 0.0
C98 C 0.19927 0.1686 0.34822 0.0
C99 C 0.20185 0.20076 0.37029 0.0
N100 N 0.19243 0.23227 0.36757 0.0
C101 C 0.18956 0.2011 0.34567 0.0
C102 C 0.2054 0.16813 0.36066 0.0
C103 C 0.18625 0.23303 0.35558 0.0
C104 C 0.17365 0.10622 0.32502 0.0
N105 N 0.18005 0.13525 0.31663 0.0
C106 C 0.16011 0.15959 0.30678 0.0
C107 C 0.1736 0.16192 0.30762 0.0
C108 C 0.15328 0.13025 0.31546 0.0
C109 C 0.16021 0.10333 0.32466 0.0
H110 H 0.17905 0.08544 0.33207 0.0
H111 H 0.17881 0.18521 0.30116 0.0
C112 C 0.23162 0.22641 0.34753 0.0
N113 N 0.22207 0.22787 0.3382 0.0
C114 C 0.23334 0.26325 0.35641 0.0
C115 C 0.21601 0.304 0.3453 0.0
C116 C 0.2145 0.26606 0.33676 0.0
C117 C 0.22528 0.30225 0.35553 0.0
H118 H 0.23749 0.19578 0.34854 0.0
H119 H 0.20673 0.26588 0.32955 0.0
C120 C 0.20248 0.0383 0.30731 0.0
N121 N 0.1947 0.96836 0.29022 0.0
C122 C 0.20764 0.99373 0.30856 0.0
C123 C 0.19313 0.0469 0.29754 0.0
C124 C 0.20366 0.95896 0.29977 0.0
C125 C 0.18938 0.01121 0.28895 0.0
C126 C 0.24063 0.10249 0.3333 0.0
C127 C 0.25085 0.08246 0.32622 0.0
C128 C 0.24066 0.10095 0.34726 0.0
C129 C 0.26081 0.06057 0.33321 0.0
C130 C 0.25079 0.07871 0.35389 0.0
N131 N 0.26057 0.05911 0.34679 0.0
C132 C 0.23133 0.11736 0.28331 0.0
C133 C 0.23375 0.04915 0.2962 0.0
C134 C 0.23694 0.0955 0.27225 0.0
N135 N 0.22948 0.09343 0.29486 0.0
C136 C 0.23952 0.02619 0.2855 0.0
C137 C 0.24093 0.04903 0.27323 0.0
H138 H 0.22823 0.153 0.28255 0.0
H139 H 0.23248 0.03135 0.3056 0.0
C140 C 0.20861 0.0343 0.35484 0.0
N141 N 0.21673 0.03784 0.34423 0.0
C142 C 0.20894 0.99502 0.36295 0.0
C143 C 0.22611 0.96425 0.34916 0.0
C144 C 0.2254 0.00399 0.34128 0.0
C145 C 0.21769 0.95919 0.36005 0.0
H146 H 0.20171 0.06156 0.35683 0.0
H147 H 0.23159 0.00741 0.33264 0.0
O148 O 0.21061 0.17742 0.31022 0.0
O149 O 0.20293 0.13802 0.33849 0.0
O150 O 0.20623 0.07277 0.3159 0.0
O151 O 0.23075 0.12376 0.32658 0.0
H152 H 0.20494 0.26573 0.3061 0.0
H153 H 0.20454 0.12991 0.28844 0.0
H154 H 0.19513 0.29704 0.2854 0.0
H155 H 0.19472 0.16346 0.26805 0.0
H156 H 0.2066 0.20109 0.37991 0.0
H157 H 0.18478 0.20216 0.33607 0.0
H158 H 0.21291 0.14317 0.3628 0.0
H159 H 0.17883 0.2586 0.35371 0.0
H160 H 0.15507 0.18121 0.29964 0.0
H161 H 0.15529 0.08004 0.33145 0.0
H162 H 0.24067 0.26079 0.36409 0.0
H163 H 0.2095 0.33322 0.3444 0.0
H164 H 0.2147 0.98601 0.31618 0.0
H165 H 0.1887 0.08061 0.29662 0.0
H166 H 0.20767 0.92447 0.30057 0.0
H167 H 0.1822 0.01754 0.28131 0.0
H168 H 0.25113 0.08405 0.31544 0.0
H169 H 0.2328 0.11599 0.35291 0.0
H170 H 0.26875 0.04482 0.32785 0.0
H171 H 0.25085 0.0769 0.36468 0.0
H172 H 0.23809 0.1146 0.26302 0.0
H173 H 0.24245 0.99041 0.28671 0.0
H174 H 0.20236 0.99257 0.37134 0.0
H175 H 0.23287 0.93715 0.34648 0.0
Li176 Li 0.05211 0.13492 0.93157 0.0
Li177 Li 0.03319 0.17247 0.92169 0.0
Li178 Li 0.03036 0.11618 0.94078 0.0
Li179 Li 0.03562 0.08996 0.91822 0.0
C180 C 0.04489 0.19628 0.95211 0.0
N181 N 0.0556 0.23268 0.97513 0.0
C182 C 0.04767 0.24359 0.95294 0.0
C183 C 0.04749 0.16761 0.96302 0.0
C184 C 0.05311 0.2613 0.96465 0.0
C185 C 0.05292 0.1866 0.97456 0.0
C186 C 0.05105 0.16977 0.90263 0.0
C187 C 0.04831 0.20168 0.88055 0.0
N188 N 0.05765 0.23353 0.88322 0.0
C189 C 0.06068 0.2026 0.90512 0.0
C190 C 0.04488 0.16901 0.89021 0.0
C191 C 0.06387 0.23458 0.89518 0.0
C192 C 0.07677 0.10825 0.92589 0.0
N193 N 0.07033 0.13712 0.93428 0.0
C194 C 0.09024 0.16211 0.94407 0.0
C195 C 0.07674 0.16396 0.94328 0.0
C196 C 0.09713 0.13298 0.93536 0.0
C197 C 0.09022 0.10575 0.92621 0.0
H198 H 0.0714 0.08729 0.91886 0.0
H199 H 0.07149 0.187 0.94979 0.0
C200 C 0.01862 0.22662 0.90328 0.0
N201 N 0.02814 0.22838 0.91264 0.0
C202 C 0.01683 0.26342 0.8944 0.0
C203 C 0.03403 0.30471 0.90555 0.0
C204 C 0.03561 0.26682 0.91409 0.0
C205 C 0.02479 0.30268 0.89529 0.0
H206 H 0.01283 0.1958 0.90225 0.0
H207 H 0.04336 0.26688 0.92131 0.0
C208 C 0.04839 0.03969 0.94351 0.0
N209 N 0.05683 0.97038 0.96049 0.0
C210 C 0.04378 0.99442 0.94207 0.0
C211 C 0.05753 0.04935 0.95341 0.0
C212 C 0.04808 0.95997 0.95081 0.0
C213 C 0.06162 0.01395 0.96194 0.0
C214 C 0.00988 0.10209 0.91762 0.0
C215 C 0.99985 0.08133 0.92479 0.0
C216 C 0.00975 0.10057 0.90366 0.0
C217 C 0.98994 0.05877 0.91788 0.0
C218 C 0.99969 0.07765 0.89712 0.0
N219 N 0.99008 0.05736 0.90431 0.0
C220 C 0.01851 0.11783 0.96732 0.0
C221 C 0.0173 0.04857 0.95472 0.0
C222 C 0.01281 0.09579 0.97831 0.0
N223 N 0.02098 0.09355 0.95595 0.0
C224 C 0.01156 0.02531 0.96537 0.0
C225 C 0.00949 0.04856 0.9775 0.0
H226 H 0.02123 0.15391 0.96799 0.0
H227 H 0.01894 0.03057 0.94541 0.0
C228 C 0.04196 0.03502 0.89598 0.0
N229 N 0.03393 0.03844 0.90667 0.0
C230 C 0.04165 0.99564 0.88791 0.0
C231 C 0.02468 0.96452 0.9019 0.0
C232 C 0.02538 0.00433 0.90974 0.0
C233 C 0.033 0.95961 0.89091 0.0
H234 H 0.04878 0.06247 0.8939 0.0
H235 H 0.01928 0.00762 0.91845 0.0
O236 O 0.03965 0.17835 0.94066 0.0
O237 O 0.04751 0.13913 0.91238 0.0
O238 O 0.04432 0.07386 0.93498 0.0
O239 O 0.01971 0.12402 0.92425 0.0
H240 H 0.04566 0.26645 0.94466 0.0
H241 H 0.04528 0.13112 0.96263 0.0
H242 H 0.05534 0.29782 0.96541 0.0
H243 H 0.05498 0.16472 0.98307 0.0
H244 H 0.04353 0.2018 0.87095 0.0
H245 H 0.0655 0.20388 0.91471 0.0
H246 H 0.03742 0.14378 0.88811 0.0
H247 H 0.07124 0.26041 0.89701 0.0
H248 H 0.09525 0.18393 0.95118 0.0
H249 H 0.09517 0.08255 0.91942 0.0
H250 H 0.00952 0.26072 0.88669 0.0
H251 H 0.04046 0.33413 0.90647 0.0
H252 H 0.03689 0.98592 0.93436 0.0
H253 H 0.06155 0.08367 0.95448 0.0
H254 H 0.04449 0.92494 0.94986 0.0
H255 H 0.06864 0.02109 0.96967 0.0
H256 H 0.99965 0.08284 0.93558 0.0
H257 H 0.01748 0.11613 0.89794 0.0
H258 H 0.98214 0.04245 0.92332 0.0
H259 H 0.99955 0.07583 0.88633 0.0
H260 H 0.01137 0.1152 0.98744 0.0
H261 H 0.00881 0.98938 0.96411 0.0
H262 H 0.04816 0.99328 0.87946 0.0
H263 H 0.018 0.93726 0.90466 0.0
Li264 Li 0.21481 0.16127 0.91762 0.0
Li265 Li 0.21977 0.13545 0.94025 0.0
Li266 Li 0.21661 0.0787 0.92126 0.0
Li267 Li 0.19795 0.11846 0.93105 0.0
C268 C 0.24039 0.14663 0.91698 0.0
N269 N 0.26042 0.18869 0.9033 0.0
C270 C 0.25066 0.16668 0.92397 0.0
C271 C 0.24041 0.14742 0.90302 0.0
C272 C 0.26067 0.18791 0.91688 0.0
C273 C 0.25059 0.16902 0.89629 0.0
C274 C 0.20277 0.21349 0.94305 0.0
C275 C 0.19009 0.24111 0.96166 0.0
N276 N 0.19574 0.28343 0.9605 0.0
C277 C 0.20826 0.25757 0.94189 0.0
C278 C 0.19344 0.20544 0.9529 0.0
C279 C 0.20467 0.29233 0.95086 0.0
C280 C 0.20917 0.21472 0.89491 0.0
N281 N 0.21693 0.21191 0.90581 0.0
C282 C 0.22648 0.28515 0.90079 0.0
C283 C 0.22554 0.24589 0.90883 0.0
C284 C 0.2184 0.28953 0.88959 0.0
C285 C 0.20977 0.2534 0.88658 0.0
H286 H 0.20233 0.18733 0.89283 0.0
H287 H 0.2315 0.24291 0.91766 0.0
C288 C 0.23047 0.13366 0.96723 0.0
N289 N 0.22914 0.1572 0.95554 0.0
C290 C 0.2361 0.15527 0.97832 0.0
C291 C 0.23968 0.2235 0.96486 0.0
C292 C 0.2339 0.20081 0.95412 0.0
C293 C 0.24061 0.20109 0.97725 0.0
H294 H 0.22695 0.09854 0.96806 0.0
H295 H 0.23298 0.21835 0.94463 0.0
C296 C 0.19865 0.08244 0.90226 0.0
N297 N 0.19131 0.0187 0.88312 0.0
C298 C 0.18854 0.05157 0.90483 0.0
C299 C 0.20493 0.08125 0.88991 0.0
C300 C 0.18498 0.01957 0.89503 0.0
C301 C 0.20112 0.04861 0.88039 0.0
C302 C 0.20455 0.05528 0.95136 0.0
C303 C 0.20204 0.00773 0.95191 0.0
C304 C 0.2013 0.08325 0.96225 0.0
C305 C 0.1962 0.98908 0.96329 0.0
C306 C 0.19549 0.06333 0.97345 0.0
N307 N 0.19306 0.01705 0.97373 0.0
C308 C 0.2312 0.02266 0.90337 0.0
C309 C 0.21335 0.98488 0.91341 0.0
C310 C 0.2329 0.98577 0.8945 0.0
N311 N 0.22132 0.02218 0.91233 0.0
C312 C 0.21483 0.9469 0.90488 0.0
C313 C 0.22448 0.94772 0.89502 0.0
H314 H 0.2374 0.05256 0.90265 0.0
H315 H 0.20532 0.98586 0.9203 0.0
C316 C 0.17357 0.15205 0.92709 0.0
N317 N 0.17976 0.118 0.93394 0.0
C318 C 0.16015 0.15588 0.92763 0.0
C319 C 0.15964 0.08996 0.94251 0.0
C320 C 0.17311 0.08708 0.94156 0.0
C321 C 0.15301 0.12445 0.93536 0.0
H322 H 0.17912 0.17603 0.92108 0.0
H323 H 0.17817 0.05978 0.94674 0.0
O324 O 0.23046 0.126 0.92379 0.0
O325 O 0.20615 0.17902 0.9343 0.0
O326 O 0.20253 0.11309 0.91188 0.0
O327 O 0.2101 0.07419 0.94021 0.0
H328 H 0.25096 0.16557 0.93476 0.0
H329 H 0.23253 0.13225 0.89744 0.0
H330 H 0.26865 0.20367 0.92217 0.0
H331 H 0.25065 0.17026 0.88549 0.0
H332 H 0.18294 0.23518 0.96936 0.0
H333 H 0.21529 0.26491 0.93421 0.0
H334 H 0.18873 0.1722 0.95373 0.0
H335 H 0.20896 0.32641 0.95015 0.0
H336 H 0.23314 0.31243 0.90357 0.0
H337 H 0.20347 0.25519 0.87796 0.0
H338 H 0.23685 0.13645 0.98764 0.0
H339 H 0.243 0.25881 0.96357 0.0
H340 H 0.18363 0.0518 0.91436 0.0
H341 H 0.21275 0.10494 0.88774 0.0
H342 H 0.17724 0.99525 0.89692 0.0
H343 H 0.20598 0.04699 0.87083 0.0
H344 H 0.20457 0.98538 0.94366 0.0
H345 H 0.20338 0.11986 0.96211 0.0
H346 H 0.19417 0.95236 0.96382 0.0
H347 H 0.19294 0.08467 0.98193 0.0
H348 H 0.24052 0.98747 0.8871 0.0
H349 H 0.20804 0.91841 0.90548 0.0
H350 H 0.15541 0.18318 0.92206 0.0
H351 H 0.15445 0.06474 0.94845 0.0
Li352 Li 0.96555 0.92075 0.67142 0.0
Li353 Li 0.96971 0.86744 0.68993 0.0
Li354 Li 0.96451 0.83978 0.66772 0.0
Li355 Li 0.94765 0.87907 0.68133 0.0
C356 C 0.98992 0.85442 0.66689 0.0
N357 N 0.00985 0.80956 0.65379 0.0
C358 C 0.99999 0.83426 0.67416 0.0
C359 C 0.99015 0.8526 0.65294 0.0
C360 C 0.00994 0.81154 0.66736 0.0
C361 C 0.00025 0.82951 0.64651 0.0
C362 C 0.96504 0.95959 0.69727 0.0
C363 C 0.96492 0.02023 0.71383 0.0
N364 N 0.97768 0.02813 0.71143 0.0
C365 C 0.97815 0.96835 0.69494 0.0
C366 C 0.95837 0.98576 0.70677 0.0
C367 C 0.98436 0.00314 0.70221 0.0
C368 C 0.96146 0.01455 0.66423 0.0
N369 N 0.96962 0.97802 0.6627 0.0
C370 C 0.98062 0.01661 0.64489 0.0
C371 C 0.97934 0.97902 0.65358 0.0
C372 C 0.97181 0.05359 0.64563 0.0
C373 C 0.96238 0.05286 0.65575 0.0
H374 H 0.95376 0.01272 0.67153 0.0
H375 H 0.98567 0.94954 0.65253 0.0
C376 C 0.9834 0.80289 0.70418 0.0
N377 N 0.97888 0.84689 0.70543 0.0
C378 C 0.98884 0.78004 0.71506 0.0
C379 C 0.98512 0.84841 0.72843 0.0
C380 C 0.97964 0.86997 0.71724 0.0
C381 C 0.9897 0.80256 0.72746 0.0
H382 H 0.98234 0.78491 0.69477 0.0
H383 H 0.97569 0.90447 0.71813 0.0
C384 C 0.94793 0.91595 0.65234 0.0
N385 N 0.94107 0.97967 0.63298 0.0
C386 C 0.93758 0.94614 0.65449 0.0
C387 C 0.95468 0.91777 0.64025 0.0
C388 C 0.93428 0.97817 0.64459 0.0
C389 C 0.95111 0.95036 0.63062 0.0
C390 C 0.95271 0.79686 0.69584 0.0
C391 C 0.95317 0.74851 0.69614 0.0
C392 C 0.94823 0.82121 0.70698 0.0
C393 C 0.94908 0.72521 0.70762 0.0
C394 C 0.94423 0.79664 0.71827 0.0
N395 N 0.94474 0.74955 0.71835 0.0
C396 C 0.9747 0.75361 0.65995 0.0
C397 C 0.95975 0.78682 0.64475 0.0
C398 C 0.97579 0.71409 0.65202 0.0
N399 N 0.96679 0.78884 0.65617 0.0
C400 C 0.96044 0.74782 0.63658 0.0
C401 C 0.96845 0.71069 0.64027 0.0
H402 H 0.97998 0.75592 0.66926 0.0
H403 H 0.95334 0.81498 0.64215 0.0
C404 C 0.92305 0.9159 0.68885 0.0
N405 N 0.92971 0.87721 0.68534 0.0
C406 C 0.90964 0.91395 0.69059 0.0
C407 C 0.9104 0.83193 0.68581 0.0
C408 C 0.92369 0.83571 0.68387 0.0
C409 C 0.90308 0.87155 0.68892 0.0
H410 H 0.92809 0.94854 0.68986 0.0
H411 H 0.92922 0.80553 0.68098 0.0
O412 O 0.98007 0.87665 0.67341 0.0
O413 O 0.95868 0.9258 0.69032 0.0
O414 O 0.95154 0.88527 0.66208 0.0
O415 O 0.95697 0.82018 0.6848 0.0
H416 H 0.00021 0.83652 0.68493 0.0
H417 H 0.98249 0.86816 0.64714 0.0
H418 H 0.01775 0.79562 0.67288 0.0
H419 H 0.00045 0.82738 0.63573 0.0
H420 H 0.95988 0.04071 0.72123 0.0
H421 H 0.9835 0.94863 0.68763 0.0
H422 H 0.94821 0.9794 0.70866 0.0
H423 H 0.99449 0.01028 0.70053 0.0
H424 H 0.98798 0.01545 0.63722 0.0
H425 H 0.95552 0.08094 0.65685 0.0
H426 H 0.99194 0.74446 0.71385 0.0
H427 H 0.98564 0.8673 0.73776 0.0
H428 H 0.93225 0.94533 0.66376 0.0
H429 H 0.9627 0.89465 0.63837 0.0
H430 H 0.92635 0.00199 0.64618 0.0
H431 H 0.95634 0.95244 0.62129 0.0
H432 H 0.95671 0.72924 0.68761 0.0
H433 H 0.94794 0.85869 0.70696 0.0
H434 H 0.94939 0.68777 0.708 0.0
H435 H 0.94076 0.81501 0.72697 0.0
H436 H 0.98193 0.68586 0.65527 0.0
H437 H 0.95468 0.74647 0.62756 0.0
H438 H 0.90447 0.94564 0.69278 0.0
H439 H 0.90592 0.79825 0.68472 0.0
Li440 Li 0.80267 0.868 0.68199 0.0
Li441 Li 0.78616 0.91048 0.66807 0.0
Li442 Li 0.78055 0.88264 0.69009 0.0
Li443 Li 0.78441 0.82919 0.67165 0.0
C444 C 0.79658 0.95459 0.69614 0.0
N445 N 0.80096 0.00787 0.71859 0.0
C446 C 0.79373 0.0019 0.696 0.0
C447 C 0.80169 0.93436 0.70767 0.0
C448 C 0.79601 0.02826 0.70746 0.0
C449 C 0.80383 0.9619 0.71892 0.0
C450 C 0.80219 0.83285 0.65265 0.0
C451 C 0.79894 0.80132 0.63058 0.0
N452 N 0.80842 0.76969 0.63291 0.0
C453 C 0.81199 0.80033 0.65476 0.0
C454 C 0.7957 0.83367 0.6404 0.0
C455 C 0.81497 0.76862 0.64467 0.0
C456 C 0.82656 0.82606 0.68914 0.0
N457 N 0.8205 0.86672 0.68636 0.0
C458 C 0.84046 0.90807 0.6877 0.0
C459 C 0.82711 0.90736 0.68575 0.0
C460 C 0.84706 0.8664 0.69002 0.0
C461 C 0.83996 0.82503 0.69088 0.0
H462 H 0.82103 0.79427 0.68953 0.0
H463 H 0.82205 0.93909 0.68338 0.0
C464 C 0.77611 0.99655 0.66007 0.0
N465 N 0.78436 0.96191 0.65663 0.0
C466 C 0.77522 0.03623 0.65217 0.0
C467 C 0.79145 0.00386 0.63748 0.0
C468 C 0.79195 0.9647 0.6456 0.0
C469 C 0.78308 0.04038 0.64081 0.0
H470 H 0.77037 0.9936 0.66906 0.0
H471 H 0.79858 0.93692 0.64326 0.0
C472 C 0.7842 0.78943 0.69735 0.0
N473 N 0.77087 0.7212 0.71094 0.0
C474 C 0.77086 0.78464 0.69562 0.0
C475 C 0.79077 0.75946 0.70595 0.0
C476 C 0.76429 0.74994 0.70259 0.0
C477 C 0.78385 0.7252 0.71275 0.0
C478 C 0.76044 0.89613 0.66671 0.0
C479 C 0.74988 0.91416 0.6737 0.0
C480 C 0.76066 0.89883 0.65277 0.0
C481 C 0.7399 0.93574 0.66665 0.0
C482 C 0.75051 0.92072 0.64608 0.0
N483 N 0.74043 0.93863 0.65311 0.0
C484 C 0.76584 0.94614 0.70388 0.0
C485 C 0.77151 0.8824 0.71758 0.0
C486 C 0.76039 0.96926 0.71472 0.0
N487 N 0.77131 0.9037 0.70547 0.0
C488 C 0.76606 0.90425 0.72874 0.0
C489 C 0.76053 0.94861 0.72742 0.0
H490 H 0.76621 0.96295 0.69424 0.0
H491 H 0.77624 0.84926 0.71871 0.0
C492 C 0.78781 0.73511 0.66467 0.0
N493 N 0.78002 0.77248 0.66283 0.0
C494 C 0.78684 0.69679 0.6562 0.0
C495 C 0.76923 0.73474 0.64474 0.0
C496 C 0.77057 0.77238 0.6534 0.0
C497 C 0.77771 0.6969 0.6458 0.0
H498 H 0.79531 0.73626 0.67219 0.0
H499 H 0.76454 0.80252 0.6521 0.0
O500 O 0.79403 0.92794 0.68517 0.0
O501 O 0.79887 0.86326 0.66257 0.0
O502 O 0.79092 0.82297 0.69064 0.0
O503 O 0.77032 0.87503 0.67349 0.0
H504 H 0.78971 0.01797 0.68716 0.0
H505 H 0.80382 0.89765 0.70797 0.0
H506 H 0.79381 0.06489 0.70752 0.0
H507 H 0.80772 0.94668 0.72794 0.0
H508 H 0.7939 0.8013 0.62111 0.0
H509 H 0.81711 0.7991 0.66414 0.0
H510 H 0.78816 0.85873 0.63852 0.0
H511 H 0.82245 0.743 0.64623 0.0
H512 H 0.84565 0.94053 0.68681 0.0
H513 H 0.84475 0.79225 0.69268 0.0
H514 H 0.76878 0.06394 0.65516 0.0
H515 H 0.79761 0.00574 0.62875 0.0
H516 H 0.76559 0.80738 0.68901 0.0
H517 H 0.8011 0.76269 0.70737 0.0
H518 H 0.75397 0.74587 0.70137 0.0
H519 H 0.78881 0.70179 0.71945 0.0
H520 H 0.7493 0.91107 0.68443 0.0
H521 H 0.76868 0.88477 0.64719 0.0
H522 H 0.7317 0.95 0.67195 0.0
H523 H 0.75065 0.9235 0.63531 0.0
H524 H 0.75654 0.00375 0.71322 0.0
H525 H 0.76634 0.88682 0.7383 0.0
H526 H 0.79344 0.66805 0.65752 0.0
H527 H 0.7621 0.73648 0.63683 0.0
Li528 Li 0.94788 0.86744 0.06974 0.0
Li529 Li 0.96453 0.90642 0.08342 0.0
Li530 Li 0.96972 0.88195 0.06097 0.0
Li531 Li 0.96615 0.82625 0.07914 0.0
C532 C 0.95167 0.94998 0.05571 0.0
N533 N 0.94204 0.99563 0.03361 0.0
C534 C 0.95071 0.99824 0.05571 0.0
C535 C 0.94777 0.92488 0.04447 0.0
C536 C 0.9458 0.0207 0.04444 0.0
C537 C 0.94291 0.94862 0.0334 0.0
C538 C 0.94831 0.82686 0.09815 0.0
C539 C 0.95178 0.78668 0.11899 0.0
N540 N 0.9413 0.75963 0.11645 0.0
C541 C 0.93751 0.79889 0.09582 0.0
C542 C 0.95543 0.82099 0.1099 0.0
C543 C 0.93414 0.76506 0.10518 0.0
C544 C 0.92401 0.82819 0.06122 0.0
N545 N 0.92996 0.86728 0.06565 0.0
C546 C 0.90992 0.90844 0.06574 0.0
C547 C 0.92325 0.90703 0.06786 0.0
C548 C 0.90345 0.86824 0.06161 0.0
C549 C 0.91063 0.82776 0.05926 0.0
H550 H 0.92962 0.79705 0.0596 0.0
H551 H 0.92822 0.93744 0.07152 0.0
C552 C 0.97248 0.99552 0.09061 0.0
N553 N 0.96673 0.95652 0.09533 0.0
C554 C 0.97343 0.03477 0.09867 0.0
C555 C 0.96272 0.99254 0.11636 0.0
C556 C 0.96193 0.95419 0.10794 0.0
C557 C 0.96835 0.03377 0.11169 0.0
H558 H 0.97606 0.99637 0.08047 0.0
H559 H 0.95725 0.92291 0.11135 0.0
C560 C 0.96557 0.78997 0.053 0.0
N561 N 0.97833 0.7236 0.03812 0.0
C562 C 0.97868 0.78118 0.05525 0.0
C563 C 0.95894 0.76493 0.04321 0.0
C564 C 0.98496 0.74749 0.04762 0.0
C565 C 0.96557 0.73155 0.03578 0.0
C566 C 0.98972 0.89558 0.08415 0.0
C567 C 0.99903 0.92115 0.07723 0.0
C568 C 0.99015 0.89382 0.09809 0.0
C569 C 0.0084 0.94559 0.0844 0.0
C570 C 0.99965 0.91879 0.1049 0.0
N571 N 0.0085 0.944 0.09797 0.0
C572 C 0.98232 0.9492 0.04652 0.0
C573 C 0.97982 0.88082 0.0337 0.0
C574 C 0.98757 0.97256 0.03562 0.0
N575 N 0.97854 0.90426 0.04542 0.0
C576 C 0.9851 0.90288 0.0225 0.0
C577 C 0.98892 0.94959 0.02335 0.0
H578 H 0.98097 0.96732 0.05587 0.0
H579 H 0.97641 0.84559 0.03288 0.0
C580 C 0.96219 0.73225 0.08562 0.0
N581 N 0.9706 0.76804 0.08713 0.0
C582 C 0.96324 0.69294 0.09368 0.0
C583 C 0.9822 0.72642 0.10395 0.0
C584 C 0.98075 0.76523 0.09572 0.0
C585 C 0.9731 0.69034 0.10331 0.0
H586 H 0.95418 0.73551 0.07874 0.0
H587 H 0.98729 0.79415 0.09674 0.0
O588 O 0.9567 0.92764 0.06658 0.0
O589 O 0.95194 0.85941 0.08892 0.0
O590 O 0.95914 0.82262 0.06033 0.0
O591 O 0.98038 0.87181 0.07729 0.0
H592 H 0.95376 0.01812 0.06432 0.0
H593 H 0.94854 0.88752 0.04425 0.0
H594 H 0.945 0.05806 0.04429 0.0
H595 H 0.93987 0.92968 0.02462 0.0
H596 H 0.95731 0.78143 0.12803 0.0
H597 H 0.93185 0.80288 0.08684 0.0
H598 H 0.96383 0.84213 0.1119 0.0
H599 H 0.92586 0.74299 0.10344 0.0
H600 H 0.90467 0.94009 0.06781 0.0
H601 H 0.90593 0.79612 0.05606 0.0
H602 H 0.97768 0.06598 0.09459 0.0
H603 H 0.95881 0.99008 0.12637 0.0
H604 H 0.98399 0.80005 0.06278 0.0
H605 H 0.94879 0.77132 0.04137 0.0
H606 H 0.9951 0.74035 0.04924 0.0
H607 H 0.96056 0.71196 0.02816 0.0
H608 H 0.99912 0.92182 0.06645 0.0
H609 H 0.98308 0.87405 0.10362 0.0
H610 H 0.01563 0.96569 0.07916 0.0
H611 H 0.99998 0.91817 0.1157 0.0
H612 H 0.9905 0.00835 0.03678 0.0
H613 H 0.98581 0.88404 0.01318 0.0
H614 H 0.95613 0.6656 0.09272 0.0
H615 H 0.98992 0.72598 0.11125 0.0
Li616 Li 0.78067 0.8686 0.06057 0.0
Li617 Li 0.78485 0.92112 0.07911 0.0
Li618 Li 0.80289 0.88065 0.06886 0.0
Li619 Li 0.78589 0.83957 0.08259 0.0
C620 C 0.78515 0.96142 0.05347 0.0
N621 N 0.77241 0.03112 0.03989 0.0
C622 C 0.77183 0.96749 0.05513 0.0
C623 C 0.79198 0.99085 0.04494 0.0
C624 C 0.76557 0.00292 0.04817 0.0
C625 C 0.78537 0.02587 0.03815 0.0
C626 C 0.76024 0.85671 0.08369 0.0
C627 C 0.74985 0.83217 0.10408 0.0
N628 N 0.73963 0.81632 0.09687 0.0
C629 C 0.74953 0.84082 0.07651 0.0
C630 C 0.76031 0.85297 0.09761 0.0
C631 C 0.73924 0.82028 0.08335 0.0
C632 C 0.7655 0.80685 0.04671 0.0
N633 N 0.77132 0.84868 0.04513 0.0
C634 C 0.76624 0.8484 0.02183 0.0
C635 C 0.77177 0.86984 0.03301 0.0
C636 C 0.76038 0.80456 0.02313 0.0
C637 C 0.75997 0.78412 0.03585 0.0
H638 H 0.76567 0.79012 0.05638 0.0
H639 H 0.77676 0.90249 0.03189 0.0
C640 C 0.78863 0.01513 0.08632 0.0
N641 N 0.78076 0.97791 0.08805 0.0
C642 C 0.78769 0.05328 0.09486 0.0
C643 C 0.77003 0.01535 0.10624 0.0
C644 C 0.77131 0.97797 0.09749 0.0
C645 C 0.77854 0.05312 0.10525 0.0
H646 H 0.79613 0.01402 0.0788 0.0
H647 H 0.76522 0.94796 0.09871 0.0
C648 C 0.79594 0.79469 0.05455 0.0
N649 N 0.79967 0.74061 0.03214 0.0
C650 C 0.79262 0.74778 0.05476 0.0
C651 C 0.80121 0.8141 0.04298 0.0
C652 C 0.79457 0.72102 0.04331 0.0
C653 C 0.803 0.78618 0.03174 0.0
C654 C 0.80231 0.91513 0.09832 0.0
C655 C 0.81221 0.94737 0.0964 0.0
C656 C 0.79574 0.91397 0.11052 0.0
C657 C 0.81523 0.97848 0.10663 0.0
C658 C 0.79902 0.94572 0.12049 0.0
N659 N 0.80861 0.97709 0.11835 0.0
C660 C 0.8276 0.91883 0.0625 0.0
C661 C 0.82665 0.83724 0.0648 0.0
C662 C 0.84102 0.91701 0.06088 0.0
N663 N 0.82079 0.87932 0.06468 0.0
C664 C 0.83997 0.83368 0.06291 0.0
C665 C 0.84745 0.87397 0.06125 0.0
H666 H 0.82267 0.95189 0.06249 0.0
H667 H 0.82101 0.80636 0.06663 0.0
C668 C 0.77502 0.75455 0.09052 0.0
N669 N 0.78365 0.78806 0.0939 0.0
C670 C 0.77389 0.71474 0.09833 0.0
C671 C 0.79067 0.74464 0.1128 0.0
C672 C 0.79139 0.784 0.10479 0.0
C673 C 0.78192 0.70926 0.10952 0.0
H674 H 0.76918 0.75846 0.08163 0.0
H675 H 0.79833 0.81085 0.10706 0.0
O676 O 0.79157 0.92713 0.06017 0.0
O677 O 0.77041 0.8768 0.07712 0.0
O678 O 0.79373 0.82179 0.06552 0.0
O679 O 0.79895 0.88535 0.08826 0.0
H680 H 0.76635 0.94519 0.06169 0.0
H681 H 0.8023 0.98663 0.04358 0.0
H682 H 0.75527 0.00798 0.04934 0.0
H683 H 0.79054 0.04887 0.0315 0.0
H684 H 0.74988 0.82859 0.11483 0.0
H685 H 0.74908 0.84479 0.06579 0.0
H686 H 0.76844 0.86537 0.10335 0.0
H687 H 0.73093 0.80766 0.0779 0.0
H688 H 0.76672 0.8657 0.01225 0.0
H689 H 0.75588 0.75 0.03736 0.0
H690 H 0.79432 0.08197 0.09358 0.0
H691 H 0.7629 0.01347 0.11413 0.0
H692 H 0.78847 0.73235 0.06363 0.0
H693 H 0.80372 0.85049 0.04264 0.0
H694 H 0.792 0.68469 0.0433 0.0
H695 H 0.807 0.80077 0.02269 0.0
H696 H 0.81738 0.94887 0.08704 0.0
H697 H 0.78811 0.88913 0.11225 0.0
H698 H 0.82279 0.00389 0.10521 0.0
H699 H 0.79393 0.94548 0.12993 0.0
H700 H 0.8463 0.94917 0.05982 0.0
H701 H 0.84433 0.79961 0.06295 0.0
H702 H 0.76716 0.68789 0.09539 0.0
H703 H 0.79697 0.74168 0.1214 0.0
Li704 Li 0.0306 0.63494 0.81004 0.0
Li705 Li 0.03589 0.66047 0.83265 0.0
Li706 Li 0.05242 0.61637 0.81914 0.0
Li707 Li 0.0336 0.57803 0.82899 0.0
C708 C 0.0485 0.7113 0.80725 0.0
N709 N 0.05675 0.78003 0.78999 0.0
C710 C 0.04414 0.75683 0.80881 0.0
C711 C 0.0573 0.70105 0.79707 0.0
C712 C 0.04834 0.79099 0.79993 0.0
C713 C 0.06129 0.73617 0.78841 0.0
C714 C 0.01022 0.64822 0.83326 0.0
C715 C 1.00004 0.67209 0.85382 0.0
N716 N 0.99049 0.69295 0.84669 0.0
C717 C 0.00024 0.66954 0.82614 0.0
C718 C 0.01007 0.64915 0.84722 0.0
C719 C 0.99037 0.6921 0.83311 0.0
C720 C 0.01861 0.63318 0.78362 0.0
N721 N 0.02114 0.65771 0.79492 0.0
C722 C 0.01169 0.7258 0.78542 0.0
C723 C 0.01749 0.70277 0.79609 0.0
C724 C 0.00957 0.70222 0.77337 0.0
C725 C 0.01292 0.65505 0.7726 0.0
H726 H 0.02124 0.59701 0.78302 0.0
H727 H 0.01926 0.72106 0.80532 0.0
C728 C 0.04202 0.71465 0.85513 0.0
N729 N 0.03414 0.71161 0.84432 0.0
C730 C 0.04164 0.75384 0.86328 0.0
C731 C 0.0249 0.78555 0.8491 0.0
C732 C 0.02566 0.74592 0.84119 0.0
C733 C 0.03307 0.79008 0.86021 0.0
H734 H 0.04878 0.68706 0.85726 0.0
H735 H 0.01969 0.74292 0.83238 0.0
C736 C 0.04539 0.55463 0.79865 0.0
N737 N 0.0563 0.51732 0.77585 0.0
C738 C 0.04871 0.50771 0.79821 0.0
C739 C 0.04757 0.58245 0.78745 0.0
C740 C 0.05424 0.48953 0.78661 0.0
C741 C 0.05309 0.56299 0.77603 0.0
C742 C 0.05149 0.58064 0.84803 0.0
C743 C 0.06127 0.54838 0.84552 0.0
C744 C 0.04526 0.58075 0.86042 0.0
C745 C 0.06455 0.51634 0.85541 0.0
C746 C 0.04878 0.54802 0.87003 0.0
N747 N 0.05827 0.51676 0.86735 0.0
C748 C 0.07716 0.64066 0.82551 0.0
C749 C 0.07705 0.59103 0.80666 0.0
C750 C 0.0906 0.64334 0.82518 0.0
N751 N 0.07067 0.61468 0.8164 0.0
C752 C 0.09053 0.59331 0.80583 0.0
C753 C 0.09745 0.61947 0.81525 0.0
H754 H 0.07182 0.65921 0.83312 0.0
H755 H 0.07178 0.57035 0.79955 0.0
C756 C 0.0188 0.52319 0.84704 0.0
N757 N 0.02857 0.52187 0.83796 0.0
C758 C 0.01692 0.48635 0.85589 0.0
C759 C 0.03458 0.4459 0.84527 0.0
C760 C 0.03624 0.48382 0.83675 0.0
C761 C 0.02505 0.4475 0.85524 0.0
H762 H 0.01285 0.5537 0.84787 0.0
H763 H 0.04419 0.48409 0.82976 0.0
O764 O 0.04451 0.6774 0.81591 0.0
O765 O 0.02002 0.6263 0.82658 0.0
O766 O 0.03998 0.57298 0.80996 0.0
O767 O 0.04787 0.61138 0.83833 0.0
H768 H 0.03751 0.76574 0.81673 0.0
H769 H 0.06111 0.66649 0.79589 0.0
H770 H 0.04494 0.82623 0.80097 0.0
H771 H 0.06805 0.72858 0.78046 0.0
H772 H 0.99988 0.67345 0.86462 0.0
H773 H 1.00006 0.66847 0.81535 0.0
H774 H 0.01774 0.63309 0.8529 0.0
H775 H 0.98261 0.70886 0.82771 0.0
H776 H 0.00927 0.76212 0.78647 0.0
H777 H 0.01122 0.63538 0.76356 0.0
H778 H 0.04803 0.75592 0.87182 0.0
H779 H 0.0183 0.81299 0.84629 0.0
H780 H 0.04704 0.48547 0.80671 0.0
H781 H 0.04501 0.61867 0.78755 0.0
H782 H 0.05688 0.4533 0.78615 0.0
H783 H 0.05483 0.58422 0.76731 0.0
H784 H 0.06613 0.54758 0.83595 0.0
H785 H 0.03769 0.60552 0.86254 0.0
H786 H 0.07203 0.49096 0.85357 0.0
H787 H 0.04396 0.54741 0.87961 0.0
H788 H 0.09559 0.66418 0.83256 0.0
H789 H 0.09552 0.57414 0.79809 0.0
H790 H 0.00939 0.48871 0.86338 0.0
H791 H 0.04116 0.41682 0.84455 0.0
Li792 Li 0.19824 0.63345 0.81865 0.0
Li793 Li 0.21714 0.67263 0.82836 0.0
Li794 Li 0.21986 0.61721 0.809 0.0
Li795 Li 0.21539 0.58939 0.83152 0.0
C796 C 0.20465 0.69919 0.79878 0.0
N797 N 0.19299 0.74139 0.77712 0.0
C798 C 0.20431 0.74749 0.79783 0.0
C799 C 0.1991 0.67243 0.78867 0.0
C800 C 0.19836 0.76817 0.78682 0.0
C801 C 0.19324 0.69435 0.77781 0.0
C802 C 0.19944 0.66722 0.84764 0.0
C803 C 0.20178 0.6978 0.86992 0.0
N804 N 0.19237 0.72941 0.8673 0.0
C805 C 0.18972 0.69977 0.8452 0.0
C806 C 0.20545 0.66592 0.86013 0.0
C807 C 0.18629 0.73096 0.85527 0.0
C808 C 0.17395 0.59723 0.82144 0.0
N809 N 0.18004 0.63442 0.81602 0.0
C810 C 0.15982 0.6666 0.8091 0.0
C811 C 0.1733 0.66903 0.80996 0.0
C812 C 0.15329 0.62875 0.81478 0.0
C813 C 0.16052 0.59369 0.82096 0.0
H814 H 0.17957 0.57048 0.8263 0.0
H815 H 0.1783 0.69893 0.80605 0.0
C816 C 0.23137 0.72765 0.84688 0.0
N817 N 0.22183 0.72874 0.83753 0.0
C818 C 0.23294 0.76445 0.8558 0.0
C819 C 0.21545 0.80444 0.84474 0.0
C820 C 0.21408 0.76652 0.83616 0.0
C821 C 0.22474 0.80305 0.85495 0.0
H822 H 0.23738 0.69738 0.84787 0.0
H823 H 0.2063 0.766 0.82897 0.0
C824 C 0.2042 0.53801 0.80595 0.0
N825 N 0.19983 0.46706 0.78794 0.0
C826 C 0.21169 0.49773 0.8064 0.0
C827 C 0.19425 0.54159 0.79655 0.0
C828 C 0.20941 0.46245 0.79714 0.0
C829 C 0.19225 0.50551 0.78748 0.0
C830 C 0.2412 0.60812 0.83228 0.0
C831 C 0.25237 0.59426 0.82551 0.0
C832 C 0.24075 0.60486 0.8462 0.0
C833 C 0.26281 0.57661 0.83277 0.0
C834 C 0.25137 0.58701 0.8531 0.0
N835 N 0.26208 0.57332 0.8463 0.0
C836 C 0.22759 0.61452 0.78094 0.0
C837 C 0.23603 0.55725 0.79544 0.0
C838 C 0.23294 0.59187 0.76988 0.0
N839 N 0.22893 0.59622 0.79339 0.0
C840 C 0.24167 0.53387 0.78474 0.0
C841 C 0.23992 0.55057 0.77171 0.0
H842 H 0.22217 0.646 0.77949 0.0
H843 H 0.23691 0.54327 0.80541 0.0
C844 C 0.20893 0.53282 0.85315 0.0
N845 N 0.21754 0.53796 0.84302 0.0
C846 C 0.20932 0.49349 0.86121 0.0
C847 C 0.22759 0.46588 0.84841 0.0
C848 C 0.22683 0.50575 0.84058 0.0
C849 C 0.21863 0.45908 0.85877 0.0
H850 H 0.20157 0.55885 0.85476 0.0
H851 H 0.23349 0.51059 0.83238 0.0
O852 O 0.2102 0.6784 0.80964 0.0
O853 O 0.20321 0.63741 0.83776 0.0
O854 O 0.20634 0.5731 0.81491 0.0
O855 O 0.23085 0.62513 0.82529 0.0
H856 H 0.20866 0.76884 0.80548 0.0
H857 H 0.19942 0.63514 0.78916 0.0
H858 H 0.19803 0.80551 0.78597 0.0
H859 H 0.18892 0.67397 0.76992 0.0
H860 H 0.20644 0.69747 0.8796 0.0
H861 H 0.18502 0.70148 0.83557 0.0
H862 H 0.21294 0.64081 0.86223 0.0
H863 H 0.17887 0.75659 0.85348 0.0
H864 H 0.15453 0.69463 0.80441 0.0
H865 H 0.15584 0.56386 0.82539 0.0
H866 H 0.24028 0.76228 0.86348 0.0
H867 H 0.20883 0.83336 0.84387 0.0
H868 H 0.21926 0.49383 0.81372 0.0
H869 H 0.18804 0.57166 0.7963 0.0
H870 H 0.21525 0.43136 0.7973 0.0
H871 H 0.18464 0.50801 0.78012 0.0
H872 H 0.25304 0.59748 0.81478 0.0
H873 H 0.23221 0.61549 0.85161 0.0
H874 H 0.27149 0.56566 0.82765 0.0
H875 H 0.25108 0.58396 0.86387 0.0
H876 H 0.23155 0.60624 0.75999 0.0
H877 H 0.2469 0.50201 0.7866 0.0
H878 H 0.20234 0.48988 0.86921 0.0
H879 H 0.23483 0.43999 0.84609 0.0
Li880 Li 0.03328 0.67144 0.42109 0.0
Li881 Li 0.05203 0.63236 0.43093 0.0
Li882 Li 0.03529 0.58886 0.4175 0.0
Li883 Li 0.03022 0.61477 0.4401 0.0
C884 C 0.05128 0.66806 0.40212 0.0
N885 N 0.05849 0.73188 0.38295 0.0
C886 C 0.06123 0.69955 0.40473 0.0
C887 C 0.0451 0.66867 0.38971 0.0
C888 C 0.06472 0.73158 0.39491 0.0
C889 C 0.04884 0.70136 0.38017 0.0
C890 C 0.04519 0.69509 0.45128 0.0
C891 C 0.05419 0.68665 0.47338 0.0
N892 N 0.05642 0.73305 0.47383 0.0
C893 C 0.0475 0.74275 0.452 0.0
C894 C 0.04851 0.66687 0.46208 0.0
C895 C 0.05321 0.76126 0.46346 0.0
C896 C 0.01877 0.72697 0.40298 0.0
N897 N 0.0285 0.7278 0.41211 0.0
C898 C 0.03488 0.80338 0.4048 0.0
C899 C 0.03633 0.76542 0.41335 0.0
C900 C 0.0254 0.80222 0.39477 0.0
C901 C 0.0171 0.76384 0.3941 0.0
H902 H 0.01269 0.69681 0.40213 0.0
H903 H 0.04425 0.76473 0.42038 0.0
C904 C 0.07651 0.60024 0.42674 0.0
N905 N 0.07022 0.63346 0.43382 0.0
C906 C 0.08994 0.59686 0.42728 0.0
C907 C 0.09024 0.66148 0.44263 0.0
C908 C 0.07676 0.66397 0.44167 0.0
C909 C 0.09698 0.62785 0.43526 0.0
H910 H 0.07104 0.57657 0.42056 0.0
H911 H 0.07163 0.69063 0.44703 0.0
C912 C 0.00966 0.603 0.41677 0.0
N913 N 0.98972 0.56069 0.40302 0.0
C914 C 0.99935 0.58302 0.42372 0.0
C915 C 0.00971 0.60199 0.40281 0.0
C916 C 0.98939 0.56166 0.41659 0.0
C917 C 0.99958 0.58028 0.39604 0.0
C918 C 0.0474 0.53708 0.44293 0.0
C919 C 0.04189 0.49302 0.44178 0.0
C920 C 0.05678 0.54506 0.45271 0.0
C921 C 0.04554 0.4582 0.45071 0.0
C922 C 0.06019 0.50933 0.46143 0.0
N923 N 0.05453 0.46702 0.46028 0.0
C924 C 0.04126 0.53495 0.39497 0.0
C925 C 0.02469 0.50404 0.4087 0.0
C926 C 0.04078 0.4961 0.38671 0.0
N927 N 0.03333 0.53798 0.40575 0.0
C928 C 0.02386 0.46464 0.4007 0.0
C929 C 0.0321 0.46006 0.38963 0.0
H930 H 0.04813 0.5623 0.39296 0.0
H931 H 0.01861 0.50716 0.41744 0.0
C932 C 0.01954 0.61602 0.4671 0.0
N933 N 0.02085 0.59273 0.45536 0.0
C934 C 0.01397 0.5941 0.47817 0.0
C935 C 0.01038 0.52613 0.4646 0.0
C936 C 0.01612 0.54911 0.45388 0.0
C937 C 0.0095 0.54825 0.47704 0.0
H938 H 0.02302 0.65116 0.46798 0.0
H939 H 0.01703 0.53176 0.44437 0.0
O940 O 0.04746 0.63738 0.41175 0.0
O941 O 0.03977 0.67634 0.44004 0.0
O942 O 0.01955 0.62374 0.42361 0.0
O943 O 0.04396 0.57161 0.43421 0.0
H944 H 0.06607 0.69978 0.4143 0.0
H945 H 0.03741 0.64448 0.38751 0.0
H946 H 0.07234 0.75639 0.39683 0.0
H947 H 0.04405 0.70253 0.37057 0.0
H948 H 0.0568 0.66512 0.4818 0.0
H949 H 0.0449 0.76528 0.44381 0.0
H950 H 0.0466 0.63015 0.46181 0.0
H951 H 0.05508 0.79806 0.46413 0.0
H952 H 0.04157 0.83213 0.40554 0.0
H953 H 0.00961 0.76186 0.38656 0.0
H954 H 0.09477 0.57023 0.42152 0.0
H955 H 0.09536 0.68632 0.44877 0.0
H956 H 0.99899 0.58427 0.4345 0.0
H957 H 0.01762 0.61708 0.39726 0.0
H958 H 0.98138 0.54596 0.42186 0.0
H959 H 0.99958 0.57887 0.38525 0.0
H960 H 0.03481 0.48575 0.43415 0.0
H961 H 0.0615 0.57829 0.45353 0.0
H962 H 0.04124 0.42412 0.45 0.0
H963 H 0.06739 0.51519 0.46908 0.0
H964 H 0.0472 0.49412 0.37819 0.0
H965 H 0.01715 0.43742 0.40341 0.0
H966 H 0.01324 0.61268 0.48754 0.0
H967 H 0.00708 0.49083 0.46327 0.0
Li968 Li 0.21964 0.63398 0.44092 0.0
Li969 Li 0.21449 0.66007 0.41834 0.0
Li970 Li 0.19786 0.61596 0.43172 0.0
Li971 Li 0.21668 0.57756 0.42188 0.0
C972 C 0.20189 0.71098 0.44367 0.0
N973 N 0.19373 0.78032 0.46078 0.0
C974 C 0.20663 0.75609 0.44228 0.0
C975 C 0.19276 0.70151 0.4536 0.0
C976 C 0.20247 0.79055 0.45108 0.0
C977 C 0.18882 0.73692 0.46219 0.0
C978 C 0.24014 0.64721 0.41774 0.0
C979 C 0.25037 0.67101 0.3972 0.0
N980 N 0.25999 0.6914 0.40434 0.0
C981 C 0.2502 0.66806 0.42487 0.0
C982 C 0.24028 0.64836 0.40379 0.0
C983 C 0.26012 0.69034 0.41792 0.0
C984 C 0.23132 0.6316 0.46749 0.0
N985 N 0.22905 0.65614 0.45613 0.0
C986 C 0.23879 0.72365 0.46565 0.0
C987 C 0.23296 0.70091 0.45496 0.0
C988 C 0.24072 0.70005 0.47774 0.0
C989 C 0.23707 0.65314 0.47853 0.0
H990 H 0.22846 0.59565 0.46811 0.0
H991 H 0.23137 0.71921 0.44569 0.0
C992 C 0.20844 0.71447 0.39591 0.0
N993 N 0.21633 0.71128 0.40671 0.0
C994 C 0.20888 0.75362 0.38775 0.0
C995 C 0.22569 0.78501 0.4019 0.0
C996 C 0.22488 0.74539 0.40981 0.0
C997 C 0.2175 0.7897 0.3908 0.0
H998 H 0.20164 0.68701 0.39379 0.0
H999 H 0.23088 0.74224 0.4186 0.0
C1000 C 0.20484 0.55392 0.45218 0.0
N1001 N 0.19387 0.51689 0.47499 0.0
C1002 C 0.20197 0.50665 0.45284 0.0
C1003 C 0.2022 0.58223 0.46316 0.0
C1004 C 0.1964 0.48861 0.46444 0.0
C1005 C 0.19664 0.56292 0.47459 0.0
C1006 C 0.19878 0.58064 0.40284 0.0
C1007 C 0.18893 0.54866 0.40535 0.0
C1008 C 0.20502 0.58056 0.39046 0.0
C1009 C 0.18559 0.51668 0.39546 0.0
C1010 C 0.20143 0.5479 0.38085 0.0
N1011 N 0.19188 0.51689 0.38353 0.0
C1012 C 0.1733 0.64457 0.42633 0.0
C1013 C 0.17313 0.58691 0.44319 0.0
C1014 C 0.15987 0.64754 0.42665 0.0
N1015 N 0.17964 0.61449 0.43446 0.0
C1016 C 0.15964 0.58917 0.44396 0.0
C1017 C 0.15286 0.6195 0.43551 0.0
H1018 H 0.17875 0.66607 0.4195 0.0
H1019 H 0.1783 0.56288 0.44946 0.0
C1020 C 0.23136 0.52268 0.40375 0.0
N1021 N 0.22162 0.52144 0.41287 0.0
C1022 C 0.23317 0.48585 0.39489 0.0
C1023 C 0.21552 0.44555 0.40559 0.0
C1024 C 0.21393 0.48347 0.41412 0.0
C1025 C 0.22501 0.44708 0.39557 0.0
H1026 H 0.23733 0.55312 0.4029 0.0
H1027 H 0.20602 0.48382 0.42115 0.0
O1028 O 0.20582 0.6768 0.43508 0.0
O1029 O 0.2303 0.62555 0.42442 0.0
O1030 O 0.2102 0.57217 0.44084 0.0
O1031 O 0.20245 0.61129 0.41254 0.0
H1032 H 0.21351 0.76444 0.43454 0.0
H1033 H 0.18864 0.66734 0.45464 0.0
H1034 H 0.20617 0.82546 0.45017 0.0
H1035 H 0.1818 0.72992 0.46995 0.0
H1036 H 0.25051 0.67253 0.3864 0.0
H1037 H 0.25039 0.66681 0.43566 0.0
H1038 H 0.23255 0.63268 0.3981 0.0
H1039 H 0.26794 0.70672 0.42332 0.0
H1040 H 0.24141 0.75978 0.46457 0.0
H1041 H 0.23861 0.6334 0.48758 0.0
H1042 H 0.20248 0.75579 0.37922 0.0
H1043 H 0.23234 0.81231 0.4047 0.0
H1044 H 0.20401 0.48405 0.4445 0.0
H1045 H 0.2045 0.61867 0.46292 0.0
H1046 H 0.1941 0.45212 0.46507 0.0
H1047 H 0.19455 0.58452 0.48315 0.0
H1048 H 0.18405 0.54803 0.4149 0.0
H1049 H 0.21264 0.60512 0.38834 0.0
H1050 H 0.17805 0.4915 0.3973 0.0
H1051 H 0.20626 0.54713 0.37127 0.0
H1052 H 0.155 0.67166 0.42006 0.0
H1053 H 0.15455 0.56668 0.45084 0.0
H1054 H 0.24067 0.48813 0.38737 0.0
H1055 H 0.20893 0.41652 0.40633 0.0
Li1056 Li 0.96938 0.36992 0.19027 0.0
Li1057 Li 0.9663 0.41824 0.1714 0.0
Li1058 Li 0.94738 0.3831 0.18254 0.0
Li1059 Li 0.96381 0.33479 0.16909 0.0
C1060 C 0.95847 0.45255 0.20147 0.0
N1061 N 0.95607 0.49964 0.22537 0.0
C1062 C 0.96669 0.48962 0.20438 0.0
C1063 C 0.94886 0.44003 0.2106 0.0
C1064 C 0.96538 0.5128 0.21656 0.0
C1065 C 0.94785 0.46411 0.22265 0.0
C1066 C 0.99159 0.38909 0.17462 0.0
C1067 C 0.01373 0.39655 0.1674 0.0
N1068 N 0.01569 0.42955 0.17688 0.0
C1069 C 0.99382 0.42299 0.18429 0.0
C1070 C 0.00161 0.37564 0.1661 0.0
C1071 C 0.00607 0.44306 0.18528 0.0
C1072 C 0.98801 0.31806 0.20338 0.0
N1073 N 0.97942 0.35279 0.20571 0.0
C1074 C 0.9828 0.34594 0.22925 0.0
C1075 C 0.97698 0.36775 0.21833 0.0
C1076 C 0.9911 0.30796 0.22719 0.0
C1077 C 0.99392 0.29492 0.21399 0.0
H1078 H 0.98962 0.30622 0.19327 0.0
H1079 H 0.97008 0.39501 0.22006 0.0
C1080 C 0.96429 0.51161 0.16363 0.0
N1081 N 0.97094 0.47184 0.1613 0.0
C1082 C 0.96534 0.54892 0.15481 0.0
C1083 C 0.98058 0.50454 0.14174 0.0
C1084 C 0.9792 0.46798 0.15078 0.0
C1085 C 0.97333 0.54525 0.1435 0.0
H1086 H 0.95765 0.51342 0.17196 0.0
H1087 H 0.98412 0.43555 0.14898 0.0
C1088 C 0.95697 0.29147 0.19675 0.0
N1089 N 0.96041 0.22935 0.21744 0.0
C1090 C 0.96411 0.25097 0.19474 0.0
C1091 C 0.95141 0.30002 0.20923 0.0
C1092 C 0.96577 0.22006 0.20534 0.0
C1093 C 0.95331 0.2683 0.21958 0.0
C1094 C 0.94999 0.40572 0.15119 0.0
C1095 C 0.94146 0.44311 0.15026 0.0
C1096 C 0.9572 0.39241 0.14002 0.0
C1097 C 0.9404 0.46703 0.13818 0.0
C1098 C 0.95583 0.41713 0.12811 0.0
N1099 N 0.94755 0.45367 0.12745 0.0
C1100 C 0.92321 0.4285 0.18518 0.0
C1101 C 0.92306 0.34758 0.18928 0.0
C1102 C 0.90979 0.43046 0.18664 0.0
N1103 N 0.92948 0.38734 0.18632 0.0
C1104 C 0.90966 0.34801 0.19093 0.0
C1105 C 0.90283 0.38969 0.18936 0.0
H1106 H 0.92861 0.45955 0.18284 0.0
H1107 H 0.9283 0.31527 0.18998 0.0
C1108 C 0.97678 0.25901 0.1576 0.0
N1109 N 0.96543 0.28262 0.15806 0.0
C1110 C 0.97776 0.21859 0.15001 0.0
C1111 C 0.95544 0.22848 0.14335 0.0
C1112 C 0.95488 0.26851 0.15111 0.0
C1113 C 0.96695 0.20263 0.14285 0.0
H1114 H 0.98496 0.27108 0.16336 0.0
H1115 H 0.946 0.2882 0.15171 0.0
O1116 O 0.95949 0.43006 0.18949 0.0
O1117 O 0.97967 0.36913 0.17337 0.0
O1118 O 0.95557 0.32283 0.18661 0.0
O1119 O 0.95154 0.38296 0.16306 0.0
H1120 H 0.97397 0.5006 0.19729 0.0
H1121 H 0.9423 0.41192 0.20846 0.0
H1122 H 0.97172 0.54139 0.21897 0.0
H1123 H 0.94051 0.45456 0.22984 0.0
H1124 H 0.02157 0.38656 0.16086 0.0
H1125 H 0.98621 0.43349 0.191 0.0
H1126 H 1.00002 0.34944 0.15854 0.0
H1127 H 0.00793 0.46933 0.19274 0.0
H1128 H 0.98053 0.35799 0.23922 0.0
H1129 H 1.00008 0.26556 0.21182 0.0
H1130 H 0.95969 0.57986 0.15664 0.0
H1131 H 0.98673 0.50001 0.13308 0.0
H1132 H 0.96847 0.24378 0.18514 0.0
H1133 H 0.9458 0.33104 0.21095 0.0
H1134 H 0.97137 0.18879 0.20395 0.0
H1135 H 0.94917 0.27472 0.22933 0.0
H1136 H 0.93587 0.45398 0.15883 0.0
H1137 H 0.96392 0.36375 0.14061 0.0
H1138 H 0.93393 0.49633 0.13735 0.0
H1139 H 0.96142 0.40745 0.11941 0.0
H1140 H 0.90488 0.46336 0.18547 0.0
H1141 H 0.90466 0.31573 0.19285 0.0
H1142 H 0.98677 0.19948 0.15002 0.0
H1143 H 0.94695 0.21788 0.13782 0.0
Li1144 Li 0.80231 0.37235 0.1813 0.0
Li1145 Li 0.78525 0.41106 0.1676 0.0
Li1146 Li 0.78024 0.38373 0.18985 0.0
Li1147 Li 0.78442 0.33009 0.17152 0.0
C1148 C 0.79644 0.4566 0.19542 0.0
N1149 N 0.80273 0.50821 0.2177 0.0
C1150 C 0.7944 0.50443 0.19548 0.0
C1151 C 0.80167 0.43494 0.20667 0.0
C1152 C 0.79765 0.52994 0.20685 0.0
C1153 C 0.80479 0.46166 0.21785 0.0
C1154 C 0.80223 0.33447 0.15258 0.0
C1155 C 0.79964 0.29855 0.13099 0.0
N1156 N 0.80971 0.2698 0.13374 0.0
C1157 C 0.81263 0.30484 0.15514 0.0
C1158 C 0.79576 0.33162 0.14035 0.0
C1159 C 0.81624 0.27232 0.14551 0.0
C1160 C 0.82694 0.33814 0.18981 0.0
N1161 N 0.82021 0.37527 0.18521 0.0
C1162 C 0.83944 0.42082 0.18415 0.0
C1163 C 0.82613 0.41618 0.18249 0.0
C1164 C 0.84681 0.38271 0.18844 0.0
C1165 C 0.84035 0.34106 0.19147 0.0
H1166 H 0.82196 0.30592 0.19179 0.0
H1167 H 0.8205 0.44508 0.17882 0.0
C1168 C 0.7749 0.49677 0.15965 0.0
N1169 N 0.78292 0.46169 0.15598 0.0
C1170 C 0.77387 0.53626 0.1517 0.0
C1171 C 0.78943 0.50268 0.13645 0.0
C1172 C 0.79007 0.46372 0.14463 0.0
C1173 C 0.78136 0.53976 0.14005 0.0
H1174 H 0.76953 0.4944 0.16889 0.0
H1175 H 0.79652 0.43561 0.14212 0.0
C1176 C 0.78509 0.29171 0.19739 0.0
N1177 N 0.77266 0.22276 0.21157 0.0
C1178 C 0.77188 0.28383 0.19549 0.0
C1179 C 0.79198 0.26446 0.20646 0.0
C1180 C 0.76577 0.24882 0.20276 0.0
C1181 C 0.78551 0.22979 0.21355 0.0
C1182 C 0.75994 0.39499 0.16663 0.0
C1183 C 0.74954 0.41415 0.17361 0.0
C1184 C 0.76003 0.39656 0.15267 0.0
C1185 C 0.73956 0.43566 0.16653 0.0
C1186 C 0.74989 0.41843 0.14595 0.0
N1187 N 0.73996 0.43742 0.15297 0.0
C1188 C 0.76574 0.44695 0.20385 0.0
C1189 C 0.77127 0.38269 0.21741 0.0
C1190 C 0.7603 0.46987 0.21473 0.0
N1191 N 0.77112 0.40431 0.20534 0.0
C1192 C 0.76586 0.40437 0.2286 0.0
C1193 C 0.7604 0.44887 0.22737 0.0
H1194 H 0.76615 0.46399 0.19424 0.0
H1195 H 0.77593 0.3494 0.21847 0.0
C1196 C 0.78864 0.23619 0.16451 0.0
N1197 N 0.78044 0.27257 0.16292 0.0
C1198 C 0.78779 0.19778 0.15606 0.0
C1199 C 0.76953 0.2336 0.14513 0.0
C1200 C 0.77073 0.27129 0.15378 0.0
C1201 C 0.77839 0.1968 0.14591 0.0
H1202 H 0.79632 0.23824 0.17182 0.0
H1203 H 0.76436 0.30061 0.1527 0.0
O1204 O 0.79293 0.43092 0.18453 0.0
O1205 O 0.79832 0.36565 0.16206 0.0
O1206 O 0.79137 0.32566 0.1904 0.0
O1207 O 0.76981 0.37392 0.17342 0.0
H1208 H 0.79027 0.52158 0.18686 0.0
H1209 H 0.80314 0.39782 0.20684 0.0
H1210 H 0.7961 0.56699 0.20706 0.0
H1211 H 0.80879 0.44538 0.22665 0.0
H1212 H 0.79462 0.29565 0.12155 0.0
H1213 H 0.81773 0.30644 0.16455 0.0
H1214 H 0.78772 0.3543 0.13817 0.0
H1215 H 0.82419 0.24891 0.14741 0.0
H1216 H 0.84391 0.45386 0.18195 0.0
H1217 H 0.84562 0.31059 0.19464 0.0
H1218 H 0.76768 0.56443 0.15487 0.0
H1219 H 0.7953 0.50409 0.12751 0.0
H1220 H 0.76637 0.3044 0.18851 0.0
H1221 H 0.80221 0.27011 0.20802 0.0
H1222 H 0.75556 0.24237 0.20141 0.0
H1223 H 0.79072 0.20847 0.22062 0.0
H1224 H 0.74908 0.41203 0.18438 0.0
H1225 H 0.76795 0.38173 0.14709 0.0
H1226 H 0.73149 0.45079 0.17183 0.0
H1227 H 0.74992 0.42036 0.13517 0.0
H1228 H 0.75651 0.50448 0.2133 0.0
H1229 H 0.76609 0.3867 0.23814 0.0
H1230 H 0.79469 0.16983 0.15719 0.0
H1231 H 0.76218 0.23457 0.13743 0.0
Li1232 Li 0.9477 0.37042 0.56871 0.0
Li1233 Li 0.96467 0.41144 0.58248 0.0
Li1234 Li 0.96992 0.38259 0.56045 0.0
Li1235 Li 0.96574 0.32989 0.57897 0.0
C1236 C 0.95466 0.45654 0.55447 0.0
N1237 N 0.95101 0.51081 0.53208 0.0
C1238 C 0.95812 0.50332 0.55468 0.0
C1239 C 0.9493 0.43736 0.54292 0.0
C1240 C 0.95621 0.53019 0.54324 0.0
C1241 C 0.94754 0.46538 0.53169 0.0
C1242 C 0.94813 0.33553 0.59805 0.0
C1243 C 0.95116 0.30428 0.62018 0.0
N1244 N 0.94158 0.27306 0.61785 0.0
C1245 C 0.93822 0.30345 0.59594 0.0
C1246 C 0.95458 0.33628 0.61032 0.0
C1247 C 0.93508 0.27208 0.60605 0.0
C1248 C 0.92304 0.33259 0.56183 0.0
N1249 N 0.92981 0.37184 0.5645 0.0
C1250 C 0.91061 0.41753 0.56314 0.0
C1251 C 0.92392 0.41383 0.56507 0.0
C1252 C 0.90318 0.37746 0.56093 0.0
C1253 C 0.90963 0.33455 0.5601 0.0
H1254 H 0.92799 0.2996 0.5615 0.0
H1255 H 0.92954 0.44447 0.56727 0.0
C1256 C 0.97546 0.4965 0.59059 0.0
N1257 N 0.96683 0.46286 0.59386 0.0
C1258 C 0.97649 0.53624 0.59845 0.0
C1259 C 0.9596 0.50601 0.61273 0.0
C1260 C 0.95899 0.46673 0.60467 0.0
C1261 C 0.96835 0.54153 0.60956 0.0
H1262 H 0.98139 0.49275 0.58176 0.0
H1263 H 0.95206 0.43977 0.60686 0.0
C1264 C 0.96546 0.28965 0.55335 0.0
N1265 N 0.97819 0.21976 0.53985 0.0
C1266 C 0.9788 0.28405 0.55486 0.0
C1267 C 0.95859 0.25966 0.54501 0.0
C1268 C 0.98506 0.24852 0.54793 0.0
C1269 C 0.9652 0.22455 0.53826 0.0
C1270 C 0.99028 0.39434 0.5837 0.0
C1271 C 0.00102 0.41055 0.57664 0.0
C1272 C 0.99009 0.39775 0.59762 0.0
C1273 C 0.01123 0.43104 0.5836 0.0
C1274 C 0.00048 0.41851 0.60422 0.0
N1275 N 0.01075 0.43465 0.59713 0.0
C1276 C 0.98517 0.44416 0.54653 0.0
C1277 C 0.9786 0.38153 0.53284 0.0
C1278 C 0.99063 0.46685 0.53563 0.0
N1279 N 0.97923 0.40253 0.54498 0.0
C1280 C 0.98405 0.40293 0.52162 0.0
C1281 C 0.99003 0.44657 0.52289 0.0
H1282 H 0.98513 0.46082 0.55621 0.0
H1283 H 0.97351 0.34907 0.53175 0.0
C1284 C 0.96193 0.2358 0.58609 0.0
N1285 N 0.96981 0.27298 0.58789 0.0
C1286 C 0.96282 0.19754 0.5946 0.0
C1287 C 0.98046 0.23525 0.60608 0.0
C1288 C 0.97922 0.27275 0.59737 0.0
C1289 C 0.97193 0.19752 0.60503 0.0
H1290 H 0.95446 0.23702 0.57854 0.0
H1291 H 0.98532 0.30271 0.59865 0.0
O1292 O 0.95684 0.42932 0.56541 0.0
O1293 O 0.95162 0.36556 0.58809 0.0
O1294 O 0.95904 0.32401 0.56002 0.0
O1295 O 0.98017 0.3743 0.57701 0.0
H1296 H 0.96234 0.51857 0.56354 0.0
H1297 H 0.94668 0.40106 0.54257 0.0
H1298 H 0.95889 0.56641 0.54323 0.0
H1299 H 0.94347 0.45096 0.52265 0.0
H1300 H 0.95616 0.3042 0.62967 0.0
H1301 H 0.93315 0.30227 0.58652 0.0
H1302 H 0.9622 0.36099 0.61219 0.0
H1303 H 0.92751 0.24677 0.60449 0.0
H1304 H 0.90621 0.45151 0.56356 0.0
H1305 H 0.90436 0.30257 0.5586 0.0
H1306 H 0.98323 0.56319 0.5956 0.0
H1307 H 0.95322 0.50882 0.62126 0.0
H1308 H 0.98431 0.3068 0.56126 0.0
H1309 H 0.94825 0.26351 0.54377 0.0
H1310 H 0.99539 0.24382 0.54899 0.0
H1311 H 0.96001 0.20111 0.53176 0.0
H1312 H 0.00155 0.40688 0.56591 0.0
H1313 H 0.98193 0.38513 0.60327 0.0
H1314 H 0.01958 0.44389 0.57824 0.0
H1315 H 0.00038 0.42182 0.61498 0.0
H1316 H 0.99482 0.50082 0.53711 0.0
H1317 H 0.98343 0.38576 0.51203 0.0
H1318 H 0.95619 0.1689 0.59326 0.0
H1319 H 0.98756 0.23699 0.61401 0.0
Li1320 Li 0.78064 0.36773 0.56082 0.0
Li1321 Li 0.78457 0.42082 0.5793 0.0
Li1322 Li 0.8028 0.38215 0.56883 0.0
Li1323 Li 0.78629 0.33936 0.58276 0.0
C1324 C 0.78427 0.46113 0.5537 0.0
N1325 N 0.77089 0.52983 0.54036 0.0
C1326 C 0.7709 0.46535 0.55531 0.0
C1327 C 0.79084 0.49189 0.54534 0.0
C1328 C 0.76431 0.5003 0.54847 0.0
C1329 C 0.7839 0.52638 0.53867 0.0
C1330 C 0.76053 0.35457 0.58429 0.0
C1331 C 0.75066 0.3302 0.60497 0.0
N1332 N 0.74039 0.3134 0.59802 0.0
C1333 C 0.74978 0.33767 0.57738 0.0
C1334 C 0.76089 0.3514 0.59822 0.0
C1335 C 0.73973 0.31676 0.58449 0.0
C1336 C 0.76552 0.30521 0.54708 0.0
N1337 N 0.7713 0.3471 0.54546 0.0
C1338 C 0.76624 0.34645 0.52215 0.0
C1339 C 0.77174 0.3681 0.53331 0.0
C1340 C 0.76041 0.3026 0.52351 0.0
C1341 C 0.76001 0.2823 0.53625 0.0
H1342 H 0.76573 0.28859 0.55676 0.0
H1343 H 0.77671 0.40078 0.53216 0.0
C1344 C 0.78794 0.51489 0.58639 0.0
N1345 N 0.78019 0.47739 0.58822 0.0
C1346 C 0.78693 0.55316 0.59487 0.0
C1347 C 0.7694 0.51485 0.60637 0.0
C1348 C 0.77078 0.47728 0.59769 0.0
C1349 C 0.77782 0.55286 0.60529 0.0
H1350 H 0.79541 0.51392 0.57883 0.0
H1351 H 0.76478 0.44706 0.59899 0.0
C1352 C 0.79635 0.29537 0.55461 0.0
N1353 N 0.79999 0.24174 0.53209 0.0
C1354 C 0.79303 0.24846 0.55476 0.0
C1355 C 0.80157 0.31501 0.54305 0.0
C1356 C 0.79494 0.22192 0.54326 0.0
C1357 C 0.80332 0.28731 0.53176 0.0
C1358 C 0.80243 0.41678 0.5982 0.0
C1359 C 0.81217 0.44948 0.59602 0.0
C1360 C 0.79607 0.41566 0.61051 0.0
C1361 C 0.81522 0.48108 0.60611 0.0
C1362 C 0.79938 0.44791 0.62034 0.0
N1363 N 0.80879 0.47972 0.61795 0.0
C1364 C 0.82668 0.42385 0.56145 0.0
C1365 C 0.82719 0.34267 0.56507 0.0
C1366 C 0.84007 0.42466 0.55957 0.0
N1367 N 0.82061 0.38335 0.56439 0.0
C1368 C 0.84053 0.34175 0.56303 0.0
C1369 C 0.84715 0.38325 0.5605 0.0
H1370 H 0.82117 0.45568 0.56101 0.0
H1371 H 0.82211 0.31107 0.56755 0.0
C1372 C 0.77605 0.25359 0.5908 0.0
N1373 N 0.78449 0.28778 0.59413 0.0
C1374 C 0.77515 0.21384 0.59866 0.0
C1375 C 0.79174 0.2452 0.6131 0.0
C1376 C 0.79225 0.28446 0.60502 0.0
C1377 C 0.78318 0.20914 0.60988 0.0
H1378 H 0.77017 0.25696 0.58192 0.0
H1379 H 0.79901 0.31192 0.60728 0.0
O1380 O 0.79101 0.42737 0.56029 0.0
O1381 O 0.77048 0.37503 0.57745 0.0
O1382 O 0.79415 0.32227 0.56562 0.0
O1383 O 0.79904 0.38648 0.58828 0.0
H1384 H 0.76562 0.44198 0.56173 0.0
H1385 H 0.8012 0.48911 0.54401 0.0
H1386 H 0.75396 0.50394 0.54961 0.0
H1387 H 0.78886 0.55041 0.53215 0.0
H1388 H 0.7509 0.32707 0.61573 0.0
H1389 H 0.74912 0.34113 0.56666 0.0
H1390 H 0.76906 0.36458 0.60374 0.0
H1391 H 0.73138 0.30338 0.57925 0.0
H1392 H 0.76671 0.36362 0.51255 0.0
H1393 H 0.75593 0.24817 0.53778 0.0
H1394 H 0.79349 0.58203 0.59354 0.0
H1395 H 0.76229 0.51295 0.61429 0.0
H1396 H 0.78892 0.23284 0.56362 0.0
H1397 H 0.80406 0.35142 0.54276 0.0
H1398 H 0.79236 0.1856 0.5432 0.0
H1399 H 0.80728 0.30208 0.52272 0.0
H1400 H 0.81718 0.45094 0.58657 0.0
H1401 H 0.78859 0.39044 0.61245 0.0
H1402 H 0.82265 0.50685 0.60449 0.0
H1403 H 0.79444 0.4477 0.62986 0.0
H1404 H 0.84486 0.45731 0.5576 0.0
H1405 H 0.84568 0.30924 0.56397 0.0
H1406 H 0.76855 0.18649 0.59576 0.0
H1407 H 0.79803 0.2429 0.62172 0.0
Li1408 Li 0.53054 0.13361 0.81 0.0
Li1409 Li 0.53565 0.15963 0.83258 0.0
Li1410 Li 0.55233 0.11579 0.81918 0.0
Li1411 Li 0.53355 0.07712 0.82901 0.0
C1412 C 0.54806 0.21092 0.80722 0.0
N1413 N 0.55582 0.28062 0.79003 0.0
C1414 C 0.54301 0.25563 0.80852 0.0
C1415 C 0.55731 0.20206 0.79736 0.0
C1416 C 0.54697 0.29027 0.79968 0.0
C1417 C 0.56104 0.23763 0.78872 0.0
C1418 C 0.51 0.14624 0.83323 0.0
C1419 C 0.49984 0.16963 0.85384 0.0
N1420 N 0.49011 0.18962 0.84676 0.0
C1421 C 0.49984 0.16666 0.82616 0.0
C1422 C 0.50995 0.14737 0.84719 0.0
C1423 C 0.48989 0.18854 0.83319 0.0
C1424 C 0.51926 0.13177 0.78325 0.0
N1425 N 0.52115 0.15576 0.79478 0.0
C1426 C 0.51113 0.22301 0.78542 0.0
C1427 C 0.51691 0.20009 0.79611 0.0
C1428 C 0.50964 0.20007 0.77317 0.0
C1429 C 0.5136 0.15355 0.77221 0.0
H1430 H 0.52236 0.09612 0.7825 0.0
H1431 H 0.51822 0.21795 0.8055 0.0
C1432 C 0.54169 0.21398 0.855 0.0
N1433 N 0.53376 0.21074 0.84423 0.0
C1434 C 0.54126 0.25309 0.86317 0.0
C1435 C 0.52436 0.28432 0.84911 0.0
C1436 C 0.52516 0.24472 0.84119 0.0
C1437 C 0.53259 0.2891 0.86016 0.0
H1438 H 0.54854 0.18661 0.85708 0.0
H1439 H 0.51911 0.24149 0.83244 0.0
C1440 C 0.54542 0.05355 0.79875 0.0
N1441 N 0.5565 0.01634 0.77602 0.0
C1442 C 0.5481 0.00614 0.79805 0.0
C1443 C 0.54831 0.08191 0.78784 0.0
C1444 C 0.55372 0.98801 0.78649 0.0
C1445 C 0.55391 0.06251 0.77645 0.0
C1446 C 0.55148 0.0803 0.84803 0.0
C1447 C 0.56136 0.0485 0.84547 0.0
C1448 C 0.54527 0.07999 0.86042 0.0
C1449 C 0.56476 0.01647 0.85532 0.0
C1450 C 0.54891 0.04729 0.86999 0.0
N1451 N 0.5585 0.01646 0.86727 0.0
C1452 C 0.57683 0.14593 0.82414 0.0
C1453 C 0.57708 0.08605 0.80794 0.0
C1454 C 0.59026 0.1493 0.82372 0.0
N1455 N 0.57053 0.1146 0.81639 0.0
C1456 C 0.59056 0.08865 0.80708 0.0
C1457 C 0.59729 0.12032 0.81514 0.0
H1458 H 0.57136 0.16813 0.83076 0.0
H1459 H 0.57194 0.06097 0.80199 0.0
C1460 C 0.51892 0.02203 0.84712 0.0
N1461 N 0.52866 0.02092 0.838 0.0
C1462 C 0.51715 0.98518 0.85598 0.0
C1463 C 0.53484 0.94512 0.84529 0.0
C1464 C 0.53639 0.98306 0.83675 0.0
C1465 C 0.52535 0.94654 0.85531 0.0
H1466 H 0.51291 0.05238 0.84797 0.0
H1467 H 0.54431 0.98352 0.82972 0.0
O1468 O 0.54432 0.17657 0.81585 0.0
O1469 O 0.51988 0.12496 0.82649 0.0
O1470 O 0.54003 0.07191 0.81006 0.0
O1471 O 0.54775 0.11098 0.83836 0.0
H1472 H 0.53604 0.26355 0.81621 0.0
H1473 H 0.56167 0.16825 0.7964 0.0
H1474 H 0.54303 0.32486 0.80051 0.0
H1475 H 0.56814 0.2311 0.78101 0.0
H1476 H 0.49975 0.17114 0.86464 0.0
H1477 H 0.49957 0.16537 0.81538 0.0
H1478 H 0.51776 0.13199 0.85282 0.0
H1479 H 0.48199 0.2046 0.82784 0.0
H1480 H 0.50824 0.25883 0.78662 0.0
H1481 H 0.51239 0.13432 0.763 0.0
H1482 H 0.54769 0.2553 0.87168 0.0
H1483 H 0.51767 0.31155 0.84634 0.0
H1484 H 0.54585 0.98351 0.80633 0.0
H1485 H 0.54614 0.11845 0.78811 0.0
H1486 H 0.55587 0.95141 0.78583 0.0
H1487 H 0.55619 0.08415 0.76795 0.0
H1488 H 0.56622 0.04805 0.8359 0.0
H1489 H 0.53762 0.10441 0.86258 0.0
H1490 H 0.57233 0.99143 0.85344 0.0
H1491 H 0.5441 0.04635 0.87958 0.0
H1492 H 0.59509 0.17443 0.83001 0.0
H1493 H 0.59568 0.0654 0.80044 0.0
H1494 H 0.50965 0.98736 0.86351 0.0
H1495 H 0.54146 0.91617 0.84455 0.0
Li1496 Li 0.69811 0.13466 0.81908 0.0
Li1497 Li 0.71688 0.17345 0.82895 0.0
Li1498 Li 0.71991 0.1171 0.8099 0.0
Li1499 Li 0.71482 0.09085 0.83245 0.0
C1500 C 0.70495 0.19722 0.79873 0.0
N1501 N 0.69371 0.23469 0.77612 0.0
C1502 C 0.70243 0.24474 0.79803 0.0
C1503 C 0.70182 0.16888 0.78789 0.0
C1504 C 0.69672 0.263 0.78652 0.0
C1505 C 0.69614 0.18841 0.77656 0.0
C1506 C 0.6989 0.16997 0.84794 0.0
C1507 C 0.70135 0.20278 0.86994 0.0
N1508 N 0.69177 0.2336 0.86719 0.0
C1509 C 0.68902 0.20175 0.84535 0.0
C1510 C 0.70506 0.17019 0.86036 0.0
C1511 C 0.68557 0.23368 0.85521 0.0
C1512 C 0.67367 0.10334 0.82371 0.0
N1513 N 0.67991 0.13572 0.81628 0.0
C1514 C 0.65984 0.1626 0.8073 0.0
C1515 C 0.67333 0.16525 0.80816 0.0
C1516 C 0.65316 0.12984 0.81505 0.0
C1517 C 0.66024 0.09986 0.82329 0.0
H1518 H 0.67918 0.08041 0.83009 0.0
H1519 H 0.67843 0.19121 0.80249 0.0
C1520 C 0.73145 0.22859 0.84709 0.0
N1521 N 0.72172 0.22964 0.83796 0.0
C1522 C 0.7332 0.26544 0.85596 0.0
C1523 C 0.71548 0.30537 0.84526 0.0
C1524 C 0.71396 0.26744 0.83673 0.0
C1525 C 0.72497 0.30402 0.85528 0.0
H1526 H 0.73748 0.1983 0.84793 0.0
H1527 H 0.70604 0.26693 0.82969 0.0
C1528 C 0.70262 0.0395 0.80704 0.0
N1529 N 0.69526 0.96954 0.78975 0.0
C1530 C 0.70799 0.99524 0.80822 0.0
C1531 C 0.69325 0.04775 0.79725 0.0
C1532 C 0.70423 0.96047 0.79933 0.0
C1533 C 0.68973 0.01206 0.78856 0.0
C1534 C 0.74046 0.10482 0.8332 0.0
C1535 C 0.75077 0.08496 0.82622 0.0
C1536 C 0.74041 0.10355 0.84716 0.0
C1537 C 0.76073 0.06347 0.83331 0.0
C1538 C 0.75054 0.08171 0.85389 0.0
N1539 N 0.7604 0.06224 0.84689 0.0
C1540 C 0.73085 0.11859 0.78299 0.0
C1541 C 0.7339 0.05128 0.79613 0.0
C1542 C 0.73649 0.0967 0.77196 0.0
N1543 N 0.72931 0.09511 0.79466 0.0
C1544 C 0.73969 0.0283 0.78546 0.0
C1545 C 0.74082 0.05065 0.77307 0.0
H1546 H 0.72748 0.15389 0.78212 0.0
H1547 H 0.73283 0.0338 0.80561 0.0
C1548 C 0.70863 0.03618 0.85474 0.0
N1549 N 0.7167 0.03969 0.84409 0.0
C1550 C 0.70901 0.997 0.86288 0.0
C1551 C 0.72616 0.96625 0.84905 0.0
C1552 C 0.7254 0.00592 0.84115 0.0
C1553 C 0.71777 0.9612 0.85997 0.0
H1554 H 0.70171 0.06339 0.85673 0.0
H1555 H 0.73157 0.00936 0.83249 0.0
O1556 O 0.71038 0.17871 0.81 0.0
O1557 O 0.70269 0.13939 0.83826 0.0
O1558 O 0.70615 0.07398 0.81572 0.0
O1559 O 0.73057 0.1257 0.82639 0.0
H1560 H 0.70485 0.26736 0.80625 0.0
H1561 H 0.70387 0.13226 0.78817 0.0
H1562 H 0.6947 0.2997 0.78586 0.0
H1563 H 0.69368 0.16679 0.76811 0.0
H1564 H 0.70612 0.20364 0.87956 0.0
H1565 H 0.68421 0.20228 0.83576 0.0
H1566 H 0.71269 0.14576 0.86255 0.0
H1567 H 0.678 0.2587 0.85331 0.0
H1568 H 0.65468 0.18665 0.80094 0.0
H1569 H 0.65545 0.0739 0.82933 0.0
H1570 H 0.7407 0.26331 0.86348 0.0
H1571 H 0.70884 0.33427 0.84453 0.0
H1572 H 0.71505 0.98777 0.81585 0.0
H1573 H 0.68864 0.08117 0.79639 0.0
H1574 H 0.70842 0.92623 0.80006 0.0
H1575 H 0.68255 0.01813 0.78091 0.0
H1576 H 0.75112 0.08639 0.81544 0.0
H1577 H 0.7325 0.11854 0.85274 0.0
H1578 H 0.76874 0.04785 0.82803 0.0
H1579 H 0.75054 0.0801 0.86469 0.0
H1580 H 0.73741 0.11546 0.76264 0.0
H1581 H 0.74287 0.99284 0.78677 0.0
H1582 H 0.70246 0.99458 0.87129 0.0
H1583 H 0.73293 0.93919 0.84636 0.0
Li1584 Li 0.53328 0.17152 0.42169 0.0
Li1585 Li 0.55216 0.13337 0.43151 0.0
Li1586 Li 0.53551 0.08893 0.41821 0.0
Li1587 Li 0.53039 0.11524 0.44076 0.0
C1588 C 0.55117 0.1684 0.40264 0.0
N1589 N 0.55804 0.23215 0.38332 0.0
C1590 C 0.56089 0.20085 0.40521 0.0
C1591 C 0.54506 0.16802 0.39019 0.0
C1592 C 0.56421 0.23283 0.39531 0.0
C1593 C 0.54862 0.20068 0.38058 0.0
C1594 C 0.54514 0.19531 0.45198 0.0
C1595 C 0.55389 0.1858 0.47415 0.0
N1596 N 0.55616 0.23215 0.47479 0.0
C1597 C 0.54751 0.2429 0.45289 0.0
C1598 C 0.54833 0.16657 0.46271 0.0
C1599 C 0.5531 0.26083 0.46449 0.0
C1600 C 0.51874 0.22615 0.40337 0.0
N1601 N 0.52833 0.22759 0.41266 0.0
C1602 C 0.53438 0.30369 0.40552 0.0
C1603 C 0.53592 0.26576 0.41406 0.0
C1604 C 0.52506 0.30196 0.39534 0.0
C1605 C 0.51699 0.26299 0.3945 0.0
H1606 H 0.51285 0.19555 0.40239 0.0
H1607 H 0.54372 0.26557 0.42123 0.0
C1608 C 0.57672 0.10395 0.42647 0.0
N1609 N 0.57037 0.13508 0.43424 0.0
C1610 C 0.59016 0.10099 0.42686 0.0
C1611 C 0.59035 0.16164 0.4435 0.0
C1612 C 0.57686 0.16386 0.44266 0.0
C1613 C 0.59714 0.13015 0.43543 0.0
H1614 H 0.57129 0.08158 0.41986 0.0
H1615 H 0.57168 0.18883 0.44861 0.0
C1616 C 0.50979 0.10249 0.41751 0.0
N1617 N 0.48982 0.0598 0.4039 0.0
C1618 C 0.49948 0.08286 0.42453 0.0
C1619 C 0.50985 0.10093 0.40355 0.0
C1620 C 0.4895 0.06131 0.41748 0.0
C1621 C 0.4997 0.07903 0.39686 0.0
C1622 C 0.54788 0.03796 0.44356 0.0
C1623 C 0.54251 0.99369 0.4424 0.0
C1624 C 0.55735 0.04615 0.45325 0.0
C1625 C 0.54638 0.95884 0.45122 0.0
C1626 C 0.56098 0.01039 0.46186 0.0
N1627 N 0.55544 0.96786 0.4607 0.0
C1628 C 0.54185 0.03387 0.39606 0.0
C1629 C 0.52498 0.00384 0.40956 0.0
C1630 C 0.54152 0.99456 0.38796 0.0
N1631 N 0.53371 0.03757 0.40663 0.0
C1632 C 0.52427 0.96407 0.4017 0.0
C1633 C 0.53273 0.95884 0.39084 0.0
H1634 H 0.54879 0.06105 0.39408 0.0
H1635 H 0.51876 0.0074 0.41817 0.0
C1636 C 0.51948 0.1162 0.4677 0.0
N1637 N 0.52103 0.09294 0.45599 0.0
C1638 C 0.51387 0.09404 0.47871 0.0
C1639 C 0.5107 0.02586 0.46511 0.0
C1640 C 0.51648 0.04908 0.45446 0.0
C1641 C 0.50958 0.04798 0.47752 0.0
H1642 H 0.5228 0.15153 0.46862 0.0
H1643 H 0.51755 0.03179 0.44496 0.0
O1644 O 0.5475 0.13778 0.41235 0.0
O1645 O 0.53982 0.17713 0.44062 0.0
O1646 O 0.5197 0.12342 0.42429 0.0
O1647 O 0.54425 0.07251 0.43494 0.0
H1648 H 0.56567 0.20184 0.41481 0.0
H1649 H 0.53755 0.14307 0.38802 0.0
H1650 H 0.57164 0.25837 0.3972 0.0
H1651 H 0.54388 0.20108 0.37095 0.0
H1652 H 0.55639 0.16387 0.48252 0.0
H1653 H 0.54504 0.2658 0.44474 0.0
H1654 H 0.54641 0.12988 0.46227 0.0
H1655 H 0.555 0.29757 0.46531 0.0
H1656 H 0.5409 0.3329 0.40639 0.0
H1657 H 0.50962 0.26054 0.38685 0.0
H1658 H 0.59504 0.07601 0.42056 0.0
H1659 H 0.59543 0.18502 0.45014 0.0
H1660 H 0.49912 0.08452 0.43531 0.0
H1661 H 0.51777 0.1157 0.39795 0.0
H1662 H 0.48148 0.04587 0.42279 0.0
H1663 H 0.49969 0.0772 0.38607 0.0
H1664 H 0.53537 0.98626 0.43484 0.0
H1665 H 0.56195 0.0796 0.45408 0.0
H1666 H 0.54219 0.92459 0.4505 0.0
H1667 H 0.56824 0.01641 0.46944 0.0
H1668 H 0.54812 0.99199 0.3796 0.0
H1669 H 0.51747 0.93707 0.40436 0.0
H1670 H 0.51295 0.11259 0.48806 0.0
H1671 H 0.50753 0.99041 0.46374 0.0
Li1672 Li 0.71975 0.13457 0.44097 0.0
Li1673 Li 0.71479 0.16106 0.41841 0.0
Li1674 Li 0.69799 0.11716 0.43166 0.0
Li1675 Li 0.71681 0.07843 0.42188 0.0
C1676 C 0.70253 0.21242 0.44376 0.0
N1677 N 0.69526 0.28269 0.46098 0.0
C1678 C 0.70811 0.25639 0.44268 0.0
C1679 C 0.69301 0.20465 0.45341 0.0
C1680 C 0.70439 0.29131 0.45153 0.0
C1681 C 0.68953 0.24048 0.46207 0.0
C1682 C 0.74047 0.14672 0.41778 0.0
C1683 C 0.75066 0.16986 0.39716 0.0
N1684 N 0.76058 0.18873 0.40422 0.0
C1685 C 0.75082 0.16598 0.42483 0.0
C1686 C 0.74044 0.14831 0.40383 0.0
C1687 C 0.76087 0.18719 0.41779 0.0
C1688 C 0.73045 0.1331 0.46799 0.0
N1689 N 0.7291 0.1564 0.45626 0.0
C1690 C 0.73966 0.22289 0.46544 0.0
C1691 C 0.73386 0.19997 0.45475 0.0
C1692 C 0.7406 0.20075 0.47787 0.0
C1693 C 0.73609 0.15495 0.47903 0.0
H1694 H 0.72696 0.09797 0.46889 0.0
H1695 H 0.73294 0.2173 0.44524 0.0
C1696 C 0.70869 0.21598 0.39616 0.0
N1697 N 0.71676 0.21229 0.40681 0.0
C1698 C 0.70914 0.25517 0.38803 0.0
C1699 C 0.72631 0.28558 0.40188 0.0
C1700 C 0.72551 0.24589 0.40976 0.0
C1701 C 0.71794 0.29083 0.39095 0.0
H1702 H 0.70174 0.18889 0.39416 0.0
H1703 H 0.73167 0.2423 0.41841 0.0
C1704 C 0.70477 0.05468 0.45207 0.0
N1705 N 0.69351 0.01761 0.47472 0.0
C1706 C 0.70241 0.00708 0.45292 0.0
C1707 C 0.70146 0.08331 0.46279 0.0
C1708 C 0.69669 0.98902 0.46444 0.0
C1709 C 0.69577 0.06397 0.47414 0.0
C1710 C 0.69896 0.08204 0.40279 0.0
C1711 C 0.68913 0.05002 0.40534 0.0
C1712 C 0.70514 0.08206 0.39038 0.0
C1713 C 0.68575 0.0181 0.39545 0.0
C1714 C 0.70151 0.04947 0.38077 0.0
N1715 N 0.69198 0.01842 0.38348 0.0
C1716 C 0.67353 0.1486 0.42703 0.0
C1717 C 0.67319 0.08605 0.44237 0.0
C1718 C 0.6601 0.15193 0.42743 0.0
N1719 N 0.67978 0.11599 0.43437 0.0
C1720 C 0.65971 0.08855 0.4432 0.0
C1721 C 0.65302 0.12156 0.43556 0.0
H1722 H 0.67904 0.17184 0.42075 0.0
H1723 H 0.6783 0.05988 0.44796 0.0
C1724 C 0.73133 0.02345 0.40366 0.0
N1725 N 0.72167 0.02226 0.41287 0.0
C1726 C 0.73305 0.98661 0.39479 0.0
C1727 C 0.71549 0.94639 0.40565 0.0
C1728 C 0.71397 0.98433 0.41419 0.0
C1729 C 0.72489 0.94789 0.39555 0.0
H1730 H 0.7373 0.05386 0.40275 0.0
H1731 H 0.70612 0.98474 0.42129 0.0
O1732 O 0.70603 0.1778 0.4351 0.0
O1733 O 0.7305 0.12611 0.42454 0.0
O1734 O 0.71019 0.07299 0.44078 0.0
O1735 O 0.70268 0.11259 0.4125 0.0
H1736 H 0.71529 0.26352 0.43514 0.0
H1737 H 0.68824 0.17147 0.45419 0.0
H1738 H 0.70873 0.32532 0.45087 0.0
H1739 H 0.68222 0.23477 0.46963 0.0
H1740 H 0.75069 0.17171 0.38637 0.0
H1741 H 0.75115 0.16428 0.43561 0.0
H1742 H 0.73249 0.1338 0.39821 0.0
H1743 H 0.76892 0.20234 0.42313 0.0
H1744 H 0.74299 0.25816 0.46409 0.0
H1745 H 0.73685 0.13636 0.48839 0.0
H1746 H 0.7026 0.25772 0.37961 0.0
H1747 H 0.73312 0.31252 0.40458 0.0
H1748 H 0.70498 0.98425 0.44479 0.0
H1749 H 0.70339 0.12 0.4624 0.0
H1750 H 0.69479 0.95226 0.46521 0.0
H1751 H 0.69317 0.08582 0.4825 0.0
H1752 H 0.6843 0.04932 0.41491 0.0
H1753 H 0.71274 0.10667 0.38823 0.0
H1754 H 0.67822 0.99289 0.39731 0.0
H1755 H 0.70629 0.04878 0.37117 0.0
H1756 H 0.65529 0.17809 0.42147 0.0
H1757 H 0.65455 0.06419 0.44947 0.0
H1758 H 0.74048 0.98886 0.38719 0.0
H1759 H 0.7089 0.91736 0.40645 0.0
Li1760 Li 0.46538 0.92044 0.17166 0.0
Li1761 Li 0.46956 0.86697 0.1901 0.0
Li1762 Li 0.46436 0.83954 0.16787 0.0
Li1763 Li 0.44749 0.87866 0.18153 0.0
C1764 C 0.48977 0.85429 0.16703 0.0
N1765 N 0.5097 0.80981 0.15385 0.0
C1766 C 0.49989 0.83426 0.17426 0.0
C1767 C 0.48995 0.85255 0.15308 0.0
C1768 C 0.50984 0.81172 0.16742 0.0
C1769 C 0.50006 0.82964 0.1466 0.0
C1770 C 0.46488 0.95903 0.19754 0.0
C1771 C 0.46473 0.01972 0.21408 0.0
N1772 N 0.4775 0.02749 0.21174 0.0
C1773 C 0.478 0.96766 0.19527 0.0
C1774 C 0.45818 0.98529 0.20699 0.0
C1775 C 0.4842 0.00241 0.20256 0.0
C1776 C 0.46129 0.01427 0.16454 0.0
N1777 N 0.46945 0.97778 0.163 0.0
C1778 C 0.48046 0.0165 0.14522 0.0
C1779 C 0.47919 0.97886 0.15389 0.0
C1780 C 0.47164 0.05343 0.14597 0.0
C1781 C 0.4622 0.05262 0.15608 0.0
H1782 H 0.45358 0.01237 0.17183 0.0
H1783 H 0.48553 0.94941 0.15283 0.0
C1784 C 0.48338 0.80248 0.20424 0.0
N1785 N 0.47874 0.84628 0.20557 0.0
C1786 C 0.48886 0.77954 0.21508 0.0
C1787 C 0.48488 0.84738 0.2286 0.0
C1788 C 0.47938 0.86905 0.21744 0.0
C1789 C 0.4896 0.80175 0.22754 0.0
H1790 H 0.4824 0.78471 0.19478 0.0
H1791 H 0.47532 0.90336 0.2184 0.0
C1792 C 0.44776 0.91588 0.15257 0.0
N1793 N 0.44087 0.97984 0.13329 0.0
C1794 C 0.4374 0.946 0.15477 0.0
C1795 C 0.4545 0.91788 0.14049 0.0
C1796 C 0.43408 0.97815 0.14491 0.0
C1797 C 0.45092 0.95059 0.1309 0.0
C1798 C 0.45264 0.79612 0.19595 0.0
C1799 C 0.45326 0.74779 0.1962 0.0
C1800 C 0.44809 0.82015 0.20712 0.0
C1801 C 0.44926 0.72418 0.20766 0.0
C1802 C 0.44418 0.79528 0.21838 0.0
N1803 N 0.44484 0.74821 0.21842 0.0
C1804 C 0.47453 0.75341 0.16007 0.0
C1805 C 0.45962 0.78681 0.14486 0.0
C1806 C 0.4756 0.71391 0.15213 0.0
N1807 N 0.46664 0.78871 0.1563 0.0
C1808 C 0.4603 0.74785 0.13667 0.0
C1809 C 0.46827 0.71062 0.14037 0.0
H1810 H 0.47979 0.75565 0.16939 0.0
H1811 H 0.45324 0.81504 0.14226 0.0
C1812 C 0.42287 0.91532 0.18908 0.0
N1813 N 0.42955 0.87668 0.18555 0.0
C1814 C 0.40946 0.9133 0.19079 0.0
C1815 C 0.41025 0.83134 0.18594 0.0
C1816 C 0.42355 0.83518 0.18403 0.0
C1817 C 0.40291 0.8709 0.18907 0.0
H1818 H 0.42791 0.94797 0.19012 0.0
H1819 H 0.42909 0.80505 0.18113 0.0
O1820 O 0.47991 0.87635 0.17359 0.0
O1821 O 0.45851 0.92529 0.19056 0.0
O1822 O 0.45138 0.88506 0.16228 0.0
O1823 O 0.45682 0.81977 0.18493 0.0
H1824 H 0.50015 0.8365 0.18502 0.0
H1825 H 0.48226 0.86804 0.14731 0.0
H1826 H 0.51769 0.7959 0.1729 0.0
H1827 H 0.50022 0.82757 0.13582 0.0
H1828 H 0.45967 0.04027 0.22145 0.0
H1829 H 0.48336 0.94787 0.18799 0.0
H1830 H 0.44802 0.97905 0.20884 0.0
H1831 H 0.49435 0.00944 0.20092 0.0
H1832 H 0.48783 0.01541 0.13755 0.0
H1833 H 0.45533 0.08067 0.15717 0.0
H1834 H 0.49208 0.74412 0.2138 0.0
H1835 H 0.4853 0.86599 0.23798 0.0
H1836 H 0.43208 0.94505 0.16404 0.0
H1837 H 0.46252 0.89482 0.13858 0.0
H1838 H 0.42615 0.00193 0.14653 0.0
H1839 H 0.45614 0.95282 0.12156 0.0
H1840 H 0.45686 0.72879 0.18765 0.0
H1841 H 0.44768 0.85761 0.20714 0.0
H1842 H 0.44969 0.68676 0.20801 0.0
H1843 H 0.44066 0.81339 0.22711 0.0
H1844 H 0.48171 0.68562 0.15538 0.0
H1845 H 0.45455 0.74659 0.12764 0.0
H1846 H 0.40428 0.94496 0.193 0.0
H1847 H 0.40578 0.79766 0.18481 0.0
Li1848 Li 0.30252 0.86755 0.18183 0.0
Li1849 Li 0.28603 0.91035 0.16794 0.0
Li1850 Li 0.28039 0.88208 0.18992 0.0
Li1851 Li 0.28427 0.82896 0.1714 0.0
C1852 C 0.29642 0.95396 0.19609 0.0
N1853 N 0.30078 0.00697 0.21859 0.0
C1854 C 0.2936 0.00129 0.19598 0.0
C1855 C 0.3015 0.93357 0.20761 0.0
C1856 C 0.29587 0.02751 0.20747 0.0
C1857 C 0.30363 0.96098 0.21889 0.0
C1858 C 0.30206 0.83301 0.15242 0.0
C1859 C 0.29883 0.80209 0.13027 0.0
N1860 N 0.30827 0.77028 0.13256 0.0
C1861 C 0.31182 0.80031 0.15448 0.0
C1862 C 0.2956 0.83423 0.14016 0.0
C1863 C 0.3148 0.76882 0.14434 0.0
C1864 C 0.32639 0.82541 0.18894 0.0
N1865 N 0.32034 0.86615 0.18623 0.0
C1866 C 0.34031 0.90744 0.18771 0.0
C1867 C 0.32696 0.90679 0.18572 0.0
C1868 C 0.3469 0.86571 0.18997 0.0
C1869 C 0.33979 0.82432 0.19072 0.0
H1870 H 0.32086 0.79361 0.18925 0.0
H1871 H 0.32191 0.93859 0.1834 0.0
C1872 C 0.27595 0.99649 0.16 0.0
N1873 N 0.28426 0.962 0.15658 0.0
C1874 C 0.27506 0.03624 0.15213 0.0
C1875 C 0.29143 0.00432 0.13752 0.0
C1876 C 0.29192 0.96506 0.1456 0.0
C1877 C 0.28299 0.04065 0.14083 0.0
H1878 H 0.27016 0.99335 0.16895 0.0
H1879 H 0.2986 0.93741 0.14329 0.0
C1880 C 0.28402 0.78873 0.19704 0.0
N1881 N 0.27066 0.72026 0.2105 0.0
C1882 C 0.27068 0.78394 0.19527 0.0
C1883 C 0.29057 0.75863 0.20562 0.0
C1884 C 0.2641 0.74913 0.20217 0.0
C1885 C 0.28364 0.72425 0.21235 0.0
C1886 C 0.26031 0.89604 0.16654 0.0
C1887 C 0.24976 0.91404 0.17356 0.0
C1888 C 0.26053 0.89895 0.15261 0.0
C1889 C 0.23978 0.93576 0.16654 0.0
C1890 C 0.25038 0.92099 0.14595 0.0
N1891 N 0.24031 0.93884 0.153 0.0
C1892 C 0.26573 0.94548 0.20383 0.0
C1893 C 0.27129 0.88129 0.2174 0.0
C1894 C 0.26032 0.96847 0.21471 0.0
N1895 N 0.27114 0.9029 0.20533 0.0
C1896 C 0.26587 0.90298 0.22859 0.0
C1897 C 0.26043 0.94752 0.22737 0.0
H1898 H 0.26614 0.9625 0.19422 0.0
H1899 H 0.27596 0.84802 0.21847 0.0
C1900 C 0.28766 0.73493 0.16432 0.0
N1901 N 0.27989 0.77238 0.16248 0.0
C1902 C 0.28668 0.69668 0.15582 0.0
C1903 C 0.26914 0.73488 0.14431 0.0
C1904 C 0.27048 0.77244 0.15301 0.0
C1905 C 0.27759 0.69693 0.14539 0.0
H1906 H 0.29513 0.73594 0.17187 0.0
H1907 H 0.26448 0.80265 0.1517 0.0
O1908 O 0.29388 0.92745 0.18508 0.0
O1909 O 0.29874 0.8632 0.1624 0.0
O1910 O 0.29075 0.82238 0.19039 0.0
O1911 O 0.27019 0.8748 0.17329 0.0
H1912 H 0.2896 0.01748 0.18715 0.0
H1913 H 0.30361 0.89685 0.20788 0.0
H1914 H 0.29368 0.06415 0.20756 0.0
H1915 H 0.30749 0.94564 0.22791 0.0
H1916 H 0.29382 0.80239 0.1208 0.0
H1917 H 0.31692 0.79877 0.16388 0.0
H1918 H 0.28809 0.85943 0.13831 0.0
H1919 H 0.32224 0.74306 0.14586 0.0
H1920 H 0.3455 0.93992 0.1869 0.0
H1921 H 0.34457 0.7915 0.19246 0.0
H1922 H 0.26856 0.06381 0.1551 0.0
H1923 H 0.29765 0.00641 0.12884 0.0
H1924 H 0.26542 0.80678 0.18867 0.0
H1925 H 0.3009 0.76185 0.20707 0.0
H1926 H 0.25378 0.74506 0.20092 0.0
H1927 H 0.28858 0.70074 0.21903 0.0
H1928 H 0.24919 0.91081 0.18429 0.0
H1929 H 0.26854 0.88495 0.147 0.0
H1930 H 0.23159 0.94999 0.17186 0.0
H1931 H 0.25052 0.92392 0.13518 0.0
H1932 H 0.25655 0.0031 0.21327 0.0
H1933 H 0.2661 0.88528 0.23812 0.0
H1934 H 0.29326 0.66785 0.15716 0.0
H1935 H 0.26205 0.73674 0.13638 0.0
Li1936 Li 0.44733 0.86943 0.5688 0.0
Li1937 Li 0.46431 0.91071 0.58253 0.0
Li1938 Li 0.46956 0.88152 0.56054 0.0
Li1939 Li 0.46536 0.82908 0.5791 0.0
C1940 C 0.45436 0.95551 0.55448 0.0
N1941 N 0.45083 0.00976 0.53206 0.0
C1942 C 0.45779 0.00231 0.55471 0.0
C1943 C 0.44908 0.93629 0.54289 0.0
C1944 C 0.45594 0.02917 0.54326 0.0
C1945 C 0.44739 0.96429 0.53165 0.0
C1946 C 0.4479 0.83523 0.5983 0.0
C1947 C 0.45114 0.8051 0.62053 0.0
N1948 N 0.44162 0.77348 0.61839 0.0
C1949 C 0.43806 0.80274 0.59638 0.0
C1950 C 0.45441 0.83674 0.61053 0.0
C1951 C 0.43505 0.77174 0.60664 0.0
C1952 C 0.42263 0.83108 0.56245 0.0
N1953 N 0.42943 0.87065 0.56459 0.0
C1954 C 0.41025 0.91622 0.56273 0.0
C1955 C 0.42356 0.91272 0.56464 0.0
C1956 C 0.40278 0.87588 0.56111 0.0
C1957 C 0.40921 0.83285 0.5608 0.0
H1958 H 0.42756 0.79804 0.5625 0.0
H1959 H 0.42919 0.94364 0.56644 0.0
C1960 C 0.47525 0.99559 0.59049 0.0
N1961 N 0.46653 0.9623 0.59381 0.0
C1962 C 0.47638 0.03545 0.59827 0.0
C1963 C 0.45942 0.00609 0.61261 0.0
C1964 C 0.4587 0.96667 0.60462 0.0
C1965 C 0.46827 0.04122 0.60938 0.0
H1966 H 0.48116 0.99146 0.58166 0.0
H1967 H 0.4517 0.93999 0.60685 0.0
C1968 C 0.46512 0.78863 0.55348 0.0
N1969 N 0.4779 0.71888 0.53997 0.0
C1970 C 0.47845 0.78278 0.55511 0.0
C1971 C 0.4583 0.75895 0.54501 0.0
C1972 C 0.48473 0.74733 0.54818 0.0
C1973 C 0.46493 0.72392 0.53826 0.0
C1974 C 0.48998 0.89335 0.58369 0.0
C1975 C 0.50074 0.9089 0.57653 0.0
C1976 C 0.48988 0.89725 0.59761 0.0
C1977 C 0.51105 0.92926 0.58338 0.0
C1978 C 0.50036 0.91785 0.60409 0.0
N1979 N 0.51063 0.93337 0.5969 0.0
C1980 C 0.48482 0.94311 0.54672 0.0
C1981 C 0.47843 0.8804 0.53297 0.0
C1982 C 0.49034 0.96589 0.53587 0.0
N1983 N 0.47893 0.90141 0.54511 0.0
C1984 C 0.48396 0.90189 0.5218 0.0
C1985 C 0.48987 0.94562 0.52313 0.0
H1986 H 0.48469 0.95974 0.5564 0.0
H1987 H 0.47339 0.84786 0.53184 0.0
C1988 C 0.46163 0.73502 0.58631 0.0
N1989 N 0.46945 0.77234 0.58809 0.0
C1990 C 0.46255 0.69687 0.59485 0.0
C1991 C 0.48011 0.73503 0.60634 0.0
C1992 C 0.47884 0.7724 0.59758 0.0
C1993 C 0.47164 0.69715 0.6053 0.0
H1994 H 0.45417 0.73602 0.57874 0.0
H1995 H 0.4849 0.80248 0.59884 0.0
O1996 O 0.45647 0.92831 0.56545 0.0
O1997 O 0.45125 0.8649 0.5882 0.0
O1998 O 0.45868 0.82295 0.56015 0.0
O1999 O 0.47979 0.87345 0.5771 0.0
H2000 H 0.46193 0.0176 0.56361 0.0
H2001 H 0.44649 0.89998 0.54253 0.0
H2002 H 0.45859 0.06541 0.54327 0.0
H2003 H 0.44339 0.94985 0.52258 0.0
H2004 H 0.4562 0.80562 0.62999 0.0
H2005 H 0.43293 0.80097 0.587 0.0
H2006 H 0.46199 0.86179 0.61225 0.0
H2007 H 0.42754 0.74614 0.60523 0.0
H2008 H 0.40588 0.95028 0.56271 0.0
H2009 H 0.40394 0.80067 0.55978 0.0
H2010 H 0.4832 0.0621 0.59538 0.0
H2011 H 0.45305 0.0093 0.62114 0.0
H2012 H 0.48392 0.80528 0.56162 0.0
H2013 H 0.44798 0.76301 0.54367 0.0
H2014 H 0.49504 0.74243 0.54933 0.0
H2015 H 0.45978 0.70072 0.53166 0.0
H2016 H 0.50121 0.90482 0.56581 0.0
H2017 H 0.48171 0.88512 0.60333 0.0
H2018 H 0.5194 0.94161 0.57794 0.0
H2019 H 0.50031 0.92155 0.61484 0.0
H2020 H 0.49448 0.99993 0.5374 0.0
H2021 H 0.48343 0.88471 0.5122 0.0
H2022 H 0.45596 0.66809 0.59353 0.0
H2023 H 0.48719 0.73702 0.61428 0.0
Li2024 Li 0.28046 0.86826 0.56091 0.0
Li2025 Li 0.28415 0.92412 0.57899 0.0
Li2026 Li 0.30235 0.88264 0.56955 0.0
Li2027 Li 0.28571 0.84399 0.58337 0.0
C2028 C 0.28465 0.96013 0.55283 0.0
N2029 N 0.27188 0.02658 0.53798 0.0
C2030 C 0.27152 0.9688 0.55506 0.0
C2031 C 0.29128 0.98534 0.54308 0.0
C2032 C 0.26524 0.00252 0.54744 0.0
C2033 C 0.28465 0.01875 0.53567 0.0
C2034 C 0.2605 0.85536 0.58418 0.0
C2035 C 0.2506 0.83271 0.605 0.0
N2036 N 0.24161 0.80791 0.59813 0.0
C2037 C 0.25105 0.83023 0.57733 0.0
C2038 C 0.26015 0.85719 0.59813 0.0
C2039 C 0.24163 0.80628 0.58456 0.0
C2040 C 0.26756 0.80119 0.54668 0.0
N2041 N 0.27154 0.84586 0.54544 0.0
C2042 C 0.26501 0.84672 0.52251 0.0
C2043 C 0.27039 0.86889 0.53364 0.0
C2044 C 0.2609 0.80034 0.52352 0.0
C2045 C 0.26218 0.77775 0.53586 0.0
H2046 H 0.26893 0.78326 0.55606 0.0
H2047 H 0.27392 0.90394 0.53272 0.0
C2048 C 0.28823 0.01802 0.58552 0.0
N2049 N 0.27975 0.98239 0.58695 0.0
C2050 C 0.28717 0.05734 0.59358 0.0
C2051 C 0.26804 0.02425 0.60364 0.0
C2052 C 0.26953 0.98541 0.59544 0.0
C2053 C 0.27721 0.06014 0.6031 0.0
H2054 H 0.29629 0.01461 0.57872 0.0
H2055 H 0.26293 0.95661 0.59639 0.0
C2056 C 0.29835 0.79974 0.55566 0.0
N2057 N 0.30769 0.75325 0.53356 0.0
C2058 C 0.29911 0.75143 0.55571 0.0
C2059 C 0.30232 0.82446 0.54437 0.0
C2060 C 0.30387 0.72855 0.54444 0.0
C2061 C 0.30702 0.8003 0.5333 0.0
C2062 C 0.30206 0.92346 0.59796 0.0
C2063 C 0.3129 0.95122 0.59562 0.0
C2064 C 0.29496 0.92945 0.60972 0.0
C2065 C 0.31633 0.98499 0.60496 0.0
C2066 C 0.29867 0.9637 0.6188 0.0
N2067 N 0.30919 0.99055 0.61625 0.0
C2068 C 0.32621 0.92169 0.56098 0.0
C2069 C 0.32696 0.8428 0.56757 0.0
C2070 C 0.33959 0.92208 0.55902 0.0
N2071 N 0.32026 0.8826 0.56539 0.0
C2072 C 0.34028 0.84135 0.56545 0.0
C2073 C 0.34677 0.88156 0.56135 0.0
H2074 H 0.32062 0.95289 0.5594 0.0
H2075 H 0.32197 0.81239 0.57122 0.0
C2076 C 0.27754 0.75536 0.59081 0.0
N2077 N 0.28353 0.79414 0.59537 0.0
C2078 C 0.27659 0.71629 0.59895 0.0
C2079 C 0.28782 0.75824 0.61635 0.0
C2080 C 0.28859 0.79643 0.60786 0.0
C2081 C 0.28194 0.71722 0.61185 0.0
H2082 H 0.27376 0.75453 0.58074 0.0
H2083 H 0.29345 0.82752 0.61114 0.0
O2084 O 0.29109 0.92746 0.56015 0.0
O2085 O 0.26988 0.87869 0.57726 0.0
O2086 O 0.29346 0.8225 0.56652 0.0
O2087 O 0.29837 0.89095 0.58875 0.0
H2088 H 0.26621 0.94981 0.56256 0.0
H2089 H 0.30144 0.97905 0.54126 0.0
H2090 H 0.25509 0.00957 0.54905 0.0
H2091 H 0.28965 0.03847 0.52808 0.0
H2092 H 0.25033 0.83339 0.6158 0.0
H2093 H 0.25089 0.82955 0.56655 0.0
H2094 H 0.26732 0.87668 0.6036 0.0
H2095 H 0.2343 0.78652 0.57937 0.0
H2096 H 0.26415 0.8656 0.51321 0.0
H2097 H 0.25944 0.7418 0.53707 0.0
H2098 H 0.29433 0.08452 0.5927 0.0
H2099 H 0.26025 0.02489 0.61086 0.0
H2100 H 0.296 0.73184 0.56435 0.0
H2101 H 0.3017 0.86186 0.54411 0.0
H2102 H 0.3045 0.69115 0.54433 0.0
H2103 H 0.31011 0.81896 0.52449 0.0
H2104 H 0.31854 0.94711 0.58663 0.0
H2105 H 0.28655 0.90842 0.61174 0.0
H2106 H 0.32464 0.00691 0.60322 0.0
H2107 H 0.29317 0.96904 0.62786 0.0
H2108 H 0.34431 0.95373 0.55585 0.0
H2109 H 0.34553 0.80966 0.5675 0.0
H2110 H 0.27214 0.68522 0.595 0.0
H2111 H 0.29194 0.76062 0.62627 0.0
Li2112 Li 0.53578 0.65969 0.33259 0.0
Li2113 Li 0.53058 0.63388 0.31 0.0
Li2114 Li 0.53354 0.57723 0.329 0.0
Li2115 Li 0.55236 0.61556 0.31916 0.0
C2116 C 0.51012 0.64697 0.33323 0.0
N2117 N 0.49032 0.6911 0.34673 0.0
C2118 C 0.50003 0.66784 0.32615 0.0
C2119 C 0.51003 0.64804 0.34719 0.0
C2120 C 0.49014 0.6901 0.33315 0.0
C2121 C 0.49997 0.67067 0.35383 0.0
C2122 C 0.54834 0.71066 0.30723 0.0
C2123 C 0.56137 0.73655 0.28867 0.0
N2124 N 0.55644 0.77995 0.29007 0.0
C2125 C 0.54359 0.75576 0.30862 0.0
C2126 C 0.55746 0.70118 0.29729 0.0
C2127 C 0.54772 0.79019 0.2998 0.0
C2128 C 0.54186 0.71396 0.35504 0.0
N2129 N 0.53397 0.71084 0.34424 0.0
C2130 C 0.52466 0.78463 0.34905 0.0
C2131 C 0.52545 0.74501 0.34114 0.0
C2132 C 0.53284 0.78925 0.36015 0.0
C2133 C 0.54145 0.75311 0.3632 0.0
H2134 H 0.54865 0.68644 0.35716 0.0
H2135 H 0.51944 0.7419 0.33235 0.0
C2136 C 0.519 0.63223 0.28339 0.0
N2137 N 0.52117 0.65638 0.29484 0.0
C2138 C 0.51331 0.65412 0.27238 0.0
C2139 C 0.51141 0.7241 0.28546 0.0
C2140 C 0.51721 0.70105 0.29613 0.0
C2141 C 0.50961 0.70094 0.27329 0.0
H2142 H 0.52189 0.59634 0.28268 0.0
H2143 H 0.51873 0.71904 0.30545 0.0
C2144 C 0.55147 0.58003 0.34801 0.0
N2145 N 0.55837 0.51609 0.36727 0.0
C2146 C 0.5613 0.54799 0.34546 0.0
C2147 C 0.54526 0.57991 0.36041 0.0
C2148 C 0.56464 0.51591 0.35532 0.0
C2149 C 0.54884 0.54715 0.36999 0.0
C2150 C 0.54533 0.55368 0.29867 0.0
C2151 C 0.54816 0.50638 0.29801 0.0
C2152 C 0.54799 0.58197 0.28769 0.0
C2153 C 0.55372 0.4883 0.28641 0.0
C2154 C 0.55353 0.56261 0.27626 0.0
N2155 N 0.55627 0.51656 0.27587 0.0
C2156 C 0.51886 0.52235 0.34712 0.0
C2157 C 0.53625 0.48309 0.33671 0.0
C2158 C 0.51705 0.48552 0.35598 0.0
N2159 N 0.52857 0.52109 0.33798 0.0
C2160 C 0.53466 0.44517 0.34524 0.0
C2161 C 0.5252 0.44673 0.35528 0.0
H2162 H 0.51289 0.55282 0.34799 0.0
H2163 H 0.54416 0.48343 0.32967 0.0
C2164 C 0.57695 0.64372 0.32459 0.0
N2165 N 0.57058 0.61399 0.31638 0.0
C2166 C 0.59038 0.64673 0.32422 0.0
C2167 C 0.59054 0.5891 0.30671 0.0
C2168 C 0.57706 0.58677 0.30753 0.0
C2169 C 0.59735 0.61911 0.31522 0.0
H2170 H 0.57152 0.66494 0.33151 0.0
H2171 H 0.57186 0.56301 0.30119 0.0
O2172 O 0.51994 0.62535 0.32651 0.0
O2173 O 0.54444 0.67651 0.31586 0.0
O2174 O 0.5478 0.61078 0.33834 0.0
O2175 O 0.53998 0.57198 0.31002 0.0
H2176 H 0.4998 0.66664 0.31536 0.0
H2177 H 0.51778 0.63232 0.35284 0.0
H2178 H 0.4823 0.70651 0.32779 0.0
H2179 H 0.49986 0.67213 0.36463 0.0
H2180 H 0.56837 0.72954 0.28091 0.0
H2181 H 0.53672 0.76413 0.31637 0.0
H2182 H 0.56159 0.66702 0.29626 0.0
H2183 H 0.54402 0.82509 0.3007 0.0
H2184 H 0.51803 0.81198 0.34624 0.0
H2185 H 0.54784 0.75522 0.37174 0.0
H2186 H 0.51186 0.63474 0.26324 0.0
H2187 H 0.50873 0.76015 0.28663 0.0
H2188 H 0.56615 0.54738 0.3359 0.0
H2189 H 0.53766 0.60451 0.36256 0.0
H2190 H 0.57215 0.49068 0.35345 0.0
H2191 H 0.54403 0.54635 0.37958 0.0
H2192 H 0.5461 0.4838 0.30635 0.0
H2193 H 0.54573 0.61844 0.28795 0.0
H2194 H 0.55598 0.45178 0.28578 0.0
H2195 H 0.55564 0.5842 0.26771 0.0
H2196 H 0.50956 0.48782 0.36352 0.0
H2197 H 0.54125 0.41611 0.34449 0.0
H2198 H 0.59527 0.67059 0.33087 0.0
H2199 H 0.59561 0.56694 0.29972 0.0
Li2200 Li 0.69816 0.6335 0.31933 0.0
Li2201 Li 0.71689 0.67258 0.32917 0.0
Li2202 Li 0.71996 0.61624 0.31012 0.0
Li2203 Li 0.71493 0.58997 0.33269 0.0
C2204 C 0.70489 0.69634 0.29901 0.0
N2205 N 0.69353 0.73405 0.2765 0.0
C2206 C 0.70246 0.74393 0.29832 0.0
C2207 C 0.70162 0.66806 0.28821 0.0
C2208 C 0.69669 0.76231 0.28687 0.0
C2209 C 0.69587 0.68772 0.27693 0.0
C2210 C 0.69893 0.66886 0.34818 0.0
C2211 C 0.7014 0.7018 0.37017 0.0
N2212 N 0.69176 0.73241 0.36743 0.0
C2213 C 0.68899 0.70043 0.34561 0.0
C2214 C 0.70512 0.66925 0.36059 0.0
C2215 C 0.68552 0.73232 0.35548 0.0
C2216 C 0.67376 0.6007 0.32347 0.0
N2217 N 0.67997 0.63433 0.31648 0.0
C2218 C 0.65988 0.6623 0.30785 0.0
C2219 C 0.67335 0.66502 0.30875 0.0
C2220 C 0.65322 0.62824 0.31514 0.0
C2221 C 0.66034 0.59706 0.32298 0.0
H2222 H 0.6793 0.5769 0.32955 0.0
H2223 H 0.67843 0.69198 0.30345 0.0
C2224 C 0.73143 0.72796 0.34726 0.0
N2225 N 0.72167 0.72884 0.33817 0.0
C2226 C 0.73315 0.76482 0.35613 0.0
C2227 C 0.71535 0.80444 0.3455 0.0
C2228 C 0.71385 0.76649 0.33696 0.0
C2229 C 0.72487 0.80324 0.35549 0.0
H2230 H 0.73751 0.69778 0.34809 0.0
H2231 H 0.70592 0.76583 0.32995 0.0
C2232 C 0.70283 0.53829 0.30729 0.0
N2233 N 0.6957 0.46805 0.28999 0.0
C2234 C 0.70835 0.49426 0.30845 0.0
C2235 C 0.69343 0.54615 0.2975 0.0
C2236 C 0.7047 0.45935 0.29956 0.0
C2237 C 0.69002 0.51033 0.28881 0.0
C2238 C 0.74057 0.60436 0.3334 0.0
C2239 C 0.7509 0.58471 0.32641 0.0
C2240 C 0.74053 0.60311 0.34736 0.0
C2241 C 0.76091 0.56345 0.33349 0.0
C2242 C 0.75071 0.58151 0.35408 0.0
N2243 N 0.7606 0.56225 0.34707 0.0
C2244 C 0.73071 0.61793 0.28316 0.0
C2245 C 0.73405 0.55081 0.29631 0.0
C2246 C 0.73633 0.59618 0.27209 0.0
N2247 N 0.72933 0.59447 0.29485 0.0
C2248 C 0.73981 0.52796 0.28559 0.0
C2249 C 0.74077 0.55027 0.27318 0.0
H2250 H 0.72724 0.6531 0.2823 0.0
H2251 H 0.7331 0.53335 0.3058 0.0
C2252 C 0.70882 0.53539 0.355 0.0
N2253 N 0.71688 0.53891 0.34435 0.0
C2254 C 0.70923 0.49628 0.36317 0.0
C2255 C 0.72641 0.46563 0.34936 0.0
C2256 C 0.72562 0.50523 0.34144 0.0
C2257 C 0.71802 0.46054 0.36028 0.0
H2258 H 0.70187 0.56252 0.35697 0.0
H2259 H 0.7318 0.50869 0.33279 0.0
O2260 O 0.71037 0.67771 0.31023 0.0
O2261 O 0.70274 0.63833 0.3385 0.0
O2262 O 0.70626 0.57291 0.31597 0.0
O2263 O 0.73064 0.62502 0.3266 0.0
H2264 H 0.70501 0.7665 0.30651 0.0
H2265 H 0.70362 0.63141 0.28846 0.0
H2266 H 0.69472 0.79905 0.28622 0.0
H2267 H 0.69329 0.66614 0.26851 0.0
H2268 H 0.70619 0.7028 0.37976 0.0
H2269 H 0.68415 0.70081 0.33604 0.0
H2270 H 0.71281 0.64498 0.36275 0.0
H2271 H 0.67791 0.75718 0.3536 0.0
H2272 H 0.65469 0.6873 0.30182 0.0
H2273 H 0.65558 0.57008 0.32866 0.0
H2274 H 0.74067 0.76282 0.36364 0.0
H2275 H 0.70867 0.83322 0.34479 0.0
H2276 H 0.71544 0.48707 0.31609 0.0
H2277 H 0.6887 0.57937 0.29666 0.0
H2278 H 0.70901 0.42529 0.30029 0.0
H2279 H 0.68281 0.51611 0.28116 0.0
H2280 H 0.75124 0.58613 0.31563 0.0
H2281 H 0.7326 0.61795 0.35294 0.0
H2282 H 0.76894 0.548 0.3282 0.0
H2283 H 0.75072 0.57993 0.36488 0.0
H2284 H 0.73712 0.61493 0.26275 0.0
H2285 H 0.74308 0.4926 0.2869 0.0
H2286 H 0.70269 0.49386 0.37158 0.0
H2287 H 0.7332 0.43862 0.34669 0.0
Li2288 Li 0.53333 0.67133 0.92172 0.0
Li2289 Li 0.55218 0.63284 0.93151 0.0
Li2290 Li 0.53543 0.58868 0.91826 0.0
Li2291 Li 0.53042 0.61513 0.94081 0.0
C2292 C 0.5512 0.66787 0.90264 0.0
N2293 N 0.55816 0.73149 0.88332 0.0
C2294 C 0.56098 0.70009 0.9052 0.0
C2295 C 0.54507 0.66764 0.89021 0.0
C2296 C 0.56435 0.732 0.8953 0.0
C2297 C 0.54868 0.70023 0.88059 0.0
C2298 C 0.54532 0.69519 0.95193 0.0
C2299 C 0.55438 0.6859 0.97397 0.0
N2300 N 0.55652 0.73233 0.9746 0.0
C2301 C 0.54756 0.74285 0.95282 0.0
C2302 C 0.54872 0.66653 0.96261 0.0
C2303 C 0.55325 0.76095 0.96435 0.0
C2304 C 0.51882 0.72618 0.90344 0.0
N2305 N 0.52844 0.72745 0.91269 0.0
C2306 C 0.53459 0.80341 0.90551 0.0
C2307 C 0.5361 0.76546 0.91405 0.0
C2308 C 0.52523 0.80183 0.89537 0.0
C2309 C 0.5171 0.76303 0.89457 0.0
H2310 H 0.51288 0.69571 0.90249 0.0
H2311 H 0.54393 0.76513 0.92119 0.0
C2312 C 0.57668 0.60175 0.9269 0.0
N2313 N 0.57039 0.63427 0.93424 0.0
C2314 C 0.59011 0.59861 0.9273 0.0
C2315 C 0.59042 0.66199 0.94308 0.0
C2316 C 0.57694 0.6643 0.94224 0.0
C2317 C 0.59716 0.62907 0.93544 0.0
H2318 H 0.5712 0.57845 0.92061 0.0
H2319 H 0.5718 0.69041 0.94782 0.0
C2320 C 0.50973 0.60286 0.91758 0.0
N2321 N 0.48966 0.56088 0.90395 0.0
C2322 C 0.49935 0.58363 0.92459 0.0
C2323 C 0.50981 0.60126 0.90362 0.0
C2324 C 0.48932 0.56243 0.91752 0.0
C2325 C 0.4996 0.57973 0.89692 0.0
C2326 C 0.54769 0.53743 0.9436 0.0
C2327 C 0.54207 0.49353 0.94252 0.0
C2328 C 0.55724 0.54509 0.95323 0.0
C2329 C 0.54579 0.45854 0.95136 0.0
C2330 C 0.56071 0.5092 0.96188 0.0
N2331 N 0.55494 0.46705 0.96079 0.0
C2332 C 0.5417 0.53361 0.8961 0.0
C2333 C 0.52477 0.50381 0.90956 0.0
C2334 C 0.54133 0.49435 0.88799 0.0
N2335 N 0.53355 0.53739 0.90667 0.0
C2336 C 0.52403 0.46407 0.90169 0.0
C2337 C 0.5325 0.45874 0.89085 0.0
H2338 H 0.54868 0.56068 0.89415 0.0
H2339 H 0.51853 0.50745 0.91816 0.0
C2340 C 0.51982 0.61616 0.96787 0.0
N2341 N 0.52109 0.59311 0.95609 0.0
C2342 C 0.51423 0.59409 0.97891 0.0
C2343 C 0.51053 0.52651 0.96521 0.0
C2344 C 0.51629 0.54961 0.95453 0.0
C2345 C 0.50968 0.54836 0.97769 0.0
H2346 H 0.52334 0.65122 0.96882 0.0
H2347 H 0.51716 0.53248 0.94498 0.0
O2348 O 0.54749 0.63731 0.91235 0.0
O2349 O 0.53992 0.67685 0.94062 0.0
O2350 O 0.51969 0.62345 0.92437 0.0
O2351 O 0.5442 0.57211 0.93496 0.0
H2352 H 0.56578 0.70096 0.91479 0.0
H2353 H 0.53751 0.64286 0.88805 0.0
H2354 H 0.57183 0.75737 0.89718 0.0
H2355 H 0.54393 0.70076 0.87097 0.0
H2356 H 0.55704 0.66403 0.9823 0.0
H2357 H 0.54492 0.7657 0.94471 0.0
H2358 H 0.54688 0.62978 0.96218 0.0
H2359 H 0.55506 0.79775 0.96515 0.0
H2360 H 0.54115 0.83249 0.90635 0.0
H2361 H 0.5097 0.76071 0.88694 0.0
H2362 H 0.59494 0.57253 0.92134 0.0
H2363 H 0.59555 0.68641 0.94936 0.0
H2364 H 0.49899 0.58534 0.93536 0.0
H2365 H 0.51777 0.61575 0.89803 0.0
H2366 H 0.48125 0.5473 0.92283 0.0
H2367 H 0.49961 0.57787 0.88613 0.0
H2368 H 0.53486 0.48649 0.935 0.0
H2369 H 0.56203 0.57821 0.95401 0.0
H2370 H 0.54141 0.42458 0.95071 0.0
H2371 H 0.56804 0.51482 0.96941 0.0
H2372 H 0.54795 0.49173 0.87964 0.0
H2373 H 0.51719 0.43716 0.90434 0.0
H2374 H 0.51353 0.61246 0.98831 0.0
H2375 H 0.50717 0.4913 0.96381 0.0
Li2376 Li 0.71471 0.6618 0.91815 0.0
Li2377 Li 0.71978 0.63559 0.94071 0.0
Li2378 Li 0.71688 0.57924 0.92166 0.0
Li2379 Li 0.69802 0.61757 0.93145 0.0
C2380 C 0.7404 0.64819 0.91749 0.0
N2381 N 0.76039 0.69093 0.90392 0.0
C2382 C 0.75069 0.66793 0.92453 0.0
C2383 C 0.74038 0.64967 0.90353 0.0
C2384 C 0.76068 0.6895 0.91749 0.0
C2385 C 0.75054 0.67159 0.89686 0.0
C2386 C 0.70231 0.71292 0.94348 0.0
C2387 C 0.68921 0.74036 0.9618 0.0
N2388 N 0.69472 0.78294 0.96064 0.0
C2389 C 0.70765 0.75723 0.94233 0.0
C2390 C 0.69286 0.70464 0.95318 0.0
C2391 C 0.70377 0.79204 0.95115 0.0
C2392 C 0.70854 0.71657 0.89586 0.0
N2393 N 0.71657 0.71305 0.90654 0.0
C2394 C 0.72603 0.78653 0.90164 0.0
C2395 C 0.72525 0.74685 0.90952 0.0
C2396 C 0.71769 0.79158 0.89067 0.0
C2397 C 0.70895 0.75576 0.88772 0.0
H2398 H 0.70163 0.68933 0.89383 0.0
H2399 H 0.73139 0.74341 0.9182 0.0
C2400 C 0.73072 0.63445 0.96763 0.0
N2401 N 0.72914 0.65784 0.95594 0.0
C2402 C 0.73635 0.65652 0.97864 0.0
C2403 C 0.73946 0.72486 0.9651 0.0
C2404 C 0.73367 0.70173 0.95444 0.0
C2405 C 0.74061 0.70261 0.97749 0.0
H2406 H 0.72742 0.59909 0.96851 0.0
H2407 H 0.73258 0.71912 0.94495 0.0
C2408 C 0.699 0.58234 0.90259 0.0
N2409 N 0.69212 0.51849 0.88331 0.0
C2410 C 0.68924 0.55006 0.90516 0.0
C2411 C 0.70516 0.58251 0.89017 0.0
C2412 C 0.68591 0.51803 0.89528 0.0
C2413 C 0.70158 0.5498 0.88057 0.0
C2414 C 0.70499 0.55559 0.95194 0.0
C2415 C 0.70259 0.50802 0.95283 0.0
C2416 C 0.70184 0.58431 0.96269 0.0
C2417 C 0.69699 0.49009 0.96443 0.0
C2418 C 0.69626 0.56509 0.97412 0.0
N2419 N 0.69396 0.51876 0.97474 0.0
C2420 C 0.73142 0.52447 0.90339 0.0
C2421 C 0.71419 0.48502 0.91404 0.0
C2422 C 0.73317 0.48763 0.89452 0.0
N2423 N 0.72182 0.52312 0.91266 0.0
C2424 C 0.71572 0.44708 0.9055 0.0
C2425 C 0.72507 0.44874 0.89534 0.0
H2426 H 0.73734 0.55501 0.90243 0.0
H2427 H 0.70638 0.48529 0.92118 0.0
C2428 C 0.67346 0.64715 0.92642 0.0
N2429 N 0.6798 0.61595 0.93417 0.0
C2430 C 0.66002 0.65012 0.92681 0.0
C2431 C 0.65982 0.58935 0.94342 0.0
C2432 C 0.6733 0.58712 0.94257 0.0
C2433 C 0.65303 0.6209 0.93536 0.0
H2434 H 0.6789 0.66955 0.91983 0.0
H2435 H 0.67848 0.56209 0.94851 0.0
O2436 O 0.73049 0.62724 0.92425 0.0
O2437 O 0.70595 0.67841 0.93485 0.0
O2438 O 0.70268 0.61302 0.91229 0.0
O2439 O 0.71033 0.57377 0.94058 0.0
H2440 H 0.75102 0.66634 0.93531 0.0
H2441 H 0.73248 0.63481 0.89792 0.0
H2442 H 0.76867 0.70503 0.92282 0.0
H2443 H 0.75057 0.67336 0.88607 0.0
H2444 H 0.68196 0.73427 0.96939 0.0
H2445 H 0.71477 0.76473 0.93476 0.0
H2446 H 0.68828 0.67116 0.95402 0.0
H2447 H 0.70793 0.82632 0.95043 0.0
H2448 H 0.73279 0.8136 0.90435 0.0
H2449 H 0.70244 0.75818 0.87928 0.0
H2450 H 0.73729 0.63786 0.98798 0.0
H2451 H 0.7426 0.76035 0.96376 0.0
H2452 H 0.68444 0.54924 0.91475 0.0
H2453 H 0.71271 0.60732 0.888 0.0
H2454 H 0.67845 0.49262 0.89717 0.0
H2455 H 0.70635 0.54923 0.87096 0.0
H2456 H 0.70504 0.48513 0.94467 0.0
H2457 H 0.70379 0.62098 0.96226 0.0
H2458 H 0.69506 0.45336 0.96523 0.0
H2459 H 0.69379 0.587 0.9825 0.0
H2460 H 0.74055 0.49001 0.88689 0.0
H2461 H 0.70918 0.41792 0.90635 0.0
H2462 H 0.65514 0.67514 0.92052 0.0
H2463 H 0.65473 0.56591 0.95003 0.0
Li2464 Li 0.46988 0.36608 0.68985 0.0
Li2465 Li 0.46571 0.41993 0.67149 0.0
Li2466 Li 0.44789 0.37717 0.68114 0.0
Li2467 Li 0.46491 0.33913 0.66755 0.0
C2468 C 0.46494 0.45785 0.69742 0.0
N2469 N 0.47733 0.5264 0.71181 0.0
C2470 C 0.47805 0.46695 0.69523 0.0
C2471 C 0.45813 0.48368 0.7069 0.0
C2472 C 0.48413 0.50174 0.70262 0.0
C2473 C 0.46457 0.51817 0.71408 0.0
C2474 C 0.49018 0.35457 0.66675 0.0
C2475 C 0.50038 0.33092 0.64617 0.0
N2476 N 0.51008 0.31085 0.65329 0.0
C2477 C 0.50034 0.33427 0.67384 0.0
C2478 C 0.49029 0.35344 0.65279 0.0
C2479 C 0.51027 0.31214 0.66687 0.0
C2480 C 0.48382 0.30189 0.70398 0.0
N2481 N 0.47899 0.34541 0.70535 0.0
C2482 C 0.48487 0.34623 0.72845 0.0
C2483 C 0.47941 0.36791 0.71727 0.0
C2484 C 0.48978 0.30088 0.72735 0.0
C2485 C 0.48928 0.27895 0.71484 0.0
H2486 H 0.483 0.2843 0.69448 0.0
H2487 H 0.4752 0.40198 0.71825 0.0
C2488 C 0.4614 0.51376 0.66446 0.0
N2489 N 0.46967 0.47757 0.66294 0.0
C2490 C 0.46225 0.5522 0.65602 0.0
C2491 C 0.48067 0.5168 0.64525 0.0
C2492 C 0.47946 0.47908 0.6539 0.0
C2493 C 0.47174 0.5534 0.64596 0.0
H2494 H 0.45366 0.51154 0.6717 0.0
H2495 H 0.48589 0.44989 0.65287 0.0
C2496 C 0.45299 0.29476 0.69542 0.0
N2497 N 0.44491 0.24653 0.71772 0.0
C2498 C 0.45359 0.24642 0.69561 0.0
C2499 C 0.44831 0.31863 0.70656 0.0
C2500 C 0.44945 0.22265 0.70699 0.0
C2501 C 0.44426 0.29359 0.71774 0.0
C2502 C 0.44795 0.41558 0.65251 0.0
C2503 C 0.43744 0.44474 0.65502 0.0
C2504 C 0.45454 0.41901 0.64036 0.0
C2505 C 0.43382 0.47734 0.64541 0.0
C2506 C 0.45064 0.45214 0.63102 0.0
N2507 N 0.44045 0.48041 0.63372 0.0
C2508 C 0.42324 0.411 0.68974 0.0
C2509 C 0.42403 0.33338 0.68207 0.0
C2510 C 0.40984 0.40802 0.69141 0.0
N2511 N 0.42997 0.37411 0.68497 0.0
C2512 C 0.41072 0.32866 0.68375 0.0
C2513 C 0.40336 0.36654 0.68823 0.0
H2514 H 0.42824 0.44309 0.69187 0.0
H2515 H 0.42965 0.30467 0.67826 0.0
C2516 C 0.47515 0.25324 0.65965 0.0
N2517 N 0.46731 0.28868 0.65587 0.0
C2518 C 0.4762 0.2138 0.65168 0.0
C2519 C 0.46102 0.24817 0.63618 0.0
C2520 C 0.46036 0.28707 0.64438 0.0
C2521 C 0.46891 0.21074 0.63989 0.0
H2522 H 0.48036 0.25526 0.669 0.0
H2523 H 0.45403 0.31543 0.64179 0.0
O2524 O 0.45869 0.42406 0.69035 0.0
O2525 O 0.48034 0.37624 0.67344 0.0
O2526 O 0.45733 0.31853 0.68449 0.0
O2527 O 0.45187 0.38433 0.66196 0.0
H2528 H 0.4835 0.4475 0.68794 0.0
H2529 H 0.44798 0.47706 0.70869 0.0
H2530 H 0.49427 0.50913 0.70104 0.0
H2531 H 0.45942 0.53839 0.72146 0.0
H2532 H 0.5005 0.32932 0.63538 0.0
H2533 H 0.50064 0.33596 0.68462 0.0
H2534 H 0.48255 0.36908 0.64712 0.0
H2535 H 0.51816 0.29613 0.67225 0.0
H2536 H 0.48511 0.36461 0.73787 0.0
H2537 H 0.49264 0.24373 0.71353 0.0
H2538 H 0.4553 0.57999 0.65709 0.0
H2539 H 0.48809 0.516 0.63763 0.0
H2540 H 0.45729 0.22753 0.68709 0.0
H2541 H 0.44791 0.35609 0.70662 0.0
H2542 H 0.44987 0.18522 0.7073 0.0
H2543 H 0.44064 0.31159 0.72644 0.0
H2544 H 0.43225 0.44269 0.66437 0.0
H2545 H 0.46268 0.39673 0.63821 0.0
H2546 H 0.42577 0.50037 0.64728 0.0
H2547 H 0.45574 0.45549 0.62164 0.0
H2548 H 0.40459 0.43835 0.69472 0.0
H2549 H 0.40625 0.29572 0.68143 0.0
H2550 H 0.48225 0.18534 0.65494 0.0
H2551 H 0.4553 0.24708 0.62713 0.0
Li2552 Li 0.30282 0.36665 0.68247 0.0
Li2553 Li 0.28647 0.41575 0.66904 0.0
Li2554 Li 0.28078 0.37981 0.69018 0.0
Li2555 Li 0.28386 0.33221 0.67118 0.0
C2556 C 0.2935 0.4568 0.69718 0.0
N2557 N 0.29052 0.51591 0.71865 0.0
C2558 C 0.28624 0.49736 0.69583 0.0
C2559 C 0.2994 0.44661 0.70938 0.0
C2560 C 0.28481 0.52673 0.70682 0.0
C2561 C 0.29773 0.47685 0.72014 0.0
C2562 C 0.30037 0.34449 0.65114 0.0
C2563 C 0.29496 0.33325 0.62794 0.0
N2564 N 0.30304 0.29609 0.6275 0.0
C2565 C 0.3087 0.30646 0.65044 0.0
C2566 C 0.29349 0.35821 0.6398 0.0
C2567 C 0.30988 0.28232 0.63841 0.0
C2568 C 0.32693 0.32087 0.68528 0.0
N2569 N 0.3207 0.36214 0.68632 0.0
C2570 C 0.34056 0.40137 0.69081 0.0
C2571 C 0.32717 0.40191 0.68916 0.0
C2572 C 0.34735 0.35957 0.68934 0.0
C2573 C 0.34036 0.3188 0.68672 0.0
H2574 H 0.32151 0.28982 0.68301 0.0
H2575 H 0.32196 0.43433 0.68975 0.0
C2576 C 0.27367 0.49282 0.65812 0.0
N2577 N 0.28489 0.46836 0.65819 0.0
C2578 C 0.27269 0.53337 0.65059 0.0
C2579 C 0.29475 0.522 0.64324 0.0
C2580 C 0.29531 0.48184 0.65094 0.0
C2581 C 0.28337 0.54862 0.64311 0.0
H2582 H 0.26559 0.48122 0.66411 0.0
H2583 H 0.30409 0.46149 0.65123 0.0
C2584 C 0.29099 0.29642 0.70112 0.0
N2585 N 0.29203 0.24778 0.72486 0.0
C2586 C 0.28193 0.26169 0.70378 0.0
C2587 C 0.30074 0.30574 0.71041 0.0
C2588 C 0.28257 0.23771 0.71588 0.0
C2589 C 0.30106 0.28093 0.72238 0.0
C2590 C 0.25854 0.36247 0.67357 0.0
C2591 C 0.25529 0.32991 0.68332 0.0
C2592 C 0.24939 0.37543 0.66402 0.0
C2593 C 0.24291 0.31059 0.68332 0.0
C2594 C 0.23712 0.35528 0.66433 0.0
N2595 N 0.23416 0.32353 0.6739 0.0
C2596 C 0.26183 0.43035 0.70336 0.0
C2597 C 0.27362 0.38293 0.71831 0.0
C2598 C 0.25595 0.45349 0.71398 0.0
N2599 N 0.27075 0.39669 0.70566 0.0
C2600 C 0.26786 0.40484 0.72925 0.0
C2601 C 0.25919 0.4417 0.72718 0.0
H2602 H 0.25993 0.44146 0.69323 0.0
H2603 H 0.28085 0.3568 0.72002 0.0
C2604 C 0.28547 0.23862 0.66353 0.0
N2605 N 0.27915 0.27891 0.66095 0.0
C2606 C 0.28442 0.20128 0.65473 0.0
C2607 C 0.26986 0.24671 0.64115 0.0
C2608 C 0.27124 0.28331 0.65018 0.0
C2609 C 0.27678 0.20544 0.64318 0.0
H2610 H 0.29186 0.23638 0.67206 0.0
H2611 H 0.2666 0.31613 0.64817 0.0
O2612 O 0.29465 0.42686 0.68666 0.0
O2613 O 0.29871 0.3675 0.66295 0.0
O2614 O 0.29064 0.31967 0.68923 0.0
O2615 O 0.27063 0.3816 0.67329 0.0
H2616 H 0.28161 0.50572 0.68645 0.0
H2617 H 0.30506 0.41541 0.71059 0.0
H2618 H 0.27912 0.55802 0.70596 0.0
H2619 H 0.30214 0.46918 0.72969 0.0
H2620 H 0.28963 0.34325 0.61911 0.0
H2621 H 0.31403 0.29526 0.65915 0.0
H2622 H 0.28692 0.38736 0.64021 0.0
H2623 H 0.31619 0.25253 0.63775 0.0
H2624 H 0.3456 0.43364 0.69264 0.0
H2625 H 0.34524 0.28583 0.68562 0.0
H2626 H 0.26379 0.55311 0.65089 0.0
H2627 H 0.30313 0.53205 0.63744 0.0
H2628 H 0.27454 0.25309 0.69655 0.0
H2629 H 0.30793 0.33202 0.70845 0.0
H2630 H 0.27558 0.21093 0.71811 0.0
H2631 H 0.30849 0.28803 0.7297 0.0
H2632 H 0.26223 0.31987 0.69084 0.0
H2633 H 0.25179 0.40062 0.65639 0.0
H2634 H 0.24026 0.28532 0.69081 0.0
H2635 H 0.22995 0.36485 0.65697 0.0
H2636 H 0.24948 0.482 0.71183 0.0
H2637 H 0.2705 0.39389 0.73922 0.0
H2638 H 0.28982 0.1699 0.65675 0.0
H2639 H 0.26399 0.25162 0.6323 0.0
Li2640 Li 0.44747 0.36981 0.06888 0.0
Li2641 Li 0.46439 0.41109 0.08271 0.0
Li2642 Li 0.46973 0.38204 0.06074 0.0
Li2643 Li 0.46549 0.32948 0.07925 0.0
C2644 C 0.45463 0.45611 0.05464 0.0
N2645 N 0.45142 0.51059 0.03222 0.0
C2646 C 0.45828 0.5027 0.05489 0.0
C2647 C 0.44929 0.43723 0.04303 0.0
C2648 C 0.45659 0.52968 0.04344 0.0
C2649 C 0.44776 0.46535 0.03179 0.0
C2650 C 0.44785 0.33526 0.09828 0.0
C2651 C 0.45086 0.30448 0.12047 0.0
N2652 N 0.44134 0.27301 0.11816 0.0
C2653 C 0.43801 0.30292 0.09618 0.0
C2654 C 0.45425 0.33637 0.11058 0.0
C2655 C 0.43488 0.27166 0.10634 0.0
C2656 C 0.42284 0.33171 0.06205 0.0
N2657 N 0.4296 0.37108 0.06458 0.0
C2658 C 0.41041 0.41672 0.06296 0.0
C2659 C 0.42371 0.4131 0.06495 0.0
C2660 C 0.40298 0.37655 0.0609 0.0
C2661 C 0.40943 0.3336 0.06027 0.0
H2662 H 0.42779 0.2987 0.06187 0.0
H2663 H 0.42933 0.44384 0.06705 0.0
C2664 C 0.47524 0.49599 0.09083 0.0
N2665 N 0.46652 0.46258 0.09405 0.0
C2666 C 0.47627 0.53579 0.09866 0.0
C2667 C 0.45922 0.50608 0.11282 0.0
C2668 C 0.4586 0.46673 0.1048 0.0
C2669 C 0.46806 0.54136 0.10971 0.0
H2670 H 0.48123 0.49202 0.08206 0.0
H2671 H 0.45161 0.43994 0.10695 0.0
C2672 C 0.46535 0.28901 0.05367 0.0
N2673 N 0.47817 0.21899 0.04032 0.0
C2674 C 0.47871 0.28384 0.05513 0.0
C2675 C 0.45851 0.25852 0.04545 0.0
C2676 C 0.48502 0.24824 0.04829 0.0
C2677 C 0.46517 0.22336 0.03878 0.0
C2678 C 0.49004 0.39364 0.08405 0.0
C2679 C 0.50089 0.40914 0.07702 0.0
C2680 C 0.48979 0.3974 0.09796 0.0
C2681 C 0.51115 0.42927 0.084 0.0
C2682 C 0.50023 0.41778 0.10459 0.0
N2683 N 0.51059 0.43323 0.09753 0.0
C2684 C 0.48519 0.44327 0.04696 0.0
C2685 C 0.47846 0.38117 0.03315 0.0
C2686 C 0.49072 0.466 0.0361 0.0
N2687 N 0.47913 0.4019 0.04533 0.0
C2688 C 0.48397 0.40262 0.02197 0.0
C2689 C 0.49005 0.44603 0.02333 0.0
H2690 H 0.48518 0.45973 0.05666 0.0
H2691 H 0.47327 0.34892 0.032 0.0
C2692 C 0.46173 0.2354 0.08638 0.0
N2693 N 0.46956 0.27268 0.08821 0.0
C2694 C 0.46263 0.19716 0.0949 0.0
C2695 C 0.48018 0.23514 0.10645 0.0
C2696 C 0.47894 0.27261 0.09772 0.0
C2697 C 0.47171 0.1973 0.10536 0.0
H2698 H 0.45429 0.23649 0.0788 0.0
H2699 H 0.485 0.30266 0.09902 0.0
O2700 O 0.4566 0.42876 0.0656 0.0
O2701 O 0.45132 0.36517 0.08829 0.0
O2702 O 0.45888 0.32342 0.06027 0.0
O2703 O 0.4799 0.37395 0.07733 0.0
H2704 H 0.46247 0.51773 0.06379 0.0
H2705 H 0.44653 0.40108 0.04266 0.0
H2706 H 0.45942 0.56575 0.04345 0.0
H2707 H 0.44372 0.45116 0.02271 0.0
H2708 H 0.45582 0.30469 0.12998 0.0
H2709 H 0.43297 0.30145 0.08675 0.0
H2710 H 0.46182 0.3613 0.11244 0.0
H2711 H 0.42736 0.24617 0.10479 0.0
H2712 H 0.40601 0.45073 0.06323 0.0
H2713 H 0.40417 0.30155 0.05889 0.0
H2714 H 0.48309 0.56255 0.09586 0.0
H2715 H 0.45278 0.5091 0.12131 0.0
H2716 H 0.48419 0.30699 0.06143 0.0
H2717 H 0.44815 0.26204 0.04425 0.0
H2718 H 0.49536 0.24386 0.04931 0.0
H2719 H 0.46 0.19953 0.03238 0.0
H2720 H 0.50147 0.40518 0.06631 0.0
H2721 H 0.48155 0.3853 0.10358 0.0
H2722 H 0.51957 0.44156 0.07868 0.0
H2723 H 0.50007 0.42135 0.11534 0.0
H2724 H 0.49499 0.4998 0.03765 0.0
H2725 H 0.48329 0.3857 0.01235 0.0
H2726 H 0.45604 0.16842 0.09354 0.0
H2727 H 0.48726 0.237 0.1144 0.0
Li2728 Li 0.28044 0.36715 0.06054 0.0
Li2729 Li 0.28436 0.42045 0.07901 0.0
Li2730 Li 0.30259 0.38152 0.06862 0.0
Li2731 Li 0.28606 0.33909 0.08253 0.0
C2732 C 0.28415 0.46044 0.05335 0.0
N2733 N 0.27086 0.52901 0.03987 0.0
C2734 C 0.2708 0.46515 0.05504 0.0
C2735 C 0.29074 0.49067 0.04484 0.0
C2736 C 0.26425 0.50002 0.04812 0.0
C2737 C 0.28385 0.5251 0.03811 0.0
C2738 C 0.26038 0.35378 0.08401 0.0
C2739 C 0.25056 0.32939 0.10471 0.0
N2740 N 0.24041 0.31159 0.09776 0.0
C2741 C 0.24975 0.33585 0.0771 0.0
C2742 C 0.26069 0.35111 0.09794 0.0
C2743 C 0.23979 0.31444 0.08422 0.0
C2744 C 0.26556 0.30417 0.04667 0.0
N2745 N 0.27118 0.34638 0.04513 0.0
C2746 C 0.26606 0.34614 0.02183 0.0
C2747 C 0.27151 0.36771 0.03302 0.0
C2748 C 0.26038 0.30201 0.0231 0.0
C2749 C 0.26009 0.28133 0.03579 0.0
H2750 H 0.26584 0.2873 0.05631 0.0
H2751 H 0.27636 0.40065 0.03193 0.0
C2752 C 0.2878 0.51452 0.08606 0.0
N2753 N 0.28 0.47717 0.08787 0.0
C2754 C 0.28681 0.55284 0.09452 0.0
C2755 C 0.26917 0.51493 0.10594 0.0
C2756 C 0.27053 0.47729 0.09728 0.0
C2757 C 0.27765 0.55277 0.1049 0.0
H2758 H 0.29531 0.51338 0.07855 0.0
H2759 H 0.26448 0.44718 0.09856 0.0
C2760 C 0.29635 0.295 0.05443 0.0
N2761 N 0.30053 0.24171 0.03194 0.0
C2762 C 0.29332 0.24784 0.05454 0.0
C2763 C 0.30155 0.31508 0.04292 0.0
C2764 C 0.2955 0.22147 0.04306 0.0
C2765 C 0.30358 0.28754 0.03164 0.0
C2766 C 0.30224 0.41668 0.09789 0.0
C2767 C 0.31207 0.44899 0.09566 0.0
C2768 C 0.29584 0.41616 0.11019 0.0
C2769 C 0.31517 0.4808 0.10568 0.0
C2770 C 0.2992 0.4486 0.11994 0.0
N2771 N 0.30871 0.48002 0.1175 0.0
C2772 C 0.32647 0.42287 0.06109 0.0
C2773 C 0.327 0.34192 0.0651 0.0
C2774 C 0.33987 0.42361 0.05923 0.0
N2775 N 0.32041 0.38253 0.06421 0.0
C2776 C 0.34034 0.34091 0.06308 0.0
C2777 C 0.34696 0.38227 0.06036 0.0
H2778 H 0.32096 0.45466 0.06049 0.0
H2779 H 0.32192 0.31045 0.06773 0.0
C2780 C 0.27594 0.25311 0.09058 0.0
N2781 N 0.28425 0.28764 0.09397 0.0
C2782 C 0.27505 0.21347 0.09849 0.0
C2783 C 0.29139 0.24563 0.11309 0.0
C2784 C 0.29189 0.28478 0.10496 0.0
C2785 C 0.28296 0.20924 0.10981 0.0
H2786 H 0.27017 0.25612 0.08162 0.0
H2787 H 0.29855 0.31249 0.10726 0.0
O2788 O 0.29085 0.42674 0.06001 0.0
O2789 O 0.27024 0.37472 0.07715 0.0
O2790 O 0.2939 0.32168 0.06542 0.0
O2791 O 0.2988 0.38618 0.08804 0.0
H2792 H 0.26551 0.4422 0.06157 0.0
H2793 H 0.30108 0.48751 0.04346 0.0
H2794 H 0.25392 0.50403 0.04932 0.0
H2795 H 0.28882 0.54871 0.03148 0.0
H2796 H 0.25077 0.32664 0.11548 0.0
H2797 H 0.24911 0.3389 0.06636 0.0
H2798 H 0.26876 0.36507 0.10347 0.0
H2799 H 0.23155 0.30027 0.07898 0.0
H2800 H 0.26644 0.3636 0.01227 0.0
H2801 H 0.25612 0.24699 0.03726 0.0
H2802 H 0.29342 0.58159 0.09322 0.0
H2803 H 0.26202 0.51321 0.11383 0.0
H2804 H 0.28923 0.23189 0.06336 0.0
H2805 H 0.30382 0.35168 0.04264 0.0
H2806 H 0.29316 0.18496 0.04297 0.0
H2807 H 0.30753 0.30264 0.02264 0.0
H2808 H 0.31712 0.44999 0.08622 0.0
H2809 H 0.28828 0.39126 0.11216 0.0
H2810 H 0.32267 0.50626 0.10402 0.0
H2811 H 0.29424 0.44885 0.12945 0.0
H2812 H 0.34465 0.45615 0.0571 0.0
H2813 H 0.3455 0.30848 0.06419 0.0
H2814 H 0.26856 0.18585 0.09555 0.0
H2815 H 0.29759 0.24369 0.12179 0.0
C2816 C 0.11848 0.12952 0.32706 0.0
C2817 C 0.11175 0.12315 0.31501 0.0
H2818 H 0.13689 0.13665 0.3366 0.0
C2819 C 0.11876 0.11935 0.30304 0.0
H2820 H 0.11331 0.13223 0.33644 0.0
C2821 C 0.13227 0.12232 0.30312 0.0
C2822 C 0.13898 0.12828 0.3152 0.0
H2823 H 0.11378 0.11467 0.29362 0.0
H2824 H 0.13748 0.11927 0.29378 0.0
C2825 C 0.13195 0.13176 0.32716 0.0
C2826 C 0.13185 0.13193 0.92349 0.0
C2827 C 0.1387 0.12684 0.93552 0.0
H2828 H 0.11337 0.13794 0.91406 0.0
C2829 C 0.13178 0.12418 0.94758 0.0
H2830 H 0.13693 0.1337 0.91404 0.0
C2831 C 0.11827 0.12689 0.94759 0.0
C2832 C 0.11145 0.13152 0.93553 0.0
H2833 H 0.13683 0.12052 0.95699 0.0
H2834 H 0.11314 0.1246 0.957 0.0
C2835 C 0.11838 0.13403 0.92349 0.0
C2836 C 0.88176 0.83791 0.6816 0.0
C2837 C 0.88868 0.86888 0.6898 0.0
H2838 H 0.86324 0.81259 0.67542 0.0
C2839 C 0.88169 0.89791 0.6985 0.0
H2840 H 0.88668 0.81579 0.67451 0.0
C2841 C 0.86816 0.89672 0.69874 0.0
C2842 C 0.86136 0.86585 0.6905 0.0
H2843 H 0.88662 0.92164 0.70513 0.0
H2844 H 0.86301 0.91989 0.70538 0.0
C2845 C 0.86828 0.83613 0.68205 0.0
C2846 C 0.88202 0.83499 0.06778 0.0
C2847 C 0.88918 0.86797 0.06066 0.0
H2848 H 0.86341 0.81199 0.07401 0.0
C2849 C 0.88263 0.90212 0.05333 0.0
H2850 H 0.88687 0.80877 0.07368 0.0
C2851 C 0.86911 0.90342 0.05319 0.0
C2852 C 0.86185 0.87114 0.06063 0.0
H2853 H 0.88798 0.92782 0.04771 0.0
H2854 H 0.86438 0.92983 0.04728 0.0
C2855 C 0.86853 0.83681 0.06788 0.0
C2856 C 0.11884 0.61394 0.82673 0.0
C2857 C 0.11176 0.62135 0.81496 0.0
H2858 H 0.13753 0.61043 0.83585 0.0
C2859 C 0.11841 0.63118 0.80305 0.0
H2860 H 0.11395 0.60604 0.83602 0.0
C2861 C 0.13192 0.63411 0.80298 0.0
C2862 C 0.13899 0.62642 0.81475 0.0
H2863 H 0.11315 0.6373 0.79386 0.0
H2864 H 0.13684 0.64183 0.79369 0.0
C2865 C 0.13232 0.61617 0.82661 0.0
C2866 C 0.1182 0.62217 0.42344 0.0
C2867 C 0.11129 0.6258 0.43547 0.0
H2868 H 0.13674 0.61728 0.41407 0.0
C2869 C 0.11813 0.62716 0.44759 0.0
H2870 H 0.11318 0.62141 0.41395 0.0
C2871 C 0.13165 0.6245 0.44766 0.0
C2872 C 0.13854 0.62123 0.4356 0.0
H2873 H 0.11302 0.62969 0.457 0.0
H2874 H 0.13672 0.62568 0.45712 0.0
C2875 C 0.13168 0.62014 0.4235 0.0
C2876 C 0.88168 0.36468 0.19943 0.0
C2877 C 0.88849 0.38991 0.18969 0.0
H2878 H 0.86321 0.34346 0.20689 0.0
C2879 C 0.8815 0.41359 0.1798 0.0
H2880 H 0.88681 0.34638 0.20724 0.0
C2881 C 0.86803 0.41147 0.17949 0.0
C2882 C 0.86117 0.38595 0.18914 0.0
H2883 H 0.88648 0.43259 0.17202 0.0
H2884 H 0.86303 0.42888 0.17142 0.0
C2885 C 0.86816 0.36286 0.19919 0.0
C2886 C 0.88201 0.41292 0.56795 0.0
C2887 C 0.88879 0.38031 0.56017 0.0
H2888 H 0.86361 0.43957 0.57402 0.0
C2889 C 0.88166 0.34978 0.55204 0.0
H2890 H 0.88707 0.4363 0.57459 0.0
C2891 C 0.86814 0.35116 0.55195 0.0
C2892 C 0.86146 0.38357 0.55981 0.0
H2893 H 0.8865 0.32473 0.54574 0.0
H2894 H 0.86289 0.32687 0.54574 0.0
C2895 C 0.86853 0.41476 0.56768 0.0
C2896 C 0.63199 0.12544 0.82701 0.0
C2897 C 0.63885 0.12765 0.81492 0.0
H2898 H 0.6135 0.12135 0.83652 0.0
C2899 C 0.63195 0.12731 0.80282 0.0
H2900 H 0.63705 0.12599 0.83648 0.0
C2901 C 0.61844 0.12435 0.80284 0.0
C2902 C 0.61161 0.12247 0.81496 0.0
H2903 H 0.63702 0.12872 0.79337 0.0
H2904 H 0.61333 0.12418 0.7934 0.0
C2905 C 0.61852 0.12311 0.82703 0.0
C2906 C 0.6318 0.1235 0.44776 0.0
C2907 C 0.6387 0.12362 0.43567 0.0
H2908 H 0.61316 0.12607 0.45717 0.0
C2909 C 0.63186 0.12607 0.42358 0.0
H2910 H 0.63686 0.1219 0.45722 0.0
C2911 C 0.61838 0.12815 0.42355 0.0
C2912 C 0.61146 0.12833 0.43561 0.0
H2913 H 0.63693 0.12587 0.41412 0.0
H2914 H 0.61337 0.13006 0.41407 0.0
C2915 C 0.61828 0.12625 0.44773 0.0
C2916 C 0.36797 0.89588 0.1988 0.0
C2917 C 0.36119 0.86515 0.1905 0.0
H2918 H 0.38641 0.92071 0.20529 0.0
C2919 C 0.36815 0.83555 0.18204 0.0
H2920 H 0.36279 0.91895 0.20545 0.0
C2921 C 0.38162 0.83733 0.18164 0.0
C2922 C 0.38852 0.86819 0.1899 0.0
H2923 H 0.36313 0.8121 0.17536 0.0
H2924 H 0.38657 0.81532 0.17454 0.0
C2925 C 0.38149 0.89709 0.19861 0.0
C2926 C 0.36761 0.8476 0.55314 0.0
C2927 C 0.36104 0.88182 0.56043 0.0
H2928 H 0.38588 0.81984 0.54716 0.0
C2929 C 0.36819 0.91487 0.56754 0.0
H2930 H 0.36228 0.82183 0.54753 0.0
C2931 C 0.38167 0.91308 0.56767 0.0
C2932 C 0.38837 0.87868 0.56046 0.0
H2933 H 0.36333 0.94115 0.57341 0.0
H2934 H 0.38679 0.93796 0.57378 0.0
C2935 C 0.38113 0.84631 0.55304 0.0
C2936 C 0.63199 0.62783 0.30294 0.0
C2937 C 0.63891 0.62596 0.31501 0.0
H2938 H 0.61335 0.62657 0.29353 0.0
C2939 C 0.63208 0.62161 0.32707 0.0
H2940 H 0.63704 0.63092 0.29351 0.0
C2941 C 0.61861 0.61937 0.32709 0.0
C2942 C 0.61167 0.62099 0.31504 0.0
H2943 H 0.63716 0.62045 0.33652 0.0
H2944 H 0.61361 0.61597 0.33654 0.0
C2945 C 0.61848 0.62497 0.30295 0.0
C2946 C 0.63188 0.62462 0.94764 0.0
C2947 C 0.63872 0.62268 0.93553 0.0
H2948 H 0.61329 0.62874 0.95711 0.0
C2949 C 0.6318 0.62293 0.92346 0.0
H2950 H 0.63699 0.62475 0.95708 0.0
C2951 C 0.61833 0.6249 0.92347 0.0
C2952 C 0.61147 0.62719 0.93556 0.0
H2953 H 0.63683 0.62113 0.91398 0.0
H2954 H 0.61326 0.62513 0.91401 0.0
C2955 C 0.61836 0.62726 0.94766 0.0
C2956 C 0.36853 0.38433 0.69937 0.0
C2957 C 0.36169 0.35925 0.68964 0.0
H2958 H 0.38702 0.40541 0.70681 0.0
C2959 C 0.36863 0.33571 0.67969 0.0
H2960 H 0.36342 0.40254 0.70722 0.0
C2961 C 0.38211 0.33787 0.67932 0.0
C2962 C 0.38901 0.36324 0.68898 0.0
H2963 H 0.36362 0.31681 0.67191 0.0
H2964 H 0.38707 0.32062 0.67121 0.0
C2965 C 0.38204 0.38614 0.69909 0.0
C2966 C 0.36795 0.34976 0.05198 0.0
C2967 C 0.36126 0.38259 0.05969 0.0
H2968 H 0.38632 0.32301 0.04591 0.0
C2969 C 0.36832 0.41421 0.06742 0.0
H2970 H 0.36271 0.32513 0.04588 0.0
C2971 C 0.3818 0.4124 0.06772 0.0
C2972 C 0.3886 0.37937 0.0601 0.0
H2973 H 0.36339 0.43935 0.07364 0.0
H2974 H 0.38684 0.43614 0.07427 0.0
C2975 C 0.38148 0.3484 0.0521 0.0
C2976 C 0.9932 0.24692 0.26082 0.0
C2977 C 0.00552 0.22658 0.26026 0.0
H2978 H 0.97888 0.28733 0.25079 0.0
C2979 C 0.01313 0.23324 0.2488 0.0
H2980 H 0.98709 0.24202 0.26949 0.0
C2981 C 0.00856 0.26013 0.23817 0.0
C2982 C 0.9962 0.28054 0.23868 0.0
H2983 H 0.02274 0.21853 0.24819 0.0
H2984 H 0.01481 0.26539 0.22963 0.0
C2985 C 0.98856 0.27327 0.25013 0.0
C2986 C 0.25694 0.99468 0.26268 0.0
C2987 C 0.24611 0.02379 0.26146 0.0
H2988 H 0.27008 0.94852 0.25293 0.0
C2989 C 0.23993 0.02721 0.24901 0.0
H2990 H 0.26196 0.99162 0.27213 0.0
C2991 C 0.24443 0.00195 0.23804 0.0
C2992 C 0.25532 0.97295 0.23921 0.0
H2993 H 0.23142 0.04869 0.24781 0.0
H2994 H 0.23927 0.00478 0.22868 0.0
C2995 C 0.26152 0.96971 0.25169 0.0
C2996 C 0.99521 0.04456 0.99785 0.0
C2997 C 0.00412 0.02323 0.98922 0.0
H2998 H 0.98328 0.03787 0.01521 0.0
C2999 C 0.00791 0.97727 0.99187 0.0
H3000 H 0.99193 0.0796 0.99601 0.0
C3001 C 0.00291 0.95327 0.00285 0.0
C3002 C 0.99405 0.97469 0.0115 0.0
H3003 H 0.01493 0.95998 0.98558 0.0
H3004 H 0.00618 0.91821 0.0047 0.0
C3005 C 0.99024 0.02059 0.00886 0.0
C3006 C 0.25692 0.25412 0.98787 0.0
C3007 C 0.24585 0.22616 0.98903 0.0
H3008 H 0.2703 0.29928 0.99768 0.0
C3009 C 0.23951 0.22372 0.00142 0.0
H3010 H 0.26209 0.25637 0.97849 0.0
C3011 C 0.2441 0.24882 0.01238 0.0
C3012 C 0.25521 0.2767 0.01127 0.0
H3013 H 0.23082 0.20316 0.00257 0.0
H3014 H 0.23882 0.24675 0.0217 0.0
C3015 C 0.26157 0.27896 0.99886 0.0
C3016 C 0.98935 0.78343 0.75202 0.0
C3017 C 0.99493 0.77753 0.73932 0.0
H3018 H 0.98944 0.76381 0.77266 0.0
C3019 C 0.00529 0.74626 0.73794 0.0
H3020 H 0.98121 0.80649 0.75342 0.0
C3021 C 0.00988 0.72132 0.74893 0.0
C3022 C 0.00431 0.72731 0.76161 0.0
H3023 H 0.00998 0.74133 0.72838 0.0
H3024 H 0.01798 0.69803 0.74756 0.0
C3025 C 0.99401 0.75873 0.76303 0.0
C3026 C 0.7398 0.02794 0.74892 0.0
C3027 C 0.74605 0.0253 0.76134 0.0
H3028 H 0.73916 0.0048 0.72864 0.0
C3029 C 0.75701 0.99684 0.7626 0.0
H3030 H 0.73119 0.04889 0.7477 0.0
C3031 C 0.76165 0.97172 0.75165 0.0
C3032 C 0.75538 0.97419 0.73921 0.0
H3033 H 0.76211 0.99441 0.77202 0.0
H3034 H 0.77029 0.95102 0.75291 0.0
C3035 C 0.74437 0.00256 0.738 0.0
C3036 C 0.75687 0.75614 0.98796 0.0
C3037 C 0.74583 0.7281 0.9892 0.0
H3038 H 0.77026 0.80151 0.99768 0.0
C3039 C 0.73949 0.72595 0.00158 0.0
H3040 H 0.76202 0.75821 0.97856 0.0
C3041 C 0.74406 0.75137 0.01248 0.0
C3042 C 0.75518 0.77921 0.01132 0.0
H3043 H 0.73081 0.70533 0.00277 0.0
H3044 H 0.73878 0.74951 0.0218 0.0
C3045 C 0.76153 0.78123 0.99891 0.0
C3046 C 0.23704 0.51495 0.74904 0.0
C3047 C 0.24496 0.5239 0.76015 0.0
H3048 H 0.2351 0.48084 0.73018 0.0
C3049 C 0.25753 0.50559 0.76037 0.0
H3050 H 0.22723 0.52803 0.74869 0.0
C3051 C 0.26211 0.47893 0.74972 0.0
C3052 C 0.25416 0.46941 0.73864 0.0
H3053 H 0.26389 0.51229 0.76875 0.0
H3054 H 0.27197 0.46642 0.7501 0.0
C3055 C 0.24156 0.48784 0.73844 0.0
C3056 C 0.01086 0.52468 0.5011 0.0
C3057 C 0.00436 0.52286 0.4888 0.0
H3058 H 0.01176 0.50095 0.5213 0.0
C3059 C 0.99322 0.49524 0.48771 0.0
H3060 H 0.01961 0.54497 0.50219 0.0
C3061 C 0.98863 0.47022 0.4987 0.0
C3062 C 0.99514 0.4719 0.51103 0.0
H3063 H 0.98794 0.49344 0.47838 0.0
H3064 H 0.97983 0.45027 0.49758 0.0
C3065 C 0.00635 0.49935 0.51206 0.0
C3066 C 0.24071 0.71856 0.50225 0.0
C3067 C 0.24612 0.72486 0.48951 0.0
H3068 H 0.24085 0.73823 0.52284 0.0
C3069 C 0.25638 0.75641 0.48801 0.0
H3070 H 0.23264 0.69517 0.5037 0.0
C3071 C 0.26111 0.78111 0.49899 0.0
C3072 C 0.25567 0.77497 0.51174 0.0
H3073 H 0.26086 0.76168 0.47835 0.0
H3074 H 0.26918 0.80445 0.49752 0.0
C3075 C 0.2454 0.74338 0.51322 0.0
C3076 C 0.76156 0.47162 0.25163 0.0
C3077 C 0.75526 0.47422 0.2392 0.0
H3078 H 0.76209 0.49413 0.27201 0.0
C3079 C 0.74423 0.50253 0.23806 0.0
H3080 H 0.77022 0.45093 0.25283 0.0
C3081 C 0.73968 0.52774 0.24901 0.0
C3082 C 0.74597 0.52502 0.26141 0.0
H3083 H 0.739 0.50486 0.22871 0.0
H3084 H 0.73106 0.54863 0.24784 0.0
C3085 C 0.75696 0.49662 0.26261 0.0
C3086 C 0.76163 0.27881 0.49933 0.0
C3087 C 0.75523 0.27711 0.51172 0.0
H3088 H 0.76216 0.25555 0.47902 0.0
C3089 C 0.74405 0.24957 0.51286 0.0
H3090 H 0.7704 0.29884 0.49813 0.0
C3091 C 0.73945 0.22421 0.50196 0.0
C3092 C 0.74584 0.22608 0.48959 0.0
H3093 H 0.73873 0.24796 0.52217 0.0
H3094 H 0.73072 0.20389 0.50313 0.0
C3095 C 0.75697 0.25373 0.48839 0.0
C3096 C 0.50567 0.24581 0.73787 0.0
C3097 C 0.49499 0.27569 0.73917 0.0
H3098 H 0.51863 0.19864 0.74753 0.0
C3099 C 0.48908 0.28003 0.75176 0.0
H3100 H 0.5106 0.24211 0.72839 0.0
C3101 C 0.49374 0.25518 0.76275 0.0
C3102 C 0.50437 0.22521 0.7614 0.0
H3103 H 0.48069 0.30199 0.75309 0.0
H3104 H 0.4889 0.25902 0.77228 0.0
C3105 C 0.51027 0.22077 0.74883 0.0
C3106 C 0.48867 0.96925 0.49892 0.0
C3107 C 0.49506 0.97106 0.51132 0.0
H3108 H 0.48813 0.99254 0.47861 0.0
C3109 C 0.5062 0.99879 0.51247 0.0
H3110 H 0.47993 0.94907 0.4977 0.0
C3111 C 0.51076 0.02431 0.50158 0.0
C3112 C 0.50438 0.02238 0.48922 0.0
H3113 H 0.51152 0.00049 0.52178 0.0
H3114 H 0.51945 0.04485 0.50277 0.0
C3115 C 0.49331 0.99445 0.48799 0.0
C3116 C 0.50538 0.74603 0.23796 0.0
C3117 C 0.49486 0.7766 0.23935 0.0
H3118 H 0.51824 0.6983 0.24753 0.0
C3119 C 0.48915 0.78165 0.25201 0.0
H3120 H 0.51016 0.74178 0.22841 0.0
C3121 C 0.49384 0.7568 0.26299 0.0
C3122 C 0.50431 0.72612 0.26155 0.0
H3123 H 0.48089 0.80414 0.25342 0.0
H3124 H 0.48917 0.7612 0.27258 0.0
C3125 C 0.51001 0.72099 0.24891 0.0
C3126 C 0.50649 0.49857 0.01259 0.0
C3127 C 0.49522 0.47149 0.01152 0.0
H3128 H 0.51983 0.54408 0.0028 0.0
C3129 C 0.48868 0.47036 0.9992 0.0
H3130 H 0.51192 0.49974 0.02183 0.0
C3131 C 0.4933 0.49555 0.98826 0.0
C3132 C 0.50451 0.5228 0.9894 0.0
H3133 H 0.47983 0.45071 0.99805 0.0
H3134 H 0.488 0.49417 0.97894 0.0
C3135 C 0.51104 0.52408 0.00169 0.0
C3136 C 0.02031 0.39542 0.3781 0.0
C3137 C 0.03201 0.41707 0.38155 0.0
H3138 H 0.01115 0.33819 0.36832 0.0
C3139 C 0.04371 0.39675 0.37748 0.0
H3140 H 0.01114 0.41045 0.38102 0.0
C3141 C 0.04371 0.35563 0.37017 0.0
C3142 C 0.03202 0.3339 0.36675 0.0
H3143 H 0.05289 0.41226 0.38013 0.0
H3144 H 0.05289 0.3411 0.36708 0.0
C3145 C 0.02031 0.35429 0.37075 0.0
C3146 C 0.22935 0.85394 0.37921 0.0
C3147 C 0.21761 0.8328 0.38278 0.0
H3148 H 0.23858 0.91074 0.36928 0.0
C3149 C 0.20593 0.85364 0.3789 0.0
H3150 H 0.2385 0.83849 0.382 0.0
C3151 C 0.20598 0.89485 0.37162 0.0
C3152 C 0.2177 0.91598 0.36802 0.0
H3153 H 0.19674 0.83844 0.38165 0.0
H3154 H 0.19682 0.90986 0.36866 0.0
C3155 C 0.22939 0.89507 0.37186 0.0
C3156 C 0.04468 0.89528 0.87931 0.0
C3157 C 0.03296 0.9164 0.88295 0.0
H3158 H 0.05388 0.83879 0.86927 0.0
C3159 C 0.02126 0.89546 0.87918 0.0
H3160 H 0.05385 0.91034 0.88222 0.0
C3161 C 0.02128 0.85432 0.87184 0.0
C3162 C 0.033 0.83317 0.86823 0.0
H3163 H 0.01209 0.91113 0.8818 0.0
H3164 H 0.01212 0.83885 0.86909 0.0
C3165 C 0.04469 0.85402 0.87205 0.0
C3166 C 0.20696 0.39349 0.86981 0.0
C3167 C 0.21866 0.41559 0.86664 0.0
H3168 H 0.1977 0.33668 0.87959 0.0
C3169 C 0.23034 0.39553 0.87089 0.0
H3170 H 0.19781 0.40772 0.86651 0.0
C3171 C 0.23028 0.3544 0.87825 0.0
C3172 C 0.21856 0.33244 0.88146 0.0
H3173 H 0.23951 0.41191 0.86867 0.0
H3174 H 0.23943 0.33965 0.88136 0.0
C3175 C 0.2069 0.35241 0.87714 0.0
C3176 C 0.98026 0.64563 0.62904 0.0
C3177 C 0.96857 0.66765 0.63228 0.0
H3178 H 0.98937 0.58824 0.61921 0.0
C3179 C 0.95686 0.64789 0.62804 0.0
H3180 H 0.98942 0.66031 0.63215 0.0
C3181 C 0.95683 0.6068 0.62074 0.0
C3182 C 0.96851 0.58481 0.61744 0.0
H3183 H 0.9477 0.66389 0.63053 0.0
H3184 H 0.94766 0.59248 0.61753 0.0
C3185 C 0.98024 0.60467 0.62159 0.0
C3186 C 0.79471 0.10391 0.6289 0.0
C3187 C 0.783 0.08341 0.6328 0.0
H3188 H 0.80392 0.15974 0.61858 0.0
C3189 C 0.77129 0.10461 0.62917 0.0
H3190 H 0.80388 0.08857 0.63169 0.0
C3191 C 0.77131 0.14547 0.62169 0.0
C3192 C 0.78304 0.16604 0.61785 0.0
H3193 H 0.76212 0.08935 0.63201 0.0
H3194 H 0.76217 0.16124 0.61902 0.0
C3195 C 0.79474 0.14488 0.62153 0.0
C3196 C 0.957 0.12814 0.13519 0.0
C3197 C 0.96754 0.15884 0.13512 0.0
H3198 H 0.94893 0.06513 0.12777 0.0
C3199 C 0.97855 0.14744 0.12758 0.0
H3200 H 0.94844 0.13551 0.14106 0.0
C3201 C 0.97892 0.10654 0.12012 0.0
C3202 C 0.96829 0.0762 0.12005 0.0
H3203 H 0.9868 0.17051 0.12725 0.0
H3204 H 0.98754 0.09869 0.11441 0.0
C3205 C 0.95735 0.08739 0.12773 0.0
C3206 C 0.76971 0.605 0.12873 0.0
C3207 C 0.78136 0.58288 0.1321 0.0
H3208 H 0.76076 0.66258 0.11885 0.0
C3209 C 0.79313 0.60263 0.12804 0.0
H3210 H 0.76052 0.59033 0.1317 0.0
C3211 C 0.79327 0.64381 0.12079 0.0
C3212 C 0.78164 0.66591 0.11736 0.0
H3213 H 0.80225 0.58656 0.13065 0.0
H3214 H 0.80248 0.65811 0.11772 0.0
C3215 C 0.76985 0.64607 0.12133 0.0
C3216 C 0.52078 0.35348 0.87174 0.0
C3217 C 0.5325 0.33222 0.86817 0.0
H3218 H 0.51158 0.41042 0.88162 0.0
C3219 C 0.54419 0.353 0.87205 0.0
H3220 H 0.51162 0.33808 0.86895 0.0
C3221 C 0.54417 0.39422 0.87932 0.0
C3222 C 0.53246 0.41548 0.8829 0.0
H3223 H 0.55338 0.33773 0.86931 0.0
H3224 H 0.55334 0.40916 0.88228 0.0
C3225 C 0.52076 0.39465 0.87906 0.0
C3226 C 0.7295 0.85579 0.87901 0.0
C3227 C 0.71778 0.83475 0.88268 0.0
H3228 H 0.73869 0.91253 0.86903 0.0
C3229 C 0.70608 0.85578 0.87892 0.0
H3230 H 0.73866 0.84021 0.88171 0.0
C3231 C 0.7061 0.89699 0.87165 0.0
C3232 C 0.71782 0.91801 0.86795 0.0
H3233 H 0.6969 0.84068 0.88175 0.0
H3234 H 0.69693 0.9121 0.86878 0.0
C3235 C 0.72952 0.89696 0.87168 0.0
C3236 C 0.52103 0.85363 0.37171 0.0
C3237 C 0.53275 0.83235 0.36816 0.0
H3238 H 0.51182 0.91057 0.38158 0.0
C3239 C 0.54444 0.8531 0.37206 0.0
H3240 H 0.51187 0.83826 0.3689 0.0
C3241 C 0.54442 0.89433 0.37933 0.0
C3242 C 0.5327 0.9156 0.38289 0.0
H3243 H 0.55363 0.83779 0.36934 0.0
H3244 H 0.55358 0.90926 0.3823 0.0
C3245 C 0.521 0.89479 0.37904 0.0
C3246 C 0.72976 0.35506 0.3793 0.0
C3247 C 0.71803 0.33406 0.38299 0.0
H3248 H 0.73895 0.41179 0.36932 0.0
C3249 C 0.70634 0.35516 0.37926 0.0
H3250 H 0.73892 0.33943 0.38197 0.0
C3251 C 0.70636 0.39638 0.37199 0.0
C3252 C 0.71807 0.41735 0.36827 0.0
H3253 H 0.69715 0.34011 0.3821 0.0
H3254 H 0.69719 0.41151 0.36913 0.0
C3255 C 0.72978 0.39625 0.37198 0.0
C3256 C 0.45659 0.60693 0.12079 0.0
C3257 C 0.46825 0.58469 0.11757 0.0
H3258 H 0.4475 0.66421 0.13053 0.0
C3259 C 0.47999 0.60434 0.12176 0.0
H3260 H 0.44741 0.59278 0.11755 0.0
C3261 C 0.48004 0.64533 0.12919 0.0
C3262 C 0.46836 0.66758 0.13237 0.0
H3263 H 0.4891 0.58771 0.11944 0.0
H3264 H 0.4892 0.65984 0.13235 0.0
C3265 C 0.45665 0.64804 0.12808 0.0
C3266 C 0.27115 0.10453 0.12908 0.0
C3267 C 0.28287 0.08371 0.13283 0.0
H3268 H 0.26198 0.16079 0.1188 0.0
C3269 C 0.29457 0.10456 0.12904 0.0
H3270 H 0.26199 0.089 0.13184 0.0
C3271 C 0.29456 0.14549 0.12166 0.0
C3272 C 0.28286 0.16625 0.11784 0.0
H3273 H 0.30375 0.0895 0.13192 0.0
H3274 H 0.30374 0.16061 0.11878 0.0
C3275 C 0.27114 0.14534 0.12158 0.0
C3276 C 0.45713 0.14834 0.6277 0.0
C3277 C 0.4689 0.16767 0.63192 0.0
H3278 H 0.44775 0.09316 0.61727 0.0
C3279 C 0.48052 0.14512 0.62871 0.0
H3280 H 0.44802 0.16476 0.63018 0.0
C3281 C 0.48036 0.10405 0.62132 0.0
C3282 C 0.46857 0.08462 0.6172 0.0
H3283 H 0.48972 0.15946 0.63182 0.0
H3284 H 0.48944 0.08719 0.61897 0.0
C3285 C 0.45697 0.10715 0.62045 0.0
C3286 C 0.27163 0.60439 0.62813 0.0
C3287 C 0.28278 0.59242 0.63538 0.0
H3288 H 0.26254 0.65352 0.61515 0.0
C3289 C 0.29346 0.62248 0.63514 0.0
H3290 H 0.26327 0.5818 0.62805 0.0
C3291 C 0.29309 0.66317 0.62765 0.0
C3292 C 0.28202 0.67492 0.62026 0.0
H3293 H 0.30212 0.61464 0.64077 0.0
H3294 H 0.30161 0.68495 0.62744 0.0
C3295 C 0.27126 0.64522 0.62064 0.0
C3296 C 0.02485 0.88624 0.38829 0.0
C3297 C 0.02476 0.83936 0.38454 0.0
H3298 H 0.025 0.95696 0.38174 0.0
C3299 C 0.02459 0.82801 0.37088 0.0
H3300 H 0.02499 0.89591 0.39874 0.0
C3301 C 0.02474 0.86286 0.36117 0.0
C3302 C 0.02483 0.90974 0.36492 0.0
H3303 H 0.02468 0.79212 0.36771 0.0
H3304 H 0.02478 0.85318 0.35071 0.0
C3305 C 0.02477 0.92109 0.37858 0.0
C3306 C 0.22609 0.42118 0.37169 0.0
C3307 C 0.2258 0.4099 0.38535 0.0
H3308 H 0.22607 0.39593 0.35154 0.0
C3309 C 0.22572 0.36303 0.38912 0.0
H3310 H 0.22599 0.45705 0.36851 0.0
C3311 C 0.22589 0.32814 0.37942 0.0
C3312 C 0.22593 0.33942 0.36576 0.0
H3313 H 0.2255 0.35339 0.39957 0.0
H3314 H 0.22563 0.29228 0.3826 0.0
C3315 C 0.22604 0.38629 0.36199 0.0
C3316 C 0.02434 0.36344 0.8617 0.0
C3317 C 0.02421 0.41032 0.86546 0.0
H3318 H 0.02448 0.29269 0.86822 0.0
C3319 C 0.02386 0.4216 0.87912 0.0
H3320 H 0.02461 0.35379 0.85125 0.0
C3321 C 0.0239 0.38671 0.88882 0.0
C3322 C 0.02408 0.33983 0.88506 0.0
H3323 H 0.02392 0.45746 0.8823 0.0
H3324 H 0.02383 0.39636 0.89928 0.0
C3325 C 0.02417 0.32855 0.8714 0.0
C3326 C 0.22498 0.8637 0.88855 0.0
C3327 C 0.22519 0.91057 0.8848 0.0
H3328 H 0.22484 0.79296 0.88201 0.0
C3329 C 0.22555 0.9219 0.87115 0.0
H3330 H 0.22469 0.85404 0.899 0.0
C3331 C 0.22549 0.88704 0.86143 0.0
C3332 C 0.2253 0.84017 0.86519 0.0
H3333 H 0.22555 0.95779 0.86798 0.0
H3334 H 0.2256 0.8967 0.85098 0.0
C3335 C 0.22515 0.82884 0.87885 0.0
C3336 C 0.98368 0.1431 0.62054 0.0
C3337 C 0.972 0.16001 0.61525 0.0
H3338 H 0.99281 0.0969 0.63438 0.0
C3339 C 0.9603 0.14201 0.62016 0.0
H3340 H 0.99287 0.156 0.61694 0.0
C3341 C 0.96026 0.10793 0.63008 0.0
C3342 C 0.97193 0.09102 0.63539 0.0
H3343 H 0.95111 0.15474 0.61649 0.0
H3344 H 0.95106 0.09437 0.63345 0.0
C3345 C 0.98365 0.10897 0.63048 0.0
C3346 C 0.76596 0.60762 0.6206 0.0
C3347 C 0.77767 0.59035 0.6155 0.0
H3348 H 0.75675 0.65437 0.63425 0.0
C3349 C 0.78935 0.60799 0.62058 0.0
H3350 H 0.75679 0.5949 0.61687 0.0
C3351 C 0.78932 0.64209 0.63048 0.0
C3352 C 0.77762 0.65943 0.63558 0.0
H3353 H 0.79855 0.59496 0.61704 0.0
H3354 H 0.7985 0.65536 0.63401 0.0
C3355 C 0.76593 0.64188 0.6305 0.0
C3356 C 0.96177 0.60326 0.12917 0.0
C3357 C 0.97342 0.58237 0.13318 0.0
H3358 H 0.95257 0.65355 0.1167 0.0
C3359 C 0.985 0.59655 0.12707 0.0
H3360 H 0.95265 0.59266 0.13353 0.0
C3361 C 0.98494 0.63128 0.11729 0.0
C3362 C 0.97327 0.65219 0.11331 0.0
H3363 H 0.99413 0.58121 0.12996 0.0
H3364 H 0.99401 0.64158 0.11278 0.0
C3365 C 0.9617 0.63769 0.11937 0.0
C3366 C 0.79005 0.1426 0.13041 0.0
C3367 C 0.77834 0.15934 0.13568 0.0
H3368 H 0.79929 0.096 0.11683 0.0
C3369 C 0.76666 0.14127 0.13072 0.0
H3370 H 0.79922 0.15626 0.13382 0.0
C3371 C 0.76669 0.10724 0.12076 0.0
C3372 C 0.77841 0.09051 0.1155 0.0
H3373 H 0.75747 0.15319 0.1346 0.0
H3374 H 0.75753 0.09427 0.11712 0.0
C3375 C 0.79008 0.10859 0.12048 0.0
C3376 C 0.52448 0.88585 0.8889 0.0
C3377 C 0.52456 0.83897 0.88514 0.0
H3378 H 0.52452 0.95659 0.88236 0.0
C3379 C 0.52453 0.82765 0.87148 0.0
H3380 H 0.52451 0.89551 0.89935 0.0
C3381 C 0.52467 0.86252 0.86177 0.0
C3382 C 0.52462 0.90939 0.86553 0.0
H3383 H 0.52475 0.79178 0.8683 0.0
H3384 H 0.52484 0.85286 0.85132 0.0
C3385 C 0.5244 0.92071 0.87919 0.0
C3386 C 0.72574 0.42292 0.87145 0.0
C3387 C 0.72575 0.4116 0.88511 0.0
H3388 H 0.72542 0.39771 0.85129 0.0
C3389 C 0.72586 0.36473 0.88887 0.0
H3390 H 0.72549 0.45879 0.86828 0.0
C3391 C 0.72595 0.32986 0.87916 0.0
C3392 C 0.7257 0.34117 0.8655 0.0
H3393 H 0.72586 0.35507 0.89932 0.0
H3394 H 0.72586 0.29398 0.88234 0.0
C3395 C 0.72561 0.38805 0.86174 0.0
C3396 C 0.5242 0.42087 0.37916 0.0
C3397 C 0.52443 0.40957 0.3655 0.0
H3398 H 0.52429 0.39565 0.39932 0.0
C3399 C 0.52449 0.36269 0.36174 0.0
H3400 H 0.52432 0.45674 0.38234 0.0
C3401 C 0.52435 0.32782 0.37145 0.0
C3402 C 0.52437 0.33912 0.38511 0.0
H3403 H 0.52467 0.35304 0.35129 0.0
H3404 H 0.52459 0.29195 0.36827 0.0
C3405 C 0.52428 0.38599 0.38887 0.0
C3406 C 0.72559 0.92211 0.37166 0.0
C3407 C 0.72557 0.91077 0.38532 0.0
H3408 H 0.7253 0.89692 0.3515 0.0
C3409 C 0.72567 0.8639 0.38908 0.0
H3410 H 0.72535 0.95799 0.36849 0.0
C3411 C 0.72578 0.82905 0.37937 0.0
C3412 C 0.72556 0.84038 0.36571 0.0
H3413 H 0.72565 0.85424 0.39953 0.0
H3414 H 0.72569 0.79316 0.38254 0.0
C3415 C 0.72548 0.88725 0.36195 0.0
C3416 C 0.46009 0.14169 0.12048 0.0
C3417 C 0.47179 0.15981 0.11558 0.0
H3418 H 0.45088 0.09397 0.13375 0.0
C3419 C 0.48348 0.14304 0.1209 0.0
H3420 H 0.45091 0.15431 0.11678 0.0
C3421 C 0.48346 0.10893 0.13084 0.0
C3422 C 0.47175 0.09086 0.13573 0.0
H3423 H 0.49266 0.15604 0.11732 0.0
H3424 H 0.49262 0.09696 0.13476 0.0
C3425 C 0.46007 0.10763 0.1304 0.0
C3426 C 0.26579 0.6421 0.13004 0.0
C3427 C 0.27748 0.65947 0.13517 0.0
H3428 H 0.25664 0.59524 0.11638 0.0
C3429 C 0.28918 0.6419 0.13012 0.0
H3430 H 0.25661 0.65476 0.13375 0.0
C3431 C 0.2892 0.60776 0.12022 0.0
C3432 C 0.27752 0.5903 0.1151 0.0
H3433 H 0.29837 0.65501 0.13368 0.0
H3434 H 0.29839 0.59455 0.11672 0.0
C3435 C 0.26581 0.6078 0.12015 0.0
C3436 C 0.48348 0.60917 0.63085 0.0
C3437 C 0.4718 0.59086 0.63572 0.0
H3438 H 0.49264 0.65636 0.61732 0.0
C3439 C 0.4601 0.60739 0.63037 0.0
H3440 H 0.49266 0.59742 0.63479 0.0
C3441 C 0.46009 0.64141 0.62044 0.0
C3442 C 0.47176 0.65973 0.61555 0.0
H3443 H 0.45093 0.59354 0.63371 0.0
H3444 H 0.45088 0.65384 0.61673 0.0
C3445 C 0.48346 0.64321 0.62089 0.0
C3446 C 0.26534 0.11983 0.61679 0.0
C3447 C 0.27699 0.09829 0.61308 0.0
H3448 H 0.2561 0.17052 0.62923 0.0
C3449 C 0.2885 0.11219 0.61938 0.0
H3450 H 0.25632 0.10995 0.6121 0.0
C3451 C 0.28838 0.14666 0.62917 0.0
C3452 C 0.27674 0.16822 0.6329 0.0
H3453 H 0.29762 0.09583 0.6169 0.0
H3454 H 0.29745 0.15679 0.63372 0.0
C3455 C 0.26522 0.15463 0.62655 0.0
loop_
_geom_bond_atom_site_label_1
_geom_bond_atom_site_label_2
_geom_bond_distance
_geom_bond_site_symmetry_2
_ccdc_geom_bond_type
Li0 N17 1.990 . S
Li0 O60 1.956 . S
Li0 O61 1.970 . S
Li0 O62 1.961 . S
Li1 N25 1.990 . S
Li1 O60 1.970 . S
Li1 O61 1.956 . S
Li1 O63 1.961 . S
Li2 N47 1.990 . S
Li2 O60 1.961 . S
Li2 O62 1.956 . S
Li2 O63 1.970 . S
Li3 N53 1.990 . S
Li3 O61 1.961 . S
Li3 O62 1.970 . S
Li3 O63 1.956 . S
C4 C6 1.348 . S
C4 C7 1.356 . S
C4 O60 1.325 . S
N5 C8 1.314 . S
N5 C9 1.279 . S
C6 C4 1.348 . S
C6 C8 1.353 . S
C6 H64 0.929 . S
C7 C4 1.356 . S
C7 C9 1.358 . S
C7 H65 0.930 . S
C8 N5 1.314 . S
C8 C6 1.353 . S
C8 H66 0.930 . S
C9 N5 1.279 . S
C9 C7 1.358 . S
C9 H67 0.930 . S
C10 C13 1.348 1_455 S
C10 C14 1.356 . S
C10 O61 1.325 . S
C11 N12 1.279 . S
C11 C14 1.358 1_655 S
C11 H68 0.930 . S
N12 C11 1.279 . S
N12 C15 1.314 . S
C13 C10 1.348 1_655 S
C13 C15 1.353 . S
C13 H69 0.923 1_655 S
C14 C10 1.356 . S
C14 C11 1.358 1_455 S
C14 H70 0.930 . S
C15 N12 1.314 . S
C15 C13 1.353 . S
C15 H71 0.930 . S
C16 N17 1.314 . S
C16 C21 1.353 . S
C16 H22 0.930 . S
N17 Li0 1.990 . S
N17 C16 1.314 . S
N17 C19 1.279 . S
C18 C19 1.358 . S
C18 C20 1.356 . S
C18 H72 0.930 . S
C19 N17 1.279 . S
C19 C18 1.358 . S
C19 H23 0.930 . S
C20 C18 1.356 . S
C20 C21 1.348 . S
C21 C16 1.353 . S
C21 C20 1.348 . S
C21 H73 0.929 . S
H22 C16 0.930 . S
H23 C19 0.930 . S
C24 N25 1.314 . S
C24 C26 1.353 . S
C24 H30 0.930 . S
N25 Li1 1.990 . S
N25 C24 1.314 . S
N25 C28 1.279 . S
C26 C24 1.353 . S
C26 C29 1.348 . S
C26 H74 0.929 . S
C27 C28 1.358 . S
C27 C29 1.356 . S
C27 H75 0.930 . S
C28 N25 1.279 . S
C28 C27 1.358 . S
C28 H31 0.930 . S
C29 C26 1.348 . S
C29 C27 1.356 . S
H30 C24 0.930 . S
H31 C28 0.930 . S
C32 C34 1.348 . S
C32 C35 1.356 . S
C32 O62 1.325 . S
N33 C36 1.314 . S
N33 C37 1.279 1_565 S
C34 C32 1.348 . S
C34 C36 1.353 1_545 S
C34 H76 0.929 . S
C35 C32 1.356 . S
C35 C37 1.358 . S
C35 H77 0.930 . S
C36 N33 1.314 . S
C36 C34 1.353 1_565 S
C36 H78 0.930 . S
C37 N33 1.279 1_545 S
C37 C35 1.358 . S
C37 H79 0.930 . S
C38 C39 1.348 . S
C38 C40 1.356 . S
C38 O63 1.325 . S
C39 C38 1.348 . S
C39 C41 1.353 . S
C39 H80 0.929 . S
C40 C38 1.356 . S
C40 C42 1.358 . S
C40 H81 0.930 . S
C41 C39 1.353 . S
C41 N43 1.314 . S
C41 H82 0.930 . S
C42 C40 1.358 . S
C42 N43 1.279 . S
C42 H83 0.930 . S
N43 C41 1.314 . S
N43 C42 1.279 . S
C44 C46 1.353 . S
C44 N47 1.314 . S
C44 H50 0.930 . S
C45 N47 1.279 . S
C45 C48 1.358 . S
C45 H51 0.930 . S
C46 C44 1.353 . S
C46 C49 1.348 . S
C46 H84 0.929 . S
N47 Li2 1.990 . S
N47 C44 1.314 . S
N47 C45 1.279 . S
C48 C45 1.358 . S
C48 C49 1.356 . S
C48 H85 0.930 . S
C49 C46 1.348 . S
C49 C48 1.356 . S
H50 C44 0.930 . S
H51 C45 0.930 . S
C52 N53 1.314 . S
C52 C54 1.353 1_545 S
C52 H58 0.930 . S
N53 Li3 1.990 . S
N53 C52 1.314 . S
N53 C56 1.279 . S
C54 C52 1.353 1_565 S
C54 C57 1.348 . S
C54 H86 0.929 . S
C55 C56 1.358 1_565 S
C55 C57 1.356 . S
C55 H87 0.930 . S
C56 N53 1.279 . S
C56 C55 1.358 1_545 S
C56 H59 0.930 . S
C57 C54 1.348 . S
C57 C55 1.356 . S
H58 C52 0.930 . S
H59 C56 0.930 . S
O60 Li0 1.956 . S
O60 Li1 1.970 . S
O60 Li2 1.961 . S
O60 C4 1.325 . S
O61 Li0 1.970 . S
O61 Li1 1.956 . S
O61 Li3 1.961 . S
O61 C10 1.325 . S
O62 Li0 1.961 . S
O62 Li2 1.956 . S
O62 Li3 1.970 . S
O62 C32 1.325 . S
O63 Li1 1.961 . S
O63 Li2 1.970 . S
O63 Li3 1.956 . S
O63 C38 1.325 . S
H64 C6 0.929 . S
H65 C7 0.930 . S
H66 C8 0.930 . S
H67 C9 0.930 . S
H68 C11 0.930 . S
H69 C13 0.923 1_455 S
H70 C14 0.930 . S
H71 C15 0.930 . S
H72 C18 0.930 . S
H73 C21 0.929 . S
H74 C26 0.929 . S
H75 C27 0.930 . S
H76 C34 0.929 . S
H77 C35 0.930 . S
H78 C36 0.930 . S
H79 C37 0.930 . S
H80 C39 0.929 . S
H81 C40 0.930 . S
H82 C41 0.930 . S
H83 C42 0.930 . S
H84 C46 0.929 . S
H85 C48 0.930 . S
H86 C54 0.929 . S
H87 C55 0.930 . S
Li88 N105 1.990 . S
Li88 O148 1.956 . S
Li88 O149 1.970 . S
Li88 O150 1.961 . S
Li89 N113 1.990 . S
Li89 O148 1.970 . S
Li89 O149 1.956 . S
Li89 O151 1.961 . S
Li90 N135 1.990 . S
Li90 O148 1.961 . S
Li90 O150 1.956 . S
Li90 O151 1.970 . S
Li91 N141 1.990 . S
Li91 O149 1.961 . S
Li91 O150 1.970 . S
Li91 O151 1.956 . S
C92 C94 1.348 . S
C92 C95 1.356 . S
C92 O148 1.325 . S
N93 C96 1.314 . S
N93 C97 1.279 . S
C94 C92 1.348 . S
C94 C96 1.353 . S
C94 H152 0.929 . S
C95 C92 1.356 . S
C95 C97 1.358 . S
C95 H153 0.930 . S
C96 N93 1.314 . S
C96 C94 1.353 . S
C96 H154 0.930 . S
C97 N93 1.279 . S
C97 C95 1.358 . S
C97 H155 0.930 . S
C98 C101 1.348 . S
C98 C102 1.356 . S
C98 O149 1.325 . S
C99 N100 1.279 . S
C99 C102 1.358 . S
C99 H156 0.930 . S
N100 C99 1.279 . S
N100 C103 1.314 . S
C101 C98 1.348 . S
C101 C103 1.353 . S
C101 H157 0.929 . S
C102 C98 1.356 . S
C102 C99 1.358 . S
C102 H158 0.930 . S
C103 N100 1.314 . S
C103 C101 1.353 . S
C103 H159 0.930 . S
C104 N105 1.314 . S
C104 C109 1.353 . S
C104 H110 0.930 . S
N105 Li88 1.990 . S
N105 C104 1.314 . S
N105 C107 1.279 . S
C106 C107 1.358 . S
C106 C108 1.356 . S
C106 H160 0.930 . S
C107 N105 1.279 . S
C107 C106 1.358 . S
C107 H111 0.930 . S
C108 C106 1.356 . S
C108 C109 1.348 . S
C109 C104 1.353 . S
C109 C108 1.348 . S
C109 H161 0.929 . S
H110 C104 0.930 . S
H111 C107 0.930 . S
C112 N113 1.314 . S
C112 C114 1.353 . S
C112 H118 0.930 . S
N113 Li89 1.990 . S
N113 C112 1.314 . S
N113 C116 1.279 . S
C114 C112 1.353 . S
C114 C117 1.348 . S
C114 H162 0.929 . S
C115 C116 1.358 . S
C115 C117 1.356 . S
C115 H163 0.930 . S
C116 N113 1.279 . S
C116 C115 1.358 . S
C116 H119 0.930 . S
C117 C114 1.348 . S
C117 C115 1.356 . S
H118 C112 0.930 . S
H119 C116 0.930 . S
C120 C122 1.348 1_545 S
C120 C123 1.356 . S
C120 O150 1.325 . S
N121 C124 1.314 . S
N121 C125 1.279 . S
C122 C120 1.348 1_565 S
C122 C124 1.353 . S
C122 H164 0.929 . S
C123 C120 1.356 . S
C123 C125 1.358 1_545 S
C123 H165 0.930 . S
C124 N121 1.314 . S
C124 C122 1.353 . S
C124 H166 0.930 . S
C125 N121 1.279 . S
C125 C123 1.358 1_565 S
C125 H167 0.930 . S
C126 C127 1.348 . S
C126 C128 1.356 . S
C126 O151 1.325 . S
C127 C126 1.348 . S
C127 C129 1.353 . S
C127 H168 0.929 . S
C128 C126 1.356 . S
C128 C130 1.358 . S
C128 H169 0.930 . S
C129 C127 1.353 . S
C129 N131 1.314 . S
C129 H170 0.930 . S
C130 C128 1.358 . S
C130 N131 1.279 . S
C130 H171 0.930 . S
N131 C129 1.314 . S
N131 C130 1.279 . S
C132 C134 1.353 . S
C132 N135 1.314 . S
C132 H138 0.930 . S
C133 N135 1.279 . S
C133 C136 1.358 . S
C133 H139 0.930 . S
C134 C132 1.353 . S
C134 C137 1.348 . S
C134 H172 0.929 . S
N135 Li90 1.990 . S
N135 C132 1.314 . S
N135 C133 1.279 . S
C136 C133 1.358 . S
C136 C137 1.356 . S
C136 H173 0.930 . S
C137 C134 1.348 . S
C137 C136 1.356 . S
H138 C132 0.930 . S
H139 C133 0.930 . S
C140 N141 1.314 1_565 S
C140 C142 1.353 . S
C140 H146 0.930 1_565 S
N141 Li91 1.990 . S
N141 C140 1.314 1_545 S
N141 C144 1.279 . S
C142 C140 1.353 . S
C142 C145 1.348 . S
C142 H174 0.929 . S
C143 C144 1.358 1_565 S
C143 C145 1.356 . S
C143 H175 0.930 . S
C144 N141 1.279 . S
C144 C143 1.358 1_545 S
C144 H147 0.930 . S
C145 C142 1.348 . S
C145 C143 1.356 . S
H146 C140 0.930 1_545 S
H147 C144 0.930 . S
O148 Li88 1.956 . S
O148 Li89 1.970 . S
O148 Li90 1.961 . S
O148 C92 1.325 . S
O149 Li88 1.970 . S
O149 Li89 1.956 . S
O149 Li91 1.961 . S
O149 C98 1.325 . S
O150 Li88 1.961 . S
O150 Li90 1.956 . S
O150 Li91 1.970 . S
O150 C120 1.325 . S
O151 Li89 1.961 . S
O151 Li90 1.970 . S
O151 Li91 1.956 . S
O151 C126 1.325 . S
H152 C94 0.929 . S
H153 C95 0.930 . S
H154 C96 0.930 . S
H155 C97 0.930 . S
H156 C99 0.930 . S
H157 C101 0.929 . S
H158 C102 0.930 . S
H159 C103 0.930 . S
H160 C106 0.930 . S
H161 C109 0.929 . S
H162 C114 0.929 . S
H163 C115 0.930 . S
H164 C122 0.929 . S
H165 C123 0.930 . S
H166 C124 0.930 . S
H167 C125 0.930 . S
H168 C127 0.929 . S
H169 C128 0.930 . S
H170 C129 0.930 . S
H171 C130 0.930 . S
H172 C134 0.929 . S
H173 C136 0.930 . S
H174 C142 0.929 . S
H175 C143 0.930 . S
Li176 N193 1.990 . S
Li176 O236 1.956 . S
Li176 O237 1.970 . S
Li176 O238 1.961 . S
Li177 N201 1.990 . S
Li177 O236 1.970 . S
Li177 O237 1.956 . S
Li177 O239 1.961 . S
Li178 N223 1.990 . S
Li178 O236 1.961 . S
Li178 O238 1.956 . S
Li178 O239 1.970 . S
Li179 N229 1.990 . S
Li179 O237 1.961 . S
Li179 O238 1.970 . S
Li179 O239 1.956 . S
C180 C182 1.348 . S
C180 C183 1.356 . S
C180 O236 1.325 . S
N181 C184 1.314 . S
N181 C185 1.279 . S
C182 C180 1.348 . S
C182 C184 1.353 . S
C182 H240 0.929 . S
C183 C180 1.356 . S
C183 C185 1.358 . S
C183 H241 0.930 . S
C184 N181 1.314 . S
C184 C182 1.353 . S
C184 H242 0.930 . S
C185 N181 1.279 . S
C185 C183 1.358 . S
C185 H243 0.930 . S
C186 C189 1.348 . S
C186 C190 1.356 . S
C186 O237 1.325 . S
C187 N188 1.279 . S
C187 C190 1.358 . S
C187 H244 0.930 . S
N188 C187 1.279 . S
N188 C191 1.314 . S
C189 C186 1.348 . S
C189 C191 1.353 . S
C189 H245 0.929 . S
C190 C186 1.356 . S
C190 C187 1.358 . S
C190 H246 0.930 . S
C191 N188 1.314 . S
C191 C189 1.353 . S
C191 H247 0.930 . S
C192 N193 1.314 . S
C192 C197 1.353 . S
C192 H198 0.930 . S
N193 Li176 1.990 . S
N193 C192 1.314 . S
N193 C195 1.279 . S
C194 C195 1.358 . S
C194 C196 1.356 . S
C194 H248 0.930 . S
C195 N193 1.279 . S
C195 C194 1.358 . S
C195 H199 0.930 . S
C196 C194 1.356 . S
C196 C197 1.348 . S
C197 C192 1.353 . S
C197 C196 1.348 . S
C197 H249 0.929 . S
H198 C192 0.930 . S
H199 C195 0.930 . S
C200 N201 1.314 . S
C200 C202 1.353 . S
C200 H206 0.930 . S
N201 Li177 1.990 . S
N201 C200 1.314 . S
N201 C204 1.279 . S
C202 C200 1.353 . S
C202 C205 1.348 . S
C202 H250 0.929 . S
C203 C204 1.358 . S
C203 C205 1.356 . S
C203 H251 0.930 . S
C204 N201 1.279 . S
C204 C203 1.358 . S
C204 H207 0.930 . S
C205 C202 1.348 . S
C205 C203 1.356 . S
H206 C200 0.930 . S
H207 C204 0.930 . S
C208 C210 1.348 1_545 S
C208 C211 1.356 . S
C208 O238 1.325 . S
N209 C212 1.314 . S
N209 C213 1.279 . S
C210 C208 1.348 1_565 S
C210 C212 1.353 . S
C210 H252 0.929 . S
C211 C208 1.356 . S
C211 C213 1.358 1_545 S
C211 H253 0.930 . S
C212 N209 1.314 . S
C212 C210 1.353 . S
C212 H254 0.930 . S
C213 N209 1.279 . S
C213 C211 1.358 1_565 S
C213 H255 0.930 . S
C214 C215 1.348 1_455 S
C214 C216 1.356 . S
C214 O239 1.325 . S
C215 C214 1.348 1_655 S
C215 C217 1.353 . S
C215 H256 0.923 1_655 S
C216 C214 1.356 . S
C216 C218 1.358 1_455 S
C216 H257 0.930 . S
C217 C215 1.353 . S
C217 N219 1.314 . S
C217 H258 0.930 . S
C218 C216 1.358 1_655 S
C218 N219 1.279 . S
C218 H259 0.930 . S
N219 C217 1.314 . S
N219 C218 1.279 . S
C220 C222 1.353 . S
C220 N223 1.314 . S
C220 H226 0.930 . S
C221 N223 1.279 . S
C221 C224 1.358 . S
C221 H227 0.930 . S
C222 C220 1.353 . S
C222 C225 1.348 . S
C222 H260 0.929 . S
N223 Li178 1.990 . S
N223 C220 1.314 . S
N223 C221 1.279 . S
C224 C221 1.358 . S
C224 C225 1.356 . S
C224 H261 0.930 . S
C225 C222 1.348 . S
C225 C224 1.356 . S
H226 C220 0.930 . S
H227 C221 0.930 . S
C228 N229 1.314 1_565 S
C228 C230 1.353 . S
C228 H234 0.930 1_565 S
N229 Li179 1.990 . S
N229 C228 1.314 1_545 S
N229 C232 1.279 . S
C230 C228 1.353 . S
C230 C233 1.348 . S
C230 H262 0.929 . S
C231 C232 1.358 1_565 S
C231 C233 1.356 . S
C231 H263 0.930 . S
C232 N229 1.279 . S
C232 C231 1.358 1_545 S
C232 H235 0.930 . S
C233 C230 1.348 . S
C233 C231 1.356 . S
H234 C228 0.930 1_545 S
H235 C232 0.930 . S
O236 Li176 1.956 . S
O236 Li177 1.970 . S
O236 Li178 1.961 . S
O236 C180 1.325 . S
O237 Li176 1.970 . S
O237 Li177 1.956 . S
O237 Li179 1.961 . S
O237 C186 1.325 . S
O238 Li176 1.961 . S
O238 Li178 1.956 . S
O238 Li179 1.970 . S
O238 C208 1.325 . S
O239 Li177 1.961 . S
O239 Li178 1.970 . S
O239 Li179 1.956 . S
O239 C214 1.325 . S
H240 C182 0.929 . S
H241 C183 0.930 . S
H242 C184 0.930 . S
H243 C185 0.930 . S
H244 C187 0.930 . S
H245 C189 0.929 . S
H246 C190 0.930 . S
H247 C191 0.930 . S
H248 C194 0.930 . S
H249 C197 0.929 . S
H250 C202 0.929 . S
H251 C203 0.930 . S
H252 C210 0.929 . S
H253 C211 0.930 . S
H254 C212 0.930 . S
H255 C213 0.930 . S
H256 C215 0.923 1_455 S
H257 C216 0.930 . S
H258 C217 0.930 . S
H259 C218 0.930 . S
H260 C222 0.929 . S
H261 C224 0.930 . S
H262 C230 0.929 . S
H263 C231 0.930 . S
Li264 N281 1.990 . S
Li264 O324 1.956 . S
Li264 O325 1.970 . S
Li264 O326 1.961 . S
Li265 N289 1.990 . S
Li265 O324 1.970 . S
Li265 O325 1.956 . S
Li265 O327 1.961 . S
Li266 N311 1.990 . S
Li266 O324 1.961 . S
Li266 O326 1.956 . S
Li266 O327 1.970 . S
Li267 N317 1.990 . S
Li267 O325 1.961 . S
Li267 O326 1.970 . S
Li267 O327 1.956 . S
C268 C270 1.348 . S
C268 C271 1.356 . S
C268 O324 1.325 . S
N269 C272 1.314 . S
N269 C273 1.279 . S
C270 C268 1.348 . S
C270 C272 1.353 . S
C270 H328 0.929 . S
C271 C268 1.356 . S
C271 C273 1.358 . S
C271 H329 0.930 . S
C272 N269 1.314 . S
C272 C270 1.353 . S
C272 H330 0.930 . S
C273 N269 1.279 . S
C273 C271 1.358 . S
C273 H331 0.930 . S
C274 C277 1.348 . S
C274 C278 1.356 . S
C274 O325 1.325 . S
C275 N276 1.279 . S
C275 C278 1.358 . S
C275 H332 0.930 . S
N276 C275 1.279 . S
N276 C279 1.314 . S
C277 C274 1.348 . S
C277 C279 1.353 . S
C277 H333 0.929 . S
C278 C274 1.356 . S
C278 C275 1.358 . S
C278 H334 0.930 . S
C279 N276 1.314 . S
C279 C277 1.353 . S
C279 H335 0.930 . S
C280 N281 1.314 . S
C280 C285 1.353 . S
C280 H286 0.930 . S
N281 Li264 1.990 . S
N281 C280 1.314 . S
N281 C283 1.279 . S
C282 C283 1.358 . S
C282 C284 1.356 . S
C282 H336 0.930 . S
C283 N281 1.279 . S
C283 C282 1.358 . S
C283 H287 0.930 . S
C284 C282 1.356 . S
C284 C285 1.348 . S
C285 C280 1.353 . S
C285 C284 1.348 . S
C285 H337 0.929 . S
H286 C280 0.930 . S
H287 C283 0.930 . S
C288 N289 1.314 . S
C288 C290 1.353 . S
C288 H294 0.930 . S
N289 Li265 1.990 . S
N289 C288 1.314 . S
N289 C292 1.279 . S
C290 C288 1.353 . S
C290 C293 1.348 . S
C290 H338 0.929 . S
C291 C292 1.358 . S
C291 C293 1.356 . S
C291 H339 0.930 . S
C292 N289 1.279 . S
C292 C291 1.358 . S
C292 H295 0.930 . S
C293 C290 1.348 . S
C293 C291 1.356 . S
H294 C288 0.930 . S
H295 C292 0.930 . S
C296 C298 1.348 . S
C296 C299 1.356 . S
C296 O326 1.325 . S
N297 C300 1.314 . S
N297 C301 1.279 . S
C298 C296 1.348 . S
C298 C300 1.353 . S
C298 H340 0.929 . S
C299 C296 1.356 . S
C299 C301 1.358 . S
C299 H341 0.930 . S
C300 N297 1.314 . S
C300 C298 1.353 . S
C300 H342 0.930 . S
C301 N297 1.279 . S
C301 C299 1.358 . S
C301 H343 0.930 . S
C302 C303 1.348 . S
C302 C304 1.356 . S
C302 O327 1.325 . S
C303 C302 1.348 . S
C303 C305 1.353 1_545 S
C303 H344 0.929 . S
C304 C302 1.356 . S
C304 C306 1.358 . S
C304 H345 0.930 . S
C305 C303 1.353 1_565 S
C305 N307 1.314 . S
C305 H346 0.930 . S
C306 C304 1.358 . S
C306 N307 1.279 1_545 S
C306 H347 0.930 . S
N307 C305 1.314 . S
N307 C306 1.279 1_565 S
C308 C310 1.353 1_545 S
C308 N311 1.314 . S
C308 H314 0.930 . S
C309 N311 1.279 . S
C309 C312 1.358 1_545 S
C309 H315 0.930 . S
C310 C308 1.353 1_565 S
C310 C313 1.348 . S
C310 H348 0.929 . S
N311 Li266 1.990 . S
N311 C308 1.314 . S
N311 C309 1.279 . S
C312 C309 1.358 1_565 S
C312 C313 1.356 . S
C312 H349 0.930 . S
C313 C310 1.348 . S
C313 C312 1.356 . S
H314 C308 0.930 . S
H315 C309 0.930 . S
C316 N317 1.314 . S
C316 C318 1.353 . S
C316 H322 0.930 . S
N317 Li267 1.990 . S
N317 C316 1.314 . S
N317 C320 1.279 . S
C318 C316 1.353 . S
C318 C321 1.348 . S
C318 H350 0.929 . S
C319 C320 1.358 . S
C319 C321 1.356 . S
C319 H351 0.930 . S
C320 N317 1.279 . S
C320 C319 1.358 . S
C320 H323 0.930 . S
C321 C318 1.348 . S
C321 C319 1.356 . S
H322 C316 0.930 . S
H323 C320 0.930 . S
O324 Li264 1.956 . S
O324 Li265 1.970 . S
O324 Li266 1.961 . S
O324 C268 1.325 . S
O325 Li264 1.970 . S
O325 Li265 1.956 . S
O325 Li267 1.961 . S
O325 C274 1.325 . S
O326 Li264 1.961 . S
O326 Li266 1.956 . S
O326 Li267 1.970 . S
O326 C296 1.325 . S
O327 Li265 1.961 . S
O327 Li266 1.970 . S
O327 Li267 1.956 . S
O327 C302 1.325 . S
H328 C270 0.929 . S
H329 C271 0.930 . S
H330 C272 0.930 . S
H331 C273 0.930 . S
H332 C275 0.930 . S
H333 C277 0.929 . S
H334 C278 0.930 . S
H335 C279 0.930 . S
H336 C282 0.930 . S
H337 C285 0.929 . S
H338 C290 0.929 . S
H339 C291 0.930 . S
H340 C298 0.929 . S
H341 C299 0.930 . S
H342 C300 0.930 . S
H343 C301 0.930 . S
H344 C303 0.929 . S
H345 C304 0.930 . S
H346 C305 0.930 . S
H347 C306 0.930 . S
H348 C310 0.929 . S
H349 C312 0.930 . S
H350 C318 0.929 . S
H351 C319 0.930 . S
Li352 N369 1.990 . S
Li352 O412 1.956 . S
Li352 O413 1.970 . S
Li352 O414 1.961 . S
Li353 N377 1.990 . S
Li353 O412 1.970 . S
Li353 O413 1.956 . S
Li353 O415 1.961 . S
Li354 N399 1.990 . S
Li354 O412 1.961 . S
Li354 O414 1.956 . S
Li354 O415 1.970 . S
Li355 N405 1.990 . S
Li355 O413 1.961 . S
Li355 O414 1.970 . S
Li355 O415 1.956 . S
C356 C358 1.348 1_655 S
C356 C359 1.356 . S
C356 O412 1.325 . S
N357 C360 1.314 . S
N357 C361 1.279 . S
C358 C356 1.348 1_455 S
C358 C360 1.353 . S
C358 H416 0.944 . S
C359 C356 1.356 . S
C359 C361 1.358 1_655 S
C359 H417 0.930 . S
C360 N357 1.314 . S
C360 C358 1.353 . S
C360 H418 0.930 . S
C361 N357 1.279 . S
C361 C359 1.358 1_455 S
C361 H419 0.930 . S
C362 C365 1.348 . S
C362 C366 1.356 . S
C362 O413 1.325 . S
C363 N364 1.279 1_565 S
C363 C366 1.358 . S
C363 H420 0.930 . S
N364 C363 1.279 1_545 S
N364 C367 1.314 . S
C365 C362 1.348 . S
C365 C367 1.353 1_565 S
C365 H421 0.929 . S
C366 C362 1.356 . S
C366 C363 1.358 . S
C366 H422 0.930 . S
C367 N364 1.314 . S
C367 C365 1.353 1_545 S
C367 H423 0.930 . S
C368 N369 1.314 . S
C368 C373 1.353 1_565 S
C368 H374 0.930 . S
N369 Li352 1.990 . S
N369 C368 1.314 . S
N369 C371 1.279 . S
C370 C371 1.358 1_545 S
C370 C372 1.356 . S
C370 H424 0.869 1_655 S
C371 N369 1.279 . S
C371 C370 1.358 1_565 S
C371 H375 0.930 . S
C372 C370 1.356 . S
C372 C373 1.348 . S
C373 C368 1.353 1_545 S
C373 C372 1.348 . S
C373 H425 0.929 . S
H374 C368 0.930 . S
H375 C371 0.930 . S
C376 N377 1.314 . S
C376 C378 1.353 . S
C376 H382 0.930 . S
N377 Li353 1.990 . S
N377 C376 1.314 . S
N377 C380 1.279 . S
C378 C376 1.353 . S
C378 C381 1.348 . S
C378 H426 0.929 . S
C379 C380 1.358 . S
C379 C381 1.356 . S
C379 H427 0.930 . S
C380 N377 1.279 . S
C380 C379 1.358 . S
C380 H383 0.930 . S
C381 C378 1.348 . S
C381 C379 1.356 . S
H382 C376 0.930 . S
H383 C380 0.930 . S
C384 C386 1.348 . S
C384 C387 1.356 . S
C384 O414 1.325 . S
N385 C388 1.314 . S
N385 C389 1.279 . S
C386 C384 1.348 . S
C386 C388 1.353 . S
C386 H428 0.929 . S
C387 C384 1.356 . S
C387 C389 1.358 . S
C387 H429 0.930 . S
C388 N385 1.314 . S
C388 C386 1.353 . S
C388 H430 0.930 . S
C389 N385 1.279 . S
C389 C387 1.358 . S
C389 H431 0.930 . S
C390 C391 1.348 . S
C390 C392 1.356 . S
C390 O415 1.325 . S
C391 C390 1.348 . S
C391 C393 1.353 . S
C391 H432 0.929 . S
C392 C390 1.356 . S
C392 C394 1.358 . S
C392 H433 0.930 . S
C393 C391 1.353 . S
C393 N395 1.314 . S
C393 H434 0.930 . S
C394 C392 1.358 . S
C394 N395 1.279 . S
C394 H435 0.930 . S
N395 C393 1.314 . S
N395 C394 1.279 . S
C396 C398 1.353 . S
C396 N399 1.314 . S
C396 H402 0.930 . S
C397 N399 1.279 . S
C397 C400 1.358 . S
C397 H403 0.930 . S
C398 C396 1.353 . S
C398 C401 1.348 . S
C398 H436 0.929 . S
N399 Li354 1.990 . S
N399 C396 1.314 . S
N399 C397 1.279 . S
C400 C397 1.358 . S
C400 C401 1.356 . S
C400 H437 0.930 . S
C401 C398 1.348 . S
C401 C400 1.356 . S
H402 C396 0.930 . S
H403 C397 0.930 . S
C404 N405 1.314 . S
C404 C406 1.353 . S
C404 H410 0.930 . S
N405 Li355 1.990 . S
N405 C404 1.314 . S
N405 C408 1.279 . S
C406 C404 1.353 . S
C406 C409 1.348 . S
C406 H438 0.929 . S
C407 C408 1.358 . S
C407 C409 1.356 . S
C407 H439 0.930 . S
C408 N405 1.279 . S
C408 C407 1.358 . S
C408 H411 0.930 . S
C409 C406 1.348 . S
C409 C407 1.356 . S
H410 C404 0.930 . S
H411 C408 0.930 . S
O412 Li352 1.956 . S
O412 Li353 1.970 . S
O412 Li354 1.961 . S
O412 C356 1.325 . S
O413 Li352 1.970 . S
O413 Li353 1.956 . S
O413 Li355 1.961 . S
O413 C362 1.325 . S
O414 Li352 1.961 . S
O414 Li354 1.956 . S
O414 Li355 1.970 . S
O414 C384 1.325 . S
O415 Li353 1.961 . S
O415 Li354 1.970 . S
O415 Li355 1.956 . S
O415 C390 1.325 . S
H416 C358 0.944 . S
H417 C359 0.930 . S
H418 C360 0.930 . S
H419 C361 0.930 . S
H420 C363 0.930 . S
H421 C365 0.929 . S
H422 C366 0.930 . S
H423 C367 0.930 . S
H424 C370 0.869 1_455 S
H425 C373 0.929 . S
H426 C378 0.929 . S
H427 C379 0.930 . S
H428 C386 0.929 . S
H429 C387 0.930 . S
H430 C388 0.930 . S
H431 C389 0.930 . S
H432 C391 0.929 . S
H433 C392 0.930 . S
H434 C393 0.930 . S
H435 C394 0.930 . S
H436 C398 0.929 . S
H437 C400 0.930 . S
H438 C406 0.929 . S
H439 C407 0.930 . S
Li440 N457 1.990 . S
Li440 O500 1.956 . S
Li440 O501 1.970 . S
Li440 O502 1.961 . S
Li441 N465 1.990 . S
Li441 O500 1.970 . S
Li441 O501 1.956 . S
Li441 O503 1.961 . S
Li442 N487 1.990 . S
Li442 O500 1.961 . S
Li442 O502 1.956 . S
Li442 O503 1.970 . S
Li443 N493 1.990 . S
Li443 O501 1.961 . S
Li443 O502 1.970 . S
Li443 O503 1.956 . S
C444 C446 1.348 1_565 S
C444 C447 1.356 . S
C444 O500 1.325 . S
N445 C448 1.314 . S
N445 C449 1.279 . S
C446 C444 1.348 1_545 S
C446 C448 1.353 . S
C446 H504 0.929 . S
C447 C444 1.356 . S
C447 C449 1.358 1_565 S
C447 H505 0.930 . S
C448 N445 1.314 . S
C448 C446 1.353 . S
C448 H506 0.930 . S
C449 N445 1.279 . S
C449 C447 1.358 1_545 S
C449 H507 0.930 . S
C450 C453 1.348 . S
C450 C454 1.356 . S
C450 O501 1.325 . S
C451 N452 1.279 . S
C451 C454 1.358 . S
C451 H508 0.930 . S
N452 C451 1.279 . S
N452 C455 1.314 . S
C453 C450 1.348 . S
C453 C455 1.353 . S
C453 H509 0.929 . S
C454 C450 1.356 . S
C454 C451 1.358 . S
C454 H510 0.930 . S
C455 N452 1.314 . S
C455 C453 1.353 . S
C455 H511 0.930 . S
C456 N457 1.314 . S
C456 C461 1.353 . S
C456 H462 0.930 . S
N457 Li440 1.990 . S
N457 C456 1.314 . S
N457 C459 1.279 . S
C458 C459 1.358 . S
C458 C460 1.356 . S
C458 H512 0.930 . S
C459 N457 1.279 . S
C459 C458 1.358 . S
C459 H463 0.930 . S
C460 C458 1.356 . S
C460 C461 1.348 . S
C461 C456 1.353 . S
C461 C460 1.348 . S
C461 H513 0.929 . S
H462 C456 0.930 . S
H463 C459 0.930 . S
C464 N465 1.314 1_545 S
C464 C466 1.353 . S
C464 H470 0.930 . S
N465 Li441 1.990 . S
N465 C464 1.314 1_565 S
N465 C468 1.279 . S
C466 C464 1.353 . S
C466 C469 1.348 . S
C466 H514 0.929 . S
C467 C468 1.358 1_545 S
C467 C469 1.356 . S
C467 H515 0.930 . S
C468 N465 1.279 . S
C468 C467 1.358 1_565 S
C468 H471 0.930 . S
C469 C466 1.348 . S
C469 C467 1.356 . S
H470 C464 0.930 . S
H471 C468 0.930 . S
C472 C474 1.348 . S
C472 C475 1.356 . S
C472 O502 1.325 . S
N473 C476 1.314 . S
N473 C477 1.279 . S
C474 C472 1.348 . S
C474 C476 1.353 . S
C474 H516 0.929 . S
C475 C472 1.356 . S
C475 C477 1.358 . S
C475 H517 0.930 . S
C476 N473 1.314 . S
C476 C474 1.353 . S
C476 H518 0.930 . S
C477 N473 1.279 . S
C477 C475 1.358 . S
C477 H519 0.930 . S
C478 C479 1.348 . S
C478 C480 1.356 . S
C478 O503 1.325 . S
C479 C478 1.348 . S
C479 C481 1.353 . S
C479 H520 0.929 . S
C480 C478 1.356 . S
C480 C482 1.358 . S
C480 H521 0.930 . S
C481 C479 1.353 . S
C481 N483 1.314 . S
C481 H522 0.930 . S
C482 C480 1.358 . S
C482 N483 1.279 . S
C482 H523 0.930 . S
N483 C481 1.314 . S
N483 C482 1.279 . S
C484 C486 1.353 . S
C484 N487 1.314 . S
C484 H490 0.930 . S
C485 N487 1.279 . S
C485 C488 1.358 . S
C485 H491 0.930 . S
C486 C484 1.353 . S
C486 C489 1.348 . S
C486 H524 0.929 . S
N487 Li442 1.990 . S
N487 C484 1.314 . S
N487 C485 1.279 . S
C488 C485 1.358 . S
C488 C489 1.356 . S
C488 H525 0.930 . S
C489 C486 1.348 . S
C489 C488 1.356 . S
H490 C484 0.930 . S
H491 C485 0.930 . S
C492 N493 1.314 . S
C492 C494 1.353 . S
C492 H498 0.930 . S
N493 Li443 1.990 . S
N493 C492 1.314 . S
N493 C496 1.279 . S
C494 C492 1.353 . S
C494 C497 1.348 . S
C494 H526 0.929 . S
C495 C496 1.358 . S
C495 C497 1.356 . S
C495 H527 0.930 . S
C496 N493 1.279 . S
C496 C495 1.358 . S
C496 H499 0.930 . S
C497 C494 1.348 . S
C497 C495 1.356 . S
H498 C492 0.930 . S
H499 C496 0.930 . S
O500 Li440 1.956 . S
O500 Li441 1.970 . S
O500 Li442 1.961 . S
O500 C444 1.325 . S
O501 Li440 1.970 . S
O501 Li441 1.956 . S
O501 Li443 1.961 . S
O501 C450 1.325 . S
O502 Li440 1.961 . S
O502 Li442 1.956 . S
O502 Li443 1.970 . S
O502 C472 1.325 . S
O503 Li441 1.961 . S
O503 Li442 1.970 . S
O503 Li443 1.956 . S
O503 C478 1.325 . S
H504 C446 0.929 . S
H505 C447 0.930 . S
H506 C448 0.930 . S
H507 C449 0.930 . S
H508 C451 0.930 . S
H509 C453 0.929 . S
H510 C454 0.930 . S
H511 C455 0.930 . S
H512 C458 0.930 . S
H513 C461 0.929 . S
H514 C466 0.929 . S
H515 C467 0.930 . S
H516 C474 0.929 . S
H517 C475 0.930 . S
H518 C476 0.930 . S
H519 C477 0.930 . S
H520 C479 0.929 . S
H521 C480 0.930 . S
H522 C481 0.930 . S
H523 C482 0.930 . S
H524 C486 0.929 . S
H525 C488 0.930 . S
H526 C494 0.929 . S
H527 C495 0.930 . S
Li528 N545 1.990 . S
Li528 O588 1.956 . S
Li528 O589 1.970 . S
Li528 O590 1.961 . S
Li529 N553 1.990 . S
Li529 O588 1.970 . S
Li529 O589 1.956 . S
Li529 O591 1.961 . S
Li530 N575 1.990 . S
Li530 O588 1.961 . S
Li530 O590 1.956 . S
Li530 O591 1.970 . S
Li531 N581 1.990 . S
Li531 O589 1.961 . S
Li531 O590 1.970 . S
Li531 O591 1.956 . S
C532 C534 1.348 1_565 S
C532 C535 1.356 . S
C532 O588 1.325 . S
N533 C536 1.314 . S
N533 C537 1.279 . S
C534 C532 1.348 1_545 S
C534 C536 1.353 . S
C534 H592 0.929 . S
C535 C532 1.356 . S
C535 C537 1.358 1_565 S
C535 H593 0.930 . S
C536 N533 1.314 . S
C536 C534 1.353 . S
C536 H594 0.930 . S
C537 N533 1.279 . S
C537 C535 1.358 1_545 S
C537 H595 0.930 . S
C538 C541 1.348 . S
C538 C542 1.356 . S
C538 O589 1.325 . S
C539 N540 1.279 . S
C539 C542 1.358 . S
C539 H596 0.930 . S
N540 C539 1.279 . S
N540 C543 1.314 . S
C541 C538 1.348 . S
C541 C543 1.353 . S
C541 H597 0.929 . S
C542 C538 1.356 . S
C542 C539 1.358 . S
C542 H598 0.930 . S
C543 N540 1.314 . S
C543 C541 1.353 . S
C543 H599 0.930 . S
C544 N545 1.314 . S
C544 C549 1.353 . S
C544 H550 0.930 . S
N545 Li528 1.990 . S
N545 C544 1.314 . S
N545 C547 1.279 . S
C546 C547 1.358 . S
C546 C548 1.356 . S
C546 H600 0.930 . S
C547 N545 1.279 . S
C547 C546 1.358 . S
C547 H551 0.930 . S
C548 C546 1.356 . S
C548 C549 1.348 . S
C549 C544 1.353 . S
C549 C548 1.348 . S
C549 H601 0.929 . S
H550 C544 0.930 . S
H551 C547 0.930 . S
C552 N553 1.314 1_545 S
C552 C554 1.353 . S
C552 H558 0.930 . S
N553 Li529 1.990 . S
N553 C552 1.314 1_565 S
N553 C556 1.279 . S
C554 C552 1.353 . S
C554 C557 1.348 . S
C554 H602 0.929 . S
C555 C556 1.358 1_545 S
C555 C557 1.356 . S
C555 H603 0.930 . S
C556 N553 1.279 . S
C556 C555 1.358 1_565 S
C556 H559 0.930 . S
C557 C554 1.348 . S
C557 C555 1.356 . S
H558 C552 0.930 . S
H559 C556 0.930 . S
C560 C562 1.348 . S
C560 C563 1.356 . S
C560 O590 1.325 . S
N561 C564 1.314 . S
N561 C565 1.279 . S
C562 C560 1.348 . S
C562 C564 1.353 . S
C562 H604 0.929 . S
C563 C560 1.356 . S
C563 C565 1.358 . S
C563 H605 0.930 . S
C564 N561 1.314 . S
C564 C562 1.353 . S
C564 H606 0.930 . S
C565 N561 1.279 . S
C565 C563 1.358 . S
C565 H607 0.930 . S
C566 C567 1.348 1_655 S
C566 C568 1.356 . S
C566 O591 1.325 . S
C567 C566 1.348 1_455 S
C567 C569 1.353 . S
C567 H608 0.944 . S
C568 C566 1.356 . S
C568 C570 1.358 1_655 S
C568 H609 0.930 . S
C569 C567 1.353 . S
C569 N571 1.314 . S
C569 H610 0.930 . S
C570 C568 1.358 1_455 S
C570 N571 1.279 . S
C570 H611 0.930 . S
N571 C569 1.314 . S
N571 C570 1.279 . S
C572 C574 1.353 . S
C572 N575 1.314 . S
C572 H578 0.930 . S
C573 N575 1.279 . S
C573 C576 1.358 . S
C573 H579 0.930 . S
C574 C572 1.353 . S
C574 C577 1.348 . S
C574 H612 0.929 . S
N575 Li530 1.990 . S
N575 C572 1.314 . S
N575 C573 1.279 . S
C576 C573 1.358 . S
C576 C577 1.356 . S
C576 H613 0.930 . S
C577 C574 1.348 . S
C577 C576 1.356 . S
H578 C572 0.930 . S
H579 C573 0.930 . S
C580 N581 1.314 . S
C580 C582 1.353 . S
C580 H586 0.930 . S
N581 Li531 1.990 . S
N581 C580 1.314 . S
N581 C584 1.279 . S
C582 C580 1.353 . S
C582 C585 1.348 . S
C582 H614 0.929 . S
C583 C584 1.358 . S
C583 C585 1.356 . S
C583 H615 0.869 1_655 S
C584 N581 1.279 . S
C584 C583 1.358 . S
C584 H587 0.930 . S
C585 C582 1.348 . S
C585 C583 1.356 . S
H586 C580 0.930 . S
H587 C584 0.930 . S
O588 Li528 1.956 . S
O588 Li529 1.970 . S
O588 Li530 1.961 . S
O588 C532 1.325 . S
O589 Li528 1.970 . S
O589 Li529 1.956 . S
O589 Li531 1.961 . S
O589 C538 1.325 . S
O590 Li528 1.961 . S
O590 Li530 1.956 . S
O590 Li531 1.970 . S
O590 C560 1.325 . S
O591 Li529 1.961 . S
O591 Li530 1.970 . S
O591 Li531 1.956 . S
O591 C566 1.325 . S
H592 C534 0.929 . S
H593 C535 0.930 . S
H594 C536 0.930 . S
H595 C537 0.930 . S
H596 C539 0.930 . S
H597 C541 0.929 . S
H598 C542 0.930 . S
H599 C543 0.930 . S
H600 C546 0.930 . S
H601 C549 0.929 . S
H602 C554 0.929 . S
H603 C555 0.930 . S
H604 C562 0.929 . S
H605 C563 0.930 . S
H606 C564 0.930 . S
H607 C565 0.930 . S
H608 C567 0.944 . S
H609 C568 0.930 . S
H610 C569 0.930 . S
H611 C570 0.930 . S
H612 C574 0.929 . S
H613 C576 0.930 . S
H614 C582 0.929 . S
H615 C583 0.869 1_455 S
Li616 N633 1.990 . S
Li616 O676 1.956 . S
Li616 O677 1.970 . S
Li616 O678 1.961 . S
Li617 N641 1.990 . S
Li617 O676 1.970 . S
Li617 O677 1.956 . S
Li617 O679 1.961 . S
Li618 N663 1.990 . S
Li618 O676 1.961 . S
Li618 O678 1.956 . S
Li618 O679 1.970 . S
Li619 N669 1.990 . S
Li619 O677 1.961 . S
Li619 O678 1.970 . S
Li619 O679 1.956 . S
C620 C622 1.348 . S
C620 C623 1.356 . S
C620 O676 1.325 . S
N621 C624 1.314 . S
N621 C625 1.279 1_545 S
C622 C620 1.348 . S
C622 C624 1.353 1_565 S
C622 H680 0.929 . S
C623 C620 1.356 . S
C623 C625 1.358 . S
C623 H681 0.930 . S
C624 N621 1.314 . S
C624 C622 1.353 1_545 S
C624 H682 0.930 . S
C625 N621 1.279 1_565 S
C625 C623 1.358 . S
C625 H683 0.930 . S
C626 C629 1.348 . S
C626 C630 1.356 . S
C626 O677 1.325 . S
C627 N628 1.279 . S
C627 C630 1.358 . S
C627 H684 0.930 . S
N628 C627 1.279 . S
N628 C631 1.314 . S
C629 C626 1.348 . S
C629 C631 1.353 . S
C629 H685 0.929 . S
C630 C626 1.356 . S
C630 C627 1.358 . S
C630 H686 0.930 . S
C631 N628 1.314 . S
C631 C629 1.353 . S
C631 H687 0.930 . S
C632 N633 1.314 . S
C632 C637 1.353 . S
C632 H638 0.930 . S
N633 Li616 1.990 . S
N633 C632 1.314 . S
N633 C635 1.279 . S
C634 C635 1.358 . S
C634 C636 1.356 . S
C634 H688 0.930 . S
C635 N633 1.279 . S
C635 C634 1.358 . S
C635 H639 0.930 . S
C636 C634 1.356 . S
C636 C637 1.348 . S
C637 C632 1.353 . S
C637 C636 1.348 . S
C637 H689 0.929 . S
H638 C632 0.930 . S
H639 C635 0.930 . S
C640 N641 1.314 . S
C640 C642 1.353 1_565 S
C640 H646 0.930 . S
N641 Li617 1.990 . S
N641 C640 1.314 . S
N641 C644 1.279 . S
C642 C640 1.353 1_545 S
C642 C645 1.348 . S
C642 H690 0.929 . S
C643 C644 1.358 1_545 S
C643 C645 1.356 . S
C643 H691 0.930 . S
C644 N641 1.279 . S
C644 C643 1.358 1_565 S
C644 H647 0.930 . S
C645 C642 1.348 . S
C645 C643 1.356 . S
H646 C640 0.930 . S
H647 C644 0.930 . S
C648 C650 1.348 . S
C648 C651 1.356 . S
C648 O678 1.325 . S
N649 C652 1.314 . S
N649 C653 1.279 . S
C650 C648 1.348 . S
C650 C652 1.353 . S
C650 H692 0.929 . S
C651 C648 1.356 . S
C651 C653 1.358 . S
C651 H693 0.930 . S
C652 N649 1.314 . S
C652 C650 1.353 . S
C652 H694 0.930 . S
C653 N649 1.279 . S
C653 C651 1.358 . S
C653 H695 0.930 . S
C654 C655 1.348 . S
C654 C656 1.356 . S
C654 O679 1.325 . S
C655 C654 1.348 . S
C655 C657 1.353 . S
C655 H696 0.929 . S
C656 C654 1.356 . S
C656 C658 1.358 . S
C656 H697 0.930 . S
C657 C655 1.353 . S
C657 N659 1.314 . S
C657 H698 0.930 . S
C658 C656 1.358 . S
C658 N659 1.279 . S
C658 H699 0.930 . S
N659 C657 1.314 . S
N659 C658 1.279 . S
C660 C662 1.353 . S
C660 N663 1.314 . S
C660 H666 0.930 . S
C661 N663 1.279 . S
C661 C664 1.358 . S
C661 H667 0.930 . S
C662 C660 1.353 . S
C662 C665 1.348 . S
C662 H700 0.929 . S
N663 Li618 1.990 . S
N663 C660 1.314 . S
N663 C661 1.279 . S
C664 C661 1.358 . S
C664 C665 1.356 . S
C664 H701 0.930 . S
C665 C662 1.348 . S
C665 C664 1.356 . S
H666 C660 0.930 . S
H667 C661 0.930 . S
C668 N669 1.314 . S
C668 C670 1.353 . S
C668 H674 0.930 . S
N669 Li619 1.990 . S
N669 C668 1.314 . S
N669 C672 1.279 . S
C670 C668 1.353 . S
C670 C673 1.348 . S
C670 H702 0.929 . S
C671 C672 1.358 . S
C671 C673 1.356 . S
C671 H703 0.930 . S
C672 N669 1.279 . S
C672 C671 1.358 . S
C672 H675 0.930 . S
C673 C670 1.348 . S
C673 C671 1.356 . S
H674 C668 0.930 . S
H675 C672 0.930 . S
O676 Li616 1.956 . S
O676 Li617 1.970 . S
O676 Li618 1.961 . S
O676 C620 1.325 . S
O677 Li616 1.970 . S
O677 Li617 1.956 . S
O677 Li619 1.961 . S
O677 C626 1.325 . S
O678 Li616 1.961 . S
O678 Li618 1.956 . S
O678 Li619 1.970 . S
O678 C648 1.325 . S
O679 Li617 1.961 . S
O679 Li618 1.970 . S
O679 Li619 1.956 . S
O679 C654 1.325 . S
H680 C622 0.929 . S
H681 C623 0.930 . S
H682 C624 0.930 . S
H683 C625 0.930 . S
H684 C627 0.930 . S
H685 C629 0.929 . S
H686 C630 0.930 . S
H687 C631 0.930 . S
H688 C634 0.930 . S
H689 C637 0.929 . S
H690 C642 0.929 . S
H691 C643 0.930 . S
H692 C650 0.929 . S
H693 C651 0.930 . S
H694 C652 0.930 . S
H695 C653 0.930 . S
H696 C655 0.929 . S
H697 C656 0.930 . S
H698 C657 0.930 . S
H699 C658 0.930 . S
H700 C662 0.929 . S
H701 C664 0.930 . S
H702 C670 0.929 . S
H703 C671 0.930 . S
Li704 N721 1.990 . S
Li704 O764 1.956 . S
Li704 O765 1.970 . S
Li704 O766 1.961 . S
Li705 N729 1.990 . S
Li705 O764 1.970 . S
Li705 O765 1.956 . S
Li705 O767 1.961 . S
Li706 N751 1.990 . S
Li706 O764 1.961 . S
Li706 O766 1.956 . S
Li706 O767 1.970 . S
Li707 N757 1.990 . S
Li707 O765 1.961 . S
Li707 O766 1.970 . S
Li707 O767 1.956 . S
C708 C710 1.348 . S
C708 C711 1.356 . S
C708 O764 1.325 . S
N709 C712 1.314 . S
N709 C713 1.279 . S
C710 C708 1.348 . S
C710 C712 1.353 . S
C710 H768 0.929 . S
C711 C708 1.356 . S
C711 C713 1.358 . S
C711 H769 0.930 . S
C712 N709 1.314 . S
C712 C710 1.353 . S
C712 H770 0.930 . S
C713 N709 1.279 . S
C713 C711 1.358 . S
C713 H771 0.930 . S
C714 C717 1.348 1_455 S
C714 C718 1.356 . S
C714 O765 1.325 . S
C715 N716 1.279 . S
C715 C718 1.358 1_655 S
C715 H772 0.930 . S
N716 C715 1.279 . S
N716 C719 1.314 . S
C717 C714 1.348 1_655 S
C717 C719 1.353 . S
C717 H773 0.923 1_655 S
C718 C714 1.356 . S
C718 C715 1.358 1_455 S
C718 H774 0.930 . S
C719 N716 1.314 . S
C719 C717 1.353 . S
C719 H775 0.930 . S
C720 N721 1.314 . S
C720 C725 1.353 . S
C720 H726 0.930 . S
N721 Li704 1.990 . S
N721 C720 1.314 . S
N721 C723 1.279 . S
C722 C723 1.358 . S
C722 C724 1.356 . S
C722 H776 0.930 . S
C723 N721 1.279 . S
C723 C722 1.358 . S
C723 H727 0.930 . S
C724 C722 1.356 . S
C724 C725 1.348 . S
C725 C720 1.353 . S
C725 C724 1.348 . S
C725 H777 0.929 . S
H726 C720 0.930 . S
H727 C723 0.930 . S
C728 N729 1.314 . S
C728 C730 1.353 . S
C728 H734 0.930 . S
N729 Li705 1.990 . S
N729 C728 1.314 . S
N729 C732 1.279 . S
C730 C728 1.353 . S
C730 C733 1.348 . S
C730 H778 0.929 . S
C731 C732 1.358 . S
C731 C733 1.356 . S
C731 H779 0.930 . S
C732 N729 1.279 . S
C732 C731 1.358 . S
C732 H735 0.930 . S
C733 C730 1.348 . S
C733 C731 1.356 . S
H734 C728 0.930 . S
H735 C732 0.930 . S
C736 C738 1.348 . S
C736 C739 1.356 . S
C736 O766 1.325 . S
N737 C740 1.314 . S
N737 C741 1.279 . S
C738 C736 1.348 . S
C738 C740 1.353 . S
C738 H780 0.929 . S
C739 C736 1.356 . S
C739 C741 1.358 . S
C739 H781 0.930 . S
C740 N737 1.314 . S
C740 C738 1.353 . S
C740 H782 0.930 . S
C741 N737 1.279 . S
C741 C739 1.358 . S
C741 H783 0.930 . S
C742 C743 1.348 . S
C742 C744 1.356 . S
C742 O767 1.325 . S
C743 C742 1.348 . S
C743 C745 1.353 . S
C743 H784 0.929 . S
C744 C742 1.356 . S
C744 C746 1.358 . S
C744 H785 0.930 . S
C745 C743 1.353 . S
C745 N747 1.314 . S
C745 H786 0.930 . S
C746 C744 1.358 . S
C746 N747 1.279 . S
C746 H787 0.930 . S
N747 C745 1.314 . S
N747 C746 1.279 . S
C748 C750 1.353 . S
C748 N751 1.314 . S
C748 H754 0.930 . S
C749 N751 1.279 . S
C749 C752 1.358 . S
C749 H755 0.930 . S
C750 C748 1.353 . S
C750 C753 1.348 . S
C750 H788 0.929 . S
N751 Li706 1.990 . S
N751 C748 1.314 . S
N751 C749 1.279 . S
C752 C749 1.358 . S
C752 C753 1.356 . S
C752 H789 0.930 . S
C753 C750 1.348 . S
C753 C752 1.356 . S
H754 C748 0.930 . S
H755 C749 0.930 . S
C756 N757 1.314 . S
C756 C758 1.353 . S
C756 H762 0.930 . S
N757 Li707 1.990 . S
N757 C756 1.314 . S
N757 C760 1.279 . S
C758 C756 1.353 . S
C758 C761 1.348 . S
C758 H790 0.929 . S
C759 C760 1.358 . S
C759 C761 1.356 . S
C759 H791 0.930 . S
C760 N757 1.279 . S
C760 C759 1.358 . S
C760 H763 0.930 . S
C761 C758 1.348 . S
C761 C759 1.356 . S
H762 C756 0.930 . S
H763 C760 0.930 . S
O764 Li704 1.956 . S
O764 Li705 1.970 . S
O764 Li706 1.961 . S
O764 C708 1.325 . S
O765 Li704 1.970 . S
O765 Li705 1.956 . S
O765 Li707 1.961 . S
O765 C714 1.325 . S
O766 Li704 1.961 . S
O766 Li706 1.956 . S
O766 Li707 1.970 . S
O766 C736 1.325 . S
O767 Li705 1.961 . S
O767 Li706 1.970 . S
O767 Li707 1.956 . S
O767 C742 1.325 . S
H768 C710 0.929 . S
H769 C711 0.930 . S
H770 C712 0.930 . S
H771 C713 0.930 . S
H772 C715 0.930 . S
H773 C717 0.923 1_455 S
H774 C718 0.930 . S
H775 C719 0.930 . S
H776 C722 0.930 . S
H777 C725 0.929 . S
H778 C730 0.929 . S
H779 C731 0.930 . S
H780 C738 0.929 . S
H781 C739 0.930 . S
H782 C740 0.930 . S
H783 C741 0.930 . S
H784 C743 0.929 . S
H785 C744 0.930 . S
H786 C745 0.930 . S
H787 C746 0.930 . S
H788 C750 0.929 . S
H789 C752 0.930 . S
H790 C758 0.929 . S
H791 C759 0.930 . S
Li792 N809 1.990 . S
Li792 O852 1.956 . S
Li792 O853 1.970 . S
Li792 O854 1.961 . S
Li793 N817 1.990 . S
Li793 O852 1.970 . S
Li793 O853 1.956 . S
Li793 O855 1.961 . S
Li794 N839 1.990 . S
Li794 O852 1.961 . S
Li794 O854 1.956 . S
Li794 O855 1.970 . S
Li795 N845 1.990 . S
Li795 O853 1.961 . S
Li795 O854 1.970 . S
Li795 O855 1.956 . S
C796 C798 1.348 . S
C796 C799 1.356 . S
C796 O852 1.325 . S
N797 C800 1.314 . S
N797 C801 1.279 . S
C798 C796 1.348 . S
C798 C800 1.353 . S
C798 H856 0.929 . S
C799 C796 1.356 . S
C799 C801 1.358 . S
C799 H857 0.930 . S
C800 N797 1.314 . S
C800 C798 1.353 . S
C800 H858 0.930 . S
C801 N797 1.279 . S
C801 C799 1.358 . S
C801 H859 0.930 . S
C802 C805 1.348 . S
C802 C806 1.356 . S
C802 O853 1.325 . S
C803 N804 1.279 . S
C803 C806 1.358 . S
C803 H860 0.930 . S
N804 C803 1.279 . S
N804 C807 1.314 . S
C805 C802 1.348 . S
C805 C807 1.353 . S
C805 H861 0.929 . S
C806 C802 1.356 . S
C806 C803 1.358 . S
C806 H862 0.930 . S
C807 N804 1.314 . S
C807 C805 1.353 . S
C807 H863 0.930 . S
C808 N809 1.314 . S
C808 C813 1.353 . S
C808 H814 0.930 . S
N809 Li792 1.990 . S
N809 C808 1.314 . S
N809 C811 1.279 . S
C810 C811 1.358 . S
C810 C812 1.356 . S
C810 H864 0.930 . S
C811 N809 1.279 . S
C811 C810 1.358 . S
C811 H815 0.930 . S
C812 C810 1.356 . S
C812 C813 1.348 . S
C813 C808 1.353 . S
C813 C812 1.348 . S
C813 H865 0.929 . S
H814 C808 0.930 . S
H815 C811 0.930 . S
C816 N817 1.314 . S
C816 C818 1.353 . S
C816 H822 0.930 . S
N817 Li793 1.990 . S
N817 C816 1.314 . S
N817 C820 1.279 . S
C818 C816 1.353 . S
C818 C821 1.348 . S
C818 H866 0.929 . S
C819 C820 1.358 . S
C819 C821 1.356 . S
C819 H867 0.930 . S
C820 N817 1.279 . S
C820 C819 1.358 . S
C820 H823 0.930 . S
C821 C818 1.348 . S
C821 C819 1.356 . S
H822 C816 0.930 . S
H823 C820 0.930 . S
C824 C826 1.348 . S
C824 C827 1.356 . S
C824 O854 1.325 . S
N825 C828 1.314 . S
N825 C829 1.279 . S
C826 C824 1.348 . S
C826 C828 1.353 . S
C826 H868 0.929 . S
C827 C824 1.356 . S
C827 C829 1.358 . S
C827 H869 0.930 . S
C828 N825 1.314 . S
C828 C826 1.353 . S
C828 H870 0.930 . S
C829 N825 1.279 . S
C829 C827 1.358 . S
C829 H871 0.930 . S
C830 C831 1.348 . S
C830 C832 1.356 . S
C830 O855 1.325 . S
C831 C830 1.348 . S
C831 C833 1.353 . S
C831 H872 0.929 . S
C832 C830 1.356 . S
C832 C834 1.358 . S
C832 H873 0.930 . S
C833 C831 1.353 . S
C833 N835 1.314 . S
C833 H874 0.930 . S
C834 C832 1.358 . S
C834 N835 1.279 . S
C834 H875 0.930 . S
N835 C833 1.314 . S
N835 C834 1.279 . S
C836 C838 1.353 . S
C836 N839 1.314 . S
C836 H842 0.930 . S
C837 N839 1.279 . S
C837 C840 1.358 . S
C837 H843 0.930 . S
C838 C836 1.353 . S
C838 C841 1.348 . S
C838 H876 0.929 . S
N839 Li794 1.990 . S
N839 C836 1.314 . S
N839 C837 1.279 . S
C840 C837 1.358 . S
C840 C841 1.356 . S
C840 H877 0.930 . S
C841 C838 1.348 . S
C841 C840 1.356 . S
H842 C836 0.930 . S
H843 C837 0.930 . S
C844 N845 1.314 . S
C844 C846 1.353 . S
C844 H850 0.930 . S
N845 Li795 1.990 . S
N845 C844 1.314 . S
N845 C848 1.279 . S
C846 C844 1.353 . S
C846 C849 1.348 . S
C846 H878 0.929 . S
C847 C848 1.358 . S
C847 C849 1.356 . S
C847 H879 0.930 . S
C848 N845 1.279 . S
C848 C847 1.358 . S
C848 H851 0.930 . S
C849 C846 1.348 . S
C849 C847 1.356 . S
H850 C844 0.930 . S
H851 C848 0.930 . S
O852 Li792 1.956 . S
O852 Li793 1.970 . S
O852 Li794 1.961 . S
O852 C796 1.325 . S
O853 Li792 1.970 . S
O853 Li793 1.956 . S
O853 Li795 1.961 . S
O853 C802 1.325 . S
O854 Li792 1.961 . S
O854 Li794 1.956 . S
O854 Li795 1.970 . S
O854 C824 1.325 . S
O855 Li793 1.961 . S
O855 Li794 1.970 . S
O855 Li795 1.956 . S
O855 C830 1.325 . S
H856 C798 0.929 . S
H857 C799 0.930 . S
H858 C800 0.930 . S
H859 C801 0.930 . S
H860 C803 0.930 . S
H861 C805 0.929 . S
H862 C806 0.930 . S
H863 C807 0.930 . S
H864 C810 0.930 . S
H865 C813 0.929 . S
H866 C818 0.929 . S
H867 C819 0.930 . S
H868 C826 0.929 . S
H869 C827 0.930 . S
H870 C828 0.930 . S
H871 C829 0.930 . S
H872 C831 0.929 . S
H873 C832 0.930 . S
H874 C833 0.930 . S
H875 C834 0.930 . S
H876 C838 0.929 . S
H877 C840 0.930 . S
H878 C846 0.929 . S
H879 C847 0.930 . S
Li880 N897 1.990 . S
Li880 O940 1.956 . S
Li880 O941 1.970 . S
Li880 O942 1.961 . S
Li881 N905 1.990 . S
Li881 O940 1.970 . S
Li881 O941 1.956 . S
Li881 O943 1.961 . S
Li882 N927 1.990 . S
Li882 O940 1.961 . S
Li882 O942 1.956 . S
Li882 O943 1.970 . S
Li883 N933 1.990 . S
Li883 O941 1.961 . S
Li883 O942 1.970 . S
Li883 O943 1.956 . S
C884 C886 1.348 . S
C884 C887 1.356 . S
C884 O940 1.325 . S
N885 C888 1.314 . S
N885 C889 1.279 . S
C886 C884 1.348 . S
C886 C888 1.353 . S
C886 H944 0.929 . S
C887 C884 1.356 . S
C887 C889 1.358 . S
C887 H945 0.930 . S
C888 N885 1.314 . S
C888 C886 1.353 . S
C888 H946 0.930 . S
C889 N885 1.279 . S
C889 C887 1.358 . S
C889 H947 0.930 . S
C890 C893 1.348 . S
C890 C894 1.356 . S
C890 O941 1.325 . S
C891 N892 1.279 . S
C891 C894 1.358 . S
C891 H948 0.930 . S
N892 C891 1.279 . S
N892 C895 1.314 . S
C893 C890 1.348 . S
C893 C895 1.353 . S
C893 H949 0.929 . S
C894 C890 1.356 . S
C894 C891 1.358 . S
C894 H950 0.930 . S
C895 N892 1.314 . S
C895 C893 1.353 . S
C895 H951 0.930 . S
C896 N897 1.314 . S
C896 C901 1.353 . S
C896 H902 0.930 . S
N897 Li880 1.990 . S
N897 C896 1.314 . S
N897 C899 1.279 . S
C898 C899 1.358 . S
C898 C900 1.356 . S
C898 H952 0.930 . S
C899 N897 1.279 . S
C899 C898 1.358 . S
C899 H903 0.930 . S
C900 C898 1.356 . S
C900 C901 1.348 . S
C901 C896 1.353 . S
C901 C900 1.348 . S
C901 H953 0.929 . S
H902 C896 0.930 . S
H903 C899 0.930 . S
C904 N905 1.314 . S
C904 C906 1.353 . S
C904 H910 0.930 . S
N905 Li881 1.990 . S
N905 C904 1.314 . S
N905 C908 1.279 . S
C906 C904 1.353 . S
C906 C909 1.348 . S
C906 H954 0.929 . S
C907 C908 1.358 . S
C907 C909 1.356 . S
C907 H955 0.930 . S
C908 N905 1.279 . S
C908 C907 1.358 . S
C908 H911 0.930 . S
C909 C906 1.348 . S
C909 C907 1.356 . S
H910 C904 0.930 . S
H911 C908 0.930 . S
C912 C914 1.348 1_455 S
C912 C915 1.356 . S
C912 O942 1.325 . S
N913 C916 1.314 . S
N913 C917 1.279 . S
C914 C912 1.348 1_655 S
C914 C916 1.353 . S
C914 H956 0.923 1_655 S
C915 C912 1.356 . S
C915 C917 1.358 1_455 S
C915 H957 0.930 . S
C916 N913 1.314 . S
C916 C914 1.353 . S
C916 H958 0.930 . S
C917 N913 1.279 . S
C917 C915 1.358 1_655 S
C917 H959 0.930 . S
C918 C919 1.348 . S
C918 C920 1.356 . S
C918 O943 1.325 . S
C919 C918 1.348 . S
C919 C921 1.353 . S
C919 H960 0.929 . S
C920 C918 1.356 . S
C920 C922 1.358 . S
C920 H961 0.930 . S
C921 C919 1.353 . S
C921 N923 1.314 . S
C921 H962 0.930 . S
C922 C920 1.358 . S
C922 N923 1.279 . S
C922 H963 0.930 . S
N923 C921 1.314 . S
N923 C922 1.279 . S
C924 C926 1.353 . S
C924 N927 1.314 . S
C924 H930 0.930 . S
C925 N927 1.279 . S
C925 C928 1.358 . S
C925 H931 0.930 . S
C926 C924 1.353 . S
C926 C929 1.348 . S
C926 H964 0.929 . S
N927 Li882 1.990 . S
N927 C924 1.314 . S
N927 C925 1.279 . S
C928 C925 1.358 . S
C928 C929 1.356 . S
C928 H965 0.930 . S
C929 C926 1.348 . S
C929 C928 1.356 . S
H930 C924 0.930 . S
H931 C925 0.930 . S
C932 N933 1.314 . S
C932 C934 1.353 . S
C932 H938 0.930 . S
N933 Li883 1.990 . S
N933 C932 1.314 . S
N933 C936 1.279 . S
C934 C932 1.353 . S
C934 C937 1.348 . S
C934 H966 0.929 . S
C935 C936 1.358 . S
C935 C937 1.356 . S
C935 H967 0.930 . S
C936 N933 1.279 . S
C936 C935 1.358 . S
C936 H939 0.930 . S
C937 C934 1.348 . S
C937 C935 1.356 . S
H938 C932 0.930 . S
H939 C936 0.930 . S
O940 Li880 1.956 . S
O940 Li881 1.970 . S
O940 Li882 1.961 . S
O940 C884 1.325 . S
O941 Li880 1.970 . S
O941 Li881 1.956 . S
O941 Li883 1.961 . S
O941 C890 1.325 . S
O942 Li880 1.961 . S
O942 Li882 1.956 . S
O942 Li883 1.970 . S
O942 C912 1.325 . S
O943 Li881 1.961 . S
O943 Li882 1.970 . S
O943 Li883 1.956 . S
O943 C918 1.325 . S
H944 C886 0.929 . S
H945 C887 0.930 . S
H946 C888 0.930 . S
H947 C889 0.930 . S
H948 C891 0.930 . S
H949 C893 0.929 . S
H950 C894 0.930 . S
H951 C895 0.930 . S
H952 C898 0.930 . S
H953 C901 0.929 . S
H954 C906 0.929 . S
H955 C907 0.930 . S
H956 C914 0.923 1_455 S
H957 C915 0.930 . S
H958 C916 0.930 . S
H959 C917 0.930 . S
H960 C919 0.929 . S
H961 C920 0.930 . S
H962 C921 0.930 . S
H963 C922 0.930 . S
H964 C926 0.929 . S
H965 C928 0.930 . S
H966 C934 0.929 . S
H967 C935 0.930 . S
Li968 N985 1.990 . S
Li968 O1028 1.956 . S
Li968 O1029 1.970 . S
Li968 O1030 1.961 . S
Li969 N993 1.990 . S
Li969 O1028 1.970 . S
Li969 O1029 1.956 . S
Li969 O1031 1.961 . S
Li970 N1015 1.990 . S
Li970 O1028 1.961 . S
Li970 O1030 1.956 . S
Li970 O1031 1.970 . S
Li971 N1021 1.990 . S
Li971 O1029 1.961 . S
Li971 O1030 1.970 . S
Li971 O1031 1.956 . S
C972 C974 1.348 . S
C972 C975 1.356 . S
C972 O1028 1.325 . S
N973 C976 1.314 . S
N973 C977 1.279 . S
C974 C972 1.348 . S
C974 C976 1.353 . S
C974 H1032 0.929 . S
C975 C972 1.356 . S
C975 C977 1.358 . S
C975 H1033 0.930 . S
C976 N973 1.314 . S
C976 C974 1.353 . S
C976 H1034 0.930 . S
C977 N973 1.279 . S
C977 C975 1.358 . S
C977 H1035 0.930 . S
C978 C981 1.348 . S
C978 C982 1.356 . S
C978 O1029 1.325 . S
C979 N980 1.279 . S
C979 C982 1.358 . S
C979 H1036 0.930 . S
N980 C979 1.279 . S
N980 C983 1.314 . S
C981 C978 1.348 . S
C981 C983 1.353 . S
C981 H1037 0.929 . S
C982 C978 1.356 . S
C982 C979 1.358 . S
C982 H1038 0.930 . S
C983 N980 1.314 . S
C983 C981 1.353 . S
C983 H1039 0.930 . S
C984 N985 1.314 . S
C984 C989 1.353 . S
C984 H990 0.930 . S
N985 Li968 1.990 . S
N985 C984 1.314 . S
N985 C987 1.279 . S
C986 C987 1.358 . S
C986 C988 1.356 . S
C986 H1040 0.930 . S
C987 N985 1.279 . S
C987 C986 1.358 . S
C987 H991 0.930 . S
C988 C986 1.356 . S
C988 C989 1.348 . S
C989 C984 1.353 . S
C989 C988 1.348 . S
C989 H1041 0.929 . S
H990 C984 0.930 . S
H991 C987 0.930 . S
C992 N993 1.314 . S
C992 C994 1.353 . S
C992 H998 0.930 . S
N993 Li969 1.990 . S
N993 C992 1.314 . S
N993 C996 1.279 . S
C994 C992 1.353 . S
C994 C997 1.348 . S
C994 H1042 0.929 . S
C995 C996 1.358 . S
C995 C997 1.356 . S
C995 H1043 0.930 . S
C996 N993 1.279 . S
C996 C995 1.358 . S
C996 H999 0.930 . S
C997 C994 1.348 . S
C997 C995 1.356 . S
H998 C992 0.930 . S
H999 C996 0.930 . S
C1000 C1002 1.348 . S
C1000 C1003 1.356 . S
C1000 O1030 1.325 . S
N1001 C1004 1.314 . S
N1001 C1005 1.279 . S
C1002 C1000 1.348 . S
C1002 C1004 1.353 . S
C1002 H1044 0.929 . S
C1003 C1000 1.356 . S
C1003 C1005 1.358 . S
C1003 H1045 0.930 . S
C1004 N1001 1.314 . S
C1004 C1002 1.353 . S
C1004 H1046 0.930 . S
C1005 N1001 1.279 . S
C1005 C1003 1.358 . S
C1005 H1047 0.930 . S
C1006 C1007 1.348 . S
C1006 C1008 1.356 . S
C1006 O1031 1.325 . S
C1007 C1006 1.348 . S
C1007 C1009 1.353 . S
C1007 H1048 0.929 . S
C1008 C1006 1.356 . S
C1008 C1010 1.358 . S
C1008 H1049 0.930 . S
C1009 C1007 1.353 . S
C1009 N1011 1.314 . S
C1009 H1050 0.930 . S
C1010 C1008 1.358 . S
C1010 N1011 1.279 . S
C1010 H1051 0.930 . S
N1011 C1009 1.314 . S
N1011 C1010 1.279 . S
C1012 C1014 1.353 . S
C1012 N1015 1.314 . S
C1012 H1018 0.930 . S
C1013 N1015 1.279 . S
C1013 C1016 1.358 . S
C1013 H1019 0.930 . S
C1014 C1012 1.353 . S
C1014 C1017 1.348 . S
C1014 H1052 0.929 . S
N1015 Li970 1.990 . S
N1015 C1012 1.314 . S
N1015 C1013 1.279 . S
C1016 C1013 1.358 . S
C1016 C1017 1.356 . S
C1016 H1053 0.930 . S
C1017 C1014 1.348 . S
C1017 C1016 1.356 . S
H1018 C1012 0.930 . S
H1019 C1013 0.930 . S
C1020 N1021 1.314 . S
C1020 C1022 1.353 . S
C1020 H1026 0.930 . S
N1021 Li971 1.990 . S
N1021 C1020 1.314 . S
N1021 C1024 1.279 . S
C1022 C1020 1.353 . S
C1022 C1025 1.348 . S
C1022 H1054 0.929 . S
C1023 C1024 1.358 . S
C1023 C1025 1.356 . S
C1023 H1055 0.930 . S
C1024 N1021 1.279 . S
C1024 C1023 1.358 . S
C1024 H1027 0.930 . S
C1025 C1022 1.348 . S
C1025 C1023 1.356 . S
H1026 C1020 0.930 . S
H1027 C1024 0.930 . S
O1028 Li968 1.956 . S
O1028 Li969 1.970 . S
O1028 Li970 1.961 . S
O1028 C972 1.325 . S
O1029 Li968 1.970 . S
O1029 Li969 1.956 . S
O1029 Li971 1.961 . S
O1029 C978 1.325 . S
O1030 Li968 1.961 . S
O1030 Li970 1.956 . S
O1030 Li971 1.970 . S
O1030 C1000 1.325 . S
O1031 Li969 1.961 . S
O1031 Li970 1.970 . S
O1031 Li971 1.956 . S
O1031 C1006 1.325 . S
H1032 C974 0.929 . S
H1033 C975 0.930 . S
H1034 C976 0.930 . S
H1035 C977 0.930 . S
H1036 C979 0.930 . S
H1037 C981 0.929 . S
H1038 C982 0.930 . S
H1039 C983 0.930 . S
H1040 C986 0.930 . S
H1041 C989 0.929 . S
H1042 C994 0.929 . S
H1043 C995 0.930 . S
H1044 C1002 0.929 . S
H1045 C1003 0.930 . S
H1046 C1004 0.930 . S
H1047 C1005 0.930 . S
H1048 C1007 0.929 . S
H1049 C1008 0.930 . S
H1050 C1009 0.930 . S
H1051 C1010 0.930 . S
H1052 C1014 0.929 . S
H1053 C1016 0.930 . S
H1054 C1022 0.929 . S
H1055 C1023 0.930 . S
Li1056 N1073 1.990 . S
Li1056 O1116 1.956 . S
Li1056 O1117 1.970 . S
Li1056 O1118 1.961 . S
Li1057 N1081 1.990 . S
Li1057 O1116 1.970 . S
Li1057 O1117 1.956 . S
Li1057 O1119 1.961 . S
Li1058 N1103 1.990 . S
Li1058 O1116 1.961 . S
Li1058 O1118 1.956 . S
Li1058 O1119 1.970 . S
Li1059 N1109 1.990 . S
Li1059 O1117 1.961 . S
Li1059 O1118 1.970 . S
Li1059 O1119 1.956 . S
C1060 C1062 1.348 . S
C1060 C1063 1.356 . S
C1060 O1116 1.325 . S
N1061 C1064 1.314 . S
N1061 C1065 1.279 . S
C1062 C1060 1.348 . S
C1062 C1064 1.353 . S
C1062 H1120 0.929 . S
C1063 C1060 1.356 . S
C1063 C1065 1.358 . S
C1063 H1121 0.930 . S
C1064 N1061 1.314 . S
C1064 C1062 1.353 . S
C1064 H1122 0.930 . S
C1065 N1061 1.279 . S
C1065 C1063 1.358 . S
C1065 H1123 0.930 . S
C1066 C1069 1.348 1_655 S
C1066 C1070 1.356 . S
C1066 O1117 1.325 . S
C1067 N1068 1.279 . S
C1067 C1070 1.358 1_455 S
C1067 H1124 0.930 . S
N1068 C1067 1.279 . S
N1068 C1071 1.314 . S
C1069 C1066 1.348 1_455 S
C1069 C1071 1.353 . S
C1069 H1125 0.944 . S
C1070 C1066 1.356 . S
C1070 C1067 1.358 1_655 S
C1070 H1126 0.930 . S
C1071 N1068 1.314 . S
C1071 C1069 1.353 . S
C1071 H1127 0.930 . S
C1072 N1073 1.314 . S
C1072 C1077 1.353 . S
C1072 H1078 0.930 . S
N1073 Li1056 1.990 . S
N1073 C1072 1.314 . S
N1073 C1075 1.279 . S
C1074 C1075 1.358 . S
C1074 C1076 1.356 . S
C1074 H1128 0.930 . S
C1075 N1073 1.279 . S
C1075 C1074 1.358 . S
C1075 H1079 0.930 . S
C1076 C1074 1.356 . S
C1076 C1077 1.348 . S
C1077 C1072 1.353 . S
C1077 C1076 1.348 . S
C1077 H1129 0.929 . S
H1078 C1072 0.930 . S
H1079 C1075 0.930 . S
C1080 N1081 1.314 . S
C1080 C1082 1.353 . S
C1080 H1086 0.930 . S
N1081 Li1057 1.990 . S
N1081 C1080 1.314 . S
N1081 C1084 1.279 . S
C1082 C1080 1.353 . S
C1082 C1085 1.348 . S
C1082 H1130 0.929 . S
C1083 C1084 1.358 . S
C1083 C1085 1.356 . S
C1083 H1131 0.869 1_655 S
C1084 N1081 1.279 . S
C1084 C1083 1.358 . S
C1084 H1087 0.930 . S
C1085 C1082 1.348 . S
C1085 C1083 1.356 . S
H1086 C1080 0.930 . S
H1087 C1084 0.930 . S
C1088 C1090 1.348 . S
C1088 C1091 1.356 . S
C1088 O1118 1.325 . S
N1089 C1092 1.314 . S
N1089 C1093 1.279 . S
C1090 C1088 1.348 . S
C1090 C1092 1.353 . S
C1090 H1132 0.929 . S
C1091 C1088 1.356 . S
C1091 C1093 1.358 . S
C1091 H1133 0.930 . S
C1092 N1089 1.314 . S
C1092 C1090 1.353 . S
C1092 H1134 0.930 . S
C1093 N1089 1.279 . S
C1093 C1091 1.358 . S
C1093 H1135 0.930 . S
C1094 C1095 1.348 . S
C1094 C1096 1.356 . S
C1094 O1119 1.325 . S
C1095 C1094 1.348 . S
C1095 C1097 1.353 . S
C1095 H1136 0.929 . S
C1096 C1094 1.356 . S
C1096 C1098 1.358 . S
C1096 H1137 0.930 . S
C1097 C1095 1.353 . S
C1097 N1099 1.314 . S
C1097 H1138 0.930 . S
C1098 C1096 1.358 . S
C1098 N1099 1.279 . S
C1098 H1139 0.930 . S
N1099 C1097 1.314 . S
N1099 C1098 1.279 . S
C1100 C1102 1.353 . S
C1100 N1103 1.314 . S
C1100 H1106 0.930 . S
C1101 N1103 1.279 . S
C1101 C1104 1.358 . S
C1101 H1107 0.930 . S
C1102 C1100 1.353 . S
C1102 C1105 1.348 . S
C1102 H1140 0.929 . S
N1103 Li1058 1.990 . S
N1103 C1100 1.314 . S
N1103 C1101 1.279 . S
C1104 C1101 1.358 . S
C1104 C1105 1.356 . S
C1104 H1141 0.930 . S
C1105 C1102 1.348 . S
C1105 C1104 1.356 . S
H1106 C1100 0.930 . S
H1107 C1101 0.930 . S
C1108 N1109 1.314 . S
C1108 C1110 1.353 . S
C1108 H1114 0.930 . S
N1109 Li1059 1.990 . S
N1109 C1108 1.314 . S
N1109 C1112 1.279 . S
C1110 C1108 1.353 . S
C1110 C1113 1.348 . S
C1110 H1142 0.929 . S
C1111 C1112 1.358 . S
C1111 C1113 1.356 . S
C1111 H1143 0.930 . S
C1112 N1109 1.279 . S
C1112 C1111 1.358 . S
C1112 H1115 0.930 . S
C1113 C1110 1.348 . S
C1113 C1111 1.356 . S
H1114 C1108 0.930 . S
H1115 C1112 0.930 . S
O1116 Li1056 1.956 . S
O1116 Li1057 1.970 . S
O1116 Li1058 1.961 . S
O1116 C1060 1.325 . S
O1117 Li1056 1.970 . S
O1117 Li1057 1.956 . S
O1117 Li1059 1.961 . S
O1117 C1066 1.325 . S
O1118 Li1056 1.961 . S
O1118 Li1058 1.956 . S
O1118 Li1059 1.970 . S
O1118 C1088 1.325 . S
O1119 Li1057 1.961 . S
O1119 Li1058 1.970 . S
O1119 Li1059 1.956 . S
O1119 C1094 1.325 . S
H1120 C1062 0.929 . S
H1121 C1063 0.930 . S
H1122 C1064 0.930 . S
H1123 C1065 0.930 . S
H1124 C1067 0.930 . S
H1125 C1069 0.944 . S
H1126 C1070 0.930 . S
H1127 C1071 0.930 . S
H1128 C1074 0.930 . S
H1129 C1077 0.929 . S
H1130 C1082 0.929 . S
H1131 C1083 0.869 1_455 S
H1132 C1090 0.929 . S
H1133 C1091 0.930 . S
H1134 C1092 0.930 . S
H1135 C1093 0.930 . S
H1136 C1095 0.929 . S
H1137 C1096 0.930 . S
H1138 C1097 0.930 . S
H1139 C1098 0.930 . S
H1140 C1102 0.929 . S
H1141 C1104 0.930 . S
H1142 C1110 0.929 . S
H1143 C1111 0.930 . S
Li1144 N1161 1.990 . S
Li1144 O1204 1.956 . S
Li1144 O1205 1.970 . S
Li1144 O1206 1.961 . S
Li1145 N1169 1.990 . S
Li1145 O1204 1.970 . S
Li1145 O1205 1.956 . S
Li1145 O1207 1.961 . S
Li1146 N1191 1.990 . S
Li1146 O1204 1.961 . S
Li1146 O1206 1.956 . S
Li1146 O1207 1.970 . S
Li1147 N1197 1.990 . S
Li1147 O1205 1.961 . S
Li1147 O1206 1.970 . S
Li1147 O1207 1.956 . S
C1148 C1150 1.348 . S
C1148 C1151 1.356 . S
C1148 O1204 1.325 . S
N1149 C1152 1.314 . S
N1149 C1153 1.279 . S
C1150 C1148 1.348 . S
C1150 C1152 1.353 . S
C1150 H1208 0.929 . S
C1151 C1148 1.356 . S
C1151 C1153 1.358 . S
C1151 H1209 0.930 . S
C1152 N1149 1.314 . S
C1152 C1150 1.353 . S
C1152 H1210 0.930 . S
C1153 N1149 1.279 . S
C1153 C1151 1.358 . S
C1153 H1211 0.930 . S
C1154 C1157 1.348 . S
C1154 C1158 1.356 . S
C1154 O1205 1.325 . S
C1155 N1156 1.279 . S
C1155 C1158 1.358 . S
C1155 H1212 0.930 . S
N1156 C1155 1.279 . S
N1156 C1159 1.314 . S
C1157 C1154 1.348 . S
C1157 C1159 1.353 . S
C1157 H1213 0.929 . S
C1158 C1154 1.356 . S
C1158 C1155 1.358 . S
C1158 H1214 0.930 . S
C1159 N1156 1.314 . S
C1159 C1157 1.353 . S
C1159 H1215 0.930 . S
C1160 N1161 1.314 . S
C1160 C1165 1.353 . S
C1160 H1166 0.930 . S
N1161 Li1144 1.990 . S
N1161 C1160 1.314 . S
N1161 C1163 1.279 . S
C1162 C1163 1.358 . S
C1162 C1164 1.356 . S
C1162 H1216 0.930 . S
C1163 N1161 1.279 . S
C1163 C1162 1.358 . S
C1163 H1167 0.930 . S
C1164 C1162 1.356 . S
C1164 C1165 1.348 . S
C1165 C1160 1.353 . S
C1165 C1164 1.348 . S
C1165 H1217 0.929 . S
H1166 C1160 0.930 . S
H1167 C1163 0.930 . S
C1168 N1169 1.314 . S
C1168 C1170 1.353 . S
C1168 H1174 0.930 . S
N1169 Li1145 1.990 . S
N1169 C1168 1.314 . S
N1169 C1172 1.279 . S
C1170 C1168 1.353 . S
C1170 C1173 1.348 . S
C1170 H1218 0.929 . S
C1171 C1172 1.358 . S
C1171 C1173 1.356 . S
C1171 H1219 0.930 . S
C1172 N1169 1.279 . S
C1172 C1171 1.358 . S
C1172 H1175 0.930 . S
C1173 C1170 1.348 . S
C1173 C1171 1.356 . S
H1174 C1168 0.930 . S
H1175 C1172 0.930 . S
C1176 C1178 1.348 . S
C1176 C1179 1.356 . S
C1176 O1206 1.325 . S
N1177 C1180 1.314 . S
N1177 C1181 1.279 . S
C1178 C1176 1.348 . S
C1178 C1180 1.353 . S
C1178 H1220 0.929 . S
C1179 C1176 1.356 . S
C1179 C1181 1.358 . S
C1179 H1221 0.930 . S
C1180 N1177 1.314 . S
C1180 C1178 1.353 . S
C1180 H1222 0.930 . S
C1181 N1177 1.279 . S
C1181 C1179 1.358 . S
C1181 H1223 0.930 . S
C1182 C1183 1.348 . S
C1182 C1184 1.356 . S
C1182 O1207 1.325 . S
C1183 C1182 1.348 . S
C1183 C1185 1.353 . S
C1183 H1224 0.929 . S
C1184 C1182 1.356 . S
C1184 C1186 1.358 . S
C1184 H1225 0.930 . S
C1185 C1183 1.353 . S
C1185 N1187 1.314 . S
C1185 H1226 0.930 . S
C1186 C1184 1.358 . S
C1186 N1187 1.279 . S
C1186 H1227 0.930 . S
N1187 C1185 1.314 . S
N1187 C1186 1.279 . S
C1188 C1190 1.353 . S
C1188 N1191 1.314 . S
C1188 H1194 0.930 . S
C1189 N1191 1.279 . S
C1189 C1192 1.358 . S
C1189 H1195 0.930 . S
C1190 C1188 1.353 . S
C1190 C1193 1.348 . S
C1190 H1228 0.929 . S
N1191 Li1146 1.990 . S
N1191 C1188 1.314 . S
N1191 C1189 1.279 . S
C1192 C1189 1.358 . S
C1192 C1193 1.356 . S
C1192 H1229 0.930 . S
C1193 C1190 1.348 . S
C1193 C1192 1.356 . S
H1194 C1188 0.930 . S
H1195 C1189 0.930 . S
C1196 N1197 1.314 . S
C1196 C1198 1.353 . S
C1196 H1202 0.930 . S
N1197 Li1147 1.990 . S
N1197 C1196 1.314 . S
N1197 C1200 1.279 . S
C1198 C1196 1.353 . S
C1198 C1201 1.348 . S
C1198 H1230 0.929 . S
C1199 C1200 1.358 . S
C1199 C1201 1.356 . S
C1199 H1231 0.930 . S
C1200 N1197 1.279 . S
C1200 C1199 1.358 . S
C1200 H1203 0.930 . S
C1201 C1198 1.348 . S
C1201 C1199 1.356 . S
H1202 C1196 0.930 . S
H1203 C1200 0.930 . S
O1204 Li1144 1.956 . S
O1204 Li1145 1.970 . S
O1204 Li1146 1.961 . S
O1204 C1148 1.325 . S
O1205 Li1144 1.970 . S
O1205 Li1145 1.956 . S
O1205 Li1147 1.961 . S
O1205 C1154 1.325 . S
O1206 Li1144 1.961 . S
O1206 Li1146 1.956 . S
O1206 Li1147 1.970 . S
O1206 C1176 1.325 . S
O1207 Li1145 1.961 . S
O1207 Li1146 1.970 . S
O1207 Li1147 1.956 . S
O1207 C1182 1.325 . S
H1208 C1150 0.929 . S
H1209 C1151 0.930 . S
H1210 C1152 0.930 . S
H1211 C1153 0.930 . S
H1212 C1155 0.930 . S
H1213 C1157 0.929 . S
H1214 C1158 0.930 . S
H1215 C1159 0.930 . S
H1216 C1162 0.930 . S
H1217 C1165 0.929 . S
H1218 C1170 0.929 . S
H1219 C1171 0.930 . S
H1220 C1178 0.929 . S
H1221 C1179 0.930 . S
H1222 C1180 0.930 . S
H1223 C1181 0.930 . S
H1224 C1183 0.929 . S
H1225 C1184 0.930 . S
H1226 C1185 0.930 . S
H1227 C1186 0.930 . S
H1228 C1190 0.929 . S
H1229 C1192 0.930 . S
H1230 C1198 0.929 . S
H1231 C1199 0.930 . S
Li1232 N1249 1.990 . S
Li1232 O1292 1.956 . S
Li1232 O1293 1.970 . S
Li1232 O1294 1.961 . S
Li1233 N1257 1.990 . S
Li1233 O1292 1.970 . S
Li1233 O1293 1.956 . S
Li1233 O1295 1.961 . S
Li1234 N1279 1.990 . S
Li1234 O1292 1.961 . S
Li1234 O1294 1.956 . S
Li1234 O1295 1.970 . S
Li1235 N1285 1.990 . S
Li1235 O1293 1.961 . S
Li1235 O1294 1.970 . S
Li1235 O1295 1.956 . S
C1236 C1238 1.348 . S
C1236 C1239 1.356 . S
C1236 O1292 1.325 . S
N1237 C1240 1.314 . S
N1237 C1241 1.279 . S
C1238 C1236 1.348 . S
C1238 C1240 1.353 . S
C1238 H1296 0.929 . S
C1239 C1236 1.356 . S
C1239 C1241 1.358 . S
C1239 H1297 0.930 . S
C1240 N1237 1.314 . S
C1240 C1238 1.353 . S
C1240 H1298 0.930 . S
C1241 N1237 1.279 . S
C1241 C1239 1.358 . S
C1241 H1299 0.930 . S
C1242 C1245 1.348 . S
C1242 C1246 1.356 . S
C1242 O1293 1.325 . S
C1243 N1244 1.279 . S
C1243 C1246 1.358 . S
C1243 H1300 0.930 . S
N1244 C1243 1.279 . S
N1244 C1247 1.314 . S
C1245 C1242 1.348 . S
C1245 C1247 1.353 . S
C1245 H1301 0.929 . S
C1246 C1242 1.356 . S
C1246 C1243 1.358 . S
C1246 H1302 0.930 . S
C1247 N1244 1.314 . S
C1247 C1245 1.353 . S
C1247 H1303 0.930 . S
C1248 N1249 1.314 . S
C1248 C1253 1.353 . S
C1248 H1254 0.930 . S
N1249 Li1232 1.990 . S
N1249 C1248 1.314 . S
N1249 C1251 1.279 . S
C1250 C1251 1.358 . S
C1250 C1252 1.356 . S
C1250 H1304 0.930 . S
C1251 N1249 1.279 . S
C1251 C1250 1.358 . S
C1251 H1255 0.930 . S
C1252 C1250 1.356 . S
C1252 C1253 1.348 . S
C1253 C1248 1.353 . S
C1253 C1252 1.348 . S
C1253 H1305 0.929 . S
H1254 C1248 0.930 . S
H1255 C1251 0.930 . S
C1256 N1257 1.314 . S
C1256 C1258 1.353 . S
C1256 H1262 0.930 . S
N1257 Li1233 1.990 . S
N1257 C1256 1.314 . S
N1257 C1260 1.279 . S
C1258 C1256 1.353 . S
C1258 C1261 1.348 . S
C1258 H1306 0.929 . S
C1259 C1260 1.358 . S
C1259 C1261 1.356 . S
C1259 H1307 0.930 . S
C1260 N1257 1.279 . S
C1260 C1259 1.358 . S
C1260 H1263 0.930 . S
C1261 C1258 1.348 . S
C1261 C1259 1.356 . S
H1262 C1256 0.930 . S
H1263 C1260 0.930 . S
C1264 C1266 1.348 . S
C1264 C1267 1.356 . S
C1264 O1294 1.325 . S
N1265 C1268 1.314 . S
N1265 C1269 1.279 . S
C1266 C1264 1.348 . S
C1266 C1268 1.353 . S
C1266 H1308 0.929 . S
C1267 C1264 1.356 . S
C1267 C1269 1.358 . S
C1267 H1309 0.930 . S
C1268 N1265 1.314 . S
C1268 C1266 1.353 . S
C1268 H1310 0.930 . S
C1269 N1265 1.279 . S
C1269 C1267 1.358 . S
C1269 H1311 0.930 . S
C1270 C1271 1.348 1_655 S
C1270 C1272 1.356 . S
C1270 O1295 1.325 . S
C1271 C1270 1.348 1_455 S
C1271 C1273 1.353 . S
C1271 H1312 0.944 . S
C1272 C1270 1.356 . S
C1272 C1274 1.358 1_655 S
C1272 H1313 0.930 . S
C1273 C1271 1.353 . S
C1273 N1275 1.314 . S
C1273 H1314 0.930 . S
C1274 C1272 1.358 1_455 S
C1274 N1275 1.279 . S
C1274 H1315 0.930 . S
N1275 C1273 1.314 . S
N1275 C1274 1.279 . S
C1276 C1278 1.353 . S
C1276 N1279 1.314 . S
C1276 H1282 0.930 . S
C1277 N1279 1.279 . S
C1277 C1280 1.358 . S
C1277 H1283 0.930 . S
C1278 C1276 1.353 . S
C1278 C1281 1.348 . S
C1278 H1316 0.929 . S
N1279 Li1234 1.990 . S
N1279 C1276 1.314 . S
N1279 C1277 1.279 . S
C1280 C1277 1.358 . S
C1280 C1281 1.356 . S
C1280 H1317 0.930 . S
C1281 C1278 1.348 . S
C1281 C1280 1.356 . S
H1282 C1276 0.930 . S
H1283 C1277 0.930 . S
C1284 N1285 1.314 . S
C1284 C1286 1.353 . S
C1284 H1290 0.930 . S
N1285 Li1235 1.990 . S
N1285 C1284 1.314 . S
N1285 C1288 1.279 . S
C1286 C1284 1.353 . S
C1286 C1289 1.348 . S
C1286 H1318 0.929 . S
C1287 C1288 1.358 . S
C1287 C1289 1.356 . S
C1287 H1319 0.869 1_655 S
C1288 N1285 1.279 . S
C1288 C1287 1.358 . S
C1288 H1291 0.930 . S
C1289 C1286 1.348 . S
C1289 C1287 1.356 . S
H1290 C1284 0.930 . S
H1291 C1288 0.930 . S
O1292 Li1232 1.956 . S
O1292 Li1233 1.970 . S
O1292 Li1234 1.961 . S
O1292 C1236 1.325 . S
O1293 Li1232 1.970 . S
O1293 Li1233 1.956 . S
O1293 Li1235 1.961 . S
O1293 C1242 1.325 . S
O1294 Li1232 1.961 . S
O1294 Li1234 1.956 . S
O1294 Li1235 1.970 . S
O1294 C1264 1.325 . S
O1295 Li1233 1.961 . S
O1295 Li1234 1.970 . S
O1295 Li1235 1.956 . S
O1295 C1270 1.325 . S
H1296 C1238 0.929 . S
H1297 C1239 0.930 . S
H1298 C1240 0.930 . S
H1299 C1241 0.930 . S
H1300 C1243 0.930 . S
H1301 C1245 0.929 . S
H1302 C1246 0.930 . S
H1303 C1247 0.930 . S
H1304 C1250 0.930 . S
H1305 C1253 0.929 . S
H1306 C1258 0.929 . S
H1307 C1259 0.930 . S
H1308 C1266 0.929 . S
H1309 C1267 0.930 . S
H1310 C1268 0.930 . S
H1311 C1269 0.930 . S
H1312 C1271 0.944 . S
H1313 C1272 0.930 . S
H1314 C1273 0.930 . S
H1315 C1274 0.930 . S
H1316 C1278 0.929 . S
H1317 C1280 0.930 . S
H1318 C1286 0.929 . S
H1319 C1287 0.869 1_455 S
Li1320 N1337 1.990 . S
Li1320 O1380 1.956 . S
Li1320 O1381 1.970 . S
Li1320 O1382 1.961 . S
Li1321 N1345 1.990 . S
Li1321 O1380 1.970 . S
Li1321 O1381 1.956 . S
Li1321 O1383 1.961 . S
Li1322 N1367 1.990 . S
Li1322 O1380 1.961 . S
Li1322 O1382 1.956 . S
Li1322 O1383 1.970 . S
Li1323 N1373 1.990 . S
Li1323 O1381 1.961 . S
Li1323 O1382 1.970 . S
Li1323 O1383 1.956 . S
C1324 C1326 1.348 . S
C1324 C1327 1.356 . S
C1324 O1380 1.325 . S
N1325 C1328 1.314 . S
N1325 C1329 1.279 . S
C1326 C1324 1.348 . S
C1326 C1328 1.353 . S
C1326 H1384 0.929 . S
C1327 C1324 1.356 . S
C1327 C1329 1.358 . S
C1327 H1385 0.930 . S
C1328 N1325 1.314 . S
C1328 C1326 1.353 . S
C1328 H1386 0.930 . S
C1329 N1325 1.279 . S
C1329 C1327 1.358 . S
C1329 H1387 0.930 . S
C1330 C1333 1.348 . S
C1330 C1334 1.356 . S
C1330 O1381 1.325 . S
C1331 N1332 1.279 . S
C1331 C1334 1.358 . S
C1331 H1388 0.930 . S
N1332 C1331 1.279 . S
N1332 C1335 1.314 . S
C1333 C1330 1.348 . S
C1333 C1335 1.353 . S
C1333 H1389 0.929 . S
C1334 C1330 1.356 . S
C1334 C1331 1.358 . S
C1334 H1390 0.930 . S
C1335 N1332 1.314 . S
C1335 C1333 1.353 . S
C1335 H1391 0.930 . S
C1336 N1337 1.314 . S
C1336 C1341 1.353 . S
C1336 H1342 0.930 . S
N1337 Li1320 1.990 . S
N1337 C1336 1.314 . S
N1337 C1339 1.279 . S
C1338 C1339 1.358 . S
C1338 C1340 1.356 . S
C1338 H1392 0.930 . S
C1339 N1337 1.279 . S
C1339 C1338 1.358 . S
C1339 H1343 0.930 . S
C1340 C1338 1.356 . S
C1340 C1341 1.348 . S
C1341 C1336 1.353 . S
C1341 C1340 1.348 . S
C1341 H1393 0.929 . S
H1342 C1336 0.930 . S
H1343 C1339 0.930 . S
C1344 N1345 1.314 . S
C1344 C1346 1.353 . S
C1344 H1350 0.930 . S
N1345 Li1321 1.990 . S
N1345 C1344 1.314 . S
N1345 C1348 1.279 . S
C1346 C1344 1.353 . S
C1346 C1349 1.348 . S
C1346 H1394 0.929 . S
C1347 C1348 1.358 . S
C1347 C1349 1.356 . S
C1347 H1395 0.930 . S
C1348 N1345 1.279 . S
C1348 C1347 1.358 . S
C1348 H1351 0.930 . S
C1349 C1346 1.348 . S
C1349 C1347 1.356 . S
H1350 C1344 0.930 . S
H1351 C1348 0.930 . S
C1352 C1354 1.348 . S
C1352 C1355 1.356 . S
C1352 O1382 1.325 . S
N1353 C1356 1.314 . S
N1353 C1357 1.279 . S
C1354 C1352 1.348 . S
C1354 C1356 1.353 . S
C1354 H1396 0.929 . S
C1355 C1352 1.356 . S
C1355 C1357 1.358 . S
C1355 H1397 0.930 . S
C1356 N1353 1.314 . S
C1356 C1354 1.353 . S
C1356 H1398 0.930 . S
C1357 N1353 1.279 . S
C1357 C1355 1.358 . S
C1357 H1399 0.930 . S
C1358 C1359 1.348 . S
C1358 C1360 1.356 . S
C1358 O1383 1.325 . S
C1359 C1358 1.348 . S
C1359 C1361 1.353 . S
C1359 H1400 0.929 . S
C1360 C1358 1.356 . S
C1360 C1362 1.358 . S
C1360 H1401 0.930 . S
C1361 C1359 1.353 . S
C1361 N1363 1.314 . S
C1361 H1402 0.930 . S
C1362 C1360 1.358 . S
C1362 N1363 1.279 . S
C1362 H1403 0.930 . S
N1363 C1361 1.314 . S
N1363 C1362 1.279 . S
C1364 C1366 1.353 . S
C1364 N1367 1.314 . S
C1364 H1370 0.930 . S
C1365 N1367 1.279 . S
C1365 C1368 1.358 . S
C1365 H1371 0.930 . S
C1366 C1364 1.353 . S
C1366 C1369 1.348 . S
C1366 H1404 0.929 . S
N1367 Li1322 1.990 . S
N1367 C1364 1.314 . S
N1367 C1365 1.279 . S
C1368 C1365 1.358 . S
C1368 C1369 1.356 . S
C1368 H1405 0.930 . S
C1369 C1366 1.348 . S
C1369 C1368 1.356 . S
H1370 C1364 0.930 . S
H1371 C1365 0.930 . S
C1372 N1373 1.314 . S
C1372 C1374 1.353 . S
C1372 H1378 0.930 . S
N1373 Li1323 1.990 . S
N1373 C1372 1.314 . S
N1373 C1376 1.279 . S
C1374 C1372 1.353 . S
C1374 C1377 1.348 . S
C1374 H1406 0.929 . S
C1375 C1376 1.358 . S
C1375 C1377 1.356 . S
C1375 H1407 0.930 . S
C1376 N1373 1.279 . S
C1376 C1375 1.358 . S
C1376 H1379 0.930 . S
C1377 C1374 1.348 . S
C1377 C1375 1.356 . S
H1378 C1372 0.930 . S
H1379 C1376 0.930 . S
O1380 Li1320 1.956 . S
O1380 Li1321 1.970 . S
O1380 Li1322 1.961 . S
O1380 C1324 1.325 . S
O1381 Li1320 1.970 . S
O1381 Li1321 1.956 . S
O1381 Li1323 1.961 . S
O1381 C1330 1.325 . S
O1382 Li1320 1.961 . S
O1382 Li1322 1.956 . S
O1382 Li1323 1.970 . S
O1382 C1352 1.325 . S
O1383 Li1321 1.961 . S
O1383 Li1322 1.970 . S
O1383 Li1323 1.956 . S
O1383 C1358 1.325 . S
H1384 C1326 0.929 . S
H1385 C1327 0.930 . S
H1386 C1328 0.930 . S
H1387 C1329 0.930 . S
H1388 C1331 0.930 . S
H1389 C1333 0.929 . S
H1390 C1334 0.930 . S
H1391 C1335 0.930 . S
H1392 C1338 0.930 . S
H1393 C1341 0.929 . S
H1394 C1346 0.929 . S
H1395 C1347 0.930 . S
H1396 C1354 0.929 . S
H1397 C1355 0.930 . S
H1398 C1356 0.930 . S
H1399 C1357 0.930 . S
H1400 C1359 0.929 . S
H1401 C1360 0.930 . S
H1402 C1361 0.930 . S
H1403 C1362 0.930 . S
H1404 C1366 0.929 . S
H1405 C1368 0.930 . S
H1406 C1374 0.929 . S
H1407 C1375 0.930 . S
Li1408 N1425 1.990 . S
Li1408 O1468 1.956 . S
Li1408 O1469 1.970 . S
Li1408 O1470 1.961 . S
Li1409 N1433 1.990 . S
Li1409 O1468 1.970 . S
Li1409 O1469 1.956 . S
Li1409 O1471 1.961 . S
Li1410 N1455 1.990 . S
Li1410 O1468 1.961 . S
Li1410 O1470 1.956 . S
Li1410 O1471 1.970 . S
Li1411 N1461 1.990 . S
Li1411 O1469 1.961 . S
Li1411 O1470 1.970 . S
Li1411 O1471 1.956 . S
C1412 C1414 1.348 . S
C1412 C1415 1.356 . S
C1412 O1468 1.325 . S
N1413 C1416 1.314 . S
N1413 C1417 1.279 . S
C1414 C1412 1.348 . S
C1414 C1416 1.353 . S
C1414 H1472 0.929 . S
C1415 C1412 1.356 . S
C1415 C1417 1.358 . S
C1415 H1473 0.930 . S
C1416 N1413 1.314 . S
C1416 C1414 1.353 . S
C1416 H1474 0.930 . S
C1417 N1413 1.279 . S
C1417 C1415 1.358 . S
C1417 H1475 0.930 . S
C1418 C1421 1.348 . S
C1418 C1422 1.356 . S
C1418 O1469 1.325 . S
C1419 N1420 1.279 . S
C1419 C1422 1.358 . S
C1419 H1476 0.930 . S
N1420 C1419 1.279 . S
N1420 C1423 1.314 . S
C1421 C1418 1.348 . S
C1421 C1423 1.353 . S
C1421 H1477 0.929 . S
C1422 C1418 1.356 . S
C1422 C1419 1.358 . S
C1422 H1478 0.930 . S
C1423 N1420 1.314 . S
C1423 C1421 1.353 . S
C1423 H1479 0.930 . S
C1424 N1425 1.314 . S
C1424 C1429 1.353 . S
C1424 H1430 0.930 . S
N1425 Li1408 1.990 . S
N1425 C1424 1.314 . S
N1425 C1427 1.279 . S
C1426 C1427 1.358 . S
C1426 C1428 1.356 . S
C1426 H1480 0.930 . S
C1427 N1425 1.279 . S
C1427 C1426 1.358 . S
C1427 H1431 0.930 . S
C1428 C1426 1.356 . S
C1428 C1429 1.348 . S
C1429 C1424 1.353 . S
C1429 C1428 1.348 . S
C1429 H1481 0.929 . S
H1430 C1424 0.930 . S
H1431 C1427 0.930 . S
C1432 N1433 1.314 . S
C1432 C1434 1.353 . S
C1432 H1438 0.930 . S
N1433 Li1409 1.990 . S
N1433 C1432 1.314 . S
N1433 C1436 1.279 . S
C1434 C1432 1.353 . S
C1434 C1437 1.348 . S
C1434 H1482 0.929 . S
C1435 C1436 1.358 . S
C1435 C1437 1.356 . S
C1435 H1483 0.930 . S
C1436 N1433 1.279 . S
C1436 C1435 1.358 . S
C1436 H1439 0.930 . S
C1437 C1434 1.348 . S
C1437 C1435 1.356 . S
H1438 C1432 0.930 . S
H1439 C1436 0.930 . S
C1440 C1442 1.348 . S
C1440 C1443 1.356 . S
C1440 O1470 1.325 . S
N1441 C1444 1.314 . S
N1441 C1445 1.279 1_565 S
C1442 C1440 1.348 . S
C1442 C1444 1.353 1_545 S
C1442 H1484 0.929 . S
C1443 C1440 1.356 . S
C1443 C1445 1.358 . S
C1443 H1485 0.930 . S
C1444 N1441 1.314 . S
C1444 C1442 1.353 1_565 S
C1444 H1486 0.930 . S
C1445 N1441 1.279 1_545 S
C1445 C1443 1.358 . S
C1445 H1487 0.930 . S
C1446 C1447 1.348 . S
C1446 C1448 1.356 . S
C1446 O1471 1.325 . S
C1447 C1446 1.348 . S
C1447 C1449 1.353 . S
C1447 H1488 0.929 . S
C1448 C1446 1.356 . S
C1448 C1450 1.358 . S
C1448 H1489 0.930 . S
C1449 C1447 1.353 . S
C1449 N1451 1.314 . S
C1449 H1490 0.930 . S
C1450 C1448 1.358 . S
C1450 N1451 1.279 . S
C1450 H1491 0.930 . S
N1451 C1449 1.314 . S
N1451 C1450 1.279 . S
C1452 C1454 1.353 . S
C1452 N1455 1.314 . S
C1452 H1458 0.930 . S
C1453 N1455 1.279 . S
C1453 C1456 1.358 . S
C1453 H1459 0.930 . S
C1454 C1452 1.353 . S
C1454 C1457 1.348 . S
C1454 H1492 0.929 . S
N1455 Li1410 1.990 . S
N1455 C1452 1.314 . S
N1455 C1453 1.279 . S
C1456 C1453 1.358 . S
C1456 C1457 1.356 . S
C1456 H1493 0.930 . S
C1457 C1454 1.348 . S
C1457 C1456 1.356 . S
H1458 C1452 0.930 . S
H1459 C1453 0.930 . S
C1460 N1461 1.314 . S
C1460 C1462 1.353 1_545 S
C1460 H1466 0.930 . S
N1461 Li1411 1.990 . S
N1461 C1460 1.314 . S
N1461 C1464 1.279 . S
C1462 C1460 1.353 1_565 S
C1462 C1465 1.348 . S
C1462 H1494 0.929 . S
C1463 C1464 1.358 1_565 S
C1463 C1465 1.356 . S
C1463 H1495 0.930 . S
C1464 N1461 1.279 . S
C1464 C1463 1.358 1_545 S
C1464 H1467 0.930 . S
C1465 C1462 1.348 . S
C1465 C1463 1.356 . S
H1466 C1460 0.930 . S
H1467 C1464 0.930 . S
O1468 Li1408 1.956 . S
O1468 Li1409 1.970 . S
O1468 Li1410 1.961 . S
O1468 C1412 1.325 . S
O1469 Li1408 1.970 . S
O1469 Li1409 1.956 . S
O1469 Li1411 1.961 . S
O1469 C1418 1.325 . S
O1470 Li1408 1.961 . S
O1470 Li1410 1.956 . S
O1470 Li1411 1.970 . S
O1470 C1440 1.325 . S
O1471 Li1409 1.961 . S
O1471 Li1410 1.970 . S
O1471 Li1411 1.956 . S
O1471 C1446 1.325 . S
H1472 C1414 0.929 . S
H1473 C1415 0.930 . S
H1474 C1416 0.930 . S
H1475 C1417 0.930 . S
H1476 C1419 0.930 . S
H1477 C1421 0.929 . S
H1478 C1422 0.930 . S
H1479 C1423 0.930 . S
H1480 C1426 0.930 . S
H1481 C1429 0.929 . S
H1482 C1434 0.929 . S
H1483 C1435 0.930 . S
H1484 C1442 0.929 . S
H1485 C1443 0.930 . S
H1486 C1444 0.930 . S
H1487 C1445 0.930 . S
H1488 C1447 0.929 . S
H1489 C1448 0.930 . S
H1490 C1449 0.930 . S
H1491 C1450 0.930 . S
H1492 C1454 0.929 . S
H1493 C1456 0.930 . S
H1494 C1462 0.929 . S
H1495 C1463 0.930 . S
Li1496 N1513 1.990 . S
Li1496 O1556 1.956 . S
Li1496 O1557 1.970 . S
Li1496 O1558 1.961 . S
Li1497 N1521 1.990 . S
Li1497 O1556 1.970 . S
Li1497 O1557 1.956 . S
Li1497 O1559 1.961 . S
Li1498 N1543 1.990 . S
Li1498 O1556 1.961 . S
Li1498 O1558 1.956 . S
Li1498 O1559 1.970 . S
Li1499 N1549 1.990 . S
Li1499 O1557 1.961 . S
Li1499 O1558 1.970 . S
Li1499 O1559 1.956 . S
C1500 C1502 1.348 . S
C1500 C1503 1.356 . S
C1500 O1556 1.325 . S
N1501 C1504 1.314 . S
N1501 C1505 1.279 . S
C1502 C1500 1.348 . S
C1502 C1504 1.353 . S
C1502 H1560 0.929 . S
C1503 C1500 1.356 . S
C1503 C1505 1.358 . S
C1503 H1561 0.930 . S
C1504 N1501 1.314 . S
C1504 C1502 1.353 . S
C1504 H1562 0.930 . S
C1505 N1501 1.279 . S
C1505 C1503 1.358 . S
C1505 H1563 0.930 . S
C1506 C1509 1.348 . S
C1506 C1510 1.356 . S
C1506 O1557 1.325 . S
C1507 N1508 1.279 . S
C1507 C1510 1.358 . S
C1507 H1564 0.930 . S
N1508 C1507 1.279 . S
N1508 C1511 1.314 . S
C1509 C1506 1.348 . S
C1509 C1511 1.353 . S
C1509 H1565 0.929 . S
C1510 C1506 1.356 . S
C1510 C1507 1.358 . S
C1510 H1566 0.930 . S
C1511 N1508 1.314 . S
C1511 C1509 1.353 . S
C1511 H1567 0.930 . S
C1512 N1513 1.314 . S
C1512 C1517 1.353 . S
C1512 H1518 0.930 . S
N1513 Li1496 1.990 . S
N1513 C1512 1.314 . S
N1513 C1515 1.279 . S
C1514 C1515 1.358 . S
C1514 C1516 1.356 . S
C1514 H1568 0.930 . S
C1515 N1513 1.279 . S
C1515 C1514 1.358 . S
C1515 H1519 0.930 . S
C1516 C1514 1.356 . S
C1516 C1517 1.348 . S
C1517 C1512 1.353 . S
C1517 C1516 1.348 . S
C1517 H1569 0.929 . S
H1518 C1512 0.930 . S
H1519 C1515 0.930 . S
C1520 N1521 1.314 . S
C1520 C1522 1.353 . S
C1520 H1526 0.930 . S
N1521 Li1497 1.990 . S
N1521 C1520 1.314 . S
N1521 C1524 1.279 . S
C1522 C1520 1.353 . S
C1522 C1525 1.348 . S
C1522 H1570 0.929 . S
C1523 C1524 1.358 . S
C1523 C1525 1.356 . S
C1523 H1571 0.930 . S
C1524 N1521 1.279 . S
C1524 C1523 1.358 . S
C1524 H1527 0.930 . S
C1525 C1522 1.348 . S
C1525 C1523 1.356 . S
H1526 C1520 0.930 . S
H1527 C1524 0.930 . S
C1528 C1530 1.348 1_545 S
C1528 C1531 1.356 . S
C1528 O1558 1.325 . S
N1529 C1532 1.314 . S
N1529 C1533 1.279 . S
C1530 C1528 1.348 1_565 S
C1530 C1532 1.353 . S
C1530 H1572 0.929 . S
C1531 C1528 1.356 . S
C1531 C1533 1.358 1_545 S
C1531 H1573 0.930 . S
C1532 N1529 1.314 . S
C1532 C1530 1.353 . S
C1532 H1574 0.930 . S
C1533 N1529 1.279 . S
C1533 C1531 1.358 1_565 S
C1533 H1575 0.930 . S
C1534 C1535 1.348 . S
C1534 C1536 1.356 . S
C1534 O1559 1.325 . S
C1535 C1534 1.348 . S
C1535 C1537 1.353 . S
C1535 H1576 0.929 . S
C1536 C1534 1.356 . S
C1536 C1538 1.358 . S
C1536 H1577 0.930 . S
C1537 C1535 1.353 . S
C1537 N1539 1.314 . S
C1537 H1578 0.930 . S
C1538 C1536 1.358 . S
C1538 N1539 1.279 . S
C1538 H1579 0.930 . S
N1539 C1537 1.314 . S
N1539 C1538 1.279 . S
C1540 C1542 1.353 . S
C1540 N1543 1.314 . S
C1540 H1546 0.930 . S
C1541 N1543 1.279 . S
C1541 C1544 1.358 . S
C1541 H1547 0.930 . S
C1542 C1540 1.353 . S
C1542 C1545 1.348 . S
C1542 H1580 0.929 . S
N1543 Li1498 1.990 . S
N1543 C1540 1.314 . S
N1543 C1541 1.279 . S
C1544 C1541 1.358 . S
C1544 C1545 1.356 . S
C1544 H1581 0.930 . S
C1545 C1542 1.348 . S
C1545 C1544 1.356 . S
H1546 C1540 0.930 . S
H1547 C1541 0.930 . S
C1548 N1549 1.314 1_565 S
C1548 C1550 1.353 . S
C1548 H1554 0.930 1_565 S
N1549 Li1499 1.990 . S
N1549 C1548 1.314 1_545 S
N1549 C1552 1.279 . S
C1550 C1548 1.353 . S
C1550 C1553 1.348 . S
C1550 H1582 0.929 . S
C1551 C1552 1.358 1_565 S
C1551 C1553 1.356 . S
C1551 H1583 0.930 . S
C1552 N1549 1.279 . S
C1552 C1551 1.358 1_545 S
C1552 H1555 0.930 . S
C1553 C1550 1.348 . S
C1553 C1551 1.356 . S
H1554 C1548 0.930 1_545 S
H1555 C1552 0.930 . S
O1556 Li1496 1.956 . S
O1556 Li1497 1.970 . S
O1556 Li1498 1.961 . S
O1556 C1500 1.325 . S
O1557 Li1496 1.970 . S
O1557 Li1497 1.956 . S
O1557 Li1499 1.961 . S
O1557 C1506 1.325 . S
O1558 Li1496 1.961 . S
O1558 Li1498 1.956 . S
O1558 Li1499 1.970 . S
O1558 C1528 1.325 . S
O1559 Li1497 1.961 . S
O1559 Li1498 1.970 . S
O1559 Li1499 1.956 . S
O1559 C1534 1.325 . S
H1560 C1502 0.929 . S
H1561 C1503 0.930 . S
H1562 C1504 0.930 . S
H1563 C1505 0.930 . S
H1564 C1507 0.930 . S
H1565 C1509 0.929 . S
H1566 C1510 0.930 . S
H1567 C1511 0.930 . S
H1568 C1514 0.930 . S
H1569 C1517 0.929 . S
H1570 C1522 0.929 . S
H1571 C1523 0.930 . S
H1572 C1530 0.929 . S
H1573 C1531 0.930 . S
H1574 C1532 0.930 . S
H1575 C1533 0.930 . S
H1576 C1535 0.929 . S
H1577 C1536 0.930 . S
H1578 C1537 0.930 . S
H1579 C1538 0.930 . S
H1580 C1542 0.929 . S
H1581 C1544 0.930 . S
H1582 C1550 0.929 . S
H1583 C1551 0.930 . S
Li1584 N1601 1.990 . S
Li1584 O1644 1.956 . S
Li1584 O1645 1.970 . S
Li1584 O1646 1.961 . S
Li1585 N1609 1.990 . S
Li1585 O1644 1.970 . S
Li1585 O1645 1.956 . S
Li1585 O1647 1.961 . S
Li1586 N1631 1.990 . S
Li1586 O1644 1.961 . S
Li1586 O1646 1.956 . S
Li1586 O1647 1.970 . S
Li1587 N1637 1.990 . S
Li1587 O1645 1.961 . S
Li1587 O1646 1.970 . S
Li1587 O1647 1.956 . S
C1588 C1590 1.348 . S
C1588 C1591 1.356 . S
C1588 O1644 1.325 . S
N1589 C1592 1.314 . S
N1589 C1593 1.279 . S
C1590 C1588 1.348 . S
C1590 C1592 1.353 . S
C1590 H1648 0.929 . S
C1591 C1588 1.356 . S
C1591 C1593 1.358 . S
C1591 H1649 0.930 . S
C1592 N1589 1.314 . S
C1592 C1590 1.353 . S
C1592 H1650 0.930 . S
C1593 N1589 1.279 . S
C1593 C1591 1.358 . S
C1593 H1651 0.930 . S
C1594 C1597 1.348 . S
C1594 C1598 1.356 . S
C1594 O1645 1.325 . S
C1595 N1596 1.279 . S
C1595 C1598 1.358 . S
C1595 H1652 0.930 . S
N1596 C1595 1.279 . S
N1596 C1599 1.314 . S
C1597 C1594 1.348 . S
C1597 C1599 1.353 . S
C1597 H1653 0.929 . S
C1598 C1594 1.356 . S
C1598 C1595 1.358 . S
C1598 H1654 0.930 . S
C1599 N1596 1.314 . S
C1599 C1597 1.353 . S
C1599 H1655 0.930 . S
C1600 N1601 1.314 . S
C1600 C1605 1.353 . S
C1600 H1606 0.930 . S
N1601 Li1584 1.990 . S
N1601 C1600 1.314 . S
N1601 C1603 1.279 . S
C1602 C1603 1.358 . S
C1602 C1604 1.356 . S
C1602 H1656 0.930 . S
C1603 N1601 1.279 . S
C1603 C1602 1.358 . S
C1603 H1607 0.930 . S
C1604 C1602 1.356 . S
C1604 C1605 1.348 . S
C1605 C1600 1.353 . S
C1605 C1604 1.348 . S
C1605 H1657 0.929 . S
H1606 C1600 0.930 . S
H1607 C1603 0.930 . S
C1608 N1609 1.314 . S
C1608 C1610 1.353 . S
C1608 H1614 0.930 . S
N1609 Li1585 1.990 . S
N1609 C1608 1.314 . S
N1609 C1612 1.279 . S
C1610 C1608 1.353 . S
C1610 C1613 1.348 . S
C1610 H1658 0.929 . S
C1611 C1612 1.358 . S
C1611 C1613 1.356 . S
C1611 H1659 0.930 . S
C1612 N1609 1.279 . S
C1612 C1611 1.358 . S
C1612 H1615 0.930 . S
C1613 C1610 1.348 . S
C1613 C1611 1.356 . S
H1614 C1608 0.930 . S
H1615 C1612 0.930 . S
C1616 C1618 1.348 . S
C1616 C1619 1.356 . S
C1616 O1646 1.325 . S
N1617 C1620 1.314 . S
N1617 C1621 1.279 . S
C1618 C1616 1.348 . S
C1618 C1620 1.353 . S
C1618 H1660 0.929 . S
C1619 C1616 1.356 . S
C1619 C1621 1.358 . S
C1619 H1661 0.930 . S
C1620 N1617 1.314 . S
C1620 C1618 1.353 . S
C1620 H1662 0.930 . S
C1621 N1617 1.279 . S
C1621 C1619 1.358 . S
C1621 H1663 0.930 . S
C1622 C1623 1.348 1_545 S
C1622 C1624 1.356 . S
C1622 O1647 1.325 . S
C1623 C1622 1.348 1_565 S
C1623 C1625 1.353 . S
C1623 H1664 0.929 . S
C1624 C1622 1.356 . S
C1624 C1626 1.358 1_545 S
C1624 H1665 0.930 . S
C1625 C1623 1.353 . S
C1625 N1627 1.314 . S
C1625 H1666 0.930 . S
C1626 C1624 1.358 1_565 S
C1626 N1627 1.279 . S
C1626 H1667 0.930 . S
N1627 C1625 1.314 . S
N1627 C1626 1.279 . S
C1628 C1630 1.353 . S
C1628 N1631 1.314 1_565 S
C1628 H1634 0.930 1_565 S
C1629 N1631 1.279 . S
C1629 C1632 1.358 1_545 S
C1629 H1635 0.930 . S
C1630 C1628 1.353 . S
C1630 C1633 1.348 . S
C1630 H1668 0.929 . S
N1631 Li1586 1.990 . S
N1631 C1628 1.314 1_545 S
N1631 C1629 1.279 . S
C1632 C1629 1.358 1_565 S
C1632 C1633 1.356 . S
C1632 H1669 0.930 . S
C1633 C1630 1.348 . S
C1633 C1632 1.356 . S
H1634 C1628 0.930 1_545 S
H1635 C1629 0.930 . S
C1636 N1637 1.314 . S
C1636 C1638 1.353 . S
C1636 H1642 0.930 . S
N1637 Li1587 1.990 . S
N1637 C1636 1.314 . S
N1637 C1640 1.279 . S
C1638 C1636 1.353 . S
C1638 C1641 1.348 . S
C1638 H1670 0.929 . S
C1639 C1640 1.358 . S
C1639 C1641 1.356 . S
C1639 H1671 0.930 . S
C1640 N1637 1.279 . S
C1640 C1639 1.358 . S
C1640 H1643 0.930 . S
C1641 C1638 1.348 . S
C1641 C1639 1.356 . S
H1642 C1636 0.930 . S
H1643 C1640 0.930 . S
O1644 Li1584 1.956 . S
O1644 Li1585 1.970 . S
O1644 Li1586 1.961 . S
O1644 C1588 1.325 . S
O1645 Li1584 1.970 . S
O1645 Li1585 1.956 . S
O1645 Li1587 1.961 . S
O1645 C1594 1.325 . S
O1646 Li1584 1.961 . S
O1646 Li1586 1.956 . S
O1646 Li1587 1.970 . S
O1646 C1616 1.325 . S
O1647 Li1585 1.961 . S
O1647 Li1586 1.970 . S
O1647 Li1587 1.956 . S
O1647 C1622 1.325 . S
H1648 C1590 0.929 . S
H1649 C1591 0.930 . S
H1650 C1592 0.930 . S
H1651 C1593 0.930 . S
H1652 C1595 0.930 . S
H1653 C1597 0.929 . S
H1654 C1598 0.930 . S
H1655 C1599 0.930 . S
H1656 C1602 0.930 . S
H1657 C1605 0.929 . S
H1658 C1610 0.929 . S
H1659 C1611 0.930 . S
H1660 C1618 0.929 . S
H1661 C1619 0.930 . S
H1662 C1620 0.930 . S
H1663 C1621 0.930 . S
H1664 C1623 0.929 . S
H1665 C1624 0.930 . S
H1666 C1625 0.930 . S
H1667 C1626 0.930 . S
H1668 C1630 0.929 . S
H1669 C1632 0.930 . S
H1670 C1638 0.929 . S
H1671 C1639 0.930 . S
Li1672 N1689 1.990 . S
Li1672 O1732 1.956 . S
Li1672 O1733 1.970 . S
Li1672 O1734 1.961 . S
Li1673 N1697 1.990 . S
Li1673 O1732 1.970 . S
Li1673 O1733 1.956 . S
Li1673 O1735 1.961 . S
Li1674 N1719 1.990 . S
Li1674 O1732 1.961 . S
Li1674 O1734 1.956 . S
Li1674 O1735 1.970 . S
Li1675 N1725 1.990 . S
Li1675 O1733 1.961 . S
Li1675 O1734 1.970 . S
Li1675 O1735 1.956 . S
C1676 C1678 1.348 . S
C1676 C1679 1.356 . S
C1676 O1732 1.325 . S
N1677 C1680 1.314 . S
N1677 C1681 1.279 . S
C1678 C1676 1.348 . S
C1678 C1680 1.353 . S
C1678 H1736 0.929 . S
C1679 C1676 1.356 . S
C1679 C1681 1.358 . S
C1679 H1737 0.930 . S
C1680 N1677 1.314 . S
C1680 C1678 1.353 . S
C1680 H1738 0.930 . S
C1681 N1677 1.279 . S
C1681 C1679 1.358 . S
C1681 H1739 0.930 . S
C1682 C1685 1.348 . S
C1682 C1686 1.356 . S
C1682 O1733 1.325 . S
C1683 N1684 1.279 . S
C1683 C1686 1.358 . S
C1683 H1740 0.930 . S
N1684 C1683 1.279 . S
N1684 C1687 1.314 . S
C1685 C1682 1.348 . S
C1685 C1687 1.353 . S
C1685 H1741 0.929 . S
C1686 C1682 1.356 . S
C1686 C1683 1.358 . S
C1686 H1742 0.930 . S
C1687 N1684 1.314 . S
C1687 C1685 1.353 . S
C1687 H1743 0.930 . S
C1688 N1689 1.314 . S
C1688 C1693 1.353 . S
C1688 H1694 0.930 . S
N1689 Li1672 1.990 . S
N1689 C1688 1.314 . S
N1689 C1691 1.279 . S
C1690 C1691 1.358 . S
C1690 C1692 1.356 . S
C1690 H1744 0.930 . S
C1691 N1689 1.279 . S
C1691 C1690 1.358 . S
C1691 H1695 0.930 . S
C1692 C1690 1.356 . S
C1692 C1693 1.348 . S
C1693 C1688 1.353 . S
C1693 C1692 1.348 . S
C1693 H1745 0.929 . S
H1694 C1688 0.930 . S
H1695 C1691 0.930 . S
C1696 N1697 1.314 . S
C1696 C1698 1.353 . S
C1696 H1702 0.930 . S
N1697 Li1673 1.990 . S
N1697 C1696 1.314 . S
N1697 C1700 1.279 . S
C1698 C1696 1.353 . S
C1698 C1701 1.348 . S
C1698 H1746 0.929 . S
C1699 C1700 1.358 . S
C1699 C1701 1.356 . S
C1699 H1747 0.930 . S
C1700 N1697 1.279 . S
C1700 C1699 1.358 . S
C1700 H1703 0.930 . S
C1701 C1698 1.348 . S
C1701 C1699 1.356 . S
H1702 C1696 0.930 . S
H1703 C1700 0.930 . S
C1704 C1706 1.348 . S
C1704 C1707 1.356 . S
C1704 O1734 1.325 . S
N1705 C1708 1.314 . S
N1705 C1709 1.279 1_565 S
C1706 C1704 1.348 . S
C1706 C1708 1.353 1_545 S
C1706 H1748 0.929 . S
C1707 C1704 1.356 . S
C1707 C1709 1.358 . S
C1707 H1749 0.930 . S
C1708 N1705 1.314 . S
C1708 C1706 1.353 1_565 S
C1708 H1750 0.930 . S
C1709 N1705 1.279 1_545 S
C1709 C1707 1.358 . S
C1709 H1751 0.930 . S
C1710 C1711 1.348 . S
C1710 C1712 1.356 . S
C1710 O1735 1.325 . S
C1711 C1710 1.348 . S
C1711 C1713 1.353 . S
C1711 H1752 0.929 . S
C1712 C1710 1.356 . S
C1712 C1714 1.358 . S
C1712 H1753 0.930 . S
C1713 C1711 1.353 . S
C1713 N1715 1.314 . S
C1713 H1754 0.930 . S
C1714 C1712 1.358 . S
C1714 N1715 1.279 . S
C1714 H1755 0.930 . S
N1715 C1713 1.314 . S
N1715 C1714 1.279 . S
C1716 C1718 1.353 . S
C1716 N1719 1.314 . S
C1716 H1722 0.930 . S
C1717 N1719 1.279 . S
C1717 C1720 1.358 . S
C1717 H1723 0.930 . S
C1718 C1716 1.353 . S
C1718 C1721 1.348 . S
C1718 H1756 0.929 . S
N1719 Li1674 1.990 . S
N1719 C1716 1.314 . S
N1719 C1717 1.279 . S
C1720 C1717 1.358 . S
C1720 C1721 1.356 . S
C1720 H1757 0.930 . S
C1721 C1718 1.348 . S
C1721 C1720 1.356 . S
H1722 C1716 0.930 . S
H1723 C1717 0.930 . S
C1724 N1725 1.314 . S
C1724 C1726 1.353 1_545 S
C1724 H1730 0.930 . S
N1725 Li1675 1.990 . S
N1725 C1724 1.314 . S
N1725 C1728 1.279 . S
C1726 C1724 1.353 1_565 S
C1726 C1729 1.348 . S
C1726 H1758 0.929 . S
C1727 C1728 1.358 1_565 S
C1727 C1729 1.356 . S
C1727 H1759 0.930 . S
C1728 N1725 1.279 . S
C1728 C1727 1.358 1_545 S
C1728 H1731 0.930 . S
C1729 C1726 1.348 . S
C1729 C1727 1.356 . S
H1730 C1724 0.930 . S
H1731 C1728 0.930 . S
O1732 Li1672 1.956 . S
O1732 Li1673 1.970 . S
O1732 Li1674 1.961 . S
O1732 C1676 1.325 . S
O1733 Li1672 1.970 . S
O1733 Li1673 1.956 . S
O1733 Li1675 1.961 . S
O1733 C1682 1.325 . S
O1734 Li1672 1.961 . S
O1734 Li1674 1.956 . S
O1734 Li1675 1.970 . S
O1734 C1704 1.325 . S
O1735 Li1673 1.961 . S
O1735 Li1674 1.970 . S
O1735 Li1675 1.956 . S
O1735 C1710 1.325 . S
H1736 C1678 0.929 . S
H1737 C1679 0.930 . S
H1738 C1680 0.930 . S
H1739 C1681 0.930 . S
H1740 C1683 0.930 . S
H1741 C1685 0.929 . S
H1742 C1686 0.930 . S
H1743 C1687 0.930 . S
H1744 C1690 0.930 . S
H1745 C1693 0.929 . S
H1746 C1698 0.929 . S
H1747 C1699 0.930 . S
H1748 C1706 0.929 . S
H1749 C1707 0.930 . S
H1750 C1708 0.930 . S
H1751 C1709 0.930 . S
H1752 C1711 0.929 . S
H1753 C1712 0.930 . S
H1754 C1713 0.930 . S
H1755 C1714 0.930 . S
H1756 C1718 0.929 . S
H1757 C1720 0.930 . S
H1758 C1726 0.929 . S
H1759 C1727 0.930 . S
Li1760 N1777 1.990 . S
Li1760 O1820 1.956 . S
Li1760 O1821 1.970 . S
Li1760 O1822 1.961 . S
Li1761 N1785 1.990 . S
Li1761 O1820 1.970 . S
Li1761 O1821 1.956 . S
Li1761 O1823 1.961 . S
Li1762 N1807 1.990 . S
Li1762 O1820 1.961 . S
Li1762 O1822 1.956 . S
Li1762 O1823 1.970 . S
Li1763 N1813 1.990 . S
Li1763 O1821 1.961 . S
Li1763 O1822 1.970 . S
Li1763 O1823 1.956 . S
C1764 C1766 1.348 . S
C1764 C1767 1.356 . S
C1764 O1820 1.325 . S
N1765 C1768 1.314 . S
N1765 C1769 1.279 . S
C1766 C1764 1.348 . S
C1766 C1768 1.353 . S
C1766 H1824 0.929 . S
C1767 C1764 1.356 . S
C1767 C1769 1.358 . S
C1767 H1825 0.930 . S
C1768 N1765 1.314 . S
C1768 C1766 1.353 . S
C1768 H1826 0.930 . S
C1769 N1765 1.279 . S
C1769 C1767 1.358 . S
C1769 H1827 0.930 . S
C1770 C1773 1.348 . S
C1770 C1774 1.356 . S
C1770 O1821 1.325 . S
C1771 N1772 1.279 1_565 S
C1771 C1774 1.358 . S
C1771 H1828 0.930 . S
N1772 C1771 1.279 1_545 S
N1772 C1775 1.314 . S
C1773 C1770 1.348 . S
C1773 C1775 1.353 1_565 S
C1773 H1829 0.929 . S
C1774 C1770 1.356 . S
C1774 C1771 1.358 . S
C1774 H1830 0.930 . S
C1775 N1772 1.314 . S
C1775 C1773 1.353 1_545 S
C1775 H1831 0.930 . S
C1776 N1777 1.314 . S
C1776 C1781 1.353 1_565 S
C1776 H1782 0.930 . S
N1777 Li1760 1.990 . S
N1777 C1776 1.314 . S
N1777 C1779 1.279 . S
C1778 C1779 1.358 1_545 S
C1778 C1780 1.356 . S
C1778 H1832 0.930 . S
C1779 N1777 1.279 . S
C1779 C1778 1.358 1_565 S
C1779 H1783 0.930 . S
C1780 C1778 1.356 . S
C1780 C1781 1.348 . S
C1781 C1776 1.353 1_545 S
C1781 C1780 1.348 . S
C1781 H1833 0.929 . S
H1782 C1776 0.930 . S
H1783 C1779 0.930 . S
C1784 N1785 1.314 . S
C1784 C1786 1.353 . S
C1784 H1790 0.930 . S
N1785 Li1761 1.990 . S
N1785 C1784 1.314 . S
N1785 C1788 1.279 . S
C1786 C1784 1.353 . S
C1786 C1789 1.348 . S
C1786 H1834 0.929 . S
C1787 C1788 1.358 . S
C1787 C1789 1.356 . S
C1787 H1835 0.930 . S
C1788 N1785 1.279 . S
C1788 C1787 1.358 . S
C1788 H1791 0.930 . S
C1789 C1786 1.348 . S
C1789 C1787 1.356 . S
H1790 C1784 0.930 . S
H1791 C1788 0.930 . S
C1792 C1794 1.348 . S
C1792 C1795 1.356 . S
C1792 O1822 1.325 . S
N1793 C1796 1.314 . S
N1793 C1797 1.279 . S
C1794 C1792 1.348 . S
C1794 C1796 1.353 . S
C1794 H1836 0.929 . S
C1795 C1792 1.356 . S
C1795 C1797 1.358 . S
C1795 H1837 0.930 . S
C1796 N1793 1.314 . S
C1796 C1794 1.353 . S
C1796 H1838 0.930 . S
C1797 N1793 1.279 . S
C1797 C1795 1.358 . S
C1797 H1839 0.930 . S
C1798 C1799 1.348 . S
C1798 C1800 1.356 . S
C1798 O1823 1.325 . S
C1799 C1798 1.348 . S
C1799 C1801 1.353 . S
C1799 H1840 0.929 . S
C1800 C1798 1.356 . S
C1800 C1802 1.358 . S
C1800 H1841 0.930 . S
C1801 C1799 1.353 . S
C1801 N1803 1.314 . S
C1801 H1842 0.930 . S
C1802 C1800 1.358 . S
C1802 N1803 1.279 . S
C1802 H1843 0.930 . S
N1803 C1801 1.314 . S
N1803 C1802 1.279 . S
C1804 C1806 1.353 . S
C1804 N1807 1.314 . S
C1804 H1810 0.930 . S
C1805 N1807 1.279 . S
C1805 C1808 1.358 . S
C1805 H1811 0.930 . S
C1806 C1804 1.353 . S
C1806 C1809 1.348 . S
C1806 H1844 0.929 . S
N1807 Li1762 1.990 . S
N1807 C1804 1.314 . S
N1807 C1805 1.279 . S
C1808 C1805 1.358 . S
C1808 C1809 1.356 . S
C1808 H1845 0.930 . S
C1809 C1806 1.348 . S
C1809 C1808 1.356 . S
H1810 C1804 0.930 . S
H1811 C1805 0.930 . S
C1812 N1813 1.314 . S
C1812 C1814 1.353 . S
C1812 H1818 0.930 . S
N1813 Li1763 1.990 . S
N1813 C1812 1.314 . S
N1813 C1816 1.279 . S
C1814 C1812 1.353 . S
C1814 C1817 1.348 . S
C1814 H1846 0.929 . S
C1815 C1816 1.358 . S
C1815 C1817 1.356 . S
C1815 H1847 0.930 . S
C1816 N1813 1.279 . S
C1816 C1815 1.358 . S
C1816 H1819 0.930 . S
C1817 C1814 1.348 . S
C1817 C1815 1.356 . S
H1818 C1812 0.930 . S
H1819 C1816 0.930 . S
O1820 Li1760 1.956 . S
O1820 Li1761 1.970 . S
O1820 Li1762 1.961 . S
O1820 C1764 1.325 . S
O1821 Li1760 1.970 . S
O1821 Li1761 1.956 . S
O1821 Li1763 1.961 . S
O1821 C1770 1.325 . S
O1822 Li1760 1.961 . S
O1822 Li1762 1.956 . S
O1822 Li1763 1.970 . S
O1822 C1792 1.325 . S
O1823 Li1761 1.961 . S
O1823 Li1762 1.970 . S
O1823 Li1763 1.956 . S
O1823 C1798 1.325 . S
H1824 C1766 0.929 . S
H1825 C1767 0.930 . S
H1826 C1768 0.930 . S
H1827 C1769 0.930 . S
H1828 C1771 0.930 . S
H1829 C1773 0.929 . S
H1830 C1774 0.930 . S
H1831 C1775 0.930 . S
H1832 C1778 0.930 . S
H1833 C1781 0.929 . S
H1834 C1786 0.929 . S
H1835 C1787 0.930 . S
H1836 C1794 0.929 . S
H1837 C1795 0.930 . S
H1838 C1796 0.930 . S
H1839 C1797 0.930 . S
H1840 C1799 0.929 . S
H1841 C1800 0.930 . S
H1842 C1801 0.930 . S
H1843 C1802 0.930 . S
H1844 C1806 0.929 . S
H1845 C1808 0.930 . S
H1846 C1814 0.929 . S
H1847 C1815 0.930 . S
Li1848 N1865 1.990 . S
Li1848 O1908 1.956 . S
Li1848 O1909 1.970 . S
Li1848 O1910 1.961 . S
Li1849 N1873 1.990 . S
Li1849 O1908 1.970 . S
Li1849 O1909 1.956 . S
Li1849 O1911 1.961 . S
Li1850 N1895 1.990 . S
Li1850 O1908 1.961 . S
Li1850 O1910 1.956 . S
Li1850 O1911 1.970 . S
Li1851 N1901 1.990 . S
Li1851 O1909 1.961 . S
Li1851 O1910 1.970 . S
Li1851 O1911 1.956 . S
C1852 C1854 1.348 1_565 S
C1852 C1855 1.356 . S
C1852 O1908 1.325 . S
N1853 C1856 1.314 . S
N1853 C1857 1.279 . S
C1854 C1852 1.348 1_545 S
C1854 C1856 1.353 . S
C1854 H1912 0.929 . S
C1855 C1852 1.356 . S
C1855 C1857 1.358 1_565 S
C1855 H1913 0.930 . S
C1856 N1853 1.314 . S
C1856 C1854 1.353 . S
C1856 H1914 0.930 . S
C1857 N1853 1.279 . S
C1857 C1855 1.358 1_545 S
C1857 H1915 0.930 . S
C1858 C1861 1.348 . S
C1858 C1862 1.356 . S
C1858 O1909 1.325 . S
C1859 N1860 1.279 . S
C1859 C1862 1.358 . S
C1859 H1916 0.930 . S
N1860 C1859 1.279 . S
N1860 C1863 1.314 . S
C1861 C1858 1.348 . S
C1861 C1863 1.353 . S
C1861 H1917 0.929 . S
C1862 C1858 1.356 . S
C1862 C1859 1.358 . S
C1862 H1918 0.930 . S
C1863 N1860 1.314 . S
C1863 C1861 1.353 . S
C1863 H1919 0.930 . S
C1864 N1865 1.314 . S
C1864 C1869 1.353 . S
C1864 H1870 0.930 . S
N1865 Li1848 1.990 . S
N1865 C1864 1.314 . S
N1865 C1867 1.279 . S
C1866 C1867 1.358 . S
C1866 C1868 1.356 . S
C1866 H1920 0.930 . S
C1867 N1865 1.279 . S
C1867 C1866 1.358 . S
C1867 H1871 0.930 . S
C1868 C1866 1.356 . S
C1868 C1869 1.348 . S
C1869 C1864 1.353 . S
C1869 C1868 1.348 . S
C1869 H1921 0.929 . S
H1870 C1864 0.930 . S
H1871 C1867 0.930 . S
C1872 N1873 1.314 1_545 S
C1872 C1874 1.353 . S
C1872 H1878 0.930 . S
N1873 Li1849 1.990 . S
N1873 C1872 1.314 1_565 S
N1873 C1876 1.279 . S
C1874 C1872 1.353 . S
C1874 C1877 1.348 . S
C1874 H1922 0.929 . S
C1875 C1876 1.358 1_545 S
C1875 C1877 1.356 . S
C1875 H1923 0.930 . S
C1876 N1873 1.279 . S
C1876 C1875 1.358 1_565 S
C1876 H1879 0.930 . S
C1877 C1874 1.348 . S
C1877 C1875 1.356 . S
H1878 C1872 0.930 . S
H1879 C1876 0.930 . S
C1880 C1882 1.348 . S
C1880 C1883 1.356 . S
C1880 O1910 1.325 . S
N1881 C1884 1.314 . S
N1881 C1885 1.279 . S
C1882 C1880 1.348 . S
C1882 C1884 1.353 . S
C1882 H1924 0.929 . S
C1883 C1880 1.356 . S
C1883 C1885 1.358 . S
C1883 H1925 0.930 . S
C1884 N1881 1.314 . S
C1884 C1882 1.353 . S
C1884 H1926 0.930 . S
C1885 N1881 1.279 . S
C1885 C1883 1.358 . S
C1885 H1927 0.930 . S
C1886 C1887 1.348 . S
C1886 C1888 1.356 . S
C1886 O1911 1.325 . S
C1887 C1886 1.348 . S
C1887 C1889 1.353 . S
C1887 H1928 0.929 . S
C1888 C1886 1.356 . S
C1888 C1890 1.358 . S
C1888 H1929 0.930 . S
C1889 C1887 1.353 . S
C1889 N1891 1.314 . S
C1889 H1930 0.930 . S
C1890 C1888 1.358 . S
C1890 N1891 1.279 . S
C1890 H1931 0.930 . S
N1891 C1889 1.314 . S
N1891 C1890 1.279 . S
C1892 C1894 1.353 . S
C1892 N1895 1.314 . S
C1892 H1898 0.930 . S
C1893 N1895 1.279 . S
C1893 C1896 1.358 . S
C1893 H1899 0.930 . S
C1894 C1892 1.353 . S
C1894 C1897 1.348 . S
C1894 H1932 0.929 . S
N1895 Li1850 1.990 . S
N1895 C1892 1.314 . S
N1895 C1893 1.279 . S
C1896 C1893 1.358 . S
C1896 C1897 1.356 . S
C1896 H1933 0.930 . S
C1897 C1894 1.348 . S
C1897 C1896 1.356 . S
H1898 C1892 0.930 . S
H1899 C1893 0.930 . S
C1900 N1901 1.314 . S
C1900 C1902 1.353 . S
C1900 H1906 0.930 . S
N1901 Li1851 1.990 . S
N1901 C1900 1.314 . S
N1901 C1904 1.279 . S
C1902 C1900 1.353 . S
C1902 C1905 1.348 . S
C1902 H1934 0.929 . S
C1903 C1904 1.358 . S
C1903 C1905 1.356 . S
C1903 H1935 0.930 . S
C1904 N1901 1.279 . S
C1904 C1903 1.358 . S
C1904 H1907 0.930 . S
C1905 C1902 1.348 . S
C1905 C1903 1.356 . S
H1906 C1900 0.930 . S
H1907 C1904 0.930 . S
O1908 Li1848 1.956 . S
O1908 Li1849 1.970 . S
O1908 Li1850 1.961 . S
O1908 C1852 1.325 . S
O1909 Li1848 1.970 . S
O1909 Li1849 1.956 . S
O1909 Li1851 1.961 . S
O1909 C1858 1.325 . S
O1910 Li1848 1.961 . S
O1910 Li1850 1.956 . S
O1910 Li1851 1.970 . S
O1910 C1880 1.325 . S
O1911 Li1849 1.961 . S
O1911 Li1850 1.970 . S
O1911 Li1851 1.956 . S
O1911 C1886 1.325 . S
H1912 C1854 0.929 . S
H1913 C1855 0.930 . S
H1914 C1856 0.930 . S
H1915 C1857 0.930 . S
H1916 C1859 0.930 . S
H1917 C1861 0.929 . S
H1918 C1862 0.930 . S
H1919 C1863 0.930 . S
H1920 C1866 0.930 . S
H1921 C1869 0.929 . S
H1922 C1874 0.929 . S
H1923 C1875 0.930 . S
H1924 C1882 0.929 . S
H1925 C1883 0.930 . S
H1926 C1884 0.930 . S
H1927 C1885 0.930 . S
H1928 C1887 0.929 . S
H1929 C1888 0.930 . S
H1930 C1889 0.930 . S
H1931 C1890 0.930 . S
H1932 C1894 0.929 . S
H1933 C1896 0.930 . S
H1934 C1902 0.929 . S
H1935 C1903 0.930 . S
Li1936 N1953 1.990 . S
Li1936 O1996 1.956 . S
Li1936 O1997 1.970 . S
Li1936 O1998 1.961 . S
Li1937 N1961 1.990 . S
Li1937 O1996 1.970 . S
Li1937 O1997 1.956 . S
Li1937 O1999 1.961 . S
Li1938 N1983 1.990 . S
Li1938 O1996 1.961 . S
Li1938 O1998 1.956 . S
Li1938 O1999 1.970 . S
Li1939 N1989 1.990 . S
Li1939 O1997 1.961 . S
Li1939 O1998 1.970 . S
Li1939 O1999 1.956 . S
C1940 C1942 1.348 1_565 S
C1940 C1943 1.356 . S
C1940 O1996 1.325 . S
N1941 C1944 1.314 . S
N1941 C1945 1.279 . S
C1942 C1940 1.348 1_545 S
C1942 C1944 1.353 . S
C1942 H2000 0.929 . S
C1943 C1940 1.356 . S
C1943 C1945 1.358 1_565 S
C1943 H2001 0.930 . S
C1944 N1941 1.314 . S
C1944 C1942 1.353 . S
C1944 H2002 0.930 . S
C1945 N1941 1.279 . S
C1945 C1943 1.358 1_545 S
C1945 H2003 0.930 . S
C1946 C1949 1.348 . S
C1946 C1950 1.356 . S
C1946 O1997 1.325 . S
C1947 N1948 1.279 . S
C1947 C1950 1.358 . S
C1947 H2004 0.930 . S
N1948 C1947 1.279 . S
N1948 C1951 1.314 . S
C1949 C1946 1.348 . S
C1949 C1951 1.353 . S
C1949 H2005 0.929 . S
C1950 C1946 1.356 . S
C1950 C1947 1.358 . S
C1950 H2006 0.930 . S
C1951 N1948 1.314 . S
C1951 C1949 1.353 . S
C1951 H2007 0.930 . S
C1952 N1953 1.314 . S
C1952 C1957 1.353 . S
C1952 H1958 0.930 . S
N1953 Li1936 1.990 . S
N1953 C1952 1.314 . S
N1953 C1955 1.279 . S
C1954 C1955 1.358 . S
C1954 C1956 1.356 . S
C1954 H2008 0.930 . S
C1955 N1953 1.279 . S
C1955 C1954 1.358 . S
C1955 H1959 0.930 . S
C1956 C1954 1.356 . S
C1956 C1957 1.348 . S
C1957 C1952 1.353 . S
C1957 C1956 1.348 . S
C1957 H2009 0.929 . S
H1958 C1952 0.930 . S
H1959 C1955 0.930 . S
C1960 N1961 1.314 1_545 S
C1960 C1962 1.353 . S
C1960 H1966 0.930 . S
N1961 Li1937 1.990 . S
N1961 C1960 1.314 1_565 S
N1961 C1964 1.279 . S
C1962 C1960 1.353 . S
C1962 C1965 1.348 . S
C1962 H2010 0.929 . S
C1963 C1964 1.358 1_545 S
C1963 C1965 1.356 . S
C1963 H2011 0.930 . S
C1964 N1961 1.279 . S
C1964 C1963 1.358 1_565 S
C1964 H1967 0.930 . S
C1965 C1962 1.348 . S
C1965 C1963 1.356 . S
H1966 C1960 0.930 . S
H1967 C1964 0.930 . S
C1968 C1970 1.348 . S
C1968 C1971 1.356 . S
C1968 O1998 1.325 . S
N1969 C1972 1.314 . S
N1969 C1973 1.279 . S
C1970 C1968 1.348 . S
C1970 C1972 1.353 . S
C1970 H2012 0.929 . S
C1971 C1968 1.356 . S
C1971 C1973 1.358 . S
C1971 H2013 0.930 . S
C1972 N1969 1.314 . S
C1972 C1970 1.353 . S
C1972 H2014 0.930 . S
C1973 N1969 1.279 . S
C1973 C1971 1.358 . S
C1973 H2015 0.930 . S
C1974 C1975 1.348 . S
C1974 C1976 1.356 . S
C1974 O1999 1.325 . S
C1975 C1974 1.348 . S
C1975 C1977 1.353 . S
C1975 H2016 0.929 . S
C1976 C1974 1.356 . S
C1976 C1978 1.358 . S
C1976 H2017 0.930 . S
C1977 C1975 1.353 . S
C1977 N1979 1.314 . S
C1977 H2018 0.930 . S
C1978 C1976 1.358 . S
C1978 N1979 1.279 . S
C1978 H2019 0.930 . S
N1979 C1977 1.314 . S
N1979 C1978 1.279 . S
C1980 C1982 1.353 . S
C1980 N1983 1.314 . S
C1980 H1986 0.930 . S
C1981 N1983 1.279 . S
C1981 C1984 1.358 . S
C1981 H1987 0.930 . S
C1982 C1980 1.353 . S
C1982 C1985 1.348 . S
C1982 H2020 0.929 . S
N1983 Li1938 1.990 . S
N1983 C1980 1.314 . S
N1983 C1981 1.279 . S
C1984 C1981 1.358 . S
C1984 C1985 1.356 . S
C1984 H2021 0.930 . S
C1985 C1982 1.348 . S
C1985 C1984 1.356 . S
H1986 C1980 0.930 . S
H1987 C1981 0.930 . S
C1988 N1989 1.314 . S
C1988 C1990 1.353 . S
C1988 H1994 0.930 . S
N1989 Li1939 1.990 . S
N1989 C1988 1.314 . S
N1989 C1992 1.279 . S
C1990 C1988 1.353 . S
C1990 C1993 1.348 . S
C1990 H2022 0.929 . S
C1991 C1992 1.358 . S
C1991 C1993 1.356 . S
C1991 H2023 0.930 . S
C1992 N1989 1.279 . S
C1992 C1991 1.358 . S
C1992 H1995 0.930 . S
C1993 C1990 1.348 . S
C1993 C1991 1.356 . S
H1994 C1988 0.930 . S
H1995 C1992 0.930 . S
O1996 Li1936 1.956 . S
O1996 Li1937 1.970 . S
O1996 Li1938 1.961 . S
O1996 C1940 1.325 . S
O1997 Li1936 1.970 . S
O1997 Li1937 1.956 . S
O1997 Li1939 1.961 . S
O1997 C1946 1.325 . S
O1998 Li1936 1.961 . S
O1998 Li1938 1.956 . S
O1998 Li1939 1.970 . S
O1998 C1968 1.325 . S
O1999 Li1937 1.961 . S
O1999 Li1938 1.970 . S
O1999 Li1939 1.956 . S
O1999 C1974 1.325 . S
H2000 C1942 0.929 . S
H2001 C1943 0.930 . S
H2002 C1944 0.930 . S
H2003 C1945 0.930 . S
H2004 C1947 0.930 . S
H2005 C1949 0.929 . S
H2006 C1950 0.930 . S
H2007 C1951 0.930 . S
H2008 C1954 0.930 . S
H2009 C1957 0.929 . S
H2010 C1962 0.929 . S
H2011 C1963 0.930 . S
H2012 C1970 0.929 . S
H2013 C1971 0.930 . S
H2014 C1972 0.930 . S
H2015 C1973 0.930 . S
H2016 C1975 0.929 . S
H2017 C1976 0.930 . S
H2018 C1977 0.930 . S
H2019 C1978 0.930 . S
H2020 C1982 0.929 . S
H2021 C1984 0.930 . S
H2022 C1990 0.929 . S
H2023 C1991 0.930 . S
Li2024 N2041 1.990 . S
Li2024 O2084 1.956 . S
Li2024 O2085 1.970 . S
Li2024 O2086 1.961 . S
Li2025 N2049 1.990 . S
Li2025 O2084 1.970 . S
Li2025 O2085 1.956 . S
Li2025 O2087 1.961 . S
Li2026 N2071 1.990 . S
Li2026 O2084 1.961 . S
Li2026 O2086 1.956 . S
Li2026 O2087 1.970 . S
Li2027 N2077 1.990 . S
Li2027 O2085 1.961 . S
Li2027 O2086 1.970 . S
Li2027 O2087 1.956 . S
C2028 C2030 1.348 . S
C2028 C2031 1.356 . S
C2028 O2084 1.325 . S
N2029 C2032 1.314 . S
N2029 C2033 1.279 1_545 S
C2030 C2028 1.348 . S
C2030 C2032 1.353 1_565 S
C2030 H2088 0.929 . S
C2031 C2028 1.356 . S
C2031 C2033 1.358 . S
C2031 H2089 0.930 . S
C2032 N2029 1.314 . S
C2032 C2030 1.353 1_545 S
C2032 H2090 0.930 . S
C2033 N2029 1.279 1_565 S
C2033 C2031 1.358 . S
C2033 H2091 0.930 . S
C2034 C2037 1.348 . S
C2034 C2038 1.356 . S
C2034 O2085 1.325 . S
C2035 N2036 1.279 . S
C2035 C2038 1.358 . S
C2035 H2092 0.930 . S
N2036 C2035 1.279 . S
N2036 C2039 1.314 . S
C2037 C2034 1.348 . S
C2037 C2039 1.353 . S
C2037 H2093 0.929 . S
C2038 C2034 1.356 . S
C2038 C2035 1.358 . S
C2038 H2094 0.930 . S
C2039 N2036 1.314 . S
C2039 C2037 1.353 . S
C2039 H2095 0.930 . S
C2040 N2041 1.314 . S
C2040 C2045 1.353 . S
C2040 H2046 0.930 . S
N2041 Li2024 1.990 . S
N2041 C2040 1.314 . S
N2041 C2043 1.279 . S
C2042 C2043 1.358 . S
C2042 C2044 1.356 . S
C2042 H2096 0.930 . S
C2043 N2041 1.279 . S
C2043 C2042 1.358 . S
C2043 H2047 0.930 . S
C2044 C2042 1.356 . S
C2044 C2045 1.348 . S
C2045 C2040 1.353 . S
C2045 C2044 1.348 . S
C2045 H2097 0.929 . S
H2046 C2040 0.930 . S
H2047 C2043 0.930 . S
C2048 N2049 1.314 . S
C2048 C2050 1.353 1_565 S
C2048 H2054 0.930 . S
N2049 Li2025 1.990 . S
N2049 C2048 1.314 . S
N2049 C2052 1.279 . S
C2050 C2048 1.353 1_545 S
C2050 C2053 1.348 . S
C2050 H2098 0.929 . S
C2051 C2052 1.358 1_545 S
C2051 C2053 1.356 . S
C2051 H2099 0.930 . S
C2052 N2049 1.279 . S
C2052 C2051 1.358 1_565 S
C2052 H2055 0.930 . S
C2053 C2050 1.348 . S
C2053 C2051 1.356 . S
H2054 C2048 0.930 . S
H2055 C2052 0.930 . S
C2056 C2058 1.348 . S
C2056 C2059 1.356 . S
C2056 O2086 1.325 . S
N2057 C2060 1.314 . S
N2057 C2061 1.279 . S
C2058 C2056 1.348 . S
C2058 C2060 1.353 . S
C2058 H2100 0.929 . S
C2059 C2056 1.356 . S
C2059 C2061 1.358 . S
C2059 H2101 0.930 . S
C2060 N2057 1.314 . S
C2060 C2058 1.353 . S
C2060 H2102 0.930 . S
C2061 N2057 1.279 . S
C2061 C2059 1.358 . S
C2061 H2103 0.930 . S
C2062 C2063 1.348 . S
C2062 C2064 1.356 . S
C2062 O2087 1.325 . S
C2063 C2062 1.348 . S
C2063 C2065 1.353 . S
C2063 H2104 0.929 . S
C2064 C2062 1.356 . S
C2064 C2066 1.358 . S
C2064 H2105 0.930 . S
C2065 C2063 1.353 . S
C2065 N2067 1.314 . S
C2065 H2106 0.930 . S
C2066 C2064 1.358 . S
C2066 N2067 1.279 . S
C2066 H2107 0.930 . S
N2067 C2065 1.314 . S
N2067 C2066 1.279 . S
C2068 C2070 1.353 . S
C2068 N2071 1.314 . S
C2068 H2074 0.930 . S
C2069 N2071 1.279 . S
C2069 C2072 1.358 . S
C2069 H2075 0.930 . S
C2070 C2068 1.353 . S
C2070 C2073 1.348 . S
C2070 H2108 0.929 . S
N2071 Li2026 1.990 . S
N2071 C2068 1.314 . S
N2071 C2069 1.279 . S
C2072 C2069 1.358 . S
C2072 C2073 1.356 . S
C2072 H2109 0.930 . S
C2073 C2070 1.348 . S
C2073 C2072 1.356 . S
H2074 C2068 0.930 . S
H2075 C2069 0.930 . S
C2076 N2077 1.314 . S
C2076 C2078 1.353 . S
C2076 H2082 0.930 . S
N2077 Li2027 1.990 . S
N2077 C2076 1.314 . S
N2077 C2080 1.279 . S
C2078 C2076 1.353 . S
C2078 C2081 1.348 . S
C2078 H2110 0.929 . S
C2079 C2080 1.358 . S
C2079 C2081 1.356 . S
C2079 H2111 0.930 . S
C2080 N2077 1.279 . S
C2080 C2079 1.358 . S
C2080 H2083 0.930 . S
C2081 C2078 1.348 . S
C2081 C2079 1.356 . S
H2082 C2076 0.930 . S
H2083 C2080 0.930 . S
O2084 Li2024 1.956 . S
O2084 Li2025 1.970 . S
O2084 Li2026 1.961 . S
O2084 C2028 1.325 . S
O2085 Li2024 1.970 . S
O2085 Li2025 1.956 . S
O2085 Li2027 1.961 . S
O2085 C2034 1.325 . S
O2086 Li2024 1.961 . S
O2086 Li2026 1.956 . S
O2086 Li2027 1.970 . S
O2086 C2056 1.325 . S
O2087 Li2025 1.961 . S
O2087 Li2026 1.970 . S
O2087 Li2027 1.956 . S
O2087 C2062 1.325 . S
H2088 C2030 0.929 . S
H2089 C2031 0.930 . S
H2090 C2032 0.930 . S
H2091 C2033 0.930 . S
H2092 C2035 0.930 . S
H2093 C2037 0.929 . S
H2094 C2038 0.930 . S
H2095 C2039 0.930 . S
H2096 C2042 0.930 . S
H2097 C2045 0.929 . S
H2098 C2050 0.929 . S
H2099 C2051 0.930 . S
H2100 C2058 0.929 . S
H2101 C2059 0.930 . S
H2102 C2060 0.930 . S
H2103 C2061 0.930 . S
H2104 C2063 0.929 . S
H2105 C2064 0.930 . S
H2106 C2065 0.930 . S
H2107 C2066 0.930 . S
H2108 C2070 0.929 . S
H2109 C2072 0.930 . S
H2110 C2078 0.929 . S
H2111 C2079 0.930 . S
Li2112 N2129 1.990 . S
Li2112 O2172 1.956 . S
Li2112 O2173 1.970 . S
Li2112 O2174 1.961 . S
Li2113 N2137 1.990 . S
Li2113 O2172 1.970 . S
Li2113 O2173 1.956 . S
Li2113 O2175 1.961 . S
Li2114 N2159 1.990 . S
Li2114 O2172 1.961 . S
Li2114 O2174 1.956 . S
Li2114 O2175 1.970 . S
Li2115 N2165 1.990 . S
Li2115 O2173 1.961 . S
Li2115 O2174 1.970 . S
Li2115 O2175 1.956 . S
C2116 C2118 1.348 . S
C2116 C2119 1.356 . S
C2116 O2172 1.325 . S
N2117 C2120 1.314 . S
N2117 C2121 1.279 . S
C2118 C2116 1.348 . S
C2118 C2120 1.353 . S
C2118 H2176 0.929 . S
C2119 C2116 1.356 . S
C2119 C2121 1.358 . S
C2119 H2177 0.930 . S
C2120 N2117 1.314 . S
C2120 C2118 1.353 . S
C2120 H2178 0.930 . S
C2121 N2117 1.279 . S
C2121 C2119 1.358 . S
C2121 H2179 0.930 . S
C2122 C2125 1.348 . S
C2122 C2126 1.356 . S
C2122 O2173 1.325 . S
C2123 N2124 1.279 . S
C2123 C2126 1.358 . S
C2123 H2180 0.930 . S
N2124 C2123 1.279 . S
N2124 C2127 1.314 . S
C2125 C2122 1.348 . S
C2125 C2127 1.353 . S
C2125 H2181 0.929 . S
C2126 C2122 1.356 . S
C2126 C2123 1.358 . S
C2126 H2182 0.930 . S
C2127 N2124 1.314 . S
C2127 C2125 1.353 . S
C2127 H2183 0.930 . S
C2128 N2129 1.314 . S
C2128 C2133 1.353 . S
C2128 H2134 0.930 . S
N2129 Li2112 1.990 . S
N2129 C2128 1.314 . S
N2129 C2131 1.279 . S
C2130 C2131 1.358 . S
C2130 C2132 1.356 . S
C2130 H2184 0.930 . S
C2131 N2129 1.279 . S
C2131 C2130 1.358 . S
C2131 H2135 0.930 . S
C2132 C2130 1.356 . S
C2132 C2133 1.348 . S
C2133 C2128 1.353 . S
C2133 C2132 1.348 . S
C2133 H2185 0.929 . S
H2134 C2128 0.930 . S
H2135 C2131 0.930 . S
C2136 N2137 1.314 . S
C2136 C2138 1.353 . S
C2136 H2142 0.930 . S
N2137 Li2113 1.990 . S
N2137 C2136 1.314 . S
N2137 C2140 1.279 . S
C2138 C2136 1.353 . S
C2138 C2141 1.348 . S
C2138 H2186 0.929 . S
C2139 C2140 1.358 . S
C2139 C2141 1.356 . S
C2139 H2187 0.930 . S
C2140 N2137 1.279 . S
C2140 C2139 1.358 . S
C2140 H2143 0.930 . S
C2141 C2138 1.348 . S
C2141 C2139 1.356 . S
H2142 C2136 0.930 . S
H2143 C2140 0.930 . S
C2144 C2146 1.348 . S
C2144 C2147 1.356 . S
C2144 O2174 1.325 . S
N2145 C2148 1.314 . S
N2145 C2149 1.279 . S
C2146 C2144 1.348 . S
C2146 C2148 1.353 . S
C2146 H2188 0.929 . S
C2147 C2144 1.356 . S
C2147 C2149 1.358 . S
C2147 H2189 0.930 . S
C2148 N2145 1.314 . S
C2148 C2146 1.353 . S
C2148 H2190 0.930 . S
C2149 N2145 1.279 . S
C2149 C2147 1.358 . S
C2149 H2191 0.930 . S
C2150 C2151 1.348 . S
C2150 C2152 1.356 . S
C2150 O2175 1.325 . S
C2151 C2150 1.348 . S
C2151 C2153 1.353 . S
C2151 H2192 0.929 . S
C2152 C2150 1.356 . S
C2152 C2154 1.358 . S
C2152 H2193 0.930 . S
C2153 C2151 1.353 . S
C2153 N2155 1.314 . S
C2153 H2194 0.930 . S
C2154 C2152 1.358 . S
C2154 N2155 1.279 . S
C2154 H2195 0.930 . S
N2155 C2153 1.314 . S
N2155 C2154 1.279 . S
C2156 C2158 1.353 . S
C2156 N2159 1.314 . S
C2156 H2162 0.930 . S
C2157 N2159 1.279 . S
C2157 C2160 1.358 . S
C2157 H2163 0.930 . S
C2158 C2156 1.353 . S
C2158 C2161 1.348 . S
C2158 H2196 0.929 . S
N2159 Li2114 1.990 . S
N2159 C2156 1.314 . S
N2159 C2157 1.279 . S
C2160 C2157 1.358 . S
C2160 C2161 1.356 . S
C2160 H2197 0.930 . S
C2161 C2158 1.348 . S
C2161 C2160 1.356 . S
H2162 C2156 0.930 . S
H2163 C2157 0.930 . S
C2164 N2165 1.314 . S
C2164 C2166 1.353 . S
C2164 H2170 0.930 . S
N2165 Li2115 1.990 . S
N2165 C2164 1.314 . S
N2165 C2168 1.279 . S
C2166 C2164 1.353 . S
C2166 C2169 1.348 . S
C2166 H2198 0.929 . S
C2167 C2168 1.358 . S
C2167 C2169 1.356 . S
C2167 H2199 0.930 . S
C2168 N2165 1.279 . S
C2168 C2167 1.358 . S
C2168 H2171 0.930 . S
C2169 C2166 1.348 . S
C2169 C2167 1.356 . S
H2170 C2164 0.930 . S
H2171 C2168 0.930 . S
O2172 Li2112 1.956 . S
O2172 Li2113 1.970 . S
O2172 Li2114 1.961 . S
O2172 C2116 1.325 . S
O2173 Li2112 1.970 . S
O2173 Li2113 1.956 . S
O2173 Li2115 1.961 . S
O2173 C2122 1.325 . S
O2174 Li2112 1.961 . S
O2174 Li2114 1.956 . S
O2174 Li2115 1.970 . S
O2174 C2144 1.325 . S
O2175 Li2113 1.961 . S
O2175 Li2114 1.970 . S
O2175 Li2115 1.956 . S
O2175 C2150 1.325 . S
H2176 C2118 0.929 . S
H2177 C2119 0.930 . S
H2178 C2120 0.930 . S
H2179 C2121 0.930 . S
H2180 C2123 0.930 . S
H2181 C2125 0.929 . S
H2182 C2126 0.930 . S
H2183 C2127 0.930 . S
H2184 C2130 0.930 . S
H2185 C2133 0.929 . S
H2186 C2138 0.929 . S
H2187 C2139 0.930 . S
H2188 C2146 0.929 . S
H2189 C2147 0.930 . S
H2190 C2148 0.930 . S
H2191 C2149 0.930 . S
H2192 C2151 0.929 . S
H2193 C2152 0.930 . S
H2194 C2153 0.930 . S
H2195 C2154 0.930 . S
H2196 C2158 0.929 . S
H2197 C2160 0.930 . S
H2198 C2166 0.929 . S
H2199 C2167 0.930 . S
Li2200 N2217 1.990 . S
Li2200 O2260 1.956 . S
Li2200 O2261 1.970 . S
Li2200 O2262 1.961 . S
Li2201 N2225 1.990 . S
Li2201 O2260 1.970 . S
Li2201 O2261 1.956 . S
Li2201 O2263 1.961 . S
Li2202 N2247 1.990 . S
Li2202 O2260 1.961 . S
Li2202 O2262 1.956 . S
Li2202 O2263 1.970 . S
Li2203 N2253 1.990 . S
Li2203 O2261 1.961 . S
Li2203 O2262 1.970 . S
Li2203 O2263 1.956 . S
C2204 C2206 1.348 . S
C2204 C2207 1.356 . S
C2204 O2260 1.325 . S
N2205 C2208 1.314 . S
N2205 C2209 1.279 . S
C2206 C2204 1.348 . S
C2206 C2208 1.353 . S
C2206 H2264 0.929 . S
C2207 C2204 1.356 . S
C2207 C2209 1.358 . S
C2207 H2265 0.930 . S
C2208 N2205 1.314 . S
C2208 C2206 1.353 . S
C2208 H2266 0.930 . S
C2209 N2205 1.279 . S
C2209 C2207 1.358 . S
C2209 H2267 0.930 . S
C2210 C2213 1.348 . S
C2210 C2214 1.356 . S
C2210 O2261 1.325 . S
C2211 N2212 1.279 . S
C2211 C2214 1.358 . S
C2211 H2268 0.930 . S
N2212 C2211 1.279 . S
N2212 C2215 1.314 . S
C2213 C2210 1.348 . S
C2213 C2215 1.353 . S
C2213 H2269 0.929 . S
C2214 C2210 1.356 . S
C2214 C2211 1.358 . S
C2214 H2270 0.930 . S
C2215 N2212 1.314 . S
C2215 C2213 1.353 . S
C2215 H2271 0.930 . S
C2216 N2217 1.314 . S
C2216 C2221 1.353 . S
C2216 H2222 0.930 . S
N2217 Li2200 1.990 . S
N2217 C2216 1.314 . S
N2217 C2219 1.279 . S
C2218 C2219 1.358 . S
C2218 C2220 1.356 . S
C2218 H2272 0.930 . S
C2219 N2217 1.279 . S
C2219 C2218 1.358 . S
C2219 H2223 0.930 . S
C2220 C2218 1.356 . S
C2220 C2221 1.348 . S
C2221 C2216 1.353 . S
C2221 C2220 1.348 . S
C2221 H2273 0.929 . S
H2222 C2216 0.930 . S
H2223 C2219 0.930 . S
C2224 N2225 1.314 . S
C2224 C2226 1.353 . S
C2224 H2230 0.930 . S
N2225 Li2201 1.990 . S
N2225 C2224 1.314 . S
N2225 C2228 1.279 . S
C2226 C2224 1.353 . S
C2226 C2229 1.348 . S
C2226 H2274 0.929 . S
C2227 C2228 1.358 . S
C2227 C2229 1.356 . S
C2227 H2275 0.930 . S
C2228 N2225 1.279 . S
C2228 C2227 1.358 . S
C2228 H2231 0.930 . S
C2229 C2226 1.348 . S
C2229 C2227 1.356 . S
H2230 C2224 0.930 . S
H2231 C2228 0.930 . S
C2232 C2234 1.348 . S
C2232 C2235 1.356 . S
C2232 O2262 1.325 . S
N2233 C2236 1.314 . S
N2233 C2237 1.279 . S
C2234 C2232 1.348 . S
C2234 C2236 1.353 . S
C2234 H2276 0.929 . S
C2235 C2232 1.356 . S
C2235 C2237 1.358 . S
C2235 H2277 0.930 . S
C2236 N2233 1.314 . S
C2236 C2234 1.353 . S
C2236 H2278 0.930 . S
C2237 N2233 1.279 . S
C2237 C2235 1.358 . S
C2237 H2279 0.930 . S
C2238 C2239 1.348 . S
C2238 C2240 1.356 . S
C2238 O2263 1.325 . S
C2239 C2238 1.348 . S
C2239 C2241 1.353 . S
C2239 H2280 0.929 . S
C2240 C2238 1.356 . S
C2240 C2242 1.358 . S
C2240 H2281 0.930 . S
C2241 C2239 1.353 . S
C2241 N2243 1.314 . S
C2241 H2282 0.930 . S
C2242 C2240 1.358 . S
C2242 N2243 1.279 . S
C2242 H2283 0.930 . S
N2243 C2241 1.314 . S
N2243 C2242 1.279 . S
C2244 C2246 1.353 . S
C2244 N2247 1.314 . S
C2244 H2250 0.930 . S
C2245 N2247 1.279 . S
C2245 C2248 1.358 . S
C2245 H2251 0.930 . S
C2246 C2244 1.353 . S
C2246 C2249 1.348 . S
C2246 H2284 0.929 . S
N2247 Li2202 1.990 . S
N2247 C2244 1.314 . S
N2247 C2245 1.279 . S
C2248 C2245 1.358 . S
C2248 C2249 1.356 . S
C2248 H2285 0.930 . S
C2249 C2246 1.348 . S
C2249 C2248 1.356 . S
H2250 C2244 0.930 . S
H2251 C2245 0.930 . S
C2252 N2253 1.314 . S
C2252 C2254 1.353 . S
C2252 H2258 0.930 . S
N2253 Li2203 1.990 . S
N2253 C2252 1.314 . S
N2253 C2256 1.279 . S
C2254 C2252 1.353 . S
C2254 C2257 1.348 . S
C2254 H2286 0.929 . S
C2255 C2256 1.358 . S
C2255 C2257 1.356 . S
C2255 H2287 0.930 . S
C2256 N2253 1.279 . S
C2256 C2255 1.358 . S
C2256 H2259 0.930 . S
C2257 C2254 1.348 . S
C2257 C2255 1.356 . S
H2258 C2252 0.930 . S
H2259 C2256 0.930 . S
O2260 Li2200 1.956 . S
O2260 Li2201 1.970 . S
O2260 Li2202 1.961 . S
O2260 C2204 1.325 . S
O2261 Li2200 1.970 . S
O2261 Li2201 1.956 . S
O2261 Li2203 1.961 . S
O2261 C2210 1.325 . S
O2262 Li2200 1.961 . S
O2262 Li2202 1.956 . S
O2262 Li2203 1.970 . S
O2262 C2232 1.325 . S
O2263 Li2201 1.961 . S
O2263 Li2202 1.970 . S
O2263 Li2203 1.956 . S
O2263 C2238 1.325 . S
H2264 C2206 0.929 . S
H2265 C2207 0.930 . S
H2266 C2208 0.930 . S
H2267 C2209 0.930 . S
H2268 C2211 0.930 . S
H2269 C2213 0.929 . S
H2270 C2214 0.930 . S
H2271 C2215 0.930 . S
H2272 C2218 0.930 . S
H2273 C2221 0.929 . S
H2274 C2226 0.929 . S
H2275 C2227 0.930 . S
H2276 C2234 0.929 . S
H2277 C2235 0.930 . S
H2278 C2236 0.930 . S
H2279 C2237 0.930 . S
H2280 C2239 0.929 . S
H2281 C2240 0.930 . S
H2282 C2241 0.930 . S
H2283 C2242 0.930 . S
H2284 C2246 0.929 . S
H2285 C2248 0.930 . S
H2286 C2254 0.929 . S
H2287 C2255 0.930 . S
Li2288 N2305 1.990 . S
Li2288 O2348 1.956 . S
Li2288 O2349 1.970 . S
Li2288 O2350 1.961 . S
Li2289 N2313 1.990 . S
Li2289 O2348 1.970 . S
Li2289 O2349 1.956 . S
Li2289 O2351 1.961 . S
Li2290 N2335 1.990 . S
Li2290 O2348 1.961 . S
Li2290 O2350 1.956 . S
Li2290 O2351 1.970 . S
Li2291 N2341 1.990 . S
Li2291 O2349 1.961 . S
Li2291 O2350 1.970 . S
Li2291 O2351 1.956 . S
C2292 C2294 1.348 . S
C2292 C2295 1.356 . S
C2292 O2348 1.325 . S
N2293 C2296 1.314 . S
N2293 C2297 1.279 . S
C2294 C2292 1.348 . S
C2294 C2296 1.353 . S
C2294 H2352 0.929 . S
C2295 C2292 1.356 . S
C2295 C2297 1.358 . S
C2295 H2353 0.930 . S
C2296 N2293 1.314 . S
C2296 C2294 1.353 . S
C2296 H2354 0.930 . S
C2297 N2293 1.279 . S
C2297 C2295 1.358 . S
C2297 H2355 0.930 . S
C2298 C2301 1.348 . S
C2298 C2302 1.356 . S
C2298 O2349 1.325 . S
C2299 N2300 1.279 . S
C2299 C2302 1.358 . S
C2299 H2356 0.930 . S
N2300 C2299 1.279 . S
N2300 C2303 1.314 . S
C2301 C2298 1.348 . S
C2301 C2303 1.353 . S
C2301 H2357 0.929 . S
C2302 C2298 1.356 . S
C2302 C2299 1.358 . S
C2302 H2358 0.930 . S
C2303 N2300 1.314 . S
C2303 C2301 1.353 . S
C2303 H2359 0.930 . S
C2304 N2305 1.314 . S
C2304 C2309 1.353 . S
C2304 H2310 0.930 . S
N2305 Li2288 1.990 . S
N2305 C2304 1.314 . S
N2305 C2307 1.279 . S
C2306 C2307 1.358 . S
C2306 C2308 1.356 . S
C2306 H2360 0.930 . S
C2307 N2305 1.279 . S
C2307 C2306 1.358 . S
C2307 H2311 0.930 . S
C2308 C2306 1.356 . S
C2308 C2309 1.348 . S
C2309 C2304 1.353 . S
C2309 C2308 1.348 . S
C2309 H2361 0.929 . S
H2310 C2304 0.930 . S
H2311 C2307 0.930 . S
C2312 N2313 1.314 . S
C2312 C2314 1.353 . S
C2312 H2318 0.930 . S
N2313 Li2289 1.990 . S
N2313 C2312 1.314 . S
N2313 C2316 1.279 . S
C2314 C2312 1.353 . S
C2314 C2317 1.348 . S
C2314 H2362 0.929 . S
C2315 C2316 1.358 . S
C2315 C2317 1.356 . S
C2315 H2363 0.930 . S
C2316 N2313 1.279 . S
C2316 C2315 1.358 . S
C2316 H2319 0.930 . S
C2317 C2314 1.348 . S
C2317 C2315 1.356 . S
H2318 C2312 0.930 . S
H2319 C2316 0.930 . S
C2320 C2322 1.348 . S
C2320 C2323 1.356 . S
C2320 O2350 1.325 . S
N2321 C2324 1.314 . S
N2321 C2325 1.279 . S
C2322 C2320 1.348 . S
C2322 C2324 1.353 . S
C2322 H2364 0.929 . S
C2323 C2320 1.356 . S
C2323 C2325 1.358 . S
C2323 H2365 0.930 . S
C2324 N2321 1.314 . S
C2324 C2322 1.353 . S
C2324 H2366 0.930 . S
C2325 N2321 1.279 . S
C2325 C2323 1.358 . S
C2325 H2367 0.930 . S
C2326 C2327 1.348 . S
C2326 C2328 1.356 . S
C2326 O2351 1.325 . S
C2327 C2326 1.348 . S
C2327 C2329 1.353 . S
C2327 H2368 0.929 . S
C2328 C2326 1.356 . S
C2328 C2330 1.358 . S
C2328 H2369 0.930 . S
C2329 C2327 1.353 . S
C2329 N2331 1.314 . S
C2329 H2370 0.930 . S
C2330 C2328 1.358 . S
C2330 N2331 1.279 . S
C2330 H2371 0.930 . S
N2331 C2329 1.314 . S
N2331 C2330 1.279 . S
C2332 C2334 1.353 . S
C2332 N2335 1.314 . S
C2332 H2338 0.930 . S
C2333 N2335 1.279 . S
C2333 C2336 1.358 . S
C2333 H2339 0.930 . S
C2334 C2332 1.353 . S
C2334 C2337 1.348 . S
C2334 H2372 0.929 . S
N2335 Li2290 1.990 . S
N2335 C2332 1.314 . S
N2335 C2333 1.279 . S
C2336 C2333 1.358 . S
C2336 C2337 1.356 . S
C2336 H2373 0.930 . S
C2337 C2334 1.348 . S
C2337 C2336 1.356 . S
H2338 C2332 0.930 . S
H2339 C2333 0.930 . S
C2340 N2341 1.314 . S
C2340 C2342 1.353 . S
C2340 H2346 0.930 . S
N2341 Li2291 1.990 . S
N2341 C2340 1.314 . S
N2341 C2344 1.279 . S
C2342 C2340 1.353 . S
C2342 C2345 1.348 . S
C2342 H2374 0.929 . S
C2343 C2344 1.358 . S
C2343 C2345 1.356 . S
C2343 H2375 0.930 . S
C2344 N2341 1.279 . S
C2344 C2343 1.358 . S
C2344 H2347 0.930 . S
C2345 C2342 1.348 . S
C2345 C2343 1.356 . S
H2346 C2340 0.930 . S
H2347 C2344 0.930 . S
O2348 Li2288 1.956 . S
O2348 Li2289 1.970 . S
O2348 Li2290 1.961 . S
O2348 C2292 1.325 . S
O2349 Li2288 1.970 . S
O2349 Li2289 1.956 . S
O2349 Li2291 1.961 . S
O2349 C2298 1.325 . S
O2350 Li2288 1.961 . S
O2350 Li2290 1.956 . S
O2350 Li2291 1.970 . S
O2350 C2320 1.325 . S
O2351 Li2289 1.961 . S
O2351 Li2290 1.970 . S
O2351 Li2291 1.956 . S
O2351 C2326 1.325 . S
H2352 C2294 0.929 . S
H2353 C2295 0.930 . S
H2354 C2296 0.930 . S
H2355 C2297 0.930 . S
H2356 C2299 0.930 . S
H2357 C2301 0.929 . S
H2358 C2302 0.930 . S
H2359 C2303 0.930 . S
H2360 C2306 0.930 . S
H2361 C2309 0.929 . S
H2362 C2314 0.929 . S
H2363 C2315 0.930 . S
H2364 C2322 0.929 . S
H2365 C2323 0.930 . S
H2366 C2324 0.930 . S
H2367 C2325 0.930 . S
H2368 C2327 0.929 . S
H2369 C2328 0.930 . S
H2370 C2329 0.930 . S
H2371 C2330 0.930 . S
H2372 C2334 0.929 . S
H2373 C2336 0.930 . S
H2374 C2342 0.929 . S
H2375 C2343 0.930 . S
Li2376 N2393 1.990 . S
Li2376 O2436 1.956 . S
Li2376 O2437 1.970 . S
Li2376 O2438 1.961 . S
Li2377 N2401 1.990 . S
Li2377 O2436 1.970 . S
Li2377 O2437 1.956 . S
Li2377 O2439 1.961 . S
Li2378 N2423 1.990 . S
Li2378 O2436 1.961 . S
Li2378 O2438 1.956 . S
Li2378 O2439 1.970 . S
Li2379 N2429 1.990 . S
Li2379 O2437 1.961 . S
Li2379 O2438 1.970 . S
Li2379 O2439 1.956 . S
C2380 C2382 1.348 . S
C2380 C2383 1.356 . S
C2380 O2436 1.325 . S
N2381 C2384 1.314 . S
N2381 C2385 1.279 . S
C2382 C2380 1.348 . S
C2382 C2384 1.353 . S
C2382 H2440 0.929 . S
C2383 C2380 1.356 . S
C2383 C2385 1.358 . S
C2383 H2441 0.930 . S
C2384 N2381 1.314 . S
C2384 C2382 1.353 . S
C2384 H2442 0.930 . S
C2385 N2381 1.279 . S
C2385 C2383 1.358 . S
C2385 H2443 0.930 . S
C2386 C2389 1.348 . S
C2386 C2390 1.356 . S
C2386 O2437 1.325 . S
C2387 N2388 1.279 . S
C2387 C2390 1.358 . S
C2387 H2444 0.930 . S
N2388 C2387 1.279 . S
N2388 C2391 1.314 . S
C2389 C2386 1.348 . S
C2389 C2391 1.353 . S
C2389 H2445 0.929 . S
C2390 C2386 1.356 . S
C2390 C2387 1.358 . S
C2390 H2446 0.930 . S
C2391 N2388 1.314 . S
C2391 C2389 1.353 . S
C2391 H2447 0.930 . S
C2392 N2393 1.314 . S
C2392 C2397 1.353 . S
C2392 H2398 0.930 . S
N2393 Li2376 1.990 . S
N2393 C2392 1.314 . S
N2393 C2395 1.279 . S
C2394 C2395 1.358 . S
C2394 C2396 1.356 . S
C2394 H2448 0.930 . S
C2395 N2393 1.279 . S
C2395 C2394 1.358 . S
C2395 H2399 0.930 . S
C2396 C2394 1.356 . S
C2396 C2397 1.348 . S
C2397 C2392 1.353 . S
C2397 C2396 1.348 . S
C2397 H2449 0.929 . S
H2398 C2392 0.930 . S
H2399 C2395 0.930 . S
C2400 N2401 1.314 . S
C2400 C2402 1.353 . S
C2400 H2406 0.930 . S
N2401 Li2377 1.990 . S
N2401 C2400 1.314 . S
N2401 C2404 1.279 . S
C2402 C2400 1.353 . S
C2402 C2405 1.348 . S
C2402 H2450 0.929 . S
C2403 C2404 1.358 . S
C2403 C2405 1.356 . S
C2403 H2451 0.930 . S
C2404 N2401 1.279 . S
C2404 C2403 1.358 . S
C2404 H2407 0.930 . S
C2405 C2402 1.348 . S
C2405 C2403 1.356 . S
H2406 C2400 0.930 . S
H2407 C2404 0.930 . S
C2408 C2410 1.348 . S
C2408 C2411 1.356 . S
C2408 O2438 1.325 . S
N2409 C2412 1.314 . S
N2409 C2413 1.279 . S
C2410 C2408 1.348 . S
C2410 C2412 1.353 . S
C2410 H2452 0.929 . S
C2411 C2408 1.356 . S
C2411 C2413 1.358 . S
C2411 H2453 0.930 . S
C2412 N2409 1.314 . S
C2412 C2410 1.353 . S
C2412 H2454 0.930 . S
C2413 N2409 1.279 . S
C2413 C2411 1.358 . S
C2413 H2455 0.930 . S
C2414 C2415 1.348 . S
C2414 C2416 1.356 . S
C2414 O2439 1.325 . S
C2415 C2414 1.348 . S
C2415 C2417 1.353 . S
C2415 H2456 0.929 . S
C2416 C2414 1.356 . S
C2416 C2418 1.358 . S
C2416 H2457 0.930 . S
C2417 C2415 1.353 . S
C2417 N2419 1.314 . S
C2417 H2458 0.930 . S
C2418 C2416 1.358 . S
C2418 N2419 1.279 . S
C2418 H2459 0.930 . S
N2419 C2417 1.314 . S
N2419 C2418 1.279 . S
C2420 C2422 1.353 . S
C2420 N2423 1.314 . S
C2420 H2426 0.930 . S
C2421 N2423 1.279 . S
C2421 C2424 1.358 . S
C2421 H2427 0.930 . S
C2422 C2420 1.353 . S
C2422 C2425 1.348 . S
C2422 H2460 0.929 . S
N2423 Li2378 1.990 . S
N2423 C2420 1.314 . S
N2423 C2421 1.279 . S
C2424 C2421 1.358 . S
C2424 C2425 1.356 . S
C2424 H2461 0.930 . S
C2425 C2422 1.348 . S
C2425 C2424 1.356 . S
H2426 C2420 0.930 . S
H2427 C2421 0.930 . S
C2428 N2429 1.314 . S
C2428 C2430 1.353 . S
C2428 H2434 0.930 . S
N2429 Li2379 1.990 . S
N2429 C2428 1.314 . S
N2429 C2432 1.279 . S
C2430 C2428 1.353 . S
C2430 C2433 1.348 . S
C2430 H2462 0.929 . S
C2431 C2432 1.358 . S
C2431 C2433 1.356 . S
C2431 H2463 0.930 . S
C2432 N2429 1.279 . S
C2432 C2431 1.358 . S
C2432 H2435 0.930 . S
C2433 C2430 1.348 . S
C2433 C2431 1.356 . S
H2434 C2428 0.930 . S
H2435 C2432 0.930 . S
O2436 Li2376 1.956 . S
O2436 Li2377 1.970 . S
O2436 Li2378 1.961 . S
O2436 C2380 1.325 . S
O2437 Li2376 1.970 . S
O2437 Li2377 1.956 . S
O2437 Li2379 1.961 . S
O2437 C2386 1.325 . S
O2438 Li2376 1.961 . S
O2438 Li2378 1.956 . S
O2438 Li2379 1.970 . S
O2438 C2408 1.325 . S
O2439 Li2377 1.961 . S
O2439 Li2378 1.970 . S
O2439 Li2379 1.956 . S
O2439 C2414 1.325 . S
H2440 C2382 0.929 . S
H2441 C2383 0.930 . S
H2442 C2384 0.930 . S
H2443 C2385 0.930 . S
H2444 C2387 0.930 . S
H2445 C2389 0.929 . S
H2446 C2390 0.930 . S
H2447 C2391 0.930 . S
H2448 C2394 0.930 . S
H2449 C2397 0.929 . S
H2450 C2402 0.929 . S
H2451 C2403 0.930 . S
H2452 C2410 0.929 . S
H2453 C2411 0.930 . S
H2454 C2412 0.930 . S
H2455 C2413 0.930 . S
H2456 C2415 0.929 . S
H2457 C2416 0.930 . S
H2458 C2417 0.930 . S
H2459 C2418 0.930 . S
H2460 C2422 0.929 . S
H2461 C2424 0.930 . S
H2462 C2430 0.929 . S
H2463 C2431 0.930 . S
Li2464 N2481 1.990 . S
Li2464 O2524 1.956 . S
Li2464 O2525 1.970 . S
Li2464 O2526 1.961 . S
Li2465 N2489 1.990 . S
Li2465 O2524 1.970 . S
Li2465 O2525 1.956 . S
Li2465 O2527 1.961 . S
Li2466 N2511 1.990 . S
Li2466 O2524 1.961 . S
Li2466 O2526 1.956 . S
Li2466 O2527 1.970 . S
Li2467 N2517 1.990 . S
Li2467 O2525 1.961 . S
Li2467 O2526 1.970 . S
Li2467 O2527 1.956 . S
C2468 C2470 1.348 . S
C2468 C2471 1.356 . S
C2468 O2524 1.325 . S
N2469 C2472 1.314 . S
N2469 C2473 1.279 . S
C2470 C2468 1.348 . S
C2470 C2472 1.353 . S
C2470 H2528 0.929 . S
C2471 C2468 1.356 . S
C2471 C2473 1.358 . S
C2471 H2529 0.930 . S
C2472 N2469 1.314 . S
C2472 C2470 1.353 . S
C2472 H2530 0.930 . S
C2473 N2469 1.279 . S
C2473 C2471 1.358 . S
C2473 H2531 0.930 . S
C2474 C2477 1.348 . S
C2474 C2478 1.356 . S
C2474 O2525 1.325 . S
C2475 N2476 1.279 . S
C2475 C2478 1.358 . S
C2475 H2532 0.930 . S
N2476 C2475 1.279 . S
N2476 C2479 1.314 . S
C2477 C2474 1.348 . S
C2477 C2479 1.353 . S
C2477 H2533 0.929 . S
C2478 C2474 1.356 . S
C2478 C2475 1.358 . S
C2478 H2534 0.930 . S
C2479 N2476 1.314 . S
C2479 C2477 1.353 . S
C2479 H2535 0.930 . S
C2480 N2481 1.314 . S
C2480 C2485 1.353 . S
C2480 H2486 0.930 . S
N2481 Li2464 1.990 . S
N2481 C2480 1.314 . S
N2481 C2483 1.279 . S
C2482 C2483 1.358 . S
C2482 C2484 1.356 . S
C2482 H2536 0.930 . S
C2483 N2481 1.279 . S
C2483 C2482 1.358 . S
C2483 H2487 0.930 . S
C2484 C2482 1.356 . S
C2484 C2485 1.348 . S
C2485 C2480 1.353 . S
C2485 C2484 1.348 . S
C2485 H2537 0.929 . S
H2486 C2480 0.930 . S
H2487 C2483 0.930 . S
C2488 N2489 1.314 . S
C2488 C2490 1.353 . S
C2488 H2494 0.930 . S
N2489 Li2465 1.990 . S
N2489 C2488 1.314 . S
N2489 C2492 1.279 . S
C2490 C2488 1.353 . S
C2490 C2493 1.348 . S
C2490 H2538 0.929 . S
C2491 C2492 1.358 . S
C2491 C2493 1.356 . S
C2491 H2539 0.930 . S
C2492 N2489 1.279 . S
C2492 C2491 1.358 . S
C2492 H2495 0.930 . S
C2493 C2490 1.348 . S
C2493 C2491 1.356 . S
H2494 C2488 0.930 . S
H2495 C2492 0.930 . S
C2496 C2498 1.348 . S
C2496 C2499 1.356 . S
C2496 O2526 1.325 . S
N2497 C2500 1.314 . S
N2497 C2501 1.279 . S
C2498 C2496 1.348 . S
C2498 C2500 1.353 . S
C2498 H2540 0.929 . S
C2499 C2496 1.356 . S
C2499 C2501 1.358 . S
C2499 H2541 0.930 . S
C2500 N2497 1.314 . S
C2500 C2498 1.353 . S
C2500 H2542 0.930 . S
C2501 N2497 1.279 . S
C2501 C2499 1.358 . S
C2501 H2543 0.930 . S
C2502 C2503 1.348 . S
C2502 C2504 1.356 . S
C2502 O2527 1.325 . S
C2503 C2502 1.348 . S
C2503 C2505 1.353 . S
C2503 H2544 0.929 . S
C2504 C2502 1.356 . S
C2504 C2506 1.358 . S
C2504 H2545 0.930 . S
C2505 C2503 1.353 . S
C2505 N2507 1.314 . S
C2505 H2546 0.930 . S
C2506 C2504 1.358 . S
C2506 N2507 1.279 . S
C2506 H2547 0.930 . S
N2507 C2505 1.314 . S
N2507 C2506 1.279 . S
C2508 C2510 1.353 . S
C2508 N2511 1.314 . S
C2508 H2514 0.930 . S
C2509 N2511 1.279 . S
C2509 C2512 1.358 . S
C2509 H2515 0.930 . S
C2510 C2508 1.353 . S
C2510 C2513 1.348 . S
C2510 H2548 0.929 . S
N2511 Li2466 1.990 . S
N2511 C2508 1.314 . S
N2511 C2509 1.279 . S
C2512 C2509 1.358 . S
C2512 C2513 1.356 . S
C2512 H2549 0.930 . S
C2513 C2510 1.348 . S
C2513 C2512 1.356 . S
H2514 C2508 0.930 . S
H2515 C2509 0.930 . S
C2516 N2517 1.314 . S
C2516 C2518 1.353 . S
C2516 H2522 0.930 . S
N2517 Li2467 1.990 . S
N2517 C2516 1.314 . S
N2517 C2520 1.279 . S
C2518 C2516 1.353 . S
C2518 C2521 1.348 . S
C2518 H2550 0.929 . S
C2519 C2520 1.358 . S
C2519 C2521 1.356 . S
C2519 H2551 0.930 . S
C2520 N2517 1.279 . S
C2520 C2519 1.358 . S
C2520 H2523 0.930 . S
C2521 C2518 1.348 . S
C2521 C2519 1.356 . S
H2522 C2516 0.930 . S
H2523 C2520 0.930 . S
O2524 Li2464 1.956 . S
O2524 Li2465 1.970 . S
O2524 Li2466 1.961 . S
O2524 C2468 1.325 . S
O2525 Li2464 1.970 . S
O2525 Li2465 1.956 . S
O2525 Li2467 1.961 . S
O2525 C2474 1.325 . S
O2526 Li2464 1.961 . S
O2526 Li2466 1.956 . S
O2526 Li2467 1.970 . S
O2526 C2496 1.325 . S
O2527 Li2465 1.961 . S
O2527 Li2466 1.970 . S
O2527 Li2467 1.956 . S
O2527 C2502 1.325 . S
H2528 C2470 0.929 . S
H2529 C2471 0.930 . S
H2530 C2472 0.930 . S
H2531 C2473 0.930 . S
H2532 C2475 0.930 . S
H2533 C2477 0.929 . S
H2534 C2478 0.930 . S
H2535 C2479 0.930 . S
H2536 C2482 0.930 . S
H2537 C2485 0.929 . S
H2538 C2490 0.929 . S
H2539 C2491 0.930 . S
H2540 C2498 0.929 . S
H2541 C2499 0.930 . S
H2542 C2500 0.930 . S
H2543 C2501 0.930 . S
H2544 C2503 0.929 . S
H2545 C2504 0.930 . S
H2546 C2505 0.930 . S
H2547 C2506 0.930 . S
H2548 C2510 0.929 . S
H2549 C2512 0.930 . S
H2550 C2518 0.929 . S
H2551 C2519 0.930 . S
Li2552 N2569 1.990 . S
Li2552 O2612 1.956 . S
Li2552 O2613 1.970 . S
Li2552 O2614 1.961 . S
Li2553 N2577 1.990 . S
Li2553 O2612 1.970 . S
Li2553 O2613 1.956 . S
Li2553 O2615 1.961 . S
Li2554 N2599 1.990 . S
Li2554 O2612 1.961 . S
Li2554 O2614 1.956 . S
Li2554 O2615 1.970 . S
Li2555 N2605 1.990 . S
Li2555 O2613 1.961 . S
Li2555 O2614 1.970 . S
Li2555 O2615 1.956 . S
C2556 C2558 1.348 . S
C2556 C2559 1.356 . S
C2556 O2612 1.325 . S
N2557 C2560 1.314 . S
N2557 C2561 1.279 . S
C2558 C2556 1.348 . S
C2558 C2560 1.353 . S
C2558 H2616 0.929 . S
C2559 C2556 1.356 . S
C2559 C2561 1.358 . S
C2559 H2617 0.930 . S
C2560 N2557 1.314 . S
C2560 C2558 1.353 . S
C2560 H2618 0.930 . S
C2561 N2557 1.279 . S
C2561 C2559 1.358 . S
C2561 H2619 0.930 . S
C2562 C2565 1.348 . S
C2562 C2566 1.356 . S
C2562 O2613 1.325 . S
C2563 N2564 1.279 . S
C2563 C2566 1.358 . S
C2563 H2620 0.930 . S
N2564 C2563 1.279 . S
N2564 C2567 1.314 . S
C2565 C2562 1.348 . S
C2565 C2567 1.353 . S
C2565 H2621 0.929 . S
C2566 C2562 1.356 . S
C2566 C2563 1.358 . S
C2566 H2622 0.930 . S
C2567 N2564 1.314 . S
C2567 C2565 1.353 . S
C2567 H2623 0.930 . S
C2568 N2569 1.314 . S
C2568 C2573 1.353 . S
C2568 H2574 0.930 . S
N2569 Li2552 1.990 . S
N2569 C2568 1.314 . S
N2569 C2571 1.279 . S
C2570 C2571 1.358 . S
C2570 C2572 1.356 . S
C2570 H2624 0.930 . S
C2571 N2569 1.279 . S
C2571 C2570 1.358 . S
C2571 H2575 0.930 . S
C2572 C2570 1.356 . S
C2572 C2573 1.348 . S
C2573 C2568 1.353 . S
C2573 C2572 1.348 . S
C2573 H2625 0.929 . S
H2574 C2568 0.930 . S
H2575 C2571 0.930 . S
C2576 N2577 1.314 . S
C2576 C2578 1.353 . S
C2576 H2582 0.930 . S
N2577 Li2553 1.990 . S
N2577 C2576 1.314 . S
N2577 C2580 1.279 . S
C2578 C2576 1.353 . S
C2578 C2581 1.348 . S
C2578 H2626 0.929 . S
C2579 C2580 1.358 . S
C2579 C2581 1.356 . S
C2579 H2627 0.930 . S
C2580 N2577 1.279 . S
C2580 C2579 1.358 . S
C2580 H2583 0.930 . S
C2581 C2578 1.348 . S
C2581 C2579 1.356 . S
H2582 C2576 0.930 . S
H2583 C2580 0.930 . S
C2584 C2586 1.348 . S
C2584 C2587 1.356 . S
C2584 O2614 1.325 . S
N2585 C2588 1.314 . S
N2585 C2589 1.279 . S
C2586 C2584 1.348 . S
C2586 C2588 1.353 . S
C2586 H2628 0.929 . S
C2587 C2584 1.356 . S
C2587 C2589 1.358 . S
C2587 H2629 0.930 . S
C2588 N2585 1.314 . S
C2588 C2586 1.353 . S
C2588 H2630 0.930 . S
C2589 N2585 1.279 . S
C2589 C2587 1.358 . S
C2589 H2631 0.930 . S
C2590 C2591 1.348 . S
C2590 C2592 1.356 . S
C2590 O2615 1.325 . S
C2591 C2590 1.348 . S
C2591 C2593 1.353 . S
C2591 H2632 0.929 . S
C2592 C2590 1.356 . S
C2592 C2594 1.358 . S
C2592 H2633 0.930 . S
C2593 C2591 1.353 . S
C2593 N2595 1.314 . S
C2593 H2634 0.930 . S
C2594 C2592 1.358 . S
C2594 N2595 1.279 . S
C2594 H2635 0.930 . S
N2595 C2593 1.314 . S
N2595 C2594 1.279 . S
C2596 C2598 1.353 . S
C2596 N2599 1.314 . S
C2596 H2602 0.930 . S
C2597 N2599 1.279 . S
C2597 C2600 1.358 . S
C2597 H2603 0.930 . S
C2598 C2596 1.353 . S
C2598 C2601 1.348 . S
C2598 H2636 0.929 . S
N2599 Li2554 1.990 . S
N2599 C2596 1.314 . S
N2599 C2597 1.279 . S
C2600 C2597 1.358 . S
C2600 C2601 1.356 . S
C2600 H2637 0.930 . S
C2601 C2598 1.348 . S
C2601 C2600 1.356 . S
H2602 C2596 0.930 . S
H2603 C2597 0.930 . S
C2604 N2605 1.314 . S
C2604 C2606 1.353 . S
C2604 H2610 0.930 . S
N2605 Li2555 1.990 . S
N2605 C2604 1.314 . S
N2605 C2608 1.279 . S
C2606 C2604 1.353 . S
C2606 C2609 1.348 . S
C2606 H2638 0.929 . S
C2607 C2608 1.358 . S
C2607 C2609 1.356 . S
C2607 H2639 0.930 . S
C2608 N2605 1.279 . S
C2608 C2607 1.358 . S
C2608 H2611 0.930 . S
C2609 C2606 1.348 . S
C2609 C2607 1.356 . S
H2610 C2604 0.930 . S
H2611 C2608 0.930 . S
O2612 Li2552 1.956 . S
O2612 Li2553 1.970 . S
O2612 Li2554 1.961 . S
O2612 C2556 1.325 . S
O2613 Li2552 1.970 . S
O2613 Li2553 1.956 . S
O2613 Li2555 1.961 . S
O2613 C2562 1.325 . S
O2614 Li2552 1.961 . S
O2614 Li2554 1.956 . S
O2614 Li2555 1.970 . S
O2614 C2584 1.325 . S
O2615 Li2553 1.961 . S
O2615 Li2554 1.970 . S
O2615 Li2555 1.956 . S
O2615 C2590 1.325 . S
H2616 C2558 0.929 . S
H2617 C2559 0.930 . S
H2618 C2560 0.930 . S
H2619 C2561 0.930 . S
H2620 C2563 0.930 . S
H2621 C2565 0.929 . S
H2622 C2566 0.930 . S
H2623 C2567 0.930 . S
H2624 C2570 0.930 . S
H2625 C2573 0.929 . S
H2626 C2578 0.929 . S
H2627 C2579 0.930 . S
H2628 C2586 0.929 . S
H2629 C2587 0.930 . S
H2630 C2588 0.930 . S
H2631 C2589 0.930 . S
H2632 C2591 0.929 . S
H2633 C2592 0.930 . S
H2634 C2593 0.930 . S
H2635 C2594 0.930 . S
H2636 C2598 0.929 . S
H2637 C2600 0.930 . S
H2638 C2606 0.929 . S
H2639 C2607 0.930 . S
Li2640 N2657 1.990 . S
Li2640 O2700 1.956 . S
Li2640 O2701 1.970 . S
Li2640 O2702 1.961 . S
Li2641 N2665 1.990 . S
Li2641 O2700 1.970 . S
Li2641 O2701 1.956 . S
Li2641 O2703 1.961 . S
Li2642 N2687 1.990 . S
Li2642 O2700 1.961 . S
Li2642 O2702 1.956 . S
Li2642 O2703 1.970 . S
Li2643 N2693 1.990 . S
Li2643 O2701 1.961 . S
Li2643 O2702 1.970 . S
Li2643 O2703 1.956 . S
C2644 C2646 1.348 . S
C2644 C2647 1.356 . S
C2644 O2700 1.325 . S
N2645 C2648 1.314 . S
N2645 C2649 1.279 . S
C2646 C2644 1.348 . S
C2646 C2648 1.353 . S
C2646 H2704 0.929 . S
C2647 C2644 1.356 . S
C2647 C2649 1.358 . S
C2647 H2705 0.930 . S
C2648 N2645 1.314 . S
C2648 C2646 1.353 . S
C2648 H2706 0.930 . S
C2649 N2645 1.279 . S
C2649 C2647 1.358 . S
C2649 H2707 0.930 . S
C2650 C2653 1.348 . S
C2650 C2654 1.356 . S
C2650 O2701 1.325 . S
C2651 N2652 1.279 . S
C2651 C2654 1.358 . S
C2651 H2708 0.930 . S
N2652 C2651 1.279 . S
N2652 C2655 1.314 . S
C2653 C2650 1.348 . S
C2653 C2655 1.353 . S
C2653 H2709 0.929 . S
C2654 C2650 1.356 . S
C2654 C2651 1.358 . S
C2654 H2710 0.930 . S
C2655 N2652 1.314 . S
C2655 C2653 1.353 . S
C2655 H2711 0.930 . S
C2656 N2657 1.314 . S
C2656 C2661 1.353 . S
C2656 H2662 0.930 . S
N2657 Li2640 1.990 . S
N2657 C2656 1.314 . S
N2657 C2659 1.279 . S
C2658 C2659 1.358 . S
C2658 C2660 1.356 . S
C2658 H2712 0.930 . S
C2659 N2657 1.279 . S
C2659 C2658 1.358 . S
C2659 H2663 0.930 . S
C2660 C2658 1.356 . S
C2660 C2661 1.348 . S
C2661 C2656 1.353 . S
C2661 C2660 1.348 . S
C2661 H2713 0.929 . S
H2662 C2656 0.930 . S
H2663 C2659 0.930 . S
C2664 N2665 1.314 . S
C2664 C2666 1.353 . S
C2664 H2670 0.930 . S
N2665 Li2641 1.990 . S
N2665 C2664 1.314 . S
N2665 C2668 1.279 . S
C2666 C2664 1.353 . S
C2666 C2669 1.348 . S
C2666 H2714 0.929 . S
C2667 C2668 1.358 . S
C2667 C2669 1.356 . S
C2667 H2715 0.930 . S
C2668 N2665 1.279 . S
C2668 C2667 1.358 . S
C2668 H2671 0.930 . S
C2669 C2666 1.348 . S
C2669 C2667 1.356 . S
H2670 C2664 0.930 . S
H2671 C2668 0.930 . S
C2672 C2674 1.348 . S
C2672 C2675 1.356 . S
C2672 O2702 1.325 . S
N2673 C2676 1.314 . S
N2673 C2677 1.279 . S
C2674 C2672 1.348 . S
C2674 C2676 1.353 . S
C2674 H2716 0.929 . S
C2675 C2672 1.356 . S
C2675 C2677 1.358 . S
C2675 H2717 0.930 . S
C2676 N2673 1.314 . S
C2676 C2674 1.353 . S
C2676 H2718 0.930 . S
C2677 N2673 1.279 . S
C2677 C2675 1.358 . S
C2677 H2719 0.930 . S
C2678 C2679 1.348 . S
C2678 C2680 1.356 . S
C2678 O2703 1.325 . S
C2679 C2678 1.348 . S
C2679 C2681 1.353 . S
C2679 H2720 0.929 . S
C2680 C2678 1.356 . S
C2680 C2682 1.358 . S
C2680 H2721 0.930 . S
C2681 C2679 1.353 . S
C2681 N2683 1.314 . S
C2681 H2722 0.930 . S
C2682 C2680 1.358 . S
C2682 N2683 1.279 . S
C2682 H2723 0.930 . S
N2683 C2681 1.314 . S
N2683 C2682 1.279 . S
C2684 C2686 1.353 . S
C2684 N2687 1.314 . S
C2684 H2690 0.930 . S
C2685 N2687 1.279 . S
C2685 C2688 1.358 . S
C2685 H2691 0.930 . S
C2686 C2684 1.353 . S
C2686 C2689 1.348 . S
C2686 H2724 0.929 . S
N2687 Li2642 1.990 . S
N2687 C2684 1.314 . S
N2687 C2685 1.279 . S
C2688 C2685 1.358 . S
C2688 C2689 1.356 . S
C2688 H2725 0.930 . S
C2689 C2686 1.348 . S
C2689 C2688 1.356 . S
H2690 C2684 0.930 . S
H2691 C2685 0.930 . S
C2692 N2693 1.314 . S
C2692 C2694 1.353 . S
C2692 H2698 0.930 . S
N2693 Li2643 1.990 . S
N2693 C2692 1.314 . S
N2693 C2696 1.279 . S
C2694 C2692 1.353 . S
C2694 C2697 1.348 . S
C2694 H2726 0.929 . S
C2695 C2696 1.358 . S
C2695 C2697 1.356 . S
C2695 H2727 0.930 . S
C2696 N2693 1.279 . S
C2696 C2695 1.358 . S
C2696 H2699 0.930 . S
C2697 C2694 1.348 . S
C2697 C2695 1.356 . S
H2698 C2692 0.930 . S
H2699 C2696 0.930 . S
O2700 Li2640 1.956 . S
O2700 Li2641 1.970 . S
O2700 Li2642 1.961 . S
O2700 C2644 1.325 . S
O2701 Li2640 1.970 . S
O2701 Li2641 1.956 . S
O2701 Li2643 1.961 . S
O2701 C2650 1.325 . S
O2702 Li2640 1.961 . S
O2702 Li2642 1.956 . S
O2702 Li2643 1.970 . S
O2702 C2672 1.325 . S
O2703 Li2641 1.961 . S
O2703 Li2642 1.970 . S
O2703 Li2643 1.956 . S
O2703 C2678 1.325 . S
H2704 C2646 0.929 . S
H2705 C2647 0.930 . S
H2706 C2648 0.930 . S
H2707 C2649 0.930 . S
H2708 C2651 0.930 . S
H2709 C2653 0.929 . S
H2710 C2654 0.930 . S
H2711 C2655 0.930 . S
H2712 C2658 0.930 . S
H2713 C2661 0.929 . S
H2714 C2666 0.929 . S
H2715 C2667 0.930 . S
H2716 C2674 0.929 . S
H2717 C2675 0.930 . S
H2718 C2676 0.930 . S
H2719 C2677 0.930 . S
H2720 C2679 0.929 . S
H2721 C2680 0.930 . S
H2722 C2681 0.930 . S
H2723 C2682 0.930 . S
H2724 C2686 0.929 . S
H2725 C2688 0.930 . S
H2726 C2694 0.929 . S
H2727 C2695 0.930 . S
Li2728 N2745 1.990 . S
Li2728 O2788 1.956 . S
Li2728 O2789 1.970 . S
Li2728 O2790 1.961 . S
Li2729 N2753 1.990 . S
Li2729 O2788 1.970 . S
Li2729 O2789 1.956 . S
Li2729 O2791 1.961 . S
Li2730 N2775 1.990 . S
Li2730 O2788 1.961 . S
Li2730 O2790 1.956 . S
Li2730 O2791 1.970 . S
Li2731 N2781 1.990 . S
Li2731 O2789 1.961 . S
Li2731 O2790 1.970 . S
Li2731 O2791 1.956 . S
C2732 C2734 1.348 . S
C2732 C2735 1.356 . S
C2732 O2788 1.325 . S
N2733 C2736 1.314 . S
N2733 C2737 1.279 . S
C2734 C2732 1.348 . S
C2734 C2736 1.353 . S
C2734 H2792 0.929 . S
C2735 C2732 1.356 . S
C2735 C2737 1.358 . S
C2735 H2793 0.930 . S
C2736 N2733 1.314 . S
C2736 C2734 1.353 . S
C2736 H2794 0.930 . S
C2737 N2733 1.279 . S
C2737 C2735 1.358 . S
C2737 H2795 0.930 . S
C2738 C2741 1.348 . S
C2738 C2742 1.356 . S
C2738 O2789 1.325 . S
C2739 N2740 1.279 . S
C2739 C2742 1.358 . S
C2739 H2796 0.930 . S
N2740 C2739 1.279 . S
N2740 C2743 1.314 . S
C2741 C2738 1.348 . S
C2741 C2743 1.353 . S
C2741 H2797 0.929 . S
C2742 C2738 1.356 . S
C2742 C2739 1.358 . S
C2742 H2798 0.930 . S
C2743 N2740 1.314 . S
C2743 C2741 1.353 . S
C2743 H2799 0.930 . S
C2744 N2745 1.314 . S
C2744 C2749 1.353 . S
C2744 H2750 0.930 . S
N2745 Li2728 1.990 . S
N2745 C2744 1.314 . S
N2745 C2747 1.279 . S
C2746 C2747 1.358 . S
C2746 C2748 1.356 . S
C2746 H2800 0.930 . S
C2747 N2745 1.279 . S
C2747 C2746 1.358 . S
C2747 H2751 0.930 . S
C2748 C2746 1.356 . S
C2748 C2749 1.348 . S
C2749 C2744 1.353 . S
C2749 C2748 1.348 . S
C2749 H2801 0.929 . S
H2750 C2744 0.930 . S
H2751 C2747 0.930 . S
C2752 N2753 1.314 . S
C2752 C2754 1.353 . S
C2752 H2758 0.930 . S
N2753 Li2729 1.990 . S
N2753 C2752 1.314 . S
N2753 C2756 1.279 . S
C2754 C2752 1.353 . S
C2754 C2757 1.348 . S
C2754 H2802 0.929 . S
C2755 C2756 1.358 . S
C2755 C2757 1.356 . S
C2755 H2803 0.930 . S
C2756 N2753 1.279 . S
C2756 C2755 1.358 . S
C2756 H2759 0.930 . S
C2757 C2754 1.348 . S
C2757 C2755 1.356 . S
H2758 C2752 0.930 . S
H2759 C2756 0.930 . S
C2760 C2762 1.348 . S
C2760 C2763 1.356 . S
C2760 O2790 1.325 . S
N2761 C2764 1.314 . S
N2761 C2765 1.279 . S
C2762 C2760 1.348 . S
C2762 C2764 1.353 . S
C2762 H2804 0.929 . S
C2763 C2760 1.356 . S
C2763 C2765 1.358 . S
C2763 H2805 0.930 . S
C2764 N2761 1.314 . S
C2764 C2762 1.353 . S
C2764 H2806 0.930 . S
C2765 N2761 1.279 . S
C2765 C2763 1.358 . S
C2765 H2807 0.930 . S
C2766 C2767 1.348 . S
C2766 C2768 1.356 . S
C2766 O2791 1.325 . S
C2767 C2766 1.348 . S
C2767 C2769 1.353 . S
C2767 H2808 0.929 . S
C2768 C2766 1.356 . S
C2768 C2770 1.358 . S
C2768 H2809 0.930 . S
C2769 C2767 1.353 . S
C2769 N2771 1.314 . S
C2769 H2810 0.930 . S
C2770 C2768 1.358 . S
C2770 N2771 1.279 . S
C2770 H2811 0.930 . S
N2771 C2769 1.314 . S
N2771 C2770 1.279 . S
C2772 C2774 1.353 . S
C2772 N2775 1.314 . S
C2772 H2778 0.930 . S
C2773 N2775 1.279 . S
C2773 C2776 1.358 . S
C2773 H2779 0.930 . S
C2774 C2772 1.353 . S
C2774 C2777 1.348 . S
C2774 H2812 0.929 . S
N2775 Li2730 1.990 . S
N2775 C2772 1.314 . S
N2775 C2773 1.279 . S
C2776 C2773 1.358 . S
C2776 C2777 1.356 . S
C2776 H2813 0.930 . S
C2777 C2774 1.348 . S
C2777 C2776 1.356 . S
H2778 C2772 0.930 . S
H2779 C2773 0.930 . S
C2780 N2781 1.314 . S
C2780 C2782 1.353 . S
C2780 H2786 0.930 . S
N2781 Li2731 1.990 . S
N2781 C2780 1.314 . S
N2781 C2784 1.279 . S
C2782 C2780 1.353 . S
C2782 C2785 1.348 . S
C2782 H2814 0.929 . S
C2783 C2784 1.358 . S
C2783 C2785 1.356 . S
C2783 H2815 0.930 . S
C2784 N2781 1.279 . S
C2784 C2783 1.358 . S
C2784 H2787 0.930 . S
C2785 C2782 1.348 . S
C2785 C2783 1.356 . S
H2786 C2780 0.930 . S
H2787 C2784 0.930 . S
O2788 Li2728 1.956 . S
O2788 Li2729 1.970 . S
O2788 Li2730 1.961 . S
O2788 C2732 1.325 . S
O2789 Li2728 1.970 . S
O2789 Li2729 1.956 . S
O2789 Li2731 1.961 . S
O2789 C2738 1.325 . S
O2790 Li2728 1.961 . S
O2790 Li2730 1.956 . S
O2790 Li2731 1.970 . S
O2790 C2760 1.325 . S
O2791 Li2729 1.961 . S
O2791 Li2730 1.970 . S
O2791 Li2731 1.956 . S
O2791 C2766 1.325 . S
H2792 C2734 0.929 . S
H2793 C2735 0.930 . S
H2794 C2736 0.930 . S
H2795 C2737 0.930 . S
H2796 C2739 0.930 . S
H2797 C2741 0.929 . S
H2798 C2742 0.930 . S
H2799 C2743 0.930 . S
H2800 C2746 0.930 . S
H2801 C2749 0.929 . S
H2802 C2754 0.929 . S
H2803 C2755 0.930 . S
H2804 C2762 0.929 . S
H2805 C2763 0.930 . S
H2806 C2764 0.930 . S
H2807 C2765 0.930 . S
H2808 C2767 0.929 . S
H2809 C2768 0.930 . S
H2810 C2769 0.930 . S
H2811 C2770 0.930 . S
H2812 C2774 0.929 . S
H2813 C2776 0.930 . S
H2814 C2782 0.929 . S
H2815 C2783 0.930 . S
C2816 C2817 1.387 . S
C2816 H2820 0.950 . S
C2816 C2825 1.390 . S
C2817 C2816 1.387 . S
C2817 C2819 1.387 . S
H2818 C2825 0.950 . S
C2819 C2817 1.387 . S
C2819 C2821 1.390 . S
C2819 H2823 0.950 . S
H2820 C2816 0.950 . S
C2821 C2819 1.390 . S
C2821 C2822 1.387 . S
C2821 H2824 0.950 . S
C2822 C2821 1.387 . S
C2822 C2825 1.387 . S
H2823 C2819 0.950 . S
H2824 C2821 0.950 . S
C2825 C2816 1.390 . S
C2825 H2818 0.950 . S
C2825 C2822 1.387 . S
C2826 C2827 1.387 . S
C2826 H2830 0.950 . S
C2826 C2835 1.390 . S
C2827 C2826 1.387 . S
C2827 C2829 1.387 . S
H2828 C2835 0.950 . S
C2829 C2827 1.387 . S
C2829 C2831 1.390 . S
C2829 H2833 0.950 . S
H2830 C2826 0.950 . S
C2831 C2829 1.390 . S
C2831 C2832 1.387 . S
C2831 H2834 0.950 . S
C2832 C2831 1.387 . S
C2832 C2835 1.387 . S
H2833 C2829 0.950 . S
H2834 C2831 0.950 . S
C2835 C2826 1.390 . S
C2835 H2828 0.950 . S
C2835 C2832 1.387 . S
C2836 C2837 1.387 . S
C2836 H2840 0.950 . S
C2836 C2845 1.390 . S
C2837 C2836 1.387 . S
C2837 C2839 1.387 . S
H2838 C2845 0.950 . S
C2839 C2837 1.387 . S
C2839 C2841 1.390 . S
C2839 H2843 0.950 . S
H2840 C2836 0.950 . S
C2841 C2839 1.390 . S
C2841 C2842 1.387 . S
C2841 H2844 0.950 . S
C2842 C2841 1.387 . S
C2842 C2845 1.387 . S
H2843 C2839 0.950 . S
H2844 C2841 0.950 . S
C2845 C2836 1.390 . S
C2845 H2838 0.950 . S
C2845 C2842 1.387 . S
C2846 C2847 1.387 . S
C2846 H2850 0.950 . S
C2846 C2855 1.390 . S
C2847 C2846 1.387 . S
C2847 C2849 1.387 . S
H2848 C2855 0.950 . S
C2849 C2847 1.387 . S
C2849 C2851 1.390 . S
C2849 H2853 0.950 . S
H2850 C2846 0.950 . S
C2851 C2849 1.390 . S
C2851 C2852 1.387 . S
C2851 H2854 0.950 . S
C2852 C2851 1.387 . S
C2852 C2855 1.387 . S
H2853 C2849 0.950 . S
H2854 C2851 0.950 . S
C2855 C2846 1.390 . S
C2855 H2848 0.950 . S
C2855 C2852 1.387 . S
C2856 C2857 1.387 . S
C2856 H2860 0.950 . S
C2856 C2865 1.390 . S
C2857 C2856 1.387 . S
C2857 C2859 1.387 . S
H2858 C2865 0.950 . S
C2859 C2857 1.387 . S
C2859 C2861 1.390 . S
C2859 H2863 0.950 . S
H2860 C2856 0.950 . S
C2861 C2859 1.390 . S
C2861 C2862 1.387 . S
C2861 H2864 0.950 . S
C2862 C2861 1.387 . S
C2862 C2865 1.387 . S
H2863 C2859 0.950 . S
H2864 C2861 0.950 . S
C2865 C2856 1.390 . S
C2865 H2858 0.950 . S
C2865 C2862 1.387 . S
C2866 C2867 1.387 . S
C2866 H2870 0.950 . S
C2866 C2875 1.390 . S
C2867 C2866 1.387 . S
C2867 C2869 1.387 . S
H2868 C2875 0.950 . S
C2869 C2867 1.387 . S
C2869 C2871 1.390 . S
C2869 H2873 0.950 . S
H2870 C2866 0.950 . S
C2871 C2869 1.390 . S
C2871 C2872 1.387 . S
C2871 H2874 0.950 . S
C2872 C2871 1.387 . S
C2872 C2875 1.387 . S
H2873 C2869 0.950 . S
H2874 C2871 0.950 . S
C2875 C2866 1.390 . S
C2875 H2868 0.950 . S
C2875 C2872 1.387 . S
C2876 C2877 1.387 . S
C2876 H2880 0.950 . S
C2876 C2885 1.390 . S
C2877 C2876 1.387 . S
C2877 C2879 1.387 . S
H2878 C2885 0.950 . S
C2879 C2877 1.387 . S
C2879 C2881 1.390 . S
C2879 H2883 0.950 . S
H2880 C2876 0.950 . S
C2881 C2879 1.390 . S
C2881 C2882 1.387 . S
C2881 H2884 0.950 . S
C2882 C2881 1.387 . S
C2882 C2885 1.387 . S
H2883 C2879 0.950 . S
H2884 C2881 0.950 . S
C2885 C2876 1.390 . S
C2885 H2878 0.950 . S
C2885 C2882 1.387 . S
C2886 C2887 1.387 . S
C2886 H2890 0.950 . S
C2886 C2895 1.390 . S
C2887 C2886 1.387 . S
C2887 C2889 1.387 . S
H2888 C2895 0.950 . S
C2889 C2887 1.387 . S
C2889 C2891 1.390 . S
C2889 H2893 0.950 . S
H2890 C2886 0.950 . S
C2891 C2889 1.390 . S
C2891 C2892 1.387 . S
C2891 H2894 0.950 . S
C2892 C2891 1.387 . S
C2892 C2895 1.387 . S
H2893 C2889 0.950 . S
H2894 C2891 0.950 . S
C2895 C2886 1.390 . S
C2895 H2888 0.950 . S
C2895 C2892 1.387 . S
C2896 C2897 1.387 . S
C2896 H2900 0.950 . S
C2896 C2905 1.390 . S
C2897 C2896 1.387 . S
C2897 C2899 1.387 . S
H2898 C2905 0.950 . S
C2899 C2897 1.387 . S
C2899 C2901 1.390 . S
C2899 H2903 0.950 . S
H2900 C2896 0.950 . S
C2901 C2899 1.390 . S
C2901 C2902 1.387 . S
C2901 H2904 0.950 . S
C2902 C2901 1.387 . S
C2902 C2905 1.387 . S
H2903 C2899 0.950 . S
H2904 C2901 0.950 . S
C2905 C2896 1.390 . S
C2905 H2898 0.950 . S
C2905 C2902 1.387 . S
C2906 C2907 1.387 . S
C2906 H2910 0.950 . S
C2906 C2915 1.390 . S
C2907 C2906 1.387 . S
C2907 C2909 1.387 . S
H2908 C2915 0.950 . S
C2909 C2907 1.387 . S
C2909 C2911 1.390 . S
C2909 H2913 0.950 . S
H2910 C2906 0.950 . S
C2911 C2909 1.390 . S
C2911 C2912 1.387 . S
C2911 H2914 0.950 . S
C2912 C2911 1.387 . S
C2912 C2915 1.387 . S
H2913 C2909 0.950 . S
H2914 C2911 0.950 . S
C2915 C2906 1.390 . S
C2915 H2908 0.950 . S
C2915 C2912 1.387 . S
C2916 C2917 1.387 . S
C2916 H2920 0.950 . S
C2916 C2925 1.390 . S
C2917 C2916 1.387 . S
C2917 C2919 1.387 . S
H2918 C2925 0.950 . S
C2919 C2917 1.387 . S
C2919 C2921 1.390 . S
C2919 H2923 0.950 . S
H2920 C2916 0.950 . S
C2921 C2919 1.390 . S
C2921 C2922 1.387 . S
C2921 H2924 0.950 . S
C2922 C2921 1.387 . S
C2922 C2925 1.387 . S
H2923 C2919 0.950 . S
H2924 C2921 0.950 . S
C2925 C2916 1.390 . S
C2925 H2918 0.950 . S
C2925 C2922 1.387 . S
C2926 C2927 1.387 . S
C2926 H2930 0.950 . S
C2926 C2935 1.390 . S
C2927 C2926 1.387 . S
C2927 C2929 1.387 . S
H2928 C2935 0.950 . S
C2929 C2927 1.387 . S
C2929 C2931 1.390 . S
C2929 H2933 0.950 . S
H2930 C2926 0.950 . S
C2931 C2929 1.390 . S
C2931 C2932 1.387 . S
C2931 H2934 0.950 . S
C2932 C2931 1.387 . S
C2932 C2935 1.387 . S
H2933 C2929 0.950 . S
H2934 C2931 0.950 . S
C2935 C2926 1.390 . S
C2935 H2928 0.950 . S
C2935 C2932 1.387 . S
C2936 C2937 1.387 . S
C2936 H2940 0.950 . S
C2936 C2945 1.390 . S
C2937 C2936 1.387 . S
C2937 C2939 1.387 . S
H2938 C2945 0.950 . S
C2939 C2937 1.387 . S
C2939 C2941 1.390 . S
C2939 H2943 0.950 . S
H2940 C2936 0.950 . S
C2941 C2939 1.390 . S
C2941 C2942 1.387 . S
C2941 H2944 0.950 . S
C2942 C2941 1.387 . S
C2942 C2945 1.387 . S
H2943 C2939 0.950 . S
H2944 C2941 0.950 . S
C2945 C2936 1.390 . S
C2945 H2938 0.950 . S
C2945 C2942 1.387 . S
C2946 C2947 1.387 . S
C2946 H2950 0.950 . S
C2946 C2955 1.390 . S
C2947 C2946 1.387 . S
C2947 C2949 1.387 . S
H2948 C2955 0.950 . S
C2949 C2947 1.387 . S
C2949 C2951 1.390 . S
C2949 H2953 0.950 . S
H2950 C2946 0.950 . S
C2951 C2949 1.390 . S
C2951 C2952 1.387 . S
C2951 H2954 0.950 . S
C2952 C2951 1.387 . S
C2952 C2955 1.387 . S
H2953 C2949 0.950 . S
H2954 C2951 0.950 . S
C2955 C2946 1.390 . S
C2955 H2948 0.950 . S
C2955 C2952 1.387 . S
C2956 C2957 1.387 . S
C2956 H2960 0.950 . S
C2956 C2965 1.390 . S
C2957 C2956 1.387 . S
C2957 C2959 1.387 . S
H2958 C2965 0.950 . S
C2959 C2957 1.387 . S
C2959 C2961 1.390 . S
C2959 H2963 0.950 . S
H2960 C2956 0.950 . S
C2961 C2959 1.390 . S
C2961 C2962 1.387 . S
C2961 H2964 0.950 . S
C2962 C2961 1.387 . S
C2962 C2965 1.387 . S
H2963 C2959 0.950 . S
H2964 C2961 0.950 . S
C2965 C2956 1.390 . S
C2965 H2958 0.950 . S
C2965 C2962 1.387 . S
C2966 C2967 1.387 . S
C2966 H2970 0.950 . S
C2966 C2975 1.390 . S
C2967 C2966 1.387 . S
C2967 C2969 1.387 . S
H2968 C2975 0.950 . S
C2969 C2967 1.387 . S
C2969 C2971 1.390 . S
C2969 H2973 0.950 . S
H2970 C2966 0.950 . S
C2971 C2969 1.390 . S
C2971 C2972 1.387 . S
C2971 H2974 0.950 . S
C2972 C2971 1.387 . S
C2972 C2975 1.387 . S
H2973 C2969 0.950 . S
H2974 C2971 0.950 . S
C2975 C2966 1.390 . S
C2975 H2968 0.950 . S
C2975 C2972 1.387 . S
C2976 C2977 1.354 1_655 S
C2976 H2980 0.950 . S
C2976 C2985 1.390 . S
C2977 C2976 1.354 1_455 S
C2977 C2979 1.420 . S
H2978 C2985 0.950 . S
C2979 C2977 1.420 . S
C2979 C2981 1.390 . S
C2979 H2983 0.950 . S
H2980 C2976 0.950 . S
C2981 C2979 1.390 . S
C2981 C2982 1.353 1_455 S
C2981 H2984 0.950 . S
C2982 C2981 1.353 1_655 S
C2982 C2985 1.421 . S
H2983 C2979 0.950 . S
H2984 C2981 0.950 . S
C2985 C2976 1.390 . S
C2985 H2978 0.950 . S
C2985 C2982 1.421 . S
C2986 C2987 1.387 . S
C2986 H2990 0.950 . S
C2986 C2995 1.390 1_545 S
C2987 C2986 1.387 . S
C2987 C2989 1.387 . S
H2988 C2995 0.950 . S
C2989 C2987 1.387 . S
C2989 C2991 1.390 1_545 S
C2989 H2993 0.950 . S
H2990 C2986 0.950 . S
C2991 C2989 1.390 1_565 S
C2991 C2992 1.387 . S
C2991 H2994 0.950 . S
C2992 C2991 1.387 . S
C2992 C2995 1.387 . S
H2993 C2989 0.950 . S
H2994 C2991 0.950 . S
C2995 C2986 1.390 1_565 S
C2995 H2988 0.950 . S
C2995 C2992 1.387 . S
C2996 C2997 1.356 1_654 S
C2996 H3000 0.950 . S
C2996 C3005 1.389 1_545 S
C2997 C2996 1.356 1_456 S
C2997 C2999 1.419 . S
H2998 C3005 0.950 . S
C2999 C2997 1.419 . S
C2999 C3001 1.388 1_545 S
C2999 H3003 0.950 . S
H3000 C2996 0.950 . S
C3001 C2999 1.388 1_565 S
C3001 C3002 1.356 1_456 S
C3001 H3004 0.950 . S
C3002 C3001 1.356 1_654 S
C3002 C3005 1.420 . S
H3003 C2999 0.950 . S
H3004 C3001 0.950 . S
C3005 C2996 1.389 1_565 S
C3005 H2998 0.950 . S
C3005 C3002 1.420 . S
C3006 C3007 1.387 . S
C3006 H3010 0.950 . S
C3006 C3015 1.390 1_556 S
C3007 C3006 1.387 . S
C3007 C3009 1.387 . S
H3008 C3015 0.950 . S
C3009 C3007 1.387 . S
C3009 C3011 1.390 1_556 S
C3009 H3013 0.950 . S
H3010 C3006 0.950 . S
C3011 C3009 1.390 1_554 S
C3011 C3012 1.387 . S
C3011 H3014 0.950 . S
C3012 C3011 1.387 . S
C3012 C3015 1.387 . S
H3013 C3009 0.950 . S
H3014 C3011 0.950 . S
C3015 C3006 1.390 1_554 S
C3015 H3008 0.950 . S
C3015 C3012 1.387 . S
C3016 C3017 1.396 . S
C3016 H3020 0.950 . S
C3016 C3025 1.390 . S
C3017 C3016 1.396 . S
C3017 C3019 1.378 1_655 S
H3018 C3025 0.950 . S
C3019 C3017 1.378 1_455 S
C3019 C3021 1.390 . S
C3019 H3023 0.950 . S
H3020 C3016 0.950 . S
C3021 C3019 1.390 . S
C3021 C3022 1.396 . S
C3021 H3024 0.950 . S
C3022 C3021 1.396 . S
C3022 C3025 1.379 1_455 S
H3023 C3019 0.950 . S
H3024 C3021 0.950 . S
C3025 C3016 1.390 . S
C3025 H3018 0.950 . S
C3025 C3022 1.379 1_655 S
C3026 C3027 1.387 . S
C3026 H3030 0.950 . S
C3026 C3035 1.390 1_545 S
C3027 C3026 1.387 . S
C3027 C3029 1.387 . S
H3028 C3035 0.950 . S
C3029 C3027 1.387 . S
C3029 C3031 1.390 1_545 S
C3029 H3033 0.950 . S
H3030 C3026 0.950 . S
C3031 C3029 1.390 1_565 S
C3031 C3032 1.387 . S
C3031 H3034 0.950 . S
C3032 C3031 1.387 . S
C3032 C3035 1.387 . S
H3033 C3029 0.950 . S
H3034 C3031 0.950 . S
C3035 C3026 1.390 1_565 S
C3035 H3028 0.950 . S
C3035 C3032 1.387 . S
C3036 C3037 1.387 . S
C3036 H3040 0.950 . S
C3036 C3045 1.390 1_556 S
C3037 C3036 1.387 . S
C3037 C3039 1.387 . S
H3038 C3045 0.950 . S
C3039 C3037 1.387 . S
C3039 C3041 1.390 1_556 S
C3039 H3043 0.950 . S
H3040 C3036 0.950 . S
C3041 C3039 1.390 1_554 S
C3041 C3042 1.387 . S
C3041 H3044 0.950 . S
C3042 C3041 1.387 . S
C3042 C3045 1.387 . S
H3043 C3039 0.950 . S
H3044 C3041 0.950 . S
C3045 C3036 1.390 1_554 S
C3045 H3038 0.950 . S
C3045 C3042 1.387 . S
C3046 C3047 1.387 . S
C3046 H3050 0.950 . S
C3046 C3055 1.390 . S
C3047 C3046 1.387 . S
C3047 C3049 1.387 . S
H3048 C3055 0.950 . S
C3049 C3047 1.387 . S
C3049 C3051 1.390 . S
C3049 H3053 0.950 . S
H3050 C3046 0.950 . S
C3051 C3049 1.390 . S
C3051 C3052 1.387 . S
C3051 H3054 0.950 . S
C3052 C3051 1.387 . S
C3052 C3055 1.387 . S
H3053 C3049 0.950 . S
H3054 C3051 0.950 . S
C3055 C3046 1.390 . S
C3055 H3048 0.950 . S
C3055 C3052 1.387 . S
C3056 C3057 1.420 . S
C3056 H3060 0.950 . S
C3056 C3065 1.390 . S
C3057 C3056 1.420 . S
C3057 C3059 1.354 1_455 S
H3058 C3065 0.950 . S
C3059 C3057 1.354 1_655 S
C3059 C3061 1.390 . S
C3059 H3063 0.950 . S
H3060 C3056 0.950 . S
C3061 C3059 1.390 . S
C3061 C3062 1.421 . S
C3061 H3064 0.950 . S
C3062 C3061 1.421 . S
C3062 C3065 1.352 1_655 S
H3063 C3059 0.950 . S
H3064 C3061 0.950 . S
C3065 C3056 1.390 . S
C3065 H3058 0.950 . S
C3065 C3062 1.352 1_455 S
C3066 C3067 1.387 . S
C3066 H3070 0.950 . S
C3066 C3075 1.390 . S
C3067 C3066 1.387 . S
C3067 C3069 1.387 . S
H3068 C3075 0.950 . S
C3069 C3067 1.387 . S
C3069 C3071 1.390 . S
C3069 H3073 0.950 . S
H3070 C3066 0.950 . S
C3071 C3069 1.390 . S
C3071 C3072 1.387 . S
C3071 H3074 0.950 . S
C3072 C3071 1.387 . S
C3072 C3075 1.387 . S
H3073 C3069 0.950 . S
H3074 C3071 0.950 . S
C3075 C3066 1.390 . S
C3075 H3068 0.950 . S
C3075 C3072 1.387 . S
C3076 C3077 1.387 . S
C3076 H3080 0.950 . S
C3076 C3085 1.390 . S
C3077 C3076 1.387 . S
C3077 C3079 1.387 . S
H3078 C3085 0.950 . S
C3079 C3077 1.387 . S
C3079 C3081 1.390 . S
C3079 H3083 0.950 . S
H3080 C3076 0.950 . S
C3081 C3079 1.390 . S
C3081 C3082 1.387 . S
C3081 H3084 0.950 . S
C3082 C3081 1.387 . S
C3082 C3085 1.387 . S
H3083 C3079 0.950 . S
H3084 C3081 0.950 . S
C3085 C3076 1.390 . S
C3085 H3078 0.950 . S
C3085 C3082 1.387 . S
C3086 C3087 1.387 . S
C3086 H3090 0.950 . S
C3086 C3095 1.390 . S
C3087 C3086 1.387 . S
C3087 C3089 1.387 . S
H3088 C3095 0.950 . S
C3089 C3087 1.387 . S
C3089 C3091 1.390 . S
C3089 H3093 0.950 . S
H3090 C3086 0.950 . S
C3091 C3089 1.390 . S
C3091 C3092 1.387 . S
C3091 H3094 0.950 . S
C3092 C3091 1.387 . S
C3092 C3095 1.387 . S
H3093 C3089 0.950 . S
H3094 C3091 0.950 . S
C3095 C3086 1.390 . S
C3095 H3088 0.950 . S
C3095 C3092 1.387 . S
C3096 C3097 1.387 . S
C3096 H3100 0.950 . S
C3096 C3105 1.390 . S
C3097 C3096 1.387 . S
C3097 C3099 1.387 . S
H3098 C3105 0.950 . S
C3099 C3097 1.387 . S
C3099 C3101 1.390 . S
C3099 H3103 0.950 . S
H3100 C3096 0.950 . S
C3101 C3099 1.390 . S
C3101 C3102 1.387 . S
C3101 H3104 0.950 . S
C3102 C3101 1.387 . S
C3102 C3105 1.387 . S
H3103 C3099 0.950 . S
H3104 C3101 0.950 . S
C3105 C3096 1.390 . S
C3105 H3098 0.950 . S
C3105 C3102 1.387 . S
C3106 C3107 1.387 . S
C3106 H3110 0.950 . S
C3106 C3115 1.390 1_565 S
C3107 C3106 1.387 . S
C3107 C3109 1.387 . S
H3108 C3115 0.950 . S
C3109 C3107 1.387 . S
C3109 C3111 1.390 1_565 S
C3109 H3113 0.950 . S
H3110 C3106 0.950 . S
C3111 C3109 1.390 1_545 S
C3111 C3112 1.387 . S
C3111 H3114 0.950 . S
C3112 C3111 1.387 . S
C3112 C3115 1.387 . S
H3113 C3109 0.950 . S
H3114 C3111 0.950 . S
C3115 C3106 1.390 1_545 S
C3115 H3108 0.950 . S
C3115 C3112 1.387 . S
C3116 C3117 1.387 . S
C3116 H3120 0.950 . S
C3116 C3125 1.390 . S
C3117 C3116 1.387 . S
C3117 C3119 1.387 . S
H3118 C3125 0.950 . S
C3119 C3117 1.387 . S
C3119 C3121 1.390 . S
C3119 H3123 0.950 . S
H3120 C3116 0.950 . S
C3121 C3119 1.390 . S
C3121 C3122 1.387 . S
C3121 H3124 0.950 . S
C3122 C3121 1.387 . S
C3122 C3125 1.387 . S
H3123 C3119 0.950 . S
H3124 C3121 0.950 . S
C3125 C3116 1.390 . S
C3125 H3118 0.950 . S
C3125 C3122 1.387 . S
C3126 C3127 1.387 . S
C3126 H3130 0.950 . S
C3126 C3135 1.390 1_554 S
C3127 C3126 1.387 . S
C3127 C3129 1.387 . S
H3128 C3135 0.950 . S
C3129 C3127 1.387 . S
C3129 C3131 1.390 1_554 S
C3129 H3133 0.950 . S
H3130 C3126 0.950 . S
C3131 C3129 1.390 1_556 S
C3131 C3132 1.387 . S
C3131 H3134 0.950 . S
C3132 C3131 1.387 . S
C3132 C3135 1.387 . S
H3133 C3129 0.950 . S
H3134 C3131 0.950 . S
C3135 C3126 1.390 1_556 S
C3135 H3128 0.950 . S
C3135 C3132 1.387 . S
C3136 C3137 1.387 . S
C3136 H3140 0.950 . S
C3136 C3145 1.390 . S
C3137 C3136 1.387 . S
C3137 C3139 1.387 . S
H3138 C3145 0.950 . S
C3139 C3137 1.387 . S
C3139 C3141 1.390 . S
C3139 H3143 0.950 . S
H3140 C3136 0.950 . S
C3141 C3139 1.390 . S
C3141 C3142 1.387 . S
C3141 H3144 0.950 . S
C3142 C3141 1.387 . S
C3142 C3145 1.387 . S
H3143 C3139 0.950 . S
H3144 C3141 0.950 . S
C3145 C3136 1.390 . S
C3145 H3138 0.950 . S
C3145 C3142 1.387 . S
C3146 C3147 1.387 . S
C3146 H3150 0.950 . S
C3146 C3155 1.390 . S
C3147 C3146 1.387 . S
C3147 C3149 1.387 . S
H3148 C3155 0.950 . S
C3149 C3147 1.387 . S
C3149 C3151 1.390 . S
C3149 H3153 0.950 . S
H3150 C3146 0.950 . S
C3151 C3149 1.390 . S
C3151 C3152 1.387 . S
C3151 H3154 0.950 . S
C3152 C3151 1.387 . S
C3152 C3155 1.387 . S
H3153 C3149 0.950 . S
H3154 C3151 0.950 . S
C3155 C3146 1.390 . S
C3155 H3148 0.950 . S
C3155 C3152 1.387 . S
C3156 C3157 1.387 . S
C3156 H3160 0.950 . S
C3156 C3165 1.390 . S
C3157 C3156 1.387 . S
C3157 C3159 1.387 . S
H3158 C3165 0.950 . S
C3159 C3157 1.387 . S
C3159 C3161 1.390 . S
C3159 H3163 0.950 . S
H3160 C3156 0.950 . S
C3161 C3159 1.390 . S
C3161 C3162 1.387 . S
C3161 H3164 0.950 . S
C3162 C3161 1.387 . S
C3162 C3165 1.387 . S
H3163 C3159 0.950 . S
H3164 C3161 0.950 . S
C3165 C3156 1.390 . S
C3165 H3158 0.950 . S
C3165 C3162 1.387 . S
C3166 C3167 1.387 . S
C3166 H3170 0.950 . S
C3166 C3175 1.390 . S
C3167 C3166 1.387 . S
C3167 C3169 1.387 . S
H3168 C3175 0.950 . S
C3169 C3167 1.387 . S
C3169 C3171 1.390 . S
C3169 H3173 0.950 . S
H3170 C3166 0.950 . S
C3171 C3169 1.390 . S
C3171 C3172 1.387 . S
C3171 H3174 0.950 . S
C3172 C3171 1.387 . S
C3172 C3175 1.387 . S
H3173 C3169 0.950 . S
H3174 C3171 0.950 . S
C3175 C3166 1.390 . S
C3175 H3168 0.950 . S
C3175 C3172 1.387 . S
C3176 C3177 1.387 . S
C3176 H3180 0.950 . S
C3176 C3185 1.390 . S
C3177 C3176 1.387 . S
C3177 C3179 1.387 . S
H3178 C3185 0.950 . S
C3179 C3177 1.387 . S
C3179 C3181 1.390 . S
C3179 H3183 0.950 . S
H3180 C3176 0.950 . S
C3181 C3179 1.390 . S
C3181 C3182 1.387 . S
C3181 H3184 0.950 . S
C3182 C3181 1.387 . S
C3182 C3185 1.387 . S
H3183 C3179 0.950 . S
H3184 C3181 0.950 . S
C3185 C3176 1.390 . S
C3185 H3178 0.950 . S
C3185 C3182 1.387 . S
C3186 C3187 1.387 . S
C3186 H3190 0.950 . S
C3186 C3195 1.390 . S
C3187 C3186 1.387 . S
C3187 C3189 1.387 . S
H3188 C3195 0.950 . S
C3189 C3187 1.387 . S
C3189 C3191 1.390 . S
C3189 H3193 0.950 . S
H3190 C3186 0.950 . S
C3191 C3189 1.390 . S
C3191 C3192 1.387 . S
C3191 H3194 0.950 . S
C3192 C3191 1.387 . S
C3192 C3195 1.387 . S
H3193 C3189 0.950 . S
H3194 C3191 0.950 . S
C3195 C3186 1.390 . S
C3195 H3188 0.950 . S
C3195 C3192 1.387 . S
C3196 C3197 1.387 . S
C3196 H3200 0.950 . S
C3196 C3205 1.390 . S
C3197 C3196 1.387 . S
C3197 C3199 1.387 . S
H3198 C3205 0.950 . S
C3199 C3197 1.387 . S
C3199 C3201 1.390 . S
C3199 H3203 0.950 . S
H3200 C3196 0.950 . S
C3201 C3199 1.390 . S
C3201 C3202 1.387 . S
C3201 H3204 0.950 . S
C3202 C3201 1.387 . S
C3202 C3205 1.387 . S
H3203 C3199 0.950 . S
H3204 C3201 0.950 . S
C3205 C3196 1.390 . S
C3205 H3198 0.950 . S
C3205 C3202 1.387 . S
C3206 C3207 1.387 . S
C3206 H3210 0.950 . S
C3206 C3215 1.390 . S
C3207 C3206 1.387 . S
C3207 C3209 1.387 . S
H3208 C3215 0.950 . S
C3209 C3207 1.387 . S
C3209 C3211 1.390 . S
C3209 H3213 0.950 . S
H3210 C3206 0.950 . S
C3211 C3209 1.390 . S
C3211 C3212 1.387 . S
C3211 H3214 0.950 . S
C3212 C3211 1.387 . S
C3212 C3215 1.387 . S
H3213 C3209 0.950 . S
H3214 C3211 0.950 . S
C3215 C3206 1.390 . S
C3215 H3208 0.950 . S
C3215 C3212 1.387 . S
C3216 C3217 1.387 . S
C3216 H3220 0.950 . S
C3216 C3225 1.390 . S
C3217 C3216 1.387 . S
C3217 C3219 1.387 . S
H3218 C3225 0.950 . S
C3219 C3217 1.387 . S
C3219 C3221 1.390 . S
C3219 H3223 0.950 . S
H3220 C3216 0.950 . S
C3221 C3219 1.390 . S
C3221 C3222 1.387 . S
C3221 H3224 0.950 . S
C3222 C3221 1.387 . S
C3222 C3225 1.387 . S
H3223 C3219 0.950 . S
H3224 C3221 0.950 . S
C3225 C3216 1.390 . S
C3225 H3218 0.950 . S
C3225 C3222 1.387 . S
C3226 C3227 1.387 . S
C3226 H3230 0.950 . S
C3226 C3235 1.390 . S
C3227 C3226 1.387 . S
C3227 C3229 1.387 . S
H3228 C3235 0.950 . S
C3229 C3227 1.387 . S
C3229 C3231 1.390 . S
C3229 H3233 0.950 . S
H3230 C3226 0.950 . S
C3231 C3229 1.390 . S
C3231 C3232 1.387 . S
C3231 H3234 0.950 . S
C3232 C3231 1.387 . S
C3232 C3235 1.387 . S
H3233 C3229 0.950 . S
H3234 C3231 0.950 . S
C3235 C3226 1.390 . S
C3235 H3228 0.950 . S
C3235 C3232 1.387 . S
C3236 C3237 1.387 . S
C3236 H3240 0.950 . S
C3236 C3245 1.390 . S
C3237 C3236 1.387 . S
C3237 C3239 1.387 . S
H3238 C3245 0.950 . S
C3239 C3237 1.387 . S
C3239 C3241 1.390 . S
C3239 H3243 0.950 . S
H3240 C3236 0.950 . S
C3241 C3239 1.390 . S
C3241 C3242 1.387 . S
C3241 H3244 0.950 . S
C3242 C3241 1.387 . S
C3242 C3245 1.387 . S
H3243 C3239 0.950 . S
H3244 C3241 0.950 . S
C3245 C3236 1.390 . S
C3245 H3238 0.950 . S
C3245 C3242 1.387 . S
C3246 C3247 1.387 . S
C3246 H3250 0.950 . S
C3246 C3255 1.390 . S
C3247 C3246 1.387 . S
C3247 C3249 1.387 . S
H3248 C3255 0.950 . S
C3249 C3247 1.387 . S
C3249 C3251 1.390 . S
C3249 H3253 0.950 . S
H3250 C3246 0.950 . S
C3251 C3249 1.390 . S
C3251 C3252 1.387 . S
C3251 H3254 0.950 . S
C3252 C3251 1.387 . S
C3252 C3255 1.387 . S
H3253 C3249 0.950 . S
H3254 C3251 0.950 . S
C3255 C3246 1.390 . S
C3255 H3248 0.950 . S
C3255 C3252 1.387 . S
C3256 C3257 1.387 . S
C3256 H3260 0.950 . S
C3256 C3265 1.390 . S
C3257 C3256 1.387 . S
C3257 C3259 1.387 . S
H3258 C3265 0.950 . S
C3259 C3257 1.387 . S
C3259 C3261 1.390 . S
C3259 H3263 0.950 . S
H3260 C3256 0.950 . S
C3261 C3259 1.390 . S
C3261 C3262 1.387 . S
C3261 H3264 0.950 . S
C3262 C3261 1.387 . S
C3262 C3265 1.387 . S
H3263 C3259 0.950 . S
H3264 C3261 0.950 . S
C3265 C3256 1.390 . S
C3265 H3258 0.950 . S
C3265 C3262 1.387 . S
C3266 C3267 1.387 . S
C3266 H3270 0.950 . S
C3266 C3275 1.390 . S
C3267 C3266 1.387 . S
C3267 C3269 1.387 . S
H3268 C3275 0.950 . S
C3269 C3267 1.387 . S
C3269 C3271 1.390 . S
C3269 H3273 0.950 . S
H3270 C3266 0.950 . S
C3271 C3269 1.390 . S
C3271 C3272 1.387 . S
C3271 H3274 0.950 . S
C3272 C3271 1.387 . S
C3272 C3275 1.387 . S
H3273 C3269 0.950 . S
H3274 C3271 0.950 . S
C3275 C3266 1.390 . S
C3275 H3268 0.950 . S
C3275 C3272 1.387 . S
C3276 C3277 1.387 . S
C3276 H3280 0.950 . S
C3276 C3285 1.390 . S
C3277 C3276 1.387 . S
C3277 C3279 1.387 . S
H3278 C3285 0.950 . S
C3279 C3277 1.387 . S
C3279 C3281 1.390 . S
C3279 H3283 0.950 . S
H3280 C3276 0.950 . S
C3281 C3279 1.390 . S
C3281 C3282 1.387 . S
C3281 H3284 0.950 . S
C3282 C3281 1.387 . S
C3282 C3285 1.387 . S
H3283 C3279 0.950 . S
H3284 C3281 0.950 . S
C3285 C3276 1.390 . S
C3285 H3278 0.950 . S
C3285 C3282 1.387 . S
C3286 C3287 1.387 . S
C3286 H3290 0.950 . S
C3286 C3295 1.390 . S
C3287 C3286 1.387 . S
C3287 C3289 1.387 . S
H3288 C3295 0.950 . S
C3289 C3287 1.387 . S
C3289 C3291 1.390 . S
C3289 H3293 0.950 . S
H3290 C3286 0.950 . S
C3291 C3289 1.390 . S
C3291 C3292 1.387 . S
C3291 H3294 0.950 . S
C3292 C3291 1.387 . S
C3292 C3295 1.387 . S
H3293 C3289 0.950 . S
H3294 C3291 0.950 . S
C3295 C3286 1.390 . S
C3295 H3288 0.950 . S
C3295 C3292 1.387 . S
C3296 C3297 1.387 . S
C3296 H3300 0.950 . S
C3296 C3305 1.390 . S
C3297 C3296 1.387 . S
C3297 C3299 1.387 . S
H3298 C3305 0.950 . S
C3299 C3297 1.387 . S
C3299 C3301 1.390 . S
C3299 H3303 0.950 1_455 S
H3300 C3296 0.950 . S
C3301 C3299 1.390 . S
C3301 C3302 1.387 . S
C3301 H3304 0.950 1_455 S
C3302 C3301 1.387 . S
C3302 C3305 1.387 . S
H3303 C3299 0.950 1_655 S
H3304 C3301 0.950 1_655 S
C3305 C3296 1.390 . S
C3305 H3298 0.950 . S
C3305 C3302 1.387 . S
C3306 C3307 1.387 . S
C3306 H3310 0.950 . S
C3306 C3315 1.390 . S
C3307 C3306 1.387 . S
C3307 C3309 1.387 . S
H3308 C3315 0.950 . S
C3309 C3307 1.387 . S
C3309 C3311 1.390 . S
C3309 H3313 0.950 . S
H3310 C3306 0.950 . S
C3311 C3309 1.390 . S
C3311 C3312 1.387 . S
C3311 H3314 0.950 . S
C3312 C3311 1.387 . S
C3312 C3315 1.387 . S
H3313 C3309 0.950 . S
H3314 C3311 0.950 . S
C3315 C3306 1.390 . S
C3315 H3308 0.950 . S
C3315 C3312 1.387 . S
C3316 C3317 1.387 . S
C3316 H3320 0.950 . S
C3316 C3325 1.390 . S
C3317 C3316 1.387 . S
C3317 C3319 1.387 . S
H3318 C3325 0.950 . S
C3319 C3317 1.387 . S
C3319 C3321 1.390 . S
C3319 H3323 0.950 1_455 S
H3320 C3316 0.950 . S
C3321 C3319 1.390 . S
C3321 C3322 1.387 . S
C3321 H3324 0.950 1_455 S
C3322 C3321 1.387 . S
C3322 C3325 1.387 . S
H3323 C3319 0.950 1_655 S
H3324 C3321 0.950 1_655 S
C3325 C3316 1.390 . S
C3325 H3318 0.950 . S
C3325 C3322 1.387 . S
C3326 C3327 1.387 . S
C3326 H3330 0.950 . S
C3326 C3335 1.390 . S
C3327 C3326 1.387 . S
C3327 C3329 1.387 . S
H3328 C3335 0.950 . S
C3329 C3327 1.387 . S
C3329 C3331 1.390 . S
C3329 H3333 0.950 . S
H3330 C3326 0.950 . S
C3331 C3329 1.390 . S
C3331 C3332 1.387 . S
C3331 H3334 0.950 . S
C3332 C3331 1.387 . S
C3332 C3335 1.387 . S
H3333 C3329 0.950 . S
H3334 C3331 0.950 . S
C3335 C3326 1.390 . S
C3335 H3328 0.950 . S
C3335 C3332 1.387 . S
C3336 C3337 1.387 . S
C3336 H3340 0.950 1_655 S
C3336 C3345 1.390 . S
C3337 C3336 1.387 . S
C3337 C3339 1.387 . S
H3338 C3345 0.950 1_455 S
C3339 C3337 1.387 . S
C3339 C3341 1.390 . S
C3339 H3343 0.950 . S
H3340 C3336 0.950 1_455 S
C3341 C3339 1.390 . S
C3341 C3342 1.387 . S
C3341 H3344 0.950 . S
C3342 C3341 1.387 . S
C3342 C3345 1.387 . S
H3343 C3339 0.950 . S
H3344 C3341 0.950 . S
C3345 C3336 1.390 . S
C3345 H3338 0.950 1_655 S
C3345 C3342 1.387 . S
C3346 C3347 1.387 . S
C3346 H3350 0.950 . S
C3346 C3355 1.390 . S
C3347 C3346 1.387 . S
C3347 C3349 1.387 . S
H3348 C3355 0.950 . S
C3349 C3347 1.387 . S
C3349 C3351 1.390 . S
C3349 H3353 0.950 . S
H3350 C3346 0.950 . S
C3351 C3349 1.390 . S
C3351 C3352 1.387 . S
C3351 H3354 0.950 . S
C3352 C3351 1.387 . S
C3352 C3355 1.387 . S
H3353 C3349 0.950 . S
H3354 C3351 0.950 . S
C3355 C3346 1.390 . S
C3355 H3348 0.950 . S
C3355 C3352 1.387 . S
C3356 C3357 1.387 . S
C3356 H3360 0.950 . S
C3356 C3365 1.390 . S
C3357 C3356 1.387 . S
C3357 C3359 1.387 . S
H3358 C3365 0.950 . S
C3359 C3357 1.387 . S
C3359 C3361 1.390 . S
C3359 H3363 0.950 1_655 S
H3360 C3356 0.950 . S
C3361 C3359 1.390 . S
C3361 C3362 1.387 . S
C3361 H3364 0.950 1_655 S
C3362 C3361 1.387 . S
C3362 C3365 1.387 . S
H3363 C3359 0.950 1_455 S
H3364 C3361 0.950 1_455 S
C3365 C3356 1.390 . S
C3365 H3358 0.950 . S
C3365 C3362 1.387 . S
C3366 C3367 1.387 . S
C3366 H3370 0.950 . S
C3366 C3375 1.390 . S
C3367 C3366 1.387 . S
C3367 C3369 1.387 . S
H3368 C3375 0.950 . S
C3369 C3367 1.387 . S
C3369 C3371 1.390 . S
C3369 H3373 0.950 . S
H3370 C3366 0.950 . S
C3371 C3369 1.390 . S
C3371 C3372 1.387 . S
C3371 H3374 0.950 . S
C3372 C3371 1.387 . S
C3372 C3375 1.387 . S
H3373 C3369 0.950 . S
H3374 C3371 0.950 . S
C3375 C3366 1.390 . S
C3375 H3368 0.950 . S
C3375 C3372 1.387 . S
C3376 C3377 1.387 . S
C3376 H3380 0.950 . S
C3376 C3385 1.390 . S
C3377 C3376 1.387 . S
C3377 C3379 1.387 . S
H3378 C3385 0.950 . S
C3379 C3377 1.387 . S
C3379 C3381 1.390 . S
C3379 H3383 0.950 . S
H3380 C3376 0.950 . S
C3381 C3379 1.390 . S
C3381 C3382 1.387 . S
C3381 H3384 0.950 . S
C3382 C3381 1.387 . S
C3382 C3385 1.387 . S
H3383 C3379 0.950 . S
H3384 C3381 0.950 . S
C3385 C3376 1.390 . S
C3385 H3378 0.950 . S
C3385 C3382 1.387 . S
C3386 C3387 1.387 . S
C3386 H3390 0.950 . S
C3386 C3395 1.390 . S
C3387 C3386 1.387 . S
C3387 C3389 1.387 . S
H3388 C3395 0.950 . S
C3389 C3387 1.387 . S
C3389 C3391 1.390 . S
C3389 H3393 0.950 . S
H3390 C3386 0.950 . S
C3391 C3389 1.390 . S
C3391 C3392 1.387 . S
C3391 H3394 0.950 . S
C3392 C3391 1.387 . S
C3392 C3395 1.387 . S
H3393 C3389 0.950 . S
H3394 C3391 0.950 . S
C3395 C3386 1.390 . S
C3395 H3388 0.950 . S
C3395 C3392 1.387 . S
C3396 C3397 1.387 . S
C3396 H3400 0.950 . S
C3396 C3405 1.390 . S
C3397 C3396 1.387 . S
C3397 C3399 1.387 . S
H3398 C3405 0.950 . S
C3399 C3397 1.387 . S
C3399 C3401 1.390 . S
C3399 H3403 0.950 . S
H3400 C3396 0.950 . S
C3401 C3399 1.390 . S
C3401 C3402 1.387 . S
C3401 H3404 0.950 . S
C3402 C3401 1.387 . S
C3402 C3405 1.387 . S
H3403 C3399 0.950 . S
H3404 C3401 0.950 . S
C3405 C3396 1.390 . S
C3405 H3398 0.950 . S
C3405 C3402 1.387 . S
C3406 C3407 1.387 . S
C3406 H3410 0.950 . S
C3406 C3415 1.390 . S
C3407 C3406 1.387 . S
C3407 C3409 1.387 . S
H3408 C3415 0.950 . S
C3409 C3407 1.387 . S
C3409 C3411 1.390 . S
C3409 H3413 0.950 . S
H3410 C3406 0.950 . S
C3411 C3409 1.390 . S
C3411 C3412 1.387 . S
C3411 H3414 0.950 . S
C3412 C3411 1.387 . S
C3412 C3415 1.387 . S
H3413 C3409 0.950 . S
H3414 C3411 0.950 . S
C3415 C3406 1.390 . S
C3415 H3408 0.950 . S
C3415 C3412 1.387 . S
C3416 C3417 1.387 . S
C3416 H3420 0.950 . S
C3416 C3425 1.390 . S
C3417 C3416 1.387 . S
C3417 C3419 1.387 . S
H3418 C3425 0.950 . S
C3419 C3417 1.387 . S
C3419 C3421 1.390 . S
C3419 H3423 0.950 . S
H3420 C3416 0.950 . S
C3421 C3419 1.390 . S
C3421 C3422 1.387 . S
C3421 H3424 0.950 . S
C3422 C3421 1.387 . S
C3422 C3425 1.387 . S
H3423 C3419 0.950 . S
H3424 C3421 0.950 . S
C3425 C3416 1.390 . S
C3425 H3418 0.950 . S
C3425 C3422 1.387 . S
C3426 C3427 1.387 . S
C3426 H3430 0.950 . S
C3426 C3435 1.390 . S
C3427 C3426 1.387 . S
C3427 C3429 1.387 . S
H3428 C3435 0.950 . S
C3429 C3427 1.387 . S
C3429 C3431 1.390 . S
C3429 H3433 0.950 . S
H3430 C3426 0.950 . S
C3431 C3429 1.390 . S
C3431 C3432 1.387 . S
C3431 H3434 0.950 . S
C3432 C3431 1.387 . S
C3432 C3435 1.387 . S
H3433 C3429 0.950 . S
H3434 C3431 0.950 . S
C3435 C3426 1.390 . S
C3435 H3428 0.950 . S
C3435 C3432 1.387 . S
C3436 C3437 1.387 . S
C3436 H3440 0.950 . S
C3436 C3445 1.390 . S
C3437 C3436 1.387 . S
C3437 C3439 1.387 . S
H3438 C3445 0.950 . S
C3439 C3437 1.387 . S
C3439 C3441 1.390 . S
C3439 H3443 0.950 . S
H3440 C3436 0.950 . S
C3441 C3439 1.390 . S
C3441 C3442 1.387 . S
C3441 H3444 0.950 . S
C3442 C3441 1.387 . S
C3442 C3445 1.387 . S
H3443 C3439 0.950 . S
H3444 C3441 0.950 . S
C3445 C3436 1.390 . S
C3445 H3438 0.950 . S
C3445 C3442 1.387 . S
C3446 C3447 1.387 . S
C3446 H3450 0.950 . S
C3446 C3455 1.390 . S
C3447 C3446 1.387 . S
C3447 C3449 1.387 . S
H3448 C3455 0.950 . S
C3449 C3447 1.387 . S
C3449 C3451 1.390 . S
C3449 H3453 0.950 . S
H3450 C3446 0.950 . S
C3451 C3449 1.390 . S
C3451 C3452 1.387 . S
C3451 H3454 0.950 . S
C3452 C3451 1.387 . S
C3452 C3455 1.387 . S
H3453 C3449 0.950 . S
H3454 C3451 0.950 . S
C3455 C3446 1.390 . S
C3455 H3448 0.950 . S
C3455 C3452 1.387 . S
C2817 C49 1.559 . S
C2822 C108 1.559 . S
C2827 C321 1.558 . S
C2832 C196 1.558 . S
C2837 C409 1.559 . S
C2842 C460 1.559 . S
C2847 C548 1.559 . S
C2852 C665 1.558 . S
C2857 C753 1.559 . S
C2862 C812 1.559 . S
C2867 C909 1.558 . S
C2872 C1017 1.558 . S
C2877 C1105 1.558 . S
C2882 C1164 1.558 . S
C2887 C1252 1.558 . S
C2892 C1369 1.558 . S
C2897 C1516 1.558 . S
C2902 C1457 1.558 . S
C2907 C1721 1.559 . S
C2912 C1613 1.559 . S
C2917 C1868 1.558 . S
C2922 C1817 1.558 . S
C2927 C2073 1.558 . S
C2932 C1956 1.558 . S
C2937 C2220 1.559 . S
C2942 C2169 1.559 . S
C2947 C2433 1.559 . S
C2952 C2317 1.559 . S
C2957 C2572 1.558 . S
C2962 C2513 1.558 . S
C2967 C2777 1.558 . S
C2972 C2660 1.558 . S
C2977 C20 1.766 . S
C2982 C1076 1.778 . S
C2987 C137 1.756 . S
C2992 C1897 1.768 . S
C2997 C225 1.766 . S
C3002 C577 1.778 . S
C3007 C293 1.756 . S
C3012 C2748 1.768 . S
C3017 C381 1.777 . S
C3022 C724 1.765 . S
C3027 C1545 1.753 . S
C3032 C489 1.764 . S
C3037 C2405 1.756 . S
C3042 C636 1.768 . S
C3047 C841 1.753 . S
C3052 C2601 1.765 . S
C3057 C937 1.763 . S
C3062 C1281 1.775 . S
C3067 C988 1.752 . S
C3072 C2044 1.764 . S
C3077 C1193 1.768 . S
C3082 C2249 1.756 . S
C3087 C1340 1.768 . S
C3092 C1692 1.756 . S
C3097 C2484 1.764 . S
C3102 C1428 1.753 . S
C3107 C1985 1.768 . S
C3112 C1641 1.756 . S
C3117 C1789 1.764 . S
C3122 C2141 1.753 . S
C3127 C2689 1.765 . S
C3132 C2345 1.753 . S
C3137 C929 0.843 . S
C3142 C29 0.843 . S
C3147 C997 0.843 . S
C3152 C145 0.843 . S
C3157 C233 0.846 . S
C3162 C733 0.846 . S
C3167 C849 0.846 . S
C3172 C284 0.846 . S
C3177 C401 0.840 . S
C3182 C1261 0.840 . S
C3187 C469 0.838 . S
C3192 C1377 0.838 . S
C3197 C1113 0.838 . S
C3202 C557 0.838 . S
C3207 C1173 0.840 . S
C3212 C673 0.840 . S
C3217 C1437 0.843 . S
C3222 C2337 0.843 . S
C3227 C2396 0.844 . S
C3232 C1553 0.844 . S
C3237 C2132 0.843 . S
C3242 C1633 0.843 . S
C3247 C1701 0.844 . S
C3252 C2257 0.844 . S
C3257 C2669 0.838 . S
C3262 C1809 0.838 . S
C3267 C1877 0.840 . S
C3272 C2785 0.840 . S
C3277 C2521 0.838 . S
C3282 C1965 0.838 . S
C3287 C2581 0.840 . S
C3292 C2081 0.840 . S
C3297 C900 1.759 . S
C3302 C57 1.759 . S
C3307 C1025 1.756 . S
C3312 C117 1.756 . S
C3317 C761 1.759 . S
C3322 C205 1.759 . S
C3327 C313 1.759 . S
C3332 C821 1.759 . S
C3337 C1289 1.762 . S
C3342 C372 1.762 . S
C3347 C1349 1.762 . S
C3352 C497 1.762 . S
C3357 C1085 1.760 . S
C3362 C585 1.760 . S
C3367 C1201 1.760 . S
C3372 C645 1.760 . S
C3377 C2308 1.756 . S
C3382 C1465 1.756 . S
C3387 C2425 1.758 . S
C3392 C1525 1.758 . S
C3397 C2161 1.756 . S
C3402 C1604 1.756 . S
C3407 C1729 1.758 . S
C3412 C2229 1.758 . S
C3417 C2697 1.760 . S
C3422 C1780 1.760 . S
C3427 C1905 1.762 . S
C3432 C2757 1.762 . S
C3437 C2493 1.762 . S
C3442 C1993 1.762 . S
C3447 C2053 1.762 . S
C3452 C2609 1.762 . S
