# Generated by pormake.
# Topology wgb, (5)-cn, num edge types: 1
# Building blocks:
#     Node 0, Type 0, BuildingBlock: XOMCOT_clean_sbu_0, # of connection points: 5
#     Node 1, Type 0, BuildingBlock: XOMCOT_clean_sbu_0, # of connection points: 5
#     Node 2, Type 0, BuildingBlock: XOMCOT_clean_sbu_0, # of connection points: 5
#     Node 3, Type 0, BuildingBlock: XOMCOT_clean_sbu_0, # of connection points: 5
#     Node 4, Type 0, BuildingBlock: XOMCOT_clean_sbu_0, # of connection points: 5
#     Node 5, Type 0, BuildingBlock: XOMCOT_clean_sbu_0, # of connection points: 5
#     Node 6, Type 0, BuildingBlock: XOMCOT_clean_sbu_0, # of connection points: 5
#     Node 7, Type 0, BuildingBlock: XOMCOT_clean_sbu_0, # of connection points: 5
#     Node 8, Type 0, BuildingBlock: XOMCOT_clean_sbu_0, # of connection points: 5
#     Node 9, Type 0, BuildingBlock: XOMCOT_clean_sbu_0, # of connection points: 5
#     Node 10, Type 0, BuildingBlock: XOMCOT_clean_sbu_0, # of connection points: 5
#     Node 11, Type 0, BuildingBlock: XOMCOT_clean_sbu_0, # of connection points: 5
#     Node 12, Type 0, BuildingBlock: XOMCOT_clean_sbu_0, # of connection points: 5
#     Node 13, Type 0, BuildingBlock: XOMCOT_clean_sbu_0, # of connection points: 5
#     Node 14, Type 0, BuildingBlock: XOMCOT_clean_sbu_0, # of connection points: 5
#     Node 15, Type 0, BuildingBlock: XOMCOT_clean_sbu_0, # of connection points: 5
#     Edge 16, Type (0, 0), BuildingBlock: XIVTED_clean_linker_0, # of connection points: 2
#     Edge 17, Type (0, 0), BuildingBlock: XIVTED_clean_linker_0, # of connection points: 2
#     Edge 18, Type (0, 0), BuildingBlock: XIVTED_clean_linker_0, # of connection points: 2
#     Edge 19, Type (0, 0), BuildingBlock: XIVTED_clean_linker_0, # of connection points: 2
#     Edge 20, Type (0, 0), BuildingBlock: XIVTED_clean_linker_0, # of connection points: 2
#     Edge 21, Type (0, 0), BuildingBlock: XIVTED_clean_linker_0, # of connection points: 2
#     Edge 22, Type (0, 0), BuildingBlock: XIVTED_clean_linker_0, # of connection points: 2
#     Edge 23, Type (0, 0), BuildingBlock: XIVTED_clean_linker_0, # of connection points: 2
#     Edge 24, Type (0, 0), BuildingBlock: XIVTED_clean_linker_0, # of connection points: 2
#     Edge 25, Type (0, 0), BuildingBlock: XIVTED_clean_linker_0, # of connection points: 2
#     Edge 26, Type (0, 0), BuildingBlock: XIVTED_clean_linker_0, # of connection points: 2
#     Edge 27, Type (0, 0), BuildingBlock: XIVTED_clean_linker_0, # of connection points: 2
#     Edge 28, Type (0, 0), BuildingBlock: XIVTED_clean_linker_0, # of connection points: 2
#     Edge 29, Type (0, 0), BuildingBlock: XIVTED_clean_linker_0, # of connection points: 2
#     Edge 30, Type (0, 0), BuildingBlock: XIVTED_clean_linker_0, # of connection points: 2
#     Edge 31, Type (0, 0), BuildingBlock: XIVTED_clean_linker_0, # of connection points: 2
#     Edge 32, Type (0, 0), BuildingBlock: XIVTED_clean_linker_0, # of connection points: 2
#     Edge 33, Type (0, 0), BuildingBlock: XIVTED_clean_linker_0, # of connection points: 2
#     Edge 34, Type (0, 0), BuildingBlock: XIVTED_clean_linker_0, # of connection points: 2
#     Edge 35, Type (0, 0), BuildingBlock: XIVTED_clean_linker_0, # of connection points: 2
#     Edge 36, Type (0, 0), BuildingBlock: XIVTED_clean_linker_0, # of connection points: 2
#     Edge 37, Type (0, 0), BuildingBlock: XIVTED_clean_linker_0, # of connection points: 2
#     Edge 38, Type (0, 0), BuildingBlock: XIVTED_clean_linker_0, # of connection points: 2
#     Edge 39, Type (0, 0), BuildingBlock: XIVTED_clean_linker_0, # of connection points: 2
#     Edge 40, Type (0, 0), BuildingBlock: XIVTED_clean_linker_0, # of connection points: 2
#     Edge 41, Type (0, 0), BuildingBlock: XIVTED_clean_linker_0, # of connection points: 2
#     Edge 42, Type (0, 0), BuildingBlock: XIVTED_clean_linker_0, # of connection points: 2
#     Edge 43, Type (0, 0), BuildingBlock: XIVTED_clean_linker_0, # of connection points: 2
#     Edge 44, Type (0, 0), BuildingBlock: XIVTED_clean_linker_0, # of connection points: 2
#     Edge 45, Type (0, 0), BuildingBlock: XIVTED_clean_linker_0, # of connection points: 2
#     Edge 46, Type (0, 0), BuildingBlock: XIVTED_clean_linker_0, # of connection points: 2
#     Edge 47, Type (0, 0), BuildingBlock: XIVTED_clean_linker_0, # of connection points: 2
#     Edge 48, Type (0, 0), BuildingBlock: XIVTED_clean_linker_0, # of connection points: 2
#     Edge 49, Type (0, 0), BuildingBlock: XIVTED_clean_linker_0, # of connection points: 2
#     Edge 50, Type (0, 0), BuildingBlock: XIVTED_clean_linker_0, # of connection points: 2
#     Edge 51, Type (0, 0), BuildingBlock: XIVTED_clean_linker_0, # of connection points: 2
#     Edge 52, Type (0, 0), BuildingBlock: XIVTED_clean_linker_0, # of connection points: 2
#     Edge 53, Type (0, 0), BuildingBlock: XIVTED_clean_linker_0, # of connection points: 2
#     Edge 54, Type (0, 0), BuildingBlock: XIVTED_clean_linker_0, # of connection points: 2
#     Edge 55, Type (0, 0), BuildingBlock: XIVTED_clean_linker_0, # of connection points: 2
# Relax obj value: 0.087
# Max RMSD: 0.116
# Mean RMSD: 0.116
data_MOF--net-wgb--node1-XOMCOT_clean_sbu_0--edge1-XIVTED_clean_linker_0
_symmetry_space_group_name_H-M    P1
_symmetry_Int_Tables_number       1
_symmetry_cell_setting            triclinic
loop_
_symmetry_equiv_pos_as_xyz
'x, y, z'
_cell_length_a     57.921817
_cell_length_b     58.010121
_cell_length_c     27.651267
_cell_angle_alpha  90.071533
_cell_angle_beta   90.031951
_cell_angle_gamma 90.073477
loop_
_atom_site_label
_atom_site_type_symbol
_atom_site_fract_x
_atom_site_fract_y
_atom_site_fract_z
_atom_type_partial_charge
Co0 Co 0.33932 0.10374 0.18672 0.0
C1 C 0.33493 0.15396 0.17383 0.0
C2 C 0.32782 0.14361 0.24683 0.0
C3 C 0.326 0.16721 0.24398 0.0
N4 N 0.3333 0.13541 0.20281 0.0
N5 N 0.33046 0.17372 0.19801 0.0
H6 H 0.33935 0.15291 0.13594 0.0
H7 H 0.32573 0.13319 0.27894 0.0
C8 C 0.2992 0.07734 0.23233 0.0
O9 O 0.30055 0.06002 0.20187 0.0
N10 N 0.3458 0.07179 0.17147 0.0
C11 C 0.35002 0.06236 0.12778 0.0
C12 C 0.35548 0.03955 0.13381 0.0
C13 C 0.34946 0.05464 0.20358 0.0
N14 N 0.35499 0.03461 0.18144 0.0
C15 C 0.33197 0.11123 0.08512 0.0
C16 C 0.28435 0.10955 0.08624 0.0
C17 C 0.29562 0.11198 0.04161 0.0
C18 C 0.3198 0.11322 0.04167 0.0
C19 C 0.29721 0.10753 0.12888 0.0
N20 N 0.32081 0.10731 0.12786 0.0
H21 H 0.35057 0.11221 0.08407 0.0
H22 H 0.28789 0.10656 0.16244 0.0
H23 H 0.34992 0.07122 0.09365 0.0
H24 H 0.34774 0.0568 0.24228 0.0
O25 O 0.36979 0.11236 0.16279 0.0
O26 O 0.36154 0.10246 0.2381 0.0
O27 O 0.31206 0.09507 0.22779 0.0
C28 C 0.37688 0.10924 0.20704 0.0
H29 H 0.32224 0.17864 0.27388 0.0
H30 H 0.3601 0.02771 0.10515 0.0
H31 H 0.26568 0.10948 0.08842 0.0
H32 H 0.32939 0.1152 1.00833 0.0
Co33 Co 0.10512 0.66541 0.82766 0.0
C34 C 0.15619 0.6689 0.83821 0.0
C35 C 0.14399 0.68587 0.77422 0.0
C36 C 0.16751 0.68881 0.77706 0.0
N37 N 0.13678 0.67381 0.81307 0.0
N38 N 0.17511 0.6781 0.8172 0.0
H39 H 0.15657 0.65903 0.8713 0.0
H40 H 0.13303 0.69191 0.74531 0.0
C41 C 0.07526 0.70146 0.77651 0.0
O42 O 0.05627 0.69511 0.79863 0.0
N43 N 0.07357 0.6564 0.84201 0.0
C44 C 0.06333 0.65546 0.88574 0.0
C45 C 0.04124 0.64714 0.88012 0.0
C46 C 0.05776 0.64794 0.81063 0.0
N47 N 0.0377 0.64255 0.83285 0.0
C48 C 0.11793 0.67411 0.92665 0.0
C49 C 0.09662 0.71648 0.93576 0.0
C50 C 0.10809 0.70726 0.9758 0.0
C51 C 0.11908 0.68591 0.97082 0.0
C52 C 0.09628 0.7044 0.89208 0.0
N53 N 0.10674 0.68337 0.88768 0.0
H54 H 0.12572 0.65728 0.92419 0.0
H55 H 0.08713 0.71212 0.86264 0.0
H56 H 0.07121 0.66036 0.91963 0.0
H57 H 0.06078 0.64617 0.77219 0.0
O58 O 0.11525 0.63534 0.85059 0.0
O59 O 0.10573 0.64384 0.77509 0.0
O60 O 0.09484 0.69282 0.78785 0.0
C61 C 0.11263 0.62849 0.80599 0.0
H62 H 0.17829 0.69786 0.75132 0.0
H63 H 0.02861 0.64512 0.90862 0.0
H64 H 0.08798 0.73299 0.93813 0.0
H65 H 0.12791 0.67809 1.00119 0.0
Co66 Co 0.66631 0.90175 0.18633 0.0
C67 C 0.66816 0.85118 0.17364 0.0
C68 C 0.6786 0.8615 0.24496 0.0
C69 C 0.67976 0.83785 0.24194 0.0
N70 N 0.67146 0.86979 0.20208 0.0
N71 N 0.67318 0.83133 0.19706 0.0
H72 H 0.66183 0.85219 0.13691 0.0
H73 H 0.68256 0.87192 0.27635 0.0
C74 C 0.70587 0.9281 0.23322 0.0
O75 O 0.70318 0.94607 0.205 0.0
N76 N 0.66075 0.93407 0.17111 0.0
C77 C 0.66292 0.94495 0.12819 0.0
C78 C 0.65644 0.96757 0.13355 0.0
C79 C 0.65293 0.95045 0.20197 0.0
N80 N 0.65017 0.97103 0.17989 0.0
C81 C 0.67333 0.89393 0.08475 0.0
C82 C 0.72101 0.89435 0.08614 0.0
C83 C 0.70971 0.89219 0.04145 0.0
C84 C 0.68549 0.89156 0.04135 0.0
C85 C 0.7082 0.89675 0.12869 0.0
N86 N 0.68462 0.89751 0.12754 0.0
H87 H 0.65471 0.89385 0.08357 0.0
H88 H 0.71753 0.89773 0.16228 0.0
H89 H 0.66899 0.93746 0.09493 0.0
H90 H 0.64931 0.94738 0.2398 0.0
O91 O 0.63563 0.89399 0.16239 0.0
O92 O 0.64422 0.90363 0.23782 0.0
O93 O 0.6939 0.90983 0.22717 0.0
C94 C 0.62865 0.89752 0.20658 0.0
H95 H 0.68529 0.82643 0.27057 0.0
H96 H 0.65674 0.98058 0.10555 0.0
H97 H 0.73967 0.89401 0.08841 0.0
H98 H 0.67591 0.88992 1.0079 0.0
Co99 Co 0.90423 0.33994 0.8312 0.0
C100 C 0.85383 0.33597 0.84599 0.0
C101 C 0.86368 0.32836 0.77283 0.0
C102 C 0.84003 0.32674 0.77635 0.0
N103 N 0.87225 0.33408 0.81649 0.0
N104 N 0.8339 0.3315 0.82236 0.0
H105 H 0.85492 0.34106 0.88356 0.0
H106 H 0.87391 0.32581 0.74055 0.0
C107 C 0.93077 0.30076 0.78349 0.0
O108 O 0.94939 0.3044 0.80944 0.0
N109 N 0.93658 0.34619 0.84533 0.0
C110 C 0.94793 0.34388 0.88775 0.0
C111 C 0.97038 0.35092 0.88182 0.0
C112 C 0.95252 0.35462 0.81419 0.0
N113 N 0.97326 0.35766 0.83562 0.0
C114 C 0.89718 0.33385 0.93312 0.0
C115 C 0.89866 0.28624 0.93416 0.0
C116 C 0.89633 0.29804 0.97818 0.0
C117 C 0.89523 0.32217 0.97711 0.0
C118 C 0.90068 0.29858 0.89092 0.0
N119 N 0.90077 0.32216 0.89084 0.0
H120 H 0.89657 0.35243 0.93336 0.0
H121 H 0.90204 0.28889 0.85785 0.0
H122 H 0.9409 0.33728 0.92099 0.0
H123 H 0.94904 0.35843 0.7766 0.0
O124 O 0.89618 0.37069 0.85414 0.0
O125 O 0.90521 0.36157 0.77877 0.0
O126 O 0.91227 0.31215 0.7911 0.0
C127 C 0.89889 0.37727 0.80945 0.0
H128 H 0.82828 0.32227 0.74736 0.0
H129 H 0.98371 0.35064 0.90926 0.0
H130 H 0.89939 0.26759 0.9331 0.0
H131 H 0.89288 0.33202 0.01004 0.0
Co132 Co 0.34132 0.40381 0.08052 0.0
C133 C 0.33568 0.35374 0.09433 0.0
C134 C 0.32911 0.36393 0.02095 0.0
C135 C 0.3269 0.34035 0.02406 0.0
N136 N 0.33455 0.37221 0.06502 0.0
N137 N 0.33101 0.33404 0.07021 0.0
H138 H 0.3405 0.35461 0.13209 0.0
H139 H 0.32727 0.37428 0.98868 0.0
C140 C 0.30149 0.43062 0.03517 0.0
O141 O 0.30297 0.44778 0.06603 0.0
N142 N 0.34854 0.43569 0.0951 0.0
C143 C 0.35365 0.44504 0.13845 0.0
C144 C 0.35968 0.46769 0.132 0.0
C145 C 0.35222 0.45273 0.06269 0.0
N146 N 0.35866 0.47263 0.08439 0.0
C147 C 0.33384 0.39705 0.18217 0.0
C148 C 0.2862 0.39868 0.18089 0.0
C149 C 0.2975 0.39641 0.2255 0.0
C150 C 0.32166 0.39518 0.22557 0.0
C151 C 0.29908 0.40061 0.13824 0.0
N152 N 0.3227 0.40084 0.13935 0.0
H153 H 0.35241 0.39581 0.18329 0.0
H154 H 0.28978 0.40153 0.10463 0.0
H155 H 0.3539 0.43617 0.17258 0.0
H156 H 0.35002 0.45055 0.0241 0.0
O157 O 0.37148 0.39463 0.10493 0.0
O158 O 0.36367 0.40434 0.02928 0.0
O159 O 0.3143 0.41286 0.03923 0.0
C160 C 0.37873 0.39728 0.06069 0.0
H161 H 0.32258 0.32877 0.99469 0.0
H162 H 0.36513 0.47936 0.16035 0.0
H163 H 0.26754 0.39928 0.17889 0.0
H164 H 0.33114 0.39263 0.2589 0.0
Co165 Co 0.40632 0.66559 0.93709 0.0
C166 C 0.35573 0.66747 0.9218 0.0
C167 C 0.36569 0.68201 0.99025 0.0
C168 C 0.34221 0.68453 0.98489 0.0
N169 N 0.37415 0.67156 0.9505 0.0
N170 N 0.33603 0.67534 0.94201 0.0
H171 H 0.35682 0.65962 0.88633 0.0
H172 H 0.37588 0.6877 0.02079 0.0
C173 C 0.42802 0.69143 0.01377 0.0
O174 O 0.43809 0.67162 0.0225 0.0
N175 N 0.4389 0.66019 0.9239 0.0
C176 C 0.45331 0.67622 0.90535 0.0
C177 C 0.47571 0.66917 0.9118 0.0
C178 C 0.45295 0.64348 0.94132 0.0
N179 N 0.47541 0.64865 0.93428 0.0
C180 C 0.40932 0.67319 0.83536 0.0
C181 C 0.39587 0.71896 0.83687 0.0
C182 C 0.40231 0.70894 0.79265 0.0
C183 C 0.40888 0.68567 0.79221 0.0
C184 C 0.39681 0.70592 0.87934 0.0
N185 N 0.40388 0.68349 0.8782 0.0
H186 H 0.41462 0.65533 0.83475 0.0
H187 H 0.39195 0.71387 0.91319 0.0
H188 H 0.44805 0.69292 0.892 0.0
H189 H 0.44718 0.62909 0.96303 0.0
O190 O 0.39816 0.63513 0.91244 0.0
O191 O 0.4064 0.64357 0.98865 0.0
O192 O 0.41507 0.69345 0.97658 0.0
C193 C 0.40011 0.62823 0.95711 0.0
H194 H 0.33054 0.69252 0.01046 0.0
H195 H 0.49108 0.67918 0.90422 0.0
H196 H 0.39068 0.73687 0.83883 0.0
H197 H 0.41361 0.67715 0.75879 0.0
Co198 Co 0.66623 0.59935 0.08031 0.0
C199 C 0.6679 0.64993 0.09463 0.0
C200 C 0.67713 0.6401 0.0223 0.0
C201 C 0.67815 0.66373 0.02577 0.0
N202 N 0.67084 0.6315 0.0655 0.0
N203 N 0.67232 0.66995 0.07125 0.0
H204 H 0.66224 0.64869 0.13179 0.0
H205 H 0.6806 0.6299 0.99037 0.0
C206 C 0.70523 0.57401 0.02895 0.0
O207 O 0.7026 0.55532 0.05503 0.0
N208 N 0.66121 0.56685 0.09447 0.0
C209 C 0.66423 0.55555 0.13667 0.0
C210 C 0.65756 0.53297 0.13085 0.0
C211 C 0.65272 0.5508 0.06359 0.0
N212 N 0.65034 0.53 0.08494 0.0
C213 C 0.67438 0.60667 0.18164 0.0
C214 C 0.72204 0.60622 0.17876 0.0
C215 C 0.7111 0.60861 0.2238 0.0
C216 C 0.68689 0.60912 0.22461 0.0
C217 C 0.70887 0.60377 0.13655 0.0
N218 N 0.68528 0.60324 0.13838 0.0
H219 H 0.65579 0.60675 0.18356 0.0
H220 H 0.71794 0.60259 0.10268 0.0
H221 H 0.67092 0.56276 0.16972 0.0
H222 H 0.64828 0.55426 0.0263 0.0
O223 O 0.63593 0.60645 0.10658 0.0
O224 O 0.64317 0.59771 0.03013 0.0
O225 O 0.69341 0.59213 0.03751 0.0
C226 C 0.62814 0.60332 0.06288 0.0
H227 H 0.68307 0.67535 0.99699 0.0
H228 H 0.65831 0.51967 0.15822 0.0
H229 H 0.74068 0.60649 0.17594 0.0
H230 H 0.67754 0.61081 0.25832 0.0
Co231 Co 0.60253 0.33729 0.9372 0.0
C232 C 0.65297 0.33367 0.92494 0.0
C233 C 0.64255 0.32658 0.9979 0.0
C234 C 0.66624 0.32524 0.99529 0.0
N235 N 0.63433 0.33177 0.95376 0.0
N236 N 0.67283 0.32969 0.94934 0.0
H237 H 0.65191 0.33796 0.88699 0.0
H238 H 0.63207 0.32438 0.02994 0.0
C239 C 0.57671 0.29675 0.98136 0.0
O240 O 0.56253 0.29484 0.94449 0.0
N241 N 0.57045 0.34321 0.92142 0.0
C242 C 0.56147 0.34878 0.878 0.0
C243 C 0.53853 0.35394 0.88365 0.0
C244 C 0.55284 0.34566 0.9531 0.0
N245 N 0.53303 0.35195 0.93084 0.0
C246 C 0.60973 0.32914 0.83585 0.0
C247 C 0.60941 0.28159 0.83812 0.0
C248 C 0.61106 0.29263 0.79302 0.0
C249 C 0.61166 0.31679 0.79261 0.0
C250 C 0.6075 0.29467 0.88069 0.0
N251 N 0.60643 0.31821 0.87905 0.0
H252 H 0.61039 0.3477 0.83423 0.0
H253 H 0.60726 0.28567 0.91471 0.0
H254 H 0.57082 0.35016 0.84454 0.0
H255 H 0.55465 0.34311 0.99167 0.0
O256 O 0.61099 0.3675 0.91176 0.0
O257 O 0.60079 0.36017 0.98728 0.0
O258 O 0.59359 0.31087 0.98037 0.0
C259 C 0.60742 0.37518 0.95544 0.0
H260 H 0.67765 0.32181 0.02539 0.0
H261 H 0.52709 0.35974 0.85523 0.0
H262 H 0.60987 0.26297 0.84068 0.0
H263 H 0.61307 0.32626 0.75903 0.0
Co264 Co 0.84278 0.60216 0.68453 0.0
C265 C 0.84061 0.65273 0.67234 0.0
C266 C 0.83032 0.64213 0.74352 0.0
C267 C 0.8291 0.66578 0.74103 0.0
N268 N 0.8374 0.63403 0.70041 0.0
N269 N 0.83559 0.67246 0.69627 0.0
H270 H 0.84692 0.6519 0.63558 0.0
H271 H 0.8265 0.6316 0.77474 0.0
C272 C 0.80187 0.57637 0.72801 0.0
O273 O 0.80348 0.55923 0.69715 0.0
N274 N 0.84862 0.56998 0.66953 0.0
C275 C 0.85239 0.56037 0.62586 0.0
C276 C 0.85799 0.53759 0.63205 0.0
C277 C 0.85255 0.55291 0.70177 0.0
N278 N 0.858 0.53278 0.6798 0.0
C279 C 0.83653 0.61012 0.58272 0.0
C280 C 0.7889 0.60835 0.58118 0.0
C281 C 0.80073 0.61062 0.53718 0.0
C282 C 0.82489 0.612 0.53859 0.0
C283 C 0.80124 0.60644 0.62458 0.0
N284 N 0.82486 0.6062 0.62487 0.0
H285 H 0.85514 0.61111 0.58263 0.0
H286 H 0.7915 0.60533 0.65758 0.0
H287 H 0.85197 0.5691 0.59158 0.0
H288 H 0.85127 0.55526 0.74049 0.0
O289 O 0.87362 0.60995 0.66166 0.0
O290 O 0.86464 0.60025 0.73672 0.0
O291 O 0.81492 0.59404 0.72451 0.0
C292 C 0.8804 0.60636 0.70596 0.0
H293 H 0.82363 0.67709 0.76994 0.0
H294 H 0.86245 0.52574 0.60332 0.0
H295 H 0.77022 0.6076 0.58214 0.0
H296 H 0.8348 0.6145 0.50581 0.0
Co297 Co 0.6033 0.16464 0.32669 0.0
C298 C 0.65377 0.16856 0.33746 0.0
C299 C 0.64201 0.1841 0.27139 0.0
C300 C 0.66547 0.18747 0.27516 0.0
N301 N 0.63471 0.17247 0.31071 0.0
N302 N 0.67274 0.17763 0.31654 0.0
H303 H 0.65366 0.15987 0.37208 0.0
H304 H 0.63109 0.18995 0.24216 0.0
C305 C 0.57567 0.20498 0.28582 0.0
O306 O 0.56213 0.20664 0.32375 0.0
N307 N 0.57164 0.15657 0.34203 0.0
C308 C 0.56339 0.14831 0.38416 0.0
C309 C 0.54055 0.14269 0.37832 0.0
C310 C 0.55374 0.15519 0.31072 0.0
N311 N 0.5344 0.14707 0.33219 0.0
C312 C 0.60944 0.17197 0.42858 0.0
C313 C 0.60849 0.21954 0.42816 0.0
C314 C 0.6099 0.20809 0.47283 0.0
C315 C 0.6109 0.18396 0.47232 0.0
C316 C 0.60699 0.20679 0.38504 0.0
N317 N 0.60615 0.18323 0.38576 0.0
H318 H 0.61088 0.15345 0.42941 0.0
H319 H 0.60685 0.21606 0.35131 0.0
H320 H 0.57323 0.14541 0.41658 0.0
H321 H 0.55499 0.15983 0.27293 0.0
O322 O 0.6135 0.13474 0.35074 0.0
O323 O 0.60293 0.14224 0.27549 0.0
O324 O 0.59253 0.1909 0.28504 0.0
C325 C 0.61026 0.12729 0.30677 0.0
H326 H 0.67638 0.1964 0.24949 0.0
H327 H 0.52962 0.13502 0.40566 0.0
H328 H 0.60828 0.23818 0.42643 0.0
H329 H 0.61309 0.17431 0.50551 0.0
Co330 Co 0.16658 0.40228 0.68617 0.0
C331 C 0.16859 0.35172 0.67373 0.0
C332 C 0.18284 0.36243 0.74192 0.0
C333 C 0.18521 0.3389 0.73795 0.0
N334 N 0.17273 0.37044 0.70139 0.0
N335 N 0.17618 0.33228 0.69523 0.0
H336 H 0.1607 0.35233 0.63826 0.0
H337 H 0.18819 0.37291 0.77226 0.0
C338 C 0.20556 0.42964 0.73345 0.0
O339 O 0.20227 0.44781 0.7061 0.0
N340 N 0.16007 0.4344 0.67142 0.0
C341 C 0.16109 0.44526 0.62832 0.0
C342 C 0.15447 0.46779 0.63435 0.0
C343 C 0.15266 0.45062 0.703 0.0
N344 N 0.14921 0.47118 0.68128 0.0
C345 C 0.1738 0.39465 0.58458 0.0
C346 C 0.2214 0.39737 0.58552 0.0
C347 C 0.21012 0.39477 0.54091 0.0
C348 C 0.18597 0.39294 0.54104 0.0
C349 C 0.20858 0.39912 0.6282 0.0
N350 N 0.18498 0.39879 0.62728 0.0
H351 H 0.15521 0.39365 0.58354 0.0
H352 H 0.21795 0.40049 0.66167 0.0
H353 H 0.16642 0.4378 0.59448 0.0
H354 H 0.14999 0.44748 0.74115 0.0
O355 O 0.13615 0.3938 0.66201 0.0
O356 O 0.14437 0.40329 0.73767 0.0
O357 O 0.194 0.41113 0.727 0.0
C358 C 0.12899 0.39693 0.70619 0.0
H359 H 0.19283 0.32749 0.76446 0.0
H360 H 0.15406 0.48083 0.60639 0.0
H361 H 0.24006 0.39792 0.58763 0.0
H362 H 0.17639 0.39088 0.50768 0.0
Co363 Co 0.40411 0.84384 0.33717 0.0
C364 C 0.35328 0.83622 0.34995 0.0
C365 C 0.36454 0.83149 0.2769 0.0
C366 C 0.34095 0.82901 0.27824 0.0
N367 N 0.37237 0.83571 0.32198 0.0
N368 N 0.33384 0.83203 0.32425 0.0
H369 H 0.35334 0.84008 0.38793 0.0
H370 H 0.37525 0.83091 0.24489 0.0
C371 C 0.40603 0.79693 0.29399 0.0
O372 O 0.38943 0.79057 0.32349 0.0
N373 N 0.43559 0.85236 0.35051 0.0
C374 C 0.44415 0.85964 0.39313 0.0
C375 C 0.46677 0.86608 0.38647 0.0
C376 C 0.45295 0.85459 0.31839 0.0
N377 N 0.47227 0.86305 0.33941 0.0
C378 C 0.39174 0.83447 0.43619 0.0
C379 C 0.41793 0.79504 0.44658 0.0
C380 C 0.40422 0.80227 0.48559 0.0
C381 C 0.39136 0.82259 0.48015 0.0
C382 C 0.41791 0.80756 0.40345 0.0
N383 N 0.40378 0.8262 0.39745 0.0
H384 H 0.38266 0.85065 0.43371 0.0
H385 H 0.42964 0.80235 0.37522 0.0
H386 H 0.43448 0.86072 0.42648 0.0
H387 H 0.4511 0.85099 0.28017 0.0
O388 O 0.39389 0.87374 0.36073 0.0
O389 O 0.40336 0.86545 0.28497 0.0
O390 O 0.41503 0.81696 0.29737 0.0
C391 C 0.39608 0.88057 0.31605 0.0
H392 H 0.3299 0.82611 0.24727 0.0
H393 H 0.47817 0.87269 0.41422 0.0
H394 H 0.42859 0.77978 0.44905 0.0
H395 H 0.38146 0.8296 0.50991 0.0
Co396 Co 0.84098 0.90353 0.58192 0.0
C397 C 0.83976 0.85287 0.59293 0.0
C398 C 0.82929 0.86355 0.52194 0.0
C399 C 0.82841 0.83988 0.52405 0.0
N400 N 0.83627 0.87163 0.56518 0.0
N401 N 0.835 0.83315 0.56872 0.0
H402 H 0.84605 0.85367 0.62972 0.0
H403 H 0.82524 0.87414 0.49092 0.0
C404 C 0.80002 0.92873 0.53717 0.0
O405 O 0.80167 0.94646 0.56652 0.0
N406 N 0.84614 0.93573 0.59794 0.0
C407 C 0.84855 0.9453 0.6421 0.0
C408 C 0.85372 0.96825 0.63683 0.0
C409 C 0.85045 0.95302 0.56641 0.0
N410 N 0.85479 0.97321 0.58922 0.0
C411 C 0.83477 0.89435 0.68315 0.0
C412 C 0.78713 0.89595 0.68459 0.0
C413 C 0.79897 0.89312 0.72842 0.0
C414 C 0.82312 0.89185 0.72708 0.0
C415 C 0.79946 0.89847 0.6414 0.0
N416 N 0.82308 0.89871 0.6412 0.0
H417 H 0.85338 0.89353 0.68329 0.0
H418 H 0.7897 0.90009 0.60852 0.0
H419 H 0.84728 0.93647 0.67619 0.0
H420 H 0.85004 0.95082 0.52757 0.0
O421 O 0.8719 0.89628 0.60488 0.0
O422 O 0.86281 0.90622 0.52997 0.0
O423 O 0.81304 0.91116 0.54197 0.0
C424 C 0.87862 0.90019 0.56069 0.0
H425 H 0.82303 0.82857 0.495 0.0
H426 H 0.85703 0.98015 0.66617 0.0
H427 H 0.76845 0.89671 0.68366 0.0
H428 H 0.83302 0.88899 0.75976 0.0
Co429 Co 0.9027 0.16552 0.43653 0.0
C430 C 0.8523 0.16903 0.42287 0.0
C431 C 0.863 0.18321 0.49112 0.0
C432 C 0.83952 0.18611 0.48662 0.0
N433 N 0.87099 0.17281 0.45087 0.0
N434 N 0.83291 0.17711 0.44385 0.0
H435 H 0.85291 0.16094 0.3876 0.0
H436 H 0.87347 0.18828 0.52171 0.0
C437 C 0.93104 0.20395 0.48303 0.0
O438 O 0.94916 0.20004 0.45578 0.0
N439 N 0.93469 0.15785 0.42262 0.0
C440 C 0.94574 0.15813 0.37964 0.0
C441 C 0.96801 0.15067 0.38618 0.0
C442 C 0.95053 0.15006 0.45465 0.0
N443 N 0.97102 0.14561 0.43329 0.0
C444 C 0.89584 0.17244 0.33461 0.0
C445 C 0.89876 0.21996 0.33515 0.0
C446 C 0.89586 0.20863 0.2907 0.0
C447 C 0.89404 0.18451 0.29101 0.0
C448 C 0.90058 0.20724 0.37788 0.0
N449 N 0.90006 0.18368 0.37718 0.0
H450 H 0.89466 0.15387 0.33379 0.0
H451 H 0.902 0.21667 0.41127 0.0
H452 H 0.93861 0.16348 0.34553 0.0
H453 H 0.94714 0.14777 0.49281 0.0
O454 O 0.89331 0.13525 0.41301 0.0
O455 O 0.90258 0.14371 0.48867 0.0
O456 O 0.91224 0.19282 0.47687 0.0
C457 C 0.89567 0.1284 0.4576 0.0
H458 H 0.82812 0.19397 0.51289 0.0
H459 H 0.98112 0.1495 0.35841 0.0
H460 H 0.89932 0.2386 0.33714 0.0
H461 H 0.89177 0.17489 0.25775 0.0
Co462 Co 0.165 0.10202 0.5803 0.0
C463 C 0.16775 0.15264 0.59203 0.0
C464 C 0.18114 0.14151 0.52342 0.0
C465 C 0.18399 0.165 0.52698 0.0
N466 N 0.17129 0.13377 0.56445 0.0
N467 N 0.1755 0.17189 0.56997 0.0
H468 H 0.16024 0.15225 0.62784 0.0
H469 H 0.18604 0.13083 0.49306 0.0
C470 C 0.20526 0.07515 0.53642 0.0
O471 O 0.2032 0.05776 0.56643 0.0
N472 N 0.15829 0.07004 0.59549 0.0
C473 C 0.1543 0.06067 0.63928 0.0
C474 C 0.14872 0.03784 0.63342 0.0
C475 C 0.1544 0.05281 0.56349 0.0
N476 N 0.14894 0.03279 0.58579 0.0
C477 C 0.17142 0.11024 0.68186 0.0
C478 C 0.21901 0.10762 0.68336 0.0
C479 C 0.20722 0.11051 0.72724 0.0
C480 C 0.18311 0.11227 0.72588 0.0
C481 C 0.20662 0.10554 0.64007 0.0
N482 N 0.183 0.10579 0.63984 0.0
H483 H 0.15285 0.1116 0.68197 0.0
H484 H 0.21633 0.10398 0.60711 0.0
H485 H 0.15472 0.06958 0.67341 0.0
H486 H 0.15598 0.05488 0.52475 0.0
O487 O 0.13445 0.11059 0.60331 0.0
O488 O 0.14309 0.10055 0.52819 0.0
O489 O 0.19265 0.09308 0.54048 0.0
C490 C 0.12754 0.10707 0.55908 0.0
H491 H 0.19162 0.17621 0.50008 0.0
H492 H 0.14429 0.02607 0.66227 0.0
H493 H 0.23767 0.10655 0.68246 0.0
H494 H 0.17327 0.11523 0.7586 0.0
Co495 Co 0.10165 0.84014 0.43306 0.0
C496 C 0.15202 0.83454 0.41923 0.0
C497 C 0.14134 0.82638 0.49155 0.0
C498 C 0.16495 0.82425 0.48888 0.0
N499 N 0.13328 0.83271 0.44785 0.0
N500 N 0.1716 0.82937 0.4434 0.0
H501 H 0.15152 0.84039 0.38215 0.0
H502 H 0.13082 0.82405 0.52347 0.0
C503 C 0.07321 0.80298 0.48362 0.0
O504 O 0.05463 0.80708 0.45789 0.0
N505 N 0.06987 0.84804 0.41898 0.0
C506 C 0.05926 0.84863 0.37557 0.0
C507 C 0.03705 0.85643 0.38186 0.0
C508 C 0.05405 0.85587 0.4509 0.0
N509 N 0.03379 0.86091 0.42924 0.0
C510 C 0.11137 0.83201 0.33248 0.0
C511 C 0.09926 0.78595 0.33001 0.0
C512 C 0.10678 0.7965 0.28737 0.0
C513 C 0.11318 0.81976 0.28902 0.0
C514 C 0.09817 0.79865 0.37291 0.0
N515 N 0.10371 0.82158 0.37385 0.0
H516 H 0.11597 0.85003 0.33263 0.0
H517 H 0.09296 0.78959 0.40485 0.0
H518 H 0.06692 0.84389 0.34144 0.0
H519 H 0.05733 0.85776 0.48922 0.0
O520 O 0.11123 0.87026 0.4089 0.0
O521 O 0.10201 0.86227 0.48469 0.0
O522 O 0.09225 0.81322 0.47455 0.0
C523 C 0.10898 0.87737 0.45338 0.0
H524 H 0.17634 0.81941 0.51819 0.0
H525 H 0.0242 0.85831 0.35372 0.0
H526 H 0.09454 0.76787 0.33036 0.0
H527 H 0.11906 0.82855 0.25675 0.0
H528 H 0.28385 0.11339 0.28602 0.0
H529 H 0.22225 0.03679 0.48961 0.0
H530 H 0.27975 0.03924 0.2761 0.0
H531 H 0.22439 0.11112 0.48818 0.0
H532 H 0.24465 0.03637 0.41396 0.0
H533 H 0.26236 0.11206 0.36121 0.0
C534 C 0.27827 0.09677 0.29955 0.0
C535 C 0.28368 0.07638 0.27474 0.0
C536 C 0.24026 0.05273 0.43044 0.0
C537 C 0.25906 0.07467 0.36174 0.0
C538 C 0.2277 0.05297 0.47378 0.0
C539 C 0.22133 0.07403 0.49498 0.0
C540 C 0.24653 0.07371 0.40859 0.0
C541 C 0.22864 0.0945 0.4728 0.0
C542 C 0.266 0.09601 0.3427 0.0
C543 C 0.27582 0.05538 0.29396 0.0
N544 N 0.24074 0.0938 0.4309 0.0
N545 N 0.264 0.05503 0.3366 0.0
H546 H 0.03518 0.78295 0.52629 0.0
H547 H 0.11067 0.72649 0.73793 0.0
H548 H 0.10953 0.78642 0.53574 0.0
H549 H 0.03738 0.71477 0.7238 0.0
H550 H 0.10962 0.75062 0.66613 0.0
H551 H 0.03477 0.75907 0.59955 0.0
C552 C 0.0514 0.77855 0.54345 0.0
C553 C 0.07241 0.78681 0.52493 0.0
C554 C 0.09372 0.74283 0.67864 0.0
C555 C 0.07203 0.75986 0.60885 0.0
C556 C 0.09432 0.729 0.71972 0.0
C557 C 0.07415 0.71832 0.73655 0.0
C558 C 0.07277 0.7461 0.65401 0.0
C559 C 0.05335 0.72267 0.71203 0.0
C560 C 0.05114 0.76504 0.58537 0.0
C561 C 0.09289 0.78067 0.54882 0.0
N562 N 0.05321 0.73614 0.67175 0.0
N563 N 0.09215 0.76768 0.58949 0.0
H564 H 0.78336 0.89194 0.48729 0.0
H565 H 0.72416 0.96649 0.27772 0.0
H566 H 0.78085 0.96627 0.4914 0.0
H567 H 0.72254 0.8922 0.28594 0.0
H568 H 0.74618 0.96743 0.35367 0.0
H569 H 0.76131 0.89234 0.41257 0.0
C570 C 0.778 0.90839 0.4726 0.0
C571 C 0.78403 0.92912 0.49554 0.0
C572 C 0.74104 0.95096 0.33865 0.0
C573 C 0.75885 0.92973 0.40922 0.0
C574 C 0.72867 0.9504 0.29512 0.0
C575 C 0.72144 0.92923 0.27554 0.0
C576 C 0.74627 0.9302 0.36243 0.0
C577 C 0.72757 0.90892 0.29983 0.0
C578 C 0.76541 0.90861 0.42977 0.0
C579 C 0.77644 0.9499 0.47498 0.0
N580 N 0.73955 0.90994 0.34191 0.0
N581 N 0.76436 0.9497 0.43266 0.0
H582 H 0.89411 0.28412 0.73253 0.0
H583 H 0.96967 0.21986 0.53073 0.0
H584 H 0.96855 0.28155 0.7383 0.0
H585 H 0.89534 0.22471 0.52968 0.0
H586 H 0.97042 0.24292 0.60537 0.0
H587 H 0.8949 0.26172 0.65835 0.0
C588 C 0.91067 0.2787 0.71836 0.0
C589 C 0.93131 0.28482 0.74168 0.0
C590 C 0.95398 0.23898 0.58859 0.0
C591 C 0.93237 0.25917 0.65589 0.0
C592 C 0.95356 0.22601 0.54582 0.0
C593 C 0.93239 0.2202 0.52419 0.0
C594 C 0.93309 0.24619 0.60958 0.0
C595 C 0.91203 0.22846 0.54543 0.0
C596 C 0.91112 0.26593 0.67576 0.0
C597 C 0.95222 0.27714 0.72162 0.0
N598 N 0.9129 0.24091 0.58691 0.0
N599 N 0.95224 0.2648 0.67965 0.0
H600 H 0.28071 0.46869 0.99408 0.0
H601 H 0.22611 0.39359 0.7789 0.0
H602 H 0.28666 0.39482 0.97991 0.0
H603 H 0.22117 0.46778 0.78309 0.0
H604 H 0.24853 0.39448 0.85312 0.0
H605 H 0.25808 0.46945 0.91874 0.0
C606 C 0.27705 0.45265 0.9755 0.0
C607 C 0.28567 0.43168 0.9932 0.0
C608 C 0.24268 0.41064 0.83791 0.0
C609 C 0.26017 0.43245 0.90712 0.0
C610 C 0.22986 0.41013 0.79539 0.0
C611 C 0.22163 0.43063 0.77493 0.0
C612 C 0.24731 0.43182 0.86063 0.0
C613 C 0.22729 0.45157 0.79761 0.0
C614 C 0.26431 0.45312 0.93236 0.0
C615 C 0.28057 0.41143 0.96749 0.0
N616 N 0.23967 0.45164 0.83955 0.0
N617 N 0.26825 0.41235 0.92589 0.0
H618 H 0.40628 0.74996 0.29148 0.0
H619 H 0.412 0.73621 0.00997 0.0
H620 H 0.4196 0.80996 0.20373 0.0
H621 H 0.44466 0.68702 0.1051 0.0
H622 H 0.40917 0.76328 0.07849 0.0
H623 H 0.41436 0.72543 0.22117 0.0
C624 C 0.41105 0.75791 0.25748 0.0
C625 C 0.41248 0.78191 0.2533 0.0
C626 C 0.41719 0.74661 0.08382 0.0
C627 C 0.42107 0.75418 0.17293 0.0
C628 C 0.4188 0.73122 0.04493 0.0
C629 C 0.4285 0.70931 0.05185 0.0
C630 C 0.42478 0.7397 0.12982 0.0
C631 C 0.437 0.70368 0.09796 0.0
C632 C 0.41568 0.74398 0.21755 0.0
C633 C 0.41861 0.79145 0.20841 0.0
N634 N 0.4346 0.71861 0.13532 0.0
N635 N 0.42238 0.77755 0.16961 0.0
H636 H 0.72182 0.61127 0.98008 0.0
H637 H 0.78111 0.53813 0.76795 0.0
H638 H 0.7237 0.53689 0.98045 0.0
H639 H 0.78637 0.612 0.78322 0.0
H640 H 0.75795 0.53687 0.84237 0.0
H641 H 0.74417 0.61141 0.90566 0.0
C642 C 0.72705 0.59493 0.96463 0.0
C643 C 0.72083 0.57403 0.98657 0.0
C644 C 0.76414 0.55333 0.82923 0.0
C645 C 0.74639 0.57405 0.90064 0.0
C646 C 0.77717 0.55408 0.78658 0.0
C647 C 0.78576 0.57519 0.76945 0.0
C648 C 0.75957 0.57386 0.85455 0.0
C649 C 0.7803 0.59531 0.79524 0.0
C650 C 0.73983 0.59502 0.922 0.0
C651 C 0.72823 0.5534 0.96491 0.0
N652 N 0.76762 0.59413 0.83638 0.0
N653 N 0.74052 0.55391 0.92291 0.0
H654 H 0.57811 0.18948 0.19374 0.0
H655 H 0.58544 0.31094 0.07303 0.0
H656 H 0.56333 0.25062 0.27684 0.0
H657 H 0.55912 0.25289 0.99239 0.0
H658 H 0.58088 0.28901 0.14793 0.0
H659 H 0.57438 0.21189 0.11919 0.0
C660 C 0.57389 0.20764 0.19617 0.0
C661 C 0.57109 0.2183 0.24139 0.0
C662 C 0.5759 0.28115 0.11392 0.0
C663 C 0.56727 0.24406 0.15635 0.0
C664 C 0.57866 0.29355 0.07114 0.0
C665 C 0.57281 0.28361 0.02642 0.0
C666 C 0.56781 0.2584 0.112 0.0
C667 C 0.56385 0.26114 0.02612 0.0
C668 C 0.57166 0.22035 0.15366 0.0
C669 C 0.56554 0.2418 0.24263 0.0
N670 N 0.562 0.2491 0.06826 0.0
N671 N 0.56423 0.25405 0.20065 0.0
H672 H 0.31981 0.32095 0.16123 0.0
H673 H 0.35058 0.18874 0.11455 0.0
H674 H 0.34219 0.29466 0.02305 0.0
H675 H 0.31115 0.21214 0.23783 0.0
H676 H 0.35063 0.22791 0.08323 0.0
H677 H 0.31987 0.28162 0.19315 0.0
C678 C 0.32483 0.3069 0.13772 0.0
C679 C 0.33097 0.31103 0.08944 0.0
C680 C 0.34194 0.22442 0.11712 0.0
C681 C 0.33105 0.26608 0.12553 0.0
C682 C 0.3418 0.20196 0.13504 0.0
C683 C 0.33079 0.1969 0.17905 0.0
C684 C 0.33118 0.24206 0.14348 0.0
C685 C 0.32012 0.2151 0.20415 0.0
C686 C 0.32473 0.28446 0.15581 0.0
C687 C 0.33708 0.29219 0.0603 0.0
N688 N 0.32063 0.23684 0.18606 0.0
N689 N 0.33705 0.27053 0.07885 0.0
H690 H 0.20543 0.71335 0.81804 0.0
H691 H 0.31455 0.63992 0.89652 0.0
H692 H 0.19797 0.64168 0.85552 0.0
H693 H 0.30567 0.71046 0.94149 0.0
H694 H 0.27462 0.63988 0.86525 0.0
H695 H 0.2454 0.71239 0.84738 0.0
C696 C 0.21232 0.6974 0.83226 0.0
C697 C 0.1985 0.67758 0.83458 0.0
C698 C 0.2815 0.65533 0.88195 0.0
C699 C 0.24412 0.67624 0.86734 0.0
C700 C 0.30421 0.6554 0.89937 0.0
C701 C 0.31321 0.6752 0.9216 0.0
C702 C 0.2681 0.67541 0.88569 0.0
C703 C 0.2992 0.69483 0.92487 0.0
C704 C 0.23501 0.69688 0.84913 0.0
C705 C 0.20811 0.65733 0.85359 0.0
N706 N 0.2774 0.69453 0.90674 0.0
N707 N 0.23047 0.65709 0.8689 0.0
H708 H 0.67359 0.81781 0.10262 0.0
H709 H 0.67465 0.68325 0.16576 0.0
H710 H 0.67005 0.79136 0.24835 0.0
H711 H 0.66754 0.70995 0.02081 0.0
H712 H 0.67377 0.72266 0.19682 0.0
H713 H 0.67221 0.77839 0.07201 0.0
C714 C 0.67235 0.80381 0.12827 0.0
C715 C 0.67198 0.80809 0.17829 0.0
C716 C 0.67235 0.71986 0.15821 0.0
C717 C 0.67073 0.76269 0.14329 0.0
C718 C 0.67274 0.6973 0.14041 0.0
C719 C 0.67126 0.69311 0.09044 0.0
C720 C 0.67055 0.73844 0.12588 0.0
C721 C 0.66914 0.7122 0.05946 0.0
C722 C 0.67168 0.78123 0.11071 0.0
C723 C 0.67074 0.78904 0.2096 0.0
N724 N 0.66892 0.73397 0.07766 0.0
N725 N 0.67022 0.76722 0.19161 0.0
H726 H 0.82082 0.32161 0.91422 0.0
H727 H 0.68769 0.34897 0.86474 0.0
H728 H 0.79435 0.34219 0.77502 0.0
H729 H 0.71181 0.31221 0.99087 0.0
H730 H 0.72704 0.34974 0.83403 0.0
H731 H 0.78138 0.32165 0.94608 0.0
C732 C 0.80672 0.32628 0.89047 0.0
C733 C 0.81085 0.33185 0.84187 0.0
C734 C 0.72367 0.3415 0.86844 0.0
C735 C 0.76572 0.33186 0.87793 0.0
C736 C 0.7011 0.34094 0.88603 0.0
C737 C 0.69614 0.33045 0.93066 0.0
C738 C 0.74157 0.33167 0.89569 0.0
C739 C 0.71461 0.32075 0.95667 0.0
C740 C 0.78421 0.32614 0.90855 0.0
C741 C 0.79191 0.3375 0.81251 0.0
N742 N 0.73646 0.32163 0.93885 0.0
N743 N 0.77019 0.33743 0.83102 0.0
H744 H 0.8393 0.7937 0.51605 0.0
H745 H 0.83973 0.71199 0.74868 0.0
H746 H 0.83385 0.81897 0.66256 0.0
H747 H 0.83428 0.6865 0.60232 0.0
H748 H 0.84038 0.75126 0.71767 0.0
H749 H 0.84025 0.75438 0.54693 0.0
C750 C 0.83821 0.79106 0.55469 0.0
C751 C 0.83636 0.80982 0.58666 0.0
C752 C 0.83905 0.73707 0.69232 0.0
C753 C 0.83776 0.76465 0.62234 0.0
C754 C 0.83856 0.71457 0.71003 0.0
C755 C 0.83679 0.69576 0.67817 0.0
C756 C 0.83786 0.74091 0.64229 0.0
C757 C 0.83587 0.70035 0.62832 0.0
C758 C 0.83887 0.76854 0.57232 0.0
C759 C 0.83551 0.80518 0.63648 0.0
N760 N 0.83636 0.72244 0.61195 0.0
N761 N 0.83617 0.78308 0.65274 0.0
H762 H 0.81169 0.14162 0.39855 0.0
H763 H 0.70237 0.21346 0.31805 0.0
H764 H 0.80202 0.21179 0.44537 0.0
H765 H 0.69558 0.14189 0.35695 0.0
H766 H 0.74207 0.21325 0.34936 0.0
H767 H 0.77181 0.14126 0.36743 0.0
C768 C 0.80115 0.15694 0.40191 0.0
C769 C 0.80992 0.17674 0.4245 0.0
C770 C 0.73185 0.19762 0.35102 0.0
C771 C 0.76489 0.1766 0.38874 0.0
C772 C 0.70936 0.19771 0.33305 0.0
C773 C 0.69587 0.17768 0.33517 0.0
C774 C 0.74104 0.17718 0.37001 0.0
C775 C 0.70551 0.15768 0.35515 0.0
C776 C 0.77849 0.15669 0.38456 0.0
C777 C 0.79569 0.19617 0.42845 0.0
N778 N 0.72769 0.15784 0.37142 0.0
N779 N 0.7739 0.19572 0.4103 0.0
H780 H 0.14025 0.31101 0.65136 0.0
H781 H 0.21112 0.20171 0.56856 0.0
H782 H 0.2108 0.30133 0.69616 0.0
H783 H 0.14034 0.19438 0.61362 0.0
H784 H 0.21116 0.24143 0.59956 0.0
H785 H 0.13953 0.27097 0.62122 0.0
C786 C 0.15557 0.30044 0.65448 0.0
C787 C 0.17559 0.30925 0.67622 0.0
C788 C 0.19565 0.23109 0.60266 0.0
C789 C 0.17504 0.26407 0.64153 0.0
C790 C 0.1956 0.20859 0.58491 0.0
C791 C 0.17572 0.19494 0.58882 0.0
C792 C 0.17546 0.24016 0.62318 0.0
C793 C 0.15601 0.20444 0.61042 0.0
C794 C 0.15512 0.27769 0.63769 0.0
C795 C 0.19503 0.29498 0.67987 0.0
N796 N 0.15626 0.22665 0.62639 0.0
N797 N 0.19437 0.27313 0.66223 0.0
H798 H 0.31749 0.85049 0.40847 0.0
H799 H 0.18569 0.82048 0.35178 0.0
H800 H 0.29595 0.81346 0.28039 0.0
H801 H 0.21052 0.83974 0.49328 0.0
H802 H 0.22548 0.82137 0.32174 0.0
H803 H 0.27787 0.84983 0.43726 0.0
C804 C 0.3046 0.84206 0.38639 0.0
C805 C 0.31034 0.83191 0.34179 0.0
C806 C 0.2222 0.82535 0.35938 0.0
C807 C 0.26457 0.83155 0.37452 0.0
C808 C 0.19951 0.825 0.37642 0.0
C809 C 0.19484 0.82998 0.4251 0.0
C810 C 0.24028 0.831 0.39115 0.0
C811 C 0.21339 0.83549 0.45567 0.0
C812 C 0.28186 0.84182 0.40287 0.0
C813 C 0.29248 0.82174 0.31463 0.0
N814 N 0.23528 0.83593 0.43815 0.0
N815 N 0.27042 0.82186 0.33138 0.0
H816 H 0.30447 0.13798 0.96018 0.0
H817 H 0.19519 0.09014 0.81296 0.0
H818 H 0.25632 0.08803 0.01711 0.0
H819 H 0.24812 0.13259 0.74866 0.0
H820 H 0.21613 0.09127 0.88959 0.0
H821 H 0.28306 0.13801 0.88398 0.0
C822 C 0.28947 0.12694 0.95673 0.0
C823 C 0.28229 0.11293 0.99539 0.0
C824 C 0.22318 0.10037 0.85877 0.0
C825 C 0.25747 0.11314 0.90807 0.0
C826 C 0.21114 0.09986 0.81501 0.0
C827 C 0.21985 0.11133 0.77419 0.0
C828 C 0.24411 0.11253 0.86206 0.0
C829 C 0.24085 0.1233 0.77897 0.0
C830 C 0.27718 0.12707 0.91319 0.0
C831 C 0.26239 0.09937 0.98878 0.0
N832 N 0.25222 0.12363 0.82208 0.0
N833 N 0.25074 0.09981 0.94608 0.0
H834 H 0.14273 0.79271 0.22339 0.0
H835 H 0.07085 0.72441 0.02406 0.0
H836 H 0.07265 0.7703 0.24712 0.0
H837 H 0.1449 0.71856 0.03368 0.0
H838 H 0.07073 0.74596 0.10034 0.0
H839 H 0.14352 0.77029 0.14785 0.0
C840 C 0.12751 0.78314 0.21254 0.0
C841 C 0.1076 0.78328 0.24144 0.0
C842 C 0.08699 0.7399 0.08584 0.0
C843 C 0.10831 0.75791 0.15528 0.0
C844 C 0.08708 0.72771 0.0423 0.0
C845 C 0.10792 0.71972 0.02267 0.0
C846 C 0.10794 0.74454 0.10951 0.0
C847 C 0.12847 0.72432 0.04785 0.0
C848 C 0.12802 0.77027 0.16972 0.0
C849 C 0.08838 0.77049 0.22599 0.0
N850 N 0.12801 0.73663 0.08982 0.0
N851 N 0.08914 0.75847 0.18379 0.0
H852 H 0.70056 0.86652 0.95953 0.0
H853 H 0.81082 0.91337 0.81451 0.0
H854 H 0.74942 0.91552 0.01775 0.0
H855 H 0.7582 0.8707 0.74937 0.0
H856 H 0.78968 0.91226 0.89077 0.0
H857 H 0.72227 0.86614 0.88369 0.0
C858 C 0.71579 0.87726 0.95644 0.0
C859 C 0.72309 0.89109 0.99536 0.0
C860 C 0.78274 0.9031 0.85986 0.0
C861 C 0.74823 0.8905 0.90851 0.0
C862 C 0.79491 0.90359 0.81631 0.0
C863 C 0.78634 0.89208 0.77533 0.0
C864 C 0.76179 0.89095 0.8628 0.0
C865 C 0.76537 0.88004 0.7798 0.0
C866 C 0.72825 0.87693 0.91312 0.0
C867 C 0.74324 0.90431 0.98922 0.0
N868 N 0.75384 0.87976 0.82271 0.0
N869 N 0.75504 0.9037 0.94675 0.0
H870 H 0.86919 0.20035 0.20978 0.0
H871 H 0.91769 0.30931 0.06345 0.0
H872 H 0.92068 0.24722 0.26574 0.0
H873 H 0.8734 0.25771 0.99959 0.0
H874 H 0.91692 0.28801 0.13954 0.0
H875 H 0.86885 0.22203 0.13402 0.0
C876 C 0.8805 0.21511 0.2062 0.0
C877 C 0.895 0.22189 0.24448 0.0
C878 C 0.90734 0.28133 0.10893 0.0
C879 C 0.89444 0.24704 0.15775 0.0
C880 C 0.90764 0.29359 0.06551 0.0
C881 C 0.89556 0.28533 0.02495 0.0
C882 C 0.89479 0.26065 0.11215 0.0
C883 C 0.88316 0.26461 0.02969 0.0
C884 C 0.8802 0.22757 0.16293 0.0
C885 C 0.90894 0.24148 0.23773 0.0
N886 N 0.88307 0.25302 0.07246 0.0
N887 N 0.90831 0.25331 0.19533 0.0
H888 H 0.24861 0.42005 0.51733 0.0
H889 H 0.25697 0.37334 0.24505 0.0
H890 H 0.20199 0.36907 0.45847 0.0
H891 H 0.30795 0.41751 0.31146 0.0
H892 H 0.23569 0.37252 0.32159 0.0
H893 H 0.2699 0.41992 0.44135 0.0
C894 C 0.24293 0.40864 0.48866 0.0
C895 C 0.22344 0.39448 0.49468 0.0
C896 C 0.25156 0.38235 0.31941 0.0
C897 C 0.24766 0.39459 0.40672 0.0
C898 C 0.26365 0.38293 0.27563 0.0
C899 C 0.28433 0.39549 0.27174 0.0
C900 C 0.2601 0.39454 0.35961 0.0
C901 C 0.29228 0.40735 0.31285 0.0
C902 C 0.25505 0.40871 0.44504 0.0
C903 C 0.2167 0.3805 0.45551 0.0
N904 N 0.28014 0.40663 0.35489 0.0
N905 N 0.22876 0.38093 0.41326 0.0
H906 H 0.36748 0.79528 0.547 0.0
H907 H 0.43569 0.70974 0.72269 0.0
H908 H 0.43974 0.77882 0.53009 0.0
H909 H 0.36985 0.73966 0.75962 0.0
H910 H 0.43617 0.73256 0.64843 0.0
H911 H 0.36692 0.77311 0.62207 0.0
C912 C 0.38329 0.78718 0.5591 0.0
C913 C 0.40369 0.78899 0.53181 0.0
C914 C 0.42162 0.73417 0.67278 0.0
C915 C 0.40299 0.76313 0.61756 0.0
C916 C 0.42126 0.72103 0.71502 0.0
C917 C 0.40267 0.72275 0.74738 0.0
C918 C 0.40316 0.74905 0.66242 0.0
C919 C 0.38461 0.73793 0.73589 0.0
C920 C 0.3829 0.7744 0.60191 0.0
C921 C 0.42348 0.77765 0.54916 0.0
N922 N 0.38525 0.75041 0.69426 0.0
N923 N 0.4226 0.76519 0.59073 0.0
H924 H 0.70218 0.63483 0.30498 0.0
H925 H 0.81267 0.5897 0.45175 0.0
H926 H 0.75126 0.58597 0.24768 0.0
H927 H 0.75984 0.63255 0.51506 0.0
H928 H 0.79158 0.59011 0.37525 0.0
H929 H 0.72399 0.63585 0.38065 0.0
C930 C 0.71748 0.62424 0.30823 0.0
C931 C 0.72476 0.61021 0.26962 0.0
C932 C 0.78459 0.59946 0.40582 0.0
C933 C 0.75007 0.61156 0.35642 0.0
C934 C 0.79673 0.59937 0.44952 0.0
C935 C 0.78809 0.61114 0.4901 0.0
C936 C 0.76362 0.61148 0.4023 0.0
C937 C 0.76708 0.62302 0.48503 0.0
C938 C 0.73 0.62494 0.35148 0.0
C939 C 0.74505 0.59727 0.27598 0.0
N940 N 0.75561 0.6229 0.44201 0.0
N941 N 0.75692 0.59823 0.31843 0.0
H942 H 0.58789 0.25265 0.76964 0.0
H943 H 0.63252 0.24874 0.49479 0.0
H944 H 0.63587 0.30201 0.71004 0.0
H945 H 0.58853 0.19688 0.55826 0.0
H946 H 0.63338 0.26897 0.57259 0.0
H947 H 0.58798 0.23207 0.6925 0.0
C948 C 0.59863 0.25909 0.74059 0.0
C949 C 0.61184 0.27923 0.74669 0.0
C950 C 0.62357 0.25314 0.5695 0.0
C951 C 0.61171 0.2558 0.65744 0.0
C952 C 0.62293 0.24164 0.52492 0.0
C953 C 0.61048 0.22097 0.51974 0.0
C954 C 0.61156 0.24403 0.60936 0.0
C955 C 0.59865 0.21254 0.5605 0.0
C956 C 0.59853 0.24738 0.6963 0.0
C957 C 0.62509 0.28683 0.70709 0.0
N958 N 0.59946 0.22407 0.60336 0.0
N959 N 0.62463 0.27518 0.6643 0.0
H960 H 0.35152 0.99273 0.1386 0.0
H961 H 0.38563 0.91892 0.37109 0.0
H962 H 0.3682 0.02557 0.27448 0.0
H963 H 0.39184 0.89521 0.22362 0.0
H964 H 0.37451 0.95725 0.3405 0.0
H965 H 0.36097 0.95566 0.17369 0.0
C966 C 0.35733 0.99224 0.17576 0.0
C967 C 0.35945 0.01248 0.20324 0.0
C968 C 0.37838 0.94358 0.31508 0.0
C969 C 0.36997 0.9697 0.24416 0.0
C970 C 0.38467 0.92177 0.33244 0.0
C971 C 0.3897 0.90391 0.29982 0.0
C972 C 0.37682 0.94723 0.26494 0.0
C973 C 0.38821 0.90846 0.25013 0.0
C974 C 0.36263 0.97097 0.1959 0.0
C975 C 0.36632 0.01047 0.25187 0.0
N976 N 0.38183 0.92958 0.23431 0.0
N977 N 0.37142 0.98942 0.27083 0.0
H978 H 0.89899 0.59461 0.79272 0.0
H979 H 0.02277 0.6507 0.74098 0.0
H980 H 0.91691 0.62507 0.65546 0.0
H981 H 0.00374 0.61723 0.87442 0.0
H982 H 0.98525 0.63991 0.70676 0.0
H983 H 0.93816 0.60136 0.82108 0.0
C984 C 0.91122 0.60268 0.76841 0.0
C985 C 0.90462 0.60941 0.72171 0.0
C986 C 0.98937 0.63482 0.74343 0.0
C987 C 0.94974 0.61733 0.75419 0.0
C988 C 0.01085 0.64085 0.76291 0.0
C989 C 0.0164 0.63499 0.81084 0.0
C990 C 0.97333 0.62283 0.77206 0.0
C991 C 1.00011 0.62248 0.83769 0.0
C992 C 0.93365 0.60652 0.78466 0.0
C993 C 0.92129 0.61965 0.69176 0.0
N994 N 0.97935 0.61692 0.81802 0.0
N995 N 0.94308 0.62344 0.70863 0.0
H996 H 0.6267 0.00493 0.13458 0.0
H997 H 0.62946 0.09193 0.36003 0.0
H998 H 0.65575 0.98612 0.2726 0.0
H999 H 0.6013 0.1078 0.21945 0.0
H1000 H 0.6378 0.05259 0.33163 0.0
H1001 H 0.61574 0.04215 0.16781 0.0
C1002 C 0.63082 0.00867 0.17195 0.0
C1003 C 0.64237 0.99246 0.20067 0.0
C1004 C 0.62971 0.06471 0.30718 0.0
C1005 C 0.62974 0.03526 0.23941 0.0
C1006 C 0.62495 0.08713 0.32336 0.0
C1007 C 0.61479 0.1032 0.29199 0.0
C1008 C 0.62421 0.05842 0.25938 0.0
C1009 C 0.60928 0.09607 0.24487 0.0
C1010 C 0.62446 0.02994 0.19107 0.0
C1011 C 0.64679 0.9981 0.24926 0.0
N1012 N 0.6141 0.07432 0.23008 0.0
N1013 N 0.64062 0.01913 0.26707 0.0
H1014 H 0.09308 0.37846 0.65325 0.0
H1015 H 0.0071 0.38173 0.88004 0.0
H1016 H 0.10982 0.40686 0.7933 0.0
H1017 H 0.98769 0.35238 0.74253 0.0
H1018 H 0.04406 0.39313 0.84587 0.0
H1019 H 0.05365 0.37075 0.68209 0.0
C1020 C 0.08843 0.3832 0.68987 0.0
C1021 C 0.10478 0.39317 0.72103 0.0
C1022 C 0.03176 0.38428 0.82292 0.0
C1023 C 0.05993 0.38445 0.75412 0.0
C1024 C 0.01066 0.37767 0.84256 0.0
C1025 C 0.99439 0.36588 0.81426 0.0
C1026 C 0.03684 0.37897 0.7745 0.0
C1027 C 0.99973 0.36152 0.76554 0.0
C1028 C 0.06597 0.37878 0.7063 0.0
C1029 C 0.09787 0.39898 0.76809 0.0
N1030 N 0.02062 0.3679 0.74724 0.0
N1031 N 0.07606 0.39447 0.78315 0.0
H1032 H 0.40045 0.61218 0.04889 0.0
H1033 H 0.37032 0.48137 0.99016 0.0
H1034 H 0.3877 0.5903 0.90195 0.0
H1035 H 0.35819 0.51456 0.12773 0.0
H1036 H 0.38043 0.51906 0.95566 0.0
H1037 H 0.39006 0.57407 0.07717 0.0
C1038 C 0.39552 0.5993 0.0224 0.0
C1039 C 0.39482 0.6045 0.97292 0.0
C1040 C 0.37548 0.51794 0.99335 0.0
C1041 C 0.38276 0.56052 1.00543 0.0
C1042 C 0.36964 0.49647 0.0131 0.0
C1043 C 0.3637 0.49461 0.06229 0.0
C1044 C 0.37555 0.53754 0.02317 0.0
C1045 C 0.36324 0.51485 0.09013 0.0
C1046 C 0.38947 0.57751 0.0387 0.0
C1047 C 0.38837 0.58699 0.94044 0.0
N1048 N 0.36923 0.53533 0.07029 0.0
N1049 N 0.38257 0.56566 0.95728 0.0
H1050 H 0.59496 0.62678 0.11355 0.0
H1051 H 0.49746 0.60937 0.91039 0.0
H1052 H 0.60569 0.58768 0.98268 0.0
H1053 H 0.49739 0.66556 0.01198 0.0
H1054 H 0.53355 0.59503 0.94686 0.0
H1055 H 0.55539 0.63511 0.08694 0.0
C1056 C 0.58889 0.61972 0.07955 0.0
C1057 C 0.60363 0.60672 0.05003 0.0
C1058 C 0.5255 0.61036 0.96152 0.0
C1059 C 0.55854 0.61602 0.0196 0.0
C1060 C 0.50497 0.61838 0.9409 0.0
C1061 C 0.49478 0.63856 0.95843 0.0
C1062 C 0.53563 0.62259 1.00008 0.0
C1063 C 0.50498 0.64992 0.99774 0.0
C1064 C 0.56638 0.62454 0.06431 0.0
C1065 C 0.59493 0.598 1.00627 0.0
N1066 N 0.52491 0.64182 0.01726 0.0
N1067 N 0.57298 0.60285 0.99232 0.0
H1068 H 0.62715 0.49592 0.13038 0.0
H1069 H 0.62715 0.41044 0.9026 0.0
H1070 H 0.65421 0.51584 0.99132 0.0
H1071 H 0.59692 0.39505 0.04149 0.0
H1072 H 0.63594 0.44963 0.93159 0.0
H1073 H 0.61483 0.45929 0.09606 0.0
C1074 C 0.63054 0.49254 0.09254 0.0
C1075 C 0.64191 0.50888 0.06381 0.0
C1076 C 0.62724 0.43767 0.95548 0.0
C1077 C 0.62774 0.46679 0.02383 0.0
C1078 C 0.62219 0.41535 0.93894 0.0
C1079 C 0.61143 0.39943 0.96978 0.0
C1080 C 0.62146 0.44396 1.00312 0.0
C1081 C 0.6054 0.40666 0.01652 0.0
C1082 C 0.62338 0.47163 0.07279 0.0
C1083 C 0.64541 0.50374 0.01467 0.0
N1084 N 0.61058 0.42828 0.03173 0.0
N1085 N 0.63852 0.48304 0.99626 0.0
H1086 H 0.41609 0.38463 0.1168 0.0
H1087 H 0.49143 0.35098 0.88607 0.0
H1088 H 0.395 0.39559 0.96885 0.0
H1089 H 0.52345 0.36369 0.02464 0.0
H1090 H 0.45444 0.36204 0.9199 0.0
H1091 H 0.4544 0.37254 0.08748 0.0
C1092 C 0.41953 0.3846 0.07831 0.0
C1093 C 0.40235 0.39112 0.0452 0.0
C1094 C 0.46955 0.36247 0.94298 0.0
C1095 C 0.44569 0.37706 0.01169 0.0
C1096 C 0.49077 0.35621 0.9236 0.0
C1097 C 0.5108 0.35679 0.95217 0.0
C1098 C 0.46807 0.36921 0.99161 0.0
C1099 C 0.50853 0.36299 1.00117 0.0
C1100 C 0.44133 0.37771 0.06167 0.0
C1101 C 0.40768 0.39075 0.99574 0.0
N1102 N 0.48752 0.36905 0.01938 0.0
N1103 N 0.42877 0.38371 0.98057 0.0
H1104 H 0.89874 0.39258 0.71691 0.0
H1105 H 0.87033 0.52408 0.77377 0.0
H1106 H 0.88742 0.41577 0.8634 0.0
H1107 H 0.85736 0.49069 0.63663 0.0
H1108 H 0.88043 0.48646 0.80826 0.0
H1109 H 0.88862 0.43067 0.68761 0.0
C1110 C 0.89422 0.40574 0.74306 0.0
C1111 C 0.89385 0.40094 0.79273 0.0
C1112 C 0.87532 0.48753 0.77065 0.0
C1113 C 0.88213 0.44484 0.75912 0.0
C1114 C 0.86947 0.50898 0.75087 0.0
C1115 C 0.86322 0.51079 0.70181 0.0
C1116 C 0.87513 0.46785 0.74104 0.0
C1117 C 0.8626 0.49048 0.67413 0.0
C1118 C 0.88832 0.42751 0.7262 0.0
C1119 C 0.88785 0.41876 0.82478 0.0
N1120 N 0.8686 0.47001 0.69401 0.0
N1121 N 0.88223 0.44003 0.80741 0.0
H1122 H 0.52378 0.14056 0.23661 0.0
H1123 H 0.39354 0.10713 0.29851 0.0
H1124 H 0.4934 0.14443 0.37895 0.0
H1125 H 0.41448 0.12289 0.15242 0.0
H1126 H 0.43193 0.11699 0.32679 0.0
H1127 H 0.48551 0.13154 0.20321 0.0
C1128 C 0.50915 0.13968 0.26084 0.0
C1129 C 0.51198 0.14297 0.31092 0.0
C1130 C 0.42823 0.11835 0.2885 0.0
C1131 C 0.46835 0.13235 0.27296 0.0
C1132 C 0.40627 0.1126 0.27222 0.0
C1133 C 0.40074 0.11424 0.22297 0.0
C1134 C 0.44504 0.12572 0.25543 0.0
C1135 C 0.41804 0.12143 0.19072 0.0
C1136 C 0.48734 0.13444 0.24171 0.0
C1137 C 0.49232 0.14147 0.34042 0.0
N1138 N 0.43952 0.1269 0.20752 0.0
N1139 N 0.47149 0.13615 0.32107 0.0
H1140 H 0.15674 0.48576 0.77371 0.0
H1141 H 0.10299 0.60996 0.71822 0.0
H1142 H 0.12541 0.50562 0.63851 0.0
H1143 H 0.13149 0.5924 0.85763 0.0
H1144 H 0.11024 0.57096 0.69051 0.0
H1145 H 0.14652 0.52359 0.80746 0.0
C1146 C 0.14752 0.49796 0.75132 0.0
C1147 C 0.1421 0.4926 0.70305 0.0
C1148 C 0.11492 0.57549 0.72724 0.0
C1149 C 0.13057 0.53584 0.74116 0.0
C1150 C 0.11082 0.59786 0.74311 0.0
C1151 C 0.11677 0.6045 0.79027 0.0
C1152 C 0.12521 0.55947 0.75854 0.0
C1153 C 0.12669 0.58797 0.82093 0.0
C1154 C 0.14181 0.51957 0.77049 0.0
C1155 C 0.13033 0.50913 0.67553 0.0
N1156 N 0.13072 0.56618 0.80445 0.0
N1157 N 0.12506 0.52995 0.69489 0.0
H1158 H 0.60892 0.91354 0.28872 0.0
H1159 H 0.48995 0.84566 0.2555 0.0
H1160 H 0.59348 0.87435 0.15996 0.0
H1161 H 0.50396 0.89428 0.37017 0.0
H1162 H 0.52719 0.85556 0.21877 0.0
H1163 H 0.57008 0.90631 0.31812 0.0
C1164 C 0.59726 0.90346 0.26647 0.0
C1165 C 0.60445 0.89443 0.22193 0.0
C1166 C 0.522 0.86408 0.25188 0.0
C1167 C 0.55976 0.88588 0.25567 0.0
C1168 C 0.50072 0.85849 0.27283 0.0
C1169 C 0.49383 0.86896 0.31638 0.0
C1170 C 0.53648 0.88022 0.27471 0.0
C1171 C 0.50864 0.88534 0.3373 0.0
C1172 C 0.57502 0.89935 0.28328 0.0
C1173 C 0.58856 0.88163 0.1945 0.0
N1174 N 0.52921 0.89036 0.31641 0.0
N1175 N 0.56694 0.87754 0.21203 0.0
H1176 H 0.88564 0.09003 0.40217 0.0
H1177 H 0.85123 0.0151 0.63262 0.0
H1178 H 0.8923 0.11317 0.54995 0.0
H1179 H 0.86911 0.98273 0.49693 0.0
H1180 H 0.86116 0.05225 0.59856 0.0
H1181 H 0.87505 0.05143 0.43217 0.0
C1182 C 0.88491 0.08699 0.44078 0.0
C1183 C 0.88986 0.10481 0.47363 0.0
C1184 C 0.86299 0.03702 0.5762 0.0
C1185 C 0.87755 0.06112 0.50789 0.0
C1186 C 0.85741 0.01566 0.59576 0.0
C1187 C 0.85966 0.99548 0.56807 0.0
C1188 C 0.87071 0.03849 0.52826 0.0
C1189 C 0.86705 0.99771 0.51978 0.0
C1190 C 0.87892 0.06502 0.45781 0.0
C1191 C 0.88869 0.09998 0.52326 0.0
N1192 N 0.87236 0.01886 0.50138 0.0
N1193 N 0.88254 0.0787 0.53878 0.0
H1194 H 0.10845 0.0953 0.47282 0.0
H1195 H 0.98572 0.15329 0.52552 0.0
H1196 H 0.09167 0.12662 0.60998 0.0
H1197 H 0.0045 0.11994 0.39174 0.0
H1198 H 0.0231 0.14191 0.55988 0.0
H1199 H 0.06933 0.10256 0.44508 0.0
C1200 C 0.09648 0.10368 0.49722 0.0
C1201 C 0.10337 0.11051 0.54368 0.0
C1202 C 0.01894 0.137 0.52311 0.0
C1203 C 0.05832 0.11901 0.51196 0.0
C1204 C 0.99758 0.14337 0.50359 0.0
C1205 C 0.99208 0.13774 0.45551 0.0
C1206 C 0.03483 0.12487 0.49432 0.0
C1207 C 0.00817 0.12505 0.42858 0.0
C1208 C 0.07407 0.10781 0.48135 0.0
C1209 C 0.08703 0.12113 0.57382 0.0
N1210 N 0.02878 0.11915 0.44826 0.0
N1211 N 0.06525 0.12522 0.55731 0.0
H1212 H 0.11933 0.91559 0.39767 0.0
H1213 H 0.15213 0.99104 0.62929 0.0
H1214 H 0.11239 0.89282 0.54552 0.0
H1215 H 0.13596 0.02319 0.49263 0.0
H1216 H 0.14273 0.95381 0.59473 0.0
H1217 H 0.12995 0.95427 0.42763 0.0
C1218 C 0.12001 0.91872 0.43627 0.0
C1219 C 0.11495 0.90099 0.46916 0.0
C1220 C 0.14115 0.96899 0.57222 0.0
C1221 C 0.12727 0.94476 0.50336 0.0
C1222 C 0.14642 0.99039 0.59207 0.0
C1223 C 0.14445 0.01051 0.56426 0.0
C1224 C 0.13399 0.96743 0.52387 0.0
C1225 C 0.13772 0.00821 0.51554 0.0
C1226 C 0.12601 0.94073 0.45327 0.0
C1227 C 0.11607 0.90593 0.51877 0.0
N1228 N 0.13266 0.98703 0.49686 0.0
N1229 N 0.1222 0.92724 0.53424 0.0
H1230 H 0.01946 0.85309 0.52153 0.0
H1231 H 0.89726 0.91314 0.47484 0.0
H1232 H 1.00003 0.88669 0.38851 0.0
H1233 H 0.91484 0.8804 0.60996 0.0
H1234 H 0.93609 0.90572 0.44541 0.0
H1235 H 0.98265 0.865 0.55725 0.0
C1236 C 0.00758 0.86317 0.49999 0.0
C1237 C 0.01279 0.86876 0.45178 0.0
C1238 C 0.93159 0.90022 0.48161 0.0
C1239 C 0.9706 0.88226 0.49227 0.0
C1240 C 0.90937 0.90446 0.49848 0.0
C1241 C 0.90277 0.89722 0.54482 0.0
C1242 C 0.94742 0.88849 0.5111 0.0
C1243 C 0.91925 0.88622 0.57395 0.0
C1244 C 0.98653 0.86986 0.52033 0.0
C1245 C 0.99661 0.88163 0.42544 0.0
N1246 N 0.94082 0.88202 0.55645 0.0
N1247 N 0.97627 0.88785 0.44596 0.0
loop_
_geom_bond_atom_site_label_1
_geom_bond_atom_site_label_2
_geom_bond_distance
_geom_bond_site_symmetry_2
_ccdc_geom_bond_type
Co0 N4 2.148 . S
Co0 N10 2.128 . S
Co0 N20 2.194 . S
Co0 O25 2.351 . S
Co0 O26 2.155 . S
Co0 O27 2.096 . S
C1 N4 1.301 . S
C1 N5 1.328 . S
C1 H6 0.930 . S
C2 C3 1.333 . S
C2 N4 1.317 . S
C2 H7 0.930 . S
C3 C2 1.333 . S
C3 N5 1.350 . S
C3 H29 0.931 . S
N4 Co0 2.148 . S
N4 C1 1.301 . S
N4 C2 1.317 . S
N5 C1 1.328 . S
N5 C3 1.350 . S
H6 C1 0.930 . S
H7 C2 0.930 . S
C8 O9 1.224 . S
C8 O27 1.247 . S
O9 C8 1.224 . S
N10 Co0 2.128 . S
N10 C11 1.355 . S
N10 C13 1.311 . S
C11 N10 1.355 . S
C11 C12 1.363 . S
C11 H23 0.929 . S
C12 C11 1.363 . S
C12 N14 1.375 . S
C12 H30 0.931 . S
C13 N10 1.311 . S
C13 N14 1.347 . S
C13 H24 0.929 . S
N14 C12 1.375 . S
N14 C13 1.347 . S
C15 C18 1.365 . S
C15 N20 1.328 . S
C15 H21 0.929 . S
C16 C17 1.362 . S
C16 C19 1.378 . S
C16 H31 0.929 . S
C17 C16 1.362 . S
C17 C18 1.366 . S
C18 C15 1.365 . S
C18 C17 1.366 . S
C18 H32 0.930 . S
C19 C16 1.378 . S
C19 N20 1.315 . S
C19 H22 0.930 . S
N20 Co0 2.194 . S
N20 C15 1.328 . S
N20 C19 1.315 . S
H21 C15 0.929 . S
H22 C19 0.930 . S
H23 C11 0.929 . S
H24 C13 0.929 . S
O25 Co0 2.351 . S
O25 C28 1.244 . S
O26 Co0 2.155 . S
O26 C28 1.240 . S
O27 Co0 2.096 . S
O27 C8 1.247 . S
C28 O25 1.244 . S
C28 O26 1.240 . S
H29 C3 0.931 . S
H30 C12 0.931 . S
H31 C16 0.929 . S
H32 C18 0.930 . S
Co33 N37 2.148 . S
Co33 N43 2.128 . S
Co33 N53 2.194 . S
Co33 O58 2.351 . S
Co33 O59 2.155 . S
Co33 O60 2.096 . S
C34 N37 1.301 . S
C34 N38 1.328 . S
C34 H39 0.930 . S
C35 C36 1.333 . S
C35 N37 1.317 . S
C35 H40 0.930 . S
C36 C35 1.333 . S
C36 N38 1.350 . S
C36 H62 0.931 . S
N37 Co33 2.148 . S
N37 C34 1.301 . S
N37 C35 1.317 . S
N38 C34 1.328 . S
N38 C36 1.350 . S
H39 C34 0.930 . S
H40 C35 0.930 . S
C41 O42 1.224 . S
C41 O60 1.247 . S
O42 C41 1.224 . S
N43 Co33 2.128 . S
N43 C44 1.355 . S
N43 C46 1.311 . S
C44 N43 1.355 . S
C44 C45 1.363 . S
C44 H56 0.929 . S
C45 C44 1.363 . S
C45 N47 1.375 . S
C45 H63 0.931 . S
C46 N43 1.311 . S
C46 N47 1.347 . S
C46 H57 0.929 . S
N47 C45 1.375 . S
N47 C46 1.347 . S
C48 C51 1.365 . S
C48 N53 1.328 . S
C48 H54 0.929 . S
C49 C50 1.362 . S
C49 C52 1.378 . S
C49 H64 0.929 . S
C50 C49 1.362 . S
C50 C51 1.366 . S
C51 C48 1.365 . S
C51 C50 1.366 . S
C51 H65 0.930 . S
C52 C49 1.378 . S
C52 N53 1.315 . S
C52 H55 0.930 . S
N53 Co33 2.194 . S
N53 C48 1.328 . S
N53 C52 1.315 . S
H54 C48 0.929 . S
H55 C52 0.930 . S
H56 C44 0.929 . S
H57 C46 0.929 . S
O58 Co33 2.351 . S
O58 C61 1.244 . S
O59 Co33 2.155 . S
O59 C61 1.240 . S
O60 Co33 2.096 . S
O60 C41 1.247 . S
C61 O58 1.244 . S
C61 O59 1.240 . S
H62 C36 0.931 . S
H63 C45 0.931 . S
H64 C49 0.929 . S
H65 C51 0.930 . S
Co66 N70 2.148 . S
Co66 N76 2.128 . S
Co66 N86 2.194 . S
Co66 O91 2.351 . S
Co66 O92 2.155 . S
Co66 O93 2.096 . S
C67 N70 1.301 . S
C67 N71 1.328 . S
C67 H72 0.930 . S
C68 C69 1.333 . S
C68 N70 1.317 . S
C68 H73 0.930 . S
C69 C68 1.333 . S
C69 N71 1.350 . S
C69 H95 0.931 . S
N70 Co66 2.148 . S
N70 C67 1.301 . S
N70 C68 1.317 . S
N71 C67 1.328 . S
N71 C69 1.350 . S
H72 C67 0.930 . S
H73 C68 0.930 . S
C74 O75 1.224 . S
C74 O93 1.247 . S
O75 C74 1.224 . S
N76 Co66 2.128 . S
N76 C77 1.355 . S
N76 C79 1.311 . S
C77 N76 1.355 . S
C77 C78 1.363 . S
C77 H89 0.929 . S
C78 C77 1.363 . S
C78 N80 1.375 . S
C78 H96 0.931 . S
C79 N76 1.311 . S
C79 N80 1.347 . S
C79 H90 0.929 . S
N80 C78 1.375 . S
N80 C79 1.347 . S
C81 C84 1.365 . S
C81 N86 1.328 . S
C81 H87 0.929 . S
C82 C83 1.362 . S
C82 C85 1.378 . S
C82 H97 0.929 . S
C83 C82 1.362 . S
C83 C84 1.366 . S
C84 C81 1.365 . S
C84 C83 1.366 . S
C84 H98 0.930 . S
C85 C82 1.378 . S
C85 N86 1.315 . S
C85 H88 0.930 . S
N86 Co66 2.194 . S
N86 C81 1.328 . S
N86 C85 1.315 . S
H87 C81 0.929 . S
H88 C85 0.930 . S
H89 C77 0.929 . S
H90 C79 0.929 . S
O91 Co66 2.351 . S
O91 C94 1.244 . S
O92 Co66 2.155 . S
O92 C94 1.240 . S
O93 Co66 2.096 . S
O93 C74 1.247 . S
C94 O91 1.244 . S
C94 O92 1.240 . S
H95 C69 0.931 . S
H96 C78 0.931 . S
H97 C82 0.929 . S
H98 C84 0.930 . S
Co99 N103 2.148 . S
Co99 N109 2.128 . S
Co99 N119 2.194 . S
Co99 O124 2.351 . S
Co99 O125 2.155 . S
Co99 O126 2.096 . S
C100 N103 1.301 . S
C100 N104 1.328 . S
C100 H105 0.930 . S
C101 C102 1.333 . S
C101 N103 1.317 . S
C101 H106 0.930 . S
C102 C101 1.333 . S
C102 N104 1.350 . S
C102 H128 0.931 . S
N103 Co99 2.148 . S
N103 C100 1.301 . S
N103 C101 1.317 . S
N104 C100 1.328 . S
N104 C102 1.350 . S
H105 C100 0.930 . S
H106 C101 0.930 . S
C107 O108 1.224 . S
C107 O126 1.247 . S
O108 C107 1.224 . S
N109 Co99 2.128 . S
N109 C110 1.355 . S
N109 C112 1.311 . S
C110 N109 1.355 . S
C110 C111 1.363 . S
C110 H122 0.929 . S
C111 C110 1.363 . S
C111 N113 1.375 . S
C111 H129 0.931 . S
C112 N109 1.311 . S
C112 N113 1.347 . S
C112 H123 0.929 . S
N113 C111 1.375 . S
N113 C112 1.347 . S
C114 C117 1.365 . S
C114 N119 1.328 . S
C114 H120 0.929 . S
C115 C116 1.362 . S
C115 C118 1.378 . S
C115 H130 0.929 . S
C116 C115 1.362 . S
C116 C117 1.366 . S
C117 C114 1.365 . S
C117 C116 1.366 . S
C117 H131 0.930 . S
C118 C115 1.378 . S
C118 N119 1.315 . S
C118 H121 0.930 . S
N119 Co99 2.194 . S
N119 C114 1.328 . S
N119 C118 1.315 . S
H120 C114 0.929 . S
H121 C118 0.930 . S
H122 C110 0.929 . S
H123 C112 0.929 . S
O124 Co99 2.351 . S
O124 C127 1.244 . S
O125 Co99 2.155 . S
O125 C127 1.240 . S
O126 Co99 2.096 . S
O126 C107 1.247 . S
C127 O124 1.244 . S
C127 O125 1.240 . S
H128 C102 0.931 . S
H129 C111 0.931 . S
H130 C115 0.929 . S
H131 C117 0.930 . S
Co132 N136 2.148 . S
Co132 N142 2.128 . S
Co132 N152 2.194 . S
Co132 O157 2.351 . S
Co132 O158 2.155 . S
Co132 O159 2.096 1_554 S
C133 N136 1.301 . S
C133 N137 1.328 . S
C133 H138 0.930 . S
C134 C135 1.333 . S
C134 N136 1.317 . S
C134 H139 0.930 . S
C135 C134 1.333 . S
C135 N137 1.350 . S
C135 H161 0.931 . S
N136 Co132 2.148 . S
N136 C133 1.301 . S
N136 C134 1.317 . S
N137 C133 1.328 . S
N137 C135 1.350 . S
H138 C133 0.930 . S
H139 C134 0.930 . S
C140 O141 1.224 . S
C140 O159 1.247 1_554 S
O141 C140 1.224 . S
N142 Co132 2.128 . S
N142 C143 1.355 . S
N142 C145 1.311 . S
C143 N142 1.355 . S
C143 C144 1.363 . S
C143 H155 0.929 . S
C144 C143 1.363 . S
C144 N146 1.375 . S
C144 H162 0.931 . S
C145 N142 1.311 . S
C145 N146 1.347 . S
C145 H156 0.929 . S
N146 C144 1.375 . S
N146 C145 1.347 . S
C147 C150 1.365 . S
C147 N152 1.328 . S
C147 H153 0.929 . S
C148 C149 1.362 . S
C148 C151 1.378 . S
C148 H163 0.929 . S
C149 C148 1.362 . S
C149 C150 1.366 . S
C150 C147 1.365 . S
C150 C149 1.366 . S
C150 H164 0.930 . S
C151 C148 1.378 . S
C151 N152 1.315 . S
C151 H154 0.930 . S
N152 Co132 2.194 . S
N152 C147 1.328 . S
N152 C151 1.315 . S
H153 C147 0.929 . S
H154 C151 0.930 . S
H155 C143 0.929 . S
H156 C145 0.929 . S
O157 Co132 2.351 . S
O157 C160 1.244 . S
O158 Co132 2.155 . S
O158 C160 1.240 . S
O159 Co132 2.096 1_556 S
O159 C140 1.247 1_556 S
C160 O157 1.244 . S
C160 O158 1.240 . S
H161 C135 0.931 . S
H162 C144 0.931 . S
H163 C148 0.929 . S
H164 C150 0.930 . S
Co165 N169 2.148 . S
Co165 N175 2.128 . S
Co165 N185 2.194 . S
Co165 O190 2.351 . S
Co165 O191 2.155 . S
Co165 O192 2.096 1_556 S
C166 N169 1.301 . S
C166 N170 1.328 . S
C166 H171 0.930 . S
C167 C168 1.333 . S
C167 N169 1.317 . S
C167 H172 0.930 . S
C168 C167 1.333 . S
C168 N170 1.350 . S
C168 H194 0.931 . S
N169 Co165 2.148 . S
N169 C166 1.301 . S
N169 C167 1.317 . S
N170 C166 1.328 . S
N170 C168 1.350 . S
H171 C166 0.930 . S
H172 C167 0.930 . S
C173 O174 1.224 . S
C173 O192 1.247 1_556 S
O174 C173 1.224 . S
N175 Co165 2.128 . S
N175 C176 1.355 . S
N175 C178 1.311 . S
C176 N175 1.355 . S
C176 C177 1.363 . S
C176 H188 0.929 . S
C177 C176 1.363 . S
C177 N179 1.375 . S
C177 H195 0.931 . S
C178 N175 1.311 . S
C178 N179 1.347 . S
C178 H189 0.929 . S
N179 C177 1.375 . S
N179 C178 1.347 . S
C180 C183 1.365 . S
C180 N185 1.328 . S
C180 H186 0.929 . S
C181 C182 1.362 . S
C181 C184 1.378 . S
C181 H196 0.929 . S
C182 C181 1.362 . S
C182 C183 1.366 . S
C183 C180 1.365 . S
C183 C182 1.366 . S
C183 H197 0.930 . S
C184 C181 1.378 . S
C184 N185 1.315 . S
C184 H187 0.930 . S
N185 Co165 2.194 . S
N185 C180 1.328 . S
N185 C184 1.315 . S
H186 C180 0.929 . S
H187 C184 0.930 . S
H188 C176 0.929 . S
H189 C178 0.929 . S
O190 Co165 2.351 . S
O190 C193 1.244 . S
O191 Co165 2.155 . S
O191 C193 1.240 . S
O192 Co165 2.096 1_554 S
O192 C173 1.247 1_554 S
C193 O190 1.244 . S
C193 O191 1.240 . S
H194 C168 0.931 . S
H195 C177 0.931 . S
H196 C181 0.929 . S
H197 C183 0.930 . S
Co198 N202 2.148 . S
Co198 N208 2.128 . S
Co198 N218 2.194 . S
Co198 O223 2.351 . S
Co198 O224 2.155 . S
Co198 O225 2.096 1_554 S
C199 N202 1.301 . S
C199 N203 1.328 . S
C199 H204 0.930 . S
C200 C201 1.333 . S
C200 N202 1.317 . S
C200 H205 0.930 . S
C201 C200 1.333 . S
C201 N203 1.350 . S
C201 H227 0.931 . S
N202 Co198 2.148 . S
N202 C199 1.301 . S
N202 C200 1.317 . S
N203 C199 1.328 . S
N203 C201 1.350 . S
H204 C199 0.930 . S
H205 C200 0.930 . S
C206 O207 1.224 . S
C206 O225 1.247 1_554 S
O207 C206 1.224 . S
N208 Co198 2.128 . S
N208 C209 1.355 . S
N208 C211 1.311 . S
C209 N208 1.355 . S
C209 C210 1.363 . S
C209 H221 0.929 . S
C210 C209 1.363 . S
C210 N212 1.375 . S
C210 H228 0.931 . S
C211 N208 1.311 . S
C211 N212 1.347 . S
C211 H222 0.929 . S
N212 C210 1.375 . S
N212 C211 1.347 . S
C213 C216 1.365 . S
C213 N218 1.328 . S
C213 H219 0.929 . S
C214 C215 1.362 . S
C214 C217 1.378 . S
C214 H229 0.929 . S
C215 C214 1.362 . S
C215 C216 1.366 . S
C216 C213 1.365 . S
C216 C215 1.366 . S
C216 H230 0.930 . S
C217 C214 1.378 . S
C217 N218 1.315 . S
C217 H220 0.930 . S
N218 Co198 2.194 . S
N218 C213 1.328 . S
N218 C217 1.315 . S
H219 C213 0.929 . S
H220 C217 0.930 . S
H221 C209 0.929 . S
H222 C211 0.929 . S
O223 Co198 2.351 . S
O223 C226 1.244 . S
O224 Co198 2.155 . S
O224 C226 1.240 . S
O225 Co198 2.096 1_556 S
O225 C206 1.247 1_556 S
C226 O223 1.244 . S
C226 O224 1.240 . S
H227 C201 0.931 . S
H228 C210 0.931 . S
H229 C214 0.929 . S
H230 C216 0.930 . S
Co231 N235 2.148 . S
Co231 N241 2.128 . S
Co231 N251 2.194 . S
Co231 O256 2.351 . S
Co231 O257 2.155 . S
Co231 O258 2.096 1_556 S
C232 N235 1.301 . S
C232 N236 1.328 . S
C232 H237 0.930 . S
C233 C234 1.333 . S
C233 N235 1.317 . S
C233 H238 0.930 . S
C234 C233 1.333 . S
C234 N236 1.350 . S
C234 H260 0.931 . S
N235 Co231 2.148 . S
N235 C232 1.301 . S
N235 C233 1.317 . S
N236 C232 1.328 . S
N236 C234 1.350 . S
H237 C232 0.930 . S
H238 C233 0.930 . S
C239 O240 1.224 . S
C239 O258 1.247 1_556 S
O240 C239 1.224 . S
N241 Co231 2.128 . S
N241 C242 1.355 . S
N241 C244 1.311 . S
C242 N241 1.355 . S
C242 C243 1.363 . S
C242 H254 0.929 . S
C243 C242 1.363 . S
C243 N245 1.375 . S
C243 H261 0.931 . S
C244 N241 1.311 . S
C244 N245 1.347 . S
C244 H255 0.929 . S
N245 C243 1.375 . S
N245 C244 1.347 . S
C246 C249 1.365 . S
C246 N251 1.328 . S
C246 H252 0.929 . S
C247 C248 1.362 . S
C247 C250 1.378 . S
C247 H262 0.929 . S
C248 C247 1.362 . S
C248 C249 1.366 . S
C249 C246 1.365 . S
C249 C248 1.366 . S
C249 H263 0.930 . S
C250 C247 1.378 . S
C250 N251 1.315 . S
C250 H253 0.930 . S
N251 Co231 2.194 . S
N251 C246 1.328 . S
N251 C250 1.315 . S
H252 C246 0.929 . S
H253 C250 0.930 . S
H254 C242 0.929 . S
H255 C244 0.929 . S
O256 Co231 2.351 . S
O256 C259 1.244 . S
O257 Co231 2.155 . S
O257 C259 1.240 . S
O258 Co231 2.096 1_554 S
O258 C239 1.247 1_554 S
C259 O256 1.244 . S
C259 O257 1.240 . S
H260 C234 0.931 . S
H261 C243 0.931 . S
H262 C247 0.929 . S
H263 C249 0.930 . S
Co264 N268 2.148 . S
Co264 N274 2.128 . S
Co264 N284 2.194 . S
Co264 O289 2.351 . S
Co264 O290 2.155 . S
Co264 O291 2.096 . S
C265 N268 1.301 . S
C265 N269 1.328 . S
C265 H270 0.930 . S
C266 C267 1.333 . S
C266 N268 1.317 . S
C266 H271 0.930 . S
C267 C266 1.333 . S
C267 N269 1.350 . S
C267 H293 0.931 . S
N268 Co264 2.148 . S
N268 C265 1.301 . S
N268 C266 1.317 . S
N269 C265 1.328 . S
N269 C267 1.350 . S
H270 C265 0.930 . S
H271 C266 0.930 . S
C272 O273 1.224 . S
C272 O291 1.247 . S
O273 C272 1.224 . S
N274 Co264 2.128 . S
N274 C275 1.355 . S
N274 C277 1.311 . S
C275 N274 1.355 . S
C275 C276 1.363 . S
C275 H287 0.929 . S
C276 C275 1.363 . S
C276 N278 1.375 . S
C276 H294 0.931 . S
C277 N274 1.311 . S
C277 N278 1.347 . S
C277 H288 0.929 . S
N278 C276 1.375 . S
N278 C277 1.347 . S
C279 C282 1.365 . S
C279 N284 1.328 . S
C279 H285 0.929 . S
C280 C281 1.362 . S
C280 C283 1.378 . S
C280 H295 0.929 . S
C281 C280 1.362 . S
C281 C282 1.366 . S
C282 C279 1.365 . S
C282 C281 1.366 . S
C282 H296 0.930 . S
C283 C280 1.378 . S
C283 N284 1.315 . S
C283 H286 0.930 . S
N284 Co264 2.194 . S
N284 C279 1.328 . S
N284 C283 1.315 . S
H285 C279 0.929 . S
H286 C283 0.930 . S
H287 C275 0.929 . S
H288 C277 0.929 . S
O289 Co264 2.351 . S
O289 C292 1.244 . S
O290 Co264 2.155 . S
O290 C292 1.240 . S
O291 Co264 2.096 . S
O291 C272 1.247 . S
C292 O289 1.244 . S
C292 O290 1.240 . S
H293 C267 0.931 . S
H294 C276 0.931 . S
H295 C280 0.929 . S
H296 C282 0.930 . S
Co297 N301 2.148 . S
Co297 N307 2.128 . S
Co297 N317 2.194 . S
Co297 O322 2.351 . S
Co297 O323 2.155 . S
Co297 O324 2.096 . S
C298 N301 1.301 . S
C298 N302 1.328 . S
C298 H303 0.930 . S
C299 C300 1.333 . S
C299 N301 1.317 . S
C299 H304 0.930 . S
C300 C299 1.333 . S
C300 N302 1.350 . S
C300 H326 0.931 . S
N301 Co297 2.148 . S
N301 C298 1.301 . S
N301 C299 1.317 . S
N302 C298 1.328 . S
N302 C300 1.350 . S
H303 C298 0.930 . S
H304 C299 0.930 . S
C305 O306 1.224 . S
C305 O324 1.247 . S
O306 C305 1.224 . S
N307 Co297 2.128 . S
N307 C308 1.355 . S
N307 C310 1.311 . S
C308 N307 1.355 . S
C308 C309 1.363 . S
C308 H320 0.929 . S
C309 C308 1.363 . S
C309 N311 1.375 . S
C309 H327 0.931 . S
C310 N307 1.311 . S
C310 N311 1.347 . S
C310 H321 0.929 . S
N311 C309 1.375 . S
N311 C310 1.347 . S
C312 C315 1.365 . S
C312 N317 1.328 . S
C312 H318 0.929 . S
C313 C314 1.362 . S
C313 C316 1.378 . S
C313 H328 0.929 . S
C314 C313 1.362 . S
C314 C315 1.366 . S
C315 C312 1.365 . S
C315 C314 1.366 . S
C315 H329 0.930 . S
C316 C313 1.378 . S
C316 N317 1.315 . S
C316 H319 0.930 . S
N317 Co297 2.194 . S
N317 C312 1.328 . S
N317 C316 1.315 . S
H318 C312 0.929 . S
H319 C316 0.930 . S
H320 C308 0.929 . S
H321 C310 0.929 . S
O322 Co297 2.351 . S
O322 C325 1.244 . S
O323 Co297 2.155 . S
O323 C325 1.240 . S
O324 Co297 2.096 . S
O324 C305 1.247 . S
C325 O322 1.244 . S
C325 O323 1.240 . S
H326 C300 0.931 . S
H327 C309 0.931 . S
H328 C313 0.929 . S
H329 C315 0.930 . S
Co330 N334 2.148 . S
Co330 N340 2.128 . S
Co330 N350 2.194 . S
Co330 O355 2.351 . S
Co330 O356 2.155 . S
Co330 O357 2.096 . S
C331 N334 1.301 . S
C331 N335 1.328 . S
C331 H336 0.930 . S
C332 C333 1.333 . S
C332 N334 1.317 . S
C332 H337 0.930 . S
C333 C332 1.333 . S
C333 N335 1.350 . S
C333 H359 0.931 . S
N334 Co330 2.148 . S
N334 C331 1.301 . S
N334 C332 1.317 . S
N335 C331 1.328 . S
N335 C333 1.350 . S
H336 C331 0.930 . S
H337 C332 0.930 . S
C338 O339 1.224 . S
C338 O357 1.247 . S
O339 C338 1.224 . S
N340 Co330 2.128 . S
N340 C341 1.355 . S
N340 C343 1.311 . S
C341 N340 1.355 . S
C341 C342 1.363 . S
C341 H353 0.929 . S
C342 C341 1.363 . S
C342 N344 1.375 . S
C342 H360 0.931 . S
C343 N340 1.311 . S
C343 N344 1.347 . S
C343 H354 0.929 . S
N344 C342 1.375 . S
N344 C343 1.347 . S
C345 C348 1.365 . S
C345 N350 1.328 . S
C345 H351 0.929 . S
C346 C347 1.362 . S
C346 C349 1.378 . S
C346 H361 0.929 . S
C347 C346 1.362 . S
C347 C348 1.366 . S
C348 C345 1.365 . S
C348 C347 1.366 . S
C348 H362 0.930 . S
C349 C346 1.378 . S
C349 N350 1.315 . S
C349 H352 0.930 . S
N350 Co330 2.194 . S
N350 C345 1.328 . S
N350 C349 1.315 . S
H351 C345 0.929 . S
H352 C349 0.930 . S
H353 C341 0.929 . S
H354 C343 0.929 . S
O355 Co330 2.351 . S
O355 C358 1.244 . S
O356 Co330 2.155 . S
O356 C358 1.240 . S
O357 Co330 2.096 . S
O357 C338 1.247 . S
C358 O355 1.244 . S
C358 O356 1.240 . S
H359 C333 0.931 . S
H360 C342 0.931 . S
H361 C346 0.929 . S
H362 C348 0.930 . S
Co363 N367 2.148 . S
Co363 N373 2.128 . S
Co363 N383 2.194 . S
Co363 O388 2.351 . S
Co363 O389 2.155 . S
Co363 O390 2.096 . S
C364 N367 1.301 . S
C364 N368 1.328 . S
C364 H369 0.930 . S
C365 C366 1.333 . S
C365 N367 1.317 . S
C365 H370 0.930 . S
C366 C365 1.333 . S
C366 N368 1.350 . S
C366 H392 0.931 . S
N367 Co363 2.148 . S
N367 C364 1.301 . S
N367 C365 1.317 . S
N368 C364 1.328 . S
N368 C366 1.350 . S
H369 C364 0.930 . S
H370 C365 0.930 . S
C371 O372 1.224 . S
C371 O390 1.247 . S
O372 C371 1.224 . S
N373 Co363 2.128 . S
N373 C374 1.355 . S
N373 C376 1.311 . S
C374 N373 1.355 . S
C374 C375 1.363 . S
C374 H386 0.929 . S
C375 C374 1.363 . S
C375 N377 1.375 . S
C375 H393 0.931 . S
C376 N373 1.311 . S
C376 N377 1.347 . S
C376 H387 0.929 . S
N377 C375 1.375 . S
N377 C376 1.347 . S
C378 C381 1.365 . S
C378 N383 1.328 . S
C378 H384 0.929 . S
C379 C380 1.362 . S
C379 C382 1.378 . S
C379 H394 0.929 . S
C380 C379 1.362 . S
C380 C381 1.366 . S
C381 C378 1.365 . S
C381 C380 1.366 . S
C381 H395 0.930 . S
C382 C379 1.378 . S
C382 N383 1.315 . S
C382 H385 0.930 . S
N383 Co363 2.194 . S
N383 C378 1.328 . S
N383 C382 1.315 . S
H384 C378 0.929 . S
H385 C382 0.930 . S
H386 C374 0.929 . S
H387 C376 0.929 . S
O388 Co363 2.351 . S
O388 C391 1.244 . S
O389 Co363 2.155 . S
O389 C391 1.240 . S
O390 Co363 2.096 . S
O390 C371 1.247 . S
C391 O388 1.244 . S
C391 O389 1.240 . S
H392 C366 0.931 . S
H393 C375 0.931 . S
H394 C379 0.929 . S
H395 C381 0.930 . S
Co396 N400 2.148 . S
Co396 N406 2.128 . S
Co396 N416 2.194 . S
Co396 O421 2.351 . S
Co396 O422 2.155 . S
Co396 O423 2.096 . S
C397 N400 1.301 . S
C397 N401 1.328 . S
C397 H402 0.930 . S
C398 C399 1.333 . S
C398 N400 1.317 . S
C398 H403 0.930 . S
C399 C398 1.333 . S
C399 N401 1.350 . S
C399 H425 0.931 . S
N400 Co396 2.148 . S
N400 C397 1.301 . S
N400 C398 1.317 . S
N401 C397 1.328 . S
N401 C399 1.350 . S
H402 C397 0.930 . S
H403 C398 0.930 . S
C404 O405 1.224 . S
C404 O423 1.247 . S
O405 C404 1.224 . S
N406 Co396 2.128 . S
N406 C407 1.355 . S
N406 C409 1.311 . S
C407 N406 1.355 . S
C407 C408 1.363 . S
C407 H419 0.929 . S
C408 C407 1.363 . S
C408 N410 1.375 . S
C408 H426 0.931 . S
C409 N406 1.311 . S
C409 N410 1.347 . S
C409 H420 0.929 . S
N410 C408 1.375 . S
N410 C409 1.347 . S
C411 C414 1.365 . S
C411 N416 1.328 . S
C411 H417 0.929 . S
C412 C413 1.362 . S
C412 C415 1.378 . S
C412 H427 0.929 . S
C413 C412 1.362 . S
C413 C414 1.366 . S
C414 C411 1.365 . S
C414 C413 1.366 . S
C414 H428 0.930 . S
C415 C412 1.378 . S
C415 N416 1.315 . S
C415 H418 0.930 . S
N416 Co396 2.194 . S
N416 C411 1.328 . S
N416 C415 1.315 . S
H417 C411 0.929 . S
H418 C415 0.930 . S
H419 C407 0.929 . S
H420 C409 0.929 . S
O421 Co396 2.351 . S
O421 C424 1.244 . S
O422 Co396 2.155 . S
O422 C424 1.240 . S
O423 Co396 2.096 . S
O423 C404 1.247 . S
C424 O421 1.244 . S
C424 O422 1.240 . S
H425 C399 0.931 . S
H426 C408 0.931 . S
H427 C412 0.929 . S
H428 C414 0.930 . S
Co429 N433 2.148 . S
Co429 N439 2.128 . S
Co429 N449 2.194 . S
Co429 O454 2.351 . S
Co429 O455 2.155 . S
Co429 O456 2.096 . S
C430 N433 1.301 . S
C430 N434 1.328 . S
C430 H435 0.930 . S
C431 C432 1.333 . S
C431 N433 1.317 . S
C431 H436 0.930 . S
C432 C431 1.333 . S
C432 N434 1.350 . S
C432 H458 0.931 . S
N433 Co429 2.148 . S
N433 C430 1.301 . S
N433 C431 1.317 . S
N434 C430 1.328 . S
N434 C432 1.350 . S
H435 C430 0.930 . S
H436 C431 0.930 . S
C437 O438 1.224 . S
C437 O456 1.247 . S
O438 C437 1.224 . S
N439 Co429 2.128 . S
N439 C440 1.355 . S
N439 C442 1.311 . S
C440 N439 1.355 . S
C440 C441 1.363 . S
C440 H452 0.929 . S
C441 C440 1.363 . S
C441 N443 1.375 . S
C441 H459 0.931 . S
C442 N439 1.311 . S
C442 N443 1.347 . S
C442 H453 0.929 . S
N443 C441 1.375 . S
N443 C442 1.347 . S
C444 C447 1.365 . S
C444 N449 1.328 . S
C444 H450 0.929 . S
C445 C446 1.362 . S
C445 C448 1.378 . S
C445 H460 0.929 . S
C446 C445 1.362 . S
C446 C447 1.366 . S
C447 C444 1.365 . S
C447 C446 1.366 . S
C447 H461 0.930 . S
C448 C445 1.378 . S
C448 N449 1.315 . S
C448 H451 0.930 . S
N449 Co429 2.194 . S
N449 C444 1.328 . S
N449 C448 1.315 . S
H450 C444 0.929 . S
H451 C448 0.930 . S
H452 C440 0.929 . S
H453 C442 0.929 . S
O454 Co429 2.351 . S
O454 C457 1.244 . S
O455 Co429 2.155 . S
O455 C457 1.240 . S
O456 Co429 2.096 . S
O456 C437 1.247 . S
C457 O454 1.244 . S
C457 O455 1.240 . S
H458 C432 0.931 . S
H459 C441 0.931 . S
H460 C445 0.929 . S
H461 C447 0.930 . S
Co462 N466 2.148 . S
Co462 N472 2.128 . S
Co462 N482 2.194 . S
Co462 O487 2.351 . S
Co462 O488 2.155 . S
Co462 O489 2.096 . S
C463 N466 1.301 . S
C463 N467 1.328 . S
C463 H468 0.930 . S
C464 C465 1.333 . S
C464 N466 1.317 . S
C464 H469 0.930 . S
C465 C464 1.333 . S
C465 N467 1.350 . S
C465 H491 0.931 . S
N466 Co462 2.148 . S
N466 C463 1.301 . S
N466 C464 1.317 . S
N467 C463 1.328 . S
N467 C465 1.350 . S
H468 C463 0.930 . S
H469 C464 0.930 . S
C470 O471 1.224 . S
C470 O489 1.247 . S
O471 C470 1.224 . S
N472 Co462 2.128 . S
N472 C473 1.355 . S
N472 C475 1.311 . S
C473 N472 1.355 . S
C473 C474 1.363 . S
C473 H485 0.929 . S
C474 C473 1.363 . S
C474 N476 1.375 . S
C474 H492 0.931 . S
C475 N472 1.311 . S
C475 N476 1.347 . S
C475 H486 0.929 . S
N476 C474 1.375 . S
N476 C475 1.347 . S
C477 C480 1.365 . S
C477 N482 1.328 . S
C477 H483 0.929 . S
C478 C479 1.362 . S
C478 C481 1.378 . S
C478 H493 0.929 . S
C479 C478 1.362 . S
C479 C480 1.366 . S
C480 C477 1.365 . S
C480 C479 1.366 . S
C480 H494 0.930 . S
C481 C478 1.378 . S
C481 N482 1.315 . S
C481 H484 0.930 . S
N482 Co462 2.194 . S
N482 C477 1.328 . S
N482 C481 1.315 . S
H483 C477 0.929 . S
H484 C481 0.930 . S
H485 C473 0.929 . S
H486 C475 0.929 . S
O487 Co462 2.351 . S
O487 C490 1.244 . S
O488 Co462 2.155 . S
O488 C490 1.240 . S
O489 Co462 2.096 . S
O489 C470 1.247 . S
C490 O487 1.244 . S
C490 O488 1.240 . S
H491 C465 0.931 . S
H492 C474 0.931 . S
H493 C478 0.929 . S
H494 C480 0.930 . S
Co495 N499 2.148 . S
Co495 N505 2.128 . S
Co495 N515 2.194 . S
Co495 O520 2.351 . S
Co495 O521 2.155 . S
Co495 O522 2.096 . S
C496 N499 1.301 . S
C496 N500 1.328 . S
C496 H501 0.930 . S
C497 C498 1.333 . S
C497 N499 1.317 . S
C497 H502 0.930 . S
C498 C497 1.333 . S
C498 N500 1.350 . S
C498 H524 0.931 . S
N499 Co495 2.148 . S
N499 C496 1.301 . S
N499 C497 1.317 . S
N500 C496 1.328 . S
N500 C498 1.350 . S
H501 C496 0.930 . S
H502 C497 0.930 . S
C503 O504 1.224 . S
C503 O522 1.247 . S
O504 C503 1.224 . S
N505 Co495 2.128 . S
N505 C506 1.355 . S
N505 C508 1.311 . S
C506 N505 1.355 . S
C506 C507 1.363 . S
C506 H518 0.929 . S
C507 C506 1.363 . S
C507 N509 1.375 . S
C507 H525 0.931 . S
C508 N505 1.311 . S
C508 N509 1.347 . S
C508 H519 0.929 . S
N509 C507 1.375 . S
N509 C508 1.347 . S
C510 C513 1.365 . S
C510 N515 1.328 . S
C510 H516 0.929 . S
C511 C512 1.362 . S
C511 C514 1.378 . S
C511 H526 0.929 . S
C512 C511 1.362 . S
C512 C513 1.366 . S
C513 C510 1.365 . S
C513 C512 1.366 . S
C513 H527 0.930 . S
C514 C511 1.378 . S
C514 N515 1.315 . S
C514 H517 0.930 . S
N515 Co495 2.194 . S
N515 C510 1.328 . S
N515 C514 1.315 . S
H516 C510 0.929 . S
H517 C514 0.930 . S
H518 C506 0.929 . S
H519 C508 0.929 . S
O520 Co495 2.351 . S
O520 C523 1.244 . S
O521 Co495 2.155 . S
O521 C523 1.240 . S
O522 Co495 2.096 . S
O522 C503 1.247 . S
C523 O520 1.244 . S
C523 O521 1.240 . S
H524 C498 0.931 . S
H525 C507 0.931 . S
H526 C511 0.929 . S
H527 C513 0.930 . S
H528 C534 0.930 . S
H529 C538 0.930 . S
H530 C543 0.929 . S
H531 C541 0.929 . S
H532 C536 0.929 . S
H533 C542 0.929 . S
C534 H528 0.930 . S
C534 C535 1.367 . S
C534 C542 1.378 . S
C535 C534 1.367 . S
C535 C543 1.433 . S
C536 H532 0.929 . S
C536 C538 1.378 . S
C536 C540 1.350 . S
C537 C540 1.463 . S
C537 C542 1.350 . S
C537 N545 1.427 . S
C538 H529 0.930 . S
C538 C536 1.378 . S
C538 C539 1.367 . S
C539 C538 1.367 . S
C539 C541 1.433 . S
C540 C536 1.350 . S
C540 C537 1.463 . S
C540 N544 1.427 . S
C541 H531 0.929 . S
C541 C539 1.433 . S
C541 N544 1.384 . S
C542 H533 0.929 . S
C542 C534 1.378 . S
C542 C537 1.350 . S
C543 H530 0.929 . S
C543 C535 1.433 . S
C543 N545 1.384 . S
N544 C540 1.427 . S
N544 C541 1.384 . S
N545 C537 1.427 . S
N545 C543 1.384 . S
H546 C552 0.930 . S
H547 C556 0.930 . S
H548 C561 0.929 . S
H549 C559 0.929 . S
H550 C554 0.929 . S
H551 C560 0.929 . S
C552 H546 0.930 . S
C552 C553 1.367 . S
C552 C560 1.378 . S
C553 C552 1.367 . S
C553 C561 1.433 . S
C554 H550 0.929 . S
C554 C556 1.378 . S
C554 C558 1.350 . S
C555 C558 1.463 . S
C555 C560 1.350 . S
C555 N563 1.427 . S
C556 H547 0.930 . S
C556 C554 1.378 . S
C556 C557 1.367 . S
C557 C556 1.367 . S
C557 C559 1.433 . S
C558 C554 1.350 . S
C558 C555 1.463 . S
C558 N562 1.427 . S
C559 H549 0.929 . S
C559 C557 1.433 . S
C559 N562 1.384 . S
C560 H551 0.929 . S
C560 C552 1.378 . S
C560 C555 1.350 . S
C561 H548 0.929 . S
C561 C553 1.433 . S
C561 N563 1.384 . S
N562 C558 1.427 . S
N562 C559 1.384 . S
N563 C555 1.427 . S
N563 C561 1.384 . S
H564 C570 0.930 . S
H565 C574 0.930 . S
H566 C579 0.929 . S
H567 C577 0.929 . S
H568 C572 0.929 . S
H569 C578 0.929 . S
C570 H564 0.930 . S
C570 C571 1.367 . S
C570 C578 1.378 . S
C571 C570 1.367 . S
C571 C579 1.433 . S
C572 H568 0.929 . S
C572 C574 1.378 . S
C572 C576 1.350 . S
C573 C576 1.463 . S
C573 C578 1.350 . S
C573 N581 1.427 . S
C574 H565 0.930 . S
C574 C572 1.378 . S
C574 C575 1.367 . S
C575 C574 1.367 . S
C575 C577 1.433 . S
C576 C572 1.350 . S
C576 C573 1.463 . S
C576 N580 1.427 . S
C577 H567 0.929 . S
C577 C575 1.433 . S
C577 N580 1.384 . S
C578 H569 0.929 . S
C578 C570 1.378 . S
C578 C573 1.350 . S
C579 H566 0.929 . S
C579 C571 1.433 . S
C579 N581 1.384 . S
N580 C576 1.427 . S
N580 C577 1.384 . S
N581 C573 1.427 . S
N581 C579 1.384 . S
H582 C588 0.930 . S
H583 C592 0.930 . S
H584 C597 0.929 . S
H585 C595 0.929 . S
H586 C590 0.929 . S
H587 C596 0.929 . S
C588 H582 0.930 . S
C588 C589 1.367 . S
C588 C596 1.378 . S
C589 C588 1.367 . S
C589 C597 1.433 . S
C590 H586 0.929 . S
C590 C592 1.378 . S
C590 C594 1.350 . S
C591 C594 1.463 . S
C591 C596 1.350 . S
C591 N599 1.427 . S
C592 H583 0.930 . S
C592 C590 1.378 . S
C592 C593 1.367 . S
C593 C592 1.367 . S
C593 C595 1.433 . S
C594 C590 1.350 . S
C594 C591 1.463 . S
C594 N598 1.427 . S
C595 H585 0.929 . S
C595 C593 1.433 . S
C595 N598 1.384 . S
C596 H587 0.929 . S
C596 C588 1.378 . S
C596 C591 1.350 . S
C597 H584 0.929 . S
C597 C589 1.433 . S
C597 N599 1.384 . S
N598 C594 1.427 . S
N598 C595 1.384 . S
N599 C591 1.427 . S
N599 C597 1.384 . S
H600 C606 0.930 . S
H601 C610 0.930 . S
H602 C615 0.929 . S
H603 C613 0.929 . S
H604 C608 0.929 . S
H605 C614 0.929 . S
C606 H600 0.930 . S
C606 C607 1.367 . S
C606 C614 1.378 . S
C607 C606 1.367 . S
C607 C615 1.433 . S
C608 H604 0.929 . S
C608 C610 1.378 . S
C608 C612 1.350 . S
C609 C612 1.463 . S
C609 C614 1.350 . S
C609 N617 1.427 . S
C610 H601 0.930 . S
C610 C608 1.378 . S
C610 C611 1.367 . S
C611 C610 1.367 . S
C611 C613 1.433 . S
C612 C608 1.350 . S
C612 C609 1.463 . S
C612 N616 1.427 . S
C613 H603 0.929 . S
C613 C611 1.433 . S
C613 N616 1.384 . S
C614 H605 0.929 . S
C614 C606 1.378 . S
C614 C609 1.350 . S
C615 H602 0.929 . S
C615 C607 1.433 . S
C615 N617 1.384 . S
N616 C612 1.427 . S
N616 C613 1.384 . S
N617 C609 1.427 . S
N617 C615 1.384 . S
H618 C624 0.930 . S
H619 C628 0.930 . S
H620 C633 0.929 . S
H621 C631 0.929 . S
H622 C626 0.929 . S
H623 C632 0.929 . S
C624 H618 0.930 . S
C624 C625 1.367 . S
C624 C632 1.378 . S
C625 C624 1.367 . S
C625 C633 1.433 . S
C626 H622 0.929 . S
C626 C628 1.378 . S
C626 C630 1.350 . S
C627 C630 1.463 . S
C627 C632 1.350 . S
C627 N635 1.427 . S
C628 H619 0.930 . S
C628 C626 1.378 . S
C628 C629 1.367 . S
C629 C628 1.367 . S
C629 C631 1.433 . S
C630 C626 1.350 . S
C630 C627 1.463 . S
C630 N634 1.427 . S
C631 H621 0.929 . S
C631 C629 1.433 . S
C631 N634 1.384 . S
C632 H623 0.929 . S
C632 C624 1.378 . S
C632 C627 1.350 . S
C633 H620 0.929 . S
C633 C625 1.433 . S
C633 N635 1.384 . S
N634 C630 1.427 . S
N634 C631 1.384 . S
N635 C627 1.427 . S
N635 C633 1.384 . S
H636 C642 0.930 . S
H637 C646 0.930 . S
H638 C651 0.929 . S
H639 C649 0.929 . S
H640 C644 0.929 . S
H641 C650 0.929 . S
C642 H636 0.930 . S
C642 C643 1.367 . S
C642 C650 1.378 . S
C643 C642 1.367 . S
C643 C651 1.433 . S
C644 H640 0.929 . S
C644 C646 1.378 . S
C644 C648 1.350 . S
C645 C648 1.463 . S
C645 C650 1.350 . S
C645 N653 1.427 . S
C646 H637 0.930 . S
C646 C644 1.378 . S
C646 C647 1.367 . S
C647 C646 1.367 . S
C647 C649 1.433 . S
C648 C644 1.350 . S
C648 C645 1.463 . S
C648 N652 1.427 . S
C649 H639 0.929 . S
C649 C647 1.433 . S
C649 N652 1.384 . S
C650 H641 0.929 . S
C650 C642 1.378 . S
C650 C645 1.350 . S
C651 H638 0.929 . S
C651 C643 1.433 . S
C651 N653 1.384 . S
N652 C648 1.427 . S
N652 C649 1.384 . S
N653 C645 1.427 . S
N653 C651 1.384 . S
H654 C660 0.930 . S
H655 C664 0.930 . S
H656 C669 0.929 . S
H657 C667 0.929 1_556 S
H658 C662 0.929 . S
H659 C668 0.929 . S
C660 H654 0.930 . S
C660 C661 1.367 . S
C660 C668 1.378 . S
C661 C660 1.367 . S
C661 C669 1.433 . S
C662 H658 0.929 . S
C662 C664 1.378 . S
C662 C666 1.350 . S
C663 C666 1.463 . S
C663 C668 1.350 . S
C663 N671 1.427 . S
C664 H655 0.930 . S
C664 C662 1.378 . S
C664 C665 1.367 . S
C665 C664 1.367 . S
C665 C667 1.433 . S
C666 C662 1.350 . S
C666 C663 1.463 . S
C666 N670 1.427 . S
C667 H657 0.929 1_554 S
C667 C665 1.433 . S
C667 N670 1.384 . S
C668 H659 0.929 . S
C668 C660 1.378 . S
C668 C663 1.350 . S
C669 H656 0.929 . S
C669 C661 1.433 . S
C669 N671 1.384 . S
N670 C666 1.427 . S
N670 C667 1.384 . S
N671 C663 1.427 . S
N671 C669 1.384 . S
H672 C678 0.930 . S
H673 C682 0.930 . S
H674 C687 0.929 . S
H675 C685 0.929 . S
H676 C680 0.929 . S
H677 C686 0.929 . S
C678 H672 0.930 . S
C678 C679 1.367 . S
C678 C686 1.378 . S
C679 C678 1.367 . S
C679 C687 1.433 . S
C680 H676 0.929 . S
C680 C682 1.378 . S
C680 C684 1.350 . S
C681 C684 1.463 . S
C681 C686 1.350 . S
C681 N689 1.427 . S
C682 H673 0.930 . S
C682 C680 1.378 . S
C682 C683 1.367 . S
C683 C682 1.367 . S
C683 C685 1.433 . S
C684 C680 1.350 . S
C684 C681 1.463 . S
C684 N688 1.427 . S
C685 H675 0.929 . S
C685 C683 1.433 . S
C685 N688 1.384 . S
C686 H677 0.929 . S
C686 C678 1.378 . S
C686 C681 1.350 . S
C687 H674 0.929 . S
C687 C679 1.433 . S
C687 N689 1.384 . S
N688 C684 1.427 . S
N688 C685 1.384 . S
N689 C681 1.427 . S
N689 C687 1.384 . S
H690 C696 0.930 . S
H691 C700 0.930 . S
H692 C705 0.929 . S
H693 C703 0.929 . S
H694 C698 0.929 . S
H695 C704 0.929 . S
C696 H690 0.930 . S
C696 C697 1.367 . S
C696 C704 1.378 . S
C697 C696 1.367 . S
C697 C705 1.433 . S
C698 H694 0.929 . S
C698 C700 1.378 . S
C698 C702 1.350 . S
C699 C702 1.463 . S
C699 C704 1.350 . S
C699 N707 1.427 . S
C700 H691 0.930 . S
C700 C698 1.378 . S
C700 C701 1.367 . S
C701 C700 1.367 . S
C701 C703 1.433 . S
C702 C698 1.350 . S
C702 C699 1.463 . S
C702 N706 1.427 . S
C703 H693 0.929 . S
C703 C701 1.433 . S
C703 N706 1.384 . S
C704 H695 0.929 . S
C704 C696 1.378 . S
C704 C699 1.350 . S
C705 H692 0.929 . S
C705 C697 1.433 . S
C705 N707 1.384 . S
N706 C702 1.427 . S
N706 C703 1.384 . S
N707 C699 1.427 . S
N707 C705 1.384 . S
H708 C714 0.930 . S
H709 C718 0.930 . S
H710 C723 0.929 . S
H711 C721 0.929 . S
H712 C716 0.929 . S
H713 C722 0.929 . S
C714 H708 0.930 . S
C714 C715 1.367 . S
C714 C722 1.378 . S
C715 C714 1.367 . S
C715 C723 1.433 . S
C716 H712 0.929 . S
C716 C718 1.378 . S
C716 C720 1.350 . S
C717 C720 1.463 . S
C717 C722 1.350 . S
C717 N725 1.427 . S
C718 H709 0.930 . S
C718 C716 1.378 . S
C718 C719 1.367 . S
C719 C718 1.367 . S
C719 C721 1.433 . S
C720 C716 1.350 . S
C720 C717 1.463 . S
C720 N724 1.427 . S
C721 H711 0.929 . S
C721 C719 1.433 . S
C721 N724 1.384 . S
C722 H713 0.929 . S
C722 C714 1.378 . S
C722 C717 1.350 . S
C723 H710 0.929 . S
C723 C715 1.433 . S
C723 N725 1.384 . S
N724 C720 1.427 . S
N724 C721 1.384 . S
N725 C717 1.427 . S
N725 C723 1.384 . S
H726 C732 0.930 . S
H727 C736 0.930 . S
H728 C741 0.929 . S
H729 C739 0.929 . S
H730 C734 0.929 . S
H731 C740 0.929 . S
C732 H726 0.930 . S
C732 C733 1.367 . S
C732 C740 1.378 . S
C733 C732 1.367 . S
C733 C741 1.433 . S
C734 H730 0.929 . S
C734 C736 1.378 . S
C734 C738 1.350 . S
C735 C738 1.463 . S
C735 C740 1.350 . S
C735 N743 1.427 . S
C736 H727 0.930 . S
C736 C734 1.378 . S
C736 C737 1.367 . S
C737 C736 1.367 . S
C737 C739 1.433 . S
C738 C734 1.350 . S
C738 C735 1.463 . S
C738 N742 1.427 . S
C739 H729 0.929 . S
C739 C737 1.433 . S
C739 N742 1.384 . S
C740 H731 0.929 . S
C740 C732 1.378 . S
C740 C735 1.350 . S
C741 H728 0.929 . S
C741 C733 1.433 . S
C741 N743 1.384 . S
N742 C738 1.427 . S
N742 C739 1.384 . S
N743 C735 1.427 . S
N743 C741 1.384 . S
H744 C750 0.930 . S
H745 C754 0.930 . S
H746 C759 0.929 . S
H747 C757 0.929 . S
H748 C752 0.929 . S
H749 C758 0.929 . S
C750 H744 0.930 . S
C750 C751 1.367 . S
C750 C758 1.378 . S
C751 C750 1.367 . S
C751 C759 1.433 . S
C752 H748 0.929 . S
C752 C754 1.378 . S
C752 C756 1.350 . S
C753 C756 1.463 . S
C753 C758 1.350 . S
C753 N761 1.427 . S
C754 H745 0.930 . S
C754 C752 1.378 . S
C754 C755 1.367 . S
C755 C754 1.367 . S
C755 C757 1.433 . S
C756 C752 1.350 . S
C756 C753 1.463 . S
C756 N760 1.427 . S
C757 H747 0.929 . S
C757 C755 1.433 . S
C757 N760 1.384 . S
C758 H749 0.929 . S
C758 C750 1.378 . S
C758 C753 1.350 . S
C759 H746 0.929 . S
C759 C751 1.433 . S
C759 N761 1.384 . S
N760 C756 1.427 . S
N760 C757 1.384 . S
N761 C753 1.427 . S
N761 C759 1.384 . S
H762 C768 0.930 . S
H763 C772 0.930 . S
H764 C777 0.929 . S
H765 C775 0.929 . S
H766 C770 0.929 . S
H767 C776 0.929 . S
C768 H762 0.930 . S
C768 C769 1.367 . S
C768 C776 1.378 . S
C769 C768 1.367 . S
C769 C777 1.433 . S
C770 H766 0.929 . S
C770 C772 1.378 . S
C770 C774 1.350 . S
C771 C774 1.463 . S
C771 C776 1.350 . S
C771 N779 1.427 . S
C772 H763 0.930 . S
C772 C770 1.378 . S
C772 C773 1.367 . S
C773 C772 1.367 . S
C773 C775 1.433 . S
C774 C770 1.350 . S
C774 C771 1.463 . S
C774 N778 1.427 . S
C775 H765 0.929 . S
C775 C773 1.433 . S
C775 N778 1.384 . S
C776 H767 0.929 . S
C776 C768 1.378 . S
C776 C771 1.350 . S
C777 H764 0.929 . S
C777 C769 1.433 . S
C777 N779 1.384 . S
N778 C774 1.427 . S
N778 C775 1.384 . S
N779 C771 1.427 . S
N779 C777 1.384 . S
H780 C786 0.930 . S
H781 C790 0.930 . S
H782 C795 0.929 . S
H783 C793 0.929 . S
H784 C788 0.929 . S
H785 C794 0.929 . S
C786 H780 0.930 . S
C786 C787 1.367 . S
C786 C794 1.378 . S
C787 C786 1.367 . S
C787 C795 1.433 . S
C788 H784 0.929 . S
C788 C790 1.378 . S
C788 C792 1.350 . S
C789 C792 1.463 . S
C789 C794 1.350 . S
C789 N797 1.427 . S
C790 H781 0.930 . S
C790 C788 1.378 . S
C790 C791 1.367 . S
C791 C790 1.367 . S
C791 C793 1.433 . S
C792 C788 1.350 . S
C792 C789 1.463 . S
C792 N796 1.427 . S
C793 H783 0.929 . S
C793 C791 1.433 . S
C793 N796 1.384 . S
C794 H785 0.929 . S
C794 C786 1.378 . S
C794 C789 1.350 . S
C795 H782 0.929 . S
C795 C787 1.433 . S
C795 N797 1.384 . S
N796 C792 1.427 . S
N796 C793 1.384 . S
N797 C789 1.427 . S
N797 C795 1.384 . S
H798 C804 0.930 . S
H799 C808 0.930 . S
H800 C813 0.929 . S
H801 C811 0.929 . S
H802 C806 0.929 . S
H803 C812 0.929 . S
C804 H798 0.930 . S
C804 C805 1.367 . S
C804 C812 1.378 . S
C805 C804 1.367 . S
C805 C813 1.433 . S
C806 H802 0.929 . S
C806 C808 1.378 . S
C806 C810 1.350 . S
C807 C810 1.463 . S
C807 C812 1.350 . S
C807 N815 1.427 . S
C808 H799 0.930 . S
C808 C806 1.378 . S
C808 C809 1.367 . S
C809 C808 1.367 . S
C809 C811 1.433 . S
C810 C806 1.350 . S
C810 C807 1.463 . S
C810 N814 1.427 . S
C811 H801 0.929 . S
C811 C809 1.433 . S
C811 N814 1.384 . S
C812 H803 0.929 . S
C812 C804 1.378 . S
C812 C807 1.350 . S
C813 H800 0.929 . S
C813 C805 1.433 . S
C813 N815 1.384 . S
N814 C810 1.427 . S
N814 C811 1.384 . S
N815 C807 1.427 . S
N815 C813 1.384 . S
H816 C822 0.930 . S
H817 C826 0.930 . S
H818 C831 0.929 . S
H819 C829 0.929 . S
H820 C824 0.929 . S
H821 C830 0.929 . S
C822 H816 0.930 . S
C822 C823 1.367 . S
C822 C830 1.378 . S
C823 C822 1.367 . S
C823 C831 1.433 . S
C824 H820 0.929 . S
C824 C826 1.378 . S
C824 C828 1.350 . S
C825 C828 1.463 . S
C825 C830 1.350 . S
C825 N833 1.427 . S
C826 H817 0.930 . S
C826 C824 1.378 . S
C826 C827 1.367 . S
C827 C826 1.367 . S
C827 C829 1.433 . S
C828 C824 1.350 . S
C828 C825 1.463 . S
C828 N832 1.427 . S
C829 H819 0.929 . S
C829 C827 1.433 . S
C829 N832 1.384 . S
C830 H821 0.929 . S
C830 C822 1.378 . S
C830 C825 1.350 . S
C831 H818 0.929 . S
C831 C823 1.433 . S
C831 N833 1.384 . S
N832 C828 1.427 . S
N832 C829 1.384 . S
N833 C825 1.427 . S
N833 C831 1.384 . S
H834 C840 0.930 . S
H835 C844 0.930 . S
H836 C849 0.929 . S
H837 C847 0.929 . S
H838 C842 0.929 . S
H839 C848 0.929 . S
C840 H834 0.930 . S
C840 C841 1.367 . S
C840 C848 1.378 . S
C841 C840 1.367 . S
C841 C849 1.433 . S
C842 H838 0.929 . S
C842 C844 1.378 . S
C842 C846 1.350 . S
C843 C846 1.463 . S
C843 C848 1.350 . S
C843 N851 1.427 . S
C844 H835 0.930 . S
C844 C842 1.378 . S
C844 C845 1.367 . S
C845 C844 1.367 . S
C845 C847 1.433 . S
C846 C842 1.350 . S
C846 C843 1.463 . S
C846 N850 1.427 . S
C847 H837 0.929 . S
C847 C845 1.433 . S
C847 N850 1.384 . S
C848 H839 0.929 . S
C848 C840 1.378 . S
C848 C843 1.350 . S
C849 H836 0.929 . S
C849 C841 1.433 . S
C849 N851 1.384 . S
N850 C846 1.427 . S
N850 C847 1.384 . S
N851 C843 1.427 . S
N851 C849 1.384 . S
H852 C858 0.930 . S
H853 C862 0.930 . S
H854 C867 0.929 1_554 S
H855 C865 0.929 . S
H856 C860 0.929 . S
H857 C866 0.929 . S
C858 H852 0.930 . S
C858 C859 1.367 . S
C858 C866 1.378 . S
C859 C858 1.367 . S
C859 C867 1.433 . S
C860 H856 0.929 . S
C860 C862 1.378 . S
C860 C864 1.350 . S
C861 C864 1.463 . S
C861 C866 1.350 . S
C861 N869 1.427 . S
C862 H853 0.930 . S
C862 C860 1.378 . S
C862 C863 1.367 . S
C863 C862 1.367 . S
C863 C865 1.433 . S
C864 C860 1.350 . S
C864 C861 1.463 . S
C864 N868 1.427 . S
C865 H855 0.929 . S
C865 C863 1.433 . S
C865 N868 1.384 . S
C866 H857 0.929 . S
C866 C858 1.378 . S
C866 C861 1.350 . S
C867 H854 0.929 1_556 S
C867 C859 1.433 . S
C867 N869 1.384 . S
N868 C864 1.427 . S
N868 C865 1.384 . S
N869 C861 1.427 . S
N869 C867 1.384 . S
H870 C876 0.930 . S
H871 C880 0.930 . S
H872 C885 0.929 . S
H873 C883 0.929 1_556 S
H874 C878 0.929 . S
H875 C884 0.929 . S
C876 H870 0.930 . S
C876 C877 1.367 . S
C876 C884 1.378 . S
C877 C876 1.367 . S
C877 C885 1.433 . S
C878 H874 0.929 . S
C878 C880 1.378 . S
C878 C882 1.350 . S
C879 C882 1.463 . S
C879 C884 1.350 . S
C879 N887 1.427 . S
C880 H871 0.930 . S
C880 C878 1.378 . S
C880 C881 1.367 . S
C881 C880 1.367 . S
C881 C883 1.433 . S
C882 C878 1.350 . S
C882 C879 1.463 . S
C882 N886 1.427 . S
C883 H873 0.929 1_554 S
C883 C881 1.433 . S
C883 N886 1.384 . S
C884 H875 0.929 . S
C884 C876 1.378 . S
C884 C879 1.350 . S
C885 H872 0.929 . S
C885 C877 1.433 . S
C885 N887 1.384 . S
N886 C882 1.427 . S
N886 C883 1.384 . S
N887 C879 1.427 . S
N887 C885 1.384 . S
H888 C894 0.930 . S
H889 C898 0.930 . S
H890 C903 0.929 . S
H891 C901 0.929 . S
H892 C896 0.929 . S
H893 C902 0.929 . S
C894 H888 0.930 . S
C894 C895 1.367 . S
C894 C902 1.378 . S
C895 C894 1.367 . S
C895 C903 1.433 . S
C896 H892 0.929 . S
C896 C898 1.378 . S
C896 C900 1.350 . S
C897 C900 1.463 . S
C897 C902 1.350 . S
C897 N905 1.427 . S
C898 H889 0.930 . S
C898 C896 1.378 . S
C898 C899 1.367 . S
C899 C898 1.367 . S
C899 C901 1.433 . S
C900 C896 1.350 . S
C900 C897 1.463 . S
C900 N904 1.427 . S
C901 H891 0.929 . S
C901 C899 1.433 . S
C901 N904 1.384 . S
C902 H893 0.929 . S
C902 C894 1.378 . S
C902 C897 1.350 . S
C903 H890 0.929 . S
C903 C895 1.433 . S
C903 N905 1.384 . S
N904 C900 1.427 . S
N904 C901 1.384 . S
N905 C897 1.427 . S
N905 C903 1.384 . S
H906 C912 0.930 . S
H907 C916 0.930 . S
H908 C921 0.929 . S
H909 C919 0.929 . S
H910 C914 0.929 . S
H911 C920 0.929 . S
C912 H906 0.930 . S
C912 C913 1.367 . S
C912 C920 1.378 . S
C913 C912 1.367 . S
C913 C921 1.433 . S
C914 H910 0.929 . S
C914 C916 1.378 . S
C914 C918 1.350 . S
C915 C918 1.463 . S
C915 C920 1.350 . S
C915 N923 1.427 . S
C916 H907 0.930 . S
C916 C914 1.378 . S
C916 C917 1.367 . S
C917 C916 1.367 . S
C917 C919 1.433 . S
C918 C914 1.350 . S
C918 C915 1.463 . S
C918 N922 1.427 . S
C919 H909 0.929 . S
C919 C917 1.433 . S
C919 N922 1.384 . S
C920 H911 0.929 . S
C920 C912 1.378 . S
C920 C915 1.350 . S
C921 H908 0.929 . S
C921 C913 1.433 . S
C921 N923 1.384 . S
N922 C918 1.427 . S
N922 C919 1.384 . S
N923 C915 1.427 . S
N923 C921 1.384 . S
H924 C930 0.930 . S
H925 C934 0.930 . S
H926 C939 0.929 . S
H927 C937 0.929 . S
H928 C932 0.929 . S
H929 C938 0.929 . S
C930 H924 0.930 . S
C930 C931 1.367 . S
C930 C938 1.378 . S
C931 C930 1.367 . S
C931 C939 1.433 . S
C932 H928 0.929 . S
C932 C934 1.378 . S
C932 C936 1.350 . S
C933 C936 1.463 . S
C933 C938 1.350 . S
C933 N941 1.427 . S
C934 H925 0.930 . S
C934 C932 1.378 . S
C934 C935 1.367 . S
C935 C934 1.367 . S
C935 C937 1.433 . S
C936 C932 1.350 . S
C936 C933 1.463 . S
C936 N940 1.427 . S
C937 H927 0.929 . S
C937 C935 1.433 . S
C937 N940 1.384 . S
C938 H929 0.929 . S
C938 C930 1.378 . S
C938 C933 1.350 . S
C939 H926 0.929 . S
C939 C931 1.433 . S
C939 N941 1.384 . S
N940 C936 1.427 . S
N940 C937 1.384 . S
N941 C933 1.427 . S
N941 C939 1.384 . S
H942 C948 0.930 . S
H943 C952 0.930 . S
H944 C957 0.929 . S
H945 C955 0.929 . S
H946 C950 0.929 . S
H947 C956 0.929 . S
C948 H942 0.930 . S
C948 C949 1.367 . S
C948 C956 1.378 . S
C949 C948 1.367 . S
C949 C957 1.433 . S
C950 H946 0.929 . S
C950 C952 1.378 . S
C950 C954 1.350 . S
C951 C954 1.463 . S
C951 C956 1.350 . S
C951 N959 1.427 . S
C952 H943 0.930 . S
C952 C950 1.378 . S
C952 C953 1.367 . S
C953 C952 1.367 . S
C953 C955 1.433 . S
C954 C950 1.350 . S
C954 C951 1.463 . S
C954 N958 1.427 . S
C955 H945 0.929 . S
C955 C953 1.433 . S
C955 N958 1.384 . S
C956 H947 0.929 . S
C956 C948 1.378 . S
C956 C951 1.350 . S
C957 H944 0.929 . S
C957 C949 1.433 . S
C957 N959 1.384 . S
N958 C954 1.427 . S
N958 C955 1.384 . S
N959 C951 1.427 . S
N959 C957 1.384 . S
H960 C966 0.930 . S
H961 C970 0.930 . S
H962 C975 0.929 1_545 S
H963 C973 0.929 . S
H964 C968 0.929 . S
H965 C974 0.929 . S
C966 H960 0.930 . S
C966 C967 1.367 1_565 S
C966 C974 1.378 . S
C967 C966 1.367 1_545 S
C967 C975 1.433 1_545 S
C968 H964 0.929 . S
C968 C970 1.378 . S
C968 C972 1.350 . S
C969 C972 1.463 . S
C969 C974 1.350 . S
C969 N977 1.427 . S
C970 H961 0.930 . S
C970 C968 1.378 . S
C970 C971 1.367 . S
C971 C970 1.367 . S
C971 C973 1.433 . S
C972 C968 1.350 . S
C972 C969 1.463 . S
C972 N976 1.427 . S
C973 H963 0.929 . S
C973 C971 1.433 . S
C973 N976 1.384 . S
C974 H965 0.929 . S
C974 C966 1.378 . S
C974 C969 1.350 . S
C975 H962 0.929 1_565 S
C975 C967 1.433 1_565 S
C975 N977 1.384 . S
N976 C972 1.427 . S
N976 C973 1.384 . S
N977 C969 1.427 . S
N977 C975 1.384 . S
H978 C984 0.930 . S
H979 C988 0.930 . S
H980 C993 0.929 . S
H981 C991 0.929 . S
H982 C986 0.929 . S
H983 C992 0.929 . S
C984 H978 0.930 . S
C984 C985 1.367 . S
C984 C992 1.378 . S
C985 C984 1.367 . S
C985 C993 1.433 . S
C986 H982 0.929 . S
C986 C988 1.378 . S
C986 C990 1.350 . S
C987 C990 1.463 . S
C987 C992 1.350 . S
C987 N995 1.427 . S
C988 H979 0.930 . S
C988 C986 1.378 . S
C988 C989 1.367 1_655 S
C989 C988 1.367 1_455 S
C989 C991 1.433 1_455 S
C990 C986 1.350 . S
C990 C987 1.463 . S
C990 N994 1.427 . S
C991 H981 0.929 . S
C991 C989 1.433 1_655 S
C991 N994 1.384 . S
C992 H983 0.929 . S
C992 C984 1.378 . S
C992 C987 1.350 . S
C993 H980 0.929 . S
C993 C985 1.433 . S
C993 N995 1.384 . S
N994 C990 1.427 . S
N994 C991 1.384 . S
N995 C987 1.427 . S
N995 C993 1.384 . S
H996 C1002 0.930 . S
H997 C1006 0.930 . S
H998 C1011 0.929 1_565 S
H999 C1009 0.929 . S
H1000 C1004 0.929 . S
H1001 C1010 0.929 . S
C1002 H996 0.930 . S
C1002 C1003 1.367 1_545 S
C1002 C1010 1.378 . S
C1003 C1002 1.367 1_565 S
C1003 C1011 1.433 1_565 S
C1004 H1000 0.929 . S
C1004 C1006 1.378 . S
C1004 C1008 1.350 . S
C1005 C1008 1.463 . S
C1005 C1010 1.350 . S
C1005 N1013 1.427 . S
C1006 H997 0.930 . S
C1006 C1004 1.378 . S
C1006 C1007 1.367 . S
C1007 C1006 1.367 . S
C1007 C1009 1.433 . S
C1008 C1004 1.350 . S
C1008 C1005 1.463 . S
C1008 N1012 1.427 . S
C1009 H999 0.929 . S
C1009 C1007 1.433 . S
C1009 N1012 1.384 . S
C1010 H1001 0.929 . S
C1010 C1002 1.378 . S
C1010 C1005 1.350 . S
C1011 H998 0.929 1_545 S
C1011 C1003 1.433 1_545 S
C1011 N1013 1.384 . S
N1012 C1008 1.427 . S
N1012 C1009 1.384 . S
N1013 C1005 1.427 . S
N1013 C1011 1.384 . S
H1014 C1020 0.930 . S
H1015 C1024 0.930 1_655 S
H1016 C1029 0.929 . S
H1017 C1027 0.929 . S
H1018 C1022 0.929 . S
H1019 C1028 0.929 . S
C1020 H1014 0.930 . S
C1020 C1021 1.367 . S
C1020 C1028 1.378 . S
C1021 C1020 1.367 . S
C1021 C1029 1.433 . S
C1022 H1018 0.929 . S
C1022 C1024 1.378 . S
C1022 C1026 1.350 . S
C1023 C1026 1.463 . S
C1023 C1028 1.350 . S
C1023 N1031 1.427 . S
C1024 H1015 0.930 1_455 S
C1024 C1022 1.378 . S
C1024 C1025 1.367 1_455 S
C1025 C1024 1.367 1_655 S
C1025 C1027 1.433 1_655 S
C1026 C1022 1.350 . S
C1026 C1023 1.463 . S
C1026 N1030 1.427 . S
C1027 H1017 0.929 . S
C1027 C1025 1.433 1_455 S
C1027 N1030 1.384 . S
C1028 H1019 0.929 . S
C1028 C1020 1.378 . S
C1028 C1023 1.350 . S
C1029 H1016 0.929 . S
C1029 C1021 1.433 . S
C1029 N1031 1.384 . S
N1030 C1026 1.427 . S
N1030 C1027 1.384 . S
N1031 C1023 1.427 . S
N1031 C1029 1.384 . S
H1032 C1038 0.930 . S
H1033 C1042 0.931 . S
H1034 C1047 0.929 . S
H1035 C1045 0.929 . S
H1036 C1040 0.929 . S
H1037 C1046 0.929 1_554 S
C1038 H1032 0.930 . S
C1038 C1039 1.367 . S
C1038 C1046 1.378 . S
C1039 C1038 1.367 . S
C1039 C1047 1.433 . S
C1040 H1036 0.929 . S
C1040 C1042 1.378 1_556 S
C1040 C1044 1.350 . S
C1041 C1044 1.463 . S
C1041 C1046 1.350 . S
C1041 N1049 1.427 . S
C1042 H1033 0.931 . S
C1042 C1040 1.378 1_554 S
C1042 C1043 1.367 . S
C1043 C1042 1.367 . S
C1043 C1045 1.433 . S
C1044 C1040 1.350 . S
C1044 C1041 1.463 . S
C1044 N1048 1.427 1_556 S
C1045 H1035 0.929 . S
C1045 C1043 1.433 . S
C1045 N1048 1.384 . S
C1046 H1037 0.929 1_556 S
C1046 C1038 1.378 . S
C1046 C1041 1.350 . S
C1047 H1034 0.929 . S
C1047 C1039 1.433 . S
C1047 N1049 1.384 . S
N1048 C1044 1.427 1_554 S
N1048 C1045 1.384 . S
N1049 C1041 1.427 . S
N1049 C1047 1.384 . S
H1050 C1056 0.930 . S
H1051 C1060 0.930 . S
H1052 C1065 0.929 . S
H1053 C1063 0.929 . S
H1054 C1058 0.929 . S
H1055 C1064 0.929 . S
C1056 H1050 0.930 . S
C1056 C1057 1.367 . S
C1056 C1064 1.378 . S
C1057 C1056 1.367 . S
C1057 C1065 1.433 . S
C1058 H1054 0.929 . S
C1058 C1060 1.378 . S
C1058 C1062 1.350 1_556 S
C1059 C1062 1.463 . S
C1059 C1064 1.350 . S
C1059 N1067 1.427 . S
C1060 H1051 0.930 . S
C1060 C1058 1.378 . S
C1060 C1061 1.367 . S
C1061 C1060 1.367 . S
C1061 C1063 1.433 . S
C1062 C1058 1.350 1_554 S
C1062 C1059 1.463 . S
C1062 N1066 1.426 1_554 S
C1063 H1053 0.929 . S
C1063 C1061 1.433 . S
C1063 N1066 1.389 . S
C1064 H1055 0.929 . S
C1064 C1056 1.378 . S
C1064 C1059 1.350 . S
C1065 H1052 0.929 . S
C1065 C1057 1.433 . S
C1065 N1067 1.384 . S
N1066 C1062 1.426 1_556 S
N1066 C1063 1.389 . S
N1067 C1059 1.427 . S
N1067 C1065 1.384 . S
H1068 C1074 0.930 . S
H1069 C1078 0.930 . S
H1070 C1083 0.929 . S
H1071 C1081 0.929 1_554 S
H1072 C1076 0.929 . S
H1073 C1082 0.929 . S
C1074 H1068 0.930 . S
C1074 C1075 1.367 . S
C1074 C1082 1.378 . S
C1075 C1074 1.367 . S
C1075 C1083 1.433 1_554 S
C1076 H1072 0.929 . S
C1076 C1078 1.378 . S
C1076 C1080 1.350 . S
C1077 C1080 1.463 . S
C1077 C1082 1.350 1_556 S
C1077 N1085 1.427 . S
C1078 H1069 0.930 . S
C1078 C1076 1.378 . S
C1078 C1079 1.367 . S
C1079 C1078 1.367 . S
C1079 C1081 1.433 . S
C1080 C1076 1.350 . S
C1080 C1077 1.463 . S
C1080 N1084 1.427 1_556 S
C1081 H1071 0.929 1_556 S
C1081 C1079 1.433 . S
C1081 N1084 1.384 1_556 S
C1082 H1073 0.929 . S
C1082 C1074 1.378 . S
C1082 C1077 1.350 1_554 S
C1083 H1070 0.929 . S
C1083 C1075 1.433 1_556 S
C1083 N1085 1.384 . S
N1084 C1080 1.427 1_554 S
N1084 C1081 1.384 1_554 S
N1085 C1077 1.427 . S
N1085 C1083 1.384 . S
H1086 C1092 0.930 . S
H1087 C1096 0.930 . S
H1088 C1101 0.929 1_556 S
H1089 C1099 0.929 . S
H1090 C1094 0.929 . S
H1091 C1100 0.929 . S
C1092 H1086 0.930 . S
C1092 C1093 1.367 . S
C1092 C1100 1.378 . S
C1093 C1092 1.367 . S
C1093 C1101 1.433 . S
C1094 H1090 0.929 . S
C1094 C1096 1.378 . S
C1094 C1098 1.350 1_556 S
C1095 C1098 1.463 . S
C1095 C1100 1.350 . S
C1095 N1103 1.427 1_554 S
C1096 H1087 0.930 . S
C1096 C1094 1.378 . S
C1096 C1097 1.367 . S
C1097 C1096 1.367 . S
C1097 C1099 1.433 1_556 S
C1098 C1094 1.350 1_554 S
C1098 C1095 1.463 . S
C1098 N1102 1.427 . S
C1099 H1089 0.929 . S
C1099 C1097 1.433 1_554 S
C1099 N1102 1.384 . S
C1100 H1091 0.929 . S
C1100 C1092 1.378 . S
C1100 C1095 1.350 . S
C1101 H1088 0.929 1_554 S
C1101 C1093 1.433 . S
C1101 N1103 1.384 1_554 S
N1102 C1098 1.427 . S
N1102 C1099 1.384 . S
N1103 C1095 1.427 1_556 S
N1103 C1101 1.384 1_556 S
H1104 C1110 0.930 . S
H1105 C1114 0.930 . S
H1106 C1119 0.929 . S
H1107 C1117 0.929 . S
H1108 C1112 0.929 . S
H1109 C1118 0.929 . S
C1110 H1104 0.930 . S
C1110 C1111 1.367 . S
C1110 C1118 1.378 . S
C1111 C1110 1.367 . S
C1111 C1119 1.433 . S
C1112 H1108 0.929 . S
C1112 C1114 1.378 . S
C1112 C1116 1.350 . S
C1113 C1116 1.463 . S
C1113 C1118 1.350 . S
C1113 N1121 1.427 . S
C1114 H1105 0.930 . S
C1114 C1112 1.378 . S
C1114 C1115 1.367 . S
C1115 C1114 1.367 . S
C1115 C1117 1.433 . S
C1116 C1112 1.350 . S
C1116 C1113 1.463 . S
C1116 N1120 1.427 . S
C1117 H1107 0.929 . S
C1117 C1115 1.433 . S
C1117 N1120 1.384 . S
C1118 H1109 0.929 . S
C1118 C1110 1.378 . S
C1118 C1113 1.350 . S
C1119 H1106 0.929 . S
C1119 C1111 1.433 . S
C1119 N1121 1.384 . S
N1120 C1116 1.427 . S
N1120 C1117 1.384 . S
N1121 C1113 1.427 . S
N1121 C1119 1.384 . S
H1122 C1128 0.930 . S
H1123 C1132 0.930 . S
H1124 C1137 0.929 . S
H1125 C1135 0.929 . S
H1126 C1130 0.929 . S
H1127 C1136 0.929 . S
C1128 H1122 0.930 . S
C1128 C1129 1.367 . S
C1128 C1136 1.378 . S
C1129 C1128 1.367 . S
C1129 C1137 1.433 . S
C1130 H1126 0.929 . S
C1130 C1132 1.378 . S
C1130 C1134 1.350 . S
C1131 C1134 1.463 . S
C1131 C1136 1.350 . S
C1131 N1139 1.427 . S
C1132 H1123 0.930 . S
C1132 C1130 1.378 . S
C1132 C1133 1.367 . S
C1133 C1132 1.367 . S
C1133 C1135 1.433 . S
C1134 C1130 1.350 . S
C1134 C1131 1.463 . S
C1134 N1138 1.427 . S
C1135 H1125 0.929 . S
C1135 C1133 1.433 . S
C1135 N1138 1.384 . S
C1136 H1127 0.929 . S
C1136 C1128 1.378 . S
C1136 C1131 1.350 . S
C1137 H1124 0.929 . S
C1137 C1129 1.433 . S
C1137 N1139 1.384 . S
N1138 C1134 1.427 . S
N1138 C1135 1.384 . S
N1139 C1131 1.427 . S
N1139 C1137 1.384 . S
H1140 C1146 0.930 . S
H1141 C1150 0.930 . S
H1142 C1155 0.929 . S
H1143 C1153 0.929 . S
H1144 C1148 0.929 . S
H1145 C1154 0.929 . S
C1146 H1140 0.930 . S
C1146 C1147 1.367 . S
C1146 C1154 1.378 . S
C1147 C1146 1.367 . S
C1147 C1155 1.433 . S
C1148 H1144 0.929 . S
C1148 C1150 1.378 . S
C1148 C1152 1.350 . S
C1149 C1152 1.463 . S
C1149 C1154 1.350 . S
C1149 N1157 1.427 . S
C1150 H1141 0.930 . S
C1150 C1148 1.378 . S
C1150 C1151 1.367 . S
C1151 C1150 1.367 . S
C1151 C1153 1.433 . S
C1152 C1148 1.350 . S
C1152 C1149 1.463 . S
C1152 N1156 1.427 . S
C1153 H1143 0.929 . S
C1153 C1151 1.433 . S
C1153 N1156 1.384 . S
C1154 H1145 0.929 . S
C1154 C1146 1.378 . S
C1154 C1149 1.350 . S
C1155 H1142 0.929 . S
C1155 C1147 1.433 . S
C1155 N1157 1.384 . S
N1156 C1152 1.427 . S
N1156 C1153 1.384 . S
N1157 C1149 1.427 . S
N1157 C1155 1.384 . S
H1158 C1164 0.930 . S
H1159 C1168 0.930 . S
H1160 C1173 0.929 . S
H1161 C1171 0.929 . S
H1162 C1166 0.929 . S
H1163 C1172 0.929 . S
C1164 H1158 0.930 . S
C1164 C1165 1.367 . S
C1164 C1172 1.378 . S
C1165 C1164 1.367 . S
C1165 C1173 1.433 . S
C1166 H1162 0.929 . S
C1166 C1168 1.378 . S
C1166 C1170 1.350 . S
C1167 C1170 1.463 . S
C1167 C1172 1.350 . S
C1167 N1175 1.427 . S
C1168 H1159 0.930 . S
C1168 C1166 1.378 . S
C1168 C1169 1.367 . S
C1169 C1168 1.367 . S
C1169 C1171 1.433 . S
C1170 C1166 1.350 . S
C1170 C1167 1.463 . S
C1170 N1174 1.427 . S
C1171 H1161 0.929 . S
C1171 C1169 1.433 . S
C1171 N1174 1.384 . S
C1172 H1163 0.929 . S
C1172 C1164 1.378 . S
C1172 C1167 1.350 . S
C1173 H1160 0.929 . S
C1173 C1165 1.433 . S
C1173 N1175 1.384 . S
N1174 C1170 1.427 . S
N1174 C1171 1.384 . S
N1175 C1167 1.427 . S
N1175 C1173 1.384 . S
H1176 C1182 0.930 . S
H1177 C1186 0.930 . S
H1178 C1191 0.929 . S
H1179 C1189 0.929 . S
H1180 C1184 0.929 . S
H1181 C1190 0.929 . S
C1182 H1176 0.930 . S
C1182 C1183 1.367 . S
C1182 C1190 1.378 . S
C1183 C1182 1.367 . S
C1183 C1191 1.433 . S
C1184 H1180 0.929 . S
C1184 C1186 1.378 . S
C1184 C1188 1.350 . S
C1185 C1188 1.463 . S
C1185 C1190 1.350 . S
C1185 N1193 1.427 . S
C1186 H1177 0.930 . S
C1186 C1184 1.378 . S
C1186 C1187 1.367 1_545 S
C1187 C1186 1.367 1_565 S
C1187 C1189 1.433 . S
C1188 C1184 1.350 . S
C1188 C1185 1.463 . S
C1188 N1192 1.427 . S
C1189 H1179 0.929 . S
C1189 C1187 1.433 . S
C1189 N1192 1.384 1_565 S
C1190 H1181 0.929 . S
C1190 C1182 1.378 . S
C1190 C1185 1.350 . S
C1191 H1178 0.929 . S
C1191 C1183 1.433 . S
C1191 N1193 1.384 . S
N1192 C1188 1.427 . S
N1192 C1189 1.384 1_545 S
N1193 C1185 1.427 . S
N1193 C1191 1.384 . S
H1194 C1200 0.930 . S
H1195 C1204 0.930 1_655 S
H1196 C1209 0.929 . S
H1197 C1207 0.929 . S
H1198 C1202 0.929 . S
H1199 C1208 0.929 . S
C1200 H1194 0.930 . S
C1200 C1201 1.367 . S
C1200 C1208 1.378 . S
C1201 C1200 1.367 . S
C1201 C1209 1.433 . S
C1202 H1198 0.929 . S
C1202 C1204 1.378 . S
C1202 C1206 1.350 . S
C1203 C1206 1.463 . S
C1203 C1208 1.350 . S
C1203 N1211 1.427 . S
C1204 H1195 0.930 1_455 S
C1204 C1202 1.378 . S
C1204 C1205 1.367 1_455 S
C1205 C1204 1.367 1_655 S
C1205 C1207 1.433 1_655 S
C1206 C1202 1.350 . S
C1206 C1203 1.463 . S
C1206 N1210 1.427 . S
C1207 H1197 0.929 . S
C1207 C1205 1.433 1_455 S
C1207 N1210 1.384 . S
C1208 H1199 0.929 . S
C1208 C1200 1.378 . S
C1208 C1203 1.350 . S
C1209 H1196 0.929 . S
C1209 C1201 1.433 . S
C1209 N1211 1.384 . S
N1210 C1206 1.427 . S
N1210 C1207 1.384 . S
N1211 C1203 1.427 . S
N1211 C1209 1.384 . S
H1212 C1218 0.930 . S
H1213 C1222 0.930 . S
H1214 C1227 0.929 . S
H1215 C1225 0.929 . S
H1216 C1220 0.929 . S
H1217 C1226 0.929 . S
C1218 H1212 0.930 . S
C1218 C1219 1.367 . S
C1218 C1226 1.378 . S
C1219 C1218 1.367 . S
C1219 C1227 1.433 . S
C1220 H1216 0.929 . S
C1220 C1222 1.378 . S
C1220 C1224 1.350 . S
C1221 C1224 1.463 . S
C1221 C1226 1.350 . S
C1221 N1229 1.427 . S
C1222 H1213 0.930 . S
C1222 C1220 1.378 . S
C1222 C1223 1.367 1_565 S
C1223 C1222 1.367 1_545 S
C1223 C1225 1.433 . S
C1224 C1220 1.350 . S
C1224 C1221 1.463 . S
C1224 N1228 1.427 . S
C1225 H1215 0.929 . S
C1225 C1223 1.433 . S
C1225 N1228 1.384 1_545 S
C1226 H1217 0.929 . S
C1226 C1218 1.378 . S
C1226 C1221 1.350 . S
C1227 H1214 0.929 . S
C1227 C1219 1.433 . S
C1227 N1229 1.384 . S
N1228 C1224 1.427 . S
N1228 C1225 1.384 1_565 S
N1229 C1221 1.427 . S
N1229 C1227 1.384 . S
H1230 C1236 0.930 . S
H1231 C1240 0.930 . S
H1232 C1245 0.929 1_455 S
H1233 C1243 0.929 . S
H1234 C1238 0.929 . S
H1235 C1244 0.929 . S
C1236 H1230 0.930 . S
C1236 C1237 1.367 1_655 S
C1236 C1244 1.378 . S
C1237 C1236 1.367 1_455 S
C1237 C1245 1.433 1_455 S
C1238 H1234 0.929 . S
C1238 C1240 1.378 . S
C1238 C1242 1.350 . S
C1239 C1242 1.463 . S
C1239 C1244 1.350 . S
C1239 N1247 1.427 . S
C1240 H1231 0.930 . S
C1240 C1238 1.378 . S
C1240 C1241 1.367 . S
C1241 C1240 1.367 . S
C1241 C1243 1.433 . S
C1242 C1238 1.350 . S
C1242 C1239 1.463 . S
C1242 N1246 1.427 . S
C1243 H1233 0.929 . S
C1243 C1241 1.433 . S
C1243 N1246 1.384 . S
C1244 H1235 0.929 . S
C1244 C1236 1.378 . S
C1244 C1239 1.350 . S
C1245 H1232 0.929 1_655 S
C1245 C1237 1.433 1_655 S
C1245 N1247 1.384 . S
N1246 C1242 1.427 . S
N1246 C1243 1.384 . S
N1247 C1239 1.427 . S
N1247 C1245 1.384 . S
C535 C8 0.992 . S
C539 C470 0.995 . S
C553 C503 0.995 . S
C557 C41 0.993 . S
C571 C404 0.992 . S
C575 C74 0.995 . S
C589 C107 0.992 . S
C593 C437 0.994 . S
C607 C140 0.996 1_556 S
C611 C338 0.992 . S
C625 C371 0.995 . S
C629 C173 0.992 1_554 S
C643 C206 0.992 1_556 S
C647 C272 0.995 . S
C661 C305 0.993 . S
C665 C239 0.995 1_554 S
C679 N137 1.341 . S
C683 N5 1.346 . S
C697 N38 1.339 . S
C701 N170 1.345 . S
C715 N71 1.344 . S
C719 N203 1.345 . S
C733 N104 1.340 . S
C737 N236 1.345 . S
C751 N401 1.336 . S
C755 N269 1.338 . S
C769 N434 1.345 . S
C773 N302 1.339 . S
C787 N335 1.345 . S
C791 N467 1.339 . S
C805 N368 1.346 . S
C809 N500 1.342 . S
C823 C17 1.559 1_556 S
C827 C479 1.565 . S
C841 C512 1.557 . S
C845 C50 1.564 1_554 S
C859 C83 1.561 1_556 S
C863 C413 1.565 . S
C877 C446 1.561 . S
C881 C116 1.565 1_554 S
C895 C347 1.560 . S
C899 C149 1.556 . S
C913 C380 1.560 . S
C917 C182 1.565 . S
C931 C215 1.561 . S
C935 C281 1.565 . S
C949 C248 1.562 . S
C953 C314 1.556 . S
C967 N14 1.552 . S
C971 C391 1.610 . S
C985 C292 1.605 . S
C989 N47 1.563 . S
C1003 N80 1.552 . S
C1007 C325 1.610 . S
C1021 C358 1.608 . S
C1025 N113 1.550 . S
C1039 C193 1.604 . S
C1043 N146 1.552 . S
C1057 C226 1.606 . S
C1061 N179 1.550 . S
C1075 N212 1.552 . S
C1079 C259 1.610 . S
C1093 C160 1.611 . S
C1097 N245 1.555 . S
C1111 C127 1.603 . S
C1115 N278 1.558 . S
C1129 N311 1.557 . S
C1133 C28 1.603 . S
C1147 N344 1.563 . S
C1151 C61 1.604 . S
C1165 C94 1.605 . S
C1169 N377 1.563 . S
C1183 C457 1.610 . S
C1187 N410 1.561 . S
C1201 C490 1.604 . S
C1205 N443 1.562 . S
C1219 C523 1.611 . S
C1223 N476 1.558 . S
C1237 N509 1.564 . S
C1241 C424 1.606 . S
