# Generated by pormake.
# Topology dft, (4)-cn, num edge types: 1
# Building blocks:
#     Node 0, Type 0, BuildingBlock: UXUYUI_clean_sbu_0, # of connection points: 4
#     Node 1, Type 0, BuildingBlock: UXUYUI_clean_sbu_0, # of connection points: 4
#     Node 2, Type 0, BuildingBlock: UXUYUI_clean_sbu_0, # of connection points: 4
#     Node 3, Type 0, BuildingBlock: UXUYUI_clean_sbu_0, # of connection points: 4
#     Node 4, Type 0, BuildingBlock: UXUYUI_clean_sbu_0, # of connection points: 4
#     Node 5, Type 0, BuildingBlock: UXUYUI_clean_sbu_0, # of connection points: 4
#     Node 6, Type 0, BuildingBlock: UXUYUI_clean_sbu_0, # of connection points: 4
#     Node 7, Type 0, BuildingBlock: UXUYUI_clean_sbu_0, # of connection points: 4
#     Edge 8, Type (0, 0), BuildingBlock: XUDNAN_clean_linker_2, # of connection points: 2
#     Edge 9, Type (0, 0), BuildingBlock: XUDNAN_clean_linker_2, # of connection points: 2
#     Edge 10, Type (0, 0), BuildingBlock: XUDNAN_clean_linker_2, # of connection points: 2
#     Edge 11, Type (0, 0), BuildingBlock: XUDNAN_clean_linker_2, # of connection points: 2
#     Edge 12, Type (0, 0), BuildingBlock: XUDNAN_clean_linker_2, # of connection points: 2
#     Edge 13, Type (0, 0), BuildingBlock: XUDNAN_clean_linker_2, # of connection points: 2
#     Edge 14, Type (0, 0), BuildingBlock: XUDNAN_clean_linker_2, # of connection points: 2
#     Edge 15, Type (0, 0), BuildingBlock: XUDNAN_clean_linker_2, # of connection points: 2
#     Edge 16, Type (0, 0), BuildingBlock: XUDNAN_clean_linker_2, # of connection points: 2
#     Edge 17, Type (0, 0), BuildingBlock: XUDNAN_clean_linker_2, # of connection points: 2
#     Edge 18, Type (0, 0), BuildingBlock: XUDNAN_clean_linker_2, # of connection points: 2
#     Edge 19, Type (0, 0), BuildingBlock: XUDNAN_clean_linker_2, # of connection points: 2
#     Edge 20, Type (0, 0), BuildingBlock: XUDNAN_clean_linker_2, # of connection points: 2
#     Edge 21, Type (0, 0), BuildingBlock: XUDNAN_clean_linker_2, # of connection points: 2
#     Edge 22, Type (0, 0), BuildingBlock: XUDNAN_clean_linker_2, # of connection points: 2
#     Edge 23, Type (0, 0), BuildingBlock: XUDNAN_clean_linker_2, # of connection points: 2
# Relax obj value: 0.226
# Max RMSD: 0.178
# Mean RMSD: 0.177
data_MOF--net-dft--node1-UXUYUI_clean_sbu_0--edge1-XUDNAN_clean_linker_2
_symmetry_space_group_name_H-M    P1
_symmetry_Int_Tables_number       1
_symmetry_cell_setting            triclinic
loop_
_symmetry_equiv_pos_as_xyz
'x, y, z'
_cell_length_a     50.264905
_cell_length_b     50.180549
_cell_length_c     58.269978
_cell_angle_alpha  90.0241
_cell_angle_beta   90.00662
_cell_angle_gamma 89.971056
loop_
_atom_site_label
_atom_site_type_symbol
_atom_site_fract_x
_atom_site_fract_y
_atom_site_fract_z
_atom_type_partial_charge
Li0 Li 0.2765 0.02525 0.1934 0.0
Li1 Li 0.31596 -0.00031 0.19797 0.0
Li2 Li 0.29457 0.0021 0.16088 0.0
Li3 Li 0.27455 0.9771 0.19166 0.0
C4 C 0.31041 0.05415 0.16509 0.0
N5 N 0.30864 0.09961 0.13837 0.0
C6 C 0.33289 0.07034 0.16302 0.0
C7 C 0.287 0.06112 0.15359 0.0
C8 C 0.3316 0.09324 0.14943 0.0
C9 C 0.28651 0.08416 0.14016 0.0
C10 C 0.28919 0.01294 0.23831 0.0
C11 C 0.28122 0.01962 0.27871 0.0
N12 N 0.29853 0.04045 0.27859 0.0
C13 C 0.30692 0.0344 0.23859 0.0
C14 C 0.27624 0.00546 0.25851 0.0
C15 C 0.31136 0.04806 0.25912 0.0
C16 C 0.23157 0.05436 0.20708 0.0
N17 N 0.25824 0.05609 0.20373 0.0
C18 C 0.25852 0.10123 0.21672 0.0
C19 C 0.27185 0.07889 0.20832 0.0
C20 C 0.23096 0.10005 0.22052 0.0
C21 C 0.21743 0.07623 0.2155 0.0
H22 H 0.22136 0.03584 0.20348 0.0
H23 H 0.29311 0.07969 0.20567 0.0
C24 C 0.35299 0.98449 0.23272 0.0
N25 N 0.34955 0.99747 0.21244 0.0
C26 C 0.37842 0.98178 0.24206 0.0
C27 C 0.39593 0.00683 0.20996 0.0
C28 C 0.37027 0.00871 0.2011 0.0
C29 C 0.40024 0.99295 0.23054 0.0
H30 H 0.33607 0.97587 0.24144 0.0
H31 H 0.36687 0.01871 0.18492 0.0
C32 C 0.24043 0.98958 0.15626 0.0
N33 N 0.20725 0.96215 0.12674 0.0
C34 C 0.24972 0.96706 0.14461 0.0
C35 C 0.21426 0.99813 0.15291 0.0
C36 C 0.23264 0.95347 0.12976 0.0
C37 C 0.19779 0.984 0.13791 0.0
C38 C 0.32166 0.94766 0.18379 0.0
C39 C 0.339 0.93393 0.16924 0.0
C40 C 0.3175 0.93841 0.20613 0.0
C41 C 0.35192 0.91112 0.1773 0.0
C42 C 0.33078 0.91554 0.21355 0.0
N43 N 0.34758 0.90248 0.19911 0.0
C44 C 0.32532 0.99415 0.12158 0.0
C45 C 0.28216 0.01074 0.11359 0.0
C46 C 0.33098 0.99237 0.09818 0.0
N47 N 0.30112 0.00282 0.12876 0.0
C48 C 0.28681 0.00893 0.09004 0.0
C49 C 0.31141 -0.00066 0.082 0.0
H50 H 0.34013 0.98832 0.13408 0.0
H51 H 0.26317 0.01789 0.11973 0.0
C52 C 0.23275 0.94988 0.21333 0.0
N53 N 0.25317 0.94687 0.19829 0.0
C54 C 0.21567 0.92859 0.21789 0.0
C55 C 0.24128 0.90146 0.19166 0.0
C56 C 0.25763 0.92332 0.18741 0.0
C57 C 0.21979 0.90395 0.20693 0.0
H58 H 0.2295 0.96899 0.22147 0.0
H59 H 0.27373 0.92153 0.17523 0.0
O60 O 0.31156 0.03166 0.17834 0.0
O61 O 0.28433 -0.00076 0.21844 0.0
O62 O 0.25661 0.00314 0.1711 0.0
O63 O 0.30911 0.97018 0.17614 0.0
H64 H 0.35115 0.06528 0.17185 0.0
H65 H 0.26933 0.04899 0.15503 0.0
H66 H 0.34886 0.10594 0.14768 0.0
H67 H 0.26853 0.08977 0.13117 0.0
H68 H 0.27133 0.01406 0.29448 0.0
H69 H 0.31715 0.04049 0.22314 0.0
H70 H 0.26245 0.98889 0.25856 0.0
H71 H 0.32501 0.06471 0.25957 0.0
H72 H 0.26969 0.11926 0.22012 0.0
H73 H 0.19626 0.0743 0.2185 0.0
H74 H 0.38105 0.97099 0.258 0.0
H75 H 0.41235 0.01534 0.20042 0.0
H76 H 0.26992 0.96016 0.14692 0.0
H77 H 0.20676 0.0155 0.16184 0.0
H78 H 0.23958 0.93603 0.12064 0.0
H79 H 0.17749 0.9904 0.13515 0.0
H80 H 0.34245 0.94084 0.1519 0.0
H81 H 0.30417 0.94879 0.21765 0.0
H82 H 0.3654 0.9003 0.16623 0.0
H83 H 0.32776 0.90818 0.2308 0.0
H84 H 0.35044 0.98546 0.09287 0.0
H85 H 0.27096 0.01426 0.07834 0.0
H86 H 0.19911 0.93163 0.22948 0.0
H87 H 0.24552 0.88282 0.18304 0.0
Li88 Li 0.99526 0.28397 0.65979 0.0
Li89 Li 0.98999 0.31363 0.69284 0.0
Li90 Li 0.01551 0.27233 0.69578 0.0
Li91 Li 0.9668 0.27186 0.6923 0.0
C92 C 0.03776 0.31447 0.65951 0.0
N93 N 0.06545 0.33574 0.62291 0.0
C94 C 0.03373 0.341 0.65311 0.0
C95 C 0.05601 0.2988 0.64743 0.0
C96 C 0.04792 0.35138 0.63453 0.0
C97 C 0.06975 0.3099 0.62893 0.0
C98 C 0.93643 0.30188 0.66506 0.0
C99 C 0.89042 0.3089 0.6751 0.0
N100 N 0.883 0.29947 0.65417 0.0
C101 C 0.92838 0.29237 0.64361 0.0
C102 C 0.91734 0.31037 0.68091 0.0
C103 C 0.90126 0.29128 0.63845 0.0
C104 C 0.00548 0.25803 0.61799 0.0
N105 N -0.00072 0.28202 0.62738 0.0
C106 C 0.00056 0.3028 0.59049 0.0
C107 C 0.99637 0.30416 0.61417 0.0
C108 C 0.00763 0.27835 0.58038 0.0
C109 C 0.0098 0.25574 0.59445 0.0
H110 H 0.00713 0.24065 0.62879 0.0
H111 H 0.99111 0.32293 0.62209 0.0
C112 C 0.00933 0.3591 0.71542 0.0
N113 N 0.98884 0.34955 0.70262 0.0
C114 C 0.00925 0.38552 0.72285 0.0
C115 C 0.9674 0.39198 0.70309 0.0
C116 C 0.96809 0.3653 0.69636 0.0
C117 C 0.98819 0.4023 0.7165 0.0
H118 H 0.02585 0.34621 0.71968 0.0
H119 H 0.95227 0.35726 0.68589 0.0
C120 C 0.00334 0.22468 0.67882 0.0
N121 N 0.0253 0.17499 0.68655 0.0
C122 C 0.9894 0.20567 0.69158 0.0
C123 C 0.02834 0.21833 0.66983 0.0
C124 C 0.00087 0.18067 0.69532 0.0
C125 C 0.03914 0.19314 0.67399 0.0
C126 C 0.98874 0.30087 0.73697 0.0
C127 C 0.01207 0.3032 0.74988 0.0
C128 C 0.96575 0.31426 0.74399 0.0
C129 C 0.01207 0.31921 0.7695 0.0
C130 C 0.96658 0.33012 0.76368 0.0
N131 N 0.98953 0.33225 0.77592 0.0
C132 C 0.06992 0.26589 0.70624 0.0
C133 C 0.04104 0.23508 0.72448 0.0
C134 C 0.09206 0.25375 0.71623 0.0
N135 N 0.04512 0.25615 0.71026 0.0
C136 C 0.06263 0.22195 0.73436 0.0
C137 C 0.08845 0.23127 0.73015 0.0
H138 H 0.0725 0.28298 0.69518 0.0
H139 H 0.02102 0.22825 0.72783 0.0
C140 C 0.91904 0.2422 0.68631 0.0
N141 N 0.93579 0.25346 0.70187 0.0
C142 C 0.89683 0.22789 0.69372 0.0
C143 C 0.91022 0.23609 0.73297 0.0
C144 C 0.93184 0.25066 0.72481 0.0
C145 C 0.89245 0.22454 0.71731 0.0
H146 H 0.92315 0.24397 0.66818 0.0
H147 H 0.94578 0.2593 0.7368 0.0
O148 O 0.02371 0.30379 0.67736 0.0
O149 O 0.96287 0.303 0.67048 0.0
O150 O 0.99258 0.24937 0.6752 0.0
O151 O 0.98844 0.28562 0.71753 0.0
H152 H 0.01962 0.35338 0.66223 0.0
H153 H 0.05928 0.2782 0.65214 0.0
H154 H 0.04492 0.37184 0.6293 0.0
H155 H 0.08379 0.29796 0.61931 0.0
H156 H 0.87542 0.31524 0.68725 0.0
H157 H 0.94288 0.28571 0.63115 0.0
H158 H 0.92326 0.31777 0.69758 0.0
H159 H 0.89472 0.28386 0.62195 0.0
H160 H -0.00122 0.32075 0.5803 0.0
H161 H 0.01461 0.23639 0.58733 0.0
H162 H 0.02584 0.39296 0.73284 0.0
H163 H 0.95088 0.40443 0.69783 0.0
H164 H 0.97003 0.2102 0.69866 0.0
H165 H 0.03948 0.23286 0.66005 0.0
H166 H 0.99036 0.16581 0.70524 0.0
H167 H 0.05857 0.18805 0.66732 0.0
H168 H 0.03003 0.29296 0.74469 0.0
H169 H 0.94754 0.31261 0.7342 0.0
H170 H 0.03001 0.32133 0.77959 0.0
H171 H 0.94899 0.34076 0.76922 0.0
H172 H 0.11179 0.2614 0.71271 0.0
H173 H 0.05923 0.20478 0.74524 0.0
H174 H 0.88371 0.21885 0.6812 0.0
H175 H 0.90744 0.23379 0.7513 0.0
Li176 Li 0.67829 0.00288 0.20523 0.0
Li177 Li 0.72226 0.98259 0.20452 0.0
Li178 Li 0.7167 0.03039 0.19936 0.0
Li179 Li 0.7034 -0.00101 0.16954 0.0
C180 C 0.69619 0.0093 0.24752 0.0
N181 N 0.67005 0.00898 0.28924 0.0
C182 C 0.69909 0.98769 0.26244 0.0
C183 C 0.68007 0.03079 0.25386 0.0
C184 C 0.68571 0.9879 0.28346 0.0
C185 C 0.66698 0.03022 0.275 0.0
C186 C 0.67831 0.95339 0.17377 0.0
C187 C 0.68213 0.92197 0.1426 0.0
N188 N 0.65518 0.92174 0.14047 0.0
C189 C 0.65065 0.95276 0.17135 0.0
C190 C 0.69419 0.93777 0.15937 0.0
C191 C 0.63934 0.93664 0.15439 0.0
C192 C 0.62448 0.01671 0.20987 0.0
N193 N 0.64379 0.00032 0.21795 0.0
C194 C 0.61267 0.97784 0.24208 0.0
C195 C 0.63842 0.98101 0.23361 0.0
C196 C 0.59204 0.9941 0.23372 0.0
C197 C 0.59833 0.01385 0.21744 0.0
H198 H 0.62922 0.03143 0.19697 0.0
H199 H 0.65407 0.96776 0.23924 0.0
C200 C 0.76093 0.96467 0.23529 0.0
N201 N 0.74394 0.95646 0.21859 0.0
C202 C 0.77668 0.94622 0.24691 0.0
C203 C 0.7574 0.91124 0.22367 0.0
C204 C 0.74186 0.93038 0.21261 0.0
C205 C 0.77493 0.9191 0.24118 0.0
H206 H 0.76199 0.98558 0.23973 0.0
H207 H 0.72795 0.9244 0.19946 0.0
C208 C 0.68149 0.056 0.17492 0.0
N209 N 0.68019 0.10915 0.16263 0.0
C210 C 0.69094 0.06401 0.15344 0.0
C211 C 0.67121 0.07498 0.19008 0.0
C212 C 0.69013 0.09098 0.14756 0.0
C213 C 0.67079 0.10176 0.18357 0.0
C214 C 0.76499 0.99733 0.18309 0.0
C215 C 0.78305 0.0115 0.19666 0.0
C216 C 0.77302 0.97372 0.17241 0.0
C217 C 0.80888 0.00171 0.19938 0.0
C218 C 0.79901 0.96456 0.1756 0.0
N219 N 0.81625 0.97863 0.18891 0.0
C220 C 0.73337 0.07411 0.22635 0.0
C221 C 0.74607 0.07586 0.1872 0.0
C222 C 0.7477 0.09727 0.23101 0.0
N223 N 0.73301 0.06383 0.20479 0.0
C224 C 0.76063 0.09909 0.19106 0.0
C225 C 0.76194 0.10981 0.21331 0.0
H226 H 0.72325 0.06388 0.2401 0.0
H227 H 0.74592 0.06685 0.17033 0.0
C228 C 0.67452 0.99494 0.12864 0.0
N229 N 0.69957 0.99426 0.1374 0.0
C230 C 0.67036 0.99136 0.10518 0.0
C231 C 0.71796 0.98742 0.10008 0.0
C232 C 0.72117 0.9908 0.12371 0.0
C233 C 0.69226 0.98753 0.09059 0.0
H234 H 0.65777 0.99824 0.13994 0.0
H235 H 0.74088 0.99075 0.13112 0.0
O236 O 0.70897 0.00938 0.22678 0.0
O237 O 0.68979 0.96943 0.18997 0.0
O238 O 0.68261 0.02978 0.18119 0.0
O239 O 0.73941 0.00622 0.18068 0.0
H240 H 0.71127 0.97077 0.25778 0.0
H241 H 0.67742 0.04757 0.24246 0.0
H242 H 0.68769 0.97126 0.29514 0.0
H243 H 0.65433 0.04665 0.28006 0.0
H244 H 0.69419 0.90997 0.13121 0.0
H245 H 0.63802 0.96472 0.18228 0.0
H246 H 0.71564 0.9382 0.16085 0.0
H247 H 0.61797 0.93605 0.15226 0.0
H248 H 0.60897 0.96253 0.25476 0.0
H249 H 0.58314 0.02639 0.20991 0.0
H250 H 0.79019 0.9531 0.26013 0.0
H251 H 0.75534 0.89047 0.21892 0.0
H252 H 0.69909 0.04961 0.14154 0.0
H253 H 0.66381 0.0691 0.20675 0.0
H254 H 0.6975 0.09749 0.13105 0.0
H255 H 0.66302 0.11669 0.19518 0.0
H256 H 0.77712 0.02968 0.20522 0.0
H257 H 0.75923 0.96237 0.16205 0.0
H258 H 0.82303 0.0124 0.20991 0.0
H259 H 0.80545 0.94622 0.16757 0.0
H260 H 0.74806 0.10499 0.24837 0.0
H261 H 0.77168 0.10787 0.17702 0.0
H262 H 0.65027 0.992 0.09848 0.0
H263 H 0.73533 0.98443 0.08939 0.0
Li264 Li 0.98215 0.72687 0.69554 0.0
Li265 Li 0.03051 0.72543 0.69257 0.0
Li266 Li 0.0035 0.71039 0.66079 0.0
Li267 Li 0.00625 0.68498 0.6969 0.0
C268 C 0.0072 0.77325 0.67894 0.0
N269 N 0.01163 0.82656 0.69017 0.0
C270 C 0.00917 0.78104 0.70193 0.0
C271 C 0.00757 0.79256 0.66168 0.0
C272 C 0.01138 0.8081 0.70724 0.0
C273 C 0.00978 0.81942 0.6677 0.0
C274 C 0.0128 0.70391 0.73999 0.0
C275 C 0.03933 0.67602 0.76477 0.0
N276 N 0.02194 0.68054 0.78222 0.0
C277 C 0.99537 0.70853 0.75825 0.0
C278 C 0.03512 0.68776 0.74335 0.0
C279 C 0.00027 0.69646 0.77944 0.0
C280 C 0.93789 0.73018 0.7237 0.0
N281 N 0.95146 0.74404 0.70747 0.0
C282 C 0.92185 0.781 0.71136 0.0
C283 C 0.94339 0.76865 0.70061 0.0
C284 C 0.90839 0.76773 0.72914 0.0
C285 C 0.91628 0.74175 0.73493 0.0
H286 H 0.94424 0.71026 0.72821 0.0
H287 H 0.95386 0.77893 0.68708 0.0
C288 C 0.07451 0.75813 0.68276 0.0
N289 N 0.0621 0.74451 0.69985 0.0
C290 C 0.09673 0.77382 0.68756 0.0
C291 C 0.09262 0.7617 0.72755 0.0
C292 C 0.07065 0.74605 0.72194 0.0
C293 C 0.10587 0.77591 0.71025 0.0
H294 H 0.06673 0.7573 0.66548 0.0
H295 H 0.06006 0.73569 0.73533 0.0
C296 C 0.95024 0.69652 0.66754 0.0
N297 N 0.90213 0.70212 0.64512 0.0
C298 C 0.93121 0.67629 0.66872 0.0
C299 C 0.9448 0.71965 0.655 0.0
C300 C 0.90701 0.67948 0.65725 0.0
C301 C 0.92036 0.72209 0.64378 0.0
C302 C 0.06118 0.6913 0.6695 0.0
C303 C 0.07097 0.70406 0.64994 0.0
C304 C 0.07874 0.67761 0.6839 0.0
C305 C 0.09825 0.70346 0.64539 0.0
C306 C 0.10588 0.67745 0.67876 0.0
N307 N 0.11501 0.69031 0.65979 0.0
C308 C 0.01108 0.7252 0.61426 0.0
C309 C 0.99001 0.68358 0.62042 0.0
C310 C 0.01131 0.72086 0.59058 0.0
N311 N 0.00094 0.70643 0.62858 0.0
C312 C 0.98933 0.67864 0.59688 0.0
C313 C 0.00059 0.69714 0.58157 0.0
H314 H 0.01982 0.74312 0.62131 0.0
H315 H 0.98215 0.66898 0.63227 0.0
C316 C 0.98953 0.64261 0.7261 0.0
N317 N 0.00547 0.64974 0.70826 0.0
C318 C 0.98777 0.61592 0.73273 0.0
C319 C 0.01851 0.60459 0.70229 0.0
C320 C 0.01995 0.63145 0.69647 0.0
C321 C 0.00204 0.59656 0.72045 0.0
H322 H 0.97773 0.65754 0.7348 0.0
H323 H 0.03205 0.63766 0.6821 0.0
O324 O 0.00549 0.74687 0.67317 0.0
O325 O 0.00817 0.71534 0.71902 0.0
O326 O 0.97392 0.69368 0.67884 0.0
O327 O 0.03454 0.69193 0.67436 0.0
H328 H 0.00898 0.76645 0.71556 0.0
H329 H 0.00617 0.78683 0.64381 0.0
H330 H 0.01291 0.81441 0.72495 0.0
H331 H 0.01007 0.83458 0.65452 0.0
H332 H 0.05644 0.66333 0.76753 0.0
H333 H 0.97836 0.72149 0.7562 0.0
H334 H 0.04896 0.68429 0.72952 0.0
H335 H 0.98689 0.69981 0.79369 0.0
H336 H 0.91642 0.80105 0.70635 0.0
H337 H 0.90606 0.7306 0.74817 0.0
H338 H 0.10611 0.78488 0.67381 0.0
H339 H 0.09909 0.76282 0.74526 0.0
H340 H 0.93513 0.65831 0.67842 0.0
H341 H 0.95923 0.73557 0.65395 0.0
H342 H 0.8921 0.66397 0.658 0.0
H343 H 0.91588 0.73987 0.63402 0.0
H344 H 0.05773 0.71468 0.63857 0.0
H345 H 0.07152 0.66703 0.69879 0.0
H346 H 0.1061 0.71349 0.63042 0.0
H347 H 0.11969 0.66703 0.68982 0.0
H348 H 0.02055 0.73557 0.57959 0.0
H349 H 0.98027 0.66038 0.59083 0.0
H350 H 0.97464 0.61033 0.74666 0.0
H351 H 0.02985 0.59017 0.69249 0.0
Li352 Li 0.27668 0.03075 0.80104 0.0
Li353 Li 0.29305 0.00469 0.83449 0.0
Li354 Li 0.31701 0.00564 0.79924 0.0
Li355 Li 0.27644 0.98211 0.80067 0.0
C356 C 0.33199 0.05062 0.81762 0.0
N357 N 0.37949 0.07764 0.81231 0.0
C358 C 0.35012 0.05198 0.83576 0.0
C359 C 0.33788 0.06327 0.79686 0.0
C360 C 0.37406 0.06567 0.83272 0.0
C361 C 0.36203 0.07676 0.79449 0.0
C362 C 0.23875 0.01979 0.83479 0.0
C363 C 0.19574 0.02438 0.8527 0.0
N364 N 0.20329 0.04837 0.8614 0.0
C365 C 0.24608 0.04454 0.84388 0.0
C366 C 0.21337 0.00966 0.83916 0.0
C367 C 0.22786 0.05866 0.8573 0.0
C368 C 0.23104 0.05705 0.78636 0.0
N369 N 0.25693 0.06113 0.79197 0.0
C370 C 0.25213 0.10803 0.78645 0.0
C371 C 0.26766 0.08597 0.79223 0.0
C372 C 0.22509 0.10458 0.78092 0.0
C373 C 0.21462 0.07857 0.781 0.0
H374 H 0.22299 0.03706 0.78659 0.0
H375 H 0.28815 0.08876 0.79718 0.0
C376 C 0.32281 0.99722 0.87406 0.0
N377 N 0.29749 0.00206 0.86699 0.0
C378 C 0.32856 0.9943 0.89735 0.0
C379 C 0.28196 0.00103 0.90575 0.0
C380 C 0.27707 0.00351 0.88227 0.0
C381 C 0.30799 0.99642 0.91352 0.0
H382 H 0.33856 0.99543 0.86149 0.0
H383 H 0.25692 0.00615 0.87642 0.0
C384 C 0.2937 0.99276 0.75656 0.0
N385 N 0.30383 0.96377 0.71719 0.0
C386 C 0.31043 0.97052 0.75736 0.0
C387 C 0.2821 0.00024 0.73575 0.0
C388 C 0.31532 0.95613 0.73728 0.0
C389 C 0.28748 0.98533 0.71602 0.0
C390 C 0.30561 0.95175 0.83113 0.0
C391 C 0.32654 0.9337 0.83393 0.0
C392 C 0.28118 0.94683 0.84178 0.0
C393 C 0.32266 0.91097 0.84735 0.0
C394 C 0.2781 0.92388 0.85507 0.0
N395 N 0.29873 0.90657 0.85755 0.0
C396 C 0.37071 0.99603 0.8035 0.0
C397 C 0.35966 0.01272 0.7666 0.0
C398 C 0.39754 0.99522 0.79771 0.0
N399 N 0.35248 0.0048 0.78806 0.0
C400 C 0.38637 0.01197 0.75998 0.0
C401 C 0.40565 0.00334 0.77575 0.0
H402 H 0.36433 0.98994 0.82043 0.0
H403 H 0.34473 0.01993 0.75477 0.0
C404 C 0.23113 0.9551 0.7848 0.0
N405 N 0.25749 0.95224 0.78931 0.0
C406 C 0.21687 0.9342 0.77485 0.0
C407 C 0.25717 0.90784 0.77456 0.0
C408 C 0.27058 0.92914 0.78467 0.0
C409 C 0.23002 0.91033 0.76935 0.0
H410 H 0.22135 0.97382 0.78852 0.0
H411 H 0.29157 0.92739 0.78839 0.0
O412 O 0.30871 0.03677 0.82008 0.0
O413 O 0.25593 0.00577 0.82116 0.0
O414 O 0.28828 0.00706 0.77601 0.0
O415 O 0.30938 0.97417 0.81816 0.0
H416 H 0.34579 0.04261 0.85203 0.0
H417 H 0.32423 0.06212 0.78253 0.0
H418 H 0.38833 0.06678 0.84658 0.0
H419 H 0.36697 0.08637 0.77844 0.0
H420 H 0.17604 0.01676 0.85625 0.0
H421 H 0.2656 0.05276 0.84068 0.0
H422 H 0.20737 0.99061 0.83214 0.0
H423 H 0.23326 0.0778 0.86446 0.0
H424 H 0.26131 0.12754 0.78632 0.0
H425 H 0.19383 0.07478 0.77745 0.0
H426 H 0.34889 0.99068 0.90267 0.0
H427 H 0.26547 0.00217 0.91768 0.0
H428 H 0.31954 0.96437 0.77331 0.0
H429 H 0.26903 0.01736 0.73487 0.0
H430 H 0.32821 0.93887 0.73766 0.0
H431 H 0.27863 0.99089 0.69979 0.0
H432 H 0.34558 0.93726 0.82583 0.0
H433 H 0.26473 0.96053 0.8399 0.0
H434 H 0.33869 0.89682 0.84966 0.0
H435 H 0.25931 0.91983 0.86341 0.0
H436 H 0.41181 0.98814 0.81025 0.0
H437 H 0.39196 0.01856 0.74296 0.0
H438 H 0.19599 0.93697 0.7709 0.0
H439 H 0.26793 0.88965 0.77082 0.0
Li440 Li -0.00176 0.31694 0.29937 0.0
Li441 Li -8e-05 0.28832 0.33162 0.0
Li442 Li 0.02579 0.27744 0.29821 0.0
Li443 Li 0.97506 0.27434 0.29793 0.0
C444 C 0.03658 0.33038 0.33157 0.0
N445 N 0.04944 0.37384 0.35851 0.0
C446 C 0.01667 0.34427 0.34331 0.0
C447 C 0.06305 0.33855 0.33362 0.0
C448 C 0.02357 0.36619 0.35682 0.0
C449 C 0.06915 0.36059 0.3473 0.0
C450 C 0.94539 0.30827 0.33031 0.0
C451 C 0.90563 0.29055 0.34775 0.0
N452 N 0.8989 0.31547 0.35487 0.0
C453 C 0.93793 0.33375 0.33759 0.0
C454 C 0.92899 0.28651 0.33524 0.0
C455 C 0.91442 0.33696 0.35008 0.0
C456 C 0.96844 0.35836 0.28174 0.0
N457 N 0.99342 0.35237 0.28896 0.0
C458 C 0.00736 0.39734 0.28334 0.0
C459 C 0.01301 0.371 0.28931 0.0
C460 C 0.98144 0.40439 0.27646 0.0
C461 C 0.96206 0.38425 0.27512 0.0
H462 H 0.95337 0.34298 0.28142 0.0
H463 H 0.03284 0.36562 0.29477 0.0
C464 C 0.02739 0.28561 0.37315 0.0
N465 N 0.00226 0.286 0.36451 0.0
C466 C 0.03166 0.28312 0.39668 0.0
C467 C 0.98408 0.28128 0.40222 0.0
C468 C 0.98073 0.28386 0.37853 0.0
C469 C 0.00984 0.2808 0.41158 0.0
H470 H 0.04423 0.28685 0.36167 0.0
H471 H 0.96097 0.28364 0.37145 0.0
C472 C 0.00271 0.30543 0.25584 0.0
N473 N 0.00796 0.33946 0.21889 0.0
C474 C 0.98082 0.31087 0.24182 0.0
C475 C 0.0273 0.31713 0.25102 0.0
C476 C 0.98388 0.32818 0.22323 0.0
C477 C 0.02954 0.33433 0.23228 0.0
C478 C 0.00509 0.23647 0.33373 0.0
C479 C 0.03071 0.23077 0.34165 0.0
C480 C 0.98305 0.22552 0.34489 0.0
C481 C 0.03385 0.21444 0.36087 0.0
C482 C 0.98703 0.20929 0.36407 0.0
N483 N 0.01213 0.20416 0.37161 0.0
C484 C 0.08059 0.27337 0.28704 0.0
C485 C 0.0543 0.23488 0.2805 0.0
C486 C 0.10349 0.25983 0.28002 0.0
N487 N 0.05675 0.26065 0.28725 0.0
C488 C 0.07661 0.22058 0.27341 0.0
C489 C 0.10167 0.233 0.27322 0.0
H490 H 0.08184 0.29392 0.29253 0.0
H491 H 0.03503 0.2253 0.28107 0.0
C492 C 0.92507 0.27159 0.27723 0.0
N493 N 0.94545 0.25658 0.28544 0.0
C494 C 0.90293 0.25936 0.26738 0.0
C495 C 0.92325 0.21648 0.27473 0.0
C496 C 0.945 0.22956 0.28445 0.0
C497 C 0.90186 0.23143 0.26598 0.0
H498 H 0.92609 0.29309 0.27835 0.0
H499 H 0.96164 0.21823 0.29105 0.0
O500 O 0.03041 0.30882 0.31818 0.0
O501 O 0.96801 0.30494 0.31757 0.0
O502 O -3e-05 0.2892 0.27451 0.0
O503 O 0.0016 0.25308 0.31539 0.0
H504 H 0.99616 0.33817 0.34208 0.0
H505 H 0.07873 0.32798 0.3247 0.0
H506 H 0.00834 0.37711 0.36598 0.0
H507 H 0.08955 0.36715 0.34901 0.0
H508 H 0.89286 0.27386 0.35181 0.0
H509 H 0.95011 0.3509 0.33355 0.0
H510 H 0.93435 0.26668 0.3297 0.0
H511 H 0.90846 0.35655 0.35589 0.0
H512 H 0.02295 0.41209 0.28494 0.0
H513 H 0.94202 0.38845 0.26936 0.0
H514 H 0.05187 0.28311 0.40312 0.0
H515 H 0.96669 0.27909 0.41303 0.0
H516 H 0.96164 0.30201 0.24538 0.0
H517 H 0.04437 0.31324 0.26184 0.0
H518 H 0.96709 0.33269 0.21228 0.0
H519 H 0.04841 0.34367 0.22842 0.0
H520 H 0.04796 0.2392 0.33326 0.0
H521 H 0.96311 0.22966 0.33892 0.0
H522 H 0.05355 0.21003 0.36732 0.0
H523 H 0.97016 0.20082 0.37298 0.0
H524 H 0.12236 0.27022 0.27992 0.0
H525 H 0.07433 0.19983 0.26871 0.0
H526 H 0.88675 0.27162 0.26112 0.0
H527 H 0.9234 0.19493 0.27372 0.0
Li528 Li 0.70913 0.99336 0.84296 0.0
Li529 Li 0.72858 0.96868 0.81068 0.0
Li530 Li 0.72843 0.01684 0.81218 0.0
Li531 Li 0.68674 0.99274 0.80624 0.0
C532 C 0.7719 0.00201 0.83462 0.0
N533 N 0.82258 0.02336 0.83625 0.0
C534 C 0.79244 0.99065 0.82173 0.0
C535 C 0.7773 0.02394 0.84867 0.0
C536 C 0.81789 0.00179 0.82271 0.0
C537 C 0.80299 0.03454 0.84916 0.0
C538 C 0.68231 0.93973 0.81791 0.0
C539 C 0.67117 0.91135 0.7859 0.0
N540 N 0.65833 0.89453 0.80046 0.0
C541 C 0.66897 0.9222 0.83254 0.0
C542 C 0.6834 0.93432 0.79438 0.0
C543 C 0.65699 0.89944 0.82339 0.0
C544 C 0.67763 0.98926 0.88268 0.0
N545 N 0.70303 0.99174 0.87501 0.0
C546 C 0.7198 0.98993 0.9133 0.0
C547 C 0.724 0.99211 0.8897 0.0
C548 C 0.69375 0.98737 0.92183 0.0
C549 C 0.67249 0.98725 0.90615 0.0
H550 H 0.66138 0.98876 0.87051 0.0
H551 H 0.74401 0.99367 0.88307 0.0
C552 C 0.76241 0.93786 0.78272 0.0
N553 N 0.7475 0.9377 0.80215 0.0
C554 C 0.77784 0.91573 0.77696 0.0
C555 C 0.76127 0.8933 0.81079 0.0
C556 C 0.74649 0.91603 0.81607 0.0
C557 C 0.77761 0.89308 0.7912 0.0
H558 H 0.76297 0.95554 0.77213 0.0
H559 H 0.73442 0.91653 0.83143 0.0
C560 C 0.68256 0.03875 0.8435 0.0
N561 N 0.66075 0.06745 0.87939 0.0
C562 C 0.65495 0.04083 0.84576 0.0
C563 C 0.69904 0.05175 0.85923 0.0
C564 C 0.64431 0.05531 0.86408 0.0
C565 C 0.68766 0.06601 0.87734 0.0
C566 C 0.71468 0.00801 0.76628 0.0
C567 C 0.702 0.0328 0.76757 0.0
C568 C 0.72371 -0.00135 0.74508 0.0
C569 C 0.69858 0.04778 0.74759 0.0
C570 C 0.71985 0.01422 0.72548 0.0
N571 N 0.70749 0.03826 0.72714 0.0
C572 C 0.76956 0.04396 0.78939 0.0
C573 C 0.73787 0.07222 0.80723 0.0
C574 C 0.78294 0.0659 0.78037 0.0
N575 N 0.74761 0.0475 0.80266 0.0
C576 C 0.75034 0.09473 0.79818 0.0
C577 C 0.77311 0.09162 0.78453 0.0
H578 H 0.77624 0.02403 0.78531 0.0
H579 H 0.71995 0.07443 0.81728 0.0
C580 C 0.63278 0.98605 0.80866 0.0
N581 N 0.65213 0.99119 0.79304 0.0
C582 C 0.60616 0.98595 0.80211 0.0
C583 C 0.6198 0.99501 0.76312 0.0
C584 C 0.64628 0.99478 0.77045 0.0
C585 C 0.59932 0.99115 0.77918 0.0
H586 H 0.63808 0.98252 0.8264 0.0
H587 H 0.66193 0.99777 0.75807 0.0
O588 O 0.74676 0.99155 0.83368 0.0
O589 O 0.69397 0.96217 0.82668 0.0
O590 O 0.6934 0.02427 0.82589 0.0
O591 O 0.719 0.99324 0.78566 0.0
H592 H 0.7888 0.97354 0.81096 0.0
H593 H 0.76187 0.03272 0.8591 0.0
H594 H 0.83389 0.9933 0.81267 0.0
H595 H 0.80737 0.05162 0.85983 0.0
H596 H 0.67187 0.90691 0.76775 0.0
H597 H 0.66789 0.92619 0.85078 0.0
H598 H 0.69353 0.94769 0.78275 0.0
H599 H 0.64661 0.88568 0.83452 0.0
H600 H 0.73684 0.98963 0.92467 0.0
H601 H 0.65207 0.98568 0.91191 0.0
H602 H 0.79045 0.91676 0.76193 0.0
H603 H 0.76004 0.87621 0.82206 0.0
H604 H 0.64183 0.03151 0.83349 0.0
H605 H 0.72039 0.05073 0.85754 0.0
H606 H 0.62298 0.05695 0.86609 0.0
H607 H 0.70023 0.07595 0.88974 0.0
H608 H 0.69476 0.04038 0.78376 0.0
H609 H 0.73362 0.97956 0.74378 0.0
H610 H 0.68881 0.06698 0.74835 0.0
H611 H 0.72673 0.0072 0.70896 0.0
H612 H 0.80021 0.06277 0.76957 0.0
H613 H 0.7422 0.11431 0.80166 0.0
H614 H 0.59108 0.98206 0.81495 0.0
H615 H 0.61541 -0.00109 0.74524 0.0
Li616 Li 0.9747 0.7274 0.30232 0.0
Li617 Li 0.02281 0.7228 0.29732 0.0
Li618 Li 0.9966 0.68511 0.29638 0.0
Li619 Li 0.00538 0.70678 0.33343 0.0
C620 C 0.98741 0.7041 0.25474 0.0
N621 N 0.97362 0.68024 0.21369 0.0
C622 C 0.00657 0.69052 0.24187 0.0
C623 C 0.96131 0.70584 0.2466 0.0
C624 C -0.00082 0.67849 0.22121 0.0
C625 C 0.95472 0.69358 0.22583 0.0
C626 C 0.01838 0.76622 0.32348 0.0
C627 C 0.05212 0.79194 0.3428 0.0
N628 N 0.04941 0.81145 0.32676 0.0
C629 C 0.01573 0.7866 0.30731 0.0
C630 C 0.03658 0.76892 0.34146 0.0
C631 C 0.03169 0.80928 0.30921 0.0
C632 C 0.92426 0.74838 0.31308 0.0
N633 N 0.94479 0.74924 0.29795 0.0
C634 C 0.92378 0.78395 0.27669 0.0
C635 C 0.94498 0.76647 0.27999 0.0
C636 C 0.90232 0.78377 0.29213 0.0
C637 C 0.90264 0.7656 0.31048 0.0
H638 H 0.92485 0.73454 0.3273 0.0
H639 H 0.96179 0.76678 0.26841 0.0
C640 C 0.07402 0.74888 0.29528 0.0
N641 N 0.05197 0.74136 0.2834 0.0
C642 C 0.09417 0.76332 0.28447 0.0
C643 C 0.06834 0.76252 0.24951 0.0
C644 C 0.04882 0.748 0.26096 0.0
C645 C 0.09143 0.77039 0.26126 0.0
H646 H 0.07585 0.74411 0.31326 0.0
H647 H 0.03085 0.7425 0.25198 0.0
C648 C 0.95582 0.67211 0.32386 0.0
N649 N 0.92729 0.62543 0.32861 0.0
C650 C 0.96697 0.6504 0.3354 0.0
C651 C 0.93008 0.67022 0.31494 0.0
C652 C 0.95225 0.62692 0.33754 0.0
C653 C 0.91599 0.64641 0.3175 0.0
C654 C 0.05758 0.68666 0.31083 0.0
C655 C 0.06881 0.67791 0.29022 0.0
C656 C 0.07414 0.69353 0.32918 0.0
C657 C 0.09647 0.6765 0.2882 0.0
C658 C 0.10171 0.69178 0.3265 0.0
N659 N 0.11221 0.6834 0.30623 0.0
C660 C 0.00934 0.63145 0.28803 0.0
C661 C 0.96742 0.64448 0.27317 0.0
C662 C 0.0045 0.60498 0.28204 0.0
N663 N 0.99074 0.65048 0.28381 0.0
C664 C 0.96174 0.6183 0.26688 0.0
C665 C 0.98018 0.59806 0.27176 0.0
H666 H 0.02744 0.63658 0.29699 0.0
H667 H 0.95264 0.65979 0.27053 0.0
C668 C 0.99332 0.71821 0.37911 0.0
N669 N 0.0083 0.70221 0.36546 0.0
C670 C 0.99313 0.71442 0.40284 0.0
C671 C 0.02425 0.67809 0.39796 0.0
C672 C 0.0235 0.68234 0.3743 0.0
C673 C 0.00869 0.69405 0.41262 0.0
H674 H 0.98106 0.73355 0.37146 0.0
H675 H 0.03475 0.66953 0.36295 0.0
O676 O 0.99429 0.71604 0.275 0.0
O677 O 0.00333 0.74366 0.32169 0.0
O678 O 0.97022 0.69495 0.32096 0.0
O679 O 0.03053 0.6881 0.31314 0.0
H680 H 0.02691 0.68929 0.24778 0.0
H681 H 0.9462 0.71621 0.25634 0.0
H682 H 0.01377 0.66779 0.21114 0.0
H683 H 0.93455 0.69459 0.2194 0.0
H684 H 0.06641 0.79426 0.35654 0.0
H685 H 0.00175 0.78474 0.29327 0.0
H686 H 0.03885 0.75327 0.3541 0.0
H687 H 0.03003 0.82512 0.29671 0.0
H688 H 0.92452 0.79793 0.26255 0.0
H689 H 0.88639 0.76473 0.32266 0.0
H690 H 0.11165 0.76889 0.2942 0.0
H691 H 0.06502 0.76808 0.23179 0.0
H692 H 0.98693 0.65154 0.34228 0.0
H693 H 0.92125 0.68684 0.30587 0.0
H694 H 0.96071 0.60986 0.34624 0.0
H695 H 0.89612 0.64457 0.31054 0.0
H696 H 0.0563 0.67226 0.27594 0.0
H697 H 0.06586 0.70068 0.34516 0.0
H698 H 0.10541 0.66987 0.27231 0.0
H699 H 0.11476 0.69723 0.3405 0.0
H700 H 0.01905 0.58995 0.28653 0.0
H701 H 0.94279 0.61382 0.25893 0.0
H702 H 0.98038 0.72688 0.41327 0.0
H703 H 0.03685 0.6624 0.40463 0.0
H704 H 0.29352 0.03077 0.04638 0.0
H705 H 0.33967 0.95943 0.06069 0.0
H706 H 0.34609 0.95249 0.01921 0.0
H707 H 0.25853 0.0036 0.99896 0.0
H708 H 0.25798 0.0343 0.98293 0.0
H709 H 0.25911 0.03513 0.0138 0.0
H710 H 0.30167 0.06423 0.01221 0.0
H711 H 0.30065 0.06352 0.98131 0.0
H712 H 0.33013 0.05264 0.99623 0.0
H713 H 0.34603 0.95225 0.97605 0.0
H714 H 0.33812 0.95805 0.93444 0.0
H715 H 0.2901 0.02802 0.94854 0.0
C716 C 0.30495 0.01363 0.0409 0.0
C717 C 0.31623 0.99578 0.05697 0.0
C718 C 0.3313 0.97379 0.04886 0.0
C719 C 0.33492 0.96954 0.02528 0.0
C720 C 0.32325 0.98735 0.00998 0.0
C721 C 0.30851 0.00891 0.01746 0.0
C722 C 0.29692 0.02433 0.99749 0.0
C723 C 0.26632 0.02432 0.99836 0.0
C724 C 0.30801 0.05287 0.99677 0.0
C725 C 0.30718 0.00786 0.97762 0.0
C726 C 0.32258 0.9868 0.98516 0.0
C727 C 0.33408 0.96873 0.96993 0.0
C728 C 0.32957 0.97222 0.94637 0.0
C729 C 0.31349 0.99344 0.93834 0.0
C730 C 0.30229 0.0115 0.95423 0.0
H731 H 0.97989 0.30191 0.54509 0.0
H732 H 0.04719 0.25014 0.55911 0.0
H733 H 0.05505 0.24523 0.51754 0.0
H734 H 0.95612 0.26739 0.49577 0.0
H735 H 0.94682 0.29712 0.48037 0.0
H736 H 0.94665 0.29702 0.51127 0.0
H737 H 0.97844 0.33766 0.51174 0.0
H738 H 0.97859 0.33799 0.48082 0.0
H739 H 0.00952 0.33592 0.49637 0.0
H740 H 0.05506 0.2451 0.47461 0.0
H741 H 0.04767 0.25036 0.43302 0.0
H742 H 0.98131 0.30346 0.44686 0.0
C743 C 0.99648 0.2898 0.53943 0.0
C744 C 0.01284 0.2763 0.55537 0.0
C745 C 0.03413 0.26034 0.54723 0.0
C746 C 0.03886 0.25755 0.52366 0.0
C747 C 0.0222 0.27092 0.50844 0.0
C748 C 0.00151 0.28682 0.51596 0.0
C749 C 0.98644 0.29883 0.49596 0.0
C750 C 0.95728 0.28952 0.49585 0.0
C751 C 0.98838 0.32941 0.49624 0.0
C752 C 0.00181 0.28705 0.47604 0.0
C753 C 0.02237 0.27104 0.48362 0.0
C754 C 0.03916 0.25776 0.46845 0.0
C755 C 0.03488 0.261 0.44485 0.0
C756 C 0.01402 0.27745 0.43664 0.0
C757 C 0.99729 0.29057 0.45255 0.0
H758 H 0.71976 0.01219 0.95748 0.0
H759 H 0.65692 0.95523 0.94294 0.0
H760 H 0.64921 0.94966 0.98446 0.0
H761 H 0.74651 0.97738 0.00607 0.0
H762 H 0.75426 0.00737 0.02175 0.0
H763 H 0.75414 0.0077 0.99084 0.0
H764 H 0.72016 0.04657 0.99114 0.0
H765 H 0.7202 0.04638 0.02205 0.0
H766 H 0.68932 0.04284 0.00661 0.0
H767 H 0.64858 0.94996 0.02759 0.0
H768 H 0.65561 0.95572 0.0693 0.0
H769 H 0.71979 0.01126 0.05553 0.0
C770 C 0.70449 -0.00161 0.96297 0.0
C771 C 0.68888 0.98426 0.94686 0.0
C772 C 0.66884 0.96668 0.95487 0.0
C773 C 0.66442 0.96322 0.97844 0.0
C774 C 0.68026 0.97737 0.9938 0.0
C775 C 0.69993 0.99456 0.9864 0.0
C776 C 0.71447 0.00709 0.00643 0.0
C777 C 0.7441 -0.00059 0.00626 0.0
C778 C 0.7108 0.03752 0.00656 0.0
C779 C 0.69996 0.99417 0.02627 0.0
C780 C 0.68021 0.9772 0.01863 0.0
C781 C 0.66398 0.9632 0.03379 0.0
C782 C 0.66804 0.96667 0.05741 0.0
C783 C 0.68826 0.98388 0.0656 0.0
C784 C 0.7044 0.99772 0.04975 0.0
H785 H 0.00407 0.73089 0.44758 0.0
H786 H 0.01163 0.64584 0.43495 0.0
H787 H 0.01101 0.63759 0.47658 0.0
H788 H 0.04354 0.73411 0.49839 0.0
H789 H 0.02227 0.7579 0.51257 0.0
H790 H 0.02418 0.75735 0.48171 0.0
H791 H 0.97302 0.75148 0.47926 0.0
H792 H 0.97095 0.75213 0.51011 0.0
H793 H 0.95741 0.72433 0.49437 0.0
H794 H 0.01048 0.63858 0.51956 0.0
H795 H 0.00825 0.64849 0.56085 0.0
H796 H 0.99664 0.73243 0.54533 0.0
C797 C 0.00533 0.71047 0.45345 0.0
C798 C 0.00817 0.68907 0.43781 0.0
C799 C 0.0101 0.6627 0.44646 0.0
C800 C 0.00954 0.65775 0.47012 0.0
C801 C 0.00672 0.67931 0.48496 0.0
C802 C 0.00443 0.70511 0.47698 0.0
C803 C 0.00098 0.72466 0.49657 0.0
C804 C 0.02412 0.74468 0.49735 0.0
C805 C 0.97398 0.73899 0.49498 0.0
C806 C 0.00185 0.70579 0.51682 0.0
C807 C 0.00531 0.67976 0.50974 0.0
C808 C 0.00741 0.65886 0.52532 0.0
C809 C 0.00587 0.66471 0.54879 0.0
C810 C 0.00193 0.69125 0.55654 0.0
C811 C -0.00013 0.71197 0.54016 0.0
H812 H 0.43925 0.03036 0.23517 0.0
H813 H 0.42313 0.9461 0.24374 0.0
H814 H 0.47079 0.938 0.25154 0.0
H815 H 0.49616 0.02395 0.20462 0.0
H816 H 0.51383 0.05157 0.21723 0.0
H817 H 0.47809 0.05161 0.21679 0.0
H818 H 0.47695 0.05753 0.26096 0.0
H819 H 0.51282 0.0578 0.26155 0.0
H820 H 0.49469 0.03436 0.27899 0.0
H821 H 0.5204 0.938 0.25071 0.0
H822 H 0.56788 0.94623 0.24367 0.0
H823 H 0.55193 0.03114 0.23845 0.0
C824 C 0.44572 0.01034 0.23933 0.0
C825 C 0.42766 0.98885 0.23896 0.0
C826 C 0.43669 0.96286 0.24428 0.0
C827 C 0.46369 0.95809 0.24869 0.0
C828 C 0.4812 0.97962 0.24814 0.0
C829 C 0.4725 0.00532 0.24401 0.0
C830 C 0.49557 0.02457 0.2423 0.0
C831 C 0.49592 0.03873 0.21884 0.0
C832 C 0.49497 0.04476 0.26214 0.0
C833 C 0.51865 0.00545 0.24475 0.0
C834 C 0.50997 0.97968 0.24839 0.0
C835 C 0.52752 0.9582 0.24861 0.0
C836 C 0.55458 0.96314 0.24468 0.0
C837 C 0.56391 0.98941 0.24064 0.0
C838 C 0.54562 0.01081 0.24134 0.0
H839 H 0.98135 0.44441 0.68777 0.0
H840 H 0.99711 0.42433 0.75883 0.0
H841 H 4e-05 0.4724 0.7684 0.0
H842 H 0.02714 0.49738 0.68458 0.0
H843 H 0.00688 0.51758 0.66591 0.0
H844 H 0.00381 0.48186 0.66525 0.0
H845 H 0.95323 0.48585 0.67338 0.0
H846 H 0.95614 0.52162 0.67397 0.0
H847 H 0.94201 0.50425 0.69813 0.0
H848 H 0.00214 0.52296 0.7697 0.0
H849 H 0.00592 0.57149 0.76213 0.0
H850 H 0.99045 0.55732 0.68996 0.0
C851 C 0.98493 0.45017 0.70542 0.0
C852 C 0.98871 0.43085 0.72265 0.0
C853 C 0.9941 0.439 0.74545 0.0
C854 C 0.99568 0.46617 0.75102 0.0
C855 C 0.99203 0.48478 0.73354 0.0
C856 C 0.9869 0.47708 0.71118 0.0
C857 C 0.9854 0.50078 0.69525 0.0
C858 C 0.0071 0.4993 0.67666 0.0
C859 C 0.95754 0.50326 0.68456 0.0
C860 C 0.99074 0.52305 0.71206 0.0
C861 C 0.99418 0.51356 0.73413 0.0
C862 C -0.00054 0.53061 0.75249 0.0
C863 C 0.00151 0.55805 0.74808 0.0
C864 C -0.00133 0.56793 0.72547 0.0
C865 C 0.99301 0.55018 0.70736 0.0
H866 H 0.55931 0.01494 0.80328 0.0
H867 H 0.57517 0.9722 0.73997 0.0
H868 H 0.52732 0.97442 0.73011 0.0
H869 H 0.50033 0.98149 0.81683 0.0
H870 H 0.48408 0.0103 0.82891 0.0
H871 H 0.51977 0.00786 0.8295 0.0
H872 H 0.52342 0.05327 0.80849 0.0
H873 H 0.48767 0.05583 0.8078 0.0
H874 H 0.50647 0.05795 0.78152 0.0
H875 H 0.47694 0.97864 0.72878 0.0
H876 H 0.4287 0.98316 0.73677 0.0
H877 H 0.44684 0.0221 0.80134 0.0
C878 C 0.55279 0.00604 0.78731 0.0
C879 C 0.57096 0.99331 0.77243 0.0
C880 C 0.56164 0.98229 0.75153 0.0
C881 C 0.53451 0.98342 0.74581 0.0
C882 C 0.51709 0.99576 0.76112 0.0
C883 C 0.52594 0.00689 0.78143 0.0
C884 C 0.50321 0.01757 0.79568 0.0
C885 C 0.50177 0.00345 0.8191 0.0
C886 C 0.50533 0.04796 0.79853 0.0
C887 C 0.48003 0.01009 0.78053 0.0
C888 C 0.48835 0.99787 0.76051 0.0
C889 C 0.47024 0.9884 0.7443 0.0
C890 C 0.44294 0.99111 0.74892 0.0
C891 C 0.43419 0.00288 0.76968 0.0
C892 C 0.45303 0.01286 0.7854 0.0
H893 H 0.01263 0.44424 0.25787 0.0
H894 H 0.93415 0.42928 0.28643 0.0
H895 H 0.92328 0.47674 0.28257 0.0
H896 H 0.02374 0.50193 0.28909 0.0
H897 H 0.04174 0.5192 0.26686 0.0
H898 H 0.04185 0.48338 0.26766 0.0
H899 H 0.02402 0.48189 0.22594 0.0
H900 H 0.02389 0.51781 0.225 0.0
H901 H 0.99388 0.49952 0.21879 0.0
H902 H 0.92252 0.52607 0.2803 0.0
H903 H 0.9327 0.57406 0.28123 0.0
H904 H 0.01217 0.55775 0.25563 0.0
C905 C 0.99304 0.4508 0.2631 0.0
C906 C 0.9742 0.43273 0.2722 0.0
C907 C 0.94877 0.44238 0.27878 0.0
C908 C 0.94239 0.46942 0.27677 0.0
C909 C 0.96163 0.48669 0.26822 0.0
C910 C 0.98645 0.47781 0.26151 0.0
C911 C 0.00449 0.50087 0.25529 0.0
C912 C 0.02941 0.50137 0.27065 0.0
C913 C 0.012 0.49996 0.22973 0.0
C914 C 0.9862 0.52411 0.26039 0.0
C915 C 0.9614 0.51546 0.26738 0.0
C916 C 0.94168 0.53314 0.27445 0.0
C917 C 0.94762 0.56039 0.2748 0.0
C918 C 0.97315 0.56967 0.26831 0.0
C919 C 0.99246 0.55125 0.26062 0.0
H920 H 0.10676 0.19649 0.23844 0.0
H921 H 0.15083 0.23428 0.29364 0.0
H922 H 0.18984 0.20626 0.28458 0.0
H923 H 0.13015 0.13147 0.24848 0.0
H924 H 0.13178 0.12226 0.21861 0.0
H925 H 0.10826 0.14704 0.22796 0.0
H926 H 0.12761 0.18073 0.19867 0.0
H927 H 0.15113 0.15599 0.18913 0.0
H928 H 0.16273 0.18798 0.19901 0.0
H929 H 0.22278 0.17174 0.2714 0.0
H930 H 0.24741 0.13382 0.25472 0.0
H931 H 0.18162 0.11868 0.20822 0.0
C932 C 0.12465 0.19899 0.24857 0.0
C933 C 0.12575 0.21763 0.26672 0.0
C934 C 0.14964 0.22043 0.27943 0.0
C935 C 0.17186 0.2045 0.27449 0.0
C936 C 0.16988 0.18599 0.25674 0.0
C937 C 0.14694 0.18327 0.2439 0.0
C938 C 0.14952 0.16111 0.22642 0.0
C939 C 0.1287 0.13918 0.23063 0.0
C940 C 0.14764 0.17212 0.20185 0.0
C941 C 0.17732 0.1514 0.23176 0.0
C942 C 0.18882 0.16612 0.24918 0.0
C943 C 0.21411 0.16028 0.25755 0.0
C944 C 0.22798 0.13878 0.2479 0.0
C945 C 0.2165 0.12333 0.23009 0.0
C946 C 0.19088 0.12995 0.22191 0.0
H947 H 0.8952 0.18256 0.74672 0.0
H948 H 0.8398 0.2292 0.70625 0.0
H949 H 0.80254 0.2013 0.7204 0.0
H950 H 0.8644 0.1197 0.73606 0.0
H951 H 0.8711 0.10676 0.76433 0.0
H952 H 0.89292 0.13129 0.75195 0.0
H953 H 0.88589 0.1618 0.78736 0.0
H954 H 0.86401 0.13736 0.79985 0.0
H955 H 0.85259 0.17107 0.79566 0.0
H956 H 0.77152 0.16844 0.73941 0.0
H957 H 0.74948 0.13079 0.75923 0.0
H958 H 0.8258 0.10463 0.78561 0.0
C959 C 0.87516 0.18701 0.74105 0.0
C960 C 0.87015 0.20808 0.72564 0.0
C961 C 0.84386 0.21308 0.71812 0.0
C962 C 0.82266 0.19746 0.72612 0.0
C963 C 0.82826 0.17681 0.74139 0.0
C964 C 0.85391 0.1714 0.74858 0.0
C965 C 0.85484 0.14728 0.76411 0.0
C966 C 0.87181 0.12494 0.75347 0.0
C967 C 0.86493 0.15484 0.78817 0.0
C968 C 0.8257 0.1399 0.76456 0.0
C969 C 0.81062 0.15735 0.75158 0.0
C970 C 0.78313 0.15464 0.74958 0.0
C971 C 0.77078 0.13334 0.76095 0.0
C972 C 0.78603 0.11494 0.77385 0.0
C973 C 0.81378 0.11838 0.77572 0.0
H974 H 0.87723 0.79864 0.25239 0.0
H975 H 0.87808 0.81304 0.32584 0.0
H976 H 0.84356 0.84765 0.32107 0.0
H977 H 0.87134 0.86576 0.23563 0.0
H978 H 0.84964 0.85923 0.21165 0.0
H979 H 0.87271 0.83408 0.22107 0.0
H980 H 0.83389 0.80058 0.22603 0.0
H981 H 0.81067 0.82564 0.21655 0.0
H982 H 0.80591 0.80943 0.24384 0.0
H983 H 0.81164 0.88296 0.30793 0.0
H984 H 0.78326 0.91542 0.28746 0.0
H985 H 0.80362 0.87805 0.22263 0.0
C986 C 0.87004 0.80897 0.26749 0.0
C987 C 0.88028 0.80314 0.2895 0.0
C988 C 0.87024 0.81694 0.30886 0.0
C989 C 0.85074 0.8367 0.30631 0.0
C990 C 0.8414 0.84225 0.28432 0.0
C991 C 0.85057 0.82866 0.26527 0.0
C992 C 0.83798 0.83906 0.24344 0.0
C993 C 0.85918 0.8502 0.22699 0.0
C994 C 0.82111 0.81739 0.23179 0.0
C995 C 0.82071 0.86102 0.25315 0.0
C996 C 0.82288 0.86248 0.27676 0.0
C997 C 0.8096 0.88188 0.28947 0.0
C998 C 0.7937 0.90031 0.2777 0.0
C999 C 0.79124 0.89916 0.2535 0.0
C1000 C 0.80482 0.87912 0.24116 0.0
H1001 H 0.10863 0.81198 0.74529 0.0
H1002 H 0.15361 0.78022 0.68792 0.0
H1003 H 0.1908 0.81069 0.69719 0.0
H1004 H 0.12877 0.87959 0.73831 0.0
H1005 H 0.13033 0.88641 0.76865 0.0
H1006 H 0.10774 0.86151 0.75794 0.0
H1007 H 0.12873 0.8264 0.7851 0.0
H1008 H 0.15134 0.85122 0.79595 0.0
H1009 H 0.16411 0.82059 0.78412 0.0
H1010 H 0.22289 0.84468 0.71279 0.0
H1011 H 0.24703 0.88082 0.73271 0.0
H1012 H 0.18065 0.89048 0.7796 0.0
C1013 C 0.12645 0.81122 0.73486 0.0
C1014 C 0.12839 0.79367 0.71599 0.0
C1015 C 0.15175 0.79362 0.70241 0.0
C1016 C 0.17297 0.81075 0.7076 0.0
C1017 C 0.17037 0.82784 0.72632 0.0
C1018 C 0.14767 0.82827 0.73969 0.0
C1019 C 0.14955 0.84905 0.75844 0.0
C1020 C 0.12781 0.8704 0.75566 0.0
C1021 C 0.14837 0.83603 0.78231 0.0
C1022 C 0.17686 0.86029 0.75354 0.0
C1023 C 0.18862 0.8477 0.73504 0.0
C1024 C 0.21391 0.85465 0.72733 0.0
C1025 C 0.2275 0.87508 0.7388 0.0
C1026 C 0.21569 0.88839 0.75769 0.0
C1027 C 0.19005 0.88081 0.76509 0.0
H1028 H 0.7916 0.87248 0.74901 0.0
H1029 H 0.80447 0.86184 0.82218 0.0
H1030 H 0.83589 0.82543 0.81407 0.0
H1031 H 0.79851 0.80235 0.73211 0.0
H1032 H 0.81619 0.81047 0.70613 0.0
H1033 H 0.79208 0.83345 0.71765 0.0
H1034 H 0.8278 0.87068 0.71838 0.0
H1035 H 0.85199 0.84784 0.7069 0.0
H1036 H 0.85862 0.86505 0.73345 0.0
H1037 H 0.8686 0.79286 0.79821 0.0
H1038 H 0.90128 0.76725 0.77563 0.0
H1039 H 0.86839 0.79996 0.71276 0.0
C1040 C 0.80088 0.86246 0.76337 0.0
C1041 C 0.79527 0.86999 0.78626 0.0
C1042 C 0.80784 0.85613 0.8045 0.0
C1043 C 0.82588 0.83547 0.80008 0.0
C1044 C 0.83122 0.82889 0.77734 0.0
C1045 C 0.81913 0.84197 0.75927 0.0
C1046 C 0.82982 0.83238 0.73642 0.0
C1047 C 0.80784 0.81885 0.72225 0.0
C1048 C 0.84283 0.85536 0.72301 0.0
C1049 C 0.85031 0.81236 0.7445 0.0
C1050 C 0.85051 0.81038 0.76815 0.0
C1051 C 0.86841 0.79397 0.77967 0.0
C1052 C 0.88681 0.7794 0.76668 0.0
C1053 C 0.8873 0.78149 0.74243 0.0
C1054 C 0.86855 0.798 0.73126 0.0
H1055 H 0.1954 0.88942 0.24739 0.0
H1056 H 0.2024 0.86694 0.17561 0.0
H1057 H 0.1724 0.82896 0.18231 0.0
H1058 H 0.19165 0.82318 0.27097 0.0
H1059 H 0.16712 0.83196 0.29224 0.0
H1060 H 0.19039 0.85664 0.28222 0.0
H1061 H 0.15133 0.88766 0.27077 0.0
H1062 H 0.12796 0.86316 0.28089 0.0
H1063 H 0.12577 0.87531 0.25185 0.0
H1064 H 0.14119 0.79383 0.19654 0.0
H1065 H 0.10918 0.76514 0.21696 0.0
H1066 H 0.1202 0.81234 0.27874 0.0
C1067 C 0.19056 0.87665 0.23301 0.0
C1068 C 0.20156 0.88111 0.21101 0.0
C1069 C 0.19479 0.86366 0.19276 0.0
C1070 C 0.17761 0.84209 0.19634 0.0
C1071 C 0.1672 0.8383 0.21823 0.0
C1072 C 0.17325 0.85517 0.23622 0.0
C1073 C 0.15854 0.84727 0.25784 0.0
C1074 C 0.1781 0.83928 0.27694 0.0
C1075 C 0.13979 0.86968 0.26579 0.0
C1076 C 0.14315 0.8234 0.24913 0.0
C1077 C 0.14861 0.81844 0.22629 0.0
C1078 C 0.13666 0.79756 0.21441 0.0
C1079 C 0.11838 0.78149 0.22613 0.0
C1080 C 0.11203 0.78653 0.24944 0.0
C1081 C 0.12484 0.80769 0.26105 0.0
H1082 H 0.10188 0.17947 0.72325 0.0
H1083 H 0.12685 0.25137 0.75835 0.0
H1084 H 0.16515 0.22698 0.77514 0.0
H1085 H 0.11897 0.13292 0.76702 0.0
H1086 H 0.13091 0.10788 0.74736 0.0
H1087 H 0.10561 0.13103 0.73835 0.0
H1088 H 0.13492 0.14539 0.7039 0.0
H1089 H 0.16029 0.1222 0.71275 0.0
H1090 H 0.16837 0.15692 0.70901 0.0
H1091 H 0.199 0.19378 0.78962 0.0
H1092 H 0.22778 0.1555 0.79871 0.0
H1093 H 0.18273 0.10661 0.75089 0.0
C1094 C 0.11545 0.18997 0.73452 0.0
C1095 C 0.11154 0.2171 0.73978 0.0
C1096 C 0.12972 0.23051 0.75425 0.0
C1097 C 0.15139 0.21683 0.76384 0.0
C1098 C 0.15468 0.18997 0.7584 0.0
C1099 C 0.1374 0.17679 0.74384 0.0
C1100 C 0.14568 0.14811 0.74027 0.0
C1101 C 0.124 0.12886 0.74876 0.0
C1102 C 0.15274 0.14286 0.71498 0.0
C1103 C 0.1701 0.14706 0.7554 0.0
C1104 C 0.17488 0.17131 0.76581 0.0
C1105 C 0.19571 0.1748 0.78127 0.0
C1106 C 0.21212 0.15291 0.78617 0.0
C1107 C 0.20783 0.12788 0.77542 0.0
C1108 C 0.18654 0.1252 0.7597 0.0
H1109 H 0.87664 0.1861 0.2806 0.0
H1110 H 0.87492 0.24616 0.22703 0.0
H1111 H 0.83708 0.22302 0.20874 0.0
H1112 H 0.86359 0.13079 0.24431 0.0
H1113 H 0.84334 0.11356 0.26507 0.0
H1114 H 0.86915 0.13583 0.27457 0.0
H1115 H 0.83455 0.16246 0.29834 0.0
H1116 H 0.8086 0.14031 0.28882 0.0
H1117 H 0.80544 0.1757 0.28432 0.0
H1118 H 0.80082 0.19193 0.19528 0.0
H1119 H 0.76898 0.15534 0.18784 0.0
H1120 H 0.79546 0.11555 0.24989 0.0
C1121 C 0.86835 0.19439 0.265 0.0
C1122 C 0.87871 0.21797 0.25527 0.0
C1123 C 0.86707 0.22832 0.23498 0.0
C1124 C 0.84565 0.21527 0.22442 0.0
C1125 C 0.83606 0.19196 0.23441 0.0
C1126 C 0.84702 0.18165 0.25426 0.0
C1127 C 0.83364 0.1559 0.26118 0.0
C1128 C 0.85362 0.13265 0.26128 0.0
C1129 C 0.81973 0.15878 0.28455 0.0
C1130 C 0.81366 0.15312 0.24193 0.0
C1131 C 0.81525 0.17416 0.2267 0.0
C1132 C 0.7993 0.17544 0.20716 0.0
C1133 C 0.78138 0.15454 0.20302 0.0
C1134 C 0.77962 0.13271 0.21836 0.0
C1135 C 0.79591 0.13222 0.2381 0.0
loop_
_geom_bond_atom_site_label_1
_geom_bond_atom_site_label_2
_geom_bond_distance
_geom_bond_site_symmetry_2
_ccdc_geom_bond_type
Li0 N17 1.990 . S
Li0 O60 1.956 . S
Li0 O61 1.970 . S
Li0 O62 1.977 . S
Li1 N25 1.990 1_545 S
Li1 O60 1.982 . S
Li1 O61 1.956 . S
Li1 O63 1.950 1_545 S
Li2 N47 1.990 . S
Li2 O60 1.961 . S
Li2 O62 1.957 . S
Li2 O63 1.970 1_545 S
Li3 N53 1.990 . S
Li3 O61 1.961 1_565 S
Li3 O62 1.955 1_565 S
Li3 O63 1.956 . S
C4 C6 1.348 . S
C4 C7 1.356 . S
C4 O60 1.325 . S
N5 C8 1.314 . S
N5 C9 1.279 . S
C6 C4 1.348 . S
C6 C8 1.353 . S
C6 H64 0.929 . S
C7 C4 1.356 . S
C7 C9 1.358 . S
C7 H65 0.930 . S
C8 N5 1.314 . S
C8 C6 1.353 . S
C8 H66 0.930 . S
C9 N5 1.279 . S
C9 C7 1.358 . S
C9 H67 0.930 . S
C10 C13 1.375 . S
C10 C14 1.329 1_545 S
C10 O61 1.326 . S
C11 N12 1.290 . S
C11 C14 1.358 . S
C11 H68 0.930 . S
N12 C11 1.290 . S
N12 C15 1.303 1_565 S
C13 C10 1.375 . S
C13 C15 1.353 . S
C13 H69 0.929 . S
C14 C10 1.329 1_565 S
C14 C11 1.358 . S
C14 H70 0.930 . S
C15 N12 1.303 1_545 S
C15 C13 1.353 . S
C15 H71 0.930 . S
C16 N17 1.314 . S
C16 C21 1.353 . S
C16 H22 0.930 . S
N17 Li0 1.990 . S
N17 C16 1.314 . S
N17 C19 1.279 . S
C18 C19 1.358 . S
C18 C20 1.356 . S
C18 H72 0.930 . S
C19 N17 1.279 . S
C19 C18 1.358 . S
C19 H23 0.930 . S
C20 C18 1.356 . S
C20 C21 1.348 . S
C21 C16 1.353 . S
C21 C20 1.348 . S
C21 H73 0.929 . S
H22 C16 0.930 . S
H23 C19 0.930 . S
C24 N25 1.314 . S
C24 C26 1.353 . S
C24 H30 0.930 . S
N25 Li1 1.990 1_565 S
N25 C24 1.314 . S
N25 C28 1.279 1_565 S
C26 C24 1.353 . S
C26 C29 1.337 1_565 S
C26 H74 0.929 . S
C27 C28 1.358 . S
C27 C29 1.364 . S
C27 H75 0.930 . S
C28 N25 1.279 1_545 S
C28 C27 1.358 . S
C28 H31 0.930 . S
C29 C26 1.337 1_545 S
C29 C27 1.364 . S
H30 C24 0.930 . S
H31 C28 0.930 . S
C32 C34 1.313 1_545 S
C32 C35 1.390 . S
C32 O62 1.325 . S
N33 C36 1.314 1_545 S
N33 C37 1.279 . S
C34 C32 1.313 1_565 S
C34 C36 1.353 . S
C34 H76 0.929 . S
C35 C32 1.390 . S
C35 C37 1.358 . S
C35 H77 0.930 . S
C36 N33 1.314 1_565 S
C36 C34 1.353 . S
C36 H78 0.930 . S
C37 N33 1.279 . S
C37 C35 1.358 . S
C37 H79 0.930 . S
C38 C39 1.348 . S
C38 C40 1.356 . S
C38 O63 1.325 . S
C39 C38 1.348 . S
C39 C41 1.353 . S
C39 H80 0.929 . S
C40 C38 1.356 . S
C40 C42 1.358 . S
C40 H81 0.930 . S
C41 C39 1.353 . S
C41 N43 1.314 . S
C41 H82 0.930 . S
C42 C40 1.358 . S
C42 N43 1.279 . S
C42 H83 0.930 . S
N43 C41 1.314 . S
N43 C42 1.279 . S
C44 C46 1.353 . S
C44 N47 1.314 . S
C44 H50 0.930 . S
C45 N47 1.279 1_565 S
C45 C48 1.358 . S
C45 H51 0.930 . S
C46 C44 1.353 . S
C46 C49 1.359 . S
C46 H84 0.929 . S
N47 Li2 1.990 . S
N47 C44 1.314 . S
N47 C45 1.279 1_545 S
C48 C45 1.358 . S
C48 C49 1.350 1_565 S
C48 H85 0.930 . S
C49 C46 1.359 . S
C49 C48 1.350 1_545 S
H50 C44 0.930 . S
H51 C45 0.930 . S
C52 N53 1.314 . S
C52 C54 1.353 . S
C52 H58 0.930 . S
N53 Li3 1.990 . S
N53 C52 1.314 . S
N53 C56 1.279 . S
C54 C52 1.353 . S
C54 C57 1.348 . S
C54 H86 0.929 . S
C55 C56 1.358 . S
C55 C57 1.356 . S
C55 H87 0.930 . S
C56 N53 1.279 . S
C56 C55 1.358 . S
C56 H59 0.930 . S
C57 C54 1.348 . S
C57 C55 1.356 . S
H58 C52 0.930 . S
H59 C56 0.930 . S
O60 Li0 1.956 . S
O60 Li1 1.982 . S
O60 Li2 1.961 . S
O60 C4 1.325 . S
O61 Li0 1.970 . S
O61 Li1 1.956 . S
O61 Li3 1.961 1_545 S
O61 C10 1.326 . S
O62 Li0 1.977 . S
O62 Li2 1.957 . S
O62 Li3 1.955 1_545 S
O62 C32 1.325 . S
O63 Li1 1.950 1_565 S
O63 Li2 1.970 1_565 S
O63 Li3 1.956 . S
O63 C38 1.325 . S
H64 C6 0.929 . S
H65 C7 0.930 . S
H66 C8 0.930 . S
H67 C9 0.930 . S
H68 C11 0.930 . S
H69 C13 0.929 . S
H70 C14 0.930 . S
H71 C15 0.930 . S
H72 C18 0.930 . S
H73 C21 0.929 . S
H74 C26 0.929 . S
H75 C27 0.930 . S
H76 C34 0.929 . S
H77 C35 0.930 . S
H78 C36 0.930 . S
H79 C37 0.930 . S
H80 C39 0.929 . S
H81 C40 0.930 . S
H82 C41 0.930 . S
H83 C42 0.930 . S
H84 C46 0.929 . S
H85 C48 0.930 . S
H86 C54 0.929 . S
H87 C55 0.930 . S
Li88 N105 1.990 . S
Li88 O148 1.956 . S
Li88 O149 1.970 1_455 S
Li88 O150 1.960 1_455 S
Li89 N113 1.991 . S
Li89 O148 1.957 1_655 S
Li89 O149 1.969 . S
Li89 O151 1.960 1_655 S
Li90 N135 1.990 . S
Li90 O148 1.961 . S
Li90 O150 1.948 1_455 S
Li90 O151 1.970 . S
Li91 N141 1.990 . S
Li91 O149 1.961 . S
Li91 O150 1.978 . S
Li91 O151 1.956 1_655 S
C92 C94 1.348 . S
C92 C95 1.356 . S
C92 O148 1.325 . S
N93 C96 1.314 . S
N93 C97 1.279 . S
C94 C92 1.348 . S
C94 C96 1.353 . S
C94 H152 0.929 . S
C95 C92 1.356 . S
C95 C97 1.358 . S
C95 H153 0.930 . S
C96 N93 1.314 . S
C96 C94 1.353 . S
C96 H154 0.930 . S
C97 N93 1.279 . S
C97 C95 1.358 . S
C97 H155 0.930 . S
C98 C101 1.348 . S
C98 C102 1.356 . S
C98 O149 1.325 . S
C99 N100 1.279 . S
C99 C102 1.358 . S
C99 H156 0.930 . S
N100 C99 1.279 . S
N100 C103 1.314 . S
C101 C98 1.348 . S
C101 C103 1.353 . S
C101 H157 0.929 . S
C102 C98 1.356 . S
C102 C99 1.358 . S
C102 H158 0.930 . S
C103 N100 1.314 . S
C103 C101 1.353 . S
C103 H159 0.930 . S
C104 N105 1.314 1_655 S
C104 C109 1.353 . S
C104 H110 0.930 . S
N105 Li88 1.990 . S
N105 C104 1.314 1_455 S
N105 C107 1.279 . S
C106 C107 1.358 . S
C106 C108 1.377 . S
C106 H160 0.930 . S
C107 N105 1.279 . S
C107 C106 1.358 . S
C107 H111 0.930 . S
C108 C106 1.377 . S
C108 C109 1.330 1_455 S
C109 C104 1.353 . S
C109 C108 1.330 1_655 S
C109 H161 0.929 . S
H110 C104 0.930 . S
H111 C107 0.930 . S
C112 N113 1.314 1_455 S
C112 C114 1.353 . S
C112 H118 0.930 . S
N113 Li89 1.991 . S
N113 C112 1.314 1_655 S
N113 C116 1.279 . S
C114 C112 1.353 . S
C114 C117 1.363 . S
C114 H162 0.929 . S
C115 C116 1.358 . S
C115 C117 1.338 1_655 S
C115 H163 0.930 . S
C116 N113 1.279 . S
C116 C115 1.358 . S
C116 H119 0.930 . S
C117 C114 1.363 . S
C117 C115 1.338 1_455 S
H118 C112 0.930 . S
H119 C116 0.930 . S
C120 C122 1.331 1_455 S
C120 C123 1.377 . S
C120 O150 1.324 1_455 S
N121 C124 1.314 1_455 S
N121 C125 1.279 . S
C122 C120 1.331 1_655 S
C122 C124 1.353 . S
C122 H164 0.929 . S
C123 C120 1.377 . S
C123 C125 1.358 . S
C123 H165 0.930 . S
C124 N121 1.314 1_655 S
C124 C122 1.353 . S
C124 H166 0.930 . S
C125 N121 1.279 . S
C125 C123 1.358 . S
C125 H167 0.930 . S
C126 C127 1.364 . S
C126 C128 1.337 1_455 S
C126 O151 1.326 . S
C127 C126 1.364 . S
C127 C129 1.353 . S
C127 H168 0.929 . S
C128 C126 1.337 1_655 S
C128 C130 1.358 . S
C128 H169 0.930 . S
C129 C127 1.353 . S
C129 N131 1.314 1_455 S
C129 H170 0.930 . S
C130 C128 1.358 . S
C130 N131 1.279 . S
C130 H171 0.930 . S
N131 C129 1.314 1_655 S
N131 C130 1.279 . S
C132 C134 1.353 . S
C132 N135 1.314 . S
C132 H138 0.930 . S
C133 N135 1.279 . S
C133 C136 1.358 . S
C133 H139 0.930 . S
C134 C132 1.353 . S
C134 C137 1.348 . S
C134 H172 0.929 . S
N135 Li90 1.990 . S
N135 C132 1.314 . S
N135 C133 1.279 . S
C136 C133 1.358 . S
C136 C137 1.356 . S
C136 H173 0.930 . S
C137 C134 1.348 . S
C137 C136 1.356 . S
H138 C132 0.930 . S
H139 C133 0.930 . S
C140 N141 1.314 . S
C140 C142 1.353 . S
C140 H146 0.930 . S
N141 Li91 1.990 . S
N141 C140 1.314 . S
N141 C144 1.279 . S
C142 C140 1.353 . S
C142 C145 1.348 . S
C142 H174 0.929 . S
C143 C144 1.358 . S
C143 C145 1.356 . S
C143 H175 0.930 . S
C144 N141 1.279 . S
C144 C143 1.358 . S
C144 H147 0.930 . S
C145 C142 1.348 . S
C145 C143 1.356 . S
H146 C140 0.930 . S
H147 C144 0.930 . S
O148 Li88 1.956 . S
O148 Li89 1.957 1_455 S
O148 Li90 1.961 . S
O148 C92 1.325 . S
O149 Li88 1.970 1_655 S
O149 Li89 1.969 . S
O149 Li91 1.961 . S
O149 C98 1.325 . S
O150 Li88 1.960 1_655 S
O150 Li90 1.948 1_655 S
O150 Li91 1.978 . S
O150 C120 1.324 1_655 S
O151 Li89 1.960 1_455 S
O151 Li90 1.970 . S
O151 Li91 1.956 1_455 S
O151 C126 1.326 . S
H152 C94 0.929 . S
H153 C95 0.930 . S
H154 C96 0.930 . S
H155 C97 0.930 . S
H156 C99 0.930 . S
H157 C101 0.929 . S
H158 C102 0.930 . S
H159 C103 0.930 . S
H160 C106 0.930 . S
H161 C109 0.929 . S
H162 C114 0.929 . S
H163 C115 0.930 . S
H164 C122 0.929 . S
H165 C123 0.930 . S
H166 C124 0.930 . S
H167 C125 0.930 . S
H168 C127 0.929 . S
H169 C128 0.930 . S
H170 C129 0.930 . S
H171 C130 0.930 . S
H172 C134 0.929 . S
H173 C136 0.930 . S
H174 C142 0.929 . S
H175 C143 0.930 . S
Li176 N193 1.990 . S
Li176 O236 1.956 . S
Li176 O237 1.970 1_545 S
Li176 O238 1.961 . S
Li177 N201 1.990 . S
Li177 O236 1.970 1_565 S
Li177 O237 1.956 . S
Li177 O239 1.961 1_565 S
Li178 N223 1.990 . S
Li178 O236 1.961 . S
Li178 O238 1.956 . S
Li178 O239 1.970 . S
Li179 N229 1.990 1_545 S
Li179 O237 1.961 1_545 S
Li179 O238 1.970 . S
Li179 O239 1.956 . S
C180 C182 1.348 1_545 S
C180 C183 1.356 . S
C180 O236 1.325 . S
N181 C184 1.314 1_545 S
N181 C185 1.279 . S
C182 C180 1.348 1_565 S
C182 C184 1.353 . S
C182 H240 0.929 . S
C183 C180 1.356 . S
C183 C185 1.358 . S
C183 H241 0.930 . S
C184 N181 1.314 1_565 S
C184 C182 1.353 . S
C184 H242 0.930 . S
C185 N181 1.279 . S
C185 C183 1.358 . S
C185 H243 0.930 . S
C186 C189 1.348 . S
C186 C190 1.356 . S
C186 O237 1.325 . S
C187 N188 1.279 . S
C187 C190 1.358 . S
C187 H244 0.930 . S
N188 C187 1.279 . S
N188 C191 1.314 . S
C189 C186 1.348 . S
C189 C191 1.353 . S
C189 H245 0.929 . S
C190 C186 1.356 . S
C190 C187 1.358 . S
C190 H246 0.930 . S
C191 N188 1.314 . S
C191 C189 1.353 . S
C191 H247 0.930 . S
C192 N193 1.314 . S
C192 C197 1.353 . S
C192 H198 0.930 . S
N193 Li176 1.990 . S
N193 C192 1.314 . S
N193 C195 1.279 1_545 S
C194 C195 1.358 . S
C194 C196 1.356 1_565 S
C194 H248 0.930 . S
C195 N193 1.279 1_565 S
C195 C194 1.358 . S
C195 H199 0.930 . S
C196 C194 1.356 1_545 S
C196 C197 1.348 . S
C197 C192 1.353 . S
C197 C196 1.348 . S
C197 H249 0.929 . S
H198 C192 0.930 . S
H199 C195 0.930 . S
C200 N201 1.314 . S
C200 C202 1.353 . S
C200 H206 0.930 . S
N201 Li177 1.990 . S
N201 C200 1.314 . S
N201 C204 1.279 . S
C202 C200 1.353 . S
C202 C205 1.348 . S
C202 H250 0.929 . S
C203 C204 1.358 . S
C203 C205 1.356 . S
C203 H251 0.930 . S
C204 N201 1.279 . S
C204 C203 1.358 . S
C204 H207 0.930 . S
C205 C202 1.348 . S
C205 C203 1.356 . S
H206 C200 0.930 . S
H207 C204 0.930 . S
C208 C210 1.348 . S
C208 C211 1.356 . S
C208 O238 1.325 . S
N209 C212 1.314 . S
N209 C213 1.279 . S
C210 C208 1.348 . S
C210 C212 1.353 . S
C210 H252 0.929 . S
C211 C208 1.356 . S
C211 C213 1.358 . S
C211 H253 0.930 . S
C212 N209 1.314 . S
C212 C210 1.353 . S
C212 H254 0.930 . S
C213 N209 1.279 . S
C213 C211 1.358 . S
C213 H255 0.930 . S
C214 C215 1.348 . S
C214 C216 1.356 1_545 S
C214 O239 1.325 . S
C215 C214 1.348 . S
C215 C217 1.353 . S
C215 H256 0.929 . S
C216 C214 1.356 1_565 S
C216 C218 1.358 . S
C216 H257 0.930 . S
C217 C215 1.353 . S
C217 N219 1.333 . S
C217 H258 0.930 . S
C218 C216 1.358 . S
C218 N219 1.261 1_565 S
C218 H259 0.930 . S
N219 C217 1.333 . S
N219 C218 1.261 1_545 S
C220 C222 1.353 . S
C220 N223 1.314 . S
C220 H226 0.930 . S
C221 N223 1.279 . S
C221 C224 1.358 . S
C221 H227 0.930 . S
C222 C220 1.353 . S
C222 C225 1.348 . S
C222 H260 0.929 . S
N223 Li178 1.990 . S
N223 C220 1.314 . S
N223 C221 1.279 . S
C224 C221 1.358 . S
C224 C225 1.356 . S
C224 H261 0.930 . S
C225 C222 1.348 . S
C225 C224 1.356 . S
H226 C220 0.930 . S
H227 C221 0.930 . S
C228 N229 1.316 . S
C228 C230 1.353 . S
C228 H234 0.930 . S
N229 Li179 1.990 1_565 S
N229 C228 1.316 . S
N229 C232 1.278 1_565 S
C230 C228 1.353 . S
C230 C233 1.348 1_565 S
C230 H262 0.929 . S
C231 C232 1.358 . S
C231 C233 1.356 . S
C231 H263 0.930 . S
C232 N229 1.278 1_545 S
C232 C231 1.358 . S
C232 H235 0.930 . S
C233 C230 1.348 1_545 S
C233 C231 1.356 . S
H234 C228 0.930 . S
H235 C232 0.930 . S
O236 Li176 1.956 . S
O236 Li177 1.970 1_545 S
O236 Li178 1.961 . S
O236 C180 1.325 . S
O237 Li176 1.970 1_565 S
O237 Li177 1.956 . S
O237 Li179 1.961 1_565 S
O237 C186 1.325 . S
O238 Li176 1.961 . S
O238 Li178 1.956 . S
O238 Li179 1.970 . S
O238 C208 1.325 . S
O239 Li177 1.961 1_545 S
O239 Li178 1.970 . S
O239 Li179 1.956 . S
O239 C214 1.325 . S
H240 C182 0.929 . S
H241 C183 0.930 . S
H242 C184 0.930 . S
H243 C185 0.930 . S
H244 C187 0.930 . S
H245 C189 0.929 . S
H246 C190 0.930 . S
H247 C191 0.930 . S
H248 C194 0.930 . S
H249 C197 0.929 . S
H250 C202 0.929 . S
H251 C203 0.930 . S
H252 C210 0.929 . S
H253 C211 0.930 . S
H254 C212 0.930 . S
H255 C213 0.930 . S
H256 C215 0.929 . S
H257 C216 0.930 . S
H258 C217 0.930 . S
H259 C218 0.930 . S
H260 C222 0.929 . S
H261 C224 0.930 . S
H262 C230 0.929 . S
H263 C231 0.930 . S
Li264 N281 1.990 . S
Li264 O324 1.956 1_655 S
Li264 O325 1.960 1_655 S
Li264 O326 1.961 . S
Li265 N289 1.990 . S
Li265 O324 1.970 . S
Li265 O325 1.967 . S
Li265 O327 1.961 . S
Li266 N311 1.990 1_455 S
Li266 O324 1.961 . S
Li266 O326 1.950 1_455 S
Li266 O327 1.977 . S
Li267 N317 1.990 . S
Li267 O325 1.962 . S
Li267 O326 1.970 1_455 S
Li267 O327 1.956 . S
C268 C270 1.348 . S
C268 C271 1.356 1_455 S
C268 O324 1.325 . S
N269 C272 1.314 1_655 S
N269 C273 1.279 . S
C270 C268 1.348 . S
C270 C272 1.353 . S
C270 H328 0.929 . S
C271 C268 1.356 1_655 S
C271 C273 1.358 . S
C271 H329 0.930 . S
C272 N269 1.314 1_455 S
C272 C270 1.353 . S
C272 H330 0.930 . S
C273 N269 1.279 . S
C273 C271 1.358 . S
C273 H331 0.930 . S
C274 C277 1.348 1_455 S
C274 C278 1.356 . S
C274 O325 1.326 . S
C275 N276 1.279 . S
C275 C278 1.358 . S
C275 H332 0.930 . S
N276 C275 1.279 . S
N276 C279 1.314 1_455 S
C277 C274 1.348 1_655 S
C277 C279 1.353 . S
C277 H333 0.929 . S
C278 C274 1.356 . S
C278 C275 1.358 . S
C278 H334 0.930 . S
C279 N276 1.314 1_655 S
C279 C277 1.353 . S
C279 H335 0.930 . S
C280 N281 1.314 . S
C280 C285 1.353 . S
C280 H286 0.930 . S
N281 Li264 1.990 . S
N281 C280 1.314 . S
N281 C283 1.279 . S
C282 C283 1.358 . S
C282 C284 1.356 . S
C282 H336 0.930 . S
C283 N281 1.279 . S
C283 C282 1.358 . S
C283 H287 0.930 . S
C284 C282 1.356 . S
C284 C285 1.348 . S
C285 C280 1.353 . S
C285 C284 1.348 . S
C285 H337 0.929 . S
H286 C280 0.930 . S
H287 C283 0.930 . S
C288 N289 1.314 . S
C288 C290 1.353 . S
C288 H294 0.930 . S
N289 Li265 1.990 . S
N289 C288 1.314 . S
N289 C292 1.279 . S
C290 C288 1.353 . S
C290 C293 1.348 . S
C290 H338 0.929 . S
C291 C292 1.358 . S
C291 C293 1.356 . S
C291 H339 0.930 . S
C292 N289 1.279 . S
C292 C291 1.358 . S
C292 H295 0.930 . S
C293 C290 1.348 . S
C293 C291 1.356 . S
H294 C288 0.930 . S
H295 C292 0.930 . S
C296 C298 1.348 . S
C296 C299 1.356 . S
C296 O326 1.325 . S
N297 C300 1.314 . S
N297 C301 1.279 . S
C298 C296 1.348 . S
C298 C300 1.353 . S
C298 H340 0.929 . S
C299 C296 1.356 . S
C299 C301 1.358 . S
C299 H341 0.930 . S
C300 N297 1.314 . S
C300 C298 1.353 . S
C300 H342 0.930 . S
C301 N297 1.279 . S
C301 C299 1.358 . S
C301 H343 0.930 . S
C302 C303 1.348 . S
C302 C304 1.356 . S
C302 O327 1.325 . S
C303 C302 1.348 . S
C303 C305 1.353 . S
C303 H344 0.929 . S
C304 C302 1.356 . S
C304 C306 1.358 . S
C304 H345 0.930 . S
C305 C303 1.353 . S
C305 N307 1.314 . S
C305 H346 0.930 . S
C306 C304 1.358 . S
C306 N307 1.279 . S
C306 H347 0.930 . S
N307 C305 1.314 . S
N307 C306 1.279 . S
C308 C310 1.353 . S
C308 N311 1.314 1_455 S
C308 H314 0.930 . S
C309 N311 1.279 . S
C309 C312 1.358 . S
C309 H315 0.930 . S
C310 C308 1.353 . S
C310 C313 1.348 . S
C310 H348 0.929 . S
N311 Li266 1.990 1_655 S
N311 C308 1.314 1_655 S
N311 C309 1.279 . S
C312 C309 1.358 . S
C312 C313 1.356 1_655 S
C312 H349 0.930 . S
C313 C310 1.348 . S
C313 C312 1.356 1_455 S
H314 C308 0.930 . S
H315 C309 0.930 . S
C316 N317 1.314 1_655 S
C316 C318 1.353 . S
C316 H322 0.930 . S
N317 Li267 1.990 . S
N317 C316 1.314 1_455 S
N317 C320 1.279 . S
C318 C316 1.353 . S
C318 C321 1.348 1_655 S
C318 H350 0.929 . S
C319 C320 1.358 . S
C319 C321 1.356 . S
C319 H351 0.930 . S
C320 N317 1.279 . S
C320 C319 1.358 . S
C320 H323 0.930 . S
C321 C318 1.348 1_455 S
C321 C319 1.356 . S
H322 C316 0.930 . S
H323 C320 0.930 . S
O324 Li264 1.956 1_455 S
O324 Li265 1.970 . S
O324 Li266 1.961 . S
O324 C268 1.325 . S
O325 Li264 1.960 1_455 S
O325 Li265 1.967 . S
O325 Li267 1.962 . S
O325 C274 1.326 . S
O326 Li264 1.961 . S
O326 Li266 1.950 1_655 S
O326 Li267 1.970 1_655 S
O326 C296 1.325 . S
O327 Li265 1.961 . S
O327 Li266 1.977 . S
O327 Li267 1.956 . S
O327 C302 1.325 . S
H328 C270 0.929 . S
H329 C271 0.930 . S
H330 C272 0.930 . S
H331 C273 0.930 . S
H332 C275 0.930 . S
H333 C277 0.929 . S
H334 C278 0.930 . S
H335 C279 0.930 . S
H336 C282 0.930 . S
H337 C285 0.929 . S
H338 C290 0.929 . S
H339 C291 0.930 . S
H340 C298 0.929 . S
H341 C299 0.930 . S
H342 C300 0.930 . S
H343 C301 0.930 . S
H344 C303 0.929 . S
H345 C304 0.930 . S
H346 C305 0.930 . S
H347 C306 0.930 . S
H348 C310 0.929 . S
H349 C312 0.930 . S
H350 C318 0.929 . S
H351 C319 0.930 . S
Li352 N369 1.990 . S
Li352 O412 1.956 . S
Li352 O413 1.970 . S
Li352 O414 1.961 . S
Li353 N377 1.990 1_545 S
Li353 O412 1.970 . S
Li353 O413 1.956 . S
Li353 O415 1.961 1_545 S
Li354 N399 1.990 . S
Li354 O412 1.961 . S
Li354 O414 1.956 . S
Li354 O415 1.970 1_545 S
Li355 N405 1.990 . S
Li355 O413 1.961 1_565 S
Li355 O414 1.970 1_565 S
Li355 O415 1.956 . S
C356 C358 1.348 . S
C356 C359 1.356 . S
C356 O412 1.325 . S
N357 C360 1.314 . S
N357 C361 1.279 . S
C358 C356 1.348 . S
C358 C360 1.353 . S
C358 H416 0.929 . S
C359 C356 1.356 . S
C359 C361 1.358 . S
C359 H417 0.930 . S
C360 N357 1.314 . S
C360 C358 1.353 . S
C360 H418 0.930 . S
C361 N357 1.279 . S
C361 C359 1.358 . S
C361 H419 0.930 . S
C362 C365 1.348 . S
C362 C366 1.356 1_545 S
C362 O413 1.325 . S
C363 N364 1.261 1_565 S
C363 C366 1.358 . S
C363 H420 0.930 . S
N364 C363 1.261 1_545 S
N364 C367 1.333 . S
C365 C362 1.348 . S
C365 C367 1.353 . S
C365 H421 0.929 . S
C366 C362 1.356 1_565 S
C366 C363 1.358 . S
C366 H422 0.930 . S
C367 N364 1.333 . S
C367 C365 1.353 . S
C367 H423 0.930 . S
C368 N369 1.314 . S
C368 C373 1.353 . S
C368 H374 0.930 . S
N369 Li352 1.990 . S
N369 C368 1.314 . S
N369 C371 1.279 . S
C370 C371 1.358 . S
C370 C372 1.356 . S
C370 H424 0.930 . S
C371 N369 1.279 . S
C371 C370 1.358 . S
C371 H375 0.930 . S
C372 C370 1.356 . S
C372 C373 1.348 . S
C373 C368 1.353 . S
C373 C372 1.348 . S
C373 H425 0.929 . S
H374 C368 0.930 . S
H375 C371 0.930 . S
C376 N377 1.316 . S
C376 C378 1.353 . S
C376 H382 0.930 . S
N377 Li353 1.990 1_565 S
N377 C376 1.316 . S
N377 C380 1.278 1_565 S
C378 C376 1.353 . S
C378 C381 1.348 1_565 S
C378 H426 0.929 . S
C379 C380 1.358 . S
C379 C381 1.356 . S
C379 H427 0.930 . S
C380 N377 1.278 1_545 S
C380 C379 1.358 . S
C380 H383 0.930 . S
C381 C378 1.348 1_545 S
C381 C379 1.356 . S
H382 C376 0.930 . S
H383 C380 0.930 . S
C384 C386 1.348 1_545 S
C384 C387 1.356 . S
C384 O414 1.325 . S
N385 C388 1.314 1_545 S
N385 C389 1.279 . S
C386 C384 1.348 1_565 S
C386 C388 1.353 . S
C386 H428 0.929 . S
C387 C384 1.356 . S
C387 C389 1.358 . S
C387 H429 0.930 . S
C388 N385 1.314 1_565 S
C388 C386 1.353 . S
C388 H430 0.930 . S
C389 N385 1.279 . S
C389 C387 1.358 . S
C389 H431 0.930 . S
C390 C391 1.348 . S
C390 C392 1.356 . S
C390 O415 1.325 . S
C391 C390 1.348 . S
C391 C393 1.353 . S
C391 H432 0.929 . S
C392 C390 1.356 . S
C392 C394 1.358 . S
C392 H433 0.930 . S
C393 C391 1.353 . S
C393 N395 1.314 . S
C393 H434 0.930 . S
C394 C392 1.358 . S
C394 N395 1.279 . S
C394 H435 0.930 . S
N395 C393 1.314 . S
N395 C394 1.279 . S
C396 C398 1.353 . S
C396 N399 1.314 . S
C396 H402 0.930 . S
C397 N399 1.279 1_565 S
C397 C400 1.358 . S
C397 H403 0.930 . S
C398 C396 1.353 . S
C398 C401 1.348 . S
C398 H436 0.929 . S
N399 Li354 1.990 . S
N399 C396 1.314 . S
N399 C397 1.279 1_545 S
C400 C397 1.358 . S
C400 C401 1.356 1_565 S
C400 H437 0.930 . S
C401 C398 1.348 . S
C401 C400 1.356 1_545 S
H402 C396 0.930 . S
H403 C397 0.930 . S
C404 N405 1.314 . S
C404 C406 1.353 . S
C404 H410 0.930 . S
N405 Li355 1.990 . S
N405 C404 1.314 . S
N405 C408 1.279 . S
C406 C404 1.353 . S
C406 C409 1.348 . S
C406 H438 0.929 . S
C407 C408 1.358 . S
C407 C409 1.356 . S
C407 H439 0.930 . S
C408 N405 1.279 . S
C408 C407 1.358 . S
C408 H411 0.930 . S
C409 C406 1.348 . S
C409 C407 1.356 . S
H410 C404 0.930 . S
H411 C408 0.930 . S
O412 Li352 1.956 . S
O412 Li353 1.970 . S
O412 Li354 1.961 . S
O412 C356 1.325 . S
O413 Li352 1.970 . S
O413 Li353 1.956 . S
O413 Li355 1.961 1_545 S
O413 C362 1.325 . S
O414 Li352 1.961 . S
O414 Li354 1.956 . S
O414 Li355 1.970 1_545 S
O414 C384 1.325 . S
O415 Li353 1.961 1_565 S
O415 Li354 1.970 1_565 S
O415 Li355 1.956 . S
O415 C390 1.325 . S
H416 C358 0.929 . S
H417 C359 0.930 . S
H418 C360 0.930 . S
H419 C361 0.930 . S
H420 C363 0.930 . S
H421 C365 0.929 . S
H422 C366 0.930 . S
H423 C367 0.930 . S
H424 C370 0.930 . S
H425 C373 0.929 . S
H426 C378 0.929 . S
H427 C379 0.930 . S
H428 C386 0.929 . S
H429 C387 0.930 . S
H430 C388 0.930 . S
H431 C389 0.930 . S
H432 C391 0.929 . S
H433 C392 0.930 . S
H434 C393 0.930 . S
H435 C394 0.930 . S
H436 C398 0.929 . S
H437 C400 0.930 . S
H438 C406 0.929 . S
H439 C407 0.930 . S
Li440 N457 1.990 . S
Li440 O500 1.956 . S
Li440 O501 1.970 1_455 S
Li440 O502 1.962 . S
Li441 N465 1.990 1_455 S
Li441 O500 1.977 . S
Li441 O501 1.950 1_455 S
Li441 O503 1.961 . S
Li442 N487 1.990 . S
Li442 O500 1.961 . S
Li442 O502 1.967 . S
Li442 O503 1.970 . S
Li443 N493 1.990 . S
Li443 O501 1.961 . S
Li443 O502 1.960 1_655 S
Li443 O503 1.956 1_655 S
C444 C446 1.348 . S
C444 C447 1.356 . S
C444 O500 1.325 . S
N445 C448 1.314 . S
N445 C449 1.279 . S
C446 C444 1.348 . S
C446 C448 1.353 . S
C446 H504 0.929 . S
C447 C444 1.356 . S
C447 C449 1.358 . S
C447 H505 0.930 . S
C448 N445 1.314 . S
C448 C446 1.353 . S
C448 H506 0.930 . S
C449 N445 1.279 . S
C449 C447 1.358 . S
C449 H507 0.930 . S
C450 C453 1.348 . S
C450 C454 1.356 . S
C450 O501 1.325 . S
C451 N452 1.279 . S
C451 C454 1.358 . S
C451 H508 0.930 . S
N452 C451 1.279 . S
N452 C455 1.314 . S
C453 C450 1.348 . S
C453 C455 1.353 . S
C453 H509 0.929 . S
C454 C450 1.356 . S
C454 C451 1.358 . S
C454 H510 0.930 . S
C455 N452 1.314 . S
C455 C453 1.353 . S
C455 H511 0.930 . S
C456 N457 1.314 1_655 S
C456 C461 1.353 . S
C456 H462 0.930 . S
N457 Li440 1.990 . S
N457 C456 1.314 1_455 S
N457 C459 1.279 . S
C458 C459 1.358 . S
C458 C460 1.356 . S
C458 H512 0.930 . S
C459 N457 1.279 . S
C459 C458 1.358 . S
C459 H463 0.930 . S
C460 C458 1.356 . S
C460 C461 1.348 1_455 S
C461 C456 1.353 . S
C461 C460 1.348 1_655 S
C461 H513 0.929 . S
H462 C456 0.930 . S
H463 C459 0.930 . S
C464 N465 1.314 1_455 S
C464 C466 1.353 . S
C464 H470 0.930 . S
N465 Li441 1.990 1_655 S
N465 C464 1.314 1_655 S
N465 C468 1.279 . S
C466 C464 1.353 . S
C466 C469 1.348 . S
C466 H514 0.929 . S
C467 C468 1.358 . S
C467 C469 1.356 1_655 S
C467 H515 0.930 . S
C468 N465 1.279 . S
C468 C467 1.358 . S
C468 H471 0.930 . S
C469 C466 1.348 . S
C469 C467 1.356 1_455 S
H470 C464 0.930 . S
H471 C468 0.930 . S
C472 C474 1.348 1_455 S
C472 C475 1.356 . S
C472 O502 1.326 . S
N473 C476 1.314 1_455 S
N473 C477 1.279 . S
C474 C472 1.348 1_655 S
C474 C476 1.353 . S
C474 H516 0.929 . S
C475 C472 1.356 . S
C475 C477 1.358 . S
C475 H517 0.930 . S
C476 N473 1.314 1_655 S
C476 C474 1.353 . S
C476 H518 0.930 . S
C477 N473 1.279 . S
C477 C475 1.358 . S
C477 H519 0.930 . S
C478 C479 1.348 . S
C478 C480 1.356 1_455 S
C478 O503 1.325 . S
C479 C478 1.348 . S
C479 C481 1.353 . S
C479 H520 0.929 . S
C480 C478 1.356 1_655 S
C480 C482 1.358 . S
C480 H521 0.930 . S
C481 C479 1.353 . S
C481 N483 1.314 1_455 S
C481 H522 0.930 . S
C482 C480 1.358 . S
C482 N483 1.279 . S
C482 H523 0.930 . S
N483 C481 1.314 1_655 S
N483 C482 1.279 . S
C484 C486 1.353 . S
C484 N487 1.314 . S
C484 H490 0.930 . S
C485 N487 1.279 . S
C485 C488 1.358 . S
C485 H491 0.930 . S
C486 C484 1.353 . S
C486 C489 1.348 . S
C486 H524 0.929 . S
N487 Li442 1.990 . S
N487 C484 1.314 . S
N487 C485 1.279 . S
C488 C485 1.358 . S
C488 C489 1.356 . S
C488 H525 0.930 . S
C489 C486 1.348 . S
C489 C488 1.356 . S
H490 C484 0.930 . S
H491 C485 0.930 . S
C492 N493 1.314 . S
C492 C494 1.353 . S
C492 H498 0.930 . S
N493 Li443 1.990 . S
N493 C492 1.314 . S
N493 C496 1.279 . S
C494 C492 1.353 . S
C494 C497 1.348 . S
C494 H526 0.929 . S
C495 C496 1.358 . S
C495 C497 1.356 . S
C495 H527 0.930 . S
C496 N493 1.279 . S
C496 C495 1.358 . S
C496 H499 0.930 . S
C497 C494 1.348 . S
C497 C495 1.356 . S
H498 C492 0.930 . S
H499 C496 0.930 . S
O500 Li440 1.956 . S
O500 Li441 1.977 . S
O500 Li442 1.961 . S
O500 C444 1.325 . S
O501 Li440 1.970 1_655 S
O501 Li441 1.950 1_655 S
O501 Li443 1.961 . S
O501 C450 1.325 . S
O502 Li440 1.962 . S
O502 Li442 1.967 . S
O502 Li443 1.960 1_455 S
O502 C472 1.326 . S
O503 Li441 1.961 . S
O503 Li442 1.970 . S
O503 Li443 1.956 1_455 S
O503 C478 1.325 . S
H504 C446 0.929 . S
H505 C447 0.930 . S
H506 C448 0.930 . S
H507 C449 0.930 . S
H508 C451 0.930 . S
H509 C453 0.929 . S
H510 C454 0.930 . S
H511 C455 0.930 . S
H512 C458 0.930 . S
H513 C461 0.929 . S
H514 C466 0.929 . S
H515 C467 0.930 . S
H516 C474 0.929 . S
H517 C475 0.930 . S
H518 C476 0.930 . S
H519 C477 0.930 . S
H520 C479 0.929 . S
H521 C480 0.930 . S
H522 C481 0.930 . S
H523 C482 0.930 . S
H524 C486 0.929 . S
H525 C488 0.930 . S
H526 C494 0.929 . S
H527 C495 0.930 . S
Li528 N545 1.990 . S
Li528 O588 1.957 . S
Li528 O589 1.970 1_545 S
Li528 O590 1.961 . S
Li529 N553 1.990 . S
Li529 O588 1.955 1_565 S
Li529 O589 1.956 . S
Li529 O591 1.961 1_565 S
Li530 N575 1.990 . S
Li530 O588 1.977 . S
Li530 O590 1.956 . S
Li530 O591 1.970 . S
Li531 N581 1.990 1_545 S
Li531 O589 1.950 1_545 S
Li531 O590 1.982 . S
Li531 O591 1.956 . S
C532 C534 1.313 1_545 S
C532 C535 1.390 . S
C532 O588 1.325 . S
N533 C536 1.314 1_545 S
N533 C537 1.279 . S
C534 C532 1.313 1_565 S
C534 C536 1.353 . S
C534 H592 0.929 . S
C535 C532 1.390 . S
C535 C537 1.358 . S
C535 H593 0.930 . S
C536 N533 1.314 1_565 S
C536 C534 1.353 . S
C536 H594 0.930 . S
C537 N533 1.279 . S
C537 C535 1.358 . S
C537 H595 0.930 . S
C538 C541 1.348 . S
C538 C542 1.356 . S
C538 O589 1.325 . S
C539 N540 1.279 . S
C539 C542 1.358 . S
C539 H596 0.930 . S
N540 C539 1.279 . S
N540 C543 1.314 . S
C541 C538 1.348 . S
C541 C543 1.353 . S
C541 H597 0.929 . S
C542 C538 1.356 . S
C542 C539 1.358 . S
C542 H598 0.930 . S
C543 N540 1.314 . S
C543 C541 1.353 . S
C543 H599 0.930 . S
C544 N545 1.314 . S
C544 C549 1.353 . S
C544 H550 0.930 . S
N545 Li528 1.990 . S
N545 C544 1.314 . S
N545 C547 1.279 1_545 S
C546 C547 1.358 . S
C546 C548 1.350 1_565 S
C546 H600 0.930 . S
C547 N545 1.279 1_565 S
C547 C546 1.358 . S
C547 H551 0.930 . S
C548 C546 1.350 1_545 S
C548 C549 1.359 . S
C549 C544 1.353 . S
C549 C548 1.359 . S
C549 H601 0.929 . S
H550 C544 0.930 . S
H551 C547 0.930 . S
C552 N553 1.314 . S
C552 C554 1.353 . S
C552 H558 0.930 . S
N553 Li529 1.990 . S
N553 C552 1.314 . S
N553 C556 1.279 . S
C554 C552 1.353 . S
C554 C557 1.348 . S
C554 H602 0.929 . S
C555 C556 1.358 . S
C555 C557 1.356 . S
C555 H603 0.930 . S
C556 N553 1.279 . S
C556 C555 1.358 . S
C556 H559 0.930 . S
C557 C554 1.348 . S
C557 C555 1.356 . S
H558 C552 0.930 . S
H559 C556 0.930 . S
C560 C562 1.348 . S
C560 C563 1.356 . S
C560 O590 1.325 . S
N561 C564 1.314 . S
N561 C565 1.279 . S
C562 C560 1.348 . S
C562 C564 1.353 . S
C562 H604 0.929 . S
C563 C560 1.356 . S
C563 C565 1.358 . S
C563 H605 0.930 . S
C564 N561 1.314 . S
C564 C562 1.353 . S
C564 H606 0.930 . S
C565 N561 1.279 . S
C565 C563 1.358 . S
C565 H607 0.930 . S
C566 C567 1.375 . S
C566 C568 1.329 1_545 S
C566 O591 1.326 . S
C567 C566 1.375 . S
C567 C569 1.353 . S
C567 H608 0.929 . S
C568 C566 1.329 1_565 S
C568 C570 1.358 . S
C568 H609 0.930 . S
C569 C567 1.353 . S
C569 N571 1.303 1_545 S
C569 H610 0.930 . S
C570 C568 1.358 . S
C570 N571 1.290 . S
C570 H611 0.930 . S
N571 C569 1.303 1_565 S
N571 C570 1.290 . S
C572 C574 1.353 . S
C572 N575 1.314 . S
C572 H578 0.930 . S
C573 N575 1.279 . S
C573 C576 1.358 . S
C573 H579 0.930 . S
C574 C572 1.353 . S
C574 C577 1.348 . S
C574 H612 0.929 . S
N575 Li530 1.990 . S
N575 C572 1.314 . S
N575 C573 1.279 . S
C576 C573 1.358 . S
C576 C577 1.356 . S
C576 H613 0.930 . S
C577 C574 1.348 . S
C577 C576 1.356 . S
H578 C572 0.930 . S
H579 C573 0.930 . S
C580 N581 1.314 . S
C580 C582 1.353 . S
C580 H586 0.930 . S
N581 Li531 1.990 1_565 S
N581 C580 1.314 . S
N581 C584 1.279 1_565 S
C582 C580 1.353 . S
C582 C585 1.337 1_565 S
C582 H614 0.929 . S
C583 C584 1.358 . S
C583 C585 1.364 . S
C583 H615 0.930 . S
C584 N581 1.279 1_545 S
C584 C583 1.358 . S
C584 H587 0.930 . S
C585 C582 1.337 1_545 S
C585 C583 1.364 . S
H586 C580 0.930 . S
H587 C584 0.930 . S
O588 Li528 1.957 . S
O588 Li529 1.955 1_545 S
O588 Li530 1.977 . S
O588 C532 1.325 . S
O589 Li528 1.970 1_565 S
O589 Li529 1.956 . S
O589 Li531 1.950 1_565 S
O589 C538 1.325 . S
O590 Li528 1.961 . S
O590 Li530 1.956 . S
O590 Li531 1.982 . S
O590 C560 1.325 . S
O591 Li529 1.961 1_545 S
O591 Li530 1.970 . S
O591 Li531 1.956 . S
O591 C566 1.326 . S
H592 C534 0.929 . S
H593 C535 0.930 . S
H594 C536 0.930 . S
H595 C537 0.930 . S
H596 C539 0.930 . S
H597 C541 0.929 . S
H598 C542 0.930 . S
H599 C543 0.930 . S
H600 C546 0.930 . S
H601 C549 0.929 . S
H602 C554 0.929 . S
H603 C555 0.930 . S
H604 C562 0.929 . S
H605 C563 0.930 . S
H606 C564 0.930 . S
H607 C565 0.930 . S
H608 C567 0.929 . S
H609 C568 0.930 . S
H610 C569 0.930 . S
H611 C570 0.930 . S
H612 C574 0.929 . S
H613 C576 0.930 . S
H614 C582 0.929 . S
H615 C583 0.930 . S
Li616 N633 1.990 . S
Li616 O676 1.956 1_655 S
Li616 O677 1.978 . S
Li616 O678 1.961 . S
Li617 N641 1.990 . S
Li617 O676 1.970 . S
Li617 O677 1.948 1_455 S
Li617 O679 1.961 . S
Li618 N663 1.991 . S
Li618 O676 1.960 1_655 S
Li618 O678 1.969 . S
Li618 O679 1.957 1_655 S
Li619 N669 1.990 . S
Li619 O677 1.960 1_455 S
Li619 O678 1.970 1_455 S
Li619 O679 1.956 . S
C620 C622 1.364 . S
C620 C623 1.336 1_455 S
C620 O676 1.326 . S
N621 C624 1.314 1_655 S
N621 C625 1.279 . S
C622 C620 1.364 . S
C622 C624 1.353 . S
C622 H680 0.929 . S
C623 C620 1.336 1_655 S
C623 C625 1.358 . S
C623 H681 0.930 . S
C624 N621 1.314 1_455 S
C624 C622 1.353 . S
C624 H682 0.930 . S
C625 N621 1.279 . S
C625 C623 1.358 . S
C625 H683 0.930 . S
C626 C629 1.331 1_455 S
C626 C630 1.377 . S
C626 O677 1.324 1_455 S
C627 N628 1.279 . S
C627 C630 1.358 . S
C627 H684 0.930 . S
N628 C627 1.279 . S
N628 C631 1.314 1_455 S
C629 C626 1.331 1_655 S
C629 C631 1.353 . S
C629 H685 0.929 . S
C630 C626 1.377 . S
C630 C627 1.358 . S
C630 H686 0.930 . S
C631 N628 1.314 1_655 S
C631 C629 1.353 . S
C631 H687 0.930 . S
C632 N633 1.314 . S
C632 C637 1.353 . S
C632 H638 0.930 . S
N633 Li616 1.990 . S
N633 C632 1.314 . S
N633 C635 1.279 . S
C634 C635 1.358 . S
C634 C636 1.356 . S
C634 H688 0.930 . S
C635 N633 1.279 . S
C635 C634 1.358 . S
C635 H639 0.930 . S
C636 C634 1.356 . S
C636 C637 1.348 . S
C637 C632 1.353 . S
C637 C636 1.348 . S
C637 H689 0.929 . S
H638 C632 0.930 . S
H639 C635 0.930 . S
C640 N641 1.314 . S
C640 C642 1.353 . S
C640 H646 0.930 . S
N641 Li617 1.990 . S
N641 C640 1.314 . S
N641 C644 1.279 . S
C642 C640 1.353 . S
C642 C645 1.348 . S
C642 H690 0.929 . S
C643 C644 1.358 . S
C643 C645 1.356 . S
C643 H691 0.930 . S
C644 N641 1.279 . S
C644 C643 1.358 . S
C644 H647 0.930 . S
C645 C642 1.348 . S
C645 C643 1.356 . S
H646 C640 0.930 . S
H647 C644 0.930 . S
C648 C650 1.348 . S
C648 C651 1.356 . S
C648 O678 1.325 . S
N649 C652 1.314 . S
N649 C653 1.279 . S
C650 C648 1.348 . S
C650 C652 1.353 . S
C650 H692 0.929 . S
C651 C648 1.356 . S
C651 C653 1.358 . S
C651 H693 0.930 . S
C652 N649 1.314 . S
C652 C650 1.353 . S
C652 H694 0.930 . S
C653 N649 1.279 . S
C653 C651 1.358 . S
C653 H695 0.930 . S
C654 C655 1.348 . S
C654 C656 1.356 . S
C654 O679 1.325 . S
C655 C654 1.348 . S
C655 C657 1.353 . S
C655 H696 0.929 . S
C656 C654 1.356 . S
C656 C658 1.358 . S
C656 H697 0.930 . S
C657 C655 1.353 . S
C657 N659 1.314 . S
C657 H698 0.930 . S
C658 C656 1.358 . S
C658 N659 1.279 . S
C658 H699 0.930 . S
N659 C657 1.314 . S
N659 C658 1.279 . S
C660 C662 1.353 . S
C660 N663 1.314 1_455 S
C660 H666 0.930 . S
C661 N663 1.279 . S
C661 C664 1.358 . S
C661 H667 0.930 . S
C662 C660 1.353 . S
C662 C665 1.364 . S
C662 H700 0.929 . S
N663 Li618 1.991 . S
N663 C660 1.314 1_655 S
N663 C661 1.279 . S
C664 C661 1.358 . S
C664 C665 1.338 1_655 S
C664 H701 0.930 . S
C665 C662 1.364 . S
C665 C664 1.338 1_455 S
H666 C660 0.930 . S
H667 C661 0.930 . S
C668 N669 1.314 1_655 S
C668 C670 1.353 . S
C668 H674 0.930 . S
N669 Li619 1.990 . S
N669 C668 1.314 1_455 S
N669 C672 1.279 . S
C670 C668 1.353 . S
C670 C673 1.330 1_655 S
C670 H702 0.929 . S
C671 C672 1.358 . S
C671 C673 1.377 . S
C671 H703 0.930 . S
C672 N669 1.279 . S
C672 C671 1.358 . S
C672 H675 0.930 . S
C673 C670 1.330 1_455 S
C673 C671 1.377 . S
H674 C668 0.930 . S
H675 C672 0.930 . S
O676 Li616 1.956 1_455 S
O676 Li617 1.970 . S
O676 Li618 1.960 1_455 S
O676 C620 1.326 . S
O677 Li616 1.978 . S
O677 Li617 1.948 1_655 S
O677 Li619 1.960 1_655 S
O677 C626 1.324 1_655 S
O678 Li616 1.961 . S
O678 Li618 1.969 . S
O678 Li619 1.970 1_655 S
O678 C648 1.325 . S
O679 Li617 1.961 . S
O679 Li618 1.957 1_455 S
O679 Li619 1.956 . S
O679 C654 1.325 . S
H680 C622 0.929 . S
H681 C623 0.930 . S
H682 C624 0.930 . S
H683 C625 0.930 . S
H684 C627 0.930 . S
H685 C629 0.929 . S
H686 C630 0.930 . S
H687 C631 0.930 . S
H688 C634 0.930 . S
H689 C637 0.929 . S
H690 C642 0.929 . S
H691 C643 0.930 . S
H692 C650 0.929 . S
H693 C651 0.930 . S
H694 C652 0.930 . S
H695 C653 0.930 . S
H696 C655 0.929 . S
H697 C656 0.930 . S
H698 C657 0.930 . S
H699 C658 0.930 . S
H700 C662 0.929 . S
H701 C664 0.930 . S
H702 C670 0.929 . S
H703 C671 0.930 . S
H704 C716 0.930 . S
H705 C718 0.930 . S
H706 C719 0.930 . S
H707 C723 0.960 . S
H708 C723 0.962 . S
H709 C723 0.958 1_554 S
H710 C724 0.971 . S
H711 C724 0.951 1_556 S
H712 C724 0.958 1_556 S
H713 C727 0.929 . S
H714 C728 0.931 . S
H715 C730 0.930 . S
C716 H704 0.930 . S
C716 C717 1.399 1_545 S
C716 C721 1.399 . S
C717 C716 1.399 1_565 S
C717 C718 1.376 . S
C718 H705 0.930 . S
C718 C717 1.376 . S
C718 C719 1.388 . S
C719 H706 0.930 . S
C719 C718 1.388 . S
C719 C720 1.390 . S
C720 C719 1.390 . S
C720 C721 1.394 1_565 S
C720 C726 1.465 1_554 S
C721 C716 1.399 . S
C721 C720 1.394 1_545 S
C721 C722 1.520 . S
C722 C721 1.520 . S
C722 C723 1.502 1_554 S
C722 C724 1.561 . S
C722 C725 1.522 1_554 S
C723 H707 0.960 . S
C723 H708 0.962 . S
C723 H709 0.958 1_556 S
C723 C722 1.502 1_556 S
C724 H710 0.971 . S
C724 H711 0.951 1_554 S
C724 H712 0.958 1_554 S
C724 C722 1.561 . S
C725 C722 1.522 1_556 S
C725 C726 1.396 1_545 S
C725 C730 1.390 . S
C726 C720 1.465 1_556 S
C726 C725 1.396 1_565 S
C726 C727 1.399 . S
C727 H713 0.929 . S
C727 C726 1.399 . S
C727 C728 1.385 . S
C728 H714 0.931 . S
C728 C727 1.385 . S
C728 C729 1.407 . S
C729 C728 1.407 . S
C729 C730 1.373 1_565 S
C730 H715 0.930 . S
C730 C725 1.390 . S
C730 C729 1.373 1_545 S
H731 C743 0.930 . S
H732 C745 0.930 . S
H733 C746 0.930 . S
H734 C750 0.959 . S
H735 C750 0.959 . S
H736 C750 0.961 . S
H737 C751 0.960 . S
H738 C751 0.961 . S
H739 C751 0.959 . S
H740 C754 0.929 . S
H741 C755 0.931 . S
H742 C757 0.930 . S
C743 H731 0.930 . S
C743 C744 1.399 1_655 S
C743 C748 1.399 . S
C744 C743 1.399 1_455 S
C744 C745 1.376 . S
C745 H732 0.930 . S
C745 C744 1.376 . S
C745 C746 1.388 . S
C746 H733 0.930 . S
C746 C745 1.388 . S
C746 C747 1.390 . S
C747 C746 1.390 . S
C747 C748 1.394 1_455 S
C747 C753 1.465 . S
C748 C743 1.399 . S
C748 C747 1.394 1_655 S
C748 C749 1.516 . S
C749 C748 1.516 . S
C749 C750 1.502 . S
C749 C751 1.561 1_655 S
C749 C752 1.526 . S
C750 H734 0.959 . S
C750 H735 0.959 . S
C750 H736 0.961 . S
C750 C749 1.502 . S
C751 H737 0.960 . S
C751 H738 0.961 . S
C751 H739 0.959 . S
C751 C749 1.561 1_455 S
C752 C749 1.526 . S
C752 C753 1.396 1_655 S
C752 C757 1.390 . S
C753 C747 1.465 . S
C753 C752 1.396 1_455 S
C753 C754 1.399 . S
C754 H740 0.929 . S
C754 C753 1.399 . S
C754 C755 1.385 . S
C755 H741 0.931 . S
C755 C754 1.385 . S
C755 C756 1.389 . S
C756 C755 1.389 . S
C756 C757 1.387 1_455 S
C757 H742 0.930 . S
C757 C752 1.390 . S
C757 C756 1.387 1_655 S
H758 C770 0.930 . S
H759 C772 0.930 . S
H760 C773 0.930 . S
H761 C777 0.961 . S
H762 C777 0.970 . S
H763 C777 0.949 1_556 S
H764 C778 0.971 . S
H765 C778 0.951 1_554 S
H766 C778 0.958 1_554 S
H767 C781 0.929 . S
H768 C782 0.931 . S
H769 C784 0.930 . S
C770 H758 0.930 . S
C770 C771 1.395 1_545 S
C770 C775 1.399 . S
C771 C770 1.395 1_565 S
C771 C772 1.382 . S
C772 H759 0.930 . S
C772 C771 1.382 . S
C772 C773 1.388 . S
C773 H760 0.930 . S
C773 C772 1.388 . S
C773 C774 1.390 . S
C774 C773 1.390 . S
C774 C775 1.394 1_565 S
C774 C780 1.465 1_556 S
C775 C770 1.399 . S
C775 C774 1.394 1_545 S
C775 C776 1.518 . S
C776 C775 1.518 . S
C776 C777 1.502 1_556 S
C776 C778 1.561 . S
C776 C779 1.524 1_556 S
C777 H761 0.961 . S
C777 H762 0.970 . S
C777 H763 0.949 1_554 S
C777 C776 1.502 1_554 S
C778 H764 0.971 . S
C778 H765 0.951 1_556 S
C778 H766 0.958 1_556 S
C778 C776 1.561 . S
C779 C776 1.524 1_554 S
C779 C780 1.396 1_545 S
C779 C784 1.390 . S
C780 C774 1.465 1_554 S
C780 C779 1.396 1_565 S
C780 C781 1.399 . S
C781 H767 0.929 . S
C781 C780 1.399 . S
C781 C782 1.385 . S
C782 H768 0.931 . S
C782 C781 1.385 . S
C782 C783 1.382 1_565 S
C783 C782 1.382 1_545 S
C783 C784 1.393 . S
C784 H769 0.930 . S
C784 C779 1.390 . S
C784 C783 1.393 . S
H785 C797 0.930 . S
H786 C799 0.930 . S
H787 C800 0.930 . S
H788 C804 0.959 . S
H789 C804 0.959 . S
H790 C804 0.961 . S
H791 C805 0.960 . S
H792 C805 0.961 . S
H793 C805 0.959 . S
H794 C808 0.929 . S
H795 C809 0.931 . S
H796 C811 0.930 . S
C797 H785 0.930 . S
C797 C798 1.399 1_455 S
C797 C802 1.399 . S
C798 C797 1.399 1_655 S
C798 C799 1.376 . S
C799 H786 0.930 . S
C799 C798 1.376 . S
C799 C800 1.388 . S
C800 H787 0.930 . S
C800 C799 1.388 . S
C800 C801 1.390 . S
C801 C800 1.390 . S
C801 C802 1.394 1_655 S
C801 C807 1.465 . S
C802 C797 1.399 . S
C802 C801 1.394 1_455 S
C802 C803 1.516 . S
C803 C802 1.516 . S
C803 C804 1.502 . S
C803 C805 1.561 1_455 S
C803 C806 1.526 . S
C804 H788 0.959 . S
C804 H789 0.959 . S
C804 H790 0.961 . S
C804 C803 1.502 . S
C805 H791 0.960 . S
C805 H792 0.961 . S
C805 H793 0.959 . S
C805 C803 1.561 1_655 S
C806 C803 1.526 . S
C806 C807 1.396 1_455 S
C806 C811 1.390 . S
C807 C801 1.465 . S
C807 C806 1.396 1_655 S
C807 C808 1.399 . S
C808 H794 0.929 . S
C808 C807 1.399 . S
C808 C809 1.385 . S
C809 H795 0.931 . S
C809 C808 1.385 . S
C809 C810 1.382 1_655 S
C810 C809 1.382 1_455 S
C810 C811 1.392 . S
C811 H796 0.930 . S
C811 C806 1.390 . S
C811 C810 1.392 . S
H812 C824 0.930 . S
H813 C826 0.930 . S
H814 C827 0.930 . S
H815 C831 0.959 . S
H816 C831 0.959 . S
H817 C831 0.961 . S
H818 C832 0.960 . S
H819 C832 0.961 . S
H820 C832 0.959 . S
H821 C835 0.929 . S
H822 C836 0.931 . S
H823 C838 0.930 . S
C824 H812 0.930 . S
C824 C825 1.395 1_545 S
C824 C829 1.399 . S
C825 C824 1.395 1_565 S
C825 C826 1.383 . S
C826 H813 0.930 . S
C826 C825 1.383 . S
C826 C827 1.388 . S
C827 H814 0.930 . S
C827 C826 1.388 . S
C827 C828 1.390 . S
C828 C827 1.390 . S
C828 C829 1.394 1_565 S
C828 C834 1.465 . S
C829 C824 1.399 . S
C829 C828 1.394 1_545 S
C829 C830 1.516 . S
C830 C829 1.516 . S
C830 C831 1.502 . S
C830 C832 1.561 1_545 S
C830 C833 1.526 . S
C831 H815 0.959 . S
C831 H816 0.959 . S
C831 H817 0.961 . S
C831 C830 1.502 . S
C832 H818 0.960 . S
C832 H819 0.961 . S
C832 H820 0.959 . S
C832 C830 1.561 1_565 S
C833 C830 1.526 . S
C833 C834 1.396 1_545 S
C833 C838 1.390 . S
C834 C828 1.465 . S
C834 C833 1.396 1_565 S
C834 C835 1.399 . S
C835 H821 0.929 . S
C835 C834 1.399 . S
C835 C836 1.385 . S
C836 H822 0.931 . S
C836 C835 1.385 . S
C836 C837 1.387 1_565 S
C837 C836 1.387 1_545 S
C837 C838 1.388 . S
C838 H823 0.930 . S
C838 C833 1.390 . S
C838 C837 1.388 . S
H839 C851 0.930 . S
H840 C853 0.930 . S
H841 C854 0.930 . S
H842 C858 0.959 . S
H843 C858 0.959 . S
H844 C858 0.961 . S
H845 C859 0.960 1_455 S
H846 C859 0.961 1_455 S
H847 C859 0.959 . S
H848 C862 0.929 . S
H849 C863 0.931 . S
H850 C865 0.930 . S
C851 H839 0.930 . S
C851 C852 1.399 1_455 S
C851 C856 1.399 . S
C852 C851 1.399 1_655 S
C852 C853 1.376 . S
C853 H840 0.930 . S
C853 C852 1.376 . S
C853 C854 1.388 . S
C854 H841 0.930 . S
C854 C853 1.388 . S
C854 C855 1.390 . S
C855 C854 1.390 . S
C855 C856 1.394 1_655 S
C855 C861 1.465 . S
C856 C851 1.399 . S
C856 C855 1.394 1_455 S
C856 C857 1.516 . S
C857 C856 1.516 . S
C857 C858 1.502 . S
C857 C859 1.561 1_455 S
C857 C860 1.526 . S
C858 H842 0.959 . S
C858 H843 0.959 . S
C858 H844 0.961 . S
C858 C857 1.502 . S
C859 H845 0.960 1_655 S
C859 H846 0.961 1_655 S
C859 H847 0.959 . S
C859 C857 1.561 1_655 S
C860 C857 1.526 . S
C860 C861 1.396 1_455 S
C860 C865 1.390 . S
C861 C855 1.465 . S
C861 C860 1.396 1_655 S
C861 C862 1.399 . S
C862 H848 0.929 . S
C862 C861 1.399 . S
C862 C863 1.385 . S
C863 H849 0.931 . S
C863 C862 1.385 . S
C863 C864 1.410 . S
C864 C863 1.410 . S
C864 C865 1.373 1_655 S
C865 H850 0.930 . S
C865 C860 1.390 . S
C865 C864 1.373 1_455 S
H866 C878 0.930 . S
H867 C880 0.930 . S
H868 C881 0.930 . S
H869 C885 0.959 1_565 S
H870 C885 0.959 . S
H871 C885 0.961 . S
H872 C886 0.960 . S
H873 C886 0.961 . S
H874 C886 0.959 . S
H875 C889 0.929 . S
H876 C890 0.931 . S
H877 C892 0.930 . S
C878 H866 0.930 . S
C878 C879 1.399 . S
C878 C883 1.399 . S
C879 C878 1.399 . S
C879 C880 1.376 1_545 S
C880 H867 0.930 . S
C880 C879 1.376 1_565 S
C880 C881 1.388 . S
C881 H868 0.930 . S
C881 C880 1.388 . S
C881 C882 1.390 . S
C882 C881 1.390 . S
C882 C883 1.394 1_565 S
C882 C888 1.465 . S
C883 C878 1.399 . S
C883 C882 1.394 1_545 S
C883 C884 1.516 . S
C884 C883 1.516 . S
C884 C885 1.502 . S
C884 C886 1.561 . S
C884 C887 1.526 . S
C885 H869 0.959 1_545 S
C885 H870 0.959 . S
C885 H871 0.961 . S
C885 C884 1.502 . S
C886 H872 0.960 . S
C886 H873 0.961 . S
C886 H874 0.959 . S
C886 C884 1.561 . S
C887 C884 1.526 . S
C887 C888 1.396 1_545 S
C887 C892 1.390 . S
C888 C882 1.465 . S
C888 C887 1.396 1_565 S
C888 C889 1.399 . S
C889 H875 0.929 . S
C889 C888 1.399 . S
C889 C890 1.385 . S
C890 H876 0.931 . S
C890 C889 1.385 . S
C890 C891 1.381 1_565 S
C891 C890 1.381 1_545 S
C891 C892 1.395 . S
C892 H877 0.930 . S
C892 C887 1.390 . S
C892 C891 1.395 . S
H893 C905 0.930 . S
H894 C907 0.930 . S
H895 C908 0.930 . S
H896 C912 0.959 . S
H897 C912 0.959 . S
H898 C912 0.961 . S
H899 C913 0.960 . S
H900 C913 0.961 . S
H901 C913 0.959 . S
H902 C916 0.929 . S
H903 C917 0.931 . S
H904 C919 0.930 . S
C905 H893 0.930 . S
C905 C906 1.399 1_455 S
C905 C910 1.399 . S
C906 C905 1.399 1_655 S
C906 C907 1.376 . S
C907 H894 0.930 . S
C907 C906 1.376 . S
C907 C908 1.388 . S
C908 H895 0.930 . S
C908 C907 1.388 . S
C908 C909 1.390 . S
C909 C908 1.390 . S
C909 C910 1.394 1_655 S
C909 C915 1.465 . S
C910 C905 1.399 . S
C910 C909 1.394 1_455 S
C910 C911 1.516 . S
C911 C910 1.516 . S
C911 C912 1.502 . S
C911 C913 1.561 1_455 S
C911 C914 1.526 . S
C912 H896 0.959 . S
C912 H897 0.959 . S
C912 H898 0.961 . S
C912 C911 1.502 . S
C913 H899 0.960 . S
C913 H900 0.961 . S
C913 H901 0.959 . S
C913 C911 1.561 1_655 S
C914 C911 1.526 . S
C914 C915 1.396 1_455 S
C914 C919 1.390 . S
C915 C909 1.465 . S
C915 C914 1.396 1_655 S
C915 C916 1.399 . S
C916 H902 0.929 . S
C916 C915 1.399 . S
C916 C917 1.385 . S
C917 H903 0.931 . S
C917 C916 1.385 . S
C917 C918 1.392 . S
C918 C917 1.392 . S
C918 C919 1.385 1_655 S
C919 H904 0.930 . S
C919 C914 1.390 . S
C919 C918 1.385 1_455 S
H920 C932 0.930 . S
H921 C934 0.930 . S
H922 C935 0.930 . S
H923 C939 0.959 . S
H924 C939 0.959 . S
H925 C939 0.961 . S
H926 C940 0.960 . S
H927 C940 0.961 . S
H928 C940 0.959 . S
H929 C943 0.929 . S
H930 C944 0.931 . S
H931 C946 0.930 . S
C932 H920 0.930 . S
C932 C933 1.399 . S
C932 C937 1.399 . S
C933 C932 1.399 . S
C933 C934 1.376 . S
C934 H921 0.930 . S
C934 C933 1.376 . S
C934 C935 1.388 . S
C935 H922 0.930 . S
C935 C934 1.388 . S
C935 C936 1.390 . S
C936 C935 1.390 . S
C936 C937 1.394 . S
C936 C942 1.465 . S
C937 C932 1.399 . S
C937 C936 1.394 . S
C937 C938 1.516 . S
C938 C937 1.516 . S
C938 C939 1.502 . S
C938 C940 1.561 . S
C938 C941 1.526 . S
C939 H923 0.959 . S
C939 H924 0.959 . S
C939 H925 0.961 . S
C939 C938 1.502 . S
C940 H926 0.960 . S
C940 H927 0.961 . S
C940 H928 0.959 . S
C940 C938 1.561 . S
C941 C938 1.526 . S
C941 C942 1.396 . S
C941 C946 1.390 . S
C942 C936 1.465 . S
C942 C941 1.396 . S
C942 C943 1.399 . S
C943 H929 0.929 . S
C943 C942 1.399 . S
C943 C944 1.385 . S
C944 H930 0.931 . S
C944 C943 1.385 . S
C944 C945 1.389 . S
C945 C944 1.389 . S
C945 C946 1.387 . S
C946 H931 0.930 . S
C946 C941 1.390 . S
C946 C945 1.387 . S
H947 C959 0.930 . S
H948 C961 0.930 . S
H949 C962 0.930 . S
H950 C966 0.959 . S
H951 C966 0.959 . S
H952 C966 0.961 . S
H953 C967 0.960 . S
H954 C967 0.961 . S
H955 C967 0.959 . S
H956 C970 0.929 . S
H957 C971 0.931 . S
H958 C973 0.930 . S
C959 H947 0.930 . S
C959 C960 1.399 . S
C959 C964 1.399 . S
C960 C959 1.399 . S
C960 C961 1.376 . S
C961 H948 0.930 . S
C961 C960 1.376 . S
C961 C962 1.388 . S
C962 H949 0.930 . S
C962 C961 1.388 . S
C962 C963 1.390 . S
C963 C962 1.390 . S
C963 C964 1.394 . S
C963 C969 1.465 . S
C964 C959 1.399 . S
C964 C963 1.394 . S
C964 C965 1.516 . S
C965 C964 1.516 . S
C965 C966 1.502 . S
C965 C967 1.561 . S
C965 C968 1.526 . S
C966 H950 0.959 . S
C966 H951 0.959 . S
C966 H952 0.961 . S
C966 C965 1.502 . S
C967 H953 0.960 . S
C967 H954 0.961 . S
C967 H955 0.959 . S
C967 C965 1.561 . S
C968 C965 1.526 . S
C968 C969 1.396 . S
C968 C973 1.390 . S
C969 C963 1.465 . S
C969 C968 1.396 . S
C969 C970 1.399 . S
C970 H956 0.929 . S
C970 C969 1.399 . S
C970 C971 1.385 . S
C971 H957 0.931 . S
C971 C970 1.385 . S
C971 C972 1.389 . S
C972 C971 1.389 . S
C972 C973 1.387 . S
C973 H958 0.930 . S
C973 C968 1.390 . S
C973 C972 1.387 . S
H974 C986 0.930 . S
H975 C988 0.930 . S
H976 C989 0.930 . S
H977 C993 0.959 . S
H978 C993 0.959 . S
H979 C993 0.961 . S
H980 C994 0.960 . S
H981 C994 0.961 . S
H982 C994 0.959 . S
H983 C997 0.929 . S
H984 C998 0.931 . S
H985 C1000 0.930 . S
C986 H974 0.930 . S
C986 C987 1.399 . S
C986 C991 1.399 . S
C987 C986 1.399 . S
C987 C988 1.376 . S
C988 H975 0.930 . S
C988 C987 1.376 . S
C988 C989 1.388 . S
C989 H976 0.930 . S
C989 C988 1.388 . S
C989 C990 1.390 . S
C990 C989 1.390 . S
C990 C991 1.394 . S
C990 C996 1.465 . S
C991 C986 1.399 . S
C991 C990 1.394 . S
C991 C992 1.516 . S
C992 C991 1.516 . S
C992 C993 1.502 . S
C992 C994 1.561 . S
C992 C995 1.526 . S
C993 H977 0.959 . S
C993 H978 0.959 . S
C993 H979 0.961 . S
C993 C992 1.502 . S
C994 H980 0.960 . S
C994 H981 0.961 . S
C994 H982 0.959 . S
C994 C992 1.561 . S
C995 C992 1.526 . S
C995 C996 1.396 . S
C995 C1000 1.390 . S
C996 C990 1.465 . S
C996 C995 1.396 . S
C996 C997 1.399 . S
C997 H983 0.929 . S
C997 C996 1.399 . S
C997 C998 1.385 . S
C998 H984 0.931 . S
C998 C997 1.385 . S
C998 C999 1.389 . S
C999 C998 1.389 . S
C999 C1000 1.387 . S
C1000 H985 0.930 . S
C1000 C995 1.390 . S
C1000 C999 1.387 . S
H1001 C1013 0.930 . S
H1002 C1015 0.930 . S
H1003 C1016 0.930 . S
H1004 C1020 0.959 . S
H1005 C1020 0.959 . S
H1006 C1020 0.961 . S
H1007 C1021 0.960 . S
H1008 C1021 0.961 . S
H1009 C1021 0.959 . S
H1010 C1024 0.929 . S
H1011 C1025 0.931 . S
H1012 C1027 0.930 . S
C1013 H1001 0.930 . S
C1013 C1014 1.399 . S
C1013 C1018 1.399 . S
C1014 C1013 1.399 . S
C1014 C1015 1.376 . S
C1015 H1002 0.930 . S
C1015 C1014 1.376 . S
C1015 C1016 1.388 . S
C1016 H1003 0.930 . S
C1016 C1015 1.388 . S
C1016 C1017 1.390 . S
C1017 C1016 1.390 . S
C1017 C1018 1.394 . S
C1017 C1023 1.465 . S
C1018 C1013 1.399 . S
C1018 C1017 1.394 . S
C1018 C1019 1.516 . S
C1019 C1018 1.516 . S
C1019 C1020 1.502 . S
C1019 C1021 1.561 . S
C1019 C1022 1.526 . S
C1020 H1004 0.959 . S
C1020 H1005 0.959 . S
C1020 H1006 0.961 . S
C1020 C1019 1.502 . S
C1021 H1007 0.960 . S
C1021 H1008 0.961 . S
C1021 H1009 0.959 . S
C1021 C1019 1.561 . S
C1022 C1019 1.526 . S
C1022 C1023 1.396 . S
C1022 C1027 1.390 . S
C1023 C1017 1.465 . S
C1023 C1022 1.396 . S
C1023 C1024 1.399 . S
C1024 H1010 0.929 . S
C1024 C1023 1.399 . S
C1024 C1025 1.385 . S
C1025 H1011 0.931 . S
C1025 C1024 1.385 . S
C1025 C1026 1.389 . S
C1026 C1025 1.389 . S
C1026 C1027 1.387 . S
C1027 H1012 0.930 . S
C1027 C1022 1.390 . S
C1027 C1026 1.387 . S
H1028 C1040 0.930 . S
H1029 C1042 0.930 . S
H1030 C1043 0.930 . S
H1031 C1047 0.959 . S
H1032 C1047 0.959 . S
H1033 C1047 0.961 . S
H1034 C1048 0.960 . S
H1035 C1048 0.961 . S
H1036 C1048 0.959 . S
H1037 C1051 0.929 . S
H1038 C1052 0.931 . S
H1039 C1054 0.930 . S
C1040 H1028 0.930 . S
C1040 C1041 1.399 . S
C1040 C1045 1.399 . S
C1041 C1040 1.399 . S
C1041 C1042 1.376 . S
C1042 H1029 0.930 . S
C1042 C1041 1.376 . S
C1042 C1043 1.388 . S
C1043 H1030 0.930 . S
C1043 C1042 1.388 . S
C1043 C1044 1.390 . S
C1044 C1043 1.390 . S
C1044 C1045 1.394 . S
C1044 C1050 1.465 . S
C1045 C1040 1.399 . S
C1045 C1044 1.394 . S
C1045 C1046 1.516 . S
C1046 C1045 1.516 . S
C1046 C1047 1.502 . S
C1046 C1048 1.561 . S
C1046 C1049 1.526 . S
C1047 H1031 0.959 . S
C1047 H1032 0.959 . S
C1047 H1033 0.961 . S
C1047 C1046 1.502 . S
C1048 H1034 0.960 . S
C1048 H1035 0.961 . S
C1048 H1036 0.959 . S
C1048 C1046 1.561 . S
C1049 C1046 1.526 . S
C1049 C1050 1.396 . S
C1049 C1054 1.390 . S
C1050 C1044 1.465 . S
C1050 C1049 1.396 . S
C1050 C1051 1.399 . S
C1051 H1037 0.929 . S
C1051 C1050 1.399 . S
C1051 C1052 1.385 . S
C1052 H1038 0.931 . S
C1052 C1051 1.385 . S
C1052 C1053 1.389 . S
C1053 C1052 1.389 . S
C1053 C1054 1.387 . S
C1054 H1039 0.930 . S
C1054 C1049 1.390 . S
C1054 C1053 1.387 . S
H1055 C1067 0.930 . S
H1056 C1069 0.930 . S
H1057 C1070 0.930 . S
H1058 C1074 0.959 . S
H1059 C1074 0.959 . S
H1060 C1074 0.961 . S
H1061 C1075 0.960 . S
H1062 C1075 0.961 . S
H1063 C1075 0.959 . S
H1064 C1078 0.929 . S
H1065 C1079 0.931 . S
H1066 C1081 0.930 . S
C1067 H1055 0.930 . S
C1067 C1068 1.399 . S
C1067 C1072 1.399 . S
C1068 C1067 1.399 . S
C1068 C1069 1.376 . S
C1069 H1056 0.930 . S
C1069 C1068 1.376 . S
C1069 C1070 1.388 . S
C1070 H1057 0.930 . S
C1070 C1069 1.388 . S
C1070 C1071 1.390 . S
C1071 C1070 1.390 . S
C1071 C1072 1.394 . S
C1071 C1077 1.465 . S
C1072 C1067 1.399 . S
C1072 C1071 1.394 . S
C1072 C1073 1.516 . S
C1073 C1072 1.516 . S
C1073 C1074 1.502 . S
C1073 C1075 1.561 . S
C1073 C1076 1.526 . S
C1074 H1058 0.959 . S
C1074 H1059 0.959 . S
C1074 H1060 0.961 . S
C1074 C1073 1.502 . S
C1075 H1061 0.960 . S
C1075 H1062 0.961 . S
C1075 H1063 0.959 . S
C1075 C1073 1.561 . S
C1076 C1073 1.526 . S
C1076 C1077 1.396 . S
C1076 C1081 1.390 . S
C1077 C1071 1.465 . S
C1077 C1076 1.396 . S
C1077 C1078 1.399 . S
C1078 H1064 0.929 . S
C1078 C1077 1.399 . S
C1078 C1079 1.385 . S
C1079 H1065 0.931 . S
C1079 C1078 1.385 . S
C1079 C1080 1.389 . S
C1080 C1079 1.389 . S
C1080 C1081 1.387 . S
C1081 H1066 0.930 . S
C1081 C1076 1.390 . S
C1081 C1080 1.387 . S
H1082 C1094 0.930 . S
H1083 C1096 0.930 . S
H1084 C1097 0.930 . S
H1085 C1101 0.959 . S
H1086 C1101 0.959 . S
H1087 C1101 0.961 . S
H1088 C1102 0.960 . S
H1089 C1102 0.961 . S
H1090 C1102 0.959 . S
H1091 C1105 0.929 . S
H1092 C1106 0.931 . S
H1093 C1108 0.930 . S
C1094 H1082 0.930 . S
C1094 C1095 1.399 . S
C1094 C1099 1.399 . S
C1095 C1094 1.399 . S
C1095 C1096 1.376 . S
C1096 H1083 0.930 . S
C1096 C1095 1.376 . S
C1096 C1097 1.388 . S
C1097 H1084 0.930 . S
C1097 C1096 1.388 . S
C1097 C1098 1.390 . S
C1098 C1097 1.390 . S
C1098 C1099 1.394 . S
C1098 C1104 1.465 . S
C1099 C1094 1.399 . S
C1099 C1098 1.394 . S
C1099 C1100 1.516 . S
C1100 C1099 1.516 . S
C1100 C1101 1.502 . S
C1100 C1102 1.561 . S
C1100 C1103 1.526 . S
C1101 H1085 0.959 . S
C1101 H1086 0.959 . S
C1101 H1087 0.961 . S
C1101 C1100 1.502 . S
C1102 H1088 0.960 . S
C1102 H1089 0.961 . S
C1102 H1090 0.959 . S
C1102 C1100 1.561 . S
C1103 C1100 1.526 . S
C1103 C1104 1.396 . S
C1103 C1108 1.390 . S
C1104 C1098 1.465 . S
C1104 C1103 1.396 . S
C1104 C1105 1.399 . S
C1105 H1091 0.929 . S
C1105 C1104 1.399 . S
C1105 C1106 1.385 . S
C1106 H1092 0.931 . S
C1106 C1105 1.385 . S
C1106 C1107 1.389 . S
C1107 C1106 1.389 . S
C1107 C1108 1.387 . S
C1108 H1093 0.930 . S
C1108 C1103 1.390 . S
C1108 C1107 1.387 . S
H1109 C1121 0.930 . S
H1110 C1123 0.930 . S
H1111 C1124 0.930 . S
H1112 C1128 0.959 . S
H1113 C1128 0.959 . S
H1114 C1128 0.961 . S
H1115 C1129 0.960 . S
H1116 C1129 0.961 . S
H1117 C1129 0.959 . S
H1118 C1132 0.929 . S
H1119 C1133 0.931 . S
H1120 C1135 0.930 . S
C1121 H1109 0.930 . S
C1121 C1122 1.399 . S
C1121 C1126 1.399 . S
C1122 C1121 1.399 . S
C1122 C1123 1.376 . S
C1123 H1110 0.930 . S
C1123 C1122 1.376 . S
C1123 C1124 1.388 . S
C1124 H1111 0.930 . S
C1124 C1123 1.388 . S
C1124 C1125 1.390 . S
C1125 C1124 1.390 . S
C1125 C1126 1.394 . S
C1125 C1131 1.465 . S
C1126 C1121 1.399 . S
C1126 C1125 1.394 . S
C1126 C1127 1.516 . S
C1127 C1126 1.516 . S
C1127 C1128 1.502 . S
C1127 C1129 1.561 . S
C1127 C1130 1.526 . S
C1128 H1112 0.959 . S
C1128 H1113 0.959 . S
C1128 H1114 0.961 . S
C1128 C1127 1.502 . S
C1129 H1115 0.960 . S
C1129 H1116 0.961 . S
C1129 H1117 0.959 . S
C1129 C1127 1.561 . S
C1130 C1127 1.526 . S
C1130 C1131 1.396 . S
C1130 C1135 1.390 . S
C1131 C1125 1.465 . S
C1131 C1130 1.396 . S
C1131 C1132 1.399 . S
C1132 H1118 0.929 . S
C1132 C1131 1.399 . S
C1132 C1133 1.385 . S
C1133 H1119 0.931 . S
C1133 C1132 1.385 . S
C1133 C1134 1.389 . S
C1134 C1133 1.389 . S
C1134 C1135 1.387 . S
C1135 H1120 0.930 . S
C1135 C1130 1.390 . S
C1135 C1134 1.387 . S
C717 C49 1.591 1_565 S
C729 C381 1.589 1_565 S
C744 C108 1.591 . S
C756 C469 1.594 . S
C771 C548 1.591 1_565 S
C783 C233 1.591 . S
C798 C673 1.588 1_655 S
C810 C313 1.587 . S
C825 C29 0.706 1_565 S
C837 C196 0.709 . S
C852 C117 0.762 1_655 S
C864 C321 0.778 1_655 S
C879 C585 0.784 . S
C891 C401 0.783 . S
C906 C460 0.724 1_655 S
C918 C665 0.706 1_655 S
C933 C489 1.268 . S
C945 C20 1.291 . S
C960 C145 1.274 . S
C972 C577 1.294 . S
C987 C636 1.266 . S
C999 C205 1.291 . S
C1014 C293 1.281 . S
C1026 C409 1.294 . S
C1041 C557 1.242 . S
C1053 C284 1.273 . S
C1068 C57 1.242 . S
C1080 C645 1.268 . S
C1095 C137 1.293 . S
C1107 C372 1.267 . S
C1122 C497 1.287 . S
C1134 C225 1.278 . S
