# Generated by pormake.
# Topology son, (6)-cn, num edge types: 1
# Building blocks:
#     Node 0, Type 0, BuildingBlock: GEDQOX_clean_sbu_0, # of connection points: 6
#     Node 1, Type 0, BuildingBlock: GEDQOX_clean_sbu_0, # of connection points: 6
#     Node 2, Type 0, BuildingBlock: GEDQOX_clean_sbu_0, # of connection points: 6
#     Node 3, Type 0, BuildingBlock: GEDQOX_clean_sbu_0, # of connection points: 6
#     Node 4, Type 0, BuildingBlock: GEDQOX_clean_sbu_0, # of connection points: 6
#     Node 5, Type 0, BuildingBlock: GEDQOX_clean_sbu_0, # of connection points: 6
#     Node 6, Type 0, BuildingBlock: GEDQOX_clean_sbu_0, # of connection points: 6
#     Node 7, Type 0, BuildingBlock: GEDQOX_clean_sbu_0, # of connection points: 6
#     Node 8, Type 0, BuildingBlock: GEDQOX_clean_sbu_0, # of connection points: 6
#     Node 9, Type 0, BuildingBlock: GEDQOX_clean_sbu_0, # of connection points: 6
#     Node 10, Type 0, BuildingBlock: GEDQOX_clean_sbu_0, # of connection points: 6
#     Node 11, Type 0, BuildingBlock: GEDQOX_clean_sbu_0, # of connection points: 6
#     Node 12, Type 0, BuildingBlock: GEDQOX_clean_sbu_0, # of connection points: 6
#     Node 13, Type 0, BuildingBlock: GEDQOX_clean_sbu_0, # of connection points: 6
#     Node 14, Type 0, BuildingBlock: GEDQOX_clean_sbu_0, # of connection points: 6
#     Node 15, Type 0, BuildingBlock: GEDQOX_clean_sbu_0, # of connection points: 6
#     Node 16, Type 0, BuildingBlock: GEDQOX_clean_sbu_0, # of connection points: 6
#     Node 17, Type 0, BuildingBlock: GEDQOX_clean_sbu_0, # of connection points: 6
#     Node 18, Type 0, BuildingBlock: GEDQOX_clean_sbu_0, # of connection points: 6
#     Node 19, Type 0, BuildingBlock: GEDQOX_clean_sbu_0, # of connection points: 6
#     Node 20, Type 0, BuildingBlock: GEDQOX_clean_sbu_0, # of connection points: 6
#     Node 21, Type 0, BuildingBlock: GEDQOX_clean_sbu_0, # of connection points: 6
#     Node 22, Type 0, BuildingBlock: GEDQOX_clean_sbu_0, # of connection points: 6
#     Node 23, Type 0, BuildingBlock: GEDQOX_clean_sbu_0, # of connection points: 6
#     Node 24, Type 0, BuildingBlock: GEDQOX_clean_sbu_0, # of connection points: 6
#     Node 25, Type 0, BuildingBlock: GEDQOX_clean_sbu_0, # of connection points: 6
#     Node 26, Type 0, BuildingBlock: GEDQOX_clean_sbu_0, # of connection points: 6
#     Node 27, Type 0, BuildingBlock: GEDQOX_clean_sbu_0, # of connection points: 6
#     Node 28, Type 0, BuildingBlock: GEDQOX_clean_sbu_0, # of connection points: 6
#     Node 29, Type 0, BuildingBlock: GEDQOX_clean_sbu_0, # of connection points: 6
#     Node 30, Type 0, BuildingBlock: GEDQOX_clean_sbu_0, # of connection points: 6
#     Node 31, Type 0, BuildingBlock: GEDQOX_clean_sbu_0, # of connection points: 6
#     Edge 32, Type (0, 0), BuildingBlock: XUDNAN_clean_linker_2, # of connection points: 2
#     Edge 33, Type (0, 0), BuildingBlock: XUDNAN_clean_linker_2, # of connection points: 2
#     Edge 34, Type (0, 0), BuildingBlock: XUDNAN_clean_linker_2, # of connection points: 2
#     Edge 35, Type (0, 0), BuildingBlock: XUDNAN_clean_linker_2, # of connection points: 2
#     Edge 36, Type (0, 0), BuildingBlock: XUDNAN_clean_linker_2, # of connection points: 2
#     Edge 37, Type (0, 0), BuildingBlock: XUDNAN_clean_linker_2, # of connection points: 2
#     Edge 38, Type (0, 0), BuildingBlock: XUDNAN_clean_linker_2, # of connection points: 2
#     Edge 39, Type (0, 0), BuildingBlock: XUDNAN_clean_linker_2, # of connection points: 2
#     Edge 40, Type (0, 0), BuildingBlock: XUDNAN_clean_linker_2, # of connection points: 2
#     Edge 41, Type (0, 0), BuildingBlock: XUDNAN_clean_linker_2, # of connection points: 2
#     Edge 42, Type (0, 0), BuildingBlock: XUDNAN_clean_linker_2, # of connection points: 2
#     Edge 43, Type (0, 0), BuildingBlock: XUDNAN_clean_linker_2, # of connection points: 2
#     Edge 44, Type (0, 0), BuildingBlock: XUDNAN_clean_linker_2, # of connection points: 2
#     Edge 45, Type (0, 0), BuildingBlock: XUDNAN_clean_linker_2, # of connection points: 2
#     Edge 46, Type (0, 0), BuildingBlock: XUDNAN_clean_linker_2, # of connection points: 2
#     Edge 47, Type (0, 0), BuildingBlock: XUDNAN_clean_linker_2, # of connection points: 2
#     Edge 48, Type (0, 0), BuildingBlock: XUDNAN_clean_linker_2, # of connection points: 2
#     Edge 49, Type (0, 0), BuildingBlock: XUDNAN_clean_linker_2, # of connection points: 2
#     Edge 50, Type (0, 0), BuildingBlock: XUDNAN_clean_linker_2, # of connection points: 2
#     Edge 51, Type (0, 0), BuildingBlock: XUDNAN_clean_linker_2, # of connection points: 2
#     Edge 52, Type (0, 0), BuildingBlock: XUDNAN_clean_linker_2, # of connection points: 2
#     Edge 53, Type (0, 0), BuildingBlock: XUDNAN_clean_linker_2, # of connection points: 2
#     Edge 54, Type (0, 0), BuildingBlock: XUDNAN_clean_linker_2, # of connection points: 2
#     Edge 55, Type (0, 0), BuildingBlock: XUDNAN_clean_linker_2, # of connection points: 2
#     Edge 56, Type (0, 0), BuildingBlock: XUDNAN_clean_linker_2, # of connection points: 2
#     Edge 57, Type (0, 0), BuildingBlock: XUDNAN_clean_linker_2, # of connection points: 2
#     Edge 58, Type (0, 0), BuildingBlock: XUDNAN_clean_linker_2, # of connection points: 2
#     Edge 59, Type (0, 0), BuildingBlock: XUDNAN_clean_linker_2, # of connection points: 2
#     Edge 60, Type (0, 0), BuildingBlock: XUDNAN_clean_linker_2, # of connection points: 2
#     Edge 61, Type (0, 0), BuildingBlock: XUDNAN_clean_linker_2, # of connection points: 2
#     Edge 62, Type (0, 0), BuildingBlock: XUDNAN_clean_linker_2, # of connection points: 2
#     Edge 63, Type (0, 0), BuildingBlock: XUDNAN_clean_linker_2, # of connection points: 2
#     Edge 64, Type (0, 0), BuildingBlock: XUDNAN_clean_linker_2, # of connection points: 2
#     Edge 65, Type (0, 0), BuildingBlock: XUDNAN_clean_linker_2, # of connection points: 2
#     Edge 66, Type (0, 0), BuildingBlock: XUDNAN_clean_linker_2, # of connection points: 2
#     Edge 67, Type (0, 0), BuildingBlock: XUDNAN_clean_linker_2, # of connection points: 2
#     Edge 68, Type (0, 0), BuildingBlock: XUDNAN_clean_linker_2, # of connection points: 2
#     Edge 69, Type (0, 0), BuildingBlock: XUDNAN_clean_linker_2, # of connection points: 2
#     Edge 70, Type (0, 0), BuildingBlock: XUDNAN_clean_linker_2, # of connection points: 2
#     Edge 71, Type (0, 0), BuildingBlock: XUDNAN_clean_linker_2, # of connection points: 2
#     Edge 72, Type (0, 0), BuildingBlock: XUDNAN_clean_linker_2, # of connection points: 2
#     Edge 73, Type (0, 0), BuildingBlock: XUDNAN_clean_linker_2, # of connection points: 2
#     Edge 74, Type (0, 0), BuildingBlock: XUDNAN_clean_linker_2, # of connection points: 2
#     Edge 75, Type (0, 0), BuildingBlock: XUDNAN_clean_linker_2, # of connection points: 2
#     Edge 76, Type (0, 0), BuildingBlock: XUDNAN_clean_linker_2, # of connection points: 2
#     Edge 77, Type (0, 0), BuildingBlock: XUDNAN_clean_linker_2, # of connection points: 2
#     Edge 78, Type (0, 0), BuildingBlock: XUDNAN_clean_linker_2, # of connection points: 2
#     Edge 79, Type (0, 0), BuildingBlock: XUDNAN_clean_linker_2, # of connection points: 2
#     Edge 80, Type (0, 0), BuildingBlock: XUDNAN_clean_linker_2, # of connection points: 2
#     Edge 81, Type (0, 0), BuildingBlock: XUDNAN_clean_linker_2, # of connection points: 2
#     Edge 82, Type (0, 0), BuildingBlock: XUDNAN_clean_linker_2, # of connection points: 2
#     Edge 83, Type (0, 0), BuildingBlock: XUDNAN_clean_linker_2, # of connection points: 2
#     Edge 84, Type (0, 0), BuildingBlock: XUDNAN_clean_linker_2, # of connection points: 2
#     Edge 85, Type (0, 0), BuildingBlock: XUDNAN_clean_linker_2, # of connection points: 2
#     Edge 86, Type (0, 0), BuildingBlock: XUDNAN_clean_linker_2, # of connection points: 2
#     Edge 87, Type (0, 0), BuildingBlock: XUDNAN_clean_linker_2, # of connection points: 2
#     Edge 88, Type (0, 0), BuildingBlock: XUDNAN_clean_linker_2, # of connection points: 2
#     Edge 89, Type (0, 0), BuildingBlock: XUDNAN_clean_linker_2, # of connection points: 2
#     Edge 90, Type (0, 0), BuildingBlock: XUDNAN_clean_linker_2, # of connection points: 2
#     Edge 91, Type (0, 0), BuildingBlock: XUDNAN_clean_linker_2, # of connection points: 2
#     Edge 92, Type (0, 0), BuildingBlock: XUDNAN_clean_linker_2, # of connection points: 2
#     Edge 93, Type (0, 0), BuildingBlock: XUDNAN_clean_linker_2, # of connection points: 2
#     Edge 94, Type (0, 0), BuildingBlock: XUDNAN_clean_linker_2, # of connection points: 2
#     Edge 95, Type (0, 0), BuildingBlock: XUDNAN_clean_linker_2, # of connection points: 2
#     Edge 96, Type (0, 0), BuildingBlock: XUDNAN_clean_linker_2, # of connection points: 2
#     Edge 97, Type (0, 0), BuildingBlock: XUDNAN_clean_linker_2, # of connection points: 2
#     Edge 98, Type (0, 0), BuildingBlock: XUDNAN_clean_linker_2, # of connection points: 2
#     Edge 99, Type (0, 0), BuildingBlock: XUDNAN_clean_linker_2, # of connection points: 2
#     Edge 100, Type (0, 0), BuildingBlock: XUDNAN_clean_linker_2, # of connection points: 2
#     Edge 101, Type (0, 0), BuildingBlock: XUDNAN_clean_linker_2, # of connection points: 2
#     Edge 102, Type (0, 0), BuildingBlock: XUDNAN_clean_linker_2, # of connection points: 2
#     Edge 103, Type (0, 0), BuildingBlock: XUDNAN_clean_linker_2, # of connection points: 2
#     Edge 104, Type (0, 0), BuildingBlock: XUDNAN_clean_linker_2, # of connection points: 2
#     Edge 105, Type (0, 0), BuildingBlock: XUDNAN_clean_linker_2, # of connection points: 2
#     Edge 106, Type (0, 0), BuildingBlock: XUDNAN_clean_linker_2, # of connection points: 2
#     Edge 107, Type (0, 0), BuildingBlock: XUDNAN_clean_linker_2, # of connection points: 2
#     Edge 108, Type (0, 0), BuildingBlock: XUDNAN_clean_linker_2, # of connection points: 2
#     Edge 109, Type (0, 0), BuildingBlock: XUDNAN_clean_linker_2, # of connection points: 2
#     Edge 110, Type (0, 0), BuildingBlock: XUDNAN_clean_linker_2, # of connection points: 2
#     Edge 111, Type (0, 0), BuildingBlock: XUDNAN_clean_linker_2, # of connection points: 2
#     Edge 112, Type (0, 0), BuildingBlock: XUDNAN_clean_linker_2, # of connection points: 2
#     Edge 113, Type (0, 0), BuildingBlock: XUDNAN_clean_linker_2, # of connection points: 2
#     Edge 114, Type (0, 0), BuildingBlock: XUDNAN_clean_linker_2, # of connection points: 2
#     Edge 115, Type (0, 0), BuildingBlock: XUDNAN_clean_linker_2, # of connection points: 2
#     Edge 116, Type (0, 0), BuildingBlock: XUDNAN_clean_linker_2, # of connection points: 2
#     Edge 117, Type (0, 0), BuildingBlock: XUDNAN_clean_linker_2, # of connection points: 2
#     Edge 118, Type (0, 0), BuildingBlock: XUDNAN_clean_linker_2, # of connection points: 2
#     Edge 119, Type (0, 0), BuildingBlock: XUDNAN_clean_linker_2, # of connection points: 2
#     Edge 120, Type (0, 0), BuildingBlock: XUDNAN_clean_linker_2, # of connection points: 2
#     Edge 121, Type (0, 0), BuildingBlock: XUDNAN_clean_linker_2, # of connection points: 2
#     Edge 122, Type (0, 0), BuildingBlock: XUDNAN_clean_linker_2, # of connection points: 2
#     Edge 123, Type (0, 0), BuildingBlock: XUDNAN_clean_linker_2, # of connection points: 2
#     Edge 124, Type (0, 0), BuildingBlock: XUDNAN_clean_linker_2, # of connection points: 2
#     Edge 125, Type (0, 0), BuildingBlock: XUDNAN_clean_linker_2, # of connection points: 2
#     Edge 126, Type (0, 0), BuildingBlock: XUDNAN_clean_linker_2, # of connection points: 2
#     Edge 127, Type (0, 0), BuildingBlock: XUDNAN_clean_linker_2, # of connection points: 2
# Relax obj value: 0.133
# Max RMSD: 0.185
# Mean RMSD: 0.185
data_MOF--net-son--node1-GEDQOX_clean_sbu_0--edge1-XUDNAN_clean_linker_2
_symmetry_space_group_name_H-M    P1
_symmetry_Int_Tables_number       1
_symmetry_cell_setting            triclinic
loop_
_symmetry_equiv_pos_as_xyz
'x, y, z'
_cell_length_a     206.58405
_cell_length_b     57.191893
_cell_length_c     15.728039
_cell_angle_alpha  90.109474
_cell_angle_beta   89.856267
_cell_angle_gamma 89.842957
loop_
_atom_site_label
_atom_site_type_symbol
_atom_site_fract_x
_atom_site_fract_y
_atom_site_fract_z
_atom_type_partial_charge
Nd0 Nd 0.3153 0.25297 0.27115 0.0
Nd1 Nd 0.32968 0.25042 0.26139 0.0
C2 C 0.30244 0.2522 0.26032 0.0
C3 C 0.29634 0.2495 0.21114 0.0
C4 C 0.29489 0.22906 0.16539 0.0
C5 C 0.28873 0.22601 0.1292 0.0
C6 C 0.28385 0.24321 0.1385 0.0
C7 C 0.28544 0.26397 0.18188 0.0
C8 C 0.29159 0.26704 0.21753 0.0
C9 C 0.32131 0.29325 0.32509 0.0
C10 C 0.32225 0.25483 0.08149 0.0
C11 C 0.34251 0.25181 0.26805 0.0
C12 C 0.34909 0.25495 0.30314 0.0
C13 C 0.35043 0.27057 0.36959 0.0
C14 C 0.35684 0.27374 0.39743 0.0
C15 C 0.36204 0.26155 0.35877 0.0
C16 C 0.3606 0.24567 0.29304 0.0
C17 C 0.35421 0.24238 0.266 0.0
C18 C 0.32368 0.20927 0.21521 0.0
C19 C 0.32245 0.24443 0.44852 0.0
O20 O 0.30595 0.23375 0.27794 0.0
O21 O 0.30589 0.27105 0.24906 0.0
O22 O 0.31637 0.28386 0.36213 0.0
O23 O 0.32298 0.28179 0.25936 0.0
O24 O 0.31707 0.24995 0.12725 0.0
O25 O 0.32784 0.25932 0.11914 0.0
O26 O 0.33894 0.27004 0.24951 0.0
O27 O 0.33916 0.23326 0.28797 0.0
O28 O 0.32863 0.21808 0.1766 0.0
O29 O 0.32203 0.22173 0.27835 0.0
O30 O 0.32775 0.25177 0.40881 0.0
O31 O 0.31718 0.23954 0.40493 0.0
H32 H 0.29844 0.21522 0.15918 0.0
H33 H 0.28777 0.20998 0.09482 0.0
H34 H 0.28185 0.27754 0.19163 0.0
H35 H 0.29256 0.28289 0.25307 0.0
H36 H 0.34656 0.28039 0.39949 0.0
H37 H 0.35769 0.28579 0.44931 0.0
H38 H 0.36441 0.2362 0.2604 0.0
H39 H 0.35329 0.23028 0.21435 0.0
Nd40 Nd 0.95695 0.00183 0.27178 0.0
Nd41 Nd 0.94174 0.99868 0.26676 0.0
C42 C 0.96903 0.01739 0.25881 0.0
C43 C 0.97541 0.01171 0.2198 0.0
C44 C 0.97942 0.02992 0.1916 0.0
C45 C 0.98553 0.02519 0.15643 0.0
C46 C 0.98781 0.00205 0.14851 0.0
C47 C 0.98375 0.9838 0.17683 0.0
C48 C 0.97763 0.98857 0.21185 0.0
C49 C 0.95338 0.95503 0.28289 0.0
C50 C 0.94937 0.99177 0.08873 0.0
C51 C 0.92902 0.99263 0.2727 0.0
C52 C 0.92246 0.99062 0.31037 0.0
C53 C 0.92109 0.97667 0.3815 0.0
C54 C 0.91468 0.97422 0.41036 0.0
C55 C 0.9095 0.98548 0.36819 0.0
C56 C 0.91097 -0.00025 0.29802 0.0
C57 C 0.91735 0.0023 0.26984 0.0
C58 C 0.94702 0.04119 0.22185 0.0
C59 C 0.94902 0.00165 0.45447 0.0
O60 O 0.96437 0.02382 0.20757 0.0
O61 O 0.96699 0.00409 0.321 0.0
O62 O 0.95934 0.96206 0.27914 0.0
O63 O 0.94969 0.97247 0.27577 0.0
O64 O 0.95453 0.00105 0.12606 0.0
O65 O 0.94429 0.98503 0.13394 0.0
O66 O 0.93315 0.97522 0.27662 0.0
O67 O 0.93176 0.01316 0.26913 0.0
O68 O 0.94231 0.03109 0.1821 0.0
O69 O 0.9489 0.02884 0.28411 0.0
O70 O 0.94368 0.9978 0.41031 0.0
O71 O 0.95463 0.00639 0.41659 0.0
H72 H 0.97781 0.04792 0.19691 0.0
H73 H 0.98843 0.03971 0.13435 0.0
H74 H 0.98534 0.96577 0.17307 0.0
H75 H 0.97464 0.97416 0.23314 0.0
H76 H 0.92495 0.96751 0.4141 0.0
H77 H 0.91378 0.96339 0.46549 0.0
H78 H 0.90717 0.0084 0.26262 0.0
H79 H 0.91828 0.01303 0.21442 0.0
Nd80 Nd 0.31497 0.99737 0.05352 0.0
Nd81 Nd 0.32928 0.99922 0.05775 0.0
C82 C 0.30216 0.00175 0.06648 0.0
C83 C 0.29611 0.00163 0.11775 0.0
C84 C 0.29555 0.0135 0.19566 0.0
C85 C 0.28962 0.01383 0.2397 0.0
C86 C 0.28412 0.00235 0.20675 0.0
C87 C 0.28474 0.99047 0.12874 0.0
C88 C 0.29066 0.99012 0.08501 0.0
C89 C 0.32062 0.95561 1.00467 0.0
C90 C 0.32234 0.99278 0.24085 0.0
C91 C 0.34194 0.99767 1.03217 0.0
C92 C 0.34905 0.99815 1.01718 0.0
C93 C 0.35284 0.9777 1.02016 0.0
C94 C 0.35958 0.97873 1.0071 0.0
C95 C 0.36265 0.00028 0.99183 0.0
C96 C 0.35881 0.02057 0.98737 0.0
C97 C 0.35212 0.01952 0.99969 0.0
C98 C 0.3235 0.04128 0.09919 0.0
C99 C 0.32175 0.00228 0.8719 0.0
O100 O 0.30616 0.01937 0.07292 0.0
O101 O 0.3051 0.98185 0.05338 0.0
O102 O 0.31556 0.9649 0.96981 0.0
O103 O 0.32256 0.96801 0.06677 0.0
O104 O 0.31688 0.9958 0.19845 0.0
O105 O 0.32798 0.99152 0.20106 0.0
O106 O 0.3388 0.97995 0.06501 0.0
O107 O 0.33832 0.01571 1.01365 0.0
O108 O 0.32835 0.03228 0.13963 0.0
O109 O 0.32178 0.02804 1.03849 0.0
O110 O 0.32703 0.99554 0.91259 0.0
O111 O 0.31648 0.00797 0.91466 0.0
H112 H 0.29966 0.02264 0.2222 0.0
H113 H 0.28932 0.02337 0.29911 0.0
H114 H 0.28068 0.98114 0.10182 0.0
H115 H 0.29097 0.98091 1.02485 0.0
H116 H 0.35062 0.96095 1.033 0.0
H117 H 0.3624 0.96278 1.01121 0.0
H118 H 0.36099 0.0374 0.97444 0.0
H119 H 0.34935 0.03561 0.99647 0.0
Nd120 Nd 0.95638 0.25321 0.06444 0.0
Nd121 Nd 0.94225 0.2525 0.07367 0.0
C122 C 0.9692 0.25073 0.07695 0.0
C123 C 0.97533 0.24804 0.12526 0.0
C124 C 0.97686 0.22763 0.17053 0.0
C125 C 0.98304 0.22472 0.20625 0.0
C126 C 0.98785 0.24202 0.19676 0.0
C127 C 0.9862 0.26273 0.15369 0.0
C128 C 0.98002 0.26567 0.11861 0.0
C129 C 0.95097 0.29533 1.01702 0.0
C130 C 0.94932 0.25786 0.25195 0.0
C131 C 0.9295 0.25953 0.06263 0.0
C132 C 0.92301 0.25344 1.0278 0.0
C133 C 0.91995 0.26819 0.9685 0.0
C134 C 0.91348 0.26451 0.94472 0.0
C135 C 0.90986 0.24606 0.98009 0.0
C136 C 0.91297 0.23121 1.03878 0.0
C137 C 0.91943 0.23482 0.06214 0.0
C138 C 0.94777 0.20898 0.10577 0.0
C139 C 0.94915 0.24605 0.88357 0.0
O140 O 0.96555 0.23252 0.06131 0.0
O141 O 0.9659 0.27006 0.08637 0.0
O142 O 0.95575 0.28503 0.97926 0.0
O143 O 0.94907 0.2835 0.08098 0.0
O144 O 0.95441 0.24963 0.21043 0.0
O145 O 0.94423 0.26519 0.20922 0.0
O146 O 0.93371 0.27045 1.01505 0.0
O147 O 0.93223 0.24522 0.11638 0.0
O148 O 0.9429 0.21767 0.14697 0.0
O149 O 0.94949 0.22283 0.04723 0.0
O150 O 0.94375 0.24903 0.92787 0.0
O151 O 0.95483 0.24494 0.92189 0.0
H152 H 0.97334 0.21372 0.1768 0.0
H153 H 0.98406 0.20871 0.24038 0.0
H154 H 0.98974 0.27636 0.14376 0.0
H155 H 0.979 0.2815 0.08331 0.0
H156 H 0.92252 0.28297 0.94195 0.0
H157 H 0.91131 0.2762 0.89876 0.0
H158 H 0.91036 0.2171 0.06908 0.0
H159 H 0.92155 0.22338 0.10937 0.0
Nd160 Nd 0.69181 0.74982 0.81526 0.0
Nd161 Nd 0.70709 0.74841 0.80902 0.0
C162 C 0.67905 0.74902 0.80354 0.0
C163 C 0.67241 0.74488 0.7719 0.0
C164 C 0.67053 0.7236 0.73509 0.0
C165 C 0.66402 0.71973 0.71351 0.0
C166 C 0.65924 0.73696 0.72926 0.0
C167 C 0.66123 0.7584 0.76455 0.0
C168 C 0.66772 0.7623 0.78518 0.0
C169 C 0.69804 0.79068 0.85845 0.0
C170 C 0.69931 0.748 0.62807 0.0
C171 C 0.71942 0.76127 0.82041 0.0
C172 C 0.72568 0.75794 0.86619 0.0
C173 C 0.72697 0.77057 0.94108 0.0
C174 C 0.73319 0.77075 0.9763 0.0
C175 C 0.73833 0.75841 0.93765 0.0
C176 C 0.73696 0.74469 0.86555 0.0
C177 C 0.73072 0.74458 0.82993 0.0
C178 C 0.70238 0.70299 0.79511 0.0
C179 C 0.6993 0.74088 0.99352 0.0
O180 O 0.68244 0.73175 0.83565 0.0
O181 O 0.68254 0.76627 0.77377 0.0
O182 O 0.69298 0.78272 0.8971 0.0
O183 O 0.69964 0.77747 0.79704 0.0
O184 O 0.69403 0.74362 0.6733 0.0
O185 O 0.70485 0.75389 0.66515 0.0
O186 O 0.71467 0.77171 0.86085 0.0
O187 O 0.71741 0.74489 0.76856 0.0
O188 O 0.70849 0.70812 0.79606 0.0
O189 O 0.69914 0.72156 0.80406 0.0
O190 O 0.70474 0.74749 0.9552 0.0
O191 O 0.69394 0.73687 0.94992 0.0
H192 H 0.67406 0.70987 0.72412 0.0
H193 H 0.66274 0.70315 0.68495 0.0
H194 H 0.65775 0.772 0.77922 0.0
H195 H 0.66905 0.7788 0.81423 0.0
H196 H 0.72324 0.78114 0.97088 0.0
H197 H 0.73403 0.78121 1.03267 0.0
H198 H 0.7408 0.73506 0.83392 0.0
H199 H 0.72992 0.73482 0.77184 0.0
Nd200 Nd 0.0792 0.00081 0.82112 0.0
Nd201 Nd 0.06506 0.00275 0.81316 0.0
C202 C 0.09208 0.00134 0.81323 0.0
C203 C 0.09848 0.00445 0.77123 0.0
C204 C 0.10058 0.02627 0.74109 0.0
C205 C 0.10693 0.02909 0.71061 0.0
C206 C 0.11135 0.01021 0.70998 0.0
C207 C 0.10919 0.98837 0.7395 0.0
C208 C 0.10285 0.98556 0.76967 0.0
C209 C 0.0734 0.95906 0.86826 0.0
C210 C 0.0724 0.99873 0.63224 0.0
C211 C 0.05221 0.00107 0.82758 0.0
C212 C 0.04608 0.99821 0.87652 0.0
C213 C 0.0436 0.97601 0.89645 0.0
C214 C 0.03731 0.97359 0.92938 0.0
C215 C 0.03328 0.99326 0.94231 0.0
C216 C 0.03588 0.01551 0.92568 0.0
C217 C 0.04218 0.01793 0.89319 0.0
C218 C 0.07064 0.04425 0.76096 0.0
C219 C 0.07225 0.00885 0.9996 0.0
O220 O 0.08859 0.01958 0.83416 0.0
O221 O 0.0886 0.98301 0.79471 0.0
O222 O 0.07808 0.96909 0.90852 0.0
O223 O 0.07172 0.97132 0.80493 0.0
O224 O 0.07754 0.00421 0.6777 0.0
O225 O 0.06685 0.99371 0.67046 0.0
O226 O 0.05577 0.98286 0.8073 0.0
O227 O 0.05563 0.01996 0.83972 0.0
O228 O 0.06571 0.03431 0.72578 0.0
O229 O 0.07253 0.03253 0.82511 0.0
O230 O 0.067 0.00117 0.96026 0.0
O231 O 0.07745 0.01412 0.95529 0.0
H232 H 0.09737 0.04127 0.74253 0.0
H233 H 0.10842 0.04626 0.6894 0.0
H234 H 0.1124 0.97336 0.73907 0.0
H235 H 0.1014 0.9686 0.79357 0.0
H236 H 0.04645 0.96042 0.88411 0.0
H237 H 0.03557 0.95616 0.94303 0.0
H238 H 0.03296 0.0311 0.93373 0.0
H239 H 0.04389 0.03528 0.87745 0.0
Nd240 Nd 0.69266 0.00123 1.0157 0.0
Nd241 Nd 0.70685 0.0014 1.02647 0.0
C242 C 0.67982 0.00432 1.02362 0.0
C243 C 0.6734 0.00831 0.06442 0.0
C244 C 0.67044 0.03044 0.06153 0.0
C245 C 0.664 0.03343 0.08786 0.0
C246 C 0.66032 0.01437 0.1175 0.0
C247 C 0.66333 0.99228 0.12153 0.0
C248 C 0.66977 0.9893 0.09519 0.0
C249 C 0.69822 0.9582 0.97911 0.0
C250 C 0.69957 0.99476 0.20286 0.0
C251 C 0.71967 0.99619 1.01599 0.0
C252 C 0.72564 0.99938 0.96392 0.0
C253 C 0.72937 0.97982 0.94026 0.0
C254 C 0.73541 0.98254 0.90028 0.0
C255 C 0.7379 0.00496 0.88322 0.0
C256 C 0.73409 0.02452 0.90606 0.0
C257 C 0.72806 0.02178 0.94566 0.0
C258 C 0.70135 0.04399 0.06898 0.0
C259 C 0.70007 0.00483 0.83556 0.0
O260 O 0.68354 0.02197 1.00335 0.0
O261 O 0.68307 0.98534 0.04141 0.0
O262 O 0.6936 0.96771 0.93565 0.0
O263 O 0.69985 0.97141 1.04012 0.0
O264 O 0.69457 0.0043 0.16278 0.0
O265 O 0.70461 0.98733 0.15878 0.0
O266 O 0.71558 0.97979 0.99489 0.0
O267 O 0.71679 0.01478 0.04628 0.0
O268 O 0.70605 0.03415 0.10967 0.0
O269 O 0.69965 0.03158 1.00577 0.0
O270 O 0.70529 0.00028 0.88107 0.0
O271 O 0.69447 0.00913 0.8732 0.0
H272 H 0.67302 0.04536 1.03634 0.0
H273 H 0.66184 0.05063 0.08232 0.0
H274 H 0.6607 0.97723 0.14473 0.0
H275 H 0.67185 0.9719 0.09675 0.0
H276 H 0.72768 0.96233 0.95438 0.0
H277 H 0.73813 0.96704 0.88287 0.0
H278 H 0.73585 0.0421 0.89562 0.0
H279 H 0.72537 0.03729 0.9639 0.0
Nd280 Nd 0.08077 0.74791 1.02236 0.0
Nd281 Nd 0.06452 0.74758 1.01371 0.0
C282 C 0.09302 0.73376 1.02847 0.0
C283 C 0.09975 0.73889 0.05576 0.0
C284 C 0.10377 0.72034 0.081 0.0
C285 C 0.11038 0.72398 0.09687 0.0
C286 C 0.11313 0.74633 0.08767 0.0
C287 C 0.109 0.7651 0.06608 0.0
C288 C 0.10239 0.76142 0.05007 0.0
C289 C 0.07557 0.79272 1.01353 0.0
C290 C 0.07216 0.74961 0.20174 0.0
C291 C 0.05222 0.76093 1.00314 0.0
C292 C 0.04602 0.75892 0.95507 0.0
C293 C 0.04435 0.77602 0.89482 0.0
C294 C 0.03813 0.77679 0.85969 0.0
C295 C 0.03335 0.7606 0.88408 0.0
C296 C 0.03511 0.74266 0.94071 0.0
C297 C 0.04135 0.74191 0.97619 0.0
C298 C 0.0698 0.70299 1.02919 0.0
C299 C 0.07285 0.7428 0.83472 0.0
O300 O 0.08873 0.72833 0.08662 0.0
O301 O 0.09059 0.74612 0.966 0.0
O302 O 0.08175 0.78857 1.02162 0.0
O303 O 0.07264 0.77344 1.01591 0.0
O304 O 0.07792 0.74664 0.16503 0.0
O305 O 0.06668 0.7525 0.15813 0.0
O306 O 0.05702 0.77247 0.96827 0.0
O307 O 0.05416 0.74316 0.04905 0.0
O308 O 0.06363 0.70696 1.02073 0.0
O309 O 0.07269 0.72225 1.02179 0.0
O310 O 0.06713 0.74583 0.87154 0.0
O311 O 0.07839 0.74105 0.8782 0.0
H312 H 0.10185 0.70277 0.0855 0.0
H313 H 0.11337 0.70905 0.1126 0.0
H314 H 0.11089 0.78266 0.06005 0.0
H315 H 0.0994 0.77608 1.03114 0.0
H316 H 0.04778 0.78948 0.87721 0.0
H317 H 0.037 0.79063 0.81516 0.0
H318 H 0.03155 0.72995 0.96119 0.0
H319 H 0.04243 0.72857 1.02287 0.0
Nd320 Nd 0.31589 0.7515 0.77008 0.0
Nd321 Nd 0.33026 0.74905 0.76014 0.0
C322 C 0.30305 0.74806 0.75783 0.0
C323 C 0.29695 0.74952 0.70739 0.0
C324 C 0.29314 0.72944 0.69406 0.0
C325 C 0.28677 0.73133 0.66326 0.0
C326 C 0.28403 0.75338 0.64636 0.0
C327 C 0.28797 0.77328 0.65494 0.0
C328 C 0.29433 0.7714 0.68485 0.0
C329 C 0.32178 0.79294 0.81548 0.0
C330 C 0.32314 0.75787 0.58222 0.0
C331 C 0.34311 0.74971 0.76682 0.0
C332 C 0.34962 0.75322 0.80412 0.0
C333 C 0.3513 0.77358 0.84892 0.0
C334 C 0.35774 0.77748 0.87354 0.0
C335 C 0.36268 0.76124 0.85301 0.0
C336 C 0.3609 0.74058 0.81029 0.0
C337 C 0.35447 0.73664 0.78651 0.0
C338 C 0.32414 0.70816 0.71454 0.0
C339 C 0.32334 0.74768 0.94923 0.0
O340 O 0.30691 0.72998 0.75069 0.0
O341 O 0.30615 0.76743 0.77348 0.0
O342 O 0.31664 0.78463 0.85126 0.0
O343 O 0.32353 0.78026 0.75312 0.0
O344 O 0.31774 0.75182 0.62232 0.0
O345 O 0.32851 0.76154 0.62515 0.0
O346 O 0.33959 0.76784 0.74568 0.0
O347 O 0.33969 0.73139 0.78745 0.0
O348 O 0.32889 0.71738 0.67304 0.0
O349 O 0.32264 0.72041 0.77894 0.0
O350 O 0.32846 0.75344 0.90336 0.0
O351 O 0.31784 0.74195 0.91152 0.0
H352 H 0.29498 0.71236 0.71165 0.0
H353 H 0.28387 0.71567 0.65764 0.0
H354 H 0.28604 0.79051 0.64145 0.0
H355 H 0.29707 0.7873 0.69434 0.0
H356 H 0.34766 0.78669 0.86334 0.0
H357 H 0.35886 0.79338 0.90788 0.0
H358 H 0.36451 0.72777 0.7919 0.0
H359 H 0.35331 0.7209 0.75123 0.0
Nd360 Nd 0.9563 0.50162 0.77217 0.0
Nd361 Nd 0.94186 0.49923 0.76879 0.0
C362 C 0.96883 0.51158 0.75269 0.0
C363 C 0.97506 0.50491 0.71086 0.0
C364 C 0.97791 0.5198 0.6504 0.0
C365 C 0.98413 0.5152 0.61805 0.0
C366 C 0.9877 0.49562 0.64569 0.0
C367 C 0.98479 0.4806 0.70554 0.0
C368 C 0.97858 0.48515 0.73754 0.0
C369 C 0.95174 0.45718 0.806 0.0
C370 C 0.94915 0.49344 0.58661 0.0
C371 C 0.92926 0.48975 0.78371 0.0
C372 C 0.92273 0.49566 0.81775 0.0
C373 C 0.9193 0.47896 0.86529 0.0
C374 C 0.91281 0.48276 0.88843 0.0
C375 C 0.90955 0.50336 0.86417 0.0
C376 C 0.91305 0.5202 0.81748 0.0
C377 C 0.91953 0.51643 0.79474 0.0
C378 C 0.94657 0.54374 0.73758 0.0
C379 C 0.94921 0.50528 0.95499 0.0
O380 O 0.96426 0.52125 0.7072 0.0
O381 O 0.96653 0.49778 0.81143 0.0
O382 O 0.95702 0.46588 0.83622 0.0
O383 O 0.94933 0.47073 0.75043 0.0
O384 O 0.95444 0.50002 0.627 0.0
O385 O 0.94381 0.48829 0.62903 0.0
O386 O 0.93365 0.48105 0.83433 0.0
O387 O 0.93174 0.50312 0.725 0.0
O388 O 0.94152 0.53469 0.70247 0.0
O389 O 0.9488 0.53002 0.79375 0.0
O390 O 0.94392 0.49849 0.91472 0.0
O391 O 0.95443 0.51148 0.91207 0.0
H392 H 0.97537 0.53534 0.62933 0.0
H393 H 0.98614 0.52705 0.5714 0.0
H394 H 0.98739 0.46557 0.72985 0.0
H395 H 0.97661 0.47344 0.78499 0.0
H396 H 0.9216 0.46263 0.8829 0.0
H397 H 0.91035 0.46948 0.92523 0.0
H398 H 0.91072 0.53611 0.79605 0.0
H399 H 0.92198 0.52956 0.75704 0.0
Nd400 Nd 0.315 0.49562 0.56145 0.0
Nd401 Nd 0.32921 0.49801 0.57177 0.0
C402 C 0.30213 0.49628 0.57259 0.0
C403 C 0.29617 0.49953 0.62472 0.0
C404 C 0.29368 0.52193 0.64233 0.0
C405 C 0.28763 0.52462 0.68197 0.0
C406 C 0.28389 0.50501 0.70485 0.0
C407 C 0.28644 0.48262 0.68831 0.0
C408 C 0.29249 0.47994 0.64863 0.0
C409 C 0.32105 0.45431 0.51607 0.0
C410 C 0.32185 0.49476 0.75113 0.0
C411 C 0.34207 0.49679 0.56554 0.0
C412 C 0.34857 0.49408 0.52662 0.0
C413 C 0.35045 0.47373 0.4829 0.0
C414 C 0.35691 0.47054 0.45751 0.0
C415 C 0.36167 0.48746 0.47619 0.0
C416 C 0.35969 0.5082 0.51704 0.0
C417 C 0.35323 0.51144 0.54176 0.0
C418 C 0.32316 0.54017 0.60848 0.0
C419 C 0.32222 0.50247 0.38329 0.0
O420 O 0.30559 0.51451 0.55116 0.0
O421 O 0.30566 0.47766 0.58576 0.0
O422 O 0.31627 0.46363 0.47541 0.0
O423 O 0.32258 0.46668 0.57989 0.0
O424 O 0.31675 0.50104 0.70577 0.0
O425 O 0.3273 0.48873 0.71282 0.0
O426 O 0.3385 0.47839 0.58128 0.0
O427 O 0.33868 0.51561 0.55034 0.0
O428 O 0.3279 0.53145 0.65171 0.0
O429 O 0.32167 0.52664 0.54787 0.0
O430 O 0.32743 0.49504 0.42454 0.0
O431 O 0.31689 0.50788 0.42533 0.0
H432 H 0.29632 0.53742 0.62354 0.0
H433 H 0.2858 0.54216 0.69235 0.0
H434 H 0.28377 0.46709 0.70584 0.0
H435 H 0.29421 0.46243 0.63486 0.0
H436 H 0.34696 0.46006 0.47022 0.0
H437 H 0.35819 0.45455 0.4245 0.0
H438 H 0.36318 0.52155 0.53359 0.0
H439 H 0.35193 0.52722 0.57606 0.0
Nd440 Nd 0.95664 0.75561 0.56103 0.0
Nd441 Nd 0.94111 0.75417 0.55662 0.0
C442 C 0.96936 0.74809 0.5537 0.0
C443 C 0.97563 0.7525 0.59821 0.0
C444 C 0.97832 0.73568 0.65329 0.0
C445 C 0.98446 0.739 0.68971 0.0
C446 C 0.9881 0.7592 0.67183 0.0
C447 C 0.9854 0.77592 0.61643 0.0
C448 C 0.97927 0.77263 0.58023 0.0
C449 C 0.9505 0.79918 0.54718 0.0
C450 C 0.94911 0.75827 0.74138 0.0
C451 C 0.92875 0.76766 0.55414 0.0
C452 C 0.92205 0.76271 0.52565 0.0
C453 C 0.91749 0.78095 0.52597 0.0
C454 C 0.91098 0.77675 0.50621 0.0
C455 C 0.90884 0.7541 0.48526 0.0
C456 C 0.91349 0.73593 0.48252 0.0
C457 C 0.92001 0.74017 0.50278 0.0
C458 C 0.94594 0.70916 0.57707 0.0
C459 C 0.94899 0.74788 0.37542 0.0
O460 O 0.96527 0.73344 0.58815 0.0
O461 O 0.96646 0.76575 0.51681 0.0
O462 O 0.95568 0.79531 0.59232 0.0
O463 O 0.94881 0.77989 0.51526 0.0
O464 O 0.95443 0.75188 0.70107 0.0
O465 O 0.94372 0.7638 0.69913 0.0
O466 O 0.93301 0.77419 0.49741 0.0
O467 O 0.93124 0.75426 0.61294 0.0
O468 O 0.93984 0.71379 0.56528 0.0
O469 O 0.9491 0.7279 0.57023 0.0
O470 O 0.94322 0.75096 0.41165 0.0
O471 O 0.95441 0.74653 0.42081 0.0
H472 H 0.97571 0.71977 0.66761 0.0
H473 H 0.98633 0.72579 0.7324 0.0
H474 H 0.98807 0.79148 0.59936 0.0
H475 H 0.97745 0.78575 0.53684 0.0
H476 H 0.91894 0.79849 0.54373 0.0
H477 H 0.9076 0.7912 0.51032 0.0
H478 H 0.9121 0.71833 0.46514 0.0
H479 H 0.92344 0.72579 0.50178 0.0
Nd480 Nd 0.69261 0.24904 0.31416 0.0
Nd481 Nd 0.70688 0.24827 0.30336 0.0
C482 C 0.67978 0.24677 0.30705 0.0
C483 C 0.67322 0.24386 0.27064 0.0
C484 C 0.67173 0.22626 0.21168 0.0
C485 C 0.66531 0.22301 0.18477 0.0
C486 C 0.66023 0.23711 0.21699 0.0
C487 C 0.66182 0.25508 0.27446 0.0
C488 C 0.66823 0.25842 0.3006 0.0
C489 C 0.69831 0.29177 0.35035 0.0
C490 C 0.69963 0.25548 0.1273 0.0
C491 C 0.71966 0.25415 0.31582 0.0
C492 C 0.72566 0.24957 0.36561 0.0
C493 C 0.72892 0.26815 0.40563 0.0
C494 C 0.73498 0.26469 0.4439 0.0
C495 C 0.73798 0.24254 0.44282 0.0
C496 C 0.73467 0.22392 0.40353 0.0
C497 C 0.72861 0.22737 0.36559 0.0
C498 C 0.70141 0.20607 0.25942 0.0
C499 C 0.69999 0.24433 0.49423 0.0
O500 O 0.68347 0.22853 0.32113 0.0
O501 O 0.68302 0.26592 0.29251 0.0
O502 O 0.6937 0.28248 0.39452 0.0
O503 O 0.69989 0.27842 0.28933 0.0
O504 O 0.69457 0.24631 0.16707 0.0
O505 O 0.70464 0.26275 0.1718 0.0
O506 O 0.71543 0.2692 0.34519 0.0
O507 O 0.71693 0.23666 0.2763 0.0
O508 O 0.7063 0.21541 0.22108 0.0
O509 O 0.69958 0.21843 0.32239 0.0
O510 O 0.70526 0.24792 0.44841 0.0
O511 O 0.69433 0.24117 0.45698 0.0
H512 H 0.6755 0.21485 0.18736 0.0
H513 H 0.66434 0.20929 0.13913 0.0
H514 H 0.6581 0.26611 0.30193 0.0
H515 H 0.66926 0.27204 0.34657 0.0
H516 H 0.72683 0.28555 0.40578 0.0
H517 H 0.73732 0.27942 0.47422 0.0
H518 H 0.73683 0.20669 0.39973 0.0
H519 H 0.72632 0.21269 0.33428 0.0
Nd520 Nd 0.07892 0.50205 0.32143 0.0
Nd521 Nd 0.0648 0.50268 0.31209 0.0
C522 C 0.09178 0.50492 0.31361 0.0
C523 C 0.09828 0.50509 0.27241 0.0
C524 C 0.10257 0.52365 0.28833 0.0
C525 C 0.10915 0.52191 0.26596 0.0
C526 C 0.1116 0.50141 0.22802 0.0
C527 C 0.10723 0.48341 0.20777 0.0
C528 C 0.10066 0.48521 0.22958 0.0
C529 C 0.07337 0.45898 0.35802 0.0
C530 C 0.07199 0.496 0.13308 0.0
C531 C 0.05195 0.50115 0.323 0.0
C532 C 0.04582 0.49899 0.37186 0.0
C533 C 0.04463 0.48044 0.42808 0.0
C534 C 0.03849 0.47775 0.46547 0.0
C535 C 0.03338 0.49339 0.4469 0.0
C536 C 0.0347 0.51237 0.39275 0.0
C537 C 0.04083 0.51511 0.35596 0.0
C538 C 0.07028 0.54451 0.26213 0.0
C539 C 0.07165 0.50552 0.50128 0.0
O540 O 0.08806 0.52346 0.31516 0.0
O541 O 0.08854 0.48538 0.31491 0.0
O542 O 0.0779 0.46869 0.40221 0.0
O543 O 0.07173 0.47218 0.29714 0.0
O544 O 0.07716 0.50359 0.1743 0.0
O545 O 0.06668 0.49035 0.17511 0.0
O546 O 0.05556 0.48267 0.30942 0.0
O547 O 0.0553 0.52032 0.33106 0.0
O548 O 0.06559 0.53394 0.22384 0.0
O549 O 0.07207 0.53302 0.32729 0.0
O550 O 0.06664 0.49814 0.45672 0.0
O551 O 0.07698 0.51223 0.46185 0.0
H552 H 0.10091 0.53906 0.3222 0.0
H553 H 0.11237 0.53607 0.28282 0.0
H554 H 0.10893 0.46753 0.1773 0.0
H555 H 0.09753 0.47051 0.21639 0.0
H556 H 0.04839 0.46779 0.44184 0.0
H557 H 0.03773 0.46318 0.50818 0.0
H558 H 0.03092 0.52466 0.37572 0.0
H559 H 0.04161 0.5295 0.31244 0.0
Nd560 Nd 0.69269 0.50237 0.51573 0.0
Nd561 Nd 0.7069 0.5023 0.52612 0.0
C562 C 0.67989 0.5048 0.5226 0.0
C563 C 0.67327 0.50822 0.55627 0.0
C564 C 0.67197 0.52155 0.62921 0.0
C565 C 0.66556 0.5245 0.65751 0.0
C566 C 0.66033 0.5143 0.61306 0.0
C567 C 0.66174 0.5008 0.5404 0.0
C568 C 0.66812 0.49776 0.51271 0.0
C569 C 0.69821 0.4601 0.46927 0.0
C570 C 0.69963 0.49453 0.70235 0.0
C571 C 0.7197 0.49689 0.51442 0.0
C572 C 0.7256 0.49933 0.46054 0.0
C573 C 0.72945 0.47962 0.44258 0.0
C574 C 0.73545 0.48194 0.40122 0.0
C575 C 0.73777 0.5041 0.37705 0.0
C576 C 0.73383 0.52376 0.39405 0.0
C577 C 0.72784 0.52142 0.43496 0.0
C578 C 0.70154 0.54411 0.57924 0.0
C579 C 0.70013 0.5075 0.33552 0.0
O580 O 0.68353 0.52281 0.50429 0.0
O581 O 0.68315 0.48605 0.54303 0.0
O582 O 0.69359 0.47033 0.42845 0.0
O583 O 0.69988 0.47205 0.53345 0.0
O584 O 0.69457 0.50391 0.66308 0.0
O585 O 0.70468 0.48754 0.6575 0.0
O586 O 0.7156 0.48015 0.49772 0.0
O587 O 0.71685 0.51594 0.54109 0.0
O588 O 0.70629 0.53348 0.61631 0.0
O589 O 0.69968 0.53295 0.51359 0.0
O590 O 0.70536 0.50327 0.38113 0.0
O591 O 0.69448 0.51101 0.37325 0.0
H592 H 0.67588 0.52965 0.6641 0.0
H593 H 0.66471 0.5347 0.71453 0.0
H594 H 0.6579 0.49296 0.5034 0.0
H595 H 0.66903 0.48739 0.45616 0.0
H596 H 0.72789 0.46239 0.46235 0.0
H597 H 0.73827 0.46634 0.38844 0.0
H598 H 0.73546 0.54119 0.37808 0.0
H599 H 0.72505 0.53706 0.44859 0.0
Nd600 Nd 0.08043 0.24922 0.52838 0.0
Nd601 Nd 0.06429 0.24882 0.52156 0.0
C602 C 0.09265 0.235 0.53951 0.0
C603 C 0.09953 0.2409 0.55723 0.0
C604 C 0.10256 0.23192 0.63031 0.0
C605 C 0.10928 0.23381 0.64115 0.0
C606 C 0.11314 0.24453 0.5787 0.0
C607 C 0.11005 0.25454 0.5077 0.0
C608 C 0.10334 0.2527 0.49697 0.0
C609 C 0.07529 0.29407 0.51369 0.0
C610 C 0.07187 0.25184 0.7083 0.0
C611 C 0.05202 0.26208 0.50832 0.0
C612 C 0.04573 0.2558 0.46859 0.0
C613 C 0.04257 0.27205 0.41606 0.0
C614 C 0.03642 0.26727 0.38257 0.0
C615 C 0.03325 0.24611 0.40105 0.0
C616 C 0.03646 0.22977 0.45322 0.0
C617 C 0.04261 0.23452 0.48645 0.0
C618 C 0.06949 0.20402 0.53842 0.0
C619 C 0.07256 0.24371 0.34163 0.0
O620 O 0.08856 0.23418 0.60326 0.0
O621 O 0.09001 0.24251 0.46889 0.0
O622 O 0.08148 0.28981 0.51791 0.0
O623 O 0.07236 0.27491 0.52191 0.0
O624 O 0.07758 0.24809 0.67149 0.0
O625 O 0.06645 0.25538 0.66436 0.0
O626 O 0.05662 0.26994 0.45847 0.0
O627 O 0.05421 0.24875 0.5697 0.0
O628 O 0.06332 0.20816 0.53063 0.0
O629 O 0.07241 0.2232 0.53048 0.0
O630 O 0.06689 0.24674 0.37985 0.0
O631 O 0.07814 0.2422 0.38398 0.0
H632 H 0.09977 0.2225 0.67747 0.0
H633 H 0.11148 0.22577 0.69631 0.0
H634 H 0.11286 0.2633 0.45904 0.0
H635 H 0.10119 0.2598 0.4398 0.0
H636 H 0.04483 0.28864 0.40158 0.0
H637 H 0.03418 0.28017 0.34178 0.0
H638 H 0.03417 0.21342 0.47014 0.0
H639 H 0.04488 0.22164 0.52716 0.0
Nd640 Nd 0.81522 0.25333 0.76911 0.0
Nd641 Nd 0.8307 0.25181 0.76616 0.0
C642 C 0.80246 0.25144 0.75261 0.0
C643 C 0.79628 0.24786 0.70631 0.0
C644 C 0.7944 0.22594 0.67474 0.0
C645 C 0.78815 0.22269 0.64177 0.0
C646 C 0.7836 0.24119 0.64052 0.0
C647 C 0.78562 0.2633 0.66935 0.0
C648 C 0.79187 0.26655 0.70168 0.0
C649 C 0.82135 0.29406 0.81583 0.0
C650 C 0.82304 0.2564 0.5849 0.0
C651 C 0.84307 0.26421 0.77386 0.0
C652 C 0.84974 0.25796 0.80133 0.0
C653 C 0.85317 0.27332 0.85459 0.0
C654 C 0.85966 0.26898 0.8756 0.0
C655 C 0.86292 0.24916 0.84359 0.0
C656 C 0.85945 0.23374 0.79057 0.0
C657 C 0.85296 0.23805 0.76982 0.0
C658 C 0.8258 0.20655 0.75234 0.0
C659 C 0.82285 0.24895 0.95089 0.0
O660 O 0.80595 0.23352 0.77822 0.0
O661 O 0.8059 0.27002 0.73493 0.0
O662 O 0.81593 0.28691 0.84757 0.0
O663 O 0.8232 0.28072 0.7558 0.0
O664 O 0.81756 0.25064 0.62381 0.0
O665 O 0.82837 0.26113 0.6281 0.0
O666 O 0.83881 0.26974 0.83247 0.0
O667 O 0.84053 0.2529 0.70953 0.0
O668 O 0.83193 0.21127 0.7561 0.0
O669 O 0.82269 0.22537 0.76014 0.0
O670 O 0.82821 0.25348 0.90788 0.0
O671 O 0.81727 0.2445 0.9118 0.0
H672 H 0.79769 0.21118 0.67735 0.0
H673 H 0.78685 0.2055 0.61854 0.0
H674 H 0.78229 0.27795 0.67067 0.0
H675 H 0.79316 0.28361 0.72637 0.0
H676 H 0.85084 0.28894 0.87915 0.0
H677 H 0.86211 0.28113 0.91738 0.0
H678 H 0.86178 0.21849 0.76332 0.0
H679 H 0.85049 0.22598 0.72788 0.0
Nd680 Nd 0.4569 0.99363 0.76783 0.0
Nd681 Nd 0.44148 0.99562 0.76728 0.0
C682 C 0.46967 0.99619 0.7517 0.0
C683 C 0.47582 0.99686 0.70182 0.0
C684 C 0.47912 0.01802 0.68733 0.0
C685 C 0.48554 0.01795 0.65723 0.0
C686 C 0.48881 0.99672 0.64248 0.0
C687 C 0.4854 0.97571 0.65244 0.0
C688 C 0.47899 0.97576 0.68136 0.0
C689 C 0.45067 0.95343 0.8168 0.0
C690 C 0.44925 0.99129 0.58277 0.0
C691 C 0.42917 0.98242 0.7736 0.0
C692 C 0.42255 0.98727 0.80597 0.0
C693 C 0.41845 0.9684 0.82412 0.0
C694 C 0.41204 0.9722 0.85052 0.0
C695 C 0.40958 0.99503 0.85952 0.0
C696 C 0.41373 0.01396 0.84142 0.0
C697 C 0.42015 0.01012 0.81498 0.0
C698 C 0.44636 0.04074 0.75596 0.0
C699 C 0.44956 0.00092 0.94982 0.0
O700 O 0.46601 0.01485 0.76059 0.0
O701 O 0.4664 0.97665 0.75241 0.0
O702 O 0.45597 0.96101 0.85062 0.0
O703 O 0.44889 0.96641 0.75562 0.0
O704 O 0.45476 0.99338 0.62464 0.0
O705 O 0.44357 0.99009 0.6225 0.0
O706 O 0.43354 0.97519 0.82772 0.0
O707 O 0.43153 0.99627 0.71506 0.0
O708 O 0.44022 0.03608 0.76269 0.0
O709 O 0.44952 0.02194 0.76152 0.0
O710 O 0.44399 0.99556 0.91228 0.0
O711 O 0.45491 0.00509 0.90556 0.0
H712 H 0.47686 0.03456 0.70344 0.0
H713 H 0.48808 0.0344 0.65076 0.0
H714 H 0.4878 0.95909 0.64155 0.0
H715 H 0.47666 0.95908 0.6924 0.0
H716 H 0.42019 0.9506 0.81726 0.0
H717 H 0.40905 0.95719 0.8649 0.0
H718 H 0.41201 0.0318 0.84645 0.0
H719 H 0.4232 0.025 0.80084 0.0
Nd720 Nd 0.8153 0.99608 0.55736 0.0
Nd721 Nd 0.8295 0.99816 0.56543 0.0
C722 C 0.80245 0.99633 0.57165 0.0
C723 C 0.79635 -2e-05 0.62063 0.0
C724 C 0.79401 0.02248 0.63985 0.0
C725 C 0.78773 0.02559 0.67229 0.0
C726 C 0.7836 0.00633 0.6856 0.0
C727 C 0.78608 0.98377 0.67044 0.0
C728 C 0.79236 0.98067 0.63823 0.0
C729 C 0.8212 0.95507 0.50511 0.0
C730 C 0.82227 0.99471 0.74602 0.0
C731 C 0.84234 0.99685 0.55641 0.0
C732 C 0.84893 0.99335 0.52097 0.0
C733 C 0.851 0.97178 0.48776 0.0
C734 C 0.85753 0.96821 0.46603 0.0
C735 C 0.86216 0.98603 0.47797 0.0
C736 C 0.85999 0.00787 0.50825 0.0
C737 C 0.85347 0.01145 0.5293 0.0
C738 C 0.82366 0.04031 0.6085 0.0
C739 C 0.82238 0.00324 0.37825 0.0
O740 O 0.8058 0.01434 0.54528 0.0
O741 O 0.80607 0.97823 0.58953 0.0
O742 O 0.81626 0.96452 0.46839 0.0
O743 O 0.82289 0.96676 0.56993 0.0
O744 O 0.81717 0.00129 0.70151 0.0
O745 O 0.82768 0.98859 0.70667 0.0
O746 O 0.83881 0.97892 0.57922 0.0
O747 O 0.83893 0.01517 0.535 0.0
O748 O 0.82847 0.03095 0.64851 0.0
O749 O 0.82197 0.0274 0.54683 0.0
O750 O 0.82758 0.99553 0.41876 0.0
O751 O 0.81708 0.00878 0.42098 0.0
H752 H 0.79694 0.03776 0.62705 0.0
H753 H 0.78606 0.04322 0.68488 0.0
H754 H 0.78306 0.96851 0.6791 0.0
H755 H 0.79399 0.96311 0.62325 0.0
H756 H 0.84761 0.95749 0.48055 0.0
H757 H 0.85896 0.9513 0.44114 0.0
H758 H 0.86337 0.02198 0.51946 0.0
H759 H 0.85202 0.0282 0.55557 0.0
Nd760 Nd 0.45647 0.24801 0.55447 0.0
Nd761 Nd 0.4422 0.24923 0.55842 0.0
C762 C 0.46902 0.23872 0.57566 0.0
C763 C 0.47521 0.24509 0.61862 0.0
C764 C 0.4777 0.2312 0.68473 0.0
C765 C 0.48391 0.2354 0.71804 0.0
C766 C 0.4878 0.25354 0.68573 0.0
C767 C 0.48525 0.2675 0.61998 0.0
C768 C 0.47906 0.26338 0.58709 0.0
C769 C 0.45177 0.29153 0.50928 0.0
C770 C 0.44911 0.25581 0.74184 0.0
C771 C 0.42964 0.25439 0.53221 0.0
C772 C 0.4226 0.25743 0.51737 0.0
C773 C 0.42017 0.27905 0.49007 0.0
C774 C 0.41356 0.28197 0.47359 0.0
C775 C 0.40914 0.26348 0.48575 0.0
C776 C 0.41162 0.24172 0.51271 0.0
C777 C 0.41827 0.23871 0.52768 0.0
C778 C 0.44735 0.20614 0.60032 0.0
C779 C 0.44966 0.24383 0.37345 0.0
O780 O 0.46445 0.22843 0.61924 0.0
O781 O 0.46674 0.25298 0.51835 0.0
O782 O 0.45692 0.28171 0.4786 0.0
O783 O 0.4494 0.27918 0.56898 0.0
O784 O 0.45457 0.2531 0.69871 0.0
O785 O 0.44345 0.25641 0.70251 0.0
O786 O 0.43331 0.27141 0.55984 0.0
O787 O 0.43265 0.23455 0.51961 0.0
O788 O 0.44259 0.21616 0.64001 0.0
O789 O 0.44928 0.21873 0.53899 0.0
O790 O 0.44458 0.2525 0.4138 0.0
O791 O 0.45467 0.2361 0.41706 0.0
H792 H 0.47491 0.21673 0.70961 0.0
H793 H 0.48565 0.22439 0.76908 0.0
H794 H 0.48811 0.28132 0.59181 0.0
H795 H 0.47739 0.27419 0.5351 0.0
H796 H 0.4234 0.29367 0.48008 0.0
H797 H 0.41194 0.2988 0.45048 0.0
H798 H 0.40842 0.22708 0.52385 0.0
H799 H 0.42003 0.22179 0.54847 0.0
Nd800 Nd 0.19273 0.75016 0.3164 0.0
Nd801 Nd 0.20708 0.74699 0.31133 0.0
C802 C 0.17986 0.74888 0.30546 0.0
C803 C 0.17346 0.74821 0.26167 0.0
C804 C 0.16954 0.72811 0.26483 0.0
C805 C 0.16313 0.72865 0.23486 0.0
C806 C 0.16044 0.74938 0.20154 0.0
C807 C 0.1644 0.76939 0.19832 0.0
C808 C 0.17079 0.76879 0.22753 0.0
C809 C 0.19883 0.79144 0.3628 0.0
C810 C 0.2002 0.75383 0.12969 0.0
C811 C 0.21992 0.7483 0.32482 0.0
C812 C 0.22593 0.75051 0.37643 0.0
C813 C 0.22821 0.77239 0.40394 0.0
C814 C 0.23428 0.77442 0.44309 0.0
C815 C 0.23827 0.75465 0.45566 0.0
C816 C 0.23594 0.73274 0.42889 0.0
C817 C 0.22987 0.73073 0.3897 0.0
C818 C 0.20121 0.70646 0.25604 0.0
C819 C 0.19979 0.74327 0.49827 0.0
O820 O 0.18338 0.73001 0.31571 0.0
O821 O 0.18333 0.76787 0.29971 0.0
O822 O 0.19372 0.78302 0.39901 0.0
O823 O 0.20052 0.7785 0.30112 0.0
O824 O 0.19472 0.74881 0.1697 0.0
O825 O 0.20556 0.75781 0.17284 0.0
O826 O 0.21636 0.7668 0.30953 0.0
O827 O 0.21651 0.7292 0.33184 0.0
O828 O 0.20627 0.71599 0.22242 0.0
O829 O 0.1993 0.71813 0.32067 0.0
O830 O 0.20517 0.74771 0.45584 0.0
O831 O 0.19422 0.74063 0.45818 0.0
H832 H 0.17139 0.71209 0.29237 0.0
H833 H 0.16027 0.71282 0.23802 0.0
H834 H 0.16252 0.78589 0.17544 0.0
H835 H 0.17357 0.78482 0.22589 0.0
H836 H 0.22537 0.78806 0.39347 0.0
H837 H 0.23591 0.79167 0.46142 0.0
H838 H 0.2388 0.71707 0.4382 0.0
H839 H 0.22832 0.71366 0.36801 0.0
Nd840 Nd 0.5805 0.99826 0.31642 0.0
Nd841 Nd 0.56532 0.0006 0.31068 0.0
C842 C 0.59328 0.9984 0.30441 0.0
C843 C 0.59986 0.00294 0.27064 0.0
C844 C 0.60196 0.02552 0.24935 0.0
C845 C 0.60849 0.02961 0.22927 0.0
C846 C 0.61309 0.01127 0.231 0.0
C847 C 0.61088 0.98857 0.24936 0.0
C848 C 0.60436 0.98449 0.26877 0.0
C849 C 0.5741 0.95765 0.3598 0.0
C850 C 0.57311 0.00047 0.12941 0.0
C851 C 0.55294 0.9881 0.32028 0.0
C852 C 0.54673 0.99079 0.36762 0.0
C853 C 0.54434 0.97165 0.41367 0.0
C854 C 0.5383 0.97274 0.454 0.0
C855 C 0.53444 0.99305 0.44987 0.0
C856 C 0.53681 0.01225 0.40326 0.0
C857 C 0.54288 0.01114 0.36252 0.0
C858 C 0.57014 0.04589 0.29366 0.0
C859 C 0.57304 0.00802 0.4949 0.0
O860 O 0.58994 0.01538 0.33987 0.0
O861 O 0.58971 0.98169 0.27232 0.0
O862 O 0.57915 0.96549 0.39858 0.0
O863 O 0.57258 0.9709 0.29839 0.0
O864 O 0.57839 0.0045 0.17469 0.0
O865 O 0.56753 0.99504 0.16657 0.0
O866 O 0.55765 0.97681 0.35798 0.0
O867 O 0.55501 0.00532 0.27279 0.0
O868 O 0.56403 0.04073 0.29523 0.0
O869 O 0.57336 0.02731 0.30399 0.0
O870 O 0.56756 0.0018 0.45699 0.0
O871 O 0.57841 0.01161 0.45072 0.0
H872 H 0.59861 0.0401 0.25028 0.0
H873 H 0.60995 0.04726 0.21373 0.0
H874 H 0.61423 0.97402 0.25252 0.0
H875 H 0.60288 0.96695 0.28585 0.0
H876 H 0.5471 0.95556 0.41737 0.0
H877 H 0.53662 0.95735 0.4873 0.0
H878 H 0.534 0.02822 0.3989 0.0
H879 H 0.54454 0.02613 0.32665 0.0
Nd880 Nd 0.19174 0.00325 0.51994 0.0
Nd881 Nd 0.20696 0.00244 0.52016 0.0
C882 C 0.17915 0.00757 0.54534 0.0
C883 C 0.17206 0.00974 0.55997 0.0
C884 C 0.16883 0.03084 0.5431 0.0
C885 C 0.16211 0.03271 0.55409 0.0
C886 C 0.15841 0.01345 0.58142 0.0
C887 C 0.16168 0.99242 0.59988 0.0
C888 C 0.16841 0.99061 0.58943 0.0
C889 C 0.19728 0.96073 0.47689 0.0
C890 C 0.19944 0.0024 0.70357 0.0
C891 C 0.2192 0.98855 0.50482 0.0
C892 C 0.22578 0.99475 0.47268 0.0
C893 C 0.22821 0.98451 0.39751 0.0
C894 C 0.23472 0.98734 0.37366 0.0
C895 C 0.23899 0.00029 0.42487 0.0
C896 C 0.23647 0.01144 0.49782 0.0
C897 C 0.22998 0.00864 0.52156 0.0
C898 C 0.20283 0.04861 0.53636 0.0
C899 C 0.19886 0.00937 0.338 0.0
O900 O 0.18253 0.0233 0.50399 0.0
O901 O 0.18251 0.98974 0.57345 0.0
O902 O 0.1921 0.96934 0.44272 0.0
O903 O 0.19932 0.97424 0.53512 0.0
O904 O 0.19427 0.00876 0.66 0.0
O905 O 0.20487 0.99606 0.66447 0.0
O906 O 0.2147 0.98341 0.44939 0.0
O907 O 0.21693 0.99968 0.57151 0.0
O908 O 0.20886 0.04245 0.53139 0.0
O909 O 0.19935 0.03066 0.52897 0.0
O910 O 0.20432 0.00255 0.37516 0.0
O911 O 0.19363 0.0146 0.3831 0.0
H912 H 0.17149 0.04597 0.52112 0.0
H913 H 0.15983 0.04938 0.54108 0.0
H914 H 0.15902 0.97712 0.62026 0.0
H915 H 0.17076 0.97407 0.60294 0.0
H916 H 0.22513 0.97352 0.35872 0.0
H917 H 0.23647 0.9784 0.31735 0.0
H918 H 0.23957 0.02193 0.53802 0.0
H919 H 0.22831 0.01677 0.57992 0.0
Nd920 Nd 0.57984 0.749 0.51313 0.0
Nd921 Nd 0.56476 0.74542 0.51641 0.0
C922 C 0.59262 0.74909 0.52178 0.0
C923 C 0.59919 0.74555 0.55608 0.0
C924 C 0.60055 0.72925 0.6201 0.0
C925 C 0.60696 0.72569 0.64704 0.0
C926 C 0.61214 0.7382 0.60985 0.0
C927 C 0.61067 0.75474 0.54652 0.0
C928 C 0.60429 0.7584 0.52038 0.0
C929 C 0.57331 0.78966 0.47093 0.0
C930 C 0.5724 0.74887 0.69935 0.0
C931 C 0.55229 0.7567 0.50618 0.0
C932 C 0.54612 0.75281 0.4594 0.0
C933 C 0.54527 0.7612 0.37613 0.0
C934 C 0.53915 0.7611 0.33806 0.0
C935 C 0.53369 0.75266 0.3821 0.0
C936 C 0.53461 0.74301 0.46344 0.0
C937 C 0.54074 0.74321 0.50176 0.0
C938 C 0.56983 0.70058 0.53667 0.0
C939 C 0.57265 0.74037 0.33253 0.0
O940 O 0.58929 0.73112 0.49444 0.0
O941 O 0.58905 0.76646 0.54943 0.0
O942 O 0.57836 0.78173 0.43148 0.0
O943 O 0.57176 0.77595 0.53109 0.0
O944 O 0.57782 0.74552 0.65601 0.0
O945 O 0.56675 0.75176 0.6606 0.0
O946 O 0.55693 0.76806 0.46722 0.0
O947 O 0.55448 0.74018 0.55608 0.0
O948 O 0.56371 0.70511 0.52842 0.0
O949 O 0.57298 0.71928 0.52636 0.0
O950 O 0.56706 0.74527 0.37057 0.0
O951 O 0.578 0.73681 0.37679 0.0
H952 H 0.59668 0.7192 0.64868 0.0
H953 H 0.60785 0.71309 0.69698 0.0
H954 H 0.61447 0.76445 0.51499 0.0
H955 H 0.60334 0.771 0.47053 0.0
H956 H 0.54929 0.76869 0.34127 0.0
H957 H 0.53866 0.76829 0.27473 0.0
H958 H 0.53052 0.73646 0.49939 0.0
H959 H 0.54122 0.73676 0.56616 0.0
Nd960 Nd 0.81514 0.7499 0.26785 0.0
Nd961 Nd 0.82962 0.75399 0.25927 0.0
C962 C 0.80258 0.74004 0.25115 0.0
C963 C 0.79634 0.74641 0.20928 0.0
C964 C 0.79396 0.73315 0.14069 0.0
C965 C 0.78776 0.73747 0.10722 0.0
C966 C 0.78377 0.75512 0.14173 0.0
C967 C 0.7862 0.76839 0.21017 0.0
C968 C 0.79237 0.76412 0.24333 0.0
C969 C 0.8196 0.79458 0.2993 0.0
C970 C 0.82211 0.75509 0.07934 0.0
C971 C 0.84211 0.76538 0.27348 0.0
C972 C 0.84858 0.76025 0.31077 0.0
C973 C 0.85232 0.77871 0.34306 0.0
C974 C 0.85875 0.77503 0.36882 0.0
C975 C 0.86163 0.75272 0.36284 0.0
C976 C 0.85781 0.73414 0.3319 0.0
C977 C 0.85138 0.73785 0.30623 0.0
C978 C 0.8252 0.70876 0.23406 0.0
C979 C 0.82252 0.74489 0.4456 0.0
O980 O 0.80713 0.7301 0.20576 0.0
O981 O 0.80491 0.75418 0.3087 0.0
O982 O 0.81473 0.785 0.33704 0.0
O983 O 0.8218 0.78127 0.24122 0.0
O984 O 0.81712 0.7478 0.12444 0.0
O985 O 0.82738 0.7629 0.1178 0.0
O986 O 0.83757 0.77448 0.32136 0.0
O987 O 0.83982 0.75086 0.217 0.0
O988 O 0.83037 0.71722 0.19962 0.0
O989 O 0.82294 0.72294 0.28833 0.0
O990 O 0.82752 0.7546 0.40626 0.0
O991 O 0.81761 0.73668 0.40099 0.0
H992 H 0.79684 0.71911 0.11372 0.0
H993 H 0.78611 0.72699 0.05416 0.0
H994 H 0.78325 0.7818 0.24 0.0
H995 H 0.79397 0.77441 0.29722 0.0
H996 H 0.85031 0.79621 0.34654 0.0
H997 H 0.86146 0.78972 0.39337 0.0
H998 H 0.85984 0.71676 0.32508 0.0
H999 H 0.84866 0.72326 0.28084 0.0
Nd1000 Nd 0.45717 0.49594 0.26341 0.0
Nd1001 Nd 0.441 0.49628 0.27091 0.0
C1002 C 0.46943 0.50952 0.25426 0.0
C1003 C 0.47568 0.50729 0.20722 0.0
C1004 C 0.47729 0.52369 0.14424 0.0
C1005 C 0.48353 0.52428 0.10923 0.0
C1006 C 0.48836 0.50861 0.13653 0.0
C1007 C 0.48666 0.49137 0.19626 0.0
C1008 C 0.4804 0.49081 0.23157 0.0
C1009 C 0.45211 0.45109 0.27863 0.0
C1010 C 0.44884 0.49312 0.0835 0.0
C1011 C 0.42872 0.48284 0.27451 0.0
C1012 C 0.42212 0.4862 0.31122 0.0
C1013 C 0.42021 0.4736 0.38367 0.0
C1014 C 0.41373 0.47325 0.40954 0.0
C1015 C 0.40894 0.48532 0.36337 0.0
C1016 C 0.4109 0.49904 0.29377 0.0
C1017 C 0.41741 0.49937 0.26774 0.0
C1018 C 0.44609 0.54119 0.2625 0.0
C1019 C 0.4492 0.50036 0.45053 0.0
O1020 O 0.46464 0.52062 0.21727 0.0
O1021 O 0.46748 0.49203 0.30153 0.0
O1022 O 0.45825 0.45548 0.26984 0.0
O1023 O 0.44907 0.47018 0.27134 0.0
O1024 O 0.45461 0.49553 0.11973 0.0
O1025 O 0.44337 0.49092 0.12776 0.0
O1026 O 0.43324 0.47361 0.32243 0.0
O1027 O 0.43095 0.49847 0.22119 0.0
O1028 O 0.43994 0.53692 0.27099 0.0
O1029 O 0.44907 0.52192 0.26469 0.0
O1030 O 0.44353 0.49717 0.41267 0.0
O1031 O 0.45479 0.50227 0.40806 0.0
H1032 H 0.47381 0.53674 0.12413 0.0
H1033 H 0.48462 0.53753 0.06223 0.0
H1034 H 0.49026 0.47909 0.21903 0.0
H1035 H 0.47935 0.47804 0.28043 0.0
H1036 H 0.42368 0.46315 0.41857 0.0
H1037 H 0.41243 0.46285 0.46443 0.0
H1038 H 0.40735 0.50848 0.2565 0.0
H1039 H 0.41869 0.50911 0.21115 0.0
Nd1040 Nd 0.81563 0.49776 0.06939 0.0
Nd1041 Nd 0.82996 0.49605 0.07128 0.0
C1042 C 0.80285 0.50168 0.08492 0.0
C1043 C 0.79666 0.50439 0.13254 0.0
C1044 C 0.79389 0.52656 0.14552 0.0
C1045 C 0.78749 0.52878 0.17466 0.0
C1046 C 0.78366 0.50888 0.1906 0.0
C1047 C 0.78656 0.48671 0.18194 0.0
C1048 C 0.79296 0.4845 0.15309 0.0
C1049 C 0.82066 0.45477 1.02294 0.0
C1050 C 0.82282 0.49193 0.25318 0.0
C1051 C 0.84251 0.48582 0.0534 0.0
C1052 C 0.84911 0.4929 1.02552 0.0
C1053 C 0.85241 0.47962 0.96367 0.0
C1054 C 0.85893 0.48405 0.94441 0.0
C1055 C 0.86235 0.50183 0.98696 0.0
C1056 C 0.859 0.51526 0.04822 0.0
C1057 C 0.85248 0.51091 0.06709 0.0
C1058 C 0.82529 0.54053 0.10618 0.0
C1059 C 0.82241 0.50187 0.88489 0.0
O1060 O 0.80664 0.51965 0.07091 0.0
O1061 O 0.80601 0.48196 0.09107 0.0
O1062 O 0.81589 0.46518 0.98587 0.0
O1063 O 0.82271 0.46687 0.08508 0.0
O1064 O 0.81774 0.50053 0.21334 0.0
O1065 O 0.82789 0.48438 0.20965 0.0
O1066 O 0.83815 0.48051 0.99643 0.0
O1067 O 0.84 0.49599 0.12016 0.0
O1068 O 0.8305 0.53158 0.13784 0.0
O1069 O 0.82294 0.5269 0.05062 0.0
O1070 O 0.82788 0.49677 0.92488 0.0
O1071 O 0.81703 0.50598 0.92782 0.0
H1072 H 0.79656 0.54224 0.12981 0.0
H1073 H 0.78549 0.54617 0.18224 0.0
H1074 H 0.78377 0.47098 0.19284 0.0
H1075 H 0.7949 0.46711 0.14272 0.0
H1076 H 0.84997 0.4654 0.93142 0.0
H1077 H 0.86129 0.47349 0.89617 0.0
H1078 H 0.86145 0.52881 0.08377 0.0
H1079 H 0.85014 0.52127 0.11606 0.0
Nd1080 Nd 0.45651 0.75036 0.05867 0.0
Nd1081 Nd 0.4423 0.75015 0.06837 0.0
C1082 C 0.46935 0.74666 0.06945 0.0
C1083 C 0.47533 0.74728 0.12196 0.0
C1084 C 0.47983 0.72886 0.11576 0.0
C1085 C 0.48606 0.73099 0.15067 0.0
C1086 C 0.48794 0.75172 0.19195 0.0
C1087 C 0.48329 0.76957 0.20255 0.0
C1088 C 0.47707 0.7674 0.16804 0.0
C1089 C 0.45096 0.79261 1.01308 0.0
C1090 C 0.44961 0.75382 0.2487 0.0
C1091 C 0.42948 0.75298 0.06079 0.0
C1092 C 0.42288 0.75615 1.02581 0.0
C1093 C 0.42132 0.77397 0.96816 0.0
C1094 C 0.41487 0.77723 0.94196 0.0
C1095 C 0.40984 0.76291 0.97362 0.0
C1096 C 0.41151 0.74484 1.03022 0.0
C1097 C 0.41794 0.74149 0.05553 0.0
C1098 C 0.44776 0.70746 0.11104 0.0
C1099 C 0.44934 0.74369 0.881 0.0
O1100 O 0.46549 0.72861 0.07359 0.0
O1101 O 0.46624 0.76626 0.05708 0.0
O1102 O 0.45565 0.78247 0.97266 0.0
O1103 O 0.44924 0.78054 0.07689 0.0
O1104 O 0.4548 0.74836 0.20356 0.0
O1105 O 0.44409 0.75896 0.21048 0.0
O1106 O 0.43319 0.77104 0.076 0.0
O1107 O 0.43269 0.73375 0.04519 0.0
O1108 O 0.44305 0.71752 0.15137 0.0
O1109 O 0.44955 0.71994 0.04855 0.0
O1110 O 0.44425 0.75249 0.92142 0.0
O1111 O 0.45449 0.73708 0.92424 0.0
H1112 H 0.47865 0.71324 0.08002 0.0
H1113 H 0.48951 0.71694 0.14096 0.0
H1114 H 0.48453 0.78562 0.23529 0.0
H1115 H 0.47373 0.78194 0.17429 0.0
H1116 H 0.42505 0.78549 0.94409 0.0
H1117 H 0.41384 0.79105 0.89707 0.0
H1118 H 0.40784 0.73365 0.05749 0.0
H1119 H 0.41903 0.7277 0.10052 0.0
Nd1120 Nd 0.19212 0.25083 0.81975 0.0
Nd1121 Nd 0.20721 0.24971 0.81326 0.0
C1122 C 0.17932 0.25043 0.81127 0.0
C1123 C 0.17277 0.24722 0.77542 0.0
C1124 C 0.17125 0.2291 0.71862 0.0
C1125 C 0.1649 0.22673 0.68776 0.0
C1126 C 0.15996 0.24234 0.71349 0.0
C1127 C 0.16154 0.26031 0.77083 0.0
C1128 C 0.16786 0.26271 0.80118 0.0
C1129 C 0.19826 0.29223 0.86151 0.0
C1130 C 0.19941 0.25064 0.63214 0.0
C1131 C 0.21956 0.26231 0.82644 0.0
C1132 C 0.2259 0.256 0.86526 0.0
C1133 C 0.22904 0.2722 0.91825 0.0
C1134 C 0.23522 0.26749 0.95117 0.0
C1135 C 0.23845 0.24642 0.93178 0.0
C1136 C 0.23525 0.23011 0.87919 0.0
C1137 C 0.22907 0.23482 0.84641 0.0
C1138 C 0.20269 0.20385 0.79343 0.0
C1139 C 0.1995 0.24192 0.99779 0.0
O1140 O 0.18273 0.2323 0.8358 0.0
O1141 O 0.18282 0.26823 0.78686 0.0
O1142 O 0.19345 0.28336 0.90322 0.0
O1143 O 0.19982 0.27899 0.80004 0.0
O1144 O 0.19415 0.2459 0.67723 0.0
O1145 O 0.20495 0.25624 0.66966 0.0
O1146 O 0.21499 0.27002 0.87719 0.0
O1147 O 0.21732 0.24927 0.76462 0.0
O1148 O 0.20876 0.20959 0.79684 0.0
O1149 O 0.19941 0.22221 0.80592 0.0
O1150 O 0.20488 0.24898 0.95945 0.0
O1151 O 0.19419 0.23745 0.95386 0.0
H1152 H 0.17495 0.21686 0.69817 0.0
H1153 H 0.16385 0.21254 0.64427 0.0
H1154 H 0.15792 0.27287 0.79113 0.0
H1155 H 0.16892 0.27679 0.84517 0.0
H1156 H 0.22674 0.28873 0.93356 0.0
H1157 H 0.23744 0.28036 0.9923 0.0
H1158 H 0.23759 0.21383 0.86164 0.0
H1159 H 0.22682 0.22199 0.80535 0.0
Nd1160 Nd 0.58033 0.49858 0.81244 0.0
Nd1161 Nd 0.5651 0.49925 0.8144 0.0
C1162 C 0.59282 0.50427 0.78565 0.0
C1163 C 0.59984 0.50756 0.77054 0.0
C1164 C 0.60227 0.52978 0.75109 0.0
C1165 C 0.60888 0.53302 0.7358 0.0
C1166 C 0.61329 0.51419 0.74125 0.0
C1167 C 0.61081 0.49185 0.76015 0.0
C1168 C 0.60416 0.48856 0.77403 0.0
C1169 C 0.57464 0.45673 0.85842 0.0
C1170 C 0.5724 0.4954 0.62904 0.0
C1171 C 0.55282 0.48632 0.83165 0.0
C1172 C 0.54645 0.49283 0.86937 0.0
C1173 C 0.54347 0.47767 0.92774 0.0
C1174 C 0.53726 0.48246 0.95966 0.0
C1175 C 0.53384 0.50253 0.93373 0.0
C1176 C 0.53686 0.51776 0.87547 0.0
C1177 C 0.54308 0.513 0.84381 0.0
C1178 C 0.56956 0.54499 0.79446 0.0
C1179 C 0.57332 0.50447 0.99705 0.0
O1180 O 0.5891 0.52104 0.81551 0.0
O1181 O 0.58988 0.48442 0.77079 0.0
O1182 O 0.5799 0.46514 0.89133 0.0
O1183 O 0.57259 0.4701 0.79952 0.0
O1184 O 0.57792 0.49904 0.66925 0.0
O1185 O 0.56686 0.49243 0.67046 0.0
O1186 O 0.55743 0.47968 0.88345 0.0
O1187 O 0.55499 0.49853 0.76726 0.0
O1188 O 0.56349 0.53934 0.79845 0.0
O1189 O 0.57287 0.52661 0.80386 0.0
O1190 O 0.56771 0.50016 0.95895 0.0
O1191 O 0.57875 0.50752 0.95353 0.0
H1192 H 0.59904 0.54468 0.74666 0.0
H1193 H 0.61052 0.55038 0.71905 0.0
H1194 H 0.61401 0.47692 0.76598 0.0
H1195 H 0.60241 0.47119 0.78883 0.0
H1196 H 0.54593 0.46189 0.94808 0.0
H1197 H 0.53517 0.47046 1.00515 0.0
H1198 H 0.53437 0.5332 0.85273 0.0
H1199 H 0.5452 0.52497 0.79834 0.0
Nd1200 Nd 0.19064 0.50259 1.01743 0.0
Nd1201 Nd 0.20686 0.50252 1.01031 0.0
C1202 C 0.17839 0.51657 1.02403 0.0
C1203 C 0.17179 0.51126 0.05609 0.0
C1204 C 0.16802 0.52937 0.09104 0.0
C1205 C 0.16159 0.52544 0.11604 0.0
C1206 C 0.15875 0.50324 0.10653 0.0
C1207 C 0.16258 0.48503 0.07212 0.0
C1208 C 0.16901 0.48898 0.04731 0.0
C1209 C 0.19587 0.4577 1.00728 0.0
C1210 C 0.19887 0.49817 0.19702 0.0
C1211 C 0.21907 0.48825 1.00026 0.0
C1212 C 0.22549 0.49334 0.96239 0.0
C1213 C 0.22967 0.4747 0.94265 0.0
C1214 C 0.23601 0.47887 0.91436 0.0
C1215 C 0.23832 0.50186 0.9051 0.0
C1216 C 0.23402 0.52053 0.92197 0.0
C1217 C 0.22769 0.51632 0.95045 0.0
C1218 C 0.20176 0.54741 1.02481 0.0
C1219 C 0.19848 0.50578 0.83055 0.0
O1220 O 0.18276 0.52332 0.07902 0.0
O1221 O 0.18076 0.50331 0.96333 0.0
O1222 O 0.18967 0.46176 1.01286 0.0
O1223 O 0.19873 0.47703 1.0122 0.0
O1224 O 0.19324 0.50193 0.15893 0.0
O1225 O 0.20445 0.49573 0.15462 0.0
O1226 O 0.21451 0.48058 0.94961 0.0
O1227 O 0.21691 0.50252 0.05924 0.0
O1228 O 0.20792 0.54307 1.01678 0.0
O1229 O 0.19877 0.52831 1.01773 0.0
O1230 O 0.20422 0.5026 0.86673 0.0
O1231 O 0.19303 0.50875 0.87498 0.0
H1232 H 0.17003 0.54674 0.09808 0.0
H1233 H 0.15887 0.53982 0.14333 0.0
H1234 H 0.16057 0.46777 0.06255 0.0
H1235 H 0.17178 0.47469 1.02007 0.0
H1236 H 0.22809 0.45682 0.95147 0.0
H1237 H 0.23915 0.46402 0.90292 0.0
H1238 H 0.23557 0.53847 0.91401 0.0
H1239 H 0.22455 0.53103 0.96463 0.0
Nd1240 Nd 0.58074 0.24578 1.02001 0.0
Nd1241 Nd 0.56456 0.24424 1.01392 0.0
C1242 C 0.59304 0.23239 1.02338 0.0
C1243 C 0.59968 0.2349 0.05933 0.0
C1244 C 0.60197 0.21816 0.11722 0.0
C1245 C 0.60851 0.2174 0.1399 0.0
C1246 C 0.61298 0.23325 0.10488 0.0
C1247 C 0.61064 0.2509 0.05072 0.0
C1248 C 0.60406 0.25164 1.0278 0.0
C1249 C 0.57541 0.29048 1.01092 0.0
C1250 C 0.57252 0.24935 0.2002 0.0
C1251 C 0.55216 0.25641 1.00524 0.0
C1252 C 0.54596 0.25382 0.95764 0.0
C1253 C 0.54469 0.26759 0.88557 0.0
C1254 C 0.5385 0.26818 0.84952 0.0
C1255 C 0.53337 0.25514 0.88464 0.0
C1256 C 0.53473 0.24033 0.95371 0.0
C1257 C 0.54093 0.23978 0.99006 0.0
C1258 C 0.5701 0.1999 1.03036 0.0
C1259 C 0.5729 0.24169 0.83349 0.0
O1260 O 0.58852 0.22283 0.07044 0.0
O1261 O 0.59083 0.24852 0.97187 0.0
O1262 O 0.58158 0.28639 1.01914 0.0
O1263 O 0.57248 0.27109 1.01378 0.0
O1264 O 0.57818 0.24637 0.16143 0.0
O1265 O 0.56689 0.25097 0.15851 0.0
O1266 O 0.55686 0.26839 0.97003 0.0
O1267 O 0.55426 0.23875 0.05058 0.0
O1268 O 0.5639 0.20345 1.02331 0.0
O1269 O 0.57284 0.2194 1.02104 0.0
O1270 O 0.56711 0.24393 0.86991 0.0
O1271 O 0.57837 0.23969 0.87769 0.0
H1272 H 0.59876 0.2049 0.1423 0.0
H1273 H 0.61011 0.20383 0.18304 0.0
H1274 H 0.61394 0.26335 1.02236 0.0
H1275 H 0.60249 0.26469 0.98249 0.0
H1276 H 0.54841 0.27868 0.85876 0.0
H1277 H 0.53767 0.27948 0.7954 0.0
H1278 H 0.5309 0.23012 0.98266 0.0
H1279 H 0.54172 0.22911 0.04594 0.0
H1280 H 0.24866 0.27724 0.95574 0.0
H1281 H 0.24337 0.20429 0.98653 0.0
H1282 H 0.25433 0.19565 1.03965 0.0
H1283 H 0.265 0.26785 0.88723 0.0
H1284 H 0.26825 0.29234 0.9453 0.0
H1285 H 0.25997 0.29295 0.90957 0.0
H1286 H 0.25609 0.3006 0.06381 0.0
H1287 H 0.26435 0.30004 0.1 0.0
H1288 H 0.25847 0.28077 0.14709 0.0
H1289 H 0.2659 0.19476 0.09034 0.0
H1290 H 0.27711 0.20176 0.13644 0.0
H1291 H 0.27504 0.27525 0.07223 0.0
C1292 C 0.24976 0.25947 0.97437 0.0
C1293 C 0.24509 0.24144 0.96604 0.0
C1294 C 0.24684 0.2184 0.99045 0.0
C1295 C 0.25306 0.21331 1.02139 0.0
C1296 C 0.25754 0.23142 1.02816 0.0
C1297 C 0.25596 0.25407 1.00567 0.0
C1298 C 0.26168 0.27031 1.01951 0.0
C1299 C 0.26385 0.28152 0.93538 0.0
C1300 C 0.26005 0.28904 0.08659 0.0
C1301 C 0.26673 0.25321 0.05245 0.0
C1302 C 0.26422 0.23089 0.05718 0.0
C1303 C 0.26792 0.21216 0.08637 0.0
C1304 C 0.27434 0.21631 0.11172 0.0
C1305 C 0.27707 0.23904 0.10759 0.0
C1306 C 0.27315 0.25767 0.07711 0.0
H1307 H 0.02568 0.02189 0.0461 0.0
H1308 H 0.02488 0.95863 0.89313 0.0
H1309 H 0.01338 0.95406 0.92997 0.0
H1310 H 0.01493 0.00301 0.21262 0.0
H1311 H 0.01106 0.0311 0.22519 0.0
H1312 H 0.0193 0.0294 0.18822 0.0
H1313 H 0.01624 0.05322 0.05438 0.0
H1314 H 1.00798 0.055 0.09095 0.0
H1315 H 1.00976 0.04316 0.98718 0.0
H1316 H 1.00186 0.95639 0.98115 0.0
H1317 H 0.9912 0.96537 0.04387 0.0
H1318 H 0.99926 0.02719 0.164 0.0
C1319 C 0.02309 0.0071 1.01997 0.0
C1320 C 0.02629 0.99047 0.96726 0.0
C1321 C 0.02267 0.97134 0.93525 0.0
C1322 C 0.01608 0.96868 0.95517 0.0
C1323 C 0.0131 0.98533 1.00705 0.0
C1324 C 0.01648 0.00419 1.03901 0.0
C1325 C 0.01208 0.01965 0.09288 0.0
C1326 C 0.01449 0.02085 0.18521 0.0
C1327 C 0.01148 0.04421 0.05401 0.0
C1328 C 1.00572 0.0064 0.08663 0.0
C1329 C 1.00643 0.9867 1.03654 0.0
C1330 C 1.00126 0.97171 1.02091 0.0
C1331 C 0.99521 0.9769 0.05753 0.0
C1332 C 0.99433 0.99691 0.10982 0.0
C1333 C 0.9997 0.01185 0.12398 0.0
H1334 H 0.24533 0.00434 0.26895 0.0
H1335 H 0.24886 0.99661 0.53951 0.0
H1336 H 0.2606 0.99687 0.51289 0.0
H1337 H 0.25846 0.96701 0.19872 0.0
H1338 H 0.26049 0.9848 0.10809 0.0
H1339 H 0.25231 0.98442 0.14774 0.0
H1340 H 0.25253 0.02945 0.16399 0.0
H1341 H 0.26072 0.02997 0.12443 0.0
H1342 H 0.25883 0.04289 0.22615 0.0
H1343 H 0.27198 0.99755 0.45839 0.0
H1344 H 0.28227 0.99833 0.37891 0.0
H1345 H 0.27162 0.00574 0.14269 0.0
C1346 C 0.24857 0.00265 0.32257 0.0
C1347 C 0.24612 0.00075 0.40668 0.0
C1348 C 0.25057 0.99864 0.47481 0.0
C1349 C 0.25727 0.99859 0.46029 0.0
C1350 C 0.25952 0.00064 0.37711 0.0
C1351 C 0.25532 0.00263 0.30923 0.0
C1352 C 0.25906 0.00455 0.22609 0.0
C1353 C 0.25749 0.98397 0.16667 0.0
C1354 C 0.25771 0.02812 0.18262 0.0
C1355 C 0.266 0.00319 0.25807 0.0
C1356 C 0.26613 0.00099 0.34544 0.0
C1357 C 0.27194 0.99939 0.38993 0.0
C1358 C 0.27778 2e-05 0.34412 0.0
C1359 C 0.27782 0.00223 0.25435 0.0
C1360 C 0.2718 0.00384 0.21111 0.0
H1361 H 0.02296 0.27678 0.37796 0.0
H1362 H 0.02848 0.20398 0.34479 0.0
H1363 H 0.01753 0.19516 0.29195 0.0
H1364 H 1.0067 0.26712 0.44686 0.0
H1365 H 1.00336 0.29155 0.38937 0.0
H1366 H 0.01165 0.29232 0.42455 0.0
H1367 H 0.01545 0.30005 0.27019 0.0
H1368 H 1.00717 0.29934 0.23454 0.0
H1369 H 0.0131 0.28018 0.18676 0.0
H1370 H 1.00598 0.19402 0.24235 0.0
H1371 H 0.99472 0.20075 0.19733 0.0
H1372 H 0.99657 0.27427 0.26299 0.0
C1373 C 0.02191 0.25901 0.35879 0.0
C1374 C 0.02664 0.24106 0.36647 0.0
C1375 C 0.02496 0.21801 0.34139 0.0
C1376 C 0.01875 0.21283 0.31061 0.0
C1377 C 0.01423 0.23085 0.30459 0.0
C1378 C 0.01573 0.25351 0.32756 0.0
C1379 C 1.00996 0.26965 0.3144 0.0
C1380 C 1.00779 0.28081 0.39884 0.0
C1381 C 0.01151 0.28841 0.24749 0.0
C1382 C 1.00496 0.25244 0.28153 0.0
C1383 C 1.00754 0.23018 0.27607 0.0
C1384 C 1.00389 0.21136 0.24684 0.0
C1385 C 0.99746 0.21536 0.22215 0.0
C1386 C 0.99466 0.23801 0.22705 0.0
C1387 C 0.99852 0.25674 0.25757 0.0
H1388 H 0.74808 0.72525 0.96134 0.0
H1389 H 0.74403 0.79958 0.98122 0.0
H1390 H 0.75515 0.80648 1.03078 0.0
H1391 H 0.75806 0.72153 0.14882 0.0
H1392 H 0.76371 0.70082 0.10387 0.0
H1393 H 0.75545 0.70144 0.06741 0.0
H1394 H 0.75944 0.70707 0.91272 0.0
H1395 H 0.76772 0.70651 0.94875 0.0
H1396 H 0.76478 0.73103 0.88812 0.0
H1397 H 0.76665 0.8059 0.07665 0.0
H1398 H 0.77776 0.79765 0.12357 0.0
H1399 H 0.77461 0.72346 0.08092 0.0
C1400 C 0.74956 0.74297 0.97581 0.0
C1401 C 0.74513 0.76186 0.96794 0.0
C1402 C 0.74726 0.78476 0.98803 0.0
C1403 C 0.7536 0.7889 1.01565 0.0
C1404 C 0.75781 0.77 1.02325 0.0
C1405 C 0.7559 0.74744 1.0044 0.0
C1406 C 0.76142 0.7303 1.02044 0.0
C1407 C 0.75955 0.71247 0.08924 0.0
C1408 C 0.76346 0.718 0.93757 0.0
C1409 C 0.76669 0.74679 0.05167 0.0
C1410 C 0.76449 0.7696 0.05188 0.0
C1411 C 0.76841 0.78806 0.07747 0.0
C1412 C 0.77473 0.78314 0.10473 0.0
C1413 C 0.77711 0.75985 0.10745 0.0
C1414 C 0.77301 0.74148 0.07939 0.0
H1415 H 0.77576 0.97975 0.79255 0.0
H1416 H 0.77544 0.04064 0.62792 0.0
H1417 H 0.76388 0.04635 0.65956 0.0
H1418 H 0.75984 0.95846 0.73409 0.0
H1419 H 0.75784 0.94861 0.83969 0.0
H1420 H 0.76616 0.94919 0.80529 0.0
H1421 H 0.76911 0.97514 0.93445 0.0
H1422 H 0.7608 0.97459 0.96932 0.0
H1423 H 0.76479 0.00217 0.95183 0.0
H1424 H 0.7523 0.04527 0.70547 0.0
H1425 H 0.74153 0.03843 0.7675 0.0
H1426 H 0.74913 0.97862 0.90541 0.0
C1427 C 0.77326 0.99426 0.76294 0.0
C1428 C 0.7766 0.00989 0.70822 0.0
C1429 C 0.7731 0.0287 0.67147 0.0
C1430 C 0.76649 0.03198 0.68839 0.0
C1431 C 0.76337 0.0163 0.7422 0.0
C1432 C 0.76662 0.99783 0.77924 0.0
C1433 C 0.76207 0.98364 0.8351 0.0
C1434 C 0.76144 0.95848 0.80152 0.0
C1435 C 0.76433 0.98392 0.9282 0.0
C1436 C 0.75578 0.99717 0.82404 0.0
C1437 C 0.75665 0.01583 0.76963 0.0
C1438 C 0.75157 0.03082 0.74874 0.0
C1439 C 0.74546 0.02686 0.78498 0.0
C1440 C 0.74442 0.00813 0.84247 0.0
C1441 C 0.74969 0.993 0.86139 0.0
H1442 H 0.99793 0.72683 0.70461 0.0
H1443 H 0.99317 0.8006 0.72873 0.0
H1444 H 1.00404 0.80825 0.78516 0.0
H1445 H 1.00751 0.72366 0.90081 0.0
H1446 H 0.01335 0.7035 0.85677 0.0
H1447 H 1.00513 0.70339 0.81883 0.0
H1448 H 1.00925 0.70941 0.66493 0.0
H1449 H 0.01748 0.7096 0.70244 0.0
H1450 H 0.01443 0.73388 0.64139 0.0
H1451 H 0.01544 0.80869 0.83433 0.0
H1452 H 0.02667 0.80167 0.87897 0.0
H1453 H 0.02436 0.72747 0.82891 0.0
C1454 C 0.99913 0.74456 0.72272 0.0
C1455 C 0.99464 0.76316 0.71078 0.0
C1456 C 0.9965 0.78609 0.73497 0.0
C1457 C 1.00268 0.79062 0.76785 0.0
C1458 C 1.00699 0.77206 0.77738 0.0
C1459 C 1.00531 0.74943 0.75633 0.0
C1460 C 0.01094 0.73279 0.77309 0.0
C1461 C 1.00912 0.71477 0.84145 0.0
C1462 C 0.01315 0.72071 0.69053 0.0
C1463 C 0.01605 0.74972 0.80562 0.0
C1464 C 0.01363 0.77226 0.80741 0.0
C1465 C 0.01739 0.79111 0.83327 0.0
C1466 C 0.0238 0.78694 0.85791 0.0
C1467 C 0.02647 0.76407 0.85677 0.0
C1468 C 0.02249 0.74516 0.83082 0.0
H1469 H 0.24969 0.73078 0.41774 0.0
H1470 H 0.24172 0.78366 0.58717 0.0
H1471 H 0.25244 0.78868 0.65244 0.0
H1472 H 0.26045 0.70436 0.57351 0.0
H1473 H 0.26686 0.6989 0.49792 0.0
H1474 H 0.25855 0.69936 0.46317 0.0
H1475 H 0.26136 0.73102 0.35178 0.0
H1476 H 0.26967 0.73067 0.38613 0.0
H1477 H 0.26518 0.75774 0.38582 0.0
H1478 H 0.26401 0.78893 0.69778 0.0
H1479 H 0.27568 0.78351 0.72365 0.0
H1480 H 0.27635 0.72933 0.53034 0.0
C1481 C 0.25016 0.74324 0.46922 0.0
C1482 C 0.2448 0.75697 0.49653 0.0
C1483 C 0.24572 0.77325 0.56352 0.0
C1484 C 0.25181 0.77613 0.60161 0.0
C1485 C 0.25697 0.76251 0.57277 0.0
C1486 C 0.25622 0.74628 0.50846 0.0
C1487 C 0.26261 0.73394 0.4897 0.0
C1488 C 0.26209 0.70757 0.50714 0.0
C1489 C 0.26483 0.73863 0.39791 0.0
C1490 C 0.26705 0.74582 0.55351 0.0
C1491 C 0.26368 0.76232 0.60032 0.0
C1492 C 0.2667 0.77604 0.66162 0.0
C1493 C 0.27335 0.77292 0.6755 0.0
C1494 C 0.27696 0.75612 0.62879 0.0
C1495 C 0.27373 0.74224 0.56735 0.0
H1496 H 0.99743 0.52738 0.60627 0.0
H1497 H 0.9933 0.45295 0.6109 0.0
H1498 H 1.00446 0.4446 0.56455 0.0
H1499 H 1.00755 0.52524 0.41589 0.0
H1500 H 0.01305 0.54736 0.45344 0.0
H1501 H 1.00472 0.54769 0.48759 0.0
H1502 H 1.00841 0.54712 0.64476 0.0
H1503 H 0.01675 0.54673 0.61107 0.0
H1504 H 0.01375 0.52422 0.68076 0.0
H1505 H 0.0161 0.444 0.51812 0.0
H1506 H 0.02726 0.45124 0.47046 0.0
H1507 H 0.02403 0.52606 0.49513 0.0
C1508 C 0.99883 0.50932 0.59667 0.0
C1509 C 0.99443 0.49084 0.61338 0.0
C1510 C 0.99656 0.46747 0.60058 0.0
C1511 C 1.0029 0.46252 0.57359 0.0
C1512 C 1.00711 0.48106 0.55878 0.0
C1513 C 1.00516 0.50402 0.56925 0.0
C1514 C 1.01066 0.52067 0.54808 0.0
C1515 C 1.00889 0.53615 0.47171 0.0
C1516 C 0.0125 0.53556 0.62582 0.0
C1517 C 0.01601 0.50345 0.52519 0.0
C1518 C 0.01384 0.48071 0.53163 0.0
C1519 C 0.01786 0.46175 0.51323 0.0
C1520 C 0.02425 0.46607 0.48693 0.0
C1521 C 0.02663 0.48923 0.47938 0.0
C1522 C 0.0224 0.50812 0.49934 0.0
H1523 H 0.27278 0.47877 0.67881 0.0
H1524 H 0.28011 0.5379 0.82264 0.0
H1525 H 0.26932 0.54372 0.88636 0.0
H1526 H 0.25701 0.50225 0.63598 0.0
H1527 H 0.25286 0.4748 0.64913 0.0
H1528 H 0.26117 0.47513 0.61413 0.0
H1529 H 0.26435 0.44803 0.73895 0.0
H1530 H 0.25605 0.44757 0.77429 0.0
H1531 H 0.26235 0.45654 0.84629 0.0
H1532 H 0.25775 0.5433 0.93515 0.0
H1533 H 0.24626 0.53623 0.96779 0.0
H1534 H 0.24627 0.47731 0.79302 0.0
C1535 C 0.27215 0.49281 0.72436 0.0
C1536 C 0.27735 0.50797 0.74504 0.0
C1537 C 0.27623 0.52629 0.80427 0.0
C1538 C 0.27011 0.52966 0.84136 0.0
C1539 C 0.26511 0.51454 0.81914 0.0
C1540 C 0.26605 0.49641 0.7623 0.0
C1541 C 0.25984 0.48264 0.74974 0.0
C1542 C 0.25759 0.48379 0.65671 0.0
C1543 C 0.2607 0.45719 0.77908 0.0
C1544 C 0.25526 0.49597 0.80811 0.0
C1545 C 0.25841 0.51428 0.84746 0.0
C1546 C 0.25522 0.52906 0.90438 0.0
C1547 C 0.24865 0.52501 0.92193 0.0
C1548 C 0.24527 0.50632 0.88268 0.0
C1549 C 0.24868 0.49166 0.82479 0.0
H1550 H 0.77518 0.27125 0.55554 0.0
H1551 H 0.7762 0.20215 0.66927 0.0
H1552 H 0.7648 0.1955 0.63233 0.0
H1553 H 0.75889 0.28429 0.62948 0.0
H1554 H 0.75664 0.2999 0.53452 0.0
H1555 H 0.76497 0.29934 0.56831 0.0
H1556 H 0.76841 0.28288 0.42156 0.0
H1557 H 0.7601 0.28342 0.38727 0.0
H1558 H 0.76467 0.25657 0.3821 0.0
H1559 H 0.75321 0.19629 0.58635 0.0
H1560 H 0.74232 0.20394 0.52967 0.0
H1561 H 0.74859 0.27248 0.44452 0.0
C1562 C 0.77302 0.25473 0.57312 0.0
C1563 C 0.7767 0.23714 0.61484 0.0
C1564 C 0.77361 0.21575 0.63567 0.0
C1565 C 0.76709 0.21187 0.61572 0.0
C1566 C 0.76363 0.22954 0.57519 0.0
C1567 C 0.76647 0.25056 0.55397 0.0
C1568 C 0.76162 0.26664 0.51068 0.0
C1569 C 0.76046 0.28886 0.56393 0.0
C1570 C 0.76383 0.27272 0.42001 0.0
C1571 C 0.75563 0.2512 0.50988 0.0
C1572 C 0.75691 0.22996 0.5481 0.0
C1573 C 0.75217 0.2128 0.55572 0.0
C1574 C 0.74599 0.21728 0.52262 0.0
C1575 C 0.74454 0.23872 0.48142 0.0
C1576 C 0.74947 0.25596 0.47598 0.0
H1577 H 0.7492 0.47958 0.40722 0.0
H1578 H 0.74113 0.53506 0.25125 0.0
H1579 H 0.75188 0.54199 0.1888 0.0
H1580 H 0.76439 0.50592 0.45002 0.0
H1581 H 0.76905 0.47934 0.4409 0.0
H1582 H 0.76069 0.47812 0.47308 0.0
H1583 H 0.75826 0.44942 0.34984 0.0
H1584 H 0.76663 0.45049 0.31745 0.0
H1585 H 0.76034 0.45749 0.24245 0.0
H1586 H 0.76347 0.54408 0.14584 0.0
H1587 H 0.77517 0.54004 0.12003 0.0
H1588 H 0.77596 0.48272 0.30061 0.0
C1589 C 0.74965 0.49297 0.35905 0.0
C1590 C 0.74426 0.50696 0.33531 0.0
C1591 C 0.74515 0.52442 0.27243 0.0
C1592 C 0.75125 0.52841 0.2359 0.0
C1593 C 0.75645 0.51464 0.26178 0.0
C1594 C 0.75573 0.49709 0.32119 0.0
C1595 C 0.76216 0.48485 0.33729 0.0
C1596 C 0.76419 0.48721 0.43089 0.0
C1597 C 0.76183 0.45903 0.31013 0.0
C1598 C 0.76662 0.49866 0.27907 0.0
C1599 C 0.7632 0.51568 0.23601 0.0
C1600 C 0.76621 0.53083 0.17926 0.0
C1601 C 0.77289 0.52853 0.16572 0.0
C1602 C 0.77656 0.51126 0.20889 0.0
C1603 C 0.77333 0.49607 0.26622 0.0
H1604 H 0.49607 0.01621 0.51148 0.0
H1605 H 0.49761 0.97517 0.7421 0.0
H1606 H 0.50942 0.97197 0.72143 0.0
H1607 H 0.50776 0.98299 0.39276 0.0
H1608 H 0.51112 0.00771 0.33731 0.0
H1609 H 0.50283 0.00845 0.37278 0.0
H1610 H 0.50507 0.04668 0.45587 0.0
H1611 H 0.51337 0.04606 0.4206 0.0
H1612 H 0.51153 0.04742 0.53259 0.0
H1613 H 0.52092 0.97253 0.67662 0.0
H1614 H 0.5315 0.97462 0.60564 0.0
H1615 H 0.52282 0.01335 0.39747 0.0
C1616 C 0.49893 0.00681 0.55785 0.0
C1617 C 0.49594 0.99597 0.62867 0.0
C1618 C 0.49981 0.98352 0.68745 0.0
C1619 C 0.50652 0.98169 0.67641 0.0
C1620 C 0.50933 0.99229 0.6058 0.0
C1621 C 0.50568 0.0045 0.54705 0.0
C1622 C 0.50995 0.01305 0.47443 0.0
C1623 C 0.50778 0.00241 0.38928 0.0
C1624 C 0.50998 0.0399 0.47068 0.0
C1625 C 0.51653 0.00355 0.50146 0.0
C1626 C 0.51603 0.99189 0.578 0.0
C1627 C 0.52137 0.98148 0.61635 0.0
C1628 C 0.52737 0.98263 0.57499 0.0
C1629 C 0.52804 0.99383 0.49504 0.0
C1630 C 0.52252 0.00475 0.4586 0.0
H1631 H 0.49708 0.2214 0.74027 0.0
H1632 H 0.49376 0.29593 0.7084 0.0
H1633 H 0.50491 0.30377 0.75392 0.0
H1634 H 0.50703 0.22732 0.93189 0.0
H1635 H 0.51235 0.20351 0.90349 0.0
H1636 H 0.50406 0.20341 0.86833 0.0
H1637 H 0.50791 0.19906 0.71239 0.0
H1638 H 0.51622 0.19923 0.74704 0.0
H1639 H 0.5135 0.22008 0.66898 0.0
H1640 H 0.51645 0.30398 0.7981 0.0
H1641 H 0.5276 0.29669 0.84612 0.0
H1642 H 0.52368 0.22218 0.85612 0.0
C1643 C 0.49865 0.23941 0.74389 0.0
C1644 C 0.49449 0.25801 0.71925 0.0
C1645 C 0.49683 0.28126 0.72457 0.0
C1646 C 0.50318 0.28596 0.75107 0.0
C1647 C 0.50716 0.26729 0.77334 0.0
C1648 C 0.50499 0.24448 0.77105 0.0
C1649 C 0.51032 0.22773 0.79922 0.0
C1650 C 0.50832 0.21472 0.88057 0.0
C1651 C 0.51209 0.21051 0.72762 0.0
C1652 C 0.51582 0.24474 0.8165 0.0
C1653 C 0.51386 0.26744 0.80087 0.0
C1654 C 0.51805 0.28628 0.81063 0.0
C1655 C 0.5244 0.28191 0.83732 0.0
C1656 C 0.52658 0.25885 0.85429 0.0
C1657 C 0.52218 0.24002 0.84402 0.0
H1658 H 0.49654 0.72129 0.2716 0.0
H1659 H 0.49506 0.79115 0.16574 0.0
H1660 H 0.50648 0.79838 0.20147 0.0
H1661 H 0.50697 0.73689 0.44734 0.0
H1662 H 0.5117 0.71038 0.44242 0.0
H1663 H 0.50339 0.71029 0.40799 0.0
H1664 H 0.50692 0.69407 0.2612 0.0
H1665 H 0.51524 0.69407 0.29528 0.0
H1666 H 0.51294 0.70952 0.20022 0.0
H1667 H 0.51802 0.79829 0.24624 0.0
H1668 H 0.52896 0.79145 0.30271 0.0
H1669 H 0.52328 0.72177 0.38216 0.0
C1670 C 0.49863 0.73809 0.25591 0.0
C1671 C 0.49485 0.75574 0.21646 0.0
C1672 C 0.49778 0.7775 0.19734 0.0
C1673 C 0.50429 0.78173 0.21681 0.0
C1674 C 0.50786 0.76409 0.2558 0.0
C1675 C 0.50515 0.74272 0.27564 0.0
C1676 C 0.5101 0.72698 0.31887 0.0
C1677 C 0.50791 0.72078 0.40955 0.0
C1678 C 0.51138 0.70485 0.2657 0.0
C1679 C 0.516 0.74287 0.31997 0.0
C1680 C 0.51458 0.76412 0.28267 0.0
C1681 C 0.5192 0.78169 0.27536 0.0
C1682 C 0.52543 0.77755 0.30717 0.0
C1683 C 0.52704 0.756 0.34631 0.0
C1684 C 0.52222 0.73846 0.35286 0.0
H1685 H 0.52389 0.47143 0.97025 0.0
H1686 H 0.52865 0.54538 0.9746 0.0
H1687 H 0.51766 0.55443 1.02562 0.0
H1688 H 0.50746 0.47747 0.90132 0.0
H1689 H 0.50438 0.45447 0.96817 0.0
H1690 H 0.51265 0.45351 0.93177 0.0
H1691 H 0.5166 0.4505 0.0874 0.0
H1692 H 0.50834 0.45142 0.1243 0.0
H1693 H 0.51412 0.47236 0.16359 0.0
H1694 H 0.50617 0.55589 0.07414 0.0
H1695 H 0.49493 0.54968 0.12061 0.0
H1696 H 0.49741 0.47472 0.08958 0.0
C1697 C 0.52266 0.48952 0.98276 0.0
C1698 C 0.52719 0.50769 0.96733 0.0
C1699 C 0.52529 0.53113 0.98387 0.0
C1700 C 0.51905 0.53646 1.0136 0.0
C1701 C 0.51472 0.51822 1.02736 0.0
C1702 C 0.51643 0.4952 1.01303 0.0
C1703 C 0.51081 0.47896 1.0334 0.0
C1704 C 0.5087 0.4653 0.95392 0.0
C1705 C 0.51257 0.46233 0.10653 0.0
C1706 C 0.50567 0.49652 0.06072 0.0
C1707 C 0.50805 0.51904 0.05656 0.0
C1708 C 0.50425 0.53834 0.07749 0.0
C1709 C 0.49783 0.53461 0.10324 0.0
C1710 C 0.49522 0.51174 0.10803 0.0
C1711 C 0.49924 0.49242 0.08691 0.0
H1712 H 0.39984 0.23185 0.42788 0.0
H1713 H 0.40208 0.30361 0.51459 0.0
H1714 H 0.39053 0.31072 0.48904 0.0
H1715 H 0.38806 0.24281 0.26523 0.0
H1716 H 0.38338 0.21691 0.28677 0.0
H1717 H 0.39193 0.21725 0.30899 0.0
H1718 H 0.38965 0.20565 0.46516 0.0
H1719 H 0.3811 0.20516 0.44336 0.0
H1720 H 0.38418 0.22315 0.52824 0.0
H1721 H 0.37876 0.31071 0.45206 0.0
H1722 H 0.36747 0.30299 0.41203 0.0
H1723 H 0.37244 0.23036 0.36139 0.0
C1724 C 0.39792 0.24903 0.44237 0.0
C1725 C 0.40201 0.26724 0.47213 0.0
C1726 C 0.3992 0.28945 0.48937 0.0
C1727 C 0.39259 0.29367 0.47581 0.0
C1728 C 0.38875 0.27547 0.44604 0.0
C1729 C 0.39128 0.25351 0.43023 0.0
C1730 C 0.38601 0.2369 0.4004 0.0
C1731 C 0.38743 0.22795 0.30997 0.0
C1732 C 0.38519 0.21651 0.46304 0.0
C1733 C 0.38015 0.25304 0.40177 0.0
C1734 C 0.38186 0.27522 0.42786 0.0
C1735 C 0.37734 0.29331 0.43259 0.0
C1736 C 0.37089 0.28865 0.41038 0.0
C1737 C 0.36894 0.26597 0.38429 0.0
C1738 C 0.3737 0.24797 0.38028 0.0
H1739 H 0.87164 0.01638 0.4177 0.0
H1740 H 0.8689 0.94544 0.50928 0.0
H1741 H 0.88056 0.93787 0.49162 0.0
H1742 H 0.88396 0.00331 0.26214 0.0
H1743 H 0.88856 0.02945 0.28269 0.0
H1744 H 0.87993 0.02934 0.30009 0.0
H1745 H 0.88166 0.04278 0.45563 0.0
H1746 H 0.89028 0.04299 0.43864 0.0
H1747 H 0.88688 0.02601 0.52415 0.0
H1748 H 0.89256 0.93776 0.46486 0.0
H1749 H 0.90399 0.94504 0.42923 0.0
H1750 H 0.89917 0.01676 0.36351 0.0
C1751 C 0.87347 0.99926 0.43448 0.0
C1752 C 0.86925 0.98146 0.46418 0.0
C1753 C 0.87193 0.95927 0.48445 0.0
C1754 C 0.87858 0.95483 0.47545 0.0
C1755 C 0.88257 0.97274 0.44654 0.0
C1756 C 0.88013 0.99453 0.42641 0.0
C1757 C 0.88551 0.01078 0.39741 0.0
C1758 C 0.88442 0.01868 0.3051 0.0
C1759 C 0.88612 0.03189 0.45756 0.0
C1760 C 0.89134 0.99467 0.40437 0.0
C1761 C 0.88953 0.97281 0.43276 0.0
C1762 C 0.89404 0.95487 0.44317 0.0
C1763 C 0.90056 0.95928 0.42346 0.0
C1764 C 0.90258 0.98154 0.39387 0.0
C1765 C 0.89785 0.99946 0.38503 0.0
H1766 H 0.39848 0.96994 0.81972 0.0
H1767 H 0.40519 0.02924 0.96798 0.0
H1768 H 0.39404 0.03638 1.01765 0.0
H1769 H 0.38323 0.99497 0.75648 0.0
H1770 H 0.37879 0.968 0.76552 0.0
H1771 H 0.38731 0.96737 0.74073 0.0
H1772 H 0.38935 0.94037 0.86988 0.0
H1773 H 0.38084 0.94095 0.8951 0.0
H1774 H 0.38669 0.94949 0.97407 0.0
H1775 H 0.38225 0.03748 0.05149 0.0
H1776 H 0.37046 0.03262 0.06687 0.0
H1777 H 0.37115 0.97219 0.89968 0.0
C1778 C 0.39762 0.98432 0.86321 0.0
C1779 C 0.40277 0.99911 0.88935 0.0
C1780 C 0.40137 0.01789 0.94552 0.0
C1781 C 0.39504 0.02199 0.97475 0.0
C1782 C 0.39012 0.00715 0.94775 0.0
C1783 C 0.39131 0.98867 0.89331 0.0
C1784 C 0.3851 0.97548 0.87392 0.0
C1785 C 0.38352 0.97653 0.77849 0.0
C1786 C 0.38552 0.95007 0.90512 0.0
C1787 C 0.38023 0.9895 0.92598 0.0
C1788 C 0.38326 0.00768 0.96791 0.0
C1789 C 0.37982 0.02332 1.01891 0.0
C1790 C 0.37311 0.02047 1.0269 0.0
C1791 C 0.36985 0.00212 0.9842 0.0
C1792 C 0.3735 0.98629 0.93367 0.0
H1793 H 0.87301 0.28089 0.86503 0.0
H1794 H 0.86868 0.20662 0.87336 0.0
H1795 H 0.88011 0.19818 0.90459 0.0
H1796 H 0.88879 0.27601 0.76921 0.0
H1797 H 0.89234 0.29904 0.83189 0.0
H1798 H 0.88381 0.2996 0.80869 0.0
H1799 H 0.8812 0.30202 0.96948 0.0
H1800 H 0.88972 0.30161 0.99315 0.0
H1801 H 0.88443 0.2802 1.04031 0.0
H1802 H 0.89201 0.19732 0.93181 0.0
H1803 H 0.90353 0.20417 0.96134 0.0
H1804 H 0.90028 0.27914 0.94541 0.0
C1805 C 0.87443 0.26284 0.87415 0.0
C1806 C 0.86988 0.24441 0.86547 0.0
C1807 C 0.87204 0.22107 0.8774 0.0
C1808 C 0.87854 0.21607 0.89583 0.0
C1809 C 0.88288 0.23455 0.90294 0.0
C1810 C 0.88093 0.2575 0.8932 0.0
C1811 C 0.88661 0.27405 0.90556 0.0
C1812 C 0.88796 0.288 0.82397 0.0
C1813 C 0.88542 0.29043 0.98167 0.0
C1814 C 0.89205 0.25676 0.92373 0.0
C1815 C 0.88977 0.23409 0.92135 0.0
C1816 C 0.89384 0.21502 0.93479 0.0
C1817 C 0.9004 0.21914 0.95219 0.0
C1818 C 0.90288 0.24222 0.95708 0.0
C1819 C 0.8986 0.26125 0.94177 0.0
H1820 H 0.62237 0.76948 0.61818 0.0
H1821 H 0.61769 0.69617 0.65517 0.0
H1822 H 0.62908 0.68811 0.69082 0.0
H1823 H 0.63773 0.75911 0.51531 0.0
H1824 H 0.64158 0.78413 0.5631 0.0
H1825 H 0.63298 0.78441 0.54434 0.0
H1826 H 0.63095 0.79356 0.70349 0.0
H1827 H 0.63954 0.79321 0.72284 0.0
H1828 H 0.63427 0.77446 0.78344 0.0
H1829 H 0.64106 0.68786 0.72221 0.0
H1830 H 0.65265 0.69535 0.74567 0.0
H1831 H 0.64974 0.76818 0.67681 0.0
C1832 C 0.62372 0.75166 0.63318 0.0
C1833 C 0.61904 0.73352 0.63424 0.0
C1834 C 0.62108 0.71056 0.65559 0.0
C1835 C 0.62758 0.70573 0.67524 0.0
C1836 C 0.63204 0.72396 0.67283 0.0
C1837 C 0.6302 0.74646 0.65205 0.0
C1838 C 0.63598 0.76281 0.65231 0.0
C1839 C 0.63713 0.77322 0.56348 0.0
C1840 C 0.63513 0.78215 0.71954 0.0
C1841 C 0.64135 0.74596 0.67657 0.0
C1842 C 0.63897 0.72367 0.68843 0.0
C1843 C 0.64299 0.70522 0.71233 0.0
C1844 C 0.6496 0.70964 0.72471 0.0
C1845 C 0.65221 0.73234 0.71258 0.0
C1846 C 0.64797 0.75065 0.68768 0.0
H1847 H 0.12272 0.99117 0.77387 0.0
H1848 H 0.11541 0.036 0.57306 0.0
H1849 H 0.12653 0.04134 0.51955 0.0
H1850 H 0.13742 0.02297 0.81331 0.0
H1851 H 0.14228 0.99724 0.83122 0.0
H1852 H 0.13374 0.99674 0.85424 0.0
H1853 H 0.13239 0.96087 0.75532 0.0
H1854 H 0.14093 0.9613 0.73188 0.0
H1855 H 0.13513 0.96255 0.64659 0.0
H1856 H 0.13837 0.04156 0.48583 0.0
H1857 H 0.1502 0.0375 0.47589 0.0
H1858 H 0.15009 0.99306 0.69967 0.0
C1859 C 0.12344 0.00197 0.7182 0.0
C1860 C 0.11814 0.01324 0.67798 0.0
C1861 C 0.11936 0.02745 0.60598 0.0
C1862 C 0.12567 0.03047 0.57463 0.0
C1863 C 0.13076 0.01917 0.61569 0.0
C1864 C 0.12974 0.00522 0.68599 0.0
C1865 C 0.13611 0.99524 0.71846 0.0
C1866 C 0.13746 0.00356 0.80972 0.0
C1867 C 0.13614 0.9684 0.7127 0.0
C1868 C 0.14086 0.00589 0.6556 0.0
C1869 C 0.13765 0.01953 0.59674 0.0
C1870 C 0.14094 0.03107 0.532 0.0
C1871 C 0.1477 0.0288 0.52739 0.0
C1872 C 0.15117 0.01522 0.58754 0.0
C1873 C 0.14764 0.0035 0.65224 0.0
H1874 H 0.64992 0.98462 0.09046 0.0
H1875 H 0.65497 0.05146 0.20348 0.0
H1876 H 0.64354 0.05792 0.24194 0.0
H1877 H 0.63462 0.00193 1.00379 0.0
H1878 H 0.63061 0.97478 1.02798 0.0
H1879 H 0.63921 0.97512 1.00912 0.0
H1880 H 0.64115 0.95556 0.15512 0.0
H1881 H 0.63255 0.95515 0.17449 0.0
H1882 H 0.63788 0.96894 0.24987 0.0
H1883 H 0.6316 0.05741 0.26865 0.0
H1884 H 0.61994 0.04972 0.28395 0.0
H1885 H 0.62242 0.9833 0.15298 0.0
C1886 C 0.64864 0.00051 0.12412 0.0
C1887 C 0.65339 0.01762 0.1433 0.0
C1888 C 0.65145 0.03827 0.18654 0.0
C1889 C 0.64496 0.04204 0.20922 0.0
C1890 C 0.64041 0.02499 0.18875 0.0
C1891 C 0.64216 0.00458 0.14749 0.0
C1892 C 0.63628 0.9891 0.13323 0.0
C1893 C 0.63511 0.98501 1.03785 0.0
C1894 C 0.63701 0.96581 0.18104 0.0
C1895 C 0.63097 0.00416 0.17225 0.0
C1896 C 0.63348 0.02474 0.20404 0.0
C1897 C 0.62957 0.0414 0.24353 0.0
C1898 C 0.62291 0.03695 0.25112 0.0
C1899 C 0.62017 0.016 0.21899 0.0
C1900 C 0.62431 0.99944 0.17887 0.0
H1901 H 0.12187 0.7256 0.19985 0.0
H1902 H 0.12079 0.77443 0.98906 0.0
H1903 H 0.13259 0.7797 0.99503 0.0
H1904 H 0.13445 0.75532 0.3159 0.0
H1905 H 0.13846 0.72887 0.34936 0.0
H1906 H 0.12988 0.72876 0.32934 0.0
H1907 H 0.13139 0.69488 0.22177 0.0
H1908 H 0.13998 0.69492 0.24134 0.0
H1909 H 0.13699 0.69824 0.13451 0.0
H1910 H 0.14449 0.77908 1.01947 0.0
H1911 H 0.15575 0.77442 0.06617 0.0
H1912 H 0.14944 0.72682 0.26473 0.0
C1913 C 0.12411 0.73735 0.15473 0.0
C1914 C 0.12032 0.74976 0.09436 0.0
C1915 C 0.1235 0.76507 1.0371 0.0
C1916 C 0.13024 0.76803 1.03939 0.0
C1917 C 0.1338 0.75556 0.0992 0.0
C1918 C 0.13087 0.74058 0.15618 0.0
C1919 C 0.13589 0.72947 0.2144 0.0
C1920 C 0.13459 0.73601 0.30779 0.0
C1921 C 0.13607 0.70279 0.20226 0.0
C1922 C 0.14208 0.74075 0.18154 0.0
C1923 C 0.14073 0.75554 0.11454 0.0
C1924 C 0.1456 0.76774 0.0725 0.0
C1925 C 0.15201 0.76508 0.10016 0.0
C1926 C 0.15357 0.75055 0.17033 0.0
C1927 C 0.14848 0.73801 0.21075 0.0
H1928 H 0.3725 0.72998 0.89532 0.0
H1929 H 0.36888 0.80388 0.85174 0.0
H1930 H 0.38039 0.81219 0.8784 0.0
H1931 H 0.38438 0.73642 0.05998 0.0
H1932 H 0.38935 0.71252 1.02296 0.0
H1933 H 0.38076 0.71232 1.00351 0.0
H1934 H 0.38287 0.70763 0.842 0.0
H1935 H 0.39147 0.70772 0.86101 0.0
H1936 H 0.38797 0.72843 0.78802 0.0
H1937 H 0.39237 0.81266 0.91004 0.0
H1938 H 0.40383 0.80519 0.94297 0.0
H1939 H 0.39989 0.73065 0.95448 0.0
C1940 C 0.3741 0.74794 0.89074 0.0
C1941 C 0.36967 0.76626 0.87199 0.0
C1942 C 0.37206 0.7895 0.86793 0.0
C1943 C 0.37863 0.79442 0.88219 0.0
C1944 C 0.38283 0.77595 0.89989 0.0
C1945 C 0.38066 0.75316 0.9039 0.0
C1946 C 0.38621 0.73646 0.92255 0.0
C1947 C 0.38511 0.72368 1.00729 0.0
C1948 C 0.38719 0.71904 0.849 0.0
C1949 C 0.39183 0.75345 0.9286 0.0
C1950 C 0.38977 0.77615 0.91559 0.0
C1951 C 0.39405 0.79491 0.91953 0.0
C1952 C 0.40059 0.79043 0.93754 0.0
C1953 C 0.40288 0.76728 0.9509 0.0
C1954 C 0.39837 0.74861 0.94569 0.0
H1955 H 0.89953 0.47092 0.87379 0.0
H1956 H 0.90363 0.54487 0.90691 0.0
H1957 H 0.89212 0.5522 0.93746 0.0
H1958 H 0.88396 0.4772 0.77605 0.0
H1959 H 0.88035 0.4528 0.83073 0.0
H1960 H 0.88893 0.45302 0.80995 0.0
H1961 H 0.89123 0.44731 0.97027 0.0
H1962 H 0.88266 0.44692 0.99146 0.0
H1963 H 0.88778 0.46745 0.04629 0.0
H1964 H 0.88015 0.55208 0.96065 0.0
H1965 H 0.86859 0.54421 0.98387 0.0
H1966 H 0.87213 0.46995 0.94668 0.0
C1967 C 0.89804 0.48864 0.88836 0.0
C1968 C 0.90256 0.50735 0.88664 0.0
C1969 C 0.90031 0.53025 0.90547 0.0
C1970 C 0.89376 0.53461 0.92359 0.0
C1971 C 0.88946 0.5159 0.92368 0.0
C1972 C 0.8915 0.49332 0.90742 0.0
C1973 C 0.88585 0.47636 0.91314 0.0
C1974 C 0.88471 0.46413 0.82735 0.0
C1975 C 0.88694 0.45846 0.98455 0.0
C1976 C 0.88033 0.49301 0.93477 0.0
C1977 C 0.88254 0.51573 0.94003 0.0
C1978 C 0.87838 0.53431 0.95773 0.0
C1979 C 0.87179 0.5296 0.97147 0.0
C1980 C 0.86938 0.50641 0.96843 0.0
C1981 C 0.87375 0.48792 0.94908 0.0
H1982 H 0.3713 0.51885 0.42749 0.0
H1983 H 0.36814 0.44562 0.48779 0.0
H1984 H 0.37969 0.43761 0.46366 0.0
H1985 H 0.38332 0.51014 0.26381 0.0
H1986 H 0.38819 0.53481 0.29499 0.0
H1987 H 0.37959 0.53507 0.3147 0.0
H1988 H 0.38165 0.54269 0.47464 0.0
H1989 H 0.39025 0.54253 0.45533 0.0
H1990 H 0.38682 0.52305 0.53317 0.0
H1991 H 0.39154 0.43715 0.43545 0.0
H1992 H 0.40303 0.44423 0.40376 0.0
H1993 H 0.3989 0.51797 0.36589 0.0
C1994 C 0.37302 0.50112 0.43589 0.0
C1995 C 0.36871 0.48283 0.4586 0.0
C1996 C 0.37123 0.45989 0.4683 0.0
C1997 C 0.37783 0.45516 0.45554 0.0
C1998 C 0.38191 0.47352 0.43347 0.0
C1999 C 0.37963 0.49607 0.42379 0.0
C2000 C 0.38512 0.5126 0.40086 0.0
C2001 C 0.38399 0.52381 0.31338 0.0
C2002 C 0.38601 0.53132 0.47014 0.0
C2003 C 0.39083 0.49573 0.39867 0.0
C2004 C 0.38883 0.47332 0.41806 0.0
C2005 C 0.39316 0.45465 0.42067 0.0
C2006 C 0.39971 0.45891 0.40318 0.0
C2007 C 0.40193 0.48171 0.38331 0.0
C2008 C 0.39738 0.50034 0.38068 0.0
H2009 H 0.87219 0.78224 0.34128 0.0
H2010 H 0.86689 0.71432 0.44259 0.0
H2011 H 0.87828 0.70715 0.48121 0.0
H2012 H 0.8876 0.7655 0.25413 0.0
H2013 H 0.89159 0.79235 0.28311 0.0
H2014 H 0.88301 0.79227 0.26268 0.0
H2015 H 0.88087 0.81031 0.41124 0.0
H2016 H 0.88944 0.81048 0.43206 0.0
H2017 H 0.88401 0.79593 0.5044 0.0
H2018 H 0.89028 0.70727 0.51033 0.0
H2019 H 0.9019 0.7149 0.52974 0.0
H2020 H 0.89957 0.78267 0.40901 0.0
C2021 C 0.87339 0.76593 0.37234 0.0
C2022 C 0.86857 0.7488 0.38817 0.0
C2023 C 0.87044 0.72761 0.42806 0.0
C2024 C 0.87692 0.72341 0.45088 0.0
C2025 C 0.88153 0.74055 0.43389 0.0
C2026 C 0.87985 0.76144 0.39579 0.0
C2027 C 0.88576 0.77699 0.38508 0.0
C2028 C 0.88706 0.78207 0.29063 0.0
C2029 C 0.88497 0.79977 0.43625 0.0
C2030 C 0.89101 0.76152 0.42273 0.0
C2031 C 0.88846 0.7406 0.45057 0.0
C2032 C 0.89233 0.72356 0.48828 0.0
C2033 C 0.89898 0.72801 0.49831 0.0
C2034 C 0.90176 0.74934 0.47052 0.0
C2035 C 0.89766 0.76624 0.43187 0.0
H2036 H 0.65006 0.26879 0.19743 0.0
H2037 H 0.65451 0.1945 0.18823 0.0
H2038 H 0.64311 0.18611 0.15582 0.0
H2039 H 0.63456 0.26214 0.30232 0.0
H2040 H 0.63077 0.28577 0.24533 0.0
H2041 H 0.63936 0.2863 0.26456 0.0
H2042 H 0.64146 0.29074 0.1031 0.0
H2043 H 0.63288 0.29015 0.08335 0.0
H2044 H 0.63814 0.26956 1.03032 0.0
H2045 H 0.63126 0.18527 0.12712 0.0
H2046 H 0.61964 0.192 0.10372 0.0
H2047 H 0.62249 0.26668 0.13627 0.0
C2048 C 0.64866 0.25072 0.18894 0.0
C2049 C 0.65329 0.23235 0.19462 0.0
C2050 C 0.65117 0.20902 0.18223 0.0
C2051 C 0.64467 0.20401 0.16453 0.0
C2052 C 0.64026 0.22245 0.15975 0.0
C2053 C 0.64215 0.24535 0.17174 0.0
C2054 C 0.63637 0.26181 0.16483 0.0
C2055 C 0.6352 0.27477 0.24928 0.0
C2056 C 0.63727 0.27908 0.09099 0.0
C2057 C 0.63096 0.24454 0.14654 0.0
C2058 C 0.63334 0.22195 0.14421 0.0
C2059 C 0.62933 0.20287 0.12923 0.0
C2060 C 0.62271 0.20689 0.11663 0.0
C2061 C 0.62009 0.22984 0.11912 0.0
C2062 C 0.62432 0.24893 0.13374 0.0
H2063 H 0.12075 0.53236 0.16408 0.0
H2064 H 0.11864 0.46241 0.26678 0.0
H2065 H 0.13036 0.45572 0.24916 0.0
H2066 H 0.13269 0.51735 1.00563 0.0
H2067 H 0.13722 0.54405 1.0172 0.0
H2068 H 0.12867 0.54378 1.03974 0.0
H2069 H 0.13086 0.56007 0.19067 0.0
H2070 H 0.13942 0.56041 0.16847 0.0
H2071 H 0.13639 0.54482 0.25971 0.0
H2072 H 0.1423 0.45636 0.22117 0.0
H2073 H 0.15364 0.46395 0.18126 0.0
H2074 H 0.14816 0.53302 0.09171 0.0
C2075 C 0.12277 0.51569 0.18316 0.0
C2076 C 0.11873 0.49783 0.21618 0.0
C2077 C 0.12158 0.47622 0.23994 0.0
C2078 C 0.12825 0.47229 0.23076 0.0
C2079 C 0.13207 0.49011 0.19746 0.0
C2080 C 0.12945 0.51137 0.17374 0.0
C2081 C 0.13465 0.52731 0.13775 0.0
C2082 C 0.13322 0.53348 0.04454 0.0
C2083 C 0.13537 0.54947 0.19243 0.0
C2084 C 0.14059 0.51166 0.14496 0.0
C2085 C 0.13898 0.49033 0.17999 0.0
C2086 C 0.14361 0.47296 0.19319 0.0
C2087 C 0.15005 0.4774 0.1696 0.0
C2088 C 0.15186 0.49903 0.13253 0.0
C2089 C 0.14701 0.51638 0.12057 0.0
H2090 H 0.64992 0.48369 0.60347 0.0
H2091 H 0.65501 0.5541 0.6829 0.0
H2092 H 0.64371 0.56106 0.72618 0.0
H2093 H 0.63441 0.49939 0.51357 0.0
H2094 H 0.6305 0.47279 0.54704 0.0
H2095 H 0.63906 0.47287 0.52509 0.0
H2096 H 0.64129 0.45657 0.67569 0.0
H2097 H 0.63274 0.45658 0.69823 0.0
H2098 H 0.63821 0.47203 0.76732 0.0
H2099 H 0.63193 0.56045 0.76308 0.0
H2100 H 0.62035 0.55303 0.78572 0.0
H2101 H 0.62254 0.4842 0.67114 0.0
C2102 C 0.64868 0.50066 0.6294 0.0
C2103 C 0.65345 0.51825 0.6404 0.0
C2104 C 0.65155 0.54008 0.67557 0.0
C2105 C 0.6451 0.5443 0.69977 0.0
C2106 C 0.64056 0.52664 0.688 0.0
C2107 C 0.64224 0.5053 0.65315 0.0
C2108 C 0.63636 0.4895 0.64575 0.0
C2109 C 0.635 0.48328 0.5523 0.0
C2110 C 0.6372 0.46736 0.69999 0.0
C2111 C 0.63112 0.50535 0.68203 0.0
C2112 C 0.63367 0.52661 0.7064 0.0
C2113 C 0.62985 0.54397 0.74323 0.0
C2114 C 0.62324 0.53961 0.75508 0.0
C2115 C 0.62041 0.51814 0.72916 0.0
C2116 C 0.62448 0.50077 0.69235 0.0
H2117 H 0.14829 0.24878 0.798 0.0
H2118 H 0.15636 0.23224 0.54978 0.0
H2119 H 0.14534 0.23088 0.48997 0.0
H2120 H 0.13408 0.2121 0.78081 0.0
H2121 H 0.12884 0.23251 0.83512 0.0
H2122 H 0.13735 0.23173 0.85947 0.0
H2123 H 0.13823 0.27588 0.82551 0.0
H2124 H 0.12972 0.2768 0.80104 0.0
H2125 H 0.13557 0.28649 0.72354 0.0
H2126 H 0.13352 0.23242 0.4555 0.0
H2127 H 0.12163 0.23516 0.44946 0.0
H2128 H 0.12105 0.25114 0.71937 0.0
C2129 C 0.14775 0.24491 0.73099 0.0
C2130 C 0.15324 0.24053 0.67872 0.0
C2131 C 0.15227 0.23529 0.59157 0.0
C2132 C 0.14602 0.23465 0.5568 0.0
C2133 C 0.14075 0.23922 0.60984 0.0
C2134 C 0.14153 0.24413 0.69517 0.0
C2135 C 0.13503 0.24841 0.738 0.0
C2136 C 0.13375 0.23009 0.80745 0.0
C2137 C 0.13462 0.27338 0.77414 0.0
C2138 C 0.13047 0.24525 0.66319 0.0
C2139 C 0.13389 0.24003 0.58993 0.0
C2140 C 0.13079 0.23655 0.51243 0.0
C2141 C 0.12402 0.23835 0.50954 0.0
C2142 C 0.12037 0.24359 0.58365 0.0
C2143 C 0.12368 0.24702 0.66158 0.0
H2144 H 0.33082 0.26239 0.57448 0.0
H2145 H 0.31295 0.22362 0.53949 0.0
H2146 H 0.31126 0.22295 0.6932 0.0
H2147 H 0.33581 0.23217 0.76972 0.0
H2148 H 0.33897 0.25797 0.82077 0.0
H2149 H 0.33901 0.25573 0.70642 0.0
H2150 H 0.33263 0.29456 0.69572 0.0
H2151 H 0.33259 0.29696 0.81003 0.0
H2152 H 0.32507 0.29767 0.75217 0.0
H2153 H 0.31102 0.22689 0.84651 0.0
H2154 H 0.31246 0.23365 0.99815 0.0
H2155 H 0.33069 0.26904 0.94833 0.0
C2156 C 0.32661 0.2535 0.59944 0.0
C2157 C 0.32203 0.24296 0.54362 0.0
C2158 C 0.31654 0.23184 0.57953 0.0
C2159 C 0.31552 0.23135 0.66737 0.0
C2160 C 0.32003 0.24199 0.72017 0.0
C2161 C 0.32549 0.25277 0.68849 0.0
C2162 C 0.32948 0.26287 0.76186 0.0
C2163 C 0.33622 0.2515 0.76487 0.0
C2164 C 0.32997 0.28961 0.75447 0.0
C2165 C 0.32538 0.25586 0.83897 0.0
C2166 C 0.31994 0.24401 0.81201 0.0
C2167 C 0.31527 0.23607 0.86862 0.0
C2168 C 0.31615 0.24016 0.95537 0.0
C2169 C 0.32168 0.252 0.98674 0.0
C2170 C 0.3264 0.25992 0.9271 0.0
H2171 H 0.95713 0.01779 0.58805 0.0
H2172 H 0.93976 0.97734 0.53743 0.0
H2173 H 0.93837 0.97036 0.68939 0.0
H2174 H 0.9629 0.98234 0.76583 0.0
H2175 H 0.96564 0.00675 0.82876 0.0
H2176 H 0.96553 0.00884 0.71442 0.0
H2177 H 0.95842 0.046 0.72489 0.0
H2178 H 0.95849 0.044 0.83925 0.0
H2179 H 0.9509 0.04497 0.78315 0.0
H2180 H 0.93857 0.96704 0.84432 0.0
H2181 H 0.94021 0.96851 0.99831 0.0
H2182 H 0.9573 0.01154 0.96146 0.0
C2183 C 0.95304 0.00747 0.60913 0.0
C2184 C 0.94853 0.99832 0.54927 0.0
C2185 C 0.94326 0.98492 0.58052 0.0
C2186 C 0.94242 0.98068 0.6674 0.0
C2187 C 0.94687 0.98996 0.72432 0.0
C2188 C 0.95207 0.00319 0.69731 0.0
C2189 C 0.95598 0.01135 0.77444 0.0
C2190 C 0.96293 0.00174 0.7706 0.0
C2191 C 0.95594 0.03817 0.7808 0.0
C2192 C 0.95218 0.00037 0.84794 0.0
C2193 C 0.94695 0.98814 0.81648 0.0
C2194 C 0.94265 0.97653 0.86985 0.0
C2195 C 0.94365 0.97748 0.95786 0.0
C2196 C 0.94891 0.98999 0.99341 0.0
C2197 C 0.95327 0.00156 0.93697 0.0
H2198 H 0.3297 0.01418 0.36792 0.0
H2199 H 0.31371 0.9665 0.32743 0.0
H2200 H 0.31207 0.96356 0.48247 0.0
H2201 H 0.33612 0.98861 0.56189 0.0
H2202 H 0.33771 0.01623 0.61307 0.0
H2203 H 0.33789 0.01411 0.49878 0.0
H2204 H 0.32942 0.04738 0.48839 0.0
H2205 H 0.32921 0.04959 0.60271 0.0
H2206 H 0.32184 0.04467 0.54441 0.0
H2207 H 0.31177 0.96664 0.64048 0.0
H2208 H 0.31299 0.97499 0.79356 0.0
H2209 H 0.32921 0.02053 0.73894 0.0
C2210 C 0.32594 0.0028 0.39207 0.0
C2211 C 0.32189 0.99019 0.33527 0.0
C2212 C 0.3169 0.97613 0.36939 0.0
C2213 C 0.31592 0.97438 0.45753 0.0
C2214 C 0.31991 0.98713 0.51177 0.0
C2215 C 0.32481 0.00117 0.48077 0.0
C2216 C 0.32816 0.01389 0.55396 0.0
C2217 C 0.3354 0.00784 0.55709 0.0
C2218 C 0.3271 0.04046 0.54691 0.0
C2219 C 0.32454 0.00404 0.63066 0.0
C2220 C 0.31973 0.98894 0.60416 0.0
C2221 C 0.31554 0.97836 0.66191 0.0
C2222 C 0.31625 0.98328 0.74886 0.0
C2223 C 0.32119 0.99834 0.77839 0.0
C2224 C 0.32542 0.00877 0.7183 0.0
H2225 H 0.95725 0.27237 0.38695 0.0
H2226 H 0.9397 0.23423 0.32881 0.0
H2227 H 0.9381 0.22598 0.48128 0.0
H2228 H 0.96293 0.23727 0.56217 0.0
H2229 H 0.96548 0.26162 0.62684 0.0
H2230 H 0.96542 0.26423 0.51269 0.0
H2231 H 0.95804 0.30075 0.52455 0.0
H2232 H 0.9581 0.29824 0.63877 0.0
H2233 H 0.95052 0.29881 0.5823 0.0
H2234 H 0.93817 0.22213 0.63933 0.0
H2235 H 0.93977 0.22378 0.79464 0.0
H2236 H 0.95719 0.26466 0.75785 0.0
C2237 C 0.95309 0.26223 0.40665 0.0
C2238 C 0.94859 0.25388 0.34555 0.0
C2239 C 0.94318 0.24093 0.37412 0.0
C2240 C 0.94224 0.23608 0.46077 0.0
C2241 C 0.9467 0.2446 0.51945 0.0
C2242 C 0.95199 0.25765 0.49411 0.0
C2243 C 0.95582 0.26564 0.57186 0.0
C2244 C 0.96283 0.25664 0.56814 0.0
C2245 C 0.95561 0.29245 0.57983 0.0
C2246 C 0.95202 0.25415 0.64402 0.0
C2247 C 0.94673 0.24239 0.61185 0.0
C2248 C 0.94232 0.23119 0.66515 0.0
C2249 C 0.94327 0.2322 0.75352 0.0
C2250 C 0.94865 0.24399 0.78885 0.0
C2251 C 0.95312 0.25501 0.73289 0.0
H2252 H 0.7072 0.76055 0.12074 0.0
H2253 H 0.69039 0.71627 0.08319 0.0
H2254 H 0.68892 0.71352 0.23757 0.0
H2255 H 0.71324 0.73129 0.31224 0.0
H2256 H 0.71565 0.75787 0.36504 0.0
H2257 H 0.71564 0.75637 0.25055 0.0
H2258 H 0.70811 0.79252 0.24435 0.0
H2259 H 0.70811 0.79415 0.35881 0.0
H2260 H 0.70056 0.79225 0.30212 0.0
H2261 H 0.68891 0.71551 0.39331 0.0
H2262 H 0.69034 0.72211 0.54571 0.0
H2263 H 0.70719 0.76527 0.49429 0.0
C2264 C 0.70328 0.75 0.1452 0.0
C2265 C 0.69894 0.73843 0.08863 0.0
C2266 C 0.6938 0.72526 0.12397 0.0
C2267 C 0.69291 0.72356 0.21211 0.0
C2268 C 0.69718 0.73519 0.26573 0.0
C2269 C 0.70227 0.7482 0.23432 0.0
C2270 C 0.70601 0.75933 0.308 0.0
C2271 C 0.71306 0.7507 0.309 0.0
C2272 C 0.70568 0.78615 0.30299 0.0
C2273 C 0.70224 0.75026 0.3851 0.0
C2274 C 0.69716 0.73647 0.3581 0.0
C2275 C 0.69287 0.72629 0.41527 0.0
C2276 C 0.69373 0.73028 0.50235 0.0
C2277 C 0.69886 0.74437 0.5334 0.0
C2278 C 0.70322 0.75436 0.47332 0.0
H2279 H 0.06364 0.99251 0.12622 0.0
H2280 H 0.08209 0.02767 0.09002 0.0
H2281 H 0.08379 0.02813 0.24347 0.0
H2282 H 0.0592 0.02409 0.32224 0.0
H2283 H 0.05561 0.99909 0.3735 0.0
H2284 H 0.05558 0.00127 0.25916 0.0
H2285 H 0.06127 0.96104 0.24781 0.0
H2286 H 0.06131 0.95874 0.3621 0.0
H2287 H 0.06879 0.95628 0.30332 0.0
H2288 H 0.08396 0.02446 0.39645 0.0
H2289 H 0.08246 0.01813 0.54803 0.0
H2290 H 0.06375 0.98598 0.49994 0.0
C2291 C 0.06799 0.00054 0.15084 0.0
C2292 C 0.07272 0.01014 0.0947 0.0
C2293 C 0.07837 0.0202 0.13023 0.0
C2294 C 0.0794 0.02056 0.21795 0.0
C2295 C 0.07474 0.01089 0.27104 0.0
C2296 C 0.06912 0.00115 0.2398 0.0
C2297 C 0.06499 0.99201 0.31353 0.0
C2298 C 0.05846 0.00488 0.31732 0.0
C2299 C 0.06403 0.96543 0.30622 0.0
C2300 C 0.06921 0.99816 0.3902 0.0
C2301 C 0.07481 0.00894 0.36279 0.0
C2302 C 0.07959 0.01608 0.41892 0.0
C2303 C 0.07867 0.01224 0.50568 0.0
C2304 C 0.07299 0.00137 0.53751 0.0
C2305 C 0.06815 0.99429 0.47835 0.0
H2306 H 0.69324 0.02668 0.70179 0.0
H2307 H 0.70785 0.97401 0.75516 0.0
H2308 H 0.7089 0.96569 0.60277 0.0
H2309 H 0.68557 0.9974 0.52374 0.0
H2310 H 0.68452 0.02341 0.46061 0.0
H2311 H 0.6847 0.02548 0.57494 0.0
H2312 H 0.69404 0.05546 0.56518 0.0
H2313 H 0.69387 0.05343 0.45082 0.0
H2314 H 0.70129 0.0479 0.50731 0.0
H2315 H 0.70854 0.96233 0.44733 0.0
H2316 H 0.70708 0.96499 0.293 0.0
H2317 H 0.6929 0.02039 0.32895 0.0
C2318 C 0.69665 0.01342 0.68109 0.0
C2319 C 0.7005 0.0011 0.7413 0.0
C2320 C 0.70491 0.98396 0.71111 0.0
C2321 C 0.70553 0.97897 0.62428 0.0
C2322 C 0.70175 0.9914 0.56679 0.0
C2323 C 0.69743 0.00845 0.59316 0.0
C2324 C 0.69418 0.0196 0.51581 0.0
C2325 C 0.6868 0.01626 0.519 0.0
C2326 C 0.69595 0.04564 0.50942 0.0
C2327 C 0.69721 0.00561 0.44283 0.0
C2328 C 0.70159 0.98958 0.47465 0.0
C2329 C 0.70513 0.9748 0.42157 0.0
C2330 C 0.70425 0.97646 0.33353 0.0
C2331 C 0.69984 0.99275 0.29788 0.0
C2332 C 0.69623 0.00748 0.35383 0.0
H2333 H 0.07682 0.77704 0.33602 0.0
H2334 H 0.06651 0.713 0.27974 0.0
H2335 H 0.066 0.70383 0.43323 0.0
H2336 H 0.08627 0.75662 0.51243 0.0
H2337 H 0.08534 0.78274 0.57571 0.0
H2338 H 0.08496 0.78445 0.46146 0.0
H2339 H 0.07371 0.80421 0.47148 0.0
H2340 H 0.07407 0.8027 0.58583 0.0
H2341 H 0.06732 0.79005 0.52999 0.0
H2342 H 0.06658 0.70126 0.59286 0.0
H2343 H 0.06775 0.70634 0.74828 0.0
H2344 H 0.07754 0.77228 0.70732 0.0
C2345 C 0.07444 0.76116 0.35639 0.0
C2346 C 0.07167 0.74571 0.29565 0.0
C2347 C 0.06859 0.72517 0.32491 0.0
C2348 C 0.0683 0.71977 0.41211 0.0
C2349 C 0.07105 0.73524 0.47047 0.0
C2350 C 0.07398 0.7557 0.44417 0.0
C2351 C 0.07631 0.76967 0.52119 0.0
C2352 C 0.08366 0.77359 0.51744 0.0
C2353 C 0.07263 0.79304 0.52749 0.0
C2354 C 0.07445 0.75344 0.59437 0.0
C2355 C 0.07137 0.73378 0.56322 0.0
C2356 C 0.06901 0.71654 0.61775 0.0
C2357 C 0.06972 0.7195 0.70611 0.0
C2358 C 0.07285 0.73938 0.74023 0.0
C2359 C 0.07527 0.75657 0.6832 0.0
H2360 H 0.31477 0.73428 0.08203 0.0
H2361 H 0.33327 0.76798 1.03309 0.0
H2362 H 0.33471 0.77458 0.18466 0.0
H2363 H 0.30992 0.772 0.25936 0.0
H2364 H 0.30644 0.7489 0.32235 0.0
H2365 H 0.30656 0.74658 0.20802 0.0
H2366 H 0.31255 0.70694 0.21915 0.0
H2367 H 0.31246 0.70917 0.3335 0.0
H2368 H 0.32002 0.70521 0.27776 0.0
H2369 H 0.33448 0.77843 0.33781 0.0
H2370 H 0.33278 0.77787 0.49145 0.0
H2371 H 0.31459 0.74106 0.45597 0.0
C2372 C 0.31912 0.743 0.10343 0.0
C2373 C 0.3239 0.75047 0.044 0.0
C2374 C 0.32951 0.76182 0.07562 0.0
C2375 C 0.3304 0.76581 0.16238 0.0
C2376 C 0.32566 0.75834 0.21877 0.0
C2377 C 0.32014 0.74703 0.19159 0.0
C2378 C 0.31595 0.74055 0.26856 0.0
C2379 C 0.30933 0.75274 0.26428 0.0
C2380 C 0.3152 0.71388 0.27513 0.0
C2381 C 0.32001 0.75019 0.34209 0.0
C2382 C 0.32556 0.76038 0.31058 0.0
C2383 C 0.33015 0.7705 0.36351 0.0
C2384 C 0.32912 0.77008 0.45131 0.0
C2385 C 0.32353 0.75953 0.4871 0.0
C2386 C 0.31887 0.74954 0.43113 0.0
H2387 H 0.94274 0.51922 0.46278 0.0
H2388 H 0.95656 0.46292 0.49662 0.0
H2389 H 0.95789 0.45988 0.34052 0.0
H2390 H 0.93508 0.4986 0.2691 0.0
H2391 H 0.93457 0.52707 0.22054 0.0
H2392 H 0.93448 0.52442 0.33466 0.0
H2393 H 0.94423 0.55251 0.34499 0.0
H2394 H 0.94437 0.55522 0.23083 0.0
H2395 H 0.95153 0.54592 0.2866 0.0
H2396 H 0.95807 0.46364 0.18122 0.0
H2397 H 0.9569 0.47326 1.02893 0.0
H2398 H 0.94292 0.52718 0.0923 0.0
C2399 C 0.94595 0.50599 0.43692 0.0
C2400 C 0.94945 0.49088 0.49199 0.0
C2401 C 0.95377 0.47438 0.45585 0.0
C2402 C 0.95457 0.47261 0.36715 0.0
C2403 C 0.9511 0.48777 0.31454 0.0
C2404 C 0.94689 0.50424 0.34784 0.0
C2405 C 0.94401 0.51908 0.27653 0.0
C2406 C 0.93659 0.51716 0.27514 0.0
C2407 C 0.94616 0.5447 0.28529 0.0
C2408 C 0.94705 0.50777 0.19797 0.0
C2409 C 0.95122 0.49 0.22197 0.0
C2410 C 0.95481 0.47747 0.16191 0.0
C2411 C 0.95413 0.48311 0.07539 0.0
C2412 C 0.94983 0.50092 0.04842 0.0
C2413 C 0.94621 0.51337 0.11083 0.0
H2414 H 0.32664 0.46729 0.88529 0.0
H2415 H 0.31666 0.53231 0.82963 0.0
H2416 H 0.31608 0.54134 0.98257 0.0
H2417 H 0.31687 0.45508 0.07552 0.0
H2418 H 0.3234 0.44195 0.13438 0.0
H2419 H 0.32334 0.44029 1.01994 0.0
H2420 H 0.33467 0.45922 1.01365 0.0
H2421 H 0.33481 0.46067 0.12808 0.0
H2422 H 0.33602 0.48683 0.06625 0.0
H2423 H 0.31623 0.54345 0.14001 0.0
H2424 H 0.31711 0.53849 0.29524 0.0
H2425 H 0.32697 0.47222 0.25743 0.0
C2426 C 0.32437 0.48345 0.90562 0.0
C2427 C 0.32169 0.49913 0.84499 0.0
C2428 C 0.31869 0.51994 0.87442 0.0
C2429 C 0.31836 0.52528 0.96141 0.0
C2430 C 0.32096 0.50951 1.01952 0.0
C2431 C 0.32387 0.48891 0.99343 0.0
C2432 C 0.32598 0.47467 0.07083 0.0
C2433 C 0.32217 0.45163 0.07541 0.0
C2434 C 0.33331 0.47009 0.06959 0.0
C2435 C 0.32406 0.49102 0.14372 0.0
C2436 C 0.32108 0.51082 0.11199 0.0
C2437 C 0.3186 0.52811 0.16558 0.0
C2438 C 0.31913 0.52515 0.25385 0.0
C2439 C 0.32221 0.50526 0.2888 0.0
C2440 C 0.32474 0.48795 0.23266 0.0
H2441 H 0.93942 0.75703 0.87134 0.0
H2442 H 0.96022 0.76156 0.83028 0.0
H2443 H 0.96205 0.75844 0.98246 0.0
H2444 H 0.9396 0.79175 0.07211 0.0
H2445 H 0.93347 0.77452 0.124 0.0
H2446 H 0.93346 0.77741 1.00986 0.0
H2447 H 0.9337 0.73239 0.99431 0.0
H2448 H 0.93373 0.7294 0.10838 0.0
H2449 H 0.94003 0.7159 0.04564 0.0
H2450 H 0.96211 0.75246 0.13462 0.0
H2451 H 0.9603 0.74815 0.28693 0.0
H2452 H 0.93948 0.74954 0.2459 0.0
C2453 C 0.94434 0.75773 0.89467 0.0
C2454 C 0.94966 0.75934 0.83692 0.0
C2455 C 0.95602 0.76005 0.87125 0.0
C2456 C 0.95715 0.75829 0.95845 0.0
C2457 C 0.9519 0.75611 1.01293 0.0
C2458 C 0.9456 0.7562 0.98355 0.0
C2459 C 0.94094 0.75389 0.05911 0.0
C2460 C 0.93661 0.77569 0.06671 0.0
C2461 C 0.93685 0.73156 0.05135 0.0
C2462 C 0.94564 0.75222 0.1341 0.0
C2463 C 0.95193 0.75339 0.10458 0.0
C2464 C 0.95721 0.7517 0.15884 0.0
C2465 C 0.9561 0.7491 0.24601 0.0
C2466 C 0.94973 0.74839 0.28014 0.0
C2467 C 0.94441 0.74991 0.22263 0.0
H2468 H 0.69194 0.22801 0.62793 0.0
H2469 H 0.70932 0.2683 0.57613 0.0
H2470 H 0.71067 0.27569 0.72803 0.0
H2471 H 0.68606 0.26327 0.80552 0.0
H2472 H 0.68341 0.23888 0.86894 0.0
H2473 H 0.68353 0.23655 0.75463 0.0
H2474 H 0.69077 0.19972 0.76542 0.0
H2475 H 0.69069 0.20199 0.87977 0.0
H2476 H 0.69828 0.20123 0.82328 0.0
H2477 H 0.71035 0.27979 0.88213 0.0
H2478 H 0.70868 0.27878 1.036 0.0
H2479 H 0.69174 0.23489 1.00138 0.0
C2480 C 0.69603 0.23833 0.64883 0.0
C2481 C 0.70055 0.24739 0.58883 0.0
C2482 C 0.70582 0.2608 0.61956 0.0
C2483 C 0.70663 0.26528 0.7063 0.0
C2484 C 0.70216 0.25613 0.7634 0.0
C2485 C 0.69699 0.24274 0.73685 0.0
C2486 C 0.69309 0.23461 0.81423 0.0
C2487 C 0.68611 0.24389 0.81057 0.0
C2488 C 0.69321 0.2078 0.82107 0.0
C2489 C 0.69684 0.2459 0.88729 0.0
C2490 C 0.70205 0.25821 0.85535 0.0
C2491 C 0.7063 0.27018 0.90809 0.0
C2492 C 0.70529 0.26949 0.99602 0.0
C2493 C 0.70006 0.25684 1.03209 0.0
C2494 C 0.69574 0.24494 0.97636 0.0
H2495 H 0.07409 0.52999 1.0097 0.0
H2496 H 0.06977 0.45648 0.043 0.0
H2497 H 0.06948 0.45127 0.88686 0.0
H2498 H 0.06314 0.53606 0.82286 0.0
H2499 H 0.06823 0.55776 0.77369 0.0
H2500 H 0.06803 0.5549 0.88775 0.0
H2501 H 0.08053 0.55014 0.88542 0.0
H2502 H 0.08062 0.55173 0.77106 0.0
H2503 H 0.08409 0.52673 0.8239 0.0
H2504 H 0.0692 0.45401 0.72813 0.0
H2505 H 0.06917 0.46426 0.57595 0.0
H2506 H 0.07402 0.53589 0.6385 0.0
C2507 C 0.07318 0.51277 0.98371 0.0
C2508 C 0.07208 0.49343 1.03858 0.0
C2509 C 0.07068 0.47138 1.00234 0.0
C2510 C 0.0705 0.4683 0.91365 0.0
C2511 C 0.0716 0.48756 0.86119 0.0
C2512 C 0.07285 0.50946 0.89454 0.0
C2513 C 0.07349 0.52736 0.82297 0.0
C2514 C 0.06789 0.54509 0.827 0.0
C2515 C 0.08008 0.53971 0.82603 0.0
C2516 C 0.07284 0.51184 0.74441 0.0
C2517 C 0.07156 0.48907 0.76857 0.0
C2518 C 0.07028 0.47172 0.70865 0.0
C2519 C 0.07028 0.4777 0.6221 0.0
C2520 C 0.07173 0.50067 0.59478 0.0
C2521 C 0.07305 0.51802 0.65713 0.0
H2522 H 0.69186 0.52259 0.20209 0.0
H2523 H 0.70973 0.48475 0.25245 0.0
H2524 H 0.71105 0.47701 0.10087 0.0
H2525 H 0.68629 0.48603 1.02691 0.0
H2526 H 0.68333 0.50983 0.96279 0.0
H2527 H 0.68349 0.5126 0.07695 0.0
H2528 H 0.6903 0.55027 0.06315 0.0
H2529 H 0.69018 0.54756 0.94894 0.0
H2530 H 0.6978 0.54949 1.0042 0.0
H2531 H 0.71068 0.47218 0.94713 0.0
H2532 H 0.70893 0.47244 0.79349 0.0
H2533 H 0.69155 0.51445 0.82872 0.0
C2534 C 0.69605 0.51278 0.18097 0.0
C2535 C 0.70071 0.50448 0.24069 0.0
C2536 C 0.70611 0.49168 0.20947 0.0
C2537 C 0.70691 0.48699 0.12282 0.0
C2538 C 0.70231 0.49534 0.06608 0.0
C2539 C 0.69701 0.50818 0.09291 0.0
C2540 C 0.69298 0.51553 1.01572 0.0
C2541 C 0.68611 0.50539 1.02095 0.0
C2542 C 0.6928 0.5423 1.00753 0.0
C2543 C 0.69682 0.50443 0.94254 0.0
C2544 C 0.70217 0.49287 0.97423 0.0
C2545 C 0.70651 0.4812 0.92137 0.0
C2546 C 0.70545 0.48145 0.83354 0.0
C2547 C 0.70009 0.49337 0.79764 0.0
C2548 C 0.69567 0.50495 0.85356 0.0
H2549 H 0.07934 0.27079 0.84078 0.0
H2550 H 0.06306 0.22522 0.78959 0.0
H2551 H 0.06199 0.21706 0.94289 0.0
H2552 H 0.0864 0.23941 1.01582 0.0
H2553 H 0.0882 0.26492 0.07894 0.0
H2554 H 0.08787 0.2671 0.96476 0.0
H2555 H 0.07934 0.3001 0.97719 0.0
H2556 H 0.07966 0.29809 0.09147 0.0
H2557 H 0.07203 0.29509 1.03729 0.0
H2558 H 0.06259 0.21328 0.1003 0.0
H2559 H 0.0643 0.2162 0.2549 0.0
H2560 H 0.07998 0.26516 0.21324 0.0
C2561 C 0.07555 0.25913 0.86218 0.0
C2562 C 0.07127 0.24861 0.80262 0.0
C2563 C 0.06635 0.23365 0.83351 0.0
C2564 C 0.06573 0.22879 0.92069 0.0
C2565 C 0.06998 0.23935 0.97767 0.0
C2566 C 0.07474 0.25454 0.95025 0.0
C2567 C 0.0784 0.26446 1.02668 0.0
C2568 C 0.08565 0.25861 1.02119 0.0
C2569 C 0.07729 0.29101 1.03356 0.0
C2570 C 0.07515 0.25165 0.10061 0.0
C2571 C 0.07027 0.23742 0.07012 0.0
C2572 C 0.0664 0.22433 0.1248 0.0
C2573 C 0.06742 0.22604 0.21281 0.0
C2574 C 0.07233 0.24055 0.24685 0.0
C2575 C 0.0763 0.25342 0.18946 0.0
H2576 H 0.81453 0.23345 0.08425 0.0
H2577 H 0.83234 0.2716 1.03483 0.0
H2578 H 0.83385 0.27763 0.1863 0.0
H2579 H 0.80928 0.26909 0.26631 0.0
H2580 H 0.80629 0.24485 0.32794 0.0
H2581 H 0.80629 0.24332 0.21343 0.0
H2582 H 0.81294 0.205 0.2195 0.0
H2583 H 0.81299 0.20645 0.33401 0.0
H2584 H 0.82052 0.20456 0.27618 0.0
H2585 H 0.8339 0.27985 0.33976 0.0
H2586 H 0.83244 0.27789 0.49373 0.0
H2587 H 0.81469 0.23829 0.45883 0.0
C2588 C 0.81873 0.24308 0.10552 0.0
C2589 C 0.82332 0.25183 0.04583 0.0
C2590 C 0.82875 0.26435 0.07741 0.0
C2591 C 0.82967 0.26804 0.16421 0.0
C2592 C 0.82516 0.25914 0.22087 0.0
C2593 C 0.81979 0.24687 0.19384 0.0
C2594 C 0.81584 0.23898 0.2712 0.0
C2595 C 0.80902 0.2497 0.2696 0.0
C2596 C 0.81556 0.21215 0.27547 0.0
C2597 C 0.81984 0.24897 0.34466 0.0
C2598 C 0.82519 0.26046 0.31287 0.0
C2599 C 0.82972 0.27095 0.3657 0.0
C2600 C 0.82884 0.26969 0.4537 0.0
C2601 C 0.82344 0.25802 0.48971 0.0
C2602 C 0.81884 0.24758 0.43385 0.0
H2603 H 0.44065 0.00671 0.45512 0.0
H2604 H 0.45913 0.97202 0.49418 0.0
H2605 H 0.46094 0.97091 0.34 0.0
H2606 H 0.43618 0.97594 0.25897 0.0
H2607 H 0.4328 0.00137 0.20783 0.0
H2608 H 0.43268 0.99914 0.32211 0.0
H2609 H 0.43864 0.03871 0.33381 0.0
H2610 H 0.43879 0.04105 0.21954 0.0
H2611 H 0.44623 0.04262 0.27888 0.0
H2612 H 0.46127 0.97504 0.18424 0.0
H2613 H 0.45976 0.98204 1.0315 0.0
H2614 H 0.44093 0.01299 0.08227 0.0
C2615 C 0.44502 0.99855 0.43091 0.0
C2616 C 0.44974 0.98934 0.48772 0.0
C2617 C 0.45544 0.97926 0.45293 0.0
C2618 C 0.45653 0.97853 0.365 0.0
C2619 C 0.45189 0.98805 0.31105 0.0
C2620 C 0.44623 0.99781 0.34197 0.0
C2621 C 0.44219 0.00733 0.26818 0.0
C2622 C 0.43557 0.99521 0.26404 0.0
C2623 C 0.44142 0.03401 0.27558 0.0
C2624 C 0.44642 0.00086 0.19162 0.0
C2625 C 0.45203 0.99009 0.21886 0.0
C2626 C 0.45687 0.98335 0.16208 0.0
C2627 C 0.45598 0.98758 0.07513 0.0
C2628 C 0.45025 0.99817 0.04417 0.0
C2629 C 0.44536 0.00477 0.10362 0.0
H2630 H 0.82589 0.96557 0.88183 0.0
H2631 H 0.8185 0.03467 0.8223 0.0
H2632 H 0.81806 0.04428 0.97505 0.0
H2633 H 0.81549 0.95865 0.07026 0.0
H2634 H 0.82141 0.94244 0.13014 0.0
H2635 H 0.82139 0.94082 1.01567 0.0
H2636 H 0.83336 0.95391 1.01208 0.0
H2637 H 0.8334 0.95548 0.12649 0.0
H2638 H 0.83567 0.98068 0.06454 0.0
H2639 H 0.81797 0.04644 0.13355 0.0
H2640 H 0.81848 0.0412 0.28932 0.0
H2641 H 0.82599 0.97103 0.25324 0.0
C2642 C 0.82423 0.98275 0.90128 0.0
C2643 C 0.82224 0.99944 0.83968 0.0
C2644 C 0.82001 0.02158 0.86793 0.0
C2645 C 0.81975 0.02723 0.95478 0.0
C2646 C 0.82165 0.01045 1.01394 0.0
C2647 C 0.82381 0.98858 0.98886 0.0
C2648 C 0.82525 0.97359 0.06693 0.0
C2649 C 0.82061 0.95263 0.07098 0.0
C2650 C 0.83235 0.96545 0.06751 0.0
C2651 C 0.82386 0.99083 0.13907 0.0
C2652 C 0.82167 0.01183 0.10655 0.0
C2653 C 0.81974 0.03015 0.15968 0.0
C2654 C 0.82005 0.02704 0.24822 0.0
C2655 C 0.82239 0.00596 0.28373 0.0
C2656 C 0.82434 0.98759 0.22809 0.0
H2657 H 0.44125 0.23658 0.8693 0.0
H2658 H 0.45828 0.27942 0.82956 0.0
H2659 H 0.46005 0.28111 0.9844 0.0
H2660 H 0.4356 0.26358 0.06696 0.0
H2661 H 0.43332 0.23638 0.11625 0.0
H2662 H 0.43312 0.23916 1.0022 0.0
H2663 H 0.44066 0.20319 0.98739 0.0
H2664 H 0.44089 0.20033 0.10146 0.0
H2665 H 0.44832 0.20298 0.04199 0.0
H2666 H 0.46045 0.27679 0.1424 0.0
H2667 H 0.45914 0.26803 0.29515 0.0
H2668 H 0.44176 0.22854 0.2401 0.0
C2669 C 0.44527 0.24672 0.89352 0.0
C2670 C 0.44958 0.25823 0.83669 0.0
C2671 C 0.45489 0.27062 0.87123 0.0
C2672 C 0.45595 0.27165 0.95938 0.0
C2673 C 0.45171 0.2599 1.01348 0.0
C2674 C 0.44646 0.24764 0.98228 0.0
C2675 C 0.44286 0.23573 0.0553 0.0
C2676 C 0.43581 0.24424 0.06047 0.0
C2677 C 0.4432 0.20897 0.04594 0.0
C2678 C 0.44677 0.24388 0.13211 0.0
C2679 C 0.45192 0.25748 0.10581 0.0
C2680 C 0.45642 0.26623 0.16363 0.0
C2681 C 0.45566 0.26106 0.2504 0.0
C2682 C 0.45037 0.24756 0.27981 0.0
C2683 C 0.44584 0.23898 0.21961 0.0
H2684 H 0.1916 0.76581 0.99799 0.0
H2685 H 0.21022 0.73342 0.0482 0.0
H2686 H 0.21169 0.72583 0.89555 0.0
H2687 H 0.18663 0.72849 0.82308 0.0
H2688 H 0.18323 0.7518 0.76021 0.0
H2689 H 0.18342 0.75426 0.87443 0.0
H2690 H 0.18959 0.7934 0.86191 0.0
H2691 H 0.18941 0.79105 0.74764 0.0
H2692 H 0.19703 0.79445 0.80188 0.0
H2693 H 0.21144 0.72212 0.73926 0.0
H2694 H 0.20965 0.7236 0.58478 0.0
H2695 H 0.19126 0.7587 0.62608 0.0
C2696 C 0.19597 0.75711 0.97653 0.0
C2697 C 0.20082 0.75033 1.03565 0.0
C2698 C 0.20648 0.7391 1.00468 0.0
C2699 C 0.20735 0.73455 0.91781 0.0
C2700 C 0.20255 0.74157 0.86122 0.0
C2701 C 0.19699 0.75282 0.88865 0.0
C2702 C 0.1928 0.75944 0.81238 0.0
C2703 C 0.18612 0.74779 0.81788 0.0
C2704 C 0.19217 0.78617 0.80555 0.0
C2705 C 0.19679 0.74951 0.73861 0.0
C2706 C 0.20242 0.73945 0.76907 0.0
C2707 C 0.20705 0.72985 0.71465 0.0
C2708 C 0.20598 0.73076 0.62673 0.0
C2709 C 0.20029 0.74096 0.5928 0.0
C2710 C 0.19559 0.7503 0.64992 0.0
H2711 H 0.56443 0.99261 0.62303 0.0
H2712 H 0.58286 0.02762 0.58434 0.0
H2713 H 0.58452 0.02912 0.73809 0.0
H2714 H 0.55989 0.02509 0.81696 0.0
H2715 H 0.55635 0.00023 0.86956 0.0
H2716 H 0.55633 0.0019 0.7551 0.0
H2717 H 0.5621 0.96177 0.74639 0.0
H2718 H 0.56212 0.95999 0.86079 0.0
H2719 H 0.56961 0.95745 0.80247 0.0
H2720 H 0.5846 0.0266 0.89275 0.0
H2721 H 0.58306 0.02078 0.045 0.0
H2722 H 0.5645 0.98762 0.9969 0.0
C2723 C 0.56877 0.00088 0.6471 0.0
C2724 C 0.57349 0.01013 0.59013 0.0
C2725 C 0.57914 0.02043 0.62513 0.0
C2726 C 0.58014 0.02138 0.71304 0.0
C2727 C 0.57548 0.01204 0.76694 0.0
C2728 C 0.56988 0.00203 0.73613 0.0
C2729 C 0.56575 0.99313 0.81037 0.0
C2730 C 0.55919 0.00585 0.81315 0.0
C2731 C 0.56484 0.9665 0.80463 0.0
C2732 C 0.56994 -0.00025 0.88691 0.0
C2733 C 0.57552 0.01059 0.85912 0.0
C2734 C 0.58025 0.01816 0.9154 0.0
C2735 C 0.57931 0.01463 1.00251 0.0
C2736 C 0.57366 0.00358 1.03456 0.0
C2737 C 0.56887 0.99614 0.97526 0.0
H2738 H 0.20888 0.00169 0.83514 0.0
H2739 H 0.18811 0.00274 0.78973 0.0
H2740 H 0.1861 0.00501 0.94204 0.0
H2741 H 0.20804 0.96606 1.02974 0.0
H2742 H 0.21431 0.98179 0.08488 0.0
H2743 H 0.21441 0.98007 0.97042 0.0
H2744 H 0.21471 0.02519 0.96147 0.0
H2745 H 0.21459 0.02707 0.0759 0.0
H2746 H 0.20852 0.04212 1.01449 0.0
H2747 H 0.18593 0.00861 0.0956 0.0
H2748 H 0.18764 0.01099 0.2489 0.0
H2749 H 0.20846 0.00642 0.20964 0.0
C2750 C 0.20392 0.00219 0.85749 0.0
C2751 C 0.19867 0.0022 0.79877 0.0
C2752 C 0.19226 0.00298 0.83167 0.0
C2753 C 0.19103 0.00424 0.91887 0.0
C2754 C 0.19623 0.00461 0.9745 0.0
C2755 C 0.20256 0.00344 0.94613 0.0
C2756 C 0.20716 0.00419 1.02237 0.0
C2757 C 0.21122 0.98169 1.02713 0.0
C2758 C 0.2115 0.02594 1.01829 0.0
C2759 C 0.20239 0.00586 0.0969 0.0
C2760 C 0.19613 0.00626 0.0665 0.0
C2761 C 0.19081 0.00824 0.12044 0.0
C2762 C 0.19186 0.00972 0.20809 0.0
C2763 C 0.19819 0.00903 0.2428 0.0
C2764 C 0.20355 0.00702 0.18578 0.0
H2765 H 0.56324 0.73905 0.82842 0.0
H2766 H 0.58308 0.76142 0.78654 0.0
H2767 H 0.58497 0.76149 0.94002 0.0
H2768 H 0.5605 0.77291 1.02433 0.0
H2769 H 0.55592 0.75036 0.07696 0.0
H2770 H 0.55585 0.75237 0.9626 0.0
H2771 H 0.55968 0.7094 0.95139 0.0
H2772 H 0.55978 0.70724 0.06572 0.0
H2773 H 0.56697 0.70048 1.00531 0.0
H2774 H 0.58518 0.75771 0.09452 0.0
H2775 H 0.5835 0.75238 0.24732 0.0
H2776 H 0.56345 0.73343 0.20194 0.0
C2777 C 0.56795 0.74424 0.85186 0.0
C2778 C 0.57302 0.7502 0.7943 0.0
C2779 C 0.57912 0.75659 0.82817 0.0
C2780 C 0.58026 0.75673 0.91578 0.0
C2781 C 0.57526 0.75041 0.97041 0.0
C2782 C 0.56921 0.74439 0.94061 0.0
C2783 C 0.5648 0.73793 1.0154 0.0
C2784 C 0.55892 0.75438 1.02009 0.0
C2785 C 0.56268 0.71224 1.00904 0.0
C2786 C 0.56934 0.74161 0.09108 0.0
C2787 C 0.57535 0.74856 0.06244 0.0
C2788 C 0.58048 0.75234 0.11787 0.0
C2789 C 0.57947 0.74908 0.20505 0.0
C2790 C 0.57336 0.74228 0.23774 0.0
C2791 C 0.56818 0.73864 0.17946 0.0
H2792 H 0.82967 0.76881 0.57101 0.0
H2793 H 0.81441 0.71748 0.53717 0.0
H2794 H 0.81293 0.71542 0.69145 0.0
H2795 H 0.83649 0.74358 0.76516 0.0
H2796 H 0.83802 0.7713 0.8159 0.0
H2797 H 0.8381 0.76911 0.70155 0.0
H2798 H 0.82949 0.8019 0.69211 0.0
H2799 H 0.82939 0.80423 0.80644 0.0
H2800 H 0.82198 0.79888 0.74954 0.0
H2801 H 0.81271 0.7187 0.8457 0.0
H2802 H 0.81389 0.72634 0.99731 0.0
H2803 H 0.82942 0.77548 0.94482 0.0
C2804 C 0.82608 0.75692 0.59632 0.0
C2805 C 0.82218 0.74315 0.54079 0.0
C2806 C 0.81747 0.72818 0.57711 0.0
C2807 C 0.81658 0.72687 0.66522 0.0
C2808 C 0.82041 0.74065 0.71776 0.0
C2809 C 0.82509 0.75541 0.6855 0.0
C2810 C 0.82842 0.76845 0.7584 0.0
C2811 C 0.83569 0.76276 0.76036 0.0
C2812 C 0.82725 0.79494 0.75117 0.0
C2813 C 0.82493 0.75837 0.83611 0.0
C2814 C 0.82031 0.74254 0.8098 0.0
C2815 C 0.81631 0.73105 0.86719 0.0
C2816 C 0.81702 0.73568 0.9539 0.0
C2817 C 0.82172 0.75169 0.98455 0.0
C2818 C 0.82578 0.76314 0.92419 0.0
H2819 H 0.45639 0.4743 0.95037 0.0
H2820 H 0.43991 0.5193 1.0027 0.0
H2821 H 0.43871 0.52705 0.84959 0.0
H2822 H 0.46318 0.50575 0.77322 0.0
H2823 H 0.46508 0.48022 0.71042 0.0
H2824 H 0.46484 0.47824 0.82471 0.0
H2825 H 0.45648 0.44478 0.81463 0.0
H2826 H 0.45672 0.4466 0.70025 0.0
H2827 H 0.44911 0.44931 0.75566 0.0
H2828 H 0.43917 0.53048 0.69258 0.0
H2829 H 0.4408 0.52739 0.53781 0.0
H2830 H 0.45679 0.47939 0.57777 0.0
C2831 C 0.45254 0.48578 0.92929 0.0
C2832 C 0.44823 0.49624 0.98918 0.0
C2833 C 0.44322 0.51092 0.95862 0.0
C2834 C 0.44253 0.51555 0.87151 0.0
C2835 C 0.4468 0.50506 0.81425 0.0
C2836 C 0.45165 0.49016 0.84125 0.0
C2837 C 0.45532 0.48027 0.76447 0.0
C2838 C 0.46254 0.48651 0.76848 0.0
C2839 C 0.45435 0.45366 0.7584 0.0
C2840 C 0.45194 0.49277 0.69089 0.0
C2841 C 0.44701 0.50681 0.72185 0.0
C2842 C 0.44303 0.51959 0.66765 0.0
C2843 C 0.444 0.51776 0.57957 0.0
C2844 C 0.44897 0.50346 0.54513 0.0
C2845 C 0.45305 0.49092 0.60197 0.0
H2846 H 0.82957 0.51601 0.37885 0.0
H2847 H 0.81499 0.46275 0.34049 0.0
H2848 H 0.81352 0.45944 0.49616 0.0
H2849 H 0.8368 0.49273 0.57212 0.0
H2850 H 0.83774 0.52084 0.62267 0.0
H2851 H 0.83787 0.51862 0.50838 0.0
H2852 H 0.8286 0.54899 0.49898 0.0
H2853 H 0.82843 0.55127 0.61328 0.0
H2854 H 0.82117 0.5439 0.55614 0.0
H2855 H 0.81324 0.46282 0.65481 0.0
H2856 H 0.81435 0.47176 0.8075 0.0
H2857 H 0.82927 0.52254 0.75006 0.0
C2858 C 0.82616 0.50337 0.40367 0.0
C2859 C 0.82247 0.48921 0.3475 0.0
C2860 C 0.81791 0.47347 0.3822 0.0
C2861 C 0.81704 0.47155 0.47062 0.0
C2862 C 0.82069 0.48577 0.52437 0.0
C2863 C 0.82516 0.50144 0.49255 0.0
C2864 C 0.82823 0.5153 0.56514 0.0
C2865 C 0.8356 0.51164 0.56718 0.0
C2866 C 0.82651 0.54141 0.55792 0.0
C2867 C 0.82495 0.5044 0.64259 0.0
C2868 C 0.82054 0.48767 0.61691 0.0
C2869 C 0.81669 0.47581 0.67549 0.0
C2870 C 0.81734 0.48108 0.76231 0.0
C2871 C 0.82189 0.4978 0.79113 0.0
C2872 C 0.82578 0.50954 0.73016 0.0
H2873 H 0.44319 0.77106 0.75682 0.0
H2874 H 0.45616 0.71192 0.78958 0.0
H2875 H 0.45733 0.70849 0.63449 0.0
H2876 H 0.43512 0.75065 0.56462 0.0
H2877 H 0.43489 0.77891 0.51405 0.0
H2878 H 0.43483 0.77688 0.62838 0.0
H2879 H 0.44485 0.80357 0.63577 0.0
H2880 H 0.445 0.8057 0.52149 0.0
H2881 H 0.45207 0.79571 0.57774 0.0
H2882 H 0.45744 0.71131 0.47854 0.0
H2883 H 0.45648 0.72011 0.32654 0.0
H2884 H 0.44338 0.77752 0.38425 0.0
C2885 C 0.44618 0.75718 0.73104 0.0
C2886 C 0.44952 0.74152 0.78606 0.0
C2887 C 0.45353 0.72404 0.74949 0.0
C2888 C 0.45423 0.72194 0.66114 0.0
C2889 C 0.45095 0.7376 0.60887 0.0
C2890 C 0.44701 0.75497 0.64183 0.0
C2891 C 0.44426 0.7699 0.5697 0.0
C2892 C 0.43683 0.76902 0.56917 0.0
C2893 C 0.44669 0.79522 0.5766 0.0
C2894 C 0.44713 0.75773 0.49152 0.0
C2895 C 0.45103 0.73932 0.51666 0.0
C2896 C 0.45441 0.72569 0.45806 0.0
C2897 C 0.45385 0.73095 0.37148 0.0
C2898 C 0.44989 0.7496 0.34267 0.0
C2899 C 0.44642 0.76308 0.4039 0.0
H2900 H 0.20741 0.26184 0.12446 0.0
H2901 H 0.19054 0.21774 0.08822 0.0
H2902 H 0.18901 0.21563 0.2426 0.0
H2903 H 0.21335 0.23314 0.31755 0.0
H2904 H 0.21578 0.25984 0.36933 0.0
H2905 H 0.2158 0.25797 0.2549 0.0
H2906 H 0.20833 0.29426 0.24683 0.0
H2907 H 0.2083 0.29625 0.36122 0.0
H2908 H 0.20077 0.29431 0.3042 0.0
H2909 H 0.18891 0.21844 0.3978 0.0
H2910 H 0.1903 0.22542 0.54976 0.0
H2911 H 0.20734 0.26759 0.49802 0.0
C2912 C 0.20345 0.25146 0.14921 0.0
C2913 C 0.19912 0.23977 0.09298 0.0
C2914 C 0.19394 0.22682 0.1287 0.0
C2915 C 0.19302 0.22549 0.21685 0.0
C2916 C 0.1973 0.23726 0.27008 0.0
C2917 C 0.20242 0.25002 0.23836 0.0
C2918 C 0.20616 0.26131 0.31174 0.0
C2919 C 0.21319 0.25254 0.31347 0.0
C2920 C 0.20587 0.28812 0.3056 0.0
C2921 C 0.20236 0.25258 0.38906 0.0
C2922 C 0.19725 0.23889 0.36232 0.0
C2923 C 0.1929 0.22912 0.41955 0.0
C2924 C 0.19373 0.23336 0.50643 0.0
C2925 C 0.19892 0.24721 0.53737 0.0
C2926 C 0.20334 0.25686 0.4772 0.0
H2927 H 0.56571 0.51984 0.50232 0.0
H2928 H 0.58017 0.4659 0.5421 0.0
H2929 H 0.5818 0.46261 0.38703 0.0
H2930 H 0.55867 0.49702 0.30685 0.0
H2931 H 0.55787 0.52519 0.25654 0.0
H2932 H 0.55759 0.52297 0.37074 0.0
H2933 H 0.56685 0.55282 0.38183 0.0
H2934 H 0.56731 0.55501 0.26774 0.0
H2935 H 0.57441 0.54729 0.32791 0.0
H2936 H 0.58232 0.46597 0.22931 0.0
H2937 H 0.58137 0.47461 0.0763 0.0
H2938 H 0.56644 0.526 0.13061 0.0
C2939 C 0.56912 0.50703 0.47793 0.0
C2940 C 0.57274 0.49273 0.53453 0.0
C2941 C 0.5773 0.4768 0.50021 0.0
C2942 C 0.57827 0.47486 0.41208 0.0
C2943 C 0.57472 0.48927 0.35799 0.0
C2944 C 0.57023 0.5051 0.38915 0.0
C2945 C 0.56729 0.5191 0.31596 0.0
C2946 C 0.55992 0.51586 0.31231 0.0
C2947 C 0.56907 0.5451 0.32384 0.0
C2948 C 0.57064 0.508 0.23907 0.0
C2949 C 0.575 0.49115 0.2656 0.0
C2950 C 0.5789 0.47907 0.20787 0.0
C2951 C 0.57835 0.48419 0.1209 0.0
C2952 C 0.57385 0.50097 0.09108 0.0
C2953 C 0.56991 0.51298 0.15129 0.0
H2954 H 0.20705 0.51596 0.32505 0.0
H2955 H 0.18975 0.47462 0.2842 0.0
H2956 H 0.18799 0.47238 0.43861 0.0
H2957 H 0.2125 0.48681 0.52028 0.0
H2958 H 0.21504 0.51337 0.57214 0.0
H2959 H 0.21522 0.51131 0.4578 0.0
H2960 H 0.20803 0.54829 0.44742 0.0
H2961 H 0.20781 0.55041 0.56177 0.0
H2962 H 0.20037 0.54909 0.50243 0.0
H2963 H 0.18753 0.47619 0.59506 0.0
H2964 H 0.18886 0.48345 0.74823 0.0
H2965 H 0.20664 0.52129 0.69818 0.0
C2966 C 0.20298 0.50603 0.34897 0.0
C2967 C 0.19856 0.49522 0.29177 0.0
C2968 C 0.19321 0.48298 0.32603 0.0
C2969 C 0.19215 0.48163 0.41398 0.0
C2970 C 0.19647 0.49276 0.46844 0.0
C2971 C 0.20181 0.50466 0.43791 0.0
C2972 C 0.20552 0.51561 0.51206 0.0
C2973 C 0.21248 0.5062 0.51578 0.0
C2974 C 0.20543 0.54244 0.5055 0.0
C2975 C 0.20152 0.50741 0.58843 0.0
C2976 C 0.19627 0.49463 0.56081 0.0
C2977 C 0.19166 0.48604 0.6175 0.0
C2978 C 0.19243 0.4904 0.7047 0.0
C2979 C 0.19784 0.50294 0.73602 0.0
C2980 C 0.20247 0.51149 0.67662 0.0
H2981 H 0.56409 0.23283 0.32852 0.0
H2982 H 0.58191 0.27133 0.28745 0.0
H2983 H 0.58372 0.27302 0.44143 0.0
H2984 H 0.55912 0.26315 0.52484 0.0
H2985 H 0.55617 0.23717 0.57667 0.0
H2986 H 0.55601 0.23924 0.46236 0.0
H2987 H 0.56259 0.20086 0.45082 0.0
H2988 H 0.56281 0.1987 0.56511 0.0
H2989 H 0.57024 0.19849 0.50502 0.0
H2990 H 0.58418 0.26895 0.59683 0.0
H2991 H 0.5828 0.26215 0.74985 0.0
H2992 H 0.56449 0.22752 0.70188 0.0
C2993 C 0.56829 0.24202 0.3523 0.0
C2994 C 0.57285 0.25211 0.29502 0.0
C2995 C 0.57835 0.26345 0.32918 0.0
C2996 C 0.57944 0.26449 0.41696 0.0
C2997 C 0.57499 0.25405 0.47142 0.0
C2998 C 0.56949 0.24315 0.44117 0.0
C2999 C 0.56563 0.23296 0.51558 0.0
C3000 C 0.55883 0.24379 0.52012 0.0
C3001 C 0.5653 0.20616 0.50869 0.0
C3002 C 0.56977 0.24036 0.59165 0.0
C3003 C 0.57519 0.25214 0.56359 0.0
C3004 C 0.57993 0.2599 0.61969 0.0
C3005 C 0.57911 0.25579 0.70688 0.0
C3006 C 0.57355 0.24428 0.73884 0.0
C3007 C 0.56878 0.23652 0.67992 0.0
H3008 H 0.32001 0.43087 0.36627 0.0
H3009 H 0.32692 0.42294 0.62455 0.0
H3010 H 0.32921 0.381 0.59607 0.0
H3011 H 0.31185 0.37875 0.34951 0.0
H3012 H 0.31403 0.37281 0.24049 0.0
H3013 H 0.31376 0.40246 0.27837 0.0
H3014 H 0.32566 0.40862 0.2308 0.0
H3015 H 0.3259 0.37898 0.19162 0.0
H3016 H 0.33184 0.3888 0.2674 0.0
H3017 H 0.32917 0.3389 0.545 0.0
H3018 H 0.32712 0.3008 0.47573 0.0
H3019 H 0.32078 0.33625 0.24779 0.0
C3020 C 0.32214 0.4204 0.41634 0.0
C3021 C 0.3233 0.43013 0.4977 0.0
C3022 C 0.32605 0.41589 0.56164 0.0
C3023 C 0.32736 0.39206 0.5459 0.0
C3024 C 0.32602 0.38288 0.46533 0.0
C3025 C 0.32355 0.39675 0.40123 0.0
C3026 C 0.32221 0.3825 0.32163 0.0
C3027 C 0.31504 0.38423 0.29608 0.0
C3028 C 0.32667 0.39018 0.24851 0.0
C3029 C 0.32396 0.35813 0.35209 0.0
C3030 C 0.32623 0.35878 0.43488 0.0
C3031 C 0.32758 0.3383 0.47951 0.0
C3032 C 0.32644 0.31671 0.43953 0.0
C3033 C 0.32405 0.31562 0.35541 0.0
C3034 C 0.3229 0.33662 0.31064 0.0
H3035 H 0.9484 0.8458 0.59633 0.0
H3036 H 0.95188 0.80154 0.37651 0.0
H3037 H 0.95206 0.83619 0.28412 0.0
H3038 H 0.93768 0.88779 0.47903 0.0
H3039 H 0.94057 0.91287 0.53704 0.0
H3040 H 0.94038 0.88456 0.58728 0.0
H3041 H 0.9526 0.88788 0.62139 0.0
H3042 H 0.9528 0.9162 0.57174 0.0
H3043 H 0.95826 0.89351 0.53637 0.0
H3044 H 0.95302 0.87565 0.21636 0.0
H3045 H 0.95413 0.91743 0.1779 0.0
H3046 H 0.94918 0.93729 0.43581 0.0
C3047 C 0.94911 0.84347 0.52864 0.0
C3048 C 0.9501 0.8208 0.49388 0.0
C3049 C 0.95104 0.81857 0.40484 0.0
C3050 C 0.95117 0.83822 0.35156 0.0
C3051 C 0.9502 0.86026 0.38732 0.0
C3052 C 0.9491 0.86307 0.47357 0.0
C3053 C 0.94822 0.88895 0.49472 0.0
C3054 C 0.9413 0.89382 0.52642 0.0
C3055 C 0.95327 0.89711 0.55991 0.0
C3056 C 0.94935 0.90014 0.408 0.0
C3057 C 0.95043 0.88317 0.34688 0.0
C3058 C 0.95202 0.88907 0.26325 0.0
C3059 C 0.95261 0.91284 0.24172 0.0
C3060 C 0.95152 0.93056 0.3029 0.0
C3061 C 0.9498 0.92408 0.38698 0.0
H3062 H 0.31604 0.92872 0.87614 0.0
H3063 H 0.32996 0.92766 0.0818 0.0
H3064 H 0.33279 0.88655 0.04439 0.0
H3065 H 0.31005 0.87212 0.90625 0.0
H3066 H 0.30891 0.86636 0.79456 0.0
H3067 H 0.30857 0.8959 0.83368 0.0
H3068 H 0.31753 0.90781 0.72663 0.0
H3069 H 0.31793 0.87819 0.68756 0.0
H3070 H 0.32514 0.89231 0.7264 0.0
H3071 H 0.3334 0.84386 0.98828 0.0
H3072 H 0.33136 0.80464 0.92604 0.0
H3073 H 0.31693 0.83447 0.75937 0.0
C3074 C 0.31974 0.92 0.91305 0.0
C3075 C 0.32278 0.93147 0.98203 0.0
C3076 C 0.32758 0.91929 1.02859 0.0
C3077 C 0.32922 0.89595 1.00753 0.0
C3078 C 0.32605 0.88509 0.93943 0.0
C3079 C 0.3214 0.89687 0.89309 0.0
C3080 C 0.31838 0.88124 0.82619 0.0
C3081 C 0.31105 0.87875 0.84112 0.0
C3082 C 0.31983 0.89044 0.73637 0.0
C3083 C 0.32192 0.85847 0.84283 0.0
C3084 C 0.3264 0.86102 0.90756 0.0
C3085 C 0.32999 0.8419 0.93671 0.0
C3086 C 0.32884 0.8197 0.90054 0.0
C3087 C 0.32416 0.81672 0.83591 0.0
C3088 C 0.32072 0.83644 0.80633 0.0
H3089 H 0.95959 0.41947 0.82134 0.0
H3090 H 0.93947 0.44001 0.84088 0.0
H3091 H 0.93682 0.40113 0.90256 0.0
H3092 H 0.9564 0.35816 0.76187 0.0
H3093 H 0.96341 0.34799 0.81904 0.0
H3094 H 0.96337 0.37681 0.77317 0.0
H3095 H 0.96609 0.39424 0.92125 0.0
H3096 H 0.96595 0.36554 0.96794 0.0
H3097 H 0.96081 0.38832 1.0101 0.0
H3098 H 0.93684 0.35944 0.97699 0.0
H3099 H 0.93923 0.31938 1.03164 0.0
H3100 H 0.95922 0.32739 0.95365 0.0
C3101 C 0.95459 0.41563 0.83683 0.0
C3102 C 0.94973 0.43275 0.8258 0.0
C3103 C 0.94326 0.42707 0.84752 0.0
C3104 C 0.94173 0.40506 0.88344 0.0
C3105 C 0.94672 0.38874 0.89583 0.0
C3106 C 0.95299 0.39373 0.87074 0.0
C3107 C 0.95752 0.37354 0.88894 0.0
C3108 C 0.96034 0.36354 0.80582 0.0
C3109 C 0.96291 0.38086 0.95073 0.0
C3110 C 0.9529 0.35647 0.93015 0.0
C3111 C 0.94668 0.36535 0.9346 0.0
C3112 C 0.94169 0.3524 0.97269 0.0
C3113 C 0.94309 0.32973 1.0044 0.0
C3114 C 0.94941 0.3202 0.99696 0.0
C3115 C 0.95433 0.33405 0.96015 0.0
H3116 H 0.70217 0.68231 0.63818 0.0
H3117 H 0.69746 0.67017 0.90267 0.0
H3118 H 0.69515 0.62858 0.86985 0.0
H3119 H 0.68976 0.63985 0.54946 0.0
H3120 H 0.69508 0.63127 0.46381 0.0
H3121 H 0.69543 0.66059 0.50606 0.0
H3122 H 0.70767 0.65538 0.53488 0.0
H3123 H 0.70736 0.62612 0.49315 0.0
H3124 H 0.71039 0.63117 0.59899 0.0
H3125 H 0.69494 0.5875 0.81257 0.0
H3126 H 0.69673 0.55031 0.7364 0.0
H3127 H 0.70119 0.58827 0.50579 0.0
C3128 C 0.70044 0.67098 0.68841 0.0
C3129 C 0.69985 0.67949 0.77276 0.0
C3130 C 0.69777 0.66411 0.83748 0.0
C3131 C 0.69648 0.64045 0.81926 0.0
C3132 C 0.69719 0.63246 0.73563 0.0
C3133 C 0.69904 0.64734 0.6709 0.0
C3134 C 0.69984 0.63398 0.5876 0.0
C3135 C 0.69472 0.6419 0.52288 0.0
C3136 C 0.70673 0.63683 0.55161 0.0
C3137 C 0.69858 0.609 0.61656 0.0
C3138 C 0.69693 0.60866 0.70196 0.0
C3139 C 0.69606 0.58766 0.7453 0.0
C3140 C 0.69705 0.56655 0.70131 0.0
C3141 C 0.69887 0.5663 0.61443 0.0
C3142 C 0.69952 0.58788 0.57108 0.0
H3143 H 0.06662 0.06792 0.62212 0.0
H3144 H 0.07883 0.07579 0.84382 0.0
H3145 H 0.08097 0.11714 0.80242 0.0
H3146 H 0.07597 0.10557 0.47878 0.0
H3147 H 0.06877 0.1165 0.42799 0.0
H3148 H 0.06889 0.08735 0.47128 0.0
H3149 H 0.0588 0.09703 0.5633 0.0
H3150 H 0.05862 0.1261 0.52011 0.0
H3151 H 0.05899 0.12197 0.63361 0.0
H3152 H 0.08115 0.15944 0.73597 0.0
H3153 H 0.07868 0.19687 0.66251 0.0
H3154 H 0.06585 0.16023 0.4913 0.0
C3155 C 0.06982 0.07817 0.66187 0.0
C3156 C 0.07256 0.06852 0.73637 0.0
C3157 C 0.0767 0.08269 0.78623 0.0
C3158 C 0.07794 0.10622 0.76296 0.0
C3159 C 0.07503 0.11526 0.68939 0.0
C3160 C 0.07105 0.10146 0.6399 0.0
C3161 C 0.06815 0.11515 0.56692 0.0
C3162 C 0.07059 0.10557 0.48117 0.0
C3163 C 0.0607 0.11506 0.57133 0.0
C3164 C 0.07087 0.13925 0.58429 0.0
C3165 C 0.07498 0.13901 0.65367 0.0
C3166 C 0.07797 0.15959 0.68143 0.0
C3167 C 0.07658 0.1808 0.63888 0.0
C3168 C 0.07213 0.18142 0.57053 0.0
C3169 C 0.06933 0.16025 0.54265 0.0
H3170 H 0.70304 0.068 0.21697 0.0
H3171 H 0.69515 0.07551 0.96344 0.0
H3172 H 0.69296 0.1175 0.99268 0.0
H3173 H 0.69159 0.10947 0.32256 0.0
H3174 H 0.69772 0.11995 0.39434 0.0
H3175 H 0.69802 0.09024 0.35595 0.0
H3176 H 0.70965 0.09689 0.29974 0.0
H3177 H 0.70941 0.12651 0.33812 0.0
H3178 H 0.71119 0.12076 0.22776 0.0
H3179 H 0.69299 0.15981 0.04424 0.0
H3180 H 0.69506 0.19801 0.11267 0.0
H3181 H 0.70248 0.16285 0.33554 0.0
C3182 C 0.70074 0.07839 0.16801 0.0
C3183 C 0.69927 0.06846 0.08773 0.0
C3184 C 0.69628 0.08266 1.02545 0.0
C3185 C 0.69502 0.10653 0.04168 0.0
C3186 C 0.69666 0.11587 0.12113 0.0
C3187 C 0.69938 0.1021 0.18364 0.0
C3188 C 0.70097 0.11646 0.26231 0.0
C3189 C 0.69683 0.10856 0.33829 0.0
C3190 C 0.70824 0.11508 0.28313 0.0
C3191 C 0.69902 0.14079 0.23314 0.0
C3192 C 0.69646 0.14002 0.15185 0.0
C3193 C 0.69482 0.16047 0.10859 0.0
C3194 C 0.69598 0.18214 0.1482 0.0
C3195 C 0.69868 0.1834 0.23071 0.0
C3196 C 0.70013 0.16239 0.27414 0.0
H3197 H 0.06564 0.65964 0.98879 0.0
H3198 H 0.0794 0.69571 0.14872 0.0
H3199 H 0.08176 0.65847 0.22422 0.0
H3200 H 0.05889 0.62462 0.14154 0.0
H3201 H 0.05796 0.59919 0.07489 0.0
H3202 H 0.05804 0.62782 1.02806 0.0
H3203 H 0.06757 0.61575 0.92924 0.0
H3204 H 0.06734 0.58697 0.97526 0.0
H3205 H 0.07479 0.60328 0.97509 0.0
H3206 H 0.08142 0.6163 0.29405 0.0
H3207 H 0.07901 0.5754 0.33917 0.0
H3208 H 0.06581 0.5686 0.12701 0.0
C3209 C 0.06931 0.65956 1.03791 0.0
C3210 C 0.07241 0.68047 0.0619 0.0
C3211 C 0.07708 0.67976 0.12775 0.0
C3212 C 0.0784 0.65867 0.17154 0.0
C3213 C 0.07508 0.63836 0.14776 0.0
C3214 C 0.07074 0.63873 0.08092 0.0
C3215 C 0.06758 0.61516 0.06853 0.0
C3216 C 0.06018 0.61682 0.07892 0.0
C3217 C 0.06944 0.60469 0.98179 0.0
C3218 C 0.07063 0.6015 0.14035 0.0
C3219 C 0.07497 0.61488 0.1858 0.0
C3220 C 0.07808 0.60571 0.25771 0.0
C3221 C 0.07669 0.58246 0.28315 0.0
C3222 C 0.07222 0.56869 0.23685 0.0
C3223 C 0.06926 0.5785 0.16415 0.0
H3224 H 0.81597 0.42907 0.89202 0.0
H3225 H 0.8298 0.42564 0.09838 0.0
H3226 H 0.83255 0.38481 0.05608 0.0
H3227 H 0.80988 0.37212 0.91393 0.0
H3228 H 0.80879 0.3677 0.80136 0.0
H3229 H 0.80845 0.39675 0.84505 0.0
H3230 H 0.81745 0.40974 0.74032 0.0
H3231 H 0.81787 0.38057 0.69702 0.0
H3232 H 0.82506 0.39423 0.73845 0.0
H3233 H 0.83318 0.34281 0.99364 0.0
H3234 H 0.8311 0.3043 0.92612 0.0
H3235 H 0.81676 0.33611 0.76311 0.0
C3236 C 0.81963 0.41989 0.92814 0.0
C3237 C 0.82269 0.43062 0.99856 0.0
C3238 C 0.82742 0.41784 0.04408 0.0
C3239 C 0.82902 0.39466 1.02021 0.0
C3240 C 0.82586 0.38459 0.95039 0.0
C3241 C 0.82125 0.39693 0.90538 0.0
C3242 C 0.81825 0.38209 0.83602 0.0
C3243 C 0.81091 0.37951 0.84999 0.0
C3244 C 0.81975 0.39227 0.74772 0.0
C3245 C 0.82177 0.35913 0.84962 0.0
C3246 C 0.82622 0.36091 0.915 0.0
C3247 C 0.82979 0.34145 0.94157 0.0
C3248 C 0.82863 0.31966 0.9023 0.0
C3249 C 0.82395 0.31743 0.83734 0.0
C3250 C 0.82055 0.33752 0.8102 0.0
H3251 H 0.45249 0.91044 0.74456 0.0
H3252 H 0.44326 0.94565 0.95622 0.0
H3253 H 0.44114 0.90744 1.02464 0.0
H3254 H 0.44213 0.85546 0.74872 0.0
H3255 H 0.44902 0.83746 0.72247 0.0
H3256 H 0.44853 0.86698 0.68302 0.0
H3257 H 0.45972 0.87566 0.74994 0.0
H3258 H 0.46016 0.84638 0.79085 0.0
H3259 H 0.46089 0.87093 0.8622 0.0
H3260 H 0.44137 0.86518 0.07899 0.0
H3261 H 0.44389 0.82366 0.11209 0.0
H3262 H 0.4533 0.81652 0.86677 0.0
C3263 C 0.44972 0.90993 0.80306 0.0
C3264 C 0.44778 0.93091 0.84343 0.0
C3265 C 0.44454 0.92972 0.92269 0.0
C3266 C 0.44337 0.90806 0.9623 0.0
C3267 C 0.4455 0.88764 0.92216 0.0
C3268 C 0.44855 0.8884 0.84362 0.0
C3269 C 0.45099 0.86433 0.81802 0.0
C3270 C 0.44745 0.85554 0.73832 0.0
C3271 C 0.45838 0.86435 0.80452 0.0
C3272 C 0.4491 0.85013 0.89559 0.0
C3273 C 0.44583 0.86368 0.95447 0.0
C3274 C 0.44385 0.85439 1.03263 0.0
C3275 C 0.44531 0.83078 0.05106 0.0
C3276 C 0.44879 0.81682 0.9922 0.0
C3277 C 0.45062 0.8267 0.91319 0.0
H3278 H 0.81655 0.81909 0.44161 0.0
H3279 H 0.82769 0.82429 0.20866 0.0
H3280 H 0.83055 0.86529 0.2461 0.0
H3281 H 0.80973 0.87457 0.43898 0.0
H3282 H 0.81016 0.87907 0.55231 0.0
H3283 H 0.80964 0.8499 0.5102 0.0
H3284 H 0.82014 0.83855 0.59038 0.0
H3285 H 0.8207 0.86781 0.63251 0.0
H3286 H 0.82739 0.8554 0.57395 0.0
H3287 H 0.83113 0.90741 0.30394 0.0
H3288 H 0.82931 0.94577 0.37373 0.0
H3289 H 0.81796 0.91228 0.56983 0.0
C3290 C 0.81966 0.82872 0.39873 0.0
C3291 C 0.82188 0.8185 0.3219 0.0
C3292 C 0.82595 0.83172 0.26787 0.0
C3293 C 0.8276 0.855 0.28886 0.0
C3294 C 0.82523 0.86465 0.36482 0.0
C3295 C 0.82139 0.85174 0.41914 0.0
C3296 C 0.81917 0.86619 0.4949 0.0
C3297 C 0.81174 0.86752 0.49928 0.0
C3298 C 0.82202 0.8564 0.57784 0.0
C3299 C 0.82212 0.88972 0.47337 0.0
C3300 C 0.82568 0.88843 0.39875 0.0
C3301 C 0.82847 0.90838 0.36321 0.0
C3302 C 0.82744 0.93011 0.40347 0.0
C3303 C 0.82369 0.93185 0.47859 0.0
C3304 C 0.82108 0.9113 0.51451 0.0
H3305 H 0.4578 0.31813 0.39202 0.0
H3306 H 0.4416 0.32017 0.56735 0.0
H3307 H 0.4391 0.36083 0.51965 0.0
H3308 H 0.46307 0.37604 0.4253 0.0
H3309 H 0.46555 0.37992 0.31627 0.0
H3310 H 0.4656 0.3512 0.36264 0.0
H3311 H 0.45817 0.33628 0.24132 0.0
H3312 H 0.45804 0.36507 0.19505 0.0
H3313 H 0.45055 0.35075 0.22198 0.0
H3314 H 0.4389 0.4035 0.45083 0.0
H3315 H 0.44138 0.4413 0.37974 0.0
H3316 H 0.45773 0.409 0.25323 0.0
C3317 C 0.45369 0.32695 0.4207 0.0
C3318 C 0.44991 0.31584 0.48379 0.0
C3319 C 0.44459 0.32825 0.51907 0.0
C3320 C 0.44313 0.35136 0.49199 0.0
C3321 C 0.44704 0.36178 0.42945 0.0
C3322 C 0.45222 0.34973 0.39488 0.0
C3323 C 0.45591 0.36444 0.33149 0.0
C3324 C 0.46295 0.36812 0.3607 0.0
C3325 C 0.45565 0.35348 0.24218 0.0
C3326 C 0.45208 0.38695 0.33538 0.0
C3327 C 0.44693 0.38531 0.39143 0.0
C3328 C 0.44289 0.40465 0.40641 0.0
C3329 C 0.44428 0.42607 0.36495 0.0
C3330 C 0.44968 0.42805 0.30953 0.0
C3331 C 0.45352 0.40802 0.29414 0.0
H3332 H 0.20655 0.59024 0.98931 0.0
H3333 H 0.19161 0.55593 0.13603 0.0
H3334 H 0.18912 0.59356 0.20895 0.0
H3335 H 0.21262 0.62488 0.14922 0.0
H3336 H 0.21421 0.64999 0.08339 0.0
H3337 H 0.21419 0.62123 1.03713 0.0
H3338 H 0.20548 0.63416 0.92831 0.0
H3339 H 0.20554 0.66314 0.97346 0.0
H3340 H 0.19805 0.64722 0.96587 0.0
H3341 H 0.18938 0.63582 0.27866 0.0
H3342 H 0.1918 0.67662 0.32536 0.0
H3343 H 0.20626 0.68156 0.12601 0.0
C3344 C 0.20261 0.59079 1.03496 0.0
C3345 C 0.19921 0.57025 0.05598 0.0
C3346 C 0.19418 0.57158 0.11731 0.0
C3347 C 0.19278 0.59289 0.15965 0.0
C3348 C 0.19639 0.6128 0.13899 0.0
C3349 C 0.20111 0.61184 0.07647 0.0
C3350 C 0.20452 0.63506 0.06704 0.0
C3351 C 0.21181 0.63263 0.08532 0.0
C3352 C 0.20332 0.64551 0.97841 0.0
C3353 C 0.20114 0.64919 0.13536 0.0
C3354 C 0.19645 0.63635 0.17677 0.0
C3355 C 0.19299 0.646 0.24541 0.0
C3356 C 0.19439 0.6692 0.27176 0.0
C3357 C 0.19921 0.68243 0.22952 0.0
C3358 C 0.20252 0.67212 0.15998 0.0
H3359 H 0.56753 0.06493 0.13988 0.0
H3360 H 0.57787 0.07858 0.37341 0.0
H3361 H 0.58028 0.11893 0.32335 0.0
H3362 H 0.57854 0.10132 1.00125 0.0
H3363 H 0.57188 0.11007 0.93463 0.0
H3364 H 0.57183 0.08177 0.98504 0.0
H3365 H 0.56071 0.09138 0.0536 0.0
H3366 H 0.56074 0.11962 1.00379 0.0
H3367 H 0.55985 0.11742 0.11759 0.0
H3368 H 0.58056 0.15978 0.24991 0.0
H3369 H 0.57829 0.19577 0.16694 0.0
H3370 H 0.56756 0.15487 0.98384 0.0
C3371 C 0.57045 0.07626 0.17948 0.0
C3372 C 0.57259 0.06856 0.26003 0.0
C3373 C 0.5763 0.08396 0.31076 0.0
C3374 C 0.57767 0.10694 0.28272 0.0
C3375 C 0.57539 0.11415 0.20306 0.0
C3376 C 0.57192 0.09901 0.15188 0.0
C3377 C 0.56971 0.11104 0.071 0.0
C3378 C 0.57319 0.10042 0.99338 0.0
C3379 C 0.56232 0.1098 0.06102 0.0
C3380 C 0.572 0.13585 0.08716 0.0
C3381 C 0.57547 0.13724 0.16215 0.0
C3382 C 0.57792 0.15866 0.19064 0.0
C3383 C 0.57666 0.17906 0.14269 0.0
C3384 C 0.57285 0.1781 0.068 0.0
C3385 C 0.57059 0.15609 1.03976 0.0
H3386 H 0.20021 0.06665 0.69452 0.0
H3387 H 0.20133 0.08526 0.42838 0.0
H3388 H 0.19988 0.12703 0.46623 0.0
H3389 H 0.18835 0.11454 0.75865 0.0
H3390 H 0.19229 0.11878 0.85955 0.0
H3391 H 0.19224 0.09023 0.81058 0.0
H3392 H 0.20474 0.08873 0.81895 0.0
H3393 H 0.20484 0.11725 0.86721 0.0
H3394 H 0.20942 0.11185 0.77138 0.0
H3395 H 0.19955 0.16698 0.53357 0.0
H3396 H 0.20091 0.20182 0.62414 0.0
H3397 H 0.20042 0.15844 0.84907 0.0
C3398 C 0.19989 0.07951 0.64426 0.0
C3399 C 0.20066 0.0727 0.55813 0.0
C3400 C 0.20054 0.09005 0.49428 0.0
C3401 C 0.19973 0.11383 0.5154 0.0
C3402 C 0.19909 0.1201 0.60097 0.0
C3403 C 0.19912 0.10343 0.66453 0.0
C3404 C 0.19895 0.11504 0.75185 0.0
C3405 C 0.19258 0.1093 0.7979 0.0
C3406 C 0.20484 0.10779 0.80546 0.0
C3407 C 0.19921 0.14082 0.72772 0.0
C3408 C 0.19907 0.14327 0.6402 0.0
C3409 C 0.19952 0.16521 0.60207 0.0
C3410 C 0.20022 0.18503 0.65415 0.0
C3411 C 0.20053 0.18308 0.74371 0.0
C3412 C 0.19998 0.16059 0.78094 0.0
H3413 H 0.5656 0.56606 0.64927 0.0
H3414 H 0.57846 0.57582 0.86302 0.0
H3415 H 0.58095 0.61604 0.81216 0.0
H3416 H 0.57589 0.60076 0.4962 0.0
H3417 H 0.56881 0.6109 0.44058 0.0
H3418 H 0.5688 0.58257 0.49078 0.0
H3419 H 0.5585 0.5944 0.57513 0.0
H3420 H 0.55857 0.6228 0.5265 0.0
H3421 H 0.55865 0.62029 0.64079 0.0
H3422 H 0.58121 0.6573 0.74044 0.0
H3423 H 0.57897 0.69397 0.66125 0.0
H3424 H 0.56585 0.65642 0.49638 0.0
C3425 C 0.56904 0.57654 0.68451 0.0
C3426 C 0.57186 0.56781 0.75991 0.0
C3427 C 0.57631 0.58203 0.80448 0.0
C3428 C 0.57774 0.60493 0.77595 0.0
C3429 C 0.57479 0.61317 0.70157 0.0
C3430 C 0.5706 0.59912 0.65597 0.0
C3431 C 0.56791 0.61195 0.57939 0.0
C3432 C 0.57051 0.6009 0.4968 0.0
C3433 C 0.56047 0.6124 0.58065 0.0
C3434 C 0.57076 0.63611 0.59256 0.0
C3435 C 0.57491 0.63638 0.6615 0.0
C3436 C 0.57803 0.65703 0.68591 0.0
C3437 C 0.57676 0.67781 0.64015 0.0
C3438 C 0.57229 0.67803 0.57192 0.0
C3439 C 0.56935 0.65676 0.54757 0.0
H3440 H 0.32496 0.169 0.30987 0.0
H3441 H 0.31785 0.19587 0.07051 0.0
H3442 H 0.31612 0.15552 1.01888 0.0
H3443 H 0.334 0.1236 0.22115 0.0
H3444 H 0.33249 0.10246 0.30365 0.0
H3445 H 0.33219 0.13321 0.32786 0.0
H3446 H 0.32055 0.12871 0.38644 0.0
H3447 H 0.32084 0.09786 0.36317 0.0
H3448 H 0.31441 0.11565 0.3206 0.0
H3449 H 0.31647 0.11256 0.98597 0.0
H3450 H 0.31827 0.06981 0.97745 0.0
H3451 H 0.32539 0.0701 0.23652 0.0
C3452 C 0.32278 0.16627 0.24813 0.0
C3453 C 0.32133 0.1855 0.19491 0.0
C3454 C 0.31881 0.18135 0.1128 0.0
C3455 C 0.31785 0.15848 0.08286 0.0
C3456 C 0.3195 0.13981 0.13552 0.0
C3457 C 0.32186 0.1434 0.21681 0.0
C3458 C 0.32378 0.12026 0.25728 0.0
C3459 C 0.33105 0.11987 0.27871 0.0
C3460 C 0.31965 0.11533 0.33656 0.0
C3461 C 0.32223 0.10326 0.18571 0.0
C3462 C 0.31973 0.11491 0.11622 0.0
C3463 C 0.31826 0.10316 0.04078 0.0
C3464 C 0.31928 0.07886 1.03647 0.0
C3465 C 0.32185 0.06653 0.10668 0.0
C3466 C 0.32333 0.07899 0.18219 0.0
H3467 H 0.94801 0.18055 0.24649 0.0
H3468 H 0.95108 0.17997 0.97385 0.0
H3469 H 0.95248 0.13697 0.97765 0.0
H3470 H 0.96015 0.1322 0.28927 0.0
H3471 H 0.95542 0.12079 0.37609 0.0
H3472 H 0.95526 0.15167 0.35292 0.0
H3473 H 0.94278 0.15019 0.3401 0.0
H3474 H 0.94291 0.1194 0.36301 0.0
H3475 H 0.93913 0.12981 0.267 0.0
H3476 H 0.95203 0.09383 1.00813 0.0
H3477 H 0.95033 0.05395 0.06336 0.0
H3478 H 0.94843 0.08153 0.31886 0.0
C3479 C 0.94911 0.17135 0.18792 0.0
C3480 C 0.94944 0.18363 0.10971 0.0
C3481 C 0.95087 0.17102 1.03442 0.0
C3482 C 0.95166 0.14656 1.03608 0.0
C3483 C 0.95121 0.13493 0.11394 0.0
C3484 C 0.9501 0.14695 0.18887 0.0
C3485 C 0.94974 0.13011 0.26374 0.0
C3486 C 0.95548 0.13393 0.3241 0.0
C3487 C 0.94325 0.13252 0.31119 0.0
C3488 C 0.95032 0.10663 0.21849 0.0
C3489 C 0.95128 0.10992 0.13216 0.0
C3490 C 0.95145 0.09109 0.07578 0.0
C3491 C 0.9505 0.06845 0.10778 0.0
C3492 C 0.94945 0.06454 0.19556 0.0
C3493 C 0.94948 0.0839 0.25196 0.0
H3494 H 0.69535 0.92911 0.84624 0.0
H3495 H 0.70507 0.9304 0.09014 0.0
H3496 H 0.70723 0.88784 0.07749 0.0
H3497 H 0.68746 0.87555 0.87132 0.0
H3498 H 0.68842 0.86629 0.76238 0.0
H3499 H 0.6882 0.89695 0.78784 0.0
H3500 H 0.69927 0.90257 0.71308 0.0
H3501 H 0.69953 0.87182 0.68767 0.0
H3502 H 0.7061 0.88507 0.74541 0.0
H3503 H 0.70725 0.84417 0.04449 0.0
H3504 H 0.70518 0.80378 0.99434 0.0
H3505 H 0.69585 0.83103 0.76926 0.0
C3506 C 0.69803 0.92051 0.89647 0.0
C3507 C 0.70006 0.93312 0.96923 0.0
C3508 C 0.70351 0.92117 1.03364 0.0
C3509 C 0.70475 0.89698 1.02688 0.0
C3510 C 0.70261 0.885 0.95469 0.0
C3511 C 0.69936 0.89645 0.89029 0.0
C3512 C 0.69731 0.87948 0.82101 0.0
C3513 C 0.68991 0.87957 0.81006 0.0
C3514 C 0.70076 0.88507 0.7368 0.0
C3515 C 0.69969 0.85648 0.85769 0.0
C3516 C 0.7028 0.86006 0.93453 0.0
C3517 C 0.70497 0.84129 0.98352 0.0
C3518 C 0.70382 0.81839 0.95437 0.0
C3519 C 0.70059 0.81435 0.87653 0.0
C3520 C 0.69858 0.83367 0.82713 0.0
H3521 H 0.07804 0.93088 0.99313 0.0
H3522 H 0.06524 0.93014 0.77538 0.0
H3523 H 0.06338 0.8876 0.79734 0.0
H3524 H 0.08578 0.87779 0.95206 0.0
H3525 H 0.08648 0.86958 0.06227 0.0
H3526 H 0.08613 0.89997 1.03356 0.0
H3527 H 0.0763 0.90583 0.13429 0.0
H3528 H 0.07659 0.87534 0.16292 0.0
H3529 H 0.06923 0.88778 0.12135 0.0
H3530 H 0.06345 0.84355 0.84251 0.0
H3531 H 0.06616 0.80386 0.89644 0.0
H3532 H 0.07933 0.83449 0.07862 0.0
C3533 C 0.07477 0.92191 0.95049 0.0
C3534 C 0.07176 0.93395 0.88268 0.0
C3535 C 0.06756 0.92138 0.82813 0.0
C3536 C 0.06648 0.89719 0.84032 0.0
C3537 C 0.06961 0.8858 0.90754 0.0
C3538 C 0.07368 0.89792 0.96146 0.0
C3539 C 0.07681 0.8818 1.02576 0.0
C3540 C 0.08424 0.88232 1.01786 0.0
C3541 C 0.0746 0.88806 0.11645 0.0
C3542 C 0.07408 0.85845 0.99822 0.0
C3543 C 0.0698 0.86101 0.93136 0.0
C3544 C 0.06677 0.84153 0.8952 0.0
C3545 C 0.06828 0.81903 0.9267 0.0
C3546 C 0.07289 0.81615 0.99248 0.0
C3547 C 0.07573 0.8362 1.02898 0.0
H3548 H 0.32432 0.66829 0.81284 0.0
H3549 H 0.31913 0.69468 0.56436 0.0
H3550 H 0.31703 0.65436 0.51468 0.0
H3551 H 0.33325 0.62134 0.73901 0.0
H3552 H 0.33095 0.60088 0.82065 0.0
H3553 H 0.33081 0.63175 0.84257 0.0
H3554 H 0.31876 0.62909 0.88708 0.0
H3555 H 0.31887 0.59809 0.86585 0.0
H3556 H 0.31297 0.61653 0.81471 0.0
H3557 H 0.31646 0.61091 0.48758 0.0
H3558 H 0.31809 0.568 0.48314 0.0
H3559 H 0.32443 0.56936 0.74564 0.0
C3560 C 0.32247 0.66554 0.74926 0.0
C3561 C 0.32166 0.68461 0.69311 0.0
C3562 C 0.31959 0.68032 0.60884 0.0
C3563 C 0.31841 0.65747 0.58008 0.0
C3564 C 0.31939 0.63891 0.63602 0.0
C3565 C 0.32138 0.64266 0.71896 0.0
C3566 C 0.3228 0.61954 0.76287 0.0
C3567 C 0.32987 0.61832 0.793 0.0
C3568 C 0.31807 0.61558 0.83704 0.0
C3569 C 0.32153 0.60237 0.69095 0.0
C3570 C 0.31941 0.61385 0.61899 0.0
C3571 C 0.31806 0.60173 0.54387 0.0
C3572 C 0.31899 0.57734 0.54189 0.0
C3573 C 0.32138 0.56534 0.61395 0.0
C3574 C 0.32258 0.57808 0.6896 0.0
H3575 H 0.94157 0.66742 0.51861 0.0
H3576 H 0.95564 0.69751 0.6899 0.0
H3577 H 0.95809 0.65787 0.74665 0.0
H3578 H 0.93502 0.62657 0.65117 0.0
H3579 H 0.93419 0.60375 0.57277 0.0
H3580 H 0.93418 0.63385 0.54021 0.0
H3581 H 0.94372 0.62569 0.43689 0.0
H3582 H 0.94371 0.59541 0.46842 0.0
H3583 H 0.95102 0.61236 0.47673 0.0
H3584 H 0.95783 0.61383 0.79635 0.0
H3585 H 0.95548 0.57177 0.82373 0.0
H3586 H 0.94195 0.57191 0.61368 0.0
C3587 C 0.94529 0.66559 0.56647 0.0
C3588 C 0.94844 0.6855 0.59944 0.0
C3589 C 0.95324 0.68243 0.66268 0.0
C3590 C 0.95463 0.65995 0.69562 0.0
C3591 C 0.95128 0.64063 0.66317 0.0
C3592 C 0.94683 0.64333 0.59824 0.0
C3593 C 0.94375 0.62022 0.57474 0.0
C3594 C 0.93635 0.62117 0.58542 0.0
C3595 C 0.94567 0.613 0.48381 0.0
C3596 C 0.94684 0.60421 0.63959 0.0
C3597 C 0.95125 0.616 0.68977 0.0
C3598 C 0.95445 0.60452 0.75632 0.0
C3599 C 0.95308 0.58061 0.77168 0.0
C3600 C 0.94851 0.56849 0.72116 0.0
C3601 C 0.94546 0.58058 0.65381 0.0
H3602 H 0.69683 0.41944 0.56197 0.0
H3603 H 0.70383 0.44655 0.32217 0.0
H3604 H 0.70567 0.40622 0.2701 0.0
H3605 H 0.70746 0.36608 0.57035 0.0
H3606 H 0.70108 0.34823 0.61353 0.0
H3607 H 0.70133 0.37907 0.63731 0.0
H3608 H 0.68966 0.38369 0.58027 0.0
H3609 H 0.68938 0.35297 0.55582 0.0
H3610 H 0.68782 0.37417 0.47369 0.0
H3611 H 0.70596 0.36263 0.23954 0.0
H3612 H 0.70414 0.31987 0.231 0.0
H3613 H 0.69627 0.32082 0.48678 0.0
C3614 C 0.69899 0.41679 0.49991 0.0
C3615 C 0.70042 0.43611 0.44702 0.0
C3616 C 0.7029 0.43199 0.3644 0.0
C3617 C 0.70394 0.40912 0.33424 0.0
C3618 C 0.70238 0.39036 0.38697 0.0
C3619 C 0.69995 0.39392 0.46815 0.0
C3620 C 0.69805 0.37077 0.50848 0.0
C3621 C 0.70223 0.36574 0.58709 0.0
C3622 C 0.6908 0.37039 0.53084 0.0
C3623 C 0.69962 0.35379 0.43673 0.0
C3624 C 0.70224 0.36537 0.36781 0.0
C3625 C 0.70396 0.3534 0.29347 0.0
C3626 C 0.70292 0.32908 0.28914 0.0
C3627 C 0.70006 0.31697 0.35806 0.0
C3628 C 0.69847 0.32957 0.433 0.0
H3629 H 0.07419 0.33608 0.59593 0.0
H3630 H 0.07111 0.30253 0.35274 0.0
H3631 H 0.0692 0.34126 0.28638 0.0
H3632 H 0.06173 0.38466 0.55732 0.0
H3633 H 0.06653 0.40543 0.61575 0.0
H3634 H 0.0666 0.37498 0.64545 0.0
H3635 H 0.07909 0.37431 0.63065 0.0
H3636 H 0.07905 0.40457 0.60028 0.0
H3637 H 0.08276 0.38308 0.53154 0.0
H3638 H 0.0688 0.38483 0.24408 0.0
H3639 H 0.06997 0.42792 0.23143 0.0
H3640 H 0.07362 0.43241 0.50189 0.0
C3641 C 0.07286 0.33691 0.52946 0.0
C3642 C 0.07263 0.31631 0.47982 0.0
C3643 C 0.0711 0.31806 0.39235 0.0
C3644 C 0.07005 0.34003 0.3541 0.0
C3645 C 0.07043 0.36015 0.40446 0.0
C3646 C 0.07167 0.35869 0.49077 0.0
C3647 C 0.07215 0.38288 0.53014 0.0
C3648 C 0.06641 0.38724 0.59078 0.0
C3649 C 0.07865 0.3864 0.57575 0.0
C3650 C 0.07157 0.39815 0.4517 0.0
C3651 C 0.07034 0.38486 0.38009 0.0
C3652 C 0.06968 0.39533 0.30018 0.0
C3653 C 0.07034 0.41984 0.29347 0.0
C3654 C 0.07183 0.4336 0.36579 0.0
C3655 C 0.0724 0.42246 0.44567 0.0
H3656 H 0.82621 0.06757 0.74626 0.0
H3657 H 0.81755 0.0702 0.49588 0.0
H3658 H 0.81603 0.11311 0.51173 0.0
H3659 H 0.81574 0.11412 0.84169 0.0
H3660 H 0.82225 0.1248 0.90694 0.0
H3661 H 0.82189 0.09424 0.87886 0.0
H3662 H 0.83347 0.09661 0.81596 0.0
H3663 H 0.83387 0.12707 0.84367 0.0
H3664 H 0.83523 0.11803 0.73516 0.0
H3665 H 0.81621 0.15691 0.55339 0.0
H3666 H 0.81861 0.19632 0.61177 0.0
H3667 H 0.82761 0.16452 0.83135 0.0
C3668 C 0.82389 0.0771 0.69525 0.0
C3669 C 0.82197 0.06549 0.61991 0.0
C3670 C 0.81898 0.07864 0.55455 0.0
C3671 C 0.81811 0.10305 0.56311 0.0
C3672 C 0.82017 0.11403 0.63793 0.0
C3673 C 0.82296 0.10133 0.70304 0.0
C3674 C 0.82506 0.11716 0.77537 0.0
C3675 C 0.82099 0.11229 0.85547 0.0
C3676 C 0.83234 0.11456 0.7935 0.0
C3677 C 0.82344 0.14098 0.73878 0.0
C3678 C 0.82041 0.13886 0.66071 0.0
C3679 C 0.81852 0.15863 0.6148 0.0
C3680 C 0.81986 0.18097 0.64862 0.0
C3681 C 0.82321 0.18341 0.72654 0.0
C3682 C 0.82496 0.16312 0.77221 0.0
H3683 H 0.44348 0.17889 0.7324 0.0
H3684 H 0.45524 0.17702 0.50402 0.0
H3685 H 0.45739 0.13473 0.52799 0.0
H3686 H 0.4533 0.13622 0.85489 0.0
H3687 H 0.44623 0.12411 0.90543 0.0
H3688 H 0.44634 0.15448 0.87493 0.0
H3689 H 0.4359 0.14839 0.78652 0.0
H3690 H 0.43575 0.11812 0.81686 0.0
H3691 H 0.43575 0.12595 0.70585 0.0
H3692 H 0.45764 0.09119 0.57528 0.0
H3693 H 0.45524 0.05167 0.63255 0.0
H3694 H 0.44282 0.08269 0.82421 0.0
C3695 C 0.44658 0.1697 0.68786 0.0
C3696 C 0.4492 0.1813 0.61626 0.0
C3697 C 0.45322 0.16856 0.55955 0.0
C3698 C 0.45447 0.14453 0.57288 0.0
C3699 C 0.45172 0.13352 0.64371 0.0
C3700 C 0.44787 0.14586 0.70025 0.0
C3701 C 0.44514 0.13003 0.76867 0.0
C3702 C 0.44792 0.1366 0.85616 0.0
C3703 C 0.4377 0.13066 0.76942 0.0
C3704 C 0.44772 0.10652 0.73938 0.0
C3705 C 0.45169 0.10887 0.66893 0.0
C3706 C 0.45457 0.08931 0.63073 0.0
C3707 C 0.45322 0.06692 0.66397 0.0
C3708 C 0.4489 0.0642 0.73322 0.0
C3709 C 0.4462 0.08432 0.77174 0.0
H3710 H 0.19013 0.92659 0.4022 0.0
H3711 H 0.20872 0.93828 0.52179 0.0
H3712 H 0.21162 0.89656 0.49593 0.0
H3713 H 0.18741 0.87036 0.49186 0.0
H3714 H 0.18337 0.85927 0.3988 0.0
H3715 H 0.1831 0.89005 0.42258 0.0
H3716 H 0.18778 0.89905 0.27311 0.0
H3717 H 0.18813 0.86825 0.24928 0.0
H3718 H 0.19533 0.88582 0.24078 0.0
H3719 H 0.21233 0.85223 0.45404 0.0
H3720 H 0.2103 0.81055 0.41679 0.0
H3721 H 0.19097 0.82876 0.33436 0.0
C3722 C 0.19484 0.92051 0.42259 0.0
C3723 C 0.19922 0.93582 0.46346 0.0
C3724 C 0.20529 0.92693 0.49018 0.0
C3725 C 0.20698 0.90326 0.47537 0.0
C3726 C 0.20252 0.88863 0.43458 0.0
C3727 C 0.19654 0.89702 0.40969 0.0
C3728 C 0.19241 0.87781 0.3717 0.0
C3729 C 0.18621 0.87416 0.4244 0.0
C3730 C 0.19082 0.88305 0.27817 0.0
C3731 C 0.19695 0.8571 0.37917 0.0
C3732 C 0.20282 0.8636 0.41418 0.0
C3733 C 0.20775 0.84712 0.42669 0.0
C3734 C 0.20658 0.82351 0.40484 0.0
C3735 C 0.20051 0.81655 0.37202 0.0
C3736 C 0.19568 0.83367 0.35857 0.0
H3737 H 0.57586 0.81892 0.33822 0.0
H3738 H 0.56637 0.81717 0.58406 0.0
H3739 H 0.5644 0.85995 0.57467 0.0
H3740 H 0.58409 0.87132 0.36544 0.0
H3741 H 0.58313 0.88131 0.25756 0.0
H3742 H 0.58311 0.8505 0.28022 0.0
H3743 H 0.57194 0.84646 0.20743 0.0
H3744 H 0.57192 0.87734 0.18457 0.0
H3745 H 0.56528 0.86453 0.24254 0.0
H3746 H 0.56476 0.90405 0.54524 0.0
H3747 H 0.5671 0.94444 0.49743 0.0
H3748 H 0.57595 0.91726 0.26798 0.0
C3749 C 0.57324 0.82744 0.38941 0.0
C3750 C 0.57125 0.81461 0.46188 0.0
C3751 C 0.56789 0.82651 0.52764 0.0
C3752 C 0.56676 0.85085 0.52278 0.0
C3753 C 0.56893 0.86306 0.4511 0.0
C3754 C 0.57204 0.85162 0.38509 0.0
C3755 C 0.57417 0.86875 0.31681 0.0
C3756 C 0.58156 0.86792 0.30434 0.0
C3757 C 0.57062 0.86398 0.23286 0.0
C3758 C 0.57201 0.89182 0.35575 0.0
C3759 C 0.56895 0.88817 0.43301 0.0
C3760 C 0.567 0.90697 0.48392 0.0
C3761 C 0.56831 0.92988 0.45612 0.0
C3762 C 0.57147 0.93399 0.37762 0.0
C3763 C 0.57327 0.91466 0.32646 0.0
H3764 H 0.83128 0.66908 0.28813 0.0
H3765 H 0.81475 0.69325 0.14447 0.0
H3766 H 0.81243 0.65243 0.1001 0.0
H3767 H 0.83678 0.6274 0.14583 0.0
H3768 H 0.83914 0.606 0.22394 0.0
H3769 H 0.83902 0.63653 0.25153 0.0
H3770 H 0.83126 0.62813 0.37747 0.0
H3771 H 0.83142 0.59745 0.35104 0.0
H3772 H 0.8238 0.61273 0.35828 0.0
H3773 H 0.81273 0.60833 0.05929 0.0
H3774 H 0.81524 0.56624 1.03515 0.0
H3775 H 0.83136 0.57163 0.20986 0.0
C3776 C 0.82706 0.66563 0.24946 0.0
C3777 C 0.8231 0.6842 0.2212 0.0
C3778 C 0.81773 0.67916 0.16867 0.0
C3779 C 0.81641 0.65602 0.14267 0.0
C3780 C 0.82048 0.63803 0.17046 0.0
C3781 C 0.82563 0.64262 0.22414 0.0
C3782 C 0.82941 0.6205 0.24316 0.0
C3783 C 0.83651 0.62275 0.21436 0.0
C3784 C 0.82895 0.61434 0.33812 0.0
C3785 C 0.82578 0.60289 0.1893 0.0
C3786 C 0.82061 0.61314 0.14807 0.0
C3787 C 0.81674 0.60018 0.09227 0.0
C3788 C 0.8182 0.57627 0.07863 0.0
C3789 C 0.8235 0.56556 0.12042 0.0
C3790 C 0.82727 0.57919 0.17686 0.0
H3791 H 0.44167 0.58295 0.32106 0.0
H3792 H 0.45601 0.55276 0.15228 0.0
H3793 H 0.45867 0.59245 0.09837 0.0
H3794 H 0.43556 0.62451 0.18511 0.0
H3795 H 0.43447 0.6471 0.26399 0.0
H3796 H 0.43429 0.61687 0.29507 0.0
H3797 H 0.44346 0.62421 0.40414 0.0
H3798 H 0.4436 0.65461 0.37421 0.0
H3799 H 0.45092 0.63742 0.36921 0.0
H3800 H 0.45865 0.63652 0.05083 0.0
H3801 H 0.45658 0.67887 1.02541 0.0
H3802 H 0.4426 0.67899 0.23122 0.0
C3803 C 0.44551 0.58476 0.27448 0.0
C3804 C 0.4487 0.56479 0.24184 0.0
C3805 C 0.45361 0.56784 0.17983 0.0
C3806 C 0.45511 0.59036 0.14828 0.0
C3807 C 0.45173 0.60972 0.18046 0.0
C3808 C 0.44712 0.60704 0.24377 0.0
C3809 C 0.44401 0.63022 0.26678 0.0
C3810 C 0.43665 0.62962 0.2518 0.0
C3811 C 0.44559 0.63701 0.35906 0.0
C3812 C 0.44735 0.64635 0.20447 0.0
C3813 C 0.45182 0.63444 0.15509 0.0
C3814 C 0.45523 0.64594 0.09032 0.0
C3815 C 0.45402 0.67001 0.07608 0.0
C3816 C 0.44944 0.68237 0.12633 0.0
C3817 C 0.44616 0.67021 0.19173 0.0
H3818 H 0.19664 0.31904 1.00269 0.0
H3819 H 0.20378 0.32215 0.74387 0.0
H3820 H 0.20525 0.36509 0.75875 0.0
H3821 H 0.18739 0.36864 1.00234 0.0
H3822 H 0.18932 0.37786 0.10899 0.0
H3823 H 0.18978 0.34743 0.08105 0.0
H3824 H 0.20172 0.34602 0.13096 0.0
H3825 H 0.2013 0.37656 0.15927 0.0
H3826 H 0.20748 0.36633 0.08707 0.0
H3827 H 0.20493 0.40894 0.80026 0.0
H3828 H 0.20242 0.44814 0.86024 0.0
H3829 H 0.19508 0.41573 0.0892 0.0
C3830 C 0.19865 0.32868 0.94967 0.0
C3831 C 0.20013 0.31722 0.87224 0.0
C3832 C 0.2027 0.33048 0.80417 0.0
C3833 C 0.20354 0.35491 0.81216 0.0
C3834 C 0.20188 0.36578 0.88911 0.0
C3835 C 0.19955 0.35292 0.9569 0.0
C3836 C 0.19777 0.36861 1.03126 0.0
C3837 C 0.19064 0.36545 0.05734 0.0
C3838 C 0.20234 0.36411 0.10661 0.0
C3839 C 0.19898 0.39253 0.99304 0.0
C3840 C 0.20158 0.3906 0.91206 0.0
C3841 C 0.20298 0.41051 0.86396 0.0
C3842 C 0.20158 0.43274 0.89867 0.0
C3843 C 0.19866 0.43493 0.97983 0.0
C3844 C 0.19741 0.41454 1.02761 0.0
H3845 H 0.57961 0.33208 0.07259 0.0
H3846 H 0.56564 0.30254 0.8988 0.0
H3847 H 0.56311 0.34245 0.84498 0.0
H3848 H 0.57023 0.38696 0.11829 0.0
H3849 H 0.57755 0.40387 0.1266 0.0
H3850 H 0.57756 0.37345 0.15633 0.0
H3851 H 0.58702 0.36577 0.0513 0.0
H3852 H 0.58699 0.39602 1.02058 0.0
H3853 H 0.58609 0.37356 0.94094 0.0
H3854 H 0.56328 0.38687 0.79838 0.0
H3855 H 0.56563 0.42902 0.77295 0.0
H3856 H 0.57917 0.42819 0.98269 0.0
C3857 C 0.57587 0.33407 1.025 0.0
C3858 C 0.57275 0.31418 0.99085 0.0
C3859 C 0.56797 0.31752 0.92748 0.0
C3860 C 0.56656 0.34018 0.89604 0.0
C3861 C 0.56987 0.35945 0.92972 0.0
C3862 C 0.57433 0.35649 0.99442 0.0
C3863 C 0.57742 0.37955 1.01887 0.0
C3864 C 0.57558 0.38636 0.11046 0.0
C3865 C 0.58481 0.37866 1.00717 0.0
C3866 C 0.57428 0.39591 0.95537 0.0
C3867 C 0.56988 0.38427 0.90464 0.0
C3868 C 0.56666 0.39605 0.83892 0.0
C3869 C 0.56801 0.42004 0.82477 0.0
C3870 C 0.57258 0.43206 0.87572 0.0
C3871 C 0.57564 0.41968 0.94246 0.0
loop_
_geom_bond_atom_site_label_1
_geom_bond_atom_site_label_2
_geom_bond_distance
_geom_bond_site_symmetry_2
_ccdc_geom_bond_type
Nd0 C2 2.836 . S
Nd0 O20 2.500 . S
Nd0 O21 2.492 . S
Nd0 O22 2.487 . S
Nd0 O23 2.682 . S
Nd0 O24 2.410 . S
Nd0 O29 2.414 . S
Nd0 O31 2.424 . S
Nd1 C11 2.836 . S
Nd1 O23 2.414 . S
Nd1 O25 2.424 . S
Nd1 O26 2.500 . S
Nd1 O27 2.492 . S
Nd1 O28 2.487 . S
Nd1 O29 2.682 . S
Nd1 O30 2.410 . S
C2 Nd0 2.836 . S
C2 C3 1.498 . S
C2 O20 1.258 . S
C2 O21 1.239 . S
C3 C2 1.498 . S
C3 C4 1.366 . S
C3 C8 1.407 . S
C4 C3 1.366 . S
C4 C5 1.392 1_554 S
C4 H32 0.930 . S
C5 C4 1.392 1_556 S
C5 C6 1.398 1_556 S
C5 H33 0.929 . S
C6 C5 1.398 1_554 S
C6 C7 1.352 . S
C7 C6 1.352 . S
C7 C8 1.384 . S
C7 H34 0.930 . S
C8 C3 1.407 . S
C8 C7 1.384 . S
C8 H35 0.929 . S
C9 O22 1.241 . S
C9 O23 1.273 . S
C10 O24 1.251 . S
C10 O25 1.268 . S
C11 Nd1 2.836 . S
C11 C12 1.498 . S
C11 O26 1.258 . S
C11 O27 1.239 . S
C12 C11 1.498 . S
C12 C13 1.366 . S
C12 C17 1.407 . S
C13 C12 1.366 . S
C13 C14 1.392 . S
C13 H36 0.930 . S
C14 C13 1.392 . S
C14 C15 1.398 . S
C14 H37 0.929 . S
C15 C14 1.398 . S
C15 C16 1.352 . S
C16 C15 1.352 . S
C16 C17 1.384 . S
C16 H38 0.930 . S
C17 C12 1.407 . S
C17 C16 1.384 . S
C17 H39 0.929 . S
C18 O28 1.241 . S
C18 O29 1.273 . S
C19 O30 1.251 . S
C19 O31 1.268 . S
O20 Nd0 2.500 . S
O20 C2 1.258 . S
O21 Nd0 2.492 . S
O21 C2 1.239 . S
O22 Nd0 2.487 . S
O22 C9 1.241 . S
O23 Nd0 2.682 . S
O23 Nd1 2.414 . S
O23 C9 1.273 . S
O24 Nd0 2.410 . S
O24 C10 1.251 . S
O25 Nd1 2.424 . S
O25 C10 1.268 . S
O26 Nd1 2.500 . S
O26 C11 1.258 . S
O27 Nd1 2.492 . S
O27 C11 1.239 . S
O28 Nd1 2.487 . S
O28 C18 1.241 . S
O29 Nd0 2.414 . S
O29 Nd1 2.682 . S
O29 C18 1.273 . S
O30 Nd1 2.410 . S
O30 C19 1.251 . S
O31 Nd0 2.424 . S
O31 C19 1.268 . S
H32 C4 0.930 . S
H33 C5 0.929 . S
H34 C7 0.930 . S
H35 C8 0.929 . S
H36 C13 0.930 . S
H37 C14 0.929 . S
H38 C16 0.930 . S
H39 C17 0.929 . S
Nd40 C42 2.836 . S
Nd40 O60 2.500 1_565 S
Nd40 O61 2.492 . S
Nd40 O62 2.487 . S
Nd40 O63 2.682 . S
Nd40 O64 2.410 . S
Nd40 O69 2.414 1_565 S
Nd40 O71 2.426 . S
Nd41 C51 2.836 . S
Nd41 O63 2.414 . S
Nd41 O65 2.424 . S
Nd41 O66 2.500 . S
Nd41 O67 2.492 1_565 S
Nd41 O68 2.487 1_565 S
Nd41 O69 2.682 1_565 S
Nd41 O70 2.410 1_565 S
C42 Nd40 2.836 . S
C42 C43 1.498 . S
C42 O60 1.258 1_565 S
C42 O61 1.239 . S
C43 C42 1.498 . S
C43 C44 1.366 1_565 S
C43 C48 1.407 . S
C44 C43 1.366 1_545 S
C44 C45 1.392 1_554 S
C44 H72 0.930 . S
C45 C44 1.392 1_556 S
C45 C46 1.398 1_546 S
C45 H73 0.929 . S
C46 C45 1.398 1_564 S
C46 C47 1.352 . S
C47 C46 1.352 . S
C47 C48 1.384 . S
C47 H74 0.930 . S
C48 C43 1.407 . S
C48 C47 1.384 . S
C48 H75 0.929 . S
C49 O62 1.241 . S
C49 O63 1.273 . S
C50 O64 1.251 . S
C50 O65 1.268 . S
C51 Nd41 2.836 . S
C51 C52 1.498 . S
C51 O66 1.258 . S
C51 O67 1.239 1_565 S
C52 C51 1.498 . S
C52 C53 1.366 . S
C52 C57 1.407 1_565 S
C53 C52 1.366 . S
C53 C54 1.392 . S
C53 H76 0.930 . S
C54 C53 1.392 . S
C54 C55 1.398 . S
C54 H77 0.929 . S
C55 C54 1.398 . S
C55 C56 1.352 1_565 S
C56 C55 1.352 1_545 S
C56 C57 1.384 . S
C56 H78 0.930 . S
C57 C52 1.407 1_545 S
C57 C56 1.384 . S
C57 H79 0.929 . S
C58 O68 1.241 . S
C58 O69 1.273 . S
C59 O70 1.251 . S
C59 O71 1.266 1_545 S
O60 Nd40 2.500 1_545 S
O60 C42 1.258 1_545 S
O61 Nd40 2.492 . S
O61 C42 1.239 . S
O62 Nd40 2.487 . S
O62 C49 1.241 . S
O63 Nd40 2.682 . S
O63 Nd41 2.414 . S
O63 C49 1.273 . S
O64 Nd40 2.410 . S
O64 C50 1.251 . S
O65 Nd41 2.424 . S
O65 C50 1.268 . S
O66 Nd41 2.500 . S
O66 C51 1.258 . S
O67 Nd41 2.492 1_545 S
O67 C51 1.239 1_545 S
O68 Nd41 2.487 1_545 S
O68 C58 1.241 . S
O69 Nd40 2.414 1_545 S
O69 Nd41 2.682 1_545 S
O69 C58 1.273 . S
O70 Nd41 2.410 1_545 S
O70 C59 1.251 . S
O71 Nd40 2.426 . S
O71 C59 1.266 1_565 S
H72 C44 0.930 . S
H73 C45 0.929 . S
H74 C47 0.930 . S
H75 C48 0.929 . S
H76 C53 0.930 . S
H77 C54 0.929 . S
H78 C56 0.930 . S
H79 C57 0.929 . S
Nd80 C82 2.836 . S
Nd80 O100 2.500 1_565 S
Nd80 O101 2.492 . S
Nd80 O102 2.487 1_554 S
Nd80 O103 2.682 . S
Nd80 O104 2.410 . S
Nd80 O109 2.414 1_565 S
Nd80 O111 2.426 1_554 S
Nd81 C91 2.836 1_554 S
Nd81 O103 2.414 . S
Nd81 O105 2.424 . S
Nd81 O106 2.500 1_554 S
Nd81 O107 2.492 1_564 S
Nd81 O108 2.487 1_565 S
Nd81 O109 2.682 1_565 S
Nd81 O110 2.410 1_564 S
C82 Nd80 2.836 . S
C82 C83 1.498 . S
C82 O100 1.258 1_565 S
C82 O101 1.239 . S
C83 C82 1.498 . S
C83 C84 1.366 1_565 S
C83 C88 1.407 . S
C84 C83 1.366 1_545 S
C84 C85 1.392 . S
C84 H112 0.930 . S
C85 C84 1.392 . S
C85 C86 1.398 1_545 S
C85 H113 0.929 . S
C86 C85 1.398 1_565 S
C86 C87 1.352 . S
C87 C86 1.352 . S
C87 C88 1.384 . S
C87 H114 0.930 . S
C88 C83 1.407 . S
C88 C87 1.384 . S
C88 H115 0.929 . S
C89 O102 1.241 . S
C89 O103 1.273 1_556 S
C90 O104 1.251 . S
C90 O105 1.268 . S
C91 Nd81 2.836 1_556 S
C91 C92 1.498 . S
C91 O106 1.258 . S
C91 O107 1.239 1_565 S
C92 C91 1.498 . S
C92 C93 1.366 . S
C92 C97 1.407 1_565 S
C93 C92 1.366 . S
C93 C94 1.392 . S
C93 H116 0.930 . S
C94 C93 1.392 . S
C94 C95 1.398 . S
C94 H117 0.929 . S
C95 C94 1.398 . S
C95 C96 1.352 1_565 S
C96 C95 1.352 1_545 S
C96 C97 1.384 . S
C96 H118 0.930 . S
C97 C92 1.407 1_545 S
C97 C96 1.384 . S
C97 H119 0.929 . S
C98 O108 1.241 . S
C98 O109 1.273 . S
C99 O110 1.251 . S
C99 O111 1.266 1_545 S
O100 Nd80 2.500 1_545 S
O100 C82 1.258 1_545 S
O101 Nd80 2.492 . S
O101 C82 1.239 . S
O102 Nd80 2.487 1_556 S
O102 C89 1.241 . S
O103 Nd80 2.682 . S
O103 Nd81 2.414 . S
O103 C89 1.273 1_554 S
O104 Nd80 2.410 . S
O104 C90 1.251 . S
O105 Nd81 2.424 . S
O105 C90 1.268 . S
O106 Nd81 2.500 1_556 S
O106 C91 1.258 . S
O107 Nd81 2.492 1_546 S
O107 C91 1.239 1_545 S
O108 Nd81 2.487 1_545 S
O108 C98 1.241 . S
O109 Nd80 2.414 1_545 S
O109 Nd81 2.682 1_545 S
O109 C98 1.273 . S
O110 Nd81 2.410 1_546 S
O110 C99 1.251 . S
O111 Nd80 2.426 1_556 S
O111 C99 1.266 1_565 S
H112 C84 0.930 . S
H113 C85 0.929 . S
H114 C87 0.930 . S
H115 C88 0.929 . S
H116 C93 0.930 . S
H117 C94 0.929 . S
H118 C96 0.930 . S
H119 C97 0.929 . S
Nd120 C122 2.836 . S
Nd120 O140 2.500 . S
Nd120 O141 2.492 . S
Nd120 O142 2.487 1_554 S
Nd120 O143 2.682 . S
Nd120 O144 2.410 . S
Nd120 O149 2.414 . S
Nd120 O151 2.424 1_554 S
Nd121 C131 2.836 1_554 S
Nd121 O143 2.414 . S
Nd121 O145 2.424 . S
Nd121 O146 2.500 1_554 S
Nd121 O147 2.492 1_554 S
Nd121 O148 2.487 . S
Nd121 O149 2.682 . S
Nd121 O150 2.410 1_554 S
C122 Nd120 2.836 . S
C122 C123 1.498 . S
C122 O140 1.258 . S
C122 O141 1.239 . S
C123 C122 1.498 . S
C123 C124 1.366 . S
C123 C128 1.407 . S
C124 C123 1.366 . S
C124 C125 1.392 . S
C124 H152 0.930 . S
C125 C124 1.392 . S
C125 C126 1.398 . S
C125 H153 0.929 . S
C126 C125 1.398 . S
C126 C127 1.352 . S
C127 C126 1.352 . S
C127 C128 1.384 . S
C127 H154 0.930 . S
C128 C123 1.407 . S
C128 C127 1.384 . S
C128 H155 0.929 . S
C129 O142 1.241 . S
C129 O143 1.273 1_556 S
C130 O144 1.251 . S
C130 O145 1.268 . S
C131 Nd121 2.836 1_556 S
C131 C132 1.498 . S
C131 O146 1.258 . S
C131 O147 1.239 . S
C132 C131 1.498 . S
C132 C133 1.366 . S
C132 C137 1.407 . S
C133 C132 1.366 . S
C133 C134 1.392 . S
C133 H156 0.930 . S
C134 C133 1.392 . S
C134 C135 1.398 . S
C134 H157 0.929 . S
C135 C134 1.398 . S
C135 C136 1.352 . S
C136 C135 1.352 . S
C136 C137 1.384 . S
C136 H158 0.930 . S
C137 C132 1.407 . S
C137 C136 1.384 . S
C137 H159 0.929 . S
C138 O148 1.241 . S
C138 O149 1.273 . S
C139 O150 1.251 . S
C139 O151 1.268 . S
O140 Nd120 2.500 . S
O140 C122 1.258 . S
O141 Nd120 2.492 . S
O141 C122 1.239 . S
O142 Nd120 2.487 1_556 S
O142 C129 1.241 . S
O143 Nd120 2.682 . S
O143 Nd121 2.414 . S
O143 C129 1.273 1_554 S
O144 Nd120 2.410 . S
O144 C130 1.251 . S
O145 Nd121 2.424 . S
O145 C130 1.268 . S
O146 Nd121 2.500 1_556 S
O146 C131 1.258 . S
O147 Nd121 2.492 1_556 S
O147 C131 1.239 . S
O148 Nd121 2.487 . S
O148 C138 1.241 . S
O149 Nd120 2.414 . S
O149 Nd121 2.682 . S
O149 C138 1.273 . S
O150 Nd121 2.410 1_556 S
O150 C139 1.251 . S
O151 Nd120 2.424 1_556 S
O151 C139 1.268 . S
H152 C124 0.930 . S
H153 C125 0.929 . S
H154 C127 0.930 . S
H155 C128 0.929 . S
H156 C133 0.930 . S
H157 C134 0.929 . S
H158 C136 0.930 . S
H159 C137 0.929 . S
Nd160 C162 2.836 . S
Nd160 O180 2.500 . S
Nd160 O181 2.492 . S
Nd160 O182 2.487 . S
Nd160 O183 2.682 . S
Nd160 O184 2.410 . S
Nd160 O189 2.414 . S
Nd160 O191 2.424 . S
Nd161 C171 2.836 . S
Nd161 O183 2.414 . S
Nd161 O185 2.424 . S
Nd161 O186 2.500 . S
Nd161 O187 2.492 . S
Nd161 O188 2.487 . S
Nd161 O189 2.682 . S
Nd161 O190 2.410 . S
C162 Nd160 2.836 . S
C162 C163 1.498 . S
C162 O180 1.258 . S
C162 O181 1.239 . S
C163 C162 1.498 . S
C163 C164 1.366 . S
C163 C168 1.407 . S
C164 C163 1.366 . S
C164 C165 1.392 . S
C164 H192 0.930 . S
C165 C164 1.392 . S
C165 C166 1.398 . S
C165 H193 0.929 . S
C166 C165 1.398 . S
C166 C167 1.352 . S
C167 C166 1.352 . S
C167 C168 1.384 . S
C167 H194 0.930 . S
C168 C163 1.407 . S
C168 C167 1.384 . S
C168 H195 0.929 . S
C169 O182 1.241 . S
C169 O183 1.273 . S
C170 O184 1.251 . S
C170 O185 1.268 . S
C171 Nd161 2.836 . S
C171 C172 1.498 . S
C171 O186 1.258 . S
C171 O187 1.239 . S
C172 C171 1.498 . S
C172 C173 1.366 . S
C172 C177 1.407 . S
C173 C172 1.366 . S
C173 C174 1.392 1_556 S
C173 H196 0.930 . S
C174 C173 1.392 1_554 S
C174 C175 1.398 1_554 S
C174 H197 0.929 . S
C175 C174 1.398 1_556 S
C175 C176 1.352 . S
C176 C175 1.352 . S
C176 C177 1.384 . S
C176 H198 0.930 . S
C177 C172 1.407 . S
C177 C176 1.384 . S
C177 H199 0.929 . S
C178 O188 1.241 . S
C178 O189 1.273 . S
C179 O190 1.251 . S
C179 O191 1.268 . S
O180 Nd160 2.500 . S
O180 C162 1.258 . S
O181 Nd160 2.492 . S
O181 C162 1.239 . S
O182 Nd160 2.487 . S
O182 C169 1.241 . S
O183 Nd160 2.682 . S
O183 Nd161 2.414 . S
O183 C169 1.273 . S
O184 Nd160 2.410 . S
O184 C170 1.251 . S
O185 Nd161 2.424 . S
O185 C170 1.268 . S
O186 Nd161 2.500 . S
O186 C171 1.258 . S
O187 Nd161 2.492 . S
O187 C171 1.239 . S
O188 Nd161 2.487 . S
O188 C178 1.241 . S
O189 Nd160 2.414 . S
O189 Nd161 2.682 . S
O189 C178 1.273 . S
O190 Nd161 2.410 . S
O190 C179 1.251 . S
O191 Nd160 2.424 . S
O191 C179 1.268 . S
H192 C164 0.930 . S
H193 C165 0.929 . S
H194 C167 0.930 . S
H195 C168 0.929 . S
H196 C173 0.930 . S
H197 C174 0.929 . S
H198 C176 0.930 . S
H199 C177 0.929 . S
Nd200 C202 2.836 . S
Nd200 O220 2.500 . S
Nd200 O221 2.492 1_545 S
Nd200 O222 2.487 1_545 S
Nd200 O223 2.682 1_545 S
Nd200 O224 2.410 1_545 S
Nd200 O229 2.414 . S
Nd200 O231 2.424 . S
Nd201 C211 2.836 . S
Nd201 O223 2.414 1_545 S
Nd201 O225 2.426 . S
Nd201 O226 2.500 1_545 S
Nd201 O227 2.492 . S
Nd201 O228 2.487 . S
Nd201 O229 2.682 . S
Nd201 O230 2.410 . S
C202 Nd200 2.836 . S
C202 C203 1.498 . S
C202 O220 1.258 . S
C202 O221 1.239 1_545 S
C203 C202 1.498 . S
C203 C204 1.366 . S
C203 C208 1.407 1_545 S
C204 C203 1.366 . S
C204 C205 1.392 . S
C204 H232 0.930 . S
C205 C204 1.392 . S
C205 C206 1.398 . S
C205 H233 0.929 . S
C206 C205 1.398 . S
C206 C207 1.352 1_545 S
C207 C206 1.352 1_565 S
C207 C208 1.384 . S
C207 H234 0.930 . S
C208 C203 1.407 1_565 S
C208 C207 1.384 . S
C208 H235 0.929 . S
C209 O222 1.241 . S
C209 O223 1.273 . S
C210 O224 1.251 . S
C210 O225 1.266 1_565 S
C211 Nd201 2.836 . S
C211 C212 1.498 . S
C211 O226 1.258 1_545 S
C211 O227 1.239 . S
C212 C211 1.498 . S
C212 C213 1.366 1_545 S
C212 C217 1.407 . S
C213 C212 1.366 1_565 S
C213 C214 1.392 1_556 S
C213 H236 0.930 . S
C214 C213 1.392 1_554 S
C214 C215 1.398 1_564 S
C214 H237 0.929 . S
C215 C214 1.398 1_546 S
C215 C216 1.352 . S
C216 C215 1.352 . S
C216 C217 1.384 . S
C216 H238 0.930 . S
C217 C212 1.407 . S
C217 C216 1.384 . S
C217 H239 0.929 . S
C218 O228 1.241 . S
C218 O229 1.273 . S
C219 O230 1.251 . S
C219 O231 1.268 . S
O220 Nd200 2.500 . S
O220 C202 1.258 . S
O221 Nd200 2.492 1_565 S
O221 C202 1.239 1_565 S
O222 Nd200 2.487 1_565 S
O222 C209 1.241 . S
O223 Nd200 2.682 1_565 S
O223 Nd201 2.414 1_565 S
O223 C209 1.273 . S
O224 Nd200 2.410 1_565 S
O224 C210 1.251 . S
O225 Nd201 2.426 . S
O225 C210 1.266 1_545 S
O226 Nd201 2.500 1_565 S
O226 C211 1.258 1_565 S
O227 Nd201 2.492 . S
O227 C211 1.239 . S
O228 Nd201 2.487 . S
O228 C218 1.241 . S
O229 Nd200 2.414 . S
O229 Nd201 2.682 . S
O229 C218 1.273 . S
O230 Nd201 2.410 . S
O230 C219 1.251 . S
O231 Nd200 2.424 . S
O231 C219 1.268 . S
H232 C204 0.930 . S
H233 C205 0.929 . S
H234 C207 0.930 . S
H235 C208 0.929 . S
H236 C213 0.930 . S
H237 C214 0.929 . S
H238 C216 0.930 . S
H239 C217 0.929 . S
Nd240 C242 2.836 1_556 S
Nd240 O260 2.500 1_556 S
Nd240 O261 2.492 1_546 S
Nd240 O262 2.487 1_545 S
Nd240 O263 2.682 1_545 S
Nd240 O264 2.410 1_546 S
Nd240 O269 2.414 . S
Nd240 O271 2.424 . S
Nd241 C251 2.836 . S
Nd241 O263 2.414 1_545 S
Nd241 O265 2.426 1_556 S
Nd241 O266 2.500 1_545 S
Nd241 O267 2.492 . S
Nd241 O268 2.487 1_556 S
Nd241 O269 2.682 . S
Nd241 O270 2.410 . S
C242 Nd240 2.836 1_554 S
C242 C243 1.498 . S
C242 O260 1.258 . S
C242 O261 1.239 1_545 S
C243 C242 1.498 . S
C243 C244 1.366 . S
C243 C248 1.407 1_545 S
C244 C243 1.366 . S
C244 C245 1.392 . S
C244 H272 0.930 . S
C245 C244 1.392 . S
C245 C246 1.398 . S
C245 H273 0.929 . S
C246 C245 1.398 . S
C246 C247 1.352 1_545 S
C247 C246 1.352 1_565 S
C247 C248 1.384 . S
C247 H274 0.930 . S
C248 C243 1.407 1_565 S
C248 C247 1.384 . S
C248 H275 0.929 . S
C249 O262 1.241 . S
C249 O263 1.273 . S
C250 O264 1.251 . S
C250 O265 1.266 1_565 S
C251 Nd241 2.836 . S
C251 C252 1.498 . S
C251 O266 1.258 1_545 S
C251 O267 1.239 . S
C252 C251 1.498 . S
C252 C253 1.366 1_545 S
C252 C257 1.407 . S
C253 C252 1.366 1_565 S
C253 C254 1.392 . S
C253 H276 0.930 . S
C254 C253 1.392 . S
C254 C255 1.398 1_565 S
C254 H277 0.929 . S
C255 C254 1.398 1_545 S
C255 C256 1.352 . S
C256 C255 1.352 . S
C256 C257 1.384 . S
C256 H278 0.930 . S
C257 C252 1.407 . S
C257 C256 1.384 . S
C257 H279 0.929 . S
C258 O268 1.241 . S
C258 O269 1.273 1_554 S
C259 O270 1.251 . S
C259 O271 1.268 . S
O260 Nd240 2.500 1_554 S
O260 C242 1.258 . S
O261 Nd240 2.492 1_564 S
O261 C242 1.239 1_565 S
O262 Nd240 2.487 1_565 S
O262 C249 1.241 . S
O263 Nd240 2.682 1_565 S
O263 Nd241 2.414 1_565 S
O263 C249 1.273 . S
O264 Nd240 2.410 1_564 S
O264 C250 1.251 . S
O265 Nd241 2.426 1_554 S
O265 C250 1.266 1_545 S
O266 Nd241 2.500 1_565 S
O266 C251 1.258 1_565 S
O267 Nd241 2.492 . S
O267 C251 1.239 . S
O268 Nd241 2.487 1_554 S
O268 C258 1.241 . S
O269 Nd240 2.414 . S
O269 Nd241 2.682 . S
O269 C258 1.273 1_556 S
O270 Nd241 2.410 . S
O270 C259 1.251 . S
O271 Nd240 2.424 . S
O271 C259 1.268 . S
H272 C244 0.930 . S
H273 C245 0.929 . S
H274 C247 0.930 . S
H275 C248 0.929 . S
H276 C253 0.930 . S
H277 C254 0.929 . S
H278 C256 0.930 . S
H279 C257 0.929 . S
Nd280 C282 2.836 1_556 S
Nd280 O300 2.500 1_556 S
Nd280 O301 2.492 1_556 S
Nd280 O302 2.487 . S
Nd280 O303 2.682 . S
Nd280 O304 2.410 1_556 S
Nd280 O309 2.414 . S
Nd280 O311 2.424 . S
Nd281 C291 2.836 . S
Nd281 O303 2.414 . S
Nd281 O305 2.424 1_556 S
Nd281 O306 2.500 . S
Nd281 O307 2.492 . S
Nd281 O308 2.487 1_556 S
Nd281 O309 2.682 . S
Nd281 O310 2.410 . S
C282 Nd280 2.836 1_554 S
C282 C283 1.498 . S
C282 O300 1.258 . S
C282 O301 1.239 . S
C283 C282 1.498 . S
C283 C284 1.366 . S
C283 C288 1.407 . S
C284 C283 1.366 . S
C284 C285 1.392 . S
C284 H312 0.930 . S
C285 C284 1.392 . S
C285 C286 1.398 . S
C285 H313 0.929 . S
C286 C285 1.398 . S
C286 C287 1.352 . S
C287 C286 1.352 . S
C287 C288 1.384 . S
C287 H314 0.930 . S
C288 C283 1.407 . S
C288 C287 1.384 . S
C288 H315 0.929 . S
C289 O302 1.241 . S
C289 O303 1.273 . S
C290 O304 1.251 . S
C290 O305 1.268 . S
C291 Nd281 2.836 . S
C291 C292 1.498 . S
C291 O306 1.258 . S
C291 O307 1.239 . S
C292 C291 1.498 . S
C292 C293 1.366 . S
C292 C297 1.407 . S
C293 C292 1.366 . S
C293 C294 1.392 . S
C293 H316 0.930 . S
C294 C293 1.392 . S
C294 C295 1.398 . S
C294 H317 0.929 . S
C295 C294 1.398 . S
C295 C296 1.352 . S
C296 C295 1.352 . S
C296 C297 1.384 . S
C296 H318 0.930 . S
C297 C292 1.407 . S
C297 C296 1.384 . S
C297 H319 0.929 . S
C298 O308 1.241 . S
C298 O309 1.273 1_554 S
C299 O310 1.251 . S
C299 O311 1.268 . S
O300 Nd280 2.500 1_554 S
O300 C282 1.258 . S
O301 Nd280 2.492 1_554 S
O301 C282 1.239 . S
O302 Nd280 2.487 . S
O302 C289 1.241 . S
O303 Nd280 2.682 . S
O303 Nd281 2.414 . S
O303 C289 1.273 . S
O304 Nd280 2.410 1_554 S
O304 C290 1.251 . S
O305 Nd281 2.424 1_554 S
O305 C290 1.268 . S
O306 Nd281 2.500 . S
O306 C291 1.258 . S
O307 Nd281 2.492 . S
O307 C291 1.239 . S
O308 Nd281 2.487 1_554 S
O308 C298 1.241 . S
O309 Nd280 2.414 . S
O309 Nd281 2.682 . S
O309 C298 1.273 1_556 S
O310 Nd281 2.410 . S
O310 C299 1.251 . S
O311 Nd280 2.424 . S
O311 C299 1.268 . S
H312 C284 0.930 . S
H313 C285 0.929 . S
H314 C287 0.930 . S
H315 C288 0.929 . S
H316 C293 0.930 . S
H317 C294 0.929 . S
H318 C296 0.930 . S
H319 C297 0.929 . S
Nd320 C322 2.836 . S
Nd320 O340 2.500 . S
Nd320 O341 2.492 . S
Nd320 O342 2.487 . S
Nd320 O343 2.682 . S
Nd320 O344 2.410 . S
Nd320 O349 2.414 . S
Nd320 O351 2.424 . S
Nd321 C331 2.836 . S
Nd321 O343 2.414 . S
Nd321 O345 2.424 . S
Nd321 O346 2.500 . S
Nd321 O347 2.492 . S
Nd321 O348 2.487 . S
Nd321 O349 2.682 . S
Nd321 O350 2.410 . S
C322 Nd320 2.836 . S
C322 C323 1.498 . S
C322 O340 1.258 . S
C322 O341 1.239 . S
C323 C322 1.498 . S
C323 C324 1.366 . S
C323 C328 1.407 . S
C324 C323 1.366 . S
C324 C325 1.392 . S
C324 H352 0.930 . S
C325 C324 1.392 . S
C325 C326 1.398 . S
C325 H353 0.929 . S
C326 C325 1.398 . S
C326 C327 1.352 . S
C327 C326 1.352 . S
C327 C328 1.384 . S
C327 H354 0.930 . S
C328 C323 1.407 . S
C328 C327 1.384 . S
C328 H355 0.929 . S
C329 O342 1.241 . S
C329 O343 1.273 . S
C330 O344 1.251 . S
C330 O345 1.268 . S
C331 Nd321 2.836 . S
C331 C332 1.498 . S
C331 O346 1.258 . S
C331 O347 1.239 . S
C332 C331 1.498 . S
C332 C333 1.366 . S
C332 C337 1.407 . S
C333 C332 1.366 . S
C333 C334 1.392 . S
C333 H356 0.930 . S
C334 C333 1.392 . S
C334 C335 1.398 . S
C334 H357 0.929 . S
C335 C334 1.398 . S
C335 C336 1.352 . S
C336 C335 1.352 . S
C336 C337 1.384 . S
C336 H358 0.930 . S
C337 C332 1.407 . S
C337 C336 1.384 . S
C337 H359 0.929 . S
C338 O348 1.241 . S
C338 O349 1.273 . S
C339 O350 1.251 . S
C339 O351 1.268 . S
O340 Nd320 2.500 . S
O340 C322 1.258 . S
O341 Nd320 2.492 . S
O341 C322 1.239 . S
O342 Nd320 2.487 . S
O342 C329 1.241 . S
O343 Nd320 2.682 . S
O343 Nd321 2.414 . S
O343 C329 1.273 . S
O344 Nd320 2.410 . S
O344 C330 1.251 . S
O345 Nd321 2.424 . S
O345 C330 1.268 . S
O346 Nd321 2.500 . S
O346 C331 1.258 . S
O347 Nd321 2.492 . S
O347 C331 1.239 . S
O348 Nd321 2.487 . S
O348 C338 1.241 . S
O349 Nd320 2.414 . S
O349 Nd321 2.682 . S
O349 C338 1.273 . S
O350 Nd321 2.410 . S
O350 C339 1.251 . S
O351 Nd320 2.424 . S
O351 C339 1.268 . S
H352 C324 0.930 . S
H353 C325 0.929 . S
H354 C327 0.930 . S
H355 C328 0.929 . S
H356 C333 0.930 . S
H357 C334 0.929 . S
H358 C336 0.930 . S
H359 C337 0.929 . S
Nd360 C362 2.836 . S
Nd360 O380 2.500 . S
Nd360 O381 2.492 . S
Nd360 O382 2.487 . S
Nd360 O383 2.682 . S
Nd360 O384 2.410 . S
Nd360 O389 2.414 . S
Nd360 O391 2.424 . S
Nd361 C371 2.836 . S
Nd361 O383 2.414 . S
Nd361 O385 2.424 . S
Nd361 O386 2.500 . S
Nd361 O387 2.492 . S
Nd361 O388 2.487 . S
Nd361 O389 2.682 . S
Nd361 O390 2.410 . S
C362 Nd360 2.836 . S
C362 C363 1.498 . S
C362 O380 1.258 . S
C362 O381 1.239 . S
C363 C362 1.498 . S
C363 C364 1.366 . S
C363 C368 1.407 . S
C364 C363 1.366 . S
C364 C365 1.392 . S
C364 H392 0.930 . S
C365 C364 1.392 . S
C365 C366 1.398 . S
C365 H393 0.929 . S
C366 C365 1.398 . S
C366 C367 1.352 . S
C367 C366 1.352 . S
C367 C368 1.384 . S
C367 H394 0.930 . S
C368 C363 1.407 . S
C368 C367 1.384 . S
C368 H395 0.929 . S
C369 O382 1.241 . S
C369 O383 1.273 . S
C370 O384 1.251 . S
C370 O385 1.268 . S
C371 Nd361 2.836 . S
C371 C372 1.498 . S
C371 O386 1.258 . S
C371 O387 1.239 . S
C372 C371 1.498 . S
C372 C373 1.366 . S
C372 C377 1.407 . S
C373 C372 1.366 . S
C373 C374 1.392 . S
C373 H396 0.930 . S
C374 C373 1.392 . S
C374 C375 1.398 . S
C374 H397 0.929 . S
C375 C374 1.398 . S
C375 C376 1.352 . S
C376 C375 1.352 . S
C376 C377 1.384 . S
C376 H398 0.930 . S
C377 C372 1.407 . S
C377 C376 1.384 . S
C377 H399 0.929 . S
C378 O388 1.241 . S
C378 O389 1.273 . S
C379 O390 1.251 . S
C379 O391 1.268 . S
O380 Nd360 2.500 . S
O380 C362 1.258 . S
O381 Nd360 2.492 . S
O381 C362 1.239 . S
O382 Nd360 2.487 . S
O382 C369 1.241 . S
O383 Nd360 2.682 . S
O383 Nd361 2.414 . S
O383 C369 1.273 . S
O384 Nd360 2.410 . S
O384 C370 1.251 . S
O385 Nd361 2.424 . S
O385 C370 1.268 . S
O386 Nd361 2.500 . S
O386 C371 1.258 . S
O387 Nd361 2.492 . S
O387 C371 1.239 . S
O388 Nd361 2.487 . S
O388 C378 1.241 . S
O389 Nd360 2.414 . S
O389 Nd361 2.682 . S
O389 C378 1.273 . S
O390 Nd361 2.410 . S
O390 C379 1.251 . S
O391 Nd360 2.424 . S
O391 C379 1.268 . S
H392 C364 0.930 . S
H393 C365 0.929 . S
H394 C367 0.930 . S
H395 C368 0.929 . S
H396 C373 0.930 . S
H397 C374 0.929 . S
H398 C376 0.930 . S
H399 C377 0.929 . S
Nd400 C402 2.836 . S
Nd400 O420 2.500 . S
Nd400 O421 2.492 . S
Nd400 O422 2.487 . S
Nd400 O423 2.682 . S
Nd400 O424 2.410 . S
Nd400 O429 2.414 . S
Nd400 O431 2.424 . S
Nd401 C411 2.836 . S
Nd401 O423 2.414 . S
Nd401 O425 2.424 . S
Nd401 O426 2.500 . S
Nd401 O427 2.492 . S
Nd401 O428 2.487 . S
Nd401 O429 2.682 . S
Nd401 O430 2.410 . S
C402 Nd400 2.836 . S
C402 C403 1.498 . S
C402 O420 1.258 . S
C402 O421 1.239 . S
C403 C402 1.498 . S
C403 C404 1.366 . S
C403 C408 1.407 . S
C404 C403 1.366 . S
C404 C405 1.392 . S
C404 H432 0.930 . S
C405 C404 1.392 . S
C405 C406 1.398 . S
C405 H433 0.929 . S
C406 C405 1.398 . S
C406 C407 1.352 . S
C407 C406 1.352 . S
C407 C408 1.384 . S
C407 H434 0.930 . S
C408 C403 1.407 . S
C408 C407 1.384 . S
C408 H435 0.929 . S
C409 O422 1.241 . S
C409 O423 1.273 . S
C410 O424 1.251 . S
C410 O425 1.268 . S
C411 Nd401 2.836 . S
C411 C412 1.498 . S
C411 O426 1.258 . S
C411 O427 1.239 . S
C412 C411 1.498 . S
C412 C413 1.366 . S
C412 C417 1.407 . S
C413 C412 1.366 . S
C413 C414 1.392 . S
C413 H436 0.930 . S
C414 C413 1.392 . S
C414 C415 1.398 . S
C414 H437 0.929 . S
C415 C414 1.398 . S
C415 C416 1.352 . S
C416 C415 1.352 . S
C416 C417 1.384 . S
C416 H438 0.930 . S
C417 C412 1.407 . S
C417 C416 1.384 . S
C417 H439 0.929 . S
C418 O428 1.241 . S
C418 O429 1.273 . S
C419 O430 1.251 . S
C419 O431 1.268 . S
O420 Nd400 2.500 . S
O420 C402 1.258 . S
O421 Nd400 2.492 . S
O421 C402 1.239 . S
O422 Nd400 2.487 . S
O422 C409 1.241 . S
O423 Nd400 2.682 . S
O423 Nd401 2.414 . S
O423 C409 1.273 . S
O424 Nd400 2.410 . S
O424 C410 1.251 . S
O425 Nd401 2.424 . S
O425 C410 1.268 . S
O426 Nd401 2.500 . S
O426 C411 1.258 . S
O427 Nd401 2.492 . S
O427 C411 1.239 . S
O428 Nd401 2.487 . S
O428 C418 1.241 . S
O429 Nd400 2.414 . S
O429 Nd401 2.682 . S
O429 C418 1.273 . S
O430 Nd401 2.410 . S
O430 C419 1.251 . S
O431 Nd400 2.424 . S
O431 C419 1.268 . S
H432 C404 0.930 . S
H433 C405 0.929 . S
H434 C407 0.930 . S
H435 C408 0.929 . S
H436 C413 0.930 . S
H437 C414 0.929 . S
H438 C416 0.930 . S
H439 C417 0.929 . S
Nd440 C442 2.836 . S
Nd440 O460 2.500 . S
Nd440 O461 2.492 . S
Nd440 O462 2.487 . S
Nd440 O463 2.682 . S
Nd440 O464 2.410 . S
Nd440 O469 2.414 . S
Nd440 O471 2.424 . S
Nd441 C451 2.836 . S
Nd441 O463 2.414 . S
Nd441 O465 2.424 . S
Nd441 O466 2.500 . S
Nd441 O467 2.492 . S
Nd441 O468 2.487 . S
Nd441 O469 2.682 . S
Nd441 O470 2.410 . S
C442 Nd440 2.836 . S
C442 C443 1.498 . S
C442 O460 1.258 . S
C442 O461 1.239 . S
C443 C442 1.498 . S
C443 C444 1.366 . S
C443 C448 1.407 . S
C444 C443 1.366 . S
C444 C445 1.392 . S
C444 H472 0.930 . S
C445 C444 1.392 . S
C445 C446 1.398 . S
C445 H473 0.929 . S
C446 C445 1.398 . S
C446 C447 1.352 . S
C447 C446 1.352 . S
C447 C448 1.384 . S
C447 H474 0.930 . S
C448 C443 1.407 . S
C448 C447 1.384 . S
C448 H475 0.929 . S
C449 O462 1.241 . S
C449 O463 1.273 . S
C450 O464 1.251 . S
C450 O465 1.268 . S
C451 Nd441 2.836 . S
C451 C452 1.498 . S
C451 O466 1.258 . S
C451 O467 1.239 . S
C452 C451 1.498 . S
C452 C453 1.366 . S
C452 C457 1.407 . S
C453 C452 1.366 . S
C453 C454 1.392 . S
C453 H476 0.930 . S
C454 C453 1.392 . S
C454 C455 1.398 . S
C454 H477 0.929 . S
C455 C454 1.398 . S
C455 C456 1.352 . S
C456 C455 1.352 . S
C456 C457 1.384 . S
C456 H478 0.930 . S
C457 C452 1.407 . S
C457 C456 1.384 . S
C457 H479 0.929 . S
C458 O468 1.241 . S
C458 O469 1.273 . S
C459 O470 1.251 . S
C459 O471 1.268 . S
O460 Nd440 2.500 . S
O460 C442 1.258 . S
O461 Nd440 2.492 . S
O461 C442 1.239 . S
O462 Nd440 2.487 . S
O462 C449 1.241 . S
O463 Nd440 2.682 . S
O463 Nd441 2.414 . S
O463 C449 1.273 . S
O464 Nd440 2.410 . S
O464 C450 1.251 . S
O465 Nd441 2.424 . S
O465 C450 1.268 . S
O466 Nd441 2.500 . S
O466 C451 1.258 . S
O467 Nd441 2.492 . S
O467 C451 1.239 . S
O468 Nd441 2.487 . S
O468 C458 1.241 . S
O469 Nd440 2.414 . S
O469 Nd441 2.682 . S
O469 C458 1.273 . S
O470 Nd441 2.410 . S
O470 C459 1.251 . S
O471 Nd440 2.424 . S
O471 C459 1.268 . S
H472 C444 0.930 . S
H473 C445 0.929 . S
H474 C447 0.930 . S
H475 C448 0.929 . S
H476 C453 0.930 . S
H477 C454 0.929 . S
H478 C456 0.930 . S
H479 C457 0.929 . S
Nd480 C482 2.836 . S
Nd480 O500 2.500 . S
Nd480 O501 2.492 . S
Nd480 O502 2.487 . S
Nd480 O503 2.682 . S
Nd480 O504 2.410 . S
Nd480 O509 2.414 . S
Nd480 O511 2.424 . S
Nd481 C491 2.836 . S
Nd481 O503 2.414 . S
Nd481 O505 2.424 . S
Nd481 O506 2.500 . S
Nd481 O507 2.492 . S
Nd481 O508 2.487 . S
Nd481 O509 2.682 . S
Nd481 O510 2.410 . S
C482 Nd480 2.836 . S
C482 C483 1.498 . S
C482 O500 1.258 . S
C482 O501 1.239 . S
C483 C482 1.498 . S
C483 C484 1.366 . S
C483 C488 1.407 . S
C484 C483 1.366 . S
C484 C485 1.392 . S
C484 H512 0.930 . S
C485 C484 1.392 . S
C485 C486 1.398 . S
C485 H513 0.929 . S
C486 C485 1.398 . S
C486 C487 1.352 . S
C487 C486 1.352 . S
C487 C488 1.384 . S
C487 H514 0.930 . S
C488 C483 1.407 . S
C488 C487 1.384 . S
C488 H515 0.929 . S
C489 O502 1.241 . S
C489 O503 1.273 . S
C490 O504 1.251 . S
C490 O505 1.268 . S
C491 Nd481 2.836 . S
C491 C492 1.498 . S
C491 O506 1.258 . S
C491 O507 1.239 . S
C492 C491 1.498 . S
C492 C493 1.366 . S
C492 C497 1.407 . S
C493 C492 1.366 . S
C493 C494 1.392 . S
C493 H516 0.930 . S
C494 C493 1.392 . S
C494 C495 1.398 . S
C494 H517 0.929 . S
C495 C494 1.398 . S
C495 C496 1.352 . S
C496 C495 1.352 . S
C496 C497 1.384 . S
C496 H518 0.930 . S
C497 C492 1.407 . S
C497 C496 1.384 . S
C497 H519 0.929 . S
C498 O508 1.241 . S
C498 O509 1.273 . S
C499 O510 1.251 . S
C499 O511 1.268 . S
O500 Nd480 2.500 . S
O500 C482 1.258 . S
O501 Nd480 2.492 . S
O501 C482 1.239 . S
O502 Nd480 2.487 . S
O502 C489 1.241 . S
O503 Nd480 2.682 . S
O503 Nd481 2.414 . S
O503 C489 1.273 . S
O504 Nd480 2.410 . S
O504 C490 1.251 . S
O505 Nd481 2.424 . S
O505 C490 1.268 . S
O506 Nd481 2.500 . S
O506 C491 1.258 . S
O507 Nd481 2.492 . S
O507 C491 1.239 . S
O508 Nd481 2.487 . S
O508 C498 1.241 . S
O509 Nd480 2.414 . S
O509 Nd481 2.682 . S
O509 C498 1.273 . S
O510 Nd481 2.410 . S
O510 C499 1.251 . S
O511 Nd480 2.424 . S
O511 C499 1.268 . S
H512 C484 0.930 . S
H513 C485 0.929 . S
H514 C487 0.930 . S
H515 C488 0.929 . S
H516 C493 0.930 . S
H517 C494 0.929 . S
H518 C496 0.930 . S
H519 C497 0.929 . S
Nd520 C522 2.836 . S
Nd520 O540 2.500 . S
Nd520 O541 2.492 . S
Nd520 O542 2.487 . S
Nd520 O543 2.682 . S
Nd520 O544 2.410 . S
Nd520 O549 2.414 . S
Nd520 O551 2.424 . S
Nd521 C531 2.836 . S
Nd521 O543 2.414 . S
Nd521 O545 2.424 . S
Nd521 O546 2.500 . S
Nd521 O547 2.492 . S
Nd521 O548 2.487 . S
Nd521 O549 2.682 . S
Nd521 O550 2.410 . S
C522 Nd520 2.836 . S
C522 C523 1.498 . S
C522 O540 1.258 . S
C522 O541 1.239 . S
C523 C522 1.498 . S
C523 C524 1.366 . S
C523 C528 1.407 . S
C524 C523 1.366 . S
C524 C525 1.392 . S
C524 H552 0.930 . S
C525 C524 1.392 . S
C525 C526 1.398 . S
C525 H553 0.929 . S
C526 C525 1.398 . S
C526 C527 1.352 . S
C527 C526 1.352 . S
C527 C528 1.384 . S
C527 H554 0.930 . S
C528 C523 1.407 . S
C528 C527 1.384 . S
C528 H555 0.929 . S
C529 O542 1.241 . S
C529 O543 1.273 . S
C530 O544 1.251 . S
C530 O545 1.268 . S
C531 Nd521 2.836 . S
C531 C532 1.498 . S
C531 O546 1.258 . S
C531 O547 1.239 . S
C532 C531 1.498 . S
C532 C533 1.366 . S
C532 C537 1.407 . S
C533 C532 1.366 . S
C533 C534 1.392 . S
C533 H556 0.930 . S
C534 C533 1.392 . S
C534 C535 1.398 . S
C534 H557 0.929 . S
C535 C534 1.398 . S
C535 C536 1.352 . S
C536 C535 1.352 . S
C536 C537 1.384 . S
C536 H558 0.930 . S
C537 C532 1.407 . S
C537 C536 1.384 . S
C537 H559 0.929 . S
C538 O548 1.241 . S
C538 O549 1.273 . S
C539 O550 1.251 . S
C539 O551 1.268 . S
O540 Nd520 2.500 . S
O540 C522 1.258 . S
O541 Nd520 2.492 . S
O541 C522 1.239 . S
O542 Nd520 2.487 . S
O542 C529 1.241 . S
O543 Nd520 2.682 . S
O543 Nd521 2.414 . S
O543 C529 1.273 . S
O544 Nd520 2.410 . S
O544 C530 1.251 . S
O545 Nd521 2.424 . S
O545 C530 1.268 . S
O546 Nd521 2.500 . S
O546 C531 1.258 . S
O547 Nd521 2.492 . S
O547 C531 1.239 . S
O548 Nd521 2.487 . S
O548 C538 1.241 . S
O549 Nd520 2.414 . S
O549 Nd521 2.682 . S
O549 C538 1.273 . S
O550 Nd521 2.410 . S
O550 C539 1.251 . S
O551 Nd520 2.424 . S
O551 C539 1.268 . S
H552 C524 0.930 . S
H553 C525 0.929 . S
H554 C527 0.930 . S
H555 C528 0.929 . S
H556 C533 0.930 . S
H557 C534 0.929 . S
H558 C536 0.930 . S
H559 C537 0.929 . S
Nd560 C562 2.836 . S
Nd560 O580 2.500 . S
Nd560 O581 2.492 . S
Nd560 O582 2.487 . S
Nd560 O583 2.682 . S
Nd560 O584 2.410 . S
Nd560 O589 2.414 . S
Nd560 O591 2.424 . S
Nd561 C571 2.836 . S
Nd561 O583 2.414 . S
Nd561 O585 2.424 . S
Nd561 O586 2.500 . S
Nd561 O587 2.492 . S
Nd561 O588 2.487 . S
Nd561 O589 2.682 . S
Nd561 O590 2.410 . S
C562 Nd560 2.836 . S
C562 C563 1.498 . S
C562 O580 1.258 . S
C562 O581 1.239 . S
C563 C562 1.498 . S
C563 C564 1.366 . S
C563 C568 1.407 . S
C564 C563 1.366 . S
C564 C565 1.392 . S
C564 H592 0.930 . S
C565 C564 1.392 . S
C565 C566 1.398 . S
C565 H593 0.929 . S
C566 C565 1.398 . S
C566 C567 1.352 . S
C567 C566 1.352 . S
C567 C568 1.384 . S
C567 H594 0.930 . S
C568 C563 1.407 . S
C568 C567 1.384 . S
C568 H595 0.929 . S
C569 O582 1.241 . S
C569 O583 1.273 . S
C570 O584 1.251 . S
C570 O585 1.268 . S
C571 Nd561 2.836 . S
C571 C572 1.498 . S
C571 O586 1.258 . S
C571 O587 1.239 . S
C572 C571 1.498 . S
C572 C573 1.366 . S
C572 C577 1.407 . S
C573 C572 1.366 . S
C573 C574 1.392 . S
C573 H596 0.930 . S
C574 C573 1.392 . S
C574 C575 1.398 . S
C574 H597 0.929 . S
C575 C574 1.398 . S
C575 C576 1.352 . S
C576 C575 1.352 . S
C576 C577 1.384 . S
C576 H598 0.930 . S
C577 C572 1.407 . S
C577 C576 1.384 . S
C577 H599 0.929 . S
C578 O588 1.241 . S
C578 O589 1.273 . S
C579 O590 1.251 . S
C579 O591 1.268 . S
O580 Nd560 2.500 . S
O580 C562 1.258 . S
O581 Nd560 2.492 . S
O581 C562 1.239 . S
O582 Nd560 2.487 . S
O582 C569 1.241 . S
O583 Nd560 2.682 . S
O583 Nd561 2.414 . S
O583 C569 1.273 . S
O584 Nd560 2.410 . S
O584 C570 1.251 . S
O585 Nd561 2.424 . S
O585 C570 1.268 . S
O586 Nd561 2.500 . S
O586 C571 1.258 . S
O587 Nd561 2.492 . S
O587 C571 1.239 . S
O588 Nd561 2.487 . S
O588 C578 1.241 . S
O589 Nd560 2.414 . S
O589 Nd561 2.682 . S
O589 C578 1.273 . S
O590 Nd561 2.410 . S
O590 C579 1.251 . S
O591 Nd560 2.424 . S
O591 C579 1.268 . S
H592 C564 0.930 . S
H593 C565 0.929 . S
H594 C567 0.930 . S
H595 C568 0.929 . S
H596 C573 0.930 . S
H597 C574 0.929 . S
H598 C576 0.930 . S
H599 C577 0.929 . S
Nd600 C602 2.836 . S
Nd600 O620 2.500 . S
Nd600 O621 2.492 . S
Nd600 O622 2.487 . S
Nd600 O623 2.682 . S
Nd600 O624 2.410 . S
Nd600 O629 2.414 . S
Nd600 O631 2.424 . S
Nd601 C611 2.836 . S
Nd601 O623 2.414 . S
Nd601 O625 2.424 . S
Nd601 O626 2.500 . S
Nd601 O627 2.492 . S
Nd601 O628 2.487 . S
Nd601 O629 2.682 . S
Nd601 O630 2.410 . S
C602 Nd600 2.836 . S
C602 C603 1.498 . S
C602 O620 1.258 . S
C602 O621 1.239 . S
C603 C602 1.498 . S
C603 C604 1.366 . S
C603 C608 1.407 . S
C604 C603 1.366 . S
C604 C605 1.392 . S
C604 H632 0.930 . S
C605 C604 1.392 . S
C605 C606 1.398 . S
C605 H633 0.929 . S
C606 C605 1.398 . S
C606 C607 1.352 . S
C607 C606 1.352 . S
C607 C608 1.384 . S
C607 H634 0.930 . S
C608 C603 1.407 . S
C608 C607 1.384 . S
C608 H635 0.929 . S
C609 O622 1.241 . S
C609 O623 1.273 . S
C610 O624 1.251 . S
C610 O625 1.268 . S
C611 Nd601 2.836 . S
C611 C612 1.498 . S
C611 O626 1.258 . S
C611 O627 1.239 . S
C612 C611 1.498 . S
C612 C613 1.366 . S
C612 C617 1.407 . S
C613 C612 1.366 . S
C613 C614 1.392 . S
C613 H636 0.930 . S
C614 C613 1.392 . S
C614 C615 1.398 . S
C614 H637 0.929 . S
C615 C614 1.398 . S
C615 C616 1.352 . S
C616 C615 1.352 . S
C616 C617 1.384 . S
C616 H638 0.930 . S
C617 C612 1.407 . S
C617 C616 1.384 . S
C617 H639 0.929 . S
C618 O628 1.241 . S
C618 O629 1.273 . S
C619 O630 1.251 . S
C619 O631 1.268 . S
O620 Nd600 2.500 . S
O620 C602 1.258 . S
O621 Nd600 2.492 . S
O621 C602 1.239 . S
O622 Nd600 2.487 . S
O622 C609 1.241 . S
O623 Nd600 2.682 . S
O623 Nd601 2.414 . S
O623 C609 1.273 . S
O624 Nd600 2.410 . S
O624 C610 1.251 . S
O625 Nd601 2.424 . S
O625 C610 1.268 . S
O626 Nd601 2.500 . S
O626 C611 1.258 . S
O627 Nd601 2.492 . S
O627 C611 1.239 . S
O628 Nd601 2.487 . S
O628 C618 1.241 . S
O629 Nd600 2.414 . S
O629 Nd601 2.682 . S
O629 C618 1.273 . S
O630 Nd601 2.410 . S
O630 C619 1.251 . S
O631 Nd600 2.424 . S
O631 C619 1.268 . S
H632 C604 0.930 . S
H633 C605 0.929 . S
H634 C607 0.930 . S
H635 C608 0.929 . S
H636 C613 0.930 . S
H637 C614 0.929 . S
H638 C616 0.930 . S
H639 C617 0.929 . S
Nd640 C642 2.836 . S
Nd640 O660 2.500 . S
Nd640 O661 2.492 . S
Nd640 O662 2.487 . S
Nd640 O663 2.682 . S
Nd640 O664 2.410 . S
Nd640 O669 2.414 . S
Nd640 O671 2.424 . S
Nd641 C651 2.836 . S
Nd641 O663 2.414 . S
Nd641 O665 2.424 . S
Nd641 O666 2.500 . S
Nd641 O667 2.492 . S
Nd641 O668 2.487 . S
Nd641 O669 2.682 . S
Nd641 O670 2.410 . S
C642 Nd640 2.836 . S
C642 C643 1.498 . S
C642 O660 1.258 . S
C642 O661 1.239 . S
C643 C642 1.498 . S
C643 C644 1.366 . S
C643 C648 1.407 . S
C644 C643 1.366 . S
C644 C645 1.392 . S
C644 H672 0.930 . S
C645 C644 1.392 . S
C645 C646 1.398 . S
C645 H673 0.929 . S
C646 C645 1.398 . S
C646 C647 1.352 . S
C647 C646 1.352 . S
C647 C648 1.384 . S
C647 H674 0.930 . S
C648 C643 1.407 . S
C648 C647 1.384 . S
C648 H675 0.929 . S
C649 O662 1.241 . S
C649 O663 1.273 . S
C650 O664 1.251 . S
C650 O665 1.268 . S
C651 Nd641 2.836 . S
C651 C652 1.498 . S
C651 O666 1.258 . S
C651 O667 1.239 . S
C652 C651 1.498 . S
C652 C653 1.366 . S
C652 C657 1.407 . S
C653 C652 1.366 . S
C653 C654 1.392 . S
C653 H676 0.930 . S
C654 C653 1.392 . S
C654 C655 1.398 . S
C654 H677 0.929 . S
C655 C654 1.398 . S
C655 C656 1.352 . S
C656 C655 1.352 . S
C656 C657 1.384 . S
C656 H678 0.930 . S
C657 C652 1.407 . S
C657 C656 1.384 . S
C657 H679 0.929 . S
C658 O668 1.241 . S
C658 O669 1.273 . S
C659 O670 1.251 . S
C659 O671 1.268 . S
O660 Nd640 2.500 . S
O660 C642 1.258 . S
O661 Nd640 2.492 . S
O661 C642 1.239 . S
O662 Nd640 2.487 . S
O662 C649 1.241 . S
O663 Nd640 2.682 . S
O663 Nd641 2.414 . S
O663 C649 1.273 . S
O664 Nd640 2.410 . S
O664 C650 1.251 . S
O665 Nd641 2.424 . S
O665 C650 1.268 . S
O666 Nd641 2.500 . S
O666 C651 1.258 . S
O667 Nd641 2.492 . S
O667 C651 1.239 . S
O668 Nd641 2.487 . S
O668 C658 1.241 . S
O669 Nd640 2.414 . S
O669 Nd641 2.682 . S
O669 C658 1.273 . S
O670 Nd641 2.410 . S
O670 C659 1.251 . S
O671 Nd640 2.424 . S
O671 C659 1.268 . S
H672 C644 0.930 . S
H673 C645 0.929 . S
H674 C647 0.930 . S
H675 C648 0.929 . S
H676 C653 0.930 . S
H677 C654 0.929 . S
H678 C656 0.930 . S
H679 C657 0.929 . S
Nd680 C682 2.836 . S
Nd680 O700 2.500 1_565 S
Nd680 O701 2.492 . S
Nd680 O702 2.487 . S
Nd680 O703 2.682 . S
Nd680 O704 2.410 . S
Nd680 O709 2.414 1_565 S
Nd680 O711 2.426 . S
Nd681 C691 2.836 . S
Nd681 O703 2.414 . S
Nd681 O705 2.424 . S
Nd681 O706 2.500 . S
Nd681 O707 2.492 1_565 S
Nd681 O708 2.487 1_565 S
Nd681 O709 2.682 1_565 S
Nd681 O710 2.410 1_565 S
C682 Nd680 2.836 . S
C682 C683 1.498 . S
C682 O700 1.258 1_565 S
C682 O701 1.239 . S
C683 C682 1.498 . S
C683 C684 1.366 1_565 S
C683 C688 1.407 . S
C684 C683 1.366 1_545 S
C684 C685 1.392 . S
C684 H712 0.930 . S
C685 C684 1.392 . S
C685 C686 1.398 1_545 S
C685 H713 0.929 . S
C686 C685 1.398 1_565 S
C686 C687 1.352 . S
C687 C686 1.352 . S
C687 C688 1.384 . S
C687 H714 0.930 . S
C688 C683 1.407 . S
C688 C687 1.384 . S
C688 H715 0.929 . S
C689 O702 1.241 . S
C689 O703 1.273 . S
C690 O704 1.251 . S
C690 O705 1.268 . S
C691 Nd681 2.836 . S
C691 C692 1.498 . S
C691 O706 1.258 . S
C691 O707 1.239 1_565 S
C692 C691 1.498 . S
C692 C693 1.366 . S
C692 C697 1.407 1_565 S
C693 C692 1.366 . S
C693 C694 1.392 . S
C693 H716 0.930 . S
C694 C693 1.392 . S
C694 C695 1.398 . S
C694 H717 0.929 . S
C695 C694 1.398 . S
C695 C696 1.352 1_565 S
C696 C695 1.352 1_545 S
C696 C697 1.384 . S
C696 H718 0.930 . S
C697 C692 1.407 1_545 S
C697 C696 1.384 . S
C697 H719 0.929 . S
C698 O708 1.241 . S
C698 O709 1.273 . S
C699 O710 1.251 . S
C699 O711 1.266 1_545 S
O700 Nd680 2.500 1_545 S
O700 C682 1.258 1_545 S
O701 Nd680 2.492 . S
O701 C682 1.239 . S
O702 Nd680 2.487 . S
O702 C689 1.241 . S
O703 Nd680 2.682 . S
O703 Nd681 2.414 . S
O703 C689 1.273 . S
O704 Nd680 2.410 . S
O704 C690 1.251 . S
O705 Nd681 2.424 . S
O705 C690 1.268 . S
O706 Nd681 2.500 . S
O706 C691 1.258 . S
O707 Nd681 2.492 1_545 S
O707 C691 1.239 1_545 S
O708 Nd681 2.487 1_545 S
O708 C698 1.241 . S
O709 Nd680 2.414 1_545 S
O709 Nd681 2.682 1_545 S
O709 C698 1.273 . S
O710 Nd681 2.410 1_545 S
O710 C699 1.251 . S
O711 Nd680 2.426 . S
O711 C699 1.266 1_565 S
H712 C684 0.930 . S
H713 C685 0.929 . S
H714 C687 0.930 . S
H715 C688 0.929 . S
H716 C693 0.930 . S
H717 C694 0.929 . S
H718 C696 0.930 . S
H719 C697 0.929 . S
Nd720 C722 2.836 . S
Nd720 O740 2.500 1_565 S
Nd720 O741 2.492 . S
Nd720 O742 2.487 . S
Nd720 O743 2.682 . S
Nd720 O744 2.410 . S
Nd720 O749 2.414 1_565 S
Nd720 O751 2.426 . S
Nd721 C731 2.836 . S
Nd721 O743 2.414 . S
Nd721 O745 2.424 . S
Nd721 O746 2.500 . S
Nd721 O747 2.492 1_565 S
Nd721 O748 2.487 1_565 S
Nd721 O749 2.682 1_565 S
Nd721 O750 2.410 1_565 S
C722 Nd720 2.836 . S
C722 C723 1.498 . S
C722 O740 1.258 1_565 S
C722 O741 1.239 . S
C723 C722 1.498 . S
C723 C724 1.366 1_565 S
C723 C728 1.407 . S
C724 C723 1.366 1_545 S
C724 C725 1.392 . S
C724 H752 0.930 . S
C725 C724 1.392 . S
C725 C726 1.398 1_545 S
C725 H753 0.929 . S
C726 C725 1.398 1_565 S
C726 C727 1.352 . S
C727 C726 1.352 . S
C727 C728 1.384 . S
C727 H754 0.930 . S
C728 C723 1.407 . S
C728 C727 1.384 . S
C728 H755 0.929 . S
C729 O742 1.241 . S
C729 O743 1.273 . S
C730 O744 1.251 . S
C730 O745 1.268 . S
C731 Nd721 2.836 . S
C731 C732 1.498 . S
C731 O746 1.258 . S
C731 O747 1.239 1_565 S
C732 C731 1.498 . S
C732 C733 1.366 . S
C732 C737 1.407 1_565 S
C733 C732 1.366 . S
C733 C734 1.392 . S
C733 H756 0.930 . S
C734 C733 1.392 . S
C734 C735 1.398 . S
C734 H757 0.929 . S
C735 C734 1.398 . S
C735 C736 1.352 1_565 S
C736 C735 1.352 1_545 S
C736 C737 1.384 . S
C736 H758 0.930 . S
C737 C732 1.407 1_545 S
C737 C736 1.384 . S
C737 H759 0.929 . S
C738 O748 1.241 . S
C738 O749 1.273 . S
C739 O750 1.251 . S
C739 O751 1.266 1_545 S
O740 Nd720 2.500 1_545 S
O740 C722 1.258 1_545 S
O741 Nd720 2.492 . S
O741 C722 1.239 . S
O742 Nd720 2.487 . S
O742 C729 1.241 . S
O743 Nd720 2.682 . S
O743 Nd721 2.414 . S
O743 C729 1.273 . S
O744 Nd720 2.410 . S
O744 C730 1.251 . S
O745 Nd721 2.424 . S
O745 C730 1.268 . S
O746 Nd721 2.500 . S
O746 C731 1.258 . S
O747 Nd721 2.492 1_545 S
O747 C731 1.239 1_545 S
O748 Nd721 2.487 1_545 S
O748 C738 1.241 . S
O749 Nd720 2.414 1_545 S
O749 Nd721 2.682 1_545 S
O749 C738 1.273 . S
O750 Nd721 2.410 1_545 S
O750 C739 1.251 . S
O751 Nd720 2.426 . S
O751 C739 1.266 1_565 S
H752 C724 0.930 . S
H753 C725 0.929 . S
H754 C727 0.930 . S
H755 C728 0.929 . S
H756 C733 0.930 . S
H757 C734 0.929 . S
H758 C736 0.930 . S
H759 C737 0.929 . S
Nd760 C762 2.836 . S
Nd760 O780 2.500 . S
Nd760 O781 2.492 . S
Nd760 O782 2.487 . S
Nd760 O783 2.682 . S
Nd760 O784 2.410 . S
Nd760 O789 2.414 . S
Nd760 O791 2.424 . S
Nd761 C771 2.836 . S
Nd761 O783 2.414 . S
Nd761 O785 2.424 . S
Nd761 O786 2.500 . S
Nd761 O787 2.492 . S
Nd761 O788 2.487 . S
Nd761 O789 2.682 . S
Nd761 O790 2.410 . S
C762 Nd760 2.836 . S
C762 C763 1.498 . S
C762 O780 1.258 . S
C762 O781 1.239 . S
C763 C762 1.498 . S
C763 C764 1.366 . S
C763 C768 1.407 . S
C764 C763 1.366 . S
C764 C765 1.392 . S
C764 H792 0.930 . S
C765 C764 1.392 . S
C765 C766 1.398 . S
C765 H793 0.929 . S
C766 C765 1.398 . S
C766 C767 1.352 . S
C767 C766 1.352 . S
C767 C768 1.384 . S
C767 H794 0.930 . S
C768 C763 1.407 . S
C768 C767 1.384 . S
C768 H795 0.929 . S
C769 O782 1.241 . S
C769 O783 1.273 . S
C770 O784 1.251 . S
C770 O785 1.268 . S
C771 Nd761 2.836 . S
C771 C772 1.498 . S
C771 O786 1.258 . S
C771 O787 1.239 . S
C772 C771 1.498 . S
C772 C773 1.366 . S
C772 C777 1.407 . S
C773 C772 1.366 . S
C773 C774 1.392 . S
C773 H796 0.930 . S
C774 C773 1.392 . S
C774 C775 1.398 . S
C774 H797 0.929 . S
C775 C774 1.398 . S
C775 C776 1.352 . S
C776 C775 1.352 . S
C776 C777 1.384 . S
C776 H798 0.930 . S
C777 C772 1.407 . S
C777 C776 1.384 . S
C777 H799 0.929 . S
C778 O788 1.241 . S
C778 O789 1.273 . S
C779 O790 1.251 . S
C779 O791 1.268 . S
O780 Nd760 2.500 . S
O780 C762 1.258 . S
O781 Nd760 2.492 . S
O781 C762 1.239 . S
O782 Nd760 2.487 . S
O782 C769 1.241 . S
O783 Nd760 2.682 . S
O783 Nd761 2.414 . S
O783 C769 1.273 . S
O784 Nd760 2.410 . S
O784 C770 1.251 . S
O785 Nd761 2.424 . S
O785 C770 1.268 . S
O786 Nd761 2.500 . S
O786 C771 1.258 . S
O787 Nd761 2.492 . S
O787 C771 1.239 . S
O788 Nd761 2.487 . S
O788 C778 1.241 . S
O789 Nd760 2.414 . S
O789 Nd761 2.682 . S
O789 C778 1.273 . S
O790 Nd761 2.410 . S
O790 C779 1.251 . S
O791 Nd760 2.424 . S
O791 C779 1.268 . S
H792 C764 0.930 . S
H793 C765 0.929 . S
H794 C767 0.930 . S
H795 C768 0.929 . S
H796 C773 0.930 . S
H797 C774 0.929 . S
H798 C776 0.930 . S
H799 C777 0.929 . S
Nd800 C802 2.836 . S
Nd800 O820 2.500 . S
Nd800 O821 2.492 . S
Nd800 O822 2.487 . S
Nd800 O823 2.682 . S
Nd800 O824 2.410 . S
Nd800 O829 2.414 . S
Nd800 O831 2.424 . S
Nd801 C811 2.836 . S
Nd801 O823 2.414 . S
Nd801 O825 2.424 . S
Nd801 O826 2.500 . S
Nd801 O827 2.492 . S
Nd801 O828 2.487 . S
Nd801 O829 2.682 . S
Nd801 O830 2.410 . S
C802 Nd800 2.836 . S
C802 C803 1.498 . S
C802 O820 1.258 . S
C802 O821 1.239 . S
C803 C802 1.498 . S
C803 C804 1.366 . S
C803 C808 1.407 . S
C804 C803 1.366 . S
C804 C805 1.392 . S
C804 H832 0.930 . S
C805 C804 1.392 . S
C805 C806 1.398 . S
C805 H833 0.929 . S
C806 C805 1.398 . S
C806 C807 1.352 . S
C807 C806 1.352 . S
C807 C808 1.384 . S
C807 H834 0.930 . S
C808 C803 1.407 . S
C808 C807 1.384 . S
C808 H835 0.929 . S
C809 O822 1.241 . S
C809 O823 1.273 . S
C810 O824 1.251 . S
C810 O825 1.268 . S
C811 Nd801 2.836 . S
C811 C812 1.498 . S
C811 O826 1.258 . S
C811 O827 1.239 . S
C812 C811 1.498 . S
C812 C813 1.366 . S
C812 C817 1.407 . S
C813 C812 1.366 . S
C813 C814 1.392 . S
C813 H836 0.930 . S
C814 C813 1.392 . S
C814 C815 1.398 . S
C814 H837 0.929 . S
C815 C814 1.398 . S
C815 C816 1.352 . S
C816 C815 1.352 . S
C816 C817 1.384 . S
C816 H838 0.930 . S
C817 C812 1.407 . S
C817 C816 1.384 . S
C817 H839 0.929 . S
C818 O828 1.241 . S
C818 O829 1.273 . S
C819 O830 1.251 . S
C819 O831 1.268 . S
O820 Nd800 2.500 . S
O820 C802 1.258 . S
O821 Nd800 2.492 . S
O821 C802 1.239 . S
O822 Nd800 2.487 . S
O822 C809 1.241 . S
O823 Nd800 2.682 . S
O823 Nd801 2.414 . S
O823 C809 1.273 . S
O824 Nd800 2.410 . S
O824 C810 1.251 . S
O825 Nd801 2.424 . S
O825 C810 1.268 . S
O826 Nd801 2.500 . S
O826 C811 1.258 . S
O827 Nd801 2.492 . S
O827 C811 1.239 . S
O828 Nd801 2.487 . S
O828 C818 1.241 . S
O829 Nd800 2.414 . S
O829 Nd801 2.682 . S
O829 C818 1.273 . S
O830 Nd801 2.410 . S
O830 C819 1.251 . S
O831 Nd800 2.424 . S
O831 C819 1.268 . S
H832 C804 0.930 . S
H833 C805 0.929 . S
H834 C807 0.930 . S
H835 C808 0.929 . S
H836 C813 0.930 . S
H837 C814 0.929 . S
H838 C816 0.930 . S
H839 C817 0.929 . S
Nd840 C842 2.836 . S
Nd840 O860 2.500 . S
Nd840 O861 2.492 1_545 S
Nd840 O862 2.487 1_545 S
Nd840 O863 2.682 1_545 S
Nd840 O864 2.410 1_545 S
Nd840 O869 2.414 . S
Nd840 O871 2.424 . S
Nd841 C851 2.836 . S
Nd841 O863 2.414 1_545 S
Nd841 O865 2.426 . S
Nd841 O866 2.500 1_545 S
Nd841 O867 2.492 . S
Nd841 O868 2.487 . S
Nd841 O869 2.682 . S
Nd841 O870 2.410 . S
C842 Nd840 2.836 . S
C842 C843 1.498 . S
C842 O860 1.258 . S
C842 O861 1.239 1_545 S
C843 C842 1.498 . S
C843 C844 1.366 . S
C843 C848 1.407 1_545 S
C844 C843 1.366 . S
C844 C845 1.392 . S
C844 H872 0.930 . S
C845 C844 1.392 . S
C845 C846 1.398 . S
C845 H873 0.929 . S
C846 C845 1.398 . S
C846 C847 1.352 1_545 S
C847 C846 1.352 1_565 S
C847 C848 1.384 . S
C847 H874 0.930 . S
C848 C843 1.407 1_565 S
C848 C847 1.384 . S
C848 H875 0.929 . S
C849 O862 1.241 . S
C849 O863 1.273 . S
C850 O864 1.251 . S
C850 O865 1.266 1_565 S
C851 Nd841 2.836 . S
C851 C852 1.498 . S
C851 O866 1.258 1_545 S
C851 O867 1.239 . S
C852 C851 1.498 . S
C852 C853 1.366 1_545 S
C852 C857 1.407 . S
C853 C852 1.366 1_565 S
C853 C854 1.392 . S
C853 H876 0.930 . S
C854 C853 1.392 . S
C854 C855 1.398 1_565 S
C854 H877 0.929 . S
C855 C854 1.398 1_545 S
C855 C856 1.352 . S
C856 C855 1.352 . S
C856 C857 1.384 . S
C856 H878 0.930 . S
C857 C852 1.407 . S
C857 C856 1.384 . S
C857 H879 0.929 . S
C858 O868 1.241 . S
C858 O869 1.273 . S
C859 O870 1.251 . S
C859 O871 1.268 . S
O860 Nd840 2.500 . S
O860 C842 1.258 . S
O861 Nd840 2.492 1_565 S
O861 C842 1.239 1_565 S
O862 Nd840 2.487 1_565 S
O862 C849 1.241 . S
O863 Nd840 2.682 1_565 S
O863 Nd841 2.414 1_565 S
O863 C849 1.273 . S
O864 Nd840 2.410 1_565 S
O864 C850 1.251 . S
O865 Nd841 2.426 . S
O865 C850 1.266 1_545 S
O866 Nd841 2.500 1_565 S
O866 C851 1.258 1_565 S
O867 Nd841 2.492 . S
O867 C851 1.239 . S
O868 Nd841 2.487 . S
O868 C858 1.241 . S
O869 Nd840 2.414 . S
O869 Nd841 2.682 . S
O869 C858 1.273 . S
O870 Nd841 2.410 . S
O870 C859 1.251 . S
O871 Nd840 2.424 . S
O871 C859 1.268 . S
H872 C844 0.930 . S
H873 C845 0.929 . S
H874 C847 0.930 . S
H875 C848 0.929 . S
H876 C853 0.930 . S
H877 C854 0.929 . S
H878 C856 0.930 . S
H879 C857 0.929 . S
Nd880 C882 2.836 . S
Nd880 O900 2.500 . S
Nd880 O901 2.492 1_545 S
Nd880 O902 2.487 1_545 S
Nd880 O903 2.682 1_545 S
Nd880 O904 2.410 1_545 S
Nd880 O909 2.414 . S
Nd880 O911 2.424 . S
Nd881 C891 2.836 . S
Nd881 O903 2.414 1_545 S
Nd881 O905 2.426 . S
Nd881 O906 2.500 1_545 S
Nd881 O907 2.492 . S
Nd881 O908 2.487 . S
Nd881 O909 2.682 . S
Nd881 O910 2.410 . S
C882 Nd880 2.836 . S
C882 C883 1.498 . S
C882 O900 1.258 . S
C882 O901 1.239 1_545 S
C883 C882 1.498 . S
C883 C884 1.366 . S
C883 C888 1.407 1_545 S
C884 C883 1.366 . S
C884 C885 1.392 . S
C884 H912 0.930 . S
C885 C884 1.392 . S
C885 C886 1.398 . S
C885 H913 0.929 . S
C886 C885 1.398 . S
C886 C887 1.352 1_545 S
C887 C886 1.352 1_565 S
C887 C888 1.384 . S
C887 H914 0.930 . S
C888 C883 1.407 1_565 S
C888 C887 1.384 . S
C888 H915 0.929 . S
C889 O902 1.241 . S
C889 O903 1.273 . S
C890 O904 1.251 . S
C890 O905 1.266 1_565 S
C891 Nd881 2.836 . S
C891 C892 1.498 . S
C891 O906 1.258 1_545 S
C891 O907 1.239 . S
C892 C891 1.498 . S
C892 C893 1.366 1_545 S
C892 C897 1.407 . S
C893 C892 1.366 1_565 S
C893 C894 1.392 . S
C893 H916 0.930 . S
C894 C893 1.392 . S
C894 C895 1.398 1_565 S
C894 H917 0.929 . S
C895 C894 1.398 1_545 S
C895 C896 1.352 . S
C896 C895 1.352 . S
C896 C897 1.384 . S
C896 H918 0.930 . S
C897 C892 1.407 . S
C897 C896 1.384 . S
C897 H919 0.929 . S
C898 O908 1.241 . S
C898 O909 1.273 . S
C899 O910 1.251 . S
C899 O911 1.268 . S
O900 Nd880 2.500 . S
O900 C882 1.258 . S
O901 Nd880 2.492 1_565 S
O901 C882 1.239 1_565 S
O902 Nd880 2.487 1_565 S
O902 C889 1.241 . S
O903 Nd880 2.682 1_565 S
O903 Nd881 2.414 1_565 S
O903 C889 1.273 . S
O904 Nd880 2.410 1_565 S
O904 C890 1.251 . S
O905 Nd881 2.426 . S
O905 C890 1.266 1_545 S
O906 Nd881 2.500 1_565 S
O906 C891 1.258 1_565 S
O907 Nd881 2.492 . S
O907 C891 1.239 . S
O908 Nd881 2.487 . S
O908 C898 1.241 . S
O909 Nd880 2.414 . S
O909 Nd881 2.682 . S
O909 C898 1.273 . S
O910 Nd881 2.410 . S
O910 C899 1.251 . S
O911 Nd880 2.424 . S
O911 C899 1.268 . S
H912 C884 0.930 . S
H913 C885 0.929 . S
H914 C887 0.930 . S
H915 C888 0.929 . S
H916 C893 0.930 . S
H917 C894 0.929 . S
H918 C896 0.930 . S
H919 C897 0.929 . S
Nd920 C922 2.836 . S
Nd920 O940 2.500 . S
Nd920 O941 2.492 . S
Nd920 O942 2.487 . S
Nd920 O943 2.682 . S
Nd920 O944 2.410 . S
Nd920 O949 2.414 . S
Nd920 O951 2.424 . S
Nd921 C931 2.836 . S
Nd921 O943 2.414 . S
Nd921 O945 2.424 . S
Nd921 O946 2.500 . S
Nd921 O947 2.492 . S
Nd921 O948 2.487 . S
Nd921 O949 2.682 . S
Nd921 O950 2.410 . S
C922 Nd920 2.836 . S
C922 C923 1.498 . S
C922 O940 1.258 . S
C922 O941 1.239 . S
C923 C922 1.498 . S
C923 C924 1.366 . S
C923 C928 1.407 . S
C924 C923 1.366 . S
C924 C925 1.392 . S
C924 H952 0.930 . S
C925 C924 1.392 . S
C925 C926 1.398 . S
C925 H953 0.929 . S
C926 C925 1.398 . S
C926 C927 1.352 . S
C927 C926 1.352 . S
C927 C928 1.384 . S
C927 H954 0.930 . S
C928 C923 1.407 . S
C928 C927 1.384 . S
C928 H955 0.929 . S
C929 O942 1.241 . S
C929 O943 1.273 . S
C930 O944 1.251 . S
C930 O945 1.268 . S
C931 Nd921 2.836 . S
C931 C932 1.498 . S
C931 O946 1.258 . S
C931 O947 1.239 . S
C932 C931 1.498 . S
C932 C933 1.366 . S
C932 C937 1.407 . S
C933 C932 1.366 . S
C933 C934 1.392 . S
C933 H956 0.930 . S
C934 C933 1.392 . S
C934 C935 1.398 . S
C934 H957 0.929 . S
C935 C934 1.398 . S
C935 C936 1.352 . S
C936 C935 1.352 . S
C936 C937 1.384 . S
C936 H958 0.930 . S
C937 C932 1.407 . S
C937 C936 1.384 . S
C937 H959 0.929 . S
C938 O948 1.241 . S
C938 O949 1.273 . S
C939 O950 1.251 . S
C939 O951 1.268 . S
O940 Nd920 2.500 . S
O940 C922 1.258 . S
O941 Nd920 2.492 . S
O941 C922 1.239 . S
O942 Nd920 2.487 . S
O942 C929 1.241 . S
O943 Nd920 2.682 . S
O943 Nd921 2.414 . S
O943 C929 1.273 . S
O944 Nd920 2.410 . S
O944 C930 1.251 . S
O945 Nd921 2.424 . S
O945 C930 1.268 . S
O946 Nd921 2.500 . S
O946 C931 1.258 . S
O947 Nd921 2.492 . S
O947 C931 1.239 . S
O948 Nd921 2.487 . S
O948 C938 1.241 . S
O949 Nd920 2.414 . S
O949 Nd921 2.682 . S
O949 C938 1.273 . S
O950 Nd921 2.410 . S
O950 C939 1.251 . S
O951 Nd920 2.424 . S
O951 C939 1.268 . S
H952 C924 0.930 . S
H953 C925 0.929 . S
H954 C927 0.930 . S
H955 C928 0.929 . S
H956 C933 0.930 . S
H957 C934 0.929 . S
H958 C936 0.930 . S
H959 C937 0.929 . S
Nd960 C962 2.836 . S
Nd960 O980 2.500 . S
Nd960 O981 2.492 . S
Nd960 O982 2.487 . S
Nd960 O983 2.682 . S
Nd960 O984 2.410 . S
Nd960 O989 2.414 . S
Nd960 O991 2.424 . S
Nd961 C971 2.836 . S
Nd961 O983 2.414 . S
Nd961 O985 2.424 . S
Nd961 O986 2.500 . S
Nd961 O987 2.492 . S
Nd961 O988 2.487 . S
Nd961 O989 2.682 . S
Nd961 O990 2.410 . S
C962 Nd960 2.836 . S
C962 C963 1.498 . S
C962 O980 1.258 . S
C962 O981 1.239 . S
C963 C962 1.498 . S
C963 C964 1.366 . S
C963 C968 1.407 . S
C964 C963 1.366 . S
C964 C965 1.392 1_554 S
C964 H992 0.930 . S
C965 C964 1.392 1_556 S
C965 C966 1.398 1_556 S
C965 H993 0.929 . S
C966 C965 1.398 1_554 S
C966 C967 1.352 . S
C967 C966 1.352 . S
C967 C968 1.384 . S
C967 H994 0.930 . S
C968 C963 1.407 . S
C968 C967 1.384 . S
C968 H995 0.929 . S
C969 O982 1.241 . S
C969 O983 1.273 . S
C970 O984 1.251 . S
C970 O985 1.268 . S
C971 Nd961 2.836 . S
C971 C972 1.498 . S
C971 O986 1.258 . S
C971 O987 1.239 . S
C972 C971 1.498 . S
C972 C973 1.366 . S
C972 C977 1.407 . S
C973 C972 1.366 . S
C973 C974 1.392 . S
C973 H996 0.930 . S
C974 C973 1.392 . S
C974 C975 1.398 . S
C974 H997 0.929 . S
C975 C974 1.398 . S
C975 C976 1.352 . S
C976 C975 1.352 . S
C976 C977 1.384 . S
C976 H998 0.930 . S
C977 C972 1.407 . S
C977 C976 1.384 . S
C977 H999 0.929 . S
C978 O988 1.241 . S
C978 O989 1.273 . S
C979 O990 1.251 . S
C979 O991 1.268 . S
O980 Nd960 2.500 . S
O980 C962 1.258 . S
O981 Nd960 2.492 . S
O981 C962 1.239 . S
O982 Nd960 2.487 . S
O982 C969 1.241 . S
O983 Nd960 2.682 . S
O983 Nd961 2.414 . S
O983 C969 1.273 . S
O984 Nd960 2.410 . S
O984 C970 1.251 . S
O985 Nd961 2.424 . S
O985 C970 1.268 . S
O986 Nd961 2.500 . S
O986 C971 1.258 . S
O987 Nd961 2.492 . S
O987 C971 1.239 . S
O988 Nd961 2.487 . S
O988 C978 1.241 . S
O989 Nd960 2.414 . S
O989 Nd961 2.682 . S
O989 C978 1.273 . S
O990 Nd961 2.410 . S
O990 C979 1.251 . S
O991 Nd960 2.424 . S
O991 C979 1.268 . S
H992 C964 0.930 . S
H993 C965 0.929 . S
H994 C967 0.930 . S
H995 C968 0.929 . S
H996 C973 0.930 . S
H997 C974 0.929 . S
H998 C976 0.930 . S
H999 C977 0.929 . S
Nd1000 C1002 2.836 . S
Nd1000 O1020 2.500 . S
Nd1000 O1021 2.492 . S
Nd1000 O1022 2.487 . S
Nd1000 O1023 2.682 . S
Nd1000 O1024 2.410 . S
Nd1000 O1029 2.414 . S
Nd1000 O1031 2.424 . S
Nd1001 C1011 2.836 . S
Nd1001 O1023 2.414 . S
Nd1001 O1025 2.424 . S
Nd1001 O1026 2.500 . S
Nd1001 O1027 2.492 . S
Nd1001 O1028 2.487 . S
Nd1001 O1029 2.682 . S
Nd1001 O1030 2.410 . S
C1002 Nd1000 2.836 . S
C1002 C1003 1.498 . S
C1002 O1020 1.258 . S
C1002 O1021 1.239 . S
C1003 C1002 1.498 . S
C1003 C1004 1.366 . S
C1003 C1008 1.407 . S
C1004 C1003 1.366 . S
C1004 C1005 1.392 1_554 S
C1004 H1032 0.930 . S
C1005 C1004 1.392 1_556 S
C1005 C1006 1.398 1_556 S
C1005 H1033 0.929 . S
C1006 C1005 1.398 1_554 S
C1006 C1007 1.352 . S
C1007 C1006 1.352 . S
C1007 C1008 1.384 . S
C1007 H1034 0.930 . S
C1008 C1003 1.407 . S
C1008 C1007 1.384 . S
C1008 H1035 0.929 . S
C1009 O1022 1.241 . S
C1009 O1023 1.273 . S
C1010 O1024 1.251 . S
C1010 O1025 1.268 . S
C1011 Nd1001 2.836 . S
C1011 C1012 1.498 . S
C1011 O1026 1.258 . S
C1011 O1027 1.239 . S
C1012 C1011 1.498 . S
C1012 C1013 1.366 . S
C1012 C1017 1.407 . S
C1013 C1012 1.366 . S
C1013 C1014 1.392 . S
C1013 H1036 0.930 . S
C1014 C1013 1.392 . S
C1014 C1015 1.398 . S
C1014 H1037 0.929 . S
C1015 C1014 1.398 . S
C1015 C1016 1.352 . S
C1016 C1015 1.352 . S
C1016 C1017 1.384 . S
C1016 H1038 0.930 . S
C1017 C1012 1.407 . S
C1017 C1016 1.384 . S
C1017 H1039 0.929 . S
C1018 O1028 1.241 . S
C1018 O1029 1.273 . S
C1019 O1030 1.251 . S
C1019 O1031 1.268 . S
O1020 Nd1000 2.500 . S
O1020 C1002 1.258 . S
O1021 Nd1000 2.492 . S
O1021 C1002 1.239 . S
O1022 Nd1000 2.487 . S
O1022 C1009 1.241 . S
O1023 Nd1000 2.682 . S
O1023 Nd1001 2.414 . S
O1023 C1009 1.273 . S
O1024 Nd1000 2.410 . S
O1024 C1010 1.251 . S
O1025 Nd1001 2.424 . S
O1025 C1010 1.268 . S
O1026 Nd1001 2.500 . S
O1026 C1011 1.258 . S
O1027 Nd1001 2.492 . S
O1027 C1011 1.239 . S
O1028 Nd1001 2.487 . S
O1028 C1018 1.241 . S
O1029 Nd1000 2.414 . S
O1029 Nd1001 2.682 . S
O1029 C1018 1.273 . S
O1030 Nd1001 2.410 . S
O1030 C1019 1.251 . S
O1031 Nd1000 2.424 . S
O1031 C1019 1.268 . S
H1032 C1004 0.930 . S
H1033 C1005 0.929 . S
H1034 C1007 0.930 . S
H1035 C1008 0.929 . S
H1036 C1013 0.930 . S
H1037 C1014 0.929 . S
H1038 C1016 0.930 . S
H1039 C1017 0.929 . S
Nd1040 C1042 2.836 . S
Nd1040 O1060 2.500 . S
Nd1040 O1061 2.492 . S
Nd1040 O1062 2.487 1_554 S
Nd1040 O1063 2.682 . S
Nd1040 O1064 2.410 . S
Nd1040 O1069 2.414 . S
Nd1040 O1071 2.424 1_554 S
Nd1041 C1051 2.836 1_554 S
Nd1041 O1063 2.414 . S
Nd1041 O1065 2.424 . S
Nd1041 O1066 2.500 1_554 S
Nd1041 O1067 2.492 1_554 S
Nd1041 O1068 2.487 . S
Nd1041 O1069 2.682 . S
Nd1041 O1070 2.410 1_554 S
C1042 Nd1040 2.836 . S
C1042 C1043 1.498 . S
C1042 O1060 1.258 . S
C1042 O1061 1.239 . S
C1043 C1042 1.498 . S
C1043 C1044 1.366 . S
C1043 C1048 1.407 . S
C1044 C1043 1.366 . S
C1044 C1045 1.392 . S
C1044 H1072 0.930 . S
C1045 C1044 1.392 . S
C1045 C1046 1.398 . S
C1045 H1073 0.929 . S
C1046 C1045 1.398 . S
C1046 C1047 1.352 . S
C1047 C1046 1.352 . S
C1047 C1048 1.384 . S
C1047 H1074 0.930 . S
C1048 C1043 1.407 . S
C1048 C1047 1.384 . S
C1048 H1075 0.929 . S
C1049 O1062 1.241 . S
C1049 O1063 1.273 1_556 S
C1050 O1064 1.251 . S
C1050 O1065 1.268 . S
C1051 Nd1041 2.836 1_556 S
C1051 C1052 1.498 . S
C1051 O1066 1.258 . S
C1051 O1067 1.239 . S
C1052 C1051 1.498 . S
C1052 C1053 1.366 . S
C1052 C1057 1.407 . S
C1053 C1052 1.366 . S
C1053 C1054 1.392 . S
C1053 H1076 0.930 . S
C1054 C1053 1.392 . S
C1054 C1055 1.398 . S
C1054 H1077 0.929 . S
C1055 C1054 1.398 . S
C1055 C1056 1.352 . S
C1056 C1055 1.352 . S
C1056 C1057 1.384 . S
C1056 H1078 0.930 . S
C1057 C1052 1.407 . S
C1057 C1056 1.384 . S
C1057 H1079 0.929 . S
C1058 O1068 1.241 . S
C1058 O1069 1.273 . S
C1059 O1070 1.251 . S
C1059 O1071 1.268 . S
O1060 Nd1040 2.500 . S
O1060 C1042 1.258 . S
O1061 Nd1040 2.492 . S
O1061 C1042 1.239 . S
O1062 Nd1040 2.487 1_556 S
O1062 C1049 1.241 . S
O1063 Nd1040 2.682 . S
O1063 Nd1041 2.414 . S
O1063 C1049 1.273 1_554 S
O1064 Nd1040 2.410 . S
O1064 C1050 1.251 . S
O1065 Nd1041 2.424 . S
O1065 C1050 1.268 . S
O1066 Nd1041 2.500 1_556 S
O1066 C1051 1.258 . S
O1067 Nd1041 2.492 1_556 S
O1067 C1051 1.239 . S
O1068 Nd1041 2.487 . S
O1068 C1058 1.241 . S
O1069 Nd1040 2.414 . S
O1069 Nd1041 2.682 . S
O1069 C1058 1.273 . S
O1070 Nd1041 2.410 1_556 S
O1070 C1059 1.251 . S
O1071 Nd1040 2.424 1_556 S
O1071 C1059 1.268 . S
H1072 C1044 0.930 . S
H1073 C1045 0.929 . S
H1074 C1047 0.930 . S
H1075 C1048 0.929 . S
H1076 C1053 0.930 . S
H1077 C1054 0.929 . S
H1078 C1056 0.930 . S
H1079 C1057 0.929 . S
Nd1080 C1082 2.836 . S
Nd1080 O1100 2.500 . S
Nd1080 O1101 2.492 . S
Nd1080 O1102 2.487 1_554 S
Nd1080 O1103 2.682 . S
Nd1080 O1104 2.410 . S
Nd1080 O1109 2.414 . S
Nd1080 O1111 2.424 1_554 S
Nd1081 C1091 2.836 1_554 S
Nd1081 O1103 2.414 . S
Nd1081 O1105 2.424 . S
Nd1081 O1106 2.500 1_554 S
Nd1081 O1107 2.492 1_554 S
Nd1081 O1108 2.487 . S
Nd1081 O1109 2.682 . S
Nd1081 O1110 2.410 1_554 S
C1082 Nd1080 2.836 . S
C1082 C1083 1.498 . S
C1082 O1100 1.258 . S
C1082 O1101 1.239 . S
C1083 C1082 1.498 . S
C1083 C1084 1.366 . S
C1083 C1088 1.407 . S
C1084 C1083 1.366 . S
C1084 C1085 1.392 . S
C1084 H1112 0.930 . S
C1085 C1084 1.392 . S
C1085 C1086 1.398 . S
C1085 H1113 0.929 . S
C1086 C1085 1.398 . S
C1086 C1087 1.352 . S
C1087 C1086 1.352 . S
C1087 C1088 1.384 . S
C1087 H1114 0.930 . S
C1088 C1083 1.407 . S
C1088 C1087 1.384 . S
C1088 H1115 0.929 . S
C1089 O1102 1.241 . S
C1089 O1103 1.273 1_556 S
C1090 O1104 1.251 . S
C1090 O1105 1.268 . S
C1091 Nd1081 2.836 1_556 S
C1091 C1092 1.498 . S
C1091 O1106 1.258 . S
C1091 O1107 1.239 . S
C1092 C1091 1.498 . S
C1092 C1093 1.366 . S
C1092 C1097 1.407 . S
C1093 C1092 1.366 . S
C1093 C1094 1.392 . S
C1093 H1116 0.930 . S
C1094 C1093 1.392 . S
C1094 C1095 1.398 . S
C1094 H1117 0.929 . S
C1095 C1094 1.398 . S
C1095 C1096 1.352 . S
C1096 C1095 1.352 . S
C1096 C1097 1.384 . S
C1096 H1118 0.930 . S
C1097 C1092 1.407 . S
C1097 C1096 1.384 . S
C1097 H1119 0.929 . S
C1098 O1108 1.241 . S
C1098 O1109 1.273 . S
C1099 O1110 1.251 . S
C1099 O1111 1.268 . S
O1100 Nd1080 2.500 . S
O1100 C1082 1.258 . S
O1101 Nd1080 2.492 . S
O1101 C1082 1.239 . S
O1102 Nd1080 2.487 1_556 S
O1102 C1089 1.241 . S
O1103 Nd1080 2.682 . S
O1103 Nd1081 2.414 . S
O1103 C1089 1.273 1_554 S
O1104 Nd1080 2.410 . S
O1104 C1090 1.251 . S
O1105 Nd1081 2.424 . S
O1105 C1090 1.268 . S
O1106 Nd1081 2.500 1_556 S
O1106 C1091 1.258 . S
O1107 Nd1081 2.492 1_556 S
O1107 C1091 1.239 . S
O1108 Nd1081 2.487 . S
O1108 C1098 1.241 . S
O1109 Nd1080 2.414 . S
O1109 Nd1081 2.682 . S
O1109 C1098 1.273 . S
O1110 Nd1081 2.410 1_556 S
O1110 C1099 1.251 . S
O1111 Nd1080 2.424 1_556 S
O1111 C1099 1.268 . S
H1112 C1084 0.930 . S
H1113 C1085 0.929 . S
H1114 C1087 0.930 . S
H1115 C1088 0.929 . S
H1116 C1093 0.930 . S
H1117 C1094 0.929 . S
H1118 C1096 0.930 . S
H1119 C1097 0.929 . S
Nd1120 C1122 2.836 . S
Nd1120 O1140 2.500 . S
Nd1120 O1141 2.492 . S
Nd1120 O1142 2.487 . S
Nd1120 O1143 2.682 . S
Nd1120 O1144 2.410 . S
Nd1120 O1149 2.414 . S
Nd1120 O1151 2.424 . S
Nd1121 C1131 2.836 . S
Nd1121 O1143 2.414 . S
Nd1121 O1145 2.424 . S
Nd1121 O1146 2.500 . S
Nd1121 O1147 2.492 . S
Nd1121 O1148 2.487 . S
Nd1121 O1149 2.682 . S
Nd1121 O1150 2.410 . S
C1122 Nd1120 2.836 . S
C1122 C1123 1.498 . S
C1122 O1140 1.258 . S
C1122 O1141 1.239 . S
C1123 C1122 1.498 . S
C1123 C1124 1.366 . S
C1123 C1128 1.407 . S
C1124 C1123 1.366 . S
C1124 C1125 1.392 . S
C1124 H1152 0.930 . S
C1125 C1124 1.392 . S
C1125 C1126 1.398 . S
C1125 H1153 0.929 . S
C1126 C1125 1.398 . S
C1126 C1127 1.352 . S
C1127 C1126 1.352 . S
C1127 C1128 1.384 . S
C1127 H1154 0.930 . S
C1128 C1123 1.407 . S
C1128 C1127 1.384 . S
C1128 H1155 0.929 . S
C1129 O1142 1.241 . S
C1129 O1143 1.273 . S
C1130 O1144 1.251 . S
C1130 O1145 1.268 . S
C1131 Nd1121 2.836 . S
C1131 C1132 1.498 . S
C1131 O1146 1.258 . S
C1131 O1147 1.239 . S
C1132 C1131 1.498 . S
C1132 C1133 1.366 . S
C1132 C1137 1.407 . S
C1133 C1132 1.366 . S
C1133 C1134 1.392 1_556 S
C1133 H1156 0.930 . S
C1134 C1133 1.392 1_554 S
C1134 C1135 1.398 1_554 S
C1134 H1157 0.929 . S
C1135 C1134 1.398 1_556 S
C1135 C1136 1.352 . S
C1136 C1135 1.352 . S
C1136 C1137 1.384 . S
C1136 H1158 0.930 . S
C1137 C1132 1.407 . S
C1137 C1136 1.384 . S
C1137 H1159 0.929 . S
C1138 O1148 1.241 . S
C1138 O1149 1.273 . S
C1139 O1150 1.251 . S
C1139 O1151 1.268 . S
O1140 Nd1120 2.500 . S
O1140 C1122 1.258 . S
O1141 Nd1120 2.492 . S
O1141 C1122 1.239 . S
O1142 Nd1120 2.487 . S
O1142 C1129 1.241 . S
O1143 Nd1120 2.682 . S
O1143 Nd1121 2.414 . S
O1143 C1129 1.273 . S
O1144 Nd1120 2.410 . S
O1144 C1130 1.251 . S
O1145 Nd1121 2.424 . S
O1145 C1130 1.268 . S
O1146 Nd1121 2.500 . S
O1146 C1131 1.258 . S
O1147 Nd1121 2.492 . S
O1147 C1131 1.239 . S
O1148 Nd1121 2.487 . S
O1148 C1138 1.241 . S
O1149 Nd1120 2.414 . S
O1149 Nd1121 2.682 . S
O1149 C1138 1.273 . S
O1150 Nd1121 2.410 . S
O1150 C1139 1.251 . S
O1151 Nd1120 2.424 . S
O1151 C1139 1.268 . S
H1152 C1124 0.930 . S
H1153 C1125 0.929 . S
H1154 C1127 0.930 . S
H1155 C1128 0.929 . S
H1156 C1133 0.930 . S
H1157 C1134 0.929 . S
H1158 C1136 0.930 . S
H1159 C1137 0.929 . S
Nd1160 C1162 2.836 . S
Nd1160 O1180 2.500 . S
Nd1160 O1181 2.492 . S
Nd1160 O1182 2.487 . S
Nd1160 O1183 2.682 . S
Nd1160 O1184 2.410 . S
Nd1160 O1189 2.414 . S
Nd1160 O1191 2.424 . S
Nd1161 C1171 2.836 . S
Nd1161 O1183 2.414 . S
Nd1161 O1185 2.424 . S
Nd1161 O1186 2.500 . S
Nd1161 O1187 2.492 . S
Nd1161 O1188 2.487 . S
Nd1161 O1189 2.682 . S
Nd1161 O1190 2.410 . S
C1162 Nd1160 2.836 . S
C1162 C1163 1.498 . S
C1162 O1180 1.258 . S
C1162 O1181 1.239 . S
C1163 C1162 1.498 . S
C1163 C1164 1.366 . S
C1163 C1168 1.407 . S
C1164 C1163 1.366 . S
C1164 C1165 1.392 . S
C1164 H1192 0.930 . S
C1165 C1164 1.392 . S
C1165 C1166 1.398 . S
C1165 H1193 0.929 . S
C1166 C1165 1.398 . S
C1166 C1167 1.352 . S
C1167 C1166 1.352 . S
C1167 C1168 1.384 . S
C1167 H1194 0.930 . S
C1168 C1163 1.407 . S
C1168 C1167 1.384 . S
C1168 H1195 0.929 . S
C1169 O1182 1.241 . S
C1169 O1183 1.273 . S
C1170 O1184 1.251 . S
C1170 O1185 1.268 . S
C1171 Nd1161 2.836 . S
C1171 C1172 1.498 . S
C1171 O1186 1.258 . S
C1171 O1187 1.239 . S
C1172 C1171 1.498 . S
C1172 C1173 1.366 . S
C1172 C1177 1.407 . S
C1173 C1172 1.366 . S
C1173 C1174 1.392 1_556 S
C1173 H1196 0.930 . S
C1174 C1173 1.392 1_554 S
C1174 C1175 1.398 1_554 S
C1174 H1197 0.929 . S
C1175 C1174 1.398 1_556 S
C1175 C1176 1.352 . S
C1176 C1175 1.352 . S
C1176 C1177 1.384 . S
C1176 H1198 0.930 . S
C1177 C1172 1.407 . S
C1177 C1176 1.384 . S
C1177 H1199 0.929 . S
C1178 O1188 1.241 . S
C1178 O1189 1.273 . S
C1179 O1190 1.251 . S
C1179 O1191 1.268 . S
O1180 Nd1160 2.500 . S
O1180 C1162 1.258 . S
O1181 Nd1160 2.492 . S
O1181 C1162 1.239 . S
O1182 Nd1160 2.487 . S
O1182 C1169 1.241 . S
O1183 Nd1160 2.682 . S
O1183 Nd1161 2.414 . S
O1183 C1169 1.273 . S
O1184 Nd1160 2.410 . S
O1184 C1170 1.251 . S
O1185 Nd1161 2.424 . S
O1185 C1170 1.268 . S
O1186 Nd1161 2.500 . S
O1186 C1171 1.258 . S
O1187 Nd1161 2.492 . S
O1187 C1171 1.239 . S
O1188 Nd1161 2.487 . S
O1188 C1178 1.241 . S
O1189 Nd1160 2.414 . S
O1189 Nd1161 2.682 . S
O1189 C1178 1.273 . S
O1190 Nd1161 2.410 . S
O1190 C1179 1.251 . S
O1191 Nd1160 2.424 . S
O1191 C1179 1.268 . S
H1192 C1164 0.930 . S
H1193 C1165 0.929 . S
H1194 C1167 0.930 . S
H1195 C1168 0.929 . S
H1196 C1173 0.930 . S
H1197 C1174 0.929 . S
H1198 C1176 0.930 . S
H1199 C1177 0.929 . S
Nd1200 C1202 2.836 1_556 S
Nd1200 O1220 2.500 1_556 S
Nd1200 O1221 2.492 1_556 S
Nd1200 O1222 2.487 . S
Nd1200 O1223 2.682 . S
Nd1200 O1224 2.410 1_556 S
Nd1200 O1229 2.414 . S
Nd1200 O1231 2.424 . S
Nd1201 C1211 2.836 . S
Nd1201 O1223 2.414 . S
Nd1201 O1225 2.424 1_556 S
Nd1201 O1226 2.500 . S
Nd1201 O1227 2.492 . S
Nd1201 O1228 2.487 1_556 S
Nd1201 O1229 2.682 . S
Nd1201 O1230 2.410 . S
C1202 Nd1200 2.836 1_554 S
C1202 C1203 1.498 . S
C1202 O1220 1.258 . S
C1202 O1221 1.239 . S
C1203 C1202 1.498 . S
C1203 C1204 1.366 . S
C1203 C1208 1.407 . S
C1204 C1203 1.366 . S
C1204 C1205 1.392 . S
C1204 H1232 0.930 . S
C1205 C1204 1.392 . S
C1205 C1206 1.398 . S
C1205 H1233 0.929 . S
C1206 C1205 1.398 . S
C1206 C1207 1.352 . S
C1207 C1206 1.352 . S
C1207 C1208 1.384 . S
C1207 H1234 0.930 . S
C1208 C1203 1.407 . S
C1208 C1207 1.384 . S
C1208 H1235 0.929 . S
C1209 O1222 1.241 . S
C1209 O1223 1.273 . S
C1210 O1224 1.251 . S
C1210 O1225 1.268 . S
C1211 Nd1201 2.836 . S
C1211 C1212 1.498 . S
C1211 O1226 1.258 . S
C1211 O1227 1.239 . S
C1212 C1211 1.498 . S
C1212 C1213 1.366 . S
C1212 C1217 1.407 . S
C1213 C1212 1.366 . S
C1213 C1214 1.392 . S
C1213 H1236 0.930 . S
C1214 C1213 1.392 . S
C1214 C1215 1.398 . S
C1214 H1237 0.929 . S
C1215 C1214 1.398 . S
C1215 C1216 1.352 . S
C1216 C1215 1.352 . S
C1216 C1217 1.384 . S
C1216 H1238 0.930 . S
C1217 C1212 1.407 . S
C1217 C1216 1.384 . S
C1217 H1239 0.929 . S
C1218 O1228 1.241 . S
C1218 O1229 1.273 1_554 S
C1219 O1230 1.251 . S
C1219 O1231 1.268 . S
O1220 Nd1200 2.500 1_554 S
O1220 C1202 1.258 . S
O1221 Nd1200 2.492 1_554 S
O1221 C1202 1.239 . S
O1222 Nd1200 2.487 . S
O1222 C1209 1.241 . S
O1223 Nd1200 2.682 . S
O1223 Nd1201 2.414 . S
O1223 C1209 1.273 . S
O1224 Nd1200 2.410 1_554 S
O1224 C1210 1.251 . S
O1225 Nd1201 2.424 1_554 S
O1225 C1210 1.268 . S
O1226 Nd1201 2.500 . S
O1226 C1211 1.258 . S
O1227 Nd1201 2.492 . S
O1227 C1211 1.239 . S
O1228 Nd1201 2.487 1_554 S
O1228 C1218 1.241 . S
O1229 Nd1200 2.414 . S
O1229 Nd1201 2.682 . S
O1229 C1218 1.273 1_556 S
O1230 Nd1201 2.410 . S
O1230 C1219 1.251 . S
O1231 Nd1200 2.424 . S
O1231 C1219 1.268 . S
H1232 C1204 0.930 . S
H1233 C1205 0.929 . S
H1234 C1207 0.930 . S
H1235 C1208 0.929 . S
H1236 C1213 0.930 . S
H1237 C1214 0.929 . S
H1238 C1216 0.930 . S
H1239 C1217 0.929 . S
Nd1240 C1242 2.836 1_556 S
Nd1240 O1260 2.500 1_556 S
Nd1240 O1261 2.492 1_556 S
Nd1240 O1262 2.487 . S
Nd1240 O1263 2.682 . S
Nd1240 O1264 2.410 1_556 S
Nd1240 O1269 2.414 . S
Nd1240 O1271 2.424 . S
Nd1241 C1251 2.836 . S
Nd1241 O1263 2.414 . S
Nd1241 O1265 2.424 1_556 S
Nd1241 O1266 2.500 . S
Nd1241 O1267 2.492 . S
Nd1241 O1268 2.487 1_556 S
Nd1241 O1269 2.682 . S
Nd1241 O1270 2.410 . S
C1242 Nd1240 2.836 1_554 S
C1242 C1243 1.498 . S
C1242 O1260 1.258 . S
C1242 O1261 1.239 . S
C1243 C1242 1.498 . S
C1243 C1244 1.366 . S
C1243 C1248 1.407 . S
C1244 C1243 1.366 . S
C1244 C1245 1.392 . S
C1244 H1272 0.930 . S
C1245 C1244 1.392 . S
C1245 C1246 1.398 . S
C1245 H1273 0.929 . S
C1246 C1245 1.398 . S
C1246 C1247 1.352 . S
C1247 C1246 1.352 . S
C1247 C1248 1.384 . S
C1247 H1274 0.930 . S
C1248 C1243 1.407 . S
C1248 C1247 1.384 . S
C1248 H1275 0.929 . S
C1249 O1262 1.241 . S
C1249 O1263 1.273 . S
C1250 O1264 1.251 . S
C1250 O1265 1.268 . S
C1251 Nd1241 2.836 . S
C1251 C1252 1.498 . S
C1251 O1266 1.258 . S
C1251 O1267 1.239 . S
C1252 C1251 1.498 . S
C1252 C1253 1.366 . S
C1252 C1257 1.407 . S
C1253 C1252 1.366 . S
C1253 C1254 1.392 . S
C1253 H1276 0.930 . S
C1254 C1253 1.392 . S
C1254 C1255 1.398 . S
C1254 H1277 0.929 . S
C1255 C1254 1.398 . S
C1255 C1256 1.352 . S
C1256 C1255 1.352 . S
C1256 C1257 1.384 . S
C1256 H1278 0.930 . S
C1257 C1252 1.407 . S
C1257 C1256 1.384 . S
C1257 H1279 0.929 . S
C1258 O1268 1.241 . S
C1258 O1269 1.273 1_554 S
C1259 O1270 1.251 . S
C1259 O1271 1.268 . S
O1260 Nd1240 2.500 1_554 S
O1260 C1242 1.258 . S
O1261 Nd1240 2.492 1_554 S
O1261 C1242 1.239 . S
O1262 Nd1240 2.487 . S
O1262 C1249 1.241 . S
O1263 Nd1240 2.682 . S
O1263 Nd1241 2.414 . S
O1263 C1249 1.273 . S
O1264 Nd1240 2.410 1_554 S
O1264 C1250 1.251 . S
O1265 Nd1241 2.424 1_554 S
O1265 C1250 1.268 . S
O1266 Nd1241 2.500 . S
O1266 C1251 1.258 . S
O1267 Nd1241 2.492 . S
O1267 C1251 1.239 . S
O1268 Nd1241 2.487 1_554 S
O1268 C1258 1.241 . S
O1269 Nd1240 2.414 . S
O1269 Nd1241 2.682 . S
O1269 C1258 1.273 1_556 S
O1270 Nd1241 2.410 . S
O1270 C1259 1.251 . S
O1271 Nd1240 2.424 . S
O1271 C1259 1.268 . S
H1272 C1244 0.930 . S
H1273 C1245 0.929 . S
H1274 C1247 0.930 . S
H1275 C1248 0.929 . S
H1276 C1253 0.930 . S
H1277 C1254 0.929 . S
H1278 C1256 0.930 . S
H1279 C1257 0.929 . S
H1280 C1292 0.928 1_556 S
H1281 C1294 0.930 . S
H1282 C1295 0.930 . S
H1283 C1299 0.959 . S
H1284 C1299 0.959 . S
H1285 C1299 0.961 . S
H1286 C1300 0.960 . S
H1287 C1300 0.961 . S
H1288 C1300 0.959 . S
H1289 C1303 0.929 . S
H1290 C1304 0.931 . S
H1291 C1306 0.930 . S
C1292 H1280 0.928 1_554 S
C1292 C1293 1.401 . S
C1292 C1297 1.399 . S
C1293 C1292 1.401 . S
C1293 C1294 1.376 . S
C1294 H1281 0.930 . S
C1294 C1293 1.376 . S
C1294 C1295 1.388 . S
C1295 H1282 0.930 . S
C1295 C1294 1.388 . S
C1295 C1296 1.390 . S
C1296 C1295 1.390 . S
C1296 C1297 1.394 . S
C1296 C1302 1.465 . S
C1297 C1292 1.399 . S
C1297 C1296 1.394 . S
C1297 C1298 1.516 1_554 S
C1298 C1297 1.516 1_556 S
C1298 C1299 1.502 . S
C1298 C1300 1.561 1_556 S
C1298 C1301 1.526 . S
C1299 H1283 0.959 . S
C1299 H1284 0.959 . S
C1299 H1285 0.961 . S
C1299 C1298 1.502 . S
C1300 H1286 0.960 . S
C1300 H1287 0.961 . S
C1300 H1288 0.959 . S
C1300 C1298 1.561 1_554 S
C1301 C1298 1.526 . S
C1301 C1302 1.396 1_556 S
C1301 C1306 1.390 . S
C1302 C1296 1.465 . S
C1302 C1301 1.396 1_554 S
C1302 C1303 1.399 . S
C1303 H1289 0.929 . S
C1303 C1302 1.399 . S
C1303 C1304 1.385 . S
C1304 H1290 0.931 . S
C1304 C1303 1.385 . S
C1304 C1305 1.389 1_554 S
C1305 C1304 1.389 1_556 S
C1305 C1306 1.387 . S
C1306 H1291 0.930 . S
C1306 C1301 1.390 . S
C1306 C1305 1.387 . S
H1307 C1319 0.930 . S
H1308 C1321 0.930 . S
H1309 C1322 0.930 . S
H1310 C1326 0.991 . S
H1311 C1326 1.118 . S
H1312 C1326 0.814 1_455 S
H1313 C1327 0.888 1_455 S
H1314 C1327 1.035 . S
H1315 C1327 0.959 1_556 S
H1316 C1330 0.929 . S
H1317 C1331 0.931 . S
H1318 C1333 0.930 . S
C1319 H1307 0.930 . S
C1319 C1320 1.413 . S
C1319 C1324 1.399 . S
C1320 C1319 1.413 . S
C1320 C1321 1.359 1_544 S
C1321 H1308 0.930 . S
C1321 C1320 1.359 1_566 S
C1321 C1322 1.388 . S
C1322 H1309 0.930 . S
C1322 C1321 1.388 . S
C1322 C1323 1.390 . S
C1323 C1322 1.390 . S
C1323 C1324 1.394 1_566 S
C1323 C1329 1.465 1_455 S
C1324 C1319 1.399 . S
C1324 C1323 1.394 1_544 S
C1324 C1325 1.456 1_455 S
C1325 C1324 1.456 1_655 S
C1325 C1326 1.497 . S
C1325 C1327 1.561 . S
C1325 C1328 1.582 . S
C1326 H1310 0.991 . S
C1326 H1311 1.118 . S
C1326 H1312 0.814 1_655 S
C1326 C1325 1.497 . S
C1327 H1313 0.888 1_655 S
C1327 H1314 1.035 . S
C1327 H1315 0.959 1_554 S
C1327 C1325 1.561 . S
C1328 C1325 1.582 . S
C1328 C1329 1.396 1_544 S
C1328 C1333 1.390 . S
C1329 C1323 1.465 1_655 S
C1329 C1328 1.396 1_566 S
C1329 C1330 1.399 . S
C1330 H1316 0.929 . S
C1330 C1329 1.399 . S
C1330 C1331 1.385 . S
C1331 H1317 0.931 . S
C1331 C1330 1.385 . S
C1331 C1332 1.389 . S
C1332 C1331 1.389 . S
C1332 C1333 1.387 1_566 S
C1333 H1318 0.930 . S
C1333 C1328 1.390 . S
C1333 C1332 1.387 1_544 S
H1334 C1346 0.930 . S
H1335 C1348 0.930 . S
H1336 C1349 0.930 . S
H1337 C1353 0.959 1_565 S
H1338 C1353 0.959 . S
H1339 C1353 0.961 . S
H1340 C1354 0.960 . S
H1341 C1354 0.961 . S
H1342 C1354 0.959 . S
H1343 C1357 0.929 . S
H1344 C1358 0.931 . S
H1345 C1360 0.930 . S
C1346 H1334 0.930 . S
C1346 C1347 1.399 . S
C1346 C1351 1.399 . S
C1347 C1346 1.399 . S
C1347 C1348 1.376 1_545 S
C1348 H1335 0.930 . S
C1348 C1347 1.376 1_565 S
C1348 C1349 1.388 . S
C1349 H1336 0.930 . S
C1349 C1348 1.388 . S
C1349 C1350 1.390 . S
C1350 C1349 1.390 . S
C1350 C1351 1.394 1_565 S
C1350 C1356 1.465 . S
C1351 C1346 1.399 . S
C1351 C1350 1.394 1_545 S
C1351 C1352 1.516 . S
C1352 C1351 1.516 . S
C1352 C1353 1.502 . S
C1352 C1354 1.561 . S
C1352 C1355 1.526 . S
C1353 H1337 0.959 1_545 S
C1353 H1338 0.959 . S
C1353 H1339 0.961 . S
C1353 C1352 1.502 . S
C1354 H1340 0.960 . S
C1354 H1341 0.961 . S
C1354 H1342 0.959 . S
C1354 C1352 1.561 . S
C1355 C1352 1.526 . S
C1355 C1356 1.396 1_545 S
C1355 C1360 1.390 . S
C1356 C1350 1.465 . S
C1356 C1355 1.396 1_565 S
C1356 C1357 1.399 . S
C1357 H1343 0.929 . S
C1357 C1356 1.399 . S
C1357 C1358 1.385 . S
C1358 H1344 0.931 . S
C1358 C1357 1.385 . S
C1358 C1359 1.389 . S
C1359 C1358 1.389 . S
C1359 C1360 1.387 1_565 S
C1360 H1345 0.930 . S
C1360 C1355 1.390 . S
C1360 C1359 1.387 1_545 S
H1361 C1373 0.930 . S
H1362 C1375 0.930 . S
H1363 C1376 0.930 . S
H1364 C1380 0.958 . S
H1365 C1380 0.898 1_655 S
H1366 C1380 1.033 . S
H1367 C1381 0.958 1_455 S
H1368 C1381 0.963 . S
H1369 C1381 0.948 . S
H1370 C1384 0.929 . S
H1371 C1385 0.931 . S
H1372 C1387 0.930 . S
C1373 H1361 0.930 . S
C1373 C1374 1.399 . S
C1373 C1378 1.399 . S
C1374 C1373 1.399 . S
C1374 C1375 1.376 . S
C1375 H1362 0.930 . S
C1375 C1374 1.376 . S
C1375 C1376 1.388 . S
C1376 H1363 0.930 . S
C1376 C1375 1.388 . S
C1376 C1377 1.390 . S
C1377 C1376 1.390 . S
C1377 C1378 1.394 . S
C1377 C1383 1.465 1_455 S
C1378 C1373 1.399 . S
C1378 C1377 1.394 . S
C1378 C1379 1.527 . S
C1379 C1378 1.527 . S
C1379 C1380 1.500 . S
C1379 C1381 1.561 1_455 S
C1379 C1382 1.514 1_455 S
C1380 H1364 0.958 . S
C1380 H1365 0.898 1_455 S
C1380 H1366 1.033 . S
C1380 C1379 1.500 . S
C1381 H1367 0.958 1_655 S
C1381 H1368 0.963 . S
C1381 H1369 0.948 . S
C1381 C1379 1.561 1_655 S
C1382 C1379 1.514 1_655 S
C1382 C1383 1.396 . S
C1382 C1387 1.390 . S
C1383 C1377 1.465 1_655 S
C1383 C1382 1.396 . S
C1383 C1384 1.399 . S
C1384 H1370 0.929 . S
C1384 C1383 1.399 . S
C1384 C1385 1.385 . S
C1385 H1371 0.931 . S
C1385 C1384 1.385 . S
C1385 C1386 1.389 . S
C1386 C1385 1.389 . S
C1386 C1387 1.387 . S
C1387 H1372 0.930 . S
C1387 C1382 1.390 . S
C1387 C1386 1.387 . S
H1388 C1400 0.930 . S
H1389 C1402 0.930 . S
H1390 C1403 0.930 . S
H1391 C1407 0.948 1_554 S
H1392 C1407 0.963 . S
H1393 C1407 0.962 . S
H1394 C1408 0.960 . S
H1395 C1408 0.961 . S
H1396 C1408 0.959 . S
H1397 C1411 0.929 . S
H1398 C1412 0.931 . S
H1399 C1414 0.930 . S
C1400 H1388 0.930 . S
C1400 C1401 1.399 1_556 S
C1400 C1405 1.399 . S
C1401 C1400 1.399 1_554 S
C1401 C1402 1.376 . S
C1402 H1389 0.930 . S
C1402 C1401 1.376 . S
C1402 C1403 1.388 . S
C1403 H1390 0.930 . S
C1403 C1402 1.388 . S
C1403 C1404 1.390 . S
C1404 C1403 1.390 . S
C1404 C1405 1.394 1_554 S
C1404 C1410 1.465 . S
C1405 C1400 1.399 . S
C1405 C1404 1.394 1_556 S
C1405 C1406 1.516 . S
C1406 C1405 1.516 . S
C1406 C1407 1.507 . S
C1406 C1408 1.561 . S
C1406 C1409 1.526 . S
C1407 H1391 0.948 1_556 S
C1407 H1392 0.963 . S
C1407 H1393 0.962 . S
C1407 C1406 1.507 . S
C1408 H1394 0.960 . S
C1408 H1395 0.961 . S
C1408 H1396 0.959 . S
C1408 C1406 1.561 . S
C1409 C1406 1.526 . S
C1409 C1410 1.396 1_556 S
C1409 C1414 1.390 . S
C1410 C1404 1.465 . S
C1410 C1409 1.396 1_554 S
C1410 C1411 1.399 . S
C1411 H1397 0.929 . S
C1411 C1410 1.399 . S
C1411 C1412 1.385 . S
C1412 H1398 0.931 . S
C1412 C1411 1.385 . S
C1412 C1413 1.389 1_554 S
C1413 C1412 1.389 1_556 S
C1413 C1414 1.387 . S
C1414 H1399 0.930 . S
C1414 C1409 1.390 . S
C1414 C1413 1.387 . S
H1415 C1427 0.930 . S
H1416 C1429 0.930 . S
H1417 C1430 0.930 . S
H1418 C1434 0.959 . S
H1419 C1434 0.959 . S
H1420 C1434 0.961 . S
H1421 C1435 0.960 . S
H1422 C1435 0.961 . S
H1423 C1435 0.955 1_545 S
H1424 C1438 0.929 . S
H1425 C1439 0.931 . S
H1426 C1441 0.930 . S
C1427 H1415 0.930 . S
C1427 C1428 1.399 1_565 S
C1427 C1432 1.399 . S
C1428 C1427 1.399 1_545 S
C1428 C1429 1.376 . S
C1429 H1416 0.930 . S
C1429 C1428 1.376 . S
C1429 C1430 1.388 . S
C1430 H1417 0.930 . S
C1430 C1429 1.388 . S
C1430 C1431 1.390 . S
C1431 C1430 1.390 . S
C1431 C1432 1.394 1_545 S
C1431 C1437 1.465 . S
C1432 C1427 1.399 . S
C1432 C1431 1.394 1_565 S
C1432 C1433 1.516 . S
C1433 C1432 1.516 . S
C1433 C1434 1.502 . S
C1433 C1435 1.561 . S
C1433 C1436 1.526 . S
C1434 H1418 0.959 . S
C1434 H1419 0.959 . S
C1434 H1420 0.961 . S
C1434 C1433 1.502 . S
C1435 H1421 0.960 . S
C1435 H1422 0.961 . S
C1435 H1423 0.955 1_565 S
C1435 C1433 1.561 . S
C1436 C1433 1.526 . S
C1436 C1437 1.396 1_565 S
C1436 C1441 1.390 . S
C1437 C1431 1.465 . S
C1437 C1436 1.396 1_545 S
C1437 C1438 1.399 . S
C1438 H1424 0.929 . S
C1438 C1437 1.399 . S
C1438 C1439 1.385 . S
C1439 H1425 0.931 . S
C1439 C1438 1.385 . S
C1439 C1440 1.389 . S
C1440 C1439 1.389 . S
C1440 C1441 1.387 1_545 S
C1441 H1426 0.930 . S
C1441 C1436 1.390 . S
C1441 C1440 1.387 1_565 S
H1442 C1454 0.930 . S
H1443 C1456 0.930 . S
H1444 C1457 0.930 . S
H1445 C1461 0.949 . S
H1446 C1461 0.961 . S
H1447 C1461 0.959 1_655 S
H1448 C1462 1.065 . S
H1449 C1462 0.875 1_455 S
H1450 C1462 0.957 . S
H1451 C1465 0.929 . S
H1452 C1466 0.931 . S
H1453 C1468 0.930 . S
C1454 H1442 0.930 . S
C1454 C1455 1.399 . S
C1454 C1459 1.399 . S
C1455 C1454 1.399 . S
C1455 C1456 1.376 . S
C1456 H1443 0.930 . S
C1456 C1455 1.376 . S
C1456 C1457 1.388 . S
C1457 H1444 0.930 . S
C1457 C1456 1.388 . S
C1457 C1458 1.390 . S
C1458 C1457 1.390 . S
C1458 C1459 1.394 . S
C1458 C1464 1.465 1_655 S
C1459 C1454 1.399 . S
C1459 C1458 1.394 . S
C1459 C1460 1.533 . S
C1460 C1459 1.533 . S
C1460 C1461 1.501 1_655 S
C1460 C1462 1.558 . S
C1460 C1463 1.508 1_655 S
C1461 H1445 0.949 . S
C1461 H1446 0.961 . S
C1461 H1447 0.959 1_455 S
C1461 C1460 1.501 1_455 S
C1462 H1448 1.065 . S
C1462 H1449 0.875 1_655 S
C1462 H1450 0.957 . S
C1462 C1460 1.558 . S
C1463 C1460 1.508 1_455 S
C1463 C1464 1.396 . S
C1463 C1468 1.390 . S
C1464 C1458 1.465 1_455 S
C1464 C1463 1.396 . S
C1464 C1465 1.399 . S
C1465 H1451 0.929 . S
C1465 C1464 1.399 . S
C1465 C1466 1.385 . S
C1466 H1452 0.931 . S
C1466 C1465 1.385 . S
C1466 C1467 1.389 . S
C1467 C1466 1.389 . S
C1467 C1468 1.387 . S
C1468 H1453 0.930 . S
C1468 C1463 1.390 . S
C1468 C1467 1.387 . S
H1469 C1481 0.930 . S
H1470 C1483 0.930 . S
H1471 C1484 0.930 . S
H1472 C1488 0.959 . S
H1473 C1488 0.959 . S
H1474 C1488 0.961 . S
H1475 C1489 0.960 . S
H1476 C1489 0.961 . S
H1477 C1489 0.959 . S
H1478 C1492 0.929 . S
H1479 C1493 0.931 . S
H1480 C1495 0.930 . S
C1481 H1469 0.930 . S
C1481 C1482 1.399 . S
C1481 C1486 1.399 . S
C1482 C1481 1.399 . S
C1482 C1483 1.376 . S
C1483 H1470 0.930 . S
C1483 C1482 1.376 . S
C1483 C1484 1.388 . S
C1484 H1471 0.930 . S
C1484 C1483 1.388 . S
C1484 C1485 1.390 . S
C1485 C1484 1.390 . S
C1485 C1486 1.394 . S
C1485 C1491 1.465 . S
C1486 C1481 1.399 . S
C1486 C1485 1.394 . S
C1486 C1487 1.516 . S
C1487 C1486 1.516 . S
C1487 C1488 1.502 . S
C1487 C1489 1.561 . S
C1487 C1490 1.526 . S
C1488 H1472 0.959 . S
C1488 H1473 0.959 . S
C1488 H1474 0.961 . S
C1488 C1487 1.502 . S
C1489 H1475 0.960 . S
C1489 H1476 0.961 . S
C1489 H1477 0.959 . S
C1489 C1487 1.561 . S
C1490 C1487 1.526 . S
C1490 C1491 1.396 . S
C1490 C1495 1.390 . S
C1491 C1485 1.465 . S
C1491 C1490 1.396 . S
C1491 C1492 1.399 . S
C1492 H1478 0.929 . S
C1492 C1491 1.399 . S
C1492 C1493 1.385 . S
C1493 H1479 0.931 . S
C1493 C1492 1.385 . S
C1493 C1494 1.389 . S
C1494 C1493 1.389 . S
C1494 C1495 1.387 . S
C1495 H1480 0.930 . S
C1495 C1490 1.390 . S
C1495 C1494 1.387 . S
H1496 C1508 0.930 . S
H1497 C1510 0.930 . S
H1498 C1511 0.930 . S
H1499 C1515 0.970 . S
H1500 C1515 1.009 . S
H1501 C1515 0.907 1_655 S
H1502 C1516 1.024 . S
H1503 C1516 0.905 1_455 S
H1504 C1516 0.958 . S
H1505 C1519 0.929 . S
H1506 C1520 0.931 . S
H1507 C1522 0.930 . S
C1508 H1496 0.930 . S
C1508 C1509 1.399 . S
C1508 C1513 1.399 . S
C1509 C1508 1.399 . S
C1509 C1510 1.376 . S
C1510 H1497 0.930 . S
C1510 C1509 1.376 . S
C1510 C1511 1.388 . S
C1511 H1498 0.930 . S
C1511 C1510 1.388 . S
C1511 C1512 1.390 . S
C1512 C1511 1.390 . S
C1512 C1513 1.394 . S
C1512 C1518 1.465 1_655 S
C1513 C1508 1.399 . S
C1513 C1512 1.394 . S
C1513 C1514 1.507 . S
C1514 C1513 1.507 . S
C1514 C1515 1.499 1_655 S
C1514 C1516 1.559 . S
C1514 C1517 1.535 1_655 S
C1515 H1499 0.970 . S
C1515 H1500 1.009 . S
C1515 H1501 0.907 1_455 S
C1515 C1514 1.499 1_455 S
C1516 H1502 1.024 . S
C1516 H1503 0.905 1_655 S
C1516 H1504 0.958 . S
C1516 C1514 1.559 . S
C1517 C1514 1.535 1_455 S
C1517 C1518 1.396 . S
C1517 C1522 1.390 . S
C1518 C1512 1.465 1_455 S
C1518 C1517 1.396 . S
C1518 C1519 1.399 . S
C1519 H1505 0.929 . S
C1519 C1518 1.399 . S
C1519 C1520 1.385 . S
C1520 H1506 0.931 . S
C1520 C1519 1.385 . S
C1520 C1521 1.389 . S
C1521 C1520 1.389 . S
C1521 C1522 1.387 . S
C1522 H1507 0.930 . S
C1522 C1517 1.390 . S
C1522 C1521 1.387 . S
H1523 C1535 0.930 . S
H1524 C1537 0.930 . S
H1525 C1538 0.930 . S
H1526 C1542 0.959 . S
H1527 C1542 0.959 . S
H1528 C1542 0.961 . S
H1529 C1543 0.960 . S
H1530 C1543 0.961 . S
H1531 C1543 0.959 . S
H1532 C1546 0.929 . S
H1533 C1547 0.931 . S
H1534 C1549 0.930 . S
C1535 H1523 0.930 . S
C1535 C1536 1.399 . S
C1535 C1540 1.399 . S
C1536 C1535 1.399 . S
C1536 C1537 1.376 . S
C1537 H1524 0.930 . S
C1537 C1536 1.376 . S
C1537 C1538 1.388 . S
C1538 H1525 0.930 . S
C1538 C1537 1.388 . S
C1538 C1539 1.390 . S
C1539 C1538 1.390 . S
C1539 C1540 1.394 . S
C1539 C1545 1.465 . S
C1540 C1535 1.399 . S
C1540 C1539 1.394 . S
C1540 C1541 1.516 . S
C1541 C1540 1.516 . S
C1541 C1542 1.502 . S
C1541 C1543 1.561 . S
C1541 C1544 1.526 . S
C1542 H1526 0.959 . S
C1542 H1527 0.959 . S
C1542 H1528 0.961 . S
C1542 C1541 1.502 . S
C1543 H1529 0.960 . S
C1543 H1530 0.961 . S
C1543 H1531 0.959 . S
C1543 C1541 1.561 . S
C1544 C1541 1.526 . S
C1544 C1545 1.396 . S
C1544 C1549 1.390 . S
C1545 C1539 1.465 . S
C1545 C1544 1.396 . S
C1545 C1546 1.399 . S
C1546 H1532 0.929 . S
C1546 C1545 1.399 . S
C1546 C1547 1.385 . S
C1547 H1533 0.931 . S
C1547 C1546 1.385 . S
C1547 C1548 1.389 . S
C1548 C1547 1.389 . S
C1548 C1549 1.387 . S
C1549 H1534 0.930 . S
C1549 C1544 1.390 . S
C1549 C1548 1.387 . S
H1550 C1562 0.930 . S
H1551 C1564 0.930 . S
H1552 C1565 0.930 . S
H1553 C1569 0.959 . S
H1554 C1569 0.959 . S
H1555 C1569 0.961 . S
H1556 C1570 0.960 . S
H1557 C1570 0.961 . S
H1558 C1570 0.959 . S
H1559 C1573 0.929 . S
H1560 C1574 0.931 . S
H1561 C1576 0.930 . S
C1562 H1550 0.930 . S
C1562 C1563 1.399 . S
C1562 C1567 1.399 . S
C1563 C1562 1.399 . S
C1563 C1564 1.376 . S
C1564 H1551 0.930 . S
C1564 C1563 1.376 . S
C1564 C1565 1.388 . S
C1565 H1552 0.930 . S
C1565 C1564 1.388 . S
C1565 C1566 1.390 . S
C1566 C1565 1.390 . S
C1566 C1567 1.394 . S
C1566 C1572 1.465 . S
C1567 C1562 1.399 . S
C1567 C1566 1.394 . S
C1567 C1568 1.516 . S
C1568 C1567 1.516 . S
C1568 C1569 1.502 . S
C1568 C1570 1.561 . S
C1568 C1571 1.526 . S
C1569 H1553 0.959 . S
C1569 H1554 0.959 . S
C1569 H1555 0.961 . S
C1569 C1568 1.502 . S
C1570 H1556 0.960 . S
C1570 H1557 0.961 . S
C1570 H1558 0.959 . S
C1570 C1568 1.561 . S
C1571 C1568 1.526 . S
C1571 C1572 1.396 . S
C1571 C1576 1.390 . S
C1572 C1566 1.465 . S
C1572 C1571 1.396 . S
C1572 C1573 1.399 . S
C1573 H1559 0.929 . S
C1573 C1572 1.399 . S
C1573 C1574 1.385 . S
C1574 H1560 0.931 . S
C1574 C1573 1.385 . S
C1574 C1575 1.389 . S
C1575 C1574 1.389 . S
C1575 C1576 1.387 . S
C1576 H1561 0.930 . S
C1576 C1571 1.390 . S
C1576 C1575 1.387 . S
H1577 C1589 0.930 . S
H1578 C1591 0.930 . S
H1579 C1592 0.930 . S
H1580 C1596 0.959 . S
H1581 C1596 0.959 . S
H1582 C1596 0.961 . S
H1583 C1597 0.960 . S
H1584 C1597 0.961 . S
H1585 C1597 0.959 . S
H1586 C1600 0.929 . S
H1587 C1601 0.931 . S
H1588 C1603 0.930 . S
C1589 H1577 0.930 . S
C1589 C1590 1.399 . S
C1589 C1594 1.399 . S
C1590 C1589 1.399 . S
C1590 C1591 1.376 . S
C1591 H1578 0.930 . S
C1591 C1590 1.376 . S
C1591 C1592 1.388 . S
C1592 H1579 0.930 . S
C1592 C1591 1.388 . S
C1592 C1593 1.390 . S
C1593 C1592 1.390 . S
C1593 C1594 1.394 . S
C1593 C1599 1.465 . S
C1594 C1589 1.399 . S
C1594 C1593 1.394 . S
C1594 C1595 1.516 . S
C1595 C1594 1.516 . S
C1595 C1596 1.502 . S
C1595 C1597 1.561 . S
C1595 C1598 1.526 . S
C1596 H1580 0.959 . S
C1596 H1581 0.959 . S
C1596 H1582 0.961 . S
C1596 C1595 1.502 . S
C1597 H1583 0.960 . S
C1597 H1584 0.961 . S
C1597 H1585 0.959 . S
C1597 C1595 1.561 . S
C1598 C1595 1.526 . S
C1598 C1599 1.396 . S
C1598 C1603 1.390 . S
C1599 C1593 1.465 . S
C1599 C1598 1.396 . S
C1599 C1600 1.399 . S
C1600 H1586 0.929 . S
C1600 C1599 1.399 . S
C1600 C1601 1.385 . S
C1601 H1587 0.931 . S
C1601 C1600 1.385 . S
C1601 C1602 1.389 . S
C1602 C1601 1.389 . S
C1602 C1603 1.387 . S
C1603 H1588 0.930 . S
C1603 C1598 1.390 . S
C1603 C1602 1.387 . S
H1604 C1616 0.930 . S
H1605 C1618 0.930 . S
H1606 C1619 0.930 . S
H1607 C1623 0.959 1_565 S
H1608 C1623 0.959 . S
H1609 C1623 0.961 . S
H1610 C1624 0.960 . S
H1611 C1624 0.961 . S
H1612 C1624 0.959 . S
H1613 C1627 0.929 . S
H1614 C1628 0.931 . S
H1615 C1630 0.930 . S
C1616 H1604 0.930 . S
C1616 C1617 1.399 1_545 S
C1616 C1621 1.399 . S
C1617 C1616 1.399 1_565 S
C1617 C1618 1.376 . S
C1618 H1605 0.930 . S
C1618 C1617 1.376 . S
C1618 C1619 1.388 . S
C1619 H1606 0.930 . S
C1619 C1618 1.388 . S
C1619 C1620 1.390 . S
C1620 C1619 1.390 . S
C1620 C1621 1.394 1_565 S
C1620 C1626 1.465 . S
C1621 C1616 1.399 . S
C1621 C1620 1.394 1_545 S
C1621 C1622 1.516 . S
C1622 C1621 1.516 . S
C1622 C1623 1.502 . S
C1622 C1624 1.561 . S
C1622 C1625 1.526 . S
C1623 H1607 0.959 1_545 S
C1623 H1608 0.959 . S
C1623 H1609 0.961 . S
C1623 C1622 1.502 . S
C1624 H1610 0.960 . S
C1624 H1611 0.961 . S
C1624 H1612 0.959 . S
C1624 C1622 1.561 . S
C1625 C1622 1.526 . S
C1625 C1626 1.396 1_545 S
C1625 C1630 1.390 . S
C1626 C1620 1.465 . S
C1626 C1625 1.396 1_565 S
C1626 C1627 1.399 . S
C1627 H1613 0.929 . S
C1627 C1626 1.399 . S
C1627 C1628 1.385 . S
C1628 H1614 0.931 . S
C1628 C1627 1.385 . S
C1628 C1629 1.386 1_565 S
C1629 C1628 1.386 1_545 S
C1629 C1630 1.390 . S
C1630 H1615 0.930 . S
C1630 C1625 1.390 . S
C1630 C1629 1.390 . S
H1631 C1643 0.930 . S
H1632 C1645 0.930 . S
H1633 C1646 0.930 . S
H1634 C1650 0.959 . S
H1635 C1650 0.959 . S
H1636 C1650 0.961 . S
H1637 C1651 0.960 . S
H1638 C1651 0.961 . S
H1639 C1651 0.959 . S
H1640 C1654 0.929 . S
H1641 C1655 0.931 . S
H1642 C1657 0.930 . S
C1643 H1631 0.930 . S
C1643 C1644 1.399 . S
C1643 C1648 1.399 . S
C1644 C1643 1.399 . S
C1644 C1645 1.376 . S
C1645 H1632 0.930 . S
C1645 C1644 1.376 . S
C1645 C1646 1.388 . S
C1646 H1633 0.930 . S
C1646 C1645 1.388 . S
C1646 C1647 1.390 . S
C1647 C1646 1.390 . S
C1647 C1648 1.394 . S
C1647 C1653 1.465 . S
C1648 C1643 1.399 . S
C1648 C1647 1.394 . S
C1648 C1649 1.516 . S
C1649 C1648 1.516 . S
C1649 C1650 1.502 . S
C1649 C1651 1.561 . S
C1649 C1652 1.526 . S
C1650 H1634 0.959 . S
C1650 H1635 0.959 . S
C1650 H1636 0.961 . S
C1650 C1649 1.502 . S
C1651 H1637 0.960 . S
C1651 H1638 0.961 . S
C1651 H1639 0.959 . S
C1651 C1649 1.561 . S
C1652 C1649 1.526 . S
C1652 C1653 1.396 . S
C1652 C1657 1.390 . S
C1653 C1647 1.465 . S
C1653 C1652 1.396 . S
C1653 C1654 1.399 . S
C1654 H1640 0.929 . S
C1654 C1653 1.399 . S
C1654 C1655 1.385 . S
C1655 H1641 0.931 . S
C1655 C1654 1.385 . S
C1655 C1656 1.389 . S
C1656 C1655 1.389 . S
C1656 C1657 1.387 . S
C1657 H1642 0.930 . S
C1657 C1652 1.390 . S
C1657 C1656 1.387 . S
H1658 C1670 0.930 . S
H1659 C1672 0.930 . S
H1660 C1673 0.930 . S
H1661 C1677 0.959 . S
H1662 C1677 0.959 . S
H1663 C1677 0.961 . S
H1664 C1678 0.960 . S
H1665 C1678 0.961 . S
H1666 C1678 0.959 . S
H1667 C1681 0.929 . S
H1668 C1682 0.931 . S
H1669 C1684 0.930 . S
C1670 H1658 0.930 . S
C1670 C1671 1.399 . S
C1670 C1675 1.399 . S
C1671 C1670 1.399 . S
C1671 C1672 1.376 . S
C1672 H1659 0.930 . S
C1672 C1671 1.376 . S
C1672 C1673 1.388 . S
C1673 H1660 0.930 . S
C1673 C1672 1.388 . S
C1673 C1674 1.390 . S
C1674 C1673 1.390 . S
C1674 C1675 1.394 . S
C1674 C1680 1.465 . S
C1675 C1670 1.399 . S
C1675 C1674 1.394 . S
C1675 C1676 1.516 . S
C1676 C1675 1.516 . S
C1676 C1677 1.502 . S
C1676 C1678 1.561 . S
C1676 C1679 1.526 . S
C1677 H1661 0.959 . S
C1677 H1662 0.959 . S
C1677 H1663 0.961 . S
C1677 C1676 1.502 . S
C1678 H1664 0.960 . S
C1678 H1665 0.961 . S
C1678 H1666 0.959 . S
C1678 C1676 1.561 . S
C1679 C1676 1.526 . S
C1679 C1680 1.396 . S
C1679 C1684 1.390 . S
C1680 C1674 1.465 . S
C1680 C1679 1.396 . S
C1680 C1681 1.399 . S
C1681 H1667 0.929 . S
C1681 C1680 1.399 . S
C1681 C1682 1.385 . S
C1682 H1668 0.931 . S
C1682 C1681 1.385 . S
C1682 C1683 1.389 . S
C1683 C1682 1.389 . S
C1683 C1684 1.387 . S
C1684 H1669 0.930 . S
C1684 C1679 1.390 . S
C1684 C1683 1.387 . S
H1685 C1697 0.930 1_556 S
H1686 C1699 0.930 . S
H1687 C1700 0.930 . S
H1688 C1704 0.959 . S
H1689 C1704 0.959 . S
H1690 C1704 0.961 . S
H1691 C1705 0.960 . S
H1692 C1705 0.961 . S
H1693 C1705 0.959 . S
H1694 C1708 0.929 . S
H1695 C1709 0.931 . S
H1696 C1711 0.930 . S
C1697 H1685 0.930 1_554 S
C1697 C1698 1.399 . S
C1697 C1702 1.399 . S
C1698 C1697 1.399 . S
C1698 C1699 1.376 . S
C1699 H1686 0.930 . S
C1699 C1698 1.376 . S
C1699 C1700 1.388 . S
C1700 H1687 0.930 . S
C1700 C1699 1.388 . S
C1700 C1701 1.390 . S
C1701 C1700 1.390 . S
C1701 C1702 1.394 . S
C1701 C1707 1.465 . S
C1702 C1697 1.399 . S
C1702 C1701 1.394 . S
C1702 C1703 1.516 1_554 S
C1703 C1702 1.516 1_556 S
C1703 C1704 1.502 . S
C1703 C1705 1.561 1_556 S
C1703 C1706 1.526 . S
C1704 H1688 0.959 . S
C1704 H1689 0.959 . S
C1704 H1690 0.961 . S
C1704 C1703 1.502 . S
C1705 H1691 0.960 . S
C1705 H1692 0.961 . S
C1705 H1693 0.959 . S
C1705 C1703 1.561 1_554 S
C1706 C1703 1.526 . S
C1706 C1707 1.396 1_556 S
C1706 C1711 1.390 . S
C1707 C1701 1.465 . S
C1707 C1706 1.396 1_554 S
C1707 C1708 1.399 . S
C1708 H1694 0.929 . S
C1708 C1707 1.399 . S
C1708 C1709 1.385 . S
C1709 H1695 0.931 . S
C1709 C1708 1.385 . S
C1709 C1710 1.389 1_554 S
C1710 C1709 1.389 1_556 S
C1710 C1711 1.387 . S
C1711 H1696 0.930 . S
C1711 C1706 1.390 . S
C1711 C1710 1.387 . S
H1712 C1724 0.930 . S
H1713 C1726 0.930 . S
H1714 C1727 0.930 . S
H1715 C1731 0.959 . S
H1716 C1731 0.959 . S
H1717 C1731 0.961 . S
H1718 C1732 0.960 . S
H1719 C1732 0.961 . S
H1720 C1732 0.959 . S
H1721 C1735 0.929 . S
H1722 C1736 0.931 . S
H1723 C1738 0.930 . S
C1724 H1712 0.930 . S
C1724 C1725 1.399 . S
C1724 C1729 1.399 . S
C1725 C1724 1.399 . S
C1725 C1726 1.376 . S
C1726 H1713 0.930 . S
C1726 C1725 1.376 . S
C1726 C1727 1.388 . S
C1727 H1714 0.930 . S
C1727 C1726 1.388 . S
C1727 C1728 1.390 . S
C1728 C1727 1.390 . S
C1728 C1729 1.394 . S
C1728 C1734 1.465 . S
C1729 C1724 1.399 . S
C1729 C1728 1.394 . S
C1729 C1730 1.516 . S
C1730 C1729 1.516 . S
C1730 C1731 1.502 . S
C1730 C1732 1.561 . S
C1730 C1733 1.526 . S
C1731 H1715 0.959 . S
C1731 H1716 0.959 . S
C1731 H1717 0.961 . S
C1731 C1730 1.502 . S
C1732 H1718 0.960 . S
C1732 H1719 0.961 . S
C1732 H1720 0.959 . S
C1732 C1730 1.561 . S
C1733 C1730 1.526 . S
C1733 C1734 1.396 . S
C1733 C1738 1.390 . S
C1734 C1728 1.465 . S
C1734 C1733 1.396 . S
C1734 C1735 1.399 . S
C1735 H1721 0.929 . S
C1735 C1734 1.399 . S
C1735 C1736 1.385 . S
C1736 H1722 0.931 . S
C1736 C1735 1.385 . S
C1736 C1737 1.389 . S
C1737 C1736 1.389 . S
C1737 C1738 1.387 . S
C1738 H1723 0.930 . S
C1738 C1733 1.390 . S
C1738 C1737 1.387 . S
H1739 C1751 0.930 . S
H1740 C1753 0.930 . S
H1741 C1754 0.930 . S
H1742 C1758 0.959 . S
H1743 C1758 0.959 . S
H1744 C1758 0.961 . S
H1745 C1759 0.960 . S
H1746 C1759 0.961 . S
H1747 C1759 0.959 . S
H1748 C1762 0.929 . S
H1749 C1763 0.931 . S
H1750 C1765 0.930 . S
C1751 H1739 0.930 . S
C1751 C1752 1.399 1_545 S
C1751 C1756 1.399 . S
C1752 C1751 1.399 1_565 S
C1752 C1753 1.376 . S
C1753 H1740 0.930 . S
C1753 C1752 1.376 . S
C1753 C1754 1.388 . S
C1754 H1741 0.930 . S
C1754 C1753 1.388 . S
C1754 C1755 1.390 . S
C1755 C1754 1.390 . S
C1755 C1756 1.394 1_565 S
C1755 C1761 1.465 . S
C1756 C1751 1.399 . S
C1756 C1755 1.394 1_545 S
C1756 C1757 1.516 . S
C1757 C1756 1.516 . S
C1757 C1758 1.502 . S
C1757 C1759 1.561 . S
C1757 C1760 1.526 . S
C1758 H1742 0.959 . S
C1758 H1743 0.959 . S
C1758 H1744 0.961 . S
C1758 C1757 1.502 . S
C1759 H1745 0.960 . S
C1759 H1746 0.961 . S
C1759 H1747 0.959 . S
C1759 C1757 1.561 . S
C1760 C1757 1.526 . S
C1760 C1761 1.396 1_545 S
C1760 C1765 1.390 . S
C1761 C1755 1.465 . S
C1761 C1760 1.396 1_565 S
C1761 C1762 1.399 . S
C1762 H1748 0.929 . S
C1762 C1761 1.399 . S
C1762 C1763 1.385 . S
C1763 H1749 0.931 . S
C1763 C1762 1.385 . S
C1763 C1764 1.389 . S
C1764 C1763 1.389 . S
C1764 C1765 1.387 1_565 S
C1765 H1750 0.930 . S
C1765 C1760 1.390 . S
C1765 C1764 1.387 1_545 S
H1766 C1778 0.930 . S
H1767 C1780 0.930 1_554 S
H1768 C1781 0.930 1_554 S
H1769 C1785 0.959 . S
H1770 C1785 0.959 . S
H1771 C1785 0.961 . S
H1772 C1786 0.960 . S
H1773 C1786 0.961 . S
H1774 C1786 0.959 . S
H1775 C1789 0.929 . S
H1776 C1790 0.931 . S
H1777 C1792 0.930 . S
C1778 H1766 0.930 . S
C1778 C1779 1.399 . S
C1778 C1783 1.399 . S
C1779 C1778 1.399 . S
C1779 C1780 1.376 1_565 S
C1780 H1767 0.930 1_556 S
C1780 C1779 1.376 1_545 S
C1780 C1781 1.388 . S
C1781 H1768 0.930 1_556 S
C1781 C1780 1.388 . S
C1781 C1782 1.394 . S
C1782 C1781 1.394 . S
C1782 C1783 1.389 1_545 S
C1782 C1788 1.465 . S
C1783 C1778 1.399 . S
C1783 C1782 1.389 1_565 S
C1783 C1784 1.516 . S
C1784 C1783 1.516 . S
C1784 C1785 1.502 . S
C1784 C1786 1.561 . S
C1784 C1787 1.526 . S
C1785 H1769 0.959 . S
C1785 H1770 0.959 . S
C1785 H1771 0.961 . S
C1785 C1784 1.502 . S
C1786 H1772 0.960 . S
C1786 H1773 0.961 . S
C1786 H1774 0.959 . S
C1786 C1784 1.561 . S
C1787 C1784 1.526 . S
C1787 C1788 1.378 1_565 S
C1787 C1792 1.390 . S
C1788 C1782 1.465 . S
C1788 C1787 1.378 1_545 S
C1788 C1789 1.415 . S
C1789 H1775 0.929 . S
C1789 C1788 1.415 . S
C1789 C1790 1.385 . S
C1790 H1776 0.931 . S
C1790 C1789 1.385 . S
C1790 C1791 1.389 1_545 S
C1791 C1790 1.389 1_565 S
C1791 C1792 1.387 . S
C1792 H1777 0.930 . S
C1792 C1787 1.390 . S
C1792 C1791 1.387 . S
H1793 C1805 0.930 . S
H1794 C1807 0.930 . S
H1795 C1808 0.930 . S
H1796 C1812 0.959 . S
H1797 C1812 0.959 . S
H1798 C1812 0.961 . S
H1799 C1813 0.960 . S
H1800 C1813 0.961 . S
H1801 C1813 0.959 . S
H1802 C1816 0.929 . S
H1803 C1817 0.931 . S
H1804 C1819 0.930 . S
C1805 H1793 0.930 . S
C1805 C1806 1.399 . S
C1805 C1810 1.399 . S
C1806 C1805 1.399 . S
C1806 C1807 1.376 . S
C1807 H1794 0.930 . S
C1807 C1806 1.376 . S
C1807 C1808 1.388 . S
C1808 H1795 0.930 . S
C1808 C1807 1.388 . S
C1808 C1809 1.390 . S
C1809 C1808 1.390 . S
C1809 C1810 1.394 . S
C1809 C1815 1.465 . S
C1810 C1805 1.399 . S
C1810 C1809 1.394 . S
C1810 C1811 1.516 . S
C1811 C1810 1.516 . S
C1811 C1812 1.502 . S
C1811 C1813 1.561 . S
C1811 C1814 1.526 . S
C1812 H1796 0.959 . S
C1812 H1797 0.959 . S
C1812 H1798 0.961 . S
C1812 C1811 1.502 . S
C1813 H1799 0.960 . S
C1813 H1800 0.961 . S
C1813 H1801 0.959 . S
C1813 C1811 1.561 . S
C1814 C1811 1.526 . S
C1814 C1815 1.396 . S
C1814 C1819 1.390 . S
C1815 C1809 1.465 . S
C1815 C1814 1.396 . S
C1815 C1816 1.399 . S
C1816 H1802 0.929 . S
C1816 C1815 1.399 . S
C1816 C1817 1.385 . S
C1817 H1803 0.931 . S
C1817 C1816 1.385 . S
C1817 C1818 1.389 . S
C1818 C1817 1.389 . S
C1818 C1819 1.387 . S
C1819 H1804 0.930 . S
C1819 C1814 1.390 . S
C1819 C1818 1.387 . S
H1820 C1832 0.930 . S
H1821 C1834 0.930 . S
H1822 C1835 0.930 . S
H1823 C1839 0.959 . S
H1824 C1839 0.959 . S
H1825 C1839 0.961 . S
H1826 C1840 0.960 . S
H1827 C1840 0.961 . S
H1828 C1840 0.959 . S
H1829 C1843 0.929 . S
H1830 C1844 0.931 . S
H1831 C1846 0.930 . S
C1832 H1820 0.930 . S
C1832 C1833 1.399 . S
C1832 C1837 1.399 . S
C1833 C1832 1.399 . S
C1833 C1834 1.376 . S
C1834 H1821 0.930 . S
C1834 C1833 1.376 . S
C1834 C1835 1.388 . S
C1835 H1822 0.930 . S
C1835 C1834 1.388 . S
C1835 C1836 1.390 . S
C1836 C1835 1.390 . S
C1836 C1837 1.394 . S
C1836 C1842 1.465 . S
C1837 C1832 1.399 . S
C1837 C1836 1.394 . S
C1837 C1838 1.516 . S
C1838 C1837 1.516 . S
C1838 C1839 1.502 . S
C1838 C1840 1.561 . S
C1838 C1841 1.526 . S
C1839 H1823 0.959 . S
C1839 H1824 0.959 . S
C1839 H1825 0.961 . S
C1839 C1838 1.502 . S
C1840 H1826 0.960 . S
C1840 H1827 0.961 . S
C1840 H1828 0.959 . S
C1840 C1838 1.561 . S
C1841 C1838 1.526 . S
C1841 C1842 1.396 . S
C1841 C1846 1.390 . S
C1842 C1836 1.465 . S
C1842 C1841 1.396 . S
C1842 C1843 1.399 . S
C1843 H1829 0.929 . S
C1843 C1842 1.399 . S
C1843 C1844 1.385 . S
C1844 H1830 0.931 . S
C1844 C1843 1.385 . S
C1844 C1845 1.389 . S
C1845 C1844 1.389 . S
C1845 C1846 1.387 . S
C1846 H1831 0.930 . S
C1846 C1841 1.390 . S
C1846 C1845 1.387 . S
H1847 C1859 0.930 . S
H1848 C1861 0.930 . S
H1849 C1862 0.930 . S
H1850 C1866 0.959 1_545 S
H1851 C1866 0.959 . S
H1852 C1866 0.961 . S
H1853 C1867 0.960 . S
H1854 C1867 0.961 . S
H1855 C1867 0.959 . S
H1856 C1870 0.929 . S
H1857 C1871 0.931 . S
H1858 C1873 0.930 . S
C1859 H1847 0.930 . S
C1859 C1860 1.399 1_565 S
C1859 C1864 1.399 . S
C1860 C1859 1.399 1_545 S
C1860 C1861 1.376 . S
C1861 H1848 0.930 . S
C1861 C1860 1.376 . S
C1861 C1862 1.388 . S
C1862 H1849 0.930 . S
C1862 C1861 1.388 . S
C1862 C1863 1.390 . S
C1863 C1862 1.390 . S
C1863 C1864 1.394 1_545 S
C1863 C1869 1.465 . S
C1864 C1859 1.399 . S
C1864 C1863 1.394 1_565 S
C1864 C1865 1.516 . S
C1865 C1864 1.516 . S
C1865 C1866 1.502 . S
C1865 C1867 1.561 . S
C1865 C1868 1.526 . S
C1866 H1850 0.959 1_565 S
C1866 H1851 0.959 . S
C1866 H1852 0.961 . S
C1866 C1865 1.502 . S
C1867 H1853 0.960 . S
C1867 H1854 0.961 . S
C1867 H1855 0.959 . S
C1867 C1865 1.561 . S
C1868 C1865 1.526 . S
C1868 C1869 1.396 1_565 S
C1868 C1873 1.390 . S
C1869 C1863 1.465 . S
C1869 C1868 1.396 1_545 S
C1869 C1870 1.399 . S
C1870 H1856 0.929 . S
C1870 C1869 1.399 . S
C1870 C1871 1.385 . S
C1871 H1857 0.931 . S
C1871 C1870 1.385 . S
C1871 C1872 1.389 . S
C1872 C1871 1.389 . S
C1872 C1873 1.387 1_545 S
C1873 H1858 0.930 . S
C1873 C1868 1.390 . S
C1873 C1872 1.387 1_565 S
H1874 C1886 0.930 . S
H1875 C1888 0.930 . S
H1876 C1889 0.930 . S
H1877 C1893 0.959 1_556 S
H1878 C1893 0.959 1_556 S
H1879 C1893 0.961 . S
H1880 C1894 0.960 . S
H1881 C1894 0.961 . S
H1882 C1894 0.959 . S
H1883 C1897 0.929 . S
H1884 C1898 0.931 . S
H1885 C1900 0.930 . S
C1886 H1874 0.930 . S
C1886 C1887 1.399 1_565 S
C1886 C1891 1.399 . S
C1887 C1886 1.399 1_545 S
C1887 C1888 1.376 . S
C1888 H1875 0.930 . S
C1888 C1887 1.376 . S
C1888 C1889 1.388 . S
C1889 H1876 0.930 . S
C1889 C1888 1.388 . S
C1889 C1890 1.390 . S
C1890 C1889 1.390 . S
C1890 C1891 1.394 1_545 S
C1890 C1896 1.465 . S
C1891 C1886 1.399 . S
C1891 C1890 1.394 1_565 S
C1891 C1892 1.516 . S
C1892 C1891 1.516 . S
C1892 C1893 1.502 . S
C1892 C1894 1.561 . S
C1892 C1895 1.526 . S
C1893 H1877 0.959 1_554 S
C1893 H1878 0.959 1_554 S
C1893 H1879 0.961 . S
C1893 C1892 1.502 . S
C1894 H1880 0.960 . S
C1894 H1881 0.961 . S
C1894 H1882 0.959 . S
C1894 C1892 1.561 . S
C1895 C1892 1.526 . S
C1895 C1896 1.396 1_565 S
C1895 C1900 1.390 . S
C1896 C1890 1.465 . S
C1896 C1895 1.396 1_545 S
C1896 C1897 1.399 . S
C1897 H1883 0.929 . S
C1897 C1896 1.399 . S
C1897 C1898 1.385 . S
C1898 H1884 0.931 . S
C1898 C1897 1.385 . S
C1898 C1899 1.389 . S
C1899 C1898 1.389 . S
C1899 C1900 1.387 1_545 S
C1900 H1885 0.930 . S
C1900 C1895 1.390 . S
C1900 C1899 1.387 1_565 S
H1901 C1913 0.930 . S
H1902 C1915 0.930 . S
H1903 C1916 0.930 . S
H1904 C1920 0.959 . S
H1905 C1920 0.959 . S
H1906 C1920 0.961 . S
H1907 C1921 0.960 . S
H1908 C1921 0.961 . S
H1909 C1921 0.959 . S
H1910 C1924 0.929 1_556 S
H1911 C1925 0.931 1_556 S
H1912 C1927 0.930 . S
C1913 H1901 0.930 . S
C1913 C1914 1.399 . S
C1913 C1918 1.399 . S
C1914 C1913 1.399 . S
C1914 C1915 1.376 . S
C1915 H1902 0.930 . S
C1915 C1914 1.376 . S
C1915 C1916 1.388 . S
C1916 H1903 0.930 . S
C1916 C1915 1.388 . S
C1916 C1917 1.390 . S
C1917 C1916 1.390 . S
C1917 C1918 1.394 . S
C1917 C1923 1.465 . S
C1918 C1913 1.399 . S
C1918 C1917 1.394 . S
C1918 C1919 1.516 . S
C1919 C1918 1.516 . S
C1919 C1920 1.502 . S
C1919 C1921 1.561 . S
C1919 C1922 1.526 . S
C1920 H1904 0.959 . S
C1920 H1905 0.959 . S
C1920 H1906 0.961 . S
C1920 C1919 1.502 . S
C1921 H1907 0.960 . S
C1921 H1908 0.961 . S
C1921 H1909 0.959 . S
C1921 C1919 1.561 . S
C1922 C1919 1.526 . S
C1922 C1923 1.396 . S
C1922 C1927 1.390 . S
C1923 C1917 1.465 . S
C1923 C1922 1.396 . S
C1923 C1924 1.399 . S
C1924 H1910 0.929 1_554 S
C1924 C1923 1.399 . S
C1924 C1925 1.385 . S
C1925 H1911 0.931 1_554 S
C1925 C1924 1.385 . S
C1925 C1926 1.389 . S
C1926 C1925 1.389 . S
C1926 C1927 1.387 . S
C1927 H1912 0.930 . S
C1927 C1922 1.390 . S
C1927 C1926 1.387 . S
H1928 C1940 0.930 . S
H1929 C1942 0.930 . S
H1930 C1943 0.930 . S
H1931 C1947 0.959 . S
H1932 C1947 0.959 . S
H1933 C1947 0.961 . S
H1934 C1948 0.960 . S
H1935 C1948 0.961 . S
H1936 C1948 0.959 . S
H1937 C1951 0.929 . S
H1938 C1952 0.931 . S
H1939 C1954 0.930 . S
C1940 H1928 0.930 . S
C1940 C1941 1.399 . S
C1940 C1945 1.399 . S
C1941 C1940 1.399 . S
C1941 C1942 1.376 . S
C1942 H1929 0.930 . S
C1942 C1941 1.376 . S
C1942 C1943 1.388 . S
C1943 H1930 0.930 . S
C1943 C1942 1.388 . S
C1943 C1944 1.390 . S
C1944 C1943 1.390 . S
C1944 C1945 1.394 . S
C1944 C1950 1.465 . S
C1945 C1940 1.399 . S
C1945 C1944 1.394 . S
C1945 C1946 1.516 . S
C1946 C1945 1.516 . S
C1946 C1947 1.502 . S
C1946 C1948 1.561 . S
C1946 C1949 1.526 . S
C1947 H1931 0.959 . S
C1947 H1932 0.959 . S
C1947 H1933 0.961 . S
C1947 C1946 1.502 . S
C1948 H1934 0.960 . S
C1948 H1935 0.961 . S
C1948 H1936 0.959 . S
C1948 C1946 1.561 . S
C1949 C1946 1.526 . S
C1949 C1950 1.396 . S
C1949 C1954 1.390 . S
C1950 C1944 1.465 . S
C1950 C1949 1.396 . S
C1950 C1951 1.399 . S
C1951 H1937 0.929 . S
C1951 C1950 1.399 . S
C1951 C1952 1.385 . S
C1952 H1938 0.931 . S
C1952 C1951 1.385 . S
C1952 C1953 1.389 . S
C1953 C1952 1.389 . S
C1953 C1954 1.387 . S
C1954 H1939 0.930 . S
C1954 C1949 1.390 . S
C1954 C1953 1.387 . S
H1955 C1967 0.930 . S
H1956 C1969 0.930 . S
H1957 C1970 0.930 . S
H1958 C1974 0.959 . S
H1959 C1974 0.959 . S
H1960 C1974 0.961 . S
H1961 C1975 0.960 . S
H1962 C1975 0.961 . S
H1963 C1975 0.959 . S
H1964 C1978 0.929 . S
H1965 C1979 0.931 . S
H1966 C1981 0.930 . S
C1967 H1955 0.930 . S
C1967 C1968 1.399 . S
C1967 C1972 1.399 . S
C1968 C1967 1.399 . S
C1968 C1969 1.376 . S
C1969 H1956 0.930 . S
C1969 C1968 1.376 . S
C1969 C1970 1.388 . S
C1970 H1957 0.930 . S
C1970 C1969 1.388 . S
C1970 C1971 1.390 . S
C1971 C1970 1.390 . S
C1971 C1972 1.394 . S
C1971 C1977 1.465 . S
C1972 C1967 1.399 . S
C1972 C1971 1.394 . S
C1972 C1973 1.516 . S
C1973 C1972 1.516 . S
C1973 C1974 1.502 . S
C1973 C1975 1.561 . S
C1973 C1976 1.526 . S
C1974 H1958 0.959 . S
C1974 H1959 0.959 . S
C1974 H1960 0.961 . S
C1974 C1973 1.502 . S
C1975 H1961 0.960 . S
C1975 H1962 0.961 . S
C1975 H1963 0.959 . S
C1975 C1973 1.561 . S
C1976 C1973 1.526 . S
C1976 C1977 1.396 . S
C1976 C1981 1.390 . S
C1977 C1971 1.465 . S
C1977 C1976 1.396 . S
C1977 C1978 1.399 . S
C1978 H1964 0.929 . S
C1978 C1977 1.399 . S
C1978 C1979 1.385 . S
C1979 H1965 0.931 . S
C1979 C1978 1.385 . S
C1979 C1980 1.389 . S
C1980 C1979 1.389 . S
C1980 C1981 1.387 . S
C1981 H1966 0.930 . S
C1981 C1976 1.390 . S
C1981 C1980 1.387 . S
H1982 C1994 0.930 . S
H1983 C1996 0.930 . S
H1984 C1997 0.930 . S
H1985 C2001 0.959 . S
H1986 C2001 0.959 . S
H1987 C2001 0.961 . S
H1988 C2002 0.960 . S
H1989 C2002 0.961 . S
H1990 C2002 0.959 . S
H1991 C2005 0.929 . S
H1992 C2006 0.931 . S
H1993 C2008 0.930 . S
C1994 H1982 0.930 . S
C1994 C1995 1.399 . S
C1994 C1999 1.399 . S
C1995 C1994 1.399 . S
C1995 C1996 1.376 . S
C1996 H1983 0.930 . S
C1996 C1995 1.376 . S
C1996 C1997 1.388 . S
C1997 H1984 0.930 . S
C1997 C1996 1.388 . S
C1997 C1998 1.390 . S
C1998 C1997 1.390 . S
C1998 C1999 1.394 . S
C1998 C2004 1.465 . S
C1999 C1994 1.399 . S
C1999 C1998 1.394 . S
C1999 C2000 1.516 . S
C2000 C1999 1.516 . S
C2000 C2001 1.502 . S
C2000 C2002 1.561 . S
C2000 C2003 1.526 . S
C2001 H1985 0.959 . S
C2001 H1986 0.959 . S
C2001 H1987 0.961 . S
C2001 C2000 1.502 . S
C2002 H1988 0.960 . S
C2002 H1989 0.961 . S
C2002 H1990 0.959 . S
C2002 C2000 1.561 . S
C2003 C2000 1.526 . S
C2003 C2004 1.396 . S
C2003 C2008 1.390 . S
C2004 C1998 1.465 . S
C2004 C2003 1.396 . S
C2004 C2005 1.399 . S
C2005 H1991 0.929 . S
C2005 C2004 1.399 . S
C2005 C2006 1.385 . S
C2006 H1992 0.931 . S
C2006 C2005 1.385 . S
C2006 C2007 1.389 . S
C2007 C2006 1.389 . S
C2007 C2008 1.387 . S
C2008 H1993 0.930 . S
C2008 C2003 1.390 . S
C2008 C2007 1.387 . S
H2009 C2021 0.930 . S
H2010 C2023 0.930 . S
H2011 C2024 0.930 . S
H2012 C2028 0.959 . S
H2013 C2028 0.959 . S
H2014 C2028 0.961 . S
H2015 C2029 0.960 . S
H2016 C2029 0.961 . S
H2017 C2029 0.959 . S
H2018 C2032 0.929 . S
H2019 C2033 0.931 . S
H2020 C2035 0.930 . S
C2021 H2009 0.930 . S
C2021 C2022 1.399 . S
C2021 C2026 1.399 . S
C2022 C2021 1.399 . S
C2022 C2023 1.376 . S
C2023 H2010 0.930 . S
C2023 C2022 1.376 . S
C2023 C2024 1.388 . S
C2024 H2011 0.930 . S
C2024 C2023 1.388 . S
C2024 C2025 1.390 . S
C2025 C2024 1.390 . S
C2025 C2026 1.394 . S
C2025 C2031 1.465 . S
C2026 C2021 1.399 . S
C2026 C2025 1.394 . S
C2026 C2027 1.516 . S
C2027 C2026 1.516 . S
C2027 C2028 1.502 . S
C2027 C2029 1.561 . S
C2027 C2030 1.526 . S
C2028 H2012 0.959 . S
C2028 H2013 0.959 . S
C2028 H2014 0.961 . S
C2028 C2027 1.502 . S
C2029 H2015 0.960 . S
C2029 H2016 0.961 . S
C2029 H2017 0.959 . S
C2029 C2027 1.561 . S
C2030 C2027 1.526 . S
C2030 C2031 1.396 . S
C2030 C2035 1.390 . S
C2031 C2025 1.465 . S
C2031 C2030 1.396 . S
C2031 C2032 1.399 . S
C2032 H2018 0.929 . S
C2032 C2031 1.399 . S
C2032 C2033 1.385 . S
C2033 H2019 0.931 . S
C2033 C2032 1.385 . S
C2033 C2034 1.389 . S
C2034 C2033 1.389 . S
C2034 C2035 1.387 . S
C2035 H2020 0.930 . S
C2035 C2030 1.390 . S
C2035 C2034 1.387 . S
H2036 C2048 0.930 . S
H2037 C2050 0.930 . S
H2038 C2051 0.930 . S
H2039 C2055 0.959 . S
H2040 C2055 0.959 . S
H2041 C2055 0.961 . S
H2042 C2056 0.960 . S
H2043 C2056 0.961 . S
H2044 C2056 0.959 . S
H2045 C2059 0.929 . S
H2046 C2060 0.931 . S
H2047 C2062 0.930 . S
C2048 H2036 0.930 . S
C2048 C2049 1.399 . S
C2048 C2053 1.399 . S
C2049 C2048 1.399 . S
C2049 C2050 1.376 . S
C2050 H2037 0.930 . S
C2050 C2049 1.376 . S
C2050 C2051 1.388 . S
C2051 H2038 0.930 . S
C2051 C2050 1.388 . S
C2051 C2052 1.390 . S
C2052 C2051 1.390 . S
C2052 C2053 1.394 . S
C2052 C2058 1.465 . S
C2053 C2048 1.399 . S
C2053 C2052 1.394 . S
C2053 C2054 1.516 . S
C2054 C2053 1.516 . S
C2054 C2055 1.502 . S
C2054 C2056 1.561 . S
C2054 C2057 1.526 . S
C2055 H2039 0.959 . S
C2055 H2040 0.959 . S
C2055 H2041 0.961 . S
C2055 C2054 1.502 . S
C2056 H2042 0.960 . S
C2056 H2043 0.961 . S
C2056 H2044 0.959 . S
C2056 C2054 1.561 . S
C2057 C2054 1.526 . S
C2057 C2058 1.396 . S
C2057 C2062 1.390 . S
C2058 C2052 1.465 . S
C2058 C2057 1.396 . S
C2058 C2059 1.399 . S
C2059 H2045 0.929 . S
C2059 C2058 1.399 . S
C2059 C2060 1.385 . S
C2060 H2046 0.931 . S
C2060 C2059 1.385 . S
C2060 C2061 1.389 . S
C2061 C2060 1.389 . S
C2061 C2062 1.387 . S
C2062 H2047 0.930 . S
C2062 C2057 1.390 . S
C2062 C2061 1.387 . S
H2063 C2075 0.930 . S
H2064 C2077 0.930 . S
H2065 C2078 0.930 . S
H2066 C2082 0.959 1_556 S
H2067 C2082 0.959 . S
H2068 C2082 0.961 1_556 S
H2069 C2083 0.960 . S
H2070 C2083 0.961 . S
H2071 C2083 0.959 . S
H2072 C2086 0.929 . S
H2073 C2087 0.931 . S
H2074 C2089 0.930 . S
C2075 H2063 0.930 . S
C2075 C2076 1.399 . S
C2075 C2080 1.399 . S
C2076 C2075 1.399 . S
C2076 C2077 1.376 . S
C2077 H2064 0.930 . S
C2077 C2076 1.376 . S
C2077 C2078 1.388 . S
C2078 H2065 0.930 . S
C2078 C2077 1.388 . S
C2078 C2079 1.390 . S
C2079 C2078 1.390 . S
C2079 C2080 1.394 . S
C2079 C2085 1.465 . S
C2080 C2075 1.399 . S
C2080 C2079 1.394 . S
C2080 C2081 1.516 . S
C2081 C2080 1.516 . S
C2081 C2082 1.502 . S
C2081 C2083 1.561 . S
C2081 C2084 1.526 . S
C2082 H2066 0.959 1_554 S
C2082 H2067 0.959 . S
C2082 H2068 0.961 1_554 S
C2082 C2081 1.502 . S
C2083 H2069 0.960 . S
C2083 H2070 0.961 . S
C2083 H2071 0.959 . S
C2083 C2081 1.561 . S
C2084 C2081 1.526 . S
C2084 C2085 1.396 . S
C2084 C2089 1.390 . S
C2085 C2079 1.465 . S
C2085 C2084 1.396 . S
C2085 C2086 1.399 . S
C2086 H2072 0.929 . S
C2086 C2085 1.399 . S
C2086 C2087 1.385 . S
C2087 H2073 0.931 . S
C2087 C2086 1.385 . S
C2087 C2088 1.389 . S
C2088 C2087 1.389 . S
C2088 C2089 1.387 . S
C2089 H2074 0.930 . S
C2089 C2084 1.390 . S
C2089 C2088 1.387 . S
H2090 C2102 0.930 . S
H2091 C2104 0.930 . S
H2092 C2105 0.930 . S
H2093 C2109 0.959 . S
H2094 C2109 0.959 . S
H2095 C2109 0.961 . S
H2096 C2110 0.960 . S
H2097 C2110 0.961 . S
H2098 C2110 0.959 . S
H2099 C2113 0.929 . S
H2100 C2114 0.931 . S
H2101 C2116 0.930 . S
C2102 H2090 0.930 . S
C2102 C2103 1.399 . S
C2102 C2107 1.399 . S
C2103 C2102 1.399 . S
C2103 C2104 1.376 . S
C2104 H2091 0.930 . S
C2104 C2103 1.376 . S
C2104 C2105 1.388 . S
C2105 H2092 0.930 . S
C2105 C2104 1.388 . S
C2105 C2106 1.390 . S
C2106 C2105 1.390 . S
C2106 C2107 1.394 . S
C2106 C2112 1.465 . S
C2107 C2102 1.399 . S
C2107 C2106 1.394 . S
C2107 C2108 1.516 . S
C2108 C2107 1.516 . S
C2108 C2109 1.502 . S
C2108 C2110 1.561 . S
C2108 C2111 1.526 . S
C2109 H2093 0.959 . S
C2109 H2094 0.959 . S
C2109 H2095 0.961 . S
C2109 C2108 1.502 . S
C2110 H2096 0.960 . S
C2110 H2097 0.961 . S
C2110 H2098 0.959 . S
C2110 C2108 1.561 . S
C2111 C2108 1.526 . S
C2111 C2112 1.396 . S
C2111 C2116 1.390 . S
C2112 C2106 1.465 . S
C2112 C2111 1.396 . S
C2112 C2113 1.399 . S
C2113 H2099 0.929 . S
C2113 C2112 1.399 . S
C2113 C2114 1.385 . S
C2114 H2100 0.931 . S
C2114 C2113 1.385 . S
C2114 C2115 1.389 . S
C2115 C2114 1.389 . S
C2115 C2116 1.387 . S
C2116 H2101 0.930 . S
C2116 C2111 1.390 . S
C2116 C2115 1.387 . S
H2117 C2129 0.930 . S
H2118 C2131 0.930 . S
H2119 C2132 0.930 . S
H2120 C2136 0.959 . S
H2121 C2136 0.959 . S
H2122 C2136 0.961 . S
H2123 C2137 0.960 . S
H2124 C2137 0.961 . S
H2125 C2137 0.959 . S
H2126 C2140 0.929 . S
H2127 C2141 0.931 . S
H2128 C2143 0.930 . S
C2129 H2117 0.930 . S
C2129 C2130 1.399 . S
C2129 C2134 1.399 . S
C2130 C2129 1.399 . S
C2130 C2131 1.376 . S
C2131 H2118 0.930 . S
C2131 C2130 1.376 . S
C2131 C2132 1.388 . S
C2132 H2119 0.930 . S
C2132 C2131 1.388 . S
C2132 C2133 1.390 . S
C2133 C2132 1.390 . S
C2133 C2134 1.394 . S
C2133 C2139 1.465 . S
C2134 C2129 1.399 . S
C2134 C2133 1.394 . S
C2134 C2135 1.516 . S
C2135 C2134 1.516 . S
C2135 C2136 1.502 . S
C2135 C2137 1.561 . S
C2135 C2138 1.526 . S
C2136 H2120 0.959 . S
C2136 H2121 0.959 . S
C2136 H2122 0.961 . S
C2136 C2135 1.502 . S
C2137 H2123 0.960 . S
C2137 H2124 0.961 . S
C2137 H2125 0.959 . S
C2137 C2135 1.561 . S
C2138 C2135 1.526 . S
C2138 C2139 1.396 . S
C2138 C2143 1.390 . S
C2139 C2133 1.465 . S
C2139 C2138 1.396 . S
C2139 C2140 1.399 . S
C2140 H2126 0.929 . S
C2140 C2139 1.399 . S
C2140 C2141 1.385 . S
C2141 H2127 0.931 . S
C2141 C2140 1.385 . S
C2141 C2142 1.389 . S
C2142 C2141 1.389 . S
C2142 C2143 1.387 . S
C2143 H2128 0.930 . S
C2143 C2138 1.390 . S
C2143 C2142 1.387 . S
H2144 C2156 0.930 . S
H2145 C2158 0.930 . S
H2146 C2159 0.930 . S
H2147 C2163 0.959 . S
H2148 C2163 0.959 . S
H2149 C2163 0.961 . S
H2150 C2164 0.960 . S
H2151 C2164 0.961 . S
H2152 C2164 0.959 . S
H2153 C2167 0.929 . S
H2154 C2168 0.931 . S
H2155 C2170 0.930 . S
C2156 H2144 0.930 . S
C2156 C2157 1.399 . S
C2156 C2161 1.399 . S
C2157 C2156 1.399 . S
C2157 C2158 1.376 . S
C2158 H2145 0.930 . S
C2158 C2157 1.376 . S
C2158 C2159 1.388 . S
C2159 H2146 0.930 . S
C2159 C2158 1.388 . S
C2159 C2160 1.390 . S
C2160 C2159 1.390 . S
C2160 C2161 1.394 . S
C2160 C2166 1.465 . S
C2161 C2156 1.399 . S
C2161 C2160 1.394 . S
C2161 C2162 1.516 . S
C2162 C2161 1.516 . S
C2162 C2163 1.502 . S
C2162 C2164 1.561 . S
C2162 C2165 1.526 . S
C2163 H2147 0.959 . S
C2163 H2148 0.959 . S
C2163 H2149 0.961 . S
C2163 C2162 1.502 . S
C2164 H2150 0.960 . S
C2164 H2151 0.961 . S
C2164 H2152 0.959 . S
C2164 C2162 1.561 . S
C2165 C2162 1.526 . S
C2165 C2166 1.396 . S
C2165 C2170 1.390 . S
C2166 C2160 1.465 . S
C2166 C2165 1.396 . S
C2166 C2167 1.399 . S
C2167 H2153 0.929 . S
C2167 C2166 1.399 . S
C2167 C2168 1.385 . S
C2168 H2154 0.931 . S
C2168 C2167 1.385 . S
C2168 C2169 1.389 . S
C2169 C2168 1.389 . S
C2169 C2170 1.387 . S
C2170 H2155 0.930 . S
C2170 C2165 1.390 . S
C2170 C2169 1.387 . S
H2171 C2183 0.930 . S
H2172 C2185 0.930 . S
H2173 C2186 0.930 . S
H2174 C2190 0.959 . S
H2175 C2190 0.959 . S
H2176 C2190 0.961 . S
H2177 C2191 0.960 . S
H2178 C2191 0.961 . S
H2179 C2191 0.959 . S
H2180 C2194 0.929 . S
H2181 C2195 0.931 . S
H2182 C2197 0.930 . S
C2183 H2171 0.930 . S
C2183 C2184 1.399 1_545 S
C2183 C2188 1.399 . S
C2184 C2183 1.399 1_565 S
C2184 C2185 1.376 . S
C2185 H2172 0.930 . S
C2185 C2184 1.376 . S
C2185 C2186 1.388 . S
C2186 H2173 0.930 . S
C2186 C2185 1.388 . S
C2186 C2187 1.390 . S
C2187 C2186 1.390 . S
C2187 C2188 1.394 1_565 S
C2187 C2193 1.465 . S
C2188 C2183 1.399 . S
C2188 C2187 1.394 1_545 S
C2188 C2189 1.516 . S
C2189 C2188 1.516 . S
C2189 C2190 1.502 . S
C2189 C2191 1.561 . S
C2189 C2192 1.526 . S
C2190 H2174 0.959 . S
C2190 H2175 0.959 . S
C2190 H2176 0.961 . S
C2190 C2189 1.502 . S
C2191 H2177 0.960 . S
C2191 H2178 0.961 . S
C2191 H2179 0.959 . S
C2191 C2189 1.561 . S
C2192 C2189 1.526 . S
C2192 C2193 1.396 1_545 S
C2192 C2197 1.390 . S
C2193 C2187 1.465 . S
C2193 C2192 1.396 1_565 S
C2193 C2194 1.399 . S
C2194 H2180 0.929 . S
C2194 C2193 1.399 . S
C2194 C2195 1.385 . S
C2195 H2181 0.931 . S
C2195 C2194 1.385 . S
C2195 C2196 1.389 . S
C2196 C2195 1.389 . S
C2196 C2197 1.387 1_565 S
C2197 H2182 0.930 . S
C2197 C2192 1.390 . S
C2197 C2196 1.387 1_545 S
H2198 C2210 0.930 . S
H2199 C2212 0.930 . S
H2200 C2213 0.930 . S
H2201 C2217 0.959 . S
H2202 C2217 0.959 . S
H2203 C2217 0.961 . S
H2204 C2218 0.960 . S
H2205 C2218 0.961 . S
H2206 C2218 0.959 . S
H2207 C2221 0.929 . S
H2208 C2222 0.931 . S
H2209 C2224 0.930 . S
C2210 H2198 0.930 . S
C2210 C2211 1.399 1_545 S
C2210 C2215 1.399 . S
C2211 C2210 1.399 1_565 S
C2211 C2212 1.376 . S
C2212 H2199 0.930 . S
C2212 C2211 1.376 . S
C2212 C2213 1.388 . S
C2213 H2200 0.930 . S
C2213 C2212 1.388 . S
C2213 C2214 1.390 . S
C2214 C2213 1.390 . S
C2214 C2215 1.394 1_565 S
C2214 C2220 1.465 . S
C2215 C2210 1.399 . S
C2215 C2214 1.394 1_545 S
C2215 C2216 1.516 . S
C2216 C2215 1.516 . S
C2216 C2217 1.502 . S
C2216 C2218 1.561 . S
C2216 C2219 1.526 . S
C2217 H2201 0.959 . S
C2217 H2202 0.959 . S
C2217 H2203 0.961 . S
C2217 C2216 1.502 . S
C2218 H2204 0.960 . S
C2218 H2205 0.961 . S
C2218 H2206 0.959 . S
C2218 C2216 1.561 . S
C2219 C2216 1.526 . S
C2219 C2220 1.396 1_545 S
C2219 C2224 1.390 . S
C2220 C2214 1.465 . S
C2220 C2219 1.396 1_565 S
C2220 C2221 1.399 . S
C2221 H2207 0.929 . S
C2221 C2220 1.399 . S
C2221 C2222 1.385 . S
C2222 H2208 0.931 . S
C2222 C2221 1.385 . S
C2222 C2223 1.389 . S
C2223 C2222 1.389 . S
C2223 C2224 1.387 1_565 S
C2224 H2209 0.930 . S
C2224 C2219 1.390 . S
C2224 C2223 1.387 1_545 S
H2225 C2237 0.930 . S
H2226 C2239 0.930 . S
H2227 C2240 0.930 . S
H2228 C2244 0.959 . S
H2229 C2244 0.959 . S
H2230 C2244 0.961 . S
H2231 C2245 0.960 . S
H2232 C2245 0.961 . S
H2233 C2245 0.959 . S
H2234 C2248 0.929 . S
H2235 C2249 0.931 . S
H2236 C2251 0.930 . S
C2237 H2225 0.930 . S
C2237 C2238 1.399 . S
C2237 C2242 1.399 . S
C2238 C2237 1.399 . S
C2238 C2239 1.376 . S
C2239 H2226 0.930 . S
C2239 C2238 1.376 . S
C2239 C2240 1.388 . S
C2240 H2227 0.930 . S
C2240 C2239 1.388 . S
C2240 C2241 1.390 . S
C2241 C2240 1.390 . S
C2241 C2242 1.394 . S
C2241 C2247 1.465 . S
C2242 C2237 1.399 . S
C2242 C2241 1.394 . S
C2242 C2243 1.516 . S
C2243 C2242 1.516 . S
C2243 C2244 1.502 . S
C2243 C2245 1.561 . S
C2243 C2246 1.526 . S
C2244 H2228 0.959 . S
C2244 H2229 0.959 . S
C2244 H2230 0.961 . S
C2244 C2243 1.502 . S
C2245 H2231 0.960 . S
C2245 H2232 0.961 . S
C2245 H2233 0.959 . S
C2245 C2243 1.561 . S
C2246 C2243 1.526 . S
C2246 C2247 1.396 . S
C2246 C2251 1.390 . S
C2247 C2241 1.465 . S
C2247 C2246 1.396 . S
C2247 C2248 1.399 . S
C2248 H2234 0.929 . S
C2248 C2247 1.399 . S
C2248 C2249 1.385 . S
C2249 H2235 0.931 . S
C2249 C2248 1.385 . S
C2249 C2250 1.389 . S
C2250 C2249 1.389 . S
C2250 C2251 1.387 . S
C2251 H2236 0.930 . S
C2251 C2246 1.390 . S
C2251 C2250 1.387 . S
H2252 C2264 0.930 . S
H2253 C2266 0.930 . S
H2254 C2267 0.930 . S
H2255 C2271 0.959 . S
H2256 C2271 0.959 . S
H2257 C2271 0.961 . S
H2258 C2272 0.960 . S
H2259 C2272 0.961 . S
H2260 C2272 0.959 . S
H2261 C2275 0.929 . S
H2262 C2276 0.931 . S
H2263 C2278 0.930 . S
C2264 H2252 0.930 . S
C2264 C2265 1.399 . S
C2264 C2269 1.399 . S
C2265 C2264 1.399 . S
C2265 C2266 1.376 . S
C2266 H2253 0.930 . S
C2266 C2265 1.376 . S
C2266 C2267 1.388 . S
C2267 H2254 0.930 . S
C2267 C2266 1.388 . S
C2267 C2268 1.390 . S
C2268 C2267 1.390 . S
C2268 C2269 1.394 . S
C2268 C2274 1.465 . S
C2269 C2264 1.399 . S
C2269 C2268 1.394 . S
C2269 C2270 1.516 . S
C2270 C2269 1.516 . S
C2270 C2271 1.502 . S
C2270 C2272 1.561 . S
C2270 C2273 1.526 . S
C2271 H2255 0.959 . S
C2271 H2256 0.959 . S
C2271 H2257 0.961 . S
C2271 C2270 1.502 . S
C2272 H2258 0.960 . S
C2272 H2259 0.961 . S
C2272 H2260 0.959 . S
C2272 C2270 1.561 . S
C2273 C2270 1.526 . S
C2273 C2274 1.396 . S
C2273 C2278 1.390 . S
C2274 C2268 1.465 . S
C2274 C2273 1.396 . S
C2274 C2275 1.399 . S
C2275 H2261 0.929 . S
C2275 C2274 1.399 . S
C2275 C2276 1.385 . S
C2276 H2262 0.931 . S
C2276 C2275 1.385 . S
C2276 C2277 1.389 . S
C2277 C2276 1.389 . S
C2277 C2278 1.387 . S
C2278 H2263 0.930 . S
C2278 C2273 1.390 . S
C2278 C2277 1.387 . S
H2279 C2291 0.930 . S
H2280 C2293 0.930 . S
H2281 C2294 0.930 . S
H2282 C2298 0.959 1_545 S
H2283 C2298 0.959 . S
H2284 C2298 0.961 . S
H2285 C2299 0.960 . S
H2286 C2299 0.961 . S
H2287 C2299 0.959 . S
H2288 C2302 0.929 . S
H2289 C2303 0.931 . S
H2290 C2305 0.930 . S
C2291 H2279 0.930 . S
C2291 C2292 1.399 1_565 S
C2291 C2296 1.399 . S
C2292 C2291 1.399 1_545 S
C2292 C2293 1.376 . S
C2293 H2280 0.930 . S
C2293 C2292 1.376 . S
C2293 C2294 1.388 . S
C2294 H2281 0.930 . S
C2294 C2293 1.388 . S
C2294 C2295 1.390 . S
C2295 C2294 1.390 . S
C2295 C2296 1.394 1_545 S
C2295 C2301 1.465 . S
C2296 C2291 1.399 . S
C2296 C2295 1.394 1_565 S
C2296 C2297 1.516 . S
C2297 C2296 1.516 . S
C2297 C2298 1.502 . S
C2297 C2299 1.561 . S
C2297 C2300 1.526 . S
C2298 H2282 0.959 1_565 S
C2298 H2283 0.959 . S
C2298 H2284 0.961 . S
C2298 C2297 1.502 . S
C2299 H2285 0.960 . S
C2299 H2286 0.961 . S
C2299 H2287 0.959 . S
C2299 C2297 1.561 . S
C2300 C2297 1.526 . S
C2300 C2301 1.396 1_565 S
C2300 C2305 1.390 . S
C2301 C2295 1.465 . S
C2301 C2300 1.396 1_545 S
C2301 C2302 1.399 . S
C2302 H2288 0.929 . S
C2302 C2301 1.399 . S
C2302 C2303 1.385 . S
C2303 H2289 0.931 . S
C2303 C2302 1.385 . S
C2303 C2304 1.389 . S
C2304 C2303 1.389 . S
C2304 C2305 1.387 1_545 S
C2305 H2290 0.930 . S
C2305 C2300 1.390 . S
C2305 C2304 1.387 1_565 S
H2306 C2318 0.930 . S
H2307 C2320 0.930 . S
H2308 C2321 0.930 . S
H2309 C2325 0.959 . S
H2310 C2325 0.959 . S
H2311 C2325 0.961 . S
H2312 C2326 0.960 . S
H2313 C2326 0.961 . S
H2314 C2326 0.959 . S
H2315 C2329 0.929 . S
H2316 C2330 0.931 . S
H2317 C2332 0.930 . S
C2318 H2306 0.930 . S
C2318 C2319 1.399 . S
C2318 C2323 1.399 . S
C2319 C2318 1.399 . S
C2319 C2320 1.376 1_545 S
C2320 H2307 0.930 . S
C2320 C2319 1.376 1_565 S
C2320 C2321 1.388 . S
C2321 H2308 0.930 . S
C2321 C2320 1.388 . S
C2321 C2322 1.390 . S
C2322 C2321 1.390 . S
C2322 C2323 1.394 1_565 S
C2322 C2328 1.465 . S
C2323 C2318 1.399 . S
C2323 C2322 1.394 1_545 S
C2323 C2324 1.516 . S
C2324 C2323 1.516 . S
C2324 C2325 1.502 . S
C2324 C2326 1.561 . S
C2324 C2327 1.526 . S
C2325 H2309 0.959 . S
C2325 H2310 0.959 . S
C2325 H2311 0.961 . S
C2325 C2324 1.502 . S
C2326 H2312 0.960 . S
C2326 H2313 0.961 . S
C2326 H2314 0.959 . S
C2326 C2324 1.561 . S
C2327 C2324 1.526 . S
C2327 C2328 1.396 1_545 S
C2327 C2332 1.390 . S
C2328 C2322 1.465 . S
C2328 C2327 1.396 1_565 S
C2328 C2329 1.399 . S
C2329 H2315 0.929 . S
C2329 C2328 1.399 . S
C2329 C2330 1.385 . S
C2330 H2316 0.931 . S
C2330 C2329 1.385 . S
C2330 C2331 1.389 . S
C2331 C2330 1.389 . S
C2331 C2332 1.387 1_565 S
C2332 H2317 0.930 . S
C2332 C2327 1.390 . S
C2332 C2331 1.387 1_545 S
H2333 C2345 0.930 . S
H2334 C2347 0.930 . S
H2335 C2348 0.930 . S
H2336 C2352 0.959 . S
H2337 C2352 0.959 . S
H2338 C2352 0.961 . S
H2339 C2353 0.960 . S
H2340 C2353 0.961 . S
H2341 C2353 0.959 . S
H2342 C2356 0.929 . S
H2343 C2357 0.931 . S
H2344 C2359 0.930 . S
C2345 H2333 0.930 . S
C2345 C2346 1.399 . S
C2345 C2350 1.399 . S
C2346 C2345 1.399 . S
C2346 C2347 1.376 . S
C2347 H2334 0.930 . S
C2347 C2346 1.376 . S
C2347 C2348 1.388 . S
C2348 H2335 0.930 . S
C2348 C2347 1.388 . S
C2348 C2349 1.390 . S
C2349 C2348 1.390 . S
C2349 C2350 1.394 . S
C2349 C2355 1.465 . S
C2350 C2345 1.399 . S
C2350 C2349 1.394 . S
C2350 C2351 1.516 . S
C2351 C2350 1.516 . S
C2351 C2352 1.502 . S
C2351 C2353 1.561 . S
C2351 C2354 1.526 . S
C2352 H2336 0.959 . S
C2352 H2337 0.959 . S
C2352 H2338 0.961 . S
C2352 C2351 1.502 . S
C2353 H2339 0.960 . S
C2353 H2340 0.961 . S
C2353 H2341 0.959 . S
C2353 C2351 1.561 . S
C2354 C2351 1.526 . S
C2354 C2355 1.396 . S
C2354 C2359 1.390 . S
C2355 C2349 1.465 . S
C2355 C2354 1.396 . S
C2355 C2356 1.399 . S
C2356 H2342 0.929 . S
C2356 C2355 1.399 . S
C2356 C2357 1.385 . S
C2357 H2343 0.931 . S
C2357 C2356 1.385 . S
C2357 C2358 1.389 . S
C2358 C2357 1.389 . S
C2358 C2359 1.387 . S
C2359 H2344 0.930 . S
C2359 C2354 1.390 . S
C2359 C2358 1.387 . S
H2360 C2372 0.930 . S
H2361 C2374 0.930 . S
H2362 C2375 0.930 . S
H2363 C2379 0.959 . S
H2364 C2379 0.959 . S
H2365 C2379 0.961 . S
H2366 C2380 0.960 . S
H2367 C2380 0.961 . S
H2368 C2380 0.959 . S
H2369 C2383 0.929 . S
H2370 C2384 0.931 . S
H2371 C2386 0.930 . S
C2372 H2360 0.930 . S
C2372 C2373 1.399 . S
C2372 C2377 1.399 . S
C2373 C2372 1.399 . S
C2373 C2374 1.376 . S
C2374 H2361 0.930 . S
C2374 C2373 1.376 . S
C2374 C2375 1.388 . S
C2375 H2362 0.930 . S
C2375 C2374 1.388 . S
C2375 C2376 1.390 . S
C2376 C2375 1.390 . S
C2376 C2377 1.394 . S
C2376 C2382 1.465 . S
C2377 C2372 1.399 . S
C2377 C2376 1.394 . S
C2377 C2378 1.516 . S
C2378 C2377 1.516 . S
C2378 C2379 1.502 . S
C2378 C2380 1.561 . S
C2378 C2381 1.526 . S
C2379 H2363 0.959 . S
C2379 H2364 0.959 . S
C2379 H2365 0.961 . S
C2379 C2378 1.502 . S
C2380 H2366 0.960 . S
C2380 H2367 0.961 . S
C2380 H2368 0.959 . S
C2380 C2378 1.561 . S
C2381 C2378 1.526 . S
C2381 C2382 1.396 . S
C2381 C2386 1.390 . S
C2382 C2376 1.465 . S
C2382 C2381 1.396 . S
C2382 C2383 1.399 . S
C2383 H2369 0.929 . S
C2383 C2382 1.399 . S
C2383 C2384 1.385 . S
C2384 H2370 0.931 . S
C2384 C2383 1.385 . S
C2384 C2385 1.389 . S
C2385 C2384 1.389 . S
C2385 C2386 1.387 . S
C2386 H2371 0.930 . S
C2386 C2381 1.390 . S
C2386 C2385 1.387 . S
H2387 C2399 0.930 . S
H2388 C2401 0.930 . S
H2389 C2402 0.930 . S
H2390 C2406 0.959 . S
H2391 C2406 0.959 . S
H2392 C2406 0.961 . S
H2393 C2407 0.960 . S
H2394 C2407 0.961 . S
H2395 C2407 0.959 . S
H2396 C2410 0.929 . S
H2397 C2411 0.931 1_556 S
H2398 C2413 0.930 . S
C2399 H2387 0.930 . S
C2399 C2400 1.399 . S
C2399 C2404 1.399 . S
C2400 C2399 1.399 . S
C2400 C2401 1.376 . S
C2401 H2388 0.930 . S
C2401 C2400 1.376 . S
C2401 C2402 1.388 . S
C2402 H2389 0.930 . S
C2402 C2401 1.388 . S
C2402 C2403 1.390 . S
C2403 C2402 1.390 . S
C2403 C2404 1.394 . S
C2403 C2409 1.465 . S
C2404 C2399 1.399 . S
C2404 C2403 1.394 . S
C2404 C2405 1.516 . S
C2405 C2404 1.516 . S
C2405 C2406 1.502 . S
C2405 C2407 1.561 . S
C2405 C2408 1.526 . S
C2406 H2390 0.959 . S
C2406 H2391 0.959 . S
C2406 H2392 0.961 . S
C2406 C2405 1.502 . S
C2407 H2393 0.960 . S
C2407 H2394 0.961 . S
C2407 H2395 0.959 . S
C2407 C2405 1.561 . S
C2408 C2405 1.526 . S
C2408 C2409 1.396 . S
C2408 C2413 1.390 . S
C2409 C2403 1.465 . S
C2409 C2408 1.396 . S
C2409 C2410 1.399 . S
C2410 H2396 0.929 . S
C2410 C2409 1.399 . S
C2410 C2411 1.385 . S
C2411 H2397 0.931 1_554 S
C2411 C2410 1.385 . S
C2411 C2412 1.389 . S
C2412 C2411 1.389 . S
C2412 C2413 1.387 . S
C2413 H2398 0.930 . S
C2413 C2408 1.390 . S
C2413 C2412 1.387 . S
H2414 C2426 0.930 . S
H2415 C2428 0.930 . S
H2416 C2429 0.930 . S
H2417 C2433 0.959 . S
H2418 C2433 0.959 . S
H2419 C2433 0.961 . S
H2420 C2434 0.960 1_556 S
H2421 C2434 0.961 . S
H2422 C2434 0.959 . S
H2423 C2437 0.929 . S
H2424 C2438 0.931 . S
H2425 C2440 0.930 . S
C2426 H2414 0.930 . S
C2426 C2427 1.399 . S
C2426 C2431 1.399 . S
C2427 C2426 1.399 . S
C2427 C2428 1.376 . S
C2428 H2415 0.930 . S
C2428 C2427 1.376 . S
C2428 C2429 1.388 . S
C2429 H2416 0.930 . S
C2429 C2428 1.388 . S
C2429 C2430 1.390 . S
C2430 C2429 1.390 . S
C2430 C2431 1.394 . S
C2430 C2436 1.465 1_556 S
C2431 C2426 1.399 . S
C2431 C2430 1.394 . S
C2431 C2432 1.516 1_556 S
C2432 C2431 1.516 1_554 S
C2432 C2433 1.502 . S
C2432 C2434 1.561 . S
C2432 C2435 1.526 . S
C2433 H2417 0.959 . S
C2433 H2418 0.959 . S
C2433 H2419 0.961 . S
C2433 C2432 1.502 . S
C2434 H2420 0.960 1_554 S
C2434 H2421 0.961 . S
C2434 H2422 0.959 . S
C2434 C2432 1.561 . S
C2435 C2432 1.526 . S
C2435 C2436 1.396 . S
C2435 C2440 1.390 . S
C2436 C2430 1.465 1_554 S
C2436 C2435 1.396 . S
C2436 C2437 1.399 . S
C2437 H2423 0.929 . S
C2437 C2436 1.399 . S
C2437 C2438 1.385 . S
C2438 H2424 0.931 . S
C2438 C2437 1.385 . S
C2438 C2439 1.389 . S
C2439 C2438 1.389 . S
C2439 C2440 1.387 . S
C2440 H2425 0.930 . S
C2440 C2435 1.390 . S
C2440 C2439 1.387 . S
H2441 C2453 0.930 . S
H2442 C2455 0.930 . S
H2443 C2456 0.930 . S
H2444 C2460 0.959 . S
H2445 C2460 0.959 . S
H2446 C2460 0.961 1_556 S
H2447 C2461 0.960 1_556 S
H2448 C2461 0.961 . S
H2449 C2461 0.959 . S
H2450 C2464 0.929 . S
H2451 C2465 0.931 . S
H2452 C2467 0.930 . S
C2453 H2441 0.930 . S
C2453 C2454 1.399 . S
C2453 C2458 1.399 . S
C2454 C2453 1.399 . S
C2454 C2455 1.376 . S
C2455 H2442 0.930 . S
C2455 C2454 1.376 . S
C2455 C2456 1.388 . S
C2456 H2443 0.930 . S
C2456 C2455 1.388 . S
C2456 C2457 1.390 . S
C2457 C2456 1.390 . S
C2457 C2458 1.394 . S
C2457 C2463 1.465 1_556 S
C2458 C2453 1.399 . S
C2458 C2457 1.394 . S
C2458 C2459 1.516 1_556 S
C2459 C2458 1.516 1_554 S
C2459 C2460 1.502 . S
C2459 C2461 1.561 . S
C2459 C2462 1.526 . S
C2460 H2444 0.959 . S
C2460 H2445 0.959 . S
C2460 H2446 0.961 1_554 S
C2460 C2459 1.502 . S
C2461 H2447 0.960 1_554 S
C2461 H2448 0.961 . S
C2461 H2449 0.959 . S
C2461 C2459 1.561 . S
C2462 C2459 1.526 . S
C2462 C2463 1.396 . S
C2462 C2467 1.390 . S
C2463 C2457 1.465 1_554 S
C2463 C2462 1.396 . S
C2463 C2464 1.399 . S
C2464 H2450 0.929 . S
C2464 C2463 1.399 . S
C2464 C2465 1.385 . S
C2465 H2451 0.931 . S
C2465 C2464 1.385 . S
C2465 C2466 1.389 . S
C2466 C2465 1.389 . S
C2466 C2467 1.387 . S
C2467 H2452 0.930 . S
C2467 C2462 1.390 . S
C2467 C2466 1.387 . S
H2468 C2480 0.930 . S
H2469 C2482 0.930 . S
H2470 C2483 0.930 . S
H2471 C2487 0.959 . S
H2472 C2487 0.959 . S
H2473 C2487 0.961 . S
H2474 C2488 0.960 . S
H2475 C2488 0.961 . S
H2476 C2488 0.959 . S
H2477 C2491 0.929 . S
H2478 C2492 0.931 . S
H2479 C2494 0.930 . S
C2480 H2468 0.930 . S
C2480 C2481 1.399 . S
C2480 C2485 1.399 . S
C2481 C2480 1.399 . S
C2481 C2482 1.376 . S
C2482 H2469 0.930 . S
C2482 C2481 1.376 . S
C2482 C2483 1.388 . S
C2483 H2470 0.930 . S
C2483 C2482 1.388 . S
C2483 C2484 1.390 . S
C2484 C2483 1.390 . S
C2484 C2485 1.394 . S
C2484 C2490 1.465 . S
C2485 C2480 1.399 . S
C2485 C2484 1.394 . S
C2485 C2486 1.516 . S
C2486 C2485 1.516 . S
C2486 C2487 1.502 . S
C2486 C2488 1.561 . S
C2486 C2489 1.526 . S
C2487 H2471 0.959 . S
C2487 H2472 0.959 . S
C2487 H2473 0.961 . S
C2487 C2486 1.502 . S
C2488 H2474 0.960 . S
C2488 H2475 0.961 . S
C2488 H2476 0.959 . S
C2488 C2486 1.561 . S
C2489 C2486 1.526 . S
C2489 C2490 1.396 . S
C2489 C2494 1.390 . S
C2490 C2484 1.465 . S
C2490 C2489 1.396 . S
C2490 C2491 1.399 . S
C2491 H2477 0.929 . S
C2491 C2490 1.399 . S
C2491 C2492 1.385 . S
C2492 H2478 0.931 . S
C2492 C2491 1.385 . S
C2492 C2493 1.389 . S
C2493 C2492 1.389 . S
C2493 C2494 1.387 . S
C2494 H2479 0.930 . S
C2494 C2489 1.390 . S
C2494 C2493 1.387 . S
H2495 C2507 0.930 . S
H2496 C2509 0.930 . S
H2497 C2510 0.930 . S
H2498 C2514 0.959 . S
H2499 C2514 0.959 . S
H2500 C2514 0.961 . S
H2501 C2515 0.960 . S
H2502 C2515 0.961 . S
H2503 C2515 0.959 . S
H2504 C2518 0.929 . S
H2505 C2519 0.931 . S
H2506 C2521 0.930 . S
C2507 H2495 0.930 . S
C2507 C2508 1.399 . S
C2507 C2512 1.399 . S
C2508 C2507 1.399 . S
C2508 C2509 1.376 . S
C2509 H2496 0.930 . S
C2509 C2508 1.376 . S
C2509 C2510 1.388 . S
C2510 H2497 0.930 . S
C2510 C2509 1.388 . S
C2510 C2511 1.390 . S
C2511 C2510 1.390 . S
C2511 C2512 1.394 . S
C2511 C2517 1.465 . S
C2512 C2507 1.399 . S
C2512 C2511 1.394 . S
C2512 C2513 1.516 . S
C2513 C2512 1.516 . S
C2513 C2514 1.502 . S
C2513 C2515 1.561 . S
C2513 C2516 1.526 . S
C2514 H2498 0.959 . S
C2514 H2499 0.959 . S
C2514 H2500 0.961 . S
C2514 C2513 1.502 . S
C2515 H2501 0.960 . S
C2515 H2502 0.961 . S
C2515 H2503 0.959 . S
C2515 C2513 1.561 . S
C2516 C2513 1.526 . S
C2516 C2517 1.396 . S
C2516 C2521 1.390 . S
C2517 C2511 1.465 . S
C2517 C2516 1.396 . S
C2517 C2518 1.399 . S
C2518 H2504 0.929 . S
C2518 C2517 1.399 . S
C2518 C2519 1.385 . S
C2519 H2505 0.931 . S
C2519 C2518 1.385 . S
C2519 C2520 1.389 . S
C2520 C2519 1.389 . S
C2520 C2521 1.387 . S
C2521 H2506 0.930 . S
C2521 C2516 1.390 . S
C2521 C2520 1.387 . S
H2522 C2534 0.930 . S
H2523 C2536 0.930 . S
H2524 C2537 0.930 . S
H2525 C2541 0.959 . S
H2526 C2541 0.959 . S
H2527 C2541 0.961 1_554 S
H2528 C2542 0.960 1_554 S
H2529 C2542 0.961 . S
H2530 C2542 0.959 . S
H2531 C2545 0.929 . S
H2532 C2546 0.931 . S
H2533 C2548 0.930 . S
C2534 H2522 0.930 . S
C2534 C2535 1.399 . S
C2534 C2539 1.399 . S
C2535 C2534 1.399 . S
C2535 C2536 1.376 . S
C2536 H2523 0.930 . S
C2536 C2535 1.376 . S
C2536 C2537 1.388 . S
C2537 H2524 0.930 . S
C2537 C2536 1.388 . S
C2537 C2538 1.390 . S
C2538 C2537 1.390 . S
C2538 C2539 1.394 . S
C2538 C2544 1.465 1_554 S
C2539 C2534 1.399 . S
C2539 C2538 1.394 . S
C2539 C2540 1.516 1_554 S
C2540 C2539 1.516 1_556 S
C2540 C2541 1.502 . S
C2540 C2542 1.561 . S
C2540 C2543 1.526 . S
C2541 H2525 0.959 . S
C2541 H2526 0.959 . S
C2541 H2527 0.961 1_556 S
C2541 C2540 1.502 . S
C2542 H2528 0.960 1_556 S
C2542 H2529 0.961 . S
C2542 H2530 0.959 . S
C2542 C2540 1.561 . S
C2543 C2540 1.526 . S
C2543 C2544 1.396 . S
C2543 C2548 1.390 . S
C2544 C2538 1.465 1_556 S
C2544 C2543 1.396 . S
C2544 C2545 1.399 . S
C2545 H2531 0.929 . S
C2545 C2544 1.399 . S
C2545 C2546 1.385 . S
C2546 H2532 0.931 . S
C2546 C2545 1.385 . S
C2546 C2547 1.389 . S
C2547 C2546 1.389 . S
C2547 C2548 1.387 . S
C2548 H2533 0.930 . S
C2548 C2543 1.390 . S
C2548 C2547 1.387 . S
H2549 C2561 0.930 . S
H2550 C2563 0.930 . S
H2551 C2564 0.930 . S
H2552 C2568 0.959 . S
H2553 C2568 0.959 1_554 S
H2554 C2568 0.961 . S
H2555 C2569 0.960 . S
H2556 C2569 0.961 1_554 S
H2557 C2569 0.959 . S
H2558 C2572 0.929 . S
H2559 C2573 0.931 . S
H2560 C2575 0.930 . S
C2561 H2549 0.930 . S
C2561 C2562 1.399 . S
C2561 C2566 1.399 . S
C2562 C2561 1.399 . S
C2562 C2563 1.376 . S
C2563 H2550 0.930 . S
C2563 C2562 1.376 . S
C2563 C2564 1.388 . S
C2564 H2551 0.930 . S
C2564 C2563 1.388 . S
C2564 C2565 1.390 . S
C2565 C2564 1.390 . S
C2565 C2566 1.394 . S
C2565 C2571 1.465 1_556 S
C2566 C2561 1.399 . S
C2566 C2565 1.394 . S
C2566 C2567 1.516 . S
C2567 C2566 1.516 . S
C2567 C2568 1.502 . S
C2567 C2569 1.561 . S
C2567 C2570 1.526 1_556 S
C2568 H2552 0.959 . S
C2568 H2553 0.959 1_556 S
C2568 H2554 0.961 . S
C2568 C2567 1.502 . S
C2569 H2555 0.960 . S
C2569 H2556 0.961 1_556 S
C2569 H2557 0.959 . S
C2569 C2567 1.561 . S
C2570 C2567 1.526 1_554 S
C2570 C2571 1.396 . S
C2570 C2575 1.390 . S
C2571 C2565 1.465 1_554 S
C2571 C2570 1.396 . S
C2571 C2572 1.399 . S
C2572 H2558 0.929 . S
C2572 C2571 1.399 . S
C2572 C2573 1.385 . S
C2573 H2559 0.931 . S
C2573 C2572 1.385 . S
C2573 C2574 1.389 . S
C2574 C2573 1.389 . S
C2574 C2575 1.387 . S
C2575 H2560 0.930 . S
C2575 C2570 1.390 . S
C2575 C2574 1.387 . S
H2576 C2588 0.930 . S
H2577 C2590 0.930 . S
H2578 C2591 0.930 . S
H2579 C2595 0.959 . S
H2580 C2595 0.959 . S
H2581 C2595 0.961 . S
H2582 C2596 0.960 . S
H2583 C2596 0.961 . S
H2584 C2596 0.959 . S
H2585 C2599 0.929 . S
H2586 C2600 0.931 . S
H2587 C2602 0.930 . S
C2588 H2576 0.930 . S
C2588 C2589 1.399 . S
C2588 C2593 1.399 . S
C2589 C2588 1.399 . S
C2589 C2590 1.376 . S
C2590 H2577 0.930 . S
C2590 C2589 1.376 . S
C2590 C2591 1.388 . S
C2591 H2578 0.930 . S
C2591 C2590 1.388 . S
C2591 C2592 1.390 . S
C2592 C2591 1.390 . S
C2592 C2593 1.394 . S
C2592 C2598 1.465 . S
C2593 C2588 1.399 . S
C2593 C2592 1.394 . S
C2593 C2594 1.516 . S
C2594 C2593 1.516 . S
C2594 C2595 1.502 . S
C2594 C2596 1.561 . S
C2594 C2597 1.526 . S
C2595 H2579 0.959 . S
C2595 H2580 0.959 . S
C2595 H2581 0.961 . S
C2595 C2594 1.502 . S
C2596 H2582 0.960 . S
C2596 H2583 0.961 . S
C2596 H2584 0.959 . S
C2596 C2594 1.561 . S
C2597 C2594 1.526 . S
C2597 C2598 1.396 . S
C2597 C2602 1.390 . S
C2598 C2592 1.465 . S
C2598 C2597 1.396 . S
C2598 C2599 1.399 . S
C2599 H2585 0.929 . S
C2599 C2598 1.399 . S
C2599 C2600 1.385 . S
C2600 H2586 0.931 . S
C2600 C2599 1.385 . S
C2600 C2601 1.389 . S
C2601 C2600 1.389 . S
C2601 C2602 1.387 . S
C2602 H2587 0.930 . S
C2602 C2597 1.390 . S
C2602 C2601 1.387 . S
H2603 C2615 0.930 . S
H2604 C2617 0.930 . S
H2605 C2618 0.930 . S
H2606 C2622 0.959 . S
H2607 C2622 0.959 . S
H2608 C2622 0.961 . S
H2609 C2623 0.960 . S
H2610 C2623 0.961 . S
H2611 C2623 0.959 . S
H2612 C2626 0.929 . S
H2613 C2627 0.931 1_556 S
H2614 C2629 0.930 . S
C2615 H2603 0.930 . S
C2615 C2616 1.399 1_545 S
C2615 C2620 1.399 . S
C2616 C2615 1.399 1_565 S
C2616 C2617 1.376 . S
C2617 H2604 0.930 . S
C2617 C2616 1.376 . S
C2617 C2618 1.388 . S
C2618 H2605 0.930 . S
C2618 C2617 1.388 . S
C2618 C2619 1.390 . S
C2619 C2618 1.390 . S
C2619 C2620 1.394 1_565 S
C2619 C2625 1.465 . S
C2620 C2615 1.399 . S
C2620 C2619 1.394 1_545 S
C2620 C2621 1.516 . S
C2621 C2620 1.516 . S
C2621 C2622 1.502 . S
C2621 C2623 1.561 . S
C2621 C2624 1.526 . S
C2622 H2606 0.959 . S
C2622 H2607 0.959 . S
C2622 H2608 0.961 . S
C2622 C2621 1.502 . S
C2623 H2609 0.960 . S
C2623 H2610 0.961 . S
C2623 H2611 0.959 . S
C2623 C2621 1.561 . S
C2624 C2621 1.526 . S
C2624 C2625 1.396 1_545 S
C2624 C2629 1.390 . S
C2625 C2619 1.465 . S
C2625 C2624 1.396 1_565 S
C2625 C2626 1.399 . S
C2626 H2612 0.929 . S
C2626 C2625 1.399 . S
C2626 C2627 1.385 . S
C2627 H2613 0.931 1_554 S
C2627 C2626 1.385 . S
C2627 C2628 1.389 . S
C2628 C2627 1.389 . S
C2628 C2629 1.387 1_565 S
C2629 H2614 0.930 . S
C2629 C2624 1.390 . S
C2629 C2628 1.387 1_545 S
H2630 C2642 0.930 . S
H2631 C2644 0.930 . S
H2632 C2645 0.930 . S
H2633 C2649 0.959 . S
H2634 C2649 0.959 . S
H2635 C2649 0.961 . S
H2636 C2650 0.960 1_556 S
H2637 C2650 0.961 . S
H2638 C2650 0.959 . S
H2639 C2653 0.929 . S
H2640 C2654 0.931 . S
H2641 C2656 0.930 . S
C2642 H2630 0.930 . S
C2642 C2643 1.399 . S
C2642 C2647 1.399 . S
C2643 C2642 1.399 . S
C2643 C2644 1.376 1_565 S
C2644 H2631 0.930 . S
C2644 C2643 1.376 1_545 S
C2644 C2645 1.388 . S
C2645 H2632 0.930 . S
C2645 C2644 1.388 . S
C2645 C2646 1.390 . S
C2646 C2645 1.390 . S
C2646 C2647 1.394 1_545 S
C2646 C2652 1.465 1_556 S
C2647 C2642 1.399 . S
C2647 C2646 1.394 1_565 S
C2647 C2648 1.516 1_556 S
C2648 C2647 1.516 1_554 S
C2648 C2649 1.502 . S
C2648 C2650 1.561 . S
C2648 C2651 1.526 . S
C2649 H2633 0.959 . S
C2649 H2634 0.959 . S
C2649 H2635 0.961 . S
C2649 C2648 1.502 . S
C2650 H2636 0.960 1_554 S
C2650 H2637 0.961 . S
C2650 H2638 0.959 . S
C2650 C2648 1.561 . S
C2651 C2648 1.526 . S
C2651 C2652 1.396 1_565 S
C2651 C2656 1.390 . S
C2652 C2646 1.465 1_554 S
C2652 C2651 1.396 1_545 S
C2652 C2653 1.399 . S
C2653 H2639 0.929 . S
C2653 C2652 1.399 . S
C2653 C2654 1.385 . S
C2654 H2640 0.931 . S
C2654 C2653 1.385 . S
C2654 C2655 1.389 . S
C2655 C2654 1.389 . S
C2655 C2656 1.387 1_545 S
C2656 H2641 0.930 . S
C2656 C2651 1.390 . S
C2656 C2655 1.387 1_565 S
H2657 C2669 0.930 . S
H2658 C2671 0.930 . S
H2659 C2672 0.930 . S
H2660 C2676 0.959 . S
H2661 C2676 0.959 . S
H2662 C2676 0.961 1_556 S
H2663 C2677 0.960 1_556 S
H2664 C2677 0.961 . S
H2665 C2677 0.959 . S
H2666 C2680 0.929 . S
H2667 C2681 0.931 . S
H2668 C2683 0.930 . S
C2669 H2657 0.930 . S
C2669 C2670 1.399 . S
C2669 C2674 1.399 . S
C2670 C2669 1.399 . S
C2670 C2671 1.376 . S
C2671 H2658 0.930 . S
C2671 C2670 1.376 . S
C2671 C2672 1.388 . S
C2672 H2659 0.930 . S
C2672 C2671 1.388 . S
C2672 C2673 1.390 . S
C2673 C2672 1.390 . S
C2673 C2674 1.394 . S
C2673 C2679 1.465 1_556 S
C2674 C2669 1.399 . S
C2674 C2673 1.394 . S
C2674 C2675 1.516 1_556 S
C2675 C2674 1.516 1_554 S
C2675 C2676 1.502 . S
C2675 C2677 1.561 . S
C2675 C2678 1.526 . S
C2676 H2660 0.959 . S
C2676 H2661 0.959 . S
C2676 H2662 0.961 1_554 S
C2676 C2675 1.502 . S
C2677 H2663 0.960 1_554 S
C2677 H2664 0.961 . S
C2677 H2665 0.959 . S
C2677 C2675 1.561 . S
C2678 C2675 1.526 . S
C2678 C2679 1.396 . S
C2678 C2683 1.390 . S
C2679 C2673 1.465 1_554 S
C2679 C2678 1.396 . S
C2679 C2680 1.399 . S
C2680 H2666 0.929 . S
C2680 C2679 1.399 . S
C2680 C2681 1.385 . S
C2681 H2667 0.931 . S
C2681 C2680 1.385 . S
C2681 C2682 1.389 . S
C2682 C2681 1.389 . S
C2682 C2683 1.387 . S
C2683 H2668 0.930 . S
C2683 C2678 1.390 . S
C2683 C2682 1.387 . S
H2684 C2696 0.930 . S
H2685 C2698 0.930 1_554 S
H2686 C2699 0.930 . S
H2687 C2703 0.959 . S
H2688 C2703 0.959 . S
H2689 C2703 0.961 . S
H2690 C2704 0.960 . S
H2691 C2704 0.961 . S
H2692 C2704 0.959 . S
H2693 C2707 0.929 . S
H2694 C2708 0.931 . S
H2695 C2710 0.930 . S
C2696 H2684 0.930 . S
C2696 C2697 1.399 . S
C2696 C2701 1.399 . S
C2697 C2696 1.399 . S
C2697 C2698 1.376 . S
C2698 H2685 0.930 1_556 S
C2698 C2697 1.376 . S
C2698 C2699 1.388 . S
C2699 H2686 0.930 . S
C2699 C2698 1.388 . S
C2699 C2700 1.390 . S
C2700 C2699 1.390 . S
C2700 C2701 1.394 . S
C2700 C2706 1.465 . S
C2701 C2696 1.399 . S
C2701 C2700 1.394 . S
C2701 C2702 1.516 . S
C2702 C2701 1.516 . S
C2702 C2703 1.502 . S
C2702 C2704 1.561 . S
C2702 C2705 1.526 . S
C2703 H2687 0.959 . S
C2703 H2688 0.959 . S
C2703 H2689 0.961 . S
C2703 C2702 1.502 . S
C2704 H2690 0.960 . S
C2704 H2691 0.961 . S
C2704 H2692 0.959 . S
C2704 C2702 1.561 . S
C2705 C2702 1.526 . S
C2705 C2706 1.396 . S
C2705 C2710 1.390 . S
C2706 C2700 1.465 . S
C2706 C2705 1.396 . S
C2706 C2707 1.399 . S
C2707 H2693 0.929 . S
C2707 C2706 1.399 . S
C2707 C2708 1.385 . S
C2708 H2694 0.931 . S
C2708 C2707 1.385 . S
C2708 C2709 1.389 . S
C2709 C2708 1.389 . S
C2709 C2710 1.387 . S
C2710 H2695 0.930 . S
C2710 C2705 1.390 . S
C2710 C2709 1.387 . S
H2711 C2723 0.930 . S
H2712 C2725 0.930 . S
H2713 C2726 0.930 . S
H2714 C2730 0.959 1_545 S
H2715 C2730 0.959 . S
H2716 C2730 0.961 . S
H2717 C2731 0.960 . S
H2718 C2731 0.961 . S
H2719 C2731 0.959 . S
H2720 C2734 0.929 . S
H2721 C2735 0.931 . S
H2722 C2737 0.930 . S
C2723 H2711 0.930 . S
C2723 C2724 1.399 1_565 S
C2723 C2728 1.399 . S
C2724 C2723 1.399 1_545 S
C2724 C2725 1.376 . S
C2725 H2712 0.930 . S
C2725 C2724 1.376 . S
C2725 C2726 1.388 . S
C2726 H2713 0.930 . S
C2726 C2725 1.388 . S
C2726 C2727 1.390 . S
C2727 C2726 1.390 . S
C2727 C2728 1.394 1_545 S
C2727 C2733 1.465 . S
C2728 C2723 1.399 . S
C2728 C2727 1.394 1_565 S
C2728 C2729 1.516 . S
C2729 C2728 1.516 . S
C2729 C2730 1.502 . S
C2729 C2731 1.561 . S
C2729 C2732 1.526 . S
C2730 H2714 0.959 1_565 S
C2730 H2715 0.959 . S
C2730 H2716 0.961 . S
C2730 C2729 1.502 . S
C2731 H2717 0.960 . S
C2731 H2718 0.961 . S
C2731 H2719 0.959 . S
C2731 C2729 1.561 . S
C2732 C2729 1.526 . S
C2732 C2733 1.396 1_565 S
C2732 C2737 1.390 . S
C2733 C2727 1.465 . S
C2733 C2732 1.396 1_545 S
C2733 C2734 1.399 . S
C2734 H2720 0.929 . S
C2734 C2733 1.399 . S
C2734 C2735 1.385 . S
C2735 H2721 0.931 . S
C2735 C2734 1.385 . S
C2735 C2736 1.389 . S
C2736 C2735 1.389 . S
C2736 C2737 1.387 1_545 S
C2737 H2722 0.930 . S
C2737 C2732 1.390 . S
C2737 C2736 1.387 1_565 S
H2738 C2750 0.930 . S
H2739 C2752 0.930 . S
H2740 C2753 0.930 1_565 S
H2741 C2757 0.959 . S
H2742 C2757 0.959 . S
H2743 C2757 0.961 . S
H2744 C2758 0.960 . S
H2745 C2758 0.961 . S
H2746 C2758 0.959 . S
H2747 C2761 0.932 . S
H2748 C2762 0.931 . S
H2749 C2764 0.930 . S
C2750 H2738 0.930 . S
C2750 C2751 1.404 . S
C2750 C2755 1.399 . S
C2751 C2750 1.404 . S
C2751 C2752 1.375 1_545 S
C2752 H2739 0.930 . S
C2752 C2751 1.375 1_565 S
C2752 C2753 1.389 1_565 S
C2753 H2740 0.930 1_545 S
C2753 C2752 1.389 1_545 S
C2753 C2754 1.389 . S
C2754 C2753 1.389 . S
C2754 C2755 1.394 . S
C2754 C2760 1.465 1_556 S
C2755 C2750 1.399 . S
C2755 C2754 1.394 . S
C2755 C2756 1.516 . S
C2756 C2755 1.516 . S
C2756 C2757 1.502 1_545 S
C2756 C2758 1.561 . S
C2756 C2759 1.526 1_556 S
C2757 H2741 0.959 . S
C2757 H2742 0.959 . S
C2757 H2743 0.961 . S
C2757 C2756 1.502 1_565 S
C2758 H2744 0.960 . S
C2758 H2745 0.961 . S
C2758 H2746 0.959 . S
C2758 C2756 1.561 . S
C2759 C2756 1.526 1_554 S
C2759 C2760 1.396 . S
C2759 C2764 1.390 . S
C2760 C2754 1.465 1_554 S
C2760 C2759 1.396 . S
C2760 C2761 1.399 . S
C2761 H2747 0.932 . S
C2761 C2760 1.399 . S
C2761 C2762 1.385 . S
C2762 H2748 0.931 . S
C2762 C2761 1.385 . S
C2762 C2763 1.389 . S
C2763 C2762 1.389 . S
C2763 C2764 1.387 . S
C2764 H2749 0.930 . S
C2764 C2759 1.390 . S
C2764 C2763 1.387 . S
H2765 C2777 0.930 . S
H2766 C2779 0.930 . S
H2767 C2780 0.930 . S
H2768 C2784 0.959 . S
H2769 C2784 0.959 . S
H2770 C2784 0.961 . S
H2771 C2785 0.960 . S
H2772 C2785 0.961 . S
H2773 C2785 0.959 . S
H2774 C2788 0.929 . S
H2775 C2789 0.931 . S
H2776 C2791 0.930 . S
C2777 H2765 0.930 . S
C2777 C2778 1.399 . S
C2777 C2782 1.399 . S
C2778 C2777 1.399 . S
C2778 C2779 1.376 . S
C2779 H2766 0.930 . S
C2779 C2778 1.376 . S
C2779 C2780 1.388 . S
C2780 H2767 0.930 . S
C2780 C2779 1.388 . S
C2780 C2781 1.390 . S
C2781 C2780 1.390 . S
C2781 C2782 1.394 . S
C2781 C2787 1.465 1_556 S
C2782 C2777 1.399 . S
C2782 C2781 1.394 . S
C2782 C2783 1.516 . S
C2783 C2782 1.516 . S
C2783 C2784 1.502 . S
C2783 C2785 1.561 . S
C2783 C2786 1.526 1_556 S
C2784 H2768 0.959 . S
C2784 H2769 0.959 . S
C2784 H2770 0.961 . S
C2784 C2783 1.502 . S
C2785 H2771 0.960 . S
C2785 H2772 0.961 . S
C2785 H2773 0.959 . S
C2785 C2783 1.561 . S
C2786 C2783 1.526 1_554 S
C2786 C2787 1.396 . S
C2786 C2791 1.390 . S
C2787 C2781 1.465 1_554 S
C2787 C2786 1.396 . S
C2787 C2788 1.399 . S
C2788 H2774 0.929 . S
C2788 C2787 1.399 . S
C2788 C2789 1.385 . S
C2789 H2775 0.931 . S
C2789 C2788 1.385 . S
C2789 C2790 1.389 . S
C2790 C2789 1.389 . S
C2790 C2791 1.387 . S
C2791 H2776 0.930 . S
C2791 C2786 1.390 . S
C2791 C2790 1.387 . S
H2792 C2804 0.930 . S
H2793 C2806 0.930 . S
H2794 C2807 0.930 . S
H2795 C2811 0.959 . S
H2796 C2811 0.959 . S
H2797 C2811 0.961 . S
H2798 C2812 0.960 . S
H2799 C2812 0.961 . S
H2800 C2812 0.959 . S
H2801 C2815 0.929 . S
H2802 C2816 0.931 . S
H2803 C2818 0.930 . S
C2804 H2792 0.930 . S
C2804 C2805 1.399 . S
C2804 C2809 1.399 . S
C2805 C2804 1.399 . S
C2805 C2806 1.376 . S
C2806 H2793 0.930 . S
C2806 C2805 1.376 . S
C2806 C2807 1.388 . S
C2807 H2794 0.930 . S
C2807 C2806 1.388 . S
C2807 C2808 1.390 . S
C2808 C2807 1.390 . S
C2808 C2809 1.394 . S
C2808 C2814 1.465 . S
C2809 C2804 1.399 . S
C2809 C2808 1.394 . S
C2809 C2810 1.516 . S
C2810 C2809 1.516 . S
C2810 C2811 1.502 . S
C2810 C2812 1.561 . S
C2810 C2813 1.526 . S
C2811 H2795 0.959 . S
C2811 H2796 0.959 . S
C2811 H2797 0.961 . S
C2811 C2810 1.502 . S
C2812 H2798 0.960 . S
C2812 H2799 0.961 . S
C2812 H2800 0.959 . S
C2812 C2810 1.561 . S
C2813 C2810 1.526 . S
C2813 C2814 1.396 . S
C2813 C2818 1.390 . S
C2814 C2808 1.465 . S
C2814 C2813 1.396 . S
C2814 C2815 1.399 . S
C2815 H2801 0.929 . S
C2815 C2814 1.399 . S
C2815 C2816 1.385 . S
C2816 H2802 0.931 . S
C2816 C2815 1.385 . S
C2816 C2817 1.389 . S
C2817 C2816 1.389 . S
C2817 C2818 1.387 . S
C2818 H2803 0.930 . S
C2818 C2813 1.390 . S
C2818 C2817 1.387 . S
H2819 C2831 0.930 . S
H2820 C2833 0.930 . S
H2821 C2834 0.930 . S
H2822 C2838 0.959 . S
H2823 C2838 0.959 . S
H2824 C2838 0.961 . S
H2825 C2839 0.960 . S
H2826 C2839 0.961 . S
H2827 C2839 0.959 . S
H2828 C2842 0.929 . S
H2829 C2843 0.931 . S
H2830 C2845 0.930 . S
C2831 H2819 0.930 . S
C2831 C2832 1.399 . S
C2831 C2836 1.399 . S
C2832 C2831 1.399 . S
C2832 C2833 1.376 . S
C2833 H2820 0.930 . S
C2833 C2832 1.376 . S
C2833 C2834 1.388 . S
C2834 H2821 0.930 . S
C2834 C2833 1.388 . S
C2834 C2835 1.390 . S
C2835 C2834 1.390 . S
C2835 C2836 1.394 . S
C2835 C2841 1.465 . S
C2836 C2831 1.399 . S
C2836 C2835 1.394 . S
C2836 C2837 1.516 . S
C2837 C2836 1.516 . S
C2837 C2838 1.502 . S
C2837 C2839 1.561 . S
C2837 C2840 1.526 . S
C2838 H2822 0.959 . S
C2838 H2823 0.959 . S
C2838 H2824 0.961 . S
C2838 C2837 1.502 . S
C2839 H2825 0.960 . S
C2839 H2826 0.961 . S
C2839 H2827 0.959 . S
C2839 C2837 1.561 . S
C2840 C2837 1.526 . S
C2840 C2841 1.396 . S
C2840 C2845 1.390 . S
C2841 C2835 1.465 . S
C2841 C2840 1.396 . S
C2841 C2842 1.399 . S
C2842 H2828 0.929 . S
C2842 C2841 1.399 . S
C2842 C2843 1.385 . S
C2843 H2829 0.931 . S
C2843 C2842 1.385 . S
C2843 C2844 1.389 . S
C2844 C2843 1.389 . S
C2844 C2845 1.387 . S
C2845 H2830 0.930 . S
C2845 C2840 1.390 . S
C2845 C2844 1.387 . S
H2846 C2858 0.930 . S
H2847 C2860 0.930 . S
H2848 C2861 0.930 . S
H2849 C2865 0.959 . S
H2850 C2865 0.959 . S
H2851 C2865 0.961 . S
H2852 C2866 0.960 . S
H2853 C2866 0.961 . S
H2854 C2866 0.959 . S
H2855 C2869 0.929 . S
H2856 C2870 0.931 . S
H2857 C2872 0.930 . S
C2858 H2846 0.930 . S
C2858 C2859 1.399 . S
C2858 C2863 1.399 . S
C2859 C2858 1.399 . S
C2859 C2860 1.376 . S
C2860 H2847 0.930 . S
C2860 C2859 1.376 . S
C2860 C2861 1.388 . S
C2861 H2848 0.930 . S
C2861 C2860 1.388 . S
C2861 C2862 1.390 . S
C2862 C2861 1.390 . S
C2862 C2863 1.394 . S
C2862 C2868 1.465 . S
C2863 C2858 1.399 . S
C2863 C2862 1.394 . S
C2863 C2864 1.516 . S
C2864 C2863 1.516 . S
C2864 C2865 1.502 . S
C2864 C2866 1.561 . S
C2864 C2867 1.526 . S
C2865 H2849 0.959 . S
C2865 H2850 0.959 . S
C2865 H2851 0.961 . S
C2865 C2864 1.502 . S
C2866 H2852 0.960 . S
C2866 H2853 0.961 . S
C2866 H2854 0.959 . S
C2866 C2864 1.561 . S
C2867 C2864 1.526 . S
C2867 C2868 1.396 . S
C2867 C2872 1.390 . S
C2868 C2862 1.465 . S
C2868 C2867 1.396 . S
C2868 C2869 1.399 . S
C2869 H2855 0.929 . S
C2869 C2868 1.399 . S
C2869 C2870 1.385 . S
C2870 H2856 0.931 . S
C2870 C2869 1.385 . S
C2870 C2871 1.389 . S
C2871 C2870 1.389 . S
C2871 C2872 1.387 . S
C2872 H2857 0.930 . S
C2872 C2867 1.390 . S
C2872 C2871 1.387 . S
H2873 C2885 0.930 . S
H2874 C2887 0.930 . S
H2875 C2888 0.930 . S
H2876 C2892 0.959 . S
H2877 C2892 0.959 . S
H2878 C2892 0.961 . S
H2879 C2893 0.960 . S
H2880 C2893 0.961 . S
H2881 C2893 0.959 . S
H2882 C2896 0.929 . S
H2883 C2897 0.931 . S
H2884 C2899 0.930 . S
C2885 H2873 0.930 . S
C2885 C2886 1.399 . S
C2885 C2890 1.399 . S
C2886 C2885 1.399 . S
C2886 C2887 1.376 . S
C2887 H2874 0.930 . S
C2887 C2886 1.376 . S
C2887 C2888 1.388 . S
C2888 H2875 0.930 . S
C2888 C2887 1.388 . S
C2888 C2889 1.390 . S
C2889 C2888 1.390 . S
C2889 C2890 1.394 . S
C2889 C2895 1.465 . S
C2890 C2885 1.399 . S
C2890 C2889 1.394 . S
C2890 C2891 1.516 . S
C2891 C2890 1.516 . S
C2891 C2892 1.502 . S
C2891 C2893 1.561 . S
C2891 C2894 1.526 . S
C2892 H2876 0.959 . S
C2892 H2877 0.959 . S
C2892 H2878 0.961 . S
C2892 C2891 1.502 . S
C2893 H2879 0.960 . S
C2893 H2880 0.961 . S
C2893 H2881 0.959 . S
C2893 C2891 1.561 . S
C2894 C2891 1.526 . S
C2894 C2895 1.396 . S
C2894 C2899 1.390 . S
C2895 C2889 1.465 . S
C2895 C2894 1.396 . S
C2895 C2896 1.399 . S
C2896 H2882 0.929 . S
C2896 C2895 1.399 . S
C2896 C2897 1.385 . S
C2897 H2883 0.931 . S
C2897 C2896 1.385 . S
C2897 C2898 1.389 . S
C2898 C2897 1.389 . S
C2898 C2899 1.387 . S
C2899 H2884 0.930 . S
C2899 C2894 1.390 . S
C2899 C2898 1.387 . S
H2900 C2912 0.930 . S
H2901 C2914 0.930 . S
H2902 C2915 0.930 . S
H2903 C2919 0.959 . S
H2904 C2919 0.959 . S
H2905 C2919 0.961 . S
H2906 C2920 0.960 . S
H2907 C2920 0.961 . S
H2908 C2920 0.959 . S
H2909 C2923 0.929 . S
H2910 C2924 0.931 . S
H2911 C2926 0.930 . S
C2912 H2900 0.930 . S
C2912 C2913 1.399 . S
C2912 C2917 1.399 . S
C2913 C2912 1.399 . S
C2913 C2914 1.376 . S
C2914 H2901 0.930 . S
C2914 C2913 1.376 . S
C2914 C2915 1.388 . S
C2915 H2902 0.930 . S
C2915 C2914 1.388 . S
C2915 C2916 1.390 . S
C2916 C2915 1.390 . S
C2916 C2917 1.394 . S
C2916 C2922 1.465 . S
C2917 C2912 1.399 . S
C2917 C2916 1.394 . S
C2917 C2918 1.516 . S
C2918 C2917 1.516 . S
C2918 C2919 1.502 . S
C2918 C2920 1.561 . S
C2918 C2921 1.526 . S
C2919 H2903 0.959 . S
C2919 H2904 0.959 . S
C2919 H2905 0.961 . S
C2919 C2918 1.502 . S
C2920 H2906 0.960 . S
C2920 H2907 0.961 . S
C2920 H2908 0.959 . S
C2920 C2918 1.561 . S
C2921 C2918 1.526 . S
C2921 C2922 1.396 . S
C2921 C2926 1.390 . S
C2922 C2916 1.465 . S
C2922 C2921 1.396 . S
C2922 C2923 1.399 . S
C2923 H2909 0.929 . S
C2923 C2922 1.399 . S
C2923 C2924 1.385 . S
C2924 H2910 0.931 . S
C2924 C2923 1.385 . S
C2924 C2925 1.389 . S
C2925 C2924 1.389 . S
C2925 C2926 1.387 . S
C2926 H2911 0.930 . S
C2926 C2921 1.390 . S
C2926 C2925 1.387 . S
H2927 C2939 0.930 . S
H2928 C2941 0.930 . S
H2929 C2942 0.930 . S
H2930 C2946 0.959 . S
H2931 C2946 0.959 . S
H2932 C2946 0.961 . S
H2933 C2947 0.960 . S
H2934 C2947 0.961 . S
H2935 C2947 0.959 . S
H2936 C2950 0.929 . S
H2937 C2951 0.931 . S
H2938 C2953 0.930 . S
C2939 H2927 0.930 . S
C2939 C2940 1.399 . S
C2939 C2944 1.399 . S
C2940 C2939 1.399 . S
C2940 C2941 1.376 . S
C2941 H2928 0.930 . S
C2941 C2940 1.376 . S
C2941 C2942 1.388 . S
C2942 H2929 0.930 . S
C2942 C2941 1.388 . S
C2942 C2943 1.390 . S
C2943 C2942 1.390 . S
C2943 C2944 1.394 . S
C2943 C2949 1.465 . S
C2944 C2939 1.399 . S
C2944 C2943 1.394 . S
C2944 C2945 1.516 . S
C2945 C2944 1.516 . S
C2945 C2946 1.502 . S
C2945 C2947 1.561 . S
C2945 C2948 1.526 . S
C2946 H2930 0.959 . S
C2946 H2931 0.959 . S
C2946 H2932 0.961 . S
C2946 C2945 1.502 . S
C2947 H2933 0.960 . S
C2947 H2934 0.961 . S
C2947 H2935 0.959 . S
C2947 C2945 1.561 . S
C2948 C2945 1.526 . S
C2948 C2949 1.396 . S
C2948 C2953 1.390 . S
C2949 C2943 1.465 . S
C2949 C2948 1.396 . S
C2949 C2950 1.399 . S
C2950 H2936 0.929 . S
C2950 C2949 1.399 . S
C2950 C2951 1.385 . S
C2951 H2937 0.931 . S
C2951 C2950 1.385 . S
C2951 C2952 1.389 . S
C2952 C2951 1.389 . S
C2952 C2953 1.387 . S
C2953 H2938 0.930 . S
C2953 C2948 1.390 . S
C2953 C2952 1.387 . S
H2954 C2966 0.930 . S
H2955 C2968 0.930 . S
H2956 C2969 0.930 . S
H2957 C2973 0.959 . S
H2958 C2973 0.959 . S
H2959 C2973 0.961 . S
H2960 C2974 0.960 . S
H2961 C2974 0.961 . S
H2962 C2974 0.959 . S
H2963 C2977 0.929 . S
H2964 C2978 0.931 . S
H2965 C2980 0.930 . S
C2966 H2954 0.930 . S
C2966 C2967 1.399 . S
C2966 C2971 1.399 . S
C2967 C2966 1.399 . S
C2967 C2968 1.376 . S
C2968 H2955 0.930 . S
C2968 C2967 1.376 . S
C2968 C2969 1.388 . S
C2969 H2956 0.930 . S
C2969 C2968 1.388 . S
C2969 C2970 1.390 . S
C2970 C2969 1.390 . S
C2970 C2971 1.394 . S
C2970 C2976 1.465 . S
C2971 C2966 1.399 . S
C2971 C2970 1.394 . S
C2971 C2972 1.516 . S
C2972 C2971 1.516 . S
C2972 C2973 1.502 . S
C2972 C2974 1.561 . S
C2972 C2975 1.526 . S
C2973 H2957 0.959 . S
C2973 H2958 0.959 . S
C2973 H2959 0.961 . S
C2973 C2972 1.502 . S
C2974 H2960 0.960 . S
C2974 H2961 0.961 . S
C2974 H2962 0.959 . S
C2974 C2972 1.561 . S
C2975 C2972 1.526 . S
C2975 C2976 1.396 . S
C2975 C2980 1.390 . S
C2976 C2970 1.465 . S
C2976 C2975 1.396 . S
C2976 C2977 1.399 . S
C2977 H2963 0.929 . S
C2977 C2976 1.399 . S
C2977 C2978 1.385 . S
C2978 H2964 0.931 . S
C2978 C2977 1.385 . S
C2978 C2979 1.389 . S
C2979 C2978 1.389 . S
C2979 C2980 1.387 . S
C2980 H2965 0.930 . S
C2980 C2975 1.390 . S
C2980 C2979 1.387 . S
H2981 C2993 0.930 . S
H2982 C2995 0.930 . S
H2983 C2996 0.930 . S
H2984 C3000 0.959 . S
H2985 C3000 0.959 . S
H2986 C3000 0.961 . S
H2987 C3001 0.960 . S
H2988 C3001 0.961 . S
H2989 C3001 0.959 . S
H2990 C3004 0.929 . S
H2991 C3005 0.931 . S
H2992 C3007 0.930 . S
C2993 H2981 0.930 . S
C2993 C2994 1.399 . S
C2993 C2998 1.399 . S
C2994 C2993 1.399 . S
C2994 C2995 1.376 . S
C2995 H2982 0.930 . S
C2995 C2994 1.376 . S
C2995 C2996 1.388 . S
C2996 H2983 0.930 . S
C2996 C2995 1.388 . S
C2996 C2997 1.390 . S
C2997 C2996 1.390 . S
C2997 C2998 1.394 . S
C2997 C3003 1.465 . S
C2998 C2993 1.399 . S
C2998 C2997 1.394 . S
C2998 C2999 1.516 . S
C2999 C2998 1.516 . S
C2999 C3000 1.502 . S
C2999 C3001 1.561 . S
C2999 C3002 1.526 . S
C3000 H2984 0.959 . S
C3000 H2985 0.959 . S
C3000 H2986 0.961 . S
C3000 C2999 1.502 . S
C3001 H2987 0.960 . S
C3001 H2988 0.961 . S
C3001 H2989 0.959 . S
C3001 C2999 1.561 . S
C3002 C2999 1.526 . S
C3002 C3003 1.396 . S
C3002 C3007 1.390 . S
C3003 C2997 1.465 . S
C3003 C3002 1.396 . S
C3003 C3004 1.399 . S
C3004 H2990 0.929 . S
C3004 C3003 1.399 . S
C3004 C3005 1.385 . S
C3005 H2991 0.931 . S
C3005 C3004 1.385 . S
C3005 C3006 1.389 . S
C3006 C3005 1.389 . S
C3006 C3007 1.387 . S
C3007 H2992 0.930 . S
C3007 C3002 1.390 . S
C3007 C3006 1.387 . S
H3008 C3020 0.930 . S
H3009 C3022 0.930 . S
H3010 C3023 0.930 . S
H3011 C3027 0.959 . S
H3012 C3027 0.959 . S
H3013 C3027 0.961 . S
H3014 C3028 0.960 . S
H3015 C3028 0.961 . S
H3016 C3028 0.959 . S
H3017 C3031 0.929 . S
H3018 C3032 0.931 . S
H3019 C3034 0.930 . S
C3020 H3008 0.930 . S
C3020 C3021 1.399 . S
C3020 C3025 1.399 . S
C3021 C3020 1.399 . S
C3021 C3022 1.376 . S
C3022 H3009 0.930 . S
C3022 C3021 1.376 . S
C3022 C3023 1.388 . S
C3023 H3010 0.930 . S
C3023 C3022 1.388 . S
C3023 C3024 1.390 . S
C3024 C3023 1.390 . S
C3024 C3025 1.394 . S
C3024 C3030 1.465 . S
C3025 C3020 1.399 . S
C3025 C3024 1.394 . S
C3025 C3026 1.516 . S
C3026 C3025 1.516 . S
C3026 C3027 1.502 . S
C3026 C3028 1.561 . S
C3026 C3029 1.526 . S
C3027 H3011 0.959 . S
C3027 H3012 0.959 . S
C3027 H3013 0.961 . S
C3027 C3026 1.502 . S
C3028 H3014 0.960 . S
C3028 H3015 0.961 . S
C3028 H3016 0.959 . S
C3028 C3026 1.561 . S
C3029 C3026 1.526 . S
C3029 C3030 1.396 . S
C3029 C3034 1.390 . S
C3030 C3024 1.465 . S
C3030 C3029 1.396 . S
C3030 C3031 1.399 . S
C3031 H3017 0.929 . S
C3031 C3030 1.399 . S
C3031 C3032 1.385 . S
C3032 H3018 0.931 . S
C3032 C3031 1.385 . S
C3032 C3033 1.389 . S
C3033 C3032 1.389 . S
C3033 C3034 1.387 . S
C3034 H3019 0.930 . S
C3034 C3029 1.390 . S
C3034 C3033 1.387 . S
H3035 C3047 0.930 . S
H3036 C3049 0.930 . S
H3037 C3050 0.930 . S
H3038 C3054 0.959 . S
H3039 C3054 0.959 . S
H3040 C3054 0.961 . S
H3041 C3055 0.960 . S
H3042 C3055 0.961 . S
H3043 C3055 0.959 . S
H3044 C3058 0.929 . S
H3045 C3059 0.931 . S
H3046 C3061 0.930 . S
C3047 H3035 0.930 . S
C3047 C3048 1.399 . S
C3047 C3052 1.399 . S
C3048 C3047 1.399 . S
C3048 C3049 1.376 . S
C3049 H3036 0.930 . S
C3049 C3048 1.376 . S
C3049 C3050 1.388 . S
C3050 H3037 0.930 . S
C3050 C3049 1.388 . S
C3050 C3051 1.390 . S
C3051 C3050 1.390 . S
C3051 C3052 1.394 . S
C3051 C3057 1.465 . S
C3052 C3047 1.399 . S
C3052 C3051 1.394 . S
C3052 C3053 1.516 . S
C3053 C3052 1.516 . S
C3053 C3054 1.502 . S
C3053 C3055 1.561 . S
C3053 C3056 1.526 . S
C3054 H3038 0.959 . S
C3054 H3039 0.959 . S
C3054 H3040 0.961 . S
C3054 C3053 1.502 . S
C3055 H3041 0.960 . S
C3055 H3042 0.961 . S
C3055 H3043 0.959 . S
C3055 C3053 1.561 . S
C3056 C3053 1.526 . S
C3056 C3057 1.396 . S
C3056 C3061 1.390 . S
C3057 C3051 1.465 . S
C3057 C3056 1.396 . S
C3057 C3058 1.399 . S
C3058 H3044 0.929 . S
C3058 C3057 1.399 . S
C3058 C3059 1.385 . S
C3059 H3045 0.931 . S
C3059 C3058 1.385 . S
C3059 C3060 1.389 . S
C3060 C3059 1.389 . S
C3060 C3061 1.387 . S
C3061 H3046 0.930 . S
C3061 C3056 1.390 . S
C3061 C3060 1.387 . S
H3062 C3074 0.930 . S
H3063 C3076 0.930 . S
H3064 C3077 0.930 1_554 S
H3065 C3081 0.959 . S
H3066 C3081 0.959 . S
H3067 C3081 0.961 . S
H3068 C3082 0.960 . S
H3069 C3082 0.961 . S
H3070 C3082 0.959 . S
H3071 C3085 0.929 . S
H3072 C3086 0.931 . S
H3073 C3088 0.930 . S
C3074 H3062 0.930 . S
C3074 C3075 1.399 . S
C3074 C3079 1.399 . S
C3075 C3074 1.399 . S
C3075 C3076 1.376 1_556 S
C3076 H3063 0.930 . S
C3076 C3075 1.376 1_554 S
C3076 C3077 1.388 1_554 S
C3077 H3064 0.930 1_556 S
C3077 C3076 1.388 1_556 S
C3077 C3078 1.390 . S
C3078 C3077 1.390 . S
C3078 C3079 1.394 . S
C3078 C3084 1.465 . S
C3079 C3074 1.399 . S
C3079 C3078 1.394 . S
C3079 C3080 1.516 . S
C3080 C3079 1.516 . S
C3080 C3081 1.502 . S
C3080 C3082 1.561 . S
C3080 C3083 1.526 . S
C3081 H3065 0.959 . S
C3081 H3066 0.959 . S
C3081 H3067 0.961 . S
C3081 C3080 1.502 . S
C3082 H3068 0.960 . S
C3082 H3069 0.961 . S
C3082 H3070 0.959 . S
C3082 C3080 1.561 . S
C3083 C3080 1.526 . S
C3083 C3084 1.396 . S
C3083 C3088 1.390 . S
C3084 C3078 1.465 . S
C3084 C3083 1.396 . S
C3084 C3085 1.399 . S
C3085 H3071 0.929 . S
C3085 C3084 1.399 . S
C3085 C3086 1.385 . S
C3086 H3072 0.931 . S
C3086 C3085 1.385 . S
C3086 C3087 1.389 . S
C3087 C3086 1.389 . S
C3087 C3088 1.387 . S
C3088 H3073 0.930 . S
C3088 C3083 1.390 . S
C3088 C3087 1.387 . S
H3089 C3101 0.930 . S
H3090 C3103 0.930 . S
H3091 C3104 0.930 . S
H3092 C3108 0.959 . S
H3093 C3108 0.959 . S
H3094 C3108 0.961 . S
H3095 C3109 0.960 . S
H3096 C3109 0.961 . S
H3097 C3109 0.959 . S
H3098 C3112 0.929 . S
H3099 C3113 0.931 1_554 S
H3100 C3115 0.930 . S
C3101 H3089 0.930 . S
C3101 C3102 1.399 . S
C3101 C3106 1.399 . S
C3102 C3101 1.399 . S
C3102 C3103 1.376 . S
C3103 H3090 0.930 . S
C3103 C3102 1.376 . S
C3103 C3104 1.388 . S
C3104 H3091 0.930 . S
C3104 C3103 1.388 . S
C3104 C3105 1.390 . S
C3105 C3104 1.390 . S
C3105 C3106 1.394 . S
C3105 C3111 1.465 . S
C3106 C3101 1.399 . S
C3106 C3105 1.394 . S
C3106 C3107 1.516 . S
C3107 C3106 1.516 . S
C3107 C3108 1.502 . S
C3107 C3109 1.561 . S
C3107 C3110 1.526 . S
C3108 H3092 0.959 . S
C3108 H3093 0.959 . S
C3108 H3094 0.961 . S
C3108 C3107 1.502 . S
C3109 H3095 0.960 . S
C3109 H3096 0.961 . S
C3109 H3097 0.959 . S
C3109 C3107 1.561 . S
C3110 C3107 1.526 . S
C3110 C3111 1.396 . S
C3110 C3115 1.390 . S
C3111 C3105 1.465 . S
C3111 C3110 1.396 . S
C3111 C3112 1.399 . S
C3112 H3098 0.929 . S
C3112 C3111 1.399 . S
C3112 C3113 1.385 . S
C3113 H3099 0.931 1_556 S
C3113 C3112 1.385 . S
C3113 C3114 1.389 . S
C3114 C3113 1.389 . S
C3114 C3115 1.387 . S
C3115 H3100 0.930 . S
C3115 C3110 1.390 . S
C3115 C3114 1.387 . S
H3116 C3128 0.930 . S
H3117 C3130 0.930 . S
H3118 C3131 0.930 . S
H3119 C3135 0.959 . S
H3120 C3135 0.959 . S
H3121 C3135 0.961 . S
H3122 C3136 0.960 . S
H3123 C3136 0.961 . S
H3124 C3136 0.959 . S
H3125 C3139 0.929 . S
H3126 C3140 0.931 . S
H3127 C3142 0.930 . S
C3128 H3116 0.930 . S
C3128 C3129 1.399 . S
C3128 C3133 1.399 . S
C3129 C3128 1.399 . S
C3129 C3130 1.376 . S
C3130 H3117 0.930 . S
C3130 C3129 1.376 . S
C3130 C3131 1.388 . S
C3131 H3118 0.930 . S
C3131 C3130 1.388 . S
C3131 C3132 1.390 . S
C3132 C3131 1.390 . S
C3132 C3133 1.394 . S
C3132 C3138 1.465 . S
C3133 C3128 1.399 . S
C3133 C3132 1.394 . S
C3133 C3134 1.516 . S
C3134 C3133 1.516 . S
C3134 C3135 1.502 . S
C3134 C3136 1.561 . S
C3134 C3137 1.526 . S
C3135 H3119 0.959 . S
C3135 H3120 0.959 . S
C3135 H3121 0.961 . S
C3135 C3134 1.502 . S
C3136 H3122 0.960 . S
C3136 H3123 0.961 . S
C3136 H3124 0.959 . S
C3136 C3134 1.561 . S
C3137 C3134 1.526 . S
C3137 C3138 1.396 . S
C3137 C3142 1.390 . S
C3138 C3132 1.465 . S
C3138 C3137 1.396 . S
C3138 C3139 1.399 . S
C3139 H3125 0.929 . S
C3139 C3138 1.399 . S
C3139 C3140 1.385 . S
C3140 H3126 0.931 . S
C3140 C3139 1.385 . S
C3140 C3141 1.389 . S
C3141 C3140 1.389 . S
C3141 C3142 1.387 . S
C3142 H3127 0.930 . S
C3142 C3137 1.390 . S
C3142 C3141 1.387 . S
H3143 C3155 0.930 . S
H3144 C3157 0.930 . S
H3145 C3158 0.930 . S
H3146 C3162 0.959 . S
H3147 C3162 0.959 . S
H3148 C3162 0.961 . S
H3149 C3163 0.960 . S
H3150 C3163 0.961 . S
H3151 C3163 0.959 . S
H3152 C3166 0.929 . S
H3153 C3167 0.931 . S
H3154 C3169 0.930 . S
C3155 H3143 0.930 . S
C3155 C3156 1.399 . S
C3155 C3160 1.399 . S
C3156 C3155 1.399 . S
C3156 C3157 1.376 . S
C3157 H3144 0.930 . S
C3157 C3156 1.376 . S
C3157 C3158 1.388 . S
C3158 H3145 0.930 . S
C3158 C3157 1.388 . S
C3158 C3159 1.390 . S
C3159 C3158 1.390 . S
C3159 C3160 1.394 . S
C3159 C3165 1.465 . S
C3160 C3155 1.399 . S
C3160 C3159 1.394 . S
C3160 C3161 1.516 . S
C3161 C3160 1.516 . S
C3161 C3162 1.502 . S
C3161 C3163 1.561 . S
C3161 C3164 1.526 . S
C3162 H3146 0.959 . S
C3162 H3147 0.959 . S
C3162 H3148 0.961 . S
C3162 C3161 1.502 . S
C3163 H3149 0.960 . S
C3163 H3150 0.961 . S
C3163 H3151 0.959 . S
C3163 C3161 1.561 . S
C3164 C3161 1.526 . S
C3164 C3165 1.396 . S
C3164 C3169 1.390 . S
C3165 C3159 1.465 . S
C3165 C3164 1.396 . S
C3165 C3166 1.399 . S
C3166 H3152 0.929 . S
C3166 C3165 1.399 . S
C3166 C3167 1.385 . S
C3167 H3153 0.931 . S
C3167 C3166 1.385 . S
C3167 C3168 1.389 . S
C3168 C3167 1.389 . S
C3168 C3169 1.387 . S
C3169 H3154 0.930 . S
C3169 C3164 1.390 . S
C3169 C3168 1.387 . S
H3170 C3182 0.930 . S
H3171 C3184 0.930 . S
H3172 C3185 0.930 . S
H3173 C3189 0.959 . S
H3174 C3189 0.959 . S
H3175 C3189 0.961 . S
H3176 C3190 0.960 . S
H3177 C3190 0.961 . S
H3178 C3190 0.959 . S
H3179 C3193 0.929 . S
H3180 C3194 0.931 . S
H3181 C3196 0.930 . S
C3182 H3170 0.930 . S
C3182 C3183 1.399 . S
C3182 C3187 1.399 . S
C3183 C3182 1.399 . S
C3183 C3184 1.376 1_554 S
C3184 H3171 0.930 . S
C3184 C3183 1.376 1_556 S
C3184 C3185 1.388 . S
C3185 H3172 0.930 . S
C3185 C3184 1.388 . S
C3185 C3186 1.390 1_556 S
C3186 C3185 1.390 1_554 S
C3186 C3187 1.394 . S
C3186 C3192 1.465 . S
C3187 C3182 1.399 . S
C3187 C3186 1.394 . S
C3187 C3188 1.516 . S
C3188 C3187 1.516 . S
C3188 C3189 1.502 . S
C3188 C3190 1.561 . S
C3188 C3191 1.526 . S
C3189 H3173 0.959 . S
C3189 H3174 0.959 . S
C3189 H3175 0.961 . S
C3189 C3188 1.502 . S
C3190 H3176 0.960 . S
C3190 H3177 0.961 . S
C3190 H3178 0.959 . S
C3190 C3188 1.561 . S
C3191 C3188 1.526 . S
C3191 C3192 1.396 . S
C3191 C3196 1.390 . S
C3192 C3186 1.465 . S
C3192 C3191 1.396 . S
C3192 C3193 1.399 . S
C3193 H3179 0.929 . S
C3193 C3192 1.399 . S
C3193 C3194 1.385 . S
C3194 H3180 0.931 . S
C3194 C3193 1.385 . S
C3194 C3195 1.389 . S
C3195 C3194 1.389 . S
C3195 C3196 1.387 . S
C3196 H3181 0.930 . S
C3196 C3191 1.390 . S
C3196 C3195 1.387 . S
H3197 C3209 0.930 1_556 S
H3198 C3211 0.930 . S
H3199 C3212 0.930 . S
H3200 C3216 0.959 . S
H3201 C3216 0.959 . S
H3202 C3216 0.961 1_556 S
H3203 C3217 0.960 . S
H3204 C3217 0.961 . S
H3205 C3217 0.959 . S
H3206 C3220 0.929 . S
H3207 C3221 0.931 . S
H3208 C3223 0.930 . S
C3209 H3197 0.930 1_554 S
C3209 C3210 1.399 . S
C3209 C3214 1.399 . S
C3210 C3209 1.399 . S
C3210 C3211 1.376 . S
C3211 H3198 0.930 . S
C3211 C3210 1.376 . S
C3211 C3212 1.388 . S
C3212 H3199 0.930 . S
C3212 C3211 1.388 . S
C3212 C3213 1.390 . S
C3213 C3212 1.390 . S
C3213 C3214 1.394 . S
C3213 C3219 1.465 . S
C3214 C3209 1.399 . S
C3214 C3213 1.394 . S
C3214 C3215 1.516 . S
C3215 C3214 1.516 . S
C3215 C3216 1.502 . S
C3215 C3217 1.561 1_554 S
C3215 C3218 1.526 . S
C3216 H3200 0.959 . S
C3216 H3201 0.959 . S
C3216 H3202 0.961 1_554 S
C3216 C3215 1.502 . S
C3217 H3203 0.960 . S
C3217 H3204 0.961 . S
C3217 H3205 0.959 . S
C3217 C3215 1.561 1_556 S
C3218 C3215 1.526 . S
C3218 C3219 1.396 . S
C3218 C3223 1.390 . S
C3219 C3213 1.465 . S
C3219 C3218 1.396 . S
C3219 C3220 1.399 . S
C3220 H3206 0.929 . S
C3220 C3219 1.399 . S
C3220 C3221 1.385 . S
C3221 H3207 0.931 . S
C3221 C3220 1.385 . S
C3221 C3222 1.389 . S
C3222 C3221 1.389 . S
C3222 C3223 1.387 . S
C3223 H3208 0.930 . S
C3223 C3218 1.390 . S
C3223 C3222 1.387 . S
H3224 C3236 0.930 . S
H3225 C3238 0.930 . S
H3226 C3239 0.930 1_554 S
H3227 C3243 0.959 . S
H3228 C3243 0.959 . S
H3229 C3243 0.961 . S
H3230 C3244 0.960 . S
H3231 C3244 0.961 . S
H3232 C3244 0.959 . S
H3233 C3247 0.929 . S
H3234 C3248 0.931 . S
H3235 C3250 0.930 . S
C3236 H3224 0.930 . S
C3236 C3237 1.399 . S
C3236 C3241 1.399 . S
C3237 C3236 1.399 . S
C3237 C3238 1.376 1_556 S
C3238 H3225 0.930 . S
C3238 C3237 1.376 1_554 S
C3238 C3239 1.388 1_554 S
C3239 H3226 0.930 1_556 S
C3239 C3238 1.388 1_556 S
C3239 C3240 1.390 . S
C3240 C3239 1.390 . S
C3240 C3241 1.394 . S
C3240 C3246 1.465 . S
C3241 C3236 1.399 . S
C3241 C3240 1.394 . S
C3241 C3242 1.516 . S
C3242 C3241 1.516 . S
C3242 C3243 1.502 . S
C3242 C3244 1.561 . S
C3242 C3245 1.526 . S
C3243 H3227 0.959 . S
C3243 H3228 0.959 . S
C3243 H3229 0.961 . S
C3243 C3242 1.502 . S
C3244 H3230 0.960 . S
C3244 H3231 0.961 . S
C3244 H3232 0.959 . S
C3244 C3242 1.561 . S
C3245 C3242 1.526 . S
C3245 C3246 1.396 . S
C3245 C3250 1.390 . S
C3246 C3240 1.465 . S
C3246 C3245 1.396 . S
C3246 C3247 1.399 . S
C3247 H3233 0.929 . S
C3247 C3246 1.399 . S
C3247 C3248 1.385 . S
C3248 H3234 0.931 . S
C3248 C3247 1.385 . S
C3248 C3249 1.389 . S
C3249 C3248 1.389 . S
C3249 C3250 1.387 . S
C3250 H3235 0.930 . S
C3250 C3245 1.390 . S
C3250 C3249 1.387 . S
H3251 C3263 0.930 . S
H3252 C3265 0.930 . S
H3253 C3266 0.930 . S
H3254 C3270 0.959 . S
H3255 C3270 0.959 . S
H3256 C3270 0.961 . S
H3257 C3271 0.960 . S
H3258 C3271 0.961 . S
H3259 C3271 0.959 . S
H3260 C3274 0.929 . S
H3261 C3275 0.931 . S
H3262 C3277 0.930 . S
C3263 H3251 0.930 . S
C3263 C3264 1.399 . S
C3263 C3268 1.399 . S
C3264 C3263 1.399 . S
C3264 C3265 1.376 . S
C3265 H3252 0.930 . S
C3265 C3264 1.376 . S
C3265 C3266 1.388 . S
C3266 H3253 0.930 . S
C3266 C3265 1.388 . S
C3266 C3267 1.390 . S
C3267 C3266 1.390 . S
C3267 C3268 1.394 . S
C3267 C3273 1.465 . S
C3268 C3263 1.399 . S
C3268 C3267 1.394 . S
C3268 C3269 1.516 . S
C3269 C3268 1.516 . S
C3269 C3270 1.502 . S
C3269 C3271 1.561 . S
C3269 C3272 1.526 . S
C3270 H3254 0.959 . S
C3270 H3255 0.959 . S
C3270 H3256 0.961 . S
C3270 C3269 1.502 . S
C3271 H3257 0.960 . S
C3271 H3258 0.961 . S
C3271 H3259 0.959 . S
C3271 C3269 1.561 . S
C3272 C3269 1.526 . S
C3272 C3273 1.396 . S
C3272 C3277 1.390 . S
C3273 C3267 1.465 . S
C3273 C3272 1.396 . S
C3273 C3274 1.399 1_556 S
C3274 H3260 0.929 . S
C3274 C3273 1.399 1_554 S
C3274 C3275 1.385 . S
C3275 H3261 0.931 . S
C3275 C3274 1.385 . S
C3275 C3276 1.389 1_554 S
C3276 C3275 1.389 1_556 S
C3276 C3277 1.387 . S
C3277 H3262 0.930 . S
C3277 C3272 1.390 . S
C3277 C3276 1.387 . S
H3278 C3290 0.930 . S
H3279 C3292 0.930 . S
H3280 C3293 0.930 . S
H3281 C3297 0.959 . S
H3282 C3297 0.959 . S
H3283 C3297 0.961 . S
H3284 C3298 0.960 . S
H3285 C3298 0.961 . S
H3286 C3298 0.959 . S
H3287 C3301 0.929 . S
H3288 C3302 0.931 . S
H3289 C3304 0.930 . S
C3290 H3278 0.930 . S
C3290 C3291 1.399 . S
C3290 C3295 1.399 . S
C3291 C3290 1.399 . S
C3291 C3292 1.376 . S
C3292 H3279 0.930 . S
C3292 C3291 1.376 . S
C3292 C3293 1.388 . S
C3293 H3280 0.930 . S
C3293 C3292 1.388 . S
C3293 C3294 1.390 . S
C3294 C3293 1.390 . S
C3294 C3295 1.394 . S
C3294 C3300 1.465 . S
C3295 C3290 1.399 . S
C3295 C3294 1.394 . S
C3295 C3296 1.516 . S
C3296 C3295 1.516 . S
C3296 C3297 1.502 . S
C3296 C3298 1.561 . S
C3296 C3299 1.526 . S
C3297 H3281 0.959 . S
C3297 H3282 0.959 . S
C3297 H3283 0.961 . S
C3297 C3296 1.502 . S
C3298 H3284 0.960 . S
C3298 H3285 0.961 . S
C3298 H3286 0.959 . S
C3298 C3296 1.561 . S
C3299 C3296 1.526 . S
C3299 C3300 1.396 . S
C3299 C3304 1.390 . S
C3300 C3294 1.465 . S
C3300 C3299 1.396 . S
C3300 C3301 1.399 . S
C3301 H3287 0.929 . S
C3301 C3300 1.399 . S
C3301 C3302 1.385 . S
C3302 H3288 0.931 . S
C3302 C3301 1.385 . S
C3302 C3303 1.389 . S
C3303 C3302 1.389 . S
C3303 C3304 1.387 . S
C3304 H3289 0.930 . S
C3304 C3299 1.390 . S
C3304 C3303 1.387 . S
H3305 C3317 0.930 . S
H3306 C3319 0.930 . S
H3307 C3320 0.930 . S
H3308 C3324 0.959 . S
H3309 C3324 0.959 . S
H3310 C3324 0.961 . S
H3311 C3325 0.960 . S
H3312 C3325 0.961 . S
H3313 C3325 0.959 . S
H3314 C3328 0.929 . S
H3315 C3329 0.931 . S
H3316 C3331 0.930 . S
C3317 H3305 0.930 . S
C3317 C3318 1.399 . S
C3317 C3322 1.399 . S
C3318 C3317 1.399 . S
C3318 C3319 1.376 . S
C3319 H3306 0.930 . S
C3319 C3318 1.376 . S
C3319 C3320 1.388 . S
C3320 H3307 0.930 . S
C3320 C3319 1.388 . S
C3320 C3321 1.390 . S
C3321 C3320 1.390 . S
C3321 C3322 1.394 . S
C3321 C3327 1.465 . S
C3322 C3317 1.399 . S
C3322 C3321 1.394 . S
C3322 C3323 1.516 . S
C3323 C3322 1.516 . S
C3323 C3324 1.502 . S
C3323 C3325 1.561 . S
C3323 C3326 1.526 . S
C3324 H3308 0.959 . S
C3324 H3309 0.959 . S
C3324 H3310 0.961 . S
C3324 C3323 1.502 . S
C3325 H3311 0.960 . S
C3325 H3312 0.961 . S
C3325 H3313 0.959 . S
C3325 C3323 1.561 . S
C3326 C3323 1.526 . S
C3326 C3327 1.396 . S
C3326 C3331 1.390 . S
C3327 C3321 1.465 . S
C3327 C3326 1.396 . S
C3327 C3328 1.399 . S
C3328 H3314 0.929 . S
C3328 C3327 1.399 . S
C3328 C3329 1.385 . S
C3329 H3315 0.931 . S
C3329 C3328 1.385 . S
C3329 C3330 1.389 . S
C3330 C3329 1.389 . S
C3330 C3331 1.387 . S
C3331 H3316 0.930 . S
C3331 C3326 1.390 . S
C3331 C3330 1.387 . S
H3332 C3344 0.930 1_556 S
H3333 C3346 0.930 . S
H3334 C3347 0.930 . S
H3335 C3351 0.959 . S
H3336 C3351 0.959 . S
H3337 C3351 0.961 . S
H3338 C3352 0.960 . S
H3339 C3352 0.961 . S
H3340 C3352 0.959 . S
H3341 C3355 0.929 . S
H3342 C3356 0.931 . S
H3343 C3358 0.930 . S
C3344 H3332 0.930 1_554 S
C3344 C3345 1.399 . S
C3344 C3349 1.399 . S
C3345 C3344 1.399 . S
C3345 C3346 1.376 . S
C3346 H3333 0.930 . S
C3346 C3345 1.376 . S
C3346 C3347 1.388 . S
C3347 H3334 0.930 . S
C3347 C3346 1.388 . S
C3347 C3348 1.390 . S
C3348 C3347 1.390 . S
C3348 C3349 1.394 . S
C3348 C3354 1.465 . S
C3349 C3344 1.399 . S
C3349 C3348 1.394 . S
C3349 C3350 1.516 . S
C3350 C3349 1.516 . S
C3350 C3351 1.502 . S
C3350 C3352 1.561 1_554 S
C3350 C3353 1.526 . S
C3351 H3335 0.959 . S
C3351 H3336 0.959 . S
C3351 H3337 0.961 . S
C3351 C3350 1.502 . S
C3352 H3338 0.960 . S
C3352 H3339 0.961 . S
C3352 H3340 0.959 . S
C3352 C3350 1.561 1_556 S
C3353 C3350 1.526 . S
C3353 C3354 1.396 . S
C3353 C3358 1.390 . S
C3354 C3348 1.465 . S
C3354 C3353 1.396 . S
C3354 C3355 1.399 . S
C3355 H3341 0.929 . S
C3355 C3354 1.399 . S
C3355 C3356 1.385 . S
C3356 H3342 0.931 . S
C3356 C3355 1.385 . S
C3356 C3357 1.389 . S
C3357 C3356 1.389 . S
C3357 C3358 1.387 . S
C3358 H3343 0.930 . S
C3358 C3353 1.390 . S
C3358 C3357 1.387 . S
H3359 C3371 0.930 . S
H3360 C3373 0.930 . S
H3361 C3374 0.930 . S
H3362 C3378 0.959 . S
H3363 C3378 0.959 1_556 S
H3364 C3378 0.961 . S
H3365 C3379 0.960 . S
H3366 C3379 0.961 . S
H3367 C3379 0.959 1_554 S
H3368 C3382 0.929 . S
H3369 C3383 0.931 . S
H3370 C3385 0.930 1_556 S
C3371 H3359 0.930 . S
C3371 C3372 1.399 . S
C3371 C3376 1.399 . S
C3372 C3371 1.399 . S
C3372 C3373 1.376 . S
C3373 H3360 0.930 . S
C3373 C3372 1.376 . S
C3373 C3374 1.388 . S
C3374 H3361 0.930 . S
C3374 C3373 1.388 . S
C3374 C3375 1.390 . S
C3375 C3374 1.390 . S
C3375 C3376 1.394 . S
C3375 C3381 1.465 . S
C3376 C3371 1.399 . S
C3376 C3375 1.394 . S
C3376 C3377 1.516 . S
C3377 C3376 1.516 . S
C3377 C3378 1.502 . S
C3377 C3379 1.561 1_554 S
C3377 C3380 1.526 . S
C3378 H3362 0.959 . S
C3378 H3363 0.959 1_554 S
C3378 H3364 0.961 . S
C3378 C3377 1.502 . S
C3379 H3365 0.960 . S
C3379 H3366 0.961 . S
C3379 H3367 0.959 1_556 S
C3379 C3377 1.561 1_556 S
C3380 C3377 1.526 . S
C3380 C3381 1.396 . S
C3380 C3385 1.390 . S
C3381 C3375 1.465 . S
C3381 C3380 1.396 . S
C3381 C3382 1.399 . S
C3382 H3368 0.929 . S
C3382 C3381 1.399 . S
C3382 C3383 1.385 . S
C3383 H3369 0.931 . S
C3383 C3382 1.385 . S
C3383 C3384 1.389 . S
C3384 C3383 1.389 . S
C3384 C3385 1.387 . S
C3385 H3370 0.930 1_554 S
C3385 C3380 1.390 . S
C3385 C3384 1.387 . S
H3386 C3398 0.930 . S
H3387 C3400 0.930 . S
H3388 C3401 0.930 . S
H3389 C3405 0.959 . S
H3390 C3405 0.959 . S
H3391 C3405 0.961 . S
H3392 C3406 0.960 . S
H3393 C3406 0.961 . S
H3394 C3406 0.959 . S
H3395 C3409 0.929 . S
H3396 C3410 0.931 . S
H3397 C3412 0.930 . S
C3398 H3386 0.930 . S
C3398 C3399 1.399 . S
C3398 C3403 1.399 . S
C3399 C3398 1.399 . S
C3399 C3400 1.376 . S
C3400 H3387 0.930 . S
C3400 C3399 1.376 . S
C3400 C3401 1.388 . S
C3401 H3388 0.930 . S
C3401 C3400 1.388 . S
C3401 C3402 1.390 . S
C3402 C3401 1.390 . S
C3402 C3403 1.394 . S
C3402 C3408 1.465 . S
C3403 C3398 1.399 . S
C3403 C3402 1.394 . S
C3403 C3404 1.516 . S
C3404 C3403 1.516 . S
C3404 C3405 1.502 . S
C3404 C3406 1.561 . S
C3404 C3407 1.526 . S
C3405 H3389 0.959 . S
C3405 H3390 0.959 . S
C3405 H3391 0.961 . S
C3405 C3404 1.502 . S
C3406 H3392 0.960 . S
C3406 H3393 0.961 . S
C3406 H3394 0.959 . S
C3406 C3404 1.561 . S
C3407 C3404 1.526 . S
C3407 C3408 1.396 . S
C3407 C3412 1.390 . S
C3408 C3402 1.465 . S
C3408 C3407 1.396 . S
C3408 C3409 1.399 . S
C3409 H3395 0.929 . S
C3409 C3408 1.399 . S
C3409 C3410 1.385 . S
C3410 H3396 0.931 . S
C3410 C3409 1.385 . S
C3410 C3411 1.389 . S
C3411 C3410 1.389 . S
C3411 C3412 1.387 . S
C3412 H3397 0.930 . S
C3412 C3407 1.390 . S
C3412 C3411 1.387 . S
H3413 C3425 0.930 . S
H3414 C3427 0.930 . S
H3415 C3428 0.930 . S
H3416 C3432 0.959 . S
H3417 C3432 0.959 . S
H3418 C3432 0.961 . S
H3419 C3433 0.960 . S
H3420 C3433 0.961 . S
H3421 C3433 0.959 . S
H3422 C3436 0.929 . S
H3423 C3437 0.931 . S
H3424 C3439 0.930 . S
C3425 H3413 0.930 . S
C3425 C3426 1.399 . S
C3425 C3430 1.399 . S
C3426 C3425 1.399 . S
C3426 C3427 1.376 . S
C3427 H3414 0.930 . S
C3427 C3426 1.376 . S
C3427 C3428 1.388 . S
C3428 H3415 0.930 . S
C3428 C3427 1.388 . S
C3428 C3429 1.390 . S
C3429 C3428 1.390 . S
C3429 C3430 1.394 . S
C3429 C3435 1.465 . S
C3430 C3425 1.399 . S
C3430 C3429 1.394 . S
C3430 C3431 1.516 . S
C3431 C3430 1.516 . S
C3431 C3432 1.502 . S
C3431 C3433 1.561 . S
C3431 C3434 1.526 . S
C3432 H3416 0.959 . S
C3432 H3417 0.959 . S
C3432 H3418 0.961 . S
C3432 C3431 1.502 . S
C3433 H3419 0.960 . S
C3433 H3420 0.961 . S
C3433 H3421 0.959 . S
C3433 C3431 1.561 . S
C3434 C3431 1.526 . S
C3434 C3435 1.396 . S
C3434 C3439 1.390 . S
C3435 C3429 1.465 . S
C3435 C3434 1.396 . S
C3435 C3436 1.399 . S
C3436 H3422 0.929 . S
C3436 C3435 1.399 . S
C3436 C3437 1.385 . S
C3437 H3423 0.931 . S
C3437 C3436 1.385 . S
C3437 C3438 1.389 . S
C3438 C3437 1.389 . S
C3438 C3439 1.387 . S
C3439 H3424 0.930 . S
C3439 C3434 1.390 . S
C3439 C3438 1.387 . S
H3440 C3452 0.930 . S
H3441 C3454 0.930 . S
H3442 C3455 0.930 1_556 S
H3443 C3459 0.959 . S
H3444 C3459 0.959 . S
H3445 C3459 0.961 . S
H3446 C3460 0.960 . S
H3447 C3460 0.961 . S
H3448 C3460 0.959 . S
H3449 C3463 0.929 1_556 S
H3450 C3464 0.931 1_556 S
H3451 C3466 0.930 . S
C3452 H3440 0.930 . S
C3452 C3453 1.399 . S
C3452 C3457 1.399 . S
C3453 C3452 1.399 . S
C3453 C3454 1.376 . S
C3454 H3441 0.930 . S
C3454 C3453 1.376 . S
C3454 C3455 1.388 . S
C3455 H3442 0.930 1_554 S
C3455 C3454 1.388 . S
C3455 C3456 1.390 . S
C3456 C3455 1.390 . S
C3456 C3457 1.394 . S
C3456 C3462 1.465 . S
C3457 C3452 1.399 . S
C3457 C3456 1.394 . S
C3457 C3458 1.516 . S
C3458 C3457 1.516 . S
C3458 C3459 1.502 . S
C3458 C3460 1.561 . S
C3458 C3461 1.526 . S
C3459 H3443 0.959 . S
C3459 H3444 0.959 . S
C3459 H3445 0.961 . S
C3459 C3458 1.502 . S
C3460 H3446 0.960 . S
C3460 H3447 0.961 . S
C3460 H3448 0.959 . S
C3460 C3458 1.561 . S
C3461 C3458 1.526 . S
C3461 C3462 1.396 . S
C3461 C3466 1.390 . S
C3462 C3456 1.465 . S
C3462 C3461 1.396 . S
C3462 C3463 1.399 . S
C3463 H3449 0.929 1_554 S
C3463 C3462 1.399 . S
C3463 C3464 1.385 . S
C3464 H3450 0.931 1_554 S
C3464 C3463 1.385 . S
C3464 C3465 1.389 . S
C3465 C3464 1.389 . S
C3465 C3466 1.387 . S
C3466 H3451 0.930 . S
C3466 C3461 1.390 . S
C3466 C3465 1.387 . S
H3467 C3479 0.930 . S
H3468 C3481 0.930 . S
H3469 C3482 0.930 . S
H3470 C3486 0.959 . S
H3471 C3486 0.959 . S
H3472 C3486 0.961 . S
H3473 C3487 0.960 . S
H3474 C3487 0.961 . S
H3475 C3487 0.959 . S
H3476 C3490 0.929 . S
H3477 C3491 0.931 . S
H3478 C3493 0.930 . S
C3479 H3467 0.930 . S
C3479 C3480 1.399 . S
C3479 C3484 1.399 . S
C3480 C3479 1.399 . S
C3480 C3481 1.376 . S
C3481 H3468 0.930 . S
C3481 C3480 1.376 . S
C3481 C3482 1.388 . S
C3482 H3469 0.930 . S
C3482 C3481 1.388 . S
C3482 C3483 1.390 . S
C3483 C3482 1.390 . S
C3483 C3484 1.394 . S
C3483 C3489 1.465 . S
C3484 C3479 1.399 . S
C3484 C3483 1.394 . S
C3484 C3485 1.516 . S
C3485 C3484 1.516 . S
C3485 C3486 1.502 . S
C3485 C3487 1.561 . S
C3485 C3488 1.526 . S
C3486 H3470 0.959 . S
C3486 H3471 0.959 . S
C3486 H3472 0.961 . S
C3486 C3485 1.502 . S
C3487 H3473 0.960 . S
C3487 H3474 0.961 . S
C3487 H3475 0.959 . S
C3487 C3485 1.561 . S
C3488 C3485 1.526 . S
C3488 C3489 1.396 . S
C3488 C3493 1.390 . S
C3489 C3483 1.465 . S
C3489 C3488 1.396 . S
C3489 C3490 1.399 . S
C3490 H3476 0.929 . S
C3490 C3489 1.399 . S
C3490 C3491 1.385 . S
C3491 H3477 0.931 . S
C3491 C3490 1.385 . S
C3491 C3492 1.389 . S
C3492 C3491 1.389 . S
C3492 C3493 1.387 . S
C3493 H3478 0.930 . S
C3493 C3488 1.390 . S
C3493 C3492 1.387 . S
H3494 C3506 0.930 . S
H3495 C3508 0.930 1_554 S
H3496 C3509 0.930 1_554 S
H3497 C3513 0.959 . S
H3498 C3513 0.959 . S
H3499 C3513 0.961 . S
H3500 C3514 0.960 . S
H3501 C3514 0.961 . S
H3502 C3514 0.959 . S
H3503 C3517 0.929 1_554 S
H3504 C3518 0.931 . S
H3505 C3520 0.930 . S
C3506 H3494 0.930 . S
C3506 C3507 1.399 . S
C3506 C3511 1.399 . S
C3507 C3506 1.399 . S
C3507 C3508 1.376 . S
C3508 H3495 0.930 1_556 S
C3508 C3507 1.376 . S
C3508 C3509 1.388 . S
C3509 H3496 0.930 1_556 S
C3509 C3508 1.388 . S
C3509 C3510 1.390 . S
C3510 C3509 1.390 . S
C3510 C3511 1.394 . S
C3510 C3516 1.465 . S
C3511 C3506 1.399 . S
C3511 C3510 1.394 . S
C3511 C3512 1.516 . S
C3512 C3511 1.516 . S
C3512 C3513 1.502 . S
C3512 C3514 1.561 . S
C3512 C3515 1.526 . S
C3513 H3497 0.959 . S
C3513 H3498 0.959 . S
C3513 H3499 0.961 . S
C3513 C3512 1.502 . S
C3514 H3500 0.960 . S
C3514 H3501 0.961 . S
C3514 H3502 0.959 . S
C3514 C3512 1.561 . S
C3515 C3512 1.526 . S
C3515 C3516 1.396 . S
C3515 C3520 1.390 . S
C3516 C3510 1.465 . S
C3516 C3515 1.396 . S
C3516 C3517 1.399 . S
C3517 H3503 0.929 1_556 S
C3517 C3516 1.399 . S
C3517 C3518 1.385 . S
C3518 H3504 0.931 . S
C3518 C3517 1.385 . S
C3518 C3519 1.389 . S
C3519 C3518 1.389 . S
C3519 C3520 1.387 . S
C3520 H3505 0.930 . S
C3520 C3515 1.390 . S
C3520 C3519 1.387 . S
H3521 C3533 0.930 . S
H3522 C3535 0.930 . S
H3523 C3536 0.930 . S
H3524 C3540 0.959 1_556 S
H3525 C3540 0.959 . S
H3526 C3540 0.961 . S
H3527 C3541 0.960 . S
H3528 C3541 0.961 . S
H3529 C3541 0.959 1_556 S
H3530 C3544 0.929 . S
H3531 C3545 0.931 . S
H3532 C3547 0.930 1_554 S
C3533 H3521 0.930 . S
C3533 C3534 1.399 . S
C3533 C3538 1.399 . S
C3534 C3533 1.399 . S
C3534 C3535 1.376 . S
C3535 H3522 0.930 . S
C3535 C3534 1.376 . S
C3535 C3536 1.388 . S
C3536 H3523 0.930 . S
C3536 C3535 1.388 . S
C3536 C3537 1.390 . S
C3537 C3536 1.390 . S
C3537 C3538 1.394 . S
C3537 C3543 1.465 . S
C3538 C3533 1.399 . S
C3538 C3537 1.394 . S
C3538 C3539 1.516 . S
C3539 C3538 1.516 . S
C3539 C3540 1.502 1_556 S
C3539 C3541 1.561 1_556 S
C3539 C3542 1.526 . S
C3540 H3524 0.959 1_554 S
C3540 H3525 0.959 . S
C3540 H3526 0.961 . S
C3540 C3539 1.502 1_554 S
C3541 H3527 0.960 . S
C3541 H3528 0.961 . S
C3541 H3529 0.959 1_554 S
C3541 C3539 1.561 1_554 S
C3542 C3539 1.526 . S
C3542 C3543 1.396 . S
C3542 C3547 1.390 . S
C3543 C3537 1.465 . S
C3543 C3542 1.396 . S
C3543 C3544 1.399 . S
C3544 H3530 0.929 . S
C3544 C3543 1.399 . S
C3544 C3545 1.385 . S
C3545 H3531 0.931 . S
C3545 C3544 1.385 . S
C3545 C3546 1.389 . S
C3546 C3545 1.389 . S
C3546 C3547 1.387 . S
C3547 H3532 0.930 1_556 S
C3547 C3542 1.390 . S
C3547 C3546 1.387 . S
H3548 C3560 0.930 . S
H3549 C3562 0.930 . S
H3550 C3563 0.930 . S
H3551 C3567 0.959 . S
H3552 C3567 0.959 . S
H3553 C3567 0.961 . S
H3554 C3568 0.960 . S
H3555 C3568 0.961 . S
H3556 C3568 0.959 . S
H3557 C3571 0.929 . S
H3558 C3572 0.931 . S
H3559 C3574 0.930 . S
C3560 H3548 0.930 . S
C3560 C3561 1.399 . S
C3560 C3565 1.399 . S
C3561 C3560 1.399 . S
C3561 C3562 1.376 . S
C3562 H3549 0.930 . S
C3562 C3561 1.376 . S
C3562 C3563 1.388 . S
C3563 H3550 0.930 . S
C3563 C3562 1.388 . S
C3563 C3564 1.390 . S
C3564 C3563 1.390 . S
C3564 C3565 1.394 . S
C3564 C3570 1.465 . S
C3565 C3560 1.399 . S
C3565 C3564 1.394 . S
C3565 C3566 1.516 . S
C3566 C3565 1.516 . S
C3566 C3567 1.502 . S
C3566 C3568 1.561 . S
C3566 C3569 1.526 . S
C3567 H3551 0.959 . S
C3567 H3552 0.959 . S
C3567 H3553 0.961 . S
C3567 C3566 1.502 . S
C3568 H3554 0.960 . S
C3568 H3555 0.961 . S
C3568 H3556 0.959 . S
C3568 C3566 1.561 . S
C3569 C3566 1.526 . S
C3569 C3570 1.396 . S
C3569 C3574 1.390 . S
C3570 C3564 1.465 . S
C3570 C3569 1.396 . S
C3570 C3571 1.399 . S
C3571 H3557 0.929 . S
C3571 C3570 1.399 . S
C3571 C3572 1.385 . S
C3572 H3558 0.931 . S
C3572 C3571 1.385 . S
C3572 C3573 1.389 . S
C3573 C3572 1.389 . S
C3573 C3574 1.387 . S
C3574 H3559 0.930 . S
C3574 C3569 1.390 . S
C3574 C3573 1.387 . S
H3575 C3587 0.930 . S
H3576 C3589 0.930 . S
H3577 C3590 0.930 . S
H3578 C3594 0.959 . S
H3579 C3594 0.959 . S
H3580 C3594 0.961 . S
H3581 C3595 0.960 . S
H3582 C3595 0.961 . S
H3583 C3595 0.959 . S
H3584 C3598 0.929 . S
H3585 C3599 0.931 . S
H3586 C3601 0.930 . S
C3587 H3575 0.930 . S
C3587 C3588 1.399 . S
C3587 C3592 1.399 . S
C3588 C3587 1.399 . S
C3588 C3589 1.376 . S
C3589 H3576 0.930 . S
C3589 C3588 1.376 . S
C3589 C3590 1.388 . S
C3590 H3577 0.930 . S
C3590 C3589 1.388 . S
C3590 C3591 1.390 . S
C3591 C3590 1.390 . S
C3591 C3592 1.394 . S
C3591 C3597 1.465 . S
C3592 C3587 1.399 . S
C3592 C3591 1.394 . S
C3592 C3593 1.516 . S
C3593 C3592 1.516 . S
C3593 C3594 1.502 . S
C3593 C3595 1.561 . S
C3593 C3596 1.526 . S
C3594 H3578 0.959 . S
C3594 H3579 0.959 . S
C3594 H3580 0.961 . S
C3594 C3593 1.502 . S
C3595 H3581 0.960 . S
C3595 H3582 0.961 . S
C3595 H3583 0.959 . S
C3595 C3593 1.561 . S
C3596 C3593 1.526 . S
C3596 C3597 1.396 . S
C3596 C3601 1.390 . S
C3597 C3591 1.465 . S
C3597 C3596 1.396 . S
C3597 C3598 1.399 . S
C3598 H3584 0.929 . S
C3598 C3597 1.399 . S
C3598 C3599 1.385 . S
C3599 H3585 0.931 . S
C3599 C3598 1.385 . S
C3599 C3600 1.389 . S
C3600 C3599 1.389 . S
C3600 C3601 1.387 . S
C3601 H3586 0.930 . S
C3601 C3596 1.390 . S
C3601 C3600 1.387 . S
H3602 C3614 0.930 . S
H3603 C3616 0.930 . S
H3604 C3617 0.930 . S
H3605 C3621 0.959 . S
H3606 C3621 0.959 . S
H3607 C3621 0.961 . S
H3608 C3622 0.960 . S
H3609 C3622 0.961 . S
H3610 C3622 0.959 . S
H3611 C3625 0.929 . S
H3612 C3626 0.931 . S
H3613 C3628 0.930 . S
C3614 H3602 0.930 . S
C3614 C3615 1.399 . S
C3614 C3619 1.399 . S
C3615 C3614 1.399 . S
C3615 C3616 1.376 . S
C3616 H3603 0.930 . S
C3616 C3615 1.376 . S
C3616 C3617 1.388 . S
C3617 H3604 0.930 . S
C3617 C3616 1.388 . S
C3617 C3618 1.390 . S
C3618 C3617 1.390 . S
C3618 C3619 1.394 . S
C3618 C3624 1.465 . S
C3619 C3614 1.399 . S
C3619 C3618 1.394 . S
C3619 C3620 1.516 . S
C3620 C3619 1.516 . S
C3620 C3621 1.502 . S
C3620 C3622 1.561 . S
C3620 C3623 1.526 . S
C3621 H3605 0.959 . S
C3621 H3606 0.959 . S
C3621 H3607 0.961 . S
C3621 C3620 1.502 . S
C3622 H3608 0.960 . S
C3622 H3609 0.961 . S
C3622 H3610 0.959 . S
C3622 C3620 1.561 . S
C3623 C3620 1.526 . S
C3623 C3624 1.396 . S
C3623 C3628 1.390 . S
C3624 C3618 1.465 . S
C3624 C3623 1.396 . S
C3624 C3625 1.399 . S
C3625 H3611 0.929 . S
C3625 C3624 1.399 . S
C3625 C3626 1.385 . S
C3626 H3612 0.931 . S
C3626 C3625 1.385 . S
C3626 C3627 1.389 . S
C3627 C3626 1.389 . S
C3627 C3628 1.387 . S
C3628 H3613 0.930 . S
C3628 C3623 1.390 . S
C3628 C3627 1.387 . S
H3629 C3641 0.930 . S
H3630 C3643 0.930 . S
H3631 C3644 0.930 . S
H3632 C3648 0.959 . S
H3633 C3648 0.959 . S
H3634 C3648 0.961 . S
H3635 C3649 0.960 . S
H3636 C3649 0.961 . S
H3637 C3649 0.959 . S
H3638 C3652 0.929 . S
H3639 C3653 0.931 . S
H3640 C3655 0.930 . S
C3641 H3629 0.930 . S
C3641 C3642 1.399 . S
C3641 C3646 1.399 . S
C3642 C3641 1.399 . S
C3642 C3643 1.376 . S
C3643 H3630 0.930 . S
C3643 C3642 1.376 . S
C3643 C3644 1.388 . S
C3644 H3631 0.930 . S
C3644 C3643 1.388 . S
C3644 C3645 1.390 . S
C3645 C3644 1.390 . S
C3645 C3646 1.394 . S
C3645 C3651 1.465 . S
C3646 C3641 1.399 . S
C3646 C3645 1.394 . S
C3646 C3647 1.516 . S
C3647 C3646 1.516 . S
C3647 C3648 1.502 . S
C3647 C3649 1.561 . S
C3647 C3650 1.526 . S
C3648 H3632 0.959 . S
C3648 H3633 0.959 . S
C3648 H3634 0.961 . S
C3648 C3647 1.502 . S
C3649 H3635 0.960 . S
C3649 H3636 0.961 . S
C3649 H3637 0.959 . S
C3649 C3647 1.561 . S
C3650 C3647 1.526 . S
C3650 C3651 1.396 . S
C3650 C3655 1.390 . S
C3651 C3645 1.465 . S
C3651 C3650 1.396 . S
C3651 C3652 1.399 . S
C3652 H3638 0.929 . S
C3652 C3651 1.399 . S
C3652 C3653 1.385 . S
C3653 H3639 0.931 . S
C3653 C3652 1.385 . S
C3653 C3654 1.389 . S
C3654 C3653 1.389 . S
C3654 C3655 1.387 . S
C3655 H3640 0.930 . S
C3655 C3650 1.390 . S
C3655 C3654 1.387 . S
H3656 C3668 0.930 . S
H3657 C3670 0.930 . S
H3658 C3671 0.930 . S
H3659 C3675 0.959 . S
H3660 C3675 0.959 . S
H3661 C3675 0.961 . S
H3662 C3676 0.960 . S
H3663 C3676 0.961 . S
H3664 C3676 0.959 . S
H3665 C3679 0.929 . S
H3666 C3680 0.931 . S
H3667 C3682 0.930 . S
C3668 H3656 0.930 . S
C3668 C3669 1.399 . S
C3668 C3673 1.399 . S
C3669 C3668 1.399 . S
C3669 C3670 1.376 . S
C3670 H3657 0.930 . S
C3670 C3669 1.376 . S
C3670 C3671 1.388 . S
C3671 H3658 0.930 . S
C3671 C3670 1.388 . S
C3671 C3672 1.390 . S
C3672 C3671 1.390 . S
C3672 C3673 1.394 . S
C3672 C3678 1.465 . S
C3673 C3668 1.399 . S
C3673 C3672 1.394 . S
C3673 C3674 1.516 . S
C3674 C3673 1.516 . S
C3674 C3675 1.502 . S
C3674 C3676 1.561 . S
C3674 C3677 1.526 . S
C3675 H3659 0.959 . S
C3675 H3660 0.959 . S
C3675 H3661 0.961 . S
C3675 C3674 1.502 . S
C3676 H3662 0.960 . S
C3676 H3663 0.961 . S
C3676 H3664 0.959 . S
C3676 C3674 1.561 . S
C3677 C3674 1.526 . S
C3677 C3678 1.396 . S
C3677 C3682 1.390 . S
C3678 C3672 1.465 . S
C3678 C3677 1.396 . S
C3678 C3679 1.399 . S
C3679 H3665 0.929 . S
C3679 C3678 1.399 . S
C3679 C3680 1.385 . S
C3680 H3666 0.931 . S
C3680 C3679 1.385 . S
C3680 C3681 1.389 . S
C3681 C3680 1.389 . S
C3681 C3682 1.387 . S
C3682 H3667 0.930 . S
C3682 C3677 1.390 . S
C3682 C3681 1.387 . S
H3683 C3695 0.930 . S
H3684 C3697 0.930 . S
H3685 C3698 0.930 . S
H3686 C3702 0.959 . S
H3687 C3702 0.959 . S
H3688 C3702 0.961 . S
H3689 C3703 0.960 . S
H3690 C3703 0.961 . S
H3691 C3703 0.959 . S
H3692 C3706 0.929 . S
H3693 C3707 0.931 . S
H3694 C3709 0.930 . S
C3695 H3683 0.930 . S
C3695 C3696 1.399 . S
C3695 C3700 1.399 . S
C3696 C3695 1.399 . S
C3696 C3697 1.376 . S
C3697 H3684 0.930 . S
C3697 C3696 1.376 . S
C3697 C3698 1.388 . S
C3698 H3685 0.930 . S
C3698 C3697 1.388 . S
C3698 C3699 1.390 . S
C3699 C3698 1.390 . S
C3699 C3700 1.394 . S
C3699 C3705 1.465 . S
C3700 C3695 1.399 . S
C3700 C3699 1.394 . S
C3700 C3701 1.516 . S
C3701 C3700 1.516 . S
C3701 C3702 1.502 . S
C3701 C3703 1.561 . S
C3701 C3704 1.526 . S
C3702 H3686 0.959 . S
C3702 H3687 0.959 . S
C3702 H3688 0.961 . S
C3702 C3701 1.502 . S
C3703 H3689 0.960 . S
C3703 H3690 0.961 . S
C3703 H3691 0.959 . S
C3703 C3701 1.561 . S
C3704 C3701 1.526 . S
C3704 C3705 1.396 . S
C3704 C3709 1.390 . S
C3705 C3699 1.465 . S
C3705 C3704 1.396 . S
C3705 C3706 1.399 . S
C3706 H3692 0.929 . S
C3706 C3705 1.399 . S
C3706 C3707 1.385 . S
C3707 H3693 0.931 . S
C3707 C3706 1.385 . S
C3707 C3708 1.389 . S
C3708 C3707 1.389 . S
C3708 C3709 1.387 . S
C3709 H3694 0.930 . S
C3709 C3704 1.390 . S
C3709 C3708 1.387 . S
H3710 C3722 0.930 . S
H3711 C3724 0.930 . S
H3712 C3725 0.930 . S
H3713 C3729 0.959 . S
H3714 C3729 0.959 . S
H3715 C3729 0.961 . S
H3716 C3730 0.960 . S
H3717 C3730 0.961 . S
H3718 C3730 0.959 . S
H3719 C3733 0.929 . S
H3720 C3734 0.931 . S
H3721 C3736 0.930 . S
C3722 H3710 0.930 . S
C3722 C3723 1.399 . S
C3722 C3727 1.399 . S
C3723 C3722 1.399 . S
C3723 C3724 1.376 . S
C3724 H3711 0.930 . S
C3724 C3723 1.376 . S
C3724 C3725 1.388 . S
C3725 H3712 0.930 . S
C3725 C3724 1.388 . S
C3725 C3726 1.390 . S
C3726 C3725 1.390 . S
C3726 C3727 1.394 . S
C3726 C3732 1.465 . S
C3727 C3722 1.399 . S
C3727 C3726 1.394 . S
C3727 C3728 1.516 . S
C3728 C3727 1.516 . S
C3728 C3729 1.502 . S
C3728 C3730 1.561 . S
C3728 C3731 1.526 . S
C3729 H3713 0.959 . S
C3729 H3714 0.959 . S
C3729 H3715 0.961 . S
C3729 C3728 1.502 . S
C3730 H3716 0.960 . S
C3730 H3717 0.961 . S
C3730 H3718 0.959 . S
C3730 C3728 1.561 . S
C3731 C3728 1.526 . S
C3731 C3732 1.396 . S
C3731 C3736 1.390 . S
C3732 C3726 1.465 . S
C3732 C3731 1.396 . S
C3732 C3733 1.399 . S
C3733 H3719 0.929 . S
C3733 C3732 1.399 . S
C3733 C3734 1.385 . S
C3734 H3720 0.931 . S
C3734 C3733 1.385 . S
C3734 C3735 1.389 . S
C3735 C3734 1.389 . S
C3735 C3736 1.387 . S
C3736 H3721 0.930 . S
C3736 C3731 1.390 . S
C3736 C3735 1.387 . S
H3737 C3749 0.930 . S
H3738 C3751 0.930 . S
H3739 C3752 0.930 . S
H3740 C3756 0.959 . S
H3741 C3756 0.959 . S
H3742 C3756 0.961 . S
H3743 C3757 0.960 . S
H3744 C3757 0.961 . S
H3745 C3757 0.959 . S
H3746 C3760 0.929 . S
H3747 C3761 0.931 . S
H3748 C3763 0.930 . S
C3749 H3737 0.930 . S
C3749 C3750 1.399 . S
C3749 C3754 1.399 . S
C3750 C3749 1.399 . S
C3750 C3751 1.376 . S
C3751 H3738 0.930 . S
C3751 C3750 1.376 . S
C3751 C3752 1.388 . S
C3752 H3739 0.930 . S
C3752 C3751 1.388 . S
C3752 C3753 1.390 . S
C3753 C3752 1.390 . S
C3753 C3754 1.394 . S
C3753 C3759 1.465 . S
C3754 C3749 1.399 . S
C3754 C3753 1.394 . S
C3754 C3755 1.516 . S
C3755 C3754 1.516 . S
C3755 C3756 1.502 . S
C3755 C3757 1.561 . S
C3755 C3758 1.526 . S
C3756 H3740 0.959 . S
C3756 H3741 0.959 . S
C3756 H3742 0.961 . S
C3756 C3755 1.502 . S
C3757 H3743 0.960 . S
C3757 H3744 0.961 . S
C3757 H3745 0.959 . S
C3757 C3755 1.561 . S
C3758 C3755 1.526 . S
C3758 C3759 1.396 . S
C3758 C3763 1.390 . S
C3759 C3753 1.465 . S
C3759 C3758 1.396 . S
C3759 C3760 1.399 . S
C3760 H3746 0.929 . S
C3760 C3759 1.399 . S
C3760 C3761 1.385 . S
C3761 H3747 0.931 . S
C3761 C3760 1.385 . S
C3761 C3762 1.389 . S
C3762 C3761 1.389 . S
C3762 C3763 1.387 . S
C3763 H3748 0.930 . S
C3763 C3758 1.390 . S
C3763 C3762 1.387 . S
H3764 C3776 0.930 . S
H3765 C3778 0.930 . S
H3766 C3779 0.930 . S
H3767 C3783 0.959 . S
H3768 C3783 0.959 . S
H3769 C3783 0.961 . S
H3770 C3784 0.960 . S
H3771 C3784 0.961 . S
H3772 C3784 0.959 . S
H3773 C3787 0.929 . S
H3774 C3788 0.931 1_556 S
H3775 C3790 0.930 . S
C3776 H3764 0.930 . S
C3776 C3777 1.399 . S
C3776 C3781 1.399 . S
C3777 C3776 1.399 . S
C3777 C3778 1.376 . S
C3778 H3765 0.930 . S
C3778 C3777 1.376 . S
C3778 C3779 1.388 . S
C3779 H3766 0.930 . S
C3779 C3778 1.388 . S
C3779 C3780 1.390 . S
C3780 C3779 1.390 . S
C3780 C3781 1.394 . S
C3780 C3786 1.465 . S
C3781 C3776 1.399 . S
C3781 C3780 1.394 . S
C3781 C3782 1.516 . S
C3782 C3781 1.516 . S
C3782 C3783 1.502 . S
C3782 C3784 1.561 . S
C3782 C3785 1.526 . S
C3783 H3767 0.959 . S
C3783 H3768 0.959 . S
C3783 H3769 0.961 . S
C3783 C3782 1.502 . S
C3784 H3770 0.960 . S
C3784 H3771 0.961 . S
C3784 H3772 0.959 . S
C3784 C3782 1.561 . S
C3785 C3782 1.526 . S
C3785 C3786 1.396 . S
C3785 C3790 1.390 . S
C3786 C3780 1.465 . S
C3786 C3785 1.396 . S
C3786 C3787 1.399 . S
C3787 H3773 0.929 . S
C3787 C3786 1.399 . S
C3787 C3788 1.385 . S
C3788 H3774 0.931 1_554 S
C3788 C3787 1.385 . S
C3788 C3789 1.389 . S
C3789 C3788 1.389 . S
C3789 C3790 1.387 . S
C3790 H3775 0.930 . S
C3790 C3785 1.390 . S
C3790 C3789 1.387 . S
H3791 C3803 0.930 . S
H3792 C3805 0.930 . S
H3793 C3806 0.930 . S
H3794 C3810 0.959 . S
H3795 C3810 0.959 . S
H3796 C3810 0.961 . S
H3797 C3811 0.960 . S
H3798 C3811 0.961 . S
H3799 C3811 0.959 . S
H3800 C3814 0.929 1_556 S
H3801 C3815 0.931 1_556 S
H3802 C3817 0.930 . S
C3803 H3791 0.930 . S
C3803 C3804 1.399 . S
C3803 C3808 1.399 . S
C3804 C3803 1.399 . S
C3804 C3805 1.376 . S
C3805 H3792 0.930 . S
C3805 C3804 1.376 . S
C3805 C3806 1.388 . S
C3806 H3793 0.930 . S
C3806 C3805 1.388 . S
C3806 C3807 1.390 . S
C3807 C3806 1.390 . S
C3807 C3808 1.394 . S
C3807 C3813 1.465 . S
C3808 C3803 1.399 . S
C3808 C3807 1.394 . S
C3808 C3809 1.516 . S
C3809 C3808 1.516 . S
C3809 C3810 1.502 . S
C3809 C3811 1.561 . S
C3809 C3812 1.526 . S
C3810 H3794 0.959 . S
C3810 H3795 0.959 . S
C3810 H3796 0.961 . S
C3810 C3809 1.502 . S
C3811 H3797 0.960 . S
C3811 H3798 0.961 . S
C3811 H3799 0.959 . S
C3811 C3809 1.561 . S
C3812 C3809 1.526 . S
C3812 C3813 1.396 . S
C3812 C3817 1.390 . S
C3813 C3807 1.465 . S
C3813 C3812 1.396 . S
C3813 C3814 1.399 . S
C3814 H3800 0.929 1_554 S
C3814 C3813 1.399 . S
C3814 C3815 1.385 . S
C3815 H3801 0.931 1_554 S
C3815 C3814 1.385 . S
C3815 C3816 1.389 . S
C3816 C3815 1.389 . S
C3816 C3817 1.387 . S
C3817 H3802 0.930 . S
C3817 C3812 1.390 . S
C3817 C3816 1.387 . S
H3818 C3830 0.930 . S
H3819 C3832 0.930 . S
H3820 C3833 0.930 . S
H3821 C3837 0.959 . S
H3822 C3837 0.959 . S
H3823 C3837 0.961 . S
H3824 C3838 0.960 . S
H3825 C3838 0.961 . S
H3826 C3838 0.959 . S
H3827 C3841 0.929 . S
H3828 C3842 0.931 . S
H3829 C3844 0.930 . S
C3830 H3818 0.930 . S
C3830 C3831 1.399 . S
C3830 C3835 1.399 . S
C3831 C3830 1.399 . S
C3831 C3832 1.376 . S
C3832 H3819 0.930 . S
C3832 C3831 1.376 . S
C3832 C3833 1.388 . S
C3833 H3820 0.930 . S
C3833 C3832 1.388 . S
C3833 C3834 1.390 . S
C3834 C3833 1.390 . S
C3834 C3835 1.394 . S
C3834 C3840 1.465 . S
C3835 C3830 1.399 . S
C3835 C3834 1.394 . S
C3835 C3836 1.516 . S
C3836 C3835 1.516 . S
C3836 C3837 1.502 1_556 S
C3836 C3838 1.561 . S
C3836 C3839 1.526 . S
C3837 H3821 0.959 . S
C3837 H3822 0.959 . S
C3837 H3823 0.961 . S
C3837 C3836 1.502 1_554 S
C3838 H3824 0.960 . S
C3838 H3825 0.961 . S
C3838 H3826 0.959 . S
C3838 C3836 1.561 . S
C3839 C3836 1.526 . S
C3839 C3840 1.396 . S
C3839 C3844 1.390 . S
C3840 C3834 1.465 . S
C3840 C3839 1.396 . S
C3840 C3841 1.399 . S
C3841 H3827 0.929 . S
C3841 C3840 1.399 . S
C3841 C3842 1.385 . S
C3842 H3828 0.931 . S
C3842 C3841 1.385 . S
C3842 C3843 1.389 . S
C3843 C3842 1.389 . S
C3843 C3844 1.387 . S
C3844 H3829 0.930 . S
C3844 C3839 1.390 . S
C3844 C3843 1.387 . S
H3845 C3857 0.930 1_554 S
H3846 C3859 0.930 . S
H3847 C3860 0.930 . S
H3848 C3864 0.959 . S
H3849 C3864 0.959 . S
H3850 C3864 0.961 . S
H3851 C3865 0.960 1_554 S
H3852 C3865 0.961 1_554 S
H3853 C3865 0.959 . S
H3854 C3868 0.929 . S
H3855 C3869 0.931 . S
H3856 C3871 0.930 . S
C3857 H3845 0.930 1_556 S
C3857 C3858 1.399 . S
C3857 C3862 1.399 . S
C3858 C3857 1.399 . S
C3858 C3859 1.376 . S
C3859 H3846 0.930 . S
C3859 C3858 1.376 . S
C3859 C3860 1.388 . S
C3860 H3847 0.930 . S
C3860 C3859 1.388 . S
C3860 C3861 1.390 . S
C3861 C3860 1.390 . S
C3861 C3862 1.394 . S
C3861 C3867 1.465 . S
C3862 C3857 1.399 . S
C3862 C3861 1.394 . S
C3862 C3863 1.516 . S
C3863 C3862 1.516 . S
C3863 C3864 1.502 1_556 S
C3863 C3865 1.561 . S
C3863 C3866 1.526 . S
C3864 H3848 0.959 . S
C3864 H3849 0.959 . S
C3864 H3850 0.961 . S
C3864 C3863 1.502 1_554 S
C3865 H3851 0.960 1_556 S
C3865 H3852 0.961 1_556 S
C3865 H3853 0.959 . S
C3865 C3863 1.561 . S
C3866 C3863 1.526 . S
C3866 C3867 1.396 . S
C3866 C3871 1.390 . S
C3867 C3861 1.465 . S
C3867 C3866 1.396 . S
C3867 C3868 1.399 . S
C3868 H3854 0.929 . S
C3868 C3867 1.399 . S
C3868 C3869 1.385 . S
C3869 H3855 0.931 . S
C3869 C3868 1.385 . S
C3869 C3870 1.389 . S
C3870 C3869 1.389 . S
C3870 C3871 1.387 . S
C3871 H3856 0.930 . S
C3871 C3866 1.390 . S
C3871 C3870 1.387 . S
C1293 C1135 1.823 1_554 S
C1305 C6 1.792 1_556 S
C1320 C215 1.771 1_554 S
C1332 C46 1.830 1_556 S
C1347 C895 1.768 . S
C1359 C86 1.836 . S
C1374 C615 1.822 . S
C1386 C126 1.794 . S
C1401 C175 1.800 1_554 S
C1413 C966 1.796 1_556 S
C1428 C726 1.797 1_545 S
C1440 C255 1.819 . S
C1455 C446 1.788 . S
C1467 C295 1.807 . S
C1482 C815 1.817 . S
C1494 C326 1.780 . S
C1509 C366 1.778 . S
C1521 C535 1.818 . S
C1536 C406 1.833 . S
C1548 C1215 1.780 . S
C1563 C646 1.810 . S
C1575 C495 1.806 . S
C1590 C575 1.836 . S
C1602 C1046 1.775 . S
C1617 C686 1.768 . S
C1629 C855 1.834 . S
C1644 C766 1.776 . S
C1656 C1255 1.821 . S
C1671 C1086 1.775 . S
C1683 C935 1.822 . S
C1698 C1175 1.820 1_554 S
C1710 C1006 1.795 1_556 S
C1725 C775 2.126 . S
C1737 C15 2.175 . S
C1752 C735 2.127 . S
C1764 C55 2.173 . S
C1779 C695 2.189 . S
C1791 C95 2.121 . S
C1806 C655 2.180 . S
C1818 C135 2.135 . S
C1833 C926 2.182 . S
C1845 C166 2.138 . S
C1860 C206 2.190 . S
C1872 C886 2.120 . S
C1887 C246 2.183 . S
C1899 C846 2.136 . S
C1914 C286 2.117 . S
C1926 C806 2.183 . S
C1941 C335 2.132 . S
C1953 C1095 2.169 . S
C1968 C375 2.174 . S
C1980 C1055 2.141 . S
C1995 C415 2.133 . S
C2007 C1015 2.167 . S
C2022 C975 2.181 . S
C2034 C455 2.134 . S
C2049 C486 2.182 . S
C2061 C1246 2.138 . S
C2076 C526 2.122 . S
C2088 C1206 2.175 . S
C2103 C566 2.185 . S
C2115 C1166 2.133 . S
C2130 C1126 2.189 . S
C2142 C606 2.118 . S
C2157 C19 2.386 . S
C2169 C10 2.419 1_556 S
C2184 C59 2.422 1_565 S
C2196 C50 2.389 1_556 S
C2211 C90 2.416 . S
C2223 C99 2.399 1_565 S
C2238 C130 2.391 . S
C2250 C139 2.412 . S
C2265 C179 2.387 1_554 S
C2277 C170 2.417 . S
C2292 C219 2.385 1_554 S
C2304 C210 2.422 1_545 S
C2319 C259 2.417 . S
C2331 C250 2.397 . S
C2346 C290 2.395 . S
C2358 C299 2.408 . S
C2373 C339 2.423 1_554 S
C2385 C330 2.389 . S
C2400 C370 2.416 . S
C2412 C379 2.398 1_554 S
C2427 C410 2.396 . S
C2439 C419 2.407 . S
C2454 C450 2.423 . S
C2466 C459 2.386 . S
C2481 C499 2.421 . S
C2493 C490 2.391 1_556 S
C2508 C530 2.414 1_556 S
C2520 C539 2.401 . S
C2535 C579 2.422 . S
C2547 C570 2.390 . S
C2562 C610 2.394 . S
C2574 C619 2.410 . S
C2589 C659 2.421 1_554 S
C2601 C650 2.391 . S
C2616 C690 2.417 . S
C2628 C699 2.397 1_564 S
C2643 C730 2.396 . S
C2655 C739 2.407 . S
C2670 C770 2.417 . S
C2682 C779 2.397 . S
C2697 C810 2.390 1_556 S
C2709 C819 2.413 . S
C2724 C859 2.385 . S
C2736 C850 2.422 1_546 S
C2751 C890 2.421 1_545 S
C2763 C899 2.386 . S
C2778 C930 2.421 . S
C2790 C939 2.391 . S
C2805 C979 2.389 . S
C2817 C970 2.415 1_556 S
C2832 C1010 2.393 1_556 S
C2844 C1019 2.410 . S
C2859 C1050 2.416 . S
C2871 C1059 2.398 . S
C2886 C1099 2.392 . S
C2898 C1090 2.411 . S
C2913 C1139 2.387 1_554 S
C2925 C1130 2.417 . S
C2940 C1170 2.415 . S
C2952 C1179 2.399 1_554 S
C2967 C1210 2.416 . S
C2979 C1219 2.398 . S
C2994 C1250 2.418 . S
C3006 C1259 2.396 . S
C3021 C409 1.509 . S
C3033 C9 1.458 . S
C3048 C449 1.442 . S
C3060 C49 1.467 . S
C3075 C89 1.523 . S
C3087 C329 1.487 . S
C3102 C369 1.495 . S
C3114 C129 1.524 . S
C3129 C178 1.462 . S
C3141 C578 1.444 . S
C3156 C218 1.483 . S
C3168 C618 1.456 . S
C3183 C258 1.473 . S
C3195 C498 1.449 . S
C3210 C298 1.504 . S
C3222 C538 1.522 . S
C3237 C1049 1.524 . S
C3249 C649 1.487 . S
C3264 C689 1.444 . S
C3276 C1089 1.490 . S
C3291 C969 1.520 . S
C3303 C729 1.476 . S
C3318 C769 1.520 . S
C3330 C1009 1.509 . S
C3345 C1218 1.507 . S
C3357 C818 1.523 . S
C3372 C858 1.474 . S
C3384 C1258 1.450 . S
C3399 C898 1.458 . S
C3411 C1138 1.442 . S
C3426 C1178 1.478 . S
C3438 C938 1.452 . S
C3453 C18 1.498 . S
C3465 C98 1.495 . S
C3480 C138 1.451 . S
C3492 C58 1.453 . S
C3507 C249 1.508 . S
C3519 C169 1.492 . S
C3534 C209 1.506 . S
C3546 C289 1.489 . S
C3561 C338 1.486 . S
C3573 C418 1.483 . S
C3588 C458 1.504 . S
C3600 C378 1.501 . S
C3615 C569 1.462 . S
C3627 C489 1.479 . S
C3642 C609 1.449 . S
C3654 C529 1.457 . S
C3669 C738 1.458 . S
C3681 C658 1.461 . S
C3696 C778 1.466 . S
C3708 C698 1.470 . S
C3723 C889 1.521 . S
C3735 C809 1.517 . S
C3750 C929 1.508 . S
C3762 C849 1.492 . S
C3777 C978 1.517 . S
C3789 C1058 1.515 . S
C3804 C1018 1.511 . S
C3816 C1098 1.508 . S
C3831 C1129 1.487 . S
C3843 C1209 1.469 . S
C3858 C1249 1.471 . S
C3870 C1169 1.490 . S
