# Generated by pormake.
# Topology uod, (4)-cn, num edge types: 1
# Building blocks:
#     Node 0, Type 0, BuildingBlock: CEKHIL_clean_sbu_0, # of connection points: 4
#     Node 1, Type 0, BuildingBlock: CEKHIL_clean_sbu_0, # of connection points: 4
#     Node 2, Type 0, BuildingBlock: CEKHIL_clean_sbu_0, # of connection points: 4
#     Node 3, Type 0, BuildingBlock: CEKHIL_clean_sbu_0, # of connection points: 4
#     Node 4, Type 0, BuildingBlock: CEKHIL_clean_sbu_0, # of connection points: 4
#     Node 5, Type 0, BuildingBlock: CEKHIL_clean_sbu_0, # of connection points: 4
#     Node 6, Type 0, BuildingBlock: CEKHIL_clean_sbu_0, # of connection points: 4
#     Node 7, Type 0, BuildingBlock: CEKHIL_clean_sbu_0, # of connection points: 4
#     Node 8, Type 0, BuildingBlock: CEKHIL_clean_sbu_0, # of connection points: 4
#     Node 9, Type 0, BuildingBlock: CEKHIL_clean_sbu_0, # of connection points: 4
#     Node 10, Type 0, BuildingBlock: CEKHIL_clean_sbu_0, # of connection points: 4
#     Node 11, Type 0, BuildingBlock: CEKHIL_clean_sbu_0, # of connection points: 4
#     Node 12, Type 0, BuildingBlock: CEKHIL_clean_sbu_0, # of connection points: 4
#     Node 13, Type 0, BuildingBlock: CEKHIL_clean_sbu_0, # of connection points: 4
#     Node 14, Type 0, BuildingBlock: CEKHIL_clean_sbu_0, # of connection points: 4
#     Node 15, Type 0, BuildingBlock: CEKHIL_clean_sbu_0, # of connection points: 4
#     Node 16, Type 0, BuildingBlock: CEKHIL_clean_sbu_0, # of connection points: 4
#     Node 17, Type 0, BuildingBlock: CEKHIL_clean_sbu_0, # of connection points: 4
#     Node 18, Type 0, BuildingBlock: CEKHIL_clean_sbu_0, # of connection points: 4
#     Node 19, Type 0, BuildingBlock: CEKHIL_clean_sbu_0, # of connection points: 4
#     Node 20, Type 0, BuildingBlock: CEKHIL_clean_sbu_0, # of connection points: 4
#     Node 21, Type 0, BuildingBlock: CEKHIL_clean_sbu_0, # of connection points: 4
#     Node 22, Type 0, BuildingBlock: CEKHIL_clean_sbu_0, # of connection points: 4
#     Node 23, Type 0, BuildingBlock: CEKHIL_clean_sbu_0, # of connection points: 4
#     Node 24, Type 0, BuildingBlock: CEKHIL_clean_sbu_0, # of connection points: 4
#     Node 25, Type 0, BuildingBlock: CEKHIL_clean_sbu_0, # of connection points: 4
#     Node 26, Type 0, BuildingBlock: CEKHIL_clean_sbu_0, # of connection points: 4
#     Node 27, Type 0, BuildingBlock: CEKHIL_clean_sbu_0, # of connection points: 4
#     Node 28, Type 0, BuildingBlock: CEKHIL_clean_sbu_0, # of connection points: 4
#     Node 29, Type 0, BuildingBlock: CEKHIL_clean_sbu_0, # of connection points: 4
#     Node 30, Type 0, BuildingBlock: CEKHIL_clean_sbu_0, # of connection points: 4
#     Node 31, Type 0, BuildingBlock: CEKHIL_clean_sbu_0, # of connection points: 4
#     Edge 32, Type (0, 0), BuildingBlock: UVAHIK_clean_linker_0, # of connection points: 2
#     Edge 33, Type (0, 0), BuildingBlock: UVAHIK_clean_linker_0, # of connection points: 2
#     Edge 34, Type (0, 0), BuildingBlock: UVAHIK_clean_linker_0, # of connection points: 2
#     Edge 35, Type (0, 0), BuildingBlock: UVAHIK_clean_linker_0, # of connection points: 2
#     Edge 36, Type (0, 0), BuildingBlock: UVAHIK_clean_linker_0, # of connection points: 2
#     Edge 37, Type (0, 0), BuildingBlock: UVAHIK_clean_linker_0, # of connection points: 2
#     Edge 38, Type (0, 0), BuildingBlock: UVAHIK_clean_linker_0, # of connection points: 2
#     Edge 39, Type (0, 0), BuildingBlock: UVAHIK_clean_linker_0, # of connection points: 2
#     Edge 40, Type (0, 0), BuildingBlock: UVAHIK_clean_linker_0, # of connection points: 2
#     Edge 41, Type (0, 0), BuildingBlock: UVAHIK_clean_linker_0, # of connection points: 2
#     Edge 42, Type (0, 0), BuildingBlock: UVAHIK_clean_linker_0, # of connection points: 2
#     Edge 43, Type (0, 0), BuildingBlock: UVAHIK_clean_linker_0, # of connection points: 2
#     Edge 44, Type (0, 0), BuildingBlock: UVAHIK_clean_linker_0, # of connection points: 2
#     Edge 45, Type (0, 0), BuildingBlock: UVAHIK_clean_linker_0, # of connection points: 2
#     Edge 46, Type (0, 0), BuildingBlock: UVAHIK_clean_linker_0, # of connection points: 2
#     Edge 47, Type (0, 0), BuildingBlock: UVAHIK_clean_linker_0, # of connection points: 2
#     Edge 48, Type (0, 0), BuildingBlock: UVAHIK_clean_linker_0, # of connection points: 2
#     Edge 49, Type (0, 0), BuildingBlock: UVAHIK_clean_linker_0, # of connection points: 2
#     Edge 50, Type (0, 0), BuildingBlock: UVAHIK_clean_linker_0, # of connection points: 2
#     Edge 51, Type (0, 0), BuildingBlock: UVAHIK_clean_linker_0, # of connection points: 2
#     Edge 52, Type (0, 0), BuildingBlock: UVAHIK_clean_linker_0, # of connection points: 2
#     Edge 53, Type (0, 0), BuildingBlock: UVAHIK_clean_linker_0, # of connection points: 2
#     Edge 54, Type (0, 0), BuildingBlock: UVAHIK_clean_linker_0, # of connection points: 2
#     Edge 55, Type (0, 0), BuildingBlock: UVAHIK_clean_linker_0, # of connection points: 2
#     Edge 56, Type (0, 0), BuildingBlock: UVAHIK_clean_linker_0, # of connection points: 2
#     Edge 57, Type (0, 0), BuildingBlock: UVAHIK_clean_linker_0, # of connection points: 2
#     Edge 58, Type (0, 0), BuildingBlock: UVAHIK_clean_linker_0, # of connection points: 2
#     Edge 59, Type (0, 0), BuildingBlock: UVAHIK_clean_linker_0, # of connection points: 2
#     Edge 60, Type (0, 0), BuildingBlock: UVAHIK_clean_linker_0, # of connection points: 2
#     Edge 61, Type (0, 0), BuildingBlock: UVAHIK_clean_linker_0, # of connection points: 2
#     Edge 62, Type (0, 0), BuildingBlock: UVAHIK_clean_linker_0, # of connection points: 2
#     Edge 63, Type (0, 0), BuildingBlock: UVAHIK_clean_linker_0, # of connection points: 2
#     Edge 64, Type (0, 0), BuildingBlock: UVAHIK_clean_linker_0, # of connection points: 2
#     Edge 65, Type (0, 0), BuildingBlock: UVAHIK_clean_linker_0, # of connection points: 2
#     Edge 66, Type (0, 0), BuildingBlock: UVAHIK_clean_linker_0, # of connection points: 2
#     Edge 67, Type (0, 0), BuildingBlock: UVAHIK_clean_linker_0, # of connection points: 2
#     Edge 68, Type (0, 0), BuildingBlock: UVAHIK_clean_linker_0, # of connection points: 2
#     Edge 69, Type (0, 0), BuildingBlock: UVAHIK_clean_linker_0, # of connection points: 2
#     Edge 70, Type (0, 0), BuildingBlock: UVAHIK_clean_linker_0, # of connection points: 2
#     Edge 71, Type (0, 0), BuildingBlock: UVAHIK_clean_linker_0, # of connection points: 2
#     Edge 72, Type (0, 0), BuildingBlock: UVAHIK_clean_linker_0, # of connection points: 2
#     Edge 73, Type (0, 0), BuildingBlock: UVAHIK_clean_linker_0, # of connection points: 2
#     Edge 74, Type (0, 0), BuildingBlock: UVAHIK_clean_linker_0, # of connection points: 2
#     Edge 75, Type (0, 0), BuildingBlock: UVAHIK_clean_linker_0, # of connection points: 2
#     Edge 76, Type (0, 0), BuildingBlock: UVAHIK_clean_linker_0, # of connection points: 2
#     Edge 77, Type (0, 0), BuildingBlock: UVAHIK_clean_linker_0, # of connection points: 2
#     Edge 78, Type (0, 0), BuildingBlock: UVAHIK_clean_linker_0, # of connection points: 2
#     Edge 79, Type (0, 0), BuildingBlock: UVAHIK_clean_linker_0, # of connection points: 2
#     Edge 80, Type (0, 0), BuildingBlock: UVAHIK_clean_linker_0, # of connection points: 2
#     Edge 81, Type (0, 0), BuildingBlock: UVAHIK_clean_linker_0, # of connection points: 2
#     Edge 82, Type (0, 0), BuildingBlock: UVAHIK_clean_linker_0, # of connection points: 2
#     Edge 83, Type (0, 0), BuildingBlock: UVAHIK_clean_linker_0, # of connection points: 2
#     Edge 84, Type (0, 0), BuildingBlock: UVAHIK_clean_linker_0, # of connection points: 2
#     Edge 85, Type (0, 0), BuildingBlock: UVAHIK_clean_linker_0, # of connection points: 2
#     Edge 86, Type (0, 0), BuildingBlock: UVAHIK_clean_linker_0, # of connection points: 2
#     Edge 87, Type (0, 0), BuildingBlock: UVAHIK_clean_linker_0, # of connection points: 2
#     Edge 88, Type (0, 0), BuildingBlock: UVAHIK_clean_linker_0, # of connection points: 2
#     Edge 89, Type (0, 0), BuildingBlock: UVAHIK_clean_linker_0, # of connection points: 2
#     Edge 90, Type (0, 0), BuildingBlock: UVAHIK_clean_linker_0, # of connection points: 2
#     Edge 91, Type (0, 0), BuildingBlock: UVAHIK_clean_linker_0, # of connection points: 2
#     Edge 92, Type (0, 0), BuildingBlock: UVAHIK_clean_linker_0, # of connection points: 2
#     Edge 93, Type (0, 0), BuildingBlock: UVAHIK_clean_linker_0, # of connection points: 2
#     Edge 94, Type (0, 0), BuildingBlock: UVAHIK_clean_linker_0, # of connection points: 2
#     Edge 95, Type (0, 0), BuildingBlock: UVAHIK_clean_linker_0, # of connection points: 2
# Relax obj value: 0.170
# Max RMSD: 0.164
# Mean RMSD: 0.164
data_MOF--net-uod--node1-CEKHIL_clean_sbu_0--edge1-UVAHIK_clean_linker_0
_symmetry_space_group_name_H-M    P1
_symmetry_Int_Tables_number       1
_symmetry_cell_setting            triclinic
loop_
_symmetry_equiv_pos_as_xyz
'x, y, z'
_cell_length_a     119.07395
_cell_length_b     33.997393
_cell_length_c     77.415078
_cell_angle_alpha  89.996668
_cell_angle_beta   89.981618
_cell_angle_gamma 90.004873
loop_
_atom_site_label
_atom_site_type_symbol
_atom_site_fract_x
_atom_site_fract_y
_atom_site_fract_z
_atom_type_partial_charge
Co0 Co 0.04672 0.37112 0.08513 0.0
O1 O 0.03375 0.36685 0.07044 0.0
O2 O 0.04831 0.40554 0.06526 0.0
C3 C 0.04923 0.30673 0.09023 0.0
O4 O 0.06175 0.38185 0.09728 0.0
Co5 Co 0.0449 0.34403 0.12354 0.0
O6 O 0.0614 0.35158 0.12317 0.0
C7 C 0.03435 0.41788 0.1129 0.0
C8 C 0.03833 0.3936 0.06077 0.0
C9 C 0.06658 0.37057 0.11139 0.0
O10 O 0.03908 0.41486 0.09804 0.0
O11 O 0.03505 0.3917 0.12471 0.0
O12 O 0.05306 0.32211 0.07598 0.0
O13 O 0.04304 0.32946 0.09953 0.0
Co14 Co 0.21047 0.86872 0.08583 0.0
O15 O 0.22377 0.87201 0.07182 0.0
O16 O 0.20894 0.83542 0.06562 0.0
C17 C 0.20847 0.93312 0.09123 0.0
O18 O 0.19509 0.85947 0.09715 0.0
Co19 Co 0.21178 0.89335 0.12453 0.0
O20 O 0.19518 0.89334 0.12218 0.0
C21 C 0.22217 0.81963 0.11346 0.0
C22 C 0.2191 0.84645 0.06166 0.0
C23 C 0.19003 0.87445 0.11036 0.0
O24 O 0.2174 0.8236 0.09868 0.0
O25 O 0.22158 0.84538 0.12547 0.0
O26 O 0.20489 0.91865 0.07667 0.0
O27 O 0.21421 0.9094 0.10078 0.0
Co28 Co 0.05023 0.86256 0.16609 0.0
O29 O 0.03648 0.86654 0.17906 0.0
O30 O 0.0512 0.83111 0.18695 0.0
C31 C 0.0521 0.92663 0.15973 0.0
O32 O 0.06599 0.85285 0.15619 0.0
Co33 Co 0.05062 0.88476 0.12701 0.0
O34 O 0.06705 0.88675 0.13122 0.0
C35 C 0.04011 0.81081 0.13802 0.0
C36 C 0.0409 0.84207 0.18998 0.0
C37 C 0.07164 0.86799 0.1436 0.0
O38 O 0.04381 0.81619 0.15342 0.0
O39 O 0.04143 0.83545 0.12569 0.0
O40 O 0.0554 0.91364 0.17473 0.0
O41 O 0.04683 0.90165 0.1502 0.0
Co42 Co 0.20567 0.38005 0.16802 0.0
O43 O 0.21921 0.37326 0.18122 0.0
O44 O 0.2048 0.40997 0.18934 0.0
C45 C 0.20308 0.31705 0.16043 0.0
O46 O 0.1902 0.3924 0.15763 0.0
Co47 Co 0.20679 0.36253 0.1285 0.0
O48 O 0.19046 0.37379 0.12963 0.0
C49 C 0.21842 0.43087 0.14246 0.0
C50 C 0.21498 0.39763 0.19236 0.0
C51 C 0.18535 0.38727 0.14285 0.0
O52 O 0.21268 0.42691 0.15642 0.0
O53 O 0.2182 0.40567 0.13021 0.0
O54 O 0.19991 0.32883 0.17568 0.0
O55 O 0.20885 0.342 0.1516 0.0
Co56 Co 0.95709 0.6168 0.91705 0.0
O57 O 0.97043 0.6235 0.93079 0.0
O58 O 0.95579 0.58733 0.9384 0.0
C59 C 0.95469 0.67968 0.90913 0.0
O60 O 0.94175 0.60435 0.90627 0.0
Co61 Co 0.95852 0.63315 0.87751 0.0
O62 O 0.94209 0.62376 0.87841 0.0
C63 C 0.96971 0.56426 0.89185 0.0
C64 C 0.96595 0.59932 0.94179 0.0
C65 C 0.93692 0.61001 0.89153 0.0
O66 O 0.96425 0.56966 0.90596 0.0
O67 O 0.96935 0.58817 0.87912 0.0
O68 O 0.95129 0.66814 0.92429 0.0
O69 O 0.96055 0.65451 0.90053 0.0
Co70 Co 0.80017 0.1258 0.917 0.0
O71 O 0.78674 0.11842 0.93045 0.0
O72 O 0.80104 0.15603 0.93822 0.0
C73 C 0.80301 0.06285 0.90959 0.0
O74 O 0.81554 0.13908 0.90643 0.0
Co75 Co 0.79915 0.10785 0.87753 0.0
O76 O 0.81547 0.11896 0.87865 0.0
C77 C 0.78749 0.17657 0.89116 0.0
C78 C 0.79094 0.14321 0.94144 0.0
C79 C 0.82047 0.13347 0.89175 0.0
O80 O 0.79282 0.17199 0.90544 0.0
O81 O 0.7881 0.15226 0.87859 0.0
O82 O 0.80621 0.07516 0.92473 0.0
O83 O 0.7971 0.08729 0.90068 0.0
Co84 Co 0.95967 0.13101 0.837 0.0
O85 O 0.97292 0.12612 0.82295 0.0
O86 O 0.95851 0.16474 0.81682 0.0
C87 C 0.95696 0.06684 0.84232 0.0
O88 O 0.94445 0.14208 0.84848 0.0
Co89 Co 0.96121 0.10593 0.87563 0.0
O90 O 0.94475 0.1151 0.87508 0.0
C91 C 0.97257 0.17737 0.86416 0.0
C92 C 0.96855 0.15244 0.81286 0.0
C93 C 0.9396 0.13254 0.86282 0.0
O94 O 0.96706 0.17523 0.84992 0.0
O95 O 0.97224 0.15051 0.87572 0.0
O96 O 0.95354 0.08185 0.82778 0.0
O97 O 0.963 0.08968 0.85182 0.0
Co98 Co 0.79777 0.61131 0.83699 0.0
O99 O 0.7847 0.61584 0.82254 0.0
O100 O 0.79941 0.57837 0.81669 0.0
C101 C 0.80012 0.67539 0.8428 0.0
O102 O 0.81289 0.60073 0.84878 0.0
Co103 Co 0.79577 0.63491 0.87572 0.0
O104 O 0.81228 0.62693 0.87551 0.0
C105 C 0.78476 0.56342 0.86348 0.0
C106 C 0.78938 0.59017 0.81244 0.0
C107 C 0.8176 0.61017 0.86324 0.0
O108 O 0.79042 0.56625 0.8494 0.0
O109 O 0.78488 0.58991 0.87521 0.0
O110 O 0.80379 0.66105 0.82826 0.0
O111 O 0.79405 0.65193 0.85199 0.0
Co112 Co 0.0449 0.87027 0.58699 0.0
O113 O 0.0318 0.86644 0.57255 0.0
O114 O 0.04617 0.90614 0.56758 0.0
C115 C 0.0478 0.80571 0.59098 0.0
O116 O 0.05997 0.88079 0.59898 0.0
Co117 Co 0.0432 0.84092 0.625 0.0
O118 O 0.05962 0.8508 0.62494 0.0
C119 C 0.03203 0.914 0.61517 0.0
C120 C 0.03622 0.89388 0.56309 0.0
C121 C 0.06477 0.86996 0.61318 0.0
O122 O 0.03729 0.9128 0.60068 0.0
O123 O 0.03246 0.88623 0.6263 0.0
O124 O 0.05128 0.82249 0.57684 0.0
O125 O 0.04159 0.82718 0.60085 0.0
Co126 Co 0.21191 0.36539 0.59002 0.0
O127 O 0.22504 0.37014 0.57565 0.0
O128 O 0.21035 0.33276 0.56962 0.0
C129 C 0.20949 0.42938 0.596 0.0
O130 O 0.1967 0.35447 0.60158 0.0
Co131 Co 0.21337 0.38888 0.62888 0.0
O132 O 0.19684 0.38224 0.628 0.0
C133 C 0.22387 0.31581 0.61724 0.0
C134 C 0.22039 0.34459 0.56545 0.0
C135 C 0.19174 0.36471 0.61574 0.0
O136 O 0.21923 0.32023 0.60239 0.0
O137 O 0.22317 0.34102 0.62944 0.0
O138 O 0.2059 0.41518 0.58139 0.0
O139 O 0.21552 0.40586 0.6052 0.0
Co140 Co 0.05176 0.35812 0.66684 0.0
O141 O 0.03823 0.3657 0.68002 0.0
O142 O 0.05296 0.33163 0.68897 0.0
C143 C 0.05386 0.42005 0.65746 0.0
O144 O 0.06729 0.34558 0.65671 0.0
Co145 Co 0.05057 0.36925 0.62694 0.0
O146 O 0.06705 0.3618 0.62845 0.0
C147 C 0.03962 0.30159 0.64285 0.0
C148 C 0.04271 0.34346 0.69177 0.0
C149 C 0.07221 0.35011 0.64195 0.0
O150 O 0.04503 0.30903 0.65682 0.0
O151 O 0.03988 0.32404 0.6296 0.0
O152 O 0.05718 0.41066 0.67294 0.0
O153 O 0.04824 0.39341 0.64934 0.0
Co154 Co 0.20419 0.87852 0.66823 0.0
O155 O 0.21794 0.87244 0.68108 0.0
O156 O 0.2039 0.91135 0.68873 0.0
C157 C 0.20107 0.81475 0.66256 0.0
O158 O 0.18857 0.89103 0.65832 0.0
Co159 Co 0.20396 0.85493 0.6292 0.0
O160 O 0.18784 0.86853 0.63091 0.0
C161 C 0.21587 0.92577 0.64001 0.0
C162 C 0.21403 0.89858 0.69172 0.0
C163 C 0.18328 0.8846 0.64402 0.0
O164 O 0.21137 0.92286 0.65504 0.0
O165 O 0.21465 0.90022 0.62805 0.0
O166 O 0.19826 0.829 0.67756 0.0
O167 O 0.20675 0.8379 0.6527 0.0
Co168 Co 0.95715 0.10755 0.41382 0.0
O169 O 0.97031 0.11333 0.42796 0.0
O170 O 0.95532 0.07854 0.43523 0.0
C171 C 0.95534 0.17059 0.4058 0.0
O172 O 0.94189 0.09666 0.40252 0.0
Co173 Co 0.95929 0.12408 0.37437 0.0
O174 O 0.94274 0.11727 0.37484 0.0
C175 C 0.96977 0.05404 0.38913 0.0
C176 C 0.96548 0.09006 0.43897 0.0
C177 C 0.93729 0.10367 0.38772 0.0
O178 O 0.96404 0.05959 0.40297 0.0
O179 O 0.96993 0.07866 0.37662 0.0
O180 O 0.95159 0.1593 0.4208 0.0
O181 O 0.96118 0.14492 0.39746 0.0
Co182 Co 0.79916 0.6289 0.41571 0.0
O183 O 0.7863 0.62108 0.43031 0.0
O184 O 0.80077 0.65908 0.43687 0.0
C185 C 0.8018 0.5659 0.40809 0.0
O186 O 0.81404 0.6423 0.40376 0.0
Co187 Co 0.79665 0.61014 0.37651 0.0
O188 O 0.81307 0.62006 0.37634 0.0
C189 C 0.78568 0.67977 0.39083 0.0
C190 C 0.79086 0.64574 0.44098 0.0
C191 C 0.81851 0.63546 0.38884 0.0
O192 O 0.7914 0.67513 0.40475 0.0
O193 O 0.78574 0.65482 0.37846 0.0
O194 O 0.80566 0.57849 0.42282 0.0
O195 O 0.79545 0.59017 0.39984 0.0
Co196 Co 0.95734 0.62022 0.33189 0.0
O197 O 0.97074 0.61459 0.31817 0.0
O198 O 0.95665 0.65456 0.31192 0.0
C199 C 0.9541 0.55624 0.33682 0.0
O200 O 0.94205 0.63275 0.34287 0.0
Co201 Co 0.958 0.59426 0.37053 0.0
O202 O 0.94187 0.60858 0.36999 0.0
C203 C 0.96997 0.66504 0.35991 0.0
C204 C 0.96665 0.64167 0.30815 0.0
C205 C 0.93703 0.62563 0.35735 0.0
O206 O 0.96495 0.66328 0.34525 0.0
O207 O 0.96905 0.63861 0.37158 0.0
O208 O 0.951 0.57174 0.32221 0.0
O209 O 0.96011 0.57835 0.34669 0.0
Co210 Co 0.79796 0.11938 0.33313 0.0
O211 O 0.78489 0.12344 0.31863 0.0
O212 O 0.79964 0.08593 0.313 0.0
C213 C 0.8002 0.18366 0.33871 0.0
O214 O 0.81309 0.10909 0.34493 0.0
Co215 Co 0.7962 0.1441 0.37178 0.0
O216 O 0.81275 0.13723 0.37127 0.0
C217 C 0.78559 0.07104 0.36035 0.0
C218 C 0.78957 0.09739 0.30871 0.0
C219 C 0.81795 0.11957 0.35913 0.0
O220 O 0.79061 0.07462 0.34574 0.0
O221 O 0.78608 0.09697 0.3723 0.0
O222 O 0.80399 0.16905 0.32429 0.0
O223 O 0.79417 0.16021 0.34795 0.0
Co224 Co 0.55186 0.37544 0.58405 0.0
O225 O 0.53832 0.36874 0.57083 0.0
O226 O 0.55278 0.40519 0.5627 0.0
C227 C 0.55439 0.31247 0.59168 0.0
O228 O 0.56733 0.38766 0.5944 0.0
Co229 Co 0.55079 0.35819 0.62358 0.0
O230 O 0.56716 0.36858 0.62233 0.0
C231 C 0.53917 0.42651 0.60956 0.0
C232 C 0.5426 0.39293 0.55967 0.0
C233 C 0.57225 0.38216 0.60909 0.0
O234 O 0.54489 0.42241 0.5956 0.0
O235 O 0.53941 0.40144 0.62187 0.0
O236 O 0.55757 0.32419 0.57643 0.0
O237 O 0.54864 0.33749 0.60051 0.0
Co238 Co 0.70614 0.86619 0.58181 0.0
O239 O 0.71965 0.86769 0.56832 0.0
O240 O 0.70551 0.82693 0.56352 0.0
C241 C 0.70353 0.93129 0.58294 0.0
O242 O 0.69065 0.858 0.59302 0.0
Co243 Co 0.7063 0.90319 0.61853 0.0
O244 O 0.68981 0.89978 0.61558 0.0
C245 C 0.71708 0.82685 0.61306 0.0
C246 C 0.71556 0.83886 0.55936 0.0
C247 C 0.68514 0.87625 0.60496 0.0
O248 O 0.71334 0.8265 0.59751 0.0
O249 O 0.71563 0.85539 0.62358 0.0
O250 O 0.7001 0.91175 0.56951 0.0
O251 O 0.70927 0.91185 0.59419 0.0
Co252 Co 0.54636 0.86286 0.66427 0.0
O253 O 0.53285 0.86729 0.67773 0.0
O254 O 0.54736 0.82973 0.6846 0.0
C255 C 0.54884 0.92699 0.65882 0.0
O256 O 0.56187 0.85238 0.65362 0.0
Co257 Co 0.54586 0.88684 0.62548 0.0
O258 O 0.56241 0.88565 0.62844 0.0
C259 C 0.53477 0.81427 0.6364 0.0
C260 C 0.5372 0.8415 0.68812 0.0
C261 C 0.56724 0.86667 0.64055 0.0
O262 O 0.53939 0.81808 0.65129 0.0
O263 O 0.53571 0.83975 0.62432 0.0
O264 O 0.55208 0.91242 0.67356 0.0
O265 O 0.54312 0.90359 0.64907 0.0
Co266 Co 0.71163 0.37306 0.66263 0.0
O267 O 0.72468 0.36804 0.67707 0.0
O268 O 0.70948 0.4021 0.68396 0.0
C269 C 0.71023 0.30981 0.65468 0.0
O270 O 0.69642 0.38334 0.65103 0.0
Co271 Co 0.7138 0.35606 0.62327 0.0
O272 O 0.69718 0.35929 0.62395 0.0
C273 C 0.72287 0.4295 0.63725 0.0
C274 C 0.71966 0.39124 0.68791 0.0
C275 C 0.69173 0.37424 0.63653 0.0
O276 O 0.71839 0.42139 0.65191 0.0
O277 O 0.72261 0.40628 0.62426 0.0
O278 O 0.70616 0.32107 0.66949 0.0
O279 O 0.71602 0.33576 0.64641 0.0
Co280 Co 0.45883 0.61019 0.41739 0.0
O281 O 0.47206 0.61476 0.43145 0.0
O282 O 0.45739 0.57759 0.43791 0.0
C283 C 0.45665 0.67431 0.41135 0.0
O284 O 0.44358 0.59983 0.40592 0.0
Co285 Co 0.46058 0.63369 0.37855 0.0
O286 O 0.44405 0.6262 0.3792 0.0
C287 C 0.47129 0.56132 0.39057 0.0
C288 C 0.46751 0.58928 0.44177 0.0
C289 C 0.43879 0.60945 0.39154 0.0
O290 O 0.46594 0.56469 0.40493 0.0
O291 O 0.47112 0.58774 0.37881 0.0
O292 O 0.45296 0.66047 0.42598 0.0
O293 O 0.46256 0.65029 0.40225 0.0
Co294 Co 0.29852 0.11901 0.41751 0.0
O295 O 0.28525 0.11602 0.43161 0.0
O296 O 0.30026 0.15161 0.43792 0.0
C297 C 0.30017 0.05467 0.41165 0.0
O298 O 0.31391 0.12765 0.40612 0.0
Co299 Co 0.297 0.09533 0.37871 0.0
O300 O 0.31362 0.09499 0.38081 0.0
C301 C 0.287 0.16949 0.3902 0.0
C302 C 0.29005 0.14107 0.44187 0.0
C303 C 0.31889 0.11312 0.39274 0.0
O304 O 0.29175 0.16492 0.40496 0.0
O305 O 0.28745 0.14391 0.37809 0.0
O306 O 0.30396 0.0684 0.42623 0.0
O307 O 0.29448 0.0791 0.4024 0.0
Co308 Co 0.45729 0.11743 0.33193 0.0
O309 O 0.47041 0.11395 0.31758 0.0
O310 O 0.45533 0.14909 0.31124 0.0
C311 C 0.45589 0.05337 0.33846 0.0
O312 O 0.44203 0.12625 0.34371 0.0
Co313 Co 0.45942 0.09581 0.3709 0.0
O314 O 0.44279 0.09412 0.36915 0.0
C315 C 0.46909 0.1696 0.3583 0.0
C316 C 0.46553 0.13857 0.30723 0.0
C317 C 0.43729 0.11169 0.3573 0.0
O318 O 0.46409 0.16417 0.3438 0.0
O319 O 0.46891 0.14459 0.37066 0.0
O320 O 0.45187 0.0662 0.32387 0.0
O321 O 0.46161 0.07848 0.34729 0.0
Co322 Co 0.3001 0.61054 0.33336 0.0
O323 O 0.28703 0.61654 0.31907 0.0
O324 O 0.30164 0.57922 0.31248 0.0
C325 C 0.3024 0.67414 0.34029 0.0
O326 O 0.3152 0.59893 0.34508 0.0
Co327 Co 0.29786 0.63128 0.37244 0.0
O328 O 0.31434 0.62241 0.37231 0.0
C329 C 0.28702 0.56054 0.35901 0.0
C330 C 0.29158 0.59148 0.30856 0.0
C331 C 0.31975 0.60682 0.35984 0.0
O332 O 0.29273 0.56447 0.34502 0.0
O333 O 0.28703 0.58625 0.37107 0.0
O334 O 0.3062 0.66115 0.32558 0.0
O335 O 0.29632 0.64975 0.34892 0.0
Co336 Co 0.54999 0.87607 0.0848 0.0
O337 O 0.53692 0.87021 0.07048 0.0
O338 O 0.55146 0.90805 0.06413 0.0
C339 C 0.55244 0.81227 0.09124 0.0
O340 O 0.5651 0.88772 0.09645 0.0
Co341 Co 0.54814 0.85381 0.12374 0.0
O342 O 0.56464 0.86196 0.12327 0.0
C343 C 0.5371 0.92504 0.11111 0.0
C344 C 0.54146 0.89552 0.06007 0.0
C345 C 0.56988 0.87866 0.11089 0.0
O346 O 0.54254 0.92152 0.09684 0.0
O347 O 0.53736 0.89908 0.12306 0.0
O348 O 0.55618 0.82599 0.07661 0.0
O349 O 0.54635 0.83615 0.10014 0.0
Co350 Co 0.7068 0.35457 0.08527 0.0
O351 O 0.72011 0.36028 0.07142 0.0
O352 O 0.70565 0.32251 0.06457 0.0
C353 C 0.70421 0.41833 0.09159 0.0
O354 O 0.69151 0.34305 0.09642 0.0
Co355 Co 0.70831 0.37648 0.1243 0.0
O356 O 0.6919 0.36658 0.12368 0.0
C357 C 0.71976 0.30633 0.11161 0.0
C358 C 0.71573 0.33489 0.06089 0.0
C359 C 0.68672 0.35082 0.11102 0.0
O360 O 0.71407 0.30915 0.09755 0.0
O361 O 0.71953 0.33254 0.12345 0.0
O362 O 0.70081 0.40464 0.07678 0.0
O363 O 0.71017 0.39454 0.10075 0.0
Co364 Co 0.54771 0.36608 0.16651 0.0
O365 O 0.53467 0.3725 0.18089 0.0
O366 O 0.54914 0.33429 0.18721 0.0
C367 C 0.55039 0.42955 0.1598 0.0
O368 O 0.56277 0.35363 0.15486 0.0
Co369 Co 0.54591 0.38713 0.12748 0.0
O370 O 0.56242 0.37921 0.12801 0.0
C371 C 0.53499 0.31594 0.14032 0.0
C372 C 0.53914 0.34686 0.19123 0.0
C373 C 0.5676 0.36246 0.14042 0.0
O374 O 0.54011 0.3207 0.15477 0.0
O375 O 0.53552 0.34068 0.1279 0.0
O376 O 0.55407 0.41597 0.17448 0.0
O377 O 0.54417 0.40584 0.151 0.0
Co378 Co 0.709 0.8689 0.16577 0.0
O379 O 0.72223 0.86277 0.17984 0.0
O380 O 0.70765 0.90012 0.1866 0.0
C381 C 0.7064 0.80554 0.15879 0.0
O382 O 0.69378 0.8812 0.15458 0.0
Co383 Co 0.71056 0.84924 0.12653 0.0
O384 O 0.69419 0.8598 0.12702 0.0
C385 C 0.72177 0.91919 0.13978 0.0
C386 C 0.71774 0.88801 0.19037 0.0
C387 C 0.68901 0.87478 0.13985 0.0
O388 O 0.71639 0.9148 0.15404 0.0
O389 O 0.72134 0.89442 0.12737 0.0
O390 O 0.70295 0.81842 0.17372 0.0
O391 O 0.71241 0.82972 0.1499 0.0
Co392 Co 0.45857 0.11383 0.91614 0.0
O393 O 0.47169 0.11906 0.93046 0.0
O394 O 0.4578 0.07732 0.93538 0.0
C395 C 0.455 0.17793 0.91255 0.0
O396 O 0.44354 0.10157 0.90427 0.0
Co397 Co 0.45987 0.14375 0.87817 0.0
O398 O 0.4438 0.12866 0.8777 0.0
C399 C 0.47164 0.07176 0.88759 0.0
C400 C 0.46764 0.09073 0.9398 0.0
C401 C 0.43877 0.11014 0.88975 0.0
O402 O 0.46662 0.07267 0.90226 0.0
O403 O 0.47075 0.09892 0.87626 0.0
O404 O 0.45174 0.16043 0.92662 0.0
O405 O 0.46136 0.15769 0.90239 0.0
Co406 Co 0.2979 0.62353 0.91406 0.0
O407 O 0.28467 0.61878 0.92818 0.0
O408 O 0.29937 0.6559 0.93456 0.0
C409 C 0.30026 0.55956 0.90797 0.0
O410 O 0.31315 0.63422 0.90272 0.0
Co411 Co 0.29627 0.60084 0.87516 0.0
O412 O 0.31273 0.60972 0.87565 0.0
C413 C 0.2852 0.67215 0.88748 0.0
C414 C 0.28928 0.64412 0.93852 0.0
C415 C 0.31794 0.62577 0.88821 0.0
O416 O 0.29073 0.66902 0.90167 0.0
O417 O 0.28539 0.64582 0.87568 0.0
O418 O 0.30378 0.57347 0.92268 0.0
O419 O 0.29431 0.58333 0.89878 0.0
Co420 Co 0.45732 0.62527 0.83493 0.0
O421 O 0.47038 0.62001 0.82052 0.0
O422 O 0.45518 0.65401 0.81354 0.0
C423 C 0.45591 0.56214 0.84304 0.0
O424 O 0.44214 0.63565 0.84648 0.0
Co425 Co 0.45963 0.60904 0.87433 0.0
O426 O 0.44302 0.61404 0.87396 0.0
C427 C 0.46969 0.67992 0.85947 0.0
C428 C 0.46535 0.64301 0.80961 0.0
C429 C 0.43752 0.62789 0.86119 0.0
O430 O 0.4641 0.67364 0.84556 0.0
O431 O 0.46991 0.65558 0.87209 0.0
O432 O 0.4519 0.57317 0.82817 0.0
O433 O 0.46167 0.58824 0.85124 0.0
Co434 Co 0.30006 0.11061 0.83225 0.0
O435 O 0.28668 0.1178 0.81868 0.0
O436 O 0.30102 0.08023 0.81107 0.0
C437 C 0.30286 0.17364 0.83963 0.0
O438 O 0.31539 0.09748 0.84297 0.0
Co439 Co 0.29885 0.1289 0.87169 0.0
O440 O 0.31516 0.11744 0.87078 0.0
C441 C 0.28736 0.05983 0.8581 0.0
C442 C 0.29092 0.09294 0.80776 0.0
C443 C 0.32023 0.10298 0.85773 0.0
O444 O 0.2927 0.06443 0.84383 0.0
O445 O 0.28789 0.08427 0.87063 0.0
O446 O 0.30612 0.16129 0.82452 0.0
O447 O 0.29691 0.14922 0.84849 0.0
C448 C 0.02664 0.7583 0.1464 0.0
C449 C 0.03424 0.77382 0.13438 0.0
C450 C 0.02162 0.72178 0.14351 0.0
C451 C 0.0199 0.64003 0.11072 0.0
H452 H 0.01726 0.57608 0.1519 0.0
C453 C 0.02201 0.47358 0.10433 0.0
C454 C 0.0286 0.45488 0.11689 0.0
C455 C 0.0179 0.51146 0.10722 0.0
C456 C 0.01806 0.59333 0.14021 0.0
H457 H 0.04247 0.7644 0.10983 0.0
H458 H 0.03454 0.69958 0.10531 0.0
H459 H 0.01975 0.64611 0.1547 0.0
H460 H 0.03568 0.45969 0.14251 0.0
H461 H 0.02937 0.52647 0.14714 0.0
H462 H 0.01966 0.58692 0.0963 0.0
C463 C 0.03187 0.71589 0.11659 0.0
C464 C 0.01925 0.63398 0.14181 0.0
C465 C 0.03657 0.75295 0.11922 0.0
C466 C 0.03056 0.4736 0.13269 0.0
C467 C 0.0268 0.51194 0.13536 0.0
C468 C 0.01915 0.59927 0.10915 0.0
C469 C 0.02445 0.69942 0.12883 0.0
C470 C 0.02072 0.65774 0.12708 0.0
C471 C 0.02071 0.53196 0.12244 0.0
C472 C 0.01875 0.57516 0.12392 0.0
H473 H 0.02461 0.77435 0.1581 0.0
H474 H 0.01573 0.71085 0.15301 0.0
H475 H 0.02048 0.65736 0.09902 0.0
H476 H 0.02028 0.45925 0.09211 0.0
H477 H 0.01292 0.52512 0.09719 0.0
C478 C 0.23297 0.76189 0.10283 0.0
C479 C 0.22824 0.78268 0.11671 0.0
C480 C 0.23736 0.72434 0.10533 0.0
C481 C 0.24339 0.64775 0.13877 0.0
H482 H 0.23042 0.57897 0.10417 0.0
C483 C 0.22511 0.49627 0.15307 0.0
C484 C 0.22499 0.46735 0.14009 0.0
C485 C 0.23014 0.53267 0.15007 0.0
C486 C 0.2344 0.59752 0.11376 0.0
H487 H 0.22511 0.782 0.14427 0.0
H488 H 0.23228 0.71561 0.14856 0.0
H489 H 0.23101 0.6489 0.09899 0.0
H490 H 0.23097 0.45269 0.11437 0.0
H491 H 0.23975 0.51635 0.10919 0.0
H492 H 0.24603 0.59591 0.15399 0.0
C493 C 0.23288 0.72852 0.13581 0.0
C494 C 0.23475 0.63785 0.11078 0.0
C495 C 0.22867 0.76645 0.13335 0.0
C496 C 0.23074 0.47456 0.12454 0.0
C497 C 0.23578 0.51099 0.12156 0.0
C498 C 0.24298 0.60724 0.14179 0.0
C499 C 0.23688 0.70649 0.12169 0.0
C500 C 0.23885 0.66361 0.12351 0.0
C501 C 0.23517 0.54088 0.13406 0.0
C502 C 0.23808 0.58194 0.12956 0.0
H503 H 0.23296 0.77417 0.08991 0.0
H504 H 0.24064 0.70856 0.09427 0.0
H505 H 0.24679 0.66677 0.14869 0.0
H506 H 0.22091 0.49151 0.16531 0.0
H507 H 0.22943 0.55518 0.15991 0.0
C508 C 0.97989 0.24293 0.85489 0.0
C509 C 0.97894 0.2138 0.8677 0.0
C510 C 0.98447 0.27957 0.85883 0.0
C511 C 0.98523 0.34406 0.89571 0.0
H512 H 0.99922 0.41542 0.86308 0.0
C513 C 0.98017 0.50842 0.90508 0.0
C514 C 0.97631 0.52783 0.8902 0.0
C515 C 0.98528 0.47165 0.90379 0.0
C516 C 0.99536 0.39582 0.87238 0.0
H517 H 0.98307 0.19899 0.89423 0.0
H518 H 0.99105 0.26319 0.90109 0.0
H519 H 0.99998 0.34452 0.85795 0.0
H520 H 0.97544 0.52544 0.86226 0.0
H521 H 0.98388 0.46047 0.86003 0.0
H522 H 0.97989 0.39482 0.90951 0.0
C523 C 0.98809 0.25774 0.88808 0.0
C524 C 0.99584 0.35529 0.86947 0.0
C525 C 0.98351 0.221 0.88414 0.0
C526 C 0.97829 0.511 0.87394 0.0
C527 C 0.98324 0.47389 0.87267 0.0
C528 C 0.98472 0.38443 0.89857 0.0
C529 C 0.98821 0.28786 0.87565 0.0
C530 C 0.99035 0.32916 0.88074 0.0
C531 C 0.98644 0.45323 0.88764 0.0
C532 C 0.98935 0.41087 0.88655 0.0
H533 H 0.97663 0.23817 0.842 0.0
H534 H 0.98434 0.30221 0.84899 0.0
H535 H 0.9808 0.32482 0.90453 0.0
H536 H 0.97898 0.52119 0.91777 0.0
H537 H 0.98789 0.45693 0.91553 0.0
C538 C 0.77789 0.49762 0.85372 0.0
C539 C 0.77842 0.5267 0.8666 0.0
C540 C 0.77328 0.46085 0.85732 0.0
C541 C 0.77152 0.39608 0.89405 0.0
H542 H 0.75849 0.32479 0.86048 0.0
C543 C 0.77648 0.23191 0.9037 0.0
C544 C 0.78077 0.21259 0.88908 0.0
C545 C 0.77133 0.26853 0.90209 0.0
C546 C 0.76208 0.34436 0.87004 0.0
H547 H 0.77355 0.54122 0.89287 0.0
H548 H 0.7655 0.47681 0.89914 0.0
H549 H 0.75787 0.3957 0.85534 0.0
H550 H 0.78234 0.2149 0.86122 0.0
H551 H 0.77383 0.27965 0.85843 0.0
H552 H 0.77647 0.3453 0.90817 0.0
C553 C 0.76882 0.4824 0.88634 0.0
C554 C 0.76169 0.3849 0.86712 0.0
C555 C 0.77344 0.51926 0.88274 0.0
C556 C 0.77915 0.22929 0.8727 0.0
C557 C 0.77417 0.26627 0.87111 0.0
C558 C 0.77195 0.3557 0.89692 0.0
C559 C 0.76908 0.45237 0.87387 0.0
C560 C 0.76684 0.41102 0.87876 0.0
C561 C 0.77056 0.28692 0.88587 0.0
C562 C 0.76767 0.32928 0.8846 0.0
H563 H 0.78148 0.50255 0.84104 0.0
H564 H 0.77371 0.43829 0.84746 0.0
H565 H 0.77569 0.4153 0.90318 0.0
H566 H 0.77739 0.21921 0.91647 0.0
H567 H 0.76839 0.2832 0.91366 0.0
C568 C 0.02251 0.95804 0.63664 0.0
C569 C 0.02599 0.9506 0.6196 0.0
C570 C 0.01859 -0.00472 0.6413 0.0
C571 C 0.01093 0.09424 0.62409 0.0
H572 H 0.02988 0.13083 0.66148 0.0
C573 C 0.0303 0.24776 0.6261 0.0
C574 C 0.03311 0.26471 0.64206 0.0
C575 C 0.02516 0.21087 0.62548 0.0
C576 C 0.02426 0.12127 0.65132 0.0
H577 H 0.02693 0.97502 0.59371 0.0
H578 H 0.02033 0.03984 0.60189 0.0
H579 H 0.02776 0.061 0.65663 0.0
H580 H 0.03186 0.25808 0.66989 0.0
H581 H 0.02273 0.19407 0.66878 0.0
H582 H 0.00795 0.15492 0.61825 0.0
C583 C 0.02058 0.01708 0.61168 0.0
C584 C 0.02303 0.08103 0.64855 0.0
C585 C 0.02451 0.97998 0.60703 0.0
C586 C 0.03002 0.24533 0.65737 0.0
C587 C 0.02477 0.20869 0.65675 0.0
C588 C 0.01213 0.13462 0.6269 0.0
C589 C 0.01804 0.02561 0.629 0.0
C590 C 0.01677 0.06713 0.63444 0.0
C591 C 0.02263 0.19045 0.64081 0.0
C592 C 0.01922 0.14853 0.64008 0.0
H593 H 0.0234 0.93587 0.6466 0.0
H594 H 0.01654 0.00093 0.65471 0.0
H595 H 0.00592 0.08429 0.61327 0.0
H596 H 0.03254 0.26209 0.61409 0.0
H597 H 0.02377 0.1975 0.61297 0.0
C598 C 0.23025 0.97537 0.64812 0.0
C599 C 0.22237 0.96126 0.6362 0.0
C600 C 0.23578 0.01093 0.64513 0.0
C601 C 0.23797 0.09341 0.61262 0.0
H602 H 0.24145 0.15569 0.65413 0.0
C603 C 0.23596 0.26021 0.60766 0.0
C604 C 0.2296 0.27841 0.62064 0.0
C605 C 0.24007 0.22215 0.61004 0.0
C606 C 0.24041 0.13891 0.64236 0.0
H607 H 0.21421 0.97191 0.61172 0.0
H608 H 0.223 0.03525 0.60707 0.0
H609 H 0.23871 0.08577 0.65654 0.0
H610 H 0.22292 0.27242 0.64648 0.0
H611 H 0.22924 0.2054 0.65026 0.0
H612 H 0.23818 0.14707 0.59858 0.0
C613 C 0.22552 0.01855 0.61832 0.0
C614 C 0.23908 0.09828 0.64371 0.0
C615 C 0.22032 0.98235 0.62102 0.0
C616 C 0.22786 0.25893 0.63633 0.0
C617 C 0.23163 0.22045 0.63851 0.0
C618 C 0.23884 0.1342 0.61131 0.0
C619 C 0.23318 0.03383 0.6305 0.0
C620 C 0.23727 0.07515 0.62889 0.0
C621 C 0.23751 0.20099 0.62519 0.0
C622 C 0.23948 0.15773 0.62625 0.0
H623 H 0.23205 0.95904 0.65983 0.0
H624 H 0.24185 0.02082 0.65458 0.0
H625 H 0.23717 0.07657 0.60082 0.0
H626 H 0.23752 0.2751 0.59551 0.0
H627 H 0.24488 0.20892 0.5997 0.0
C628 C 0.98194 0.00817 0.37203 0.0
C629 C 0.97589 0.01646 0.38719 0.0
C630 C 0.98658 0.97095 0.36941 0.0
C631 C 0.99211 0.87397 0.39017 0.0
H632 H 0.9811 0.83373 0.34652 0.0
C633 C 0.97686 0.71625 0.3804 0.0
C634 C 0.97657 0.70056 0.36366 0.0
C635 C 0.9814 0.75355 0.38326 0.0
C636 C 0.98458 0.84433 0.35857 0.0
H637 H 0.97078 0.99313 0.41212 0.0
H638 H 0.97859 0.9281 0.40734 0.0
H639 H 0.98092 0.90363 0.35174 0.0
H640 H 0.98192 0.70897 0.33715 0.0
H641 H 0.99026 0.77336 0.34223 0.0
H642 H 0.99526 0.81407 0.39723 0.0
C643 C 0.97987 0.9504 0.39754 0.0
C644 C 0.98446 0.88466 0.36158 0.0
C645 C 0.97526 0.98762 0.40018 0.0
C646 C 0.98183 0.72094 0.35013 0.0
C647 C 0.98658 0.75779 0.35304 0.0
C648 C 0.9923 0.83344 0.38711 0.0
C649 C 0.98523 0.94129 0.38188 0.0
C650 C 0.98781 0.89981 0.37763 0.0
C651 C 0.9859 0.77541 0.36944 0.0
C652 C 0.98812 0.8181 0.37151 0.0
H653 H 0.98275 0.02991 0.36188 0.0
H654 H 0.99082 0.96488 0.35732 0.0
H655 H 0.99488 0.88495 0.40259 0.0
H656 H 0.97288 0.70096 0.39105 0.0
H657 H 0.98064 0.76623 0.39603 0.0
C658 C 0.77391 0.72525 0.3729 0.0
C659 C 0.77945 0.71705 0.38852 0.0
C660 C 0.76947 0.76259 0.36981 0.0
C661 C 0.76359 0.86026 0.38963 0.0
H662 H 0.77646 0.89912 0.34693 0.0
C663 C 0.77875 0.01866 0.38038 0.0
C664 C 0.77946 0.0342 0.36363 0.0
C665 C 0.77448 0.98087 0.38301 0.0
C666 C 0.77248 0.88891 0.35868 0.0
H667 H 0.78375 0.74058 0.41376 0.0
H668 H 0.77626 0.80577 0.40819 0.0
H669 H 0.77623 0.82928 0.35248 0.0
H670 H 0.77522 0.02448 0.33673 0.0
H671 H 0.76739 0.95917 0.34137 0.0
H672 H 0.76029 0.92042 0.39608 0.0
C673 C 0.77526 0.78334 0.39837 0.0
C674 C 0.77237 0.84864 0.36188 0.0
C675 C 0.77968 0.74602 0.40148 0.0
C676 C 0.77498 0.01277 0.34975 0.0
C677 C 0.77052 0.97536 0.35241 0.0
C678 C 0.76364 0.90072 0.38637 0.0
C679 C 0.7705 0.79243 0.38226 0.0
C680 C 0.7683 0.83397 0.37763 0.0
C681 C 0.77068 0.95825 0.36894 0.0
C682 C 0.76847 0.91556 0.37112 0.0
H683 H 0.77342 0.70343 0.36273 0.0
H684 H 0.76569 0.76864 0.35736 0.0
H685 H 0.76027 0.84967 0.4018 0.0
H686 H 0.78214 0.03466 0.39131 0.0
H687 H 0.77485 0.96858 0.3959 0.0
C688 C 0.52824 0.76091 0.61661 0.0
C689 C 0.52848 0.77778 0.63314 0.0
C690 C 0.52393 0.72306 0.61431 0.0
C691 C 0.52171 0.63371 0.64003 0.0
H692 H 0.51106 0.58974 0.59683 0.0
C693 C 0.52671 0.47021 0.62727 0.0
C694 C 0.53252 0.46287 0.61179 0.0
C695 C 0.52149 0.50642 0.63002 0.0
C696 C 0.51394 0.60163 0.60904 0.0
H697 H 0.52328 0.77066 0.65981 0.0
H698 H 0.51544 0.7052 0.65569 0.0
H699 H 0.51005 0.66076 0.60157 0.0
H700 H 0.53658 0.4866 0.58648 0.0
H701 H 0.52778 0.5499 0.59148 0.0
H702 H 0.52617 0.57528 0.64718 0.0
C703 C 0.51893 0.72039 0.64463 0.0
C704 C 0.51338 0.64223 0.61174 0.0
C705 C 0.52342 0.75784 0.64699 0.0
C706 C 0.53233 0.49146 0.59868 0.0
C707 C 0.52713 0.52765 0.60144 0.0
C708 C 0.52223 0.59329 0.63735 0.0
C709 C 0.51964 0.70179 0.62846 0.0
C710 C 0.51771 0.65883 0.62698 0.0
C711 C 0.52199 0.536 0.61736 0.0
C712 C 0.51881 0.577 0.62155 0.0
H713 H 0.53206 0.7758 0.60572 0.0
H714 H 0.5247 0.70955 0.6017 0.0
H715 H 0.52528 0.64536 0.65183 0.0
H716 H 0.52653 0.44858 0.63754 0.0
H717 H 0.51745 0.51187 0.64232 0.0
C718 C 0.71892 0.77094 0.63343 0.0
C719 C 0.72293 0.79155 0.61907 0.0
C720 C 0.72315 0.73365 0.63726 0.0
C721 C 0.73762 0.65142 0.61476 0.0
H722 H 0.73233 0.60163 0.65898 0.0
C723 C 0.72667 0.48891 0.61944 0.0
C724 C 0.72786 0.46876 0.63511 0.0
C725 C 0.72981 0.52832 0.61818 0.0
C726 C 0.73417 0.61485 0.64659 0.0
H727 H 0.73504 0.79176 0.59824 0.0
H728 H 0.74312 0.72813 0.60566 0.0
H729 H 0.73188 0.67245 0.65691 0.0
H730 H 0.73413 0.47248 0.66133 0.0
H731 H 0.7403 0.54059 0.65888 0.0
H732 H 0.74046 0.59399 0.60461 0.0
C733 C 0.7363 0.73929 0.6135 0.0
C734 C 0.73367 0.65577 0.64533 0.0
C735 C 0.73179 0.77596 0.60933 0.0
C736 C 0.73299 0.4877 0.64915 0.0
C737 C 0.73643 0.52683 0.64776 0.0
C738 C 0.73849 0.61064 0.61613 0.0
C739 C 0.7317 0.71677 0.62704 0.0
C740 C 0.73478 0.67451 0.62922 0.0
C741 C 0.7345 0.54817 0.63246 0.0
C742 C 0.73617 0.59161 0.63185 0.0
H743 H 0.712 0.78247 0.64099 0.0
H744 H 0.71919 0.71735 0.6476 0.0
H745 H 0.73854 0.66428 0.60205 0.0
H746 H 0.72267 0.47498 0.60846 0.0
H747 H 0.72795 0.54357 0.60626 0.0
C748 C 0.48177 0.51628 0.37066 0.0
C749 C 0.4772 0.52394 0.38707 0.0
C750 C 0.48588 0.47893 0.36665 0.0
C751 C 0.49268 0.38047 0.38488 0.0
H752 H 0.47704 0.34314 0.34416 0.0
C753 C 0.47647 0.22292 0.37743 0.0
C754 C 0.475 0.20724 0.36082 0.0
C755 C 0.48082 0.26077 0.37953 0.0
C756 C 0.48176 0.35295 0.35531 0.0
H757 H 0.47435 0.49948 0.41262 0.0
H758 H 0.48128 0.43434 0.4055 0.0
H759 H 0.47788 0.41291 0.34993 0.0
H760 H 0.47788 0.21709 0.33348 0.0
H761 H 0.48574 0.28263 0.33716 0.0
H762 H 0.49611 0.32002 0.3906 0.0
C763 C 0.48176 0.45714 0.39575 0.0
C764 C 0.48224 0.39315 0.35862 0.0
C765 C 0.47765 0.49443 0.39977 0.0
C766 C 0.4787 0.22884 0.34644 0.0
C767 C 0.4832 0.26637 0.34854 0.0
C768 C 0.49226 0.34011 0.3815 0.0
C769 C 0.48552 0.44862 0.37897 0.0
C770 C 0.48733 0.40723 0.37376 0.0
C771 C 0.48391 0.28336 0.36505 0.0
C772 C 0.48642 0.32587 0.36701 0.0
H773 H 0.48171 0.53851 0.36064 0.0
H774 H 0.48888 0.47327 0.35367 0.0
H775 H 0.49678 0.39061 0.39654 0.0
H776 H 0.47371 0.20684 0.38875 0.0
H777 H 0.48112 0.27306 0.39242 0.0
C778 C 0.28083 0.49417 0.34884 0.0
C779 C 0.28083 0.52336 0.36171 0.0
C780 C 0.27638 0.45703 0.3522 0.0
C781 C 0.27383 0.39237 0.38896 0.0
H782 H 0.2615 0.32026 0.35511 0.0
C783 C 0.27664 0.22813 0.40101 0.0
C784 C 0.28106 0.20679 0.38705 0.0
C785 C 0.27218 0.26557 0.39846 0.0
C786 C 0.26491 0.34007 0.36472 0.0
H787 H 0.27515 0.53758 0.38763 0.0
H788 H 0.26737 0.47263 0.39346 0.0
H789 H 0.26132 0.39099 0.34935 0.0
H790 H 0.28366 0.20662 0.35935 0.0
H791 H 0.27635 0.27277 0.35495 0.0
H792 H 0.27812 0.34198 0.40385 0.0
C793 C 0.271 0.47839 0.38088 0.0
C794 C 0.26477 0.38051 0.36145 0.0
C795 C 0.27547 0.51557 0.37753 0.0
C796 C 0.28034 0.22254 0.37034 0.0
C797 C 0.27605 0.26034 0.36782 0.0
C798 C 0.27402 0.35212 0.39218 0.0
C799 C 0.2718 0.44833 0.36849 0.0
C800 C 0.26959 0.4069 0.37329 0.0
C801 C 0.27226 0.28277 0.38195 0.0
C802 C 0.26993 0.32538 0.37985 0.0
H803 H 0.28474 0.49932 0.3364 0.0
H804 H 0.27721 0.43443 0.34242 0.0
H805 H 0.27777 0.41181 0.39824 0.0
H806 H 0.27688 0.21626 0.414 0.0
H807 H 0.26907 0.28165 0.40955 0.0
C808 C 0.52763 0.26251 0.12126 0.0
C809 C 0.5288 0.27888 0.1378 0.0
C810 C 0.52348 0.22436 0.1193 0.0
C811 C 0.52312 0.13351 0.14441 0.0
H812 H 0.50972 0.09133 0.1027 0.0
C813 C 0.52593 0.9696 0.13037 0.0
C814 C 0.53084 0.96195 0.11419 0.0
C815 C 0.52129 0.00643 0.13393 0.0
C816 C 0.51338 0.10272 0.11449 0.0
H817 H 0.52541 0.27017 0.16507 0.0
H818 H 0.51784 0.20412 0.16161 0.0
H819 H 0.50916 0.16218 0.10806 0.0
H820 H 0.53385 0.98591 0.08859 0.0
H821 H 0.526 0.05019 0.09493 0.0
H822 H 0.52781 0.07463 0.15051 0.0
C823 C 0.52051 0.22005 0.15021 0.0
C824 C 0.51308 0.14324 0.11754 0.0
C825 C 0.52483 0.25788 0.15219 0.0
C826 C 0.53028 0.99095 0.10127 0.0
C827 C 0.52565 0.02773 0.10483 0.0
C828 C 0.52336 0.09315 0.14141 0.0
C829 C 0.52027 0.20216 0.13384 0.0
C830 C 0.51834 0.15919 0.13222 0.0
C831 C 0.52146 0.03628 0.12137 0.0
C832 C 0.51888 0.07749 0.12612 0.0
H833 H 0.53061 0.27813 0.10995 0.0
H834 H 0.52351 0.21145 0.10652 0.0
H835 H 0.52742 0.14466 0.15572 0.0
H836 H 0.52607 0.94775 0.14055 0.0
H837 H 0.51799 0.01208 0.14672 0.0
C838 C 0.73243 0.97583 0.15189 0.0
C839 C 0.72822 0.95572 0.13744 0.0
C840 C 0.73716 0.0131 0.15004 0.0
C841 C 0.7449 0.0901 0.11752 0.0
H842 H 0.73077 0.15886 0.15104 0.0
C843 C 0.72686 0.24089 0.1017 0.0
C844 C 0.72633 0.27004 0.11456 0.0
C845 C 0.73186 0.20466 0.10515 0.0
C846 C 0.73507 0.1403 0.14179 0.0
H847 H 0.72637 0.95731 0.1096 0.0
H848 H 0.73409 0.02314 0.10642 0.0
H849 H 0.7311 0.08888 0.15618 0.0
H850 H 0.73153 0.28525 0.1406 0.0
H851 H 0.74024 0.22182 0.14659 0.0
H852 H 0.7481 0.14198 0.10257 0.0
C853 C 0.73405 0.00994 0.11915 0.0
C854 C 0.73528 0.09994 0.14475 0.0
C855 C 0.72951 0.9723 0.12096 0.0
C856 C 0.73163 0.26321 0.1305 0.0
C857 C 0.73664 0.22693 0.13394 0.0
C858 C 0.74463 0.13063 0.11451 0.0
C859 C 0.73753 0.03137 0.13376 0.0
C860 C 0.73977 0.07418 0.13232 0.0
C861 C 0.73645 0.19683 0.12151 0.0
C862 C 0.73929 0.15589 0.1263 0.0
H863 H 0.73176 0.96325 0.16471 0.0
H864 H 0.74002 0.02838 0.1615 0.0
H865 H 0.74864 0.07112 0.10787 0.0
H866 H 0.72301 0.24534 0.08918 0.0
H867 H 0.73148 0.18198 0.09534 0.0
C868 C 0.47496 0.74628 0.84808 0.0
C869 C 0.47562 0.71792 0.86128 0.0
C870 C 0.47947 0.78374 0.85048 0.0
C871 C 0.48427 0.85126 0.88592 0.0
H872 H 0.49525 0.91983 0.84961 0.0
C873 C 0.48346 0.01538 0.89681 0.0
C874 C 0.47813 0.03618 0.88348 0.0
C875 C 0.4878 0.97795 0.8938 0.0
C876 C 0.49224 0.90101 0.8599 0.0
H877 H 0.48238 0.7057 0.88676 0.0
H878 H 0.49029 0.77112 0.89089 0.0
H879 H 0.49441 0.8488 0.84474 0.0
H880 H 0.47391 0.03588 0.85628 0.0
H881 H 0.481 0.96966 0.85112 0.0
H882 H 0.48142 0.90296 0.90073 0.0
C883 C 0.48609 0.7645 0.87882 0.0
C884 C 0.49177 0.8604 0.85712 0.0
C885 C 0.48155 0.72704 0.87645 0.0
C886 C 0.47798 0.02032 0.86676 0.0
C887 C 0.48212 0.98245 0.86381 0.0
C888 C 0.4847 0.89167 0.88867 0.0
C889 C 0.48477 0.79362 0.86609 0.0
C890 C 0.48744 0.83528 0.86993 0.0
C891 C 0.48662 0.96019 0.8775 0.0
C892 C 0.48834 0.91719 0.87551 0.0
H893 H 0.47057 0.74016 0.83613 0.0
H894 H 0.4782 0.80558 0.84049 0.0
H895 H 0.48071 0.83289 0.89596 0.0
H896 H 0.48386 0.02739 0.90977 0.0
H897 H 0.4915 0.96205 0.9045 0.0
C898 C 0.274 0.71631 0.86809 0.0
C899 C 0.27897 0.70904 0.88425 0.0
C900 C 0.26946 0.75319 0.86435 0.0
C901 C 0.26231 0.85094 0.88315 0.0
H902 H 0.27707 0.88992 0.84195 0.0
C903 C 0.27915 0.00723 0.87676 0.0
C904 C 0.28077 0.02352 0.8603 0.0
C905 C 0.27433 0.97004 0.87853 0.0
C906 C 0.27256 0.87967 0.85323 0.0
H907 H 0.28212 0.73365 0.90969 0.0
H908 H 0.27446 0.79801 0.90303 0.0
H909 H 0.27647 0.82002 0.84732 0.0
H910 H 0.27757 0.01586 0.83292 0.0
H911 H 0.26883 0.95147 0.83603 0.0
H912 H 0.2589 0.9111 0.88943 0.0
C913 C 0.27398 0.77523 0.89327 0.0
C914 C 0.27223 0.83937 0.85632 0.0
C915 C 0.27852 0.73841 0.89701 0.0
C916 C 0.27665 0.00351 0.84575 0.0
C917 C 0.27165 0.96666 0.84754 0.0
C918 C 0.26258 0.89141 0.88 0.0
C919 C 0.26979 0.78344 0.8767 0.0
C920 C 0.26754 0.82469 0.87166 0.0
C921 C 0.27088 0.94874 0.86386 0.0
C922 C 0.26816 0.90628 0.86537 0.0
H923 H 0.27405 0.69414 0.85804 0.0
H924 H 0.26614 0.7586 0.85154 0.0
H925 H 0.25849 0.84033 0.89496 0.0
H926 H 0.28222 0.02214 0.88819 0.0
H927 H 0.274 0.95705 0.89129 0.0
C928 C 0.96899 0.54922 0.96521 0.0
C929 C 0.97275 0.58235 0.95602 0.0
C930 C 0.97612 0.52989 0.97685 0.0
C931 C 0.00646 0.51677 0.98651 0.0
H932 H 0.99541 0.46967 0.02881 0.0
C933 C 0.03568 0.44684 0.0385 0.0
C934 C 0.03178 0.41264 0.04676 0.0
C935 C 0.02873 0.46748 0.02699 0.0
C936 C 0.99862 0.48227 0.01694 0.0
H937 H 0.9868 0.62212 0.95241 0.0
H938 H 0.9991 0.58912 0.97294 0.0
H939 H 0.98261 0.507 0.01052 0.0
H940 H 0.01769 0.37241 0.04881 0.0
H941 H 0.00572 0.40792 0.02868 0.0
H942 H 0.02248 0.49207 0.99301 0.0
C943 C 0.99074 0.57741 0.9709 0.0
C944 C 0.99126 0.50373 0.00645 0.0
C945 C 0.98364 0.59661 0.95924 0.0
C946 C 0.02096 0.39875 0.04275 0.0
C947 C 0.01404 0.41933 0.03131 0.0
C948 C 0.01382 0.49538 0.99705 0.0
C949 C 0.98718 0.54331 0.9796 0.0
C950 C 0.99507 0.52118 0.99105 0.0
C951 C 0.01773 0.4544 0.02355 0.0
C952 C 0.00998 0.47766 0.01236 0.0
H953 H 0.96069 0.53727 0.96292 0.0
H954 H 0.9731 0.50355 0.98319 0.0
H955 H 0.00967 0.52918 0.97461 0.0
H956 H 0.04394 0.45845 0.04137 0.0
H957 H 0.03184 0.49447 0.0213 0.0
C958 C 0.2868 0.69445 0.96203 0.0
C959 C 0.28276 0.66164 0.95291 0.0
C960 C 0.27997 0.71373 0.97411 0.0
C961 C 0.24996 0.72809 0.98511 0.0
H962 H 0.26172 0.77066 0.02786 0.0
C963 C 0.22151 0.79491 0.03863 0.0
C964 C 0.22562 0.82795 0.04751 0.0
C965 C 0.22832 0.7749 0.02674 0.0
C966 C 0.25832 0.75937 0.01587 0.0
H967 H 0.26852 0.6224 0.94986 0.0
H968 H 0.25674 0.65549 0.97105 0.0
H969 H 0.27413 0.7343 0.00855 0.0
H970 H 0.23997 0.86674 0.05037 0.0
H971 H 0.25171 0.83241 0.02953 0.0
H972 H 0.23416 0.7532 0.99243 0.0
C973 C 0.26509 0.66691 0.96865 0.0
C974 C 0.26545 0.73846 0.0048 0.0
C975 C 0.2719 0.64771 0.95659 0.0
C976 C 0.23654 0.84129 0.04382 0.0
C977 C 0.24333 0.82137 0.03197 0.0
C978 C 0.24283 0.749 0.99618 0.0
C979 C 0.26895 0.70061 0.97733 0.0
C980 C 0.26136 0.72256 0.98927 0.0
C981 C 0.23939 0.7875 0.0235 0.0
C982 C 0.24693 0.76501 0.01169 0.0
H983 H 0.2951 0.70605 0.95942 0.0
H984 H 0.2832 0.73974 0.98048 0.0
H985 H 0.24656 0.71685 0.97311 0.0
H986 H 0.21316 0.78375 0.04125 0.0
H987 H 0.22503 0.74878 0.02054 0.0
C988 C 0.02304 0.83834 0.20696 0.0
C989 C 0.03401 0.82455 0.20398 0.0
C990 C 0.01595 0.8192 0.21865 0.0
C991 C 0.01146 0.72228 0.23891 0.0
H992 H 0.99099 0.77959 0.26865 0.0
C993 C 0.98458 0.64569 0.29133 0.0
C994 C 0.97368 0.65989 0.29447 0.0
C995 C 0.99178 0.66528 0.27994 0.0
C996 C 0.99653 0.7631 0.26025 0.0
H997 H 0.04623 0.78043 0.21136 0.0
H998 H 0.03386 0.74709 0.23193 0.0
H999 H 0.00423 0.8156 0.25054 0.0
H1000 H 0.96169 0.70533 0.28772 0.0
H1001 H 0.97421 0.73926 0.26759 0.0
H1002 H 0.00373 0.66979 0.24853 0.0
C1003 C 0.03071 0.77253 0.22505 0.0
C1004 C 0.00417 0.78377 0.24991 0.0
C1005 C 0.03784 0.79185 0.21338 0.0
C1006 C 0.97003 0.69355 0.28556 0.0
C1007 C 0.97725 0.71323 0.27416 0.0
C1008 C 0.00381 0.70161 0.24922 0.0
C1009 C 0.01961 0.78563 0.22763 0.0
C1010 C 0.01173 0.76364 0.2391 0.0
C1011 C 0.98828 0.69965 0.27138 0.0
C1012 C 0.99624 0.72172 0.26004 0.0
H1013 H 0.0198 0.8634 0.1999 0.0
H1014 H 0.00744 0.82993 0.22017 0.0
H1015 H 0.01701 0.70582 0.23051 0.0
H1016 H 0.98769 0.61994 0.29804 0.0
H1017 H 1.00023 0.65415 0.27831 0.0
C1018 C 0.23279 0.39812 0.20948 0.0
C1019 C 0.2221 0.41413 0.20632 0.0
C1020 C 0.24029 0.41667 0.22074 0.0
C1021 C 0.24669 0.51447 0.23881 0.0
H1022 H 0.26635 0.45628 0.26947 0.0
C1023 C 0.27427 0.59033 0.29034 0.0
C1024 C 0.28486 0.57436 0.29427 0.0
C1025 C 0.26704 0.57138 0.27882 0.0
C1026 C 0.26106 0.47296 0.26079 0.0
H1027 H 0.21075 0.46156 0.21303 0.0
H1028 H 0.22382 0.49387 0.23288 0.0
H1029 H 0.25242 0.42117 0.25227 0.0
H1030 H 0.29632 0.52657 0.28864 0.0
H1031 H 0.28374 0.49361 0.26822 0.0
H1032 H 0.25533 0.56624 0.24725 0.0
C1033 C 0.22645 0.46711 0.22645 0.0
C1034 C 0.25302 0.45282 0.25098 0.0
C1035 C 0.21891 0.44838 0.21522 0.0
C1036 C 0.28824 0.53972 0.28584 0.0
C1037 C 0.28097 0.52062 0.27429 0.0
C1038 C 0.25474 0.5346 0.24858 0.0
C1039 C 0.23731 0.45187 0.2291 0.0
C1040 C 0.2457 0.47332 0.2399 0.0
C1041 C 0.27018 0.53585 0.27089 0.0
C1042 C 0.26201 0.51416 0.25976 0.0
H1043 H 0.23554 0.37182 0.20281 0.0
H1044 H 0.24859 0.40422 0.22234 0.0
H1045 H 0.24136 0.53116 0.23016 0.0
H1046 H 0.27137 0.61692 0.29663 0.0
H1047 H 0.25879 0.58384 0.2767 0.0
C1048 C 0.78729 0.193 0.96482 0.0
C1049 C 0.78388 0.15958 0.95551 0.0
C1050 C 0.7799 0.21145 0.97638 0.0
C1051 C 0.74941 0.22126 0.98559 0.0
H1052 H 0.75966 0.26706 0.02862 0.0
C1053 C 0.71906 0.28406 0.03777 0.0
C1054 C 0.72258 0.31786 0.04671 0.0
C1055 C 0.7263 0.26523 0.02609 0.0
C1056 C 0.75667 0.25485 0.01655 0.0
H1057 H 0.77019 0.11842 0.9516 0.0
H1058 H 0.75747 0.14995 0.97194 0.0
H1059 H 0.77295 0.23235 0.01017 0.0
H1060 H 0.73626 0.35941 0.04979 0.0
H1061 H 0.74874 0.32712 0.02935 0.0
H1062 H 0.73312 0.24373 0.99202 0.0
C1063 C 0.76573 0.16253 0.97006 0.0
C1064 C 0.76431 0.23489 0.00596 0.0
C1065 C 0.77309 0.1442 0.95851 0.0
C1066 C 0.7333 0.33328 0.0432 0.0
C1067 C 0.74051 0.31455 0.03158 0.0
C1068 C 0.74176 0.24119 0.9962 0.0
C1069 C 0.76895 0.19685 0.97891 0.0
C1070 C 0.76079 0.21783 0.99033 0.0
C1071 C 0.73722 0.27981 0.02314 0.0
C1072 C 0.7453 0.25837 0.01179 0.0
H1073 H 0.7955 0.20579 0.96271 0.0
H1074 H 0.78265 0.23798 0.98286 0.0
H1075 H 0.74643 0.20912 0.97351 0.0
H1076 H 0.71088 0.27131 0.04025 0.0
H1077 H 0.7235 0.23843 0.01988 0.0
C1078 C 0.98615 0.15571 0.79531 0.0
C1079 C 0.97535 0.17036 0.79884 0.0
C1080 C 0.99327 0.17509 0.78375 0.0
C1081 C 0.99409 0.24792 0.74826 0.0
H1082 H 0.02524 0.25923 0.76212 0.0
C1083 C 0.02497 0.34357 0.7091 0.0
C1084 C 0.0358 0.3284 0.70629 0.0
C1085 C 0.01772 0.32601 0.72104 0.0
C1086 C 0.01661 0.25601 0.75795 0.0
H1087 H 0.96342 0.21627 0.7925 0.0
H1088 H 0.97587 0.2502 0.77219 0.0
H1089 H 0.01212 0.22441 0.78085 0.0
H1090 H 0.04764 0.28353 0.71425 0.0
H1091 H 0.03497 0.25261 0.73504 0.0
H1092 H 0.99859 0.2792 0.72528 0.0
C1093 C 0.97881 0.22354 0.77837 0.0
C1094 C 0.00907 0.23601 0.76869 0.0
C1095 C 0.97166 0.20411 0.79001 0.0
C1096 C 0.03938 0.29614 0.71621 0.0
C1097 C 0.0321 0.27842 0.72813 0.0
C1098 C 1.00164 0.26784 0.73748 0.0
C1099 C 0.98979 0.20967 0.77538 0.0
C1100 C 0.99772 0.23154 0.76396 0.0
C1101 C 0.02109 0.29265 0.73045 0.0
C1102 C 0.01301 0.2721 0.74215 0.0
H1103 H 0.98925 0.12968 0.80181 0.0
H1104 H 1.00156 0.16309 0.78148 0.0
H1105 H 0.98546 0.24465 0.74411 0.0
H1106 H 0.02195 0.3685 0.70172 0.0
H1107 H 0.00941 0.33836 0.72273 0.0
C1108 C 0.72172 0.44073 0.71184 0.0
C1109 C 0.72589 0.40807 0.70275 0.0
C1110 C 0.72842 0.45992 0.72413 0.0
C1111 C 0.75411 0.4487 0.75104 0.0
H1112 H 0.75464 0.56267 0.74948 0.0
C1113 C 0.787 0.53902 0.78924 0.0
C1114 C 0.78295 0.5723 0.79802 0.0
C1115 C 0.78023 0.51949 0.77715 0.0
C1116 C 0.75453 0.53086 0.75021 0.0
H1117 H 0.74018 0.369 0.69994 0.0
H1118 H 0.75178 0.40225 0.72128 0.0
H1119 H 0.74193 0.52654 0.73057 0.0
H1120 H 0.76877 0.61192 0.80056 0.0
H1121 H 0.75702 0.578 0.77964 0.0
H1122 H 0.7667 0.45301 0.77069 0.0
C1123 C 0.74335 0.41307 0.71904 0.0
C1124 C 0.7472 0.51013 0.7394 0.0
C1125 C 0.73669 0.39405 0.70673 0.0
C1126 C 0.77216 0.58641 0.794 0.0
C1127 C 0.76543 0.56701 0.78193 0.0
C1128 C 0.76143 0.46944 0.76187 0.0
C1129 C 0.73939 0.44672 0.72765 0.0
C1130 C 0.7469 0.46878 0.73966 0.0
C1131 C 0.76928 0.5329 0.77355 0.0
C1132 C 0.76174 0.5108 0.7616 0.0
H1133 H 0.71345 0.45234 0.70903 0.0
H1134 H 0.72505 0.48543 0.73071 0.0
H1135 H 0.75401 0.41689 0.75173 0.0
H1136 H 0.79526 0.52735 0.79206 0.0
H1137 H 0.78354 0.49365 0.77074 0.0
C1138 C 0.96798 0.04131 0.4631 0.0
C1139 C 0.97187 0.07413 0.45384 0.0
C1140 C 0.97484 0.0231 0.47546 0.0
C1141 C 0.00492 0.01225 0.487 0.0
H1142 H 0.99318 0.96724 0.5293 0.0
C1143 C 0.03348 0.9468 0.54074 0.0
C1144 C 0.02962 0.91268 0.5491 0.0
C1145 C 0.02659 0.96671 0.52893 0.0
C1146 C 0.99658 0.97928 0.51745 0.0
H1147 H 0.98579 0.11476 0.4509 0.0
H1148 H 0.99759 0.08368 0.47262 0.0
H1149 H 0.98061 0.00263 0.5099 0.0
H1150 H 0.01565 0.87197 0.55114 0.0
H1151 H 0.00377 0.90621 0.53048 0.0
H1152 H 0.02089 0.98887 0.49456 0.0
C1153 C 0.98938 0.0713 0.47009 0.0
C1154 C 0.98936 -0.00039 0.50632 0.0
C1155 C 0.98255 0.08935 0.45773 0.0
C1156 C 0.01888 0.89826 0.545 0.0
C1157 C 0.01201 0.91811 0.53325 0.0
C1158 C 0.01214 0.99197 0.49814 0.0
C1159 C 0.98573 0.03739 0.47884 0.0
C1160 C 0.99342 0.01631 0.49093 0.0
C1161 C 0.01569 0.95294 0.52527 0.0
C1162 C 0.00806 0.97506 0.51347 0.0
H1163 H 0.95982 0.02872 0.46032 0.0
H1164 H 0.97177 -0.0031 0.48187 0.0
H1165 H 0.00832 0.02408 0.47511 0.0
H1166 H 0.04169 0.9588 0.54369 0.0
H1167 H 0.02967 0.99357 0.52309 0.0
C1168 C 0.2878 0.19247 0.46503 0.0
C1169 C 0.2836 0.1596 0.45612 0.0
C1170 C 0.28106 0.21253 0.477 0.0
C1171 C 0.25513 0.20272 0.50355 0.0
H1172 H 0.25535 0.31673 0.50259 0.0
C1173 C 0.22263 0.29424 0.54189 0.0
C1174 C 0.22682 0.32685 0.55099 0.0
C1175 C 0.22934 0.27472 0.52973 0.0
C1176 C 0.25525 0.2849 0.50314 0.0
H1177 H 0.26913 0.12142 0.45316 0.0
H1178 H 0.25745 0.15621 0.47388 0.0
H1179 H 0.26791 0.2801 0.48359 0.0
H1180 H 0.24123 0.3653 0.55401 0.0
H1181 H 0.25288 0.33136 0.53292 0.0
H1182 H 0.24248 0.20749 0.52309 0.0
C1183 C 0.26595 0.16645 0.4718 0.0
C1184 C 0.26249 0.26387 0.49228 0.0
C1185 C 0.27266 0.14654 0.45984 0.0
C1186 C 0.23771 0.34033 0.54721 0.0
C1187 C 0.2444 0.32091 0.53504 0.0
C1188 C 0.24789 0.22374 0.5144 0.0
C1189 C 0.26999 0.20005 0.48037 0.0
C1190 C 0.26252 0.22249 0.49233 0.0
C1191 C 0.24038 0.28743 0.52635 0.0
C1192 C 0.24785 0.26512 0.51436 0.0
H1193 H 0.29618 0.20337 0.46242 0.0
H1194 H 0.2845 0.23798 0.48354 0.0
H1195 H 0.25503 0.1709 0.50411 0.0
H1196 H 0.21428 0.28309 0.54451 0.0
H1197 H 0.2259 0.2494 0.52308 0.0
C1198 C 0.23226 0.90124 0.70781 0.0
C1199 C 0.22135 0.916 0.70523 0.0
C1200 C 0.23974 0.92017 0.71898 0.0
C1201 C 0.24531 0.0173 0.73867 0.0
H1202 H 0.26595 0.95865 0.7676 0.0
C1203 C 0.27305 0.09124 0.79076 0.0
C1204 C 0.2839 0.0763 0.7937 0.0
C1205 C 0.26573 0.07257 0.77927 0.0
C1206 C 0.26037 0.97551 0.75941 0.0
H1207 H 0.20966 0.96172 0.7128 0.0
H1208 H 0.22269 -0.00543 0.73251 0.0
H1209 H 0.25221 0.92354 0.75007 0.0
H1210 H 0.29568 0.03066 0.78638 0.0
H1211 H 0.28293 -0.00172 0.76608 0.0
H1212 H 0.25346 0.06928 0.74801 0.0
C1213 C 0.2255 0.96857 0.72568 0.0
C1214 C 0.25245 0.95534 0.74939 0.0
C1215 C 0.21799 0.94952 0.71452 0.0
C1216 C 0.2874 0.043 0.78438 0.0
C1217 C 0.28004 0.0242 0.77288 0.0
C1218 C 0.25324 0.03747 0.74868 0.0
C1219 C 0.23654 0.95446 0.72787 0.0
C1220 C 0.2448 0.97596 0.73889 0.0
C1221 C 0.26904 0.03837 0.77041 0.0
C1222 C 0.26087 0.01686 0.75921 0.0
H1223 H 0.23515 0.87557 0.70082 0.0
H1224 H 0.24818 0.90862 0.72018 0.0
H1225 H 0.23971 0.03415 0.7305 0.0
H1226 H 0.27006 0.11675 0.79776 0.0
H1227 H 0.25731 0.08415 0.77785 0.0
C1228 C 0.77396 0.64387 0.46011 0.0
C1229 C 0.7843 0.66129 0.45576 0.0
C1230 C 0.76679 0.66158 0.47211 0.0
C1231 C 0.76012 0.7591 0.48995 0.0
H1232 H 0.74197 0.70018 0.52254 0.0
C1233 C 0.7331 0.83532 0.5418 0.0
C1234 C 0.72259 0.8192 0.5461 0.0
C1235 C 0.74038 0.8157 0.53059 0.0
C1236 C 0.74686 0.71701 0.51334 0.0
H1237 H 0.79543 0.71017 0.46118 0.0
H1238 H 0.78294 0.74104 0.48232 0.0
H1239 H 0.75576 0.66587 0.50469 0.0
H1240 H 0.71139 0.77002 0.54168 0.0
H1241 H 0.7241 0.73571 0.52181 0.0
H1242 H 0.7512 0.81016 0.49846 0.0
C1243 C 0.78032 0.71384 0.47625 0.0
C1244 C 0.75481 0.69736 0.50316 0.0
C1245 C 0.78754 0.69596 0.46428 0.0
C1246 C 0.71941 0.78326 0.53858 0.0
C1247 C 0.72674 0.76347 0.52733 0.0
C1248 C 0.75217 0.7787 0.50009 0.0
C1249 C 0.76975 0.69731 0.48003 0.0
C1250 C 0.76156 0.71819 0.49137 0.0
C1251 C 0.73736 0.77934 0.52332 0.0
C1252 C 0.74546 0.75797 0.51197 0.0
H1253 H 0.7712 0.61715 0.45378 0.0
H1254 H 0.75871 0.64814 0.47459 0.0
H1255 H 0.76498 0.77597 0.48074 0.0
H1256 H 0.73586 0.86289 0.54738 0.0
H1257 H 0.74853 0.8286 0.52804 0.0
C1258 C 0.73538 0.89216 0.20788 0.0
C1259 C 0.72446 0.90591 0.20446 0.0
C1260 C 0.7424 0.91218 0.21939 0.0
C1261 C 0.74675 0.01095 0.23801 0.0
H1262 H 0.76694 0.95666 0.26923 0.0
C1263 C 0.77223 0.09195 0.29065 0.0
C1264 C 0.78309 0.07849 0.2946 0.0
C1265 C 0.76542 0.07145 0.27902 0.0
C1266 C 0.76148 0.97229 0.2604 0.0
H1267 H 0.71224 0.95081 0.21092 0.0
H1268 H 0.72446 0.98556 0.23118 0.0
H1269 H 0.754 0.91883 0.25132 0.0
H1270 H 0.79546 0.0335 0.28898 0.0
H1271 H 0.78362 -0.00209 0.26842 0.0
H1272 H 0.75423 0.06439 0.24703 0.0
C1273 C 0.72764 0.95952 0.22477 0.0
C1274 C 0.75402 0.95058 0.25018 0.0
C1275 C 0.72059 0.93937 0.2133 0.0
C1276 C 0.78714 0.04472 0.28618 0.0
C1277 C 0.7803 0.0241 0.27454 0.0
C1278 C 0.75422 0.03265 0.24821 0.0
C1279 C 0.73871 0.94658 0.22772 0.0
C1280 C 0.74653 0.96963 0.23889 0.0
C1281 C 0.76928 0.03687 0.27102 0.0
C1282 C 0.76167 0.01364 0.25959 0.0
H1283 H 0.73865 0.86655 0.20125 0.0
H1284 H 0.75089 0.90151 0.22123 0.0
H1285 H 0.74127 0.02659 0.22921 0.0
H1286 H 0.76882 0.11778 0.29695 0.0
H1287 H 0.75696 0.082 0.2768 0.0
C1288 C 0.48496 0.58647 0.45964 0.0
C1289 C 0.47425 0.57134 0.45585 0.0
C1290 C 0.49213 0.56685 0.47102 0.0
C1291 C 0.49336 0.49122 0.50538 0.0
H1292 H 0.52453 0.48314 0.49121 0.0
C1293 C 0.5248 0.39369 0.54251 0.0
C1294 C 0.53557 0.40925 0.54557 0.0
C1295 C 0.51744 0.41204 0.53099 0.0
C1296 C 0.51589 0.48544 0.49547 0.0
H1297 H 0.46252 0.52439 0.46157 0.0
H1298 H 0.47508 0.48998 0.48156 0.0
H1299 H 0.51121 0.51872 0.47315 0.0
H1300 H 0.54714 0.4557 0.53849 0.0
H1301 H 0.53426 0.48797 0.51843 0.0
H1302 H 0.49806 0.45815 0.52777 0.0
C1303 C 0.4779 0.51722 0.47574 0.0
C1304 C 0.50824 0.50588 0.48511 0.0
C1305 C 0.47069 0.53693 0.4643 0.0
C1306 C 0.53895 0.44279 0.53633 0.0
C1307 C 0.53154 0.46128 0.52482 0.0
C1308 C 0.50103 0.47083 0.51578 0.0
C1309 C 0.48881 0.5315 0.47892 0.0
C1310 C 0.49688 0.50921 0.48996 0.0
C1311 C 0.52061 0.44657 0.52226 0.0
C1312 C 0.51241 0.46772 0.51098 0.0
H1313 H 0.48796 0.61304 0.45344 0.0
H1314 H 0.50036 0.5792 0.47346 0.0
H1315 H 0.48471 0.49355 0.50961 0.0
H1316 H 0.52194 0.36778 0.54936 0.0
H1317 H 0.50919 0.39934 0.52908 0.0
C1318 C 0.51945 0.83769 0.70529 0.0
C1319 C 0.53033 0.82349 0.70199 0.0
C1320 C 0.51234 0.8182 0.71683 0.0
C1321 C 0.50763 0.7205 0.73629 0.0
H1322 H 0.48778 0.77757 0.76709 0.0
C1323 C 0.48235 0.64518 0.79074 0.0
C1324 C 0.47158 0.65948 0.7947 0.0
C1325 C 0.48906 0.66402 0.77845 0.0
C1326 C 0.49314 0.76118 0.75838 0.0
H1327 H 0.5424 0.77824 0.70863 0.0
H1328 H 0.53002 0.74436 0.729 0.0
H1329 H 0.50084 0.81369 0.74875 0.0
H1330 H 0.45921 0.70393 0.78835 0.0
H1331 H 0.47089 0.73671 0.76667 0.0
H1332 H 0.49995 0.66797 0.74596 0.0
C1333 C 0.52694 0.77036 0.72245 0.0
C1334 C 0.50067 0.7819 0.7479 0.0
C1335 C 0.53407 0.78998 0.71092 0.0
C1336 C 0.46746 0.69213 0.78556 0.0
C1337 C 0.4742 0.71115 0.77328 0.0
C1338 C 0.5001 0.69977 0.74676 0.0
C1339 C 0.51592 0.78391 0.72535 0.0
C1340 C 0.50804 0.76184 0.73676 0.0
C1341 C 0.48517 0.69776 0.76983 0.0
C1342 C 0.49278 0.71983 0.75798 0.0
H1343 H 0.51628 0.86337 0.69859 0.0
H1344 H 0.50389 0.82929 0.7186 0.0
H1345 H 0.51303 0.70412 0.72762 0.0
H1346 H 0.48579 0.6201 0.79756 0.0
H1347 H 0.49748 0.65306 0.77626 0.0
C1348 C 0.46839 0.19243 0.28534 0.0
C1349 C 0.47201 0.15727 0.29307 0.0
C1350 C 0.47548 0.21315 0.27407 0.0
C1351 C 0.50577 0.22485 0.26412 0.0
H1352 H 0.49513 0.27891 0.22322 0.0
C1353 C 0.53582 0.2942 0.21347 0.0
C1354 C 0.53239 0.32915 0.20535 0.0
C1355 C 0.52858 0.27438 0.2248 0.0
C1356 C 0.49823 0.26443 0.23473 0.0
H1357 H 0.48568 0.11519 0.29431 0.0
H1358 H 0.49788 0.15067 0.2745 0.0
H1359 H 0.48195 0.24124 0.24079 0.0
H1360 H 0.51888 0.37172 0.20344 0.0
H1361 H 0.50641 0.33777 0.22341 0.0
H1362 H 0.52203 0.248 0.25809 0.0
C1363 C 0.4897 0.1629 0.27742 0.0
C1364 C 0.49066 0.24274 0.24479 0.0
C1365 C 0.48265 0.14234 0.28866 0.0
C1366 C 0.52178 0.34475 0.20941 0.0
C1367 C 0.51457 0.32505 0.22074 0.0
C1368 C 0.51333 0.24654 0.25408 0.0
C1369 C 0.48634 0.19909 0.27031 0.0
C1370 C 0.49433 0.2225 0.25957 0.0
C1371 C 0.51776 0.28914 0.22829 0.0
C1372 C 0.50968 0.26658 0.23923 0.0
H1373 H 0.46028 0.20487 0.28858 0.0
H1374 H 0.47263 0.241 0.26889 0.0
H1375 H 0.50887 0.21031 0.27561 0.0
H1376 H 0.54391 0.28124 0.21051 0.0
H1377 H 0.53131 0.24668 0.23028 0.0
C1378 C 0.47129 0.03661 0.96127 0.0
C1379 C 0.47456 0.07217 0.9535 0.0
C1380 C 0.47854 0.01706 0.97269 0.0
C1381 C 0.50875 0.00985 0.98407 0.0
H1382 H 0.49772 0.95757 0.02519 0.0
C1383 C 0.53824 0.94696 0.03722 0.0
C1384 C 0.53487 0.91219 0.04556 0.0
C1385 C 0.53112 0.9654 0.02526 0.0
C1386 C 0.50094 0.97155 0.01363 0.0
H1387 H 0.48784 0.11577 0.95211 0.0
H1388 H 0.50031 0.08221 0.97217 0.0
H1389 H 0.48461 0.99228 0.00646 0.0
H1390 H 0.52165 0.86846 0.04722 0.0
H1391 H 0.50942 0.89997 0.02621 0.0
H1392 H 0.52509 0.98914 0.99127 0.0
C1393 C 0.49227 0.06889 0.96921 0.0
C1394 C 0.4934 0.99153 0.0029 0.0
C1395 C 0.48506 0.08834 0.95781 0.0
C1396 C 0.52448 0.89538 0.04112 0.0
C1397 C 0.5174 0.91366 0.02917 0.0
C1398 C 0.51629 0.98983 0.99481 0.0
C1399 C 0.4892 0.03267 0.97658 0.0
C1400 C 0.4972 0.01106 0.988 0.0
C1401 C 0.5205 0.94939 0.02137 0.0
C1402 C 0.51249 0.97042 0.00974 0.0
H1403 H 0.4633 0.02322 0.95812 0.0
H1404 H 0.47592 0.98909 0.97804 0.0
H1405 H 0.51196 0.02395 0.97254 0.0
H1406 H 0.54616 0.9608 0.04044 0.0
H1407 H 0.53376 0.993 0.01959 0.0
C1408 C 0.16906 0.40545 0.12424 0.0
C1409 C 0.17322 0.39607 0.14073 0.0
C1410 C 0.15753 0.40874 0.12129 0.0
C1411 C 0.12961 0.41633 0.14282 0.0
H1412 H 0.11921 0.36969 0.09997 0.0
C1413 C 0.08333 0.37352 0.13093 0.0
C1414 C 0.07865 0.37967 0.11445 0.0
C1415 C 0.09473 0.38018 0.13399 0.0
C1416 C 0.12196 0.3834 0.11186 0.0
H1417 H 0.16852 0.38432 0.16725 0.0
H1418 H 0.14827 0.38924 0.16207 0.0
H1419 H 0.13922 0.37267 0.10602 0.0
H1420 H 0.08237 0.3984 0.0883 0.0
H1421 H 0.10238 0.40994 0.09365 0.0
H1422 H 0.11225 0.42602 0.14879 0.0
C1423 C 0.15396 0.39463 0.15142 0.0
C1424 C 0.13347 0.38516 0.11537 0.0
C1425 C 0.16557 0.39177 0.15442 0.0
C1426 C 0.08568 0.39333 0.10113 0.0
C1427 C 0.09716 0.39974 0.10418 0.0
C1428 C 0.11807 0.41437 0.13934 0.0
C1429 C 0.14979 0.40224 0.13469 0.0
C1430 C 0.13748 0.40152 0.13092 0.0
C1431 C 0.10182 0.39302 0.12065 0.0
C1432 C 0.1141 0.39764 0.12386 0.0
H1433 H 0.17473 0.40953 0.11344 0.0
H1434 H 0.1547 0.41579 0.10837 0.0
H1435 H 0.13236 0.42963 0.1548 0.0
H1436 H 0.07821 0.36314 0.14157 0.0
H1437 H 0.09804 0.37419 0.14675 0.0
C1438 C 0.0893 0.82762 0.14535 0.0
C1439 C 0.08399 0.86416 0.1431 0.0
C1440 C 0.10093 0.82403 0.1427 0.0
C1441 C 0.12715 0.87633 0.14477 0.0
H1442 H 0.13785 0.81783 0.10503 0.0
C1443 C 0.1716 0.90175 0.11935 0.0
C1444 C 0.17774 0.87031 0.11237 0.0
C1445 C 0.16021 0.89765 0.12316 0.0
C1446 C 0.13508 0.83371 0.11638 0.0
H1447 H 0.08658 0.92567 0.13701 0.0
H1448 H 0.1069 0.91974 0.13322 0.0
H1449 H 0.11796 0.81499 0.11303 0.0
H1450 H 0.17673 0.81008 0.10348 0.0
H1451 H 0.1568 0.80217 0.11073 0.0
H1452 H 0.1441 0.89466 0.14854 0.0
C1453 C 0.10209 0.89383 0.13666 0.0
C1454 C 0.12368 0.83207 0.12091 0.0
C1455 C 0.0905 0.89719 0.13882 0.0
C1456 C 0.17216 0.83485 0.10877 0.0
C1457 C 0.16074 0.83042 0.11294 0.0
C1458 C 0.13854 0.87739 0.14048 0.0
C1459 C 0.10739 0.85716 0.13827 0.0
C1460 C 0.1196 0.8541 0.13492 0.0
C1461 C 0.15465 0.86162 0.12051 0.0
C1462 C 0.14264 0.85707 0.12591 0.0
H1463 H 0.08442 0.80168 0.14847 0.0
H1464 H 0.10487 0.79548 0.14403 0.0
H1465 H 0.12419 0.89339 0.15569 0.0
H1466 H 0.17565 0.92965 0.12202 0.0
H1467 H 0.1558 0.92291 0.12832 0.0
C1468 C 0.83443 0.60572 0.88259 0.0
C1469 C 0.82976 0.60218 0.86595 0.0
C1470 C 0.84595 0.60094 0.88526 0.0
C1471 C 0.87291 0.60941 0.86265 0.0
H1472 H 0.88482 0.55699 0.90322 0.0
C1473 C 0.92048 0.59474 0.87264 0.0
C1474 C 0.92479 0.60113 0.88932 0.0
C1475 C 0.90897 0.59023 0.86993 0.0
C1476 C 0.88164 0.57208 0.89192 0.0
H1477 H 0.83361 0.58979 0.83912 0.0
H1478 H 0.85381 0.58151 0.8438 0.0
H1479 H 0.86459 0.55684 0.89788 0.0
H1480 H 0.92035 0.60644 0.91635 0.0
H1481 H 0.90011 0.59937 0.91161 0.0
H1482 H 0.88983 0.62559 0.85685 0.0
C1483 C 0.84849 0.58825 0.85476 0.0
C1484 C 0.87004 0.57187 0.88882 0.0
C1485 C 0.83691 0.59276 0.85209 0.0
C1486 C 0.9173 0.60144 0.90336 0.0
C1487 C 0.9057 0.5973 0.90061 0.0
C1488 C 0.88447 0.60981 0.86578 0.0
C1489 C 0.85316 0.59268 0.87137 0.0
C1490 C 0.86553 0.59069 0.87418 0.0
C1491 C 0.90137 0.59242 0.88379 0.0
C1492 C 0.88901 0.59122 0.88047 0.0
H1493 H 0.82921 0.61279 0.89362 0.0
H1494 H 0.84925 0.60499 0.89817 0.0
H1495 H 0.86972 0.62484 0.85144 0.0
H1496 H 0.92602 0.5937 0.86154 0.0
H1497 H 0.90602 0.58541 0.85687 0.0
C1498 C 0.92278 0.1379 0.88214 0.0
C1499 C 0.92748 0.14126 0.8655 0.0
C1500 C 0.91129 0.14322 0.88484 0.0
C1501 C 0.88428 0.13616 0.86226 0.0
H1502 H 0.8726 0.1875 0.90327 0.0
C1503 C 0.83677 0.15062 0.87291 0.0
C1504 C 0.83255 0.1433 0.88957 0.0
C1505 C 0.84826 0.15552 0.87011 0.0
C1506 C 0.87572 0.17275 0.89184 0.0
H1507 H 0.92368 0.15398 0.83869 0.0
H1508 H 0.9035 0.16326 0.84341 0.0
H1509 H 0.8928 0.18751 0.89771 0.0
H1510 H 0.83711 0.13689 0.9165 0.0
H1511 H 0.85732 0.14469 0.91159 0.0
H1512 H 0.86731 0.12048 0.85655 0.0
C1513 C 0.9088 0.15621 0.85436 0.0
C1514 C 0.8873 0.17286 0.88861 0.0
C1515 C 0.92037 0.15113 0.85166 0.0
C1516 C 0.84009 0.14261 0.90353 0.0
C1517 C 0.85168 0.14715 0.90069 0.0
C1518 C 0.87273 0.1359 0.86551 0.0
C1519 C 0.90411 0.1519 0.87097 0.0
C1520 C 0.89174 0.15435 0.87383 0.0
C1521 C 0.85593 0.15279 0.88385 0.0
C1522 C 0.86827 0.15406 0.88037 0.0
H1523 H 0.92797 0.13053 0.89317 0.0
H1524 H 0.90798 0.13923 0.89775 0.0
H1525 H 0.8874 0.12097 0.85094 0.0
H1526 H 0.83119 0.15197 0.86188 0.0
H1527 H 0.85115 0.16094 0.85705 0.0
C1528 C 0.16368 0.89101 0.65605 0.0
C1529 C 0.17126 0.8952 0.64227 0.0
C1530 C 0.15207 0.89473 0.65321 0.0
C1531 C 0.13153 0.88647 0.61725 0.0
H1532 H 0.11033 0.92661 0.65086 0.0
C1533 C 0.08379 0.89371 0.60306 0.0
C1534 C 0.07678 0.87967 0.61633 0.0
C1535 C 0.09523 0.90059 0.60616 0.0
C1536 C 0.11615 0.91518 0.64136 0.0
H1537 H 0.17273 0.90965 0.61509 0.0
H1538 H 0.15271 0.91751 0.6103 0.0
H1539 H 0.13046 0.93019 0.65684 0.0
H1540 H 0.07635 0.86305 0.64343 0.0
H1541 H 0.09614 0.87484 0.6487 0.0
H1542 H 0.11727 0.87112 0.60185 0.0
C1543 C 0.15557 0.90984 0.62314 0.0
C1544 C 0.1277 0.91713 0.64481 0.0
C1545 C 0.16708 0.90565 0.62592 0.0
C1546 C 0.08146 0.87369 0.63284 0.0
C1547 C 0.09283 0.88079 0.63594 0.0
C1548 C 0.12002 0.88469 0.61377 0.0
C1549 C 0.14786 0.90312 0.63657 0.0
C1550 C 0.13555 0.90258 0.63284 0.0
C1551 C 0.0999 0.89392 0.62263 0.0
C1552 C 0.11217 0.89867 0.62583 0.0
H1553 H 0.16665 0.88274 0.66876 0.0
H1554 H 0.14639 0.88921 0.66386 0.0
H1555 H 0.13727 0.87414 0.60784 0.0
H1556 H 0.08049 0.89869 0.59021 0.0
H1557 H 0.10044 0.91103 0.59565 0.0
C1558 C 0.09181 0.34622 0.65425 0.0
C1559 C 0.08444 0.34252 0.64018 0.0
C1560 C 0.10348 0.34367 0.65175 0.0
C1561 C 0.12474 0.35478 0.61685 0.0
H1562 H 0.14511 0.31035 0.65063 0.0
C1563 C 0.17269 0.34412 0.60447 0.0
C1564 C 0.17958 0.35626 0.61823 0.0
C1565 C 0.16113 0.33842 0.60699 0.0
C1566 C 0.13953 0.32302 0.64109 0.0
H1567 H 0.0835 0.33068 0.61267 0.0
H1568 H 0.10362 0.32512 0.60845 0.0
H1569 H 0.12488 0.30757 0.65571 0.0
H1570 H 0.17965 0.37083 0.64558 0.0
H1571 H 0.15967 0.36104 0.64984 0.0
H1572 H 0.13936 0.37042 0.6023 0.0
C1573 C 0.10052 0.33138 0.62131 0.0
C1574 C 0.12792 0.32154 0.64404 0.0
C1575 C 0.08894 0.33431 0.62377 0.0
C1576 C 0.17465 0.3616 0.63462 0.0
C1577 C 0.16317 0.35568 0.63714 0.0
C1578 C 0.13632 0.35609 0.61388 0.0
C1579 C 0.10798 0.33703 0.63515 0.0
C1580 C 0.12036 0.33758 0.63199 0.0
C1581 C 0.15622 0.34438 0.62335 0.0
C1582 C 0.14387 0.34051 0.62602 0.0
H1583 H 0.08861 0.35273 0.66703 0.0
H1584 H 0.10896 0.3484 0.66271 0.0
H1585 H 0.11922 0.36819 0.60742 0.0
H1586 H 0.17618 0.3397 0.5917 0.0
H1587 H 0.15602 0.32938 0.59612 0.0
C1588 C 0.83711 0.10059 0.34791 0.0
C1589 C 0.83009 0.11129 0.36175 0.0
C1590 C 0.84867 0.09511 0.35052 0.0
C1591 C 0.87003 0.07655 0.38447 0.0
H1592 H 0.89047 0.12702 0.35245 0.0
C1593 C 0.91753 0.09799 0.39923 0.0
C1594 C 0.92507 0.09686 0.38527 0.0
C1595 C 0.90591 0.09588 0.39636 0.0
C1596 C 0.88492 0.1121 0.3614 0.0
H1597 H 0.82975 0.12351 0.38929 0.0
H1598 H 0.84975 0.1139 0.39375 0.0
H1599 H 0.87035 0.12931 0.34704 0.0
H1600 H 0.92633 0.09029 0.35746 0.0
H1601 H 0.90626 0.08535 0.35254 0.0
H1602 H 0.88459 0.05931 0.39885 0.0
C1603 C 0.84636 0.10961 0.3809 0.0
C1604 C 0.87336 0.11349 0.35827 0.0
C1605 C 0.83487 0.11541 0.37829 0.0
C1606 C 0.92076 0.09183 0.3685 0.0
C1607 C 0.90921 0.08928 0.36566 0.0
C1608 C 0.88161 0.0749 0.38754 0.0
C1609 C 0.85343 0.09978 0.36704 0.0
C1610 C 0.86576 0.09601 0.36983 0.0
C1611 C 0.90159 0.0922 0.37947 0.0
C1612 C 0.88923 0.09286 0.37609 0.0
H1613 H 0.83373 0.09719 0.33501 0.0
H1614 H 0.85389 0.08726 0.33959 0.0
H1615 H 0.8644 0.06244 0.39355 0.0
H1616 H 0.92058 0.10207 0.41229 0.0
H1617 H 0.90031 0.09855 0.40732 0.0
C1618 C 0.91797 0.64455 0.34563 0.0
C1619 C 0.92504 0.63659 0.35975 0.0
C1620 C 0.90645 0.65115 0.3482 0.0
C1621 C 0.88516 0.67514 0.38194 0.0
H1622 H 0.86487 0.6171 0.35228 0.0
C1623 C 0.83832 0.64659 0.39937 0.0
C1624 C 0.83054 0.64472 0.38575 0.0
C1625 C 0.84983 0.6509 0.39593 0.0
C1626 C 0.87037 0.63412 0.36054 0.0
H1627 H 0.92558 0.63119 0.38771 0.0
H1628 H 0.90568 0.6425 0.39208 0.0
H1629 H 0.88491 0.61651 0.34623 0.0
H1630 H 0.82869 0.64848 0.35791 0.0
H1631 H 0.84855 0.657 0.352 0.0
H1632 H 0.8706 0.69237 0.39638 0.0
C1633 C 0.90897 0.64379 0.37904 0.0
C1634 C 0.88189 0.63377 0.35703 0.0
C1635 C 0.9204 0.63694 0.37648 0.0
C1636 C 0.83446 0.64915 0.36872 0.0
C1637 C 0.84589 0.65382 0.36531 0.0
C1638 C 0.87361 0.67562 0.38542 0.0
C1639 C 0.90179 0.65034 0.36495 0.0
C1640 C 0.88945 0.65389 0.36779 0.0
C1641 C 0.85378 0.65376 0.3788 0.0
C1642 C 0.86606 0.65482 0.37485 0.0
H1643 H 0.92126 0.64452 0.33259 0.0
H1644 H 0.90116 0.6565 0.33707 0.0
H1645 H 0.89074 0.69133 0.39039 0.0
H1646 H 0.83557 0.64314 0.41263 0.0
H1647 H 0.85566 0.65049 0.40666 0.0
C1648 C 0.58879 0.39811 0.62761 0.0
C1649 C 0.58441 0.39065 0.61107 0.0
C1650 C 0.60035 0.40156 0.63022 0.0
C1651 C 0.62783 0.41409 0.60791 0.0
H1652 H 0.63923 0.36309 0.64917 0.0
C1653 C 0.6747 0.3763 0.61748 0.0
C1654 C 0.6795 0.38121 0.63397 0.0
C1655 C 0.66319 0.38139 0.61487 0.0
C1656 C 0.63619 0.37799 0.63773 0.0
H1657 H 0.58875 0.38241 0.58414 0.0
H1658 H 0.60905 0.38765 0.58872 0.0
H1659 H 0.61911 0.36476 0.64385 0.0
H1660 H 0.67582 0.3959 0.66064 0.0
H1661 H 0.65563 0.40473 0.65606 0.0
H1662 H 0.64501 0.42643 0.60165 0.0
C1663 C 0.6035 0.39138 0.59968 0.0
C1664 C 0.62462 0.379 0.63465 0.0
C1665 C 0.59186 0.38832 0.59703 0.0
C1666 C 0.67244 0.39185 0.64778 0.0
C1667 C 0.66086 0.39671 0.64517 0.0
C1668 C 0.63942 0.41291 0.61096 0.0
C1669 C 0.6079 0.39719 0.6164 0.0
C1670 C 0.62026 0.39698 0.61968 0.0
C1671 C 0.6561 0.39137 0.62867 0.0
C1672 C 0.64375 0.39467 0.62587 0.0
H1673 H 0.58328 0.40067 0.6387 0.0
H1674 H 0.60336 0.40717 0.64319 0.0
H1675 H 0.62479 0.42866 0.59638 0.0
H1676 H 0.67983 0.36817 0.60649 0.0
H1677 H 0.65981 0.3765 0.60206 0.0
C1678 C 0.58497 0.82663 0.64355 0.0
C1679 C 0.57957 0.8621 0.63927 0.0
C1680 C 0.59657 0.82225 0.6407 0.0
C1681 C 0.62258 0.87393 0.64014 0.0
H1682 H 0.63348 0.81152 0.60167 0.0
C1683 C 0.66628 0.90185 0.61286 0.0
C1684 C 0.67288 0.87031 0.60702 0.0
C1685 C 0.65499 0.89649 0.61694 0.0
C1686 C 0.63064 0.82851 0.61267 0.0
H1687 H 0.58204 0.92107 0.62932 0.0
H1688 H 0.60226 0.9139 0.6251 0.0
H1689 H 0.61359 0.80838 0.60991 0.0
H1690 H 0.67271 0.80849 0.60035 0.0
H1691 H 0.65288 0.79859 0.608 0.0
H1692 H 0.63942 0.89408 0.64319 0.0
C1693 C 0.59753 0.88931 0.63023 0.0
C1694 C 0.61926 0.82667 0.61735 0.0
C1695 C 0.58598 0.89335 0.63266 0.0
C1696 C 0.6678 0.83336 0.60475 0.0
C1697 C 0.65644 0.82776 0.60915 0.0
C1698 C 0.63393 0.87532 0.63568 0.0
C1699 C 0.6029 0.85365 0.63401 0.0
C1700 C 0.61511 0.85014 0.63085 0.0
C1701 C 0.64996 0.85917 0.61569 0.0
C1702 C 0.63808 0.85368 0.62151 0.0
H1703 H 0.58019 0.80203 0.64855 0.0
H1704 H 0.60059 0.79453 0.64375 0.0
H1705 H 0.61956 0.89219 0.65063 0.0
H1706 H 0.66991 0.93084 0.61451 0.0
H1707 H 0.65023 0.92178 0.62127 0.0
C1708 C 0.42205 0.60345 0.37214 0.0
C1709 C 0.42663 0.60144 0.38889 0.0
C1710 C 0.41054 0.59851 0.36939 0.0
C1711 C 0.3834 0.60939 0.39118 0.0
H1712 H 0.37193 0.55226 0.35155 0.0
C1713 C 0.33588 0.59458 0.3798 0.0
C1714 C 0.33185 0.5984 0.3628 0.0
C1715 C 0.34734 0.59041 0.38309 0.0
C1716 C 0.37498 0.56868 0.36257 0.0
H1717 H 0.42262 0.5918 0.41587 0.0
H1718 H 0.40241 0.58335 0.41106 0.0
H1719 H 0.39207 0.55258 0.35747 0.0
H1720 H 0.33675 0.59967 0.33586 0.0
H1721 H 0.35689 0.59326 0.34159 0.0
H1722 H 0.36643 0.6265 0.39607 0.0
C1723 C 0.40781 0.58891 0.40007 0.0
C1724 C 0.38654 0.56872 0.36601 0.0
C1725 C 0.41939 0.5935 0.40281 0.0
C1726 C 0.33957 0.59663 0.34909 0.0
C1727 C 0.35112 0.59286 0.35241 0.0
C1728 C 0.37187 0.60957 0.38769 0.0
C1729 C 0.40324 0.59166 0.38332 0.0
C1730 C 0.39089 0.58928 0.38031 0.0
C1731 C 0.35517 0.59041 0.3695 0.0
C1732 C 0.36749 0.58933 0.3733 0.0
H1733 H 0.42734 0.60933 0.36105 0.0
H1734 H 0.40732 0.60128 0.35637 0.0
H1735 H 0.38647 0.62611 0.40211 0.0
H1736 H 0.33016 0.59522 0.39068 0.0
H1737 H 0.35007 0.58751 0.39637 0.0
C1738 C 0.4189 0.14786 0.35386 0.0
C1739 C 0.42498 0.11511 0.35979 0.0
C1740 C 0.40745 0.15192 0.3579 0.0
C1741 C 0.38599 0.11486 0.38906 0.0
H1742 H 0.36443 0.15355 0.35561 0.0
C1743 C 0.33704 0.09088 0.37983 0.0
C1744 C 0.33124 0.11721 0.39068 0.0
C1745 C 0.34854 0.09509 0.37691 0.0
C1746 C 0.37042 0.14318 0.36512 0.0
H1747 H 0.4237 0.05991 0.37368 0.0
H1748 H 0.40384 0.06627 0.38017 0.0
H1749 H 0.38444 0.15202 0.34818 0.0
H1750 H 0.33309 0.16829 0.40721 0.0
H1751 H 0.35343 0.17539 0.40211 0.0
H1752 H 0.37183 0.10494 0.40572 0.0
C1753 C 0.40791 0.08968 0.37304 0.0
C1754 C 0.38186 0.14236 0.36091 0.0
C1755 C 0.4193 0.08588 0.3692 0.0
C1756 C 0.33732 0.14744 0.39886 0.0
C1757 C 0.34891 0.15162 0.39592 0.0
C1758 C 0.37456 0.11596 0.39328 0.0
C1759 C 0.40186 0.1231 0.36778 0.0
C1760 C 0.38978 0.12738 0.37269 0.0
C1761 C 0.35454 0.12564 0.38478 0.0
C1762 C 0.36669 0.12958 0.38125 0.0
H1763 H 0.42308 0.17093 0.34665 0.0
H1764 H 0.40307 0.17811 0.35367 0.0
H1765 H 0.39184 0.1037 0.39857 0.0
H1766 H 0.33269 0.06683 0.37356 0.0
H1767 H 0.35278 0.07438 0.3685 0.0
C1768 C 0.66939 0.88576 0.15129 0.0
C1769 C 0.67695 0.88434 0.13735 0.0
C1770 C 0.65784 0.89064 0.14835 0.0
C1771 C 0.63668 0.87718 0.11349 0.0
H1772 H 0.61702 0.9338 0.14468 0.0
C1773 C 0.58918 0.89527 0.09949 0.0
C1774 C 0.58203 0.88696 0.11348 0.0
C1775 C 0.60077 0.89974 0.10208 0.0
C1776 C 0.62241 0.91777 0.13587 0.0
H1777 H 0.67835 0.88946 0.10949 0.0
H1778 H 0.65844 0.89904 0.10446 0.0
H1779 H 0.63723 0.93275 0.15014 0.0
H1780 H 0.58147 0.87848 0.14129 0.0
H1781 H 0.60153 0.88624 0.14571 0.0
H1782 H 0.62188 0.86201 0.09929 0.0
C1783 C 0.66129 0.895 0.11762 0.0
C1784 C 0.63399 0.91705 0.13904 0.0
C1785 C 0.67276 0.88974 0.12053 0.0
C1786 C 0.5867 0.88463 0.13016 0.0
C1787 C 0.59823 0.8894 0.13275 0.0
C1788 C 0.62513 0.8781 0.11028 0.0
C1789 C 0.65362 0.89456 0.13141 0.0
C1790 C 0.64129 0.89652 0.12794 0.0
C1791 C 0.60545 0.89642 0.11874 0.0
C1792 C 0.61783 0.8981 0.1215 0.0
H1793 H 0.67235 0.88157 0.1644 0.0
H1794 H 0.65219 0.88991 0.1593 0.0
H1795 H 0.64196 0.86036 0.10483 0.0
H1796 H 0.58588 0.89727 0.08648 0.0
H1797 H 0.6061 0.90551 0.09103 0.0
C1798 C 0.66702 0.34205 0.09963 0.0
C1799 C 0.6746 0.34231 0.11354 0.0
C1800 C 0.65542 0.33888 0.10263 0.0
C1801 C 0.63451 0.35541 0.13765 0.0
H1802 H 0.61406 0.30285 0.10632 0.0
C1803 C 0.58679 0.34404 0.15175 0.0
C1804 C 0.57972 0.3535 0.13782 0.0
C1805 C 0.59834 0.33832 0.14912 0.0
C1806 C 0.61967 0.31777 0.11517 0.0
H1807 H 0.676 0.33678 0.14138 0.0
H1808 H 0.65599 0.33002 0.14651 0.0
H1809 H 0.63425 0.30051 0.1008 0.0
H1810 H 0.57926 0.36302 0.11007 0.0
H1811 H 0.59923 0.35307 0.10557 0.0
H1812 H 0.61995 0.3728 0.15197 0.0
C1813 C 0.65887 0.33372 0.13334 0.0
C1814 C 0.63125 0.31655 0.11197 0.0
C1815 C 0.67038 0.33732 0.13037 0.0
C1816 C 0.58442 0.35595 0.12116 0.0
C1817 C 0.5959 0.34993 0.11852 0.0
C1818 C 0.62296 0.35642 0.1409 0.0
C1819 C 0.65118 0.3355 0.11958 0.0
C1820 C 0.63883 0.33557 0.12311 0.0
C1821 C 0.60304 0.3415 0.13247 0.0
C1822 C 0.61538 0.33791 0.12963 0.0
H1823 H 0.67 0.34602 0.08653 0.0
H1824 H 0.64977 0.3406 0.0917 0.0
H1825 H 0.64003 0.37114 0.14635 0.0
H1826 H 0.58347 0.34193 0.16474 0.0
H1827 H 0.60361 0.33153 0.16012 0.0
C1828 C 0.41964 0.0885 0.90028 0.0
C1829 C 0.4268 0.09959 0.88669 0.0
C1830 C 0.40814 0.08234 0.89725 0.0
C1831 C 0.3871 0.06569 0.86228 0.0
H1832 H 0.36649 0.11502 0.89436 0.0
C1833 C 0.33998 0.0949 0.84636 0.0
C1834 C 0.33228 0.09305 0.86009 0.0
C1835 C 0.35154 0.09052 0.84947 0.0
C1836 C 0.37208 0.10044 0.88537 0.0
H1837 H 0.42751 0.11125 0.8591 0.0
H1838 H 0.40766 0.10077 0.85396 0.0
H1839 H 0.3865 0.11538 0.90051 0.0
H1840 H 0.33058 0.0824 0.8876 0.0
H1841 H 0.35051 0.07366 0.89288 0.0
H1842 H 0.37265 0.05116 0.84703 0.0
C1843 C 0.41086 0.09659 0.86693 0.0
C1844 C 0.38359 0.10065 0.88894 0.0
C1845 C 0.42227 0.10292 0.86995 0.0
C1846 C 0.33631 0.08465 0.87676 0.0
C1847 C 0.34777 0.07989 0.87982 0.0
C1848 C 0.37556 0.06536 0.85872 0.0
C1849 C 0.4036 0.08681 0.88056 0.0
C1850 C 0.39127 0.0836 0.87738 0.0
C1851 C 0.3556 0.08386 0.86635 0.0
C1852 C 0.36789 0.08295 0.87018 0.0
H1853 H 0.42283 0.08566 0.91332 0.0
H1854 H 0.40279 0.07443 0.90802 0.0
H1855 H 0.39278 0.05192 0.85317 0.0
H1856 H 0.33714 0.10149 0.83339 0.0
H1857 H 0.35732 0.09395 0.83877 0.0
C1858 C 0.41812 0.64101 0.84942 0.0
C1859 C 0.42527 0.63455 0.86359 0.0
C1860 C 0.4065 0.64468 0.85185 0.0
C1861 C 0.38471 0.66519 0.88495 0.0
H1862 H 0.3654 0.60443 0.85478 0.0
C1863 C 0.33748 0.63689 0.89982 0.0
C1864 C 0.33008 0.63404 0.88573 0.0
C1865 C 0.34908 0.64072 0.89707 0.0
C1866 C 0.37062 0.62217 0.86318 0.0
H1867 H 0.42577 0.62815 0.89151 0.0
H1868 H 0.40563 0.6346 0.89565 0.0
H1869 H 0.38555 0.60532 0.84966 0.0
H1870 H 0.32901 0.63534 0.85776 0.0
H1871 H 0.34902 0.64318 0.85303 0.0
H1872 H 0.36976 0.68205 0.89849 0.0
C1873 C 0.40898 0.63694 0.88268 0.0
C1874 C 0.3822 0.62262 0.86022 0.0
C1875 C 0.42055 0.63295 0.88026 0.0
C1876 C 0.33448 0.63683 0.86892 0.0
C1877 C 0.346 0.64107 0.86619 0.0
C1878 C 0.37309 0.66498 0.88785 0.0
C1879 C 0.40179 0.64238 0.86851 0.0
C1880 C 0.3894 0.64392 0.87112 0.0
C1881 C 0.35351 0.64216 0.88019 0.0
C1882 C 0.36589 0.64331 0.87703 0.0
H1883 H 0.42146 0.64239 0.83642 0.0
H1884 H 0.40118 0.64921 0.84067 0.0
H1885 H 0.39002 0.68221 0.8935 0.0
H1886 H 0.33436 0.63469 0.91293 0.0
H1887 H 0.3546 0.64119 0.90818 0.0
C1888 C 0.06276 0.99034 0.16158 0.0
C1889 C 0.05523 0.96555 0.15285 0.0
C1890 C 0.06569 0.02687 0.15451 0.0
C1891 C 0.06401 0.0852 0.11364 0.0
H1892 H 0.06225 0.1745 0.14459 0.0
C1893 C 0.04778 0.25329 0.11191 0.0
C1894 C 0.05271 0.26783 0.09672 0.0
C1895 C 0.05112 0.21737 0.11877 0.0
C1896 C 0.06282 0.14984 0.13577 0.0
H1897 H 0.04495 0.95924 0.12987 0.0
H1898 H 0.04977 0.02272 0.11789 0.0
H1899 H 0.0626 0.1083 0.15648 0.0
H1900 H 0.06506 0.25627 0.0768 0.0
H1901 H 0.07097 0.1928 0.08887 0.0
H1902 H 0.06335 0.12671 0.0929 0.0
C1903 C 0.05368 0.01394 0.12991 0.0
C1904 C 0.06316 0.11188 0.1426 0.0
C1905 C 0.0508 0.97765 0.13692 0.0
C1906 C 0.06108 0.2456 0.08847 0.0
C1907 C 0.06446 0.20939 0.0954 0.0
C1908 C 0.06356 0.12318 0.1068 0.0
C1909 C 0.06113 0.03911 0.1386 0.0
C1910 C 0.06326 0.07907 0.13159 0.0
C1911 C 0.05953 0.19501 0.11068 0.0
C1912 C 0.06246 0.15579 0.11779 0.0
H1913 H 0.06639 0.98153 0.17381 0.0
H1914 H 0.0715 0.04553 0.16148 0.0
H1915 H 0.06438 0.06051 0.10481 0.0
H1916 H 0.04125 0.2696 0.11853 0.0
H1917 H 0.04691 0.20674 0.13026 0.0
C1918 C 0.20037 0.00018 0.08625 0.0
C1919 C 0.20521 0.97246 0.09745 0.0
C1920 C 0.19758 0.0377 0.0923 0.0
C1921 C 0.19138 0.0947 0.13132 0.0
H1922 H 0.20636 0.18084 0.10802 0.0
C1923 C 0.19884 0.24543 0.16374 0.0
C1924 C 0.19996 0.27864 0.15316 0.0
C1925 C 0.19721 0.20828 0.15636 0.0
C1926 C 0.20184 0.15749 0.11451 0.0
H1927 H 0.21064 0.96183 0.12381 0.0
H1928 H 0.20555 0.02682 0.13436 0.0
H1929 H 0.20718 0.11528 0.09572 0.0
H1930 H 0.19934 0.2999 0.1268 0.0
H1931 H 0.19583 0.23604 0.11402 0.0
H1932 H 0.186 0.13675 0.15013 0.0
C1933 C 0.20394 0.01961 0.12095 0.0
C1934 C 0.20237 0.11984 0.10743 0.0
C1935 C 0.20693 0.98252 0.11485 0.0
C1936 C 0.19871 0.27465 0.13524 0.0
C1937 C 0.19678 0.23789 0.12791 0.0
C1938 C 0.19067 0.13256 0.13827 0.0
C1939 C 0.19937 0.04765 0.1097 0.0
C1940 C 0.19737 0.08803 0.11596 0.0
C1941 C 0.19641 0.20397 0.13828 0.0
C1942 C 0.1961 0.16433 0.13014 0.0
H1943 H 0.19894 0.99314 0.07279 0.0
H1944 H 0.19408 0.05902 0.0834 0.0
H1945 H 0.18741 0.07049 0.13807 0.0
H1946 H 0.19979 0.24787 0.17762 0.0
H1947 H 0.19709 0.18289 0.16479 0.0
C1948 C 0.94971 0.75074 0.91236 0.0
C1949 C 0.95169 0.71812 0.90171 0.0
C1950 C 0.94789 0.78787 0.90507 0.0
C1951 C 0.9531 0.84156 0.86401 0.0
H1952 H 0.93618 0.92386 0.8869 0.0
C1953 C 0.94966 -0.00097 0.83653 0.0
C1954 C 0.95367 0.02728 0.84822 0.0
C1955 C 0.94725 0.96086 0.84218 0.0
C1956 C 0.94085 0.90097 0.88033 0.0
H1957 H 0.95255 0.6979 0.8752 0.0
H1958 H 0.94874 0.76169 0.86251 0.0
H1959 H 0.93569 0.85693 0.89839 0.0
H1960 H 0.95784 0.0384 0.87507 0.0
H1961 H 0.95341 0.97221 0.88493 0.0
H1962 H 0.95821 0.88574 0.84595 0.0
C1963 C 0.94912 0.75944 0.87645 0.0
C1964 C 0.94067 0.86274 0.88697 0.0
C1965 C 0.95123 0.7227 0.88373 0.0
C1966 C 0.95481 0.01723 0.86574 0.0
C1967 C 0.95219 0.97944 0.87142 0.0
C1968 C 0.95311 0.87954 0.85723 0.0
C1969 C 0.94776 0.79279 0.88698 0.0
C1970 C 0.94699 0.83268 0.87911 0.0
C1971 C 0.94858 0.95076 0.85966 0.0
C1972 C 0.94719 0.90971 0.86552 0.0
H1973 H 0.95004 0.74789 0.92629 0.0
H1974 H 0.94701 0.81283 0.91364 0.0
H1975 H 0.95828 0.81962 0.85776 0.0
H1976 H 0.9487 0.00608 0.82296 0.0
H1977 H 0.94447 0.9391 0.83289 0.0
C1978 C 0.80747 0.99159 0.91353 0.0
C1979 C 0.80612 0.02414 0.90262 0.0
C1980 C 0.80919 0.95411 0.90653 0.0
C1981 C 0.80465 0.90044 0.86531 0.0
H1982 H 0.81993 0.81618 0.88951 0.0
C1983 C 0.80774 0.74306 0.83781 0.0
C1984 C 0.80324 0.7148 0.84908 0.0
C1985 C 0.81015 0.78095 0.84379 0.0
C1986 C 0.8157 0.83961 0.88259 0.0
H1987 H 0.80636 0.0439 0.87602 0.0
H1988 H 0.81003 0.97945 0.86387 0.0
H1989 H 0.82075 0.8831 0.90099 0.0
H1990 H 0.79815 0.70341 0.87554 0.0
H1991 H 0.80255 0.76919 0.88597 0.0
H1992 H 0.79967 0.85685 0.84691 0.0
C1993 C 0.8092 0.98205 0.87775 0.0
C1994 C 0.81608 0.87785 0.88921 0.0
C1995 C 0.80718 0.01915 0.88472 0.0
C1996 C 0.80157 0.7246 0.86652 0.0
C1997 C 0.80416 0.76214 0.87255 0.0
C1998 C 0.80445 0.86245 0.85857 0.0
C1999 C 0.80984 0.94878 0.8885 0.0
C2000 C 0.81038 0.90866 0.88082 0.0
C2001 C 0.80831 0.7908 0.86119 0.0
C2002 C 0.80979 0.8316 0.8673 0.0
H2003 H 0.80666 -0.00521 0.9274 0.0
H2004 H 0.80952 0.92925 0.91525 0.0
H2005 H 0.79991 0.92299 0.85865 0.0
H2006 H 0.80913 0.73621 0.82432 0.0
H2007 H 0.81335 0.80268 0.83482 0.0
C2008 C 0.05549 0.73902 0.58398 0.0
C2009 C 0.05136 0.76596 0.59618 0.0
C2010 C 0.05835 0.70078 0.58904 0.0
C2011 C 0.06628 0.64014 0.62606 0.0
H2012 H 0.0487 0.55739 0.60478 0.0
C2013 C 0.0587 0.49137 0.65951 0.0
C2014 C 0.05654 0.45808 0.64937 0.0
C2015 C 0.06028 0.52805 0.65172 0.0
C2016 C 0.05393 0.57975 0.61063 0.0
H2017 H 0.04736 0.77463 0.62326 0.0
H2018 H 0.0526 0.70845 0.63209 0.0
H2019 H 0.04799 0.62358 0.59299 0.0
H2020 H 0.05509 0.43625 0.62316 0.0
H2021 H 0.05841 0.49953 0.60954 0.0
H2022 H 0.07226 0.5966 0.64372 0.0
C2023 C 0.05356 0.71674 0.61865 0.0
C2024 C 0.05347 0.61774 0.60386 0.0
C2025 C 0.05048 0.75451 0.61356 0.0
C2026 C 0.05656 0.4616 0.63131 0.0
C2027 C 0.0584 0.498 0.62351 0.0
C2028 C 0.06692 0.60196 0.63266 0.0
C2029 C 0.05737 0.68941 0.60642 0.0
C2030 C 0.0594 0.6484 0.6118 0.0
C2031 C 0.05997 0.53195 0.6336 0.0
C2032 C 0.06049 0.57147 0.62534 0.0
H2033 H 0.05625 0.74716 0.5705 0.0
H2034 H 0.06123 0.68001 0.5794 0.0
H2035 H 0.07098 0.66343 0.63231 0.0
H2036 H 0.05871 0.48937 0.67348 0.0
H2037 H 0.0613 0.5535 0.65998 0.0
C2038 C 0.20829 0.47837 0.61985 0.0
C2039 C 0.20597 0.4681 0.60263 0.0
C2040 C 0.20506 0.5149 0.62632 0.0
C2041 C 0.20081 0.61488 0.61264 0.0
H2042 H 0.18713 0.62929 0.65769 0.0
C2043 C 0.19515 0.76954 0.6392 0.0
C2044 C 0.19778 0.77536 0.65665 0.0
C2045 C 0.19345 0.73179 0.63277 0.0
C2046 C 0.19103 0.6258 0.64515 0.0
H2047 H 0.19834 0.48773 0.57873 0.0
H2048 H 0.19294 0.55244 0.58997 0.0
H2049 H 0.18933 0.56299 0.64591 0.0
H2050 H 0.20023 0.74685 0.68134 0.0
H2051 H 0.19795 0.6802 0.66995 0.0
H2052 H 0.20322 0.67687 0.61211 0.0
C2053 C 0.19717 0.53185 0.59845 0.0
C2054 C 0.19221 0.58789 0.63838 0.0
C2055 C 0.20026 0.49496 0.59203 0.0
C2056 C 0.19818 0.74294 0.66781 0.0
C2057 C 0.19681 0.70484 0.66126 0.0
C2058 C 0.1998 0.65261 0.61948 0.0
C2059 C 0.19958 0.54214 0.61564 0.0
C2060 C 0.19722 0.58215 0.62214 0.0
C2061 C 0.19476 0.69879 0.64352 0.0
C2062 C 0.19498 0.65862 0.63589 0.0
H2063 H 0.21267 0.4583 0.62836 0.0
H2064 H 0.20716 0.52234 0.63954 0.0
H2065 H 0.20488 0.61119 0.60022 0.0
H2066 H 0.19462 0.79413 0.63038 0.0
H2067 H 0.19148 0.72849 0.61919 0.0
C2068 C 0.94752 0.5109 0.35969 0.0
C2069 C 0.95058 0.51688 0.34243 0.0
C2070 C 0.94536 0.47321 0.36583 0.0
C2071 C 0.94229 0.36777 0.35287 0.0
H2072 H 0.95401 0.35136 0.39908 0.0
C2073 C 0.95558 0.21728 0.38097 0.0
C2074 C 0.95254 0.20903 0.39814 0.0
C2075 C 0.95328 0.25396 0.37374 0.0
C2076 C 0.95054 0.35556 0.38627 0.0
H2077 H 0.95348 0.48872 0.31778 0.0
H2078 H 0.95047 0.42198 0.32874 0.0
H2079 H 0.95386 0.41697 0.38696 0.0
H2080 H 0.94444 0.23219 0.42106 0.0
H2081 H 0.9406 0.29686 0.40846 0.0
H2082 H 0.93964 0.30534 0.35207 0.0
C2083 C 0.94929 0.44653 0.33745 0.0
C2084 C 0.95039 0.39328 0.37929 0.0
C2085 C 0.95108 0.48466 0.33116 0.0
C2086 C 0.94693 0.23786 0.40783 0.0
C2087 C 0.94473 0.27476 0.40064 0.0
C2088 C 0.94261 0.32977 0.3598 0.0
C2089 C 0.94669 0.44031 0.35502 0.0
C2090 C 0.94628 0.4 0.36249 0.0
C2091 C 0.948 0.28323 0.38359 0.0
C2092 C 0.94678 0.32341 0.37655 0.0
H2093 H 0.94695 0.5353 0.36859 0.0
H2094 H 0.94296 0.46986 0.37924 0.0
H2095 H 0.93895 0.37181 0.33999 0.0
H2096 H 0.95988 0.19559 0.37315 0.0
H2097 H 0.956 0.25991 0.36064 0.0
C2098 C 0.79864 0.23664 0.36065 0.0
C2099 C 0.80334 0.22295 0.34515 0.0
C2100 C 0.80157 0.27334 0.36719 0.0
C2101 C 0.81267 0.34362 0.38312 0.0
H2102 H 0.81241 0.43238 0.35173 0.0
C2103 C 0.81288 0.50314 0.40851 0.0
C2104 C 0.80497 0.52773 0.4005 0.0
C2105 C 0.81564 0.46678 0.40115 0.0
C2106 C 0.81254 0.40788 0.36067 0.0
H2107 H 0.81489 0.23675 0.32437 0.0
H2108 H 0.82009 0.3014 0.3359 0.0
H2109 H 0.81157 0.36582 0.34018 0.0
H2110 H 0.79389 0.53401 0.37843 0.0
H2111 H 0.79841 0.47064 0.36596 0.0
H2112 H 0.81281 0.38558 0.40365 0.0
C2113 C 0.81407 0.28364 0.34291 0.0
C2114 C 0.8122 0.3697 0.35403 0.0
C2115 C 0.8111 0.24671 0.33631 0.0
C2116 C 0.80003 0.51571 0.38492 0.0
C2117 C 0.80273 0.47949 0.37764 0.0
C2118 C 0.81291 0.38176 0.38976 0.0
C2119 C 0.80933 0.2973 0.35845 0.0
C2120 C 0.81182 0.3372 0.36522 0.0
C2121 C 0.8105 0.45439 0.38571 0.0
C2122 C 0.81242 0.41435 0.37863 0.0
H2123 H 0.7926 0.21911 0.36773 0.0
H2124 H 0.79754 0.28329 0.37895 0.0
H2125 H 0.81265 0.31913 0.39207 0.0
H2126 H 0.8169 0.51188 0.42046 0.0
H2127 H 0.82173 0.44827 0.40762 0.0
C2128 C 0.5568 -0.00607 0.66437 0.0
C2129 C 0.55227 0.9663 0.65284 0.0
C2130 C 0.55965 0.03162 0.6586 0.0
C2131 C 0.56638 0.0899 0.62013 0.0
H2132 H 0.55071 0.17467 0.64332 0.0
C2133 C 0.55883 0.24105 0.58823 0.0
C2134 C 0.55746 0.27397 0.59892 0.0
C2135 C 0.56048 0.20381 0.5955 0.0
C2136 C 0.55542 0.15171 0.63688 0.0
H2137 H 0.54751 0.95588 0.62616 0.0
H2138 H 0.55267 0.02125 0.61611 0.0
H2139 H 0.54992 0.10871 0.6552 0.0
H2140 H 0.55762 0.29463 0.62539 0.0
H2141 H 0.56115 0.23057 0.638 0.0
H2142 H 0.57192 0.13277 0.60178 0.0
C2143 C 0.554 0.01384 0.62957 0.0
C2144 C 0.55491 0.11383 0.64371 0.0
C2145 C 0.55096 0.97655 0.63537 0.0
C2146 C 0.55846 0.2696 0.61686 0.0
C2147 C 0.5604 0.23273 0.62409 0.0
C2148 C 0.56707 0.128 0.61343 0.0
C2149 C 0.55821 0.04186 0.64116 0.0
C2150 C 0.56017 0.0825 0.6352 0.0
C2151 C 0.56104 0.1991 0.61357 0.0
C2152 C 0.56139 0.15926 0.62152 0.0
H2153 H 0.55791 0.98674 0.6779 0.0
H2154 H 0.56288 0.05288 0.66777 0.0
H2155 H 0.57056 0.06609 0.6134 0.0
H2156 H 0.55808 0.24379 0.57433 0.0
H2157 H 0.56082 0.17863 0.58696 0.0
C2158 C 0.69832 0.24919 0.65246 0.0
C2159 C 0.70745 0.27174 0.64669 0.0
C2160 C 0.69542 0.2143 0.64394 0.0
C2161 C 0.70058 0.16024 0.60267 0.0
H2162 H 0.69219 0.06849 0.62947 0.0
C2163 C 0.70971 0.00049 0.58386 0.0
C2164 C 0.70105 0.97293 0.58556 0.0
C2165 C 0.70803 0.03933 0.58901 0.0
C2166 C 0.69431 0.0941 0.6218 0.0
H2167 H 0.72088 0.27528 0.62784 0.0
H2168 H 0.71619 0.21405 0.61352 0.0
H2169 H 0.69417 0.13202 0.64383 0.0
H2170 H 0.68384 0.96355 0.59352 0.0
H2171 H 0.68099 0.03173 0.60326 0.0
H2172 H 0.70148 0.12143 0.5809 0.0
C2173 C 0.71095 0.22366 0.62415 0.0
C2174 C 0.69544 0.13051 0.63 0.0
C2175 C 0.71374 0.2586 0.63249 0.0
C2176 C 0.69058 0.98468 0.59203 0.0
C2177 C 0.68897 0.02342 0.5976 0.0
C2178 C 0.69963 0.12375 0.59457 0.0
C2179 C 0.70168 0.20123 0.62961 0.0
C2180 C 0.69892 0.1638 0.62062 0.0
C2181 C 0.69775 0.05084 0.59635 0.0
C2182 C 0.69677 0.09026 0.60415 0.0
H2183 H 0.69327 0.25891 0.6633 0.0
H2184 H 0.68818 0.19792 0.64842 0.0
H2185 H 0.70294 0.18546 0.59494 0.0
H2186 H 0.71788 0.99164 0.57909 0.0
H2187 H 0.71496 0.05988 0.58813 0.0
C2188 C 0.45787 0.72534 0.38852 0.0
C2189 C 0.4535 0.71323 0.4045 0.0
C2190 C 0.45496 0.76165 0.38157 0.0
C2191 C 0.44401 0.83179 0.3653 0.0
H2192 H 0.4462 0.92251 0.39539 0.0
C2193 C 0.44479 0.99056 0.33836 0.0
C2194 C 0.45308 0.01457 0.34576 0.0
C2195 C 0.44201 0.95448 0.34598 0.0
C2196 C 0.44553 0.89745 0.38681 0.0
H2197 H 0.44256 0.72944 0.42571 0.0
H2198 H 0.43744 0.79357 0.41349 0.0
H2199 H 0.44652 0.85673 0.40781 0.0
H2200 H 0.46501 0.01978 0.36681 0.0
H2201 H 0.46046 0.95689 0.37971 0.0
H2202 H 0.44384 0.87236 0.34422 0.0
C2203 C 0.44316 0.77478 0.4064 0.0
C2204 C 0.44557 0.85975 0.39396 0.0
C2205 C 0.44609 0.73817 0.4134 0.0
C2206 C 0.45855 0.00198 0.36084 0.0
C2207 C 0.45583 0.96606 0.36837 0.0
C2208 C 0.44407 0.86947 0.35814 0.0
C2209 C 0.44758 0.78685 0.39039 0.0
C2210 C 0.44526 0.82649 0.38322 0.0
C2211 C 0.44752 0.94187 0.36109 0.0
C2212 C 0.44528 0.90265 0.36878 0.0
H2213 H 0.46364 0.70689 0.38136 0.0
H2214 H 0.45875 0.77037 0.36944 0.0
H2215 H 0.44351 0.8067 0.35671 0.0
H2216 H 0.44038 -0.00021 0.32681 0.0
H2217 H 0.43554 0.93656 0.3401 0.0
C2218 C 0.31299 0.73803 0.33913 0.0
C2219 C 0.30542 0.71282 0.34755 0.0
C2220 C 0.31566 0.77466 0.34634 0.0
C2221 C 0.31268 0.85949 0.35831 0.0
H2222 H 0.31261 0.87355 0.40804 0.0
C2223 C 0.2983 0.00242 0.38945 0.0
C2224 C 0.30325 0.01567 0.40483 0.0
C2225 C 0.3013 0.96628 0.38239 0.0
C2226 C 0.31288 0.87024 0.39414 0.0
H2227 H 0.2948 0.70585 0.37013 0.0
H2228 H 0.29919 0.76947 0.38237 0.0
H2229 H 0.31358 0.80755 0.39597 0.0
H2230 H 0.31533 0.00176 0.42485 0.0
H2231 H 0.32067 0.93814 0.41242 0.0
H2232 H 0.31194 0.92217 0.35648 0.0
C2233 C 0.30331 0.76096 0.37047 0.0
C2234 C 0.31329 0.83236 0.38721 0.0
C2235 C 0.30069 0.72457 0.36333 0.0
C2236 C 0.31132 0.99206 0.41304 0.0
C2237 C 0.31438 0.95574 0.40591 0.0
C2238 C 0.31236 0.89737 0.36524 0.0
C2239 C 0.31079 0.78657 0.36207 0.0
C2240 C 0.31271 0.82651 0.36924 0.0
C2241 C 0.30939 0.94249 0.39048 0.0
C2242 C 0.31196 0.90309 0.38323 0.0
H2243 H 0.31682 0.72955 0.32699 0.0
H2244 H 0.32149 0.79366 0.33959 0.0
H2245 H 0.31223 0.8561 0.34442 0.0
H2246 H 0.29202 0.0199 0.38284 0.0
H2247 H 0.29708 0.95663 0.37076 0.0
C2248 C 0.54892 0.48147 0.13732 0.0
C2249 C 0.55377 0.46806 0.15276 0.0
C2250 C 0.55196 0.51771 0.13039 0.0
C2251 C 0.56343 0.61352 0.14294 0.0
H2252 H 0.56245 0.63026 0.09339 0.0
C2253 C 0.56308 0.7486 0.08931 0.0
C2254 C 0.55555 0.77331 0.09809 0.0
C2255 C 0.56581 0.71163 0.09609 0.0
C2256 C 0.56299 0.62615 0.10724 0.0
H2257 H 0.56581 0.48158 0.17288 0.0
H2258 H 0.57126 0.54519 0.16063 0.0
H2259 H 0.56233 0.56356 0.10478 0.0
H2260 H 0.54508 0.77902 0.12091 0.0
H2261 H 0.54959 0.71479 0.13244 0.0
H2262 H 0.56407 0.6761 0.1454 0.0
C2263 C 0.56498 0.52776 0.15401 0.0
C2264 C 0.56277 0.58789 0.11379 0.0
C2265 C 0.56187 0.49139 0.16103 0.0
C2266 C 0.55093 0.76071 0.11384 0.0
C2267 C 0.55363 0.72395 0.12056 0.0
C2268 C 0.56376 0.65175 0.13639 0.0
C2269 C 0.56001 0.5414 0.13864 0.0
C2270 C 0.56249 0.58121 0.13172 0.0
C2271 C 0.56105 0.69884 0.11177 0.0
C2272 C 0.56305 0.65854 0.1185 0.0
H2273 H 0.54262 0.46418 0.13066 0.0
H2274 H 0.54775 0.52759 0.11878 0.0
H2275 H 0.56324 0.60952 0.15681 0.0
H2276 H 0.56681 0.75774 0.0772 0.0
H2277 H 0.57161 0.69304 0.08906 0.0
C2278 C 0.70245 0.46667 0.11559 0.0
C2279 C 0.7012 0.45774 0.09797 0.0
C2280 C 0.7003 0.50451 0.12167 0.0
C2281 C 0.7026 0.6046 0.10798 0.0
H2282 H 0.68593 0.62962 0.14962 0.0
C2283 C 0.70245 0.76182 0.13383 0.0
C2284 C 0.70309 0.76702 0.15177 0.0
C2285 C 0.69998 0.72508 0.12687 0.0
C2286 C 0.69071 0.6231 0.13808 0.0
H2287 H 0.69638 0.4809 0.07297 0.0
H2288 H 0.69295 0.54784 0.08359 0.0
H2289 H 0.68545 0.56272 0.13804 0.0
H2290 H 0.7014 0.73834 0.17659 0.0
H2291 H 0.69776 0.6732 0.16445 0.0
H2292 H 0.70852 0.66363 0.10842 0.0
C2293 C 0.69548 0.52524 0.09265 0.0
C2294 C 0.69034 0.58491 0.13139 0.0
C2295 C 0.69744 0.48708 0.0866 0.0
C2296 C 0.70094 0.73499 0.16269 0.0
C2297 C 0.69877 0.69777 0.1557 0.0
C2298 C 0.70314 0.64248 0.1148 0.0
C2299 C 0.69703 0.53431 0.1102 0.0
C2300 C 0.69635 0.57535 0.11636 0.0
C2301 C 0.69846 0.69224 0.13765 0.0
C2302 C 0.69727 0.65225 0.13001 0.0
H2303 H 0.70527 0.4446 0.12468 0.0
H2304 H 0.70167 0.51088 0.13522 0.0
H2305 H 0.70748 0.59774 0.09656 0.0
H2306 H 0.70388 0.78613 0.12509 0.0
H2307 H 0.69944 0.72241 0.11295 0.0
C2308 C 0.45599 0.25013 0.91703 0.0
C2309 C 0.45152 0.21793 0.9081 0.0
C2310 C 0.45397 0.28836 0.91113 0.0
C2311 C 0.44732 0.3394 0.87058 0.0
H2312 H 0.44543 0.43114 0.90015 0.0
C2313 C 0.4462 0.49675 0.84268 0.0
C2314 C 0.45342 0.52357 0.85084 0.0
C2315 C 0.44396 0.46025 0.85028 0.0
C2316 C 0.44597 0.40576 0.89174 0.0
H2317 H 0.44085 0.19977 0.88696 0.0
H2318 H 0.43703 0.26634 0.8769 0.0
H2319 H 0.4448 0.36554 0.91295 0.0
H2320 H 0.46387 0.53354 0.87337 0.0
H2321 H 0.46014 0.46988 0.88641 0.0
H2322 H 0.44877 0.37946 0.84943 0.0
C2323 C 0.44237 0.26236 0.88809 0.0
C2324 C 0.44561 0.36823 0.89906 0.0
C2325 C 0.44452 0.22425 0.89385 0.0
C2326 C 0.45825 0.51349 0.86678 0.0
C2327 C 0.45603 0.47713 0.87434 0.0
C2328 C 0.44765 0.37686 0.86327 0.0
C2329 C 0.44736 0.29479 0.89631 0.0
C2330 C 0.4465 0.33463 0.88858 0.0
C2331 C 0.44891 0.45001 0.86616 0.0
C2332 C 0.44722 0.41045 0.87379 0.0
H2333 H 0.46148 0.24564 0.92801 0.0
H2334 H 0.45805 0.31263 0.91767 0.0
H2335 H 0.44821 0.3142 0.86213 0.0
H2336 H 0.44229 0.5039 0.83044 0.0
H2337 H 0.43835 0.44005 0.84374 0.0
C2338 C 0.30747 0.2449 0.83589 0.0
C2339 C 0.30604 0.21221 0.8467 0.0
C2340 C 0.30925 0.28223 0.84301 0.0
C2341 C 0.30469 0.33521 0.8844 0.0
H2342 H 0.32022 0.41967 0.8607 0.0
C2343 C 0.30782 0.49171 0.91271 0.0
C2344 C 0.30345 0.52035 0.90152 0.0
C2345 C 0.31025 0.45397 0.90656 0.0
C2346 C 0.31592 0.39618 0.86748 0.0
H2347 H 0.30622 0.19204 0.87324 0.0
H2348 H 0.30999 0.25617 0.88559 0.0
H2349 H 0.32093 0.353 0.84891 0.0
H2350 H 0.29862 0.5326 0.87503 0.0
H2351 H 0.30304 0.4671 0.8643 0.0
H2352 H 0.29974 0.37846 0.90297 0.0
C2353 C 0.30917 0.25382 0.8717 0.0
C2354 C 0.31625 0.35809 0.86068 0.0
C2355 C 0.3071 0.21689 0.86462 0.0
C2356 C 0.30193 0.51111 0.88399 0.0
C2357 C 0.30455 0.47372 0.87779 0.0
C2358 C 0.30454 0.37304 0.89132 0.0
C2359 C 0.30988 0.28726 0.86107 0.0
C2360 C 0.31046 0.32721 0.8689 0.0
C2361 C 0.30855 0.44465 0.88907 0.0
C2362 C 0.30998 0.40396 0.88277 0.0
H2363 H 0.30668 0.24193 0.82201 0.0
H2364 H 0.30964 0.30724 0.83438 0.0
H2365 H 0.29989 0.31262 0.89093 0.0
H2366 H 0.30909 0.49813 0.92628 0.0
H2367 H 0.31334 0.43193 0.91548 0.0
loop_
_geom_bond_atom_site_label_1
_geom_bond_atom_site_label_2
_geom_bond_distance
_geom_bond_site_symmetry_2
_ccdc_geom_bond_type
Co0 O1 2.216 . S
Co0 O2 2.091 . S
Co0 O4 2.004 . S
Co0 O10 2.021 . S
Co0 O12 2.137 . S
Co0 O13 2.244 . S
O1 Co0 2.216 . S
O1 C8 1.247 . S
O2 Co0 2.091 . S
O2 C8 1.261 . S
C3 O12 1.247 . S
C3 O13 1.272 . S
O4 Co0 2.004 . S
O4 C9 1.259 . S
Co5 O6 2.061 . S
Co5 O11 2.052 . S
Co5 O13 2.135 . S
O6 Co5 2.061 . S
O6 C9 1.235 . S
C7 O10 1.238 . S
C7 O11 1.241 . S
C8 O1 1.247 . S
C8 O2 1.261 . S
C9 O4 1.259 . S
C9 O6 1.235 . S
O10 Co0 2.021 . S
O10 C7 1.238 . S
O11 Co5 2.052 . S
O11 C7 1.241 . S
O12 Co0 2.137 . S
O12 C3 1.247 . S
O13 Co0 2.244 . S
O13 C3 1.272 . S
O13 Co5 2.135 . S
Co14 O15 2.216 . S
Co14 O16 2.091 . S
Co14 O18 2.004 . S
Co14 O24 2.021 . S
Co14 O26 2.137 . S
Co14 O27 2.244 . S
O15 Co14 2.216 . S
O15 C22 1.247 . S
O16 Co14 2.091 . S
O16 C22 1.261 . S
C17 O26 1.247 . S
C17 O27 1.272 . S
O18 Co14 2.004 . S
O18 C23 1.259 . S
Co19 O20 2.061 . S
Co19 O25 2.052 . S
Co19 O27 2.135 . S
O20 Co19 2.061 . S
O20 C23 1.235 . S
C21 O24 1.238 . S
C21 O25 1.241 . S
C22 O15 1.247 . S
C22 O16 1.261 . S
C23 O18 1.259 . S
C23 O20 1.235 . S
O24 Co14 2.021 . S
O24 C21 1.238 . S
O25 Co19 2.052 . S
O25 C21 1.241 . S
O26 Co14 2.137 . S
O26 C17 1.247 . S
O27 Co14 2.244 . S
O27 C17 1.272 . S
O27 Co19 2.135 . S
Co28 O29 2.216 . S
Co28 O30 2.091 . S
Co28 O32 2.004 . S
Co28 O38 2.021 . S
Co28 O40 2.137 . S
Co28 O41 2.244 . S
O29 Co28 2.216 . S
O29 C36 1.247 . S
O30 Co28 2.091 . S
O30 C36 1.261 . S
C31 O40 1.247 . S
C31 O41 1.272 . S
O32 Co28 2.004 . S
O32 C37 1.259 . S
Co33 O34 2.061 . S
Co33 O39 2.052 . S
Co33 O41 2.135 . S
O34 Co33 2.061 . S
O34 C37 1.235 . S
C35 O38 1.238 . S
C35 O39 1.241 . S
C36 O29 1.247 . S
C36 O30 1.261 . S
C37 O32 1.259 . S
C37 O34 1.235 . S
O38 Co28 2.021 . S
O38 C35 1.238 . S
O39 Co33 2.052 . S
O39 C35 1.241 . S
O40 Co28 2.137 . S
O40 C31 1.247 . S
O41 Co28 2.244 . S
O41 C31 1.272 . S
O41 Co33 2.135 . S
Co42 O43 2.216 . S
Co42 O44 2.091 . S
Co42 O46 2.004 . S
Co42 O52 2.021 . S
Co42 O54 2.137 . S
Co42 O55 2.244 . S
O43 Co42 2.216 . S
O43 C50 1.247 . S
O44 Co42 2.091 . S
O44 C50 1.261 . S
C45 O54 1.247 . S
C45 O55 1.272 . S
O46 Co42 2.004 . S
O46 C51 1.259 . S
Co47 O48 2.061 . S
Co47 O53 2.052 . S
Co47 O55 2.135 . S
O48 Co47 2.061 . S
O48 C51 1.235 . S
C49 O52 1.238 . S
C49 O53 1.241 . S
C50 O43 1.247 . S
C50 O44 1.261 . S
C51 O46 1.259 . S
C51 O48 1.235 . S
O52 Co42 2.021 . S
O52 C49 1.238 . S
O53 Co47 2.052 . S
O53 C49 1.241 . S
O54 Co42 2.137 . S
O54 C45 1.247 . S
O55 Co42 2.244 . S
O55 C45 1.272 . S
O55 Co47 2.135 . S
Co56 O57 2.216 . S
Co56 O58 2.091 . S
Co56 O60 2.004 . S
Co56 O66 2.021 . S
Co56 O68 2.137 . S
Co56 O69 2.244 . S
O57 Co56 2.216 . S
O57 C64 1.247 . S
O58 Co56 2.091 . S
O58 C64 1.261 . S
C59 O68 1.247 . S
C59 O69 1.272 . S
O60 Co56 2.004 . S
O60 C65 1.259 . S
Co61 O62 2.061 . S
Co61 O67 2.052 . S
Co61 O69 2.135 . S
O62 Co61 2.061 . S
O62 C65 1.235 . S
C63 O66 1.238 . S
C63 O67 1.241 . S
C64 O57 1.247 . S
C64 O58 1.261 . S
C65 O60 1.259 . S
C65 O62 1.235 . S
O66 Co56 2.021 . S
O66 C63 1.238 . S
O67 Co61 2.052 . S
O67 C63 1.241 . S
O68 Co56 2.137 . S
O68 C59 1.247 . S
O69 Co56 2.244 . S
O69 C59 1.272 . S
O69 Co61 2.135 . S
Co70 O71 2.216 . S
Co70 O72 2.091 . S
Co70 O74 2.004 . S
Co70 O80 2.021 . S
Co70 O82 2.137 . S
Co70 O83 2.244 . S
O71 Co70 2.216 . S
O71 C78 1.247 . S
O72 Co70 2.091 . S
O72 C78 1.261 . S
C73 O82 1.247 . S
C73 O83 1.272 . S
O74 Co70 2.004 . S
O74 C79 1.259 . S
Co75 O76 2.061 . S
Co75 O81 2.052 . S
Co75 O83 2.135 . S
O76 Co75 2.061 . S
O76 C79 1.235 . S
C77 O80 1.238 . S
C77 O81 1.241 . S
C78 O71 1.247 . S
C78 O72 1.261 . S
C79 O74 1.259 . S
C79 O76 1.235 . S
O80 Co70 2.021 . S
O80 C77 1.238 . S
O81 Co75 2.052 . S
O81 C77 1.241 . S
O82 Co70 2.137 . S
O82 C73 1.247 . S
O83 Co70 2.244 . S
O83 C73 1.272 . S
O83 Co75 2.135 . S
Co84 O85 2.216 . S
Co84 O86 2.091 . S
Co84 O88 2.004 . S
Co84 O94 2.021 . S
Co84 O96 2.137 . S
Co84 O97 2.244 . S
O85 Co84 2.216 . S
O85 C92 1.247 . S
O86 Co84 2.091 . S
O86 C92 1.261 . S
C87 O96 1.247 . S
C87 O97 1.272 . S
O88 Co84 2.004 . S
O88 C93 1.259 . S
Co89 O90 2.061 . S
Co89 O95 2.052 . S
Co89 O97 2.135 . S
O90 Co89 2.061 . S
O90 C93 1.235 . S
C91 O94 1.238 . S
C91 O95 1.241 . S
C92 O85 1.247 . S
C92 O86 1.261 . S
C93 O88 1.259 . S
C93 O90 1.235 . S
O94 Co84 2.021 . S
O94 C91 1.238 . S
O95 Co89 2.052 . S
O95 C91 1.241 . S
O96 Co84 2.137 . S
O96 C87 1.247 . S
O97 Co84 2.244 . S
O97 C87 1.272 . S
O97 Co89 2.135 . S
Co98 O99 2.216 . S
Co98 O100 2.091 . S
Co98 O102 2.004 . S
Co98 O108 2.021 . S
Co98 O110 2.137 . S
Co98 O111 2.244 . S
O99 Co98 2.216 . S
O99 C106 1.247 . S
O100 Co98 2.091 . S
O100 C106 1.261 . S
C101 O110 1.247 . S
C101 O111 1.272 . S
O102 Co98 2.004 . S
O102 C107 1.259 . S
Co103 O104 2.061 . S
Co103 O109 2.052 . S
Co103 O111 2.135 . S
O104 Co103 2.061 . S
O104 C107 1.235 . S
C105 O108 1.238 . S
C105 O109 1.241 . S
C106 O99 1.247 . S
C106 O100 1.261 . S
C107 O102 1.259 . S
C107 O104 1.235 . S
O108 Co98 2.021 . S
O108 C105 1.238 . S
O109 Co103 2.052 . S
O109 C105 1.241 . S
O110 Co98 2.137 . S
O110 C101 1.247 . S
O111 Co98 2.244 . S
O111 C101 1.272 . S
O111 Co103 2.135 . S
Co112 O113 2.216 . S
Co112 O114 2.091 . S
Co112 O116 2.004 . S
Co112 O122 2.021 . S
Co112 O124 2.137 . S
Co112 O125 2.244 . S
O113 Co112 2.216 . S
O113 C120 1.247 . S
O114 Co112 2.091 . S
O114 C120 1.261 . S
C115 O124 1.247 . S
C115 O125 1.272 . S
O116 Co112 2.004 . S
O116 C121 1.259 . S
Co117 O118 2.061 . S
Co117 O123 2.052 . S
Co117 O125 2.135 . S
O118 Co117 2.061 . S
O118 C121 1.235 . S
C119 O122 1.238 . S
C119 O123 1.241 . S
C120 O113 1.247 . S
C120 O114 1.261 . S
C121 O116 1.259 . S
C121 O118 1.235 . S
O122 Co112 2.021 . S
O122 C119 1.238 . S
O123 Co117 2.052 . S
O123 C119 1.241 . S
O124 Co112 2.137 . S
O124 C115 1.247 . S
O125 Co112 2.244 . S
O125 C115 1.272 . S
O125 Co117 2.135 . S
Co126 O127 2.216 . S
Co126 O128 2.091 . S
Co126 O130 2.004 . S
Co126 O136 2.021 . S
Co126 O138 2.137 . S
Co126 O139 2.244 . S
O127 Co126 2.216 . S
O127 C134 1.247 . S
O128 Co126 2.091 . S
O128 C134 1.261 . S
C129 O138 1.247 . S
C129 O139 1.272 . S
O130 Co126 2.004 . S
O130 C135 1.259 . S
Co131 O132 2.061 . S
Co131 O137 2.052 . S
Co131 O139 2.135 . S
O132 Co131 2.061 . S
O132 C135 1.235 . S
C133 O136 1.238 . S
C133 O137 1.241 . S
C134 O127 1.247 . S
C134 O128 1.261 . S
C135 O130 1.259 . S
C135 O132 1.235 . S
O136 Co126 2.021 . S
O136 C133 1.238 . S
O137 Co131 2.052 . S
O137 C133 1.241 . S
O138 Co126 2.137 . S
O138 C129 1.247 . S
O139 Co126 2.244 . S
O139 C129 1.272 . S
O139 Co131 2.135 . S
Co140 O141 2.216 . S
Co140 O142 2.091 . S
Co140 O144 2.004 . S
Co140 O150 2.021 . S
Co140 O152 2.137 . S
Co140 O153 2.244 . S
O141 Co140 2.216 . S
O141 C148 1.247 . S
O142 Co140 2.091 . S
O142 C148 1.261 . S
C143 O152 1.247 . S
C143 O153 1.272 . S
O144 Co140 2.004 . S
O144 C149 1.259 . S
Co145 O146 2.061 . S
Co145 O151 2.052 . S
Co145 O153 2.135 . S
O146 Co145 2.061 . S
O146 C149 1.235 . S
C147 O150 1.238 . S
C147 O151 1.241 . S
C148 O141 1.247 . S
C148 O142 1.261 . S
C149 O144 1.259 . S
C149 O146 1.235 . S
O150 Co140 2.021 . S
O150 C147 1.238 . S
O151 Co145 2.052 . S
O151 C147 1.241 . S
O152 Co140 2.137 . S
O152 C143 1.247 . S
O153 Co140 2.244 . S
O153 C143 1.272 . S
O153 Co145 2.135 . S
Co154 O155 2.216 . S
Co154 O156 2.091 . S
Co154 O158 2.004 . S
Co154 O164 2.021 . S
Co154 O166 2.137 . S
Co154 O167 2.244 . S
O155 Co154 2.216 . S
O155 C162 1.247 . S
O156 Co154 2.091 . S
O156 C162 1.261 . S
C157 O166 1.247 . S
C157 O167 1.272 . S
O158 Co154 2.004 . S
O158 C163 1.259 . S
Co159 O160 2.061 . S
Co159 O165 2.052 . S
Co159 O167 2.135 . S
O160 Co159 2.061 . S
O160 C163 1.235 . S
C161 O164 1.238 . S
C161 O165 1.241 . S
C162 O155 1.247 . S
C162 O156 1.261 . S
C163 O158 1.259 . S
C163 O160 1.235 . S
O164 Co154 2.021 . S
O164 C161 1.238 . S
O165 Co159 2.052 . S
O165 C161 1.241 . S
O166 Co154 2.137 . S
O166 C157 1.247 . S
O167 Co154 2.244 . S
O167 C157 1.272 . S
O167 Co159 2.135 . S
Co168 O169 2.216 . S
Co168 O170 2.091 . S
Co168 O172 2.004 . S
Co168 O178 2.021 . S
Co168 O180 2.137 . S
Co168 O181 2.244 . S
O169 Co168 2.216 . S
O169 C176 1.247 . S
O170 Co168 2.091 . S
O170 C176 1.261 . S
C171 O180 1.247 . S
C171 O181 1.272 . S
O172 Co168 2.004 . S
O172 C177 1.259 . S
Co173 O174 2.061 . S
Co173 O179 2.052 . S
Co173 O181 2.135 . S
O174 Co173 2.061 . S
O174 C177 1.235 . S
C175 O178 1.238 . S
C175 O179 1.241 . S
C176 O169 1.247 . S
C176 O170 1.261 . S
C177 O172 1.259 . S
C177 O174 1.235 . S
O178 Co168 2.021 . S
O178 C175 1.238 . S
O179 Co173 2.052 . S
O179 C175 1.241 . S
O180 Co168 2.137 . S
O180 C171 1.247 . S
O181 Co168 2.244 . S
O181 C171 1.272 . S
O181 Co173 2.135 . S
Co182 O183 2.216 . S
Co182 O184 2.091 . S
Co182 O186 2.004 . S
Co182 O192 2.021 . S
Co182 O194 2.137 . S
Co182 O195 2.244 . S
O183 Co182 2.216 . S
O183 C190 1.247 . S
O184 Co182 2.091 . S
O184 C190 1.261 . S
C185 O194 1.247 . S
C185 O195 1.272 . S
O186 Co182 2.004 . S
O186 C191 1.259 . S
Co187 O188 2.061 . S
Co187 O193 2.052 . S
Co187 O195 2.135 . S
O188 Co187 2.061 . S
O188 C191 1.235 . S
C189 O192 1.238 . S
C189 O193 1.241 . S
C190 O183 1.247 . S
C190 O184 1.261 . S
C191 O186 1.259 . S
C191 O188 1.235 . S
O192 Co182 2.021 . S
O192 C189 1.238 . S
O193 Co187 2.052 . S
O193 C189 1.241 . S
O194 Co182 2.137 . S
O194 C185 1.247 . S
O195 Co182 2.244 . S
O195 C185 1.272 . S
O195 Co187 2.135 . S
Co196 O197 2.216 . S
Co196 O198 2.091 . S
Co196 O200 2.004 . S
Co196 O206 2.021 . S
Co196 O208 2.137 . S
Co196 O209 2.244 . S
O197 Co196 2.216 . S
O197 C204 1.247 . S
O198 Co196 2.091 . S
O198 C204 1.261 . S
C199 O208 1.247 . S
C199 O209 1.272 . S
O200 Co196 2.004 . S
O200 C205 1.259 . S
Co201 O202 2.061 . S
Co201 O207 2.052 . S
Co201 O209 2.135 . S
O202 Co201 2.061 . S
O202 C205 1.235 . S
C203 O206 1.238 . S
C203 O207 1.241 . S
C204 O197 1.247 . S
C204 O198 1.261 . S
C205 O200 1.259 . S
C205 O202 1.235 . S
O206 Co196 2.021 . S
O206 C203 1.238 . S
O207 Co201 2.052 . S
O207 C203 1.241 . S
O208 Co196 2.137 . S
O208 C199 1.247 . S
O209 Co196 2.244 . S
O209 C199 1.272 . S
O209 Co201 2.135 . S
Co210 O211 2.216 . S
Co210 O212 2.091 . S
Co210 O214 2.004 . S
Co210 O220 2.021 . S
Co210 O222 2.137 . S
Co210 O223 2.244 . S
O211 Co210 2.216 . S
O211 C218 1.247 . S
O212 Co210 2.091 . S
O212 C218 1.261 . S
C213 O222 1.247 . S
C213 O223 1.272 . S
O214 Co210 2.004 . S
O214 C219 1.259 . S
Co215 O216 2.061 . S
Co215 O221 2.052 . S
Co215 O223 2.135 . S
O216 Co215 2.061 . S
O216 C219 1.235 . S
C217 O220 1.238 . S
C217 O221 1.241 . S
C218 O211 1.247 . S
C218 O212 1.261 . S
C219 O214 1.259 . S
C219 O216 1.235 . S
O220 Co210 2.021 . S
O220 C217 1.238 . S
O221 Co215 2.052 . S
O221 C217 1.241 . S
O222 Co210 2.137 . S
O222 C213 1.247 . S
O223 Co210 2.244 . S
O223 C213 1.272 . S
O223 Co215 2.135 . S
Co224 O225 2.216 . S
Co224 O226 2.091 . S
Co224 O228 2.004 . S
Co224 O234 2.021 . S
Co224 O236 2.137 . S
Co224 O237 2.244 . S
O225 Co224 2.216 . S
O225 C232 1.247 . S
O226 Co224 2.091 . S
O226 C232 1.261 . S
C227 O236 1.247 . S
C227 O237 1.272 . S
O228 Co224 2.004 . S
O228 C233 1.259 . S
Co229 O230 2.061 . S
Co229 O235 2.052 . S
Co229 O237 2.135 . S
O230 Co229 2.061 . S
O230 C233 1.235 . S
C231 O234 1.238 . S
C231 O235 1.241 . S
C232 O225 1.247 . S
C232 O226 1.261 . S
C233 O228 1.259 . S
C233 O230 1.235 . S
O234 Co224 2.021 . S
O234 C231 1.238 . S
O235 Co229 2.052 . S
O235 C231 1.241 . S
O236 Co224 2.137 . S
O236 C227 1.247 . S
O237 Co224 2.244 . S
O237 C227 1.272 . S
O237 Co229 2.135 . S
Co238 O239 2.216 . S
Co238 O240 2.091 . S
Co238 O242 2.004 . S
Co238 O248 2.021 . S
Co238 O250 2.137 . S
Co238 O251 2.244 . S
O239 Co238 2.216 . S
O239 C246 1.247 . S
O240 Co238 2.091 . S
O240 C246 1.261 . S
C241 O250 1.247 . S
C241 O251 1.272 . S
O242 Co238 2.004 . S
O242 C247 1.259 . S
Co243 O244 2.061 . S
Co243 O249 2.052 . S
Co243 O251 2.135 . S
O244 Co243 2.061 . S
O244 C247 1.235 . S
C245 O248 1.238 . S
C245 O249 1.241 . S
C246 O239 1.247 . S
C246 O240 1.261 . S
C247 O242 1.259 . S
C247 O244 1.235 . S
O248 Co238 2.021 . S
O248 C245 1.238 . S
O249 Co243 2.052 . S
O249 C245 1.241 . S
O250 Co238 2.137 . S
O250 C241 1.247 . S
O251 Co238 2.244 . S
O251 C241 1.272 . S
O251 Co243 2.135 . S
Co252 O253 2.216 . S
Co252 O254 2.091 . S
Co252 O256 2.004 . S
Co252 O262 2.021 . S
Co252 O264 2.137 . S
Co252 O265 2.244 . S
O253 Co252 2.216 . S
O253 C260 1.247 . S
O254 Co252 2.091 . S
O254 C260 1.261 . S
C255 O264 1.247 . S
C255 O265 1.272 . S
O256 Co252 2.004 . S
O256 C261 1.259 . S
Co257 O258 2.061 . S
Co257 O263 2.052 . S
Co257 O265 2.135 . S
O258 Co257 2.061 . S
O258 C261 1.235 . S
C259 O262 1.238 . S
C259 O263 1.241 . S
C260 O253 1.247 . S
C260 O254 1.261 . S
C261 O256 1.259 . S
C261 O258 1.235 . S
O262 Co252 2.021 . S
O262 C259 1.238 . S
O263 Co257 2.052 . S
O263 C259 1.241 . S
O264 Co252 2.137 . S
O264 C255 1.247 . S
O265 Co252 2.244 . S
O265 C255 1.272 . S
O265 Co257 2.135 . S
Co266 O267 2.216 . S
Co266 O268 2.091 . S
Co266 O270 2.004 . S
Co266 O276 2.021 . S
Co266 O278 2.137 . S
Co266 O279 2.244 . S
O267 Co266 2.216 . S
O267 C274 1.247 . S
O268 Co266 2.091 . S
O268 C274 1.261 . S
C269 O278 1.247 . S
C269 O279 1.272 . S
O270 Co266 2.004 . S
O270 C275 1.259 . S
Co271 O272 2.061 . S
Co271 O277 2.052 . S
Co271 O279 2.135 . S
O272 Co271 2.061 . S
O272 C275 1.235 . S
C273 O276 1.238 . S
C273 O277 1.241 . S
C274 O267 1.247 . S
C274 O268 1.261 . S
C275 O270 1.259 . S
C275 O272 1.235 . S
O276 Co266 2.021 . S
O276 C273 1.238 . S
O277 Co271 2.052 . S
O277 C273 1.241 . S
O278 Co266 2.137 . S
O278 C269 1.247 . S
O279 Co266 2.244 . S
O279 C269 1.272 . S
O279 Co271 2.135 . S
Co280 O281 2.216 . S
Co280 O282 2.091 . S
Co280 O284 2.004 . S
Co280 O290 2.021 . S
Co280 O292 2.137 . S
Co280 O293 2.244 . S
O281 Co280 2.216 . S
O281 C288 1.247 . S
O282 Co280 2.091 . S
O282 C288 1.261 . S
C283 O292 1.247 . S
C283 O293 1.272 . S
O284 Co280 2.004 . S
O284 C289 1.259 . S
Co285 O286 2.061 . S
Co285 O291 2.052 . S
Co285 O293 2.135 . S
O286 Co285 2.061 . S
O286 C289 1.235 . S
C287 O290 1.238 . S
C287 O291 1.241 . S
C288 O281 1.247 . S
C288 O282 1.261 . S
C289 O284 1.259 . S
C289 O286 1.235 . S
O290 Co280 2.021 . S
O290 C287 1.238 . S
O291 Co285 2.052 . S
O291 C287 1.241 . S
O292 Co280 2.137 . S
O292 C283 1.247 . S
O293 Co280 2.244 . S
O293 C283 1.272 . S
O293 Co285 2.135 . S
Co294 O295 2.216 . S
Co294 O296 2.091 . S
Co294 O298 2.004 . S
Co294 O304 2.021 . S
Co294 O306 2.137 . S
Co294 O307 2.244 . S
O295 Co294 2.216 . S
O295 C302 1.247 . S
O296 Co294 2.091 . S
O296 C302 1.261 . S
C297 O306 1.247 . S
C297 O307 1.272 . S
O298 Co294 2.004 . S
O298 C303 1.259 . S
Co299 O300 2.061 . S
Co299 O305 2.052 . S
Co299 O307 2.135 . S
O300 Co299 2.061 . S
O300 C303 1.235 . S
C301 O304 1.238 . S
C301 O305 1.241 . S
C302 O295 1.247 . S
C302 O296 1.261 . S
C303 O298 1.259 . S
C303 O300 1.235 . S
O304 Co294 2.021 . S
O304 C301 1.238 . S
O305 Co299 2.052 . S
O305 C301 1.241 . S
O306 Co294 2.137 . S
O306 C297 1.247 . S
O307 Co294 2.244 . S
O307 C297 1.272 . S
O307 Co299 2.135 . S
Co308 O309 2.216 . S
Co308 O310 2.091 . S
Co308 O312 2.004 . S
Co308 O318 2.021 . S
Co308 O320 2.137 . S
Co308 O321 2.244 . S
O309 Co308 2.216 . S
O309 C316 1.247 . S
O310 Co308 2.091 . S
O310 C316 1.261 . S
C311 O320 1.247 . S
C311 O321 1.272 . S
O312 Co308 2.004 . S
O312 C317 1.259 . S
Co313 O314 2.061 . S
Co313 O319 2.052 . S
Co313 O321 2.135 . S
O314 Co313 2.061 . S
O314 C317 1.235 . S
C315 O318 1.238 . S
C315 O319 1.241 . S
C316 O309 1.247 . S
C316 O310 1.261 . S
C317 O312 1.259 . S
C317 O314 1.235 . S
O318 Co308 2.021 . S
O318 C315 1.238 . S
O319 Co313 2.052 . S
O319 C315 1.241 . S
O320 Co308 2.137 . S
O320 C311 1.247 . S
O321 Co308 2.244 . S
O321 C311 1.272 . S
O321 Co313 2.135 . S
Co322 O323 2.216 . S
Co322 O324 2.091 . S
Co322 O326 2.004 . S
Co322 O332 2.021 . S
Co322 O334 2.137 . S
Co322 O335 2.244 . S
O323 Co322 2.216 . S
O323 C330 1.247 . S
O324 Co322 2.091 . S
O324 C330 1.261 . S
C325 O334 1.247 . S
C325 O335 1.272 . S
O326 Co322 2.004 . S
O326 C331 1.259 . S
Co327 O328 2.061 . S
Co327 O333 2.052 . S
Co327 O335 2.135 . S
O328 Co327 2.061 . S
O328 C331 1.235 . S
C329 O332 1.238 . S
C329 O333 1.241 . S
C330 O323 1.247 . S
C330 O324 1.261 . S
C331 O326 1.259 . S
C331 O328 1.235 . S
O332 Co322 2.021 . S
O332 C329 1.238 . S
O333 Co327 2.052 . S
O333 C329 1.241 . S
O334 Co322 2.137 . S
O334 C325 1.247 . S
O335 Co322 2.244 . S
O335 C325 1.272 . S
O335 Co327 2.135 . S
Co336 O337 2.216 . S
Co336 O338 2.091 . S
Co336 O340 2.004 . S
Co336 O346 2.021 . S
Co336 O348 2.137 . S
Co336 O349 2.244 . S
O337 Co336 2.216 . S
O337 C344 1.247 . S
O338 Co336 2.091 . S
O338 C344 1.261 . S
C339 O348 1.247 . S
C339 O349 1.272 . S
O340 Co336 2.004 . S
O340 C345 1.259 . S
Co341 O342 2.061 . S
Co341 O347 2.052 . S
Co341 O349 2.135 . S
O342 Co341 2.061 . S
O342 C345 1.235 . S
C343 O346 1.238 . S
C343 O347 1.241 . S
C344 O337 1.247 . S
C344 O338 1.261 . S
C345 O340 1.259 . S
C345 O342 1.235 . S
O346 Co336 2.021 . S
O346 C343 1.238 . S
O347 Co341 2.052 . S
O347 C343 1.241 . S
O348 Co336 2.137 . S
O348 C339 1.247 . S
O349 Co336 2.244 . S
O349 C339 1.272 . S
O349 Co341 2.135 . S
Co350 O351 2.216 . S
Co350 O352 2.091 . S
Co350 O354 2.004 . S
Co350 O360 2.021 . S
Co350 O362 2.137 . S
Co350 O363 2.244 . S
O351 Co350 2.216 . S
O351 C358 1.247 . S
O352 Co350 2.091 . S
O352 C358 1.261 . S
C353 O362 1.247 . S
C353 O363 1.272 . S
O354 Co350 2.004 . S
O354 C359 1.259 . S
Co355 O356 2.061 . S
Co355 O361 2.052 . S
Co355 O363 2.135 . S
O356 Co355 2.061 . S
O356 C359 1.235 . S
C357 O360 1.238 . S
C357 O361 1.241 . S
C358 O351 1.247 . S
C358 O352 1.261 . S
C359 O354 1.259 . S
C359 O356 1.235 . S
O360 Co350 2.021 . S
O360 C357 1.238 . S
O361 Co355 2.052 . S
O361 C357 1.241 . S
O362 Co350 2.137 . S
O362 C353 1.247 . S
O363 Co350 2.244 . S
O363 C353 1.272 . S
O363 Co355 2.135 . S
Co364 O365 2.216 . S
Co364 O366 2.091 . S
Co364 O368 2.004 . S
Co364 O374 2.021 . S
Co364 O376 2.137 . S
Co364 O377 2.244 . S
O365 Co364 2.216 . S
O365 C372 1.247 . S
O366 Co364 2.091 . S
O366 C372 1.261 . S
C367 O376 1.247 . S
C367 O377 1.272 . S
O368 Co364 2.004 . S
O368 C373 1.259 . S
Co369 O370 2.061 . S
Co369 O375 2.052 . S
Co369 O377 2.135 . S
O370 Co369 2.061 . S
O370 C373 1.235 . S
C371 O374 1.238 . S
C371 O375 1.241 . S
C372 O365 1.247 . S
C372 O366 1.261 . S
C373 O368 1.259 . S
C373 O370 1.235 . S
O374 Co364 2.021 . S
O374 C371 1.238 . S
O375 Co369 2.052 . S
O375 C371 1.241 . S
O376 Co364 2.137 . S
O376 C367 1.247 . S
O377 Co364 2.244 . S
O377 C367 1.272 . S
O377 Co369 2.135 . S
Co378 O379 2.216 . S
Co378 O380 2.091 . S
Co378 O382 2.004 . S
Co378 O388 2.021 . S
Co378 O390 2.137 . S
Co378 O391 2.244 . S
O379 Co378 2.216 . S
O379 C386 1.247 . S
O380 Co378 2.091 . S
O380 C386 1.261 . S
C381 O390 1.247 . S
C381 O391 1.272 . S
O382 Co378 2.004 . S
O382 C387 1.259 . S
Co383 O384 2.061 . S
Co383 O389 2.052 . S
Co383 O391 2.135 . S
O384 Co383 2.061 . S
O384 C387 1.235 . S
C385 O388 1.238 . S
C385 O389 1.241 . S
C386 O379 1.247 . S
C386 O380 1.261 . S
C387 O382 1.259 . S
C387 O384 1.235 . S
O388 Co378 2.021 . S
O388 C385 1.238 . S
O389 Co383 2.052 . S
O389 C385 1.241 . S
O390 Co378 2.137 . S
O390 C381 1.247 . S
O391 Co378 2.244 . S
O391 C381 1.272 . S
O391 Co383 2.135 . S
Co392 O393 2.216 . S
Co392 O394 2.091 . S
Co392 O396 2.004 . S
Co392 O402 2.021 . S
Co392 O404 2.137 . S
Co392 O405 2.244 . S
O393 Co392 2.216 . S
O393 C400 1.247 . S
O394 Co392 2.091 . S
O394 C400 1.261 . S
C395 O404 1.247 . S
C395 O405 1.272 . S
O396 Co392 2.004 . S
O396 C401 1.259 . S
Co397 O398 2.061 . S
Co397 O403 2.052 . S
Co397 O405 2.135 . S
O398 Co397 2.061 . S
O398 C401 1.235 . S
C399 O402 1.238 . S
C399 O403 1.241 . S
C400 O393 1.247 . S
C400 O394 1.261 . S
C401 O396 1.259 . S
C401 O398 1.235 . S
O402 Co392 2.021 . S
O402 C399 1.238 . S
O403 Co397 2.052 . S
O403 C399 1.241 . S
O404 Co392 2.137 . S
O404 C395 1.247 . S
O405 Co392 2.244 . S
O405 C395 1.272 . S
O405 Co397 2.135 . S
Co406 O407 2.216 . S
Co406 O408 2.091 . S
Co406 O410 2.004 . S
Co406 O416 2.021 . S
Co406 O418 2.137 . S
Co406 O419 2.244 . S
O407 Co406 2.216 . S
O407 C414 1.247 . S
O408 Co406 2.091 . S
O408 C414 1.261 . S
C409 O418 1.247 . S
C409 O419 1.272 . S
O410 Co406 2.004 . S
O410 C415 1.259 . S
Co411 O412 2.061 . S
Co411 O417 2.052 . S
Co411 O419 2.135 . S
O412 Co411 2.061 . S
O412 C415 1.235 . S
C413 O416 1.238 . S
C413 O417 1.241 . S
C414 O407 1.247 . S
C414 O408 1.261 . S
C415 O410 1.259 . S
C415 O412 1.235 . S
O416 Co406 2.021 . S
O416 C413 1.238 . S
O417 Co411 2.052 . S
O417 C413 1.241 . S
O418 Co406 2.137 . S
O418 C409 1.247 . S
O419 Co406 2.244 . S
O419 C409 1.272 . S
O419 Co411 2.135 . S
Co420 O421 2.216 . S
Co420 O422 2.091 . S
Co420 O424 2.004 . S
Co420 O430 2.021 . S
Co420 O432 2.137 . S
Co420 O433 2.244 . S
O421 Co420 2.216 . S
O421 C428 1.247 . S
O422 Co420 2.091 . S
O422 C428 1.261 . S
C423 O432 1.247 . S
C423 O433 1.272 . S
O424 Co420 2.004 . S
O424 C429 1.259 . S
Co425 O426 2.061 . S
Co425 O431 2.052 . S
Co425 O433 2.135 . S
O426 Co425 2.061 . S
O426 C429 1.235 . S
C427 O430 1.238 . S
C427 O431 1.241 . S
C428 O421 1.247 . S
C428 O422 1.261 . S
C429 O424 1.259 . S
C429 O426 1.235 . S
O430 Co420 2.021 . S
O430 C427 1.238 . S
O431 Co425 2.052 . S
O431 C427 1.241 . S
O432 Co420 2.137 . S
O432 C423 1.247 . S
O433 Co420 2.244 . S
O433 C423 1.272 . S
O433 Co425 2.135 . S
Co434 O435 2.216 . S
Co434 O436 2.091 . S
Co434 O438 2.004 . S
Co434 O444 2.021 . S
Co434 O446 2.137 . S
Co434 O447 2.244 . S
O435 Co434 2.216 . S
O435 C442 1.247 . S
O436 Co434 2.091 . S
O436 C442 1.261 . S
C437 O446 1.247 . S
C437 O447 1.272 . S
O438 Co434 2.004 . S
O438 C443 1.259 . S
Co439 O440 2.061 . S
Co439 O445 2.052 . S
Co439 O447 2.135 . S
O440 Co439 2.061 . S
O440 C443 1.235 . S
C441 O444 1.238 . S
C441 O445 1.241 . S
C442 O435 1.247 . S
C442 O436 1.261 . S
C443 O438 1.259 . S
C443 O440 1.235 . S
O444 Co434 2.021 . S
O444 C441 1.238 . S
O445 Co439 2.052 . S
O445 C441 1.241 . S
O446 Co434 2.137 . S
O446 C437 1.247 . S
O447 Co434 2.244 . S
O447 C437 1.272 . S
O447 Co439 2.135 . S
C448 C449 1.349 . S
C448 C450 1.327 . S
C448 H473 0.950 . S
C449 C448 1.349 . S
C449 C465 1.349 . S
C450 C448 1.327 . S
C450 C469 1.429 . S
C450 H474 0.950 . S
C451 C468 1.574 . S
C451 C470 1.368 . S
C451 H475 0.949 . S
H452 C456 0.949 . S
C453 C454 1.349 . S
C453 C455 1.327 . S
C453 H476 0.950 . S
C454 C453 1.349 . S
C454 C466 1.349 . S
C455 C453 1.327 . S
C455 C471 1.429 . S
C455 H477 0.950 . S
C456 H452 0.949 . S
C456 C464 1.574 . S
C456 C472 1.368 . S
H457 C465 0.950 . S
H458 C463 0.950 . S
H459 C464 0.949 . S
H460 C466 0.950 . S
H461 C467 0.950 . S
H462 C468 0.949 . S
C463 H458 0.950 . S
C463 C465 1.327 . S
C463 C469 1.429 . S
C464 C456 1.574 . S
C464 H459 0.949 . S
C464 C470 1.368 . S
C465 C449 1.349 . S
C465 H457 0.950 . S
C465 C463 1.327 . S
C466 C454 1.349 . S
C466 H460 0.950 . S
C466 C467 1.327 . S
C467 H461 0.950 . S
C467 C466 1.327 . S
C467 C471 1.429 . S
C468 C451 1.574 . S
C468 H462 0.949 . S
C468 C472 1.368 . S
C469 C450 1.429 . S
C469 C463 1.429 . S
C469 C470 1.523 . S
C470 C451 1.368 . S
C470 C464 1.368 . S
C470 C469 1.523 . S
C471 C455 1.429 . S
C471 C467 1.429 . S
C471 C472 1.523 . S
C472 C456 1.368 . S
C472 C468 1.368 . S
C472 C471 1.523 . S
H473 C448 0.950 . S
H474 C450 0.950 . S
H475 C451 0.949 . S
H476 C453 0.950 . S
H477 C455 0.950 . S
C478 C479 1.349 . S
C478 C480 1.327 . S
C478 H503 0.950 . S
C479 C478 1.349 . S
C479 C495 1.349 . S
C480 C478 1.327 . S
C480 C499 1.429 . S
C480 H504 0.950 . S
C481 C498 1.574 . S
C481 C500 1.368 . S
C481 H505 0.949 . S
H482 C486 0.949 . S
C483 C484 1.349 . S
C483 C485 1.327 . S
C483 H506 0.950 . S
C484 C483 1.349 . S
C484 C496 1.349 . S
C485 C483 1.327 . S
C485 C501 1.429 . S
C485 H507 0.950 . S
C486 H482 0.949 . S
C486 C494 1.574 . S
C486 C502 1.368 . S
H487 C495 0.950 . S
H488 C493 0.950 . S
H489 C494 0.949 . S
H490 C496 0.950 . S
H491 C497 0.950 . S
H492 C498 0.949 . S
C493 H488 0.950 . S
C493 C495 1.327 . S
C493 C499 1.429 . S
C494 C486 1.574 . S
C494 H489 0.949 . S
C494 C500 1.368 . S
C495 C479 1.349 . S
C495 H487 0.950 . S
C495 C493 1.327 . S
C496 C484 1.349 . S
C496 H490 0.950 . S
C496 C497 1.327 . S
C497 H491 0.950 . S
C497 C496 1.327 . S
C497 C501 1.429 . S
C498 C481 1.574 . S
C498 H492 0.949 . S
C498 C502 1.368 . S
C499 C480 1.429 . S
C499 C493 1.429 . S
C499 C500 1.523 . S
C500 C481 1.368 . S
C500 C494 1.368 . S
C500 C499 1.523 . S
C501 C485 1.429 . S
C501 C497 1.429 . S
C501 C502 1.523 . S
C502 C486 1.368 . S
C502 C498 1.368 . S
C502 C501 1.523 . S
H503 C478 0.950 . S
H504 C480 0.950 . S
H505 C481 0.949 . S
H506 C483 0.950 . S
H507 C485 0.950 . S
C508 C509 1.349 . S
C508 C510 1.327 . S
C508 H533 0.950 . S
C509 C508 1.349 . S
C509 C525 1.349 . S
C510 C508 1.327 . S
C510 C529 1.429 . S
C510 H534 0.950 . S
C511 C528 1.574 . S
C511 C530 1.368 . S
C511 H535 0.949 . S
H512 C516 0.949 . S
C513 C514 1.349 . S
C513 C515 1.327 . S
C513 H536 0.950 . S
C514 C513 1.349 . S
C514 C526 1.349 . S
C515 C513 1.327 . S
C515 C531 1.429 . S
C515 H537 0.950 . S
C516 H512 0.949 . S
C516 C524 1.574 . S
C516 C532 1.368 . S
H517 C525 0.950 . S
H518 C523 0.950 . S
H519 C524 0.949 . S
H520 C526 0.950 . S
H521 C527 0.950 . S
H522 C528 0.949 . S
C523 H518 0.950 . S
C523 C525 1.327 . S
C523 C529 1.429 . S
C524 C516 1.574 . S
C524 H519 0.949 . S
C524 C530 1.368 . S
C525 C509 1.349 . S
C525 H517 0.950 . S
C525 C523 1.327 . S
C526 C514 1.349 . S
C526 H520 0.950 . S
C526 C527 1.327 . S
C527 H521 0.950 . S
C527 C526 1.327 . S
C527 C531 1.429 . S
C528 C511 1.574 . S
C528 H522 0.949 . S
C528 C532 1.368 . S
C529 C510 1.429 . S
C529 C523 1.429 . S
C529 C530 1.523 . S
C530 C511 1.368 . S
C530 C524 1.368 . S
C530 C529 1.523 . S
C531 C515 1.429 . S
C531 C527 1.429 . S
C531 C532 1.523 . S
C532 C516 1.368 . S
C532 C528 1.368 . S
C532 C531 1.523 . S
H533 C508 0.950 . S
H534 C510 0.950 . S
H535 C511 0.949 . S
H536 C513 0.950 . S
H537 C515 0.950 . S
C538 C539 1.349 . S
C538 C540 1.327 . S
C538 H563 0.950 . S
C539 C538 1.349 . S
C539 C555 1.349 . S
C540 C538 1.327 . S
C540 C559 1.429 . S
C540 H564 0.950 . S
C541 C558 1.574 . S
C541 C560 1.368 . S
C541 H565 0.949 . S
H542 C546 0.949 . S
C543 C544 1.349 . S
C543 C545 1.327 . S
C543 H566 0.950 . S
C544 C543 1.349 . S
C544 C556 1.349 . S
C545 C543 1.327 . S
C545 C561 1.429 . S
C545 H567 0.950 . S
C546 H542 0.949 . S
C546 C554 1.574 . S
C546 C562 1.368 . S
H547 C555 0.950 . S
H548 C553 0.950 . S
H549 C554 0.949 . S
H550 C556 0.950 . S
H551 C557 0.950 . S
H552 C558 0.949 . S
C553 H548 0.950 . S
C553 C555 1.327 . S
C553 C559 1.429 . S
C554 C546 1.574 . S
C554 H549 0.949 . S
C554 C560 1.368 . S
C555 C539 1.349 . S
C555 H547 0.950 . S
C555 C553 1.327 . S
C556 C544 1.349 . S
C556 H550 0.950 . S
C556 C557 1.327 . S
C557 H551 0.950 . S
C557 C556 1.327 . S
C557 C561 1.429 . S
C558 C541 1.574 . S
C558 H552 0.949 . S
C558 C562 1.368 . S
C559 C540 1.429 . S
C559 C553 1.429 . S
C559 C560 1.523 . S
C560 C541 1.368 . S
C560 C554 1.368 . S
C560 C559 1.523 . S
C561 C545 1.429 . S
C561 C557 1.429 . S
C561 C562 1.523 . S
C562 C546 1.368 . S
C562 C558 1.368 . S
C562 C561 1.523 . S
H563 C538 0.950 . S
H564 C540 0.950 . S
H565 C541 0.949 . S
H566 C543 0.950 . S
H567 C545 0.950 . S
C568 C569 1.349 . S
C568 C570 1.327 1_565 S
C568 H593 0.950 . S
C569 C568 1.349 . S
C569 C585 1.349 . S
C570 C568 1.327 1_545 S
C570 C589 1.429 . S
C570 H594 0.950 . S
C571 C588 1.574 . S
C571 C590 1.368 . S
C571 H595 0.949 . S
H572 C576 0.949 . S
C573 C574 1.349 . S
C573 C575 1.327 . S
C573 H596 0.950 . S
C574 C573 1.349 . S
C574 C586 1.349 . S
C575 C573 1.327 . S
C575 C591 1.429 . S
C575 H597 0.950 . S
C576 H572 0.949 . S
C576 C584 1.574 . S
C576 C592 1.368 . S
H577 C585 0.950 . S
H578 C583 0.950 . S
H579 C584 0.949 . S
H580 C586 0.950 . S
H581 C587 0.950 . S
H582 C588 0.949 . S
C583 H578 0.950 . S
C583 C585 1.327 1_545 S
C583 C589 1.429 . S
C584 C576 1.574 . S
C584 H579 0.949 . S
C584 C590 1.368 . S
C585 C569 1.349 . S
C585 H577 0.950 . S
C585 C583 1.327 1_565 S
C586 C574 1.349 . S
C586 H580 0.950 . S
C586 C587 1.327 . S
C587 H581 0.950 . S
C587 C586 1.327 . S
C587 C591 1.429 . S
C588 C571 1.574 . S
C588 H582 0.949 . S
C588 C592 1.368 . S
C589 C570 1.429 . S
C589 C583 1.429 . S
C589 C590 1.523 . S
C590 C571 1.368 . S
C590 C584 1.368 . S
C590 C589 1.523 . S
C591 C575 1.429 . S
C591 C587 1.429 . S
C591 C592 1.523 . S
C592 C576 1.368 . S
C592 C588 1.368 . S
C592 C591 1.523 . S
H593 C568 0.950 . S
H594 C570 0.950 . S
H595 C571 0.949 . S
H596 C573 0.950 . S
H597 C575 0.950 . S
C598 C599 1.349 . S
C598 C600 1.327 1_565 S
C598 H623 0.950 . S
C599 C598 1.349 . S
C599 C615 1.349 . S
C600 C598 1.327 1_545 S
C600 C619 1.429 . S
C600 H624 0.950 . S
C601 C618 1.574 . S
C601 C620 1.368 . S
C601 H625 0.949 . S
H602 C606 0.949 . S
C603 C604 1.349 . S
C603 C605 1.327 . S
C603 H626 0.950 . S
C604 C603 1.349 . S
C604 C616 1.349 . S
C605 C603 1.327 . S
C605 C621 1.429 . S
C605 H627 0.950 . S
C606 H602 0.949 . S
C606 C614 1.574 . S
C606 C622 1.368 . S
H607 C615 0.950 . S
H608 C613 0.950 . S
H609 C614 0.949 . S
H610 C616 0.950 . S
H611 C617 0.950 . S
H612 C618 0.949 . S
C613 H608 0.950 . S
C613 C615 1.327 1_545 S
C613 C619 1.429 . S
C614 C606 1.574 . S
C614 H609 0.949 . S
C614 C620 1.368 . S
C615 C599 1.349 . S
C615 H607 0.950 . S
C615 C613 1.327 1_565 S
C616 C604 1.349 . S
C616 H610 0.950 . S
C616 C617 1.327 . S
C617 H611 0.950 . S
C617 C616 1.327 . S
C617 C621 1.429 . S
C618 C601 1.574 . S
C618 H612 0.949 . S
C618 C622 1.368 . S
C619 C600 1.429 . S
C619 C613 1.429 . S
C619 C620 1.523 . S
C620 C601 1.368 . S
C620 C614 1.368 . S
C620 C619 1.523 . S
C621 C605 1.429 . S
C621 C617 1.429 . S
C621 C622 1.523 . S
C622 C606 1.368 . S
C622 C618 1.368 . S
C622 C621 1.523 . S
H623 C598 0.950 . S
H624 C600 0.950 . S
H625 C601 0.949 . S
H626 C603 0.950 . S
H627 C605 0.950 . S
C628 C629 1.349 . S
C628 C630 1.327 1_545 S
C628 H653 0.950 . S
C629 C628 1.349 . S
C629 C645 1.349 . S
C630 C628 1.327 1_565 S
C630 C649 1.429 . S
C630 H654 0.950 . S
C631 C648 1.574 . S
C631 C650 1.368 . S
C631 H655 0.949 . S
H632 C636 0.949 . S
C633 C634 1.349 . S
C633 C635 1.327 . S
C633 H656 0.950 . S
C634 C633 1.349 . S
C634 C646 1.349 . S
C635 C633 1.327 . S
C635 C651 1.429 . S
C635 H657 0.950 . S
C636 H632 0.949 . S
C636 C644 1.574 . S
C636 C652 1.368 . S
H637 C645 0.950 . S
H638 C643 0.950 . S
H639 C644 0.949 . S
H640 C646 0.950 . S
H641 C647 0.950 . S
H642 C648 0.949 . S
C643 H638 0.950 . S
C643 C645 1.327 1_565 S
C643 C649 1.429 . S
C644 C636 1.574 . S
C644 H639 0.949 . S
C644 C650 1.368 . S
C645 C629 1.349 . S
C645 H637 0.950 . S
C645 C643 1.327 1_545 S
C646 C634 1.349 . S
C646 H640 0.950 . S
C646 C647 1.327 . S
C647 H641 0.950 . S
C647 C646 1.327 . S
C647 C651 1.429 . S
C648 C631 1.574 . S
C648 H642 0.949 . S
C648 C652 1.368 . S
C649 C630 1.429 . S
C649 C643 1.429 . S
C649 C650 1.523 . S
C650 C631 1.368 . S
C650 C644 1.368 . S
C650 C649 1.523 . S
C651 C635 1.429 . S
C651 C647 1.429 . S
C651 C652 1.523 . S
C652 C636 1.368 . S
C652 C648 1.368 . S
C652 C651 1.523 . S
H653 C628 0.950 . S
H654 C630 0.950 . S
H655 C631 0.949 . S
H656 C633 0.950 . S
H657 C635 0.950 . S
C658 C659 1.349 . S
C658 C660 1.327 . S
C658 H683 0.950 . S
C659 C658 1.349 . S
C659 C675 1.349 . S
C660 C658 1.327 . S
C660 C679 1.429 . S
C660 H684 0.950 . S
C661 C678 1.574 . S
C661 C680 1.368 . S
C661 H685 0.949 . S
H662 C666 0.949 . S
C663 C664 1.349 . S
C663 C665 1.327 1_545 S
C663 H686 0.950 . S
C664 C663 1.349 . S
C664 C676 1.349 . S
C665 C663 1.327 1_565 S
C665 C681 1.429 . S
C665 H687 0.950 . S
C666 H662 0.949 . S
C666 C674 1.574 . S
C666 C682 1.368 . S
H667 C675 0.950 . S
H668 C673 0.950 . S
H669 C674 0.949 . S
H670 C676 0.950 . S
H671 C677 0.950 . S
H672 C678 0.949 . S
C673 H668 0.950 . S
C673 C675 1.327 . S
C673 C679 1.429 . S
C674 C666 1.574 . S
C674 H669 0.949 . S
C674 C680 1.368 . S
C675 C659 1.349 . S
C675 H667 0.950 . S
C675 C673 1.327 . S
C676 C664 1.349 . S
C676 H670 0.950 . S
C676 C677 1.327 1_545 S
C677 H671 0.950 . S
C677 C676 1.327 1_565 S
C677 C681 1.429 . S
C678 C661 1.574 . S
C678 H672 0.949 . S
C678 C682 1.368 . S
C679 C660 1.429 . S
C679 C673 1.429 . S
C679 C680 1.523 . S
C680 C661 1.368 . S
C680 C674 1.368 . S
C680 C679 1.523 . S
C681 C665 1.429 . S
C681 C677 1.429 . S
C681 C682 1.523 . S
C682 C666 1.368 . S
C682 C678 1.368 . S
C682 C681 1.523 . S
H683 C658 0.950 . S
H684 C660 0.950 . S
H685 C661 0.949 . S
H686 C663 0.950 . S
H687 C665 0.950 . S
C688 C689 1.349 . S
C688 C690 1.327 . S
C688 H713 0.950 . S
C689 C688 1.349 . S
C689 C705 1.349 . S
C690 C688 1.327 . S
C690 C709 1.429 . S
C690 H714 0.950 . S
C691 C708 1.574 . S
C691 C710 1.368 . S
C691 H715 0.949 . S
H692 C696 0.949 . S
C693 C694 1.349 . S
C693 C695 1.327 . S
C693 H716 0.950 . S
C694 C693 1.349 . S
C694 C706 1.349 . S
C695 C693 1.327 . S
C695 C711 1.429 . S
C695 H717 0.950 . S
C696 H692 0.949 . S
C696 C704 1.574 . S
C696 C712 1.368 . S
H697 C705 0.950 . S
H698 C703 0.950 . S
H699 C704 0.949 . S
H700 C706 0.950 . S
H701 C707 0.950 . S
H702 C708 0.949 . S
C703 H698 0.950 . S
C703 C705 1.327 . S
C703 C709 1.429 . S
C704 C696 1.574 . S
C704 H699 0.949 . S
C704 C710 1.368 . S
C705 C689 1.349 . S
C705 H697 0.950 . S
C705 C703 1.327 . S
C706 C694 1.349 . S
C706 H700 0.950 . S
C706 C707 1.327 . S
C707 H701 0.950 . S
C707 C706 1.327 . S
C707 C711 1.429 . S
C708 C691 1.574 . S
C708 H702 0.949 . S
C708 C712 1.368 . S
C709 C690 1.429 . S
C709 C703 1.429 . S
C709 C710 1.523 . S
C710 C691 1.368 . S
C710 C704 1.368 . S
C710 C709 1.523 . S
C711 C695 1.429 . S
C711 C707 1.429 . S
C711 C712 1.523 . S
C712 C696 1.368 . S
C712 C708 1.368 . S
C712 C711 1.523 . S
H713 C688 0.950 . S
H714 C690 0.950 . S
H715 C691 0.949 . S
H716 C693 0.950 . S
H717 C695 0.950 . S
C718 C719 1.349 . S
C718 C720 1.327 . S
C718 H743 0.950 . S
C719 C718 1.349 . S
C719 C735 1.349 . S
C720 C718 1.327 . S
C720 C739 1.429 . S
C720 H744 0.950 . S
C721 C738 1.574 . S
C721 C740 1.368 . S
C721 H745 0.949 . S
H722 C726 0.949 . S
C723 C724 1.349 . S
C723 C725 1.327 . S
C723 H746 0.950 . S
C724 C723 1.349 . S
C724 C736 1.349 . S
C725 C723 1.327 . S
C725 C741 1.429 . S
C725 H747 0.950 . S
C726 H722 0.949 . S
C726 C734 1.574 . S
C726 C742 1.368 . S
H727 C735 0.950 . S
H728 C733 0.950 . S
H729 C734 0.949 . S
H730 C736 0.950 . S
H731 C737 0.950 . S
H732 C738 0.949 . S
C733 H728 0.950 . S
C733 C735 1.327 . S
C733 C739 1.429 . S
C734 C726 1.574 . S
C734 H729 0.949 . S
C734 C740 1.368 . S
C735 C719 1.349 . S
C735 H727 0.950 . S
C735 C733 1.327 . S
C736 C724 1.349 . S
C736 H730 0.950 . S
C736 C737 1.327 . S
C737 H731 0.950 . S
C737 C736 1.327 . S
C737 C741 1.429 . S
C738 C721 1.574 . S
C738 H732 0.949 . S
C738 C742 1.368 . S
C739 C720 1.429 . S
C739 C733 1.429 . S
C739 C740 1.523 . S
C740 C721 1.368 . S
C740 C734 1.368 . S
C740 C739 1.523 . S
C741 C725 1.429 . S
C741 C737 1.429 . S
C741 C742 1.523 . S
C742 C726 1.368 . S
C742 C738 1.368 . S
C742 C741 1.523 . S
H743 C718 0.950 . S
H744 C720 0.950 . S
H745 C721 0.949 . S
H746 C723 0.950 . S
H747 C725 0.950 . S
C748 C749 1.349 . S
C748 C750 1.327 . S
C748 H773 0.950 . S
C749 C748 1.349 . S
C749 C765 1.349 . S
C750 C748 1.327 . S
C750 C769 1.429 . S
C750 H774 0.950 . S
C751 C768 1.574 . S
C751 C770 1.368 . S
C751 H775 0.949 . S
H752 C756 0.949 . S
C753 C754 1.349 . S
C753 C755 1.327 . S
C753 H776 0.950 . S
C754 C753 1.349 . S
C754 C766 1.349 . S
C755 C753 1.327 . S
C755 C771 1.429 . S
C755 H777 0.950 . S
C756 H752 0.949 . S
C756 C764 1.574 . S
C756 C772 1.368 . S
H757 C765 0.950 . S
H758 C763 0.950 . S
H759 C764 0.949 . S
H760 C766 0.950 . S
H761 C767 0.950 . S
H762 C768 0.949 . S
C763 H758 0.950 . S
C763 C765 1.327 . S
C763 C769 1.429 . S
C764 C756 1.574 . S
C764 H759 0.949 . S
C764 C770 1.368 . S
C765 C749 1.349 . S
C765 H757 0.950 . S
C765 C763 1.327 . S
C766 C754 1.349 . S
C766 H760 0.950 . S
C766 C767 1.327 . S
C767 H761 0.950 . S
C767 C766 1.327 . S
C767 C771 1.429 . S
C768 C751 1.574 . S
C768 H762 0.949 . S
C768 C772 1.368 . S
C769 C750 1.429 . S
C769 C763 1.429 . S
C769 C770 1.523 . S
C770 C751 1.368 . S
C770 C764 1.368 . S
C770 C769 1.523 . S
C771 C755 1.429 . S
C771 C767 1.429 . S
C771 C772 1.523 . S
C772 C756 1.368 . S
C772 C768 1.368 . S
C772 C771 1.523 . S
H773 C748 0.950 . S
H774 C750 0.950 . S
H775 C751 0.949 . S
H776 C753 0.950 . S
H777 C755 0.950 . S
C778 C779 1.349 . S
C778 C780 1.327 . S
C778 H803 0.950 . S
C779 C778 1.349 . S
C779 C795 1.349 . S
C780 C778 1.327 . S
C780 C799 1.429 . S
C780 H804 0.950 . S
C781 C798 1.574 . S
C781 C800 1.368 . S
C781 H805 0.949 . S
H782 C786 0.949 . S
C783 C784 1.349 . S
C783 C785 1.327 . S
C783 H806 0.950 . S
C784 C783 1.349 . S
C784 C796 1.349 . S
C785 C783 1.327 . S
C785 C801 1.429 . S
C785 H807 0.950 . S
C786 H782 0.949 . S
C786 C794 1.574 . S
C786 C802 1.368 . S
H787 C795 0.950 . S
H788 C793 0.950 . S
H789 C794 0.949 . S
H790 C796 0.950 . S
H791 C797 0.950 . S
H792 C798 0.949 . S
C793 H788 0.950 . S
C793 C795 1.327 . S
C793 C799 1.429 . S
C794 C786 1.574 . S
C794 H789 0.949 . S
C794 C800 1.368 . S
C795 C779 1.349 . S
C795 H787 0.950 . S
C795 C793 1.327 . S
C796 C784 1.349 . S
C796 H790 0.950 . S
C796 C797 1.327 . S
C797 H791 0.950 . S
C797 C796 1.327 . S
C797 C801 1.429 . S
C798 C781 1.574 . S
C798 H792 0.949 . S
C798 C802 1.368 . S
C799 C780 1.429 . S
C799 C793 1.429 . S
C799 C800 1.523 . S
C800 C781 1.368 . S
C800 C794 1.368 . S
C800 C799 1.523 . S
C801 C785 1.429 . S
C801 C797 1.429 . S
C801 C802 1.523 . S
C802 C786 1.368 . S
C802 C798 1.368 . S
C802 C801 1.523 . S
H803 C778 0.950 . S
H804 C780 0.950 . S
H805 C781 0.949 . S
H806 C783 0.950 . S
H807 C785 0.950 . S
C808 C809 1.349 . S
C808 C810 1.327 . S
C808 H833 0.950 . S
C809 C808 1.349 . S
C809 C825 1.349 . S
C810 C808 1.327 . S
C810 C829 1.429 . S
C810 H834 0.950 . S
C811 C828 1.574 . S
C811 C830 1.368 . S
C811 H835 0.949 . S
H812 C816 0.949 . S
C813 C814 1.349 . S
C813 C815 1.327 1_565 S
C813 H836 0.950 . S
C814 C813 1.349 . S
C814 C826 1.349 . S
C815 C813 1.327 1_545 S
C815 C831 1.429 . S
C815 H837 0.950 . S
C816 H812 0.949 . S
C816 C824 1.574 . S
C816 C832 1.368 . S
H817 C825 0.950 . S
H818 C823 0.950 . S
H819 C824 0.949 . S
H820 C826 0.950 . S
H821 C827 0.950 . S
H822 C828 0.949 . S
C823 H818 0.950 . S
C823 C825 1.327 . S
C823 C829 1.429 . S
C824 C816 1.574 . S
C824 H819 0.949 . S
C824 C830 1.368 . S
C825 C809 1.349 . S
C825 H817 0.950 . S
C825 C823 1.327 . S
C826 C814 1.349 . S
C826 H820 0.950 . S
C826 C827 1.327 1_565 S
C827 H821 0.950 . S
C827 C826 1.327 1_545 S
C827 C831 1.429 . S
C828 C811 1.574 . S
C828 H822 0.949 . S
C828 C832 1.368 . S
C829 C810 1.429 . S
C829 C823 1.429 . S
C829 C830 1.523 . S
C830 C811 1.368 . S
C830 C824 1.368 . S
C830 C829 1.523 . S
C831 C815 1.429 . S
C831 C827 1.429 . S
C831 C832 1.523 . S
C832 C816 1.368 . S
C832 C828 1.368 . S
C832 C831 1.523 . S
H833 C808 0.950 . S
H834 C810 0.950 . S
H835 C811 0.949 . S
H836 C813 0.950 . S
H837 C815 0.950 . S
C838 C839 1.349 . S
C838 C840 1.327 1_565 S
C838 H863 0.950 . S
C839 C838 1.349 . S
C839 C855 1.349 . S
C840 C838 1.327 1_545 S
C840 C859 1.429 . S
C840 H864 0.950 . S
C841 C858 1.574 . S
C841 C860 1.368 . S
C841 H865 0.949 . S
H842 C846 0.949 . S
C843 C844 1.349 . S
C843 C845 1.327 . S
C843 H866 0.950 . S
C844 C843 1.349 . S
C844 C856 1.349 . S
C845 C843 1.327 . S
C845 C861 1.429 . S
C845 H867 0.950 . S
C846 H842 0.949 . S
C846 C854 1.574 . S
C846 C862 1.368 . S
H847 C855 0.950 . S
H848 C853 0.950 . S
H849 C854 0.949 . S
H850 C856 0.950 . S
H851 C857 0.950 . S
H852 C858 0.949 . S
C853 H848 0.950 . S
C853 C855 1.327 1_545 S
C853 C859 1.429 . S
C854 C846 1.574 . S
C854 H849 0.949 . S
C854 C860 1.368 . S
C855 C839 1.349 . S
C855 H847 0.950 . S
C855 C853 1.327 1_565 S
C856 C844 1.349 . S
C856 H850 0.950 . S
C856 C857 1.327 . S
C857 H851 0.950 . S
C857 C856 1.327 . S
C857 C861 1.429 . S
C858 C841 1.574 . S
C858 H852 0.949 . S
C858 C862 1.368 . S
C859 C840 1.429 . S
C859 C853 1.429 . S
C859 C860 1.523 . S
C860 C841 1.368 . S
C860 C854 1.368 . S
C860 C859 1.523 . S
C861 C845 1.429 . S
C861 C857 1.429 . S
C861 C862 1.523 . S
C862 C846 1.368 . S
C862 C858 1.368 . S
C862 C861 1.523 . S
H863 C838 0.950 . S
H864 C840 0.950 . S
H865 C841 0.949 . S
H866 C843 0.950 . S
H867 C845 0.950 . S
C868 C869 1.349 . S
C868 C870 1.327 . S
C868 H893 0.950 . S
C869 C868 1.349 . S
C869 C885 1.349 . S
C870 C868 1.327 . S
C870 C889 1.429 . S
C870 H894 0.950 . S
C871 C888 1.574 . S
C871 C890 1.368 . S
C871 H895 0.949 . S
H872 C876 0.949 . S
C873 C874 1.349 . S
C873 C875 1.327 1_545 S
C873 H896 0.950 . S
C874 C873 1.349 . S
C874 C886 1.349 . S
C875 C873 1.327 1_565 S
C875 C891 1.429 . S
C875 H897 0.950 . S
C876 H872 0.949 . S
C876 C884 1.574 . S
C876 C892 1.368 . S
H877 C885 0.950 . S
H878 C883 0.950 . S
H879 C884 0.949 . S
H880 C886 0.950 . S
H881 C887 0.950 . S
H882 C888 0.949 . S
C883 H878 0.950 . S
C883 C885 1.327 . S
C883 C889 1.429 . S
C884 C876 1.574 . S
C884 H879 0.949 . S
C884 C890 1.368 . S
C885 C869 1.349 . S
C885 H877 0.950 . S
C885 C883 1.327 . S
C886 C874 1.349 . S
C886 H880 0.950 . S
C886 C887 1.327 1_545 S
C887 H881 0.950 . S
C887 C886 1.327 1_565 S
C887 C891 1.429 . S
C888 C871 1.574 . S
C888 H882 0.949 . S
C888 C892 1.368 . S
C889 C870 1.429 . S
C889 C883 1.429 . S
C889 C890 1.523 . S
C890 C871 1.368 . S
C890 C884 1.368 . S
C890 C889 1.523 . S
C891 C875 1.429 . S
C891 C887 1.429 . S
C891 C892 1.523 . S
C892 C876 1.368 . S
C892 C888 1.368 . S
C892 C891 1.523 . S
H893 C868 0.950 . S
H894 C870 0.950 . S
H895 C871 0.949 . S
H896 C873 0.950 . S
H897 C875 0.950 . S
C898 C899 1.349 . S
C898 C900 1.327 . S
C898 H923 0.950 . S
C899 C898 1.349 . S
C899 C915 1.349 . S
C900 C898 1.327 . S
C900 C919 1.429 . S
C900 H924 0.950 . S
C901 C918 1.574 . S
C901 C920 1.368 . S
C901 H925 0.949 . S
H902 C906 0.949 . S
C903 C904 1.349 . S
C903 C905 1.327 1_545 S
C903 H926 0.950 . S
C904 C903 1.349 . S
C904 C916 1.349 . S
C905 C903 1.327 1_565 S
C905 C921 1.429 . S
C905 H927 0.950 . S
C906 H902 0.949 . S
C906 C914 1.574 . S
C906 C922 1.368 . S
H907 C915 0.950 . S
H908 C913 0.950 . S
H909 C914 0.949 . S
H910 C916 0.950 . S
H911 C917 0.950 . S
H912 C918 0.949 . S
C913 H908 0.950 . S
C913 C915 1.327 . S
C913 C919 1.429 . S
C914 C906 1.574 . S
C914 H909 0.949 . S
C914 C920 1.368 . S
C915 C899 1.349 . S
C915 H907 0.950 . S
C915 C913 1.327 . S
C916 C904 1.349 . S
C916 H910 0.950 . S
C916 C917 1.327 1_545 S
C917 H911 0.950 . S
C917 C916 1.327 1_565 S
C917 C921 1.429 . S
C918 C901 1.574 . S
C918 H912 0.949 . S
C918 C922 1.368 . S
C919 C900 1.429 . S
C919 C913 1.429 . S
C919 C920 1.523 . S
C920 C901 1.368 . S
C920 C914 1.368 . S
C920 C919 1.523 . S
C921 C905 1.429 . S
C921 C917 1.429 . S
C921 C922 1.523 . S
C922 C906 1.368 . S
C922 C918 1.368 . S
C922 C921 1.523 . S
H923 C898 0.950 . S
H924 C900 0.950 . S
H925 C901 0.949 . S
H926 C903 0.950 . S
H927 C905 0.950 . S
C928 C929 1.349 . S
C928 C930 1.327 . S
C928 H953 0.950 . S
C929 C928 1.349 . S
C929 C945 1.349 . S
C930 C928 1.327 . S
C930 C949 1.429 . S
C930 H954 0.950 . S
C931 C948 1.574 . S
C931 C950 1.368 1_455 S
C931 H955 0.949 . S
H932 C936 0.949 . S
C933 C934 1.349 . S
C933 C935 1.327 . S
C933 H956 0.950 . S
C934 C933 1.349 . S
C934 C946 1.349 . S
C935 C933 1.327 . S
C935 C951 1.429 . S
C935 H957 0.950 . S
C936 H932 0.949 . S
C936 C944 1.574 . S
C936 C952 1.368 1_655 S
H937 C945 0.950 . S
H938 C943 0.950 . S
H939 C944 0.949 . S
H940 C946 0.950 . S
H941 C947 0.950 . S
H942 C948 0.949 . S
C943 H938 0.950 . S
C943 C945 1.327 . S
C943 C949 1.429 . S
C944 C936 1.574 . S
C944 H939 0.949 . S
C944 C950 1.368 1_554 S
C945 C929 1.349 . S
C945 H937 0.950 . S
C945 C943 1.327 . S
C946 C934 1.349 . S
C946 H940 0.950 . S
C946 C947 1.327 . S
C947 H941 0.950 . S
C947 C946 1.327 . S
C947 C951 1.429 . S
C948 C931 1.574 . S
C948 H942 0.949 . S
C948 C952 1.368 1_556 S
C949 C930 1.429 . S
C949 C943 1.429 . S
C949 C950 1.523 . S
C950 C931 1.368 1_655 S
C950 C944 1.368 1_556 S
C950 C949 1.523 . S
C951 C935 1.429 . S
C951 C947 1.429 . S
C951 C952 1.523 . S
C952 C936 1.368 1_455 S
C952 C948 1.368 1_554 S
C952 C951 1.523 . S
H953 C928 0.950 . S
H954 C930 0.950 . S
H955 C931 0.949 . S
H956 C933 0.950 . S
H957 C935 0.950 . S
C958 C959 1.349 . S
C958 C960 1.327 . S
C958 H983 0.950 . S
C959 C958 1.349 . S
C959 C975 1.349 . S
C960 C958 1.327 . S
C960 C979 1.429 . S
C960 H984 0.950 . S
C961 C978 1.574 . S
C961 C980 1.368 . S
C961 H985 0.949 . S
H962 C966 0.949 . S
C963 C964 1.349 . S
C963 C965 1.327 . S
C963 H986 0.950 . S
C964 C963 1.349 . S
C964 C976 1.349 . S
C965 C963 1.327 . S
C965 C981 1.429 . S
C965 H987 0.950 . S
C966 H962 0.949 . S
C966 C974 1.574 . S
C966 C982 1.368 . S
H967 C975 0.950 . S
H968 C973 0.950 . S
H969 C974 0.949 . S
H970 C976 0.950 . S
H971 C977 0.950 . S
H972 C978 0.949 . S
C973 H968 0.950 . S
C973 C975 1.327 . S
C973 C979 1.429 . S
C974 C966 1.574 . S
C974 H969 0.949 . S
C974 C980 1.368 1_554 S
C975 C959 1.349 . S
C975 H967 0.950 . S
C975 C973 1.327 . S
C976 C964 1.349 . S
C976 H970 0.950 . S
C976 C977 1.327 . S
C977 H971 0.950 . S
C977 C976 1.327 . S
C977 C981 1.429 . S
C978 C961 1.574 . S
C978 H972 0.949 . S
C978 C982 1.368 1_556 S
C979 C960 1.429 . S
C979 C973 1.429 . S
C979 C980 1.523 . S
C980 C961 1.368 . S
C980 C974 1.368 1_556 S
C980 C979 1.523 . S
C981 C965 1.429 . S
C981 C977 1.429 . S
C981 C982 1.523 . S
C982 C966 1.368 . S
C982 C978 1.368 1_554 S
C982 C981 1.523 . S
H983 C958 0.950 . S
H984 C960 0.950 . S
H985 C961 0.949 . S
H986 C963 0.950 . S
H987 C965 0.950 . S
C988 C989 1.349 . S
C988 C990 1.327 . S
C988 H1013 0.950 . S
C989 C988 1.349 . S
C989 C1005 1.349 . S
C990 C988 1.327 . S
C990 C1009 1.429 . S
C990 H1014 0.854 1_455 S
C991 C1008 1.574 . S
C991 C1010 1.368 . S
C991 H1015 0.949 . S
H992 C996 0.949 . S
C993 C994 1.349 . S
C993 C995 1.327 . S
C993 H1016 0.950 . S
C994 C993 1.349 . S
C994 C1006 1.349 . S
C995 C993 1.327 . S
C995 C1011 1.429 . S
C995 H1017 0.854 1_655 S
C996 H992 0.949 . S
C996 C1004 1.574 . S
C996 C1012 1.368 . S
H997 C1005 0.950 . S
H998 C1003 0.950 . S
H999 C1004 0.949 . S
H1000 C1006 0.950 . S
H1001 C1007 0.950 . S
H1002 C1008 0.949 . S
C1003 H998 0.950 . S
C1003 C1005 1.327 . S
C1003 C1009 1.429 . S
C1004 C996 1.574 . S
C1004 H999 0.949 . S
C1004 C1010 1.368 1_655 S
C1005 C989 1.349 . S
C1005 H997 0.950 . S
C1005 C1003 1.327 . S
C1006 C994 1.349 . S
C1006 H1000 0.950 . S
C1006 C1007 1.327 . S
C1007 H1001 0.950 . S
C1007 C1006 1.327 . S
C1007 C1011 1.429 . S
C1008 C991 1.574 . S
C1008 H1002 0.949 . S
C1008 C1012 1.368 1_455 S
C1009 C990 1.429 . S
C1009 C1003 1.429 . S
C1009 C1010 1.523 . S
C1010 C991 1.368 . S
C1010 C1004 1.368 1_455 S
C1010 C1009 1.523 . S
C1011 C995 1.429 . S
C1011 C1007 1.429 . S
C1011 C1012 1.523 . S
C1012 C996 1.368 . S
C1012 C1008 1.368 1_655 S
C1012 C1011 1.523 . S
H1013 C988 0.950 . S
H1014 C990 0.854 1_655 S
H1015 C991 0.949 . S
H1016 C993 0.950 . S
H1017 C995 0.854 1_455 S
C1018 C1019 1.349 . S
C1018 C1020 1.327 . S
C1018 H1043 0.950 . S
C1019 C1018 1.349 . S
C1019 C1035 1.349 . S
C1020 C1018 1.327 . S
C1020 C1039 1.429 . S
C1020 H1044 0.950 . S
C1021 C1038 1.574 . S
C1021 C1040 1.368 . S
C1021 H1045 0.949 . S
H1022 C1026 0.949 . S
C1023 C1024 1.349 . S
C1023 C1025 1.327 . S
C1023 H1046 0.950 . S
C1024 C1023 1.349 . S
C1024 C1036 1.349 . S
C1025 C1023 1.327 . S
C1025 C1041 1.429 . S
C1025 H1047 0.950 . S
C1026 H1022 0.949 . S
C1026 C1034 1.574 . S
C1026 C1042 1.368 . S
H1027 C1035 0.950 . S
H1028 C1033 0.950 . S
H1029 C1034 0.949 . S
H1030 C1036 0.950 . S
H1031 C1037 0.950 . S
H1032 C1038 0.949 . S
C1033 H1028 0.950 . S
C1033 C1035 1.327 . S
C1033 C1039 1.429 . S
C1034 C1026 1.574 . S
C1034 H1029 0.949 . S
C1034 C1040 1.368 . S
C1035 C1019 1.349 . S
C1035 H1027 0.950 . S
C1035 C1033 1.327 . S
C1036 C1024 1.349 . S
C1036 H1030 0.950 . S
C1036 C1037 1.327 . S
C1037 H1031 0.950 . S
C1037 C1036 1.327 . S
C1037 C1041 1.429 . S
C1038 C1021 1.574 . S
C1038 H1032 0.949 . S
C1038 C1042 1.368 . S
C1039 C1020 1.429 . S
C1039 C1033 1.429 . S
C1039 C1040 1.523 . S
C1040 C1021 1.368 . S
C1040 C1034 1.368 . S
C1040 C1039 1.523 . S
C1041 C1025 1.429 . S
C1041 C1037 1.429 . S
C1041 C1042 1.523 . S
C1042 C1026 1.368 . S
C1042 C1038 1.368 . S
C1042 C1041 1.523 . S
H1043 C1018 0.950 . S
H1044 C1020 0.950 . S
H1045 C1021 0.949 . S
H1046 C1023 0.950 . S
H1047 C1025 0.950 . S
C1048 C1049 1.349 . S
C1048 C1050 1.327 . S
C1048 H1073 0.950 . S
C1049 C1048 1.349 . S
C1049 C1065 1.349 . S
C1050 C1048 1.327 . S
C1050 C1069 1.429 . S
C1050 H1074 0.950 . S
C1051 C1068 1.574 . S
C1051 C1070 1.368 . S
C1051 H1075 0.949 . S
H1052 C1056 0.949 . S
C1053 C1054 1.349 . S
C1053 C1055 1.327 . S
C1053 H1076 0.950 . S
C1054 C1053 1.349 . S
C1054 C1066 1.349 . S
C1055 C1053 1.327 . S
C1055 C1071 1.429 . S
C1055 H1077 0.950 . S
C1056 H1052 0.949 . S
C1056 C1064 1.574 . S
C1056 C1072 1.368 . S
H1057 C1065 0.950 . S
H1058 C1063 0.950 . S
H1059 C1064 0.949 . S
H1060 C1066 0.950 . S
H1061 C1067 0.950 . S
H1062 C1068 0.949 . S
C1063 H1058 0.950 . S
C1063 C1065 1.327 . S
C1063 C1069 1.429 . S
C1064 C1056 1.574 . S
C1064 H1059 0.949 . S
C1064 C1070 1.368 1_554 S
C1065 C1049 1.349 . S
C1065 H1057 0.950 . S
C1065 C1063 1.327 . S
C1066 C1054 1.349 . S
C1066 H1060 0.950 . S
C1066 C1067 1.327 . S
C1067 H1061 0.950 . S
C1067 C1066 1.327 . S
C1067 C1071 1.429 . S
C1068 C1051 1.574 . S
C1068 H1062 0.949 . S
C1068 C1072 1.368 1_556 S
C1069 C1050 1.429 . S
C1069 C1063 1.429 . S
C1069 C1070 1.523 . S
C1070 C1051 1.368 . S
C1070 C1064 1.368 1_556 S
C1070 C1069 1.523 . S
C1071 C1055 1.429 . S
C1071 C1067 1.429 . S
C1071 C1072 1.523 . S
C1072 C1056 1.368 . S
C1072 C1068 1.368 1_554 S
C1072 C1071 1.523 . S
H1073 C1048 0.950 . S
H1074 C1050 0.950 . S
H1075 C1051 0.949 . S
H1076 C1053 0.950 . S
H1077 C1055 0.950 . S
C1078 C1079 1.349 . S
C1078 C1080 1.327 . S
C1078 H1103 0.950 . S
C1079 C1078 1.349 . S
C1079 C1095 1.349 . S
C1080 C1078 1.327 . S
C1080 C1099 1.429 . S
C1080 H1104 0.950 . S
C1081 C1098 1.574 . S
C1081 C1100 1.368 . S
C1081 H1105 0.949 . S
H1082 C1086 0.949 . S
C1083 C1084 1.349 . S
C1083 C1085 1.327 . S
C1083 H1106 0.950 . S
C1084 C1083 1.349 . S
C1084 C1096 1.349 . S
C1085 C1083 1.327 . S
C1085 C1101 1.429 . S
C1085 H1107 0.950 . S
C1086 H1082 0.949 . S
C1086 C1094 1.574 . S
C1086 C1102 1.368 . S
H1087 C1095 0.950 . S
H1088 C1093 0.950 . S
H1089 C1094 0.949 . S
H1090 C1096 0.950 . S
H1091 C1097 0.950 . S
H1092 C1098 0.949 . S
C1093 H1088 0.950 . S
C1093 C1095 1.327 . S
C1093 C1099 1.429 . S
C1094 C1086 1.574 . S
C1094 H1089 0.949 . S
C1094 C1100 1.368 1_455 S
C1095 C1079 1.349 . S
C1095 H1087 0.950 . S
C1095 C1093 1.327 . S
C1096 C1084 1.349 . S
C1096 H1090 0.950 . S
C1096 C1097 1.327 . S
C1097 H1091 0.950 . S
C1097 C1096 1.327 . S
C1097 C1101 1.429 . S
C1098 C1081 1.574 . S
C1098 H1092 0.949 . S
C1098 C1102 1.368 1_655 S
C1099 C1080 1.429 . S
C1099 C1093 1.429 . S
C1099 C1100 1.523 . S
C1100 C1081 1.368 . S
C1100 C1094 1.368 1_655 S
C1100 C1099 1.523 . S
C1101 C1085 1.429 . S
C1101 C1097 1.429 . S
C1101 C1102 1.523 . S
C1102 C1086 1.368 . S
C1102 C1098 1.368 1_455 S
C1102 C1101 1.523 . S
H1103 C1078 0.950 . S
H1104 C1080 0.950 . S
H1105 C1081 0.949 . S
H1106 C1083 0.950 . S
H1107 C1085 0.950 . S
C1108 C1109 1.349 . S
C1108 C1110 1.327 . S
C1108 H1133 0.950 . S
C1109 C1108 1.349 . S
C1109 C1125 1.349 . S
C1110 C1108 1.327 . S
C1110 C1129 1.429 . S
C1110 H1134 0.950 . S
C1111 C1128 1.574 . S
C1111 C1130 1.368 . S
C1111 H1135 0.949 . S
H1112 C1116 0.949 . S
C1113 C1114 1.349 . S
C1113 C1115 1.327 . S
C1113 H1136 0.950 . S
C1114 C1113 1.349 . S
C1114 C1126 1.349 . S
C1115 C1113 1.327 . S
C1115 C1131 1.429 . S
C1115 H1137 0.950 . S
C1116 H1112 0.949 . S
C1116 C1124 1.574 . S
C1116 C1132 1.368 . S
H1117 C1125 0.950 . S
H1118 C1123 0.950 . S
H1119 C1124 0.949 . S
H1120 C1126 0.950 . S
H1121 C1127 0.950 . S
H1122 C1128 0.949 . S
C1123 H1118 0.950 . S
C1123 C1125 1.327 . S
C1123 C1129 1.429 . S
C1124 C1116 1.574 . S
C1124 H1119 0.949 . S
C1124 C1130 1.368 . S
C1125 C1109 1.349 . S
C1125 H1117 0.950 . S
C1125 C1123 1.327 . S
C1126 C1114 1.349 . S
C1126 H1120 0.950 . S
C1126 C1127 1.327 . S
C1127 H1121 0.950 . S
C1127 C1126 1.327 . S
C1127 C1131 1.429 . S
C1128 C1111 1.574 . S
C1128 H1122 0.949 . S
C1128 C1132 1.368 . S
C1129 C1110 1.429 . S
C1129 C1123 1.429 . S
C1129 C1130 1.523 . S
C1130 C1111 1.368 . S
C1130 C1124 1.368 . S
C1130 C1129 1.523 . S
C1131 C1115 1.429 . S
C1131 C1127 1.429 . S
C1131 C1132 1.523 . S
C1132 C1116 1.368 . S
C1132 C1128 1.368 . S
C1132 C1131 1.523 . S
H1133 C1108 0.950 . S
H1134 C1110 0.950 . S
H1135 C1111 0.949 . S
H1136 C1113 0.950 . S
H1137 C1115 0.950 . S
C1138 C1139 1.349 . S
C1138 C1140 1.327 . S
C1138 H1163 0.950 . S
C1139 C1138 1.349 . S
C1139 C1155 1.349 . S
C1140 C1138 1.327 . S
C1140 C1159 1.429 . S
C1140 H1164 0.950 . S
C1141 C1158 1.574 . S
C1141 C1160 1.368 1_465 S
C1141 H1165 0.949 . S
H1142 C1146 0.949 . S
C1143 C1144 1.349 . S
C1143 C1145 1.327 . S
C1143 H1166 0.950 . S
C1144 C1143 1.349 . S
C1144 C1156 1.349 . S
C1145 C1143 1.327 . S
C1145 C1161 1.429 . S
C1145 H1167 0.950 . S
C1146 H1142 0.949 . S
C1146 C1154 1.574 . S
C1146 C1162 1.368 1_645 S
H1147 C1155 0.950 . S
H1148 C1153 0.950 . S
H1149 C1154 0.949 . S
H1150 C1156 0.950 . S
H1151 C1157 0.950 . S
H1152 C1158 0.949 . S
C1153 H1148 0.950 . S
C1153 C1155 1.327 . S
C1153 C1159 1.429 . S
C1154 C1146 1.574 . S
C1154 H1149 0.949 . S
C1154 C1160 1.368 . S
C1155 C1139 1.349 . S
C1155 H1147 0.950 . S
C1155 C1153 1.327 . S
C1156 C1144 1.349 . S
C1156 H1150 0.950 . S
C1156 C1157 1.327 . S
C1157 H1151 0.950 . S
C1157 C1156 1.327 . S
C1157 C1161 1.429 . S
C1158 C1141 1.574 . S
C1158 H1152 0.949 . S
C1158 C1162 1.368 . S
C1159 C1140 1.429 . S
C1159 C1153 1.429 . S
C1159 C1160 1.523 . S
C1160 C1141 1.368 1_645 S
C1160 C1154 1.368 . S
C1160 C1159 1.523 . S
C1161 C1145 1.429 . S
C1161 C1157 1.429 . S
C1161 C1162 1.523 . S
C1162 C1146 1.368 1_465 S
C1162 C1158 1.368 . S
C1162 C1161 1.523 . S
H1163 C1138 0.950 . S
H1164 C1140 0.950 . S
H1165 C1141 0.949 . S
H1166 C1143 0.950 . S
H1167 C1145 0.950 . S
C1168 C1169 1.349 . S
C1168 C1170 1.327 . S
C1168 H1193 0.950 . S
C1169 C1168 1.349 . S
C1169 C1185 1.349 . S
C1170 C1168 1.327 . S
C1170 C1189 1.429 . S
C1170 H1194 0.950 . S
C1171 C1188 1.574 . S
C1171 C1190 1.368 . S
C1171 H1195 0.949 . S
H1172 C1176 0.949 . S
C1173 C1174 1.349 . S
C1173 C1175 1.327 . S
C1173 H1196 0.950 . S
C1174 C1173 1.349 . S
C1174 C1186 1.349 . S
C1175 C1173 1.327 . S
C1175 C1191 1.429 . S
C1175 H1197 0.950 . S
C1176 H1172 0.949 . S
C1176 C1184 1.574 . S
C1176 C1192 1.368 . S
H1177 C1185 0.950 . S
H1178 C1183 0.950 . S
H1179 C1184 0.949 . S
H1180 C1186 0.950 . S
H1181 C1187 0.950 . S
H1182 C1188 0.949 . S
C1183 H1178 0.950 . S
C1183 C1185 1.327 . S
C1183 C1189 1.429 . S
C1184 C1176 1.574 . S
C1184 H1179 0.949 . S
C1184 C1190 1.368 . S
C1185 C1169 1.349 . S
C1185 H1177 0.950 . S
C1185 C1183 1.327 . S
C1186 C1174 1.349 . S
C1186 H1180 0.950 . S
C1186 C1187 1.327 . S
C1187 H1181 0.950 . S
C1187 C1186 1.327 . S
C1187 C1191 1.429 . S
C1188 C1171 1.574 . S
C1188 H1182 0.949 . S
C1188 C1192 1.368 . S
C1189 C1170 1.429 . S
C1189 C1183 1.429 . S
C1189 C1190 1.523 . S
C1190 C1171 1.368 . S
C1190 C1184 1.368 . S
C1190 C1189 1.523 . S
C1191 C1175 1.429 . S
C1191 C1187 1.429 . S
C1191 C1192 1.523 . S
C1192 C1176 1.368 . S
C1192 C1188 1.368 . S
C1192 C1191 1.523 . S
H1193 C1168 0.950 . S
H1194 C1170 0.950 . S
H1195 C1171 0.949 . S
H1196 C1173 0.950 . S
H1197 C1175 0.950 . S
C1198 C1199 1.349 . S
C1198 C1200 1.327 . S
C1198 H1223 0.950 . S
C1199 C1198 1.349 . S
C1199 C1215 1.349 . S
C1200 C1198 1.327 . S
C1200 C1219 1.429 . S
C1200 H1224 0.950 . S
C1201 C1218 1.574 . S
C1201 C1220 1.368 1_545 S
C1201 H1225 0.949 . S
H1202 C1206 0.949 . S
C1203 C1204 1.349 . S
C1203 C1205 1.327 . S
C1203 H1226 0.950 . S
C1204 C1203 1.349 . S
C1204 C1216 1.349 . S
C1205 C1203 1.327 . S
C1205 C1221 1.429 . S
C1205 H1227 0.950 . S
C1206 H1202 0.949 . S
C1206 C1214 1.574 . S
C1206 C1222 1.368 1_565 S
H1207 C1215 0.950 . S
H1208 C1213 0.950 1_545 S
H1209 C1214 0.949 . S
H1210 C1216 0.950 . S
H1211 C1217 0.950 1_565 S
H1212 C1218 0.949 . S
C1213 H1208 0.950 1_565 S
C1213 C1215 1.327 . S
C1213 C1219 1.429 . S
C1214 C1206 1.574 . S
C1214 H1209 0.949 . S
C1214 C1220 1.368 . S
C1215 C1199 1.349 . S
C1215 H1207 0.950 . S
C1215 C1213 1.327 . S
C1216 C1204 1.349 . S
C1216 H1210 0.950 . S
C1216 C1217 1.327 . S
C1217 H1211 0.950 1_545 S
C1217 C1216 1.327 . S
C1217 C1221 1.429 . S
C1218 C1201 1.574 . S
C1218 H1212 0.949 . S
C1218 C1222 1.368 . S
C1219 C1200 1.429 . S
C1219 C1213 1.429 . S
C1219 C1220 1.523 . S
C1220 C1201 1.368 1_565 S
C1220 C1214 1.368 . S
C1220 C1219 1.523 . S
C1221 C1205 1.429 . S
C1221 C1217 1.429 . S
C1221 C1222 1.523 . S
C1222 C1206 1.368 1_545 S
C1222 C1218 1.368 . S
C1222 C1221 1.523 . S
H1223 C1198 0.950 . S
H1224 C1200 0.950 . S
H1225 C1201 0.949 . S
H1226 C1203 0.950 . S
H1227 C1205 0.950 . S
C1228 C1229 1.349 . S
C1228 C1230 1.327 . S
C1228 H1253 0.950 . S
C1229 C1228 1.349 . S
C1229 C1245 1.349 . S
C1230 C1228 1.327 . S
C1230 C1249 1.429 . S
C1230 H1254 0.950 . S
C1231 C1248 1.574 . S
C1231 C1250 1.368 . S
C1231 H1255 0.949 . S
H1232 C1236 0.949 . S
C1233 C1234 1.349 . S
C1233 C1235 1.327 . S
C1233 H1256 0.950 . S
C1234 C1233 1.349 . S
C1234 C1246 1.349 . S
C1235 C1233 1.327 . S
C1235 C1251 1.429 . S
C1235 H1257 0.950 . S
C1236 H1232 0.949 . S
C1236 C1244 1.574 . S
C1236 C1252 1.368 . S
H1237 C1245 0.950 . S
H1238 C1243 0.950 . S
H1239 C1244 0.949 . S
H1240 C1246 0.950 . S
H1241 C1247 0.950 . S
H1242 C1248 0.949 . S
C1243 H1238 0.950 . S
C1243 C1245 1.327 . S
C1243 C1249 1.429 . S
C1244 C1236 1.574 . S
C1244 H1239 0.949 . S
C1244 C1250 1.368 . S
C1245 C1229 1.349 . S
C1245 H1237 0.950 . S
C1245 C1243 1.327 . S
C1246 C1234 1.349 . S
C1246 H1240 0.950 . S
C1246 C1247 1.327 . S
C1247 H1241 0.950 . S
C1247 C1246 1.327 . S
C1247 C1251 1.429 . S
C1248 C1231 1.574 . S
C1248 H1242 0.949 . S
C1248 C1252 1.368 . S
C1249 C1230 1.429 . S
C1249 C1243 1.429 . S
C1249 C1250 1.523 . S
C1250 C1231 1.368 . S
C1250 C1244 1.368 . S
C1250 C1249 1.523 . S
C1251 C1235 1.429 . S
C1251 C1247 1.429 . S
C1251 C1252 1.523 . S
C1252 C1236 1.368 . S
C1252 C1248 1.368 . S
C1252 C1251 1.523 . S
H1253 C1228 0.950 . S
H1254 C1230 0.950 . S
H1255 C1231 0.949 . S
H1256 C1233 0.950 . S
H1257 C1235 0.950 . S
C1258 C1259 1.349 . S
C1258 C1260 1.327 . S
C1258 H1283 0.950 . S
C1259 C1258 1.349 . S
C1259 C1275 1.349 . S
C1260 C1258 1.327 . S
C1260 C1279 1.429 . S
C1260 H1284 0.950 . S
C1261 C1278 1.574 . S
C1261 C1280 1.368 1_545 S
C1261 H1285 0.949 . S
H1262 C1266 0.949 . S
C1263 C1264 1.349 . S
C1263 C1265 1.327 . S
C1263 H1286 0.950 . S
C1264 C1263 1.349 . S
C1264 C1276 1.349 . S
C1265 C1263 1.327 . S
C1265 C1281 1.429 . S
C1265 H1287 0.950 . S
C1266 H1262 0.949 . S
C1266 C1274 1.574 . S
C1266 C1282 1.368 1_565 S
H1267 C1275 0.950 . S
H1268 C1273 0.950 1_545 S
H1269 C1274 0.949 . S
H1270 C1276 0.950 . S
H1271 C1277 0.950 1_565 S
H1272 C1278 0.949 . S
C1273 H1268 0.950 1_565 S
C1273 C1275 1.327 . S
C1273 C1279 1.429 . S
C1274 C1266 1.574 . S
C1274 H1269 0.949 . S
C1274 C1280 1.368 . S
C1275 C1259 1.349 . S
C1275 H1267 0.950 . S
C1275 C1273 1.327 . S
C1276 C1264 1.349 . S
C1276 H1270 0.950 . S
C1276 C1277 1.327 . S
C1277 H1271 0.950 1_545 S
C1277 C1276 1.327 . S
C1277 C1281 1.429 . S
C1278 C1261 1.574 . S
C1278 H1272 0.949 . S
C1278 C1282 1.368 . S
C1279 C1260 1.429 . S
C1279 C1273 1.429 . S
C1279 C1280 1.523 . S
C1280 C1261 1.368 1_565 S
C1280 C1274 1.368 . S
C1280 C1279 1.523 . S
C1281 C1265 1.429 . S
C1281 C1277 1.429 . S
C1281 C1282 1.523 . S
C1282 C1266 1.368 1_545 S
C1282 C1278 1.368 . S
C1282 C1281 1.523 . S
H1283 C1258 0.950 . S
H1284 C1260 0.950 . S
H1285 C1261 0.949 . S
H1286 C1263 0.950 . S
H1287 C1265 0.950 . S
C1288 C1289 1.349 . S
C1288 C1290 1.327 . S
C1288 H1313 0.950 . S
C1289 C1288 1.349 . S
C1289 C1305 1.349 . S
C1290 C1288 1.327 . S
C1290 C1309 1.429 . S
C1290 H1314 0.950 . S
C1291 C1308 1.574 . S
C1291 C1310 1.368 . S
C1291 H1315 0.949 . S
H1292 C1296 0.949 . S
C1293 C1294 1.349 . S
C1293 C1295 1.327 . S
C1293 H1316 0.950 . S
C1294 C1293 1.349 . S
C1294 C1306 1.349 . S
C1295 C1293 1.327 . S
C1295 C1311 1.429 . S
C1295 H1317 0.950 . S
C1296 H1292 0.949 . S
C1296 C1304 1.574 . S
C1296 C1312 1.368 . S
H1297 C1305 0.950 . S
H1298 C1303 0.950 . S
H1299 C1304 0.949 . S
H1300 C1306 0.950 . S
H1301 C1307 0.950 . S
H1302 C1308 0.949 . S
C1303 H1298 0.950 . S
C1303 C1305 1.327 . S
C1303 C1309 1.429 . S
C1304 C1296 1.574 . S
C1304 H1299 0.949 . S
C1304 C1310 1.368 . S
C1305 C1289 1.349 . S
C1305 H1297 0.950 . S
C1305 C1303 1.327 . S
C1306 C1294 1.349 . S
C1306 H1300 0.950 . S
C1306 C1307 1.327 . S
C1307 H1301 0.950 . S
C1307 C1306 1.327 . S
C1307 C1311 1.429 . S
C1308 C1291 1.574 . S
C1308 H1302 0.949 . S
C1308 C1312 1.368 . S
C1309 C1290 1.429 . S
C1309 C1303 1.429 . S
C1309 C1310 1.523 . S
C1310 C1291 1.368 . S
C1310 C1304 1.368 . S
C1310 C1309 1.523 . S
C1311 C1295 1.429 . S
C1311 C1307 1.429 . S
C1311 C1312 1.523 . S
C1312 C1296 1.368 . S
C1312 C1308 1.368 . S
C1312 C1311 1.523 . S
H1313 C1288 0.950 . S
H1314 C1290 0.950 . S
H1315 C1291 0.949 . S
H1316 C1293 0.950 . S
H1317 C1295 0.950 . S
C1318 C1319 1.349 . S
C1318 C1320 1.327 . S
C1318 H1343 0.950 . S
C1319 C1318 1.349 . S
C1319 C1335 1.349 . S
C1320 C1318 1.327 . S
C1320 C1339 1.429 . S
C1320 H1344 0.950 . S
C1321 C1338 1.574 . S
C1321 C1340 1.368 . S
C1321 H1345 0.949 . S
H1322 C1326 0.949 . S
C1323 C1324 1.349 . S
C1323 C1325 1.327 . S
C1323 H1346 0.950 . S
C1324 C1323 1.349 . S
C1324 C1336 1.349 . S
C1325 C1323 1.327 . S
C1325 C1341 1.429 . S
C1325 H1347 0.950 . S
C1326 H1322 0.949 . S
C1326 C1334 1.574 . S
C1326 C1342 1.368 . S
H1327 C1335 0.950 . S
H1328 C1333 0.950 . S
H1329 C1334 0.949 . S
H1330 C1336 0.950 . S
H1331 C1337 0.950 . S
H1332 C1338 0.949 . S
C1333 H1328 0.950 . S
C1333 C1335 1.327 . S
C1333 C1339 1.429 . S
C1334 C1326 1.574 . S
C1334 H1329 0.949 . S
C1334 C1340 1.368 . S
C1335 C1319 1.349 . S
C1335 H1327 0.950 . S
C1335 C1333 1.327 . S
C1336 C1324 1.349 . S
C1336 H1330 0.950 . S
C1336 C1337 1.327 . S
C1337 H1331 0.950 . S
C1337 C1336 1.327 . S
C1337 C1341 1.429 . S
C1338 C1321 1.574 . S
C1338 H1332 0.949 . S
C1338 C1342 1.368 . S
C1339 C1320 1.429 . S
C1339 C1333 1.429 . S
C1339 C1340 1.523 . S
C1340 C1321 1.368 . S
C1340 C1334 1.368 . S
C1340 C1339 1.523 . S
C1341 C1325 1.429 . S
C1341 C1337 1.429 . S
C1341 C1342 1.523 . S
C1342 C1326 1.368 . S
C1342 C1338 1.368 . S
C1342 C1341 1.523 . S
H1343 C1318 0.950 . S
H1344 C1320 0.950 . S
H1345 C1321 0.949 . S
H1346 C1323 0.950 . S
H1347 C1325 0.950 . S
C1348 C1349 1.349 . S
C1348 C1350 1.327 . S
C1348 H1373 0.950 . S
C1349 C1348 1.349 . S
C1349 C1365 1.349 . S
C1350 C1348 1.327 . S
C1350 C1369 1.429 . S
C1350 H1374 0.950 . S
C1351 C1368 1.574 . S
C1351 C1370 1.368 . S
C1351 H1375 0.949 . S
H1352 C1356 0.949 . S
C1353 C1354 1.349 . S
C1353 C1355 1.327 . S
C1353 H1376 0.950 . S
C1354 C1353 1.349 . S
C1354 C1366 1.349 . S
C1355 C1353 1.327 . S
C1355 C1371 1.429 . S
C1355 H1377 0.950 . S
C1356 H1352 0.949 . S
C1356 C1364 1.574 . S
C1356 C1372 1.368 . S
H1357 C1365 0.950 . S
H1358 C1363 0.950 . S
H1359 C1364 0.949 . S
H1360 C1366 0.950 . S
H1361 C1367 0.950 . S
H1362 C1368 0.949 . S
C1363 H1358 0.950 . S
C1363 C1365 1.327 . S
C1363 C1369 1.429 . S
C1364 C1356 1.574 . S
C1364 H1359 0.949 . S
C1364 C1370 1.368 . S
C1365 C1349 1.349 . S
C1365 H1357 0.950 . S
C1365 C1363 1.327 . S
C1366 C1354 1.349 . S
C1366 H1360 0.950 . S
C1366 C1367 1.327 . S
C1367 H1361 0.950 . S
C1367 C1366 1.327 . S
C1367 C1371 1.429 . S
C1368 C1351 1.574 . S
C1368 H1362 0.949 . S
C1368 C1372 1.368 . S
C1369 C1350 1.429 . S
C1369 C1363 1.429 . S
C1369 C1370 1.523 . S
C1370 C1351 1.368 . S
C1370 C1364 1.368 . S
C1370 C1369 1.523 . S
C1371 C1355 1.429 . S
C1371 C1367 1.429 . S
C1371 C1372 1.523 . S
C1372 C1356 1.368 . S
C1372 C1368 1.368 . S
C1372 C1371 1.523 . S
H1373 C1348 0.950 . S
H1374 C1350 0.950 . S
H1375 C1351 0.949 . S
H1376 C1353 0.950 . S
H1377 C1355 0.950 . S
C1378 C1379 1.349 . S
C1378 C1380 1.327 . S
C1378 H1403 0.950 . S
C1379 C1378 1.349 . S
C1379 C1395 1.349 . S
C1380 C1378 1.327 . S
C1380 C1399 1.429 . S
C1380 H1404 0.950 . S
C1381 C1398 1.574 . S
C1381 C1400 1.368 1_565 S
C1381 H1405 0.949 . S
H1382 C1386 0.949 . S
C1383 C1384 1.349 . S
C1383 C1385 1.327 . S
C1383 H1406 0.950 . S
C1384 C1383 1.349 . S
C1384 C1396 1.349 . S
C1385 C1383 1.327 . S
C1385 C1401 1.429 . S
C1385 H1407 0.950 . S
C1386 H1382 0.949 . S
C1386 C1394 1.574 . S
C1386 C1402 1.368 1_545 S
H1387 C1395 0.950 . S
H1388 C1393 0.930 1_565 S
H1389 C1394 0.949 . S
H1390 C1396 0.950 . S
H1391 C1397 0.930 1_545 S
H1392 C1398 0.949 . S
C1393 H1388 0.930 1_545 S
C1393 C1395 1.327 . S
C1393 C1399 1.429 . S
C1394 C1386 1.574 . S
C1394 H1389 0.949 . S
C1394 C1400 1.368 1_554 S
C1395 C1379 1.349 . S
C1395 H1387 0.950 . S
C1395 C1393 1.327 . S
C1396 C1384 1.349 . S
C1396 H1390 0.950 . S
C1396 C1397 1.327 . S
C1397 H1391 0.930 1_565 S
C1397 C1396 1.327 . S
C1397 C1401 1.429 . S
C1398 C1381 1.574 . S
C1398 H1392 0.949 . S
C1398 C1402 1.368 1_556 S
C1399 C1380 1.429 . S
C1399 C1393 1.429 . S
C1399 C1400 1.523 . S
C1400 C1381 1.368 1_545 S
C1400 C1394 1.368 1_556 S
C1400 C1399 1.523 . S
C1401 C1385 1.429 . S
C1401 C1397 1.429 . S
C1401 C1402 1.523 . S
C1402 C1386 1.368 1_565 S
C1402 C1398 1.368 1_554 S
C1402 C1401 1.523 . S
H1403 C1378 0.950 . S
H1404 C1380 0.950 . S
H1405 C1381 0.949 . S
H1406 C1383 0.950 . S
H1407 C1385 0.950 . S
C1408 C1409 1.349 . S
C1408 C1410 1.327 . S
C1408 H1433 0.950 . S
C1409 C1408 1.349 . S
C1409 C1425 1.349 . S
C1410 C1408 1.327 . S
C1410 C1429 1.429 . S
C1410 H1434 0.950 . S
C1411 C1428 1.574 . S
C1411 C1430 1.368 . S
C1411 H1435 0.949 . S
H1412 C1416 0.949 . S
C1413 C1414 1.349 . S
C1413 C1415 1.327 . S
C1413 H1436 0.950 . S
C1414 C1413 1.349 . S
C1414 C1426 1.349 . S
C1415 C1413 1.327 . S
C1415 C1431 1.429 . S
C1415 H1437 0.950 . S
C1416 H1412 0.949 . S
C1416 C1424 1.574 . S
C1416 C1432 1.368 . S
H1417 C1425 0.950 . S
H1418 C1423 0.950 . S
H1419 C1424 0.949 . S
H1420 C1426 0.950 . S
H1421 C1427 0.950 . S
H1422 C1428 0.949 . S
C1423 H1418 0.950 . S
C1423 C1425 1.327 . S
C1423 C1429 1.429 . S
C1424 C1416 1.574 . S
C1424 H1419 0.949 . S
C1424 C1430 1.368 . S
C1425 C1409 1.349 . S
C1425 H1417 0.950 . S
C1425 C1423 1.327 . S
C1426 C1414 1.349 . S
C1426 H1420 0.950 . S
C1426 C1427 1.327 . S
C1427 H1421 0.950 . S
C1427 C1426 1.327 . S
C1427 C1431 1.429 . S
C1428 C1411 1.574 . S
C1428 H1422 0.949 . S
C1428 C1432 1.368 . S
C1429 C1410 1.429 . S
C1429 C1423 1.429 . S
C1429 C1430 1.523 . S
C1430 C1411 1.368 . S
C1430 C1424 1.368 . S
C1430 C1429 1.523 . S
C1431 C1415 1.429 . S
C1431 C1427 1.429 . S
C1431 C1432 1.523 . S
C1432 C1416 1.368 . S
C1432 C1428 1.368 . S
C1432 C1431 1.523 . S
H1433 C1408 0.950 . S
H1434 C1410 0.950 . S
H1435 C1411 0.949 . S
H1436 C1413 0.950 . S
H1437 C1415 0.950 . S
C1438 C1439 1.349 . S
C1438 C1440 1.327 . S
C1438 H1463 0.950 . S
C1439 C1438 1.349 . S
C1439 C1455 1.349 . S
C1440 C1438 1.327 . S
C1440 C1459 1.429 . S
C1440 H1464 0.950 . S
C1441 C1458 1.574 . S
C1441 C1460 1.368 . S
C1441 H1465 0.949 . S
H1442 C1446 0.949 . S
C1443 C1444 1.349 . S
C1443 C1445 1.327 . S
C1443 H1466 0.950 . S
C1444 C1443 1.349 . S
C1444 C1456 1.349 . S
C1445 C1443 1.327 . S
C1445 C1461 1.429 . S
C1445 H1467 0.950 . S
C1446 H1442 0.949 . S
C1446 C1454 1.574 . S
C1446 C1462 1.368 . S
H1447 C1455 0.950 . S
H1448 C1453 0.950 . S
H1449 C1454 0.949 . S
H1450 C1456 0.950 . S
H1451 C1457 0.950 . S
H1452 C1458 0.949 . S
C1453 H1448 0.950 . S
C1453 C1455 1.327 . S
C1453 C1459 1.429 . S
C1454 C1446 1.574 . S
C1454 H1449 0.949 . S
C1454 C1460 1.368 . S
C1455 C1439 1.349 . S
C1455 H1447 0.950 . S
C1455 C1453 1.327 . S
C1456 C1444 1.349 . S
C1456 H1450 0.950 . S
C1456 C1457 1.327 . S
C1457 H1451 0.950 . S
C1457 C1456 1.327 . S
C1457 C1461 1.429 . S
C1458 C1441 1.574 . S
C1458 H1452 0.949 . S
C1458 C1462 1.368 . S
C1459 C1440 1.429 . S
C1459 C1453 1.429 . S
C1459 C1460 1.523 . S
C1460 C1441 1.368 . S
C1460 C1454 1.368 . S
C1460 C1459 1.523 . S
C1461 C1445 1.429 . S
C1461 C1457 1.429 . S
C1461 C1462 1.523 . S
C1462 C1446 1.368 . S
C1462 C1458 1.368 . S
C1462 C1461 1.523 . S
H1463 C1438 0.950 . S
H1464 C1440 0.950 . S
H1465 C1441 0.949 . S
H1466 C1443 0.950 . S
H1467 C1445 0.950 . S
C1468 C1469 1.349 . S
C1468 C1470 1.327 . S
C1468 H1493 0.950 . S
C1469 C1468 1.349 . S
C1469 C1485 1.349 . S
C1470 C1468 1.327 . S
C1470 C1489 1.429 . S
C1470 H1494 0.950 . S
C1471 C1488 1.574 . S
C1471 C1490 1.368 . S
C1471 H1495 0.949 . S
H1472 C1476 0.949 . S
C1473 C1474 1.349 . S
C1473 C1475 1.327 . S
C1473 H1496 0.950 . S
C1474 C1473 1.349 . S
C1474 C1486 1.349 . S
C1475 C1473 1.327 . S
C1475 C1491 1.429 . S
C1475 H1497 0.950 . S
C1476 H1472 0.949 . S
C1476 C1484 1.574 . S
C1476 C1492 1.368 . S
H1477 C1485 0.950 . S
H1478 C1483 0.950 . S
H1479 C1484 0.949 . S
H1480 C1486 0.950 . S
H1481 C1487 0.950 . S
H1482 C1488 0.949 . S
C1483 H1478 0.950 . S
C1483 C1485 1.327 . S
C1483 C1489 1.429 . S
C1484 C1476 1.574 . S
C1484 H1479 0.949 . S
C1484 C1490 1.368 . S
C1485 C1469 1.349 . S
C1485 H1477 0.950 . S
C1485 C1483 1.327 . S
C1486 C1474 1.349 . S
C1486 H1480 0.950 . S
C1486 C1487 1.327 . S
C1487 H1481 0.950 . S
C1487 C1486 1.327 . S
C1487 C1491 1.429 . S
C1488 C1471 1.574 . S
C1488 H1482 0.949 . S
C1488 C1492 1.368 . S
C1489 C1470 1.429 . S
C1489 C1483 1.429 . S
C1489 C1490 1.523 . S
C1490 C1471 1.368 . S
C1490 C1484 1.368 . S
C1490 C1489 1.523 . S
C1491 C1475 1.429 . S
C1491 C1487 1.429 . S
C1491 C1492 1.523 . S
C1492 C1476 1.368 . S
C1492 C1488 1.368 . S
C1492 C1491 1.523 . S
H1493 C1468 0.950 . S
H1494 C1470 0.950 . S
H1495 C1471 0.949 . S
H1496 C1473 0.950 . S
H1497 C1475 0.950 . S
C1498 C1499 1.349 . S
C1498 C1500 1.327 . S
C1498 H1523 0.950 . S
C1499 C1498 1.349 . S
C1499 C1515 1.349 . S
C1500 C1498 1.327 . S
C1500 C1519 1.429 . S
C1500 H1524 0.950 . S
C1501 C1518 1.574 . S
C1501 C1520 1.368 . S
C1501 H1525 0.949 . S
H1502 C1506 0.949 . S
C1503 C1504 1.349 . S
C1503 C1505 1.327 . S
C1503 H1526 0.950 . S
C1504 C1503 1.349 . S
C1504 C1516 1.349 . S
C1505 C1503 1.327 . S
C1505 C1521 1.429 . S
C1505 H1527 0.950 . S
C1506 H1502 0.949 . S
C1506 C1514 1.574 . S
C1506 C1522 1.368 . S
H1507 C1515 0.950 . S
H1508 C1513 0.950 . S
H1509 C1514 0.949 . S
H1510 C1516 0.950 . S
H1511 C1517 0.950 . S
H1512 C1518 0.949 . S
C1513 H1508 0.950 . S
C1513 C1515 1.327 . S
C1513 C1519 1.429 . S
C1514 C1506 1.574 . S
C1514 H1509 0.949 . S
C1514 C1520 1.368 . S
C1515 C1499 1.349 . S
C1515 H1507 0.950 . S
C1515 C1513 1.327 . S
C1516 C1504 1.349 . S
C1516 H1510 0.950 . S
C1516 C1517 1.327 . S
C1517 H1511 0.950 . S
C1517 C1516 1.327 . S
C1517 C1521 1.429 . S
C1518 C1501 1.574 . S
C1518 H1512 0.949 . S
C1518 C1522 1.368 . S
C1519 C1500 1.429 . S
C1519 C1513 1.429 . S
C1519 C1520 1.523 . S
C1520 C1501 1.368 . S
C1520 C1514 1.368 . S
C1520 C1519 1.523 . S
C1521 C1505 1.429 . S
C1521 C1517 1.429 . S
C1521 C1522 1.523 . S
C1522 C1506 1.368 . S
C1522 C1518 1.368 . S
C1522 C1521 1.523 . S
H1523 C1498 0.950 . S
H1524 C1500 0.950 . S
H1525 C1501 0.949 . S
H1526 C1503 0.950 . S
H1527 C1505 0.950 . S
C1528 C1529 1.349 . S
C1528 C1530 1.327 . S
C1528 H1553 0.950 . S
C1529 C1528 1.349 . S
C1529 C1545 1.349 . S
C1530 C1528 1.327 . S
C1530 C1549 1.429 . S
C1530 H1554 0.950 . S
C1531 C1548 1.574 . S
C1531 C1550 1.368 . S
C1531 H1555 0.949 . S
H1532 C1536 0.949 . S
C1533 C1534 1.349 . S
C1533 C1535 1.327 . S
C1533 H1556 0.950 . S
C1534 C1533 1.349 . S
C1534 C1546 1.349 . S
C1535 C1533 1.327 . S
C1535 C1551 1.429 . S
C1535 H1557 0.950 . S
C1536 H1532 0.949 . S
C1536 C1544 1.574 . S
C1536 C1552 1.368 . S
H1537 C1545 0.950 . S
H1538 C1543 0.950 . S
H1539 C1544 0.949 . S
H1540 C1546 0.950 . S
H1541 C1547 0.950 . S
H1542 C1548 0.949 . S
C1543 H1538 0.950 . S
C1543 C1545 1.327 . S
C1543 C1549 1.429 . S
C1544 C1536 1.574 . S
C1544 H1539 0.949 . S
C1544 C1550 1.368 . S
C1545 C1529 1.349 . S
C1545 H1537 0.950 . S
C1545 C1543 1.327 . S
C1546 C1534 1.349 . S
C1546 H1540 0.950 . S
C1546 C1547 1.327 . S
C1547 H1541 0.950 . S
C1547 C1546 1.327 . S
C1547 C1551 1.429 . S
C1548 C1531 1.574 . S
C1548 H1542 0.949 . S
C1548 C1552 1.368 . S
C1549 C1530 1.429 . S
C1549 C1543 1.429 . S
C1549 C1550 1.523 . S
C1550 C1531 1.368 . S
C1550 C1544 1.368 . S
C1550 C1549 1.523 . S
C1551 C1535 1.429 . S
C1551 C1547 1.429 . S
C1551 C1552 1.523 . S
C1552 C1536 1.368 . S
C1552 C1548 1.368 . S
C1552 C1551 1.523 . S
H1553 C1528 0.950 . S
H1554 C1530 0.950 . S
H1555 C1531 0.949 . S
H1556 C1533 0.950 . S
H1557 C1535 0.950 . S
C1558 C1559 1.349 . S
C1558 C1560 1.327 . S
C1558 H1583 0.950 . S
C1559 C1558 1.349 . S
C1559 C1575 1.349 . S
C1560 C1558 1.327 . S
C1560 C1579 1.429 . S
C1560 H1584 0.950 . S
C1561 C1578 1.574 . S
C1561 C1580 1.368 . S
C1561 H1585 0.949 . S
H1562 C1566 0.949 . S
C1563 C1564 1.349 . S
C1563 C1565 1.327 . S
C1563 H1586 0.950 . S
C1564 C1563 1.349 . S
C1564 C1576 1.349 . S
C1565 C1563 1.327 . S
C1565 C1581 1.429 . S
C1565 H1587 0.950 . S
C1566 H1562 0.949 . S
C1566 C1574 1.574 . S
C1566 C1582 1.368 . S
H1567 C1575 0.950 . S
H1568 C1573 0.950 . S
H1569 C1574 0.949 . S
H1570 C1576 0.950 . S
H1571 C1577 0.950 . S
H1572 C1578 0.949 . S
C1573 H1568 0.950 . S
C1573 C1575 1.327 . S
C1573 C1579 1.429 . S
C1574 C1566 1.574 . S
C1574 H1569 0.949 . S
C1574 C1580 1.368 . S
C1575 C1559 1.349 . S
C1575 H1567 0.950 . S
C1575 C1573 1.327 . S
C1576 C1564 1.349 . S
C1576 H1570 0.950 . S
C1576 C1577 1.327 . S
C1577 H1571 0.950 . S
C1577 C1576 1.327 . S
C1577 C1581 1.429 . S
C1578 C1561 1.574 . S
C1578 H1572 0.949 . S
C1578 C1582 1.368 . S
C1579 C1560 1.429 . S
C1579 C1573 1.429 . S
C1579 C1580 1.523 . S
C1580 C1561 1.368 . S
C1580 C1574 1.368 . S
C1580 C1579 1.523 . S
C1581 C1565 1.429 . S
C1581 C1577 1.429 . S
C1581 C1582 1.523 . S
C1582 C1566 1.368 . S
C1582 C1578 1.368 . S
C1582 C1581 1.523 . S
H1583 C1558 0.950 . S
H1584 C1560 0.950 . S
H1585 C1561 0.949 . S
H1586 C1563 0.950 . S
H1587 C1565 0.950 . S
C1588 C1589 1.349 . S
C1588 C1590 1.327 . S
C1588 H1613 0.950 . S
C1589 C1588 1.349 . S
C1589 C1605 1.349 . S
C1590 C1588 1.327 . S
C1590 C1609 1.429 . S
C1590 H1614 0.950 . S
C1591 C1608 1.574 . S
C1591 C1610 1.368 . S
C1591 H1615 0.949 . S
H1592 C1596 0.949 . S
C1593 C1594 1.349 . S
C1593 C1595 1.327 . S
C1593 H1616 0.950 . S
C1594 C1593 1.349 . S
C1594 C1606 1.349 . S
C1595 C1593 1.327 . S
C1595 C1611 1.429 . S
C1595 H1617 0.950 . S
C1596 H1592 0.949 . S
C1596 C1604 1.574 . S
C1596 C1612 1.368 . S
H1597 C1605 0.950 . S
H1598 C1603 0.950 . S
H1599 C1604 0.949 . S
H1600 C1606 0.950 . S
H1601 C1607 0.950 . S
H1602 C1608 0.949 . S
C1603 H1598 0.950 . S
C1603 C1605 1.327 . S
C1603 C1609 1.429 . S
C1604 C1596 1.574 . S
C1604 H1599 0.949 . S
C1604 C1610 1.368 . S
C1605 C1589 1.349 . S
C1605 H1597 0.950 . S
C1605 C1603 1.327 . S
C1606 C1594 1.349 . S
C1606 H1600 0.950 . S
C1606 C1607 1.327 . S
C1607 H1601 0.950 . S
C1607 C1606 1.327 . S
C1607 C1611 1.429 . S
C1608 C1591 1.574 . S
C1608 H1602 0.949 . S
C1608 C1612 1.368 . S
C1609 C1590 1.429 . S
C1609 C1603 1.429 . S
C1609 C1610 1.523 . S
C1610 C1591 1.368 . S
C1610 C1604 1.368 . S
C1610 C1609 1.523 . S
C1611 C1595 1.429 . S
C1611 C1607 1.429 . S
C1611 C1612 1.523 . S
C1612 C1596 1.368 . S
C1612 C1608 1.368 . S
C1612 C1611 1.523 . S
H1613 C1588 0.950 . S
H1614 C1590 0.950 . S
H1615 C1591 0.949 . S
H1616 C1593 0.950 . S
H1617 C1595 0.950 . S
C1618 C1619 1.349 . S
C1618 C1620 1.327 . S
C1618 H1643 0.950 . S
C1619 C1618 1.349 . S
C1619 C1635 1.349 . S
C1620 C1618 1.327 . S
C1620 C1639 1.429 . S
C1620 H1644 0.950 . S
C1621 C1638 1.574 . S
C1621 C1640 1.368 . S
C1621 H1645 0.949 . S
H1622 C1626 0.949 . S
C1623 C1624 1.349 . S
C1623 C1625 1.327 . S
C1623 H1646 0.950 . S
C1624 C1623 1.349 . S
C1624 C1636 1.349 . S
C1625 C1623 1.327 . S
C1625 C1641 1.429 . S
C1625 H1647 0.950 . S
C1626 H1622 0.949 . S
C1626 C1634 1.574 . S
C1626 C1642 1.368 . S
H1627 C1635 0.950 . S
H1628 C1633 0.950 . S
H1629 C1634 0.949 . S
H1630 C1636 0.950 . S
H1631 C1637 0.950 . S
H1632 C1638 0.949 . S
C1633 H1628 0.950 . S
C1633 C1635 1.327 . S
C1633 C1639 1.429 . S
C1634 C1626 1.574 . S
C1634 H1629 0.949 . S
C1634 C1640 1.368 . S
C1635 C1619 1.349 . S
C1635 H1627 0.950 . S
C1635 C1633 1.327 . S
C1636 C1624 1.349 . S
C1636 H1630 0.950 . S
C1636 C1637 1.327 . S
C1637 H1631 0.950 . S
C1637 C1636 1.327 . S
C1637 C1641 1.429 . S
C1638 C1621 1.574 . S
C1638 H1632 0.949 . S
C1638 C1642 1.368 . S
C1639 C1620 1.429 . S
C1639 C1633 1.429 . S
C1639 C1640 1.523 . S
C1640 C1621 1.368 . S
C1640 C1634 1.368 . S
C1640 C1639 1.523 . S
C1641 C1625 1.429 . S
C1641 C1637 1.429 . S
C1641 C1642 1.523 . S
C1642 C1626 1.368 . S
C1642 C1638 1.368 . S
C1642 C1641 1.523 . S
H1643 C1618 0.950 . S
H1644 C1620 0.950 . S
H1645 C1621 0.949 . S
H1646 C1623 0.950 . S
H1647 C1625 0.950 . S
C1648 C1649 1.349 . S
C1648 C1650 1.327 . S
C1648 H1673 0.950 . S
C1649 C1648 1.349 . S
C1649 C1665 1.349 . S
C1650 C1648 1.327 . S
C1650 C1669 1.429 . S
C1650 H1674 0.950 . S
C1651 C1668 1.574 . S
C1651 C1670 1.368 . S
C1651 H1675 0.949 . S
H1652 C1656 0.949 . S
C1653 C1654 1.349 . S
C1653 C1655 1.327 . S
C1653 H1676 0.950 . S
C1654 C1653 1.349 . S
C1654 C1666 1.349 . S
C1655 C1653 1.327 . S
C1655 C1671 1.429 . S
C1655 H1677 0.950 . S
C1656 H1652 0.949 . S
C1656 C1664 1.574 . S
C1656 C1672 1.368 . S
H1657 C1665 0.950 . S
H1658 C1663 0.950 . S
H1659 C1664 0.949 . S
H1660 C1666 0.950 . S
H1661 C1667 0.950 . S
H1662 C1668 0.949 . S
C1663 H1658 0.950 . S
C1663 C1665 1.327 . S
C1663 C1669 1.429 . S
C1664 C1656 1.574 . S
C1664 H1659 0.949 . S
C1664 C1670 1.368 . S
C1665 C1649 1.349 . S
C1665 H1657 0.950 . S
C1665 C1663 1.327 . S
C1666 C1654 1.349 . S
C1666 H1660 0.950 . S
C1666 C1667 1.327 . S
C1667 H1661 0.950 . S
C1667 C1666 1.327 . S
C1667 C1671 1.429 . S
C1668 C1651 1.574 . S
C1668 H1662 0.949 . S
C1668 C1672 1.368 . S
C1669 C1650 1.429 . S
C1669 C1663 1.429 . S
C1669 C1670 1.523 . S
C1670 C1651 1.368 . S
C1670 C1664 1.368 . S
C1670 C1669 1.523 . S
C1671 C1655 1.429 . S
C1671 C1667 1.429 . S
C1671 C1672 1.523 . S
C1672 C1656 1.368 . S
C1672 C1668 1.368 . S
C1672 C1671 1.523 . S
H1673 C1648 0.950 . S
H1674 C1650 0.950 . S
H1675 C1651 0.949 . S
H1676 C1653 0.950 . S
H1677 C1655 0.950 . S
C1678 C1679 1.349 . S
C1678 C1680 1.327 . S
C1678 H1703 0.950 . S
C1679 C1678 1.349 . S
C1679 C1695 1.349 . S
C1680 C1678 1.327 . S
C1680 C1699 1.429 . S
C1680 H1704 0.950 . S
C1681 C1698 1.574 . S
C1681 C1700 1.368 . S
C1681 H1705 0.949 . S
H1682 C1686 0.949 . S
C1683 C1684 1.349 . S
C1683 C1685 1.327 . S
C1683 H1706 0.950 . S
C1684 C1683 1.349 . S
C1684 C1696 1.349 . S
C1685 C1683 1.327 . S
C1685 C1701 1.429 . S
C1685 H1707 0.950 . S
C1686 H1682 0.949 . S
C1686 C1694 1.574 . S
C1686 C1702 1.368 . S
H1687 C1695 0.950 . S
H1688 C1693 0.950 . S
H1689 C1694 0.949 . S
H1690 C1696 0.950 . S
H1691 C1697 0.950 . S
H1692 C1698 0.949 . S
C1693 H1688 0.950 . S
C1693 C1695 1.327 . S
C1693 C1699 1.429 . S
C1694 C1686 1.574 . S
C1694 H1689 0.949 . S
C1694 C1700 1.368 . S
C1695 C1679 1.349 . S
C1695 H1687 0.950 . S
C1695 C1693 1.327 . S
C1696 C1684 1.349 . S
C1696 H1690 0.950 . S
C1696 C1697 1.327 . S
C1697 H1691 0.950 . S
C1697 C1696 1.327 . S
C1697 C1701 1.429 . S
C1698 C1681 1.574 . S
C1698 H1692 0.949 . S
C1698 C1702 1.368 . S
C1699 C1680 1.429 . S
C1699 C1693 1.429 . S
C1699 C1700 1.523 . S
C1700 C1681 1.368 . S
C1700 C1694 1.368 . S
C1700 C1699 1.523 . S
C1701 C1685 1.429 . S
C1701 C1697 1.429 . S
C1701 C1702 1.523 . S
C1702 C1686 1.368 . S
C1702 C1698 1.368 . S
C1702 C1701 1.523 . S
H1703 C1678 0.950 . S
H1704 C1680 0.950 . S
H1705 C1681 0.949 . S
H1706 C1683 0.950 . S
H1707 C1685 0.950 . S
C1708 C1709 1.349 . S
C1708 C1710 1.327 . S
C1708 H1733 0.950 . S
C1709 C1708 1.349 . S
C1709 C1725 1.349 . S
C1710 C1708 1.327 . S
C1710 C1729 1.429 . S
C1710 H1734 0.950 . S
C1711 C1728 1.574 . S
C1711 C1730 1.368 . S
C1711 H1735 0.949 . S
H1712 C1716 0.949 . S
C1713 C1714 1.349 . S
C1713 C1715 1.327 . S
C1713 H1736 0.950 . S
C1714 C1713 1.349 . S
C1714 C1726 1.349 . S
C1715 C1713 1.327 . S
C1715 C1731 1.429 . S
C1715 H1737 0.950 . S
C1716 H1712 0.949 . S
C1716 C1724 1.574 . S
C1716 C1732 1.368 . S
H1717 C1725 0.950 . S
H1718 C1723 0.950 . S
H1719 C1724 0.949 . S
H1720 C1726 0.950 . S
H1721 C1727 0.950 . S
H1722 C1728 0.949 . S
C1723 H1718 0.950 . S
C1723 C1725 1.327 . S
C1723 C1729 1.429 . S
C1724 C1716 1.574 . S
C1724 H1719 0.949 . S
C1724 C1730 1.368 . S
C1725 C1709 1.349 . S
C1725 H1717 0.950 . S
C1725 C1723 1.327 . S
C1726 C1714 1.349 . S
C1726 H1720 0.950 . S
C1726 C1727 1.327 . S
C1727 H1721 0.950 . S
C1727 C1726 1.327 . S
C1727 C1731 1.429 . S
C1728 C1711 1.574 . S
C1728 H1722 0.949 . S
C1728 C1732 1.368 . S
C1729 C1710 1.429 . S
C1729 C1723 1.429 . S
C1729 C1730 1.523 . S
C1730 C1711 1.368 . S
C1730 C1724 1.368 . S
C1730 C1729 1.523 . S
C1731 C1715 1.429 . S
C1731 C1727 1.429 . S
C1731 C1732 1.523 . S
C1732 C1716 1.368 . S
C1732 C1728 1.368 . S
C1732 C1731 1.523 . S
H1733 C1708 0.950 . S
H1734 C1710 0.950 . S
H1735 C1711 0.949 . S
H1736 C1713 0.950 . S
H1737 C1715 0.950 . S
C1738 C1739 1.349 . S
C1738 C1740 1.327 . S
C1738 H1763 0.950 . S
C1739 C1738 1.349 . S
C1739 C1755 1.349 . S
C1740 C1738 1.327 . S
C1740 C1759 1.429 . S
C1740 H1764 0.950 . S
C1741 C1758 1.574 . S
C1741 C1760 1.368 . S
C1741 H1765 0.949 . S
H1742 C1746 0.949 . S
C1743 C1744 1.349 . S
C1743 C1745 1.327 . S
C1743 H1766 0.950 . S
C1744 C1743 1.349 . S
C1744 C1756 1.349 . S
C1745 C1743 1.327 . S
C1745 C1761 1.429 . S
C1745 H1767 0.950 . S
C1746 H1742 0.949 . S
C1746 C1754 1.574 . S
C1746 C1762 1.368 . S
H1747 C1755 0.950 . S
H1748 C1753 0.950 . S
H1749 C1754 0.949 . S
H1750 C1756 0.950 . S
H1751 C1757 0.950 . S
H1752 C1758 0.949 . S
C1753 H1748 0.950 . S
C1753 C1755 1.327 . S
C1753 C1759 1.429 . S
C1754 C1746 1.574 . S
C1754 H1749 0.949 . S
C1754 C1760 1.368 . S
C1755 C1739 1.349 . S
C1755 H1747 0.950 . S
C1755 C1753 1.327 . S
C1756 C1744 1.349 . S
C1756 H1750 0.950 . S
C1756 C1757 1.327 . S
C1757 H1751 0.950 . S
C1757 C1756 1.327 . S
C1757 C1761 1.429 . S
C1758 C1741 1.574 . S
C1758 H1752 0.949 . S
C1758 C1762 1.368 . S
C1759 C1740 1.429 . S
C1759 C1753 1.429 . S
C1759 C1760 1.523 . S
C1760 C1741 1.368 . S
C1760 C1754 1.368 . S
C1760 C1759 1.523 . S
C1761 C1745 1.429 . S
C1761 C1757 1.429 . S
C1761 C1762 1.523 . S
C1762 C1746 1.368 . S
C1762 C1758 1.368 . S
C1762 C1761 1.523 . S
H1763 C1738 0.950 . S
H1764 C1740 0.950 . S
H1765 C1741 0.949 . S
H1766 C1743 0.950 . S
H1767 C1745 0.950 . S
C1768 C1769 1.349 . S
C1768 C1770 1.327 . S
C1768 H1793 0.950 . S
C1769 C1768 1.349 . S
C1769 C1785 1.349 . S
C1770 C1768 1.327 . S
C1770 C1789 1.429 . S
C1770 H1794 0.950 . S
C1771 C1788 1.574 . S
C1771 C1790 1.368 . S
C1771 H1795 0.949 . S
H1772 C1776 0.949 . S
C1773 C1774 1.349 . S
C1773 C1775 1.327 . S
C1773 H1796 0.950 . S
C1774 C1773 1.349 . S
C1774 C1786 1.349 . S
C1775 C1773 1.327 . S
C1775 C1791 1.429 . S
C1775 H1797 0.950 . S
C1776 H1772 0.949 . S
C1776 C1784 1.574 . S
C1776 C1792 1.368 . S
H1777 C1785 0.950 . S
H1778 C1783 0.950 . S
H1779 C1784 0.949 . S
H1780 C1786 0.950 . S
H1781 C1787 0.950 . S
H1782 C1788 0.949 . S
C1783 H1778 0.950 . S
C1783 C1785 1.327 . S
C1783 C1789 1.429 . S
C1784 C1776 1.574 . S
C1784 H1779 0.949 . S
C1784 C1790 1.368 . S
C1785 C1769 1.349 . S
C1785 H1777 0.950 . S
C1785 C1783 1.327 . S
C1786 C1774 1.349 . S
C1786 H1780 0.950 . S
C1786 C1787 1.327 . S
C1787 H1781 0.950 . S
C1787 C1786 1.327 . S
C1787 C1791 1.429 . S
C1788 C1771 1.574 . S
C1788 H1782 0.949 . S
C1788 C1792 1.368 . S
C1789 C1770 1.429 . S
C1789 C1783 1.429 . S
C1789 C1790 1.523 . S
C1790 C1771 1.368 . S
C1790 C1784 1.368 . S
C1790 C1789 1.523 . S
C1791 C1775 1.429 . S
C1791 C1787 1.429 . S
C1791 C1792 1.523 . S
C1792 C1776 1.368 . S
C1792 C1788 1.368 . S
C1792 C1791 1.523 . S
H1793 C1768 0.950 . S
H1794 C1770 0.950 . S
H1795 C1771 0.949 . S
H1796 C1773 0.950 . S
H1797 C1775 0.950 . S
C1798 C1799 1.349 . S
C1798 C1800 1.327 . S
C1798 H1823 0.950 . S
C1799 C1798 1.349 . S
C1799 C1815 1.349 . S
C1800 C1798 1.327 . S
C1800 C1819 1.429 . S
C1800 H1824 0.950 . S
C1801 C1818 1.574 . S
C1801 C1820 1.368 . S
C1801 H1825 0.949 . S
H1802 C1806 0.949 . S
C1803 C1804 1.349 . S
C1803 C1805 1.327 . S
C1803 H1826 0.950 . S
C1804 C1803 1.349 . S
C1804 C1816 1.349 . S
C1805 C1803 1.327 . S
C1805 C1821 1.429 . S
C1805 H1827 0.950 . S
C1806 H1802 0.949 . S
C1806 C1814 1.574 . S
C1806 C1822 1.368 . S
H1807 C1815 0.950 . S
H1808 C1813 0.950 . S
H1809 C1814 0.949 . S
H1810 C1816 0.950 . S
H1811 C1817 0.950 . S
H1812 C1818 0.949 . S
C1813 H1808 0.950 . S
C1813 C1815 1.327 . S
C1813 C1819 1.429 . S
C1814 C1806 1.574 . S
C1814 H1809 0.949 . S
C1814 C1820 1.368 . S
C1815 C1799 1.349 . S
C1815 H1807 0.950 . S
C1815 C1813 1.327 . S
C1816 C1804 1.349 . S
C1816 H1810 0.950 . S
C1816 C1817 1.327 . S
C1817 H1811 0.950 . S
C1817 C1816 1.327 . S
C1817 C1821 1.429 . S
C1818 C1801 1.574 . S
C1818 H1812 0.949 . S
C1818 C1822 1.368 . S
C1819 C1800 1.429 . S
C1819 C1813 1.429 . S
C1819 C1820 1.523 . S
C1820 C1801 1.368 . S
C1820 C1814 1.368 . S
C1820 C1819 1.523 . S
C1821 C1805 1.429 . S
C1821 C1817 1.429 . S
C1821 C1822 1.523 . S
C1822 C1806 1.368 . S
C1822 C1818 1.368 . S
C1822 C1821 1.523 . S
H1823 C1798 0.950 . S
H1824 C1800 0.950 . S
H1825 C1801 0.949 . S
H1826 C1803 0.950 . S
H1827 C1805 0.950 . S
C1828 C1829 1.349 . S
C1828 C1830 1.327 . S
C1828 H1853 0.950 . S
C1829 C1828 1.349 . S
C1829 C1845 1.349 . S
C1830 C1828 1.327 . S
C1830 C1849 1.429 . S
C1830 H1854 0.950 . S
C1831 C1848 1.574 . S
C1831 C1850 1.368 . S
C1831 H1855 0.949 . S
H1832 C1836 0.949 . S
C1833 C1834 1.349 . S
C1833 C1835 1.327 . S
C1833 H1856 0.950 . S
C1834 C1833 1.349 . S
C1834 C1846 1.349 . S
C1835 C1833 1.327 . S
C1835 C1851 1.429 . S
C1835 H1857 0.950 . S
C1836 H1832 0.949 . S
C1836 C1844 1.574 . S
C1836 C1852 1.368 . S
H1837 C1845 0.950 . S
H1838 C1843 0.950 . S
H1839 C1844 0.949 . S
H1840 C1846 0.950 . S
H1841 C1847 0.950 . S
H1842 C1848 0.949 . S
C1843 H1838 0.950 . S
C1843 C1845 1.327 . S
C1843 C1849 1.429 . S
C1844 C1836 1.574 . S
C1844 H1839 0.949 . S
C1844 C1850 1.368 . S
C1845 C1829 1.349 . S
C1845 H1837 0.950 . S
C1845 C1843 1.327 . S
C1846 C1834 1.349 . S
C1846 H1840 0.950 . S
C1846 C1847 1.327 . S
C1847 H1841 0.950 . S
C1847 C1846 1.327 . S
C1847 C1851 1.429 . S
C1848 C1831 1.574 . S
C1848 H1842 0.949 . S
C1848 C1852 1.368 . S
C1849 C1830 1.429 . S
C1849 C1843 1.429 . S
C1849 C1850 1.523 . S
C1850 C1831 1.368 . S
C1850 C1844 1.368 . S
C1850 C1849 1.523 . S
C1851 C1835 1.429 . S
C1851 C1847 1.429 . S
C1851 C1852 1.523 . S
C1852 C1836 1.368 . S
C1852 C1848 1.368 . S
C1852 C1851 1.523 . S
H1853 C1828 0.950 . S
H1854 C1830 0.950 . S
H1855 C1831 0.949 . S
H1856 C1833 0.950 . S
H1857 C1835 0.950 . S
C1858 C1859 1.349 . S
C1858 C1860 1.327 . S
C1858 H1883 0.950 . S
C1859 C1858 1.349 . S
C1859 C1875 1.349 . S
C1860 C1858 1.327 . S
C1860 C1879 1.429 . S
C1860 H1884 0.950 . S
C1861 C1878 1.574 . S
C1861 C1880 1.368 . S
C1861 H1885 0.949 . S
H1862 C1866 0.949 . S
C1863 C1864 1.349 . S
C1863 C1865 1.327 . S
C1863 H1886 0.950 . S
C1864 C1863 1.349 . S
C1864 C1876 1.349 . S
C1865 C1863 1.327 . S
C1865 C1881 1.429 . S
C1865 H1887 0.950 . S
C1866 H1862 0.949 . S
C1866 C1874 1.574 . S
C1866 C1882 1.368 . S
H1867 C1875 0.950 . S
H1868 C1873 0.950 . S
H1869 C1874 0.949 . S
H1870 C1876 0.950 . S
H1871 C1877 0.950 . S
H1872 C1878 0.949 . S
C1873 H1868 0.950 . S
C1873 C1875 1.327 . S
C1873 C1879 1.429 . S
C1874 C1866 1.574 . S
C1874 H1869 0.949 . S
C1874 C1880 1.368 . S
C1875 C1859 1.349 . S
C1875 H1867 0.950 . S
C1875 C1873 1.327 . S
C1876 C1864 1.349 . S
C1876 H1870 0.950 . S
C1876 C1877 1.327 . S
C1877 H1871 0.950 . S
C1877 C1876 1.327 . S
C1877 C1881 1.429 . S
C1878 C1861 1.574 . S
C1878 H1872 0.949 . S
C1878 C1882 1.368 . S
C1879 C1860 1.429 . S
C1879 C1873 1.429 . S
C1879 C1880 1.523 . S
C1880 C1861 1.368 . S
C1880 C1874 1.368 . S
C1880 C1879 1.523 . S
C1881 C1865 1.429 . S
C1881 C1877 1.429 . S
C1881 C1882 1.523 . S
C1882 C1866 1.368 . S
C1882 C1878 1.368 . S
C1882 C1881 1.523 . S
H1883 C1858 0.950 . S
H1884 C1860 0.950 . S
H1885 C1861 0.949 . S
H1886 C1863 0.950 . S
H1887 C1865 0.950 . S
C1888 C1889 1.349 . S
C1888 C1890 1.327 1_565 S
C1888 H1913 0.950 . S
C1889 C1888 1.349 . S
C1889 C1905 1.349 . S
C1890 C1888 1.327 1_545 S
C1890 C1909 1.429 . S
C1890 H1914 0.950 . S
C1891 C1908 1.574 . S
C1891 C1910 1.368 . S
C1891 H1915 0.949 . S
H1892 C1896 0.949 . S
C1893 C1894 1.349 . S
C1893 C1895 1.327 . S
C1893 H1916 0.950 . S
C1894 C1893 1.349 . S
C1894 C1906 1.349 . S
C1895 C1893 1.327 . S
C1895 C1911 1.429 . S
C1895 H1917 0.950 . S
C1896 H1892 0.949 . S
C1896 C1904 1.574 . S
C1896 C1912 1.368 . S
H1897 C1905 0.950 . S
H1898 C1903 0.950 . S
H1899 C1904 0.949 . S
H1900 C1906 0.950 . S
H1901 C1907 0.950 . S
H1902 C1908 0.949 . S
C1903 H1898 0.950 . S
C1903 C1905 1.327 1_545 S
C1903 C1909 1.429 . S
C1904 C1896 1.574 . S
C1904 H1899 0.949 . S
C1904 C1910 1.368 . S
C1905 C1889 1.349 . S
C1905 H1897 0.950 . S
C1905 C1903 1.327 1_565 S
C1906 C1894 1.349 . S
C1906 H1900 0.950 . S
C1906 C1907 1.327 . S
C1907 H1901 0.950 . S
C1907 C1906 1.327 . S
C1907 C1911 1.429 . S
C1908 C1891 1.574 . S
C1908 H1902 0.949 . S
C1908 C1912 1.368 . S
C1909 C1890 1.429 . S
C1909 C1903 1.429 . S
C1909 C1910 1.523 . S
C1910 C1891 1.368 . S
C1910 C1904 1.368 . S
C1910 C1909 1.523 . S
C1911 C1895 1.429 . S
C1911 C1907 1.429 . S
C1911 C1912 1.523 . S
C1912 C1896 1.368 . S
C1912 C1908 1.368 . S
C1912 C1911 1.523 . S
H1913 C1888 0.950 . S
H1914 C1890 0.950 . S
H1915 C1891 0.949 . S
H1916 C1893 0.950 . S
H1917 C1895 0.950 . S
C1918 C1919 1.349 . S
C1918 C1920 1.327 1_565 S
C1918 H1943 0.950 . S
C1919 C1918 1.349 . S
C1919 C1935 1.349 . S
C1920 C1918 1.327 1_545 S
C1920 C1939 1.429 . S
C1920 H1944 0.950 . S
C1921 C1938 1.574 . S
C1921 C1940 1.368 . S
C1921 H1945 0.949 . S
H1922 C1926 0.949 . S
C1923 C1924 1.349 . S
C1923 C1925 1.327 . S
C1923 H1946 0.950 . S
C1924 C1923 1.349 . S
C1924 C1936 1.349 . S
C1925 C1923 1.327 . S
C1925 C1941 1.429 . S
C1925 H1947 0.950 . S
C1926 H1922 0.949 . S
C1926 C1934 1.574 . S
C1926 C1942 1.368 . S
H1927 C1935 0.950 . S
H1928 C1933 0.950 . S
H1929 C1934 0.949 . S
H1930 C1936 0.950 . S
H1931 C1937 0.950 . S
H1932 C1938 0.949 . S
C1933 H1928 0.950 . S
C1933 C1935 1.327 1_545 S
C1933 C1939 1.429 . S
C1934 C1926 1.574 . S
C1934 H1929 0.949 . S
C1934 C1940 1.368 . S
C1935 C1919 1.349 . S
C1935 H1927 0.950 . S
C1935 C1933 1.327 1_565 S
C1936 C1924 1.349 . S
C1936 H1930 0.950 . S
C1936 C1937 1.327 . S
C1937 H1931 0.950 . S
C1937 C1936 1.327 . S
C1937 C1941 1.429 . S
C1938 C1921 1.574 . S
C1938 H1932 0.949 . S
C1938 C1942 1.368 . S
C1939 C1920 1.429 . S
C1939 C1933 1.429 . S
C1939 C1940 1.523 . S
C1940 C1921 1.368 . S
C1940 C1934 1.368 . S
C1940 C1939 1.523 . S
C1941 C1925 1.429 . S
C1941 C1937 1.429 . S
C1941 C1942 1.523 . S
C1942 C1926 1.368 . S
C1942 C1938 1.368 . S
C1942 C1941 1.523 . S
H1943 C1918 0.950 . S
H1944 C1920 0.950 . S
H1945 C1921 0.949 . S
H1946 C1923 0.950 . S
H1947 C1925 0.950 . S
C1948 C1949 1.349 . S
C1948 C1950 1.327 . S
C1948 H1973 0.950 . S
C1949 C1948 1.349 . S
C1949 C1965 1.349 . S
C1950 C1948 1.327 . S
C1950 C1969 1.429 . S
C1950 H1974 0.950 . S
C1951 C1968 1.574 . S
C1951 C1970 1.368 . S
C1951 H1975 0.949 . S
H1952 C1956 0.949 . S
C1953 C1954 1.349 . S
C1953 C1955 1.327 1_545 S
C1953 H1976 0.950 . S
C1954 C1953 1.349 . S
C1954 C1966 1.349 . S
C1955 C1953 1.327 1_565 S
C1955 C1971 1.429 . S
C1955 H1977 0.950 . S
C1956 H1952 0.949 . S
C1956 C1964 1.574 . S
C1956 C1972 1.368 . S
H1957 C1965 0.950 . S
H1958 C1963 0.950 . S
H1959 C1964 0.949 . S
H1960 C1966 0.950 . S
H1961 C1967 0.950 . S
H1962 C1968 0.949 . S
C1963 H1958 0.950 . S
C1963 C1965 1.327 . S
C1963 C1969 1.429 . S
C1964 C1956 1.574 . S
C1964 H1959 0.949 . S
C1964 C1970 1.368 . S
C1965 C1949 1.349 . S
C1965 H1957 0.950 . S
C1965 C1963 1.327 . S
C1966 C1954 1.349 . S
C1966 H1960 0.950 . S
C1966 C1967 1.327 1_545 S
C1967 H1961 0.950 . S
C1967 C1966 1.327 1_565 S
C1967 C1971 1.429 . S
C1968 C1951 1.574 . S
C1968 H1962 0.949 . S
C1968 C1972 1.368 . S
C1969 C1950 1.429 . S
C1969 C1963 1.429 . S
C1969 C1970 1.523 . S
C1970 C1951 1.368 . S
C1970 C1964 1.368 . S
C1970 C1969 1.523 . S
C1971 C1955 1.429 . S
C1971 C1967 1.429 . S
C1971 C1972 1.523 . S
C1972 C1956 1.368 . S
C1972 C1968 1.368 . S
C1972 C1971 1.523 . S
H1973 C1948 0.950 . S
H1974 C1950 0.950 . S
H1975 C1951 0.949 . S
H1976 C1953 0.950 . S
H1977 C1955 0.950 . S
C1978 C1979 1.349 . S
C1978 C1980 1.327 1_545 S
C1978 H2003 0.950 . S
C1979 C1978 1.349 . S
C1979 C1995 1.349 . S
C1980 C1978 1.327 1_565 S
C1980 C1999 1.429 . S
C1980 H2004 0.950 . S
C1981 C1998 1.574 . S
C1981 C2000 1.368 . S
C1981 H2005 0.949 . S
H1982 C1986 0.949 . S
C1983 C1984 1.349 . S
C1983 C1985 1.327 . S
C1983 H2006 0.950 . S
C1984 C1983 1.349 . S
C1984 C1996 1.349 . S
C1985 C1983 1.327 . S
C1985 C2001 1.429 . S
C1985 H2007 0.950 . S
C1986 H1982 0.949 . S
C1986 C1994 1.574 . S
C1986 C2002 1.368 . S
H1987 C1995 0.950 . S
H1988 C1993 0.950 . S
H1989 C1994 0.949 . S
H1990 C1996 0.950 . S
H1991 C1997 0.950 . S
H1992 C1998 0.949 . S
C1993 H1988 0.950 . S
C1993 C1995 1.327 1_565 S
C1993 C1999 1.429 . S
C1994 C1986 1.574 . S
C1994 H1989 0.949 . S
C1994 C2000 1.368 . S
C1995 C1979 1.349 . S
C1995 H1987 0.950 . S
C1995 C1993 1.327 1_545 S
C1996 C1984 1.349 . S
C1996 H1990 0.950 . S
C1996 C1997 1.327 . S
C1997 H1991 0.950 . S
C1997 C1996 1.327 . S
C1997 C2001 1.429 . S
C1998 C1981 1.574 . S
C1998 H1992 0.949 . S
C1998 C2002 1.368 . S
C1999 C1980 1.429 . S
C1999 C1993 1.429 . S
C1999 C2000 1.523 . S
C2000 C1981 1.368 . S
C2000 C1994 1.368 . S
C2000 C1999 1.523 . S
C2001 C1985 1.429 . S
C2001 C1997 1.429 . S
C2001 C2002 1.523 . S
C2002 C1986 1.368 . S
C2002 C1998 1.368 . S
C2002 C2001 1.523 . S
H2003 C1978 0.950 . S
H2004 C1980 0.950 . S
H2005 C1981 0.949 . S
H2006 C1983 0.950 . S
H2007 C1985 0.950 . S
C2008 C2009 1.349 . S
C2008 C2010 1.327 . S
C2008 H2033 0.950 . S
C2009 C2008 1.349 . S
C2009 C2025 1.349 . S
C2010 C2008 1.327 . S
C2010 C2029 1.429 . S
C2010 H2034 0.950 . S
C2011 C2028 1.574 . S
C2011 C2030 1.368 . S
C2011 H2035 0.949 . S
H2012 C2016 0.949 . S
C2013 C2014 1.349 . S
C2013 C2015 1.327 . S
C2013 H2036 0.950 . S
C2014 C2013 1.349 . S
C2014 C2026 1.349 . S
C2015 C2013 1.327 . S
C2015 C2031 1.429 . S
C2015 H2037 0.950 . S
C2016 H2012 0.949 . S
C2016 C2024 1.574 . S
C2016 C2032 1.368 . S
H2017 C2025 0.950 . S
H2018 C2023 0.950 . S
H2019 C2024 0.949 . S
H2020 C2026 0.950 . S
H2021 C2027 0.950 . S
H2022 C2028 0.949 . S
C2023 H2018 0.950 . S
C2023 C2025 1.327 . S
C2023 C2029 1.429 . S
C2024 C2016 1.574 . S
C2024 H2019 0.949 . S
C2024 C2030 1.368 . S
C2025 C2009 1.349 . S
C2025 H2017 0.950 . S
C2025 C2023 1.327 . S
C2026 C2014 1.349 . S
C2026 H2020 0.950 . S
C2026 C2027 1.327 . S
C2027 H2021 0.950 . S
C2027 C2026 1.327 . S
C2027 C2031 1.429 . S
C2028 C2011 1.574 . S
C2028 H2022 0.949 . S
C2028 C2032 1.368 . S
C2029 C2010 1.429 . S
C2029 C2023 1.429 . S
C2029 C2030 1.523 . S
C2030 C2011 1.368 . S
C2030 C2024 1.368 . S
C2030 C2029 1.523 . S
C2031 C2015 1.429 . S
C2031 C2027 1.429 . S
C2031 C2032 1.523 . S
C2032 C2016 1.368 . S
C2032 C2028 1.368 . S
C2032 C2031 1.523 . S
H2033 C2008 0.950 . S
H2034 C2010 0.950 . S
H2035 C2011 0.949 . S
H2036 C2013 0.950 . S
H2037 C2015 0.950 . S
C2038 C2039 1.349 . S
C2038 C2040 1.327 . S
C2038 H2063 0.950 . S
C2039 C2038 1.349 . S
C2039 C2055 1.349 . S
C2040 C2038 1.327 . S
C2040 C2059 1.429 . S
C2040 H2064 0.950 . S
C2041 C2058 1.574 . S
C2041 C2060 1.368 . S
C2041 H2065 0.949 . S
H2042 C2046 0.949 . S
C2043 C2044 1.349 . S
C2043 C2045 1.327 . S
C2043 H2066 0.950 . S
C2044 C2043 1.349 . S
C2044 C2056 1.349 . S
C2045 C2043 1.327 . S
C2045 C2061 1.429 . S
C2045 H2067 0.950 . S
C2046 H2042 0.949 . S
C2046 C2054 1.574 . S
C2046 C2062 1.368 . S
H2047 C2055 0.950 . S
H2048 C2053 0.950 . S
H2049 C2054 0.949 . S
H2050 C2056 0.950 . S
H2051 C2057 0.950 . S
H2052 C2058 0.949 . S
C2053 H2048 0.950 . S
C2053 C2055 1.327 . S
C2053 C2059 1.429 . S
C2054 C2046 1.574 . S
C2054 H2049 0.949 . S
C2054 C2060 1.368 . S
C2055 C2039 1.349 . S
C2055 H2047 0.950 . S
C2055 C2053 1.327 . S
C2056 C2044 1.349 . S
C2056 H2050 0.950 . S
C2056 C2057 1.327 . S
C2057 H2051 0.950 . S
C2057 C2056 1.327 . S
C2057 C2061 1.429 . S
C2058 C2041 1.574 . S
C2058 H2052 0.949 . S
C2058 C2062 1.368 . S
C2059 C2040 1.429 . S
C2059 C2053 1.429 . S
C2059 C2060 1.523 . S
C2060 C2041 1.368 . S
C2060 C2054 1.368 . S
C2060 C2059 1.523 . S
C2061 C2045 1.429 . S
C2061 C2057 1.429 . S
C2061 C2062 1.523 . S
C2062 C2046 1.368 . S
C2062 C2058 1.368 . S
C2062 C2061 1.523 . S
H2063 C2038 0.950 . S
H2064 C2040 0.950 . S
H2065 C2041 0.949 . S
H2066 C2043 0.950 . S
H2067 C2045 0.950 . S
C2068 C2069 1.349 . S
C2068 C2070 1.327 . S
C2068 H2093 0.950 . S
C2069 C2068 1.349 . S
C2069 C2085 1.349 . S
C2070 C2068 1.327 . S
C2070 C2089 1.429 . S
C2070 H2094 0.950 . S
C2071 C2088 1.574 . S
C2071 C2090 1.368 . S
C2071 H2095 0.949 . S
H2072 C2076 0.949 . S
C2073 C2074 1.349 . S
C2073 C2075 1.327 . S
C2073 H2096 0.950 . S
C2074 C2073 1.349 . S
C2074 C2086 1.349 . S
C2075 C2073 1.327 . S
C2075 C2091 1.429 . S
C2075 H2097 0.950 . S
C2076 H2072 0.949 . S
C2076 C2084 1.574 . S
C2076 C2092 1.368 . S
H2077 C2085 0.950 . S
H2078 C2083 0.950 . S
H2079 C2084 0.949 . S
H2080 C2086 0.950 . S
H2081 C2087 0.950 . S
H2082 C2088 0.949 . S
C2083 H2078 0.950 . S
C2083 C2085 1.327 . S
C2083 C2089 1.429 . S
C2084 C2076 1.574 . S
C2084 H2079 0.949 . S
C2084 C2090 1.368 . S
C2085 C2069 1.349 . S
C2085 H2077 0.950 . S
C2085 C2083 1.327 . S
C2086 C2074 1.349 . S
C2086 H2080 0.950 . S
C2086 C2087 1.327 . S
C2087 H2081 0.950 . S
C2087 C2086 1.327 . S
C2087 C2091 1.429 . S
C2088 C2071 1.574 . S
C2088 H2082 0.949 . S
C2088 C2092 1.368 . S
C2089 C2070 1.429 . S
C2089 C2083 1.429 . S
C2089 C2090 1.523 . S
C2090 C2071 1.368 . S
C2090 C2084 1.368 . S
C2090 C2089 1.523 . S
C2091 C2075 1.429 . S
C2091 C2087 1.429 . S
C2091 C2092 1.523 . S
C2092 C2076 1.368 . S
C2092 C2088 1.368 . S
C2092 C2091 1.523 . S
H2093 C2068 0.950 . S
H2094 C2070 0.950 . S
H2095 C2071 0.949 . S
H2096 C2073 0.950 . S
H2097 C2075 0.950 . S
C2098 C2099 1.349 . S
C2098 C2100 1.327 . S
C2098 H2123 0.950 . S
C2099 C2098 1.349 . S
C2099 C2115 1.349 . S
C2100 C2098 1.327 . S
C2100 C2119 1.429 . S
C2100 H2124 0.950 . S
C2101 C2118 1.574 . S
C2101 C2120 1.368 . S
C2101 H2125 0.949 . S
H2102 C2106 0.949 . S
C2103 C2104 1.349 . S
C2103 C2105 1.327 . S
C2103 H2126 0.950 . S
C2104 C2103 1.349 . S
C2104 C2116 1.349 . S
C2105 C2103 1.327 . S
C2105 C2121 1.429 . S
C2105 H2127 0.950 . S
C2106 H2102 0.949 . S
C2106 C2114 1.574 . S
C2106 C2122 1.368 . S
H2107 C2115 0.950 . S
H2108 C2113 0.950 . S
H2109 C2114 0.949 . S
H2110 C2116 0.950 . S
H2111 C2117 0.950 . S
H2112 C2118 0.949 . S
C2113 H2108 0.950 . S
C2113 C2115 1.327 . S
C2113 C2119 1.429 . S
C2114 C2106 1.574 . S
C2114 H2109 0.949 . S
C2114 C2120 1.368 . S
C2115 C2099 1.349 . S
C2115 H2107 0.950 . S
C2115 C2113 1.327 . S
C2116 C2104 1.349 . S
C2116 H2110 0.950 . S
C2116 C2117 1.327 . S
C2117 H2111 0.950 . S
C2117 C2116 1.327 . S
C2117 C2121 1.429 . S
C2118 C2101 1.574 . S
C2118 H2112 0.949 . S
C2118 C2122 1.368 . S
C2119 C2100 1.429 . S
C2119 C2113 1.429 . S
C2119 C2120 1.523 . S
C2120 C2101 1.368 . S
C2120 C2114 1.368 . S
C2120 C2119 1.523 . S
C2121 C2105 1.429 . S
C2121 C2117 1.429 . S
C2121 C2122 1.523 . S
C2122 C2106 1.368 . S
C2122 C2118 1.368 . S
C2122 C2121 1.523 . S
H2123 C2098 0.950 . S
H2124 C2100 0.950 . S
H2125 C2101 0.949 . S
H2126 C2103 0.950 . S
H2127 C2105 0.950 . S
C2128 C2129 1.349 . S
C2128 C2130 1.327 1_565 S
C2128 H2153 0.950 . S
C2129 C2128 1.349 . S
C2129 C2145 1.349 . S
C2130 C2128 1.327 1_545 S
C2130 C2149 1.429 . S
C2130 H2154 0.950 . S
C2131 C2148 1.574 . S
C2131 C2150 1.368 . S
C2131 H2155 0.949 . S
H2132 C2136 0.949 . S
C2133 C2134 1.349 . S
C2133 C2135 1.327 . S
C2133 H2156 0.950 . S
C2134 C2133 1.349 . S
C2134 C2146 1.349 . S
C2135 C2133 1.327 . S
C2135 C2151 1.429 . S
C2135 H2157 0.950 . S
C2136 H2132 0.949 . S
C2136 C2144 1.574 . S
C2136 C2152 1.368 . S
H2137 C2145 0.950 . S
H2138 C2143 0.950 . S
H2139 C2144 0.949 . S
H2140 C2146 0.950 . S
H2141 C2147 0.950 . S
H2142 C2148 0.949 . S
C2143 H2138 0.950 . S
C2143 C2145 1.327 1_545 S
C2143 C2149 1.429 . S
C2144 C2136 1.574 . S
C2144 H2139 0.949 . S
C2144 C2150 1.368 . S
C2145 C2129 1.349 . S
C2145 H2137 0.950 . S
C2145 C2143 1.327 1_565 S
C2146 C2134 1.349 . S
C2146 H2140 0.950 . S
C2146 C2147 1.327 . S
C2147 H2141 0.950 . S
C2147 C2146 1.327 . S
C2147 C2151 1.429 . S
C2148 C2131 1.574 . S
C2148 H2142 0.949 . S
C2148 C2152 1.368 . S
C2149 C2130 1.429 . S
C2149 C2143 1.429 . S
C2149 C2150 1.523 . S
C2150 C2131 1.368 . S
C2150 C2144 1.368 . S
C2150 C2149 1.523 . S
C2151 C2135 1.429 . S
C2151 C2147 1.429 . S
C2151 C2152 1.523 . S
C2152 C2136 1.368 . S
C2152 C2148 1.368 . S
C2152 C2151 1.523 . S
H2153 C2128 0.950 . S
H2154 C2130 0.950 . S
H2155 C2131 0.949 . S
H2156 C2133 0.950 . S
H2157 C2135 0.950 . S
C2158 C2159 1.349 . S
C2158 C2160 1.327 . S
C2158 H2183 0.950 . S
C2159 C2158 1.349 . S
C2159 C2175 1.349 . S
C2160 C2158 1.327 . S
C2160 C2179 1.429 . S
C2160 H2184 0.950 . S
C2161 C2178 1.574 . S
C2161 C2180 1.368 . S
C2161 H2185 0.949 . S
H2162 C2166 0.949 . S
C2163 C2164 1.349 . S
C2163 C2165 1.327 1_565 S
C2163 H2186 0.950 . S
C2164 C2163 1.349 . S
C2164 C2176 1.349 . S
C2165 C2163 1.327 1_545 S
C2165 C2181 1.429 . S
C2165 H2187 0.950 . S
C2166 H2162 0.949 . S
C2166 C2174 1.574 . S
C2166 C2182 1.368 . S
H2167 C2175 0.950 . S
H2168 C2173 0.950 . S
H2169 C2174 0.949 . S
H2170 C2176 0.950 . S
H2171 C2177 0.950 . S
H2172 C2178 0.949 . S
C2173 H2168 0.950 . S
C2173 C2175 1.327 . S
C2173 C2179 1.429 . S
C2174 C2166 1.574 . S
C2174 H2169 0.949 . S
C2174 C2180 1.368 . S
C2175 C2159 1.349 . S
C2175 H2167 0.950 . S
C2175 C2173 1.327 . S
C2176 C2164 1.349 . S
C2176 H2170 0.950 . S
C2176 C2177 1.327 1_565 S
C2177 H2171 0.950 . S
C2177 C2176 1.327 1_545 S
C2177 C2181 1.429 . S
C2178 C2161 1.574 . S
C2178 H2172 0.949 . S
C2178 C2182 1.368 . S
C2179 C2160 1.429 . S
C2179 C2173 1.429 . S
C2179 C2180 1.523 . S
C2180 C2161 1.368 . S
C2180 C2174 1.368 . S
C2180 C2179 1.523 . S
C2181 C2165 1.429 . S
C2181 C2177 1.429 . S
C2181 C2182 1.523 . S
C2182 C2166 1.368 . S
C2182 C2178 1.368 . S
C2182 C2181 1.523 . S
H2183 C2158 0.950 . S
H2184 C2160 0.950 . S
H2185 C2161 0.949 . S
H2186 C2163 0.950 . S
H2187 C2165 0.950 . S
C2188 C2189 1.349 . S
C2188 C2190 1.327 . S
C2188 H2213 0.950 . S
C2189 C2188 1.349 . S
C2189 C2205 1.349 . S
C2190 C2188 1.327 . S
C2190 C2209 1.429 . S
C2190 H2214 0.950 . S
C2191 C2208 1.574 . S
C2191 C2210 1.368 . S
C2191 H2215 0.949 . S
H2192 C2196 0.949 . S
C2193 C2194 1.349 . S
C2193 C2195 1.327 1_545 S
C2193 H2216 0.950 . S
C2194 C2193 1.349 . S
C2194 C2206 1.349 . S
C2195 C2193 1.327 1_565 S
C2195 C2211 1.429 . S
C2195 H2217 0.950 . S
C2196 H2192 0.949 . S
C2196 C2204 1.574 . S
C2196 C2212 1.368 . S
H2197 C2205 0.950 . S
H2198 C2203 0.950 . S
H2199 C2204 0.949 . S
H2200 C2206 0.950 . S
H2201 C2207 0.950 . S
H2202 C2208 0.949 . S
C2203 H2198 0.950 . S
C2203 C2205 1.327 . S
C2203 C2209 1.429 . S
C2204 C2196 1.574 . S
C2204 H2199 0.949 . S
C2204 C2210 1.368 . S
C2205 C2189 1.349 . S
C2205 H2197 0.950 . S
C2205 C2203 1.327 . S
C2206 C2194 1.349 . S
C2206 H2200 0.950 . S
C2206 C2207 1.327 1_545 S
C2207 H2201 0.950 . S
C2207 C2206 1.327 1_565 S
C2207 C2211 1.429 . S
C2208 C2191 1.574 . S
C2208 H2202 0.949 . S
C2208 C2212 1.368 . S
C2209 C2190 1.429 . S
C2209 C2203 1.429 . S
C2209 C2210 1.523 . S
C2210 C2191 1.368 . S
C2210 C2204 1.368 . S
C2210 C2209 1.523 . S
C2211 C2195 1.429 . S
C2211 C2207 1.429 . S
C2211 C2212 1.523 . S
C2212 C2196 1.368 . S
C2212 C2208 1.368 . S
C2212 C2211 1.523 . S
H2213 C2188 0.950 . S
H2214 C2190 0.950 . S
H2215 C2191 0.949 . S
H2216 C2193 0.950 . S
H2217 C2195 0.950 . S
C2218 C2219 1.349 . S
C2218 C2220 1.327 . S
C2218 H2243 0.950 . S
C2219 C2218 1.349 . S
C2219 C2235 1.349 . S
C2220 C2218 1.327 . S
C2220 C2239 1.429 . S
C2220 H2244 0.950 . S
C2221 C2238 1.574 . S
C2221 C2240 1.368 . S
C2221 H2245 0.949 . S
H2222 C2226 0.949 . S
C2223 C2224 1.349 . S
C2223 C2225 1.327 1_545 S
C2223 H2246 0.950 . S
C2224 C2223 1.349 . S
C2224 C2236 1.349 . S
C2225 C2223 1.327 1_565 S
C2225 C2241 1.429 . S
C2225 H2247 0.950 . S
C2226 H2222 0.949 . S
C2226 C2234 1.574 . S
C2226 C2242 1.368 . S
H2227 C2235 0.950 . S
H2228 C2233 0.950 . S
H2229 C2234 0.949 . S
H2230 C2236 0.950 . S
H2231 C2237 0.950 . S
H2232 C2238 0.949 . S
C2233 H2228 0.950 . S
C2233 C2235 1.327 . S
C2233 C2239 1.429 . S
C2234 C2226 1.574 . S
C2234 H2229 0.949 . S
C2234 C2240 1.368 . S
C2235 C2219 1.349 . S
C2235 H2227 0.950 . S
C2235 C2233 1.327 . S
C2236 C2224 1.349 . S
C2236 H2230 0.950 . S
C2236 C2237 1.327 1_545 S
C2237 H2231 0.950 . S
C2237 C2236 1.327 1_565 S
C2237 C2241 1.429 . S
C2238 C2221 1.574 . S
C2238 H2232 0.949 . S
C2238 C2242 1.368 . S
C2239 C2220 1.429 . S
C2239 C2233 1.429 . S
C2239 C2240 1.523 . S
C2240 C2221 1.368 . S
C2240 C2234 1.368 . S
C2240 C2239 1.523 . S
C2241 C2225 1.429 . S
C2241 C2237 1.429 . S
C2241 C2242 1.523 . S
C2242 C2226 1.368 . S
C2242 C2238 1.368 . S
C2242 C2241 1.523 . S
H2243 C2218 0.950 . S
H2244 C2220 0.950 . S
H2245 C2221 0.949 . S
H2246 C2223 0.950 . S
H2247 C2225 0.950 . S
C2248 C2249 1.349 . S
C2248 C2250 1.327 . S
C2248 H2273 0.950 . S
C2249 C2248 1.349 . S
C2249 C2265 1.349 . S
C2250 C2248 1.327 . S
C2250 C2269 1.429 . S
C2250 H2274 0.950 . S
C2251 C2268 1.574 . S
C2251 C2270 1.368 . S
C2251 H2275 0.949 . S
H2252 C2256 0.949 . S
C2253 C2254 1.349 . S
C2253 C2255 1.327 . S
C2253 H2276 0.950 . S
C2254 C2253 1.349 . S
C2254 C2266 1.349 . S
C2255 C2253 1.327 . S
C2255 C2271 1.429 . S
C2255 H2277 0.950 . S
C2256 H2252 0.949 . S
C2256 C2264 1.574 . S
C2256 C2272 1.368 . S
H2257 C2265 0.950 . S
H2258 C2263 0.950 . S
H2259 C2264 0.949 . S
H2260 C2266 0.950 . S
H2261 C2267 0.950 . S
H2262 C2268 0.949 . S
C2263 H2258 0.950 . S
C2263 C2265 1.327 . S
C2263 C2269 1.429 . S
C2264 C2256 1.574 . S
C2264 H2259 0.949 . S
C2264 C2270 1.368 . S
C2265 C2249 1.349 . S
C2265 H2257 0.950 . S
C2265 C2263 1.327 . S
C2266 C2254 1.349 . S
C2266 H2260 0.950 . S
C2266 C2267 1.327 . S
C2267 H2261 0.950 . S
C2267 C2266 1.327 . S
C2267 C2271 1.429 . S
C2268 C2251 1.574 . S
C2268 H2262 0.949 . S
C2268 C2272 1.368 . S
C2269 C2250 1.429 . S
C2269 C2263 1.429 . S
C2269 C2270 1.523 . S
C2270 C2251 1.368 . S
C2270 C2264 1.368 . S
C2270 C2269 1.523 . S
C2271 C2255 1.429 . S
C2271 C2267 1.429 . S
C2271 C2272 1.523 . S
C2272 C2256 1.368 . S
C2272 C2268 1.368 . S
C2272 C2271 1.523 . S
H2273 C2248 0.950 . S
H2274 C2250 0.950 . S
H2275 C2251 0.949 . S
H2276 C2253 0.950 . S
H2277 C2255 0.950 . S
C2278 C2279 1.349 . S
C2278 C2280 1.327 . S
C2278 H2303 0.950 . S
C2279 C2278 1.349 . S
C2279 C2295 1.349 . S
C2280 C2278 1.327 . S
C2280 C2299 1.429 . S
C2280 H2304 0.950 . S
C2281 C2298 1.574 . S
C2281 C2300 1.368 . S
C2281 H2305 0.949 . S
H2282 C2286 0.949 . S
C2283 C2284 1.349 . S
C2283 C2285 1.327 . S
C2283 H2306 0.950 . S
C2284 C2283 1.349 . S
C2284 C2296 1.349 . S
C2285 C2283 1.327 . S
C2285 C2301 1.429 . S
C2285 H2307 0.950 . S
C2286 H2282 0.949 . S
C2286 C2294 1.574 . S
C2286 C2302 1.368 . S
H2287 C2295 0.950 . S
H2288 C2293 0.950 . S
H2289 C2294 0.949 . S
H2290 C2296 0.950 . S
H2291 C2297 0.950 . S
H2292 C2298 0.949 . S
C2293 H2288 0.950 . S
C2293 C2295 1.327 . S
C2293 C2299 1.429 . S
C2294 C2286 1.574 . S
C2294 H2289 0.949 . S
C2294 C2300 1.368 . S
C2295 C2279 1.349 . S
C2295 H2287 0.950 . S
C2295 C2293 1.327 . S
C2296 C2284 1.349 . S
C2296 H2290 0.950 . S
C2296 C2297 1.327 . S
C2297 H2291 0.950 . S
C2297 C2296 1.327 . S
C2297 C2301 1.429 . S
C2298 C2281 1.574 . S
C2298 H2292 0.949 . S
C2298 C2302 1.368 . S
C2299 C2280 1.429 . S
C2299 C2293 1.429 . S
C2299 C2300 1.523 . S
C2300 C2281 1.368 . S
C2300 C2294 1.368 . S
C2300 C2299 1.523 . S
C2301 C2285 1.429 . S
C2301 C2297 1.429 . S
C2301 C2302 1.523 . S
C2302 C2286 1.368 . S
C2302 C2298 1.368 . S
C2302 C2301 1.523 . S
H2303 C2278 0.950 . S
H2304 C2280 0.950 . S
H2305 C2281 0.949 . S
H2306 C2283 0.950 . S
H2307 C2285 0.950 . S
C2308 C2309 1.349 . S
C2308 C2310 1.327 . S
C2308 H2333 0.950 . S
C2309 C2308 1.349 . S
C2309 C2325 1.349 . S
C2310 C2308 1.327 . S
C2310 C2329 1.429 . S
C2310 H2334 0.950 . S
C2311 C2328 1.574 . S
C2311 C2330 1.368 . S
C2311 H2335 0.949 . S
H2312 C2316 0.949 . S
C2313 C2314 1.349 . S
C2313 C2315 1.327 . S
C2313 H2336 0.950 . S
C2314 C2313 1.349 . S
C2314 C2326 1.349 . S
C2315 C2313 1.327 . S
C2315 C2331 1.429 . S
C2315 H2337 0.950 . S
C2316 H2312 0.949 . S
C2316 C2324 1.574 . S
C2316 C2332 1.368 . S
H2317 C2325 0.950 . S
H2318 C2323 0.950 . S
H2319 C2324 0.949 . S
H2320 C2326 0.950 . S
H2321 C2327 0.950 . S
H2322 C2328 0.949 . S
C2323 H2318 0.950 . S
C2323 C2325 1.327 . S
C2323 C2329 1.429 . S
C2324 C2316 1.574 . S
C2324 H2319 0.949 . S
C2324 C2330 1.368 . S
C2325 C2309 1.349 . S
C2325 H2317 0.950 . S
C2325 C2323 1.327 . S
C2326 C2314 1.349 . S
C2326 H2320 0.950 . S
C2326 C2327 1.327 . S
C2327 H2321 0.950 . S
C2327 C2326 1.327 . S
C2327 C2331 1.429 . S
C2328 C2311 1.574 . S
C2328 H2322 0.949 . S
C2328 C2332 1.368 . S
C2329 C2310 1.429 . S
C2329 C2323 1.429 . S
C2329 C2330 1.523 . S
C2330 C2311 1.368 . S
C2330 C2324 1.368 . S
C2330 C2329 1.523 . S
C2331 C2315 1.429 . S
C2331 C2327 1.429 . S
C2331 C2332 1.523 . S
C2332 C2316 1.368 . S
C2332 C2328 1.368 . S
C2332 C2331 1.523 . S
H2333 C2308 0.950 . S
H2334 C2310 0.950 . S
H2335 C2311 0.949 . S
H2336 C2313 0.950 . S
H2337 C2315 0.950 . S
C2338 C2339 1.349 . S
C2338 C2340 1.327 . S
C2338 H2363 0.950 . S
C2339 C2338 1.349 . S
C2339 C2355 1.349 . S
C2340 C2338 1.327 . S
C2340 C2359 1.429 . S
C2340 H2364 0.950 . S
C2341 C2358 1.574 . S
C2341 C2360 1.368 . S
C2341 H2365 0.949 . S
H2342 C2346 0.949 . S
C2343 C2344 1.349 . S
C2343 C2345 1.327 . S
C2343 H2366 0.950 . S
C2344 C2343 1.349 . S
C2344 C2356 1.349 . S
C2345 C2343 1.327 . S
C2345 C2361 1.429 . S
C2345 H2367 0.950 . S
C2346 H2342 0.949 . S
C2346 C2354 1.574 . S
C2346 C2362 1.368 . S
H2347 C2355 0.950 . S
H2348 C2353 0.950 . S
H2349 C2354 0.949 . S
H2350 C2356 0.950 . S
H2351 C2357 0.950 . S
H2352 C2358 0.949 . S
C2353 H2348 0.950 . S
C2353 C2355 1.327 . S
C2353 C2359 1.429 . S
C2354 C2346 1.574 . S
C2354 H2349 0.949 . S
C2354 C2360 1.368 . S
C2355 C2339 1.349 . S
C2355 H2347 0.950 . S
C2355 C2353 1.327 . S
C2356 C2344 1.349 . S
C2356 H2350 0.950 . S
C2356 C2357 1.327 . S
C2357 H2351 0.950 . S
C2357 C2356 1.327 . S
C2357 C2361 1.429 . S
C2358 C2341 1.574 . S
C2358 H2352 0.949 . S
C2358 C2362 1.368 . S
C2359 C2340 1.429 . S
C2359 C2353 1.429 . S
C2359 C2360 1.523 . S
C2360 C2341 1.368 . S
C2360 C2354 1.368 . S
C2360 C2359 1.523 . S
C2361 C2345 1.429 . S
C2361 C2357 1.429 . S
C2361 C2362 1.523 . S
C2362 C2346 1.368 . S
C2362 C2358 1.368 . S
C2362 C2361 1.523 . S
H2363 C2338 0.950 . S
H2364 C2340 0.950 . S
H2365 C2341 0.949 . S
H2366 C2343 0.950 . S
H2367 C2345 0.950 . S
C449 C35 0.281 . S
C454 C7 0.281 . S
C479 C21 0.281 . S
C484 C49 0.281 . S
C509 C91 0.281 . S
C514 C63 0.281 . S
C539 C105 0.281 . S
C544 C77 0.281 . S
C569 C119 0.281 . S
C574 C147 0.281 . S
C599 C161 0.281 . S
C604 C133 0.281 . S
C629 C175 0.281 . S
C634 C203 0.281 . S
C659 C189 0.281 . S
C664 C217 0.281 . S
C689 C259 0.281 . S
C694 C231 0.281 . S
C719 C245 0.281 . S
C724 C273 0.281 . S
C749 C287 0.281 . S
C754 C315 0.281 . S
C779 C329 0.281 . S
C784 C301 0.281 . S
C809 C371 0.281 . S
C814 C343 0.281 . S
C839 C385 0.281 . S
C844 C357 0.281 . S
C869 C427 0.281 . S
C874 C399 0.281 . S
C899 C413 0.281 . S
C904 C441 0.281 . S
C929 C64 1.593 . S
C934 C8 1.593 . S
C959 C414 1.593 . S
C964 C22 1.593 . S
C989 C36 1.593 . S
C994 C204 1.593 . S
C1019 C50 1.593 . S
C1024 C330 1.593 . S
C1049 C78 1.593 . S
C1054 C358 1.593 . S
C1079 C92 1.593 . S
C1084 C148 1.593 . S
C1109 C274 1.593 . S
C1114 C106 1.593 . S
C1139 C176 1.593 . S
C1144 C120 1.593 . S
C1169 C302 1.593 . S
C1174 C134 1.593 . S
C1199 C162 1.593 . S
C1204 C442 1.593 . S
C1229 C190 1.593 . S
C1234 C246 1.593 . S
C1259 C386 1.593 . S
C1264 C218 1.593 . S
C1289 C288 1.593 . S
C1294 C232 1.593 . S
C1319 C260 1.593 . S
C1324 C428 1.593 . S
C1349 C316 1.593 . S
C1354 C372 1.593 . S
C1379 C400 1.593 . S
C1384 C344 1.593 . S
C1409 C51 1.488 . S
C1414 C9 1.488 . S
C1439 C37 1.487 . S
C1444 C23 1.487 . S
C1469 C107 1.488 . S
C1474 C65 1.488 . S
C1499 C93 1.487 . S
C1504 C79 1.487 . S
C1529 C163 1.488 . S
C1534 C121 1.488 . S
C1559 C149 1.487 . S
C1564 C135 1.487 . S
C1589 C219 1.488 . S
C1594 C177 1.488 . S
C1619 C205 1.487 . S
C1624 C191 1.487 . S
C1649 C233 1.488 . S
C1654 C275 1.488 . S
C1679 C261 1.487 . S
C1684 C247 1.487 . S
C1709 C289 1.488 . S
C1714 C331 1.488 . S
C1739 C317 1.487 . S
C1744 C303 1.487 . S
C1769 C387 1.488 . S
C1774 C345 1.488 . S
C1799 C359 1.487 . S
C1804 C373 1.487 . S
C1829 C401 1.488 . S
C1834 C443 1.488 . S
C1859 C429 1.487 . S
C1864 C415 1.487 . S
C1889 C31 1.472 . S
C1894 C3 1.472 . S
C1919 C17 1.472 . S
C1924 C45 1.472 . S
C1949 C59 1.472 . S
C1954 C87 1.472 . S
C1979 C73 1.472 . S
C1984 C101 1.472 . S
C2009 C115 1.472 . S
C2014 C143 1.472 . S
C2039 C129 1.472 . S
C2044 C157 1.472 . S
C2069 C199 1.472 . S
C2074 C171 1.472 . S
C2099 C213 1.472 . S
C2104 C185 1.472 . S
C2129 C255 1.472 . S
C2134 C227 1.472 . S
C2159 C269 1.472 . S
C2164 C241 1.472 . S
C2189 C283 1.472 . S
C2194 C311 1.472 . S
C2219 C325 1.472 . S
C2224 C297 1.472 . S
C2249 C367 1.472 . S
C2254 C339 1.472 . S
C2279 C353 1.472 . S
C2284 C381 1.472 . S
C2309 C395 1.472 . S
C2314 C423 1.472 . S
C2339 C437 1.472 . S
C2344 C409 1.472 . S
