# Generated by pormake.
# Topology wmz, (6)-cn, num edge types: 1
# Building blocks:
#     Node 0, Type 0, BuildingBlock: IZENUY_clean_sbu_0, # of connection points: 6
#     Node 1, Type 0, BuildingBlock: IZENUY_clean_sbu_0, # of connection points: 6
#     Node 2, Type 0, BuildingBlock: IZENUY_clean_sbu_0, # of connection points: 6
#     Node 3, Type 0, BuildingBlock: IZENUY_clean_sbu_0, # of connection points: 6
#     Node 4, Type 0, BuildingBlock: IZENUY_clean_sbu_0, # of connection points: 6
#     Node 5, Type 0, BuildingBlock: IZENUY_clean_sbu_0, # of connection points: 6
#     Node 6, Type 0, BuildingBlock: IZENUY_clean_sbu_0, # of connection points: 6
#     Node 7, Type 0, BuildingBlock: IZENUY_clean_sbu_0, # of connection points: 6
#     Node 8, Type 0, BuildingBlock: IZENUY_clean_sbu_0, # of connection points: 6
#     Node 9, Type 0, BuildingBlock: IZENUY_clean_sbu_0, # of connection points: 6
#     Node 10, Type 0, BuildingBlock: IZENUY_clean_sbu_0, # of connection points: 6
#     Node 11, Type 0, BuildingBlock: IZENUY_clean_sbu_0, # of connection points: 6
#     Node 12, Type 0, BuildingBlock: IZENUY_clean_sbu_0, # of connection points: 6
#     Node 13, Type 0, BuildingBlock: IZENUY_clean_sbu_0, # of connection points: 6
#     Node 14, Type 0, BuildingBlock: IZENUY_clean_sbu_0, # of connection points: 6
#     Node 15, Type 0, BuildingBlock: IZENUY_clean_sbu_0, # of connection points: 6
#     Node 16, Type 0, BuildingBlock: IZENUY_clean_sbu_0, # of connection points: 6
#     Node 17, Type 0, BuildingBlock: IZENUY_clean_sbu_0, # of connection points: 6
#     Node 18, Type 0, BuildingBlock: IZENUY_clean_sbu_0, # of connection points: 6
#     Node 19, Type 0, BuildingBlock: IZENUY_clean_sbu_0, # of connection points: 6
#     Node 20, Type 0, BuildingBlock: IZENUY_clean_sbu_0, # of connection points: 6
#     Node 21, Type 0, BuildingBlock: IZENUY_clean_sbu_0, # of connection points: 6
#     Node 22, Type 0, BuildingBlock: IZENUY_clean_sbu_0, # of connection points: 6
#     Node 23, Type 0, BuildingBlock: IZENUY_clean_sbu_0, # of connection points: 6
#     Node 24, Type 0, BuildingBlock: IZENUY_clean_sbu_0, # of connection points: 6
#     Node 25, Type 0, BuildingBlock: IZENUY_clean_sbu_0, # of connection points: 6
#     Node 26, Type 0, BuildingBlock: IZENUY_clean_sbu_0, # of connection points: 6
#     Node 27, Type 0, BuildingBlock: IZENUY_clean_sbu_0, # of connection points: 6
#     Node 28, Type 0, BuildingBlock: IZENUY_clean_sbu_0, # of connection points: 6
#     Node 29, Type 0, BuildingBlock: IZENUY_clean_sbu_0, # of connection points: 6
#     Node 30, Type 0, BuildingBlock: IZENUY_clean_sbu_0, # of connection points: 6
#     Node 31, Type 0, BuildingBlock: IZENUY_clean_sbu_0, # of connection points: 6
#     Node 32, Type 0, BuildingBlock: IZENUY_clean_sbu_0, # of connection points: 6
#     Node 33, Type 0, BuildingBlock: IZENUY_clean_sbu_0, # of connection points: 6
#     Node 34, Type 0, BuildingBlock: IZENUY_clean_sbu_0, # of connection points: 6
#     Node 35, Type 0, BuildingBlock: IZENUY_clean_sbu_0, # of connection points: 6
#     Edge 36, Type (0, 0), BuildingBlock: AJUNOK_clean_linker_0, # of connection points: 2
#     Edge 37, Type (0, 0), BuildingBlock: AJUNOK_clean_linker_0, # of connection points: 2
#     Edge 38, Type (0, 0), BuildingBlock: AJUNOK_clean_linker_0, # of connection points: 2
#     Edge 39, Type (0, 0), BuildingBlock: AJUNOK_clean_linker_0, # of connection points: 2
#     Edge 40, Type (0, 0), BuildingBlock: AJUNOK_clean_linker_0, # of connection points: 2
#     Edge 41, Type (0, 0), BuildingBlock: AJUNOK_clean_linker_0, # of connection points: 2
#     Edge 42, Type (0, 0), BuildingBlock: AJUNOK_clean_linker_0, # of connection points: 2
#     Edge 43, Type (0, 0), BuildingBlock: AJUNOK_clean_linker_0, # of connection points: 2
#     Edge 44, Type (0, 0), BuildingBlock: AJUNOK_clean_linker_0, # of connection points: 2
#     Edge 45, Type (0, 0), BuildingBlock: AJUNOK_clean_linker_0, # of connection points: 2
#     Edge 46, Type (0, 0), BuildingBlock: AJUNOK_clean_linker_0, # of connection points: 2
#     Edge 47, Type (0, 0), BuildingBlock: AJUNOK_clean_linker_0, # of connection points: 2
#     Edge 48, Type (0, 0), BuildingBlock: AJUNOK_clean_linker_0, # of connection points: 2
#     Edge 49, Type (0, 0), BuildingBlock: AJUNOK_clean_linker_0, # of connection points: 2
#     Edge 50, Type (0, 0), BuildingBlock: AJUNOK_clean_linker_0, # of connection points: 2
#     Edge 51, Type (0, 0), BuildingBlock: AJUNOK_clean_linker_0, # of connection points: 2
#     Edge 52, Type (0, 0), BuildingBlock: AJUNOK_clean_linker_0, # of connection points: 2
#     Edge 53, Type (0, 0), BuildingBlock: AJUNOK_clean_linker_0, # of connection points: 2
#     Edge 54, Type (0, 0), BuildingBlock: AJUNOK_clean_linker_0, # of connection points: 2
#     Edge 55, Type (0, 0), BuildingBlock: AJUNOK_clean_linker_0, # of connection points: 2
#     Edge 56, Type (0, 0), BuildingBlock: AJUNOK_clean_linker_0, # of connection points: 2
#     Edge 57, Type (0, 0), BuildingBlock: AJUNOK_clean_linker_0, # of connection points: 2
#     Edge 58, Type (0, 0), BuildingBlock: AJUNOK_clean_linker_0, # of connection points: 2
#     Edge 59, Type (0, 0), BuildingBlock: AJUNOK_clean_linker_0, # of connection points: 2
#     Edge 60, Type (0, 0), BuildingBlock: AJUNOK_clean_linker_0, # of connection points: 2
#     Edge 61, Type (0, 0), BuildingBlock: AJUNOK_clean_linker_0, # of connection points: 2
#     Edge 62, Type (0, 0), BuildingBlock: AJUNOK_clean_linker_0, # of connection points: 2
#     Edge 63, Type (0, 0), BuildingBlock: AJUNOK_clean_linker_0, # of connection points: 2
#     Edge 64, Type (0, 0), BuildingBlock: AJUNOK_clean_linker_0, # of connection points: 2
#     Edge 65, Type (0, 0), BuildingBlock: AJUNOK_clean_linker_0, # of connection points: 2
#     Edge 66, Type (0, 0), BuildingBlock: AJUNOK_clean_linker_0, # of connection points: 2
#     Edge 67, Type (0, 0), BuildingBlock: AJUNOK_clean_linker_0, # of connection points: 2
#     Edge 68, Type (0, 0), BuildingBlock: AJUNOK_clean_linker_0, # of connection points: 2
#     Edge 69, Type (0, 0), BuildingBlock: AJUNOK_clean_linker_0, # of connection points: 2
#     Edge 70, Type (0, 0), BuildingBlock: AJUNOK_clean_linker_0, # of connection points: 2
#     Edge 71, Type (0, 0), BuildingBlock: AJUNOK_clean_linker_0, # of connection points: 2
#     Edge 72, Type (0, 0), BuildingBlock: AJUNOK_clean_linker_0, # of connection points: 2
#     Edge 73, Type (0, 0), BuildingBlock: AJUNOK_clean_linker_0, # of connection points: 2
#     Edge 74, Type (0, 0), BuildingBlock: AJUNOK_clean_linker_0, # of connection points: 2
#     Edge 75, Type (0, 0), BuildingBlock: AJUNOK_clean_linker_0, # of connection points: 2
#     Edge 76, Type (0, 0), BuildingBlock: AJUNOK_clean_linker_0, # of connection points: 2
#     Edge 77, Type (0, 0), BuildingBlock: AJUNOK_clean_linker_0, # of connection points: 2
#     Edge 78, Type (0, 0), BuildingBlock: AJUNOK_clean_linker_0, # of connection points: 2
#     Edge 79, Type (0, 0), BuildingBlock: AJUNOK_clean_linker_0, # of connection points: 2
#     Edge 80, Type (0, 0), BuildingBlock: AJUNOK_clean_linker_0, # of connection points: 2
#     Edge 81, Type (0, 0), BuildingBlock: AJUNOK_clean_linker_0, # of connection points: 2
#     Edge 82, Type (0, 0), BuildingBlock: AJUNOK_clean_linker_0, # of connection points: 2
#     Edge 83, Type (0, 0), BuildingBlock: AJUNOK_clean_linker_0, # of connection points: 2
#     Edge 84, Type (0, 0), BuildingBlock: AJUNOK_clean_linker_0, # of connection points: 2
#     Edge 85, Type (0, 0), BuildingBlock: AJUNOK_clean_linker_0, # of connection points: 2
#     Edge 86, Type (0, 0), BuildingBlock: AJUNOK_clean_linker_0, # of connection points: 2
#     Edge 87, Type (0, 0), BuildingBlock: AJUNOK_clean_linker_0, # of connection points: 2
#     Edge 88, Type (0, 0), BuildingBlock: AJUNOK_clean_linker_0, # of connection points: 2
#     Edge 89, Type (0, 0), BuildingBlock: AJUNOK_clean_linker_0, # of connection points: 2
#     Edge 90, Type (0, 0), BuildingBlock: AJUNOK_clean_linker_0, # of connection points: 2
#     Edge 91, Type (0, 0), BuildingBlock: AJUNOK_clean_linker_0, # of connection points: 2
#     Edge 92, Type (0, 0), BuildingBlock: AJUNOK_clean_linker_0, # of connection points: 2
#     Edge 93, Type (0, 0), BuildingBlock: AJUNOK_clean_linker_0, # of connection points: 2
#     Edge 94, Type (0, 0), BuildingBlock: AJUNOK_clean_linker_0, # of connection points: 2
#     Edge 95, Type (0, 0), BuildingBlock: AJUNOK_clean_linker_0, # of connection points: 2
#     Edge 96, Type (0, 0), BuildingBlock: AJUNOK_clean_linker_0, # of connection points: 2
#     Edge 97, Type (0, 0), BuildingBlock: AJUNOK_clean_linker_0, # of connection points: 2
#     Edge 98, Type (0, 0), BuildingBlock: AJUNOK_clean_linker_0, # of connection points: 2
#     Edge 99, Type (0, 0), BuildingBlock: AJUNOK_clean_linker_0, # of connection points: 2
#     Edge 100, Type (0, 0), BuildingBlock: AJUNOK_clean_linker_0, # of connection points: 2
#     Edge 101, Type (0, 0), BuildingBlock: AJUNOK_clean_linker_0, # of connection points: 2
#     Edge 102, Type (0, 0), BuildingBlock: AJUNOK_clean_linker_0, # of connection points: 2
#     Edge 103, Type (0, 0), BuildingBlock: AJUNOK_clean_linker_0, # of connection points: 2
#     Edge 104, Type (0, 0), BuildingBlock: AJUNOK_clean_linker_0, # of connection points: 2
#     Edge 105, Type (0, 0), BuildingBlock: AJUNOK_clean_linker_0, # of connection points: 2
#     Edge 106, Type (0, 0), BuildingBlock: AJUNOK_clean_linker_0, # of connection points: 2
#     Edge 107, Type (0, 0), BuildingBlock: AJUNOK_clean_linker_0, # of connection points: 2
#     Edge 108, Type (0, 0), BuildingBlock: AJUNOK_clean_linker_0, # of connection points: 2
#     Edge 109, Type (0, 0), BuildingBlock: AJUNOK_clean_linker_0, # of connection points: 2
#     Edge 110, Type (0, 0), BuildingBlock: AJUNOK_clean_linker_0, # of connection points: 2
#     Edge 111, Type (0, 0), BuildingBlock: AJUNOK_clean_linker_0, # of connection points: 2
#     Edge 112, Type (0, 0), BuildingBlock: AJUNOK_clean_linker_0, # of connection points: 2
#     Edge 113, Type (0, 0), BuildingBlock: AJUNOK_clean_linker_0, # of connection points: 2
#     Edge 114, Type (0, 0), BuildingBlock: AJUNOK_clean_linker_0, # of connection points: 2
#     Edge 115, Type (0, 0), BuildingBlock: AJUNOK_clean_linker_0, # of connection points: 2
#     Edge 116, Type (0, 0), BuildingBlock: AJUNOK_clean_linker_0, # of connection points: 2
#     Edge 117, Type (0, 0), BuildingBlock: AJUNOK_clean_linker_0, # of connection points: 2
#     Edge 118, Type (0, 0), BuildingBlock: AJUNOK_clean_linker_0, # of connection points: 2
#     Edge 119, Type (0, 0), BuildingBlock: AJUNOK_clean_linker_0, # of connection points: 2
#     Edge 120, Type (0, 0), BuildingBlock: AJUNOK_clean_linker_0, # of connection points: 2
#     Edge 121, Type (0, 0), BuildingBlock: AJUNOK_clean_linker_0, # of connection points: 2
#     Edge 122, Type (0, 0), BuildingBlock: AJUNOK_clean_linker_0, # of connection points: 2
#     Edge 123, Type (0, 0), BuildingBlock: AJUNOK_clean_linker_0, # of connection points: 2
#     Edge 124, Type (0, 0), BuildingBlock: AJUNOK_clean_linker_0, # of connection points: 2
#     Edge 125, Type (0, 0), BuildingBlock: AJUNOK_clean_linker_0, # of connection points: 2
#     Edge 126, Type (0, 0), BuildingBlock: AJUNOK_clean_linker_0, # of connection points: 2
#     Edge 127, Type (0, 0), BuildingBlock: AJUNOK_clean_linker_0, # of connection points: 2
#     Edge 128, Type (0, 0), BuildingBlock: AJUNOK_clean_linker_0, # of connection points: 2
#     Edge 129, Type (0, 0), BuildingBlock: AJUNOK_clean_linker_0, # of connection points: 2
#     Edge 130, Type (0, 0), BuildingBlock: AJUNOK_clean_linker_0, # of connection points: 2
#     Edge 131, Type (0, 0), BuildingBlock: AJUNOK_clean_linker_0, # of connection points: 2
#     Edge 132, Type (0, 0), BuildingBlock: AJUNOK_clean_linker_0, # of connection points: 2
#     Edge 133, Type (0, 0), BuildingBlock: AJUNOK_clean_linker_0, # of connection points: 2
#     Edge 134, Type (0, 0), BuildingBlock: AJUNOK_clean_linker_0, # of connection points: 2
#     Edge 135, Type (0, 0), BuildingBlock: AJUNOK_clean_linker_0, # of connection points: 2
#     Edge 136, Type (0, 0), BuildingBlock: AJUNOK_clean_linker_0, # of connection points: 2
#     Edge 137, Type (0, 0), BuildingBlock: AJUNOK_clean_linker_0, # of connection points: 2
#     Edge 138, Type (0, 0), BuildingBlock: AJUNOK_clean_linker_0, # of connection points: 2
#     Edge 139, Type (0, 0), BuildingBlock: AJUNOK_clean_linker_0, # of connection points: 2
#     Edge 140, Type (0, 0), BuildingBlock: AJUNOK_clean_linker_0, # of connection points: 2
#     Edge 141, Type (0, 0), BuildingBlock: AJUNOK_clean_linker_0, # of connection points: 2
#     Edge 142, Type (0, 0), BuildingBlock: AJUNOK_clean_linker_0, # of connection points: 2
#     Edge 143, Type (0, 0), BuildingBlock: AJUNOK_clean_linker_0, # of connection points: 2
# Relax obj value: 0.490
# Max RMSD: 0.222
# Mean RMSD: 0.222
data_MOF--net-wmz--node1-IZENUY_clean_sbu_0--edge1-AJUNOK_clean_linker_0
_symmetry_space_group_name_H-M    P1
_symmetry_Int_Tables_number       1
_symmetry_cell_setting            triclinic
loop_
_symmetry_equiv_pos_as_xyz
'x, y, z'
_cell_length_a     35.825178
_cell_length_b     35.920829
_cell_length_c     44.513041
_cell_angle_alpha  90.054823
_cell_angle_beta   89.962508
_cell_angle_gamma 120.1088
loop_
_atom_site_label
_atom_site_type_symbol
_atom_site_fract_x
_atom_site_fract_y
_atom_site_fract_z
_atom_type_partial_charge
Fe0 Fe 0.21246 0.19477 0.1313 0.0
Fe1 Fe 0.16372 0.16897 0.07231 0.0
O2 O 0.21318 0.19052 0.09193 0.0
Fe3 Fe 0.26422 0.20904 0.07439 0.0
O4 O 0.28936 0.25555 0.09934 0.0
O5 O 0.23695 0.25493 0.125 0.0
O6 O 0.159 0.18837 0.13578 0.0
C7 C 0.1349 0.19531 0.11928 0.0
C8 C 0.28402 0.18342 0.12628 0.0
O9 O 0.14442 0.2014 0.09178 0.0
C10 C 0.20907 0.13581 0.04062 0.0
O11 O 0.18692 0.13396 0.13297 0.0
O12 O 0.13715 0.12522 0.09951 0.0
O13 O 0.27771 0.17642 0.09861 0.0
O14 O 0.26565 0.20091 0.13934 0.0
C15 C 0.22313 0.23841 0.03551 0.0
O16 O 0.17491 0.13335 0.0504 0.0
O17 O 0.24577 0.16609 0.04757 0.0
C18 C 0.15389 0.10888 0.11634 0.0
O19 O 0.18536 0.20975 0.04303 0.0
O20 O 0.25665 0.24225 0.04755 0.0
C21 C 0.27062 0.27559 0.10801 0.0
Fe22 Fe 0.8656 0.04711 0.12913 0.0
Fe23 Fe 0.93034 0.04581 0.08557 0.0
O24 O 0.88843 0.05667 0.09285 0.0
Fe25 Fe 0.86976 0.07821 0.06477 0.0
O26 O 0.81445 0.05062 0.0789 0.0
O27 O 0.81217 1.00515 0.11284 0.0
O28 O 0.87829 1.00409 0.13961 0.0
C29 C 0.88615 0.97966 0.12341 0.0
C30 C 0.87042 0.12458 0.11345 0.0
O31 O 0.89737 0.99001 0.09657 0.0
C32 C 0.95948 0.11955 0.05355 0.0
O33 O 0.91859 0.09035 0.14385 0.0
O34 O 0.95378 0.06213 0.12286 0.0
O35 O 0.88489 0.12601 0.08738 0.0
O36 O 0.85029 0.08883 0.12701 0.0
C37 C 0.87898 1.01815 0.03317 0.0
O38 O 0.96667 0.1 0.07396 0.0
O39 O 0.92146 0.10849 0.0457 0.0
C40 C 0.95417 0.09171 0.13829 0.0
O41 O 0.91347 0.02885 0.04733 0.0
O42 O 0.85428 0.03225 0.04043 0.0
C43 C 0.79446 1.01354 0.09062 0.0
Fe44 Fe 0.96065 0.78343 0.05442 0.0
Fe45 Fe 1.0073 0.83655 0.11137 0.0
O46 O 0.9798 0.83041 0.07687 0.0
Fe47 Fe 0.96847 0.87046 0.06503 0.0
O48 O 1.00228 0.88156 0.03251 0.0
O49 O 0.97097 0.81305 0.01884 0.0
O50 O 1.01353 0.79167 0.04994 0.0
C51 C 0.04033 0.796 0.06957 0.0
C52 C 0.89355 0.79548 0.04551 0.0
O53 O 0.03799 0.80933 0.09619 0.0
C54 C 0.94602 0.8653 0.12313 0.0
O55 O 0.94798 0.74587 0.0857 0.0
O56 O 0.96286 0.78626 0.12585 0.0
O57 O 0.92059 0.83501 0.04321 0.0
O58 O 0.90514 0.77103 0.05684 0.0
C59 C 0.04984 0.92156 0.09492 0.0
O60 O 0.98016 0.86412 0.13059 0.0
O61 O 0.93344 0.85906 0.09637 0.0
C62 C 0.94204 0.75009 0.11316 0.0
O63 O 0.05409 0.88941 0.10126 0.0
O64 O 1.01432 0.91546 0.08446 0.0
C65 C 0.99518 0.85281 0.01329 0.0
Fe66 Fe 0.16127 0.16096 0.3886 0.0
Fe67 Fe 0.22313 0.25943 0.39237 0.0
O68 O 0.19706 0.2105 0.37161 0.0
Fe69 Fe 0.2074 0.21148 0.33273 0.0
O70 O 0.19281 0.15419 0.32892 0.0
O71 O 0.1914 0.13575 0.37535 0.0
O72 O 0.19235 0.17314 0.42286 0.0
C73 C 0.22864 0.20346 0.431 0.0
C74 C 0.11832 0.1639 0.33718 0.0
O75 O 0.2476 0.23937 0.41812 0.0
C76 C 0.20866 0.28993 0.34063 0.0
O77 O 0.12812 0.18126 0.40357 0.0
O78 O 0.17881 0.24514 0.41863 0.0
O79 O 0.15046 0.19649 0.32497 0.0
O80 O 0.12437 0.1417 0.35656 0.0
C81 C 0.28816 0.25864 0.35935 0.0
O82 O 0.20009 0.2836 0.36826 0.0
O83 O 0.22256 0.26827 0.32711 0.0
C84 C 0.14046 0.21431 0.41953 0.0
O85 O 0.27283 0.28079 0.37024 0.0
O86 O 0.26438 0.22665 0.3421 0.0
C87 C 0.19265 0.12804 0.34796 0.0
Fe88 Fe 0.85142 1.00677 0.34039 0.0
Fe89 Fe 0.90719 1.00255 0.39049 0.0
O90 O 0.85617 0.99131 0.37705 0.0
Fe91 Fe 0.80921 0.96414 0.39929 0.0
O92 O 0.78464 0.99323 0.3831 0.0
O93 O 0.83535 0.04544 0.35713 0.0
O94 O 0.90795 0.05159 0.33731 0.0
C95 C 0.93625 0.07416 0.35672 0.0
C96 C 0.77471 0.92659 0.34586 0.0
O97 O 0.93123 0.06026 0.38336 0.0
C98 C 0.85489 0.92174 0.41343 0.0
O99 O 0.86723 0.9675 0.32561 0.0
O100 O 0.92497 0.99409 0.35416 0.0
O101 O 0.78364 0.92096 0.37217 0.0
O102 O 0.79444 0.96411 0.33466 0.0
C103 C 0.86709 1.01573 0.44127 0.0
O104 O 0.88787 0.94628 0.39824 0.0
O105 O 0.82621 0.9313 0.4188 0.0
C106 C 0.90134 0.96751 0.33445 0.0
O107 O 0.8967 1.01166 0.42901 0.0
O108 O 0.83183 1.00466 0.42835 0.0
C109 C 0.80471 0.03268 0.37662 0.0
Fe110 Fe 0.05002 0.85348 0.34624 0.0
Fe111 Fe 0.05828 0.90795 0.40186 0.0
O112 O 0.06413 0.86673 0.38452 0.0
Fe113 Fe 0.08457 0.83971 0.4071 0.0
O114 O 0.03684 0.78894 0.40204 0.0
O115 O 1.02055 0.79328 0.35442 0.0
O116 O 0.99702 0.85019 0.34891 0.0
C117 C 0.99096 0.87982 0.35841 0.0
C118 C 0.12269 0.84299 0.35087 0.0
O119 O 1.01694 0.9065 0.37702 0.0
C120 C 0.13491 0.92051 0.42697 0.0
O121 O 0.0786 0.91245 0.33488 0.0
O122 O 0.09936 0.94767 0.37854 0.0
O123 O 0.11317 0.82925 0.37735 0.0
O124 O 0.10079 0.85595 0.33699 0.0
C125 C 1.02414 0.84502 0.44354 0.0
O126 O 0.10029 0.92133 0.42988 0.0
O127 O 0.13458 0.8893 0.41411 0.0
C128 C 0.10243 0.94686 0.35036 0.0
O129 O 1.01658 0.86817 0.42597 0.0
O130 O 0.05886 0.84398 0.44151 0.0
C131 C 1.01391 0.7721 0.37924 0.0
Fe132 Fe 0.90639 0.88314 0.89768 0.0
Fe133 Fe 0.80639 0.84532 0.89432 0.0
O134 O 0.85738 0.86125 0.87759 0.0
Fe135 Fe 0.85803 0.85274 0.83873 0.0
O136 O 0.91253 0.86167 0.83413 0.0
O137 O 0.92861 0.85317 0.87853 0.0
O138 O 0.88467 0.84035 0.92555 0.0
C139 C 0.84659 0.81624 0.93519 0.0
C140 C 0.91504 0.94026 0.85002 0.0
O141 O 0.81409 0.81659 0.92471 0.0
C142 C 0.78541 0.86253 0.83974 0.0
O143 O 0.89404 0.91631 0.921 0.0
O144 O 0.8243 0.89217 0.91755 0.0
O145 O 0.88248 0.91247 0.83402 0.0
O146 O 0.93117 0.9286 0.87126 0.0
C147 C 0.80087 0.77451 0.86554 0.0
O148 O 0.79245 0.8739 0.86668 0.0
O149 O 0.80401 0.84367 0.82915 0.0
C150 C 0.86088 0.91795 0.92785 0.0
O151 O 0.78188 0.79501 0.87302 0.0
O152 O 0.83476 0.79373 0.84848 0.0
C153 C 0.9382 0.85833 0.85123 0.0
Fe154 Fe 0.20819 1.00575 0.84409 0.0
Fe155 Fe 0.14272 1.00846 0.88615 0.0
O156 O 0.18265 0.9944 0.87945 0.0
Fe157 Fe 0.19697 0.9683 0.90685 0.0
O158 O 0.2535 0.99543 0.89503 0.0
O159 O 0.26098 0.04487 0.86273 0.0
O160 O 0.19903 0.05083 0.83432 0.0
C161 C 0.1934 0.07616 0.85099 0.0
C162 C 0.19953 0.92601 0.85683 0.0
O163 O 0.18 0.0646 0.87738 0.0
C164 C 0.10661 0.93108 0.91496 0.0
O165 O 0.155 0.96512 0.82751 0.0
O166 O 0.12238 0.99654 0.84775 0.0
O167 O 0.18209 0.9223 0.88211 0.0
O168 O 0.22159 0.96289 0.84532 0.0
C169 C 0.18852 0.02706 0.94085 0.0
O170 O 0.10251 0.95411 0.89554 0.0
O171 O 0.14332 0.93818 0.92328 0.0
C172 C 0.12035 0.96627 0.83216 0.0
O173 O 0.15665 1.02152 0.92533 0.0
O174 O 0.21208 1.01179 0.93334 0.0
C175 C 0.27565 0.0336 0.88532 0.0
Fe176 Fe 0.09975 0.17697 0.90376 0.0
Fe177 Fe 0.10466 0.26321 0.9122 0.0
O178 O 0.0888 0.21649 0.89008 0.0
Fe179 Fe 0.06458 0.20995 0.85429 0.0
O180 O 1.01738 0.15677 0.86367 0.0
O181 O 0.05654 0.13153 0.88266 0.0
O182 O 0.06276 0.16533 0.93442 0.0
C183 C 0.06781 0.19408 0.95307 0.0
C184 C 0.12868 0.18438 0.84691 0.0
O185 O 0.09232 0.23382 0.94785 0.0
C186 C 0.12894 0.29668 0.85397 0.0
O187 O 0.14536 0.21329 0.92723 0.0
O188 O 0.1607 0.27701 0.91256 0.0
O189 O 0.09439 0.18366 0.83745 0.0
O190 O 0.13774 0.18892 0.87437 0.0
C191 C 1.0258 0.24805 0.89274 0.0
O192 O 0.11877 0.30042 0.88051 0.0
O193 O 0.10995 0.26062 0.84096 0.0
C194 C 0.17211 0.25295 0.92486 0.0
O195 O 0.05075 0.25333 0.91405 0.0
O196 O 1.03204 0.23625 0.86664 0.0
C197 C 1.02162 0.1248 0.87068 0.0
Fe198 Fe 0.84625 0.78962 0.56648 0.0
Fe199 Fe 0.86515 0.84547 0.62367 0.0
O200 O 0.87576 0.83969 0.58566 0.0
Fe201 Fe 0.91681 0.88364 0.56615 0.0
O202 O 0.87792 0.88285 0.54015 0.0
O203 O 0.85081 0.81417 0.5297 0.0
O204 O 0.79762 0.79086 0.57046 0.0
C205 C 0.78216 0.79757 0.59366 0.0
C206 C 0.92523 0.81412 0.54522 0.0
O207 O 0.80433 0.81054 0.61822 0.0
C208 C 0.95848 0.88944 0.61799 0.0
O209 O 0.83531 0.75546 0.59974 0.0
O210 O 0.87274 0.80128 0.63501 0.0
O211 O 0.92916 0.85078 0.54151 0.0
O212 O 0.89425 0.7858 0.56026 0.0
C213 C 0.88645 0.9263 0.60562 0.0
O214 O 0.92463 0.88175 0.63308 0.0
O215 O 0.95668 0.88451 0.59016 0.0
C216 C 0.85593 0.76404 0.62415 0.0
O217 O 0.8578 0.89146 0.61687 0.0
O218 O 0.91423 0.92623 0.58804 0.0
C219 C 0.8574 0.8511 0.5228 0.0
Fe220 Fe 0.22586 0.04643 0.62072 0.0
Fe221 Fe 0.18548 0.05937 0.56327 0.0
O222 O 0.22973 0.06254 0.58271 0.0
Fe223 Fe 0.28038 0.08213 0.56436 0.0
O224 O 0.29787 0.05428 0.58912 0.0
O225 O 0.23997 1.00375 0.60813 0.0
O226 O 0.16842 1.005 0.6204 0.0
C227 C 0.1397 0.98923 0.60037 0.0
C228 C 0.30425 0.1253 0.61714 0.0
O229 O 0.14815 1.0036 0.57384 0.0
C230 C 0.25044 0.13083 0.53593 0.0
O231 O 0.21083 0.08705 0.63284 0.0
O232 O 0.16812 0.07912 0.59428 0.0
O233 O 0.30361 0.1283 0.58891 0.0
O234 O 0.28221 0.08856 0.62971 0.0
C235 C 0.2243 0.02675 0.52269 0.0
O236 O 0.21637 0.11515 0.55113 0.0
O237 O 0.27361 0.1141 0.53655 0.0
C238 C 0.18443 0.09558 0.61931 0.0
O239 O 0.19792 0.03947 0.52921 0.0
O240 O 0.2577 0.03681 0.53828 0.0
C241 C 0.27517 1.01501 0.59386 0.0
Fe242 Fe 1.01436 0.19106 0.62494 0.0
Fe243 Fe 1.0128 0.13068 0.57647 0.0
O244 O 1.0032 0.17222 0.58762 0.0
Fe245 Fe 0.98192 0.19444 0.56191 0.0
O246 O 1.01078 0.24798 0.57818 0.0
O247 O 0.05564 0.24586 0.61082 0.0
O248 O 0.05855 0.17838 0.63101 0.0
C249 C 0.08242 0.17279 0.61248 0.0
C250 C 0.9367 0.19054 0.61265 0.0
O251 O 0.06985 0.16265 0.58571 0.0
C252 C 0.93654 0.10596 0.54797 0.0
O253 O 0.97214 0.13648 0.6382 0.0
O254 O 1.00034 0.10441 0.61304 0.0
O255 O 0.93482 0.1789 0.58563 0.0
O256 O 0.97215 0.2062 0.62683 0.0
C257 C 0.04062 0.18647 0.52717 0.0
O258 O 0.95694 0.09626 0.56641 0.0
O259 O 0.94978 0.14474 0.5412 0.0
C260 C 0.97209 0.10206 0.63096 0.0
O261 O 1.02622 0.14956 0.53828 0.0
O262 O 1.02766 0.21123 0.53652 0.0
C263 C 0.04776 0.26573 0.58996 0.0
Fe264 Fe 0.88607 0.52279 0.45964 0.0
Fe265 Fe 0.82547 0.46226 0.41151 0.0
O266 O 0.87807 0.50161 0.42285 0.0
Fe267 Fe 0.92325 0.51981 0.3988 0.0
O268 O 0.94911 0.57461 0.41356 0.0
O269 O 0.90134 0.57699 0.44321 0.0
O270 O 0.82993 0.51141 0.46571 0.0
C271 C 0.80055 0.50627 0.4475 0.0
C272 C 0.96096 0.51794 0.45163 0.0
O273 O 0.80346 0.49707 0.4206 0.0
C274 C 0.87341 0.43114 0.38478 0.0
O275 O 0.87191 0.46844 0.47414 0.0
O276 O 0.81148 0.43648 0.44848 0.0
O277 O 0.95119 0.50335 0.42529 0.0
O278 O 0.94306 0.5374 0.46283 0.0
C279 C 0.86176 0.51312 0.35906 0.0
O280 O 0.84208 0.42421 0.4013 0.0
O281 O 0.90422 0.4687 0.38008 0.0
C282 C 0.83751 0.43402 0.46641 0.0
O283 O 0.83234 0.48121 0.37299 0.0
O284 O 0.89883 0.53658 0.37011 0.0
C285 C 0.93041 0.59452 0.42261 0.0
Fe286 Fe 0.53401 0.41516 0.39197 0.0
Fe287 Fe 0.53271 0.37301 0.45146 0.0
O288 O 0.55486 0.39014 0.41537 0.0
Fe289 Fe 0.59763 0.38288 0.40316 0.0
O290 O 0.57942 0.37281 0.36443 0.0
O291 O 0.51801 0.37343 0.36404 0.0
O292 O 0.47999 0.3854 0.40762 0.0
C293 C 0.4607 0.34608 0.41423 0.0
C294 C 0.62236 0.46267 0.38026 0.0
O295 O 0.47886 0.33353 0.43357 0.0
C296 C 0.62163 0.41621 0.46044 0.0
O297 O 0.54976 0.45846 0.41857 0.0
O298 O 0.51733 0.41496 0.45628 0.0
O299 O 0.63206 0.43987 0.39624 0.0
O300 O 0.58391 0.44894 0.37247 0.0
C301 C 0.55596 0.30933 0.43526 0.0
O302 O 0.58579 0.41304 0.46811 0.0
O303 O 0.62238 0.39206 0.44018 0.0
C304 C 0.53553 0.45265 0.44502 0.0
O305 O 0.54648 0.32924 0.45475 0.0
O306 O 0.56667 0.32498 0.40925 0.0
C307 C 0.54306 0.36196 0.35303 0.0
Fe308 Fe 0.66005 0.11909 0.39848 0.0
Fe309 Fe 0.68887 0.16907 0.45741 0.0
O310 O 0.6824 0.16932 0.41801 0.0
Fe311 Fe 0.69874 0.21888 0.39958 0.0
O312 O 0.72357 0.2066 0.36827 0.0
O313 O 0.70533 0.13796 0.37311 0.0
O314 O 0.68753 0.09935 0.42253 0.0
C315 C 0.72467 0.12236 0.43368 0.0
C316 C 0.62537 0.16241 0.36682 0.0
O317 O 0.73178 0.15446 0.45044 0.0
C318 C 0.64696 0.21613 0.44875 0.0
O319 O 0.61142 0.09527 0.42164 0.0
O320 O 0.64729 0.11232 0.46344 0.0
O321 O 0.64824 0.19807 0.37962 0.0
O322 O 0.63052 0.13081 0.37101 0.0
C323 C 0.75744 0.25394 0.44489 0.0
O324 O 0.64657 0.18441 0.4625 0.0
O325 O 0.67473 0.23701 0.42846 0.0
C326 C 0.61234 0.08967 0.44946 0.0
O327 O 0.73039 0.22577 0.46225 0.0
O328 O 0.75236 0.24719 0.41705 0.0
C329 C 0.72675 0.17427 0.3608 0.0
Fe330 Fe 0.80896 0.50463 0.73331 0.0
Fe331 Fe 0.88002 0.59757 0.73922 0.0
O332 O 0.85293 0.55002 0.71718 0.0
Fe333 Fe 0.86814 0.54762 0.67984 0.0
O334 O 0.87283 0.49969 0.68593 0.0
O335 O 0.81137 0.46365 0.70929 0.0
O336 O 0.84481 0.5005 0.75967 0.0
C337 C 0.86746 0.53093 0.7776 0.0
C338 C 0.77439 0.50666 0.68026 0.0
O339 O 0.87163 0.56789 0.77441 0.0
C340 C 0.8786 0.62992 0.68201 0.0
O341 O 0.79555 0.53494 0.75977 0.0
O342 O 0.83165 0.60098 0.74358 0.0
O343 O 0.8095 0.51378 0.667 0.0
O344 O 0.77324 0.50954 0.70821 0.0
C345 C 0.94757 0.59236 0.71503 0.0
O346 O 0.89457 0.63542 0.70799 0.0
O347 O 0.86379 0.59411 0.66905 0.0
C348 C 0.79931 0.57163 0.75672 0.0
O349 O 0.92902 0.59733 0.7371 0.0
O350 O 0.92833 0.58041 0.68925 0.0
C351 C 0.84113 0.46414 0.69367 0.0
Fe352 Fe 0.51383 0.34128 0.68779 0.0
Fe353 Fe 0.55493 0.31046 0.73427 0.0
O354 O 0.51073 0.3157 0.72237 0.0
Fe355 Fe 0.46442 0.29334 0.74571 0.0
O356 O 0.46338 0.34175 0.74779 0.0
O357 O 0.48797 0.37259 0.70377 0.0
O358 O 0.56618 0.3891 0.69605 0.0
C359 C 0.5997 0.38664 0.69956 0.0
C360 C 0.42844 0.27194 0.68757 0.0
O361 O 0.59626 0.35299 0.71082 0.0
C362 C 0.4873 0.23503 0.75809 0.0
O363 O 0.53983 0.31184 0.66868 0.0
O364 O 0.54313 0.27192 0.70563 0.0
O365 O 0.42473 0.27224 0.71568 0.0
O366 O 0.46318 0.29724 0.67448 0.0
C367 C 0.5372 0.3426 0.78281 0.0
O368 O 0.52515 0.26607 0.76019 0.0
O369 O 0.45978 0.24099 0.7455 0.0
C370 C 0.54338 0.27947 0.67802 0.0
O371 O 0.56569 0.34883 0.7635 0.0
O372 O 0.49794 0.31294 0.78004 0.0
C373 C 0.47164 0.37159 0.72991 0.0
Fe374 Fe 0.71543 0.1943 0.66915 0.0
Fe375 Fe 0.71852 0.24381 0.72623 0.0
O376 O 0.72677 0.20458 0.70797 0.0
Fe377 Fe 0.7467 0.17686 0.73008 0.0
O378 O 0.70106 0.1259 0.72228 0.0
O379 O 0.6858 0.13349 0.67502 0.0
O380 O 0.66217 0.18984 0.67097 0.0
C381 C 0.65556 0.21908 0.68013 0.0
C382 C 0.78774 0.1836 0.67387 0.0
O383 O 0.67964 0.24468 0.69995 0.0
C384 C 0.79232 0.25485 0.75499 0.0
O385 O 0.74497 0.25467 0.66043 0.0
O386 O 0.7616 0.28548 0.70571 0.0
O387 O 0.77915 0.17072 0.70068 0.0
O388 O 0.76627 0.19729 0.6604 0.0
C389 C 0.68249 0.17893 0.76597 0.0
O390 O 0.75728 0.25495 0.75611 0.0
O391 O 0.79478 0.22646 0.74023 0.0
C392 C 0.76774 0.28748 0.67779 0.0
O393 O 0.67502 0.20185 0.74805 0.0
O394 O 0.71667 0.17665 0.76369 0.0
C395 C 0.67908 0.11056 0.69897 0.0
Fe396 Fe 0.56474 0.23854 0.21863 0.0
Fe397 Fe 0.47111 0.16858 0.2315 0.0
O398 O 0.51466 0.19625 0.20607 0.0
Fe399 Fe 0.50787 0.18179 0.16788 0.0
O400 O 0.56541 0.1984 0.16068 0.0
O401 O 0.59309 0.21128 0.20587 0.0
O402 O 0.56036 0.21507 0.25513 0.0
C403 C 0.53993 0.17635 0.26336 0.0
C404 C 0.55117 0.27168 0.16683 0.0
O405 O 0.50212 0.15108 0.25405 0.0
C406 C 0.42809 0.17542 0.18304 0.0
O407 O 0.53985 0.26856 0.23215 0.0
O408 O 0.4866 0.21448 0.25573 0.0
O409 O 0.51782 0.23699 0.158 0.0
O410 O 0.57759 0.26931 0.18407 0.0
C411 C 0.4696 0.10317 0.19877 0.0
O412 O 0.43779 0.1846 0.21043 0.0
O413 O 0.44959 0.16354 0.16702 0.0
C414 C 0.50963 0.25428 0.25106 0.0
O415 O 0.44844 0.11776 0.21174 0.0
O416 O 0.49732 0.12634 0.17859 0.0
C417 C 0.59539 0.2037 0.17847 0.0
Fe418 Fe 0.86534 0.33911 0.17748 0.0
Fe419 Fe 0.80323 0.31114 0.23081 0.0
O420 O 0.85093 0.31779 0.21429 0.0
Fe421 Fe 0.88281 0.30177 0.23502 0.0
O422 O 0.92837 0.35473 0.23411 0.0
O423 O 0.92542 0.37076 0.18661 0.0
O424 O 0.86372 0.38793 0.18672 0.0
C425 C 0.82968 0.38681 0.19528 0.0
C426 C 0.88612 0.27451 0.17593 0.0
O427 O 0.80123 0.35393 0.20907 0.0
C428 C 0.80517 0.23819 0.25262 0.0
O429 O 0.80689 0.30953 0.16374 0.0
O430 O 0.77173 0.27169 0.20364 0.0
O431 O 0.90093 0.28365 0.20238 0.0
O432 O 0.86749 0.29265 0.16425 0.0
C433 C 0.85736 0.34337 0.27747 0.0
O434 O 0.79424 0.26644 0.25523 0.0
O435 O 0.83879 0.24679 0.23838 0.0
C436 C 0.77342 0.27745 0.1758 0.0
O437 O 0.83373 0.34974 0.25959 0.0
O438 O 0.87094 0.31785 0.27119 0.0
C439 C 0.94526 0.37898 0.21205 0.0
Fe440 Fe 0.71316 0.53569 0.17173 0.0
Fe441 Fe 0.71146 0.48011 0.22411 0.0
O442 O 0.72664 0.53127 0.20912 0.0
Fe443 Fe 0.75568 0.579 0.23045 0.0
O444 O 0.72949 0.60504 0.21208 0.0
O445 O 0.67599 0.55469 0.18673 0.0
O446 O 0.66626 0.48042 0.16858 0.0
C447 C 0.64202 0.45248 0.18762 0.0
C448 C 0.79615 0.60951 0.17723 0.0
O449 O 0.65414 0.45789 0.2148 0.0
C450 C 0.79211 0.52929 0.24944 0.0
O451 O 0.75033 0.5165 0.15887 0.0
O452 O 0.72073 0.46027 0.18904 0.0
O453 O 0.80001 0.60076 0.20395 0.0
O454 O 0.75879 0.59141 0.16539 0.0
C455 C 0.7004 0.52553 0.27262 0.0
O456 O 0.76676 0.49649 0.23429 0.0
O457 O 0.78566 0.56045 0.25231 0.0
C458 C 0.74808 0.48211 0.16913 0.0
O459 O 0.70132 0.49353 0.2615 0.0
O460 O 0.71438 0.56056 0.25883 0.0
C461 C 0.68996 0.58633 0.20529 0.0
Fe462 Fe 0.53128 0.17015 0.96309 0.0
Fe463 Fe 0.58078 0.21162 0.90492 0.0
O464 O 0.54054 0.16681 0.92429 0.0
Fe465 Fe 0.50849 0.11698 0.90516 0.0
O466 O 0.46178 0.0996 0.92955 0.0
O467 O 0.47496 0.15793 0.95353 0.0
O468 O 0.55001 0.22886 0.96401 0.0
C469 C 0.55921 0.25713 0.94386 0.0
C470 C 0.52681 0.08982 0.9569 0.0
O471 O 0.56156 0.24772 0.91691 0.0
C472 C 0.58792 0.14907 0.87517 0.0
O473 O 0.58659 0.18231 0.973 0.0
O474 O 0.61932 0.2275 0.93543 0.0
O475 O 0.53059 0.09176 0.92865 0.0
O476 O 0.51426 0.11291 0.97046 0.0
C477 C 0.50766 0.17447 0.86607 0.0
O478 O 0.60559 0.1818 0.89148 0.0
O479 O 0.54777 0.12454 0.87621 0.0
C480 C 0.62086 0.20946 0.95937 0.0
O481 O 0.54737 0.20045 0.87122 0.0
O482 O 0.48579 0.14035 0.88083 0.0
C483 C 0.44851 0.12389 0.93908 0.0
Fe484 Fe 0.92934 0.40888 0.89748 0.0
Fe485 Fe 0.88453 0.37038 0.95895 0.0
O486 O 0.88237 0.38355 0.92088 0.0
Fe487 Fe 0.83232 0.37198 0.90442 0.0
O488 O 0.83379 0.33159 0.88095 0.0
O489 O 0.89926 0.3778 0.86447 0.0
O490 O 0.94192 0.36749 0.90359 0.0
C491 C 0.93354 0.34023 0.92394 0.0
C492 C 0.88786 0.44876 0.87711 0.0
O493 O 0.91412 0.34045 0.94848 0.0
C494 C 0.84068 0.42039 0.95466 0.0
O495 O 0.96772 0.44362 0.92551 0.0
O496 O 0.9335 0.4202 0.96794 0.0
O497 O 0.85558 0.41184 0.87501 0.0
O498 O 0.92136 0.4537 0.88944 0.0
C499 C 0.79844 0.30817 0.94948 0.0
O500 O 0.85566 0.40053 0.97068 0.0
O501 O 0.83094 0.41195 0.92725 0.0
C502 C 0.96534 0.44758 0.95329 0.0
O503 O 0.83503 0.31732 0.95893 0.0
O504 O 0.79503 0.33081 0.92977 0.0
C505 C 0.86467 0.34163 0.86278 0.0
Fe506 Fe 0.69137 0.532 0.96237 0.0
Fe507 Fe 0.70216 0.48996 0.90626 0.0
O508 O 0.68247 0.52064 0.92363 0.0
Fe509 Fe 0.654 0.54104 0.90339 0.0
O510 O 0.67609 0.58949 0.92625 0.0
O511 O 0.72846 0.59056 0.95163 0.0
O512 O 0.7387 0.52468 0.96609 0.0
C513 C 0.76577 0.52561 0.94748 0.0
C514 C 0.60785 0.51963 0.95516 0.0
O515 O 0.75737 0.52491 0.91984 0.0
C516 C 0.62351 0.45923 0.87801 0.0
O517 O 0.65479 0.47328 0.97069 0.0
O518 O 0.6888 0.45426 0.93824 0.0
O519 O 0.60724 0.51218 0.9275 0.0
O520 O 0.64397 0.53901 0.9686 0.0
C521 C 0.71807 0.55549 0.86359 0.0
O522 O 0.64945 0.45161 0.89195 0.0
O523 O 0.62822 0.49636 0.87752 0.0
C524 C 0.6596 0.4439 0.95784 0.0
O525 O 0.71685 0.52102 0.87148 0.0
O526 O 0.69793 0.57053 0.87741 0.0
C527 C 0.71508 0.61015 0.93432 0.0
Fe528 Fe 0.56602 0.86828 0.78699 0.0
Fe529 Fe 0.50489 0.8051 0.7403 0.0
O530 O 0.55709 0.84617 0.75053 0.0
Fe531 Fe 0.60103 0.86535 0.72518 0.0
O532 O 0.62666 0.92004 0.73979 0.0
O533 O 0.57911 0.92153 0.76985 0.0
O534 O 0.50969 0.85594 0.79372 0.0
C535 C 0.4791 0.84887 0.77603 0.0
C536 C 0.64243 0.86569 0.77665 0.0
O537 O 0.48081 0.83817 0.74925 0.0
C538 C 0.55448 0.77628 0.71317 0.0
O539 O 0.55304 0.81473 0.80261 0.0
O540 O 0.49219 0.78064 0.77739 0.0
O541 O 0.63101 0.85029 0.75062 0.0
O542 O 0.62372 0.88374 0.78907 0.0
C543 C 0.53677 0.85595 0.68755 0.0
O544 O 0.5242 0.76873 0.731 0.0
O545 O 0.58244 0.81427 0.70632 0.0
C546 C 0.51818 0.77991 0.7961 0.0
O547 O 0.50974 0.82254 0.70146 0.0
O548 O 0.574 0.88102 0.69774 0.0
C549 C 0.60722 0.93915 0.74875 0.0
Fe550 Fe 0.2013 0.75861 0.72981 0.0
Fe551 Fe 0.20674 0.71324 0.78792 0.0
O552 O 0.22461 0.73359 0.75135 0.0
Fe553 Fe 0.26725 0.72933 0.73456 0.0
O554 O 0.22921 0.69071 0.70842 0.0
O555 O 0.2069 0.73538 0.69437 0.0
O556 O 0.14914 0.71293 0.73147 0.0
C557 C 0.12962 0.68393 0.7505 0.0
C558 C 0.28296 0.80843 0.71233 0.0
O559 O 0.14759 0.68386 0.77576 0.0
C560 C 0.30118 0.7675 0.78803 0.0
O561 O 0.19007 0.78445 0.76078 0.0
O562 O 0.2057 0.76039 0.80116 0.0
O563 O 0.28313 0.77377 0.70825 0.0
O564 O 0.25247 0.8077 0.72645 0.0
C565 C 0.23557 0.65755 0.77399 0.0
O566 O 0.26534 0.74167 0.80194 0.0
O567 O 0.30449 0.76752 0.75992 0.0
C568 C 0.19584 0.78552 0.78867 0.0
O569 O 0.20442 0.66181 0.7819 0.0
O570 O 0.26447 0.68576 0.75771 0.0
C571 C 0.20752 0.70055 0.69108 0.0
Fe572 Fe 0.3579 0.5149 0.8014 0.0
Fe573 Fe 0.36063 0.56643 0.74621 0.0
O574 O 0.34811 0.51669 0.76261 0.0
Fe575 Fe 0.32548 0.46843 0.74126 0.0
O576 O 0.35466 0.4473 0.76191 0.0
O577 O 0.39935 0.49976 0.79169 0.0
O578 O 0.40142 0.572 0.80479 0.0
C579 C 0.42709 0.5988 0.78569 0.0
C580 C 0.28008 0.4366 0.79336 0.0
O581 O 0.41706 0.59227 0.75824 0.0
C582 C 0.28501 0.51206 0.71696 0.0
O583 O 0.31615 0.52966 0.8101 0.0
O584 O 0.34499 0.58524 0.77945 0.0
O585 O 0.27845 0.44225 0.76562 0.0
O586 O 0.31566 0.45807 0.80706 0.0
C587 C 0.38171 0.52483 0.70014 0.0
O588 O 0.30603 0.54547 0.73269 0.0
O589 O 0.29401 0.48239 0.71703 0.0
C590 C 0.31661 0.56245 0.79861 0.0
O591 O 0.37656 0.55475 0.71033 0.0
O592 O 0.36946 0.49038 0.71444 0.0
C593 C 0.3918 0.46924 0.77331 0.0
Fe594 Fe 0.53728 0.87441 0.00981 0.0
Fe595 Fe 0.47738 0.82462 0.06173 0.0
O596 O 0.52119 0.87268 0.04753 0.0
Fe597 Fe 0.54702 0.91745 0.07244 0.0
O598 O 0.59869 0.92253 0.06747 0.0
O599 O 0.59716 0.90351 0.01983 0.0
O600 O 0.53906 0.82409 0.01198 0.0
C601 C 0.50635 0.78824 0.01771 0.0
C602 C 0.54763 0.95691 0.01732 0.0
O603 O 0.47731 0.78698 0.03408 0.0
C604 C 0.46534 0.88499 0.09171 0.0
O605 O 0.4784 0.846 -0.00342 0.0
O606 O 0.44123 0.83221 0.03929 0.0
O607 O 0.5576 0.95889 0.04465 0.0
O608 O 0.5372 0.92375 0.00193 0.0
C609 C 0.53785 0.84561 0.10401 0.0
O610 O 0.46439 0.8496 0.09227 0.0
O611 O 0.49696 0.91691 0.08005 0.0
C612 C 0.44364 0.83737 0.01129 0.0
O613 O 0.5144 0.81767 0.08471 0.0
O614 O 0.54163 0.88279 0.10445 0.0
C615 C 0.61706 0.91764 0.04514 0.0
Fe616 Fe 0.22838 0.6619 0.06242 0.0
Fe617 Fe 0.13559 0.64157 0.067 0.0
O618 O 0.18325 0.65977 0.04539 0.0
Fe619 Fe 0.18556 0.67411 0.00722 0.0
O620 O 0.23269 0.72758 0.01225 0.0
O621 O 0.26935 0.7049 0.03803 0.0
O622 O 0.23265 0.70257 0.0881 0.0
C623 C 0.20268 0.69452 0.10655 0.0
C624 C 0.22908 0.62397 0.01077 0.0
O625 O 0.16463 0.66379 0.10225 0.0
C626 C 0.10339 0.60305 0.0107 0.0
O627 O 0.19745 0.61913 0.08923 0.0
O628 O 0.13082 0.58954 0.07356 0.0
O629 O 0.22126 0.65051 -0.00366 0.0
O630 O 0.22372 0.62012 0.0385 0.0
C631 C 0.14032 0.71129 0.03891 0.0
O632 O 0.09794 0.61693 0.03546 0.0
O633 O 0.1397 0.6218 -0.00196 0.0
C634 C 0.16021 0.58659 0.08681 0.0
O635 O 0.13777 0.69181 0.06276 0.0
O636 O 0.15098 0.70029 0.01401 0.0
C637 C 0.26839 0.7327 0.02103 0.0
Fe638 Fe 0.42834 0.50994 0.07464 0.0
Fe639 Fe 0.39228 0.52396 0.01514 0.0
O640 O 0.41512 0.5415 0.05125 0.0
Fe641 Fe 0.42692 0.59259 0.06381 0.0
O642 O 0.388 0.56875 0.09323 0.0
O643 O 0.4133 0.52729 0.10926 0.0
O644 O 0.37383 0.46656 0.07515 0.0
C645 C 0.35004 0.44745 0.0533 0.0
C646 C 0.49612 0.58679 0.08897 0.0
O647 O 0.35924 0.46494 0.027 0.0
C648 C 0.45669 0.61449 0.00798 0.0
O649 O 0.44486 0.48721 0.04359 0.0
O650 O 0.43751 0.51839 0.00326 0.0
O651 O 0.47048 0.60116 0.08924 0.0
O652 O 0.48466 0.55119 0.07689 0.0
C653 C 0.34996 0.5665 0.02938 0.0
O654 O 0.42254 0.58057 -0.00151 0.0
O655 O 0.46695 0.61685 0.0351 0.0
C656 C 0.4549 0.50013 0.01669 0.0
O657 O 0.3453 0.52984 0.02368 0.0
O658 O 0.38497 0.59514 0.04114 0.0
C659 C 0.3898 0.54418 0.11273 0.0
Fe660 Fe 0.23667 0.58315 0.56164 0.0
Fe661 Fe 0.14159 0.51799 0.57194 0.0
O662 O 0.18714 0.54037 0.54738 0.0
Fe663 Fe 0.18415 0.52188 0.51003 0.0
O664 O 0.23445 0.51984 0.51147 0.0
O665 O 0.27404 0.57902 0.53593 0.0
O666 O 0.24029 0.54632 0.58729 0.0
C667 C 0.21161 0.52721 0.60715 0.0
C668 C 0.22395 0.61564 0.50981 0.0
O669 O 0.17478 0.52415 0.60517 0.0
C670 C 0.10146 0.51286 0.51594 0.0
O671 O 0.21223 0.60044 0.59005 0.0
O672 O 0.14497 0.56955 0.57699 0.0
O673 O 0.21165 0.57978 0.4955 0.0
O674 O 0.23337 0.61996 0.53725 0.0
C675 C 0.13977 0.44506 0.54815 0.0
O676 O 0.10032 0.50701 0.54383 0.0
O677 O 0.13428 0.52085 0.50095 0.0
C678 C 0.1773 0.60063 0.58874 0.0
O679 O 0.13399 0.46526 0.56894 0.0
O680 O 0.15552 0.46299 0.52242 0.0
C681 C 0.27105 0.55027 0.51858 0.0
Fe682 Fe 0.47231 0.65167 0.5632 0.0
Fe683 Fe 0.54215 0.62689 0.56895 0.0
O684 O 0.51645 0.64976 0.54808 0.0
Fe685 Fe 0.53496 0.66975 0.51152 0.0
O686 O 0.51672 0.71029 0.51167 0.0
O687 O 0.49795 0.70984 0.55831 0.0
O688 O 0.49312 0.66145 0.60148 0.0
C689 C 0.52965 0.67207 0.61257 0.0
C690 C 0.44595 0.62164 0.5051 0.0
O691 O 0.55698 0.6663 0.59861 0.0
C692 C 0.53978 0.5937 0.5138 0.0
O693 O 0.44299 0.59401 0.56838 0.0
O694 O 0.49462 0.58877 0.58993 0.0
O695 O 0.48218 0.62826 0.49507 0.0
O696 O 0.44459 0.64161 0.52775 0.0
C697 C 0.60959 0.70093 0.54604 0.0
O698 O 0.52779 0.58577 0.54079 0.0
O699 O 0.55447 0.63161 0.50352 0.0
C700 C 0.45499 0.5742 0.58541 0.0
O701 O 0.59455 0.66163 0.55192 0.0
O702 O 0.58801 0.71125 0.52831 0.0
C703 C 0.50556 0.72693 0.53255 0.0
Fe704 Fe 0.37954 0.87367 0.50295 0.0
Fe705 Fe 0.36649 0.82256 0.56013 0.0
O706 O 0.38748 0.87268 0.54208 0.0
Fe707 Fe 0.41648 0.92227 0.5616 0.0
O708 O 0.39183 0.94672 0.53921 0.0
O709 O 0.34203 0.89469 0.5118 0.0
O710 O 0.33254 0.81915 0.49949 0.0
C711 C 0.30404 0.7943 0.51781 0.0
C712 C 0.46143 0.94783 0.50931 0.0
O713 O 0.31152 0.80252 0.54558 0.0
C714 C 0.44663 0.87075 0.58784 0.0
O715 O 0.41673 0.85131 0.4966 0.0
O716 O 0.37957 0.7992 0.52891 0.0
O717 O 0.46264 0.9407 0.53677 0.0
O718 O 0.42552 0.92846 0.4959 0.0
C719 C 0.35391 0.87415 0.60301 0.0
O720 O 0.41867 0.83639 0.57548 0.0
O721 O 0.44432 0.90461 0.58675 0.0
C722 C 0.40996 0.81674 0.51014 0.0
O723 O 0.35197 0.8397 0.59438 0.0
O724 O 0.37425 0.90889 0.58883 0.0
C725 C 0.35339 0.9269 0.52953 0.0
Fe726 Fe 0.19569 0.50634 0.29204 0.0
Fe727 Fe 0.24412 0.56603 0.23996 0.0
O728 O 0.21083 0.51339 0.25369 0.0
Fe729 Fe 0.19162 0.46694 0.23079 0.0
O730 O 0.13933 0.44065 0.24981 0.0
O731 O 0.13915 0.48951 0.27953 0.0
O732 O 0.20756 0.5621 0.29968 0.0
C733 C 0.20853 0.59073 0.28276 0.0
C734 C 0.20176 0.43262 0.28209 0.0
O735 O 0.20959 0.5854 0.25501 0.0
C736 C 0.276 0.5211 0.2089 0.0
O737 O 0.25238 0.52286 0.30161 0.0
O738 O 0.27909 0.58167 0.27343 0.0
O739 O 0.21472 0.44373 0.25563 0.0
O740 O 0.18276 0.44977 0.29511 0.0
C741 C 0.18214 0.52311 0.19361 0.0
O742 O 0.28187 0.55342 0.22351 0.0
O743 O 0.24009 0.48675 0.20811 0.0
C744 C 0.2848 0.55693 0.29097 0.0
O745 O 0.21452 0.55597 0.20467 0.0
O746 O 0.16773 0.48581 0.2038 0.0
C747 C 0.11999 0.45968 0.2596 0.0
Fe748 Fe 0.55361 0.69931 0.29289 0.0
Fe749 Fe 0.50846 0.69444 0.23356 0.0
O750 O 0.5558 0.708 0.25379 0.0
Fe751 Fe 0.60695 0.73022 0.2357 0.0
O752 O 0.62737 0.70705 0.26248 0.0
O753 O 0.57087 0.6577 0.28532 0.0
O754 O 0.49662 0.65604 0.2949 0.0
C755 C 0.46912 0.63204 0.27568 0.0
C756 C 0.63107 0.77897 0.28591 0.0
O757 O 0.47844 0.63959 0.24823 0.0
C758 C 0.56792 0.76785 0.20399 0.0
O759 O 0.53619 0.73995 0.29883 0.0
O760 O 0.48704 0.71499 0.26256 0.0
O761 O 0.62725 0.77908 0.25774 0.0
O762 O 0.60952 0.74376 0.30026 0.0
C763 C 0.5549 0.66523 0.19739 0.0
O764 O 0.53237 0.74748 0.21725 0.0
O765 O 0.59567 0.75662 0.2057 0.0
C766 C 0.50602 0.7411 0.28401 0.0
O767 O 0.52429 0.67291 0.20168 0.0
O768 O 0.58942 0.6832 0.21235 0.0
C769 C 0.60612 0.66867 0.27098 0.0
Fe770 Fe 0.35546 0.86121 0.29317 0.0
Fe771 Fe 0.3496 0.80363 0.24092 0.0
O772 O 0.33895 0.84252 0.25626 0.0
Fe773 Fe 0.31209 0.86374 0.2352 0.0
O774 O 0.34036 0.91592 0.2538 0.0
O775 O 0.3939 0.91679 0.27713 0.0
O776 O 0.40073 0.84922 0.29472 0.0
C777 C 0.42156 0.84261 0.27425 0.0
C778 C 0.27358 0.85538 0.28908 0.0
O779 O 0.40713 0.83659 0.24784 0.0
C780 C 0.2704 0.77694 0.21704 0.0
O781 O 0.31687 0.80617 0.30736 0.0
O782 O 0.34049 0.77465 0.27644 0.0
O783 O 0.26831 0.84334 0.26205 0.0
O784 O 0.31146 0.87369 0.30038 0.0
C785 C 0.36686 0.86266 0.19341 0.0
O786 O 0.29336 0.76769 0.23313 0.0
O787 O 0.28006 0.81549 0.21308 0.0
C788 C 0.31562 0.7721 0.29749 0.0
O789 O 0.35957 0.82642 0.20303 0.0
O790 O 0.35402 0.88475 0.20708 0.0
C791 C 0.38024 0.93551 0.25917 0.0
C792 C 0.15968 0.04503 -0.01499 0.0
C793 C 0.19571 0.04988 0.9692 0.0
C794 C 0.16456 0.07166 0.00909 0.0
C795 C 0.2057 0.10405 0.0183 0.0
H796 H 0.12726 1.02156 0.97794 0.0
H797 H 0.13559 0.06793 0.01947 0.0
S798 S 0.3106 0.12652 -0.01437 0.0
N799 N 0.27372 0.08674 0.96514 0.0
N800 N 0.2836 0.13689 0.01118 0.0
C801 C 0.2423 0.10729 0.00382 0.0
C802 C 0.23712 0.08005 0.97908 0.0
C803 C 1.01485 0.19204 -0.01125 0.0
C804 C 0.04655 0.18154 0.98194 0.0
C805 C 0.98908 0.17506 0.01412 0.0
C806 C 0.99476 0.14737 0.03338 0.0
H807 H 1.00806 0.21107 0.97335 0.0
H808 H 0.96276 0.18131 0.01756 0.0
S809 S 0.07979 0.11735 0.02765 0.0
N810 N 0.08684 0.14728 -0.0023 0.0
N811 N 0.03897 0.11548 0.04623 0.0
C812 C 1.02958 0.14032 0.02831 0.0
C813 C 0.05528 0.15719 0.00214 0.0
C814 C 0.86054 0.76885 0.96803 0.0
C815 C 0.8413 0.7941 0.96372 0.0
C816 C 0.86886 0.76003 -0.00294 0.0
C817 C 0.86049 0.77861 0.02217 0.0
H818 H 0.87276 0.75939 0.94901 0.0
H819 H 0.88827 0.74481 -0.00058 0.0
S820 S 0.80267 0.83967 0.02258 0.0
N821 N 0.80639 0.83019 -0.01329 0.0
N822 N 0.82502 0.81613 0.04127 0.0
C823 C 0.83577 0.79847 0.01821 0.0
C824 C 0.82593 0.80617 -0.01122 0.0
C825 C 0.09906 0.23604 0.45383 0.0
C826 C 0.11573 0.20907 0.44684 0.0
C827 C 0.07531 0.22969 0.4804 0.0
C828 C 0.06904 0.19708 0.50081 0.0
H829 H 0.10352 0.2613 0.43845 0.0
H830 H 0.06118 0.24969 0.48465 0.0
S831 S 0.11401 0.12376 0.49471 0.0
N832 N 0.12794 0.15162 0.46325 0.0
N833 N 0.08722 0.14203 0.51392 0.0
C834 C 0.08861 0.17226 0.49476 0.0
C835 C 0.11098 0.17765 0.46753 0.0
C836 C 0.81717 0.84608 0.47676 0.0
C837 C 0.85653 0.85979 0.49119 0.0
C838 C 0.81659 0.86068 0.44787 0.0
C839 C 0.85543 0.88964 0.43327 0.0
H840 H 0.78702 0.82681 0.4886 0.0
H841 H 0.78576 0.8534 0.43844 0.0
S842 S 0.96601 0.921 0.45818 0.0
N843 N 0.93447 0.89345 0.48651 0.0
N844 N 0.93347 0.92084 0.43186 0.0
C845 C 0.89457 0.89694 0.44553 0.0
C846 C 0.89514 0.88243 0.47498 0.0
C847 C 0.18102 0.99354 0.44576 0.0
C848 C 0.17184 0.9508 0.44495 0.0
C849 C 0.20355 1.02012 0.46976 0.0
C850 C 0.21719 1.00461 0.49385 0.0
H851 H 0.16712 1.00522 0.42923 0.0
H852 H 0.20628 0.05153 0.47094 0.0
S853 S 0.20776 0.8975 0.49942 0.0
N854 N 0.18352 0.8959 0.4675 0.0
N855 N 0.2257 0.94623 0.51337 0.0
C856 C 0.21286 0.96371 0.49156 0.0
C857 C 0.19005 0.93654 0.4668 0.0
C858 C 0.89755 0.97384 0.00151 0.0
C859 C 0.87105 0.99181 0.00617 0.0
C860 C 0.89433 0.95118 0.97566 0.0
C861 C 0.86427 0.94504 0.95332 0.0
H862 H 0.92133 0.97717 0.01795 0.0
H863 H 0.91498 0.93732 0.97369 0.0
S864 S 0.78523 0.98287 0.95497 0.0
N865 N 0.81235 1.00064 -0.01324 0.0
N866 N 0.80588 0.95664 0.93757 0.0
C867 C 0.83649 0.96154 0.95773 0.0
C868 C 0.83997 0.98526 -0.01569 0.0
C869 C 0.04386 0.85159 0.97499 0.0
C870 C 1.01537 0.8655 -0.01608 0.0
C871 C 0.0708 0.87014 0.95028 0.0
C872 C 0.06945 0.90269 0.93368 0.0
H873 H 0.04784 0.82889 -0.01143 0.0
H874 H 0.09487 0.86113 0.94542 0.0
S875 S 0.99368 0.94353 0.94495 0.0
N876 N 0.98254 0.9087 0.97249 0.0
N877 N 1.03242 0.94311 0.92513 0.0
C878 C 0.03752 0.91328 0.94049 0.0
C879 C 1.01074 0.89494 0.96607 0.0
C880 C 0.20715 0.28373 0.00214 0.0
C881 C 0.22799 0.26005 0.00687 0.0
C882 C 0.19673 0.28995 0.97299 0.0
C883 C 0.20504 0.27066 0.94828 0.0
H884 H 0.19519 0.2937 0.02106 0.0
H885 H 0.17622 0.30391 0.9704 0.0
S886 S 0.26587 0.21256 0.94895 0.0
N887 N 0.26362 0.2243 -0.01545 0.0
N888 N 0.24133 0.23356 0.92989 0.0
C889 C 0.23094 0.25214 0.95253 0.0
C890 C 0.2428 0.24706 0.98201 0.0
C891 C 0.99031 0.81907 0.52418 0.0
C892 C 0.94555 0.8017 0.52215 0.0
C893 C 1.01561 0.8303 0.49821 0.0
C894 C 0.99671 0.82566 0.46977 0.0
H895 H 1.00624 0.82826 0.54583 0.0
H896 H 0.05037 0.84623 0.50056 0.0
S897 S 0.88027 0.77476 0.4526 0.0
N898 N 0.88271 0.77355 0.48962 0.0
N899 N 0.93067 0.79737 0.44073 0.0
C900 C 0.95175 0.80458 0.46737 0.0
C901 C 0.92596 0.79154 0.49371 0.0
C902 C 0.23948 0.18694 0.5119 0.0
C903 C 0.25595 0.15884 0.51053 0.0
C904 C 0.23539 0.20604 0.48575 0.0
C905 C 0.24677 0.1965 0.45782 0.0
H906 H 0.2274 0.19212 0.53289 0.0
H907 H 0.21978 0.22519 0.487 0.0
S908 S 0.29275 0.12652 0.44229 0.0
N909 N 0.28748 0.12574 0.47912 0.0
N910 N 0.2751 0.15816 0.42994 0.0
C911 C 0.26504 0.17025 0.45629 0.0
C912 C 0.27101 0.15235 0.48282 0.0
C913 C 0.86393 0.06158 0.48159 0.0
C914 C 0.87299 0.02963 0.47251 0.0
C915 C 0.88022 0.0831 0.5088 0.0
C916 C 0.90569 0.07293 0.5274 0.0
H917 H 0.84773 0.0726 0.46652 0.0
H918 H 0.87628 0.11044 0.5139 0.0
S919 S 0.92711 0.98291 0.51672 0.0
N920 N 0.90021 0.9822 0.48643 0.0
N921 N 0.93089 1.02254 0.53769 0.0
C922 C 0.9092 0.03666 0.52042 0.0
C923 C 0.89297 1.01511 0.4927 0.0
C924 C 0.90604 0.40412 0.34826 0.0
C925 C 0.8692 0.39738 0.36422 0.0
C926 C 0.90198 0.38427 0.32059 0.0
C927 C 0.86111 0.35777 0.30827 0.0
H928 H 0.93807 0.42772 0.35589 0.0
H929 H 0.93077 0.392 0.30788 0.0
S930 S 0.75536 0.31848 0.34523 0.0
N931 N 0.7909 0.35372 0.36904 0.0
N932 N 0.78368 0.31715 0.31638 0.0
C933 C 0.8243 0.34601 0.32564 0.0
C934 C 0.8283 0.3655 0.35407 0.0
C935 C 0.70751 0.50496 0.32388 0.0
C936 C 0.69102 0.52403 0.30445 0.0
C937 C 0.69043 0.49202 0.35254 0.0
C938 C 0.6556 0.49676 0.36174 0.0
H939 H 0.73115 0.49677 0.31599 0.0
H940 H 0.70033 0.4729 0.36548 0.0
S941 S 0.61293 0.55911 0.32315 0.0
N942 N 0.64761 0.55816 0.29911 0.0
N943 N 0.61461 0.5332 0.35332 0.0
C944 C 0.645 0.52324 0.34477 0.0
C945 C 0.66266 0.53668 0.31562 0.0
C946 C 0.55732 0.13666 0.3375 0.0
C947 C 0.60242 0.16191 0.33983 0.0
C948 C 0.53616 0.13852 0.31148 0.0
C949 C 0.56013 0.16453 0.28718 0.0
H950 H 0.53844 0.11695 0.35622 0.0
H951 H 0.50122 0.12151 0.31099 0.0
S952 S 0.67954 0.2279 0.28034 0.0
N953 N 0.67042 0.20842 0.31479 0.0
N954 N 0.63141 0.20944 0.2652 0.0
C955 C 0.60547 0.18598 0.28839 0.0
C956 C 0.62654 0.18537 0.31499 0.0
C957 C 0.79749 0.61006 0.80186 0.0
C958 C 0.77512 0.5824 0.77776 0.0
C959 C 0.77725 0.60452 0.82976 0.0
C960 C 0.73438 0.57168 0.83367 0.0
H961 H 0.83196 0.63205 0.80035 0.0
H962 H 0.79626 0.62292 0.84889 0.0
S963 S 0.66062 0.49692 0.77581 0.0
N964 N 0.70688 0.52618 0.75814 0.0
N965 N 0.6687 0.51569 0.81054 0.0
C966 C 0.71048 0.54778 0.80874 0.0
C967 C 0.73094 0.55344 0.78056 0.0
C968 C 0.49247 0.17799 0.7837 0.0
C969 C 0.47347 0.20376 0.78213 0.0
C970 C 0.50002 0.16526 0.81151 0.0
C971 C 0.48982 0.17909 0.83813 0.0
H972 H 0.50559 0.17156 0.7637 0.0
H973 H 0.51723 0.14775 0.81226 0.0
S974 S 0.43507 0.2427 0.84543 0.0
N975 N 0.43818 0.23673 0.8089 0.0
N976 N 0.45753 0.21731 0.86143 0.0
C977 C 0.46773 0.20186 0.83679 0.0
C978 C 0.45782 0.21272 0.80849 0.0
C979 C 0.85272 0.343 0.8089 0.0
C980 C 0.85447 0.32021 0.83388 0.0
C981 C 0.8364 0.32207 0.78172 0.0
C982 C 0.82333 0.27842 0.77846 0.0
H983 H 0.86086 0.37632 0.81105 0.0
H984 H 0.83063 0.33914 0.76394 0.0
S985 S 0.82708 0.20636 0.83632 0.0
N986 N 0.84469 0.25292 0.85368 0.0
N987 N 0.81691 0.21399 0.80135 0.0
C988 C 0.82862 0.25628 0.80252 0.0
C989 C 0.84341 0.27713 0.83071 0.0
C990 C 0.53874 0.29987 0.32782 0.0
C991 C 0.53017 0.33384 0.32712 0.0
C992 C 0.53096 0.27402 0.30288 0.0
C993 C 0.51472 0.2816 0.27641 0.0
H994 H 0.55208 0.29351 0.34773 0.0
H995 H 0.53854 0.24839 0.30415 0.0
S996 S 0.48484 0.36506 0.26371 0.0
N997 N 0.50312 0.37312 0.2986 0.0
N998 N 0.48809 0.32352 0.25097 0.0
C999 C 0.50481 0.31464 0.27545 0.0
C1000 C 0.5125 0.34102 0.30118 0.0
C1001 C 0.72694 0.16082 0.30663 0.0
C1002 C 0.75039 0.17765 0.33331 0.0
C1003 C 0.74681 0.17591 0.2787 0.0
C1004 C 0.79085 0.20668 0.27693 0.0
H1005 H 0.69223 0.13984 0.30739 0.0
H1006 H 0.72681 0.16708 0.25877 0.0
S1007 S 0.86759 0.25334 0.34038 0.0
N1008 N 0.82023 0.22272 0.35642 0.0
N1009 N 0.85873 0.24695 0.30383 0.0
C1010 C 0.81563 0.21846 0.30337 0.0
C1011 C 0.79501 0.20517 0.33177 0.0
C1012 C 0.8266 0.48231 0.3104 0.0
C1013 C 0.85314 0.519 0.32777 0.0
C1014 C 0.81123 0.486 0.28244 0.0
C1015 C 0.82144 0.52655 0.27126 0.0
H1016 H 0.8158 0.45034 0.31917 0.0
H1017 H 0.78806 0.45678 0.27104 0.0
S1018 S 0.89776 0.63258 0.30502 0.0
N1019 N 0.89493 0.597 0.32974 0.0
N1020 N 0.86631 0.60431 0.27682 0.0
C1021 C 0.85224 0.56359 0.28673 0.0
C1022 C 0.86794 0.55974 0.31523 0.0
C1023 C 0.59072 0.13165 0.82146 0.0
C1024 C 0.61228 0.14763 0.84899 0.0
C1025 C 0.61364 0.14177 0.79441 0.0
C1026 C 0.65878 0.1657 0.79433 0.0
H1027 H 0.55586 0.11372 0.82053 0.0
H1028 H 0.59599 0.13177 0.77344 0.0
S1029 S 0.73065 0.21041 0.86047 0.0
N1030 N 0.68142 0.186 0.87457 0.0
N1031 N 0.72457 0.20258 0.82384 0.0
C1032 C 0.68087 0.17881 0.82179 0.0
C1033 C 0.65757 0.17 0.84917 0.0
C1034 C 0.92127 0.49812 0.83472 0.0
C1035 C 0.88958 0.48134 0.8572 0.0
C1036 C 0.91504 0.51666 0.80912 0.0
C1037 C 0.87791 0.51997 0.80625 0.0
H1038 H 0.94861 0.49301 0.83548 0.0
H1039 H 0.93779 0.52575 0.79076 0.0
S1040 S 0.78853 0.48564 0.86055 0.0
N1041 N 0.82157 0.47166 0.87608 0.0
N1042 N 0.81142 0.50936 0.82854 0.0
C1043 C 0.84806 0.50691 0.8297 0.0
C1044 C 0.85363 0.4869 0.85524 0.0
C1045 C 0.56554 0.3558 0.83445 0.0
C1046 C 0.55071 0.36862 0.80969 0.0
C1047 C 0.58641 0.38447 0.85804 0.0
C1048 C 0.59244 0.42637 0.85738 0.0
H1049 H 0.56318 0.32451 0.83473 0.0
H1050 H 0.59985 0.37452 0.87603 0.0
S1051 S 0.55275 0.47164 0.79876 0.0
N1052 N 0.54044 0.42359 0.78618 0.0
N1053 N 0.57544 0.47625 0.83184 0.0
C1054 C 0.57351 0.43754 0.83394 0.0
C1055 C 0.55393 0.40897 0.80952 0.0
C1056 C 0.58626 0.74957 0.67525 0.0
C1057 C 0.55132 0.74143 0.69408 0.0
C1058 C 0.58013 0.72419 0.6499 0.0
C1059 C 0.5389 0.69019 0.64285 0.0
H1060 H 0.6177 0.77782 0.67866 0.0
H1061 H 0.60678 0.7336 0.63446 0.0
S1062 S 0.43978 0.64893 0.68893 0.0
N1063 N 0.47631 0.69175 0.70717 0.0
N1064 N 0.46486 0.6441 0.6594 0.0
C1065 C 0.50519 0.67827 0.66356 0.0
C1066 C 0.51144 0.70386 0.6894 0.0
C1067 C 0.2834 0.85182 0.66957 0.0
C1068 C 0.30679 0.84282 0.69088 0.0
C1069 C 0.30099 0.86764 0.64121 0.0
C1070 C 0.34235 0.87549 0.63412 0.0
H1071 H 0.24968 0.84144 0.67334 0.0
H1072 H 0.28075 0.86945 0.624 0.0
S1073 S 0.41952 0.86665 0.68476 0.0
N1074 N 0.3752 0.84941 0.70496 0.0
N1075 N 0.40901 0.88101 0.65202 0.0
C1076 C 0.36802 0.87257 0.65673 0.0
C1077 C 0.34997 0.85578 0.68524 0.0
C1078 C 0.24785 0.48198 0.66865 0.0
C1079 C 0.25821 0.5123 0.69199 0.0
C1080 C 0.2334 0.48745 0.64093 0.0
C1081 C 0.22534 0.52115 0.63643 0.0
H1082 H 0.25424 0.45565 0.67074 0.0
H1083 H 0.22978 0.46593 0.6227 0.0
S1084 S 0.24541 0.60857 0.68947 0.0
N1085 N 0.2599 0.57802 0.70797 0.0
N1086 N 0.22774 0.58508 0.65655 0.0
C1087 C 0.23306 0.5504 0.6597 0.0
C1088 C 0.25021 0.54642 0.68749 0.0
C1089 C 0.36963 0.84748 0.14004 0.0
C1090 C 0.38665 0.87657 0.164 0.0
C1091 C 0.39366 0.8542 0.11399 0.0
C1092 C 0.4356 0.88969 0.11159 0.0
H1093 H 0.339 0.81783 0.14235 0.0
H1094 H 0.38118 0.82923 0.09696 0.0
S1095 S 0.49079 0.97891 0.16617 0.0
N1096 N 0.44428 0.94523 0.18226 0.0
N1097 N 0.49039 0.95764 0.13314 0.0
C1098 C 0.45077 0.92164 0.13388 0.0
C1099 C 0.42597 0.91495 0.16038 0.0
C1100 C 0.12793 0.55436 0.13508 0.0
C1101 C 0.14946 0.55312 0.10901 0.0
C1102 C 0.13647 0.54184 0.1628 0.0
C1103 C 0.16595 0.52714 0.16465 0.0
H1104 H 0.10875 0.57 0.13473 0.0
H1105 H 0.12246 0.54655 0.18302 0.0
S1106 S 0.22435 0.5108 0.10213 0.0
N1107 N 0.1968 0.53102 0.08611 0.0
N1108 N 0.21189 0.50621 0.13821 0.0
C1109 C 0.18363 0.52103 0.13834 0.0
C1110 C 0.17531 0.5341 0.11031 0.0
C1111 C 0.55794 0.64454 0.11586 0.0
C1112 C 0.52663 0.60075 0.11396 0.0
C1113 C 0.57174 0.66454 0.14387 0.0
C1114 C 0.55318 0.64148 0.1704 0.0
H1115 H 0.56818 0.66429 0.0958 0.0
H1116 H 0.59341 0.69902 0.14467 0.0
S1117 S 0.47555 0.52509 0.17734 0.0
N1118 N 0.48395 0.53343 0.14087 0.0
N1119 N 0.50625 0.57233 0.19343 0.0
C1120 C 0.52543 0.59705 0.16887 0.0
C1121 C 0.51325 0.57624 0.14049 0.0
C1122 C 0.20779 0.69605 0.63599 0.0
C1123 C 0.19078 0.67612 0.66364 0.0
C1124 C 0.19903 0.67127 0.61005 0.0
C1125 C 0.17143 0.62654 0.61108 0.0
H1126 H 0.23094 0.73022 0.63491 0.0
H1127 H 0.21688 0.68658 0.58977 0.0
S1128 S 0.11496 0.56066 0.67772 0.0
N1129 N 0.14344 0.61032 0.69066 0.0
N1130 N 0.12402 0.56392 0.64116 0.0
C1131 C 0.15086 0.60704 0.6381 0.0
C1132 C 0.16146 0.63189 0.66473 0.0
C1133 C 0.42283 0.51558 0.6582 0.0
C1134 C 0.39286 0.527 0.66826 0.0
C1135 C 0.439 0.52543 0.6289 0.0
C1136 C 0.42516 0.54648 0.60892 0.0
H1137 H 0.43646 0.50228 0.67347 0.0
H1138 H 0.46538 0.52031 0.62283 0.0
S1139 S 0.33854 0.5724 0.62252 0.0
N1140 N 0.34425 0.55314 0.65471 0.0
N1141 N 0.37277 0.56942 0.59929 0.0
C1142 C 0.39039 0.55185 0.61746 0.0
C1143 C 0.37498 0.54306 0.64741 0.0
C1144 C 0.5273 0.90251 0.65095 0.0
C1145 C 0.52429 0.8631 0.65784 0.0
C1146 C 0.50483 0.90581 0.62636 0.0
C1147 C 0.4787 0.86971 0.60816 0.0
H1148 H 0.5441 0.92979 0.66593 0.0
H1149 H 0.50547 0.936 0.62305 0.0
S1150 S 0.47071 0.76269 0.61292 0.0
N1151 N 0.5009 0.78994 0.64187 0.0
N1152 N 0.45894 0.79598 0.59537 0.0
C1153 C 0.48006 0.83168 0.61289 0.0
C1154 C 0.50273 0.82838 0.63794 0.0
C1155 C 0.33597 0.56767 0.17549 0.0
C1156 C 0.31028 0.52687 0.18842 0.0
C1157 C 0.36369 0.57339 0.15195 0.0
C1158 C 0.36715 0.53872 0.14094 0.0
H1159 H 0.33276 0.59492 0.18227 0.0
H1160 H 0.38123 0.60483 0.14149 0.0
S1161 S 0.31357 0.4277 0.17114 0.0
N1162 N 0.29416 0.45266 0.1915 0.0
N1163 N 0.34767 0.46379 0.14709 0.0
C1164 C 0.34479 0.49868 0.15538 0.0
C1165 C 0.31579 0.4926 0.17917 0.0
C1166 C 0.5641 0.77521 0.15012 0.0
C1167 C 0.5701 0.7937 0.17863 0.0
C1168 C 0.55628 0.794 0.12559 0.0
C1169 C 0.55393 0.83163 0.12908 0.0
H1170 H 0.56265 0.7446 0.14712 0.0
H1171 H 0.54997 0.77776 0.10408 0.0
S1172 S 0.57599 0.89629 0.19875 0.0
N1173 N 0.58006 0.85423 0.20883 0.0
N1174 N 0.56438 0.89004 0.16253 0.0
C1175 C 0.56376 0.85248 0.15716 0.0
C1176 C 0.57189 0.83316 0.18216 0.0
C1177 C 0.25982 0.72192 0.1802 0.0
C1178 C 0.24377 0.74615 0.19415 0.0
C1179 C 0.24575 0.70485 0.1517 0.0
C1180 C 0.21449 0.71052 0.13691 0.0
H1181 H 0.28616 0.71943 0.19001 0.0
H1182 H 0.26029 0.6882 0.14081 0.0
S1183 S 0.15592 0.76305 0.16654 0.0
N1184 N 0.19112 0.76998 0.19306 0.0
N1185 N 0.16272 0.73523 0.13965 0.0
C1186 C 0.19471 0.73032 0.15186 0.0
C1187 C 0.20984 0.74879 0.18062 0.0
C1188 C 0.34366 0.16535 0.1259 0.0
C1189 C 0.31872 0.17903 0.14188 0.0
C1190 C 0.37831 0.16377 0.13948 0.0
C1191 C 0.38975 0.17573 0.16977 0.0
H1192 H 0.33689 0.15637 0.10245 0.0
H1193 H 0.39658 0.15351 0.12586 0.0
S1194 S 0.33382 0.21231 0.22219 0.0
N1195 N 0.30725 0.20345 0.19026 0.0
N1196 N 0.37216 0.20067 0.21558 0.0
C1197 C 0.36455 0.18866 0.18623 0.0
C1198 C 0.32919 0.19023 0.1724 0.0
C1199 C 0.88325 0.20348 0.17515 0.0
C1200 C 0.88684 0.23898 0.15929 0.0
C1201 C 0.87775 0.16673 0.16006 0.0
C1202 C 0.87643 0.16422 0.12845 0.0
H1203 H 0.88305 0.20335 0.19949 0.0
H1204 H 0.8745 0.14 0.17334 0.0
S1205 S 0.88702 0.24953 0.0763 0.0
N1206 N 0.89011 0.26991 0.1101 0.0
N1207 N 0.88103 0.20135 0.08176 0.0
C1208 C 0.8815 0.20009 0.11226 0.0
C1209 C 0.88631 0.23725 0.12765 0.0
C1210 C 0.87077 0.68074 0.11439 0.0
C1211 C 0.90721 0.71264 0.12991 0.0
C1212 C 0.83511 0.64771 0.12974 0.0
C1213 C 0.83455 0.64459 0.16129 0.0
H1214 H 0.8691 0.68202 0.09015 0.0
H1215 H 0.80772 0.62445 0.11674 0.0
S1216 S 0.92279 0.71879 0.21256 0.0
N1217 N 0.9408 0.73821 0.17869 0.0
N1218 N 0.87472 0.67597 0.20747 0.0
C1219 C 0.87135 0.67565 0.17704 0.0
C1220 C 0.90731 0.70966 0.16142 0.0
C1221 C 0.18658 0.3817 0.32526 0.0
C1222 C 0.20434 0.3964 0.29648 0.0
C1223 C 0.18811 0.34742 0.33923 0.0
C1224 C 0.20741 0.32616 0.3251 0.0
H1225 H 0.17118 0.3967 0.33718 0.0
H1226 H 0.17378 0.33743 0.36131 0.0
S1227 S 0.25972 0.35262 0.2499 0.0
N1228 N 0.24267 0.38723 0.25454 0.0
N1229 N 0.24535 0.32297 0.28064 0.0
C1230 C 0.22547 0.34059 0.29633 0.0
C1231 C 0.22402 0.37562 0.28214 0.0
C1232 C 0.71552 0.84926 0.34385 0.0
C1233 C 0.73773 0.89004 0.32999 0.0
C1234 C 0.68069 0.81399 0.32976 0.0
C1235 C 0.66654 0.81766 0.30102 0.0
H1236 H 0.72518 0.84426 0.36584 0.0
H1237 H 0.66524 0.78339 0.34139 0.0
S1238 S 0.71218 0.91752 0.25522 0.0
N1239 N 0.74197 0.93212 0.28597 0.0
N1240 N 0.67663 0.86594 0.25951 0.0
C1241 C 0.68802 0.85834 0.28698 0.0
C1242 C 0.72351 0.8944 0.30139 0.0
C1243 C 0.19971 0.84756 0.28968 0.0
C1244 C 0.23589 0.8525 0.30577 0.0
C1245 C 0.16342 0.84431 0.30437 0.0
C1246 C 0.16105 0.84487 0.33591 0.0
H1247 H 0.19946 0.84666 0.26536 0.0
H1248 H 0.13685 0.84107 0.29081 0.0
S1249 S 0.24662 0.8567 0.38881 0.0
N1250 N 0.2668 0.85776 0.35523 0.0
N1251 N 0.19847 0.85089 0.38287 0.0
C1252 C 0.19677 0.84935 0.35237 0.0
C1253 C 0.23413 0.85341 0.33734 0.0
C1254 C 0.69403 0.88461 0.82033 0.0
C1255 C 0.67988 0.86559 0.79177 0.0
C1256 C 0.72839 0.88408 0.83535 0.0
C1257 C 0.75035 0.86451 0.82258 0.0
H1258 H 0.67826 0.89987 0.83141 0.0
H1259 H 0.73752 0.89892 0.85733 0.0
S1260 S 0.7266 0.8104 0.74807 0.0
N1261 N 0.69119 0.82676 0.75124 0.0
N1262 N 0.75547 0.826 0.77921 0.0
C1263 C 0.73688 0.84578 0.79386 0.0
C1264 C 0.70181 0.84623 0.7786 0.0
C1265 C 0.20396 0.89175 0.80931 0.0
C1266 C 0.1962 0.88838 0.8405 0.0
C1267 C 0.20255 0.85791 0.7928 0.0
C1268 C 0.19389 0.8193 0.80675 0.0
H1269 H 0.21132 0.92094 0.7974 0.0
H1270 H 0.20943 0.86259 0.76895 0.0
S1271 S 0.16908 0.79297 0.88761 0.0
N1272 N 0.1775 0.84243 0.88453 0.0
N1273 N 0.17568 0.77888 0.85355 0.0
C1274 C 0.1853 0.81504 0.83787 0.0
C1275 C 0.18611 0.84947 0.85469 0.0
C1276 C 0.1712 0.33465 0.80732 0.0
C1277 C 0.16577 0.33449 0.8387 0.0
C1278 C 0.20774 0.36794 0.79287 0.0
C1279 C 0.2411 0.40214 0.80919 0.0
H1280 H 0.14716 0.30861 0.79374 0.0
H1281 H 0.21024 0.36629 0.76871 0.0
S1282 S 0.24278 0.41764 0.89177 0.0
N1283 N 0.19701 0.37254 0.88554 0.0
N1284 N 0.2656 0.43421 0.85852 0.0
C1285 C 0.23595 0.40262 0.84052 0.0
C1286 C 0.19841 0.36916 0.85519 0.0
C1287 C 0.84988 0.65685 0.64094 0.0
C1288 C 0.87504 0.66533 0.66713 0.0
C1289 C 0.84331 0.68854 0.62758 0.0
C1290 C 0.86156 0.73029 0.63976 0.0
H1291 H 0.83452 0.62517 0.63076 0.0
H1292 H 0.82378 0.68012 0.60745 0.0
S1293 S 0.93124 0.76983 0.70772 0.0
N1294 N 0.919 0.71919 0.70445 0.0
N1295 N 0.90681 0.77855 0.67948 0.0
C1296 C 0.88709 0.73937 0.66587 0.0
C1297 C 0.89377 0.70704 0.67946 0.0
C1298 C 0.33641 0.16139 0.66638 0.0
C1299 C 0.33408 0.16405 0.63495 0.0
C1300 C 0.36527 0.19722 0.68348 0.0
C1301 C 0.39315 0.23711 0.66984 0.0
H1302 H 0.31636 0.13121 0.67789 0.0
H1303 H 0.36698 0.19302 0.70744 0.0
S1304 S 0.39677 0.26279 0.58882 0.0
N1305 N 0.35993 0.21134 0.59123 0.0
N1306 N 0.41426 0.27814 0.62342 0.0
C1307 C 0.38992 0.24077 0.63865 0.0
C1308 C 0.3604 0.20444 0.62123 0.0
C1309 C 0.85993 0.18704 0.67399 0.0
C1310 C 0.82458 0.18371 0.65782 0.0
C1311 C 0.89595 0.18958 0.65921 0.0
C1312 C 0.89804 0.1882 0.62759 0.0
H1313 H 0.86021 0.18855 0.6983 0.0
H1314 H 0.92232 0.19239 0.6728 0.0
S1315 S 0.81316 0.17785 0.57468 0.0
N1316 N 0.79368 0.17821 0.60823 0.0
N1317 N 0.86065 0.18219 0.58067 0.0
C1318 C 0.86252 0.18405 0.61117 0.0
C1319 C 0.82612 0.18208 0.62619 0.0
C1320 C 1.02564 0.5076 0.45343 0.0
C1321 C 0.99577 0.51554 0.46856 0.0
C1322 C 0.05923 0.50628 0.46892 0.0
C1323 C 0.06404 0.51202 0.50033 0.0
H1324 H 1.02359 0.50309 0.4293 0.0
H1325 H 0.08169 0.50076 0.45607 0.0
S1326 S 0.99344 0.53221 0.55083 0.0
N1327 N 0.97275 0.52825 0.51706 0.0
N1328 N 1.03525 0.52529 0.54602 0.0
C1329 C 1.03383 0.51911 0.51582 0.0
C1330 C 0.99998 0.52102 0.50001 0.0
C1331 C 0.52106 0.5169 0.50737 0.0
C1332 C 0.53957 0.55886 0.49544 0.0
C1333 C 0.51977 0.48296 0.49095 0.0
C1334 C 0.53688 0.48929 0.46175 0.0
H1335 H 0.50719 0.50992 0.5297 0.0
H1336 H 0.50521 0.45148 0.50135 0.0
S1337 S 0.58923 0.59297 0.4199 0.0
N1338 N 0.57547 0.60473 0.45242 0.0
N1339 N 0.5733 0.54121 0.42152 0.0
C1340 C 0.55556 0.53112 0.44945 0.0
C1341 C 0.55681 0.56576 0.46622 0.0
C1342 C 0.53429 0.03002 0.45031 0.0
C1343 C 0.57448 0.05318 0.46496 0.0
C1344 C 0.49824 0.99584 0.46455 0.0
C1345 C 0.50066 0.98312 0.49413 0.0
H1346 H 0.53042 0.03854 0.42765 0.0
H1347 H 0.46809 0.97953 0.45229 0.0
S1348 S 0.59888 0.03184 0.54215 0.0
N1349 N 0.61461 0.05983 0.5107 0.0
N1350 N 0.54747 0.99594 0.5372 0.0
C1351 C 0.54087 1.00562 0.50888 0.0
C1352 C 0.5775 0.04048 0.49444 0.0
C1353 C 0.53824 0.02651 0.957 0.0
C1354 C 0.53309 0.05724 0.97336 0.0
C1355 C 0.54413 0.99522 0.97143 0.0
C1356 C 0.5456 0.9933 0.00295 0.0
H1357 H 0.53722 0.02612 0.93267 0.0
H1358 H 0.54716 0.97202 0.95761 0.0
S1359 S 0.53548 0.0672 0.0565 0.0
N1360 N 0.53114 0.08452 0.02305 0.0
N1361 N 0.54228 0.02566 0.05023 0.0
C1362 C 0.54146 0.02438 0.01971 0.0
C1363 C 0.53512 0.05623 0.00494 0.0
C1364 C 0.07263 0.55031 0.96786 0.0
C1365 C 0.067 0.564 -0.00364 0.0
C1366 C 0.03992 0.51264 0.95434 0.0
C1367 C 1.0001 0.48654 0.96877 0.0
H1368 H 0.10271 0.56875 0.95577 0.0
H1369 H 0.0461 0.50387 0.93238 0.0
S1370 S 0.96815 0.50806 0.0434 0.0
N1371 N 1.01778 0.54833 0.03839 0.0
N1372 N 0.95658 0.47775 0.01309 0.0
C1373 C 0.99387 0.49984 -0.00275 0.0
C1374 C 1.02714 0.53842 0.01095 0.0
C1375 C 0.56546 0.51263 0.00232 0.0
C1376 C 0.56704 0.51051 0.97073 0.0
C1377 C 0.52799 0.50623 0.01728 0.0
C1378 C 0.49073 0.49804 0.00125 0.0
H1379 H 0.59364 0.52 0.01564 0.0
H1380 H 0.52899 0.50985 0.04148 0.0
S1381 S 0.47631 0.48573 0.91859 0.0
N1382 N 0.52628 0.49647 0.92418 0.0
N1383 N 0.4568 0.4855 0.95224 0.0
C1384 C 0.4913 0.49431 0.96982 0.0
C1385 C 0.52911 0.50022 0.9546 0.0
C1386 C 0.31904 0.33297 0.07063 0.0
C1387 C 0.28589 0.31911 0.09271 0.0
C1388 C 0.33501 0.37188 0.05455 0.0
C1389 C 0.31971 0.40042 0.05969 0.0
H1390 H 0.33395 0.31385 0.06575 0.0
H1391 H 0.36217 0.38125 0.03959 0.0
S1392 S 0.23183 0.3807 0.11328 0.0
N1393 N 0.23633 0.33728 0.11685 0.0
N1394 N 0.26835 0.4117 0.08821 0.0
C1395 C 0.28592 0.38701 0.08107 0.0
C1396 C 0.26861 0.34639 0.09705 0.0
C1397 C 0.69683 0.96903 0.03649 0.0
C1398 C 0.66408 0.9325 0.05099 0.0
C1399 C 0.73865 0.99325 0.04912 0.0
C1400 C 0.75027 0.98279 0.07719 0.0
H1401 H 0.68933 0.98092 0.01637 0.0
H1402 H 0.76176 1.02176 0.03706 0.0
S1403 S 0.67742 0.88723 0.12284 0.0
N1404 N 0.64737 0.88489 0.09395 0.0
N1405 N 0.72533 0.93023 0.11737 0.0
C1406 C 0.71861 0.94469 0.09089 0.0
C1407 C 0.67597 0.91988 0.07796 0.0
C1408 C 0.12891 0.76384 0.06995 0.0
C1409 C 0.12316 0.74195 0.04214 0.0
C1410 C 0.10364 0.78238 0.07861 0.0
C1411 C 0.07116 0.78034 0.05981 0.0
H1412 H 0.15206 0.76482 0.086 0.0
H1413 H 0.10874 0.79712 0.10058 0.0
S1414 S 0.04504 0.72942 0.98325 0.0
N1415 N 0.08423 0.72181 -0.00472 0.0
N1416 N 0.03697 0.75598 0.01033 0.0
C1417 C 0.06686 0.76046 0.03102 0.0
C1418 C 0.09275 0.74171 0.02245 0.0
C1419 C 0.38462 0.27854 0.40855 0.0
C1420 C 0.41822 0.31806 0.39757 0.0
C1421 C 0.34353 0.25684 0.39413 0.0
C1422 C 0.33416 0.27262 0.36772 0.0
H1423 H 0.38912 0.26554 0.42928 0.0
H1424 H 0.31795 0.22883 0.40482 0.0
S1425 S 0.41078 0.37248 0.32793 0.0
N1426 N 0.43866 0.37037 0.35668 0.0
N1427 N 0.36269 0.32913 0.33069 0.0
C1428 C 0.36791 0.31059 0.35575 0.0
C1429 C 0.40937 0.33312 0.37026 0.0
C1430 C 0.80118 0.1026 0.38502 0.0
C1431 C 0.7913 0.06094 0.39405 0.0
C1432 C 0.78398 0.12553 0.40051 0.0
C1433 C 0.75698 0.10859 0.4261 0.0
H1434 H 0.82036 0.11668 0.36501 0.0
H1435 H 0.78957 0.15563 0.39124 0.0
S1436 S 0.72469 1.00364 0.46158 0.0
N1437 N 0.75453 1.00579 0.43269 0.0
N1438 N 0.72407 0.04919 0.46076 0.0
C1439 C 0.74937 0.06861 0.4364 0.0
C1440 C 0.76598 0.04492 0.42074 0.0
C1441 C 0.93734 0.66947 0.42158 0.0
C1442 C 0.94539 0.63848 0.40851 0.0
C1443 C 0.95569 0.71169 0.40958 0.0
C1444 C 0.98205 0.72495 0.38344 0.0
H1445 H 0.91873 0.66193 0.44212 0.0
H1446 H 0.95147 0.73519 0.42208 0.0
S1447 S 1.01002 0.6557 0.33852 0.0
N1448 N 0.97974 0.62414 0.36599 0.0
N1449 N 1.01277 0.70244 0.34408 0.0
C1450 C 0.9879 0.69361 0.36906 0.0
C1451 C 0.97005 0.65091 0.3814 0.0
C1452 C 0.73855 0.71021 0.88942 0.0
C1453 C 0.78199 0.72999 0.87988 0.0
C1454 C 0.71968 0.67426 0.90853 0.0
C1455 C 0.74214 0.65403 0.91932 0.0
H1456 H 0.71847 0.72335 0.88257 0.0
H1457 H 0.68612 0.66163 0.9145 0.0
S1458 S 0.85669 0.69055 0.90075 0.0
N1459 N 0.84757 0.72582 0.8832 0.0
N1460 N 0.81108 0.65621 0.91772 0.0
C1461 C 0.78565 0.67257 0.90974 0.0
C1462 C 0.80556 0.71053 0.89038 0.0
C1463 C 0.39326 0.12378 0.90333 0.0
C1464 C 0.40258 0.11069 0.93098 0.0
C1465 C 0.35228 0.10057 0.88893 0.0
C1466 C 0.31857 0.06222 0.9013 0.0
H1467 H 0.41885 0.15069 0.89173 0.0
H1468 H 0.34787 0.1116 0.86731 0.0
S1469 S 0.32486 1.0159 0.97509 0.0
N1470 N 0.37332 0.0584 0.97092 0.0
N1471 N 0.29727 1.01486 0.94513 0.0
C1472 C 0.32706 0.05015 0.92989 0.0
C1473 C 0.36853 0.07409 0.94432 0.0
C1474 C 0.98613 0.26966 0.93008 0.0
C1475 C 0.99369 0.26282 0.89962 0.0
C1476 C 0.96401 0.29158 0.9383 0.0
C1477 C 0.94857 0.30853 0.91645 0.0
H1478 H 0.99954 0.26005 0.94812 0.0
H1479 H 0.96151 0.29759 0.96186 0.0
S1480 S 0.95533 0.29625 0.83341 0.0
N1481 N 0.98004 0.27206 0.84779 0.0
N1482 N 0.93935 0.31339 0.8624 0.0
C1483 C 0.95356 0.29964 0.88584 0.0
C1484 C 0.97572 0.27689 0.87763 0.0
C1485 C 0.6638 0.71783 0.58771 0.0
C1486 C 0.65123 0.73217 0.56189 0.0
C1487 C 0.70455 0.74245 0.60151 0.0
C1488 C 0.73516 0.78297 0.59034 0.0
H1489 H 0.64267 0.68602 0.59673 0.0
H1490 H 0.71354 0.72782 0.61924 0.0
S1491 S 0.71789 0.83852 0.52586 0.0
N1492 N 0.67208 0.79219 0.52796 0.0
N1493 N 0.74867 0.83809 0.55335 0.0
C1494 C 0.72189 0.79924 0.56608 0.0
C1495 C 0.68016 0.77414 0.55203 0.0
C1496 C 0.32739 1.00973 0.55887 0.0
C1497 C 0.28937 0.98725 0.57657 0.0
C1498 C 0.34413 0.98919 0.54128 0.0
C1499 C 0.32493 0.94431 0.54009 0.0
H1500 H 0.34567 0.04455 0.55854 0.0
H1501 H 0.37425 1.00919 0.52954 0.0
S1502 S 0.2228 0.86798 0.57911 0.0
N1503 N 0.23075 0.91578 0.58925 0.0
N1504 N 0.26383 0.87684 0.55723 0.0
C1505 C 0.28615 0.92048 0.55674 0.0
C1506 C 0.26819 0.94184 0.57464 0.0
C1507 C 0.10108 0.36398 0.53709 0.0
C1508 C 0.12542 0.39875 0.55653 0.0
C1509 C 0.07827 0.32103 0.54799 0.0
C1510 C 0.07922 0.31045 0.5787 0.0
H1511 H 0.09707 0.37008 0.51383 0.0
H1512 H 0.05809 0.29592 0.53227 0.0
S1513 S 0.13953 0.38869 0.63878 0.0
N1514 N 0.14979 0.41848 0.60832 0.0
N1515 N 0.10842 0.3385 0.62771 0.0
C1516 C 0.10544 0.34439 0.59786 0.0
C1517 C 0.12797 0.38808 0.58706 0.0
C1518 C 0.05046 0.62978 0.76165 0.0
C1519 C 0.08384 0.65179 0.74094 0.0
C1520 C 1.00689 0.60765 0.75225 0.0
C1521 C 0.99412 0.60615 0.72167 0.0
H1522 H 0.05767 0.6319 0.78543 0.0
H1523 H 0.98269 0.59375 0.76969 0.0
S1524 S 0.06912 0.65233 0.65758 0.0
N1525 N 0.1008 0.66579 0.6873 0.0
N1526 N 1.0194 0.62444 0.67061 0.0
C1527 C 1.02717 0.6247 0.7005 0.0
C1528 C 0.07164 0.64741 0.7099 0.0
C1529 C 0.43875 0.45922 0.73564 0.0
C1530 C 0.42352 0.45511 0.76554 0.0
C1531 C 0.45631 0.43432 0.72414 0.0
C1532 C 0.45886 0.40344 0.74206 0.0
H1533 H 0.43526 0.48071 0.72059 0.0
H1534 H 0.46592 0.43789 0.70077 0.0
S1535 S 0.42651 0.38314 0.82341 0.0
N1536 N 0.41509 0.42044 0.8133 0.0
N1537 N 0.44678 0.37333 0.79318 0.0
C1538 C 0.4455 0.40092 0.77281 0.0
C1539 C 0.42833 0.42671 0.78417 0.0
C1540 C 0.64999 0.99575 0.70929 0.0
C1541 C 0.61908 0.98125 0.73292 0.0
C1542 C 0.66443 0.03536 0.69433 0.0
C1543 C 0.64871 0.06299 0.70178 0.0
H1544 H 0.66486 0.97712 0.70282 0.0
H1545 H 0.69101 0.04611 0.67864 0.0
S1546 S 0.56307 0.0387 0.75849 0.0
N1547 N 0.56967 0.99642 0.76023 0.0
N1548 N 0.59724 0.07095 0.73271 0.0
C1549 C 0.61558 0.04763 0.72378 0.0
C1550 C 0.60074 1.00705 0.73911 0.0
C1551 C 0.45095 1.00806 0.24819 0.0
C1552 C 0.40801 0.97675 0.2409 0.0
C1553 C 0.4738 0.04761 0.23188 0.0
C1554 C 0.45575 0.05714 0.20664 0.0
H1555 H 0.46618 1.00317 0.2676 0.0
H1556 H 0.50489 0.07212 0.24032 0.0
S1557 S 0.34635 0.98598 0.17612 0.0
N1558 N 0.34957 0.95916 0.20507 0.0
N1559 N 0.3934 0.03079 0.1746 0.0
C1560 C 0.41428 0.02513 0.1981 0.0
C1561 C 0.39039 0.98595 0.21505 0.0
C1562 C 1.02382 0.40451 0.2049 0.0
C1563 C 0.99194 0.4117 0.21722 0.0
C1564 C 0.0648 0.42134 0.21847 0.0
C1565 C 0.07656 0.44645 0.24522 0.0
H1566 H 1.0159 0.38265 0.18608 0.0
H1567 H 0.08698 0.4129 0.20823 0.0
S1568 S 1.00624 0.47901 0.28464 0.0
N1569 N 0.97606 0.44867 0.25658 0.0
N1570 N 0.05318 0.48098 0.28146 0.0
C1571 C 0.04603 0.45652 0.25653 0.0
C1572 C 1.00396 0.43901 0.24277 0.0
C1573 C 0.66812 0.66236 0.25223 0.0
C1574 C 0.62363 0.64051 0.2592 0.0
C1575 C 0.68702 0.64499 0.23356 0.0
C1576 C 0.66364 0.60333 0.22108 0.0
H1577 H 0.68897 0.69486 0.26031 0.0
H1578 H 0.72121 0.66507 0.22908 0.0
S1579 S 0.54759 0.52743 0.23673 0.0
N1580 N 0.55689 0.57208 0.25407 0.0
N1581 N 0.59354 0.53778 0.22078 0.0
C1582 C 0.6194 0.57932 0.2292 0.0
C1583 C 0.59937 0.598 0.24786 0.0
C1584 C 1.01476 0.16279 0.12098 0.0
C1585 C 0.99766 0.13034 0.14323 0.0
C1586 C 0.05939 0.18561 0.11399 0.0
C1587 C 0.0892 0.17881 0.13025 0.0
H1588 H 0.993 0.16756 0.10678 0.0
H1589 H 0.07019 0.20703 0.09481 0.0
S1590 S 0.06166 0.10577 0.19642 0.0
N1591 N 1.0146 0.09778 0.18448 0.0
N1592 N 0.09804 0.14281 0.17404 0.0
C1593 C 0.07278 0.15084 0.15547 0.0
C1594 C 1.02731 0.12639 0.16144 0.0
C1595 C 0.86902 0.90411 0.13381 0.0
C1596 C 0.89729 0.9485 0.13712 0.0
C1597 C 0.884 0.87465 0.13605 0.0
C1598 C 0.92828 0.88857 0.14033 0.0
H1599 H 0.83605 0.89241 0.1267 0.0
H1600 H 0.86193 0.84144 0.12998 0.0
S1601 S 1.01394 1.00057 0.15588 0.0
N1602 N 0.97016 1.00398 0.15039 0.0
N1603 N 0.99844 0.94902 0.15275 0.0
C1604 C 0.95557 0.93209 0.14748 0.0
C1605 C 0.94016 0.96203 0.14589 0.0
C1606 C 0.11066 0.04256 0.08538 0.0
C1607 C 0.13365 0.06031 0.11248 0.0
C1608 C 0.08725 0.99834 0.07956 0.0
C1609 C 0.08424 0.96786 0.1005 0.0
H1610 H 0.10912 0.06299 0.06825 0.0
H1611 H 0.06955 0.98784 0.05859 0.0
S1612 S 0.13799 0.99462 0.17524 0.0
N1613 N 0.15269 0.04232 0.16052 0.0
N1614 N 0.10725 0.95832 0.14993 0.0
C1615 C 0.10794 0.98426 0.12755 0.0
C1616 C 0.13278 0.03037 0.13345 0.0
C1617 C 0.13889 0.05875 0.32276 0.0
C1618 C 0.17761 0.08252 0.33916 0.0
C1619 C 0.11677 1.01323 0.32197 0.0
C1620 C 0.13285 0.98987 0.33722 0.0
H1621 H 0.12343 0.07514 0.3129 0.0
H1622 H 0.08502 0.99648 0.31198 0.0
S1623 S 0.23747 0.03721 0.37771 0.0
N1624 N 0.23397 0.07941 0.36709 0.0
N1625 N 0.1936 0.9946 0.36477 0.0
C1626 C 0.17412 1.01371 0.35042 0.0
C1627 C 0.19605 0.05975 0.35179 0.0
C1628 C 0.04463 0.11183 0.31844 0.0
C1629 C 0.07236 0.15154 0.33233 0.0
C1630 C 0.99998 0.089 0.32458 0.0
C1631 C 0.98127 0.10396 0.34588 0.0
H1632 H 0.05805 0.09662 0.30455 0.0
H1633 H 0.9806 0.05768 0.31431 0.0
S1634 S 0.03848 0.20846 0.3857 0.0
N1635 N 0.07656 0.20725 0.36546 0.0
N1636 N 0.9934 0.16299 0.37854 0.0
C1637 C 1.00804 0.14471 0.35853 0.0
C1638 C 0.05326 0.16877 0.35134 0.0
C1639 C 0.95683 0.95036 0.31729 0.0
C1640 C 0.91381 0.93461 0.32655 0.0
C1641 C 0.97988 0.92948 0.32513 0.0
C1642 C 0.96131 0.89171 0.34261 0.0
H1643 H 0.97447 0.98179 0.30685 0.0
H1644 H 1.01377 0.94502 0.31956 0.0
S1645 S 0.84746 0.83236 0.36802 0.0
N1646 N 0.85166 0.87483 0.35041 0.0
N1647 N 0.89535 0.83626 0.3656 0.0
C1648 C 0.91714 0.87305 0.3494 0.0
C1649 C 0.89333 0.89416 0.34107 0.0
C1650 C 0.0452 0.93919 0.8148 0.0
C1651 C 0.07562 0.92945 0.82682 0.0
C1652 C 1.00085 0.91386 0.8211 0.0
C1653 C 0.98448 0.87835 0.84091 0.0
H1654 H 0.05619 0.96878 0.8023 0.0
H1655 H 0.9796 0.92434 0.81203 0.0
S1656 S 0.04885 0.83326 0.87317 0.0
N1657 N 0.08484 0.8766 0.85488 0.0
N1658 N 1.00187 0.83085 0.86862 0.0
C1659 C 1.01391 0.86603 0.85116 0.0
C1660 C 0.05917 0.89094 0.84354 0.0
C1661 C 0.1438 0.09481 0.82387 0.0
C1662 C 0.18446 0.10847 0.83714 0.0
C1663 C 0.12791 0.12338 0.8202 0.0
C1664 C 0.15185 0.16614 0.8303 0.0
H1665 H 0.12239 0.06105 0.81902 0.0
H1666 H 0.09474 0.11051 0.81324 0.0
S1667 S 0.26507 0.22036 0.85741 0.0
N1668 N 0.2518 0.1694 0.85374 0.0
N1669 N 0.22253 0.22315 0.8463 0.0
C1670 C 0.19537 0.18155 0.83829 0.0
C1671 C 0.21125 0.15248 0.84249 0.0
C1672 C 0.98274 1.01035 0.84234 0.0
C1673 C 0.93752 0.98825 0.8455 0.0
C1674 C 1.00855 0.05432 0.8494 0.0
C1675 C 0.99096 0.07949 0.85966 0.0
H1676 H 0.99891 0.99269 0.8366 0.0
H1677 H 0.04315 0.06819 0.8482 0.0
S1678 S 0.87426 0.03774 0.87274 0.0
N1679 N 0.87612 0.99525 0.86042 0.0
N1680 N 0.92451 0.0784 0.8724 0.0
C1681 C 0.94554 0.05852 0.86173 0.0
C1682 C 0.91901 1.01302 0.85499 0.0
C1683 C 0.90267 0.03929 0.61436 0.0
C1684 C 0.9355 0.05751 0.63637 0.0
C1685 C 0.88443 0.99582 0.60529 0.0
C1686 C 0.89587 0.96808 0.61958 0.0
H1687 H 0.89453 0.05989 0.60165 0.0
H1688 H 0.86324 0.98464 0.58595 0.0
S1689 S 0.96734 0.99542 0.68602 0.0
N1690 N 0.97111 0.04162 0.67639 0.0
N1691 N 0.93292 0.95919 0.66218 0.0
C1692 C 0.92252 0.98398 0.64512 0.0
C1693 C 0.94295 0.0287 0.65306 0.0
C1694 C 1.03062 0.89917 0.63022 0.0
C1695 C 1.00376 0.91747 0.62801 0.0
C1696 C 0.0749 0.92253 0.62222 0.0
C1697 C 0.09358 0.96449 0.6104 0.0
H1698 H 1.01643 0.86534 0.63565 0.0
H1699 H 0.09388 0.90677 0.62357 0.0
S1700 S 0.03852 0.02825 0.6019 0.0
N1701 N 1.00104 0.98169 0.61556 0.0
N1702 N 0.08229 0.02426 0.59915 0.0
C1703 C 0.06777 0.98384 0.60974 0.0
C1704 C 1.02359 0.96083 0.61906 0.0
C1705 C 0.18254 0.16211 0.60994 0.0
C1706 C 0.17222 0.12748 0.62969 0.0
C1707 C 0.15523 0.17948 0.60635 0.0
C1708 C 0.1171 0.16423 0.62319 0.0
H1709 H 0.20913 0.17223 0.59432 0.0
H1710 H 0.16237 0.20279 0.58863 0.0
S1711 S 0.07931 0.07955 0.68186 0.0
N1712 N 0.12361 0.08208 0.66865 0.0
N1713 N 0.07364 0.11638 0.66348 0.0
C1714 C 0.10913 0.13329 0.64562 0.0
C1715 C 0.13643 0.1147 0.64859 0.0
C1716 C 0.68573 0.48709 0.44925 0.0
C1717 C 0.66486 0.45226 0.46943 0.0
C1718 C 0.73039 0.50668 0.44333 0.0
C1719 C 0.75669 0.49471 0.4592 0.0
H1720 H 0.66672 0.49616 0.43549 0.0
H1721 H 0.74392 0.52967 0.42511 0.0
S1722 S 0.72007 0.41644 0.52222 0.0
N1723 N 0.67522 0.41316 0.50958 0.0
N1724 N 0.75963 0.45316 0.5014 0.0
C1725 C 0.73729 0.46529 0.48312 0.0
C1726 C 0.69141 0.44363 0.48776 0.0
C1727 C 0.60198 0.2895 0.46704 0.0
C1728 C 0.56972 0.27786 0.44488 0.0
C1729 C 0.62398 0.26623 0.47095 0.0
C1730 C 0.61383 0.22947 0.45357 0.0
H1731 H 0.6129 0.31892 0.47974 0.0
H1732 H 0.65119 0.27895 0.48614 0.0
S1733 S 0.52882 0.18287 0.39491 0.0
N1734 N 0.52712 0.22556 0.40677 0.0
N1735 N 0.56659 0.18095 0.41501 0.0
C1736 C 0.57944 0.21583 0.433 0.0
C1737 C 0.55792 0.24013 0.42845 0.0
C1738 C 0.82449 0.32844 0.4422 0.0
C1739 C 0.78595 0.29888 0.45679 0.0
C1740 C 0.84694 0.37255 0.45019 0.0
C1741 C 0.83018 0.38961 0.47142 0.0
H1742 H 0.83655 0.31779 0.42373 0.0
H1743 H 0.87558 0.39412 0.43762 0.0
S1744 S 0.73643 0.32506 0.52093 0.0
N1745 N 0.73749 0.28918 0.4983 0.0
N1746 N 0.77742 0.37208 0.51074 0.0
C1747 C 0.79439 0.35986 0.48814 0.0
C1748 C 0.7727 0.31469 0.48126 0.0
C1749 C 0.80112 0.4009 0.65853 0.0
C1750 C 0.83383 0.42271 0.68019 0.0
C1751 C 0.78364 0.35648 0.65264 0.0
C1752 C 0.79892 0.33241 0.66774 0.0
H1753 H 0.78751 0.41781 0.64706 0.0
H1754 H 0.75573 0.34035 0.6383 0.0
S1755 S 0.89586 0.37851 0.71692 0.0
N1756 N 0.8885 0.41963 0.71025 0.0
N1757 N 0.8574 0.33719 0.69834 0.0
C1758 C 0.83704 0.35607 0.68492 0.0
C1759 C 0.85395 0.40085 0.69153 0.0
C1760 C 0.67242 0.4053 0.67986 0.0
C1761 C 0.64235 0.41864 0.68612 0.0
C1762 C 0.71473 0.43427 0.67071 0.0
C1763 C 0.73017 0.47863 0.66842 0.0
H1764 H 0.66418 0.37235 0.68397 0.0
H1765 H 0.73696 0.42244 0.6703 0.0
S1766 S 0.66401 0.53061 0.67982 0.0
N1767 N 0.62986 0.4791 0.68627 0.0
N1768 N 0.71046 0.53412 0.67085 0.0
C1769 C 0.69949 0.49207 0.67224 0.0
C1770 C 0.65566 0.46217 0.68093 0.0
C1771 C 0.57802 0.19977 0.67364 0.0
C1772 C 0.62175 0.22667 0.6666 0.0
C1773 C 0.5481 0.21403 0.66976 0.0
C1774 C 0.56127 0.25664 0.6603 0.0
H1775 H 0.56766 0.16939 0.68489 0.0
H1776 H 0.51607 0.19426 0.67908 0.0
S1777 S 0.66796 0.3317 0.62737 0.0
N1778 N 0.67343 0.29176 0.64069 0.0
N1779 N 0.61782 0.31924 0.63491 0.0
C1780 C 0.60291 0.28032 0.64821 0.0
C1781 C 0.63321 0.2655 0.65158 0.0
C1782 C 0.70923 0.27061 0.1477 0.0
C1783 C 0.73031 0.25073 0.16118 0.0
C1784 C 0.66405 0.25282 0.15059 0.0
C1785 C 0.6385 0.21421 0.16661 0.0
H1786 H 0.72794 0.30193 0.13754 0.0
H1787 H 0.64976 0.27138 0.14267 0.0
S1788 S 0.67608 0.14346 0.19804 0.0
N1789 N 0.72025 0.18513 0.18456 0.0
N1790 N 0.63636 0.15283 0.19068 0.0
C1791 C 0.65826 0.19117 0.17617 0.0
C1792 C 0.70377 0.20876 0.17273 0.0
C1793 C 0.75997 0.42291 0.15499 0.0
C1794 C 0.77875 0.46684 0.16219 0.0
C1795 C 0.77802 0.39829 0.16483 0.0
C1796 C 0.81651 0.41639 0.18143 0.0
H1797 H 0.72816 0.40611 0.14501 0.0
H1798 H 0.76017 0.36408 0.16105 0.0
S1799 S 0.88255 0.53135 0.20252 0.0
N1800 N 0.84079 0.52852 0.18458 0.0
N1801 N 0.87578 0.4823 0.20177 0.0
C1802 C 0.83831 0.46116 0.18611 0.0
C1803 C 0.81936 0.48635 0.17655 0.0
C1804 C 0.54792 0.33532 0.18571 0.0
C1805 C 0.55941 0.31651 0.16218 0.0
C1806 C 0.57326 0.37952 0.19323 0.0
C1807 C 0.61007 0.40771 0.17642 0.0
H1808 H 0.52135 0.31478 0.20025 0.0
H1809 H 0.56499 0.39125 0.21312 0.0
S1810 S 0.64875 0.37667 0.10836 0.0
N1811 N 0.60732 0.33094 0.12003 0.0
N1812 N 0.65235 0.41404 0.13178 0.0
C1813 C 0.61863 0.39026 0.15047 0.0
C1814 C 0.5939 0.34492 0.14382 0.0
C1815 C 0.56306 0.3282 0.95969 0.0
C1816 C 0.58337 0.30415 0.95256 0.0
C1817 C 0.58752 0.37357 0.96481 0.0
C1818 C 0.63319 0.39623 0.96384 0.0
H1819 H 0.52818 0.31235 0.95981 0.0
H1820 H 0.57058 0.39124 0.96753 0.0
S1821 S 0.70185 0.34849 0.94652 0.0
N1822 N 0.65208 0.30794 0.94444 0.0
N1823 N 0.69685 0.38969 0.95685 0.0
C1824 C 0.65324 0.37157 0.95878 0.0
C1825 C 0.62875 0.32666 0.95228 0.0
C1826 C 0.73364 0.23452 0.94643 0.0
C1827 C 0.75749 0.27307 0.96257 0.0
C1828 C 0.68854 0.20887 0.94991 0.0
C1829 C 0.66522 0.22114 0.96911 0.0
H1830 H 0.74927 0.22628 0.92894 0.0
H1831 H 0.67114 0.18182 0.93487 0.0
S1832 S 0.71345 0.31508 0.0204 0.0
N1833 N 0.75521 0.31873 0.00192 0.0
N1834 N 0.67055 0.2712 0.00773 0.0
C1835 C 0.68929 0.25691 -0.01219 0.0
C1836 C 0.73535 0.28278 -0.01541 0.0
C1837 C 0.777 0.47239 0.97775 0.0
C1838 C 0.79372 0.50763 0.95756 0.0
C1839 C 0.79624 0.4465 0.98113 0.0
C1840 C 0.83429 0.45613 0.9657 0.0
H1841 H 0.74645 0.46211 -0.01116 0.0
H1842 H 0.7789 0.41656 -0.00656 0.0
S1843 S 0.89884 0.5531 0.91849 0.0
N1844 N 0.85523 0.55556 0.92701 0.0
N1845 N 0.89318 0.50953 0.93527 0.0
C1846 C 0.85477 0.49525 0.94943 0.0
C1847 C 0.83412 0.52027 0.94479 0.0
C1848 C 0.36815 0.77489 0.80965 0.0
C1849 C 0.3443 0.79493 0.80207 0.0
C1850 C 0.41275 0.79448 0.80361 0.0
C1851 C 0.43549 0.83477 0.78916 0.0
H1852 H 0.35151 0.74165 0.81642 0.0
H1853 H 0.42853 0.77606 0.8079 0.0
S1854 S 0.39073 0.9049 0.77009 0.0
N1855 N 0.34923 0.86114 0.7842 0.0
N1856 N 0.43228 0.8969 0.77165 0.0
C1857 C 0.41341 0.85727 0.78445 0.0
C1858 C 0.36829 0.83787 0.79158 0.0
C1859 C 0.23087 0.58519 0.77356 0.0
C1860 C 0.24348 0.62443 0.78813 0.0
C1861 C 0.24957 0.55995 0.78119 0.0
C1862 C 0.28215 0.57346 0.80327 0.0
H1863 H 0.20882 0.57551 0.75473 0.0
H1864 H 0.24165 0.53198 0.76756 0.0
S1865 S 0.31674 0.66686 0.8539 0.0
N1866 N 0.2825 0.66997 0.83055 0.0
N1867 N 0.31935 0.62405 0.84353 0.0
C1868 C 0.29079 0.60971 0.8204 0.0
C1869 C 0.27112 0.63487 0.8131 0.0
C1870 C 0.46703 0.70991 0.81953 0.0
C1871 C 0.50739 0.73582 0.80564 0.0
C1872 C 0.44313 0.66499 0.81504 0.0
C1873 C 0.45793 0.64393 0.79577 0.0
H1874 H 0.45179 0.725 0.83154 0.0
H1875 H 0.41106 0.64728 0.82463 0.0
S1876 S 0.56498 0.69516 0.75866 0.0
N1877 N 0.56406 0.73547 0.77592 0.0
N1878 N 0.51824 0.65163 0.76613 0.0
C1879 C 0.49974 0.66869 0.78386 0.0
C1880 C 0.52472 0.71431 0.78931 0.0
C1881 C 0.45673 0.71604 -0.00535 0.0
C1882 C 0.49876 0.74682 0.00416 0.0
C1883 C 0.44483 0.67279 -0.01084 0.0
C1884 C 0.47393 0.65804 -0.00567 0.0
H1885 H 0.43187 0.72472 -0.00648 0.0
H1886 H 0.41128 0.64986 -0.01537 0.0
S1887 S 0.58986 0.72688 0.01371 0.0
N1888 N 0.57132 0.76073 0.01335 0.0
N1889 N 0.54867 0.67936 0.00451 0.0
C1890 C 0.51737 0.68961 0.00012 0.0
C1891 C 0.52974 0.73388 0.00504 0.0
C1892 C 0.33074 0.80851 0.01983 0.0
C1893 C 0.30974 0.76692 0.00764 0.0
C1894 C 0.37491 0.83694 0.01432 0.0
C1895 C 0.40048 0.82386 -0.00196 0.0
H1896 H 0.31406 0.81782 0.0358 0.0
H1897 H 0.39057 0.86671 0.02702 0.0
S1898 S 0.35702 0.72423 0.95274 0.0
N1899 N 0.31442 0.71954 0.97068 0.0
N1900 N 0.39844 0.77075 0.96345 0.0
C1901 C 0.37831 0.78505 0.98208 0.0
C1902 C 0.3328 0.75686 -0.01348 0.0
C1903 C 0.3037 0.63871 0.00881 0.0
C1904 C 0.26027 0.61031 0.00119 0.0
C1905 C 0.33195 0.62404 0.01698 0.0
C1906 C 0.31878 0.57987 0.01788 0.0
H1907 H 0.31477 0.67236 0.01259 0.0
H1908 H 0.36396 0.64792 0.02435 0.0
S1909 S 0.20878 0.49124 -0.00087 0.0
N1910 N 0.20569 0.53529 -0.00536 0.0
N1911 N 0.2592 0.50754 0.00884 0.0
C1912 C 0.27617 0.55088 0.00864 0.0
C1913 C 0.24704 0.56606 0.00059 0.0
C1914 C 0.37792 0.55282 0.51007 0.0
C1915 C 0.40257 0.59063 0.49293 0.0
C1916 C 0.33356 0.53652 0.51599 0.0
C1917 C 0.31168 0.55661 0.50423 0.0
H1918 H 0.39427 0.53926 0.52251 0.0
H1919 H 0.31751 0.51067 0.53212 0.0
S1920 S 0.35849 0.65036 0.45268 0.0
N1921 N 0.39949 0.64323 0.46068 0.0
N1922 N 0.31637 0.61191 0.47062 0.0
C1923 C 0.33448 0.59077 0.48392 0.0
C1924 C 0.37963 0.60758 0.47826 0.0
C1925 C 0.48044 0.81452 0.50427 0.0
C1926 C 0.43495 0.79335 0.50668 0.0
C1927 C 0.50375 0.79312 0.51174 0.0
C1928 C 0.4827 0.751 0.52393 0.0
H1929 H 0.49822 0.84819 0.49807 0.0
H1930 H 0.53852 0.81036 0.5094 0.0
S1931 S 0.36427 0.68152 0.53458 0.0
N1932 N 0.37017 0.7252 0.51827 0.0
N1933 N 0.4137 0.69049 0.53882 0.0
C1934 C 0.43754 0.7301 0.52635 0.0
C1935 C 0.41389 0.74969 0.51586 0.0
C1936 C 0.27137 0.68443 0.48345 0.0
C1937 C 0.23108 0.65682 0.49661 0.0
C1938 C 0.29274 0.72935 0.4883 0.0
C1939 C 0.27554 0.74859 0.50745 0.0
H1940 H 0.28873 0.671 0.47225 0.0
H1941 H 0.32488 0.74859 0.4791 0.0
S1942 S 0.16555 0.69227 0.53985 0.0
N1943 N 0.17039 0.65364 0.52336 0.0
N1944 N 0.2117 0.7373 0.53407 0.0
C1945 C 0.23317 0.72216 0.5176 0.0
C1946 C 0.21063 0.67671 0.51146 0.0
C1947 C 0.26675 0.65346 0.31149 0.0
C1948 C 0.22843 0.63605 0.29436 0.0
C1949 C 0.29286 0.6982 0.31614 0.0
C1950 C 0.2809 0.72751 0.30517 0.0
H1951 H 0.27874 0.6328 0.31913 0.0
H1952 H 0.32432 0.71019 0.32632 0.0
S1953 S 0.17982 0.69809 0.26387 0.0
N1954 N 0.17783 0.65157 0.26908 0.0
N1955 N 0.22485 0.73496 0.28007 0.0
C1956 C 0.24033 0.71004 0.29099 0.0
C1957 C 0.2147 0.66463 0.28497 0.0
C1958 C 0.39254 0.57095 0.26693 0.0
C1959 C 0.42238 0.60541 0.2849 0.0
C1960 C 0.3476 0.5513 0.27189 0.0
C1961 C 0.33023 0.56618 0.29423 0.0
H1962 H 0.40387 0.56017 0.2481 0.0
H1963 H 0.32618 0.52596 0.25679 0.0
S1964 S 0.39348 0.65186 0.34962 0.0
N1965 N 0.43049 0.65003 0.32853 0.0
N1966 N 0.34642 0.61487 0.33606 0.0
C1967 C 0.3595 0.59871 0.31341 0.0
C1968 C 0.40532 0.61783 0.30917 0.0
C1969 C 0.49981 0.80147 0.26181 0.0
C1970 C 0.49496 0.77622 0.28734 0.0
C1971 C 0.47926 0.82595 0.25906 0.0
C1972 C 0.4522 0.82652 0.28176 0.0
H1973 H 0.51749 0.80012 0.24269 0.0
H1974 H 0.48249 0.84244 0.23801 0.0
S1975 S 0.43142 0.76948 0.35496 0.0
N1976 N 0.46361 0.75627 0.33711 0.0
N1977 N 0.42455 0.80193 0.33224 0.0
C1978 C 0.44934 0.80388 0.30854 0.0
C1979 C 0.47061 0.77879 0.31125 0.0
loop_
_geom_bond_atom_site_label_1
_geom_bond_atom_site_label_2
_geom_bond_distance
_geom_bond_site_symmetry_2
_ccdc_geom_bond_type
Fe0 O2 1.918 . S
Fe0 O5 1.997 . S
Fe0 O6 2.002 . S
Fe0 O11 1.976 . S
Fe0 O14 1.996 . S
Fe1 O2 1.918 . S
Fe1 O9 1.997 . S
Fe1 O12 1.996 . S
Fe1 O16 1.976 . S
Fe1 O19 2.002 . S
O2 Fe0 1.918 . S
O2 Fe1 1.918 . S
O2 Fe3 1.918 . S
Fe3 O2 1.918 . S
Fe3 O4 2.002 . S
Fe3 O13 1.976 . S
Fe3 O17 1.996 . S
Fe3 O20 1.997 . S
O4 Fe3 2.002 . S
O4 C21 1.295 . S
O5 Fe0 1.997 . S
O5 C21 1.235 . S
O6 Fe0 2.002 . S
O6 C7 1.295 . S
C7 O6 1.295 . S
C7 O9 1.235 . S
C8 O13 1.287 . S
C8 O14 1.255 . S
O9 Fe1 1.997 . S
O9 C7 1.235 . S
C10 O16 1.287 . S
C10 O17 1.255 . S
O11 Fe0 1.976 . S
O11 C18 1.287 . S
O12 Fe1 1.996 . S
O12 C18 1.255 . S
O13 Fe3 1.976 . S
O13 C8 1.287 . S
O14 Fe0 1.996 . S
O14 C8 1.255 . S
C15 O19 1.295 . S
C15 O20 1.235 . S
O16 Fe1 1.976 . S
O16 C10 1.287 . S
O17 Fe3 1.996 . S
O17 C10 1.255 . S
C18 O11 1.287 . S
C18 O12 1.255 . S
O19 Fe1 2.002 . S
O19 C15 1.295 . S
O20 Fe3 1.997 . S
O20 C15 1.235 . S
C21 O4 1.295 . S
C21 O5 1.235 . S
Fe22 O24 1.918 . S
Fe22 O27 1.997 1_545 S
Fe22 O28 2.002 1_545 S
Fe22 O33 1.976 . S
Fe22 O36 1.996 . S
Fe23 O24 1.918 . S
Fe23 O31 1.997 1_545 S
Fe23 O34 1.996 . S
Fe23 O38 1.976 . S
Fe23 O41 2.002 1_545 S
O24 Fe22 1.918 . S
O24 Fe23 1.918 . S
O24 Fe25 1.918 . S
Fe25 O24 1.918 . S
Fe25 O26 2.002 . S
Fe25 O35 1.976 . S
Fe25 O39 1.996 . S
Fe25 O42 2.007 . S
O26 Fe25 2.002 . S
O26 C43 1.295 1_545 S
O27 Fe22 1.997 1_565 S
O27 C43 1.235 . S
O28 Fe22 2.002 1_565 S
O28 C29 1.295 . S
C29 O28 1.295 . S
C29 O31 1.235 . S
C30 O35 1.287 . S
C30 O36 1.255 . S
O31 Fe23 1.997 1_565 S
O31 C29 1.235 . S
C32 O38 1.287 . S
C32 O39 1.255 . S
O33 Fe22 1.976 . S
O33 C40 1.287 . S
O34 Fe23 1.996 . S
O34 C40 1.255 . S
O35 Fe25 1.976 . S
O35 C30 1.287 . S
O36 Fe22 1.996 . S
O36 C30 1.255 . S
C37 O41 1.295 . S
C37 O42 1.223 1_565 S
O38 Fe23 1.976 . S
O38 C32 1.287 . S
O39 Fe25 1.996 . S
O39 C32 1.255 . S
C40 O33 1.287 . S
C40 O34 1.255 . S
O41 Fe23 2.002 1_565 S
O41 C37 1.295 . S
O42 Fe25 2.007 . S
O42 C37 1.223 1_545 S
C43 O26 1.295 1_565 S
C43 O27 1.235 . S
Fe44 O46 1.918 . S
Fe44 O49 2.004 . S
Fe44 O50 2.002 . S
Fe44 O55 1.976 . S
Fe44 O58 1.996 . S
Fe45 O46 1.918 . S
Fe45 O53 1.997 1_655 S
Fe45 O56 1.996 . S
Fe45 O60 1.976 . S
Fe45 O63 2.002 1_655 S
O46 Fe44 1.918 . S
O46 Fe45 1.918 . S
O46 Fe47 1.918 . S
Fe47 O46 1.918 . S
Fe47 O48 2.002 1_655 S
Fe47 O57 1.976 . S
Fe47 O61 1.996 . S
Fe47 O64 1.997 1_655 S
O48 Fe47 2.002 1_455 S
O48 C65 1.295 . S
O49 Fe44 2.004 . S
O49 C65 1.235 1_655 S
O50 Fe44 2.002 . S
O50 C51 1.295 1_655 S
C51 O50 1.295 1_455 S
C51 O53 1.235 . S
C52 O57 1.287 . S
C52 O58 1.255 . S
O53 Fe45 1.997 1_455 S
O53 C51 1.235 . S
C54 O60 1.287 . S
C54 O61 1.255 . S
O55 Fe44 1.976 . S
O55 C62 1.287 . S
O56 Fe45 1.996 . S
O56 C62 1.255 . S
O57 Fe47 1.976 . S
O57 C52 1.287 . S
O58 Fe44 1.996 . S
O58 C52 1.255 . S
C59 O63 1.295 . S
C59 O64 1.235 . S
O60 Fe45 1.976 . S
O60 C54 1.287 . S
O61 Fe47 1.996 . S
O61 C54 1.255 . S
C62 O55 1.287 . S
C62 O56 1.255 . S
O63 Fe45 2.002 1_455 S
O63 C59 1.295 . S
O64 Fe47 1.997 1_455 S
O64 C59 1.235 . S
C65 O48 1.295 . S
C65 O49 1.235 1_455 S
Fe66 O68 1.918 . S
Fe66 O71 1.997 . S
Fe66 O72 2.002 . S
Fe66 O77 1.976 . S
Fe66 O80 1.996 . S
Fe67 O68 1.918 . S
Fe67 O75 1.997 . S
Fe67 O78 1.996 . S
Fe67 O82 1.976 . S
Fe67 O85 2.002 . S
O68 Fe66 1.918 . S
O68 Fe67 1.918 . S
O68 Fe69 1.918 . S
Fe69 O68 1.918 . S
Fe69 O70 2.002 . S
Fe69 O79 1.976 . S
Fe69 O83 1.996 . S
Fe69 O86 1.997 . S
O70 Fe69 2.002 . S
O70 C87 1.295 . S
O71 Fe66 1.997 . S
O71 C87 1.235 . S
O72 Fe66 2.002 . S
O72 C73 1.295 . S
C73 O72 1.295 . S
C73 O75 1.235 . S
C74 O79 1.287 . S
C74 O80 1.255 . S
O75 Fe67 1.997 . S
O75 C73 1.235 . S
C76 O82 1.287 . S
C76 O83 1.255 . S
O77 Fe66 1.976 . S
O77 C84 1.287 . S
O78 Fe67 1.996 . S
O78 C84 1.255 . S
O79 Fe69 1.976 . S
O79 C74 1.287 . S
O80 Fe66 1.996 . S
O80 C74 1.255 . S
C81 O85 1.295 . S
C81 O86 1.235 . S
O82 Fe67 1.976 . S
O82 C76 1.287 . S
O83 Fe69 1.996 . S
O83 C76 1.255 . S
C84 O77 1.287 . S
C84 O78 1.255 . S
O85 Fe67 2.002 . S
O85 C81 1.295 . S
O86 Fe69 1.997 . S
O86 C81 1.235 . S
C87 O70 1.295 . S
C87 O71 1.235 . S
Fe88 O90 1.918 . S
Fe88 O93 1.997 1_565 S
Fe88 O94 2.002 1_565 S
Fe88 O99 1.976 . S
Fe88 O102 1.996 . S
Fe89 O90 1.918 . S
Fe89 O97 1.997 1_565 S
Fe89 O100 1.996 . S
Fe89 O104 1.976 . S
Fe89 O107 2.002 1_565 S
O90 Fe88 1.918 . S
O90 Fe89 1.918 . S
O90 Fe91 1.918 . S
Fe91 O90 1.918 . S
Fe91 O92 2.002 . S
Fe91 O101 1.976 . S
Fe91 O105 1.996 . S
Fe91 O108 2.004 . S
O92 Fe91 2.002 . S
O92 C109 1.295 1_565 S
O93 Fe88 1.997 1_545 S
O93 C109 1.235 . S
O94 Fe88 2.002 1_545 S
O94 C95 1.295 . S
C95 O94 1.295 . S
C95 O97 1.235 . S
C96 O101 1.287 . S
C96 O102 1.255 . S
O97 Fe89 1.997 1_545 S
O97 C95 1.235 . S
C98 O104 1.287 . S
C98 O105 1.255 . S
O99 Fe88 1.976 . S
O99 C106 1.287 . S
O100 Fe89 1.996 . S
O100 C106 1.255 . S
O101 Fe91 1.976 . S
O101 C96 1.287 . S
O102 Fe88 1.996 . S
O102 C96 1.255 . S
C103 O107 1.295 . S
C103 O108 1.235 1_545 S
O104 Fe89 1.976 . S
O104 C98 1.287 . S
O105 Fe91 1.996 . S
O105 C98 1.255 . S
C106 O99 1.287 . S
C106 O100 1.255 . S
O107 Fe89 2.002 1_545 S
O107 C103 1.295 . S
O108 Fe91 2.004 . S
O108 C103 1.235 1_565 S
C109 O92 1.295 1_545 S
C109 O93 1.235 . S
Fe110 O112 1.918 . S
Fe110 O115 1.997 1_455 S
Fe110 O116 2.002 1_455 S
Fe110 O121 1.976 . S
Fe110 O124 1.996 . S
Fe111 O112 1.918 . S
Fe111 O119 1.997 1_455 S
Fe111 O122 1.996 . S
Fe111 O126 1.976 . S
Fe111 O129 2.002 1_455 S
O112 Fe110 1.918 . S
O112 Fe111 1.918 . S
O112 Fe113 1.918 . S
Fe113 O112 1.918 . S
Fe113 O114 2.002 . S
Fe113 O123 1.976 . S
Fe113 O127 1.996 . S
Fe113 O130 2.007 . S
O114 Fe113 2.002 . S
O114 C131 1.295 1_455 S
O115 Fe110 1.997 1_655 S
O115 C131 1.235 . S
O116 Fe110 2.002 1_655 S
O116 C117 1.295 . S
C117 O116 1.295 . S
C117 O119 1.235 . S
C118 O123 1.287 . S
C118 O124 1.255 . S
O119 Fe111 1.997 1_655 S
O119 C117 1.235 . S
C120 O126 1.287 . S
C120 O127 1.255 . S
O121 Fe110 1.976 . S
O121 C128 1.287 . S
O122 Fe111 1.996 . S
O122 C128 1.255 . S
O123 Fe113 1.976 . S
O123 C118 1.287 . S
O124 Fe110 1.996 . S
O124 C118 1.255 . S
C125 O129 1.295 . S
C125 O130 1.223 1_655 S
O126 Fe111 1.976 . S
O126 C120 1.287 . S
O127 Fe113 1.996 . S
O127 C120 1.255 . S
C128 O121 1.287 . S
C128 O122 1.255 . S
O129 Fe111 2.002 1_655 S
O129 C125 1.295 . S
O130 Fe113 2.007 . S
O130 C125 1.223 1_455 S
C131 O114 1.295 1_655 S
C131 O115 1.235 . S
Fe132 O134 1.918 . S
Fe132 O137 1.997 . S
Fe132 O138 2.002 . S
Fe132 O143 1.976 . S
Fe132 O146 1.996 . S
Fe133 O134 1.918 . S
Fe133 O141 1.997 . S
Fe133 O144 1.996 . S
Fe133 O148 1.976 . S
Fe133 O151 2.002 . S
O134 Fe132 1.918 . S
O134 Fe133 1.918 . S
O134 Fe135 1.918 . S
Fe135 O134 1.918 . S
Fe135 O136 2.002 . S
Fe135 O145 1.976 . S
Fe135 O149 1.996 . S
Fe135 O152 1.997 . S
O136 Fe135 2.002 . S
O136 C153 1.295 . S
O137 Fe132 1.997 . S
O137 C153 1.235 . S
O138 Fe132 2.002 . S
O138 C139 1.295 . S
C139 O138 1.295 . S
C139 O141 1.235 . S
C140 O145 1.287 . S
C140 O146 1.255 . S
O141 Fe133 1.997 . S
O141 C139 1.235 . S
C142 O148 1.287 . S
C142 O149 1.255 . S
O143 Fe132 1.976 . S
O143 C150 1.287 . S
O144 Fe133 1.996 . S
O144 C150 1.255 . S
O145 Fe135 1.976 . S
O145 C140 1.287 . S
O146 Fe132 1.996 . S
O146 C140 1.255 . S
C147 O151 1.295 . S
C147 O152 1.235 . S
O148 Fe133 1.976 . S
O148 C142 1.287 . S
O149 Fe135 1.996 . S
O149 C142 1.255 . S
C150 O143 1.287 . S
C150 O144 1.255 . S
O151 Fe133 2.002 . S
O151 C147 1.295 . S
O152 Fe135 1.997 . S
O152 C147 1.235 . S
C153 O136 1.295 . S
C153 O137 1.235 . S
Fe154 O156 1.918 . S
Fe154 O159 1.997 1_565 S
Fe154 O160 2.002 1_565 S
Fe154 O165 1.976 . S
Fe154 O168 1.996 . S
Fe155 O156 1.918 . S
Fe155 O163 1.997 1_565 S
Fe155 O166 1.996 . S
Fe155 O170 1.976 . S
Fe155 O173 2.002 1_565 S
O156 Fe154 1.918 . S
O156 Fe155 1.918 . S
O156 Fe157 1.918 . S
Fe157 O156 1.918 . S
Fe157 O158 2.002 . S
Fe157 O167 1.976 . S
Fe157 O171 1.996 . S
Fe157 O174 2.007 . S
O158 Fe157 2.002 . S
O158 C175 1.295 1_565 S
O159 Fe154 1.997 1_545 S
O159 C175 1.235 . S
O160 Fe154 2.002 1_545 S
O160 C161 1.295 . S
C161 O160 1.295 . S
C161 O163 1.235 . S
C162 O167 1.287 . S
C162 O168 1.255 . S
O163 Fe155 1.997 1_545 S
O163 C161 1.235 . S
C164 O170 1.287 . S
C164 O171 1.255 . S
O165 Fe154 1.976 . S
O165 C172 1.287 . S
O166 Fe155 1.996 . S
O166 C172 1.255 . S
O167 Fe157 1.976 . S
O167 C162 1.287 . S
O168 Fe154 1.996 . S
O168 C162 1.255 . S
C169 O173 1.295 . S
C169 O174 1.223 1_545 S
O170 Fe155 1.976 . S
O170 C164 1.287 . S
O171 Fe157 1.996 . S
O171 C164 1.255 . S
C172 O165 1.287 . S
C172 O166 1.255 . S
O173 Fe155 2.002 1_545 S
O173 C169 1.295 . S
O174 Fe157 2.007 . S
O174 C169 1.223 1_565 S
C175 O158 1.295 1_545 S
C175 O159 1.235 . S
Fe176 O178 1.918 . S
Fe176 O181 1.997 1_455 S
Fe176 O182 2.002 1_455 S
Fe176 O187 1.976 . S
Fe176 O190 1.996 . S
Fe177 O178 1.918 . S
Fe177 O185 2.004 . S
Fe177 O188 1.996 . S
Fe177 O192 1.976 . S
Fe177 O195 2.002 . S
O178 Fe176 1.918 . S
O178 Fe177 1.918 . S
O178 Fe179 1.918 . S
Fe179 O178 1.918 . S
Fe179 O180 2.002 1_455 S
Fe179 O189 1.976 . S
Fe179 O193 1.996 . S
Fe179 O196 1.997 1_455 S
O180 Fe179 2.002 1_655 S
O180 C197 1.295 . S
O181 Fe176 1.997 1_655 S
O181 C197 1.235 . S
O182 Fe176 2.002 1_655 S
O182 C183 1.295 . S
C183 O182 1.295 . S
C183 O185 1.235 1_655 S
C184 O189 1.287 . S
C184 O190 1.255 . S
O185 Fe177 2.004 . S
O185 C183 1.235 1_455 S
C186 O192 1.287 . S
C186 O193 1.255 . S
O187 Fe176 1.976 . S
O187 C194 1.287 . S
O188 Fe177 1.996 . S
O188 C194 1.255 . S
O189 Fe179 1.976 . S
O189 C184 1.287 . S
O190 Fe176 1.996 . S
O190 C184 1.255 . S
C191 O195 1.295 1_655 S
C191 O196 1.235 . S
O192 Fe177 1.976 . S
O192 C186 1.287 . S
O193 Fe179 1.996 . S
O193 C186 1.255 . S
C194 O187 1.287 . S
C194 O188 1.255 . S
O195 Fe177 2.002 . S
O195 C191 1.295 1_455 S
O196 Fe179 1.997 1_655 S
O196 C191 1.235 . S
C197 O180 1.295 . S
C197 O181 1.235 . S
Fe198 O200 1.918 . S
Fe198 O203 1.997 . S
Fe198 O204 2.002 . S
Fe198 O209 1.976 . S
Fe198 O212 1.996 . S
Fe199 O200 1.918 . S
Fe199 O207 1.997 . S
Fe199 O210 1.996 . S
Fe199 O214 1.976 . S
Fe199 O217 2.002 . S
O200 Fe198 1.918 . S
O200 Fe199 1.918 . S
O200 Fe201 1.918 . S
Fe201 O200 1.918 . S
Fe201 O202 2.002 . S
Fe201 O211 1.976 . S
Fe201 O215 1.996 . S
Fe201 O218 1.997 . S
O202 Fe201 2.002 . S
O202 C219 1.295 . S
O203 Fe198 1.997 . S
O203 C219 1.235 . S
O204 Fe198 2.002 . S
O204 C205 1.295 . S
C205 O204 1.295 . S
C205 O207 1.235 . S
C206 O211 1.287 . S
C206 O212 1.255 . S
O207 Fe199 1.997 . S
O207 C205 1.235 . S
C208 O214 1.287 . S
C208 O215 1.255 . S
O209 Fe198 1.976 . S
O209 C216 1.287 . S
O210 Fe199 1.996 . S
O210 C216 1.255 . S
O211 Fe201 1.976 . S
O211 C206 1.287 . S
O212 Fe198 1.996 . S
O212 C206 1.255 . S
C213 O217 1.295 . S
C213 O218 1.235 . S
O214 Fe199 1.976 . S
O214 C208 1.287 . S
O215 Fe201 1.996 . S
O215 C208 1.255 . S
C216 O209 1.287 . S
C216 O210 1.255 . S
O217 Fe199 2.002 . S
O217 C213 1.295 . S
O218 Fe201 1.997 . S
O218 C213 1.235 . S
C219 O202 1.295 . S
C219 O203 1.235 . S
Fe220 O222 1.918 . S
Fe220 O225 1.997 1_545 S
Fe220 O226 2.002 1_545 S
Fe220 O231 1.976 . S
Fe220 O234 1.996 . S
Fe221 O222 1.918 . S
Fe221 O229 1.997 1_545 S
Fe221 O232 1.996 . S
Fe221 O236 1.976 . S
Fe221 O239 2.002 1_545 S
O222 Fe220 1.918 . S
O222 Fe221 1.918 . S
O222 Fe223 1.918 . S
Fe223 O222 1.918 . S
Fe223 O224 2.002 . S
Fe223 O233 1.976 . S
Fe223 O237 1.996 . S
Fe223 O240 2.004 . S
O224 Fe223 2.002 . S
O224 C241 1.295 1_545 S
O225 Fe220 1.997 1_565 S
O225 C241 1.235 . S
O226 Fe220 2.002 1_565 S
O226 C227 1.295 . S
C227 O226 1.295 . S
C227 O229 1.235 . S
C228 O233 1.287 . S
C228 O234 1.255 . S
O229 Fe221 1.997 1_565 S
O229 C227 1.235 . S
C230 O236 1.287 . S
C230 O237 1.255 . S
O231 Fe220 1.976 . S
O231 C238 1.287 . S
O232 Fe221 1.996 . S
O232 C238 1.255 . S
O233 Fe223 1.976 . S
O233 C228 1.287 . S
O234 Fe220 1.996 . S
O234 C228 1.255 . S
C235 O239 1.295 . S
C235 O240 1.235 1_565 S
O236 Fe221 1.976 . S
O236 C230 1.287 . S
O237 Fe223 1.996 . S
O237 C230 1.255 . S
C238 O231 1.287 . S
C238 O232 1.255 . S
O239 Fe221 2.002 1_565 S
O239 C235 1.295 . S
O240 Fe223 2.004 . S
O240 C235 1.235 1_545 S
C241 O224 1.295 1_565 S
C241 O225 1.235 . S
Fe242 O244 1.918 . S
Fe242 O247 1.997 1_655 S
Fe242 O248 2.002 1_655 S
Fe242 O253 1.976 . S
Fe242 O256 1.996 . S
Fe243 O244 1.918 . S
Fe243 O251 1.997 1_655 S
Fe243 O254 1.996 . S
Fe243 O258 1.976 . S
Fe243 O261 2.002 1_655 S
O244 Fe242 1.918 . S
O244 Fe243 1.918 . S
O244 Fe245 1.918 . S
Fe245 O244 1.918 . S
Fe245 O246 2.002 . S
Fe245 O255 1.976 . S
Fe245 O259 1.996 . S
Fe245 O262 2.007 . S
O246 Fe245 2.002 . S
O246 C263 1.295 1_655 S
O247 Fe242 1.997 1_455 S
O247 C263 1.235 . S
O248 Fe242 2.002 1_455 S
O248 C249 1.295 . S
C249 O248 1.295 . S
C249 O251 1.235 . S
C250 O255 1.287 . S
C250 O256 1.255 . S
O251 Fe243 1.997 1_455 S
O251 C249 1.235 . S
C252 O258 1.287 . S
C252 O259 1.255 . S
O253 Fe242 1.976 . S
O253 C260 1.287 . S
O254 Fe243 1.996 . S
O254 C260 1.255 . S
O255 Fe245 1.976 . S
O255 C250 1.287 . S
O256 Fe242 1.996 . S
O256 C250 1.255 . S
C257 O261 1.295 . S
C257 O262 1.223 1_455 S
O258 Fe243 1.976 . S
O258 C252 1.287 . S
O259 Fe245 1.996 . S
O259 C252 1.255 . S
C260 O253 1.287 . S
C260 O254 1.255 . S
O261 Fe243 2.002 1_455 S
O261 C257 1.295 . S
O262 Fe245 2.007 . S
O262 C257 1.223 1_655 S
C263 O246 1.295 1_455 S
C263 O247 1.235 . S
Fe264 O266 1.918 . S
Fe264 O269 1.997 . S
Fe264 O270 2.002 . S
Fe264 O275 1.976 . S
Fe264 O278 1.996 . S
Fe265 O266 1.918 . S
Fe265 O273 1.997 . S
Fe265 O276 1.996 . S
Fe265 O280 1.976 . S
Fe265 O283 2.002 . S
O266 Fe264 1.918 . S
O266 Fe265 1.918 . S
O266 Fe267 1.918 . S
Fe267 O266 1.918 . S
Fe267 O268 2.002 . S
Fe267 O277 1.976 . S
Fe267 O281 1.996 . S
Fe267 O284 1.997 . S
O268 Fe267 2.002 . S
O268 C285 1.295 . S
O269 Fe264 1.997 . S
O269 C285 1.235 . S
O270 Fe264 2.002 . S
O270 C271 1.295 . S
C271 O270 1.295 . S
C271 O273 1.235 . S
C272 O277 1.287 . S
C272 O278 1.255 . S
O273 Fe265 1.997 . S
O273 C271 1.235 . S
C274 O280 1.287 . S
C274 O281 1.255 . S
O275 Fe264 1.976 . S
O275 C282 1.287 . S
O276 Fe265 1.996 . S
O276 C282 1.255 . S
O277 Fe267 1.976 . S
O277 C272 1.287 . S
O278 Fe264 1.996 . S
O278 C272 1.255 . S
C279 O283 1.295 . S
C279 O284 1.235 . S
O280 Fe265 1.976 . S
O280 C274 1.287 . S
O281 Fe267 1.996 . S
O281 C274 1.255 . S
C282 O275 1.287 . S
C282 O276 1.255 . S
O283 Fe265 2.002 . S
O283 C279 1.295 . S
O284 Fe267 1.997 . S
O284 C279 1.235 . S
C285 O268 1.295 . S
C285 O269 1.235 . S
Fe286 O288 1.918 . S
Fe286 O291 1.997 . S
Fe286 O292 2.002 . S
Fe286 O297 1.976 . S
Fe286 O300 1.996 . S
Fe287 O288 1.918 . S
Fe287 O295 1.997 . S
Fe287 O298 1.996 . S
Fe287 O302 1.976 . S
Fe287 O305 2.002 . S
O288 Fe286 1.918 . S
O288 Fe287 1.918 . S
O288 Fe289 1.918 . S
Fe289 O288 1.918 . S
Fe289 O290 2.002 . S
Fe289 O299 1.976 . S
Fe289 O303 1.996 . S
Fe289 O306 1.997 . S
O290 Fe289 2.002 . S
O290 C307 1.295 . S
O291 Fe286 1.997 . S
O291 C307 1.235 . S
O292 Fe286 2.002 . S
O292 C293 1.295 . S
C293 O292 1.295 . S
C293 O295 1.235 . S
C294 O299 1.287 . S
C294 O300 1.255 . S
O295 Fe287 1.997 . S
O295 C293 1.235 . S
C296 O302 1.287 . S
C296 O303 1.255 . S
O297 Fe286 1.976 . S
O297 C304 1.287 . S
O298 Fe287 1.996 . S
O298 C304 1.255 . S
O299 Fe289 1.976 . S
O299 C294 1.287 . S
O300 Fe286 1.996 . S
O300 C294 1.255 . S
C301 O305 1.295 . S
C301 O306 1.235 . S
O302 Fe287 1.976 . S
O302 C296 1.287 . S
O303 Fe289 1.996 . S
O303 C296 1.255 . S
C304 O297 1.287 . S
C304 O298 1.255 . S
O305 Fe287 2.002 . S
O305 C301 1.295 . S
O306 Fe289 1.997 . S
O306 C301 1.235 . S
C307 O290 1.295 . S
C307 O291 1.235 . S
Fe308 O310 1.918 . S
Fe308 O313 1.997 . S
Fe308 O314 2.002 . S
Fe308 O319 1.976 . S
Fe308 O322 1.996 . S
Fe309 O310 1.918 . S
Fe309 O317 1.997 . S
Fe309 O320 1.996 . S
Fe309 O324 1.976 . S
Fe309 O327 2.002 . S
O310 Fe308 1.918 . S
O310 Fe309 1.918 . S
O310 Fe311 1.918 . S
Fe311 O310 1.918 . S
Fe311 O312 2.002 . S
Fe311 O321 1.976 . S
Fe311 O325 1.996 . S
Fe311 O328 1.997 . S
O312 Fe311 2.002 . S
O312 C329 1.295 . S
O313 Fe308 1.997 . S
O313 C329 1.235 . S
O314 Fe308 2.002 . S
O314 C315 1.295 . S
C315 O314 1.295 . S
C315 O317 1.235 . S
C316 O321 1.287 . S
C316 O322 1.255 . S
O317 Fe309 1.997 . S
O317 C315 1.235 . S
C318 O324 1.287 . S
C318 O325 1.255 . S
O319 Fe308 1.976 . S
O319 C326 1.287 . S
O320 Fe309 1.996 . S
O320 C326 1.255 . S
O321 Fe311 1.976 . S
O321 C316 1.287 . S
O322 Fe308 1.996 . S
O322 C316 1.255 . S
C323 O327 1.295 . S
C323 O328 1.235 . S
O324 Fe309 1.976 . S
O324 C318 1.287 . S
O325 Fe311 1.996 . S
O325 C318 1.255 . S
C326 O319 1.287 . S
C326 O320 1.255 . S
O327 Fe309 2.002 . S
O327 C323 1.295 . S
O328 Fe311 1.997 . S
O328 C323 1.235 . S
C329 O312 1.295 . S
C329 O313 1.235 . S
Fe330 O332 1.918 . S
Fe330 O335 1.997 . S
Fe330 O336 2.002 . S
Fe330 O341 1.976 . S
Fe330 O344 1.996 . S
Fe331 O332 1.918 . S
Fe331 O339 1.997 . S
Fe331 O342 1.996 . S
Fe331 O346 1.976 . S
Fe331 O349 2.002 . S
O332 Fe330 1.918 . S
O332 Fe331 1.918 . S
O332 Fe333 1.918 . S
Fe333 O332 1.918 . S
Fe333 O334 2.002 . S
Fe333 O343 1.976 . S
Fe333 O347 1.996 . S
Fe333 O350 1.997 . S
O334 Fe333 2.002 . S
O334 C351 1.295 . S
O335 Fe330 1.997 . S
O335 C351 1.235 . S
O336 Fe330 2.002 . S
O336 C337 1.295 . S
C337 O336 1.295 . S
C337 O339 1.235 . S
C338 O343 1.287 . S
C338 O344 1.255 . S
O339 Fe331 1.997 . S
O339 C337 1.235 . S
C340 O346 1.287 . S
C340 O347 1.255 . S
O341 Fe330 1.976 . S
O341 C348 1.287 . S
O342 Fe331 1.996 . S
O342 C348 1.255 . S
O343 Fe333 1.976 . S
O343 C338 1.287 . S
O344 Fe330 1.996 . S
O344 C338 1.255 . S
C345 O349 1.295 . S
C345 O350 1.235 . S
O346 Fe331 1.976 . S
O346 C340 1.287 . S
O347 Fe333 1.996 . S
O347 C340 1.255 . S
C348 O341 1.287 . S
C348 O342 1.255 . S
O349 Fe331 2.002 . S
O349 C345 1.295 . S
O350 Fe333 1.997 . S
O350 C345 1.235 . S
C351 O334 1.295 . S
C351 O335 1.235 . S
Fe352 O354 1.918 . S
Fe352 O357 1.997 . S
Fe352 O358 2.002 . S
Fe352 O363 1.976 . S
Fe352 O366 1.996 . S
Fe353 O354 1.918 . S
Fe353 O361 1.997 . S
Fe353 O364 1.996 . S
Fe353 O368 1.976 . S
Fe353 O371 2.002 . S
O354 Fe352 1.918 . S
O354 Fe353 1.918 . S
O354 Fe355 1.918 . S
Fe355 O354 1.918 . S
Fe355 O356 2.002 . S
Fe355 O365 1.976 . S
Fe355 O369 1.996 . S
Fe355 O372 1.997 . S
O356 Fe355 2.002 . S
O356 C373 1.295 . S
O357 Fe352 1.997 . S
O357 C373 1.235 . S
O358 Fe352 2.002 . S
O358 C359 1.295 . S
C359 O358 1.295 . S
C359 O361 1.235 . S
C360 O365 1.287 . S
C360 O366 1.255 . S
O361 Fe353 1.997 . S
O361 C359 1.235 . S
C362 O368 1.287 . S
C362 O369 1.255 . S
O363 Fe352 1.976 . S
O363 C370 1.287 . S
O364 Fe353 1.996 . S
O364 C370 1.255 . S
O365 Fe355 1.976 . S
O365 C360 1.287 . S
O366 Fe352 1.996 . S
O366 C360 1.255 . S
C367 O371 1.295 . S
C367 O372 1.235 . S
O368 Fe353 1.976 . S
O368 C362 1.287 . S
O369 Fe355 1.996 . S
O369 C362 1.255 . S
C370 O363 1.287 . S
C370 O364 1.255 . S
O371 Fe353 2.002 . S
O371 C367 1.295 . S
O372 Fe355 1.997 . S
O372 C367 1.235 . S
C373 O356 1.295 . S
C373 O357 1.235 . S
Fe374 O376 1.918 . S
Fe374 O379 1.997 . S
Fe374 O380 2.002 . S
Fe374 O385 1.976 . S
Fe374 O388 1.996 . S
Fe375 O376 1.918 . S
Fe375 O383 1.997 . S
Fe375 O386 1.996 . S
Fe375 O390 1.976 . S
Fe375 O393 2.002 . S
O376 Fe374 1.918 . S
O376 Fe375 1.918 . S
O376 Fe377 1.918 . S
Fe377 O376 1.918 . S
Fe377 O378 2.002 . S
Fe377 O387 1.976 . S
Fe377 O391 1.996 . S
Fe377 O394 1.997 . S
O378 Fe377 2.002 . S
O378 C395 1.295 . S
O379 Fe374 1.997 . S
O379 C395 1.235 . S
O380 Fe374 2.002 . S
O380 C381 1.295 . S
C381 O380 1.295 . S
C381 O383 1.235 . S
C382 O387 1.287 . S
C382 O388 1.255 . S
O383 Fe375 1.997 . S
O383 C381 1.235 . S
C384 O390 1.287 . S
C384 O391 1.255 . S
O385 Fe374 1.976 . S
O385 C392 1.287 . S
O386 Fe375 1.996 . S
O386 C392 1.255 . S
O387 Fe377 1.976 . S
O387 C382 1.287 . S
O388 Fe374 1.996 . S
O388 C382 1.255 . S
C389 O393 1.295 . S
C389 O394 1.235 . S
O390 Fe375 1.976 . S
O390 C384 1.287 . S
O391 Fe377 1.996 . S
O391 C384 1.255 . S
C392 O385 1.287 . S
C392 O386 1.255 . S
O393 Fe375 2.002 . S
O393 C389 1.295 . S
O394 Fe377 1.997 . S
O394 C389 1.235 . S
C395 O378 1.295 . S
C395 O379 1.235 . S
Fe396 O398 1.918 . S
Fe396 O401 1.997 . S
Fe396 O402 2.002 . S
Fe396 O407 1.976 . S
Fe396 O410 1.996 . S
Fe397 O398 1.918 . S
Fe397 O405 1.997 . S
Fe397 O408 1.996 . S
Fe397 O412 1.976 . S
Fe397 O415 2.002 . S
O398 Fe396 1.918 . S
O398 Fe397 1.918 . S
O398 Fe399 1.918 . S
Fe399 O398 1.918 . S
Fe399 O400 2.002 . S
Fe399 O409 1.976 . S
Fe399 O413 1.996 . S
Fe399 O416 1.997 . S
O400 Fe399 2.002 . S
O400 C417 1.295 . S
O401 Fe396 1.997 . S
O401 C417 1.235 . S
O402 Fe396 2.002 . S
O402 C403 1.295 . S
C403 O402 1.295 . S
C403 O405 1.235 . S
C404 O409 1.287 . S
C404 O410 1.255 . S
O405 Fe397 1.997 . S
O405 C403 1.235 . S
C406 O412 1.287 . S
C406 O413 1.255 . S
O407 Fe396 1.976 . S
O407 C414 1.287 . S
O408 Fe397 1.996 . S
O408 C414 1.255 . S
O409 Fe399 1.976 . S
O409 C404 1.287 . S
O410 Fe396 1.996 . S
O410 C404 1.255 . S
C411 O415 1.295 . S
C411 O416 1.235 . S
O412 Fe397 1.976 . S
O412 C406 1.287 . S
O413 Fe399 1.996 . S
O413 C406 1.255 . S
C414 O407 1.287 . S
C414 O408 1.255 . S
O415 Fe397 2.002 . S
O415 C411 1.295 . S
O416 Fe399 1.997 . S
O416 C411 1.235 . S
C417 O400 1.295 . S
C417 O401 1.235 . S
Fe418 O420 1.918 . S
Fe418 O423 1.997 . S
Fe418 O424 2.002 . S
Fe418 O429 1.976 . S
Fe418 O432 1.996 . S
Fe419 O420 1.918 . S
Fe419 O427 1.997 . S
Fe419 O430 1.996 . S
Fe419 O434 1.976 . S
Fe419 O437 2.002 . S
O420 Fe418 1.918 . S
O420 Fe419 1.918 . S
O420 Fe421 1.918 . S
Fe421 O420 1.918 . S
Fe421 O422 2.002 . S
Fe421 O431 1.976 . S
Fe421 O435 1.996 . S
Fe421 O438 1.997 . S
O422 Fe421 2.002 . S
O422 C439 1.295 . S
O423 Fe418 1.997 . S
O423 C439 1.235 . S
O424 Fe418 2.002 . S
O424 C425 1.295 . S
C425 O424 1.295 . S
C425 O427 1.235 . S
C426 O431 1.287 . S
C426 O432 1.255 . S
O427 Fe419 1.997 . S
O427 C425 1.235 . S
C428 O434 1.287 . S
C428 O435 1.255 . S
O429 Fe418 1.976 . S
O429 C436 1.287 . S
O430 Fe419 1.996 . S
O430 C436 1.255 . S
O431 Fe421 1.976 . S
O431 C426 1.287 . S
O432 Fe418 1.996 . S
O432 C426 1.255 . S
C433 O437 1.295 . S
C433 O438 1.235 . S
O434 Fe419 1.976 . S
O434 C428 1.287 . S
O435 Fe421 1.996 . S
O435 C428 1.255 . S
C436 O429 1.287 . S
C436 O430 1.255 . S
O437 Fe419 2.002 . S
O437 C433 1.295 . S
O438 Fe421 1.997 . S
O438 C433 1.235 . S
C439 O422 1.295 . S
C439 O423 1.235 . S
Fe440 O442 1.918 . S
Fe440 O445 1.997 . S
Fe440 O446 2.002 . S
Fe440 O451 1.976 . S
Fe440 O454 1.996 . S
Fe441 O442 1.918 . S
Fe441 O449 1.997 . S
Fe441 O452 1.996 . S
Fe441 O456 1.976 . S
Fe441 O459 2.002 . S
O442 Fe440 1.918 . S
O442 Fe441 1.918 . S
O442 Fe443 1.918 . S
Fe443 O442 1.918 . S
Fe443 O444 2.002 . S
Fe443 O453 1.976 . S
Fe443 O457 1.996 . S
Fe443 O460 1.997 . S
O444 Fe443 2.002 . S
O444 C461 1.295 . S
O445 Fe440 1.997 . S
O445 C461 1.235 . S
O446 Fe440 2.002 . S
O446 C447 1.295 . S
C447 O446 1.295 . S
C447 O449 1.235 . S
C448 O453 1.287 . S
C448 O454 1.255 . S
O449 Fe441 1.997 . S
O449 C447 1.235 . S
C450 O456 1.287 . S
C450 O457 1.255 . S
O451 Fe440 1.976 . S
O451 C458 1.287 . S
O452 Fe441 1.996 . S
O452 C458 1.255 . S
O453 Fe443 1.976 . S
O453 C448 1.287 . S
O454 Fe440 1.996 . S
O454 C448 1.255 . S
C455 O459 1.295 . S
C455 O460 1.235 . S
O456 Fe441 1.976 . S
O456 C450 1.287 . S
O457 Fe443 1.996 . S
O457 C450 1.255 . S
C458 O451 1.287 . S
C458 O452 1.255 . S
O459 Fe441 2.002 . S
O459 C455 1.295 . S
O460 Fe443 1.997 . S
O460 C455 1.235 . S
C461 O444 1.295 . S
C461 O445 1.235 . S
Fe462 O464 1.918 . S
Fe462 O467 1.997 . S
Fe462 O468 2.002 . S
Fe462 O473 1.976 . S
Fe462 O476 1.996 . S
Fe463 O464 1.918 . S
Fe463 O471 1.997 . S
Fe463 O474 1.996 . S
Fe463 O478 1.976 . S
Fe463 O481 2.002 . S
O464 Fe462 1.918 . S
O464 Fe463 1.918 . S
O464 Fe465 1.918 . S
Fe465 O464 1.918 . S
Fe465 O466 2.002 . S
Fe465 O475 1.976 . S
Fe465 O479 1.996 . S
Fe465 O482 1.997 . S
O466 Fe465 2.002 . S
O466 C483 1.295 . S
O467 Fe462 1.997 . S
O467 C483 1.235 . S
O468 Fe462 2.002 . S
O468 C469 1.295 . S
C469 O468 1.295 . S
C469 O471 1.235 . S
C470 O475 1.287 . S
C470 O476 1.255 . S
O471 Fe463 1.997 . S
O471 C469 1.235 . S
C472 O478 1.287 . S
C472 O479 1.255 . S
O473 Fe462 1.976 . S
O473 C480 1.287 . S
O474 Fe463 1.996 . S
O474 C480 1.255 . S
O475 Fe465 1.976 . S
O475 C470 1.287 . S
O476 Fe462 1.996 . S
O476 C470 1.255 . S
C477 O481 1.295 . S
C477 O482 1.235 . S
O478 Fe463 1.976 . S
O478 C472 1.287 . S
O479 Fe465 1.996 . S
O479 C472 1.255 . S
C480 O473 1.287 . S
C480 O474 1.255 . S
O481 Fe463 2.002 . S
O481 C477 1.295 . S
O482 Fe465 1.997 . S
O482 C477 1.235 . S
C483 O466 1.295 . S
C483 O467 1.235 . S
Fe484 O486 1.918 . S
Fe484 O489 1.997 . S
Fe484 O490 2.002 . S
Fe484 O495 1.976 . S
Fe484 O498 1.996 . S
Fe485 O486 1.918 . S
Fe485 O493 1.997 . S
Fe485 O496 1.996 . S
Fe485 O500 1.976 . S
Fe485 O503 2.002 . S
O486 Fe484 1.918 . S
O486 Fe485 1.918 . S
O486 Fe487 1.918 . S
Fe487 O486 1.918 . S
Fe487 O488 2.002 . S
Fe487 O497 1.976 . S
Fe487 O501 1.996 . S
Fe487 O504 1.997 . S
O488 Fe487 2.002 . S
O488 C505 1.295 . S
O489 Fe484 1.997 . S
O489 C505 1.235 . S
O490 Fe484 2.002 . S
O490 C491 1.295 . S
C491 O490 1.295 . S
C491 O493 1.235 . S
C492 O497 1.287 . S
C492 O498 1.255 . S
O493 Fe485 1.997 . S
O493 C491 1.235 . S
C494 O500 1.287 . S
C494 O501 1.255 . S
O495 Fe484 1.976 . S
O495 C502 1.287 . S
O496 Fe485 1.996 . S
O496 C502 1.255 . S
O497 Fe487 1.976 . S
O497 C492 1.287 . S
O498 Fe484 1.996 . S
O498 C492 1.255 . S
C499 O503 1.295 . S
C499 O504 1.235 . S
O500 Fe485 1.976 . S
O500 C494 1.287 . S
O501 Fe487 1.996 . S
O501 C494 1.255 . S
C502 O495 1.287 . S
C502 O496 1.255 . S
O503 Fe485 2.002 . S
O503 C499 1.295 . S
O504 Fe487 1.997 . S
O504 C499 1.235 . S
C505 O488 1.295 . S
C505 O489 1.235 . S
Fe506 O508 1.918 . S
Fe506 O511 1.997 . S
Fe506 O512 2.002 . S
Fe506 O517 1.976 . S
Fe506 O520 1.996 . S
Fe507 O508 1.918 . S
Fe507 O515 1.997 . S
Fe507 O518 1.996 . S
Fe507 O522 1.976 . S
Fe507 O525 2.002 . S
O508 Fe506 1.918 . S
O508 Fe507 1.918 . S
O508 Fe509 1.918 . S
Fe509 O508 1.918 . S
Fe509 O510 2.002 . S
Fe509 O519 1.976 . S
Fe509 O523 1.996 . S
Fe509 O526 1.997 . S
O510 Fe509 2.002 . S
O510 C527 1.295 . S
O511 Fe506 1.997 . S
O511 C527 1.235 . S
O512 Fe506 2.002 . S
O512 C513 1.295 . S
C513 O512 1.295 . S
C513 O515 1.235 . S
C514 O519 1.287 . S
C514 O520 1.255 . S
O515 Fe507 1.997 . S
O515 C513 1.235 . S
C516 O522 1.287 . S
C516 O523 1.255 . S
O517 Fe506 1.976 . S
O517 C524 1.287 . S
O518 Fe507 1.996 . S
O518 C524 1.255 . S
O519 Fe509 1.976 . S
O519 C514 1.287 . S
O520 Fe506 1.996 . S
O520 C514 1.255 . S
C521 O525 1.295 . S
C521 O526 1.235 . S
O522 Fe507 1.976 . S
O522 C516 1.287 . S
O523 Fe509 1.996 . S
O523 C516 1.255 . S
C524 O517 1.287 . S
C524 O518 1.255 . S
O525 Fe507 2.002 . S
O525 C521 1.295 . S
O526 Fe509 1.997 . S
O526 C521 1.235 . S
C527 O510 1.295 . S
C527 O511 1.235 . S
Fe528 O530 1.918 . S
Fe528 O533 1.997 . S
Fe528 O534 2.002 . S
Fe528 O539 1.976 . S
Fe528 O542 1.996 . S
Fe529 O530 1.918 . S
Fe529 O537 1.997 . S
Fe529 O540 1.996 . S
Fe529 O544 1.976 . S
Fe529 O547 2.002 . S
O530 Fe528 1.918 . S
O530 Fe529 1.918 . S
O530 Fe531 1.918 . S
Fe531 O530 1.918 . S
Fe531 O532 2.002 . S
Fe531 O541 1.976 . S
Fe531 O545 1.996 . S
Fe531 O548 1.997 . S
O532 Fe531 2.002 . S
O532 C549 1.295 . S
O533 Fe528 1.997 . S
O533 C549 1.235 . S
O534 Fe528 2.002 . S
O534 C535 1.295 . S
C535 O534 1.295 . S
C535 O537 1.235 . S
C536 O541 1.287 . S
C536 O542 1.255 . S
O537 Fe529 1.997 . S
O537 C535 1.235 . S
C538 O544 1.287 . S
C538 O545 1.255 . S
O539 Fe528 1.976 . S
O539 C546 1.287 . S
O540 Fe529 1.996 . S
O540 C546 1.255 . S
O541 Fe531 1.976 . S
O541 C536 1.287 . S
O542 Fe528 1.996 . S
O542 C536 1.255 . S
C543 O547 1.295 . S
C543 O548 1.235 . S
O544 Fe529 1.976 . S
O544 C538 1.287 . S
O545 Fe531 1.996 . S
O545 C538 1.255 . S
C546 O539 1.287 . S
C546 O540 1.255 . S
O547 Fe529 2.002 . S
O547 C543 1.295 . S
O548 Fe531 1.997 . S
O548 C543 1.235 . S
C549 O532 1.295 . S
C549 O533 1.235 . S
Fe550 O552 1.918 . S
Fe550 O555 1.997 . S
Fe550 O556 2.002 . S
Fe550 O561 1.976 . S
Fe550 O564 1.996 . S
Fe551 O552 1.918 . S
Fe551 O559 1.997 . S
Fe551 O562 1.996 . S
Fe551 O566 1.976 . S
Fe551 O569 2.002 . S
O552 Fe550 1.918 . S
O552 Fe551 1.918 . S
O552 Fe553 1.918 . S
Fe553 O552 1.918 . S
Fe553 O554 2.002 . S
Fe553 O563 1.976 . S
Fe553 O567 1.996 . S
Fe553 O570 1.997 . S
O554 Fe553 2.002 . S
O554 C571 1.295 . S
O555 Fe550 1.997 . S
O555 C571 1.235 . S
O556 Fe550 2.002 . S
O556 C557 1.295 . S
C557 O556 1.295 . S
C557 O559 1.235 . S
C558 O563 1.287 . S
C558 O564 1.255 . S
O559 Fe551 1.997 . S
O559 C557 1.235 . S
C560 O566 1.287 . S
C560 O567 1.255 . S
O561 Fe550 1.976 . S
O561 C568 1.287 . S
O562 Fe551 1.996 . S
O562 C568 1.255 . S
O563 Fe553 1.976 . S
O563 C558 1.287 . S
O564 Fe550 1.996 . S
O564 C558 1.255 . S
C565 O569 1.295 . S
C565 O570 1.235 . S
O566 Fe551 1.976 . S
O566 C560 1.287 . S
O567 Fe553 1.996 . S
O567 C560 1.255 . S
C568 O561 1.287 . S
C568 O562 1.255 . S
O569 Fe551 2.002 . S
O569 C565 1.295 . S
O570 Fe553 1.997 . S
O570 C565 1.235 . S
C571 O554 1.295 . S
C571 O555 1.235 . S
Fe572 O574 1.918 . S
Fe572 O577 1.997 . S
Fe572 O578 2.002 . S
Fe572 O583 1.976 . S
Fe572 O586 1.996 . S
Fe573 O574 1.918 . S
Fe573 O581 1.997 . S
Fe573 O584 1.996 . S
Fe573 O588 1.976 . S
Fe573 O591 2.002 . S
O574 Fe572 1.918 . S
O574 Fe573 1.918 . S
O574 Fe575 1.918 . S
Fe575 O574 1.918 . S
Fe575 O576 2.002 . S
Fe575 O585 1.976 . S
Fe575 O589 1.996 . S
Fe575 O592 1.997 . S
O576 Fe575 2.002 . S
O576 C593 1.295 . S
O577 Fe572 1.997 . S
O577 C593 1.235 . S
O578 Fe572 2.002 . S
O578 C579 1.295 . S
C579 O578 1.295 . S
C579 O581 1.235 . S
C580 O585 1.287 . S
C580 O586 1.255 . S
O581 Fe573 1.997 . S
O581 C579 1.235 . S
C582 O588 1.287 . S
C582 O589 1.255 . S
O583 Fe572 1.976 . S
O583 C590 1.287 . S
O584 Fe573 1.996 . S
O584 C590 1.255 . S
O585 Fe575 1.976 . S
O585 C580 1.287 . S
O586 Fe572 1.996 . S
O586 C580 1.255 . S
C587 O591 1.295 . S
C587 O592 1.235 . S
O588 Fe573 1.976 . S
O588 C582 1.287 . S
O589 Fe575 1.996 . S
O589 C582 1.255 . S
C590 O583 1.287 . S
C590 O584 1.255 . S
O591 Fe573 2.002 . S
O591 C587 1.295 . S
O592 Fe575 1.997 . S
O592 C587 1.235 . S
C593 O576 1.295 . S
C593 O577 1.235 . S
Fe594 O596 1.918 . S
Fe594 O599 1.997 . S
Fe594 O600 2.002 . S
Fe594 O605 1.976 . S
Fe594 O608 1.996 . S
Fe595 O596 1.918 . S
Fe595 O603 1.997 . S
Fe595 O606 1.996 . S
Fe595 O610 1.976 . S
Fe595 O613 2.002 . S
O596 Fe594 1.918 . S
O596 Fe595 1.918 . S
O596 Fe597 1.918 . S
Fe597 O596 1.918 . S
Fe597 O598 2.002 . S
Fe597 O607 1.976 . S
Fe597 O611 1.996 . S
Fe597 O614 1.997 . S
O598 Fe597 2.002 . S
O598 C615 1.295 . S
O599 Fe594 1.997 . S
O599 C615 1.235 . S
O600 Fe594 2.002 . S
O600 C601 1.295 . S
C601 O600 1.295 . S
C601 O603 1.235 . S
C602 O607 1.287 . S
C602 O608 1.255 . S
O603 Fe595 1.997 . S
O603 C601 1.235 . S
C604 O610 1.287 . S
C604 O611 1.255 . S
O605 Fe594 1.976 . S
O605 C612 1.287 . S
O606 Fe595 1.996 . S
O606 C612 1.255 . S
O607 Fe597 1.976 . S
O607 C602 1.287 . S
O608 Fe594 1.996 . S
O608 C602 1.255 . S
C609 O613 1.295 . S
C609 O614 1.235 . S
O610 Fe595 1.976 . S
O610 C604 1.287 . S
O611 Fe597 1.996 . S
O611 C604 1.255 . S
C612 O605 1.287 . S
C612 O606 1.255 . S
O613 Fe595 2.002 . S
O613 C609 1.295 . S
O614 Fe597 1.997 . S
O614 C609 1.235 . S
C615 O598 1.295 . S
C615 O599 1.235 . S
Fe616 O618 1.918 . S
Fe616 O621 1.997 . S
Fe616 O622 2.002 . S
Fe616 O627 1.976 . S
Fe616 O630 1.996 . S
Fe617 O618 1.918 . S
Fe617 O625 1.997 . S
Fe617 O628 1.996 . S
Fe617 O632 1.976 . S
Fe617 O635 2.002 . S
O618 Fe616 1.918 . S
O618 Fe617 1.918 . S
O618 Fe619 1.918 . S
Fe619 O618 1.918 . S
Fe619 O620 2.002 . S
Fe619 O629 1.976 . S
Fe619 O633 1.996 . S
Fe619 O636 1.997 . S
O620 Fe619 2.002 . S
O620 C637 1.295 . S
O621 Fe616 1.997 . S
O621 C637 1.235 . S
O622 Fe616 2.002 . S
O622 C623 1.295 . S
C623 O622 1.295 . S
C623 O625 1.235 . S
C624 O629 1.287 . S
C624 O630 1.255 . S
O625 Fe617 1.997 . S
O625 C623 1.235 . S
C626 O632 1.287 . S
C626 O633 1.255 . S
O627 Fe616 1.976 . S
O627 C634 1.287 . S
O628 Fe617 1.996 . S
O628 C634 1.255 . S
O629 Fe619 1.976 . S
O629 C624 1.287 . S
O630 Fe616 1.996 . S
O630 C624 1.255 . S
C631 O635 1.295 . S
C631 O636 1.235 . S
O632 Fe617 1.976 . S
O632 C626 1.287 . S
O633 Fe619 1.996 . S
O633 C626 1.255 . S
C634 O627 1.287 . S
C634 O628 1.255 . S
O635 Fe617 2.002 . S
O635 C631 1.295 . S
O636 Fe619 1.997 . S
O636 C631 1.235 . S
C637 O620 1.295 . S
C637 O621 1.235 . S
Fe638 O640 1.918 . S
Fe638 O643 1.997 . S
Fe638 O644 2.002 . S
Fe638 O649 1.976 . S
Fe638 O652 1.996 . S
Fe639 O640 1.918 . S
Fe639 O647 1.997 . S
Fe639 O650 1.996 . S
Fe639 O654 1.976 . S
Fe639 O657 2.002 . S
O640 Fe638 1.918 . S
O640 Fe639 1.918 . S
O640 Fe641 1.918 . S
Fe641 O640 1.918 . S
Fe641 O642 2.002 . S
Fe641 O651 1.976 . S
Fe641 O655 1.996 . S
Fe641 O658 1.997 . S
O642 Fe641 2.002 . S
O642 C659 1.295 . S
O643 Fe638 1.997 . S
O643 C659 1.235 . S
O644 Fe638 2.002 . S
O644 C645 1.295 . S
C645 O644 1.295 . S
C645 O647 1.235 . S
C646 O651 1.287 . S
C646 O652 1.255 . S
O647 Fe639 1.997 . S
O647 C645 1.235 . S
C648 O654 1.287 . S
C648 O655 1.255 . S
O649 Fe638 1.976 . S
O649 C656 1.287 . S
O650 Fe639 1.996 . S
O650 C656 1.255 . S
O651 Fe641 1.976 . S
O651 C646 1.287 . S
O652 Fe638 1.996 . S
O652 C646 1.255 . S
C653 O657 1.295 . S
C653 O658 1.235 . S
O654 Fe639 1.976 . S
O654 C648 1.287 . S
O655 Fe641 1.996 . S
O655 C648 1.255 . S
C656 O649 1.287 . S
C656 O650 1.255 . S
O657 Fe639 2.002 . S
O657 C653 1.295 . S
O658 Fe641 1.997 . S
O658 C653 1.235 . S
C659 O642 1.295 . S
C659 O643 1.235 . S
Fe660 O662 1.918 . S
Fe660 O665 1.997 . S
Fe660 O666 2.002 . S
Fe660 O671 1.976 . S
Fe660 O674 1.996 . S
Fe661 O662 1.918 . S
Fe661 O669 1.997 . S
Fe661 O672 1.996 . S
Fe661 O676 1.976 . S
Fe661 O679 2.002 . S
O662 Fe660 1.918 . S
O662 Fe661 1.918 . S
O662 Fe663 1.918 . S
Fe663 O662 1.918 . S
Fe663 O664 2.002 . S
Fe663 O673 1.976 . S
Fe663 O677 1.996 . S
Fe663 O680 1.997 . S
O664 Fe663 2.002 . S
O664 C681 1.295 . S
O665 Fe660 1.997 . S
O665 C681 1.235 . S
O666 Fe660 2.002 . S
O666 C667 1.295 . S
C667 O666 1.295 . S
C667 O669 1.235 . S
C668 O673 1.287 . S
C668 O674 1.255 . S
O669 Fe661 1.997 . S
O669 C667 1.235 . S
C670 O676 1.287 . S
C670 O677 1.255 . S
O671 Fe660 1.976 . S
O671 C678 1.287 . S
O672 Fe661 1.996 . S
O672 C678 1.255 . S
O673 Fe663 1.976 . S
O673 C668 1.287 . S
O674 Fe660 1.996 . S
O674 C668 1.255 . S
C675 O679 1.295 . S
C675 O680 1.235 . S
O676 Fe661 1.976 . S
O676 C670 1.287 . S
O677 Fe663 1.996 . S
O677 C670 1.255 . S
C678 O671 1.287 . S
C678 O672 1.255 . S
O679 Fe661 2.002 . S
O679 C675 1.295 . S
O680 Fe663 1.997 . S
O680 C675 1.235 . S
C681 O664 1.295 . S
C681 O665 1.235 . S
Fe682 O684 1.918 . S
Fe682 O687 1.997 . S
Fe682 O688 2.002 . S
Fe682 O693 1.976 . S
Fe682 O696 1.996 . S
Fe683 O684 1.918 . S
Fe683 O691 1.997 . S
Fe683 O694 1.996 . S
Fe683 O698 1.976 . S
Fe683 O701 2.002 . S
O684 Fe682 1.918 . S
O684 Fe683 1.918 . S
O684 Fe685 1.918 . S
Fe685 O684 1.918 . S
Fe685 O686 2.002 . S
Fe685 O695 1.976 . S
Fe685 O699 1.996 . S
Fe685 O702 1.997 . S
O686 Fe685 2.002 . S
O686 C703 1.295 . S
O687 Fe682 1.997 . S
O687 C703 1.235 . S
O688 Fe682 2.002 . S
O688 C689 1.295 . S
C689 O688 1.295 . S
C689 O691 1.235 . S
C690 O695 1.287 . S
C690 O696 1.255 . S
O691 Fe683 1.997 . S
O691 C689 1.235 . S
C692 O698 1.287 . S
C692 O699 1.255 . S
O693 Fe682 1.976 . S
O693 C700 1.287 . S
O694 Fe683 1.996 . S
O694 C700 1.255 . S
O695 Fe685 1.976 . S
O695 C690 1.287 . S
O696 Fe682 1.996 . S
O696 C690 1.255 . S
C697 O701 1.295 . S
C697 O702 1.235 . S
O698 Fe683 1.976 . S
O698 C692 1.287 . S
O699 Fe685 1.996 . S
O699 C692 1.255 . S
C700 O693 1.287 . S
C700 O694 1.255 . S
O701 Fe683 2.002 . S
O701 C697 1.295 . S
O702 Fe685 1.997 . S
O702 C697 1.235 . S
C703 O686 1.295 . S
C703 O687 1.235 . S
Fe704 O706 1.918 . S
Fe704 O709 1.997 . S
Fe704 O710 2.002 . S
Fe704 O715 1.976 . S
Fe704 O718 1.996 . S
Fe705 O706 1.918 . S
Fe705 O713 1.997 . S
Fe705 O716 1.996 . S
Fe705 O720 1.976 . S
Fe705 O723 2.002 . S
O706 Fe704 1.918 . S
O706 Fe705 1.918 . S
O706 Fe707 1.918 . S
Fe707 O706 1.918 . S
Fe707 O708 2.002 . S
Fe707 O717 1.976 . S
Fe707 O721 1.996 . S
Fe707 O724 1.997 . S
O708 Fe707 2.002 . S
O708 C725 1.295 . S
O709 Fe704 1.997 . S
O709 C725 1.235 . S
O710 Fe704 2.002 . S
O710 C711 1.295 . S
C711 O710 1.295 . S
C711 O713 1.235 . S
C712 O717 1.287 . S
C712 O718 1.255 . S
O713 Fe705 1.997 . S
O713 C711 1.235 . S
C714 O720 1.287 . S
C714 O721 1.255 . S
O715 Fe704 1.976 . S
O715 C722 1.287 . S
O716 Fe705 1.996 . S
O716 C722 1.255 . S
O717 Fe707 1.976 . S
O717 C712 1.287 . S
O718 Fe704 1.996 . S
O718 C712 1.255 . S
C719 O723 1.295 . S
C719 O724 1.235 . S
O720 Fe705 1.976 . S
O720 C714 1.287 . S
O721 Fe707 1.996 . S
O721 C714 1.255 . S
C722 O715 1.287 . S
C722 O716 1.255 . S
O723 Fe705 2.002 . S
O723 C719 1.295 . S
O724 Fe707 1.997 . S
O724 C719 1.235 . S
C725 O708 1.295 . S
C725 O709 1.235 . S
Fe726 O728 1.918 . S
Fe726 O731 1.997 . S
Fe726 O732 2.002 . S
Fe726 O737 1.976 . S
Fe726 O740 1.996 . S
Fe727 O728 1.918 . S
Fe727 O735 1.997 . S
Fe727 O738 1.996 . S
Fe727 O742 1.976 . S
Fe727 O745 2.002 . S
O728 Fe726 1.918 . S
O728 Fe727 1.918 . S
O728 Fe729 1.918 . S
Fe729 O728 1.918 . S
Fe729 O730 2.002 . S
Fe729 O739 1.976 . S
Fe729 O743 1.996 . S
Fe729 O746 1.997 . S
O730 Fe729 2.002 . S
O730 C747 1.295 . S
O731 Fe726 1.997 . S
O731 C747 1.235 . S
O732 Fe726 2.002 . S
O732 C733 1.295 . S
C733 O732 1.295 . S
C733 O735 1.235 . S
C734 O739 1.287 . S
C734 O740 1.255 . S
O735 Fe727 1.997 . S
O735 C733 1.235 . S
C736 O742 1.287 . S
C736 O743 1.255 . S
O737 Fe726 1.976 . S
O737 C744 1.287 . S
O738 Fe727 1.996 . S
O738 C744 1.255 . S
O739 Fe729 1.976 . S
O739 C734 1.287 . S
O740 Fe726 1.996 . S
O740 C734 1.255 . S
C741 O745 1.295 . S
C741 O746 1.235 . S
O742 Fe727 1.976 . S
O742 C736 1.287 . S
O743 Fe729 1.996 . S
O743 C736 1.255 . S
C744 O737 1.287 . S
C744 O738 1.255 . S
O745 Fe727 2.002 . S
O745 C741 1.295 . S
O746 Fe729 1.997 . S
O746 C741 1.235 . S
C747 O730 1.295 . S
C747 O731 1.235 . S
Fe748 O750 1.918 . S
Fe748 O753 1.997 . S
Fe748 O754 2.002 . S
Fe748 O759 1.976 . S
Fe748 O762 1.996 . S
Fe749 O750 1.918 . S
Fe749 O757 1.997 . S
Fe749 O760 1.996 . S
Fe749 O764 1.976 . S
Fe749 O767 2.002 . S
O750 Fe748 1.918 . S
O750 Fe749 1.918 . S
O750 Fe751 1.918 . S
Fe751 O750 1.918 . S
Fe751 O752 2.002 . S
Fe751 O761 1.976 . S
Fe751 O765 1.996 . S
Fe751 O768 1.997 . S
O752 Fe751 2.002 . S
O752 C769 1.295 . S
O753 Fe748 1.997 . S
O753 C769 1.235 . S
O754 Fe748 2.002 . S
O754 C755 1.295 . S
C755 O754 1.295 . S
C755 O757 1.235 . S
C756 O761 1.287 . S
C756 O762 1.255 . S
O757 Fe749 1.997 . S
O757 C755 1.235 . S
C758 O764 1.287 . S
C758 O765 1.255 . S
O759 Fe748 1.976 . S
O759 C766 1.287 . S
O760 Fe749 1.996 . S
O760 C766 1.255 . S
O761 Fe751 1.976 . S
O761 C756 1.287 . S
O762 Fe748 1.996 . S
O762 C756 1.255 . S
C763 O767 1.295 . S
C763 O768 1.235 . S
O764 Fe749 1.976 . S
O764 C758 1.287 . S
O765 Fe751 1.996 . S
O765 C758 1.255 . S
C766 O759 1.287 . S
C766 O760 1.255 . S
O767 Fe749 2.002 . S
O767 C763 1.295 . S
O768 Fe751 1.997 . S
O768 C763 1.235 . S
C769 O752 1.295 . S
C769 O753 1.235 . S
Fe770 O772 1.918 . S
Fe770 O775 1.997 . S
Fe770 O776 2.002 . S
Fe770 O781 1.976 . S
Fe770 O784 1.996 . S
Fe771 O772 1.918 . S
Fe771 O779 1.997 . S
Fe771 O782 1.996 . S
Fe771 O786 1.976 . S
Fe771 O789 2.002 . S
O772 Fe770 1.918 . S
O772 Fe771 1.918 . S
O772 Fe773 1.918 . S
Fe773 O772 1.918 . S
Fe773 O774 2.002 . S
Fe773 O783 1.976 . S
Fe773 O787 1.996 . S
Fe773 O790 1.997 . S
O774 Fe773 2.002 . S
O774 C791 1.295 . S
O775 Fe770 1.997 . S
O775 C791 1.235 . S
O776 Fe770 2.002 . S
O776 C777 1.295 . S
C777 O776 1.295 . S
C777 O779 1.235 . S
C778 O783 1.287 . S
C778 O784 1.255 . S
O779 Fe771 1.997 . S
O779 C777 1.235 . S
C780 O786 1.287 . S
C780 O787 1.255 . S
O781 Fe770 1.976 . S
O781 C788 1.287 . S
O782 Fe771 1.996 . S
O782 C788 1.255 . S
O783 Fe773 1.976 . S
O783 C778 1.287 . S
O784 Fe770 1.996 . S
O784 C778 1.255 . S
C785 O789 1.295 . S
C785 O790 1.235 . S
O786 Fe771 1.976 . S
O786 C780 1.287 . S
O787 Fe773 1.996 . S
O787 C780 1.255 . S
C788 O781 1.287 . S
C788 O782 1.255 . S
O789 Fe771 2.002 . S
O789 C785 1.295 . S
O790 Fe773 1.997 . S
O790 C785 1.235 . S
C791 O774 1.295 . S
C791 O775 1.235 . S
C792 C793 1.369 . S
C792 C794 1.419 1_556 S
C792 H796 0.930 . S
C793 C792 1.369 . S
C793 C802 1.429 . S
C794 C792 1.419 1_554 S
C794 C795 1.363 . S
C794 H797 0.929 . S
C795 C794 1.363 . S
C795 C801 1.428 . S
H796 C792 0.930 . S
H797 C794 0.929 . S
S798 N799 1.627 . S
S798 N800 1.596 1_556 S
N799 S798 1.627 . S
N799 C802 1.350 . S
N800 S798 1.596 1_554 S
N800 C801 1.351 . S
C801 C795 1.428 . S
C801 N800 1.351 . S
C801 C802 1.434 1_554 S
C802 C793 1.429 . S
C802 N799 1.350 . S
C802 C801 1.434 1_556 S
C803 C804 1.369 . S
C803 C805 1.419 1_556 S
C803 H807 0.930 . S
C804 C803 1.369 . S
C804 C813 1.429 . S
C805 C803 1.419 1_554 S
C805 C806 1.363 . S
C805 H808 0.929 . S
C806 C805 1.363 . S
C806 C812 1.428 . S
H807 C803 0.930 . S
H808 C805 0.929 . S
S809 N810 1.613 1_554 S
S809 N811 1.610 . S
N810 S809 1.613 1_556 S
N810 C813 1.350 . S
N811 S809 1.610 . S
N811 C812 1.351 . S
C812 C806 1.428 . S
C812 N811 1.351 . S
C812 C813 1.434 1_554 S
C813 C804 1.429 . S
C813 N810 1.350 . S
C813 C812 1.434 1_556 S
C814 C815 1.369 . S
C814 C816 1.419 1_556 S
C814 H818 0.930 . S
C815 C814 1.369 . S
C815 C824 1.429 1_556 S
C816 C814 1.419 1_554 S
C816 C817 1.363 . S
C816 H819 0.929 . S
C817 C816 1.363 . S
C817 C823 1.428 . S
H818 C814 0.930 . S
H819 C816 0.929 . S
S820 N821 1.613 . S
S820 N822 1.610 . S
N821 S820 1.613 . S
N821 C824 1.350 . S
N822 S820 1.610 . S
N822 C823 1.351 . S
C823 C817 1.428 . S
C823 N822 1.351 . S
C823 C824 1.434 . S
C824 C815 1.429 1_554 S
C824 N821 1.350 . S
C824 C823 1.434 . S
C825 C826 1.369 . S
C825 C827 1.419 . S
C825 H829 0.930 . S
C826 C825 1.369 . S
C826 C835 1.429 . S
C827 C825 1.419 . S
C827 C828 1.363 . S
C827 H830 0.929 . S
C828 C827 1.363 . S
C828 C834 1.428 . S
H829 C825 0.930 . S
H830 C827 0.929 . S
S831 N832 1.613 . S
S831 N833 1.610 . S
N832 S831 1.613 . S
N832 C835 1.350 . S
N833 S831 1.610 . S
N833 C834 1.351 . S
C834 C828 1.428 . S
C834 N833 1.351 . S
C834 C835 1.434 . S
C835 C826 1.429 . S
C835 N832 1.350 . S
C835 C834 1.434 . S
C836 C837 1.369 . S
C836 C838 1.419 . S
C836 H840 0.930 . S
C837 C836 1.369 . S
C837 C846 1.429 . S
C838 C836 1.419 . S
C838 C839 1.363 . S
C838 H841 0.929 . S
C839 C838 1.363 . S
C839 C845 1.428 . S
H840 C836 0.930 . S
H841 C838 0.929 . S
S842 N843 1.613 . S
S842 N844 1.610 . S
N843 S842 1.613 . S
N843 C846 1.350 . S
N844 S842 1.610 . S
N844 C845 1.351 . S
C845 C839 1.428 . S
C845 N844 1.351 . S
C845 C846 1.434 . S
C846 C837 1.429 . S
C846 N843 1.350 . S
C846 C845 1.434 . S
C847 C848 1.369 . S
C847 C849 1.419 . S
C847 H851 0.930 . S
C848 C847 1.369 . S
C848 C857 1.429 . S
C849 C847 1.419 . S
C849 C850 1.363 . S
C849 H852 0.929 . S
C850 C849 1.363 . S
C850 C856 1.428 . S
H851 C847 0.930 . S
H852 C849 0.929 . S
S853 N854 1.613 . S
S853 N855 1.610 . S
N854 S853 1.613 . S
N854 C857 1.350 . S
N855 S853 1.610 . S
N855 C856 1.351 . S
C856 C850 1.428 . S
C856 N855 1.351 . S
C856 C857 1.434 . S
C857 C848 1.429 . S
C857 N854 1.350 . S
C857 C856 1.434 . S
C858 C859 1.369 . S
C858 C860 1.419 1_554 S
C858 H862 0.930 . S
C859 C858 1.369 . S
C859 C868 1.429 1_554 S
C860 C858 1.419 1_556 S
C860 C861 1.363 . S
C860 H863 0.929 . S
C861 C860 1.363 . S
C861 C867 1.428 . S
H862 C858 0.930 . S
H863 C860 0.929 . S
S864 N865 1.613 . S
S864 N866 1.610 1_545 S
N865 S864 1.613 . S
N865 C868 1.350 1_545 S
N866 S864 1.610 1_565 S
N866 C867 1.351 . S
C867 C861 1.428 . S
C867 N866 1.351 . S
C867 C868 1.434 . S
C868 C859 1.429 1_556 S
C868 N865 1.350 1_565 S
C868 C867 1.434 . S
C869 C870 1.369 . S
C869 C871 1.419 1_554 S
C869 H873 0.930 . S
C870 C869 1.369 . S
C870 C879 1.429 . S
C871 C869 1.419 1_556 S
C871 C872 1.363 . S
C871 H874 0.929 . S
C872 C871 1.363 . S
C872 C878 1.428 . S
H873 C869 0.930 . S
H874 C871 0.929 . S
S875 N876 1.613 . S
S875 N877 1.610 1_554 S
N876 S875 1.613 . S
N876 C879 1.350 . S
N877 S875 1.610 1_556 S
N877 C878 1.351 . S
C878 C872 1.428 . S
C878 N877 1.351 . S
C878 C879 1.434 1_556 S
C879 C870 1.429 . S
C879 N876 1.350 . S
C879 C878 1.434 1_554 S
C880 C881 1.369 . S
C880 C882 1.419 . S
C880 H884 0.930 . S
C881 C880 1.369 . S
C881 C890 1.429 1_554 S
C882 C880 1.419 . S
C882 C883 1.363 1_554 S
C882 H885 0.929 . S
C883 C882 1.363 1_556 S
C883 C889 1.428 . S
H884 C880 0.930 . S
H885 C882 0.929 . S
S886 N887 1.613 . S
S886 N888 1.610 . S
N887 S886 1.613 . S
N887 C890 1.350 . S
N888 S886 1.610 . S
N888 C889 1.351 . S
C889 C883 1.428 . S
C889 N888 1.351 . S
C889 C890 1.434 . S
C890 C881 1.429 1_556 S
C890 N887 1.350 . S
C890 C889 1.434 . S
C891 C892 1.369 . S
C891 C893 1.419 . S
C891 H895 0.930 . S
C892 C891 1.369 . S
C892 C901 1.429 . S
C893 C891 1.419 . S
C893 C894 1.363 . S
C893 H896 0.929 . S
C894 C893 1.363 . S
C894 C900 1.428 . S
H895 C891 0.930 . S
H896 C893 0.929 . S
S897 N898 1.613 . S
S897 N899 1.610 . S
N898 S897 1.613 . S
N898 C901 1.350 . S
N899 S897 1.610 . S
N899 C900 1.351 . S
C900 C894 1.428 . S
C900 N899 1.351 . S
C900 C901 1.434 . S
C901 C892 1.429 . S
C901 N898 1.350 . S
C901 C900 1.434 . S
C902 C903 1.369 . S
C902 C904 1.419 . S
C902 H906 0.930 . S
C903 C902 1.369 . S
C903 C912 1.429 . S
C904 C902 1.419 . S
C904 C905 1.363 . S
C904 H907 0.929 . S
C905 C904 1.363 . S
C905 C911 1.428 . S
H906 C902 0.930 . S
H907 C904 0.929 . S
S908 N909 1.613 . S
S908 N910 1.610 . S
N909 S908 1.613 . S
N909 C912 1.350 . S
N910 S908 1.610 . S
N910 C911 1.351 . S
C911 C905 1.428 . S
C911 N910 1.351 . S
C911 C912 1.434 . S
C912 C903 1.429 . S
C912 N909 1.350 . S
C912 C911 1.434 . S
C913 C914 1.369 . S
C913 C915 1.419 . S
C913 H917 0.930 . S
C914 C913 1.369 . S
C914 C923 1.429 . S
C915 C913 1.419 . S
C915 C916 1.363 . S
C915 H918 0.929 . S
C916 C915 1.363 . S
C916 C922 1.428 . S
H917 C913 0.930 . S
H918 C915 0.929 . S
S919 N920 1.613 . S
S919 N921 1.610 . S
N920 S919 1.613 . S
N920 C923 1.350 . S
N921 S919 1.610 . S
N921 C922 1.351 . S
C922 C916 1.428 . S
C922 N921 1.351 . S
C922 C923 1.434 . S
C923 C914 1.429 . S
C923 N920 1.350 . S
C923 C922 1.434 . S
C924 C925 1.369 . S
C924 C926 1.419 . S
C924 H928 0.930 . S
C925 C924 1.369 . S
C925 C934 1.429 . S
C926 C924 1.419 . S
C926 C927 1.363 . S
C926 H929 0.929 . S
C927 C926 1.363 . S
C927 C933 1.428 . S
H928 C924 0.930 . S
H929 C926 0.929 . S
S930 N931 1.613 . S
S930 N932 1.610 . S
N931 S930 1.613 . S
N931 C934 1.350 . S
N932 S930 1.610 . S
N932 C933 1.351 . S
C933 C927 1.428 . S
C933 N932 1.351 . S
C933 C934 1.434 . S
C934 C925 1.429 . S
C934 N931 1.350 . S
C934 C933 1.434 . S
C935 C936 1.369 . S
C935 C937 1.419 . S
C935 H939 0.930 . S
C936 C935 1.369 . S
C936 C945 1.429 . S
C937 C935 1.419 . S
C937 C938 1.363 . S
C937 H940 0.929 . S
C938 C937 1.363 . S
C938 C944 1.428 . S
H939 C935 0.930 . S
H940 C937 0.929 . S
S941 N942 1.613 . S
S941 N943 1.610 . S
N942 S941 1.613 . S
N942 C945 1.350 . S
N943 S941 1.610 . S
N943 C944 1.351 . S
C944 C938 1.428 . S
C944 N943 1.351 . S
C944 C945 1.434 . S
C945 C936 1.429 . S
C945 N942 1.350 . S
C945 C944 1.434 . S
C946 C947 1.369 . S
C946 C948 1.419 . S
C946 H950 0.930 . S
C947 C946 1.369 . S
C947 C956 1.429 . S
C948 C946 1.419 . S
C948 C949 1.363 . S
C948 H951 0.929 . S
C949 C948 1.363 . S
C949 C955 1.428 . S
H950 C946 0.930 . S
H951 C948 0.929 . S
S952 N953 1.613 . S
S952 N954 1.610 . S
N953 S952 1.613 . S
N953 C956 1.350 . S
N954 S952 1.610 . S
N954 C955 1.351 . S
C955 C949 1.428 . S
C955 N954 1.351 . S
C955 C956 1.434 . S
C956 C947 1.429 . S
C956 N953 1.350 . S
C956 C955 1.434 . S
C957 C958 1.369 . S
C957 C959 1.419 . S
C957 H961 0.930 . S
C958 C957 1.369 . S
C958 C967 1.429 . S
C959 C957 1.419 . S
C959 C960 1.363 . S
C959 H962 0.929 . S
C960 C959 1.363 . S
C960 C966 1.428 . S
H961 C957 0.930 . S
H962 C959 0.929 . S
S963 N964 1.613 . S
S963 N965 1.610 . S
N964 S963 1.613 . S
N964 C967 1.350 . S
N965 S963 1.610 . S
N965 C966 1.351 . S
C966 C960 1.428 . S
C966 N965 1.351 . S
C966 C967 1.434 . S
C967 C958 1.429 . S
C967 N964 1.350 . S
C967 C966 1.434 . S
C968 C969 1.369 . S
C968 C970 1.419 . S
C968 H972 0.930 . S
C969 C968 1.369 . S
C969 C978 1.429 . S
C970 C968 1.419 . S
C970 C971 1.363 . S
C970 H973 0.929 . S
C971 C970 1.363 . S
C971 C977 1.428 . S
H972 C968 0.930 . S
H973 C970 0.929 . S
S974 N975 1.613 . S
S974 N976 1.610 . S
N975 S974 1.613 . S
N975 C978 1.350 . S
N976 S974 1.610 . S
N976 C977 1.351 . S
C977 C971 1.428 . S
C977 N976 1.351 . S
C977 C978 1.434 . S
C978 C969 1.429 . S
C978 N975 1.350 . S
C978 C977 1.434 . S
C979 C980 1.369 . S
C979 C981 1.419 . S
C979 H983 0.930 . S
C980 C979 1.369 . S
C980 C989 1.429 . S
C981 C979 1.419 . S
C981 C982 1.363 . S
C981 H984 0.929 . S
C982 C981 1.363 . S
C982 C988 1.428 . S
H983 C979 0.930 . S
H984 C981 0.929 . S
S985 N986 1.613 . S
S985 N987 1.610 . S
N986 S985 1.613 . S
N986 C989 1.350 . S
N987 S985 1.610 . S
N987 C988 1.351 . S
C988 C982 1.428 . S
C988 N987 1.351 . S
C988 C989 1.434 . S
C989 C980 1.429 . S
C989 N986 1.350 . S
C989 C988 1.434 . S
C990 C991 1.369 . S
C990 C992 1.419 . S
C990 H994 0.930 . S
C991 C990 1.369 . S
C991 C1000 1.429 . S
C992 C990 1.419 . S
C992 C993 1.363 . S
C992 H995 0.929 . S
C993 C992 1.363 . S
C993 C999 1.428 . S
H994 C990 0.930 . S
H995 C992 0.929 . S
S996 N997 1.613 . S
S996 N998 1.610 . S
N997 S996 1.613 . S
N997 C1000 1.350 . S
N998 S996 1.610 . S
N998 C999 1.351 . S
C999 C993 1.428 . S
C999 N998 1.351 . S
C999 C1000 1.434 . S
C1000 C991 1.429 . S
C1000 N997 1.350 . S
C1000 C999 1.434 . S
C1001 C1002 1.369 . S
C1001 C1003 1.419 . S
C1001 H1005 0.930 . S
C1002 C1001 1.369 . S
C1002 C1011 1.429 . S
C1003 C1001 1.419 . S
C1003 C1004 1.363 . S
C1003 H1006 0.929 . S
C1004 C1003 1.363 . S
C1004 C1010 1.428 . S
H1005 C1001 0.930 . S
H1006 C1003 0.929 . S
S1007 N1008 1.613 . S
S1007 N1009 1.610 . S
N1008 S1007 1.613 . S
N1008 C1011 1.350 . S
N1009 S1007 1.610 . S
N1009 C1010 1.351 . S
C1010 C1004 1.428 . S
C1010 N1009 1.351 . S
C1010 C1011 1.434 . S
C1011 C1002 1.429 . S
C1011 N1008 1.350 . S
C1011 C1010 1.434 . S
C1012 C1013 1.369 . S
C1012 C1014 1.419 . S
C1012 H1016 0.930 . S
C1013 C1012 1.369 . S
C1013 C1022 1.429 . S
C1014 C1012 1.419 . S
C1014 C1015 1.363 . S
C1014 H1017 0.929 . S
C1015 C1014 1.363 . S
C1015 C1021 1.428 . S
H1016 C1012 0.930 . S
H1017 C1014 0.929 . S
S1018 N1019 1.613 . S
S1018 N1020 1.610 . S
N1019 S1018 1.613 . S
N1019 C1022 1.350 . S
N1020 S1018 1.610 . S
N1020 C1021 1.351 . S
C1021 C1015 1.428 . S
C1021 N1020 1.351 . S
C1021 C1022 1.434 . S
C1022 C1013 1.429 . S
C1022 N1019 1.350 . S
C1022 C1021 1.434 . S
C1023 C1024 1.369 . S
C1023 C1025 1.419 . S
C1023 H1027 0.930 . S
C1024 C1023 1.369 . S
C1024 C1033 1.429 . S
C1025 C1023 1.419 . S
C1025 C1026 1.363 . S
C1025 H1028 0.929 . S
C1026 C1025 1.363 . S
C1026 C1032 1.428 . S
H1027 C1023 0.930 . S
H1028 C1025 0.929 . S
S1029 N1030 1.613 . S
S1029 N1031 1.610 . S
N1030 S1029 1.613 . S
N1030 C1033 1.350 . S
N1031 S1029 1.610 . S
N1031 C1032 1.351 . S
C1032 C1026 1.428 . S
C1032 N1031 1.351 . S
C1032 C1033 1.434 . S
C1033 C1024 1.429 . S
C1033 N1030 1.350 . S
C1033 C1032 1.434 . S
C1034 C1035 1.369 . S
C1034 C1036 1.419 . S
C1034 H1038 0.930 . S
C1035 C1034 1.369 . S
C1035 C1044 1.429 . S
C1036 C1034 1.419 . S
C1036 C1037 1.363 . S
C1036 H1039 0.929 . S
C1037 C1036 1.363 . S
C1037 C1043 1.428 . S
H1038 C1034 0.930 . S
H1039 C1036 0.929 . S
S1040 N1041 1.613 . S
S1040 N1042 1.610 . S
N1041 S1040 1.613 . S
N1041 C1044 1.350 . S
N1042 S1040 1.610 . S
N1042 C1043 1.351 . S
C1043 C1037 1.428 . S
C1043 N1042 1.351 . S
C1043 C1044 1.434 . S
C1044 C1035 1.429 . S
C1044 N1041 1.350 . S
C1044 C1043 1.434 . S
C1045 C1046 1.369 . S
C1045 C1047 1.419 . S
C1045 H1049 0.930 . S
C1046 C1045 1.369 . S
C1046 C1055 1.429 . S
C1047 C1045 1.419 . S
C1047 C1048 1.363 . S
C1047 H1050 0.929 . S
C1048 C1047 1.363 . S
C1048 C1054 1.428 . S
H1049 C1045 0.930 . S
H1050 C1047 0.929 . S
S1051 N1052 1.613 . S
S1051 N1053 1.610 . S
N1052 S1051 1.613 . S
N1052 C1055 1.350 . S
N1053 S1051 1.610 . S
N1053 C1054 1.351 . S
C1054 C1048 1.428 . S
C1054 N1053 1.351 . S
C1054 C1055 1.434 . S
C1055 C1046 1.429 . S
C1055 N1052 1.350 . S
C1055 C1054 1.434 . S
C1056 C1057 1.369 . S
C1056 C1058 1.419 . S
C1056 H1060 0.930 . S
C1057 C1056 1.369 . S
C1057 C1066 1.429 . S
C1058 C1056 1.419 . S
C1058 C1059 1.363 . S
C1058 H1061 0.929 . S
C1059 C1058 1.363 . S
C1059 C1065 1.428 . S
H1060 C1056 0.930 . S
H1061 C1058 0.929 . S
S1062 N1063 1.613 . S
S1062 N1064 1.610 . S
N1063 S1062 1.613 . S
N1063 C1066 1.350 . S
N1064 S1062 1.610 . S
N1064 C1065 1.351 . S
C1065 C1059 1.428 . S
C1065 N1064 1.351 . S
C1065 C1066 1.434 . S
C1066 C1057 1.429 . S
C1066 N1063 1.350 . S
C1066 C1065 1.434 . S
C1067 C1068 1.369 . S
C1067 C1069 1.419 . S
C1067 H1071 0.930 . S
C1068 C1067 1.369 . S
C1068 C1077 1.429 . S
C1069 C1067 1.419 . S
C1069 C1070 1.363 . S
C1069 H1072 0.929 . S
C1070 C1069 1.363 . S
C1070 C1076 1.428 . S
H1071 C1067 0.930 . S
H1072 C1069 0.929 . S
S1073 N1074 1.613 . S
S1073 N1075 1.610 . S
N1074 S1073 1.613 . S
N1074 C1077 1.350 . S
N1075 S1073 1.610 . S
N1075 C1076 1.351 . S
C1076 C1070 1.428 . S
C1076 N1075 1.351 . S
C1076 C1077 1.434 . S
C1077 C1068 1.429 . S
C1077 N1074 1.350 . S
C1077 C1076 1.434 . S
C1078 C1079 1.369 . S
C1078 C1080 1.419 . S
C1078 H1082 0.930 . S
C1079 C1078 1.369 . S
C1079 C1088 1.429 . S
C1080 C1078 1.419 . S
C1080 C1081 1.363 . S
C1080 H1083 0.929 . S
C1081 C1080 1.363 . S
C1081 C1087 1.428 . S
H1082 C1078 0.930 . S
H1083 C1080 0.929 . S
S1084 N1085 1.613 . S
S1084 N1086 1.610 . S
N1085 S1084 1.613 . S
N1085 C1088 1.350 . S
N1086 S1084 1.610 . S
N1086 C1087 1.351 . S
C1087 C1081 1.428 . S
C1087 N1086 1.351 . S
C1087 C1088 1.434 . S
C1088 C1079 1.429 . S
C1088 N1085 1.350 . S
C1088 C1087 1.434 . S
C1089 C1090 1.369 . S
C1089 C1091 1.419 . S
C1089 H1093 0.930 . S
C1090 C1089 1.369 . S
C1090 C1099 1.429 . S
C1091 C1089 1.419 . S
C1091 C1092 1.363 . S
C1091 H1094 0.929 . S
C1092 C1091 1.363 . S
C1092 C1098 1.428 . S
H1093 C1089 0.930 . S
H1094 C1091 0.929 . S
S1095 N1096 1.613 . S
S1095 N1097 1.610 . S
N1096 S1095 1.613 . S
N1096 C1099 1.350 . S
N1097 S1095 1.610 . S
N1097 C1098 1.351 . S
C1098 C1092 1.428 . S
C1098 N1097 1.351 . S
C1098 C1099 1.434 . S
C1099 C1090 1.429 . S
C1099 N1096 1.350 . S
C1099 C1098 1.434 . S
C1100 C1101 1.369 . S
C1100 C1102 1.419 . S
C1100 H1104 0.930 . S
C1101 C1100 1.369 . S
C1101 C1110 1.429 . S
C1102 C1100 1.419 . S
C1102 C1103 1.363 . S
C1102 H1105 0.929 . S
C1103 C1102 1.363 . S
C1103 C1109 1.428 . S
H1104 C1100 0.930 . S
H1105 C1102 0.929 . S
S1106 N1107 1.613 . S
S1106 N1108 1.610 . S
N1107 S1106 1.613 . S
N1107 C1110 1.350 . S
N1108 S1106 1.610 . S
N1108 C1109 1.351 . S
C1109 C1103 1.428 . S
C1109 N1108 1.351 . S
C1109 C1110 1.434 . S
C1110 C1101 1.429 . S
C1110 N1107 1.350 . S
C1110 C1109 1.434 . S
C1111 C1112 1.369 . S
C1111 C1113 1.419 . S
C1111 H1115 0.930 . S
C1112 C1111 1.369 . S
C1112 C1121 1.429 . S
C1113 C1111 1.419 . S
C1113 C1114 1.363 . S
C1113 H1116 0.929 . S
C1114 C1113 1.363 . S
C1114 C1120 1.428 . S
H1115 C1111 0.930 . S
H1116 C1113 0.929 . S
S1117 N1118 1.613 . S
S1117 N1119 1.610 . S
N1118 S1117 1.613 . S
N1118 C1121 1.350 . S
N1119 S1117 1.610 . S
N1119 C1120 1.351 . S
C1120 C1114 1.428 . S
C1120 N1119 1.351 . S
C1120 C1121 1.434 . S
C1121 C1112 1.429 . S
C1121 N1118 1.350 . S
C1121 C1120 1.434 . S
C1122 C1123 1.369 . S
C1122 C1124 1.419 . S
C1122 H1126 0.930 . S
C1123 C1122 1.369 . S
C1123 C1132 1.429 . S
C1124 C1122 1.419 . S
C1124 C1125 1.363 . S
C1124 H1127 0.929 . S
C1125 C1124 1.363 . S
C1125 C1131 1.428 . S
H1126 C1122 0.930 . S
H1127 C1124 0.929 . S
S1128 N1129 1.613 . S
S1128 N1130 1.610 . S
N1129 S1128 1.613 . S
N1129 C1132 1.350 . S
N1130 S1128 1.610 . S
N1130 C1131 1.351 . S
C1131 C1125 1.428 . S
C1131 N1130 1.351 . S
C1131 C1132 1.434 . S
C1132 C1123 1.429 . S
C1132 N1129 1.350 . S
C1132 C1131 1.434 . S
C1133 C1134 1.369 . S
C1133 C1135 1.419 . S
C1133 H1137 0.930 . S
C1134 C1133 1.369 . S
C1134 C1143 1.429 . S
C1135 C1133 1.419 . S
C1135 C1136 1.363 . S
C1135 H1138 0.929 . S
C1136 C1135 1.363 . S
C1136 C1142 1.428 . S
H1137 C1133 0.930 . S
H1138 C1135 0.929 . S
S1139 N1140 1.613 . S
S1139 N1141 1.610 . S
N1140 S1139 1.613 . S
N1140 C1143 1.350 . S
N1141 S1139 1.610 . S
N1141 C1142 1.351 . S
C1142 C1136 1.428 . S
C1142 N1141 1.351 . S
C1142 C1143 1.434 . S
C1143 C1134 1.429 . S
C1143 N1140 1.350 . S
C1143 C1142 1.434 . S
C1144 C1145 1.369 . S
C1144 C1146 1.419 . S
C1144 H1148 0.930 . S
C1145 C1144 1.369 . S
C1145 C1154 1.429 . S
C1146 C1144 1.419 . S
C1146 C1147 1.363 . S
C1146 H1149 0.929 . S
C1147 C1146 1.363 . S
C1147 C1153 1.428 . S
H1148 C1144 0.930 . S
H1149 C1146 0.929 . S
S1150 N1151 1.613 . S
S1150 N1152 1.610 . S
N1151 S1150 1.613 . S
N1151 C1154 1.350 . S
N1152 S1150 1.610 . S
N1152 C1153 1.351 . S
C1153 C1147 1.428 . S
C1153 N1152 1.351 . S
C1153 C1154 1.434 . S
C1154 C1145 1.429 . S
C1154 N1151 1.350 . S
C1154 C1153 1.434 . S
C1155 C1156 1.369 . S
C1155 C1157 1.419 . S
C1155 H1159 0.930 . S
C1156 C1155 1.369 . S
C1156 C1165 1.429 . S
C1157 C1155 1.419 . S
C1157 C1158 1.363 . S
C1157 H1160 0.929 . S
C1158 C1157 1.363 . S
C1158 C1164 1.428 . S
H1159 C1155 0.930 . S
H1160 C1157 0.929 . S
S1161 N1162 1.613 . S
S1161 N1163 1.610 . S
N1162 S1161 1.613 . S
N1162 C1165 1.350 . S
N1163 S1161 1.610 . S
N1163 C1164 1.351 . S
C1164 C1158 1.428 . S
C1164 N1163 1.351 . S
C1164 C1165 1.434 . S
C1165 C1156 1.429 . S
C1165 N1162 1.350 . S
C1165 C1164 1.434 . S
C1166 C1167 1.369 . S
C1166 C1168 1.419 . S
C1166 H1170 0.930 . S
C1167 C1166 1.369 . S
C1167 C1176 1.429 . S
C1168 C1166 1.419 . S
C1168 C1169 1.363 . S
C1168 H1171 0.929 . S
C1169 C1168 1.363 . S
C1169 C1175 1.428 . S
H1170 C1166 0.930 . S
H1171 C1168 0.929 . S
S1172 N1173 1.613 . S
S1172 N1174 1.610 . S
N1173 S1172 1.613 . S
N1173 C1176 1.350 . S
N1174 S1172 1.610 . S
N1174 C1175 1.351 . S
C1175 C1169 1.428 . S
C1175 N1174 1.351 . S
C1175 C1176 1.434 . S
C1176 C1167 1.429 . S
C1176 N1173 1.350 . S
C1176 C1175 1.434 . S
C1177 C1178 1.369 . S
C1177 C1179 1.419 . S
C1177 H1181 0.930 . S
C1178 C1177 1.369 . S
C1178 C1187 1.429 . S
C1179 C1177 1.419 . S
C1179 C1180 1.363 . S
C1179 H1182 0.929 . S
C1180 C1179 1.363 . S
C1180 C1186 1.428 . S
H1181 C1177 0.930 . S
H1182 C1179 0.929 . S
S1183 N1184 1.613 . S
S1183 N1185 1.610 . S
N1184 S1183 1.613 . S
N1184 C1187 1.350 . S
N1185 S1183 1.610 . S
N1185 C1186 1.351 . S
C1186 C1180 1.428 . S
C1186 N1185 1.351 . S
C1186 C1187 1.434 . S
C1187 C1178 1.429 . S
C1187 N1184 1.350 . S
C1187 C1186 1.434 . S
C1188 C1189 1.369 . S
C1188 C1190 1.419 . S
C1188 H1192 0.930 . S
C1189 C1188 1.369 . S
C1189 C1198 1.429 . S
C1190 C1188 1.419 . S
C1190 C1191 1.363 . S
C1190 H1193 0.929 . S
C1191 C1190 1.363 . S
C1191 C1197 1.428 . S
H1192 C1188 0.930 . S
H1193 C1190 0.929 . S
S1194 N1195 1.613 . S
S1194 N1196 1.610 . S
N1195 S1194 1.613 . S
N1195 C1198 1.350 . S
N1196 S1194 1.610 . S
N1196 C1197 1.351 . S
C1197 C1191 1.428 . S
C1197 N1196 1.351 . S
C1197 C1198 1.434 . S
C1198 C1189 1.429 . S
C1198 N1195 1.350 . S
C1198 C1197 1.434 . S
C1199 C1200 1.369 . S
C1199 C1201 1.419 . S
C1199 H1203 0.930 . S
C1200 C1199 1.369 . S
C1200 C1209 1.429 . S
C1201 C1199 1.419 . S
C1201 C1202 1.363 . S
C1201 H1204 0.929 . S
C1202 C1201 1.363 . S
C1202 C1208 1.428 . S
H1203 C1199 0.930 . S
H1204 C1201 0.929 . S
S1205 N1206 1.613 . S
S1205 N1207 1.610 . S
N1206 S1205 1.613 . S
N1206 C1209 1.350 . S
N1207 S1205 1.610 . S
N1207 C1208 1.351 . S
C1208 C1202 1.428 . S
C1208 N1207 1.351 . S
C1208 C1209 1.434 . S
C1209 C1200 1.429 . S
C1209 N1206 1.350 . S
C1209 C1208 1.434 . S
C1210 C1211 1.369 . S
C1210 C1212 1.419 . S
C1210 H1214 0.930 . S
C1211 C1210 1.369 . S
C1211 C1220 1.429 . S
C1212 C1210 1.419 . S
C1212 C1213 1.363 . S
C1212 H1215 0.929 . S
C1213 C1212 1.363 . S
C1213 C1219 1.428 . S
H1214 C1210 0.930 . S
H1215 C1212 0.929 . S
S1216 N1217 1.613 . S
S1216 N1218 1.610 . S
N1217 S1216 1.613 . S
N1217 C1220 1.350 . S
N1218 S1216 1.610 . S
N1218 C1219 1.351 . S
C1219 C1213 1.428 . S
C1219 N1218 1.351 . S
C1219 C1220 1.434 . S
C1220 C1211 1.429 . S
C1220 N1217 1.350 . S
C1220 C1219 1.434 . S
C1221 C1222 1.369 . S
C1221 C1223 1.419 . S
C1221 H1225 0.930 . S
C1222 C1221 1.369 . S
C1222 C1231 1.429 . S
C1223 C1221 1.419 . S
C1223 C1224 1.363 . S
C1223 H1226 0.929 . S
C1224 C1223 1.363 . S
C1224 C1230 1.428 . S
H1225 C1221 0.930 . S
H1226 C1223 0.929 . S
S1227 N1228 1.613 . S
S1227 N1229 1.610 . S
N1228 S1227 1.613 . S
N1228 C1231 1.350 . S
N1229 S1227 1.610 . S
N1229 C1230 1.351 . S
C1230 C1224 1.428 . S
C1230 N1229 1.351 . S
C1230 C1231 1.434 . S
C1231 C1222 1.429 . S
C1231 N1228 1.350 . S
C1231 C1230 1.434 . S
C1232 C1233 1.369 . S
C1232 C1234 1.419 . S
C1232 H1236 0.930 . S
C1233 C1232 1.369 . S
C1233 C1242 1.429 . S
C1234 C1232 1.419 . S
C1234 C1235 1.363 . S
C1234 H1237 0.929 . S
C1235 C1234 1.363 . S
C1235 C1241 1.428 . S
H1236 C1232 0.930 . S
H1237 C1234 0.929 . S
S1238 N1239 1.613 . S
S1238 N1240 1.610 . S
N1239 S1238 1.613 . S
N1239 C1242 1.350 . S
N1240 S1238 1.610 . S
N1240 C1241 1.351 . S
C1241 C1235 1.428 . S
C1241 N1240 1.351 . S
C1241 C1242 1.434 . S
C1242 C1233 1.429 . S
C1242 N1239 1.350 . S
C1242 C1241 1.434 . S
C1243 C1244 1.369 . S
C1243 C1245 1.419 . S
C1243 H1247 0.930 . S
C1244 C1243 1.369 . S
C1244 C1253 1.429 . S
C1245 C1243 1.419 . S
C1245 C1246 1.363 . S
C1245 H1248 0.929 . S
C1246 C1245 1.363 . S
C1246 C1252 1.428 . S
H1247 C1243 0.930 . S
H1248 C1245 0.929 . S
S1249 N1250 1.613 . S
S1249 N1251 1.610 . S
N1250 S1249 1.613 . S
N1250 C1253 1.350 . S
N1251 S1249 1.610 . S
N1251 C1252 1.351 . S
C1252 C1246 1.428 . S
C1252 N1251 1.351 . S
C1252 C1253 1.434 . S
C1253 C1244 1.429 . S
C1253 N1250 1.350 . S
C1253 C1252 1.434 . S
C1254 C1255 1.369 . S
C1254 C1256 1.419 . S
C1254 H1258 0.930 . S
C1255 C1254 1.369 . S
C1255 C1264 1.429 . S
C1256 C1254 1.419 . S
C1256 C1257 1.363 . S
C1256 H1259 0.929 . S
C1257 C1256 1.363 . S
C1257 C1263 1.428 . S
H1258 C1254 0.930 . S
H1259 C1256 0.929 . S
S1260 N1261 1.613 . S
S1260 N1262 1.610 . S
N1261 S1260 1.613 . S
N1261 C1264 1.350 . S
N1262 S1260 1.610 . S
N1262 C1263 1.351 . S
C1263 C1257 1.428 . S
C1263 N1262 1.351 . S
C1263 C1264 1.434 . S
C1264 C1255 1.429 . S
C1264 N1261 1.350 . S
C1264 C1263 1.434 . S
C1265 C1266 1.369 . S
C1265 C1267 1.419 . S
C1265 H1269 0.930 . S
C1266 C1265 1.369 . S
C1266 C1275 1.429 . S
C1267 C1265 1.419 . S
C1267 C1268 1.363 . S
C1267 H1270 0.929 . S
C1268 C1267 1.363 . S
C1268 C1274 1.428 . S
H1269 C1265 0.930 . S
H1270 C1267 0.929 . S
S1271 N1272 1.613 . S
S1271 N1273 1.610 . S
N1272 S1271 1.613 . S
N1272 C1275 1.350 . S
N1273 S1271 1.610 . S
N1273 C1274 1.351 . S
C1274 C1268 1.428 . S
C1274 N1273 1.351 . S
C1274 C1275 1.434 . S
C1275 C1266 1.429 . S
C1275 N1272 1.350 . S
C1275 C1274 1.434 . S
C1276 C1277 1.369 . S
C1276 C1278 1.419 . S
C1276 H1280 0.930 . S
C1277 C1276 1.369 . S
C1277 C1286 1.429 . S
C1278 C1276 1.419 . S
C1278 C1279 1.363 . S
C1278 H1281 0.929 . S
C1279 C1278 1.363 . S
C1279 C1285 1.428 . S
H1280 C1276 0.930 . S
H1281 C1278 0.929 . S
S1282 N1283 1.613 . S
S1282 N1284 1.610 . S
N1283 S1282 1.613 . S
N1283 C1286 1.350 . S
N1284 S1282 1.610 . S
N1284 C1285 1.351 . S
C1285 C1279 1.428 . S
C1285 N1284 1.351 . S
C1285 C1286 1.434 . S
C1286 C1277 1.429 . S
C1286 N1283 1.350 . S
C1286 C1285 1.434 . S
C1287 C1288 1.369 . S
C1287 C1289 1.419 . S
C1287 H1291 0.930 . S
C1288 C1287 1.369 . S
C1288 C1297 1.429 . S
C1289 C1287 1.419 . S
C1289 C1290 1.363 . S
C1289 H1292 0.929 . S
C1290 C1289 1.363 . S
C1290 C1296 1.428 . S
H1291 C1287 0.930 . S
H1292 C1289 0.929 . S
S1293 N1294 1.613 . S
S1293 N1295 1.610 . S
N1294 S1293 1.613 . S
N1294 C1297 1.350 . S
N1295 S1293 1.610 . S
N1295 C1296 1.351 . S
C1296 C1290 1.428 . S
C1296 N1295 1.351 . S
C1296 C1297 1.434 . S
C1297 C1288 1.429 . S
C1297 N1294 1.350 . S
C1297 C1296 1.434 . S
C1298 C1299 1.369 . S
C1298 C1300 1.419 . S
C1298 H1302 0.930 . S
C1299 C1298 1.369 . S
C1299 C1308 1.429 . S
C1300 C1298 1.419 . S
C1300 C1301 1.363 . S
C1300 H1303 0.929 . S
C1301 C1300 1.363 . S
C1301 C1307 1.428 . S
H1302 C1298 0.930 . S
H1303 C1300 0.929 . S
S1304 N1305 1.613 . S
S1304 N1306 1.610 . S
N1305 S1304 1.613 . S
N1305 C1308 1.350 . S
N1306 S1304 1.610 . S
N1306 C1307 1.351 . S
C1307 C1301 1.428 . S
C1307 N1306 1.351 . S
C1307 C1308 1.434 . S
C1308 C1299 1.429 . S
C1308 N1305 1.350 . S
C1308 C1307 1.434 . S
C1309 C1310 1.369 . S
C1309 C1311 1.419 . S
C1309 H1313 0.930 . S
C1310 C1309 1.369 . S
C1310 C1319 1.429 . S
C1311 C1309 1.419 . S
C1311 C1312 1.363 . S
C1311 H1314 0.929 . S
C1312 C1311 1.363 . S
C1312 C1318 1.428 . S
H1313 C1309 0.930 . S
H1314 C1311 0.929 . S
S1315 N1316 1.613 . S
S1315 N1317 1.610 . S
N1316 S1315 1.613 . S
N1316 C1319 1.350 . S
N1317 S1315 1.610 . S
N1317 C1318 1.351 . S
C1318 C1312 1.428 . S
C1318 N1317 1.351 . S
C1318 C1319 1.434 . S
C1319 C1310 1.429 . S
C1319 N1316 1.350 . S
C1319 C1318 1.434 . S
C1320 C1321 1.369 . S
C1320 C1322 1.419 1_655 S
C1320 H1324 0.930 . S
C1321 C1320 1.369 . S
C1321 C1330 1.429 . S
C1322 C1320 1.419 1_455 S
C1322 C1323 1.363 . S
C1322 H1325 0.929 . S
C1323 C1322 1.363 . S
C1323 C1329 1.428 . S
H1324 C1320 0.930 . S
H1325 C1322 0.929 . S
S1326 N1327 1.613 1_455 S
S1326 N1328 1.610 . S
N1327 S1326 1.613 1_655 S
N1327 C1330 1.350 . S
N1328 S1326 1.610 . S
N1328 C1329 1.351 . S
C1329 C1323 1.428 . S
C1329 N1328 1.351 . S
C1329 C1330 1.434 1_455 S
C1330 C1321 1.429 . S
C1330 N1327 1.350 . S
C1330 C1329 1.434 1_655 S
C1331 C1332 1.369 . S
C1331 C1333 1.419 . S
C1331 H1335 0.930 . S
C1332 C1331 1.369 . S
C1332 C1341 1.429 . S
C1333 C1331 1.419 . S
C1333 C1334 1.363 . S
C1333 H1336 0.929 . S
C1334 C1333 1.363 . S
C1334 C1340 1.428 . S
H1335 C1331 0.930 . S
H1336 C1333 0.929 . S
S1337 N1338 1.613 . S
S1337 N1339 1.610 . S
N1338 S1337 1.613 . S
N1338 C1341 1.350 . S
N1339 S1337 1.610 . S
N1339 C1340 1.351 . S
C1340 C1334 1.428 . S
C1340 N1339 1.351 . S
C1340 C1341 1.434 . S
C1341 C1332 1.429 . S
C1341 N1338 1.350 . S
C1341 C1340 1.434 . S
C1342 C1343 1.369 1_565 S
C1342 C1344 1.419 . S
C1342 H1346 0.930 . S
C1343 C1342 1.369 1_545 S
C1343 C1352 1.429 . S
C1344 C1342 1.419 . S
C1344 C1345 1.363 . S
C1344 H1347 0.929 . S
C1345 C1344 1.363 . S
C1345 C1351 1.428 1_565 S
H1346 C1342 0.930 . S
H1347 C1344 0.929 . S
S1348 N1349 1.613 . S
S1348 N1350 1.610 . S
N1349 S1348 1.613 . S
N1349 C1352 1.350 . S
N1350 S1348 1.610 . S
N1350 C1351 1.351 . S
C1351 C1345 1.428 1_545 S
C1351 N1350 1.351 . S
C1351 C1352 1.434 . S
C1352 C1343 1.429 . S
C1352 N1349 1.350 . S
C1352 C1351 1.434 . S
C1353 C1354 1.369 1_565 S
C1353 C1355 1.419 . S
C1353 H1357 0.930 . S
C1354 C1353 1.369 1_545 S
C1354 C1363 1.429 1_556 S
C1355 C1353 1.419 . S
C1355 C1356 1.363 1_556 S
C1355 H1358 0.929 . S
C1356 C1355 1.363 1_554 S
C1356 C1362 1.428 1_565 S
H1357 C1353 0.930 . S
H1358 C1355 0.929 . S
S1359 N1360 1.613 . S
S1359 N1361 1.610 . S
N1360 S1359 1.613 . S
N1360 C1363 1.350 . S
N1361 S1359 1.610 . S
N1361 C1362 1.351 . S
C1362 C1356 1.428 1_545 S
C1362 N1361 1.351 . S
C1362 C1363 1.434 . S
C1363 C1354 1.429 1_554 S
C1363 N1360 1.350 . S
C1363 C1362 1.434 . S
C1364 C1365 1.369 1_556 S
C1364 C1366 1.419 1_455 S
C1364 H1368 0.930 . S
C1365 C1364 1.369 1_554 S
C1365 C1374 1.429 . S
C1366 C1364 1.419 1_655 S
C1366 C1367 1.363 . S
C1366 H1369 0.929 . S
C1367 C1366 1.363 . S
C1367 C1373 1.428 1_556 S
H1368 C1364 0.930 . S
H1369 C1366 0.929 . S
S1370 N1371 1.613 1_655 S
S1370 N1372 1.610 . S
N1371 S1370 1.613 1_455 S
N1371 C1374 1.350 . S
N1372 S1370 1.610 . S
N1372 C1373 1.351 . S
C1373 C1367 1.428 1_554 S
C1373 N1372 1.351 . S
C1373 C1374 1.434 1_655 S
C1374 C1365 1.429 . S
C1374 N1371 1.350 . S
C1374 C1373 1.434 1_455 S
C1375 C1376 1.369 1_554 S
C1375 C1377 1.419 . S
C1375 H1379 0.930 . S
C1376 C1375 1.369 1_556 S
C1376 C1385 1.429 . S
C1377 C1375 1.419 . S
C1377 C1378 1.363 . S
C1377 H1380 0.929 . S
C1378 C1377 1.363 . S
C1378 C1384 1.428 1_554 S
H1379 C1375 0.930 . S
H1380 C1377 0.929 . S
S1381 N1382 1.613 . S
S1381 N1383 1.610 . S
N1382 S1381 1.613 . S
N1382 C1385 1.350 . S
N1383 S1381 1.610 . S
N1383 C1384 1.351 . S
C1384 C1378 1.428 1_556 S
C1384 N1383 1.351 . S
C1384 C1385 1.434 . S
C1385 C1376 1.429 . S
C1385 N1382 1.350 . S
C1385 C1384 1.434 . S
C1386 C1387 1.369 . S
C1386 C1388 1.419 . S
C1386 H1390 0.930 . S
C1387 C1386 1.369 . S
C1387 C1396 1.429 . S
C1388 C1386 1.419 . S
C1388 C1389 1.363 . S
C1388 H1391 0.929 . S
C1389 C1388 1.363 . S
C1389 C1395 1.428 . S
H1390 C1386 0.930 . S
H1391 C1388 0.929 . S
S1392 N1393 1.613 . S
S1392 N1394 1.610 . S
N1393 S1392 1.613 . S
N1393 C1396 1.350 . S
N1394 S1392 1.610 . S
N1394 C1395 1.351 . S
C1395 C1389 1.428 . S
C1395 N1394 1.351 . S
C1395 C1396 1.434 . S
C1396 C1387 1.429 . S
C1396 N1393 1.350 . S
C1396 C1395 1.434 . S
C1397 C1398 1.369 . S
C1397 C1399 1.419 . S
C1397 H1401 0.930 . S
C1398 C1397 1.369 . S
C1398 C1407 1.429 . S
C1399 C1397 1.419 . S
C1399 C1400 1.363 . S
C1399 H1402 0.929 1_565 S
C1400 C1399 1.363 . S
C1400 C1406 1.428 . S
H1401 C1397 0.930 . S
H1402 C1399 0.929 1_545 S
S1403 N1404 1.613 . S
S1403 N1405 1.610 . S
N1404 S1403 1.613 . S
N1404 C1407 1.350 . S
N1405 S1403 1.610 . S
N1405 C1406 1.351 . S
C1406 C1400 1.428 . S
C1406 N1405 1.351 . S
C1406 C1407 1.434 . S
C1407 C1398 1.429 . S
C1407 N1404 1.350 . S
C1407 C1406 1.434 . S
C1408 C1409 1.369 . S
C1408 C1410 1.419 . S
C1408 H1412 0.930 . S
C1409 C1408 1.369 . S
C1409 C1418 1.429 . S
C1410 C1408 1.419 . S
C1410 C1411 1.363 . S
C1410 H1413 0.929 . S
C1411 C1410 1.363 . S
C1411 C1417 1.428 . S
H1412 C1408 0.930 . S
H1413 C1410 0.929 . S
S1414 N1415 1.613 1_655 S
S1414 N1416 1.610 . S
N1415 S1414 1.613 1_455 S
N1415 C1418 1.350 . S
N1416 S1414 1.610 . S
N1416 C1417 1.351 1_655 S
C1417 C1411 1.428 . S
C1417 N1416 1.351 1_455 S
C1417 C1418 1.434 . S
C1418 C1409 1.429 . S
C1418 N1415 1.350 . S
C1418 C1417 1.434 . S
C1419 C1420 1.369 . S
C1419 C1421 1.419 . S
C1419 H1423 0.930 . S
C1420 C1419 1.369 . S
C1420 C1429 1.429 . S
C1421 C1419 1.419 . S
C1421 C1422 1.363 . S
C1421 H1424 0.929 . S
C1422 C1421 1.363 . S
C1422 C1428 1.428 . S
H1423 C1419 0.930 . S
H1424 C1421 0.929 . S
S1425 N1426 1.613 . S
S1425 N1427 1.610 . S
N1426 S1425 1.613 . S
N1426 C1429 1.350 . S
N1427 S1425 1.610 . S
N1427 C1428 1.351 . S
C1428 C1422 1.428 . S
C1428 N1427 1.351 . S
C1428 C1429 1.434 . S
C1429 C1420 1.429 . S
C1429 N1426 1.350 . S
C1429 C1428 1.434 . S
C1430 C1431 1.369 . S
C1430 C1432 1.419 . S
C1430 H1434 0.930 . S
C1431 C1430 1.369 . S
C1431 C1440 1.429 . S
C1432 C1430 1.419 . S
C1432 C1433 1.363 . S
C1432 H1435 0.929 . S
C1433 C1432 1.363 . S
C1433 C1439 1.428 . S
H1434 C1430 0.930 . S
H1435 C1432 0.929 . S
S1436 N1437 1.613 . S
S1436 N1438 1.610 . S
N1437 S1436 1.613 . S
N1437 C1440 1.350 . S
N1438 S1436 1.610 . S
N1438 C1439 1.351 . S
C1439 C1433 1.428 . S
C1439 N1438 1.351 . S
C1439 C1440 1.434 . S
C1440 C1431 1.429 . S
C1440 N1437 1.350 . S
C1440 C1439 1.434 . S
C1441 C1442 1.369 . S
C1441 C1443 1.419 . S
C1441 H1445 0.930 . S
C1442 C1441 1.369 . S
C1442 C1451 1.429 . S
C1443 C1441 1.419 . S
C1443 C1444 1.363 . S
C1443 H1446 0.927 1_655 S
C1444 C1443 1.363 . S
C1444 C1450 1.428 . S
H1445 C1441 0.930 . S
H1446 C1443 0.927 1_455 S
S1447 N1448 1.613 . S
S1447 N1449 1.610 . S
N1448 S1447 1.613 . S
N1448 C1451 1.350 . S
N1449 S1447 1.610 . S
N1449 C1450 1.351 . S
C1450 C1444 1.428 . S
C1450 N1449 1.351 . S
C1450 C1451 1.434 . S
C1451 C1442 1.429 . S
C1451 N1448 1.350 . S
C1451 C1450 1.434 . S
C1452 C1453 1.369 . S
C1452 C1454 1.419 . S
C1452 H1456 0.930 . S
C1453 C1452 1.369 . S
C1453 C1462 1.429 . S
C1454 C1452 1.419 . S
C1454 C1455 1.363 . S
C1454 H1457 0.929 . S
C1455 C1454 1.363 . S
C1455 C1461 1.428 . S
H1456 C1452 0.930 . S
H1457 C1454 0.929 . S
S1458 N1459 1.613 . S
S1458 N1460 1.610 . S
N1459 S1458 1.613 . S
N1459 C1462 1.350 . S
N1460 S1458 1.610 . S
N1460 C1461 1.351 . S
C1461 C1455 1.428 . S
C1461 N1460 1.351 . S
C1461 C1462 1.434 . S
C1462 C1453 1.429 . S
C1462 N1459 1.350 . S
C1462 C1461 1.434 . S
C1463 C1464 1.369 . S
C1463 C1465 1.419 . S
C1463 H1467 0.930 . S
C1464 C1463 1.369 . S
C1464 C1473 1.429 . S
C1465 C1463 1.419 . S
C1465 C1466 1.363 . S
C1465 H1468 0.929 . S
C1466 C1465 1.363 . S
C1466 C1472 1.428 . S
H1467 C1463 0.930 . S
H1468 C1465 0.929 . S
S1469 N1470 1.613 1_565 S
S1469 N1471 1.610 . S
N1470 S1469 1.613 1_545 S
N1470 C1473 1.350 . S
N1471 S1469 1.610 . S
N1471 C1472 1.351 1_565 S
C1472 C1466 1.428 . S
C1472 N1471 1.351 1_545 S
C1472 C1473 1.434 . S
C1473 C1464 1.429 . S
C1473 N1470 1.350 . S
C1473 C1472 1.434 . S
C1474 C1475 1.369 . S
C1474 C1476 1.419 . S
C1474 H1478 0.930 . S
C1475 C1474 1.369 . S
C1475 C1484 1.429 . S
C1476 C1474 1.419 . S
C1476 C1477 1.363 . S
C1476 H1479 0.929 . S
C1477 C1476 1.363 . S
C1477 C1483 1.428 . S
H1478 C1474 0.930 . S
H1479 C1476 0.929 . S
S1480 N1481 1.613 . S
S1480 N1482 1.610 . S
N1481 S1480 1.613 . S
N1481 C1484 1.350 . S
N1482 S1480 1.610 . S
N1482 C1483 1.351 . S
C1483 C1477 1.428 . S
C1483 N1482 1.351 . S
C1483 C1484 1.434 . S
C1484 C1475 1.429 . S
C1484 N1481 1.350 . S
C1484 C1483 1.434 . S
C1485 C1486 1.369 . S
C1485 C1487 1.419 . S
C1485 H1489 0.930 . S
C1486 C1485 1.369 . S
C1486 C1495 1.429 . S
C1487 C1485 1.419 . S
C1487 C1488 1.363 . S
C1487 H1490 0.929 . S
C1488 C1487 1.363 . S
C1488 C1494 1.428 . S
H1489 C1485 0.930 . S
H1490 C1487 0.929 . S
S1491 N1492 1.613 . S
S1491 N1493 1.610 . S
N1492 S1491 1.613 . S
N1492 C1495 1.350 . S
N1493 S1491 1.610 . S
N1493 C1494 1.351 . S
C1494 C1488 1.428 . S
C1494 N1493 1.351 . S
C1494 C1495 1.434 . S
C1495 C1486 1.429 . S
C1495 N1492 1.350 . S
C1495 C1494 1.434 . S
C1496 C1497 1.369 . S
C1496 C1498 1.419 . S
C1496 H1500 0.930 . S
C1497 C1496 1.369 . S
C1497 C1506 1.429 . S
C1498 C1496 1.419 . S
C1498 C1499 1.363 . S
C1498 H1501 0.929 . S
C1499 C1498 1.363 . S
C1499 C1505 1.428 . S
H1500 C1496 0.930 . S
H1501 C1498 0.929 . S
S1502 N1503 1.613 . S
S1502 N1504 1.610 . S
N1503 S1502 1.613 . S
N1503 C1506 1.350 . S
N1504 S1502 1.610 . S
N1504 C1505 1.351 . S
C1505 C1499 1.428 . S
C1505 N1504 1.351 . S
C1505 C1506 1.434 . S
C1506 C1497 1.429 . S
C1506 N1503 1.350 . S
C1506 C1505 1.434 . S
C1507 C1508 1.369 . S
C1507 C1509 1.419 . S
C1507 H1511 0.930 . S
C1508 C1507 1.369 . S
C1508 C1517 1.429 . S
C1509 C1507 1.419 . S
C1509 C1510 1.363 . S
C1509 H1512 0.929 . S
C1510 C1509 1.363 . S
C1510 C1516 1.428 . S
H1511 C1507 0.930 . S
H1512 C1509 0.929 . S
S1513 N1514 1.613 . S
S1513 N1515 1.610 . S
N1514 S1513 1.613 . S
N1514 C1517 1.350 . S
N1515 S1513 1.610 . S
N1515 C1516 1.351 . S
C1516 C1510 1.428 . S
C1516 N1515 1.351 . S
C1516 C1517 1.434 . S
C1517 C1508 1.429 . S
C1517 N1514 1.350 . S
C1517 C1516 1.434 . S
C1518 C1519 1.369 1_655 S
C1518 C1520 1.419 . S
C1518 H1522 0.930 . S
C1519 C1518 1.369 1_455 S
C1519 C1528 1.429 . S
C1520 C1518 1.419 . S
C1520 C1521 1.363 . S
C1520 H1523 0.929 . S
C1521 C1520 1.363 . S
C1521 C1527 1.428 1_655 S
H1522 C1518 0.930 . S
H1523 C1520 0.929 . S
S1524 N1525 1.613 . S
S1524 N1526 1.610 . S
N1525 S1524 1.613 . S
N1525 C1528 1.350 . S
N1526 S1524 1.610 . S
N1526 C1527 1.351 . S
C1527 C1521 1.428 1_455 S
C1527 N1526 1.351 . S
C1527 C1528 1.434 . S
C1528 C1519 1.429 . S
C1528 N1525 1.350 . S
C1528 C1527 1.434 . S
C1529 C1530 1.369 . S
C1529 C1531 1.419 . S
C1529 H1533 0.930 . S
C1530 C1529 1.369 . S
C1530 C1539 1.429 . S
C1531 C1529 1.419 . S
C1531 C1532 1.363 . S
C1531 H1534 0.929 . S
C1532 C1531 1.363 . S
C1532 C1538 1.428 . S
H1533 C1529 0.930 . S
H1534 C1531 0.929 . S
S1535 N1536 1.613 . S
S1535 N1537 1.610 . S
N1536 S1535 1.613 . S
N1536 C1539 1.350 . S
N1537 S1535 1.610 . S
N1537 C1538 1.351 . S
C1538 C1532 1.428 . S
C1538 N1537 1.351 . S
C1538 C1539 1.434 . S
C1539 C1530 1.429 . S
C1539 N1536 1.350 . S
C1539 C1538 1.434 . S
C1540 C1541 1.369 . S
C1540 C1542 1.419 1_565 S
C1540 H1544 0.930 . S
C1541 C1540 1.369 . S
C1541 C1550 1.429 . S
C1542 C1540 1.419 1_545 S
C1542 C1543 1.363 . S
C1542 H1545 0.929 . S
C1543 C1542 1.363 . S
C1543 C1549 1.433 . S
H1544 C1540 0.930 . S
H1545 C1542 0.929 . S
S1546 N1547 1.613 . S
S1546 N1548 1.610 . S
N1547 S1546 1.613 . S
N1547 C1550 1.350 . S
N1548 S1546 1.610 . S
N1548 C1549 1.356 1_565 S
C1549 C1543 1.433 . S
C1549 N1548 1.356 1_545 S
C1549 C1550 1.423 1_545 S
C1550 C1541 1.429 . S
C1550 N1547 1.350 . S
C1550 C1549 1.423 1_565 S
C1551 C1552 1.369 . S
C1551 C1553 1.419 1_565 S
C1551 H1555 0.930 . S
C1552 C1551 1.369 . S
C1552 C1561 1.429 . S
C1553 C1551 1.419 1_545 S
C1553 C1554 1.363 . S
C1553 H1556 0.929 . S
C1554 C1553 1.363 . S
C1554 C1560 1.428 . S
H1555 C1551 0.930 . S
H1556 C1553 0.929 . S
S1557 N1558 1.613 . S
S1557 N1559 1.610 1_565 S
N1558 S1557 1.613 . S
N1558 C1561 1.350 . S
N1559 S1557 1.610 1_545 S
N1559 C1560 1.351 . S
C1560 C1554 1.428 . S
C1560 N1559 1.351 . S
C1560 C1561 1.434 1_545 S
C1561 C1552 1.429 . S
C1561 N1558 1.350 . S
C1561 C1560 1.434 1_565 S
C1562 C1563 1.369 . S
C1562 C1564 1.419 . S
C1562 H1566 0.930 . S
C1563 C1562 1.369 . S
C1563 C1572 1.429 1_655 S
C1564 C1562 1.419 . S
C1564 C1565 1.363 1_655 S
C1564 H1567 0.929 . S
C1565 C1564 1.363 1_455 S
C1565 C1571 1.428 . S
H1566 C1562 0.930 . S
H1567 C1564 0.929 . S
S1568 N1569 1.613 . S
S1568 N1570 1.610 . S
N1569 S1568 1.613 . S
N1569 C1572 1.350 . S
N1570 S1568 1.610 . S
N1570 C1571 1.351 . S
C1571 C1565 1.428 . S
C1571 N1570 1.351 . S
C1571 C1572 1.434 . S
C1572 C1563 1.429 1_455 S
C1572 N1569 1.350 . S
C1572 C1571 1.434 . S
C1573 C1574 1.369 . S
C1573 C1575 1.419 . S
C1573 H1577 0.930 . S
C1574 C1573 1.369 . S
C1574 C1583 1.429 . S
C1575 C1573 1.419 . S
C1575 C1576 1.363 . S
C1575 H1578 0.929 . S
C1576 C1575 1.363 . S
C1576 C1582 1.428 . S
H1577 C1573 0.930 . S
H1578 C1575 0.929 . S
S1579 N1580 1.613 . S
S1579 N1581 1.610 . S
N1580 S1579 1.613 . S
N1580 C1583 1.350 . S
N1581 S1579 1.610 . S
N1581 C1582 1.351 . S
C1582 C1576 1.428 . S
C1582 N1581 1.351 . S
C1582 C1583 1.434 . S
C1583 C1574 1.429 . S
C1583 N1580 1.350 . S
C1583 C1582 1.434 . S
C1584 C1585 1.369 . S
C1584 C1586 1.419 1_655 S
C1584 H1588 0.930 . S
C1585 C1584 1.369 . S
C1585 C1594 1.429 . S
C1586 C1584 1.419 1_455 S
C1586 C1587 1.363 . S
C1586 H1589 0.929 . S
C1587 C1586 1.363 . S
C1587 C1593 1.428 . S
H1588 C1584 0.930 . S
H1589 C1586 0.929 . S
S1590 N1591 1.613 1_455 S
S1590 N1592 1.610 . S
N1591 S1590 1.613 1_655 S
N1591 C1594 1.350 . S
N1592 S1590 1.610 . S
N1592 C1593 1.351 . S
C1593 C1587 1.428 . S
C1593 N1592 1.351 . S
C1593 C1594 1.434 1_455 S
C1594 C1585 1.429 . S
C1594 N1591 1.350 . S
C1594 C1593 1.434 1_655 S
C1595 C1596 1.369 . S
C1595 C1597 1.419 . S
C1595 H1599 0.930 . S
C1596 C1595 1.369 . S
C1596 C1605 1.429 . S
C1597 C1595 1.419 . S
C1597 C1598 1.363 . S
C1597 H1600 0.929 . S
C1598 C1597 1.363 . S
C1598 C1604 1.428 . S
H1599 C1595 0.930 . S
H1600 C1597 0.929 . S
S1601 N1602 1.613 . S
S1601 N1603 1.610 . S
N1602 S1601 1.613 . S
N1602 C1605 1.350 . S
N1603 S1601 1.610 . S
N1603 C1604 1.351 . S
C1604 C1598 1.428 . S
C1604 N1603 1.351 . S
C1604 C1605 1.434 . S
C1605 C1596 1.429 . S
C1605 N1602 1.350 . S
C1605 C1604 1.434 . S
C1606 C1607 1.369 . S
C1606 C1608 1.419 1_545 S
C1606 H1610 0.930 . S
C1607 C1606 1.369 . S
C1607 C1616 1.413 1_545 S
C1608 C1606 1.419 1_565 S
C1608 C1609 1.363 . S
C1608 H1611 0.929 . S
C1609 C1608 1.363 . S
C1609 C1615 1.428 . S
H1610 C1606 0.930 . S
H1611 C1608 0.929 . S
S1612 N1613 1.613 1_565 S
S1612 N1614 1.610 . S
N1613 S1612 1.613 1_545 S
N1613 C1616 1.343 1_545 S
N1614 S1612 1.610 . S
N1614 C1615 1.351 . S
C1615 C1609 1.428 . S
C1615 N1614 1.351 . S
C1615 C1616 1.460 . S
C1616 C1607 1.413 1_565 S
C1616 N1613 1.343 1_565 S
C1616 C1615 1.460 . S
C1617 C1618 1.369 . S
C1617 C1619 1.419 1_545 S
C1617 H1621 0.930 . S
C1618 C1617 1.369 . S
C1618 C1627 1.429 . S
C1619 C1617 1.419 1_565 S
C1619 C1620 1.363 . S
C1619 H1622 0.929 . S
C1620 C1619 1.363 . S
C1620 C1626 1.428 . S
H1621 C1617 0.930 . S
H1622 C1619 0.929 . S
S1623 N1624 1.613 . S
S1623 N1625 1.610 1_545 S
N1624 S1623 1.613 . S
N1624 C1627 1.350 . S
N1625 S1623 1.610 1_565 S
N1625 C1626 1.351 . S
C1626 C1620 1.428 . S
C1626 N1625 1.351 . S
C1626 C1627 1.434 1_565 S
C1627 C1618 1.429 . S
C1627 N1624 1.350 . S
C1627 C1626 1.434 1_545 S
C1628 C1629 1.350 1_655 S
C1628 C1630 1.445 . S
C1628 H1632 0.923 1_655 S
C1629 C1628 1.350 1_455 S
C1629 C1638 1.429 . S
C1630 C1628 1.445 . S
C1630 C1631 1.363 . S
C1630 H1633 0.929 . S
C1631 C1630 1.363 . S
C1631 C1637 1.428 . S
H1632 C1628 0.923 1_455 S
H1633 C1630 0.929 . S
S1634 N1635 1.613 1_655 S
S1634 N1636 1.610 . S
N1635 S1634 1.613 1_455 S
N1635 C1638 1.350 . S
N1636 S1634 1.610 . S
N1636 C1637 1.351 . S
C1637 C1631 1.428 . S
C1637 N1636 1.351 . S
C1637 C1638 1.434 1_655 S
C1638 C1629 1.429 . S
C1638 N1635 1.350 . S
C1638 C1637 1.434 1_455 S
C1639 C1640 1.369 . S
C1639 C1641 1.419 . S
C1639 H1643 0.930 . S
C1640 C1639 1.369 . S
C1640 C1649 1.429 . S
C1641 C1639 1.419 . S
C1641 C1642 1.363 . S
C1641 H1644 0.929 . S
C1642 C1641 1.363 . S
C1642 C1648 1.428 . S
H1643 C1639 0.930 . S
H1644 C1641 0.929 . S
S1645 N1646 1.613 . S
S1645 N1647 1.610 . S
N1646 S1645 1.613 . S
N1646 C1649 1.350 . S
N1647 S1645 1.610 . S
N1647 C1648 1.351 . S
C1648 C1642 1.428 . S
C1648 N1647 1.351 . S
C1648 C1649 1.434 . S
C1649 C1640 1.429 . S
C1649 N1646 1.350 . S
C1649 C1648 1.434 . S
C1650 C1651 1.369 . S
C1650 C1652 1.419 1_455 S
C1650 H1654 0.930 . S
C1651 C1650 1.369 . S
C1651 C1660 1.429 . S
C1652 C1650 1.419 1_655 S
C1652 C1653 1.363 . S
C1652 H1655 0.929 . S
C1653 C1652 1.363 . S
C1653 C1659 1.428 . S
H1654 C1650 0.930 . S
H1655 C1652 0.929 . S
S1656 N1657 1.613 1_655 S
S1656 N1658 1.610 . S
N1657 S1656 1.613 1_455 S
N1657 C1660 1.350 . S
N1658 S1656 1.610 . S
N1658 C1659 1.351 . S
C1659 C1653 1.428 . S
C1659 N1658 1.351 . S
C1659 C1660 1.434 1_655 S
C1660 C1651 1.429 . S
C1660 N1657 1.350 . S
C1660 C1659 1.434 1_455 S
C1661 C1662 1.369 . S
C1661 C1663 1.419 . S
C1661 H1665 0.930 . S
C1662 C1661 1.369 . S
C1662 C1671 1.429 . S
C1663 C1661 1.419 . S
C1663 C1664 1.363 . S
C1663 H1666 0.929 . S
C1664 C1663 1.363 . S
C1664 C1670 1.428 . S
H1665 C1661 0.930 . S
H1666 C1663 0.929 . S
S1667 N1668 1.613 . S
S1667 N1669 1.610 . S
N1668 S1667 1.613 . S
N1668 C1671 1.350 . S
N1669 S1667 1.610 . S
N1669 C1670 1.351 . S
C1670 C1664 1.428 . S
C1670 N1669 1.351 . S
C1670 C1671 1.434 . S
C1671 C1662 1.429 . S
C1671 N1668 1.350 . S
C1671 C1670 1.434 . S
C1672 C1673 1.350 1_545 S
C1672 C1674 1.445 . S
C1672 H1676 0.923 1_545 S
C1673 C1672 1.350 1_565 S
C1673 C1682 1.429 . S
C1674 C1672 1.445 . S
C1674 C1675 1.363 . S
C1674 H1677 0.929 . S
C1675 C1674 1.363 . S
C1675 C1681 1.428 . S
H1676 C1672 0.923 1_565 S
H1677 C1674 0.929 . S
S1678 N1679 1.613 1_545 S
S1678 N1680 1.610 . S
N1679 S1678 1.613 1_565 S
N1679 C1682 1.350 . S
N1680 S1678 1.610 . S
N1680 C1681 1.351 . S
C1681 C1675 1.428 . S
C1681 N1680 1.351 . S
C1681 C1682 1.434 1_545 S
C1682 C1673 1.429 . S
C1682 N1679 1.350 . S
C1682 C1681 1.434 1_565 S
C1683 C1684 1.369 . S
C1683 C1685 1.419 1_545 S
C1683 H1687 0.930 . S
C1684 C1683 1.369 . S
C1684 C1693 1.429 . S
C1685 C1683 1.419 1_565 S
C1685 C1686 1.363 . S
C1685 H1688 0.929 . S
C1686 C1685 1.363 . S
C1686 C1692 1.428 . S
H1687 C1683 0.930 . S
H1688 C1685 0.929 . S
S1689 N1690 1.613 1_565 S
S1689 N1691 1.610 . S
N1690 S1689 1.613 1_545 S
N1690 C1693 1.350 . S
N1691 S1689 1.610 . S
N1691 C1692 1.351 . S
C1692 C1686 1.428 . S
C1692 N1691 1.351 . S
C1692 C1693 1.434 1_565 S
C1693 C1684 1.429 . S
C1693 N1690 1.350 . S
C1693 C1692 1.434 1_545 S
C1694 C1695 1.369 . S
C1694 C1696 1.419 1_655 S
C1694 H1698 0.930 . S
C1695 C1694 1.369 . S
C1695 C1704 1.429 . S
C1696 C1694 1.419 1_455 S
C1696 C1697 1.363 . S
C1696 H1699 0.929 . S
C1697 C1696 1.363 . S
C1697 C1703 1.428 . S
H1698 C1694 0.930 . S
H1699 C1696 0.929 . S
S1700 N1701 1.613 1_455 S
S1700 N1702 1.610 . S
N1701 S1700 1.613 1_655 S
N1701 C1704 1.350 . S
N1702 S1700 1.610 . S
N1702 C1703 1.351 . S
C1703 C1697 1.428 . S
C1703 N1702 1.351 . S
C1703 C1704 1.434 1_455 S
C1704 C1695 1.429 . S
C1704 N1701 1.350 . S
C1704 C1703 1.434 1_655 S
C1705 C1706 1.369 . S
C1705 C1707 1.419 . S
C1705 H1709 0.930 . S
C1706 C1705 1.369 . S
C1706 C1715 1.429 . S
C1707 C1705 1.419 . S
C1707 C1708 1.363 . S
C1707 H1710 0.929 . S
C1708 C1707 1.363 . S
C1708 C1714 1.428 . S
H1709 C1705 0.930 . S
H1710 C1707 0.929 . S
S1711 N1712 1.613 . S
S1711 N1713 1.610 . S
N1712 S1711 1.613 . S
N1712 C1715 1.350 . S
N1713 S1711 1.610 . S
N1713 C1714 1.351 . S
C1714 C1708 1.428 . S
C1714 N1713 1.351 . S
C1714 C1715 1.434 . S
C1715 C1706 1.429 . S
C1715 N1712 1.350 . S
C1715 C1714 1.434 . S
C1716 C1717 1.369 . S
C1716 C1718 1.419 . S
C1716 H1720 0.930 . S
C1717 C1716 1.369 . S
C1717 C1726 1.429 . S
C1718 C1716 1.419 . S
C1718 C1719 1.363 . S
C1718 H1721 0.929 . S
C1719 C1718 1.363 . S
C1719 C1725 1.428 . S
H1720 C1716 0.930 . S
H1721 C1718 0.929 . S
S1722 N1723 1.613 . S
S1722 N1724 1.610 . S
N1723 S1722 1.613 . S
N1723 C1726 1.350 . S
N1724 S1722 1.610 . S
N1724 C1725 1.351 . S
C1725 C1719 1.428 . S
C1725 N1724 1.351 . S
C1725 C1726 1.434 . S
C1726 C1717 1.429 . S
C1726 N1723 1.350 . S
C1726 C1725 1.434 . S
C1727 C1728 1.369 . S
C1727 C1729 1.419 . S
C1727 H1731 0.930 . S
C1728 C1727 1.369 . S
C1728 C1737 1.429 . S
C1729 C1727 1.419 . S
C1729 C1730 1.363 . S
C1729 H1732 0.929 . S
C1730 C1729 1.363 . S
C1730 C1736 1.428 . S
H1731 C1727 0.930 . S
H1732 C1729 0.929 . S
S1733 N1734 1.613 . S
S1733 N1735 1.610 . S
N1734 S1733 1.613 . S
N1734 C1737 1.350 . S
N1735 S1733 1.610 . S
N1735 C1736 1.351 . S
C1736 C1730 1.428 . S
C1736 N1735 1.351 . S
C1736 C1737 1.434 . S
C1737 C1728 1.429 . S
C1737 N1734 1.350 . S
C1737 C1736 1.434 . S
C1738 C1739 1.369 . S
C1738 C1740 1.419 . S
C1738 H1742 0.930 . S
C1739 C1738 1.369 . S
C1739 C1748 1.429 . S
C1740 C1738 1.419 . S
C1740 C1741 1.363 . S
C1740 H1743 0.929 . S
C1741 C1740 1.363 . S
C1741 C1747 1.428 . S
H1742 C1738 0.930 . S
H1743 C1740 0.929 . S
S1744 N1745 1.613 . S
S1744 N1746 1.610 . S
N1745 S1744 1.613 . S
N1745 C1748 1.350 . S
N1746 S1744 1.610 . S
N1746 C1747 1.351 . S
C1747 C1741 1.428 . S
C1747 N1746 1.351 . S
C1747 C1748 1.434 . S
C1748 C1739 1.429 . S
C1748 N1745 1.350 . S
C1748 C1747 1.434 . S
C1749 C1750 1.369 . S
C1749 C1751 1.419 . S
C1749 H1753 0.930 . S
C1750 C1749 1.369 . S
C1750 C1759 1.429 . S
C1751 C1749 1.419 . S
C1751 C1752 1.363 . S
C1751 H1754 0.929 . S
C1752 C1751 1.363 . S
C1752 C1758 1.428 . S
H1753 C1749 0.930 . S
H1754 C1751 0.929 . S
S1755 N1756 1.613 . S
S1755 N1757 1.610 . S
N1756 S1755 1.613 . S
N1756 C1759 1.350 . S
N1757 S1755 1.610 . S
N1757 C1758 1.351 . S
C1758 C1752 1.428 . S
C1758 N1757 1.351 . S
C1758 C1759 1.434 . S
C1759 C1750 1.429 . S
C1759 N1756 1.350 . S
C1759 C1758 1.434 . S
C1760 C1761 1.369 . S
C1760 C1762 1.419 . S
C1760 H1764 0.930 . S
C1761 C1760 1.369 . S
C1761 C1770 1.429 . S
C1762 C1760 1.419 . S
C1762 C1763 1.363 . S
C1762 H1765 0.929 . S
C1763 C1762 1.363 . S
C1763 C1769 1.428 . S
H1764 C1760 0.930 . S
H1765 C1762 0.929 . S
S1766 N1767 1.613 . S
S1766 N1768 1.610 . S
N1767 S1766 1.613 . S
N1767 C1770 1.350 . S
N1768 S1766 1.610 . S
N1768 C1769 1.351 . S
C1769 C1763 1.428 . S
C1769 N1768 1.351 . S
C1769 C1770 1.434 . S
C1770 C1761 1.429 . S
C1770 N1767 1.350 . S
C1770 C1769 1.434 . S
C1771 C1772 1.369 . S
C1771 C1773 1.419 . S
C1771 H1775 0.930 . S
C1772 C1771 1.369 . S
C1772 C1781 1.429 . S
C1773 C1771 1.419 . S
C1773 C1774 1.363 . S
C1773 H1776 0.929 . S
C1774 C1773 1.363 . S
C1774 C1780 1.428 . S
H1775 C1771 0.930 . S
H1776 C1773 0.929 . S
S1777 N1778 1.613 . S
S1777 N1779 1.610 . S
N1778 S1777 1.613 . S
N1778 C1781 1.350 . S
N1779 S1777 1.610 . S
N1779 C1780 1.351 . S
C1780 C1774 1.428 . S
C1780 N1779 1.351 . S
C1780 C1781 1.434 . S
C1781 C1772 1.429 . S
C1781 N1778 1.350 . S
C1781 C1780 1.434 . S
C1782 C1783 1.369 . S
C1782 C1784 1.419 . S
C1782 H1786 0.930 . S
C1783 C1782 1.369 . S
C1783 C1792 1.429 . S
C1784 C1782 1.419 . S
C1784 C1785 1.363 . S
C1784 H1787 0.929 . S
C1785 C1784 1.363 . S
C1785 C1791 1.428 . S
H1786 C1782 0.930 . S
H1787 C1784 0.929 . S
S1788 N1789 1.613 . S
S1788 N1790 1.610 . S
N1789 S1788 1.613 . S
N1789 C1792 1.350 . S
N1790 S1788 1.610 . S
N1790 C1791 1.351 . S
C1791 C1785 1.428 . S
C1791 N1790 1.351 . S
C1791 C1792 1.434 . S
C1792 C1783 1.429 . S
C1792 N1789 1.350 . S
C1792 C1791 1.434 . S
C1793 C1794 1.369 . S
C1793 C1795 1.419 . S
C1793 H1797 0.930 . S
C1794 C1793 1.369 . S
C1794 C1803 1.429 . S
C1795 C1793 1.419 . S
C1795 C1796 1.363 . S
C1795 H1798 0.929 . S
C1796 C1795 1.363 . S
C1796 C1802 1.428 . S
H1797 C1793 0.930 . S
H1798 C1795 0.929 . S
S1799 N1800 1.613 . S
S1799 N1801 1.610 . S
N1800 S1799 1.613 . S
N1800 C1803 1.350 . S
N1801 S1799 1.610 . S
N1801 C1802 1.351 . S
C1802 C1796 1.428 . S
C1802 N1801 1.351 . S
C1802 C1803 1.434 . S
C1803 C1794 1.429 . S
C1803 N1800 1.350 . S
C1803 C1802 1.434 . S
C1804 C1805 1.369 . S
C1804 C1806 1.419 . S
C1804 H1808 0.930 . S
C1805 C1804 1.369 . S
C1805 C1814 1.429 . S
C1806 C1804 1.419 . S
C1806 C1807 1.363 . S
C1806 H1809 0.929 . S
C1807 C1806 1.363 . S
C1807 C1813 1.428 . S
H1808 C1804 0.930 . S
H1809 C1806 0.929 . S
S1810 N1811 1.613 . S
S1810 N1812 1.610 . S
N1811 S1810 1.613 . S
N1811 C1814 1.350 . S
N1812 S1810 1.610 . S
N1812 C1813 1.351 . S
C1813 C1807 1.428 . S
C1813 N1812 1.351 . S
C1813 C1814 1.434 . S
C1814 C1805 1.429 . S
C1814 N1811 1.350 . S
C1814 C1813 1.434 . S
C1815 C1816 1.369 . S
C1815 C1817 1.419 . S
C1815 H1819 0.930 . S
C1816 C1815 1.369 . S
C1816 C1825 1.429 . S
C1817 C1815 1.419 . S
C1817 C1818 1.363 . S
C1817 H1820 0.929 1_556 S
C1818 C1817 1.363 . S
C1818 C1824 1.428 . S
H1819 C1815 0.930 . S
H1820 C1817 0.929 1_554 S
S1821 N1822 1.613 . S
S1821 N1823 1.610 . S
N1822 S1821 1.613 . S
N1822 C1825 1.350 . S
N1823 S1821 1.610 . S
N1823 C1824 1.351 . S
C1824 C1818 1.428 . S
C1824 N1823 1.351 . S
C1824 C1825 1.434 . S
C1825 C1816 1.429 . S
C1825 N1822 1.350 . S
C1825 C1824 1.434 . S
C1826 C1827 1.369 . S
C1826 C1828 1.419 . S
C1826 H1830 0.930 . S
C1827 C1826 1.369 . S
C1827 C1836 1.453 . S
C1828 C1826 1.419 . S
C1828 C1829 1.363 . S
C1828 H1831 0.929 . S
C1829 C1828 1.363 . S
C1829 C1835 1.428 1_556 S
H1830 C1826 0.930 . S
H1831 C1828 0.929 . S
S1832 N1833 1.613 . S
S1832 N1834 1.610 . S
N1833 S1832 1.613 . S
N1833 C1836 1.326 1_554 S
N1834 S1832 1.610 . S
N1834 C1835 1.351 . S
C1835 C1829 1.428 1_554 S
C1835 N1834 1.351 . S
C1835 C1836 1.431 1_554 S
C1836 C1827 1.453 . S
C1836 N1833 1.326 1_556 S
C1836 C1835 1.431 1_556 S
C1837 C1838 1.369 . S
C1837 C1839 1.419 . S
C1837 H1841 0.930 . S
C1838 C1837 1.369 . S
C1838 C1847 1.429 . S
C1839 C1837 1.419 . S
C1839 C1840 1.363 . S
C1839 H1842 0.942 . S
C1840 C1839 1.363 . S
C1840 C1846 1.428 . S
H1841 C1837 0.930 . S
H1842 C1839 0.942 . S
S1843 N1844 1.613 . S
S1843 N1845 1.610 . S
N1844 S1843 1.613 . S
N1844 C1847 1.350 . S
N1845 S1843 1.610 . S
N1845 C1846 1.351 . S
C1846 C1840 1.428 . S
C1846 N1845 1.351 . S
C1846 C1847 1.434 . S
C1847 C1838 1.429 . S
C1847 N1844 1.350 . S
C1847 C1846 1.434 . S
C1848 C1849 1.369 . S
C1848 C1850 1.419 . S
C1848 H1852 0.930 . S
C1849 C1848 1.369 . S
C1849 C1858 1.429 . S
C1850 C1848 1.419 . S
C1850 C1851 1.363 . S
C1850 H1853 0.929 . S
C1851 C1850 1.363 . S
C1851 C1857 1.428 . S
H1852 C1848 0.930 . S
H1853 C1850 0.929 . S
S1854 N1855 1.613 . S
S1854 N1856 1.610 . S
N1855 S1854 1.613 . S
N1855 C1858 1.350 . S
N1856 S1854 1.610 . S
N1856 C1857 1.351 . S
C1857 C1851 1.428 . S
C1857 N1856 1.351 . S
C1857 C1858 1.434 . S
C1858 C1849 1.429 . S
C1858 N1855 1.350 . S
C1858 C1857 1.434 . S
C1859 C1860 1.369 . S
C1859 C1861 1.419 . S
C1859 H1863 0.930 . S
C1860 C1859 1.369 . S
C1860 C1869 1.429 . S
C1861 C1859 1.419 . S
C1861 C1862 1.363 . S
C1861 H1864 0.929 . S
C1862 C1861 1.363 . S
C1862 C1868 1.428 . S
H1863 C1859 0.930 . S
H1864 C1861 0.929 . S
S1865 N1866 1.613 . S
S1865 N1867 1.610 . S
N1866 S1865 1.613 . S
N1866 C1869 1.350 . S
N1867 S1865 1.610 . S
N1867 C1868 1.351 . S
C1868 C1862 1.428 . S
C1868 N1867 1.351 . S
C1868 C1869 1.434 . S
C1869 C1860 1.429 . S
C1869 N1866 1.350 . S
C1869 C1868 1.434 . S
C1870 C1871 1.369 . S
C1870 C1872 1.419 . S
C1870 H1874 0.930 . S
C1871 C1870 1.369 . S
C1871 C1880 1.429 . S
C1872 C1870 1.419 . S
C1872 C1873 1.363 . S
C1872 H1875 0.929 . S
C1873 C1872 1.363 . S
C1873 C1879 1.428 . S
H1874 C1870 0.930 . S
H1875 C1872 0.929 . S
S1876 N1877 1.613 . S
S1876 N1878 1.610 . S
N1877 S1876 1.613 . S
N1877 C1880 1.350 . S
N1878 S1876 1.610 . S
N1878 C1879 1.351 . S
C1879 C1873 1.428 . S
C1879 N1878 1.351 . S
C1879 C1880 1.434 . S
C1880 C1871 1.429 . S
C1880 N1877 1.350 . S
C1880 C1879 1.434 . S
C1881 C1882 1.369 . S
C1881 C1883 1.419 . S
C1881 H1885 0.930 . S
C1882 C1881 1.369 . S
C1882 C1891 1.429 . S
C1883 C1881 1.419 . S
C1883 C1884 1.363 . S
C1883 H1886 0.929 . S
C1884 C1883 1.363 . S
C1884 C1890 1.428 . S
H1885 C1881 0.930 . S
H1886 C1883 0.929 . S
S1887 N1888 1.613 . S
S1887 N1889 1.610 . S
N1888 S1887 1.613 . S
N1888 C1891 1.350 1_556 S
N1889 S1887 1.610 . S
N1889 C1890 1.351 1_556 S
C1890 C1884 1.428 . S
C1890 N1889 1.351 1_554 S
C1890 C1891 1.434 . S
C1891 C1882 1.429 . S
C1891 N1888 1.350 1_554 S
C1891 C1890 1.434 . S
C1892 C1893 1.369 . S
C1892 C1894 1.419 . S
C1892 H1896 0.930 . S
C1893 C1892 1.369 . S
C1893 C1902 1.429 . S
C1894 C1892 1.419 . S
C1894 C1895 1.363 . S
C1894 H1897 0.929 . S
C1895 C1894 1.363 . S
C1895 C1901 1.428 . S
H1896 C1892 0.930 . S
H1897 C1894 0.929 . S
S1898 N1899 1.613 . S
S1898 N1900 1.610 . S
N1899 S1898 1.613 . S
N1899 C1902 1.350 . S
N1900 S1898 1.610 . S
N1900 C1901 1.351 . S
C1901 C1895 1.428 . S
C1901 N1900 1.351 . S
C1901 C1902 1.434 . S
C1902 C1893 1.429 . S
C1902 N1899 1.350 . S
C1902 C1901 1.434 . S
C1903 C1904 1.369 . S
C1903 C1905 1.419 . S
C1903 H1907 0.930 . S
C1904 C1903 1.369 . S
C1904 C1913 1.429 . S
C1905 C1903 1.419 . S
C1905 C1906 1.363 . S
C1905 H1908 0.929 . S
C1906 C1905 1.363 . S
C1906 C1912 1.428 . S
H1907 C1903 0.930 . S
H1908 C1905 0.929 . S
S1909 N1910 1.613 . S
S1909 N1911 1.610 . S
N1910 S1909 1.613 . S
N1910 C1913 1.350 1_556 S
N1911 S1909 1.610 . S
N1911 C1912 1.351 1_556 S
C1912 C1906 1.428 . S
C1912 N1911 1.351 1_554 S
C1912 C1913 1.434 . S
C1913 C1904 1.429 . S
C1913 N1910 1.350 1_554 S
C1913 C1912 1.434 . S
C1914 C1915 1.369 . S
C1914 C1916 1.419 . S
C1914 H1918 0.930 . S
C1915 C1914 1.369 . S
C1915 C1924 1.429 . S
C1916 C1914 1.419 . S
C1916 C1917 1.363 . S
C1916 H1919 0.929 . S
C1917 C1916 1.363 . S
C1917 C1923 1.428 . S
H1918 C1914 0.930 . S
H1919 C1916 0.929 . S
S1920 N1921 1.613 . S
S1920 N1922 1.610 . S
N1921 S1920 1.613 . S
N1921 C1924 1.350 . S
N1922 S1920 1.610 . S
N1922 C1923 1.351 . S
C1923 C1917 1.428 . S
C1923 N1922 1.351 . S
C1923 C1924 1.434 . S
C1924 C1915 1.429 . S
C1924 N1921 1.350 . S
C1924 C1923 1.434 . S
C1925 C1926 1.369 . S
C1925 C1927 1.419 . S
C1925 H1929 0.930 . S
C1926 C1925 1.369 . S
C1926 C1935 1.429 . S
C1927 C1925 1.419 . S
C1927 C1928 1.363 . S
C1927 H1930 0.929 . S
C1928 C1927 1.363 . S
C1928 C1934 1.428 . S
H1929 C1925 0.930 . S
H1930 C1927 0.929 . S
S1931 N1932 1.613 . S
S1931 N1933 1.610 . S
N1932 S1931 1.613 . S
N1932 C1935 1.350 . S
N1933 S1931 1.610 . S
N1933 C1934 1.351 . S
C1934 C1928 1.428 . S
C1934 N1933 1.351 . S
C1934 C1935 1.434 . S
C1935 C1926 1.429 . S
C1935 N1932 1.350 . S
C1935 C1934 1.434 . S
C1936 C1937 1.369 . S
C1936 C1938 1.419 . S
C1936 H1940 0.930 . S
C1937 C1936 1.369 . S
C1937 C1946 1.429 . S
C1938 C1936 1.419 . S
C1938 C1939 1.363 . S
C1938 H1941 0.929 . S
C1939 C1938 1.363 . S
C1939 C1945 1.428 . S
H1940 C1936 0.930 . S
H1941 C1938 0.929 . S
S1942 N1943 1.613 . S
S1942 N1944 1.610 . S
N1943 S1942 1.613 . S
N1943 C1946 1.350 . S
N1944 S1942 1.610 . S
N1944 C1945 1.351 . S
C1945 C1939 1.428 . S
C1945 N1944 1.351 . S
C1945 C1946 1.434 . S
C1946 C1937 1.429 . S
C1946 N1943 1.350 . S
C1946 C1945 1.434 . S
C1947 C1948 1.369 . S
C1947 C1949 1.419 . S
C1947 H1951 0.930 . S
C1948 C1947 1.369 . S
C1948 C1957 1.429 . S
C1949 C1947 1.419 . S
C1949 C1950 1.363 . S
C1949 H1952 0.929 . S
C1950 C1949 1.363 . S
C1950 C1956 1.428 . S
H1951 C1947 0.930 . S
H1952 C1949 0.929 . S
S1953 N1954 1.613 . S
S1953 N1955 1.610 . S
N1954 S1953 1.613 . S
N1954 C1957 1.350 . S
N1955 S1953 1.610 . S
N1955 C1956 1.351 . S
C1956 C1950 1.428 . S
C1956 N1955 1.351 . S
C1956 C1957 1.434 . S
C1957 C1948 1.429 . S
C1957 N1954 1.350 . S
C1957 C1956 1.434 . S
C1958 C1959 1.369 . S
C1958 C1960 1.419 . S
C1958 H1962 0.930 . S
C1959 C1958 1.369 . S
C1959 C1968 1.429 . S
C1960 C1958 1.419 . S
C1960 C1961 1.363 . S
C1960 H1963 0.929 . S
C1961 C1960 1.363 . S
C1961 C1967 1.428 . S
H1962 C1958 0.930 . S
H1963 C1960 0.929 . S
S1964 N1965 1.613 . S
S1964 N1966 1.610 . S
N1965 S1964 1.613 . S
N1965 C1968 1.350 . S
N1966 S1964 1.610 . S
N1966 C1967 1.351 . S
C1967 C1961 1.428 . S
C1967 N1966 1.351 . S
C1967 C1968 1.434 . S
C1968 C1959 1.429 . S
C1968 N1965 1.350 . S
C1968 C1967 1.434 . S
C1969 C1970 1.369 . S
C1969 C1971 1.419 . S
C1969 H1973 0.930 . S
C1970 C1969 1.369 . S
C1970 C1979 1.429 . S
C1971 C1969 1.419 . S
C1971 C1972 1.363 . S
C1971 H1974 0.929 . S
C1972 C1971 1.363 . S
C1972 C1978 1.428 . S
H1973 C1969 0.930 . S
H1974 C1971 0.929 . S
S1975 N1976 1.613 . S
S1975 N1977 1.610 . S
N1976 S1975 1.613 . S
N1976 C1979 1.350 . S
N1977 S1975 1.610 . S
N1977 C1978 1.351 . S
C1978 C1972 1.428 . S
C1978 N1977 1.351 . S
C1978 C1979 1.434 . S
C1979 C1970 1.429 . S
C1979 N1976 1.350 . S
C1979 C1978 1.434 . S
C793 C169 0.993 . S
C795 C10 0.993 . S
C804 C183 0.992 . S
C806 C32 0.993 . S
C815 C139 0.992 . S
C817 C52 0.994 . S
C826 C84 0.992 . S
C828 C257 0.993 . S
C837 C219 0.993 . S
C839 C98 0.993 . S
C848 C120 0.998 . S
C850 C235 0.999 . S
C859 C37 0.994 . S
C861 C150 0.996 . S
C870 C65 0.992 . S
C872 C164 0.993 . S
C881 C15 0.997 . S
C883 C194 0.998 . S
C892 C206 1.001 . S
C894 C125 1.000 . S
C903 C230 0.993 . S
C905 C73 0.995 . S
C914 C103 0.992 . S
C916 C252 0.994 . S
C925 C274 0.999 . S
C927 C433 0.996 . S
C936 C455 0.996 . S
C938 C294 0.994 . S
C947 C316 0.992 . S
C949 C403 0.993 . S
C958 C348 1.001 . S
C960 C521 0.998 . S
C969 C362 0.993 . S
C971 C477 0.996 . S
C980 C505 1.001 . S
C982 C384 0.998 . S
C991 C307 0.997 . S
C993 C414 0.998 . S
C1002 C329 0.997 . S
C1004 C428 0.995 . S
C1013 C279 0.993 . S
C1015 C450 0.993 . S
C1024 C472 0.997 . S
C1026 C389 0.995 . S
C1035 C492 0.993 . S
C1037 C337 0.993 . S
C1046 C367 1.001 . S
C1048 C516 0.999 . S
C1057 C538 0.993 . S
C1059 C689 0.993 . S
C1068 C558 1.001 . S
C1070 C719 0.999 . S
C1079 C582 0.993 . S
C1081 C667 0.993 . S
C1090 C785 0.995 . S
C1092 C604 0.993 . S
C1101 C634 1.001 . S
C1103 C741 0.999 . S
C1112 C646 0.998 . S
C1114 C763 0.999 . S
C1123 C571 0.999 . S
C1125 C678 0.997 . S
C1134 C587 0.998 . S
C1136 C700 0.999 . S
C1145 C543 0.992 . S
C1147 C714 0.994 . S
C1156 C736 0.995 . S
C1158 C659 0.994 . S
C1167 C758 0.992 . S
C1169 C609 0.993 . S
C1178 C780 1.000 . S
C1180 C623 0.998 . S
C1189 C8 1.376 . S
C1191 C406 1.376 . S
C1200 C426 1.375 . S
C1202 C30 1.376 . S
C1211 C62 1.374 . S
C1213 C448 1.378 . S
C1222 C734 1.376 . S
C1224 C76 1.376 . S
C1233 C96 1.376 . S
C1235 C756 1.376 . S
C1244 C778 1.374 . S
C1246 C118 1.378 . S
C1255 C536 1.377 . S
C1257 C142 1.375 . S
C1266 C162 1.374 . S
C1268 C568 1.377 . S
C1277 C186 1.375 . S
C1279 C580 1.377 . S
C1288 C340 1.374 . S
C1290 C216 1.377 . S
C1299 C228 1.376 . S
C1301 C360 1.376 . S
C1310 C382 1.373 . S
C1312 C250 1.378 . S
C1321 C272 1.377 . S
C1323 C670 1.375 . S
C1332 C692 1.375 . S
C1334 C304 1.376 . S
C1343 C326 1.374 . S
C1345 C712 1.378 . S
C1354 C470 1.374 . S
C1356 C602 1.378 . S
C1365 C626 1.375 . S
C1367 C502 1.376 . S
C1376 C514 1.377 . S
C1378 C656 1.375 . S
C1387 C21 2.005 . S
C1389 C645 2.003 . S
C1398 C615 2.001 . S
C1400 C43 2.006 . S
C1409 C631 2.003 . S
C1411 C51 2.000 . S
C1420 C293 1.997 . S
C1422 C81 2.005 . S
C1431 C109 1.997 . S
C1433 C315 2.006 . S
C1442 C285 1.998 . S
C1444 C131 2.007 . S
C1453 C147 2.008 . S
C1455 C527 1.999 . S
C1464 C483 2.004 . S
C1466 C175 1.999 . S
C1475 C191 2.008 . S
C1477 C491 1.999 . S
C1486 C697 2.008 . S
C1488 C205 1.999 . S
C1497 C241 2.004 . S
C1499 C725 2.005 . S
C1508 C675 1.999 . S
C1510 C263 2.007 . S
C1519 C557 1.997 . S
C1521 C345 2.006 . S
C1530 C593 2.008 . S
C1532 C373 2.000 . S
C1541 C549 1.999 . S
C1543 C395 2.007 . S
C1552 C791 1.999 . S
C1554 C411 2.003 . S
C1563 C439 2.008 . S
C1565 C747 2.000 . S
C1574 C769 2.005 . S
C1576 C461 2.004 . S
C1585 C40 1.332 . S
C1587 C7 1.324 . S
C1596 C29 1.323 . S
C1598 C54 1.323 . S
C1607 C18 1.333 . S
C1609 C59 1.328 . S
C1618 C87 1.331 . S
C1620 C128 1.330 . S
C1629 C74 1.322 . S
C1631 C95 1.323 . S
C1640 C106 1.322 . S
C1642 C117 1.323 . S
C1651 C172 1.328 . S
C1653 C153 1.330 . S
C1662 C161 1.324 . S
C1664 C184 1.323 . S
C1673 C140 1.322 . S
C1675 C197 1.325 . S
C1684 C260 1.325 . S
C1686 C213 1.321 . S
C1695 C208 1.323 . S
C1697 C227 1.321 . S
C1706 C238 1.324 . S
C1708 C249 1.321 . S
C1717 C296 1.333 . S
C1719 C271 1.329 . S
C1728 C301 1.331 . S
C1730 C318 1.328 . S
C1739 C323 1.324 . S
C1741 C282 1.323 . S
C1750 C351 1.330 . S
C1752 C392 1.325 . S
C1761 C359 1.330 . S
C1763 C338 1.331 . S
C1772 C381 1.325 . S
C1774 C370 1.331 . S
C1783 C436 1.331 . S
C1785 C417 1.330 . S
C1794 C458 1.323 . S
C1796 C425 1.326 . S
C1805 C404 1.332 . S
C1807 C447 1.325 . S
C1816 C469 1.320 . S
C1818 C524 1.325 . S
C1827 C499 1.327 . S
C1829 C480 1.331 . S
C1838 C513 1.328 . S
C1840 C494 1.325 . S
C1849 C560 1.328 . S
C1851 C535 1.330 . S
C1860 C565 1.321 . S
C1862 C590 1.329 . S
C1871 C546 1.323 . S
C1873 C579 1.327 . S
C1882 C601 1.330 . S
C1884 C648 1.331 . S
C1893 C637 1.320 . S
C1895 C612 1.326 . S
C1904 C624 1.329 . S
C1906 C653 1.330 . S
C1915 C690 1.324 . S
C1917 C681 1.321 . S
C1926 C722 1.322 . S
C1928 C703 1.322 . S
C1937 C668 1.328 . S
C1939 C711 1.330 . S
C1948 C733 1.327 . S
C1950 C788 1.324 . S
C1959 C755 1.321 . S
C1961 C744 1.327 . S
C1970 C766 1.322 . S
C1972 C777 1.322 . S
