# Generated by pormake.
# Topology sve, (7)-cn, num edge types: 1
# Building blocks:
#     Node 0, Type 0, BuildingBlock: HICVOG_clean_sbu_0, # of connection points: 7
#     Node 1, Type 0, BuildingBlock: HICVOG_clean_sbu_0, # of connection points: 7
#     Node 2, Type 0, BuildingBlock: HICVOG_clean_sbu_0, # of connection points: 7
#     Node 3, Type 0, BuildingBlock: HICVOG_clean_sbu_0, # of connection points: 7
#     Edge 4, Type (0, 0), BuildingBlock: ZUJKAS_clean_linker_0, # of connection points: 2
#     Edge 5, Type (0, 0), BuildingBlock: ZUJKAS_clean_linker_0, # of connection points: 2
#     Edge 6, Type (0, 0), BuildingBlock: ZUJKAS_clean_linker_0, # of connection points: 2
#     Edge 7, Type (0, 0), BuildingBlock: ZUJKAS_clean_linker_0, # of connection points: 2
#     Edge 8, Type (0, 0), BuildingBlock: ZUJKAS_clean_linker_0, # of connection points: 2
#     Edge 9, Type (0, 0), BuildingBlock: ZUJKAS_clean_linker_0, # of connection points: 2
#     Edge 10, Type (0, 0), BuildingBlock: ZUJKAS_clean_linker_0, # of connection points: 2
#     Edge 11, Type (0, 0), BuildingBlock: ZUJKAS_clean_linker_0, # of connection points: 2
#     Edge 12, Type (0, 0), BuildingBlock: ZUJKAS_clean_linker_0, # of connection points: 2
#     Edge 13, Type (0, 0), BuildingBlock: ZUJKAS_clean_linker_0, # of connection points: 2
#     Edge 14, Type (0, 0), BuildingBlock: ZUJKAS_clean_linker_0, # of connection points: 2
#     Edge 15, Type (0, 0), BuildingBlock: ZUJKAS_clean_linker_0, # of connection points: 2
#     Edge 16, Type (0, 0), BuildingBlock: ZUJKAS_clean_linker_0, # of connection points: 2
#     Edge 17, Type (0, 0), BuildingBlock: ZUJKAS_clean_linker_0, # of connection points: 2
# Relax obj value: 0.256
# Max RMSD: 0.293
# Mean RMSD: 0.256
data_MOF--net-sve--node1-HICVOG_clean_sbu_0--edge1-ZUJKAS_clean_linker_0
_symmetry_space_group_name_H-M    P1
_symmetry_Int_Tables_number       1
_symmetry_cell_setting            triclinic
loop_
_symmetry_equiv_pos_as_xyz
'x, y, z'
_cell_length_a     40.129337
_cell_length_b     36.710818
_cell_length_c     24.947676
_cell_angle_alpha  96.694956
_cell_angle_beta   84.192206
_cell_angle_gamma 89.953834
loop_
_atom_site_label
_atom_site_type_symbol
_atom_site_fract_x
_atom_site_fract_y
_atom_site_fract_z
_atom_type_partial_charge
Zn0 Zn 0.16343 0.30174 0.12309 0.0
C1 C 0.11299 0.36343 0.03755 0.0
N2 N 0.08621 0.34456 0.05509 0.0
C3 C 0.10006 0.31733 0.07732 0.0
N4 N 0.13387 0.31965 0.07424 0.0
N5 N 0.14186 0.34835 0.04819 0.0
C6 C 0.20169 0.4264 0.03394 0.0
O7 O 0.20358 0.41196 0.07928 0.0
O8 O 0.14867 0.25276 0.14453 0.0
Zn9 Zn 0.18388 0.35349 0.00487 0.0
N10 N 0.16078 0.33773 0.18722 0.0
C11 C 0.15639 0.40103 0.22121 0.0
C12 C 0.15862 0.37335 0.17799 0.0
C13 C 0.16108 0.32858 0.2386 0.0
N14 N 0.15667 0.39206 0.27229 0.0
C15 C 0.15907 0.35661 0.28276 0.0
O16 O 0.2253 0.33359 0.03201 0.0
C17 C 0.2345 0.31067 0.06231 0.0
O18 O 0.2133 0.29572 0.09436 0.0
H19 H 0.1586 0.38026 0.13731 0.0
H20 H 0.16244 0.29996 0.24466 0.0
C21 C 0.18046 0.33327 0.88739 0.0
C22 C 0.17864 0.3065 0.84232 0.0
C23 C 0.176 0.25996 0.90131 0.0
C24 C 0.17797 0.28638 0.94544 0.0
N25 N 0.18021 0.32236 0.93781 0.0
N26 N 0.17649 0.27058 0.85104 0.0
H27 H 0.18278 0.36209 0.88259 0.0
C28 C 0.14575 0.22682 0.10702 0.0
O29 O 0.1495 0.23404 0.05643 0.0
O30 O 0.19263 0.40626 0.9931 0.0
H31 H 0.17803 0.27838 0.98577 0.0
H32 H 0.15454 0.42948 0.21427 0.0
H33 H 0.17429 0.23121 0.90683 0.0
Zn34 Zn 0.71058 0.18467 0.07874 0.0
C35 C 0.65743 0.1138 0.98727 0.0
N36 N 0.67648 0.0878 1.00294 0.0
C37 C 0.69891 0.10751 0.03023 0.0
N38 N 0.69375 0.14417 0.03147 0.0
N39 N 0.66753 0.14784 0.00394 0.0
C40 C 0.58898 0.22306 0.96259 0.0
O41 O 0.60763 0.25014 0.94727 0.0
O42 O 0.75743 0.1759 0.10091 0.0
Zn43 Zn 0.65488 0.18916 0.96746 0.0
N44 N 0.67713 0.19221 0.14074 0.0
C45 C 0.61968 0.20706 0.16714 0.0
C46 C 0.6466 0.20178 0.12732 0.0
C47 C 0.68202 0.18793 0.19296 0.0
N48 N 0.62436 0.20278 0.21907 0.0
C49 C 0.65476 0.19347 0.23369 0.0
O50 O 0.67447 0.23874 0.99167 0.0
C51 C 0.69747 0.25278 0.01884 0.0
O52 O 0.71317 0.23401 0.04838 0.0
H53 H 0.64323 0.20501 0.08566 0.0
H54 H 0.70651 0.17976 0.20215 0.0
C55 C 0.66517 0.18381 0.84636 0.0
C56 C 0.68658 0.17653 0.79762 0.0
C57 C 0.72911 0.1563 0.84724 0.0
C58 C 0.70839 0.16432 0.89512 0.0
N59 N 0.67681 0.17757 0.89412 0.0
N60 N 0.71785 0.16279 0.79994 0.0
H61 H 0.64037 0.19546 0.84664 0.0
C62 C 0.78217 0.17128 0.0644 0.0
O63 O 0.7762 0.16794 0.01324 0.0
O64 O 0.60341 0.19376 0.97166 0.0
H65 H 0.71782 0.16071 0.93318 0.0
H66 H 0.5952 0.21449 0.15693 0.0
H67 H 0.75423 0.1457 0.84769 0.0
Zn68 Zn 0.86252 0.69766 0.10363 0.0
C69 C 0.83217 0.60609 0.02437 0.0
N70 N 0.85723 0.59111 0.04662 0.0
C71 C 0.87387 0.62054 0.06646 0.0
N72 N 0.85951 0.6521 0.05715 0.0
N73 N 0.83354 0.6432 0.02969 0.0
C74 C 0.74855 0.66359 0.99364 0.0
O75 O 0.75459 0.66876 0.04472 0.0
O76 O 0.9099 0.70829 0.11983 0.0
Zn77 Zn 0.8184 0.67551 0.97995 0.0
N78 N 0.83307 0.69234 0.16821 0.0
C79 C 0.77585 0.68828 0.20205 0.0
C80 C 0.8002 0.6926 0.15967 0.0
C81 C 0.84283 0.68808 0.21786 0.0
N82 N 0.78537 0.68413 0.25158 0.0
C83 C 0.81818 0.684 0.26128 0.0
O84 O 0.81491 0.73034 0.00759 0.0
C85 C 0.82669 0.75355 0.04268 0.0
O86 O 0.84513 0.74335 0.07688 0.0
H87 H 0.79311 0.69607 0.11991 0.0
H88 H 0.86926 0.68737 0.22288 0.0
C89 C 0.84287 0.67208 0.86542 0.0
C90 C 0.8684 0.67054 0.82191 0.0
C91 C 0.90909 0.66706 0.88406 0.0
C92 C 0.88384 0.66894 0.92677 0.0
N93 N 0.85129 0.67124 0.91684 0.0
N94 N 0.90083 0.66804 0.83292 0.0
H95 H 0.81679 0.67498 0.85905 0.0
C96 C 0.92773 0.72118 0.08155 0.0
O97 O 0.9147 0.72375 0.03587 0.0
O98 O 0.77309 0.66205 0.95707 0.0
H99 H 0.89018 0.66912 0.96769 0.0
H100 H 0.74957 0.68829 0.19577 0.0
H101 H 0.9351 0.66524 0.89151 0.0
Zn102 Zn 0.3697 0.83887 0.93408 0.0
C103 C 0.32275 0.92678 0.00717 0.0
N104 N 0.34201 0.94347 0.97027 0.0
C105 C 0.36533 0.91756 0.95096 0.0
N106 N 0.35994 0.88643 0.97438 0.0
N107 N 0.33374 0.89266 0.01089 0.0
C108 C 0.25375 0.86733 0.06567 0.0
O109 O 0.26554 0.86133 0.01431 0.0
O110 O 0.41894 0.82989 0.9137 0.0
Zn111 Zn 0.32285 0.86494 0.07173 0.0
N112 N 0.34322 0.83604 0.87321 0.0
C113 C 0.28783 0.82511 0.84983 0.0
C114 C 0.31094 0.82731 0.88781 0.0
C115 C 0.35351 0.84298 0.82166 0.0
N116 N 0.29789 0.8319 0.79857 0.0
C117 C 0.33006 0.84082 0.78283 0.0
O118 O 0.32616 0.81043 0.05315 0.0
C119 C 0.33779 0.78644 0.01504 0.0
O120 O 0.35374 0.7954 0.972 0.0
H121 H 0.30316 0.82238 0.92904 0.0
H122 H 0.37919 0.85075 0.81175 0.0
C123 C 0.3477 0.87188 0.17802 0.0
C124 C 0.37171 0.88178 0.21451 0.0
C125 C 0.4053 0.90712 0.14451 0.0
C126 C 0.38158 0.89729 0.10871 0.0
N127 N 0.35332 0.87977 0.12587 0.0
N128 N 0.39989 0.89907 0.19628 0.0
H129 H 0.32528 0.85736 0.19027 0.0
C130 C 0.4339 0.82511 0.95494 0.0
O131 O 0.41691 0.83036 1.00315 0.0
O132 O 0.27434 0.87238 0.10128 0.0
H133 H 0.38596 0.90332 0.06736 0.0
H134 H 0.26205 0.81822 0.86098 0.0
H135 H 0.42795 0.92089 0.13123 0.0
H136 H 0.08549 0.38442 0.95098 0.0
H137 H 0.05804 0.44374 0.94937 0.0
H138 H 0.09862 0.4846 0.0983 0.0
H139 H 0.12768 0.42625 0.09758 0.0
H140 H 0.01034 0.46038 0.02152 0.0
H141 H 0.09511 0.57847 0.0361 0.0
H142 H 0.11049 0.53218 0.01582 0.0
H143 H 0.1019 0.54917 0.08666 0.0
C144 C 0.09021 0.40691 0.98132 0.0
C145 C 0.10901 0.40101 0.02393 0.0
C146 C 0.07423 0.44074 0.98084 0.0
C147 C 0.07587 0.46888 0.02398 0.0
C148 C 0.09732 0.46398 0.06387 0.0
H149 H 0.89309 0.58398 0.14656 0.0
H150 H 0.94758 0.55339 0.1434 0.0
C151 C 0.11405 0.43044 0.06345 0.0
C152 C 0.05016 0.49902 0.03325 0.0
H153 H 0.03701 0.59098 0.072 0.0
C154 C 0.01646 0.48897 0.03164 0.0
C155 C 0.05772 0.53651 0.0467 0.0
C156 C 0.09332 0.54972 0.04584 0.0
C157 C 0.99031 0.5148 0.04379 0.0
C158 C 0.99766 0.55186 0.06054 0.0
C159 C 0.03132 0.56241 0.0607 0.0
C160 C 0.9702 0.57959 0.07556 0.0
C161 C 0.95495 0.502 0.03777 0.0
C162 C 0.96608 0.60737 0.04251 0.0
C163 C 0.93521 0.62582 0.04565 0.0
C164 C 0.90812 0.61639 0.08146 0.0
C165 C 0.91368 0.592 0.11901 0.0
C166 C 0.94469 0.57419 0.1167 0.0
H167 H 0.95453 0.47569 0.01087 0.0
H168 H 0.94243 0.49751 0.07817 0.0
H169 H 0.94016 0.52272 0.02088 0.0
H170 H 0.98545 0.6122 0.0107 0.0
H171 H 0.93149 0.64403 0.01561 0.0
H172 H 0.59384 0.12505 0.03253 0.0
H173 H 0.54472 0.09213 1.00293 0.0
H174 H 0.60278 0.04835 0.85415 0.0
H175 H 0.65254 0.07941 0.88589 0.0
H176 H 0.50586 0.08556 0.92718 0.0
H177 H 0.57796 0.95499 0.91027 0.0
H178 H 0.59489 0.99822 0.93569 0.0
H179 H 0.59473 0.98557 0.8637 0.0
C180 C 0.59575 0.10923 0.99282 0.0
C181 C 0.62674 0.10471 0.96132 0.0
C182 C 0.56774 0.09019 0.97597 0.0
C183 C 0.57022 0.06652 0.92707 0.0
C184 C 0.60047 0.06516 0.893 0.0
H185 H 0.37836 0.95881 0.86731 0.0
H186 H 0.43018 0.99231 0.84735 0.0
C187 C 0.62873 0.08343 0.91059 0.0
C188 C 0.54205 0.04135 0.91466 0.0
H189 H 0.52209 0.95071 0.89066 0.0
C190 C 0.50944 0.05608 0.91886 0.0
C191 C 0.54655 1.0027 0.90457 0.0
C192 C 0.58034 0.98436 0.90382 0.0
C193 C 0.48127 0.03346 0.91547 0.0
C194 C 0.48582 0.99483 0.90468 0.0
C195 C 0.51852 0.98022 0.89829 0.0
C196 C 0.45708 0.96898 0.90653 0.0
C197 C 0.44696 0.05128 0.92705 0.0
C198 C 0.456 0.94189 0.94214 0.0
C199 C 0.42698 0.9216 0.95164 0.0
C200 C 0.39832 0.92821 0.92617 0.0
C201 C 0.40024 0.95303 0.8872 0.0
C202 C 0.42962 0.97272 0.87663 0.0
H203 H 0.448 0.07957 0.94817 0.0
H204 H 0.43617 0.05312 0.88822 0.0
H205 H 0.42983 0.03509 0.95259 0.0
H206 H 0.47678 0.93815 0.96558 0.0
H207 H 0.42601 0.90346 0.98296 0.0
H208 H 0.13221 0.39943 0.37294 0.0
H209 H 0.13671 0.39181 0.46762 0.0
H210 H 0.19116 0.29013 0.41854 0.0
H211 H 0.18784 0.29803 0.32326 0.0
H212 H 0.11475 0.33691 0.52831 0.0
H213 H 0.25324 0.34799 0.51617 0.0
H214 H 0.22933 0.36002 0.46315 0.0
H215 H 0.23842 0.31271 0.46861 0.0
C216 C 0.1452 0.37537 0.38203 0.0
C217 C 0.15963 0.34937 0.34012 0.0
C218 C 0.14763 0.37104 0.43632 0.0
C219 C 0.16471 0.34075 0.45013 0.0
C220 C 0.17837 0.3141 0.4087 0.0
H221 H 0.20364 0.2641 0.75081 0.0
H222 H 0.20046 0.27469 0.6568 0.0
C223 C 0.17599 0.31841 0.35414 0.0
C224 C 0.16817 0.33739 0.50802 0.0
H225 H 0.22568 0.33272 0.5991 0.0
C226 C 0.13899 0.33614 0.54388 0.0
C227 C 0.19984 0.33665 0.52824 0.0
C228 C 0.23202 0.33975 0.49223 0.0
C229 C 0.14061 0.33331 0.59921 0.0
C230 C 0.17227 0.33226 0.6193 0.0
C231 C 0.20145 0.33369 0.58354 0.0
C232 C 0.17563 0.32752 0.67671 0.0
C233 C 0.10848 0.33047 0.63545 0.0
C234 C 0.16337 0.35418 0.7192 0.0
C235 C 0.16516 0.34823 0.77334 0.0
C236 C 0.17928 0.3155 0.78572 0.0
C237 C 0.19237 0.28948 0.74281 0.0
C238 C 0.1907 0.29551 0.68897 0.0
H239 H 0.08676 0.32421 0.61175 0.0
H240 H 0.11069 0.30885 0.66258 0.0
H241 H 0.10327 0.35696 0.66128 0.0
H242 H 0.15202 0.37932 0.71049 0.0
H243 H 0.15446 0.36867 0.80524 0.0
H244 H 0.60574 0.17385 0.30776 0.0
H245 H 0.6075 0.17316 0.40508 0.0
H246 H 0.71137 0.20392 0.38955 0.0
H247 H 0.70974 0.20554 0.29204 0.0
H248 H 0.64809 0.13277 0.46267 0.0
H249 H 0.66715 0.28264 0.50641 0.0
H250 H 0.65407 0.26187 0.44282 0.0
H251 H 0.69729 0.25965 0.45548 0.0
C252 C 0.62906 0.18042 0.32486 0.0
C253 C 0.65759 0.18976 0.29181 0.0
C254 C 0.62999 0.1799 0.38056 0.0
C255 C 0.65937 0.18904 0.40468 0.0
C256 C 0.68825 0.19734 0.37181 0.0
H257 H 0.72786 0.2006 0.71735 0.0
H258 H 0.71703 0.2052 0.62418 0.0
C259 C 0.6874 0.19777 0.31587 0.0
C260 C 0.65952 0.19013 0.46432 0.0
H261 H 0.67155 0.24698 0.57899 0.0
C262 C 0.65296 0.15777 0.48825 0.0
C263 C 0.66555 0.22288 0.49756 0.0
C264 C 0.67111 0.25885 0.47448 0.0
C265 C 0.65362 0.15694 0.54432 0.0
C266 C 0.66038 0.18954 0.57741 0.0
C267 C 0.66618 0.22208 0.55359 0.0
C268 C 0.66508 0.18963 0.63568 0.0
C269 C 0.64848 0.12089 0.56734 0.0
C270 C 0.63909 0.1804 0.67378 0.0
C271 C 0.64522 0.17775 0.72765 0.0
C272 C 0.67746 0.18423 0.74388 0.0
C273 C 0.70283 0.19506 0.70604 0.0
C274 C 0.69668 0.19783 0.65272 0.0
H275 H 0.64967 0.09724 0.53505 0.0
H276 H 0.66766 0.11672 0.59524 0.0
H277 H 0.62349 0.12114 0.59089 0.0
H278 H 0.61433 0.17452 0.6616 0.0
H279 H 0.62524 0.16913 0.75572 0.0
H280 H 0.7805 0.65064 0.33763 0.0
H281 H 0.78981 0.64828 0.43214 0.0
H282 H 0.88319 0.70483 0.40697 0.0
H283 H 0.87362 0.70856 0.31255 0.0
H284 H 0.8409 0.61771 0.47879 0.0
H285 H 0.83337 0.76861 0.53527 0.0
H286 H 0.82081 0.74678 0.47197 0.0
H287 H 0.86444 0.75376 0.48006 0.0
C288 C 0.8031 0.66262 0.35197 0.0
C289 C 0.82626 0.67982 0.31714 0.0
C290 C 0.8084 0.66109 0.40607 0.0
C291 C 0.83689 0.67688 0.42681 0.0
C292 C 0.8607 0.69304 0.39197 0.0
H293 H 0.9091 0.69794 0.74303 0.0
H294 H 0.90047 0.69889 0.64785 0.0
C295 C 0.8554 0.69466 0.33765 0.0
C296 C 0.84119 0.6767 0.48513 0.0
H297 H 0.84775 0.73278 0.60276 0.0
C298 C 0.84234 0.64285 0.50596 0.0
C299 C 0.8428 0.70958 0.52052 0.0
C300 C 0.83999 0.74677 0.50109 0.0
C301 C 0.84567 0.64096 0.56106 0.0
C302 C 0.84746 0.67381 0.59632 0.0
C303 C 0.8463 0.70766 0.57556 0.0
C304 C 0.85181 0.67366 0.65456 0.0
C305 C 0.84799 0.60385 0.58092 0.0
C306 C 0.82701 0.65961 0.69014 0.0
C307 C 0.83183 0.659 0.74487 0.0
C308 C 0.86155 0.67254 0.76488 0.0
C309 C 0.88601 0.68707 0.72903 0.0
C310 C 0.88111 0.68778 0.6746 0.0
H311 H 0.85334 0.58161 0.54689 0.0
H312 H 0.86787 0.60348 0.60876 0.0
H313 H 0.82381 0.59787 0.60371 0.0
H314 H 0.80401 0.64898 0.67551 0.0
H315 H 0.81264 0.64712 0.77093 0.0
H316 H 0.2877 0.86492 0.71627 0.0
H317 H 0.29831 0.87104 0.62013 0.0
H318 H 0.40176 0.84002 0.62256 0.0
H319 H 0.39113 0.8324 0.71902 0.0
H320 H 0.34088 0.91478 0.56511 0.0
H321 H 0.37195 0.76754 0.50052 0.0
H322 H 0.35346 0.78395 0.56798 0.0
H323 H 0.39739 0.78995 0.54943 0.0
C324 C 0.3128 0.85933 0.69661 0.0
C325 C 0.33849 0.84801 0.72565 0.0
C326 C 0.31882 0.86301 0.64154 0.0
C327 C 0.35065 0.85542 0.61395 0.0
C328 C 0.37681 0.84535 0.64292 0.0
H329 H 0.42103 0.86646 0.27559 0.0
H330 H 0.41609 0.85917 0.37219 0.0
C331 C 0.37078 0.84153 0.69833 0.0
C332 C 0.35583 0.85783 0.55476 0.0
H333 H 0.3752 0.80698 0.43178 0.0
C334 C 0.34845 0.89122 0.53597 0.0
C335 C 0.36552 0.82698 0.51681 0.0
C336 C 0.37228 0.78996 0.53447 0.0
C337 C 0.35049 0.89463 0.48031 0.0
C338 C 0.35989 0.86375 0.44248 0.0
C339 C 0.36783 0.83051 0.46108 0.0
C340 C 0.36223 0.86579 0.38334 0.0
C341 C 0.34286 0.9313 0.46228 0.0
C342 C 0.33341 0.87111 0.35748 0.0
C343 C 0.33608 0.87514 0.30209 0.0
C344 C 0.36769 0.87398 0.27181 0.0
C345 C 0.39634 0.86769 0.2978 0.0
C346 C 0.39361 0.86341 0.35293 0.0
H347 H 0.34228 0.95388 0.49616 0.0
H348 H 0.36177 0.93771 0.42914 0.0
H349 H 0.31798 0.9303 0.44639 0.0
H350 H 0.30893 0.87274 0.38037 0.0
H351 H 0.31356 0.88045 0.28364 0.0
H352 H 0.14534 0.20141 0.20632 0.0
H353 H 0.15872 0.13879 0.2226 0.0
H354 H 0.16003 0.10305 0.05147 0.0
H355 H 0.14588 0.165 0.03502 0.0
H356 H 0.13761 0.04842 0.11813 0.0
H357 H 0.25715 0.11237 0.17565 0.0
H358 H 0.21888 0.12818 0.21516 0.0
H359 H 0.22665 0.13759 0.14597 0.0
C360 C 0.14754 0.17998 0.17237 0.0
C361 C 0.14547 0.18833 0.11913 0.0
C362 C 0.15525 0.14425 0.18178 0.0
C363 C 0.16124 0.11655 0.13806 0.0
C364 C 0.15572 0.12408 0.08579 0.0
H365 H 0.26955 0.95361 0.96759 0.0
H366 H 0.22381 0.99115 0.01733 0.0
C367 C 0.14781 0.15963 0.07639 0.0
C368 C 0.17851 0.0818 0.14397 0.0
H369 H 0.25736 0.04947 0.15159 0.0
C370 C 0.16352 0.04845 0.12699 0.0
C371 C 0.21223 0.0818 0.15617 0.0
C372 C 0.22989 0.1168 0.17404 0.0
C373 C 0.18227 0.01561 0.11726 0.0
C374 C 0.21686 0.01646 0.12374 0.0
C375 C 0.23084 0.04896 0.14639 0.0
C376 C 0.24029 0.98725 0.0966 0.0
C377 C 0.16534 0.98071 0.09715 0.0
C378 C 0.26497 0.97264 0.12447 0.0
C379 C 0.29137 0.95133 0.09576 0.0
C380 C 0.29334 0.94469 0.03902 0.0
C381 C 0.26819 0.95825 0.01147 0.0
C382 C 0.24183 0.97923 0.03998 0.0
H383 H 0.13887 0.98058 0.11515 0.0
H384 H 0.16518 0.97899 0.05247 0.0
H385 H 0.1785 0.95605 0.10693 0.0
H386 H 0.2646 0.97909 0.16802 0.0
H387 H 0.31091 0.94145 0.11751 0.0
H388 H 0.08603 0.25372 0.0195 0.0
H389 H 0.03434 0.21943 0.03414 0.0
H390 H 0.01244 0.28181 0.19133 0.0
H391 H 0.0637 0.31714 0.17547 0.0
H392 H 1.00036 0.17791 0.10348 0.0
H393 H 0.93611 0.31305 0.11416 0.0
H394 H 0.98065 0.30736 0.09729 0.0
H395 H 0.96288 0.31002 0.16687 0.0
C396 C 0.07101 0.25882 0.0583 0.0
C397 C 0.07913 0.28762 0.09677 0.0
C398 C 0.04119 0.23949 0.06643 0.0
C399 C 0.0188 0.24874 0.11313 0.0
C400 C 0.02876 0.2748 0.15426 0.0
H401 H 0.80417 0.19816 0.16206 0.0
H402 H 0.86187 0.213 0.18028 0.0
C403 C 0.05842 0.29449 0.14575 0.0
C404 C 0.98384 0.23437 0.11532 0.0
H405 H 0.90184 0.26168 0.12038 0.0
C406 C 0.97883 0.19627 0.10765 0.0
C407 C 0.95554 0.25822 0.12006 0.0
C408 C 0.95894 0.29941 0.12452 0.0
C409 C 0.94655 0.18151 0.10438 0.0
C410 C 0.91846 0.20539 0.10862 0.0
C411 C 0.92333 0.24337 0.11762 0.0
C412 C 0.88407 0.19201 0.09997 0.0
C413 C 0.94275 0.14044 0.0961 0.0
C414 C 0.87727 0.17492 0.04895 0.0
C415 C 0.84431 0.16666 0.03831 0.0
C416 C 0.81731 0.17522 0.07847 0.0
C417 C 0.82431 0.19097 0.13027 0.0
C418 C 0.85731 0.19956 0.14073 0.0
H419 H 0.9647 0.12602 0.10805 0.0
H420 H 0.91973 0.13191 0.11975 0.0
H421 H 0.94065 0.13157 0.05252 0.0
H422 H 0.89732 0.16937 0.01652 0.0
H423 H 0.8399 0.15459 0.99795 0.0
H424 H 0.84436 0.81027 0.11577 0.0
H425 H 0.82843 0.87504 0.12261 0.0
H426 H 0.77434 0.85272 0.98191 0.0
H427 H 0.78955 0.78764 0.97539 0.0
H428 H 0.83972 0.92775 0.05507 0.0
H429 H 0.70332 0.9046 0.09046 0.0
H430 H 0.73394 0.86898 0.09276 0.0
H431 H 0.72213 0.87974 0.02863 0.0
C432 C 0.82904 0.819 0.08618 0.0
C433 C 0.81803 0.7934 0.04525 0.0
C434 C 0.82 0.85622 0.09013 0.0
C435 C 0.79964 0.8689 0.05343 0.0
C436 C 0.78937 0.84363 0.01161 0.0
H437 H 0.75987 0.08753 0.98003 0.0
H438 H 0.78903 0.03131 0.99295 0.0
C439 C 0.79829 0.80634 0.00772 0.0
C440 C 0.78897 0.90839 0.05928 0.0
H441 H 0.71987 0.96448 0.07245 0.0
C442 C 0.81349 0.93579 0.05922 0.0
C443 C 0.75476 0.9192 0.06585 0.0
C444 C 0.727 0.89164 0.07002 0.0
C445 C 0.80478 0.97338 0.06386 0.0
C446 C 0.77058 0.98403 0.06785 0.0
C447 C 0.74612 0.95662 0.06933 0.0
C448 C 0.75922 0.02294 0.06775 0.0
C449 C 0.83236 1.00125 0.06501 0.0
C450 C 0.73361 0.03833 0.10655 0.0
C451 C 0.71695 0.07069 0.09907 0.0
C452 C 0.72566 0.08849 0.05288 0.0
C453 C 0.75343 0.07521 0.01707 0.0
C454 C 0.76995 0.04269 0.02422 0.0
H455 H 0.85491 0.99043 0.08061 0.0
H456 H 0.83979 1.00765 0.02311 0.0
H457 H 0.82409 0.02709 0.09059 0.0
H458 H 0.72474 0.02379 0.1405 0.0
H459 H 0.69496 0.07958 0.12635 0.0
H460 H 0.96083 0.72613 0.17334 0.0
H461 H 0.01436 0.75648 0.18695 0.0
H462 H 0.02361 0.78079 0.02118 0.0
H463 H 0.97048 0.75088 0.00723 0.0
H464 H 0.07939 0.742 0.12799 0.0
H465 H 0.03256 0.88176 0.11099 0.0
H466 H 1.00494 0.84418 0.12366 0.0
H467 H 0.02334 0.84854 0.05594 0.0
C468 C 0.97438 0.73779 0.13975 0.0
C469 C 0.96125 0.73641 0.08935 0.0
C470 C 1.00486 0.75517 0.14765 0.0
C471 C 0.02245 0.77161 0.10543 0.0
C472 C 0.00997 0.76907 0.05466 0.0
H473 H 0.20354 0.86572 1.00013 0.0
H474 H 0.14592 0.84654 0.02063 0.0
C475 C 0.97968 0.75172 0.04669 0.0
C476 C 0.05417 0.79107 0.11342 0.0
H477 H 0.09225 0.87307 0.09974 0.0
C478 C 0.08218 0.77083 0.12298 0.0
C479 C 0.05755 0.82871 0.10702 0.0
C480 C 0.02792 0.85219 0.09936 0.0
C481 C 0.11403 0.78669 0.12271 0.0
C482 C 0.11768 0.8239 0.11358 0.0
C483 C 0.08935 0.84458 0.10674 0.0
C484 C 0.15112 0.84043 0.1046 0.0
C485 C 0.14382 0.76297 0.12891 0.0
C486 C 0.1727 0.8449 0.14574 0.0
C487 C 0.20577 0.85599 0.13415 0.0
C488 C 0.21764 0.86258 0.08118 0.0
C489 C 0.19525 0.86043 0.04116 0.0
C490 C 0.16229 0.84954 0.05282 0.0
H491 H 0.13739 0.73346 0.12722 0.0
H492 H 0.16437 0.76626 0.09658 0.0
H493 H 0.15333 0.7716 0.16861 0.0
H494 H 0.16431 0.83861 0.18623 0.0
H495 H 0.22241 0.85757 0.16589 0.0
H496 H 0.83639 0.56092 0.93002 0.0
H497 H 0.8053 0.50383 0.91606 0.0
H498 H 0.74103 0.53702 0.06298 0.0
H499 H 0.77118 0.59466 0.07515 0.0
H500 H 0.8085 0.45495 0.98066 0.0
H501 H 0.67387 0.48437 0.97827 0.0
H502 H 0.70529 0.51884 0.96898 0.0
H503 H 0.68967 0.50936 0.0362 0.0
C504 C 0.8142 0.55702 0.95722 0.0
C505 C 0.8056 0.58268 1.0028 0.0
C506 C 0.79675 0.52403 0.94984 0.0
C507 C 0.77066 0.51568 0.98846 0.0
C508 C 0.76037 0.54276 0.03172 0.0
H509 H 0.7387 0.29596 0.08034 0.0
H510 H 0.755 0.35934 0.07192 0.0
C511 C 0.77751 0.57602 0.03852 0.0
C512 C 0.75825 0.47713 0.98831 0.0
H513 H 0.68783 0.42523 0.00421 0.0
C514 C 0.78205 0.44857 0.98504 0.0
C515 C 0.72378 0.46825 0.99376 0.0
C516 C 0.69673 0.49682 0.99391 0.0
C517 C 0.77255 0.41195 0.98827 0.0
C518 C 0.73814 0.40338 0.9969 0.0
C519 C 0.71423 0.43167 0.99858 0.0
C520 C 0.72665 0.36525 0.00399 0.0
C521 C 0.79966 0.38276 0.98158 0.0
C522 C 0.70406 0.34763 0.97029 0.0
C523 C 0.69424 0.31142 0.97559 0.0
C524 C 0.7068 0.29184 0.01474 0.0
C525 C 0.7288 0.30988 0.04929 0.0
C526 C 0.73834 0.34617 0.04428 0.0
H527 H 0.82281 0.3916 0.95853 0.0
H528 H 0.80618 0.37751 0.02219 0.0
H529 H 0.79129 0.35666 0.96018 0.0
H530 H 0.69446 0.36167 0.9391 0.0
H531 H 0.6772 0.29859 0.9483 0.0
H532 H 0.47109 0.81178 0.03595 0.0
H533 H 0.52435 0.7786 0.02772 0.0
H534 H 0.5275 0.76837 0.85337 0.0
H535 H 0.47382 0.80173 0.86109 0.0
H536 H 0.53409 0.70361 0.96825 0.0
H537 H 0.62228 0.80786 0.89252 0.0
H538 H 0.58189 0.82059 0.92871 0.0
H539 H 0.58448 0.79904 0.86013 0.0
C540 C 0.48321 0.80293 0.99575 0.0
C541 C 0.46813 0.80925 0.94913 0.0
C542 C 0.51361 0.78388 0.99119 0.0
C543 C 0.5297 0.77102 0.94002 0.0
C544 C 0.51545 0.7783 0.89322 0.0
H545 H 0.72815 0.66617 0.89256 0.0
H546 H 0.67307 0.68557 0.87157 0.0
C547 C 0.48485 0.79737 0.89773 0.0
C548 C 0.56065 0.74866 0.93648 0.0
H549 H 0.64557 0.75261 0.91125 0.0
C550 C 0.55848 0.71406 0.95518 0.0
C551 C 0.59225 0.76232 0.91892 0.0
C552 C 0.5957 0.79954 0.89908 0.0
C553 C 0.58732 0.69315 0.95843 0.0
C554 C 0.61911 0.70765 0.94366 0.0
C555 C 0.62115 0.74154 0.92257 0.0
C556 C 0.65058 0.69007 0.95466 0.0
C557 C 0.58346 0.65596 0.97828 0.0
C558 C 0.65594 0.68529 0.00814 0.0
C559 C 0.6873 0.67412 0.02027 0.0
C560 C 0.71402 0.6679 0.97919 0.0
C561 C 0.7081 0.67074 0.92518 0.0
C562 C 0.67667 0.68194 0.91308 0.0
H563 H 0.55892 0.64376 0.96986 0.0
H564 H 0.60377 0.63674 0.95906 0.0
H565 H 0.58449 0.65895 0.02286 0.0
H566 H 0.63639 0.69209 0.04104 0.0
H567 H 0.691 0.67224 0.06227 0.0
H568 H 0.21101 0.47887 0.11726 0.0
H569 H 0.23365 0.54017 0.11183 0.0
H570 H 0.24074 0.5213 0.93708 0.0
H571 H 0.2172 0.46011 0.94226 0.0
H572 H 0.29477 0.55657 0.06707 0.0
H573 H 0.19775 0.62203 0.96534 0.0
H574 H 0.19085 0.57945 0.99407 0.0
H575 H 0.21415 0.57981 0.92862 0.0
C576 C 0.21697 0.48792 0.07763 0.0
C577 C 0.21241 0.46463 0.03015 0.0
C578 C 0.22995 0.52296 0.07462 0.0
C579 C 0.2387 0.53548 0.0241 0.0
C580 C 0.23354 0.51256 0.97655 0.0
H581 H 0.34391 0.72977 0.93284 0.0
H582 H 0.32185 0.66776 0.93493 0.0
C583 C 0.22022 0.47752 0.97955 0.0
C584 C 0.25504 0.5716 0.02156 0.0
H585 H 0.24844 0.65473 0.97432 0.0
C586 C 0.28454 0.57806 0.04696 0.0
C587 C 0.24169 0.59964 0.99528 0.0
C588 C 0.2092 0.59511 0.96973 0.0
C589 C 0.30111 0.61169 0.04655 0.0
C590 C 0.28786 0.63952 0.02007 0.0
C591 C 0.25858 0.6331 0.99429 0.0
C592 C 0.30353 0.67596 0.02002 0.0
C593 C 0.3328 0.61729 0.07406 0.0
C594 C 0.30087 0.7008 0.06744 0.0
C595 C 0.31331 0.7363 0.06645 0.0
C596 C 0.32875 0.74753 0.01796 0.0
C597 C 0.33238 0.72201 0.97096 0.0
C598 C 0.31965 0.68663 0.97193 0.0
H599 H 0.34273 0.5912 0.08508 0.0
H600 H 0.35238 0.62966 0.04732 0.0
H601 H 0.32759 0.63657 0.11171 0.0
H602 H 0.28831 0.69304 0.10486 0.0
H603 H 0.31003 0.75523 0.10334 0.0
H604 H 0.54216 0.17706 0.00707 0.0
H605 H 0.48129 0.18725 0.02539 0.0
H606 H 0.49086 0.29017 0.9583 0.0
H607 H 0.5513 0.28031 0.9399 0.0
H608 H 0.44605 0.24921 0.09083 0.0
H609 H 0.41677 0.23652 0.87703 0.0
H610 H 0.45541 0.21936 0.89657 0.0
H611 H 0.45021 0.26744 0.8916 0.0
C612 C 0.53128 0.20173 0.99583 0.0
C613 C 0.55177 0.22778 0.97178 0.0
C614 C 0.49646 0.20758 0.00652 0.0
C615 C 0.48134 0.23933 0.99276 0.0
C616 C 0.50175 0.2652 0.96858 0.0
H617 H 0.28729 0.3433 0.00899 0.0
H618 H 0.34605 0.32425 0.99565 0.0
C619 C 0.53645 0.25953 0.95823 0.0
C620 C 0.44443 0.24619 0.00452 0.0
H621 H 0.37399 0.26205 0.94375 0.0
C622 C 0.43016 0.25162 0.0587 0.0
C623 C 0.42367 0.24945 0.96267 0.0
C624 C 0.43714 0.24258 0.90365 0.0
C625 C 0.39611 0.26167 0.07218 0.0
C626 C 0.37544 0.26562 0.03028 0.0
C627 C 0.38965 0.25925 0.97605 0.0
C628 C 0.33944 0.27773 0.04134 0.0
C629 C 0.38301 0.26947 0.13127 0.0
C630 C 0.31571 0.25813 0.07178 0.0
C631 C 0.28182 0.26923 0.07997 0.0
C632 C 0.27076 0.29993 0.0573 0.0
C633 C 0.29467 0.31952 0.02711 0.0
C634 C 0.32844 0.30858 0.01929 0.0
H635 H 0.40364 0.27479 0.15758 0.0
H636 H 0.36565 0.29351 0.13819 0.0
H637 H 0.36909 0.24531 0.14401 0.0
H638 H 0.3232 0.23374 0.08826 0.0
H639 H 0.26418 0.25321 0.10295 0.0
loop_
_geom_bond_atom_site_label_1
_geom_bond_atom_site_label_2
_geom_bond_distance
_geom_bond_site_symmetry_2
_ccdc_geom_bond_type
Zn0 N4 2.020 . S
Zn0 O8 2.019 . S
Zn0 N10 2.119 . S
Zn0 O18 1.975 . S
C1 N2 1.334 . S
C1 N5 1.336 . S
N2 C1 1.334 . S
N2 C3 1.334 . S
C3 N2 1.334 . S
C3 N4 1.336 . S
N4 Zn0 2.020 . S
N4 C3 1.336 . S
N4 N5 1.354 . S
N5 C1 1.336 . S
N5 N4 1.354 . S
N5 Zn9 2.020 . S
C6 O7 1.244 . S
C6 O30 1.257 . S
O7 C6 1.244 . S
O8 Zn0 2.019 . S
O8 C28 1.257 . S
Zn9 N5 2.020 . S
Zn9 O16 1.975 . S
Zn9 N25 2.119 1_554 S
Zn9 O30 2.019 . S
N10 Zn0 2.119 . S
N10 C12 1.334 . S
N10 C13 1.328 . S
C11 C12 1.391 . S
C11 N14 1.329 . S
C11 H32 0.930 . S
C12 N10 1.334 . S
C12 C11 1.391 . S
C12 H19 0.930 . S
C13 N10 1.328 . S
C13 C15 1.392 . S
C13 H20 0.930 . S
N14 C11 1.329 . S
N14 C15 1.331 . S
C15 C13 1.392 . S
C15 N14 1.331 . S
O16 Zn9 1.975 . S
O16 C17 1.252 . S
C17 O16 1.252 . S
C17 O18 1.252 . S
O18 Zn0 1.975 . S
O18 C17 1.252 . S
H19 C12 0.930 . S
H20 C13 0.930 . S
C21 C22 1.392 . S
C21 N25 1.328 . S
C21 H27 0.930 . S
C22 C21 1.392 . S
C22 N26 1.331 . S
C23 C24 1.391 . S
C23 N26 1.329 . S
C23 H33 0.930 . S
C24 C23 1.391 . S
C24 N25 1.334 . S
C24 H31 0.930 . S
N25 Zn9 2.119 1_556 S
N25 C21 1.328 . S
N25 C24 1.334 . S
N26 C22 1.331 . S
N26 C23 1.329 . S
H27 C21 0.930 . S
C28 O8 1.257 . S
C28 O29 1.244 . S
O29 C28 1.244 . S
O30 C6 1.257 . S
O30 Zn9 2.019 . S
H31 C24 0.930 . S
H32 C11 0.930 . S
H33 C23 0.930 . S
Zn34 N38 2.020 . S
Zn34 O42 2.019 . S
Zn34 N44 2.119 . S
Zn34 O52 1.975 . S
C35 N36 1.334 1_556 S
C35 N39 1.337 . S
N36 C35 1.334 1_554 S
N36 C37 1.334 . S
C37 N36 1.334 . S
C37 N38 1.336 . S
N38 Zn34 2.020 . S
N38 C37 1.336 . S
N38 N39 1.346 1_554 S
N39 C35 1.337 . S
N39 N38 1.346 1_556 S
N39 Zn43 2.026 . S
C40 O41 1.244 1_556 S
C40 O64 1.257 . S
O41 C40 1.244 1_554 S
O42 Zn34 2.019 . S
O42 C62 1.257 . S
Zn43 N39 2.026 . S
Zn43 O50 1.975 1_556 S
Zn43 N59 2.119 . S
Zn43 O64 2.019 . S
N44 Zn34 2.119 . S
N44 C46 1.334 . S
N44 C47 1.328 . S
C45 C46 1.391 . S
C45 N48 1.329 . S
C45 H66 0.930 . S
C46 N44 1.334 . S
C46 C45 1.391 . S
C46 H53 0.930 . S
C47 N44 1.328 . S
C47 C49 1.392 . S
C47 H54 0.930 . S
N48 C45 1.329 . S
N48 C49 1.331 . S
C49 C47 1.392 . S
C49 N48 1.331 . S
O50 Zn43 1.975 1_554 S
O50 C51 1.252 . S
C51 O50 1.252 . S
C51 O52 1.252 . S
O52 Zn34 1.975 . S
O52 C51 1.252 . S
H53 C46 0.930 . S
H54 C47 0.930 . S
C55 C56 1.392 . S
C55 N59 1.328 . S
C55 H61 0.930 . S
C56 C55 1.392 . S
C56 N60 1.331 . S
C57 C58 1.391 . S
C57 N60 1.329 . S
C57 H67 0.930 . S
C58 C57 1.391 . S
C58 N59 1.334 . S
C58 H65 0.930 . S
N59 Zn43 2.119 . S
N59 C55 1.328 . S
N59 C58 1.334 . S
N60 C56 1.331 . S
N60 C57 1.329 . S
H61 C55 0.930 . S
C62 O42 1.257 . S
C62 O63 1.244 1_554 S
O63 C62 1.244 1_556 S
O64 C40 1.257 . S
O64 Zn43 2.019 . S
H65 C58 0.930 . S
H66 C45 0.930 . S
H67 C57 0.930 . S
Zn68 N72 2.020 . S
Zn68 O76 2.019 . S
Zn68 N78 2.119 . S
Zn68 O86 1.975 . S
C69 N70 1.334 . S
C69 N73 1.336 . S
N70 C69 1.334 . S
N70 C71 1.334 . S
C71 N70 1.334 . S
C71 N72 1.336 . S
N72 Zn68 2.020 . S
N72 C71 1.336 . S
N72 N73 1.354 . S
N73 C69 1.336 . S
N73 N72 1.354 . S
N73 Zn77 2.020 1_554 S
C74 O75 1.244 . S
C74 O98 1.257 1_554 S
O75 C74 1.244 . S
O76 Zn68 2.019 . S
O76 C96 1.257 . S
Zn77 N73 2.020 1_556 S
Zn77 O84 1.975 1_556 S
Zn77 N93 2.119 . S
Zn77 O98 2.019 . S
N78 Zn68 2.119 . S
N78 C80 1.334 . S
N78 C81 1.328 . S
C79 C80 1.391 . S
C79 N82 1.329 . S
C79 H100 0.930 . S
C80 N78 1.334 . S
C80 C79 1.391 . S
C80 H87 0.930 . S
C81 N78 1.328 . S
C81 C83 1.392 . S
C81 H88 0.930 . S
N82 C79 1.329 . S
N82 C83 1.331 . S
C83 C81 1.392 . S
C83 N82 1.331 . S
O84 Zn77 1.975 1_554 S
O84 C85 1.252 . S
C85 O84 1.252 . S
C85 O86 1.252 . S
O86 Zn68 1.975 . S
O86 C85 1.252 . S
H87 C80 0.930 . S
H88 C81 0.930 . S
C89 C90 1.392 . S
C89 N93 1.328 . S
C89 H95 0.930 . S
C90 C89 1.392 . S
C90 N94 1.331 . S
C91 C92 1.391 . S
C91 N94 1.329 . S
C91 H101 0.930 . S
C92 C91 1.391 . S
C92 N93 1.334 . S
C92 H99 0.930 . S
N93 Zn77 2.119 . S
N93 C89 1.328 . S
N93 C92 1.334 . S
N94 C90 1.331 . S
N94 C91 1.329 . S
H95 C89 0.930 . S
C96 O76 1.257 . S
C96 O97 1.244 . S
O97 C96 1.244 . S
O98 C74 1.257 1_556 S
O98 Zn77 2.019 . S
H99 C92 0.930 . S
H100 C79 0.930 . S
H101 C91 0.930 . S
Zn102 N106 2.020 . S
Zn102 O110 2.019 . S
Zn102 N112 2.119 . S
Zn102 O120 1.975 . S
C103 N104 1.334 . S
C103 N107 1.336 . S
N104 C103 1.334 . S
N104 C105 1.334 1_554 S
C105 N104 1.334 1_556 S
C105 N106 1.336 . S
N106 Zn102 2.020 . S
N106 C105 1.336 . S
N106 N107 1.354 1_556 S
N107 C103 1.336 . S
N107 N106 1.354 1_554 S
N107 Zn111 2.020 . S
C108 O109 1.244 1_554 S
C108 O132 1.257 . S
O109 C108 1.244 1_556 S
O110 Zn102 2.019 . S
O110 C130 1.257 . S
Zn111 N107 2.020 . S
Zn111 O118 1.975 . S
Zn111 N127 2.119 . S
Zn111 O132 2.019 . S
N112 Zn102 2.119 . S
N112 C114 1.334 . S
N112 C115 1.328 . S
C113 C114 1.391 . S
C113 N116 1.329 . S
C113 H134 0.930 . S
C114 N112 1.334 . S
C114 C113 1.391 . S
C114 H121 0.930 . S
C115 N112 1.328 . S
C115 C117 1.392 . S
C115 H122 0.930 . S
N116 C113 1.329 . S
N116 C117 1.331 . S
C117 C115 1.392 . S
C117 N116 1.331 . S
O118 Zn111 1.975 . S
O118 C119 1.251 1_554 S
C119 O118 1.251 1_556 S
C119 O120 1.254 . S
O120 Zn102 1.975 . S
O120 C119 1.254 . S
H121 C114 0.930 . S
H122 C115 0.930 . S
C123 C124 1.392 . S
C123 N127 1.328 . S
C123 H129 0.930 . S
C124 C123 1.392 . S
C124 N128 1.331 . S
C125 C126 1.391 . S
C125 N128 1.329 . S
C125 H135 0.930 . S
C126 C125 1.391 . S
C126 N127 1.334 . S
C126 H133 0.930 . S
N127 Zn111 2.119 . S
N127 C123 1.328 . S
N127 C126 1.334 . S
N128 C124 1.331 . S
N128 C125 1.329 . S
H129 C123 0.930 . S
C130 O110 1.257 . S
C130 O131 1.244 1_556 S
O131 C130 1.244 1_554 S
O132 C108 1.257 . S
O132 Zn111 2.019 . S
H133 C126 0.930 . S
H134 C113 0.930 . S
H135 C125 0.930 . S
H136 C144 0.926 1_556 S
H137 C146 0.930 . S
H138 C148 0.930 . S
H139 C151 0.929 . S
H140 C154 0.930 . S
H141 C156 0.960 . S
H142 C156 0.960 . S
H143 C156 0.960 1_554 S
C144 H136 0.926 1_554 S
C144 C145 1.377 . S
C144 C146 1.384 . S
C145 C144 1.377 . S
C145 C151 1.390 . S
C146 H137 0.930 . S
C146 C144 1.384 . S
C146 C147 1.372 . S
C147 C146 1.372 . S
C147 C148 1.400 . S
C147 C152 1.490 . S
C148 H138 0.930 . S
C148 C147 1.400 . S
C148 C151 1.386 . S
H149 C165 0.930 . S
H150 C166 0.931 . S
C151 H139 0.929 . S
C151 C145 1.390 . S
C151 C148 1.386 . S
C152 C147 1.490 . S
C152 C154 1.395 1_455 S
C152 C155 1.403 . S
H153 C159 0.930 . S
C154 H140 0.930 . S
C154 C152 1.395 1_655 S
C154 C157 1.403 . S
C155 C152 1.403 . S
C155 C156 1.524 1_554 S
C155 C159 1.400 1_455 S
C156 H141 0.960 . S
C156 H142 0.960 . S
C156 H143 0.960 1_556 S
C156 C155 1.524 1_556 S
C157 C154 1.403 . S
C157 C158 1.392 . S
C157 C161 1.495 . S
C158 C157 1.392 . S
C158 C159 1.385 . S
C158 C160 1.478 . S
C159 H153 0.930 . S
C159 C155 1.400 1_655 S
C159 C158 1.385 . S
C160 C158 1.478 . S
C160 C162 1.381 . S
C160 C166 1.383 . S
C161 C157 1.495 . S
C161 H167 0.959 . S
C161 H168 0.961 . S
C161 H169 0.960 . S
C162 C160 1.381 . S
C162 C163 1.394 . S
C162 H170 0.930 . S
C163 C162 1.394 . S
C163 C164 1.383 . S
C163 H171 0.929 . S
C164 C163 1.383 . S
C164 C165 1.377 . S
C165 H149 0.930 . S
C165 C164 1.377 . S
C165 C166 1.379 . S
C166 H150 0.931 . S
C166 C160 1.383 . S
C166 C165 1.379 . S
H167 C161 0.959 . S
H168 C161 0.961 . S
H169 C161 0.960 . S
H170 C162 0.930 . S
H171 C163 0.929 . S
H172 C180 0.929 . S
H173 C182 0.930 . S
H174 C184 0.930 . S
H175 C187 0.929 . S
H176 C190 0.930 . S
H177 C192 0.960 . S
H178 C192 0.960 . S
H179 C192 0.960 1_556 S
C180 H172 0.929 . S
C180 C181 1.377 1_554 S
C180 C182 1.384 . S
C181 C180 1.377 1_556 S
C181 C187 1.390 . S
C182 H173 0.930 . S
C182 C180 1.384 . S
C182 C183 1.372 1_554 S
C183 C182 1.372 1_556 S
C183 C184 1.400 . S
C183 C188 1.490 . S
C184 H174 0.930 . S
C184 C183 1.400 . S
C184 C187 1.386 . S
H185 C201 0.930 . S
H186 C202 0.931 . S
C187 H175 0.929 . S
C187 C181 1.390 . S
C187 C184 1.386 . S
C188 C183 1.490 . S
C188 C190 1.395 . S
C188 C191 1.403 1_545 S
H189 C195 0.930 . S
C190 H176 0.930 . S
C190 C188 1.395 . S
C190 C193 1.403 . S
C191 C188 1.403 1_565 S
C191 C192 1.524 1_556 S
C191 C195 1.400 . S
C192 H177 0.960 . S
C192 H178 0.960 . S
C192 H179 0.960 1_554 S
C192 C191 1.524 1_554 S
C193 C190 1.403 . S
C193 C194 1.392 1_545 S
C193 C197 1.495 . S
C194 C193 1.392 1_565 S
C194 C195 1.385 . S
C194 C196 1.478 . S
C195 H189 0.930 . S
C195 C191 1.400 . S
C195 C194 1.385 . S
C196 C194 1.478 . S
C196 C198 1.381 1_556 S
C196 C202 1.383 . S
C197 C193 1.495 . S
C197 H203 0.959 . S
C197 H204 0.961 . S
C197 H205 0.960 . S
C198 C196 1.381 1_554 S
C198 C199 1.394 . S
C198 H206 0.930 . S
C199 C198 1.394 . S
C199 C200 1.383 1_554 S
C199 H207 0.929 . S
C200 C199 1.383 1_556 S
C200 C201 1.377 . S
C201 H185 0.930 . S
C201 C200 1.377 . S
C201 C202 1.379 . S
C202 H186 0.931 . S
C202 C196 1.383 . S
C202 C201 1.379 . S
H203 C197 0.959 . S
H204 C197 0.961 . S
H205 C197 0.960 . S
H206 C198 0.930 . S
H207 C199 0.929 . S
H208 C216 0.929 . S
H209 C218 0.930 . S
H210 C220 0.930 . S
H211 C223 0.929 . S
H212 C226 0.930 . S
H213 C228 0.960 . S
H214 C228 0.960 . S
H215 C228 0.960 . S
C216 H208 0.929 . S
C216 C217 1.377 . S
C216 C218 1.384 . S
C217 C216 1.377 . S
C217 C223 1.390 . S
C218 H209 0.930 . S
C218 C216 1.384 . S
C218 C219 1.372 . S
C219 C218 1.372 . S
C219 C220 1.400 . S
C219 C224 1.490 . S
C220 H210 0.930 . S
C220 C219 1.400 . S
C220 C223 1.386 . S
H221 C237 0.930 . S
H222 C238 0.931 . S
C223 H211 0.929 . S
C223 C217 1.390 . S
C223 C220 1.386 . S
C224 C219 1.490 . S
C224 C226 1.395 . S
C224 C227 1.403 . S
H225 C231 0.930 . S
C226 H212 0.930 . S
C226 C224 1.395 . S
C226 C229 1.403 . S
C227 C224 1.403 . S
C227 C228 1.524 . S
C227 C231 1.400 . S
C228 H213 0.960 . S
C228 H214 0.960 . S
C228 H215 0.960 . S
C228 C227 1.524 . S
C229 C226 1.403 . S
C229 C230 1.392 . S
C229 C233 1.495 . S
C230 C229 1.392 . S
C230 C231 1.385 . S
C230 C232 1.478 . S
C231 H225 0.930 . S
C231 C227 1.400 . S
C231 C230 1.385 . S
C232 C230 1.478 . S
C232 C234 1.381 . S
C232 C238 1.383 . S
C233 C229 1.495 . S
C233 H239 0.959 . S
C233 H240 0.961 . S
C233 H241 0.960 . S
C234 C232 1.381 . S
C234 C235 1.394 . S
C234 H242 0.930 . S
C235 C234 1.394 . S
C235 C236 1.383 . S
C235 H243 0.929 . S
C236 C235 1.383 . S
C236 C237 1.377 . S
C237 H221 0.930 . S
C237 C236 1.377 . S
C237 C238 1.379 . S
C238 H222 0.931 . S
C238 C232 1.383 . S
C238 C237 1.379 . S
H239 C233 0.959 . S
H240 C233 0.961 . S
H241 C233 0.960 . S
H242 C234 0.930 . S
H243 C235 0.929 . S
H244 C252 0.929 . S
H245 C254 0.930 . S
H246 C256 0.930 . S
H247 C259 0.929 . S
H248 C262 0.930 . S
H249 C264 0.960 . S
H250 C264 0.960 . S
H251 C264 0.960 . S
C252 H244 0.929 . S
C252 C253 1.377 . S
C252 C254 1.384 . S
C253 C252 1.377 . S
C253 C259 1.390 . S
C254 H245 0.930 . S
C254 C252 1.384 . S
C254 C255 1.372 . S
C255 C254 1.372 . S
C255 C256 1.400 . S
C255 C260 1.490 . S
C256 H246 0.930 . S
C256 C255 1.400 . S
C256 C259 1.386 . S
H257 C273 0.930 . S
H258 C274 0.931 . S
C259 H247 0.929 . S
C259 C253 1.390 . S
C259 C256 1.386 . S
C260 C255 1.490 . S
C260 C262 1.395 . S
C260 C263 1.403 . S
H261 C267 0.930 . S
C262 H248 0.930 . S
C262 C260 1.395 . S
C262 C265 1.403 . S
C263 C260 1.403 . S
C263 C264 1.524 . S
C263 C267 1.400 . S
C264 H249 0.960 . S
C264 H250 0.960 . S
C264 H251 0.960 . S
C264 C263 1.524 . S
C265 C262 1.403 . S
C265 C266 1.392 . S
C265 C269 1.495 . S
C266 C265 1.392 . S
C266 C267 1.385 . S
C266 C268 1.478 . S
C267 H261 0.930 . S
C267 C263 1.400 . S
C267 C266 1.385 . S
C268 C266 1.478 . S
C268 C270 1.381 . S
C268 C274 1.383 . S
C269 C265 1.495 . S
C269 H275 0.959 . S
C269 H276 0.961 . S
C269 H277 0.960 . S
C270 C268 1.381 . S
C270 C271 1.394 . S
C270 H278 0.930 . S
C271 C270 1.394 . S
C271 C272 1.383 . S
C271 H279 0.929 . S
C272 C271 1.383 . S
C272 C273 1.377 . S
C273 H257 0.930 . S
C273 C272 1.377 . S
C273 C274 1.379 . S
C274 H258 0.931 . S
C274 C268 1.383 . S
C274 C273 1.379 . S
H275 C269 0.959 . S
H276 C269 0.961 . S
H277 C269 0.960 . S
H278 C270 0.930 . S
H279 C271 0.929 . S
H280 C288 0.929 . S
H281 C290 0.930 . S
H282 C292 0.930 . S
H283 C295 0.929 . S
H284 C298 0.930 . S
H285 C300 0.960 . S
H286 C300 0.960 . S
H287 C300 0.960 . S
C288 H280 0.929 . S
C288 C289 1.377 . S
C288 C290 1.384 . S
C289 C288 1.377 . S
C289 C295 1.390 . S
C290 H281 0.930 . S
C290 C288 1.384 . S
C290 C291 1.372 . S
C291 C290 1.372 . S
C291 C292 1.400 . S
C291 C296 1.490 . S
C292 H282 0.930 . S
C292 C291 1.400 . S
C292 C295 1.386 . S
H293 C309 0.930 . S
H294 C310 0.931 . S
C295 H283 0.929 . S
C295 C289 1.390 . S
C295 C292 1.386 . S
C296 C291 1.490 . S
C296 C298 1.395 . S
C296 C299 1.403 . S
H297 C303 0.930 . S
C298 H284 0.930 . S
C298 C296 1.395 . S
C298 C301 1.403 . S
C299 C296 1.403 . S
C299 C300 1.524 . S
C299 C303 1.400 . S
C300 H285 0.960 . S
C300 H286 0.960 . S
C300 H287 0.960 . S
C300 C299 1.524 . S
C301 C298 1.403 . S
C301 C302 1.392 . S
C301 C305 1.495 . S
C302 C301 1.392 . S
C302 C303 1.385 . S
C302 C304 1.478 . S
C303 H297 0.930 . S
C303 C299 1.400 . S
C303 C302 1.385 . S
C304 C302 1.478 . S
C304 C306 1.381 . S
C304 C310 1.383 . S
C305 C301 1.495 . S
C305 H311 0.959 . S
C305 H312 0.961 . S
C305 H313 0.960 . S
C306 C304 1.381 . S
C306 C307 1.394 . S
C306 H314 0.930 . S
C307 C306 1.394 . S
C307 C308 1.383 . S
C307 H315 0.929 . S
C308 C307 1.383 . S
C308 C309 1.377 . S
C309 H293 0.930 . S
C309 C308 1.377 . S
C309 C310 1.379 . S
C310 H294 0.931 . S
C310 C304 1.383 . S
C310 C309 1.379 . S
H311 C305 0.959 . S
H312 C305 0.961 . S
H313 C305 0.960 . S
H314 C306 0.930 . S
H315 C307 0.929 . S
H316 C324 0.929 . S
H317 C326 0.930 . S
H318 C328 0.930 . S
H319 C331 0.929 . S
H320 C334 0.930 . S
H321 C336 0.960 . S
H322 C336 0.960 . S
H323 C336 0.960 . S
C324 H316 0.929 . S
C324 C325 1.377 . S
C324 C326 1.384 . S
C325 C324 1.377 . S
C325 C331 1.390 . S
C326 H317 0.930 . S
C326 C324 1.384 . S
C326 C327 1.372 . S
C327 C326 1.372 . S
C327 C328 1.400 . S
C327 C332 1.490 . S
C328 H318 0.930 . S
C328 C327 1.400 . S
C328 C331 1.386 . S
H329 C345 0.930 . S
H330 C346 0.931 . S
C331 H319 0.929 . S
C331 C325 1.390 . S
C331 C328 1.386 . S
C332 C327 1.490 . S
C332 C334 1.395 . S
C332 C335 1.403 . S
H333 C339 0.930 . S
C334 H320 0.930 . S
C334 C332 1.395 . S
C334 C337 1.403 . S
C335 C332 1.403 . S
C335 C336 1.524 . S
C335 C339 1.400 . S
C336 H321 0.960 . S
C336 H322 0.960 . S
C336 H323 0.960 . S
C336 C335 1.524 . S
C337 C334 1.403 . S
C337 C338 1.392 . S
C337 C341 1.495 . S
C338 C337 1.392 . S
C338 C339 1.385 . S
C338 C340 1.478 . S
C339 H333 0.930 . S
C339 C335 1.400 . S
C339 C338 1.385 . S
C340 C338 1.478 . S
C340 C342 1.381 . S
C340 C346 1.383 . S
C341 C337 1.495 . S
C341 H347 0.959 . S
C341 H348 0.961 . S
C341 H349 0.960 . S
C342 C340 1.381 . S
C342 C343 1.394 . S
C342 H350 0.930 . S
C343 C342 1.394 . S
C343 C344 1.383 . S
C343 H351 0.929 . S
C344 C343 1.383 . S
C344 C345 1.377 . S
C345 H329 0.930 . S
C345 C344 1.377 . S
C345 C346 1.379 . S
C346 H330 0.931 . S
C346 C340 1.383 . S
C346 C345 1.379 . S
H347 C341 0.959 . S
H348 C341 0.961 . S
H349 C341 0.960 . S
H350 C342 0.930 . S
H351 C343 0.929 . S
H352 C360 0.929 . S
H353 C362 0.930 . S
H354 C364 0.930 . S
H355 C367 0.929 . S
H356 C370 0.930 . S
H357 C372 0.960 . S
H358 C372 0.960 . S
H359 C372 0.960 . S
C360 H352 0.929 . S
C360 C361 1.377 . S
C360 C362 1.384 . S
C361 C360 1.377 . S
C361 C367 1.390 . S
C362 H353 0.930 . S
C362 C360 1.384 . S
C362 C363 1.372 . S
C363 C362 1.372 . S
C363 C364 1.400 . S
C363 C368 1.490 . S
C364 H354 0.930 . S
C364 C363 1.400 . S
C364 C367 1.386 . S
H365 C381 0.930 1_556 S
H366 C382 0.931 1_556 S
C367 H355 0.929 . S
C367 C361 1.390 . S
C367 C364 1.386 . S
C368 C363 1.490 . S
C368 C370 1.395 . S
C368 C371 1.403 . S
H369 C375 0.930 . S
C370 H356 0.930 . S
C370 C368 1.395 . S
C370 C373 1.403 . S
C371 C368 1.403 . S
C371 C372 1.524 . S
C371 C375 1.400 . S
C372 H357 0.960 . S
C372 H358 0.960 . S
C372 H359 0.960 . S
C372 C371 1.524 . S
C373 C370 1.403 . S
C373 C374 1.392 1_545 S
C373 C377 1.495 1_545 S
C374 C373 1.392 1_565 S
C374 C375 1.382 1_565 S
C374 C376 1.481 . S
C375 H369 0.930 . S
C375 C371 1.400 . S
C375 C374 1.382 1_545 S
C376 C374 1.481 . S
C376 C378 1.381 . S
C376 C382 1.383 . S
C377 C373 1.495 1_565 S
C377 H383 0.959 . S
C377 H384 0.961 . S
C377 H385 0.960 . S
C378 C376 1.381 . S
C378 C379 1.394 . S
C378 H386 0.930 . S
C379 C378 1.394 . S
C379 C380 1.383 . S
C379 H387 0.929 . S
C380 C379 1.383 . S
C380 C381 1.377 . S
C381 H365 0.930 1_554 S
C381 C380 1.377 . S
C381 C382 1.379 . S
C382 H366 0.931 1_554 S
C382 C376 1.383 . S
C382 C381 1.379 . S
H383 C377 0.959 . S
H384 C377 0.961 . S
H385 C377 0.960 . S
H386 C378 0.930 . S
H387 C379 0.929 . S
H388 C396 0.929 . S
H389 C398 0.930 . S
H390 C400 0.930 . S
H391 C403 0.929 . S
H392 C406 0.930 . S
H393 C408 0.960 . S
H394 C408 0.960 . S
H395 C408 0.960 . S
C396 H388 0.929 . S
C396 C397 1.377 . S
C396 C398 1.384 . S
C397 C396 1.377 . S
C397 C403 1.390 . S
C398 H389 0.930 . S
C398 C396 1.384 . S
C398 C399 1.372 . S
C399 C398 1.372 . S
C399 C400 1.400 . S
C399 C404 1.490 1_455 S
C400 H390 0.930 . S
C400 C399 1.400 . S
C400 C403 1.386 . S
H401 C417 0.930 . S
H402 C418 0.931 . S
C403 H391 0.929 . S
C403 C397 1.390 . S
C403 C400 1.386 . S
C404 C399 1.490 1_655 S
C404 C406 1.395 . S
C404 C407 1.403 . S
H405 C411 0.930 . S
C406 H392 0.930 . S
C406 C404 1.395 . S
C406 C409 1.403 . S
C407 C404 1.403 . S
C407 C408 1.524 . S
C407 C411 1.400 . S
C408 H393 0.960 . S
C408 H394 0.960 . S
C408 H395 0.960 . S
C408 C407 1.524 . S
C409 C406 1.403 . S
C409 C410 1.392 . S
C409 C413 1.495 1_554 S
C410 C409 1.392 . S
C410 C411 1.385 . S
C410 C412 1.478 . S
C411 H405 0.930 . S
C411 C407 1.400 . S
C411 C410 1.385 . S
C412 C410 1.478 . S
C412 C414 1.381 1_554 S
C412 C418 1.383 . S
C413 C409 1.495 1_556 S
C413 H419 0.959 . S
C413 H420 0.961 1_556 S
C413 H421 0.960 . S
C414 C412 1.381 1_556 S
C414 C415 1.394 . S
C414 H422 0.930 . S
C415 C414 1.394 . S
C415 C416 1.383 1_556 S
C415 H423 0.929 . S
C416 C415 1.383 1_554 S
C416 C417 1.377 . S
C417 H401 0.930 . S
C417 C416 1.377 . S
C417 C418 1.379 . S
C418 H402 0.931 . S
C418 C412 1.383 . S
C418 C417 1.379 . S
H419 C413 0.959 . S
H420 C413 0.961 1_554 S
H421 C413 0.960 . S
H422 C414 0.930 . S
H423 C415 0.929 . S
H424 C432 0.929 . S
H425 C434 0.930 . S
H426 C436 0.930 . S
H427 C439 0.929 . S
H428 C442 0.930 . S
H429 C444 0.960 . S
H430 C444 0.960 . S
H431 C444 0.960 1_556 S
C432 H424 0.929 . S
C432 C433 1.377 . S
C432 C434 1.384 . S
C433 C432 1.377 . S
C433 C439 1.390 1_554 S
C434 H425 0.930 . S
C434 C432 1.384 . S
C434 C435 1.372 . S
C435 C434 1.372 . S
C435 C436 1.400 1_554 S
C435 C440 1.490 . S
C436 H426 0.930 . S
C436 C435 1.400 1_556 S
C436 C439 1.386 . S
H437 C453 0.930 . S
H438 C454 0.931 . S
C439 H427 0.929 . S
C439 C433 1.390 1_556 S
C439 C436 1.386 . S
C440 C435 1.490 . S
C440 C442 1.395 . S
C440 C443 1.403 . S
H441 C447 0.930 . S
C442 H428 0.930 . S
C442 C440 1.395 . S
C442 C445 1.403 . S
C443 C440 1.403 . S
C443 C444 1.524 . S
C443 C447 1.400 . S
C444 H429 0.960 . S
C444 H430 0.960 . S
C444 H431 0.960 1_554 S
C444 C443 1.524 . S
C445 C442 1.403 . S
C445 C446 1.392 . S
C445 C449 1.501 . S
C446 C445 1.392 . S
C446 C447 1.385 . S
C446 C448 1.478 1_565 S
C447 H441 0.930 . S
C447 C443 1.400 . S
C447 C446 1.385 . S
C448 C446 1.478 1_545 S
C448 C450 1.381 . S
C448 C454 1.383 1_554 S
C449 C445 1.501 . S
C449 H455 0.963 . S
C449 H456 0.956 1_565 S
C449 H457 0.956 1_565 S
C450 C448 1.381 . S
C450 C451 1.394 . S
C450 H458 0.930 . S
C451 C450 1.394 . S
C451 C452 1.383 . S
C451 H459 0.929 . S
C452 C451 1.383 . S
C452 C453 1.377 1_554 S
C453 H437 0.930 . S
C453 C452 1.377 1_556 S
C453 C454 1.379 . S
C454 H438 0.931 . S
C454 C448 1.383 1_556 S
C454 C453 1.379 . S
H455 C449 0.963 . S
H456 C449 0.956 1_545 S
H457 C449 0.956 1_545 S
H458 C450 0.930 . S
H459 C451 0.929 . S
H460 C468 0.929 . S
H461 C470 0.930 . S
H462 C472 0.930 1_456 S
H463 C475 0.929 1_556 S
H464 C478 0.930 . S
H465 C480 0.965 . S
H466 C480 0.954 1_554 S
H467 C480 0.968 . S
C468 H460 0.929 . S
C468 C469 1.377 . S
C468 C470 1.384 . S
C469 C468 1.377 . S
C469 C475 1.390 . S
C470 H461 0.930 . S
C470 C468 1.384 . S
C470 C471 1.372 1_655 S
C471 C470 1.372 1_455 S
C471 C472 1.400 1_455 S
C471 C476 1.490 . S
C472 H462 0.930 1_654 S
C472 C471 1.400 1_655 S
C472 C475 1.386 . S
H473 C489 0.930 . S
H474 C490 0.931 1_556 S
C475 H463 0.929 1_554 S
C475 C469 1.390 . S
C475 C472 1.386 . S
C476 C471 1.490 . S
C476 C478 1.395 . S
C476 C479 1.403 . S
H477 C483 0.930 . S
C478 H464 0.930 . S
C478 C476 1.395 . S
C478 C481 1.403 . S
C479 C476 1.403 . S
C479 C480 1.518 1_554 S
C479 C483 1.400 . S
C480 H465 0.965 . S
C480 H466 0.954 1_556 S
C480 H467 0.968 . S
C480 C479 1.518 1_556 S
C481 C478 1.403 . S
C481 C482 1.392 . S
C481 C485 1.495 . S
C482 C481 1.392 . S
C482 C483 1.385 . S
C482 C484 1.478 . S
C483 H477 0.930 . S
C483 C479 1.400 . S
C483 C482 1.385 . S
C484 C482 1.478 . S
C484 C486 1.381 . S
C484 C490 1.383 . S
C485 C481 1.495 . S
C485 H491 0.959 . S
C485 H492 0.961 . S
C485 H493 0.960 . S
C486 C484 1.381 . S
C486 C487 1.394 . S
C486 H494 0.930 . S
C487 C486 1.394 . S
C487 C488 1.383 . S
C487 H495 0.929 . S
C488 C487 1.383 . S
C488 C489 1.377 1_554 S
C489 H473 0.930 . S
C489 C488 1.377 1_556 S
C489 C490 1.379 1_556 S
C490 H474 0.931 1_554 S
C490 C484 1.383 . S
C490 C489 1.379 1_554 S
H491 C485 0.959 . S
H492 C485 0.961 . S
H493 C485 0.960 . S
H494 C486 0.930 . S
H495 C487 0.929 . S
H496 C504 0.929 . S
H497 C506 0.930 . S
H498 C508 0.930 . S
H499 C511 0.929 . S
H500 C514 0.930 . S
H501 C516 0.960 . S
H502 C516 0.960 . S
H503 C516 0.960 . S
C504 H496 0.929 . S
C504 C505 1.377 . S
C504 C506 1.384 . S
C505 C504 1.377 . S
C505 C511 1.390 1_556 S
C506 H497 0.930 . S
C506 C504 1.384 . S
C506 C507 1.372 . S
C507 C506 1.372 . S
C507 C508 1.400 1_556 S
C507 C512 1.490 . S
C508 H498 0.930 . S
C508 C507 1.400 1_554 S
C508 C511 1.386 . S
H509 C525 0.930 . S
H510 C526 0.931 . S
C511 H499 0.929 . S
C511 C505 1.390 1_554 S
C511 C508 1.386 . S
C512 C507 1.490 . S
C512 C514 1.395 . S
C512 C515 1.403 1_556 S
H513 C519 0.930 . S
C514 H500 0.930 . S
C514 C512 1.395 . S
C514 C517 1.403 . S
C515 C512 1.403 1_554 S
C515 C516 1.524 . S
C515 C519 1.400 . S
C516 H501 0.960 . S
C516 H502 0.960 . S
C516 H503 0.960 . S
C516 C515 1.524 . S
C517 C514 1.403 . S
C517 C518 1.392 . S
C517 C521 1.495 . S
C518 C517 1.392 . S
C518 C519 1.385 1_556 S
C518 C520 1.478 1_556 S
C519 H513 0.930 . S
C519 C515 1.400 . S
C519 C518 1.385 1_554 S
C520 C518 1.478 1_554 S
C520 C522 1.381 1_554 S
C520 C526 1.383 . S
C521 C517 1.495 . S
C521 H527 0.959 . S
C521 H528 0.961 . S
C521 H529 0.960 . S
C522 C520 1.381 1_556 S
C522 C523 1.394 . S
C522 H530 0.930 . S
C523 C522 1.394 . S
C523 C524 1.383 1_556 S
C523 H531 0.929 . S
C524 C523 1.383 1_554 S
C524 C525 1.377 . S
C525 H509 0.930 . S
C525 C524 1.377 . S
C525 C526 1.379 . S
C526 H510 0.931 . S
C526 C520 1.383 . S
C526 C525 1.379 . S
H527 C521 0.959 . S
H528 C521 0.961 . S
H529 C521 0.960 . S
H530 C522 0.930 . S
H531 C523 0.929 . S
H532 C540 0.929 . S
H533 C542 0.930 . S
H534 C544 0.930 . S
H535 C547 0.929 . S
H536 C550 0.930 . S
H537 C552 0.960 . S
H538 C552 0.960 1_554 S
H539 C552 0.960 . S
C540 H532 0.929 . S
C540 C541 1.377 1_554 S
C540 C542 1.384 . S
C541 C540 1.377 1_556 S
C541 C547 1.390 . S
C542 H533 0.930 . S
C542 C540 1.384 . S
C542 C543 1.372 1_554 S
C543 C542 1.372 1_556 S
C543 C544 1.400 . S
C543 C548 1.490 . S
C544 H534 0.930 . S
C544 C543 1.400 . S
C544 C547 1.386 . S
H545 C561 0.930 . S
H546 C562 0.931 . S
C547 H535 0.929 . S
C547 C541 1.390 . S
C547 C544 1.386 . S
C548 C543 1.490 . S
C548 C550 1.395 . S
C548 C551 1.403 . S
H549 C555 0.930 . S
C550 H536 0.930 . S
C550 C548 1.395 . S
C550 C553 1.403 . S
C551 C548 1.403 . S
C551 C552 1.524 . S
C551 C555 1.400 . S
C552 H537 0.960 . S
C552 H538 0.960 1_556 S
C552 H539 0.960 . S
C552 C551 1.524 . S
C553 C550 1.403 . S
C553 C554 1.392 . S
C553 C557 1.498 . S
C554 C553 1.392 . S
C554 C555 1.385 . S
C554 C556 1.478 . S
C555 H549 0.930 . S
C555 C551 1.400 . S
C555 C554 1.385 . S
C556 C554 1.478 . S
C556 C558 1.381 1_556 S
C556 C562 1.383 . S
C557 C553 1.498 . S
C557 H563 0.959 . S
C557 H564 0.971 . S
C557 H565 0.947 1_556 S
C558 C556 1.381 1_554 S
C558 C559 1.394 . S
C558 H566 0.930 . S
C559 C558 1.394 . S
C559 C560 1.383 . S
C559 H567 0.929 . S
C560 C559 1.383 . S
C560 C561 1.377 1_554 S
C561 H545 0.930 . S
C561 C560 1.377 1_556 S
C561 C562 1.379 . S
C562 H546 0.931 . S
C562 C556 1.383 . S
C562 C561 1.379 . S
H563 C557 0.959 . S
H564 C557 0.971 . S
H565 C557 0.947 1_554 S
H566 C558 0.930 . S
H567 C559 0.929 . S
H568 C576 0.929 . S
H569 C578 0.930 . S
H570 C580 0.930 . S
H571 C583 0.929 1_556 S
H572 C586 0.930 . S
H573 C588 0.960 . S
H574 C588 0.960 . S
H575 C588 0.960 . S
C576 H568 0.929 . S
C576 C577 1.377 . S
C576 C578 1.384 . S
C577 C576 1.377 . S
C577 C583 1.390 . S
C578 H569 0.930 . S
C578 C576 1.384 . S
C578 C579 1.372 . S
C579 C578 1.372 . S
C579 C580 1.400 1_554 S
C579 C584 1.490 . S
C580 H570 0.930 . S
C580 C579 1.400 1_556 S
C580 C583 1.386 1_556 S
H581 C597 0.930 . S
H582 C598 0.931 . S
C583 H571 0.929 1_554 S
C583 C577 1.390 . S
C583 C580 1.386 1_554 S
C584 C579 1.490 . S
C584 C586 1.395 . S
C584 C587 1.403 1_554 S
H585 C591 0.930 . S
C586 H572 0.930 . S
C586 C584 1.395 . S
C586 C589 1.403 . S
C587 C584 1.403 1_556 S
C587 C588 1.524 . S
C587 C591 1.400 . S
C588 H573 0.960 . S
C588 H574 0.960 . S
C588 H575 0.960 . S
C588 C587 1.524 . S
C589 C586 1.403 . S
C589 C590 1.392 . S
C589 C593 1.495 . S
C590 C589 1.392 . S
C590 C591 1.385 1_554 S
C590 C592 1.478 . S
C591 H585 0.930 . S
C591 C587 1.400 . S
C591 C590 1.385 1_556 S
C592 C590 1.478 . S
C592 C594 1.381 . S
C592 C598 1.383 1_554 S
C593 C589 1.495 . S
C593 H599 0.959 . S
C593 H600 0.961 . S
C593 H601 0.960 . S
C594 C592 1.381 . S
C594 C595 1.394 . S
C594 H602 0.930 . S
C595 C594 1.394 . S
C595 C596 1.383 . S
C595 H603 0.929 . S
C596 C595 1.383 . S
C596 C597 1.377 1_554 S
C597 H581 0.930 . S
C597 C596 1.377 1_556 S
C597 C598 1.379 . S
C598 H582 0.931 . S
C598 C592 1.383 1_556 S
C598 C597 1.379 . S
H599 C593 0.959 . S
H600 C593 0.961 . S
H601 C593 0.960 . S
H602 C594 0.930 . S
H603 C595 0.929 . S
H604 C612 0.929 . S
H605 C614 0.930 . S
H606 C616 0.930 . S
H607 C619 0.929 . S
H608 C622 0.930 . S
H609 C624 0.960 . S
H610 C624 0.960 . S
H611 C624 0.960 1_554 S
C612 H604 0.929 . S
C612 C613 1.373 1_556 S
C612 C614 1.384 . S
C613 C612 1.373 1_554 S
C613 C619 1.394 . S
C614 H605 0.930 . S
C614 C612 1.384 . S
C614 C615 1.372 1_556 S
C615 C614 1.372 1_554 S
C615 C616 1.400 . S
C615 C620 1.490 . S
C616 H606 0.930 . S
C616 C615 1.400 . S
C616 C619 1.386 . S
H617 C633 0.930 . S
H618 C634 0.931 . S
C619 H607 0.929 . S
C619 C613 1.394 . S
C619 C616 1.386 . S
C620 C615 1.490 . S
C620 C622 1.395 . S
C620 C623 1.403 . S
H621 C627 0.930 . S
C622 H608 0.930 . S
C622 C620 1.395 . S
C622 C625 1.403 . S
C623 C620 1.403 . S
C623 C624 1.524 1_554 S
C623 C627 1.400 . S
C624 H609 0.960 . S
C624 H610 0.960 . S
C624 H611 0.960 1_556 S
C624 C623 1.524 1_556 S
C625 C622 1.403 . S
C625 C626 1.392 . S
C625 C629 1.495 . S
C626 C625 1.392 . S
C626 C627 1.385 . S
C626 C628 1.478 . S
C627 H621 0.930 . S
C627 C623 1.400 . S
C627 C626 1.385 . S
C628 C626 1.478 . S
C628 C630 1.381 . S
C628 C634 1.383 . S
C629 C625 1.495 . S
C629 H635 0.959 . S
C629 H636 0.961 . S
C629 H637 0.960 . S
C630 C628 1.381 . S
C630 C631 1.394 . S
C630 H638 0.930 1_554 S
C631 C630 1.394 . S
C631 C632 1.383 . S
C631 H639 0.919 1_554 S
C632 C631 1.383 . S
C632 C633 1.377 . S
C633 H617 0.930 . S
C633 C632 1.377 . S
C633 C634 1.379 . S
C634 H618 0.931 . S
C634 C628 1.383 . S
C634 C633 1.379 . S
H635 C629 0.959 . S
H636 C629 0.961 . S
H637 C629 0.960 . S
H638 C630 0.930 1_556 S
H639 C631 0.919 1_556 S
C145 C1 1.786 . S
C164 C71 1.777 . S
C181 C35 1.843 . S
C200 C105 1.831 . S
C217 C15 1.636 . S
C236 C22 1.605 . S
C253 C49 1.620 . S
C272 C56 1.632 . S
C289 C83 1.656 . S
C308 C90 1.665 . S
C325 C117 1.869 . S
C344 C124 1.870 . S
C361 C28 1.199 . S
C380 C103 1.187 . S
C397 C3 1.510 . S
C416 C62 1.714 . S
C433 C85 1.773 . S
C452 C37 1.666 . S
C469 C96 0.653 . S
C488 C108 0.631 . S
C505 C69 1.698 1_556 S
C524 C51 1.856 . S
C541 C130 0.680 . S
C560 C74 0.723 . S
C577 C6 0.837 . S
C596 C119 0.830 1_554 S
C613 C40 1.439 1_554 S
C632 C17 1.433 . S
