# Generated by pormake.
# Topology wji, (4)-cn, num edge types: 1
# Building blocks:
#     Node 0, Type 0, BuildingBlock: QUQFOY_clean_sbu_3, # of connection points: 4
#     Node 1, Type 0, BuildingBlock: QUQFOY_clean_sbu_3, # of connection points: 4
#     Node 2, Type 0, BuildingBlock: QUQFOY_clean_sbu_3, # of connection points: 4
#     Node 3, Type 0, BuildingBlock: QUQFOY_clean_sbu_3, # of connection points: 4
#     Node 4, Type 0, BuildingBlock: QUQFOY_clean_sbu_3, # of connection points: 4
#     Node 5, Type 0, BuildingBlock: QUQFOY_clean_sbu_3, # of connection points: 4
#     Node 6, Type 0, BuildingBlock: QUQFOY_clean_sbu_3, # of connection points: 4
#     Node 7, Type 0, BuildingBlock: QUQFOY_clean_sbu_3, # of connection points: 4
#     Node 8, Type 0, BuildingBlock: QUQFOY_clean_sbu_3, # of connection points: 4
#     Node 9, Type 0, BuildingBlock: QUQFOY_clean_sbu_3, # of connection points: 4
#     Node 10, Type 0, BuildingBlock: QUQFOY_clean_sbu_3, # of connection points: 4
#     Node 11, Type 0, BuildingBlock: QUQFOY_clean_sbu_3, # of connection points: 4
#     Edge 12, Type (0, 0), BuildingBlock: CIFDUS_clean_linker_0, # of connection points: 2
#     Edge 13, Type (0, 0), BuildingBlock: CIFDUS_clean_linker_0, # of connection points: 2
#     Edge 14, Type (0, 0), BuildingBlock: CIFDUS_clean_linker_0, # of connection points: 2
#     Edge 15, Type (0, 0), BuildingBlock: CIFDUS_clean_linker_0, # of connection points: 2
#     Edge 16, Type (0, 0), BuildingBlock: CIFDUS_clean_linker_0, # of connection points: 2
#     Edge 17, Type (0, 0), BuildingBlock: CIFDUS_clean_linker_0, # of connection points: 2
#     Edge 18, Type (0, 0), BuildingBlock: CIFDUS_clean_linker_0, # of connection points: 2
#     Edge 19, Type (0, 0), BuildingBlock: CIFDUS_clean_linker_0, # of connection points: 2
#     Edge 20, Type (0, 0), BuildingBlock: CIFDUS_clean_linker_0, # of connection points: 2
#     Edge 21, Type (0, 0), BuildingBlock: CIFDUS_clean_linker_0, # of connection points: 2
#     Edge 22, Type (0, 0), BuildingBlock: CIFDUS_clean_linker_0, # of connection points: 2
#     Edge 23, Type (0, 0), BuildingBlock: CIFDUS_clean_linker_0, # of connection points: 2
#     Edge 24, Type (0, 0), BuildingBlock: CIFDUS_clean_linker_0, # of connection points: 2
#     Edge 25, Type (0, 0), BuildingBlock: CIFDUS_clean_linker_0, # of connection points: 2
#     Edge 26, Type (0, 0), BuildingBlock: CIFDUS_clean_linker_0, # of connection points: 2
#     Edge 27, Type (0, 0), BuildingBlock: CIFDUS_clean_linker_0, # of connection points: 2
#     Edge 28, Type (0, 0), BuildingBlock: CIFDUS_clean_linker_0, # of connection points: 2
#     Edge 29, Type (0, 0), BuildingBlock: CIFDUS_clean_linker_0, # of connection points: 2
#     Edge 30, Type (0, 0), BuildingBlock: CIFDUS_clean_linker_0, # of connection points: 2
#     Edge 31, Type (0, 0), BuildingBlock: CIFDUS_clean_linker_0, # of connection points: 2
#     Edge 32, Type (0, 0), BuildingBlock: CIFDUS_clean_linker_0, # of connection points: 2
#     Edge 33, Type (0, 0), BuildingBlock: CIFDUS_clean_linker_0, # of connection points: 2
#     Edge 34, Type (0, 0), BuildingBlock: CIFDUS_clean_linker_0, # of connection points: 2
#     Edge 35, Type (0, 0), BuildingBlock: CIFDUS_clean_linker_0, # of connection points: 2
# Relax obj value: 0.215
# Max RMSD: 0.130
# Mean RMSD: 0.130
data_MOF--net-wji--node1-QUQFOY_clean_sbu_3--edge1-CIFDUS_clean_linker_0
_symmetry_space_group_name_H-M    P1
_symmetry_Int_Tables_number       1
_symmetry_cell_setting            triclinic
loop_
_symmetry_equiv_pos_as_xyz
'x, y, z'
_cell_length_a     53.521644
_cell_length_b     53.622314
_cell_length_c     20.801435
_cell_angle_alpha  89.829613
_cell_angle_beta   90.233025
_cell_angle_gamma 119.61738
loop_
_atom_site_label
_atom_site_type_symbol
_atom_site_fract_x
_atom_site_fract_y
_atom_site_fract_z
_atom_type_partial_charge
C0 C 0.42251 0.37349 0.46372 0.0
O1 O 0.40233 0.37667 0.48674 0.0
Cd2 Cd 0.35285 0.34215 0.4864 0.0
O3 O 0.41725 0.3493 0.44063 0.0
Cd4 Cd 0.37298 0.30004 0.43369 0.0
C5 C 0.34385 0.32585 0.32386 0.0
O6 O 0.35042 0.3006 0.532 0.0
O7 O 0.32123 0.26971 0.46403 0.0
O8 O 0.39918 0.28223 0.49536 0.0
C9 C 0.3261 0.27905 0.52126 0.0
O10 O 0.33902 0.33669 0.37343 0.0
C11 C 0.3931 0.2605 0.46097 0.0
O12 O 0.35747 0.31189 0.32904 0.0
O13 O 0.37965 0.25821 0.40858 0.0
C14 C 0.05583 0.45373 0.59682 0.0
O15 O 0.03374 0.44053 0.63189 0.0
Cd16 Cd 0.01073 0.39016 0.65018 0.0
O17 O 0.0692 0.44122 0.576 0.0
Cd18 Cd 0.0672 0.39403 0.59662 0.0
C19 C 0.00997 0.36495 0.4954 0.0
O20 O 0.04533 0.38158 0.70092 0.0
O21 O 0.03997 0.34556 0.64424 0.0
O22 O 0.11234 0.4181 0.65398 0.0
C23 C 0.03821 0.35531 0.69853 0.0
O24 O -0.00307 0.36755 0.54388 0.0
C25 C 0.12505 0.4073 0.62311 0.0
O26 O 0.03703 0.37406 0.4979 0.0
O27 O 0.11182 0.39182 0.57458 0.0
C28 C 0.58319 0.06984 0.71965 0.0
O29 O 0.57198 0.04325 0.73179 0.0
Cd30 Cd 0.59447 0.01943 0.77867 0.0
O31 O 0.61012 0.0869 0.72771 0.0
Cd32 Cd 0.65169 0.07888 0.75907 0.0
C33 C 0.63574 0.02553 0.64875 0.0
O34 O 0.62589 0.05429 0.85264 0.0
O35 O 0.66232 0.04896 0.83512 0.0
O36 O 0.67464 0.1298 0.79128 0.0
C37 C 0.64248 0.04566 0.87308 0.0
O38 O 0.61667 0.00936 0.68886 0.0
C39 C 0.69978 0.13322 0.79578 0.0
O40 O 0.65054 0.05261 0.65842 0.0
O41 O 0.70312 0.11257 0.77694 0.0
C42 C 0.50377 0.58506 0.89519 0.0
O43 O 0.52185 0.5769 0.90766 0.0
Cd44 Cd 0.57147 0.60389 0.9327 0.0
O45 O 0.51114 0.61168 0.89438 0.0
Cd46 Cd 0.55835 0.65795 0.91009 0.0
C47 C 0.59083 0.64052 0.78856 0.0
O48 O 0.57611 0.64194 -0.00408 0.0
O49 O 0.6082 0.68188 0.95448 0.0
O50 O 0.53785 0.67719 -0.01432 0.0
C51 C 0.60144 0.66292 -0.00232 0.0
O52 O 0.59211 0.62333 0.82907 0.0
C53 C 0.54458 0.7002 0.95545 0.0
O54 O 0.57804 0.6547 0.80236 0.0
O55 O 0.55596 0.70301 0.90028 0.0
C56 C 0.88993 0.50052 0.11706 0.0
O57 O 0.9132 0.51515 0.14783 0.0
Cd58 Cd 0.93563 0.56547 0.16251 0.0
O59 O 0.87566 0.51203 0.09518 0.0
Cd60 Cd 0.87943 0.56072 0.10654 0.0
C61 C 0.93668 0.5898 0.00669 0.0
O62 O 0.89977 0.57207 0.21309 0.0
O63 O 0.90671 0.6087 0.15695 0.0
O64 O 0.83047 0.53516 0.14799 0.0
C65 C 0.90714 0.59837 0.21154 0.0
O66 O 0.94986 0.58807 0.05618 0.0
C67 C 0.82239 0.55164 0.12323 0.0
O68 O 0.90948 0.57975 0.00809 0.0
O69 O 0.83974 0.57053 0.08416 0.0
C70 C 0.35678 0.89567 0.27241 0.0
O71 O 0.36829 0.92074 0.29591 0.0
Cd72 Cd 0.34409 0.94776 0.30538 0.0
O73 O 0.33022 0.88229 0.25701 0.0
Cd74 Cd 0.28848 0.89096 0.27193 0.0
C75 C 0.31545 0.9418 0.15324 0.0
O76 O 0.30337 0.91812 0.36963 0.0
O77 O 0.2704 0.92191 0.31738 0.0
O78 O 0.26596 0.84878 0.33939 0.0
C79 C 0.28429 0.92551 0.36932 0.0
O80 O 0.33334 0.95741 0.19624 0.0
C81 C 0.24225 0.83591 0.30956 0.0
O82 O 0.29686 0.9157 0.16561 0.0
O83 O 0.2402 0.84753 0.25773 0.0
C84 C 0.57509 0.50455 0.37665 0.0
O85 O 0.5677 0.52248 0.3577 0.0
Cd86 Cd 0.59835 0.56933 0.31935 0.0
O87 O 0.60152 0.51108 0.37785 0.0
Cd88 Cd 0.64775 0.55704 0.35245 0.0
C89 C 0.63324 0.5952 0.46227 0.0
O90 O 0.6314 0.56477 0.25083 0.0
O91 O 0.66737 0.60244 0.29047 0.0
O92 O 0.66604 0.5253 0.31661 0.0
C93 C 0.65187 0.58994 0.24195 0.0
O94 O 0.61734 0.59649 0.41822 0.0
C95 C 0.69232 0.54371 0.32472 0.0
O96 O 0.6459 0.58054 0.45395 0.0
O97 O 0.69775 0.56702 0.35195 0.0
C98 C 0.05296 0.59679 0.54106 0.0
O99 O 0.03032 0.5876 0.50729 0.0
Cd100 Cd 0.00403 0.61259 0.49619 0.0
O101 O 0.06543 0.62221 0.56383 0.0
Cd102 Cd 0.06122 0.66657 0.55066 0.0
C103 C 0.0057 0.63453 0.6552 0.0
O104 O 0.03586 0.65748 0.45131 0.0
O105 O 0.0311 0.68706 0.51305 0.0
O106 O 0.10379 0.68813 0.48558 0.0
C107 C 0.02714 0.67533 0.45827 0.0
O108 O -0.00756 0.61963 0.60601 0.0
C109 C 0.11743 0.71128 0.51695 0.0
O110 O 0.03247 0.65321 0.65223 0.0
O111 O 0.10609 0.7132 0.56925 0.0
C112 C 0.43292 0.05558 0.66342 0.0
O113 O 0.41301 0.03023 0.6514 0.0
Cd114 Cd 0.36266 0.01092 0.66027 0.0
O115 O 0.42707 0.07483 0.6819 0.0
Cd116 Cd 0.38108 0.07703 0.69509 0.0
C117 C 0.35733 0.02765 0.81875 0.0
O118 O 0.35699 0.04651 0.60702 0.0
O119 O 0.3285 0.05372 0.66662 0.0
O120 O 0.40146 0.11794 0.62312 0.0
C121 C 0.33239 0.04368 0.61491 0.0
O122 O 0.35206 0.00927 0.77459 0.0
C123 C 0.39688 0.13462 0.65785 0.0
O124 O 0.36955 0.05448 0.80544 0.0
O125 O 0.38666 0.12548 0.71369 0.0
C126 C 0.36663 0.43509 0.81821 0.0
O127 O 0.36914 0.41442 0.79604 0.0
Cd128 Cd 0.33387 0.36531 0.79679 0.0
O129 O 0.34264 0.43064 0.84112 0.0
Cd130 Cd 0.29286 0.3868 0.84774 0.0
C131 C 0.31673 0.35636 0.95867 0.0
O132 O 0.29283 0.36358 0.74983 0.0
O133 O 0.26183 0.3351 0.81848 0.0
O134 O 0.27477 0.4118 0.78297 0.0
C135 C 0.27091 0.3396 0.76107 0.0
O136 O 0.32754 0.35127 0.90943 0.0
C137 C 0.25347 0.40683 0.81787 0.0
O138 O 0.30343 0.37062 0.95309 0.0
O139 O 0.25165 0.39476 0.87193 0.0
C140 C 0.89711 0.36468 0.01158 0.0
O141 O 0.92052 0.37208 -0.01759 0.0
Cd142 Cd 0.94379 0.34426 0.98009 0.0
O143 O 0.88288 0.33985 0.0372 0.0
Cd144 Cd 0.88586 0.29419 0.03628 0.0
C145 C 0.94112 0.32494 0.14177 0.0
O146 O 0.9092 0.30042 0.93458 0.0
O147 O 0.91468 0.27212 -0.00117 0.0
O148 O 0.83868 0.27306 -0.014 0.0
C149 C 0.91726 0.28213 0.9425 0.0
O150 O 0.9549 0.3383 0.09159 0.0
C151 C 0.82861 0.2485 0.01164 0.0
O152 O 0.91397 0.30777 0.13912 0.0
O153 O 0.84402 0.24582 0.05497 0.0
C154 C 0.49592 0.8874 0.24253 0.0
O155 O 0.50965 0.91351 0.2253 0.0
Cd156 Cd 0.55863 0.94187 0.19737 0.0
O157 O 0.50792 0.87188 0.24554 0.0
Cd158 Cd 0.55699 0.87836 0.21877 0.0
C159 C 0.58901 0.93093 0.33487 0.0
O160 O 0.56506 0.91003 0.1331 0.0
O161 O 0.6029 0.90775 0.15766 0.0
O162 O 0.5359 0.83694 0.14815 0.0
C163 C 0.5911 0.91815 0.12176 0.0
O164 O 0.58464 0.94694 0.29646 0.0
C165 C 0.54685 0.82334 0.17505 0.0
O166 O 0.57981 0.90442 0.3219 0.0
O167 O 0.56139 0.83431 0.22613 0.0
H168 H 0.3022 0.36637 0.07896 0.0
H169 H 0.34186 0.32369 -0.01764 0.0
H170 H 0.35275 0.30957 0.08516 0.0
H171 H 0.35314 0.31085 0.20352 0.0
H172 H 0.31342 0.35343 0.30026 0.0
H173 H 0.30056 0.36568 0.19742 0.0
C174 C 0.31303 0.35381 0.08034 0.0
C175 C 0.32126 0.34637 0.02251 0.0
C176 C 0.31944 0.34569 0.14013 0.0
C177 C 0.3353 0.32999 0.02572 0.0
C178 C 0.34162 0.32183 0.08474 0.0
C179 C 0.34149 0.32261 0.20217 0.0
C180 C 0.33451 0.33125 0.26004 0.0
C181 C 0.33411 0.32981 0.1424 0.0
C182 C 0.31932 0.34651 0.25686 0.0
C183 C 0.31189 0.35362 0.19782 0.0
H184 H 0.03001 0.36742 0.37299 0.0
H185 H 0.95163 0.33439 0.48237 0.0
H186 H 0.92327 0.31736 0.38405 0.0
H187 H 0.92046 0.31434 0.26557 0.0
H188 H -0.00098 0.34885 0.15637 0.0
H189 H 0.02715 0.36243 0.2552 0.0
C190 C 0.00674 0.35621 0.37543 0.0
C191 C -0.00687 0.3524 0.43527 0.0
C192 C -0.00962 0.34678 0.31829 0.0
C193 C 0.96285 0.33789 0.43713 0.0
C194 C 0.9465 0.32809 0.38077 0.0
C195 C 0.9437 0.32454 0.26344 0.0
C196 C 0.95746 0.33066 0.2033 0.0
C197 C 0.95999 0.3328 0.32085 0.0
C198 C -0.0123 0.34404 0.20175 0.0
C199 C 0.00392 0.35185 0.25841 0.0
H200 H 0.6254 -0.01298 0.36099 0.0
H201 H 0.58294 0.9034 0.45006 0.0
H202 H 0.59742 0.92574 0.55629 0.0
H203 H 0.61614 0.96909 0.62347 0.0
H204 H 0.65775 0.05267 0.53393 0.0
H205 H 0.65004 0.03023 0.42811 0.0
C206 C 0.6197 0.97361 0.4036 0.0
C207 C 0.60269 0.94355 0.39765 0.0
C208 C 0.62778 -0.01337 0.46438 0.0
C209 C 0.59594 0.92652 0.45321 0.0
C210 C 0.60406 0.93933 0.51399 0.0
C211 C 0.62402 -0.01754 0.58091 0.0
C212 C 0.63714 0.01258 0.58669 0.0
C213 C 0.61908 0.96938 0.52016 0.0
C214 C 0.64756 0.02951 0.53106 0.0
C215 C 0.64294 0.01666 0.47044 0.0
H216 H 0.60915 0.62801 0.49436 0.0
H217 H 0.65833 0.59117 0.57406 0.0
H218 H 0.6524 0.60549 0.68171 0.0
H219 H 0.6286 0.62318 0.75387 0.0
H220 H 0.57793 0.65851 0.67545 0.0
H221 H 0.58957 0.65049 0.56637 0.0
C222 C 0.61896 0.62343 0.53508 0.0
C223 C 0.63387 0.60811 0.52593 0.0
C224 C 0.61504 0.63131 0.59711 0.0
C225 C 0.64663 0.60273 0.57943 0.0
C226 C 0.64314 0.61083 0.64114 0.0
C227 C 0.62035 0.62951 0.71298 0.0
C228 C 0.60203 0.64107 0.72296 0.0
C229 C 0.62666 0.62431 0.65065 0.0
C230 C 0.592 0.64955 0.66932 0.0
C231 C 0.5985 0.64476 0.60691 0.0
H232 H 0.02632 0.6443 0.77903 0.0
H233 H 0.94785 0.61044 0.66867 0.0
H234 H 0.91958 0.59518 0.767 0.0
H235 H 0.91668 0.58842 0.88434 0.0
H236 H -0.00496 0.62066 -0.00531 0.0
H237 H 0.02343 0.63946 0.89723 0.0
C238 C 0.00307 0.63397 0.77662 0.0
C239 C -0.01067 0.62848 0.71635 0.0
C240 C -0.01327 0.62462 0.83363 0.0
C241 C 0.95909 0.6148 0.71426 0.0
C242 C 0.94281 0.606 0.77058 0.0
C243 C 0.93995 0.59978 0.88719 0.0
C244 C 0.95355 0.60288 0.94703 0.0
C245 C 0.95633 0.6103 0.83055 0.0
C246 C -0.01617 0.61767 0.94944 0.0
C247 C 0.0002 0.62852 0.89358 0.0
H248 H 0.32087 0.97306 0.85815 0.0
H249 H 0.3772 0.0581 0.93146 0.0
H250 H 0.36821 0.03918 0.04143 0.0
H251 H 0.34649 -0.002 0.11612 0.0
H252 H 0.28966 0.91318 0.04199 0.0
H253 H 0.29666 0.93261 0.93302 0.0
C254 C 0.33113 -0.01242 0.89811 0.0
C255 C 0.34996 0.01702 0.88621 0.0
C256 C 0.32584 0.97655 0.96113 0.0
C257 C 0.36266 0.03542 0.93892 0.0
C258 C 0.3576 0.02456 0.00187 0.0
C259 C 0.33546 -0.01628 0.07624 0.0
C260 C 0.3177 0.95402 0.08756 0.0
C261 C 0.33956 -0.00492 0.01348 0.0
C262 C 0.30343 0.93604 0.03507 0.0
C263 C 0.30751 0.94715 0.97258 0.0
H264 H 0.53218 0.49562 0.45479 0.0
H265 H 0.56618 0.45075 0.34688 0.0
H266 H 0.52216 0.4049 0.36802 0.0
H267 H 0.47164 0.37875 0.40786 0.0
H268 H 0.43956 0.42569 0.51622 0.0
H269 H 0.48518 0.46939 0.50453 0.0
C270 C 0.53013 0.4757 0.43686 0.0
C271 C 0.55209 0.47641 0.39904 0.0
C272 C 0.50493 0.44983 0.44867 0.0
C273 C 0.54948 0.45058 0.37644 0.0
C274 C 0.52423 0.42447 0.38805 0.0
C275 C 0.47479 0.39847 0.42951 0.0
C276 C 0.45185 0.39887 0.46181 0.0
C277 C 0.50141 0.42396 0.42261 0.0
C278 C 0.45649 0.42464 0.49019 0.0
C279 C 0.48267 0.44977 0.48369 0.0
H280 H 0.06668 0.49914 0.67136 0.0
H281 H 0.06164 0.47275 0.47413 0.0
H282 H 0.06327 0.51704 0.43773 0.0
H283 H 0.05908 0.55973 0.46371 0.0
H284 H 0.06728 0.58767 0.66051 0.0
H285 H 0.07203 0.54659 0.69577 0.0
C286 C 0.06674 0.50357 0.62041 0.0
C287 C 0.06385 0.48287 0.57531 0.0
C288 C 0.06801 0.52915 0.60002 0.0
C289 C 0.06403 0.48861 0.50945 0.0
C290 C 0.06471 0.51376 0.48874 0.0
C291 C 0.06265 0.55713 0.51407 0.0
C292 C 0.06255 0.57635 0.55967 0.0
C293 C 0.06567 0.53368 0.53375 0.0
C294 C 0.0674 0.57309 0.62471 0.0
C295 C 0.06987 0.54951 0.64487 0.0
H296 H 0.48198 0.09575 0.72556 0.0
H297 H 0.45126 0.02962 0.58045 0.0
H298 H 0.49813 0.03299 0.57553 0.0
H299 H 0.54476 0.04842 0.62483 0.0
H300 H 0.57618 0.11256 0.7734 0.0
H301 H 0.53273 0.11697 0.76359 0.0
C302 C 0.48583 0.08257 0.69203 0.0
C303 C 0.46296 0.06199 0.65453 0.0
C304 C 0.51297 0.0842 0.69022 0.0
C305 C 0.46827 0.04516 0.61094 0.0
C306 C 0.49513 0.04711 0.60786 0.0
C307 C 0.54249 0.0641 0.65341 0.0
C308 C 0.56341 0.08011 0.69967 0.0
C309 C 0.5172 0.06565 0.64905 0.0
C310 C 0.56039 0.10026 0.73686 0.0
C311 C 0.53535 0.10243 0.73189 0.0
H312 H 0.49042 0.54243 0.81295 0.0
H313 H 0.45181 0.57723 0.93915 0.0
H314 H 0.40447 0.53422 0.92299 0.0
H315 H 0.37544 0.4842 0.88112 0.0
H316 H 0.41634 0.45138 0.75459 0.0
H317 H 0.46122 0.49613 0.76243 0.0
C318 C 0.47151 0.54078 0.83612 0.0
C319 C 0.47445 0.56265 0.87749 0.0
C320 C 0.44482 0.51616 0.82703 0.0
C321 C 0.44991 0.56057 0.90683 0.0
C322 C 0.42297 0.5359 0.89797 0.0
C323 C 0.39408 0.48703 0.85468 0.0
C324 C 0.3925 0.4641 0.81834 0.0
C325 C 0.4203 0.51314 0.85947 0.0
C326 C 0.41688 0.4683 0.78391 0.0
C327 C 0.44268 0.49398 0.78815 0.0
H328 H 0.87806 0.37867 0.11874 0.0
H329 H 0.89633 0.39936 0.91798 0.0
H330 H 0.8899 0.44115 0.93077 0.0
H331 H 0.88666 0.47583 0.00246 0.0
H332 H 0.87482 0.45852 0.20553 0.0
H333 H 0.87063 0.41139 0.18897 0.0
C334 C 0.87981 0.39194 0.07765 0.0
C335 C 0.88758 0.38607 0.01757 0.0
C336 C 0.87749 0.41674 0.08611 0.0
C337 C 0.89038 0.40363 0.96471 0.0
C338 C 0.88681 0.42754 0.97205 0.0
C339 C 0.88222 0.46124 0.04254 0.0
C340 C 0.88064 0.4702 0.10488 0.0
C341 C 0.88142 0.43491 0.03297 0.0
C342 C 0.87575 0.4517 0.15704 0.0
C343 C 0.87358 0.42491 0.14761 0.0
H344 H 0.39141 0.88971 0.35774 0.0
H345 H 0.36382 0.87418 0.16001 0.0
H346 H 0.40276 0.86428 0.13438 0.0
H347 H 0.44966 0.86912 0.16528 0.0
H348 H 0.47665 0.88418 0.36334 0.0
H349 H 0.43249 0.88432 0.39274 0.0
C350 C 0.39352 0.88334 0.30951 0.0
C351 C 0.3752 0.88296 0.26054 0.0
C352 C 0.41583 0.87764 0.29542 0.0
C353 C 0.37779 0.87454 0.19828 0.0
C354 C 0.40012 0.86907 0.18364 0.0
C355 C 0.44511 0.87108 0.21522 0.0
C356 C 0.46602 0.87636 0.26236 0.0
C357 C 0.41996 0.87173 0.23132 0.0
C358 C 0.46048 0.87956 0.32672 0.0
C359 C 0.43547 0.88007 0.34328 0.0
H360 H 0.27893 0.29428 0.77314 0.0
H361 H 0.248 0.3357 0.64351 0.0
H362 H 0.25466 0.31106 0.55216 0.0
H363 H 0.28262 0.29001 0.50897 0.0
H364 H 0.3208 0.25558 0.63861 0.0
H365 H 0.29745 0.26408 0.72999 0.0
C366 C 0.27225 0.29658 0.72525 0.0
C367 C 0.26299 0.31653 0.71446 0.0
C368 C 0.27812 0.28394 0.67273 0.0
C369 C 0.255 0.32016 0.65237 0.0
C370 C 0.25915 0.30636 0.60016 0.0
C371 C 0.28443 0.28299 0.55692 0.0
C372 C 0.30315 0.27218 0.56768 0.0
C373 C 0.27264 0.28991 0.60943 0.0
C374 C 0.30619 0.26375 0.62976 0.0
C375 C 0.29315 0.26897 0.68197 0.0
H376 H -0.02587 0.31008 0.95653 0.0
H377 H 0.90614 0.25646 0.82596 0.0
H378 H 0.94067 0.27015 0.73767 0.0
H379 H -0.01209 0.30541 0.69443 0.0
H380 H 0.05356 0.36455 0.82339 0.0
H381 H 0.0228 0.34063 0.91579 0.0
C382 C 0.96727 0.30052 0.90925 0.0
C383 C 0.93801 0.2821 0.89725 0.0
C384 C -0.01314 0.31006 0.8583 0.0
C385 C 0.9288 0.27038 0.83584 0.0
C386 C 0.94846 0.27847 0.78541 0.0
C387 C -0.0043 0.31229 0.74299 0.0
C388 C 0.02272 0.33657 0.75271 0.0
C389 C -0.02275 0.29949 0.79542 0.0
C390 C 0.03267 0.34585 0.81538 0.0
C391 C 0.01508 0.33228 0.86801 0.0
H392 H 0.57807 0.9589 0.09291 0.0
H393 H 0.64092 0.93278 0.05527 0.0
H394 H 0.66467 0.97214 0.97699 0.0
H395 H 0.66443 0.01156 0.91362 0.0
H396 H 0.60154 0.03711 0.95906 0.0
H397 H 0.58128 0.00059 0.04182 0.0
C398 C 0.59719 0.96191 0.06849 0.0
C399 C 0.60759 0.94286 0.07918 0.0
C400 C 0.61069 -0.0155 0.02516 0.0
C401 C 0.63252 0.94723 0.04736 0.0
C402 C 0.646 0.96964 0.00272 0.0
C403 C 0.64661 0.00936 0.94243 0.0
C404 C 0.63411 0.02659 0.92938 0.0
C405 C 0.63488 -0.01189 -0.00963 0.0
C406 C 0.61123 0.02379 0.96741 0.0
C407 C 0.59958 0.0029 0.01473 0.0
H408 H 0.61837 0.62413 -0.01478 0.0
H409 H 0.63121 0.69629 0.09954 0.0
H410 H 0.65457 0.68272 0.18376 0.0
H411 H 0.66146 0.64445 0.23277 0.0
H412 H 0.64244 0.56942 0.12126 0.0
H413 H 0.63164 0.5899 0.02743 0.0
C414 C 0.62698 0.63723 0.02793 0.0
C415 C 0.62298 0.66085 0.03714 0.0
C416 C 0.63886 0.62844 0.07681 0.0
C417 C 0.63433 0.67804 0.09189 0.0
C418 C 0.64733 0.67008 0.14013 0.0
C419 C 0.65582 0.63313 0.18724 0.0
C420 C 0.65241 0.60546 0.18348 0.0
C421 C 0.64829 0.64445 0.13447 0.0
C422 C 0.64488 0.59068 0.12484 0.0
C423 C 0.63866 0.60232 0.07142 0.0
H424 H -0.02942 0.64289 0.47146 0.0
H425 H 0.03606 0.70275 0.34412 0.0
H426 H 0.0012 0.68776 0.25567 0.0
H427 H 0.95523 0.65046 0.21069 0.0
H428 H 0.89249 0.58603 0.33616 0.0
H429 H 0.92259 0.61001 0.42959 0.0
C430 C -0.02329 0.65342 0.42494 0.0
C431 C 0.00541 0.67404 0.4138 0.0
C432 C 0.95709 0.64335 0.37383 0.0
C433 C 0.01378 0.68712 0.35335 0.0
C434 C -0.00603 0.6783 0.30281 0.0
C435 C 0.94786 0.64232 0.25878 0.0
C436 C 0.92195 0.61656 0.26706 0.0
C437 C 0.96599 0.65536 0.31173 0.0
C438 C 0.91257 0.60581 0.32915 0.0
C439 C 0.92977 0.61943 0.38239 0.0
H440 H 0.27957 0.9737 0.37149 0.0
H441 H 0.2828 0.91004 0.49274 0.0
H442 H 0.28948 0.93938 0.58755 0.0
H443 H 0.30563 -0.01283 0.63074 0.0
H444 H 0.3096 0.05369 0.50796 0.0
H445 H 0.28791 0.01932 0.41963 0.0
C446 C 0.28077 0.96599 0.41904 0.0
C447 C 0.28106 0.94008 0.4256 0.0
C448 C 0.28607 -0.01632 0.473 0.0
C449 C 0.28288 0.93018 0.48699 0.0
C450 C 0.28672 0.94693 0.54109 0.0
C451 C 0.30034 -0.00634 0.58551 0.0
C452 C 0.30879 0.02258 0.57547 0.0
C453 C 0.28992 0.97433 0.53413 0.0
C454 C 0.3027 0.03127 0.51662 0.0
C455 C 0.29079 0.01174 0.46591 0.0
H456 H 0.40204 0.25143 0.58482 0.0
H457 H 0.39413 0.21696 0.39396 0.0
H458 H 0.39736 0.17624 0.43844 0.0
H459 H 0.399 0.14892 0.53213 0.0
H460 H 0.40215 0.18124 0.72344 0.0
H461 H 0.40432 0.22451 0.67819 0.0
C462 C 0.40148 0.23525 0.55272 0.0
C463 C 0.3981 0.23737 0.48595 0.0
C464 C 0.40227 0.21146 0.57889 0.0
C465 C 0.39685 0.21592 0.44534 0.0
C466 C 0.39861 0.19261 0.47085 0.0
C467 C 0.40056 0.16562 0.56399 0.0
C468 C 0.40061 0.16195 0.6312 0.0
C469 C 0.40083 0.18993 0.53762 0.0
C470 C 0.40214 0.18356 0.6717 0.0
C471 C 0.40334 0.20826 0.64578 0.0
H472 H 0.23984 0.407 0.69291 0.0
H473 H 0.21411 0.41546 0.88415 0.0
H474 H 0.1735 0.41902 0.83927 0.0
H475 H 0.14393 0.41686 0.74617 0.0
H476 H 0.16682 0.40302 0.55631 0.0
H477 H 0.21016 0.40451 0.60007 0.0
C478 C 0.22559 0.41005 0.72479 0.0
C479 C 0.23017 0.41134 0.79184 0.0
C480 C 0.20176 0.41092 0.69878 0.0
C481 C 0.21112 0.41459 0.8325 0.0
C482 C 0.18791 0.41656 0.8068 0.0
C483 C 0.15861 0.41456 0.71418 0.0
C484 C 0.15236 0.41015 0.64785 0.0
C485 C 0.18283 0.41437 0.74009 0.0
C486 C 0.17123 0.40656 0.60734 0.0
C487 C 0.19596 0.40738 0.63242 0.0
H488 H 0.78886 0.24921 0.93055 0.0
H489 H 0.81091 0.19163 0.02852 0.0
H490 H 0.77411 0.15124 0.96728 0.0
H491 H 0.73729 0.13258 0.88188 0.0
H492 H 0.71269 0.18923 0.78931 0.0
H493 H 0.74923 0.22983 0.85145 0.0
C494 C 0.78531 0.22775 0.93926 0.0
C495 C 0.80272 0.22351 -0.01592 0.0
C496 C 0.76411 0.20459 0.90373 0.0
C497 C 0.79774 0.19553 -0.0052 0.0
C498 C 0.77689 0.17244 0.95923 0.0
C499 C 0.7402 0.15392 0.87488 0.0
C500 C 0.72291 0.15816 0.82994 0.0
C501 C 0.76038 0.17682 0.91265 0.0
C502 C 0.72612 0.18562 0.82286 0.0
C503 C 0.74685 0.20875 0.85867 0.0
H504 H 0.53889 0.80943 0.04874 0.0
H505 H 0.55049 0.77928 0.23284 0.0
H506 H 0.54853 0.73734 0.18101 0.0
H507 H 0.54537 0.71033 0.08293 0.0
H508 H 0.53871 0.74306 0.89784 0.0
H509 H 0.53676 0.78295 0.9504 0.0
C510 C 0.5407 0.79352 0.07762 0.0
C511 C 0.54453 0.79728 0.14471 0.0
C512 C 0.54052 0.77003 0.04719 0.0
C513 C 0.54744 0.77681 0.18126 0.0
C514 C 0.54632 0.75286 0.1516 0.0
C515 C 0.54316 0.72603 0.05411 0.0
C516 C 0.54182 0.72358 -0.01346 0.0
C517 C 0.54309 0.74938 0.08456 0.0
C518 C 0.53963 0.74442 0.94982 0.0
C519 C 0.53855 0.76721 0.9799 0.0
H520 H 0.73323 0.58169 0.24645 0.0
H521 H 0.70095 0.49753 0.32861 0.0
H522 H 0.73735 0.49153 0.26969 0.0
H523 H 0.77913 0.51105 0.19653 0.0
H524 H 0.80845 0.59381 0.10809 0.0
H525 H 0.77188 0.59922 0.16617 0.0
C526 C 0.73445 0.56219 0.25192 0.0
C527 C 0.71514 0.54039 0.29312 0.0
C528 C 0.7545 0.55847 0.21578 0.0
C529 C 0.71606 0.51477 0.2981 0.0
C530 C 0.7367 0.51131 0.26409 0.0
C531 C 0.7772 0.53006 0.18913 0.0
C532 C 0.79662 0.55204 0.14806 0.0
C533 C 0.75605 0.53304 0.22277 0.0
C534 C 0.79374 0.57648 0.13895 0.0
C535 C 0.77301 0.57974 0.17274 0.0
H536 H 0.13009 0.72222 0.3911 0.0
H537 H 0.16296 0.75532 0.58008 0.0
H538 H 0.20539 0.79595 0.53177 0.0
H539 H 0.23232 0.82247 0.43566 0.0
H540 H 0.19687 0.79176 0.24701 0.0
H541 H 0.15606 0.74957 0.29529 0.0
C542 C 0.14668 0.7382 0.42178 0.0
C543 C 0.14364 0.7356 0.48917 0.0
C544 C 0.17039 0.76187 0.39362 0.0
C545 C 0.16492 0.7568 0.52822 0.0
C546 C 0.18912 0.77998 0.50055 0.0
C547 C 0.21576 0.8064 0.40507 0.0
C548 C 0.21774 0.80999 0.33773 0.0
C549 C 0.19199 0.78278 0.43332 0.0
C550 C 0.19585 0.78938 0.29881 0.0
C551 C 0.17257 0.7653 0.32645 0.0
loop_
_geom_bond_atom_site_label_1
_geom_bond_atom_site_label_2
_geom_bond_distance
_geom_bond_site_symmetry_2
_ccdc_geom_bond_type
C0 O1 1.306 . S
C0 O3 1.160 . S
O1 C0 1.306 . S
O1 Cd2 2.228 . S
Cd2 O1 2.228 . S
Cd2 O6 2.273 . S
Cd2 O10 2.277 . S
O3 C0 1.160 . S
O3 Cd4 2.203 . S
Cd4 O3 2.203 . S
Cd4 O6 2.411 . S
Cd4 O7 2.333 . S
Cd4 O8 2.352 . S
Cd4 O12 2.277 . S
Cd4 O13 2.356 . S
C5 O10 1.209 . S
C5 O12 1.226 . S
O6 Cd2 2.273 . S
O6 Cd4 2.411 . S
O6 C9 1.320 . S
O7 Cd4 2.333 . S
O7 C9 1.214 . S
O8 Cd4 2.352 . S
O8 C11 1.258 . S
C9 O6 1.320 . S
C9 O7 1.214 . S
O10 Cd2 2.277 . S
O10 C5 1.209 . S
C11 O8 1.258 . S
C11 O13 1.282 . S
O12 Cd4 2.277 . S
O12 C5 1.226 . S
O13 Cd4 2.356 . S
O13 C11 1.282 . S
C14 O15 1.306 . S
C14 O17 1.160 . S
O15 C14 1.306 . S
O15 Cd16 2.228 . S
Cd16 O15 2.228 . S
Cd16 O20 2.273 . S
Cd16 O24 2.277 . S
O17 C14 1.160 . S
O17 Cd18 2.203 . S
Cd18 O17 2.203 . S
Cd18 O20 2.411 . S
Cd18 O21 2.333 . S
Cd18 O22 2.352 . S
Cd18 O26 2.277 . S
Cd18 O27 2.356 . S
C19 O24 1.209 . S
C19 O26 1.226 . S
O20 Cd16 2.273 . S
O20 Cd18 2.411 . S
O20 C23 1.320 . S
O21 Cd18 2.333 . S
O21 C23 1.214 . S
O22 Cd18 2.352 . S
O22 C25 1.258 . S
C23 O20 1.320 . S
C23 O21 1.214 . S
O24 Cd16 2.277 . S
O24 C19 1.209 . S
C25 O22 1.258 . S
C25 O27 1.282 . S
O26 Cd18 2.277 . S
O26 C19 1.226 . S
O27 Cd18 2.356 . S
O27 C25 1.282 . S
C28 O29 1.306 . S
C28 O31 1.160 . S
O29 C28 1.306 . S
O29 Cd30 2.228 . S
Cd30 O29 2.228 . S
Cd30 O34 2.273 . S
Cd30 O38 2.277 . S
O31 C28 1.160 . S
O31 Cd32 2.203 . S
Cd32 O31 2.203 . S
Cd32 O34 2.411 . S
Cd32 O35 2.333 . S
Cd32 O36 2.352 . S
Cd32 O40 2.277 . S
Cd32 O41 2.356 . S
C33 O38 1.209 . S
C33 O40 1.226 . S
O34 Cd30 2.273 . S
O34 Cd32 2.411 . S
O34 C37 1.320 . S
O35 Cd32 2.333 . S
O35 C37 1.214 . S
O36 Cd32 2.352 . S
O36 C39 1.258 . S
C37 O34 1.320 . S
C37 O35 1.214 . S
O38 Cd30 2.277 . S
O38 C33 1.209 . S
C39 O36 1.258 . S
C39 O41 1.282 . S
O40 Cd32 2.277 . S
O40 C33 1.226 . S
O41 Cd32 2.356 . S
O41 C39 1.282 . S
C42 O43 1.306 . S
C42 O45 1.160 . S
O43 C42 1.306 . S
O43 Cd44 2.228 . S
Cd44 O43 2.228 . S
Cd44 O48 2.273 1_556 S
Cd44 O52 2.277 . S
O45 C42 1.160 . S
O45 Cd46 2.203 . S
Cd46 O45 2.203 . S
Cd46 O48 2.411 1_556 S
Cd46 O49 2.333 . S
Cd46 O50 2.352 1_556 S
Cd46 O54 2.277 . S
Cd46 O55 2.356 . S
C47 O52 1.209 . S
C47 O54 1.226 . S
O48 Cd44 2.273 1_554 S
O48 Cd46 2.411 1_554 S
O48 C51 1.320 . S
O49 Cd46 2.333 . S
O49 C51 1.214 1_556 S
O50 Cd46 2.352 1_554 S
O50 C53 1.258 1_554 S
C51 O48 1.320 . S
C51 O49 1.214 1_554 S
O52 Cd44 2.277 . S
O52 C47 1.209 . S
C53 O50 1.258 1_556 S
C53 O55 1.282 . S
O54 Cd46 2.277 . S
O54 C47 1.226 . S
O55 Cd46 2.356 . S
O55 C53 1.282 . S
C56 O57 1.306 . S
C56 O59 1.160 . S
O57 C56 1.306 . S
O57 Cd58 2.228 . S
Cd58 O57 2.228 . S
Cd58 O62 2.273 . S
Cd58 O66 2.277 . S
O59 C56 1.160 . S
O59 Cd60 2.203 . S
Cd60 O59 2.203 . S
Cd60 O62 2.411 . S
Cd60 O63 2.333 . S
Cd60 O64 2.352 . S
Cd60 O68 2.277 1_554 S
Cd60 O69 2.356 . S
C61 O66 1.209 1_556 S
C61 O68 1.226 . S
O62 Cd58 2.273 . S
O62 Cd60 2.411 . S
O62 C65 1.320 . S
O63 Cd60 2.333 . S
O63 C65 1.214 . S
O64 Cd60 2.352 . S
O64 C67 1.258 . S
C65 O62 1.320 . S
C65 O63 1.214 . S
O66 Cd58 2.277 . S
O66 C61 1.209 1_554 S
C67 O64 1.258 . S
C67 O69 1.282 . S
O68 Cd60 2.277 1_556 S
O68 C61 1.226 . S
O69 Cd60 2.356 . S
O69 C67 1.282 . S
C70 O71 1.306 . S
C70 O73 1.160 . S
O71 C70 1.306 . S
O71 Cd72 2.228 . S
Cd72 O71 2.228 . S
Cd72 O76 2.273 . S
Cd72 O80 2.277 . S
O73 C70 1.160 . S
O73 Cd74 2.203 . S
Cd74 O73 2.203 . S
Cd74 O76 2.411 . S
Cd74 O77 2.333 . S
Cd74 O78 2.352 . S
Cd74 O82 2.277 . S
Cd74 O83 2.356 . S
C75 O80 1.209 . S
C75 O82 1.226 . S
O76 Cd72 2.273 . S
O76 Cd74 2.411 . S
O76 C79 1.320 . S
O77 Cd74 2.333 . S
O77 C79 1.214 . S
O78 Cd74 2.352 . S
O78 C81 1.258 . S
C79 O76 1.320 . S
C79 O77 1.214 . S
O80 Cd72 2.277 . S
O80 C75 1.209 . S
C81 O78 1.258 . S
C81 O83 1.282 . S
O82 Cd74 2.277 . S
O82 C75 1.226 . S
O83 Cd74 2.356 . S
O83 C81 1.282 . S
C84 O85 1.306 . S
C84 O87 1.160 . S
O85 C84 1.306 . S
O85 Cd86 2.228 . S
Cd86 O85 2.228 . S
Cd86 O90 2.273 . S
Cd86 O94 2.277 . S
O87 C84 1.160 . S
O87 Cd88 2.203 . S
Cd88 O87 2.203 . S
Cd88 O90 2.411 . S
Cd88 O91 2.333 . S
Cd88 O92 2.352 . S
Cd88 O96 2.277 . S
Cd88 O97 2.356 . S
C89 O94 1.209 . S
C89 O96 1.226 . S
O90 Cd86 2.273 . S
O90 Cd88 2.411 . S
O90 C93 1.320 . S
O91 Cd88 2.333 . S
O91 C93 1.214 . S
O92 Cd88 2.352 . S
O92 C95 1.258 . S
C93 O90 1.320 . S
C93 O91 1.214 . S
O94 Cd86 2.277 . S
O94 C89 1.209 . S
C95 O92 1.258 . S
C95 O97 1.282 . S
O96 Cd88 2.277 . S
O96 C89 1.226 . S
O97 Cd88 2.356 . S
O97 C95 1.282 . S
C98 O99 1.306 . S
C98 O101 1.160 . S
O99 C98 1.306 . S
O99 Cd100 2.228 . S
Cd100 O99 2.228 . S
Cd100 O104 2.273 . S
Cd100 O108 2.277 . S
O101 C98 1.160 . S
O101 Cd102 2.203 . S
Cd102 O101 2.203 . S
Cd102 O104 2.411 . S
Cd102 O105 2.333 . S
Cd102 O106 2.352 . S
Cd102 O110 2.277 . S
Cd102 O111 2.356 . S
C103 O108 1.209 . S
C103 O110 1.226 . S
O104 Cd100 2.273 . S
O104 Cd102 2.411 . S
O104 C107 1.320 . S
O105 Cd102 2.333 . S
O105 C107 1.214 . S
O106 Cd102 2.352 . S
O106 C109 1.258 . S
C107 O104 1.320 . S
C107 O105 1.214 . S
O108 Cd100 2.277 . S
O108 C103 1.209 . S
C109 O106 1.258 . S
C109 O111 1.282 . S
O110 Cd102 2.277 . S
O110 C103 1.226 . S
O111 Cd102 2.356 . S
O111 C109 1.282 . S
C112 O113 1.306 . S
C112 O115 1.160 . S
O113 C112 1.306 . S
O113 Cd114 2.228 . S
Cd114 O113 2.228 . S
Cd114 O118 2.273 . S
Cd114 O122 2.277 . S
O115 C112 1.160 . S
O115 Cd116 2.203 . S
Cd116 O115 2.203 . S
Cd116 O118 2.411 . S
Cd116 O119 2.333 . S
Cd116 O120 2.352 . S
Cd116 O124 2.277 . S
Cd116 O125 2.356 . S
C117 O122 1.209 . S
C117 O124 1.226 . S
O118 Cd114 2.273 . S
O118 Cd116 2.411 . S
O118 C121 1.320 . S
O119 Cd116 2.333 . S
O119 C121 1.214 . S
O120 Cd116 2.352 . S
O120 C123 1.258 . S
C121 O118 1.320 . S
C121 O119 1.214 . S
O122 Cd114 2.277 . S
O122 C117 1.209 . S
C123 O120 1.258 . S
C123 O125 1.282 . S
O124 Cd116 2.277 . S
O124 C117 1.226 . S
O125 Cd116 2.356 . S
O125 C123 1.282 . S
C126 O127 1.306 . S
C126 O129 1.160 . S
O127 C126 1.306 . S
O127 Cd128 2.228 . S
Cd128 O127 2.228 . S
Cd128 O132 2.273 . S
Cd128 O136 2.277 . S
O129 C126 1.160 . S
O129 Cd130 2.203 . S
Cd130 O129 2.203 . S
Cd130 O132 2.411 . S
Cd130 O133 2.333 . S
Cd130 O134 2.352 . S
Cd130 O138 2.277 1_556 S
Cd130 O139 2.356 . S
C131 O136 1.209 1_554 S
C131 O138 1.226 . S
O132 Cd128 2.273 . S
O132 Cd130 2.411 . S
O132 C135 1.320 . S
O133 Cd130 2.333 . S
O133 C135 1.214 . S
O134 Cd130 2.352 . S
O134 C137 1.258 . S
C135 O132 1.320 . S
C135 O133 1.214 . S
O136 Cd128 2.277 . S
O136 C131 1.209 1_556 S
C137 O134 1.258 . S
C137 O139 1.282 . S
O138 Cd130 2.277 1_554 S
O138 C131 1.226 . S
O139 Cd130 2.356 . S
O139 C137 1.282 . S
C140 O141 1.306 . S
C140 O143 1.160 . S
O141 C140 1.306 . S
O141 Cd142 2.228 . S
Cd142 O141 2.228 . S
Cd142 O146 2.273 1_554 S
Cd142 O150 2.277 . S
O143 C140 1.160 . S
O143 Cd144 2.203 . S
Cd144 O143 2.203 . S
Cd144 O146 2.411 1_554 S
Cd144 O147 2.333 . S
Cd144 O148 2.352 1_554 S
Cd144 O152 2.277 . S
Cd144 O153 2.356 . S
C145 O150 1.209 . S
C145 O152 1.226 . S
O146 Cd142 2.273 1_556 S
O146 Cd144 2.411 1_556 S
O146 C149 1.320 . S
O147 Cd144 2.333 . S
O147 C149 1.214 1_554 S
O148 Cd144 2.352 1_556 S
O148 C151 1.258 1_556 S
C149 O146 1.320 . S
C149 O147 1.214 1_556 S
O150 Cd142 2.277 . S
O150 C145 1.209 . S
C151 O148 1.258 1_554 S
C151 O153 1.282 . S
O152 Cd144 2.277 . S
O152 C145 1.226 . S
O153 Cd144 2.356 . S
O153 C151 1.282 . S
C154 O155 1.306 . S
C154 O157 1.160 . S
O155 C154 1.306 . S
O155 Cd156 2.228 . S
Cd156 O155 2.228 . S
Cd156 O160 2.273 . S
Cd156 O164 2.277 . S
O157 C154 1.160 . S
O157 Cd158 2.203 . S
Cd158 O157 2.203 . S
Cd158 O160 2.411 . S
Cd158 O161 2.333 . S
Cd158 O162 2.352 . S
Cd158 O166 2.277 . S
Cd158 O167 2.356 . S
C159 O164 1.209 . S
C159 O166 1.226 . S
O160 Cd156 2.273 . S
O160 Cd158 2.411 . S
O160 C163 1.320 . S
O161 Cd158 2.333 . S
O161 C163 1.214 . S
O162 Cd158 2.352 . S
O162 C165 1.258 . S
C163 O160 1.320 . S
C163 O161 1.214 . S
O164 Cd156 2.277 . S
O164 C159 1.209 . S
C165 O162 1.258 . S
C165 O167 1.282 . S
O166 Cd158 2.277 . S
O166 C159 1.226 . S
O167 Cd158 2.356 . S
O167 C165 1.282 . S
H168 C174 0.930 . S
H169 C177 0.930 . S
H170 C178 0.930 . S
H171 C179 0.930 . S
H172 C182 0.930 . S
H173 C183 0.930 . S
C174 H168 0.930 . S
C174 C175 1.355 . S
C174 C176 1.415 . S
C175 C174 1.355 . S
C175 C177 1.419 . S
C176 C174 1.415 . S
C176 C181 1.425 . S
C176 C183 1.409 . S
C177 H169 0.930 . S
C177 C175 1.419 . S
C177 C178 1.362 . S
C178 H170 0.930 . S
C178 C177 1.362 . S
C178 C181 1.409 . S
C179 H171 0.930 . S
C179 C180 1.355 . S
C179 C181 1.415 . S
C180 C179 1.355 . S
C180 C182 1.419 . S
C181 C176 1.425 . S
C181 C178 1.409 . S
C181 C179 1.415 . S
C182 H172 0.930 . S
C182 C180 1.419 . S
C182 C183 1.362 . S
C183 H173 0.930 . S
C183 C176 1.409 . S
C183 C182 1.362 . S
H184 C190 0.930 . S
H185 C193 0.930 . S
H186 C194 0.930 . S
H187 C195 0.930 . S
H188 C198 0.930 . S
H189 C199 0.930 . S
C190 H184 0.930 . S
C190 C191 1.355 . S
C190 C192 1.415 . S
C191 C190 1.355 . S
C191 C193 1.419 . S
C192 C190 1.415 . S
C192 C197 1.425 1_455 S
C192 C199 1.409 . S
C193 H185 0.930 . S
C193 C191 1.419 . S
C193 C194 1.362 1_455 S
C194 H186 0.930 . S
C194 C193 1.362 1_655 S
C194 C197 1.409 . S
C195 H187 0.930 . S
C195 C196 1.355 . S
C195 C197 1.415 . S
C196 C195 1.355 . S
C196 C198 1.419 . S
C197 C192 1.425 1_655 S
C197 C194 1.409 . S
C197 C195 1.415 . S
C198 H188 0.930 . S
C198 C196 1.419 . S
C198 C199 1.362 1_655 S
C199 H189 0.930 . S
C199 C192 1.409 . S
C199 C198 1.362 1_455 S
H200 C206 0.930 . S
H201 C209 0.930 . S
H202 C210 0.930 1_545 S
H203 C211 0.930 . S
H204 C214 0.930 . S
H205 C215 0.930 1_565 S
C206 H200 0.930 . S
C206 C207 1.355 . S
C206 C208 1.415 . S
C207 C206 1.355 . S
C207 C209 1.419 . S
C208 C206 1.415 . S
C208 C213 1.425 1_565 S
C208 C215 1.409 1_565 S
C209 H201 0.930 . S
C209 C207 1.419 . S
C209 C210 1.362 . S
C210 H202 0.930 1_565 S
C210 C209 1.362 . S
C210 C213 1.409 1_565 S
C211 H203 0.930 . S
C211 C212 1.355 . S
C211 C213 1.415 . S
C212 C211 1.355 . S
C212 C214 1.419 . S
C213 C208 1.425 1_545 S
C213 C210 1.409 1_545 S
C213 C211 1.415 . S
C214 H204 0.930 . S
C214 C212 1.419 . S
C214 C215 1.362 . S
C215 H205 0.930 1_545 S
C215 C208 1.409 1_545 S
C215 C214 1.362 . S
H216 C222 0.930 . S
H217 C225 0.930 . S
H218 C226 0.930 . S
H219 C227 0.930 . S
H220 C230 0.930 . S
H221 C231 0.930 . S
C222 H216 0.930 . S
C222 C223 1.355 . S
C222 C224 1.415 . S
C223 C222 1.355 . S
C223 C225 1.419 . S
C224 C222 1.415 . S
C224 C229 1.425 . S
C224 C231 1.409 . S
C225 H217 0.930 . S
C225 C223 1.419 . S
C225 C226 1.362 . S
C226 H218 0.930 . S
C226 C225 1.362 . S
C226 C229 1.409 . S
C227 H219 0.930 . S
C227 C228 1.355 . S
C227 C229 1.415 . S
C228 C227 1.355 . S
C228 C230 1.419 . S
C229 C224 1.425 . S
C229 C226 1.409 . S
C229 C227 1.415 . S
C230 H220 0.930 . S
C230 C228 1.419 . S
C230 C231 1.362 . S
C231 H221 0.930 . S
C231 C224 1.409 . S
C231 C230 1.362 . S
H232 C238 0.930 . S
H233 C241 0.930 . S
H234 C242 0.930 . S
H235 C243 0.930 . S
H236 C246 0.930 . S
H237 C247 0.930 . S
C238 H232 0.930 . S
C238 C239 1.355 . S
C238 C240 1.415 . S
C239 C238 1.355 . S
C239 C241 1.419 . S
C240 C238 1.415 . S
C240 C245 1.425 1_455 S
C240 C247 1.409 . S
C241 H233 0.930 . S
C241 C239 1.419 . S
C241 C242 1.362 1_455 S
C242 H234 0.930 . S
C242 C241 1.362 1_655 S
C242 C245 1.409 . S
C243 H235 0.930 . S
C243 C244 1.355 . S
C243 C245 1.415 . S
C244 C243 1.355 . S
C244 C246 1.419 . S
C245 C240 1.425 1_655 S
C245 C242 1.409 . S
C245 C243 1.415 . S
C246 H236 0.930 . S
C246 C244 1.419 . S
C246 C247 1.362 1_655 S
C247 H237 0.930 . S
C247 C240 1.409 . S
C247 C246 1.362 1_455 S
H248 C254 0.930 . S
H249 C257 0.930 . S
H250 C258 0.930 . S
H251 C259 0.930 . S
H252 C262 0.930 . S
H253 C263 0.930 . S
C254 H248 0.930 . S
C254 C255 1.355 . S
C254 C256 1.415 1_545 S
C255 C254 1.355 . S
C255 C257 1.419 . S
C256 C254 1.415 1_565 S
C256 C261 1.425 1_566 S
C256 C263 1.409 . S
C257 H249 0.930 . S
C257 C255 1.419 . S
C257 C258 1.362 1_556 S
C258 H250 0.930 . S
C258 C257 1.362 1_554 S
C258 C261 1.409 . S
C259 H251 0.930 . S
C259 C260 1.355 . S
C259 C261 1.415 1_565 S
C260 C259 1.355 . S
C260 C262 1.419 . S
C261 C256 1.425 1_544 S
C261 C258 1.409 . S
C261 C259 1.415 1_545 S
C262 H252 0.930 . S
C262 C260 1.419 . S
C262 C263 1.362 1_554 S
C263 H253 0.930 . S
C263 C256 1.409 . S
C263 C262 1.362 1_556 S
H264 C270 0.930 . S
H265 C273 0.930 . S
H266 C274 0.930 . S
H267 C275 0.930 . S
H268 C278 0.930 . S
H269 C279 0.930 . S
C270 H264 0.930 . S
C270 C271 1.355 . S
C270 C272 1.415 . S
C271 C270 1.355 . S
C271 C273 1.419 . S
C272 C270 1.415 . S
C272 C277 1.425 . S
C272 C279 1.409 . S
C273 H265 0.930 . S
C273 C271 1.419 . S
C273 C274 1.362 . S
C274 H266 0.930 . S
C274 C273 1.362 . S
C274 C277 1.409 . S
C275 H267 0.930 . S
C275 C276 1.355 . S
C275 C277 1.415 . S
C276 C275 1.355 . S
C276 C278 1.419 . S
C277 C272 1.425 . S
C277 C274 1.409 . S
C277 C275 1.415 . S
C278 H268 0.930 . S
C278 C276 1.419 . S
C278 C279 1.362 . S
C279 H269 0.930 . S
C279 C272 1.409 . S
C279 C278 1.362 . S
H280 C286 0.930 . S
H281 C289 0.930 . S
H282 C290 0.930 . S
H283 C291 0.930 . S
H284 C294 0.930 . S
H285 C295 0.930 . S
C286 H280 0.930 . S
C286 C287 1.355 . S
C286 C288 1.415 . S
C287 C286 1.355 . S
C287 C289 1.419 . S
C288 C286 1.415 . S
C288 C293 1.425 . S
C288 C295 1.409 . S
C289 H281 0.930 . S
C289 C287 1.419 . S
C289 C290 1.362 . S
C290 H282 0.930 . S
C290 C289 1.362 . S
C290 C293 1.409 . S
C291 H283 0.930 . S
C291 C292 1.355 . S
C291 C293 1.415 . S
C292 C291 1.355 . S
C292 C294 1.419 . S
C293 C288 1.425 . S
C293 C290 1.409 . S
C293 C291 1.415 . S
C294 H284 0.930 . S
C294 C292 1.419 . S
C294 C295 1.362 . S
C295 H285 0.930 . S
C295 C288 1.409 . S
C295 C294 1.362 . S
H296 C302 0.930 . S
H297 C305 0.930 . S
H298 C306 0.930 . S
H299 C307 0.930 . S
H300 C310 0.930 . S
H301 C311 0.930 . S
C302 H296 0.930 . S
C302 C303 1.355 . S
C302 C304 1.415 . S
C303 C302 1.355 . S
C303 C305 1.419 . S
C304 C302 1.415 . S
C304 C309 1.425 . S
C304 C311 1.409 . S
C305 H297 0.930 . S
C305 C303 1.419 . S
C305 C306 1.362 . S
C306 H298 0.930 . S
C306 C305 1.362 . S
C306 C309 1.409 . S
C307 H299 0.930 . S
C307 C308 1.355 . S
C307 C309 1.415 . S
C308 C307 1.355 . S
C308 C310 1.419 . S
C309 C304 1.425 . S
C309 C306 1.409 . S
C309 C307 1.415 . S
C310 H300 0.930 . S
C310 C308 1.419 . S
C310 C311 1.362 . S
C311 H301 0.930 . S
C311 C304 1.409 . S
C311 C310 1.362 . S
H312 C318 0.930 . S
H313 C321 0.930 1_554 S
H314 C322 0.930 1_554 S
H315 C323 0.930 1_554 S
H316 C326 0.930 . S
H317 C327 0.930 . S
C318 H312 0.930 . S
C318 C319 1.355 . S
C318 C320 1.415 . S
C319 C318 1.355 . S
C319 C321 1.419 . S
C320 C318 1.415 . S
C320 C325 1.425 . S
C320 C327 1.409 . S
C321 H313 0.930 1_556 S
C321 C319 1.419 . S
C321 C322 1.362 . S
C322 H314 0.930 1_556 S
C322 C321 1.362 . S
C322 C325 1.409 . S
C323 H315 0.930 1_556 S
C323 C324 1.355 . S
C323 C325 1.415 . S
C324 C323 1.355 . S
C324 C326 1.419 . S
C325 C320 1.425 . S
C325 C322 1.409 . S
C325 C323 1.415 . S
C326 H316 0.930 . S
C326 C324 1.419 . S
C326 C327 1.362 . S
C327 H317 0.930 . S
C327 C320 1.409 . S
C327 C326 1.362 . S
H328 C334 0.930 . S
H329 C337 0.930 . S
H330 C338 0.930 . S
H331 C339 0.930 . S
H332 C342 0.930 . S
H333 C343 0.930 . S
C334 H328 0.930 . S
C334 C335 1.355 . S
C334 C336 1.415 . S
C335 C334 1.355 . S
C335 C337 1.419 . S
C336 C334 1.415 . S
C336 C341 1.425 . S
C336 C343 1.409 . S
C337 H329 0.930 . S
C337 C335 1.419 . S
C337 C338 1.362 . S
C338 H330 0.930 . S
C338 C337 1.362 . S
C338 C341 1.409 . S
C339 H331 0.930 . S
C339 C340 1.355 . S
C339 C341 1.415 . S
C340 C339 1.355 . S
C340 C342 1.419 . S
C341 C336 1.425 . S
C341 C338 1.409 . S
C341 C339 1.415 . S
C342 H332 0.930 . S
C342 C340 1.419 . S
C342 C343 1.362 . S
C343 H333 0.930 . S
C343 C336 1.409 . S
C343 C342 1.362 . S
H344 C350 0.930 . S
H345 C353 0.930 . S
H346 C354 0.930 . S
H347 C355 0.930 . S
H348 C358 0.930 . S
H349 C359 0.930 . S
C350 H344 0.930 . S
C350 C351 1.355 . S
C350 C352 1.415 . S
C351 C350 1.355 . S
C351 C353 1.419 . S
C352 C350 1.415 . S
C352 C357 1.425 . S
C352 C359 1.409 . S
C353 H345 0.930 . S
C353 C351 1.419 . S
C353 C354 1.362 . S
C354 H346 0.930 . S
C354 C353 1.362 . S
C354 C357 1.409 . S
C355 H347 0.930 . S
C355 C356 1.355 . S
C355 C357 1.415 . S
C356 C355 1.355 . S
C356 C358 1.419 . S
C357 C352 1.425 . S
C357 C354 1.409 . S
C357 C355 1.415 . S
C358 H348 0.930 . S
C358 C356 1.419 . S
C358 C359 1.362 . S
C359 H349 0.930 . S
C359 C352 1.409 . S
C359 C358 1.362 . S
H360 C366 0.930 . S
H361 C369 0.930 . S
H362 C370 0.930 . S
H363 C371 0.930 . S
H364 C374 0.930 . S
H365 C375 0.930 . S
C366 H360 0.930 . S
C366 C367 1.355 . S
C366 C368 1.415 . S
C367 C366 1.355 . S
C367 C369 1.419 . S
C368 C366 1.415 . S
C368 C373 1.425 . S
C368 C375 1.409 . S
C369 H361 0.930 . S
C369 C367 1.419 . S
C369 C370 1.362 . S
C370 H362 0.930 . S
C370 C369 1.362 . S
C370 C373 1.409 . S
C371 H363 0.930 . S
C371 C372 1.355 . S
C371 C373 1.415 . S
C372 C371 1.355 . S
C372 C374 1.419 . S
C373 C368 1.425 . S
C373 C370 1.409 . S
C373 C371 1.415 . S
C374 H364 0.930 . S
C374 C372 1.419 . S
C374 C375 1.362 . S
C375 H365 0.930 . S
C375 C368 1.409 . S
C375 C374 1.362 . S
H376 C382 0.930 . S
H377 C385 0.930 . S
H378 C386 0.930 . S
H379 C387 0.930 . S
H380 C390 0.930 . S
H381 C391 0.930 . S
C382 H376 0.930 . S
C382 C383 1.355 . S
C382 C384 1.415 . S
C383 C382 1.355 . S
C383 C385 1.419 . S
C384 C382 1.415 . S
C384 C389 1.425 1_655 S
C384 C391 1.409 1_655 S
C385 H377 0.930 . S
C385 C383 1.419 . S
C385 C386 1.362 . S
C386 H378 0.930 . S
C386 C385 1.362 . S
C386 C389 1.409 1_655 S
C387 H379 0.930 . S
C387 C388 1.355 . S
C387 C389 1.415 . S
C388 C387 1.355 . S
C388 C390 1.419 . S
C389 C384 1.425 1_455 S
C389 C386 1.409 1_455 S
C389 C387 1.415 . S
C390 H380 0.930 . S
C390 C388 1.419 . S
C390 C391 1.362 . S
C391 H381 0.930 . S
C391 C384 1.409 1_455 S
C391 C390 1.362 . S
H392 C398 0.930 . S
H393 C401 0.930 . S
H394 C402 0.930 . S
H395 C403 0.930 . S
H396 C406 0.930 . S
H397 C407 0.930 . S
C398 H392 0.930 . S
C398 C399 1.355 . S
C398 C400 1.415 . S
C399 C398 1.355 . S
C399 C401 1.419 . S
C400 C398 1.415 . S
C400 C405 1.425 1_564 S
C400 C407 1.409 1_564 S
C401 H393 0.930 . S
C401 C399 1.419 . S
C401 C402 1.362 . S
C402 H394 0.930 . S
C402 C401 1.362 . S
C402 C405 1.409 1_564 S
C403 H395 0.930 . S
C403 C404 1.355 . S
C403 C405 1.415 . S
C404 C403 1.355 . S
C404 C406 1.419 . S
C405 C400 1.425 1_546 S
C405 C402 1.409 1_546 S
C405 C403 1.415 . S
C406 H396 0.930 . S
C406 C404 1.419 . S
C406 C407 1.362 . S
C407 H397 0.930 . S
C407 C400 1.409 1_546 S
C407 C406 1.362 . S
H408 C414 0.930 . S
H409 C417 0.930 . S
H410 C418 0.930 . S
H411 C419 0.930 . S
H412 C422 0.930 . S
H413 C423 0.930 . S
C414 H408 0.930 . S
C414 C415 1.355 . S
C414 C416 1.415 . S
C415 C414 1.355 . S
C415 C417 1.419 . S
C416 C414 1.415 . S
C416 C421 1.425 . S
C416 C423 1.409 . S
C417 H409 0.930 . S
C417 C415 1.419 . S
C417 C418 1.362 . S
C418 H410 0.930 . S
C418 C417 1.362 . S
C418 C421 1.409 . S
C419 H411 0.930 . S
C419 C420 1.355 . S
C419 C421 1.415 . S
C420 C419 1.355 . S
C420 C422 1.419 . S
C421 C416 1.425 . S
C421 C418 1.409 . S
C421 C419 1.415 . S
C422 H412 0.930 . S
C422 C420 1.419 . S
C422 C423 1.362 . S
C423 H413 0.930 . S
C423 C416 1.409 . S
C423 C422 1.362 . S
H424 C430 0.930 . S
H425 C433 0.930 . S
H426 C434 0.930 . S
H427 C435 0.930 . S
H428 C438 0.930 . S
H429 C439 0.930 . S
C430 H424 0.930 . S
C430 C431 1.355 . S
C430 C432 1.415 1_455 S
C431 C430 1.355 . S
C431 C433 1.419 . S
C432 C430 1.415 1_655 S
C432 C437 1.425 1_655 S
C432 C439 1.409 . S
C433 H425 0.930 . S
C433 C431 1.419 . S
C433 C434 1.362 . S
C434 H426 0.930 . S
C434 C433 1.362 . S
C434 C437 1.409 . S
C435 H427 0.930 . S
C435 C436 1.355 . S
C435 C437 1.415 1_655 S
C436 C435 1.355 . S
C436 C438 1.419 . S
C437 C432 1.425 1_455 S
C437 C434 1.409 . S
C437 C435 1.415 1_455 S
C438 H428 0.930 . S
C438 C436 1.419 . S
C438 C439 1.362 . S
C439 H429 0.930 . S
C439 C432 1.409 . S
C439 C438 1.362 . S
H440 C446 0.930 . S
H441 C449 0.930 . S
H442 C450 0.930 . S
H443 C451 0.930 . S
H444 C454 0.930 . S
H445 C455 0.930 . S
C446 H440 0.930 . S
C446 C447 1.355 . S
C446 C448 1.417 1_565 S
C447 C446 1.355 . S
C447 C449 1.419 . S
C448 C446 1.417 1_545 S
C448 C453 1.430 1_545 S
C448 C455 1.405 . S
C449 H441 0.930 . S
C449 C447 1.419 . S
C449 C450 1.362 . S
C450 H442 0.930 . S
C450 C449 1.362 . S
C450 C453 1.405 . S
C451 H443 0.930 . S
C451 C452 1.355 . S
C451 C453 1.417 1_545 S
C452 C451 1.355 . S
C452 C454 1.419 . S
C453 C448 1.430 1_565 S
C453 C450 1.405 . S
C453 C451 1.417 1_565 S
C454 H444 0.930 . S
C454 C452 1.419 . S
C454 C455 1.362 . S
C455 H445 0.930 . S
C455 C448 1.405 . S
C455 C454 1.362 . S
H456 C462 0.930 . S
H457 C465 0.930 . S
H458 C466 0.930 . S
H459 C467 0.930 . S
H460 C470 0.930 . S
H461 C471 0.930 . S
C462 H456 0.930 . S
C462 C463 1.355 . S
C462 C464 1.415 . S
C463 C462 1.355 . S
C463 C465 1.419 . S
C464 C462 1.415 . S
C464 C469 1.425 . S
C464 C471 1.409 . S
C465 H457 0.930 . S
C465 C463 1.419 . S
C465 C466 1.362 . S
C466 H458 0.930 . S
C466 C465 1.362 . S
C466 C469 1.409 . S
C467 H459 0.930 . S
C467 C468 1.355 . S
C467 C469 1.415 . S
C468 C467 1.355 . S
C468 C470 1.419 . S
C469 C464 1.425 . S
C469 C466 1.409 . S
C469 C467 1.415 . S
C470 H460 0.930 . S
C470 C468 1.419 . S
C470 C471 1.362 . S
C471 H461 0.930 . S
C471 C464 1.409 . S
C471 C470 1.362 . S
H472 C478 0.930 . S
H473 C481 0.930 . S
H474 C482 0.930 . S
H475 C483 0.930 . S
H476 C486 0.930 . S
H477 C487 0.930 . S
C478 H472 0.930 . S
C478 C479 1.355 . S
C478 C480 1.415 . S
C479 C478 1.355 . S
C479 C481 1.419 . S
C480 C478 1.415 . S
C480 C485 1.425 . S
C480 C487 1.409 . S
C481 H473 0.930 . S
C481 C479 1.419 . S
C481 C482 1.362 . S
C482 H474 0.930 . S
C482 C481 1.362 . S
C482 C485 1.409 . S
C483 H475 0.930 . S
C483 C484 1.355 . S
C483 C485 1.415 . S
C484 C483 1.355 . S
C484 C486 1.419 . S
C485 C480 1.425 . S
C485 C482 1.409 . S
C485 C483 1.415 . S
C486 H476 0.930 . S
C486 C484 1.419 . S
C486 C487 1.362 . S
C487 H477 0.930 . S
C487 C480 1.409 . S
C487 C486 1.362 . S
H488 C494 0.930 1_554 S
H489 C497 0.930 . S
H490 C498 0.930 . S
H491 C499 0.930 . S
H492 C502 0.930 . S
H493 C503 0.930 . S
C494 H488 0.930 1_556 S
C494 C495 1.355 . S
C494 C496 1.415 . S
C495 C494 1.355 . S
C495 C497 1.419 . S
C496 C494 1.415 . S
C496 C501 1.425 . S
C496 C503 1.409 . S
C497 H489 0.930 . S
C497 C495 1.419 . S
C497 C498 1.362 . S
C498 H490 0.930 . S
C498 C497 1.362 . S
C498 C501 1.409 . S
C499 H491 0.930 . S
C499 C500 1.355 . S
C499 C501 1.415 . S
C500 C499 1.355 . S
C500 C502 1.419 . S
C501 C496 1.425 . S
C501 C498 1.409 . S
C501 C499 1.415 . S
C502 H492 0.930 . S
C502 C500 1.419 . S
C502 C503 1.362 . S
C503 H493 0.930 . S
C503 C496 1.409 . S
C503 C502 1.362 . S
H504 C510 0.930 . S
H505 C513 0.930 . S
H506 C514 0.930 . S
H507 C515 0.930 . S
H508 C518 0.930 . S
H509 C519 0.930 . S
C510 H504 0.930 . S
C510 C511 1.355 . S
C510 C512 1.415 . S
C511 C510 1.355 . S
C511 C513 1.419 . S
C512 C510 1.415 . S
C512 C517 1.425 . S
C512 C519 1.409 1_554 S
C513 H505 0.930 . S
C513 C511 1.419 . S
C513 C514 1.362 . S
C514 H506 0.930 . S
C514 C513 1.362 . S
C514 C517 1.409 . S
C515 H507 0.930 . S
C515 C516 1.355 . S
C515 C517 1.415 . S
C516 C515 1.355 . S
C516 C518 1.419 1_554 S
C517 C512 1.425 . S
C517 C514 1.409 . S
C517 C515 1.415 . S
C518 H508 0.930 . S
C518 C516 1.419 1_556 S
C518 C519 1.362 . S
C519 H509 0.930 . S
C519 C512 1.409 1_556 S
C519 C518 1.362 . S
H520 C526 0.930 . S
H521 C529 0.930 . S
H522 C530 0.930 . S
H523 C531 0.930 . S
H524 C534 0.930 . S
H525 C535 0.930 . S
C526 H520 0.930 . S
C526 C527 1.355 . S
C526 C528 1.415 . S
C527 C526 1.355 . S
C527 C529 1.419 . S
C528 C526 1.415 . S
C528 C533 1.425 . S
C528 C535 1.409 . S
C529 H521 0.930 . S
C529 C527 1.419 . S
C529 C530 1.362 . S
C530 H522 0.930 . S
C530 C529 1.362 . S
C530 C533 1.409 . S
C531 H523 0.930 . S
C531 C532 1.355 . S
C531 C533 1.415 . S
C532 C531 1.355 . S
C532 C534 1.419 . S
C533 C528 1.425 . S
C533 C530 1.409 . S
C533 C531 1.415 . S
C534 H524 0.930 . S
C534 C532 1.419 . S
C534 C535 1.362 . S
C535 H525 0.930 . S
C535 C528 1.409 . S
C535 C534 1.362 . S
H536 C542 0.930 . S
H537 C545 0.930 . S
H538 C546 0.930 . S
H539 C547 0.930 . S
H540 C550 0.930 . S
H541 C551 0.930 . S
C542 H536 0.930 . S
C542 C543 1.355 . S
C542 C544 1.415 . S
C543 C542 1.355 . S
C543 C545 1.419 . S
C544 C542 1.415 . S
C544 C549 1.425 . S
C544 C551 1.409 . S
C545 H537 0.930 . S
C545 C543 1.419 . S
C545 C546 1.362 . S
C546 H538 0.930 . S
C546 C545 1.362 . S
C546 C549 1.409 . S
C547 H539 0.930 . S
C547 C548 1.355 . S
C547 C549 1.415 . S
C548 C547 1.355 . S
C548 C550 1.419 . S
C549 C544 1.425 . S
C549 C546 1.409 . S
C549 C547 1.415 . S
C550 H540 0.930 . S
C550 C548 1.419 . S
C550 C551 1.362 . S
C551 H541 0.930 . S
C551 C544 1.409 . S
C551 C550 1.362 . S
C175 C131 1.565 . S
C180 C5 1.582 . S
C191 C19 1.568 . S
C196 C145 1.591 . S
C207 C159 1.569 . S
C212 C33 1.592 . S
C223 C89 1.596 . S
C228 C47 1.587 . S
C239 C103 1.565 . S
C244 C61 1.584 . S
C255 C117 1.597 . S
C260 C75 1.579 . S
C271 C84 1.518 . S
C276 C0 1.485 . S
C287 C14 1.512 . S
C292 C98 1.552 . S
C303 C112 1.499 . S
C308 C28 1.499 . S
C319 C42 1.517 . S
C324 C126 1.486 . S
C335 C140 1.484 . S
C340 C56 1.520 . S
C351 C70 1.528 . S
C356 C154 1.544 . S
C367 C135 1.350 . S
C372 C9 1.354 . S
C383 C149 1.367 . S
C388 C23 1.346 . S
C399 C163 1.368 . S
C404 C37 1.346 . S
C415 C51 1.364 . S
C420 C93 1.346 . S
C431 C107 1.363 . S
C436 C65 1.346 . S
C447 C79 1.349 . S
C452 C121 1.373 . S
C463 C11 1.233 . S
C468 C123 1.255 . S
C479 C137 1.259 . S
C484 C25 1.238 . S
C495 C151 1.231 1_556 S
C500 C39 1.253 . S
C511 C165 1.268 . S
C516 C53 1.259 1_554 S
C527 C95 1.224 . S
C532 C67 1.229 . S
C543 C109 1.268 . S
C548 C81 1.254 . S
