# Generated by pormake.
# Topology uon, (4)-cn, num edge types: 1
# Building blocks:
#     Node 0, Type 0, BuildingBlock: MUDLON_clean_sbu_0, # of connection points: 4
#     Node 1, Type 0, BuildingBlock: MUDLON_clean_sbu_0, # of connection points: 4
#     Node 2, Type 0, BuildingBlock: MUDLON_clean_sbu_0, # of connection points: 4
#     Node 3, Type 0, BuildingBlock: MUDLON_clean_sbu_0, # of connection points: 4
#     Node 4, Type 0, BuildingBlock: MUDLON_clean_sbu_0, # of connection points: 4
#     Node 5, Type 0, BuildingBlock: MUDLON_clean_sbu_0, # of connection points: 4
#     Edge 6, Type (0, 0), BuildingBlock: XUDNAN_clean_linker_2, # of connection points: 2
#     Edge 7, Type (0, 0), BuildingBlock: XUDNAN_clean_linker_2, # of connection points: 2
#     Edge 8, Type (0, 0), BuildingBlock: XUDNAN_clean_linker_2, # of connection points: 2
#     Edge 9, Type (0, 0), BuildingBlock: XUDNAN_clean_linker_2, # of connection points: 2
#     Edge 10, Type (0, 0), BuildingBlock: XUDNAN_clean_linker_2, # of connection points: 2
#     Edge 11, Type (0, 0), BuildingBlock: XUDNAN_clean_linker_2, # of connection points: 2
#     Edge 12, Type (0, 0), BuildingBlock: XUDNAN_clean_linker_2, # of connection points: 2
#     Edge 13, Type (0, 0), BuildingBlock: XUDNAN_clean_linker_2, # of connection points: 2
#     Edge 14, Type (0, 0), BuildingBlock: XUDNAN_clean_linker_2, # of connection points: 2
#     Edge 15, Type (0, 0), BuildingBlock: XUDNAN_clean_linker_2, # of connection points: 2
#     Edge 16, Type (0, 0), BuildingBlock: XUDNAN_clean_linker_2, # of connection points: 2
#     Edge 17, Type (0, 0), BuildingBlock: XUDNAN_clean_linker_2, # of connection points: 2
# Relax obj value: 0.184
# Max RMSD: 0.128
# Mean RMSD: 0.128
data_MOF--net-uon--node1-MUDLON_clean_sbu_0--edge1-XUDNAN_clean_linker_2
_symmetry_space_group_name_H-M    P1
_symmetry_Int_Tables_number       1
_symmetry_cell_setting            triclinic
loop_
_symmetry_equiv_pos_as_xyz
'x, y, z'
_cell_length_a     37.818992
_cell_length_b     37.87147
_cell_length_c     16.870356
_cell_angle_alpha  90.988411
_cell_angle_beta   89.227547
_cell_angle_gamma 119.83313
loop_
_atom_site_label
_atom_site_type_symbol
_atom_site_fract_x
_atom_site_fract_y
_atom_site_fract_z
_atom_type_partial_charge
Mg0 Mg 0.24755 0.45067 0.12441 0.0
C1 C 0.31988 0.52009 0.05551 0.0
O2 O 0.3333 0.49623 0.08043 0.0
C3 C 0.16165 0.40638 0.19453 0.0
O4 O 0.17419 0.38137 0.21668 0.0
C5 C 0.27991 0.39473 0.07079 0.0
O6 O 0.30298 0.4123 0.13293 0.0
O7 O 0.25243 0.40355 0.054 0.0
O8 O 0.28211 0.50818 0.06277 0.0
O9 O 0.27852 0.45946 0.23711 0.0
C10 C 0.29945 0.49327 0.27374 0.0
O11 O 0.3197 0.49431 0.33721 0.0
O12 O 0.18516 0.43679 0.15204 0.0
Mg13 Mg 0.80679 0.24969 0.46239 0.0
C14 C 0.79734 0.28976 0.31457 0.0
O15 O 0.83375 0.2952 0.29819 0.0
C16 C 0.80984 0.17156 0.46649 0.0
O17 O 0.84901 0.198 0.47035 0.0
C18 C 0.89246 0.32249 0.43538 0.0
O19 O 0.87264 0.34261 0.44461 0.0
O20 O 0.87322 0.2841 0.44486 0.0
O21 O 0.77821 0.26912 0.37492 0.0
O22 O 0.78209 0.25622 0.57568 0.0
C23 C 0.76541 0.27823 0.58072 0.0
O24 O 0.77153 0.30364 0.52319 0.0
O25 O 0.78493 0.1845 0.45747 0.0
Mg26 Mg 0.59972 0.81037 0.69472 0.0
C27 C 0.52999 0.7981 0.60733 0.0
O28 O 0.5397 0.82896 0.6562 0.0
C29 C 0.65512 0.79152 0.78149 0.0
O30 O 0.64888 0.81546 0.82989 0.0
C31 C 0.67196 0.88646 0.63944 0.0
O32 O 0.68315 0.85904 0.62751 0.0
O33 O 0.63723 0.87535 0.67073 0.0
O34 O 0.55329 0.7828 0.60373 0.0
O35 O 0.55984 0.79257 0.79831 0.0
C36 C 0.54637 0.75499 0.81132 0.0
O37 O 0.5598 0.7353 0.76681 0.0
O38 O 0.6388 0.78381 0.71319 0.0
Mg39 Mg 0.80749 0.56566 0.92189 0.0
C40 C 0.73684 0.52264 0.81694 0.0
O41 O 0.72502 0.53924 0.87261 0.0
C42 C 0.8945 0.62839 0.95676 0.0
O43 O 0.87556 0.64694 0.98575 0.0
C44 C 0.78801 0.62952 0.87796 0.0
O45 O 0.79923 0.62052 0.81002 0.0
O46 O 0.78925 0.61162 0.94025 0.0
O47 O 0.77326 0.52905 0.81893 0.0
O48 O 0.79269 0.52227 0.01694 0.0
C49 C 0.75784 0.49212 0.03298 0.0
O50 O 0.72545 0.48788 0.99664 0.0
O51 O 0.87394 0.59488 0.91899 0.0
Mg52 Mg 0.24939 0.77823 0.2657 0.0
C53 C 0.2595 0.72199 0.15379 0.0
O54 O 0.21992 0.70706 0.14991 0.0
C55 C 0.27011 0.85729 0.34507 0.0
O56 O 0.25049 0.83047 0.40067 0.0
C57 C 0.16482 0.75921 0.20642 0.0
O58 O 0.18252 0.79894 0.20003 0.0
O59 O 0.18454 0.74361 0.23644 0.0
O60 O 0.28103 0.75716 0.1851 0.0
O61 O 0.26658 0.76083 0.37436 0.0
C62 C 0.26643 0.72716 0.37604 0.0
O63 O 0.24417 0.69858 0.32429 0.0
O64 O 0.2741 0.8444 0.27702 0.0
Mg65 Mg 0.4336 0.21959 0.64547 0.0
C66 C 0.48915 0.19164 0.72039 0.0
O67 O 0.46569 0.15703 0.68347 0.0
C68 C 0.39738 0.24999 0.77564 0.0
O69 O 0.43155 0.25824 0.81055 0.0
C70 C 0.38227 0.12997 0.59209 0.0
O71 O 0.37214 0.12544 0.66757 0.0
O72 O 0.40639 0.16563 0.56661 0.0
O73 O 0.47894 0.21895 0.72266 0.0
O74 O 0.47761 0.27362 0.58177 0.0
C75 C 0.48438 0.30824 0.60715 0.0
O76 O 0.45774 0.30973 0.65577 0.0
O77 O 0.38944 0.23239 0.70783 0.0
H78 H 0.34115 0.37649 0.08545 0.0
H79 H 0.23818 0.35168 0.93735 0.0
H80 H 0.25478 0.30912 0.84843 0.0
H81 H 0.40874 0.3862 0.92892 0.0
H82 H 0.43249 0.36267 0.98201 0.0
H83 H 0.41093 0.38903 0.03567 0.0
H84 H 0.36576 0.32415 0.11703 0.0
H85 H 0.38721 0.29757 0.06359 0.0
H86 H 0.33278 0.27696 0.06595 0.0
H87 H 0.28502 0.271 0.77247 0.0
H88 H 0.32612 0.24205 0.71653 0.0
H89 H 0.40908 0.29269 0.91522 0.0
C90 C 0.32171 0.36182 0.03483 0.0
C91 C 0.28816 0.36738 0.01877 0.0
C92 C 0.26393 0.34784 0.95123 0.0
C93 C 0.27314 0.32357 0.90036 0.0
C94 C 0.30669 0.31907 0.91772 0.0
C95 C 0.33054 0.33769 0.9835 0.0
C96 C 0.36573 0.32937 0.98789 0.0
C97 C 0.4069 0.36918 0.98333 0.0
C98 C 0.36267 0.30559 0.06308 0.0
C99 C 0.35828 0.30336 0.91399 0.0
C100 C 0.324 0.29754 0.87433 0.0
C101 C 0.31176 0.27525 0.80342 0.0
C102 C 0.33531 0.25886 0.77209 0.0
C103 C 0.37084 0.26487 0.81141 0.0
C104 C 0.38203 0.28721 0.88369 0.0
H105 H 0.94368 0.29089 0.41054 0.0
H106 H 0.93649 0.40094 0.38341 0.0
H107 H 1.00384 0.43396 0.31769 0.0
H108 H 0.05257 0.34193 0.45139 0.0
H109 H 0.06 0.3046 0.39749 0.0
H110 H 1.01157 0.29 0.44402 0.0
H111 H 0.97553 0.26211 0.30925 0.0
H112 H 1.02387 0.27696 0.26215 0.0
H113 H 0.99148 0.29515 0.22472 0.0
H114 H 0.07088 0.45415 0.24877 0.0
H115 H 0.13471 0.46157 0.19156 0.0
H116 H 0.09931 0.33921 0.26645 0.0
C117 C 0.95642 0.32207 0.39154 0.0
C118 C 0.93464 0.34327 0.40243 0.0
C119 C 0.9525 0.38403 0.3763 0.0
C120 C 0.99076 0.40306 0.33851 0.0
C121 C 1.01108 0.38112 0.3276 0.0
C122 C 0.99476 0.34168 0.35415 0.0
C123 C 1.02297 0.3249 0.33517 0.0
C124 C 0.03765 0.31477 0.41157 0.0
C125 C 1.00221 0.28757 0.27951 0.0
C126 C 0.05755 0.36096 0.29344 0.0
C127 C 0.04999 0.393 0.28923 0.0
C128 C 0.0772 0.42931 0.25213 0.0
C129 C 0.11332 0.43317 0.21941 0.0
C130 C 0.12213 0.40102 0.22444 0.0
C131 C 0.09361 0.36442 0.26176 0.0
H132 H 0.7325 0.1126 0.51038 0.0
H133 H 0.85396 0.1324 0.46102 0.0
H134 H 0.83147 0.06167 0.49909 0.0
H135 H 0.71471 0.05304 0.68232 0.0
H136 H 0.66142 0.01896 0.66295 0.0
H137 H 0.6859 0.07025 0.6266 0.0
H138 H 0.66341 0.04297 0.48355 0.0
H139 H 0.63849 0.99158 0.51956 0.0
H140 H 0.67626 1.00661 0.44186 0.0
H141 H 0.79683 0.98994 0.54591 0.0
H142 H 0.75194 0.92098 0.5968 0.0
H143 H 0.653 0.94753 0.62043 0.0
C144 C 0.75417 0.10184 0.50628 0.0
C145 C 0.79498 0.12799 0.48215 0.0
C146 C 0.82257 0.11293 0.47906 0.0
C147 C 0.81008 0.0728 0.50063 0.0
C148 C 0.76993 0.0481 0.52561 0.0
C149 C 0.74231 0.06191 0.52841 0.0
C150 C 0.70134 0.02944 0.56024 0.0
C151 C 0.69021 0.04379 0.63762 0.0
C152 C 0.6679 0.01691 0.49755 0.0
C153 C 0.71037 0.99532 0.57521 0.0
C154 C 0.75008 1.00678 0.5544 0.0
C155 C 0.76565 0.98058 0.56227 0.0
C156 C 0.73987 0.94144 0.59135 0.0
C157 C 0.69894 0.9288 0.61282 0.0
C158 C 0.68419 0.95635 0.6051 0.0
H159 H 0.75964 0.65278 0.7525 0.0
H160 H 0.77693 0.6681 0.00717 0.0
H161 H 0.74694 0.7132 0.009 0.0
H162 H 0.78122 0.75483 0.70914 0.0
H163 H 0.74232 0.73821 0.63447 0.0
H164 H 0.76685 0.7088 0.65286 0.0
H165 H 0.69645 0.64497 0.67819 0.0
H166 H 0.6717 0.67415 0.65988 0.0
H167 H 0.6627 0.64737 0.75186 0.0
H168 H 0.71505 0.75641 0.98266 0.0
H169 H 0.68017 0.79168 0.9324 0.0
H170 H 0.68095 0.74581 0.69506 0.0
C171 C 0.75754 0.66594 0.80863 0.0
C172 C 0.77098 0.65726 0.87973 0.0
C173 C 0.76695 0.67446 0.95206 0.0
C174 C 0.75005 0.70016 0.95358 0.0
C175 C 0.737 0.70797 0.88238 0.0
C176 C 0.74028 0.69115 0.81133 0.0
C177 C 0.72235 0.70293 0.74371 0.0
C178 C 0.75515 0.72767 0.68138 0.0
C179 C 0.68615 0.6651 0.70623 0.0
C180 C 0.70842 0.72909 0.78775 0.0
C181 C 0.7175 0.73186 0.86755 0.0
C182 C 0.70778 0.75442 0.92034 0.0
C183 C 0.68801 0.77443 0.89103 0.0
C184 C 0.67776 0.77154 0.80968 0.0
C185 C 0.68831 0.7486 0.75749 0.0
H186 H 0.9506 0.70379 0.0143 0.0
H187 H 0.93427 0.58446 0.95676 0.0
H188 H 1.00139 0.60483 0.01532 0.0
H189 H 0.06073 0.76061 0.97255 0.0
H190 H 0.07064 0.79657 0.05233 0.0
H191 H 1.0222 0.77299 0.00257 0.0
H192 H 0.98539 0.74764 0.13763 0.0
H193 H 0.03369 0.77059 0.18766 0.0
H194 H 0.99805 0.71709 0.19915 0.0
H195 H 0.06737 0.63613 0.09153 0.0
H196 H 0.13166 0.67899 0.1632 0.0
H197 H 0.10695 0.77933 0.16491 0.0
C198 C 0.96143 0.68215 0.01283 0.0
C199 C 0.93714 0.6425 0.98084 0.0
C200 C 0.95242 0.61509 0.98025 0.0
C201 C 0.99041 0.6263 0.01391 0.0
C202 C 1.01306 0.66524 0.04688 0.0
C203 C 0.99953 0.69304 0.04513 0.0
C204 C 0.02982 0.733 0.08438 0.0
C205 C 0.04686 0.76785 0.02437 0.0
C206 C 1.01057 0.74262 0.15648 0.0
C207 C 0.06222 0.72313 0.10964 0.0
C208 C 0.05177 0.68375 0.0881 0.0
C209 C 0.0761 0.66717 0.10776 0.0
C210 C 0.11246 0.69171 0.14901 0.0
C211 C 0.1245 0.73262 0.16944 0.0
C212 C 0.09877 0.7483 0.14971 0.0
H213 H 0.33318 0.04963 0.63076 0.0
H214 H 0.39813 0.1277 0.43272 0.0
H215 H 0.37529 0.06688 0.34607 0.0
H216 H 0.35643 0.97139 0.58349 0.0
H217 H 0.30745 0.93059 0.6146 0.0
H218 H 0.32777 0.98032 0.6596 0.0
H219 H 0.26246 0.98201 0.62157 0.0
H220 H 0.24191 0.93224 0.57649 0.0
H221 H 0.24642 0.97414 0.51953 0.0
H222 H 0.34628 0.99606 0.28159 0.0
H223 H 0.314 0.92271 0.24644 0.0
H224 H 0.26848 0.89224 0.48752 0.0
C225 C 0.34245 0.05409 0.56906 0.0
C226 C 0.36743 0.09363 0.5387 0.0
C227 C 0.37894 0.09783 0.45753 0.0
C228 C 0.3661 0.06341 0.40777 0.0
C229 C 0.34169 0.02488 0.43987 0.0
C230 C 0.32996 0.02015 0.51871 0.0
C231 C 0.30433 0.97556 0.5394 0.0
C232 C 0.32526 0.96379 0.60302 0.0
C233 C 0.26123 0.9654 0.56578 0.0
C234 C 0.30357 0.95582 0.46009 0.0
C235 C 0.32519 0.98464 0.40319 0.0
C236 C 0.32916 0.97331 0.32575 0.0
C237 C 0.3107 0.93154 0.30626 0.0
C238 C 0.28856 0.90154 0.36395 0.0
C239 C 0.28498 0.9142 0.44166 0.0
H240 H 0.21557 0.63889 0.14437 0.0
H241 H 0.33945 0.73991 0.162 0.0
H242 H 0.36395 0.69128 0.18421 0.0
H243 H 0.224 0.58602 0.30198 0.0
H244 H 0.19157 0.53593 0.26063 0.0
H245 H 0.18445 0.57765 0.23312 0.0
H246 H 0.19222 0.56384 0.08574 0.0
H247 H 0.19984 0.52214 0.11156 0.0
H248 H 0.23714 0.56304 0.05193 0.0
H249 H 0.37365 0.63221 0.2206 0.0
H250 H 0.36812 0.56726 0.26241 0.0
H251 H 0.23767 0.50557 0.22528 0.0
C252 C 0.24808 0.65089 0.14999 0.0
C253 C 0.27568 0.69336 0.15017 0.0
C254 C 0.31779 0.70757 0.16046 0.0
C255 C 0.33195 0.68015 0.17343 0.0
C256 C 0.30361 0.63862 0.17621 0.0
C257 C 0.26256 0.62404 0.16419 0.0
C258 C 0.2378 0.57856 0.17805 0.0
C259 C 0.2077 0.56901 0.24758 0.0
C260 C 0.21547 0.55555 0.10231 0.0
C261 C 0.27133 0.5697 0.19937 0.0
C262 C 0.30908 0.60474 0.19824 0.0
C263 C 0.34433 0.60455 0.22066 0.0
C264 C 0.3409 0.56763 0.24455 0.0
C265 C 0.30261 0.53138 0.24517 0.0
C266 C 0.26744 0.53258 0.22271 0.0
H267 H 0.55588 0.2638 0.68515 0.0
H268 H 0.51896 0.14495 0.78081 0.0
H269 H 0.59115 0.16147 0.7814 0.0
H270 H 0.62188 0.25874 0.54791 0.0
H271 H 0.65679 0.31286 0.54977 0.0
H272 H 0.60409 0.29332 0.57531 0.0
H273 H 0.62847 0.3337 0.71013 0.0
H274 H 0.68082 0.35064 0.68391 0.0
H275 H 0.65982 0.32351 0.77482 0.0
H276 H 0.66528 0.18677 0.75237 0.0
H277 H 0.73198 0.21464 0.6851 0.0
H278 H 0.71942 0.3153 0.60002 0.0
C279 C 0.56325 0.24202 0.70978 0.0
C280 C 0.53211 0.20358 0.73542 0.0
C281 C 0.54257 0.1749 0.76276 0.0
C282 C 0.58348 0.18412 0.76341 0.0
C283 C 0.61344 0.22192 0.73531 0.0
C284 C 0.60367 0.25029 0.7084 0.0
C285 C 0.63972 0.2852 0.66749 0.0
C286 C 0.63007 0.28769 0.57999 0.0
C287 C 0.65299 0.32566 0.71176 0.0
C288 C 0.67125 0.2719 0.67441 0.0
C289 C 0.6558 0.23573 0.71504 0.0
C290 C 0.67789 0.21543 0.72168 0.0
C291 C 0.71588 0.23157 0.68322 0.0
C292 C 0.73113 0.2673 0.6373 0.0
C293 C 0.70904 0.28835 0.6356 0.0
H294 H 0.53377 0.68878 0.89137 0.0
H295 H 0.48202 0.76649 0.85202 0.0
H296 H 0.4184 0.71652 0.92035 0.0
H297 H 0.44919 0.5989 0.84774 0.0
H298 H 0.45624 0.56912 0.92151 0.0
H299 H 0.4996 0.61381 0.88279 0.0
H300 H 0.52049 0.64411 0.02465 0.0
H301 H 0.47762 0.59899 0.06422 0.0
H302 H 0.48389 0.64839 0.08772 0.0
H303 H 0.35669 0.652 0.97454 0.0
H304 H 0.30596 0.58302 0.02 0.0
H305 H 0.40037 0.54987 0.024 0.0
C306 C 0.50953 0.69592 0.89947 0.0
C307 C 0.51271 0.73144 0.86715 0.0
C308 C 0.48031 0.73967 0.87775 0.0
C309 C 0.44403 0.71133 0.91594 0.0
C310 C 0.4412 0.6755 0.94401 0.0
C311 C 0.47358 0.66829 0.9376 0.0
C312 C 0.46242 0.62654 0.96693 0.0
C313 C 0.46713 0.60059 0.90079 0.0
C314 C 0.48759 0.62971 0.04025 0.0
C315 C 0.41821 0.61056 0.98826 0.0
C316 C 0.40635 0.6391 0.97526 0.0
C317 C 0.36596 0.62977 0.98611 0.0
C318 C 0.33727 0.59043 0.01142 0.0
C319 C 0.3492 0.56111 0.02596 0.0
C320 C 0.39025 0.57162 0.0142 0.0
H321 H 0.81962 0.47818 0.07249 0.0
H322 H 0.68959 0.43026 0.10328 0.0
H323 H 0.68479 0.37214 0.17756 0.0
H324 H 0.81361 0.38255 0.0372 0.0
H325 H 0.86028 0.39602 0.08832 0.0
H326 H 0.8538 0.43493 0.04213 0.0
H327 H 0.86875 0.47453 0.1757 0.0
H328 H 0.87577 0.436 0.22208 0.0
H329 H 0.83927 0.44898 0.2624 0.0
H330 H 0.69497 0.31932 0.24971 0.0
H331 H 0.71897 0.27619 0.31143 0.0
H332 H 0.84129 0.3573 0.22439 0.0
C333 C 0.79018 0.45583 0.0958 0.0
C334 C 0.75501 0.45898 0.08286 0.0
C335 C 0.71696 0.42857 0.11294 0.0
C336 C 0.71395 0.39545 0.15504 0.0
C337 C 0.74918 0.39298 0.16558 0.0
C338 C 0.78654 0.42237 0.13658 0.0
C339 C 0.8196 0.41211 0.15315 0.0
C340 C 0.83788 0.40604 0.07558 0.0
C341 C 0.8528 0.44485 0.20652 0.0
C342 C 0.79514 0.37238 0.19641 0.0
C343 C 0.75463 0.3619 0.20355 0.0
C344 C 0.72656 0.32711 0.24388 0.0
C345 C 0.74043 0.30276 0.27856 0.0
C346 C 0.78185 0.31307 0.2718 0.0
C347 C 0.80928 0.34812 0.22933 0.0
H348 H 0.32108 0.78287 0.48113 0.0
H349 H 0.28943 0.6691 0.35931 0.0
H350 H 0.35318 0.67375 0.40631 0.0
H351 H 0.42417 0.83256 0.43315 0.0
H352 H 0.44141 0.85936 0.52648 0.0
H353 H 0.39125 0.84483 0.49116 0.0
H354 H 0.359 0.80575 0.62101 0.0
H355 H 0.40916 0.82086 0.65752 0.0
H356 H 0.37092 0.76772 0.65314 0.0
H357 H 0.42425 0.69454 0.4581 0.0
H358 H 0.493 0.72695 0.5184 0.0
H359 H 0.47699 0.82701 0.60302 0.0
C360 C 0.32693 0.75833 0.46603 0.0
C361 C 0.30001 0.7255 0.417 0.0
C362 C 0.30925 0.69434 0.39769 0.0
C363 C 0.34558 0.69683 0.42369 0.0
C364 C 0.3722 0.73048 0.46949 0.0
C365 C 0.36294 0.76034 0.49136 0.0
C366 C 0.39727 0.79435 0.53775 0.0
C367 C 0.41453 0.83517 0.49452 0.0
C368 C 0.38324 0.79732 0.62238 0.0
C369 C 0.42757 0.77933 0.53777 0.0
C370 C 0.41272 0.74244 0.49831 0.0
C371 C 0.436 0.72328 0.48969 0.0
C372 C 0.4751 0.74201 0.52363 0.0
C373 C 0.49043 0.77951 0.56544 0.0
C374 C 0.46626 0.79832 0.57165 0.0
H375 H 0.51129 0.38367 0.67249 0.0
H376 H 0.5525 0.31272 0.53599 0.0
H377 H 0.6241 0.36619 0.55886 0.0
H378 H 0.59771 0.48755 0.6167 0.0
H379 H 0.59813 0.50694 0.71521 0.0
H380 H 0.55098 0.46782 0.67302 0.0
H381 H 0.53994 0.42256 0.79478 0.0
H382 H 0.58714 0.46107 0.83673 0.0
H383 H 0.57871 0.41031 0.82027 0.0
H384 H 0.69064 0.42036 0.62035 0.0
H385 H 0.74516 0.47287 0.70515 0.0
H386 H 0.65921 0.50744 0.79917 0.0
C387 C 0.53524 0.37991 0.64487 0.0
C388 C 0.52619 0.3439 0.60259 0.0
C389 C 0.55861 0.34008 0.56847 0.0
C390 C 0.5994 0.37024 0.58132 0.0
C391 C 0.60725 0.40418 0.6277 0.0
C392 C 0.57594 0.40952 0.65747 0.0
C393 C 0.59189 0.44629 0.71206 0.0
C394 C 0.58423 0.4791 0.67713 0.0
C395 C 0.57333 0.43431 0.79586 0.0
C396 C 0.6368 0.4597 0.71156 0.0
C397 C 0.64539 0.43552 0.66188 0.0
C398 C 0.6844 0.44011 0.65789 0.0
C399 C 0.71518 0.46994 0.70636 0.0
C400 C 0.70657 0.49444 0.75853 0.0
C401 C 0.66702 0.48957 0.75947 0.0
loop_
_geom_bond_atom_site_label_1
_geom_bond_atom_site_label_2
_geom_bond_distance
_geom_bond_site_symmetry_2
_ccdc_geom_bond_type
Mg0 O7 2.141 . S
Mg0 O8 2.048 . S
Mg0 O9 2.048 1_556 S
Mg0 O12 2.141 1_556 S
C1 O2 1.313 1_556 S
C1 O8 1.195 . S
O2 C1 1.313 1_554 S
C3 O4 1.245 . S
C3 O12 1.289 . S
O4 C3 1.245 . S
C5 O6 1.245 1_556 S
C5 O7 1.289 . S
O6 C5 1.245 1_554 S
O7 Mg0 2.141 . S
O7 C5 1.289 . S
O8 Mg0 2.048 . S
O8 C1 1.195 . S
O9 Mg0 2.048 1_554 S
O9 C10 1.195 . S
C10 O9 1.195 . S
C10 O11 1.313 . S
O11 C10 1.313 . S
O12 Mg0 2.141 1_554 S
O12 C3 1.289 . S
Mg13 O20 2.141 . S
Mg13 O21 2.048 . S
Mg13 O22 2.048 . S
Mg13 O25 2.141 . S
C14 O15 1.313 . S
C14 O21 1.195 . S
O15 C14 1.313 . S
C16 O17 1.245 . S
C16 O25 1.289 . S
O17 C16 1.245 . S
C18 O19 1.245 . S
C18 O20 1.289 . S
O19 C18 1.245 . S
O20 Mg13 2.141 . S
O20 C18 1.289 . S
O21 Mg13 2.048 . S
O21 C14 1.195 . S
O22 Mg13 2.048 . S
O22 C23 1.195 . S
C23 O22 1.195 . S
C23 O24 1.313 . S
O24 C23 1.313 . S
O25 Mg13 2.141 . S
O25 C16 1.289 . S
Mg26 O33 2.141 . S
Mg26 O34 2.048 . S
Mg26 O35 2.048 . S
Mg26 O38 2.141 . S
C27 O28 1.313 . S
C27 O34 1.195 . S
O28 C27 1.313 . S
C29 O30 1.245 . S
C29 O38 1.289 . S
O30 C29 1.245 . S
C31 O32 1.245 . S
C31 O33 1.289 . S
O32 C31 1.245 . S
O33 Mg26 2.141 . S
O33 C31 1.289 . S
O34 Mg26 2.048 . S
O34 C27 1.195 . S
O35 Mg26 2.048 . S
O35 C36 1.195 . S
C36 O35 1.195 . S
C36 O37 1.313 . S
O37 C36 1.313 . S
O38 Mg26 2.141 . S
O38 C29 1.289 . S
Mg39 O46 2.141 . S
Mg39 O47 2.048 . S
Mg39 O48 2.048 1_556 S
Mg39 O51 2.141 1_556 S
C40 O41 1.313 1_556 S
C40 O47 1.195 . S
O41 C40 1.313 1_554 S
C42 O43 1.245 . S
C42 O51 1.289 . S
O43 C42 1.245 . S
C44 O45 1.245 1_556 S
C44 O46 1.289 . S
O45 C44 1.245 1_554 S
O46 Mg39 2.141 . S
O46 C44 1.289 . S
O47 Mg39 2.048 . S
O47 C40 1.195 . S
O48 Mg39 2.048 1_554 S
O48 C49 1.195 . S
C49 O48 1.195 . S
C49 O50 1.313 . S
O50 C49 1.313 . S
O51 Mg39 2.141 1_554 S
O51 C42 1.289 . S
Mg52 O59 2.141 . S
Mg52 O60 2.048 . S
Mg52 O61 2.048 . S
Mg52 O64 2.141 . S
C53 O54 1.313 . S
C53 O60 1.195 . S
O54 C53 1.313 . S
C55 O56 1.245 . S
C55 O64 1.289 . S
O56 C55 1.245 . S
C57 O58 1.245 . S
C57 O59 1.289 . S
O58 C57 1.245 . S
O59 Mg52 2.141 . S
O59 C57 1.289 . S
O60 Mg52 2.048 . S
O60 C53 1.195 . S
O61 Mg52 2.048 . S
O61 C62 1.195 . S
C62 O61 1.195 . S
C62 O63 1.313 . S
O63 C62 1.313 . S
O64 Mg52 2.141 . S
O64 C55 1.289 . S
Mg65 O72 2.141 . S
Mg65 O73 2.048 . S
Mg65 O74 2.048 . S
Mg65 O77 2.141 . S
C66 O67 1.313 . S
C66 O73 1.195 . S
O67 C66 1.313 . S
C68 O69 1.245 . S
C68 O77 1.289 . S
O69 C68 1.245 . S
C70 O71 1.245 . S
C70 O72 1.289 . S
O71 C70 1.245 . S
O72 Mg65 2.141 . S
O72 C70 1.289 . S
O73 Mg65 2.048 . S
O73 C66 1.195 . S
O74 Mg65 2.048 . S
O74 C75 1.195 . S
C75 O74 1.195 . S
C75 O76 1.313 . S
O76 C75 1.313 . S
O77 Mg65 2.141 . S
O77 C68 1.289 . S
H78 C90 0.930 1_554 S
H79 C92 0.930 . S
H80 C93 0.930 . S
H81 C97 0.959 1_556 S
H82 C97 0.959 . S
H83 C97 0.961 . S
H84 C98 0.960 1_554 S
H85 C98 0.961 1_554 S
H86 C98 0.959 . S
H87 C101 0.929 . S
H88 C102 0.931 . S
H89 C104 0.930 . S
C90 H78 0.930 1_556 S
C90 C91 1.399 . S
C90 C95 1.399 . S
C91 C90 1.399 . S
C91 C92 1.376 . S
C92 H79 0.930 . S
C92 C91 1.376 . S
C92 C93 1.388 . S
C93 H80 0.930 . S
C93 C92 1.388 . S
C93 C94 1.390 . S
C94 C93 1.390 . S
C94 C95 1.394 . S
C94 C100 1.465 . S
C95 C90 1.399 . S
C95 C94 1.394 . S
C95 C96 1.516 . S
C96 C95 1.516 . S
C96 C97 1.502 1_556 S
C96 C98 1.561 . S
C96 C99 1.526 . S
C97 H81 0.959 1_554 S
C97 H82 0.959 . S
C97 H83 0.961 . S
C97 C96 1.502 1_554 S
C98 H84 0.960 1_556 S
C98 H85 0.961 1_556 S
C98 H86 0.959 . S
C98 C96 1.561 . S
C99 C96 1.526 . S
C99 C100 1.396 . S
C99 C104 1.390 . S
C100 C94 1.465 . S
C100 C99 1.396 . S
C100 C101 1.399 . S
C101 H87 0.929 . S
C101 C100 1.399 . S
C101 C102 1.385 . S
C102 H88 0.931 . S
C102 C101 1.385 . S
C102 C103 1.389 . S
C103 C102 1.389 . S
C103 C104 1.387 . S
C104 H89 0.930 . S
C104 C99 1.390 . S
C104 C103 1.387 . S
H105 C117 0.930 . S
H106 C119 0.930 . S
H107 C120 0.930 . S
H108 C124 0.959 1_455 S
H109 C124 0.959 1_455 S
H110 C124 0.961 . S
H111 C125 0.960 . S
H112 C125 0.961 . S
H113 C125 0.959 . S
H114 C128 0.929 . S
H115 C129 0.931 . S
H116 C131 0.930 . S
C117 H105 0.930 . S
C117 C118 1.399 . S
C117 C122 1.399 . S
C118 C117 1.399 . S
C118 C119 1.376 . S
C119 H106 0.930 . S
C119 C118 1.376 . S
C119 C120 1.388 . S
C120 H107 0.930 . S
C120 C119 1.388 . S
C120 C121 1.390 . S
C121 C120 1.390 . S
C121 C122 1.394 . S
C121 C127 1.465 1_655 S
C122 C117 1.399 . S
C122 C121 1.394 . S
C122 C123 1.516 . S
C123 C122 1.516 . S
C123 C124 1.502 . S
C123 C125 1.561 . S
C123 C126 1.526 1_655 S
C124 H108 0.959 1_655 S
C124 H109 0.959 1_655 S
C124 H110 0.961 . S
C124 C123 1.502 . S
C125 H111 0.960 . S
C125 H112 0.961 . S
C125 H113 0.959 . S
C125 C123 1.561 . S
C126 C123 1.526 1_455 S
C126 C127 1.396 . S
C126 C131 1.390 . S
C127 C121 1.465 1_455 S
C127 C126 1.396 . S
C127 C128 1.399 . S
C128 H114 0.929 . S
C128 C127 1.399 . S
C128 C129 1.385 . S
C129 H115 0.931 . S
C129 C128 1.385 . S
C129 C130 1.389 . S
C130 C129 1.389 . S
C130 C131 1.387 . S
C131 H116 0.930 . S
C131 C126 1.390 . S
C131 C130 1.387 . S
H132 C144 0.930 . S
H133 C146 0.930 . S
H134 C147 0.930 . S
H135 C151 0.959 . S
H136 C151 0.959 . S
H137 C151 0.961 . S
H138 C152 0.960 . S
H139 C152 0.961 . S
H140 C152 0.959 . S
H141 C155 0.929 . S
H142 C156 0.931 . S
H143 C158 0.930 . S
C144 H132 0.930 . S
C144 C145 1.399 . S
C144 C149 1.399 . S
C145 C144 1.399 . S
C145 C146 1.376 . S
C146 H133 0.930 . S
C146 C145 1.376 . S
C146 C147 1.388 . S
C147 H134 0.930 . S
C147 C146 1.388 . S
C147 C148 1.390 . S
C148 C147 1.390 . S
C148 C149 1.394 . S
C148 C154 1.465 1_545 S
C149 C144 1.399 . S
C149 C148 1.394 . S
C149 C150 1.516 1_545 S
C150 C149 1.516 1_565 S
C150 C151 1.502 . S
C150 C152 1.561 . S
C150 C153 1.526 . S
C151 H135 0.959 . S
C151 H136 0.959 . S
C151 H137 0.961 . S
C151 C150 1.502 . S
C152 H138 0.960 . S
C152 H139 0.961 . S
C152 H140 0.959 . S
C152 C150 1.561 . S
C153 C150 1.526 . S
C153 C154 1.396 . S
C153 C158 1.390 . S
C154 C148 1.465 1_565 S
C154 C153 1.396 . S
C154 C155 1.399 . S
C155 H141 0.929 . S
C155 C154 1.399 . S
C155 C156 1.385 . S
C156 H142 0.931 . S
C156 C155 1.385 . S
C156 C157 1.389 . S
C157 C156 1.389 . S
C157 C158 1.387 . S
C158 H143 0.930 . S
C158 C153 1.390 . S
C158 C157 1.387 . S
H159 C171 0.930 . S
H160 C173 0.930 . S
H161 C174 0.930 . S
H162 C178 0.959 . S
H163 C178 0.959 . S
H164 C178 0.961 . S
H165 C179 0.960 . S
H166 C179 0.961 . S
H167 C179 0.959 . S
H168 C182 0.929 . S
H169 C183 0.931 . S
H170 C185 0.930 . S
C171 H159 0.930 . S
C171 C172 1.399 . S
C171 C176 1.399 . S
C172 C171 1.399 . S
C172 C173 1.376 . S
C173 H160 0.930 . S
C173 C172 1.376 . S
C173 C174 1.388 . S
C174 H161 0.930 . S
C174 C173 1.388 . S
C174 C175 1.390 . S
C175 C174 1.390 . S
C175 C176 1.394 . S
C175 C181 1.465 . S
C176 C171 1.399 . S
C176 C175 1.394 . S
C176 C177 1.516 . S
C177 C176 1.516 . S
C177 C178 1.502 . S
C177 C179 1.561 . S
C177 C180 1.526 . S
C178 H162 0.959 . S
C178 H163 0.959 . S
C178 H164 0.961 . S
C178 C177 1.502 . S
C179 H165 0.960 . S
C179 H166 0.961 . S
C179 H167 0.959 . S
C179 C177 1.561 . S
C180 C177 1.526 . S
C180 C181 1.396 . S
C180 C185 1.390 . S
C181 C175 1.465 . S
C181 C180 1.396 . S
C181 C182 1.399 . S
C182 H168 0.929 . S
C182 C181 1.399 . S
C182 C183 1.385 . S
C183 H169 0.931 . S
C183 C182 1.385 . S
C183 C184 1.389 . S
C184 C183 1.389 . S
C184 C185 1.387 . S
C185 H170 0.930 . S
C185 C180 1.390 . S
C185 C184 1.387 . S
H186 C198 0.930 . S
H187 C200 0.930 . S
H188 C201 0.930 . S
H189 C205 0.957 1_455 S
H190 C205 0.959 1_455 S
H191 C205 0.961 . S
H192 C206 0.960 . S
H193 C206 0.961 . S
H194 C206 0.959 . S
H195 C209 0.929 . S
H196 C210 0.931 . S
H197 C212 0.930 . S
C198 H186 0.930 . S
C198 C199 1.399 . S
C198 C203 1.399 . S
C199 C198 1.399 . S
C199 C200 1.376 . S
C200 H187 0.930 . S
C200 C199 1.376 . S
C200 C201 1.388 . S
C201 H188 0.930 . S
C201 C200 1.388 . S
C201 C202 1.390 . S
C202 C201 1.390 . S
C202 C203 1.394 . S
C202 C208 1.465 1_655 S
C203 C198 1.399 . S
C203 C202 1.394 . S
C203 C204 1.516 . S
C204 C203 1.516 . S
C204 C205 1.502 . S
C204 C206 1.561 . S
C204 C207 1.526 1_655 S
C205 H189 0.957 1_655 S
C205 H190 0.959 1_655 S
C205 H191 0.961 . S
C205 C204 1.502 . S
C206 H192 0.960 . S
C206 H193 0.961 . S
C206 H194 0.959 . S
C206 C204 1.561 . S
C207 C204 1.526 1_455 S
C207 C208 1.396 . S
C207 C212 1.390 . S
C208 C202 1.465 1_455 S
C208 C207 1.396 . S
C208 C209 1.399 . S
C209 H195 0.929 . S
C209 C208 1.399 . S
C209 C210 1.385 . S
C210 H196 0.931 . S
C210 C209 1.385 . S
C210 C211 1.389 . S
C211 C210 1.389 . S
C211 C212 1.387 . S
C212 H197 0.930 . S
C212 C207 1.390 . S
C212 C211 1.387 . S
H213 C225 0.930 . S
H214 C227 0.930 . S
H215 C228 0.930 . S
H216 C232 0.959 . S
H217 C232 0.959 . S
H218 C232 0.961 1_545 S
H219 C233 0.960 . S
H220 C233 0.961 . S
H221 C233 0.959 . S
H222 C236 0.929 . S
H223 C237 0.931 . S
H224 C239 0.930 . S
C225 H213 0.930 . S
C225 C226 1.399 . S
C225 C230 1.399 . S
C226 C225 1.399 . S
C226 C227 1.376 . S
C227 H214 0.930 . S
C227 C226 1.376 . S
C227 C228 1.388 . S
C228 H215 0.930 . S
C228 C227 1.388 . S
C228 C229 1.390 . S
C229 C228 1.390 . S
C229 C230 1.394 . S
C229 C235 1.465 1_545 S
C230 C225 1.399 . S
C230 C229 1.394 . S
C230 C231 1.516 1_545 S
C231 C230 1.516 1_565 S
C231 C232 1.502 . S
C231 C233 1.561 . S
C231 C234 1.526 . S
C232 H216 0.959 . S
C232 H217 0.959 . S
C232 H218 0.961 1_565 S
C232 C231 1.502 . S
C233 H219 0.960 . S
C233 H220 0.961 . S
C233 H221 0.959 . S
C233 C231 1.561 . S
C234 C231 1.526 . S
C234 C235 1.396 . S
C234 C239 1.390 . S
C235 C229 1.465 1_565 S
C235 C234 1.396 . S
C235 C236 1.399 . S
C236 H222 0.929 . S
C236 C235 1.399 . S
C236 C237 1.385 . S
C237 H223 0.931 . S
C237 C236 1.385 . S
C237 C238 1.389 . S
C238 C237 1.389 . S
C238 C239 1.387 . S
C239 H224 0.930 . S
C239 C234 1.390 . S
C239 C238 1.387 . S
H240 C252 0.930 . S
H241 C254 0.930 . S
H242 C255 0.930 . S
H243 C259 0.959 . S
H244 C259 0.959 . S
H245 C259 0.961 . S
H246 C260 0.960 . S
H247 C260 0.961 . S
H248 C260 0.959 . S
H249 C263 0.929 . S
H250 C264 0.931 . S
H251 C266 0.930 . S
C252 H240 0.930 . S
C252 C253 1.399 . S
C252 C257 1.399 . S
C253 C252 1.399 . S
C253 C254 1.376 . S
C254 H241 0.930 . S
C254 C253 1.376 . S
C254 C255 1.388 . S
C255 H242 0.930 . S
C255 C254 1.388 . S
C255 C256 1.390 . S
C256 C255 1.390 . S
C256 C257 1.394 . S
C256 C262 1.465 . S
C257 C252 1.399 . S
C257 C256 1.394 . S
C257 C258 1.516 . S
C258 C257 1.516 . S
C258 C259 1.502 . S
C258 C260 1.561 . S
C258 C261 1.526 . S
C259 H243 0.959 . S
C259 H244 0.959 . S
C259 H245 0.961 . S
C259 C258 1.502 . S
C260 H246 0.960 . S
C260 H247 0.961 . S
C260 H248 0.959 . S
C260 C258 1.561 . S
C261 C258 1.526 . S
C261 C262 1.396 . S
C261 C266 1.390 . S
C262 C256 1.465 . S
C262 C261 1.396 . S
C262 C263 1.399 . S
C263 H249 0.929 . S
C263 C262 1.399 . S
C263 C264 1.385 . S
C264 H250 0.931 . S
C264 C263 1.385 . S
C264 C265 1.389 . S
C265 C264 1.389 . S
C265 C266 1.387 . S
C266 H251 0.930 . S
C266 C261 1.390 . S
C266 C265 1.387 . S
H267 C279 0.930 . S
H268 C281 0.930 . S
H269 C282 0.930 . S
H270 C286 0.959 . S
H271 C286 0.959 . S
H272 C286 0.961 . S
H273 C287 0.960 . S
H274 C287 0.961 . S
H275 C287 0.959 . S
H276 C290 0.929 . S
H277 C291 0.931 . S
H278 C293 0.930 . S
C279 H267 0.930 . S
C279 C280 1.399 . S
C279 C284 1.399 . S
C280 C279 1.399 . S
C280 C281 1.376 . S
C281 H268 0.930 . S
C281 C280 1.376 . S
C281 C282 1.388 . S
C282 H269 0.930 . S
C282 C281 1.388 . S
C282 C283 1.390 . S
C283 C282 1.390 . S
C283 C284 1.394 . S
C283 C289 1.465 . S
C284 C279 1.399 . S
C284 C283 1.394 . S
C284 C285 1.516 . S
C285 C284 1.516 . S
C285 C286 1.502 . S
C285 C287 1.561 . S
C285 C288 1.526 . S
C286 H270 0.959 . S
C286 H271 0.959 . S
C286 H272 0.961 . S
C286 C285 1.502 . S
C287 H273 0.960 . S
C287 H274 0.961 . S
C287 H275 0.959 . S
C287 C285 1.561 . S
C288 C285 1.526 . S
C288 C289 1.396 . S
C288 C293 1.390 . S
C289 C283 1.465 . S
C289 C288 1.396 . S
C289 C290 1.399 . S
C290 H276 0.929 . S
C290 C289 1.399 . S
C290 C291 1.385 . S
C291 H277 0.931 . S
C291 C290 1.385 . S
C291 C292 1.389 . S
C292 C291 1.389 . S
C292 C293 1.387 . S
C293 H278 0.930 . S
C293 C288 1.390 . S
C293 C292 1.387 . S
H294 C306 0.930 . S
H295 C308 0.930 . S
H296 C309 0.930 . S
H297 C313 0.959 . S
H298 C313 0.959 . S
H299 C313 0.961 . S
H300 C314 0.960 . S
H301 C314 0.961 . S
H302 C314 0.959 . S
H303 C317 0.929 . S
H304 C318 0.931 . S
H305 C320 0.930 . S
C306 H294 0.930 . S
C306 C307 1.399 . S
C306 C311 1.399 . S
C307 C306 1.399 . S
C307 C308 1.376 . S
C308 H295 0.930 . S
C308 C307 1.376 . S
C308 C309 1.388 . S
C309 H296 0.930 . S
C309 C308 1.388 . S
C309 C310 1.390 . S
C310 C309 1.390 . S
C310 C311 1.394 . S
C310 C316 1.465 . S
C311 C306 1.399 . S
C311 C310 1.394 . S
C311 C312 1.516 . S
C312 C311 1.516 . S
C312 C313 1.502 . S
C312 C314 1.561 . S
C312 C315 1.526 . S
C313 H297 0.959 . S
C313 H298 0.959 . S
C313 H299 0.961 . S
C313 C312 1.502 . S
C314 H300 0.960 . S
C314 H301 0.961 . S
C314 H302 0.959 . S
C314 C312 1.561 . S
C315 C312 1.526 . S
C315 C316 1.396 . S
C315 C320 1.390 . S
C316 C310 1.465 . S
C316 C315 1.396 . S
C316 C317 1.399 . S
C317 H303 0.929 . S
C317 C316 1.399 . S
C317 C318 1.385 . S
C318 H304 0.931 . S
C318 C317 1.385 . S
C318 C319 1.389 . S
C319 C318 1.389 . S
C319 C320 1.387 . S
C320 H305 0.930 . S
C320 C315 1.390 . S
C320 C319 1.387 . S
H321 C333 0.930 . S
H322 C335 0.930 . S
H323 C336 0.930 . S
H324 C340 0.959 . S
H325 C340 0.959 . S
H326 C340 0.961 . S
H327 C341 0.960 . S
H328 C341 0.961 . S
H329 C341 0.959 . S
H330 C344 0.929 . S
H331 C345 0.931 . S
H332 C347 0.930 . S
C333 H321 0.930 . S
C333 C334 1.399 . S
C333 C338 1.399 . S
C334 C333 1.399 . S
C334 C335 1.376 . S
C335 H322 0.930 . S
C335 C334 1.376 . S
C335 C336 1.388 . S
C336 H323 0.930 . S
C336 C335 1.388 . S
C336 C337 1.390 . S
C337 C336 1.390 . S
C337 C338 1.394 . S
C337 C343 1.465 . S
C338 C333 1.399 . S
C338 C337 1.394 . S
C338 C339 1.516 . S
C339 C338 1.516 . S
C339 C340 1.502 . S
C339 C341 1.561 . S
C339 C342 1.526 . S
C340 H324 0.959 . S
C340 H325 0.959 . S
C340 H326 0.961 . S
C340 C339 1.502 . S
C341 H327 0.960 . S
C341 H328 0.961 . S
C341 H329 0.959 . S
C341 C339 1.561 . S
C342 C339 1.526 . S
C342 C343 1.396 . S
C342 C347 1.390 . S
C343 C337 1.465 . S
C343 C342 1.396 . S
C343 C344 1.399 . S
C344 H330 0.929 . S
C344 C343 1.399 . S
C344 C345 1.385 . S
C345 H331 0.931 . S
C345 C344 1.385 . S
C345 C346 1.389 . S
C346 C345 1.389 . S
C346 C347 1.387 . S
C347 H332 0.930 . S
C347 C342 1.390 . S
C347 C346 1.387 . S
H348 C360 0.930 . S
H349 C362 0.930 . S
H350 C363 0.930 . S
H351 C367 0.959 . S
H352 C367 0.959 . S
H353 C367 0.961 . S
H354 C368 0.960 . S
H355 C368 0.961 . S
H356 C368 0.959 . S
H357 C371 0.929 . S
H358 C372 0.931 . S
H359 C374 0.930 . S
C360 H348 0.930 . S
C360 C361 1.399 . S
C360 C365 1.399 . S
C361 C360 1.399 . S
C361 C362 1.376 . S
C362 H349 0.930 . S
C362 C361 1.376 . S
C362 C363 1.388 . S
C363 H350 0.930 . S
C363 C362 1.388 . S
C363 C364 1.390 . S
C364 C363 1.390 . S
C364 C365 1.394 . S
C364 C370 1.465 . S
C365 C360 1.399 . S
C365 C364 1.394 . S
C365 C366 1.516 . S
C366 C365 1.516 . S
C366 C367 1.502 . S
C366 C368 1.561 . S
C366 C369 1.526 . S
C367 H351 0.959 . S
C367 H352 0.959 . S
C367 H353 0.961 . S
C367 C366 1.502 . S
C368 H354 0.960 . S
C368 H355 0.961 . S
C368 H356 0.959 . S
C368 C366 1.561 . S
C369 C366 1.526 . S
C369 C370 1.396 . S
C369 C374 1.390 . S
C370 C364 1.465 . S
C370 C369 1.396 . S
C370 C371 1.399 . S
C371 H357 0.929 . S
C371 C370 1.399 . S
C371 C372 1.385 . S
C372 H358 0.931 . S
C372 C371 1.385 . S
C372 C373 1.389 . S
C373 C372 1.389 . S
C373 C374 1.387 . S
C374 H359 0.930 . S
C374 C369 1.390 . S
C374 C373 1.387 . S
H375 C387 0.930 . S
H376 C389 0.930 . S
H377 C390 0.930 . S
H378 C394 0.959 . S
H379 C394 0.959 1_554 S
H380 C394 0.961 . S
H381 C395 0.960 . S
H382 C395 0.961 . S
H383 C395 0.959 . S
H384 C398 0.929 . S
H385 C399 0.931 . S
H386 C401 0.930 1_554 S
C387 H375 0.930 . S
C387 C388 1.399 . S
C387 C392 1.399 . S
C388 C387 1.399 . S
C388 C389 1.376 . S
C389 H376 0.930 . S
C389 C388 1.376 . S
C389 C390 1.388 . S
C390 H377 0.930 . S
C390 C389 1.388 . S
C390 C391 1.390 . S
C391 C390 1.390 . S
C391 C392 1.394 . S
C391 C397 1.465 . S
C392 C387 1.399 . S
C392 C391 1.394 . S
C392 C393 1.516 . S
C393 C392 1.516 . S
C393 C394 1.502 . S
C393 C395 1.561 1_556 S
C393 C396 1.526 . S
C394 H378 0.959 . S
C394 H379 0.959 1_556 S
C394 H380 0.961 . S
C394 C393 1.502 . S
C395 H381 0.960 . S
C395 H382 0.961 . S
C395 H383 0.959 . S
C395 C393 1.561 1_554 S
C396 C393 1.526 . S
C396 C397 1.396 . S
C396 C401 1.390 . S
C397 C391 1.465 . S
C397 C396 1.396 . S
C397 C398 1.399 . S
C398 H384 0.929 . S
C398 C397 1.399 . S
C398 C399 1.385 . S
C399 H385 0.931 . S
C399 C398 1.385 . S
C399 C400 1.389 . S
C400 C399 1.389 . S
C400 C401 1.387 . S
C401 H386 0.930 1_556 S
C401 C396 1.390 . S
C401 C400 1.387 . S
C91 C5 1.415 . S
C103 C68 1.420 . S
C118 C18 1.355 . S
C130 C3 1.383 . S
C145 C16 1.403 . S
C157 C31 1.378 . S
C172 C44 1.391 . S
C184 C29 1.412 . S
C199 C42 1.394 . S
C211 C57 1.378 . S
C226 C70 1.413 . S
C238 C55 1.423 . S
C253 C53 1.501 . S
C265 C10 1.473 . S
C280 C66 1.501 . S
C292 C23 1.508 . S
C307 C36 1.465 . S
C319 C1 1.490 . S
C334 C49 1.496 . S
C346 C14 1.491 . S
C361 C62 1.468 . S
C373 C27 1.484 . S
C388 C75 1.476 . S
C400 C40 1.505 . S
