# Generated by pormake.
# Topology smm, (6)-cn, num edge types: 1
# Building blocks:
#     Node 0, Type 0, BuildingBlock: BETDAH_clean_sbu_0, # of connection points: 6
#     Node 1, Type 0, BuildingBlock: BETDAH_clean_sbu_0, # of connection points: 6
#     Node 2, Type 0, BuildingBlock: BETDAH_clean_sbu_0, # of connection points: 6
#     Node 3, Type 0, BuildingBlock: BETDAH_clean_sbu_0, # of connection points: 6
#     Node 4, Type 0, BuildingBlock: BETDAH_clean_sbu_0, # of connection points: 6
#     Node 5, Type 0, BuildingBlock: BETDAH_clean_sbu_0, # of connection points: 6
#     Node 6, Type 0, BuildingBlock: BETDAH_clean_sbu_0, # of connection points: 6
#     Node 7, Type 0, BuildingBlock: BETDAH_clean_sbu_0, # of connection points: 6
#     Node 8, Type 0, BuildingBlock: BETDAH_clean_sbu_0, # of connection points: 6
#     Edge 9, Type (0, 0), BuildingBlock: EZIPEK_clean_linker_0, # of connection points: 2
#     Edge 10, Type (0, 0), BuildingBlock: EZIPEK_clean_linker_0, # of connection points: 2
#     Edge 11, Type (0, 0), BuildingBlock: EZIPEK_clean_linker_0, # of connection points: 2
#     Edge 12, Type (0, 0), BuildingBlock: EZIPEK_clean_linker_0, # of connection points: 2
#     Edge 13, Type (0, 0), BuildingBlock: EZIPEK_clean_linker_0, # of connection points: 2
#     Edge 14, Type (0, 0), BuildingBlock: EZIPEK_clean_linker_0, # of connection points: 2
#     Edge 15, Type (0, 0), BuildingBlock: EZIPEK_clean_linker_0, # of connection points: 2
#     Edge 16, Type (0, 0), BuildingBlock: EZIPEK_clean_linker_0, # of connection points: 2
#     Edge 17, Type (0, 0), BuildingBlock: EZIPEK_clean_linker_0, # of connection points: 2
#     Edge 18, Type (0, 0), BuildingBlock: EZIPEK_clean_linker_0, # of connection points: 2
#     Edge 19, Type (0, 0), BuildingBlock: EZIPEK_clean_linker_0, # of connection points: 2
#     Edge 20, Type (0, 0), BuildingBlock: EZIPEK_clean_linker_0, # of connection points: 2
#     Edge 21, Type (0, 0), BuildingBlock: EZIPEK_clean_linker_0, # of connection points: 2
#     Edge 22, Type (0, 0), BuildingBlock: EZIPEK_clean_linker_0, # of connection points: 2
#     Edge 23, Type (0, 0), BuildingBlock: EZIPEK_clean_linker_0, # of connection points: 2
#     Edge 24, Type (0, 0), BuildingBlock: EZIPEK_clean_linker_0, # of connection points: 2
#     Edge 25, Type (0, 0), BuildingBlock: EZIPEK_clean_linker_0, # of connection points: 2
#     Edge 26, Type (0, 0), BuildingBlock: EZIPEK_clean_linker_0, # of connection points: 2
#     Edge 27, Type (0, 0), BuildingBlock: EZIPEK_clean_linker_0, # of connection points: 2
#     Edge 28, Type (0, 0), BuildingBlock: EZIPEK_clean_linker_0, # of connection points: 2
#     Edge 29, Type (0, 0), BuildingBlock: EZIPEK_clean_linker_0, # of connection points: 2
#     Edge 30, Type (0, 0), BuildingBlock: EZIPEK_clean_linker_0, # of connection points: 2
#     Edge 31, Type (0, 0), BuildingBlock: EZIPEK_clean_linker_0, # of connection points: 2
#     Edge 32, Type (0, 0), BuildingBlock: EZIPEK_clean_linker_0, # of connection points: 2
#     Edge 33, Type (0, 0), BuildingBlock: EZIPEK_clean_linker_0, # of connection points: 2
#     Edge 34, Type (0, 0), BuildingBlock: EZIPEK_clean_linker_0, # of connection points: 2
#     Edge 35, Type (0, 0), BuildingBlock: EZIPEK_clean_linker_0, # of connection points: 2
# Relax obj value: 0.038
# Max RMSD: 0.116
# Mean RMSD: 0.116
data_MOF--net-smm--node1-BETDAH_clean_sbu_0--edge1-EZIPEK_clean_linker_0
_symmetry_space_group_name_H-M    P1
_symmetry_Int_Tables_number       1
_symmetry_cell_setting            triclinic
loop_
_symmetry_equiv_pos_as_xyz
'x, y, z'
_cell_length_a     57.039506
_cell_length_b     57.418768
_cell_length_c     10.266547
_cell_angle_alpha  89.925849
_cell_angle_beta   90.219391
_cell_angle_gamma 120.10836
loop_
_atom_site_label
_atom_site_type_symbol
_atom_site_fract_x
_atom_site_fract_y
_atom_site_fract_z
_atom_type_partial_charge
Ho0 Ho 0.06793 0.22486 -0.0095 0.0
Ho1 Ho 1.01623 0.16923 0.03284 0.0
C2 C 1.00963 0.22189 0.05311 0.0
C3 C 0.10251 0.2704 0.88431 0.0
C4 C 0.11072 0.29931 0.86792 0.0
C5 C 0.11166 0.30934 0.74173 0.0
C6 C 0.12235 0.33697 0.72022 0.0
C7 C 0.13243 0.35527 0.82442 0.0
C8 C 0.13095 0.34531 0.95119 0.0
C9 C 0.12026 0.31761 0.97282 0.0
C10 C 0.05799 0.20839 0.2396 0.0
C11 C 0.07548 0.17323 0.00967 0.0
C12 C 0.97948 0.12133 0.10789 0.0
C13 C 0.97007 0.0923 0.08688 0.0
C14 C 0.98786 0.08199 0.08993 0.0
C15 C 0.97783 0.05418 0.07674 0.0
C16 C 0.94989 0.03622 0.06017 0.0
C17 C 0.93225 0.04658 0.05531 0.0
C18 C 0.94223 0.07429 0.06868 0.0
C19 C 1.02846 0.18571 0.78238 0.0
O20 O 0.03519 0.23637 0.01302 0.0
O21 O 0.99846 0.19573 0.07742 0.0
O22 O 0.10634 0.26226 -0.00228 0.0
O23 O 0.08011 0.25241 0.82685 0.0
O24 O 0.08219 0.22413 0.1942 0.0
O25 O 0.04038 0.20486 0.1551 0.0
O26 O 0.05028 0.15979 0.05428 0.0
O27 O 0.08574 0.19787 0.96093 0.0
O28 O 0.97608 0.13424 0.01147 0.0
O29 O 1.00245 0.13606 0.16941 0.0
O30 O 1.004 0.17061 0.82411 0.0
O31 O 0.04482 0.18872 0.87169 0.0
H32 H 0.10477 0.29583 0.65881 0.0
H33 H 0.12326 0.34416 0.62173 0.0
H34 H 0.13859 0.35906 0.03305 0.0
H35 H 0.12006 0.31066 0.07114 0.0
H36 H 1.00942 0.09534 0.10379 0.0
H37 H 0.99182 0.04662 0.08052 0.0
H38 H 0.91067 0.03315 0.0426 0.0
H39 H 0.92807 0.08165 0.06642 0.0
Ho40 Ho 0.84694 0.86053 -0.01131 0.0
Ho41 Ho 0.90389 0.86353 0.0296 0.0
C42 C 0.84843 0.80454 0.03391 0.0
C43 C 0.80255 0.85217 0.87478 0.0
C44 C 0.77318 0.83344 0.85432 0.0
C45 C 0.75801 0.84286 0.78776 0.0
C46 C 0.7305 0.82559 0.75974 0.0
C47 C 0.71755 0.79847 0.79775 0.0
C48 C 0.73267 0.78896 0.86499 0.0
C49 C 0.76032 0.80629 0.89276 0.0
C50 C 0.86382 0.86418 0.2362 0.0
C51 C 0.90087 0.91931 0.02467 0.0
C52 C 0.95107 0.87332 0.11377 0.0
C53 C 0.98055 0.89129 0.0927 0.0
C54 C 0.99847 0.8824 0.13022 0.0
C55 C 1.02657 0.89932 0.11856 0.0
C56 C 0.03735 0.92552 0.06909 0.0
C57 C 1.01945 0.93439 0.03005 0.0
C58 C 0.99126 0.91742 0.04178 0.0
C59 C 0.88743 0.8624 0.78149 0.0
O60 O 0.83455 0.81623 -0.00471 0.0
O61 O 0.87468 0.81866 0.06436 0.0
O62 O 0.81067 0.86397 -0.01152 0.0
O63 O 0.81927 0.84525 0.82471 0.0
O64 O 0.8458 0.87047 0.19906 0.0
O65 O 0.86761 0.85186 0.1451 0.0
O66 O 0.91512 0.90726 0.04856 0.0
O67 O 0.87498 0.90588 -0.01203 0.0
O68 O 0.93736 0.85567 0.02266 0.0
O69 O 0.93771 0.88423 0.16331 0.0
O70 O 0.90423 0.85452 0.81672 0.0
O71 O 0.8839 0.8739 0.87648 0.0
H72 H 0.76754 0.86365 0.75626 0.0
H73 H 0.71927 0.83341 0.70852 0.0
H74 H 0.72305 0.76813 0.89578 0.0
H75 H 0.77166 0.79852 0.94334 0.0
H76 H 0.99071 0.8624 0.17024 0.0
H77 H 0.03995 0.89204 0.14909 0.0
H78 H 1.02732 0.95452 -0.00847 0.0
H79 H 0.97788 0.92478 0.01246 0.0
Ho80 Ho 0.21495 1.00503 -0.01444 0.0
Ho81 Ho 0.20823 0.05462 0.02774 0.0
C82 C 0.26937 0.06465 0.01397 0.0
C83 C 0.22608 0.96996 0.88698 0.0
C84 C 0.24621 0.96072 0.87732 0.0
C85 C 0.27104 0.97585 0.81155 0.0
C86 C 0.28793 0.965 0.78833 0.0
C87 C 0.28028 0.93878 0.82964 0.0
C88 C 0.25586 0.92393 0.89783 0.0
C89 C 0.23902 0.93475 0.92111 0.0
C90 C 0.21443 1.01831 0.23743 0.0
C91 C 0.15478 0.99431 0.03282 0.0
C92 C 0.19583 0.09028 0.10525 0.0
C93 C 0.17642 0.10003 0.0833 0.0
C94 C 0.16644 0.10726 0.19155 0.0
C95 C 0.14968 0.11841 0.17512 0.0
C96 C 0.14251 0.12261 0.04989 0.0
C97 C 0.15206 0.11497 0.94118 0.0
C98 C 0.16887 0.10377 0.95764 0.0
C99 C 0.20589 0.03932 0.77648 0.0
O100 O 0.25878 0.03932 0.97465 0.0
O101 O 0.25384 0.0745 0.05158 0.0
O102 O 0.21326 0.9664 -0.00267 0.0
O103 O 0.23159 0.99252 0.82941 0.0
O104 O 0.20521 0.99389 0.19555 0.0
O105 O 0.22516 0.03448 0.14448 0.0
O106 O 0.16592 1.01986 0.06866 0.0
O107 O 0.16926 0.98443 0.9816 0.0
O108 O 0.21342 0.09458 0.01366 0.0
O109 O 0.18647 0.06668 0.15976 0.0
O110 O 0.21622 0.06399 0.81494 0.0
O111 O 0.19627 0.02404 0.87278 0.0
H112 H 0.27713 0.99579 0.77509 0.0
H113 H 0.30669 0.97683 0.73569 0.0
H114 H 0.24955 0.90369 0.93059 0.0
H115 H 0.21989 0.92243 0.97018 0.0
H116 H 0.17202 0.10469 0.28931 0.0
H117 H 0.14255 0.12411 0.26029 0.0
H118 H 0.14679 0.11801 0.84368 0.0
H119 H 0.17626 0.09841 0.8723 0.0
Ho120 Ho 0.73464 0.56289 0.34814 0.0
Ho121 Ho 0.68598 0.50357 0.37531 0.0
C122 C 0.67568 0.55551 0.37834 0.0
C123 C 0.7749 0.6078 0.26202 0.0
C124 C 0.78195 0.63593 0.22835 0.0
C125 C 0.785 0.64413 0.09773 0.0
C126 C 0.7927 0.67077 0.06441 0.0
C127 C 0.79626 0.69013 0.16 0.0
C128 C 0.7963 0.68222 0.29114 0.0
C129 C 0.78859 0.65561 0.32469 0.0
C130 C 0.71653 0.54648 0.59144 0.0
C131 C 0.74588 0.51174 0.36839 0.0
C132 C 0.64476 0.45708 0.43678 0.0
C133 C 0.6351 0.42795 0.42049 0.0
C134 C 0.61658 0.40953 0.51052 0.0
C135 C 0.6064 0.3818 0.49591 0.0
C136 C 0.61449 0.37188 0.39068 0.0
C137 C 0.63323 0.3903 0.3009 0.0
C138 C 0.64347 0.41811 0.31569 0.0
C139 C 0.70585 0.52003 0.13546 0.0
O140 O 0.70072 0.57194 0.3384 0.0
O141 O 0.66652 0.5297 0.40532 0.0
O142 O 0.7714 0.60083 0.38507 0.0
O143 O 0.75757 0.58841 0.18603 0.0
O144 O 0.7272 0.57131 0.55251 0.0
O145 O 0.71843 0.53232 0.50332 0.0
O146 O 0.71996 0.4948 0.39221 0.0
O147 O 0.7556 0.53781 0.34435 0.0
O148 O 0.64579 0.47055 0.33189 0.0
O149 O 0.66568 0.47071 0.51348 0.0
O150 O 0.69501 0.49528 0.17412 0.0
O151 O 0.70266 0.53386 0.22068 0.0
H152 H 0.78204 0.63004 0.02058 0.0
H153 H 0.79659 0.67586 0.96269 0.0
H154 H 0.80301 0.6965 0.37026 0.0
H155 H 0.78844 0.65067 0.42665 0.0
H156 H 0.60983 0.41661 0.59204 0.0
H157 H 0.59208 0.36802 0.56653 0.0
H158 H 0.63986 0.38312 0.21939 0.0
H159 H 0.65779 0.4319 0.24511 0.0
Ho160 Ho 0.51381 0.19523 0.32801 0.0
Ho161 Ho 0.56975 0.19919 0.376 0.0
C162 C 0.51656 0.14045 0.36859 0.0
C163 C 0.4681 0.18681 0.22927 0.0
C164 C 0.44076 0.16624 0.18233 0.0
C165 C 0.42756 0.17383 0.09018 0.0
C166 C 0.40046 0.15623 0.0555 0.0
C167 C 0.38595 0.13055 0.11195 0.0
C168 C 0.39945 0.12248 0.20049 0.0
C169 C 0.4266 0.14019 0.2357 0.0
C170 C 0.52938 0.1998 0.58015 0.0
C171 C 0.5662 0.25472 0.35579 0.0
C172 C 0.61659 0.2089 0.46452 0.0
C173 C 0.64602 0.22808 0.45009 0.0
C174 C 0.66441 0.22503 0.52948 0.0
C175 C 0.69243 0.24218 0.51572 0.0
C176 C 0.70268 0.26278 0.42212 0.0
C177 C 0.68428 0.26602 0.34302 0.0
C178 C 0.65616 0.24879 0.3568 0.0
C179 C 0.55419 0.19552 0.12515 0.0
O180 O 0.50425 0.15185 0.30809 0.0
O181 O 0.54096 0.15531 0.42169 0.0
O182 O 0.47294 0.18753 0.35429 0.0
O183 O 0.48915 0.19173 0.15849 0.0
O184 O 0.51396 0.20855 0.5345 0.0
O185 O 0.53327 0.18666 0.49294 0.0
O186 O 0.58104 0.24316 0.37691 0.0
O187 O 0.53995 0.24047 0.3273 0.0
O188 O 0.60424 0.19317 0.36508 0.0
O189 O 0.60196 0.21783 0.51999 0.0
O190 O 0.56895 0.18584 0.16854 0.0
O191 O 0.55072 0.20858 0.21374 0.0
H192 H 0.43797 0.19384 0.04818 0.0
H193 H 0.39053 0.16297 -0.01247 0.0
H194 H 0.38868 0.1028 0.24559 0.0
H195 H 0.43622 0.13384 0.30728 0.0
H196 H 0.65707 0.20918 0.60185 0.0
H197 H 0.70616 0.2393 0.57788 0.0
H198 H 0.69171 0.28181 0.27041 0.0
H199 H 0.64237 0.2515 0.29433 0.0
Ho200 Ho 0.88064 0.33879 0.33427 0.0
Ho201 Ho 0.87544 0.39076 0.37271 0.0
C202 C 0.93572 0.39864 0.35285 0.0
C203 C 0.89013 0.30308 0.22964 0.0
C204 C 0.91014 0.29415 0.20854 0.0
C205 C 0.90734 0.27878 0.09714 0.0
C206 C 0.92472 0.26856 0.07566 0.0
C207 C 0.94538 0.27349 0.16516 0.0
C208 C 0.94859 0.28933 0.27591 0.0
C209 C 0.93108 0.29957 0.29758 0.0
C210 C 0.87853 0.35244 0.5818 0.0
C211 C 0.82048 0.33117 0.37361 0.0
C212 C 0.86558 0.42799 0.45174 0.0
C213 C 0.84653 0.43837 0.43065 0.0
C214 C 0.8281 0.4355 0.52886 0.0
C215 C 0.81188 0.44738 0.51588 0.0
C216 C 0.81384 0.46258 0.40479 0.0
C217 C 0.83199 0.46526 0.3059 0.0
C218 C 0.84816 0.45333 0.3186 0.0
C219 C 0.87646 0.37547 0.12543 0.0
O220 O 0.92438 0.37276 0.32172 0.0
O221 O 0.92068 0.40863 0.3963 0.0
O222 O 0.88018 0.30086 0.34674 0.0
O223 O 0.8943 0.32497 0.16978 0.0
O224 O 0.87222 0.32831 0.54509 0.0
O225 O 0.89005 0.36862 0.48931 0.0
O226 O 0.83194 0.3574 0.39571 0.0
O227 O 0.8347 0.31969 0.3365 0.0
O228 O 0.88232 0.43124 0.35735 0.0
O229 O 0.85638 0.40478 0.511 0.0
O230 O 0.8842 0.40003 0.15956 0.0
O231 O 0.86523 0.36034 0.22078 0.0
H232 H 0.89136 0.27433 0.02713 0.0
H233 H 0.92185 0.25649 -0.01036 0.0
H234 H 0.96445 0.29348 0.34609 0.0
H235 H 0.93371 0.31143 0.38409 0.0
H236 H 0.8266 0.42447 0.61709 0.0
H237 H 0.79803 0.44503 0.59341 0.0
H238 H 0.83385 0.47689 0.21939 0.0
H239 H 0.86228 0.45628 0.24145 0.0
Ho240 Ho 0.40455 0.89503 0.66087 0.0
Ho241 Ho 0.35397 0.83757 0.69003 0.0
C242 C 0.34464 0.88798 0.7157 0.0
C243 C 0.44014 0.94261 0.57657 0.0
C244 C 0.44597 0.9703 0.54238 0.0
C245 C 0.44923 0.97835 0.41087 0.0
C246 C 0.45896 1.00537 0.37705 0.0
C247 C 0.46576 0.02502 0.47395 0.0
C248 C 0.46171 1.01696 0.60514 0.0
C249 C 0.45202 0.98994 0.63911 0.0
C250 C 0.39432 0.87479 0.90411 0.0
C251 C 0.41502 0.8451 0.66306 0.0
C252 C 0.31756 0.78845 0.75096 0.0
C253 C 0.30943 0.75958 0.73225 0.0
C254 C 0.30822 0.74402 0.84079 0.0
C255 C 0.29722 0.71608 0.82975 0.0
C256 C 0.28706 0.70297 0.70994 0.0
C257 C 0.28892 0.71851 0.60034 0.0
C258 C 0.29997 0.7465 0.61126 0.0
C259 C 0.36585 0.85826 0.44714 0.0
O260 O 0.36932 0.90322 0.6667 0.0
O261 O 0.33544 0.86257 0.75002 0.0
O262 O 0.43728 0.93558 0.69942 0.0
O263 O 0.42405 0.92265 0.50001 0.0
O264 O 0.41848 0.89119 0.86028 0.0
O265 O 0.37681 0.87202 0.82083 0.0
O266 O 0.38899 0.82917 0.6913 0.0
O267 O 0.42548 0.87094 0.63431 0.0
O268 O 0.31547 0.80158 0.65161 0.0
O269 O 0.33895 0.80348 0.82245 0.0
O270 O 0.34145 0.84216 0.48741 0.0
O271 O 0.3824 0.86027 0.53329 0.0
H272 H 0.44516 0.96389 0.33394 0.0
H273 H 0.46187 1.01109 0.27526 0.0
H274 H 0.46678 0.03175 0.68153 0.0
H275 H 0.45011 0.98464 0.74133 0.0
H276 H 0.31501 0.75337 0.93552 0.0
H277 H 0.29595 0.70454 0.91568 0.0
H278 H 0.28116 0.70886 0.50701 0.0
H279 H 0.30035 0.75773 0.52568 0.0
Ho280 Ho 0.18076 0.52591 0.68089 0.0
Ho281 Ho 0.23651 0.52982 0.72109 0.0
C282 C 0.18368 0.47127 0.73379 0.0
C283 C 0.13392 0.51579 0.58999 0.0
C284 C 0.10599 0.49441 0.5527 0.0
C285 C 0.0979 0.49183 0.42136 0.0
C286 C 0.07074 0.47503 0.38523 0.0
C287 C 0.05096 0.46041 0.47952 0.0
C288 C 0.05903 0.46208 0.61036 0.0
C289 C 0.08627 0.47897 0.64675 0.0
C290 C 0.19902 0.53368 0.92894 0.0
C291 C 0.23313 0.58523 0.69121 0.0
C292 C 0.28427 0.53991 0.79688 0.0
C293 C 0.31357 0.55833 0.77341 0.0
C294 C 0.33176 0.54919 0.80035 0.0
C295 C 0.35968 0.56609 0.78284 0.0
C296 C 0.37006 0.59257 0.73807 0.0
C297 C 0.35187 0.60175 0.70973 0.0
C298 C 0.32382 0.58475 0.72709 0.0
C299 C 0.21843 0.52335 0.47246 0.0
O300 O 0.17035 0.48206 0.6776 0.0
O301 O 0.20872 0.48652 0.77858 0.0
O302 O 0.14046 0.51959 0.71362 0.0
O303 O 0.15409 0.51921 0.51619 0.0
O304 O 0.18379 0.54259 0.88252 0.0
O305 O 0.20137 0.51885 0.84588 0.0
O306 O 0.24758 0.57381 0.72461 0.0
O307 O 0.20723 0.57083 0.65683 0.0
O308 O 0.27048 0.523 0.70359 0.0
O309 O 0.27065 0.54983 0.85358 0.0
O310 O 0.23348 0.51411 0.51634 0.0
O311 O 0.21632 0.53773 0.55831 0.0
H312 H 0.11246 0.50364 0.34676 0.0
H313 H 0.06499 0.47408 0.28385 0.0
H314 H 0.0441 0.451 0.68471 0.0
H315 H 0.09166 0.48058 0.74891 0.0
H316 H 0.32434 0.52892 0.83608 0.0
H317 H 0.37327 0.55858 0.80528 0.0
H318 H 0.35943 0.6221 0.67506 0.0
H319 H 0.3102 0.59225 0.70522 0.0
Ho320 Ho 0.54916 0.67187 0.65922 0.0
Ho321 Ho 0.53956 0.72092 0.6838 0.0
C322 C 0.60159 0.72965 0.69326 0.0
C323 C 0.5517 0.63054 0.5742 0.0
C324 C 0.57108 0.62115 0.54373 0.0
C325 C 0.59551 0.63734 0.47676 0.0
C326 C 0.61262 0.62718 0.44397 0.0
C327 C 0.60559 0.60069 0.4773 0.0
C328 C 0.58126 0.58462 0.54438 0.0
C329 C 0.5642 0.59473 0.57696 0.0
C330 C 0.55157 0.69052 0.90179 0.0
C331 C 0.48701 0.66233 0.68528 0.0
C332 C 0.53611 0.7634 0.73569 0.0
C333 C 0.51777 0.77432 0.71292 0.0
C334 C 0.52797 0.80207 0.72729 0.0
C335 C 0.51097 0.81297 0.71218 0.0
C336 C 0.48338 0.79631 0.68219 0.0
C337 C 0.47318 0.76853 0.6656 0.0
C338 C 0.49025 0.7576 0.68071 0.0
C339 C 0.53501 0.69988 0.44528 0.0
O340 O 0.59259 0.70487 0.65009 0.0
O341 O 0.58505 0.73899 0.72146 0.0
O342 O 0.54818 0.63412 0.69693 0.0
O343 O 0.55181 0.64897 0.49851 0.0
O344 O 0.56549 0.67949 0.86342 0.0
O345 O 0.53549 0.68882 0.8134 0.0
O346 O 0.4967 0.68805 0.71272 0.0
O347 O 0.50287 0.65224 0.65532 0.0
O348 O 0.54875 0.76137 0.63413 0.0
O349 O 0.5274 0.74265 0.81365 0.0
O350 O 0.52089 0.71052 0.48432 0.0
O351 O 0.55242 0.70344 0.52988 0.0
H352 H 0.60134 0.65776 0.44951 0.0
H353 H 0.63141 0.64002 0.39332 0.0
H354 H 0.57554 0.56423 0.572 0.0
H355 H 0.54545 0.58178 0.62776 0.0
H356 H 0.54909 0.81533 0.75211 0.0
H357 H 0.51924 0.8344 0.72586 0.0
H358 H 0.45194 0.75531 0.64302 0.0
H359 H 0.48193 0.73612 0.66896 0.0
C360 C 0.13102 0.39862 0.82932 0.0
C361 C 0.14528 0.38494 0.79983 0.0
C362 C 0.18269 0.42694 0.70996 0.0
C363 C 0.16984 0.44133 0.75268 0.0
N364 N 0.13326 0.44117 0.87153 0.0
N365 N 0.18652 0.38687 0.73002 0.0
C366 C 0.14431 0.42722 0.8168 0.0
C367 C 0.17165 0.39935 0.74516 0.0
N368 N 0.10447 0.38419 0.86624 0.0
N369 N 0.20478 0.43927 0.63031 0.0
H370 H 0.17915 0.36671 0.75388 0.0
H371 H 0.20694 0.39706 0.70458 0.0
H372 H 0.21292 0.45909 0.59852 0.0
H373 H 0.21333 0.4291 0.5849 0.0
H374 H 0.09201 0.39254 0.87452 0.0
H375 H 0.09416 0.36333 0.8779 0.0
H376 H 0.11648 0.43242 0.93273 0.0
H377 H 0.14215 0.46198 0.86532 0.0
C378 C 0.66885 0.77403 0.87213 0.0
C379 C 0.6879 0.78042 0.77053 0.0
C380 C 0.65029 0.75549 0.61517 0.0
C381 C 0.63139 0.74721 0.71914 0.0
N382 N 0.62362 0.74395 0.951 0.0
N383 N 0.69722 0.77415 0.54867 0.0
C384 C 0.64094 0.75529 0.84881 0.0
C385 C 0.67873 0.77025 0.64282 0.0
N386 N 0.6773 0.78641 -0.00943 0.0
N387 N 0.64105 0.75009 0.48955 0.0
H388 H 0.71809 0.78497 0.56523 0.0
H389 H 0.69195 0.76491 0.45766 0.0
H390 H 0.62047 0.73947 0.46579 0.0
H391 H 0.65358 0.75797 0.4087 0.0
H392 H 0.66401 0.78501 0.0635 0.0
H393 H 0.69756 0.8 0.01231 0.0
H394 H 0.62983 0.74678 0.04807 0.0
H395 H 0.60343 0.72937 0.93825 0.0
C396 C 0.31262 0.92306 0.89938 0.0
C397 C 0.29737 0.9264 0.79895 0.0
C398 C 0.31403 0.90555 0.64203 0.0
C399 C 0.3278 0.90062 0.74442 0.0
N400 N 0.33662 0.90061 0.97431 0.0
N401 N 0.28035 0.91757 0.57858 0.0
C402 C 0.326 0.90817 0.87427 0.0
C403 C 0.29732 0.91688 0.671 0.0
N404 N 0.31503 0.93491 0.01793 0.0
N405 N 0.31682 0.89925 0.51688 0.0
H406 H 0.2679 0.92572 0.59581 0.0
H407 H 0.277 0.90837 0.48782 0.0
H408 H 0.32684 0.88883 0.49367 0.0
H409 H 0.31035 0.90537 0.43558 0.0
H410 H 0.3282 0.93584 0.09087 0.0
H411 H 0.30554 0.94593 0.03981 0.0
H412 H 0.33351 0.90286 0.07226 0.0
H413 H 0.34677 0.89 0.95978 0.0
C414 C 0.34653 0.1011 0.9614 0.0
C415 C 0.35612 0.11308 0.08588 0.0
C416 C 0.30923 0.09031 0.16564 0.0
C417 C 0.29935 0.08098 0.03768 0.0
N418 N 0.30866 0.08024 0.80945 0.0
N419 N 0.34594 0.1233 0.29908 0.0
C420 C 0.31804 0.08705 0.93426 0.0
C421 C 0.33726 0.10888 0.18582 0.0
N422 N 0.36459 0.10249 0.8703 0.0
N423 N 0.29213 0.0803 0.2697 0.0
H424 H 0.36621 0.13735 0.31775 0.0
H425 H 0.33273 0.12321 0.36913 0.0
H426 H 0.27187 0.06545 0.26059 0.0
H427 H 0.29874 0.08434 0.36611 0.0
H428 H 0.35881 0.09188 0.78282 0.0
H429 H 0.38545 0.11249 0.88699 0.0
H430 H 0.32122 0.08657 0.72818 0.0
H431 H 0.28807 0.07006 0.78608 0.0
C432 C 0.98208 0.2711 0.03867 0.0
C433 C 0.96317 0.26155 0.14237 0.0
C434 C 0.97792 0.22926 0.20004 0.0
C435 C 0.994 0.23602 0.08473 0.0
N436 N 1.00744 0.26118 0.88246 0.0
N437 N 0.93982 0.22828 0.30907 0.0
C438 C 0.99514 0.25648 0.00118 0.0
C439 C 0.96018 0.23972 0.21944 0.0
N440 N 0.98803 0.29456 0.97726 0.0
N441 N 0.98047 0.21403 0.29535 0.0
H442 H 0.92647 0.23533 0.32699 0.0
H443 H 0.93468 0.21035 0.3571 0.0
H444 H 0.99397 0.20688 0.29045 0.0
H445 H 0.97147 0.21109 0.38658 0.0
H446 H 1.00381 0.30419 0.91084 0.0
H447 H 0.97894 0.30582 0.00219 0.0
H448 H 1.00608 0.27354 0.8121 0.0
H449 H 1.01677 0.25085 0.84823 0.0
C450 C 0.82206 0.75564 0.96238 0.0
C451 C 0.83255 0.775 0.0642 0.0
C452 C 0.80713 0.73837 0.22096 0.0
C453 C 0.80302 0.71896 0.12424 0.0
N454 N 0.78652 0.71105 0.90322 0.0
N455 N 0.8323 0.78462 0.29299 0.0
C456 C 0.8049 0.72783 -0.00694 0.0
C457 C 0.82437 0.76629 0.19439 0.0
N458 N 0.8282 0.76367 0.83598 0.0
N459 N 0.7906 0.73065 0.32718 0.0
H460 H 0.8424 0.80526 0.27646 0.0
H461 H 0.82969 0.77914 0.39102 0.0
H462 H 0.77389 0.71126 0.33501 0.0
H463 H 0.7908 0.74415 0.39558 0.0
H464 H 0.82361 0.75014 0.7593 0.0
H465 H 0.83917 0.78386 0.80939 0.0
H466 H 0.78526 0.71703 0.80878 0.0
H467 H 0.76982 0.69269 0.93033 0.0
C468 C 1.01057 0.41846 0.38854 0.0
C469 C 1.02167 0.4448 0.44062 0.0
C470 C 0.97884 0.44378 0.39278 0.0
C471 C 0.96646 0.4161 0.35767 0.0
N472 N 0.97568 0.38379 0.25364 0.0
N473 N 1.01589 0.48214 0.50151 0.0
C474 C 0.98368 0.40509 0.33642 0.0
C475 C 1.00565 0.45734 0.44514 0.0
N476 N 1.02556 0.40591 0.39139 0.0
N477 N 0.96629 0.45802 0.36159 0.0
H478 H 0.0357 0.4932 0.53663 0.0
H479 H 1.00409 0.4908 0.52281 0.0
H480 H 0.94912 0.45011 0.30224 0.0
H481 H 0.97506 0.47869 0.37553 0.0
H482 H 1.01756 0.3856 0.36967 0.0
H483 H 0.04544 0.41525 0.42622 0.0
H484 H 0.98796 0.37593 0.22773 0.0
H485 H 0.95881 0.37697 0.19301 0.0
C486 C 0.6401 0.58836 0.55139 0.0
C487 C 0.62426 0.59003 0.44893 0.0
C488 C 0.64364 0.5709 0.29691 0.0
C489 C 0.6576 0.56705 0.40211 0.0
N490 N 0.6665 0.56911 0.63292 0.0
N491 N 0.60841 0.58033 0.22704 0.0
C492 C 0.65503 0.57491 0.53028 0.0
C493 C 0.62541 0.58068 0.32215 0.0
N494 N 0.64163 0.60052 0.66816 0.0
N495 N 0.64803 0.56546 0.17267 0.0
H496 H 0.59518 0.58766 0.24162 0.0
H497 H 0.60598 0.57117 0.13672 0.0
H498 H 0.66037 0.55736 0.15148 0.0
H499 H 0.64092 0.57051 0.09002 0.0
H500 H 0.65519 0.6028 0.74199 0.0
H501 H 0.631 0.61052 0.68762 0.0
H502 H 0.66254 0.57102 0.73004 0.0
H503 H 0.67851 0.56044 0.62108 0.0
C504 C 0.51663 0.09651 0.35863 0.0
C505 C 0.50228 0.11034 0.38402 0.0
C506 C 0.46233 0.06699 0.44594 0.0
C507 C 0.47805 0.0542 0.43857 0.0
N508 N 0.52146 0.05766 0.40378 0.0
N509 N 0.46173 0.10862 0.46815 0.0
C510 C 0.50556 0.06921 0.39903 0.0
C511 C 0.47509 0.09553 0.43096 0.0
N512 N 0.54035 0.10905 0.29036 0.0
N513 N 0.43497 0.05177 0.46469 0.0
H514 H 0.46973 0.12928 0.45989 0.0
H515 H 0.44339 0.09924 0.51805 0.0
H516 H 0.42501 0.03093 0.47735 0.0
H517 H 0.42186 0.05936 0.45577 0.0
H518 H 0.55033 0.09918 0.2576 0.0
H519 H 0.54851 0.12853 0.25367 0.0
H520 H 0.54238 0.06848 0.39061 0.0
H521 H 0.51416 0.03773 0.43186 0.0
C522 C 0.09779 0.12002 -0.00177 0.0
C523 C 0.12552 0.13563 0.03372 0.0
C524 C 0.11979 0.17495 0.06564 0.0
C525 C 0.09276 0.16022 0.01659 0.0
N526 N 0.05776 0.11937 0.9148 0.0
N527 N 0.16428 0.17928 0.07695 0.0
C528 C 0.08221 0.1329 0.97719 0.0
C529 C 0.13691 0.16351 0.05977 0.0
N530 N 0.08601 0.09266 -0.01139 0.0
N531 N 0.12874 0.19919 0.12594 0.0
H532 H 0.17748 0.17167 0.07381 0.0
H533 H 0.17412 0.20021 0.08196 0.0
H534 H 0.11667 0.2078 0.13966 0.0
H535 H 0.14715 0.20933 0.17564 0.0
H536 H 0.06518 0.07983 0.97881 0.0
H537 H 0.09675 0.08254 0.00163 0.0
H538 H 0.05062 0.10069 0.87053 0.0
H539 H 0.04552 0.12764 0.89655 0.0
C540 C 0.92517 0.96278 0.15398 0.0
C541 C 0.9152 0.94949 0.03235 0.0
C542 C 0.93181 0.99365 0.92605 0.0
C543 C 0.93884 1.00644 0.04988 0.0
N544 N 0.93945 1.00307 0.28363 0.0
N545 N 0.91036 0.95211 0.80058 0.0
C546 C 0.9349 0.99097 0.16426 0.0
C547 C 0.91884 0.96494 0.91784 0.0
N548 N 0.92592 0.94864 0.25959 0.0
N549 N 0.93847 1.00914 0.81607 0.0
H550 H 0.90434 0.93186 0.78864 0.0
H551 H 0.90885 0.96119 0.7157 0.0
H552 H 0.94789 0.0301 0.81881 0.0
H553 H 0.93641 1.00168 0.72193 0.0
H554 H 0.93574 0.95765 0.34646 0.0
H555 H 0.91866 0.928 0.25786 0.0
H556 H 0.9338 0.99248 0.37109 0.0
H557 H 0.94698 0.02367 0.2954 0.0
C558 C 0.08043 0.9485 0.9365 0.0
C559 C 0.06745 0.94362 0.05943 0.0
C560 C 0.11198 0.97028 0.16605 0.0
C561 C 0.12472 0.97679 0.04218 0.0
N562 N 0.12051 0.9767 0.80832 0.0
N563 N 0.07028 0.95334 0.28918 0.0
C564 C 0.10878 0.96712 0.92697 0.0
C565 C 0.08309 0.95551 0.17374 0.0
N566 N 0.06579 0.93477 0.82912 0.0
N567 N 0.12754 0.97742 0.27655 0.0
H568 H 0.04924 0.94267 0.29862 0.0
H569 H 0.08028 0.96389 0.373 0.0
H570 H 0.14868 0.98825 0.27484 0.0
H571 H 0.11967 0.9708 0.3693 0.0
H572 H 0.07459 0.93512 0.7399 0.0
H573 H 0.04499 0.92119 0.83179 0.0
H574 H 0.10953 0.97262 0.72183 0.0
H575 H 0.14098 0.99091 0.79753 0.0
C576 C 0.76089 0.4801 0.28343 0.0
C577 C 0.76478 0.50077 0.37192 0.0
C578 C 0.80309 0.49868 0.47091 0.0
C579 C 0.7971 0.47595 0.39253 0.0
N580 N 0.76756 0.44239 0.23757 0.0
N581 N 0.78707 0.52703 0.56325 0.0
C582 C 0.77526 0.46596 0.30223 0.0
C583 C 0.78531 0.50944 0.46898 0.0
N584 N 0.74418 0.47461 0.17824 0.0
N585 N 0.82618 0.51047 0.54477 0.0
H586 H 0.7744 0.53523 0.56558 0.0
H587 H 0.79948 0.53174 0.6451 0.0
H588 H 0.83969 0.50324 0.54864 0.0
H589 H 0.83319 0.52874 0.59302 0.0
H590 H 0.7426 0.46176 0.10296 0.0
H591 H 0.73397 0.48505 0.15932 0.0
H592 H 0.74995 0.43251 0.1817 0.0
H593 H 0.77747 0.4314 0.24882 0.0
C594 C 0.58338 0.32726 0.28054 0.0
C595 C 0.60339 0.34216 0.37616 0.0
C596 C 0.59856 0.29996 0.46253 0.0
C597 C 0.57983 0.28503 0.36065 0.0
N598 N 0.5605 0.28645 0.15248 0.0
N599 N 0.63439 0.34337 0.53931 0.0
C600 C 0.57392 0.29924 0.26399 0.0
C601 C 0.6123 0.32868 0.46121 0.0
N602 N 0.57276 0.33969 0.20743 0.0
N603 N 0.60236 0.28695 0.56492 0.0
H604 H 0.64488 0.36437 0.54154 0.0
H605 H 0.64385 0.33489 0.5923 0.0
H606 H 0.59283 0.26614 0.57339 0.0
H607 H 0.61306 0.2968 0.64879 0.0
H608 H 0.55591 0.32924 0.14703 0.0
H609 H 0.5793 0.36016 0.21538 0.0
H610 H 0.55824 0.29649 0.07312 0.0
H611 H 0.55423 0.26639 0.13257 0.0
C612 C 0.74766 0.30051 0.50505 0.0
C613 C 0.73274 0.28095 0.40793 0.0
C614 C 0.77449 0.2974 0.2802 0.0
C615 C 0.79012 0.31434 0.38496 0.0
N616 N 0.79127 0.33008 0.60485 0.0
N617 N 0.73277 0.25795 0.21166 0.0
C618 C 0.7766 0.31546 0.4994 0.0
C619 C 0.74642 0.27856 0.29807 0.0
N620 N 0.73412 0.30546 0.60076 0.0
N621 N 0.78599 0.30063 0.16035 0.0
H622 H 0.71221 0.24381 0.22081 0.0
H623 H 0.74239 0.25353 0.13768 0.0
H624 H 0.80561 0.31601 0.14089 0.0
H625 H 0.77509 0.29055 0.07725 0.0
H626 H 0.74354 0.32151 0.66569 0.0
H627 H 0.71304 0.295 0.60806 0.0
H628 H 0.78276 0.32886 0.69597 0.0
H629 H 0.8123 0.34192 0.60534 0.0
C630 C 0.45698 0.8133 0.55288 0.0
C631 C 0.46513 0.80804 0.67531 0.0
C632 C 0.44356 0.83031 0.78643 0.0
C633 C 0.43322 0.83336 0.66554 0.0
N634 N 0.42832 0.82626 0.43373 0.0
N635 N 0.46226 0.80732 0.90961 0.0
C636 C 0.43944 0.8244 0.54862 0.0
C637 C 0.45725 0.81532 0.79235 0.0
N638 N 0.46675 0.80852 0.44082 0.0
N639 N 0.44141 0.84282 0.89501 0.0
H640 H 0.47227 0.79637 0.91814 0.0
H641 H 0.45439 0.80938 -0.00259 0.0
H642 H 0.43255 0.85485 0.8931 0.0
H643 H 0.45084 0.84366 0.98331 0.0
H644 H 0.46405 0.8145 0.3489 0.0
H645 H 0.47924 0.80009 0.44041 0.0
H646 H 0.42929 0.81735 0.34723 0.0
H647 H 0.41675 0.83564 0.42651 0.0
C648 C 0.23537 0.62846 0.76592 0.0
C649 C 0.24669 0.61546 0.69281 0.0
C650 C 0.28573 0.66 0.63882 0.0
C651 C 0.27306 0.67282 0.70147 0.0
N652 N 0.23318 0.66903 0.80216 0.0
N653 N 0.28041 0.61934 0.53928 0.0
C654 C 0.24708 0.65695 0.75823 0.0
C655 C 0.27132 0.63139 0.62379 0.0
N656 N 0.21431 0.61385 0.84881 0.0
N657 N 0.31187 0.67508 0.59682 0.0
H658 H 0.27013 0.59865 0.52304 0.0
H659 H 0.2966 0.62999 0.4761 0.0
H660 H 0.32296 0.696 0.60524 0.0
H661 H 0.3233 0.66673 0.56382 0.0
H662 H 0.20724 0.6226 0.91514 0.0
H663 H 0.20571 0.59319 0.86134 0.0
H664 H 0.21298 0.65829 0.83111 0.0
H665 H 0.24096 0.68979 0.79817 0.0
C666 C 0.44031 0.63576 0.58524 0.0
C667 C 0.45717 0.64388 0.69762 0.0
C668 C 0.41672 0.62096 0.83649 0.0
C669 C 0.40007 0.6107 0.72369 0.0
N670 N 0.3964 0.60484 0.49056 0.0
N671 N 0.46199 0.6416 0.92981 0.0
C672 C 0.41199 0.61714 0.5979 0.0
C673 C 0.4455 0.6357 0.8232 0.0
N674 N 0.45115 0.6467 0.46691 0.0
N675 N 0.40497 0.61744 0.95618 0.0
H676 H 0.48307 0.65278 0.92411 0.0
H677 H 0.45497 0.63373 0.02218 0.0
H678 H 0.38403 0.60694 0.96976 0.0
H679 H 0.41576 0.62682 0.04056 0.0
H680 H 0.43955 0.64379 0.38348 0.0
H681 H 0.47162 0.66076 0.45464 0.0
H682 H 0.40438 0.60638 0.39781 0.0
H683 H 0.37563 0.59125 0.49574 0.0
C684 C 1.0314 0.21022 0.57549 0.0
C685 C 0.03581 0.19118 0.6427 0.0
C686 C 0.05635 0.18441 0.44668 0.0
C687 C 0.052 0.20361 0.38039 0.0
N688 N 0.04271 0.24012 0.39022 0.0
N689 N 0.04778 0.1565 0.63849 0.0
C690 C 0.04151 0.21799 0.44705 0.0
C691 C 0.04733 0.17747 0.57767 0.0
N692 N 1.01657 0.22009 0.63266 0.0
N693 N 0.06965 0.17333 0.38498 0.0
H694 H 0.03985 0.15002 0.73118 0.0
H695 H 0.05365 0.14394 0.59451 0.0
H696 H 0.07628 0.17787 0.28904 0.0
H697 H 0.07596 0.1612 0.43032 0.0
H698 H 1.01021 0.23189 0.58396 0.0
H699 H 1.00835 0.21434 0.72554 0.0
H700 H 0.03818 0.25326 0.43901 0.0
H701 H 0.05053 0.24677 0.29721 0.0
C702 C 0.87083 0.88029 0.59536 0.0
C703 C 0.87817 0.86157 0.64471 0.0
C704 C 0.88194 0.84873 0.42287 0.0
C705 C 0.87357 0.86647 0.37295 0.0
N706 N 0.87048 0.90628 0.4109 0.0
N707 N 0.8792 0.8207 0.60243 0.0
C708 C 0.8709 0.88426 0.459 0.0
C709 C 0.88032 0.84366 0.55759 0.0
N710 N 0.86158 0.89276 0.67588 0.0
N711 N 0.89365 0.83831 0.34475 0.0
H712 H 0.87588 0.81493 0.69978 0.0
H713 H 0.8778 0.80564 0.54072 0.0
H714 H 0.89902 0.84448 0.24973 0.0
H715 H 0.90209 0.82708 0.37998 0.0
H716 H 0.85301 0.90398 0.64274 0.0
H717 H 0.85879 0.8891 0.7745 0.0
H718 H 0.87209 0.92185 0.4693 0.0
H719 H 0.87235 0.91105 0.31218 0.0
C720 C 0.20133 1.00709 0.59698 0.0
C721 C 0.20236 0.03111 0.63731 0.0
C722 C 0.2142 0.04898 0.41686 0.0
C723 C 0.21465 0.02542 0.37734 0.0
N724 N 0.21949 0.98789 0.44861 0.0
N725 N 0.19638 0.0679 0.57035 0.0
C726 C 0.21115 1.00601 0.47252 0.0
C727 C 0.20493 0.05007 0.54282 0.0
N728 N 0.18883 0.98445 0.67125 0.0
N729 N 0.22473 0.07138 0.34079 0.0
H730 H 0.18671 0.06724 0.65756 0.0
H731 H 0.19518 0.08046 0.50049 0.0
H732 H 0.23383 0.07288 0.25235 0.0
H733 H 0.22757 0.08982 0.37329 0.0
H734 H 0.18551 0.96579 0.63938 0.0
H735 H 0.17837 0.98343 0.75519 0.0
H736 H 0.21941 0.97488 0.51978 0.0
H737 H 0.23028 0.98872 0.36529 0.0
C738 C 0.68786 0.52344 0.78616 0.0
C739 C 0.71392 0.53909 0.73022 0.0
C740 C 0.73488 0.53958 0.93901 0.0
C741 C 0.70891 0.52705 -0.00283 0.0
N742 N 0.66094 0.51105 0.98202 0.0
N743 N 0.76266 0.56459 0.75568 0.0
C744 C 0.68547 0.52024 0.92262 0.0
C745 C 0.73761 0.54804 0.80746 0.0
N746 N 0.6654 0.51076 0.7091 0.0
N747 N 0.75672 0.54242 0.00765 0.0
H748 H 0.7658 0.57004 0.6577 0.0
H749 H 0.78027 0.57429 0.81171 0.0
H750 H 0.75528 0.53611 0.1037 0.0
H751 H 0.77561 0.54874 0.96623 0.0
H752 H 0.64624 0.49685 0.74381 0.0
H753 H 0.66652 0.51194 0.60862 0.0
H754 H 0.64388 0.50887 0.93339 0.0
H755 H 0.6581 0.50781 0.08213 0.0
C756 C 0.52524 0.17299 0.78285 0.0
C757 C 0.53443 0.19839 0.72166 0.0
C758 C 0.55728 0.22156 0.92349 0.0
C759 C 0.5478 0.19634 -0.01436 0.0
N760 N 0.52472 0.1479 0.97522 0.0
N761 N 0.55254 0.24629 0.74479 0.0
C762 C 0.5324 0.17197 0.91526 0.0
C763 C 0.54837 0.22248 0.79536 0.0
N764 N 0.50775 0.14994 0.71751 0.0
N765 N 0.57662 0.24462 0.98265 0.0
H766 H 0.54697 0.24825 0.65049 0.0
H767 H 0.55953 0.26375 0.80016 0.0
H768 H 0.58485 0.24483 0.0738 0.0
H769 H 0.58662 0.26321 0.93591 0.0
H770 H 0.49862 0.13068 0.75677 0.0
H771 H 0.50022 0.15014 0.62553 0.0
H772 H 0.5162 0.12947 0.92747 0.0
H773 H 0.52795 0.14624 0.0739 0.0
C774 C 0.89466 0.38487 0.7724 0.0
C775 C 0.87598 0.3594 0.71858 0.0
C776 C 0.86009 0.34178 0.93799 0.0
C777 C 0.87896 0.36734 -0.00908 0.0
N778 N 0.92166 0.4082 0.96049 0.0
N779 N 0.83487 0.31673 0.74883 0.0
C780 C 0.8985 0.3874 0.90864 0.0
C781 C 0.85704 0.33867 0.80106 0.0
N782 N 0.90698 0.40727 0.69619 0.0
N783 N 0.84663 0.3198 0.01625 0.0
H784 H 0.83069 0.31434 0.64935 0.0
H785 H 0.81867 0.30268 0.80438 0.0
H786 H 0.84981 0.32025 0.11552 0.0
H787 H 0.8351 0.30022 0.98106 0.0
H788 H 0.91959 0.42654 0.73322 0.0
H789 H 0.90054 0.40746 0.60199 0.0
H790 H 0.93773 0.42207 0.90355 0.0
H791 H 0.92639 0.40928 0.05941 0.0
C792 C 0.37974 0.88727 0.24902 0.0
C793 C 0.37299 0.8624 0.30823 0.0
C794 C 0.38062 0.84563 0.10284 0.0
C795 C 0.38827 0.87087 0.04464 0.0
N796 N 0.39911 0.91716 0.06434 0.0
N797 N 0.36898 0.81856 0.29942 0.0
C798 C 0.38908 0.89216 0.1185 0.0
C799 C 0.37394 0.84171 0.23726 0.0
N800 N 0.37629 0.90586 0.31638 0.0
N801 N 0.37955 0.82535 0.02894 0.0
H802 H 0.36313 0.81453 0.39672 0.0
H803 H 0.37219 0.80386 0.25821 0.0
H804 H 0.38601 0.82814 0.93281 0.0
H805 H 0.37119 0.80549 0.05951 0.0
H806 H 0.37754 0.92295 0.27448 0.0
H807 H 0.3704 0.90331 0.41358 0.0
H808 H 0.40345 0.9343 0.11751 0.0
H809 H 0.40466 0.92132 0.9668 0.0
C810 C 0.22815 0.55129 0.12845 0.0
C811 C 0.20336 0.53203 0.07008 0.0
C812 C 0.18898 0.50641 0.27401 0.0
C813 C 0.21384 0.52556 0.33224 0.0
N814 N 0.25916 0.56328 0.3116 0.0
N815 N 0.15769 0.49506 0.09281 0.0
C816 C 0.23401 0.54728 0.25865 0.0
C817 C 0.18306 0.51059 0.14436 0.0
N818 N 0.24541 0.57409 0.0613 0.0
N819 N 0.17165 0.48357 0.34074 0.0
H820 H 0.15246 0.49819 -0.00026 0.0
H821 H 0.14112 0.48084 0.14566 0.0
H822 H 0.17587 0.47958 0.43419 0.0
H823 H 0.15442 0.46745 0.30005 0.0
H824 H 0.26265 0.59028 0.10142 0.0
H825 H 0.24111 0.57797 0.9678 0.0
H826 H 0.2757 0.57778 0.25966 0.0
H827 H 0.26426 0.56058 0.40581 0.0
C828 C 0.5549 0.72064 0.23313 0.0
C829 C 0.5391 0.69708 0.30698 0.0
C830 C 0.53202 0.66896 0.11569 0.0
C831 C 0.54634 0.69271 0.04007 0.0
N832 N 0.5651 0.74074 0.02037 0.0
N833 N 0.50933 0.64903 0.31862 0.0
C834 C 0.5559 0.71844 0.09676 0.0
C835 C 0.52675 0.67125 0.24847 0.0
N836 N 0.56951 0.7451 0.29338 0.0
N837 N 0.5234 0.64426 0.06071 0.0
H838 H 0.50587 0.64991 0.41727 0.0
H839 H 0.49703 0.63009 0.27795 0.0
H840 H 0.52452 0.6414 0.96117 0.0
H841 H 0.51614 0.62659 0.1144 0.0
H842 H 0.58392 0.76237 0.24541 0.0
H843 H 0.56914 0.74778 0.39363 0.0
H844 H 0.56952 0.75954 0.05534 0.0
H845 H 0.56561 0.73979 0.9199 0.0
loop_
_geom_bond_atom_site_label_1
_geom_bond_atom_site_label_2
_geom_bond_distance
_geom_bond_site_symmetry_2
_ccdc_geom_bond_type
Ho0 C3 2.811 1_554 S
Ho0 O20 2.322 . S
Ho0 O22 2.378 . S
Ho0 O23 2.524 1_554 S
Ho0 O24 2.381 . S
Ho0 O25 2.669 . S
Ho0 O27 2.346 . S
Ho0 O31 2.305 1_554 S
Ho1 C12 2.811 1_556 S
Ho1 O21 2.346 1_556 S
Ho1 O25 2.305 1_656 S
Ho1 O26 2.322 1_655 S
Ho1 O28 2.378 . S
Ho1 O29 2.524 1_556 S
Ho1 O30 2.381 . S
Ho1 O31 2.669 1_655 S
C2 O20 1.259 1_655 S
C2 O21 1.268 . S
C3 Ho0 2.811 1_556 S
C3 C4 1.488 . S
C3 O22 1.215 1_556 S
C3 O23 1.289 . S
C4 C3 1.488 . S
C4 C5 1.348 . S
C4 C9 1.413 1_556 S
C5 C4 1.348 . S
C5 C6 1.442 . S
C5 H32 0.930 . S
C6 C5 1.442 . S
C6 C7 1.381 . S
C6 H33 0.931 . S
C7 C6 1.381 . S
C7 C8 1.321 1_556 S
C8 C7 1.321 1_554 S
C8 C9 1.403 . S
C8 H34 0.934 . S
C9 C4 1.413 1_554 S
C9 C8 1.403 . S
C9 H35 0.930 . S
C10 O24 1.275 . S
C10 O25 1.256 . S
C11 O26 1.259 . S
C11 O27 1.268 1_556 S
C12 Ho1 2.811 1_554 S
C12 C13 1.488 . S
C12 O28 1.215 1_554 S
C12 O29 1.289 . S
C13 C12 1.488 . S
C13 C14 1.348 . S
C13 C18 1.413 1_554 S
C14 C13 1.348 . S
C14 C15 1.442 . S
C14 H36 0.930 . S
C15 C14 1.442 . S
C15 C16 1.381 . S
C15 H37 0.931 . S
C16 C15 1.381 . S
C16 C17 1.321 1_554 S
C17 C16 1.321 1_556 S
C17 C18 1.403 . S
C17 H38 0.934 . S
C18 C13 1.413 1_556 S
C18 C17 1.403 . S
C18 H39 0.930 . S
C19 O30 1.275 1_455 S
C19 O31 1.256 . S
O20 Ho0 2.322 . S
O20 C2 1.259 1_455 S
O21 Ho1 2.346 1_554 S
O21 C2 1.268 . S
O22 Ho0 2.378 . S
O22 C3 1.215 1_554 S
O23 Ho0 2.524 1_556 S
O23 C3 1.289 . S
O24 Ho0 2.381 . S
O24 C10 1.275 . S
O25 Ho0 2.669 . S
O25 Ho1 2.305 1_454 S
O25 C10 1.256 . S
O26 Ho1 2.322 1_455 S
O26 C11 1.259 . S
O27 Ho0 2.346 . S
O27 C11 1.268 1_554 S
O28 Ho1 2.378 . S
O28 C12 1.215 1_556 S
O29 Ho1 2.524 1_554 S
O29 C12 1.289 . S
O30 Ho1 2.381 . S
O30 C19 1.275 1_655 S
O31 Ho0 2.305 1_556 S
O31 Ho1 2.669 1_455 S
O31 C19 1.256 . S
H32 C5 0.930 . S
H33 C6 0.931 . S
H34 C8 0.934 . S
H35 C9 0.930 . S
H36 C14 0.930 . S
H37 C15 0.931 . S
H38 C17 0.934 . S
H39 C18 0.930 . S
Ho40 C43 2.811 1_554 S
Ho40 O60 2.322 . S
Ho40 O62 2.378 . S
Ho40 O63 2.524 1_554 S
Ho40 O64 2.381 . S
Ho40 O65 2.669 . S
Ho40 O67 2.346 . S
Ho40 O71 2.305 1_554 S
Ho41 C52 2.811 1_556 S
Ho41 O61 2.346 1_556 S
Ho41 O65 2.305 1_556 S
Ho41 O66 2.322 . S
Ho41 O68 2.378 . S
Ho41 O69 2.524 1_556 S
Ho41 O70 2.381 . S
Ho41 O71 2.669 . S
C42 O60 1.259 . S
C42 O61 1.268 . S
C43 Ho40 2.811 1_556 S
C43 C44 1.488 . S
C43 O62 1.215 1_556 S
C43 O63 1.289 . S
C44 C43 1.488 . S
C44 C45 1.348 . S
C44 C49 1.413 1_556 S
C45 C44 1.348 . S
C45 C46 1.442 . S
C45 H72 0.930 . S
C46 C45 1.442 . S
C46 C47 1.381 . S
C46 H73 0.931 . S
C47 C46 1.381 . S
C47 C48 1.321 1_556 S
C48 C47 1.321 1_554 S
C48 C49 1.403 . S
C48 H74 0.934 . S
C49 C44 1.413 1_554 S
C49 C48 1.403 . S
C49 H75 0.930 . S
C50 O64 1.275 . S
C50 O65 1.256 . S
C51 O66 1.259 . S
C51 O67 1.268 1_556 S
C52 Ho41 2.811 1_554 S
C52 C53 1.488 . S
C52 O68 1.215 1_554 S
C52 O69 1.289 . S
C53 C52 1.488 . S
C53 C54 1.348 . S
C53 C58 1.413 1_554 S
C54 C53 1.348 . S
C54 C55 1.442 . S
C54 H76 0.930 . S
C55 C54 1.442 . S
C55 C56 1.381 1_655 S
C55 H77 0.931 . S
C56 C55 1.381 1_455 S
C56 C57 1.321 1_454 S
C57 C56 1.321 1_656 S
C57 C58 1.403 . S
C57 H78 0.934 1_655 S
C58 C53 1.413 1_556 S
C58 C57 1.403 . S
C58 H79 0.930 . S
C59 O70 1.275 . S
C59 O71 1.256 . S
O60 Ho40 2.322 . S
O60 C42 1.259 . S
O61 Ho41 2.346 1_554 S
O61 C42 1.268 . S
O62 Ho40 2.378 . S
O62 C43 1.215 1_554 S
O63 Ho40 2.524 1_556 S
O63 C43 1.289 . S
O64 Ho40 2.381 . S
O64 C50 1.275 . S
O65 Ho40 2.669 . S
O65 Ho41 2.305 1_554 S
O65 C50 1.256 . S
O66 Ho41 2.322 . S
O66 C51 1.259 . S
O67 Ho40 2.346 . S
O67 C51 1.268 1_554 S
O68 Ho41 2.378 . S
O68 C52 1.215 1_556 S
O69 Ho41 2.524 1_554 S
O69 C52 1.289 . S
O70 Ho41 2.381 . S
O70 C59 1.275 . S
O71 Ho40 2.305 1_556 S
O71 Ho41 2.669 . S
O71 C59 1.256 . S
H72 C45 0.930 . S
H73 C46 0.931 . S
H74 C48 0.934 . S
H75 C49 0.930 . S
H76 C54 0.930 . S
H77 C55 0.931 . S
H78 C57 0.934 1_455 S
H79 C58 0.930 . S
Ho80 C83 2.811 1_554 S
Ho80 O100 2.322 1_565 S
Ho80 O102 2.378 . S
Ho80 O103 2.524 1_554 S
Ho80 O104 2.381 . S
Ho80 O105 2.669 1_565 S
Ho80 O107 2.346 . S
Ho80 O111 2.305 1_564 S
Ho81 C92 2.811 1_556 S
Ho81 O101 2.346 1_556 S
Ho81 O105 2.305 1_556 S
Ho81 O106 2.322 . S
Ho81 O108 2.378 . S
Ho81 O109 2.524 1_556 S
Ho81 O110 2.381 . S
Ho81 O111 2.669 . S
C82 O100 1.259 . S
C82 O101 1.268 . S
C83 Ho80 2.811 1_556 S
C83 C84 1.488 . S
C83 O102 1.215 1_556 S
C83 O103 1.289 . S
C84 C83 1.488 . S
C84 C85 1.348 . S
C84 C89 1.413 1_556 S
C85 C84 1.348 . S
C85 C86 1.442 . S
C85 H112 0.930 . S
C86 C85 1.442 . S
C86 C87 1.381 . S
C86 H113 0.931 . S
C87 C86 1.381 . S
C87 C88 1.321 1_556 S
C88 C87 1.321 1_554 S
C88 C89 1.403 . S
C88 H114 0.934 . S
C89 C84 1.413 1_554 S
C89 C88 1.403 . S
C89 H115 0.930 . S
C90 O104 1.275 1_545 S
C90 O105 1.256 . S
C91 O106 1.259 1_565 S
C91 O107 1.268 1_556 S
C92 Ho81 2.811 1_554 S
C92 C93 1.488 . S
C92 O108 1.215 1_554 S
C92 O109 1.289 . S
C93 C92 1.488 . S
C93 C94 1.348 . S
C93 C98 1.413 1_554 S
C94 C93 1.348 . S
C94 C95 1.442 . S
C94 H116 0.930 . S
C95 C94 1.442 . S
C95 C96 1.381 . S
C95 H117 0.931 . S
C96 C95 1.381 . S
C96 C97 1.321 1_554 S
C97 C96 1.321 1_556 S
C97 C98 1.403 . S
C97 H118 0.934 . S
C98 C93 1.413 1_556 S
C98 C97 1.403 . S
C98 H119 0.930 . S
C99 O110 1.275 . S
C99 O111 1.256 . S
O100 Ho80 2.322 1_545 S
O100 C82 1.259 . S
O101 Ho81 2.346 1_554 S
O101 C82 1.268 . S
O102 Ho80 2.378 . S
O102 C83 1.215 1_554 S
O103 Ho80 2.524 1_556 S
O103 C83 1.289 . S
O104 Ho80 2.381 . S
O104 C90 1.275 1_565 S
O105 Ho80 2.669 1_545 S
O105 Ho81 2.305 1_554 S
O105 C90 1.256 . S
O106 Ho81 2.322 . S
O106 C91 1.259 1_545 S
O107 Ho80 2.346 . S
O107 C91 1.268 1_554 S
O108 Ho81 2.378 . S
O108 C92 1.215 1_556 S
O109 Ho81 2.524 1_554 S
O109 C92 1.289 . S
O110 Ho81 2.381 . S
O110 C99 1.275 . S
O111 Ho80 2.305 1_546 S
O111 Ho81 2.669 . S
O111 C99 1.256 . S
H112 C85 0.930 . S
H113 C86 0.931 . S
H114 C88 0.934 . S
H115 C89 0.930 . S
H116 C94 0.930 . S
H117 C95 0.931 . S
H118 C97 0.934 . S
H119 C98 0.930 . S
Ho120 C123 2.811 . S
Ho120 O140 2.322 . S
Ho120 O142 2.378 . S
Ho120 O143 2.524 . S
Ho120 O144 2.381 . S
Ho120 O145 2.669 . S
Ho120 O147 2.346 . S
Ho120 O151 2.305 . S
Ho121 C132 2.811 . S
Ho121 O141 2.346 . S
Ho121 O145 2.305 . S
Ho121 O146 2.322 . S
Ho121 O148 2.378 . S
Ho121 O149 2.524 . S
Ho121 O150 2.381 . S
Ho121 O151 2.669 . S
C122 O140 1.259 . S
C122 O141 1.268 . S
C123 Ho120 2.811 . S
C123 C124 1.488 . S
C123 O142 1.215 . S
C123 O143 1.289 . S
C124 C123 1.488 . S
C124 C125 1.348 . S
C124 C129 1.413 . S
C125 C124 1.348 . S
C125 C126 1.442 . S
C125 H152 0.930 . S
C126 C125 1.442 . S
C126 C127 1.381 . S
C126 H153 0.931 . S
C127 C126 1.381 . S
C127 C128 1.321 . S
C128 C127 1.321 . S
C128 C129 1.403 . S
C128 H154 0.934 . S
C129 C124 1.413 . S
C129 C128 1.403 . S
C129 H155 0.930 . S
C130 O144 1.275 . S
C130 O145 1.256 . S
C131 O146 1.259 . S
C131 O147 1.268 . S
C132 Ho121 2.811 . S
C132 C133 1.488 . S
C132 O148 1.215 . S
C132 O149 1.289 . S
C133 C132 1.488 . S
C133 C134 1.348 . S
C133 C138 1.413 . S
C134 C133 1.348 . S
C134 C135 1.442 . S
C134 H156 0.930 . S
C135 C134 1.442 . S
C135 C136 1.381 . S
C135 H157 0.931 . S
C136 C135 1.381 . S
C136 C137 1.321 . S
C137 C136 1.321 . S
C137 C138 1.403 . S
C137 H158 0.934 . S
C138 C133 1.413 . S
C138 C137 1.403 . S
C138 H159 0.930 . S
C139 O150 1.275 . S
C139 O151 1.256 . S
O140 Ho120 2.322 . S
O140 C122 1.259 . S
O141 Ho121 2.346 . S
O141 C122 1.268 . S
O142 Ho120 2.378 . S
O142 C123 1.215 . S
O143 Ho120 2.524 . S
O143 C123 1.289 . S
O144 Ho120 2.381 . S
O144 C130 1.275 . S
O145 Ho120 2.669 . S
O145 Ho121 2.305 . S
O145 C130 1.256 . S
O146 Ho121 2.322 . S
O146 C131 1.259 . S
O147 Ho120 2.346 . S
O147 C131 1.268 . S
O148 Ho121 2.378 . S
O148 C132 1.215 . S
O149 Ho121 2.524 . S
O149 C132 1.289 . S
O150 Ho121 2.381 . S
O150 C139 1.275 . S
O151 Ho120 2.305 . S
O151 Ho121 2.669 . S
O151 C139 1.256 . S
H152 C125 0.930 . S
H153 C126 0.931 . S
H154 C128 0.934 . S
H155 C129 0.930 . S
H156 C134 0.930 . S
H157 C135 0.931 . S
H158 C137 0.934 . S
H159 C138 0.930 . S
Ho160 C163 2.811 . S
Ho160 O180 2.322 . S
Ho160 O182 2.378 . S
Ho160 O183 2.524 . S
Ho160 O184 2.381 . S
Ho160 O185 2.669 . S
Ho160 O187 2.346 . S
Ho160 O191 2.305 . S
Ho161 C172 2.811 . S
Ho161 O181 2.346 . S
Ho161 O185 2.305 . S
Ho161 O186 2.322 . S
Ho161 O188 2.378 . S
Ho161 O189 2.524 . S
Ho161 O190 2.381 . S
Ho161 O191 2.669 . S
C162 O180 1.259 . S
C162 O181 1.268 . S
C163 Ho160 2.811 . S
C163 C164 1.488 . S
C163 O182 1.215 . S
C163 O183 1.289 . S
C164 C163 1.488 . S
C164 C165 1.348 . S
C164 C169 1.413 . S
C165 C164 1.348 . S
C165 C166 1.442 . S
C165 H192 0.930 . S
C166 C165 1.442 . S
C166 C167 1.381 . S
C166 H193 0.931 . S
C167 C166 1.381 . S
C167 C168 1.321 . S
C168 C167 1.321 . S
C168 C169 1.403 . S
C168 H194 0.934 . S
C169 C164 1.413 . S
C169 C168 1.403 . S
C169 H195 0.930 . S
C170 O184 1.275 . S
C170 O185 1.256 . S
C171 O186 1.259 . S
C171 O187 1.268 . S
C172 Ho161 2.811 . S
C172 C173 1.488 . S
C172 O188 1.215 . S
C172 O189 1.289 . S
C173 C172 1.488 . S
C173 C174 1.348 . S
C173 C178 1.413 . S
C174 C173 1.348 . S
C174 C175 1.442 . S
C174 H196 0.930 . S
C175 C174 1.442 . S
C175 C176 1.381 . S
C175 H197 0.931 . S
C176 C175 1.381 . S
C176 C177 1.321 . S
C177 C176 1.321 . S
C177 C178 1.403 . S
C177 H198 0.934 . S
C178 C173 1.413 . S
C178 C177 1.403 . S
C178 H199 0.930 . S
C179 O190 1.275 . S
C179 O191 1.256 . S
O180 Ho160 2.322 . S
O180 C162 1.259 . S
O181 Ho161 2.346 . S
O181 C162 1.268 . S
O182 Ho160 2.378 . S
O182 C163 1.215 . S
O183 Ho160 2.524 . S
O183 C163 1.289 . S
O184 Ho160 2.381 . S
O184 C170 1.275 . S
O185 Ho160 2.669 . S
O185 Ho161 2.305 . S
O185 C170 1.256 . S
O186 Ho161 2.322 . S
O186 C171 1.259 . S
O187 Ho160 2.346 . S
O187 C171 1.268 . S
O188 Ho161 2.378 . S
O188 C172 1.215 . S
O189 Ho161 2.524 . S
O189 C172 1.289 . S
O190 Ho161 2.381 . S
O190 C179 1.275 . S
O191 Ho160 2.305 . S
O191 Ho161 2.669 . S
O191 C179 1.256 . S
H192 C165 0.930 . S
H193 C166 0.931 . S
H194 C168 0.934 . S
H195 C169 0.930 . S
H196 C174 0.930 . S
H197 C175 0.931 . S
H198 C177 0.934 . S
H199 C178 0.930 . S
Ho200 C203 2.811 . S
Ho200 O220 2.322 . S
Ho200 O222 2.378 . S
Ho200 O223 2.524 . S
Ho200 O224 2.381 . S
Ho200 O225 2.669 . S
Ho200 O227 2.346 . S
Ho200 O231 2.305 . S
Ho201 C212 2.811 . S
Ho201 O221 2.346 . S
Ho201 O225 2.305 . S
Ho201 O226 2.322 . S
Ho201 O228 2.378 . S
Ho201 O229 2.524 . S
Ho201 O230 2.381 . S
Ho201 O231 2.669 . S
C202 O220 1.259 . S
C202 O221 1.268 . S
C203 Ho200 2.811 . S
C203 C204 1.488 . S
C203 O222 1.215 . S
C203 O223 1.289 . S
C204 C203 1.488 . S
C204 C205 1.348 . S
C204 C209 1.413 . S
C205 C204 1.348 . S
C205 C206 1.442 . S
C205 H232 0.930 . S
C206 C205 1.442 . S
C206 C207 1.381 . S
C206 H233 0.931 . S
C207 C206 1.381 . S
C207 C208 1.321 . S
C208 C207 1.321 . S
C208 C209 1.403 . S
C208 H234 0.934 . S
C209 C204 1.413 . S
C209 C208 1.403 . S
C209 H235 0.930 . S
C210 O224 1.275 . S
C210 O225 1.256 . S
C211 O226 1.259 . S
C211 O227 1.268 . S
C212 Ho201 2.811 . S
C212 C213 1.488 . S
C212 O228 1.215 . S
C212 O229 1.289 . S
C213 C212 1.488 . S
C213 C214 1.348 . S
C213 C218 1.413 . S
C214 C213 1.348 . S
C214 C215 1.442 . S
C214 H236 0.930 . S
C215 C214 1.442 . S
C215 C216 1.381 . S
C215 H237 0.931 . S
C216 C215 1.381 . S
C216 C217 1.321 . S
C217 C216 1.321 . S
C217 C218 1.403 . S
C217 H238 0.934 . S
C218 C213 1.413 . S
C218 C217 1.403 . S
C218 H239 0.930 . S
C219 O230 1.275 . S
C219 O231 1.256 . S
O220 Ho200 2.322 . S
O220 C202 1.259 . S
O221 Ho201 2.346 . S
O221 C202 1.268 . S
O222 Ho200 2.378 . S
O222 C203 1.215 . S
O223 Ho200 2.524 . S
O223 C203 1.289 . S
O224 Ho200 2.381 . S
O224 C210 1.275 . S
O225 Ho200 2.669 . S
O225 Ho201 2.305 . S
O225 C210 1.256 . S
O226 Ho201 2.322 . S
O226 C211 1.259 . S
O227 Ho200 2.346 . S
O227 C211 1.268 . S
O228 Ho201 2.378 . S
O228 C212 1.215 . S
O229 Ho201 2.524 . S
O229 C212 1.289 . S
O230 Ho201 2.381 . S
O230 C219 1.275 . S
O231 Ho200 2.305 . S
O231 Ho201 2.669 . S
O231 C219 1.256 . S
H232 C205 0.930 . S
H233 C206 0.931 . S
H234 C208 0.934 . S
H235 C209 0.930 . S
H236 C214 0.930 . S
H237 C215 0.931 . S
H238 C217 0.934 . S
H239 C218 0.930 . S
Ho240 C243 2.811 . S
Ho240 O260 2.322 . S
Ho240 O262 2.378 . S
Ho240 O263 2.524 . S
Ho240 O264 2.381 . S
Ho240 O265 2.669 . S
Ho240 O267 2.346 . S
Ho240 O271 2.305 . S
Ho241 C252 2.811 . S
Ho241 O261 2.346 . S
Ho241 O265 2.305 . S
Ho241 O266 2.322 . S
Ho241 O268 2.378 . S
Ho241 O269 2.524 . S
Ho241 O270 2.381 . S
Ho241 O271 2.669 . S
C242 O260 1.259 . S
C242 O261 1.268 . S
C243 Ho240 2.811 . S
C243 C244 1.488 . S
C243 O262 1.215 . S
C243 O263 1.289 . S
C244 C243 1.488 . S
C244 C245 1.348 . S
C244 C249 1.413 . S
C245 C244 1.348 . S
C245 C246 1.442 . S
C245 H272 0.930 . S
C246 C245 1.442 . S
C246 C247 1.381 1_565 S
C246 H273 0.916 1_565 S
C247 C246 1.381 1_545 S
C247 C248 1.321 . S
C248 C247 1.321 . S
C248 C249 1.403 1_545 S
C248 H274 0.934 . S
C249 C244 1.413 . S
C249 C248 1.403 1_565 S
C249 H275 0.930 . S
C250 O264 1.275 . S
C250 O265 1.256 . S
C251 O266 1.259 . S
C251 O267 1.268 . S
C252 Ho241 2.811 . S
C252 C253 1.488 . S
C252 O268 1.215 . S
C252 O269 1.289 . S
C253 C252 1.488 . S
C253 C254 1.348 . S
C253 C258 1.413 . S
C254 C253 1.348 . S
C254 C255 1.442 . S
C254 H276 0.930 . S
C255 C254 1.442 . S
C255 C256 1.381 . S
C255 H277 0.931 . S
C256 C255 1.381 . S
C256 C257 1.321 . S
C257 C256 1.321 . S
C257 C258 1.403 . S
C257 H278 0.934 . S
C258 C253 1.413 . S
C258 C257 1.403 . S
C258 H279 0.930 . S
C259 O270 1.275 . S
C259 O271 1.256 . S
O260 Ho240 2.322 . S
O260 C242 1.259 . S
O261 Ho241 2.346 . S
O261 C242 1.268 . S
O262 Ho240 2.378 . S
O262 C243 1.215 . S
O263 Ho240 2.524 . S
O263 C243 1.289 . S
O264 Ho240 2.381 . S
O264 C250 1.275 . S
O265 Ho240 2.669 . S
O265 Ho241 2.305 . S
O265 C250 1.256 . S
O266 Ho241 2.322 . S
O266 C251 1.259 . S
O267 Ho240 2.346 . S
O267 C251 1.268 . S
O268 Ho241 2.378 . S
O268 C252 1.215 . S
O269 Ho241 2.524 . S
O269 C252 1.289 . S
O270 Ho241 2.381 . S
O270 C259 1.275 . S
O271 Ho240 2.305 . S
O271 Ho241 2.669 . S
O271 C259 1.256 . S
H272 C245 0.930 . S
H273 C246 0.916 1_545 S
H274 C248 0.934 . S
H275 C249 0.930 . S
H276 C254 0.930 . S
H277 C255 0.931 . S
H278 C257 0.934 . S
H279 C258 0.930 . S
Ho280 C283 2.811 . S
Ho280 O300 2.322 . S
Ho280 O302 2.378 . S
Ho280 O303 2.524 . S
Ho280 O304 2.381 . S
Ho280 O305 2.669 . S
Ho280 O307 2.346 . S
Ho280 O311 2.305 . S
Ho281 C292 2.811 . S
Ho281 O301 2.346 . S
Ho281 O305 2.305 . S
Ho281 O306 2.322 . S
Ho281 O308 2.378 . S
Ho281 O309 2.524 . S
Ho281 O310 2.381 . S
Ho281 O311 2.669 . S
C282 O300 1.259 . S
C282 O301 1.268 . S
C283 Ho280 2.811 . S
C283 C284 1.488 . S
C283 O302 1.215 . S
C283 O303 1.289 . S
C284 C283 1.488 . S
C284 C285 1.348 . S
C284 C289 1.413 . S
C285 C284 1.348 . S
C285 C286 1.442 . S
C285 H312 0.930 . S
C286 C285 1.442 . S
C286 C287 1.381 . S
C286 H313 0.931 . S
C287 C286 1.381 . S
C287 C288 1.321 . S
C288 C287 1.321 . S
C288 C289 1.403 . S
C288 H314 0.934 . S
C289 C284 1.413 . S
C289 C288 1.403 . S
C289 H315 0.930 . S
C290 O304 1.275 . S
C290 O305 1.256 . S
C291 O306 1.259 . S
C291 O307 1.268 . S
C292 Ho281 2.811 . S
C292 C293 1.488 . S
C292 O308 1.215 . S
C292 O309 1.289 . S
C293 C292 1.488 . S
C293 C294 1.348 . S
C293 C298 1.413 . S
C294 C293 1.348 . S
C294 C295 1.442 . S
C294 H316 0.930 . S
C295 C294 1.442 . S
C295 C296 1.381 . S
C295 H317 0.931 . S
C296 C295 1.381 . S
C296 C297 1.321 . S
C297 C296 1.321 . S
C297 C298 1.403 . S
C297 H318 0.934 . S
C298 C293 1.413 . S
C298 C297 1.403 . S
C298 H319 0.930 . S
C299 O310 1.275 . S
C299 O311 1.256 . S
O300 Ho280 2.322 . S
O300 C282 1.259 . S
O301 Ho281 2.346 . S
O301 C282 1.268 . S
O302 Ho280 2.378 . S
O302 C283 1.215 . S
O303 Ho280 2.524 . S
O303 C283 1.289 . S
O304 Ho280 2.381 . S
O304 C290 1.275 . S
O305 Ho280 2.669 . S
O305 Ho281 2.305 . S
O305 C290 1.256 . S
O306 Ho281 2.322 . S
O306 C291 1.259 . S
O307 Ho280 2.346 . S
O307 C291 1.268 . S
O308 Ho281 2.378 . S
O308 C292 1.215 . S
O309 Ho281 2.524 . S
O309 C292 1.289 . S
O310 Ho281 2.381 . S
O310 C299 1.275 . S
O311 Ho280 2.305 . S
O311 Ho281 2.669 . S
O311 C299 1.256 . S
H312 C285 0.930 . S
H313 C286 0.931 . S
H314 C288 0.934 . S
H315 C289 0.930 . S
H316 C294 0.930 . S
H317 C295 0.931 . S
H318 C297 0.934 . S
H319 C298 0.930 . S
Ho320 C323 2.811 . S
Ho320 O340 2.322 . S
Ho320 O342 2.378 . S
Ho320 O343 2.524 . S
Ho320 O344 2.381 . S
Ho320 O345 2.669 . S
Ho320 O347 2.346 . S
Ho320 O351 2.305 . S
Ho321 C332 2.811 . S
Ho321 O341 2.346 . S
Ho321 O345 2.305 . S
Ho321 O346 2.322 . S
Ho321 O348 2.378 . S
Ho321 O349 2.524 . S
Ho321 O350 2.381 . S
Ho321 O351 2.669 . S
C322 O340 1.259 . S
C322 O341 1.268 . S
C323 Ho320 2.811 . S
C323 C324 1.488 . S
C323 O342 1.215 . S
C323 O343 1.289 . S
C324 C323 1.488 . S
C324 C325 1.348 . S
C324 C329 1.413 . S
C325 C324 1.348 . S
C325 C326 1.442 . S
C325 H352 0.930 . S
C326 C325 1.442 . S
C326 C327 1.381 . S
C326 H353 0.931 . S
C327 C326 1.381 . S
C327 C328 1.321 . S
C328 C327 1.321 . S
C328 C329 1.403 . S
C328 H354 0.934 . S
C329 C324 1.413 . S
C329 C328 1.403 . S
C329 H355 0.930 . S
C330 O344 1.275 . S
C330 O345 1.256 . S
C331 O346 1.259 . S
C331 O347 1.268 . S
C332 Ho321 2.811 . S
C332 C333 1.488 . S
C332 O348 1.215 . S
C332 O349 1.289 . S
C333 C332 1.488 . S
C333 C334 1.348 . S
C333 C338 1.413 . S
C334 C333 1.348 . S
C334 C335 1.442 . S
C334 H356 0.930 . S
C335 C334 1.442 . S
C335 C336 1.381 . S
C335 H357 0.931 . S
C336 C335 1.381 . S
C336 C337 1.321 . S
C337 C336 1.321 . S
C337 C338 1.403 . S
C337 H358 0.934 . S
C338 C333 1.413 . S
C338 C337 1.403 . S
C338 H359 0.930 . S
C339 O350 1.275 . S
C339 O351 1.256 . S
O340 Ho320 2.322 . S
O340 C322 1.259 . S
O341 Ho321 2.346 . S
O341 C322 1.268 . S
O342 Ho320 2.378 . S
O342 C323 1.215 . S
O343 Ho320 2.524 . S
O343 C323 1.289 . S
O344 Ho320 2.381 . S
O344 C330 1.275 . S
O345 Ho320 2.669 . S
O345 Ho321 2.305 . S
O345 C330 1.256 . S
O346 Ho321 2.322 . S
O346 C331 1.259 . S
O347 Ho320 2.346 . S
O347 C331 1.268 . S
O348 Ho321 2.378 . S
O348 C332 1.215 . S
O349 Ho321 2.524 . S
O349 C332 1.289 . S
O350 Ho321 2.381 . S
O350 C339 1.275 . S
O351 Ho320 2.305 . S
O351 Ho321 2.669 . S
O351 C339 1.256 . S
H352 C325 0.930 . S
H353 C326 0.931 . S
H354 C328 0.934 . S
H355 C329 0.930 . S
H356 C334 0.930 . S
H357 C335 0.931 . S
H358 C337 0.934 . S
H359 C338 0.930 . S
C360 C361 1.363 . S
C360 C366 1.379 . S
C360 N368 1.356 . S
C361 C360 1.363 . S
C361 C367 1.363 . S
C362 C363 1.363 . S
C362 C367 1.379 . S
C362 N369 1.356 . S
C363 C362 1.363 . S
C363 C366 1.363 . S
N364 C366 1.356 . S
N364 H376 0.984 . S
N364 H377 0.985 . S
N365 C367 1.356 . S
N365 H370 0.984 . S
N365 H371 0.985 . S
C366 C360 1.379 . S
C366 C363 1.363 . S
C366 N364 1.356 . S
C367 C361 1.363 . S
C367 C362 1.379 . S
C367 N365 1.356 . S
N368 C360 1.356 . S
N368 H374 0.984 . S
N368 H375 0.984 . S
N369 C362 1.356 . S
N369 H372 0.984 . S
N369 H373 0.985 . S
H370 N365 0.984 . S
H371 N365 0.985 . S
H372 N369 0.984 . S
H373 N369 0.985 . S
H374 N368 0.984 . S
H375 N368 0.984 . S
H376 N364 0.984 . S
H377 N364 0.985 . S
C378 C379 1.363 . S
C378 C384 1.379 . S
C378 N386 1.356 . S
C379 C378 1.363 . S
C379 C385 1.363 . S
C380 C381 1.363 . S
C380 C385 1.379 . S
C380 N387 1.356 . S
C381 C380 1.363 . S
C381 C384 1.363 . S
N382 C384 1.356 . S
N382 H394 0.984 . S
N382 H395 0.985 . S
N383 C385 1.356 . S
N383 H388 0.984 . S
N383 H389 0.985 . S
C384 C378 1.379 . S
C384 C381 1.363 . S
C384 N382 1.356 . S
C385 C379 1.363 . S
C385 C380 1.379 . S
C385 N383 1.356 . S
N386 C378 1.356 . S
N386 H392 0.984 . S
N386 H393 0.984 . S
N387 C380 1.356 . S
N387 H390 0.984 . S
N387 H391 0.985 . S
H388 N383 0.984 . S
H389 N383 0.985 . S
H390 N387 0.984 . S
H391 N387 0.985 . S
H392 N386 0.984 . S
H393 N386 0.984 . S
H394 N382 0.984 . S
H395 N382 0.985 . S
C396 C397 1.363 . S
C396 C402 1.379 . S
C396 N404 1.356 1_556 S
C397 C396 1.363 . S
C397 C403 1.363 . S
C398 C399 1.363 . S
C398 C403 1.379 . S
C398 N405 1.356 . S
C399 C398 1.363 . S
C399 C402 1.363 . S
N400 C402 1.356 . S
N400 H412 0.984 . S
N400 H413 0.985 . S
N401 C403 1.356 . S
N401 H406 0.984 . S
N401 H407 0.985 . S
C402 C396 1.379 . S
C402 C399 1.363 . S
C402 N400 1.356 . S
C403 C397 1.363 . S
C403 C398 1.379 . S
C403 N401 1.356 . S
N404 C396 1.356 1_554 S
N404 H410 0.984 . S
N404 H411 0.984 . S
N405 C398 1.356 . S
N405 H408 0.984 . S
N405 H409 0.985 . S
H406 N401 0.984 . S
H407 N401 0.985 . S
H408 N405 0.984 . S
H409 N405 0.985 . S
H410 N404 0.984 . S
H411 N404 0.984 . S
H412 N400 0.984 . S
H413 N400 0.985 . S
C414 C415 1.363 . S
C414 C420 1.379 . S
C414 N422 1.356 . S
C415 C414 1.363 . S
C415 C421 1.363 . S
C416 C417 1.363 . S
C416 C421 1.379 . S
C416 N423 1.356 . S
C417 C416 1.363 . S
C417 C420 1.363 . S
N418 C420 1.356 1_556 S
N418 H430 0.984 . S
N418 H431 0.985 . S
N419 C421 1.356 . S
N419 H424 0.984 . S
N419 H425 0.985 . S
C420 C414 1.379 . S
C420 C417 1.363 . S
C420 N418 1.356 1_554 S
C421 C415 1.363 . S
C421 C416 1.379 . S
C421 N419 1.356 . S
N422 C414 1.356 . S
N422 H428 0.984 . S
N422 H429 0.984 . S
N423 C416 1.356 . S
N423 H426 0.984 . S
N423 H427 0.985 . S
H424 N419 0.984 . S
H425 N419 0.985 . S
H426 N423 0.984 . S
H427 N423 0.985 . S
H428 N422 0.984 . S
H429 N422 0.984 . S
H430 N418 0.984 . S
H431 N418 0.985 . S
C432 C433 1.363 . S
C432 C438 1.379 . S
C432 N440 1.356 . S
C433 C432 1.363 . S
C433 C439 1.363 . S
C434 C435 1.363 . S
C434 C439 1.379 . S
C434 N441 1.356 . S
C435 C434 1.363 . S
C435 C438 1.363 . S
N436 C438 1.356 1_556 S
N436 H448 0.984 . S
N436 H449 0.985 . S
N437 C439 1.356 . S
N437 H442 0.984 . S
N437 H443 0.985 . S
C438 C432 1.379 . S
C438 C435 1.363 . S
C438 N436 1.356 1_554 S
C439 C433 1.363 . S
C439 C434 1.379 . S
C439 N437 1.356 . S
N440 C432 1.356 . S
N440 H446 0.984 . S
N440 H447 0.984 . S
N441 C434 1.356 . S
N441 H444 0.984 . S
N441 H445 0.985 . S
H442 N437 0.984 . S
H443 N437 0.985 . S
H444 N441 0.984 . S
H445 N441 0.985 . S
H446 N440 0.984 . S
H447 N440 0.984 . S
H448 N436 0.984 . S
H449 N436 0.985 . S
C450 C451 1.363 . S
C450 C456 1.379 . S
C450 N458 1.356 1_554 S
C451 C450 1.363 . S
C451 C457 1.363 . S
C452 C453 1.363 . S
C452 C457 1.379 . S
C452 N459 1.356 . S
C453 C452 1.363 . S
C453 C456 1.363 . S
N454 C456 1.356 . S
N454 H466 0.984 1_554 S
N454 H467 0.985 . S
N455 C457 1.356 . S
N455 H460 0.984 . S
N455 H461 0.985 . S
C456 C450 1.379 . S
C456 C453 1.363 . S
C456 N454 1.356 . S
C457 C451 1.363 . S
C457 C452 1.379 . S
C457 N455 1.356 . S
N458 C450 1.356 1_556 S
N458 H464 0.984 . S
N458 H465 0.984 . S
N459 C452 1.356 . S
N459 H462 0.984 . S
N459 H463 0.985 . S
H460 N455 0.984 . S
H461 N455 0.985 . S
H462 N459 0.984 . S
H463 N459 0.985 . S
H464 N458 0.984 . S
H465 N458 0.984 . S
H466 N454 0.984 1_556 S
H467 N454 0.985 . S
C468 C469 1.363 . S
C468 C474 1.379 . S
C468 N476 1.356 . S
C469 C468 1.363 . S
C469 C475 1.363 . S
C470 C471 1.363 . S
C470 C475 1.379 . S
C470 N477 1.356 . S
C471 C470 1.363 . S
C471 C474 1.363 . S
N472 C474 1.356 . S
N472 H484 0.984 . S
N472 H485 0.985 . S
N473 C475 1.356 . S
N473 H478 0.984 . S
N473 H479 0.985 . S
C474 C468 1.379 . S
C474 C471 1.363 . S
C474 N472 1.356 . S
C475 C469 1.363 . S
C475 C470 1.379 . S
C475 N473 1.356 . S
N476 C468 1.356 . S
N476 H482 0.984 . S
N476 H483 0.984 . S
N477 C470 1.356 . S
N477 H480 0.984 . S
N477 H481 0.985 . S
H478 N473 0.984 . S
H479 N473 0.985 . S
H480 N477 0.984 . S
H481 N477 0.985 . S
H482 N476 0.984 . S
H483 N476 0.984 . S
H484 N472 0.984 . S
H485 N472 0.985 . S
C486 C487 1.363 . S
C486 C492 1.379 . S
C486 N494 1.356 . S
C487 C486 1.363 . S
C487 C493 1.363 . S
C488 C489 1.363 . S
C488 C493 1.379 . S
C488 N495 1.356 . S
C489 C488 1.363 . S
C489 C492 1.363 . S
N490 C492 1.356 . S
N490 H502 0.984 . S
N490 H503 0.985 . S
N491 C493 1.356 . S
N491 H496 0.984 . S
N491 H497 0.985 . S
C492 C486 1.379 . S
C492 C489 1.363 . S
C492 N490 1.356 . S
C493 C487 1.363 . S
C493 C488 1.379 . S
C493 N491 1.356 . S
N494 C486 1.356 . S
N494 H500 0.984 . S
N494 H501 0.984 . S
N495 C488 1.356 . S
N495 H498 0.984 . S
N495 H499 0.985 . S
H496 N491 0.984 . S
H497 N491 0.985 . S
H498 N495 0.984 . S
H499 N495 0.985 . S
H500 N494 0.984 . S
H501 N494 0.984 . S
H502 N490 0.984 . S
H503 N490 0.985 . S
C504 C505 1.363 . S
C504 C510 1.379 . S
C504 N512 1.356 . S
C505 C504 1.363 . S
C505 C511 1.363 . S
C506 C507 1.363 . S
C506 C511 1.379 . S
C506 N513 1.356 . S
C507 C506 1.363 . S
C507 C510 1.363 . S
N508 C510 1.356 . S
N508 H520 0.984 . S
N508 H521 0.985 . S
N509 C511 1.356 . S
N509 H514 0.984 . S
N509 H515 0.985 . S
C510 C504 1.379 . S
C510 C507 1.363 . S
C510 N508 1.356 . S
C511 C505 1.363 . S
C511 C506 1.379 . S
C511 N509 1.356 . S
N512 C504 1.356 . S
N512 H518 0.984 . S
N512 H519 0.984 . S
N513 C506 1.356 . S
N513 H516 0.984 . S
N513 H517 0.985 . S
H514 N509 0.984 . S
H515 N509 0.985 . S
H516 N513 0.984 . S
H517 N513 0.985 . S
H518 N512 0.984 . S
H519 N512 0.984 . S
H520 N508 0.984 . S
H521 N508 0.985 . S
C522 C523 1.363 1_556 S
C522 C528 1.379 . S
C522 N530 1.356 . S
C523 C522 1.363 1_554 S
C523 C529 1.363 . S
C524 C525 1.363 . S
C524 C529 1.379 . S
C524 N531 1.356 . S
C525 C524 1.363 . S
C525 C528 1.363 1_554 S
N526 C528 1.356 . S
N526 H538 0.984 . S
N526 H539 0.985 . S
N527 C529 1.356 . S
N527 H532 0.984 . S
N527 H533 0.985 . S
C528 C522 1.379 . S
C528 C525 1.363 1_556 S
C528 N526 1.356 . S
C529 C523 1.363 . S
C529 C524 1.379 . S
C529 N527 1.356 . S
N530 C522 1.356 . S
N530 H536 0.984 . S
N530 H537 0.984 . S
N531 C524 1.356 . S
N531 H534 0.984 . S
N531 H535 0.985 . S
H532 N527 0.984 . S
H533 N527 0.985 . S
H534 N531 0.984 . S
H535 N531 0.985 . S
H536 N530 0.984 . S
H537 N530 0.984 . S
H538 N526 0.984 . S
H539 N526 0.985 . S
C540 C541 1.363 . S
C540 C546 1.379 . S
C540 N548 1.356 . S
C541 C540 1.363 . S
C541 C547 1.363 1_554 S
C542 C543 1.363 1_556 S
C542 C547 1.379 . S
C542 N549 1.356 . S
C543 C542 1.363 1_554 S
C543 C546 1.363 . S
N544 C546 1.356 . S
N544 H556 0.984 . S
N544 H557 0.985 . S
N545 C547 1.356 . S
N545 H550 0.984 . S
N545 H551 0.985 . S
C546 C540 1.379 . S
C546 C543 1.363 . S
C546 N544 1.356 . S
C547 C541 1.363 1_556 S
C547 C542 1.379 . S
C547 N545 1.356 . S
N548 C540 1.356 . S
N548 H554 0.984 . S
N548 H555 0.984 . S
N549 C542 1.356 . S
N549 H552 0.984 1_565 S
N549 H553 0.985 . S
H550 N545 0.984 . S
H551 N545 0.985 . S
H552 N549 0.984 1_545 S
H553 N549 0.985 . S
H554 N548 0.984 . S
H555 N548 0.984 . S
H556 N544 0.984 . S
H557 N544 0.985 . S
C558 C559 1.363 1_556 S
C558 C564 1.379 . S
C558 N566 1.356 . S
C559 C558 1.363 1_554 S
C559 C565 1.363 . S
C560 C561 1.363 . S
C560 C565 1.379 . S
C560 N567 1.356 . S
C561 C560 1.363 . S
C561 C564 1.363 1_554 S
N562 C564 1.356 . S
N562 H574 0.984 . S
N562 H575 0.985 . S
N563 C565 1.356 . S
N563 H568 0.984 . S
N563 H569 0.985 . S
C564 C558 1.379 . S
C564 C561 1.363 1_556 S
C564 N562 1.356 . S
C565 C559 1.363 . S
C565 C560 1.379 . S
C565 N563 1.356 . S
N566 C558 1.356 . S
N566 H572 0.984 . S
N566 H573 0.984 . S
N567 C560 1.356 . S
N567 H570 0.984 1_565 S
N567 H571 0.985 1_565 S
H568 N563 0.984 . S
H569 N563 0.985 . S
H570 N567 0.984 1_545 S
H571 N567 0.985 1_545 S
H572 N566 0.984 . S
H573 N566 0.984 . S
H574 N562 0.984 . S
H575 N562 0.985 . S
C576 C577 1.363 . S
C576 C582 1.379 . S
C576 N584 1.356 . S
C577 C576 1.363 . S
C577 C583 1.363 . S
C578 C579 1.363 . S
C578 C583 1.379 . S
C578 N585 1.356 . S
C579 C578 1.363 . S
C579 C582 1.363 . S
N580 C582 1.356 . S
N580 H592 0.984 . S
N580 H593 0.985 . S
N581 C583 1.356 . S
N581 H586 0.984 . S
N581 H587 0.985 . S
C582 C576 1.379 . S
C582 C579 1.363 . S
C582 N580 1.356 . S
C583 C577 1.363 . S
C583 C578 1.379 . S
C583 N581 1.356 . S
N584 C576 1.356 . S
N584 H590 0.984 . S
N584 H591 0.984 . S
N585 C578 1.356 . S
N585 H588 0.984 . S
N585 H589 0.985 . S
H586 N581 0.984 . S
H587 N581 0.985 . S
H588 N585 0.984 . S
H589 N585 0.985 . S
H590 N584 0.984 . S
H591 N584 0.984 . S
H592 N580 0.984 . S
H593 N580 0.985 . S
C594 C595 1.363 . S
C594 C600 1.379 . S
C594 N602 1.356 . S
C595 C594 1.363 . S
C595 C601 1.363 . S
C596 C597 1.363 . S
C596 C601 1.379 . S
C596 N603 1.356 . S
C597 C596 1.363 . S
C597 C600 1.363 . S
N598 C600 1.356 . S
N598 H610 0.984 . S
N598 H611 0.985 . S
N599 C601 1.356 . S
N599 H604 0.984 . S
N599 H605 0.985 . S
C600 C594 1.379 . S
C600 C597 1.363 . S
C600 N598 1.356 . S
C601 C595 1.363 . S
C601 C596 1.379 . S
C601 N599 1.356 . S
N602 C594 1.356 . S
N602 H608 0.984 . S
N602 H609 0.984 . S
N603 C596 1.356 . S
N603 H606 0.984 . S
N603 H607 0.985 . S
H604 N599 0.984 . S
H605 N599 0.985 . S
H606 N603 0.984 . S
H607 N603 0.985 . S
H608 N602 0.984 . S
H609 N602 0.984 . S
H610 N598 0.984 . S
H611 N598 0.985 . S
C612 C613 1.363 . S
C612 C618 1.379 . S
C612 N620 1.356 . S
C613 C612 1.363 . S
C613 C619 1.363 . S
C614 C615 1.363 . S
C614 C619 1.379 . S
C614 N621 1.356 . S
C615 C614 1.363 . S
C615 C618 1.363 . S
N616 C618 1.356 . S
N616 H628 0.984 . S
N616 H629 0.985 . S
N617 C619 1.356 . S
N617 H622 0.984 . S
N617 H623 0.985 . S
C618 C612 1.379 . S
C618 C615 1.363 . S
C618 N616 1.356 . S
C619 C613 1.363 . S
C619 C614 1.379 . S
C619 N617 1.356 . S
N620 C612 1.356 . S
N620 H626 0.984 . S
N620 H627 0.984 . S
N621 C614 1.356 . S
N621 H624 0.984 . S
N621 H625 0.985 . S
H622 N617 0.984 . S
H623 N617 0.985 . S
H624 N621 0.984 . S
H625 N621 0.985 . S
H626 N620 0.984 . S
H627 N620 0.984 . S
H628 N616 0.984 . S
H629 N616 0.985 . S
C630 C631 1.363 . S
C630 C636 1.379 . S
C630 N638 1.356 . S
C631 C630 1.363 . S
C631 C637 1.363 . S
C632 C633 1.363 . S
C632 C637 1.379 . S
C632 N639 1.356 . S
C633 C632 1.363 . S
C633 C636 1.363 . S
N634 C636 1.356 . S
N634 H646 0.984 . S
N634 H647 0.985 . S
N635 C637 1.356 . S
N635 H640 0.984 . S
N635 H641 0.985 . S
C636 C630 1.379 . S
C636 C633 1.363 . S
C636 N634 1.356 . S
C637 C631 1.363 . S
C637 C632 1.379 . S
C637 N635 1.356 . S
N638 C630 1.356 . S
N638 H644 0.984 . S
N638 H645 0.984 . S
N639 C632 1.356 . S
N639 H642 0.984 . S
N639 H643 0.985 . S
H640 N635 0.984 . S
H641 N635 0.985 . S
H642 N639 0.984 . S
H643 N639 0.985 . S
H644 N638 0.984 . S
H645 N638 0.984 . S
H646 N634 0.984 . S
H647 N634 0.985 . S
C648 C649 1.363 . S
C648 C654 1.379 . S
C648 N656 1.356 . S
C649 C648 1.363 . S
C649 C655 1.363 . S
C650 C651 1.363 . S
C650 C655 1.379 . S
C650 N657 1.356 . S
C651 C650 1.363 . S
C651 C654 1.363 . S
N652 C654 1.356 . S
N652 H664 0.984 . S
N652 H665 0.985 . S
N653 C655 1.356 . S
N653 H658 0.984 . S
N653 H659 0.985 . S
C654 C648 1.379 . S
C654 C651 1.363 . S
C654 N652 1.356 . S
C655 C649 1.363 . S
C655 C650 1.379 . S
C655 N653 1.356 . S
N656 C648 1.356 . S
N656 H662 0.984 . S
N656 H663 0.984 . S
N657 C650 1.356 . S
N657 H660 0.984 . S
N657 H661 0.985 . S
H658 N653 0.984 . S
H659 N653 0.985 . S
H660 N657 0.984 . S
H661 N657 0.985 . S
H662 N656 0.984 . S
H663 N656 0.984 . S
H664 N652 0.984 . S
H665 N652 0.985 . S
C666 C667 1.363 . S
C666 C672 1.379 . S
C666 N674 1.356 . S
C667 C666 1.363 . S
C667 C673 1.363 . S
C668 C669 1.363 . S
C668 C673 1.379 . S
C668 N675 1.356 . S
C669 C668 1.363 . S
C669 C672 1.363 . S
N670 C672 1.356 . S
N670 H682 0.984 . S
N670 H683 0.985 . S
N671 C673 1.356 . S
N671 H676 0.984 . S
N671 H677 0.985 . S
C672 C666 1.379 . S
C672 C669 1.363 . S
C672 N670 1.356 . S
C673 C667 1.363 . S
C673 C668 1.379 . S
C673 N671 1.356 . S
N674 C666 1.356 . S
N674 H680 0.984 . S
N674 H681 0.984 . S
N675 C668 1.356 . S
N675 H678 0.984 . S
N675 H679 0.985 . S
H676 N671 0.984 . S
H677 N671 0.985 . S
H678 N675 0.984 . S
H679 N675 0.985 . S
H680 N674 0.984 . S
H681 N674 0.984 . S
H682 N670 0.984 . S
H683 N670 0.985 . S
C684 C685 1.363 . S
C684 C690 1.379 . S
C684 N692 1.356 . S
C685 C684 1.363 . S
C685 C691 1.363 . S
C686 C687 1.363 . S
C686 C691 1.379 . S
C686 N693 1.356 . S
C687 C686 1.363 . S
C687 C690 1.363 . S
N688 C690 1.356 . S
N688 H700 0.984 . S
N688 H701 0.985 . S
N689 C691 1.356 . S
N689 H694 0.984 . S
N689 H695 0.985 . S
C690 C684 1.379 . S
C690 C687 1.363 . S
C690 N688 1.356 . S
C691 C685 1.363 . S
C691 C686 1.379 . S
C691 N689 1.356 . S
N692 C684 1.356 . S
N692 H698 0.984 . S
N692 H699 0.984 . S
N693 C686 1.356 . S
N693 H696 0.984 . S
N693 H697 0.985 . S
H694 N689 0.984 . S
H695 N689 0.985 . S
H696 N693 0.984 . S
H697 N693 0.985 . S
H698 N692 0.984 . S
H699 N692 0.984 . S
H700 N688 0.984 . S
H701 N688 0.985 . S
C702 C703 1.363 . S
C702 C708 1.379 . S
C702 N710 1.356 . S
C703 C702 1.363 . S
C703 C709 1.363 . S
C704 C705 1.363 . S
C704 C709 1.379 . S
C704 N711 1.356 . S
C705 C704 1.363 . S
C705 C708 1.363 . S
N706 C708 1.356 . S
N706 H718 0.984 . S
N706 H719 0.985 . S
N707 C709 1.356 . S
N707 H712 0.984 . S
N707 H713 0.985 . S
C708 C702 1.379 . S
C708 C705 1.363 . S
C708 N706 1.356 . S
C709 C703 1.363 . S
C709 C704 1.379 . S
C709 N707 1.356 . S
N710 C702 1.356 . S
N710 H716 0.984 . S
N710 H717 0.984 . S
N711 C704 1.356 . S
N711 H714 0.984 . S
N711 H715 0.985 . S
H712 N707 0.984 . S
H713 N707 0.985 . S
H714 N711 0.984 . S
H715 N711 0.985 . S
H716 N710 0.984 . S
H717 N710 0.984 . S
H718 N706 0.984 . S
H719 N706 0.985 . S
C720 C721 1.363 1_565 S
C720 C726 1.379 . S
C720 N728 1.356 . S
C721 C720 1.363 1_545 S
C721 C727 1.363 . S
C722 C723 1.363 . S
C722 C727 1.379 . S
C722 N729 1.356 . S
C723 C722 1.363 . S
C723 C726 1.363 1_545 S
N724 C726 1.356 . S
N724 H736 0.984 . S
N724 H737 0.985 . S
N725 C727 1.356 . S
N725 H730 0.984 . S
N725 H731 0.985 . S
C726 C720 1.379 . S
C726 C723 1.363 1_565 S
C726 N724 1.356 . S
C727 C721 1.363 . S
C727 C722 1.379 . S
C727 N725 1.356 . S
N728 C720 1.356 . S
N728 H734 0.984 . S
N728 H735 0.984 . S
N729 C722 1.356 . S
N729 H732 0.984 . S
N729 H733 0.985 . S
H730 N725 0.984 . S
H731 N725 0.985 . S
H732 N729 0.984 . S
H733 N729 0.985 . S
H734 N728 0.984 . S
H735 N728 0.984 . S
H736 N724 0.984 . S
H737 N724 0.985 . S
C738 C739 1.363 . S
C738 C744 1.379 . S
C738 N746 1.356 . S
C739 C738 1.363 . S
C739 C745 1.363 . S
C740 C741 1.363 . S
C740 C745 1.379 . S
C740 N747 1.356 1_556 S
C741 C740 1.363 . S
C741 C744 1.363 . S
N742 C744 1.356 . S
N742 H754 0.984 . S
N742 H755 0.985 1_556 S
N743 C745 1.356 . S
N743 H748 0.984 . S
N743 H749 0.985 . S
C744 C738 1.379 . S
C744 C741 1.363 . S
C744 N742 1.356 . S
C745 C739 1.363 . S
C745 C740 1.379 . S
C745 N743 1.356 . S
N746 C738 1.356 . S
N746 H752 0.984 . S
N746 H753 0.984 . S
N747 C740 1.356 1_554 S
N747 H750 0.984 . S
N747 H751 0.985 . S
H748 N743 0.984 . S
H749 N743 0.985 . S
H750 N747 0.984 . S
H751 N747 0.985 . S
H752 N746 0.984 . S
H753 N746 0.984 . S
H754 N742 0.984 . S
H755 N742 0.985 1_554 S
C756 C757 1.363 . S
C756 C762 1.379 . S
C756 N764 1.356 . S
C757 C756 1.363 . S
C757 C763 1.363 . S
C758 C759 1.363 . S
C758 C763 1.379 . S
C758 N765 1.356 1_556 S
C759 C758 1.363 . S
C759 C762 1.363 . S
N760 C762 1.356 . S
N760 H772 0.984 . S
N760 H773 0.985 1_556 S
N761 C763 1.356 . S
N761 H766 0.984 . S
N761 H767 0.985 . S
C762 C756 1.379 . S
C762 C759 1.363 . S
C762 N760 1.356 . S
C763 C757 1.363 . S
C763 C758 1.379 . S
C763 N761 1.356 . S
N764 C756 1.356 . S
N764 H770 0.984 . S
N764 H771 0.984 . S
N765 C758 1.356 1_554 S
N765 H768 0.984 . S
N765 H769 0.985 . S
H766 N761 0.984 . S
H767 N761 0.985 . S
H768 N765 0.984 . S
H769 N765 0.985 . S
H770 N764 0.984 . S
H771 N764 0.984 . S
H772 N760 0.984 . S
H773 N760 0.985 1_554 S
C774 C775 1.363 . S
C774 C780 1.379 . S
C774 N782 1.356 . S
C775 C774 1.363 . S
C775 C781 1.363 . S
C776 C777 1.363 . S
C776 C781 1.379 . S
C776 N783 1.356 1_556 S
C777 C776 1.363 . S
C777 C780 1.363 . S
N778 C780 1.356 . S
N778 H790 0.984 . S
N778 H791 0.985 1_556 S
N779 C781 1.356 . S
N779 H784 0.984 . S
N779 H785 0.985 . S
C780 C774 1.379 . S
C780 C777 1.363 . S
C780 N778 1.356 . S
C781 C775 1.363 . S
C781 C776 1.379 . S
C781 N779 1.356 . S
N782 C774 1.356 . S
N782 H788 0.984 . S
N782 H789 0.984 . S
N783 C776 1.356 1_554 S
N783 H786 0.984 . S
N783 H787 0.985 . S
H784 N779 0.984 . S
H785 N779 0.985 . S
H786 N783 0.984 . S
H787 N783 0.985 . S
H788 N782 0.984 . S
H789 N782 0.984 . S
H790 N778 0.984 . S
H791 N778 0.985 1_554 S
C792 C793 1.363 . S
C792 C798 1.379 . S
C792 N800 1.356 . S
C793 C792 1.363 . S
C793 C799 1.363 . S
C794 C795 1.363 . S
C794 C799 1.379 . S
C794 N801 1.356 . S
C795 C794 1.363 . S
C795 C798 1.363 . S
N796 C798 1.353 1_556 S
N796 H808 0.984 1_556 S
N796 H809 0.988 . S
N797 C799 1.356 . S
N797 H802 0.984 . S
N797 H803 0.985 . S
C798 C792 1.379 . S
C798 C795 1.363 . S
C798 N796 1.353 1_554 S
C799 C793 1.363 . S
C799 C794 1.379 . S
C799 N797 1.356 . S
N800 C792 1.356 . S
N800 H806 0.984 . S
N800 H807 0.984 . S
N801 C794 1.356 . S
N801 H804 0.984 1_554 S
N801 H805 0.985 . S
H802 N797 0.984 . S
H803 N797 0.985 . S
H804 N801 0.984 1_556 S
H805 N801 0.985 . S
H806 N800 0.984 . S
H807 N800 0.984 . S
H808 N796 0.984 1_554 S
H809 N796 0.988 . S
C810 C811 1.363 . S
C810 C816 1.379 . S
C810 N818 1.356 . S
C811 C810 1.363 . S
C811 C817 1.363 . S
C812 C813 1.363 . S
C812 C817 1.379 . S
C812 N819 1.356 . S
C813 C812 1.363 . S
C813 C816 1.363 . S
N814 C816 1.356 . S
N814 H826 0.984 . S
N814 H827 0.985 . S
N815 C817 1.356 1_556 S
N815 H820 0.984 . S
N815 H821 0.985 . S
C816 C810 1.379 . S
C816 C813 1.363 . S
C816 N814 1.356 . S
C817 C811 1.363 . S
C817 C812 1.379 . S
C817 N815 1.356 1_554 S
N818 C810 1.356 . S
N818 H824 0.984 . S
N818 H825 0.984 1_554 S
N819 C812 1.356 . S
N819 H822 0.984 . S
N819 H823 0.985 . S
H820 N815 0.984 . S
H821 N815 0.985 . S
H822 N819 0.984 . S
H823 N819 0.985 . S
H824 N818 0.984 . S
H825 N818 0.984 1_556 S
H826 N814 0.984 . S
H827 N814 0.985 . S
C828 C829 1.363 . S
C828 C834 1.379 . S
C828 N836 1.356 . S
C829 C828 1.363 . S
C829 C835 1.363 . S
C830 C831 1.363 . S
C830 C835 1.379 . S
C830 N837 1.356 . S
C831 C830 1.363 . S
C831 C834 1.363 . S
N832 C834 1.356 1_556 S
N832 H844 0.984 1_556 S
N832 H845 0.985 . S
N833 C835 1.356 . S
N833 H838 0.984 . S
N833 H839 0.985 . S
C834 C828 1.379 . S
C834 C831 1.363 . S
C834 N832 1.356 1_554 S
C835 C829 1.363 . S
C835 C830 1.379 . S
C835 N833 1.356 . S
N836 C828 1.356 . S
N836 H842 0.984 . S
N836 H843 0.984 . S
N837 C830 1.356 . S
N837 H840 0.984 1_554 S
N837 H841 0.985 . S
H838 N833 0.984 . S
H839 N833 0.985 . S
H840 N837 0.984 1_556 S
H841 N837 0.985 . S
H842 N836 0.984 . S
H843 N836 0.984 . S
H844 N832 0.984 1_554 S
H845 N832 0.985 . S
C361 C7 1.871 . S
C363 C282 1.798 . S
C379 C47 1.870 . S
C381 C322 1.798 . S
C397 C87 1.871 . S
C399 C242 1.798 . S
C415 C167 1.871 . S
C417 C82 1.798 . S
C433 C207 1.871 . S
C435 C2 1.799 . S
C451 C42 1.798 . S
C453 C127 1.871 . S
C469 C287 1.871 1_655 S
C471 C202 1.798 . S
C487 C327 1.871 . S
C489 C122 1.798 . S
C505 C162 1.798 . S
C507 C247 1.871 . S
C523 C96 1.665 . S
C525 C11 1.682 1_554 S
C541 C51 1.682 1_554 S
C543 C16 1.665 1_565 S
C559 C56 1.665 . S
C561 C91 1.682 1_554 S
C577 C131 1.683 . S
C579 C216 1.665 . S
C595 C136 1.665 . S
C597 C171 1.682 . S
C613 C176 1.665 . S
C615 C211 1.682 . S
C631 C336 1.665 . S
C633 C251 1.682 . S
C649 C291 1.682 . S
C651 C256 1.665 . S
C667 C331 1.682 . S
C669 C296 1.665 . S
C685 C19 1.113 . S
C687 C10 1.113 . S
C703 C59 1.113 . S
C705 C50 1.113 . S
C721 C99 1.113 . S
C723 C90 1.113 . S
C739 C130 1.113 . S
C741 C139 1.113 1_556 S
C757 C170 1.113 . S
C759 C179 1.113 1_556 S
C775 C210 1.113 . S
C777 C219 1.113 1_556 S
C793 C259 1.113 . S
C795 C250 1.113 1_554 S
C811 C290 1.113 1_554 S
C813 C299 1.113 . S
C829 C339 1.113 . S
C831 C330 1.113 1_554 S
