# Generated by pormake.
# Topology snk, (6)-cn, num edge types: 1
# Building blocks:
#     Node 0, Type 0, BuildingBlock: BETDEL_clean_sbu_0, # of connection points: 6
#     Node 1, Type 0, BuildingBlock: BETDEL_clean_sbu_0, # of connection points: 6
#     Node 2, Type 0, BuildingBlock: BETDEL_clean_sbu_0, # of connection points: 6
#     Node 3, Type 0, BuildingBlock: BETDEL_clean_sbu_0, # of connection points: 6
#     Node 4, Type 0, BuildingBlock: BETDEL_clean_sbu_0, # of connection points: 6
#     Node 5, Type 0, BuildingBlock: BETDEL_clean_sbu_0, # of connection points: 6
#     Node 6, Type 0, BuildingBlock: BETDEL_clean_sbu_0, # of connection points: 6
#     Node 7, Type 0, BuildingBlock: BETDEL_clean_sbu_0, # of connection points: 6
#     Edge 8, Type (0, 0), BuildingBlock: AJUNOK_clean_linker_0, # of connection points: 2
#     Edge 9, Type (0, 0), BuildingBlock: AJUNOK_clean_linker_0, # of connection points: 2
#     Edge 10, Type (0, 0), BuildingBlock: AJUNOK_clean_linker_0, # of connection points: 2
#     Edge 11, Type (0, 0), BuildingBlock: AJUNOK_clean_linker_0, # of connection points: 2
#     Edge 12, Type (0, 0), BuildingBlock: AJUNOK_clean_linker_0, # of connection points: 2
#     Edge 13, Type (0, 0), BuildingBlock: AJUNOK_clean_linker_0, # of connection points: 2
#     Edge 14, Type (0, 0), BuildingBlock: AJUNOK_clean_linker_0, # of connection points: 2
#     Edge 15, Type (0, 0), BuildingBlock: AJUNOK_clean_linker_0, # of connection points: 2
#     Edge 16, Type (0, 0), BuildingBlock: AJUNOK_clean_linker_0, # of connection points: 2
#     Edge 17, Type (0, 0), BuildingBlock: AJUNOK_clean_linker_0, # of connection points: 2
#     Edge 18, Type (0, 0), BuildingBlock: AJUNOK_clean_linker_0, # of connection points: 2
#     Edge 19, Type (0, 0), BuildingBlock: AJUNOK_clean_linker_0, # of connection points: 2
#     Edge 20, Type (0, 0), BuildingBlock: AJUNOK_clean_linker_0, # of connection points: 2
#     Edge 21, Type (0, 0), BuildingBlock: AJUNOK_clean_linker_0, # of connection points: 2
#     Edge 22, Type (0, 0), BuildingBlock: AJUNOK_clean_linker_0, # of connection points: 2
#     Edge 23, Type (0, 0), BuildingBlock: AJUNOK_clean_linker_0, # of connection points: 2
#     Edge 24, Type (0, 0), BuildingBlock: AJUNOK_clean_linker_0, # of connection points: 2
#     Edge 25, Type (0, 0), BuildingBlock: AJUNOK_clean_linker_0, # of connection points: 2
#     Edge 26, Type (0, 0), BuildingBlock: AJUNOK_clean_linker_0, # of connection points: 2
#     Edge 27, Type (0, 0), BuildingBlock: AJUNOK_clean_linker_0, # of connection points: 2
#     Edge 28, Type (0, 0), BuildingBlock: AJUNOK_clean_linker_0, # of connection points: 2
#     Edge 29, Type (0, 0), BuildingBlock: AJUNOK_clean_linker_0, # of connection points: 2
#     Edge 30, Type (0, 0), BuildingBlock: AJUNOK_clean_linker_0, # of connection points: 2
#     Edge 31, Type (0, 0), BuildingBlock: AJUNOK_clean_linker_0, # of connection points: 2
# Relax obj value: 0.062
# Max RMSD: 0.110
# Mean RMSD: 0.096
data_MOF--net-snk--node1-BETDEL_clean_sbu_0--edge1-AJUNOK_clean_linker_0
_symmetry_space_group_name_H-M    P1
_symmetry_Int_Tables_number       1
_symmetry_cell_setting            triclinic
loop_
_symmetry_equiv_pos_as_xyz
'x, y, z'
_cell_length_a     29.111598
_cell_length_b     29.145357
_cell_length_c     13.853363
_cell_angle_alpha  84.950425
_cell_angle_beta   95.005599
_cell_angle_gamma 90.692789
loop_
_atom_site_label
_atom_site_type_symbol
_atom_site_fract_x
_atom_site_fract_y
_atom_site_fract_z
_atom_type_partial_charge
Dy0 Dy 0.99906 0.99129 0.42427 0.0
C1 C 0.01421 0.02513 0.81637 0.0
C2 C 0.99052 0.99242 0.22673 0.0
Dy3 Dy 0.01271 0.02084 0.62059 0.0
O4 O 0.01671 0.96474 0.28502 0.0
O5 O 0.96728 0.01808 0.27673 0.0
O6 O 0.0246 0.92091 0.47589 0.0
O7 O 0.05508 0.97825 0.54074 0.0
C8 C 0.05453 0.93463 0.5425 0.0
C9 C 0.95821 0.07717 0.49872 0.0
O10 O 0.0722 0.06146 0.568 0.0
O11 O 0.04967 0.04967 0.4076 0.0
O12 O 0.98277 0.04264 0.75248 0.0
O13 O 0.04615 0.00642 0.77304 0.0
O14 O 0.98847 0.09126 0.564 0.0
O15 O 0.95689 0.03361 0.50384 0.0
O16 O 0.93894 0.95282 0.48092 0.0
O17 O 0.97043 0.95627 0.63873 0.0
C18 C 0.07622 0.06997 0.47383 0.0
C19 C 0.94016 0.9392 0.5746 0.0
Dy20 Dy 0.24145 0.74538 0.86275 0.0
C21 C 0.27399 0.76854 0.46883 0.0
C22 C 0.24077 0.73815 0.06057 0.0
Dy23 Dy 0.27211 0.76301 0.6663 0.0
O24 O 0.21527 0.76572 1.00057 0.0
O25 O 0.265 0.71267 1.01201 0.0
O26 O 0.17115 0.77075 0.80859 0.0
O27 O 0.22907 0.80295 0.74965 0.0
C28 C 0.18541 0.80201 0.74531 0.0
C29 C 0.32779 0.70637 0.78485 0.0
O30 O 0.308 0.82389 0.72455 0.0
O31 O 0.30361 0.79139 0.88174 0.0
O32 O 0.30256 0.7454 0.53103 0.0
O33 O 0.24588 0.79108 0.51492 0.0
O34 O 0.34246 0.7376 0.72207 0.0
O35 O 0.28418 0.70549 0.77919 0.0
O36 O 0.20383 0.6853 0.80371 0.0
O37 O 0.21241 0.71459 0.64598 0.0
C38 C 0.32057 0.82245 0.81874 0.0
C39 C 0.19425 0.68434 0.70873 0.0
Dy40 Dy 0.51674 0.98573 0.11887 0.0
C41 C 0.48558 0.02322 0.70749 0.0
C42 C 0.52541 0.98564 0.31747 0.0
Dy43 Dy 0.49478 0.02569 0.90533 0.0
O44 O 0.50817 0.95218 0.26938 0.0
O45 O 0.54083 0.01746 0.25695 0.0
O46 O 0.48665 0.9179 0.08195 0.0
O47 O 0.4601 0.97912 1.00684 0.0
C48 C 0.45858 0.93574 1.01059 0.0
C49 C 0.55266 0.07565 1.01452 0.0
O50 O 0.43503 0.05696 0.96474 0.0
O51 O 0.46595 0.04204 0.1247 0.0
O52 O 0.50503 0.05646 0.75326 0.0
O53 O 0.46825 0.99353 0.76974 0.0
O54 O 0.525 0.09364 0.94247 0.0
O55 O 0.55111 0.03233 1.01757 0.0
O56 O 0.57724 0.95575 0.05812 0.0
O57 O 0.54507 0.96937 0.89896 0.0
C58 C 0.43533 0.06235 0.05898 0.0
C59 C 0.5769 0.95067 0.96362 0.0
Dy60 Dy 0.23238 0.26408 0.15891 0.0
C61 C 0.2773 0.2352 0.57104 0.0
C62 C 0.22998 0.2699 0.9596 0.0
Dy63 Dy 0.27754 0.24367 0.37213 0.0
O64 O 0.20341 0.24394 1.01227 0.0
O65 O 0.25508 0.29567 1.01579 0.0
O66 O 0.16527 0.23498 0.20603 0.0
O67 O 0.22839 0.20968 0.27537 0.0
C68 C 0.1853 0.20879 0.27824 0.0
C69 C 0.32509 0.2992 0.25331 0.0
O70 O 0.30807 0.18425 0.31035 0.0
O71 O 0.28981 0.21484 0.15078 0.0
O72 O 0.30451 0.26207 0.52172 0.0
O73 O 0.25314 0.21023 0.51175 0.0
O74 O 0.34455 0.27379 0.32756 0.0
O75 O 0.28189 0.29805 0.25534 0.0
O76 O 0.20172 0.32357 0.22092 0.0
O77 O 0.22024 0.29284 0.38027 0.0
C78 C 0.3107 0.18404 0.2151 0.0
C79 C 0.1991 0.32357 0.31629 0.0
Dy80 Dy 0.74155 0.24546 0.36511 0.0
C81 C 0.77053 0.26688 0.97129 0.0
C82 C 0.73757 0.24393 0.56093 0.0
Dy83 Dy 0.76922 0.26191 0.1681 0.0
O84 O 0.72116 0.27588 0.4972 0.0
O85 O 0.75505 0.21129 0.51746 0.0
O86 O 0.67045 0.26961 0.31532 0.0
O87 O 0.72663 0.30243 0.25117 0.0
C88 C 0.68304 0.30078 0.25015 0.0
C89 C 0.82778 0.20655 0.28252 0.0
O90 O 0.80819 0.32134 0.2262 0.0
O91 O 0.80605 0.28772 0.38284 0.0
O92 O 0.78861 0.23437 0.03172 0.0
O93 O 0.75328 0.29814 1.01872 0.0
O94 O 0.84029 0.23733 0.21638 0.0
O95 O 0.78417 0.20492 0.28202 0.0
O96 O 0.70273 0.1857 0.30781 0.0
O97 O 0.70539 0.21868 0.15073 0.0
C98 C 0.82237 0.31901 0.31973 0.0
C99 C 0.68888 0.18764 0.2141 0.0
Dy100 Dy 0.73619 0.76491 0.65979 0.0
C101 C 0.77473 0.73508 0.07131 0.0
C102 C 0.73458 0.77199 0.46116 0.0
Dy103 Dy 0.77512 0.74409 0.87312 0.0
O104 O 0.70414 0.75043 0.51163 0.0
O105 O 0.76393 0.7925 0.5192 0.0
O106 O 0.66728 0.73826 0.69694 0.0
O107 O 0.72731 0.70959 0.77373 0.0
C108 C 0.68377 0.71012 0.76948 0.0
C109 C 0.82653 0.80032 0.76318 0.0
O110 O 0.80635 0.6839 0.81562 0.0
O111 O 0.79269 0.71432 0.65524 0.0
O112 O 0.80429 0.75932 0.02308 0.0
O113 O 0.74772 0.71317 1.01128 0.0
O114 O 0.84388 0.77214 0.83498 0.0
O115 O 0.78311 0.79968 0.75989 0.0
O116 O 0.70584 0.82561 0.7179 0.0
O117 O 0.71833 0.79426 0.87785 0.0
C118 C 0.8122 0.68364 0.72174 0.0
C119 C 0.69951 0.8255 0.81173 0.0
Dy120 Dy 0.49871 0.48979 0.92215 0.0
C121 C 0.52073 0.52077 0.31559 0.0
C122 C 0.49742 0.48545 0.7262 0.0
Dy123 Dy 0.514 0.52035 0.11818 0.0
O124 O 0.5293 0.46895 0.79023 0.0
O125 O 0.46472 0.50291 0.76959 0.0
O126 O 0.52206 0.41918 0.97768 0.0
O127 O 0.55464 0.47635 0.03856 0.0
C128 C 0.5526 0.43276 0.04305 0.0
C129 C 0.45825 0.57682 0.99936 0.0
O130 O 0.57323 0.55963 0.05949 0.0
O131 O 0.54152 0.55387 0.90243 0.0
O132 O 0.49055 0.54326 0.25602 0.0
O133 O 0.54894 0.49978 0.26687 0.0
O134 O 0.48846 0.59076 0.06523 0.0
O135 O 0.45763 0.53321 1.00264 0.0
O136 O 0.4386 0.45102 0.97806 0.0
O137 O 0.46553 0.46043 0.13711 0.0
C138 C 0.57163 0.57211 0.96524 0.0
C139 C 0.43642 0.44181 0.0728 0.0
Dy140 Dy 0.01488 0.48012 0.63222 0.0
C141 C 0.99044 0.52571 0.21955 0.0
C142 C 0.02274 0.47886 0.83083 0.0
Dy143 Dy 0.99537 0.52209 0.41869 0.0
O144 O 0.99321 0.45502 0.77985 0.0
O145 O 0.05042 0.50046 0.77335 0.0
O146 O 0.98588 0.41243 0.59167 0.0
O147 O 0.96002 0.47416 0.51659 0.0
C148 C 0.95874 0.43076 0.519 0.0
C149 C 0.05114 0.57109 0.53427 0.0
O150 O 0.93562 0.55365 0.47799 0.0
O151 O 0.96728 0.53903 0.63753 0.0
O152 O 0.96338 0.50158 0.27435 0.0
O153 O 0.0177 0.55043 0.27349 0.0
O154 O 0.02501 0.58957 0.46031 0.0
O155 O 0.05009 0.52784 0.53462 0.0
O156 O 0.0737 0.44755 0.57189 0.0
O157 O 0.04218 0.46261 0.41249 0.0
C158 C 0.93582 0.55832 0.57258 0.0
C159 C 0.07293 0.44217 0.47755 0.0
C160 C 0.13583 0.09364 0.36213 0.0
C161 C 0.10957 0.10425 0.4377 0.0
C162 C 0.16175 0.12756 0.3132 0.0
C163 C 0.16113 0.17337 0.33653 0.0
H164 H 0.13532 0.05906 0.33896 0.0
H165 H 0.18096 0.11828 0.25427 0.0
S166 S 0.09939 0.21892 0.53002 0.0
N167 N 0.08627 0.16344 0.53641 0.0
N168 N 0.1339 0.22772 0.4415 0.0
C169 C 0.13612 0.18438 0.41333 0.0
C170 C 0.11059 0.14958 0.46492 0.0
C171 C 0.07637 0.85669 0.61885 0.0
C172 C 0.08899 0.90293 0.59709 0.0
C173 C 0.10805 0.82459 0.66633 0.0
C174 C 0.15405 0.83704 0.69163 0.0
H175 H 0.0415 0.84521 0.59953 0.0
H176 H 0.09646 0.78951 0.68258 0.0
S177 S 0.20499 0.95362 0.64979 0.0
N178 N 0.15069 0.95979 0.605 0.0
N179 N 0.21082 0.8989 0.69143 0.0
C180 C 0.16744 0.88306 0.66948 0.0
C181 C 0.13472 0.91617 0.62314 0.0
C182 C 0.39231 0.83287 0.92364 0.0
C183 C 0.35753 0.85256 0.85664 0.0
C184 C 0.4255 0.86021 0.97037 0.0
C185 C 0.4246 0.90845 0.95367 0.0
H186 H 0.39351 0.79591 0.9412 0.0
H187 H 0.45142 0.8433 0.02185 0.0
S188 S 0.33974 0.97691 0.78565 0.0
N189 N 0.3242 0.92281 0.77403 0.0
N190 N 0.38539 0.97491 0.86562 0.0
C191 C 0.39013 0.92869 0.88592 0.0
C192 C 0.35688 0.90053 0.83635 0.0
C193 C 0.40633 0.1004 0.19555 0.0
C194 C 0.40113 0.09166 0.09641 0.0
C195 C 0.3759 0.12886 0.23452 0.0
C196 C 0.33916 0.14988 0.17592 0.0
H197 H 0.43472 0.08589 0.24396 0.0
H198 H 0.38218 0.13556 0.31025 0.0
S199 S 0.30722 0.13494 0.91432 0.0
N200 N 0.3544 0.104 0.94223 0.0
N201 N 0.2967 0.15747 1.0153 0.0
C202 C 0.33236 0.14023 0.07743 0.0
C203 C 0.36349 0.11119 0.03768 0.0
C204 C 0.92995 0.86633 0.67647 0.0
C205 C 0.91025 0.90159 0.61064 0.0
C206 C 0.90249 0.83295 0.72266 0.0
C207 C 0.85417 0.83411 0.70639 0.0
H208 H 0.96698 0.86499 0.69368 0.0
H209 H 0.91932 0.80675 0.77352 0.0
S210 S 0.78576 0.91996 0.54079 0.0
N211 N 0.83994 0.9355 0.52944 0.0
N212 N 0.78773 0.87382 0.61935 0.0
C213 C 0.834 0.8689 0.63939 0.0
C214 C 0.86222 0.9024 0.59063 0.0
C215 C 0.8783 0.09699 0.42204 0.0
C216 C 0.92519 0.10872 0.43939 0.0
C217 C 0.8464 0.129 0.37308 0.0
C218 C 0.86069 0.17322 0.33764 0.0
H219 H 0.86601 0.0634 0.4487 0.0
H220 H 0.81053 0.1189 0.36195 0.0
S221 S 0.98018 0.21957 0.36085 0.0
N222 N 0.98428 0.1671 0.41633 0.0
N223 N 0.92529 0.22622 0.32138 0.0
C224 C 0.90771 0.18469 0.35286 0.0
C225 C 0.93971 0.1527 0.40445 0.0
C226 C 0.61698 0.17799 0.10915 0.0
C227 C 0.6514 0.15795 0.17668 0.0
C228 C 0.58439 0.15094 0.05992 0.0
C229 C 0.58559 0.10266 0.07452 0.0
H230 H 0.6159 0.215 0.09236 0.0
H231 H 0.55888 0.16809 1.00785 0.0
S232 S 0.66929 0.03332 0.24369 0.0
N233 N 0.68443 0.0873 0.25794 0.0
N234 N 0.6243 0.03578 0.16199 0.0
C235 C 0.61946 0.08207 0.14325 0.0
C236 C 0.6521 0.10991 0.1953 0.0
C237 C 0.66427 0.85781 0.94855 0.0
C238 C 0.67063 0.86043 0.84813 0.0
C239 C 0.63549 0.88837 0.98641 0.0
C240 C 0.61183 0.92267 0.92543 0.0
H241 H 0.68085 0.8313 0.99897 0.0
H242 H 0.63053 0.88395 0.0633 0.0
S243 S 0.62023 0.94783 0.65912 0.0
N244 N 0.65341 0.90246 0.68989 0.0
N245 N 0.59958 0.9605 0.76069 0.0
C246 C 0.61941 0.92719 0.82551 0.0
C247 C 0.64871 0.8959 0.78693 0.0
C248 C 0.64809 0.61137 0.947 0.0
C249 C 0.59996 0.61065 0.92685 0.0
C250 C 0.67529 0.64429 0.89723 0.0
C251 C 0.65501 0.67792 0.82752 0.0
H252 H 0.6649 0.58508 0.99766 0.0
H253 H 0.71243 0.64252 0.91139 0.0
S254 S 0.5297 0.69324 0.75776 0.0
N255 N 0.53298 0.64771 0.83768 0.0
N256 N 0.58342 0.71043 0.74771 0.0
C257 C 0.60668 0.67882 0.81121 0.0
C258 C 0.57932 0.64495 0.86006 0.0
C259 C 0.66449 0.37946 0.16496 0.0
C260 C 0.65025 0.33469 0.19676 0.0
C261 C 0.63255 0.4121 0.11851 0.0
C262 C 0.58567 0.40053 0.10026 0.0
H263 H 0.70034 0.38951 0.17712 0.0
H264 H 0.6448 0.4461 0.09454 0.0
S265 S 0.53094 0.28824 0.16918 0.0
N266 N 0.58583 0.28118 0.20818 0.0
N267 N 0.52669 0.34157 0.11827 0.0
C268 C 0.57123 0.35596 0.1315 0.0
C269 C 0.60329 0.32328 0.18038 0.0
C270 C 0.92771 0.35558 0.47138 0.0
C271 C 0.92587 0.40389 0.45863 0.0
C272 C 0.89497 0.32856 0.42246 0.0
C273 C 0.85984 0.3487 0.35693 0.0
H274 H 0.95381 0.33835 0.5219 0.0
H275 H 0.8965 0.2915 0.43797 0.0
S276 S 0.83983 0.47343 0.29592 0.0
N277 N 0.88555 0.47087 0.3757 0.0
N278 N 0.82528 0.41948 0.27982 0.0
C279 C 0.85846 0.39681 0.34016 0.0
C280 C 0.89121 0.42458 0.39205 0.0
C281 C 0.84924 0.65221 0.58614 0.0
C282 C 0.84172 0.64906 0.68599 0.0
C283 C 0.87837 0.62173 0.54903 0.0
C284 C 0.90127 0.58698 0.61025 0.0
H285 H 0.83321 0.67902 0.53564 0.0
H286 H 0.88405 0.62641 0.47252 0.0
S287 S 0.88999 0.56056 0.87514 0.0
N288 N 0.85724 0.6062 0.8439 0.0
N289 N 0.91178 0.54837 0.77443 0.0
C290 C 0.89274 0.5821 0.70958 0.0
C291 C 0.86307 0.61329 0.7474 0.0
C292 C 0.36547 0.33257 0.11126 0.0
C293 C 0.3493 0.33725 0.20256 0.0
C294 C 0.39165 0.36781 0.06591 0.0
C295 C 0.40259 0.40834 0.11139 0.0
H296 H 0.35885 0.3011 0.07605 0.0
H297 H 0.40515 0.36238 0.9974 0.0
S298 S 0.36414 0.43825 0.34665 0.0
N299 N 0.34287 0.38616 0.33338 0.0
N300 N 0.39201 0.45227 0.24937 0.0
C301 C 0.38477 0.41386 0.20094 0.0
C302 C 0.35813 0.37826 0.24636 0.0
C303 C 0.434 0.65547 0.93035 0.0
C304 C 0.4236 0.6082 0.94411 0.0
C305 C 0.40263 0.68669 0.87879 0.0
C306 C 0.35875 0.67232 0.84249 0.0
H307 H 0.46701 0.6685 0.95868 0.0
H308 H 0.41274 0.72254 0.8679 0.0
S309 S 0.31331 0.55278 0.86221 0.0
N310 N 0.36591 0.54852 0.9176 0.0
N311 N 0.30587 0.60786 0.82508 0.0
C312 C 0.34719 0.62541 0.85777 0.0
C313 C 0.37988 0.59318 0.9075 0.0
C314 C 0.12552 0.63175 0.72276 0.0
C315 C 0.16095 0.65065 0.66839 0.0
C316 C 0.09025 0.60487 0.67967 0.0
C317 C 0.08964 0.5961 0.58143 0.0
H318 H 0.12394 0.63928 0.79758 0.0
H319 H 0.06257 0.59223 0.72238 0.0
S320 S 0.17678 0.63259 0.41082 0.0
N321 N 0.19507 0.65469 0.51304 0.0
N322 N 0.12852 0.60491 0.43322 0.0
C323 C 0.12567 0.61295 0.52773 0.0
C324 C 0.1615 0.63999 0.57106 0.0
C325 C 0.13254 0.37727 0.29914 0.0
C326 C 0.17001 0.35692 0.3565 0.0
C327 C 0.10153 0.40461 0.33961 0.0
C328 C 0.10687 0.41284 0.43909 0.0
H329 H 0.12621 0.37094 0.22321 0.0
H330 H 0.07275 0.41885 0.292 0.0
S331 S 0.20195 0.37023 0.61885 0.0
N332 N 0.21284 0.34899 0.51673 0.0
N333 N 0.15406 0.40018 0.59252 0.0
C334 C 0.14498 0.39366 0.49674 0.0
C335 C 0.17671 0.36585 0.45548 0.0
C336 C 0.03658 0.9872 0.98136 0.0
C337 C 0.00912 0.01934 0.92147 0.0
C338 C 0.02921 0.97763 0.07959 0.0
C339 C 0.99438 1.00015 0.12134 0.0
H340 H 0.06342 0.96867 0.95188 0.0
H341 H 0.05138 0.95277 0.1233 0.0
S342 S 0.91369 0.08802 0.99577 0.0
N343 N 0.94601 0.07408 0.91069 0.0
N344 N 0.93254 0.0564 0.09582 0.0
C345 C 0.96688 0.03261 0.06242 0.0
C346 C 0.97422 0.04219 0.96228 0.0
C347 C 0.23099 0.78346 0.30564 0.0
C348 C 0.26758 0.76159 0.36421 0.0
C349 C 0.22165 0.77442 0.20818 0.0
C350 C 0.2484 0.74299 0.16593 0.0
H351 H 0.20914 0.80753 0.33537 0.0
H352 H 0.19349 0.79258 0.16541 0.0
S353 S 0.34797 0.67627 0.28844 0.0
N354 N 0.33065 0.70687 0.37317 0.0
N355 N 0.31291 0.6898 0.1901 0.0
C356 C 0.28489 0.7206 0.22383 0.0
C357 C 0.29459 0.73001 0.32293 0.0
C358 C 0.52062 0.04414 0.5507 0.0
C359 C 0.49328 0.01394 0.60658 0.0
C360 C 0.5323 0.03379 0.45881 0.0
C361 C 0.5173 0.99272 0.41937 0.0
H362 H 0.53351 0.07589 0.57845 0.0
H363 H 0.55284 0.0585 0.4179 0.0
S364 S 0.44534 0.9017 0.53692 0.0
N365 N 0.45175 0.94097 0.61602 0.0
N366 N 0.47383 0.9215 0.44387 0.0
C367 C 0.49024 0.96203 0.47482 0.0
C368 C 0.47812 0.97269 0.56814 0.0
C369 C 0.275 0.28686 0.81389 0.0
C370 C 0.23954 0.26205 0.8584 0.0
C371 C 0.28806 0.27687 0.72259 0.0
C372 C 0.26638 0.24151 0.6721 0.0
H373 H 0.2932 0.314 0.85025 0.0
H374 H 0.31503 0.29749 0.69084 0.0
S375 S 0.17213 0.16556 0.75736 0.0
N376 N 0.1833 0.20004 0.84498 0.0
N377 N 0.20785 0.18133 0.67414 0.0
C378 C 0.23102 0.21628 0.71593 0.0
C379 C 0.21758 0.22657 0.80868 0.0
C380 C 0.7819 0.22579 0.82568 0.0
C381 C 0.76301 0.26327 0.86587 0.0
C382 C 0.77227 0.21881 0.72733 0.0
C383 C 0.74343 0.24909 0.66596 0.0
H384 H 0.80411 0.2014 0.87063 0.0
H385 H 0.78808 0.18991 0.69904 0.0
S386 S 0.68429 0.35178 0.73621 0.0
N387 N 0.7135 0.33052 0.83744 0.0
N388 N 0.6953 0.31754 0.65232 0.0
C389 C 0.72403 0.28656 0.70533 0.0
C390 C 0.73395 0.2937 0.80543 0.0
C391 C 0.78107 0.78362 0.31755 0.0
C392 C 0.74232 0.76398 0.35965 0.0
C393 C 0.79224 0.77278 0.22569 0.0
C394 C 0.76522 0.74173 0.17251 0.0
H395 H 0.8033 0.80724 0.35626 0.0
H396 H 0.82203 0.78929 0.19576 0.0
S397 S 0.66015 0.68071 0.25016 0.0
N398 N 0.67685 0.71189 0.34093 0.0
N399 N 0.69788 0.69148 0.16867 0.0
C400 C 0.72642 0.72175 0.2138 0.0
C401 C 0.71491 0.73296 0.30713 0.0
C402 C 0.47168 0.51986 0.55962 0.0
C403 C 0.50271 0.49177 0.62103 0.0
C404 C 0.47866 0.53012 0.46132 0.0
C405 C 0.51682 0.51255 0.42101 0.0
H406 H 0.44217 0.53461 0.58788 0.0
H407 H 0.45364 0.55165 0.41645 0.0
S408 S 0.60776 0.43664 0.55075 0.0
N409 N 0.57284 0.44608 0.63455 0.0
N410 N 0.58571 0.46531 0.44955 0.0
C411 C 0.54796 0.4842 0.48143 0.0
C412 C 0.54091 0.47375 0.58154 0.0
C413 C 0.98035 0.46983 0.98095 0.0
C414 C 0.01705 0.48971 0.93182 0.0
C415 C 0.97096 0.48293 0.07238 0.0
C416 C 0.99777 0.51658 0.11824 0.0
H417 H 0.95828 0.44423 0.9481 0.0
H418 H 0.94273 0.46614 0.1078 0.0
S419 S 0.09761 0.57962 1.02001 0.0
N420 N 0.08017 0.54507 0.93573 0.0
N421 N 0.06261 0.56969 0.10721 0.0
C422 C 0.03445 0.53692 0.06973 0.0
C423 C 0.04412 0.52343 0.97676 0.0
loop_
_geom_bond_atom_site_label_1
_geom_bond_atom_site_label_2
_geom_bond_distance
_geom_bond_site_symmetry_2
_ccdc_geom_bond_type
Dy0 O4 2.398 1_655 S
Dy0 O5 2.491 1_565 S
Dy0 O6 2.403 1_655 S
Dy0 O7 2.664 1_655 S
Dy0 O11 2.326 1_665 S
Dy0 O15 2.310 1_565 S
Dy0 O16 2.351 . S
C1 O12 1.185 . S
C1 O13 1.355 1_645 S
C2 O4 1.185 . S
C2 O5 1.355 1_465 S
Dy3 O7 2.310 1_545 S
Dy3 O10 2.351 . S
Dy3 O12 2.398 1_455 S
Dy3 O13 2.491 1_545 S
Dy3 O14 2.403 1_455 S
Dy3 O15 2.664 1_455 S
Dy3 O17 2.326 1_445 S
O4 Dy0 2.398 1_455 S
O4 C2 1.185 . S
O5 Dy0 2.491 1_545 S
O5 C2 1.355 1_645 S
O6 Dy0 2.403 1_455 S
O6 C8 1.254 . S
O7 Dy0 2.664 1_455 S
O7 Dy3 2.310 1_565 S
O7 C8 1.268 . S
C8 O6 1.254 . S
C8 O7 1.268 . S
C9 O14 1.254 . S
C9 O15 1.268 . S
O10 Dy3 2.351 . S
O10 C18 1.249 . S
O11 Dy0 2.326 1_445 S
O11 C18 1.267 . S
O12 C1 1.185 . S
O12 Dy3 2.398 1_655 S
O13 C1 1.355 1_465 S
O13 Dy3 2.491 1_565 S
O14 Dy3 2.403 1_655 S
O14 C9 1.254 . S
O15 Dy0 2.310 1_545 S
O15 Dy3 2.664 1_655 S
O15 C9 1.268 . S
O16 Dy0 2.351 . S
O16 C19 1.249 . S
O17 Dy3 2.326 1_665 S
O17 C19 1.267 . S
C18 O10 1.249 . S
C18 O11 1.267 . S
C19 O16 1.249 . S
C19 O17 1.267 . S
Dy20 O24 2.398 1_556 S
Dy20 O25 2.491 1_556 S
Dy20 O26 2.403 . S
Dy20 O27 2.664 . S
Dy20 O31 2.326 . S
Dy20 O35 2.310 . S
Dy20 O36 2.351 . S
C21 O32 1.185 . S
C21 O33 1.355 . S
C22 O24 1.185 . S
C22 O25 1.355 . S
Dy23 O27 2.310 . S
Dy23 O30 2.351 . S
Dy23 O32 2.398 . S
Dy23 O33 2.491 . S
Dy23 O34 2.403 . S
Dy23 O35 2.664 . S
Dy23 O37 2.326 . S
O24 Dy20 2.398 1_554 S
O24 C22 1.185 . S
O25 Dy20 2.491 1_554 S
O25 C22 1.355 . S
O26 Dy20 2.403 . S
O26 C28 1.254 . S
O27 Dy20 2.664 . S
O27 Dy23 2.310 . S
O27 C28 1.268 . S
C28 O26 1.254 . S
C28 O27 1.268 . S
C29 O34 1.254 . S
C29 O35 1.268 . S
O30 Dy23 2.351 . S
O30 C38 1.249 . S
O31 Dy20 2.326 . S
O31 C38 1.267 . S
O32 C21 1.185 . S
O32 Dy23 2.398 . S
O33 C21 1.355 . S
O33 Dy23 2.491 . S
O34 Dy23 2.403 . S
O34 C29 1.254 . S
O35 Dy20 2.310 . S
O35 Dy23 2.664 . S
O35 C29 1.268 . S
O36 Dy20 2.351 . S
O36 C39 1.249 . S
O37 Dy23 2.326 . S
O37 C39 1.267 . S
C38 O30 1.249 . S
C38 O31 1.267 . S
C39 O36 1.249 . S
C39 O37 1.267 . S
Dy40 O44 2.398 . S
Dy40 O45 2.491 1_565 S
Dy40 O46 2.403 . S
Dy40 O47 2.664 1_554 S
Dy40 O51 2.326 1_565 S
Dy40 O55 2.310 1_565 S
Dy40 O56 2.351 . S
C41 O52 1.185 . S
C41 O53 1.355 1_545 S
C42 O44 1.185 . S
C42 O45 1.355 1_565 S
Dy43 O47 2.310 1_545 S
Dy43 O50 2.351 . S
Dy43 O52 2.398 . S
Dy43 O53 2.491 1_545 S
Dy43 O54 2.403 . S
Dy43 O55 2.664 1_556 S
Dy43 O57 2.326 1_545 S
O44 Dy40 2.398 . S
O44 C42 1.185 . S
O45 Dy40 2.491 1_545 S
O45 C42 1.355 1_545 S
O46 Dy40 2.403 . S
O46 C48 1.254 1_554 S
O47 Dy40 2.664 1_556 S
O47 Dy43 2.310 1_565 S
O47 C48 1.268 . S
C48 O46 1.254 1_556 S
C48 O47 1.268 . S
C49 O54 1.254 1_554 S
C49 O55 1.268 . S
O50 Dy43 2.351 . S
O50 C58 1.249 1_556 S
O51 Dy40 2.326 1_545 S
O51 C58 1.267 . S
O52 C41 1.185 . S
O52 Dy43 2.398 . S
O53 C41 1.355 1_565 S
O53 Dy43 2.491 1_565 S
O54 Dy43 2.403 . S
O54 C49 1.254 1_556 S
O55 Dy40 2.310 1_545 S
O55 Dy43 2.664 1_554 S
O55 C49 1.268 . S
O56 Dy40 2.351 . S
O56 C59 1.249 1_554 S
O57 Dy43 2.326 1_565 S
O57 C59 1.267 . S
C58 O50 1.249 1_554 S
C58 O51 1.267 . S
C59 O56 1.249 1_556 S
C59 O57 1.267 . S
Dy60 O64 2.398 1_554 S
Dy60 O65 2.491 1_554 S
Dy60 O66 2.403 . S
Dy60 O67 2.664 . S
Dy60 O71 2.326 . S
Dy60 O75 2.310 . S
Dy60 O76 2.351 . S
C61 O72 1.185 . S
C61 O73 1.355 . S
C62 O64 1.185 . S
C62 O65 1.355 . S
Dy63 O67 2.310 . S
Dy63 O70 2.351 . S
Dy63 O72 2.398 . S
Dy63 O73 2.491 . S
Dy63 O74 2.403 . S
Dy63 O75 2.664 . S
Dy63 O77 2.326 . S
O64 Dy60 2.398 1_556 S
O64 C62 1.185 . S
O65 Dy60 2.491 1_556 S
O65 C62 1.355 . S
O66 Dy60 2.403 . S
O66 C68 1.254 . S
O67 Dy60 2.664 . S
O67 Dy63 2.310 . S
O67 C68 1.268 . S
C68 O66 1.254 . S
C68 O67 1.268 . S
C69 O74 1.254 . S
C69 O75 1.268 . S
O70 Dy63 2.351 . S
O70 C78 1.249 . S
O71 Dy60 2.326 . S
O71 C78 1.267 . S
O72 C61 1.185 . S
O72 Dy63 2.398 . S
O73 C61 1.355 . S
O73 Dy63 2.491 . S
O74 Dy63 2.403 . S
O74 C69 1.254 . S
O75 Dy60 2.310 . S
O75 Dy63 2.664 . S
O75 C69 1.268 . S
O76 Dy60 2.351 . S
O76 C79 1.249 . S
O77 Dy63 2.326 . S
O77 C79 1.267 . S
C78 O70 1.249 . S
C78 O71 1.267 . S
C79 O76 1.249 . S
C79 O77 1.267 . S
Dy80 O84 2.398 . S
Dy80 O85 2.491 . S
Dy80 O86 2.403 . S
Dy80 O87 2.664 . S
Dy80 O91 2.326 . S
Dy80 O95 2.310 . S
Dy80 O96 2.351 . S
C81 O92 1.185 . S
C81 O93 1.355 . S
C82 O84 1.185 . S
C82 O85 1.355 . S
Dy83 O87 2.310 . S
Dy83 O90 2.351 . S
Dy83 O92 2.398 1_554 S
Dy83 O93 2.491 1_554 S
Dy83 O94 2.403 . S
Dy83 O95 2.664 . S
Dy83 O97 2.326 . S
O84 Dy80 2.398 . S
O84 C82 1.185 . S
O85 Dy80 2.491 . S
O85 C82 1.355 . S
O86 Dy80 2.403 . S
O86 C88 1.254 . S
O87 Dy80 2.664 . S
O87 Dy83 2.310 . S
O87 C88 1.268 . S
C88 O86 1.254 . S
C88 O87 1.268 . S
C89 O94 1.254 . S
C89 O95 1.268 . S
O90 Dy83 2.351 . S
O90 C98 1.249 . S
O91 Dy80 2.326 . S
O91 C98 1.267 . S
O92 C81 1.185 . S
O92 Dy83 2.398 1_556 S
O93 C81 1.355 . S
O93 Dy83 2.491 1_556 S
O94 Dy83 2.403 . S
O94 C89 1.254 . S
O95 Dy80 2.310 . S
O95 Dy83 2.664 . S
O95 C89 1.268 . S
O96 Dy80 2.351 . S
O96 C99 1.249 . S
O97 Dy83 2.326 . S
O97 C99 1.267 . S
C98 O90 1.249 . S
C98 O91 1.267 . S
C99 O96 1.249 . S
C99 O97 1.267 . S
Dy100 O104 2.398 . S
Dy100 O105 2.491 . S
Dy100 O106 2.403 . S
Dy100 O107 2.664 . S
Dy100 O111 2.326 . S
Dy100 O115 2.310 . S
Dy100 O116 2.351 . S
C101 O112 1.185 . S
C101 O113 1.355 . S
C102 O104 1.185 . S
C102 O105 1.355 . S
Dy103 O107 2.310 . S
Dy103 O110 2.351 . S
Dy103 O112 2.398 1_556 S
Dy103 O113 2.491 1_556 S
Dy103 O114 2.403 . S
Dy103 O115 2.664 . S
Dy103 O117 2.326 . S
O104 Dy100 2.398 . S
O104 C102 1.185 . S
O105 Dy100 2.491 . S
O105 C102 1.355 . S
O106 Dy100 2.403 . S
O106 C108 1.254 . S
O107 Dy100 2.664 . S
O107 Dy103 2.310 . S
O107 C108 1.268 . S
C108 O106 1.254 . S
C108 O107 1.268 . S
C109 O114 1.254 . S
C109 O115 1.268 . S
O110 Dy103 2.351 . S
O110 C118 1.249 . S
O111 Dy100 2.326 . S
O111 C118 1.267 . S
O112 C101 1.185 . S
O112 Dy103 2.398 1_554 S
O113 C101 1.355 . S
O113 Dy103 2.491 1_554 S
O114 Dy103 2.403 . S
O114 C109 1.254 . S
O115 Dy100 2.310 . S
O115 Dy103 2.664 . S
O115 C109 1.268 . S
O116 Dy100 2.351 . S
O116 C119 1.249 . S
O117 Dy103 2.326 . S
O117 C119 1.267 . S
C118 O110 1.249 . S
C118 O111 1.267 . S
C119 O116 1.249 . S
C119 O117 1.267 . S
Dy120 O124 2.398 . S
Dy120 O125 2.491 . S
Dy120 O126 2.403 . S
Dy120 O127 2.664 1_556 S
Dy120 O131 2.326 . S
Dy120 O135 2.310 . S
Dy120 O136 2.351 . S
C121 O132 1.185 . S
C121 O133 1.355 . S
C122 O124 1.185 . S
C122 O125 1.355 . S
Dy123 O127 2.310 . S
Dy123 O130 2.351 . S
Dy123 O132 2.398 . S
Dy123 O133 2.491 . S
Dy123 O134 2.403 . S
Dy123 O135 2.664 1_554 S
Dy123 O137 2.326 . S
O124 Dy120 2.398 . S
O124 C122 1.185 . S
O125 Dy120 2.491 . S
O125 C122 1.355 . S
O126 Dy120 2.403 . S
O126 C128 1.254 1_556 S
O127 Dy120 2.664 1_554 S
O127 Dy123 2.310 . S
O127 C128 1.268 . S
C128 O126 1.254 1_554 S
C128 O127 1.268 . S
C129 O134 1.254 1_556 S
C129 O135 1.268 . S
O130 Dy123 2.351 . S
O130 C138 1.249 1_554 S
O131 Dy120 2.326 . S
O131 C138 1.267 . S
O132 C121 1.185 . S
O132 Dy123 2.398 . S
O133 C121 1.355 . S
O133 Dy123 2.491 . S
O134 Dy123 2.403 . S
O134 C129 1.254 1_554 S
O135 Dy120 2.310 . S
O135 Dy123 2.664 1_556 S
O135 C129 1.268 . S
O136 Dy120 2.351 . S
O136 C139 1.249 1_556 S
O137 Dy123 2.326 . S
O137 C139 1.267 . S
C138 O130 1.249 1_556 S
C138 O131 1.267 . S
C139 O136 1.249 1_554 S
C139 O137 1.267 . S
Dy140 O144 2.398 1_455 S
Dy140 O145 2.491 . S
Dy140 O146 2.403 1_455 S
Dy140 O147 2.664 1_455 S
Dy140 O151 2.326 1_455 S
Dy140 O155 2.310 . S
Dy140 O156 2.351 . S
C141 O152 1.185 . S
C141 O153 1.355 1_455 S
C142 O144 1.185 . S
C142 O145 1.355 1_655 S
Dy143 O147 2.310 . S
Dy143 O150 2.351 . S
Dy143 O152 2.398 1_655 S
Dy143 O153 2.491 . S
Dy143 O154 2.403 1_655 S
Dy143 O155 2.664 1_655 S
Dy143 O157 2.326 1_655 S
O144 Dy140 2.398 1_655 S
O144 C142 1.185 . S
O145 Dy140 2.491 . S
O145 C142 1.355 1_455 S
O146 Dy140 2.403 1_655 S
O146 C148 1.254 . S
O147 Dy140 2.664 1_655 S
O147 Dy143 2.310 . S
O147 C148 1.268 . S
C148 O146 1.254 . S
C148 O147 1.268 . S
C149 O154 1.254 . S
C149 O155 1.268 . S
O150 Dy143 2.351 . S
O150 C158 1.249 . S
O151 Dy140 2.326 1_655 S
O151 C158 1.267 . S
O152 C141 1.185 . S
O152 Dy143 2.398 1_455 S
O153 C141 1.355 1_655 S
O153 Dy143 2.491 . S
O154 Dy143 2.403 1_455 S
O154 C149 1.254 . S
O155 Dy140 2.310 . S
O155 Dy143 2.664 1_455 S
O155 C149 1.268 . S
O156 Dy140 2.351 . S
O156 C159 1.249 . S
O157 Dy143 2.326 1_455 S
O157 C159 1.267 . S
C158 O150 1.249 . S
C158 O151 1.267 . S
C159 O156 1.249 . S
C159 O157 1.267 . S
C160 C161 1.369 . S
C160 C162 1.419 . S
C160 H164 0.930 . S
C161 C160 1.369 . S
C161 C170 1.429 . S
C162 C160 1.419 . S
C162 C163 1.363 . S
C162 H165 0.929 . S
C163 C162 1.363 . S
C163 C169 1.428 . S
H164 C160 0.930 . S
H165 C162 0.929 . S
S166 N167 1.613 . S
S166 N168 1.610 . S
N167 S166 1.613 . S
N167 C170 1.350 . S
N168 S166 1.610 . S
N168 C169 1.351 . S
C169 C163 1.428 . S
C169 N168 1.351 . S
C169 C170 1.434 . S
C170 C161 1.429 . S
C170 N167 1.350 . S
C170 C169 1.434 . S
C171 C172 1.369 . S
C171 C173 1.419 . S
C171 H175 0.930 . S
C172 C171 1.369 . S
C172 C181 1.429 . S
C173 C171 1.419 . S
C173 C174 1.363 . S
C173 H176 0.929 . S
C174 C173 1.363 . S
C174 C180 1.428 . S
H175 C171 0.930 . S
H176 C173 0.929 . S
S177 N178 1.613 . S
S177 N179 1.610 . S
N178 S177 1.613 . S
N178 C181 1.350 . S
N179 S177 1.610 . S
N179 C180 1.351 . S
C180 C174 1.428 . S
C180 N179 1.351 . S
C180 C181 1.434 . S
C181 C172 1.429 . S
C181 N178 1.350 . S
C181 C180 1.434 . S
C182 C183 1.369 . S
C182 C184 1.419 . S
C182 H186 0.930 . S
C183 C182 1.369 . S
C183 C192 1.429 . S
C184 C182 1.419 . S
C184 C185 1.363 . S
C184 H187 0.929 1_556 S
C185 C184 1.363 . S
C185 C191 1.428 . S
H186 C182 0.930 . S
H187 C184 0.929 1_554 S
S188 N189 1.613 . S
S188 N190 1.610 . S
N189 S188 1.613 . S
N189 C192 1.350 . S
N190 S188 1.610 . S
N190 C191 1.351 . S
C191 C185 1.428 . S
C191 N190 1.351 . S
C191 C192 1.434 . S
C192 C183 1.429 . S
C192 N189 1.350 . S
C192 C191 1.434 . S
C193 C194 1.369 . S
C193 C195 1.419 . S
C193 H197 0.930 . S
C194 C193 1.369 . S
C194 C203 1.429 . S
C195 C193 1.419 . S
C195 C196 1.363 . S
C195 H198 0.929 . S
C196 C195 1.363 . S
C196 C202 1.428 . S
H197 C193 0.930 . S
H198 C195 0.929 . S
S199 N200 1.613 . S
S199 N201 1.610 1_556 S
N200 S199 1.613 . S
N200 C203 1.350 1_556 S
N201 S199 1.610 1_554 S
N201 C202 1.351 . S
C202 C196 1.428 . S
C202 N201 1.351 . S
C202 C203 1.434 . S
C203 C194 1.429 . S
C203 N200 1.350 1_554 S
C203 C202 1.434 . S
C204 C205 1.369 . S
C204 C206 1.419 . S
C204 H208 0.930 . S
C205 C204 1.369 . S
C205 C214 1.429 . S
C206 C204 1.419 . S
C206 C207 1.363 . S
C206 H209 0.929 . S
C207 C206 1.363 . S
C207 C213 1.428 . S
H208 C204 0.930 . S
H209 C206 0.929 . S
S210 N211 1.613 . S
S210 N212 1.610 . S
N211 S210 1.613 . S
N211 C214 1.350 . S
N212 S210 1.610 . S
N212 C213 1.351 . S
C213 C207 1.428 . S
C213 N212 1.351 . S
C213 C214 1.434 . S
C214 C205 1.429 . S
C214 N211 1.350 . S
C214 C213 1.434 . S
C215 C216 1.369 . S
C215 C217 1.419 . S
C215 H219 0.930 . S
C216 C215 1.369 . S
C216 C225 1.429 . S
C217 C215 1.419 . S
C217 C218 1.363 . S
C217 H220 0.929 . S
C218 C217 1.363 . S
C218 C224 1.428 . S
H219 C215 0.930 . S
H220 C217 0.929 . S
S221 N222 1.613 . S
S221 N223 1.610 . S
N222 S221 1.613 . S
N222 C225 1.350 . S
N223 S221 1.610 . S
N223 C224 1.351 . S
C224 C218 1.428 . S
C224 N223 1.351 . S
C224 C225 1.434 . S
C225 C216 1.429 . S
C225 N222 1.350 . S
C225 C224 1.434 . S
C226 C227 1.369 . S
C226 C228 1.419 . S
C226 H230 0.930 . S
C227 C226 1.369 . S
C227 C236 1.429 . S
C228 C226 1.419 . S
C228 C229 1.363 . S
C228 H231 0.929 1_554 S
C229 C228 1.363 . S
C229 C235 1.428 . S
H230 C226 0.930 . S
H231 C228 0.929 1_556 S
S232 N233 1.613 . S
S232 N234 1.610 . S
N233 S232 1.613 . S
N233 C236 1.350 . S
N234 S232 1.610 . S
N234 C235 1.351 . S
C235 C229 1.428 . S
C235 N234 1.351 . S
C235 C236 1.434 . S
C236 C227 1.429 . S
C236 N233 1.350 . S
C236 C235 1.434 . S
C237 C238 1.369 . S
C237 C239 1.419 . S
C237 H241 0.930 . S
C238 C237 1.369 . S
C238 C247 1.429 . S
C239 C237 1.419 . S
C239 C240 1.363 . S
C239 H242 0.929 1_556 S
C240 C239 1.363 . S
C240 C246 1.428 . S
H241 C237 0.930 . S
H242 C239 0.929 1_554 S
S243 N244 1.613 . S
S243 N245 1.610 . S
N244 S243 1.613 . S
N244 C247 1.350 . S
N245 S243 1.610 . S
N245 C246 1.351 . S
C246 C240 1.428 . S
C246 N245 1.351 . S
C246 C247 1.434 . S
C247 C238 1.429 . S
C247 N244 1.350 . S
C247 C246 1.434 . S
C248 C249 1.369 . S
C248 C250 1.419 . S
C248 H252 0.930 . S
C249 C248 1.369 . S
C249 C258 1.429 . S
C250 C248 1.419 . S
C250 C251 1.363 . S
C250 H253 0.929 . S
C251 C250 1.363 . S
C251 C257 1.428 . S
H252 C248 0.930 . S
H253 C250 0.929 . S
S254 N255 1.613 . S
S254 N256 1.610 . S
N255 S254 1.613 . S
N255 C258 1.350 . S
N256 S254 1.610 . S
N256 C257 1.351 . S
C257 C251 1.428 . S
C257 N256 1.351 . S
C257 C258 1.434 . S
C258 C249 1.429 . S
C258 N255 1.350 . S
C258 C257 1.434 . S
C259 C260 1.369 . S
C259 C261 1.419 . S
C259 H263 0.930 . S
C260 C259 1.369 . S
C260 C269 1.429 . S
C261 C259 1.419 . S
C261 C262 1.363 . S
C261 H264 0.929 . S
C262 C261 1.363 . S
C262 C268 1.428 . S
H263 C259 0.930 . S
H264 C261 0.929 . S
S265 N266 1.613 1_556 S
S265 N267 1.609 1_556 S
N266 S265 1.613 1_554 S
N266 C269 1.350 . S
N267 S265 1.609 1_554 S
N267 C268 1.356 . S
C268 C262 1.428 . S
C268 N267 1.356 . S
C268 C269 1.434 . S
C269 C260 1.429 . S
C269 N266 1.350 . S
C269 C268 1.434 . S
C270 C271 1.369 . S
C270 C272 1.419 . S
C270 H274 0.930 . S
C271 C270 1.369 . S
C271 C280 1.429 . S
C272 C270 1.419 . S
C272 C273 1.363 . S
C272 H275 0.929 . S
C273 C272 1.363 . S
C273 C279 1.428 . S
H274 C270 0.930 . S
H275 C272 0.929 . S
S276 N277 1.613 . S
S276 N278 1.610 . S
N277 S276 1.613 . S
N277 C280 1.350 . S
N278 S276 1.610 . S
N278 C279 1.351 . S
C279 C273 1.428 . S
C279 N278 1.351 . S
C279 C280 1.434 . S
C280 C271 1.429 . S
C280 N277 1.350 . S
C280 C279 1.434 . S
C281 C282 1.369 . S
C281 C283 1.419 . S
C281 H285 0.930 . S
C282 C281 1.369 . S
C282 C291 1.429 . S
C283 C281 1.419 . S
C283 C284 1.363 . S
C283 H286 0.929 . S
C284 C283 1.363 . S
C284 C290 1.428 . S
H285 C281 0.930 . S
H286 C283 0.929 . S
S287 N288 1.613 . S
S287 N289 1.610 . S
N288 S287 1.613 . S
N288 C291 1.350 . S
N289 S287 1.610 . S
N289 C290 1.351 . S
C290 C284 1.428 . S
C290 N289 1.351 . S
C290 C291 1.434 . S
C291 C282 1.429 . S
C291 N288 1.350 . S
C291 C290 1.434 . S
C292 C293 1.369 . S
C292 C294 1.419 . S
C292 H296 0.930 . S
C293 C292 1.369 . S
C293 C302 1.429 . S
C294 C292 1.419 . S
C294 C295 1.363 . S
C294 H297 0.929 . S
C295 C294 1.363 . S
C295 C301 1.428 . S
H296 C292 0.930 . S
H297 C294 0.929 . S
S298 N299 1.613 . S
S298 N300 1.610 . S
N299 S298 1.613 . S
N299 C302 1.350 . S
N300 S298 1.610 . S
N300 C301 1.351 . S
C301 C295 1.428 . S
C301 N300 1.351 . S
C301 C302 1.434 . S
C302 C293 1.429 . S
C302 N299 1.350 . S
C302 C301 1.434 . S
C303 C304 1.369 . S
C303 C305 1.419 . S
C303 H307 0.930 1_556 S
C304 C303 1.369 . S
C304 C313 1.429 . S
C305 C303 1.419 . S
C305 C306 1.363 . S
C305 H308 0.929 . S
C306 C305 1.363 . S
C306 C312 1.428 . S
H307 C303 0.930 1_554 S
H308 C305 0.929 . S
S309 N310 1.613 . S
S309 N311 1.610 . S
N310 S309 1.613 . S
N310 C313 1.350 . S
N311 S309 1.610 . S
N311 C312 1.351 . S
C312 C306 1.428 . S
C312 N311 1.351 . S
C312 C313 1.434 . S
C313 C304 1.429 . S
C313 N310 1.350 . S
C313 C312 1.434 . S
C314 C315 1.369 . S
C314 C316 1.419 . S
C314 H318 0.930 . S
C315 C314 1.369 . S
C315 C324 1.429 . S
C316 C314 1.419 . S
C316 C317 1.363 . S
C316 H319 0.929 . S
C317 C316 1.363 . S
C317 C323 1.428 . S
H318 C314 0.930 . S
H319 C316 0.929 . S
S320 N321 1.613 . S
S320 N322 1.610 . S
N321 S320 1.613 . S
N321 C324 1.350 . S
N322 S320 1.610 . S
N322 C323 1.351 . S
C323 C317 1.428 . S
C323 N322 1.351 . S
C323 C324 1.434 . S
C324 C315 1.429 . S
C324 N321 1.350 . S
C324 C323 1.434 . S
C325 C326 1.369 . S
C325 C327 1.419 . S
C325 H329 0.930 . S
C326 C325 1.369 . S
C326 C335 1.429 . S
C327 C325 1.419 . S
C327 C328 1.363 . S
C327 H330 0.929 . S
C328 C327 1.363 . S
C328 C334 1.428 . S
H329 C325 0.930 . S
H330 C327 0.929 . S
S331 N332 1.613 . S
S331 N333 1.610 . S
N332 S331 1.613 . S
N332 C335 1.350 . S
N333 S331 1.610 . S
N333 C334 1.351 . S
C334 C328 1.428 . S
C334 N333 1.351 . S
C334 C335 1.434 . S
C335 C326 1.429 . S
C335 N332 1.350 . S
C335 C334 1.434 . S
C336 C337 1.369 1_455 S
C336 C338 1.419 1_556 S
C336 H340 0.930 . S
C337 C336 1.369 1_655 S
C337 C346 1.429 1_565 S
C338 C336 1.419 1_554 S
C338 C339 1.363 1_565 S
C338 H341 0.929 . S
C339 C338 1.363 1_545 S
C339 C345 1.428 1_455 S
H340 C336 0.930 . S
H341 C338 0.929 . S
S342 N343 1.613 . S
S342 N344 1.610 1_556 S
N343 S342 1.613 . S
N343 C346 1.350 . S
N344 S342 1.610 1_554 S
N344 C345 1.351 . S
C345 C339 1.428 1_655 S
C345 N344 1.351 . S
C345 C346 1.434 1_554 S
C346 C337 1.429 1_545 S
C346 N343 1.350 . S
C346 C345 1.434 1_556 S
C347 C348 1.369 . S
C347 C349 1.419 . S
C347 H351 0.930 . S
C348 C347 1.369 . S
C348 C357 1.429 . S
C349 C347 1.419 . S
C349 C350 1.363 . S
C349 H352 0.929 . S
C350 C349 1.363 . S
C350 C356 1.428 . S
H351 C347 0.930 . S
H352 C349 0.929 . S
S353 N354 1.613 . S
S353 N355 1.610 . S
N354 S353 1.613 . S
N354 C357 1.350 . S
N355 S353 1.610 . S
N355 C356 1.351 . S
C356 C350 1.428 . S
C356 N355 1.351 . S
C356 C357 1.434 . S
C357 C348 1.429 . S
C357 N354 1.350 . S
C357 C356 1.434 . S
C358 C359 1.369 . S
C358 C360 1.419 . S
C358 H362 0.930 . S
C359 C358 1.369 . S
C359 C368 1.429 1_545 S
C360 C358 1.419 . S
C360 C361 1.363 1_545 S
C360 H363 0.929 . S
C361 C360 1.363 1_565 S
C361 C367 1.428 . S
H362 C358 0.930 . S
H363 C360 0.929 . S
S364 N365 1.613 . S
S364 N366 1.610 . S
N365 S364 1.613 . S
N365 C368 1.350 . S
N366 S364 1.610 . S
N366 C367 1.351 . S
C367 C361 1.428 . S
C367 N366 1.351 . S
C367 C368 1.434 . S
C368 C359 1.429 1_565 S
C368 N365 1.350 . S
C368 C367 1.434 . S
C369 C370 1.369 . S
C369 C371 1.419 . S
C369 H373 0.930 . S
C370 C369 1.369 . S
C370 C379 1.429 . S
C371 C369 1.419 . S
C371 C372 1.363 . S
C371 H374 0.929 . S
C372 C371 1.363 . S
C372 C378 1.428 . S
H373 C369 0.930 . S
H374 C371 0.929 . S
S375 N376 1.613 . S
S375 N377 1.610 . S
N376 S375 1.613 . S
N376 C379 1.350 . S
N377 S375 1.610 . S
N377 C378 1.351 . S
C378 C372 1.428 . S
C378 N377 1.351 . S
C378 C379 1.434 . S
C379 C370 1.429 . S
C379 N376 1.350 . S
C379 C378 1.434 . S
C380 C381 1.369 . S
C380 C382 1.419 . S
C380 H384 0.930 . S
C381 C380 1.369 . S
C381 C390 1.429 . S
C382 C380 1.419 . S
C382 C383 1.363 . S
C382 H385 0.929 . S
C383 C382 1.363 . S
C383 C389 1.428 . S
H384 C380 0.930 . S
H385 C382 0.929 . S
S386 N387 1.613 . S
S386 N388 1.610 . S
N387 S386 1.613 . S
N387 C390 1.350 . S
N388 S386 1.610 . S
N388 C389 1.351 . S
C389 C383 1.428 . S
C389 N388 1.351 . S
C389 C390 1.434 . S
C390 C381 1.429 . S
C390 N387 1.350 . S
C390 C389 1.434 . S
C391 C392 1.369 . S
C391 C393 1.419 . S
C391 H395 0.930 . S
C392 C391 1.369 . S
C392 C401 1.429 . S
C393 C391 1.419 . S
C393 C394 1.363 . S
C393 H396 0.929 . S
C394 C393 1.363 . S
C394 C400 1.428 . S
H395 C391 0.930 . S
H396 C393 0.929 . S
S397 N398 1.613 . S
S397 N399 1.610 . S
N398 S397 1.613 . S
N398 C401 1.350 . S
N399 S397 1.610 . S
N399 C400 1.351 . S
C400 C394 1.428 . S
C400 N399 1.351 . S
C400 C401 1.434 . S
C401 C392 1.429 . S
C401 N398 1.350 . S
C401 C400 1.434 . S
C402 C403 1.369 . S
C402 C404 1.419 . S
C402 H406 0.930 . S
C403 C402 1.369 . S
C403 C412 1.429 . S
C404 C402 1.419 . S
C404 C405 1.363 . S
C404 H407 0.929 . S
C405 C404 1.363 . S
C405 C411 1.428 . S
H406 C402 0.930 . S
H407 C404 0.929 . S
S408 N409 1.613 . S
S408 N410 1.610 . S
N409 S408 1.613 . S
N409 C412 1.350 . S
N410 S408 1.610 . S
N410 C411 1.351 . S
C411 C405 1.428 . S
C411 N410 1.351 . S
C411 C412 1.434 . S
C412 C403 1.429 . S
C412 N409 1.350 . S
C412 C411 1.434 . S
C413 C414 1.369 . S
C413 C415 1.419 1_556 S
C413 H417 0.930 . S
C414 C413 1.369 . S
C414 C423 1.429 1_655 S
C415 C413 1.419 1_554 S
C415 C416 1.363 1_655 S
C415 H418 0.929 . S
C416 C415 1.363 1_455 S
C416 C422 1.428 . S
H417 C413 0.930 . S
H418 C415 0.929 . S
S419 N420 1.613 1_554 S
S419 N421 1.610 . S
N420 S419 1.613 1_556 S
N420 C423 1.350 . S
N421 S419 1.610 . S
N421 C422 1.351 . S
C422 C416 1.428 . S
C422 N421 1.351 . S
C422 C423 1.434 1_554 S
C423 C414 1.429 1_455 S
C423 N420 1.350 . S
C423 C422 1.434 1_556 S
C161 C18 1.512 . S
C163 C68 1.493 . S
C172 C8 1.239 . S
C174 C28 1.242 . S
C183 C38 1.508 . S
C185 C48 1.501 . S
C194 C58 1.718 . S
C196 C78 1.717 . S
C205 C19 1.508 . S
C207 C109 1.501 . S
C216 C9 1.238 . S
C218 C89 1.235 . S
C227 C99 1.508 . S
C229 C49 1.497 . S
C238 C119 1.718 . S
C240 C59 1.722 . S
C249 C138 1.513 . S
C251 C108 1.495 . S
C260 C88 1.240 . S
C262 C128 1.235 . S
C271 C148 1.500 . S
C273 C98 1.509 . S
C282 C118 1.719 . S
C284 C158 1.721 . S
C293 C69 1.498 . S
C295 C139 1.509 . S
C304 C129 1.242 . S
C306 C29 1.237 . S
C315 C39 1.511 . S
C317 C149 1.495 . S
C326 C79 1.718 . S
C328 C159 1.718 . S
C337 C1 1.437 1_565 S
C339 C2 1.441 1_545 S
C348 C21 1.434 . S
C350 C22 1.444 . S
C359 C41 1.516 . S
C361 C42 1.515 . S
C370 C62 1.516 . S
C372 C61 1.514 . S
C381 C81 1.445 . S
C383 C82 1.436 . S
C392 C102 1.514 . S
C394 C101 1.516 . S
C403 C122 1.445 . S
C405 C121 1.436 . S
C414 C142 1.513 . S
C416 C141 1.517 . S
