# Generated by pormake.
# Topology umx, (4)-cn, num edge types: 1
# Building blocks:
#     Node 0, Type 0, BuildingBlock: QUQFOY_clean_sbu_3, # of connection points: 4
#     Node 1, Type 0, BuildingBlock: QUQFOY_clean_sbu_3, # of connection points: 4
#     Node 2, Type 0, BuildingBlock: QUQFOY_clean_sbu_3, # of connection points: 4
#     Node 3, Type 0, BuildingBlock: QUQFOY_clean_sbu_3, # of connection points: 4
#     Node 4, Type 0, BuildingBlock: QUQFOY_clean_sbu_3, # of connection points: 4
#     Node 5, Type 0, BuildingBlock: QUQFOY_clean_sbu_3, # of connection points: 4
#     Node 6, Type 0, BuildingBlock: QUQFOY_clean_sbu_3, # of connection points: 4
#     Node 7, Type 0, BuildingBlock: QUQFOY_clean_sbu_3, # of connection points: 4
#     Edge 8, Type (0, 0), BuildingBlock: ZUJKAS_clean_linker_0, # of connection points: 2
#     Edge 9, Type (0, 0), BuildingBlock: ZUJKAS_clean_linker_0, # of connection points: 2
#     Edge 10, Type (0, 0), BuildingBlock: ZUJKAS_clean_linker_0, # of connection points: 2
#     Edge 11, Type (0, 0), BuildingBlock: ZUJKAS_clean_linker_0, # of connection points: 2
#     Edge 12, Type (0, 0), BuildingBlock: ZUJKAS_clean_linker_0, # of connection points: 2
#     Edge 13, Type (0, 0), BuildingBlock: ZUJKAS_clean_linker_0, # of connection points: 2
#     Edge 14, Type (0, 0), BuildingBlock: ZUJKAS_clean_linker_0, # of connection points: 2
#     Edge 15, Type (0, 0), BuildingBlock: ZUJKAS_clean_linker_0, # of connection points: 2
#     Edge 16, Type (0, 0), BuildingBlock: ZUJKAS_clean_linker_0, # of connection points: 2
#     Edge 17, Type (0, 0), BuildingBlock: ZUJKAS_clean_linker_0, # of connection points: 2
#     Edge 18, Type (0, 0), BuildingBlock: ZUJKAS_clean_linker_0, # of connection points: 2
#     Edge 19, Type (0, 0), BuildingBlock: ZUJKAS_clean_linker_0, # of connection points: 2
#     Edge 20, Type (0, 0), BuildingBlock: ZUJKAS_clean_linker_0, # of connection points: 2
#     Edge 21, Type (0, 0), BuildingBlock: ZUJKAS_clean_linker_0, # of connection points: 2
#     Edge 22, Type (0, 0), BuildingBlock: ZUJKAS_clean_linker_0, # of connection points: 2
#     Edge 23, Type (0, 0), BuildingBlock: ZUJKAS_clean_linker_0, # of connection points: 2
# Relax obj value: 0.078
# Max RMSD: 0.191
# Mean RMSD: 0.191
data_MOF--net-umx--node1-QUQFOY_clean_sbu_3--edge1-ZUJKAS_clean_linker_0
_symmetry_space_group_name_H-M    P1
_symmetry_Int_Tables_number       1
_symmetry_cell_setting            triclinic
loop_
_symmetry_equiv_pos_as_xyz
'x, y, z'
_cell_length_a     52.526316
_cell_length_b     52.479457
_cell_length_c     37.577277
_cell_angle_alpha  90.091811
_cell_angle_beta   90.096524
_cell_angle_gamma 90.211533
loop_
_atom_site_label
_atom_site_type_symbol
_atom_site_fract_x
_atom_site_fract_y
_atom_site_fract_z
_atom_type_partial_charge
C0 C 0.1991 0.46837 0.92315 0.0
O1 O 0.19948 0.48778 0.94338 0.0
Cd2 Cd 0.18489 0.48578 0.00399 0.0
O3 O 0.19197 0.44677 0.93501 0.0
Cd4 Cd 0.17778 0.42495 -0.01031 0.0
C5 C 0.12445 0.4609 -0.01085 0.0
O6 O 0.20445 0.44953 0.03104 0.0
O7 O 0.17699 0.42369 0.05402 0.0
O8 O 0.20559 0.3928 0.96526 0.0
C9 C 0.19468 0.4398 0.05877 0.0
O10 O 0.13904 0.47929 -0.00189 0.0
C11 C 0.19242 0.37374 0.97492 0.0
O12 O 0.13342 0.4388 0.98281 0.0
O13 O 0.17166 0.37829 -0.00898 0.0
C14 C 0.50516 0.19435 0.43172 0.0
O15 O 0.48627 0.19486 0.45273 0.0
Cd16 Cd 0.49041 0.18261 0.51424 0.0
O17 O 0.52708 0.18803 0.4431 0.0
Cd18 Cd 0.54905 0.17561 0.49831 0.0
C19 C 0.51375 0.12192 0.50267 0.0
O20 O 0.52659 0.20386 0.53967 0.0
O21 O 0.5493 0.17394 0.56285 0.0
O22 O 0.58137 0.20467 0.47718 0.0
C23 C 0.53584 0.19366 0.56741 0.0
O24 O 0.49612 0.13645 0.51389 0.0
C25 C 0.60034 0.19059 0.48391 0.0
O26 O 0.53495 0.13107 0.49207 0.0
O27 O 0.59561 0.16866 0.49669 0.0
C28 C 0.78016 0.50312 0.92583 0.0
O29 O 0.7795 0.48438 0.94712 0.0
Cd30 Cd 0.79497 0.48807 0.00688 0.0
O31 O 0.78795 0.52487 0.93641 0.0
Cd32 Cd 0.80291 0.54718 -0.00928 0.0
C33 C 0.85574 0.51105 -0.00987 0.0
O34 O 0.77508 0.52475 0.03265 0.0
O35 O 0.80529 0.54757 0.05524 0.0
O36 O 0.77593 0.57991 0.96582 0.0
C37 C 0.78572 0.53387 0.06021 0.0
O38 O 0.84106 0.49311 0.00033 0.0
C39 C 0.78923 0.59873 0.97618 0.0
O40 O 0.84689 0.53304 0.98292 0.0
O41 O 0.8097 0.59378 -0.00722 0.0
C42 C 0.46999 0.78136 0.43241 0.0
O43 O 0.48818 0.78171 0.45472 0.0
Cd44 Cd 0.48288 0.79384 0.5162 0.0
O45 O 0.44744 0.78672 0.44221 0.0
Cd46 Cd 0.42361 0.79839 0.49637 0.0
C47 C 0.45711 0.85341 0.50328 0.0
O48 O 0.4467 0.77185 0.53931 0.0
O49 O 0.42047 0.79946 0.56074 0.0
O50 O 0.3921 0.76838 0.47474 0.0
C51 C 0.4358 0.78132 0.56637 0.0
O52 O 0.47505 0.8396 0.51534 0.0
C53 C 0.37288 0.78241 0.48025 0.0
O54 O 0.43654 0.84346 0.49153 0.0
O55 O 0.37721 0.80471 0.49214 0.0
C56 C 0.19411 0.50092 0.54795 0.0
O57 O 0.19377 0.48234 0.52625 0.0
Cd58 Cd 0.17778 0.48649 0.46663 0.0
O59 O 0.18729 0.52304 0.53791 0.0
Cd60 Cd 0.17319 0.54613 0.48403 0.0
C61 C 0.11848 0.51179 0.48494 0.0
O62 O 0.19834 0.52255 0.44015 0.0
O63 O 0.17 0.54846 0.41973 0.0
O64 O 0.20386 0.5778 0.50314 0.0
C65 C 0.18802 0.53312 0.41344 0.0
O66 O 0.13217 0.49327 0.47441 0.0
C67 C 0.18967 0.59702 0.49844 0.0
O68 O 0.12846 0.53342 0.49197 0.0
O69 O 0.16704 0.59266 0.48796 0.0
C70 C 0.47569 0.19553 0.05401 0.0
O71 O 0.49486 0.19735 0.03363 0.0
Cd72 Cd 0.49282 0.18429 0.97251 0.0
O73 O 0.45426 0.1882 0.04177 0.0
Cd74 Cd 0.43365 0.17617 -0.01511 0.0
C75 C 0.46939 0.12308 -0.01645 0.0
O76 O 0.45719 0.20488 0.94505 0.0
O77 O 0.43494 0.17497 0.92051 0.0
O78 O 0.40059 0.20381 0.00712 0.0
C79 C 0.44866 0.19468 0.91678 0.0
O80 O 0.48759 0.13804 0.97525 0.0
C81 C 0.38194 0.19027 -0.00321 0.0
O82 O 0.44729 0.13178 -0.00962 0.0
O83 O 0.38716 0.16928 0.98159 0.0
C84 C 0.77357 0.4723 0.55033 0.0
O85 O 0.77313 0.49165 0.53011 0.0
Cd86 Cd 0.78834 0.4895 0.46997 0.0
O87 O 0.7809 0.45079 0.53851 0.0
Cd88 Cd 0.79521 0.42981 0.48325 0.0
C89 C 0.84869 0.46574 0.48595 0.0
O90 O 0.76909 0.45358 0.44077 0.0
O91 O 0.79954 0.43079 0.41914 0.0
O92 O 0.76512 0.39706 0.49986 0.0
C93 C 0.78048 0.44497 0.41354 0.0
O94 O 0.83425 0.484 0.47657 0.0
C95 C 0.77976 0.37824 0.49484 0.0
O96 O 0.83955 0.44361 0.49202 0.0
O97 O 0.80236 0.38325 0.48489 0.0
C98 C 0.5063 0.78034 0.05623 0.0
O99 O 0.48681 0.77994 0.0362 0.0
Cd100 Cd 0.48837 0.7933 0.97503 0.0
O101 O 0.52798 0.78662 0.0438 0.0
Cd102 Cd 0.54894 0.79868 -0.01264 0.0
C103 C 0.51492 0.85323 -0.01305 0.0
O104 O 0.52328 0.7721 0.94702 0.0
O105 O 0.5487 0.79949 0.92298 0.0
O106 O 0.58106 0.76953 0.00864 0.0
C107 C 0.53268 0.78163 0.9189 0.0
O108 O 0.496 0.83911 0.97876 0.0
C109 C 0.60012 0.78282 -0.00067 0.0
O110 O 0.53671 0.84358 -0.00671 0.0
O111 O 0.59556 0.80431 -0.01486 0.0
H112 H 0.1813 0.41801 0.12153 0.0
H113 H 0.1864 0.43577 0.18118 0.0
H114 H 0.22648 0.50044 0.13772 0.0
H115 H 0.22178 0.48254 0.07763 0.0
H116 H 0.24679 0.48094 0.20454 0.0
H117 H 0.1427 0.49843 0.20817 0.0
H118 H 0.15096 0.46605 0.19804 0.0
H119 H 0.15943 0.49105 0.16756 0.0
C120 C 0.19148 0.43586 0.12464 0.0
C121 C 0.20084 0.44908 0.09489 0.0
C122 C 0.19435 0.44597 0.15873 0.0
C123 C 0.20637 0.46961 0.16366 0.0
C124 C 0.21704 0.48221 0.13432 0.0
H125 H 0.17521 0.55845 0.353 0.0
H126 H 0.18331 0.54556 0.29162 0.0
C127 C 0.21432 0.47199 0.10008 0.0
C128 C 0.20599 0.48182 0.19912 0.0
H129 H 0.16508 0.50321 0.26268 0.0
C130 C 0.229 0.48603 0.21726 0.0
C131 C 0.18275 0.48882 0.21525 0.0
C132 C 0.15756 0.48611 0.19617 0.0
C133 C 0.22926 0.49636 0.25181 0.0
C134 C 0.20588 0.50217 0.2686 0.0
C135 C 0.18299 0.4986 0.2499 0.0
C136 C 0.20431 0.51161 0.30571 0.0
C137 C 0.25451 0.50111 0.26984 0.0
C138 C 0.21376 0.497 0.33406 0.0
C139 C 0.20933 0.50447 0.36926 0.0
C140 C 0.195 0.52642 0.37658 0.0
C141 C 0.18617 0.54135 0.34816 0.0
C142 C 0.19084 0.53404 0.31308 0.0
H143 H 0.27014 0.50314 0.25013 0.0
H144 H 0.25392 0.51855 0.28659 0.0
H145 H 0.25909 0.48467 0.28721 0.0
H146 H 0.22366 0.4793 0.32904 0.0
H147 H 0.21625 0.49254 0.39066 0.0
H148 H 0.50944 0.2366 0.58605 0.0
H149 H 0.49659 0.24968 0.64606 0.0
H150 H 0.53328 0.1832 0.68959 0.0
H151 H 0.54681 0.17056 0.63028 0.0
H152 H 0.46574 0.22591 0.68956 0.0
H153 H 0.55781 0.23581 0.75824 0.0
H154 H 0.5555 0.23391 0.71036 0.0
H155 H 0.55639 0.2053 0.73691 0.0
C156 C 0.51509 0.22503 0.60854 0.0
C157 C 0.52916 0.20258 0.60349 0.0
C158 C 0.50778 0.23254 0.64278 0.0
C159 C 0.51443 0.21773 0.67245 0.0
C160 C 0.52864 0.19543 0.66733 0.0
H161 H 0.43678 0.17292 0.85321 0.0
H162 H 0.45155 0.18531 0.79445 0.0
C163 C 0.53614 0.18806 0.63329 0.0
C164 C 0.5045 0.22383 0.70836 0.0
H165 H 0.52177 0.22336 0.79586 0.0
C166 C 0.47806 0.226 0.71275 0.0
C167 C 0.5205 0.22472 0.73867 0.0
C168 C 0.54914 0.22512 0.7357 0.0
C169 C 0.46711 0.22666 0.74674 0.0
C170 C 0.48298 0.22432 0.77701 0.0
C171 C 0.50952 0.22457 0.77266 0.0
C172 C 0.47253 0.21847 0.8127 0.0
C173 C 0.43859 0.22909 0.74977 0.0
C174 C 0.47993 0.23258 0.8428 0.0
C175 C 0.47181 0.22523 0.87675 0.0
C176 C 0.45625 0.20359 0.88106 0.0
C177 C 0.44862 0.18977 0.85081 0.0
C178 C 0.45684 0.19701 0.81707 0.0
H179 H 0.43078 0.24054 0.72744 0.0
H180 H 0.42979 0.20987 0.74822 0.0
H181 H 0.43295 0.23814 0.77528 0.0
H182 H 0.49227 0.24905 0.84006 0.0
H183 H 0.47802 0.23623 0.8996 0.0
H184 H 0.80704 0.43603 0.35284 0.0
H185 H 0.79784 0.45159 0.29322 0.0
H186 H 0.72917 0.48711 0.33158 0.0
H187 H 0.73877 0.47223 0.39199 0.0
H188 H 0.75843 0.44379 0.24839 0.0
H189 H 0.76524 0.54643 0.285 0.0
H190 H 0.77478 0.52143 0.31499 0.0
H191 H 0.7416 0.52825 0.30841 0.0
C192 C 0.78993 0.4471 0.34867 0.0
C193 C 0.77376 0.45314 0.37716 0.0
C194 C 0.78466 0.45593 0.31452 0.0
C195 C 0.76302 0.47081 0.30803 0.0
C196 C 0.74627 0.47612 0.33615 0.0
H197 H 0.74284 0.5076 0.08003 0.0
H198 H 0.7314 0.49346 0.14013 0.0
C199 C 0.75171 0.46751 0.37057 0.0
C200 C 0.75889 0.48122 0.27187 0.0
H201 H 0.75949 0.5367 0.22465 0.0
C202 C 0.75831 0.46411 0.24312 0.0
C203 C 0.75882 0.50775 0.26521 0.0
C204 C 0.76033 0.5271 0.29493 0.0
C205 C 0.75918 0.47274 0.20784 0.0
C206 C 0.75985 0.49927 0.20119 0.0
C207 C 0.75891 0.51639 0.2299 0.0
C208 C 0.76493 0.50959 0.16522 0.0
C209 C 0.7611 0.45336 0.17824 0.0
C210 C 0.78696 0.52424 0.15968 0.0
C211 C 0.79329 0.53266 0.12567 0.0
C212 C 0.77779 0.52643 0.09641 0.0
C213 C 0.75528 0.51243 0.10206 0.0
C214 C 0.74879 0.50424 0.13631 0.0
H215 H 0.76553 0.43401 0.18843 0.0
H216 H 0.74265 0.45229 0.16388 0.0
H217 H 0.77606 0.45891 0.15887 0.0
H218 H 0.79968 0.52862 0.18161 0.0
H219 H 0.81071 0.54348 0.12223 0.0
H220 H 0.55334 0.79515 0.85542 0.0
H221 H 0.53539 0.78849 0.79617 0.0
H222 H 0.4727 0.74653 0.84167 0.0
H223 H 0.49079 0.75282 0.90137 0.0
H224 H 0.49285 0.72596 0.775 0.0
H225 H 0.47069 0.82921 0.76892 0.0
H226 H 0.50341 0.82239 0.77888 0.0
H227 H 0.47898 0.81334 0.80989 0.0
C228 C 0.53589 0.78424 0.85285 0.0
C229 C 0.52327 0.77481 0.88306 0.0
C230 C 0.52567 0.78047 0.81899 0.0
C231 C 0.50253 0.76743 0.81472 0.0
C232 C 0.49054 0.75675 0.84455 0.0
H233 H 0.41019 0.79232 0.62721 0.0
H234 H 0.4241 0.78492 0.68833 0.0
C235 C 0.50087 0.76039 0.87857 0.0
C236 C 0.49009 0.76676 0.77943 0.0
H237 H 0.46609 0.80578 0.71532 0.0
C238 C 0.48679 0.74333 0.76194 0.0
C239 C 0.48186 0.78944 0.76283 0.0
C240 C 0.48366 0.81501 0.78118 0.0
C241 C 0.47611 0.74211 0.72763 0.0
C242 C 0.46895 0.76497 0.71042 0.0
C243 C 0.47169 0.78827 0.72843 0.0
C244 C 0.45887 0.76561 0.67358 0.0
C245 C 0.47242 0.71642 0.71029 0.0
C246 C 0.47356 0.75674 0.64494 0.0
C247 C 0.46551 0.76075 0.60989 0.0
C248 C 0.44288 0.77409 0.603 0.0
C249 C 0.42781 0.78213 0.63171 0.0
C250 C 0.4357 0.77787 0.66664 0.0
H251 H 0.47158 0.70092 0.73037 0.0
H252 H 0.45471 0.7159 0.69413 0.0
H253 H 0.48876 0.71254 0.69243 0.0
H254 H 0.49178 0.74776 0.64961 0.0
H255 H 0.47756 0.75447 0.58825 0.0
H256 H 0.76848 0.51623 0.58901 0.0
H257 H 0.76332 0.52 0.65351 0.0
H258 H 0.75838 0.4382 0.66216 0.0
H259 H 0.76416 0.43418 0.59791 0.0
H260 H 0.72661 0.50378 0.70235 0.0
H261 H 0.81932 0.45571 0.72484 0.0
H262 H 0.80932 0.46654 0.68151 0.0
H263 H 0.79692 0.43726 0.69939 0.0
C264 C 0.76602 0.49905 0.60459 0.0
C265 C 0.76715 0.47489 0.58845 0.0
C266 C 0.76304 0.50125 0.64141 0.0
C267 C 0.76104 0.47935 0.66261 0.0
C268 C 0.76054 0.4553 0.64632 0.0
H269 H 0.76757 0.45857 0.89199 0.0
H270 H 0.75922 0.45237 0.82851 0.0
C271 C 0.76376 0.45306 0.6096 0.0
C272 C 0.76104 0.48163 0.70185 0.0
H273 H 0.79535 0.46602 0.77582 0.0
C274 C 0.74158 0.49549 0.71847 0.0
C275 C 0.78071 0.47089 0.72274 0.0
C276 C 0.80289 0.45697 0.70627 0.0
C277 C 0.7412 0.49877 0.75557 0.0
C278 C 0.7609 0.48808 0.77632 0.0
C279 C 0.78016 0.47399 0.75975 0.0
C280 C 0.76284 0.49228 0.81512 0.0
C281 C 0.71972 0.51352 0.7723 0.0
C282 C 0.76751 0.51681 0.82851 0.0
C283 C 0.77243 0.52043 0.86469 0.0
C284 C 0.77284 0.49954 0.88811 0.0
C285 C 0.7674 0.47507 0.87471 0.0
C286 C 0.76259 0.47147 0.83848 0.0
H287 H 0.70299 0.5148 0.75426 0.0
H288 H 0.71365 0.50458 0.7977 0.0
H289 H 0.72633 0.53318 0.77825 0.0
H290 H 0.76827 0.53304 0.81076 0.0
H291 H 0.77652 0.53953 0.87412 0.0
H292 H 0.54437 0.77606 0.10554 0.0
H293 H 0.54003 0.77017 0.1697 0.0
H294 H 0.45836 0.76678 0.1584 0.0
H295 H 0.4625 0.77221 0.0941 0.0
H296 H 0.51561 0.80286 0.21424 0.0
H297 H 0.47192 0.70684 0.22385 0.0
H298 H 0.48683 0.71833 0.18366 0.0
H299 H 0.45492 0.72783 0.19466 0.0
C300 C 0.52548 0.77371 0.11659 0.0
C301 C 0.50377 0.77466 0.09466 0.0
C302 C 0.52305 0.77031 0.15328 0.0
C303 C 0.49891 0.76772 0.16877 0.0
C304 C 0.47722 0.76815 0.14692 0.0
H305 H 0.43537 0.77766 0.37821 0.0
H306 H 0.44398 0.77229 0.3148 0.0
C307 C 0.47962 0.77143 0.11017 0.0
C308 C 0.49633 0.76684 0.20801 0.0
H309 H 0.47048 0.73268 0.27638 0.0
C310 C 0.50604 0.78736 0.22789 0.0
C311 C 0.48375 0.74662 0.22569 0.0
C312 C 0.47397 0.72353 0.20591 0.0
C313 C 0.50281 0.78863 0.26487 0.0
C314 C 0.48984 0.76866 0.28247 0.0
C315 C 0.48045 0.74793 0.26273 0.0
C316 C 0.48481 0.76969 0.32116 0.0
C317 C 0.51251 0.81177 0.28467 0.0
C318 C 0.50492 0.76938 0.34576 0.0
C319 C 0.50011 0.77248 0.38209 0.0
C320 C 0.47506 0.77591 0.39439 0.0
C321 C 0.4549 0.77524 0.36968 0.0
C322 C 0.45975 0.77209 0.33342 0.0
H323 H 0.51743 0.82765 0.26637 0.0
H324 H 0.4981 0.81863 0.304 0.0
H325 H 0.52991 0.80661 0.29977 0.0
H326 H 0.52437 0.76717 0.33678 0.0
H327 H 0.51606 0.77276 0.40039 0.0
H328 H 0.20641 0.43012 0.87494 0.0
H329 H 0.21311 0.43416 0.81093 0.0
H330 H 0.21253 0.51606 0.82076 0.0
H331 H 0.20637 0.51223 0.88498 0.0
H332 H 0.17945 0.45611 0.76632 0.0
H333 H 0.27257 0.5053 0.75494 0.0
H334 H 0.26205 0.49039 0.79565 0.0
H335 H 0.25077 0.52157 0.78375 0.0
C336 C 0.20812 0.44902 0.86361 0.0
C337 C 0.20574 0.47088 0.88505 0.0
C338 C 0.21199 0.45127 0.82701 0.0
C339 C 0.21359 0.47539 0.81112 0.0
C340 C 0.21195 0.49725 0.83255 0.0
H341 H 0.19704 0.53632 0.60129 0.0
H342 H 0.20452 0.52867 0.66455 0.0
C343 C 0.20824 0.49503 0.86925 0.0
C344 C 0.21424 0.47761 0.77183 0.0
H345 H 0.24631 0.50495 0.70264 0.0
C346 C 0.19427 0.46648 0.75235 0.0
C347 C 0.23354 0.49125 0.75372 0.0
C348 C 0.25608 0.5026 0.77305 0.0
C349 C 0.19258 0.46929 0.71535 0.0
C350 C 0.21158 0.48334 0.69732 0.0
C351 C 0.23181 0.49416 0.71664 0.0
C352 C 0.20988 0.48805 0.65862 0.0
C353 C 0.16997 0.458 0.69602 0.0
C354 C 0.21112 0.46779 0.63429 0.0
C355 C 0.20677 0.47205 0.59809 0.0
C356 C 0.20117 0.49668 0.58564 0.0
C357 C 0.20111 0.51708 0.60998 0.0
C358 C 0.20547 0.51279 0.64613 0.0
H359 H 0.15458 0.45221 0.71461 0.0
H360 H 0.16207 0.47182 0.67661 0.0
H361 H 0.17611 0.44085 0.68108 0.0
H362 H 0.21485 0.4486 0.64345 0.0
H363 H 0.20715 0.45594 0.58005 0.0
H364 H 0.54224 0.20068 0.38174 0.0
H365 H 0.53683 0.20651 0.3178 0.0
H366 H 0.45525 0.20589 0.3307 0.0
H367 H 0.46046 0.20052 0.39497 0.0
H368 H 0.51313 0.17238 0.27412 0.0
H369 H 0.46581 0.26652 0.26484 0.0
H370 H 0.4816 0.25579 0.3048 0.0
H371 H 0.45015 0.24448 0.29411 0.0
C372 C 0.52312 0.20212 0.37111 0.0
C373 C 0.50176 0.20005 0.39346 0.0
C374 C 0.52008 0.20549 0.33454 0.0
C375 C 0.49566 0.20689 0.31955 0.0
C376 C 0.47428 0.20541 0.34182 0.0
H377 H 0.43834 0.19553 0.10466 0.0
H378 H 0.44356 0.20025 0.16901 0.0
C379 C 0.47729 0.20217 0.37852 0.0
C380 C 0.49272 0.20762 0.28038 0.0
H381 H 0.46695 0.24154 0.21176 0.0
C382 C 0.50323 0.18762 0.26046 0.0
C383 C 0.47966 0.22746 0.26271 0.0
C384 C 0.46884 0.24992 0.28264 0.0
C385 C 0.50072 0.18669 0.22337 0.0
C386 C 0.48761 0.20646 0.20572 0.0
C387 C 0.47705 0.22648 0.22551 0.0
C388 C 0.48428 0.20616 0.16669 0.0
C389 C 0.51161 0.16427 0.20339 0.0
C390 C 0.50541 0.20858 0.14417 0.0
C391 C 0.50254 0.20589 0.10739 0.0
C392 C 0.47845 0.20073 0.09256 0.0
C393 C 0.45718 0.19933 0.11521 0.0
C394 C 0.46008 0.2021 0.15197 0.0
H395 H 0.51655 0.14828 0.22144 0.0
H396 H 0.4979 0.15722 0.18307 0.0
H397 H 0.5292 0.17035 0.1894 0.0
H398 H 0.5242 0.212 0.15514 0.0
H399 H 0.51929 0.20722 0.09072 0.0
H400 H 0.89437 0.54561 0.97994 0.0
H401 H 0.94014 0.53689 0.97649 0.0
H402 H 0.92532 0.4566 -0.01056 0.0
H403 H 0.8797 0.46501 -0.00696 0.0
H404 H 0.96922 0.50941 0.03248 0.0
H405 H 0.97276 0.46277 0.89955 0.0
H406 H 0.94716 0.48367 0.91267 0.0
H407 H 0.94842 0.45171 0.92946 0.0
C408 C 0.90083 0.52608 0.9818 0.0
C409 C 0.88337 0.50602 -0.0132 0.0
C410 C 0.92695 0.52116 0.97984 0.0
C411 C 0.93598 0.49609 0.98233 0.0
C412 C 0.91864 0.47603 -0.01303 0.0
H413 H 0.08574 0.42582 0.98266 0.0
H414 H 0.03986 0.43427 0.98103 0.0
C415 C 0.89259 0.48093 -0.01077 0.0
C416 C 0.96362 0.49093 0.98192 0.0
H417 H 0.01049 0.46188 0.93408 0.0
C418 C 0.97833 0.49916 0.01091 0.0
C419 C 0.97524 0.47729 0.95391 0.0
C420 C 0.9602 0.46844 0.92194 0.0
C421 C 0.00443 0.49379 0.01292 0.0
C422 C 0.01621 0.48042 -0.01535 0.0
C423 C 0.00142 0.47213 0.95567 0.0
C424 C 0.04393 0.47526 -0.0155 0.0
C425 C 0.01897 0.50193 0.04573 0.0
C426 C 0.06138 0.4955 -0.01385 0.0
C427 C 0.08747 0.49075 -0.01262 0.0
C428 C 0.09672 0.46563 -0.01356 0.0
C429 C 0.07923 0.44537 -0.01645 0.0
C430 C 0.05304 0.45016 0.98261 0.0
H431 H 0.00609 0.50491 0.06878 0.0
H432 H 0.0335 0.48757 0.05319 0.0
H433 H 0.02884 0.52025 0.04034 0.0
H434 H 0.0548 0.51504 -0.01338 0.0
H435 H 0.10039 0.50684 -0.01091 0.0
H436 H 0.48576 0.88184 0.54862 0.0
H437 H 0.49402 0.92757 0.54638 0.0
H438 H 0.44684 0.93352 0.4526 0.0
H439 H 0.43738 0.8878 0.456 0.0
H440 H 0.51757 0.95427 0.49942 0.0
H441 H 0.41911 -0.00876 0.50827 0.0
H442 H 0.42652 0.95817 0.51571 0.0
H443 H 0.42344 0.97028 0.47108 0.0
C444 C 0.47687 0.89296 0.52778 0.0
C445 C 0.46081 0.88132 0.50259 0.0
C446 C 0.48167 0.9191 0.52645 0.0
C447 C 0.47085 0.93416 0.49957 0.0
C448 C 0.45485 0.92253 0.47422 0.0
H449 H 0.53455 0.08654 0.45774 0.0
H450 H 0.52436 0.04099 0.45439 0.0
C451 C 0.44955 0.89638 0.47604 0.0
C452 C 0.47727 0.96177 0.49769 0.0
H453 H 0.45147 0.02133 0.4948 0.0
C454 C 0.50308 0.96894 0.49855 0.0
C455 C 0.45842 0.98096 0.49684 0.0
C456 C 0.43034 0.97481 0.49829 0.0
C457 C 0.51056 -0.00536 0.49923 0.0
C458 C 0.49174 0.01383 0.4974 0.0
C459 C 0.46594 0.00666 0.49595 0.0
C460 C 0.49815 0.04145 0.49886 0.0
C461 C 0.53851 0.00082 0.50336 0.0
C462 C 0.48625 0.0571 0.52415 0.0
C463 C 0.49151 0.08317 0.52541 0.0
C464 C 0.50908 0.09414 0.50175 0.0
C465 C 0.52121 0.0785 0.47663 0.0
C466 C 0.51549 0.05245 0.47484 0.0
H467 H 0.54918 0.98462 0.51508 0.0
H468 H 0.54678 0.00478 0.47678 0.0
H469 H 0.54147 0.01782 0.52051 0.0
H470 H 0.47283 0.04914 0.54301 0.0
H471 H 0.4819 0.09474 0.54512 0.0
H472 H 0.08138 0.54779 0.49547 0.0
H473 H 0.03529 0.54064 0.49979 0.0
H474 H 0.04671 0.45981 0.48756 0.0
H475 H 0.09257 0.46664 0.48311 0.0
H476 H 0.00459 0.51411 0.44485 0.0
H477 H 0.00014 0.46766 0.57756 0.0
H478 H 0.0266 0.48747 0.56396 0.0
H479 H 0.02375 0.45547 0.54745 0.0
C480 C 0.0741 0.52848 0.49398 0.0
C481 C 0.09068 0.5078 0.4889 0.0
C482 C 0.04779 0.52445 0.49644 0.0
C483 C 0.03771 0.49969 0.4944 0.0
C484 C 0.05419 0.47903 0.48972 0.0
H485 H 0.88721 0.43081 0.493 0.0
H486 H 0.9331 0.43941 0.49546 0.0
C487 C 0.08039 0.48302 0.48696 0.0
C488 C 0.00987 0.49539 0.49518 0.0
H489 H 0.96242 0.46684 0.54281 0.0
C490 C -0.00472 0.50398 0.46637 0.0
C491 C -0.00205 0.48189 0.52312 0.0
C492 C 0.01281 0.4727 0.55497 0.0
C493 C 0.96906 0.49896 0.46435 0.0
C494 C 0.95703 0.48559 0.49243 0.0
C495 C 0.97166 0.47709 0.52134 0.0
C496 C 0.92925 0.48039 0.49228 0.0
C497 C 0.95468 0.50737 0.43161 0.0
C498 C 0.91188 0.50058 0.49054 0.0
C499 C 0.88577 0.49574 0.48881 0.0
C500 C 0.87641 0.47058 0.48935 0.0
C501 C 0.89379 0.45039 0.4924 0.0
C502 C 0.92001 0.45527 0.49382 0.0
H503 H 0.96763 0.51047 0.40867 0.0
H504 H 0.94002 0.4931 0.42384 0.0
H505 H 0.94498 0.52568 0.43729 0.0
H506 H 0.91854 0.52014 0.49032 0.0
H507 H 0.87293 0.51179 0.48699 0.0
H508 H 0.55128 0.89073 -0.00651 0.0
H509 H 0.54442 0.93695 -0.00456 0.0
H510 H 0.4634 0.92496 -0.01303 0.0
H511 H 0.46993 0.879 -0.01507 0.0
H512 H 0.51661 0.96649 0.94036 0.0
H513 H 0.47365 0.97321 0.07516 0.0
H514 H 0.49307 0.94659 0.06145 0.0
H515 H 0.46069 0.94893 0.04648 0.0
C516 C 0.532 0.89793 -0.00773 0.0
C517 C 0.51116 0.88116 -0.01093 0.0
C518 C 0.52813 0.9243 -0.00665 0.0
C519 C 0.5034 0.93424 -0.00825 0.0
C520 C 0.48261 0.9176 -0.01126 0.0
H521 H 0.43469 0.0842 -0.009 0.0
H522 H 0.44333 0.03836 -0.00747 0.0
C523 C 0.48643 0.89132 -0.01261 0.0
C524 C 0.49918 0.96207 -0.00824 0.0
H525 H 0.47195 0.01025 0.03926 0.0
C526 C 0.50704 0.97616 0.96206 0.0
C527 C 0.48644 0.97443 0.01998 0.0
C528 C 0.4781 0.96013 0.05276 0.0
C529 C 0.50201 0.00233 0.95946 0.0
C530 C 0.48935 0.01479 -0.01221 0.0
C531 C 0.48162 0.00066 0.01758 0.0
C532 C 0.48415 0.04253 -0.01287 0.0
C533 C 0.50961 0.0162 0.92593 0.0
C534 C 0.50426 0.06004 -0.01581 0.0
C535 C 0.49939 0.08615 0.98303 0.0
C536 C 0.47431 0.09533 -0.0147 0.0
C537 C 0.45421 0.07776 -0.01091 0.0
C538 C 0.45911 0.05158 -0.01001 0.0
H539 H 0.51214 0.00284 0.90324 0.0
H540 H 0.49518 0.03064 0.91841 0.0
H541 H 0.52802 0.02612 0.93045 0.0
H542 H 0.52378 0.05352 0.98291 0.0
H543 H 0.51536 0.09912 0.98052 0.0
H544 H 0.22167 0.35603 0.92102 0.0
H545 H 0.24596 0.31645 0.92011 0.0
H546 H 0.21214 0.29449 0.02015 0.0
H547 H 0.18672 0.33347 0.01998 0.0
H548 H 0.28085 0.30942 0.96669 0.0
H549 H 0.21632 0.22615 0.9739 0.0
H550 H 0.20519 0.25755 0.96211 0.0
H551 H 0.20949 0.24896 0.00812 0.0
C552 C 0.21877 0.34229 0.94213 0.0
C553 C 0.20246 0.34776 0.97063 0.0
C554 C 0.23265 0.31968 0.94164 0.0
C555 C 0.23094 0.30239 0.97006 0.0
C556 C 0.21342 0.30714 -0.0025 0.0
H557 H 0.36363 0.22452 0.04438 0.0
H558 H 0.32388 0.24833 0.03989 0.0
C559 C 0.19899 0.32952 -0.00249 0.0
C560 C 0.25047 0.28215 0.97383 0.0
H561 H 0.25984 0.2191 -0.00749 0.0
C562 C 0.27612 0.28962 0.97182 0.0
C563 C 0.24445 0.25626 0.98049 0.0
C564 C 0.21735 0.24671 0.98091 0.0
C565 C 0.29585 0.27219 0.97685 0.0
C566 C 0.28989 0.24664 -0.0145 0.0
C567 C 0.26431 0.23884 -0.01342 0.0
C568 C 0.31036 0.22815 -0.00675 0.0
C569 C 0.32298 0.28137 0.97264 0.0
C570 C 0.31498 0.20768 0.97009 0.0
C571 C 0.33753 0.19368 0.97303 0.0
C572 C 0.35577 0.20024 -0.00107 0.0
C573 C 0.35003 0.21929 0.0239 0.0
C574 C 0.32737 0.23292 0.02133 0.0
H575 H 0.32405 0.29911 0.95659 0.0
H576 H 0.33113 0.28558 -0.00072 0.0
H577 H 0.33496 0.26665 0.95968 0.0
H578 H 0.302 0.20364 0.94834 0.0
H579 H 0.34152 0.17907 0.95344 0.0
H580 H 0.73512 0.36329 0.52463 0.0
H581 H 0.71624 0.32092 0.52441 0.0
H582 H 0.78301 0.2909 0.47276 0.0
H583 H 0.80215 0.33372 0.47262 0.0
H584 H 0.73878 0.27804 0.43814 0.0
H585 H 0.72828 0.25635 0.58076 0.0
H586 H 0.71656 0.28767 0.57149 0.0
H587 H 0.74979 0.28071 0.56475 0.0
C588 C 0.74606 0.34764 0.51378 0.0
C589 C 0.77011 0.35187 0.49855 0.0
C590 C 0.73531 0.32334 0.51397 0.0
C591 C 0.74838 0.30263 0.49912 0.0
C592 C 0.77273 0.30658 0.48471 0.0
H593 H 0.64477 0.17107 0.51102 0.0
H594 H 0.68681 0.19175 0.5112 0.0
C595 C 0.78363 0.33101 0.48469 0.0
C596 C 0.73499 0.27786 0.49525 0.0
H597 H 0.69582 0.23793 0.54141 0.0
C598 C 0.72997 0.26877 0.46079 0.0
C599 C 0.72392 0.26534 0.52475 0.0
C600 C 0.73017 0.27289 0.56252 0.0
C601 C 0.71213 0.24922 0.45491 0.0
C602 C 0.69874 0.23889 0.4842 0.0
C603 C 0.70575 0.24613 0.51885 0.0
C604 C 0.67494 0.22397 0.47944 0.0
C605 C 0.70695 0.24067 0.41725 0.0
C606 C 0.65444 0.23506 0.46123 0.0
C607 C 0.63056 0.22342 0.46122 0.0
C608 C 0.62656 0.20046 0.47958 0.0
C609 C 0.64732 0.1887 0.4965 0.0
C610 C 0.67131 0.2005 0.49666 0.0
H611 H 0.72434 0.24242 0.40063 0.0
H612 H 0.70012 0.22063 0.4163 0.0
H613 H 0.69215 0.25309 0.40535 0.0
H614 H 0.65655 0.25346 0.44853 0.0
H615 H 0.61496 0.23298 0.44795 0.0
H616 H 0.76112 0.61744 0.92169 0.0
H617 H 0.73696 0.65711 0.9213 0.0
H618 H 0.76909 0.67729 0.02338 0.0
H619 H 0.79442 0.63827 0.02272 0.0
H620 H 0.70129 0.66333 0.96662 0.0
H621 H 0.76556 0.74642 0.97998 0.0
H622 H 0.77696 0.71526 0.9674 0.0
H623 H 0.77182 0.72302 0.01355 0.0
C624 C 0.76371 0.63084 0.94337 0.0
C625 C 0.7795 0.62485 0.97228 0.0
C626 C 0.7499 0.65349 0.94318 0.0
C627 C 0.75112 0.67028 0.97231 0.0
C628 C 0.76819 0.66505 0.00021 0.0
H629 H 0.61708 0.74665 0.04505 0.0
H630 H 0.65665 0.72254 0.04064 0.0
C631 C 0.78256 0.64264 -6e-05 0.0
C632 C 0.73151 0.69043 0.97618 0.0
H633 H 0.72175 0.75303 -0.00254 0.0
C634 C 0.70591 0.68301 0.97284 0.0
C635 C 0.73738 0.71617 -0.01574 0.0
C636 C 0.76445 0.72574 -0.01387 0.0
C637 C 0.68608 0.70031 0.97793 0.0
C638 C 0.69185 0.72565 -0.01198 0.0
C639 C 0.7174 0.73344 -0.00957 0.0
C640 C 0.67125 0.74398 -0.00409 0.0
C641 C 0.65905 0.69122 0.97219 0.0
C642 C 0.66727 0.76518 0.9739 0.0
C643 C 0.64481 0.77934 0.97684 0.0
C644 C 0.62604 0.77222 0.00157 0.0
C645 C 0.63109 0.75232 0.02545 0.0
C646 C 0.65365 0.73851 0.02291 0.0
H647 H 0.65829 0.67392 0.95512 0.0
H648 H 0.65047 0.68628 -0.00174 0.0
H649 H 0.64725 0.70624 0.95962 0.0
H650 H 0.68071 0.76977 0.95301 0.0
H651 H 0.64138 0.79462 0.95811 0.0
H652 H 0.35885 0.73843 0.44724 0.0
H653 H 0.31738 0.71762 0.44885 0.0
H654 H 0.28634 0.7816 0.50621 0.0
H655 H 0.32816 0.80263 0.50493 0.0
H656 H 0.27793 0.73614 0.53988 0.0
H657 H 0.24952 0.727 0.39911 0.0
H658 H 0.28174 0.71672 0.40522 0.0
H659 H 0.27351 0.74947 0.41378 0.0
C660 C 0.3431 0.74839 0.4595 0.0
C661 C 0.3468 0.77213 0.47607 0.0
C662 C 0.3193 0.73654 0.46014 0.0
C663 C 0.29865 0.74819 0.47722 0.0
C664 C 0.30198 0.77239 0.49259 0.0
H665 H 0.16866 0.6419 0.47547 0.0
H666 H 0.18931 0.68396 0.47425 0.0
C667 C 0.32585 0.78439 0.49177 0.0
C668 C 0.27489 0.7334 0.48277 0.0
H669 H 0.23407 0.69357 0.43891 0.0
C670 C 0.26784 0.72737 0.51779 0.0
C671 C 0.26137 0.7223 0.45406 0.0
C672 C 0.26677 0.72945 0.41595 0.0
C673 C 0.2493 0.70873 0.52476 0.0
C674 C 0.23785 0.69559 0.49598 0.0
C675 C 0.24312 0.70337 0.46102 0.0
C676 C 0.22349 0.67152 0.50123 0.0
C677 C 0.24296 0.70251 0.56291 0.0
C678 C 0.23575 0.65072 0.51709 0.0
C679 C 0.22412 0.6268 0.51768 0.0
C680 C 0.19999 0.62313 0.50229 0.0
C681 C 0.18721 0.64419 0.4877 0.0
C682 C 0.19898 0.66819 0.48692 0.0
H683 H 0.24556 0.71947 0.58031 0.0
H684 H 0.22308 0.69551 0.56557 0.0
H685 H 0.25603 0.68746 0.57258 0.0
H686 H 0.2549 0.65266 0.52753 0.0
H687 H 0.23449 0.61097 0.52908 0.0
loop_
_geom_bond_atom_site_label_1
_geom_bond_atom_site_label_2
_geom_bond_distance
_geom_bond_site_symmetry_2
_ccdc_geom_bond_type
C0 O1 1.306 . S
C0 O3 1.160 . S
O1 C0 1.306 . S
O1 Cd2 2.228 1_556 S
Cd2 O1 2.228 1_554 S
Cd2 O6 2.273 . S
Cd2 O10 2.277 . S
O3 C0 1.160 . S
O3 Cd4 2.203 1_556 S
Cd4 O3 2.203 1_554 S
Cd4 O6 2.411 . S
Cd4 O7 2.333 . S
Cd4 O8 2.352 . S
Cd4 O12 2.277 . S
Cd4 O13 2.356 . S
C5 O10 1.209 . S
C5 O12 1.226 . S
O6 Cd2 2.273 . S
O6 Cd4 2.411 . S
O6 C9 1.320 . S
O7 Cd4 2.333 . S
O7 C9 1.214 . S
O8 Cd4 2.352 . S
O8 C11 1.258 . S
C9 O6 1.320 . S
C9 O7 1.214 . S
O10 Cd2 2.277 . S
O10 C5 1.209 . S
C11 O8 1.258 . S
C11 O13 1.282 . S
O12 Cd4 2.277 . S
O12 C5 1.226 . S
O13 Cd4 2.356 . S
O13 C11 1.282 . S
C14 O15 1.306 . S
C14 O17 1.160 . S
O15 C14 1.306 . S
O15 Cd16 2.228 . S
Cd16 O15 2.228 . S
Cd16 O20 2.273 . S
Cd16 O24 2.277 . S
O17 C14 1.160 . S
O17 Cd18 2.203 . S
Cd18 O17 2.203 . S
Cd18 O20 2.411 . S
Cd18 O21 2.333 . S
Cd18 O22 2.352 . S
Cd18 O26 2.277 . S
Cd18 O27 2.356 . S
C19 O24 1.209 . S
C19 O26 1.226 . S
O20 Cd16 2.273 . S
O20 Cd18 2.411 . S
O20 C23 1.320 . S
O21 Cd18 2.333 . S
O21 C23 1.214 . S
O22 Cd18 2.352 . S
O22 C25 1.258 . S
C23 O20 1.320 . S
C23 O21 1.214 . S
O24 Cd16 2.277 . S
O24 C19 1.209 . S
C25 O22 1.258 . S
C25 O27 1.282 . S
O26 Cd18 2.277 . S
O26 C19 1.226 . S
O27 Cd18 2.356 . S
O27 C25 1.282 . S
C28 O29 1.306 . S
C28 O31 1.160 . S
O29 C28 1.306 . S
O29 Cd30 2.228 1_556 S
Cd30 O29 2.228 1_554 S
Cd30 O34 2.273 . S
Cd30 O38 2.277 . S
O31 C28 1.160 . S
O31 Cd32 2.203 1_556 S
Cd32 O31 2.203 1_554 S
Cd32 O34 2.411 . S
Cd32 O35 2.333 . S
Cd32 O36 2.352 . S
Cd32 O40 2.277 . S
Cd32 O41 2.356 . S
C33 O38 1.209 . S
C33 O40 1.226 . S
O34 Cd30 2.273 . S
O34 Cd32 2.411 . S
O34 C37 1.320 . S
O35 Cd32 2.333 . S
O35 C37 1.214 . S
O36 Cd32 2.352 . S
O36 C39 1.258 . S
C37 O34 1.320 . S
C37 O35 1.214 . S
O38 Cd30 2.277 . S
O38 C33 1.209 . S
C39 O36 1.258 . S
C39 O41 1.282 . S
O40 Cd32 2.277 . S
O40 C33 1.226 . S
O41 Cd32 2.356 . S
O41 C39 1.282 . S
C42 O43 1.306 . S
C42 O45 1.160 . S
O43 C42 1.306 . S
O43 Cd44 2.228 . S
Cd44 O43 2.228 . S
Cd44 O48 2.273 . S
Cd44 O52 2.277 . S
O45 C42 1.160 . S
O45 Cd46 2.203 . S
Cd46 O45 2.203 . S
Cd46 O48 2.411 . S
Cd46 O49 2.333 . S
Cd46 O50 2.352 . S
Cd46 O54 2.277 . S
Cd46 O55 2.356 . S
C47 O52 1.209 . S
C47 O54 1.226 . S
O48 Cd44 2.273 . S
O48 Cd46 2.411 . S
O48 C51 1.320 . S
O49 Cd46 2.333 . S
O49 C51 1.214 . S
O50 Cd46 2.352 . S
O50 C53 1.258 . S
C51 O48 1.320 . S
C51 O49 1.214 . S
O52 Cd44 2.277 . S
O52 C47 1.209 . S
C53 O50 1.258 . S
C53 O55 1.282 . S
O54 Cd46 2.277 . S
O54 C47 1.226 . S
O55 Cd46 2.356 . S
O55 C53 1.282 . S
C56 O57 1.306 . S
C56 O59 1.160 . S
O57 C56 1.306 . S
O57 Cd58 2.228 . S
Cd58 O57 2.228 . S
Cd58 O62 2.273 . S
Cd58 O66 2.277 . S
O59 C56 1.160 . S
O59 Cd60 2.203 . S
Cd60 O59 2.203 . S
Cd60 O62 2.411 . S
Cd60 O63 2.333 . S
Cd60 O64 2.352 . S
Cd60 O68 2.277 . S
Cd60 O69 2.356 . S
C61 O66 1.209 . S
C61 O68 1.226 . S
O62 Cd58 2.273 . S
O62 Cd60 2.411 . S
O62 C65 1.320 . S
O63 Cd60 2.333 . S
O63 C65 1.214 . S
O64 Cd60 2.352 . S
O64 C67 1.258 . S
C65 O62 1.320 . S
C65 O63 1.214 . S
O66 Cd58 2.277 . S
O66 C61 1.209 . S
C67 O64 1.258 . S
C67 O69 1.282 . S
O68 Cd60 2.277 . S
O68 C61 1.226 . S
O69 Cd60 2.356 . S
O69 C67 1.282 . S
C70 O71 1.306 . S
C70 O73 1.160 . S
O71 C70 1.306 . S
O71 Cd72 2.228 . S
Cd72 O71 2.228 . S
Cd72 O76 2.273 1_554 S
Cd72 O80 2.277 . S
O73 C70 1.160 . S
O73 Cd74 2.203 . S
Cd74 O73 2.203 . S
Cd74 O76 2.411 1_554 S
Cd74 O77 2.333 1_554 S
Cd74 O78 2.352 . S
Cd74 O82 2.277 . S
Cd74 O83 2.356 1_554 S
C75 O80 1.209 . S
C75 O82 1.226 . S
O76 Cd72 2.273 1_556 S
O76 Cd74 2.411 1_556 S
O76 C79 1.320 . S
O77 Cd74 2.333 1_556 S
O77 C79 1.214 . S
O78 Cd74 2.352 . S
O78 C81 1.258 . S
C79 O76 1.320 . S
C79 O77 1.214 . S
O80 Cd72 2.277 . S
O80 C75 1.209 . S
C81 O78 1.258 . S
C81 O83 1.282 1_554 S
O82 Cd74 2.277 . S
O82 C75 1.226 . S
O83 Cd74 2.356 1_556 S
O83 C81 1.282 1_556 S
C84 O85 1.306 . S
C84 O87 1.160 . S
O85 C84 1.306 . S
O85 Cd86 2.228 . S
Cd86 O85 2.228 . S
Cd86 O90 2.273 . S
Cd86 O94 2.277 . S
O87 C84 1.160 . S
O87 Cd88 2.203 . S
Cd88 O87 2.203 . S
Cd88 O90 2.411 . S
Cd88 O91 2.333 . S
Cd88 O92 2.352 . S
Cd88 O96 2.277 . S
Cd88 O97 2.356 . S
C89 O94 1.209 . S
C89 O96 1.226 . S
O90 Cd86 2.273 . S
O90 Cd88 2.411 . S
O90 C93 1.320 . S
O91 Cd88 2.333 . S
O91 C93 1.214 . S
O92 Cd88 2.352 . S
O92 C95 1.258 . S
C93 O90 1.320 . S
C93 O91 1.214 . S
O94 Cd86 2.277 . S
O94 C89 1.209 . S
C95 O92 1.258 . S
C95 O97 1.282 . S
O96 Cd88 2.277 . S
O96 C89 1.226 . S
O97 Cd88 2.356 . S
O97 C95 1.282 . S
C98 O99 1.306 . S
C98 O101 1.160 . S
O99 C98 1.306 . S
O99 Cd100 2.228 . S
Cd100 O99 2.228 . S
Cd100 O104 2.273 1_554 S
Cd100 O108 2.277 . S
O101 C98 1.160 . S
O101 Cd102 2.203 . S
Cd102 O101 2.203 . S
Cd102 O104 2.411 1_554 S
Cd102 O105 2.333 1_554 S
Cd102 O106 2.352 . S
Cd102 O110 2.277 . S
Cd102 O111 2.356 1_554 S
C103 O108 1.209 . S
C103 O110 1.226 . S
O104 Cd100 2.273 1_556 S
O104 Cd102 2.411 1_556 S
O104 C107 1.320 . S
O105 Cd102 2.333 1_556 S
O105 C107 1.214 . S
O106 Cd102 2.352 . S
O106 C109 1.258 . S
C107 O104 1.320 . S
C107 O105 1.214 . S
O108 Cd100 2.277 . S
O108 C103 1.209 . S
C109 O106 1.258 . S
C109 O111 1.282 1_554 S
O110 Cd102 2.277 . S
O110 C103 1.226 . S
O111 Cd102 2.356 1_556 S
O111 C109 1.282 1_556 S
H112 C120 0.929 . S
H113 C122 0.930 . S
H114 C124 0.930 . S
H115 C127 0.929 . S
H116 C130 0.930 . S
H117 C132 0.960 . S
H118 C132 0.960 . S
H119 C132 0.960 . S
C120 H112 0.929 . S
C120 C121 1.377 . S
C120 C122 1.384 . S
C121 C120 1.377 . S
C121 C127 1.390 . S
C122 H113 0.930 . S
C122 C120 1.384 . S
C122 C123 1.372 . S
C123 C122 1.372 . S
C123 C124 1.400 . S
C123 C128 1.490 . S
C124 H114 0.930 . S
C124 C123 1.400 . S
C124 C127 1.386 . S
H125 C141 0.930 . S
H126 C142 0.931 . S
C127 H115 0.929 . S
C127 C121 1.390 . S
C127 C124 1.386 . S
C128 C123 1.490 . S
C128 C130 1.395 . S
C128 C131 1.403 . S
H129 C135 0.930 . S
C130 H116 0.930 . S
C130 C128 1.395 . S
C130 C133 1.403 . S
C131 C128 1.403 . S
C131 C132 1.524 . S
C131 C135 1.400 . S
C132 H117 0.960 . S
C132 H118 0.960 . S
C132 H119 0.960 . S
C132 C131 1.524 . S
C133 C130 1.403 . S
C133 C134 1.392 . S
C133 C137 1.495 . S
C134 C133 1.392 . S
C134 C135 1.385 . S
C134 C136 1.478 . S
C135 H129 0.930 . S
C135 C131 1.400 . S
C135 C134 1.385 . S
C136 C134 1.478 . S
C136 C138 1.381 . S
C136 C142 1.383 . S
C137 C133 1.495 . S
C137 H143 0.959 . S
C137 H144 0.961 . S
C137 H145 0.960 . S
C138 C136 1.381 . S
C138 C139 1.394 . S
C138 H146 0.930 . S
C139 C138 1.394 . S
C139 C140 1.383 . S
C139 H147 0.929 . S
C140 C139 1.383 . S
C140 C141 1.377 . S
C141 H125 0.930 . S
C141 C140 1.377 . S
C141 C142 1.379 . S
C142 H126 0.931 . S
C142 C136 1.383 . S
C142 C141 1.379 . S
H143 C137 0.959 . S
H144 C137 0.961 . S
H145 C137 0.960 . S
H146 C138 0.930 . S
H147 C139 0.929 . S
H148 C156 0.929 . S
H149 C158 0.930 . S
H150 C160 0.930 . S
H151 C163 0.929 . S
H152 C166 0.930 . S
H153 C168 0.960 . S
H154 C168 0.960 . S
H155 C168 0.960 . S
C156 H148 0.929 . S
C156 C157 1.377 . S
C156 C158 1.384 . S
C157 C156 1.377 . S
C157 C163 1.390 . S
C158 H149 0.930 . S
C158 C156 1.384 . S
C158 C159 1.372 . S
C159 C158 1.372 . S
C159 C160 1.400 . S
C159 C164 1.490 . S
C160 H150 0.930 . S
C160 C159 1.400 . S
C160 C163 1.386 . S
H161 C177 0.930 . S
H162 C178 0.931 . S
C163 H151 0.929 . S
C163 C157 1.390 . S
C163 C160 1.386 . S
C164 C159 1.490 . S
C164 C166 1.395 . S
C164 C167 1.403 . S
H165 C171 0.930 . S
C166 H152 0.930 . S
C166 C164 1.395 . S
C166 C169 1.403 . S
C167 C164 1.403 . S
C167 C168 1.524 . S
C167 C171 1.400 . S
C168 H153 0.960 . S
C168 H154 0.960 . S
C168 H155 0.960 . S
C168 C167 1.524 . S
C169 C166 1.403 . S
C169 C170 1.392 . S
C169 C173 1.495 . S
C170 C169 1.392 . S
C170 C171 1.385 . S
C170 C172 1.478 . S
C171 H165 0.930 . S
C171 C167 1.400 . S
C171 C170 1.385 . S
C172 C170 1.478 . S
C172 C174 1.381 . S
C172 C178 1.383 . S
C173 C169 1.495 . S
C173 H179 0.959 . S
C173 H180 0.961 . S
C173 H181 0.960 . S
C174 C172 1.381 . S
C174 C175 1.394 . S
C174 H182 0.930 . S
C175 C174 1.394 . S
C175 C176 1.383 . S
C175 H183 0.929 . S
C176 C175 1.383 . S
C176 C177 1.377 . S
C177 H161 0.930 . S
C177 C176 1.377 . S
C177 C178 1.379 . S
C178 H162 0.931 . S
C178 C172 1.383 . S
C178 C177 1.379 . S
H179 C173 0.959 . S
H180 C173 0.961 . S
H181 C173 0.960 . S
H182 C174 0.930 . S
H183 C175 0.929 . S
H184 C192 0.929 . S
H185 C194 0.930 . S
H186 C196 0.930 . S
H187 C199 0.929 . S
H188 C202 0.930 . S
H189 C204 0.960 . S
H190 C204 0.960 . S
H191 C204 0.960 . S
C192 H184 0.929 . S
C192 C193 1.377 . S
C192 C194 1.384 . S
C193 C192 1.377 . S
C193 C199 1.390 . S
C194 H185 0.930 . S
C194 C192 1.384 . S
C194 C195 1.372 . S
C195 C194 1.372 . S
C195 C196 1.400 . S
C195 C200 1.490 . S
C196 H186 0.930 . S
C196 C195 1.400 . S
C196 C199 1.386 . S
H197 C213 0.930 . S
H198 C214 0.931 . S
C199 H187 0.929 . S
C199 C193 1.390 . S
C199 C196 1.386 . S
C200 C195 1.490 . S
C200 C202 1.395 . S
C200 C203 1.403 . S
H201 C207 0.930 . S
C202 H188 0.930 . S
C202 C200 1.395 . S
C202 C205 1.403 . S
C203 C200 1.403 . S
C203 C204 1.524 . S
C203 C207 1.400 . S
C204 H189 0.960 . S
C204 H190 0.960 . S
C204 H191 0.960 . S
C204 C203 1.524 . S
C205 C202 1.403 . S
C205 C206 1.392 . S
C205 C209 1.495 . S
C206 C205 1.392 . S
C206 C207 1.385 . S
C206 C208 1.478 . S
C207 H201 0.930 . S
C207 C203 1.400 . S
C207 C206 1.385 . S
C208 C206 1.478 . S
C208 C210 1.381 . S
C208 C214 1.383 . S
C209 C205 1.495 . S
C209 H215 0.959 . S
C209 H216 0.961 . S
C209 H217 0.960 . S
C210 C208 1.381 . S
C210 C211 1.394 . S
C210 H218 0.930 . S
C211 C210 1.394 . S
C211 C212 1.383 . S
C211 H219 0.929 . S
C212 C211 1.383 . S
C212 C213 1.377 . S
C213 H197 0.930 . S
C213 C212 1.377 . S
C213 C214 1.379 . S
C214 H198 0.931 . S
C214 C208 1.383 . S
C214 C213 1.379 . S
H215 C209 0.959 . S
H216 C209 0.961 . S
H217 C209 0.960 . S
H218 C210 0.930 . S
H219 C211 0.929 . S
H220 C228 0.929 . S
H221 C230 0.930 . S
H222 C232 0.930 . S
H223 C235 0.929 . S
H224 C238 0.930 . S
H225 C240 0.960 . S
H226 C240 0.960 . S
H227 C240 0.960 . S
C228 H220 0.929 . S
C228 C229 1.377 . S
C228 C230 1.384 . S
C229 C228 1.377 . S
C229 C235 1.390 . S
C230 H221 0.930 . S
C230 C228 1.384 . S
C230 C231 1.372 . S
C231 C230 1.372 . S
C231 C232 1.400 . S
C231 C236 1.490 . S
C232 H222 0.930 . S
C232 C231 1.400 . S
C232 C235 1.386 . S
H233 C249 0.930 . S
H234 C250 0.931 . S
C235 H223 0.929 . S
C235 C229 1.390 . S
C235 C232 1.386 . S
C236 C231 1.490 . S
C236 C238 1.395 . S
C236 C239 1.403 . S
H237 C243 0.930 . S
C238 H224 0.930 . S
C238 C236 1.395 . S
C238 C241 1.403 . S
C239 C236 1.403 . S
C239 C240 1.524 . S
C239 C243 1.400 . S
C240 H225 0.960 . S
C240 H226 0.960 . S
C240 H227 0.960 . S
C240 C239 1.524 . S
C241 C238 1.403 . S
C241 C242 1.392 . S
C241 C245 1.495 . S
C242 C241 1.392 . S
C242 C243 1.385 . S
C242 C244 1.478 . S
C243 H237 0.930 . S
C243 C239 1.400 . S
C243 C242 1.385 . S
C244 C242 1.478 . S
C244 C246 1.381 . S
C244 C250 1.383 . S
C245 C241 1.495 . S
C245 H251 0.959 . S
C245 H252 0.961 . S
C245 H253 0.960 . S
C246 C244 1.381 . S
C246 C247 1.394 . S
C246 H254 0.930 . S
C247 C246 1.394 . S
C247 C248 1.383 . S
C247 H255 0.929 . S
C248 C247 1.383 . S
C248 C249 1.377 . S
C249 H233 0.930 . S
C249 C248 1.377 . S
C249 C250 1.379 . S
C250 H234 0.931 . S
C250 C244 1.383 . S
C250 C249 1.379 . S
H251 C245 0.959 . S
H252 C245 0.961 . S
H253 C245 0.960 . S
H254 C246 0.930 . S
H255 C247 0.929 . S
H256 C264 0.929 . S
H257 C266 0.930 . S
H258 C268 0.930 . S
H259 C271 0.929 . S
H260 C274 0.930 . S
H261 C276 0.960 . S
H262 C276 0.960 . S
H263 C276 0.960 . S
C264 H256 0.929 . S
C264 C265 1.377 . S
C264 C266 1.384 . S
C265 C264 1.377 . S
C265 C271 1.390 . S
C266 H257 0.930 . S
C266 C264 1.384 . S
C266 C267 1.372 . S
C267 C266 1.372 . S
C267 C268 1.400 . S
C267 C272 1.490 . S
C268 H258 0.930 . S
C268 C267 1.400 . S
C268 C271 1.386 . S
H269 C285 0.930 . S
H270 C286 0.931 . S
C271 H259 0.929 . S
C271 C265 1.390 . S
C271 C268 1.386 . S
C272 C267 1.490 . S
C272 C274 1.395 . S
C272 C275 1.403 . S
H273 C279 0.930 . S
C274 H260 0.930 . S
C274 C272 1.395 . S
C274 C277 1.403 . S
C275 C272 1.403 . S
C275 C276 1.524 . S
C275 C279 1.400 . S
C276 H261 0.960 . S
C276 H262 0.960 . S
C276 H263 0.960 . S
C276 C275 1.524 . S
C277 C274 1.403 . S
C277 C278 1.392 . S
C277 C281 1.495 . S
C278 C277 1.392 . S
C278 C279 1.385 . S
C278 C280 1.478 . S
C279 H273 0.930 . S
C279 C275 1.400 . S
C279 C278 1.385 . S
C280 C278 1.478 . S
C280 C282 1.381 . S
C280 C286 1.383 . S
C281 C277 1.495 . S
C281 H287 0.959 . S
C281 H288 0.961 . S
C281 H289 0.960 . S
C282 C280 1.381 . S
C282 C283 1.394 . S
C282 H290 0.930 . S
C283 C282 1.394 . S
C283 C284 1.383 . S
C283 H291 0.929 . S
C284 C283 1.383 . S
C284 C285 1.377 . S
C285 H269 0.930 . S
C285 C284 1.377 . S
C285 C286 1.379 . S
C286 H270 0.931 . S
C286 C280 1.383 . S
C286 C285 1.379 . S
H287 C281 0.959 . S
H288 C281 0.961 . S
H289 C281 0.960 . S
H290 C282 0.930 . S
H291 C283 0.929 . S
H292 C300 0.929 . S
H293 C302 0.930 . S
H294 C304 0.930 . S
H295 C307 0.929 . S
H296 C310 0.930 . S
H297 C312 0.960 . S
H298 C312 0.960 . S
H299 C312 0.960 . S
C300 H292 0.929 . S
C300 C301 1.377 . S
C300 C302 1.384 . S
C301 C300 1.377 . S
C301 C307 1.390 . S
C302 H293 0.930 . S
C302 C300 1.384 . S
C302 C303 1.372 . S
C303 C302 1.372 . S
C303 C304 1.400 . S
C303 C308 1.490 . S
C304 H294 0.930 . S
C304 C303 1.400 . S
C304 C307 1.386 . S
H305 C321 0.930 . S
H306 C322 0.931 . S
C307 H295 0.929 . S
C307 C301 1.390 . S
C307 C304 1.386 . S
C308 C303 1.490 . S
C308 C310 1.395 . S
C308 C311 1.403 . S
H309 C315 0.930 . S
C310 H296 0.930 . S
C310 C308 1.395 . S
C310 C313 1.403 . S
C311 C308 1.403 . S
C311 C312 1.524 . S
C311 C315 1.400 . S
C312 H297 0.960 . S
C312 H298 0.960 . S
C312 H299 0.960 . S
C312 C311 1.524 . S
C313 C310 1.403 . S
C313 C314 1.392 . S
C313 C317 1.495 . S
C314 C313 1.392 . S
C314 C315 1.385 . S
C314 C316 1.478 . S
C315 H309 0.930 . S
C315 C311 1.400 . S
C315 C314 1.385 . S
C316 C314 1.478 . S
C316 C318 1.381 . S
C316 C322 1.383 . S
C317 C313 1.495 . S
C317 H323 0.959 . S
C317 H324 0.961 . S
C317 H325 0.960 . S
C318 C316 1.381 . S
C318 C319 1.394 . S
C318 H326 0.930 . S
C319 C318 1.394 . S
C319 C320 1.383 . S
C319 H327 0.929 . S
C320 C319 1.383 . S
C320 C321 1.377 . S
C321 H305 0.930 . S
C321 C320 1.377 . S
C321 C322 1.379 . S
C322 H306 0.931 . S
C322 C316 1.383 . S
C322 C321 1.379 . S
H323 C317 0.959 . S
H324 C317 0.961 . S
H325 C317 0.960 . S
H326 C318 0.930 . S
H327 C319 0.929 . S
H328 C336 0.929 . S
H329 C338 0.930 . S
H330 C340 0.930 . S
H331 C343 0.929 . S
H332 C346 0.930 . S
H333 C348 0.960 . S
H334 C348 0.960 . S
H335 C348 0.960 . S
C336 H328 0.929 . S
C336 C337 1.377 . S
C336 C338 1.384 . S
C337 C336 1.377 . S
C337 C343 1.390 . S
C338 H329 0.930 . S
C338 C336 1.384 . S
C338 C339 1.372 . S
C339 C338 1.372 . S
C339 C340 1.400 . S
C339 C344 1.490 . S
C340 H330 0.930 . S
C340 C339 1.400 . S
C340 C343 1.386 . S
H341 C357 0.930 . S
H342 C358 0.931 . S
C343 H331 0.929 . S
C343 C337 1.390 . S
C343 C340 1.386 . S
C344 C339 1.490 . S
C344 C346 1.395 . S
C344 C347 1.403 . S
H345 C351 0.930 . S
C346 H332 0.930 . S
C346 C344 1.395 . S
C346 C349 1.403 . S
C347 C344 1.403 . S
C347 C348 1.524 . S
C347 C351 1.400 . S
C348 H333 0.960 . S
C348 H334 0.960 . S
C348 H335 0.960 . S
C348 C347 1.524 . S
C349 C346 1.403 . S
C349 C350 1.392 . S
C349 C353 1.495 . S
C350 C349 1.392 . S
C350 C351 1.385 . S
C350 C352 1.478 . S
C351 H345 0.930 . S
C351 C347 1.400 . S
C351 C350 1.385 . S
C352 C350 1.478 . S
C352 C354 1.381 . S
C352 C358 1.383 . S
C353 C349 1.495 . S
C353 H359 0.959 . S
C353 H360 0.961 . S
C353 H361 0.960 . S
C354 C352 1.381 . S
C354 C355 1.394 . S
C354 H362 0.930 . S
C355 C354 1.394 . S
C355 C356 1.383 . S
C355 H363 0.929 . S
C356 C355 1.383 . S
C356 C357 1.377 . S
C357 H341 0.930 . S
C357 C356 1.377 . S
C357 C358 1.379 . S
C358 H342 0.931 . S
C358 C352 1.383 . S
C358 C357 1.379 . S
H359 C353 0.959 . S
H360 C353 0.961 . S
H361 C353 0.960 . S
H362 C354 0.930 . S
H363 C355 0.929 . S
H364 C372 0.929 . S
H365 C374 0.930 . S
H366 C376 0.930 . S
H367 C379 0.929 . S
H368 C382 0.930 . S
H369 C384 0.960 . S
H370 C384 0.960 . S
H371 C384 0.960 . S
C372 H364 0.929 . S
C372 C373 1.377 . S
C372 C374 1.384 . S
C373 C372 1.377 . S
C373 C379 1.390 . S
C374 H365 0.930 . S
C374 C372 1.384 . S
C374 C375 1.372 . S
C375 C374 1.372 . S
C375 C376 1.400 . S
C375 C380 1.490 . S
C376 H366 0.930 . S
C376 C375 1.400 . S
C376 C379 1.386 . S
H377 C393 0.930 . S
H378 C394 0.931 . S
C379 H367 0.929 . S
C379 C373 1.390 . S
C379 C376 1.386 . S
C380 C375 1.490 . S
C380 C382 1.395 . S
C380 C383 1.403 . S
H381 C387 0.930 . S
C382 H368 0.930 . S
C382 C380 1.395 . S
C382 C385 1.403 . S
C383 C380 1.403 . S
C383 C384 1.524 . S
C383 C387 1.400 . S
C384 H369 0.960 . S
C384 H370 0.960 . S
C384 H371 0.960 . S
C384 C383 1.524 . S
C385 C382 1.403 . S
C385 C386 1.392 . S
C385 C389 1.495 . S
C386 C385 1.392 . S
C386 C387 1.385 . S
C386 C388 1.478 . S
C387 H381 0.930 . S
C387 C383 1.400 . S
C387 C386 1.385 . S
C388 C386 1.478 . S
C388 C390 1.381 . S
C388 C394 1.383 . S
C389 C385 1.495 . S
C389 H395 0.959 . S
C389 H396 0.961 . S
C389 H397 0.960 . S
C390 C388 1.381 . S
C390 C391 1.394 . S
C390 H398 0.930 . S
C391 C390 1.394 . S
C391 C392 1.383 . S
C391 H399 0.929 . S
C392 C391 1.383 . S
C392 C393 1.377 . S
C393 H377 0.930 . S
C393 C392 1.377 . S
C393 C394 1.379 . S
C394 H378 0.931 . S
C394 C388 1.383 . S
C394 C393 1.379 . S
H395 C389 0.959 . S
H396 C389 0.961 . S
H397 C389 0.960 . S
H398 C390 0.930 . S
H399 C391 0.929 . S
H400 C408 0.929 . S
H401 C410 0.930 . S
H402 C412 0.930 . S
H403 C415 0.929 . S
H404 C418 0.930 . S
H405 C420 0.960 . S
H406 C420 0.960 . S
H407 C420 0.960 1_554 S
C408 H400 0.929 . S
C408 C409 1.377 1_556 S
C408 C410 1.384 . S
C409 C408 1.377 1_554 S
C409 C415 1.390 . S
C410 H401 0.930 . S
C410 C408 1.384 . S
C410 C411 1.372 1_556 S
C411 C410 1.372 1_554 S
C411 C412 1.400 . S
C411 C416 1.490 . S
C412 H402 0.930 . S
C412 C411 1.400 . S
C412 C415 1.386 . S
H413 C429 0.930 . S
H414 C430 0.931 . S
C415 H403 0.929 . S
C415 C409 1.390 . S
C415 C412 1.386 . S
C416 C411 1.490 . S
C416 C418 1.395 . S
C416 C419 1.403 1_554 S
H417 C423 0.930 . S
C418 H404 0.930 . S
C418 C416 1.395 . S
C418 C421 1.403 1_655 S
C419 C416 1.403 1_556 S
C419 C420 1.524 . S
C419 C423 1.400 1_655 S
C420 H405 0.960 . S
C420 H406 0.960 . S
C420 H407 0.960 1_556 S
C420 C419 1.524 . S
C421 C418 1.403 1_455 S
C421 C422 1.392 . S
C421 C425 1.495 . S
C422 C421 1.392 . S
C422 C423 1.385 1_554 S
C422 C424 1.478 . S
C423 H417 0.930 . S
C423 C419 1.400 1_455 S
C423 C422 1.385 1_556 S
C424 C422 1.478 . S
C424 C426 1.381 1_554 S
C424 C430 1.383 . S
C425 C421 1.495 . S
C425 H431 0.959 . S
C425 H432 0.961 . S
C425 H433 0.960 . S
C426 C424 1.381 1_556 S
C426 C427 1.394 . S
C426 H434 0.930 . S
C427 C426 1.394 . S
C427 C428 1.383 1_556 S
C427 H435 0.929 . S
C428 C427 1.383 1_554 S
C428 C429 1.377 . S
C429 H413 0.930 . S
C429 C428 1.377 . S
C429 C430 1.379 . S
C430 H414 0.931 . S
C430 C424 1.383 . S
C430 C429 1.379 . S
H431 C425 0.959 . S
H432 C425 0.961 . S
H433 C425 0.960 . S
H434 C426 0.930 . S
H435 C427 0.929 . S
H436 C444 0.929 . S
H437 C446 0.930 . S
H438 C448 0.930 . S
H439 C451 0.929 . S
H440 C454 0.930 . S
H441 C456 0.960 1_545 S
H442 C456 0.960 . S
H443 C456 0.960 . S
C444 H436 0.929 . S
C444 C445 1.377 . S
C444 C446 1.384 . S
C445 C444 1.377 . S
C445 C451 1.390 . S
C446 H437 0.930 . S
C446 C444 1.384 . S
C446 C447 1.372 . S
C447 C446 1.372 . S
C447 C448 1.400 . S
C447 C452 1.490 . S
C448 H438 0.930 . S
C448 C447 1.400 . S
C448 C451 1.386 . S
H449 C465 0.930 . S
H450 C466 0.931 . S
C451 H439 0.929 . S
C451 C445 1.390 . S
C451 C448 1.386 . S
C452 C447 1.490 . S
C452 C454 1.395 . S
C452 C455 1.403 . S
H453 C459 0.930 . S
C454 H440 0.930 . S
C454 C452 1.395 . S
C454 C457 1.403 1_565 S
C455 C452 1.403 . S
C455 C456 1.524 . S
C455 C459 1.400 1_565 S
C456 H441 0.960 1_565 S
C456 H442 0.960 . S
C456 H443 0.960 . S
C456 C455 1.524 . S
C457 C454 1.403 1_545 S
C457 C458 1.392 . S
C457 C461 1.495 . S
C458 C457 1.392 . S
C458 C459 1.385 . S
C458 C460 1.478 . S
C459 H453 0.930 . S
C459 C455 1.400 1_545 S
C459 C458 1.385 . S
C460 C458 1.478 . S
C460 C462 1.381 . S
C460 C466 1.383 . S
C461 C457 1.495 . S
C461 H467 0.959 1_545 S
C461 H468 0.961 . S
C461 H469 0.960 . S
C462 C460 1.381 . S
C462 C463 1.394 . S
C462 H470 0.930 . S
C463 C462 1.394 . S
C463 C464 1.383 . S
C463 H471 0.929 . S
C464 C463 1.383 . S
C464 C465 1.377 . S
C465 H449 0.930 . S
C465 C464 1.377 . S
C465 C466 1.379 . S
C466 H450 0.931 . S
C466 C460 1.383 . S
C466 C465 1.379 . S
H467 C461 0.959 1_565 S
H468 C461 0.961 . S
H469 C461 0.960 . S
H470 C462 0.930 . S
H471 C463 0.929 . S
H472 C480 0.929 . S
H473 C482 0.930 . S
H474 C484 0.930 . S
H475 C487 0.929 . S
H476 C490 0.930 . S
H477 C492 0.960 . S
H478 C492 0.960 . S
H479 C492 0.960 . S
C480 H472 0.929 . S
C480 C481 1.377 . S
C480 C482 1.384 . S
C481 C480 1.377 . S
C481 C487 1.390 . S
C482 H473 0.930 . S
C482 C480 1.384 . S
C482 C483 1.372 . S
C483 C482 1.372 . S
C483 C484 1.400 . S
C483 C488 1.490 . S
C484 H474 0.930 . S
C484 C483 1.400 . S
C484 C487 1.386 . S
H485 C501 0.930 . S
H486 C502 0.931 . S
C487 H475 0.929 . S
C487 C481 1.390 . S
C487 C484 1.386 . S
C488 C483 1.490 . S
C488 C490 1.395 . S
C488 C491 1.403 . S
H489 C495 0.930 . S
C490 H476 0.930 . S
C490 C488 1.395 . S
C490 C493 1.403 1_455 S
C491 C488 1.403 . S
C491 C492 1.524 . S
C491 C495 1.400 1_455 S
C492 H477 0.960 . S
C492 H478 0.960 . S
C492 H479 0.960 . S
C492 C491 1.524 . S
C493 C490 1.403 1_655 S
C493 C494 1.392 . S
C493 C497 1.495 . S
C494 C493 1.392 . S
C494 C495 1.385 . S
C494 C496 1.478 . S
C495 H489 0.930 . S
C495 C491 1.400 1_655 S
C495 C494 1.385 . S
C496 C494 1.478 . S
C496 C498 1.381 . S
C496 C502 1.383 . S
C497 C493 1.495 . S
C497 H503 0.959 . S
C497 H504 0.961 . S
C497 H505 0.960 . S
C498 C496 1.381 . S
C498 C499 1.394 . S
C498 H506 0.930 . S
C499 C498 1.394 . S
C499 C500 1.383 . S
C499 H507 0.929 . S
C500 C499 1.383 . S
C500 C501 1.377 . S
C501 H485 0.930 . S
C501 C500 1.377 . S
C501 C502 1.379 . S
C502 H486 0.931 . S
C502 C496 1.383 . S
C502 C501 1.379 . S
H503 C497 0.959 . S
H504 C497 0.961 . S
H505 C497 0.960 . S
H506 C498 0.930 . S
H507 C499 0.929 . S
H508 C516 0.929 . S
H509 C518 0.930 . S
H510 C520 0.930 . S
H511 C523 0.929 . S
H512 C526 0.930 . S
H513 C528 0.960 . S
H514 C528 0.960 . S
H515 C528 0.960 . S
C516 H508 0.929 . S
C516 C517 1.377 . S
C516 C518 1.384 . S
C517 C516 1.377 . S
C517 C523 1.390 1_554 S
C518 H509 0.930 . S
C518 C516 1.384 . S
C518 C519 1.372 . S
C519 C518 1.372 . S
C519 C520 1.400 1_554 S
C519 C524 1.490 . S
C520 H510 0.930 . S
C520 C519 1.400 1_556 S
C520 C523 1.386 . S
H521 C537 0.930 . S
H522 C538 0.931 . S
C523 H511 0.929 . S
C523 C517 1.390 1_556 S
C523 C520 1.386 . S
C524 C519 1.490 . S
C524 C526 1.395 1_554 S
C524 C527 1.403 . S
H525 C531 0.930 . S
C526 H512 0.930 . S
C526 C524 1.395 1_556 S
C526 C529 1.403 1_565 S
C527 C524 1.403 . S
C527 C528 1.524 . S
C527 C531 1.400 1_565 S
C528 H513 0.960 . S
C528 H514 0.960 . S
C528 H515 0.960 . S
C528 C527 1.524 . S
C529 C526 1.403 1_545 S
C529 C530 1.392 1_556 S
C529 C533 1.495 . S
C530 C529 1.392 1_554 S
C530 C531 1.385 . S
C530 C532 1.478 . S
C531 H525 0.930 . S
C531 C527 1.400 1_545 S
C531 C530 1.385 . S
C532 C530 1.478 . S
C532 C534 1.381 . S
C532 C538 1.383 1_554 S
C533 C529 1.495 . S
C533 H539 0.959 . S
C533 H540 0.961 . S
C533 H541 0.960 1_556 S
C534 C532 1.381 . S
C534 C535 1.394 . S
C534 H542 0.930 . S
C535 C534 1.394 . S
C535 C536 1.383 . S
C535 H543 0.929 . S
C536 C535 1.383 . S
C536 C537 1.377 1_554 S
C537 H521 0.930 . S
C537 C536 1.377 1_556 S
C537 C538 1.379 . S
C538 H522 0.931 . S
C538 C532 1.383 1_556 S
C538 C537 1.379 . S
H539 C533 0.959 . S
H540 C533 0.961 . S
H541 C533 0.960 1_554 S
H542 C534 0.930 . S
H543 C535 0.929 . S
H544 C552 0.929 . S
H545 C554 0.930 . S
H546 C556 0.930 . S
H547 C559 0.929 . S
H548 C562 0.930 . S
H549 C564 0.960 . S
H550 C564 0.960 . S
H551 C564 0.960 . S
C552 H544 0.929 . S
C552 C553 1.377 1_556 S
C552 C554 1.384 . S
C553 C552 1.377 1_554 S
C553 C559 1.390 . S
C554 H545 0.930 . S
C554 C552 1.384 . S
C554 C555 1.372 1_556 S
C555 C554 1.372 1_554 S
C555 C556 1.400 . S
C555 C560 1.490 . S
C556 H546 0.930 . S
C556 C555 1.400 . S
C556 C559 1.386 . S
H557 C573 0.930 . S
H558 C574 0.931 . S
C559 H547 0.929 . S
C559 C553 1.390 . S
C559 C556 1.386 . S
C560 C555 1.490 . S
C560 C562 1.395 1_554 S
C560 C563 1.403 . S
H561 C567 0.930 . S
C562 H548 0.930 . S
C562 C560 1.395 1_556 S
C562 C565 1.403 . S
C563 C560 1.403 . S
C563 C564 1.524 . S
C563 C567 1.400 . S
C564 H549 0.960 . S
C564 H550 0.960 . S
C564 H551 0.960 . S
C564 C563 1.524 . S
C565 C562 1.403 . S
C565 C566 1.392 1_556 S
C565 C569 1.495 . S
C566 C565 1.392 1_554 S
C566 C567 1.385 . S
C566 C568 1.478 . S
C567 H561 0.930 . S
C567 C563 1.400 . S
C567 C566 1.385 . S
C568 C566 1.478 . S
C568 C570 1.381 1_554 S
C568 C574 1.383 . S
C569 C565 1.495 . S
C569 H575 0.959 . S
C569 H576 0.961 . S
C569 H577 0.960 . S
C570 C568 1.381 1_556 S
C570 C571 1.394 . S
C570 H578 0.930 . S
C571 C570 1.394 . S
C571 C572 1.383 1_556 S
C571 H579 0.929 . S
C572 C571 1.383 1_554 S
C572 C573 1.377 . S
C573 H557 0.930 . S
C573 C572 1.377 . S
C573 C574 1.379 . S
C574 H558 0.931 . S
C574 C568 1.383 . S
C574 C573 1.379 . S
H575 C569 0.959 . S
H576 C569 0.961 . S
H577 C569 0.960 . S
H578 C570 0.930 . S
H579 C571 0.929 . S
H580 C588 0.929 . S
H581 C590 0.930 . S
H582 C592 0.930 . S
H583 C595 0.929 . S
H584 C598 0.930 . S
H585 C600 0.960 . S
H586 C600 0.960 . S
H587 C600 0.960 . S
C588 H580 0.929 . S
C588 C589 1.377 . S
C588 C590 1.384 . S
C589 C588 1.377 . S
C589 C595 1.390 . S
C590 H581 0.930 . S
C590 C588 1.384 . S
C590 C591 1.372 . S
C591 C590 1.372 . S
C591 C592 1.400 . S
C591 C596 1.490 . S
C592 H582 0.930 . S
C592 C591 1.400 . S
C592 C595 1.386 . S
H593 C609 0.930 . S
H594 C610 0.931 . S
C595 H583 0.929 . S
C595 C589 1.390 . S
C595 C592 1.386 . S
C596 C591 1.490 . S
C596 C598 1.395 . S
C596 C599 1.403 . S
H597 C603 0.930 . S
C598 H584 0.930 . S
C598 C596 1.395 . S
C598 C601 1.403 . S
C599 C596 1.403 . S
C599 C600 1.524 . S
C599 C603 1.400 . S
C600 H585 0.960 . S
C600 H586 0.960 . S
C600 H587 0.960 . S
C600 C599 1.524 . S
C601 C598 1.403 . S
C601 C602 1.392 . S
C601 C605 1.495 . S
C602 C601 1.392 . S
C602 C603 1.385 . S
C602 C604 1.478 . S
C603 H597 0.930 . S
C603 C599 1.400 . S
C603 C602 1.385 . S
C604 C602 1.478 . S
C604 C606 1.381 . S
C604 C610 1.383 . S
C605 C601 1.495 . S
C605 H611 0.959 . S
C605 H612 0.961 . S
C605 H613 0.960 . S
C606 C604 1.381 . S
C606 C607 1.394 . S
C606 H614 0.930 . S
C607 C606 1.394 . S
C607 C608 1.383 . S
C607 H615 0.929 . S
C608 C607 1.383 . S
C608 C609 1.377 . S
C609 H593 0.930 . S
C609 C608 1.377 . S
C609 C610 1.379 . S
C610 H594 0.931 . S
C610 C604 1.383 . S
C610 C609 1.379 . S
H611 C605 0.959 . S
H612 C605 0.961 . S
H613 C605 0.960 . S
H614 C606 0.930 . S
H615 C607 0.929 . S
H616 C624 0.929 . S
H617 C626 0.930 . S
H618 C628 0.930 . S
H619 C631 0.929 . S
H620 C634 0.930 . S
H621 C636 0.960 . S
H622 C636 0.960 . S
H623 C636 0.960 . S
C624 H616 0.929 . S
C624 C625 1.377 1_556 S
C624 C626 1.384 . S
C625 C624 1.377 1_554 S
C625 C631 1.390 . S
C626 H617 0.930 . S
C626 C624 1.384 . S
C626 C627 1.372 1_556 S
C627 C626 1.372 1_554 S
C627 C628 1.400 . S
C627 C632 1.490 . S
C628 H618 0.930 . S
C628 C627 1.400 . S
C628 C631 1.386 . S
H629 C645 0.930 . S
H630 C646 0.931 . S
C631 H619 0.929 . S
C631 C625 1.390 . S
C631 C628 1.386 . S
C632 C627 1.490 . S
C632 C634 1.395 1_554 S
C632 C635 1.403 . S
H633 C639 0.930 . S
C634 H620 0.930 . S
C634 C632 1.395 1_556 S
C634 C637 1.403 . S
C635 C632 1.403 . S
C635 C636 1.524 . S
C635 C639 1.400 . S
C636 H621 0.960 . S
C636 H622 0.960 . S
C636 H623 0.960 . S
C636 C635 1.524 . S
C637 C634 1.403 . S
C637 C638 1.387 1_556 S
C637 C641 1.495 . S
C638 C637 1.387 1_554 S
C638 C639 1.391 . S
C638 C640 1.478 . S
C639 H633 0.930 . S
C639 C635 1.400 . S
C639 C638 1.391 . S
C640 C638 1.478 . S
C640 C642 1.366 1_554 S
C640 C646 1.399 . S
C641 C637 1.495 . S
C641 H647 0.959 . S
C641 H648 0.961 . S
C641 H649 0.960 . S
C642 C640 1.366 1_556 S
C642 C643 1.394 . S
C642 H650 0.930 . S
C643 C642 1.394 . S
C643 C644 1.383 1_556 S
C643 H651 0.929 . S
C644 C643 1.383 1_554 S
C644 C645 1.377 . S
C645 H629 0.930 . S
C645 C644 1.377 . S
C645 C646 1.379 . S
C646 H630 0.931 . S
C646 C640 1.399 . S
C646 C645 1.379 . S
H647 C641 0.959 . S
H648 C641 0.961 . S
H649 C641 0.960 . S
H650 C642 0.930 . S
H651 C643 0.929 . S
H652 C660 0.929 . S
H653 C662 0.930 . S
H654 C664 0.930 . S
H655 C667 0.929 . S
H656 C670 0.930 . S
H657 C672 0.960 . S
H658 C672 0.960 . S
H659 C672 0.960 . S
C660 H652 0.929 . S
C660 C661 1.377 . S
C660 C662 1.384 . S
C661 C660 1.377 . S
C661 C667 1.390 . S
C662 H653 0.930 . S
C662 C660 1.384 . S
C662 C663 1.372 . S
C663 C662 1.372 . S
C663 C664 1.400 . S
C663 C668 1.490 . S
C664 H654 0.930 . S
C664 C663 1.400 . S
C664 C667 1.386 . S
H665 C681 0.930 . S
H666 C682 0.931 . S
C667 H655 0.929 . S
C667 C661 1.390 . S
C667 C664 1.386 . S
C668 C663 1.490 . S
C668 C670 1.395 . S
C668 C671 1.403 . S
H669 C675 0.930 . S
C670 H656 0.930 . S
C670 C668 1.395 . S
C670 C673 1.403 . S
C671 C668 1.403 . S
C671 C672 1.524 . S
C671 C675 1.400 . S
C672 H657 0.960 . S
C672 H658 0.960 . S
C672 H659 0.960 . S
C672 C671 1.524 . S
C673 C670 1.403 . S
C673 C674 1.392 . S
C673 C677 1.495 . S
C674 C673 1.392 . S
C674 C675 1.385 . S
C674 C676 1.478 . S
C675 H669 0.930 . S
C675 C671 1.400 . S
C675 C674 1.385 . S
C676 C674 1.478 . S
C676 C678 1.381 . S
C676 C682 1.383 . S
C677 C673 1.495 . S
C677 H683 0.959 . S
C677 H684 0.961 . S
C677 H685 0.960 . S
C678 C676 1.381 . S
C678 C679 1.394 . S
C678 H686 0.930 . S
C679 C678 1.394 . S
C679 C680 1.383 . S
C679 H687 0.929 . S
C680 C679 1.383 . S
C680 C681 1.377 . S
C681 H665 0.930 . S
C681 C680 1.377 . S
C681 C682 1.379 . S
C682 H666 0.931 . S
C682 C676 1.383 . S
C682 C681 1.379 . S
H683 C677 0.959 . S
H684 C677 0.961 . S
H685 C677 0.960 . S
H686 C678 0.930 . S
H687 C679 0.929 . S
C121 C9 1.189 . S
C140 C65 1.198 . S
C157 C23 1.190 . S
C176 C79 1.182 . S
C193 C93 1.196 . S
C212 C37 1.218 . S
C229 C107 1.189 . S
C248 C51 1.210 . S
C265 C84 1.088 . S
C284 C28 1.091 . S
C301 C98 1.094 . S
C320 C42 1.076 . S
C337 C0 1.097 . S
C356 C56 1.101 . S
C373 C14 1.090 . S
C392 C70 1.069 . S
C409 C33 1.298 . S
C428 C5 1.279 . S
C445 C47 1.301 . S
C464 C19 1.309 . S
C481 C61 1.298 . S
C500 C89 1.280 . S
C517 C103 1.298 . S
C536 C75 1.279 . S
C553 C11 1.287 . S
C572 C81 1.282 . S
C589 C95 1.286 . S
C608 C25 1.286 . S
C625 C39 1.287 . S
C644 C109 1.281 . S
C661 C53 1.287 . S
C680 C67 1.283 . S
