# Generated by pormake.
# Topology smn, (6)-cn, num edge types: 1
# Building blocks:
#     Node 0, Type 0, BuildingBlock: OJICUG_clean_sbu_0, # of connection points: 6
#     Node 1, Type 0, BuildingBlock: OJICUG_clean_sbu_0, # of connection points: 6
#     Node 2, Type 0, BuildingBlock: OJICUG_clean_sbu_0, # of connection points: 6
#     Node 3, Type 0, BuildingBlock: OJICUG_clean_sbu_0, # of connection points: 6
#     Node 4, Type 0, BuildingBlock: OJICUG_clean_sbu_0, # of connection points: 6
#     Node 5, Type 0, BuildingBlock: OJICUG_clean_sbu_0, # of connection points: 6
#     Node 6, Type 0, BuildingBlock: OJICUG_clean_sbu_0, # of connection points: 6
#     Node 7, Type 0, BuildingBlock: OJICUG_clean_sbu_0, # of connection points: 6
#     Node 8, Type 0, BuildingBlock: OJICUG_clean_sbu_0, # of connection points: 6
#     Node 9, Type 0, BuildingBlock: OJICUG_clean_sbu_0, # of connection points: 6
#     Node 10, Type 0, BuildingBlock: OJICUG_clean_sbu_0, # of connection points: 6
#     Node 11, Type 0, BuildingBlock: OJICUG_clean_sbu_0, # of connection points: 6
#     Node 12, Type 0, BuildingBlock: OJICUG_clean_sbu_0, # of connection points: 6
#     Node 13, Type 0, BuildingBlock: OJICUG_clean_sbu_0, # of connection points: 6
#     Node 14, Type 0, BuildingBlock: OJICUG_clean_sbu_0, # of connection points: 6
#     Node 15, Type 0, BuildingBlock: OJICUG_clean_sbu_0, # of connection points: 6
#     Node 16, Type 0, BuildingBlock: OJICUG_clean_sbu_0, # of connection points: 6
#     Node 17, Type 0, BuildingBlock: OJICUG_clean_sbu_0, # of connection points: 6
#     Edge 18, Type (0, 0), BuildingBlock: EZIPEK_clean_linker_0, # of connection points: 2
#     Edge 19, Type (0, 0), BuildingBlock: EZIPEK_clean_linker_0, # of connection points: 2
#     Edge 20, Type (0, 0), BuildingBlock: EZIPEK_clean_linker_0, # of connection points: 2
#     Edge 21, Type (0, 0), BuildingBlock: EZIPEK_clean_linker_0, # of connection points: 2
#     Edge 22, Type (0, 0), BuildingBlock: EZIPEK_clean_linker_0, # of connection points: 2
#     Edge 23, Type (0, 0), BuildingBlock: EZIPEK_clean_linker_0, # of connection points: 2
#     Edge 24, Type (0, 0), BuildingBlock: EZIPEK_clean_linker_0, # of connection points: 2
#     Edge 25, Type (0, 0), BuildingBlock: EZIPEK_clean_linker_0, # of connection points: 2
#     Edge 26, Type (0, 0), BuildingBlock: EZIPEK_clean_linker_0, # of connection points: 2
#     Edge 27, Type (0, 0), BuildingBlock: EZIPEK_clean_linker_0, # of connection points: 2
#     Edge 28, Type (0, 0), BuildingBlock: EZIPEK_clean_linker_0, # of connection points: 2
#     Edge 29, Type (0, 0), BuildingBlock: EZIPEK_clean_linker_0, # of connection points: 2
#     Edge 30, Type (0, 0), BuildingBlock: EZIPEK_clean_linker_0, # of connection points: 2
#     Edge 31, Type (0, 0), BuildingBlock: EZIPEK_clean_linker_0, # of connection points: 2
#     Edge 32, Type (0, 0), BuildingBlock: EZIPEK_clean_linker_0, # of connection points: 2
#     Edge 33, Type (0, 0), BuildingBlock: EZIPEK_clean_linker_0, # of connection points: 2
#     Edge 34, Type (0, 0), BuildingBlock: EZIPEK_clean_linker_0, # of connection points: 2
#     Edge 35, Type (0, 0), BuildingBlock: EZIPEK_clean_linker_0, # of connection points: 2
#     Edge 36, Type (0, 0), BuildingBlock: EZIPEK_clean_linker_0, # of connection points: 2
#     Edge 37, Type (0, 0), BuildingBlock: EZIPEK_clean_linker_0, # of connection points: 2
#     Edge 38, Type (0, 0), BuildingBlock: EZIPEK_clean_linker_0, # of connection points: 2
#     Edge 39, Type (0, 0), BuildingBlock: EZIPEK_clean_linker_0, # of connection points: 2
#     Edge 40, Type (0, 0), BuildingBlock: EZIPEK_clean_linker_0, # of connection points: 2
#     Edge 41, Type (0, 0), BuildingBlock: EZIPEK_clean_linker_0, # of connection points: 2
#     Edge 42, Type (0, 0), BuildingBlock: EZIPEK_clean_linker_0, # of connection points: 2
#     Edge 43, Type (0, 0), BuildingBlock: EZIPEK_clean_linker_0, # of connection points: 2
#     Edge 44, Type (0, 0), BuildingBlock: EZIPEK_clean_linker_0, # of connection points: 2
#     Edge 45, Type (0, 0), BuildingBlock: EZIPEK_clean_linker_0, # of connection points: 2
#     Edge 46, Type (0, 0), BuildingBlock: EZIPEK_clean_linker_0, # of connection points: 2
#     Edge 47, Type (0, 0), BuildingBlock: EZIPEK_clean_linker_0, # of connection points: 2
#     Edge 48, Type (0, 0), BuildingBlock: EZIPEK_clean_linker_0, # of connection points: 2
#     Edge 49, Type (0, 0), BuildingBlock: EZIPEK_clean_linker_0, # of connection points: 2
#     Edge 50, Type (0, 0), BuildingBlock: EZIPEK_clean_linker_0, # of connection points: 2
#     Edge 51, Type (0, 0), BuildingBlock: EZIPEK_clean_linker_0, # of connection points: 2
#     Edge 52, Type (0, 0), BuildingBlock: EZIPEK_clean_linker_0, # of connection points: 2
#     Edge 53, Type (0, 0), BuildingBlock: EZIPEK_clean_linker_0, # of connection points: 2
#     Edge 54, Type (0, 0), BuildingBlock: EZIPEK_clean_linker_0, # of connection points: 2
#     Edge 55, Type (0, 0), BuildingBlock: EZIPEK_clean_linker_0, # of connection points: 2
#     Edge 56, Type (0, 0), BuildingBlock: EZIPEK_clean_linker_0, # of connection points: 2
#     Edge 57, Type (0, 0), BuildingBlock: EZIPEK_clean_linker_0, # of connection points: 2
#     Edge 58, Type (0, 0), BuildingBlock: EZIPEK_clean_linker_0, # of connection points: 2
#     Edge 59, Type (0, 0), BuildingBlock: EZIPEK_clean_linker_0, # of connection points: 2
#     Edge 60, Type (0, 0), BuildingBlock: EZIPEK_clean_linker_0, # of connection points: 2
#     Edge 61, Type (0, 0), BuildingBlock: EZIPEK_clean_linker_0, # of connection points: 2
#     Edge 62, Type (0, 0), BuildingBlock: EZIPEK_clean_linker_0, # of connection points: 2
#     Edge 63, Type (0, 0), BuildingBlock: EZIPEK_clean_linker_0, # of connection points: 2
#     Edge 64, Type (0, 0), BuildingBlock: EZIPEK_clean_linker_0, # of connection points: 2
#     Edge 65, Type (0, 0), BuildingBlock: EZIPEK_clean_linker_0, # of connection points: 2
#     Edge 66, Type (0, 0), BuildingBlock: EZIPEK_clean_linker_0, # of connection points: 2
#     Edge 67, Type (0, 0), BuildingBlock: EZIPEK_clean_linker_0, # of connection points: 2
#     Edge 68, Type (0, 0), BuildingBlock: EZIPEK_clean_linker_0, # of connection points: 2
#     Edge 69, Type (0, 0), BuildingBlock: EZIPEK_clean_linker_0, # of connection points: 2
#     Edge 70, Type (0, 0), BuildingBlock: EZIPEK_clean_linker_0, # of connection points: 2
#     Edge 71, Type (0, 0), BuildingBlock: EZIPEK_clean_linker_0, # of connection points: 2
# Relax obj value: 0.148
# Max RMSD: 0.236
# Mean RMSD: 0.236
data_MOF--net-smn--node1-OJICUG_clean_sbu_0--edge1-EZIPEK_clean_linker_0
_symmetry_space_group_name_H-M    P1
_symmetry_Int_Tables_number       1
_symmetry_cell_setting            triclinic
loop_
_symmetry_equiv_pos_as_xyz
'x, y, z'
_cell_length_a     49.346047
_cell_length_b     49.455574
_cell_length_c     13.74076
_cell_angle_alpha  89.883682
_cell_angle_beta   90.025751
_cell_angle_gamma 119.92973
loop_
_atom_site_label
_atom_site_type_symbol
_atom_site_fract_x
_atom_site_fract_y
_atom_site_fract_z
_atom_type_partial_charge
Sc0 Sc 0.00683 0.16339 0.74929 0.0
Sc1 Sc 0.02661 0.23404 0.86015 0.0
Sc2 Sc 0.98717 0.21427 0.63695 0.0
O3 O 0.00701 0.20393 0.74847 0.0
C4 C 0.02888 0.19082 0.53428 0.0
C5 C 0.07142 0.20437 0.84949 0.0
C6 C 0.04877 0.27972 0.68424 0.0
C7 C 0.98297 0.16828 0.95937 0.0
C8 C 0.94293 0.13992 0.64467 0.0
C9 C 0.96593 0.23951 0.81214 0.0
O10 O 0.02372 0.1711 0.60191 0.0
O11 O 0.06356 0.22277 0.88866 0.0
O12 O 0.02224 0.26287 0.64422 0.0
O13 O 0.99012 0.1537 0.89751 0.0
O14 O 0.95046 0.16645 0.60828 0.0
O15 O 0.99249 0.24931 0.85224 0.0
O16 O 0.95902 0.13646 0.70961 0.0
O17 O 0.9943 0.19777 0.95753 0.0
O18 O 0.95723 0.22167 0.73757 0.0
O19 O 0.05458 0.18423 0.78746 0.0
O20 O 0.01725 0.20871 0.53464 0.0
O21 O 0.05728 0.27141 0.76127 0.0
Sc22 Sc 0.77897 0.79572 0.85731 0.0
Sc23 Sc 0.8048 0.781 0.63376 0.0
Sc24 Sc 0.84993 0.85216 0.75417 0.0
O25 O 0.81112 0.80955 0.74845 0.0
C26 C 0.80148 0.86873 0.85017 0.0
C27 C 0.735 0.76859 0.67052 0.0
C28 C 0.82506 0.84715 0.53785 0.0
C29 C 0.78113 0.73307 0.81135 0.0
C30 C 0.84548 0.82679 0.96906 0.0
C31 C 0.87891 0.8142 0.65397 0.0
O32 O 0.78076 0.84056 0.86782 0.0
O33 O 0.75613 0.76665 0.62361 0.0
O34 O 0.84044 0.86261 0.61183 0.0
O35 O 0.7728 0.74949 0.86035 0.0
O36 O 0.8602 0.84343 0.89609 0.0
O37 O 0.85307 0.79208 0.62303 0.0
O38 O 0.8158 0.8085 0.96804 0.0
O39 O 0.79555 0.74209 0.73009 0.0
O40 O 0.88055 0.8364 0.70374 0.0
O41 O 0.73958 0.78018 0.7561 0.0
O42 O 0.82726 0.87592 0.8102 0.0
O43 O 0.81227 0.81756 0.5312 0.0
Sc44 Sc 0.16481 0.00423 0.74464 0.0
Sc45 Sc 0.21547 0.98443 0.85845 0.0
Sc46 Sc 0.2349 0.02076 0.63087 0.0
O47 O 0.20546 0.00337 0.74483 0.0
C48 C 0.16559 0.97345 0.54867 0.0
C49 C 0.14235 0.94221 0.86465 0.0
C50 C 0.23918 0.95986 0.68045 0.0
C51 C 0.19515 0.0329 0.94321 0.0
C52 C 0.20669 0.06533 0.62221 0.0
C53 C 0.28263 0.04371 0.80974 0.0
O54 O 0.15072 0.97459 0.62259 0.0
O55 O 0.16892 0.94412 0.86382 0.0
O56 O 0.24387 0.98265 0.62663 0.0
O57 O 0.18076 0.03354 0.86728 0.0
O58 O 0.2306 0.06211 0.62147 0.0
O59 O 0.26326 0.02142 0.86327 0.0
O60 O 0.18046 0.04418 0.65265 0.0
O61 O 0.20531 0.01374 0.95637 0.0
O62 O 0.27631 0.04791 0.72259 0.0
O63 O 0.13876 0.96459 0.83721 0.0
O64 O 0.19501 0.99184 0.5346 0.0
O65 O 0.228 0.95611 0.76651 0.0
Sc66 Sc 0.00648 0.84983 0.26257 0.0
Sc67 Sc 0.98296 0.7816 0.12957 0.0
Sc68 Sc 0.0222 0.79345 0.35451 0.0
O69 O 0.00356 0.80789 0.24907 0.0
C70 C 0.07056 0.86498 0.36257 0.0
C71 C 0.03075 0.85037 0.05057 0.0
C72 C 0.0404 0.76938 0.16142 0.0
C73 C 0.94135 0.81338 0.14942 0.0
C74 C 0.98291 0.81985 0.46711 0.0
C75 C 0.95893 0.73123 0.3037 0.0
O76 O 0.04993 0.87181 0.33918 0.0
O77 O 0.01116 0.82157 0.03473 0.0
O78 O 0.04409 0.77617 0.25194 0.0
O79 O 0.96326 0.83666 0.19195 0.0
O80 O 1.00016 0.80727 0.4685 0.0
O81 O 0.95554 0.73915 0.21761 0.0
O82 O 0.9813 0.83501 0.39472 0.0
O83 O 0.94322 0.78938 0.12781 0.0
O84 O 0.98155 0.74859 0.35898 0.0
O85 O 0.03232 0.86418 0.13011 0.0
O86 O 0.06575 0.83728 0.35975 0.0
O87 O 0.02001 0.77144 0.11089 0.0
Sc88 Sc 0.23337 0.21358 0.1367 0.0
Sc89 Sc 0.21079 0.22866 0.3637 0.0
Sc90 Sc 0.16117 0.16016 0.2342 0.0
O91 O 0.20173 0.20104 0.24489 0.0
C92 C 0.16753 0.19191 0.031 0.0
C93 C 0.23407 0.27741 0.18962 0.0
C94 C 0.13665 0.19798 0.35683 0.0
C95 C 0.2785 0.2374 0.32007 0.0
C96 C 0.20581 0.14064 0.12789 0.0
C97 C 0.18936 0.1596 0.44101 0.0
O98 O 0.19728 0.20411 0.0273 0.0
O99 O 0.22091 0.26926 0.27323 0.0
O100 O 0.13329 0.17578 0.30389 0.0
O101 O 0.2719 0.22489 0.23611 0.0
O102 O 0.17934 0.13516 0.15744 0.0
O103 O 0.20298 0.18914 0.45413 0.0
O104 O 0.22915 0.16806 0.12433 0.0
O105 O 0.25966 0.24249 0.36866 0.0
O106 O 0.17245 0.14555 0.36737 0.0
O107 O 0.24156 0.2605 0.13951 0.0
O108 O 0.15109 0.17556 0.10236 0.0
O109 O 0.16334 0.21959 0.38373 0.0
Sc110 Sc 0.85124 0.00709 0.22921 0.0
Sc111 Sc 0.79602 0.0241 0.1322 0.0
Sc112 Sc 0.78179 0.98535 0.35866 0.0
O113 O 0.80954 0.00545 0.24021 0.0
C114 C 0.81308 0.94285 0.34562 0.0
C115 C 0.81911 0.98073 0.02646 0.0
C116 C 0.73201 0.96207 0.18603 0.0
C117 C 0.86935 0.07131 0.12489 0.0
C118 C 0.85027 0.0319 0.44149 0.0
C119 C 0.77137 0.04353 0.31973 0.0
O120 O 0.83532 0.96254 0.29374 0.0
O121 O 0.80486 0.99643 0.02465 0.0
O122 O 0.74006 0.95654 0.26915 0.0
O123 O 0.87568 0.05148 0.15972 0.0
O124 O 0.82079 0.0147 0.45378 0.0
O125 O 0.78237 0.04981 0.233 0.0
O126 O 0.86477 0.03116 0.36567 0.0
O127 O 0.84145 0.06589 0.11574 0.0
O128 O 0.76971 0.02093 0.368 0.0
O129 O 0.83771 0.98304 0.09411 0.0
O130 O 0.79085 0.94699 0.37286 0.0
O131 O 0.74981 0.9857 0.13487 0.0
Sc132 Sc 0.67234 0.49539 0.07447 0.0
Sc133 Sc 0.69744 0.56676 0.18612 0.0
Sc134 Sc 0.65571 0.5502 0.96821 0.0
O135 O 0.67494 0.53753 0.07619 0.0
C136 C 0.69845 0.52456 0.87053 0.0
C137 C 0.73804 0.5347 0.17884 0.0
C138 C 0.71883 0.6143 0.0054 0.0
C139 C 0.65013 0.49986 0.28234 0.0
C140 C 0.60891 0.47777 0.96675 0.0
C141 C 0.63779 0.57555 0.15662 0.0
O142 O 0.69801 0.50841 0.94331 0.0
O143 O 0.73689 0.55966 0.17987 0.0
O144 O 0.69398 0.59691 0.95867 0.0
O145 O 0.64666 0.48418 0.20549 0.0
O146 O 0.61355 0.50534 0.96253 0.0
O147 O 0.66079 0.57729 0.20329 0.0
O148 O 0.6294 0.47157 0.99634 0.0
O149 O 0.6708 0.52881 0.29163 0.0
O150 O 0.63158 0.56552 0.06903 0.0
O151 O 0.71488 0.50889 0.15388 0.0
O152 O 0.68174 0.5378 0.86359 0.0
O153 O 0.72455 0.60633 0.088 0.0
Sc154 Sc 0.51475 0.18323 0.10669 0.0
Sc155 Sc 0.44308 0.12674 0.20547 0.0
Sc156 Sc 0.46773 0.11397 0.97961 0.0
O157 O 0.47509 0.14143 0.09706 0.0
C158 C 0.48706 0.18113 0.8942 0.0
C159 C 0.46791 0.20005 0.21052 0.0
C160 C 0.39866 0.10186 0.02365 0.0
C161 C 0.51007 0.15175 0.3093 0.0
C162 C 0.54213 0.14667 0.99136 0.0
C163 C 0.44528 0.06487 0.1527 0.0
O164 O 0.50433 0.19527 0.96722 0.0
O165 O 0.44695 0.17199 0.22698 0.0
O166 O 0.41856 0.09745 0.97861 0.0
O167 O 0.52549 0.17234 0.24553 0.0
O168 O 0.51591 0.12676 0.95621 0.0
O169 O 0.43436 0.07964 0.19852 0.0
O170 O 0.54444 0.16687 0.05159 0.0
O171 O 0.48024 0.13479 0.30866 0.0
O172 O 0.4613 0.07533 0.07426 0.0
O173 O 0.49331 0.20707 0.16851 0.0
O174 O 0.47305 0.15151 0.88405 0.0
O175 O 0.40427 0.11537 0.10626 0.0
Sc176 Sc 0.8305 0.34152 0.09284 0.0
Sc177 Sc 0.88498 0.32308 0.18758 0.0
Sc178 Sc 0.90043 0.36236 0.96524 0.0
O179 O 0.87193 0.34246 0.08195 0.0
C180 C 0.83204 0.31723 0.8801 0.0
C181 C 0.81085 0.27722 0.19675 0.0
C182 C 0.90819 0.30253 0.00367 0.0
C183 C 0.8627 0.36595 0.29728 0.0
C184 C 0.86934 0.40564 0.97964 0.0
C185 C 0.94971 0.38505 0.13384 0.0
O186 O 0.81757 0.32041 0.95192 0.0
O187 O 0.83875 0.28352 0.21279 0.0
O188 O 0.91587 0.32837 0.96203 0.0
O189 O 0.84237 0.36201 0.23357 0.0
O190 O 0.88955 0.39954 0.94487 0.0
O191 O 0.933 0.35937 0.17815 0.0
O192 O 0.84832 0.38752 0.03795 0.0
O193 O 0.87949 0.35291 0.2937 0.0
O194 O 0.94049 0.39275 0.05699 0.0
O195 O 0.80456 0.29594 0.1535 0.0
O196 O 0.86182 0.33115 0.87227 0.0
O197 O 0.89268 0.29438 0.08318 0.0
Sc198 Sc 0.65639 0.11284 0.47483 0.0
Sc199 Sc 0.69479 0.134 0.69861 0.0
Sc200 Sc 0.6714 0.18263 0.58656 0.0
O201 O 0.67395 0.14283 0.58683 0.0
C202 C 0.70101 0.18183 0.38587 0.0
C203 C 0.71808 0.10914 0.52105 0.0
C204 C 0.7356 0.20701 0.69809 0.0
C205 C 0.63584 0.0667 0.6584 0.0
C206 C 0.60908 0.13855 0.47182 0.0
C207 C 0.64676 0.15437 0.79008 0.0
O208 O 0.68472 0.15206 0.37554 0.0
O209 O 0.7229 0.12125 0.60584 0.0
O210 O 0.71281 0.2101 0.67113 0.0
O211 O 0.63011 0.07288 0.5727 0.0
O212 O 0.62895 0.16472 0.50584 0.0
O213 O 0.66601 0.14413 0.79954 0.0
O214 O 0.6145 0.11619 0.46302 0.0
O215 O 0.65903 0.08603 0.70862 0.0
O216 O 0.6446 0.16793 0.71458 0.0
O217 O 0.69457 0.10383 0.46996 0.0
O218 O 0.69859 0.19656 0.45803 0.0
O219 O 0.73421 0.18075 0.69831 0.0
Sc220 Sc 0.90084 0.54704 0.46827 0.0
Sc221 Sc 0.8796 0.56745 0.68783 0.0
Sc222 Sc 0.83074 0.49493 0.58281 0.0
O223 O 0.87067 0.53671 0.5795 0.0
C224 C 0.83221 0.5204 0.37384 0.0
C225 C 0.90503 0.61281 0.50175 0.0
C226 C 0.80717 0.53757 0.68208 0.0
C227 C 0.94645 0.57431 0.65311 0.0
C228 C 0.87547 0.47503 0.4786 0.0
C229 C 0.85805 0.50101 0.79037 0.0
O230 O 0.86191 0.53244 0.3646 0.0
O231 O 0.89558 0.60781 0.59003 0.0
O232 O 0.80357 0.51109 0.6605 0.0
O233 O 0.94166 0.56448 0.56518 0.0
O234 O 0.84881 0.46941 0.50707 0.0
O235 O 0.8667 0.5301 0.79664 0.0
O236 O 0.89854 0.50245 0.47176 0.0
O237 O 0.92603 0.57615 0.70399 0.0
O238 O 0.84567 0.4847 0.71479 0.0
O239 O 0.90731 0.59268 0.45099 0.0
O240 O 0.81714 0.50649 0.45027 0.0
O241 O 0.83368 0.56218 0.68084 0.0
Sc242 Sc 0.46807 0.36048 0.46195 0.0
Sc243 Sc 0.4463 0.32346 0.69247 0.0
Sc244 Sc 0.51751 0.34026 0.5842 0.0
O245 O 0.4772 0.34141 0.57975 0.0
C246 C 0.48919 0.31386 0.37615 0.0
C247 C 0.40027 0.30138 0.51026 0.0
C248 C 0.47431 0.27756 0.70049 0.0
C249 C 0.44163 0.38374 0.6338 0.0
C250 C 0.54197 0.40432 0.46879 0.0
C251 C 0.51361 0.36739 0.78864 0.0
O252 O 0.47593 0.3302 0.36612 0.0
O253 O 0.40594 0.29558 0.59663 0.0
O254 O 0.49773 0.29566 0.64974 0.0
O255 O 0.45586 0.38972 0.55181 0.0
O256 O 0.54523 0.38502 0.52055 0.0
O257 O 0.48376 0.35335 0.79208 0.0
O258 O 0.51526 0.39942 0.44184 0.0
O259 O 0.43581 0.36013 0.68491 0.0
O260 O 0.52898 0.36372 0.72075 0.0
O261 O 0.42087 0.32379 0.46069 0.0
O262 O 0.50639 0.31624 0.44827 0.0
O263 O 0.45283 0.28367 0.72162 0.0
Sc264 Sc 0.33944 0.82629 0.394 0.0
Sc265 Sc 0.36314 0.8963 0.51833 0.0
Sc266 Sc 0.325 0.88329 0.29263 0.0
O267 O 0.34248 0.86862 0.40172 0.0
C268 C 0.36634 0.85716 0.19005 0.0
C269 C 0.4042 0.8633 0.50827 0.0
C270 C 0.3885 0.94568 0.34312 0.0
C271 C 0.3151 0.82904 0.60588 0.0
C272 C 0.27596 0.8104 0.28907 0.0
C273 C 0.30536 0.90785 0.47733 0.0
O274 O 0.36259 0.83794 0.25729 0.0
O275 O 0.4003 0.88558 0.53582 0.0
O276 O 0.36349 0.92983 0.29531 0.0
O277 O 0.31602 0.81414 0.53161 0.0
O278 O 0.28296 0.83852 0.27494 0.0
O279 O 0.32818 0.90949 0.52449 0.0
O280 O 0.29452 0.803 0.32796 0.0
O281 O 0.3324 0.85854 0.6162 0.0
O282 O 0.29914 0.89701 0.39085 0.0
O283 O 0.38437 0.84128 0.45619 0.0
O284 O 0.35268 0.87342 0.1885 0.0
O285 O 0.39391 0.93598 0.42349 0.0
Sc286 Sc 0.11187 0.46378 0.5264 0.0
Sc287 Sc 0.13481 0.44552 0.30272 0.0
Sc288 Sc 0.18471 0.51494 0.42288 0.0
O289 O 0.14369 0.47462 0.41754 0.0
C290 C 0.14132 0.53751 0.52193 0.0
C291 C 0.06755 0.43891 0.3403 0.0
C292 C 0.15922 0.51326 0.20929 0.0
C293 C 0.10712 0.39795 0.47999 0.0
C294 C 0.17685 0.48614 0.63562 0.0
C295 C 0.20875 0.47365 0.32073 0.0
O296 O 0.11964 0.51064 0.5476 0.0
O297 O 0.08731 0.43423 0.29594 0.0
O298 O 0.1778 0.52759 0.27923 0.0
O299 O 0.10133 0.41669 0.52585 0.0
O300 O 0.19311 0.50394 0.56629 0.0
O301 O 0.18229 0.45367 0.28639 0.0
O302 O 0.14701 0.47133 0.63568 0.0
O303 O 0.1221 0.40507 0.39892 0.0
O304 O 0.21206 0.49545 0.37562 0.0
O305 O 0.07328 0.4524 0.4235 0.0
O306 O 0.16456 0.54147 0.4725 0.0
O307 O 0.14307 0.48354 0.20405 0.0
Sc308 Sc 0.49637 0.6692 0.4172 0.0
Sc309 Sc 0.54897 0.65181 0.5329 0.0
Sc310 Sc 0.56684 0.68728 0.30381 0.0
O311 O 0.53731 0.66947 0.41806 0.0
C312 C 0.50021 0.64234 0.21109 0.0
C313 C 0.47412 0.60717 0.53432 0.0
C314 C 0.57195 0.62705 0.36185 0.0
C315 C 0.52619 0.69575 0.62446 0.0
C316 C 0.53677 0.73194 0.3028 0.0
C317 C 0.61475 0.71207 0.47513 0.0
O318 O 0.48567 0.64928 0.27382 0.0
O319 O 0.50115 0.6152 0.56811 0.0
O320 O 0.58145 0.65286 0.31746 0.0
O321 O 0.50505 0.68889 0.56056 0.0
O322 O 0.55592 0.7241 0.26918 0.0
O323 O 0.59826 0.68629 0.51972 0.0
O324 O 0.51604 0.71558 0.36449 0.0
O325 O 0.54479 0.68485 0.62517 0.0
O326 O 0.60535 0.71932 0.39775 0.0
O327 O 0.46971 0.62294 0.47051 0.0
O328 O 0.52982 0.65392 0.21074 0.0
O329 O 0.55541 0.61981 0.43934 0.0
Sc330 Sc 0.33917 0.51321 0.93532 0.0
Sc331 Sc 0.31641 0.44379 0.80811 0.0
Sc332 Sc 0.35773 0.45929 0.03061 0.0
O333 O 0.3376 0.47185 0.92462 0.0
C334 C 0.40426 0.53145 0.03454 0.0
C335 C 0.36331 0.51234 0.72263 0.0
C336 C 0.37583 0.435 0.84023 0.0
C337 C 0.27387 0.4751 0.82379 0.0
C338 C 0.31596 0.4828 0.14123 0.0
C339 C 0.29487 0.39516 0.98575 0.0
O340 O 0.38374 0.53758 0.00452 0.0
O341 O 0.34507 0.48299 0.70987 0.0
O342 O 0.38233 0.44555 0.92697 0.0
O343 O 0.29451 0.4978 0.87161 0.0
O344 O 0.33305 0.47007 0.14318 0.0
O345 O 0.28871 0.40224 0.90171 0.0
O346 O 0.31557 0.49916 0.07043 0.0
O347 O 0.27725 0.45221 0.79914 0.0
O348 O 0.31881 0.41369 0.03428 0.0
O349 O 0.3632 0.52667 0.79944 0.0
O350 O 0.39964 0.50393 0.0406 0.0
O351 O 0.35237 0.43223 0.79403 0.0
Sc352 Sc 0.56809 0.87714 0.79816 0.0
Sc353 Sc 0.54984 0.89694 0.02375 0.0
Sc354 Sc 0.49777 0.82735 0.91099 0.0
O355 O 0.53887 0.8675 0.91095 0.0
C356 C 0.50019 0.85345 0.70437 0.0
C357 C 0.57655 0.9436 0.83898 0.0
C358 C 0.47793 0.87163 0.01705 0.0
C359 C 0.6147 0.90124 0.98232 0.0
C360 C 0.54063 0.80584 0.80455 0.0
C361 C 0.52485 0.82859 0.11594 0.0
O362 O 0.52922 0.8621 0.69412 0.0
O363 O 0.5698 0.93873 0.92974 0.0
O364 O 0.4728 0.8447 0.99414 0.0
O365 O 0.60961 0.89463 0.89181 0.0
O366 O 0.51397 0.80159 0.82759 0.0
O367 O 0.53397 0.85766 0.12782 0.0
O368 O 0.56498 0.83246 0.80418 0.0
O369 O 0.59477 0.9018 0.03891 0.0
O370 O 0.51206 0.81389 0.0382 0.0
O371 O 0.57386 0.92231 0.7822 0.0
O372 O 0.48505 0.84191 0.78266 0.0
O373 O 0.50525 0.89527 0.01802 0.0
Sc374 Sc 0.13123 0.69104 0.79973 0.0
Sc375 Sc 0.11152 0.65408 0.02849 0.0
Sc376 Sc 0.18184 0.6708 0.91737 0.0
O377 O 0.14151 0.67189 0.91493 0.0
C378 C 0.15215 0.64544 0.70693 0.0
C379 C 0.0647 0.631 0.85345 0.0
C380 C 0.1399 0.6079 0.03167 0.0
C381 C 0.10732 0.71516 0.97319 0.0
C382 C 0.20562 0.73404 0.7991 0.0
C383 C 0.17902 0.69878 0.12134 0.0
O384 O 0.13774 0.66076 0.70077 0.0
O385 O 0.07248 0.62418 0.93445 0.0
O386 O 0.16364 0.62602 0.98227 0.0
O387 O 0.12291 0.72166 0.89396 0.0
O388 O 0.2091 0.71595 0.85588 0.0
O389 O 0.1492 0.6854 0.12498 0.0
O390 O 0.17876 0.72847 0.77107 0.0
O391 O 0.09921 0.69028 0.02131 0.0
O392 O 0.19395 0.69364 0.05531 0.0
O393 O 0.08242 0.65587 0.80636 0.0
O394 O 0.16979 0.64787 0.77846 0.0
O395 O 0.11886 0.6146 0.05328 0.0
C396 C 0.05265 0.16635 0.43666 0.0
C397 C 0.05187 0.19384 0.45824 0.0
C398 C 0.10428 0.22404 0.38537 0.0
C399 C 0.10762 0.19716 0.39057 0.0
N400 N 0.08526 0.14308 0.44093 0.0
N401 N 0.07791 0.2505 0.44734 0.0
C402 C 0.08176 0.16824 0.42058 0.0
C403 C 0.07774 0.22325 0.42977 0.0
N404 N 0.02553 0.13833 0.43471 0.0
N405 N 0.12566 0.24982 0.33526 0.0
H406 H 0.05875 0.25184 0.47205 0.0
H407 H 0.09784 0.27231 0.43897 0.0
H408 H 0.14468 0.25082 0.29888 0.0
H409 H 0.12267 0.26885 0.32074 0.0
H410 H 0.02467 0.11768 0.4135 0.0
H411 H 0.00378 0.13682 0.44325 0.0
H412 H 0.06726 0.12241 0.47015 0.0
H413 H 0.10686 0.14406 0.44071 0.0
C414 C 0.84504 0.91942 0.40724 0.0
C415 C 0.81522 0.91549 0.38185 0.0
C416 C 0.79051 0.86151 0.44153 0.0
C417 C 0.8206 0.86546 0.46066 0.0
N418 N 0.87571 0.89403 0.42819 0.0
N419 N 0.76038 0.87937 0.35076 0.0
C420 C 0.84751 0.89291 0.43016 0.0
C421 C 0.78816 0.88543 0.39101 0.0
N422 N 0.87054 0.94844 0.4195 0.0
N423 N 0.76423 0.83606 0.4765 0.0
H424 H 0.75753 0.89593 0.31237 0.0
H425 H 0.74097 0.85701 0.3473 0.0
H426 H 0.76452 0.81757 0.51165 0.0
H427 H 0.74226 0.83425 0.47568 0.0
H428 H 0.89188 0.9519 0.44565 0.0
H429 H 0.86953 0.96895 0.41731 0.0
H430 H 0.89587 0.91296 0.39982 0.0
H431 H 0.87782 0.87455 0.44509 0.0
C432 C 0.13957 0.94659 0.39219 0.0
C433 C 0.14828 0.94502 0.48903 0.0
C434 C 0.10941 0.88932 0.49802 0.0
C435 C 0.10041 0.89067 0.40086 0.0
N436 N 0.11087 0.91843 0.24849 0.0
N437 N 0.14819 0.91376 0.62447 0.0
C438 C 0.11701 0.91865 0.3455 0.0
C439 C 0.13557 0.91585 0.53805 0.0
N440 N 0.15137 0.97491 0.34722 0.0
N441 N 0.09141 0.86392 0.55547 0.0
H442 H 0.16707 0.93292 0.65723 0.0
H443 H 0.14209 0.89265 0.65859 0.0
H444 H 0.07142 0.84405 0.5312 0.0
H445 H 0.09464 0.86357 0.63028 0.0
H446 H 0.14304 0.97814 0.28124 0.0
H447 H 0.16847 0.99561 0.37883 0.0
H448 H 0.1238 0.93718 0.20194 0.0
H449 H 0.09431 0.8984 0.21276 0.0
C450 C 0.1901 0.05744 0.09703 0.0
C451 C 0.20535 0.06013 0.00779 0.0
C452 C 0.22285 0.11589 -0.00035 0.0
C453 C 0.20852 0.1138 0.09114 0.0
N454 N 0.18472 0.08377 0.23747 0.0
N455 N 0.24343 0.0927 0.88873 0.0
C456 C 0.19421 0.08494 0.14345 0.0
C457 C 0.22459 0.08984 0.96536 0.0
N458 N 0.17031 0.02858 0.13453 0.0
N459 N 0.232 0.14135 0.94071 0.0
H460 H 0.24477 0.07374 0.86126 0.0
H461 H 0.25953 0.11413 0.85862 0.0
H462 H 0.2285 0.15991 0.95727 0.0
H463 H 0.23971 0.14254 0.86947 0.0
H464 H 0.15506 0.02489 0.19189 0.0
H465 H 0.16788 0.00817 0.104 0.0
H466 H 0.17696 0.06414 0.2817 0.0
H467 H 0.1873 0.10325 0.27443 0.0
C468 C 0.89748 0.11084 0.99198 0.0
C469 C 0.89624 0.10118 0.09 0.0
C470 C 0.95224 0.13959 0.10955 0.0
C471 C 0.9531 0.14907 0.01201 0.0
N472 N 0.92461 0.15151 0.8727 0.0
N473 N 0.91993 0.11225 0.24943 0.0
C474 C 0.92499 0.13736 0.95773 0.0
C475 C 0.9229 0.11755 0.15132 0.0
N476 N 0.87371 0.09339 0.9286 0.0
N477 N 0.97943 0.15089 0.16096 0.0
H478 H 0.89851 0.09708 0.28216 0.0
H479 H 0.93777 0.12505 0.29897 0.0
H480 H 1.00092 0.1678 0.13261 0.0
H481 H 0.98089 0.1424 0.22901 0.0
H482 H 0.87544 0.09758 0.85385 0.0
H483 H 0.85341 0.07299 0.94803 0.0
H484 H 0.904 0.14613 0.83629 0.0
H485 H 0.94443 0.17077 0.84425 0.0
C486 C 0.89727 0.85166 0.04937 0.0
C487 C 0.86599 0.82703 0.05039 0.0
C488 C 0.88292 0.79494 0.14026 0.0
C489 C 0.91456 0.81695 0.11567 0.0
N490 N 0.95074 0.86456 0.03068 0.0
N491 N 0.82843 0.78281 0.1416 0.0
C492 C 0.92151 0.84511 0.06717 0.0
C493 C 0.85835 0.80051 0.10872 0.0
N494 N 0.90358 0.88133 0.03017 0.0
N495 N 0.87644 0.76884 0.19236 0.0
H496 H 0.81126 0.7887 0.12729 0.0
H497 H 0.82144 0.76482 0.19199 0.0
H498 H 0.89384 0.76519 0.22167 0.0
H499 H 0.85394 0.75033 0.20418 0.0
H500 H 0.92597 0.9007 0.03542 0.0
H501 H 0.88566 0.88653 0.02043 0.0
H502 H 0.95586 0.88387 0.98739 0.0
H503 H 0.96886 0.85948 0.03315 0.0
C504 C 0.93518 0.84447 0.59817 0.0
C505 C 0.90879 0.81552 0.62636 0.0
C506 C 0.9372 0.7885 0.57959 0.0
C507 C 0.96306 0.81758 0.55128 0.0
N508 N 0.99128 0.87298 0.57433 0.0
N509 N 0.88964 0.76206 0.67568 0.0
C510 C 0.96366 0.84543 0.57703 0.0
C511 C 0.91136 0.7881 0.62749 0.0
N512 N 0.93261 0.87036 0.58134 0.0
N513 N 0.93651 0.76132 0.55684 0.0
H514 H 0.87134 0.7615 0.71527 0.0
H515 H 0.89179 0.74231 0.68539 0.0
H516 H 0.95544 0.7607 0.52587 0.0
H517 H 0.91672 0.73945 0.56588 0.0
H518 H 0.95089 0.891 0.55303 0.0
H519 H 0.91151 0.87033 0.58277 0.0
H520 H 0.99348 0.89393 0.59877 0.0
H521 H 0.01233 0.87381 0.5574 0.0
C522 C 0.19487 0.10893 0.63962 0.0
C523 C 0.20847 0.09433 0.58438 0.0
C524 C 0.21902 0.13147 0.45233 0.0
C525 C 0.19977 0.1413 0.49903 0.0
N526 N 0.16912 0.13992 0.63676 0.0
N527 N 0.23044 0.08974 0.4317 0.0
C528 C 0.18792 0.13051 0.5933 0.0
C529 C 0.22035 0.10543 0.48965 0.0
N530 N 0.18911 0.10249 0.73658 0.0
N531 N 0.23562 0.14674 0.37099 0.0
H532 H 0.23019 0.06938 0.45262 0.0
H533 H 0.23634 0.09518 0.35871 0.0
H534 H 0.23454 0.16546 0.33998 0.0
H535 H 0.25254 0.14275 0.33973 0.0
H536 H 0.18167 0.11423 0.78249 0.0
H537 H 0.19483 0.08755 0.7732 0.0
H538 H 0.15678 0.13016 0.70083 0.0
H539 H 0.16452 0.15645 0.60535 0.0
C540 C 0.8965 0.05696 0.54901 0.0
C541 C 0.86918 0.05606 0.51452 0.0
C542 C 0.88713 0.10789 0.58529 0.0
C543 C 0.9169 0.11097 0.6021 0.0
N544 N 0.95156 0.08989 0.57656 0.0
N545 N 0.83953 0.0825 0.49078 0.0
C546 C 0.92203 0.0858 0.57859 0.0
C547 C 0.86447 0.08184 0.53122 0.0
N548 N 0.89815 0.03023 0.55211 0.0
N549 N 0.88024 0.12942 0.62191 0.0
H550 H 0.82236 0.06408 0.45091 0.0
H551 H 0.83712 0.10226 0.49098 0.0
H552 H 0.89616 0.14868 0.66222 0.0
H553 H 0.85784 0.12654 0.62009 0.0
H554 H 0.91674 0.02911 0.58401 0.0
H555 H 0.87919 0.00863 0.53305 0.0
H556 H 0.95636 0.07289 0.55097 0.0
H557 H 0.97168 0.11128 0.58832 0.0
C558 C 0.79106 0.9231 0.02261 0.0
C559 C 0.80646 0.95139 0.96923 0.0
C560 C 0.80673 0.92179 0.82676 0.0
C561 C 0.79787 0.89512 0.88715 0.0
N562 N 0.78711 0.87326 0.05045 0.0
N563 N 0.829 0.97822 0.81933 0.0
C564 C 0.79086 0.89621 0.98681 0.0
C565 C 0.81396 0.95091 0.87025 0.0
N566 N 0.77724 0.92213 0.10949 0.0
N567 N 0.80802 0.91914 0.72816 0.0
H568 H 0.83358 0.99947 0.84939 0.0
H569 H 0.83819 0.98 0.74986 0.0
H570 H 0.80195 0.89794 0.69453 0.0
H571 H 0.81212 0.937 0.67966 0.0
H572 H 0.76309 0.90126 0.14593 0.0
H573 H 0.77708 0.94148 0.13887 0.0
H574 H 0.7858 0.87525 0.1256 0.0
H575 H 0.78873 0.8538 0.03113 0.0
C576 C 0.0851 0.90221 0.85049 0.0
C577 C 0.11419 0.91337 0.90022 0.0
C578 C 0.08737 0.87225 0.02174 0.0
C579 C 0.05817 0.86685 0.98579 0.0
N580 N 0.02849 0.87585 0.86446 0.0
N581 N 0.14185 0.91025 0.04232 0.0
C582 C 0.05673 0.88129 0.89888 0.0
C583 C 0.11525 0.89833 0.98731 0.0
N584 N 0.08468 0.91094 0.75641 0.0
N585 N 0.08831 0.85287 0.09096 0.0
H586 H 0.16224 0.931 0.02661 0.0
H587 H 0.14274 0.90135 0.11025 0.0
H588 H 0.06812 0.83399 0.11928 0.0
H589 H 0.10897 0.85383 0.11309 0.0
H590 H 0.06448 0.90144 0.7141 0.0
H591 H 0.10504 0.92504 0.71728 0.0
H592 H 0.02618 0.88843 0.80731 0.0
H593 H 0.00738 0.85971 0.89685 0.0
C594 C 0.1295 0.22909 0.88492 0.0
C595 C 0.09894 0.20258 0.88477 0.0
C596 C 0.12108 0.16961 0.92739 0.0
C597 C 0.14965 0.19629 0.9515 0.0
N598 N 0.18287 0.25227 0.94461 0.0
N599 N 0.06537 0.14783 0.92451 0.0
C600 C 0.15467 0.22639 0.92635 0.0
C601 C 0.09466 0.17276 0.90979 0.0
N602 N 0.13449 0.25641 0.84404 0.0
N603 N 0.11909 0.14107 0.92621 0.0
H604 H 0.04513 0.14949 0.9221 0.0
H605 H 0.06149 0.12642 0.95092 0.0
H606 H 0.1386 0.13857 0.93923 0.0
H607 H 0.09926 0.1209 0.90229 0.0
H608 H 0.1566 0.27574 0.83357 0.0
H609 H 0.11659 0.2589 0.81282 0.0
H610 H 0.18713 0.27494 0.93551 0.0
H611 H 0.20214 0.25117 0.97017 0.0
C612 C 0.78184 0.55182 0.8148 0.0
C613 C 0.77989 0.53903 0.72095 0.0
C614 C 0.72361 0.52146 0.71456 0.0
C615 C 0.72608 0.53485 0.8072 0.0
N616 N 0.7585 0.57003 0.93329 0.0
N617 N 0.75069 0.51722 0.57291 0.0
C618 C 0.75569 0.55284 0.85218 0.0
C619 C 0.75128 0.52565 0.66784 0.0
N620 N 0.80746 0.5603 0.87253 0.0
N621 N 0.69479 0.50372 0.67361 0.0
H622 H 0.77057 0.52027 0.53657 0.0
H623 H 0.7313 0.50972 0.5278 0.0
H624 H 0.6745 0.50141 0.70523 0.0
H625 H 0.69079 0.49031 0.6113 0.0
H626 H 0.80849 0.56653 0.94536 0.0
H627 H 0.82649 0.55792 0.85217 0.0
H628 H 0.77996 0.58618 0.96322 0.0
H629 H 0.73948 0.5703 0.96524 0.0
C630 C 0.50911 0.23103 0.80493 0.0
C631 C 0.48276 0.20139 0.82239 0.0
C632 C 0.44985 0.21988 0.74443 0.0
C633 C 0.47554 0.25086 0.74635 0.0
N634 N 0.52759 0.28604 0.8077 0.0
N635 N 0.42632 0.16801 0.81381 0.0
C636 C 0.50467 0.25648 0.78451 0.0
C637 C 0.45258 0.19564 0.79249 0.0
N638 N 0.53852 0.23499 0.8098 0.0
N639 N 0.42312 0.2134 0.69597 0.0
H640 H 0.42655 0.14938 0.84797 0.0
H641 H 0.40382 0.16419 0.8024 0.0
H642 H 0.41994 0.23054 0.66267 0.0
H643 H 0.40516 0.19076 0.68215 0.0
H644 H 0.55844 0.25592 0.79103 0.0
H645 H 0.5424 0.21633 0.82177 0.0
H646 H 0.5482 0.29066 0.84283 0.0
H647 H 0.52436 0.30532 0.80383 0.0
C648 C 0.80645 0.26029 0.85381 0.0
C649 C 0.81309 0.28989 0.81812 0.0
C650 C 0.77516 0.2645 0.68765 0.0
C651 C 0.76419 0.23508 0.73465 0.0
N652 N 0.76672 0.20648 0.87505 0.0
N653 N 0.80242 0.32077 0.70616 0.0
C654 C 0.77946 0.23316 0.82012 0.0
C655 C 0.79723 0.29221 0.73596 0.0
N656 N 0.82506 0.25821 0.92369 0.0
N657 N 0.76522 0.26599 0.59602 0.0
H658 H 0.81926 0.34152 0.73837 0.0
H659 H 0.78879 0.32366 0.65381 0.0
H660 H 0.75013 0.24626 0.55613 0.0
H661 H 0.77467 0.28654 0.55546 0.0
H662 H 0.8236 0.23722 0.94405 0.0
H663 H 0.84364 0.27772 0.95577 0.0
H664 H 0.77599 0.20468 0.9412 0.0
H665 H 0.74479 0.18718 0.86231 0.0
C666 C 0.88571 0.44888 0.3398 0.0
C667 C 0.87831 0.44871 0.43952 0.0
C668 C 0.86587 0.39407 0.45404 0.0
C669 C 0.87375 0.39476 0.3549 0.0
N670 N 0.90008 0.42496 0.21248 0.0
N671 N 0.86784 0.42392 0.59717 0.0
C672 C 0.88697 0.42306 0.30152 0.0
C673 C 0.87053 0.42213 0.49873 0.0
N674 N 0.88886 0.4723 0.27919 0.0
N675 N 0.85289 0.3665 0.50376 0.0
H676 H 0.87153 0.4443 0.6315 0.0
H677 H 0.86459 0.40628 0.6454 0.0
H678 H 0.85021 0.34605 0.47277 0.0
H679 H 0.84369 0.36364 0.57351 0.0
H680 H 0.89026 0.47134 0.20373 0.0
H681 H 0.88686 0.49129 0.30212 0.0
H682 H 0.91264 0.4459 0.17472 0.0
H683 H 0.90129 0.40635 0.18146 0.0
C684 C 0.59647 0.42715 0.40326 0.0
C685 C 0.57127 0.43172 0.43168 0.0
C686 C 0.60293 0.48697 0.38502 0.0
C687 C 0.62821 0.48204 0.3621 0.0
N688 N 0.65247 0.45086 0.38382 0.0
N689 N 0.55368 0.46824 0.47014 0.0
C690 C 0.62615 0.45336 0.38531 0.0
C691 C 0.57544 0.46237 0.42926 0.0
N692 N 0.59159 0.39794 0.38387 0.0
N693 N 0.60448 0.51443 0.36011 0.0
H694 H 0.53328 0.45103 0.50283 0.0
H695 H 0.55719 0.49068 0.47891 0.0
H696 H 0.6248 0.53339 0.33304 0.0
H697 H 0.58531 0.51787 0.36272 0.0
H698 H 0.60895 0.39403 0.3557 0.0
H699 H 0.56945 0.3781 0.38263 0.0
H700 H 0.65263 0.43081 0.4066 0.0
H701 H 0.6745 0.4701 0.36957 0.0
C702 C 0.56083 0.1425 0.50022 0.0
C703 C 0.57908 0.13509 0.43687 0.0
C704 C 0.54311 0.12726 0.30392 0.0
C705 C 0.52882 0.14053 0.36162 0.0
N706 N 0.52345 0.16082 0.51439 0.0
N707 N 0.58971 0.12434 0.27384 0.0
C708 C 0.53717 0.14778 0.46035 0.0
C709 C 0.57048 0.1279 0.33786 0.0
N710 N 0.566 0.14411 0.59829 0.0
N711 N 0.53076 0.11456 0.21533 0.0
H712 H 0.61071 0.12567 0.29377 0.0
H713 H 0.58636 0.12301 0.19875 0.0
H714 H 0.51104 0.11428 0.18686 0.0
H715 H 0.53813 0.10161 0.17488 0.0
H716 H 0.55193 0.1469 0.6491 0.0
H717 H 0.58274 0.13978 0.62944 0.0
H718 H 0.5309 0.16992 0.58382 0.0
H719 H 0.50537 0.16382 0.48711 0.0
C720 C 0.56885 0.11939 0.9182 0.0
C721 C 0.5712 0.14696 0.95805 0.0
C722 C 0.62774 0.17324 0.92572 0.0
C723 C 0.62312 0.14833 0.86513 0.0
N724 N 0.58555 0.10147 0.78102 0.0
N725 N 0.60436 0.20356 0.97468 0.0
C726 C 0.5927 0.1222 0.85533 0.0
C727 C 0.60118 0.17491 0.95719 0.0
N728 N 0.5443 0.09059 0.93986 0.0
N729 N 0.65736 0.19637 0.94684 0.0
H730 H 0.58574 0.20766 0.98111 0.0
H731 H 0.62566 0.22423 0.96768 0.0
H732 H 0.67706 0.19576 0.92213 0.0
H733 H 0.66198 0.21409 0.99648 0.0
H734 H 0.54307 0.07016 0.91413 0.0
H735 H 0.52781 0.08707 0.99317 0.0
H736 H 0.5627 0.08373 0.76744 0.0
H737 H 0.60185 0.10364 0.72871 0.0
C738 C 0.83774 0.42953 0.9212 0.0
C739 C 0.86757 0.43326 0.94459 0.0
C740 C 0.89223 0.48809 0.89276 0.0
C741 C 0.86219 0.48393 0.87229 0.0
N742 N 0.80702 0.45501 0.90151 0.0
N743 N 0.92256 0.46849 0.97469 0.0
C744 C 0.83525 0.45619 0.90052 0.0
C745 C 0.8947 0.46335 0.93764 0.0
N746 N 0.81224 0.4005 0.90889 0.0
N747 N 0.91833 0.51494 0.86481 0.0
H748 H 0.92539 0.45108 0.00766 0.0
H749 H 0.94222 0.49061 0.98022 0.0
H750 H 0.91729 0.53404 0.83736 0.0
H751 H 0.94072 0.51781 0.86583 0.0
H752 H 0.79076 0.397 0.88407 0.0
H753 H 0.81339 0.38003 0.91043 0.0
H754 H 0.78671 0.43591 0.92834 0.0
H755 H 0.80502 0.47458 0.88507 0.0
C756 C 0.56244 0.42435 0.98787 0.0
C757 C 0.57944 0.45149 0.92924 0.0
C758 C 0.54427 0.42484 0.79369 0.0
C759 C 0.53159 0.39628 0.84557 0.0
N760 N 0.5287 0.36803 0.99112 0.0
N761 N 0.58917 0.47592 0.77028 0.0
C762 C 0.54033 0.39579 0.9431 0.0
C763 C 0.57076 0.45159 0.83094 0.0
N764 N 0.56731 0.42608 0.08613 0.0
N765 N 0.53125 0.42624 0.70749 0.0
H766 H 0.6096 0.49574 0.79232 0.0
H767 H 0.58584 0.47515 0.69522 0.0
H768 H 0.5118 0.407 0.67725 0.0
H769 H 0.53771 0.44722 0.67201 0.0
H770 H 0.55392 0.4078 0.13382 0.0
H771 H 0.58284 0.44689 0.12093 0.0
H772 H 0.53723 0.36581 0.05814 0.0
H773 H 0.51177 0.34699 0.96067 0.0
C774 C 0.45582 0.22821 0.34211 0.0
C775 C 0.46431 0.22659 0.24439 0.0
C776 C 0.48433 0.28286 0.22439 0.0
C777 C 0.47629 0.2842 0.32199 0.0
N778 N 0.44296 0.25666 0.45808 0.0
N779 N 0.47616 0.24992 0.08414 0.0
C780 C 0.458 0.25628 0.37515 0.0
C781 C 0.47505 0.2532 0.18254 0.0
N782 N 0.44852 0.20446 0.4067 0.0
N783 N 0.50183 0.30976 0.17329 0.0
H784 H 0.46828 0.22821 0.0515 0.0
H785 H 0.48166 0.26798 0.03486 0.0
H786 H 0.50814 0.33165 0.20197 0.0
H787 H 0.51148 0.31028 0.10545 0.0
H788 H 0.44587 0.20664 0.48107 0.0
H789 H 0.44792 0.18373 0.38937 0.0
H790 H 0.42646 0.23627 0.49269 0.0
H791 H 0.44425 0.27697 0.48513 0.0
C792 C 0.78452 0.2415 0.33897 0.0
C793 C 0.78417 0.2485 0.23884 0.0
C794 C 0.72863 0.20755 0.22877 0.0
C795 C 0.72977 0.20009 0.32739 0.0
N796 N 0.76078 0.20345 0.46754 0.0
N797 N 0.75774 0.23407 0.08347 0.0
C798 C 0.75857 0.21472 0.37877 0.0
C799 C 0.75677 0.2301 0.18201 0.0
N800 N 0.80808 0.2618 0.39889 0.0
N801 N 0.70057 0.19423 0.18143 0.0
H802 H 0.77804 0.24985 0.04685 0.0
H803 H 0.73936 0.21993 0.03724 0.0
H804 H 0.67988 0.17711 0.21343 0.0
H805 H 0.69744 0.20133 0.11305 0.0
H806 H 0.80772 0.25903 0.4741 0.0
H807 H 0.82634 0.28336 0.37657 0.0
H808 H 0.78187 0.21132 0.5043 0.0
H809 H 0.74209 0.18383 0.49937 0.0
C810 C 0.80503 0.55006 0.34794 0.0
C811 C 0.81515 0.53027 0.30757 0.0
C812 C 0.78047 0.52032 0.16838 0.0
C813 C 0.76609 0.535 0.21914 0.0
N814 N 0.76148 0.55871 0.36797 0.0
N815 N 0.81287 0.49608 0.18 0.0
C816 C 0.77777 0.54895 0.31123 0.0
C817 C 0.80326 0.51549 0.21715 0.0
N818 N 0.82098 0.56914 0.42404 0.0
N819 N 0.7728 0.5116 0.07356 0.0
H820 H 0.83032 0.4932 0.21311 0.0
H821 H 0.80263 0.48189 0.11961 0.0
H822 H 0.7568 0.51549 0.03528 0.0
H823 H 0.78438 0.50327 0.03036 0.0
H824 H 0.81608 0.58586 0.45131 0.0
H825 H 0.84098 0.57022 0.45343 0.0
H826 H 0.76781 0.56665 0.43903 0.0
H827 H 0.7396 0.55553 0.34963 0.0
C828 C 0.39503 0.85765 0.03683 0.0
C829 C 0.39542 0.86785 0.13308 0.0
C830 C 0.45106 0.88446 0.14881 0.0
C831 C 0.451 0.87439 0.0523 0.0
N832 N 0.42541 0.85857 0.89628 0.0
N833 N 0.42541 0.89911 0.26958 0.0
C834 C 0.42369 0.86329 0.99349 0.0
C835 C 0.42407 0.88419 0.18468 0.0
N836 N 0.36722 0.84162 0.98871 0.0
N837 N 0.47565 0.89159 0.20987 0.0
H838 H 0.40582 0.89806 0.30207 0.0
H839 H 0.44654 0.91537 0.30096 0.0
H840 H 0.49568 0.89107 0.18916 0.0
H841 H 0.47497 0.89519 0.28431 0.0
H842 H 0.36469 0.8305 0.9223 0.0
H843 H 0.34627 0.83827 0.01823 0.0
H844 H 0.40711 0.85282 0.84781 0.0
H845 H 0.44626 0.86324 0.86252 0.0
C846 C 0.15589 0.54015 0.05493 0.0
C847 C 0.14847 0.53208 0.15394 0.0
C848 C 0.13255 0.57145 0.17133 0.0
C849 C 0.13877 0.57917 0.07117 0.0
N850 N 0.14799 0.56444 0.9121 0.0
N851 N 0.11835 0.53143 0.29273 0.0
C852 C 0.14782 0.56143 0.011 0.0
C853 C 0.13292 0.54482 0.20721 0.0
N854 N 0.17127 0.52824 0.00395 0.0
N855 N 0.129 0.5907 0.23496 0.0
H856 H 0.11756 0.51146 0.32108 0.0
H857 H 0.10397 0.53809 0.32822 0.0
H858 H 0.13102 0.61197 0.21542 0.0
H859 H 0.12771 0.58725 0.3101 0.0
H860 H 0.18028 0.53576 0.93434 0.0
H861 H 0.17653 0.51202 0.03423 0.0
H862 H 0.15213 0.55055 0.86436 0.0
H863 H 0.14073 0.57857 0.87766 0.0
C864 C 0.45264 0.5834 0.01378 0.0
C865 C 0.43323 0.55756 0.0744 0.0
C866 C 0.46514 0.58515 0.21496 0.0
C867 C 0.48079 0.61279 0.15842 0.0
N868 N 0.49009 0.63892 0.00438 0.0
N869 N 0.41837 0.5353 0.23592 0.0
C870 C 0.47509 0.61207 0.05741 0.0
C871 C 0.43901 0.55856 0.17568 0.0
N872 N 0.44961 0.58028 0.91491 0.0
N873 N 0.47542 0.58429 0.30656 0.0
H874 H 0.39843 0.51539 0.21143 0.0
H875 H 0.41951 0.53701 0.31156 0.0
H876 H 0.495 0.60321 0.33739 0.0
H877 H 0.46697 0.56374 0.34656 0.0
H878 H 0.46467 0.59726 0.86603 0.0
H879 H 0.43351 0.55941 0.88152 0.0
H880 H 0.4843 0.64055 0.93273 0.0
H881 H 0.5072 0.65996 0.03428 0.0
C882 C 0.54879 0.77922 0.66386 0.0
C883 C 0.54221 0.77922 0.76413 0.0
C884 C 0.52794 0.72429 0.77799 0.0
C885 C 0.53535 0.7247 0.67852 0.0
N886 N 0.56073 0.75422 0.53379 0.0
N887 N 0.53189 0.75455 0.9218 0.0
C888 C 0.5485 0.75281 0.62405 0.0
C889 C 0.53382 0.75257 0.82306 0.0
N890 N 0.55315 0.80343 0.60491 0.0
N891 N 0.51407 0.69675 0.82782 0.0
H892 H 0.53634 0.77511 0.95657 0.0
H893 H 0.52857 0.7368 0.96969 0.0
H894 H 0.51043 0.67594 0.79693 0.0
H895 H 0.50454 0.69436 0.89695 0.0
H896 H 0.55395 0.80263 0.52926 0.0
H897 H 0.55319 0.8233 0.63011 0.0
H898 H 0.57366 0.77504 0.49573 0.0
H899 H 0.56123 0.73534 0.50205 0.0
C900 C 0.28983 0.78282 0.71242 0.0
C901 C 0.29084 0.81025 0.67933 0.0
C902 C 0.23788 0.79083 0.74476 0.0
C903 C 0.23478 0.76088 0.75838 0.0
N904 N 0.25701 0.72742 0.72773 0.0
N905 N 0.26416 0.83962 0.65593 0.0
C906 C 0.26064 0.7566 0.73571 0.0
C907 C 0.26455 0.81433 0.69424 0.0
N908 N 0.31678 0.78157 0.71866 0.0
N909 N 0.216 0.79726 0.78145 0.0
H910 H 0.28325 0.85766 0.62041 0.0
H911 H 0.24414 0.84167 0.65411 0.0
H912 H 0.19648 0.78108 0.82043 0.0
H913 H 0.2189 0.81962 0.78153 0.0
H914 H 0.31764 0.76269 0.74923 0.0
H915 H 0.33858 0.80099 0.70366 0.0
H916 H 0.27481 0.72357 0.70336 0.0
H917 H 0.23545 0.70702 0.73218 0.0
C918 C 0.19133 0.45173 0.73535 0.0
C919 C 0.19489 0.48158 0.71462 0.0
C920 C 0.24923 0.50654 0.76564 0.0
C921 C 0.24592 0.47703 0.79098 0.0
N922 N 0.20992 0.42301 0.83103 0.0
N923 N 0.22262 0.53624 0.75139 0.0
C924 C 0.21571 0.44999 0.78583 0.0
C925 C 0.22219 0.5085 0.74578 0.0
N926 N 0.16579 0.42512 0.70316 0.0
N927 N 0.27796 0.53224 0.75082 0.0
H928 H 0.20248 0.53765 0.73898 0.0
H929 H 0.24159 0.55641 0.7793 0.0
H930 H 0.29868 0.53154 0.74975 0.0
H931 H 0.28075 0.55338 0.7255 0.0
H932 H 0.16424 0.40334 0.70633 0.0
H933 H 0.14687 0.42485 0.66893 0.0
H934 H 0.18762 0.4035 0.83575 0.0
H935 H 0.22654 0.4214 0.87367 0.0
C936 C 0.26487 0.50389 0.26739 0.0
C937 C 0.23802 0.47447 0.28873 0.0
C938 C 0.26723 0.44859 0.23885 0.0
C939 C 0.29398 0.47831 0.22131 0.0
N940 N 0.3213 0.53304 0.2567 0.0
N941 N 0.21728 0.4196 0.32171 0.0
C942 C 0.29382 0.50543 0.25118 0.0
C943 C 0.24028 0.44695 0.28315 0.0
N944 N 0.2624 0.52994 0.25261 0.0
N945 N 0.26682 0.42209 0.20902 0.0
H946 H 0.19786 0.41785 0.3576 0.0
H947 H 0.21911 0.39954 0.32681 0.0
H948 H 0.28648 0.42215 0.18148 0.0
H949 H 0.24659 0.40027 0.20838 0.0
H950 H 0.28117 0.55116 0.22973 0.0
H951 H 0.24108 0.5295 0.24955 0.0
H952 H 0.3227 0.55335 0.28414 0.0
H953 H 0.34279 0.53439 0.24328 0.0
C954 C 0.56141 0.78974 0.26207 0.0
C955 C 0.53512 0.75903 0.26194 0.0
C956 C 0.50169 0.78013 0.21153 0.0
C957 C 0.52833 0.80943 0.1933 0.0
N958 N 0.58413 0.84323 0.20465 0.0
N959 N 0.48122 0.72463 0.21526 0.0
C960 C 0.5584 0.81474 0.22095 0.0
C961 C 0.50542 0.75415 0.23179 0.0
N962 N 0.58894 0.79509 0.30257 0.0
N963 N 0.47268 0.77712 0.20623 0.0
H964 H 0.48348 0.70481 0.2206 0.0
H965 H 0.46002 0.72012 0.1848 0.0
H966 H 0.46964 0.79619 0.1917 0.0
H967 H 0.45233 0.75682 0.22641 0.0
H968 H 0.6079 0.81728 0.31457 0.0
H969 H 0.59215 0.77732 0.33087 0.0
H970 H 0.60698 0.84778 0.21297 0.0
H971 H 0.58258 0.8624 0.18099 0.0
C972 C 0.22731 0.75876 0.31504 0.0
C973 C 0.24599 0.78447 0.25247 0.0
C974 C 0.21171 0.75618 0.11675 0.0
C975 C 0.19759 0.72856 0.17379 0.0
N976 N 0.1911 0.70289 0.32767 0.0
N977 N 0.25821 0.8056 0.08865 0.0
C978 C 0.20478 0.72967 0.27373 0.0
C979 C 0.23849 0.78297 0.15224 0.0
N980 N 0.23111 0.76236 0.41358 0.0
N981 N 0.19966 0.75668 0.02764 0.0
H982 H 0.27902 0.82525 0.10909 0.0
H983 H 0.25545 0.80335 0.01335 0.0
H984 H 0.17999 0.73737 -0.00132 0.0
H985 H 0.20701 0.77718 0.98818 0.0
H986 H 0.21673 0.74531 0.46345 0.0
H987 H 0.24688 0.78363 0.44557 0.0
H988 H 0.19783 0.70145 0.39846 0.0
H989 H 0.17396 0.68161 0.29913 0.0
C990 C 0.11815 0.59756 0.6028 0.0
C991 C 0.14813 0.62243 0.63067 0.0
C992 C 0.17193 0.59133 0.59031 0.0
C993 C 0.1425 0.56629 0.55943 0.0
N994 N 0.08876 0.54862 0.51538 0.0
N995 N 0.20356 0.64715 0.60636 0.0
C996 C 0.11589 0.57033 0.55872 0.0
C997 C 0.17498 0.62069 0.60789 0.0
N998 N 0.09179 0.59916 0.62117 0.0
N999 N 0.19645 0.58674 0.61098 0.0
H1000 H 0.20583 0.66913 0.61577 0.0
H1001 H 0.22386 0.64733 0.58424 0.0
H1002 H 0.19465 0.56485 0.61085 0.0
H1003 H 0.21734 0.60409 0.641 0.0
H1004 H 0.0693 0.58055 0.61059 0.0
H1005 H 0.09198 0.61875 0.64903 0.0
H1006 H 0.06998 0.55212 0.50179 0.0
H1007 H 0.08577 0.52799 0.48546 0.0
C1008 C 0.41203 0.5257 0.62322 0.0
C1009 C 0.38762 0.53185 0.64922 0.0
C1010 C 0.42124 0.5868 0.60827 0.0
C1011 C 0.44537 0.5809 0.57806 0.0
N1012 N 0.46166 0.54361 0.53981 0.0
N1013 N 0.36573 0.5654 0.63235 0.0
C1014 C 0.44013 0.54995 0.58011 0.0
C1015 C 0.39122 0.56148 0.6295 0.0
N1016 N 0.40913 0.49733 0.6432 0.0
N1017 N 0.42746 0.6167 0.62294 0.0
H1018 H 0.34328 0.54672 0.64518 0.0
H1019 H 0.36646 0.58599 0.61107 0.0
H1020 H 0.44978 0.63608 0.61598 0.0
H1021 H 0.4113 0.62197 0.65337 0.0
H1022 H 0.42731 0.4926 0.63549 0.0
H1023 H 0.38878 0.47857 0.67046 0.0
H1024 H 0.45765 0.52111 0.52832 0.0
H1025 H 0.48284 0.56088 0.51097 0.0
C1026 C 0.46211 0.88786 0.54696 0.0
C1027 C 0.43159 0.86111 0.54416 0.0
C1028 C 0.45359 0.82905 0.60059 0.0
C1029 C 0.48187 0.85621 0.62361 0.0
N1030 N 0.51369 0.91226 0.61982 0.0
N1031 N 0.39792 0.80685 0.59098 0.0
C1032 C 0.48658 0.88587 0.59553 0.0
C1033 C 0.42722 0.83167 0.57551 0.0
N1034 N 0.46797 0.91495 0.50235 0.0
N1035 N 0.45171 0.80062 0.60752 0.0
H1036 H 0.37757 0.80816 0.58525 0.0
H1037 H 0.39399 0.78596 0.62212 0.0
H1038 H 0.47103 0.79844 0.62664 0.0
H1039 H 0.43225 0.78 0.58435 0.0
H1040 H 0.49041 0.93394 0.49337 0.0
H1041 H 0.45086 0.91762 0.46665 0.0
H1042 H 0.51675 0.93462 0.61391 0.0
H1043 H 0.53273 0.91163 0.64974 0.0
C1044 C 0.09737 0.32318 0.60162 0.0
C1045 C 0.0674 0.31192 0.64445 0.0
C1046 C 0.06222 0.35293 0.56269 0.0
C1047 C 0.09322 0.36621 0.52519 0.0
N1048 N 0.14254 0.36692 0.5256 0.0
N1049 N 0.02647 0.32235 0.69067 0.0
C1050 C 0.11151 0.35213 0.54901 0.0
C1051 C 0.05156 0.32886 0.63272 0.0
N1052 N 0.11199 0.306 0.60929 0.0
N1053 N 0.0424 0.3628 0.53008 0.0
H1054 H 0.01874 0.30558 0.7458 0.0
H1055 H 0.01577 0.33595 0.69165 0.0
H1056 H 0.04875 0.38047 0.47896 0.0
H1057 H 0.01865 0.35135 0.54704 0.0
H1058 H 0.13234 0.31128 0.57151 0.0
H1059 H 0.1026 0.28524 0.64884 0.0
H1060 H 0.15776 0.35951 0.55002 0.0
H1061 H 0.15371 0.38809 0.4883 0.0
C1062 C 0.69303 0.72839 0.56261 0.0
C1063 C 0.70379 0.75563 0.62089 0.0
C1064 C 0.65626 0.75717 0.57477 0.0
C1065 C 0.64757 0.73172 0.51029 0.0
N1066 N 0.6645 0.70172 0.41809 0.0
N1067 N 0.69865 0.80059 0.66013 0.0
C1068 C 0.66827 0.72026 0.49603 0.0
C1069 C 0.68627 0.77145 0.62094 0.0
N1070 N 0.7049 0.70888 0.57495 0.0
N1071 N 0.63577 0.76743 0.59297 0.0
H1072 H 0.72106 0.81262 0.6896 0.0
H1073 H 0.68795 0.81412 0.654 0.0
H1074 H 0.61456 0.7584 0.55638 0.0
H1075 H 0.63918 0.78347 0.64742 0.0
H1076 H 0.6961 0.68771 0.53822 0.0
H1077 H 0.72042 0.71173 0.63077 0.0
H1078 H 0.68121 0.69563 0.39907 0.0
H1079 H 0.64666 0.69565 0.3672 0.0
C1080 C 0.27851 0.9424 0.67718 0.0
C1081 C 0.25031 0.93904 0.64095 0.0
C1082 C 0.25383 0.90815 0.50641 0.0
C1083 C 0.28577 0.91884 0.5298 0.0
N1084 N 0.33024 0.95725 0.6243 0.0
N1085 N 0.21319 0.92189 0.50836 0.0
C1086 C 0.29869 0.93896 0.61204 0.0
C1087 C 0.23854 0.92288 0.55148 0.0
N1088 N 0.28682 0.94994 0.77199 0.0
N1089 N 0.23742 0.88333 0.44601 0.0
H1090 H 0.2016 0.93252 0.53891 0.0
H1091 H 0.20556 0.91277 0.43893 0.0
H1092 H 0.24614 0.86946 0.4198 0.0
H1093 H 0.21356 0.87398 0.43319 0.0
H1094 H 0.30658 0.95041 0.80129 0.0
H1095 H 0.27244 0.95239 0.82245 0.0
H1096 H 0.33985 0.97306 0.68164 0.0
H1097 H 0.34636 0.96045 0.57009 0.0
C1098 C 0.32768 0.09328 0.8818 0.0
C1099 C 0.31502 0.062 0.84969 0.0
C1100 C 0.35331 0.05639 0.94761 0.0
C1101 C 0.36723 0.08797 0.9772 0.0
N1102 N 0.36942 0.13772 0.96781 0.0
N1103 N 0.32307 0.01859 0.82446 0.0
C1104 C 0.35478 0.10683 0.94351 0.0
C1105 C 0.33008 0.04505 0.87458 0.0
N1106 N 0.31405 0.10997 0.8517 0.0
N1107 N 0.36173 0.03684 0.99158 0.0
H1108 H 0.30724 0.01075 0.76666 0.0
H1109 H 0.33586 0.00715 0.83188 0.0
H1110 H 0.3778 0.04396 0.04866 0.0
H1111 H 0.3503 0.01289 0.9787 0.0
H1112 H 0.31941 0.13163 0.87942 0.0
H1113 H 0.29705 0.10173 0.79739 0.0
H1114 H 0.36326 0.15352 0.94043 0.0
H1115 H 0.38898 0.14812 0.01294 0.0
C1116 C 0.94104 0.24762 0.96015 0.0
C1117 C 0.94507 0.24991 0.85747 0.0
C1118 C 0.9161 0.27825 0.85186 0.0
C1119 C 0.91813 0.28166 0.95522 0.0
N1120 N 0.9387 0.27355 0.1058 0.0
N1121 N 0.93984 0.27185 0.70616 0.0
C1122 C 0.93197 0.26715 0.00925 0.0
C1123 C 0.93327 0.26617 0.80309 0.0
N1124 N 0.94554 0.22645 0.01095 0.0
N1125 N 0.89723 0.28583 0.79992 0.0
H1126 H 0.95282 0.26411 0.6675 0.0
H1127 H 0.93476 0.28671 0.66618 0.0
H1128 H 0.88327 0.29349 0.83263 0.0
H1129 H 0.89276 0.28106 0.72595 0.0
H1130 H 0.94045 0.222 0.08485 0.0
H1131 H 0.95062 0.21078 0.97637 0.0
H1132 H 0.9516 0.26579 0.14513 0.0
H1133 H 0.93469 0.28936 0.14416 0.0
C1134 C 0.75611 0.67389 0.8022 0.0
C1135 C 0.77315 0.70218 0.8545 0.0
C1136 C 0.75878 0.67289 0.00837 0.0
C1137 C 0.7418 0.64438 0.95653 0.0
N1138 N 0.73645 0.61837 0.8025 0.0
N1139 N 0.80155 0.72608 0.00116 0.0
C1140 C 0.74443 0.64508 0.85286 0.0
C1141 C 0.7781 0.70077 0.95558 0.0
N1142 N 0.74945 0.67405 0.70582 0.0
N1143 N 0.75502 0.67437 0.10633 0.0
H1144 H 0.81651 0.74662 0.96376 0.0
H1145 H 0.80837 0.72483 0.07203 0.0
H1146 H 0.73973 0.65538 0.14863 0.0
H1147 H 0.76491 0.69547 0.14396 0.0
H1148 H 0.73376 0.65391 0.66848 0.0
H1149 H 0.75766 0.69429 0.66454 0.0
H1150 H 0.74054 0.61817 0.72815 0.0
H1151 H 0.72939 0.59711 0.83684 0.0
C1152 C 0.89973 0.65926 0.44465 0.0
C1153 C 0.91783 0.64425 0.45567 0.0
C1154 C 0.9566 0.68144 0.34085 0.0
C1155 C 0.94053 0.69841 0.33747 0.0
N1156 N 0.89797 0.70532 0.3898 0.0
N1157 N 0.96764 0.64671 0.43394 0.0
C1158 C 0.91227 0.68775 0.39013 0.0
C1159 C 0.94741 0.65695 0.40905 0.0
N1160 N 0.87053 0.6461 0.48442 0.0
N1161 N 0.98102 0.68902 0.2788 0.0
H1162 H 0.96263 0.62986 0.48738 0.0
H1163 H 0.9907 0.65736 0.40973 0.0
H1164 H 0.98838 0.70699 0.22792 0.0
H1165 H 0.99174 0.67556 0.27105 0.0
H1166 H 0.85478 0.65381 0.47003 0.0
H1167 H 0.86139 0.62637 0.52867 0.0
H1168 H 0.87915 0.7009 0.43439 0.0
H1169 H 0.90607 0.72541 0.34723 0.0
C1170 C 0.31588 0.2372 0.44697 0.0
C1171 C 0.31051 0.24977 0.3607 0.0
C1172 C 0.36053 0.29694 0.3837 0.0
C1173 C 0.36858 0.283 0.46218 0.0
N1174 N 0.35513 0.2344 0.54497 0.0
N1175 N 0.33339 0.2874 0.23079 0.0
C1176 C 0.34664 0.25147 0.48743 0.0
C1177 C 0.3349 0.27792 0.32298 0.0
N1178 N 0.2918 0.21183 0.49085 0.0
N1179 N 0.3752 0.32856 0.37051 0.0
H1180 H 0.31472 0.27452 0.18389 0.0
H1181 H 0.35227 0.30673 0.19842 0.0
H1182 H 0.39107 0.3448 0.41912 0.0
H1183 H 0.36799 0.33892 0.31809 0.0
H1184 H 0.29398 0.20357 0.55858 0.0
H1185 H 0.26914 0.20083 0.46319 0.0
H1186 H 0.34029 0.21071 0.55862 0.0
H1187 H 0.37795 0.24243 0.56823 0.0
C1188 C 0.77492 0.09529 0.36747 0.0
C1189 C 0.75899 0.06208 0.37033 0.0
C1190 C 0.7249 0.0632 0.49923 0.0
C1191 C 0.73694 0.09539 0.48388 0.0
N1192 N 0.77146 0.1419 0.39442 0.0
N1193 N 0.71277 0.01457 0.42438 0.0
C1194 C 0.7614 0.11141 0.41519 0.0
C1195 C 0.73235 0.04606 0.43252 0.0
N1196 N 0.80355 0.11165 0.32405 0.0
N1197 N 0.70597 0.04877 0.57726 0.0
H1198 H 0.71542 0.00089 0.37205 0.0
H1199 H 0.69165 0.00265 0.46199 0.0
H1200 H 0.70001 0.06072 0.62757 0.0
H1201 H 0.69902 0.02586 0.59716 0.0
H1202 H 0.81727 0.13585 0.32819 0.0
H1203 H 0.81518 0.10108 0.29306 0.0
H1204 H 0.78658 0.1539 0.33709 0.0
H1205 H 0.76301 0.15441 0.43176 0.0
C1206 C 0.66151 0.94785 0.04326 0.0
C1207 C 0.64671 0.91559 0.02288 0.0
C1208 C 0.6863 0.9115 0.12113 0.0
C1209 C 0.69957 0.94348 0.14701 0.0
N1210 N 0.69417 0.98938 0.15319 0.0
N1211 N 0.64278 0.86561 0.04664 0.0
C1212 C 0.68531 0.96072 0.11432 0.0
C1213 C 0.65851 0.89703 0.0629 0.0
N1214 N 0.65304 0.9664 0.99308 0.0
N1215 N 0.70052 0.89525 0.1504 0.0
H1216 H 0.62325 0.85489 0.00122 0.0
H1217 H 0.64803 0.85004 0.08124 0.0
H1218 H 0.71917 0.90444 0.19903 0.0
H1219 H 0.69446 0.87315 0.12483 0.0
H1220 H 0.66513 0.99065 0.9977 0.0
H1221 H 0.63596 0.95775 0.93894 0.0
H1222 H 0.68238 0.00157 0.13989 0.0
H1223 H 0.71135 0.99957 0.20654 0.0
C1224 C 0.047 0.73728 0.02903 0.0
C1225 C 0.05978 0.75785 0.11041 0.0
C1226 C 0.10697 0.75312 0.09586 0.0
C1227 C 0.09511 0.73545 0.00923 0.0
N1228 N 0.05854 0.7207 0.87688 0.0
N1229 N 0.10716 0.79291 0.19837 0.0
C1230 C 0.0669 0.73127 0.96979 0.0
C1231 C 0.09136 0.76808 0.13747 0.0
N1232 N 0.0155 0.72114 0.01214 0.0
N1233 N 0.13292 0.75543 0.13918 0.0
H1234 H 0.09788 0.80641 0.22379 0.0
H1235 H 0.1309 0.80251 0.2135 0.0
H1236 H 0.14529 0.74548 0.10919 0.0
H1237 H 0.14067 0.76531 0.2077 0.0
H1238 H 0.00545 0.70465 0.9569 0.0
H1239 H 0.99902 0.72059 0.06054 0.0
H1240 H 0.0393 0.71989 0.8424 0.0
H1241 H 0.07246 0.71569 0.83181 0.0
C1242 C 0.22858 0.32035 0.10483 0.0
C1243 C 0.24713 0.30994 0.15351 0.0
C1244 C 0.29386 0.35082 0.07492 0.0
C1245 C 0.27638 0.36339 0.0308 0.0
N1246 N 0.2273 0.3629 0.01911 0.0
N1247 N 0.29786 0.3227 0.21242 0.0
C1248 C 0.24364 0.34891 0.04979 0.0
C1249 C 0.2799 0.32768 0.14735 0.0
N1250 N 0.1968 0.3029 0.11086 0.0
N1251 N 0.32381 0.36033 0.04596 0.0
H1252 H 0.28811 0.30624 0.26831 0.0
H1253 H 0.32198 0.33742 0.21758 0.0
H1254 H 0.33504 0.37654 0.99059 0.0
H1255 H 0.33622 0.34963 0.0701 0.0
H1256 H 0.18171 0.30748 0.07023 0.0
H1257 H 0.18562 0.28276 0.15353 0.0
H1258 H 0.20419 0.35516 0.03878 0.0
H1259 H 0.23756 0.38364 0.97941 0.0
C1260 C 0.99384 0.4323 0.21831 0.0
C1261 C 0.98261 0.40347 0.16898 0.0
C1262 C 0.02378 0.39662 0.2434 0.0
C1263 C 0.03654 0.42633 0.28989 0.0
N1264 N 0.03654 0.47505 0.30529 0.0
N1265 N 0.99278 0.36367 0.11051 0.0
C1266 C 0.0223 0.44494 0.27316 0.0
C1267 C 0.99965 0.38756 0.1738 0.0
N1268 N 0.97709 0.44737 0.21376 0.0
N1269 N 0.03369 0.37617 0.26831 0.0
H1270 H 0.97558 0.35696 0.05705 0.0
H1271 H 0.00637 0.35304 0.10382 0.0
H1272 H 0.05099 0.38096 0.31956 0.0
H1273 H 0.0225 0.35305 0.24505 0.0
H1274 H 0.9813 0.46611 0.25817 0.0
H1275 H 0.9583 0.44031 0.16635 0.0
H1276 H 0.02922 0.49077 0.28608 0.0
H1277 H 0.0571 0.48517 0.34563 0.0
C1278 C 0.6342 0.61184 0.27713 0.0
C1279 C 0.61873 0.58686 0.20957 0.0
C1280 C 0.56922 0.58457 0.25235 0.0
C1281 C 0.58475 0.60734 0.32578 0.0
N1282 N 0.62954 0.63325 0.42987 0.0
N1283 N 0.56923 0.54366 0.15562 0.0
C1284 C 0.61637 0.6176 0.34579 0.0
C1285 C 0.58548 0.57142 0.20341 0.0
N1286 N 0.66575 0.6317 0.27172 0.0
N1287 N 0.53919 0.57589 0.22811 0.0
H1288 H 0.57986 0.53214 0.12437 0.0
H1289 H 0.54489 0.53043 0.15656 0.0
H1290 H 0.52657 0.58424 0.2656 0.0
H1291 H 0.52779 0.562 0.16801 0.0
H1292 H 0.67746 0.65111 0.31668 0.0
H1293 H 0.67943 0.63133 0.21444 0.0
H1294 H 0.65193 0.63862 0.45174 0.0
H1295 H 0.61679 0.63776 0.48156 0.0
C1296 C 0.41522 0.97779 0.19453 0.0
C1297 C 0.41153 0.97635 0.29786 0.0
C1298 C 0.44235 0.03342 0.30053 0.0
C1299 C 0.43895 0.03462 0.19782 0.0
N1300 N 0.41876 0.00626 0.04745 0.0
N1301 N 0.4199 0.0046 0.44892 0.0
C1302 C 0.42498 0.0064 0.14441 0.0
C1303 C 0.42512 0.00463 0.35127 0.0
N1304 N 0.40928 0.95169 0.14393 0.0
N1305 N 0.46223 0.05992 0.34979 0.0
H1306 H 0.40695 0.98443 0.48983 0.0
H1307 H 0.42629 0.02495 0.48803 0.0
H1308 H 0.47581 0.08103 0.31411 0.0
H1309 H 0.46784 0.06006 0.423 0.0
H1310 H 0.41432 0.95201 0.07015 0.0
H1311 H 0.40256 0.93052 0.1782 0.0
H1312 H 0.4052 0.98579 0.00842 0.0
H1313 H 0.42466 0.02636 0.00751 0.0
C1314 C 0.58289 0.99809 0.82534 0.0
C1315 C 0.59106 0.97566 0.79536 0.0
C1316 C 0.62141 0.01045 0.66066 0.0
C1317 C 0.61734 0.03463 0.69981 0.0
N1318 N 0.60259 0.05324 0.84222 0.0
N1319 N 0.62914 0.96785 0.70603 0.0
C1320 C 0.60053 0.02909 0.78894 0.0
C1321 C 0.61334 0.98376 0.7186 0.0
N1322 N 0.55813 0.99012 0.886 0.0
N1323 N 0.63432 0.01326 0.57073 0.0
H1324 H 0.62771 0.95106 0.75502 0.0
H1325 H 0.64715 0.97461 0.65546 0.0
H1326 H 0.64192 0.03291 0.52674 0.0
H1327 H 0.63513 0.99478 0.53711 0.0
H1328 H 0.55031 0.00562 0.90322 0.0
H1329 H 0.54331 0.96735 0.90953 0.0
H1330 H 0.59237 0.05016 0.91076 0.0
H1331 H 0.61777 0.07641 0.82399 0.0
C1332 C 0.01458 0.62762 0.81104 0.0
C1333 C 0.03219 0.61237 0.81662 0.0
C1334 C 0.99233 0.5695 0.71745 0.0
C1335 C 0.97786 0.58775 0.69918 0.0
N1336 N 0.97977 0.63744 0.71439 0.0
N1337 N 0.03804 0.56811 0.77894 0.0
C1338 C 0.99036 0.61776 0.74193 0.0
C1339 C 0.02108 0.58295 0.77113 0.0
N1340 N 0.02031 0.65096 0.87487 0.0
N1341 N 0.97812 0.53923 0.68678 0.0
H1342 H 0.05843 0.57706 0.82041 0.0
H1343 H 0.03282 0.54785 0.74127 0.0
H1344 H 0.95728 0.52889 0.64743 0.0
H1345 H 0.98573 0.52372 0.70569 0.0
H1346 H 0.00563 0.66036 0.88133 0.0
H1347 H 0.03736 0.658 0.92899 0.0
H1348 H 0.99027 0.6606 0.73718 0.0
H1349 H 0.96273 0.63177 0.66106 0.0
C1350 C 0.44296 0.43071 0.71251 0.0
C1351 C 0.42583 0.4009 0.66849 0.0
C1352 C 0.37784 0.39267 0.74813 0.0
C1353 C 0.39438 0.42301 0.78937 0.0
N1354 N 0.44192 0.47279 0.80098 0.0
N1355 N 0.37602 0.35672 0.62637 0.0
C1356 C 0.42684 0.4426 0.76921 0.0
C1357 C 0.39295 0.3831 0.68044 0.0
N1358 N 0.47464 0.44728 0.70149 0.0
N1359 N 0.3479 0.37219 0.77727 0.0
H1360 H 0.38644 0.3484 0.57846 0.0
H1361 H 0.35169 0.34475 0.62232 0.0
H1362 H 0.33559 0.37782 0.82697 0.0
H1363 H 0.33615 0.34859 0.75937 0.0
H1364 H 0.48933 0.46724 0.74107 0.0
H1365 H 0.48628 0.44029 0.65339 0.0
H1366 H 0.46464 0.4892 0.78094 0.0
H1367 H 0.43095 0.48229 0.84197 0.0
loop_
_geom_bond_atom_site_label_1
_geom_bond_atom_site_label_2
_geom_bond_distance
_geom_bond_site_symmetry_2
_ccdc_geom_bond_type
Sc0 O3 2.025 . S
Sc0 O10 2.105 . S
Sc0 O13 2.105 1_455 S
Sc0 O16 2.105 1_455 S
Sc0 O19 2.105 . S
Sc1 O3 2.025 . S
Sc1 O11 2.105 . S
Sc1 O15 2.105 1_455 S
Sc1 O17 2.105 1_455 S
Sc1 O21 2.105 . S
Sc2 O3 2.026 1_655 S
Sc2 O12 2.106 1_655 S
Sc2 O14 2.104 . S
Sc2 O18 2.102 . S
Sc2 O20 2.108 1_655 S
O3 Sc0 2.025 . S
O3 Sc1 2.025 . S
O3 Sc2 2.026 1_455 S
C4 O10 1.268 . S
C4 O20 1.268 . S
C5 O11 1.268 . S
C5 O19 1.268 . S
C6 O12 1.268 . S
C6 O21 1.268 . S
C7 O13 1.268 . S
C7 O17 1.268 . S
C8 O14 1.268 . S
C8 O16 1.268 . S
C9 O15 1.268 . S
C9 O18 1.268 . S
O10 Sc0 2.105 . S
O10 C4 1.268 . S
O11 Sc1 2.105 . S
O11 C5 1.268 . S
O12 Sc2 2.106 1_455 S
O12 C6 1.268 . S
O13 Sc0 2.105 1_655 S
O13 C7 1.268 . S
O14 Sc2 2.104 . S
O14 C8 1.268 . S
O15 Sc1 2.105 1_655 S
O15 C9 1.268 . S
O16 Sc0 2.105 1_655 S
O16 C8 1.268 . S
O17 Sc1 2.105 1_655 S
O17 C7 1.268 . S
O18 Sc2 2.102 . S
O18 C9 1.268 . S
O19 Sc0 2.105 . S
O19 C5 1.268 . S
O20 Sc2 2.108 1_455 S
O20 C4 1.268 . S
O21 Sc1 2.105 . S
O21 C6 1.268 . S
Sc22 O25 2.025 . S
Sc22 O32 2.105 . S
Sc22 O35 2.105 . S
Sc22 O38 2.105 . S
Sc22 O41 2.105 . S
Sc23 O25 2.025 . S
Sc23 O33 2.105 . S
Sc23 O37 2.105 . S
Sc23 O39 2.105 . S
Sc23 O43 2.105 . S
Sc24 O25 2.025 . S
Sc24 O34 2.105 . S
Sc24 O36 2.105 . S
Sc24 O40 2.105 . S
Sc24 O42 2.105 . S
O25 Sc22 2.025 . S
O25 Sc23 2.025 . S
O25 Sc24 2.025 . S
C26 O32 1.268 . S
C26 O42 1.268 . S
C27 O33 1.268 . S
C27 O41 1.268 . S
C28 O34 1.268 . S
C28 O43 1.268 . S
C29 O35 1.268 . S
C29 O39 1.268 . S
C30 O36 1.268 . S
C30 O38 1.268 . S
C31 O37 1.268 . S
C31 O40 1.268 . S
O32 Sc22 2.105 . S
O32 C26 1.268 . S
O33 Sc23 2.105 . S
O33 C27 1.268 . S
O34 Sc24 2.105 . S
O34 C28 1.268 . S
O35 Sc22 2.105 . S
O35 C29 1.268 . S
O36 Sc24 2.105 . S
O36 C30 1.268 . S
O37 Sc23 2.105 . S
O37 C31 1.268 . S
O38 Sc22 2.105 . S
O38 C30 1.268 . S
O39 Sc23 2.105 . S
O39 C29 1.268 . S
O40 Sc24 2.105 . S
O40 C31 1.268 . S
O41 Sc22 2.105 . S
O41 C27 1.268 . S
O42 Sc24 2.105 . S
O42 C26 1.268 . S
O43 Sc23 2.105 . S
O43 C28 1.268 . S
Sc44 O47 2.025 . S
Sc44 O54 2.105 1_545 S
Sc44 O57 2.105 . S
Sc44 O60 2.105 . S
Sc44 O63 2.105 1_545 S
Sc45 O47 2.027 1_565 S
Sc45 O55 2.104 . S
Sc45 O59 2.106 1_565 S
Sc45 O61 2.108 1_565 S
Sc45 O65 2.102 . S
Sc46 O47 2.025 . S
Sc46 O56 2.105 1_545 S
Sc46 O58 2.105 . S
Sc46 O62 2.105 . S
Sc46 O64 2.105 1_545 S
O47 Sc44 2.025 . S
O47 Sc45 2.027 1_545 S
O47 Sc46 2.025 . S
C48 O54 1.268 . S
C48 O64 1.268 . S
C49 O55 1.268 . S
C49 O63 1.268 . S
C50 O56 1.268 . S
C50 O65 1.268 . S
C51 O57 1.268 . S
C51 O61 1.268 . S
C52 O58 1.268 . S
C52 O60 1.268 . S
C53 O59 1.268 . S
C53 O62 1.268 . S
O54 Sc44 2.105 1_565 S
O54 C48 1.268 . S
O55 Sc45 2.104 . S
O55 C49 1.268 . S
O56 Sc46 2.105 1_565 S
O56 C50 1.268 . S
O57 Sc44 2.105 . S
O57 C51 1.268 . S
O58 Sc46 2.105 . S
O58 C52 1.268 . S
O59 Sc45 2.106 1_545 S
O59 C53 1.268 . S
O60 Sc44 2.105 . S
O60 C52 1.268 . S
O61 Sc45 2.108 1_545 S
O61 C51 1.268 . S
O62 Sc46 2.105 . S
O62 C53 1.268 . S
O63 Sc44 2.105 1_565 S
O63 C49 1.268 . S
O64 Sc46 2.105 1_565 S
O64 C48 1.268 . S
O65 Sc45 2.102 . S
O65 C50 1.268 . S
Sc66 O69 2.025 . S
Sc66 O76 2.105 . S
Sc66 O79 2.105 1_455 S
Sc66 O82 2.105 1_455 S
Sc66 O85 2.105 . S
Sc67 O69 2.025 1_655 S
Sc67 O77 2.106 1_655 S
Sc67 O81 2.104 . S
Sc67 O83 2.102 . S
Sc67 O87 2.108 1_655 S
Sc68 O69 2.025 . S
Sc68 O78 2.105 . S
Sc68 O80 2.105 1_455 S
Sc68 O84 2.105 1_455 S
Sc68 O86 2.105 . S
O69 Sc66 2.025 . S
O69 Sc67 2.025 1_455 S
O69 Sc68 2.025 . S
C70 O76 1.268 . S
C70 O86 1.268 . S
C71 O77 1.268 . S
C71 O85 1.268 . S
C72 O78 1.268 . S
C72 O87 1.268 . S
C73 O79 1.268 . S
C73 O83 1.268 . S
C74 O80 1.268 . S
C74 O82 1.268 . S
C75 O81 1.268 . S
C75 O84 1.268 . S
O76 Sc66 2.105 . S
O76 C70 1.268 . S
O77 Sc67 2.106 1_455 S
O77 C71 1.268 . S
O78 Sc68 2.105 . S
O78 C72 1.268 . S
O79 Sc66 2.105 1_655 S
O79 C73 1.268 . S
O80 Sc68 2.105 1_655 S
O80 C74 1.268 . S
O81 Sc67 2.104 . S
O81 C75 1.268 . S
O82 Sc66 2.105 1_655 S
O82 C74 1.268 . S
O83 Sc67 2.102 . S
O83 C73 1.268 . S
O84 Sc68 2.105 1_655 S
O84 C75 1.268 . S
O85 Sc66 2.105 . S
O85 C71 1.268 . S
O86 Sc68 2.105 . S
O86 C70 1.268 . S
O87 Sc67 2.108 1_455 S
O87 C72 1.268 . S
Sc88 O91 2.025 . S
Sc88 O98 2.105 . S
Sc88 O101 2.105 . S
Sc88 O104 2.105 . S
Sc88 O107 2.105 . S
Sc89 O91 2.025 . S
Sc89 O99 2.105 . S
Sc89 O103 2.105 . S
Sc89 O105 2.105 . S
Sc89 O109 2.105 . S
Sc90 O91 2.025 . S
Sc90 O100 2.105 . S
Sc90 O102 2.105 . S
Sc90 O106 2.105 . S
Sc90 O108 2.105 . S
O91 Sc88 2.025 . S
O91 Sc89 2.025 . S
O91 Sc90 2.025 . S
C92 O98 1.268 . S
C92 O108 1.268 . S
C93 O99 1.268 . S
C93 O107 1.268 . S
C94 O100 1.268 . S
C94 O109 1.268 . S
C95 O101 1.268 . S
C95 O105 1.268 . S
C96 O102 1.268 . S
C96 O104 1.268 . S
C97 O103 1.268 . S
C97 O106 1.268 . S
O98 Sc88 2.105 . S
O98 C92 1.268 . S
O99 Sc89 2.105 . S
O99 C93 1.268 . S
O100 Sc90 2.105 . S
O100 C94 1.268 . S
O101 Sc88 2.105 . S
O101 C95 1.268 . S
O102 Sc90 2.105 . S
O102 C96 1.268 . S
O103 Sc89 2.105 . S
O103 C97 1.268 . S
O104 Sc88 2.105 . S
O104 C96 1.268 . S
O105 Sc89 2.105 . S
O105 C95 1.268 . S
O106 Sc90 2.105 . S
O106 C97 1.268 . S
O107 Sc88 2.105 . S
O107 C93 1.268 . S
O108 Sc90 2.105 . S
O108 C92 1.268 . S
O109 Sc89 2.105 . S
O109 C94 1.268 . S
Sc110 O113 2.025 . S
Sc110 O120 2.105 1_545 S
Sc110 O123 2.105 . S
Sc110 O126 2.105 . S
Sc110 O129 2.105 1_545 S
Sc111 O113 2.025 . S
Sc111 O121 2.105 1_545 S
Sc111 O125 2.105 . S
Sc111 O127 2.105 . S
Sc111 O131 2.105 1_545 S
Sc112 O113 2.025 1_565 S
Sc112 O122 2.104 . S
Sc112 O124 2.106 1_565 S
Sc112 O128 2.108 1_565 S
Sc112 O130 2.102 . S
O113 Sc110 2.025 . S
O113 Sc111 2.025 . S
O113 Sc112 2.025 1_545 S
C114 O120 1.268 . S
C114 O130 1.268 . S
C115 O121 1.268 . S
C115 O129 1.268 . S
C116 O122 1.268 . S
C116 O131 1.268 . S
C117 O123 1.268 . S
C117 O127 1.268 . S
C118 O124 1.268 . S
C118 O126 1.268 . S
C119 O125 1.268 . S
C119 O128 1.268 . S
O120 Sc110 2.105 1_565 S
O120 C114 1.268 . S
O121 Sc111 2.105 1_565 S
O121 C115 1.268 . S
O122 Sc112 2.104 . S
O122 C116 1.268 . S
O123 Sc110 2.105 . S
O123 C117 1.268 . S
O124 Sc112 2.106 1_545 S
O124 C118 1.268 . S
O125 Sc111 2.105 . S
O125 C119 1.268 . S
O126 Sc110 2.105 . S
O126 C118 1.268 . S
O127 Sc111 2.105 . S
O127 C117 1.268 . S
O128 Sc112 2.108 1_545 S
O128 C119 1.268 . S
O129 Sc110 2.105 1_565 S
O129 C115 1.268 . S
O130 Sc112 2.102 . S
O130 C114 1.268 . S
O131 Sc111 2.105 1_565 S
O131 C116 1.268 . S
Sc132 O135 2.025 . S
Sc132 O142 2.105 1_554 S
Sc132 O145 2.105 . S
Sc132 O148 2.105 1_554 S
Sc132 O151 2.105 . S
Sc133 O135 2.025 . S
Sc133 O143 2.105 . S
Sc133 O147 2.105 . S
Sc133 O149 2.105 . S
Sc133 O153 2.105 . S
Sc134 O135 2.025 1_556 S
Sc134 O144 2.105 . S
Sc134 O146 2.105 . S
Sc134 O150 2.105 1_556 S
Sc134 O152 2.105 . S
O135 Sc132 2.025 . S
O135 Sc133 2.025 . S
O135 Sc134 2.025 1_554 S
C136 O142 1.268 . S
C136 O152 1.268 . S
C137 O143 1.268 . S
C137 O151 1.268 . S
C138 O144 1.268 1_554 S
C138 O153 1.268 . S
C139 O145 1.268 . S
C139 O149 1.268 . S
C140 O146 1.268 . S
C140 O148 1.268 . S
C141 O147 1.268 . S
C141 O150 1.268 . S
O142 Sc132 2.105 1_556 S
O142 C136 1.268 . S
O143 Sc133 2.105 . S
O143 C137 1.268 . S
O144 Sc134 2.105 . S
O144 C138 1.268 1_556 S
O145 Sc132 2.105 . S
O145 C139 1.268 . S
O146 Sc134 2.105 . S
O146 C140 1.268 . S
O147 Sc133 2.105 . S
O147 C141 1.268 . S
O148 Sc132 2.105 1_556 S
O148 C140 1.268 . S
O149 Sc133 2.105 . S
O149 C139 1.268 . S
O150 Sc134 2.105 1_554 S
O150 C141 1.268 . S
O151 Sc132 2.105 . S
O151 C137 1.268 . S
O152 Sc134 2.105 . S
O152 C136 1.268 . S
O153 Sc133 2.105 . S
O153 C138 1.268 . S
Sc154 O157 2.025 . S
Sc154 O164 2.105 1_554 S
Sc154 O167 2.105 . S
Sc154 O170 2.105 1_554 S
Sc154 O173 2.105 . S
Sc155 O157 2.025 . S
Sc155 O165 2.105 . S
Sc155 O169 2.105 . S
Sc155 O171 2.105 . S
Sc155 O175 2.105 . S
Sc156 O157 2.025 1_556 S
Sc156 O166 2.105 . S
Sc156 O168 2.105 . S
Sc156 O172 2.105 1_556 S
Sc156 O174 2.105 . S
O157 Sc154 2.025 . S
O157 Sc155 2.025 . S
O157 Sc156 2.025 1_554 S
C158 O164 1.268 . S
C158 O174 1.268 . S
C159 O165 1.268 . S
C159 O173 1.268 . S
C160 O166 1.268 1_554 S
C160 O175 1.268 . S
C161 O167 1.268 . S
C161 O171 1.268 . S
C162 O168 1.268 . S
C162 O170 1.268 . S
C163 O169 1.268 . S
C163 O172 1.268 . S
O164 Sc154 2.105 1_556 S
O164 C158 1.268 . S
O165 Sc155 2.105 . S
O165 C159 1.268 . S
O166 Sc156 2.105 . S
O166 C160 1.268 1_556 S
O167 Sc154 2.105 . S
O167 C161 1.268 . S
O168 Sc156 2.105 . S
O168 C162 1.268 . S
O169 Sc155 2.105 . S
O169 C163 1.268 . S
O170 Sc154 2.105 1_556 S
O170 C162 1.268 . S
O171 Sc155 2.105 . S
O171 C161 1.268 . S
O172 Sc156 2.105 1_554 S
O172 C163 1.268 . S
O173 Sc154 2.105 . S
O173 C159 1.268 . S
O174 Sc156 2.105 . S
O174 C158 1.268 . S
O175 Sc155 2.105 . S
O175 C160 1.268 . S
Sc176 O179 2.025 . S
Sc176 O186 2.105 1_554 S
Sc176 O189 2.105 . S
Sc176 O192 2.105 1_554 S
Sc176 O195 2.105 . S
Sc177 O179 2.025 . S
Sc177 O187 2.105 . S
Sc177 O191 2.105 . S
Sc177 O193 2.105 . S
Sc177 O197 2.105 . S
Sc178 O179 2.025 1_556 S
Sc178 O188 2.105 . S
Sc178 O190 2.105 . S
Sc178 O194 2.105 1_556 S
Sc178 O196 2.105 . S
O179 Sc176 2.025 . S
O179 Sc177 2.025 . S
O179 Sc178 2.025 1_554 S
C180 O186 1.268 . S
C180 O196 1.268 . S
C181 O187 1.268 . S
C181 O195 1.268 . S
C182 O188 1.268 1_554 S
C182 O197 1.268 . S
C183 O189 1.268 . S
C183 O193 1.268 . S
C184 O190 1.268 . S
C184 O192 1.268 . S
C185 O191 1.268 . S
C185 O194 1.268 . S
O186 Sc176 2.105 1_556 S
O186 C180 1.268 . S
O187 Sc177 2.105 . S
O187 C181 1.268 . S
O188 Sc178 2.105 . S
O188 C182 1.268 1_556 S
O189 Sc176 2.105 . S
O189 C183 1.268 . S
O190 Sc178 2.105 . S
O190 C184 1.268 . S
O191 Sc177 2.105 . S
O191 C185 1.268 . S
O192 Sc176 2.105 1_556 S
O192 C184 1.268 . S
O193 Sc177 2.105 . S
O193 C183 1.268 . S
O194 Sc178 2.105 1_554 S
O194 C185 1.268 . S
O195 Sc176 2.105 . S
O195 C181 1.268 . S
O196 Sc178 2.105 . S
O196 C180 1.268 . S
O197 Sc177 2.105 . S
O197 C182 1.268 . S
Sc198 O201 2.025 . S
Sc198 O208 2.105 . S
Sc198 O211 2.105 . S
Sc198 O214 2.105 . S
Sc198 O217 2.105 . S
Sc199 O201 2.025 . S
Sc199 O209 2.105 . S
Sc199 O213 2.105 . S
Sc199 O215 2.105 . S
Sc199 O219 2.105 . S
Sc200 O201 2.025 . S
Sc200 O210 2.105 . S
Sc200 O212 2.105 . S
Sc200 O216 2.105 . S
Sc200 O218 2.105 . S
O201 Sc198 2.025 . S
O201 Sc199 2.025 . S
O201 Sc200 2.025 . S
C202 O208 1.268 . S
C202 O218 1.268 . S
C203 O209 1.268 . S
C203 O217 1.268 . S
C204 O210 1.268 . S
C204 O219 1.268 . S
C205 O211 1.268 . S
C205 O215 1.268 . S
C206 O212 1.268 . S
C206 O214 1.268 . S
C207 O213 1.268 . S
C207 O216 1.268 . S
O208 Sc198 2.105 . S
O208 C202 1.268 . S
O209 Sc199 2.105 . S
O209 C203 1.268 . S
O210 Sc200 2.105 . S
O210 C204 1.268 . S
O211 Sc198 2.105 . S
O211 C205 1.268 . S
O212 Sc200 2.105 . S
O212 C206 1.268 . S
O213 Sc199 2.105 . S
O213 C207 1.268 . S
O214 Sc198 2.105 . S
O214 C206 1.268 . S
O215 Sc199 2.105 . S
O215 C205 1.268 . S
O216 Sc200 2.105 . S
O216 C207 1.268 . S
O217 Sc198 2.105 . S
O217 C203 1.268 . S
O218 Sc200 2.105 . S
O218 C202 1.268 . S
O219 Sc199 2.105 . S
O219 C204 1.268 . S
Sc220 O223 2.025 . S
Sc220 O230 2.105 . S
Sc220 O233 2.105 . S
Sc220 O236 2.105 . S
Sc220 O239 2.105 . S
Sc221 O223 2.025 . S
Sc221 O231 2.105 . S
Sc221 O235 2.105 . S
Sc221 O237 2.105 . S
Sc221 O241 2.105 . S
Sc222 O223 2.025 . S
Sc222 O232 2.105 . S
Sc222 O234 2.105 . S
Sc222 O238 2.105 . S
Sc222 O240 2.105 . S
O223 Sc220 2.025 . S
O223 Sc221 2.025 . S
O223 Sc222 2.025 . S
C224 O230 1.268 . S
C224 O240 1.268 . S
C225 O231 1.268 . S
C225 O239 1.268 . S
C226 O232 1.268 . S
C226 O241 1.268 . S
C227 O233 1.268 . S
C227 O237 1.268 . S
C228 O234 1.268 . S
C228 O236 1.268 . S
C229 O235 1.268 . S
C229 O238 1.268 . S
O230 Sc220 2.105 . S
O230 C224 1.268 . S
O231 Sc221 2.105 . S
O231 C225 1.268 . S
O232 Sc222 2.105 . S
O232 C226 1.268 . S
O233 Sc220 2.105 . S
O233 C227 1.268 . S
O234 Sc222 2.105 . S
O234 C228 1.268 . S
O235 Sc221 2.105 . S
O235 C229 1.268 . S
O236 Sc220 2.105 . S
O236 C228 1.268 . S
O237 Sc221 2.105 . S
O237 C227 1.268 . S
O238 Sc222 2.105 . S
O238 C229 1.268 . S
O239 Sc220 2.105 . S
O239 C225 1.268 . S
O240 Sc222 2.105 . S
O240 C224 1.268 . S
O241 Sc221 2.105 . S
O241 C226 1.268 . S
Sc242 O245 2.025 . S
Sc242 O252 2.105 . S
Sc242 O255 2.105 . S
Sc242 O258 2.105 . S
Sc242 O261 2.105 . S
Sc243 O245 2.025 . S
Sc243 O253 2.105 . S
Sc243 O257 2.105 . S
Sc243 O259 2.105 . S
Sc243 O263 2.105 . S
Sc244 O245 2.025 . S
Sc244 O254 2.105 . S
Sc244 O256 2.105 . S
Sc244 O260 2.105 . S
Sc244 O262 2.105 . S
O245 Sc242 2.025 . S
O245 Sc243 2.025 . S
O245 Sc244 2.025 . S
C246 O252 1.268 . S
C246 O262 1.268 . S
C247 O253 1.268 . S
C247 O261 1.268 . S
C248 O254 1.268 . S
C248 O263 1.268 . S
C249 O255 1.268 . S
C249 O259 1.268 . S
C250 O256 1.268 . S
C250 O258 1.268 . S
C251 O257 1.268 . S
C251 O260 1.268 . S
O252 Sc242 2.105 . S
O252 C246 1.268 . S
O253 Sc243 2.105 . S
O253 C247 1.268 . S
O254 Sc244 2.105 . S
O254 C248 1.268 . S
O255 Sc242 2.105 . S
O255 C249 1.268 . S
O256 Sc244 2.105 . S
O256 C250 1.268 . S
O257 Sc243 2.105 . S
O257 C251 1.268 . S
O258 Sc242 2.105 . S
O258 C250 1.268 . S
O259 Sc243 2.105 . S
O259 C249 1.268 . S
O260 Sc244 2.105 . S
O260 C251 1.268 . S
O261 Sc242 2.105 . S
O261 C247 1.268 . S
O262 Sc244 2.105 . S
O262 C246 1.268 . S
O263 Sc243 2.105 . S
O263 C248 1.268 . S
Sc264 O267 2.025 . S
Sc264 O274 2.105 . S
Sc264 O277 2.105 . S
Sc264 O280 2.105 . S
Sc264 O283 2.105 . S
Sc265 O267 2.025 . S
Sc265 O275 2.105 . S
Sc265 O279 2.105 . S
Sc265 O281 2.105 . S
Sc265 O285 2.105 . S
Sc266 O267 2.025 . S
Sc266 O276 2.105 . S
Sc266 O278 2.105 . S
Sc266 O282 2.105 . S
Sc266 O284 2.105 . S
O267 Sc264 2.025 . S
O267 Sc265 2.025 . S
O267 Sc266 2.025 . S
C268 O274 1.268 . S
C268 O284 1.268 . S
C269 O275 1.268 . S
C269 O283 1.268 . S
C270 O276 1.268 . S
C270 O285 1.268 . S
C271 O277 1.268 . S
C271 O281 1.268 . S
C272 O278 1.268 . S
C272 O280 1.268 . S
C273 O279 1.268 . S
C273 O282 1.268 . S
O274 Sc264 2.105 . S
O274 C268 1.268 . S
O275 Sc265 2.105 . S
O275 C269 1.268 . S
O276 Sc266 2.105 . S
O276 C270 1.268 . S
O277 Sc264 2.105 . S
O277 C271 1.268 . S
O278 Sc266 2.105 . S
O278 C272 1.268 . S
O279 Sc265 2.105 . S
O279 C273 1.268 . S
O280 Sc264 2.105 . S
O280 C272 1.268 . S
O281 Sc265 2.105 . S
O281 C271 1.268 . S
O282 Sc266 2.105 . S
O282 C273 1.268 . S
O283 Sc264 2.105 . S
O283 C269 1.268 . S
O284 Sc266 2.105 . S
O284 C268 1.268 . S
O285 Sc265 2.105 . S
O285 C270 1.268 . S
Sc286 O289 2.025 . S
Sc286 O296 2.105 . S
Sc286 O299 2.105 . S
Sc286 O302 2.105 . S
Sc286 O305 2.105 . S
Sc287 O289 2.025 . S
Sc287 O297 2.105 . S
Sc287 O301 2.105 . S
Sc287 O303 2.105 . S
Sc287 O307 2.105 . S
Sc288 O289 2.025 . S
Sc288 O298 2.105 . S
Sc288 O300 2.105 . S
Sc288 O304 2.105 . S
Sc288 O306 2.105 . S
O289 Sc286 2.025 . S
O289 Sc287 2.025 . S
O289 Sc288 2.025 . S
C290 O296 1.268 . S
C290 O306 1.268 . S
C291 O297 1.268 . S
C291 O305 1.268 . S
C292 O298 1.268 . S
C292 O307 1.268 . S
C293 O299 1.268 . S
C293 O303 1.268 . S
C294 O300 1.268 . S
C294 O302 1.268 . S
C295 O301 1.268 . S
C295 O304 1.268 . S
O296 Sc286 2.105 . S
O296 C290 1.268 . S
O297 Sc287 2.105 . S
O297 C291 1.268 . S
O298 Sc288 2.105 . S
O298 C292 1.268 . S
O299 Sc286 2.105 . S
O299 C293 1.268 . S
O300 Sc288 2.105 . S
O300 C294 1.268 . S
O301 Sc287 2.105 . S
O301 C295 1.268 . S
O302 Sc286 2.105 . S
O302 C294 1.268 . S
O303 Sc287 2.105 . S
O303 C293 1.268 . S
O304 Sc288 2.105 . S
O304 C295 1.268 . S
O305 Sc286 2.105 . S
O305 C291 1.268 . S
O306 Sc288 2.105 . S
O306 C290 1.268 . S
O307 Sc287 2.105 . S
O307 C292 1.268 . S
Sc308 O311 2.025 . S
Sc308 O318 2.105 . S
Sc308 O321 2.105 . S
Sc308 O324 2.105 . S
Sc308 O327 2.105 . S
Sc309 O311 2.025 . S
Sc309 O319 2.105 . S
Sc309 O323 2.105 . S
Sc309 O325 2.105 . S
Sc309 O329 2.105 . S
Sc310 O311 2.025 . S
Sc310 O320 2.105 . S
Sc310 O322 2.105 . S
Sc310 O326 2.105 . S
Sc310 O328 2.105 . S
O311 Sc308 2.025 . S
O311 Sc309 2.025 . S
O311 Sc310 2.025 . S
C312 O318 1.268 . S
C312 O328 1.268 . S
C313 O319 1.268 . S
C313 O327 1.268 . S
C314 O320 1.268 . S
C314 O329 1.268 . S
C315 O321 1.268 . S
C315 O325 1.268 . S
C316 O322 1.268 . S
C316 O324 1.268 . S
C317 O323 1.268 . S
C317 O326 1.268 . S
O318 Sc308 2.105 . S
O318 C312 1.268 . S
O319 Sc309 2.105 . S
O319 C313 1.268 . S
O320 Sc310 2.105 . S
O320 C314 1.268 . S
O321 Sc308 2.105 . S
O321 C315 1.268 . S
O322 Sc310 2.105 . S
O322 C316 1.268 . S
O323 Sc309 2.105 . S
O323 C317 1.268 . S
O324 Sc308 2.105 . S
O324 C316 1.268 . S
O325 Sc309 2.105 . S
O325 C315 1.268 . S
O326 Sc310 2.105 . S
O326 C317 1.268 . S
O327 Sc308 2.105 . S
O327 C313 1.268 . S
O328 Sc310 2.105 . S
O328 C312 1.268 . S
O329 Sc309 2.105 . S
O329 C314 1.268 . S
Sc330 O333 2.025 . S
Sc330 O340 2.105 1_556 S
Sc330 O343 2.105 . S
Sc330 O346 2.105 1_556 S
Sc330 O349 2.105 . S
Sc331 O333 2.025 . S
Sc331 O341 2.105 . S
Sc331 O345 2.105 . S
Sc331 O347 2.105 . S
Sc331 O351 2.105 . S
Sc332 O333 2.025 1_554 S
Sc332 O342 2.105 1_554 S
Sc332 O344 2.105 . S
Sc332 O348 2.105 . S
Sc332 O350 2.105 . S
O333 Sc330 2.025 . S
O333 Sc331 2.025 . S
O333 Sc332 2.025 1_556 S
C334 O340 1.268 . S
C334 O350 1.268 . S
C335 O341 1.268 . S
C335 O349 1.268 . S
C336 O342 1.268 . S
C336 O351 1.268 . S
C337 O343 1.268 . S
C337 O347 1.268 . S
C338 O344 1.268 . S
C338 O346 1.268 . S
C339 O345 1.268 . S
C339 O348 1.268 1_556 S
O340 Sc330 2.105 1_554 S
O340 C334 1.268 . S
O341 Sc331 2.105 . S
O341 C335 1.268 . S
O342 Sc332 2.105 1_556 S
O342 C336 1.268 . S
O343 Sc330 2.105 . S
O343 C337 1.268 . S
O344 Sc332 2.105 . S
O344 C338 1.268 . S
O345 Sc331 2.105 . S
O345 C339 1.268 . S
O346 Sc330 2.105 1_554 S
O346 C338 1.268 . S
O347 Sc331 2.105 . S
O347 C337 1.268 . S
O348 Sc332 2.105 . S
O348 C339 1.268 1_554 S
O349 Sc330 2.105 . S
O349 C335 1.268 . S
O350 Sc332 2.105 . S
O350 C334 1.268 . S
O351 Sc331 2.105 . S
O351 C336 1.268 . S
Sc352 O355 2.025 . S
Sc352 O362 2.105 . S
Sc352 O365 2.105 . S
Sc352 O368 2.105 . S
Sc352 O371 2.105 . S
Sc353 O355 2.025 1_554 S
Sc353 O363 2.105 1_554 S
Sc353 O367 2.105 . S
Sc353 O369 2.105 . S
Sc353 O373 2.105 . S
Sc354 O355 2.025 . S
Sc354 O364 2.105 1_556 S
Sc354 O366 2.105 . S
Sc354 O370 2.105 1_556 S
Sc354 O372 2.105 . S
O355 Sc352 2.025 . S
O355 Sc353 2.025 1_556 S
O355 Sc354 2.025 . S
C356 O362 1.268 . S
C356 O372 1.268 . S
C357 O363 1.268 . S
C357 O371 1.268 . S
C358 O364 1.268 . S
C358 O373 1.268 . S
C359 O365 1.268 . S
C359 O369 1.268 1_556 S
C360 O366 1.268 . S
C360 O368 1.268 . S
C361 O367 1.268 . S
C361 O370 1.268 . S
O362 Sc352 2.105 . S
O362 C356 1.268 . S
O363 Sc353 2.105 1_556 S
O363 C357 1.268 . S
O364 Sc354 2.105 1_554 S
O364 C358 1.268 . S
O365 Sc352 2.105 . S
O365 C359 1.268 . S
O366 Sc354 2.105 . S
O366 C360 1.268 . S
O367 Sc353 2.105 . S
O367 C361 1.268 . S
O368 Sc352 2.105 . S
O368 C360 1.268 . S
O369 Sc353 2.105 . S
O369 C359 1.268 1_554 S
O370 Sc354 2.105 1_554 S
O370 C361 1.268 . S
O371 Sc352 2.105 . S
O371 C357 1.268 . S
O372 Sc354 2.105 . S
O372 C356 1.268 . S
O373 Sc353 2.105 . S
O373 C358 1.268 . S
Sc374 O377 2.025 . S
Sc374 O384 2.105 . S
Sc374 O387 2.105 . S
Sc374 O390 2.105 . S
Sc374 O393 2.105 . S
Sc375 O377 2.025 1_554 S
Sc375 O385 2.105 1_554 S
Sc375 O389 2.105 . S
Sc375 O391 2.105 . S
Sc375 O395 2.105 . S
Sc376 O377 2.025 . S
Sc376 O386 2.105 1_556 S
Sc376 O388 2.105 . S
Sc376 O392 2.105 1_556 S
Sc376 O394 2.105 . S
O377 Sc374 2.025 . S
O377 Sc375 2.025 1_556 S
O377 Sc376 2.025 . S
C378 O384 1.268 . S
C378 O394 1.268 . S
C379 O385 1.268 . S
C379 O393 1.268 . S
C380 O386 1.268 . S
C380 O395 1.268 . S
C381 O387 1.268 . S
C381 O391 1.268 1_556 S
C382 O388 1.268 . S
C382 O390 1.268 . S
C383 O389 1.268 . S
C383 O392 1.268 . S
O384 Sc374 2.105 . S
O384 C378 1.268 . S
O385 Sc375 2.105 1_556 S
O385 C379 1.268 . S
O386 Sc376 2.105 1_554 S
O386 C380 1.268 . S
O387 Sc374 2.105 . S
O387 C381 1.268 . S
O388 Sc376 2.105 . S
O388 C382 1.268 . S
O389 Sc375 2.105 . S
O389 C383 1.268 . S
O390 Sc374 2.105 . S
O390 C382 1.268 . S
O391 Sc375 2.105 . S
O391 C381 1.268 1_554 S
O392 Sc376 2.105 1_554 S
O392 C383 1.268 . S
O393 Sc374 2.105 . S
O393 C379 1.268 . S
O394 Sc376 2.105 . S
O394 C378 1.268 . S
O395 Sc375 2.105 . S
O395 C380 1.268 . S
C396 C397 1.363 . S
C396 C402 1.379 . S
C396 N404 1.356 . S
C397 C396 1.363 . S
C397 C403 1.363 . S
C398 C399 1.363 . S
C398 C403 1.379 . S
C398 N405 1.356 . S
C399 C398 1.363 . S
C399 C402 1.363 . S
N400 C402 1.356 . S
N400 H412 0.984 . S
N400 H413 0.985 . S
N401 C403 1.356 . S
N401 H406 0.984 . S
N401 H407 0.985 . S
C402 C396 1.379 . S
C402 C399 1.363 . S
C402 N400 1.356 . S
C403 C397 1.363 . S
C403 C398 1.379 . S
C403 N401 1.356 . S
N404 C396 1.356 . S
N404 H410 0.984 . S
N404 H411 0.984 . S
N405 C398 1.356 . S
N405 H408 0.984 . S
N405 H409 0.985 . S
H406 N401 0.984 . S
H407 N401 0.985 . S
H408 N405 0.984 . S
H409 N405 0.985 . S
H410 N404 0.984 . S
H411 N404 0.984 . S
H412 N400 0.984 . S
H413 N400 0.985 . S
C414 C415 1.363 . S
C414 C420 1.379 . S
C414 N422 1.356 . S
C415 C414 1.363 . S
C415 C421 1.363 . S
C416 C417 1.363 . S
C416 C421 1.379 . S
C416 N423 1.356 . S
C417 C416 1.363 . S
C417 C420 1.363 . S
N418 C420 1.356 . S
N418 H430 0.984 . S
N418 H431 0.985 . S
N419 C421 1.356 . S
N419 H424 0.984 . S
N419 H425 0.985 . S
C420 C414 1.379 . S
C420 C417 1.363 . S
C420 N418 1.356 . S
C421 C415 1.363 . S
C421 C416 1.379 . S
C421 N419 1.356 . S
N422 C414 1.356 . S
N422 H428 0.984 . S
N422 H429 0.984 . S
N423 C416 1.356 . S
N423 H426 0.984 . S
N423 H427 0.985 . S
H424 N419 0.984 . S
H425 N419 0.985 . S
H426 N423 0.984 . S
H427 N423 0.985 . S
H428 N422 0.984 . S
H429 N422 0.984 . S
H430 N418 0.984 . S
H431 N418 0.985 . S
C432 C433 1.363 . S
C432 C438 1.379 . S
C432 N440 1.356 . S
C433 C432 1.363 . S
C433 C439 1.363 . S
C434 C435 1.363 . S
C434 C439 1.379 . S
C434 N441 1.356 . S
C435 C434 1.363 . S
C435 C438 1.363 . S
N436 C438 1.356 . S
N436 H448 0.984 . S
N436 H449 0.985 . S
N437 C439 1.356 . S
N437 H442 0.984 . S
N437 H443 0.985 . S
C438 C432 1.379 . S
C438 C435 1.363 . S
C438 N436 1.356 . S
C439 C433 1.363 . S
C439 C434 1.379 . S
C439 N437 1.356 . S
N440 C432 1.356 . S
N440 H446 0.984 . S
N440 H447 0.984 . S
N441 C434 1.356 . S
N441 H444 0.984 . S
N441 H445 0.985 . S
H442 N437 0.984 . S
H443 N437 0.985 . S
H444 N441 0.984 . S
H445 N441 0.985 . S
H446 N440 0.984 . S
H447 N440 0.984 . S
H448 N436 0.984 . S
H449 N436 0.985 . S
C450 C451 1.363 1_554 S
C450 C456 1.379 . S
C450 N458 1.356 . S
C451 C450 1.363 1_556 S
C451 C457 1.363 . S
C452 C453 1.363 1_556 S
C452 C457 1.379 . S
C452 N459 1.356 . S
C453 C452 1.363 1_554 S
C453 C456 1.363 . S
N454 C456 1.356 . S
N454 H466 0.984 . S
N454 H467 0.985 . S
N455 C457 1.356 . S
N455 H460 0.984 . S
N455 H461 0.985 . S
C456 C450 1.379 . S
C456 C453 1.363 . S
C456 N454 1.356 . S
C457 C451 1.363 . S
C457 C452 1.379 . S
C457 N455 1.356 . S
N458 C450 1.356 . S
N458 H464 0.984 . S
N458 H465 0.984 . S
N459 C452 1.356 . S
N459 H462 0.984 1_556 S
N459 H463 0.985 . S
H460 N455 0.984 . S
H461 N455 0.985 . S
H462 N459 0.984 1_554 S
H463 N459 0.985 . S
H464 N458 0.984 . S
H465 N458 0.984 . S
H466 N454 0.984 . S
H467 N454 0.985 . S
C468 C469 1.363 1_556 S
C468 C474 1.379 . S
C468 N476 1.356 . S
C469 C468 1.363 1_554 S
C469 C475 1.363 . S
C470 C471 1.363 1_554 S
C470 C475 1.379 . S
C470 N477 1.356 . S
C471 C470 1.363 1_556 S
C471 C474 1.363 . S
N472 C474 1.356 . S
N472 H484 0.984 . S
N472 H485 0.985 . S
N473 C475 1.356 . S
N473 H478 0.984 . S
N473 H479 0.985 . S
C474 C468 1.379 . S
C474 C471 1.363 . S
C474 N472 1.356 . S
C475 C469 1.363 . S
C475 C470 1.379 . S
C475 N473 1.356 . S
N476 C468 1.356 . S
N476 H482 0.984 . S
N476 H483 0.984 1_556 S
N477 C470 1.356 . S
N477 H480 0.984 . S
N477 H481 0.985 . S
H478 N473 0.984 . S
H479 N473 0.985 . S
H480 N477 0.984 . S
H481 N477 0.985 . S
H482 N476 0.984 . S
H483 N476 0.984 1_554 S
H484 N472 0.984 . S
H485 N472 0.985 . S
C486 C487 1.363 . S
C486 C492 1.379 1_556 S
C486 N494 1.356 . S
C487 C486 1.363 . S
C487 C493 1.363 1_556 S
C488 C489 1.363 . S
C488 C493 1.379 . S
C488 N495 1.356 . S
C489 C488 1.363 . S
C489 C492 1.363 . S
N490 C492 1.356 . S
N490 H502 0.984 1_554 S
N490 H503 0.985 . S
N491 C493 1.356 . S
N491 H496 0.984 1_554 S
N491 H497 0.985 . S
C492 C486 1.379 1_554 S
C492 C489 1.363 . S
C492 N490 1.356 . S
C493 C487 1.363 1_554 S
C493 C488 1.379 . S
C493 N491 1.356 . S
N494 C486 1.356 . S
N494 H500 0.984 . S
N494 H501 0.984 . S
N495 C488 1.356 . S
N495 H498 0.984 . S
N495 H499 0.985 . S
H496 N491 0.984 1_556 S
H497 N491 0.985 . S
H498 N495 0.984 . S
H499 N495 0.985 . S
H500 N494 0.984 . S
H501 N494 0.984 . S
H502 N490 0.984 1_556 S
H503 N490 0.985 . S
C504 C505 1.363 . S
C504 C510 1.379 . S
C504 N512 1.356 . S
C505 C504 1.363 . S
C505 C511 1.363 . S
C506 C507 1.363 . S
C506 C511 1.379 . S
C506 N513 1.356 . S
C507 C506 1.363 . S
C507 C510 1.363 . S
N508 C510 1.356 . S
N508 H520 0.984 . S
N508 H521 0.985 . S
N509 C511 1.356 . S
N509 H514 0.984 . S
N509 H515 0.985 . S
C510 C504 1.379 . S
C510 C507 1.363 . S
C510 N508 1.356 . S
C511 C505 1.363 . S
C511 C506 1.379 . S
C511 N509 1.356 . S
N512 C504 1.356 . S
N512 H518 0.984 . S
N512 H519 0.984 . S
N513 C506 1.356 . S
N513 H516 0.984 . S
N513 H517 0.985 . S
H514 N509 0.984 . S
H515 N509 0.985 . S
H516 N513 0.984 . S
H517 N513 0.985 . S
H518 N512 0.984 . S
H519 N512 0.984 . S
H520 N508 0.984 . S
H521 N508 0.985 . S
C522 C523 1.363 . S
C522 C528 1.379 . S
C522 N530 1.356 . S
C523 C522 1.363 . S
C523 C529 1.363 . S
C524 C525 1.363 . S
C524 C529 1.379 . S
C524 N531 1.356 . S
C525 C524 1.363 . S
C525 C528 1.363 . S
N526 C528 1.356 . S
N526 H538 0.984 . S
N526 H539 0.985 . S
N527 C529 1.356 . S
N527 H532 0.984 . S
N527 H533 0.985 . S
C528 C522 1.379 . S
C528 C525 1.363 . S
C528 N526 1.356 . S
C529 C523 1.363 . S
C529 C524 1.379 . S
C529 N527 1.356 . S
N530 C522 1.356 . S
N530 H536 0.984 . S
N530 H537 0.984 . S
N531 C524 1.356 . S
N531 H534 0.984 . S
N531 H535 0.985 . S
H532 N527 0.984 . S
H533 N527 0.985 . S
H534 N531 0.984 . S
H535 N531 0.985 . S
H536 N530 0.984 . S
H537 N530 0.984 . S
H538 N526 0.984 . S
H539 N526 0.985 . S
C540 C541 1.363 . S
C540 C546 1.379 . S
C540 N548 1.356 . S
C541 C540 1.363 . S
C541 C547 1.363 . S
C542 C543 1.363 . S
C542 C547 1.379 . S
C542 N549 1.356 . S
C543 C542 1.363 . S
C543 C546 1.363 . S
N544 C546 1.356 . S
N544 H556 0.984 . S
N544 H557 0.985 . S
N545 C547 1.356 . S
N545 H550 0.984 . S
N545 H551 0.985 . S
C546 C540 1.379 . S
C546 C543 1.363 . S
C546 N544 1.356 . S
C547 C541 1.363 . S
C547 C542 1.379 . S
C547 N545 1.356 . S
N548 C540 1.356 . S
N548 H554 0.984 . S
N548 H555 0.984 . S
N549 C542 1.356 . S
N549 H552 0.984 . S
N549 H553 0.985 . S
H550 N545 0.984 . S
H551 N545 0.985 . S
H552 N549 0.984 . S
H553 N549 0.985 . S
H554 N548 0.984 . S
H555 N548 0.984 . S
H556 N544 0.984 . S
H557 N544 0.985 . S
C558 C559 1.363 . S
C558 C564 1.379 . S
C558 N566 1.356 . S
C559 C558 1.363 . S
C559 C565 1.363 1_554 S
C560 C561 1.363 . S
C560 C565 1.379 . S
C560 N567 1.356 . S
C561 C560 1.363 . S
C561 C564 1.363 1_556 S
N562 C564 1.356 . S
N562 H574 0.984 . S
N562 H575 0.990 . S
N563 C565 1.356 . S
N563 H568 0.984 . S
N563 H569 0.985 . S
C564 C558 1.379 . S
C564 C561 1.363 1_554 S
C564 N562 1.356 . S
C565 C559 1.363 1_556 S
C565 C560 1.379 . S
C565 N563 1.356 . S
N566 C558 1.356 . S
N566 H572 0.984 . S
N566 H573 0.984 . S
N567 C560 1.356 . S
N567 H570 0.984 . S
N567 H571 0.985 . S
H568 N563 0.984 . S
H569 N563 0.985 . S
H570 N567 0.984 . S
H571 N567 0.985 . S
H572 N566 0.984 . S
H573 N566 0.984 . S
H574 N562 0.984 . S
H575 N562 0.990 . S
C576 C577 1.363 . S
C576 C582 1.379 . S
C576 N584 1.356 . S
C577 C576 1.363 . S
C577 C583 1.363 1_556 S
C578 C579 1.363 . S
C578 C583 1.379 . S
C578 N585 1.356 . S
C579 C578 1.363 . S
C579 C582 1.363 1_554 S
N580 C582 1.356 . S
N580 H592 0.984 . S
N580 H593 0.985 . S
N581 C583 1.356 . S
N581 H586 0.984 . S
N581 H587 0.985 . S
C582 C576 1.379 . S
C582 C579 1.363 1_556 S
C582 N580 1.356 . S
C583 C577 1.363 1_554 S
C583 C578 1.379 . S
C583 N581 1.356 . S
N584 C576 1.356 . S
N584 H590 0.984 . S
N584 H591 0.984 . S
N585 C578 1.356 . S
N585 H588 0.984 . S
N585 H589 0.985 . S
H586 N581 0.984 . S
H587 N581 0.985 . S
H588 N585 0.984 . S
H589 N585 0.985 . S
H590 N584 0.984 . S
H591 N584 0.984 . S
H592 N580 0.984 . S
H593 N580 0.985 . S
C594 C595 1.363 . S
C594 C600 1.379 . S
C594 N602 1.356 . S
C595 C594 1.363 . S
C595 C601 1.363 . S
C596 C597 1.363 . S
C596 C601 1.379 1_554 S
C596 N603 1.356 . S
C597 C596 1.363 . S
C597 C600 1.363 1_554 S
N598 C600 1.356 . S
N598 H610 0.984 . S
N598 H611 0.985 1_556 S
N599 C601 1.356 . S
N599 H604 0.984 . S
N599 H605 0.985 1_556 S
C600 C594 1.379 . S
C600 C597 1.363 1_556 S
C600 N598 1.356 . S
C601 C595 1.363 . S
C601 C596 1.379 1_556 S
C601 N599 1.356 . S
N602 C594 1.356 . S
N602 H608 0.984 . S
N602 H609 0.984 . S
N603 C596 1.356 . S
N603 H606 0.984 . S
N603 H607 0.985 . S
H604 N599 0.984 . S
H605 N599 0.985 1_554 S
H606 N603 0.984 . S
H607 N603 0.985 . S
H608 N602 0.984 . S
H609 N602 0.984 . S
H610 N598 0.984 . S
H611 N598 0.985 1_554 S
C612 C613 1.363 . S
C612 C618 1.379 . S
C612 N620 1.356 . S
C613 C612 1.363 . S
C613 C619 1.363 . S
C614 C615 1.363 . S
C614 C619 1.379 . S
C614 N621 1.356 . S
C615 C614 1.363 . S
C615 C618 1.363 . S
N616 C618 1.356 . S
N616 H628 0.984 . S
N616 H629 0.985 . S
N617 C619 1.356 . S
N617 H622 0.984 . S
N617 H623 0.985 . S
C618 C612 1.379 . S
C618 C615 1.363 . S
C618 N616 1.356 . S
C619 C613 1.363 . S
C619 C614 1.379 . S
C619 N617 1.356 . S
N620 C612 1.356 . S
N620 H626 0.984 . S
N620 H627 0.984 . S
N621 C614 1.356 . S
N621 H624 0.984 . S
N621 H625 0.985 . S
H622 N617 0.984 . S
H623 N617 0.985 . S
H624 N621 0.984 . S
H625 N621 0.985 . S
H626 N620 0.984 . S
H627 N620 0.984 . S
H628 N616 0.984 . S
H629 N616 0.985 . S
C630 C631 1.363 . S
C630 C636 1.379 . S
C630 N638 1.356 . S
C631 C630 1.363 . S
C631 C637 1.363 . S
C632 C633 1.363 . S
C632 C637 1.379 . S
C632 N639 1.356 . S
C633 C632 1.363 . S
C633 C636 1.363 . S
N634 C636 1.356 . S
N634 H646 0.984 . S
N634 H647 0.985 . S
N635 C637 1.356 . S
N635 H640 0.984 . S
N635 H641 0.985 . S
C636 C630 1.379 . S
C636 C633 1.363 . S
C636 N634 1.356 . S
C637 C631 1.363 . S
C637 C632 1.379 . S
C637 N635 1.356 . S
N638 C630 1.356 . S
N638 H644 0.984 1_556 S
N638 H645 0.984 . S
N639 C632 1.356 . S
N639 H642 0.984 . S
N639 H643 0.985 . S
H640 N635 0.984 . S
H641 N635 0.985 . S
H642 N639 0.984 . S
H643 N639 0.985 . S
H644 N638 0.984 1_554 S
H645 N638 0.984 . S
H646 N634 0.984 . S
H647 N634 0.985 . S
C648 C649 1.363 . S
C648 C654 1.379 . S
C648 N656 1.356 . S
C649 C648 1.363 . S
C649 C655 1.363 . S
C650 C651 1.363 . S
C650 C655 1.379 . S
C650 N657 1.356 . S
C651 C650 1.363 . S
C651 C654 1.363 . S
N652 C654 1.356 . S
N652 H664 0.984 . S
N652 H665 0.985 . S
N653 C655 1.356 . S
N653 H658 0.984 . S
N653 H659 0.985 . S
C654 C648 1.379 . S
C654 C651 1.363 . S
C654 N652 1.356 . S
C655 C649 1.363 . S
C655 C650 1.379 . S
C655 N653 1.356 . S
N656 C648 1.356 . S
N656 H662 0.984 1_556 S
N656 H663 0.986 . S
N657 C650 1.356 . S
N657 H660 0.984 . S
N657 H661 0.985 . S
H658 N653 0.984 . S
H659 N653 0.985 . S
H660 N657 0.984 . S
H661 N657 0.985 . S
H662 N656 0.984 1_554 S
H663 N656 0.986 . S
H664 N652 0.984 . S
H665 N652 0.985 . S
C666 C667 1.363 . S
C666 C672 1.379 . S
C666 N674 1.356 . S
C667 C666 1.363 . S
C667 C673 1.363 . S
C668 C669 1.363 . S
C668 C673 1.379 . S
C668 N675 1.356 . S
C669 C668 1.363 . S
C669 C672 1.363 . S
N670 C672 1.356 . S
N670 H682 0.984 . S
N670 H683 0.985 . S
N671 C673 1.356 . S
N671 H676 0.984 . S
N671 H677 0.985 . S
C672 C666 1.379 . S
C672 C669 1.363 . S
C672 N670 1.356 . S
C673 C667 1.363 . S
C673 C668 1.379 . S
C673 N671 1.356 . S
N674 C666 1.356 . S
N674 H680 0.984 . S
N674 H681 0.984 . S
N675 C668 1.356 . S
N675 H678 0.984 . S
N675 H679 0.985 . S
H676 N671 0.984 . S
H677 N671 0.985 . S
H678 N675 0.984 . S
H679 N675 0.985 . S
H680 N674 0.984 . S
H681 N674 0.984 . S
H682 N670 0.984 . S
H683 N670 0.985 . S
C684 C685 1.363 . S
C684 C690 1.379 . S
C684 N692 1.356 . S
C685 C684 1.363 . S
C685 C691 1.363 . S
C686 C687 1.363 . S
C686 C691 1.379 . S
C686 N693 1.356 . S
C687 C686 1.363 . S
C687 C690 1.363 . S
N688 C690 1.356 . S
N688 H700 0.984 . S
N688 H701 0.985 . S
N689 C691 1.356 . S
N689 H694 0.984 . S
N689 H695 0.985 . S
C690 C684 1.379 . S
C690 C687 1.363 . S
C690 N688 1.356 . S
C691 C685 1.363 . S
C691 C686 1.379 . S
C691 N689 1.356 . S
N692 C684 1.356 . S
N692 H698 0.984 . S
N692 H699 0.984 . S
N693 C686 1.356 . S
N693 H696 0.984 . S
N693 H697 0.985 . S
H694 N689 0.984 . S
H695 N689 0.985 . S
H696 N693 0.984 . S
H697 N693 0.985 . S
H698 N692 0.984 . S
H699 N692 0.984 . S
H700 N688 0.984 . S
H701 N688 0.985 . S
C702 C703 1.363 . S
C702 C708 1.379 . S
C702 N710 1.356 . S
C703 C702 1.363 . S
C703 C709 1.363 . S
C704 C705 1.363 . S
C704 C709 1.379 . S
C704 N711 1.356 . S
C705 C704 1.363 . S
C705 C708 1.363 . S
N706 C708 1.356 . S
N706 H718 0.984 . S
N706 H719 0.985 . S
N707 C709 1.356 . S
N707 H712 0.984 . S
N707 H713 0.985 . S
C708 C702 1.379 . S
C708 C705 1.363 . S
C708 N706 1.356 . S
C709 C703 1.363 . S
C709 C704 1.379 . S
C709 N707 1.356 . S
N710 C702 1.356 . S
N710 H716 0.984 . S
N710 H717 0.984 . S
N711 C704 1.356 . S
N711 H714 0.984 . S
N711 H715 0.985 . S
H712 N707 0.984 . S
H713 N707 0.985 . S
H714 N711 0.984 . S
H715 N711 0.985 . S
H716 N710 0.984 . S
H717 N710 0.984 . S
H718 N706 0.984 . S
H719 N706 0.985 . S
C720 C721 1.363 . S
C720 C726 1.379 . S
C720 N728 1.356 . S
C721 C720 1.363 . S
C721 C727 1.363 . S
C722 C723 1.363 . S
C722 C727 1.379 . S
C722 N729 1.356 . S
C723 C722 1.363 . S
C723 C726 1.363 . S
N724 C726 1.356 . S
N724 H736 0.984 . S
N724 H737 0.985 . S
N725 C727 1.356 . S
N725 H730 0.984 . S
N725 H731 0.985 . S
C726 C720 1.379 . S
C726 C723 1.363 . S
C726 N724 1.356 . S
C727 C721 1.363 . S
C727 C722 1.379 . S
C727 N725 1.356 . S
N728 C720 1.356 . S
N728 H734 0.984 . S
N728 H735 0.984 . S
N729 C722 1.356 . S
N729 H732 0.984 . S
N729 H733 0.985 . S
H730 N725 0.984 . S
H731 N725 0.985 . S
H732 N729 0.984 . S
H733 N729 0.985 . S
H734 N728 0.984 . S
H735 N728 0.984 . S
H736 N724 0.984 . S
H737 N724 0.985 . S
C738 C739 1.363 . S
C738 C744 1.379 . S
C738 N746 1.356 . S
C739 C738 1.363 . S
C739 C745 1.363 . S
C740 C741 1.363 . S
C740 C745 1.379 . S
C740 N747 1.356 . S
C741 C740 1.363 . S
C741 C744 1.363 . S
N742 C744 1.356 . S
N742 H754 0.984 . S
N742 H755 0.985 . S
N743 C745 1.356 . S
N743 H748 0.984 . S
N743 H749 0.985 . S
C744 C738 1.379 . S
C744 C741 1.363 . S
C744 N742 1.356 . S
C745 C739 1.363 . S
C745 C740 1.379 . S
C745 N743 1.356 . S
N746 C738 1.356 . S
N746 H752 0.984 . S
N746 H753 0.984 . S
N747 C740 1.356 . S
N747 H750 0.984 . S
N747 H751 0.985 . S
H748 N743 0.984 . S
H749 N743 0.985 . S
H750 N747 0.984 . S
H751 N747 0.985 . S
H752 N746 0.984 . S
H753 N746 0.984 . S
H754 N742 0.984 . S
H755 N742 0.985 . S
C756 C757 1.363 . S
C756 C762 1.379 . S
C756 N764 1.356 . S
C757 C756 1.363 . S
C757 C763 1.363 . S
C758 C759 1.363 . S
C758 C763 1.379 . S
C758 N765 1.356 . S
C759 C758 1.363 . S
C759 C762 1.363 . S
N760 C762 1.356 . S
N760 H772 0.984 . S
N760 H773 0.985 . S
N761 C763 1.356 . S
N761 H766 0.984 . S
N761 H767 0.985 . S
C762 C756 1.379 . S
C762 C759 1.363 . S
C762 N760 1.356 . S
C763 C757 1.363 . S
C763 C758 1.379 . S
C763 N761 1.356 . S
N764 C756 1.356 . S
N764 H770 0.984 . S
N764 H771 0.984 . S
N765 C758 1.356 . S
N765 H768 0.984 . S
N765 H769 0.985 . S
H766 N761 0.984 . S
H767 N761 0.985 . S
H768 N765 0.984 . S
H769 N765 0.985 . S
H770 N764 0.984 . S
H771 N764 0.984 . S
H772 N760 0.984 . S
H773 N760 0.985 . S
C774 C775 1.363 . S
C774 C780 1.379 . S
C774 N782 1.356 . S
C775 C774 1.363 . S
C775 C781 1.363 . S
C776 C777 1.363 . S
C776 C781 1.379 . S
C776 N783 1.356 . S
C777 C776 1.363 . S
C777 C780 1.363 . S
N778 C780 1.356 . S
N778 H790 0.984 . S
N778 H791 0.985 . S
N779 C781 1.356 . S
N779 H784 0.984 . S
N779 H785 0.985 . S
C780 C774 1.379 . S
C780 C777 1.363 . S
C780 N778 1.356 . S
C781 C775 1.363 . S
C781 C776 1.379 . S
C781 N779 1.356 . S
N782 C774 1.356 . S
N782 H788 0.984 . S
N782 H789 0.984 . S
N783 C776 1.356 . S
N783 H786 0.984 . S
N783 H787 0.985 . S
H784 N779 0.984 . S
H785 N779 0.985 . S
H786 N783 0.984 . S
H787 N783 0.985 . S
H788 N782 0.984 . S
H789 N782 0.984 . S
H790 N778 0.984 . S
H791 N778 0.985 . S
C792 C793 1.363 . S
C792 C798 1.379 . S
C792 N800 1.356 . S
C793 C792 1.363 . S
C793 C799 1.363 . S
C794 C795 1.363 . S
C794 C799 1.379 . S
C794 N801 1.356 . S
C795 C794 1.363 . S
C795 C798 1.363 . S
N796 C798 1.356 . S
N796 H808 0.984 . S
N796 H809 0.985 . S
N797 C799 1.356 . S
N797 H802 0.984 . S
N797 H803 0.985 . S
C798 C792 1.379 . S
C798 C795 1.363 . S
C798 N796 1.356 . S
C799 C793 1.363 . S
C799 C794 1.379 . S
C799 N797 1.356 . S
N800 C792 1.356 . S
N800 H806 0.984 . S
N800 H807 0.984 . S
N801 C794 1.356 . S
N801 H804 0.984 . S
N801 H805 0.985 . S
H802 N797 0.984 . S
H803 N797 0.985 . S
H804 N801 0.984 . S
H805 N801 0.985 . S
H806 N800 0.984 . S
H807 N800 0.984 . S
H808 N796 0.984 . S
H809 N796 0.985 . S
C810 C811 1.363 . S
C810 C816 1.379 . S
C810 N818 1.356 . S
C811 C810 1.363 . S
C811 C817 1.363 . S
C812 C813 1.363 . S
C812 C817 1.379 . S
C812 N819 1.356 . S
C813 C812 1.363 . S
C813 C816 1.363 . S
N814 C816 1.356 . S
N814 H826 0.984 . S
N814 H827 0.985 . S
N815 C817 1.356 . S
N815 H820 0.984 . S
N815 H821 0.985 . S
C816 C810 1.379 . S
C816 C813 1.363 . S
C816 N814 1.356 . S
C817 C811 1.363 . S
C817 C812 1.379 . S
C817 N815 1.356 . S
N818 C810 1.356 . S
N818 H824 0.984 . S
N818 H825 0.984 . S
N819 C812 1.356 . S
N819 H822 0.984 . S
N819 H823 0.985 . S
H820 N815 0.984 . S
H821 N815 0.985 . S
H822 N819 0.984 . S
H823 N819 0.985 . S
H824 N818 0.984 . S
H825 N818 0.984 . S
H826 N814 0.984 . S
H827 N814 0.985 . S
C828 C829 1.363 . S
C828 C834 1.379 . S
C828 N836 1.356 . S
C829 C828 1.363 . S
C829 C835 1.363 . S
C830 C831 1.363 . S
C830 C835 1.379 . S
C830 N837 1.356 . S
C831 C830 1.363 . S
C831 C834 1.363 . S
N832 C834 1.356 1_556 S
N832 H844 0.984 . S
N832 H845 0.985 . S
N833 C835 1.356 . S
N833 H838 0.984 . S
N833 H839 0.985 . S
C834 C828 1.379 . S
C834 C831 1.363 . S
C834 N832 1.356 1_554 S
C835 C829 1.363 . S
C835 C830 1.379 . S
C835 N833 1.356 . S
N836 C828 1.356 . S
N836 H842 0.984 1_554 S
N836 H843 0.984 . S
N837 C830 1.356 . S
N837 H840 0.984 . S
N837 H841 0.985 . S
H838 N833 0.984 . S
H839 N833 0.985 . S
H840 N837 0.984 . S
H841 N837 0.985 . S
H842 N836 0.984 1_556 S
H843 N836 0.984 . S
H844 N832 0.984 . S
H845 N832 0.985 . S
C846 C847 1.363 . S
C846 C852 1.379 . S
C846 N854 1.356 . S
C847 C846 1.363 . S
C847 C853 1.363 . S
C848 C849 1.363 . S
C848 C853 1.379 . S
C848 N855 1.356 . S
C849 C848 1.363 . S
C849 C852 1.363 . S
N850 C852 1.356 1_556 S
N850 H862 0.984 . S
N850 H863 0.985 . S
N851 C853 1.356 . S
N851 H856 0.984 . S
N851 H857 0.985 . S
C852 C846 1.379 . S
C852 C849 1.363 . S
C852 N850 1.356 1_554 S
C853 C847 1.363 . S
C853 C848 1.379 . S
C853 N851 1.356 . S
N854 C846 1.356 . S
N854 H860 0.984 1_554 S
N854 H861 0.984 . S
N855 C848 1.356 . S
N855 H858 0.984 . S
N855 H859 0.985 . S
H856 N851 0.984 . S
H857 N851 0.985 . S
H858 N855 0.984 . S
H859 N855 0.985 . S
H860 N854 0.984 1_556 S
H861 N854 0.984 . S
H862 N850 0.984 . S
H863 N850 0.985 . S
C864 C865 1.363 . S
C864 C870 1.379 . S
C864 N872 1.356 1_554 S
C865 C864 1.363 . S
C865 C871 1.363 . S
C866 C867 1.363 . S
C866 C871 1.379 . S
C866 N873 1.356 . S
C867 C866 1.363 . S
C867 C870 1.363 . S
N868 C870 1.356 . S
N868 H880 0.984 . S
N868 H881 0.985 . S
N869 C871 1.356 . S
N869 H874 0.984 . S
N869 H875 0.985 . S
C870 C864 1.379 . S
C870 C867 1.363 . S
C870 N868 1.356 . S
C871 C865 1.363 . S
C871 C866 1.379 . S
C871 N869 1.356 . S
N872 C864 1.356 1_556 S
N872 H878 0.984 . S
N872 H879 0.984 . S
N873 C866 1.356 . S
N873 H876 0.984 . S
N873 H877 0.985 . S
H874 N869 0.984 . S
H875 N869 0.985 . S
H876 N873 0.984 . S
H877 N873 0.985 . S
H878 N872 0.984 . S
H879 N872 0.984 . S
H880 N868 0.984 . S
H881 N868 0.985 . S
C882 C883 1.363 . S
C882 C888 1.379 . S
C882 N890 1.356 . S
C883 C882 1.363 . S
C883 C889 1.363 . S
C884 C885 1.363 . S
C884 C889 1.379 . S
C884 N891 1.356 . S
C885 C884 1.363 . S
C885 C888 1.363 . S
N886 C888 1.356 . S
N886 H898 0.984 . S
N886 H899 0.985 . S
N887 C889 1.356 . S
N887 H892 0.984 . S
N887 H893 0.985 . S
C888 C882 1.379 . S
C888 C885 1.363 . S
C888 N886 1.356 . S
C889 C883 1.363 . S
C889 C884 1.379 . S
C889 N887 1.356 . S
N890 C882 1.356 . S
N890 H896 0.984 . S
N890 H897 0.984 . S
N891 C884 1.356 . S
N891 H894 0.984 . S
N891 H895 0.985 . S
H892 N887 0.984 . S
H893 N887 0.985 . S
H894 N891 0.984 . S
H895 N891 0.985 . S
H896 N890 0.984 . S
H897 N890 0.984 . S
H898 N886 0.984 . S
H899 N886 0.985 . S
C900 C901 1.363 . S
C900 C906 1.379 . S
C900 N908 1.356 . S
C901 C900 1.363 . S
C901 C907 1.363 . S
C902 C903 1.363 . S
C902 C907 1.379 . S
C902 N909 1.356 . S
C903 C902 1.363 . S
C903 C906 1.363 . S
N904 C906 1.356 . S
N904 H916 0.984 . S
N904 H917 0.985 . S
N905 C907 1.356 . S
N905 H910 0.984 . S
N905 H911 0.985 . S
C906 C900 1.379 . S
C906 C903 1.363 . S
C906 N904 1.356 . S
C907 C901 1.363 . S
C907 C902 1.379 . S
C907 N905 1.356 . S
N908 C900 1.356 . S
N908 H914 0.984 . S
N908 H915 0.984 . S
N909 C902 1.356 . S
N909 H912 0.984 . S
N909 H913 0.985 . S
H910 N905 0.984 . S
H911 N905 0.985 . S
H912 N909 0.984 . S
H913 N909 0.985 . S
H914 N908 0.984 . S
H915 N908 0.984 . S
H916 N904 0.984 . S
H917 N904 0.985 . S
C918 C919 1.363 . S
C918 C924 1.379 . S
C918 N926 1.356 . S
C919 C918 1.363 . S
C919 C925 1.363 . S
C920 C921 1.363 . S
C920 C925 1.379 . S
C920 N927 1.356 . S
C921 C920 1.363 . S
C921 C924 1.363 . S
N922 C924 1.356 . S
N922 H934 0.984 . S
N922 H935 0.985 . S
N923 C925 1.356 . S
N923 H928 0.984 . S
N923 H929 0.985 . S
C924 C918 1.379 . S
C924 C921 1.363 . S
C924 N922 1.356 . S
C925 C919 1.363 . S
C925 C920 1.379 . S
C925 N923 1.356 . S
N926 C918 1.356 . S
N926 H932 0.984 . S
N926 H933 0.984 . S
N927 C920 1.356 . S
N927 H930 0.984 . S
N927 H931 0.985 . S
H928 N923 0.984 . S
H929 N923 0.985 . S
H930 N927 0.984 . S
H931 N927 0.985 . S
H932 N926 0.984 . S
H933 N926 0.984 . S
H934 N922 0.984 . S
H935 N922 0.985 . S
C936 C937 1.363 . S
C936 C942 1.379 . S
C936 N944 1.356 . S
C937 C936 1.363 . S
C937 C943 1.363 . S
C938 C939 1.363 . S
C938 C943 1.379 . S
C938 N945 1.356 . S
C939 C938 1.363 . S
C939 C942 1.363 . S
N940 C942 1.356 . S
N940 H952 0.984 . S
N940 H953 0.985 . S
N941 C943 1.356 . S
N941 H946 0.984 . S
N941 H947 0.985 . S
C942 C936 1.379 . S
C942 C939 1.363 . S
C942 N940 1.356 . S
C943 C937 1.363 . S
C943 C938 1.379 . S
C943 N941 1.356 . S
N944 C936 1.356 . S
N944 H950 0.984 . S
N944 H951 0.984 . S
N945 C938 1.356 . S
N945 H948 0.984 . S
N945 H949 0.985 . S
H946 N941 0.984 . S
H947 N941 0.985 . S
H948 N945 0.984 . S
H949 N945 0.985 . S
H950 N944 0.984 . S
H951 N944 0.984 . S
H952 N940 0.984 . S
H953 N940 0.985 . S
C954 C955 1.363 . S
C954 C960 1.379 . S
C954 N962 1.356 . S
C955 C954 1.363 . S
C955 C961 1.363 . S
C956 C957 1.363 . S
C956 C961 1.379 . S
C956 N963 1.356 . S
C957 C956 1.363 . S
C957 C960 1.363 . S
N958 C960 1.356 . S
N958 H970 0.984 . S
N958 H971 0.985 . S
N959 C961 1.356 . S
N959 H964 0.984 . S
N959 H965 0.985 . S
C960 C954 1.379 . S
C960 C957 1.363 . S
C960 N958 1.356 . S
C961 C955 1.363 . S
C961 C956 1.379 . S
C961 N959 1.356 . S
N962 C954 1.356 . S
N962 H968 0.984 . S
N962 H969 0.984 . S
N963 C956 1.356 . S
N963 H966 0.984 . S
N963 H967 0.985 . S
H964 N959 0.984 . S
H965 N959 0.985 . S
H966 N963 0.984 . S
H967 N963 0.985 . S
H968 N962 0.984 . S
H969 N962 0.984 . S
H970 N958 0.984 . S
H971 N958 0.985 . S
C972 C973 1.363 . S
C972 C978 1.379 . S
C972 N980 1.356 . S
C973 C972 1.363 . S
C973 C979 1.363 . S
C974 C975 1.363 . S
C974 C979 1.379 . S
C974 N981 1.356 . S
C975 C974 1.363 . S
C975 C978 1.363 . S
N976 C978 1.356 . S
N976 H988 0.984 . S
N976 H989 0.985 . S
N977 C979 1.356 . S
N977 H982 0.984 . S
N977 H983 0.985 . S
C978 C972 1.379 . S
C978 C975 1.363 . S
C978 N976 1.356 . S
C979 C973 1.363 . S
C979 C974 1.379 . S
C979 N977 1.356 . S
N980 C972 1.356 . S
N980 H986 0.984 . S
N980 H987 0.984 . S
N981 C974 1.356 . S
N981 H984 0.984 . S
N981 H985 0.985 1_554 S
H982 N977 0.984 . S
H983 N977 0.985 . S
H984 N981 0.984 . S
H985 N981 0.985 1_556 S
H986 N980 0.984 . S
H987 N980 0.984 . S
H988 N976 0.984 . S
H989 N976 0.985 . S
C990 C991 1.363 . S
C990 C996 1.379 . S
C990 N998 1.356 . S
C991 C990 1.363 . S
C991 C997 1.363 . S
C992 C993 1.363 . S
C992 C997 1.379 . S
C992 N999 1.356 . S
C993 C992 1.363 . S
C993 C996 1.363 . S
N994 C996 1.356 . S
N994 H1006 0.984 . S
N994 H1007 0.985 . S
N995 C997 1.356 . S
N995 H1000 0.984 . S
N995 H1001 0.985 . S
C996 C990 1.379 . S
C996 C993 1.363 . S
C996 N994 1.356 . S
C997 C991 1.363 . S
C997 C992 1.379 . S
C997 N995 1.356 . S
N998 C990 1.356 . S
N998 H1004 0.984 . S
N998 H1005 0.984 . S
N999 C992 1.356 . S
N999 H1002 0.984 . S
N999 H1003 0.985 . S
H1000 N995 0.984 . S
H1001 N995 0.985 . S
H1002 N999 0.984 . S
H1003 N999 0.985 . S
H1004 N998 0.984 . S
H1005 N998 0.984 . S
H1006 N994 0.984 . S
H1007 N994 0.985 . S
C1008 C1009 1.363 . S
C1008 C1014 1.379 . S
C1008 N1016 1.356 . S
C1009 C1008 1.363 . S
C1009 C1015 1.363 . S
C1010 C1011 1.363 . S
C1010 C1015 1.379 . S
C1010 N1017 1.356 . S
C1011 C1010 1.363 . S
C1011 C1014 1.363 . S
N1012 C1014 1.356 . S
N1012 H1024 0.984 . S
N1012 H1025 0.985 . S
N1013 C1015 1.356 . S
N1013 H1018 0.984 . S
N1013 H1019 0.985 . S
C1014 C1008 1.379 . S
C1014 C1011 1.363 . S
C1014 N1012 1.356 . S
C1015 C1009 1.363 . S
C1015 C1010 1.379 . S
C1015 N1013 1.356 . S
N1016 C1008 1.356 . S
N1016 H1022 0.984 . S
N1016 H1023 0.984 . S
N1017 C1010 1.356 . S
N1017 H1020 0.984 . S
N1017 H1021 0.985 . S
H1018 N1013 0.984 . S
H1019 N1013 0.985 . S
H1020 N1017 0.984 . S
H1021 N1017 0.985 . S
H1022 N1016 0.984 . S
H1023 N1016 0.984 . S
H1024 N1012 0.984 . S
H1025 N1012 0.985 . S
C1026 C1027 1.363 . S
C1026 C1032 1.379 . S
C1026 N1034 1.356 . S
C1027 C1026 1.363 . S
C1027 C1033 1.363 . S
C1028 C1029 1.363 . S
C1028 C1033 1.379 . S
C1028 N1035 1.356 . S
C1029 C1028 1.363 . S
C1029 C1032 1.363 . S
N1030 C1032 1.356 . S
N1030 H1042 0.984 . S
N1030 H1043 0.985 . S
N1031 C1033 1.356 . S
N1031 H1036 0.984 . S
N1031 H1037 0.985 . S
C1032 C1026 1.379 . S
C1032 C1029 1.363 . S
C1032 N1030 1.356 . S
C1033 C1027 1.363 . S
C1033 C1028 1.379 . S
C1033 N1031 1.356 . S
N1034 C1026 1.356 . S
N1034 H1040 0.984 . S
N1034 H1041 0.984 . S
N1035 C1028 1.356 . S
N1035 H1038 0.984 . S
N1035 H1039 0.985 . S
H1036 N1031 0.984 . S
H1037 N1031 0.985 . S
H1038 N1035 0.984 . S
H1039 N1035 0.985 . S
H1040 N1034 0.984 . S
H1041 N1034 0.984 . S
H1042 N1030 0.984 . S
H1043 N1030 0.985 . S
C1044 C1045 1.363 . S
C1044 C1050 1.379 . S
C1044 N1052 1.356 . S
C1045 C1044 1.363 . S
C1045 C1051 1.363 . S
C1046 C1047 1.363 . S
C1046 C1051 1.379 . S
C1046 N1053 1.356 . S
C1047 C1046 1.363 . S
C1047 C1050 1.363 . S
N1048 C1050 1.356 . S
N1048 H1060 0.984 . S
N1048 H1061 0.985 . S
N1049 C1051 1.356 . S
N1049 H1054 0.984 . S
N1049 H1055 0.985 . S
C1050 C1044 1.379 . S
C1050 C1047 1.363 . S
C1050 N1048 1.356 . S
C1051 C1045 1.363 . S
C1051 C1046 1.379 . S
C1051 N1049 1.356 . S
N1052 C1044 1.356 . S
N1052 H1058 0.984 . S
N1052 H1059 0.984 . S
N1053 C1046 1.356 . S
N1053 H1056 0.984 . S
N1053 H1057 0.985 . S
H1054 N1049 0.984 . S
H1055 N1049 0.985 . S
H1056 N1053 0.984 . S
H1057 N1053 0.985 . S
H1058 N1052 0.984 . S
H1059 N1052 0.984 . S
H1060 N1048 0.984 . S
H1061 N1048 0.985 . S
C1062 C1063 1.363 . S
C1062 C1068 1.379 . S
C1062 N1070 1.356 . S
C1063 C1062 1.363 . S
C1063 C1069 1.363 . S
C1064 C1065 1.363 . S
C1064 C1069 1.379 . S
C1064 N1071 1.356 . S
C1065 C1064 1.363 . S
C1065 C1068 1.363 . S
N1066 C1068 1.356 . S
N1066 H1078 0.984 . S
N1066 H1079 0.985 . S
N1067 C1069 1.356 . S
N1067 H1072 0.984 . S
N1067 H1073 0.985 . S
C1068 C1062 1.379 . S
C1068 C1065 1.363 . S
C1068 N1066 1.356 . S
C1069 C1063 1.363 . S
C1069 C1064 1.379 . S
C1069 N1067 1.356 . S
N1070 C1062 1.356 . S
N1070 H1076 0.984 . S
N1070 H1077 0.984 . S
N1071 C1064 1.356 . S
N1071 H1074 0.984 . S
N1071 H1075 0.985 . S
H1072 N1067 0.984 . S
H1073 N1067 0.985 . S
H1074 N1071 0.984 . S
H1075 N1071 0.985 . S
H1076 N1070 0.984 . S
H1077 N1070 0.984 . S
H1078 N1066 0.984 . S
H1079 N1066 0.985 . S
C1080 C1081 1.363 . S
C1080 C1086 1.379 . S
C1080 N1088 1.356 . S
C1081 C1080 1.363 . S
C1081 C1087 1.363 . S
C1082 C1083 1.363 . S
C1082 C1087 1.379 . S
C1082 N1089 1.356 . S
C1083 C1082 1.363 . S
C1083 C1086 1.363 . S
N1084 C1086 1.356 . S
N1084 H1096 0.984 . S
N1084 H1097 0.985 . S
N1085 C1087 1.356 . S
N1085 H1090 0.984 . S
N1085 H1091 0.985 . S
C1086 C1080 1.379 . S
C1086 C1083 1.363 . S
C1086 N1084 1.356 . S
C1087 C1081 1.363 . S
C1087 C1082 1.379 . S
C1087 N1085 1.356 . S
N1088 C1080 1.356 . S
N1088 H1094 0.984 . S
N1088 H1095 0.984 . S
N1089 C1082 1.356 . S
N1089 H1092 0.984 . S
N1089 H1093 0.985 . S
H1090 N1085 0.984 . S
H1091 N1085 0.985 . S
H1092 N1089 0.984 . S
H1093 N1089 0.985 . S
H1094 N1088 0.984 . S
H1095 N1088 0.984 . S
H1096 N1084 0.984 . S
H1097 N1084 0.985 . S
C1098 C1099 1.363 . S
C1098 C1104 1.379 . S
C1098 N1106 1.356 . S
C1099 C1098 1.363 . S
C1099 C1105 1.363 . S
C1100 C1101 1.363 . S
C1100 C1105 1.379 . S
C1100 N1107 1.356 1_556 S
C1101 C1100 1.363 . S
C1101 C1104 1.363 . S
N1102 C1104 1.356 . S
N1102 H1114 0.984 . S
N1102 H1115 0.985 . S
N1103 C1105 1.356 . S
N1103 H1108 0.984 . S
N1103 H1109 0.985 . S
C1104 C1098 1.379 . S
C1104 C1101 1.363 . S
C1104 N1102 1.356 . S
C1105 C1099 1.363 . S
C1105 C1100 1.379 . S
C1105 N1103 1.356 . S
N1106 C1098 1.356 . S
N1106 H1112 0.984 . S
N1106 H1113 0.984 . S
N1107 C1100 1.356 1_554 S
N1107 H1110 0.984 . S
N1107 H1111 0.985 . S
H1108 N1103 0.984 . S
H1109 N1103 0.985 . S
H1110 N1107 0.984 . S
H1111 N1107 0.985 . S
H1112 N1106 0.984 . S
H1113 N1106 0.984 . S
H1114 N1102 0.984 . S
H1115 N1102 0.985 . S
C1116 C1117 1.363 . S
C1116 C1122 1.379 1_556 S
C1116 N1124 1.356 . S
C1117 C1116 1.363 . S
C1117 C1123 1.363 . S
C1118 C1119 1.363 . S
C1118 C1123 1.379 . S
C1118 N1125 1.356 . S
C1119 C1118 1.363 . S
C1119 C1122 1.363 1_556 S
N1120 C1122 1.356 . S
N1120 H1132 0.984 . S
N1120 H1133 0.985 . S
N1121 C1123 1.356 . S
N1121 H1126 0.984 . S
N1121 H1127 0.985 . S
C1122 C1116 1.379 1_554 S
C1122 C1119 1.363 1_554 S
C1122 N1120 1.356 . S
C1123 C1117 1.363 . S
C1123 C1118 1.379 . S
C1123 N1121 1.356 . S
N1124 C1116 1.356 . S
N1124 H1130 0.984 . S
N1124 H1131 0.984 . S
N1125 C1118 1.356 . S
N1125 H1128 0.984 . S
N1125 H1129 0.985 . S
H1126 N1121 0.984 . S
H1127 N1121 0.985 . S
H1128 N1125 0.984 . S
H1129 N1125 0.985 . S
H1130 N1124 0.984 . S
H1131 N1124 0.984 . S
H1132 N1120 0.984 . S
H1133 N1120 0.985 . S
C1134 C1135 1.363 . S
C1134 C1140 1.379 . S
C1134 N1142 1.356 . S
C1135 C1134 1.363 . S
C1135 C1141 1.363 . S
C1136 C1137 1.363 1_554 S
C1136 C1141 1.379 1_554 S
C1136 N1143 1.356 . S
C1137 C1136 1.363 1_556 S
C1137 C1140 1.363 . S
N1138 C1140 1.356 . S
N1138 H1150 0.984 . S
N1138 H1151 0.985 . S
N1139 C1141 1.356 . S
N1139 H1144 0.984 . S
N1139 H1145 0.985 . S
C1140 C1134 1.379 . S
C1140 C1137 1.363 . S
C1140 N1138 1.356 . S
C1141 C1135 1.363 . S
C1141 C1136 1.379 1_556 S
C1141 N1139 1.356 . S
N1142 C1134 1.356 . S
N1142 H1148 0.984 . S
N1142 H1149 0.984 . S
N1143 C1136 1.356 . S
N1143 H1146 0.984 . S
N1143 H1147 0.985 . S
H1144 N1139 0.984 . S
H1145 N1139 0.985 . S
H1146 N1143 0.984 . S
H1147 N1143 0.985 . S
H1148 N1142 0.984 . S
H1149 N1142 0.984 . S
H1150 N1138 0.984 . S
H1151 N1138 0.985 . S
C1152 C1153 1.363 . S
C1152 C1158 1.379 . S
C1152 N1160 1.356 . S
C1153 C1152 1.363 . S
C1153 C1159 1.363 . S
C1154 C1155 1.363 . S
C1154 C1159 1.379 . S
C1154 N1161 1.356 . S
C1155 C1154 1.363 . S
C1155 C1158 1.363 . S
N1156 C1158 1.356 . S
N1156 H1168 0.984 . S
N1156 H1169 0.985 . S
N1157 C1159 1.356 . S
N1157 H1162 0.984 . S
N1157 H1163 0.985 . S
C1158 C1152 1.379 . S
C1158 C1155 1.363 . S
C1158 N1156 1.356 . S
C1159 C1153 1.363 . S
C1159 C1154 1.379 . S
C1159 N1157 1.356 . S
N1160 C1152 1.356 . S
N1160 H1166 0.984 . S
N1160 H1167 0.984 . S
N1161 C1154 1.356 . S
N1161 H1164 0.984 . S
N1161 H1165 0.984 1_655 S
H1162 N1157 0.984 . S
H1163 N1157 0.985 . S
H1164 N1161 0.984 . S
H1165 N1161 0.984 1_455 S
H1166 N1160 0.984 . S
H1167 N1160 0.984 . S
H1168 N1156 0.984 . S
H1169 N1156 0.985 . S
C1170 C1171 1.363 . S
C1170 C1176 1.379 . S
C1170 N1178 1.356 . S
C1171 C1170 1.363 . S
C1171 C1177 1.363 . S
C1172 C1173 1.363 . S
C1172 C1177 1.379 . S
C1172 N1179 1.356 . S
C1173 C1172 1.363 . S
C1173 C1176 1.363 . S
N1174 C1176 1.356 . S
N1174 H1186 0.984 . S
N1174 H1187 0.985 . S
N1175 C1177 1.356 . S
N1175 H1180 0.984 . S
N1175 H1181 0.985 . S
C1176 C1170 1.379 . S
C1176 C1173 1.363 . S
C1176 N1174 1.356 . S
C1177 C1171 1.363 . S
C1177 C1172 1.379 . S
C1177 N1175 1.356 . S
N1178 C1170 1.356 . S
N1178 H1184 0.984 . S
N1178 H1185 0.984 . S
N1179 C1172 1.356 . S
N1179 H1182 0.984 . S
N1179 H1183 0.985 . S
H1180 N1175 0.984 . S
H1181 N1175 0.985 . S
H1182 N1179 0.984 . S
H1183 N1179 0.985 . S
H1184 N1178 0.984 . S
H1185 N1178 0.984 . S
H1186 N1174 0.984 . S
H1187 N1174 0.985 . S
C1188 C1189 1.363 . S
C1188 C1194 1.379 . S
C1188 N1196 1.356 . S
C1189 C1188 1.363 . S
C1189 C1195 1.363 . S
C1190 C1191 1.363 . S
C1190 C1195 1.379 . S
C1190 N1197 1.356 . S
C1191 C1190 1.363 . S
C1191 C1194 1.363 . S
N1192 C1194 1.356 . S
N1192 H1204 0.984 . S
N1192 H1205 0.985 . S
N1193 C1195 1.356 . S
N1193 H1198 0.984 . S
N1193 H1199 0.985 . S
C1194 C1188 1.379 . S
C1194 C1191 1.363 . S
C1194 N1192 1.356 . S
C1195 C1189 1.363 . S
C1195 C1190 1.379 . S
C1195 N1193 1.356 . S
N1196 C1188 1.356 . S
N1196 H1202 0.984 . S
N1196 H1203 0.984 . S
N1197 C1190 1.356 . S
N1197 H1200 0.984 . S
N1197 H1201 0.985 . S
H1198 N1193 0.984 . S
H1199 N1193 0.985 . S
H1200 N1197 0.984 . S
H1201 N1197 0.985 . S
H1202 N1196 0.984 . S
H1203 N1196 0.984 . S
H1204 N1192 0.984 . S
H1205 N1192 0.985 . S
C1206 C1207 1.363 . S
C1206 C1212 1.379 . S
C1206 N1214 1.356 1_554 S
C1207 C1206 1.363 . S
C1207 C1213 1.363 . S
C1208 C1209 1.363 . S
C1208 C1213 1.379 . S
C1208 N1215 1.356 . S
C1209 C1208 1.363 . S
C1209 C1212 1.363 . S
N1210 C1212 1.356 . S
N1210 H1222 0.984 1_565 S
N1210 H1223 0.985 . S
N1211 C1213 1.356 . S
N1211 H1216 0.984 1_554 S
N1211 H1217 0.985 . S
C1212 C1206 1.379 . S
C1212 C1209 1.363 . S
C1212 N1210 1.356 . S
C1213 C1207 1.363 . S
C1213 C1208 1.379 . S
C1213 N1211 1.356 . S
N1214 C1206 1.356 1_556 S
N1214 H1220 0.984 . S
N1214 H1221 0.984 . S
N1215 C1208 1.356 . S
N1215 H1218 0.984 . S
N1215 H1219 0.985 . S
H1216 N1211 0.984 1_556 S
H1217 N1211 0.985 . S
H1218 N1215 0.984 . S
H1219 N1215 0.985 . S
H1220 N1214 0.984 . S
H1221 N1214 0.984 . S
H1222 N1210 0.984 1_545 S
H1223 N1210 0.985 . S
C1224 C1225 1.363 . S
C1224 C1230 1.379 . S
C1224 N1232 1.356 . S
C1225 C1224 1.363 . S
C1225 C1231 1.363 . S
C1226 C1227 1.363 . S
C1226 C1231 1.379 . S
C1226 N1233 1.356 1_554 S
C1227 C1226 1.363 . S
C1227 C1230 1.363 . S
N1228 C1230 1.356 . S
N1228 H1240 0.984 . S
N1228 H1241 0.985 1_554 S
N1229 C1231 1.356 . S
N1229 H1234 0.984 . S
N1229 H1235 0.985 . S
C1230 C1224 1.379 . S
C1230 C1227 1.363 . S
C1230 N1228 1.356 . S
C1231 C1225 1.363 . S
C1231 C1226 1.379 . S
C1231 N1229 1.356 . S
N1232 C1224 1.356 . S
N1232 H1238 0.984 . S
N1232 H1239 0.984 . S
N1233 C1226 1.356 1_556 S
N1233 H1236 0.984 . S
N1233 H1237 0.985 . S
H1234 N1229 0.984 . S
H1235 N1229 0.985 . S
H1236 N1233 0.984 . S
H1237 N1233 0.985 . S
H1238 N1232 0.984 . S
H1239 N1232 0.984 . S
H1240 N1228 0.984 . S
H1241 N1228 0.985 1_556 S
C1242 C1243 1.363 . S
C1242 C1248 1.379 . S
C1242 N1250 1.356 . S
C1243 C1242 1.363 . S
C1243 C1249 1.363 . S
C1244 C1245 1.363 . S
C1244 C1249 1.379 . S
C1244 N1251 1.356 . S
C1245 C1244 1.363 . S
C1245 C1248 1.363 . S
N1246 C1248 1.356 1_556 S
N1246 H1258 0.984 . S
N1246 H1259 0.985 . S
N1247 C1249 1.356 . S
N1247 H1252 0.984 . S
N1247 H1253 0.985 . S
C1248 C1242 1.379 . S
C1248 C1245 1.363 . S
C1248 N1246 1.356 1_554 S
C1249 C1243 1.363 . S
C1249 C1244 1.379 . S
C1249 N1247 1.356 . S
N1250 C1242 1.356 . S
N1250 H1256 0.984 . S
N1250 H1257 0.984 . S
N1251 C1244 1.356 . S
N1251 H1254 0.984 1_554 S
N1251 H1255 0.985 . S
H1252 N1247 0.984 . S
H1253 N1247 0.985 . S
H1254 N1251 0.984 1_556 S
H1255 N1251 0.985 . S
H1256 N1250 0.984 . S
H1257 N1250 0.984 . S
H1258 N1246 0.984 . S
H1259 N1246 0.985 . S
C1260 C1261 1.363 . S
C1260 C1266 1.392 . S
C1260 N1268 1.356 . S
C1261 C1260 1.363 . S
C1261 C1267 1.363 1_655 S
C1262 C1263 1.363 . S
C1262 C1267 1.379 . S
C1262 N1269 1.356 . S
C1263 C1262 1.363 . S
C1263 C1266 1.341 1_455 S
N1264 C1266 1.359 1_455 S
N1264 H1276 0.984 1_455 S
N1264 H1277 0.985 . S
N1265 C1267 1.356 . S
N1265 H1270 0.984 1_455 S
N1265 H1271 0.985 . S
C1266 C1260 1.392 . S
C1266 C1263 1.341 1_655 S
C1266 N1264 1.359 1_655 S
C1267 C1261 1.363 1_455 S
C1267 C1262 1.379 . S
C1267 N1265 1.356 . S
N1268 C1260 1.356 . S
N1268 H1274 0.984 . S
N1268 H1275 0.984 . S
N1269 C1262 1.356 . S
N1269 H1272 0.984 . S
N1269 H1273 0.985 . S
H1270 N1265 0.984 1_655 S
H1271 N1265 0.985 . S
H1272 N1269 0.984 . S
H1273 N1269 0.985 . S
H1274 N1268 0.984 . S
H1275 N1268 0.984 . S
H1276 N1264 0.984 1_655 S
H1277 N1264 0.985 . S
C1278 C1279 1.363 . S
C1278 C1284 1.379 . S
C1278 N1286 1.356 . S
C1279 C1278 1.363 . S
C1279 C1285 1.363 . S
C1280 C1281 1.363 . S
C1280 C1285 1.379 . S
C1280 N1287 1.356 . S
C1281 C1280 1.363 . S
C1281 C1284 1.363 . S
N1282 C1284 1.356 . S
N1282 H1294 0.984 . S
N1282 H1295 0.985 . S
N1283 C1285 1.356 . S
N1283 H1288 0.984 . S
N1283 H1289 0.985 . S
C1284 C1278 1.379 . S
C1284 C1281 1.363 . S
C1284 N1282 1.356 . S
C1285 C1279 1.363 . S
C1285 C1280 1.379 . S
C1285 N1283 1.356 . S
N1286 C1278 1.356 . S
N1286 H1292 0.984 . S
N1286 H1293 0.984 . S
N1287 C1280 1.356 . S
N1287 H1290 0.984 . S
N1287 H1291 0.985 . S
H1288 N1283 0.984 . S
H1289 N1283 0.985 . S
H1290 N1287 0.984 . S
H1291 N1287 0.985 . S
H1292 N1286 0.984 . S
H1293 N1286 0.984 . S
H1294 N1282 0.984 . S
H1295 N1282 0.985 . S
C1296 C1297 1.363 . S
C1296 C1302 1.379 . S
C1296 N1304 1.356 . S
C1297 C1296 1.363 . S
C1297 C1303 1.363 1_565 S
C1298 C1299 1.363 . S
C1298 C1303 1.379 . S
C1298 N1305 1.356 . S
C1299 C1298 1.363 . S
C1299 C1302 1.363 1_545 S
N1300 C1302 1.356 . S
N1300 H1312 0.984 . S
N1300 H1313 0.985 1_565 S
N1301 C1303 1.356 . S
N1301 H1306 0.984 1_545 S
N1301 H1307 0.985 . S
C1302 C1296 1.379 . S
C1302 C1299 1.363 1_565 S
C1302 N1300 1.356 . S
C1303 C1297 1.363 1_545 S
C1303 C1298 1.379 . S
C1303 N1301 1.356 . S
N1304 C1296 1.356 . S
N1304 H1310 0.984 . S
N1304 H1311 0.984 . S
N1305 C1298 1.356 . S
N1305 H1308 0.984 . S
N1305 H1309 0.985 . S
H1306 N1301 0.984 1_565 S
H1307 N1301 0.985 . S
H1308 N1305 0.984 . S
H1309 N1305 0.985 . S
H1310 N1304 0.984 . S
H1311 N1304 0.984 . S
H1312 N1300 0.984 . S
H1313 N1300 0.985 1_545 S
C1314 C1315 1.363 1_545 S
C1314 C1320 1.379 . S
C1314 N1322 1.356 . S
C1315 C1314 1.363 1_565 S
C1315 C1321 1.363 . S
C1316 C1317 1.338 1_565 S
C1316 C1321 1.394 . S
C1316 N1323 1.359 1_565 S
C1317 C1316 1.338 1_545 S
C1317 C1320 1.363 . S
N1318 C1320 1.356 . S
N1318 H1330 0.984 . S
N1318 H1331 0.985 . S
N1319 C1321 1.356 . S
N1319 H1324 0.984 . S
N1319 H1325 0.985 . S
C1320 C1314 1.379 . S
C1320 C1317 1.363 . S
C1320 N1318 1.356 . S
C1321 C1315 1.363 . S
C1321 C1316 1.394 . S
C1321 N1319 1.356 . S
N1322 C1314 1.356 . S
N1322 H1328 0.984 . S
N1322 H1329 0.984 1_545 S
N1323 C1316 1.359 1_545 S
N1323 H1326 0.984 . S
N1323 H1327 0.985 1_545 S
H1324 N1319 0.984 . S
H1325 N1319 0.985 . S
H1326 N1323 0.984 . S
H1327 N1323 0.985 1_565 S
H1328 N1322 0.984 . S
H1329 N1322 0.984 1_565 S
H1330 N1318 0.984 . S
H1331 N1318 0.985 . S
C1332 C1333 1.363 . S
C1332 C1338 1.379 1_455 S
C1332 N1340 1.356 . S
C1333 C1332 1.363 . S
C1333 C1339 1.363 . S
C1334 C1335 1.363 . S
C1334 C1339 1.379 1_655 S
C1334 N1341 1.356 . S
C1335 C1334 1.363 . S
C1335 C1338 1.363 . S
N1336 C1338 1.356 . S
N1336 H1348 0.984 . S
N1336 H1349 0.985 . S
N1337 C1339 1.356 . S
N1337 H1342 0.984 . S
N1337 H1343 0.985 . S
C1338 C1332 1.379 1_655 S
C1338 C1335 1.363 . S
C1338 N1336 1.356 . S
C1339 C1333 1.363 . S
C1339 C1334 1.379 1_455 S
C1339 N1337 1.356 . S
N1340 C1332 1.356 . S
N1340 H1346 0.984 . S
N1340 H1347 0.984 . S
N1341 C1334 1.356 . S
N1341 H1344 0.984 . S
N1341 H1345 0.985 . S
H1342 N1337 0.984 . S
H1343 N1337 0.985 . S
H1344 N1341 0.984 . S
H1345 N1341 0.985 . S
H1346 N1340 0.984 . S
H1347 N1340 0.984 . S
H1348 N1336 0.984 . S
H1349 N1336 0.985 . S
C1350 C1351 1.363 . S
C1350 C1356 1.379 . S
C1350 N1358 1.356 . S
C1351 C1350 1.363 . S
C1351 C1357 1.363 . S
C1352 C1353 1.363 . S
C1352 C1357 1.379 . S
C1352 N1359 1.356 . S
C1353 C1352 1.363 . S
C1353 C1356 1.363 . S
N1354 C1356 1.356 . S
N1354 H1366 0.984 . S
N1354 H1367 0.985 . S
N1355 C1357 1.356 . S
N1355 H1360 0.984 . S
N1355 H1361 0.985 . S
C1356 C1350 1.379 . S
C1356 C1353 1.363 . S
C1356 N1354 1.356 . S
C1357 C1351 1.363 . S
C1357 C1352 1.379 . S
C1357 N1355 1.356 . S
N1358 C1350 1.356 . S
N1358 H1364 0.984 . S
N1358 H1365 0.984 . S
N1359 C1352 1.356 . S
N1359 H1362 0.984 . S
N1359 H1363 0.985 . S
H1360 N1355 0.984 . S
H1361 N1355 0.985 . S
H1362 N1359 0.984 . S
H1363 N1359 0.985 . S
H1364 N1358 0.984 . S
H1365 N1358 0.984 . S
H1366 N1354 0.984 . S
H1367 N1354 0.985 . S
C397 C4 1.402 . S
C399 C94 1.390 . S
C415 C114 1.390 . S
C417 C28 1.402 . S
C433 C48 1.403 . S
C435 C70 1.390 . S
C451 C51 1.402 . S
C453 C96 1.390 . S
C469 C117 1.390 . S
C471 C7 1.403 . S
C487 C30 1.402 . S
C489 C73 1.390 . S
C505 C31 1.390 . S
C507 C74 1.402 . S
C523 C52 1.390 . S
C525 C97 1.402 . S
C541 C118 1.403 . S
C543 C8 1.390 . S
C559 C115 1.402 . S
C561 C26 1.389 . S
C577 C49 1.390 . S
C579 C71 1.403 . S
C595 C5 1.390 . S
C597 C92 1.403 . S
C613 C226 1.389 . S
C615 C136 1.402 . S
C631 C158 1.402 . S
C633 C248 1.390 . S
C649 C180 1.402 . S
C651 C204 1.390 . S
C667 C228 1.390 . S
C669 C183 1.402 . S
C685 C250 1.390 . S
C687 C139 1.402 . S
C703 C206 1.390 . S
C705 C161 1.402 . S
C721 C162 1.390 . S
C723 C207 1.402 . S
C739 C184 1.390 . S
C741 C229 1.402 . S
C757 C140 1.390 . S
C759 C251 1.402 . S
C775 C159 1.390 . S
C777 C246 1.402 . S
C793 C181 1.390 . S
C795 C202 1.403 . S
C811 C224 1.402 . S
C813 C137 1.390 . S
C829 C268 1.402 . S
C831 C358 1.390 . S
C847 C292 1.403 . S
C849 C380 1.390 . S
C865 C334 1.390 . S
C867 C312 1.402 . S
C883 C360 1.390 . S
C885 C315 1.402 . S
C901 C271 1.402 . S
C903 C382 1.390 . S
C919 C294 1.402 . S
C921 C337 1.390 . S
C937 C295 1.390 . S
C939 C338 1.402 . S
C955 C316 1.390 . S
C957 C361 1.402 . S
C973 C272 1.390 . S
C975 C383 1.403 . S
C991 C378 1.403 . S
C993 C290 1.390 . S
C1009 C335 1.402 . S
C1011 C313 1.390 . S
C1027 C269 1.390 . S
C1029 C356 1.402 . S
C1045 C6 1.869 . S
C1047 C293 1.869 . S
C1063 C27 1.869 . S
C1065 C317 1.869 . S
C1081 C50 1.869 . S
C1083 C273 1.869 . S
C1099 C53 1.869 . S
C1101 C160 1.869 1_556 S
C1117 C9 1.869 . S
C1119 C182 1.869 1_556 S
C1135 C29 1.869 . S
C1137 C138 1.869 1_556 S
C1153 C225 1.869 . S
C1155 C75 1.869 . S
C1171 C95 1.869 . S
C1173 C247 1.869 . S
C1189 C119 1.869 . S
C1191 C203 1.869 . S
C1207 C359 1.869 1_554 S
C1209 C116 1.869 . S
C1225 C72 1.869 . S
C1227 C381 1.869 1_554 S
C1243 C93 1.869 . S
C1245 C339 1.869 1_554 S
C1261 C185 1.869 . S
C1263 C291 1.869 . S
C1279 C141 1.869 . S
C1281 C314 1.869 . S
C1297 C270 1.869 . S
C1299 C163 1.869 . S
C1315 C357 1.869 . S
C1317 C205 1.869 . S
C1333 C379 1.869 . S
C1335 C227 1.869 . S
C1351 C249 1.869 . S
C1353 C336 1.869 . S
