# Generated by pormake.
# Topology wio, (6)-cn, num edge types: 1
# Building blocks:
#     Node 0, Type 0, BuildingBlock: PAMTOO_clean_sbu_0, # of connection points: 6
#     Node 1, Type 0, BuildingBlock: PAMTOO_clean_sbu_0, # of connection points: 6
#     Node 2, Type 0, BuildingBlock: PAMTOO_clean_sbu_0, # of connection points: 6
#     Node 3, Type 0, BuildingBlock: PAMTOO_clean_sbu_0, # of connection points: 6
#     Node 4, Type 0, BuildingBlock: PAMTOO_clean_sbu_0, # of connection points: 6
#     Node 5, Type 0, BuildingBlock: PAMTOO_clean_sbu_0, # of connection points: 6
#     Node 6, Type 0, BuildingBlock: PAMTOO_clean_sbu_0, # of connection points: 6
#     Node 7, Type 0, BuildingBlock: PAMTOO_clean_sbu_0, # of connection points: 6
#     Node 8, Type 0, BuildingBlock: PAMTOO_clean_sbu_0, # of connection points: 6
#     Node 9, Type 0, BuildingBlock: PAMTOO_clean_sbu_0, # of connection points: 6
#     Node 10, Type 0, BuildingBlock: PAMTOO_clean_sbu_0, # of connection points: 6
#     Node 11, Type 0, BuildingBlock: PAMTOO_clean_sbu_0, # of connection points: 6
#     Node 12, Type 0, BuildingBlock: PAMTOO_clean_sbu_0, # of connection points: 6
#     Node 13, Type 0, BuildingBlock: PAMTOO_clean_sbu_0, # of connection points: 6
#     Node 14, Type 0, BuildingBlock: PAMTOO_clean_sbu_0, # of connection points: 6
#     Node 15, Type 0, BuildingBlock: PAMTOO_clean_sbu_0, # of connection points: 6
#     Node 16, Type 0, BuildingBlock: PAMTOO_clean_sbu_0, # of connection points: 6
#     Node 17, Type 0, BuildingBlock: PAMTOO_clean_sbu_0, # of connection points: 6
#     Node 18, Type 0, BuildingBlock: PAMTOO_clean_sbu_0, # of connection points: 6
#     Node 19, Type 0, BuildingBlock: PAMTOO_clean_sbu_0, # of connection points: 6
#     Node 20, Type 0, BuildingBlock: PAMTOO_clean_sbu_0, # of connection points: 6
#     Node 21, Type 0, BuildingBlock: PAMTOO_clean_sbu_0, # of connection points: 6
#     Node 22, Type 0, BuildingBlock: PAMTOO_clean_sbu_0, # of connection points: 6
#     Node 23, Type 0, BuildingBlock: PAMTOO_clean_sbu_0, # of connection points: 6
#     Node 24, Type 0, BuildingBlock: PAMTOO_clean_sbu_0, # of connection points: 6
#     Node 25, Type 0, BuildingBlock: PAMTOO_clean_sbu_0, # of connection points: 6
#     Node 26, Type 0, BuildingBlock: PAMTOO_clean_sbu_0, # of connection points: 6
#     Node 27, Type 0, BuildingBlock: PAMTOO_clean_sbu_0, # of connection points: 6
#     Node 28, Type 0, BuildingBlock: PAMTOO_clean_sbu_0, # of connection points: 6
#     Node 29, Type 0, BuildingBlock: PAMTOO_clean_sbu_0, # of connection points: 6
#     Node 30, Type 0, BuildingBlock: PAMTOO_clean_sbu_0, # of connection points: 6
#     Node 31, Type 0, BuildingBlock: PAMTOO_clean_sbu_0, # of connection points: 6
#     Edge 32, Type (0, 0), BuildingBlock: UVAHIK_clean_linker_0, # of connection points: 2
#     Edge 33, Type (0, 0), BuildingBlock: UVAHIK_clean_linker_0, # of connection points: 2
#     Edge 34, Type (0, 0), BuildingBlock: UVAHIK_clean_linker_0, # of connection points: 2
#     Edge 35, Type (0, 0), BuildingBlock: UVAHIK_clean_linker_0, # of connection points: 2
#     Edge 36, Type (0, 0), BuildingBlock: UVAHIK_clean_linker_0, # of connection points: 2
#     Edge 37, Type (0, 0), BuildingBlock: UVAHIK_clean_linker_0, # of connection points: 2
#     Edge 38, Type (0, 0), BuildingBlock: UVAHIK_clean_linker_0, # of connection points: 2
#     Edge 39, Type (0, 0), BuildingBlock: UVAHIK_clean_linker_0, # of connection points: 2
#     Edge 40, Type (0, 0), BuildingBlock: UVAHIK_clean_linker_0, # of connection points: 2
#     Edge 41, Type (0, 0), BuildingBlock: UVAHIK_clean_linker_0, # of connection points: 2
#     Edge 42, Type (0, 0), BuildingBlock: UVAHIK_clean_linker_0, # of connection points: 2
#     Edge 43, Type (0, 0), BuildingBlock: UVAHIK_clean_linker_0, # of connection points: 2
#     Edge 44, Type (0, 0), BuildingBlock: UVAHIK_clean_linker_0, # of connection points: 2
#     Edge 45, Type (0, 0), BuildingBlock: UVAHIK_clean_linker_0, # of connection points: 2
#     Edge 46, Type (0, 0), BuildingBlock: UVAHIK_clean_linker_0, # of connection points: 2
#     Edge 47, Type (0, 0), BuildingBlock: UVAHIK_clean_linker_0, # of connection points: 2
#     Edge 48, Type (0, 0), BuildingBlock: UVAHIK_clean_linker_0, # of connection points: 2
#     Edge 49, Type (0, 0), BuildingBlock: UVAHIK_clean_linker_0, # of connection points: 2
#     Edge 50, Type (0, 0), BuildingBlock: UVAHIK_clean_linker_0, # of connection points: 2
#     Edge 51, Type (0, 0), BuildingBlock: UVAHIK_clean_linker_0, # of connection points: 2
#     Edge 52, Type (0, 0), BuildingBlock: UVAHIK_clean_linker_0, # of connection points: 2
#     Edge 53, Type (0, 0), BuildingBlock: UVAHIK_clean_linker_0, # of connection points: 2
#     Edge 54, Type (0, 0), BuildingBlock: UVAHIK_clean_linker_0, # of connection points: 2
#     Edge 55, Type (0, 0), BuildingBlock: UVAHIK_clean_linker_0, # of connection points: 2
#     Edge 56, Type (0, 0), BuildingBlock: UVAHIK_clean_linker_0, # of connection points: 2
#     Edge 57, Type (0, 0), BuildingBlock: UVAHIK_clean_linker_0, # of connection points: 2
#     Edge 58, Type (0, 0), BuildingBlock: UVAHIK_clean_linker_0, # of connection points: 2
#     Edge 59, Type (0, 0), BuildingBlock: UVAHIK_clean_linker_0, # of connection points: 2
#     Edge 60, Type (0, 0), BuildingBlock: UVAHIK_clean_linker_0, # of connection points: 2
#     Edge 61, Type (0, 0), BuildingBlock: UVAHIK_clean_linker_0, # of connection points: 2
#     Edge 62, Type (0, 0), BuildingBlock: UVAHIK_clean_linker_0, # of connection points: 2
#     Edge 63, Type (0, 0), BuildingBlock: UVAHIK_clean_linker_0, # of connection points: 2
#     Edge 64, Type (0, 0), BuildingBlock: UVAHIK_clean_linker_0, # of connection points: 2
#     Edge 65, Type (0, 0), BuildingBlock: UVAHIK_clean_linker_0, # of connection points: 2
#     Edge 66, Type (0, 0), BuildingBlock: UVAHIK_clean_linker_0, # of connection points: 2
#     Edge 67, Type (0, 0), BuildingBlock: UVAHIK_clean_linker_0, # of connection points: 2
#     Edge 68, Type (0, 0), BuildingBlock: UVAHIK_clean_linker_0, # of connection points: 2
#     Edge 69, Type (0, 0), BuildingBlock: UVAHIK_clean_linker_0, # of connection points: 2
#     Edge 70, Type (0, 0), BuildingBlock: UVAHIK_clean_linker_0, # of connection points: 2
#     Edge 71, Type (0, 0), BuildingBlock: UVAHIK_clean_linker_0, # of connection points: 2
#     Edge 72, Type (0, 0), BuildingBlock: UVAHIK_clean_linker_0, # of connection points: 2
#     Edge 73, Type (0, 0), BuildingBlock: UVAHIK_clean_linker_0, # of connection points: 2
#     Edge 74, Type (0, 0), BuildingBlock: UVAHIK_clean_linker_0, # of connection points: 2
#     Edge 75, Type (0, 0), BuildingBlock: UVAHIK_clean_linker_0, # of connection points: 2
#     Edge 76, Type (0, 0), BuildingBlock: UVAHIK_clean_linker_0, # of connection points: 2
#     Edge 77, Type (0, 0), BuildingBlock: UVAHIK_clean_linker_0, # of connection points: 2
#     Edge 78, Type (0, 0), BuildingBlock: UVAHIK_clean_linker_0, # of connection points: 2
#     Edge 79, Type (0, 0), BuildingBlock: UVAHIK_clean_linker_0, # of connection points: 2
#     Edge 80, Type (0, 0), BuildingBlock: UVAHIK_clean_linker_0, # of connection points: 2
#     Edge 81, Type (0, 0), BuildingBlock: UVAHIK_clean_linker_0, # of connection points: 2
#     Edge 82, Type (0, 0), BuildingBlock: UVAHIK_clean_linker_0, # of connection points: 2
#     Edge 83, Type (0, 0), BuildingBlock: UVAHIK_clean_linker_0, # of connection points: 2
#     Edge 84, Type (0, 0), BuildingBlock: UVAHIK_clean_linker_0, # of connection points: 2
#     Edge 85, Type (0, 0), BuildingBlock: UVAHIK_clean_linker_0, # of connection points: 2
#     Edge 86, Type (0, 0), BuildingBlock: UVAHIK_clean_linker_0, # of connection points: 2
#     Edge 87, Type (0, 0), BuildingBlock: UVAHIK_clean_linker_0, # of connection points: 2
#     Edge 88, Type (0, 0), BuildingBlock: UVAHIK_clean_linker_0, # of connection points: 2
#     Edge 89, Type (0, 0), BuildingBlock: UVAHIK_clean_linker_0, # of connection points: 2
#     Edge 90, Type (0, 0), BuildingBlock: UVAHIK_clean_linker_0, # of connection points: 2
#     Edge 91, Type (0, 0), BuildingBlock: UVAHIK_clean_linker_0, # of connection points: 2
#     Edge 92, Type (0, 0), BuildingBlock: UVAHIK_clean_linker_0, # of connection points: 2
#     Edge 93, Type (0, 0), BuildingBlock: UVAHIK_clean_linker_0, # of connection points: 2
#     Edge 94, Type (0, 0), BuildingBlock: UVAHIK_clean_linker_0, # of connection points: 2
#     Edge 95, Type (0, 0), BuildingBlock: UVAHIK_clean_linker_0, # of connection points: 2
#     Edge 96, Type (0, 0), BuildingBlock: UVAHIK_clean_linker_0, # of connection points: 2
#     Edge 97, Type (0, 0), BuildingBlock: UVAHIK_clean_linker_0, # of connection points: 2
#     Edge 98, Type (0, 0), BuildingBlock: UVAHIK_clean_linker_0, # of connection points: 2
#     Edge 99, Type (0, 0), BuildingBlock: UVAHIK_clean_linker_0, # of connection points: 2
#     Edge 100, Type (0, 0), BuildingBlock: UVAHIK_clean_linker_0, # of connection points: 2
#     Edge 101, Type (0, 0), BuildingBlock: UVAHIK_clean_linker_0, # of connection points: 2
#     Edge 102, Type (0, 0), BuildingBlock: UVAHIK_clean_linker_0, # of connection points: 2
#     Edge 103, Type (0, 0), BuildingBlock: UVAHIK_clean_linker_0, # of connection points: 2
#     Edge 104, Type (0, 0), BuildingBlock: UVAHIK_clean_linker_0, # of connection points: 2
#     Edge 105, Type (0, 0), BuildingBlock: UVAHIK_clean_linker_0, # of connection points: 2
#     Edge 106, Type (0, 0), BuildingBlock: UVAHIK_clean_linker_0, # of connection points: 2
#     Edge 107, Type (0, 0), BuildingBlock: UVAHIK_clean_linker_0, # of connection points: 2
#     Edge 108, Type (0, 0), BuildingBlock: UVAHIK_clean_linker_0, # of connection points: 2
#     Edge 109, Type (0, 0), BuildingBlock: UVAHIK_clean_linker_0, # of connection points: 2
#     Edge 110, Type (0, 0), BuildingBlock: UVAHIK_clean_linker_0, # of connection points: 2
#     Edge 111, Type (0, 0), BuildingBlock: UVAHIK_clean_linker_0, # of connection points: 2
#     Edge 112, Type (0, 0), BuildingBlock: UVAHIK_clean_linker_0, # of connection points: 2
#     Edge 113, Type (0, 0), BuildingBlock: UVAHIK_clean_linker_0, # of connection points: 2
#     Edge 114, Type (0, 0), BuildingBlock: UVAHIK_clean_linker_0, # of connection points: 2
#     Edge 115, Type (0, 0), BuildingBlock: UVAHIK_clean_linker_0, # of connection points: 2
#     Edge 116, Type (0, 0), BuildingBlock: UVAHIK_clean_linker_0, # of connection points: 2
#     Edge 117, Type (0, 0), BuildingBlock: UVAHIK_clean_linker_0, # of connection points: 2
#     Edge 118, Type (0, 0), BuildingBlock: UVAHIK_clean_linker_0, # of connection points: 2
#     Edge 119, Type (0, 0), BuildingBlock: UVAHIK_clean_linker_0, # of connection points: 2
#     Edge 120, Type (0, 0), BuildingBlock: UVAHIK_clean_linker_0, # of connection points: 2
#     Edge 121, Type (0, 0), BuildingBlock: UVAHIK_clean_linker_0, # of connection points: 2
#     Edge 122, Type (0, 0), BuildingBlock: UVAHIK_clean_linker_0, # of connection points: 2
#     Edge 123, Type (0, 0), BuildingBlock: UVAHIK_clean_linker_0, # of connection points: 2
#     Edge 124, Type (0, 0), BuildingBlock: UVAHIK_clean_linker_0, # of connection points: 2
#     Edge 125, Type (0, 0), BuildingBlock: UVAHIK_clean_linker_0, # of connection points: 2
#     Edge 126, Type (0, 0), BuildingBlock: UVAHIK_clean_linker_0, # of connection points: 2
#     Edge 127, Type (0, 0), BuildingBlock: UVAHIK_clean_linker_0, # of connection points: 2
# Relax obj value: 0.181
# Max RMSD: 0.231
# Mean RMSD: 0.231
data_MOF--net-wio--node1-PAMTOO_clean_sbu_0--edge1-UVAHIK_clean_linker_0
_symmetry_space_group_name_H-M    P1
_symmetry_Int_Tables_number       1
_symmetry_cell_setting            triclinic
loop_
_symmetry_equiv_pos_as_xyz
'x, y, z'
_cell_length_a     80.797924
_cell_length_b     80.054707
_cell_length_c     65.88323
_cell_angle_alpha  89.983146
_cell_angle_beta   90.01588
_cell_angle_gamma 89.596735
loop_
_atom_site_label
_atom_site_type_symbol
_atom_site_fract_x
_atom_site_fract_y
_atom_site_fract_z
_atom_type_partial_charge
Dy0 Dy 0.07826 0.08851 0.30701 0.0
Dy1 Dy 0.12371 0.08873 0.30038 0.0
C2 C 0.10489 0.11816 0.32358 0.0
O3 O 0.08407 0.09742 0.27508 0.0
O4 O 0.1131 0.09735 0.271 0.0
O5 O 0.05686 0.10398 0.3146 0.0
O6 O 0.05417 0.07747 0.30945 0.0
O7 O 0.1023 0.07446 0.29479 0.0
O8 O 0.0792 0.06348 0.29128 0.0
O9 O 0.11927 0.07644 0.33024 0.0
O10 O 0.09025 0.07442 0.33286 0.0
O11 O 0.141 0.07044 0.28886 0.0
O12 O 0.14971 0.09474 0.29947 0.0
C13 C 0.09778 0.09913 0.26406 0.0
O14 O 0.0908 0.10966 0.32402 0.0
O15 O 0.11842 0.11355 0.31374 0.0
C16 C 0.0352 0.08955 0.33255 0.0
C17 C 0.01039 0.08684 0.36279 0.0
C18 C 0.02036 0.10118 0.36152 0.0
C19 C 0.03259 0.10255 0.34654 0.0
C20 C 0.02553 0.07506 0.33417 0.0
C21 C 0.01334 0.0737 0.34909 0.0
C22 C 0.04692 0.09119 0.31532 0.0
C23 C 0.09477 0.06149 0.28834 0.0
C24 C 0.10556 0.07129 0.33926 0.0
C25 C 0.1657 0.08124 0.27385 0.0
C26 C 0.19043 0.08098 0.24343 0.0
C27 C 0.17491 0.07362 0.23987 0.0
C28 C 0.16265 0.07376 0.25491 0.0
C29 C 0.18109 0.08872 0.27731 0.0
C30 C 0.1933 0.08862 0.26231 0.0
C31 C 0.15361 0.08055 0.29069 0.0
H32 H 0.01859 0.11146 0.37199 0.0
H33 H 0.03978 0.11389 0.34571 0.0
H34 H 0.02708 0.06488 0.32349 0.0
H35 H 0.00579 0.06257 0.34935 0.0
H36 H 0.17221 0.06781 0.22541 0.0
H37 H 0.15089 0.06788 0.25178 0.0
H38 H 0.18381 0.09441 0.29184 0.0
H39 H 0.20516 0.09417 0.26573 0.0
Dy40 Dy 0.10129 0.83273 0.55869 0.0
Dy41 Dy 0.10177 0.87835 0.55267 0.0
C42 C 0.07178 0.86004 0.57516 0.0
O43 O 0.09293 0.83871 0.52671 0.0
O44 O 0.09291 0.86803 0.52329 0.0
O45 O 0.08597 0.81252 0.56984 0.0
O46 O 0.11022 0.80725 0.55779 0.0
O47 O 0.11774 0.85794 0.54537 0.0
O48 O 0.12613 0.83277 0.54355 0.0
O49 O 0.11428 0.87337 0.58222 0.0
O50 O 0.11605 0.84406 0.58426 0.0
O51 O 0.12001 0.89612 0.54263 0.0
O52 O 0.09516 0.9045 0.55082 0.0
C53 C 0.09129 0.8527 0.51603 0.0
O54 O 0.07895 0.8452 0.57294 0.0
O55 O 0.07787 0.87417 0.56819 0.0
C56 C 0.10078 0.78925 0.58407 0.0
C57 C 0.10585 0.76369 0.61332 0.0
C58 C 0.09074 0.77253 0.61237 0.0
C59 C 0.08823 0.78512 0.59791 0.0
C60 C 0.11606 0.78075 0.58538 0.0
C61 C 0.11858 0.7682 0.59986 0.0
C62 C 0.09748 0.80124 0.56728 0.0
C63 C 0.12955 0.84816 0.53996 0.0
C64 C 0.11951 0.85934 0.59081 0.0
C65 C 0.10947 0.92065 0.52624 0.0
C66 C 0.11007 0.94501 0.49512 0.0
C67 C 0.1171 0.92906 0.49197 0.0
C68 C 0.11678 0.91696 0.50738 0.0
C69 C 0.10245 0.9365 0.52933 0.0
C70 C 0.10273 0.94853 0.514 0.0
C71 C 0.10956 0.90866 0.54334 0.0
H72 H 0.08056 0.7693 0.62228 0.0
H73 H 0.07626 0.79127 0.59719 0.0
H74 H 0.126 0.78351 0.57491 0.0
H75 H 0.13047 0.76187 0.60033 0.0
H76 H 0.12271 0.92588 0.47755 0.0
H77 H 0.12231 0.90482 0.50456 0.0
H78 H 0.0969 0.93969 0.5438 0.0
H79 H 0.09745 0.96074 0.51711 0.0
Dy80 Dy 0.35528 0.85376 0.80928 0.0
Dy81 Dy 0.3144 0.8553 0.79993 0.0
C82 C 0.33131 0.82483 0.82219 0.0
O83 O 0.35292 0.85213 0.77555 0.0
O84 O 0.32611 0.84272 0.77325 0.0
O85 O 0.37589 0.84007 0.82192 0.0
O86 O 0.38016 0.86388 0.80739 0.0
O87 O 0.32584 0.87679 0.78391 0.0
O88 O 0.34782 0.88037 0.80547 0.0
O89 O 0.31797 0.87086 0.82766 0.0
O90 O 0.34379 0.86198 0.83852 0.0
O91 O 0.29138 0.86891 0.79681 0.0
O92 O 0.29185 0.84198 0.79309 0.0
C93 C 0.34052 0.84608 0.76496 0.0
O94 O 0.34463 0.82814 0.8116 0.0
O95 O 0.31918 0.83573 0.82329 0.0
C96 C 0.39871 0.85596 0.83422 0.0
C97 C 0.42482 0.86058 0.86254 0.0
C98 C 0.41165 0.84969 0.86681 0.0
C99 C 0.39882 0.84737 0.85284 0.0
C100 C 0.41141 0.86744 0.83032 0.0
C101 C 0.42428 0.86976 0.84431 0.0
C102 C 0.38662 0.85173 0.81801 0.0
C103 C 0.33707 0.88631 0.79231 0.0
C104 C 0.32996 0.87054 0.84119 0.0
C105 C 0.27074 0.857 0.77572 0.0
C106 C 0.24629 0.85968 0.74515 0.0
C107 C 0.26198 0.86695 0.74246 0.0
C108 C 0.27413 0.86559 0.75762 0.0
C109 C 0.25513 0.84984 0.77845 0.0
C110 C 0.24304 0.85118 0.76339 0.0
C111 C 0.28291 0.8556 0.79232 0.0
H112 H 0.41138 0.84266 0.88085 0.0
H113 H 0.38924 0.83844 0.85643 0.0
H114 H 0.41173 0.87418 0.81607 0.0
H115 H 0.4342 0.87818 0.84037 0.0
H116 H 0.26494 0.87347 0.72855 0.0
H117 H 0.28613 0.87123 0.75522 0.0
H118 H 0.25223 0.84328 0.79237 0.0
H119 H 0.23104 0.8457 0.76619 0.0
Dy120 Dy 0.3333 0.10884 0.05862 0.0
Dy121 Dy 0.33376 0.06757 0.0493 0.0
C122 C 0.36293 0.08536 0.0729 0.0
O123 O 0.33511 0.10621 1.02503 0.0
O124 O 0.34618 0.07971 1.02287 0.0
O125 O 0.34636 0.13146 0.06627 0.0
O126 O 0.32018 0.13254 0.05975 0.0
O127 O 0.3123 0.07813 0.03235 0.0
O128 O 0.3075 0.10049 0.05334 0.0
O129 O 0.31782 0.07135 0.07664 0.0
O130 O 0.32635 0.09715 0.08811 0.0
O131 O 0.32106 0.04403 0.04704 0.0
O132 O 0.3476 0.04505 0.04222 0.0
C133 C 0.34209 0.0941 1.01457 0.0
O134 O 0.35904 0.09925 0.06338 0.0
O135 O 0.35305 0.07245 0.07272 0.0
C136 C 0.33061 0.1531 0.08243 0.0
C137 C 0.3274 0.17925 0.11118 0.0
C138 C 0.34033 0.16743 0.11276 0.0
C139 C 0.34195 0.15453 0.09853 0.0
C140 C 0.31744 0.1646 0.08118 0.0
C141 C 0.31583 0.1775 0.09539 0.0
C142 C 0.33307 0.14078 0.06588 0.0
C143 C 0.30241 0.08964 0.03983 0.0
C144 C 0.318 0.08321 0.09047 0.0
C145 C 0.333 0.02347 1.0254 0.0
C146 C 0.33043 -0.00132 0.99502 0.0
C147 C 0.3206 0.01328 0.99412 0.0
C148 C 0.32188 0.02559 1.00918 0.0
C149 C 0.34272 0.00895 1.02635 0.0
C150 C 0.34145 -0.00332 1.0114 0.0
C151 C 0.3344 0.03576 0.04197 0.0
H152 H 0.34956 0.16849 0.1246 0.0
H153 H 0.35231 0.14595 0.09988 0.0
H154 H 0.30856 0.16386 0.06889 0.0
H155 H 0.30559 0.18622 0.09389 0.0
H156 H 0.31209 0.01531 0.98165 0.0
H157 H 0.31421 0.03671 1.00816 0.0
H158 H 0.35126 0.007 0.03883 0.0
H159 H 0.34898 -0.0145 1.01285 0.0
Dy160 Dy 0.08108 0.85518 0.25301 0.0
Dy161 Dy 0.12188 0.85725 0.26273 0.0
C162 C 0.1058 0.82671 0.2404 0.0
O163 O 0.08304 0.8523 0.28675 0.0
O164 O 0.1107 0.84507 0.28978 0.0
O165 O 0.06129 0.84139 0.23908 0.0
O166 O 0.05574 0.86449 0.25477 0.0
O167 O 0.10989 0.87806 0.27968 0.0
O168 O 0.0874 0.88181 0.2588 0.0
O169 O 0.11758 0.87407 0.23645 0.0
O170 O 0.09284 0.86398 0.22411 0.0
O171 O 0.14469 0.87095 0.26541 0.0
O172 O 0.14472 0.844 0.26912 0.0
C173 C 0.09585 0.84727 0.29757 0.0
O174 O 0.09249 0.82975 0.25116 0.0
O175 O 0.11746 0.83792 0.23906 0.0
C176 C 0.03781 0.85686 0.22727 0.0
C177 C 0.01175 0.86143 0.19881 0.0
C178 C 0.02567 0.85154 0.194 0.0
C179 C 0.03852 0.84927 0.20803 0.0
C180 C 0.02423 0.86729 0.23179 0.0
C181 C 0.01139 0.86962 0.21771 0.0
C182 C 0.04998 0.85251 0.24341 0.0
C183 C 0.09807 0.88752 0.27213 0.0
C184 C 0.10608 0.87342 0.2224 0.0
C185 C 0.16556 0.85901 0.28669 0.0
C186 C 0.19046 0.86147 0.31673 0.0
C187 C 0.17808 0.87386 0.31502 0.0
C188 C 0.16572 0.87264 0.30016 0.0
C189 C 0.1779 0.84669 0.28838 0.0
C190 C 0.19019 0.84789 0.30319 0.0
C191 C 0.15338 0.85768 0.27003 0.0
H192 H 0.02654 0.84529 0.17947 0.0
H193 H 0.04877 0.84115 0.20396 0.0
H194 H 0.02325 0.8732 0.24654 0.0
H195 H 0.00084 0.87724 0.22202 0.0
H196 H 0.17781 0.8844 0.32532 0.0
H197 H 0.15639 0.88238 0.29916 0.0
H198 H 0.17816 0.83619 0.27802 0.0
H199 H 0.19967 0.83827 0.30378 0.0
Dy200 Dy 0.33444 0.83593 0.50241 0.0
Dy201 Dy 0.33396 0.87749 0.50973 0.0
C202 C 0.36352 0.8592 0.48643 0.0
O203 O 0.33696 0.83919 0.5359 0.0
O204 O 0.3457 0.86651 0.53744 0.0
O205 O 0.34783 0.81321 0.49527 0.0
O206 O 0.32177 0.81213 0.50238 0.0
O207 O 0.31252 0.86756 0.52702 0.0
O208 O 0.30844 0.84405 0.50781 0.0
O209 O 0.31801 0.87302 0.48263 0.0
O210 O 0.32641 0.84659 0.47267 0.0
O211 O 0.32114 0.9012 0.51059 0.0
O212 O 0.34761 0.90005 0.51614 0.0
C213 C 0.34274 0.85201 0.54607 0.0
O214 O 0.35994 0.84541 0.49624 0.0
O215 O 0.35338 0.87206 0.48651 0.0
C216 C 0.3322 0.79143 0.47971 0.0
C217 C 0.32885 0.76534 0.45098 0.0
C218 C 0.34169 0.77705 0.44923 0.0
C219 C 0.34336 0.78993 0.46343 0.0
C220 C 0.31912 0.78002 0.48117 0.0
C221 C 0.31743 0.76717 0.46696 0.0
C222 C 0.33471 0.80386 0.49611 0.0
C223 C 0.30302 0.85548 0.5205 0.0
C224 C 0.31804 0.86056 0.46962 0.0
C225 C 0.33257 0.92173 0.5324 0.0
C226 C 0.32965 0.94614 0.56316 0.0
C227 C 0.31965 0.9318 0.56348 0.0
C228 C 0.32113 0.91966 0.54825 0.0
C229 C 0.34243 0.93603 0.532 0.0
C230 C 0.34099 0.94812 0.54717 0.0
C231 C 0.33433 0.90944 0.51588 0.0
H232 H 0.35081 0.77594 0.43726 0.0
H233 H 0.35364 0.79845 0.4619 0.0
H234 H 0.31037 0.78084 0.49359 0.0
H235 H 0.30724 0.75855 0.4686 0.0
H236 H 0.3109 0.92982 0.57568 0.0
H237 H 0.31339 0.90868 0.54888 0.0
H238 H 0.35126 0.93791 0.51984 0.0
H239 H 0.34869 0.95911 0.54624 0.0
Dy240 Dy 0.35869 0.08671 0.75382 0.0
Dy241 Dy 0.31304 0.08699 0.76078 0.0
C242 C 0.33122 0.11682 0.73817 0.0
O243 O 0.35273 0.09506 0.78577 0.0
O244 O 0.32368 0.09727 0.78948 0.0
O245 O 0.37957 0.10236 0.74584 0.0
O246 O 0.38321 0.07606 0.75195 0.0
O247 O 0.33501 0.07325 0.76532 0.0
O248 O 0.35774 0.06136 0.76896 0.0
O249 O 0.31767 0.07451 0.73098 0.0
O250 O 0.34672 0.07367 0.72736 0.0
O251 O 0.29673 0.06859 0.77371 0.0
O252 O 0.28679 0.09183 0.761 0.0
C253 C 0.33908 0.09817 0.79644 0.0
O254 O 0.34585 0.10911 0.73952 0.0
O255 O 0.31723 0.11123 0.74591 0.0
C256 C 0.402 0.08817 0.72895 0.0
C257 C 0.42671 0.08537 0.69857 0.0
C258 C 0.41328 0.09657 0.69625 0.0
C259 C 0.40106 0.09799 0.71131 0.0
C260 C 0.41513 0.07673 0.73103 0.0
C261 C 0.42732 0.07535 0.7161 0.0
C262 C 0.39 0.08984 0.74582 0.0
C263 C 0.34211 0.05994 0.77171 0.0
C264 C 0.33144 0.07013 0.72133 0.0
C265 C 0.27146 0.07914 0.78789 0.0
C266 C 0.24621 0.07962 0.81773 0.0
C267 C 0.25766 0.06632 0.81679 0.0
C268 C 0.27008 0.06605 0.802 0.0
C269 C 0.26013 0.09252 0.78896 0.0
C270 C 0.24769 0.09277 0.80369 0.0
C271 C 0.28359 0.07806 0.77103 0.0
H272 H 0.4122 0.10432 0.68284 0.0
H273 H 0.39102 0.10686 0.70921 0.0
H274 H 0.41617 0.06904 0.74451 0.0
H275 H 0.43753 0.06679 0.71872 0.0
H276 H 0.25705 0.05608 0.8275 0.0
H277 H 0.27846 0.05543 0.80144 0.0
H278 H 0.26061 0.10268 0.77812 0.0
H279 H 0.23895 0.10309 0.80371 0.0
Dy280 Dy 0.10096 0.11216 1.00393 0.0
Dy281 Dy 0.10121 0.06683 1.00918 0.0
C282 C 0.0719 0.08573 0.98602 0.0
O283 O 0.09263 0.10603 0.03562 0.0
O284 O 0.09138 0.07682 0.03837 0.0
O285 O 0.08565 0.13352 0.99566 0.0
O286 O 0.1114 0.13689 1.00321 0.0
O287 O 0.11873 0.08504 1.01827 0.0
O288 O 0.12512 0.11125 1.02022 0.0
O289 O 0.11336 0.07187 0.97938 0.0
O290 O 0.11601 0.10102 0.97865 0.0
O291 O 0.11945 0.04851 1.01871 0.0
O292 O 0.09458 0.04077 1.01071 0.0
C293 C 0.09016 0.09207 0.04599 0.0
O294 O 0.07928 0.10039 0.98789 0.0
O295 O 0.07752 0.07162 0.9937 0.0
C296 C 0.10031 0.1558 0.97925 0.0
C297 C 0.10418 0.18029 0.94861 0.0
C298 C 0.09203 0.16783 0.94682 0.0
C299 C 0.0901 0.15571 0.96198 0.0
C300 C 0.1127 0.16796 0.98077 0.0
C301 C 0.11465 0.18002 0.96564 0.0
C302 C 0.09802 0.14391 0.99625 0.0
C303 C 0.12928 0.09597 1.02375 0.0
C304 C 0.11906 0.08587 0.97142 0.0
C305 C 0.10883 0.02437 0.03557 0.0
C306 C 0.10961 -0.00049 0.06623 0.0
C307 C 0.12234 0.01138 0.06477 0.0
C308 C 0.12198 0.02365 0.0496 0.0
C309 C 0.09605 0.01265 0.03724 0.0
C310 C 0.09637 0.00049 0.05242 0.0
C311 C 0.10891 0.03622 1.01823 0.0
H312 H 0.0839 0.16751 0.93376 0.0
H313 H 0.08049 0.14645 0.96029 0.0
H314 H 0.12072 0.16837 0.99395 0.0
H315 H 0.12398 0.18951 0.96772 0.0
H316 H 0.13285 0.01092 0.07498 0.0
H317 H 0.13216 0.03234 0.04862 0.0
H318 H 0.08585 0.01272 1.02658 0.0
H319 H 0.08618 -0.00819 0.05327 0.0
Dy320 Dy 0.81305 0.85394 0.7609 0.0
Dy321 Dy 0.85482 0.85592 0.7543 0.0
C322 C 0.83449 0.88548 0.77575 0.0
O323 O 0.8164 0.86274 0.729 0.0
O324 O 0.84345 0.87216 0.73053 0.0
O325 O 0.78823 0.86421 0.75896 0.0
O326 O 0.79218 0.83937 0.7711 0.0
O327 O 0.84475 0.83699 0.73283 0.0
O328 O 0.82219 0.82884 0.75115 0.0
O329 O 0.85082 0.84403 0.78503 0.0
O330 O 0.82418 0.85315 0.79153 0.0
O331 O 0.87847 0.84338 0.74999 0.0
O332 O 0.87701 0.87043 0.75009 0.0
C333 C 0.8288 0.87157 0.72187 0.0
O334 O 0.82036 0.87976 0.76887 0.0
O335 O 0.84847 0.87706 0.77472 0.0
C336 C 0.76909 0.85444 0.78384 0.0
C337 C 0.74477 0.85911 0.81433 0.0
C338 C 0.75753 0.87084 0.8117 0.0
C339 C 0.76963 0.8685 0.79662 0.0
C340 C 0.7563 0.8429 0.78632 0.0
C341 C 0.74429 0.84519 0.80131 0.0
C342 C 0.78151 0.85133 0.76775 0.0
C343 C 0.83312 0.82615 0.73684 0.0
C344 C 0.8385 0.84723 0.7977 0.0
C345 C 0.89868 0.85842 0.73028 0.0
C346 C 0.9244 0.86008 0.70083 0.0
C347 C 0.91397 0.84605 0.70201 0.0
C348 C 0.9013 0.8452 0.71656 0.0
C349 C 0.90877 0.8726 0.72876 0.0
C350 C 0.92142 0.87344 0.71426 0.0
C351 C 0.88643 0.85737 0.74712 0.0
H352 H 0.75836 0.88163 0.82155 0.0
H353 H 0.77941 0.87759 0.79504 0.0
H354 H 0.75559 0.83202 0.77659 0.0
H355 H 0.73453 0.83606 0.80259 0.0
H356 H 0.91564 0.83562 0.69174 0.0
H357 H 0.89375 0.8341 0.71725 0.0
H358 H 0.90716 0.88293 0.7392 0.0
H359 H 0.92924 0.88437 0.71411 0.0
Dy360 Dy 0.83354 0.06667 0.51018 0.0
Dy361 Dy 0.83456 0.1126 0.50344 0.0
C362 C 0.8071 0.09722 0.52197 0.0
O363 O 0.82105 0.07167 0.4806 0.0
O364 O 0.82022 0.10102 0.4777 0.0
O365 O 0.81521 0.05004 0.52264 0.0
O366 O 0.8387 0.04023 0.51121 0.0
O367 O 0.85685 0.09929 0.49021 0.0
O368 O 0.85745 0.07017 0.49453 0.0
O369 O 0.84327 0.10645 0.53521 0.0
O370 O 0.84418 0.07712 0.53866 0.0
O371 O 0.85001 0.13223 0.49123 0.0
O372 O 0.8265 0.13839 0.50482 0.0
C373 C 0.81649 0.08572 0.47145 0.0
O374 O 0.81982 0.08884 0.51612 0.0
O375 O 0.80951 0.11278 0.51844 0.0
C376 C 0.82562 0.02491 0.53793 0.0
C377 C 0.82548 -0.00042 0.56808 0.0
C378 C 0.81191 0.01056 0.56583 0.0
C379 C 0.81198 0.02304 0.55094 0.0
C380 C 0.8393 0.01411 0.54035 0.0
C381 C 0.83926 0.00169 0.5553 0.0
C382 C 0.82485 0.0369 0.52073 0.0
C383 C 0.86379 0.08431 0.48788 0.0
C384 C 0.84579 0.09252 0.5458 0.0
C385 C 0.83547 0.15606 0.47799 0.0
C386 C 0.83039 0.18171 0.44888 0.0
C387 C 0.84338 0.17004 0.44661 0.0
C388 C 0.84592 0.1574 0.46101 0.0
C389 C 0.82219 0.1674 0.47992 0.0
C390 C 0.81964 0.18001 0.46553 0.0
C391 C 0.83904 0.14392 0.49452 0.0
H392 H 0.80096 0.00922 0.57514 0.0
H393 H 0.80113 0.03095 0.54929 0.0
H394 H 0.84996 0.01505 0.53048 0.0
H395 H 0.85006 -0.00631 0.55674 0.0
H396 H 0.85201 0.17104 0.4341 0.0
H397 H 0.85634 0.14897 0.4591 0.0
H398 H 0.81394 0.16679 0.49286 0.0
H399 H 0.80935 0.18858 0.46761 0.0
Dy400 Dy 0.62371 0.08807 0.25938 0.0
Dy401 Dy 0.57815 0.0883 0.25278 0.0
C402 C 0.59474 0.06113 0.27072 0.0
O403 O 0.61907 0.07504 0.23001 0.0
O404 O 0.59004 0.07482 0.22642 0.0
O405 O 0.64056 0.06956 0.27149 0.0
O406 O 0.64979 0.09344 0.26019 0.0
O407 O 0.59048 0.11107 0.2389 0.0
O408 O 0.61937 0.11193 0.24336 0.0
O409 O 0.58409 0.09666 0.28476 0.0
O410 O 0.61313 0.09828 0.28825 0.0
O411 O 0.55726 0.10393 0.24389 0.0
O412 O 0.55354 0.07808 0.25184 0.0
C413 C 0.60528 0.07079 0.22049 0.0
O414 O 0.60195 0.0744 0.26467 0.0
O415 O 0.57915 0.06288 0.26779 0.0
C416 C 0.66543 0.08022 0.28644 0.0
C417 C 0.69032 0.08035 0.31673 0.0
C418 C 0.67673 0.0695 0.31822 0.0
C419 C 0.66444 0.06941 0.30322 0.0
C420 C 0.67893 0.09112 0.28505 0.0
C421 C 0.69119 0.09121 0.29999 0.0
C422 C 0.65339 0.07938 0.26948 0.0
C423 C 0.60522 0.11817 0.23659 0.0
C424 C 0.5978 0.09944 0.29541 0.0
C425 C 0.53501 0.08938 0.22748 0.0
C426 C 0.50992 0.08618 0.19764 0.0
C427 C 0.52058 0.10003 0.19763 0.0
C428 C 0.53295 0.10164 0.21241 0.0
C429 C 0.5247 0.07529 0.22709 0.0
C430 C 0.51236 0.07368 0.21235 0.0
C431 C 0.54681 0.0916 0.24454 0.0
H432 H 0.67556 0.0611 0.33101 0.0
H433 H 0.65429 0.06073 0.30469 0.0
H434 H 0.68021 0.09939 0.27214 0.0
H435 H 0.70159 0.09953 0.29813 0.0
H436 H 0.51924 0.10978 0.18635 0.0
H437 H 0.54064 0.11267 0.21226 0.0
H438 H 0.52585 0.06568 0.2386 0.0
H439 H 0.5043 0.06295 0.21304 0.0
Dy440 Dy 0.60198 0.87802 1.00913 0.0
Dy441 Dy 0.60271 0.83616 1.00372 0.0
C442 C 0.63379 0.85597 1.02282 0.0
O443 O 0.61159 0.8737 0.97752 0.0
O444 O 0.6194 0.84591 0.97987 0.0
O445 O 0.61213 0.9029 1.0066 0.0
O446 O 0.58745 0.8994 1.01857 0.0
O447 O 0.58499 0.84678 0.98101 0.0
O448 O 0.5769 0.86954 0.99926 0.0
O449 O 0.59098 0.84123 0.03403 0.0
O450 O 0.60128 0.86746 0.04023 0.0
O451 O 0.58893 0.81349 0.998 0.0
O452 O 0.6154 0.81232 1.00293 0.0
C453 C 0.61996 0.86056 0.97089 0.0
O454 O 0.62737 0.87067 1.01854 0.0
O455 O 0.62591 0.84177 1.02052 0.0
C456 C 0.60235 0.92241 0.03116 0.0
C457 C 0.60611 0.94629 0.06241 0.0
C458 C 0.61541 0.93133 0.06265 0.0
C459 C 0.61349 0.91943 0.04717 0.0
C460 C 0.59334 0.9374 0.03074 0.0
C461 C 0.5952 0.94921 0.04613 0.0
C462 C 0.5993 0.90997 1.0151 0.0
C463 C 0.57422 0.85867 0.98481 0.0
C464 C 0.59473 0.85346 0.04655 0.0
C465 C 0.6042 0.7916 0.98131 0.0
C466 C 0.60743 0.76579 0.95209 0.0
C467 C 0.59475 0.77788 0.9504 0.0
C468 C 0.59312 0.79063 0.96489 0.0
C469 C 0.61712 0.77982 0.98263 0.0
C470 C 0.61875 0.76711 0.96821 0.0
C471 C 0.60221 0.80409 0.99779 0.0
H472 H 0.62384 0.92864 0.07502 0.0
H473 H 0.6205 0.90785 0.04784 0.0
H474 H 0.58469 0.93993 1.01853 0.0
H475 H 0.58807 0.9607 0.04524 0.0
H476 H 0.58575 0.77718 0.93825 0.0
H477 H 0.58302 0.79952 0.96342 0.0
H478 H 0.62586 0.78027 0.99509 0.0
H479 H 0.62883 0.75822 0.96978 0.0
Dy480 Dy 0.81348 0.08905 0.80026 0.0
Dy481 Dy 0.85592 0.08939 0.80634 0.0
C482 C 0.83741 0.0597 0.78371 0.0
O483 O 0.81733 0.07945 0.8317 0.0
O484 O 0.84531 0.07315 0.83044 0.0
O485 O 0.78983 0.07645 0.79991 0.0
O486 O 0.7913 0.10261 0.79174 0.0
O487 O 0.84659 0.11102 0.82436 0.0
O488 O 0.81902 0.11326 0.81521 0.0
O489 O 0.85189 0.10048 0.77546 0.0
O490 O 0.82439 0.09382 0.76995 0.0
O491 O 0.87956 0.10173 0.81022 0.0
O492 O 0.87816 0.07474 0.81095 0.0
C493 C 0.83064 0.07198 0.83895 0.0
O494 O 0.82307 0.06407 0.79151 0.0
O495 O 0.85059 0.06913 0.78442 0.0
C496 C 0.76968 0.08715 0.77645 0.0
C497 C 0.74526 0.08348 0.74588 0.0
C498 C 0.75762 0.07117 0.74867 0.0
C499 C 0.76974 0.073 0.76378 0.0
C500 C 0.75735 0.09935 0.77369 0.0
C501 C 0.74531 0.09756 0.75865 0.0
C502 C 0.78187 0.0895 0.793 0.0
C503 C 0.83222 0.1188 0.82459 0.0
C504 C 0.83889 0.09891 0.7635 0.0
C505 C 0.89967 0.08687 0.83048 0.0
C506 C 0.92512 0.08539 0.86023 0.0
C507 C 0.91473 0.09956 0.85856 0.0
C508 C 0.90218 0.10031 0.84384 0.0
C509 C 0.90973 0.07256 0.83251 0.0
C510 C 0.92224 0.07181 0.84718 0.0
C511 C 0.88754 0.08774 0.81352 0.0
H512 H 0.75806 0.06025 0.73898 0.0
H513 H 0.77913 0.06338 0.76554 0.0
H514 H 0.75696 0.11031 0.78334 0.0
H515 H 0.73587 0.10716 0.75724 0.0
H516 H 0.91636 0.11016 0.86854 0.0
H517 H 0.89464 0.11151 0.84275 0.0
H518 H 0.90817 0.06205 0.82236 0.0
H519 H 0.93006 0.06077 0.84775 0.0
Dy520 Dy 0.60253 0.06669 0.55068 0.0
Dy521 Dy 0.60321 0.10854 0.55634 0.0
C522 C 0.63414 0.08852 0.53691 0.0
O523 O 0.612 0.07078 0.58241 0.0
O524 O 0.62004 0.09836 0.57993 0.0
O525 O 0.61276 0.04165 0.55262 0.0
O526 O 0.58783 0.04555 0.54145 0.0
O527 O 0.58556 0.09801 0.57894 0.0
O528 O 0.57746 0.07557 0.56037 0.0
O529 O 0.59138 0.10378 0.52608 0.0
O530 O 0.60169 0.07742 0.51965 0.0
O531 O 0.58941 0.13144 0.56191 0.0
O532 O 0.61596 0.1321 0.55782 0.0
C533 C 0.62048 0.08375 0.58901 0.0
O534 O 0.62794 0.07389 0.54162 0.0
O535 O 0.62605 0.10274 0.53883 0.0
C536 C 0.60243 0.02234 0.52818 0.0
C537 C 0.60639 -0.00222 0.49756 0.0
C538 C 0.6174 0.01134 0.49892 0.0
C539 C 0.61541 0.02354 0.51407 0.0
C540 C 0.59142 0.00897 0.52674 0.0
C541 C 0.5933 -0.0031 0.51161 0.0
C542 C 0.59978 0.03481 0.5444 0.0
C543 C 0.57477 0.08636 0.57493 0.0
C544 C 0.59511 0.09155 0.51346 0.0
C545 C 0.60445 0.1527 0.57973 0.0
C546 C 0.60739 0.17826 0.60936 0.0
C547 C 0.59249 0.16942 0.60705 0.0
C548 C 0.59103 0.15681 0.59241 0.0
C549 C 0.61944 0.16125 0.58237 0.0
C550 C 0.62093 0.17377 0.59705 0.0
C551 C 0.60274 0.14054 0.5628 0.0
H552 H 0.62769 0.01243 0.48849 0.0
H553 H 0.62402 0.03385 0.51479 0.0
H554 H 0.58122 0.00789 0.53733 0.0
H555 H 0.5843 -0.01304 0.51081 0.0
H556 H 0.58172 0.1726 0.61606 0.0
H557 H 0.57926 0.15057 0.59072 0.0
H558 H 0.63001 0.15848 0.5728 0.0
H559 H 0.6327 0.18002 0.5986 0.0
Dy560 Dy 0.62214 0.85563 0.29965 0.0
Dy561 Dy 0.5815 0.85471 0.30954 0.0
C562 C 0.5994 0.88692 0.29173 0.0
O563 O 0.61854 0.87211 0.32651 0.0
O564 O 0.59336 0.86297 0.33863 0.0
O565 O 0.64516 0.86889 0.29668 0.0
O566 O 0.64467 0.84201 0.29263 0.0
O567 O 0.59217 0.82895 0.31158 0.0
O568 O 0.61756 0.83622 0.3233 0.0
O569 O 0.58351 0.85275 0.27574 0.0
O570 O 0.61037 0.8432 0.27305 0.0
O571 O 0.5611 0.84119 0.3225 0.0
O572 O 0.55652 0.86498 0.30791 0.0
C573 C 0.60695 0.87188 0.34049 0.0
O574 O 0.61063 0.87718 0.28339 0.0
O575 O 0.58868 0.88121 0.30497 0.0
C576 C 0.66572 0.85687 0.27541 0.0
C577 C 0.69012 0.85959 0.2449 0.0
C578 C 0.67454 0.86739 0.24251 0.0
C579 C 0.66241 0.86601 0.25765 0.0
C580 C 0.68121 0.84919 0.27783 0.0
C581 C 0.69328 0.85054 0.2628 0.0
C582 C 0.65361 0.8555 0.29202 0.0
C583 C 0.60545 0.82546 0.32223 0.0
C584 C 0.59583 0.84656 0.26499 0.0
C585 C 0.53805 0.85708 0.33471 0.0
C586 C 0.51183 0.86152 0.3629 0.0
C587 C 0.5253 0.85091 0.36737 0.0
C588 C 0.53824 0.84871 0.35348 0.0
C589 C 0.52497 0.86824 0.33058 0.0
C590 C 0.51204 0.87051 0.34454 0.0
C591 C 0.55023 0.85285 0.31856 0.0
H592 H 0.67165 0.87434 0.22885 0.0
H593 H 0.65051 0.87207 0.2555 0.0
H594 H 0.68404 0.84221 0.2915 0.0
H595 H 0.70521 0.84465 0.26535 0.0
H596 H 0.52571 0.84402 0.38151 0.0
H597 H 0.54811 0.84002 0.35724 0.0
H598 H 0.5244 0.87477 0.31618 0.0
H599 H 0.50184 0.87871 0.34052 0.0
Dy600 Dy 0.8334 0.87789 0.05174 0.0
Dy601 Dy 0.83602 0.83256 0.05925 0.0
C602 C 0.80733 0.84666 0.04109 0.0
O603 O 0.82027 0.87327 0.08081 0.0
O604 O 0.82097 0.84406 0.08465 0.0
O605 O 0.81488 0.89435 0.03886 0.0
O606 O 0.8379 0.90437 0.05102 0.0
O607 O 0.85983 0.8458 0.06736 0.0
O608 O 0.85646 0.87483 0.0695 0.0
O609 O 0.84358 0.83824 1.02689 0.0
O610 O 0.84491 0.86751 1.0236 0.0
O611 O 0.84981 0.81485 0.07726 0.0
O612 O 0.83246 0.80588 0.05492 0.0
C613 C 0.81629 0.85931 0.09032 0.0
O614 O 0.81963 0.85579 0.0462 0.0
O615 O 0.81054 0.8313 0.04542 0.0
C616 C 0.82494 0.91974 1.02423 0.0
C617 C 0.82498 0.94499 0.99409 0.0
C618 C 0.81244 0.93289 0.99454 0.0
C619 C 0.81238 0.92045 1.00947 0.0
C620 C 0.83754 0.93176 1.02369 0.0
C621 C 0.83758 0.9442 1.00881 0.0
C622 C 0.82412 0.90759 0.04121 0.0
C623 C 0.86489 0.86091 0.07278 0.0
C624 C 0.84616 0.85212 1.01627 0.0
C625 C 0.83645 0.78916 0.08479 0.0
C626 C 0.82931 0.76256 0.11178 0.0
C627 C 0.83794 0.77669 0.11854 0.0
C628 C 0.84151 0.78979 0.10522 0.0
C629 C 0.82722 0.77535 0.07823 0.0
C630 C 0.82367 0.76222 0.09157 0.0
C631 C 0.84219 0.80189 0.06998 0.0
H632 H 0.80264 0.933 0.98332 0.0
H633 H 0.80236 0.91154 1.00961 0.0
H634 H 0.84723 0.9318 0.03505 0.0
H635 H 0.84728 0.95345 1.00919 0.0
H636 H 0.84264 0.77731 0.13392 0.0
H637 H 0.84874 0.80015 0.11083 0.0
H638 H 0.82318 0.77444 0.0626 0.0
H639 H 0.8168 0.75161 0.08595 0.0
Dy640 Dy 0.58182 0.59078 0.81014 0.0
Dy641 Dy 0.62259 0.58984 0.79985 0.0
C642 C 0.60583 0.61984 0.82306 0.0
O643 O 0.58385 0.593 0.77647 0.0
O644 O 0.61033 0.60327 0.77404 0.0
O645 O 0.56095 0.60439 0.82225 0.0
O646 O 0.55721 0.57997 0.80905 0.0
O647 O 0.61043 0.56961 0.78256 0.0
O648 O 0.58976 0.56443 0.80539 0.0
O649 O 0.61919 0.57344 0.82709 0.0
O650 O 0.59379 0.58251 0.83905 0.0
O651 O 0.64527 0.5758 0.796 0.0
O652 O 0.64529 0.60276 0.79239 0.0
C653 C 0.59589 0.59973 0.76589 0.0
O654 O 0.59229 0.61643 0.81291 0.0
O655 O 0.61822 0.6092 0.82354 0.0
C656 C 0.53839 0.58855 0.83532 0.0
C657 C 0.51201 0.5842 0.8632 0.0
C658 C 0.52328 0.59737 0.86553 0.0
C659 C 0.53626 0.59954 0.85178 0.0
C660 C 0.52753 0.57497 0.83342 0.0
C661 C 0.51454 0.57276 0.84727 0.0
C662 C 0.55048 0.59237 0.81897 0.0
C663 C 0.60002 0.55939 0.79121 0.0
C664 C 0.60749 0.5736 0.84102 0.0
C665 C 0.66585 0.58731 0.77437 0.0
C666 C 0.69018 0.58387 0.74367 0.0
C667 C 0.6749 0.57556 0.74206 0.0
C668 C 0.66282 0.57728 0.75727 0.0
C669 C 0.68104 0.59553 0.776 0.0
C670 C 0.69306 0.59382 0.7609 0.0
C671 C 0.65392 0.58894 0.79125 0.0
H672 H 0.52186 0.60626 0.8778 0.0
H673 H 0.54429 0.61019 0.85373 0.0
H674 H 0.5287 0.56639 0.82079 0.0
H675 H 0.50603 0.56254 0.84494 0.0
H676 H 0.67221 0.56789 0.72895 0.0
H677 H 0.65119 0.57076 0.75571 0.0
H678 H 0.68371 0.60316 0.78916 0.0
H679 H 0.70475 0.60014 0.76291 0.0
Dy680 Dy 0.60146 0.3357 0.05713 0.0
Dy681 Dy 0.60038 0.37789 0.05096 0.0
C682 C 0.57282 0.3584 0.07572 0.0
O683 O 0.58997 0.34036 1.02657 0.0
O684 O 0.59987 0.36676 1.02015 0.0
O685 O 0.58813 0.31268 0.06235 0.0
O686 O 0.61481 0.31225 0.05928 0.0
O687 O 0.62574 0.37041 0.04218 0.0
O688 O 0.62408 0.34154 0.03955 0.0
O689 O 0.61021 0.37391 0.08258 0.0
O690 O 0.61805 0.34607 0.08073 0.0
O691 O 0.61034 0.40289 0.05323 0.0
O692 O 0.58609 0.39902 0.04018 0.0
C693 C 0.59361 0.35258 1.01396 0.0
O694 O 0.58349 0.34637 0.0794 0.0
O695 O 0.57551 0.36945 0.06146 0.0
C696 C 0.60317 0.29114 0.07992 0.0
C697 C 0.60574 0.26581 0.10992 0.0
C698 C 0.59551 0.27993 0.11299 0.0
C699 C 0.59425 0.29248 0.09816 0.0
C700 C 0.6136 0.27725 0.07702 0.0
C701 C 0.61488 0.26476 0.09179 0.0
C702 C 0.60163 0.30363 0.0634 0.0
C703 C 0.63198 0.35573 0.03754 0.0
C704 C 0.61863 0.36084 0.0894 0.0
C705 C 0.60117 0.42214 1.02792 0.0
C706 C 0.6062 0.4464 0.99722 0.0
C707 C 0.61428 0.43073 0.99629 0.0
C708 C 0.61178 0.41869 1.01153 0.0
C709 C 0.59313 0.43767 1.02883 0.0
C710 C 0.59558 0.44964 1.0137 0.0
C711 C 0.59773 0.40975 0.04399 0.0
H712 H 0.58847 0.28131 0.12688 0.0
H713 H 0.58622 0.30314 0.1009 0.0
H714 H 0.62061 0.27592 0.06308 0.0
H715 H 0.62271 0.25402 0.0887 0.0
H716 H 0.62262 0.42782 0.98391 0.0
H717 H 0.61807 0.40672 1.01047 0.0
H718 H 0.58478 0.44053 0.04123 0.0
H719 H 0.58887 0.46136 1.01477 0.0
Dy720 Dy 0.85818 0.35855 0.30617 0.0
Dy721 Dy 0.81273 0.35981 0.30025 0.0
C722 C 0.83075 0.32904 0.32217 0.0
O723 O 0.85193 0.35055 0.27418 0.0
O724 O 0.82283 0.34965 0.27128 0.0
O725 O 0.87832 0.34227 0.31583 0.0
O726 O 0.88332 0.36749 0.3063 0.0
O727 O 0.83431 0.3741 0.29452 0.0
O728 O 0.85782 0.38459 0.29272 0.0
O729 O 0.81772 0.37164 0.33024 0.0
O730 O 0.84683 0.3723 0.3326 0.0
O731 O 0.79572 0.37827 0.28828 0.0
O732 O 0.78661 0.35453 0.2999 0.0
C733 C 0.83801 0.34819 0.26383 0.0
O734 O 0.84552 0.33612 0.32032 0.0
O735 O 0.81678 0.33539 0.31506 0.0
C736 C 0.90113 0.3561 0.33168 0.0
C737 C 0.92663 0.35909 0.36099 0.0
C738 C 0.91918 0.34357 0.35717 0.0
C739 C 0.90662 0.34209 0.34268 0.0
C740 C 0.90815 0.37177 0.33604 0.0
C741 C 0.9207 0.37325 0.35061 0.0
C742 C 0.88936 0.35401 0.31452 0.0
C743 C 0.84232 0.38733 0.28978 0.0
C744 C 0.83172 0.37599 0.33922 0.0
C745 C 0.7709 0.36758 0.27343 0.0
C746 C 0.74583 0.36734 0.24328 0.0
C747 C 0.75664 0.38097 0.24508 0.0
C748 C 0.76897 0.38112 0.26001 0.0
C749 C 0.76023 0.35386 0.27148 0.0
C750 C 0.74788 0.35373 0.25658 0.0
C751 C 0.78292 0.36848 0.29046 0.0
H752 H 0.9233 0.33246 0.36514 0.0
H753 H 0.90153 0.32985 0.33967 0.0
H754 H 0.90434 0.38284 0.32778 0.0
H755 H 0.92625 0.38536 0.35309 0.0
H756 H 0.7556 0.39157 0.23494 0.0
H757 H 0.77684 0.39197 0.26122 0.0
H758 H 0.76115 0.34334 0.28175 0.0
H759 H 0.73966 0.34313 0.25589 0.0
Dy760 Dy 0.83444 0.60878 0.55816 0.0
Dy761 Dy 0.83517 0.56699 0.55163 0.0
C762 C 0.86302 0.58592 0.57654 0.0
O763 O 0.8472 0.60447 0.52842 0.0
O764 O 0.83836 0.57776 0.52085 0.0
O765 O 0.84745 0.63202 0.56285 0.0
O766 O 0.82061 0.63179 0.56131 0.0
O767 O 0.81007 0.57574 0.54258 0.0
O768 O 0.81442 0.6037 0.53615 0.0
O769 O 0.82606 0.57101 0.58341 0.0
O770 O 0.8167 0.5982 0.58043 0.0
O771 O 0.82361 0.54272 0.55297 0.0
O772 O 0.84911 0.54489 0.5433 0.0
C773 C 0.84472 0.59216 0.51554 0.0
O774 O 0.85247 0.59803 0.58031 0.0
O775 O 0.86015 0.57482 0.56239 0.0
C776 C 0.83248 0.65286 0.58158 0.0
C777 C 0.8303 0.67785 0.61187 0.0
C778 C 0.84219 0.66491 0.61327 0.0
C779 C 0.84329 0.65256 0.59826 0.0
C780 C 0.82033 0.66543 0.58045 0.0
C781 C 0.81925 0.67778 0.59536 0.0
C782 C 0.83375 0.64068 0.5648 0.0
C783 C 0.80525 0.59029 0.53539 0.0
C784 C 0.81688 0.58367 0.5897 0.0
C785 C 0.83375 0.52278 0.52905 0.0
C786 C 0.82971 0.49896 0.49791 0.0
C787 C 0.81764 0.51143 0.50105 0.0
C788 C 0.81969 0.52335 0.51644 0.0
C789 C 0.84563 0.51019 0.52602 0.0
C790 C 0.84368 0.49845 0.51058 0.0
C791 C 0.83649 0.53501 0.54547 0.0
H792 H 0.85072 0.66436 0.62593 0.0
H793 H 0.85269 0.64291 0.59962 0.0
H794 H 0.81184 0.66591 0.56772 0.0
H795 H 0.81008 0.68759 0.59352 0.0
H796 H 0.80682 0.51216 0.49137 0.0
H797 H 0.81037 0.53301 0.5184 0.0
H798 H 0.85651 0.50947 0.53561 0.0
H799 H 0.85309 0.48888 0.50859 0.0
Dy800 Dy 0.58069 0.35161 0.7511 0.0
Dy801 Dy 0.62133 0.35423 0.76139 0.0
C802 C 0.60582 0.32364 0.7389 0.0
O803 O 0.58269 0.34974 0.78488 0.0
O804 O 0.60979 0.34084 0.78747 0.0
O805 O 0.56154 0.33877 0.73471 0.0
O806 O 0.55496 0.35908 0.75498 0.0
O807 O 0.60826 0.37468 0.77782 0.0
O808 O 0.58696 0.37831 0.7552 0.0
O809 O 0.6178 0.37031 0.73408 0.0
O810 O 0.59221 0.36157 0.72263 0.0
O811 O 0.64364 0.36847 0.76574 0.0
O812 O 0.64442 0.34141 0.76802 0.0
C813 C 0.59519 0.34386 0.7956 0.0
O814 O 0.59262 0.3264 0.74996 0.0
O815 O 0.61721 0.33513 0.73736 0.0
C816 C 0.5372 0.35446 0.72632 0.0
C817 C 0.51047 0.36166 0.69965 0.0
C818 C 0.52429 0.35241 0.69293 0.0
C819 C 0.53746 0.34883 0.70609 0.0
C820 C 0.52376 0.36435 0.73278 0.0
C821 C 0.51059 0.36795 0.7196 0.0
C822 C 0.54973 0.34855 0.7413 0.0
C823 C 0.59713 0.38417 0.76895 0.0
C824 C 0.60591 0.37028 0.72042 0.0
C825 C 0.66485 0.35647 0.78634 0.0
C826 C 0.68958 0.35915 0.81662 0.0
C827 C 0.67425 0.36749 0.81879 0.0
C828 C 0.66198 0.36615 0.80379 0.0
C829 C 0.68008 0.3482 0.78415 0.0
C830 C 0.6923 0.34952 0.79905 0.0
C831 C 0.65269 0.35529 0.76967 0.0
H832 H 0.5246 0.34722 0.67776 0.0
H833 H 0.54755 0.3411 0.70057 0.0
H834 H 0.52315 0.36884 0.74827 0.0
H835 H 0.50029 0.37536 0.72521 0.0
H836 H 0.67166 0.3749 0.83218 0.0
H837 H 0.65031 0.3727 0.80579 0.0
H838 H 0.68263 0.34082 0.77071 0.0
H839 H 0.70401 0.34318 0.79662 0.0
Dy840 Dy 0.83645 0.33513 1.00297 0.0
Dy841 Dy 0.83368 0.37821 1.0096 0.0
C842 C 0.86507 0.36118 0.9871 0.0
O843 O 0.84296 0.33952 0.03558 0.0
O844 O 0.84432 0.36851 0.03833 0.0
O845 O 0.85093 0.31469 0.99085 0.0
O846 O 0.828 0.30953 1.00631 0.0
O847 O 0.81454 0.36576 1.02806 0.0
O848 O 0.81059 0.34071 1.01151 0.0
O849 O 0.82079 0.3731 0.98035 0.0
O850 O 0.82182 0.34426 0.97639 0.0
O851 O 0.81699 0.39925 1.01385 0.0
O852 O 0.84351 0.40306 1.01342 0.0
C853 C 0.84529 0.35337 0.04602 0.0
O854 O 0.85914 0.34619 0.99003 0.0
O855 O 0.85753 0.37493 0.99302 0.0
C856 C 0.83579 0.29117 0.97909 0.0
C857 C 0.82941 0.26582 0.95006 0.0
C858 C 0.84321 0.2763 0.94801 0.0
C859 C 0.8464 0.28876 0.96237 0.0
C860 C 0.82183 0.2809 0.98092 0.0
C861 C 0.81865 0.26841 0.96657 0.0
C862 C 0.83998 0.30341 0.99528 0.0
C863 C 0.80555 0.35282 1.02336 0.0
C864 C 0.81687 0.35929 0.97072 0.0
C865 C 0.82776 0.4217 0.03391 0.0
C866 C 0.82586 0.44599 0.06522 0.0
C867 C 0.81448 0.43271 0.06447 0.0
C868 C 0.81541 0.42067 0.04895 0.0
C869 C 0.83909 0.43483 0.03481 0.0
C870 C 0.83826 0.4467 0.05028 0.0
C871 C 0.82901 0.40979 1.0167 0.0
H872 H 0.85191 0.27451 0.93569 0.0
H873 H 0.85741 0.29624 0.96057 0.0
H874 H 0.81349 0.28229 0.99368 0.0
H875 H 0.80783 0.26066 0.9685 0.0
H876 H 0.80467 0.43178 0.07559 0.0
H877 H 0.80641 0.4107 0.04866 0.0
H878 H 0.84868 0.43597 1.02342 0.0
H879 H 0.84751 0.45642 0.05051 0.0
Dy880 Dy 0.85886 0.58568 0.25484 0.0
Dy881 Dy 0.81374 0.58657 0.26364 0.0
C882 C 0.83164 0.61577 0.23934 0.0
O883 O 0.85359 0.59347 0.28717 0.0
O884 O 0.82486 0.59733 0.29158 0.0
O885 O 0.8796 0.60149 0.24674 0.0
O886 O 0.88343 0.5752 0.2527 0.0
O887 O 0.83494 0.57106 0.26749 0.0
O888 O 0.8581 0.5594 0.26745 0.0
O889 O 0.81751 0.5742 0.23361 0.0
O890 O 0.84641 0.5733 0.22834 0.0
O891 O 0.79734 0.56898 0.27781 0.0
O892 O 0.78742 0.59167 0.26378 0.0
C893 C 0.84035 0.59742 0.29816 0.0
O894 O 0.84597 0.60747 0.23919 0.0
O895 O 0.81816 0.61102 0.24905 0.0
C896 C 0.90217 0.58753 0.22983 0.0
C897 C 0.92669 0.58462 0.1993 0.0
C898 C 0.91301 0.59547 0.19674 0.0
C899 C 0.90085 0.5969 0.21186 0.0
C900 C 0.91567 0.57658 0.23224 0.0
C901 C 0.92776 0.57512 0.2172 0.0
C902 C 0.89013 0.58905 0.24666 0.0
C903 C 0.84269 0.55739 0.27142 0.0
C904 C 0.83091 0.56997 0.22314 0.0
C905 C 0.77183 0.57983 0.29104 0.0
C906 C 0.74611 0.57995 0.32029 0.0
C907 C 0.76099 0.57117 0.32389 0.0
C908 C 0.77369 0.57109 0.30944 0.0
C909 C 0.75713 0.58886 0.28763 0.0
C910 C 0.74444 0.58897 0.30208 0.0
C911 C 0.7842 0.57827 0.2745 0.0
H912 H 0.91169 0.60283 0.18305 0.0
H913 H 0.89052 0.60539 0.20954 0.0
H914 H 0.91701 0.56927 0.24599 0.0
H915 H 0.9382 0.56686 0.2199 0.0
H916 H 0.7628 0.56428 0.33786 0.0
H917 H 0.78481 0.5639 0.31254 0.0
H918 H 0.75523 0.5955 0.27348 0.0
H919 H 0.7331 0.59569 0.29865 0.0
Dy920 Dy 0.60262 0.60912 0.5044 0.0
Dy921 Dy 0.60051 0.56657 0.51106 0.0
C922 C 0.57208 0.58711 0.48684 0.0
O923 O 0.59196 0.60604 0.53544 0.0
O924 O 0.59703 0.57792 0.54165 0.0
O925 O 0.59128 0.63362 0.5013 0.0
O926 O 0.61792 0.63076 0.49917 0.0
O927 O 0.62612 0.57414 0.51814 0.0
O928 O 0.62301 0.60214 0.52552 0.0
O929 O 0.60959 0.56975 0.47916 0.0
O930 O 0.61762 0.59747 0.4799 0.0
O931 O 0.61154 0.54186 0.51054 0.0
O932 O 0.58623 0.54518 0.52054 0.0
C933 C 0.59285 0.59303 0.54765 0.0
O934 O 0.58109 0.6007 0.48588 0.0
O935 O 0.57641 0.5739 0.4974 0.0
C936 C 0.60609 0.65352 0.48114 0.0
C937 C 0.60757 0.67895 0.45116 0.0
C938 C 0.59604 0.66585 0.44958 0.0
C939 C 0.5953 0.65326 0.46441 0.0
C940 C 0.61775 0.66637 0.48255 0.0
C941 C 0.61848 0.67891 0.46782 0.0
C942 C 0.60536 0.64097 0.49765 0.0
C943 C 0.63162 0.58818 0.52573 0.0
C944 C 0.61757 0.58259 0.47148 0.0
C945 C 0.60113 0.52244 0.53468 0.0
C946 C 0.60548 0.49796 0.56525 0.0
C947 C 0.61481 0.51278 0.56553 0.0
C948 C 0.61266 0.52492 0.55035 0.0
C949 C 0.59172 0.50782 0.53455 0.0
C950 C 0.59384 0.49573 0.54962 0.0
C951 C 0.59852 0.53474 0.51826 0.0
H952 H 0.58759 0.66527 0.43685 0.0
H953 H 0.58626 0.64341 0.46286 0.0
H954 H 0.62619 0.66685 0.49532 0.0
H955 H 0.62736 0.68885 0.46983 0.0
H956 H 0.62393 0.51486 0.57729 0.0
H957 H 0.62002 0.53618 0.5508 0.0
H958 H 0.58266 0.50572 0.5227 0.0
H959 H 0.5862 0.48467 0.54913 0.0
Dy960 Dy 0.31442 0.35679 0.26103 0.0
Dy961 Dy 0.3554 0.35441 0.2521 0.0
C962 C 0.33785 0.38736 0.2689 0.0
O963 O 0.31793 0.37217 0.23319 0.0
O964 O 0.34444 0.36449 0.22337 0.0
O965 O 0.29158 0.37067 0.26435 0.0
O966 O 0.29169 0.34368 0.26755 0.0
O967 O 0.34419 0.32904 0.25012 0.0
O968 O 0.31907 0.33705 0.23784 0.0
O969 O 0.353 0.35234 0.28584 0.0
O970 O 0.32568 0.34435 0.28806 0.0
O971 O 0.37491 0.34143 0.23625 0.0
O972 O 0.38101 0.36193 0.25634 0.0
C973 C 0.33035 0.37252 0.22031 0.0
O974 O 0.32629 0.37807 0.27703 0.0
O975 O 0.34875 0.38123 0.25606 0.0
C976 C 0.27088 0.35872 0.28537 0.0
C977 C 0.24655 0.36131 0.31606 0.0
C978 C 0.26191 0.36937 0.31821 0.0
C979 C 0.27401 0.36805 0.30301 0.0
C980 C 0.25562 0.35073 0.28321 0.0
C981 C 0.24359 0.35202 0.29833 0.0
C982 C 0.28295 0.35742 0.26865 0.0
C983 C 0.33096 0.32592 0.23929 0.0
C984 C 0.34023 0.34702 0.29636 0.0
C985 C 0.39928 0.35676 0.22828 0.0
C986 C 0.42618 0.3626 0.2016 0.0
C987 C 0.41104 0.35654 0.19415 0.0
C988 C 0.39775 0.35361 0.20734 0.0
C989 C 0.4141 0.36362 0.23552 0.0
C990 C 0.42738 0.36651 0.22236 0.0
C991 C 0.38653 0.35119 0.24301 0.0
H992 H 0.26465 0.37651 0.33174 0.0
H993 H 0.28574 0.37431 0.30499 0.0
H994 H 0.25293 0.34358 0.26966 0.0
H995 H 0.23183 0.3459 0.29596 0.0
H996 H 0.40971 0.3533 0.17828 0.0
H997 H 0.38651 0.3483 0.20123 0.0
H998 H 0.41564 0.36616 0.25156 0.0
H999 H 0.43876 0.37145 0.22854 0.0
Dy1000 Dy 0.33477 0.56642 1.0094 0.0
Dy1001 Dy 0.3341 0.60873 1.00398 0.0
C1002 C 0.30321 0.58872 1.02303 0.0
O1003 O 0.3255 0.57066 0.97773 0.0
O1004 O 0.31807 0.59859 0.97967 0.0
O1005 O 0.32393 0.54176 1.00791 0.0
O1006 O 0.34907 0.54481 1.01861 0.0
O1007 O 0.35328 0.59887 0.98261 0.0
O1008 O 0.35963 0.57389 0.99789 0.0
O1009 O 0.34574 0.60397 0.03433 0.0
O1010 O 0.33637 0.57728 0.04033 0.0
O1011 O 0.34718 0.63199 0.99928 0.0
O1012 O 0.32049 0.63201 1.00206 0.0
C1013 C 0.31744 0.58389 0.97084 0.0
O1014 O 0.30927 0.5741 1.01775 0.0
O1015 O 0.31145 0.60278 1.02174 0.0
C1016 C 0.33411 0.52228 0.03258 0.0
C1017 C 0.33033 0.49846 0.06398 0.0
C1018 C 0.3179 0.51051 0.06026 0.0
C1019 C 0.31979 0.52238 0.04473 0.0
C1020 C 0.34637 0.51018 0.03617 0.0
C1021 C 0.34452 0.49842 0.05163 0.0
C1022 C 0.33682 0.53452 1.01608 0.0
C1023 C 0.36316 0.58595 0.98516 0.0
C1024 C 0.34258 0.59146 0.04667 0.0
C1025 C 0.33191 0.65338 0.98161 0.0
C1026 C 0.32917 0.6792 0.95231 0.0
C1027 C 0.34148 0.66673 0.95051 0.0
C1028 C 0.34287 0.65396 0.96505 0.0
C1029 C 0.31935 0.66554 0.98304 0.0
C1030 C 0.31798 0.67826 0.96859 0.0
C1031 C 0.33356 0.64083 0.99808 0.0
H1032 H 0.30687 0.51098 0.06959 0.0
H1033 H 0.31015 0.53164 0.04234 0.0
H1034 H 0.35748 0.50982 1.02696 0.0
H1035 H 0.35421 0.48917 0.05377 0.0
H1036 H 0.35037 0.66712 0.93822 0.0
H1037 H 0.35266 0.64474 0.96349 0.0
H1038 H 0.3107 0.66535 0.9956 0.0
H1039 H 0.30817 0.68745 0.97025 0.0
Dy1040 Dy 0.12371 0.58603 0.76045 0.0
Dy1041 Dy 0.07815 0.58627 0.75532 0.0
C1042 C 0.09522 0.55895 0.77195 0.0
O1043 O 0.1185 0.57443 0.73029 0.0
O1044 O 0.08942 0.57245 0.72884 0.0
O1045 O 0.14083 0.56732 0.77157 0.0
O1046 O 0.14975 0.5915 0.76084 0.0
O1047 O 0.09061 0.60779 0.73887 0.0
O1048 O 0.11875 0.61084 0.74727 0.0
O1049 O 0.08466 0.59514 0.78698 0.0
O1050 O 0.11377 0.59518 0.79007 0.0
O1051 O 0.05731 0.60218 0.74729 0.0
O1052 O 0.05343 0.57625 0.75486 0.0
C1053 C 0.10453 0.56939 0.72175 0.0
O1054 O 0.10193 0.57269 0.76665 0.0
O1055 O 0.07956 0.56038 0.76929 0.0
C1056 C 0.16554 0.57798 0.78683 0.0
C1057 C 0.19045 0.57798 0.81713 0.0
C1058 C 0.17935 0.56458 0.81549 0.0
C1059 C 0.16708 0.56455 0.80048 0.0
C1060 C 0.17653 0.59145 0.78861 0.0
C1061 C 0.1888 0.59146 0.80357 0.0
C1062 C 0.15355 0.57733 0.76978 0.0
C1063 C 0.10493 0.61594 0.73846 0.0
C1064 C 0.09859 0.59711 0.79747 0.0
C1065 C 0.03487 0.58796 0.73108 0.0
C1066 C 0.01065 0.58458 0.70029 0.0
C1067 C 0.02434 0.59518 0.69756 0.0
C1068 C 0.03632 0.59687 0.71281 0.0
C1069 C 0.02149 0.57708 0.7336 0.0
C1070 C 0.00953 0.5754 0.71845 0.0
C1071 C 0.04675 0.58994 0.748 0.0
H1072 H 0.18011 0.55408 0.82582 0.0
H1073 H 0.15895 0.55389 0.79941 0.0
H1074 H 0.17591 0.60188 0.77816 0.0
H1075 H 0.19727 0.60187 0.80414 0.0
H1076 H 0.02579 0.60224 0.68367 0.0
H1077 H 0.04659 0.60525 0.71034 0.0
H1078 H 0.0201 0.57005 0.74755 0.0
H1079 H -0.00089 0.56731 0.72133 0.0
Dy1080 Dy 0.10235 0.37806 0.50857 0.0
Dy1081 Dy 0.10319 0.33603 0.50245 0.0
C1082 C 0.13446 0.35602 0.52121 0.0
O1083 O 0.11193 0.37422 0.477 0.0
O1084 O 0.11905 0.34611 0.47788 0.0
O1085 O 0.11209 0.40313 0.50616 0.0
O1086 O 0.08774 0.39908 0.51896 0.0
O1087 O 0.08501 0.34675 0.48047 0.0
O1088 O 0.07726 0.36953 0.49896 0.0
O1089 O 0.09164 0.34107 0.53296 0.0
O1090 O 0.10282 0.36688 0.53929 0.0
O1091 O 0.08951 0.31338 0.49627 0.0
O1092 O 0.11591 0.31217 0.50167 0.0
C1093 C 0.11979 0.36104 0.46962 0.0
O1094 O 0.12776 0.37076 0.5178 0.0
O1095 O 0.12685 0.34175 0.51823 0.0
C1096 C 0.10247 0.4223 0.53144 0.0
C1097 C 0.10675 0.44619 0.56258 0.0
C1098 C 0.11909 0.43409 0.55874 0.0
C1099 C 0.11693 0.42215 0.54335 0.0
C1100 C 0.09035 0.43454 0.53508 0.0
C1101 C 0.09244 0.44632 0.55045 0.0
C1102 C 0.09937 0.40987 0.51532 0.0
C1103 C 0.07434 0.35867 0.48456 0.0
C1104 C 0.09626 0.35289 0.54561 0.0
C1105 C 0.10485 0.29128 0.48013 0.0
C1106 C 0.10785 0.26516 0.45124 0.0
C1107 C 0.09751 0.27906 0.44743 0.0
C1108 C 0.09598 0.29198 0.46177 0.0
C1109 C 0.11559 0.27771 0.48356 0.0
C1110 C 0.11709 0.26483 0.46933 0.0
C1111 C 0.10275 0.30394 0.49639 0.0
H1112 H 0.1302 0.43361 0.56794 0.0
H1113 H 0.12645 0.41277 0.54091 0.0
H1114 H 0.07914 0.43492 0.52605 0.0
H1115 H 0.08281 0.4556 0.55282 0.0
H1116 H 0.09017 0.27968 0.4337 0.0
H1117 H 0.08765 0.30232 0.45865 0.0
H1118 H 0.12265 0.27691 0.49752 0.0
H1119 H 0.12538 0.25448 0.4726 0.0
Dy1120 Dy 0.31226 0.58861 0.30096 0.0
Dy1121 Dy 0.35783 0.58856 0.30693 0.0
C1122 C 0.34125 0.56144 0.28965 0.0
O1123 O 0.31728 0.57601 0.33038 0.0
O1124 O 0.34635 0.57549 0.3338 0.0
O1125 O 0.29555 0.56998 0.28952 0.0
O1126 O 0.2861 0.59404 0.30048 0.0
O1127 O 0.3454 0.61121 0.32132 0.0
O1128 O 0.31657 0.61262 0.31637 0.0
O1129 O 0.35156 0.59686 0.27494 0.0
O1130 O 0.32246 0.59838 0.27191 0.0
O1131 O 0.37876 0.60419 0.31472 0.0
O1132 O 0.38239 0.57802 0.30807 0.0
C1133 C 0.33113 0.57175 0.33985 0.0
O1134 O 0.33411 0.57484 0.29569 0.0
O1135 O 0.35686 0.56301 0.29228 0.0
C1136 C 0.27054 0.58059 0.27472 0.0
C1137 C 0.24596 0.5808 0.2442 0.0
C1138 C 0.26118 0.57255 0.24101 0.0
C1139 C 0.27338 0.57245 0.25612 0.0
C1140 C 0.2554 0.58889 0.27783 0.0
C1141 C 0.24327 0.58903 0.26275 0.0
C1142 C 0.28262 0.57985 0.29155 0.0
C1143 C 0.33066 0.61858 0.32341 0.0
C1144 C 0.33768 0.5995 0.26449 0.0
C1145 C 0.40081 0.58977 0.33198 0.0
C1146 C 0.42563 0.58691 0.36211 0.0
C1147 C 0.41616 0.60166 0.36021 0.0
C1148 C 0.40391 0.60309 0.34528 0.0
C1149 C 0.4099 0.57483 0.33433 0.0
C1150 C 0.42212 0.5734 0.34926 0.0
C1151 C 0.38916 0.59165 0.31471 0.0
H1152 H 0.2637 0.56623 0.2268 0.0
H1153 H 0.28492 0.56591 0.25327 0.0
H1154 H 0.25284 0.59509 0.29211 0.0
H1155 H 0.23161 0.59529 0.26584 0.0
H1156 H 0.4184 0.61223 0.37007 0.0
H1157 H 0.39717 0.61477 0.34387 0.0
H1158 H 0.40794 0.56436 0.32422 0.0
H1159 H 0.42929 0.56194 0.35013 0.0
Dy1160 Dy 0.10332 0.56667 0.05102 0.0
Dy1161 Dy 0.10052 0.61204 0.05826 0.0
C1162 C 0.12955 0.59801 0.04071 0.0
O1163 O 0.11582 0.57153 0.08045 0.0
O1164 O 0.11524 0.60075 0.08403 0.0
O1165 O 0.12188 0.55043 0.03785 0.0
O1166 O 0.09939 0.54008 0.05099 0.0
O1167 O 0.07689 0.59871 0.06656 0.0
O1168 O 0.07984 0.56961 0.06789 0.0
O1169 O 0.09328 0.60611 1.02593 0.0
O1170 O 0.09174 0.57684 1.02289 0.0
O1171 O 0.086 0.62989 0.07521 0.0
O1172 O 0.10443 0.63867 0.05412 0.0
C1173 C 0.11972 0.58552 0.08992 0.0
O1174 O 0.11736 0.58865 0.04563 0.0
O1175 O 0.1261 0.61335 0.04486 0.0
C1176 C 0.11194 0.52477 1.02387 0.0
C1177 C 0.1114 0.49953 0.99372 0.0
C1178 C 0.12405 0.51152 0.99401 0.0
C1179 C 0.12435 0.52395 1.00895 0.0
C1180 C 0.09926 0.51283 1.02353 0.0
C1181 C 0.09898 0.5004 1.00865 0.0
C1182 C 0.11296 0.53703 0.04071 0.0
C1183 C 0.07157 0.58358 0.07137 0.0
C1184 C 0.09064 0.5922 1.01543 0.0
C1185 C 0.09935 0.65527 0.08383 0.0
C1186 C 0.10696 0.68097 0.11187 0.0
C1187 C 0.09434 0.66945 0.116 0.0
C1188 C 0.09056 0.65683 0.10215 0.0
C1189 C 0.11224 0.66654 0.07985 0.0
C1190 C 0.11602 0.67923 0.09374 0.0
C1191 C 0.09409 0.64276 0.06849 0.0
H1192 H 0.13373 0.51136 0.98265 0.0
H1193 H 0.13444 0.53279 1.00894 0.0
H1194 H 0.08968 0.51286 0.03502 0.0
H1195 H 0.08921 0.49122 1.00917 0.0
H1196 H 0.08693 0.67055 0.12962 0.0
H1197 H 0.08041 0.64854 0.10561 0.0
H1198 H 0.11921 0.66577 0.06585 0.0
H1199 H 0.12592 0.6878 0.09018 0.0
Dy1200 Dy 0.12125 0.35691 0.79827 0.0
Dy1201 Dy 0.08017 0.35562 0.80726 0.0
C1202 C 0.09817 0.38732 0.78919 0.0
O1203 O 0.11707 0.37253 0.82588 0.0
O1204 O 0.0914 0.36349 0.8367 0.0
O1205 O 0.14356 0.3713 0.79481 0.0
O1206 O 0.14444 0.34429 0.79178 0.0
O1207 O 0.09109 0.33011 0.81104 0.0
O1208 O 0.11704 0.33722 0.82155 0.0
O1209 O 0.08285 0.3528 0.77365 0.0
O1210 O 0.10994 0.3435 0.77212 0.0
O1211 O 0.05923 0.34149 0.81769 0.0
O1212 O 0.05554 0.36671 0.8068 0.0
C1213 C 0.1051 0.37205 0.83941 0.0
O1214 O 0.10885 0.37711 0.78075 0.0
O1215 O 0.08771 0.38212 0.803 0.0
C1216 C 0.16497 0.35975 0.77421 0.0
C1217 C 0.1897 0.36253 0.74402 0.0
C1218 C 0.17418 0.37044 0.74151 0.0
C1219 C 0.16189 0.36903 0.75647 0.0
C1220 C 0.18044 0.35205 0.77679 0.0
C1221 C 0.19266 0.35344 0.76193 0.0
C1222 C 0.15269 0.35822 0.79067 0.0
C1223 C 0.10468 0.32672 0.8212 0.0
C1224 C 0.09548 0.34646 0.76359 0.0
C1225 C 0.03679 0.35682 0.83229 0.0
C1226 C 0.01094 0.36031 0.86113 0.0
C1227 C 0.02177 0.34649 0.86176 0.0
C1228 C 0.03447 0.34473 0.8475 0.0
C1229 C 0.02634 0.37095 0.83207 0.0
C1230 C 0.01361 0.37271 0.84637 0.0
C1231 C 0.04878 0.35383 0.81554 0.0
H1232 H 0.17145 0.37747 0.72785 0.0
H1233 H 0.15002 0.37514 0.75419 0.0
H1234 H 0.18313 0.345 0.79045 0.0
H1235 H 0.20454 0.34748 0.76462 0.0
H1236 H 0.02029 0.33683 0.87312 0.0
H1237 H 0.04218 0.33362 0.84812 0.0
H1238 H 0.02766 0.3804 0.82043 0.0
H1239 H 0.00543 0.38345 0.84531 0.0
Dy1240 Dy 0.33402 0.37803 0.55142 0.0
Dy1241 Dy 0.3343 0.33251 0.55742 0.0
C1242 C 0.3071 0.34851 0.53846 0.0
O1243 O 0.32199 0.37328 0.5813 0.0
O1244 O 0.31954 0.34405 0.583 0.0
O1245 O 0.31563 0.39549 0.54039 0.0
O1246 O 0.3398 0.40423 0.55064 0.0
O1247 O 0.35488 0.34513 0.57514 0.0
O1248 O 0.35865 0.37293 0.56473 0.0
O1249 O 0.3433 0.33861 0.52567 0.0
O1250 O 0.34306 0.36787 0.52195 0.0
O1251 O 0.34997 0.31122 0.56516 0.0
O1252 O 0.32391 0.30792 0.55907 0.0
C1253 C 0.3165 0.35939 0.58979 0.0
O1254 O 0.31966 0.3567 0.54472 0.0
O1255 O 0.30962 0.33289 0.54151 0.0
C1256 C 0.32614 0.41999 0.52471 0.0
C1257 C 0.32615 0.44482 0.49418 0.0
C1258 C 0.31119 0.4381 0.50128 0.0
C1259 C 0.3112 0.42584 0.51637 0.0
C1260 C 0.34113 0.42642 0.51736 0.0
C1261 C 0.34113 0.43866 0.50223 0.0
C1262 C 0.3257 0.40818 0.54195 0.0
C1263 C 0.36327 0.35936 0.57467 0.0
C1264 C 0.34507 0.35251 0.51482 0.0
C1265 C 0.33576 0.28914 0.58264 0.0
C1266 C 0.33288 0.26438 0.61307 0.0
C1267 C 0.34707 0.27445 0.61192 0.0
C1268 C 0.34852 0.28668 0.59683 0.0
C1269 C 0.3214 0.27938 0.58416 0.0
C1270 C 0.31994 0.2672 0.59921 0.0
C1271 C 0.33752 0.3009 0.56541 0.0
H1272 H 0.2994 0.44265 0.49565 0.0
H1273 H 0.29946 0.42119 0.52187 0.0
H1274 H 0.35288 0.42219 0.52346 0.0
H1275 H 0.3529 0.44331 0.49687 0.0
H1276 H 0.35718 0.27274 0.62253 0.0
H1277 H 0.35975 0.29396 0.59608 0.0
H1278 H 0.3114 0.28084 0.57333 0.0
H1279 H 0.30895 0.25955 0.59944 0.0
C1280 C 0.21395 0.09449 0.22476 0.0
C1281 C 0.20371 0.08057 0.22775 0.0
C1282 C 0.22674 0.094 0.21051 0.0
C1283 C 0.24118 0.07137 0.16475 0.0
H1284 H 0.28288 0.09272 0.17736 0.0
C1285 C 0.29742 0.06701 0.11087 0.0
C1286 C 0.30672 0.08162 0.10809 0.0
C1287 C 0.2854 0.06615 0.12608 0.0
C1288 C 0.27126 0.08684 0.1735 0.0
H1289 H 0.19906 0.05513 0.2181 0.0
H1290 H 0.22138 0.05427 0.1932 0.0
H1291 H 0.26082 0.09259 0.20249 0.0
H1292 H 0.31071 0.10676 0.11929 0.0
H1293 H 0.28969 0.10532 0.14562 0.0
H1294 H 0.25159 0.06574 0.13569 0.0
C1295 C 0.21936 0.06567 0.20172 0.0
C1296 C 0.25859 0.08677 0.18793 0.0
C1297 C 0.20653 0.06617 0.21599 0.0
C1298 C 0.30394 0.09523 0.12115 0.0
C1299 C 0.29188 0.09439 0.1363 0.0
C1300 C 0.25386 0.07146 0.1503 0.0
C1301 C 0.22966 0.07957 0.19885 0.0
C1302 C 0.24334 0.07914 0.1837 0.0
C1303 C 0.28234 0.0799 0.13884 0.0
C1304 C 0.26903 0.07929 0.15445 0.0
H1305 H 0.21198 0.10588 0.23331 0.0
H1306 H 0.23421 0.10505 0.20844 0.0
H1307 H 0.22954 0.06558 0.16086 0.0
H1308 H 0.29917 0.05629 0.10106 0.0
H1309 H 0.27846 0.05471 0.12778 0.0
C1310 C 0.09382 0.05665 0.36954 0.0
C1311 C 0.10742 0.06001 0.35694 0.0
C1312 C 0.09509 0.04481 0.38504 0.0
C1313 C 0.11903 0.00755 0.40041 0.0
H1314 H 0.098 0.01532 0.45244 0.0
C1315 C 0.12455 0.96043 0.46696 0.0
C1316 C 0.11039 0.95805 0.47899 0.0
C1317 C 0.12496 -0.02685 0.45238 0.0
C1318 C 0.10379 0.01284 0.43792 0.0
H1319 H 0.1331 0.05355 0.35085 0.0
H1320 H 0.13532 0.033 0.37806 0.0
H1321 H 0.09743 0.03716 0.42675 0.0
H1322 H 0.08537 0.9669 0.48462 0.0
H1323 H 0.08602 -0.01114 0.45919 0.0
H1324 H 0.12518 -0.01686 0.41145 0.0
C1325 C 0.12365 0.03949 0.37586 0.0
C1326 C 0.10349 0.0254 0.4232 0.0
C1327 C 0.12242 0.05142 0.36041 0.0
C1328 C 0.09659 0.96855 0.47589 0.0
C1329 C 0.09698 -0.01879 0.46131 0.0
C1330 C 0.11929 -0.00505 0.41512 0.0
C1331 C 0.10996 0.03597 0.38826 0.0
C1332 C 0.11099 0.02286 0.40421 0.0
C1333 C 0.1112 -0.01624 0.44943 0.0
C1334 C 0.11154 -0.00262 0.43401 0.0
H1335 H 0.08207 0.06297 0.36725 0.0
H1336 H 0.08424 0.04225 0.39414 0.0
H1337 H 0.12475 0.00511 0.38583 0.0
H1338 H 0.13548 0.95272 0.46914 0.0
H1339 H 0.1362 -0.02513 0.44369 0.0
C1340 C 0.22317 0.84688 0.7251 0.0
C1341 C 0.23329 0.86071 0.72911 0.0
C1342 C 0.21055 0.84784 0.71066 0.0
C1343 C 0.19601 0.87211 0.66609 0.0
H1344 H 0.1549 0.84907 0.67697 0.0
C1345 C 0.13942 0.8759 0.61197 0.0
C1346 C 0.13115 0.8608 0.60815 0.0
C1347 C 0.15147 0.87688 0.62718 0.0
C1348 C 0.16635 0.85546 0.67361 0.0
H1349 H 0.23803 0.88647 0.72088 0.0
H1350 H 0.21593 0.88818 0.69561 0.0
H1351 H 0.17667 0.8491 0.70247 0.0
H1352 H 0.12906 0.83492 0.61752 0.0
H1353 H 0.14998 0.83664 0.64399 0.0
H1354 H 0.1856 0.87844 0.63715 0.0
C1355 C 0.2179 0.87649 0.70355 0.0
C1356 C 0.17887 0.85547 0.68824 0.0
C1357 C 0.23059 0.87551 0.71803 0.0
C1358 C 0.13508 0.84678 0.6201 0.0
C1359 C 0.14704 0.84779 0.63536 0.0
C1360 C 0.18344 0.87215 0.65145 0.0
C1361 C 0.20764 0.86269 0.69979 0.0
C1362 C 0.19397 0.86359 0.68458 0.0
C1363 C 0.15547 0.86281 0.63902 0.0
C1364 C 0.16853 0.86363 0.65494 0.0
H1365 H 0.22509 0.83517 0.73302 0.0
H1366 H 0.2032 0.83683 0.70786 0.0
H1367 H 0.20752 0.87836 0.66264 0.0
H1368 H 0.13689 0.88692 0.6029 0.0
H1369 H 0.15764 0.88867 0.62969 0.0
C1370 C 0.34294 0.88589 0.87013 0.0
C1371 C 0.32875 0.88202 0.85877 0.0
C1372 C 0.34238 0.89833 0.88499 0.0
C1373 C 0.31425 0.92265 0.91791 0.0
H1374 H 0.35044 0.95417 0.91866 0.0
C1375 C 0.31426 -0.01892 0.97023 0.0
C1376 C 0.32948 -0.0144 0.97895 0.0
C1377 C 0.31353 0.96854 0.95542 0.0
C1378 C 0.34033 0.94537 0.9189 0.0
H1379 H 0.30273 0.88797 0.85447 0.0
H1380 H 0.30175 0.90955 0.8806 0.0
H1381 H 0.35039 0.93178 0.89378 0.0
H1382 H 0.35591 -0.01943 0.97857 0.0
H1383 H 0.35459 0.95846 0.95353 0.0
H1384 H 0.30431 0.93611 0.94325 0.0
C1385 C 0.31328 0.90291 0.87803 0.0
C1386 C 0.3403 0.93253 0.90457 0.0
C1387 C 0.31387 0.89055 0.86304 0.0
C1388 C 0.34393 -0.0227 0.97243 0.0
C1389 C 0.3432 0.96475 0.95779 0.0
C1390 C 0.31434 0.93545 0.93239 0.0
C1391 C 0.32761 0.90712 0.88894 0.0
C1392 C 0.32734 0.92094 0.904 0.0
C1393 C 0.32802 0.96022 0.94899 0.0
C1394 C 0.32746 0.94691 0.93317 0.0
H1395 H 0.35466 0.87972 0.86714 0.0
H1396 H 0.35358 0.90116 0.89329 0.0
H1397 H 0.30413 0.91385 0.91791 0.0
H1398 H 0.30286 -0.01293 0.97503 0.0
H1399 H 0.30164 0.96551 0.94887 0.0
C1400 C 0.30092 0.87706 0.44492 0.0
C1401 C 0.30652 0.86152 0.45223 0.0
C1402 C 0.28862 0.87791 0.42998 0.0
C1403 C 0.2538 0.85388 0.40973 0.0
H1404 H 0.2572 0.88285 0.36278 0.0
C1405 C 0.20892 0.84794 0.34269 0.0
C1406 C 0.20357 0.86248 0.33259 0.0
C1407 C 0.22144 0.84863 0.35725 0.0
C1408 C 0.25593 0.87487 0.37594 0.0
H1409 H 0.30351 0.8347 0.44978 0.0
H1410 H 0.28203 0.83619 0.42384 0.0
H1411 H 0.27927 0.88262 0.38817 0.0
H1412 H 0.20734 0.88919 0.32992 0.0
H1413 H 0.2289 0.89047 0.35587 0.0
H1414 H 0.23046 0.84625 0.39785 0.0
C1415 C 0.28723 0.84771 0.42952 0.0
C1416 C 0.26861 0.87471 0.39045 0.0
C1417 C 0.29968 0.84686 0.4442 0.0
C1418 C 0.21103 0.87777 0.33756 0.0
C1419 C 0.22354 0.87848 0.35226 0.0
C1420 C 0.2411 0.85413 0.39536 0.0
C1421 C 0.28147 0.86324 0.42236 0.0
C1422 C 0.26777 0.86403 0.40734 0.0
C1423 C 0.22888 0.8639 0.36233 0.0
C1424 C 0.24209 0.86444 0.37812 0.0
H1425 H 0.30587 0.88858 0.45096 0.0
H1426 H 0.28435 0.89006 0.42486 0.0
H1427 H 0.25264 0.84578 0.42281 0.0
H1428 H 0.20336 0.83597 0.33945 0.0
H1429 H 0.22539 0.83709 0.36439 0.0
C1430 C 0.31328 0.96398 0.58764 0.0
C1431 C 0.32862 0.95889 0.57955 0.0
C1432 C 0.31251 -0.02384 0.60288 0.0
C1433 C 0.33862 -0.00387 0.64211 0.0
H1434 H 0.30503 0.03097 0.64155 0.0
C1435 C 0.34408 0.05365 0.69298 0.0
C1436 C 0.32984 0.05909 0.70339 0.0
C1437 C 0.34297 0.04171 0.67766 0.0
C1438 C 0.31437 0.02122 0.64201 0.0
H1439 H 0.35517 0.96249 0.5814 0.0
H1440 H 0.35381 -0.0161 0.60739 0.0
H1441 H 0.3048 0.0093 0.6154 0.0
H1442 H 0.30314 0.05649 0.7053 0.0
H1443 H 0.30126 0.03561 0.67843 0.0
H1444 H 0.34829 0.00803 0.66852 0.0
C1445 C 0.34236 -0.02162 0.60222 0.0
C1446 C 0.31424 0.00879 0.62706 0.0
C1447 C 0.34313 0.96623 0.58708 0.0
C1448 C 0.31437 0.05268 0.69756 0.0
C1449 C 0.31327 0.04071 0.68214 0.0
C1450 C 0.33878 0.00853 0.65695 0.0
C1451 C 0.32706 -0.01655 0.6104 0.0
C1452 C 0.3265 -0.00378 0.62679 0.0
C1453 C 0.32762 0.03487 0.67231 0.0
C1454 C 0.32681 0.02135 0.65693 0.0
H1455 H 0.30185 0.95869 0.58204 0.0
H1456 H 0.30053 -0.0203 0.60895 0.0
H1457 H 0.34801 -0.01358 0.64268 0.0
H1458 H 0.35622 0.05829 0.69694 0.0
H1459 H 0.35423 0.03772 0.67011 0.0
C1460 C 0.13818 0.0991 0.94627 0.0
C1461 C 0.13067 0.08463 0.95398 0.0
C1462 C 0.15023 0.09802 0.93116 0.0
C1463 C 0.16721 0.07068 0.89108 0.0
H1464 H 0.20594 0.09856 0.89728 0.0
C1465 C 0.22452 0.06492 0.83848 0.0
C1466 C 0.23269 0.07975 0.83312 0.0
C1467 C 0.21185 0.06508 0.85295 0.0
C1468 C 0.19512 0.09085 0.89512 0.0
H1469 H 0.12988 0.0576 0.95145 0.0
H1470 H 0.15094 0.05576 0.92495 0.0
H1471 H 0.18419 0.09958 0.92271 0.0
H1472 H 0.23384 0.1064 0.8389 0.0
H1473 H 0.21146 0.10679 0.86349 0.0
H1474 H 0.17812 0.06205 0.86336 0.0
C1475 C 0.14735 0.06797 0.93059 0.0
C1476 C 0.18265 0.09142 0.90976 0.0
C1477 C 0.13529 0.06903 0.94582 0.0
C1478 C 0.22775 0.09476 0.84247 0.0
C1479 C 0.21503 0.09494 0.85682 0.0
C1480 C 0.17969 0.07017 0.87635 0.0
C1481 C 0.15511 0.08245 0.92329 0.0
C1482 C 0.16849 0.08143 0.90786 0.0
C1483 C 0.20699 0.0801 0.86238 0.0
C1484 C 0.19376 0.08033 0.87813 0.0
H1485 H 0.13503 0.11135 0.95215 0.0
H1486 H 0.15577 0.10944 0.92566 0.0
H1487 H 0.15639 0.06294 0.8891 0.0
H1488 H 0.2278 0.05316 0.83137 0.0
H1489 H 0.20604 0.05339 0.85696 0.0
C1490 C 0.11695 0.89966 0.20731 0.0
C1491 C 0.1074 0.88516 0.2052 0.0
C1492 C 0.11756 0.91148 0.1918 0.0
C1493 C 0.09559 0.92485 0.1447 0.0
H1494 H 0.13525 0.9512 0.13732 0.0
C1495 C 0.10439 0.96985 0.0771 0.0
C1496 C 0.11018 -0.01404 0.08177 0.0
C1497 C 0.10444 0.95723 0.09174 0.0
C1498 C 0.12406 0.94399 0.13929 0.0
H1499 H 0.09112 0.87157 0.18511 0.0
H1500 H 0.09283 0.89178 0.15747 0.0
H1501 H 0.13484 0.92935 0.16296 0.0
H1502 H 0.1207 0.00124 0.10566 0.0
H1503 H 0.12111 -0.02096 0.13107 0.0
H1504 H 0.08506 0.93931 0.12053 0.0
C1505 C 0.09949 0.89432 0.17138 0.0
C1506 C 0.12376 0.93149 0.15407 0.0
C1507 C 0.09861 0.88262 0.18713 0.0
C1508 C 0.11634 -0.01103 0.1014 0.0
C1509 C 0.11654 -0.02373 0.11599 0.0
C1510 C 0.09601 0.93717 0.12969 0.0
C1511 C 0.10889 0.90899 0.17356 0.0
C1512 C 0.10946 0.92183 0.15715 0.0
C1513 C 0.11045 0.96032 0.11135 0.0
C1514 C 0.11019 0.94697 0.12696 0.0
H1515 H 0.12361 0.90218 0.22124 0.0
H1516 H 0.12456 0.92276 0.19441 0.0
H1517 H 0.08424 0.91797 0.14679 0.0
H1518 H 0.09993 0.9669 0.06204 0.0
H1519 H 0.09992 0.94498 0.08764 0.0
C1520 C 0.72509 0.87662 0.83554 0.0
C1521 C 0.73215 0.86098 0.83075 0.0
C1522 C 0.71292 0.87802 0.85066 0.0
C1523 C 0.6963 0.8553 0.89532 0.0
H1524 H 0.65748 0.88345 0.88807 0.0
C1525 C 0.63949 0.84773 0.94592 0.0
C1526 C 0.6314 0.8621 0.95335 0.0
C1527 C 0.65158 0.8489 0.93093 0.0
C1528 C 0.66835 0.8757 0.89042 0.0
H1529 H 0.7321 0.83464 0.83854 0.0
H1530 H 0.71078 0.837 0.86427 0.0
H1531 H 0.67917 0.88313 0.86212 0.0
H1532 H 0.6295 0.88902 0.95031 0.0
H1533 H 0.65074 0.89106 0.92384 0.0
H1534 H 0.68552 0.8477 0.9234 0.0
C1535 C 0.71471 0.84825 0.85658 0.0
C1536 C 0.68079 0.87551 0.87556 0.0
C1537 C 0.72683 0.84686 0.84157 0.0
C1538 C 0.6354 0.87769 0.94487 0.0
C1539 C 0.64758 0.87886 0.92971 0.0
C1540 C 0.68391 0.85547 0.91007 0.0
C1541 C 0.7076 0.86384 0.86141 0.0
C1542 C 0.6948 0.86508 0.87768 0.0
C1543 C 0.65601 0.86447 0.92286 0.0
C1544 C 0.66964 0.86543 0.90768 0.0
H1545 H 0.72879 0.88774 0.82741 0.0
H1546 H 0.7078 0.89024 0.85406 0.0
H1547 H 0.70708 0.84744 0.89776 0.0
H1548 H 0.63674 0.83546 0.95192 0.0
H1549 H 0.65753 0.83752 0.92571 0.0
C1550 C 0.83242 0.97013 0.57904 0.0
C1551 C 0.82511 -0.01424 0.58334 0.0
C1552 C 0.83211 0.9572 0.59331 0.0
C1553 C 0.80955 0.94165 0.6377 0.0
H1554 H 0.85043 0.91821 0.65002 0.0
C1555 C 0.81404 0.89506 0.70477 0.0
C1556 C 0.8261 0.8824 0.70415 0.0
C1557 C 0.81326 0.90712 0.6894 0.0
C1558 C 0.83876 0.92426 0.64655 0.0
H1559 H 0.81178 -0.00012 0.60632 0.0
H1560 H 0.81091 -0.02284 0.63096 0.0
H1561 H 0.85024 0.93992 0.62435 0.0
H1562 H 0.8464 0.8719 0.68694 0.0
H1563 H 0.84423 0.89191 0.65923 0.0
H1564 H 0.79783 0.92573 0.65926 0.0
C1565 C 0.81684 -0.02502 0.61645 0.0
C1566 C 0.83873 0.93687 0.63187 0.0
C1567 C 0.81732 -0.01201 0.60227 0.0
C1568 C 0.83694 0.88155 0.68761 0.0
C1569 C 0.83583 0.89325 0.67191 0.0
C1570 C 0.80947 0.92878 0.65209 0.0
C1571 C 0.82431 0.95948 0.61216 0.0
C1572 C 0.82416 0.94579 0.6274 0.0
C1573 C 0.82426 0.90652 0.67278 0.0
C1574 C 0.82411 0.91992 0.65688 0.0
H1575 H 0.8382 0.96775 0.5645 0.0
H1576 H 0.83778 0.94531 0.58949 0.0
H1577 H 0.79808 0.94821 0.63441 0.0
H1578 H 0.80581 0.89614 0.71769 0.0
H1579 H 0.8044 0.91722 0.69106 0.0
C1580 C 0.71095 0.09537 0.33855 0.0
C1581 C 0.70363 0.08032 0.33239 0.0
C1582 C 0.72362 0.0954 0.35297 0.0
C1583 C 0.75483 0.06814 0.37811 0.0
H1584 H 0.75512 0.10389 0.41778 0.0
C1585 C 0.79866 0.06881 0.44796 0.0
C1586 C 0.80525 0.08434 0.45373 0.0
C1587 C 0.78677 0.06784 0.43258 0.0
C1588 C 0.75536 0.09392 0.40667 0.0
H1589 H 0.70413 0.05342 0.3365 0.0
H1590 H 0.72588 0.05354 0.36219 0.0
H1591 H 0.73336 0.10304 0.39239 0.0
H1592 H 0.80476 0.11096 0.44729 0.0
H1593 H 0.78433 0.10918 0.4204 0.0
H1594 H 0.77685 0.05899 0.39261 0.0
C1595 C 0.72196 0.06532 0.35561 0.0
C1596 C 0.74286 0.09344 0.39207 0.0
C1597 C 0.70932 0.06528 0.34108 0.0
C1598 C 0.79998 0.09878 0.44335 0.0
C1599 C 0.78812 0.09779 0.428 0.0
C1600 C 0.76735 0.06861 0.39278 0.0
C1601 C 0.72924 0.0804 0.36178 0.0
C1602 C 0.74247 0.08061 0.37751 0.0
C1603 C 0.78118 0.08236 0.42263 0.0
C1604 C 0.76782 0.08159 0.40714 0.0
H1605 H 0.7068 0.10721 0.33236 0.0
H1606 H 0.72908 0.10724 0.3571 0.0
H1607 H 0.75503 0.05818 0.367 0.0
H1608 H 0.80232 0.05743 0.45568 0.0
H1609 H 0.78157 0.05577 0.42894 0.0
C1610 C 0.62269 0.96311 0.08763 0.0
C1611 C 0.60733 0.95877 0.07913 0.0
C1612 C 0.62367 -0.02447 0.10258 0.0
C1613 C 0.59995 0.01173 0.12274 0.0
H1614 H 0.62852 0.00718 0.1697 0.0
C1615 C 0.59262 0.05435 0.19219 0.0
C1616 C 0.60682 0.05946 0.20275 0.0
C1617 C 0.59375 0.04254 0.17668 0.0
C1618 C 0.62065 0.00877 0.15653 0.0
H1619 H 0.58089 0.96352 0.08053 0.0
H1620 H 0.58257 -0.01502 0.10646 0.0
H1621 H 0.62862 -0.01454 0.14368 0.0
H1622 H 0.63347 0.05611 0.20505 0.0
H1623 H 0.63545 0.03578 0.17761 0.0
H1624 H 0.59193 0.03494 0.13548 0.0
C1625 C 0.59394 -0.02084 0.10123 0.0
C1626 C 0.62069 -0.00371 0.14162 0.0
C1627 C 0.59297 0.96681 0.08635 0.0
C1628 C 0.62226 0.0526 0.19717 0.0
C1629 C 0.62339 0.04078 0.18156 0.0
C1630 C 0.59993 0.02417 0.13757 0.0
C1631 C 0.6093 -0.01614 0.10937 0.0
C1632 C 0.61014 -0.0025 0.1247 0.0
C1633 C 0.60912 0.03556 0.17117 0.0
C1634 C 0.61008 0.02275 0.15482 0.0
H1635 H 0.634 0.95723 0.08233 0.0
H1636 H 0.63571 -0.02109 0.10844 0.0
H1637 H 0.59195 0.01329 0.10969 0.0
H1638 H 0.58049 0.05919 0.19613 0.0
H1639 H 0.58245 0.0386 0.16931 0.0
C1640 C 0.72737 0.09611 0.71858 0.0
C1641 C 0.73244 0.08194 0.72964 0.0
C1642 C 0.71514 0.09496 0.70367 0.0
C1643 C 0.68062 0.06863 0.68526 0.0
H1644 H 0.68612 0.09523 0.63661 0.0
C1645 C 0.63553 0.06653 0.61557 0.0
C1646 C 0.63187 0.08208 0.60663 0.0
C1647 C 0.64761 0.06525 0.63087 0.0
C1648 C 0.6843 0.08781 0.65017 0.0
H1649 H 0.72842 0.05538 0.73361 0.0
H1650 H 0.70726 0.05329 0.70716 0.0
H1651 H 0.70755 0.09532 0.66244 0.0
H1652 H 0.63773 0.10856 0.60739 0.0
H1653 H 0.65834 0.1063 0.6338 0.0
H1654 H 0.65722 0.06121 0.6728 0.0
C1655 C 0.71267 0.06536 0.71027 0.0
C1656 C 0.69661 0.08788 0.66503 0.0
C1657 C 0.72495 0.06652 0.72526 0.0
C1658 C 0.64021 0.09631 0.61373 0.0
C1659 C 0.6522 0.09502 0.62885 0.0
C1660 C 0.66825 0.06854 0.6703 0.0
C1661 C 0.70766 0.07957 0.69921 0.0
C1662 C 0.69485 0.07853 0.68294 0.0
C1663 C 0.65629 0.07947 0.6374 0.0
C1664 C 0.66983 0.07837 0.65273 0.0
H1665 H 0.73295 0.10816 0.72132 0.0
H1666 H 0.71145 0.10623 0.69574 0.0
H1667 H 0.67879 0.06134 0.69892 0.0
H1668 H 0.62942 0.05531 0.61041 0.0
H1669 H 0.6505 0.05306 0.63713 0.0
C1670 C 0.60424 0.96787 0.48595 0.0
C1671 C 0.6083 -0.01541 0.48163 0.0
C1672 C 0.60485 0.95565 0.47084 0.0
C1673 C 0.62323 0.9448 0.4217 0.0
H1674 H 0.58495 0.91624 0.41609 0.0
C1675 C 0.61722 0.89876 0.35468 0.0
C1676 C 0.60832 0.88389 0.35743 0.0
C1677 C 0.61758 0.91092 0.36984 0.0
C1678 C 0.59592 0.92382 0.41761 0.0
H1679 H 0.61669 0.00128 0.45786 0.0
H1680 H 0.61821 -0.02025 0.4316 0.0
H1681 H 0.58538 0.93743 0.44246 0.0
H1682 H 0.59302 0.87001 0.37831 0.0
H1683 H 0.59443 0.89073 0.40537 0.0
H1684 H 0.63409 0.93093 0.39739 0.0
C1685 C 0.61442 -0.02376 0.44677 0.0
C1686 C 0.59609 0.93609 0.4327 0.0
C1687 C 0.61361 -0.01144 0.46187 0.0
C1688 C 0.6 0.88133 0.37581 0.0
C1689 C 0.60068 0.89336 0.39122 0.0
C1690 C 0.62322 0.93232 0.40683 0.0
C1691 C 0.60978 0.95971 0.45104 0.0
C1692 C 0.60972 0.94674 0.43489 0.0
C1693 C 0.60933 0.90844 0.3884 0.0
C1694 C 0.60953 0.92163 0.40451 0.0
H1695 H 0.60054 0.96416 0.50107 0.0
H1696 H 0.60151 0.94295 0.47468 0.0
H1697 H 0.63398 0.95273 0.42316 0.0
H1698 H 0.62346 0.90129 0.34047 0.0
H1699 H 0.62401 0.92245 0.36671 0.0
C1700 C 0.79639 0.87588 0.11174 0.0
C1701 C 0.80467 0.86071 0.10767 0.0
C1702 C 0.78446 0.87687 0.12706 0.0
C1703 C 0.76982 0.85508 0.17319 0.0
H1704 H 0.72874 0.87897 0.16295 0.0
C1705 C 0.71301 0.84666 0.22436 0.0
C1706 C 0.70309 0.86067 0.22889 0.0
C1707 C 0.72561 0.84765 0.20995 0.0
C1708 C 0.74022 0.87245 0.16618 0.0
H1709 H 0.80689 0.83472 0.11671 0.0
H1710 H 0.78609 0.83644 0.14328 0.0
H1711 H 0.75054 0.87899 0.13735 0.0
H1712 H 0.69867 0.88675 0.22164 0.0
H1713 H 0.72074 0.88848 0.19639 0.0
H1714 H 0.75955 0.84845 0.20192 0.0
C1715 C 0.78897 0.84764 0.1348 0.0
C1716 C 0.75273 0.87245 0.15149 0.0
C1717 C 0.80087 0.84663 0.11947 0.0
C1718 C 0.70595 0.87567 0.21837 0.0
C1719 C 0.71862 0.87666 0.20391 0.0
C1720 C 0.75735 0.8551 0.18786 0.0
C1721 C 0.78056 0.86274 0.13872 0.0
C1722 C 0.76759 0.86358 0.15472 0.0
C1723 C 0.72869 0.86268 0.19963 0.0
C1724 C 0.7423 0.86357 0.18444 0.0
H1725 H 0.79886 0.88697 0.10285 0.0
H1726 H 0.77831 0.88872 0.1298 0.0
H1727 H 0.78124 0.84842 0.17635 0.0
H1728 H 0.71094 0.83481 0.23184 0.0
H1729 H 0.73283 0.83651 0.20672 0.0
C1730 C 0.81364 0.05595 0.86435 0.0
C1731 C 0.82917 0.06061 0.85663 0.0
C1732 C 0.81251 0.04389 0.87971 0.0
C1733 C 0.83638 0.00872 0.90176 0.0
H1734 H 0.80586 0.01281 0.94687 0.0
C1735 C 0.83982 0.96396 0.96982 0.0
C1736 C 0.82491 0.9585 0.97851 0.0
C1737 C 0.83983 -0.02332 0.95532 0.0
C1738 C 0.81432 0.01137 0.93424 0.0
H1739 H 0.8557 0.05657 0.85954 0.0
H1740 H 0.85369 0.03591 0.88625 0.0
H1741 H 0.80658 0.0346 0.92094 0.0
H1742 H 0.79831 0.96245 0.97891 0.0
H1743 H 0.79829 -0.01573 0.95309 0.0
H1744 H 0.84409 -0.01447 0.91483 0.0
C1745 C 0.84237 0.04129 0.88025 0.0
C1746 C 0.81473 0.02388 0.91939 0.0
C1747 C 0.8435 0.05328 0.86499 0.0
C1748 C 0.81001 0.96615 0.97233 0.0
C1749 C 0.81002 -0.02115 0.95772 0.0
C1750 C 0.83594 -0.00376 0.91652 0.0
C1751 C 0.82688 0.03624 0.8876 0.0
C1752 C 0.82588 0.02276 0.90308 0.0
C1753 C 0.82493 -0.01578 0.94897 0.0
C1754 C 0.82502 -0.00255 0.93306 0.0
H1755 H 0.80235 0.06125 0.85817 0.0
H1756 H 0.80038 0.04018 0.88496 0.0
H1757 H 0.84488 0.00728 0.88917 0.0
H1758 H 0.85152 0.95827 0.97404 0.0
H1759 H 0.85159 -0.01934 0.94917 0.0
C1760 C 0.71255 0.59641 0.72212 0.0
C1761 C 0.70314 0.5824 0.72759 0.0
C1762 C 0.72524 0.59509 0.70782 0.0
C1763 C 0.74169 0.56838 0.66619 0.0
H1764 H 0.781 0.59498 0.67486 0.0
C1765 C 0.79925 0.56596 0.61264 0.0
C1766 C 0.8056 0.58165 0.60724 0.0
C1767 C 0.78725 0.56464 0.62796 0.0
C1768 C 0.77008 0.58752 0.67214 0.0
H1769 H 0.69969 0.55597 0.72195 0.0
H1770 H 0.72194 0.55363 0.69695 0.0
H1771 H 0.75906 0.59528 0.70006 0.0
H1772 H 0.80457 0.60818 0.61389 0.0
H1773 H 0.78396 0.60586 0.64051 0.0
H1774 H 0.7529 0.56067 0.63815 0.0
C1775 C 0.71936 0.56572 0.70365 0.0
C1776 C 0.75743 0.58774 0.68658 0.0
C1777 C 0.70658 0.56706 0.71799 0.0
C1778 C 0.79999 0.59589 0.61772 0.0
C1779 C 0.78821 0.59455 0.63308 0.0
C1780 C 0.75444 0.56811 0.65174 0.0
C1781 C 0.72898 0.5797 0.69853 0.0
C1782 C 0.7429 0.57844 0.68366 0.0
C1783 C 0.78159 0.57895 0.63834 0.0
C1784 C 0.76865 0.57792 0.65439 0.0
H1785 H 0.71004 0.60852 0.72881 0.0
H1786 H 0.73204 0.60625 0.70392 0.0
H1787 H 0.73067 0.56115 0.66332 0.0
H1788 H 0.80316 0.5548 0.60464 0.0
H1789 H 0.78243 0.55243 0.6317 0.0
C1790 C 0.62314 0.5519 0.86109 0.0
C1791 C 0.60877 0.56164 0.8582 0.0
C1792 C 0.62372 0.53952 0.87612 0.0
C1793 C 0.60172 0.52529 0.92284 0.0
H1794 H 0.62631 0.48425 0.91354 0.0
C1795 C 0.60926 0.47638 0.9863 0.0
C1796 C 0.6085 0.45935 0.98112 0.0
C1797 C 0.61024 0.48869 0.9713 0.0
C1798 C 0.61924 0.49556 0.91634 0.0
H1799 H 0.58362 0.56571 0.86873 0.0
H1800 H 0.58448 0.54406 0.89443 0.0
H1801 H 0.6257 0.50576 0.8874 0.0
H1802 H 0.60853 0.44201 0.95586 0.0
H1803 H 0.61012 0.46347 0.92965 0.0
H1804 H 0.59461 0.51485 0.95131 0.0
C1805 C 0.59554 0.54624 0.88558 0.0
C1806 C 0.6191 0.50805 0.90143 0.0
C1807 C 0.59502 0.5587 0.87073 0.0
C1808 C 0.60924 0.45497 0.96046 0.0
C1809 C 0.61015 0.46732 0.9454 0.0
C1810 C 0.60172 0.51276 0.93762 0.0
C1811 C 0.60989 0.53645 0.88854 0.0
C1812 C 0.61031 0.52312 0.90446 0.0
C1813 C 0.61044 0.48439 0.9506 0.0
C1814 C 0.61051 0.49771 0.93465 0.0
H1815 H 0.63393 0.55369 0.85161 0.0
H1816 H 0.63507 0.53243 0.87804 0.0
H1817 H 0.59502 0.53676 0.92598 0.0
H1818 H 0.6091 0.48026 1.00204 0.0
H1819 H 0.61088 0.50163 0.97601 0.0
C1820 C 0.63891 0.34844 0.11385 0.0
C1821 C 0.63018 0.3626 0.10683 0.0
C1822 C 0.65097 0.34984 0.12885 0.0
C1823 C 0.66639 0.3766 0.17014 0.0
H1824 H 0.70663 0.35071 0.16223 0.0
C1825 C 0.72345 0.38215 0.22333 0.0
C1826 C 0.73232 0.3674 0.22781 0.0
C1827 C 0.7108 0.38217 0.20881 0.0
C1828 C 0.69541 0.35786 0.16485 0.0
H1829 H 0.6272 0.38936 0.11057 0.0
H1830 H 0.64838 0.39179 0.13707 0.0
H1831 H 0.68497 0.34996 0.13668 0.0
H1832 H 0.73471 0.34109 0.22038 0.0
H1833 H 0.71242 0.34102 0.1956 0.0
H1834 H 0.67684 0.38438 0.19846 0.0
C1835 C 0.64572 0.37958 0.13086 0.0
C1836 C 0.68297 0.35747 0.15014 0.0
C1837 C 0.63359 0.37819 0.11568 0.0
C1838 C 0.72809 0.35266 0.21749 0.0
C1839 C 0.71541 0.35267 0.20305 0.0
C1840 C 0.67885 0.37696 0.18493 0.0
C1841 C 0.65473 0.36543 0.13736 0.0
C1842 C 0.66823 0.36669 0.15267 0.0
C1843 C 0.70666 0.36745 0.1984 0.0
C1844 C 0.69347 0.36747 0.18256 0.0
H1845 H 0.63668 0.33617 0.10754 0.0
H1846 H 0.65741 0.33863 0.13376 0.0
H1847 H 0.65513 0.38373 0.17263 0.0
H1848 H 0.72618 0.39369 0.23118 0.0
H1849 H 0.70444 0.39381 0.20553 0.0
C1850 C 0.81369 0.4773 0.47861 0.0
C1851 C 0.82817 0.4867 0.48118 0.0
C1852 C 0.81277 0.46518 0.46332 0.0
C1853 C 0.83215 0.45303 0.41465 0.0
H1854 H 0.81439 0.40911 0.42598 0.0
C1855 C 0.84408 0.39741 0.36201 0.0
C1856 C 0.83054 0.38732 0.35689 0.0
C1857 C 0.84269 0.40937 0.37728 0.0
C1858 C 0.8192 0.42139 0.42255 0.0
H1859 H 0.85285 0.49108 0.46962 0.0
H1860 H 0.85129 0.47005 0.44301 0.0
H1861 H 0.81375 0.43064 0.45236 0.0
H1862 H 0.80498 0.38169 0.36409 0.0
H1863 H 0.80266 0.40253 0.39115 0.0
H1864 H 0.83785 0.44376 0.38503 0.0
C1865 C 0.84061 0.472 0.45269 0.0
C1866 C 0.81882 0.43372 0.43762 0.0
C1867 C 0.84158 0.48395 0.46803 0.0
C1868 C 0.81566 0.38922 0.36774 0.0
C1869 C 0.81433 0.40111 0.38324 0.0
C1870 C 0.83258 0.44073 0.39968 0.0
C1871 C 0.82624 0.46243 0.45018 0.0
C1872 C 0.82551 0.44961 0.4339 0.0
C1873 C 0.82778 0.41147 0.38792 0.0
C1874 C 0.82633 0.42471 0.40355 0.0
H1875 H 0.80323 0.47911 0.48866 0.0
H1876 H 0.8015 0.45806 0.46169 0.0
H1877 H 0.83709 0.46524 0.41116 0.0
H1878 H 0.85568 0.39645 0.35383 0.0
H1879 H 0.85332 0.41706 0.3807 0.0
C1880 C 0.70602 0.37543 0.8425 0.0
C1881 C 0.70274 0.36029 0.83248 0.0
C1882 C 0.71879 0.37645 0.85687 0.0
C1883 C 0.75708 0.35422 0.87375 0.0
H1884 H 0.75122 0.3799 0.92311 0.0
C1885 C 0.80077 0.34639 0.94221 0.0
C1886 C 0.80516 0.36064 0.95338 0.0
C1887 C 0.78876 0.34737 0.92697 0.0
C1888 C 0.75316 0.37284 0.90929 0.0
H1889 H 0.71006 0.33422 0.83033 0.0
H1890 H 0.7321 0.33597 0.85525 0.0
H1891 H 0.72932 0.37976 0.89759 0.0
H1892 H 0.80016 0.38716 0.95723 0.0
H1893 H 0.77938 0.38885 0.93046 0.0
H1894 H 0.7808 0.34715 0.88549 0.0
C1895 C 0.72512 0.34719 0.85172 0.0
C1896 C 0.74058 0.37277 0.89463 0.0
C1897 C 0.71241 0.34618 0.8374 0.0
C1898 C 0.79726 0.37593 0.94882 0.0
C1899 C 0.78519 0.37689 0.93359 0.0
C1900 C 0.7696 0.35427 0.88839 0.0
C1901 C 0.72858 0.36235 0.86159 0.0
C1902 C 0.74228 0.36327 0.87677 0.0
C1903 C 0.78076 0.3626 0.92249 0.0
C1904 C 0.76774 0.3634 0.90647 0.0
H1905 H 0.69897 0.3866 0.83893 0.0
H1906 H 0.72119 0.38838 0.86399 0.0
H1907 H 0.75904 0.34708 0.86 0.0
H1908 H 0.80642 0.33437 0.94541 0.0
H1909 H 0.78547 0.33604 0.919 0.0
C1910 C 0.81604 0.54705 0.2054 0.0
C1911 C 0.82857 0.55915 0.20532 0.0
C1912 C 0.81515 0.53521 0.18988 0.0
C1913 C 0.82207 0.52673 0.13797 0.0
H1914 H 0.83286 0.48091 0.15221 0.0
C1915 C 0.82918 0.47582 0.07662 0.0
C1916 C 0.82495 0.45922 0.08124 0.0
C1917 C 0.82935 0.48812 0.09165 0.0
C1918 C 0.82948 0.49354 0.14796 0.0
H1919 H 0.84959 0.56876 0.18871 0.0
H1920 H 0.84753 0.54841 0.16099 0.0
H1921 H 0.83299 0.50251 0.17836 0.0
H1922 H 0.81716 0.44277 0.10554 0.0
H1923 H 0.81652 0.46438 0.13152 0.0
H1924 H 0.81785 0.51795 0.10785 0.0
C1925 C 0.83863 0.54801 0.17328 0.0
C1926 C 0.82971 0.5059 0.16294 0.0
C1927 C 0.83979 0.5596 0.18906 0.0
C1928 C 0.82039 0.4554 0.1013 0.0
C1929 C 0.8203 0.4678 0.11632 0.0
C1930 C 0.82148 0.51433 0.12304 0.0
C1931 C 0.82651 0.53556 0.17381 0.0
C1932 C 0.82607 0.52256 0.15801 0.0
C1933 C 0.82492 0.48433 0.11175 0.0
C1934 C 0.82525 0.49754 0.12778 0.0
H1935 H 0.80737 0.54626 0.21789 0.0
H1936 H 0.80572 0.52567 0.19051 0.0
H1937 H 0.81915 0.53954 0.13393 0.0
H1938 H 0.83243 0.47942 0.06131 0.0
H1939 H 0.83323 0.50056 0.08745 0.0
C1940 C 0.72833 0.56435 0.34519 0.0
C1941 C 0.73222 0.57933 0.33516 0.0
C1942 C 0.71511 0.56367 0.35888 0.0
C1943 C 0.67675 0.58643 0.37408 0.0
H1944 H 0.68119 0.56039 0.42343 0.0
C1945 C 0.63259 0.59448 0.44184 0.0
C1946 C 0.62811 0.58039 0.45327 0.0
C1947 C 0.64427 0.59321 0.42633 0.0
C1948 C 0.67964 0.56751 0.40957 0.0
H1949 H 0.7253 0.60542 0.33196 0.0
H1950 H 0.7024 0.6043 0.35591 0.0
H1951 H 0.70377 0.5607 0.39892 0.0
H1952 H 0.6322 0.55379 0.4571 0.0
H1953 H 0.65261 0.55151 0.42969 0.0
H1954 H 0.65274 0.59348 0.38491 0.0
C1955 C 0.70936 0.59295 0.35292 0.0
C1956 C 0.69261 0.56771 0.3955 0.0
C1957 C 0.72254 0.59362 0.3392 0.0
C1958 C 0.63525 0.56484 0.44841 0.0
C1959 C 0.64709 0.56358 0.43289 0.0
C1960 C 0.66382 0.58627 0.38816 0.0
C1961 C 0.70544 0.57796 0.36294 0.0
C1962 C 0.69141 0.57729 0.37764 0.0
C1963 C 0.65186 0.57782 0.42183 0.0
C1964 C 0.66515 0.57694 0.40618 0.0
H1965 H 0.7353 0.55302 0.34218 0.0
H1966 H 0.71232 0.55183 0.36601 0.0
H1967 H 0.67521 0.59369 0.36033 0.0
H1968 H 0.62735 0.60667 0.4452 0.0
H1969 H 0.64778 0.60448 0.41836 0.0
C1970 C 0.59315 0.38585 0.69128 0.0
C1971 C 0.60712 0.38213 0.70318 0.0
C1972 C 0.59376 0.39831 0.67644 0.0
C1973 C 0.61853 0.43509 0.65976 0.0
H1974 H 0.59225 0.43007 0.61099 0.0
C1975 C 0.60943 0.489 0.60167 0.0
C1976 C 0.60767 0.48479 0.58107 0.0
C1977 C 0.61028 0.4765 0.61656 0.0
C1978 C 0.59987 0.43164 0.62436 0.0
H1979 H 0.63279 0.38858 0.70863 0.0
H1980 H 0.63406 0.40977 0.68221 0.0
H1981 H 0.59241 0.40804 0.63616 0.0
H1982 H 0.6064 0.46408 0.55993 0.0
H1983 H 0.60816 0.44242 0.58565 0.0
H1984 H 0.62652 0.45843 0.64745 0.0
C1985 C 0.62247 0.40336 0.68463 0.0
C1986 C 0.59973 0.41906 0.63905 0.0
C1987 C 0.6218 0.39102 0.69965 0.0
C1988 C 0.60738 0.4678 0.57569 0.0
C1989 C 0.60833 0.45534 0.5905 0.0
C1990 C 0.61884 0.44761 0.64491 0.0
C1991 C 0.60842 0.40726 0.67288 0.0
C1992 C 0.60896 0.42062 0.65704 0.0
C1993 C 0.60951 0.45949 0.61119 0.0
C1994 C 0.60946 0.44609 0.62701 0.0
H1995 H 0.58153 0.37951 0.69382 0.0
H1996 H 0.58255 0.40115 0.66809 0.0
H1997 H 0.62564 0.43691 0.6735 0.0
H1998 H 0.60959 0.50196 0.60638 0.0
H1999 H 0.61102 0.48024 0.63232 0.0
C2000 C 0.13579 0.34877 0.44084 0.0
C2001 C 0.13087 0.36297 0.4519 0.0
C2002 C 0.14764 0.34997 0.42554 0.0
C2003 C 0.1825 0.3756 0.40818 0.0
H2004 H 0.17744 0.34966 0.35893 0.0
C2005 C 0.23024 0.37761 0.34215 0.0
C2006 C 0.23357 0.36246 0.33208 0.0
C2007 C 0.21746 0.37872 0.35649 0.0
C2008 C 0.17917 0.35685 0.37268 0.0
H2009 H 0.13455 0.3896 0.45553 0.0
H2010 H 0.15527 0.39172 0.42852 0.0
H2011 H 0.15537 0.34997 0.38397 0.0
H2012 H 0.22647 0.33644 0.32987 0.0
H2013 H 0.20444 0.33831 0.35482 0.0
H2014 H 0.20647 0.38224 0.39699 0.0
C2015 C 0.14992 0.37966 0.43179 0.0
C2016 C 0.16646 0.35706 0.38702 0.0
C2017 C 0.13791 0.37848 0.44708 0.0
C2018 C 0.22405 0.3484 0.337 0.0
C2019 C 0.21135 0.34949 0.35131 0.0
C2020 C 0.19528 0.37534 0.39382 0.0
C2021 C 0.15496 0.36537 0.42092 0.0
C2022 C 0.16804 0.36626 0.40507 0.0
C2023 C 0.20774 0.36469 0.36111 0.0
C2024 C 0.19387 0.36577 0.376 0.0
H2025 H 0.1307 0.33661 0.44423 0.0
H2026 H 0.15141 0.33867 0.41771 0.0
H2027 H 0.18418 0.38268 0.42202 0.0
H2028 H 0.23721 0.38873 0.33859 0.0
H2029 H 0.21495 0.39067 0.36358 0.0
C2030 C 0.31381 0.38931 0.19522 0.0
C2031 C 0.32925 0.38419 0.20296 0.0
C2032 C 0.31285 0.40163 0.18016 0.0
C2033 C 0.33564 0.43756 0.16043 0.0
H2034 H 0.3093 0.43209 0.11172 0.0
C2035 C 0.34278 0.48181 0.09251 0.0
C2036 C 0.32884 0.48605 0.08077 0.0
C2037 C 0.34182 0.46969 0.10767 0.0
C2038 C 0.31651 0.43397 0.12538 0.0
H2039 H 0.35575 0.38815 0.20127 0.0
H2040 H 0.35404 0.40971 0.17521 0.0
H2041 H 0.30942 0.41021 0.13761 0.0
H2042 H 0.30282 0.48085 0.07602 0.0
H2043 H 0.30099 0.45995 0.10298 0.0
H2044 H 0.34259 0.46132 0.14858 0.0
C2045 C 0.3427 0.40408 0.18059 0.0
C2046 C 0.3166 0.42138 0.14017 0.0
C2047 C 0.34369 0.39159 0.19534 0.0
C2048 C 0.31378 0.478 0.08487 0.0
C2049 C 0.31279 0.46585 0.10017 0.0
C2050 C 0.33541 0.45018 0.14581 0.0
C2051 C 0.32729 0.4093 0.17291 0.0
C2052 C 0.32638 0.42295 0.15769 0.0
C2053 C 0.32683 0.46151 0.11174 0.0
C2054 C 0.32607 0.44847 0.1279 0.0
H2055 H 0.30247 0.38393 0.20096 0.0
H2056 H 0.3008 0.40549 0.17461 0.0
H2057 H 0.34304 0.43926 0.17397 0.0
H2058 H 0.35454 0.48789 0.08999 0.0
H2059 H 0.35298 0.46655 0.11598 0.0
C2060 C 0.20828 0.59263 0.84278 0.0
C2061 C 0.20385 0.57784 0.83269 0.0
C2062 C 0.22094 0.59259 0.85722 0.0
C2063 C 0.25718 0.56804 0.87555 0.0
H2064 H 0.2515 0.59558 0.92344 0.0
C2065 C 0.30238 0.56671 0.94463 0.0
C2066 C 0.30604 0.58231 0.9533 0.0
C2067 C 0.29024 0.56542 0.92948 0.0
C2068 C 0.25336 0.58792 0.91008 0.0
H2069 H 0.20957 0.55143 0.82977 0.0
H2070 H 0.2313 0.55125 0.85544 0.0
H2071 H 0.22975 0.59482 0.89801 0.0
H2072 H 0.30005 0.60883 0.95233 0.0
H2073 H 0.27927 0.60655 0.92611 0.0
H2074 H 0.28085 0.56113 0.88783 0.0
C2075 C 0.2251 0.56295 0.85197 0.0
C2076 C 0.24089 0.58752 0.89544 0.0
C2077 C 0.21247 0.563 0.83743 0.0
C2078 C 0.2976 0.59657 0.94612 0.0
C2079 C 0.28552 0.59527 0.93114 0.0
C2080 C 0.26968 0.56841 0.89027 0.0
C2081 C 0.22946 0.57773 0.8621 0.0
C2082 C 0.24268 0.57771 0.87788 0.0
C2083 C 0.2815 0.57969 0.92283 0.0
C2084 C 0.26798 0.57851 0.90759 0.0
H2085 H 0.20185 0.60426 0.83969 0.0
H2086 H 0.22412 0.60427 0.86447 0.0
H2087 H 0.25906 0.56047 0.86212 0.0
H2088 H 0.30854 0.55546 0.94989 0.0
H2089 H 0.28735 0.55321 0.92343 0.0
C2090 C 0.09219 0.54819 0.69848 0.0
C2091 C 0.10583 0.55799 0.70407 0.0
C2092 C 0.09366 0.53616 0.68328 0.0
C2093 C 0.11826 0.5233 0.63896 0.0
H2094 H 0.09797 0.48034 0.64913 0.0
C2095 C 0.12307 0.46732 0.58263 0.0
C2096 C 0.10834 0.45844 0.57945 0.0
C2097 C 0.12404 0.47938 0.59804 0.0
C2098 C 0.10359 0.4923 0.64595 0.0
H2099 H 0.13168 0.56297 0.69769 0.0
H2100 H 0.13414 0.54201 0.67081 0.0
H2101 H 0.09719 0.50179 0.67525 0.0
H2102 H 0.08327 0.45492 0.59025 0.0
H2103 H 0.08487 0.47589 0.61681 0.0
H2104 H 0.12444 0.51381 0.60946 0.0
C2105 C 0.12232 0.54372 0.67829 0.0
C2106 C 0.10315 0.5046 0.66094 0.0
C2107 C 0.1209 0.5557 0.6937 0.0
C2108 C 0.09474 0.46166 0.59218 0.0
C2109 C 0.09573 0.47358 0.60756 0.0
C2110 C 0.11867 0.51096 0.62387 0.0
C2111 C 0.10876 0.53365 0.67314 0.0
C2112 C 0.11024 0.52033 0.65753 0.0
C2113 C 0.11036 0.48262 0.6107 0.0
C2114 C 0.11111 0.4954 0.6271 0.0
H2115 H 0.08043 0.54943 0.70622 0.0
H2116 H 0.08292 0.52876 0.67949 0.0
H2117 H 0.12376 0.53533 0.63584 0.0
H2118 H 0.13372 0.46519 0.57297 0.0
H2119 H 0.13552 0.48605 0.60014 0.0
C2120 C 0.13907 0.56885 0.11189 0.0
C2121 C 0.13113 0.58413 0.10746 0.0
C2122 C 0.15096 0.56785 0.12722 0.0
C2123 C 0.16628 0.58971 0.17282 0.0
H2124 H 0.20673 0.56483 0.16227 0.0
C2125 C 0.22337 0.59519 0.22457 0.0
C2126 C 0.23279 0.5807 0.22844 0.0
C2127 C 0.2107 0.59505 0.21017 0.0
C2128 C 0.19542 0.57164 0.16559 0.0
H2129 H 0.12939 0.61028 0.11596 0.0
H2130 H 0.15014 0.60851 0.14263 0.0
H2131 H 0.1849 0.56549 0.13677 0.0
H2132 H 0.23614 0.55465 0.22032 0.0
H2133 H 0.21396 0.55438 0.19522 0.0
H2134 H 0.17676 0.59588 0.20161 0.0
C2135 C 0.14703 0.59726 0.13437 0.0
C2136 C 0.1829 0.57202 0.15096 0.0
C2137 C 0.13516 0.59829 0.119 0.0
C2138 C 0.22928 0.56609 0.21748 0.0
C2139 C 0.21655 0.56594 0.2031 0.0
C2140 C 0.17877 0.58929 0.18747 0.0
C2141 C 0.15517 0.58207 0.13853 0.0
C2142 C 0.16824 0.58116 0.15435 0.0
C2143 C 0.20708 0.58042 0.1993 0.0
C2144 C 0.19355 0.58036 0.18398 0.0
H2145 H 0.1364 0.55769 0.10323 0.0
H2146 H 0.15688 0.55591 0.1302 0.0
H2147 H 0.15502 0.59663 0.17604 0.0
H2148 H 0.22591 0.60672 0.23253 0.0
H2149 H 0.20389 0.60652 0.20737 0.0
C2150 C 0.12164 0.38951 0.86345 0.0
C2151 C 0.10624 0.38332 0.85711 0.0
C2152 C 0.12253 0.40159 0.87873 0.0
C2153 C 0.098 0.43512 0.9022 0.0
H2154 H 0.12993 0.432 0.94599 0.0
C2155 C 0.09611 0.48073 0.96967 0.0
C2156 C 0.11117 0.48608 0.97807 0.0
C2157 C 0.0958 0.468 0.95519 0.0
C2158 C 0.12109 0.43321 0.93372 0.0
H2159 H 0.0797 0.38505 0.86173 0.0
H2160 H 0.08127 0.40615 0.88833 0.0
H2161 H 0.12895 0.41009 0.92029 0.0
H2162 H 0.13774 0.48197 0.97787 0.0
H2163 H 0.13726 0.46022 0.95205 0.0
H2164 H 0.0903 0.45833 0.91524 0.0
C2165 C 0.09265 0.40158 0.88156 0.0
C2166 C 0.1205 0.42061 0.91903 0.0
C2167 C 0.09177 0.38935 0.8665 0.0
C2168 C 0.12593 0.47836 0.97154 0.0
C2169 C 0.12563 0.46568 0.95693 0.0
C2170 C 0.09867 0.44778 0.91675 0.0
C2171 C 0.10803 0.40792 0.88775 0.0
C2172 C 0.10887 0.42137 0.90321 0.0
C2173 C 0.11055 0.46035 0.94853 0.0
C2174 C 0.11014 0.44696 0.9328 0.0
H2175 H 0.13299 0.38521 0.85638 0.0
H2176 H 0.13455 0.40634 0.88306 0.0
H2177 H 0.0891 0.43621 0.88997 0.0
H2178 H 0.0845 0.48649 0.97414 0.0
H2179 H 0.08392 0.46408 0.94935 0.0
C2180 C 0.29737 0.37657 0.61163 0.0
C2181 C 0.30504 0.36113 0.6073 0.0
C2182 C 0.28543 0.37786 0.62695 0.0
C2183 C 0.2697 0.35618 0.67268 0.0
H2184 H 0.2295 0.38156 0.66247 0.0
C2185 C 0.2125 0.34923 0.72365 0.0
C2186 C 0.20278 0.36341 0.72808 0.0
C2187 C 0.22521 0.34996 0.70933 0.0
C2188 C 0.24074 0.37462 0.66572 0.0
H2189 H 0.30623 0.33499 0.61593 0.0
H2190 H 0.28549 0.33725 0.64255 0.0
H2191 H 0.25147 0.3811 0.63707 0.0
H2192 H 0.19883 0.38952 0.72067 0.0
H2193 H 0.2211 0.39084 0.69562 0.0
H2194 H 0.25907 0.34964 0.70125 0.0
C2195 C 0.2888 0.34842 0.63425 0.0
C2196 C 0.25335 0.37434 0.65113 0.0
C2197 C 0.30067 0.3471 0.61889 0.0
C2198 C 0.20596 0.37832 0.71751 0.0
C2199 C 0.21875 0.37907 0.70315 0.0
C2200 C 0.25715 0.35649 0.68727 0.0
C2201 C 0.28093 0.36377 0.63838 0.0
C2202 C 0.26789 0.36492 0.65432 0.0
C2203 C 0.22863 0.3649 0.69898 0.0
C2204 C 0.24239 0.36551 0.68388 0.0
H2205 H 0.30028 0.38762 0.60288 0.0
H2206 H 0.27972 0.38991 0.62984 0.0
H2207 H 0.28087 0.34908 0.67583 0.0
H2208 H 0.21021 0.33743 0.73115 0.0
H2209 H 0.23222 0.33868 0.7062 0.0
C2210 C 0.31446 0.45858 0.46292 0.0
C2211 C 0.32611 0.45843 0.47878 0.0
C2212 C 0.31434 0.47144 0.4486 0.0
C2213 C 0.33042 0.51433 0.43923 0.0
H2214 H 0.31968 0.50368 0.38338 0.0
C2215 C 0.34248 0.5587 0.37152 0.0
C2216 C 0.32952 0.56049 0.35747 0.0
C2217 C 0.34149 0.54685 0.38703 0.0
C2218 C 0.32257 0.50685 0.39896 0.0
H2219 H 0.34657 0.47198 0.49214 0.0
H2220 H 0.34693 0.49386 0.46664 0.0
H2221 H 0.31929 0.48172 0.40891 0.0
H2222 H 0.30535 0.55122 0.34864 0.0
H2223 H 0.30375 0.5305 0.37561 0.0
H2224 H 0.33422 0.53942 0.42893 0.0
C2225 C 0.33762 0.48425 0.46547 0.0
C2226 C 0.32228 0.49429 0.41364 0.0
C2227 C 0.33761 0.4715 0.47994 0.0
C2228 C 0.31547 0.55033 0.35938 0.0
C2229 C 0.3146 0.53833 0.37468 0.0
C2230 C 0.33094 0.52684 0.42447 0.0
C2231 C 0.32599 0.48439 0.44959 0.0
C2232 C 0.32617 0.49786 0.434 0.0
C2233 C 0.32765 0.5364 0.38855 0.0
C2234 C 0.32699 0.52321 0.40423 0.0
H2235 H 0.30551 0.44866 0.46141 0.0
H2236 H 0.305 0.47125 0.43682 0.0
H2237 H 0.33318 0.51766 0.45478 0.0
H2238 H 0.35349 0.5663 0.37038 0.0
H2239 H 0.35178 0.5455 0.39746 0.0
C2240 C 0.10925 0.25282 0.41591 0.0
C2241 C 0.10841 0.2506 0.43708 0.0
C2242 C 0.10953 0.23897 0.40283 0.0
C2243 C 0.09556 0.19594 0.39949 0.0
H2244 H 0.12953 0.18915 0.3588 0.0
C2245 C 0.09882 0.13394 0.35535 0.0
C2246 C 0.10569 0.13359 0.33584 0.0
C2247 C 0.09968 0.14838 0.36723 0.0
C2248 C 0.1197 0.1909 0.36975 0.0
H2249 H 0.10708 0.23203 0.46099 0.0
H2250 H 0.10733 0.20802 0.43821 0.0
H2251 H 0.12979 0.21431 0.37965 0.0
H2252 H 0.11865 0.14805 0.31322 0.0
H2253 H 0.11911 0.17368 0.33318 0.0
H2254 H 0.08484 0.17324 0.38929 0.0
C2255 C 0.10791 0.22045 0.43176 0.0
C2256 C 0.11997 0.20534 0.38181 0.0
C2257 C 0.10788 0.23422 0.4448 0.0
C2258 C 0.11333 0.148 0.32831 0.0
C2259 C 0.1137 0.16268 0.33992 0.0
C2260 C 0.09501 0.18176 0.38714 0.0
C2261 C 0.10867 0.22265 0.41065 0.0
C2262 C 0.10804 0.20787 0.397 0.0
C2263 C 0.1069 0.16313 0.35964 0.0
C2264 C 0.10722 0.17879 0.37225 0.0
H2265 H 0.10978 0.26525 0.40948 0.0
H2266 H 0.11006 0.24101 0.3866 0.0
H2267 H 0.08607 0.19768 0.41091 0.0
H2268 H 0.09309 0.12289 0.36164 0.0
H2269 H 0.09479 0.14779 0.38248 0.0
C2270 C 0.04971 0.84611 0.59582 0.0
C2271 C 0.056 0.86069 0.58684 0.0
C2272 C 0.03526 0.84664 0.60747 0.0
C2273 C -0.00228 0.8722 0.61854 0.0
H2274 H -0.00353 0.84469 0.66692 0.0
C2275 C 0.94371 0.87553 0.6771 0.0
C2276 C 0.93876 0.86051 0.6864 0.0
C2277 C 0.95771 0.87602 0.66452 0.0
C2278 C -0.00354 0.8523 0.65333 0.0
H2279 H 0.05169 0.88729 0.58291 0.0
H2280 H 0.02652 0.88821 0.60341 0.0
H2281 H 0.02121 0.84485 0.64602 0.0
H2282 H 0.94487 0.83419 0.6894 0.0
H2283 H -0.03121 0.83493 0.6671 0.0
H2284 H -0.02709 0.87966 0.62596 0.0
C2285 C 0.03275 0.87632 0.60128 0.0
C2286 C 0.01072 0.8524 0.6413 0.0
C2287 C 0.04726 0.8758 0.58959 0.0
C2288 C 0.94808 0.84596 0.6824 0.0
C2289 C 0.96202 0.84644 0.6698 0.0
C2290 C -0.01659 0.8721 0.63061 0.0
C2291 C 0.02664 0.86175 0.61055 0.0
C2292 C 0.01152 0.86221 0.62363 0.0
C2293 C 0.96718 0.8615 0.66085 0.0
C2294 C -0.01748 0.86202 0.6481 0.0
H2295 H 0.056 0.83421 0.59405 0.0
H2296 H 0.03081 0.8351 0.61399 0.0
H2297 H -0.00219 0.87982 0.60496 0.0
H2298 H 0.93678 0.88698 0.67954 0.0
H2299 H 0.96131 0.88788 0.65804 0.0
C2300 C 0.34434 0.79896 0.83688 0.0
C2301 C 0.33022 0.80898 0.83378 0.0
C2302 C 0.34349 0.7845 0.84877 0.0
C2303 C 0.31705 0.76376 0.88772 0.0
H2304 H 0.34568 0.72592 0.87611 0.0
C2305 C 0.3254 0.70983 0.945 0.0
C2306 C 0.32834 0.69353 0.93782 0.0
C2307 C 0.32488 0.72341 0.93166 0.0
C2308 C 0.3374 0.73624 0.87948 0.0
H2309 H 0.30403 0.81145 0.84039 0.0
H2310 H 0.30238 0.786 0.86041 0.0
H2311 H 0.34579 0.74996 0.85367 0.0
H2312 H 0.33271 0.67875 0.91079 0.0
H2313 H 0.33146 0.70236 0.88739 0.0
H2314 H 0.30814 0.74977 0.91302 0.0
C2315 C 0.31427 0.78948 0.85421 0.0
C2316 C 0.33767 0.75023 0.86673 0.0
C2317 C 0.31517 0.80405 0.84254 0.0
C2318 C 0.33062 0.69116 0.91687 0.0
C2319 C 0.32995 0.70475 0.90345 0.0
C2320 C 0.31661 0.74968 0.9003 0.0
C2321 C 0.32845 0.77954 0.85766 0.0
C2322 C 0.32765 0.76429 0.87078 0.0
C2323 C 0.32715 0.72111 0.91066 0.0
C2324 C 0.32694 0.73578 0.89654 0.0
H2325 H 0.35618 0.80248 0.83053 0.0
H2326 H 0.35477 0.77743 0.85133 0.0
H2327 H 0.30927 0.77435 0.89158 0.0
H2328 H 0.32386 0.71218 0.96107 0.0
H2329 H 0.32307 0.73577 0.93795 0.0
C2330 C 0.38607 0.0691 0.0892 0.0
C2331 C 0.37847 0.08453 0.08479 0.0
C2332 C 0.4005 0.06838 0.10098 0.0
C2333 C 0.42338 0.09243 0.13948 0.0
H2334 H 0.46091 0.06469 0.12427 0.0
C2335 C 0.4864 0.09973 0.17867 0.0
C2336 C 0.49563 0.08528 0.1833 0.0
C2337 C 0.47234 0.09888 0.16638 0.0
C2338 C 0.45047 0.07235 0.12888 0.0
H2339 H 0.37992 0.11129 0.08943 0.0
H2340 H 0.40492 0.11004 0.11011 0.0
H2341 H 0.43579 0.06443 0.10354 0.0
H2342 H 0.49745 0.05857 0.17801 0.0
H2343 H 0.47267 0.05703 0.15686 0.0
H2344 H 0.43785 0.1003 0.16482 0.0
C2345 C 0.39981 0.09848 0.10442 0.0
C2346 C 0.43608 0.0722 0.11698 0.0
C2347 C 0.38556 0.09922 0.09241 0.0
C2348 C 0.49055 0.06995 0.17495 0.0
C2349 C 0.47643 0.06908 0.16265 0.0
C2350 C 0.43768 0.09252 0.15138 0.0
C2351 C 0.40744 0.08307 0.10891 0.0
C2352 C 0.42246 0.08244 0.12199 0.0
C2353 C 0.46701 0.08352 0.15842 0.0
C2354 C 0.45153 0.08269 0.1461 0.0
H2355 H 0.38089 0.05757 0.0835 0.0
H2356 H 0.40602 0.05631 0.10424 0.0
H2357 H 0.41298 0.10017 0.14403 0.0
H2358 H 0.48976 0.11173 0.18499 0.0
H2359 H 0.46559 0.11031 0.16317 0.0
C2360 C 0.09341 0.80079 0.22566 0.0
C2361 C 0.10729 0.81093 0.2288 0.0
C2362 C 0.09462 0.78634 0.2138 0.0
C2363 C 0.12141 0.76584 0.17491 0.0
H2364 H 0.09408 0.7276 0.18735 0.0
C2365 C 0.11242 0.71143 0.11832 0.0
C2366 C 0.10988 0.69524 0.12593 0.0
C2367 C 0.11355 0.7251 0.13147 0.0
C2368 C 0.10201 0.73804 0.18376 0.0
H2369 H 0.13344 0.81367 0.2223 0.0
H2370 H 0.13572 0.78821 0.20226 0.0
H2371 H 0.09347 0.75175 0.20957 0.0
H2372 H 0.10744 0.68065 0.15348 0.0
H2373 H 0.10969 0.70438 0.17641 0.0
H2374 H 0.13037 0.75186 0.14947 0.0
C2375 C 0.12375 0.7916 0.20845 0.0
C2376 C 0.10145 0.75207 0.19638 0.0
C2377 C 0.12248 0.80616 0.2201 0.0
C2378 C 0.10911 0.69299 0.14708 0.0
C2379 C 0.11034 0.70664 0.16023 0.0
C2380 C 0.12212 0.75172 0.16241 0.0
C2381 C 0.10981 0.78153 0.20499 0.0
C2382 C 0.11099 0.76627 0.19202 0.0
C2383 C 0.11228 0.72294 0.15261 0.0
C2384 C 0.11229 0.73767 0.16653 0.0
H2385 H 0.08148 0.8042 0.23196 0.0
H2386 H 0.08352 0.77916 0.21121 0.0
H2387 H 0.12882 0.77654 0.17086 0.0
H2388 H 0.11286 0.71367 0.10212 0.0
H2389 H 0.11481 0.73744 0.12495 0.0
C2390 C 0.49103 0.84767 0.3856 0.0
C2391 C 0.49718 0.86234 0.37672 0.0
C2392 C 0.47701 0.84812 0.39803 0.0
C2393 C 0.44023 0.87441 0.41107 0.0
H2394 H 0.4373 0.84366 0.45635 0.0
C2395 C 0.38517 0.87565 0.46782 0.0
C2396 C 0.37918 0.86017 0.47465 0.0
C2397 C 0.39978 0.87654 0.45643 0.0
C2398 C 0.4378 0.85222 0.44365 0.0
H2399 H 0.49341 0.8891 0.37424 0.0
H2400 H 0.46908 0.88997 0.39626 0.0
H2401 H 0.46234 0.84435 0.43599 0.0
H2402 H 0.38377 0.83346 0.47448 0.0
H2403 H 0.40901 0.83496 0.45436 0.0
H2404 H 0.41564 0.88231 0.41889 0.0
C2405 C 0.47493 0.87801 0.39329 0.0
C2406 C 0.45222 0.85261 0.4319 0.0
C2407 C 0.48894 0.87753 0.3807 0.0
C2408 C 0.38812 0.84561 0.46972 0.0
C2409 C 0.40266 0.84648 0.45821 0.0
C2410 C 0.4258 0.87406 0.42291 0.0
C2411 C 0.46873 0.86329 0.40211 0.0
C2412 C 0.4536 0.86357 0.41527 0.0
C2413 C 0.40874 0.86196 0.45145 0.0
C2414 C 0.42432 0.86282 0.43923 0.0
H2415 H 0.49681 0.83569 0.38254 0.0
H2416 H 0.47247 0.83645 0.40408 0.0
H2417 H 0.44067 0.88289 0.39829 0.0
H2418 H 0.37863 0.88713 0.47139 0.0
H2419 H 0.40416 0.8887 0.45173 0.0
C2420 C 0.34596 0.24005 0.63105 0.0
C2421 C 0.33199 0.25023 0.62767 0.0
C2422 C 0.34497 0.22601 0.64353 0.0
C2423 C 0.32038 0.2062 0.68398 0.0
H2424 H 0.34275 0.16607 0.66523 0.0
C2425 C 0.31588 0.14219 0.72533 0.0
C2426 C 0.33057 0.13267 0.72651 0.0
C2427 C 0.31522 0.15677 0.71362 0.0
C2428 C 0.33659 0.17721 0.67081 0.0
H2429 H 0.30609 0.25384 0.63531 0.0
H2430 H 0.30431 0.22912 0.65695 0.0
H2431 H 0.34312 0.19109 0.64435 0.0
H2432 H 0.35618 0.13131 0.71655 0.0
H2433 H 0.35505 0.15667 0.69648 0.0
H2434 H 0.31394 0.19224 0.71056 0.0
C2435 C 0.31606 0.23211 0.64999 0.0
C2436 C 0.33679 0.19156 0.65883 0.0
C2437 C 0.31705 0.24619 0.63745 0.0
C2438 C 0.34462 0.13823 0.71599 0.0
C2439 C 0.34395 0.15275 0.70431 0.0
C2440 C 0.3202 0.1918 0.69603 0.0
C2441 C 0.32997 0.22174 0.65294 0.0
C2442 C 0.32891 0.20631 0.66538 0.0
C2443 C 0.32921 0.1621 0.7028 0.0
C2444 C 0.32853 0.17721 0.6897 0.0
H2445 H 0.3576 0.24264 0.62358 0.0
H2446 H 0.35598 0.21843 0.64574 0.0
H2447 H 0.31424 0.21739 0.68948 0.0
H2448 H 0.30482 0.13833 0.73328 0.0
H2449 H 0.30366 0.16365 0.7127 0.0
C2450 C 0.0474 0.07021 0.97212 0.0
C2451 C 0.05636 0.08515 0.97406 0.0
C2452 C 0.03297 0.06967 0.96038 0.0
C2453 C 0.01148 0.09253 0.91897 0.0
H2454 H -0.02685 0.06734 0.93616 0.0
C2455 C 0.94886 0.09949 0.87805 0.0
C2456 C 0.93939 0.08506 0.87473 0.0
C2457 C 0.96281 0.09903 0.89062 0.0
C2458 C -0.0162 0.0743 0.93102 0.0
H2459 H 0.05692 0.1113 0.96535 0.0
H2460 H 0.03179 0.1104 0.94525 0.0
H2461 H -0.00194 0.06729 0.95715 0.0
H2462 H 0.9371 0.05887 0.88274 0.0
H2463 H 0.96164 0.058 0.90429 0.0
H2464 H -0.00267 0.09955 0.8929 0.0
C2465 C 0.03603 0.09901 0.95248 0.0
C2466 C -0.00189 0.07426 0.94306 0.0
C2467 C 0.05042 0.09955 0.96418 0.0
C2468 C 0.94416 0.0702 0.88469 0.0
C2469 C 0.95816 0.06974 0.89726 0.0
C2470 C -0.00278 0.09257 0.90698 0.0
C2471 C 0.02717 0.08405 0.95028 0.0
C2472 C 0.01208 0.08352 0.93728 0.0
C2473 C 0.96778 0.08412 0.90022 0.0
C2474 C -0.01689 0.0836 0.9129 0.0
H2475 H 0.05158 0.05886 0.97953 0.0
H2476 H 0.02656 0.05791 0.95891 0.0
H2477 H 0.02212 0.09947 0.91376 0.0
H2478 H 0.94576 0.11112 0.87051 0.0
H2479 H -0.03027 0.11043 0.89279 0.0
C2480 C 0.82399 0.79654 0.732 0.0
C2481 C 0.83205 0.81076 0.72454 0.0
C2482 C 0.82323 0.78195 0.72035 0.0
C2483 C 0.84293 0.76182 0.6751 0.0
H2484 H 0.80629 0.73116 0.68037 0.0
C2485 C 0.84471 0.69823 0.63483 0.0
C2486 C 0.82992 0.69184 0.62684 0.0
C2487 C 0.84453 0.71214 0.64763 0.0
C2488 C 0.81654 0.73965 0.67848 0.0
H2489 H 0.845 0.82113 0.69871 0.0
H2490 H 0.84298 0.79616 0.67803 0.0
H2491 H 0.80618 0.75697 0.69972 0.0
H2492 H 0.80318 0.69484 0.62692 0.0
H2493 H 0.80292 0.71955 0.64831 0.0
H2494 H 0.85281 0.74511 0.65296 0.0
C2495 C 0.83788 0.79583 0.6932 0.0
C2496 C 0.81662 0.7544 0.68989 0.0
C2497 C 0.83896 0.81026 0.70502 0.0
C2498 C 0.81488 0.69955 0.63244 0.0
C2499 C 0.81471 0.71364 0.64502 0.0
C2500 C 0.84269 0.74728 0.66341 0.0
C2501 C 0.83022 0.78135 0.70078 0.0
C2502 C 0.82987 0.76568 0.68844 0.0
C2503 C 0.82957 0.72028 0.65258 0.0
C2504 C 0.82958 0.73588 0.66504 0.0
H2505 H 0.81855 0.79656 0.74703 0.0
H2506 H 0.81745 0.77106 0.72693 0.0
H2507 H 0.85354 0.76992 0.67372 0.0
H2508 H 0.85656 0.69281 0.63075 0.0
H2509 H 0.85622 0.71656 0.6535 0.0
C2510 C -0.00788 0.07079 0.38692 0.0
C2511 C -0.00369 0.08594 0.3774 0.0
C2512 C -0.02185 0.06976 0.39944 0.0
C2513 C 0.93827 0.09134 0.40919 0.0
H2514 H 0.93825 0.06594 0.4593 0.0
C2515 C 0.88556 0.09805 0.46674 0.0
C2516 C 0.87956 0.0836 0.4763 0.0
C2517 C 0.89993 0.09747 0.45506 0.0
C2518 C 0.938 0.07292 0.44523 0.0
H2519 H -0.01095 0.11192 0.37389 0.0
H2520 H 0.96512 0.11026 0.3961 0.0
H2521 H 0.96323 0.06663 0.43838 0.0
H2522 H 0.88432 0.05719 0.48131 0.0
H2523 H 0.90948 0.05619 0.46075 0.0
H2524 H 0.91313 0.09768 0.41595 0.0
C2525 C -0.02754 0.09908 0.39363 0.0
C2526 C 0.95232 0.07333 0.43324 0.0
C2527 C -0.01363 0.10009 0.38112 0.0
C2528 C 0.88853 0.06857 0.47414 0.0
C2529 C 0.90301 0.068 0.46244 0.0
C2530 C 0.92401 0.09093 0.42113 0.0
C2531 C 0.96803 0.08386 0.40273 0.0
C2532 C 0.95269 0.08275 0.41521 0.0
C2533 C 0.90876 0.08242 0.45256 0.0
C2534 C 0.92375 0.08193 0.43944 0.0
H2535 H -0.00042 0.05966 0.3846 0.0
H2536 H -0.02493 0.05782 0.40612 0.0
H2537 H 0.93794 0.09836 0.39515 0.0
H2538 H 0.87906 0.10989 0.46803 0.0
H2539 H 0.90416 0.10889 0.44801 0.0
C2540 C 0.5921 0.24659 0.13516 0.0
C2541 C 0.60648 0.2519 0.12508 0.0
C2542 C 0.59255 0.23284 0.14831 0.0
C2543 C 0.61776 0.19498 0.16031 0.0
H2544 H 0.58976 0.19341 0.20802 0.0
C2545 C 0.62103 0.14046 0.21807 0.0
C2546 C 0.60586 0.13417 0.22513 0.0
C2547 C 0.62157 0.15522 0.20668 0.0
C2548 C 0.59756 0.19359 0.19466 0.0
H2549 H 0.63282 0.24718 0.12177 0.0
H2550 H 0.63363 0.22335 0.14474 0.0
H2551 H 0.59005 0.21851 0.1871 0.0
H2552 H 0.57935 0.13876 0.22591 0.0
H2553 H 0.58033 0.16445 0.20612 0.0
H2554 H 0.62529 0.17005 0.16798 0.0
C2555 C 0.62188 0.22957 0.14212 0.0
C2556 C 0.59771 0.208 0.18261 0.0
C2557 C 0.62142 0.2433 0.12894 0.0
C2558 C 0.59127 0.14317 0.22072 0.0
C2559 C 0.59183 0.15799 0.20947 0.0
C2560 C 0.61766 0.18061 0.17243 0.0
C2561 C 0.60741 0.22401 0.15183 0.0
C2562 C 0.60772 0.20887 0.16516 0.0
C2563 C 0.60697 0.16415 0.20219 0.0
C2564 C 0.60747 0.17967 0.18968 0.0
H2565 H 0.58032 0.25271 0.13239 0.0
H2566 H 0.58109 0.22885 0.15523 0.0
H2567 H 0.62542 0.195 0.14684 0.0
H2568 H 0.63253 0.13389 0.2211 0.0
H2569 H 0.63346 0.15968 0.2015 0.0
C2570 C 0.44807 0.87649 0.8795 0.0
C2571 C 0.43951 0.86145 0.87636 0.0
C2572 C 0.46236 0.8769 0.89163 0.0
C2573 C 0.49481 0.84843 0.91309 0.0
H2574 H 0.50625 0.88716 0.94527 0.0
C2575 C 0.55784 0.85164 0.9537 0.0
C2576 C 0.55888 0.85989 0.97244 0.0
C2577 C 0.54345 0.85267 0.94197 0.0
C2578 C 0.5032 0.87612 0.93659 0.0
H2579 H 0.43945 0.83503 0.88379 0.0
H2580 H 0.46362 0.83588 0.90545 0.0
H2581 H 0.48058 0.88716 0.92592 0.0
H2582 H 0.54555 0.87581 0.99354 0.0
H2583 H 0.52016 0.877 0.97358 0.0
H2584 H 0.51685 0.837 0.92444 0.0
C2585 C 0.45962 0.84736 0.89822 0.0
C2586 C 0.48852 0.87624 0.92518 0.0
C2587 C 0.44548 0.84693 0.886 0.0
C2588 C 0.54517 0.8693 0.97914 0.0
C2589 C 0.53062 0.87009 0.96756 0.0
C2590 C 0.5093 0.84821 0.92469 0.0
C2591 C 0.46845 0.86228 0.90101 0.0
C2592 C 0.4841 0.86237 0.91325 0.0
C2593 C 0.52949 0.86171 0.9488 0.0
C2594 C 0.51382 0.86207 0.93656 0.0
H2595 H 0.44378 0.88799 0.87253 0.0
H2596 H 0.46881 0.88864 0.89323 0.0
H2597 H 0.49212 0.8376 0.90386 0.0
H2598 H 0.56825 0.84448 0.94794 0.0
H2599 H 0.54338 0.84641 0.92741 0.0
C2600 C 0.8298 0.25367 0.91478 0.0
C2601 C 0.82683 0.25171 0.93567 0.0
C2602 C 0.82864 0.24005 0.90155 0.0
C2603 C 0.81309 0.19639 0.89755 0.0
H2604 H 0.84737 0.19237 0.85665 0.0
C2605 C 0.81509 0.14164 0.84027 0.0
C2606 C 0.83073 0.1346 0.83616 0.0
C2607 C 0.81367 0.15644 0.85141 0.0
C2608 C 0.83776 0.19324 0.86807 0.0
H2609 H 0.82001 0.23384 0.9589 0.0
H2610 H 0.81814 0.21013 0.93596 0.0
H2611 H 0.84621 0.21711 0.87801 0.0
H2612 H 0.85716 0.13771 0.8404 0.0
H2613 H 0.85469 0.16338 0.85996 0.0
H2614 H 0.80509 0.17217 0.88812 0.0
C2615 C 0.8211 0.22225 0.92969 0.0
C2616 C 0.83694 0.20757 0.88014 0.0
C2617 C 0.82219 0.23588 0.94288 0.0
C2618 C 0.84492 0.14275 0.84333 0.0
C2619 C 0.8435 0.15757 0.8544 0.0
C2620 C 0.81396 0.18202 0.88551 0.0
C2621 C 0.82455 0.22409 0.90889 0.0
C2622 C 0.8247 0.20928 0.89518 0.0
C2623 C 0.82787 0.16458 0.85863 0.0
C2624 C 0.82642 0.18019 0.87077 0.0
H2625 H 0.83313 0.26575 0.90865 0.0
H2626 H 0.83105 0.24203 0.88557 0.0
H2627 H 0.80336 0.19735 0.90879 0.0
H2628 H 0.80388 0.13568 0.83501 0.0
H2629 H 0.80145 0.16158 0.8542 0.0
C2630 C 0.44902 0.06961 0.67949 0.0
C2631 C 0.44052 0.08468 0.68347 0.0
C2632 C 0.46297 0.0693 0.66689 0.0
C2633 C 0.4947 0.09792 0.64516 0.0
H2634 H 0.50687 0.05875 0.6139 0.0
C2635 C 0.55809 0.09388 0.60565 0.0
C2636 C 0.55936 0.08537 0.58708 0.0
C2637 C 0.54359 0.0931 0.61715 0.0
C2638 C 0.5036 0.06991 0.62229 0.0
H2639 H 0.43992 0.11118 0.67651 0.0
H2640 H 0.46344 0.11047 0.65372 0.0
H2641 H 0.48108 0.05903 0.63284 0.0
H2642 H 0.54637 0.06927 0.56607 0.0
H2643 H 0.52081 0.06851 0.58561 0.0
H2644 H 0.51665 0.10919 0.6338 0.0
C2645 C 0.45975 0.09893 0.66092 0.0
C2646 C 0.48886 0.06997 0.63349 0.0
C2647 C 0.44597 0.09929 0.67376 0.0
C2648 C 0.5458 0.07597 0.58033 0.0
C2649 C 0.53115 0.07543 0.59167 0.0
C2650 C 0.50924 0.09798 0.6337 0.0
C2651 C 0.4687 0.08401 0.65762 0.0
C2652 C 0.48421 0.08396 0.64518 0.0
C2653 C 0.52978 0.08407 0.61024 0.0
C2654 C 0.51403 0.08395 0.6222 0.0
H2655 H 0.44505 0.05801 0.68632 0.0
H2656 H 0.4695 0.05756 0.66494 0.0
H2657 H 0.49185 0.10884 0.65421 0.0
H2658 H 0.56839 0.10105 0.61144 0.0
H2659 H 0.54332 0.09954 0.63158 0.0
C2660 C 0.62146 0.80411 0.34237 0.0
C2661 C 0.60641 0.80961 0.3339 0.0
C2662 C 0.62219 0.78945 0.35397 0.0
C2663 C 0.59818 0.75086 0.36616 0.0
H2664 H 0.62743 0.74894 0.41273 0.0
C2665 C 0.59324 0.69934 0.42759 0.0
C2666 C 0.60797 0.69289 0.436 0.0
C2667 C 0.59355 0.71301 0.41431 0.0
C2668 C 0.61932 0.74917 0.39964 0.0
H2669 H 0.58027 0.80407 0.3312 0.0
H2670 H 0.58141 0.7789 0.35181 0.0
H2671 H 0.62703 0.77376 0.39139 0.0
H2672 H 0.6347 0.69558 0.4362 0.0
H2673 H 0.63518 0.71944 0.41326 0.0
H2674 H 0.59026 0.72637 0.3747 0.0
C2675 C 0.5928 0.78556 0.34907 0.0
C2676 C 0.61911 0.76344 0.38733 0.0
C2677 C 0.59212 0.8001 0.33729 0.0
C2678 C 0.62305 0.70035 0.43041 0.0
C2679 C 0.62334 0.71407 0.41721 0.0
C2680 C 0.59831 0.73665 0.37856 0.0
C2681 C 0.60785 0.77999 0.35761 0.0
C2682 C 0.60846 0.76455 0.37044 0.0
C2683 C 0.60858 0.72067 0.40909 0.0
C2684 C 0.60882 0.73563 0.39553 0.0
H2685 H 0.63272 0.81111 0.34 0.0
H2686 H 0.63407 0.78549 0.35995 0.0
H2687 H 0.59007 0.75101 0.35308 0.0
H2688 H 0.58137 0.69416 0.43172 0.0
H2689 H 0.58191 0.71787 0.40858 0.0
C2690 C 0.8866 0.87734 0.09154 0.0
C2691 C 0.88094 0.86201 0.08382 0.0
C2692 C 0.90112 0.87807 0.10315 0.0
C2693 C 0.93957 0.8543 0.1151 0.0
H2694 H 0.94031 0.88178 0.1635 0.0
C2695 C -0.00808 0.84808 0.17432 0.0
C2696 C -0.0027 0.86242 0.18466 0.0
C2697 C -0.02191 0.8487 0.16155 0.0
C2698 C 0.94046 0.87421 0.14988 0.0
H2699 H 0.88634 0.83541 0.08233 0.0
H2700 H 0.91145 0.83672 0.10252 0.0
H2701 H 0.91578 0.88175 0.14196 0.0
H2702 H -0.00767 0.88879 0.18932 0.0
H2703 H -0.03165 0.88996 0.16681 0.0
H2704 H 0.96421 0.84678 0.12286 0.0
C2705 C 0.90481 0.84823 0.09939 0.0
C2706 C 0.92634 0.87419 0.13752 0.0
C2707 C 0.89031 0.84749 0.08783 0.0
C2708 C -0.01153 0.87745 0.18177 0.0
C2709 C -0.02535 0.8781 0.16888 0.0
C2710 C 0.95371 0.85438 0.12738 0.0
C2711 C 0.91038 0.86351 0.10731 0.0
C2712 C 0.92565 0.86411 0.12005 0.0
C2713 C -0.03077 0.86371 0.15861 0.0
C2714 C 0.95433 0.86421 0.14507 0.0
H2715 H 0.87972 0.88879 0.08886 0.0
H2716 H 0.90512 0.89008 0.10882 0.0
H2717 H 0.93962 0.8466 0.10158 0.0
H2718 H -0.00184 0.83619 0.17647 0.0
H2719 H -0.02585 0.83725 0.15432 0.0
C2720 C 0.59261 0.64519 0.83861 0.0
C2721 C 0.60691 0.63565 0.83464 0.0
C2722 C 0.59348 0.65969 0.85037 0.0
C2723 C 0.62064 0.68144 0.88756 0.0
H2724 H 0.59053 0.71834 0.87707 0.0
C2725 C 0.61202 0.73527 0.94487 0.0
C2726 C 0.60852 0.75146 0.93767 0.0
C2727 C 0.61266 0.72166 0.93159 0.0
C2728 C 0.59922 0.70829 0.8801 0.0
H2729 H 0.6334 0.63405 0.8396 0.0
H2730 H 0.63504 0.65962 0.85945 0.0
H2731 H 0.59043 0.69419 0.85482 0.0
H2732 H 0.60332 0.76602 0.91067 0.0
H2733 H 0.60475 0.74236 0.88739 0.0
H2734 H 0.62989 0.69582 0.91236 0.0
C2735 C 0.62304 0.65571 0.85399 0.0
C2736 C 0.59896 0.69424 0.86748 0.0
C2737 C 0.62213 0.64108 0.84245 0.0
C2738 C 0.60584 0.7537 0.91676 0.0
C2739 C 0.60663 0.74008 0.90342 0.0
C2740 C 0.62105 0.69558 0.90002 0.0
C2741 C 0.6087 0.66518 0.85826 0.0
C2742 C 0.60952 0.68051 0.87116 0.0
C2743 C 0.60995 0.72384 0.91066 0.0
C2744 C 0.61019 0.70914 0.89665 0.0
H2745 H 0.58065 0.64126 0.83301 0.0
H2746 H 0.58209 0.66638 0.85361 0.0
H2747 H 0.62886 0.67111 0.8911 0.0
H2748 H 0.61387 0.73301 0.96092 0.0
H2749 H 0.6149 0.70936 0.93789 0.0
C2750 C 0.54439 0.37019 0.08235 0.0
C2751 C 0.55751 0.35956 0.08807 0.0
C2752 C 0.52987 0.37103 0.09395 0.0
C2753 C 0.50734 0.34788 0.13495 0.0
H2754 H 0.48171 0.3889 0.13863 0.0
C2755 C 0.45644 0.35766 0.19504 0.0
C2756 C 0.44101 0.36364 0.18818 0.0
C2757 C 0.47027 0.3577 0.18229 0.0
C2758 C 0.4887 0.37733 0.13762 0.0
H2759 H 0.56584 0.34187 0.11085 0.0
H2760 H 0.54106 0.34382 0.13145 0.0
H2761 H 0.50671 0.38809 0.11783 0.0
H2762 H 0.42818 0.3747 0.16255 0.0
H2763 H 0.45252 0.37497 0.14027 0.0
H2764 H 0.48962 0.33738 0.15537 0.0
C2765 C 0.54154 0.35107 0.1176 0.0
C2766 C 0.50302 0.3768 0.1256 0.0
C2767 C 0.5559 0.35004 0.10585 0.0
C2768 C 0.43986 0.36995 0.16828 0.0
C2769 C 0.4538 0.3702 0.15558 0.0
C2770 C 0.49324 0.34852 0.14721 0.0
C2771 C 0.52819 0.36143 0.11176 0.0
C2772 C 0.51264 0.36207 0.12417 0.0
C2773 C 0.46911 0.36388 0.16239 0.0
C2774 C 0.4838 0.36325 0.14878 0.0
H2775 H 0.54521 0.37771 0.06872 0.0
H2776 H 0.51988 0.379 0.0887 0.0
H2777 H 0.51398 0.33613 0.13386 0.0
H2778 H 0.45776 0.35253 0.21017 0.0
H2779 H 0.48193 0.35286 0.18802 0.0
C2780 C 0.84435 0.30453 0.33953 0.0
C2781 C 0.82983 0.31301 0.33354 0.0
C2782 C 0.84349 0.28975 0.35082 0.0
C2783 C 0.81545 0.26606 0.38463 0.0
H2784 H 0.84731 0.23038 0.37575 0.0
C2785 C 0.82453 0.2121 0.4419 0.0
C2786 C 0.82857 0.19608 0.43458 0.0
C2787 C 0.82363 0.2258 0.42876 0.0
C2788 C 0.83816 0.2401 0.37831 0.0
H2789 H 0.80299 0.31236 0.33471 0.0
H2790 H 0.80153 0.28657 0.35418 0.0
H2791 H 0.84764 0.25492 0.35396 0.0
H2792 H 0.8343 0.18189 0.40743 0.0
H2793 H 0.83262 0.20574 0.38446 0.0
H2794 H 0.80576 0.25111 0.40872 0.0
C2795 C 0.8136 0.29145 0.35034 0.0
C2796 C 0.83851 0.25432 0.36596 0.0
C2797 C 0.81444 0.3062 0.339 0.0
C2798 C 0.83141 0.19408 0.41366 0.0
C2799 C 0.83046 0.20779 0.40048 0.0
C2800 C 0.81506 0.25181 0.39693 0.0
C2801 C 0.82812 0.28306 0.35649 0.0
C2802 C 0.82727 0.26758 0.36908 0.0
C2803 C 0.82671 0.22388 0.40788 0.0
C2804 C 0.82652 0.23869 0.39408 0.0
H2805 H 0.85643 0.30933 0.33562 0.0
H2806 H 0.85494 0.28378 0.35549 0.0
H2807 H 0.80669 0.27606 0.38763 0.0
H2808 H 0.82254 0.21421 0.45795 0.0
H2809 H 0.821 0.238 0.43513 0.0
C2810 C 0.89197 0.5751 0.58182 0.0
C2811 C 0.87846 0.58476 0.58859 0.0
C2812 C 0.90669 0.57447 0.59302 0.0
C2813 C 0.92887 0.59731 0.63422 0.0
H2814 H 0.9568 0.55777 0.63455 0.0
C2815 C -0.00802 0.59815 0.67439 0.0
C2816 C -0.00292 0.58373 0.68492 0.0
C2817 C -0.02164 0.59775 0.66133 0.0
C2818 C 0.94908 0.56888 0.63484 0.0
H2819 H 0.86958 0.6008 0.61279 0.0
H2820 H 0.89479 0.59915 0.6327 0.0
H2821 H 0.93097 0.55763 0.6156 0.0
H2822 H -0.00783 0.55731 0.68902 0.0
H2823 H 0.96798 0.55682 0.66714 0.0
H2824 H 0.94636 0.60824 0.65436 0.0
C2825 C 0.89441 0.59257 0.61837 0.0
C2826 C 0.93433 0.56889 0.62366 0.0
C2827 C 0.87984 0.59343 0.60701 0.0
C2828 C -0.01155 0.56877 0.68151 0.0
C2829 C -0.02534 0.56843 0.66866 0.0
C2830 C 0.94342 0.59719 0.64564 0.0
C2831 C 0.90817 0.58329 0.61143 0.0
C2832 C 0.92399 0.58312 0.62321 0.0
C2833 C -0.03076 0.58299 0.65862 0.0
C2834 C 0.95381 0.58302 0.64609 0.0
H2835 H 0.8913 0.56829 0.56765 0.0
H2836 H 0.91701 0.56736 0.58698 0.0
H2837 H 0.92151 0.60866 0.634 0.0
H2838 H -0.00183 0.60995 0.67669 0.0
H2839 H -0.02512 0.60915 0.65353 0.0
C2840 C 0.59686 0.29444 0.73085 0.0
C2841 C 0.60733 0.30803 0.72701 0.0
C2842 C 0.59785 0.27999 0.71895 0.0
C2843 C 0.61006 0.26572 0.66835 0.0
H2844 H 0.61006 0.22146 0.69227 0.0
C2845 C 0.61777 0.20687 0.61876 0.0
C2846 C 0.60861 0.19257 0.62386 0.0
C2847 C 0.61849 0.22055 0.63191 0.0
C2848 C 0.60984 0.23371 0.68529 0.0
H2849 H 0.6271 0.31708 0.70773 0.0
H2850 H 0.62867 0.29195 0.68686 0.0
H2851 H 0.60946 0.24604 0.71418 0.0
H2852 H 0.59332 0.18148 0.64725 0.0
H2853 H 0.59399 0.20556 0.66976 0.0
H2854 H 0.60994 0.2536 0.6395 0.0
C2855 C 0.61973 0.29246 0.69909 0.0
C2856 C 0.60956 0.24779 0.69788 0.0
C2857 C 0.61889 0.30681 0.71114 0.0
C2858 C 0.60032 0.19232 0.64263 0.0
C2859 C 0.60091 0.20609 0.65572 0.0
C2860 C 0.61014 0.25167 0.65576 0.0
C2861 C 0.60917 0.27892 0.70281 0.0
C2862 C 0.60968 0.26394 0.68954 0.0
C2863 C 0.60991 0.22046 0.65048 0.0
C2864 C 0.61004 0.23544 0.66402 0.0
H2865 H 0.58781 0.295 0.74296 0.0
H2866 H 0.58947 0.26981 0.72207 0.0
H2867 H 0.60992 0.27801 0.66148 0.0
H2868 H 0.62417 0.20769 0.60436 0.0
H2869 H 0.6258 0.23122 0.62744 0.0
C2870 C 0.88751 0.34758 0.96692 0.0
C2871 C 0.88082 0.36217 0.97567 0.0
C2872 C 0.90179 0.3482 0.95517 0.0
C2873 C 0.9384 0.37371 0.94329 0.0
H2874 H 0.93901 0.34645 0.89466 0.0
C2875 C -0.00876 0.37652 0.88359 0.0
C2876 C -0.00357 0.36124 0.87507 0.0
C2877 C -0.02271 0.37729 0.8962 0.0
C2878 C 0.93914 0.35401 0.90829 0.0
H2879 H 0.88431 0.38883 0.97938 0.0
H2880 H 0.90939 0.38993 0.95857 0.0
H2881 H 0.91455 0.34679 0.91606 0.0
H2882 H -0.00917 0.33481 0.87308 0.0
H2883 H 0.96693 0.33607 0.89538 0.0
H2884 H 0.96307 0.38089 0.93541 0.0
C2885 C 0.90348 0.37799 0.96094 0.0
C2886 C 0.92509 0.35421 0.92058 0.0
C2887 C 0.88907 0.37739 0.97276 0.0
C2888 C -0.01262 0.34676 0.87958 0.0
C2889 C -0.0265 0.34752 0.89216 0.0
C2890 C 0.95249 0.37353 0.93094 0.0
C2891 C 0.90983 0.36342 0.95176 0.0
C2892 C 0.9246 0.36392 0.93835 0.0
C2893 C 0.96819 0.3628 0.90051 0.0
C2894 C 0.95308 0.36353 0.91339 0.0
H2895 H 0.88161 0.33557 0.96883 0.0
H2896 H 0.90652 0.33667 0.94872 0.0
H2897 H 0.93847 0.3812 0.95698 0.0
H2898 H -0.00202 0.3879 0.88058 0.0
H2899 H -0.02652 0.38928 0.90226 0.0
C2900 C 0.83046 0.73158 0.11777 0.0
C2901 C 0.82738 0.74775 0.12529 0.0
C2902 C 0.8301 0.71774 0.13069 0.0
C2903 C 0.8137 0.70101 0.17771 0.0
H2904 H 0.85333 0.67349 0.17825 0.0
C2905 C 0.82048 0.64468 0.23285 0.0
C2906 C 0.83062 0.6312 0.22699 0.0
C2907 C 0.81983 0.6593 0.22115 0.0
C2908 C 0.84196 0.6807 0.17808 0.0
H2909 H 0.82092 0.76192 0.15223 0.0
H2910 H 0.82006 0.73755 0.17479 0.0
H2911 H 0.85187 0.69769 0.15617 0.0
H2912 H 0.84753 0.62219 0.20393 0.0
H2913 H 0.84562 0.64694 0.18292 0.0
H2914 H 0.80335 0.68369 0.19878 0.0
C2915 C 0.82285 0.73572 0.15886 0.0
C2916 C 0.84124 0.69473 0.1655 0.0
C2917 C 0.82344 0.74965 0.14598 0.0
C2918 C 0.8398 0.63248 0.20901 0.0
C2919 C 0.83879 0.64685 0.19703 0.0
C2920 C 0.81422 0.68668 0.18996 0.0
C2921 C 0.82645 0.71967 0.15138 0.0
C2922 C 0.82711 0.705 0.16514 0.0
C2923 C 0.82897 0.66064 0.20299 0.0
C2924 C 0.82836 0.67622 0.19029 0.0
H2925 H 0.83372 0.72966 0.102 0.0
H2926 H 0.83284 0.70548 0.12453 0.0
H2927 H 0.80262 0.70872 0.17765 0.0
H2928 H 0.81331 0.64406 0.24672 0.0
H2929 H 0.81233 0.6696 0.22662 0.0
C2930 C 0.54652 0.57204 0.47549 0.0
C2931 C 0.55647 0.5864 0.47503 0.0
C2932 C 0.53213 0.57113 0.46374 0.0
C2933 C 0.5127 0.59004 0.41841 0.0
H2934 H 0.4722 0.57092 0.43942 0.0
C2935 C 0.45056 0.59979 0.37822 0.0
C2936 C 0.43992 0.58607 0.37633 0.0
C2937 C 0.46458 0.59884 0.39052 0.0
C2938 C 0.48347 0.57612 0.43327 0.0
H2939 H 0.55885 0.6112 0.4621 0.0
H2940 H 0.53373 0.6097 0.44188 0.0
H2941 H 0.49706 0.57121 0.4606 0.0
H2942 H 0.43554 0.56065 0.38631 0.0
H2943 H 0.46023 0.55896 0.40778 0.0
H2944 H 0.49916 0.5951 0.39121 0.0
C2945 C 0.53719 0.599 0.45106 0.0
C2946 C 0.49771 0.57629 0.44539 0.0
C2947 C 0.55156 0.59992 0.46278 0.0
C2948 C 0.44354 0.57141 0.38733 0.0
C2949 C 0.4576 0.57048 0.39974 0.0
C2950 C 0.49851 0.58991 0.40636 0.0
C2951 C 0.52739 0.58455 0.45124 0.0
C2952 C 0.51242 0.58351 0.43819 0.0
C2953 C 0.46837 0.58415 0.40127 0.0
C2954 C 0.48366 0.5832 0.41375 0.0
H2955 H 0.5499 0.56137 0.48475 0.0
H2956 H 0.52494 0.55977 0.46412 0.0
H2957 H 0.52393 0.59529 0.41218 0.0
H2958 H 0.4483 0.61118 0.36976 0.0
H2959 H 0.47249 0.60967 0.3916 0.0
C2960 C 0.32264 0.20982 0.11805 0.0
C2961 C 0.32642 0.19373 0.12536 0.0
C2962 C 0.32235 0.22357 0.13113 0.0
C2963 C 0.33701 0.23736 0.18211 0.0
H2964 H 0.3073 0.27456 0.17159 0.0
C2965 C 0.34397 0.3003 0.22407 0.0
C2966 C 0.32977 0.31003 0.22784 0.0
C2967 C 0.34301 0.2858 0.21228 0.0
C2968 C 0.31555 0.26423 0.17502 0.0
H2969 H 0.33241 0.17949 0.15237 0.0
H2970 H 0.33154 0.20336 0.1753 0.0
H2971 H 0.30591 0.24981 0.15048 0.0
H2972 H 0.30334 0.31195 0.22262 0.0
H2973 H 0.3015 0.28635 0.20286 0.0
H2974 H 0.34613 0.25144 0.20722 0.0
C2975 C 0.32922 0.20548 0.15932 0.0
C2976 C 0.31494 0.25006 0.16261 0.0
C2977 C 0.32967 0.19173 0.14618 0.0
C2978 C 0.31453 0.30477 0.2199 0.0
C2979 C 0.31352 0.29012 0.20838 0.0
C2980 C 0.33745 0.25141 0.19471 0.0
C2981 C 0.32568 0.22165 0.15197 0.0
C2982 C 0.32579 0.23647 0.16581 0.0
C2983 C 0.32778 0.28048 0.20421 0.0
C2984 C 0.32685 0.26516 0.19124 0.0
H2985 H 0.32034 0.21188 0.10204 0.0
H2986 H 0.3199 0.2358 0.12472 0.0
H2987 H 0.34573 0.22731 0.18499 0.0
H2988 H 0.35593 0.30411 0.22978 0.0
H2989 H 0.35435 0.279 0.20914 0.0
C2990 C 0.49137 0.56783 0.88399 0.0
C2991 C 0.49707 0.5832 0.87645 0.0
C2992 C 0.47706 0.56713 0.89603 0.0
C2993 C 0.43859 0.5906 0.90661 0.0
H2994 H 0.43696 0.5651 0.95655 0.0
C2995 C 0.38437 0.59881 0.96229 0.0
C2996 C 0.3787 0.58488 0.97316 0.0
C2997 C 0.39887 0.59783 0.95075 0.0
C2998 C 0.43707 0.5721 0.94249 0.0
H2999 H 0.492 0.60984 0.8755 0.0
H3000 H 0.46727 0.60862 0.89646 0.0
H3001 H 0.46202 0.56445 0.93578 0.0
H3002 H 0.38394 0.55893 0.98038 0.0
H3003 H 0.40896 0.55708 0.95979 0.0
H3004 H 0.4137 0.59806 0.91289 0.0
C3005 C 0.47381 0.59709 0.89309 0.0
C3006 C 0.45149 0.57174 0.93062 0.0
C3007 C 0.48812 0.59781 0.88125 0.0
C3008 C 0.38797 0.56994 0.97226 0.0
C3009 C 0.4024 0.56891 0.96051 0.0
C3010 C 0.42418 0.59083 0.91831 0.0
C3011 C 0.46803 0.58176 0.90055 0.0
C3012 C 0.45249 0.58121 0.91269 0.0
C3013 C 0.40803 0.58283 0.94949 0.0
C3014 C 0.42326 0.58181 0.93661 0.0
H3015 H 0.49801 0.55635 0.88065 0.0
H3016 H 0.47288 0.55511 0.90148 0.0
H3017 H 0.43883 0.59777 0.89266 0.0
H3018 H 0.37767 0.61057 0.96277 0.0
H3019 H 0.40294 0.60897 0.94294 0.0
C3020 C 0.11642 0.73472 0.62119 0.0
C3021 C 0.10796 0.74926 0.62747 0.0
C3022 C 0.11744 0.72073 0.63385 0.0
C3023 C 0.11194 0.70651 0.68713 0.0
H3024 H 0.10515 0.66338 0.66179 0.0
C3025 C 0.11789 0.64358 0.73052 0.0
C3026 C 0.10562 0.63163 0.72659 0.0
C3027 C 0.11878 0.6582 0.71894 0.0
C3028 C 0.10698 0.67534 0.66911 0.0
H3029 H 0.09451 0.76058 0.65248 0.0
H3030 H 0.0959 0.73604 0.67432 0.0
H3031 H 0.10589 0.68844 0.64088 0.0
H3032 H 0.08467 0.62567 0.70739 0.0
H3033 H 0.0863 0.65109 0.68711 0.0
H3034 H 0.11265 0.69332 0.71544 0.0
C3035 C 0.1019 0.73552 0.65964 0.0
C3036 C 0.10762 0.6897 0.6571 0.0
C3037 C 0.10092 0.74954 0.64699 0.0
C3038 C 0.09422 0.63465 0.71088 0.0
C3039 C 0.09525 0.64915 0.69914 0.0
C3040 C 0.11135 0.6921 0.69915 0.0
C3041 C 0.10996 0.72084 0.65311 0.0
C3042 C 0.10999 0.7055 0.66595 0.0
C3043 C 0.10755 0.66108 0.703 0.0
C3044 C 0.10871 0.67637 0.69028 0.0
H3045 H 0.12187 0.73393 0.60621 0.0
H3046 H 0.12397 0.70975 0.62843 0.0
H3047 H 0.11396 0.71844 0.69444 0.0
H3048 H 0.12681 0.64167 0.74259 0.0
H3049 H 0.12845 0.6671 0.72221 0.0
C3050 C 0.94288 0.37321 0.38886 0.0
C3051 C 0.94126 0.36018 0.37469 0.0
C3052 C 0.95673 0.37392 0.4017 0.0
C3053 C -0.00905 0.34688 0.4214 0.0
H3054 H 0.01152 0.38881 0.43592 0.0
C3055 C 0.05576 0.34853 0.45681 0.0
C3056 C 0.05874 0.3598 0.47271 0.0
C3057 C 0.04106 0.34937 0.44568 0.0
C3058 C 0.00581 0.377 0.43217 0.0
H3059 H 0.9533 0.3382 0.36223 0.0
H3060 H -0.02259 0.33958 0.38408 0.0
H3061 H -0.01346 0.38893 0.41497 0.0
H3062 H 0.04861 0.38102 0.48916 0.0
H3063 H 0.02281 0.38235 0.46979 0.0
H3064 H 0.01026 0.33493 0.43829 0.0
C3065 C 0.96779 0.34894 0.38595 0.0
C3066 C -0.00854 0.37706 0.42017 0.0
C3067 C 0.95394 0.34815 0.37333 0.0
C3068 C 0.04671 0.3721 0.47704 0.0
C3069 C 0.03195 0.37294 0.46586 0.0
C3070 C 0.00528 0.34682 0.43323 0.0
C3071 C -0.03068 0.36169 0.40052 0.0
C3072 C -0.01601 0.36196 0.41434 0.0
C3073 C 0.0289 0.36148 0.45015 0.0
C3074 C 0.01307 0.36184 0.43852 0.0
H3075 H 0.93331 0.38267 0.39028 0.0
H3076 H 0.95739 0.38387 0.41279 0.0
H3077 H -0.01467 0.335 0.41779 0.0
H3078 H 0.06478 0.33899 0.4529 0.0
H3079 H 0.03929 0.34055 0.43342 0.0
C3080 C 0.32377 0.7349 0.44396 0.0
C3081 C 0.32778 0.75091 0.43674 0.0
C3082 C 0.32336 0.7212 0.43083 0.0
C3083 C 0.33883 0.70674 0.38076 0.0
H3084 H 0.30676 0.67158 0.38891 0.0
C3085 C 0.34453 0.64245 0.34129 0.0
C3086 C 0.32994 0.63452 0.33494 0.0
C3087 C 0.34382 0.65715 0.35274 0.0
C3088 C 0.3157 0.68135 0.38624 0.0
H3089 H 0.33413 0.76504 0.4098 0.0
H3090 H 0.33329 0.74117 0.38684 0.0
H3091 H 0.30576 0.69638 0.4102 0.0
H3092 H 0.30309 0.6361 0.33553 0.0
H3093 H 0.30188 0.66176 0.35521 0.0
H3094 H 0.34852 0.69185 0.35649 0.0
C3095 C 0.33075 0.73915 0.40278 0.0
C3096 C 0.31527 0.69551 0.39867 0.0
C3097 C 0.33121 0.75286 0.41595 0.0
C3098 C 0.31461 0.64181 0.34013 0.0
C3099 C 0.3139 0.6565 0.35159 0.0
C3100 C 0.33921 0.69261 0.36827 0.0
C3101 C 0.32691 0.7231 0.41006 0.0
C3102 C 0.32692 0.70834 0.39622 0.0
C3103 C 0.32849 0.66431 0.35815 0.0
C3104 C 0.32774 0.67966 0.37095 0.0
H3105 H 0.32135 0.73285 0.45993 0.0
H3106 H 0.32066 0.70902 0.4371 0.0
H3107 H 0.34812 0.71625 0.37853 0.0
H3108 H 0.35657 0.63725 0.33759 0.0
H3109 H 0.35531 0.66269 0.35772 0.0
C3110 C 0.04951 0.56724 0.08953 0.0
C3111 C 0.05543 0.58256 0.08212 0.0
C3112 C 0.03492 0.56662 0.10098 0.0
C3113 C -0.00306 0.59109 0.11321 0.0
H3114 H -0.00424 0.56315 0.16121 0.0
C3115 C 0.94589 0.59805 0.17408 0.0
C3116 C 0.94018 0.58359 0.18386 0.0
C3117 C 0.95933 0.59726 0.16072 0.0
C3118 C -0.00424 0.57085 0.1477 0.0
H3119 H 0.05043 0.60926 0.08093 0.0
H3120 H 0.02526 0.60815 0.10089 0.0
H3121 H 0.02021 0.56279 0.13958 0.0
H3122 H 0.94381 0.55678 0.1865 0.0
H3123 H 0.96716 0.55541 0.16319 0.0
H3124 H -0.02743 0.59923 0.12136 0.0
C3125 C 0.03172 0.59656 0.09763 0.0
C3126 C 0.00981 0.57064 0.13528 0.0
C3127 C 0.04626 0.59718 0.08622 0.0
C3128 C 0.94804 0.56824 0.17954 0.0
C3129 C 0.96147 0.56745 0.16618 0.0
C3130 C -0.0171 0.59129 0.1256 0.0
C3131 C 0.02589 0.5813 0.10527 0.0
C3132 C 0.01064 0.58087 0.11797 0.0
C3133 C 0.96741 0.58198 0.15673 0.0
C3134 C -0.01785 0.58127 0.14311 0.0
H3135 H 0.05625 0.55572 0.08677 0.0
H3136 H 0.0307 0.55463 0.10646 0.0
H3137 H -0.00297 0.59892 0.09981 0.0
H3138 H 0.94033 0.61012 0.17724 0.0
H3139 H 0.96368 0.60876 0.15397 0.0
C3140 C 0.09125 0.30246 0.83827 0.0
C3141 C 0.10573 0.31106 0.83309 0.0
C3142 C 0.09202 0.28816 0.85039 0.0
C3143 C 0.11986 0.25444 0.86807 0.0
H3144 H 0.08683 0.24991 0.91034 0.0
C3145 C 0.12069 0.20083 0.92786 0.0
C3146 C 0.10528 0.19416 0.93356 0.0
C3147 C 0.12153 0.21481 0.91512 0.0
C3148 C 0.09602 0.25084 0.89845 0.0
H3149 H 0.13245 0.31124 0.83625 0.0
H3150 H 0.1338 0.28609 0.85733 0.0
H3151 H 0.08697 0.27484 0.88929 0.0
H3152 H 0.07872 0.19689 0.92988 0.0
H3153 H 0.08021 0.22083 0.90731 0.0
H3154 H 0.12885 0.23033 0.87726 0.0
C3155 C 0.12185 0.29044 0.852 0.0
C3156 C 0.09612 0.26518 0.8864 0.0
C3157 C 0.12106 0.30489 0.84002 0.0
C3158 C 0.0908 0.20153 0.9257 0.0
C3159 C 0.09165 0.21545 0.91297 0.0
C3160 C 0.11974 0.24003 0.88015 0.0
C3161 C 0.1073 0.28203 0.85751 0.0
C3162 C 0.10788 0.26707 0.87088 0.0
C3163 C 0.107 0.22246 0.9078 0.0
C3164 C 0.10767 0.23797 0.89532 0.0
H3165 H 0.07923 0.30693 0.83329 0.0
H3166 H 0.0806 0.28187 0.85413 0.0
H3167 H 0.12904 0.25549 0.85618 0.0
H3168 H 0.13211 0.19535 0.93342 0.0
H3169 H 0.13356 0.21989 0.9115 0.0
C3170 C 0.49703 0.36641 0.66542 0.0
C3171 C 0.49553 0.36363 0.68645 0.0
C3172 C 0.48296 0.36699 0.65295 0.0
C3173 C 0.44081 0.3509 0.65012 0.0
H3174 H 0.43271 0.38575 0.61051 0.0
C3175 C 0.37913 0.35303 0.60627 0.0
C3176 C 0.37855 0.36029 0.58694 0.0
C3177 C 0.39343 0.35412 0.61815 0.0
C3178 C 0.43483 0.37569 0.62117 0.0
H3179 H 0.47791 0.35944 0.71074 0.0
H3180 H 0.4535 0.36048 0.68902 0.0
H3181 H 0.45771 0.38646 0.63118 0.0
H3182 H 0.39249 0.37415 0.56462 0.0
H3183 H 0.41786 0.37503 0.58457 0.0
H3184 H 0.41863 0.33953 0.63975 0.0
C3185 C 0.46557 0.3622 0.68222 0.0
C3186 C 0.44917 0.37621 0.63314 0.0
C3187 C 0.47958 0.36178 0.69469 0.0
C3188 C 0.3926 0.36853 0.57957 0.0
C3189 C 0.40713 0.36914 0.59118 0.0
C3190 C 0.42671 0.35013 0.63787 0.0
C3191 C 0.4671 0.3646 0.66119 0.0
C3192 C 0.4522 0.36393 0.64793 0.0
C3193 C 0.4078 0.36199 0.61074 0.0
C3194 C 0.4233 0.36263 0.62334 0.0
H3195 H 0.50909 0.36803 0.65857 0.0
H3196 H 0.48452 0.36881 0.63678 0.0
H3197 H 0.44294 0.34108 0.66115 0.0
H3198 H 0.36837 0.34683 0.61243 0.0
H3199 H 0.39302 0.3489 0.63328 0.0
C3200 C 0.09414 0.03724 0.2658 0.0
C3201 C 0.10219 0.04596 0.28125 0.0
C3202 C 0.09719 0.02029 0.26319 0.0
C3203 C 0.12103 -0.01671 0.27792 0.0
H3204 H 0.07726 0.96397 0.28295 0.0
C3205 C 0.11061 0.91247 0.28886 0.0
C3206 C 0.09832 0.90558 0.27634 0.0
C3207 C 0.11217 0.92976 0.29056 0.0
C3208 C 0.08955 0.96914 0.28137 0.0
H3209 H 0.12076 0.04465 0.3049 0.0
H3210 H 0.12594 0.01462 0.30057 0.0
H3211 H 0.08015 -0.00593 0.28079 0.0
H3212 H 0.07769 0.91141 0.25635 0.0
H3213 H 0.08052 0.94142 0.25917 0.0
H3214 H 0.13037 0.95817 0.27819 0.0
C3215 C 0.11752 0.02095 0.29028 0.0
C3216 C 0.09121 -0.01365 0.28008 0.0
C3217 C 0.11462 0.03807 0.2927 0.0
C3218 C 0.08725 0.91629 0.2662 0.0
C3219 C 0.08885 0.93352 0.26785 0.0
C3220 C 0.11936 0.96594 0.27904 0.0
C3221 C 0.10804 0.01182 0.27633 0.0
C3222 C 0.1069 -0.00645 0.27795 0.0
C3223 C 0.10146 0.94043 0.27981 0.0
C3224 C 0.10356 0.95873 0.28045 0.0
H3225 H 0.08455 0.04323 0.25683 0.0
H3226 H 0.08997 0.0135 0.25209 0.0
H3227 H 0.13325 -0.01134 0.2765 0.0
H3228 H 0.11933 0.90454 0.2969 0.0
H3229 H 0.12185 0.93478 0.30011 0.0
C3230 C 0.15312 0.8674 0.54407 0.0
C3231 C 0.14588 0.85383 0.53404 0.0
C3232 C 0.17006 0.87027 0.542 0.0
C3233 C 0.20614 0.84452 0.53485 0.0
H3234 H 0.23105 0.88529 0.52764 0.0
C3235 C 0.275 0.84308 0.51783 0.0
C3236 C 0.28526 0.85564 0.52558 0.0
C3237 C 0.25796 0.84398 0.52049 0.0
C3238 C 0.22422 0.87387 0.53004 0.0
H3239 H 0.14962 0.83385 0.51244 0.0
H3240 H 0.17913 0.83916 0.50826 0.0
H3241 H 0.20071 0.8863 0.52682 0.0
H3242 H 0.28577 0.87868 0.54293 0.0
H3243 H 0.25581 0.88001 0.54801 0.0
H3244 H 0.22931 0.83203 0.53837 0.0
C3245 C 0.17196 0.84725 0.51814 0.0
C3246 C 0.20693 0.87445 0.5294 0.0
C3247 C 0.15517 0.84423 0.52045 0.0
C3248 C 0.27816 0.86882 0.53675 0.0
C3249 C 0.26102 0.86967 0.53951 0.0
C3250 C 0.22329 0.84396 0.53569 0.0
C3251 C 0.17968 0.85965 0.52976 0.0
C3252 C 0.19783 0.85968 0.53126 0.0
C3253 C 0.25076 0.85736 0.53116 0.0
C3254 C 0.23254 0.85853 0.53278 0.0
H3255 H 0.14605 0.87485 0.55476 0.0
H3256 H 0.17579 0.87989 0.55112 0.0
H3257 H 0.19933 0.83303 0.53696 0.0
H3258 H 0.28003 0.83275 0.50913 0.0
H3259 H 0.2504 0.83442 0.51356 0.0
C3260 C 0.32563 0.91146 0.77442 0.0
C3261 C 0.33615 0.90449 0.7892 0.0
C3262 C 0.32386 0.92878 0.77283 0.0
C3263 C 0.34509 0.96754 0.78656 0.0
H3264 H 0.30197 -0.01132 0.78058 0.0
C3265 C 0.3408 0.03658 0.79559 0.0
C3266 C 0.33418 0.04476 0.77869 0.0
C3267 C 0.33722 0.01987 0.79898 0.0
C3268 C 0.31404 -0.01713 0.78224 0.0
H3269 H 0.35292 0.91013 0.81401 0.0
H3270 H 0.34967 0.94012 0.81139 0.0
H3271 H 0.30426 0.95807 0.78066 0.0
H3272 H 0.31765 0.04283 0.75295 0.0
H3273 H 0.31177 0.01318 0.75845 0.0
H3274 H 0.35497 -0.00793 0.78813 0.0
C3275 C 0.34306 0.9323 0.80074 0.0
C3276 C 0.31538 0.96544 0.78215 0.0
C3277 C 0.34492 0.91509 0.80223 0.0
C3278 C 0.3227 0.03664 0.76622 0.0
C3279 C 0.31937 0.01973 0.76936 0.0
C3280 C 0.34375 -0.01518 0.78676 0.0
C3281 C 0.33254 0.93933 0.78603 0.0
C3282 C 0.33092 0.95766 0.78462 0.0
C3283 C 0.32741 0.01104 0.78509 0.0
C3284 C 0.32822 -0.00735 0.78497 0.0
H3285 H 0.31868 0.90356 0.76421 0.0
H3286 H 0.31579 0.93392 0.76123 0.0
H3287 H 0.35727 0.96191 0.78794 0.0
H3288 H 0.34965 0.04277 0.80534 0.0
H3289 H 0.34325 0.01349 0.81148 0.0
C3290 C 0.15302 0.0771 1.01871 0.0
C3291 C 0.14589 0.09074 1.029 0.0
C3292 C 0.1699 0.07399 1.0204 0.0
C3293 C 0.20547 0.09961 1.02647 0.0
H3294 H 0.23136 0.05902 0.03304 0.0
C3295 C 0.2741 0.10151 0.0432 0.0
C3296 C 0.28467 0.08933 0.03486 0.0
C3297 C 0.2571 0.1004 0.04063 0.0
C3298 C 0.22423 0.07038 0.03082 0.0
H3299 H 0.14964 0.11032 0.05099 0.0
H3300 H 0.17928 0.10461 0.05452 0.0
H3301 H 0.20105 0.05779 0.03467 0.0
H3302 H 0.28578 0.06675 1.01665 0.0
H3303 H 0.25582 0.06504 1.01179 0.0
H3304 H 0.2283 0.11228 1.02244 0.0
C3305 C 0.17198 0.09674 0.04465 0.0
C3306 C 0.20699 0.06967 0.03192 0.0
C3307 C 0.15519 0.10005 0.04265 0.0
C3308 C 0.27792 0.07633 1.02325 0.0
C3309 C 0.26081 0.07525 1.02061 0.0
C3310 C 0.22256 0.10031 1.0252 0.0
C3311 C 0.17958 0.08439 0.03261 0.0
C3312 C 0.1976 0.08441 1.0304 0.0
C3313 C 0.25027 0.08719 1.02949 0.0
C3314 C 0.23214 0.08581 1.02795 0.0
H3315 H 0.14584 0.06974 1.00811 0.0
H3316 H 0.17554 0.06442 1.01099 0.0
H3317 H 0.19838 0.11105 1.02455 0.0
H3318 H 0.27888 0.11169 0.05225 0.0
H3319 H 0.24928 0.10965 0.04795 0.0
C3320 C 0.82531 0.03346 0.77089 0.0
C3321 C 0.83932 0.04246 0.77681 0.0
C3322 C 0.82597 0.01613 0.77007 0.0
C3323 C 0.853 -0.02091 0.77292 0.0
H3324 H 0.81624 0.96122 0.80383 0.0
C3325 C 0.84978 0.9097 0.79009 0.0
C3326 C 0.83489 0.90272 0.78323 0.0
C3327 C 0.85089 0.92686 0.79317 0.0
C3328 C 0.82658 0.96606 0.79523 0.0
H3329 H 0.86544 0.04079 0.78429 0.0
H3330 H 0.86652 0.01042 0.78316 0.0
H3331 H 0.81735 -0.00895 0.79684 0.0
H3332 H 0.80905 0.9079 0.77628 0.0
H3333 H 0.81112 0.93773 0.78124 0.0
H3334 H 0.86206 0.95403 0.771 0.0
C3335 C 0.85507 0.01672 0.77909 0.0
C3336 C 0.82714 -0.01695 0.79104 0.0
C3337 C 0.85446 0.03409 0.77971 0.0
C3338 C 0.82077 0.91291 0.78135 0.0
C3339 C 0.8219 0.93003 0.78435 0.0
C3340 C 0.85242 0.96206 0.77708 0.0
C3341 C 0.8406 0.00764 0.77537 0.0
C3342 C 0.84019 -0.01036 0.77953 0.0
C3343 C 0.83714 0.9372 0.78942 0.0
C3344 C 0.83905 0.95539 0.78797 0.0
H3345 H 0.81357 0.03973 0.76823 0.0
H3346 H 0.81478 0.00933 0.76657 0.0
H3347 H 0.86321 -0.01607 0.7641 0.0
H3348 H 0.86081 0.90209 0.79203 0.0
H3349 H 0.8627 0.93213 0.79748 0.0
C3350 C 0.66136 0.10243 0.53837 0.0
C3351 C 0.65171 0.08908 0.53155 0.0
C3352 C 0.67852 0.10169 0.53675 0.0
C3353 C 0.7127 0.07113 0.53139 0.0
H3354 H 0.73829 0.11147 0.52435 0.0
C3355 C 0.78399 0.07724 0.51793 0.0
C3356 C 0.79122 0.09058 0.52839 0.0
C3357 C 0.76704 0.07427 0.51999 0.0
C3358 C 0.73126 0.10013 0.52649 0.0
H3359 H 0.65212 0.06495 0.51669 0.0
H3360 H 0.68218 0.06403 0.51279 0.0
H3361 H 0.70838 0.11283 0.52149 0.0
H3362 H 0.78737 0.11011 0.5506 0.0
H3363 H 0.75789 0.10472 0.55457 0.0
H3364 H 0.73595 0.05846 0.53581 0.0
C3365 C 0.67656 0.07478 0.52008 0.0
C3366 C 0.71414 0.10089 0.52487 0.0
C3367 C 0.65938 0.07537 0.52209 0.0
C3368 C 0.7819 0.0998 0.54238 0.0
C3369 C 0.7651 0.09677 0.54457 0.0
C3370 C 0.72994 0.07032 0.5327 0.0
C3371 C 0.68633 0.08774 0.52787 0.0
C3372 C 0.70462 0.08649 0.5277 0.0
C3373 C 0.7574 0.08465 0.53254 0.0
C3374 C 0.73927 0.08491 0.53069 0.0
H3375 H 0.65575 0.11299 0.54609 0.0
H3376 H 0.68564 0.11175 0.54329 0.0
H3377 H 0.70571 0.05982 0.53387 0.0
H3378 H 0.791 0.0702 0.5068 0.0
H3379 H 0.76128 0.0649 0.51053 0.0
C3380 C 0.59642 0.03764 0.29446 0.0
C3381 C 0.60256 0.0456 0.2772 0.0
C3382 C 0.59988 0.02083 0.29776 0.0
C3383 C 0.6223 -0.01676 0.27991 0.0
H3384 H 0.57957 0.96287 0.28959 0.0
C3385 C 0.61026 0.91191 0.27324 0.0
C3386 C 0.60041 0.90509 0.28869 0.0
C3387 C 0.61207 0.92922 0.27163 0.0
C3388 C 0.59163 0.96833 0.28711 0.0
H3389 H 0.61807 0.04309 0.25058 0.0
H3390 H 0.62369 0.01328 0.25591 0.0
H3391 H 0.5818 -0.00701 0.28925 0.0
H3392 H 0.58503 0.91098 0.31481 0.0
H3393 H 0.58836 0.9409 0.31216 0.0
H3394 H 0.63202 0.95829 0.27772 0.0
C3395 C 0.61659 0.02007 0.26718 0.0
C3396 C 0.59294 -0.0144 0.287 0.0
C3397 C 0.61339 0.03708 0.26413 0.0
C3398 C 0.59244 0.91583 0.30246 0.0
C3399 C 0.59436 0.93301 0.30097 0.0
C3400 C 0.621 0.96581 0.28011 0.0
C3401 C 0.60907 0.01165 0.28343 0.0
C3402 C 0.60829 -0.00676 0.28371 0.0
C3403 C 0.60412 0.9399 0.28551 0.0
C3404 C 0.60566 0.95824 0.28398 0.0
H3405 H 0.58806 0.04413 0.30467 0.0
H3406 H 0.59429 0.01469 0.31068 0.0
H3407 H 0.63423 -0.01113 0.27714 0.0
H3408 H 0.61661 0.9039 0.26248 0.0
H3409 H 0.61955 0.93424 0.25946 0.0
C3410 C 0.66122 0.842 1.0214 0.0
C3411 C 0.65138 0.85534 1.02826 0.0
C3412 C 0.67835 0.84262 1.02331 0.0
C3413 C 0.7124 0.87272 1.02978 0.0
H3414 H 0.73785 0.832 0.03752 0.0
C3415 C 0.78355 0.8663 0.04455 0.0
C3416 C 0.79104 0.85263 0.03481 0.0
C3417 C 0.76659 0.86923 0.04214 0.0
C3418 C 0.73088 0.84345 0.03516 0.0
H3419 H 0.65147 0.87936 0.0434 0.0
H3420 H 0.6815 0.88007 0.04773 0.0
H3421 H 0.70791 0.83106 0.03943 0.0
H3422 H 0.78764 0.83246 1.01343 0.0
H3423 H 0.75813 0.83784 1.00872 0.0
H3424 H 0.73573 0.88507 1.02605 0.0
C3425 C 0.67603 0.86942 0.04023 0.0
C3426 C 0.71374 0.84292 0.03625 0.0
C3427 C 0.65886 0.86894 0.03797 0.0
C3428 C 0.78194 0.84295 1.0212 0.0
C3429 C 0.76514 0.846 1.01857 0.0
C3430 C 0.72968 0.87328 1.02896 0.0
C3431 C 0.68598 0.85644 0.0325 0.0
C3432 C 0.70426 0.85746 0.03318 0.0
C3433 C 0.75717 0.85853 1.02989 0.0
C3434 C 0.73899 0.85855 0.03121 0.0
H3435 H 0.65576 0.83152 1.0135 0.0
H3436 H 0.68563 0.83256 1.0168 0.0
H3437 H 0.70545 0.88413 1.02717 0.0
H3438 H 0.79044 0.87379 0.05527 0.0
H3439 H 0.76066 0.87895 0.05104 0.0
C3440 C 0.60745 0.53581 0.76855 0.0
C3441 C 0.60204 0.54157 0.78752 0.0
C3442 C 0.61004 0.5188 0.76544 0.0
C3443 C 0.6187 0.4793 0.78964 0.0
H3444 H 0.58744 0.46029 0.75159 0.0
C3445 C 0.60282 0.40952 0.78941 0.0
C3446 C 0.59877 0.40219 0.77081 0.0
C3447 C 0.60541 0.42669 0.79053 0.0
C3448 C 0.59657 0.46534 0.7619 0.0
H3449 H 0.59591 0.53455 0.81842 0.0
H3450 H 0.6006 0.50471 0.81294 0.0
H3451 H 0.58954 0.49039 0.75459 0.0
H3452 H 0.59509 0.40646 0.73863 0.0
H3453 H 0.6004 0.43617 0.74031 0.0
H3454 H 0.6259 0.45426 0.79688 0.0
C3455 C 0.60268 0.51333 0.80053 0.0
C3456 C 0.5977 0.48256 0.76361 0.0
C3457 C 0.59974 0.53027 0.80352 0.0
C3458 C 0.59773 0.41201 0.75326 0.0
C3459 C 0.60079 0.42901 0.75425 0.0
C3460 C 0.61786 0.462 0.78762 0.0
C3461 C 0.60765 0.50753 0.78143 0.0
C3462 C 0.60849 0.48958 0.77775 0.0
C3463 C 0.60444 0.43659 0.77292 0.0
C3464 C 0.6065 0.45486 0.77403 0.0
H3465 H 0.60944 0.54442 0.75611 0.0
H3466 H 0.61378 0.51439 0.75057 0.0
H3467 H 0.6271 0.48464 0.80065 0.0
H3468 H 0.60381 0.40201 0.80305 0.0
H3469 H 0.60793 0.43219 0.80521 0.0
C3470 C 0.77954 0.3673 1.01736 0.0
C3471 C 0.78809 0.35444 1.02728 0.0
C3472 C 0.76265 0.36912 1.02008 0.0
C3473 C 0.72827 0.34296 1.02732 0.0
H3474 H 0.70293 0.38384 0.03473 0.0
C3475 C 0.65918 0.34187 0.03936 0.0
C3476 C 0.64942 0.3551 0.03213 0.0
C3477 C 0.67624 0.34254 0.03765 0.0
C3478 C 0.7099 0.37241 0.0323 0.0
H3479 H 0.78655 0.33364 0.04813 0.0
H3480 H 0.7565 0.33682 0.05309 0.0
H3481 H 0.73311 0.38445 0.03759 0.0
H3482 H 0.64943 0.37904 1.01677 0.0
H3483 H 0.6795 0.37982 1.01272 0.0
H3484 H 0.70546 0.33097 1.02112 0.0
C3485 C 0.76293 0.34547 0.04326 0.0
C3486 C 0.72704 0.37273 0.03425 0.0
C3487 C 0.7799 0.34356 0.04038 0.0
C3488 C 0.65684 0.36868 1.02233 0.0
C3489 C 0.67396 0.36919 1.02022 0.0
C3490 C 0.71128 0.34269 1.02504 0.0
C3491 C 0.75423 0.35802 0.03271 0.0
C3492 C 0.73622 0.3579 0.03214 0.0
C3493 C 0.68379 0.35627 1.02825 0.0
C3494 C 0.7019 0.35728 1.028 0.0
H3495 H 0.78586 0.37561 1.00698 0.0
H3496 H 0.75607 0.37861 1.01148 0.0
H3497 H 0.73526 0.33154 1.02487 0.0
H3498 H 0.65372 0.33148 0.04745 0.0
H3499 H 0.68352 0.33262 0.04449 0.0
C3500 C 0.82067 0.53607 0.26678 0.0
C3501 C 0.83533 0.54123 0.27623 0.0
C3502 C 0.81539 0.51955 0.26881 0.0
C3503 C 0.82006 0.48136 0.29911 0.0
H3504 H 0.82098 0.45744 0.24793 0.0
C3505 C 0.82089 0.40941 0.2952 0.0
C3506 C 0.83526 0.4038 0.28531 0.0
C3507 C 0.81568 0.42601 0.29309 0.0
C3508 C 0.82036 0.464 0.2623 0.0
H3509 H 0.85559 0.53379 0.29579 0.0
H3510 H 0.84608 0.50511 0.29996 0.0
H3511 H 0.82079 0.48802 0.24799 0.0
H3512 H 0.85521 0.41064 0.26512 0.0
H3513 H 0.84593 0.43954 0.26103 0.0
H3514 H 0.82055 0.45736 0.31344 0.0
C3515 C 0.83869 0.51371 0.29097 0.0
C3516 C 0.82015 0.48144 0.26233 0.0
C3517 C 0.84417 0.53003 0.28853 0.0
C3518 C 0.84398 0.41472 0.2727 0.0
C3519 C 0.83863 0.43118 0.27029 0.0
C3520 C 0.82002 0.46393 0.29907 0.0
C3521 C 0.82451 0.5082 0.28072 0.0
C3522 C 0.82065 0.49023 0.28075 0.0
C3523 C 0.82465 0.43707 0.28081 0.0
C3524 C 0.82083 0.45513 0.28067 0.0
H3525 H 0.81388 0.54447 0.25691 0.0
H3526 H 0.80449 0.51549 0.26064 0.0
H3527 H 0.82049 0.48792 0.31348 0.0
H3528 H 0.81427 0.40128 0.30546 0.0
H3529 H 0.80496 0.43035 0.30149 0.0
C3530 C 0.65909 0.57455 0.52973 0.0
C3531 C 0.64883 0.58855 0.53285 0.0
C3532 C 0.676 0.57562 0.53304 0.0
C3533 C 0.70826 0.60647 0.53036 0.0
H3534 H 0.73576 0.56946 0.54839 0.0
C3535 C 0.77966 0.6074 0.53367 0.0
C3536 C 0.78787 0.59224 0.52965 0.0
C3537 C 0.76245 0.60809 0.5337 0.0
C3538 C 0.72821 0.57981 0.54309 0.0
H3539 H 0.64797 0.61418 0.54361 0.0
H3540 H 0.67773 0.61593 0.54967 0.0
H3541 H 0.70598 0.56844 0.55363 0.0
H3542 H 0.78487 0.56649 0.52031 0.0
H3543 H 0.75472 0.56788 0.51953 0.0
H3544 H 0.7305 0.6177 0.5195 0.0
C3545 C 0.67262 0.60429 0.54423 0.0
C3546 C 0.71122 0.57929 0.54628 0.0
C3547 C 0.65562 0.60326 0.54082 0.0
C3548 C 0.77875 0.57825 0.52369 0.0
C3549 C 0.76155 0.57901 0.52344 0.0
C3550 C 0.72528 0.607 0.52717 0.0
C3551 C 0.68297 0.59064 0.5397 0.0
C3552 C 0.70107 0.59244 0.53954 0.0
C3553 C 0.75329 0.59369 0.52945 0.0
C3554 C 0.73533 0.59349 0.5331 0.0
H3555 H 0.65425 0.563 0.52364 0.0
H3556 H 0.68371 0.56496 0.52917 0.0
H3557 H 0.70066 0.61668 0.52476 0.0
H3558 H 0.78644 0.61835 0.53845 0.0
H3559 H 0.75637 0.61956 0.53841 0.0
C3560 C 0.32319 0.5374 0.29705 0.0
C3561 C 0.33336 0.54601 0.28342 0.0
C3562 C 0.32014 0.52041 0.29405 0.0
C3563 C 0.34365 0.48616 0.27288 0.0
H3564 H 0.30541 0.45868 0.28402 0.0
C3565 C 0.34494 0.41614 0.25808 0.0
C3566 C 0.33714 0.40554 0.27202 0.0
C3567 C 0.34301 0.43336 0.25959 0.0
C3568 C 0.31621 0.46624 0.2811 0.0
H3569 H 0.34677 0.54474 0.25511 0.0
H3570 H 0.34078 0.51532 0.24923 0.0
H3571 H 0.30262 0.48922 0.28464 0.0
H3572 H 0.32142 0.40459 0.29867 0.0
H3573 H 0.3185 0.43493 0.30172 0.0
H3574 H 0.35739 0.46351 0.2698 0.0
C3575 C 0.33559 0.52138 0.26251 0.0
C3576 C 0.31457 0.48365 0.28133 0.0
C3577 C 0.33892 0.53817 0.26574 0.0
C3578 C 0.32759 0.41251 0.28774 0.0
C3579 C 0.3258 0.42982 0.28937 0.0
C3580 C 0.3453 0.4689 0.27278 0.0
C3581 C 0.32714 0.51211 0.27729 0.0
C3582 C 0.32826 0.49372 0.27688 0.0
C3583 C 0.33342 0.44039 0.27522 0.0
C3584 C 0.33158 0.45874 0.2766 0.0
H3585 H 0.31899 0.54331 0.31092 0.0
H3586 H 0.31361 0.51353 0.30568 0.0
H3587 H 0.35455 0.49363 0.27011 0.0
H3588 H 0.35211 0.41115 0.24555 0.0
H3589 H 0.34877 0.44116 0.24821 0.0
C3590 C 0.27592 0.60295 1.02174 0.0
C3591 C 0.28564 0.58948 1.02847 0.0
C3592 C 0.25877 0.60241 1.02354 0.0
C3593 C 0.22456 0.57238 1.02953 0.0
H3594 H 0.1992 0.6131 0.03758 0.0
C3595 C 0.15344 0.57855 0.04416 0.0
C3596 C 0.14592 0.59227 0.03455 0.0
C3597 C 0.17043 0.57575 0.04184 0.0
C3598 C 0.20615 0.60165 0.03513 0.0
H3599 H 0.28536 0.56531 0.04324 0.0
H3600 H 0.25533 0.56475 0.04746 0.0
H3601 H 0.22914 0.61397 0.03949 0.0
H3602 H 0.14929 0.61268 1.01348 0.0
H3603 H 0.17884 0.60752 1.00891 0.0
H3604 H 0.20122 0.56009 1.02571 0.0
C3605 C 0.26088 0.57544 0.04012 0.0
C3606 C 0.2233 0.60214 0.03621 0.0
C3607 C 0.27805 0.57583 0.03793 0.0
C3608 C 0.15502 0.60215 1.02115 0.0
C3609 C 0.17185 0.59923 1.01861 0.0
C3610 C 0.20729 0.57186 1.02872 0.0
C3611 C 0.25103 0.58855 0.0325 0.0
C3612 C 0.23274 0.58759 0.03306 0.0
C3613 C 0.17984 0.58662 1.0298 0.0
C3614 C 0.19801 0.58658 0.03109 0.0
H3615 H 0.28148 0.61346 1.01401 0.0
H3616 H 0.25157 0.61258 1.01712 0.0
H3617 H 0.23148 0.56096 1.02683 0.0
H3618 H 0.14654 0.57091 0.05472 0.0
H3619 H 0.17638 0.56597 0.05063 0.0
C3620 C 0.09733 0.41641 0.80201 0.0
C3621 C 0.10032 0.40526 0.78599 0.0
C3622 C 0.10143 0.43319 0.80001 0.0
C3623 C 0.10762 0.46574 0.76232 0.0
H3624 H 0.12682 0.48944 0.80791 0.0
C3625 C 0.11477 0.53663 0.76151 0.0
C3626 C 0.10369 0.54318 0.77586 0.0
C3627 C 0.1198 0.51995 0.76282 0.0
C3628 C 0.12173 0.48287 0.79498 0.0
H3629 H 0.10959 0.40271 0.7553 0.0
H3630 H 0.11638 0.43228 0.75157 0.0
H3631 H 0.12416 0.459 0.80932 0.0
H3632 H 0.09006 0.53838 0.80344 0.0
H3633 H 0.09944 0.50936 0.8063 0.0
H3634 H 0.10464 0.48967 0.74832 0.0
C3635 C 0.11101 0.42801 0.76569 0.0
C3636 C 0.12006 0.46557 0.79583 0.0
C3637 C 0.1071 0.41116 0.76779 0.0
C3638 C 0.09872 0.53345 0.79236 0.0
C3639 C 0.10412 0.51697 0.794 0.0
C3640 C 0.10943 0.48301 0.76141 0.0
C3641 C 0.10843 0.43911 0.78189 0.0
C3642 C 0.11246 0.45695 0.7798 0.0
C3643 C 0.11412 0.50994 0.7788 0.0
C3644 C 0.11601 0.49171 0.77799 0.0
H3645 H 0.09237 0.41208 0.81634 0.0
H3646 H 0.09907 0.44155 0.81262 0.0
H3647 H 0.10157 0.45942 0.74985 0.0
H3648 H 0.11855 0.54395 0.74854 0.0
H3649 H 0.1274 0.51465 0.75086 0.0
C3650 C 0.15909 0.36904 0.53726 0.0
C3651 C 0.15199 0.35557 0.52688 0.0
C3652 C 0.1762 0.36981 0.53981 0.0
C3653 C 0.21458 0.34448 0.53505 0.0
H3654 H 0.2353 0.38739 0.52544 0.0
C3655 C 0.28214 0.34658 0.51757 0.0
C3656 C 0.29126 0.35541 0.53199 0.0
C3657 C 0.2653 0.34964 0.51544 0.0
C3658 C 0.22959 0.37539 0.5282 0.0
H3659 H 0.15697 0.3322 0.51137 0.0
H3660 H 0.18678 0.33375 0.51518 0.0
H3661 H 0.20508 0.38558 0.52703 0.0
H3662 H 0.2907 0.37519 0.5544 0.0
H3663 H 0.2609 0.38052 0.55079 0.0
H3664 H 0.23901 0.33422 0.53557 0.0
C3665 C 0.17923 0.3435 0.52194 0.0
C3666 C 0.21237 0.37434 0.5293 0.0
C3667 C 0.16214 0.34259 0.51972 0.0
C3668 C 0.28382 0.36847 0.54294 0.0
C3669 C 0.26683 0.37144 0.54095 0.0
C3670 C 0.23168 0.34551 0.53367 0.0
C3671 C 0.18647 0.35726 0.53171 0.0
C3672 C 0.20469 0.35879 0.53242 0.0
C3673 C 0.25738 0.36138 0.52797 0.0
C3674 C 0.23929 0.36089 0.52988 0.0
H3675 H 0.15144 0.37916 0.543 0.0
H3676 H 0.18139 0.3804 0.54776 0.0
H3677 H 0.20911 0.33241 0.53799 0.0
H3678 H 0.28779 0.33649 0.509 0.0
H3679 H 0.25822 0.34194 0.50512 0.0
C3680 C 0.08728 0.07903 0.0804 0.0
C3681 C 0.08778 0.09349 0.06829 0.0
C3682 C 0.08741 0.08018 0.10154 0.0
C3683 C 0.08025 0.10924 0.14446 0.0
H3684 H 0.10748 0.07723 0.17367 0.0
C3685 C 0.08049 0.10346 0.23254 0.0
C3686 C 0.09603 0.10094 0.24172 0.0
C3687 C 0.07887 0.10305 0.21135 0.0
C3688 C 0.09988 0.08633 0.16576 0.0
H3689 H 0.08856 0.1206 0.06918 0.0
H3690 H 0.08875 0.12256 0.10608 0.0
H3691 H 0.10603 0.07591 0.13686 0.0
H3692 H 0.12206 0.09594 0.23556 0.0
H3693 H 0.11922 0.09542 0.19905 0.0
H3694 H 0.07447 0.1199 0.17347 0.0
C3695 C 0.08807 0.11032 0.09915 0.0
C3696 C 0.09889 0.08545 0.14464 0.0
C3697 C 0.08796 0.10918 0.07795 0.0
C3698 C 0.1099 0.0982 0.22918 0.0
C3699 C 0.10826 0.09766 0.20814 0.0
C3700 C 0.08124 0.11012 0.16564 0.0
C3701 C 0.08803 0.09581 0.11119 0.0
C3702 C 0.08905 0.09687 0.13371 0.0
C3703 C 0.09273 0.09991 0.19895 0.0
C3704 C 0.09114 0.09872 0.17652 0.0
H3705 H 0.08727 0.06671 0.07361 0.0
H3706 H 0.08713 0.06875 0.11033 0.0
H3707 H 0.07245 0.11816 0.13653 0.0
H3708 H 0.06951 0.10539 0.24169 0.0
H3709 H 0.0667 0.10469 0.20472 0.0
C3710 C 0.09876 0.86282 0.48169 0.0
C3711 C 0.09009 0.85134 0.49368 0.0
C3712 C 0.09889 0.86146 0.46062 0.0
C3713 C 0.08669 0.83303 0.41746 0.0
H3714 H 0.09514 0.87334 0.38663 0.0
C3715 C 0.07931 0.84155 0.32918 0.0
C3716 C 0.09426 0.84611 0.31987 0.0
C3717 C 0.07799 0.84137 0.35041 0.0
C3718 C 0.0927 0.86201 0.39508 0.0
H3719 H 0.07509 0.82908 0.49301 0.0
H3720 H 0.07402 0.8274 0.45604 0.0
H3721 H 0.09371 0.87478 0.42327 0.0
H3722 H 0.11931 0.85463 0.32539 0.0
H3723 H 0.11675 0.85484 0.36227 0.0
H3724 H 0.08476 0.82068 0.38859 0.0
C3725 C 0.08125 0.83724 0.46282 0.0
C3726 C 0.09213 0.8627 0.41623 0.0
C3727 C 0.08163 0.83829 0.4841 0.0
C3728 C 0.10773 0.85072 0.33212 0.0
C3729 C 0.10626 0.85097 0.35321 0.0
C3730 C 0.08674 0.83249 0.3962 0.0
C3731 C 0.08983 0.8489 0.45068 0.0
C3732 C 0.08947 0.84815 0.4279 0.0
C3733 C 0.09142 0.84625 0.36254 0.0
C3734 C 0.09002 0.84693 0.3849 0.0
H3735 H 0.10595 0.87267 0.48864 0.0
H3736 H 0.1064 0.87023 0.45229 0.0
H3737 H 0.08486 0.82144 0.42557 0.0
H3738 H 0.06871 0.83811 0.32008 0.0
H3739 H 0.06638 0.83782 0.35735 0.0
C3740 C 0.35688 0.84924 0.73274 0.0
C3741 C 0.34222 0.84448 0.74262 0.0
C3742 C 0.35784 0.84924 0.71153 0.0
C3743 C 0.33633 0.8334 0.6652 0.0
H3744 H 0.36132 0.86831 0.63873 0.0
C3745 C 0.34413 0.83488 0.578 0.0
C3746 C 0.34457 0.85055 0.5684 0.0
C3747 C 0.34462 0.83367 0.59919 0.0
C3748 C 0.3541 0.85857 0.6458 0.0
H3749 H 0.31707 0.83597 0.73779 0.0
H3750 H 0.31863 0.83628 0.70107 0.0
H3751 H 0.36029 0.86725 0.67549 0.0
H3752 H 0.34548 0.87728 0.57364 0.0
H3753 H 0.34582 0.87525 0.61036 0.0
H3754 H 0.32938 0.82527 0.63556 0.0
C3755 C 0.32956 0.83964 0.7096 0.0
C3756 C 0.35376 0.85778 0.667 0.0
C3757 C 0.32864 0.83953 0.73076 0.0
C3758 C 0.34547 0.86498 0.58049 0.0
C3759 C 0.34571 0.86379 0.60164 0.0
C3760 C 0.33648 0.83433 0.64401 0.0
C3761 C 0.34414 0.84458 0.69965 0.0
C3762 C 0.34485 0.8452 0.67702 0.0
C3763 C 0.3453 0.84813 0.61134 0.0
C3764 C 0.34536 0.84694 0.63398 0.0
H3765 H 0.36756 0.85323 0.74136 0.0
H3766 H 0.36936 0.8529 0.70448 0.0
H3767 H 0.32953 0.82336 0.67229 0.0
H3768 H 0.34335 0.82351 0.56916 0.0
H3769 H 0.34453 0.82136 0.60598 0.0
C3770 C 0.35472 0.09335 0.82864 0.0
C3771 C 0.34109 0.10059 0.81855 0.0
C3772 C 0.35552 0.09329 0.84981 0.0
C3773 C 0.3406 0.11456 0.89527 0.0
H3774 H 0.34832 0.07214 0.92214 0.0
C3775 C 0.33427 0.10827 0.9821 0.0
C3776 C 0.34367 0.09607 0.99232 0.0
C3777 C 0.33435 0.10912 0.96093 0.0
C3778 C 0.34651 0.0842 0.91502 0.0
H3779 H 0.31783 0.11378 0.82278 0.0
H3780 H 0.31951 0.11416 0.85984 0.0
H3781 H 0.34832 0.07349 0.88529 0.0
H3782 H 0.36087 0.07545 0.98835 0.0
H3783 H 0.36188 0.07754 0.95159 0.0
H3784 H 0.33942 0.12552 0.92469 0.0
C3785 C 0.3295 0.10845 0.85128 0.0
C3786 C 0.34639 0.0849 0.89383 0.0
C3787 C 0.32855 0.10824 0.8301 0.0
C3788 C 0.3535 0.08501 0.98092 0.0
C3789 C 0.35388 0.08609 0.95975 0.0
C3790 C 0.34109 0.11395 0.91645 0.0
C3791 C 0.34285 0.10073 0.86133 0.0
C3792 C 0.34335 0.10007 0.88377 0.0
C3793 C 0.34413 0.09802 0.94938 0.0
C3794 C 0.34396 0.09874 0.9267 0.0
H3795 H 0.36446 0.08706 0.82023 0.0
H3796 H 0.36598 0.08732 0.8572 0.0
H3797 H 0.33836 0.12644 0.88785 0.0
H3798 H 0.32635 0.11683 0.9904 0.0
H3799 H 0.32635 0.11824 0.95371 0.0
C3800 C 0.856 0.84144 0.82897 0.0
C3801 C 0.84074 0.84575 0.82005 0.0
C3802 C 0.85779 0.84147 0.85021 0.0
C3803 C 0.8381 0.85945 0.89638 0.0
H3804 H 0.86291 0.8253 0.92522 0.0
C3805 C 0.85003 0.86502 0.98192 0.0
C3806 C 0.84871 0.85056 0.99396 0.0
C3807 C 0.85006 0.86397 0.96078 0.0
C3808 C 0.85583 0.83487 0.9174 0.0
H3809 H 0.81535 0.85324 0.82671 0.0
H3810 H 0.81845 0.85305 0.86303 0.0
H3811 H 0.86113 0.82427 0.88818 0.0
H3812 H 0.84661 0.82355 0.99286 0.0
H3813 H 0.84669 0.82176 0.95588 0.0
H3814 H 0.83228 0.86977 0.9254 0.0
C3815 C 0.82914 0.84989 0.85384 0.0
C3816 C 0.85501 0.8344 0.89615 0.0
C3817 C 0.82735 0.84983 0.83285 0.0
C3818 C 0.84786 0.83495 0.98417 0.0
C3819 C 0.8479 0.83392 0.96292 0.0
C3820 C 0.83887 0.85989 0.91753 0.0
C3821 C 0.84439 0.84591 0.86287 0.0
C3822 C 0.84606 0.84666 0.88538 0.0
C3823 C 0.84874 0.84846 0.95096 0.0
C3824 C 0.8478 0.84765 0.92836 0.0
H3825 H 0.8666 0.83837 0.8196 0.0
H3826 H 0.86975 0.83843 0.85669 0.0
H3827 H 0.83125 0.86923 0.88864 0.0
H3828 H 0.8506 0.8773 0.98877 0.0
H3829 H 0.85101 0.87543 0.95212 0.0
C3830 C 0.8562 0.10362 0.73212 0.0
C3831 C 0.84072 0.10085 0.74123 0.0
C3832 C 0.85779 0.10344 0.71092 0.0
C3833 C 0.83683 0.08701 0.66529 0.0
H3834 H 0.86375 0.11893 0.63613 0.0
C3835 C 0.84944 0.07972 0.58018 0.0
C3836 C 0.8485 0.09413 0.56799 0.0
C3837 C 0.84941 0.08095 0.60128 0.0
C3838 C 0.8561 0.11 0.64406 0.0
H3839 H 0.81472 0.09606 0.73499 0.0
H3840 H 0.81752 0.09593 0.69854 0.0
H3841 H 0.86186 0.12051 0.67311 0.0
H3842 H 0.84709 0.12123 0.56871 0.0
H3843 H 0.8471 0.12333 0.60562 0.0
H3844 H 0.83067 0.07675 0.63637 0.0
C3845 C 0.82848 0.09803 0.70764 0.0
C3846 C 0.85519 0.11078 0.66525 0.0
C3847 C 0.82688 0.09828 0.72866 0.0
C3848 C 0.84804 0.10986 0.57754 0.0
C3849 C 0.84803 0.11107 0.59873 0.0
C3850 C 0.83772 0.08624 0.64418 0.0
C3851 C 0.84395 0.10039 0.6985 0.0
C3852 C 0.84549 0.09933 0.67608 0.0
C3853 C 0.84844 0.0966 0.61083 0.0
C3854 C 0.84741 0.09768 0.6333 0.0
H3855 H 0.86714 0.10546 0.74132 0.0
H3856 H 0.86992 0.10518 0.70429 0.0
H3857 H 0.82938 0.07787 0.67317 0.0
H3858 H 0.84971 0.06736 0.57349 0.0
H3859 H 0.85 0.06955 0.61013 0.0
C3860 C 0.59316 0.07971 0.47855 0.0
C3861 C 0.59291 0.09378 0.4913 0.0
C3862 C 0.59263 0.08149 0.45751 0.0
C3863 C 0.60088 0.11173 0.41642 0.0
H3864 H 0.57694 0.07947 0.38403 0.0
C3865 C 0.60977 0.10596 0.32966 0.0
C3866 C 0.59596 0.10197 0.31764 0.0
C3867 C 0.60864 0.106 0.35083 0.0
C3868 C 0.58353 0.08873 0.3928 0.0
H3869 H 0.59192 0.12084 0.49188 0.0
H3870 H 0.59074 0.124 0.45494 0.0
H3871 H 0.57571 0.07791 0.42083 0.0
H3872 H 0.57002 0.09506 0.31868 0.0
H3873 H 0.56799 0.09552 0.3555 0.0
H3874 H 0.60843 0.12273 0.38834 0.0
C3875 C 0.59144 0.11154 0.46131 0.0
C3876 C 0.583 0.0877 0.41396 0.0
C3877 C 0.59191 0.10974 0.48248 0.0
C3878 C 0.58088 0.09842 0.32737 0.0
C3879 C 0.57976 0.09844 0.34855 0.0
C3880 C 0.60134 0.11281 0.39523 0.0
C3881 C 0.59185 0.09741 0.44857 0.0
C3882 C 0.59177 0.0991 0.42605 0.0
C3883 C 0.59368 0.10205 0.36057 0.0
C3884 C 0.59275 0.10126 0.38314 0.0
H3885 H 0.59401 0.06722 0.48481 0.0
H3886 H 0.59327 0.07034 0.44825 0.0
H3887 H 0.60794 0.1206 0.42521 0.0
H3888 H 0.62163 0.1086 0.32277 0.0
H3889 H 0.61968 0.1086 0.35956 0.0
C3890 C 0.59087 0.83561 0.07773 0.0
C3891 C 0.59244 0.85144 0.06875 0.0
C3892 C 0.59012 0.83399 0.09892 0.0
C3893 C 0.58211 0.85878 0.14589 0.0
H3894 H 0.60536 0.82235 0.17241 0.0
C3895 C 0.57928 0.84987 0.23286 0.0
C3896 C 0.59392 0.84478 0.24267 0.0
C3897 C 0.57817 0.84969 0.21166 0.0
C3898 C 0.59889 0.83269 0.16529 0.0
H3899 H 0.59433 0.87799 0.07502 0.0
H3900 H 0.59319 0.87517 0.11156 0.0
H3901 H 0.60539 0.82414 0.13554 0.0
H3902 H 0.61888 0.8354 0.23771 0.0
H3903 H 0.61705 0.83535 0.20099 0.0
H3904 H 0.57627 0.8678 0.17556 0.0
C3905 C 0.59227 0.86398 0.10242 0.0
C3906 C 0.59871 0.83357 0.14408 0.0
C3907 C 0.59304 0.86558 0.08137 0.0
C3908 C 0.60733 0.83926 0.23075 0.0
C3909 C 0.60625 0.83915 0.20959 0.0
C3910 C 0.58241 0.85798 0.16707 0.0
C3911 C 0.59084 0.84818 0.11153 0.0
C3912 C 0.5904 0.84669 0.13409 0.0
C3913 C 0.5917 0.84447 0.19972 0.0
C3914 C 0.59087 0.84496 0.17709 0.0
H3915 H 0.59058 0.82445 0.06844 0.0
H3916 H 0.58893 0.82162 0.10539 0.0
H3917 H 0.57538 0.86895 0.13877 0.0
H3918 H 0.56873 0.8543 0.24152 0.0
H3919 H 0.56668 0.85367 0.20464 0.0
C3920 C 0.58139 0.59251 0.73348 0.0
C3921 C 0.59394 0.60131 0.74361 0.0
C3922 C 0.5807 0.5923 0.71229 0.0
C3923 C 0.59341 0.61495 0.66667 0.0
H3924 H 0.58978 0.57198 0.64011 0.0
C3925 C 0.59866 0.60906 0.57932 0.0
C3926 C 0.59089 0.59561 0.56966 0.0
C3927 C 0.59889 0.61013 0.60052 0.0
C3928 C 0.59041 0.58418 0.6471 0.0
H3929 H 0.61538 0.61708 0.73937 0.0
H3930 H 0.61391 0.61702 0.70234 0.0
H3931 H 0.58969 0.57344 0.67686 0.0
H3932 H 0.57693 0.573 0.57434 0.0
H3933 H 0.57595 0.57552 0.61102 0.0
H3934 H 0.59343 0.6259 0.63719 0.0
C3935 C 0.60466 0.61025 0.71086 0.0
C3936 C 0.59049 0.58495 0.66828 0.0
C3937 C 0.60549 0.61028 0.73206 0.0
C3938 C 0.58292 0.58355 0.58147 0.0
C3939 C 0.58266 0.58489 0.6026 0.0
C3940 C 0.59292 0.61425 0.64547 0.0
C3941 C 0.5924 0.60107 0.70076 0.0
C3942 C 0.59204 0.60034 0.67828 0.0
C3943 C 0.59093 0.59801 0.61256 0.0
C3944 C 0.59142 0.59884 0.63528 0.0
H3945 H 0.57239 0.58531 0.74188 0.0
H3946 H 0.57105 0.58521 0.70489 0.0
H3947 H 0.59452 0.627 0.67401 0.0
H3948 H 0.60527 0.6183 0.57052 0.0
H3949 H 0.60576 0.62021 0.60736 0.0
C3950 C 0.57876 0.34731 0.82773 0.0
C3951 C 0.59344 0.34231 0.81793 0.0
C3952 C 0.57776 0.34743 0.84893 0.0
C3953 C 0.59889 0.33128 0.89542 0.0
H3954 H 0.5747 0.3673 0.92149 0.0
C3955 C 0.5904 0.33447 0.98287 0.0
C3956 C 0.59157 0.35038 0.99175 0.0
C3957 C 0.58985 0.33275 0.96169 0.0
C3958 C 0.58163 0.3572 0.9145 0.0
H3959 H 0.6186 0.33351 0.82289 0.0
H3960 H 0.61695 0.33397 0.85963 0.0
H3961 H 0.57571 0.36594 0.88471 0.0
H3962 H 0.59301 0.37693 0.98529 0.0
H3963 H 0.59222 0.37394 0.94879 0.0
H3964 H 0.60545 0.32302 0.92526 0.0
C3965 C 0.60604 0.33745 0.85102 0.0
C3966 C 0.582 0.35629 0.89333 0.0
C3967 C 0.60701 0.33725 0.82986 0.0
C3968 C 0.59201 0.36447 0.97902 0.0
C3969 C 0.59144 0.36276 0.95799 0.0
C3970 C 0.59864 0.33229 0.91661 0.0
C3971 C 0.59145 0.34263 0.86087 0.0
C3972 C 0.59068 0.34334 0.88347 0.0
C3973 C 0.59037 0.3469 0.94899 0.0
C3974 C 0.59007 0.34532 0.92644 0.0
H3975 H 0.5681 0.35143 0.81906 0.0
H3976 H 0.56624 0.35131 0.85594 0.0
H3977 H 0.60553 0.321 0.88841 0.0
H3978 H 0.59028 0.32335 0.99224 0.0
H3979 H 0.58894 0.32033 0.95529 0.0
C3980 C 0.83775 0.36407 0.08006 0.0
C3981 C 0.84632 0.35223 0.0683 0.0
C3982 C 0.83734 0.36272 0.10112 0.0
C3983 C 0.84782 0.33336 0.14401 0.0
H3984 H 0.84041 0.37365 0.17547 0.0
C3985 C 0.85402 0.34015 0.23246 0.0
C3986 C 0.83934 0.346 0.24158 0.0
C3987 C 0.85557 0.33995 0.21127 0.0
C3988 C 0.84255 0.36232 0.16683 0.0
H3989 H 0.86097 0.32955 0.06922 0.0
H3990 H 0.86158 0.32787 0.10616 0.0
H3991 H 0.84247 0.37552 0.13886 0.0
H3992 H 0.81492 0.35644 0.23556 0.0
H3993 H 0.81787 0.35639 0.19883 0.0
H3994 H 0.84875 0.32049 0.1726 0.0
C3995 C 0.85458 0.33793 0.09924 0.0
C3996 C 0.8435 0.36329 0.14573 0.0
C3997 C 0.85448 0.33897 0.07801 0.0
C3998 C 0.82628 0.35154 0.22909 0.0
C3999 C 0.82799 0.35168 0.20805 0.0
C4000 C 0.84737 0.33251 0.16522 0.0
C4001 C 0.84597 0.34979 0.11117 0.0
C4002 C 0.84584 0.34878 0.13387 0.0
C4003 C 0.84265 0.34599 0.19898 0.0
C4004 C 0.84446 0.34694 0.17672 0.0
H4005 H 0.83083 0.37413 0.07293 0.0
H4006 H 0.82992 0.37174 0.10936 0.0
H4007 H 0.84932 0.32181 0.1357 0.0
H4008 H 0.86435 0.33597 0.24167 0.0
H4009 H 0.86703 0.33558 0.2045 0.0
C4010 C 0.85622 0.59223 0.3301 0.0
C4011 C 0.84283 0.60003 0.32016 0.0
C4012 C 0.85725 0.59236 0.35126 0.0
C4013 C 0.84437 0.61455 0.3968 0.0
H4014 H 0.84829 0.57155 0.4234 0.0
C4015 C 0.83967 0.60876 0.48417 0.0
C4016 C 0.84719 0.59502 0.49373 0.0
C4017 C 0.83951 0.60994 0.46298 0.0
C4018 C 0.84762 0.58376 0.41641 0.0
H4019 H 0.82035 0.61452 0.32456 0.0
H4020 H 0.8225 0.61522 0.36159 0.0
H4021 H 0.84816 0.57299 0.38666 0.0
H4022 H 0.8608 0.57203 0.48901 0.0
H4023 H 0.86205 0.57476 0.45236 0.0
H4024 H 0.8446 0.62555 0.42622 0.0
C4025 C 0.83208 0.60891 0.35294 0.0
C4026 C 0.84738 0.58451 0.39524 0.0
C4027 C 0.83086 0.60851 0.33178 0.0
C4028 C 0.85505 0.58282 0.4819 0.0
C4029 C 0.85544 0.58427 0.4608 0.0
C4030 C 0.84507 0.61388 0.41799 0.0
C4031 C 0.8451 0.60056 0.36285 0.0
C4032 C 0.8457 0.59989 0.38527 0.0
C4033 C 0.84731 0.59763 0.4509 0.0
C4034 C 0.84669 0.59846 0.42819 0.0
H4035 H 0.86551 0.58535 0.32163 0.0
H4036 H 0.86745 0.58588 0.35859 0.0
H4037 H 0.84311 0.62657 0.3894 0.0
H4038 H 0.83313 0.6181 0.49303 0.0
H4039 H 0.83275 0.62023 0.45621 0.0
C4040 C 0.32727 0.34621 0.33074 0.0
C4041 C 0.34164 0.34552 0.31873 0.0
C4042 C 0.32833 0.34626 0.35188 0.0
C4043 C 0.35546 0.33538 0.39493 0.0
H4044 H 0.32742 0.36668 0.42413 0.0
C4045 C 0.34798 0.33517 0.48296 0.0
C4046 C 0.34741 0.35091 0.4925 0.0
C4047 C 0.34791 0.33392 0.46173 0.0
C4048 C 0.33541 0.35792 0.41623 0.0
H4049 H 0.36844 0.34422 0.31959 0.0
H4050 H 0.37029 0.34401 0.35672 0.0
H4051 H 0.32644 0.36587 0.38723 0.0
H4052 H 0.34654 0.37767 0.48687 0.0
H4053 H 0.34658 0.37544 0.45025 0.0
H4054 H 0.36456 0.3276 0.42405 0.0
C4055 C 0.35819 0.34447 0.34966 0.0
C4056 C 0.33473 0.35734 0.39507 0.0
C4057 C 0.35714 0.34464 0.32841 0.0
C4058 C 0.34711 0.36531 0.48023 0.0
C4059 C 0.34695 0.36405 0.45912 0.0
C4060 C 0.35609 0.33591 0.41618 0.0
C4061 C 0.34379 0.34547 0.36161 0.0
C4062 C 0.34475 0.34609 0.38415 0.0
C4063 C 0.34713 0.34837 0.44958 0.0
C4064 C 0.34615 0.34727 0.42706 0.0
H4065 H 0.31513 0.34716 0.32384 0.0
H4066 H 0.317 0.34691 0.36062 0.0
H4067 H 0.36323 0.32647 0.38696 0.0
H4068 H 0.348 0.32379 0.49185 0.0
H4069 H 0.34792 0.32164 0.45484 0.0
C4070 C 0.35461 0.60339 0.23273 0.0
C4071 C 0.3391 0.60171 0.2422 0.0
C4072 C 0.35591 0.6032 0.21153 0.0
C4073 C 0.33342 0.58826 0.16635 0.0
H4074 H 0.36246 0.61785 0.13662 0.0
C4075 C 0.34439 0.5792 0.08136 0.0
C4076 C 0.34483 0.59341 0.06886 0.0
C4077 C 0.34471 0.58072 0.10241 0.0
C4078 C 0.35419 0.6096 0.14469 0.0
H4079 H 0.31277 0.5986 0.23656 0.0
H4080 H 0.31506 0.59851 0.19997 0.0
H4081 H 0.36091 0.6198 0.17361 0.0
H4082 H 0.34626 0.62045 0.06876 0.0
H4083 H 0.34665 0.62315 0.10578 0.0
H4084 H 0.3263 0.57832 0.13764 0.0
C4085 C 0.32625 0.59987 0.20886 0.0
C4086 C 0.35346 0.61058 0.16589 0.0
C4087 C 0.32493 0.60016 0.22994 0.0
C4088 C 0.34606 0.60924 0.07796 0.0
C4089 C 0.34629 0.61078 0.09917 0.0
C4090 C 0.3341 0.58731 0.14525 0.0
C4091 C 0.34175 0.60117 0.19939 0.0
C4092 C 0.343 0.59996 0.17694 0.0
C4093 C 0.34535 0.59651 0.11162 0.0
C4094 C 0.34453 0.59791 0.13412 0.0
H4095 H 0.36581 0.60443 0.24167 0.0
H4096 H 0.36806 0.60409 0.20468 0.0
H4097 H 0.32539 0.57973 0.17439 0.0
H4098 H 0.34355 0.56678 0.07491 0.0
H4099 H 0.34436 0.56944 0.11147 0.0
C4100 C 0.08168 0.60204 0.82905 0.0
C4101 C 0.09717 0.59952 0.81975 0.0
C4102 C 0.08025 0.6021 0.85024 0.0
C4103 C 0.10169 0.58653 0.89601 0.0
H4104 H 0.0734 0.61802 0.92455 0.0
C4105 C 0.08794 0.57924 0.981 0.0
C4106 C 0.08833 0.5937 0.99313 0.0
C4107 C 0.0883 0.5804 0.95988 0.0
C4108 C 0.08143 0.60921 0.9168 0.0
H4109 H 0.12333 0.59519 0.82566 0.0
H4110 H 0.12081 0.59549 0.86229 0.0
H4111 H 0.07565 0.61951 0.88761 0.0
H4112 H 0.08911 0.62081 0.99229 0.0
H4113 H 0.08963 0.62279 0.95536 0.0
H4114 H 0.10775 0.57641 0.92511 0.0
C4115 C 0.10975 0.59733 0.85325 0.0
C4116 C 0.08258 0.60995 0.89563 0.0
C4117 C 0.1112 0.59738 0.83216 0.0
C4118 C 0.0886 0.6094 0.9835 0.0
C4119 C 0.08891 0.61055 0.96229 0.0
C4120 C 0.10053 0.58578 0.91713 0.0
C4121 C 0.09425 0.5995 0.86255 0.0
C4122 C 0.09276 0.59865 0.88501 0.0
C4123 C 0.08904 0.59604 0.95026 0.0
C4124 C 0.09036 0.59707 0.92779 0.0
H4125 H 0.07057 0.60357 0.82001 0.0
H4126 H 0.0681 0.60365 0.85695 0.0
H4127 H 0.1095 0.57751 0.88829 0.0
H4128 H 0.08787 0.56691 0.98775 0.0
H4129 H 0.08814 0.56898 0.95107 0.0
C4130 C 0.10824 0.34878 0.72944 0.0
C4131 C 0.09435 0.34492 0.74132 0.0
C4132 C 0.10716 0.34894 0.70832 0.0
C4133 C 0.08733 0.33147 0.66479 0.0
H4134 H 0.09761 0.37322 0.63805 0.0
C4135 C 0.08455 0.33876 0.57676 0.0
C4136 C 0.09519 0.35046 0.56787 0.0
C4137 C 0.08343 0.33747 0.59798 0.0
C4138 C 0.09503 0.36131 0.64509 0.0
H4139 H 0.06846 0.33807 0.74049 0.0
H4140 H 0.0668 0.33759 0.70317 0.0
H4141 H 0.0979 0.37175 0.67481 0.0
H4142 H 0.11387 0.36913 0.57427 0.0
H4143 H 0.11262 0.3663 0.61055 0.0
H4144 H 0.08541 0.32067 0.63521 0.0
C4145 C 0.07843 0.34064 0.7104 0.0
C4146 C 0.095 0.36059 0.66624 0.0
C4147 C 0.07938 0.34093 0.73165 0.0
C4148 C 0.10518 0.36026 0.58055 0.0
C4149 C 0.10434 0.35874 0.60155 0.0
C4150 C 0.08778 0.33205 0.64354 0.0
C4151 C 0.09228 0.34487 0.69863 0.0
C4152 C 0.09126 0.34566 0.67626 0.0
C4153 C 0.09318 0.34764 0.6107 0.0
C4154 C 0.09183 0.34696 0.63335 0.0
H4155 H 0.11985 0.35225 0.73647 0.0
H4156 H 0.11797 0.35229 0.69953 0.0
H4157 H 0.08448 0.31979 0.67228 0.0
H4158 H 0.07681 0.33092 0.56737 0.0
H4159 H 0.07465 0.32877 0.60432 0.0
loop_
_geom_bond_atom_site_label_1
_geom_bond_atom_site_label_2
_geom_bond_distance
_geom_bond_site_symmetry_2
_ccdc_geom_bond_type
Dy0 O3 2.307 . S
Dy0 O5 2.395 . S
Dy0 O6 2.379 . S
Dy0 O8 2.339 . S
Dy0 O10 2.298 . S
Dy0 O14 2.275 . S
Dy0 C22 2.738 . S
Dy1 O4 2.298 . S
Dy1 O7 2.275 . S
Dy1 O9 2.307 . S
Dy1 O11 2.395 . S
Dy1 O12 2.379 . S
Dy1 O15 2.339 . S
Dy1 C31 2.738 . S
C2 O14 1.254 . S
C2 O15 1.257 . S
O3 Dy0 2.307 . S
O3 C13 1.266 . S
O4 Dy1 2.298 . S
O4 C13 1.236 . S
O5 Dy0 2.395 . S
O5 C22 1.255 . S
O6 Dy0 2.379 . S
O6 C22 1.249 . S
O7 Dy1 2.275 . S
O7 C23 1.254 . S
O8 Dy0 2.339 . S
O8 C23 1.257 . S
O9 Dy1 2.307 . S
O9 C24 1.266 . S
O10 Dy0 2.298 . S
O10 C24 1.236 . S
O11 Dy1 2.395 . S
O11 C31 1.255 . S
O12 Dy1 2.379 . S
O12 C31 1.249 . S
C13 O3 1.266 . S
C13 O4 1.236 . S
O14 Dy0 2.275 . S
O14 C2 1.254 . S
O15 Dy1 2.339 . S
O15 C2 1.257 . S
C16 C19 1.344 . S
C16 C20 1.328 . S
C16 C22 1.516 . S
C17 C18 1.304 . S
C17 C21 1.323 . S
C18 C17 1.304 . S
C18 C19 1.371 . S
C18 H32 0.930 . S
C19 C16 1.344 . S
C19 C18 1.371 . S
C19 H33 0.931 . S
C20 C16 1.328 . S
C20 C21 1.433 . S
C20 H34 0.931 . S
C21 C17 1.323 . S
C21 C20 1.433 . S
C21 H35 0.933 . S
C22 Dy0 2.738 . S
C22 O5 1.255 . S
C22 O6 1.249 . S
C22 C16 1.516 . S
C23 O7 1.254 . S
C23 O8 1.257 . S
C24 O9 1.266 . S
C24 O10 1.236 . S
C25 C28 1.344 . S
C25 C29 1.328 . S
C25 C31 1.516 . S
C26 C27 1.304 . S
C26 C30 1.323 . S
C27 C26 1.304 . S
C27 C28 1.371 . S
C27 H36 0.930 . S
C28 C25 1.344 . S
C28 C27 1.371 . S
C28 H37 0.931 . S
C29 C25 1.328 . S
C29 C30 1.433 . S
C29 H38 0.931 . S
C30 C26 1.323 . S
C30 C29 1.433 . S
C30 H39 0.933 . S
C31 Dy1 2.738 . S
C31 O11 1.255 . S
C31 O12 1.249 . S
C31 C25 1.516 . S
H32 C18 0.930 . S
H33 C19 0.931 . S
H34 C20 0.931 . S
H35 C21 0.933 . S
H36 C27 0.930 . S
H37 C28 0.931 . S
H38 C29 0.931 . S
H39 C30 0.933 . S
Dy40 O43 2.307 . S
Dy40 O45 2.395 . S
Dy40 O46 2.379 . S
Dy40 O48 2.339 . S
Dy40 O50 2.298 . S
Dy40 O54 2.275 . S
Dy40 C62 2.738 . S
Dy41 O44 2.298 . S
Dy41 O47 2.275 . S
Dy41 O49 2.307 . S
Dy41 O51 2.395 . S
Dy41 O52 2.379 . S
Dy41 O55 2.339 . S
Dy41 C71 2.738 . S
C42 O54 1.254 . S
C42 O55 1.257 . S
O43 Dy40 2.307 . S
O43 C53 1.266 . S
O44 Dy41 2.298 . S
O44 C53 1.236 . S
O45 Dy40 2.395 . S
O45 C62 1.255 . S
O46 Dy40 2.379 . S
O46 C62 1.249 . S
O47 Dy41 2.275 . S
O47 C63 1.254 . S
O48 Dy40 2.339 . S
O48 C63 1.257 . S
O49 Dy41 2.307 . S
O49 C64 1.266 . S
O50 Dy40 2.298 . S
O50 C64 1.236 . S
O51 Dy41 2.395 . S
O51 C71 1.255 . S
O52 Dy41 2.379 . S
O52 C71 1.249 . S
C53 O43 1.266 . S
C53 O44 1.236 . S
O54 Dy40 2.275 . S
O54 C42 1.254 . S
O55 Dy41 2.339 . S
O55 C42 1.257 . S
C56 C59 1.344 . S
C56 C60 1.328 . S
C56 C62 1.516 . S
C57 C58 1.304 . S
C57 C61 1.323 . S
C58 C57 1.304 . S
C58 C59 1.371 . S
C58 H72 0.930 . S
C59 C56 1.344 . S
C59 C58 1.371 . S
C59 H73 0.931 . S
C60 C56 1.328 . S
C60 C61 1.433 . S
C60 H74 0.931 . S
C61 C57 1.323 . S
C61 C60 1.433 . S
C61 H75 0.933 . S
C62 Dy40 2.738 . S
C62 O45 1.255 . S
C62 O46 1.249 . S
C62 C56 1.516 . S
C63 O47 1.254 . S
C63 O48 1.257 . S
C64 O49 1.266 . S
C64 O50 1.236 . S
C65 C68 1.344 . S
C65 C69 1.328 . S
C65 C71 1.516 . S
C66 C67 1.304 . S
C66 C70 1.323 . S
C67 C66 1.304 . S
C67 C68 1.371 . S
C67 H76 0.930 . S
C68 C65 1.344 . S
C68 C67 1.371 . S
C68 H77 0.931 . S
C69 C65 1.328 . S
C69 C70 1.433 . S
C69 H78 0.931 . S
C70 C66 1.323 . S
C70 C69 1.433 . S
C70 H79 0.933 . S
C71 Dy41 2.738 . S
C71 O51 1.255 . S
C71 O52 1.249 . S
C71 C65 1.516 . S
H72 C58 0.930 . S
H73 C59 0.931 . S
H74 C60 0.931 . S
H75 C61 0.933 . S
H76 C67 0.930 . S
H77 C68 0.931 . S
H78 C69 0.931 . S
H79 C70 0.933 . S
Dy80 O83 2.307 . S
Dy80 O85 2.395 . S
Dy80 O86 2.379 . S
Dy80 O88 2.339 . S
Dy80 O90 2.298 . S
Dy80 O94 2.275 . S
Dy80 C102 2.738 . S
Dy81 O84 2.298 . S
Dy81 O87 2.275 . S
Dy81 O89 2.307 . S
Dy81 O91 2.395 . S
Dy81 O92 2.379 . S
Dy81 O95 2.339 . S
Dy81 C111 2.738 . S
C82 O94 1.254 . S
C82 O95 1.257 . S
O83 Dy80 2.307 . S
O83 C93 1.266 . S
O84 Dy81 2.298 . S
O84 C93 1.236 . S
O85 Dy80 2.395 . S
O85 C102 1.255 . S
O86 Dy80 2.379 . S
O86 C102 1.249 . S
O87 Dy81 2.275 . S
O87 C103 1.254 . S
O88 Dy80 2.339 . S
O88 C103 1.257 . S
O89 Dy81 2.307 . S
O89 C104 1.266 . S
O90 Dy80 2.298 . S
O90 C104 1.236 . S
O91 Dy81 2.395 . S
O91 C111 1.255 . S
O92 Dy81 2.379 . S
O92 C111 1.249 . S
C93 O83 1.266 . S
C93 O84 1.236 . S
O94 Dy80 2.275 . S
O94 C82 1.254 . S
O95 Dy81 2.339 . S
O95 C82 1.257 . S
C96 C99 1.344 . S
C96 C100 1.328 . S
C96 C102 1.516 . S
C97 C98 1.304 . S
C97 C101 1.323 . S
C98 C97 1.304 . S
C98 C99 1.371 . S
C98 H112 0.930 . S
C99 C96 1.344 . S
C99 C98 1.371 . S
C99 H113 0.931 . S
C100 C96 1.328 . S
C100 C101 1.433 . S
C100 H114 0.931 . S
C101 C97 1.323 . S
C101 C100 1.433 . S
C101 H115 0.933 . S
C102 Dy80 2.738 . S
C102 O85 1.255 . S
C102 O86 1.249 . S
C102 C96 1.516 . S
C103 O87 1.254 . S
C103 O88 1.257 . S
C104 O89 1.266 . S
C104 O90 1.236 . S
C105 C108 1.344 . S
C105 C109 1.328 . S
C105 C111 1.516 . S
C106 C107 1.304 . S
C106 C110 1.323 . S
C107 C106 1.304 . S
C107 C108 1.371 . S
C107 H116 0.930 . S
C108 C105 1.344 . S
C108 C107 1.371 . S
C108 H117 0.931 . S
C109 C105 1.328 . S
C109 C110 1.433 . S
C109 H118 0.931 . S
C110 C106 1.323 . S
C110 C109 1.433 . S
C110 H119 0.933 . S
C111 Dy81 2.738 . S
C111 O91 1.255 . S
C111 O92 1.249 . S
C111 C105 1.516 . S
H112 C98 0.930 . S
H113 C99 0.931 . S
H114 C100 0.931 . S
H115 C101 0.933 . S
H116 C107 0.930 . S
H117 C108 0.931 . S
H118 C109 0.931 . S
H119 C110 0.933 . S
Dy120 O123 2.307 . S
Dy120 O125 2.395 . S
Dy120 O126 2.379 . S
Dy120 O128 2.339 . S
Dy120 O130 2.298 . S
Dy120 O134 2.275 . S
Dy120 C142 2.738 . S
Dy121 O124 2.298 . S
Dy121 O127 2.275 . S
Dy121 O129 2.307 . S
Dy121 O131 2.400 1_554 S
Dy121 O132 2.379 . S
Dy121 O135 2.339 . S
Dy121 C151 2.740 . S
C122 O134 1.254 . S
C122 O135 1.257 . S
O123 Dy120 2.307 . S
O123 C133 1.266 1_554 S
O124 Dy121 2.298 . S
O124 C133 1.236 1_554 S
O125 Dy120 2.395 . S
O125 C142 1.255 . S
O126 Dy120 2.379 . S
O126 C142 1.249 . S
O127 Dy121 2.275 . S
O127 C143 1.254 . S
O128 Dy120 2.339 . S
O128 C143 1.257 . S
O129 Dy121 2.307 . S
O129 C144 1.266 . S
O130 Dy120 2.298 . S
O130 C144 1.236 . S
O131 Dy121 2.400 1_556 S
O131 C151 1.255 1_556 S
O132 Dy121 2.379 . S
O132 C151 1.251 . S
C133 O123 1.266 1_556 S
C133 O124 1.236 1_556 S
O134 Dy120 2.275 . S
O134 C122 1.254 . S
O135 Dy121 2.339 . S
O135 C122 1.257 . S
C136 C139 1.344 . S
C136 C140 1.328 . S
C136 C142 1.516 . S
C137 C138 1.304 . S
C137 C141 1.323 . S
C138 C137 1.304 . S
C138 C139 1.371 . S
C138 H152 0.930 . S
C139 C136 1.344 . S
C139 C138 1.371 . S
C139 H153 0.931 . S
C140 C136 1.328 . S
C140 C141 1.433 . S
C140 H154 0.931 . S
C141 C137 1.323 . S
C141 C140 1.433 . S
C141 H155 0.933 . S
C142 Dy120 2.738 . S
C142 O125 1.255 . S
C142 O126 1.249 . S
C142 C136 1.516 . S
C143 O127 1.254 . S
C143 O128 1.257 . S
C144 O129 1.266 . S
C144 O130 1.236 . S
C145 C148 1.344 . S
C145 C149 1.328 . S
C145 C151 1.514 1_556 S
C146 C147 1.304 . S
C146 C150 1.323 . S
C147 C146 1.304 . S
C147 C148 1.371 . S
C147 H156 0.930 . S
C148 C145 1.344 . S
C148 C147 1.371 . S
C148 H157 0.931 . S
C149 C145 1.328 . S
C149 C150 1.433 . S
C149 H158 0.931 . S
C150 C146 1.323 . S
C150 C149 1.433 . S
C150 H159 0.933 . S
C151 Dy121 2.740 . S
C151 O131 1.255 1_554 S
C151 O132 1.251 . S
C151 C145 1.514 1_554 S
H152 C138 0.930 . S
H153 C139 0.931 . S
H154 C140 0.931 . S
H155 C141 0.933 . S
H156 C147 0.930 . S
H157 C148 0.931 . S
H158 C149 0.931 . S
H159 C150 0.933 . S
Dy160 O163 2.307 . S
Dy160 O165 2.395 . S
Dy160 O166 2.379 . S
Dy160 O168 2.339 . S
Dy160 O170 2.298 . S
Dy160 O174 2.275 . S
Dy160 C182 2.738 . S
Dy161 O164 2.298 . S
Dy161 O167 2.275 . S
Dy161 O169 2.307 . S
Dy161 O171 2.395 . S
Dy161 O172 2.379 . S
Dy161 O175 2.339 . S
Dy161 C191 2.738 . S
C162 O174 1.254 . S
C162 O175 1.257 . S
O163 Dy160 2.307 . S
O163 C173 1.266 . S
O164 Dy161 2.298 . S
O164 C173 1.236 . S
O165 Dy160 2.395 . S
O165 C182 1.255 . S
O166 Dy160 2.379 . S
O166 C182 1.249 . S
O167 Dy161 2.275 . S
O167 C183 1.254 . S
O168 Dy160 2.339 . S
O168 C183 1.257 . S
O169 Dy161 2.307 . S
O169 C184 1.266 . S
O170 Dy160 2.298 . S
O170 C184 1.236 . S
O171 Dy161 2.395 . S
O171 C191 1.255 . S
O172 Dy161 2.379 . S
O172 C191 1.249 . S
C173 O163 1.266 . S
C173 O164 1.236 . S
O174 Dy160 2.275 . S
O174 C162 1.254 . S
O175 Dy161 2.339 . S
O175 C162 1.257 . S
C176 C179 1.344 . S
C176 C180 1.328 . S
C176 C182 1.516 . S
C177 C178 1.304 . S
C177 C181 1.323 . S
C178 C177 1.304 . S
C178 C179 1.371 . S
C178 H192 0.930 . S
C179 C176 1.344 . S
C179 C178 1.371 . S
C179 H193 0.931 . S
C180 C176 1.328 . S
C180 C181 1.433 . S
C180 H194 0.931 . S
C181 C177 1.323 . S
C181 C180 1.433 . S
C181 H195 0.933 . S
C182 Dy160 2.738 . S
C182 O165 1.255 . S
C182 O166 1.249 . S
C182 C176 1.516 . S
C183 O167 1.254 . S
C183 O168 1.257 . S
C184 O169 1.266 . S
C184 O170 1.236 . S
C185 C188 1.344 . S
C185 C189 1.328 . S
C185 C191 1.516 . S
C186 C187 1.304 . S
C186 C190 1.323 . S
C187 C186 1.304 . S
C187 C188 1.371 . S
C187 H196 0.930 . S
C188 C185 1.344 . S
C188 C187 1.371 . S
C188 H197 0.931 . S
C189 C185 1.328 . S
C189 C190 1.433 . S
C189 H198 0.931 . S
C190 C186 1.323 . S
C190 C189 1.433 . S
C190 H199 0.933 . S
C191 Dy161 2.738 . S
C191 O171 1.255 . S
C191 O172 1.249 . S
C191 C185 1.516 . S
H192 C178 0.930 . S
H193 C179 0.931 . S
H194 C180 0.931 . S
H195 C181 0.933 . S
H196 C187 0.930 . S
H197 C188 0.931 . S
H198 C189 0.931 . S
H199 C190 0.933 . S
Dy200 O203 2.307 . S
Dy200 O205 2.395 . S
Dy200 O206 2.379 . S
Dy200 O208 2.339 . S
Dy200 O210 2.298 . S
Dy200 O214 2.275 . S
Dy200 C222 2.738 . S
Dy201 O204 2.298 . S
Dy201 O207 2.275 . S
Dy201 O209 2.307 . S
Dy201 O211 2.395 . S
Dy201 O212 2.379 . S
Dy201 O215 2.339 . S
Dy201 C231 2.738 . S
C202 O214 1.254 . S
C202 O215 1.257 . S
O203 Dy200 2.307 . S
O203 C213 1.266 . S
O204 Dy201 2.298 . S
O204 C213 1.236 . S
O205 Dy200 2.395 . S
O205 C222 1.255 . S
O206 Dy200 2.379 . S
O206 C222 1.249 . S
O207 Dy201 2.275 . S
O207 C223 1.254 . S
O208 Dy200 2.339 . S
O208 C223 1.257 . S
O209 Dy201 2.307 . S
O209 C224 1.266 . S
O210 Dy200 2.298 . S
O210 C224 1.236 . S
O211 Dy201 2.395 . S
O211 C231 1.255 . S
O212 Dy201 2.379 . S
O212 C231 1.249 . S
C213 O203 1.266 . S
C213 O204 1.236 . S
O214 Dy200 2.275 . S
O214 C202 1.254 . S
O215 Dy201 2.339 . S
O215 C202 1.257 . S
C216 C219 1.344 . S
C216 C220 1.328 . S
C216 C222 1.516 . S
C217 C218 1.304 . S
C217 C221 1.323 . S
C218 C217 1.304 . S
C218 C219 1.371 . S
C218 H232 0.930 . S
C219 C216 1.344 . S
C219 C218 1.371 . S
C219 H233 0.931 . S
C220 C216 1.328 . S
C220 C221 1.433 . S
C220 H234 0.931 . S
C221 C217 1.323 . S
C221 C220 1.433 . S
C221 H235 0.933 . S
C222 Dy200 2.738 . S
C222 O205 1.255 . S
C222 O206 1.249 . S
C222 C216 1.516 . S
C223 O207 1.254 . S
C223 O208 1.257 . S
C224 O209 1.266 . S
C224 O210 1.236 . S
C225 C228 1.344 . S
C225 C229 1.328 . S
C225 C231 1.516 . S
C226 C227 1.304 . S
C226 C230 1.323 . S
C227 C226 1.304 . S
C227 C228 1.371 . S
C227 H236 0.930 . S
C228 C225 1.344 . S
C228 C227 1.371 . S
C228 H237 0.931 . S
C229 C225 1.328 . S
C229 C230 1.433 . S
C229 H238 0.931 . S
C230 C226 1.323 . S
C230 C229 1.433 . S
C230 H239 0.933 . S
C231 Dy201 2.738 . S
C231 O211 1.255 . S
C231 O212 1.249 . S
C231 C225 1.516 . S
H232 C218 0.930 . S
H233 C219 0.931 . S
H234 C220 0.931 . S
H235 C221 0.933 . S
H236 C227 0.930 . S
H237 C228 0.931 . S
H238 C229 0.931 . S
H239 C230 0.933 . S
Dy240 O243 2.307 . S
Dy240 O245 2.395 . S
Dy240 O246 2.379 . S
Dy240 O248 2.339 . S
Dy240 O250 2.298 . S
Dy240 O254 2.275 . S
Dy240 C262 2.738 . S
Dy241 O244 2.298 . S
Dy241 O247 2.275 . S
Dy241 O249 2.307 . S
Dy241 O251 2.395 . S
Dy241 O252 2.379 . S
Dy241 O255 2.339 . S
Dy241 C271 2.738 . S
C242 O254 1.254 . S
C242 O255 1.257 . S
O243 Dy240 2.307 . S
O243 C253 1.266 . S
O244 Dy241 2.298 . S
O244 C253 1.236 . S
O245 Dy240 2.395 . S
O245 C262 1.255 . S
O246 Dy240 2.379 . S
O246 C262 1.249 . S
O247 Dy241 2.275 . S
O247 C263 1.254 . S
O248 Dy240 2.339 . S
O248 C263 1.257 . S
O249 Dy241 2.307 . S
O249 C264 1.266 . S
O250 Dy240 2.298 . S
O250 C264 1.236 . S
O251 Dy241 2.395 . S
O251 C271 1.255 . S
O252 Dy241 2.379 . S
O252 C271 1.249 . S
C253 O243 1.266 . S
C253 O244 1.236 . S
O254 Dy240 2.275 . S
O254 C242 1.254 . S
O255 Dy241 2.339 . S
O255 C242 1.257 . S
C256 C259 1.344 . S
C256 C260 1.328 . S
C256 C262 1.516 . S
C257 C258 1.304 . S
C257 C261 1.323 . S
C258 C257 1.304 . S
C258 C259 1.371 . S
C258 H272 0.930 . S
C259 C256 1.344 . S
C259 C258 1.371 . S
C259 H273 0.931 . S
C260 C256 1.328 . S
C260 C261 1.433 . S
C260 H274 0.931 . S
C261 C257 1.323 . S
C261 C260 1.433 . S
C261 H275 0.933 . S
C262 Dy240 2.738 . S
C262 O245 1.255 . S
C262 O246 1.249 . S
C262 C256 1.516 . S
C263 O247 1.254 . S
C263 O248 1.257 . S
C264 O249 1.266 . S
C264 O250 1.236 . S
C265 C268 1.344 . S
C265 C269 1.328 . S
C265 C271 1.516 . S
C266 C267 1.304 . S
C266 C270 1.323 . S
C267 C266 1.304 . S
C267 C268 1.371 . S
C267 H276 0.930 . S
C268 C265 1.344 . S
C268 C267 1.371 . S
C268 H277 0.931 . S
C269 C265 1.328 . S
C269 C270 1.433 . S
C269 H278 0.931 . S
C270 C266 1.323 . S
C270 C269 1.433 . S
C270 H279 0.933 . S
C271 Dy241 2.738 . S
C271 O251 1.255 . S
C271 O252 1.249 . S
C271 C265 1.516 . S
H272 C258 0.930 . S
H273 C259 0.931 . S
H274 C260 0.931 . S
H275 C261 0.933 . S
H276 C267 0.930 . S
H277 C268 0.931 . S
H278 C269 0.931 . S
H279 C270 0.933 . S
Dy280 O283 2.307 . S
Dy280 O285 2.395 . S
Dy280 O286 2.379 . S
Dy280 O288 2.339 . S
Dy280 O290 2.298 . S
Dy280 O294 2.275 . S
Dy280 C302 2.738 . S
Dy281 O284 2.298 . S
Dy281 O287 2.275 . S
Dy281 O289 2.307 . S
Dy281 O291 2.400 1_556 S
Dy281 O292 2.379 . S
Dy281 O295 2.339 . S
Dy281 C311 2.740 . S
C282 O294 1.254 . S
C282 O295 1.257 . S
O283 Dy280 2.307 . S
O283 C293 1.266 1_556 S
O284 Dy281 2.298 . S
O284 C293 1.236 1_556 S
O285 Dy280 2.395 . S
O285 C302 1.255 . S
O286 Dy280 2.379 . S
O286 C302 1.249 . S
O287 Dy281 2.275 . S
O287 C303 1.254 . S
O288 Dy280 2.339 . S
O288 C303 1.257 . S
O289 Dy281 2.307 . S
O289 C304 1.266 . S
O290 Dy280 2.298 . S
O290 C304 1.236 . S
O291 Dy281 2.400 1_554 S
O291 C311 1.255 1_554 S
O292 Dy281 2.379 . S
O292 C311 1.251 . S
C293 O283 1.266 1_554 S
C293 O284 1.236 1_554 S
O294 Dy280 2.275 . S
O294 C282 1.254 . S
O295 Dy281 2.339 . S
O295 C282 1.257 . S
C296 C299 1.344 . S
C296 C300 1.328 . S
C296 C302 1.516 . S
C297 C298 1.304 . S
C297 C301 1.323 . S
C298 C297 1.304 . S
C298 C299 1.371 . S
C298 H312 0.930 . S
C299 C296 1.344 . S
C299 C298 1.371 . S
C299 H313 0.931 . S
C300 C296 1.328 . S
C300 C301 1.433 . S
C300 H314 0.931 . S
C301 C297 1.323 . S
C301 C300 1.433 . S
C301 H315 0.933 . S
C302 Dy280 2.738 . S
C302 O285 1.255 . S
C302 O286 1.249 . S
C302 C296 1.516 . S
C303 O287 1.254 . S
C303 O288 1.257 . S
C304 O289 1.266 . S
C304 O290 1.236 . S
C305 C308 1.344 . S
C305 C309 1.328 . S
C305 C311 1.514 1_554 S
C306 C307 1.304 . S
C306 C310 1.323 . S
C307 C306 1.304 . S
C307 C308 1.371 . S
C307 H316 0.930 . S
C308 C305 1.344 . S
C308 C307 1.371 . S
C308 H317 0.931 . S
C309 C305 1.328 . S
C309 C310 1.433 . S
C309 H318 0.931 . S
C310 C306 1.323 . S
C310 C309 1.433 . S
C310 H319 0.933 . S
C311 Dy281 2.740 . S
C311 O291 1.255 1_556 S
C311 O292 1.251 . S
C311 C305 1.514 1_556 S
H312 C298 0.930 . S
H313 C299 0.931 . S
H314 C300 0.931 . S
H315 C301 0.933 . S
H316 C307 0.930 . S
H317 C308 0.931 . S
H318 C309 0.931 . S
H319 C310 0.933 . S
Dy320 O323 2.307 . S
Dy320 O325 2.395 . S
Dy320 O326 2.379 . S
Dy320 O328 2.339 . S
Dy320 O330 2.298 . S
Dy320 O334 2.275 . S
Dy320 C342 2.738 . S
Dy321 O324 2.298 . S
Dy321 O327 2.275 . S
Dy321 O329 2.307 . S
Dy321 O331 2.395 . S
Dy321 O332 2.379 . S
Dy321 O335 2.339 . S
Dy321 C351 2.738 . S
C322 O334 1.254 . S
C322 O335 1.257 . S
O323 Dy320 2.307 . S
O323 C333 1.266 . S
O324 Dy321 2.298 . S
O324 C333 1.236 . S
O325 Dy320 2.395 . S
O325 C342 1.255 . S
O326 Dy320 2.379 . S
O326 C342 1.249 . S
O327 Dy321 2.275 . S
O327 C343 1.254 . S
O328 Dy320 2.339 . S
O328 C343 1.257 . S
O329 Dy321 2.307 . S
O329 C344 1.266 . S
O330 Dy320 2.298 . S
O330 C344 1.236 . S
O331 Dy321 2.395 . S
O331 C351 1.255 . S
O332 Dy321 2.379 . S
O332 C351 1.249 . S
C333 O323 1.266 . S
C333 O324 1.236 . S
O334 Dy320 2.275 . S
O334 C322 1.254 . S
O335 Dy321 2.339 . S
O335 C322 1.257 . S
C336 C339 1.344 . S
C336 C340 1.328 . S
C336 C342 1.516 . S
C337 C338 1.304 . S
C337 C341 1.323 . S
C338 C337 1.304 . S
C338 C339 1.371 . S
C338 H352 0.930 . S
C339 C336 1.344 . S
C339 C338 1.371 . S
C339 H353 0.931 . S
C340 C336 1.328 . S
C340 C341 1.433 . S
C340 H354 0.931 . S
C341 C337 1.323 . S
C341 C340 1.433 . S
C341 H355 0.933 . S
C342 Dy320 2.738 . S
C342 O325 1.255 . S
C342 O326 1.249 . S
C342 C336 1.516 . S
C343 O327 1.254 . S
C343 O328 1.257 . S
C344 O329 1.266 . S
C344 O330 1.236 . S
C345 C348 1.344 . S
C345 C349 1.328 . S
C345 C351 1.516 . S
C346 C347 1.304 . S
C346 C350 1.323 . S
C347 C346 1.304 . S
C347 C348 1.371 . S
C347 H356 0.930 . S
C348 C345 1.344 . S
C348 C347 1.371 . S
C348 H357 0.931 . S
C349 C345 1.328 . S
C349 C350 1.433 . S
C349 H358 0.931 . S
C350 C346 1.323 . S
C350 C349 1.433 . S
C350 H359 0.933 . S
C351 Dy321 2.738 . S
C351 O331 1.255 . S
C351 O332 1.249 . S
C351 C345 1.516 . S
H352 C338 0.930 . S
H353 C339 0.931 . S
H354 C340 0.931 . S
H355 C341 0.933 . S
H356 C347 0.930 . S
H357 C348 0.931 . S
H358 C349 0.931 . S
H359 C350 0.933 . S
Dy360 O363 2.307 . S
Dy360 O365 2.395 . S
Dy360 O366 2.379 . S
Dy360 O368 2.339 . S
Dy360 O370 2.298 . S
Dy360 O374 2.275 . S
Dy360 C382 2.738 . S
Dy361 O364 2.298 . S
Dy361 O367 2.275 . S
Dy361 O369 2.307 . S
Dy361 O371 2.395 . S
Dy361 O372 2.379 . S
Dy361 O375 2.339 . S
Dy361 C391 2.738 . S
C362 O374 1.254 . S
C362 O375 1.257 . S
O363 Dy360 2.307 . S
O363 C373 1.266 . S
O364 Dy361 2.298 . S
O364 C373 1.236 . S
O365 Dy360 2.395 . S
O365 C382 1.255 . S
O366 Dy360 2.379 . S
O366 C382 1.249 . S
O367 Dy361 2.275 . S
O367 C383 1.254 . S
O368 Dy360 2.339 . S
O368 C383 1.257 . S
O369 Dy361 2.307 . S
O369 C384 1.266 . S
O370 Dy360 2.298 . S
O370 C384 1.236 . S
O371 Dy361 2.395 . S
O371 C391 1.255 . S
O372 Dy361 2.379 . S
O372 C391 1.249 . S
C373 O363 1.266 . S
C373 O364 1.236 . S
O374 Dy360 2.275 . S
O374 C362 1.254 . S
O375 Dy361 2.339 . S
O375 C362 1.257 . S
C376 C379 1.344 . S
C376 C380 1.328 . S
C376 C382 1.516 . S
C377 C378 1.304 . S
C377 C381 1.323 . S
C378 C377 1.304 . S
C378 C379 1.371 . S
C378 H392 0.930 . S
C379 C376 1.344 . S
C379 C378 1.371 . S
C379 H393 0.931 . S
C380 C376 1.328 . S
C380 C381 1.433 . S
C380 H394 0.931 . S
C381 C377 1.323 . S
C381 C380 1.433 . S
C381 H395 0.933 . S
C382 Dy360 2.738 . S
C382 O365 1.255 . S
C382 O366 1.249 . S
C382 C376 1.516 . S
C383 O367 1.254 . S
C383 O368 1.257 . S
C384 O369 1.266 . S
C384 O370 1.236 . S
C385 C388 1.344 . S
C385 C389 1.328 . S
C385 C391 1.516 . S
C386 C387 1.304 . S
C386 C390 1.323 . S
C387 C386 1.304 . S
C387 C388 1.371 . S
C387 H396 0.930 . S
C388 C385 1.344 . S
C388 C387 1.371 . S
C388 H397 0.931 . S
C389 C385 1.328 . S
C389 C390 1.433 . S
C389 H398 0.931 . S
C390 C386 1.323 . S
C390 C389 1.433 . S
C390 H399 0.933 . S
C391 Dy361 2.738 . S
C391 O371 1.255 . S
C391 O372 1.249 . S
C391 C385 1.516 . S
H392 C378 0.930 . S
H393 C379 0.931 . S
H394 C380 0.931 . S
H395 C381 0.933 . S
H396 C387 0.930 . S
H397 C388 0.931 . S
H398 C389 0.931 . S
H399 C390 0.933 . S
Dy400 O403 2.307 . S
Dy400 O405 2.395 . S
Dy400 O406 2.379 . S
Dy400 O408 2.339 . S
Dy400 O410 2.298 . S
Dy400 O414 2.275 . S
Dy400 C422 2.738 . S
Dy401 O404 2.298 . S
Dy401 O407 2.275 . S
Dy401 O409 2.307 . S
Dy401 O411 2.395 . S
Dy401 O412 2.379 . S
Dy401 O415 2.339 . S
Dy401 C431 2.738 . S
C402 O414 1.254 . S
C402 O415 1.257 . S
O403 Dy400 2.307 . S
O403 C413 1.266 . S
O404 Dy401 2.298 . S
O404 C413 1.236 . S
O405 Dy400 2.395 . S
O405 C422 1.255 . S
O406 Dy400 2.379 . S
O406 C422 1.249 . S
O407 Dy401 2.275 . S
O407 C423 1.254 . S
O408 Dy400 2.339 . S
O408 C423 1.257 . S
O409 Dy401 2.307 . S
O409 C424 1.266 . S
O410 Dy400 2.298 . S
O410 C424 1.236 . S
O411 Dy401 2.395 . S
O411 C431 1.255 . S
O412 Dy401 2.379 . S
O412 C431 1.249 . S
C413 O403 1.266 . S
C413 O404 1.236 . S
O414 Dy400 2.275 . S
O414 C402 1.254 . S
O415 Dy401 2.339 . S
O415 C402 1.257 . S
C416 C419 1.344 . S
C416 C420 1.328 . S
C416 C422 1.516 . S
C417 C418 1.304 . S
C417 C421 1.323 . S
C418 C417 1.304 . S
C418 C419 1.371 . S
C418 H432 0.930 . S
C419 C416 1.344 . S
C419 C418 1.371 . S
C419 H433 0.931 . S
C420 C416 1.328 . S
C420 C421 1.433 . S
C420 H434 0.931 . S
C421 C417 1.323 . S
C421 C420 1.433 . S
C421 H435 0.933 . S
C422 Dy400 2.738 . S
C422 O405 1.255 . S
C422 O406 1.249 . S
C422 C416 1.516 . S
C423 O407 1.254 . S
C423 O408 1.257 . S
C424 O409 1.266 . S
C424 O410 1.236 . S
C425 C428 1.344 . S
C425 C429 1.328 . S
C425 C431 1.516 . S
C426 C427 1.304 . S
C426 C430 1.323 . S
C427 C426 1.304 . S
C427 C428 1.371 . S
C427 H436 0.930 . S
C428 C425 1.344 . S
C428 C427 1.371 . S
C428 H437 0.931 . S
C429 C425 1.328 . S
C429 C430 1.433 . S
C429 H438 0.931 . S
C430 C426 1.323 . S
C430 C429 1.433 . S
C430 H439 0.933 . S
C431 Dy401 2.738 . S
C431 O411 1.255 . S
C431 O412 1.249 . S
C431 C425 1.516 . S
H432 C418 0.930 . S
H433 C419 0.931 . S
H434 C420 0.931 . S
H435 C421 0.933 . S
H436 C427 0.930 . S
H437 C428 0.931 . S
H438 C429 0.931 . S
H439 C430 0.933 . S
Dy440 O443 2.307 . S
Dy440 O445 2.400 1_556 S
Dy440 O446 2.379 . S
Dy440 O448 2.339 . S
Dy440 O450 2.298 . S
Dy440 O454 2.275 . S
Dy440 C462 2.740 . S
Dy441 O444 2.298 . S
Dy441 O447 2.275 . S
Dy441 O449 2.307 . S
Dy441 O451 2.395 . S
Dy441 O452 2.379 . S
Dy441 O455 2.339 . S
Dy441 C471 2.738 . S
C442 O454 1.254 . S
C442 O455 1.257 . S
O443 Dy440 2.307 . S
O443 C453 1.266 . S
O444 Dy441 2.298 . S
O444 C453 1.236 . S
O445 Dy440 2.400 1_554 S
O445 C462 1.255 1_554 S
O446 Dy440 2.379 . S
O446 C462 1.251 . S
O447 Dy441 2.275 . S
O447 C463 1.254 . S
O448 Dy440 2.339 . S
O448 C463 1.257 . S
O449 Dy441 2.307 . S
O449 C464 1.266 1_556 S
O450 Dy440 2.298 . S
O450 C464 1.236 1_556 S
O451 Dy441 2.395 . S
O451 C471 1.255 . S
O452 Dy441 2.379 . S
O452 C471 1.249 . S
C453 O443 1.266 . S
C453 O444 1.236 . S
O454 Dy440 2.275 . S
O454 C442 1.254 . S
O455 Dy441 2.339 . S
O455 C442 1.257 . S
C456 C459 1.344 . S
C456 C460 1.328 . S
C456 C462 1.514 1_554 S
C457 C458 1.304 . S
C457 C461 1.323 . S
C458 C457 1.304 . S
C458 C459 1.371 . S
C458 H472 0.930 . S
C459 C456 1.344 . S
C459 C458 1.371 . S
C459 H473 0.931 . S
C460 C456 1.328 . S
C460 C461 1.433 . S
C460 H474 0.931 . S
C461 C457 1.323 . S
C461 C460 1.433 . S
C461 H475 0.933 . S
C462 Dy440 2.740 . S
C462 O445 1.255 1_556 S
C462 O446 1.251 . S
C462 C456 1.514 1_556 S
C463 O447 1.254 . S
C463 O448 1.257 . S
C464 O449 1.266 1_554 S
C464 O450 1.236 1_554 S
C465 C468 1.344 . S
C465 C469 1.328 . S
C465 C471 1.516 . S
C466 C467 1.304 . S
C466 C470 1.323 . S
C467 C466 1.304 . S
C467 C468 1.371 . S
C467 H476 0.930 . S
C468 C465 1.344 . S
C468 C467 1.371 . S
C468 H477 0.931 . S
C469 C465 1.328 . S
C469 C470 1.433 . S
C469 H478 0.931 . S
C470 C466 1.323 . S
C470 C469 1.433 . S
C470 H479 0.933 . S
C471 Dy441 2.738 . S
C471 O451 1.255 . S
C471 O452 1.249 . S
C471 C465 1.516 . S
H472 C458 0.930 . S
H473 C459 0.931 . S
H474 C460 0.931 . S
H475 C461 0.933 . S
H476 C467 0.930 . S
H477 C468 0.931 . S
H478 C469 0.931 . S
H479 C470 0.933 . S
Dy480 O483 2.307 . S
Dy480 O485 2.395 . S
Dy480 O486 2.379 . S
Dy480 O488 2.339 . S
Dy480 O490 2.298 . S
Dy480 O494 2.275 . S
Dy480 C502 2.738 . S
Dy481 O484 2.298 . S
Dy481 O487 2.275 . S
Dy481 O489 2.307 . S
Dy481 O491 2.395 . S
Dy481 O492 2.379 . S
Dy481 O495 2.339 . S
Dy481 C511 2.738 . S
C482 O494 1.254 . S
C482 O495 1.257 . S
O483 Dy480 2.307 . S
O483 C493 1.266 . S
O484 Dy481 2.298 . S
O484 C493 1.236 . S
O485 Dy480 2.395 . S
O485 C502 1.255 . S
O486 Dy480 2.379 . S
O486 C502 1.249 . S
O487 Dy481 2.275 . S
O487 C503 1.254 . S
O488 Dy480 2.339 . S
O488 C503 1.257 . S
O489 Dy481 2.307 . S
O489 C504 1.266 . S
O490 Dy480 2.298 . S
O490 C504 1.236 . S
O491 Dy481 2.395 . S
O491 C511 1.255 . S
O492 Dy481 2.379 . S
O492 C511 1.249 . S
C493 O483 1.266 . S
C493 O484 1.236 . S
O494 Dy480 2.275 . S
O494 C482 1.254 . S
O495 Dy481 2.339 . S
O495 C482 1.257 . S
C496 C499 1.344 . S
C496 C500 1.328 . S
C496 C502 1.516 . S
C497 C498 1.304 . S
C497 C501 1.323 . S
C498 C497 1.304 . S
C498 C499 1.371 . S
C498 H512 0.930 . S
C499 C496 1.344 . S
C499 C498 1.371 . S
C499 H513 0.931 . S
C500 C496 1.328 . S
C500 C501 1.433 . S
C500 H514 0.931 . S
C501 C497 1.323 . S
C501 C500 1.433 . S
C501 H515 0.933 . S
C502 Dy480 2.738 . S
C502 O485 1.255 . S
C502 O486 1.249 . S
C502 C496 1.516 . S
C503 O487 1.254 . S
C503 O488 1.257 . S
C504 O489 1.266 . S
C504 O490 1.236 . S
C505 C508 1.344 . S
C505 C509 1.328 . S
C505 C511 1.516 . S
C506 C507 1.304 . S
C506 C510 1.323 . S
C507 C506 1.304 . S
C507 C508 1.371 . S
C507 H516 0.930 . S
C508 C505 1.344 . S
C508 C507 1.371 . S
C508 H517 0.931 . S
C509 C505 1.328 . S
C509 C510 1.433 . S
C509 H518 0.931 . S
C510 C506 1.323 . S
C510 C509 1.433 . S
C510 H519 0.933 . S
C511 Dy481 2.738 . S
C511 O491 1.255 . S
C511 O492 1.249 . S
C511 C505 1.516 . S
H512 C498 0.930 . S
H513 C499 0.931 . S
H514 C500 0.931 . S
H515 C501 0.933 . S
H516 C507 0.930 . S
H517 C508 0.931 . S
H518 C509 0.931 . S
H519 C510 0.933 . S
Dy520 O523 2.307 . S
Dy520 O525 2.395 . S
Dy520 O526 2.379 . S
Dy520 O528 2.339 . S
Dy520 O530 2.298 . S
Dy520 O534 2.275 . S
Dy520 C542 2.738 . S
Dy521 O524 2.298 . S
Dy521 O527 2.275 . S
Dy521 O529 2.307 . S
Dy521 O531 2.395 . S
Dy521 O532 2.379 . S
Dy521 O535 2.339 . S
Dy521 C551 2.738 . S
C522 O534 1.254 . S
C522 O535 1.257 . S
O523 Dy520 2.307 . S
O523 C533 1.266 . S
O524 Dy521 2.298 . S
O524 C533 1.236 . S
O525 Dy520 2.395 . S
O525 C542 1.255 . S
O526 Dy520 2.379 . S
O526 C542 1.249 . S
O527 Dy521 2.275 . S
O527 C543 1.254 . S
O528 Dy520 2.339 . S
O528 C543 1.257 . S
O529 Dy521 2.307 . S
O529 C544 1.266 . S
O530 Dy520 2.298 . S
O530 C544 1.236 . S
O531 Dy521 2.395 . S
O531 C551 1.255 . S
O532 Dy521 2.379 . S
O532 C551 1.249 . S
C533 O523 1.266 . S
C533 O524 1.236 . S
O534 Dy520 2.275 . S
O534 C522 1.254 . S
O535 Dy521 2.339 . S
O535 C522 1.257 . S
C536 C539 1.344 . S
C536 C540 1.328 . S
C536 C542 1.516 . S
C537 C538 1.304 . S
C537 C541 1.323 . S
C538 C537 1.304 . S
C538 C539 1.371 . S
C538 H552 0.930 . S
C539 C536 1.344 . S
C539 C538 1.371 . S
C539 H553 0.931 . S
C540 C536 1.328 . S
C540 C541 1.433 . S
C540 H554 0.931 . S
C541 C537 1.323 . S
C541 C540 1.433 . S
C541 H555 0.933 . S
C542 Dy520 2.738 . S
C542 O525 1.255 . S
C542 O526 1.249 . S
C542 C536 1.516 . S
C543 O527 1.254 . S
C543 O528 1.257 . S
C544 O529 1.266 . S
C544 O530 1.236 . S
C545 C548 1.344 . S
C545 C549 1.328 . S
C545 C551 1.516 . S
C546 C547 1.304 . S
C546 C550 1.323 . S
C547 C546 1.304 . S
C547 C548 1.371 . S
C547 H556 0.930 . S
C548 C545 1.344 . S
C548 C547 1.371 . S
C548 H557 0.931 . S
C549 C545 1.328 . S
C549 C550 1.433 . S
C549 H558 0.931 . S
C550 C546 1.323 . S
C550 C549 1.433 . S
C550 H559 0.933 . S
C551 Dy521 2.738 . S
C551 O531 1.255 . S
C551 O532 1.249 . S
C551 C545 1.516 . S
H552 C538 0.930 . S
H553 C539 0.931 . S
H554 C540 0.931 . S
H555 C541 0.933 . S
H556 C547 0.930 . S
H557 C548 0.931 . S
H558 C549 0.931 . S
H559 C550 0.933 . S
Dy560 O563 2.307 . S
Dy560 O565 2.395 . S
Dy560 O566 2.379 . S
Dy560 O568 2.339 . S
Dy560 O570 2.298 . S
Dy560 O574 2.275 . S
Dy560 C582 2.738 . S
Dy561 O564 2.298 . S
Dy561 O567 2.275 . S
Dy561 O569 2.307 . S
Dy561 O571 2.395 . S
Dy561 O572 2.379 . S
Dy561 O575 2.339 . S
Dy561 C591 2.738 . S
C562 O574 1.254 . S
C562 O575 1.257 . S
O563 Dy560 2.307 . S
O563 C573 1.266 . S
O564 Dy561 2.298 . S
O564 C573 1.236 . S
O565 Dy560 2.395 . S
O565 C582 1.255 . S
O566 Dy560 2.379 . S
O566 C582 1.249 . S
O567 Dy561 2.275 . S
O567 C583 1.254 . S
O568 Dy560 2.339 . S
O568 C583 1.257 . S
O569 Dy561 2.307 . S
O569 C584 1.266 . S
O570 Dy560 2.298 . S
O570 C584 1.236 . S
O571 Dy561 2.395 . S
O571 C591 1.255 . S
O572 Dy561 2.379 . S
O572 C591 1.249 . S
C573 O563 1.266 . S
C573 O564 1.236 . S
O574 Dy560 2.275 . S
O574 C562 1.254 . S
O575 Dy561 2.339 . S
O575 C562 1.257 . S
C576 C579 1.344 . S
C576 C580 1.328 . S
C576 C582 1.516 . S
C577 C578 1.304 . S
C577 C581 1.323 . S
C578 C577 1.304 . S
C578 C579 1.371 . S
C578 H592 0.930 . S
C579 C576 1.344 . S
C579 C578 1.371 . S
C579 H593 0.931 . S
C580 C576 1.328 . S
C580 C581 1.433 . S
C580 H594 0.931 . S
C581 C577 1.323 . S
C581 C580 1.433 . S
C581 H595 0.933 . S
C582 Dy560 2.738 . S
C582 O565 1.255 . S
C582 O566 1.249 . S
C582 C576 1.516 . S
C583 O567 1.254 . S
C583 O568 1.257 . S
C584 O569 1.266 . S
C584 O570 1.236 . S
C585 C588 1.344 . S
C585 C589 1.328 . S
C585 C591 1.516 . S
C586 C587 1.304 . S
C586 C590 1.323 . S
C587 C586 1.304 . S
C587 C588 1.371 . S
C587 H596 0.930 . S
C588 C585 1.344 . S
C588 C587 1.371 . S
C588 H597 0.931 . S
C589 C585 1.328 . S
C589 C590 1.433 . S
C589 H598 0.931 . S
C590 C586 1.323 . S
C590 C589 1.433 . S
C590 H599 0.933 . S
C591 Dy561 2.738 . S
C591 O571 1.255 . S
C591 O572 1.249 . S
C591 C585 1.516 . S
H592 C578 0.930 . S
H593 C579 0.931 . S
H594 C580 0.931 . S
H595 C581 0.933 . S
H596 C587 0.930 . S
H597 C588 0.931 . S
H598 C589 0.931 . S
H599 C590 0.933 . S
Dy600 O603 2.307 . S
Dy600 O605 2.400 1_554 S
Dy600 O606 2.379 . S
Dy600 O608 2.339 . S
Dy600 O610 2.298 . S
Dy600 O614 2.275 . S
Dy600 C622 2.740 . S
Dy601 O604 2.298 . S
Dy601 O607 2.275 . S
Dy601 O609 2.307 . S
Dy601 O611 2.395 . S
Dy601 O612 2.379 . S
Dy601 O615 2.339 . S
Dy601 C631 2.738 . S
C602 O614 1.254 . S
C602 O615 1.257 . S
O603 Dy600 2.307 . S
O603 C613 1.266 . S
O604 Dy601 2.298 . S
O604 C613 1.236 . S
O605 Dy600 2.400 1_556 S
O605 C622 1.255 1_556 S
O606 Dy600 2.379 . S
O606 C622 1.251 . S
O607 Dy601 2.275 . S
O607 C623 1.254 . S
O608 Dy600 2.339 . S
O608 C623 1.257 . S
O609 Dy601 2.307 . S
O609 C624 1.266 1_554 S
O610 Dy600 2.298 . S
O610 C624 1.236 1_554 S
O611 Dy601 2.395 . S
O611 C631 1.255 . S
O612 Dy601 2.379 . S
O612 C631 1.249 . S
C613 O603 1.266 . S
C613 O604 1.236 . S
O614 Dy600 2.275 . S
O614 C602 1.254 . S
O615 Dy601 2.339 . S
O615 C602 1.257 . S
C616 C619 1.344 . S
C616 C620 1.328 . S
C616 C622 1.514 1_556 S
C617 C618 1.304 . S
C617 C621 1.323 . S
C618 C617 1.304 . S
C618 C619 1.371 . S
C618 H632 0.930 . S
C619 C616 1.344 . S
C619 C618 1.371 . S
C619 H633 0.931 . S
C620 C616 1.328 . S
C620 C621 1.433 . S
C620 H634 0.931 . S
C621 C617 1.323 . S
C621 C620 1.433 . S
C621 H635 0.933 . S
C622 Dy600 2.740 . S
C622 O605 1.255 1_554 S
C622 O606 1.251 . S
C622 C616 1.514 1_554 S
C623 O607 1.254 . S
C623 O608 1.257 . S
C624 O609 1.266 1_556 S
C624 O610 1.236 1_556 S
C625 C628 1.344 . S
C625 C629 1.328 . S
C625 C631 1.516 . S
C626 C627 1.304 . S
C626 C630 1.323 . S
C627 C626 1.304 . S
C627 C628 1.371 . S
C627 H636 0.930 . S
C628 C625 1.344 . S
C628 C627 1.371 . S
C628 H637 0.931 . S
C629 C625 1.328 . S
C629 C630 1.433 . S
C629 H638 0.931 . S
C630 C626 1.323 . S
C630 C629 1.433 . S
C630 H639 0.933 . S
C631 Dy601 2.738 . S
C631 O611 1.255 . S
C631 O612 1.249 . S
C631 C625 1.516 . S
H632 C618 0.930 . S
H633 C619 0.931 . S
H634 C620 0.931 . S
H635 C621 0.933 . S
H636 C627 0.930 . S
H637 C628 0.931 . S
H638 C629 0.931 . S
H639 C630 0.933 . S
Dy640 O643 2.307 . S
Dy640 O645 2.395 . S
Dy640 O646 2.379 . S
Dy640 O648 2.339 . S
Dy640 O650 2.298 . S
Dy640 O654 2.275 . S
Dy640 C662 2.738 . S
Dy641 O644 2.298 . S
Dy641 O647 2.275 . S
Dy641 O649 2.307 . S
Dy641 O651 2.395 . S
Dy641 O652 2.379 . S
Dy641 O655 2.339 . S
Dy641 C671 2.738 . S
C642 O654 1.254 . S
C642 O655 1.257 . S
O643 Dy640 2.307 . S
O643 C653 1.266 . S
O644 Dy641 2.298 . S
O644 C653 1.236 . S
O645 Dy640 2.395 . S
O645 C662 1.255 . S
O646 Dy640 2.379 . S
O646 C662 1.249 . S
O647 Dy641 2.275 . S
O647 C663 1.254 . S
O648 Dy640 2.339 . S
O648 C663 1.257 . S
O649 Dy641 2.307 . S
O649 C664 1.266 . S
O650 Dy640 2.298 . S
O650 C664 1.236 . S
O651 Dy641 2.395 . S
O651 C671 1.255 . S
O652 Dy641 2.379 . S
O652 C671 1.249 . S
C653 O643 1.266 . S
C653 O644 1.236 . S
O654 Dy640 2.275 . S
O654 C642 1.254 . S
O655 Dy641 2.339 . S
O655 C642 1.257 . S
C656 C659 1.344 . S
C656 C660 1.328 . S
C656 C662 1.516 . S
C657 C658 1.304 . S
C657 C661 1.323 . S
C658 C657 1.304 . S
C658 C659 1.371 . S
C658 H672 0.930 . S
C659 C656 1.344 . S
C659 C658 1.371 . S
C659 H673 0.931 . S
C660 C656 1.328 . S
C660 C661 1.433 . S
C660 H674 0.931 . S
C661 C657 1.323 . S
C661 C660 1.433 . S
C661 H675 0.933 . S
C662 Dy640 2.738 . S
C662 O645 1.255 . S
C662 O646 1.249 . S
C662 C656 1.516 . S
C663 O647 1.254 . S
C663 O648 1.257 . S
C664 O649 1.266 . S
C664 O650 1.236 . S
C665 C668 1.344 . S
C665 C669 1.328 . S
C665 C671 1.516 . S
C666 C667 1.304 . S
C666 C670 1.323 . S
C667 C666 1.304 . S
C667 C668 1.371 . S
C667 H676 0.930 . S
C668 C665 1.344 . S
C668 C667 1.371 . S
C668 H677 0.931 . S
C669 C665 1.328 . S
C669 C670 1.433 . S
C669 H678 0.931 . S
C670 C666 1.323 . S
C670 C669 1.433 . S
C670 H679 0.933 . S
C671 Dy641 2.738 . S
C671 O651 1.255 . S
C671 O652 1.249 . S
C671 C665 1.516 . S
H672 C658 0.930 . S
H673 C659 0.931 . S
H674 C660 0.931 . S
H675 C661 0.933 . S
H676 C667 0.930 . S
H677 C668 0.931 . S
H678 C669 0.931 . S
H679 C670 0.933 . S
Dy680 O683 2.307 . S
Dy680 O685 2.395 . S
Dy680 O686 2.379 . S
Dy680 O688 2.339 . S
Dy680 O690 2.298 . S
Dy680 O694 2.275 . S
Dy680 C702 2.738 . S
Dy681 O684 2.298 . S
Dy681 O687 2.275 . S
Dy681 O689 2.307 . S
Dy681 O691 2.400 1_554 S
Dy681 O692 2.379 . S
Dy681 O695 2.339 . S
Dy681 C711 2.740 . S
C682 O694 1.254 . S
C682 O695 1.257 . S
O683 Dy680 2.307 . S
O683 C693 1.266 1_554 S
O684 Dy681 2.298 . S
O684 C693 1.236 1_554 S
O685 Dy680 2.395 . S
O685 C702 1.255 . S
O686 Dy680 2.379 . S
O686 C702 1.249 . S
O687 Dy681 2.275 . S
O687 C703 1.254 . S
O688 Dy680 2.339 . S
O688 C703 1.257 . S
O689 Dy681 2.307 . S
O689 C704 1.266 . S
O690 Dy680 2.298 . S
O690 C704 1.236 . S
O691 Dy681 2.400 1_556 S
O691 C711 1.255 1_556 S
O692 Dy681 2.379 . S
O692 C711 1.251 . S
C693 O683 1.266 1_556 S
C693 O684 1.236 1_556 S
O694 Dy680 2.275 . S
O694 C682 1.254 . S
O695 Dy681 2.339 . S
O695 C682 1.257 . S
C696 C699 1.344 . S
C696 C700 1.328 . S
C696 C702 1.516 . S
C697 C698 1.304 . S
C697 C701 1.323 . S
C698 C697 1.304 . S
C698 C699 1.371 . S
C698 H712 0.930 . S
C699 C696 1.344 . S
C699 C698 1.371 . S
C699 H713 0.931 . S
C700 C696 1.328 . S
C700 C701 1.433 . S
C700 H714 0.931 . S
C701 C697 1.323 . S
C701 C700 1.433 . S
C701 H715 0.933 . S
C702 Dy680 2.738 . S
C702 O685 1.255 . S
C702 O686 1.249 . S
C702 C696 1.516 . S
C703 O687 1.254 . S
C703 O688 1.257 . S
C704 O689 1.266 . S
C704 O690 1.236 . S
C705 C708 1.344 . S
C705 C709 1.328 . S
C705 C711 1.514 1_556 S
C706 C707 1.304 . S
C706 C710 1.323 . S
C707 C706 1.304 . S
C707 C708 1.371 . S
C707 H716 0.930 . S
C708 C705 1.344 . S
C708 C707 1.371 . S
C708 H717 0.931 . S
C709 C705 1.328 . S
C709 C710 1.433 . S
C709 H718 0.931 . S
C710 C706 1.323 . S
C710 C709 1.433 . S
C710 H719 0.933 . S
C711 Dy681 2.740 . S
C711 O691 1.255 1_554 S
C711 O692 1.251 . S
C711 C705 1.514 1_554 S
H712 C698 0.930 . S
H713 C699 0.931 . S
H714 C700 0.931 . S
H715 C701 0.933 . S
H716 C707 0.930 . S
H717 C708 0.931 . S
H718 C709 0.931 . S
H719 C710 0.933 . S
Dy720 O723 2.307 . S
Dy720 O725 2.395 . S
Dy720 O726 2.379 . S
Dy720 O728 2.339 . S
Dy720 O730 2.298 . S
Dy720 O734 2.275 . S
Dy720 C742 2.738 . S
Dy721 O724 2.298 . S
Dy721 O727 2.275 . S
Dy721 O729 2.307 . S
Dy721 O731 2.395 . S
Dy721 O732 2.379 . S
Dy721 O735 2.339 . S
Dy721 C751 2.738 . S
C722 O734 1.254 . S
C722 O735 1.257 . S
O723 Dy720 2.307 . S
O723 C733 1.266 . S
O724 Dy721 2.298 . S
O724 C733 1.236 . S
O725 Dy720 2.395 . S
O725 C742 1.255 . S
O726 Dy720 2.379 . S
O726 C742 1.249 . S
O727 Dy721 2.275 . S
O727 C743 1.254 . S
O728 Dy720 2.339 . S
O728 C743 1.257 . S
O729 Dy721 2.307 . S
O729 C744 1.266 . S
O730 Dy720 2.298 . S
O730 C744 1.236 . S
O731 Dy721 2.395 . S
O731 C751 1.255 . S
O732 Dy721 2.379 . S
O732 C751 1.249 . S
C733 O723 1.266 . S
C733 O724 1.236 . S
O734 Dy720 2.275 . S
O734 C722 1.254 . S
O735 Dy721 2.339 . S
O735 C722 1.257 . S
C736 C739 1.344 . S
C736 C740 1.328 . S
C736 C742 1.516 . S
C737 C738 1.304 . S
C737 C741 1.323 . S
C738 C737 1.304 . S
C738 C739 1.371 . S
C738 H752 0.930 . S
C739 C736 1.344 . S
C739 C738 1.371 . S
C739 H753 0.931 . S
C740 C736 1.328 . S
C740 C741 1.433 . S
C740 H754 0.931 . S
C741 C737 1.323 . S
C741 C740 1.433 . S
C741 H755 0.933 . S
C742 Dy720 2.738 . S
C742 O725 1.255 . S
C742 O726 1.249 . S
C742 C736 1.516 . S
C743 O727 1.254 . S
C743 O728 1.257 . S
C744 O729 1.266 . S
C744 O730 1.236 . S
C745 C748 1.344 . S
C745 C749 1.328 . S
C745 C751 1.516 . S
C746 C747 1.304 . S
C746 C750 1.323 . S
C747 C746 1.304 . S
C747 C748 1.371 . S
C747 H756 0.930 . S
C748 C745 1.344 . S
C748 C747 1.371 . S
C748 H757 0.931 . S
C749 C745 1.328 . S
C749 C750 1.433 . S
C749 H758 0.931 . S
C750 C746 1.323 . S
C750 C749 1.433 . S
C750 H759 0.933 . S
C751 Dy721 2.738 . S
C751 O731 1.255 . S
C751 O732 1.249 . S
C751 C745 1.516 . S
H752 C738 0.930 . S
H753 C739 0.931 . S
H754 C740 0.931 . S
H755 C741 0.933 . S
H756 C747 0.930 . S
H757 C748 0.931 . S
H758 C749 0.931 . S
H759 C750 0.933 . S
Dy760 O763 2.307 . S
Dy760 O765 2.395 . S
Dy760 O766 2.379 . S
Dy760 O768 2.339 . S
Dy760 O770 2.298 . S
Dy760 O774 2.275 . S
Dy760 C782 2.738 . S
Dy761 O764 2.298 . S
Dy761 O767 2.275 . S
Dy761 O769 2.307 . S
Dy761 O771 2.395 . S
Dy761 O772 2.379 . S
Dy761 O775 2.339 . S
Dy761 C791 2.738 . S
C762 O774 1.254 . S
C762 O775 1.257 . S
O763 Dy760 2.307 . S
O763 C773 1.266 . S
O764 Dy761 2.298 . S
O764 C773 1.236 . S
O765 Dy760 2.395 . S
O765 C782 1.255 . S
O766 Dy760 2.379 . S
O766 C782 1.249 . S
O767 Dy761 2.275 . S
O767 C783 1.254 . S
O768 Dy760 2.339 . S
O768 C783 1.257 . S
O769 Dy761 2.307 . S
O769 C784 1.266 . S
O770 Dy760 2.298 . S
O770 C784 1.236 . S
O771 Dy761 2.395 . S
O771 C791 1.255 . S
O772 Dy761 2.379 . S
O772 C791 1.249 . S
C773 O763 1.266 . S
C773 O764 1.236 . S
O774 Dy760 2.275 . S
O774 C762 1.254 . S
O775 Dy761 2.339 . S
O775 C762 1.257 . S
C776 C779 1.344 . S
C776 C780 1.328 . S
C776 C782 1.516 . S
C777 C778 1.304 . S
C777 C781 1.323 . S
C778 C777 1.304 . S
C778 C779 1.371 . S
C778 H792 0.930 . S
C779 C776 1.344 . S
C779 C778 1.371 . S
C779 H793 0.931 . S
C780 C776 1.328 . S
C780 C781 1.433 . S
C780 H794 0.931 . S
C781 C777 1.323 . S
C781 C780 1.433 . S
C781 H795 0.933 . S
C782 Dy760 2.738 . S
C782 O765 1.255 . S
C782 O766 1.249 . S
C782 C776 1.516 . S
C783 O767 1.254 . S
C783 O768 1.257 . S
C784 O769 1.266 . S
C784 O770 1.236 . S
C785 C788 1.344 . S
C785 C789 1.328 . S
C785 C791 1.516 . S
C786 C787 1.304 . S
C786 C790 1.323 . S
C787 C786 1.304 . S
C787 C788 1.371 . S
C787 H796 0.930 . S
C788 C785 1.344 . S
C788 C787 1.371 . S
C788 H797 0.931 . S
C789 C785 1.328 . S
C789 C790 1.433 . S
C789 H798 0.931 . S
C790 C786 1.323 . S
C790 C789 1.433 . S
C790 H799 0.933 . S
C791 Dy761 2.738 . S
C791 O771 1.255 . S
C791 O772 1.249 . S
C791 C785 1.516 . S
H792 C778 0.930 . S
H793 C779 0.931 . S
H794 C780 0.931 . S
H795 C781 0.933 . S
H796 C787 0.930 . S
H797 C788 0.931 . S
H798 C789 0.931 . S
H799 C790 0.933 . S
Dy800 O803 2.307 . S
Dy800 O805 2.395 . S
Dy800 O806 2.379 . S
Dy800 O808 2.339 . S
Dy800 O810 2.298 . S
Dy800 O814 2.275 . S
Dy800 C822 2.738 . S
Dy801 O804 2.298 . S
Dy801 O807 2.275 . S
Dy801 O809 2.307 . S
Dy801 O811 2.395 . S
Dy801 O812 2.379 . S
Dy801 O815 2.339 . S
Dy801 C831 2.738 . S
C802 O814 1.254 . S
C802 O815 1.257 . S
O803 Dy800 2.307 . S
O803 C813 1.266 . S
O804 Dy801 2.298 . S
O804 C813 1.236 . S
O805 Dy800 2.395 . S
O805 C822 1.255 . S
O806 Dy800 2.379 . S
O806 C822 1.249 . S
O807 Dy801 2.275 . S
O807 C823 1.254 . S
O808 Dy800 2.339 . S
O808 C823 1.257 . S
O809 Dy801 2.307 . S
O809 C824 1.266 . S
O810 Dy800 2.298 . S
O810 C824 1.236 . S
O811 Dy801 2.395 . S
O811 C831 1.255 . S
O812 Dy801 2.379 . S
O812 C831 1.249 . S
C813 O803 1.266 . S
C813 O804 1.236 . S
O814 Dy800 2.275 . S
O814 C802 1.254 . S
O815 Dy801 2.339 . S
O815 C802 1.257 . S
C816 C819 1.344 . S
C816 C820 1.328 . S
C816 C822 1.516 . S
C817 C818 1.304 . S
C817 C821 1.323 . S
C818 C817 1.304 . S
C818 C819 1.371 . S
C818 H832 0.930 . S
C819 C816 1.344 . S
C819 C818 1.371 . S
C819 H833 0.931 . S
C820 C816 1.328 . S
C820 C821 1.433 . S
C820 H834 0.931 . S
C821 C817 1.323 . S
C821 C820 1.433 . S
C821 H835 0.933 . S
C822 Dy800 2.738 . S
C822 O805 1.255 . S
C822 O806 1.249 . S
C822 C816 1.516 . S
C823 O807 1.254 . S
C823 O808 1.257 . S
C824 O809 1.266 . S
C824 O810 1.236 . S
C825 C828 1.344 . S
C825 C829 1.328 . S
C825 C831 1.516 . S
C826 C827 1.304 . S
C826 C830 1.323 . S
C827 C826 1.304 . S
C827 C828 1.371 . S
C827 H836 0.930 . S
C828 C825 1.344 . S
C828 C827 1.371 . S
C828 H837 0.931 . S
C829 C825 1.328 . S
C829 C830 1.433 . S
C829 H838 0.931 . S
C830 C826 1.323 . S
C830 C829 1.433 . S
C830 H839 0.933 . S
C831 Dy801 2.738 . S
C831 O811 1.255 . S
C831 O812 1.249 . S
C831 C825 1.516 . S
H832 C818 0.930 . S
H833 C819 0.931 . S
H834 C820 0.931 . S
H835 C821 0.933 . S
H836 C827 0.930 . S
H837 C828 0.931 . S
H838 C829 0.931 . S
H839 C830 0.933 . S
Dy840 O843 2.307 . S
Dy840 O845 2.395 . S
Dy840 O846 2.379 . S
Dy840 O848 2.339 . S
Dy840 O850 2.298 . S
Dy840 O854 2.275 . S
Dy840 C862 2.738 . S
Dy841 O844 2.298 . S
Dy841 O847 2.275 . S
Dy841 O849 2.307 . S
Dy841 O851 2.400 1_556 S
Dy841 O852 2.379 . S
Dy841 O855 2.339 . S
Dy841 C871 2.740 . S
C842 O854 1.254 . S
C842 O855 1.257 . S
O843 Dy840 2.307 . S
O843 C853 1.266 1_556 S
O844 Dy841 2.298 . S
O844 C853 1.236 1_556 S
O845 Dy840 2.395 . S
O845 C862 1.255 . S
O846 Dy840 2.379 . S
O846 C862 1.249 . S
O847 Dy841 2.275 . S
O847 C863 1.254 . S
O848 Dy840 2.339 . S
O848 C863 1.257 . S
O849 Dy841 2.307 . S
O849 C864 1.266 . S
O850 Dy840 2.298 . S
O850 C864 1.236 . S
O851 Dy841 2.400 1_554 S
O851 C871 1.255 1_554 S
O852 Dy841 2.379 . S
O852 C871 1.251 . S
C853 O843 1.266 1_554 S
C853 O844 1.236 1_554 S
O854 Dy840 2.275 . S
O854 C842 1.254 . S
O855 Dy841 2.339 . S
O855 C842 1.257 . S
C856 C859 1.344 . S
C856 C860 1.328 . S
C856 C862 1.516 . S
C857 C858 1.304 . S
C857 C861 1.323 . S
C858 C857 1.304 . S
C858 C859 1.371 . S
C858 H872 0.930 . S
C859 C856 1.344 . S
C859 C858 1.371 . S
C859 H873 0.931 . S
C860 C856 1.328 . S
C860 C861 1.433 . S
C860 H874 0.931 . S
C861 C857 1.323 . S
C861 C860 1.433 . S
C861 H875 0.933 . S
C862 Dy840 2.738 . S
C862 O845 1.255 . S
C862 O846 1.249 . S
C862 C856 1.516 . S
C863 O847 1.254 . S
C863 O848 1.257 . S
C864 O849 1.266 . S
C864 O850 1.236 . S
C865 C868 1.344 . S
C865 C869 1.328 . S
C865 C871 1.514 1_554 S
C866 C867 1.304 . S
C866 C870 1.323 . S
C867 C866 1.304 . S
C867 C868 1.371 . S
C867 H876 0.930 . S
C868 C865 1.344 . S
C868 C867 1.371 . S
C868 H877 0.931 . S
C869 C865 1.328 . S
C869 C870 1.433 . S
C869 H878 0.931 . S
C870 C866 1.323 . S
C870 C869 1.433 . S
C870 H879 0.933 . S
C871 Dy841 2.740 . S
C871 O851 1.255 1_556 S
C871 O852 1.251 . S
C871 C865 1.514 1_556 S
H872 C858 0.930 . S
H873 C859 0.931 . S
H874 C860 0.931 . S
H875 C861 0.933 . S
H876 C867 0.930 . S
H877 C868 0.931 . S
H878 C869 0.931 . S
H879 C870 0.933 . S
Dy880 O883 2.307 . S
Dy880 O885 2.395 . S
Dy880 O886 2.379 . S
Dy880 O888 2.339 . S
Dy880 O890 2.298 . S
Dy880 O894 2.275 . S
Dy880 C902 2.738 . S
Dy881 O884 2.298 . S
Dy881 O887 2.275 . S
Dy881 O889 2.307 . S
Dy881 O891 2.395 . S
Dy881 O892 2.379 . S
Dy881 O895 2.339 . S
Dy881 C911 2.738 . S
C882 O894 1.254 . S
C882 O895 1.257 . S
O883 Dy880 2.307 . S
O883 C893 1.266 . S
O884 Dy881 2.298 . S
O884 C893 1.236 . S
O885 Dy880 2.395 . S
O885 C902 1.255 . S
O886 Dy880 2.379 . S
O886 C902 1.249 . S
O887 Dy881 2.275 . S
O887 C903 1.254 . S
O888 Dy880 2.339 . S
O888 C903 1.257 . S
O889 Dy881 2.307 . S
O889 C904 1.266 . S
O890 Dy880 2.298 . S
O890 C904 1.236 . S
O891 Dy881 2.395 . S
O891 C911 1.255 . S
O892 Dy881 2.379 . S
O892 C911 1.249 . S
C893 O883 1.266 . S
C893 O884 1.236 . S
O894 Dy880 2.275 . S
O894 C882 1.254 . S
O895 Dy881 2.339 . S
O895 C882 1.257 . S
C896 C899 1.344 . S
C896 C900 1.328 . S
C896 C902 1.516 . S
C897 C898 1.304 . S
C897 C901 1.323 . S
C898 C897 1.304 . S
C898 C899 1.371 . S
C898 H912 0.930 . S
C899 C896 1.344 . S
C899 C898 1.371 . S
C899 H913 0.931 . S
C900 C896 1.328 . S
C900 C901 1.433 . S
C900 H914 0.931 . S
C901 C897 1.323 . S
C901 C900 1.433 . S
C901 H915 0.933 . S
C902 Dy880 2.738 . S
C902 O885 1.255 . S
C902 O886 1.249 . S
C902 C896 1.516 . S
C903 O887 1.254 . S
C903 O888 1.257 . S
C904 O889 1.266 . S
C904 O890 1.236 . S
C905 C908 1.344 . S
C905 C909 1.328 . S
C905 C911 1.516 . S
C906 C907 1.304 . S
C906 C910 1.323 . S
C907 C906 1.304 . S
C907 C908 1.371 . S
C907 H916 0.930 . S
C908 C905 1.344 . S
C908 C907 1.371 . S
C908 H917 0.931 . S
C909 C905 1.328 . S
C909 C910 1.433 . S
C909 H918 0.931 . S
C910 C906 1.323 . S
C910 C909 1.433 . S
C910 H919 0.933 . S
C911 Dy881 2.738 . S
C911 O891 1.255 . S
C911 O892 1.249 . S
C911 C905 1.516 . S
H912 C898 0.930 . S
H913 C899 0.931 . S
H914 C900 0.931 . S
H915 C901 0.933 . S
H916 C907 0.930 . S
H917 C908 0.931 . S
H918 C909 0.931 . S
H919 C910 0.933 . S
Dy920 O923 2.307 . S
Dy920 O925 2.395 . S
Dy920 O926 2.379 . S
Dy920 O928 2.339 . S
Dy920 O930 2.298 . S
Dy920 O934 2.275 . S
Dy920 C942 2.738 . S
Dy921 O924 2.298 . S
Dy921 O927 2.275 . S
Dy921 O929 2.307 . S
Dy921 O931 2.395 . S
Dy921 O932 2.379 . S
Dy921 O935 2.339 . S
Dy921 C951 2.738 . S
C922 O934 1.254 . S
C922 O935 1.257 . S
O923 Dy920 2.307 . S
O923 C933 1.266 . S
O924 Dy921 2.298 . S
O924 C933 1.236 . S
O925 Dy920 2.395 . S
O925 C942 1.255 . S
O926 Dy920 2.379 . S
O926 C942 1.249 . S
O927 Dy921 2.275 . S
O927 C943 1.254 . S
O928 Dy920 2.339 . S
O928 C943 1.257 . S
O929 Dy921 2.307 . S
O929 C944 1.266 . S
O930 Dy920 2.298 . S
O930 C944 1.236 . S
O931 Dy921 2.395 . S
O931 C951 1.255 . S
O932 Dy921 2.379 . S
O932 C951 1.249 . S
C933 O923 1.266 . S
C933 O924 1.236 . S
O934 Dy920 2.275 . S
O934 C922 1.254 . S
O935 Dy921 2.339 . S
O935 C922 1.257 . S
C936 C939 1.344 . S
C936 C940 1.328 . S
C936 C942 1.516 . S
C937 C938 1.304 . S
C937 C941 1.323 . S
C938 C937 1.304 . S
C938 C939 1.371 . S
C938 H952 0.930 . S
C939 C936 1.344 . S
C939 C938 1.371 . S
C939 H953 0.931 . S
C940 C936 1.328 . S
C940 C941 1.433 . S
C940 H954 0.931 . S
C941 C937 1.323 . S
C941 C940 1.433 . S
C941 H955 0.933 . S
C942 Dy920 2.738 . S
C942 O925 1.255 . S
C942 O926 1.249 . S
C942 C936 1.516 . S
C943 O927 1.254 . S
C943 O928 1.257 . S
C944 O929 1.266 . S
C944 O930 1.236 . S
C945 C948 1.344 . S
C945 C949 1.328 . S
C945 C951 1.516 . S
C946 C947 1.304 . S
C946 C950 1.323 . S
C947 C946 1.304 . S
C947 C948 1.371 . S
C947 H956 0.930 . S
C948 C945 1.344 . S
C948 C947 1.371 . S
C948 H957 0.931 . S
C949 C945 1.328 . S
C949 C950 1.433 . S
C949 H958 0.931 . S
C950 C946 1.323 . S
C950 C949 1.433 . S
C950 H959 0.933 . S
C951 Dy921 2.738 . S
C951 O931 1.255 . S
C951 O932 1.249 . S
C951 C945 1.516 . S
H952 C938 0.930 . S
H953 C939 0.931 . S
H954 C940 0.931 . S
H955 C941 0.933 . S
H956 C947 0.930 . S
H957 C948 0.931 . S
H958 C949 0.931 . S
H959 C950 0.933 . S
Dy960 O963 2.307 . S
Dy960 O965 2.395 . S
Dy960 O966 2.379 . S
Dy960 O968 2.339 . S
Dy960 O970 2.298 . S
Dy960 O974 2.275 . S
Dy960 C982 2.738 . S
Dy961 O964 2.298 . S
Dy961 O967 2.275 . S
Dy961 O969 2.307 . S
Dy961 O971 2.395 . S
Dy961 O972 2.379 . S
Dy961 O975 2.339 . S
Dy961 C991 2.738 . S
C962 O974 1.254 . S
C962 O975 1.257 . S
O963 Dy960 2.307 . S
O963 C973 1.266 . S
O964 Dy961 2.298 . S
O964 C973 1.236 . S
O965 Dy960 2.395 . S
O965 C982 1.255 . S
O966 Dy960 2.379 . S
O966 C982 1.249 . S
O967 Dy961 2.275 . S
O967 C983 1.254 . S
O968 Dy960 2.339 . S
O968 C983 1.257 . S
O969 Dy961 2.307 . S
O969 C984 1.266 . S
O970 Dy960 2.298 . S
O970 C984 1.236 . S
O971 Dy961 2.395 . S
O971 C991 1.255 . S
O972 Dy961 2.379 . S
O972 C991 1.249 . S
C973 O963 1.266 . S
C973 O964 1.236 . S
O974 Dy960 2.275 . S
O974 C962 1.254 . S
O975 Dy961 2.339 . S
O975 C962 1.257 . S
C976 C979 1.344 . S
C976 C980 1.328 . S
C976 C982 1.516 . S
C977 C978 1.304 . S
C977 C981 1.323 . S
C978 C977 1.304 . S
C978 C979 1.371 . S
C978 H992 0.930 . S
C979 C976 1.344 . S
C979 C978 1.371 . S
C979 H993 0.931 . S
C980 C976 1.328 . S
C980 C981 1.433 . S
C980 H994 0.931 . S
C981 C977 1.323 . S
C981 C980 1.433 . S
C981 H995 0.933 . S
C982 Dy960 2.738 . S
C982 O965 1.255 . S
C982 O966 1.249 . S
C982 C976 1.516 . S
C983 O967 1.254 . S
C983 O968 1.257 . S
C984 O969 1.266 . S
C984 O970 1.236 . S
C985 C988 1.344 . S
C985 C989 1.328 . S
C985 C991 1.516 . S
C986 C987 1.304 . S
C986 C990 1.323 . S
C987 C986 1.304 . S
C987 C988 1.371 . S
C987 H996 0.930 . S
C988 C985 1.344 . S
C988 C987 1.371 . S
C988 H997 0.931 . S
C989 C985 1.328 . S
C989 C990 1.433 . S
C989 H998 0.931 . S
C990 C986 1.323 . S
C990 C989 1.433 . S
C990 H999 0.933 . S
C991 Dy961 2.738 . S
C991 O971 1.255 . S
C991 O972 1.249 . S
C991 C985 1.516 . S
H992 C978 0.930 . S
H993 C979 0.931 . S
H994 C980 0.931 . S
H995 C981 0.933 . S
H996 C987 0.930 . S
H997 C988 0.931 . S
H998 C989 0.931 . S
H999 C990 0.933 . S
Dy1000 O1003 2.307 . S
Dy1000 O1005 2.400 1_556 S
Dy1000 O1006 2.379 . S
Dy1000 O1008 2.339 . S
Dy1000 O1010 2.298 . S
Dy1000 O1014 2.275 . S
Dy1000 C1022 2.740 . S
Dy1001 O1004 2.298 . S
Dy1001 O1007 2.275 . S
Dy1001 O1009 2.307 . S
Dy1001 O1011 2.395 . S
Dy1001 O1012 2.379 . S
Dy1001 O1015 2.339 . S
Dy1001 C1031 2.738 . S
C1002 O1014 1.254 . S
C1002 O1015 1.257 . S
O1003 Dy1000 2.307 . S
O1003 C1013 1.266 . S
O1004 Dy1001 2.298 . S
O1004 C1013 1.236 . S
O1005 Dy1000 2.400 1_554 S
O1005 C1022 1.255 1_554 S
O1006 Dy1000 2.379 . S
O1006 C1022 1.251 . S
O1007 Dy1001 2.275 . S
O1007 C1023 1.254 . S
O1008 Dy1000 2.339 . S
O1008 C1023 1.257 . S
O1009 Dy1001 2.307 . S
O1009 C1024 1.266 1_556 S
O1010 Dy1000 2.298 . S
O1010 C1024 1.236 1_556 S
O1011 Dy1001 2.395 . S
O1011 C1031 1.255 . S
O1012 Dy1001 2.379 . S
O1012 C1031 1.249 . S
C1013 O1003 1.266 . S
C1013 O1004 1.236 . S
O1014 Dy1000 2.275 . S
O1014 C1002 1.254 . S
O1015 Dy1001 2.339 . S
O1015 C1002 1.257 . S
C1016 C1019 1.344 . S
C1016 C1020 1.328 . S
C1016 C1022 1.514 1_554 S
C1017 C1018 1.304 . S
C1017 C1021 1.323 . S
C1018 C1017 1.304 . S
C1018 C1019 1.371 . S
C1018 H1032 0.930 . S
C1019 C1016 1.344 . S
C1019 C1018 1.371 . S
C1019 H1033 0.931 . S
C1020 C1016 1.328 . S
C1020 C1021 1.433 . S
C1020 H1034 0.931 . S
C1021 C1017 1.323 . S
C1021 C1020 1.433 . S
C1021 H1035 0.933 . S
C1022 Dy1000 2.740 . S
C1022 O1005 1.255 1_556 S
C1022 O1006 1.251 . S
C1022 C1016 1.514 1_556 S
C1023 O1007 1.254 . S
C1023 O1008 1.257 . S
C1024 O1009 1.266 1_554 S
C1024 O1010 1.236 1_554 S
C1025 C1028 1.344 . S
C1025 C1029 1.328 . S
C1025 C1031 1.516 . S
C1026 C1027 1.304 . S
C1026 C1030 1.323 . S
C1027 C1026 1.304 . S
C1027 C1028 1.371 . S
C1027 H1036 0.930 . S
C1028 C1025 1.344 . S
C1028 C1027 1.371 . S
C1028 H1037 0.931 . S
C1029 C1025 1.328 . S
C1029 C1030 1.433 . S
C1029 H1038 0.931 . S
C1030 C1026 1.323 . S
C1030 C1029 1.433 . S
C1030 H1039 0.933 . S
C1031 Dy1001 2.738 . S
C1031 O1011 1.255 . S
C1031 O1012 1.249 . S
C1031 C1025 1.516 . S
H1032 C1018 0.930 . S
H1033 C1019 0.931 . S
H1034 C1020 0.931 . S
H1035 C1021 0.933 . S
H1036 C1027 0.930 . S
H1037 C1028 0.931 . S
H1038 C1029 0.931 . S
H1039 C1030 0.933 . S
Dy1040 O1043 2.307 . S
Dy1040 O1045 2.395 . S
Dy1040 O1046 2.379 . S
Dy1040 O1048 2.339 . S
Dy1040 O1050 2.298 . S
Dy1040 O1054 2.275 . S
Dy1040 C1062 2.738 . S
Dy1041 O1044 2.298 . S
Dy1041 O1047 2.275 . S
Dy1041 O1049 2.307 . S
Dy1041 O1051 2.395 . S
Dy1041 O1052 2.379 . S
Dy1041 O1055 2.339 . S
Dy1041 C1071 2.738 . S
C1042 O1054 1.254 . S
C1042 O1055 1.257 . S
O1043 Dy1040 2.307 . S
O1043 C1053 1.266 . S
O1044 Dy1041 2.298 . S
O1044 C1053 1.236 . S
O1045 Dy1040 2.395 . S
O1045 C1062 1.255 . S
O1046 Dy1040 2.379 . S
O1046 C1062 1.249 . S
O1047 Dy1041 2.275 . S
O1047 C1063 1.254 . S
O1048 Dy1040 2.339 . S
O1048 C1063 1.257 . S
O1049 Dy1041 2.307 . S
O1049 C1064 1.266 . S
O1050 Dy1040 2.298 . S
O1050 C1064 1.236 . S
O1051 Dy1041 2.395 . S
O1051 C1071 1.255 . S
O1052 Dy1041 2.379 . S
O1052 C1071 1.249 . S
C1053 O1043 1.266 . S
C1053 O1044 1.236 . S
O1054 Dy1040 2.275 . S
O1054 C1042 1.254 . S
O1055 Dy1041 2.339 . S
O1055 C1042 1.257 . S
C1056 C1059 1.344 . S
C1056 C1060 1.328 . S
C1056 C1062 1.516 . S
C1057 C1058 1.304 . S
C1057 C1061 1.323 . S
C1058 C1057 1.304 . S
C1058 C1059 1.371 . S
C1058 H1072 0.930 . S
C1059 C1056 1.344 . S
C1059 C1058 1.371 . S
C1059 H1073 0.931 . S
C1060 C1056 1.328 . S
C1060 C1061 1.433 . S
C1060 H1074 0.931 . S
C1061 C1057 1.323 . S
C1061 C1060 1.433 . S
C1061 H1075 0.933 . S
C1062 Dy1040 2.738 . S
C1062 O1045 1.255 . S
C1062 O1046 1.249 . S
C1062 C1056 1.516 . S
C1063 O1047 1.254 . S
C1063 O1048 1.257 . S
C1064 O1049 1.266 . S
C1064 O1050 1.236 . S
C1065 C1068 1.344 . S
C1065 C1069 1.328 . S
C1065 C1071 1.516 . S
C1066 C1067 1.304 . S
C1066 C1070 1.323 . S
C1067 C1066 1.304 . S
C1067 C1068 1.371 . S
C1067 H1076 0.930 . S
C1068 C1065 1.344 . S
C1068 C1067 1.371 . S
C1068 H1077 0.931 . S
C1069 C1065 1.328 . S
C1069 C1070 1.433 . S
C1069 H1078 0.931 . S
C1070 C1066 1.323 . S
C1070 C1069 1.433 . S
C1070 H1079 0.933 . S
C1071 Dy1041 2.738 . S
C1071 O1051 1.255 . S
C1071 O1052 1.249 . S
C1071 C1065 1.516 . S
H1072 C1058 0.930 . S
H1073 C1059 0.931 . S
H1074 C1060 0.931 . S
H1075 C1061 0.933 . S
H1076 C1067 0.930 . S
H1077 C1068 0.931 . S
H1078 C1069 0.931 . S
H1079 C1070 0.933 . S
Dy1080 O1083 2.307 . S
Dy1080 O1085 2.395 . S
Dy1080 O1086 2.379 . S
Dy1080 O1088 2.339 . S
Dy1080 O1090 2.298 . S
Dy1080 O1094 2.275 . S
Dy1080 C1102 2.738 . S
Dy1081 O1084 2.298 . S
Dy1081 O1087 2.275 . S
Dy1081 O1089 2.307 . S
Dy1081 O1091 2.395 . S
Dy1081 O1092 2.379 . S
Dy1081 O1095 2.339 . S
Dy1081 C1111 2.738 . S
C1082 O1094 1.254 . S
C1082 O1095 1.257 . S
O1083 Dy1080 2.307 . S
O1083 C1093 1.266 . S
O1084 Dy1081 2.298 . S
O1084 C1093 1.236 . S
O1085 Dy1080 2.395 . S
O1085 C1102 1.255 . S
O1086 Dy1080 2.379 . S
O1086 C1102 1.249 . S
O1087 Dy1081 2.275 . S
O1087 C1103 1.254 . S
O1088 Dy1080 2.339 . S
O1088 C1103 1.257 . S
O1089 Dy1081 2.307 . S
O1089 C1104 1.266 . S
O1090 Dy1080 2.298 . S
O1090 C1104 1.236 . S
O1091 Dy1081 2.395 . S
O1091 C1111 1.255 . S
O1092 Dy1081 2.379 . S
O1092 C1111 1.249 . S
C1093 O1083 1.266 . S
C1093 O1084 1.236 . S
O1094 Dy1080 2.275 . S
O1094 C1082 1.254 . S
O1095 Dy1081 2.339 . S
O1095 C1082 1.257 . S
C1096 C1099 1.344 . S
C1096 C1100 1.328 . S
C1096 C1102 1.516 . S
C1097 C1098 1.304 . S
C1097 C1101 1.323 . S
C1098 C1097 1.304 . S
C1098 C1099 1.371 . S
C1098 H1112 0.930 . S
C1099 C1096 1.344 . S
C1099 C1098 1.371 . S
C1099 H1113 0.931 . S
C1100 C1096 1.328 . S
C1100 C1101 1.433 . S
C1100 H1114 0.931 . S
C1101 C1097 1.323 . S
C1101 C1100 1.433 . S
C1101 H1115 0.933 . S
C1102 Dy1080 2.738 . S
C1102 O1085 1.255 . S
C1102 O1086 1.249 . S
C1102 C1096 1.516 . S
C1103 O1087 1.254 . S
C1103 O1088 1.257 . S
C1104 O1089 1.266 . S
C1104 O1090 1.236 . S
C1105 C1108 1.344 . S
C1105 C1109 1.328 . S
C1105 C1111 1.516 . S
C1106 C1107 1.304 . S
C1106 C1110 1.323 . S
C1107 C1106 1.304 . S
C1107 C1108 1.371 . S
C1107 H1116 0.930 . S
C1108 C1105 1.344 . S
C1108 C1107 1.371 . S
C1108 H1117 0.931 . S
C1109 C1105 1.328 . S
C1109 C1110 1.433 . S
C1109 H1118 0.931 . S
C1110 C1106 1.323 . S
C1110 C1109 1.433 . S
C1110 H1119 0.933 . S
C1111 Dy1081 2.738 . S
C1111 O1091 1.255 . S
C1111 O1092 1.249 . S
C1111 C1105 1.516 . S
H1112 C1098 0.930 . S
H1113 C1099 0.931 . S
H1114 C1100 0.931 . S
H1115 C1101 0.933 . S
H1116 C1107 0.930 . S
H1117 C1108 0.931 . S
H1118 C1109 0.931 . S
H1119 C1110 0.933 . S
Dy1120 O1123 2.307 . S
Dy1120 O1125 2.395 . S
Dy1120 O1126 2.379 . S
Dy1120 O1128 2.339 . S
Dy1120 O1130 2.298 . S
Dy1120 O1134 2.275 . S
Dy1120 C1142 2.738 . S
Dy1121 O1124 2.298 . S
Dy1121 O1127 2.275 . S
Dy1121 O1129 2.307 . S
Dy1121 O1131 2.395 . S
Dy1121 O1132 2.379 . S
Dy1121 O1135 2.339 . S
Dy1121 C1151 2.738 . S
C1122 O1134 1.254 . S
C1122 O1135 1.257 . S
O1123 Dy1120 2.307 . S
O1123 C1133 1.266 . S
O1124 Dy1121 2.298 . S
O1124 C1133 1.236 . S
O1125 Dy1120 2.395 . S
O1125 C1142 1.255 . S
O1126 Dy1120 2.379 . S
O1126 C1142 1.249 . S
O1127 Dy1121 2.275 . S
O1127 C1143 1.254 . S
O1128 Dy1120 2.339 . S
O1128 C1143 1.257 . S
O1129 Dy1121 2.307 . S
O1129 C1144 1.266 . S
O1130 Dy1120 2.298 . S
O1130 C1144 1.236 . S
O1131 Dy1121 2.395 . S
O1131 C1151 1.255 . S
O1132 Dy1121 2.379 . S
O1132 C1151 1.249 . S
C1133 O1123 1.266 . S
C1133 O1124 1.236 . S
O1134 Dy1120 2.275 . S
O1134 C1122 1.254 . S
O1135 Dy1121 2.339 . S
O1135 C1122 1.257 . S
C1136 C1139 1.344 . S
C1136 C1140 1.328 . S
C1136 C1142 1.516 . S
C1137 C1138 1.304 . S
C1137 C1141 1.323 . S
C1138 C1137 1.304 . S
C1138 C1139 1.371 . S
C1138 H1152 0.930 . S
C1139 C1136 1.344 . S
C1139 C1138 1.371 . S
C1139 H1153 0.931 . S
C1140 C1136 1.328 . S
C1140 C1141 1.433 . S
C1140 H1154 0.931 . S
C1141 C1137 1.323 . S
C1141 C1140 1.433 . S
C1141 H1155 0.933 . S
C1142 Dy1120 2.738 . S
C1142 O1125 1.255 . S
C1142 O1126 1.249 . S
C1142 C1136 1.516 . S
C1143 O1127 1.254 . S
C1143 O1128 1.257 . S
C1144 O1129 1.266 . S
C1144 O1130 1.236 . S
C1145 C1148 1.344 . S
C1145 C1149 1.328 . S
C1145 C1151 1.516 . S
C1146 C1147 1.304 . S
C1146 C1150 1.323 . S
C1147 C1146 1.304 . S
C1147 C1148 1.371 . S
C1147 H1156 0.930 . S
C1148 C1145 1.344 . S
C1148 C1147 1.371 . S
C1148 H1157 0.931 . S
C1149 C1145 1.328 . S
C1149 C1150 1.433 . S
C1149 H1158 0.931 . S
C1150 C1146 1.323 . S
C1150 C1149 1.433 . S
C1150 H1159 0.933 . S
C1151 Dy1121 2.738 . S
C1151 O1131 1.255 . S
C1151 O1132 1.249 . S
C1151 C1145 1.516 . S
H1152 C1138 0.930 . S
H1153 C1139 0.931 . S
H1154 C1140 0.931 . S
H1155 C1141 0.933 . S
H1156 C1147 0.930 . S
H1157 C1148 0.931 . S
H1158 C1149 0.931 . S
H1159 C1150 0.933 . S
Dy1160 O1163 2.307 . S
Dy1160 O1165 2.400 1_554 S
Dy1160 O1166 2.379 . S
Dy1160 O1168 2.339 . S
Dy1160 O1170 2.298 . S
Dy1160 O1174 2.275 . S
Dy1160 C1182 2.740 . S
Dy1161 O1164 2.298 . S
Dy1161 O1167 2.275 . S
Dy1161 O1169 2.307 . S
Dy1161 O1171 2.395 . S
Dy1161 O1172 2.379 . S
Dy1161 O1175 2.339 . S
Dy1161 C1191 2.738 . S
C1162 O1174 1.254 . S
C1162 O1175 1.257 . S
O1163 Dy1160 2.307 . S
O1163 C1173 1.266 . S
O1164 Dy1161 2.298 . S
O1164 C1173 1.236 . S
O1165 Dy1160 2.400 1_556 S
O1165 C1182 1.255 1_556 S
O1166 Dy1160 2.379 . S
O1166 C1182 1.251 . S
O1167 Dy1161 2.275 . S
O1167 C1183 1.254 . S
O1168 Dy1160 2.339 . S
O1168 C1183 1.257 . S
O1169 Dy1161 2.307 . S
O1169 C1184 1.266 1_554 S
O1170 Dy1160 2.298 . S
O1170 C1184 1.236 1_554 S
O1171 Dy1161 2.395 . S
O1171 C1191 1.255 . S
O1172 Dy1161 2.379 . S
O1172 C1191 1.249 . S
C1173 O1163 1.266 . S
C1173 O1164 1.236 . S
O1174 Dy1160 2.275 . S
O1174 C1162 1.254 . S
O1175 Dy1161 2.339 . S
O1175 C1162 1.257 . S
C1176 C1179 1.344 . S
C1176 C1180 1.328 . S
C1176 C1182 1.514 1_556 S
C1177 C1178 1.304 . S
C1177 C1181 1.323 . S
C1178 C1177 1.304 . S
C1178 C1179 1.371 . S
C1178 H1192 0.930 . S
C1179 C1176 1.344 . S
C1179 C1178 1.371 . S
C1179 H1193 0.931 . S
C1180 C1176 1.328 . S
C1180 C1181 1.433 . S
C1180 H1194 0.931 . S
C1181 C1177 1.323 . S
C1181 C1180 1.433 . S
C1181 H1195 0.933 . S
C1182 Dy1160 2.740 . S
C1182 O1165 1.255 1_554 S
C1182 O1166 1.251 . S
C1182 C1176 1.514 1_554 S
C1183 O1167 1.254 . S
C1183 O1168 1.257 . S
C1184 O1169 1.266 1_556 S
C1184 O1170 1.236 1_556 S
C1185 C1188 1.344 . S
C1185 C1189 1.328 . S
C1185 C1191 1.516 . S
C1186 C1187 1.304 . S
C1186 C1190 1.323 . S
C1187 C1186 1.304 . S
C1187 C1188 1.371 . S
C1187 H1196 0.930 . S
C1188 C1185 1.344 . S
C1188 C1187 1.371 . S
C1188 H1197 0.931 . S
C1189 C1185 1.328 . S
C1189 C1190 1.433 . S
C1189 H1198 0.931 . S
C1190 C1186 1.323 . S
C1190 C1189 1.433 . S
C1190 H1199 0.933 . S
C1191 Dy1161 2.738 . S
C1191 O1171 1.255 . S
C1191 O1172 1.249 . S
C1191 C1185 1.516 . S
H1192 C1178 0.930 . S
H1193 C1179 0.931 . S
H1194 C1180 0.931 . S
H1195 C1181 0.933 . S
H1196 C1187 0.930 . S
H1197 C1188 0.931 . S
H1198 C1189 0.931 . S
H1199 C1190 0.933 . S
Dy1200 O1203 2.307 . S
Dy1200 O1205 2.395 . S
Dy1200 O1206 2.379 . S
Dy1200 O1208 2.339 . S
Dy1200 O1210 2.298 . S
Dy1200 O1214 2.275 . S
Dy1200 C1222 2.738 . S
Dy1201 O1204 2.298 . S
Dy1201 O1207 2.275 . S
Dy1201 O1209 2.307 . S
Dy1201 O1211 2.395 . S
Dy1201 O1212 2.379 . S
Dy1201 O1215 2.339 . S
Dy1201 C1231 2.738 . S
C1202 O1214 1.254 . S
C1202 O1215 1.257 . S
O1203 Dy1200 2.307 . S
O1203 C1213 1.266 . S
O1204 Dy1201 2.298 . S
O1204 C1213 1.236 . S
O1205 Dy1200 2.395 . S
O1205 C1222 1.255 . S
O1206 Dy1200 2.379 . S
O1206 C1222 1.249 . S
O1207 Dy1201 2.275 . S
O1207 C1223 1.254 . S
O1208 Dy1200 2.339 . S
O1208 C1223 1.257 . S
O1209 Dy1201 2.307 . S
O1209 C1224 1.266 . S
O1210 Dy1200 2.298 . S
O1210 C1224 1.236 . S
O1211 Dy1201 2.395 . S
O1211 C1231 1.255 . S
O1212 Dy1201 2.379 . S
O1212 C1231 1.249 . S
C1213 O1203 1.266 . S
C1213 O1204 1.236 . S
O1214 Dy1200 2.275 . S
O1214 C1202 1.254 . S
O1215 Dy1201 2.339 . S
O1215 C1202 1.257 . S
C1216 C1219 1.344 . S
C1216 C1220 1.328 . S
C1216 C1222 1.516 . S
C1217 C1218 1.304 . S
C1217 C1221 1.323 . S
C1218 C1217 1.304 . S
C1218 C1219 1.371 . S
C1218 H1232 0.930 . S
C1219 C1216 1.344 . S
C1219 C1218 1.371 . S
C1219 H1233 0.931 . S
C1220 C1216 1.328 . S
C1220 C1221 1.433 . S
C1220 H1234 0.931 . S
C1221 C1217 1.323 . S
C1221 C1220 1.433 . S
C1221 H1235 0.933 . S
C1222 Dy1200 2.738 . S
C1222 O1205 1.255 . S
C1222 O1206 1.249 . S
C1222 C1216 1.516 . S
C1223 O1207 1.254 . S
C1223 O1208 1.257 . S
C1224 O1209 1.266 . S
C1224 O1210 1.236 . S
C1225 C1228 1.344 . S
C1225 C1229 1.328 . S
C1225 C1231 1.516 . S
C1226 C1227 1.304 . S
C1226 C1230 1.323 . S
C1227 C1226 1.304 . S
C1227 C1228 1.371 . S
C1227 H1236 0.930 . S
C1228 C1225 1.344 . S
C1228 C1227 1.371 . S
C1228 H1237 0.931 . S
C1229 C1225 1.328 . S
C1229 C1230 1.433 . S
C1229 H1238 0.931 . S
C1230 C1226 1.323 . S
C1230 C1229 1.433 . S
C1230 H1239 0.933 . S
C1231 Dy1201 2.738 . S
C1231 O1211 1.255 . S
C1231 O1212 1.249 . S
C1231 C1225 1.516 . S
H1232 C1218 0.930 . S
H1233 C1219 0.931 . S
H1234 C1220 0.931 . S
H1235 C1221 0.933 . S
H1236 C1227 0.930 . S
H1237 C1228 0.931 . S
H1238 C1229 0.931 . S
H1239 C1230 0.933 . S
Dy1240 O1243 2.307 . S
Dy1240 O1245 2.395 . S
Dy1240 O1246 2.379 . S
Dy1240 O1248 2.339 . S
Dy1240 O1250 2.298 . S
Dy1240 O1254 2.275 . S
Dy1240 C1262 2.738 . S
Dy1241 O1244 2.298 . S
Dy1241 O1247 2.275 . S
Dy1241 O1249 2.307 . S
Dy1241 O1251 2.395 . S
Dy1241 O1252 2.379 . S
Dy1241 O1255 2.339 . S
Dy1241 C1271 2.738 . S
C1242 O1254 1.254 . S
C1242 O1255 1.257 . S
O1243 Dy1240 2.307 . S
O1243 C1253 1.266 . S
O1244 Dy1241 2.298 . S
O1244 C1253 1.236 . S
O1245 Dy1240 2.395 . S
O1245 C1262 1.255 . S
O1246 Dy1240 2.379 . S
O1246 C1262 1.249 . S
O1247 Dy1241 2.275 . S
O1247 C1263 1.254 . S
O1248 Dy1240 2.339 . S
O1248 C1263 1.257 . S
O1249 Dy1241 2.307 . S
O1249 C1264 1.266 . S
O1250 Dy1240 2.298 . S
O1250 C1264 1.236 . S
O1251 Dy1241 2.395 . S
O1251 C1271 1.255 . S
O1252 Dy1241 2.379 . S
O1252 C1271 1.249 . S
C1253 O1243 1.266 . S
C1253 O1244 1.236 . S
O1254 Dy1240 2.275 . S
O1254 C1242 1.254 . S
O1255 Dy1241 2.339 . S
O1255 C1242 1.257 . S
C1256 C1259 1.344 . S
C1256 C1260 1.328 . S
C1256 C1262 1.516 . S
C1257 C1258 1.304 . S
C1257 C1261 1.323 . S
C1258 C1257 1.304 . S
C1258 C1259 1.371 . S
C1258 H1272 0.930 . S
C1259 C1256 1.344 . S
C1259 C1258 1.371 . S
C1259 H1273 0.931 . S
C1260 C1256 1.328 . S
C1260 C1261 1.433 . S
C1260 H1274 0.931 . S
C1261 C1257 1.323 . S
C1261 C1260 1.433 . S
C1261 H1275 0.933 . S
C1262 Dy1240 2.738 . S
C1262 O1245 1.255 . S
C1262 O1246 1.249 . S
C1262 C1256 1.516 . S
C1263 O1247 1.254 . S
C1263 O1248 1.257 . S
C1264 O1249 1.266 . S
C1264 O1250 1.236 . S
C1265 C1268 1.344 . S
C1265 C1269 1.328 . S
C1265 C1271 1.516 . S
C1266 C1267 1.304 . S
C1266 C1270 1.323 . S
C1267 C1266 1.304 . S
C1267 C1268 1.371 . S
C1267 H1276 0.930 . S
C1268 C1265 1.344 . S
C1268 C1267 1.371 . S
C1268 H1277 0.931 . S
C1269 C1265 1.328 . S
C1269 C1270 1.433 . S
C1269 H1278 0.931 . S
C1270 C1266 1.323 . S
C1270 C1269 1.433 . S
C1270 H1279 0.933 . S
C1271 Dy1241 2.738 . S
C1271 O1251 1.255 . S
C1271 O1252 1.249 . S
C1271 C1265 1.516 . S
H1272 C1258 0.930 . S
H1273 C1259 0.931 . S
H1274 C1260 0.931 . S
H1275 C1261 0.933 . S
H1276 C1267 0.930 . S
H1277 C1268 0.931 . S
H1278 C1269 0.931 . S
H1279 C1270 0.933 . S
C1280 C1281 1.349 . S
C1280 C1282 1.327 . S
C1280 H1305 0.950 . S
C1281 C1280 1.349 . S
C1281 C1297 1.349 . S
C1282 C1280 1.327 . S
C1282 C1301 1.429 . S
C1282 H1306 0.950 . S
C1283 C1300 1.574 . S
C1283 C1302 1.368 . S
C1283 H1307 0.949 . S
H1284 C1288 0.949 . S
C1285 C1286 1.349 . S
C1285 C1287 1.327 . S
C1285 H1308 0.950 . S
C1286 C1285 1.349 . S
C1286 C1298 1.349 . S
C1287 C1285 1.327 . S
C1287 C1303 1.429 . S
C1287 H1309 0.950 . S
C1288 H1284 0.949 . S
C1288 C1296 1.574 . S
C1288 C1304 1.368 . S
H1289 C1297 0.950 . S
H1290 C1295 0.950 . S
H1291 C1296 0.949 . S
H1292 C1298 0.950 . S
H1293 C1299 0.950 . S
H1294 C1300 0.949 . S
C1295 H1290 0.950 . S
C1295 C1297 1.327 . S
C1295 C1301 1.429 . S
C1296 C1288 1.574 . S
C1296 H1291 0.949 . S
C1296 C1302 1.368 . S
C1297 C1281 1.349 . S
C1297 H1289 0.950 . S
C1297 C1295 1.327 . S
C1298 C1286 1.349 . S
C1298 H1292 0.950 . S
C1298 C1299 1.327 . S
C1299 H1293 0.950 . S
C1299 C1298 1.327 . S
C1299 C1303 1.429 . S
C1300 C1283 1.574 . S
C1300 H1294 0.949 . S
C1300 C1304 1.368 . S
C1301 C1282 1.429 . S
C1301 C1295 1.429 . S
C1301 C1302 1.523 . S
C1302 C1283 1.368 . S
C1302 C1296 1.368 . S
C1302 C1301 1.523 . S
C1303 C1287 1.429 . S
C1303 C1299 1.429 . S
C1303 C1304 1.523 . S
C1304 C1288 1.368 . S
C1304 C1300 1.368 . S
C1304 C1303 1.523 . S
H1305 C1280 0.950 . S
H1306 C1282 0.950 . S
H1307 C1283 0.949 . S
H1308 C1285 0.950 . S
H1309 C1287 0.950 . S
C1310 C1311 1.349 . S
C1310 C1312 1.327 . S
C1310 H1335 0.950 . S
C1311 C1310 1.349 . S
C1311 C1327 1.349 . S
C1312 C1310 1.327 . S
C1312 C1331 1.429 . S
C1312 H1336 0.950 . S
C1313 C1330 1.574 . S
C1313 C1332 1.368 . S
C1313 H1337 0.949 . S
H1314 C1318 0.949 . S
C1315 C1316 1.349 . S
C1315 C1317 1.327 . S
C1315 H1338 0.950 . S
C1316 C1315 1.349 . S
C1316 C1328 1.349 1_565 S
C1317 C1315 1.327 . S
C1317 C1333 1.429 1_565 S
C1317 H1339 0.950 . S
C1318 H1314 0.949 . S
C1318 C1326 1.574 . S
C1318 C1334 1.368 . S
H1319 C1327 0.950 . S
H1320 C1325 0.950 . S
H1321 C1326 0.949 . S
H1322 C1328 0.950 . S
H1323 C1329 0.950 . S
H1324 C1330 0.949 . S
C1325 H1320 0.950 . S
C1325 C1327 1.327 . S
C1325 C1331 1.429 . S
C1326 C1318 1.574 . S
C1326 H1321 0.949 . S
C1326 C1332 1.368 . S
C1327 C1311 1.349 . S
C1327 H1319 0.950 . S
C1327 C1325 1.327 . S
C1328 C1316 1.349 1_545 S
C1328 H1322 0.950 . S
C1328 C1329 1.327 . S
C1329 H1323 0.950 . S
C1329 C1328 1.327 . S
C1329 C1333 1.429 . S
C1330 C1313 1.574 . S
C1330 H1324 0.949 . S
C1330 C1334 1.368 . S
C1331 C1312 1.429 . S
C1331 C1325 1.429 . S
C1331 C1332 1.523 . S
C1332 C1313 1.368 . S
C1332 C1326 1.368 . S
C1332 C1331 1.523 . S
C1333 C1317 1.429 1_545 S
C1333 C1329 1.429 . S
C1333 C1334 1.523 . S
C1334 C1318 1.368 . S
C1334 C1330 1.368 . S
C1334 C1333 1.523 . S
H1335 C1310 0.950 . S
H1336 C1312 0.950 . S
H1337 C1313 0.949 . S
H1338 C1315 0.950 . S
H1339 C1317 0.950 . S
C1340 C1341 1.349 . S
C1340 C1342 1.327 . S
C1340 H1365 0.950 . S
C1341 C1340 1.349 . S
C1341 C1357 1.349 . S
C1342 C1340 1.327 . S
C1342 C1361 1.429 . S
C1342 H1366 0.950 . S
C1343 C1360 1.574 . S
C1343 C1362 1.368 . S
C1343 H1367 0.949 . S
H1344 C1348 0.949 . S
C1345 C1346 1.349 . S
C1345 C1347 1.327 . S
C1345 H1368 0.950 . S
C1346 C1345 1.349 . S
C1346 C1358 1.349 . S
C1347 C1345 1.327 . S
C1347 C1363 1.429 . S
C1347 H1369 0.950 . S
C1348 H1344 0.949 . S
C1348 C1356 1.574 . S
C1348 C1364 1.368 . S
H1349 C1357 0.950 . S
H1350 C1355 0.950 . S
H1351 C1356 0.949 . S
H1352 C1358 0.950 . S
H1353 C1359 0.950 . S
H1354 C1360 0.949 . S
C1355 H1350 0.950 . S
C1355 C1357 1.327 . S
C1355 C1361 1.429 . S
C1356 C1348 1.574 . S
C1356 H1351 0.949 . S
C1356 C1362 1.368 . S
C1357 C1341 1.349 . S
C1357 H1349 0.950 . S
C1357 C1355 1.327 . S
C1358 C1346 1.349 . S
C1358 H1352 0.950 . S
C1358 C1359 1.327 . S
C1359 H1353 0.950 . S
C1359 C1358 1.327 . S
C1359 C1363 1.429 . S
C1360 C1343 1.574 . S
C1360 H1354 0.949 . S
C1360 C1364 1.368 . S
C1361 C1342 1.429 . S
C1361 C1355 1.429 . S
C1361 C1362 1.523 . S
C1362 C1343 1.368 . S
C1362 C1356 1.368 . S
C1362 C1361 1.523 . S
C1363 C1347 1.429 . S
C1363 C1359 1.429 . S
C1363 C1364 1.523 . S
C1364 C1348 1.368 . S
C1364 C1360 1.368 . S
C1364 C1363 1.523 . S
H1365 C1340 0.950 . S
H1366 C1342 0.950 . S
H1367 C1343 0.949 . S
H1368 C1345 0.950 . S
H1369 C1347 0.950 . S
C1370 C1371 1.349 . S
C1370 C1372 1.327 . S
C1370 H1395 0.950 . S
C1371 C1370 1.349 . S
C1371 C1387 1.349 . S
C1372 C1370 1.327 . S
C1372 C1391 1.429 . S
C1372 H1396 0.950 . S
C1373 C1390 1.574 . S
C1373 C1392 1.368 . S
C1373 H1397 0.949 . S
H1374 C1378 0.949 . S
C1375 C1376 1.349 . S
C1375 C1377 1.327 1_545 S
C1375 H1398 0.950 . S
C1376 C1375 1.349 . S
C1376 C1388 1.349 . S
C1377 C1375 1.327 1_565 S
C1377 C1393 1.429 . S
C1377 H1399 0.950 . S
C1378 H1374 0.949 . S
C1378 C1386 1.574 . S
C1378 C1394 1.368 . S
H1379 C1387 0.950 . S
H1380 C1385 0.950 . S
H1381 C1386 0.949 . S
H1382 C1388 0.950 . S
H1383 C1389 0.950 . S
H1384 C1390 0.949 . S
C1385 H1380 0.950 . S
C1385 C1387 1.327 . S
C1385 C1391 1.429 . S
C1386 C1378 1.574 . S
C1386 H1381 0.949 . S
C1386 C1392 1.368 . S
C1387 C1371 1.349 . S
C1387 H1379 0.950 . S
C1387 C1385 1.327 . S
C1388 C1376 1.349 . S
C1388 H1382 0.950 . S
C1388 C1389 1.327 1_545 S
C1389 H1383 0.950 . S
C1389 C1388 1.327 1_565 S
C1389 C1393 1.429 . S
C1390 C1373 1.574 . S
C1390 H1384 0.949 . S
C1390 C1394 1.368 . S
C1391 C1372 1.429 . S
C1391 C1385 1.429 . S
C1391 C1392 1.523 . S
C1392 C1373 1.368 . S
C1392 C1386 1.368 . S
C1392 C1391 1.523 . S
C1393 C1377 1.429 . S
C1393 C1389 1.429 . S
C1393 C1394 1.523 . S
C1394 C1378 1.368 . S
C1394 C1390 1.368 . S
C1394 C1393 1.523 . S
H1395 C1370 0.950 . S
H1396 C1372 0.950 . S
H1397 C1373 0.949 . S
H1398 C1375 0.950 . S
H1399 C1377 0.950 . S
C1400 C1401 1.349 . S
C1400 C1402 1.327 . S
C1400 H1425 0.950 . S
C1401 C1400 1.349 . S
C1401 C1417 1.349 . S
C1402 C1400 1.327 . S
C1402 C1421 1.429 . S
C1402 H1426 0.950 . S
C1403 C1420 1.574 . S
C1403 C1422 1.368 . S
C1403 H1427 0.949 . S
H1404 C1408 0.949 . S
C1405 C1406 1.349 . S
C1405 C1407 1.327 . S
C1405 H1428 0.950 . S
C1406 C1405 1.349 . S
C1406 C1418 1.349 . S
C1407 C1405 1.327 . S
C1407 C1423 1.429 . S
C1407 H1429 0.950 . S
C1408 H1404 0.949 . S
C1408 C1416 1.574 . S
C1408 C1424 1.368 . S
H1409 C1417 0.950 . S
H1410 C1415 0.950 . S
H1411 C1416 0.949 . S
H1412 C1418 0.950 . S
H1413 C1419 0.950 . S
H1414 C1420 0.949 . S
C1415 H1410 0.950 . S
C1415 C1417 1.327 . S
C1415 C1421 1.429 . S
C1416 C1408 1.574 . S
C1416 H1411 0.949 . S
C1416 C1422 1.368 . S
C1417 C1401 1.349 . S
C1417 H1409 0.950 . S
C1417 C1415 1.327 . S
C1418 C1406 1.349 . S
C1418 H1412 0.950 . S
C1418 C1419 1.327 . S
C1419 H1413 0.950 . S
C1419 C1418 1.327 . S
C1419 C1423 1.429 . S
C1420 C1403 1.574 . S
C1420 H1414 0.949 . S
C1420 C1424 1.368 . S
C1421 C1402 1.429 . S
C1421 C1415 1.429 . S
C1421 C1422 1.523 . S
C1422 C1403 1.368 . S
C1422 C1416 1.368 . S
C1422 C1421 1.523 . S
C1423 C1407 1.429 . S
C1423 C1419 1.429 . S
C1423 C1424 1.523 . S
C1424 C1408 1.368 . S
C1424 C1420 1.368 . S
C1424 C1423 1.523 . S
H1425 C1400 0.950 . S
H1426 C1402 0.950 . S
H1427 C1403 0.949 . S
H1428 C1405 0.950 . S
H1429 C1407 0.950 . S
C1430 C1431 1.363 . S
C1430 C1432 1.310 1_565 S
C1430 H1455 0.953 . S
C1431 C1430 1.363 . S
C1431 C1447 1.349 . S
C1432 C1430 1.310 1_545 S
C1432 C1451 1.429 . S
C1432 H1456 0.950 . S
C1433 C1450 1.574 . S
C1433 C1452 1.368 . S
C1433 H1457 0.949 . S
H1434 C1438 0.949 . S
C1435 C1436 1.349 . S
C1435 C1437 1.327 . S
C1435 H1458 0.950 . S
C1436 C1435 1.349 . S
C1436 C1448 1.349 . S
C1437 C1435 1.327 . S
C1437 C1453 1.429 . S
C1437 H1459 0.950 . S
C1438 H1434 0.949 . S
C1438 C1446 1.574 . S
C1438 C1454 1.368 . S
H1439 C1447 0.950 . S
H1440 C1445 0.950 . S
H1441 C1446 0.949 . S
H1442 C1448 0.950 . S
H1443 C1449 0.950 . S
H1444 C1450 0.949 . S
C1445 H1440 0.950 . S
C1445 C1447 1.327 1_545 S
C1445 C1451 1.429 . S
C1446 C1438 1.574 . S
C1446 H1441 0.949 . S
C1446 C1452 1.368 . S
C1447 C1431 1.349 . S
C1447 H1439 0.950 . S
C1447 C1445 1.327 1_565 S
C1448 C1436 1.349 . S
C1448 H1442 0.950 . S
C1448 C1449 1.327 . S
C1449 H1443 0.950 . S
C1449 C1448 1.327 . S
C1449 C1453 1.429 . S
C1450 C1433 1.574 . S
C1450 H1444 0.949 . S
C1450 C1454 1.368 . S
C1451 C1432 1.429 . S
C1451 C1445 1.429 . S
C1451 C1452 1.523 . S
C1452 C1433 1.368 . S
C1452 C1446 1.368 . S
C1452 C1451 1.523 . S
C1453 C1437 1.429 . S
C1453 C1449 1.429 . S
C1453 C1454 1.523 . S
C1454 C1438 1.368 . S
C1454 C1450 1.368 . S
C1454 C1453 1.523 . S
H1455 C1430 0.953 . S
H1456 C1432 0.950 . S
H1457 C1433 0.949 . S
H1458 C1435 0.950 . S
H1459 C1437 0.950 . S
C1460 C1461 1.349 . S
C1460 C1462 1.327 . S
C1460 H1485 0.950 . S
C1461 C1460 1.349 . S
C1461 C1477 1.349 . S
C1462 C1460 1.327 . S
C1462 C1481 1.429 . S
C1462 H1486 0.950 . S
C1463 C1480 1.574 . S
C1463 C1482 1.368 . S
C1463 H1487 0.949 . S
H1464 C1468 0.949 . S
C1465 C1466 1.349 . S
C1465 C1467 1.327 . S
C1465 H1488 0.950 . S
C1466 C1465 1.349 . S
C1466 C1478 1.349 . S
C1467 C1465 1.327 . S
C1467 C1483 1.429 . S
C1467 H1489 0.950 . S
C1468 H1464 0.949 . S
C1468 C1476 1.574 . S
C1468 C1484 1.368 . S
H1469 C1477 0.950 . S
H1470 C1475 0.950 . S
H1471 C1476 0.949 . S
H1472 C1478 0.950 . S
H1473 C1479 0.950 . S
H1474 C1480 0.949 . S
C1475 H1470 0.950 . S
C1475 C1477 1.327 . S
C1475 C1481 1.429 . S
C1476 C1468 1.574 . S
C1476 H1471 0.949 . S
C1476 C1482 1.368 . S
C1477 C1461 1.349 . S
C1477 H1469 0.950 . S
C1477 C1475 1.327 . S
C1478 C1466 1.349 . S
C1478 H1472 0.950 . S
C1478 C1479 1.327 . S
C1479 H1473 0.950 . S
C1479 C1478 1.327 . S
C1479 C1483 1.429 . S
C1480 C1463 1.574 . S
C1480 H1474 0.949 . S
C1480 C1484 1.368 . S
C1481 C1462 1.429 . S
C1481 C1475 1.429 . S
C1481 C1482 1.523 . S
C1482 C1463 1.368 . S
C1482 C1476 1.368 . S
C1482 C1481 1.523 . S
C1483 C1467 1.429 . S
C1483 C1479 1.429 . S
C1483 C1484 1.523 . S
C1484 C1468 1.368 . S
C1484 C1480 1.368 . S
C1484 C1483 1.523 . S
H1485 C1460 0.950 . S
H1486 C1462 0.950 . S
H1487 C1463 0.949 . S
H1488 C1465 0.950 . S
H1489 C1467 0.950 . S
C1490 C1491 1.349 . S
C1490 C1492 1.327 . S
C1490 H1515 0.950 . S
C1491 C1490 1.349 . S
C1491 C1507 1.349 . S
C1492 C1490 1.327 . S
C1492 C1511 1.429 . S
C1492 H1516 0.950 . S
C1493 C1510 1.574 . S
C1493 C1512 1.368 . S
C1493 H1517 0.949 . S
H1494 C1498 0.949 . S
C1495 C1496 1.349 1_565 S
C1495 C1497 1.327 . S
C1495 H1518 0.950 . S
C1496 C1495 1.349 1_545 S
C1496 C1508 1.349 . S
C1497 C1495 1.327 . S
C1497 C1513 1.429 . S
C1497 H1519 0.950 . S
C1498 H1494 0.949 . S
C1498 C1506 1.574 . S
C1498 C1514 1.368 . S
H1499 C1507 0.950 . S
H1500 C1505 0.950 . S
H1501 C1506 0.949 . S
H1502 C1508 0.950 . S
H1503 C1509 0.950 . S
H1504 C1510 0.949 . S
C1505 H1500 0.950 . S
C1505 C1507 1.327 . S
C1505 C1511 1.429 . S
C1506 C1498 1.574 . S
C1506 H1501 0.949 . S
C1506 C1512 1.368 . S
C1507 C1491 1.349 . S
C1507 H1499 0.950 . S
C1507 C1505 1.327 . S
C1508 C1496 1.349 . S
C1508 H1502 0.950 . S
C1508 C1509 1.327 . S
C1509 H1503 0.950 . S
C1509 C1508 1.327 . S
C1509 C1513 1.429 1_545 S
C1510 C1493 1.574 . S
C1510 H1504 0.949 . S
C1510 C1514 1.368 . S
C1511 C1492 1.429 . S
C1511 C1505 1.429 . S
C1511 C1512 1.523 . S
C1512 C1493 1.368 . S
C1512 C1506 1.368 . S
C1512 C1511 1.523 . S
C1513 C1497 1.429 . S
C1513 C1509 1.429 1_565 S
C1513 C1514 1.523 . S
C1514 C1498 1.368 . S
C1514 C1510 1.368 . S
C1514 C1513 1.523 . S
H1515 C1490 0.950 . S
H1516 C1492 0.950 . S
H1517 C1493 0.949 . S
H1518 C1495 0.950 . S
H1519 C1497 0.950 . S
C1520 C1521 1.349 . S
C1520 C1522 1.327 . S
C1520 H1545 0.950 . S
C1521 C1520 1.349 . S
C1521 C1537 1.349 . S
C1522 C1520 1.327 . S
C1522 C1541 1.429 . S
C1522 H1546 0.950 . S
C1523 C1540 1.574 . S
C1523 C1542 1.368 . S
C1523 H1547 0.949 . S
H1524 C1528 0.949 . S
C1525 C1526 1.349 . S
C1525 C1527 1.327 . S
C1525 H1548 0.950 . S
C1526 C1525 1.349 . S
C1526 C1538 1.349 . S
C1527 C1525 1.327 . S
C1527 C1543 1.429 . S
C1527 H1549 0.950 . S
C1528 H1524 0.949 . S
C1528 C1536 1.574 . S
C1528 C1544 1.368 . S
H1529 C1537 0.950 . S
H1530 C1535 0.950 . S
H1531 C1536 0.949 . S
H1532 C1538 0.950 . S
H1533 C1539 0.950 . S
H1534 C1540 0.949 . S
C1535 H1530 0.950 . S
C1535 C1537 1.327 . S
C1535 C1541 1.429 . S
C1536 C1528 1.574 . S
C1536 H1531 0.949 . S
C1536 C1542 1.368 . S
C1537 C1521 1.349 . S
C1537 H1529 0.950 . S
C1537 C1535 1.327 . S
C1538 C1526 1.349 . S
C1538 H1532 0.950 . S
C1538 C1539 1.327 . S
C1539 H1533 0.950 . S
C1539 C1538 1.327 . S
C1539 C1543 1.429 . S
C1540 C1523 1.574 . S
C1540 H1534 0.949 . S
C1540 C1544 1.368 . S
C1541 C1522 1.429 . S
C1541 C1535 1.429 . S
C1541 C1542 1.523 . S
C1542 C1523 1.368 . S
C1542 C1536 1.368 . S
C1542 C1541 1.523 . S
C1543 C1527 1.429 . S
C1543 C1539 1.429 . S
C1543 C1544 1.523 . S
C1544 C1528 1.368 . S
C1544 C1540 1.368 . S
C1544 C1543 1.523 . S
H1545 C1520 0.950 . S
H1546 C1522 0.950 . S
H1547 C1523 0.949 . S
H1548 C1525 0.950 . S
H1549 C1527 0.950 . S
C1550 C1551 1.349 1_565 S
C1550 C1552 1.327 . S
C1550 H1575 0.950 . S
C1551 C1550 1.349 1_545 S
C1551 C1567 1.349 . S
C1552 C1550 1.327 . S
C1552 C1571 1.429 . S
C1552 H1576 0.950 . S
C1553 C1570 1.574 . S
C1553 C1572 1.368 . S
C1553 H1577 0.949 . S
H1554 C1558 0.949 . S
C1555 C1556 1.349 . S
C1555 C1557 1.327 . S
C1555 H1578 0.950 . S
C1556 C1555 1.349 . S
C1556 C1568 1.349 . S
C1557 C1555 1.327 . S
C1557 C1573 1.429 . S
C1557 H1579 0.950 . S
C1558 H1554 0.949 . S
C1558 C1566 1.574 . S
C1558 C1574 1.368 . S
H1559 C1567 0.950 . S
H1560 C1565 0.950 . S
H1561 C1566 0.949 . S
H1562 C1568 0.950 . S
H1563 C1569 0.950 . S
H1564 C1570 0.949 . S
C1565 H1560 0.950 . S
C1565 C1567 1.327 . S
C1565 C1571 1.429 1_545 S
C1566 C1558 1.574 . S
C1566 H1561 0.949 . S
C1566 C1572 1.368 . S
C1567 C1551 1.349 . S
C1567 H1559 0.950 . S
C1567 C1565 1.327 . S
C1568 C1556 1.349 . S
C1568 H1562 0.950 . S
C1568 C1569 1.327 . S
C1569 H1563 0.950 . S
C1569 C1568 1.327 . S
C1569 C1573 1.429 . S
C1570 C1553 1.574 . S
C1570 H1564 0.949 . S
C1570 C1574 1.368 . S
C1571 C1552 1.429 . S
C1571 C1565 1.429 1_565 S
C1571 C1572 1.523 . S
C1572 C1553 1.368 . S
C1572 C1566 1.368 . S
C1572 C1571 1.523 . S
C1573 C1557 1.429 . S
C1573 C1569 1.429 . S
C1573 C1574 1.523 . S
C1574 C1558 1.368 . S
C1574 C1570 1.368 . S
C1574 C1573 1.523 . S
H1575 C1550 0.950 . S
H1576 C1552 0.950 . S
H1577 C1553 0.949 . S
H1578 C1555 0.950 . S
H1579 C1557 0.950 . S
C1580 C1581 1.349 . S
C1580 C1582 1.327 . S
C1580 H1605 0.950 . S
C1581 C1580 1.349 . S
C1581 C1597 1.349 . S
C1582 C1580 1.327 . S
C1582 C1601 1.429 . S
C1582 H1606 0.950 . S
C1583 C1600 1.574 . S
C1583 C1602 1.368 . S
C1583 H1607 0.949 . S
H1584 C1588 0.949 . S
C1585 C1586 1.349 . S
C1585 C1587 1.327 . S
C1585 H1608 0.950 . S
C1586 C1585 1.349 . S
C1586 C1598 1.349 . S
C1587 C1585 1.327 . S
C1587 C1603 1.429 . S
C1587 H1609 0.950 . S
C1588 H1584 0.949 . S
C1588 C1596 1.574 . S
C1588 C1604 1.368 . S
H1589 C1597 0.950 . S
H1590 C1595 0.950 . S
H1591 C1596 0.949 . S
H1592 C1598 0.950 . S
H1593 C1599 0.950 . S
H1594 C1600 0.949 . S
C1595 H1590 0.950 . S
C1595 C1597 1.327 . S
C1595 C1601 1.429 . S
C1596 C1588 1.574 . S
C1596 H1591 0.949 . S
C1596 C1602 1.368 . S
C1597 C1581 1.349 . S
C1597 H1589 0.950 . S
C1597 C1595 1.327 . S
C1598 C1586 1.349 . S
C1598 H1592 0.950 . S
C1598 C1599 1.327 . S
C1599 H1593 0.950 . S
C1599 C1598 1.327 . S
C1599 C1603 1.429 . S
C1600 C1583 1.574 . S
C1600 H1594 0.949 . S
C1600 C1604 1.368 . S
C1601 C1582 1.429 . S
C1601 C1595 1.429 . S
C1601 C1602 1.523 . S
C1602 C1583 1.368 . S
C1602 C1596 1.368 . S
C1602 C1601 1.523 . S
C1603 C1587 1.429 . S
C1603 C1599 1.429 . S
C1603 C1604 1.523 . S
C1604 C1588 1.368 . S
C1604 C1600 1.368 . S
C1604 C1603 1.523 . S
H1605 C1580 0.950 . S
H1606 C1582 0.950 . S
H1607 C1583 0.949 . S
H1608 C1585 0.950 . S
H1609 C1587 0.950 . S
C1610 C1611 1.349 . S
C1610 C1612 1.327 1_565 S
C1610 H1635 0.950 . S
C1611 C1610 1.349 . S
C1611 C1627 1.349 . S
C1612 C1610 1.327 1_545 S
C1612 C1631 1.429 . S
C1612 H1636 0.950 . S
C1613 C1630 1.574 . S
C1613 C1632 1.368 . S
C1613 H1637 0.949 . S
H1614 C1618 0.949 . S
C1615 C1616 1.349 . S
C1615 C1617 1.327 . S
C1615 H1638 0.950 . S
C1616 C1615 1.349 . S
C1616 C1628 1.349 . S
C1617 C1615 1.327 . S
C1617 C1633 1.429 . S
C1617 H1639 0.950 . S
C1618 H1614 0.949 . S
C1618 C1626 1.574 . S
C1618 C1634 1.368 . S
H1619 C1627 0.950 . S
H1620 C1625 0.950 . S
H1621 C1626 0.949 . S
H1622 C1628 0.950 . S
H1623 C1629 0.950 . S
H1624 C1630 0.949 . S
C1625 H1620 0.950 . S
C1625 C1627 1.327 1_545 S
C1625 C1631 1.429 . S
C1626 C1618 1.574 . S
C1626 H1621 0.949 . S
C1626 C1632 1.368 . S
C1627 C1611 1.349 . S
C1627 H1619 0.950 . S
C1627 C1625 1.327 1_565 S
C1628 C1616 1.349 . S
C1628 H1622 0.950 . S
C1628 C1629 1.327 . S
C1629 H1623 0.950 . S
C1629 C1628 1.327 . S
C1629 C1633 1.429 . S
C1630 C1613 1.574 . S
C1630 H1624 0.949 . S
C1630 C1634 1.368 . S
C1631 C1612 1.429 . S
C1631 C1625 1.429 . S
C1631 C1632 1.523 . S
C1632 C1613 1.368 . S
C1632 C1626 1.368 . S
C1632 C1631 1.523 . S
C1633 C1617 1.429 . S
C1633 C1629 1.429 . S
C1633 C1634 1.523 . S
C1634 C1618 1.368 . S
C1634 C1630 1.368 . S
C1634 C1633 1.523 . S
H1635 C1610 0.950 . S
H1636 C1612 0.950 . S
H1637 C1613 0.949 . S
H1638 C1615 0.950 . S
H1639 C1617 0.950 . S
C1640 C1641 1.349 . S
C1640 C1642 1.327 . S
C1640 H1665 0.950 . S
C1641 C1640 1.349 . S
C1641 C1657 1.349 . S
C1642 C1640 1.327 . S
C1642 C1661 1.429 . S
C1642 H1666 0.950 . S
C1643 C1660 1.574 . S
C1643 C1662 1.368 . S
C1643 H1667 0.949 . S
H1644 C1648 0.949 . S
C1645 C1646 1.349 . S
C1645 C1647 1.327 . S
C1645 H1668 0.950 . S
C1646 C1645 1.349 . S
C1646 C1658 1.349 . S
C1647 C1645 1.327 . S
C1647 C1663 1.429 . S
C1647 H1669 0.950 . S
C1648 H1644 0.949 . S
C1648 C1656 1.574 . S
C1648 C1664 1.368 . S
H1649 C1657 0.950 . S
H1650 C1655 0.950 . S
H1651 C1656 0.949 . S
H1652 C1658 0.950 . S
H1653 C1659 0.950 . S
H1654 C1660 0.949 . S
C1655 H1650 0.950 . S
C1655 C1657 1.327 . S
C1655 C1661 1.429 . S
C1656 C1648 1.574 . S
C1656 H1651 0.949 . S
C1656 C1662 1.368 . S
C1657 C1641 1.349 . S
C1657 H1649 0.950 . S
C1657 C1655 1.327 . S
C1658 C1646 1.349 . S
C1658 H1652 0.950 . S
C1658 C1659 1.327 . S
C1659 H1653 0.950 . S
C1659 C1658 1.327 . S
C1659 C1663 1.429 . S
C1660 C1643 1.574 . S
C1660 H1654 0.949 . S
C1660 C1664 1.368 . S
C1661 C1642 1.429 . S
C1661 C1655 1.429 . S
C1661 C1662 1.523 . S
C1662 C1643 1.368 . S
C1662 C1656 1.368 . S
C1662 C1661 1.523 . S
C1663 C1647 1.429 . S
C1663 C1659 1.429 . S
C1663 C1664 1.523 . S
C1664 C1648 1.368 . S
C1664 C1660 1.368 . S
C1664 C1663 1.523 . S
H1665 C1640 0.950 . S
H1666 C1642 0.950 . S
H1667 C1643 0.949 . S
H1668 C1645 0.950 . S
H1669 C1647 0.950 . S
C1670 C1671 1.349 1_565 S
C1670 C1672 1.327 . S
C1670 H1695 0.950 . S
C1671 C1670 1.349 1_545 S
C1671 C1687 1.349 . S
C1672 C1670 1.327 . S
C1672 C1691 1.429 . S
C1672 H1696 0.950 . S
C1673 C1690 1.574 . S
C1673 C1692 1.368 . S
C1673 H1697 0.949 . S
H1674 C1678 0.949 . S
C1675 C1676 1.349 . S
C1675 C1677 1.327 . S
C1675 H1698 0.950 . S
C1676 C1675 1.349 . S
C1676 C1688 1.349 . S
C1677 C1675 1.327 . S
C1677 C1693 1.429 . S
C1677 H1699 0.950 . S
C1678 H1674 0.949 . S
C1678 C1686 1.574 . S
C1678 C1694 1.368 . S
H1679 C1687 0.950 . S
H1680 C1685 0.950 . S
H1681 C1686 0.949 . S
H1682 C1688 0.950 . S
H1683 C1689 0.950 . S
H1684 C1690 0.949 . S
C1685 H1680 0.950 . S
C1685 C1687 1.327 . S
C1685 C1691 1.429 1_545 S
C1686 C1678 1.574 . S
C1686 H1681 0.949 . S
C1686 C1692 1.368 . S
C1687 C1671 1.349 . S
C1687 H1679 0.950 . S
C1687 C1685 1.327 . S
C1688 C1676 1.349 . S
C1688 H1682 0.950 . S
C1688 C1689 1.327 . S
C1689 H1683 0.950 . S
C1689 C1688 1.327 . S
C1689 C1693 1.429 . S
C1690 C1673 1.574 . S
C1690 H1684 0.949 . S
C1690 C1694 1.368 . S
C1691 C1672 1.429 . S
C1691 C1685 1.429 1_565 S
C1691 C1692 1.523 . S
C1692 C1673 1.368 . S
C1692 C1686 1.368 . S
C1692 C1691 1.523 . S
C1693 C1677 1.429 . S
C1693 C1689 1.429 . S
C1693 C1694 1.523 . S
C1694 C1678 1.368 . S
C1694 C1690 1.368 . S
C1694 C1693 1.523 . S
H1695 C1670 0.950 . S
H1696 C1672 0.950 . S
H1697 C1673 0.949 . S
H1698 C1675 0.950 . S
H1699 C1677 0.950 . S
C1700 C1701 1.349 . S
C1700 C1702 1.327 . S
C1700 H1725 0.950 . S
C1701 C1700 1.349 . S
C1701 C1717 1.349 . S
C1702 C1700 1.327 . S
C1702 C1721 1.429 . S
C1702 H1726 0.950 . S
C1703 C1720 1.574 . S
C1703 C1722 1.368 . S
C1703 H1727 0.949 . S
H1704 C1708 0.949 . S
C1705 C1706 1.349 . S
C1705 C1707 1.327 . S
C1705 H1728 0.950 . S
C1706 C1705 1.349 . S
C1706 C1718 1.349 . S
C1707 C1705 1.327 . S
C1707 C1723 1.429 . S
C1707 H1729 0.950 . S
C1708 H1704 0.949 . S
C1708 C1716 1.574 . S
C1708 C1724 1.368 . S
H1709 C1717 0.950 . S
H1710 C1715 0.950 . S
H1711 C1716 0.949 . S
H1712 C1718 0.950 . S
H1713 C1719 0.950 . S
H1714 C1720 0.949 . S
C1715 H1710 0.950 . S
C1715 C1717 1.327 . S
C1715 C1721 1.429 . S
C1716 C1708 1.574 . S
C1716 H1711 0.949 . S
C1716 C1722 1.368 . S
C1717 C1701 1.349 . S
C1717 H1709 0.950 . S
C1717 C1715 1.327 . S
C1718 C1706 1.349 . S
C1718 H1712 0.950 . S
C1718 C1719 1.327 . S
C1719 H1713 0.950 . S
C1719 C1718 1.327 . S
C1719 C1723 1.429 . S
C1720 C1703 1.574 . S
C1720 H1714 0.949 . S
C1720 C1724 1.368 . S
C1721 C1702 1.429 . S
C1721 C1715 1.429 . S
C1721 C1722 1.523 . S
C1722 C1703 1.368 . S
C1722 C1716 1.368 . S
C1722 C1721 1.523 . S
C1723 C1707 1.429 . S
C1723 C1719 1.429 . S
C1723 C1724 1.523 . S
C1724 C1708 1.368 . S
C1724 C1720 1.368 . S
C1724 C1723 1.523 . S
H1725 C1700 0.950 . S
H1726 C1702 0.950 . S
H1727 C1703 0.949 . S
H1728 C1705 0.950 . S
H1729 C1707 0.950 . S
C1730 C1731 1.349 . S
C1730 C1732 1.327 . S
C1730 H1755 0.950 . S
C1731 C1730 1.349 . S
C1731 C1747 1.349 . S
C1732 C1730 1.327 . S
C1732 C1751 1.429 . S
C1732 H1756 0.950 . S
C1733 C1750 1.574 . S
C1733 C1752 1.368 . S
C1733 H1757 0.949 . S
H1734 C1738 0.949 . S
C1735 C1736 1.349 . S
C1735 C1737 1.288 1_565 S
C1735 H1758 0.950 . S
C1736 C1735 1.349 . S
C1736 C1748 1.349 1_565 S
C1737 C1735 1.288 1_545 S
C1737 C1753 1.472 . S
C1737 H1759 0.949 . S
C1738 H1734 0.949 . S
C1738 C1746 1.574 . S
C1738 C1754 1.368 . S
H1739 C1747 0.950 . S
H1740 C1745 0.950 . S
H1741 C1746 0.949 . S
H1742 C1748 0.950 . S
H1743 C1749 0.950 . S
H1744 C1750 0.949 . S
C1745 H1740 0.950 . S
C1745 C1747 1.327 . S
C1745 C1751 1.429 . S
C1746 C1738 1.574 . S
C1746 H1741 0.949 . S
C1746 C1752 1.368 . S
C1747 C1731 1.349 . S
C1747 H1739 0.950 . S
C1747 C1745 1.327 . S
C1748 C1736 1.349 1_545 S
C1748 H1742 0.950 . S
C1748 C1749 1.327 . S
C1749 H1743 0.950 . S
C1749 C1748 1.327 . S
C1749 C1753 1.429 . S
C1750 C1733 1.574 . S
C1750 H1744 0.949 . S
C1750 C1754 1.368 . S
C1751 C1732 1.429 . S
C1751 C1745 1.429 . S
C1751 C1752 1.523 . S
C1752 C1733 1.368 . S
C1752 C1746 1.368 . S
C1752 C1751 1.523 . S
C1753 C1737 1.472 . S
C1753 C1749 1.429 . S
C1753 C1754 1.523 . S
C1754 C1738 1.368 . S
C1754 C1750 1.368 . S
C1754 C1753 1.523 . S
H1755 C1730 0.950 . S
H1756 C1732 0.950 . S
H1757 C1733 0.949 . S
H1758 C1735 0.950 . S
H1759 C1737 0.949 . S
C1760 C1761 1.349 . S
C1760 C1762 1.327 . S
C1760 H1785 0.950 . S
C1761 C1760 1.349 . S
C1761 C1777 1.349 . S
C1762 C1760 1.327 . S
C1762 C1781 1.429 . S
C1762 H1786 0.950 . S
C1763 C1780 1.574 . S
C1763 C1782 1.368 . S
C1763 H1787 0.949 . S
H1764 C1768 0.949 . S
C1765 C1766 1.349 . S
C1765 C1767 1.327 . S
C1765 H1788 0.950 . S
C1766 C1765 1.349 . S
C1766 C1778 1.349 . S
C1767 C1765 1.327 . S
C1767 C1783 1.429 . S
C1767 H1789 0.950 . S
C1768 H1764 0.949 . S
C1768 C1776 1.574 . S
C1768 C1784 1.368 . S
H1769 C1777 0.950 . S
H1770 C1775 0.950 . S
H1771 C1776 0.949 . S
H1772 C1778 0.950 . S
H1773 C1779 0.950 . S
H1774 C1780 0.949 . S
C1775 H1770 0.950 . S
C1775 C1777 1.327 . S
C1775 C1781 1.429 . S
C1776 C1768 1.574 . S
C1776 H1771 0.949 . S
C1776 C1782 1.368 . S
C1777 C1761 1.349 . S
C1777 H1769 0.950 . S
C1777 C1775 1.327 . S
C1778 C1766 1.349 . S
C1778 H1772 0.950 . S
C1778 C1779 1.327 . S
C1779 H1773 0.950 . S
C1779 C1778 1.327 . S
C1779 C1783 1.429 . S
C1780 C1763 1.574 . S
C1780 H1774 0.949 . S
C1780 C1784 1.368 . S
C1781 C1762 1.429 . S
C1781 C1775 1.429 . S
C1781 C1782 1.523 . S
C1782 C1763 1.368 . S
C1782 C1776 1.368 . S
C1782 C1781 1.523 . S
C1783 C1767 1.429 . S
C1783 C1779 1.429 . S
C1783 C1784 1.523 . S
C1784 C1768 1.368 . S
C1784 C1780 1.368 . S
C1784 C1783 1.523 . S
H1785 C1760 0.950 . S
H1786 C1762 0.950 . S
H1787 C1763 0.949 . S
H1788 C1765 0.950 . S
H1789 C1767 0.950 . S
C1790 C1791 1.349 . S
C1790 C1792 1.327 . S
C1790 H1815 0.950 . S
C1791 C1790 1.349 . S
C1791 C1807 1.349 . S
C1792 C1790 1.327 . S
C1792 C1811 1.429 . S
C1792 H1816 0.950 . S
C1793 C1810 1.574 . S
C1793 C1812 1.368 . S
C1793 H1817 0.949 . S
H1794 C1798 0.949 . S
C1795 C1796 1.349 . S
C1795 C1797 1.327 . S
C1795 H1818 0.950 . S
C1796 C1795 1.349 . S
C1796 C1808 1.349 . S
C1797 C1795 1.327 . S
C1797 C1813 1.429 . S
C1797 H1819 0.950 . S
C1798 H1794 0.949 . S
C1798 C1806 1.574 . S
C1798 C1814 1.368 . S
H1799 C1807 0.950 . S
H1800 C1805 0.950 . S
H1801 C1806 0.949 . S
H1802 C1808 0.950 . S
H1803 C1809 0.950 . S
H1804 C1810 0.949 . S
C1805 H1800 0.950 . S
C1805 C1807 1.327 . S
C1805 C1811 1.429 . S
C1806 C1798 1.574 . S
C1806 H1801 0.949 . S
C1806 C1812 1.368 . S
C1807 C1791 1.349 . S
C1807 H1799 0.950 . S
C1807 C1805 1.327 . S
C1808 C1796 1.349 . S
C1808 H1802 0.950 . S
C1808 C1809 1.327 . S
C1809 H1803 0.950 . S
C1809 C1808 1.327 . S
C1809 C1813 1.429 . S
C1810 C1793 1.574 . S
C1810 H1804 0.949 . S
C1810 C1814 1.368 . S
C1811 C1792 1.429 . S
C1811 C1805 1.429 . S
C1811 C1812 1.523 . S
C1812 C1793 1.368 . S
C1812 C1806 1.368 . S
C1812 C1811 1.523 . S
C1813 C1797 1.429 . S
C1813 C1809 1.429 . S
C1813 C1814 1.523 . S
C1814 C1798 1.368 . S
C1814 C1810 1.368 . S
C1814 C1813 1.523 . S
H1815 C1790 0.950 . S
H1816 C1792 0.950 . S
H1817 C1793 0.949 . S
H1818 C1795 0.950 . S
H1819 C1797 0.950 . S
C1820 C1821 1.349 . S
C1820 C1822 1.327 . S
C1820 H1845 0.950 . S
C1821 C1820 1.349 . S
C1821 C1837 1.349 . S
C1822 C1820 1.327 . S
C1822 C1841 1.429 . S
C1822 H1846 0.950 . S
C1823 C1840 1.574 . S
C1823 C1842 1.368 . S
C1823 H1847 0.949 . S
H1824 C1828 0.949 . S
C1825 C1826 1.349 . S
C1825 C1827 1.327 . S
C1825 H1848 0.950 . S
C1826 C1825 1.349 . S
C1826 C1838 1.349 . S
C1827 C1825 1.327 . S
C1827 C1843 1.429 . S
C1827 H1849 0.950 . S
C1828 H1824 0.949 . S
C1828 C1836 1.574 . S
C1828 C1844 1.368 . S
H1829 C1837 0.950 . S
H1830 C1835 0.950 . S
H1831 C1836 0.949 . S
H1832 C1838 0.950 . S
H1833 C1839 0.950 . S
H1834 C1840 0.949 . S
C1835 H1830 0.950 . S
C1835 C1837 1.327 . S
C1835 C1841 1.429 . S
C1836 C1828 1.574 . S
C1836 H1831 0.949 . S
C1836 C1842 1.368 . S
C1837 C1821 1.349 . S
C1837 H1829 0.950 . S
C1837 C1835 1.327 . S
C1838 C1826 1.349 . S
C1838 H1832 0.950 . S
C1838 C1839 1.327 . S
C1839 H1833 0.950 . S
C1839 C1838 1.327 . S
C1839 C1843 1.429 . S
C1840 C1823 1.574 . S
C1840 H1834 0.949 . S
C1840 C1844 1.368 . S
C1841 C1822 1.429 . S
C1841 C1835 1.429 . S
C1841 C1842 1.523 . S
C1842 C1823 1.368 . S
C1842 C1836 1.368 . S
C1842 C1841 1.523 . S
C1843 C1827 1.429 . S
C1843 C1839 1.429 . S
C1843 C1844 1.523 . S
C1844 C1828 1.368 . S
C1844 C1840 1.368 . S
C1844 C1843 1.523 . S
H1845 C1820 0.950 . S
H1846 C1822 0.950 . S
H1847 C1823 0.949 . S
H1848 C1825 0.950 . S
H1849 C1827 0.950 . S
C1850 C1851 1.349 . S
C1850 C1852 1.327 . S
C1850 H1875 0.950 . S
C1851 C1850 1.349 . S
C1851 C1867 1.349 . S
C1852 C1850 1.327 . S
C1852 C1871 1.429 . S
C1852 H1876 0.950 . S
C1853 C1870 1.574 . S
C1853 C1872 1.368 . S
C1853 H1877 0.949 . S
H1854 C1858 0.949 . S
C1855 C1856 1.349 . S
C1855 C1857 1.327 . S
C1855 H1878 0.950 . S
C1856 C1855 1.349 . S
C1856 C1868 1.349 . S
C1857 C1855 1.327 . S
C1857 C1873 1.429 . S
C1857 H1879 0.950 . S
C1858 H1854 0.949 . S
C1858 C1866 1.574 . S
C1858 C1874 1.368 . S
H1859 C1867 0.950 . S
H1860 C1865 0.950 . S
H1861 C1866 0.949 . S
H1862 C1868 0.950 . S
H1863 C1869 0.950 . S
H1864 C1870 0.949 . S
C1865 H1860 0.950 . S
C1865 C1867 1.327 . S
C1865 C1871 1.429 . S
C1866 C1858 1.574 . S
C1866 H1861 0.949 . S
C1866 C1872 1.368 . S
C1867 C1851 1.349 . S
C1867 H1859 0.950 . S
C1867 C1865 1.327 . S
C1868 C1856 1.349 . S
C1868 H1862 0.950 . S
C1868 C1869 1.327 . S
C1869 H1863 0.950 . S
C1869 C1868 1.327 . S
C1869 C1873 1.429 . S
C1870 C1853 1.574 . S
C1870 H1864 0.949 . S
C1870 C1874 1.368 . S
C1871 C1852 1.429 . S
C1871 C1865 1.429 . S
C1871 C1872 1.523 . S
C1872 C1853 1.368 . S
C1872 C1866 1.368 . S
C1872 C1871 1.523 . S
C1873 C1857 1.429 . S
C1873 C1869 1.429 . S
C1873 C1874 1.523 . S
C1874 C1858 1.368 . S
C1874 C1870 1.368 . S
C1874 C1873 1.523 . S
H1875 C1850 0.950 . S
H1876 C1852 0.950 . S
H1877 C1853 0.949 . S
H1878 C1855 0.950 . S
H1879 C1857 0.950 . S
C1880 C1881 1.349 . S
C1880 C1882 1.327 . S
C1880 H1905 0.950 . S
C1881 C1880 1.349 . S
C1881 C1897 1.349 . S
C1882 C1880 1.327 . S
C1882 C1901 1.429 . S
C1882 H1906 0.950 . S
C1883 C1900 1.574 . S
C1883 C1902 1.368 . S
C1883 H1907 0.949 . S
H1884 C1888 0.949 . S
C1885 C1886 1.349 . S
C1885 C1887 1.327 . S
C1885 H1908 0.950 . S
C1886 C1885 1.349 . S
C1886 C1898 1.349 . S
C1887 C1885 1.327 . S
C1887 C1903 1.429 . S
C1887 H1909 0.950 . S
C1888 H1884 0.949 . S
C1888 C1896 1.574 . S
C1888 C1904 1.368 . S
H1889 C1897 0.950 . S
H1890 C1895 0.950 . S
H1891 C1896 0.949 . S
H1892 C1898 0.950 . S
H1893 C1899 0.950 . S
H1894 C1900 0.949 . S
C1895 H1890 0.950 . S
C1895 C1897 1.327 . S
C1895 C1901 1.429 . S
C1896 C1888 1.574 . S
C1896 H1891 0.949 . S
C1896 C1902 1.368 . S
C1897 C1881 1.349 . S
C1897 H1889 0.950 . S
C1897 C1895 1.327 . S
C1898 C1886 1.349 . S
C1898 H1892 0.950 . S
C1898 C1899 1.327 . S
C1899 H1893 0.950 . S
C1899 C1898 1.327 . S
C1899 C1903 1.429 . S
C1900 C1883 1.574 . S
C1900 H1894 0.949 . S
C1900 C1904 1.368 . S
C1901 C1882 1.429 . S
C1901 C1895 1.429 . S
C1901 C1902 1.523 . S
C1902 C1883 1.368 . S
C1902 C1896 1.368 . S
C1902 C1901 1.523 . S
C1903 C1887 1.429 . S
C1903 C1899 1.429 . S
C1903 C1904 1.523 . S
C1904 C1888 1.368 . S
C1904 C1900 1.368 . S
C1904 C1903 1.523 . S
H1905 C1880 0.950 . S
H1906 C1882 0.950 . S
H1907 C1883 0.949 . S
H1908 C1885 0.950 . S
H1909 C1887 0.950 . S
C1910 C1911 1.349 . S
C1910 C1912 1.327 . S
C1910 H1935 0.950 . S
C1911 C1910 1.349 . S
C1911 C1927 1.349 . S
C1912 C1910 1.327 . S
C1912 C1931 1.429 . S
C1912 H1936 0.950 . S
C1913 C1930 1.574 . S
C1913 C1932 1.368 . S
C1913 H1937 0.949 . S
H1914 C1918 0.949 . S
C1915 C1916 1.349 . S
C1915 C1917 1.327 . S
C1915 H1938 0.950 . S
C1916 C1915 1.349 . S
C1916 C1928 1.349 . S
C1917 C1915 1.327 . S
C1917 C1933 1.429 . S
C1917 H1939 0.950 . S
C1918 H1914 0.949 . S
C1918 C1926 1.574 . S
C1918 C1934 1.368 . S
H1919 C1927 0.950 . S
H1920 C1925 0.950 . S
H1921 C1926 0.949 . S
H1922 C1928 0.950 . S
H1923 C1929 0.950 . S
H1924 C1930 0.949 . S
C1925 H1920 0.950 . S
C1925 C1927 1.327 . S
C1925 C1931 1.429 . S
C1926 C1918 1.574 . S
C1926 H1921 0.949 . S
C1926 C1932 1.368 . S
C1927 C1911 1.349 . S
C1927 H1919 0.950 . S
C1927 C1925 1.327 . S
C1928 C1916 1.349 . S
C1928 H1922 0.950 . S
C1928 C1929 1.327 . S
C1929 H1923 0.950 . S
C1929 C1928 1.327 . S
C1929 C1933 1.429 . S
C1930 C1913 1.574 . S
C1930 H1924 0.949 . S
C1930 C1934 1.368 . S
C1931 C1912 1.429 . S
C1931 C1925 1.429 . S
C1931 C1932 1.523 . S
C1932 C1913 1.368 . S
C1932 C1926 1.368 . S
C1932 C1931 1.523 . S
C1933 C1917 1.429 . S
C1933 C1929 1.429 . S
C1933 C1934 1.523 . S
C1934 C1918 1.368 . S
C1934 C1930 1.368 . S
C1934 C1933 1.523 . S
H1935 C1910 0.950 . S
H1936 C1912 0.950 . S
H1937 C1913 0.949 . S
H1938 C1915 0.950 . S
H1939 C1917 0.950 . S
C1940 C1941 1.349 . S
C1940 C1942 1.327 . S
C1940 H1965 0.950 . S
C1941 C1940 1.349 . S
C1941 C1957 1.349 . S
C1942 C1940 1.327 . S
C1942 C1961 1.429 . S
C1942 H1966 0.950 . S
C1943 C1960 1.574 . S
C1943 C1962 1.368 . S
C1943 H1967 0.949 . S
H1944 C1948 0.949 . S
C1945 C1946 1.349 . S
C1945 C1947 1.327 . S
C1945 H1968 0.950 . S
C1946 C1945 1.349 . S
C1946 C1958 1.349 . S
C1947 C1945 1.327 . S
C1947 C1963 1.429 . S
C1947 H1969 0.950 . S
C1948 H1944 0.949 . S
C1948 C1956 1.574 . S
C1948 C1964 1.368 . S
H1949 C1957 0.950 . S
H1950 C1955 0.950 . S
H1951 C1956 0.949 . S
H1952 C1958 0.950 . S
H1953 C1959 0.950 . S
H1954 C1960 0.949 . S
C1955 H1950 0.950 . S
C1955 C1957 1.327 . S
C1955 C1961 1.429 . S
C1956 C1948 1.574 . S
C1956 H1951 0.949 . S
C1956 C1962 1.368 . S
C1957 C1941 1.349 . S
C1957 H1949 0.950 . S
C1957 C1955 1.327 . S
C1958 C1946 1.349 . S
C1958 H1952 0.950 . S
C1958 C1959 1.327 . S
C1959 H1953 0.950 . S
C1959 C1958 1.327 . S
C1959 C1963 1.429 . S
C1960 C1943 1.574 . S
C1960 H1954 0.949 . S
C1960 C1964 1.368 . S
C1961 C1942 1.429 . S
C1961 C1955 1.429 . S
C1961 C1962 1.523 . S
C1962 C1943 1.368 . S
C1962 C1956 1.368 . S
C1962 C1961 1.523 . S
C1963 C1947 1.429 . S
C1963 C1959 1.429 . S
C1963 C1964 1.523 . S
C1964 C1948 1.368 . S
C1964 C1960 1.368 . S
C1964 C1963 1.523 . S
H1965 C1940 0.950 . S
H1966 C1942 0.950 . S
H1967 C1943 0.949 . S
H1968 C1945 0.950 . S
H1969 C1947 0.950 . S
C1970 C1971 1.349 . S
C1970 C1972 1.327 . S
C1970 H1995 0.950 . S
C1971 C1970 1.349 . S
C1971 C1987 1.349 . S
C1972 C1970 1.327 . S
C1972 C1991 1.429 . S
C1972 H1996 0.950 . S
C1973 C1990 1.574 . S
C1973 C1992 1.368 . S
C1973 H1997 0.949 . S
H1974 C1978 0.949 . S
C1975 C1976 1.349 . S
C1975 C1977 1.327 . S
C1975 H1998 0.950 . S
C1976 C1975 1.349 . S
C1976 C1988 1.349 . S
C1977 C1975 1.327 . S
C1977 C1993 1.429 . S
C1977 H1999 0.950 . S
C1978 H1974 0.949 . S
C1978 C1986 1.574 . S
C1978 C1994 1.368 . S
H1979 C1987 0.950 . S
H1980 C1985 0.950 . S
H1981 C1986 0.949 . S
H1982 C1988 0.950 . S
H1983 C1989 0.950 . S
H1984 C1990 0.949 . S
C1985 H1980 0.950 . S
C1985 C1987 1.327 . S
C1985 C1991 1.429 . S
C1986 C1978 1.574 . S
C1986 H1981 0.949 . S
C1986 C1992 1.368 . S
C1987 C1971 1.349 . S
C1987 H1979 0.950 . S
C1987 C1985 1.327 . S
C1988 C1976 1.349 . S
C1988 H1982 0.950 . S
C1988 C1989 1.327 . S
C1989 H1983 0.950 . S
C1989 C1988 1.327 . S
C1989 C1993 1.429 . S
C1990 C1973 1.574 . S
C1990 H1984 0.949 . S
C1990 C1994 1.368 . S
C1991 C1972 1.429 . S
C1991 C1985 1.429 . S
C1991 C1992 1.523 . S
C1992 C1973 1.368 . S
C1992 C1986 1.368 . S
C1992 C1991 1.523 . S
C1993 C1977 1.429 . S
C1993 C1989 1.429 . S
C1993 C1994 1.523 . S
C1994 C1978 1.368 . S
C1994 C1990 1.368 . S
C1994 C1993 1.523 . S
H1995 C1970 0.950 . S
H1996 C1972 0.950 . S
H1997 C1973 0.949 . S
H1998 C1975 0.950 . S
H1999 C1977 0.950 . S
C2000 C2001 1.349 . S
C2000 C2002 1.327 . S
C2000 H2025 0.950 . S
C2001 C2000 1.349 . S
C2001 C2017 1.349 . S
C2002 C2000 1.327 . S
C2002 C2021 1.429 . S
C2002 H2026 0.950 . S
C2003 C2020 1.574 . S
C2003 C2022 1.368 . S
C2003 H2027 0.949 . S
H2004 C2008 0.949 . S
C2005 C2006 1.349 . S
C2005 C2007 1.327 . S
C2005 H2028 0.950 . S
C2006 C2005 1.349 . S
C2006 C2018 1.349 . S
C2007 C2005 1.327 . S
C2007 C2023 1.429 . S
C2007 H2029 0.950 . S
C2008 H2004 0.949 . S
C2008 C2016 1.574 . S
C2008 C2024 1.368 . S
H2009 C2017 0.950 . S
H2010 C2015 0.950 . S
H2011 C2016 0.949 . S
H2012 C2018 0.950 . S
H2013 C2019 0.950 . S
H2014 C2020 0.949 . S
C2015 H2010 0.950 . S
C2015 C2017 1.327 . S
C2015 C2021 1.429 . S
C2016 C2008 1.574 . S
C2016 H2011 0.949 . S
C2016 C2022 1.368 . S
C2017 C2001 1.349 . S
C2017 H2009 0.950 . S
C2017 C2015 1.327 . S
C2018 C2006 1.349 . S
C2018 H2012 0.950 . S
C2018 C2019 1.327 . S
C2019 H2013 0.950 . S
C2019 C2018 1.327 . S
C2019 C2023 1.429 . S
C2020 C2003 1.574 . S
C2020 H2014 0.949 . S
C2020 C2024 1.368 . S
C2021 C2002 1.429 . S
C2021 C2015 1.429 . S
C2021 C2022 1.523 . S
C2022 C2003 1.368 . S
C2022 C2016 1.368 . S
C2022 C2021 1.523 . S
C2023 C2007 1.429 . S
C2023 C2019 1.429 . S
C2023 C2024 1.523 . S
C2024 C2008 1.368 . S
C2024 C2020 1.368 . S
C2024 C2023 1.523 . S
H2025 C2000 0.950 . S
H2026 C2002 0.950 . S
H2027 C2003 0.949 . S
H2028 C2005 0.950 . S
H2029 C2007 0.950 . S
C2030 C2031 1.349 . S
C2030 C2032 1.327 . S
C2030 H2055 0.950 . S
C2031 C2030 1.349 . S
C2031 C2047 1.349 . S
C2032 C2030 1.327 . S
C2032 C2051 1.429 . S
C2032 H2056 0.950 . S
C2033 C2050 1.574 . S
C2033 C2052 1.368 . S
C2033 H2057 0.949 . S
H2034 C2038 0.949 . S
C2035 C2036 1.349 . S
C2035 C2037 1.327 . S
C2035 H2058 0.950 . S
C2036 C2035 1.349 . S
C2036 C2048 1.349 . S
C2037 C2035 1.327 . S
C2037 C2053 1.429 . S
C2037 H2059 0.950 . S
C2038 H2034 0.949 . S
C2038 C2046 1.574 . S
C2038 C2054 1.368 . S
H2039 C2047 0.950 . S
H2040 C2045 0.950 . S
H2041 C2046 0.949 . S
H2042 C2048 0.950 . S
H2043 C2049 0.950 . S
H2044 C2050 0.949 . S
C2045 H2040 0.950 . S
C2045 C2047 1.327 . S
C2045 C2051 1.429 . S
C2046 C2038 1.574 . S
C2046 H2041 0.949 . S
C2046 C2052 1.368 . S
C2047 C2031 1.349 . S
C2047 H2039 0.950 . S
C2047 C2045 1.327 . S
C2048 C2036 1.349 . S
C2048 H2042 0.950 . S
C2048 C2049 1.327 . S
C2049 H2043 0.950 . S
C2049 C2048 1.327 . S
C2049 C2053 1.429 . S
C2050 C2033 1.574 . S
C2050 H2044 0.949 . S
C2050 C2054 1.368 . S
C2051 C2032 1.429 . S
C2051 C2045 1.429 . S
C2051 C2052 1.523 . S
C2052 C2033 1.368 . S
C2052 C2046 1.368 . S
C2052 C2051 1.523 . S
C2053 C2037 1.429 . S
C2053 C2049 1.429 . S
C2053 C2054 1.523 . S
C2054 C2038 1.368 . S
C2054 C2050 1.368 . S
C2054 C2053 1.523 . S
H2055 C2030 0.950 . S
H2056 C2032 0.950 . S
H2057 C2033 0.949 . S
H2058 C2035 0.950 . S
H2059 C2037 0.950 . S
C2060 C2061 1.349 . S
C2060 C2062 1.327 . S
C2060 H2085 0.950 . S
C2061 C2060 1.349 . S
C2061 C2077 1.349 . S
C2062 C2060 1.327 . S
C2062 C2081 1.429 . S
C2062 H2086 0.950 . S
C2063 C2080 1.574 . S
C2063 C2082 1.368 . S
C2063 H2087 0.949 . S
H2064 C2068 0.949 . S
C2065 C2066 1.349 . S
C2065 C2067 1.327 . S
C2065 H2088 0.950 . S
C2066 C2065 1.349 . S
C2066 C2078 1.349 . S
C2067 C2065 1.327 . S
C2067 C2083 1.429 . S
C2067 H2089 0.950 . S
C2068 H2064 0.949 . S
C2068 C2076 1.574 . S
C2068 C2084 1.368 . S
H2069 C2077 0.950 . S
H2070 C2075 0.950 . S
H2071 C2076 0.949 . S
H2072 C2078 0.950 . S
H2073 C2079 0.950 . S
H2074 C2080 0.949 . S
C2075 H2070 0.950 . S
C2075 C2077 1.327 . S
C2075 C2081 1.429 . S
C2076 C2068 1.574 . S
C2076 H2071 0.949 . S
C2076 C2082 1.368 . S
C2077 C2061 1.349 . S
C2077 H2069 0.950 . S
C2077 C2075 1.327 . S
C2078 C2066 1.349 . S
C2078 H2072 0.950 . S
C2078 C2079 1.327 . S
C2079 H2073 0.950 . S
C2079 C2078 1.327 . S
C2079 C2083 1.429 . S
C2080 C2063 1.574 . S
C2080 H2074 0.949 . S
C2080 C2084 1.368 . S
C2081 C2062 1.429 . S
C2081 C2075 1.429 . S
C2081 C2082 1.523 . S
C2082 C2063 1.368 . S
C2082 C2076 1.368 . S
C2082 C2081 1.523 . S
C2083 C2067 1.429 . S
C2083 C2079 1.429 . S
C2083 C2084 1.523 . S
C2084 C2068 1.368 . S
C2084 C2080 1.368 . S
C2084 C2083 1.523 . S
H2085 C2060 0.950 . S
H2086 C2062 0.950 . S
H2087 C2063 0.949 . S
H2088 C2065 0.950 . S
H2089 C2067 0.950 . S
C2090 C2091 1.349 . S
C2090 C2092 1.327 . S
C2090 H2115 0.950 . S
C2091 C2090 1.349 . S
C2091 C2107 1.349 . S
C2092 C2090 1.327 . S
C2092 C2111 1.429 . S
C2092 H2116 0.950 . S
C2093 C2110 1.574 . S
C2093 C2112 1.368 . S
C2093 H2117 0.949 . S
H2094 C2098 0.949 . S
C2095 C2096 1.349 . S
C2095 C2097 1.327 . S
C2095 H2118 0.950 . S
C2096 C2095 1.349 . S
C2096 C2108 1.349 . S
C2097 C2095 1.327 . S
C2097 C2113 1.429 . S
C2097 H2119 0.950 . S
C2098 H2094 0.949 . S
C2098 C2106 1.574 . S
C2098 C2114 1.368 . S
H2099 C2107 0.950 . S
H2100 C2105 0.950 . S
H2101 C2106 0.949 . S
H2102 C2108 0.950 . S
H2103 C2109 0.950 . S
H2104 C2110 0.949 . S
C2105 H2100 0.950 . S
C2105 C2107 1.327 . S
C2105 C2111 1.429 . S
C2106 C2098 1.574 . S
C2106 H2101 0.949 . S
C2106 C2112 1.368 . S
C2107 C2091 1.349 . S
C2107 H2099 0.950 . S
C2107 C2105 1.327 . S
C2108 C2096 1.349 . S
C2108 H2102 0.950 . S
C2108 C2109 1.327 . S
C2109 H2103 0.950 . S
C2109 C2108 1.327 . S
C2109 C2113 1.429 . S
C2110 C2093 1.574 . S
C2110 H2104 0.949 . S
C2110 C2114 1.368 . S
C2111 C2092 1.429 . S
C2111 C2105 1.429 . S
C2111 C2112 1.523 . S
C2112 C2093 1.368 . S
C2112 C2106 1.368 . S
C2112 C2111 1.523 . S
C2113 C2097 1.429 . S
C2113 C2109 1.429 . S
C2113 C2114 1.523 . S
C2114 C2098 1.368 . S
C2114 C2110 1.368 . S
C2114 C2113 1.523 . S
H2115 C2090 0.950 . S
H2116 C2092 0.950 . S
H2117 C2093 0.949 . S
H2118 C2095 0.950 . S
H2119 C2097 0.950 . S
C2120 C2121 1.349 . S
C2120 C2122 1.327 . S
C2120 H2145 0.950 . S
C2121 C2120 1.349 . S
C2121 C2137 1.349 . S
C2122 C2120 1.327 . S
C2122 C2141 1.429 . S
C2122 H2146 0.950 . S
C2123 C2140 1.574 . S
C2123 C2142 1.368 . S
C2123 H2147 0.949 . S
H2124 C2128 0.949 . S
C2125 C2126 1.349 . S
C2125 C2127 1.327 . S
C2125 H2148 0.950 . S
C2126 C2125 1.349 . S
C2126 C2138 1.349 . S
C2127 C2125 1.327 . S
C2127 C2143 1.429 . S
C2127 H2149 0.950 . S
C2128 H2124 0.949 . S
C2128 C2136 1.574 . S
C2128 C2144 1.368 . S
H2129 C2137 0.950 . S
H2130 C2135 0.950 . S
H2131 C2136 0.949 . S
H2132 C2138 0.950 . S
H2133 C2139 0.950 . S
H2134 C2140 0.949 . S
C2135 H2130 0.950 . S
C2135 C2137 1.327 . S
C2135 C2141 1.429 . S
C2136 C2128 1.574 . S
C2136 H2131 0.949 . S
C2136 C2142 1.368 . S
C2137 C2121 1.349 . S
C2137 H2129 0.950 . S
C2137 C2135 1.327 . S
C2138 C2126 1.349 . S
C2138 H2132 0.950 . S
C2138 C2139 1.327 . S
C2139 H2133 0.950 . S
C2139 C2138 1.327 . S
C2139 C2143 1.429 . S
C2140 C2123 1.574 . S
C2140 H2134 0.949 . S
C2140 C2144 1.368 . S
C2141 C2122 1.429 . S
C2141 C2135 1.429 . S
C2141 C2142 1.523 . S
C2142 C2123 1.368 . S
C2142 C2136 1.368 . S
C2142 C2141 1.523 . S
C2143 C2127 1.429 . S
C2143 C2139 1.429 . S
C2143 C2144 1.523 . S
C2144 C2128 1.368 . S
C2144 C2140 1.368 . S
C2144 C2143 1.523 . S
H2145 C2120 0.950 . S
H2146 C2122 0.950 . S
H2147 C2123 0.949 . S
H2148 C2125 0.950 . S
H2149 C2127 0.950 . S
C2150 C2151 1.349 . S
C2150 C2152 1.327 . S
C2150 H2175 0.950 . S
C2151 C2150 1.349 . S
C2151 C2167 1.349 . S
C2152 C2150 1.327 . S
C2152 C2171 1.429 . S
C2152 H2176 0.950 . S
C2153 C2170 1.574 . S
C2153 C2172 1.368 . S
C2153 H2177 0.949 . S
H2154 C2158 0.949 . S
C2155 C2156 1.349 . S
C2155 C2157 1.327 . S
C2155 H2178 0.950 . S
C2156 C2155 1.349 . S
C2156 C2168 1.349 . S
C2157 C2155 1.327 . S
C2157 C2173 1.429 . S
C2157 H2179 0.950 . S
C2158 H2154 0.949 . S
C2158 C2166 1.574 . S
C2158 C2174 1.368 . S
H2159 C2167 0.950 . S
H2160 C2165 0.950 . S
H2161 C2166 0.949 . S
H2162 C2168 0.950 . S
H2163 C2169 0.950 . S
H2164 C2170 0.949 . S
C2165 H2160 0.950 . S
C2165 C2167 1.327 . S
C2165 C2171 1.429 . S
C2166 C2158 1.574 . S
C2166 H2161 0.949 . S
C2166 C2172 1.368 . S
C2167 C2151 1.349 . S
C2167 H2159 0.950 . S
C2167 C2165 1.327 . S
C2168 C2156 1.349 . S
C2168 H2162 0.950 . S
C2168 C2169 1.327 . S
C2169 H2163 0.950 . S
C2169 C2168 1.327 . S
C2169 C2173 1.429 . S
C2170 C2153 1.574 . S
C2170 H2164 0.949 . S
C2170 C2174 1.368 . S
C2171 C2152 1.429 . S
C2171 C2165 1.429 . S
C2171 C2172 1.523 . S
C2172 C2153 1.368 . S
C2172 C2166 1.368 . S
C2172 C2171 1.523 . S
C2173 C2157 1.429 . S
C2173 C2169 1.429 . S
C2173 C2174 1.523 . S
C2174 C2158 1.368 . S
C2174 C2170 1.368 . S
C2174 C2173 1.523 . S
H2175 C2150 0.950 . S
H2176 C2152 0.950 . S
H2177 C2153 0.949 . S
H2178 C2155 0.950 . S
H2179 C2157 0.950 . S
C2180 C2181 1.349 . S
C2180 C2182 1.327 . S
C2180 H2205 0.950 . S
C2181 C2180 1.349 . S
C2181 C2197 1.349 . S
C2182 C2180 1.327 . S
C2182 C2201 1.429 . S
C2182 H2206 0.950 . S
C2183 C2200 1.574 . S
C2183 C2202 1.368 . S
C2183 H2207 0.949 . S
H2184 C2188 0.949 . S
C2185 C2186 1.349 . S
C2185 C2187 1.327 . S
C2185 H2208 0.950 . S
C2186 C2185 1.349 . S
C2186 C2198 1.349 . S
C2187 C2185 1.327 . S
C2187 C2203 1.429 . S
C2187 H2209 0.950 . S
C2188 H2184 0.949 . S
C2188 C2196 1.574 . S
C2188 C2204 1.368 . S
H2189 C2197 0.950 . S
H2190 C2195 0.950 . S
H2191 C2196 0.949 . S
H2192 C2198 0.950 . S
H2193 C2199 0.950 . S
H2194 C2200 0.949 . S
C2195 H2190 0.950 . S
C2195 C2197 1.327 . S
C2195 C2201 1.429 . S
C2196 C2188 1.574 . S
C2196 H2191 0.949 . S
C2196 C2202 1.368 . S
C2197 C2181 1.349 . S
C2197 H2189 0.950 . S
C2197 C2195 1.327 . S
C2198 C2186 1.349 . S
C2198 H2192 0.950 . S
C2198 C2199 1.327 . S
C2199 H2193 0.950 . S
C2199 C2198 1.327 . S
C2199 C2203 1.429 . S
C2200 C2183 1.574 . S
C2200 H2194 0.949 . S
C2200 C2204 1.368 . S
C2201 C2182 1.429 . S
C2201 C2195 1.429 . S
C2201 C2202 1.523 . S
C2202 C2183 1.368 . S
C2202 C2196 1.368 . S
C2202 C2201 1.523 . S
C2203 C2187 1.429 . S
C2203 C2199 1.429 . S
C2203 C2204 1.523 . S
C2204 C2188 1.368 . S
C2204 C2200 1.368 . S
C2204 C2203 1.523 . S
H2205 C2180 0.950 . S
H2206 C2182 0.950 . S
H2207 C2183 0.949 . S
H2208 C2185 0.950 . S
H2209 C2187 0.950 . S
C2210 C2211 1.349 . S
C2210 C2212 1.327 . S
C2210 H2235 0.950 . S
C2211 C2210 1.349 . S
C2211 C2227 1.349 . S
C2212 C2210 1.327 . S
C2212 C2231 1.429 . S
C2212 H2236 0.950 . S
C2213 C2230 1.574 . S
C2213 C2232 1.368 . S
C2213 H2237 0.949 . S
H2214 C2218 0.949 . S
C2215 C2216 1.349 . S
C2215 C2217 1.327 . S
C2215 H2238 0.950 . S
C2216 C2215 1.349 . S
C2216 C2228 1.349 . S
C2217 C2215 1.327 . S
C2217 C2233 1.429 . S
C2217 H2239 0.950 . S
C2218 H2214 0.949 . S
C2218 C2226 1.574 . S
C2218 C2234 1.368 . S
H2219 C2227 0.950 . S
H2220 C2225 0.950 . S
H2221 C2226 0.949 . S
H2222 C2228 0.950 . S
H2223 C2229 0.950 . S
H2224 C2230 0.949 . S
C2225 H2220 0.950 . S
C2225 C2227 1.327 . S
C2225 C2231 1.429 . S
C2226 C2218 1.574 . S
C2226 H2221 0.949 . S
C2226 C2232 1.368 . S
C2227 C2211 1.349 . S
C2227 H2219 0.950 . S
C2227 C2225 1.327 . S
C2228 C2216 1.349 . S
C2228 H2222 0.950 . S
C2228 C2229 1.327 . S
C2229 H2223 0.950 . S
C2229 C2228 1.327 . S
C2229 C2233 1.429 . S
C2230 C2213 1.574 . S
C2230 H2224 0.949 . S
C2230 C2234 1.368 . S
C2231 C2212 1.429 . S
C2231 C2225 1.429 . S
C2231 C2232 1.523 . S
C2232 C2213 1.368 . S
C2232 C2226 1.368 . S
C2232 C2231 1.523 . S
C2233 C2217 1.429 . S
C2233 C2229 1.429 . S
C2233 C2234 1.523 . S
C2234 C2218 1.368 . S
C2234 C2230 1.368 . S
C2234 C2233 1.523 . S
H2235 C2210 0.950 . S
H2236 C2212 0.950 . S
H2237 C2213 0.949 . S
H2238 C2215 0.950 . S
H2239 C2217 0.950 . S
C2240 C2241 1.349 . S
C2240 C2242 1.327 . S
C2240 H2265 0.950 . S
C2241 C2240 1.349 . S
C2241 C2257 1.349 . S
C2242 C2240 1.327 . S
C2242 C2261 1.429 . S
C2242 H2266 0.950 . S
C2243 C2260 1.574 . S
C2243 C2262 1.368 . S
C2243 H2267 0.949 . S
H2244 C2248 0.949 . S
C2245 C2246 1.349 . S
C2245 C2247 1.327 . S
C2245 H2268 0.950 . S
C2246 C2245 1.349 . S
C2246 C2258 1.349 . S
C2247 C2245 1.327 . S
C2247 C2263 1.429 . S
C2247 H2269 0.950 . S
C2248 H2244 0.949 . S
C2248 C2256 1.574 . S
C2248 C2264 1.368 . S
H2249 C2257 0.950 . S
H2250 C2255 0.950 . S
H2251 C2256 0.949 . S
H2252 C2258 0.950 . S
H2253 C2259 0.950 . S
H2254 C2260 0.949 . S
C2255 H2250 0.950 . S
C2255 C2257 1.327 . S
C2255 C2261 1.429 . S
C2256 C2248 1.574 . S
C2256 H2251 0.949 . S
C2256 C2262 1.368 . S
C2257 C2241 1.349 . S
C2257 H2249 0.950 . S
C2257 C2255 1.327 . S
C2258 C2246 1.349 . S
C2258 H2252 0.950 . S
C2258 C2259 1.327 . S
C2259 H2253 0.950 . S
C2259 C2258 1.327 . S
C2259 C2263 1.429 . S
C2260 C2243 1.574 . S
C2260 H2254 0.949 . S
C2260 C2264 1.368 . S
C2261 C2242 1.429 . S
C2261 C2255 1.429 . S
C2261 C2262 1.523 . S
C2262 C2243 1.368 . S
C2262 C2256 1.368 . S
C2262 C2261 1.523 . S
C2263 C2247 1.429 . S
C2263 C2259 1.429 . S
C2263 C2264 1.523 . S
C2264 C2248 1.368 . S
C2264 C2260 1.368 . S
C2264 C2263 1.523 . S
H2265 C2240 0.950 . S
H2266 C2242 0.950 . S
H2267 C2243 0.949 . S
H2268 C2245 0.950 . S
H2269 C2247 0.950 . S
C2270 C2271 1.349 . S
C2270 C2272 1.327 . S
C2270 H2295 0.950 . S
C2271 C2270 1.349 . S
C2271 C2287 1.349 . S
C2272 C2270 1.327 . S
C2272 C2291 1.429 . S
C2272 H2296 0.950 . S
C2273 C2290 1.574 . S
C2273 C2292 1.368 . S
C2273 H2297 0.949 . S
H2274 C2278 0.949 . S
C2275 C2276 1.349 . S
C2275 C2277 1.327 . S
C2275 H2298 0.950 . S
C2276 C2275 1.349 . S
C2276 C2288 1.349 . S
C2277 C2275 1.327 . S
C2277 C2293 1.429 1_655 S
C2277 H2299 0.950 . S
C2278 H2274 0.949 . S
C2278 C2286 1.574 . S
C2278 C2294 1.368 . S
H2279 C2287 0.950 . S
H2280 C2285 0.950 . S
H2281 C2286 0.949 . S
H2282 C2288 0.950 . S
H2283 C2289 0.950 . S
H2284 C2290 0.949 . S
C2285 H2280 0.950 . S
C2285 C2287 1.327 . S
C2285 C2291 1.429 . S
C2286 C2278 1.574 . S
C2286 H2281 0.949 . S
C2286 C2292 1.368 . S
C2287 C2271 1.349 . S
C2287 H2279 0.950 . S
C2287 C2285 1.327 . S
C2288 C2276 1.349 . S
C2288 H2282 0.950 . S
C2288 C2289 1.327 1_655 S
C2289 H2283 0.950 . S
C2289 C2288 1.327 1_455 S
C2289 C2293 1.429 . S
C2290 C2273 1.574 . S
C2290 H2284 0.949 . S
C2290 C2294 1.368 . S
C2291 C2272 1.429 . S
C2291 C2285 1.429 . S
C2291 C2292 1.523 . S
C2292 C2273 1.368 . S
C2292 C2286 1.368 . S
C2292 C2291 1.523 . S
C2293 C2277 1.429 1_455 S
C2293 C2289 1.429 . S
C2293 C2294 1.523 . S
C2294 C2278 1.368 . S
C2294 C2290 1.368 . S
C2294 C2293 1.523 . S
H2295 C2270 0.950 . S
H2296 C2272 0.950 . S
H2297 C2273 0.949 . S
H2298 C2275 0.950 . S
H2299 C2277 0.950 . S
C2300 C2301 1.349 . S
C2300 C2302 1.327 . S
C2300 H2325 0.950 . S
C2301 C2300 1.349 . S
C2301 C2317 1.349 . S
C2302 C2300 1.327 . S
C2302 C2321 1.429 . S
C2302 H2326 0.950 . S
C2303 C2320 1.574 . S
C2303 C2322 1.368 . S
C2303 H2327 0.949 . S
H2304 C2308 0.949 . S
C2305 C2306 1.349 . S
C2305 C2307 1.327 . S
C2305 H2328 0.950 . S
C2306 C2305 1.349 . S
C2306 C2318 1.349 . S
C2307 C2305 1.327 . S
C2307 C2323 1.429 . S
C2307 H2329 0.950 . S
C2308 H2304 0.949 . S
C2308 C2316 1.574 . S
C2308 C2324 1.368 . S
H2309 C2317 0.950 . S
H2310 C2315 0.950 . S
H2311 C2316 0.949 . S
H2312 C2318 0.950 . S
H2313 C2319 0.950 . S
H2314 C2320 0.949 . S
C2315 H2310 0.950 . S
C2315 C2317 1.327 . S
C2315 C2321 1.429 . S
C2316 C2308 1.574 . S
C2316 H2311 0.949 . S
C2316 C2322 1.368 . S
C2317 C2301 1.349 . S
C2317 H2309 0.950 . S
C2317 C2315 1.327 . S
C2318 C2306 1.349 . S
C2318 H2312 0.950 . S
C2318 C2319 1.327 . S
C2319 H2313 0.950 . S
C2319 C2318 1.327 . S
C2319 C2323 1.429 . S
C2320 C2303 1.574 . S
C2320 H2314 0.949 . S
C2320 C2324 1.368 . S
C2321 C2302 1.429 . S
C2321 C2315 1.429 . S
C2321 C2322 1.523 . S
C2322 C2303 1.368 . S
C2322 C2316 1.368 . S
C2322 C2321 1.523 . S
C2323 C2307 1.429 . S
C2323 C2319 1.429 . S
C2323 C2324 1.523 . S
C2324 C2308 1.368 . S
C2324 C2320 1.368 . S
C2324 C2323 1.523 . S
H2325 C2300 0.950 . S
H2326 C2302 0.950 . S
H2327 C2303 0.949 . S
H2328 C2305 0.950 . S
H2329 C2307 0.950 . S
C2330 C2331 1.349 . S
C2330 C2332 1.327 . S
C2330 H2355 0.950 . S
C2331 C2330 1.349 . S
C2331 C2347 1.349 . S
C2332 C2330 1.327 . S
C2332 C2351 1.429 . S
C2332 H2356 0.950 . S
C2333 C2350 1.574 . S
C2333 C2352 1.368 . S
C2333 H2357 0.949 . S
H2334 C2338 0.949 . S
C2335 C2336 1.349 . S
C2335 C2337 1.327 . S
C2335 H2358 0.950 . S
C2336 C2335 1.349 . S
C2336 C2348 1.349 . S
C2337 C2335 1.327 . S
C2337 C2353 1.429 . S
C2337 H2359 0.950 . S
C2338 H2334 0.949 . S
C2338 C2346 1.574 . S
C2338 C2354 1.368 . S
H2339 C2347 0.950 . S
H2340 C2345 0.950 . S
H2341 C2346 0.949 . S
H2342 C2348 0.950 . S
H2343 C2349 0.950 . S
H2344 C2350 0.949 . S
C2345 H2340 0.950 . S
C2345 C2347 1.327 . S
C2345 C2351 1.429 . S
C2346 C2338 1.574 . S
C2346 H2341 0.949 . S
C2346 C2352 1.368 . S
C2347 C2331 1.349 . S
C2347 H2339 0.950 . S
C2347 C2345 1.327 . S
C2348 C2336 1.349 . S
C2348 H2342 0.950 . S
C2348 C2349 1.327 . S
C2349 H2343 0.950 . S
C2349 C2348 1.327 . S
C2349 C2353 1.429 . S
C2350 C2333 1.574 . S
C2350 H2344 0.949 . S
C2350 C2354 1.368 . S
C2351 C2332 1.429 . S
C2351 C2345 1.429 . S
C2351 C2352 1.523 . S
C2352 C2333 1.368 . S
C2352 C2346 1.368 . S
C2352 C2351 1.523 . S
C2353 C2337 1.429 . S
C2353 C2349 1.429 . S
C2353 C2354 1.523 . S
C2354 C2338 1.368 . S
C2354 C2350 1.368 . S
C2354 C2353 1.523 . S
H2355 C2330 0.950 . S
H2356 C2332 0.950 . S
H2357 C2333 0.949 . S
H2358 C2335 0.950 . S
H2359 C2337 0.950 . S
C2360 C2361 1.349 . S
C2360 C2362 1.327 . S
C2360 H2385 0.950 . S
C2361 C2360 1.349 . S
C2361 C2377 1.349 . S
C2362 C2360 1.327 . S
C2362 C2381 1.429 . S
C2362 H2386 0.950 . S
C2363 C2380 1.574 . S
C2363 C2382 1.368 . S
C2363 H2387 0.949 . S
H2364 C2368 0.949 . S
C2365 C2366 1.349 . S
C2365 C2367 1.327 . S
C2365 H2388 0.950 . S
C2366 C2365 1.349 . S
C2366 C2378 1.349 . S
C2367 C2365 1.327 . S
C2367 C2383 1.429 . S
C2367 H2389 0.950 . S
C2368 H2364 0.949 . S
C2368 C2376 1.574 . S
C2368 C2384 1.368 . S
H2369 C2377 0.950 . S
H2370 C2375 0.950 . S
H2371 C2376 0.949 . S
H2372 C2378 0.950 . S
H2373 C2379 0.950 . S
H2374 C2380 0.949 . S
C2375 H2370 0.950 . S
C2375 C2377 1.327 . S
C2375 C2381 1.429 . S
C2376 C2368 1.574 . S
C2376 H2371 0.949 . S
C2376 C2382 1.368 . S
C2377 C2361 1.349 . S
C2377 H2369 0.950 . S
C2377 C2375 1.327 . S
C2378 C2366 1.349 . S
C2378 H2372 0.950 . S
C2378 C2379 1.327 . S
C2379 H2373 0.950 . S
C2379 C2378 1.327 . S
C2379 C2383 1.429 . S
C2380 C2363 1.574 . S
C2380 H2374 0.949 . S
C2380 C2384 1.368 . S
C2381 C2362 1.429 . S
C2381 C2375 1.429 . S
C2381 C2382 1.523 . S
C2382 C2363 1.368 . S
C2382 C2376 1.368 . S
C2382 C2381 1.523 . S
C2383 C2367 1.429 . S
C2383 C2379 1.429 . S
C2383 C2384 1.523 . S
C2384 C2368 1.368 . S
C2384 C2380 1.368 . S
C2384 C2383 1.523 . S
H2385 C2360 0.950 . S
H2386 C2362 0.950 . S
H2387 C2363 0.949 . S
H2388 C2365 0.950 . S
H2389 C2367 0.950 . S
C2390 C2391 1.349 . S
C2390 C2392 1.327 . S
C2390 H2415 0.950 . S
C2391 C2390 1.349 . S
C2391 C2407 1.349 . S
C2392 C2390 1.327 . S
C2392 C2411 1.429 . S
C2392 H2416 0.950 . S
C2393 C2410 1.574 . S
C2393 C2412 1.368 . S
C2393 H2417 0.949 . S
H2394 C2398 0.949 . S
C2395 C2396 1.349 . S
C2395 C2397 1.327 . S
C2395 H2418 0.950 . S
C2396 C2395 1.349 . S
C2396 C2408 1.349 . S
C2397 C2395 1.327 . S
C2397 C2413 1.429 . S
C2397 H2419 0.950 . S
C2398 H2394 0.949 . S
C2398 C2406 1.574 . S
C2398 C2414 1.368 . S
H2399 C2407 0.950 . S
H2400 C2405 0.950 . S
H2401 C2406 0.949 . S
H2402 C2408 0.950 . S
H2403 C2409 0.950 . S
H2404 C2410 0.949 . S
C2405 H2400 0.950 . S
C2405 C2407 1.327 . S
C2405 C2411 1.429 . S
C2406 C2398 1.574 . S
C2406 H2401 0.949 . S
C2406 C2412 1.368 . S
C2407 C2391 1.349 . S
C2407 H2399 0.950 . S
C2407 C2405 1.327 . S
C2408 C2396 1.349 . S
C2408 H2402 0.950 . S
C2408 C2409 1.327 . S
C2409 H2403 0.950 . S
C2409 C2408 1.327 . S
C2409 C2413 1.429 . S
C2410 C2393 1.574 . S
C2410 H2404 0.949 . S
C2410 C2414 1.368 . S
C2411 C2392 1.429 . S
C2411 C2405 1.429 . S
C2411 C2412 1.523 . S
C2412 C2393 1.368 . S
C2412 C2406 1.368 . S
C2412 C2411 1.523 . S
C2413 C2397 1.429 . S
C2413 C2409 1.429 . S
C2413 C2414 1.523 . S
C2414 C2398 1.368 . S
C2414 C2410 1.368 . S
C2414 C2413 1.523 . S
H2415 C2390 0.950 . S
H2416 C2392 0.950 . S
H2417 C2393 0.949 . S
H2418 C2395 0.950 . S
H2419 C2397 0.950 . S
C2420 C2421 1.349 . S
C2420 C2422 1.327 . S
C2420 H2445 0.950 . S
C2421 C2420 1.349 . S
C2421 C2437 1.349 . S
C2422 C2420 1.327 . S
C2422 C2441 1.429 . S
C2422 H2446 0.950 . S
C2423 C2440 1.574 . S
C2423 C2442 1.368 . S
C2423 H2447 0.949 . S
H2424 C2428 0.949 . S
C2425 C2426 1.349 . S
C2425 C2427 1.327 . S
C2425 H2448 0.950 . S
C2426 C2425 1.349 . S
C2426 C2438 1.349 . S
C2427 C2425 1.327 . S
C2427 C2443 1.429 . S
C2427 H2449 0.950 . S
C2428 H2424 0.949 . S
C2428 C2436 1.574 . S
C2428 C2444 1.368 . S
H2429 C2437 0.950 . S
H2430 C2435 0.950 . S
H2431 C2436 0.949 . S
H2432 C2438 0.950 . S
H2433 C2439 0.950 . S
H2434 C2440 0.949 . S
C2435 H2430 0.950 . S
C2435 C2437 1.327 . S
C2435 C2441 1.429 . S
C2436 C2428 1.574 . S
C2436 H2431 0.949 . S
C2436 C2442 1.368 . S
C2437 C2421 1.349 . S
C2437 H2429 0.950 . S
C2437 C2435 1.327 . S
C2438 C2426 1.349 . S
C2438 H2432 0.950 . S
C2438 C2439 1.327 . S
C2439 H2433 0.950 . S
C2439 C2438 1.327 . S
C2439 C2443 1.429 . S
C2440 C2423 1.574 . S
C2440 H2434 0.949 . S
C2440 C2444 1.368 . S
C2441 C2422 1.429 . S
C2441 C2435 1.429 . S
C2441 C2442 1.523 . S
C2442 C2423 1.368 . S
C2442 C2436 1.368 . S
C2442 C2441 1.523 . S
C2443 C2427 1.429 . S
C2443 C2439 1.429 . S
C2443 C2444 1.523 . S
C2444 C2428 1.368 . S
C2444 C2440 1.368 . S
C2444 C2443 1.523 . S
H2445 C2420 0.950 . S
H2446 C2422 0.950 . S
H2447 C2423 0.949 . S
H2448 C2425 0.950 . S
H2449 C2427 0.950 . S
C2450 C2451 1.349 . S
C2450 C2452 1.327 . S
C2450 H2475 0.950 . S
C2451 C2450 1.349 . S
C2451 C2467 1.349 . S
C2452 C2450 1.327 . S
C2452 C2471 1.429 . S
C2452 H2476 0.950 . S
C2453 C2470 1.574 . S
C2453 C2472 1.368 . S
C2453 H2477 0.949 . S
H2454 C2458 0.949 . S
C2455 C2456 1.349 . S
C2455 C2457 1.327 1_655 S
C2455 H2478 0.950 . S
C2456 C2455 1.349 . S
C2456 C2468 1.349 . S
C2457 C2455 1.327 1_455 S
C2457 C2473 1.429 . S
C2457 H2479 0.950 . S
C2458 H2454 0.949 . S
C2458 C2466 1.574 . S
C2458 C2474 1.368 . S
H2459 C2467 0.950 . S
H2460 C2465 0.950 . S
H2461 C2466 0.949 . S
H2462 C2468 0.950 . S
H2463 C2469 0.950 . S
H2464 C2470 0.949 . S
C2465 H2460 0.950 . S
C2465 C2467 1.327 . S
C2465 C2471 1.429 . S
C2466 C2458 1.574 . S
C2466 H2461 0.949 . S
C2466 C2472 1.368 . S
C2467 C2451 1.349 . S
C2467 H2459 0.950 . S
C2467 C2465 1.327 . S
C2468 C2456 1.349 . S
C2468 H2462 0.950 . S
C2468 C2469 1.327 . S
C2469 H2463 0.950 . S
C2469 C2468 1.327 . S
C2469 C2473 1.429 1_655 S
C2470 C2453 1.574 . S
C2470 H2464 0.949 . S
C2470 C2474 1.368 . S
C2471 C2452 1.429 . S
C2471 C2465 1.429 . S
C2471 C2472 1.523 . S
C2472 C2453 1.368 . S
C2472 C2466 1.368 . S
C2472 C2471 1.523 . S
C2473 C2457 1.429 . S
C2473 C2469 1.429 1_455 S
C2473 C2474 1.523 . S
C2474 C2458 1.368 . S
C2474 C2470 1.368 . S
C2474 C2473 1.523 . S
H2475 C2450 0.950 . S
H2476 C2452 0.950 . S
H2477 C2453 0.949 . S
H2478 C2455 0.950 . S
H2479 C2457 0.950 . S
C2480 C2481 1.349 . S
C2480 C2482 1.327 . S
C2480 H2505 0.950 . S
C2481 C2480 1.349 . S
C2481 C2497 1.349 . S
C2482 C2480 1.327 . S
C2482 C2501 1.429 . S
C2482 H2506 0.950 . S
C2483 C2500 1.574 . S
C2483 C2502 1.368 . S
C2483 H2507 0.949 . S
H2484 C2488 0.949 . S
C2485 C2486 1.349 . S
C2485 C2487 1.327 . S
C2485 H2508 0.950 . S
C2486 C2485 1.349 . S
C2486 C2498 1.349 . S
C2487 C2485 1.327 . S
C2487 C2503 1.429 . S
C2487 H2509 0.950 . S
C2488 H2484 0.949 . S
C2488 C2496 1.574 . S
C2488 C2504 1.368 . S
H2489 C2497 0.950 . S
H2490 C2495 0.950 . S
H2491 C2496 0.949 . S
H2492 C2498 0.950 . S
H2493 C2499 0.950 . S
H2494 C2500 0.949 . S
C2495 H2490 0.950 . S
C2495 C2497 1.327 . S
C2495 C2501 1.429 . S
C2496 C2488 1.574 . S
C2496 H2491 0.949 . S
C2496 C2502 1.368 . S
C2497 C2481 1.349 . S
C2497 H2489 0.950 . S
C2497 C2495 1.327 . S
C2498 C2486 1.349 . S
C2498 H2492 0.950 . S
C2498 C2499 1.327 . S
C2499 H2493 0.950 . S
C2499 C2498 1.327 . S
C2499 C2503 1.429 . S
C2500 C2483 1.574 . S
C2500 H2494 0.949 . S
C2500 C2504 1.368 . S
C2501 C2482 1.429 . S
C2501 C2495 1.429 . S
C2501 C2502 1.523 . S
C2502 C2483 1.368 . S
C2502 C2496 1.368 . S
C2502 C2501 1.523 . S
C2503 C2487 1.429 . S
C2503 C2499 1.429 . S
C2503 C2504 1.523 . S
C2504 C2488 1.368 . S
C2504 C2500 1.368 . S
C2504 C2503 1.523 . S
H2505 C2480 0.950 . S
H2506 C2482 0.950 . S
H2507 C2483 0.949 . S
H2508 C2485 0.950 . S
H2509 C2487 0.950 . S
C2510 C2511 1.349 . S
C2510 C2512 1.327 . S
C2510 H2535 0.950 . S
C2511 C2510 1.349 . S
C2511 C2527 1.349 . S
C2512 C2510 1.327 . S
C2512 C2531 1.429 1_455 S
C2512 H2536 0.950 . S
C2513 C2530 1.574 . S
C2513 C2532 1.368 . S
C2513 H2537 0.949 . S
H2514 C2518 0.949 . S
C2515 C2516 1.349 . S
C2515 C2517 1.327 . S
C2515 H2538 0.950 . S
C2516 C2515 1.349 . S
C2516 C2528 1.349 . S
C2517 C2515 1.327 . S
C2517 C2533 1.429 . S
C2517 H2539 0.950 . S
C2518 H2514 0.949 . S
C2518 C2526 1.574 . S
C2518 C2534 1.368 . S
H2519 C2527 0.950 . S
H2520 C2525 0.950 . S
H2521 C2526 0.949 . S
H2522 C2528 0.950 . S
H2523 C2529 0.950 . S
H2524 C2530 0.949 . S
C2525 H2520 0.950 . S
C2525 C2527 1.327 1_655 S
C2525 C2531 1.429 . S
C2526 C2518 1.574 . S
C2526 H2521 0.949 . S
C2526 C2532 1.368 . S
C2527 C2511 1.349 . S
C2527 H2519 0.950 . S
C2527 C2525 1.327 1_455 S
C2528 C2516 1.349 . S
C2528 H2522 0.950 . S
C2528 C2529 1.327 . S
C2529 H2523 0.950 . S
C2529 C2528 1.327 . S
C2529 C2533 1.429 . S
C2530 C2513 1.574 . S
C2530 H2524 0.949 . S
C2530 C2534 1.368 . S
C2531 C2512 1.429 1_655 S
C2531 C2525 1.429 . S
C2531 C2532 1.523 . S
C2532 C2513 1.368 . S
C2532 C2526 1.368 . S
C2532 C2531 1.523 . S
C2533 C2517 1.429 . S
C2533 C2529 1.429 . S
C2533 C2534 1.523 . S
C2534 C2518 1.368 . S
C2534 C2530 1.368 . S
C2534 C2533 1.523 . S
H2535 C2510 0.950 . S
H2536 C2512 0.950 . S
H2537 C2513 0.949 . S
H2538 C2515 0.950 . S
H2539 C2517 0.950 . S
C2540 C2541 1.349 . S
C2540 C2542 1.327 . S
C2540 H2565 0.950 . S
C2541 C2540 1.349 . S
C2541 C2557 1.349 . S
C2542 C2540 1.327 . S
C2542 C2561 1.429 . S
C2542 H2566 0.950 . S
C2543 C2560 1.574 . S
C2543 C2562 1.368 . S
C2543 H2567 0.949 . S
H2544 C2548 0.949 . S
C2545 C2546 1.349 . S
C2545 C2547 1.327 . S
C2545 H2568 0.950 . S
C2546 C2545 1.349 . S
C2546 C2558 1.349 . S
C2547 C2545 1.327 . S
C2547 C2563 1.429 . S
C2547 H2569 0.950 . S
C2548 H2544 0.949 . S
C2548 C2556 1.574 . S
C2548 C2564 1.368 . S
H2549 C2557 0.950 . S
H2550 C2555 0.950 . S
H2551 C2556 0.949 . S
H2552 C2558 0.950 . S
H2553 C2559 0.950 . S
H2554 C2560 0.949 . S
C2555 H2550 0.950 . S
C2555 C2557 1.327 . S
C2555 C2561 1.429 . S
C2556 C2548 1.574 . S
C2556 H2551 0.949 . S
C2556 C2562 1.368 . S
C2557 C2541 1.349 . S
C2557 H2549 0.950 . S
C2557 C2555 1.327 . S
C2558 C2546 1.349 . S
C2558 H2552 0.950 . S
C2558 C2559 1.327 . S
C2559 H2553 0.950 . S
C2559 C2558 1.327 . S
C2559 C2563 1.429 . S
C2560 C2543 1.574 . S
C2560 H2554 0.949 . S
C2560 C2564 1.368 . S
C2561 C2542 1.429 . S
C2561 C2555 1.429 . S
C2561 C2562 1.523 . S
C2562 C2543 1.368 . S
C2562 C2556 1.368 . S
C2562 C2561 1.523 . S
C2563 C2547 1.429 . S
C2563 C2559 1.429 . S
C2563 C2564 1.523 . S
C2564 C2548 1.368 . S
C2564 C2560 1.368 . S
C2564 C2563 1.523 . S
H2565 C2540 0.950 . S
H2566 C2542 0.950 . S
H2567 C2543 0.949 . S
H2568 C2545 0.950 . S
H2569 C2547 0.950 . S
C2570 C2571 1.349 . S
C2570 C2572 1.327 . S
C2570 H2595 0.950 . S
C2571 C2570 1.349 . S
C2571 C2587 1.349 . S
C2572 C2570 1.327 . S
C2572 C2591 1.429 . S
C2572 H2596 0.950 . S
C2573 C2590 1.574 . S
C2573 C2592 1.368 . S
C2573 H2597 0.949 . S
H2574 C2578 0.949 . S
C2575 C2576 1.349 . S
C2575 C2577 1.327 . S
C2575 H2598 0.950 . S
C2576 C2575 1.349 . S
C2576 C2588 1.349 . S
C2577 C2575 1.327 . S
C2577 C2593 1.429 . S
C2577 H2599 0.950 . S
C2578 H2574 0.949 . S
C2578 C2586 1.574 . S
C2578 C2594 1.368 . S
H2579 C2587 0.950 . S
H2580 C2585 0.950 . S
H2581 C2586 0.949 . S
H2582 C2588 0.950 . S
H2583 C2589 0.950 . S
H2584 C2590 0.949 . S
C2585 H2580 0.950 . S
C2585 C2587 1.327 . S
C2585 C2591 1.429 . S
C2586 C2578 1.574 . S
C2586 H2581 0.949 . S
C2586 C2592 1.368 . S
C2587 C2571 1.349 . S
C2587 H2579 0.950 . S
C2587 C2585 1.327 . S
C2588 C2576 1.349 . S
C2588 H2582 0.950 . S
C2588 C2589 1.327 . S
C2589 H2583 0.950 . S
C2589 C2588 1.327 . S
C2589 C2593 1.429 . S
C2590 C2573 1.574 . S
C2590 H2584 0.949 . S
C2590 C2594 1.368 . S
C2591 C2572 1.429 . S
C2591 C2585 1.429 . S
C2591 C2592 1.523 . S
C2592 C2573 1.368 . S
C2592 C2586 1.368 . S
C2592 C2591 1.523 . S
C2593 C2577 1.429 . S
C2593 C2589 1.429 . S
C2593 C2594 1.523 . S
C2594 C2578 1.368 . S
C2594 C2590 1.368 . S
C2594 C2593 1.523 . S
H2595 C2570 0.950 . S
H2596 C2572 0.950 . S
H2597 C2573 0.949 . S
H2598 C2575 0.950 . S
H2599 C2577 0.950 . S
C2600 C2601 1.349 . S
C2600 C2602 1.327 . S
C2600 H2625 0.950 . S
C2601 C2600 1.349 . S
C2601 C2617 1.349 . S
C2602 C2600 1.327 . S
C2602 C2621 1.429 . S
C2602 H2626 0.950 . S
C2603 C2620 1.574 . S
C2603 C2622 1.368 . S
C2603 H2627 0.949 . S
H2604 C2608 0.949 . S
C2605 C2606 1.349 . S
C2605 C2607 1.327 . S
C2605 H2628 0.950 . S
C2606 C2605 1.349 . S
C2606 C2618 1.349 . S
C2607 C2605 1.327 . S
C2607 C2623 1.429 . S
C2607 H2629 0.950 . S
C2608 H2604 0.949 . S
C2608 C2616 1.574 . S
C2608 C2624 1.368 . S
H2609 C2617 0.950 . S
H2610 C2615 0.950 . S
H2611 C2616 0.949 . S
H2612 C2618 0.950 . S
H2613 C2619 0.950 . S
H2614 C2620 0.949 . S
C2615 H2610 0.950 . S
C2615 C2617 1.327 . S
C2615 C2621 1.429 . S
C2616 C2608 1.574 . S
C2616 H2611 0.949 . S
C2616 C2622 1.368 . S
C2617 C2601 1.349 . S
C2617 H2609 0.950 . S
C2617 C2615 1.327 . S
C2618 C2606 1.349 . S
C2618 H2612 0.950 . S
C2618 C2619 1.327 . S
C2619 H2613 0.950 . S
C2619 C2618 1.327 . S
C2619 C2623 1.429 . S
C2620 C2603 1.574 . S
C2620 H2614 0.949 . S
C2620 C2624 1.368 . S
C2621 C2602 1.429 . S
C2621 C2615 1.429 . S
C2621 C2622 1.523 . S
C2622 C2603 1.368 . S
C2622 C2616 1.368 . S
C2622 C2621 1.523 . S
C2623 C2607 1.429 . S
C2623 C2619 1.429 . S
C2623 C2624 1.523 . S
C2624 C2608 1.368 . S
C2624 C2620 1.368 . S
C2624 C2623 1.523 . S
H2625 C2600 0.950 . S
H2626 C2602 0.950 . S
H2627 C2603 0.949 . S
H2628 C2605 0.950 . S
H2629 C2607 0.950 . S
C2630 C2631 1.349 . S
C2630 C2632 1.327 . S
C2630 H2655 0.950 . S
C2631 C2630 1.349 . S
C2631 C2647 1.349 . S
C2632 C2630 1.327 . S
C2632 C2651 1.429 . S
C2632 H2656 0.950 . S
C2633 C2650 1.574 . S
C2633 C2652 1.368 . S
C2633 H2657 0.949 . S
H2634 C2638 0.949 . S
C2635 C2636 1.349 . S
C2635 C2637 1.327 . S
C2635 H2658 0.950 . S
C2636 C2635 1.349 . S
C2636 C2648 1.349 . S
C2637 C2635 1.327 . S
C2637 C2653 1.429 . S
C2637 H2659 0.950 . S
C2638 H2634 0.949 . S
C2638 C2646 1.574 . S
C2638 C2654 1.368 . S
H2639 C2647 0.950 . S
H2640 C2645 0.950 . S
H2641 C2646 0.949 . S
H2642 C2648 0.950 . S
H2643 C2649 0.950 . S
H2644 C2650 0.949 . S
C2645 H2640 0.950 . S
C2645 C2647 1.327 . S
C2645 C2651 1.429 . S
C2646 C2638 1.574 . S
C2646 H2641 0.949 . S
C2646 C2652 1.368 . S
C2647 C2631 1.349 . S
C2647 H2639 0.950 . S
C2647 C2645 1.327 . S
C2648 C2636 1.349 . S
C2648 H2642 0.950 . S
C2648 C2649 1.327 . S
C2649 H2643 0.950 . S
C2649 C2648 1.327 . S
C2649 C2653 1.429 . S
C2650 C2633 1.574 . S
C2650 H2644 0.949 . S
C2650 C2654 1.368 . S
C2651 C2632 1.429 . S
C2651 C2645 1.429 . S
C2651 C2652 1.523 . S
C2652 C2633 1.368 . S
C2652 C2646 1.368 . S
C2652 C2651 1.523 . S
C2653 C2637 1.429 . S
C2653 C2649 1.429 . S
C2653 C2654 1.523 . S
C2654 C2638 1.368 . S
C2654 C2650 1.368 . S
C2654 C2653 1.523 . S
H2655 C2630 0.950 . S
H2656 C2632 0.950 . S
H2657 C2633 0.949 . S
H2658 C2635 0.950 . S
H2659 C2637 0.950 . S
C2660 C2661 1.349 . S
C2660 C2662 1.327 . S
C2660 H2685 0.950 . S
C2661 C2660 1.349 . S
C2661 C2677 1.349 . S
C2662 C2660 1.327 . S
C2662 C2681 1.429 . S
C2662 H2686 0.950 . S
C2663 C2680 1.574 . S
C2663 C2682 1.368 . S
C2663 H2687 0.949 . S
H2664 C2668 0.949 . S
C2665 C2666 1.349 . S
C2665 C2667 1.327 . S
C2665 H2688 0.950 . S
C2666 C2665 1.349 . S
C2666 C2678 1.349 . S
C2667 C2665 1.327 . S
C2667 C2683 1.429 . S
C2667 H2689 0.950 . S
C2668 H2664 0.949 . S
C2668 C2676 1.574 . S
C2668 C2684 1.368 . S
H2669 C2677 0.950 . S
H2670 C2675 0.950 . S
H2671 C2676 0.949 . S
H2672 C2678 0.950 . S
H2673 C2679 0.950 . S
H2674 C2680 0.949 . S
C2675 H2670 0.950 . S
C2675 C2677 1.327 . S
C2675 C2681 1.429 . S
C2676 C2668 1.574 . S
C2676 H2671 0.949 . S
C2676 C2682 1.368 . S
C2677 C2661 1.349 . S
C2677 H2669 0.950 . S
C2677 C2675 1.327 . S
C2678 C2666 1.349 . S
C2678 H2672 0.950 . S
C2678 C2679 1.327 . S
C2679 H2673 0.950 . S
C2679 C2678 1.327 . S
C2679 C2683 1.429 . S
C2680 C2663 1.574 . S
C2680 H2674 0.949 . S
C2680 C2684 1.368 . S
C2681 C2662 1.429 . S
C2681 C2675 1.429 . S
C2681 C2682 1.523 . S
C2682 C2663 1.368 . S
C2682 C2676 1.368 . S
C2682 C2681 1.523 . S
C2683 C2667 1.429 . S
C2683 C2679 1.429 . S
C2683 C2684 1.523 . S
C2684 C2668 1.368 . S
C2684 C2680 1.368 . S
C2684 C2683 1.523 . S
H2685 C2660 0.950 . S
H2686 C2662 0.950 . S
H2687 C2663 0.949 . S
H2688 C2665 0.950 . S
H2689 C2667 0.950 . S
C2690 C2691 1.349 . S
C2690 C2692 1.327 . S
C2690 H2715 0.950 . S
C2691 C2690 1.349 . S
C2691 C2707 1.349 . S
C2692 C2690 1.327 . S
C2692 C2711 1.429 . S
C2692 H2716 0.950 . S
C2693 C2710 1.574 . S
C2693 C2712 1.368 . S
C2693 H2717 0.949 . S
H2694 C2698 0.949 . S
C2695 C2696 1.349 . S
C2695 C2697 1.327 . S
C2695 H2718 0.950 . S
C2696 C2695 1.349 . S
C2696 C2708 1.349 . S
C2697 C2695 1.327 . S
C2697 C2713 1.429 1_455 S
C2697 H2719 0.950 . S
C2698 H2694 0.949 . S
C2698 C2706 1.574 . S
C2698 C2714 1.368 . S
H2699 C2707 0.950 . S
H2700 C2705 0.950 . S
H2701 C2706 0.949 . S
H2702 C2708 0.950 . S
H2703 C2709 0.950 . S
H2704 C2710 0.949 . S
C2705 H2700 0.950 . S
C2705 C2707 1.327 . S
C2705 C2711 1.429 . S
C2706 C2698 1.574 . S
C2706 H2701 0.949 . S
C2706 C2712 1.368 . S
C2707 C2691 1.349 . S
C2707 H2699 0.950 . S
C2707 C2705 1.327 . S
C2708 C2696 1.349 . S
C2708 H2702 0.950 . S
C2708 C2709 1.327 1_455 S
C2709 H2703 0.950 . S
C2709 C2708 1.327 1_655 S
C2709 C2713 1.429 . S
C2710 C2693 1.574 . S
C2710 H2704 0.949 . S
C2710 C2714 1.368 . S
C2711 C2692 1.429 . S
C2711 C2705 1.429 . S
C2711 C2712 1.523 . S
C2712 C2693 1.368 . S
C2712 C2706 1.368 . S
C2712 C2711 1.523 . S
C2713 C2697 1.429 1_655 S
C2713 C2709 1.429 . S
C2713 C2714 1.523 . S
C2714 C2698 1.368 . S
C2714 C2710 1.368 . S
C2714 C2713 1.523 . S
H2715 C2690 0.950 . S
H2716 C2692 0.950 . S
H2717 C2693 0.949 . S
H2718 C2695 0.950 . S
H2719 C2697 0.950 . S
C2720 C2721 1.349 . S
C2720 C2722 1.327 . S
C2720 H2745 0.950 . S
C2721 C2720 1.349 . S
C2721 C2737 1.349 . S
C2722 C2720 1.327 . S
C2722 C2741 1.429 . S
C2722 H2746 0.950 . S
C2723 C2740 1.574 . S
C2723 C2742 1.368 . S
C2723 H2747 0.949 . S
H2724 C2728 0.949 . S
C2725 C2726 1.349 . S
C2725 C2727 1.327 . S
C2725 H2748 0.950 . S
C2726 C2725 1.349 . S
C2726 C2738 1.349 . S
C2727 C2725 1.327 . S
C2727 C2743 1.429 . S
C2727 H2749 0.950 . S
C2728 H2724 0.949 . S
C2728 C2736 1.574 . S
C2728 C2744 1.368 . S
H2729 C2737 0.950 . S
H2730 C2735 0.950 . S
H2731 C2736 0.949 . S
H2732 C2738 0.950 . S
H2733 C2739 0.950 . S
H2734 C2740 0.949 . S
C2735 H2730 0.950 . S
C2735 C2737 1.327 . S
C2735 C2741 1.429 . S
C2736 C2728 1.574 . S
C2736 H2731 0.949 . S
C2736 C2742 1.368 . S
C2737 C2721 1.349 . S
C2737 H2729 0.950 . S
C2737 C2735 1.327 . S
C2738 C2726 1.349 . S
C2738 H2732 0.950 . S
C2738 C2739 1.327 . S
C2739 H2733 0.950 . S
C2739 C2738 1.327 . S
C2739 C2743 1.429 . S
C2740 C2723 1.574 . S
C2740 H2734 0.949 . S
C2740 C2744 1.368 . S
C2741 C2722 1.429 . S
C2741 C2735 1.429 . S
C2741 C2742 1.523 . S
C2742 C2723 1.368 . S
C2742 C2736 1.368 . S
C2742 C2741 1.523 . S
C2743 C2727 1.429 . S
C2743 C2739 1.429 . S
C2743 C2744 1.523 . S
C2744 C2728 1.368 . S
C2744 C2740 1.368 . S
C2744 C2743 1.523 . S
H2745 C2720 0.950 . S
H2746 C2722 0.950 . S
H2747 C2723 0.949 . S
H2748 C2725 0.950 . S
H2749 C2727 0.950 . S
C2750 C2751 1.349 . S
C2750 C2752 1.327 . S
C2750 H2775 0.950 . S
C2751 C2750 1.349 . S
C2751 C2767 1.349 . S
C2752 C2750 1.327 . S
C2752 C2771 1.429 . S
C2752 H2776 0.950 . S
C2753 C2770 1.574 . S
C2753 C2772 1.368 . S
C2753 H2777 0.949 . S
H2754 C2758 0.949 . S
C2755 C2756 1.349 . S
C2755 C2757 1.327 . S
C2755 H2778 0.950 . S
C2756 C2755 1.349 . S
C2756 C2768 1.349 . S
C2757 C2755 1.327 . S
C2757 C2773 1.429 . S
C2757 H2779 0.950 . S
C2758 H2754 0.949 . S
C2758 C2766 1.574 . S
C2758 C2774 1.368 . S
H2759 C2767 0.950 . S
H2760 C2765 0.950 . S
H2761 C2766 0.949 . S
H2762 C2768 0.950 . S
H2763 C2769 0.950 . S
H2764 C2770 0.949 . S
C2765 H2760 0.950 . S
C2765 C2767 1.327 . S
C2765 C2771 1.429 . S
C2766 C2758 1.574 . S
C2766 H2761 0.949 . S
C2766 C2772 1.368 . S
C2767 C2751 1.349 . S
C2767 H2759 0.950 . S
C2767 C2765 1.327 . S
C2768 C2756 1.349 . S
C2768 H2762 0.950 . S
C2768 C2769 1.327 . S
C2769 H2763 0.950 . S
C2769 C2768 1.327 . S
C2769 C2773 1.429 . S
C2770 C2753 1.574 . S
C2770 H2764 0.949 . S
C2770 C2774 1.368 . S
C2771 C2752 1.429 . S
C2771 C2765 1.429 . S
C2771 C2772 1.523 . S
C2772 C2753 1.368 . S
C2772 C2766 1.368 . S
C2772 C2771 1.523 . S
C2773 C2757 1.429 . S
C2773 C2769 1.429 . S
C2773 C2774 1.523 . S
C2774 C2758 1.368 . S
C2774 C2770 1.368 . S
C2774 C2773 1.523 . S
H2775 C2750 0.950 . S
H2776 C2752 0.950 . S
H2777 C2753 0.949 . S
H2778 C2755 0.950 . S
H2779 C2757 0.950 . S
C2780 C2781 1.349 . S
C2780 C2782 1.327 . S
C2780 H2805 0.950 . S
C2781 C2780 1.349 . S
C2781 C2797 1.349 . S
C2782 C2780 1.327 . S
C2782 C2801 1.429 . S
C2782 H2806 0.950 . S
C2783 C2800 1.574 . S
C2783 C2802 1.368 . S
C2783 H2807 0.949 . S
H2784 C2788 0.949 . S
C2785 C2786 1.349 . S
C2785 C2787 1.327 . S
C2785 H2808 0.950 . S
C2786 C2785 1.349 . S
C2786 C2798 1.349 . S
C2787 C2785 1.327 . S
C2787 C2803 1.429 . S
C2787 H2809 0.950 . S
C2788 H2784 0.949 . S
C2788 C2796 1.574 . S
C2788 C2804 1.368 . S
H2789 C2797 0.950 . S
H2790 C2795 0.950 . S
H2791 C2796 0.949 . S
H2792 C2798 0.950 . S
H2793 C2799 0.950 . S
H2794 C2800 0.949 . S
C2795 H2790 0.950 . S
C2795 C2797 1.327 . S
C2795 C2801 1.429 . S
C2796 C2788 1.574 . S
C2796 H2791 0.949 . S
C2796 C2802 1.368 . S
C2797 C2781 1.349 . S
C2797 H2789 0.950 . S
C2797 C2795 1.327 . S
C2798 C2786 1.349 . S
C2798 H2792 0.950 . S
C2798 C2799 1.327 . S
C2799 H2793 0.950 . S
C2799 C2798 1.327 . S
C2799 C2803 1.429 . S
C2800 C2783 1.574 . S
C2800 H2794 0.949 . S
C2800 C2804 1.368 . S
C2801 C2782 1.429 . S
C2801 C2795 1.429 . S
C2801 C2802 1.523 . S
C2802 C2783 1.368 . S
C2802 C2796 1.368 . S
C2802 C2801 1.523 . S
C2803 C2787 1.429 . S
C2803 C2799 1.429 . S
C2803 C2804 1.523 . S
C2804 C2788 1.368 . S
C2804 C2800 1.368 . S
C2804 C2803 1.523 . S
H2805 C2780 0.950 . S
H2806 C2782 0.950 . S
H2807 C2783 0.949 . S
H2808 C2785 0.950 . S
H2809 C2787 0.950 . S
C2810 C2811 1.349 . S
C2810 C2812 1.327 . S
C2810 H2835 0.950 . S
C2811 C2810 1.349 . S
C2811 C2827 1.349 . S
C2812 C2810 1.327 . S
C2812 C2831 1.429 . S
C2812 H2836 0.950 . S
C2813 C2830 1.574 . S
C2813 C2832 1.368 . S
C2813 H2837 0.949 . S
H2814 C2818 0.949 . S
C2815 C2816 1.349 . S
C2815 C2817 1.327 1_455 S
C2815 H2838 0.950 . S
C2816 C2815 1.349 . S
C2816 C2828 1.349 . S
C2817 C2815 1.327 1_655 S
C2817 C2833 1.429 . S
C2817 H2839 0.950 . S
C2818 H2814 0.949 . S
C2818 C2826 1.574 . S
C2818 C2834 1.368 . S
H2819 C2827 0.950 . S
H2820 C2825 0.950 . S
H2821 C2826 0.949 . S
H2822 C2828 0.950 . S
H2823 C2829 0.950 . S
H2824 C2830 0.949 . S
C2825 H2820 0.950 . S
C2825 C2827 1.327 . S
C2825 C2831 1.429 . S
C2826 C2818 1.574 . S
C2826 H2821 0.949 . S
C2826 C2832 1.368 . S
C2827 C2811 1.349 . S
C2827 H2819 0.950 . S
C2827 C2825 1.327 . S
C2828 C2816 1.349 . S
C2828 H2822 0.950 . S
C2828 C2829 1.327 . S
C2829 H2823 0.950 . S
C2829 C2828 1.327 . S
C2829 C2833 1.429 1_455 S
C2830 C2813 1.574 . S
C2830 H2824 0.949 . S
C2830 C2834 1.368 . S
C2831 C2812 1.429 . S
C2831 C2825 1.429 . S
C2831 C2832 1.523 . S
C2832 C2813 1.368 . S
C2832 C2826 1.368 . S
C2832 C2831 1.523 . S
C2833 C2817 1.429 . S
C2833 C2829 1.429 1_655 S
C2833 C2834 1.523 . S
C2834 C2818 1.368 . S
C2834 C2830 1.368 . S
C2834 C2833 1.523 . S
H2835 C2810 0.950 . S
H2836 C2812 0.950 . S
H2837 C2813 0.949 . S
H2838 C2815 0.950 . S
H2839 C2817 0.950 . S
C2840 C2841 1.349 . S
C2840 C2842 1.327 . S
C2840 H2865 0.950 . S
C2841 C2840 1.349 . S
C2841 C2857 1.349 . S
C2842 C2840 1.327 . S
C2842 C2861 1.429 . S
C2842 H2866 0.950 . S
C2843 C2860 1.574 . S
C2843 C2862 1.368 . S
C2843 H2867 0.949 . S
H2844 C2848 0.949 . S
C2845 C2846 1.349 . S
C2845 C2847 1.327 . S
C2845 H2868 0.950 . S
C2846 C2845 1.349 . S
C2846 C2858 1.349 . S
C2847 C2845 1.327 . S
C2847 C2863 1.429 . S
C2847 H2869 0.950 . S
C2848 H2844 0.949 . S
C2848 C2856 1.574 . S
C2848 C2864 1.368 . S
H2849 C2857 0.950 . S
H2850 C2855 0.950 . S
H2851 C2856 0.949 . S
H2852 C2858 0.950 . S
H2853 C2859 0.950 . S
H2854 C2860 0.949 . S
C2855 H2850 0.950 . S
C2855 C2857 1.327 . S
C2855 C2861 1.429 . S
C2856 C2848 1.574 . S
C2856 H2851 0.949 . S
C2856 C2862 1.368 . S
C2857 C2841 1.349 . S
C2857 H2849 0.950 . S
C2857 C2855 1.327 . S
C2858 C2846 1.349 . S
C2858 H2852 0.950 . S
C2858 C2859 1.327 . S
C2859 H2853 0.950 . S
C2859 C2858 1.327 . S
C2859 C2863 1.429 . S
C2860 C2843 1.574 . S
C2860 H2854 0.949 . S
C2860 C2864 1.368 . S
C2861 C2842 1.429 . S
C2861 C2855 1.429 . S
C2861 C2862 1.523 . S
C2862 C2843 1.368 . S
C2862 C2856 1.368 . S
C2862 C2861 1.523 . S
C2863 C2847 1.429 . S
C2863 C2859 1.429 . S
C2863 C2864 1.523 . S
C2864 C2848 1.368 . S
C2864 C2860 1.368 . S
C2864 C2863 1.523 . S
H2865 C2840 0.950 . S
H2866 C2842 0.950 . S
H2867 C2843 0.949 . S
H2868 C2845 0.950 . S
H2869 C2847 0.950 . S
C2870 C2871 1.349 . S
C2870 C2872 1.327 . S
C2870 H2895 0.950 . S
C2871 C2870 1.349 . S
C2871 C2887 1.349 . S
C2872 C2870 1.327 . S
C2872 C2891 1.429 . S
C2872 H2896 0.950 . S
C2873 C2890 1.574 . S
C2873 C2892 1.368 . S
C2873 H2897 0.949 . S
H2874 C2878 0.949 . S
C2875 C2876 1.349 . S
C2875 C2877 1.327 . S
C2875 H2898 0.950 . S
C2876 C2875 1.349 . S
C2876 C2888 1.349 . S
C2877 C2875 1.327 . S
C2877 C2893 1.429 1_455 S
C2877 H2899 0.950 . S
C2878 H2874 0.949 . S
C2878 C2886 1.574 . S
C2878 C2894 1.368 . S
H2879 C2887 0.950 . S
H2880 C2885 0.950 . S
H2881 C2886 0.949 . S
H2882 C2888 0.950 . S
H2883 C2889 0.950 . S
H2884 C2890 0.949 . S
C2885 H2880 0.950 . S
C2885 C2887 1.327 . S
C2885 C2891 1.429 . S
C2886 C2878 1.574 . S
C2886 H2881 0.949 . S
C2886 C2892 1.368 . S
C2887 C2871 1.349 . S
C2887 H2879 0.950 . S
C2887 C2885 1.327 . S
C2888 C2876 1.349 . S
C2888 H2882 0.950 . S
C2888 C2889 1.327 1_455 S
C2889 H2883 0.950 . S
C2889 C2888 1.327 1_655 S
C2889 C2893 1.429 . S
C2890 C2873 1.574 . S
C2890 H2884 0.949 . S
C2890 C2894 1.368 . S
C2891 C2872 1.429 . S
C2891 C2885 1.429 . S
C2891 C2892 1.523 . S
C2892 C2873 1.368 . S
C2892 C2886 1.368 . S
C2892 C2891 1.523 . S
C2893 C2877 1.429 1_655 S
C2893 C2889 1.429 . S
C2893 C2894 1.523 . S
C2894 C2878 1.368 . S
C2894 C2890 1.368 . S
C2894 C2893 1.523 . S
H2895 C2870 0.950 . S
H2896 C2872 0.950 . S
H2897 C2873 0.949 . S
H2898 C2875 0.950 . S
H2899 C2877 0.950 . S
C2900 C2901 1.349 . S
C2900 C2902 1.327 . S
C2900 H2925 0.950 . S
C2901 C2900 1.349 . S
C2901 C2917 1.349 . S
C2902 C2900 1.327 . S
C2902 C2921 1.429 . S
C2902 H2926 0.950 . S
C2903 C2920 1.574 . S
C2903 C2922 1.368 . S
C2903 H2927 0.949 . S
H2904 C2908 0.949 . S
C2905 C2906 1.349 . S
C2905 C2907 1.327 . S
C2905 H2928 0.950 . S
C2906 C2905 1.349 . S
C2906 C2918 1.349 . S
C2907 C2905 1.327 . S
C2907 C2923 1.429 . S
C2907 H2929 0.950 . S
C2908 H2904 0.949 . S
C2908 C2916 1.574 . S
C2908 C2924 1.368 . S
H2909 C2917 0.950 . S
H2910 C2915 0.950 . S
H2911 C2916 0.949 . S
H2912 C2918 0.950 . S
H2913 C2919 0.950 . S
H2914 C2920 0.949 . S
C2915 H2910 0.950 . S
C2915 C2917 1.327 . S
C2915 C2921 1.429 . S
C2916 C2908 1.574 . S
C2916 H2911 0.949 . S
C2916 C2922 1.368 . S
C2917 C2901 1.349 . S
C2917 H2909 0.950 . S
C2917 C2915 1.327 . S
C2918 C2906 1.349 . S
C2918 H2912 0.950 . S
C2918 C2919 1.327 . S
C2919 H2913 0.950 . S
C2919 C2918 1.327 . S
C2919 C2923 1.429 . S
C2920 C2903 1.574 . S
C2920 H2914 0.949 . S
C2920 C2924 1.368 . S
C2921 C2902 1.429 . S
C2921 C2915 1.429 . S
C2921 C2922 1.523 . S
C2922 C2903 1.368 . S
C2922 C2916 1.368 . S
C2922 C2921 1.523 . S
C2923 C2907 1.429 . S
C2923 C2919 1.429 . S
C2923 C2924 1.523 . S
C2924 C2908 1.368 . S
C2924 C2920 1.368 . S
C2924 C2923 1.523 . S
H2925 C2900 0.950 . S
H2926 C2902 0.950 . S
H2927 C2903 0.949 . S
H2928 C2905 0.950 . S
H2929 C2907 0.950 . S
C2930 C2931 1.349 . S
C2930 C2932 1.327 . S
C2930 H2955 0.950 . S
C2931 C2930 1.349 . S
C2931 C2947 1.349 . S
C2932 C2930 1.327 . S
C2932 C2951 1.429 . S
C2932 H2956 0.950 . S
C2933 C2950 1.574 . S
C2933 C2952 1.368 . S
C2933 H2957 0.949 . S
H2934 C2938 0.949 . S
C2935 C2936 1.349 . S
C2935 C2937 1.327 . S
C2935 H2958 0.950 . S
C2936 C2935 1.349 . S
C2936 C2948 1.349 . S
C2937 C2935 1.327 . S
C2937 C2953 1.429 . S
C2937 H2959 0.950 . S
C2938 H2934 0.949 . S
C2938 C2946 1.574 . S
C2938 C2954 1.368 . S
H2939 C2947 0.950 . S
H2940 C2945 0.950 . S
H2941 C2946 0.949 . S
H2942 C2948 0.950 . S
H2943 C2949 0.950 . S
H2944 C2950 0.949 . S
C2945 H2940 0.950 . S
C2945 C2947 1.327 . S
C2945 C2951 1.429 . S
C2946 C2938 1.574 . S
C2946 H2941 0.949 . S
C2946 C2952 1.368 . S
C2947 C2931 1.349 . S
C2947 H2939 0.950 . S
C2947 C2945 1.327 . S
C2948 C2936 1.349 . S
C2948 H2942 0.950 . S
C2948 C2949 1.327 . S
C2949 H2943 0.950 . S
C2949 C2948 1.327 . S
C2949 C2953 1.429 . S
C2950 C2933 1.574 . S
C2950 H2944 0.949 . S
C2950 C2954 1.368 . S
C2951 C2932 1.429 . S
C2951 C2945 1.429 . S
C2951 C2952 1.523 . S
C2952 C2933 1.368 . S
C2952 C2946 1.368 . S
C2952 C2951 1.523 . S
C2953 C2937 1.429 . S
C2953 C2949 1.429 . S
C2953 C2954 1.523 . S
C2954 C2938 1.368 . S
C2954 C2950 1.368 . S
C2954 C2953 1.523 . S
H2955 C2930 0.950 . S
H2956 C2932 0.950 . S
H2957 C2933 0.949 . S
H2958 C2935 0.950 . S
H2959 C2937 0.950 . S
C2960 C2961 1.349 . S
C2960 C2962 1.327 . S
C2960 H2985 0.950 . S
C2961 C2960 1.349 . S
C2961 C2977 1.349 . S
C2962 C2960 1.327 . S
C2962 C2981 1.429 . S
C2962 H2986 0.950 . S
C2963 C2980 1.574 . S
C2963 C2982 1.368 . S
C2963 H2987 0.949 . S
H2964 C2968 0.949 . S
C2965 C2966 1.349 . S
C2965 C2967 1.327 . S
C2965 H2988 0.950 . S
C2966 C2965 1.349 . S
C2966 C2978 1.349 . S
C2967 C2965 1.327 . S
C2967 C2983 1.429 . S
C2967 H2989 0.950 . S
C2968 H2964 0.949 . S
C2968 C2976 1.574 . S
C2968 C2984 1.368 . S
H2969 C2977 0.950 . S
H2970 C2975 0.950 . S
H2971 C2976 0.949 . S
H2972 C2978 0.950 . S
H2973 C2979 0.950 . S
H2974 C2980 0.949 . S
C2975 H2970 0.950 . S
C2975 C2977 1.327 . S
C2975 C2981 1.429 . S
C2976 C2968 1.574 . S
C2976 H2971 0.949 . S
C2976 C2982 1.368 . S
C2977 C2961 1.349 . S
C2977 H2969 0.950 . S
C2977 C2975 1.327 . S
C2978 C2966 1.349 . S
C2978 H2972 0.950 . S
C2978 C2979 1.327 . S
C2979 H2973 0.950 . S
C2979 C2978 1.327 . S
C2979 C2983 1.429 . S
C2980 C2963 1.574 . S
C2980 H2974 0.949 . S
C2980 C2984 1.368 . S
C2981 C2962 1.429 . S
C2981 C2975 1.429 . S
C2981 C2982 1.523 . S
C2982 C2963 1.368 . S
C2982 C2976 1.368 . S
C2982 C2981 1.523 . S
C2983 C2967 1.429 . S
C2983 C2979 1.429 . S
C2983 C2984 1.523 . S
C2984 C2968 1.368 . S
C2984 C2980 1.368 . S
C2984 C2983 1.523 . S
H2985 C2960 0.950 . S
H2986 C2962 0.950 . S
H2987 C2963 0.949 . S
H2988 C2965 0.950 . S
H2989 C2967 0.950 . S
C2990 C2991 1.349 . S
C2990 C2992 1.327 . S
C2990 H3015 0.950 . S
C2991 C2990 1.349 . S
C2991 C3007 1.349 . S
C2992 C2990 1.327 . S
C2992 C3011 1.429 . S
C2992 H3016 0.950 . S
C2993 C3010 1.574 . S
C2993 C3012 1.368 . S
C2993 H3017 0.949 . S
H2994 C2998 0.949 . S
C2995 C2996 1.349 . S
C2995 C2997 1.327 . S
C2995 H3018 0.950 . S
C2996 C2995 1.349 . S
C2996 C3008 1.349 . S
C2997 C2995 1.327 . S
C2997 C3013 1.429 . S
C2997 H3019 0.950 . S
C2998 H2994 0.949 . S
C2998 C3006 1.574 . S
C2998 C3014 1.368 . S
H2999 C3007 0.950 . S
H3000 C3005 0.950 . S
H3001 C3006 0.949 . S
H3002 C3008 0.950 . S
H3003 C3009 0.950 . S
H3004 C3010 0.949 . S
C3005 H3000 0.950 . S
C3005 C3007 1.327 . S
C3005 C3011 1.429 . S
C3006 C2998 1.574 . S
C3006 H3001 0.949 . S
C3006 C3012 1.368 . S
C3007 C2991 1.349 . S
C3007 H2999 0.950 . S
C3007 C3005 1.327 . S
C3008 C2996 1.349 . S
C3008 H3002 0.950 . S
C3008 C3009 1.327 . S
C3009 H3003 0.950 . S
C3009 C3008 1.327 . S
C3009 C3013 1.429 . S
C3010 C2993 1.574 . S
C3010 H3004 0.949 . S
C3010 C3014 1.368 . S
C3011 C2992 1.429 . S
C3011 C3005 1.429 . S
C3011 C3012 1.523 . S
C3012 C2993 1.368 . S
C3012 C3006 1.368 . S
C3012 C3011 1.523 . S
C3013 C2997 1.429 . S
C3013 C3009 1.429 . S
C3013 C3014 1.523 . S
C3014 C2998 1.368 . S
C3014 C3010 1.368 . S
C3014 C3013 1.523 . S
H3015 C2990 0.950 . S
H3016 C2992 0.950 . S
H3017 C2993 0.949 . S
H3018 C2995 0.950 . S
H3019 C2997 0.950 . S
C3020 C3021 1.349 . S
C3020 C3022 1.327 . S
C3020 H3045 0.950 . S
C3021 C3020 1.349 . S
C3021 C3037 1.349 . S
C3022 C3020 1.327 . S
C3022 C3041 1.429 . S
C3022 H3046 0.950 . S
C3023 C3040 1.574 . S
C3023 C3042 1.368 . S
C3023 H3047 0.949 . S
H3024 C3028 0.949 . S
C3025 C3026 1.349 . S
C3025 C3027 1.327 . S
C3025 H3048 0.950 . S
C3026 C3025 1.349 . S
C3026 C3038 1.349 . S
C3027 C3025 1.327 . S
C3027 C3043 1.429 . S
C3027 H3049 0.950 . S
C3028 H3024 0.949 . S
C3028 C3036 1.574 . S
C3028 C3044 1.368 . S
H3029 C3037 0.950 . S
H3030 C3035 0.950 . S
H3031 C3036 0.949 . S
H3032 C3038 0.950 . S
H3033 C3039 0.950 . S
H3034 C3040 0.949 . S
C3035 H3030 0.950 . S
C3035 C3037 1.327 . S
C3035 C3041 1.429 . S
C3036 C3028 1.574 . S
C3036 H3031 0.949 . S
C3036 C3042 1.368 . S
C3037 C3021 1.349 . S
C3037 H3029 0.950 . S
C3037 C3035 1.327 . S
C3038 C3026 1.349 . S
C3038 H3032 0.950 . S
C3038 C3039 1.327 . S
C3039 H3033 0.950 . S
C3039 C3038 1.327 . S
C3039 C3043 1.429 . S
C3040 C3023 1.574 . S
C3040 H3034 0.949 . S
C3040 C3044 1.368 . S
C3041 C3022 1.429 . S
C3041 C3035 1.429 . S
C3041 C3042 1.523 . S
C3042 C3023 1.368 . S
C3042 C3036 1.368 . S
C3042 C3041 1.523 . S
C3043 C3027 1.429 . S
C3043 C3039 1.429 . S
C3043 C3044 1.523 . S
C3044 C3028 1.368 . S
C3044 C3040 1.368 . S
C3044 C3043 1.523 . S
H3045 C3020 0.950 . S
H3046 C3022 0.950 . S
H3047 C3023 0.949 . S
H3048 C3025 0.950 . S
H3049 C3027 0.950 . S
C3050 C3051 1.349 . S
C3050 C3052 1.327 . S
C3050 H3075 0.950 . S
C3051 C3050 1.349 . S
C3051 C3067 1.349 . S
C3052 C3050 1.327 . S
C3052 C3071 1.429 1_655 S
C3052 H3076 0.950 . S
C3053 C3070 1.574 . S
C3053 C3072 1.368 . S
C3053 H3077 0.949 . S
H3054 C3058 0.949 . S
C3055 C3056 1.349 . S
C3055 C3057 1.327 . S
C3055 H3078 0.950 . S
C3056 C3055 1.349 . S
C3056 C3068 1.349 . S
C3057 C3055 1.327 . S
C3057 C3073 1.429 . S
C3057 H3079 0.950 . S
C3058 H3054 0.949 . S
C3058 C3066 1.574 . S
C3058 C3074 1.368 . S
H3059 C3067 0.950 . S
H3060 C3065 0.950 . S
H3061 C3066 0.949 . S
H3062 C3068 0.950 . S
H3063 C3069 0.950 . S
H3064 C3070 0.949 . S
C3065 H3060 0.950 . S
C3065 C3067 1.327 1_455 S
C3065 C3071 1.429 . S
C3066 C3058 1.574 . S
C3066 H3061 0.949 . S
C3066 C3072 1.368 . S
C3067 C3051 1.349 . S
C3067 H3059 0.950 . S
C3067 C3065 1.327 1_655 S
C3068 C3056 1.349 . S
C3068 H3062 0.950 . S
C3068 C3069 1.327 . S
C3069 H3063 0.950 . S
C3069 C3068 1.327 . S
C3069 C3073 1.429 . S
C3070 C3053 1.574 . S
C3070 H3064 0.949 . S
C3070 C3074 1.368 . S
C3071 C3052 1.429 1_455 S
C3071 C3065 1.429 . S
C3071 C3072 1.523 . S
C3072 C3053 1.368 . S
C3072 C3066 1.368 . S
C3072 C3071 1.523 . S
C3073 C3057 1.429 . S
C3073 C3069 1.429 . S
C3073 C3074 1.523 . S
C3074 C3058 1.368 . S
C3074 C3070 1.368 . S
C3074 C3073 1.523 . S
H3075 C3050 0.950 . S
H3076 C3052 0.950 . S
H3077 C3053 0.949 . S
H3078 C3055 0.950 . S
H3079 C3057 0.950 . S
C3080 C3081 1.349 . S
C3080 C3082 1.327 . S
C3080 H3105 0.950 . S
C3081 C3080 1.349 . S
C3081 C3097 1.349 . S
C3082 C3080 1.327 . S
C3082 C3101 1.429 . S
C3082 H3106 0.950 . S
C3083 C3100 1.574 . S
C3083 C3102 1.368 . S
C3083 H3107 0.949 . S
H3084 C3088 0.949 . S
C3085 C3086 1.349 . S
C3085 C3087 1.327 . S
C3085 H3108 0.950 . S
C3086 C3085 1.349 . S
C3086 C3098 1.349 . S
C3087 C3085 1.327 . S
C3087 C3103 1.429 . S
C3087 H3109 0.950 . S
C3088 H3084 0.949 . S
C3088 C3096 1.574 . S
C3088 C3104 1.368 . S
H3089 C3097 0.950 . S
H3090 C3095 0.950 . S
H3091 C3096 0.949 . S
H3092 C3098 0.950 . S
H3093 C3099 0.950 . S
H3094 C3100 0.949 . S
C3095 H3090 0.950 . S
C3095 C3097 1.327 . S
C3095 C3101 1.429 . S
C3096 C3088 1.574 . S
C3096 H3091 0.949 . S
C3096 C3102 1.368 . S
C3097 C3081 1.349 . S
C3097 H3089 0.950 . S
C3097 C3095 1.327 . S
C3098 C3086 1.349 . S
C3098 H3092 0.950 . S
C3098 C3099 1.327 . S
C3099 H3093 0.950 . S
C3099 C3098 1.327 . S
C3099 C3103 1.429 . S
C3100 C3083 1.574 . S
C3100 H3094 0.949 . S
C3100 C3104 1.368 . S
C3101 C3082 1.429 . S
C3101 C3095 1.429 . S
C3101 C3102 1.523 . S
C3102 C3083 1.368 . S
C3102 C3096 1.368 . S
C3102 C3101 1.523 . S
C3103 C3087 1.429 . S
C3103 C3099 1.429 . S
C3103 C3104 1.523 . S
C3104 C3088 1.368 . S
C3104 C3100 1.368 . S
C3104 C3103 1.523 . S
H3105 C3080 0.950 . S
H3106 C3082 0.950 . S
H3107 C3083 0.949 . S
H3108 C3085 0.950 . S
H3109 C3087 0.950 . S
C3110 C3111 1.349 . S
C3110 C3112 1.327 . S
C3110 H3135 0.950 . S
C3111 C3110 1.349 . S
C3111 C3127 1.349 . S
C3112 C3110 1.327 . S
C3112 C3131 1.429 . S
C3112 H3136 0.950 . S
C3113 C3130 1.574 . S
C3113 C3132 1.368 . S
C3113 H3137 0.949 . S
H3114 C3118 0.949 . S
C3115 C3116 1.349 . S
C3115 C3117 1.327 . S
C3115 H3138 0.950 . S
C3116 C3115 1.349 . S
C3116 C3128 1.349 . S
C3117 C3115 1.327 . S
C3117 C3133 1.429 1_655 S
C3117 H3139 0.950 . S
C3118 H3114 0.949 . S
C3118 C3126 1.574 . S
C3118 C3134 1.368 . S
H3119 C3127 0.950 . S
H3120 C3125 0.950 . S
H3121 C3126 0.949 . S
H3122 C3128 0.950 . S
H3123 C3129 0.950 . S
H3124 C3130 0.949 . S
C3125 H3120 0.950 . S
C3125 C3127 1.327 . S
C3125 C3131 1.429 . S
C3126 C3118 1.574 . S
C3126 H3121 0.949 . S
C3126 C3132 1.368 . S
C3127 C3111 1.349 . S
C3127 H3119 0.950 . S
C3127 C3125 1.327 . S
C3128 C3116 1.349 . S
C3128 H3122 0.950 . S
C3128 C3129 1.327 1_655 S
C3129 H3123 0.950 . S
C3129 C3128 1.327 1_455 S
C3129 C3133 1.429 . S
C3130 C3113 1.574 . S
C3130 H3124 0.949 . S
C3130 C3134 1.368 . S
C3131 C3112 1.429 . S
C3131 C3125 1.429 . S
C3131 C3132 1.523 . S
C3132 C3113 1.368 . S
C3132 C3126 1.368 . S
C3132 C3131 1.523 . S
C3133 C3117 1.429 1_455 S
C3133 C3129 1.429 . S
C3133 C3134 1.523 . S
C3134 C3118 1.368 . S
C3134 C3130 1.368 . S
C3134 C3133 1.523 . S
H3135 C3110 0.950 . S
H3136 C3112 0.950 . S
H3137 C3113 0.949 . S
H3138 C3115 0.950 . S
H3139 C3117 0.950 . S
C3140 C3141 1.349 . S
C3140 C3142 1.327 . S
C3140 H3165 0.950 . S
C3141 C3140 1.349 . S
C3141 C3157 1.349 . S
C3142 C3140 1.327 . S
C3142 C3161 1.429 . S
C3142 H3166 0.950 . S
C3143 C3160 1.574 . S
C3143 C3162 1.368 . S
C3143 H3167 0.949 . S
H3144 C3148 0.949 . S
C3145 C3146 1.349 . S
C3145 C3147 1.327 . S
C3145 H3168 0.950 . S
C3146 C3145 1.349 . S
C3146 C3158 1.349 . S
C3147 C3145 1.327 . S
C3147 C3163 1.429 . S
C3147 H3169 0.950 . S
C3148 H3144 0.949 . S
C3148 C3156 1.574 . S
C3148 C3164 1.368 . S
H3149 C3157 0.950 . S
H3150 C3155 0.950 . S
H3151 C3156 0.949 . S
H3152 C3158 0.950 . S
H3153 C3159 0.950 . S
H3154 C3160 0.949 . S
C3155 H3150 0.950 . S
C3155 C3157 1.327 . S
C3155 C3161 1.429 . S
C3156 C3148 1.574 . S
C3156 H3151 0.949 . S
C3156 C3162 1.368 . S
C3157 C3141 1.349 . S
C3157 H3149 0.950 . S
C3157 C3155 1.327 . S
C3158 C3146 1.349 . S
C3158 H3152 0.950 . S
C3158 C3159 1.327 . S
C3159 H3153 0.950 . S
C3159 C3158 1.327 . S
C3159 C3163 1.429 . S
C3160 C3143 1.574 . S
C3160 H3154 0.949 . S
C3160 C3164 1.368 . S
C3161 C3142 1.429 . S
C3161 C3155 1.429 . S
C3161 C3162 1.523 . S
C3162 C3143 1.368 . S
C3162 C3156 1.368 . S
C3162 C3161 1.523 . S
C3163 C3147 1.429 . S
C3163 C3159 1.429 . S
C3163 C3164 1.523 . S
C3164 C3148 1.368 . S
C3164 C3160 1.368 . S
C3164 C3163 1.523 . S
H3165 C3140 0.950 . S
H3166 C3142 0.950 . S
H3167 C3143 0.949 . S
H3168 C3145 0.950 . S
H3169 C3147 0.950 . S
C3170 C3171 1.349 . S
C3170 C3172 1.327 . S
C3170 H3195 0.950 . S
C3171 C3170 1.349 . S
C3171 C3187 1.349 . S
C3172 C3170 1.327 . S
C3172 C3191 1.429 . S
C3172 H3196 0.950 . S
C3173 C3190 1.574 . S
C3173 C3192 1.368 . S
C3173 H3197 0.949 . S
H3174 C3178 0.949 . S
C3175 C3176 1.349 . S
C3175 C3177 1.327 . S
C3175 H3198 0.950 . S
C3176 C3175 1.349 . S
C3176 C3188 1.349 . S
C3177 C3175 1.327 . S
C3177 C3193 1.429 . S
C3177 H3199 0.950 . S
C3178 H3174 0.949 . S
C3178 C3186 1.574 . S
C3178 C3194 1.368 . S
H3179 C3187 0.950 . S
H3180 C3185 0.950 . S
H3181 C3186 0.949 . S
H3182 C3188 0.950 . S
H3183 C3189 0.950 . S
H3184 C3190 0.949 . S
C3185 H3180 0.950 . S
C3185 C3187 1.327 . S
C3185 C3191 1.429 . S
C3186 C3178 1.574 . S
C3186 H3181 0.949 . S
C3186 C3192 1.368 . S
C3187 C3171 1.349 . S
C3187 H3179 0.950 . S
C3187 C3185 1.327 . S
C3188 C3176 1.349 . S
C3188 H3182 0.950 . S
C3188 C3189 1.327 . S
C3189 H3183 0.950 . S
C3189 C3188 1.327 . S
C3189 C3193 1.429 . S
C3190 C3173 1.574 . S
C3190 H3184 0.949 . S
C3190 C3194 1.368 . S
C3191 C3172 1.429 . S
C3191 C3185 1.429 . S
C3191 C3192 1.523 . S
C3192 C3173 1.368 . S
C3192 C3186 1.368 . S
C3192 C3191 1.523 . S
C3193 C3177 1.429 . S
C3193 C3189 1.429 . S
C3193 C3194 1.523 . S
C3194 C3178 1.368 . S
C3194 C3190 1.368 . S
C3194 C3193 1.523 . S
H3195 C3170 0.950 . S
H3196 C3172 0.950 . S
H3197 C3173 0.949 . S
H3198 C3175 0.950 . S
H3199 C3177 0.950 . S
C3200 C3201 1.349 . S
C3200 C3202 1.327 . S
C3200 H3225 0.950 . S
C3201 C3200 1.349 . S
C3201 C3217 1.349 . S
C3202 C3200 1.327 . S
C3202 C3221 1.429 . S
C3202 H3226 0.950 . S
C3203 C3220 1.574 1_545 S
C3203 C3222 1.368 . S
C3203 H3227 0.949 . S
H3204 C3208 0.949 . S
C3205 C3206 1.349 . S
C3205 C3207 1.327 . S
C3205 H3228 0.950 . S
C3206 C3205 1.349 . S
C3206 C3218 1.349 . S
C3207 C3205 1.327 . S
C3207 C3223 1.429 . S
C3207 H3229 0.950 . S
C3208 H3204 0.949 . S
C3208 C3216 1.574 1_565 S
C3208 C3224 1.368 . S
H3209 C3217 0.950 . S
H3210 C3215 0.950 . S
H3211 C3216 0.949 . S
H3212 C3218 0.950 . S
H3213 C3219 0.950 . S
H3214 C3220 0.949 . S
C3215 H3210 0.950 . S
C3215 C3217 1.327 . S
C3215 C3221 1.429 . S
C3216 C3208 1.574 1_545 S
C3216 H3211 0.949 . S
C3216 C3222 1.368 . S
C3217 C3201 1.349 . S
C3217 H3209 0.950 . S
C3217 C3215 1.327 . S
C3218 C3206 1.349 . S
C3218 H3212 0.950 . S
C3218 C3219 1.327 . S
C3219 H3213 0.950 . S
C3219 C3218 1.327 . S
C3219 C3223 1.429 . S
C3220 C3203 1.574 1_565 S
C3220 H3214 0.949 . S
C3220 C3224 1.368 . S
C3221 C3202 1.429 . S
C3221 C3215 1.429 . S
C3221 C3222 1.523 . S
C3222 C3203 1.368 . S
C3222 C3216 1.368 . S
C3222 C3221 1.523 . S
C3223 C3207 1.429 . S
C3223 C3219 1.429 . S
C3223 C3224 1.523 . S
C3224 C3208 1.368 . S
C3224 C3220 1.368 . S
C3224 C3223 1.523 . S
H3225 C3200 0.950 . S
H3226 C3202 0.950 . S
H3227 C3203 0.949 . S
H3228 C3205 0.950 . S
H3229 C3207 0.950 . S
C3230 C3231 1.349 . S
C3230 C3232 1.327 . S
C3230 H3255 0.950 . S
C3231 C3230 1.349 . S
C3231 C3247 1.349 . S
C3232 C3230 1.327 . S
C3232 C3251 1.429 . S
C3232 H3256 0.950 . S
C3233 C3250 1.574 . S
C3233 C3252 1.368 . S
C3233 H3257 0.949 . S
H3234 C3238 0.949 . S
C3235 C3236 1.349 . S
C3235 C3237 1.327 . S
C3235 H3258 0.950 . S
C3236 C3235 1.349 . S
C3236 C3248 1.349 . S
C3237 C3235 1.327 . S
C3237 C3253 1.429 . S
C3237 H3259 0.950 . S
C3238 H3234 0.949 . S
C3238 C3246 1.574 . S
C3238 C3254 1.368 . S
H3239 C3247 0.950 . S
H3240 C3245 0.950 . S
H3241 C3246 0.949 . S
H3242 C3248 0.950 . S
H3243 C3249 0.950 . S
H3244 C3250 0.949 . S
C3245 H3240 0.950 . S
C3245 C3247 1.327 . S
C3245 C3251 1.429 . S
C3246 C3238 1.574 . S
C3246 H3241 0.949 . S
C3246 C3252 1.368 . S
C3247 C3231 1.349 . S
C3247 H3239 0.950 . S
C3247 C3245 1.327 . S
C3248 C3236 1.349 . S
C3248 H3242 0.950 . S
C3248 C3249 1.327 . S
C3249 H3243 0.950 . S
C3249 C3248 1.327 . S
C3249 C3253 1.429 . S
C3250 C3233 1.574 . S
C3250 H3244 0.949 . S
C3250 C3254 1.368 . S
C3251 C3232 1.429 . S
C3251 C3245 1.429 . S
C3251 C3252 1.523 . S
C3252 C3233 1.368 . S
C3252 C3246 1.368 . S
C3252 C3251 1.523 . S
C3253 C3237 1.429 . S
C3253 C3249 1.429 . S
C3253 C3254 1.523 . S
C3254 C3238 1.368 . S
C3254 C3250 1.368 . S
C3254 C3253 1.523 . S
H3255 C3230 0.950 . S
H3256 C3232 0.950 . S
H3257 C3233 0.949 . S
H3258 C3235 0.950 . S
H3259 C3237 0.950 . S
C3260 C3261 1.349 . S
C3260 C3262 1.327 . S
C3260 H3285 0.950 . S
C3261 C3260 1.349 . S
C3261 C3277 1.349 . S
C3262 C3260 1.327 . S
C3262 C3281 1.429 . S
C3262 H3286 0.950 . S
C3263 C3280 1.574 1_565 S
C3263 C3282 1.368 . S
C3263 H3287 0.949 . S
H3264 C3268 0.949 . S
C3265 C3266 1.349 . S
C3265 C3267 1.327 . S
C3265 H3288 0.950 . S
C3266 C3265 1.349 . S
C3266 C3278 1.349 . S
C3267 C3265 1.327 . S
C3267 C3283 1.429 . S
C3267 H3289 0.950 . S
C3268 H3264 0.949 . S
C3268 C3276 1.574 1_545 S
C3268 C3284 1.368 . S
H3269 C3277 0.950 . S
H3270 C3275 0.950 . S
H3271 C3276 0.949 . S
H3272 C3278 0.950 . S
H3273 C3279 0.950 . S
H3274 C3280 0.949 . S
C3275 H3270 0.950 . S
C3275 C3277 1.327 . S
C3275 C3281 1.429 . S
C3276 C3268 1.574 1_565 S
C3276 H3271 0.949 . S
C3276 C3282 1.368 . S
C3277 C3261 1.349 . S
C3277 H3269 0.950 . S
C3277 C3275 1.327 . S
C3278 C3266 1.349 . S
C3278 H3272 0.950 . S
C3278 C3279 1.327 . S
C3279 H3273 0.950 . S
C3279 C3278 1.327 . S
C3279 C3283 1.429 . S
C3280 C3263 1.574 1_545 S
C3280 H3274 0.949 . S
C3280 C3284 1.368 . S
C3281 C3262 1.429 . S
C3281 C3275 1.429 . S
C3281 C3282 1.523 . S
C3282 C3263 1.368 . S
C3282 C3276 1.368 . S
C3282 C3281 1.523 . S
C3283 C3267 1.429 . S
C3283 C3279 1.429 . S
C3283 C3284 1.523 . S
C3284 C3268 1.368 . S
C3284 C3280 1.368 . S
C3284 C3283 1.523 . S
H3285 C3260 0.950 . S
H3286 C3262 0.950 . S
H3287 C3263 0.949 . S
H3288 C3265 0.950 . S
H3289 C3267 0.950 . S
C3290 C3291 1.349 . S
C3290 C3292 1.327 . S
C3290 H3315 0.950 . S
C3291 C3290 1.349 . S
C3291 C3307 1.342 1_556 S
C3292 C3290 1.327 . S
C3292 C3311 1.429 . S
C3292 H3316 0.950 . S
C3293 C3310 1.574 . S
C3293 C3312 1.368 1_554 S
C3293 H3317 0.949 . S
H3294 C3298 0.949 . S
C3295 C3296 1.349 . S
C3295 C3297 1.327 . S
C3295 H3318 0.950 . S
C3296 C3295 1.349 . S
C3296 C3308 1.342 1_554 S
C3297 C3295 1.327 . S
C3297 C3313 1.429 . S
C3297 H3319 0.950 . S
C3298 H3294 0.949 . S
C3298 C3306 1.574 . S
C3298 C3314 1.368 1_556 S
H3299 C3307 0.955 . S
H3300 C3305 0.950 . S
H3301 C3306 0.949 . S
H3302 C3308 0.955 . S
H3303 C3309 0.950 . S
H3304 C3310 0.949 . S
C3305 H3300 0.950 . S
C3305 C3307 1.329 . S
C3305 C3311 1.429 1_554 S
C3306 C3298 1.574 . S
C3306 H3301 0.949 . S
C3306 C3312 1.368 . S
C3307 C3291 1.342 1_554 S
C3307 H3299 0.955 . S
C3307 C3305 1.329 . S
C3308 C3296 1.342 1_556 S
C3308 H3302 0.955 . S
C3308 C3309 1.329 . S
C3309 H3303 0.950 . S
C3309 C3308 1.329 . S
C3309 C3313 1.429 1_556 S
C3310 C3293 1.574 . S
C3310 H3304 0.949 . S
C3310 C3314 1.368 . S
C3311 C3292 1.429 . S
C3311 C3305 1.429 1_556 S
C3311 C3312 1.523 . S
C3312 C3293 1.368 1_556 S
C3312 C3306 1.368 . S
C3312 C3311 1.523 . S
C3313 C3297 1.429 . S
C3313 C3309 1.429 1_554 S
C3313 C3314 1.523 . S
C3314 C3298 1.368 1_554 S
C3314 C3310 1.368 . S
C3314 C3313 1.523 . S
H3315 C3290 0.950 . S
H3316 C3292 0.950 . S
H3317 C3293 0.949 . S
H3318 C3295 0.950 . S
H3319 C3297 0.950 . S
C3320 C3321 1.349 . S
C3320 C3322 1.327 . S
C3320 H3345 0.950 . S
C3321 C3320 1.349 . S
C3321 C3337 1.349 . S
C3322 C3320 1.327 . S
C3322 C3341 1.429 . S
C3322 H3346 0.950 . S
C3323 C3340 1.574 1_545 S
C3323 C3342 1.368 . S
C3323 H3347 0.949 . S
H3324 C3328 0.949 . S
C3325 C3326 1.349 . S
C3325 C3327 1.327 . S
C3325 H3348 0.950 . S
C3326 C3325 1.349 . S
C3326 C3338 1.349 . S
C3327 C3325 1.327 . S
C3327 C3343 1.429 . S
C3327 H3349 0.950 . S
C3328 H3324 0.949 . S
C3328 C3336 1.574 1_565 S
C3328 C3344 1.368 . S
H3329 C3337 0.950 . S
H3330 C3335 0.950 . S
H3331 C3336 0.949 . S
H3332 C3338 0.950 . S
H3333 C3339 0.950 . S
H3334 C3340 0.949 . S
C3335 H3330 0.950 . S
C3335 C3337 1.327 . S
C3335 C3341 1.429 . S
C3336 C3328 1.574 1_545 S
C3336 H3331 0.949 . S
C3336 C3342 1.368 . S
C3337 C3321 1.349 . S
C3337 H3329 0.950 . S
C3337 C3335 1.327 . S
C3338 C3326 1.349 . S
C3338 H3332 0.950 . S
C3338 C3339 1.327 . S
C3339 H3333 0.950 . S
C3339 C3338 1.327 . S
C3339 C3343 1.429 . S
C3340 C3323 1.574 1_565 S
C3340 H3334 0.949 . S
C3340 C3344 1.368 . S
C3341 C3322 1.429 . S
C3341 C3335 1.429 . S
C3341 C3342 1.523 . S
C3342 C3323 1.368 . S
C3342 C3336 1.368 . S
C3342 C3341 1.523 . S
C3343 C3327 1.429 . S
C3343 C3339 1.429 . S
C3343 C3344 1.523 . S
C3344 C3328 1.368 . S
C3344 C3340 1.368 . S
C3344 C3343 1.523 . S
H3345 C3320 0.950 . S
H3346 C3322 0.950 . S
H3347 C3323 0.949 . S
H3348 C3325 0.950 . S
H3349 C3327 0.950 . S
C3350 C3351 1.349 . S
C3350 C3352 1.327 . S
C3350 H3375 0.950 . S
C3351 C3350 1.349 . S
C3351 C3367 1.349 . S
C3352 C3350 1.327 . S
C3352 C3371 1.429 . S
C3352 H3376 0.950 . S
C3353 C3370 1.574 . S
C3353 C3372 1.368 . S
C3353 H3377 0.949 . S
H3354 C3358 0.949 . S
C3355 C3356 1.349 . S
C3355 C3357 1.327 . S
C3355 H3378 0.950 . S
C3356 C3355 1.349 . S
C3356 C3368 1.349 . S
C3357 C3355 1.327 . S
C3357 C3373 1.429 . S
C3357 H3379 0.950 . S
C3358 H3354 0.949 . S
C3358 C3366 1.574 . S
C3358 C3374 1.368 . S
H3359 C3367 0.950 . S
H3360 C3365 0.950 . S
H3361 C3366 0.949 . S
H3362 C3368 0.950 . S
H3363 C3369 0.950 . S
H3364 C3370 0.949 . S
C3365 H3360 0.950 . S
C3365 C3367 1.327 . S
C3365 C3371 1.429 . S
C3366 C3358 1.574 . S
C3366 H3361 0.949 . S
C3366 C3372 1.368 . S
C3367 C3351 1.349 . S
C3367 H3359 0.950 . S
C3367 C3365 1.327 . S
C3368 C3356 1.349 . S
C3368 H3362 0.950 . S
C3368 C3369 1.327 . S
C3369 H3363 0.950 . S
C3369 C3368 1.327 . S
C3369 C3373 1.429 . S
C3370 C3353 1.574 . S
C3370 H3364 0.949 . S
C3370 C3374 1.368 . S
C3371 C3352 1.429 . S
C3371 C3365 1.429 . S
C3371 C3372 1.523 . S
C3372 C3353 1.368 . S
C3372 C3366 1.368 . S
C3372 C3371 1.523 . S
C3373 C3357 1.429 . S
C3373 C3369 1.429 . S
C3373 C3374 1.523 . S
C3374 C3358 1.368 . S
C3374 C3370 1.368 . S
C3374 C3373 1.523 . S
H3375 C3350 0.950 . S
H3376 C3352 0.950 . S
H3377 C3353 0.949 . S
H3378 C3355 0.950 . S
H3379 C3357 0.950 . S
C3380 C3381 1.349 . S
C3380 C3382 1.327 . S
C3380 H3405 0.950 . S
C3381 C3380 1.349 . S
C3381 C3397 1.349 . S
C3382 C3380 1.327 . S
C3382 C3401 1.429 . S
C3382 H3406 0.950 . S
C3383 C3400 1.574 1_545 S
C3383 C3402 1.368 . S
C3383 H3407 0.949 . S
H3384 C3388 0.949 . S
C3385 C3386 1.349 . S
C3385 C3387 1.327 . S
C3385 H3408 0.950 . S
C3386 C3385 1.349 . S
C3386 C3398 1.349 . S
C3387 C3385 1.327 . S
C3387 C3403 1.429 . S
C3387 H3409 0.950 . S
C3388 H3384 0.949 . S
C3388 C3396 1.574 1_565 S
C3388 C3404 1.368 . S
H3389 C3397 0.950 . S
H3390 C3395 0.950 . S
H3391 C3396 0.949 . S
H3392 C3398 0.950 . S
H3393 C3399 0.950 . S
H3394 C3400 0.949 . S
C3395 H3390 0.950 . S
C3395 C3397 1.327 . S
C3395 C3401 1.429 . S
C3396 C3388 1.574 1_545 S
C3396 H3391 0.949 . S
C3396 C3402 1.368 . S
C3397 C3381 1.349 . S
C3397 H3389 0.950 . S
C3397 C3395 1.327 . S
C3398 C3386 1.349 . S
C3398 H3392 0.950 . S
C3398 C3399 1.327 . S
C3399 H3393 0.950 . S
C3399 C3398 1.327 . S
C3399 C3403 1.429 . S
C3400 C3383 1.574 1_565 S
C3400 H3394 0.949 . S
C3400 C3404 1.368 . S
C3401 C3382 1.429 . S
C3401 C3395 1.429 . S
C3401 C3402 1.523 . S
C3402 C3383 1.368 . S
C3402 C3396 1.368 . S
C3402 C3401 1.523 . S
C3403 C3387 1.429 . S
C3403 C3399 1.429 . S
C3403 C3404 1.523 . S
C3404 C3388 1.368 . S
C3404 C3400 1.368 . S
C3404 C3403 1.523 . S
H3405 C3380 0.950 . S
H3406 C3382 0.950 . S
H3407 C3383 0.949 . S
H3408 C3385 0.950 . S
H3409 C3387 0.950 . S
C3410 C3411 1.349 . S
C3410 C3412 1.327 . S
C3410 H3435 0.950 . S
C3411 C3410 1.349 . S
C3411 C3427 1.342 1_556 S
C3412 C3410 1.327 . S
C3412 C3431 1.429 . S
C3412 H3436 0.950 . S
C3413 C3430 1.574 . S
C3413 C3432 1.368 1_554 S
C3413 H3437 0.949 . S
H3414 C3418 0.949 . S
C3415 C3416 1.349 . S
C3415 C3417 1.327 . S
C3415 H3438 0.950 . S
C3416 C3415 1.349 . S
C3416 C3428 1.342 1_554 S
C3417 C3415 1.327 . S
C3417 C3433 1.429 . S
C3417 H3439 0.950 . S
C3418 H3414 0.949 . S
C3418 C3426 1.574 . S
C3418 C3434 1.368 1_556 S
H3419 C3427 0.955 . S
H3420 C3425 0.950 . S
H3421 C3426 0.949 . S
H3422 C3428 0.955 . S
H3423 C3429 0.950 . S
H3424 C3430 0.949 . S
C3425 H3420 0.950 . S
C3425 C3427 1.329 . S
C3425 C3431 1.429 1_554 S
C3426 C3418 1.574 . S
C3426 H3421 0.949 . S
C3426 C3432 1.368 . S
C3427 C3411 1.342 1_554 S
C3427 H3419 0.955 . S
C3427 C3425 1.329 . S
C3428 C3416 1.342 1_556 S
C3428 H3422 0.955 . S
C3428 C3429 1.329 . S
C3429 H3423 0.950 . S
C3429 C3428 1.329 . S
C3429 C3433 1.429 1_556 S
C3430 C3413 1.574 . S
C3430 H3424 0.949 . S
C3430 C3434 1.368 . S
C3431 C3412 1.429 . S
C3431 C3425 1.429 1_556 S
C3431 C3432 1.523 . S
C3432 C3413 1.368 1_556 S
C3432 C3426 1.368 . S
C3432 C3431 1.523 . S
C3433 C3417 1.429 . S
C3433 C3429 1.429 1_554 S
C3433 C3434 1.523 . S
C3434 C3418 1.368 1_554 S
C3434 C3430 1.368 . S
C3434 C3433 1.523 . S
H3435 C3410 0.950 . S
H3436 C3412 0.950 . S
H3437 C3413 0.949 . S
H3438 C3415 0.950 . S
H3439 C3417 0.950 . S
C3440 C3441 1.349 . S
C3440 C3442 1.327 . S
C3440 H3465 0.950 . S
C3441 C3440 1.349 . S
C3441 C3457 1.349 . S
C3442 C3440 1.327 . S
C3442 C3461 1.429 . S
C3442 H3466 0.950 . S
C3443 C3460 1.574 . S
C3443 C3462 1.368 . S
C3443 H3467 0.949 . S
H3444 C3448 0.949 . S
C3445 C3446 1.349 . S
C3445 C3447 1.327 . S
C3445 H3468 0.950 . S
C3446 C3445 1.349 . S
C3446 C3458 1.349 . S
C3447 C3445 1.327 . S
C3447 C3463 1.429 . S
C3447 H3469 0.950 . S
C3448 H3444 0.949 . S
C3448 C3456 1.574 . S
C3448 C3464 1.368 . S
H3449 C3457 0.950 . S
H3450 C3455 0.950 . S
H3451 C3456 0.949 . S
H3452 C3458 0.950 . S
H3453 C3459 0.950 . S
H3454 C3460 0.949 . S
C3455 H3450 0.950 . S
C3455 C3457 1.327 . S
C3455 C3461 1.429 . S
C3456 C3448 1.574 . S
C3456 H3451 0.949 . S
C3456 C3462 1.368 . S
C3457 C3441 1.349 . S
C3457 H3449 0.950 . S
C3457 C3455 1.327 . S
C3458 C3446 1.349 . S
C3458 H3452 0.950 . S
C3458 C3459 1.327 . S
C3459 H3453 0.950 . S
C3459 C3458 1.327 . S
C3459 C3463 1.429 . S
C3460 C3443 1.574 . S
C3460 H3454 0.949 . S
C3460 C3464 1.368 . S
C3461 C3442 1.429 . S
C3461 C3455 1.429 . S
C3461 C3462 1.523 . S
C3462 C3443 1.368 . S
C3462 C3456 1.368 . S
C3462 C3461 1.523 . S
C3463 C3447 1.429 . S
C3463 C3459 1.429 . S
C3463 C3464 1.523 . S
C3464 C3448 1.368 . S
C3464 C3460 1.368 . S
C3464 C3463 1.523 . S
H3465 C3440 0.950 . S
H3466 C3442 0.950 . S
H3467 C3443 0.949 . S
H3468 C3445 0.950 . S
H3469 C3447 0.950 . S
C3470 C3471 1.349 . S
C3470 C3472 1.327 . S
C3470 H3495 0.950 . S
C3471 C3470 1.349 . S
C3471 C3487 1.342 1_556 S
C3472 C3470 1.327 . S
C3472 C3491 1.429 . S
C3472 H3496 0.950 . S
C3473 C3490 1.574 . S
C3473 C3492 1.368 1_554 S
C3473 H3497 0.949 . S
H3474 C3478 0.949 . S
C3475 C3476 1.349 . S
C3475 C3477 1.327 . S
C3475 H3498 0.950 . S
C3476 C3475 1.349 . S
C3476 C3488 1.342 1_554 S
C3477 C3475 1.327 . S
C3477 C3493 1.429 . S
C3477 H3499 0.950 . S
C3478 H3474 0.949 . S
C3478 C3486 1.574 . S
C3478 C3494 1.368 1_556 S
H3479 C3487 0.955 . S
H3480 C3485 0.950 . S
H3481 C3486 0.949 . S
H3482 C3488 0.955 . S
H3483 C3489 0.950 . S
H3484 C3490 0.949 . S
C3485 H3480 0.950 . S
C3485 C3487 1.329 . S
C3485 C3491 1.429 1_554 S
C3486 C3478 1.574 . S
C3486 H3481 0.949 . S
C3486 C3492 1.368 . S
C3487 C3471 1.342 1_554 S
C3487 H3479 0.955 . S
C3487 C3485 1.329 . S
C3488 C3476 1.342 1_556 S
C3488 H3482 0.955 . S
C3488 C3489 1.329 . S
C3489 H3483 0.950 . S
C3489 C3488 1.329 . S
C3489 C3493 1.429 1_556 S
C3490 C3473 1.574 . S
C3490 H3484 0.949 . S
C3490 C3494 1.368 . S
C3491 C3472 1.429 . S
C3491 C3485 1.429 1_556 S
C3491 C3492 1.523 . S
C3492 C3473 1.368 1_556 S
C3492 C3486 1.368 . S
C3492 C3491 1.523 . S
C3493 C3477 1.429 . S
C3493 C3489 1.429 1_554 S
C3493 C3494 1.523 . S
C3494 C3478 1.368 1_554 S
C3494 C3490 1.368 . S
C3494 C3493 1.523 . S
H3495 C3470 0.950 . S
H3496 C3472 0.950 . S
H3497 C3473 0.949 . S
H3498 C3475 0.950 . S
H3499 C3477 0.950 . S
C3500 C3501 1.349 . S
C3500 C3502 1.327 . S
C3500 H3525 0.950 . S
C3501 C3500 1.349 . S
C3501 C3517 1.349 . S
C3502 C3500 1.327 . S
C3502 C3521 1.429 . S
C3502 H3526 0.950 . S
C3503 C3520 1.574 . S
C3503 C3522 1.368 . S
C3503 H3527 0.949 . S
H3504 C3508 0.949 . S
C3505 C3506 1.349 . S
C3505 C3507 1.327 . S
C3505 H3528 0.950 . S
C3506 C3505 1.349 . S
C3506 C3518 1.349 . S
C3507 C3505 1.327 . S
C3507 C3523 1.429 . S
C3507 H3529 0.950 . S
C3508 H3504 0.949 . S
C3508 C3516 1.574 . S
C3508 C3524 1.368 . S
H3509 C3517 0.950 . S
H3510 C3515 0.950 . S
H3511 C3516 0.949 . S
H3512 C3518 0.950 . S
H3513 C3519 0.950 . S
H3514 C3520 0.949 . S
C3515 H3510 0.950 . S
C3515 C3517 1.327 . S
C3515 C3521 1.429 . S
C3516 C3508 1.574 . S
C3516 H3511 0.949 . S
C3516 C3522 1.368 . S
C3517 C3501 1.349 . S
C3517 H3509 0.950 . S
C3517 C3515 1.327 . S
C3518 C3506 1.349 . S
C3518 H3512 0.950 . S
C3518 C3519 1.327 . S
C3519 H3513 0.950 . S
C3519 C3518 1.327 . S
C3519 C3523 1.429 . S
C3520 C3503 1.574 . S
C3520 H3514 0.949 . S
C3520 C3524 1.368 . S
C3521 C3502 1.429 . S
C3521 C3515 1.429 . S
C3521 C3522 1.523 . S
C3522 C3503 1.368 . S
C3522 C3516 1.368 . S
C3522 C3521 1.523 . S
C3523 C3507 1.429 . S
C3523 C3519 1.429 . S
C3523 C3524 1.523 . S
C3524 C3508 1.368 . S
C3524 C3520 1.368 . S
C3524 C3523 1.523 . S
H3525 C3500 0.950 . S
H3526 C3502 0.950 . S
H3527 C3503 0.949 . S
H3528 C3505 0.950 . S
H3529 C3507 0.950 . S
C3530 C3531 1.349 . S
C3530 C3532 1.327 . S
C3530 H3555 0.950 . S
C3531 C3530 1.349 . S
C3531 C3547 1.349 . S
C3532 C3530 1.327 . S
C3532 C3551 1.429 . S
C3532 H3556 0.950 . S
C3533 C3550 1.574 . S
C3533 C3552 1.368 . S
C3533 H3557 0.949 . S
H3534 C3538 0.949 . S
C3535 C3536 1.349 . S
C3535 C3537 1.327 . S
C3535 H3558 0.950 . S
C3536 C3535 1.349 . S
C3536 C3548 1.349 . S
C3537 C3535 1.327 . S
C3537 C3553 1.429 . S
C3537 H3559 0.950 . S
C3538 H3534 0.949 . S
C3538 C3546 1.574 . S
C3538 C3554 1.368 . S
H3539 C3547 0.950 . S
H3540 C3545 0.950 . S
H3541 C3546 0.949 . S
H3542 C3548 0.950 . S
H3543 C3549 0.950 . S
H3544 C3550 0.949 . S
C3545 H3540 0.950 . S
C3545 C3547 1.327 . S
C3545 C3551 1.429 . S
C3546 C3538 1.574 . S
C3546 H3541 0.949 . S
C3546 C3552 1.368 . S
C3547 C3531 1.349 . S
C3547 H3539 0.950 . S
C3547 C3545 1.327 . S
C3548 C3536 1.349 . S
C3548 H3542 0.950 . S
C3548 C3549 1.327 . S
C3549 H3543 0.950 . S
C3549 C3548 1.327 . S
C3549 C3553 1.429 . S
C3550 C3533 1.574 . S
C3550 H3544 0.949 . S
C3550 C3554 1.368 . S
C3551 C3532 1.429 . S
C3551 C3545 1.429 . S
C3551 C3552 1.523 . S
C3552 C3533 1.368 . S
C3552 C3546 1.368 . S
C3552 C3551 1.523 . S
C3553 C3537 1.429 . S
C3553 C3549 1.429 . S
C3553 C3554 1.523 . S
C3554 C3538 1.368 . S
C3554 C3550 1.368 . S
C3554 C3553 1.523 . S
H3555 C3530 0.950 . S
H3556 C3532 0.950 . S
H3557 C3533 0.949 . S
H3558 C3535 0.950 . S
H3559 C3537 0.950 . S
C3560 C3561 1.349 . S
C3560 C3562 1.327 . S
C3560 H3585 0.950 . S
C3561 C3560 1.349 . S
C3561 C3577 1.349 . S
C3562 C3560 1.327 . S
C3562 C3581 1.429 . S
C3562 H3586 0.950 . S
C3563 C3580 1.574 . S
C3563 C3582 1.368 . S
C3563 H3587 0.949 . S
H3564 C3568 0.949 . S
C3565 C3566 1.349 . S
C3565 C3567 1.327 . S
C3565 H3588 0.950 . S
C3566 C3565 1.349 . S
C3566 C3578 1.349 . S
C3567 C3565 1.327 . S
C3567 C3583 1.429 . S
C3567 H3589 0.950 . S
C3568 H3564 0.949 . S
C3568 C3576 1.574 . S
C3568 C3584 1.368 . S
H3569 C3577 0.950 . S
H3570 C3575 0.950 . S
H3571 C3576 0.949 . S
H3572 C3578 0.950 . S
H3573 C3579 0.950 . S
H3574 C3580 0.949 . S
C3575 H3570 0.950 . S
C3575 C3577 1.327 . S
C3575 C3581 1.429 . S
C3576 C3568 1.574 . S
C3576 H3571 0.949 . S
C3576 C3582 1.368 . S
C3577 C3561 1.349 . S
C3577 H3569 0.950 . S
C3577 C3575 1.327 . S
C3578 C3566 1.349 . S
C3578 H3572 0.950 . S
C3578 C3579 1.327 . S
C3579 H3573 0.950 . S
C3579 C3578 1.327 . S
C3579 C3583 1.429 . S
C3580 C3563 1.574 . S
C3580 H3574 0.949 . S
C3580 C3584 1.368 . S
C3581 C3562 1.429 . S
C3581 C3575 1.429 . S
C3581 C3582 1.523 . S
C3582 C3563 1.368 . S
C3582 C3576 1.368 . S
C3582 C3581 1.523 . S
C3583 C3567 1.429 . S
C3583 C3579 1.429 . S
C3583 C3584 1.523 . S
C3584 C3568 1.368 . S
C3584 C3580 1.368 . S
C3584 C3583 1.523 . S
H3585 C3560 0.950 . S
H3586 C3562 0.950 . S
H3587 C3563 0.949 . S
H3588 C3565 0.950 . S
H3589 C3567 0.950 . S
C3590 C3591 1.349 . S
C3590 C3592 1.327 . S
C3590 H3615 0.950 . S
C3591 C3590 1.349 . S
C3591 C3607 1.342 1_556 S
C3592 C3590 1.327 . S
C3592 C3611 1.429 . S
C3592 H3616 0.950 . S
C3593 C3610 1.574 . S
C3593 C3612 1.368 1_554 S
C3593 H3617 0.949 . S
H3594 C3598 0.949 . S
C3595 C3596 1.349 . S
C3595 C3597 1.327 . S
C3595 H3618 0.950 . S
C3596 C3595 1.349 . S
C3596 C3608 1.342 1_554 S
C3597 C3595 1.327 . S
C3597 C3613 1.429 . S
C3597 H3619 0.950 . S
C3598 H3594 0.949 . S
C3598 C3606 1.574 . S
C3598 C3614 1.368 1_556 S
H3599 C3607 0.955 . S
H3600 C3605 0.950 . S
H3601 C3606 0.949 . S
H3602 C3608 0.955 . S
H3603 C3609 0.950 . S
H3604 C3610 0.949 . S
C3605 H3600 0.950 . S
C3605 C3607 1.329 . S
C3605 C3611 1.429 1_554 S
C3606 C3598 1.574 . S
C3606 H3601 0.949 . S
C3606 C3612 1.368 . S
C3607 C3591 1.342 1_554 S
C3607 H3599 0.955 . S
C3607 C3605 1.329 . S
C3608 C3596 1.342 1_556 S
C3608 H3602 0.955 . S
C3608 C3609 1.329 . S
C3609 H3603 0.950 . S
C3609 C3608 1.329 . S
C3609 C3613 1.429 1_556 S
C3610 C3593 1.574 . S
C3610 H3604 0.949 . S
C3610 C3614 1.368 . S
C3611 C3592 1.429 . S
C3611 C3605 1.429 1_556 S
C3611 C3612 1.523 . S
C3612 C3593 1.368 1_556 S
C3612 C3606 1.368 . S
C3612 C3611 1.523 . S
C3613 C3597 1.429 . S
C3613 C3609 1.429 1_554 S
C3613 C3614 1.523 . S
C3614 C3598 1.368 1_554 S
C3614 C3610 1.368 . S
C3614 C3613 1.523 . S
H3615 C3590 0.950 . S
H3616 C3592 0.950 . S
H3617 C3593 0.949 . S
H3618 C3595 0.950 . S
H3619 C3597 0.950 . S
C3620 C3621 1.349 . S
C3620 C3622 1.327 . S
C3620 H3645 0.950 . S
C3621 C3620 1.349 . S
C3621 C3637 1.349 . S
C3622 C3620 1.327 . S
C3622 C3641 1.429 . S
C3622 H3646 0.950 . S
C3623 C3640 1.574 . S
C3623 C3642 1.368 . S
C3623 H3647 0.949 . S
H3624 C3628 0.949 . S
C3625 C3626 1.349 . S
C3625 C3627 1.327 . S
C3625 H3648 0.950 . S
C3626 C3625 1.349 . S
C3626 C3638 1.349 . S
C3627 C3625 1.327 . S
C3627 C3643 1.429 . S
C3627 H3649 0.950 . S
C3628 H3624 0.949 . S
C3628 C3636 1.574 . S
C3628 C3644 1.368 . S
H3629 C3637 0.950 . S
H3630 C3635 0.950 . S
H3631 C3636 0.949 . S
H3632 C3638 0.950 . S
H3633 C3639 0.950 . S
H3634 C3640 0.949 . S
C3635 H3630 0.950 . S
C3635 C3637 1.327 . S
C3635 C3641 1.429 . S
C3636 C3628 1.574 . S
C3636 H3631 0.949 . S
C3636 C3642 1.368 . S
C3637 C3621 1.349 . S
C3637 H3629 0.950 . S
C3637 C3635 1.327 . S
C3638 C3626 1.349 . S
C3638 H3632 0.950 . S
C3638 C3639 1.327 . S
C3639 H3633 0.950 . S
C3639 C3638 1.327 . S
C3639 C3643 1.429 . S
C3640 C3623 1.574 . S
C3640 H3634 0.949 . S
C3640 C3644 1.368 . S
C3641 C3622 1.429 . S
C3641 C3635 1.429 . S
C3641 C3642 1.523 . S
C3642 C3623 1.368 . S
C3642 C3636 1.368 . S
C3642 C3641 1.523 . S
C3643 C3627 1.429 . S
C3643 C3639 1.429 . S
C3643 C3644 1.523 . S
C3644 C3628 1.368 . S
C3644 C3640 1.368 . S
C3644 C3643 1.523 . S
H3645 C3620 0.950 . S
H3646 C3622 0.950 . S
H3647 C3623 0.949 . S
H3648 C3625 0.950 . S
H3649 C3627 0.950 . S
C3650 C3651 1.349 . S
C3650 C3652 1.327 . S
C3650 H3675 0.950 . S
C3651 C3650 1.349 . S
C3651 C3667 1.349 . S
C3652 C3650 1.327 . S
C3652 C3671 1.429 . S
C3652 H3676 0.950 . S
C3653 C3670 1.574 . S
C3653 C3672 1.368 . S
C3653 H3677 0.949 . S
H3654 C3658 0.949 . S
C3655 C3656 1.349 . S
C3655 C3657 1.327 . S
C3655 H3678 0.950 . S
C3656 C3655 1.349 . S
C3656 C3668 1.349 . S
C3657 C3655 1.327 . S
C3657 C3673 1.429 . S
C3657 H3679 0.950 . S
C3658 H3654 0.949 . S
C3658 C3666 1.574 . S
C3658 C3674 1.368 . S
H3659 C3667 0.950 . S
H3660 C3665 0.950 . S
H3661 C3666 0.949 . S
H3662 C3668 0.950 . S
H3663 C3669 0.950 . S
H3664 C3670 0.949 . S
C3665 H3660 0.950 . S
C3665 C3667 1.327 . S
C3665 C3671 1.429 . S
C3666 C3658 1.574 . S
C3666 H3661 0.949 . S
C3666 C3672 1.368 . S
C3667 C3651 1.349 . S
C3667 H3659 0.950 . S
C3667 C3665 1.327 . S
C3668 C3656 1.349 . S
C3668 H3662 0.950 . S
C3668 C3669 1.327 . S
C3669 H3663 0.950 . S
C3669 C3668 1.327 . S
C3669 C3673 1.429 . S
C3670 C3653 1.574 . S
C3670 H3664 0.949 . S
C3670 C3674 1.368 . S
C3671 C3652 1.429 . S
C3671 C3665 1.429 . S
C3671 C3672 1.523 . S
C3672 C3653 1.368 . S
C3672 C3666 1.368 . S
C3672 C3671 1.523 . S
C3673 C3657 1.429 . S
C3673 C3669 1.429 . S
C3673 C3674 1.523 . S
C3674 C3658 1.368 . S
C3674 C3670 1.368 . S
C3674 C3673 1.523 . S
H3675 C3650 0.950 . S
H3676 C3652 0.950 . S
H3677 C3653 0.949 . S
H3678 C3655 0.950 . S
H3679 C3657 0.950 . S
C3680 C3681 1.349 . S
C3680 C3682 1.327 . S
C3680 H3705 0.950 . S
C3681 C3680 1.349 . S
C3681 C3697 1.349 . S
C3682 C3680 1.327 . S
C3682 C3701 1.429 . S
C3682 H3706 0.950 . S
C3683 C3700 1.574 . S
C3683 C3702 1.368 . S
C3683 H3707 0.949 . S
H3684 C3688 0.949 . S
C3685 C3686 1.349 . S
C3685 C3687 1.327 . S
C3685 H3708 0.950 . S
C3686 C3685 1.349 . S
C3686 C3698 1.349 . S
C3687 C3685 1.327 . S
C3687 C3703 1.429 . S
C3687 H3709 0.950 . S
C3688 H3684 0.949 . S
C3688 C3696 1.574 . S
C3688 C3704 1.368 . S
H3689 C3697 0.950 . S
H3690 C3695 0.950 . S
H3691 C3696 0.949 . S
H3692 C3698 0.950 . S
H3693 C3699 0.950 . S
H3694 C3700 0.949 . S
C3695 H3690 0.950 . S
C3695 C3697 1.327 . S
C3695 C3701 1.429 . S
C3696 C3688 1.574 . S
C3696 H3691 0.949 . S
C3696 C3702 1.368 . S
C3697 C3681 1.349 . S
C3697 H3689 0.950 . S
C3697 C3695 1.327 . S
C3698 C3686 1.349 . S
C3698 H3692 0.950 . S
C3698 C3699 1.327 . S
C3699 H3693 0.950 . S
C3699 C3698 1.327 . S
C3699 C3703 1.429 . S
C3700 C3683 1.574 . S
C3700 H3694 0.949 . S
C3700 C3704 1.368 . S
C3701 C3682 1.429 . S
C3701 C3695 1.429 . S
C3701 C3702 1.523 . S
C3702 C3683 1.368 . S
C3702 C3696 1.368 . S
C3702 C3701 1.523 . S
C3703 C3687 1.429 . S
C3703 C3699 1.429 . S
C3703 C3704 1.523 . S
C3704 C3688 1.368 . S
C3704 C3700 1.368 . S
C3704 C3703 1.523 . S
H3705 C3680 0.950 . S
H3706 C3682 0.950 . S
H3707 C3683 0.949 . S
H3708 C3685 0.950 . S
H3709 C3687 0.950 . S
C3710 C3711 1.349 . S
C3710 C3712 1.327 . S
C3710 H3735 0.950 . S
C3711 C3710 1.349 . S
C3711 C3727 1.349 . S
C3712 C3710 1.327 . S
C3712 C3731 1.429 . S
C3712 H3736 0.950 . S
C3713 C3730 1.574 . S
C3713 C3732 1.368 . S
C3713 H3737 0.949 . S
H3714 C3718 0.949 . S
C3715 C3716 1.349 . S
C3715 C3717 1.327 . S
C3715 H3738 0.950 . S
C3716 C3715 1.349 . S
C3716 C3728 1.349 . S
C3717 C3715 1.327 . S
C3717 C3733 1.429 . S
C3717 H3739 0.950 . S
C3718 H3714 0.949 . S
C3718 C3726 1.574 . S
C3718 C3734 1.368 . S
H3719 C3727 0.950 . S
H3720 C3725 0.950 . S
H3721 C3726 0.949 . S
H3722 C3728 0.950 . S
H3723 C3729 0.950 . S
H3724 C3730 0.949 . S
C3725 H3720 0.950 . S
C3725 C3727 1.327 . S
C3725 C3731 1.429 . S
C3726 C3718 1.574 . S
C3726 H3721 0.949 . S
C3726 C3732 1.368 . S
C3727 C3711 1.349 . S
C3727 H3719 0.950 . S
C3727 C3725 1.327 . S
C3728 C3716 1.349 . S
C3728 H3722 0.950 . S
C3728 C3729 1.327 . S
C3729 H3723 0.950 . S
C3729 C3728 1.327 . S
C3729 C3733 1.429 . S
C3730 C3713 1.574 . S
C3730 H3724 0.949 . S
C3730 C3734 1.368 . S
C3731 C3712 1.429 . S
C3731 C3725 1.429 . S
C3731 C3732 1.523 . S
C3732 C3713 1.368 . S
C3732 C3726 1.368 . S
C3732 C3731 1.523 . S
C3733 C3717 1.429 . S
C3733 C3729 1.429 . S
C3733 C3734 1.523 . S
C3734 C3718 1.368 . S
C3734 C3730 1.368 . S
C3734 C3733 1.523 . S
H3735 C3710 0.950 . S
H3736 C3712 0.950 . S
H3737 C3713 0.949 . S
H3738 C3715 0.950 . S
H3739 C3717 0.950 . S
C3740 C3741 1.349 . S
C3740 C3742 1.327 . S
C3740 H3765 0.950 . S
C3741 C3740 1.349 . S
C3741 C3757 1.349 . S
C3742 C3740 1.327 . S
C3742 C3761 1.429 . S
C3742 H3766 0.950 . S
C3743 C3760 1.574 . S
C3743 C3762 1.368 . S
C3743 H3767 0.949 . S
H3744 C3748 0.949 . S
C3745 C3746 1.349 . S
C3745 C3747 1.327 . S
C3745 H3768 0.950 . S
C3746 C3745 1.349 . S
C3746 C3758 1.349 . S
C3747 C3745 1.327 . S
C3747 C3763 1.429 . S
C3747 H3769 0.950 . S
C3748 H3744 0.949 . S
C3748 C3756 1.574 . S
C3748 C3764 1.368 . S
H3749 C3757 0.950 . S
H3750 C3755 0.950 . S
H3751 C3756 0.949 . S
H3752 C3758 0.950 . S
H3753 C3759 0.950 . S
H3754 C3760 0.949 . S
C3755 H3750 0.950 . S
C3755 C3757 1.327 . S
C3755 C3761 1.429 . S
C3756 C3748 1.574 . S
C3756 H3751 0.949 . S
C3756 C3762 1.368 . S
C3757 C3741 1.349 . S
C3757 H3749 0.950 . S
C3757 C3755 1.327 . S
C3758 C3746 1.349 . S
C3758 H3752 0.950 . S
C3758 C3759 1.327 . S
C3759 H3753 0.950 . S
C3759 C3758 1.327 . S
C3759 C3763 1.429 . S
C3760 C3743 1.574 . S
C3760 H3754 0.949 . S
C3760 C3764 1.368 . S
C3761 C3742 1.429 . S
C3761 C3755 1.429 . S
C3761 C3762 1.523 . S
C3762 C3743 1.368 . S
C3762 C3756 1.368 . S
C3762 C3761 1.523 . S
C3763 C3747 1.429 . S
C3763 C3759 1.429 . S
C3763 C3764 1.523 . S
C3764 C3748 1.368 . S
C3764 C3760 1.368 . S
C3764 C3763 1.523 . S
H3765 C3740 0.950 . S
H3766 C3742 0.950 . S
H3767 C3743 0.949 . S
H3768 C3745 0.950 . S
H3769 C3747 0.950 . S
C3770 C3771 1.349 . S
C3770 C3772 1.327 . S
C3770 H3795 0.950 . S
C3771 C3770 1.349 . S
C3771 C3787 1.349 . S
C3772 C3770 1.327 . S
C3772 C3791 1.429 . S
C3772 H3796 0.950 . S
C3773 C3790 1.574 . S
C3773 C3792 1.368 . S
C3773 H3797 0.949 . S
H3774 C3778 0.949 . S
C3775 C3776 1.349 . S
C3775 C3777 1.327 . S
C3775 H3798 0.950 . S
C3776 C3775 1.349 . S
C3776 C3788 1.349 . S
C3777 C3775 1.327 . S
C3777 C3793 1.429 . S
C3777 H3799 0.950 . S
C3778 H3774 0.949 . S
C3778 C3786 1.574 . S
C3778 C3794 1.368 . S
H3779 C3787 0.950 . S
H3780 C3785 0.950 . S
H3781 C3786 0.949 . S
H3782 C3788 0.950 . S
H3783 C3789 0.950 . S
H3784 C3790 0.949 . S
C3785 H3780 0.950 . S
C3785 C3787 1.327 . S
C3785 C3791 1.429 . S
C3786 C3778 1.574 . S
C3786 H3781 0.949 . S
C3786 C3792 1.368 . S
C3787 C3771 1.349 . S
C3787 H3779 0.950 . S
C3787 C3785 1.327 . S
C3788 C3776 1.349 . S
C3788 H3782 0.950 . S
C3788 C3789 1.327 . S
C3789 H3783 0.950 . S
C3789 C3788 1.327 . S
C3789 C3793 1.429 . S
C3790 C3773 1.574 . S
C3790 H3784 0.949 . S
C3790 C3794 1.368 . S
C3791 C3772 1.429 . S
C3791 C3785 1.429 . S
C3791 C3792 1.523 . S
C3792 C3773 1.368 . S
C3792 C3786 1.368 . S
C3792 C3791 1.523 . S
C3793 C3777 1.429 . S
C3793 C3789 1.429 . S
C3793 C3794 1.523 . S
C3794 C3778 1.368 . S
C3794 C3790 1.368 . S
C3794 C3793 1.523 . S
H3795 C3770 0.950 . S
H3796 C3772 0.950 . S
H3797 C3773 0.949 . S
H3798 C3775 0.950 . S
H3799 C3777 0.950 . S
C3800 C3801 1.349 . S
C3800 C3802 1.327 . S
C3800 H3825 0.950 . S
C3801 C3800 1.349 . S
C3801 C3817 1.349 . S
C3802 C3800 1.327 . S
C3802 C3821 1.429 . S
C3802 H3826 0.950 . S
C3803 C3820 1.574 . S
C3803 C3822 1.368 . S
C3803 H3827 0.949 . S
H3804 C3808 0.949 . S
C3805 C3806 1.349 . S
C3805 C3807 1.327 . S
C3805 H3828 0.950 . S
C3806 C3805 1.349 . S
C3806 C3818 1.349 . S
C3807 C3805 1.327 . S
C3807 C3823 1.429 . S
C3807 H3829 0.950 . S
C3808 H3804 0.949 . S
C3808 C3816 1.574 . S
C3808 C3824 1.368 . S
H3809 C3817 0.950 . S
H3810 C3815 0.950 . S
H3811 C3816 0.949 . S
H3812 C3818 0.950 . S
H3813 C3819 0.950 . S
H3814 C3820 0.949 . S
C3815 H3810 0.950 . S
C3815 C3817 1.327 . S
C3815 C3821 1.429 . S
C3816 C3808 1.574 . S
C3816 H3811 0.949 . S
C3816 C3822 1.368 . S
C3817 C3801 1.349 . S
C3817 H3809 0.950 . S
C3817 C3815 1.327 . S
C3818 C3806 1.349 . S
C3818 H3812 0.950 . S
C3818 C3819 1.327 . S
C3819 H3813 0.950 . S
C3819 C3818 1.327 . S
C3819 C3823 1.429 . S
C3820 C3803 1.574 . S
C3820 H3814 0.949 . S
C3820 C3824 1.368 . S
C3821 C3802 1.429 . S
C3821 C3815 1.429 . S
C3821 C3822 1.523 . S
C3822 C3803 1.368 . S
C3822 C3816 1.368 . S
C3822 C3821 1.523 . S
C3823 C3807 1.429 . S
C3823 C3819 1.429 . S
C3823 C3824 1.523 . S
C3824 C3808 1.368 . S
C3824 C3820 1.368 . S
C3824 C3823 1.523 . S
H3825 C3800 0.950 . S
H3826 C3802 0.950 . S
H3827 C3803 0.949 . S
H3828 C3805 0.950 . S
H3829 C3807 0.950 . S
C3830 C3831 1.349 . S
C3830 C3832 1.327 . S
C3830 H3855 0.950 . S
C3831 C3830 1.349 . S
C3831 C3847 1.349 . S
C3832 C3830 1.327 . S
C3832 C3851 1.429 . S
C3832 H3856 0.950 . S
C3833 C3850 1.574 . S
C3833 C3852 1.368 . S
C3833 H3857 0.949 . S
H3834 C3838 0.949 . S
C3835 C3836 1.349 . S
C3835 C3837 1.327 . S
C3835 H3858 0.950 . S
C3836 C3835 1.349 . S
C3836 C3848 1.349 . S
C3837 C3835 1.327 . S
C3837 C3853 1.429 . S
C3837 H3859 0.950 . S
C3838 H3834 0.949 . S
C3838 C3846 1.574 . S
C3838 C3854 1.368 . S
H3839 C3847 0.950 . S
H3840 C3845 0.950 . S
H3841 C3846 0.949 . S
H3842 C3848 0.950 . S
H3843 C3849 0.950 . S
H3844 C3850 0.949 . S
C3845 H3840 0.950 . S
C3845 C3847 1.327 . S
C3845 C3851 1.429 . S
C3846 C3838 1.574 . S
C3846 H3841 0.949 . S
C3846 C3852 1.368 . S
C3847 C3831 1.349 . S
C3847 H3839 0.950 . S
C3847 C3845 1.327 . S
C3848 C3836 1.349 . S
C3848 H3842 0.950 . S
C3848 C3849 1.327 . S
C3849 H3843 0.950 . S
C3849 C3848 1.327 . S
C3849 C3853 1.429 . S
C3850 C3833 1.574 . S
C3850 H3844 0.949 . S
C3850 C3854 1.368 . S
C3851 C3832 1.429 . S
C3851 C3845 1.429 . S
C3851 C3852 1.523 . S
C3852 C3833 1.368 . S
C3852 C3846 1.368 . S
C3852 C3851 1.523 . S
C3853 C3837 1.429 . S
C3853 C3849 1.429 . S
C3853 C3854 1.523 . S
C3854 C3838 1.368 . S
C3854 C3850 1.368 . S
C3854 C3853 1.523 . S
H3855 C3830 0.950 . S
H3856 C3832 0.950 . S
H3857 C3833 0.949 . S
H3858 C3835 0.950 . S
H3859 C3837 0.950 . S
C3860 C3861 1.349 . S
C3860 C3862 1.327 . S
C3860 H3885 0.950 . S
C3861 C3860 1.349 . S
C3861 C3877 1.349 . S
C3862 C3860 1.327 . S
C3862 C3881 1.429 . S
C3862 H3886 0.950 . S
C3863 C3880 1.574 . S
C3863 C3882 1.368 . S
C3863 H3887 0.949 . S
H3864 C3868 0.949 . S
C3865 C3866 1.349 . S
C3865 C3867 1.327 . S
C3865 H3888 0.950 . S
C3866 C3865 1.349 . S
C3866 C3878 1.349 . S
C3867 C3865 1.327 . S
C3867 C3883 1.429 . S
C3867 H3889 0.950 . S
C3868 H3864 0.949 . S
C3868 C3876 1.574 . S
C3868 C3884 1.368 . S
H3869 C3877 0.950 . S
H3870 C3875 0.950 . S
H3871 C3876 0.949 . S
H3872 C3878 0.950 . S
H3873 C3879 0.950 . S
H3874 C3880 0.949 . S
C3875 H3870 0.950 . S
C3875 C3877 1.327 . S
C3875 C3881 1.429 . S
C3876 C3868 1.574 . S
C3876 H3871 0.949 . S
C3876 C3882 1.368 . S
C3877 C3861 1.349 . S
C3877 H3869 0.950 . S
C3877 C3875 1.327 . S
C3878 C3866 1.349 . S
C3878 H3872 0.950 . S
C3878 C3879 1.327 . S
C3879 H3873 0.950 . S
C3879 C3878 1.327 . S
C3879 C3883 1.429 . S
C3880 C3863 1.574 . S
C3880 H3874 0.949 . S
C3880 C3884 1.368 . S
C3881 C3862 1.429 . S
C3881 C3875 1.429 . S
C3881 C3882 1.523 . S
C3882 C3863 1.368 . S
C3882 C3876 1.368 . S
C3882 C3881 1.523 . S
C3883 C3867 1.429 . S
C3883 C3879 1.429 . S
C3883 C3884 1.523 . S
C3884 C3868 1.368 . S
C3884 C3880 1.368 . S
C3884 C3883 1.523 . S
H3885 C3860 0.950 . S
H3886 C3862 0.950 . S
H3887 C3863 0.949 . S
H3888 C3865 0.950 . S
H3889 C3867 0.950 . S
C3890 C3891 1.349 . S
C3890 C3892 1.327 . S
C3890 H3915 0.950 . S
C3891 C3890 1.349 . S
C3891 C3907 1.349 . S
C3892 C3890 1.327 . S
C3892 C3911 1.429 . S
C3892 H3916 0.950 . S
C3893 C3910 1.574 . S
C3893 C3912 1.368 . S
C3893 H3917 0.949 . S
H3894 C3898 0.949 . S
C3895 C3896 1.349 . S
C3895 C3897 1.327 . S
C3895 H3918 0.950 . S
C3896 C3895 1.349 . S
C3896 C3908 1.349 . S
C3897 C3895 1.327 . S
C3897 C3913 1.429 . S
C3897 H3919 0.950 . S
C3898 H3894 0.949 . S
C3898 C3906 1.574 . S
C3898 C3914 1.368 . S
H3899 C3907 0.950 . S
H3900 C3905 0.950 . S
H3901 C3906 0.949 . S
H3902 C3908 0.950 . S
H3903 C3909 0.950 . S
H3904 C3910 0.949 . S
C3905 H3900 0.950 . S
C3905 C3907 1.327 . S
C3905 C3911 1.429 . S
C3906 C3898 1.574 . S
C3906 H3901 0.949 . S
C3906 C3912 1.368 . S
C3907 C3891 1.349 . S
C3907 H3899 0.950 . S
C3907 C3905 1.327 . S
C3908 C3896 1.349 . S
C3908 H3902 0.950 . S
C3908 C3909 1.327 . S
C3909 H3903 0.950 . S
C3909 C3908 1.327 . S
C3909 C3913 1.429 . S
C3910 C3893 1.574 . S
C3910 H3904 0.949 . S
C3910 C3914 1.368 . S
C3911 C3892 1.429 . S
C3911 C3905 1.429 . S
C3911 C3912 1.523 . S
C3912 C3893 1.368 . S
C3912 C3906 1.368 . S
C3912 C3911 1.523 . S
C3913 C3897 1.429 . S
C3913 C3909 1.429 . S
C3913 C3914 1.523 . S
C3914 C3898 1.368 . S
C3914 C3910 1.368 . S
C3914 C3913 1.523 . S
H3915 C3890 0.950 . S
H3916 C3892 0.950 . S
H3917 C3893 0.949 . S
H3918 C3895 0.950 . S
H3919 C3897 0.950 . S
C3920 C3921 1.349 . S
C3920 C3922 1.327 . S
C3920 H3945 0.950 . S
C3921 C3920 1.349 . S
C3921 C3937 1.349 . S
C3922 C3920 1.327 . S
C3922 C3941 1.429 . S
C3922 H3946 0.950 . S
C3923 C3940 1.574 . S
C3923 C3942 1.368 . S
C3923 H3947 0.949 . S
H3924 C3928 0.949 . S
C3925 C3926 1.349 . S
C3925 C3927 1.327 . S
C3925 H3948 0.950 . S
C3926 C3925 1.349 . S
C3926 C3938 1.349 . S
C3927 C3925 1.327 . S
C3927 C3943 1.429 . S
C3927 H3949 0.950 . S
C3928 H3924 0.949 . S
C3928 C3936 1.574 . S
C3928 C3944 1.368 . S
H3929 C3937 0.950 . S
H3930 C3935 0.950 . S
H3931 C3936 0.949 . S
H3932 C3938 0.950 . S
H3933 C3939 0.950 . S
H3934 C3940 0.949 . S
C3935 H3930 0.950 . S
C3935 C3937 1.327 . S
C3935 C3941 1.429 . S
C3936 C3928 1.574 . S
C3936 H3931 0.949 . S
C3936 C3942 1.368 . S
C3937 C3921 1.349 . S
C3937 H3929 0.950 . S
C3937 C3935 1.327 . S
C3938 C3926 1.349 . S
C3938 H3932 0.950 . S
C3938 C3939 1.327 . S
C3939 H3933 0.950 . S
C3939 C3938 1.327 . S
C3939 C3943 1.429 . S
C3940 C3923 1.574 . S
C3940 H3934 0.949 . S
C3940 C3944 1.368 . S
C3941 C3922 1.429 . S
C3941 C3935 1.429 . S
C3941 C3942 1.523 . S
C3942 C3923 1.368 . S
C3942 C3936 1.368 . S
C3942 C3941 1.523 . S
C3943 C3927 1.429 . S
C3943 C3939 1.429 . S
C3943 C3944 1.523 . S
C3944 C3928 1.368 . S
C3944 C3940 1.368 . S
C3944 C3943 1.523 . S
H3945 C3920 0.950 . S
H3946 C3922 0.950 . S
H3947 C3923 0.949 . S
H3948 C3925 0.950 . S
H3949 C3927 0.950 . S
C3950 C3951 1.349 . S
C3950 C3952 1.327 . S
C3950 H3975 0.950 . S
C3951 C3950 1.349 . S
C3951 C3967 1.349 . S
C3952 C3950 1.327 . S
C3952 C3971 1.429 . S
C3952 H3976 0.950 . S
C3953 C3970 1.574 . S
C3953 C3972 1.368 . S
C3953 H3977 0.949 . S
H3954 C3958 0.949 . S
C3955 C3956 1.349 . S
C3955 C3957 1.327 . S
C3955 H3978 0.950 . S
C3956 C3955 1.349 . S
C3956 C3968 1.349 . S
C3957 C3955 1.327 . S
C3957 C3973 1.429 . S
C3957 H3979 0.950 . S
C3958 H3954 0.949 . S
C3958 C3966 1.574 . S
C3958 C3974 1.368 . S
H3959 C3967 0.950 . S
H3960 C3965 0.950 . S
H3961 C3966 0.949 . S
H3962 C3968 0.950 . S
H3963 C3969 0.950 . S
H3964 C3970 0.949 . S
C3965 H3960 0.950 . S
C3965 C3967 1.327 . S
C3965 C3971 1.429 . S
C3966 C3958 1.574 . S
C3966 H3961 0.949 . S
C3966 C3972 1.368 . S
C3967 C3951 1.349 . S
C3967 H3959 0.950 . S
C3967 C3965 1.327 . S
C3968 C3956 1.349 . S
C3968 H3962 0.950 . S
C3968 C3969 1.327 . S
C3969 H3963 0.950 . S
C3969 C3968 1.327 . S
C3969 C3973 1.429 . S
C3970 C3953 1.574 . S
C3970 H3964 0.949 . S
C3970 C3974 1.368 . S
C3971 C3952 1.429 . S
C3971 C3965 1.429 . S
C3971 C3972 1.523 . S
C3972 C3953 1.368 . S
C3972 C3966 1.368 . S
C3972 C3971 1.523 . S
C3973 C3957 1.429 . S
C3973 C3969 1.429 . S
C3973 C3974 1.523 . S
C3974 C3958 1.368 . S
C3974 C3970 1.368 . S
C3974 C3973 1.523 . S
H3975 C3950 0.950 . S
H3976 C3952 0.950 . S
H3977 C3953 0.949 . S
H3978 C3955 0.950 . S
H3979 C3957 0.950 . S
C3980 C3981 1.349 . S
C3980 C3982 1.327 . S
C3980 H4005 0.950 . S
C3981 C3980 1.349 . S
C3981 C3997 1.349 . S
C3982 C3980 1.327 . S
C3982 C4001 1.429 . S
C3982 H4006 0.950 . S
C3983 C4000 1.574 . S
C3983 C4002 1.368 . S
C3983 H4007 0.949 . S
H3984 C3988 0.949 . S
C3985 C3986 1.349 . S
C3985 C3987 1.327 . S
C3985 H4008 0.950 . S
C3986 C3985 1.349 . S
C3986 C3998 1.349 . S
C3987 C3985 1.327 . S
C3987 C4003 1.429 . S
C3987 H4009 0.950 . S
C3988 H3984 0.949 . S
C3988 C3996 1.574 . S
C3988 C4004 1.368 . S
H3989 C3997 0.950 . S
H3990 C3995 0.950 . S
H3991 C3996 0.949 . S
H3992 C3998 0.950 . S
H3993 C3999 0.950 . S
H3994 C4000 0.949 . S
C3995 H3990 0.950 . S
C3995 C3997 1.327 . S
C3995 C4001 1.429 . S
C3996 C3988 1.574 . S
C3996 H3991 0.949 . S
C3996 C4002 1.368 . S
C3997 C3981 1.349 . S
C3997 H3989 0.950 . S
C3997 C3995 1.327 . S
C3998 C3986 1.349 . S
C3998 H3992 0.950 . S
C3998 C3999 1.327 . S
C3999 H3993 0.950 . S
C3999 C3998 1.327 . S
C3999 C4003 1.429 . S
C4000 C3983 1.574 . S
C4000 H3994 0.949 . S
C4000 C4004 1.368 . S
C4001 C3982 1.429 . S
C4001 C3995 1.429 . S
C4001 C4002 1.523 . S
C4002 C3983 1.368 . S
C4002 C3996 1.368 . S
C4002 C4001 1.523 . S
C4003 C3987 1.429 . S
C4003 C3999 1.429 . S
C4003 C4004 1.523 . S
C4004 C3988 1.368 . S
C4004 C4000 1.368 . S
C4004 C4003 1.523 . S
H4005 C3980 0.950 . S
H4006 C3982 0.950 . S
H4007 C3983 0.949 . S
H4008 C3985 0.950 . S
H4009 C3987 0.950 . S
C4010 C4011 1.349 . S
C4010 C4012 1.327 . S
C4010 H4035 0.950 . S
C4011 C4010 1.349 . S
C4011 C4027 1.349 . S
C4012 C4010 1.327 . S
C4012 C4031 1.429 . S
C4012 H4036 0.950 . S
C4013 C4030 1.574 . S
C4013 C4032 1.368 . S
C4013 H4037 0.949 . S
H4014 C4018 0.949 . S
C4015 C4016 1.349 . S
C4015 C4017 1.327 . S
C4015 H4038 0.950 . S
C4016 C4015 1.349 . S
C4016 C4028 1.349 . S
C4017 C4015 1.327 . S
C4017 C4033 1.429 . S
C4017 H4039 0.950 . S
C4018 H4014 0.949 . S
C4018 C4026 1.574 . S
C4018 C4034 1.368 . S
H4019 C4027 0.950 . S
H4020 C4025 0.950 . S
H4021 C4026 0.949 . S
H4022 C4028 0.950 . S
H4023 C4029 0.950 . S
H4024 C4030 0.949 . S
C4025 H4020 0.950 . S
C4025 C4027 1.327 . S
C4025 C4031 1.429 . S
C4026 C4018 1.574 . S
C4026 H4021 0.949 . S
C4026 C4032 1.368 . S
C4027 C4011 1.349 . S
C4027 H4019 0.950 . S
C4027 C4025 1.327 . S
C4028 C4016 1.349 . S
C4028 H4022 0.950 . S
C4028 C4029 1.327 . S
C4029 H4023 0.950 . S
C4029 C4028 1.327 . S
C4029 C4033 1.429 . S
C4030 C4013 1.574 . S
C4030 H4024 0.949 . S
C4030 C4034 1.368 . S
C4031 C4012 1.429 . S
C4031 C4025 1.429 . S
C4031 C4032 1.523 . S
C4032 C4013 1.368 . S
C4032 C4026 1.368 . S
C4032 C4031 1.523 . S
C4033 C4017 1.429 . S
C4033 C4029 1.429 . S
C4033 C4034 1.523 . S
C4034 C4018 1.368 . S
C4034 C4030 1.368 . S
C4034 C4033 1.523 . S
H4035 C4010 0.950 . S
H4036 C4012 0.950 . S
H4037 C4013 0.949 . S
H4038 C4015 0.950 . S
H4039 C4017 0.950 . S
C4040 C4041 1.349 . S
C4040 C4042 1.327 . S
C4040 H4065 0.950 . S
C4041 C4040 1.349 . S
C4041 C4057 1.349 . S
C4042 C4040 1.327 . S
C4042 C4061 1.429 . S
C4042 H4066 0.950 . S
C4043 C4060 1.574 . S
C4043 C4062 1.368 . S
C4043 H4067 0.949 . S
H4044 C4048 0.949 . S
C4045 C4046 1.349 . S
C4045 C4047 1.327 . S
C4045 H4068 0.950 . S
C4046 C4045 1.349 . S
C4046 C4058 1.349 . S
C4047 C4045 1.327 . S
C4047 C4063 1.429 . S
C4047 H4069 0.950 . S
C4048 H4044 0.949 . S
C4048 C4056 1.574 . S
C4048 C4064 1.368 . S
H4049 C4057 0.950 . S
H4050 C4055 0.950 . S
H4051 C4056 0.949 . S
H4052 C4058 0.950 . S
H4053 C4059 0.950 . S
H4054 C4060 0.949 . S
C4055 H4050 0.950 . S
C4055 C4057 1.327 . S
C4055 C4061 1.429 . S
C4056 C4048 1.574 . S
C4056 H4051 0.949 . S
C4056 C4062 1.368 . S
C4057 C4041 1.349 . S
C4057 H4049 0.950 . S
C4057 C4055 1.327 . S
C4058 C4046 1.349 . S
C4058 H4052 0.950 . S
C4058 C4059 1.327 . S
C4059 H4053 0.950 . S
C4059 C4058 1.327 . S
C4059 C4063 1.429 . S
C4060 C4043 1.574 . S
C4060 H4054 0.949 . S
C4060 C4064 1.368 . S
C4061 C4042 1.429 . S
C4061 C4055 1.429 . S
C4061 C4062 1.523 . S
C4062 C4043 1.368 . S
C4062 C4056 1.368 . S
C4062 C4061 1.523 . S
C4063 C4047 1.429 . S
C4063 C4059 1.429 . S
C4063 C4064 1.523 . S
C4064 C4048 1.368 . S
C4064 C4060 1.368 . S
C4064 C4063 1.523 . S
H4065 C4040 0.950 . S
H4066 C4042 0.950 . S
H4067 C4043 0.949 . S
H4068 C4045 0.950 . S
H4069 C4047 0.950 . S
C4070 C4071 1.349 . S
C4070 C4072 1.327 . S
C4070 H4095 0.950 . S
C4071 C4070 1.349 . S
C4071 C4087 1.349 . S
C4072 C4070 1.327 . S
C4072 C4091 1.429 . S
C4072 H4096 0.950 . S
C4073 C4090 1.574 . S
C4073 C4092 1.368 . S
C4073 H4097 0.949 . S
H4074 C4078 0.949 . S
C4075 C4076 1.349 . S
C4075 C4077 1.327 . S
C4075 H4098 0.950 . S
C4076 C4075 1.349 . S
C4076 C4088 1.349 . S
C4077 C4075 1.327 . S
C4077 C4093 1.429 . S
C4077 H4099 0.950 . S
C4078 H4074 0.949 . S
C4078 C4086 1.574 . S
C4078 C4094 1.368 . S
H4079 C4087 0.950 . S
H4080 C4085 0.950 . S
H4081 C4086 0.949 . S
H4082 C4088 0.950 . S
H4083 C4089 0.950 . S
H4084 C4090 0.949 . S
C4085 H4080 0.950 . S
C4085 C4087 1.327 . S
C4085 C4091 1.429 . S
C4086 C4078 1.574 . S
C4086 H4081 0.949 . S
C4086 C4092 1.368 . S
C4087 C4071 1.349 . S
C4087 H4079 0.950 . S
C4087 C4085 1.327 . S
C4088 C4076 1.349 . S
C4088 H4082 0.950 . S
C4088 C4089 1.327 . S
C4089 H4083 0.950 . S
C4089 C4088 1.327 . S
C4089 C4093 1.429 . S
C4090 C4073 1.574 . S
C4090 H4084 0.949 . S
C4090 C4094 1.368 . S
C4091 C4072 1.429 . S
C4091 C4085 1.429 . S
C4091 C4092 1.523 . S
C4092 C4073 1.368 . S
C4092 C4086 1.368 . S
C4092 C4091 1.523 . S
C4093 C4077 1.429 . S
C4093 C4089 1.429 . S
C4093 C4094 1.523 . S
C4094 C4078 1.368 . S
C4094 C4090 1.368 . S
C4094 C4093 1.523 . S
H4095 C4070 0.950 . S
H4096 C4072 0.950 . S
H4097 C4073 0.949 . S
H4098 C4075 0.950 . S
H4099 C4077 0.950 . S
C4100 C4101 1.349 . S
C4100 C4102 1.327 . S
C4100 H4125 0.950 . S
C4101 C4100 1.349 . S
C4101 C4117 1.349 . S
C4102 C4100 1.327 . S
C4102 C4121 1.429 . S
C4102 H4126 0.950 . S
C4103 C4120 1.574 . S
C4103 C4122 1.368 . S
C4103 H4127 0.949 . S
H4104 C4108 0.949 . S
C4105 C4106 1.349 . S
C4105 C4107 1.327 . S
C4105 H4128 0.950 . S
C4106 C4105 1.349 . S
C4106 C4118 1.349 . S
C4107 C4105 1.327 . S
C4107 C4123 1.429 . S
C4107 H4129 0.950 . S
C4108 H4104 0.949 . S
C4108 C4116 1.574 . S
C4108 C4124 1.368 . S
H4109 C4117 0.950 . S
H4110 C4115 0.950 . S
H4111 C4116 0.949 . S
H4112 C4118 0.950 . S
H4113 C4119 0.950 . S
H4114 C4120 0.949 . S
C4115 H4110 0.950 . S
C4115 C4117 1.327 . S
C4115 C4121 1.429 . S
C4116 C4108 1.574 . S
C4116 H4111 0.949 . S
C4116 C4122 1.368 . S
C4117 C4101 1.349 . S
C4117 H4109 0.950 . S
C4117 C4115 1.327 . S
C4118 C4106 1.349 . S
C4118 H4112 0.950 . S
C4118 C4119 1.327 . S
C4119 H4113 0.950 . S
C4119 C4118 1.327 . S
C4119 C4123 1.429 . S
C4120 C4103 1.574 . S
C4120 H4114 0.949 . S
C4120 C4124 1.368 . S
C4121 C4102 1.429 . S
C4121 C4115 1.429 . S
C4121 C4122 1.523 . S
C4122 C4103 1.368 . S
C4122 C4116 1.368 . S
C4122 C4121 1.523 . S
C4123 C4107 1.429 . S
C4123 C4119 1.429 . S
C4123 C4124 1.523 . S
C4124 C4108 1.368 . S
C4124 C4120 1.368 . S
C4124 C4123 1.523 . S
H4125 C4100 0.950 . S
H4126 C4102 0.950 . S
H4127 C4103 0.949 . S
H4128 C4105 0.950 . S
H4129 C4107 0.950 . S
C4130 C4131 1.349 . S
C4130 C4132 1.327 . S
C4130 H4155 0.950 . S
C4131 C4130 1.349 . S
C4131 C4147 1.349 . S
C4132 C4130 1.327 . S
C4132 C4151 1.429 . S
C4132 H4156 0.950 . S
C4133 C4150 1.574 . S
C4133 C4152 1.368 . S
C4133 H4157 0.949 . S
H4134 C4138 0.949 . S
C4135 C4136 1.349 . S
C4135 C4137 1.327 . S
C4135 H4158 0.950 . S
C4136 C4135 1.349 . S
C4136 C4148 1.349 . S
C4137 C4135 1.327 . S
C4137 C4153 1.429 . S
C4137 H4159 0.950 . S
C4138 H4134 0.949 . S
C4138 C4146 1.574 . S
C4138 C4154 1.368 . S
H4139 C4147 0.950 . S
H4140 C4145 0.950 . S
H4141 C4146 0.949 . S
H4142 C4148 0.950 . S
H4143 C4149 0.950 . S
H4144 C4150 0.949 . S
C4145 H4140 0.950 . S
C4145 C4147 1.327 . S
C4145 C4151 1.429 . S
C4146 C4138 1.574 . S
C4146 H4141 0.949 . S
C4146 C4152 1.368 . S
C4147 C4131 1.349 . S
C4147 H4139 0.950 . S
C4147 C4145 1.327 . S
C4148 C4136 1.349 . S
C4148 H4142 0.950 . S
C4148 C4149 1.327 . S
C4149 H4143 0.950 . S
C4149 C4148 1.327 . S
C4149 C4153 1.429 . S
C4150 C4133 1.574 . S
C4150 H4144 0.949 . S
C4150 C4154 1.368 . S
C4151 C4132 1.429 . S
C4151 C4145 1.429 . S
C4151 C4152 1.523 . S
C4152 C4133 1.368 . S
C4152 C4146 1.368 . S
C4152 C4151 1.523 . S
C4153 C4137 1.429 . S
C4153 C4149 1.429 . S
C4153 C4154 1.523 . S
C4154 C4138 1.368 . S
C4154 C4150 1.368 . S
C4154 C4153 1.523 . S
H4155 C4130 0.950 . S
H4156 C4132 0.950 . S
H4157 C4133 0.949 . S
H4158 C4135 0.950 . S
H4159 C4137 0.950 . S
C1281 C26 0.967 . S
C1286 C144 0.958 . S
C1311 C24 0.958 . S
C1316 C66 0.967 . S
C1341 C106 0.967 . S
C1346 C64 0.958 . S
C1371 C104 0.958 . S
C1376 C146 0.967 . S
C1401 C224 0.958 . S
C1406 C186 0.967 . S
C1431 C226 0.967 . S
C1436 C264 0.958 . S
C1461 C304 0.958 . S
C1466 C266 0.967 . S
C1491 C184 0.958 . S
C1496 C306 0.967 . S
C1521 C337 0.967 . S
C1526 C453 0.958 . S
C1551 C377 0.967 . S
C1556 C333 0.958 . S
C1581 C417 0.967 . S
C1586 C373 0.958 . S
C1611 C457 0.967 . S
C1616 C413 0.958 . S
C1641 C497 0.967 . S
C1646 C533 0.958 . S
C1671 C537 0.967 . S
C1676 C573 0.958 . S
C1701 C613 0.958 . S
C1706 C577 0.967 . S
C1731 C493 0.958 . S
C1736 C617 0.967 . S
C1761 C666 0.967 . S
C1766 C784 0.958 . S
C1791 C664 0.958 . S
C1796 C706 0.967 . S
C1821 C704 0.958 . S
C1826 C746 0.967 . S
C1851 C786 0.967 . S
C1856 C744 0.958 . S
C1881 C826 0.967 . S
C1886 C864 0.958 . S
C1911 C904 0.958 . S
C1916 C866 0.967 . S
C1941 C906 0.967 . S
C1946 C944 0.958 . S
C1971 C824 0.958 . S
C1976 C946 0.967 . S
C2001 C1093 0.958 . S
C2006 C977 0.967 . S
C2031 C973 0.958 . S
C2036 C1017 0.967 . S
C2061 C1057 0.967 . S
C2066 C1013 0.958 . S
C2091 C1053 0.958 . S
C2096 C1097 0.967 . S
C2121 C1173 0.958 . S
C2126 C1137 0.967 . S
C2151 C1213 0.958 . S
C2156 C1177 0.967 . S
C2181 C1253 0.958 . S
C2186 C1217 0.967 . S
C2211 C1257 0.967 . S
C2216 C1133 0.958 . S
C2241 C1106 1.459 . S
C2246 C2 1.434 . S
C2271 C42 1.434 . S
C2276 C346 1.459 . S
C2301 C82 1.434 . S
C2306 C1026 1.459 . S
C2331 C122 1.434 . S
C2336 C426 1.459 . S
C2361 C162 1.434 . S
C2366 C1186 1.459 . S
C2391 C586 1.459 . S
C2396 C202 1.434 . S
C2421 C1266 1.459 . S
C2426 C242 1.434 . S
C2451 C282 1.434 . S
C2456 C506 1.459 . S
C2481 C343 1.434 . S
C2486 C777 1.459 . S
C2511 C17 1.459 . S
C2516 C383 1.434 . S
C2541 C697 1.459 . S
C2546 C423 1.434 . S
C2571 C97 1.459 . S
C2576 C463 1.434 . S
C2601 C857 1.459 . S
C2606 C503 1.434 . S
C2631 C257 1.459 . S
C2636 C543 1.434 . S
C2661 C583 1.434 . S
C2666 C937 1.459 . S
C2691 C623 1.434 . S
C2696 C177 1.459 . S
C2721 C642 1.434 . S
C2726 C466 1.459 . S
C2751 C682 1.434 . S
C2756 C986 1.459 . S
C2781 C722 1.434 . S
C2786 C386 1.459 . S
C2811 C762 1.434 . S
C2816 C1066 1.459 . S
C2841 C802 1.434 . S
C2846 C546 1.459 . S
C2871 C842 1.434 . S
C2876 C1226 1.459 . S
C2901 C626 1.459 . S
C2906 C882 1.434 . S
C2931 C922 1.434 . S
C2936 C1146 1.459 . S
C2961 C137 1.459 . S
C2966 C983 1.434 . S
C2991 C657 1.459 . S
C2996 C1023 1.434 . S
C3021 C57 1.459 . S
C3026 C1063 1.434 . S
C3051 C737 1.459 . S
C3056 C1103 1.434 . S
C3081 C217 1.459 . S
C3086 C1143 1.434 . S
C3111 C1183 1.434 . S
C3116 C897 1.459 . S
C3141 C1223 1.434 . S
C3146 C297 1.459 . S
C3171 C817 1.459 . S
C3176 C1263 1.434 . S
C3201 C23 0.416 . S
C3206 C183 0.416 . S
C3231 C63 0.416 . S
C3236 C223 0.416 . S
C3261 C103 0.416 . S
C3266 C263 0.416 . S
C3291 C303 0.416 . S
C3296 C143 0.416 . S
C3321 C482 0.416 . S
C3326 C322 0.416 . S
C3351 C522 0.416 . S
C3356 C362 0.416 . S
C3381 C402 0.416 . S
C3386 C562 0.416 . S
C3411 C442 0.416 . S
C3416 C602 0.416 . S
C3441 C663 0.416 . S
C3446 C823 0.416 . S
C3471 C863 0.416 . S
C3476 C703 0.416 . S
C3501 C903 0.416 . S
C3506 C743 0.416 . S
C3531 C943 0.416 . S
C3536 C783 0.416 . S
C3561 C1122 0.416 . S
C3566 C962 0.416 . S
C3591 C1002 0.416 . S
C3596 C1162 0.416 . S
C3621 C1202 0.416 . S
C3626 C1042 0.416 . S
C3651 C1082 0.416 . S
C3656 C1242 0.416 . S
C3681 C293 2.729 . S
C3686 C13 2.729 . S
C3711 C53 2.729 . S
C3716 C173 2.729 . S
C3741 C93 2.729 . S
C3746 C213 2.729 . S
C3771 C253 2.729 . S
C3776 C133 2.729 . S
C3801 C344 2.729 . S
C3806 C624 2.729 . S
C3831 C504 2.729 . S
C3836 C384 2.729 . S
C3861 C544 2.729 . S
C3866 C424 2.729 . S
C3891 C464 2.729 . S
C3896 C584 2.729 . S
C3921 C653 2.729 . S
C3926 C933 2.729 . S
C3951 C813 2.729 . S
C3956 C693 2.729 . S
C3981 C853 2.729 . S
C3986 C733 2.729 . S
C4011 C893 2.729 . S
C4016 C773 2.729 . S
C4041 C984 2.729 . S
C4046 C1264 2.729 . S
C4071 C1144 2.729 . S
C4076 C1024 2.729 . S
C4101 C1064 2.729 . S
C4106 C1184 2.729 . S
C4131 C1224 2.729 . S
C4136 C1104 2.729 . S
