# Generated by pormake.
# Topology wgl, (5)-cn, num edge types: 1
# Building blocks:
#     Node 0, Type 0, BuildingBlock: XOMCOT_clean_sbu_0, # of connection points: 5
#     Node 1, Type 0, BuildingBlock: XOMCOT_clean_sbu_0, # of connection points: 5
#     Node 2, Type 0, BuildingBlock: XOMCOT_clean_sbu_0, # of connection points: 5
#     Node 3, Type 0, BuildingBlock: XOMCOT_clean_sbu_0, # of connection points: 5
#     Node 4, Type 0, BuildingBlock: XOMCOT_clean_sbu_0, # of connection points: 5
#     Node 5, Type 0, BuildingBlock: XOMCOT_clean_sbu_0, # of connection points: 5
#     Node 6, Type 0, BuildingBlock: XOMCOT_clean_sbu_0, # of connection points: 5
#     Node 7, Type 0, BuildingBlock: XOMCOT_clean_sbu_0, # of connection points: 5
#     Node 8, Type 0, BuildingBlock: XOMCOT_clean_sbu_0, # of connection points: 5
#     Node 9, Type 0, BuildingBlock: XOMCOT_clean_sbu_0, # of connection points: 5
#     Node 10, Type 0, BuildingBlock: XOMCOT_clean_sbu_0, # of connection points: 5
#     Node 11, Type 0, BuildingBlock: XOMCOT_clean_sbu_0, # of connection points: 5
#     Node 12, Type 0, BuildingBlock: XOMCOT_clean_sbu_0, # of connection points: 5
#     Node 13, Type 0, BuildingBlock: XOMCOT_clean_sbu_0, # of connection points: 5
#     Node 14, Type 0, BuildingBlock: XOMCOT_clean_sbu_0, # of connection points: 5
#     Node 15, Type 0, BuildingBlock: XOMCOT_clean_sbu_0, # of connection points: 5
#     Node 16, Type 0, BuildingBlock: XOMCOT_clean_sbu_0, # of connection points: 5
#     Node 17, Type 0, BuildingBlock: XOMCOT_clean_sbu_0, # of connection points: 5
#     Node 18, Type 0, BuildingBlock: XOMCOT_clean_sbu_0, # of connection points: 5
#     Node 19, Type 0, BuildingBlock: XOMCOT_clean_sbu_0, # of connection points: 5
#     Node 20, Type 0, BuildingBlock: XOMCOT_clean_sbu_0, # of connection points: 5
#     Node 21, Type 0, BuildingBlock: XOMCOT_clean_sbu_0, # of connection points: 5
#     Node 22, Type 0, BuildingBlock: XOMCOT_clean_sbu_0, # of connection points: 5
#     Node 23, Type 0, BuildingBlock: XOMCOT_clean_sbu_0, # of connection points: 5
#     Node 24, Type 0, BuildingBlock: XOMCOT_clean_sbu_0, # of connection points: 5
#     Node 25, Type 0, BuildingBlock: XOMCOT_clean_sbu_0, # of connection points: 5
#     Node 26, Type 0, BuildingBlock: XOMCOT_clean_sbu_0, # of connection points: 5
#     Node 27, Type 0, BuildingBlock: XOMCOT_clean_sbu_0, # of connection points: 5
#     Node 28, Type 0, BuildingBlock: XOMCOT_clean_sbu_0, # of connection points: 5
#     Node 29, Type 0, BuildingBlock: XOMCOT_clean_sbu_0, # of connection points: 5
#     Node 30, Type 0, BuildingBlock: XOMCOT_clean_sbu_0, # of connection points: 5
#     Node 31, Type 0, BuildingBlock: XOMCOT_clean_sbu_0, # of connection points: 5
#     Edge 32, Type (0, 0), BuildingBlock: XIVTED_clean_linker_0, # of connection points: 2
#     Edge 33, Type (0, 0), BuildingBlock: XIVTED_clean_linker_0, # of connection points: 2
#     Edge 34, Type (0, 0), BuildingBlock: XIVTED_clean_linker_0, # of connection points: 2
#     Edge 35, Type (0, 0), BuildingBlock: XIVTED_clean_linker_0, # of connection points: 2
#     Edge 36, Type (0, 0), BuildingBlock: XIVTED_clean_linker_0, # of connection points: 2
#     Edge 37, Type (0, 0), BuildingBlock: XIVTED_clean_linker_0, # of connection points: 2
#     Edge 38, Type (0, 0), BuildingBlock: XIVTED_clean_linker_0, # of connection points: 2
#     Edge 39, Type (0, 0), BuildingBlock: XIVTED_clean_linker_0, # of connection points: 2
#     Edge 40, Type (0, 0), BuildingBlock: XIVTED_clean_linker_0, # of connection points: 2
#     Edge 41, Type (0, 0), BuildingBlock: XIVTED_clean_linker_0, # of connection points: 2
#     Edge 42, Type (0, 0), BuildingBlock: XIVTED_clean_linker_0, # of connection points: 2
#     Edge 43, Type (0, 0), BuildingBlock: XIVTED_clean_linker_0, # of connection points: 2
#     Edge 44, Type (0, 0), BuildingBlock: XIVTED_clean_linker_0, # of connection points: 2
#     Edge 45, Type (0, 0), BuildingBlock: XIVTED_clean_linker_0, # of connection points: 2
#     Edge 46, Type (0, 0), BuildingBlock: XIVTED_clean_linker_0, # of connection points: 2
#     Edge 47, Type (0, 0), BuildingBlock: XIVTED_clean_linker_0, # of connection points: 2
#     Edge 48, Type (0, 0), BuildingBlock: XIVTED_clean_linker_0, # of connection points: 2
#     Edge 49, Type (0, 0), BuildingBlock: XIVTED_clean_linker_0, # of connection points: 2
#     Edge 50, Type (0, 0), BuildingBlock: XIVTED_clean_linker_0, # of connection points: 2
#     Edge 51, Type (0, 0), BuildingBlock: XIVTED_clean_linker_0, # of connection points: 2
#     Edge 52, Type (0, 0), BuildingBlock: XIVTED_clean_linker_0, # of connection points: 2
#     Edge 53, Type (0, 0), BuildingBlock: XIVTED_clean_linker_0, # of connection points: 2
#     Edge 54, Type (0, 0), BuildingBlock: XIVTED_clean_linker_0, # of connection points: 2
#     Edge 55, Type (0, 0), BuildingBlock: XIVTED_clean_linker_0, # of connection points: 2
#     Edge 56, Type (0, 0), BuildingBlock: XIVTED_clean_linker_0, # of connection points: 2
#     Edge 57, Type (0, 0), BuildingBlock: XIVTED_clean_linker_0, # of connection points: 2
#     Edge 58, Type (0, 0), BuildingBlock: XIVTED_clean_linker_0, # of connection points: 2
#     Edge 59, Type (0, 0), BuildingBlock: XIVTED_clean_linker_0, # of connection points: 2
#     Edge 60, Type (0, 0), BuildingBlock: XIVTED_clean_linker_0, # of connection points: 2
#     Edge 61, Type (0, 0), BuildingBlock: XIVTED_clean_linker_0, # of connection points: 2
#     Edge 62, Type (0, 0), BuildingBlock: XIVTED_clean_linker_0, # of connection points: 2
#     Edge 63, Type (0, 0), BuildingBlock: XIVTED_clean_linker_0, # of connection points: 2
#     Edge 64, Type (0, 0), BuildingBlock: XIVTED_clean_linker_0, # of connection points: 2
#     Edge 65, Type (0, 0), BuildingBlock: XIVTED_clean_linker_0, # of connection points: 2
#     Edge 66, Type (0, 0), BuildingBlock: XIVTED_clean_linker_0, # of connection points: 2
#     Edge 67, Type (0, 0), BuildingBlock: XIVTED_clean_linker_0, # of connection points: 2
#     Edge 68, Type (0, 0), BuildingBlock: XIVTED_clean_linker_0, # of connection points: 2
#     Edge 69, Type (0, 0), BuildingBlock: XIVTED_clean_linker_0, # of connection points: 2
#     Edge 70, Type (0, 0), BuildingBlock: XIVTED_clean_linker_0, # of connection points: 2
#     Edge 71, Type (0, 0), BuildingBlock: XIVTED_clean_linker_0, # of connection points: 2
#     Edge 72, Type (0, 0), BuildingBlock: XIVTED_clean_linker_0, # of connection points: 2
#     Edge 73, Type (0, 0), BuildingBlock: XIVTED_clean_linker_0, # of connection points: 2
#     Edge 74, Type (0, 0), BuildingBlock: XIVTED_clean_linker_0, # of connection points: 2
#     Edge 75, Type (0, 0), BuildingBlock: XIVTED_clean_linker_0, # of connection points: 2
#     Edge 76, Type (0, 0), BuildingBlock: XIVTED_clean_linker_0, # of connection points: 2
#     Edge 77, Type (0, 0), BuildingBlock: XIVTED_clean_linker_0, # of connection points: 2
#     Edge 78, Type (0, 0), BuildingBlock: XIVTED_clean_linker_0, # of connection points: 2
#     Edge 79, Type (0, 0), BuildingBlock: XIVTED_clean_linker_0, # of connection points: 2
#     Edge 80, Type (0, 0), BuildingBlock: XIVTED_clean_linker_0, # of connection points: 2
#     Edge 81, Type (0, 0), BuildingBlock: XIVTED_clean_linker_0, # of connection points: 2
#     Edge 82, Type (0, 0), BuildingBlock: XIVTED_clean_linker_0, # of connection points: 2
#     Edge 83, Type (0, 0), BuildingBlock: XIVTED_clean_linker_0, # of connection points: 2
#     Edge 84, Type (0, 0), BuildingBlock: XIVTED_clean_linker_0, # of connection points: 2
#     Edge 85, Type (0, 0), BuildingBlock: XIVTED_clean_linker_0, # of connection points: 2
#     Edge 86, Type (0, 0), BuildingBlock: XIVTED_clean_linker_0, # of connection points: 2
#     Edge 87, Type (0, 0), BuildingBlock: XIVTED_clean_linker_0, # of connection points: 2
#     Edge 88, Type (0, 0), BuildingBlock: XIVTED_clean_linker_0, # of connection points: 2
#     Edge 89, Type (0, 0), BuildingBlock: XIVTED_clean_linker_0, # of connection points: 2
#     Edge 90, Type (0, 0), BuildingBlock: XIVTED_clean_linker_0, # of connection points: 2
#     Edge 91, Type (0, 0), BuildingBlock: XIVTED_clean_linker_0, # of connection points: 2
#     Edge 92, Type (0, 0), BuildingBlock: XIVTED_clean_linker_0, # of connection points: 2
#     Edge 93, Type (0, 0), BuildingBlock: XIVTED_clean_linker_0, # of connection points: 2
#     Edge 94, Type (0, 0), BuildingBlock: XIVTED_clean_linker_0, # of connection points: 2
#     Edge 95, Type (0, 0), BuildingBlock: XIVTED_clean_linker_0, # of connection points: 2
#     Edge 96, Type (0, 0), BuildingBlock: XIVTED_clean_linker_0, # of connection points: 2
#     Edge 97, Type (0, 0), BuildingBlock: XIVTED_clean_linker_0, # of connection points: 2
#     Edge 98, Type (0, 0), BuildingBlock: XIVTED_clean_linker_0, # of connection points: 2
#     Edge 99, Type (0, 0), BuildingBlock: XIVTED_clean_linker_0, # of connection points: 2
#     Edge 100, Type (0, 0), BuildingBlock: XIVTED_clean_linker_0, # of connection points: 2
#     Edge 101, Type (0, 0), BuildingBlock: XIVTED_clean_linker_0, # of connection points: 2
#     Edge 102, Type (0, 0), BuildingBlock: XIVTED_clean_linker_0, # of connection points: 2
#     Edge 103, Type (0, 0), BuildingBlock: XIVTED_clean_linker_0, # of connection points: 2
#     Edge 104, Type (0, 0), BuildingBlock: XIVTED_clean_linker_0, # of connection points: 2
#     Edge 105, Type (0, 0), BuildingBlock: XIVTED_clean_linker_0, # of connection points: 2
#     Edge 106, Type (0, 0), BuildingBlock: XIVTED_clean_linker_0, # of connection points: 2
#     Edge 107, Type (0, 0), BuildingBlock: XIVTED_clean_linker_0, # of connection points: 2
#     Edge 108, Type (0, 0), BuildingBlock: XIVTED_clean_linker_0, # of connection points: 2
#     Edge 109, Type (0, 0), BuildingBlock: XIVTED_clean_linker_0, # of connection points: 2
#     Edge 110, Type (0, 0), BuildingBlock: XIVTED_clean_linker_0, # of connection points: 2
#     Edge 111, Type (0, 0), BuildingBlock: XIVTED_clean_linker_0, # of connection points: 2
# Relax obj value: 0.050
# Max RMSD: 0.097
# Mean RMSD: 0.097
data_MOF--net-wgl--node1-XOMCOT_clean_sbu_0--edge1-XIVTED_clean_linker_0
_symmetry_space_group_name_H-M    P1
_symmetry_Int_Tables_number       1
_symmetry_cell_setting            triclinic
loop_
_symmetry_equiv_pos_as_xyz
'x, y, z'
_cell_length_a     57.994649
_cell_length_b     57.987438
_cell_length_c     52.396576
_cell_angle_alpha  89.982824
_cell_angle_beta   90.102444
_cell_angle_gamma 89.909701
loop_
_atom_site_label
_atom_site_type_symbol
_atom_site_fract_x
_atom_site_fract_y
_atom_site_fract_z
_atom_type_partial_charge
Co0 Co 0.29635 0.3311 0.1407 0.0
C1 C 0.3279 0.29023 0.13739 0.0
C2 C 0.30155 0.29037 0.10849 0.0
C3 C 0.31499 0.27115 0.10513 0.0
N4 N 0.30979 0.30257 0.12838 0.0
N5 N 0.33146 0.27102 0.12326 0.0
H6 H 0.33825 0.2952 0.15369 0.0
H7 H 0.28649 0.29486 0.09738 0.0
C8 C 0.28759 0.35579 0.09141 0.0
O9 O 0.29769 0.37405 0.10119 0.0
N10 N 0.28125 0.35944 0.15278 0.0
C11 C 0.28397 0.37056 0.17524 0.0
C12 C 0.26859 0.38874 0.17646 0.0
C13 C 0.26319 0.37037 0.14153 0.0
N14 N 0.25567 0.38874 0.15506 0.0
C15 C 0.33651 0.3576 0.15369 0.0
C16 C 0.35926 0.35212 0.10776 0.0
C17 C 0.37055 0.36354 0.12777 0.0
C18 C 0.35872 0.36641 0.15086 0.0
C19 C 0.33695 0.34352 0.11142 0.0
N20 N 0.32558 0.3467 0.13404 0.0
H21 H 0.32867 0.35858 0.17219 0.0
H22 H 0.32911 0.33363 0.09625 0.0
H23 H 0.29556 0.36548 0.19037 0.0
H24 H 0.25493 0.36456 0.12421 0.0
O25 O 0.30261 0.32166 0.17522 0.0
O26 O 0.27061 0.31334 0.15399 0.0
O27 O 0.28502 0.33755 0.10486 0.0
C28 C 0.28288 0.31113 0.17478 0.0
H29 H 0.31254 0.25789 0.09083 0.0
H30 H 0.26704 0.40095 0.19198 0.0
H31 H 0.36791 0.349 0.08978 0.0
H32 H 0.36672 0.37503 0.16693 0.0
Co33 Co 0.93985 0.04564 0.39065 0.0
C34 C 0.9828 0.07393 0.38448 0.0
C35 C 0.9822 0.04325 0.36145 0.0
C36 C 1.00237 0.05473 0.35672 0.0
N37 N 0.96976 0.05535 0.37851 0.0
N38 N 1.00278 0.07395 0.37114 0.0
H39 H 0.97771 0.08717 0.39791 0.0
H40 H 0.97707 0.02698 0.35316 0.0
C41 C 0.91495 0.0334 0.34228 0.0
O42 O 0.89653 0.04364 0.35151 0.0
N43 N 0.90995 0.03411 0.40228 0.0
C44 C 0.89355 0.04421 0.41672 0.0
C45 C 0.87446 0.03007 0.41748 0.0
C46 C 0.90082 0.01346 0.39553 0.0
N47 N 0.87893 1.01082 0.40391 0.0
C48 C 0.92101 0.09062 0.40017 0.0
C49 C 0.91961 0.10574 0.35022 0.0
C50 C 0.91158 0.1204 0.36953 0.0
C51 C 0.91282 0.11274 0.39482 0.0
C52 C 0.92811 0.08382 0.35651 0.0
N53 N 0.92732 0.07585 0.3811 0.0
H54 H 0.92265 0.08563 0.4199 0.0
H55 H 0.93573 0.07355 0.34157 0.0
H56 H 0.89482 0.06072 0.42596 0.0
H57 H 0.90957 1.00121 0.38333 0.0
O58 O 0.9487 0.05309 0.42511 0.0
O59 O 0.95471 0.01921 0.40692 0.0
O60 O 0.93347 0.0324 0.35557 0.0
C61 C 0.95725 0.0325 0.42684 0.0
H62 H 0.01595 0.0492 0.34395 0.0
H63 H 0.85835 0.03389 0.427 0.0
H64 H 0.91983 0.11136 0.3305 0.0
H65 H 0.90729 0.12368 0.41041 0.0
Co66 Co 0.2273 0.69062 0.64598 0.0
C67 C 0.19875 0.73511 0.64082 0.0
C68 C 0.23388 0.73691 0.62824 0.0
C69 C 0.22393 0.75796 0.62437 0.0
N70 N 0.21825 0.72229 0.63823 0.0
N71 N 0.20184 0.75691 0.63209 0.0
H72 H 0.18262 0.72895 0.64834 0.0
H73 H 0.25152 0.73238 0.62378 0.0
C74 C 0.22826 0.69466 0.58975 0.0
O75 O 0.20806 0.70475 0.5919 0.0
N76 N 0.23833 0.65973 0.6531 0.0
C77 C 0.23018 0.64423 0.66995 0.0
C78 C 0.24361 0.62453 0.66853 0.0
C79 C 0.25648 0.64934 0.64173 0.0
N80 N 0.26007 0.62777 0.65067 0.0
C81 C 0.17848 0.68322 0.65125 0.0
C82 C 0.17428 0.65082 0.61289 0.0
C83 C 0.15454 0.65701 0.62676 0.0
C84 C 0.15692 0.67341 0.64626 0.0
C85 C 0.1955 0.66105 0.61853 0.0
N86 N 0.19727 0.67782 0.63677 0.0
H87 H 0.18017 0.69472 0.66732 0.0
H88 H 0.21061 0.65503 0.60851 0.0
H89 H 0.2155 0.64702 0.68228 0.0
H90 H 0.26711 0.65756 0.62745 0.0
O91 O 0.22154 0.69603 0.68173 0.0
O92 O 0.25463 0.70325 0.66236 0.0
O93 O 0.23883 0.68749 0.6097 0.0
C94 C 0.24228 0.70434 0.68311 0.0
H95 H 0.23239 0.77303 0.6166 0.0
H96 H 0.24119 0.6089 0.6795 0.0
H97 H 0.17348 0.63796 0.59794 0.0
H98 H 0.14245 0.678 0.65827 0.0
Co99 Co 0.58386 0.97787 0.89656 0.0
C100 C 0.5401 0.9509 0.88942 0.0
C101 C 0.54129 0.98273 0.86841 0.0
C102 C 0.5205 0.97242 0.86382 0.0
N103 N 0.5537 0.96925 0.88419 0.0
N104 N 0.51967 0.95239 0.87688 0.0
H105 H 0.54501 0.93691 0.90199 0.0
H106 H 0.54681 0.99928 0.86117 0.0
C107 C 0.60914 0.98936 0.84822 0.0
O108 O 0.62731 0.97864 0.85744 0.0
N109 N 0.6141 0.98836 0.90841 0.0
C110 C 0.63003 0.97779 0.92316 0.0
C111 C 0.6497 0.99113 0.9238 0.0
C112 C 0.62409 1.00851 0.9014 0.0
N113 N 0.64607 1.01035 0.90984 0.0
C114 C 0.60147 0.93235 0.90615 0.0
C115 C 0.60322 0.9176 0.85609 0.0
C116 C 0.61127 0.90285 0.87536 0.0
C117 C 0.60973 0.91026 0.90071 0.0
C118 C 0.59467 0.93946 0.86247 0.0
N119 N 0.59546 0.94729 0.8871 0.0
H120 H 0.59973 0.93726 0.92588 0.0
H121 H 0.58719 0.94986 0.84753 0.0
H122 H 0.62803 0.96149 0.9327 0.0
H123 H 0.61586 0.02096 0.88896 0.0
O124 O 0.57455 0.97078 0.93098 0.0
O125 O 0.56985 1.00479 0.9126 0.0
O126 O 0.59069 0.99087 0.86149 0.0
C127 C 0.56657 0.99164 0.93249 0.0
H128 H 0.50671 0.97955 0.85229 0.0
H129 H 0.66561 0.98678 0.93352 0.0
H130 H 0.60317 0.91214 0.83632 0.0
H131 H 0.61522 0.89923 0.91628 0.0
Co132 Co 0.29715 0.69134 0.36049 0.0
C133 C 0.32889 0.73213 0.36318 0.0
C134 C 0.30149 0.73329 0.39074 0.0
C135 C 0.31491 0.75248 0.39392 0.0
N136 N 0.31038 0.72028 0.37183 0.0
N137 N 0.33204 0.75179 0.37665 0.0
H138 H 0.33983 0.72646 0.34768 0.0
H139 H 0.28606 0.72932 0.40141 0.0
C140 C 0.28695 0.67045 0.41186 0.0
O141 O 0.29802 0.65158 0.4053 0.0
N142 N 0.28213 0.66263 0.34953 0.0
C143 C 0.28533 0.65051 0.32779 0.0
C144 C 0.27044 0.63197 0.32742 0.0
C145 C 0.26409 0.65198 0.36106 0.0
N146 N 0.2571 0.6329 0.34841 0.0
C147 C 0.33654 0.66226 0.35143 0.0
C148 C 0.35813 0.66939 0.39784 0.0
C149 C 0.36827 0.65435 0.38018 0.0
C150 C 0.35733 0.65111 0.35662 0.0
C151 C 0.33699 0.67995 0.39199 0.0
N152 N 0.32593 0.67558 0.36937 0.0
H153 H 0.32943 0.66066 0.33261 0.0
H154 H 0.32948 0.69161 0.40576 0.0
H155 H 0.29697 0.65511 0.31257 0.0
H156 H 0.25586 0.6581 0.37823 0.0
O157 O 0.30456 0.69914 0.32568 0.0
O158 O 0.27205 0.70871 0.34523 0.0
O159 O 0.28444 0.68699 0.39596 0.0
C160 C 0.28491 0.70993 0.32485 0.0
H161 H 0.31205 0.76625 0.40752 0.0
H162 H 0.26907 0.61917 0.31246 0.0
H163 H 0.36626 0.67268 0.4161 0.0
H164 H 0.36508 0.64037 0.34203 0.0
Co165 Co 0.58065 0.04349 0.6139 0.0
C166 C 0.53647 0.07034 0.61545 0.0
C167 C 0.53877 0.04401 0.64422 0.0
C168 C 0.51716 0.0535 0.64514 0.0
N169 N 0.55098 0.05451 0.62573 0.0
N170 N 0.5156 0.06989 0.627 0.0
H171 H 0.54056 0.08083 0.59898 0.0
H172 H 0.54461 0.02944 0.65533 0.0
C173 C 0.60533 0.03433 0.66311 0.0
O174 O 0.62332 0.04495 0.65345 0.0
N175 N 0.61019 0.03062 0.60234 0.0
C176 C 0.62349 0.03675 0.58232 0.0
C177 C 0.64267 0.02266 0.58153 0.0
C178 C 0.62084 0.01173 0.61216 0.0
N179 N 0.64104 1.007 0.60043 0.0
C180 C 0.60424 0.08597 0.60321 0.0
C181 C 0.60095 0.10485 0.65149 0.0
C182 C 0.6135 0.11661 0.63275 0.0
C183 C 0.61459 0.10717 0.60822 0.0
C184 C 0.59113 0.08337 0.6457 0.0
N185 N 0.59411 0.07349 0.62218 0.0
H186 H 0.6039 0.07998 0.58384 0.0
H187 H 0.58124 0.07464 0.66023 0.0
H188 H 0.61945 0.04982 0.5684 0.0
H189 H 0.61414 1.00172 0.62789 0.0
O190 O 0.57179 0.05004 0.57921 0.0
O191 O 0.56501 0.01699 0.59894 0.0
O192 O 0.5871 0.03159 0.64962 0.0
C193 C 0.56263 0.02965 0.57847 0.0
H194 H 0.50329 0.04812 0.65759 0.0
H195 H 0.65651 0.02357 0.56774 0.0
H196 H 0.59914 0.11192 0.67051 0.0
H197 H 0.62312 0.1163 0.59286 0.0
Co198 Co 0.22589 0.33127 0.85932 0.0
C199 C 0.1952 0.28991 0.86055 0.0
C200 C 0.22063 0.28986 0.89046 0.0
C201 C 0.20744 0.27038 0.89287 0.0
N202 N 0.21279 0.30231 0.87051 0.0
N203 N 0.1916 0.27041 0.8741 0.0
H204 H 0.18529 0.29502 0.84395 0.0
H205 H 0.23523 0.29435 0.90226 0.0
C206 C 0.23404 0.35502 0.90925 0.0
O207 O 0.22399 0.37345 0.89971 0.0
N208 N 0.24067 0.36002 0.84845 0.0
C209 C 0.23753 0.37242 0.82688 0.0
C210 C 0.25305 0.39047 0.82651 0.0
C211 C 0.25906 0.37006 0.85992 0.0
N212 N 0.26643 0.38907 0.84751 0.0
C213 C 0.18514 0.35707 0.84639 0.0
C214 C 0.16251 0.3512 0.89231 0.0
C215 C 0.15106 0.36269 0.87242 0.0
C216 C 0.16283 0.3657 0.8493 0.0
C217 C 0.18493 0.34281 0.88857 0.0
N218 N 0.19628 0.34629 0.86599 0.0
H219 H 0.1929 0.35811 0.82785 0.0
H220 H 0.19286 0.33285 0.90365 0.0
H221 H 0.22564 0.36831 0.81171 0.0
H222 H 0.26757 0.36315 0.87661 0.0
O223 O 0.22035 0.3227 0.82437 0.0
O224 O 0.25217 0.31427 0.84591 0.0
O225 O 0.23667 0.33697 0.89551 0.0
C226 C 0.24033 0.31256 0.82477 0.0
H227 H 0.20963 0.25687 0.90694 0.0
H228 H 0.25438 0.40352 0.81183 0.0
H229 H 0.15392 0.34789 0.91028 0.0
H230 H 0.15473 0.37433 0.83328 0.0
Co231 Co 0.94156 0.97978 0.10848 0.0
C232 C 0.98428 0.95091 0.11462 0.0
C233 C 0.98323 0.9807 0.13902 0.0
C234 C 1.00331 0.96898 0.14374 0.0
N235 N 0.97112 0.9693 0.12108 0.0
N236 N 1.00402 0.95031 0.12848 0.0
H237 H 0.97948 0.93825 0.10039 0.0
H238 H 0.97797 0.99669 0.14787 0.0
C239 C 0.91567 0.99012 0.15666 0.0
O240 O 0.89748 0.98026 0.14641 0.0
N241 N 0.91194 0.99203 0.09648 0.0
C242 C 0.89605 0.98275 0.08069 0.0
C243 C 0.87681 0.99676 0.08027 0.0
C244 C 0.90239 0.01219 0.10434 0.0
N245 N 0.88069 0.01517 0.09539 0.0
C246 C 0.92264 0.93582 0.09574 0.0
C247 C 0.91873 0.91809 0.14445 0.0
C248 C 0.91039 0.90507 0.12381 0.0
C249 C 0.91334 0.91397 0.09918 0.0
C250 C 0.92829 0.94 0.14004 0.0
N251 N 0.92856 0.94935 0.11601 0.0
H252 H 0.92528 0.94165 0.07647 0.0
H253 H 0.93557 0.94926 0.15599 0.0
H254 H 0.89776 0.96688 0.07024 0.0
H255 H 0.91067 0.02378 0.11768 0.0
O256 O 0.95105 0.97353 0.07405 0.0
O257 O 0.95702 1.00667 0.09368 0.0
O258 O 0.93446 0.99164 0.14399 0.0
C259 C 0.95974 0.99404 0.07326 0.0
H260 H 0.01667 0.97406 0.15706 0.0
H261 H 0.86101 0.99343 0.06988 0.0
H262 H 0.91766 0.9116 0.16378 0.0
H263 H 0.90864 0.90405 0.08246 0.0
Co264 Co 0.72722 0.69118 0.85681 0.0
C265 C 0.6993 0.73597 0.85826 0.0
C266 C 0.73391 0.73857 0.87238 0.0
C267 C 0.72425 0.76016 0.87269 0.0
N268 N 0.71845 0.72324 0.86328 0.0
N269 N 0.70254 0.75851 0.86385 0.0
H270 H 0.68355 0.72952 0.85008 0.0
H271 H 0.75135 0.73433 0.87804 0.0
C272 C 0.72724 0.69638 0.91299 0.0
O273 O 0.7076 0.70744 0.91022 0.0
N274 N 0.73762 0.65987 0.85085 0.0
C275 C 0.72676 0.64301 0.83791 0.0
C276 C 0.73945 0.62293 0.84028 0.0
C277 C 0.75686 0.64998 0.86057 0.0
N278 N 0.75838 0.62734 0.85452 0.0
C279 C 0.67901 0.68473 0.84824 0.0
C280 C 0.67062 0.65443 0.88781 0.0
C281 C 0.65234 0.66051 0.8715 0.0
C282 C 0.65687 0.67602 0.85162 0.0
C283 C 0.69262 0.66382 0.88386 0.0
N284 N 0.69643 0.67949 0.86478 0.0
H285 H 0.68217 0.69541 0.83178 0.0
H286 H 0.70671 0.6578 0.89562 0.0
H287 H 0.71053 0.64502 0.82796 0.0
H288 H 0.76911 0.65901 0.87254 0.0
O289 O 0.72279 0.69593 0.82077 0.0
O290 O 0.75537 0.70297 0.84131 0.0
O291 O 0.73766 0.68832 0.89344 0.0
C292 C 0.74364 0.70392 0.82006 0.0
H293 H 0.73252 0.77591 0.87892 0.0
H294 H 0.73503 0.60634 0.83219 0.0
H295 H 0.66819 0.64186 0.90285 0.0
H296 H 0.64349 0.68124 0.83839 0.0
Co297 Co 0.08029 0.97879 0.60927 0.0
C298 C 0.0368 0.95096 0.61143 0.0
C299 C 0.03941 0.97658 0.64091 0.0
C300 C 0.01798 0.96683 0.6422 0.0
N301 N 0.05133 0.96669 0.62175 0.0
N302 N 0.01623 0.9509 0.62363 0.0
H303 H 0.04057 0.94101 0.59446 0.0
H304 H 0.04521 0.99104 0.65217 0.0
C305 C 0.10592 0.98716 0.65809 0.0
O306 O 0.12403 0.97735 0.64762 0.0
N307 N 0.10903 0.99284 0.59731 0.0
C308 C 0.12184 0.98835 0.57638 0.0
C309 C 0.14011 1.00361 0.57547 0.0
C310 C 0.11909 0.01169 0.6078 0.0
N311 N 0.13848 0.01812 0.59548 0.0
C312 C 0.10406 0.93739 0.59558 0.0
C313 C 0.1035 0.91641 0.64292 0.0
C314 C 0.1147 0.90524 0.62264 0.0
C315 C 0.11424 0.91582 0.5986 0.0
C316 C 0.09328 0.93809 0.63894 0.0
N317 N 0.09489 0.94896 0.6158 0.0
H318 H 0.10293 0.94436 0.57663 0.0
H319 H 0.0841 0.94611 0.65453 0.0
H320 H 0.11805 0.97557 0.56206 0.0
H321 H 0.11209 0.02092 0.62394 0.0
O322 O 0.07082 0.97283 0.57478 0.0
O323 O 0.06334 1.00521 0.59548 0.0
O324 O 0.08733 0.98977 0.64518 0.0
C325 C 0.06104 0.99292 0.57472 0.0
H326 H 1.0043 0.97179 0.65513 0.0
H327 H 0.15358 1.00385 0.56121 0.0
H328 H 0.10284 0.90866 0.6617 0.0
H329 H 0.12139 0.90733 0.58198 0.0
Co330 Co 0.79673 0.33277 0.35654 0.0
C331 C 0.8255 0.28866 0.35692 0.0
C332 C 0.79176 0.28549 0.37318 0.0
C333 C 0.80169 0.26404 0.37269 0.0
N334 N 0.80655 0.30111 0.36341 0.0
N335 N 0.82284 0.26604 0.36251 0.0
H336 H 0.84046 0.29537 0.34733 0.0
H337 H 0.77446 0.2894 0.37958 0.0
C338 C 0.79561 0.32758 0.41263 0.0
O339 O 0.81577 0.3174 0.4104 0.0
N340 N 0.78538 0.36366 0.34997 0.0
C341 C 0.79554 0.38026 0.33602 0.0
C342 C 0.78262 0.4002 0.33805 0.0
C343 C 0.76631 0.37358 0.36003 0.0
N344 N 0.76425 0.396 0.35317 0.0
C345 C 0.84536 0.34138 0.35084 0.0
C346 C 0.84969 0.3718 0.39112 0.0
C347 C 0.86937 0.36636 0.37677 0.0
C348 C 0.8669 0.35104 0.35624 0.0
C349 C 0.82849 0.36173 0.38505 0.0
N350 N 0.82668 0.34581 0.3659 0.0
H351 H 0.8436 0.33093 0.33395 0.0
H352 H 0.81343 0.36724 0.39549 0.0
H353 H 0.81149 0.37817 0.32561 0.0
H354 H 0.75461 0.36477 0.37279 0.0
O355 O 0.80226 0.32792 0.32065 0.0
O356 O 0.7695 0.31993 0.34039 0.0
O357 O 0.78522 0.33521 0.3928 0.0
C358 C 0.78169 0.31915 0.31952 0.0
H359 H 0.79389 0.24809 0.37906 0.0
H360 H 0.78655 0.41657 0.32915 0.0
H361 H 0.85055 0.38392 0.4068 0.0
H362 H 0.88129 0.3472 0.3438 0.0
Co363 Co 0.44102 0.0448 0.11235 0.0
C364 C 0.48481 0.07215 0.11503 0.0
C365 C 0.48271 0.04508 0.14295 0.0
C366 C 0.50421 0.05468 0.14436 0.0
N367 N 0.47045 0.05597 0.12469 0.0
N368 N 0.50563 0.07155 0.12677 0.0
H369 H 0.48068 0.08302 0.09885 0.0
H370 H 0.47697 0.03016 0.1535 0.0
C371 C 0.41638 0.03745 0.16193 0.0
O372 O 0.39861 0.04862 0.15238 0.0
N373 N 0.41175 0.03164 0.10034 0.0
C374 C 0.40082 0.0348 0.0778 0.0
C375 C 0.38195 0.02032 0.07654 0.0
C376 C 0.39996 0.01421 0.1116 0.0
N377 N 0.38132 1.00753 0.098 0.0
C378 C 0.4165 0.08632 0.09993 0.0
C379 C 0.4232 0.1087 0.14592 0.0
C380 C 0.41177 0.12041 0.12615 0.0
C381 C 0.40838 0.10879 0.103 0.0
C382 C 0.43117 0.08612 0.14198 0.0
N383 N 0.42724 0.07493 0.11938 0.0
H384 H 0.41498 0.07856 0.08142 0.0
H385 H 0.44095 0.07783 0.15698 0.0
H386 H 0.40653 0.04599 0.06262 0.0
H387 H 0.4054 1.00565 0.1289 0.0
O388 O 0.45052 0.05081 0.07783 0.0
O389 O 0.45712 0.01809 0.09835 0.0
O390 O 0.43423 0.03369 0.1482 0.0
C391 C 0.45989 0.03049 0.07775 0.0
H392 H 0.51811 0.04909 0.15673 0.0
H393 H 0.36976 0.01922 0.06093 0.0
H394 H 0.42668 0.11717 0.16393 0.0
H395 H 0.39976 0.1171 0.0871 0.0
Co396 Co 0.72629 0.32909 0.6415 0.0
C397 C 0.69824 0.28557 0.64208 0.0
C398 C 0.72162 0.28761 0.6104 0.0
C399 C 0.71159 0.26628 0.61024 0.0
N400 N 0.71333 0.29987 0.63027 0.0
N401 N 0.69707 0.26488 0.63018 0.0
H402 H 0.68956 0.28958 0.6598 0.0
H403 H 0.73512 0.29309 0.59761 0.0
C404 C 0.73512 0.35022 0.5899 0.0
O405 O 0.72344 0.36874 0.59642 0.0
N406 N 0.74104 0.35798 0.6524 0.0
C407 C 0.73927 0.36886 0.67512 0.0
C408 C 0.75441 0.38719 0.67574 0.0
C409 C 0.75829 0.36932 0.64025 0.0
N410 N 0.76631 0.38755 0.65367 0.0
C411 C 0.68736 0.35858 0.65105 0.0
C412 C 0.66442 0.35031 0.60565 0.0
C413 C 0.65497 0.36601 0.62306 0.0
C414 C 0.66656 0.36983 0.64612 0.0
C415 C 0.68555 0.33963 0.6112 0.0
N416 N 0.69723 0.34452 0.63329 0.0
H417 H 0.69518 0.36089 0.66944 0.0
H418 H 0.69267 0.32766 0.59752 0.0
H419 H 0.7284 0.3635 0.69075 0.0
H420 H 0.76595 0.3637 0.62256 0.0
O421 O 0.71956 0.3211 0.67638 0.0
O422 O 0.75189 0.31206 0.65616 0.0
O423 O 0.73839 0.33389 0.6059 0.0
C424 C 0.73938 0.31061 0.67678 0.0
H425 H 0.71545 0.25241 0.59709 0.0
H426 H 0.75661 0.39914 0.69141 0.0
H427 H 0.65582 0.34665 0.58774 0.0
H428 H 0.65939 0.38118 0.6605 0.0
Co429 Co 0.44008 0.97772 0.39507 0.0
C430 C 0.48135 0.94686 0.39194 0.0
C431 C 0.4819 0.9744 0.36447 0.0
C432 C 0.50126 0.96115 0.36108 0.0
N433 N 0.46922 0.96529 0.38348 0.0
N434 N 0.50092 0.94395 0.37832 0.0
H435 H 0.4759 0.93575 0.4074 0.0
H436 H 0.47756 0.98982 0.35393 0.0
C437 C 0.41653 0.98622 0.34496 0.0
O438 O 0.39831 0.97552 0.35398 0.0
N439 N 0.41104 0.99179 0.40648 0.0
C440 C 0.39958 0.98861 0.42864 0.0
C441 C 0.38083 1.0033 0.42944 0.0
C442 C 0.39967 1.00945 0.395 0.0
N443 N 0.38079 0.01623 0.40807 0.0
C444 C 0.41448 0.93668 0.40663 0.0
C445 C 0.42169 0.91454 0.36059 0.0
C446 C 0.41021 0.90271 0.38013 0.0
C447 C 0.40647 0.91422 0.40328 0.0
C448 C 0.42954 0.93706 0.3648 0.0
N449 N 0.4255 0.94811 0.38746 0.0
H450 H 0.41281 0.94432 0.42518 0.0
H451 H 0.43956 0.94533 0.35004 0.0
H452 H 0.40477 0.97713 0.44382 0.0
H453 H 0.40548 0.01796 0.37785 0.0
O454 O 0.44886 0.97128 0.42982 0.0
O455 O 0.45677 1.00379 0.4095 0.0
O456 O 0.43427 0.98928 0.35913 0.0
C457 C 0.4588 0.99131 0.43016 0.0
H458 H 0.51485 0.96415 0.34733 0.0
H459 H 0.36823 1.00436 0.44461 0.0
H460 H 0.42545 0.90614 0.3426 0.0
H461 H 0.39778 0.90577 0.41898 0.0
Co462 Co 0.79525 0.69343 0.14294 0.0
C463 C 0.82604 0.7351 0.1385 0.0
C464 C 0.79555 0.73643 0.11511 0.0
C465 C 0.80776 0.75627 0.11135 0.0
N466 N 0.80703 0.72296 0.13177 0.0
N467 N 0.82694 0.75551 0.1259 0.0
H468 H 0.83886 0.72914 0.15203 0.0
H469 H 0.77908 0.73231 0.10658 0.0
C470 C 0.78606 0.6726 0.0912 0.0
O471 O 0.79784 0.65409 0.09758 0.0
N472 N 0.78146 0.66412 0.15372 0.0
C473 C 0.78393 0.65287 0.17616 0.0
C474 C 0.76907 0.6343 0.17674 0.0
C475 C 0.76411 0.65276 0.14175 0.0
N476 N 0.75669 0.63418 0.15494 0.0
C477 C 0.8351 0.66514 0.15196 0.0
C478 C 0.85667 0.67293 0.10574 0.0
C479 C 0.86668 0.65745 0.12308 0.0
C480 C 0.85583 0.65398 0.14661 0.0
C481 C 0.83563 0.68357 0.11177 0.0
N482 N 0.82457 0.67879 0.13423 0.0
H483 H 0.8278 0.66304 0.17062 0.0
H484 H 0.82805 0.69539 0.09817 0.0
H485 H 0.795 0.65818 0.19168 0.0
H486 H 0.75594 0.65863 0.12442 0.0
O487 O 0.80227 0.70147 0.17779 0.0
O488 O 0.76937 0.70955 0.15806 0.0
O489 O 0.78285 0.68883 0.10731 0.0
C490 C 0.7821 0.71126 0.17853 0.0
H491 H 0.80261 0.77053 0.09926 0.0
H492 H 0.76736 0.62205 0.19219 0.0
H493 H 0.86473 0.67641 0.08751 0.0
H494 H 0.86348 0.6429 0.16098 0.0
Co495 Co 0.08367 0.04425 0.89023 0.0
C496 C 0.03645 0.06617 0.88663 0.0
C497 C 0.05093 0.05803 0.85011 0.0
C498 C 0.02939 0.06693 0.84634 0.0
N499 N 0.05562 0.05739 0.87535 0.0
N500 N 0.02008 0.07186 0.86921 0.0
H501 H 0.03416 0.0678 0.90703 0.0
H502 H 0.06214 0.05232 0.83499 0.0
C503 C 0.1103 0.02923 0.84384 0.0
O504 O 0.12905 0.03809 0.85397 0.0
N505 N 0.11157 0.03001 0.90433 0.0
C506 C 0.12772 0.03895 0.92002 0.0
C507 C 0.14608 0.02388 0.92151 0.0
C508 C 0.12002 1.00903 0.89763 0.0
N509 N 0.14139 1.00518 0.90713 0.0
C510 C 0.10458 0.08756 0.90229 0.0
C511 C 0.11037 0.10371 0.85317 0.0
C512 C 0.11582 0.11829 0.87363 0.0
C513 C 0.11305 0.10976 0.89843 0.0
C514 C 0.10196 0.08147 0.8579 0.0
N515 N 0.09961 0.07326 0.8823 0.0
H516 H 0.10126 0.08234 0.92165 0.0
H517 H 0.09652 0.07148 0.84171 0.0
H518 H 0.12692 0.05543 0.92937 0.0
H519 H 0.11143 0.99755 0.8844 0.0
O520 O 0.0734 0.05224 0.92407 0.0
O521 O 0.06546 0.01924 0.90498 0.0
O522 O 0.09118 0.03005 0.85596 0.0
C523 C 0.0632 0.03241 0.92503 0.0
H524 H 0.0212 0.0696 0.82799 0.0
H525 H 0.16202 0.02683 0.93178 0.0
H526 H 0.11164 0.10974 0.83366 0.0
H527 H 0.11701 0.1203 0.91492 0.0
Co528 Co 0.79547 0.8306 0.64167 0.0
C529 C 0.82172 0.78554 0.64076 0.0
C530 C 0.79604 0.78841 0.61153 0.0
C531 C 0.80463 0.76645 0.6111 0.0
N532 N 0.80708 0.80086 0.6296 0.0
N533 N 0.82068 0.76456 0.62951 0.0
H534 H 0.83124 0.78874 0.65814 0.0
H535 H 0.7813 0.79417 0.60063 0.0
C536 C 0.79439 0.83636 0.58545 0.0
O537 O 0.81609 0.8298 0.58547 0.0
N538 N 0.78226 0.8595 0.65321 0.0
C539 C 0.79161 0.87512 0.66917 0.0
C540 C 0.77776 0.89454 0.66932 0.0
C541 C 0.76271 0.86938 0.64429 0.0
N542 N 0.75961 0.89089 0.65365 0.0
C543 C 0.84447 0.83845 0.64401 0.0
C544 C 0.84492 0.87803 0.61465 0.0
C545 C 0.86594 0.8693 0.62387 0.0
C546 C 0.86544 0.84935 0.63898 0.0
C547 C 0.82432 0.86664 0.62026 0.0
N548 N 0.82433 0.8465 0.63387 0.0
H549 H 0.84446 0.82393 0.65673 0.0
H550 H 0.80831 0.87393 0.6134 0.0
H551 H 0.80783 0.87293 0.67911 0.0
H552 H 0.75156 0.86144 0.63025 0.0
O553 O 0.80246 0.82201 0.67628 0.0
O554 O 0.76967 0.81394 0.65641 0.0
O555 O 0.78296 0.8372 0.6063 0.0
C556 C 0.78248 0.81194 0.67683 0.0
H557 H 0.79869 0.75255 0.59897 0.0
H558 H 0.78103 0.9103 0.67979 0.0
H559 H 0.84431 0.89351 0.60311 0.0
H560 H 0.88103 0.84254 0.64756 0.0
Co561 Co 0.44217 0.54357 0.8926 0.0
C562 C 0.48309 0.57504 0.88789 0.0
C563 C 0.48371 0.54626 0.86203 0.0
C564 C 0.50306 0.55921 0.85796 0.0
N565 N 0.47095 0.55629 0.88041 0.0
N566 N 0.50272 0.57722 0.87416 0.0
H567 H 0.47767 0.58681 0.90276 0.0
H568 H 0.47947 0.53032 0.85247 0.0
C569 C 0.41827 0.53384 0.84306 0.0
O570 O 0.39978 0.5439 0.85238 0.0
N571 N 0.41365 0.52888 0.90444 0.0
C572 C 0.4017 0.53222 0.92625 0.0
C573 C 0.38346 0.51693 0.92709 0.0
C574 C 0.40325 0.51049 0.89339 0.0
N575 N 0.38433 0.50344 0.90617 0.0
C576 C 0.41438 0.58348 0.90319 0.0
C577 C 0.41857 0.60425 0.85593 0.0
C578 C 0.40446 0.6146 0.87438 0.0
C579 C 0.40285 0.60414 0.89841 0.0
C580 C 0.4297 0.58335 0.86149 0.0
N581 N 0.42659 0.57261 0.88452 0.0
H582 H 0.41389 0.57661 0.9222 0.0
H583 H 0.44068 0.5757 0.84715 0.0
H584 H 0.40619 0.54422 0.94119 0.0
H585 H 0.40978 0.50174 0.87671 0.0
O586 O 0.4509 0.55072 0.92713 0.0
O587 O 0.45954 0.51807 0.90737 0.0
O588 O 0.43634 0.53147 0.8569 0.0
C589 C 0.46118 0.53084 0.92783 0.0
H590 H 0.51669 0.55544 0.84449 0.0
H591 H 0.37058 0.5159 0.94196 0.0
H592 H 0.42072 0.61202 0.83729 0.0
H593 H 0.39307 0.61211 0.91365 0.0
Co594 Co 0.72726 0.19141 0.14341 0.0
C595 C 0.70096 0.23672 0.14359 0.0
C596 C 0.728 0.23478 0.11589 0.0
C597 C 0.71952 0.25677 0.11586 0.0
N598 N 0.71609 0.22175 0.13269 0.0
N599 N 0.70261 0.25808 0.13331 0.0
H600 H 0.69053 0.23295 0.1601 0.0
H601 H 0.74309 0.2292 0.10553 0.0
C602 C 0.72683 0.18851 0.08704 0.0
O603 O 0.70544 0.19598 0.08824 0.0
N604 N 0.74016 0.1619 0.15352 0.0
C605 C 0.73116 0.14624 0.16963 0.0
C606 C 0.74469 0.12661 0.16895 0.0
C607 C 0.75918 0.15179 0.1436 0.0
N608 N 0.76229 0.13011 0.15253 0.0
C609 C 0.67828 0.18375 0.14769 0.0
C610 C 0.67632 0.1459 0.11575 0.0
C611 C 0.65578 0.15406 0.12668 0.0
C612 C 0.65706 0.17315 0.14305 0.0
C613 C 0.69718 0.15696 0.121 0.0
N614 N 0.69789 0.17629 0.13593 0.0
H615 H 0.67898 0.19744 0.16147 0.0
H616 H 0.71284 0.14995 0.11296 0.0
H617 H 0.71543 0.14862 0.18038 0.0
H618 H 0.76995 0.15977 0.12927 0.0
O619 O 0.72147 0.19927 0.17848 0.0
O620 O 0.75384 0.20708 0.15778 0.0
O621 O 0.73857 0.1857 0.10752 0.0
C622 C 0.74165 0.20897 0.1786 0.0
H623 H 0.72599 0.27102 0.10462 0.0
H624 H 0.7416 0.11087 0.17948 0.0
H625 H 0.67635 0.13106 0.10322 0.0
H626 H 0.6419 0.17944 0.15291 0.0
Co627 Co 0.08213 0.47902 0.39563 0.0
C628 C 0.0384 0.45154 0.39343 0.0
C629 C 0.03899 0.48053 0.36784 0.0
C630 C 0.01754 0.47073 0.36674 0.0
N631 N 0.0521 0.46861 0.38451 0.0
N632 N 0.01712 0.45262 0.3828 0.0
H633 H 0.0434 0.43953 0.40826 0.0
H634 H 0.04426 0.49607 0.35807 0.0
C635 C 0.10606 0.4904 0.34634 0.0
O636 O 0.12542 0.4819 0.3554 0.0
N637 N 0.11215 0.49115 0.40623 0.0
C638 C 0.12909 0.48114 0.42005 0.0
C639 C 0.14826 0.49516 0.41973 0.0
C640 C 0.12109 0.5117 0.39879 0.0
N641 N 0.14331 0.51427 0.40613 0.0
C642 C 0.10063 0.43478 0.40804 0.0
C643 C 0.10472 0.41751 0.35916 0.0
C644 C 0.11292 0.40426 0.37971 0.0
C645 C 0.10992 0.41292 0.40441 0.0
C646 C 0.09523 0.43943 0.36374 0.0
N647 N 0.09481 0.44851 0.38787 0.0
H648 H 0.09829 0.4406 0.42738 0.0
H649 H 0.08809 0.44885 0.34782 0.0
H650 H 0.12821 0.46466 0.42943 0.0
H651 H 0.11201 0.52379 0.38663 0.0
O652 O 0.07387 0.47327 0.43056 0.0
O653 O 0.06726 0.50615 0.41049 0.0
O654 O 0.08772 0.49053 0.35982 0.0
C655 C 0.06511 0.4938 0.43119 0.0
H656 H 1.00306 0.47686 0.35555 0.0
H657 H 0.16479 0.4913 0.42837 0.0
H658 H 0.10591 0.4112 0.33976 0.0
H659 H 0.11471 0.40286 0.42102 0.0
Co660 Co 0.79606 0.18869 0.85708 0.0
C661 C 0.82253 0.23414 0.85642 0.0
C662 C 0.79275 0.23352 0.88056 0.0
C663 C 0.80126 0.25545 0.88044 0.0
N664 N 0.80618 0.21979 0.866 0.0
N665 N 0.81989 0.25597 0.86522 0.0
H666 H 0.83499 0.22947 0.84207 0.0
H667 H 0.77694 0.22818 0.88971 0.0
C668 C 0.79656 0.18925 0.91352 0.0
O669 O 0.81746 0.19785 0.91175 0.0
N670 N 0.78415 0.15839 0.84886 0.0
C671 C 0.7937 0.14206 0.83397 0.0
C672 C 0.78051 0.12229 0.83567 0.0
C673 C 0.7652 0.14851 0.8591 0.0
N674 N 0.7626 0.12636 0.85152 0.0
C675 C 0.84459 0.18089 0.85061 0.0
C676 C 0.84902 0.14597 0.88627 0.0
C677 C 0.86835 0.15252 0.87208 0.0
C678 C 0.86593 0.17014 0.85399 0.0
C679 C 0.82784 0.15691 0.88194 0.0
N680 N 0.82597 0.17481 0.86499 0.0
H681 H 0.84285 0.19331 0.83549 0.0
H682 H 0.8128 0.15051 0.89177 0.0
H683 H 0.8095 0.14416 0.82328 0.0
H684 H 0.75404 0.1571 0.87264 0.0
O685 O 0.80128 0.1951 0.82153 0.0
O686 O 0.7688 0.20282 0.84205 0.0
O687 O 0.78514 0.18439 0.89332 0.0
C688 C 0.78076 0.20408 0.82101 0.0
H689 H 0.79388 0.27014 0.89025 0.0
H690 H 0.784 0.1061 0.82615 0.0
H691 H 0.85 0.1318 0.89971 0.0
H692 H 0.88033 0.17524 0.84212 0.0
Co693 Co 0.07959 0.54443 0.1117 0.0
C694 C 0.03434 0.57077 0.11134 0.0
C695 C 0.03716 0.54567 0.14116 0.0
C696 C 0.01527 0.55444 0.14149 0.0
N697 N 0.04959 0.55621 0.12276 0.0
N698 N 0.01343 0.57016 0.12275 0.0
H699 H 0.03749 0.58001 0.09382 0.0
H700 H 0.043 0.53127 0.15256 0.0
C701 C 0.08494 0.54663 0.16809 0.0
O702 O 0.07824 0.56825 0.16668 0.0
N703 N 0.1088 0.53104 0.10141 0.0
C704 C 0.12292 0.53778 0.08247 0.0
C705 C 0.14206 0.52352 0.08239 0.0
C706 C 0.11944 0.51285 0.11251 0.0
N707 N 0.13989 0.50791 0.10139 0.0
C708 C 0.08688 0.59273 0.10397 0.0
C709 C 0.12565 0.59732 0.13425 0.0
C710 C 0.11689 0.61683 0.12167 0.0
C711 C 0.09734 0.61423 0.10625 0.0
C712 C 0.11469 0.57594 0.13121 0.0
N713 N 0.09488 0.57406 0.11711 0.0
H714 H 0.0728 0.59105 0.0908 0.0
H715 H 0.12218 0.56089 0.14016 0.0
H716 H 0.11968 0.55219 0.06985 0.0
H717 H 0.11226 0.50329 0.12834 0.0
O718 O 0.07109 0.54914 0.07664 0.0
O719 O 0.06343 0.51743 0.09858 0.0
O720 O 0.08615 0.53421 0.14795 0.0
C721 C 0.06146 0.52898 0.07727 0.0
H722 H 1.00142 0.54898 0.15393 0.0
H723 H 0.15669 0.52492 0.06968 0.0
H724 H 0.14118 0.59842 0.14568 0.0
H725 H 0.09025 0.6287 0.09575 0.0
Co726 Co 0.72563 0.83323 0.35965 0.0
C727 C 0.69573 0.7913 0.36217 0.0
C728 C 0.7227 0.79137 0.39039 0.0
C729 C 0.70974 0.77182 0.39362 0.0
N730 N 0.71378 0.80376 0.37096 0.0
N731 N 0.69291 0.77175 0.37591 0.0
H732 H 0.68474 0.79654 0.34647 0.0
H733 H 0.73768 0.79614 0.40148 0.0
C734 C 0.73544 0.8576 0.40891 0.0
O735 O 0.72666 0.87664 0.39935 0.0
N736 N 0.73897 0.86269 0.34874 0.0
C737 C 0.73132 0.87789 0.33114 0.0
C738 C 0.74566 0.89681 0.33094 0.0
C739 C 0.7587 0.87222 0.35789 0.0
N740 N 0.76276 0.89338 0.34798 0.0
C741 C 0.68231 0.85406 0.34658 0.0
C742 C 0.66303 0.8531 0.39473 0.0
C743 C 0.6498 0.86155 0.37434 0.0
C744 C 0.6598 0.86193 0.35002 0.0
C745 C 0.68559 0.84538 0.3904 0.0
N746 N 0.69543 0.84687 0.36671 0.0
H747 H 0.68867 0.85277 0.32736 0.0
H748 H 0.69469 0.8373 0.40601 0.0
H749 H 0.71657 0.87572 0.31891 0.0
H750 H 0.76935 0.86425 0.3724 0.0
O751 O 0.72027 0.82449 0.32475 0.0
O752 O 0.75254 0.81739 0.34601 0.0
O753 O 0.73657 0.83919 0.39559 0.0
C754 C 0.74061 0.81514 0.32501 0.0
H755 H 0.71258 0.75846 0.40773 0.0
H756 H 0.74357 0.912 0.31914 0.0
H757 H 0.65574 0.85161 0.41367 0.0
H758 H 0.65023 0.86795 0.33354 0.0
Co759 Co 0.44133 0.47736 0.60968 0.0
C760 C 0.48542 0.45025 0.61107 0.0
C761 C 0.48344 0.47675 0.63966 0.0
C762 C 0.50498 0.46714 0.6406 0.0
N763 N 0.47107 0.46622 0.62128 0.0
N764 N 0.50635 0.45064 0.62257 0.0
H765 H 0.48115 0.43966 0.59473 0.0
H766 H 0.47772 0.4914 0.6507 0.0
C767 C 0.41728 0.48442 0.65957 0.0
O768 O 0.39949 0.47328 0.65011 0.0
N769 N 0.41176 0.49043 0.59838 0.0
C770 C 0.40018 0.48706 0.57628 0.0
C771 C 0.3812 0.50149 0.57556 0.0
C772 C 0.40023 0.50794 0.60986 0.0
N773 N 0.38115 0.51444 0.59691 0.0
C774 C 0.41706 0.43559 0.59779 0.0
C775 C 0.42463 0.41358 0.64387 0.0
C776 C 0.41292 0.40172 0.62448 0.0
C777 C 0.40913 0.41311 0.60124 0.0
C778 C 0.4324 0.43611 0.63955 0.0
N779 N 0.42798 0.44715 0.61695 0.0
H780 H 0.4152 0.44323 0.57924 0.0
H781 H 0.44239 0.44452 0.65427 0.0
H782 H 0.40548 0.47573 0.56104 0.0
H783 H 0.40611 0.51661 0.62691 0.0
O784 O 0.45025 0.47157 0.57491 0.0
O785 O 0.45694 0.5042 0.59555 0.0
O786 O 0.43501 0.48827 0.6457 0.0
C787 C 0.45947 0.49194 0.57482 0.0
H788 H 0.51892 0.47244 0.65305 0.0
H789 H 0.36851 0.50242 0.56043 0.0
H790 H 0.42846 0.40526 0.66191 0.0
H791 H 0.40032 0.40464 0.58561 0.0
Co792 Co 0.22676 0.19078 0.35562 0.0
C793 C 0.19865 0.23553 0.36069 0.0
C794 C 0.23352 0.23679 0.37433 0.0
C795 C 0.22363 0.25784 0.37847 0.0
N796 N 0.218 0.22251 0.36348 0.0
N797 N 0.20172 0.25709 0.37003 0.0
H798 H 0.18254 0.22965 0.3528 0.0
H799 H 0.25098 0.23199 0.37935 0.0
C800 C 0.22564 0.19392 0.41196 0.0
O801 O 0.20561 0.20424 0.40908 0.0
N802 N 0.23749 0.15982 0.34857 0.0
C803 C 0.22955 0.14456 0.33131 0.0
C804 C 0.24301 0.12486 0.33264 0.0
C805 C 0.25553 0.14932 0.36007 0.0
N806 N 0.25928 0.12788 0.35083 0.0
C807 C 0.17851 0.18481 0.34671 0.0
C808 C 0.17051 0.15202 0.38392 0.0
C809 C 0.15213 0.15898 0.36822 0.0
C810 C 0.15644 0.17567 0.34948 0.0
C811 C 0.19244 0.16173 0.38052 0.0
N812 N 0.19604 0.1786 0.36271 0.0
H813 H 0.18156 0.19665 0.33121 0.0
H814 H 0.20663 0.15515 0.39176 0.0
H815 H 0.21508 0.14755 0.31868 0.0
H816 H 0.26604 0.15741 0.3746 0.0
O817 O 0.22253 0.19672 0.31977 0.0
O818 O 0.25498 0.20318 0.34078 0.0
O819 O 0.23675 0.18687 0.39239 0.0
C820 C 0.24339 0.2047 0.31947 0.0
H821 H 0.23192 0.27264 0.38707 0.0
H822 H 0.24079 0.10942 0.3213 0.0
H823 H 0.16822 0.13858 0.39803 0.0
H824 H 0.14293 0.1815 0.33671 0.0
Co825 Co 0.58143 0.47782 0.11291 0.0
C826 C 0.54052 0.44651 0.11626 0.0
C827 C 0.54005 0.47376 0.14407 0.0
C828 C 0.52079 0.46045 0.14749 0.0
N829 N 0.55264 0.46487 0.12483 0.0
N830 N 0.52106 0.44343 0.13005 0.0
H831 H 0.54583 0.43563 0.10054 0.0
H832 H 0.54433 0.48913 0.15471 0.0
C833 C 0.60525 0.48738 0.16244 0.0
O834 O 0.62359 0.47712 0.15301 0.0
N835 N 0.60997 0.49256 0.10116 0.0
C836 C 0.62162 0.48941 0.07911 0.0
C837 C 0.6398 0.50473 0.07807 0.0
C838 C 0.62051 0.51089 0.11219 0.0
N839 N 0.63922 0.51809 0.0991 0.0
C840 C 0.60978 0.43799 0.10293 0.0
C841 C 0.60346 0.41674 0.14965 0.0
C842 C 0.61793 0.40631 0.13166 0.0
C843 C 0.6208 0.41707 0.10795 0.0
C844 C 0.59303 0.43794 0.14397 0.0
N845 N 0.59697 0.4488 0.12117 0.0
H846 H 0.61112 0.44506 0.08408 0.0
H847 H 0.58181 0.44568 0.15803 0.0
H848 H 0.6169 0.47754 0.06413 0.0
H849 H 0.61418 0.51955 0.12902 0.0
O850 O 0.57289 0.47065 0.07833 0.0
O851 O 0.56406 0.50326 0.09807 0.0
O852 O 0.58717 0.48995 0.14865 0.0
C853 C 0.56254 0.4905 0.07759 0.0
H854 H 0.50727 0.46334 0.16136 0.0
H855 H 0.65241 0.50591 0.06293 0.0
H856 H 0.6005 0.40879 0.16806 0.0
H857 H 0.63112 0.40911 0.09315 0.0
Co858 Co 0.29739 0.83069 0.8617 0.0
C859 C 0.32283 0.78545 0.86184 0.0
C860 C 0.31003 0.79468 0.89887 0.0
C861 C 0.31974 0.7732 0.90044 0.0
N862 N 0.31171 0.80251 0.87465 0.0
N863 N 0.32764 0.76732 0.87722 0.0
H864 H 0.32633 0.78571 0.84157 0.0
H865 H 0.30179 0.80345 0.91455 0.0
C866 C 0.28541 0.85506 0.91095 0.0
O867 O 0.295 0.8742 0.90277 0.0
N868 N 0.28199 0.85873 0.84943 0.0
C869 C 0.28818 0.87315 0.83042 0.0
C870 C 0.27317 0.89161 0.82986 0.0
C871 C 0.26242 0.86816 0.85911 0.0
N872 N 0.25708 0.88858 0.84807 0.0
C873 C 0.33862 0.85435 0.84757 0.0
C874 C 0.35773 0.85887 0.8956 0.0
C875 C 0.36953 0.86816 0.87462 0.0
C876 C 0.35987 0.86519 0.85033 0.0
C877 C 0.3364 0.84791 0.8919 0.0
N878 N 0.32638 0.84698 0.86822 0.0
H879 H 0.33252 0.85121 0.8285 0.0
H880 H 0.32821 0.83999 0.90814 0.0
H881 H 0.30241 0.87073 0.81754 0.0
H882 H 0.25266 0.86067 0.87458 0.0
O883 O 0.30357 0.82124 0.82712 0.0
O884 O 0.27191 0.81239 0.84842 0.0
O885 O 0.28497 0.83706 0.89689 0.0
C886 C 0.28398 0.81049 0.82753 0.0
H887 H 0.32048 0.76242 0.91731 0.0
H888 H 0.27413 0.90623 0.81705 0.0
H889 H 0.3648 0.8601 0.91469 0.0
H890 H 0.36889 0.87073 0.83332 0.0
Co891 Co 0.9412 0.5446 0.61285 0.0
C892 C 0.98402 0.57359 0.61527 0.0
C893 C 0.98311 0.54635 0.64307 0.0
C894 C 1.00429 0.55668 0.64427 0.0
N895 N 0.9703 0.55687 0.625 0.0
N896 N 1.00495 0.57368 0.62679 0.0
H897 H 0.9794 0.58434 0.59916 0.0
H898 H 0.97801 0.53119 0.65361 0.0
C899 C 0.91703 0.5354 0.662 0.0
O900 O 0.89888 0.54583 0.65227 0.0
N901 N 0.91243 0.53024 0.60097 0.0
C902 C 0.90072 0.53351 0.57894 0.0
C903 C 0.88253 0.51818 0.57778 0.0
C904 C 0.90192 0.5118 0.61184 0.0
N905 N 0.88318 0.50466 0.5987 0.0
C906 C 0.91344 0.58471 0.60268 0.0
C907 C 0.91962 0.60583 0.6495 0.0
C908 C 0.90511 0.61624 0.63144 0.0
C909 C 0.9024 0.60559 0.60766 0.0
C910 C 0.93012 0.58467 0.64382 0.0
N911 N 0.92614 0.57384 0.62101 0.0
H912 H 0.91216 0.57768 0.5838 0.0
H913 H 0.94131 0.57687 0.65792 0.0
H914 H 0.90543 0.54542 0.56399 0.0
H915 H 0.90835 0.50302 0.62858 0.0
O916 O 0.94981 0.55178 0.57836 0.0
O917 O 0.95823 0.51896 0.59799 0.0
O918 O 0.9352 0.53259 0.64851 0.0
C919 C 0.95999 0.53185 0.57762 0.0
H920 H 0.01855 0.55147 0.65635 0.0
H921 H 0.86992 0.51706 0.56258 0.0
H922 H 0.92249 0.61374 0.66795 0.0
H923 H 0.89211 0.61357 0.59279 0.0
Co924 Co 0.22786 0.83157 0.14457 0.0
C925 C 0.20035 0.78655 0.1403 0.0
C926 C 0.23333 0.78673 0.12186 0.0
C927 C 0.22344 0.76565 0.11787 0.0
N928 N 0.21881 0.80022 0.13538 0.0
N929 N 0.20277 0.76552 0.12942 0.0
H930 H 0.18542 0.79149 0.15121 0.0
H931 H 0.25012 0.79205 0.11513 0.0
C932 C 0.22573 0.83089 0.08824 0.0
O933 O 0.2056 0.82083 0.09109 0.0
N934 N 0.23887 0.86215 0.15292 0.0
C935 C 0.23104 0.87689 0.17077 0.0
C936 C 0.24446 0.89659 0.1701 0.0
C937 C 0.25683 0.87296 0.14173 0.0
N938 N 0.26061 0.8941 0.15174 0.0
C939 C 0.17959 0.83761 0.1538 0.0
C940 C 0.17167 0.87196 0.11829 0.0
C941 C 0.15323 0.86438 0.13345 0.0
C942 C 0.15753 0.84694 0.15136 0.0
C943 C 0.1936 0.86206 0.12135 0.0
N944 N 0.19714 0.84437 0.13822 0.0
H945 H 0.18264 0.82538 0.16892 0.0
H946 H 0.20781 0.86907 0.11056 0.0
H947 H 0.21662 0.87358 0.18329 0.0
H948 H 0.26719 0.86531 0.12681 0.0
O949 O 0.22379 0.82452 0.1801 0.0
O950 O 0.25606 0.81821 0.15877 0.0
O951 O 0.23746 0.83678 0.10789 0.0
C952 C 0.24458 0.81632 0.18009 0.0
H953 H 0.23092 0.75136 0.10746 0.0
H954 H 0.24226 0.9117 0.18199 0.0
H955 H 0.16942 0.886 0.10488 0.0
H956 H 0.14401 0.84069 0.16379 0.0
Co957 Co 0.9389 0.47573 0.89492 0.0
C958 C 0.98082 0.44554 0.89078 0.0
C959 C 0.9812 0.4745 0.86516 0.0
C960 C 1.00088 0.46188 0.8613 0.0
N961 N 0.96841 0.46415 0.88327 0.0
N962 N 1.00067 0.44376 0.87737 0.0
H963 H 0.97538 0.43353 0.90539 0.0
H964 H 0.97668 0.49038 0.85556 0.0
C965 C 0.91541 0.48553 0.84526 0.0
O966 O 0.8971 0.47488 0.85413 0.0
N967 N 0.90952 0.48915 0.90632 0.0
C968 C 0.89671 0.48394 0.92705 0.0
C969 C 0.87771 0.49827 0.92786 0.0
C970 C 0.89879 0.50783 0.89606 0.0
N971 N 0.87897 0.51324 0.90825 0.0
C972 C 0.91323 0.43401 0.90418 0.0
C973 C 0.91921 0.41477 0.85637 0.0
C974 C 0.90558 0.40317 0.87427 0.0
C975 C 0.90296 0.41286 0.89855 0.0
C976 C 0.92883 0.43618 0.86268 0.0
N977 N 0.92483 0.44614 0.88598 0.0
H978 H 0.91235 0.44018 0.92344 0.0
H979 H 0.9395 0.44478 0.84874 0.0
H980 H 0.90112 0.47139 0.94145 0.0
H981 H 0.90528 0.51738 0.87989 0.0
O982 O 0.94742 0.46863 0.92961 0.0
O983 O 0.95489 0.50171 0.91014 0.0
O984 O 0.93324 0.4881 0.85938 0.0
C985 C 0.95695 0.48887 0.93049 0.0
H986 H 0.01459 0.46591 0.84804 0.0
H987 H 0.86432 0.49809 0.94222 0.0
H988 H 0.92206 0.40757 0.83756 0.0
H989 H 0.89336 0.40394 0.91326 0.0
Co990 Co 0.29585 0.19257 0.64102 0.0
C991 C 0.32791 0.23302 0.63889 0.0
C992 C 0.30054 0.23472 0.6112 0.0
C993 C 0.31427 0.25374 0.60819 0.0
N994 N 0.30923 0.22152 0.6301 0.0
N995 N 0.33136 0.25269 0.62555 0.0
H996 H 0.33882 0.22705 0.65432 0.0
H997 H 0.28514 0.23093 0.60036 0.0
C998 C 0.28727 0.17156 0.5893 0.0
O999 O 0.29849 0.15289 0.59632 0.0
N1000 N 0.28075 0.16382 0.65163 0.0
C1001 C 0.28236 0.15279 0.67429 0.0
C1002 C 0.26707 0.13459 0.67466 0.0
C1003 C 0.26347 0.1527 0.63924 0.0
N1004 N 0.25528 0.13446 0.65247 0.0
C1005 C 0.33464 0.16303 0.65134 0.0
C1006 C 0.35797 0.17092 0.6062 0.0
C1007 C 0.36741 0.15554 0.62403 0.0
C1008 C 0.35558 0.15189 0.64694 0.0
C1009 C 0.33671 0.18151 0.61124 0.0
N1010 N 0.32486 0.17686 0.63325 0.0
H1011 H 0.32666 0.16092 0.66966 0.0
H1012 H 0.32971 0.19336 0.59732 0.0
H1013 H 0.29319 0.15798 0.69006 0.0
H1014 H 0.25596 0.15847 0.6215 0.0
O1015 O 0.30233 0.2005 0.67604 0.0
O1016 O 0.27025 0.20978 0.65537 0.0
O1017 O 0.28409 0.18808 0.60507 0.0
C1018 C 0.28252 0.21101 0.67623 0.0
H1019 H 0.31174 0.26754 0.59454 0.0
H1020 H 0.26471 0.12254 0.6902 0.0
H1021 H 0.36673 0.17446 0.5884 0.0
H1022 H 0.3627 0.14083 0.66166 0.0
Co1023 Co 0.5838 0.54647 0.39503 0.0
C1024 C 0.53907 0.57251 0.39331 0.0
C1025 C 0.54154 0.54554 0.36533 0.0
C1026 C 0.5198 0.5547 0.36422 0.0
N1027 N 0.55372 0.55664 0.38343 0.0
N1028 N 0.51811 0.5715 0.38188 0.0
H1029 H 0.54317 0.58353 0.40936 0.0
H1030 H 0.54755 0.53083 0.35458 0.0
C1031 C 0.60855 0.53688 0.34598 0.0
O1032 O 0.62676 0.54731 0.35547 0.0
N1033 N 0.61382 0.53451 0.40616 0.0
C1034 C 0.62911 0.54305 0.42315 0.0
C1035 C 0.64835 0.52904 0.42366 0.0
C1036 C 0.62369 0.51471 0.39767 0.0
N1037 N 0.64504 0.5113 0.40744 0.0
C1038 C 0.60309 0.59067 0.40695 0.0
C1039 C 0.60192 0.60904 0.35833 0.0
C1040 C 0.61041 0.62267 0.37837 0.0
C1041 C 0.61077 0.61314 0.40295 0.0
C1042 C 0.59433 0.58651 0.36324 0.0
N1043 N 0.59611 0.57708 0.38714 0.0
H1044 H 0.60199 0.5846 0.4263 0.0
H1045 H 0.58642 0.57696 0.34787 0.0
H1046 H 0.6268 0.55815 0.43477 0.0
H1047 H 0.61572 0.50345 0.38377 0.0
O1048 O 0.57493 0.55232 0.42983 0.0
O1049 O 0.56909 0.51932 0.40971 0.0
O1050 O 0.59024 0.53485 0.35934 0.0
C1051 C 0.56633 0.5317 0.43029 0.0
H1052 H 0.50599 0.54891 0.35187 0.0
H1053 H 0.66361 0.53174 0.43519 0.0
H1054 H 0.60044 0.61596 0.3392 0.0
H1055 H 0.6168 0.623 0.41919 0.0
H1056 H 0.24545 0.28214 0.17812 0.0
H1057 H 0.28222 0.23167 0.31525 0.0
H1058 H 0.30553 0.30465 0.21989 0.0
H1059 H 0.22286 0.20834 0.27281 0.0
H1060 H 0.29194 0.25753 0.27982 0.0
H1061 H 0.237 0.25474 0.21251 0.0
C1062 C 0.25674 0.28146 0.1946 0.0
C1063 C 0.27617 0.29576 0.19613 0.0
C1064 C 0.27689 0.2466 0.27818 0.0
C1065 C 0.26682 0.26426 0.23544 0.0
C1066 C 0.27146 0.2317 0.29834 0.0
C1067 C 0.25171 0.21782 0.29702 0.0
C1068 C 0.26243 0.24766 0.25659 0.0
C1069 C 0.23824 0.21876 0.2747 0.0
C1070 C 0.252 0.26572 0.21417 0.0
C1071 C 0.29031 0.294 0.21787 0.0
N1072 N 0.24376 0.23349 0.25549 0.0
N1073 N 0.28538 0.27856 0.2366 0.0
H1074 H 0.05676 0.97059 0.52938 0.0
H1075 H 0.96199 0.05637 0.4714 0.0
H1076 H 0.03205 0.03064 0.5696 0.0
H1077 H 0.98418 0.99384 0.43413 0.0
H1078 H 0.98733 0.04748 0.50735 0.0
H1079 H 0.0309 0.97954 0.49414 0.0
C1080 C 0.04598 0.98581 0.53077 0.0
C1081 C 0.04663 0.99991 0.55258 0.0
C1082 C 0.9866 0.03562 0.4914 0.0
C1083 C 0.01662 1.01018 0.51201 0.0
C1084 C 0.97207 0.04063 0.47084 0.0
C1085 C 0.97093 0.0258 0.44965 0.0
C1086 C 1.00028 0.01566 0.49083 0.0
C1087 C 0.98442 1.00571 0.45007 0.0
C1088 C 0.03111 0.99085 0.51058 0.0
C1089 C 0.03221 0.01936 0.55315 0.0
N1090 N 0.9986 1.0013 0.47026 0.0
N1091 N 0.01775 0.0239 0.53318 0.0
H1092 H 0.30675 0.80418 0.78264 0.0
H1093 H 0.21991 0.70855 0.72876 0.0
H1094 H 0.24648 0.78146 0.8237 0.0
H1095 H 0.28141 0.73036 0.6894 0.0
H1096 H 0.2298 0.7341 0.76421 0.0
H1097 H 0.29769 0.77705 0.7486 0.0
C1098 C 0.29148 0.79358 0.78445 0.0
C1099 C 0.2773 0.79519 0.80609 0.0
C1100 C 0.24124 0.73318 0.74793 0.0
C1101 C 0.26692 0.76375 0.76703 0.0
C1102 C 0.23567 0.71849 0.7277 0.0
C1103 C 0.24987 0.71728 0.70603 0.0
C1104 C 0.26112 0.74691 0.74651 0.0
C1105 C 0.27001 0.73065 0.70573 0.0
C1106 C 0.28638 0.77798 0.76498 0.0
C1107 C 0.25782 0.7809 0.80732 0.0
N1108 N 0.27495 0.74499 0.72557 0.0
N1109 N 0.25321 0.76576 0.78807 0.0
H1110 H 0.48688 0.99146 0.07301 0.0
H1111 H 0.54143 0.03153 0.93902 0.0
H1112 H 0.46728 0.05367 0.03328 0.0
H1113 H 0.55886 0.96752 0.97641 0.0
H1114 H 0.51518 0.04059 0.97427 0.0
H1115 H 0.51372 0.98243 0.03818 0.0
C1116 C 0.48804 1.00309 0.05689 0.0
C1117 C 0.47475 0.02331 0.05608 0.0
C1118 C 0.52484 0.0246 0.97483 0.0
C1119 C 0.50564 0.01331 0.01632 0.0
C1120 C 0.53995 0.01951 0.95476 0.0
C1121 C 0.55241 0.99876 0.95473 0.0
C1122 C 0.52215 1.00883 0.99505 0.0
C1123 C 0.54962 0.98374 0.97558 0.0
C1124 C 0.50346 0.99801 0.03706 0.0
C1125 C 0.47714 0.03786 0.03477 0.0
N1126 N 0.53479 0.98903 0.99481 0.0
N1127 N 0.49228 0.03262 0.01585 0.0
H1128 H 0.22551 0.8147 0.22738 0.0
H1129 H 0.30841 0.71476 0.27993 0.0
H1130 H 0.28205 0.78701 0.18357 0.0
H1131 H 0.24808 0.73936 0.31962 0.0
H1132 H 0.3002 0.74174 0.24516 0.0
H1133 H 0.23535 0.78881 0.26232 0.0
C1134 C 0.24022 0.80333 0.2252 0.0
C1135 C 0.25297 0.80303 0.20244 0.0
C1136 C 0.2887 0.74119 0.26141 0.0
C1137 C 0.26419 0.77292 0.24252 0.0
C1138 C 0.29331 0.72571 0.28125 0.0
C1139 C 0.27886 0.72473 0.30273 0.0
C1140 C 0.26954 0.75593 0.26305 0.0
C1141 C 0.25963 0.73942 0.30341 0.0
C1142 C 0.24575 0.78843 0.24518 0.0
C1143 C 0.27184 0.78791 0.20081 0.0
N1144 N 0.25559 0.75444 0.28393 0.0
N1145 N 0.2768 0.77335 0.22053 0.0
H1146 H 0.48605 0.02991 0.43576 0.0
H1147 H 0.53595 0.99069 0.57252 0.0
H1148 H 0.46489 0.96801 0.47491 0.0
H1149 H 0.55657 0.05295 0.53372 0.0
H1150 H 0.51028 0.98168 0.53661 0.0
H1151 H 0.51192 0.03879 0.47154 0.0
C1152 C 0.48668 0.0183 0.45194 0.0
C1153 C 0.47323 0.99822 0.45231 0.0
C1154 C 0.5205 0.99727 0.53592 0.0
C1155 C 0.503 1.00809 0.49324 0.0
C1156 C 0.53526 1.00234 0.55637 0.0
C1157 C 0.54848 0.02258 0.55616 0.0
C1158 C 0.51893 0.01255 0.51508 0.0
C1159 C 0.54673 0.03713 0.53476 0.0
C1160 C 0.50154 0.0233 0.47233 0.0
C1161 C 0.47491 0.98372 0.47376 0.0
N1162 N 0.53223 0.03188 0.51519 0.0
N1163 N 0.48951 0.98889 0.49326 0.0
H1164 H 0.24372 0.23778 0.68161 0.0
H1165 H 0.27916 0.28538 0.82034 0.0
H1166 H 0.30537 0.21662 0.7215 0.0
H1167 H 0.21842 0.30711 0.77912 0.0
H1168 H 0.2893 0.26012 0.78445 0.0
H1169 H 0.23392 0.26285 0.7176 0.0
C1170 C 0.2551 0.23828 0.698 0.0
C1171 C 0.27537 0.22506 0.69852 0.0
C1172 C 0.2738 0.27049 0.78325 0.0
C1173 C 0.26441 0.2539 0.73978 0.0
C1174 C 0.26807 0.28498 0.80369 0.0
C1175 C 0.24794 0.29841 0.80275 0.0
C1176 C 0.25926 0.2694 0.76173 0.0
C1177 C 0.23412 0.29709 0.78073 0.0
C1178 C 0.24957 0.25267 0.71853 0.0
C1179 C 0.28955 0.22649 0.72026 0.0
N1180 N 0.24 0.28285 0.7612 0.0
N1181 N 0.28383 0.24066 0.73995 0.0
H1182 H 0.05756 0.05702 0.96892 0.0
H1183 H 0.96348 0.97152 0.02797 0.0
H1184 H 0.03486 0.99468 0.93171 0.0
H1185 H 0.98755 0.03241 0.06703 0.0
H1186 H 0.98848 0.98063 0.99213 0.0
H1187 H 0.03175 0.0488 0.00448 0.0
C1188 C 0.04722 0.04149 0.96825 0.0
C1189 C 0.04846 0.02647 0.94723 0.0
C1190 C 0.98829 0.9921 0.00843 0.0
C1191 C 0.01858 0.01705 0.98807 0.0
C1192 C 0.97392 0.98696 0.02897 0.0
C1193 C 0.97339 1.00122 0.05066 0.0
C1194 C 1.00243 0.01168 0.0094 0.0
C1195 C 0.98733 0.02098 0.0507 0.0
C1196 C 0.03241 0.03686 0.98861 0.0
C1197 C 0.03457 1.00669 0.94751 0.0
N1198 N 1.00136 0.02557 0.03043 0.0
N1199 N 0.02019 1.00259 0.96757 0.0
H1200 H 0.72318 0.70616 0.77325 0.0
H1201 H 0.80574 0.80638 0.72171 0.0
H1202 H 0.7816 0.73203 0.81548 0.0
H1203 H 0.74561 0.78238 0.6811 0.0
H1204 H 0.7978 0.77868 0.75563 0.0
H1205 H 0.73247 0.73238 0.73835 0.0
C1206 C 0.73821 0.71712 0.77504 0.0
C1207 C 0.75165 0.71687 0.79737 0.0
C1208 C 0.78627 0.77949 0.73938 0.0
C1209 C 0.76217 0.74733 0.75748 0.0
C1210 C 0.79071 0.79542 0.72002 0.0
C1211 C 0.77625 0.79679 0.69853 0.0
C1212 C 0.76724 0.76469 0.7373 0.0
C1213 C 0.75713 0.78204 0.69737 0.0
C1214 C 0.7434 0.73222 0.75512 0.0
C1215 C 0.77084 0.73153 0.79858 0.0
N1216 N 0.75322 0.76656 0.71644 0.0
N1217 N 0.77544 0.74628 0.779 0.0
H1218 H 0.80416 0.31413 0.27401 0.0
H1219 H 0.71934 0.21506 0.22386 0.0
H1220 H 0.74311 0.29226 0.3142 0.0
H1221 H 0.77924 0.23771 0.18212 0.0
H1222 H 0.72812 0.24303 0.2572 0.0
H1223 H 0.79499 0.28703 0.23975 0.0
C1224 C 0.78862 0.30387 0.27547 0.0
C1225 C 0.77435 0.30552 0.29702 0.0
C1226 C 0.73944 0.24185 0.24084 0.0
C1227 C 0.76397 0.2741 0.258 0.0
C1228 C 0.73451 0.22576 0.22182 0.0
C1229 C 0.74862 0.22396 0.20015 0.0
C1230 C 0.75862 0.2564 0.23827 0.0
C1231 C 0.76797 0.2384 0.19855 0.0
C1232 C 0.78349 0.28828 0.25595 0.0
C1233 C 0.75454 0.29167 0.2979 0.0
N1234 N 0.77236 0.25406 0.21731 0.0
N1235 N 0.75003 0.27646 0.27877 0.0
H1236 H 0.71632 0.30508 0.72176 0.0
H1237 H 0.80209 0.20781 0.77487 0.0
H1238 H 0.77695 0.28198 0.68152 0.0
H1239 H 0.74246 0.23184 0.81627 0.0
H1240 H 0.79227 0.23383 0.73991 0.0
H1241 H 0.72528 0.27816 0.75625 0.0
C1242 C 0.73165 0.29447 0.72026 0.0
C1243 C 0.74596 0.29585 0.69871 0.0
C1244 C 0.78122 0.23335 0.75654 0.0
C1245 C 0.75617 0.26471 0.73813 0.0
C1246 C 0.78674 0.21838 0.7765 0.0
C1247 C 0.77306 0.21761 0.79857 0.0
C1248 C 0.76187 0.24779 0.75858 0.0
C1249 C 0.75344 0.23178 0.79958 0.0
C1250 C 0.73669 0.27902 0.73995 0.0
C1251 C 0.76551 0.28159 0.69781 0.0
N1252 N 0.74849 0.24637 0.77993 0.0
N1253 N 0.77 0.26659 0.71719 0.0
H1254 H 0.77983 0.78847 0.32082 0.0
H1255 H 0.74281 0.73709 0.18437 0.0
H1256 H 0.71865 0.80893 0.27958 0.0
H1257 H 0.80576 0.71809 0.22311 0.0
H1258 H 0.73334 0.76282 0.21983 0.0
H1259 H 0.78987 0.76251 0.2855 0.0
C1260 C 0.76865 0.78768 0.30427 0.0
C1261 C 0.74839 0.80092 0.30316 0.0
C1262 C 0.7492 0.75297 0.22064 0.0
C1263 C 0.75956 0.77108 0.26288 0.0
C1264 C 0.75454 0.73817 0.20043 0.0
C1265 C 0.77508 0.7254 0.20076 0.0
C1266 C 0.7645 0.75504 0.24138 0.0
C1267 C 0.78971 0.7276 0.22205 0.0
C1268 C 0.7743 0.77278 0.28417 0.0
C1269 C 0.73444 0.79907 0.28131 0.0
N1270 N 0.78417 0.74217 0.24145 0.0
N1271 N 0.74024 0.78442 0.26214 0.0
H1272 H 0.46566 0.5543 0.97265 0.0
H1273 H 0.55809 0.467 0.03278 0.0
H1274 H 0.48898 0.49266 0.93442 0.0
H1275 H 0.53476 0.52867 0.07093 0.0
H1276 H 0.53321 0.47625 0.99661 0.0
H1277 H 0.49056 0.54503 0.00878 0.0
C1278 C 0.47594 0.5387 0.97189 0.0
C1279 C 0.47519 0.52421 0.95041 0.0
C1280 C 0.53354 0.48783 0.01282 0.0
C1281 C 0.50401 0.51356 0.99189 0.0
C1282 C 0.54782 0.4826 0.03351 0.0
C1283 C 0.54856 0.4971 0.05498 0.0
C1284 C 0.51977 0.50773 0.01347 0.0
C1285 C 0.53481 0.51704 0.05478 0.0
C1286 C 0.49023 0.53346 0.99256 0.0
C1287 C 0.48894 0.50428 0.95058 0.0
N1288 N 0.52095 0.52173 0.03439 0.0
N1289 N 0.50282 0.49957 0.97096 0.0
H1290 H 0.96396 0.55503 0.53257 0.0
H1291 H 0.06253 0.47239 0.47725 0.0
H1292 H 0.98948 0.49489 0.57214 0.0
H1293 H 0.03601 0.53128 0.43622 0.0
H1294 H 0.0368 0.48124 0.51259 0.0
H1295 H 0.99027 0.54691 0.49741 0.0
C1296 C 0.97499 0.53998 0.5338 0.0
C1297 C 0.97447 0.52557 0.55538 0.0
C1298 C 0.03664 0.49234 0.49597 0.0
C1299 C 1.00493 0.51633 0.5151 0.0
C1300 C 0.05143 0.48737 0.47575 0.0
C1301 C 0.05145 0.50113 0.45367 0.0
C1302 C 0.02158 0.51122 0.49422 0.0
C1303 C 0.03666 0.52028 0.45291 0.0
C1304 C 0.99009 0.53542 0.5137 0.0
C1305 C 0.98921 0.50639 0.55586 0.0
N1306 N 0.02223 0.5247 0.47285 0.0
N1307 N 1.00388 0.50237 0.53606 0.0
H1308 H 0.03341 0.49066 0.07365 0.0
H1309 H 0.98349 0.5277 0.93632 0.0
H1310 H 0.05638 0.55012 0.03125 0.0
H1311 H 0.96332 0.46532 0.97518 0.0
H1312 H 1.00937 0.53674 0.97188 0.0
H1313 H 1.00728 0.48099 0.03825 0.0
C1314 C 0.03315 0.50152 0.05683 0.0
C1315 C 0.04714 0.52119 0.05543 0.0
C1316 C 0.99922 0.5211 0.97269 0.0
C1317 C 0.0171 0.51049 0.01507 0.0
C1318 C 0.98434 0.51601 0.95242 0.0
C1319 C 0.97119 0.49575 0.95275 0.0
C1320 C 1.00099 0.50583 0.9935 0.0
C1321 C 0.97313 0.48116 0.9741 0.0
C1322 C 0.01815 0.49609 0.03669 0.0
C1323 C 0.04593 0.53477 0.03324 0.0
N1324 N 0.98775 0.48645 0.99356 0.0
N1325 N 0.03117 0.52923 0.01406 0.0
H1326 H 0.53963 0.49265 0.43498 0.0
H1327 H 0.48669 0.53067 0.57049 0.0
H1328 H 0.55977 0.55428 0.47534 0.0
H1329 H 0.46605 0.46941 0.52974 0.0
H1330 H 0.51342 0.53982 0.53568 0.0
H1331 H 0.51307 0.48339 0.46991 0.0
C1332 C 0.53868 0.50408 0.45129 0.0
C1333 C 0.55199 0.52423 0.45222 0.0
C1334 C 0.50296 0.52443 0.53432 0.0
C1335 C 0.5214 0.51396 0.49212 0.0
C1336 C 0.48759 0.51929 0.55413 0.0
C1337 C 0.47407 0.49928 0.55305 0.0
C1338 C 0.50485 0.50943 0.51328 0.0
C1339 C 0.47611 0.48505 0.53144 0.0
C1340 C 0.5234 0.49888 0.47117 0.0
C1341 C 0.54987 0.53853 0.47377 0.0
N1342 N 0.49122 0.49035 0.51251 0.0
N1343 N 0.53486 0.53317 0.49276 0.0
H1344 H 0.35868 0.25357 0.08682 0.0
H1345 H 0.39054 0.14127 0.16727 0.0
H1346 H 0.34183 0.24721 0.16644 0.0
H1347 H 0.41564 0.15534 0.09138 0.0
H1348 H 0.37497 0.18068 0.16922 0.0
H1349 H 0.38218 0.21871 0.08974 0.0
C1350 C 0.36035 0.24493 0.10506 0.0
C1351 C 0.34843 0.25316 0.1264 0.0
C1352 C 0.38408 0.17516 0.15226 0.0
C1353 C 0.37476 0.2128 0.12992 0.0
C1354 C 0.39302 0.1527 0.15115 0.0
C1355 C 0.40405 0.14481 0.12894 0.0
C1356 C 0.38623 0.18981 0.131 0.0
C1357 C 0.40674 0.16039 0.10864 0.0
C1358 C 0.37368 0.22499 0.10676 0.0
C1359 C 0.35099 0.24141 0.14964 0.0
N1360 N 0.39774 0.18197 0.1101 0.0
N1361 N 0.36361 0.22155 0.15073 0.0
H1362 H 0.02454 0.09122 0.33035 0.0
H1363 H 0.12776 0.14653 0.41138 0.0
H1364 H 0.0237 0.09327 0.41246 0.0
H1365 H 0.12358 0.1462 0.32913 0.0
H1366 H 0.08944 0.12852 0.41314 0.0
H1367 H 0.0599 0.11383 0.33033 0.0
C1368 C 0.03177 0.09676 0.3484 0.0
C1369 C 0.02133 0.09038 0.37141 0.0
C1370 C 0.0969 0.13257 0.39476 0.0
C1371 C 0.06221 0.11596 0.37174 0.0
C1372 C 0.11884 0.14269 0.39372 0.0
C1373 C 0.12893 0.14805 0.37006 0.0
C1374 C 0.08506 0.12766 0.37197 0.0
C1375 C 0.11644 0.14283 0.34782 0.0
C1376 C 0.05201 0.10961 0.34844 0.0
C1377 C 0.03124 0.09803 0.39433 0.0
N1378 N 0.0953 0.13294 0.34935 0.0
N1379 N 0.05136 0.11022 0.39396 0.0
H1380 H 0.15536 0.89214 0.60114 0.0
H1381 H 0.16754 0.76841 0.66553 0.0
H1382 H 0.10237 0.86726 0.65191 0.0
H1383 H 0.19936 0.7885 0.59467 0.0
H1384 H 0.14458 0.8044 0.66453 0.0
H1385 H 0.17414 0.85483 0.60328 0.0
C1386 C 0.14754 0.87876 0.61265 0.0
C1387 C 0.12694 0.88281 0.62593 0.0
C1388 C 0.15647 0.8007 0.64915 0.0
C1389 C 0.14878 0.83973 0.62881 0.0
C1390 C 0.16942 0.78018 0.64964 0.0
C1391 C 0.18565 0.77573 0.63038 0.0
C1392 C 0.16003 0.8167 0.62935 0.0
C1393 C 0.1875 0.79153 0.61023 0.0
C1394 C 0.15834 0.85739 0.61391 0.0
C1395 C 0.1182 0.86492 0.64131 0.0
N1396 N 0.17509 0.81131 0.61039 0.0
N1397 N 0.12915 0.84407 0.64229 0.0
H1398 H 0.50527 0.92449 0.91587 0.0
H1399 H 0.38378 0.90621 0.84848 0.0
H1400 H 0.48935 0.94507 0.83872 0.0
H1401 H 0.40626 0.85895 0.9072 0.0
H1402 H 0.42131 0.9246 0.84965 0.0
H1403 H 0.46866 0.90277 0.91717 0.0
C1404 C 0.49428 0.92421 0.89916 0.0
C1405 C 0.50016 0.93698 0.87731 0.0
C1406 C 0.41812 0.91016 0.86227 0.0
C1407 C 0.45839 0.91276 0.87885 0.0
C1408 C 0.39664 0.89958 0.86158 0.0
C1409 C 0.39189 0.88062 0.87737 0.0
C1410 C 0.43515 0.90207 0.8791 0.0
C1411 C 0.40913 0.87347 0.89464 0.0
C1412 C 0.47339 0.91196 0.89996 0.0
C1413 C 0.48526 0.93606 0.85621 0.0
N1414 N 0.43008 0.88417 0.89501 0.0
N1415 N 0.46506 0.92445 0.85762 0.0
H1416 H 0.41491 0.86775 0.41469 0.0
H1417 H 0.34327 0.77506 0.33351 0.0
H1418 H 0.38969 0.88162 0.33869 0.0
H1419 H 0.35872 0.76927 0.4136 0.0
H1420 H 0.36647 0.81069 0.33173 0.0
H1421 H 0.40049 0.82847 0.41139 0.0
C1422 C 0.40628 0.86254 0.39728 0.0
C1423 C 0.40309 0.87819 0.37715 0.0
C1424 C 0.36512 0.80137 0.34957 0.0
C1425 C 0.38663 0.8329 0.3731 0.0
C1426 C 0.35213 0.78098 0.35048 0.0
C1427 C 0.34922 0.76939 0.37373 0.0
C1428 C 0.3753 0.80992 0.37207 0.0
C1429 C 0.36061 0.77784 0.39537 0.0
C1430 C 0.39815 0.84001 0.39534 0.0
C1431 C 0.39242 0.87016 0.35473 0.0
N1432 N 0.373 0.79762 0.39406 0.0
N1433 N 0.38433 0.84813 0.3534 0.0
H1434 H 0.4087 0.17302 0.60659 0.0
H1435 H 0.47306 0.05173 0.62457 0.0
H1436 H 0.37613 0.10982 0.63048 0.0
H1437 H 0.51044 0.11511 0.61391 0.0
H1438 H 0.43692 0.07254 0.61924 0.0
H1439 H 0.44549 0.15208 0.60234 0.0
C1440 C 0.40924 0.15471 0.61063 0.0
C1441 C 0.38941 0.14315 0.61914 0.0
C1442 C 0.45295 0.08202 0.6179 0.0
C1443 C 0.43121 0.1192 0.61427 0.0
C1444 C 0.47359 0.07011 0.62095 0.0
C1445 C 0.4947 0.08182 0.62011 0.0
C1446 C 0.45322 0.10598 0.61413 0.0
C1447 C 0.49447 0.10554 0.61477 0.0
C1448 C 0.43022 0.14282 0.60832 0.0
C1449 C 0.39106 0.11948 0.62423 0.0
N1450 N 0.47398 0.11697 0.6123 0.0
N1451 N 0.41153 0.10836 0.62179 0.0
H1452 H 0.15953 0.25571 0.90686 0.0
H1453 H 0.14544 0.13528 0.83701 0.0
H1454 H 0.18782 0.24332 0.83231 0.0
H1455 H 0.10337 0.15677 0.90061 0.0
H1456 H 0.15993 0.17486 0.83322 0.0
H1457 H 0.13727 0.22005 0.9035 0.0
C1458 C 0.16052 0.24561 0.88951 0.0
C1459 C 0.17522 0.25235 0.86975 0.0
C1460 C 0.14735 0.17091 0.84783 0.0
C1461 C 0.1506 0.21113 0.86596 0.0
C1462 C 0.13905 0.14832 0.84999 0.0
C1463 C 0.12349 0.14252 0.86949 0.0
C1464 C 0.14011 0.18776 0.86536 0.0
C1465 C 0.11586 0.1602 0.88577 0.0
C1466 C 0.14796 0.22523 0.88758 0.0
C1467 C 0.17636 0.23868 0.84774 0.0
N1468 N 0.12441 0.18187 0.8835 0.0
N1469 N 0.16448 0.21844 0.84657 0.0
H1470 H 0.12463 0.87572 0.17293 0.0
H1471 H 0.02436 0.93116 0.08672 0.0
H1472 H 0.12892 0.87855 0.09076 0.0
H1473 H 0.02661 0.93282 0.16884 0.0
H1474 H 0.06026 0.9082 0.08675 0.0
H1475 H 0.08665 0.89328 0.17083 0.0
C1476 C 0.1175 0.87983 0.15436 0.0
C1477 C 0.13003 0.87545 0.13198 0.0
C1478 C 0.05273 0.91341 0.10474 0.0
C1479 C 0.08628 0.89612 0.12942 0.0
C1480 C 0.03219 0.92628 0.1047 0.0
C1481 C 0.02269 0.93393 0.12781 0.0
C1482 C 0.06357 0.90809 0.12809 0.0
C1483 C 0.03355 0.92744 0.15063 0.0
C1484 C 0.09578 0.89003 0.15317 0.0
C1485 C 0.11997 0.88175 0.10853 0.0
N1486 N 0.05338 0.91503 0.15018 0.0
N1487 N 0.09868 0.89178 0.10784 0.0
H1488 H 0.65725 0.75967 0.8766 0.0
H1489 H 0.64369 0.89308 0.83914 0.0
H1490 H 0.71202 0.80052 0.84465 0.0
H1491 H 0.60283 0.86093 0.89788 0.0
H1492 H 0.6638 0.85637 0.83242 0.0
H1493 H 0.63209 0.79401 0.87609 0.0
C1494 C 0.66378 0.77578 0.86907 0.0
C1495 C 0.6867 0.77744 0.86082 0.0
C1496 C 0.65027 0.85732 0.8466 0.0
C1497 C 0.65826 0.81647 0.86001 0.0
C1498 C 0.6387 0.87819 0.85033 0.0
C1499 C 0.6217 0.88009 0.86923 0.0
C1500 C 0.6446 0.83809 0.86164 0.0
C1501 C 0.61605 0.86027 0.88333 0.0
C1502 C 0.64955 0.79533 0.86894 0.0
C1503 C 0.6945 0.79868 0.85142 0.0
N1504 N 0.6275 0.8401 0.8793 0.0
N1505 N 0.68034 0.81736 0.85128 0.0
H1506 H 1.01113 0.90566 0.61127 0.0
H1507 H 0.87369 0.91595 0.62202 0.0
H1508 H 0.97371 0.9692 0.62131 0.0
H1509 H 0.9089 0.85062 0.61472 0.0
H1510 H 0.91026 0.93568 0.61637 0.0
H1511 H 0.9741 0.88509 0.60692 0.0
C1512 C 0.99512 0.91526 0.61207 0.0
C1513 C 0.99533 0.93902 0.61697 0.0
C1514 C 0.91004 0.91702 0.61583 0.0
C1515 C 0.95321 0.9159 0.61226 0.0
C1516 C 0.88904 0.9057 0.61889 0.0
C1517 C 0.8881 0.88151 0.61897 0.0
C1518 C 0.93045 0.90417 0.61297 0.0
C1519 C 0.90881 0.86927 0.61526 0.0
C1520 C 0.97405 0.90358 0.60978 0.0
C1521 C 0.97421 0.95079 0.61799 0.0
N1522 N 0.92915 0.88072 0.61257 0.0
N1523 N 0.95407 0.93912 0.61585 0.0
H1524 H 0.87931 0.1313 0.33335 0.0
H1525 H 0.8684 0.26424 0.37391 0.0
H1526 H 0.92116 0.16185 0.39242 0.0
H1527 H 0.81266 0.22494 0.3415 0.0
H1528 H 0.89315 0.22964 0.37185 0.0
H1529 H 0.85999 0.16855 0.32716 0.0
C1530 C 0.88468 0.14594 0.34471 0.0
C1531 C 0.90169 0.14345 0.36358 0.0
C1532 C 0.87559 0.22873 0.36488 0.0
C1533 C 0.87974 0.18605 0.35658 0.0
C1534 C 0.8616 0.24844 0.36589 0.0
C1535 C 0.83853 0.24725 0.358 0.0
C1536 C 0.86646 0.20793 0.35547 0.0
C1537 C 0.83033 0.22639 0.34796 0.0
C1538 C 0.87358 0.16713 0.34128 0.0
C1539 C 0.90789 0.16298 0.3779 0.0
N1540 N 0.84425 0.20755 0.34701 0.0
N1541 N 0.89688 0.18345 0.37417 0.0
H1542 H 0.51024 0.11732 0.11664 0.0
H1543 H 0.64809 0.10755 0.12247 0.0
H1544 H 0.54832 0.05376 0.12319 0.0
H1545 H 0.61236 0.17292 0.12103 0.0
H1546 H 0.61141 0.08789 0.11728 0.0
H1547 H 0.54704 0.13834 0.11264 0.0
C1548 C 0.52634 0.10783 0.11678 0.0
C1549 C 0.52638 0.08389 0.12056 0.0
C1550 C 0.61152 0.10655 0.11795 0.0
C1551 C 0.56825 0.10753 0.1162 0.0
C1552 C 0.63258 0.11784 0.12074 0.0
C1553 C 0.63344 0.14199 0.12227 0.0
C1554 C 0.59097 0.11939 0.11679 0.0
C1555 C 0.61254 0.15426 0.12036 0.0
C1556 C 0.54728 0.11976 0.11469 0.0
C1557 C 0.54761 0.07228 0.12074 0.0
N1558 N 0.59216 0.14284 0.11786 0.0
N1559 N 0.56762 0.08419 0.11877 0.0
H1560 H 0.7161 0.22279 0.6329 0.0
H1561 H 0.5967 0.15643 0.65482 0.0
H1562 H 0.65248 0.25942 0.6453 0.0
H1563 H 0.65833 0.12632 0.62315 0.0
H1564 H 0.61743 0.19329 0.65991 0.0
H1565 H 0.69598 0.18636 0.63885 0.0
C1566 C 0.69784 0.22307 0.63718 0.0
C1567 C 0.68582 0.24402 0.63825 0.0
C1568 C 0.6264 0.17852 0.65207 0.0
C1569 C 0.66244 0.2023 0.64477 0.0
C1570 C 0.61465 0.15753 0.64928 0.0
C1571 C 0.62582 0.13843 0.63835 0.0
C1572 C 0.64951 0.18017 0.64425 0.0
C1573 C 0.64901 0.14071 0.63137 0.0
C1574 C 0.68632 0.20229 0.64051 0.0
C1575 C 0.66226 0.24354 0.64428 0.0
N1576 N 0.66002 0.16114 0.63439 0.0
N1577 N 0.65118 0.22292 0.64698 0.0
H1578 H 0.61283 0.85366 0.34293 0.0
H1579 H 0.52412 0.93237 0.4214 0.0
H1580 H 0.63108 0.88653 0.41405 0.0
H1581 H 0.51841 0.91743 0.3412 0.0
H1582 H 0.55919 0.90821 0.42339 0.0
H1583 H 0.57408 0.8696 0.34652 0.0
C1584 C 0.60872 0.86426 0.35933 0.0
C1585 C 0.62548 0.8692 0.37791 0.0
C1586 C 0.55 0.90993 0.40548 0.0
C1587 C 0.5808 0.88723 0.38234 0.0
C1588 C 0.52997 0.92348 0.40443 0.0
C1589 C 0.51857 0.92676 0.3811 0.0
C1590 C 0.5583 0.89945 0.38308 0.0
C1591 C 0.52687 0.91527 0.35948 0.0
C1592 C 0.58651 0.87323 0.36143 0.0
C1593 C 0.61878 0.88236 0.3992 0.0
N1594 N 0.54625 0.90221 0.36096 0.0
N1595 N 0.59701 0.89113 0.40072 0.0
H1596 H 0.87334 0.88898 0.09735 0.0
H1597 H 0.85014 0.77145 0.16782 0.0
H1598 H 0.91981 0.86964 0.15822 0.0
H1599 H 0.84174 0.78142 0.08684 0.0
H1600 H 0.87248 0.8078 0.16976 0.0
H1601 H 0.8562 0.85091 0.09906 0.0
C1602 C 0.88009 0.87669 0.11103 0.0
C1603 C 0.89854 0.88244 0.12717 0.0
C1604 C 0.86599 0.8017 0.15158 0.0
C1605 C 0.8784 0.83862 0.1296 0.0
C1606 C 0.85343 0.78099 0.15045 0.0
C1607 C 0.84378 0.77371 0.12719 0.0
C1608 C 0.86852 0.81506 0.12936 0.0
C1609 C 0.8484 0.7867 0.10523 0.0
C1610 C 0.87021 0.85492 0.11203 0.0
C1611 C 0.90573 0.86594 0.14529 0.0
N1612 N 0.86008 0.80684 0.10692 0.0
N1613 N 0.89566 0.84465 0.146 0.0
H1614 H 0.98289 0.06403 0.83942 0.0
H1615 H 0.89383 0.14292 0.91521 0.0
H1616 H 1.00429 0.09939 0.90788 0.0
H1617 H 0.89269 0.1327 0.83372 0.0
H1618 H 0.93065 0.12151 0.91734 0.0
H1619 H 0.9455 0.08272 0.84215 0.0
C1620 C 0.97975 0.07578 0.85507 0.0
C1621 C 0.99703 0.08062 0.87307 0.0
C1622 C 0.92226 0.12403 0.89907 0.0
C1623 C 0.95381 0.1019 0.87651 0.0
C1624 C 0.90131 0.13611 0.89784 0.0
C1625 C 0.89037 0.13966 0.87422 0.0
C1626 C 0.93186 0.11503 0.87658 0.0
C1627 C 0.90069 0.13056 0.85226 0.0
C1628 C 0.95832 0.0864 0.85664 0.0
C1629 C 0.99152 0.09533 0.89351 0.0
N1630 N 0.92074 0.11858 0.854 0.0
N1631 N 0.97036 0.10566 0.8946 0.0
H1632 H 0.92218 0.65674 0.65141 0.0
H1633 H 0.80181 0.72221 0.63125 0.0
H1634 H 0.85963 0.62518 0.62389 0.0
H1635 H 0.86534 0.7588 0.6442 0.0
H1636 H 0.82212 0.68579 0.63682 0.0
H1637 H 0.9012 0.69344 0.65643 0.0
C1638 C 0.90399 0.65748 0.64676 0.0
C1639 C 0.89263 0.63801 0.63698 0.0
C1640 C 0.83171 0.70172 0.63864 0.0
C1641 C 0.86865 0.67965 0.64273 0.0
C1642 C 0.82009 0.72251 0.63544 0.0
C1643 C 0.83204 0.74347 0.63681 0.0
C1644 C 0.85559 0.70172 0.64306 0.0
C1645 C 0.8556 0.74294 0.64291 0.0
C1646 C 0.89208 0.6784 0.64951 0.0
C1647 C 0.86911 0.63987 0.63114 0.0
N1648 N 0.86675 0.72233 0.64548 0.0
N1649 N 0.85796 0.66028 0.63403 0.0
H1650 H 0.62788 0.64956 0.91522 0.0
H1651 H 0.5208 0.60056 0.83505 0.0
H1652 H 0.62361 0.64669 0.833 0.0
H1653 H 0.52575 0.59182 0.91643 0.0
H1654 H 0.55614 0.62324 0.83563 0.0
H1655 H 0.58913 0.63245 0.91764 0.0
C1656 C 0.61887 0.64536 0.89771 0.0
C1657 C 0.62904 0.64985 0.87386 0.0
C1658 C 0.54951 0.61664 0.8535 0.0
C1659 C 0.58466 0.63065 0.87653 0.0
C1660 C 0.52924 0.60387 0.85314 0.0
C1661 C 0.5205 0.59437 0.87568 0.0
C1662 C 0.56145 0.61976 0.87659 0.0
C1663 C 0.53197 0.59906 0.8987 0.0
C1664 C 0.59671 0.63576 0.89913 0.0
C1665 C 0.61643 0.64416 0.85184 0.0
N1666 N 0.55212 0.61122 0.89856 0.0
N1667 N 0.59503 0.63495 0.85375 0.0
H1668 H 0.60031 0.36593 0.15123 0.0
H1669 H 0.7213 0.30033 0.1379 0.0
H1670 H 0.6634 0.39692 0.12468 0.0
H1671 H 0.65713 0.26353 0.1446 0.0
H1672 H 0.7006 0.33667 0.14229 0.0
H1673 H 0.62101 0.32916 0.1571 0.0
C1674 C 0.61855 0.36504 0.14694 0.0
C1675 C 0.63017 0.38439 0.13725 0.0
C1676 C 0.69096 0.3207 0.14301 0.0
C1677 C 0.65384 0.34269 0.14406 0.0
C1678 C 0.70279 0.29995 0.14052 0.0
C1679 C 0.69082 0.27897 0.14043 0.0
C1680 C 0.66686 0.32062 0.14529 0.0
C1681 C 0.66691 0.27941 0.1445 0.0
C1682 C 0.63029 0.34409 0.15018 0.0
C1683 C 0.65374 0.38234 0.13187 0.0
N1684 N 0.65559 0.29999 0.14643 0.0
N1685 N 0.66474 0.36191 0.13532 0.0
H1686 H 0.97503 0.4692 0.39343 0.0
H1687 H 0.913 0.34751 0.37471 0.0
H1688 H 0.01309 0.40596 0.38442 0.0
H1689 H 0.87733 0.4113 0.39055 0.0
H1690 H 0.94985 0.36744 0.38081 0.0
H1691 H 0.93928 0.44723 0.39601 0.0
C1692 C 0.97577 0.45056 0.39235 0.0
C1693 C 0.9969 0.43931 0.3886 0.0
C1694 C 0.93394 0.37699 0.38319 0.0
C1695 C 0.95598 0.41391 0.39099 0.0
C1696 C 0.91288 0.36567 0.37955 0.0
C1697 C 0.89194 0.37773 0.38201 0.0
C1698 C 0.9341 0.40059 0.3892 0.0
C1699 C 0.89291 0.40116 0.3887 0.0
C1700 C 0.95539 0.43799 0.39376 0.0
C1701 C 0.99708 0.41516 0.38743 0.0
N1702 N 0.91357 0.41179 0.39186 0.0
N1703 N 0.97684 0.40322 0.38825 0.0
H1704 H 0.9241 0.3632 0.85452 0.0
H1705 H 0.80241 0.29834 0.85702 0.0
H1706 H 0.86014 0.39345 0.87973 0.0
H1707 H 0.8664 0.26056 0.85962 0.0
H1708 H 0.82391 0.33432 0.85474 0.0
H1709 H 0.90376 0.32644 0.84705 0.0
C1710 C 0.90576 0.36214 0.85819 0.0
C1711 C 0.89374 0.38126 0.8679 0.0
C1712 C 0.83334 0.3182 0.8556 0.0
C1713 C 0.8705 0.33969 0.85916 0.0
C1714 C 0.82107 0.29766 0.85687 0.0
C1715 C 0.83267 0.27651 0.85901 0.0
C1716 C 0.85751 0.31776 0.85651 0.0
C1717 C 0.85686 0.27656 0.85809 0.0
C1718 C 0.89423 0.34121 0.85404 0.0
C1719 C 0.87006 0.37904 0.87247 0.0
N1720 N 0.86857 0.29696 0.85723 0.0
N1721 N 0.85925 0.3587 0.86804 0.0
H1722 H 0.90764 0.67417 0.10387 0.0
H1723 H 0.97068 0.55217 0.12166 0.0
H1724 H 0.87458 0.61154 0.12872 0.0
H1725 H 1.00839 0.61489 0.10802 0.0
H1726 H 0.93462 0.57322 0.11656 0.0
H1727 H 0.94387 0.65252 0.09824 0.0
C1728 C 0.90795 0.65583 0.1078 0.0
C1729 C 0.88819 0.64464 0.11705 0.0
C1730 C 0.9507 0.58248 0.11447 0.0
C1731 C 0.92932 0.61989 0.11062 0.0
C1732 C 0.9713 0.57043 0.11738 0.0
C1733 C 0.99249 0.58192 0.11566 0.0
C1734 C 0.95114 0.60636 0.11002 0.0
C1735 C 0.99235 0.60549 0.10955 0.0
C1736 C 0.92861 0.64354 0.1047 0.0
C1737 C 0.8895 0.62091 0.12194 0.0
N1738 N 0.97194 0.61707 0.10729 0.0
N1739 N 0.90967 0.6094 0.11877 0.0
H1740 H 0.66496 0.7559 0.41251 0.0
H1741 H 0.63584 0.64023 0.33837 0.0
H1742 H 0.68312 0.74663 0.33362 0.0
H1743 H 0.60304 0.66041 0.40879 0.0
H1744 H 0.65206 0.67918 0.33473 0.0
H1745 H 0.64093 0.72135 0.41045 0.0
C1746 C 0.66344 0.74669 0.39461 0.0
C1747 C 0.67582 0.75402 0.3732 0.0
C1748 C 0.64111 0.6751 0.35081 0.0
C1749 C 0.64897 0.71405 0.37071 0.0
C1750 C 0.63179 0.65289 0.35288 0.0
C1751 C 0.61839 0.64683 0.37419 0.0
C1752 C 0.63708 0.69132 0.37024 0.0
C1753 C 0.6138 0.66399 0.39241 0.0
C1754 C 0.64981 0.72696 0.39339 0.0
C1755 C 0.67357 0.74153 0.35042 0.0
N1756 N 0.6233 0.68528 0.39016 0.0
N1757 N 0.66067 0.72187 0.34984 0.0
H1758 H 0.64746 0.41205 0.62732 0.0
H1759 H 0.51075 0.4054 0.60937 0.0
H1760 H 0.61326 0.34885 0.60638 0.0
H1761 H 0.54927 0.468 0.62086 0.0
H1762 H 0.54745 0.38416 0.60471 0.0
H1763 H 0.61125 0.43277 0.62206 0.0
C1764 C 0.63225 0.40256 0.62149 0.0
C1765 C 0.63329 0.3787 0.61752 0.0
C1766 C 0.5478 0.4026 0.60794 0.0
C1767 C 0.59146 0.40231 0.61157 0.0
C1768 C 0.52691 0.41467 0.61046 0.0
C1769 C 0.52708 0.43835 0.61593 0.0
C1770 C 0.56883 0.41444 0.61085 0.0
C1771 C 0.54841 0.44965 0.61723 0.0
C1772 C 0.61154 0.4144 0.61839 0.0
C1773 C 0.61314 0.36728 0.60963 0.0
N1774 N 0.56833 0.4376 0.61495 0.0
N1775 N 0.59292 0.37915 0.60721 0.0
H1776 H 0.10322 0.36892 0.34554 0.0
H1777 H 0.19741 0.28621 0.4095 0.0
H1778 H 0.15049 0.38843 0.40548 0.0
H1779 H 0.16917 0.27066 0.33538 0.0
H1780 H 0.17443 0.32123 0.41096 0.0
H1781 H 0.12275 0.33118 0.34282 0.0
C1782 C 0.11771 0.36537 0.358 0.0
C1783 C 0.12496 0.38179 0.37607 0.0
C1784 C 0.17312 0.31024 0.39431 0.0
C1785 C 0.14696 0.33874 0.37333 0.0
C1786 C 0.18622 0.2902 0.39353 0.0
C1787 C 0.18546 0.27577 0.37212 0.0
C1788 C 0.15905 0.31613 0.37348 0.0
C1789 C 0.17023 0.28144 0.35219 0.0
C1790 C 0.12872 0.34381 0.35652 0.0
C1791 C 0.14381 0.37619 0.39174 0.0
N1792 N 0.15771 0.3014 0.35321 0.0
N1793 N 0.15397 0.3552 0.3901 0.0
H1794 H 0.50363 0.4168 0.16699 0.0
H1795 H 0.39142 0.38478 0.08672 0.0
H1796 H 0.4975 0.4324 0.08699 0.0
H1797 H 0.40524 0.36024 0.163 0.0
H1798 H 0.43084 0.40009 0.08475 0.0
H1799 H 0.46869 0.39347 0.16443 0.0
C1800 C 0.49503 0.41486 0.14875 0.0
C1801 C 0.50332 0.42639 0.12718 0.0
C1802 C 0.42526 0.39117 0.10181 0.0
C1803 C 0.4629 0.40032 0.12407 0.0
C1804 C 0.40278 0.3824 0.10295 0.0
C1805 C 0.39483 0.37157 0.12525 0.0
C1806 C 0.43986 0.38909 0.12314 0.0
C1807 C 0.41033 0.36901 0.14568 0.0
C1808 C 0.47505 0.40164 0.14725 0.0
C1809 C 0.49164 0.42353 0.10395 0.0
N1810 N 0.43194 0.37785 0.14419 0.0
N1811 N 0.47173 0.41105 0.10305 0.0
H1812 H 0.36476 0.75773 0.84729 0.0
H1813 H 0.35978 0.62404 0.88626 0.0
H1814 H 0.31145 0.72623 0.89248 0.0
H1815 H 0.41946 0.65436 0.8506 0.0
H1816 H 0.33948 0.6606 0.88199 0.0
H1817 H 0.38275 0.7194 0.84167 0.0
C1818 C 0.3567 0.74268 0.85562 0.0
C1819 C 0.33682 0.74504 0.87061 0.0
C1820 C 0.35698 0.65934 0.87494 0.0
C1821 C 0.35704 0.70151 0.86439 0.0
C1822 C 0.3686 0.63844 0.87745 0.0
C1823 C 0.39148 0.63624 0.86916 0.0
C1824 C 0.36827 0.67843 0.86418 0.0
C1825 C 0.40185 0.65534 0.85732 0.0
C1826 C 0.36697 0.72091 0.85257 0.0
C1827 C 0.32699 0.72514 0.88113 0.0
N1828 N 0.39026 0.67576 0.85544 0.0
N1829 N 0.33722 0.70432 0.87793 0.0
H1830 H 0.14682 0.61144 0.6157 0.0
H1831 H 1.00875 0.61999 0.62008 0.0
H1832 H 0.11076 0.67572 0.62757 0.0
H1833 H 0.04747 0.5566 0.61949 0.0
H1834 H 0.04522 0.64164 0.61611 0.0
H1835 H 0.10996 0.59205 0.6104 0.0
C1836 C 0.13117 0.62159 0.61686 0.0
C1837 C 0.13201 0.64531 0.62216 0.0
C1838 C 0.04567 0.62298 0.61654 0.0
C1839 C 0.08941 0.62295 0.61652 0.0
C1840 C 0.0249 0.6107 0.61858 0.0
C1841 C 0.02527 0.58658 0.6203 0.0
C1842 C 0.06676 0.61091 0.61598 0.0
C1843 C 0.04656 0.57522 0.61852 0.0
C1844 C 0.11004 0.61043 0.61401 0.0
C1845 C 0.11098 0.65736 0.62388 0.0
N1846 N 0.0664 0.58745 0.61659 0.0
N1847 N 0.09054 0.64605 0.62119 0.0
H1848 H 0.12701 0.64607 0.08254 0.0
H1849 H 0.17955 0.74691 0.16943 0.0
H1850 H 0.13326 0.63939 0.16426 0.0
H1851 H 0.19074 0.74046 0.08854 0.0
H1852 H 0.15702 0.71078 0.16851 0.0
H1853 H 0.14518 0.68386 0.08499 0.0
C1854 C 0.13212 0.65263 0.10106 0.0
C1855 C 0.12858 0.63957 0.12324 0.0
C1856 C 0.16427 0.71744 0.15097 0.0
C1857 C 0.14953 0.68297 0.12621 0.0
C1858 C 0.17686 0.73807 0.15147 0.0
C1859 C 0.18695 0.74648 0.12903 0.0
C1860 C 0.16157 0.70551 0.12777 0.0
C1861 C 0.18331 0.73438 0.10624 0.0
C1862 C 0.14259 0.67419 0.10244 0.0
C1863 C 0.13586 0.64884 0.14668 0.0
N1864 N 0.17096 0.71455 0.10619 0.0
N1865 N 0.14594 0.67005 0.14759 0.0
H1866 H 0.02291 0.42917 0.92007 0.0
H1867 H 0.11635 0.3601 0.83707 0.0
H1868 H 0.01999 0.42074 0.83853 0.0
H1869 H 0.13 0.3831 0.91395 0.0
H1870 H 0.07751 0.37581 0.84012 0.0
H1871 H 0.05849 0.4057 0.921 0.0
C1872 C 0.02949 0.42185 0.90251 0.0
C1873 C 0.01868 0.42678 0.87918 0.0
C1874 C 0.08893 0.37738 0.8564 0.0
C1875 C 0.0591 0.40033 0.87996 0.0
C1876 C 0.11123 0.36853 0.85461 0.0
C1877 C 0.12673 0.37069 0.87509 0.0
C1878 C 0.08185 0.3885 0.87886 0.0
C1879 C 0.1187 0.38111 0.89764 0.0
C1880 C 0.04983 0.40871 0.90298 0.0
C1881 C 0.02795 0.41731 0.85685 0.0
N1882 N 0.09688 0.38982 0.89886 0.0
N1883 N 0.04762 0.40464 0.85777 0.0
H1884 H 0.39237 0.38162 0.66635 0.0
H1885 H 0.35953 0.26807 0.58897 0.0
H1886 H 0.41624 0.36628 0.59027 0.0
H1887 H 0.3422 0.27691 0.66814 0.0
H1888 H 0.38375 0.30243 0.59099 0.0
H1889 H 0.37694 0.3423 0.66946 0.0
C1890 C 0.39461 0.36992 0.65043 0.0
C1891 C 0.40526 0.37742 0.62783 0.0
C1892 C 0.37503 0.29677 0.60813 0.0
C1893 C 0.3876 0.3325 0.63123 0.0
C1894 C 0.36133 0.2771 0.60695 0.0
C1895 C 0.34905 0.26977 0.62842 0.0
C1896 C 0.37607 0.30959 0.63087 0.0
C1897 C 0.35166 0.28203 0.65129 0.0
C1898 C 0.38576 0.34751 0.6522 0.0
C1899 C 0.40764 0.36151 0.60781 0.0
N1900 N 0.36463 0.30163 0.65185 0.0
N1901 N 0.39873 0.33997 0.60991 0.0
H1902 H 0.3766 0.60856 0.37483 0.0
H1903 H 0.51298 0.61677 0.39483 0.0
H1904 H 0.40945 0.6718 0.39809 0.0
H1905 H 0.47533 0.55366 0.38312 0.0
H1906 H 0.47596 0.63754 0.39905 0.0
H1907 H 0.41308 0.5883 0.38018 0.0
C1908 C 0.39156 0.61815 0.38121 0.0
C1909 C 0.39007 0.64189 0.38584 0.0
C1910 C 0.47588 0.6191 0.39585 0.0
C1911 C 0.43221 0.61883 0.39186 0.0
C1912 C 0.49695 0.60729 0.39358 0.0
C1913 C 0.49714 0.58358 0.38818 0.0
C1914 C 0.45502 0.60699 0.39275 0.0
C1915 C 0.47596 0.57203 0.38667 0.0
C1916 C 0.41243 0.60658 0.38435 0.0
C1917 C 0.40993 0.65345 0.39436 0.0
N1918 N 0.45586 0.58383 0.38871 0.0
N1919 N 0.43031 0.64186 0.3968 0.0
H1920 H 0.28264 0.39328 0.06001 0.0
H1921 H 0.24831 0.31825 0.93799 0.0
H1922 H 0.27356 0.31943 0.06198 0.0
H1923 H 0.23865 0.39202 0.94139 0.0
H1924 H 0.2611 0.31862 0.98236 0.0
H1925 H 0.2697 0.39343 0.01551 0.0
C1926 C 0.27793 0.3771 0.05111 0.0
C1927 C 0.27922 0.3563 0.06475 0.0
C1928 C 0.25615 0.33472 0.97342 0.0
C1929 C 0.26457 0.35635 0.01385 0.0
C1930 C 0.24892 0.33454 0.94803 0.0
C1931 C 0.24231 0.35512 0.93595 0.0
C1932 C 0.25703 0.35567 0.98682 0.0
C1933 C 0.24346 0.37572 0.94998 0.0
C1934 C 0.27049 0.37722 0.02574 0.0
C1935 C 0.2728 0.33587 0.05226 0.0
N1936 N 0.25075 0.37549 0.97466 0.0
N1937 N 0.26588 0.3364 0.0275 0.0
H1938 H 0.87795 0.99454 0.18766 0.0
H1939 H 0.95213 0.02059 0.31327 0.0
H1940 H 0.95203 1.00164 0.18763 0.0
H1941 H 0.8782 0.02882 0.30975 0.0
H1942 H 0.95225 1.01029 0.26807 0.0
H1943 H 0.87755 1.00436 0.23306 0.0
C1944 C 0.89413 0.99824 0.19716 0.0
C1945 C 0.91506 0.99728 0.18378 0.0
C1946 C 0.93599 0.01432 0.27719 0.0
C1947 C 0.91473 1.00831 0.23583 0.0
C1948 C 0.93589 0.02006 0.30307 0.0
C1949 C 0.91511 0.02562 0.31536 0.0
C1950 C 0.91516 0.01392 0.26348 0.0
C1951 C 0.89463 0.02475 0.30106 0.0
C1952 C 0.89388 1.00385 0.22308 0.0
C1953 C 0.93548 1.00227 0.19711 0.0
N1954 N 0.89517 0.01901 0.2759 0.0
N1955 N 0.93481 1.00745 0.2224 0.0
H1956 H 0.26417 0.66623 0.57572 0.0
H1957 H 0.25665 0.70296 0.42883 0.0
H1958 H 0.21395 0.71386 0.5451 0.0
H1959 H 0.29632 0.64423 0.45436 0.0
H1960 H 0.24287 0.70858 0.47222 0.0
H1961 H 0.27845 0.65942 0.53226 0.0
C1962 C 0.25623 0.67532 0.55991 0.0
C1963 C 0.23784 0.69064 0.56402 0.0
C1964 C 0.25452 0.69438 0.46838 0.0
C1965 C 0.25402 0.68294 0.51448 0.0
C1966 C 0.26243 0.69118 0.44357 0.0
C1967 C 0.27767 0.67309 0.43794 0.0
C1968 C 0.262 0.67953 0.48788 0.0
C1969 C 0.28449 0.65834 0.45785 0.0
C1970 C 0.2643 0.67133 0.53514 0.0
C1971 C 0.2281 0.70185 0.54285 0.0
N1972 N 0.2767 0.66195 0.48202 0.0
N1973 N 0.23634 0.69782 0.51907 0.0
H1974 H 0.64613 0.99475 0.81636 0.0
H1975 H 0.56907 0.02022 0.69282 0.0
H1976 H 0.57201 1.00137 0.81861 0.0
H1977 H 0.64258 0.03159 0.69515 0.0
H1978 H 0.57004 1.00986 0.73803 0.0
H1979 H 0.64539 1.00539 0.77116 0.0
C1980 C 0.62971 0.99854 0.80739 0.0
C1981 C 0.6091 0.99719 0.82132 0.0
C1982 C 0.58596 0.01462 0.72863 0.0
C1983 C 0.60812 1.00911 0.76952 0.0
C1984 C 0.58544 0.02041 0.70276 0.0
C1985 C 0.60577 0.02683 0.69014 0.0
C1986 C 0.60699 0.015 0.74197 0.0
C1987 C 0.62647 0.02684 0.70411 0.0
C1988 C 0.62931 1.00461 0.78159 0.0
C1989 C 0.58833 1.00231 0.80869 0.0
N1990 N 0.62655 0.02098 0.72924 0.0
N1991 N 0.58837 1.00789 0.78348 0.0
H1992 H 0.755 0.70454 0.07432 0.0
H1993 H 0.76277 0.66777 0.92757 0.0
H1994 H 0.79561 0.64657 0.04867 0.0
H1995 H 0.71241 0.71546 0.95758 0.0
H1996 H 0.77682 0.66098 0.97111 0.0
H1997 H 0.74081 0.70988 0.03098 0.0
C1998 C 0.7609 0.69286 0.05958 0.0
C1999 C 0.77654 0.67508 0.06515 0.0
C2000 C 0.76268 0.67289 0.9681 0.0
C2001 C 0.7604 0.68121 0.01527 0.0
C2002 C 0.75472 0.67686 0.94327 0.0
C2003 C 0.7364 0.69224 0.93893 0.0
C2004 C 0.75235 0.68454 0.98864 0.0
C2005 C 0.72654 0.70344 0.95999 0.0
C2006 C 0.75274 0.69591 0.03479 0.0
C2007 C 0.7835 0.66046 0.04523 0.0
N2008 N 0.73468 0.69941 0.98388 0.0
N2009 N 0.77547 0.66392 0.0211 0.0
H2010 H 0.14739 0.02506 0.81169 0.0
H2011 H 0.06979 0.99928 0.68894 0.0
H2012 H 0.07366 0.01515 0.81467 0.0
H2013 H 0.14368 0.99019 0.68943 0.0
H2014 H 0.07115 1.00844 0.73437 0.0
H2015 H 0.1467 0.01478 0.76638 0.0
C2016 C 0.13108 0.02063 0.80289 0.0
C2017 C 0.11053 0.02117 0.81702 0.0
C2018 C 0.08707 1.00443 0.72455 0.0
C2019 C 0.10961 1.00965 0.76512 0.0
C2020 C 0.08633 0.99932 0.69854 0.0
C2021 C 0.10665 0.9939 0.68532 0.0
C2022 C 0.10832 1.00436 0.73745 0.0
C2023 C 0.12757 0.99417 0.69887 0.0
C2024 C 0.13071 0.01478 0.77702 0.0
C2025 C 0.08992 0.01517 0.80457 0.0
N2026 N 0.12788 0.99937 0.72418 0.0
N2027 N 0.08997 1.00985 0.77933 0.0
H2028 H 0.76686 0.31896 0.57338 0.0
H2029 H 0.75913 0.35525 0.42646 0.0
H2030 H 0.72509 0.37601 0.54727 0.0
H2031 H 0.81029 0.30879 0.45741 0.0
H2032 H 0.7445 0.36179 0.46979 0.0
H2033 H 0.78126 0.31383 0.53019 0.0
C2034 C 0.76074 0.33047 0.55855 0.0
C2035 C 0.74471 0.34793 0.56394 0.0
C2036 C 0.75894 0.3502 0.46702 0.0
C2037 C 0.76111 0.34205 0.51424 0.0
C2038 C 0.76721 0.34637 0.44232 0.0
C2039 C 0.78595 0.33144 0.43833 0.0
C2040 C 0.76937 0.33884 0.48774 0.0
C2041 C 0.79586 0.32049 0.45956 0.0
C2042 C 0.76901 0.32755 0.53386 0.0
C2043 C 0.7375 0.36238 0.54394 0.0
N2044 N 0.78742 0.32437 0.48329 0.0
N2045 N 0.74566 0.35904 0.51988 0.0
H2046 H 0.45347 1.00029 0.31646 0.0
H2047 H 0.37895 0.0337 0.19346 0.0
H2048 H 0.37973 0.9909 0.31252 0.0
H2049 H 0.45262 0.02317 0.19158 0.0
H2050 H 0.37873 0.02155 0.23822 0.0
H2051 H 0.45333 0.0126 0.27186 0.0
C2052 C 0.43723 1.00091 0.30627 0.0
C2053 C 0.41659 0.9945 0.31825 0.0
C2054 C 0.39492 0.02184 0.22796 0.0
C2055 C 0.41631 1.00861 0.26715 0.0
C2056 C 0.39507 0.02882 0.20244 0.0
C2057 C 0.41584 0.02944 0.18874 0.0
C2058 C 0.41572 0.01573 0.23996 0.0
C2059 C 0.4362 0.02286 0.20133 0.0
C2060 C 0.43718 1.00784 0.28076 0.0
C2061 C 0.39607 0.99558 0.30402 0.0
N2062 N 0.43564 0.01641 0.22626 0.0
N2063 N 0.39643 1.00257 0.27924 0.0
H2064 H 0.75047 0.82679 0.56985 0.0
H2065 H 0.75848 0.89048 0.43609 0.0
H2066 H 0.81359 0.85939 0.5458 0.0
H2067 H 0.72803 0.82294 0.4427 0.0
H2068 H 0.7713 0.88767 0.48086 0.0
H2069 H 0.7341 0.83394 0.52714 0.0
C2070 C 0.76068 0.83576 0.55569 0.0
C2071 C 0.78339 0.84238 0.56106 0.0
C2072 C 0.76164 0.87361 0.47243 0.0
C2073 C 0.7648 0.85094 0.51294 0.0
C2074 C 0.75433 0.87521 0.44708 0.0
C2075 C 0.74245 0.8568 0.43584 0.0
C2076 C 0.7563 0.85382 0.48665 0.0
C2077 C 0.73744 0.83734 0.45071 0.0
C2078 C 0.75143 0.83971 0.53145 0.0
C2079 C 0.79606 0.85384 0.54217 0.0
N2080 N 0.74428 0.83639 0.47548 0.0
N2081 N 0.78656 0.85788 0.51889 0.0
H2082 H 0.45532 0.52116 0.81389 0.0
H2083 H 0.38015 0.48732 0.69159 0.0
H2084 H 0.38124 0.52809 0.81125 0.0
H2085 H 0.45359 0.49897 0.68888 0.0
H2086 H 0.38019 0.49891 0.73648 0.0
H2087 H 0.45502 0.50927 0.76915 0.0
C2088 C 0.43898 0.52006 0.80396 0.0
C2089 C 0.41828 0.52567 0.81633 0.0
C2090 C 0.39628 0.49899 0.72602 0.0
C2091 C 0.41782 0.51208 0.7651 0.0
C2092 C 0.39628 0.49233 0.70041 0.0
C2093 C 0.41691 0.49217 0.68645 0.0
C2094 C 0.41709 0.50527 0.73784 0.0
C2095 C 0.43728 0.49892 0.69885 0.0
C2096 C 0.43883 0.51339 0.77838 0.0
C2097 C 0.39762 0.52403 0.80244 0.0
N2098 N 0.43688 0.50507 0.72387 0.0
N2099 N 0.3979 0.51733 0.77758 0.0
H2100 H 0.77255 0.1819 0.07603 0.0
H2101 H 0.75182 0.17835 0.92501 0.0
H2102 H 0.70535 0.18657 0.04077 0.0
H2103 H 0.81799 0.19181 0.95985 0.0
H2104 H 0.73492 0.17469 0.96757 0.0
H2105 H 0.78988 0.17879 0.03361 0.0
C2106 C 0.76144 0.18208 0.0594 0.0
C2107 C 0.73751 0.18476 0.06188 0.0
C2108 C 0.75316 0.17834 0.96585 0.0
C2109 C 0.75716 0.18116 0.01346 0.0
C2110 C 0.76281 0.18039 0.94159 0.0
C2111 C 0.78628 0.18564 0.93892 0.0
C2112 C 0.76713 0.18138 0.98752 0.0
C2113 C 0.79976 0.18801 0.96104 0.0
C2114 C 0.77133 0.18037 0.03521 0.0
C2115 C 0.72391 0.1848 0.03971 0.0
N2116 N 0.78996 0.18593 0.98442 0.0
N2117 N 0.73393 0.18312 0.01641 0.0
H2118 H 0.1383 0.51411 0.31895 0.0
H2119 H 0.07591 0.50307 0.18513 0.0
H2120 H 0.07089 0.48324 0.31297 0.0
H2121 H 0.10612 0.56777 0.20802 0.0
H2122 H 0.08247 0.48811 0.22853 0.0
H2123 H 0.13496 0.52695 0.27423 0.0
C2124 C 0.12293 0.50992 0.30814 0.0
C2125 C 0.10475 0.49782 0.31953 0.0
C2126 C 0.08781 0.50549 0.22385 0.0
C2127 C 0.10119 0.5117 0.26873 0.0
C2128 C 0.0842 0.51396 0.19921 0.0
C2129 C 0.09036 0.53668 0.19323 0.0
C2130 C 0.09829 0.51965 0.24222 0.0
C2131 C 0.10095 0.55021 0.21208 0.0
C2132 C 0.12103 0.51725 0.28281 0.0
C2133 C 0.08515 0.49278 0.30485 0.0
N2134 N 0.10473 0.54144 0.23577 0.0
N2135 N 0.08395 0.49958 0.28008 0.0
H2136 H 0.29662 0.14429 0.54769 0.0
H2137 H 0.21008 0.21298 0.45618 0.0
H2138 H 0.25688 0.20362 0.57113 0.0
H2139 H 0.26183 0.1663 0.42714 0.0
H2140 H 0.22475 0.20675 0.49919 0.0
H2141 H 0.28176 0.14912 0.50415 0.0
C2142 C 0.2847 0.15825 0.54373 0.0
C2143 C 0.27799 0.17359 0.56309 0.0
C2144 C 0.23295 0.19787 0.48344 0.0
C2145 C 0.26097 0.17915 0.51345 0.0
C2146 C 0.22454 0.20137 0.45884 0.0
C2147 C 0.23477 0.19018 0.438 0.0
C2148 C 0.25166 0.1829 0.48739 0.0
C2149 C 0.25351 0.17538 0.44266 0.0
C2150 C 0.27633 0.16104 0.51887 0.0
C2151 C 0.2626 0.19142 0.55684 0.0
N2152 N 0.26133 0.1721 0.46692 0.0
N2153 N 0.25459 0.19366 0.53261 0.0
H2154 H 0.64551 0.53259 0.3138 0.0
H2155 H 0.56868 0.50118 0.19181 0.0
H2156 H 0.57168 0.52369 0.31671 0.0
H2157 H 0.64257 0.49228 0.19399 0.0
H2158 H 0.56956 0.51314 0.23654 0.0
H2159 H 0.6449 0.52107 0.26887 0.0
C2160 C 0.62918 0.52818 0.30503 0.0
C2161 C 0.60862 0.52909 0.31908 0.0
C2162 C 0.58558 0.50858 0.22721 0.0
C2163 C 0.60778 0.5161 0.26763 0.0
C2164 C 0.5851 0.50185 0.20163 0.0
C2165 C 0.60557 0.49565 0.18914 0.0
C2166 C 0.6067 0.50933 0.24035 0.0
C2167 C 0.62635 0.49679 0.20289 0.0
C2168 C 0.62885 0.52158 0.27939 0.0
C2169 C 0.58797 0.52314 0.3067 0.0
N2170 N 0.62639 0.50353 0.22773 0.0
N2171 N 0.58806 0.51702 0.28167 0.0
H2172 H 0.29337 0.88373 0.95189 0.0
H2173 H 0.20915 0.81335 0.04377 0.0
H2174 H 0.25586 0.82277 0.92938 0.0
H2175 H 0.26162 0.85891 0.0733 0.0
H2176 H 0.22289 0.82073 1.00073 0.0
H2177 H 0.27869 0.87894 0.99558 0.0
C2178 C 0.28193 0.86949 0.95607 0.0
C2179 C 0.27586 0.85359 0.93701 0.0
C2180 C 0.23145 0.82913 0.01658 0.0
C2181 C 0.25908 0.84809 0.98665 0.0
C2182 C 0.22358 0.82496 0.04121 0.0
C2183 C 0.23431 0.83546 0.06219 0.0
C2184 C 0.25013 0.84407 0.01274 0.0
C2185 C 0.25296 0.85034 0.05764 0.0
C2186 C 0.2737 0.8667 0.98099 0.0
C2187 C 0.26109 0.83537 0.94348 0.0
N2188 N 0.26028 0.85426 0.03334 0.0
N2189 N 0.2532 0.83317 0.9677 0.0
H2190 H 0.87928 0.53003 0.69257 0.0
H2191 H 0.95258 0.50003 0.8174 0.0
H2192 H 0.95334 0.52249 0.69235 0.0
H2193 H 0.8791 0.48924 0.81205 0.0
H2194 H 0.95301 0.51176 0.77263 0.0
H2195 H 0.87871 0.51814 0.73732 0.0
C2196 C 0.89543 0.52583 0.70191 0.0
C2197 C 0.91641 0.52726 0.6887 0.0
C2198 C 0.9368 0.50682 0.78126 0.0
C2199 C 0.91587 0.51383 0.73996 0.0
C2200 C 0.93651 0.50024 0.80687 0.0
C2201 C 0.91577 0.49362 0.81851 0.0
C2202 C 0.91616 0.50702 0.76722 0.0
C2203 C 0.89549 0.49414 0.80384 0.0
C2204 C 0.89507 0.51901 0.72744 0.0
C2205 C 0.93678 0.52154 0.70175 0.0
N2206 N 0.89619 0.50078 0.77898 0.0
N2207 N 0.93602 0.5152 0.72671 0.0
H2208 H 0.22818 0.41446 0.18621 0.0
H2209 H 0.171 0.48585 0.07111 0.0
H2210 H 0.24301 0.40114 0.10694 0.0
H2211 H 0.14642 0.48934 0.14864 0.0
H2212 H 0.19887 0.45631 0.08413 0.0
H2213 H 0.19956 0.44328 0.17315 0.0
C2214 C 0.22545 0.41758 0.16607 0.0
C2215 C 0.23807 0.40524 0.14769 0.0
C2216 C 0.18734 0.46348 0.09829 0.0
C2217 C 0.20524 0.43839 0.13253 0.0
C2218 C 0.17149 0.48048 0.09089 0.0
C2219 C 0.15625 0.49017 0.10876 0.0
C2220 C 0.18824 0.45619 0.12388 0.0
C2221 C 0.15758 0.48224 0.13411 0.0
C2222 C 0.209 0.43398 0.15861 0.0
C2223 C 0.23354 0.40995 0.12181 0.0
N2224 N 0.17332 0.46586 0.1409 0.0
N2225 N 0.21765 0.42619 0.11504 0.0
H2226 H 0.88805 0.96569 0.39298 0.0
H2227 H 0.75862 0.93995 0.34829 0.0
H2228 H 0.83258 0.01506 0.39813 0.0
H2229 H 0.80615 0.88504 0.36629 0.0
H2230 H 0.78724 0.96802 0.36231 0.0
H2231 H 0.86006 0.93622 0.37948 0.0
C2232 C 0.87003 0.97033 0.39132 0.0
C2233 C 0.8627 0.99292 0.39687 0.0
C2234 C 0.79149 0.94984 0.3632 0.0
C2235 C 0.83062 0.95934 0.38118 0.0
C2236 C 0.77518 0.93377 0.35497 0.0
C2237 C 0.77996 0.91003 0.35593 0.0
C2238 C 0.81302 0.94232 0.37229 0.0
C2239 C 0.80166 0.90313 0.3653 0.0
C2240 C 0.85405 0.95349 0.38372 0.0
C2241 C 0.83906 0.99788 0.39447 0.0
N2242 N 0.81744 0.91919 0.37297 0.0
N2243 N 0.82398 0.98135 0.38667 0.0
H2244 H 0.27958 0.6242 0.60366 0.0
H2245 H 0.36892 0.52557 0.64537 0.0
H2246 H 0.28083 0.59428 0.67899 0.0
H2247 H 0.35408 0.54159 0.56666 0.0
H2248 H 0.33949 0.5534 0.65856 0.0
H2249 H 0.30944 0.59681 0.59032 0.0
C2250 C 0.28621 0.61196 0.61745 0.0
C2251 C 0.27765 0.6116 0.64253 0.0
C2252 C 0.34266 0.55085 0.6384 0.0
C2253 C 0.31194 0.58011 0.62734 0.0
C2254 C 0.35961 0.53507 0.63084 0.0
C2255 C 0.36408 0.53123 0.60482 0.0
C2256 C 0.33016 0.56318 0.61987 0.0
C2257 C 0.35114 0.54384 0.58688 0.0
C2258 C 0.30317 0.59622 0.60977 0.0
C2259 C 0.28673 0.59508 0.65944 0.0
N2260 N 0.33488 0.5593 0.59473 0.0
N2261 N 0.30343 0.58013 0.65159 0.0
H2262 H 0.69241 1.00448 0.90546 0.0
H2263 H 0.71857 0.13553 0.86652 0.0
H2264 H 0.63863 0.05537 0.89699 0.0
H2265 H 0.767 0.07984 0.85616 0.0
H2266 H 0.6898 0.10759 0.8814 0.0
H2267 H 0.72065 0.03299 0.89152 0.0
C2268 C 0.68652 0.02172 0.90094 0.0
C2269 C 0.66301 0.02748 0.90255 0.0
C2270 C 0.70671 0.1015 0.87581 0.0
C2271 C 0.69548 0.06037 0.88625 0.0
C2272 C 0.72319 0.11746 0.86742 0.0
C2273 C 0.74528 0.11007 0.85997 0.0
C2274 C 0.71241 0.07795 0.87713 0.0
C2275 C 0.75017 0.08635 0.86137 0.0
C2276 C 0.70269 0.03798 0.89274 0.0
C2277 C 0.6565 0.05008 0.89591 0.0
N2278 N 0.73396 0.07122 0.86987 0.0
N2279 N 0.67262 0.0657 0.88816 0.0
H2280 H 0.18839 0.50821 0.39452 0.0
H2281 H 0.21726 0.6414 0.37433 0.0
H2282 H 0.13523 0.56008 0.39841 0.0
H2283 H 0.25727 0.58672 0.3405 0.0
H2284 H 0.18866 0.61274 0.38827 0.0
H2285 H 0.21565 0.53752 0.37998 0.0
C2286 C 0.1825 0.52584 0.39254 0.0
C2287 C 0.1595 0.53171 0.39787 0.0
C2288 C 0.20366 0.60708 0.37769 0.0
C2289 C 0.19075 0.56551 0.38115 0.0
C2290 C 0.22004 0.62339 0.36986 0.0
C2291 C 0.23969 0.61647 0.35616 0.0
C2292 C 0.20719 0.58359 0.3723 0.0
C2293 C 0.2423 0.59288 0.35075 0.0
C2294 C 0.19803 0.54254 0.38402 0.0
C2295 C 0.15277 0.55482 0.39446 0.0
N2296 N 0.2264 0.57733 0.35901 0.0
N2297 N 0.16836 0.57092 0.38654 0.0
H2298 H 0.68749 1.01067 0.59683 0.0
H2299 H 0.71483 0.88193 0.64197 0.0
H2300 H 0.63362 0.96436 0.62071 0.0
H2301 H 0.76399 0.93726 0.64855 0.0
H2302 H 0.68528 0.91007 0.62889 0.0
H2303 H 0.7163 0.98213 0.61008 0.0
C2304 C 0.68171 0.9944 0.60466 0.0
C2305 C 0.65808 0.98991 0.6076 0.0
C2306 C 0.70252 0.91603 0.6333 0.0
C2307 C 0.69105 0.95705 0.62283 0.0
C2308 C 0.71939 0.89998 0.64063 0.0
C2309 C 0.74189 0.90726 0.64646 0.0
C2310 C 0.7083 0.93949 0.63123 0.0
C2311 C 0.74683 0.93091 0.64454 0.0
C2312 C 0.69818 0.97819 0.61241 0.0
C2313 C 0.65164 0.96861 0.61824 0.0
N2314 N 0.73027 0.94611 0.6369 0.0
N2315 N 0.668 0.95291 0.6253 0.0
H2316 H 0.35616 0.4775 0.93628 0.0
H2317 H 0.29307 0.41672 0.81761 0.0
H2318 H 0.37479 0.48954 0.85773 0.0
H2319 H 0.28069 0.39785 0.89604 0.0
H2320 H 0.32237 0.44416 0.83198 0.0
H2321 H 0.32778 0.44899 0.92204 0.0
C2322 C 0.35431 0.47418 0.91606 0.0
C2323 C 0.36802 0.48595 0.89824 0.0
C2324 C 0.31331 0.43396 0.84605 0.0
C2325 C 0.33545 0.45325 0.88172 0.0
C2326 C 0.29647 0.41833 0.83784 0.0
C2327 C 0.28436 0.40485 0.85559 0.0
C2328 C 0.31801 0.43635 0.87227 0.0
C2329 C 0.28975 0.4076 0.8816 0.0
C2330 C 0.33816 0.4578 0.90793 0.0
C2331 C 0.36492 0.4807 0.87224 0.0
N2332 N 0.30606 0.42307 0.88913 0.0
N2333 N 0.34896 0.46488 0.8648 0.0
H2334 H 0.88898 0.05968 0.10943 0.0
H2335 H 0.75793 0.08353 0.14988 0.0
H2336 H 0.83427 1.01024 0.09946 0.0
H2337 H 0.80623 0.1387 0.13683 0.0
H2338 H 0.78706 0.05578 0.13583 0.0
H2339 H 0.86033 0.08827 0.12355 0.0
C2340 C 0.87098 0.05483 0.11018 0.0
C2341 C 0.86406 0.03252 0.10305 0.0
C2342 C 0.79133 0.07396 0.13603 0.0
C2343 C 0.83119 0.06508 0.11945 0.0
C2344 C 0.77473 0.08982 0.14425 0.0
C2345 C 0.77959 0.11354 0.14461 0.0
C2346 C 0.8132 0.08171 0.12836 0.0
C2347 C 0.80165 0.12063 0.13669 0.0
C2348 C 0.85462 0.07118 0.11815 0.0
C2349 C 0.84043 0.02726 0.10435 0.0
N2350 N 0.81765 0.1048 0.12904 0.0
N2351 N 0.82494 0.04331 0.11251 0.0
H2352 H 0.88661 0.55474 0.88528 0.0
H2353 H 0.75262 0.58185 0.86488 0.0
H2354 H 0.8326 0.51118 0.91453 0.0
H2355 H 0.80407 0.63536 0.8627 0.0
H2356 H 0.78229 0.55431 0.87839 0.0
H2357 H 0.85731 0.58316 0.87237 0.0
C2358 C 0.86861 0.55113 0.88896 0.0
C2359 C 0.86209 0.53053 0.90111 0.0
C2360 C 0.78711 0.57208 0.87499 0.0
C2361 C 0.82844 0.5629 0.88614 0.0
C2362 C 0.77019 0.58779 0.8671 0.0
C2363 C 0.77584 0.61098 0.86259 0.0
C2364 C 0.81004 0.57942 0.87804 0.0
C2365 C 0.79891 0.61772 0.86613 0.0
C2366 C 0.85191 0.56741 0.88171 0.0
C2367 C 0.83847 0.5269 0.90553 0.0
N2368 N 0.81518 0.602 0.87345 0.0
N2369 N 0.82256 0.54278 0.8979 0.0
H2370 H 0.16794 0.04237 0.56514 0.0
H2371 H 0.22684 0.1089 0.68266 0.0
H2372 H 0.14637 0.03442 0.6434 0.0
H2373 H 0.24323 0.12288 0.60388 0.0
H2374 H 0.19787 0.08103 0.66864 0.0
H2375 H 0.19608 0.07131 0.57887 0.0
C2376 C 0.16908 0.04668 0.58519 0.0
C2377 C 0.15463 0.03591 0.60308 0.0
C2378 C 0.20775 0.09024 0.6544 0.0
C2379 C 0.18693 0.06914 0.61901 0.0
C2380 C 0.22442 0.10611 0.66242 0.0
C2381 C 0.23759 0.11836 0.64447 0.0
C2382 C 0.20422 0.08634 0.62819 0.0
C2383 C 0.23336 0.11411 0.61844 0.0
C2384 C 0.18511 0.0633 0.59303 0.0
C2385 C 0.15684 0.04244 0.62883 0.0
N2386 N 0.21717 0.09844 0.61112 0.0
N2387 N 0.17269 0.05849 0.63599 0.0
H2388 H 0.63669 0.46751 0.39066 0.0
H2389 H 0.76961 0.44207 0.36012 0.0
H2390 H 0.69171 0.51513 0.40738 0.0
H2391 H 0.71923 0.38768 0.36506 0.0
H2392 H 0.74029 0.46978 0.37362 0.0
H2393 H 0.66556 0.43874 0.37762 0.0
C2394 C 0.6548 0.47194 0.3916 0.0
C2395 C 0.66172 0.49381 0.40028 0.0
C2396 C 0.7356 0.45179 0.37179 0.0
C2397 C 0.69487 0.46099 0.3852 0.0
C2398 C 0.75234 0.43595 0.36389 0.0
C2399 C 0.74693 0.41246 0.36134 0.0
C2400 C 0.71305 0.44428 0.37694 0.0
C2401 C 0.72424 0.40556 0.36693 0.0
C2402 C 0.67128 0.45546 0.38427 0.0
C2403 C 0.6855 0.49847 0.4012 0.0
N2404 N 0.70811 0.42139 0.37429 0.0
N2405 N 0.70111 0.48232 0.39364 0.0
H2406 H 0.35524 0.98047 0.06677 0.0
H2407 H 0.28133 0.92657 0.1814 0.0
H2408 H 0.368 0.99598 0.14603 0.0
H2409 H 0.2801 0.89929 0.10486 0.0
H2410 H 0.31102 0.95412 0.16828 0.0
H2411 H 0.32573 0.95262 0.07978 0.0
C2412 C 0.35183 0.97807 0.08689 0.0
C2413 C 0.36422 0.99059 0.1053 0.0
C2414 C 0.30429 0.94208 0.15435 0.0
C2415 C 0.33032 0.95872 0.12039 0.0
C2416 C 0.28721 0.92642 0.16181 0.0
C2417 C 0.27816 0.91051 0.14425 0.0
C2418 C 0.31227 0.9421 0.12902 0.0
C2419 C 0.28671 0.91102 0.11914 0.0
C2420 C 0.33505 0.96206 0.09433 0.0
C2421 C 0.35913 0.98654 0.13116 0.0
N2422 N 0.30316 0.92658 0.11228 0.0
N2423 N 0.34254 0.9711 0.13789 0.0
H2424 H 0.79407 0.41351 0.68437 0.0
H2425 H 0.85517 0.47917 0.56774 0.0
H2426 H 0.77909 0.39907 0.60529 0.0
H2427 H 0.87373 0.4894 0.6467 0.0
H2428 H 0.82704 0.45011 0.58099 0.0
H2429 H 0.823 0.44158 0.67089 0.0
C2430 C 0.79678 0.41623 0.66417 0.0
C2431 C 0.78399 0.40379 0.646 0.0
C2432 C 0.83734 0.45865 0.59541 0.0
C2433 C 0.81737 0.43605 0.63032 0.0
C2434 C 0.85337 0.47536 0.58785 0.0
C2435 C 0.86699 0.48682 0.60606 0.0
C2436 C 0.83468 0.45338 0.62145 0.0
C2437 C 0.86394 0.48086 0.63188 0.0
C2438 C 0.81344 0.43223 0.65646 0.0
C2439 C 0.78863 0.40798 0.62004 0.0
N2440 N 0.84812 0.46468 0.63876 0.0
N2441 N 0.80482 0.42376 0.61302 0.0
H2442 H 0.28024 0.09489 0.32211 0.0
H2443 H 0.35412 0.04344 0.43845 0.0
H2444 H 0.27884 0.12388 0.39786 0.0
H2445 H 0.36816 0.0274 0.35964 0.0
H2446 H 0.32446 0.07092 0.42454 0.0
H2447 H 0.31028 0.06787 0.33605 0.0
C2448 C 0.28616 0.09551 0.3417 0.0
C2449 C 0.27697 0.11175 0.3588 0.0
C2450 C 0.3341 0.06145 0.41029 0.0
C2451 C 0.31144 0.08078 0.37495 0.0
C2452 C 0.35097 0.04568 0.41824 0.0
C2453 C 0.36375 0.0331 0.40022 0.0
C2454 C 0.32966 0.0645 0.38411 0.0
C2455 C 0.35899 0.03689 0.37422 0.0
C2456 C 0.30343 0.08017 0.34962 0.0
C2457 C 0.28556 0.11188 0.38393 0.0
N2458 N 0.34228 0.0521 0.36698 0.0
N2459 N 0.30218 0.09659 0.39126 0.0
H2460 H 0.72972 0.60743 0.18557 0.0
H2461 H 0.667 0.5439 0.06839 0.0
H2462 H 0.74331 0.62337 0.10658 0.0
H2463 H 0.64911 0.53257 0.14729 0.0
H2464 H 0.69539 0.57261 0.08194 0.0
H2465 H 0.70063 0.57951 0.17193 0.0
C2466 C 0.72667 0.60506 0.16536 0.0
C2467 C 0.73907 0.61789 0.14725 0.0
C2468 C 0.68519 0.56391 0.09629 0.0
C2469 C 0.70556 0.58585 0.13141 0.0
C2470 C 0.66901 0.54741 0.08855 0.0
C2471 C 0.65551 0.53575 0.10667 0.0
C2472 C 0.68811 0.56875 0.1224 0.0
C2473 C 0.65882 0.54128 0.13256 0.0
C2474 C 0.70993 0.58916 0.15757 0.0
C2475 C 0.73405 0.61416 0.12129 0.0
N2476 N 0.67479 0.55726 0.13962 0.0
N2477 N 0.71779 0.59848 0.11419 0.0
H2478 H 0.13193 0.96044 0.89496 0.0
H2479 H 0.26007 0.93517 0.84652 0.0
H2480 H 0.18766 1.00922 0.90135 0.0
H2481 H 0.21463 0.87984 0.86836 0.0
H2482 H 0.23143 0.96304 0.86124 0.0
H2483 H 0.15975 0.93106 0.88047 0.0
C2484 C 0.14998 0.96494 0.89339 0.0
C2485 C 0.15746 0.9873 0.8996 0.0
C2486 C 0.22765 0.94481 0.8628 0.0
C2487 C 0.18927 0.95396 0.88267 0.0
C2488 C 0.24395 0.92886 0.85418 0.0
C2489 C 0.23976 0.90507 0.85608 0.0
C2490 C 0.20672 0.93708 0.87315 0.0
C2491 C 0.21863 0.89799 0.86664 0.0
C2492 C 0.16584 0.94817 0.88522 0.0
C2493 C 0.1811 0.99217 0.89721 0.0
N2494 N 0.20283 0.91391 0.87463 0.0
N2495 N 0.19604 0.97576 0.88878 0.0
loop_
_geom_bond_atom_site_label_1
_geom_bond_atom_site_label_2
_geom_bond_distance
_geom_bond_site_symmetry_2
_ccdc_geom_bond_type
Co0 N4 2.148 . S
Co0 N10 2.128 . S
Co0 N20 2.194 . S
Co0 O25 2.351 . S
Co0 O26 2.155 . S
Co0 O27 2.096 . S
C1 N4 1.301 . S
C1 N5 1.328 . S
C1 H6 0.930 . S
C2 C3 1.333 . S
C2 N4 1.317 . S
C2 H7 0.930 . S
C3 C2 1.333 . S
C3 N5 1.350 . S
C3 H29 0.931 . S
N4 Co0 2.148 . S
N4 C1 1.301 . S
N4 C2 1.317 . S
N5 C1 1.328 . S
N5 C3 1.350 . S
H6 C1 0.930 . S
H7 C2 0.930 . S
C8 O9 1.224 . S
C8 O27 1.247 . S
O9 C8 1.224 . S
N10 Co0 2.128 . S
N10 C11 1.355 . S
N10 C13 1.311 . S
C11 N10 1.355 . S
C11 C12 1.363 . S
C11 H23 0.929 . S
C12 C11 1.363 . S
C12 N14 1.375 . S
C12 H30 0.931 . S
C13 N10 1.311 . S
C13 N14 1.347 . S
C13 H24 0.929 . S
N14 C12 1.375 . S
N14 C13 1.347 . S
C15 C18 1.365 . S
C15 N20 1.328 . S
C15 H21 0.929 . S
C16 C17 1.362 . S
C16 C19 1.378 . S
C16 H31 0.929 . S
C17 C16 1.362 . S
C17 C18 1.366 . S
C18 C15 1.365 . S
C18 C17 1.366 . S
C18 H32 0.930 . S
C19 C16 1.378 . S
C19 N20 1.315 . S
C19 H22 0.930 . S
N20 Co0 2.194 . S
N20 C15 1.328 . S
N20 C19 1.315 . S
H21 C15 0.929 . S
H22 C19 0.930 . S
H23 C11 0.929 . S
H24 C13 0.929 . S
O25 Co0 2.351 . S
O25 C28 1.244 . S
O26 Co0 2.155 . S
O26 C28 1.240 . S
O27 Co0 2.096 . S
O27 C8 1.247 . S
C28 O25 1.244 . S
C28 O26 1.240 . S
H29 C3 0.931 . S
H30 C12 0.931 . S
H31 C16 0.929 . S
H32 C18 0.930 . S
Co33 N37 2.148 . S
Co33 N43 2.128 . S
Co33 N53 2.194 . S
Co33 O58 2.351 . S
Co33 O59 2.155 . S
Co33 O60 2.096 . S
C34 N37 1.301 . S
C34 N38 1.328 . S
C34 H39 0.930 . S
C35 C36 1.333 . S
C35 N37 1.317 . S
C35 H40 0.930 . S
C36 C35 1.333 . S
C36 N38 1.350 . S
C36 H62 0.931 1_655 S
N37 Co33 2.148 . S
N37 C34 1.301 . S
N37 C35 1.317 . S
N38 C34 1.328 . S
N38 C36 1.350 . S
H39 C34 0.930 . S
H40 C35 0.930 . S
C41 O42 1.224 . S
C41 O60 1.247 . S
O42 C41 1.224 . S
N43 Co33 2.128 . S
N43 C44 1.355 . S
N43 C46 1.311 . S
C44 N43 1.355 . S
C44 C45 1.363 . S
C44 H56 0.929 . S
C45 C44 1.363 . S
C45 N47 1.375 . S
C45 H63 0.931 . S
C46 N43 1.311 . S
C46 N47 1.347 . S
C46 H57 0.929 1_545 S
N47 C45 1.375 . S
N47 C46 1.347 . S
C48 C51 1.365 . S
C48 N53 1.328 . S
C48 H54 0.929 . S
C49 C50 1.362 . S
C49 C52 1.378 . S
C49 H64 0.929 . S
C50 C49 1.362 . S
C50 C51 1.366 . S
C51 C48 1.365 . S
C51 C50 1.366 . S
C51 H65 0.930 . S
C52 C49 1.378 . S
C52 N53 1.315 . S
C52 H55 0.930 . S
N53 Co33 2.194 . S
N53 C48 1.328 . S
N53 C52 1.315 . S
H54 C48 0.929 . S
H55 C52 0.930 . S
H56 C44 0.929 . S
H57 C46 0.929 1_565 S
O58 Co33 2.351 . S
O58 C61 1.244 . S
O59 Co33 2.155 . S
O59 C61 1.240 . S
O60 Co33 2.096 . S
O60 C41 1.247 . S
C61 O58 1.244 . S
C61 O59 1.240 . S
H62 C36 0.931 1_455 S
H63 C45 0.931 . S
H64 C49 0.929 . S
H65 C51 0.930 . S
Co66 N70 2.148 . S
Co66 N76 2.128 . S
Co66 N86 2.194 . S
Co66 O91 2.351 . S
Co66 O92 2.155 . S
Co66 O93 2.096 . S
C67 N70 1.301 . S
C67 N71 1.328 . S
C67 H72 0.930 . S
C68 C69 1.333 . S
C68 N70 1.317 . S
C68 H73 0.930 . S
C69 C68 1.333 . S
C69 N71 1.350 . S
C69 H95 0.931 . S
N70 Co66 2.148 . S
N70 C67 1.301 . S
N70 C68 1.317 . S
N71 C67 1.328 . S
N71 C69 1.350 . S
H72 C67 0.930 . S
H73 C68 0.930 . S
C74 O75 1.224 . S
C74 O93 1.247 . S
O75 C74 1.224 . S
N76 Co66 2.128 . S
N76 C77 1.355 . S
N76 C79 1.311 . S
C77 N76 1.355 . S
C77 C78 1.363 . S
C77 H89 0.929 . S
C78 C77 1.363 . S
C78 N80 1.375 . S
C78 H96 0.931 . S
C79 N76 1.311 . S
C79 N80 1.347 . S
C79 H90 0.929 . S
N80 C78 1.375 . S
N80 C79 1.347 . S
C81 C84 1.365 . S
C81 N86 1.328 . S
C81 H87 0.929 . S
C82 C83 1.362 . S
C82 C85 1.378 . S
C82 H97 0.929 . S
C83 C82 1.362 . S
C83 C84 1.366 . S
C84 C81 1.365 . S
C84 C83 1.366 . S
C84 H98 0.930 . S
C85 C82 1.378 . S
C85 N86 1.315 . S
C85 H88 0.930 . S
N86 Co66 2.194 . S
N86 C81 1.328 . S
N86 C85 1.315 . S
H87 C81 0.929 . S
H88 C85 0.930 . S
H89 C77 0.929 . S
H90 C79 0.929 . S
O91 Co66 2.351 . S
O91 C94 1.244 . S
O92 Co66 2.155 . S
O92 C94 1.240 . S
O93 Co66 2.096 . S
O93 C74 1.247 . S
C94 O91 1.244 . S
C94 O92 1.240 . S
H95 C69 0.931 . S
H96 C78 0.931 . S
H97 C82 0.929 . S
H98 C84 0.930 . S
Co99 N103 2.148 . S
Co99 N109 2.128 . S
Co99 N119 2.194 . S
Co99 O124 2.351 . S
Co99 O125 2.155 . S
Co99 O126 2.096 . S
C100 N103 1.301 . S
C100 N104 1.328 . S
C100 H105 0.930 . S
C101 C102 1.333 . S
C101 N103 1.317 . S
C101 H106 0.930 . S
C102 C101 1.333 . S
C102 N104 1.350 . S
C102 H128 0.931 . S
N103 Co99 2.148 . S
N103 C100 1.301 . S
N103 C101 1.317 . S
N104 C100 1.328 . S
N104 C102 1.350 . S
H105 C100 0.930 . S
H106 C101 0.930 . S
C107 O108 1.224 . S
C107 O126 1.247 . S
O108 C107 1.224 . S
N109 Co99 2.128 . S
N109 C110 1.355 . S
N109 C112 1.311 . S
C110 N109 1.355 . S
C110 C111 1.363 . S
C110 H122 0.929 . S
C111 C110 1.363 . S
C111 N113 1.375 . S
C111 H129 0.931 . S
C112 N109 1.311 . S
C112 N113 1.347 . S
C112 H123 0.929 1_565 S
N113 C111 1.375 . S
N113 C112 1.347 . S
C114 C117 1.365 . S
C114 N119 1.328 . S
C114 H120 0.929 . S
C115 C116 1.362 . S
C115 C118 1.378 . S
C115 H130 0.929 . S
C116 C115 1.362 . S
C116 C117 1.366 . S
C117 C114 1.365 . S
C117 C116 1.366 . S
C117 H131 0.930 . S
C118 C115 1.378 . S
C118 N119 1.315 . S
C118 H121 0.930 . S
N119 Co99 2.194 . S
N119 C114 1.328 . S
N119 C118 1.315 . S
H120 C114 0.929 . S
H121 C118 0.930 . S
H122 C110 0.929 . S
H123 C112 0.929 1_545 S
O124 Co99 2.351 . S
O124 C127 1.244 . S
O125 Co99 2.155 . S
O125 C127 1.240 . S
O126 Co99 2.096 . S
O126 C107 1.247 . S
C127 O124 1.244 . S
C127 O125 1.240 . S
H128 C102 0.931 . S
H129 C111 0.931 . S
H130 C115 0.929 . S
H131 C117 0.930 . S
Co132 N136 2.148 . S
Co132 N142 2.128 . S
Co132 N152 2.194 . S
Co132 O157 2.351 . S
Co132 O158 2.155 . S
Co132 O159 2.096 . S
C133 N136 1.301 . S
C133 N137 1.328 . S
C133 H138 0.930 . S
C134 C135 1.333 . S
C134 N136 1.317 . S
C134 H139 0.930 . S
C135 C134 1.333 . S
C135 N137 1.350 . S
C135 H161 0.931 . S
N136 Co132 2.148 . S
N136 C133 1.301 . S
N136 C134 1.317 . S
N137 C133 1.328 . S
N137 C135 1.350 . S
H138 C133 0.930 . S
H139 C134 0.930 . S
C140 O141 1.224 . S
C140 O159 1.247 . S
O141 C140 1.224 . S
N142 Co132 2.128 . S
N142 C143 1.355 . S
N142 C145 1.311 . S
C143 N142 1.355 . S
C143 C144 1.363 . S
C143 H155 0.929 . S
C144 C143 1.363 . S
C144 N146 1.375 . S
C144 H162 0.931 . S
C145 N142 1.311 . S
C145 N146 1.347 . S
C145 H156 0.929 . S
N146 C144 1.375 . S
N146 C145 1.347 . S
C147 C150 1.365 . S
C147 N152 1.328 . S
C147 H153 0.929 . S
C148 C149 1.362 . S
C148 C151 1.378 . S
C148 H163 0.929 . S
C149 C148 1.362 . S
C149 C150 1.366 . S
C150 C147 1.365 . S
C150 C149 1.366 . S
C150 H164 0.930 . S
C151 C148 1.378 . S
C151 N152 1.315 . S
C151 H154 0.930 . S
N152 Co132 2.194 . S
N152 C147 1.328 . S
N152 C151 1.315 . S
H153 C147 0.929 . S
H154 C151 0.930 . S
H155 C143 0.929 . S
H156 C145 0.929 . S
O157 Co132 2.351 . S
O157 C160 1.244 . S
O158 Co132 2.155 . S
O158 C160 1.240 . S
O159 Co132 2.096 . S
O159 C140 1.247 . S
C160 O157 1.244 . S
C160 O158 1.240 . S
H161 C135 0.931 . S
H162 C144 0.931 . S
H163 C148 0.929 . S
H164 C150 0.930 . S
Co165 N169 2.148 . S
Co165 N175 2.128 . S
Co165 N185 2.194 . S
Co165 O190 2.351 . S
Co165 O191 2.155 . S
Co165 O192 2.096 . S
C166 N169 1.301 . S
C166 N170 1.328 . S
C166 H171 0.930 . S
C167 C168 1.333 . S
C167 N169 1.317 . S
C167 H172 0.930 . S
C168 C167 1.333 . S
C168 N170 1.350 . S
C168 H194 0.931 . S
N169 Co165 2.148 . S
N169 C166 1.301 . S
N169 C167 1.317 . S
N170 C166 1.328 . S
N170 C168 1.350 . S
H171 C166 0.930 . S
H172 C167 0.930 . S
C173 O174 1.224 . S
C173 O192 1.247 . S
O174 C173 1.224 . S
N175 Co165 2.128 . S
N175 C176 1.355 . S
N175 C178 1.311 . S
C176 N175 1.355 . S
C176 C177 1.363 . S
C176 H188 0.929 . S
C177 C176 1.363 . S
C177 N179 1.375 . S
C177 H195 0.931 . S
C178 N175 1.311 . S
C178 N179 1.347 . S
C178 H189 0.929 1_545 S
N179 C177 1.375 . S
N179 C178 1.347 . S
C180 C183 1.365 . S
C180 N185 1.328 . S
C180 H186 0.929 . S
C181 C182 1.362 . S
C181 C184 1.378 . S
C181 H196 0.929 . S
C182 C181 1.362 . S
C182 C183 1.366 . S
C183 C180 1.365 . S
C183 C182 1.366 . S
C183 H197 0.930 . S
C184 C181 1.378 . S
C184 N185 1.315 . S
C184 H187 0.930 . S
N185 Co165 2.194 . S
N185 C180 1.328 . S
N185 C184 1.315 . S
H186 C180 0.929 . S
H187 C184 0.930 . S
H188 C176 0.929 . S
H189 C178 0.929 1_565 S
O190 Co165 2.351 . S
O190 C193 1.244 . S
O191 Co165 2.155 . S
O191 C193 1.240 . S
O192 Co165 2.096 . S
O192 C173 1.247 . S
C193 O190 1.244 . S
C193 O191 1.240 . S
H194 C168 0.931 . S
H195 C177 0.931 . S
H196 C181 0.929 . S
H197 C183 0.930 . S
Co198 N202 2.148 . S
Co198 N208 2.128 . S
Co198 N218 2.194 . S
Co198 O223 2.351 . S
Co198 O224 2.155 . S
Co198 O225 2.096 . S
C199 N202 1.301 . S
C199 N203 1.328 . S
C199 H204 0.930 . S
C200 C201 1.333 . S
C200 N202 1.317 . S
C200 H205 0.930 . S
C201 C200 1.333 . S
C201 N203 1.350 . S
C201 H227 0.931 . S
N202 Co198 2.148 . S
N202 C199 1.301 . S
N202 C200 1.317 . S
N203 C199 1.328 . S
N203 C201 1.350 . S
H204 C199 0.930 . S
H205 C200 0.930 . S
C206 O207 1.224 . S
C206 O225 1.247 . S
O207 C206 1.224 . S
N208 Co198 2.128 . S
N208 C209 1.355 . S
N208 C211 1.311 . S
C209 N208 1.355 . S
C209 C210 1.363 . S
C209 H221 0.929 . S
C210 C209 1.363 . S
C210 N212 1.375 . S
C210 H228 0.931 . S
C211 N208 1.311 . S
C211 N212 1.347 . S
C211 H222 0.929 . S
N212 C210 1.375 . S
N212 C211 1.347 . S
C213 C216 1.365 . S
C213 N218 1.328 . S
C213 H219 0.929 . S
C214 C215 1.362 . S
C214 C217 1.378 . S
C214 H229 0.929 . S
C215 C214 1.362 . S
C215 C216 1.366 . S
C216 C213 1.365 . S
C216 C215 1.366 . S
C216 H230 0.930 . S
C217 C214 1.378 . S
C217 N218 1.315 . S
C217 H220 0.930 . S
N218 Co198 2.194 . S
N218 C213 1.328 . S
N218 C217 1.315 . S
H219 C213 0.929 . S
H220 C217 0.930 . S
H221 C209 0.929 . S
H222 C211 0.929 . S
O223 Co198 2.351 . S
O223 C226 1.244 . S
O224 Co198 2.155 . S
O224 C226 1.240 . S
O225 Co198 2.096 . S
O225 C206 1.247 . S
C226 O223 1.244 . S
C226 O224 1.240 . S
H227 C201 0.931 . S
H228 C210 0.931 . S
H229 C214 0.929 . S
H230 C216 0.930 . S
Co231 N235 2.148 . S
Co231 N241 2.128 . S
Co231 N251 2.194 . S
Co231 O256 2.351 . S
Co231 O257 2.155 . S
Co231 O258 2.096 . S
C232 N235 1.301 . S
C232 N236 1.328 . S
C232 H237 0.930 . S
C233 C234 1.333 . S
C233 N235 1.317 . S
C233 H238 0.930 . S
C234 C233 1.333 . S
C234 N236 1.350 . S
C234 H260 0.931 1_655 S
N235 Co231 2.148 . S
N235 C232 1.301 . S
N235 C233 1.317 . S
N236 C232 1.328 . S
N236 C234 1.350 . S
H237 C232 0.930 . S
H238 C233 0.930 . S
C239 O240 1.224 . S
C239 O258 1.247 . S
O240 C239 1.224 . S
N241 Co231 2.128 . S
N241 C242 1.355 . S
N241 C244 1.311 . S
C242 N241 1.355 . S
C242 C243 1.363 . S
C242 H254 0.929 . S
C243 C242 1.363 . S
C243 N245 1.375 . S
C243 H261 0.931 . S
C244 N241 1.311 . S
C244 N245 1.347 . S
C244 H255 0.929 1_565 S
N245 C243 1.375 . S
N245 C244 1.347 . S
C246 C249 1.365 . S
C246 N251 1.328 . S
C246 H252 0.929 . S
C247 C248 1.362 . S
C247 C250 1.378 . S
C247 H262 0.929 . S
C248 C247 1.362 . S
C248 C249 1.366 . S
C249 C246 1.365 . S
C249 C248 1.366 . S
C249 H263 0.930 . S
C250 C247 1.378 . S
C250 N251 1.315 . S
C250 H253 0.930 . S
N251 Co231 2.194 . S
N251 C246 1.328 . S
N251 C250 1.315 . S
H252 C246 0.929 . S
H253 C250 0.930 . S
H254 C242 0.929 . S
H255 C244 0.929 1_545 S
O256 Co231 2.351 . S
O256 C259 1.244 . S
O257 Co231 2.155 . S
O257 C259 1.240 . S
O258 Co231 2.096 . S
O258 C239 1.247 . S
C259 O256 1.244 . S
C259 O257 1.240 . S
H260 C234 0.931 1_455 S
H261 C243 0.931 . S
H262 C247 0.929 . S
H263 C249 0.930 . S
Co264 N268 2.148 . S
Co264 N274 2.128 . S
Co264 N284 2.194 . S
Co264 O289 2.351 . S
Co264 O290 2.155 . S
Co264 O291 2.096 . S
C265 N268 1.301 . S
C265 N269 1.328 . S
C265 H270 0.930 . S
C266 C267 1.333 . S
C266 N268 1.317 . S
C266 H271 0.930 . S
C267 C266 1.333 . S
C267 N269 1.350 . S
C267 H293 0.931 . S
N268 Co264 2.148 . S
N268 C265 1.301 . S
N268 C266 1.317 . S
N269 C265 1.328 . S
N269 C267 1.350 . S
H270 C265 0.930 . S
H271 C266 0.930 . S
C272 O273 1.224 . S
C272 O291 1.247 . S
O273 C272 1.224 . S
N274 Co264 2.128 . S
N274 C275 1.355 . S
N274 C277 1.311 . S
C275 N274 1.355 . S
C275 C276 1.363 . S
C275 H287 0.929 . S
C276 C275 1.363 . S
C276 N278 1.375 . S
C276 H294 0.931 . S
C277 N274 1.311 . S
C277 N278 1.347 . S
C277 H288 0.929 . S
N278 C276 1.375 . S
N278 C277 1.347 . S
C279 C282 1.365 . S
C279 N284 1.328 . S
C279 H285 0.929 . S
C280 C281 1.362 . S
C280 C283 1.378 . S
C280 H295 0.929 . S
C281 C280 1.362 . S
C281 C282 1.366 . S
C282 C279 1.365 . S
C282 C281 1.366 . S
C282 H296 0.930 . S
C283 C280 1.378 . S
C283 N284 1.315 . S
C283 H286 0.930 . S
N284 Co264 2.194 . S
N284 C279 1.328 . S
N284 C283 1.315 . S
H285 C279 0.929 . S
H286 C283 0.930 . S
H287 C275 0.929 . S
H288 C277 0.929 . S
O289 Co264 2.351 . S
O289 C292 1.244 . S
O290 Co264 2.155 . S
O290 C292 1.240 . S
O291 Co264 2.096 . S
O291 C272 1.247 . S
C292 O289 1.244 . S
C292 O290 1.240 . S
H293 C267 0.931 . S
H294 C276 0.931 . S
H295 C280 0.929 . S
H296 C282 0.930 . S
Co297 N301 2.148 . S
Co297 N307 2.128 . S
Co297 N317 2.194 . S
Co297 O322 2.351 . S
Co297 O323 2.155 . S
Co297 O324 2.096 . S
C298 N301 1.301 . S
C298 N302 1.328 . S
C298 H303 0.930 . S
C299 C300 1.333 . S
C299 N301 1.317 . S
C299 H304 0.930 . S
C300 C299 1.333 . S
C300 N302 1.350 . S
C300 H326 0.931 1_455 S
N301 Co297 2.148 . S
N301 C298 1.301 . S
N301 C299 1.317 . S
N302 C298 1.328 . S
N302 C300 1.350 . S
H303 C298 0.930 . S
H304 C299 0.930 . S
C305 O306 1.224 . S
C305 O324 1.247 . S
O306 C305 1.224 . S
N307 Co297 2.128 . S
N307 C308 1.355 . S
N307 C310 1.311 . S
C308 N307 1.355 . S
C308 C309 1.363 . S
C308 H320 0.929 . S
C309 C308 1.363 . S
C309 N311 1.375 . S
C309 H327 0.931 . S
C310 N307 1.311 . S
C310 N311 1.347 . S
C310 H321 0.929 1_565 S
N311 C309 1.375 . S
N311 C310 1.347 . S
C312 C315 1.365 . S
C312 N317 1.328 . S
C312 H318 0.929 . S
C313 C314 1.362 . S
C313 C316 1.378 . S
C313 H328 0.929 . S
C314 C313 1.362 . S
C314 C315 1.366 . S
C315 C312 1.365 . S
C315 C314 1.366 . S
C315 H329 0.930 . S
C316 C313 1.378 . S
C316 N317 1.315 . S
C316 H319 0.930 . S
N317 Co297 2.194 . S
N317 C312 1.328 . S
N317 C316 1.315 . S
H318 C312 0.929 . S
H319 C316 0.930 . S
H320 C308 0.929 . S
H321 C310 0.929 1_545 S
O322 Co297 2.351 . S
O322 C325 1.244 . S
O323 Co297 2.155 . S
O323 C325 1.240 . S
O324 Co297 2.096 . S
O324 C305 1.247 . S
C325 O322 1.244 . S
C325 O323 1.240 . S
H326 C300 0.931 1_655 S
H327 C309 0.931 . S
H328 C313 0.929 . S
H329 C315 0.930 . S
Co330 N334 2.148 . S
Co330 N340 2.128 . S
Co330 N350 2.194 . S
Co330 O355 2.351 . S
Co330 O356 2.155 . S
Co330 O357 2.096 . S
C331 N334 1.301 . S
C331 N335 1.328 . S
C331 H336 0.930 . S
C332 C333 1.333 . S
C332 N334 1.317 . S
C332 H337 0.930 . S
C333 C332 1.333 . S
C333 N335 1.350 . S
C333 H359 0.931 . S
N334 Co330 2.148 . S
N334 C331 1.301 . S
N334 C332 1.317 . S
N335 C331 1.328 . S
N335 C333 1.350 . S
H336 C331 0.930 . S
H337 C332 0.930 . S
C338 O339 1.224 . S
C338 O357 1.247 . S
O339 C338 1.224 . S
N340 Co330 2.128 . S
N340 C341 1.355 . S
N340 C343 1.311 . S
C341 N340 1.355 . S
C341 C342 1.363 . S
C341 H353 0.929 . S
C342 C341 1.363 . S
C342 N344 1.375 . S
C342 H360 0.931 . S
C343 N340 1.311 . S
C343 N344 1.347 . S
C343 H354 0.929 . S
N344 C342 1.375 . S
N344 C343 1.347 . S
C345 C348 1.365 . S
C345 N350 1.328 . S
C345 H351 0.929 . S
C346 C347 1.362 . S
C346 C349 1.378 . S
C346 H361 0.929 . S
C347 C346 1.362 . S
C347 C348 1.366 . S
C348 C345 1.365 . S
C348 C347 1.366 . S
C348 H362 0.930 . S
C349 C346 1.378 . S
C349 N350 1.315 . S
C349 H352 0.930 . S
N350 Co330 2.194 . S
N350 C345 1.328 . S
N350 C349 1.315 . S
H351 C345 0.929 . S
H352 C349 0.930 . S
H353 C341 0.929 . S
H354 C343 0.929 . S
O355 Co330 2.351 . S
O355 C358 1.244 . S
O356 Co330 2.155 . S
O356 C358 1.240 . S
O357 Co330 2.096 . S
O357 C338 1.247 . S
C358 O355 1.244 . S
C358 O356 1.240 . S
H359 C333 0.931 . S
H360 C342 0.931 . S
H361 C346 0.929 . S
H362 C348 0.930 . S
Co363 N367 2.148 . S
Co363 N373 2.128 . S
Co363 N383 2.194 . S
Co363 O388 2.351 . S
Co363 O389 2.155 . S
Co363 O390 2.096 . S
C364 N367 1.301 . S
C364 N368 1.328 . S
C364 H369 0.930 . S
C365 C366 1.333 . S
C365 N367 1.317 . S
C365 H370 0.930 . S
C366 C365 1.333 . S
C366 N368 1.350 . S
C366 H392 0.931 . S
N367 Co363 2.148 . S
N367 C364 1.301 . S
N367 C365 1.317 . S
N368 C364 1.328 . S
N368 C366 1.350 . S
H369 C364 0.930 . S
H370 C365 0.930 . S
C371 O372 1.224 . S
C371 O390 1.247 . S
O372 C371 1.224 . S
N373 Co363 2.128 . S
N373 C374 1.355 . S
N373 C376 1.311 . S
C374 N373 1.355 . S
C374 C375 1.363 . S
C374 H386 0.929 . S
C375 C374 1.363 . S
C375 N377 1.375 . S
C375 H393 0.931 . S
C376 N373 1.311 . S
C376 N377 1.347 . S
C376 H387 0.929 1_545 S
N377 C375 1.375 . S
N377 C376 1.347 . S
C378 C381 1.365 . S
C378 N383 1.328 . S
C378 H384 0.929 . S
C379 C380 1.362 . S
C379 C382 1.378 . S
C379 H394 0.929 . S
C380 C379 1.362 . S
C380 C381 1.366 . S
C381 C378 1.365 . S
C381 C380 1.366 . S
C381 H395 0.930 . S
C382 C379 1.378 . S
C382 N383 1.315 . S
C382 H385 0.930 . S
N383 Co363 2.194 . S
N383 C378 1.328 . S
N383 C382 1.315 . S
H384 C378 0.929 . S
H385 C382 0.930 . S
H386 C374 0.929 . S
H387 C376 0.929 1_565 S
O388 Co363 2.351 . S
O388 C391 1.244 . S
O389 Co363 2.155 . S
O389 C391 1.240 . S
O390 Co363 2.096 . S
O390 C371 1.247 . S
C391 O388 1.244 . S
C391 O389 1.240 . S
H392 C366 0.931 . S
H393 C375 0.931 . S
H394 C379 0.929 . S
H395 C381 0.930 . S
Co396 N400 2.148 . S
Co396 N406 2.128 . S
Co396 N416 2.194 . S
Co396 O421 2.351 . S
Co396 O422 2.155 . S
Co396 O423 2.096 . S
C397 N400 1.301 . S
C397 N401 1.328 . S
C397 H402 0.930 . S
C398 C399 1.333 . S
C398 N400 1.317 . S
C398 H403 0.930 . S
C399 C398 1.333 . S
C399 N401 1.350 . S
C399 H425 0.931 . S
N400 Co396 2.148 . S
N400 C397 1.301 . S
N400 C398 1.317 . S
N401 C397 1.328 . S
N401 C399 1.350 . S
H402 C397 0.930 . S
H403 C398 0.930 . S
C404 O405 1.224 . S
C404 O423 1.247 . S
O405 C404 1.224 . S
N406 Co396 2.128 . S
N406 C407 1.355 . S
N406 C409 1.311 . S
C407 N406 1.355 . S
C407 C408 1.363 . S
C407 H419 0.929 . S
C408 C407 1.363 . S
C408 N410 1.375 . S
C408 H426 0.931 . S
C409 N406 1.311 . S
C409 N410 1.347 . S
C409 H420 0.929 . S
N410 C408 1.375 . S
N410 C409 1.347 . S
C411 C414 1.365 . S
C411 N416 1.328 . S
C411 H417 0.929 . S
C412 C413 1.362 . S
C412 C415 1.378 . S
C412 H427 0.929 . S
C413 C412 1.362 . S
C413 C414 1.366 . S
C414 C411 1.365 . S
C414 C413 1.366 . S
C414 H428 0.930 . S
C415 C412 1.378 . S
C415 N416 1.315 . S
C415 H418 0.930 . S
N416 Co396 2.194 . S
N416 C411 1.328 . S
N416 C415 1.315 . S
H417 C411 0.929 . S
H418 C415 0.930 . S
H419 C407 0.929 . S
H420 C409 0.929 . S
O421 Co396 2.351 . S
O421 C424 1.244 . S
O422 Co396 2.155 . S
O422 C424 1.240 . S
O423 Co396 2.096 . S
O423 C404 1.247 . S
C424 O421 1.244 . S
C424 O422 1.240 . S
H425 C399 0.931 . S
H426 C408 0.931 . S
H427 C412 0.929 . S
H428 C414 0.930 . S
Co429 N433 2.148 . S
Co429 N439 2.128 . S
Co429 N449 2.194 . S
Co429 O454 2.351 . S
Co429 O455 2.155 . S
Co429 O456 2.096 . S
C430 N433 1.301 . S
C430 N434 1.328 . S
C430 H435 0.930 . S
C431 C432 1.333 . S
C431 N433 1.317 . S
C431 H436 0.930 . S
C432 C431 1.333 . S
C432 N434 1.350 . S
C432 H458 0.931 . S
N433 Co429 2.148 . S
N433 C430 1.301 . S
N433 C431 1.317 . S
N434 C430 1.328 . S
N434 C432 1.350 . S
H435 C430 0.930 . S
H436 C431 0.930 . S
C437 O438 1.224 . S
C437 O456 1.247 . S
O438 C437 1.224 . S
N439 Co429 2.128 . S
N439 C440 1.355 . S
N439 C442 1.311 . S
C440 N439 1.355 . S
C440 C441 1.363 . S
C440 H452 0.929 . S
C441 C440 1.363 . S
C441 N443 1.375 . S
C441 H459 0.931 . S
C442 N439 1.311 . S
C442 N443 1.347 . S
C442 H453 0.929 1_565 S
N443 C441 1.375 . S
N443 C442 1.347 . S
C444 C447 1.365 . S
C444 N449 1.328 . S
C444 H450 0.929 . S
C445 C446 1.362 . S
C445 C448 1.378 . S
C445 H460 0.929 . S
C446 C445 1.362 . S
C446 C447 1.366 . S
C447 C444 1.365 . S
C447 C446 1.366 . S
C447 H461 0.930 . S
C448 C445 1.378 . S
C448 N449 1.315 . S
C448 H451 0.930 . S
N449 Co429 2.194 . S
N449 C444 1.328 . S
N449 C448 1.315 . S
H450 C444 0.929 . S
H451 C448 0.930 . S
H452 C440 0.929 . S
H453 C442 0.929 1_545 S
O454 Co429 2.351 . S
O454 C457 1.244 . S
O455 Co429 2.155 . S
O455 C457 1.240 . S
O456 Co429 2.096 . S
O456 C437 1.247 . S
C457 O454 1.244 . S
C457 O455 1.240 . S
H458 C432 0.931 . S
H459 C441 0.931 . S
H460 C445 0.929 . S
H461 C447 0.930 . S
Co462 N466 2.148 . S
Co462 N472 2.128 . S
Co462 N482 2.194 . S
Co462 O487 2.351 . S
Co462 O488 2.155 . S
Co462 O489 2.096 . S
C463 N466 1.301 . S
C463 N467 1.328 . S
C463 H468 0.930 . S
C464 C465 1.333 . S
C464 N466 1.317 . S
C464 H469 0.930 . S
C465 C464 1.333 . S
C465 N467 1.350 . S
C465 H491 0.931 . S
N466 Co462 2.148 . S
N466 C463 1.301 . S
N466 C464 1.317 . S
N467 C463 1.328 . S
N467 C465 1.350 . S
H468 C463 0.930 . S
H469 C464 0.930 . S
C470 O471 1.224 . S
C470 O489 1.247 . S
O471 C470 1.224 . S
N472 Co462 2.128 . S
N472 C473 1.355 . S
N472 C475 1.311 . S
C473 N472 1.355 . S
C473 C474 1.363 . S
C473 H485 0.929 . S
C474 C473 1.363 . S
C474 N476 1.375 . S
C474 H492 0.931 . S
C475 N472 1.311 . S
C475 N476 1.347 . S
C475 H486 0.929 . S
N476 C474 1.375 . S
N476 C475 1.347 . S
C477 C480 1.365 . S
C477 N482 1.328 . S
C477 H483 0.929 . S
C478 C479 1.362 . S
C478 C481 1.378 . S
C478 H493 0.929 . S
C479 C478 1.362 . S
C479 C480 1.366 . S
C480 C477 1.365 . S
C480 C479 1.366 . S
C480 H494 0.930 . S
C481 C478 1.378 . S
C481 N482 1.315 . S
C481 H484 0.930 . S
N482 Co462 2.194 . S
N482 C477 1.328 . S
N482 C481 1.315 . S
H483 C477 0.929 . S
H484 C481 0.930 . S
H485 C473 0.929 . S
H486 C475 0.929 . S
O487 Co462 2.351 . S
O487 C490 1.244 . S
O488 Co462 2.155 . S
O488 C490 1.240 . S
O489 Co462 2.096 . S
O489 C470 1.247 . S
C490 O487 1.244 . S
C490 O488 1.240 . S
H491 C465 0.931 . S
H492 C474 0.931 . S
H493 C478 0.929 . S
H494 C480 0.930 . S
Co495 N499 2.148 . S
Co495 N505 2.128 . S
Co495 N515 2.194 . S
Co495 O520 2.351 . S
Co495 O521 2.155 . S
Co495 O522 2.096 . S
C496 N499 1.301 . S
C496 N500 1.328 . S
C496 H501 0.930 . S
C497 C498 1.333 . S
C497 N499 1.317 . S
C497 H502 0.930 . S
C498 C497 1.333 . S
C498 N500 1.350 . S
C498 H524 0.931 1_455 S
N499 Co495 2.148 . S
N499 C496 1.301 . S
N499 C497 1.317 . S
N500 C496 1.328 . S
N500 C498 1.350 . S
H501 C496 0.930 . S
H502 C497 0.930 . S
C503 O504 1.224 . S
C503 O522 1.247 . S
O504 C503 1.224 . S
N505 Co495 2.128 . S
N505 C506 1.355 . S
N505 C508 1.311 . S
C506 N505 1.355 . S
C506 C507 1.363 . S
C506 H518 0.929 . S
C507 C506 1.363 . S
C507 N509 1.375 . S
C507 H525 0.931 . S
C508 N505 1.311 . S
C508 N509 1.347 . S
C508 H519 0.929 1_545 S
N509 C507 1.375 . S
N509 C508 1.347 . S
C510 C513 1.365 . S
C510 N515 1.328 . S
C510 H516 0.929 . S
C511 C512 1.362 . S
C511 C514 1.378 . S
C511 H526 0.929 . S
C512 C511 1.362 . S
C512 C513 1.366 . S
C513 C510 1.365 . S
C513 C512 1.366 . S
C513 H527 0.930 . S
C514 C511 1.378 . S
C514 N515 1.315 . S
C514 H517 0.930 . S
N515 Co495 2.194 . S
N515 C510 1.328 . S
N515 C514 1.315 . S
H516 C510 0.929 . S
H517 C514 0.930 . S
H518 C506 0.929 . S
H519 C508 0.929 1_565 S
O520 Co495 2.351 . S
O520 C523 1.244 . S
O521 Co495 2.155 . S
O521 C523 1.240 . S
O522 Co495 2.096 . S
O522 C503 1.247 . S
C523 O520 1.244 . S
C523 O521 1.240 . S
H524 C498 0.931 1_655 S
H525 C507 0.931 . S
H526 C511 0.929 . S
H527 C513 0.930 . S
Co528 N532 2.148 . S
Co528 N538 2.128 . S
Co528 N548 2.194 . S
Co528 O553 2.351 . S
Co528 O554 2.155 . S
Co528 O555 2.096 . S
C529 N532 1.301 . S
C529 N533 1.328 . S
C529 H534 0.930 . S
C530 C531 1.333 . S
C530 N532 1.317 . S
C530 H535 0.930 . S
C531 C530 1.333 . S
C531 N533 1.350 . S
C531 H557 0.931 . S
N532 Co528 2.148 . S
N532 C529 1.301 . S
N532 C530 1.317 . S
N533 C529 1.328 . S
N533 C531 1.350 . S
H534 C529 0.930 . S
H535 C530 0.930 . S
C536 O537 1.224 . S
C536 O555 1.247 . S
O537 C536 1.224 . S
N538 Co528 2.128 . S
N538 C539 1.355 . S
N538 C541 1.311 . S
C539 N538 1.355 . S
C539 C540 1.363 . S
C539 H551 0.929 . S
C540 C539 1.363 . S
C540 N542 1.375 . S
C540 H558 0.931 . S
C541 N538 1.311 . S
C541 N542 1.347 . S
C541 H552 0.929 . S
N542 C540 1.375 . S
N542 C541 1.347 . S
C543 C546 1.365 . S
C543 N548 1.328 . S
C543 H549 0.929 . S
C544 C545 1.362 . S
C544 C547 1.378 . S
C544 H559 0.929 . S
C545 C544 1.362 . S
C545 C546 1.366 . S
C546 C543 1.365 . S
C546 C545 1.366 . S
C546 H560 0.930 . S
C547 C544 1.378 . S
C547 N548 1.315 . S
C547 H550 0.930 . S
N548 Co528 2.194 . S
N548 C543 1.328 . S
N548 C547 1.315 . S
H549 C543 0.929 . S
H550 C547 0.930 . S
H551 C539 0.929 . S
H552 C541 0.929 . S
O553 Co528 2.351 . S
O553 C556 1.244 . S
O554 Co528 2.155 . S
O554 C556 1.240 . S
O555 Co528 2.096 . S
O555 C536 1.247 . S
C556 O553 1.244 . S
C556 O554 1.240 . S
H557 C531 0.931 . S
H558 C540 0.931 . S
H559 C544 0.929 . S
H560 C546 0.930 . S
Co561 N565 2.148 . S
Co561 N571 2.128 . S
Co561 N581 2.194 . S
Co561 O586 2.351 . S
Co561 O587 2.155 . S
Co561 O588 2.096 . S
C562 N565 1.301 . S
C562 N566 1.328 . S
C562 H567 0.930 . S
C563 C564 1.333 . S
C563 N565 1.317 . S
C563 H568 0.930 . S
C564 C563 1.333 . S
C564 N566 1.350 . S
C564 H590 0.931 . S
N565 Co561 2.148 . S
N565 C562 1.301 . S
N565 C563 1.317 . S
N566 C562 1.328 . S
N566 C564 1.350 . S
H567 C562 0.930 . S
H568 C563 0.930 . S
C569 O570 1.224 . S
C569 O588 1.247 . S
O570 C569 1.224 . S
N571 Co561 2.128 . S
N571 C572 1.355 . S
N571 C574 1.311 . S
C572 N571 1.355 . S
C572 C573 1.363 . S
C572 H584 0.929 . S
C573 C572 1.363 . S
C573 N575 1.375 . S
C573 H591 0.931 . S
C574 N571 1.311 . S
C574 N575 1.347 . S
C574 H585 0.929 . S
N575 C573 1.375 . S
N575 C574 1.347 . S
C576 C579 1.365 . S
C576 N581 1.328 . S
C576 H582 0.929 . S
C577 C578 1.362 . S
C577 C580 1.378 . S
C577 H592 0.929 . S
C578 C577 1.362 . S
C578 C579 1.366 . S
C579 C576 1.365 . S
C579 C578 1.366 . S
C579 H593 0.930 . S
C580 C577 1.378 . S
C580 N581 1.315 . S
C580 H583 0.930 . S
N581 Co561 2.194 . S
N581 C576 1.328 . S
N581 C580 1.315 . S
H582 C576 0.929 . S
H583 C580 0.930 . S
H584 C572 0.929 . S
H585 C574 0.929 . S
O586 Co561 2.351 . S
O586 C589 1.244 . S
O587 Co561 2.155 . S
O587 C589 1.240 . S
O588 Co561 2.096 . S
O588 C569 1.247 . S
C589 O586 1.244 . S
C589 O587 1.240 . S
H590 C564 0.931 . S
H591 C573 0.931 . S
H592 C577 0.929 . S
H593 C579 0.930 . S
Co594 N598 2.148 . S
Co594 N604 2.128 . S
Co594 N614 2.194 . S
Co594 O619 2.351 . S
Co594 O620 2.155 . S
Co594 O621 2.096 . S
C595 N598 1.301 . S
C595 N599 1.328 . S
C595 H600 0.930 . S
C596 C597 1.333 . S
C596 N598 1.317 . S
C596 H601 0.930 . S
C597 C596 1.333 . S
C597 N599 1.350 . S
C597 H623 0.931 . S
N598 Co594 2.148 . S
N598 C595 1.301 . S
N598 C596 1.317 . S
N599 C595 1.328 . S
N599 C597 1.350 . S
H600 C595 0.930 . S
H601 C596 0.930 . S
C602 O603 1.224 . S
C602 O621 1.247 . S
O603 C602 1.224 . S
N604 Co594 2.128 . S
N604 C605 1.355 . S
N604 C607 1.311 . S
C605 N604 1.355 . S
C605 C606 1.363 . S
C605 H617 0.929 . S
C606 C605 1.363 . S
C606 N608 1.375 . S
C606 H624 0.931 . S
C607 N604 1.311 . S
C607 N608 1.347 . S
C607 H618 0.929 . S
N608 C606 1.375 . S
N608 C607 1.347 . S
C609 C612 1.365 . S
C609 N614 1.328 . S
C609 H615 0.929 . S
C610 C611 1.362 . S
C610 C613 1.378 . S
C610 H625 0.929 . S
C611 C610 1.362 . S
C611 C612 1.366 . S
C612 C609 1.365 . S
C612 C611 1.366 . S
C612 H626 0.930 . S
C613 C610 1.378 . S
C613 N614 1.315 . S
C613 H616 0.930 . S
N614 Co594 2.194 . S
N614 C609 1.328 . S
N614 C613 1.315 . S
H615 C609 0.929 . S
H616 C613 0.930 . S
H617 C605 0.929 . S
H618 C607 0.929 . S
O619 Co594 2.351 . S
O619 C622 1.244 . S
O620 Co594 2.155 . S
O620 C622 1.240 . S
O621 Co594 2.096 . S
O621 C602 1.247 . S
C622 O619 1.244 . S
C622 O620 1.240 . S
H623 C597 0.931 . S
H624 C606 0.931 . S
H625 C610 0.929 . S
H626 C612 0.930 . S
Co627 N631 2.148 . S
Co627 N637 2.128 . S
Co627 N647 2.194 . S
Co627 O652 2.351 . S
Co627 O653 2.155 . S
Co627 O654 2.096 . S
C628 N631 1.301 . S
C628 N632 1.328 . S
C628 H633 0.930 . S
C629 C630 1.333 . S
C629 N631 1.317 . S
C629 H634 0.930 . S
C630 C629 1.333 . S
C630 N632 1.350 . S
C630 H656 0.931 1_455 S
N631 Co627 2.148 . S
N631 C628 1.301 . S
N631 C629 1.317 . S
N632 C628 1.328 . S
N632 C630 1.350 . S
H633 C628 0.930 . S
H634 C629 0.930 . S
C635 O636 1.224 . S
C635 O654 1.247 . S
O636 C635 1.224 . S
N637 Co627 2.128 . S
N637 C638 1.355 . S
N637 C640 1.311 . S
C638 N637 1.355 . S
C638 C639 1.363 . S
C638 H650 0.929 . S
C639 C638 1.363 . S
C639 N641 1.375 . S
C639 H657 0.931 . S
C640 N637 1.311 . S
C640 N641 1.347 . S
C640 H651 0.929 . S
N641 C639 1.375 . S
N641 C640 1.347 . S
C642 C645 1.365 . S
C642 N647 1.328 . S
C642 H648 0.929 . S
C643 C644 1.362 . S
C643 C646 1.378 . S
C643 H658 0.929 . S
C644 C643 1.362 . S
C644 C645 1.366 . S
C645 C642 1.365 . S
C645 C644 1.366 . S
C645 H659 0.930 . S
C646 C643 1.378 . S
C646 N647 1.315 . S
C646 H649 0.930 . S
N647 Co627 2.194 . S
N647 C642 1.328 . S
N647 C646 1.315 . S
H648 C642 0.929 . S
H649 C646 0.930 . S
H650 C638 0.929 . S
H651 C640 0.929 . S
O652 Co627 2.351 . S
O652 C655 1.244 . S
O653 Co627 2.155 . S
O653 C655 1.240 . S
O654 Co627 2.096 . S
O654 C635 1.247 . S
C655 O652 1.244 . S
C655 O653 1.240 . S
H656 C630 0.931 1_655 S
H657 C639 0.931 . S
H658 C643 0.929 . S
H659 C645 0.930 . S
Co660 N664 2.148 . S
Co660 N670 2.128 . S
Co660 N680 2.194 . S
Co660 O685 2.351 . S
Co660 O686 2.155 . S
Co660 O687 2.096 . S
C661 N664 1.301 . S
C661 N665 1.328 . S
C661 H666 0.930 . S
C662 C663 1.333 . S
C662 N664 1.317 . S
C662 H667 0.930 . S
C663 C662 1.333 . S
C663 N665 1.350 . S
C663 H689 0.931 . S
N664 Co660 2.148 . S
N664 C661 1.301 . S
N664 C662 1.317 . S
N665 C661 1.328 . S
N665 C663 1.350 . S
H666 C661 0.930 . S
H667 C662 0.930 . S
C668 O669 1.224 . S
C668 O687 1.247 . S
O669 C668 1.224 . S
N670 Co660 2.128 . S
N670 C671 1.355 . S
N670 C673 1.311 . S
C671 N670 1.355 . S
C671 C672 1.363 . S
C671 H683 0.929 . S
C672 C671 1.363 . S
C672 N674 1.375 . S
C672 H690 0.931 . S
C673 N670 1.311 . S
C673 N674 1.347 . S
C673 H684 0.929 . S
N674 C672 1.375 . S
N674 C673 1.347 . S
C675 C678 1.365 . S
C675 N680 1.328 . S
C675 H681 0.929 . S
C676 C677 1.362 . S
C676 C679 1.378 . S
C676 H691 0.929 . S
C677 C676 1.362 . S
C677 C678 1.366 . S
C678 C675 1.365 . S
C678 C677 1.366 . S
C678 H692 0.930 . S
C679 C676 1.378 . S
C679 N680 1.315 . S
C679 H682 0.930 . S
N680 Co660 2.194 . S
N680 C675 1.328 . S
N680 C679 1.315 . S
H681 C675 0.929 . S
H682 C679 0.930 . S
H683 C671 0.929 . S
H684 C673 0.929 . S
O685 Co660 2.351 . S
O685 C688 1.244 . S
O686 Co660 2.155 . S
O686 C688 1.240 . S
O687 Co660 2.096 . S
O687 C668 1.247 . S
C688 O685 1.244 . S
C688 O686 1.240 . S
H689 C663 0.931 . S
H690 C672 0.931 . S
H691 C676 0.929 . S
H692 C678 0.930 . S
Co693 N697 2.148 . S
Co693 N703 2.128 . S
Co693 N713 2.194 . S
Co693 O718 2.351 . S
Co693 O719 2.155 . S
Co693 O720 2.096 . S
C694 N697 1.301 . S
C694 N698 1.328 . S
C694 H699 0.930 . S
C695 C696 1.333 . S
C695 N697 1.317 . S
C695 H700 0.930 . S
C696 C695 1.333 . S
C696 N698 1.350 . S
C696 H722 0.931 1_455 S
N697 Co693 2.148 . S
N697 C694 1.301 . S
N697 C695 1.317 . S
N698 C694 1.328 . S
N698 C696 1.350 . S
H699 C694 0.930 . S
H700 C695 0.930 . S
C701 O702 1.224 . S
C701 O720 1.247 . S
O702 C701 1.224 . S
N703 Co693 2.128 . S
N703 C704 1.355 . S
N703 C706 1.311 . S
C704 N703 1.355 . S
C704 C705 1.363 . S
C704 H716 0.929 . S
C705 C704 1.363 . S
C705 N707 1.375 . S
C705 H723 0.931 . S
C706 N703 1.311 . S
C706 N707 1.347 . S
C706 H717 0.929 . S
N707 C705 1.375 . S
N707 C706 1.347 . S
C708 C711 1.365 . S
C708 N713 1.328 . S
C708 H714 0.929 . S
C709 C710 1.362 . S
C709 C712 1.378 . S
C709 H724 0.929 . S
C710 C709 1.362 . S
C710 C711 1.366 . S
C711 C708 1.365 . S
C711 C710 1.366 . S
C711 H725 0.930 . S
C712 C709 1.378 . S
C712 N713 1.315 . S
C712 H715 0.930 . S
N713 Co693 2.194 . S
N713 C708 1.328 . S
N713 C712 1.315 . S
H714 C708 0.929 . S
H715 C712 0.930 . S
H716 C704 0.929 . S
H717 C706 0.929 . S
O718 Co693 2.351 . S
O718 C721 1.244 . S
O719 Co693 2.155 . S
O719 C721 1.240 . S
O720 Co693 2.096 . S
O720 C701 1.247 . S
C721 O718 1.244 . S
C721 O719 1.240 . S
H722 C696 0.931 1_655 S
H723 C705 0.931 . S
H724 C709 0.929 . S
H725 C711 0.930 . S
Co726 N730 2.148 . S
Co726 N736 2.128 . S
Co726 N746 2.194 . S
Co726 O751 2.351 . S
Co726 O752 2.155 . S
Co726 O753 2.096 . S
C727 N730 1.301 . S
C727 N731 1.328 . S
C727 H732 0.930 . S
C728 C729 1.333 . S
C728 N730 1.317 . S
C728 H733 0.930 . S
C729 C728 1.333 . S
C729 N731 1.350 . S
C729 H755 0.931 . S
N730 Co726 2.148 . S
N730 C727 1.301 . S
N730 C728 1.317 . S
N731 C727 1.328 . S
N731 C729 1.350 . S
H732 C727 0.930 . S
H733 C728 0.930 . S
C734 O735 1.224 . S
C734 O753 1.247 . S
O735 C734 1.224 . S
N736 Co726 2.128 . S
N736 C737 1.355 . S
N736 C739 1.311 . S
C737 N736 1.355 . S
C737 C738 1.363 . S
C737 H749 0.929 . S
C738 C737 1.363 . S
C738 N740 1.375 . S
C738 H756 0.931 . S
C739 N736 1.311 . S
C739 N740 1.347 . S
C739 H750 0.929 . S
N740 C738 1.375 . S
N740 C739 1.347 . S
C741 C744 1.365 . S
C741 N746 1.328 . S
C741 H747 0.929 . S
C742 C743 1.362 . S
C742 C745 1.378 . S
C742 H757 0.929 . S
C743 C742 1.362 . S
C743 C744 1.366 . S
C744 C741 1.365 . S
C744 C743 1.366 . S
C744 H758 0.930 . S
C745 C742 1.378 . S
C745 N746 1.315 . S
C745 H748 0.930 . S
N746 Co726 2.194 . S
N746 C741 1.328 . S
N746 C745 1.315 . S
H747 C741 0.929 . S
H748 C745 0.930 . S
H749 C737 0.929 . S
H750 C739 0.929 . S
O751 Co726 2.351 . S
O751 C754 1.244 . S
O752 Co726 2.155 . S
O752 C754 1.240 . S
O753 Co726 2.096 . S
O753 C734 1.247 . S
C754 O751 1.244 . S
C754 O752 1.240 . S
H755 C729 0.931 . S
H756 C738 0.931 . S
H757 C742 0.929 . S
H758 C744 0.930 . S
Co759 N763 2.148 . S
Co759 N769 2.128 . S
Co759 N779 2.194 . S
Co759 O784 2.351 . S
Co759 O785 2.155 . S
Co759 O786 2.096 . S
C760 N763 1.301 . S
C760 N764 1.328 . S
C760 H765 0.930 . S
C761 C762 1.333 . S
C761 N763 1.317 . S
C761 H766 0.930 . S
C762 C761 1.333 . S
C762 N764 1.350 . S
C762 H788 0.931 . S
N763 Co759 2.148 . S
N763 C760 1.301 . S
N763 C761 1.317 . S
N764 C760 1.328 . S
N764 C762 1.350 . S
H765 C760 0.930 . S
H766 C761 0.930 . S
C767 O768 1.224 . S
C767 O786 1.247 . S
O768 C767 1.224 . S
N769 Co759 2.128 . S
N769 C770 1.355 . S
N769 C772 1.311 . S
C770 N769 1.355 . S
C770 C771 1.363 . S
C770 H782 0.929 . S
C771 C770 1.363 . S
C771 N773 1.375 . S
C771 H789 0.931 . S
C772 N769 1.311 . S
C772 N773 1.347 . S
C772 H783 0.929 . S
N773 C771 1.375 . S
N773 C772 1.347 . S
C774 C777 1.365 . S
C774 N779 1.328 . S
C774 H780 0.929 . S
C775 C776 1.362 . S
C775 C778 1.378 . S
C775 H790 0.929 . S
C776 C775 1.362 . S
C776 C777 1.366 . S
C777 C774 1.365 . S
C777 C776 1.366 . S
C777 H791 0.930 . S
C778 C775 1.378 . S
C778 N779 1.315 . S
C778 H781 0.930 . S
N779 Co759 2.194 . S
N779 C774 1.328 . S
N779 C778 1.315 . S
H780 C774 0.929 . S
H781 C778 0.930 . S
H782 C770 0.929 . S
H783 C772 0.929 . S
O784 Co759 2.351 . S
O784 C787 1.244 . S
O785 Co759 2.155 . S
O785 C787 1.240 . S
O786 Co759 2.096 . S
O786 C767 1.247 . S
C787 O784 1.244 . S
C787 O785 1.240 . S
H788 C762 0.931 . S
H789 C771 0.931 . S
H790 C775 0.929 . S
H791 C777 0.930 . S
Co792 N796 2.148 . S
Co792 N802 2.128 . S
Co792 N812 2.194 . S
Co792 O817 2.351 . S
Co792 O818 2.155 . S
Co792 O819 2.096 . S
C793 N796 1.301 . S
C793 N797 1.328 . S
C793 H798 0.930 . S
C794 C795 1.333 . S
C794 N796 1.317 . S
C794 H799 0.930 . S
C795 C794 1.333 . S
C795 N797 1.350 . S
C795 H821 0.931 . S
N796 Co792 2.148 . S
N796 C793 1.301 . S
N796 C794 1.317 . S
N797 C793 1.328 . S
N797 C795 1.350 . S
H798 C793 0.930 . S
H799 C794 0.930 . S
C800 O801 1.224 . S
C800 O819 1.247 . S
O801 C800 1.224 . S
N802 Co792 2.128 . S
N802 C803 1.355 . S
N802 C805 1.311 . S
C803 N802 1.355 . S
C803 C804 1.363 . S
C803 H815 0.929 . S
C804 C803 1.363 . S
C804 N806 1.375 . S
C804 H822 0.931 . S
C805 N802 1.311 . S
C805 N806 1.347 . S
C805 H816 0.929 . S
N806 C804 1.375 . S
N806 C805 1.347 . S
C807 C810 1.365 . S
C807 N812 1.328 . S
C807 H813 0.929 . S
C808 C809 1.362 . S
C808 C811 1.378 . S
C808 H823 0.929 . S
C809 C808 1.362 . S
C809 C810 1.366 . S
C810 C807 1.365 . S
C810 C809 1.366 . S
C810 H824 0.930 . S
C811 C808 1.378 . S
C811 N812 1.315 . S
C811 H814 0.930 . S
N812 Co792 2.194 . S
N812 C807 1.328 . S
N812 C811 1.315 . S
H813 C807 0.929 . S
H814 C811 0.930 . S
H815 C803 0.929 . S
H816 C805 0.929 . S
O817 Co792 2.351 . S
O817 C820 1.244 . S
O818 Co792 2.155 . S
O818 C820 1.240 . S
O819 Co792 2.096 . S
O819 C800 1.247 . S
C820 O817 1.244 . S
C820 O818 1.240 . S
H821 C795 0.931 . S
H822 C804 0.931 . S
H823 C808 0.929 . S
H824 C810 0.930 . S
Co825 N829 2.148 . S
Co825 N835 2.128 . S
Co825 N845 2.194 . S
Co825 O850 2.351 . S
Co825 O851 2.155 . S
Co825 O852 2.096 . S
C826 N829 1.301 . S
C826 N830 1.328 . S
C826 H831 0.930 . S
C827 C828 1.333 . S
C827 N829 1.317 . S
C827 H832 0.930 . S
C828 C827 1.333 . S
C828 N830 1.350 . S
C828 H854 0.931 . S
N829 Co825 2.148 . S
N829 C826 1.301 . S
N829 C827 1.317 . S
N830 C826 1.328 . S
N830 C828 1.350 . S
H831 C826 0.930 . S
H832 C827 0.930 . S
C833 O834 1.224 . S
C833 O852 1.247 . S
O834 C833 1.224 . S
N835 Co825 2.128 . S
N835 C836 1.355 . S
N835 C838 1.311 . S
C836 N835 1.355 . S
C836 C837 1.363 . S
C836 H848 0.929 . S
C837 C836 1.363 . S
C837 N839 1.375 . S
C837 H855 0.931 . S
C838 N835 1.311 . S
C838 N839 1.347 . S
C838 H849 0.929 . S
N839 C837 1.375 . S
N839 C838 1.347 . S
C840 C843 1.365 . S
C840 N845 1.328 . S
C840 H846 0.929 . S
C841 C842 1.362 . S
C841 C844 1.378 . S
C841 H856 0.929 . S
C842 C841 1.362 . S
C842 C843 1.366 . S
C843 C840 1.365 . S
C843 C842 1.366 . S
C843 H857 0.930 . S
C844 C841 1.378 . S
C844 N845 1.315 . S
C844 H847 0.930 . S
N845 Co825 2.194 . S
N845 C840 1.328 . S
N845 C844 1.315 . S
H846 C840 0.929 . S
H847 C844 0.930 . S
H848 C836 0.929 . S
H849 C838 0.929 . S
O850 Co825 2.351 . S
O850 C853 1.244 . S
O851 Co825 2.155 . S
O851 C853 1.240 . S
O852 Co825 2.096 . S
O852 C833 1.247 . S
C853 O850 1.244 . S
C853 O851 1.240 . S
H854 C828 0.931 . S
H855 C837 0.931 . S
H856 C841 0.929 . S
H857 C843 0.930 . S
Co858 N862 2.148 . S
Co858 N868 2.128 . S
Co858 N878 2.194 . S
Co858 O883 2.351 . S
Co858 O884 2.155 . S
Co858 O885 2.096 . S
C859 N862 1.301 . S
C859 N863 1.328 . S
C859 H864 0.930 . S
C860 C861 1.333 . S
C860 N862 1.317 . S
C860 H865 0.930 . S
C861 C860 1.333 . S
C861 N863 1.350 . S
C861 H887 0.931 . S
N862 Co858 2.148 . S
N862 C859 1.301 . S
N862 C860 1.317 . S
N863 C859 1.328 . S
N863 C861 1.350 . S
H864 C859 0.930 . S
H865 C860 0.930 . S
C866 O867 1.224 . S
C866 O885 1.247 . S
O867 C866 1.224 . S
N868 Co858 2.128 . S
N868 C869 1.355 . S
N868 C871 1.311 . S
C869 N868 1.355 . S
C869 C870 1.363 . S
C869 H881 0.929 . S
C870 C869 1.363 . S
C870 N872 1.375 . S
C870 H888 0.931 . S
C871 N868 1.311 . S
C871 N872 1.347 . S
C871 H882 0.929 . S
N872 C870 1.375 . S
N872 C871 1.347 . S
C873 C876 1.365 . S
C873 N878 1.328 . S
C873 H879 0.929 . S
C874 C875 1.362 . S
C874 C877 1.378 . S
C874 H889 0.929 . S
C875 C874 1.362 . S
C875 C876 1.366 . S
C876 C873 1.365 . S
C876 C875 1.366 . S
C876 H890 0.930 . S
C877 C874 1.378 . S
C877 N878 1.315 . S
C877 H880 0.930 . S
N878 Co858 2.194 . S
N878 C873 1.328 . S
N878 C877 1.315 . S
H879 C873 0.929 . S
H880 C877 0.930 . S
H881 C869 0.929 . S
H882 C871 0.929 . S
O883 Co858 2.351 . S
O883 C886 1.244 . S
O884 Co858 2.155 . S
O884 C886 1.240 . S
O885 Co858 2.096 . S
O885 C866 1.247 . S
C886 O883 1.244 . S
C886 O884 1.240 . S
H887 C861 0.931 . S
H888 C870 0.931 . S
H889 C874 0.929 . S
H890 C876 0.930 . S
Co891 N895 2.148 . S
Co891 N901 2.128 . S
Co891 N911 2.194 . S
Co891 O916 2.351 . S
Co891 O917 2.155 . S
Co891 O918 2.096 . S
C892 N895 1.301 . S
C892 N896 1.328 . S
C892 H897 0.930 . S
C893 C894 1.333 . S
C893 N895 1.317 . S
C893 H898 0.930 . S
C894 C893 1.333 . S
C894 N896 1.350 . S
C894 H920 0.931 1_655 S
N895 Co891 2.148 . S
N895 C892 1.301 . S
N895 C893 1.317 . S
N896 C892 1.328 . S
N896 C894 1.350 . S
H897 C892 0.930 . S
H898 C893 0.930 . S
C899 O900 1.224 . S
C899 O918 1.247 . S
O900 C899 1.224 . S
N901 Co891 2.128 . S
N901 C902 1.355 . S
N901 C904 1.311 . S
C902 N901 1.355 . S
C902 C903 1.363 . S
C902 H914 0.929 . S
C903 C902 1.363 . S
C903 N905 1.375 . S
C903 H921 0.931 . S
C904 N901 1.311 . S
C904 N905 1.347 . S
C904 H915 0.929 . S
N905 C903 1.375 . S
N905 C904 1.347 . S
C906 C909 1.365 . S
C906 N911 1.328 . S
C906 H912 0.929 . S
C907 C908 1.362 . S
C907 C910 1.378 . S
C907 H922 0.929 . S
C908 C907 1.362 . S
C908 C909 1.366 . S
C909 C906 1.365 . S
C909 C908 1.366 . S
C909 H923 0.930 . S
C910 C907 1.378 . S
C910 N911 1.315 . S
C910 H913 0.930 . S
N911 Co891 2.194 . S
N911 C906 1.328 . S
N911 C910 1.315 . S
H912 C906 0.929 . S
H913 C910 0.930 . S
H914 C902 0.929 . S
H915 C904 0.929 . S
O916 Co891 2.351 . S
O916 C919 1.244 . S
O917 Co891 2.155 . S
O917 C919 1.240 . S
O918 Co891 2.096 . S
O918 C899 1.247 . S
C919 O916 1.244 . S
C919 O917 1.240 . S
H920 C894 0.931 1_455 S
H921 C903 0.931 . S
H922 C907 0.929 . S
H923 C909 0.930 . S
Co924 N928 2.148 . S
Co924 N934 2.128 . S
Co924 N944 2.194 . S
Co924 O949 2.351 . S
Co924 O950 2.155 . S
Co924 O951 2.096 . S
C925 N928 1.301 . S
C925 N929 1.328 . S
C925 H930 0.930 . S
C926 C927 1.333 . S
C926 N928 1.317 . S
C926 H931 0.930 . S
C927 C926 1.333 . S
C927 N929 1.350 . S
C927 H953 0.931 . S
N928 Co924 2.148 . S
N928 C925 1.301 . S
N928 C926 1.317 . S
N929 C925 1.328 . S
N929 C927 1.350 . S
H930 C925 0.930 . S
H931 C926 0.930 . S
C932 O933 1.224 . S
C932 O951 1.247 . S
O933 C932 1.224 . S
N934 Co924 2.128 . S
N934 C935 1.355 . S
N934 C937 1.311 . S
C935 N934 1.355 . S
C935 C936 1.363 . S
C935 H947 0.929 . S
C936 C935 1.363 . S
C936 N938 1.375 . S
C936 H954 0.931 . S
C937 N934 1.311 . S
C937 N938 1.347 . S
C937 H948 0.929 . S
N938 C936 1.375 . S
N938 C937 1.347 . S
C939 C942 1.365 . S
C939 N944 1.328 . S
C939 H945 0.929 . S
C940 C941 1.362 . S
C940 C943 1.378 . S
C940 H955 0.929 . S
C941 C940 1.362 . S
C941 C942 1.366 . S
C942 C939 1.365 . S
C942 C941 1.366 . S
C942 H956 0.930 . S
C943 C940 1.378 . S
C943 N944 1.315 . S
C943 H946 0.930 . S
N944 Co924 2.194 . S
N944 C939 1.328 . S
N944 C943 1.315 . S
H945 C939 0.929 . S
H946 C943 0.930 . S
H947 C935 0.929 . S
H948 C937 0.929 . S
O949 Co924 2.351 . S
O949 C952 1.244 . S
O950 Co924 2.155 . S
O950 C952 1.240 . S
O951 Co924 2.096 . S
O951 C932 1.247 . S
C952 O949 1.244 . S
C952 O950 1.240 . S
H953 C927 0.931 . S
H954 C936 0.931 . S
H955 C940 0.929 . S
H956 C942 0.930 . S
Co957 N961 2.148 . S
Co957 N967 2.128 . S
Co957 N977 2.194 . S
Co957 O982 2.351 . S
Co957 O983 2.155 . S
Co957 O984 2.096 . S
C958 N961 1.301 . S
C958 N962 1.328 . S
C958 H963 0.930 . S
C959 C960 1.333 . S
C959 N961 1.317 . S
C959 H964 0.930 . S
C960 C959 1.333 . S
C960 N962 1.350 . S
C960 H986 0.931 1_655 S
N961 Co957 2.148 . S
N961 C958 1.301 . S
N961 C959 1.317 . S
N962 C958 1.328 . S
N962 C960 1.350 . S
H963 C958 0.930 . S
H964 C959 0.930 . S
C965 O966 1.224 . S
C965 O984 1.247 . S
O966 C965 1.224 . S
N967 Co957 2.128 . S
N967 C968 1.355 . S
N967 C970 1.311 . S
C968 N967 1.355 . S
C968 C969 1.363 . S
C968 H980 0.929 . S
C969 C968 1.363 . S
C969 N971 1.375 . S
C969 H987 0.931 . S
C970 N967 1.311 . S
C970 N971 1.347 . S
C970 H981 0.929 . S
N971 C969 1.375 . S
N971 C970 1.347 . S
C972 C975 1.365 . S
C972 N977 1.328 . S
C972 H978 0.929 . S
C973 C974 1.362 . S
C973 C976 1.378 . S
C973 H988 0.929 . S
C974 C973 1.362 . S
C974 C975 1.366 . S
C975 C972 1.365 . S
C975 C974 1.366 . S
C975 H989 0.930 . S
C976 C973 1.378 . S
C976 N977 1.315 . S
C976 H979 0.930 . S
N977 Co957 2.194 . S
N977 C972 1.328 . S
N977 C976 1.315 . S
H978 C972 0.929 . S
H979 C976 0.930 . S
H980 C968 0.929 . S
H981 C970 0.929 . S
O982 Co957 2.351 . S
O982 C985 1.244 . S
O983 Co957 2.155 . S
O983 C985 1.240 . S
O984 Co957 2.096 . S
O984 C965 1.247 . S
C985 O982 1.244 . S
C985 O983 1.240 . S
H986 C960 0.931 1_455 S
H987 C969 0.931 . S
H988 C973 0.929 . S
H989 C975 0.930 . S
Co990 N994 2.148 . S
Co990 N1000 2.128 . S
Co990 N1010 2.194 . S
Co990 O1015 2.351 . S
Co990 O1016 2.155 . S
Co990 O1017 2.096 . S
C991 N994 1.301 . S
C991 N995 1.328 . S
C991 H996 0.930 . S
C992 C993 1.333 . S
C992 N994 1.317 . S
C992 H997 0.930 . S
C993 C992 1.333 . S
C993 N995 1.350 . S
C993 H1019 0.931 . S
N994 Co990 2.148 . S
N994 C991 1.301 . S
N994 C992 1.317 . S
N995 C991 1.328 . S
N995 C993 1.350 . S
H996 C991 0.930 . S
H997 C992 0.930 . S
C998 O999 1.224 . S
C998 O1017 1.247 . S
O999 C998 1.224 . S
N1000 Co990 2.128 . S
N1000 C1001 1.355 . S
N1000 C1003 1.311 . S
C1001 N1000 1.355 . S
C1001 C1002 1.363 . S
C1001 H1013 0.929 . S
C1002 C1001 1.363 . S
C1002 N1004 1.375 . S
C1002 H1020 0.931 . S
C1003 N1000 1.311 . S
C1003 N1004 1.347 . S
C1003 H1014 0.929 . S
N1004 C1002 1.375 . S
N1004 C1003 1.347 . S
C1005 C1008 1.365 . S
C1005 N1010 1.328 . S
C1005 H1011 0.929 . S
C1006 C1007 1.362 . S
C1006 C1009 1.378 . S
C1006 H1021 0.929 . S
C1007 C1006 1.362 . S
C1007 C1008 1.366 . S
C1008 C1005 1.365 . S
C1008 C1007 1.366 . S
C1008 H1022 0.930 . S
C1009 C1006 1.378 . S
C1009 N1010 1.315 . S
C1009 H1012 0.930 . S
N1010 Co990 2.194 . S
N1010 C1005 1.328 . S
N1010 C1009 1.315 . S
H1011 C1005 0.929 . S
H1012 C1009 0.930 . S
H1013 C1001 0.929 . S
H1014 C1003 0.929 . S
O1015 Co990 2.351 . S
O1015 C1018 1.244 . S
O1016 Co990 2.155 . S
O1016 C1018 1.240 . S
O1017 Co990 2.096 . S
O1017 C998 1.247 . S
C1018 O1015 1.244 . S
C1018 O1016 1.240 . S
H1019 C993 0.931 . S
H1020 C1002 0.931 . S
H1021 C1006 0.929 . S
H1022 C1008 0.930 . S
Co1023 N1027 2.148 . S
Co1023 N1033 2.128 . S
Co1023 N1043 2.194 . S
Co1023 O1048 2.351 . S
Co1023 O1049 2.155 . S
Co1023 O1050 2.096 . S
C1024 N1027 1.301 . S
C1024 N1028 1.328 . S
C1024 H1029 0.930 . S
C1025 C1026 1.333 . S
C1025 N1027 1.317 . S
C1025 H1030 0.930 . S
C1026 C1025 1.333 . S
C1026 N1028 1.350 . S
C1026 H1052 0.931 . S
N1027 Co1023 2.148 . S
N1027 C1024 1.301 . S
N1027 C1025 1.317 . S
N1028 C1024 1.328 . S
N1028 C1026 1.350 . S
H1029 C1024 0.930 . S
H1030 C1025 0.930 . S
C1031 O1032 1.224 . S
C1031 O1050 1.247 . S
O1032 C1031 1.224 . S
N1033 Co1023 2.128 . S
N1033 C1034 1.355 . S
N1033 C1036 1.311 . S
C1034 N1033 1.355 . S
C1034 C1035 1.363 . S
C1034 H1046 0.929 . S
C1035 C1034 1.363 . S
C1035 N1037 1.375 . S
C1035 H1053 0.931 . S
C1036 N1033 1.311 . S
C1036 N1037 1.347 . S
C1036 H1047 0.929 . S
N1037 C1035 1.375 . S
N1037 C1036 1.347 . S
C1038 C1041 1.365 . S
C1038 N1043 1.328 . S
C1038 H1044 0.929 . S
C1039 C1040 1.362 . S
C1039 C1042 1.378 . S
C1039 H1054 0.929 . S
C1040 C1039 1.362 . S
C1040 C1041 1.366 . S
C1041 C1038 1.365 . S
C1041 C1040 1.366 . S
C1041 H1055 0.930 . S
C1042 C1039 1.378 . S
C1042 N1043 1.315 . S
C1042 H1045 0.930 . S
N1043 Co1023 2.194 . S
N1043 C1038 1.328 . S
N1043 C1042 1.315 . S
H1044 C1038 0.929 . S
H1045 C1042 0.930 . S
H1046 C1034 0.929 . S
H1047 C1036 0.929 . S
O1048 Co1023 2.351 . S
O1048 C1051 1.244 . S
O1049 Co1023 2.155 . S
O1049 C1051 1.240 . S
O1050 Co1023 2.096 . S
O1050 C1031 1.247 . S
C1051 O1048 1.244 . S
C1051 O1049 1.240 . S
H1052 C1026 0.931 . S
H1053 C1035 0.931 . S
H1054 C1039 0.929 . S
H1055 C1041 0.930 . S
H1056 C1062 0.930 . S
H1057 C1066 0.930 . S
H1058 C1071 0.929 . S
H1059 C1069 0.929 . S
H1060 C1064 0.929 . S
H1061 C1070 0.929 . S
C1062 H1056 0.930 . S
C1062 C1063 1.367 . S
C1062 C1070 1.378 . S
C1063 C1062 1.367 . S
C1063 C1071 1.433 . S
C1064 H1060 0.929 . S
C1064 C1066 1.378 . S
C1064 C1068 1.350 . S
C1065 C1068 1.463 . S
C1065 C1070 1.350 . S
C1065 N1073 1.427 . S
C1066 H1057 0.930 . S
C1066 C1064 1.378 . S
C1066 C1067 1.367 . S
C1067 C1066 1.367 . S
C1067 C1069 1.433 . S
C1068 C1064 1.350 . S
C1068 C1065 1.463 . S
C1068 N1072 1.427 . S
C1069 H1059 0.929 . S
C1069 C1067 1.433 . S
C1069 N1072 1.384 . S
C1070 H1061 0.929 . S
C1070 C1062 1.378 . S
C1070 C1065 1.350 . S
C1071 H1058 0.929 . S
C1071 C1063 1.433 . S
C1071 N1073 1.384 . S
N1072 C1068 1.427 . S
N1072 C1069 1.384 . S
N1073 C1065 1.427 . S
N1073 C1071 1.384 . S
H1074 C1080 0.930 . S
H1075 C1084 0.930 . S
H1076 C1089 0.929 . S
H1077 C1087 0.929 . S
H1078 C1082 0.929 . S
H1079 C1088 0.929 . S
C1080 H1074 0.930 . S
C1080 C1081 1.367 . S
C1080 C1088 1.378 . S
C1081 C1080 1.367 . S
C1081 C1089 1.433 . S
C1082 H1078 0.929 . S
C1082 C1084 1.378 . S
C1082 C1086 1.350 . S
C1083 C1086 1.463 1_465 S
C1083 C1088 1.350 . S
C1083 N1091 1.434 1_455 S
C1084 H1075 0.930 . S
C1084 C1082 1.378 . S
C1084 C1085 1.367 . S
C1085 C1084 1.367 . S
C1085 C1087 1.433 . S
C1086 C1082 1.350 . S
C1086 C1083 1.463 1_645 S
C1086 N1090 1.434 1_655 S
C1087 H1077 0.929 . S
C1087 C1085 1.433 . S
C1087 N1090 1.399 1_655 S
C1088 H1079 0.929 . S
C1088 C1080 1.378 . S
C1088 C1083 1.350 . S
C1089 H1076 0.929 . S
C1089 C1081 1.433 . S
C1089 N1091 1.399 1_455 S
N1090 C1086 1.434 1_455 S
N1090 C1087 1.399 1_455 S
N1091 C1083 1.434 1_655 S
N1091 C1089 1.399 1_655 S
H1092 C1098 0.930 . S
H1093 C1102 0.930 . S
H1094 C1107 0.929 . S
H1095 C1105 0.929 . S
H1096 C1100 0.929 . S
H1097 C1106 0.929 . S
C1098 H1092 0.930 . S
C1098 C1099 1.367 . S
C1098 C1106 1.378 . S
C1099 C1098 1.367 . S
C1099 C1107 1.433 . S
C1100 H1096 0.929 . S
C1100 C1102 1.378 . S
C1100 C1104 1.350 . S
C1101 C1104 1.463 . S
C1101 C1106 1.350 . S
C1101 N1109 1.427 . S
C1102 H1093 0.930 . S
C1102 C1100 1.378 . S
C1102 C1103 1.367 . S
C1103 C1102 1.367 . S
C1103 C1105 1.433 . S
C1104 C1100 1.350 . S
C1104 C1101 1.463 . S
C1104 N1108 1.427 . S
C1105 H1095 0.929 . S
C1105 C1103 1.433 . S
C1105 N1108 1.384 . S
C1106 H1097 0.929 . S
C1106 C1098 1.378 . S
C1106 C1101 1.350 . S
C1107 H1094 0.929 . S
C1107 C1099 1.433 . S
C1107 N1109 1.384 . S
N1108 C1104 1.427 . S
N1108 C1105 1.384 . S
N1109 C1101 1.427 . S
N1109 C1107 1.384 . S
H1110 C1116 0.930 . S
H1111 C1120 0.930 . S
H1112 C1125 0.929 . S
H1113 C1123 0.929 . S
H1114 C1118 0.929 . S
H1115 C1124 0.929 . S
C1116 H1110 0.930 . S
C1116 C1117 1.367 1_565 S
C1116 C1124 1.378 . S
C1117 C1116 1.367 1_545 S
C1117 C1125 1.433 . S
C1118 H1114 0.929 . S
C1118 C1120 1.378 . S
C1118 C1122 1.350 1_545 S
C1119 C1122 1.463 1_544 S
C1119 C1124 1.350 1_545 S
C1119 N1127 1.427 . S
C1120 H1111 0.930 . S
C1120 C1118 1.378 . S
C1120 C1121 1.367 1_545 S
C1121 C1120 1.367 1_565 S
C1121 C1123 1.433 . S
C1122 C1118 1.350 1_565 S
C1122 C1119 1.463 1_566 S
C1122 N1126 1.427 . S
C1123 H1113 0.929 . S
C1123 C1121 1.433 . S
C1123 N1126 1.384 . S
C1124 H1115 0.929 . S
C1124 C1116 1.378 . S
C1124 C1119 1.350 1_565 S
C1125 H1112 0.929 . S
C1125 C1117 1.433 . S
C1125 N1127 1.384 . S
N1126 C1122 1.427 . S
N1126 C1123 1.384 . S
N1127 C1119 1.427 . S
N1127 C1125 1.384 . S
H1128 C1134 0.930 . S
H1129 C1138 0.930 . S
H1130 C1143 0.929 . S
H1131 C1141 0.929 . S
H1132 C1136 0.929 . S
H1133 C1142 0.929 . S
C1134 H1128 0.930 . S
C1134 C1135 1.367 . S
C1134 C1142 1.378 . S
C1135 C1134 1.367 . S
C1135 C1143 1.433 . S
C1136 H1132 0.929 . S
C1136 C1138 1.378 . S
C1136 C1140 1.350 . S
C1137 C1140 1.463 . S
C1137 C1142 1.350 . S
C1137 N1145 1.427 . S
C1138 H1129 0.930 . S
C1138 C1136 1.378 . S
C1138 C1139 1.367 . S
C1139 C1138 1.367 . S
C1139 C1141 1.433 . S
C1140 C1136 1.350 . S
C1140 C1137 1.463 . S
C1140 N1144 1.427 . S
C1141 H1131 0.929 . S
C1141 C1139 1.433 . S
C1141 N1144 1.384 . S
C1142 H1133 0.929 . S
C1142 C1134 1.378 . S
C1142 C1137 1.350 . S
C1143 H1130 0.929 . S
C1143 C1135 1.433 . S
C1143 N1145 1.384 . S
N1144 C1140 1.427 . S
N1144 C1141 1.384 . S
N1145 C1137 1.427 . S
N1145 C1143 1.384 . S
H1146 C1152 0.930 . S
H1147 C1156 0.930 . S
H1148 C1161 0.929 . S
H1149 C1159 0.929 . S
H1150 C1154 0.929 . S
H1151 C1160 0.929 . S
C1152 H1146 0.930 . S
C1152 C1153 1.367 . S
C1152 C1160 1.378 . S
C1153 C1152 1.367 . S
C1153 C1161 1.433 . S
C1154 H1150 0.929 . S
C1154 C1156 1.378 . S
C1154 C1158 1.350 . S
C1155 C1158 1.463 1_565 S
C1155 C1160 1.350 . S
C1155 N1163 1.433 . S
C1156 H1147 0.930 . S
C1156 C1154 1.378 . S
C1156 C1157 1.367 . S
C1157 C1156 1.367 . S
C1157 C1159 1.433 . S
C1158 C1154 1.350 . S
C1158 C1155 1.463 1_545 S
C1158 N1162 1.433 . S
C1159 H1149 0.929 . S
C1159 C1157 1.433 . S
C1159 N1162 1.395 . S
C1160 H1151 0.929 . S
C1160 C1152 1.378 . S
C1160 C1155 1.350 . S
C1161 H1148 0.929 . S
C1161 C1153 1.433 . S
C1161 N1163 1.395 . S
N1162 C1158 1.433 . S
N1162 C1159 1.395 . S
N1163 C1155 1.433 . S
N1163 C1161 1.395 . S
H1164 C1170 0.930 . S
H1165 C1174 0.930 . S
H1166 C1179 0.929 . S
H1167 C1177 0.929 . S
H1168 C1172 0.929 . S
H1169 C1178 0.929 . S
C1170 H1164 0.930 . S
C1170 C1171 1.367 . S
C1170 C1178 1.378 . S
C1171 C1170 1.367 . S
C1171 C1179 1.433 . S
C1172 H1168 0.929 . S
C1172 C1174 1.378 . S
C1172 C1176 1.350 . S
C1173 C1176 1.463 . S
C1173 C1178 1.350 . S
C1173 N1181 1.427 . S
C1174 H1165 0.930 . S
C1174 C1172 1.378 . S
C1174 C1175 1.367 . S
C1175 C1174 1.367 . S
C1175 C1177 1.433 . S
C1176 C1172 1.350 . S
C1176 C1173 1.463 . S
C1176 N1180 1.427 . S
C1177 H1167 0.929 . S
C1177 C1175 1.433 . S
C1177 N1180 1.384 . S
C1178 H1169 0.929 . S
C1178 C1170 1.378 . S
C1178 C1173 1.350 . S
C1179 H1166 0.929 . S
C1179 C1171 1.433 . S
C1179 N1181 1.384 . S
N1180 C1176 1.427 . S
N1180 C1177 1.384 . S
N1181 C1173 1.427 . S
N1181 C1179 1.384 . S
H1182 C1188 0.930 . S
H1183 C1192 0.930 . S
H1184 C1197 0.929 . S
H1185 C1195 0.929 . S
H1186 C1190 0.929 1_455 S
H1187 C1196 0.929 1_655 S
C1188 H1182 0.930 . S
C1188 C1189 1.367 . S
C1188 C1196 1.378 . S
C1189 C1188 1.367 . S
C1189 C1197 1.433 1_545 S
C1190 H1186 0.929 1_655 S
C1190 C1192 1.378 . S
C1190 C1194 1.350 . S
C1191 C1194 1.463 1_446 S
C1191 C1196 1.350 . S
C1191 N1199 1.427 1_545 S
C1192 H1183 0.930 . S
C1192 C1190 1.378 . S
C1192 C1193 1.367 . S
C1193 C1192 1.367 . S
C1193 C1195 1.433 1_565 S
C1194 C1190 1.350 . S
C1194 C1191 1.463 1_664 S
C1194 N1198 1.427 1_565 S
C1195 H1185 0.929 . S
C1195 C1193 1.433 1_545 S
C1195 N1198 1.384 . S
C1196 H1187 0.929 1_455 S
C1196 C1188 1.378 . S
C1196 C1191 1.350 . S
C1197 H1184 0.929 . S
C1197 C1189 1.433 1_565 S
C1197 N1199 1.384 . S
N1198 C1194 1.427 1_545 S
N1198 C1195 1.384 . S
N1199 C1191 1.427 1_565 S
N1199 C1197 1.384 . S
H1200 C1206 0.930 . S
H1201 C1210 0.930 . S
H1202 C1215 0.929 . S
H1203 C1213 0.929 . S
H1204 C1208 0.929 . S
H1205 C1214 0.929 . S
C1206 H1200 0.930 . S
C1206 C1207 1.367 . S
C1206 C1214 1.378 . S
C1207 C1206 1.367 . S
C1207 C1215 1.433 . S
C1208 H1204 0.929 . S
C1208 C1210 1.378 . S
C1208 C1212 1.350 . S
C1209 C1212 1.463 . S
C1209 C1214 1.350 . S
C1209 N1217 1.427 . S
C1210 H1201 0.930 . S
C1210 C1208 1.378 . S
C1210 C1211 1.367 . S
C1211 C1210 1.367 . S
C1211 C1213 1.433 . S
C1212 C1208 1.350 . S
C1212 C1209 1.463 . S
C1212 N1216 1.427 . S
C1213 H1203 0.929 . S
C1213 C1211 1.433 . S
C1213 N1216 1.384 . S
C1214 H1205 0.929 . S
C1214 C1206 1.378 . S
C1214 C1209 1.350 . S
C1215 H1202 0.929 . S
C1215 C1207 1.433 . S
C1215 N1217 1.384 . S
N1216 C1212 1.427 . S
N1216 C1213 1.384 . S
N1217 C1209 1.427 . S
N1217 C1215 1.384 . S
H1218 C1224 0.930 . S
H1219 C1228 0.930 . S
H1220 C1233 0.929 . S
H1221 C1231 0.929 . S
H1222 C1226 0.929 . S
H1223 C1232 0.929 . S
C1224 H1218 0.930 . S
C1224 C1225 1.367 . S
C1224 C1232 1.378 . S
C1225 C1224 1.367 . S
C1225 C1233 1.433 . S
C1226 H1222 0.929 . S
C1226 C1228 1.378 . S
C1226 C1230 1.350 . S
C1227 C1230 1.463 . S
C1227 C1232 1.350 . S
C1227 N1235 1.427 . S
C1228 H1219 0.930 . S
C1228 C1226 1.378 . S
C1228 C1229 1.367 . S
C1229 C1228 1.367 . S
C1229 C1231 1.433 . S
C1230 C1226 1.350 . S
C1230 C1227 1.463 . S
C1230 N1234 1.427 . S
C1231 H1221 0.929 . S
C1231 C1229 1.433 . S
C1231 N1234 1.384 . S
C1232 H1223 0.929 . S
C1232 C1224 1.378 . S
C1232 C1227 1.350 . S
C1233 H1220 0.929 . S
C1233 C1225 1.433 . S
C1233 N1235 1.384 . S
N1234 C1230 1.427 . S
N1234 C1231 1.384 . S
N1235 C1227 1.427 . S
N1235 C1233 1.384 . S
H1236 C1242 0.930 . S
H1237 C1246 0.930 . S
H1238 C1251 0.929 . S
H1239 C1249 0.929 . S
H1240 C1244 0.929 . S
H1241 C1250 0.929 . S
C1242 H1236 0.930 . S
C1242 C1243 1.367 . S
C1242 C1250 1.378 . S
C1243 C1242 1.367 . S
C1243 C1251 1.433 . S
C1244 H1240 0.929 . S
C1244 C1246 1.378 . S
C1244 C1248 1.350 . S
C1245 C1248 1.463 . S
C1245 C1250 1.350 . S
C1245 N1253 1.427 . S
C1246 H1237 0.930 . S
C1246 C1244 1.378 . S
C1246 C1247 1.367 . S
C1247 C1246 1.367 . S
C1247 C1249 1.433 . S
C1248 C1244 1.350 . S
C1248 C1245 1.463 . S
C1248 N1252 1.427 . S
C1249 H1239 0.929 . S
C1249 C1247 1.433 . S
C1249 N1252 1.384 . S
C1250 H1241 0.929 . S
C1250 C1242 1.378 . S
C1250 C1245 1.350 . S
C1251 H1238 0.929 . S
C1251 C1243 1.433 . S
C1251 N1253 1.384 . S
N1252 C1248 1.427 . S
N1252 C1249 1.384 . S
N1253 C1245 1.427 . S
N1253 C1251 1.384 . S
H1254 C1260 0.930 . S
H1255 C1264 0.930 . S
H1256 C1269 0.929 . S
H1257 C1267 0.929 . S
H1258 C1262 0.929 . S
H1259 C1268 0.929 . S
C1260 H1254 0.930 . S
C1260 C1261 1.367 . S
C1260 C1268 1.378 . S
C1261 C1260 1.367 . S
C1261 C1269 1.433 . S
C1262 H1258 0.929 . S
C1262 C1264 1.378 . S
C1262 C1266 1.350 . S
C1263 C1266 1.463 . S
C1263 C1268 1.350 . S
C1263 N1271 1.427 . S
C1264 H1255 0.930 . S
C1264 C1262 1.378 . S
C1264 C1265 1.367 . S
C1265 C1264 1.367 . S
C1265 C1267 1.433 . S
C1266 C1262 1.350 . S
C1266 C1263 1.463 . S
C1266 N1270 1.427 . S
C1267 H1257 0.929 . S
C1267 C1265 1.433 . S
C1267 N1270 1.384 . S
C1268 H1259 0.929 . S
C1268 C1260 1.378 . S
C1268 C1263 1.350 . S
C1269 H1256 0.929 . S
C1269 C1261 1.433 . S
C1269 N1271 1.384 . S
N1270 C1266 1.427 . S
N1270 C1267 1.384 . S
N1271 C1263 1.427 . S
N1271 C1269 1.384 . S
H1272 C1278 0.930 . S
H1273 C1282 0.930 . S
H1274 C1287 0.929 . S
H1275 C1285 0.929 . S
H1276 C1280 0.929 1_556 S
H1277 C1286 0.929 1_554 S
C1278 H1272 0.930 . S
C1278 C1279 1.367 . S
C1278 C1286 1.378 . S
C1279 C1278 1.367 . S
C1279 C1287 1.433 . S
C1280 H1276 0.929 1_554 S
C1280 C1282 1.378 . S
C1280 C1284 1.350 . S
C1281 C1284 1.463 1_556 S
C1281 C1286 1.350 . S
C1281 N1289 1.427 . S
C1282 H1273 0.930 . S
C1282 C1280 1.378 . S
C1282 C1283 1.367 . S
C1283 C1282 1.367 . S
C1283 C1285 1.433 . S
C1284 C1280 1.350 . S
C1284 C1281 1.463 1_554 S
C1284 N1288 1.427 . S
C1285 H1275 0.929 . S
C1285 C1283 1.433 . S
C1285 N1288 1.384 . S
C1286 H1277 0.929 1_556 S
C1286 C1278 1.378 . S
C1286 C1281 1.350 . S
C1287 H1274 0.929 . S
C1287 C1279 1.433 . S
C1287 N1289 1.384 . S
N1288 C1284 1.427 . S
N1288 C1285 1.384 . S
N1289 C1281 1.427 . S
N1289 C1287 1.384 . S
H1290 C1296 0.930 . S
H1291 C1300 0.930 . S
H1292 C1305 0.929 . S
H1293 C1303 0.929 . S
H1294 C1298 0.934 . S
H1295 C1304 0.934 . S
C1296 H1290 0.930 . S
C1296 C1297 1.367 . S
C1296 C1304 1.374 1_655 S
C1297 C1296 1.367 . S
C1297 C1305 1.433 . S
C1298 H1294 0.934 . S
C1298 C1300 1.374 1_655 S
C1298 C1302 1.348 1_655 S
C1299 C1302 1.463 1_655 S
C1299 C1304 1.348 1_655 S
C1299 N1307 1.427 . S
C1300 H1291 0.930 . S
C1300 C1298 1.374 1_455 S
C1300 C1301 1.367 . S
C1301 C1300 1.367 . S
C1301 C1303 1.433 . S
C1302 C1298 1.348 1_455 S
C1302 C1299 1.463 1_455 S
C1302 N1306 1.427 . S
C1303 H1293 0.929 . S
C1303 C1301 1.433 . S
C1303 N1306 1.384 . S
C1304 H1295 0.934 . S
C1304 C1296 1.374 1_455 S
C1304 C1299 1.348 1_455 S
C1305 H1292 0.929 . S
C1305 C1297 1.433 . S
C1305 N1307 1.384 . S
N1306 C1302 1.427 . S
N1306 C1303 1.384 . S
N1307 C1299 1.427 . S
N1307 C1305 1.384 . S
H1308 C1314 0.947 . S
H1309 C1318 0.947 . S
H1310 C1323 0.929 . S
H1311 C1321 0.929 . S
H1312 C1316 0.929 . S
H1313 C1322 0.929 . S
C1314 H1308 0.947 . S
C1314 C1315 1.367 . S
C1314 C1322 1.378 1_455 S
C1315 C1314 1.367 . S
C1315 C1323 1.433 . S
C1316 H1312 0.929 . S
C1316 C1318 1.378 1_455 S
C1316 C1320 1.350 1_455 S
C1317 C1320 1.463 1_454 S
C1317 C1322 1.350 1_455 S
C1317 N1325 1.427 . S
C1318 H1309 0.947 . S
C1318 C1316 1.378 1_655 S
C1318 C1319 1.367 . S
C1319 C1318 1.367 . S
C1319 C1321 1.433 . S
C1320 C1316 1.350 1_655 S
C1320 C1317 1.463 1_656 S
C1320 N1324 1.427 . S
C1321 H1311 0.929 . S
C1321 C1319 1.433 . S
C1321 N1324 1.384 . S
C1322 H1313 0.929 . S
C1322 C1314 1.378 1_655 S
C1322 C1317 1.350 1_655 S
C1323 H1310 0.929 . S
C1323 C1315 1.433 . S
C1323 N1325 1.384 . S
N1324 C1320 1.427 . S
N1324 C1321 1.384 . S
N1325 C1317 1.427 . S
N1325 C1323 1.384 . S
H1326 C1332 0.930 . S
H1327 C1336 0.930 . S
H1328 C1341 0.929 . S
H1329 C1339 0.929 . S
H1330 C1334 0.929 . S
H1331 C1340 0.929 . S
C1332 H1326 0.930 . S
C1332 C1333 1.367 . S
C1332 C1340 1.378 . S
C1333 C1332 1.367 . S
C1333 C1341 1.433 . S
C1334 H1330 0.929 . S
C1334 C1336 1.378 . S
C1334 C1338 1.350 . S
C1335 C1338 1.463 . S
C1335 C1340 1.350 . S
C1335 N1343 1.427 . S
C1336 H1327 0.930 . S
C1336 C1334 1.378 . S
C1336 C1337 1.367 . S
C1337 C1336 1.367 . S
C1337 C1339 1.433 . S
C1338 C1334 1.350 . S
C1338 C1335 1.463 . S
C1338 N1342 1.427 . S
C1339 H1329 0.929 . S
C1339 C1337 1.433 . S
C1339 N1342 1.384 . S
C1340 H1331 0.929 . S
C1340 C1332 1.378 . S
C1340 C1335 1.350 . S
C1341 H1328 0.929 . S
C1341 C1333 1.433 . S
C1341 N1343 1.384 . S
N1342 C1338 1.427 . S
N1342 C1339 1.384 . S
N1343 C1335 1.427 . S
N1343 C1341 1.384 . S
H1344 C1350 0.930 . S
H1345 C1354 0.930 . S
H1346 C1359 0.929 . S
H1347 C1357 0.929 . S
H1348 C1352 0.929 . S
H1349 C1358 0.929 . S
C1350 H1344 0.930 . S
C1350 C1351 1.367 . S
C1350 C1358 1.378 . S
C1351 C1350 1.367 . S
C1351 C1359 1.433 . S
C1352 H1348 0.929 . S
C1352 C1354 1.378 . S
C1352 C1356 1.350 . S
C1353 C1356 1.463 . S
C1353 C1358 1.350 . S
C1353 N1361 1.427 . S
C1354 H1345 0.930 . S
C1354 C1352 1.378 . S
C1354 C1355 1.367 . S
C1355 C1354 1.367 . S
C1355 C1357 1.433 . S
C1356 C1352 1.350 . S
C1356 C1353 1.463 . S
C1356 N1360 1.427 . S
C1357 H1347 0.929 . S
C1357 C1355 1.433 . S
C1357 N1360 1.384 . S
C1358 H1349 0.929 . S
C1358 C1350 1.378 . S
C1358 C1353 1.350 . S
C1359 H1346 0.929 . S
C1359 C1351 1.433 . S
C1359 N1361 1.384 . S
N1360 C1356 1.427 . S
N1360 C1357 1.384 . S
N1361 C1353 1.427 . S
N1361 C1359 1.384 . S
H1362 C1368 0.930 . S
H1363 C1372 0.930 . S
H1364 C1377 0.929 . S
H1365 C1375 0.929 . S
H1366 C1370 0.929 . S
H1367 C1376 0.929 . S
C1368 H1362 0.930 . S
C1368 C1369 1.367 . S
C1368 C1376 1.378 . S
C1369 C1368 1.367 . S
C1369 C1377 1.433 . S
C1370 H1366 0.929 . S
C1370 C1372 1.378 . S
C1370 C1374 1.350 . S
C1371 C1374 1.463 . S
C1371 C1376 1.350 . S
C1371 N1379 1.427 . S
C1372 H1363 0.930 . S
C1372 C1370 1.378 . S
C1372 C1373 1.367 . S
C1373 C1372 1.367 . S
C1373 C1375 1.433 . S
C1374 C1370 1.350 . S
C1374 C1371 1.463 . S
C1374 N1378 1.427 . S
C1375 H1365 0.929 . S
C1375 C1373 1.433 . S
C1375 N1378 1.384 . S
C1376 H1367 0.929 . S
C1376 C1368 1.378 . S
C1376 C1371 1.350 . S
C1377 H1364 0.929 . S
C1377 C1369 1.433 . S
C1377 N1379 1.384 . S
N1378 C1374 1.427 . S
N1378 C1375 1.384 . S
N1379 C1371 1.427 . S
N1379 C1377 1.384 . S
H1380 C1386 0.930 . S
H1381 C1390 0.930 . S
H1382 C1395 0.929 . S
H1383 C1393 0.929 . S
H1384 C1388 0.929 . S
H1385 C1394 0.929 . S
C1386 H1380 0.930 . S
C1386 C1387 1.367 . S
C1386 C1394 1.378 . S
C1387 C1386 1.367 . S
C1387 C1395 1.433 . S
C1388 H1384 0.929 . S
C1388 C1390 1.378 . S
C1388 C1392 1.350 . S
C1389 C1392 1.463 . S
C1389 C1394 1.350 . S
C1389 N1397 1.427 . S
C1390 H1381 0.930 . S
C1390 C1388 1.378 . S
C1390 C1391 1.367 . S
C1391 C1390 1.367 . S
C1391 C1393 1.433 . S
C1392 C1388 1.350 . S
C1392 C1389 1.463 . S
C1392 N1396 1.427 . S
C1393 H1383 0.929 . S
C1393 C1391 1.433 . S
C1393 N1396 1.384 . S
C1394 H1385 0.929 . S
C1394 C1386 1.378 . S
C1394 C1389 1.350 . S
C1395 H1382 0.929 . S
C1395 C1387 1.433 . S
C1395 N1397 1.384 . S
N1396 C1392 1.427 . S
N1396 C1393 1.384 . S
N1397 C1389 1.427 . S
N1397 C1395 1.384 . S
H1398 C1404 0.930 . S
H1399 C1408 0.930 . S
H1400 C1413 0.929 . S
H1401 C1411 0.929 . S
H1402 C1406 0.929 . S
H1403 C1412 0.929 . S
C1404 H1398 0.930 . S
C1404 C1405 1.367 . S
C1404 C1412 1.378 . S
C1405 C1404 1.367 . S
C1405 C1413 1.433 . S
C1406 H1402 0.929 . S
C1406 C1408 1.378 . S
C1406 C1410 1.350 . S
C1407 C1410 1.463 . S
C1407 C1412 1.350 . S
C1407 N1415 1.427 . S
C1408 H1399 0.930 . S
C1408 C1406 1.378 . S
C1408 C1409 1.367 . S
C1409 C1408 1.367 . S
C1409 C1411 1.433 . S
C1410 C1406 1.350 . S
C1410 C1407 1.463 . S
C1410 N1414 1.427 . S
C1411 H1401 0.929 . S
C1411 C1409 1.433 . S
C1411 N1414 1.384 . S
C1412 H1403 0.929 . S
C1412 C1404 1.378 . S
C1412 C1407 1.350 . S
C1413 H1400 0.929 . S
C1413 C1405 1.433 . S
C1413 N1415 1.384 . S
N1414 C1410 1.427 . S
N1414 C1411 1.384 . S
N1415 C1407 1.427 . S
N1415 C1413 1.384 . S
H1416 C1422 0.930 . S
H1417 C1426 0.930 . S
H1418 C1431 0.929 . S
H1419 C1429 0.929 . S
H1420 C1424 0.929 . S
H1421 C1430 0.929 . S
C1422 H1416 0.930 . S
C1422 C1423 1.367 . S
C1422 C1430 1.378 . S
C1423 C1422 1.367 . S
C1423 C1431 1.433 . S
C1424 H1420 0.929 . S
C1424 C1426 1.378 . S
C1424 C1428 1.350 . S
C1425 C1428 1.463 . S
C1425 C1430 1.350 . S
C1425 N1433 1.427 . S
C1426 H1417 0.930 . S
C1426 C1424 1.378 . S
C1426 C1427 1.367 . S
C1427 C1426 1.367 . S
C1427 C1429 1.433 . S
C1428 C1424 1.350 . S
C1428 C1425 1.463 . S
C1428 N1432 1.427 . S
C1429 H1419 0.929 . S
C1429 C1427 1.433 . S
C1429 N1432 1.384 . S
C1430 H1421 0.929 . S
C1430 C1422 1.378 . S
C1430 C1425 1.350 . S
C1431 H1418 0.929 . S
C1431 C1423 1.433 . S
C1431 N1433 1.384 . S
N1432 C1428 1.427 . S
N1432 C1429 1.384 . S
N1433 C1425 1.427 . S
N1433 C1431 1.384 . S
H1434 C1440 0.930 . S
H1435 C1444 0.930 . S
H1436 C1449 0.929 . S
H1437 C1447 0.929 . S
H1438 C1442 0.929 . S
H1439 C1448 0.929 . S
C1440 H1434 0.930 . S
C1440 C1441 1.367 . S
C1440 C1448 1.378 . S
C1441 C1440 1.367 . S
C1441 C1449 1.433 . S
C1442 H1438 0.929 . S
C1442 C1444 1.378 . S
C1442 C1446 1.350 . S
C1443 C1446 1.463 . S
C1443 C1448 1.350 . S
C1443 N1451 1.427 . S
C1444 H1435 0.930 . S
C1444 C1442 1.378 . S
C1444 C1445 1.367 . S
C1445 C1444 1.367 . S
C1445 C1447 1.433 . S
C1446 C1442 1.350 . S
C1446 C1443 1.463 . S
C1446 N1450 1.427 . S
C1447 H1437 0.929 . S
C1447 C1445 1.433 . S
C1447 N1450 1.384 . S
C1448 H1439 0.929 . S
C1448 C1440 1.378 . S
C1448 C1443 1.350 . S
C1449 H1436 0.929 . S
C1449 C1441 1.433 . S
C1449 N1451 1.384 . S
N1450 C1446 1.427 . S
N1450 C1447 1.384 . S
N1451 C1443 1.427 . S
N1451 C1449 1.384 . S
H1452 C1458 0.930 . S
H1453 C1462 0.930 . S
H1454 C1467 0.929 . S
H1455 C1465 0.929 . S
H1456 C1460 0.929 . S
H1457 C1466 0.929 . S
C1458 H1452 0.930 . S
C1458 C1459 1.367 . S
C1458 C1466 1.378 . S
C1459 C1458 1.367 . S
C1459 C1467 1.433 . S
C1460 H1456 0.929 . S
C1460 C1462 1.378 . S
C1460 C1464 1.350 . S
C1461 C1464 1.463 . S
C1461 C1466 1.350 . S
C1461 N1469 1.427 . S
C1462 H1453 0.930 . S
C1462 C1460 1.378 . S
C1462 C1463 1.367 . S
C1463 C1462 1.367 . S
C1463 C1465 1.433 . S
C1464 C1460 1.350 . S
C1464 C1461 1.463 . S
C1464 N1468 1.427 . S
C1465 H1455 0.929 . S
C1465 C1463 1.433 . S
C1465 N1468 1.384 . S
C1466 H1457 0.929 . S
C1466 C1458 1.378 . S
C1466 C1461 1.350 . S
C1467 H1454 0.929 . S
C1467 C1459 1.433 . S
C1467 N1469 1.384 . S
N1468 C1464 1.427 . S
N1468 C1465 1.384 . S
N1469 C1461 1.427 . S
N1469 C1467 1.384 . S
H1470 C1476 0.930 . S
H1471 C1480 0.930 . S
H1472 C1485 0.929 . S
H1473 C1483 0.929 . S
H1474 C1478 0.929 . S
H1475 C1484 0.929 . S
C1476 H1470 0.930 . S
C1476 C1477 1.367 . S
C1476 C1484 1.378 . S
C1477 C1476 1.367 . S
C1477 C1485 1.433 . S
C1478 H1474 0.929 . S
C1478 C1480 1.378 . S
C1478 C1482 1.350 . S
C1479 C1482 1.463 . S
C1479 C1484 1.350 . S
C1479 N1487 1.427 . S
C1480 H1471 0.930 . S
C1480 C1478 1.378 . S
C1480 C1481 1.367 . S
C1481 C1480 1.367 . S
C1481 C1483 1.433 . S
C1482 C1478 1.350 . S
C1482 C1479 1.463 . S
C1482 N1486 1.427 . S
C1483 H1473 0.929 . S
C1483 C1481 1.433 . S
C1483 N1486 1.384 . S
C1484 H1475 0.929 . S
C1484 C1476 1.378 . S
C1484 C1479 1.350 . S
C1485 H1472 0.929 . S
C1485 C1477 1.433 . S
C1485 N1487 1.384 . S
N1486 C1482 1.427 . S
N1486 C1483 1.384 . S
N1487 C1479 1.427 . S
N1487 C1485 1.384 . S
H1488 C1494 0.930 . S
H1489 C1498 0.930 . S
H1490 C1503 0.929 . S
H1491 C1501 0.929 . S
H1492 C1496 0.929 . S
H1493 C1502 0.929 . S
C1494 H1488 0.930 . S
C1494 C1495 1.367 . S
C1494 C1502 1.378 . S
C1495 C1494 1.367 . S
C1495 C1503 1.433 . S
C1496 H1492 0.929 . S
C1496 C1498 1.378 . S
C1496 C1500 1.350 . S
C1497 C1500 1.463 . S
C1497 C1502 1.350 . S
C1497 N1505 1.427 . S
C1498 H1489 0.930 . S
C1498 C1496 1.378 . S
C1498 C1499 1.367 . S
C1499 C1498 1.367 . S
C1499 C1501 1.433 . S
C1500 C1496 1.350 . S
C1500 C1497 1.463 . S
C1500 N1504 1.427 . S
C1501 H1491 0.929 . S
C1501 C1499 1.433 . S
C1501 N1504 1.384 . S
C1502 H1493 0.929 . S
C1502 C1494 1.378 . S
C1502 C1497 1.350 . S
C1503 H1490 0.929 . S
C1503 C1495 1.433 . S
C1503 N1505 1.384 . S
N1504 C1500 1.427 . S
N1504 C1501 1.384 . S
N1505 C1497 1.427 . S
N1505 C1503 1.384 . S
H1506 C1512 0.930 . S
H1507 C1516 0.930 . S
H1508 C1521 0.929 . S
H1509 C1519 0.929 . S
H1510 C1514 0.929 . S
H1511 C1520 0.929 . S
C1512 H1506 0.930 . S
C1512 C1513 1.367 . S
C1512 C1520 1.378 . S
C1513 C1512 1.367 . S
C1513 C1521 1.433 . S
C1514 H1510 0.929 . S
C1514 C1516 1.378 . S
C1514 C1518 1.350 . S
C1515 C1518 1.463 . S
C1515 C1520 1.350 . S
C1515 N1523 1.427 . S
C1516 H1507 0.930 . S
C1516 C1514 1.378 . S
C1516 C1517 1.367 . S
C1517 C1516 1.367 . S
C1517 C1519 1.433 . S
C1518 C1514 1.350 . S
C1518 C1515 1.463 . S
C1518 N1522 1.427 . S
C1519 H1509 0.929 . S
C1519 C1517 1.433 . S
C1519 N1522 1.384 . S
C1520 H1511 0.929 . S
C1520 C1512 1.378 . S
C1520 C1515 1.350 . S
C1521 H1508 0.929 . S
C1521 C1513 1.433 . S
C1521 N1523 1.384 . S
N1522 C1518 1.427 . S
N1522 C1519 1.384 . S
N1523 C1515 1.427 . S
N1523 C1521 1.384 . S
H1524 C1530 0.930 . S
H1525 C1534 0.930 . S
H1526 C1539 0.929 . S
H1527 C1537 0.929 . S
H1528 C1532 0.929 . S
H1529 C1538 0.929 . S
C1530 H1524 0.930 . S
C1530 C1531 1.367 . S
C1530 C1538 1.378 . S
C1531 C1530 1.367 . S
C1531 C1539 1.433 . S
C1532 H1528 0.929 . S
C1532 C1534 1.378 . S
C1532 C1536 1.350 . S
C1533 C1536 1.463 . S
C1533 C1538 1.350 . S
C1533 N1541 1.427 . S
C1534 H1525 0.930 . S
C1534 C1532 1.378 . S
C1534 C1535 1.367 . S
C1535 C1534 1.367 . S
C1535 C1537 1.433 . S
C1536 C1532 1.350 . S
C1536 C1533 1.463 . S
C1536 N1540 1.427 . S
C1537 H1527 0.929 . S
C1537 C1535 1.433 . S
C1537 N1540 1.384 . S
C1538 H1529 0.929 . S
C1538 C1530 1.378 . S
C1538 C1533 1.350 . S
C1539 H1526 0.929 . S
C1539 C1531 1.433 . S
C1539 N1541 1.384 . S
N1540 C1536 1.427 . S
N1540 C1537 1.384 . S
N1541 C1533 1.427 . S
N1541 C1539 1.384 . S
H1542 C1548 0.930 . S
H1543 C1552 0.930 . S
H1544 C1557 0.929 . S
H1545 C1555 0.929 . S
H1546 C1550 0.929 . S
H1547 C1556 0.929 . S
C1548 H1542 0.930 . S
C1548 C1549 1.367 . S
C1548 C1556 1.378 . S
C1549 C1548 1.367 . S
C1549 C1557 1.433 . S
C1550 H1546 0.929 . S
C1550 C1552 1.378 . S
C1550 C1554 1.350 . S
C1551 C1554 1.463 . S
C1551 C1556 1.350 . S
C1551 N1559 1.427 . S
C1552 H1543 0.930 . S
C1552 C1550 1.378 . S
C1552 C1553 1.367 . S
C1553 C1552 1.367 . S
C1553 C1555 1.433 . S
C1554 C1550 1.350 . S
C1554 C1551 1.463 . S
C1554 N1558 1.427 . S
C1555 H1545 0.929 . S
C1555 C1553 1.433 . S
C1555 N1558 1.384 . S
C1556 H1547 0.929 . S
C1556 C1548 1.378 . S
C1556 C1551 1.350 . S
C1557 H1544 0.929 . S
C1557 C1549 1.433 . S
C1557 N1559 1.384 . S
N1558 C1554 1.427 . S
N1558 C1555 1.384 . S
N1559 C1551 1.427 . S
N1559 C1557 1.384 . S
H1560 C1566 0.930 . S
H1561 C1570 0.930 . S
H1562 C1575 0.929 . S
H1563 C1573 0.929 . S
H1564 C1568 0.929 . S
H1565 C1574 0.929 . S
C1566 H1560 0.930 . S
C1566 C1567 1.367 . S
C1566 C1574 1.378 . S
C1567 C1566 1.367 . S
C1567 C1575 1.433 . S
C1568 H1564 0.929 . S
C1568 C1570 1.378 . S
C1568 C1572 1.350 . S
C1569 C1572 1.463 . S
C1569 C1574 1.350 . S
C1569 N1577 1.427 . S
C1570 H1561 0.930 . S
C1570 C1568 1.378 . S
C1570 C1571 1.367 . S
C1571 C1570 1.367 . S
C1571 C1573 1.433 . S
C1572 C1568 1.350 . S
C1572 C1569 1.463 . S
C1572 N1576 1.427 . S
C1573 H1563 0.929 . S
C1573 C1571 1.433 . S
C1573 N1576 1.384 . S
C1574 H1565 0.929 . S
C1574 C1566 1.378 . S
C1574 C1569 1.350 . S
C1575 H1562 0.929 . S
C1575 C1567 1.433 . S
C1575 N1577 1.384 . S
N1576 C1572 1.427 . S
N1576 C1573 1.384 . S
N1577 C1569 1.427 . S
N1577 C1575 1.384 . S
H1578 C1584 0.930 . S
H1579 C1588 0.930 . S
H1580 C1593 0.929 . S
H1581 C1591 0.929 . S
H1582 C1586 0.929 . S
H1583 C1592 0.929 . S
C1584 H1578 0.930 . S
C1584 C1585 1.367 . S
C1584 C1592 1.378 . S
C1585 C1584 1.367 . S
C1585 C1593 1.433 . S
C1586 H1582 0.929 . S
C1586 C1588 1.378 . S
C1586 C1590 1.350 . S
C1587 C1590 1.463 . S
C1587 C1592 1.350 . S
C1587 N1595 1.427 . S
C1588 H1579 0.930 . S
C1588 C1586 1.378 . S
C1588 C1589 1.367 . S
C1589 C1588 1.367 . S
C1589 C1591 1.433 . S
C1590 C1586 1.350 . S
C1590 C1587 1.463 . S
C1590 N1594 1.427 . S
C1591 H1581 0.929 . S
C1591 C1589 1.433 . S
C1591 N1594 1.384 . S
C1592 H1583 0.929 . S
C1592 C1584 1.378 . S
C1592 C1587 1.350 . S
C1593 H1580 0.929 . S
C1593 C1585 1.433 . S
C1593 N1595 1.384 . S
N1594 C1590 1.427 . S
N1594 C1591 1.384 . S
N1595 C1587 1.427 . S
N1595 C1593 1.384 . S
H1596 C1602 0.930 . S
H1597 C1606 0.930 . S
H1598 C1611 0.929 . S
H1599 C1609 0.929 . S
H1600 C1604 0.929 . S
H1601 C1610 0.929 . S
C1602 H1596 0.930 . S
C1602 C1603 1.367 . S
C1602 C1610 1.378 . S
C1603 C1602 1.367 . S
C1603 C1611 1.433 . S
C1604 H1600 0.929 . S
C1604 C1606 1.378 . S
C1604 C1608 1.350 . S
C1605 C1608 1.463 . S
C1605 C1610 1.350 . S
C1605 N1613 1.427 . S
C1606 H1597 0.930 . S
C1606 C1604 1.378 . S
C1606 C1607 1.367 . S
C1607 C1606 1.367 . S
C1607 C1609 1.433 . S
C1608 C1604 1.350 . S
C1608 C1605 1.463 . S
C1608 N1612 1.427 . S
C1609 H1599 0.929 . S
C1609 C1607 1.433 . S
C1609 N1612 1.384 . S
C1610 H1601 0.929 . S
C1610 C1602 1.378 . S
C1610 C1605 1.350 . S
C1611 H1598 0.929 . S
C1611 C1603 1.433 . S
C1611 N1613 1.384 . S
N1612 C1608 1.427 . S
N1612 C1609 1.384 . S
N1613 C1605 1.427 . S
N1613 C1611 1.384 . S
H1614 C1620 0.930 . S
H1615 C1624 0.930 . S
H1616 C1629 0.929 . S
H1617 C1627 0.929 . S
H1618 C1622 0.929 . S
H1619 C1628 0.929 . S
C1620 H1614 0.930 . S
C1620 C1621 1.367 . S
C1620 C1628 1.378 . S
C1621 C1620 1.367 . S
C1621 C1629 1.433 . S
C1622 H1618 0.929 . S
C1622 C1624 1.378 . S
C1622 C1626 1.350 . S
C1623 C1626 1.463 . S
C1623 C1628 1.350 . S
C1623 N1631 1.427 . S
C1624 H1615 0.930 . S
C1624 C1622 1.378 . S
C1624 C1625 1.367 . S
C1625 C1624 1.367 . S
C1625 C1627 1.433 . S
C1626 C1622 1.350 . S
C1626 C1623 1.463 . S
C1626 N1630 1.427 . S
C1627 H1617 0.929 . S
C1627 C1625 1.433 . S
C1627 N1630 1.384 . S
C1628 H1619 0.929 . S
C1628 C1620 1.378 . S
C1628 C1623 1.350 . S
C1629 H1616 0.929 . S
C1629 C1621 1.433 . S
C1629 N1631 1.384 . S
N1630 C1626 1.427 . S
N1630 C1627 1.384 . S
N1631 C1623 1.427 . S
N1631 C1629 1.384 . S
H1632 C1638 0.930 . S
H1633 C1642 0.930 . S
H1634 C1647 0.929 . S
H1635 C1645 0.929 . S
H1636 C1640 0.929 . S
H1637 C1646 0.929 . S
C1638 H1632 0.930 . S
C1638 C1639 1.367 . S
C1638 C1646 1.378 . S
C1639 C1638 1.367 . S
C1639 C1647 1.433 . S
C1640 H1636 0.929 . S
C1640 C1642 1.378 . S
C1640 C1644 1.350 . S
C1641 C1644 1.463 . S
C1641 C1646 1.350 . S
C1641 N1649 1.427 . S
C1642 H1633 0.930 . S
C1642 C1640 1.378 . S
C1642 C1643 1.367 . S
C1643 C1642 1.367 . S
C1643 C1645 1.433 . S
C1644 C1640 1.350 . S
C1644 C1641 1.463 . S
C1644 N1648 1.427 . S
C1645 H1635 0.929 . S
C1645 C1643 1.433 . S
C1645 N1648 1.384 . S
C1646 H1637 0.929 . S
C1646 C1638 1.378 . S
C1646 C1641 1.350 . S
C1647 H1634 0.929 . S
C1647 C1639 1.433 . S
C1647 N1649 1.384 . S
N1648 C1644 1.427 . S
N1648 C1645 1.384 . S
N1649 C1641 1.427 . S
N1649 C1647 1.384 . S
H1650 C1656 0.930 . S
H1651 C1660 0.930 . S
H1652 C1665 0.929 . S
H1653 C1663 0.929 . S
H1654 C1658 0.929 . S
H1655 C1664 0.929 . S
C1656 H1650 0.930 . S
C1656 C1657 1.367 . S
C1656 C1664 1.378 . S
C1657 C1656 1.367 . S
C1657 C1665 1.433 . S
C1658 H1654 0.929 . S
C1658 C1660 1.378 . S
C1658 C1662 1.350 . S
C1659 C1662 1.463 . S
C1659 C1664 1.350 . S
C1659 N1667 1.427 . S
C1660 H1651 0.930 . S
C1660 C1658 1.378 . S
C1660 C1661 1.367 . S
C1661 C1660 1.367 . S
C1661 C1663 1.433 . S
C1662 C1658 1.350 . S
C1662 C1659 1.463 . S
C1662 N1666 1.427 . S
C1663 H1653 0.929 . S
C1663 C1661 1.433 . S
C1663 N1666 1.384 . S
C1664 H1655 0.929 . S
C1664 C1656 1.378 . S
C1664 C1659 1.350 . S
C1665 H1652 0.929 . S
C1665 C1657 1.433 . S
C1665 N1667 1.384 . S
N1666 C1662 1.427 . S
N1666 C1663 1.384 . S
N1667 C1659 1.427 . S
N1667 C1665 1.384 . S
H1668 C1674 0.930 . S
H1669 C1678 0.930 . S
H1670 C1683 0.929 . S
H1671 C1681 0.929 . S
H1672 C1676 0.929 . S
H1673 C1682 0.929 . S
C1674 H1668 0.930 . S
C1674 C1675 1.367 . S
C1674 C1682 1.378 . S
C1675 C1674 1.367 . S
C1675 C1683 1.433 . S
C1676 H1672 0.929 . S
C1676 C1678 1.378 . S
C1676 C1680 1.350 . S
C1677 C1680 1.463 . S
C1677 C1682 1.350 . S
C1677 N1685 1.427 . S
C1678 H1669 0.930 . S
C1678 C1676 1.378 . S
C1678 C1679 1.367 . S
C1679 C1678 1.367 . S
C1679 C1681 1.433 . S
C1680 C1676 1.350 . S
C1680 C1677 1.463 . S
C1680 N1684 1.427 . S
C1681 H1671 0.929 . S
C1681 C1679 1.433 . S
C1681 N1684 1.384 . S
C1682 H1673 0.929 . S
C1682 C1674 1.378 . S
C1682 C1677 1.350 . S
C1683 H1670 0.929 . S
C1683 C1675 1.433 . S
C1683 N1685 1.384 . S
N1684 C1680 1.427 . S
N1684 C1681 1.384 . S
N1685 C1677 1.427 . S
N1685 C1683 1.384 . S
H1686 C1692 0.930 . S
H1687 C1696 0.930 . S
H1688 C1701 0.929 . S
H1689 C1699 0.929 . S
H1690 C1694 0.929 . S
H1691 C1700 0.929 . S
C1692 H1686 0.930 . S
C1692 C1693 1.367 . S
C1692 C1700 1.378 . S
C1693 C1692 1.367 . S
C1693 C1701 1.433 . S
C1694 H1690 0.929 . S
C1694 C1696 1.378 . S
C1694 C1698 1.350 . S
C1695 C1698 1.463 . S
C1695 C1700 1.350 . S
C1695 N1703 1.427 . S
C1696 H1687 0.930 . S
C1696 C1694 1.378 . S
C1696 C1697 1.367 . S
C1697 C1696 1.367 . S
C1697 C1699 1.433 . S
C1698 C1694 1.350 . S
C1698 C1695 1.463 . S
C1698 N1702 1.427 . S
C1699 H1689 0.929 . S
C1699 C1697 1.433 . S
C1699 N1702 1.384 . S
C1700 H1691 0.929 . S
C1700 C1692 1.378 . S
C1700 C1695 1.350 . S
C1701 H1688 0.929 . S
C1701 C1693 1.433 . S
C1701 N1703 1.384 . S
N1702 C1698 1.427 . S
N1702 C1699 1.384 . S
N1703 C1695 1.427 . S
N1703 C1701 1.384 . S
H1704 C1710 0.930 . S
H1705 C1714 0.930 . S
H1706 C1719 0.929 . S
H1707 C1717 0.929 . S
H1708 C1712 0.929 . S
H1709 C1718 0.929 . S
C1710 H1704 0.930 . S
C1710 C1711 1.367 . S
C1710 C1718 1.378 . S
C1711 C1710 1.367 . S
C1711 C1719 1.433 . S
C1712 H1708 0.929 . S
C1712 C1714 1.378 . S
C1712 C1716 1.350 . S
C1713 C1716 1.463 . S
C1713 C1718 1.350 . S
C1713 N1721 1.427 . S
C1714 H1705 0.930 . S
C1714 C1712 1.378 . S
C1714 C1715 1.367 . S
C1715 C1714 1.367 . S
C1715 C1717 1.433 . S
C1716 C1712 1.350 . S
C1716 C1713 1.463 . S
C1716 N1720 1.427 . S
C1717 H1707 0.929 . S
C1717 C1715 1.433 . S
C1717 N1720 1.384 . S
C1718 H1709 0.929 . S
C1718 C1710 1.378 . S
C1718 C1713 1.350 . S
C1719 H1706 0.929 . S
C1719 C1711 1.433 . S
C1719 N1721 1.384 . S
N1720 C1716 1.427 . S
N1720 C1717 1.384 . S
N1721 C1713 1.427 . S
N1721 C1719 1.384 . S
H1722 C1728 0.930 . S
H1723 C1732 0.930 . S
H1724 C1737 0.929 . S
H1725 C1735 0.929 . S
H1726 C1730 0.929 . S
H1727 C1736 0.929 . S
C1728 H1722 0.930 . S
C1728 C1729 1.367 . S
C1728 C1736 1.378 . S
C1729 C1728 1.367 . S
C1729 C1737 1.433 . S
C1730 H1726 0.929 . S
C1730 C1732 1.378 . S
C1730 C1734 1.350 . S
C1731 C1734 1.463 . S
C1731 C1736 1.350 . S
C1731 N1739 1.427 . S
C1732 H1723 0.930 . S
C1732 C1730 1.378 . S
C1732 C1733 1.367 . S
C1733 C1732 1.367 . S
C1733 C1735 1.433 . S
C1734 C1730 1.350 . S
C1734 C1731 1.463 . S
C1734 N1738 1.427 . S
C1735 H1725 0.929 . S
C1735 C1733 1.433 . S
C1735 N1738 1.384 . S
C1736 H1727 0.929 . S
C1736 C1728 1.378 . S
C1736 C1731 1.350 . S
C1737 H1724 0.929 . S
C1737 C1729 1.433 . S
C1737 N1739 1.384 . S
N1738 C1734 1.427 . S
N1738 C1735 1.384 . S
N1739 C1731 1.427 . S
N1739 C1737 1.384 . S
H1740 C1746 0.930 . S
H1741 C1750 0.930 . S
H1742 C1755 0.929 . S
H1743 C1753 0.929 . S
H1744 C1748 0.929 . S
H1745 C1754 0.929 . S
C1746 H1740 0.930 . S
C1746 C1747 1.367 . S
C1746 C1754 1.378 . S
C1747 C1746 1.367 . S
C1747 C1755 1.433 . S
C1748 H1744 0.929 . S
C1748 C1750 1.378 . S
C1748 C1752 1.350 . S
C1749 C1752 1.463 . S
C1749 C1754 1.350 . S
C1749 N1757 1.427 . S
C1750 H1741 0.930 . S
C1750 C1748 1.378 . S
C1750 C1751 1.367 . S
C1751 C1750 1.367 . S
C1751 C1753 1.433 . S
C1752 C1748 1.350 . S
C1752 C1749 1.463 . S
C1752 N1756 1.427 . S
C1753 H1743 0.929 . S
C1753 C1751 1.433 . S
C1753 N1756 1.384 . S
C1754 H1745 0.929 . S
C1754 C1746 1.378 . S
C1754 C1749 1.350 . S
C1755 H1742 0.929 . S
C1755 C1747 1.433 . S
C1755 N1757 1.384 . S
N1756 C1752 1.427 . S
N1756 C1753 1.384 . S
N1757 C1749 1.427 . S
N1757 C1755 1.384 . S
H1758 C1764 0.930 . S
H1759 C1768 0.930 . S
H1760 C1773 0.929 . S
H1761 C1771 0.929 . S
H1762 C1766 0.929 . S
H1763 C1772 0.929 . S
C1764 H1758 0.930 . S
C1764 C1765 1.367 . S
C1764 C1772 1.378 . S
C1765 C1764 1.367 . S
C1765 C1773 1.433 . S
C1766 H1762 0.929 . S
C1766 C1768 1.378 . S
C1766 C1770 1.350 . S
C1767 C1770 1.463 . S
C1767 C1772 1.350 . S
C1767 N1775 1.427 . S
C1768 H1759 0.930 . S
C1768 C1766 1.378 . S
C1768 C1769 1.367 . S
C1769 C1768 1.367 . S
C1769 C1771 1.433 . S
C1770 C1766 1.350 . S
C1770 C1767 1.463 . S
C1770 N1774 1.427 . S
C1771 H1761 0.929 . S
C1771 C1769 1.433 . S
C1771 N1774 1.384 . S
C1772 H1763 0.929 . S
C1772 C1764 1.378 . S
C1772 C1767 1.350 . S
C1773 H1760 0.929 . S
C1773 C1765 1.433 . S
C1773 N1775 1.384 . S
N1774 C1770 1.427 . S
N1774 C1771 1.384 . S
N1775 C1767 1.427 . S
N1775 C1773 1.384 . S
H1776 C1782 0.930 . S
H1777 C1786 0.930 . S
H1778 C1791 0.929 . S
H1779 C1789 0.929 . S
H1780 C1784 0.929 . S
H1781 C1790 0.929 . S
C1782 H1776 0.930 . S
C1782 C1783 1.367 . S
C1782 C1790 1.378 . S
C1783 C1782 1.367 . S
C1783 C1791 1.433 . S
C1784 H1780 0.929 . S
C1784 C1786 1.378 . S
C1784 C1788 1.350 . S
C1785 C1788 1.463 . S
C1785 C1790 1.350 . S
C1785 N1793 1.427 . S
C1786 H1777 0.930 . S
C1786 C1784 1.378 . S
C1786 C1787 1.367 . S
C1787 C1786 1.367 . S
C1787 C1789 1.433 . S
C1788 C1784 1.350 . S
C1788 C1785 1.463 . S
C1788 N1792 1.427 . S
C1789 H1779 0.929 . S
C1789 C1787 1.433 . S
C1789 N1792 1.384 . S
C1790 H1781 0.929 . S
C1790 C1782 1.378 . S
C1790 C1785 1.350 . S
C1791 H1778 0.929 . S
C1791 C1783 1.433 . S
C1791 N1793 1.384 . S
N1792 C1788 1.427 . S
N1792 C1789 1.384 . S
N1793 C1785 1.427 . S
N1793 C1791 1.384 . S
H1794 C1800 0.930 . S
H1795 C1804 0.930 . S
H1796 C1809 0.929 . S
H1797 C1807 0.929 . S
H1798 C1802 0.929 . S
H1799 C1808 0.929 . S
C1800 H1794 0.930 . S
C1800 C1801 1.367 . S
C1800 C1808 1.378 . S
C1801 C1800 1.367 . S
C1801 C1809 1.433 . S
C1802 H1798 0.929 . S
C1802 C1804 1.378 . S
C1802 C1806 1.350 . S
C1803 C1806 1.463 . S
C1803 C1808 1.350 . S
C1803 N1811 1.427 . S
C1804 H1795 0.930 . S
C1804 C1802 1.378 . S
C1804 C1805 1.367 . S
C1805 C1804 1.367 . S
C1805 C1807 1.433 . S
C1806 C1802 1.350 . S
C1806 C1803 1.463 . S
C1806 N1810 1.427 . S
C1807 H1797 0.929 . S
C1807 C1805 1.433 . S
C1807 N1810 1.384 . S
C1808 H1799 0.929 . S
C1808 C1800 1.378 . S
C1808 C1803 1.350 . S
C1809 H1796 0.929 . S
C1809 C1801 1.433 . S
C1809 N1811 1.384 . S
N1810 C1806 1.427 . S
N1810 C1807 1.384 . S
N1811 C1803 1.427 . S
N1811 C1809 1.384 . S
H1812 C1818 0.930 . S
H1813 C1822 0.930 . S
H1814 C1827 0.929 . S
H1815 C1825 0.929 . S
H1816 C1820 0.929 . S
H1817 C1826 0.929 . S
C1818 H1812 0.930 . S
C1818 C1819 1.367 . S
C1818 C1826 1.378 . S
C1819 C1818 1.367 . S
C1819 C1827 1.433 . S
C1820 H1816 0.929 . S
C1820 C1822 1.378 . S
C1820 C1824 1.350 . S
C1821 C1824 1.463 . S
C1821 C1826 1.350 . S
C1821 N1829 1.427 . S
C1822 H1813 0.930 . S
C1822 C1820 1.378 . S
C1822 C1823 1.367 . S
C1823 C1822 1.367 . S
C1823 C1825 1.433 . S
C1824 C1820 1.350 . S
C1824 C1821 1.463 . S
C1824 N1828 1.427 . S
C1825 H1815 0.929 . S
C1825 C1823 1.433 . S
C1825 N1828 1.384 . S
C1826 H1817 0.929 . S
C1826 C1818 1.378 . S
C1826 C1821 1.350 . S
C1827 H1814 0.929 . S
C1827 C1819 1.433 . S
C1827 N1829 1.384 . S
N1828 C1824 1.427 . S
N1828 C1825 1.384 . S
N1829 C1821 1.427 . S
N1829 C1827 1.384 . S
H1830 C1836 0.930 . S
H1831 C1840 0.930 . S
H1832 C1845 0.929 . S
H1833 C1843 0.929 . S
H1834 C1838 0.929 . S
H1835 C1844 0.929 . S
C1836 H1830 0.930 . S
C1836 C1837 1.367 . S
C1836 C1844 1.378 . S
C1837 C1836 1.367 . S
C1837 C1845 1.433 . S
C1838 H1834 0.929 . S
C1838 C1840 1.378 . S
C1838 C1842 1.350 . S
C1839 C1842 1.463 . S
C1839 C1844 1.350 . S
C1839 N1847 1.427 . S
C1840 H1831 0.930 . S
C1840 C1838 1.378 . S
C1840 C1841 1.367 . S
C1841 C1840 1.367 . S
C1841 C1843 1.433 . S
C1842 C1838 1.350 . S
C1842 C1839 1.463 . S
C1842 N1846 1.427 . S
C1843 H1833 0.929 . S
C1843 C1841 1.433 . S
C1843 N1846 1.384 . S
C1844 H1835 0.929 . S
C1844 C1836 1.378 . S
C1844 C1839 1.350 . S
C1845 H1832 0.929 . S
C1845 C1837 1.433 . S
C1845 N1847 1.384 . S
N1846 C1842 1.427 . S
N1846 C1843 1.384 . S
N1847 C1839 1.427 . S
N1847 C1845 1.384 . S
H1848 C1854 0.930 . S
H1849 C1858 0.930 . S
H1850 C1863 0.929 . S
H1851 C1861 0.929 . S
H1852 C1856 0.929 . S
H1853 C1862 0.929 . S
C1854 H1848 0.930 . S
C1854 C1855 1.367 . S
C1854 C1862 1.378 . S
C1855 C1854 1.367 . S
C1855 C1863 1.433 . S
C1856 H1852 0.929 . S
C1856 C1858 1.378 . S
C1856 C1860 1.350 . S
C1857 C1860 1.463 . S
C1857 C1862 1.350 . S
C1857 N1865 1.427 . S
C1858 H1849 0.930 . S
C1858 C1856 1.378 . S
C1858 C1859 1.367 . S
C1859 C1858 1.367 . S
C1859 C1861 1.433 . S
C1860 C1856 1.350 . S
C1860 C1857 1.463 . S
C1860 N1864 1.427 . S
C1861 H1851 0.929 . S
C1861 C1859 1.433 . S
C1861 N1864 1.384 . S
C1862 H1853 0.929 . S
C1862 C1854 1.378 . S
C1862 C1857 1.350 . S
C1863 H1850 0.929 . S
C1863 C1855 1.433 . S
C1863 N1865 1.384 . S
N1864 C1860 1.427 . S
N1864 C1861 1.384 . S
N1865 C1857 1.427 . S
N1865 C1863 1.384 . S
H1866 C1872 0.930 . S
H1867 C1876 0.930 . S
H1868 C1881 0.929 . S
H1869 C1879 0.929 . S
H1870 C1874 0.929 . S
H1871 C1880 0.929 . S
C1872 H1866 0.930 . S
C1872 C1873 1.367 . S
C1872 C1880 1.378 . S
C1873 C1872 1.367 . S
C1873 C1881 1.433 . S
C1874 H1870 0.929 . S
C1874 C1876 1.378 . S
C1874 C1878 1.350 . S
C1875 C1878 1.463 . S
C1875 C1880 1.350 . S
C1875 N1883 1.427 . S
C1876 H1867 0.930 . S
C1876 C1874 1.378 . S
C1876 C1877 1.367 . S
C1877 C1876 1.367 . S
C1877 C1879 1.433 . S
C1878 C1874 1.350 . S
C1878 C1875 1.463 . S
C1878 N1882 1.427 . S
C1879 H1869 0.929 . S
C1879 C1877 1.433 . S
C1879 N1882 1.384 . S
C1880 H1871 0.929 . S
C1880 C1872 1.378 . S
C1880 C1875 1.350 . S
C1881 H1868 0.929 . S
C1881 C1873 1.433 . S
C1881 N1883 1.384 . S
N1882 C1878 1.427 . S
N1882 C1879 1.384 . S
N1883 C1875 1.427 . S
N1883 C1881 1.384 . S
H1884 C1890 0.930 . S
H1885 C1894 0.930 . S
H1886 C1899 0.929 . S
H1887 C1897 0.929 . S
H1888 C1892 0.929 . S
H1889 C1898 0.929 . S
C1890 H1884 0.930 . S
C1890 C1891 1.367 . S
C1890 C1898 1.378 . S
C1891 C1890 1.367 . S
C1891 C1899 1.433 . S
C1892 H1888 0.929 . S
C1892 C1894 1.378 . S
C1892 C1896 1.350 . S
C1893 C1896 1.463 . S
C1893 C1898 1.350 . S
C1893 N1901 1.427 . S
C1894 H1885 0.930 . S
C1894 C1892 1.378 . S
C1894 C1895 1.367 . S
C1895 C1894 1.367 . S
C1895 C1897 1.433 . S
C1896 C1892 1.350 . S
C1896 C1893 1.463 . S
C1896 N1900 1.427 . S
C1897 H1887 0.929 . S
C1897 C1895 1.433 . S
C1897 N1900 1.384 . S
C1898 H1889 0.929 . S
C1898 C1890 1.378 . S
C1898 C1893 1.350 . S
C1899 H1886 0.929 . S
C1899 C1891 1.433 . S
C1899 N1901 1.384 . S
N1900 C1896 1.427 . S
N1900 C1897 1.384 . S
N1901 C1893 1.427 . S
N1901 C1899 1.384 . S
H1902 C1908 0.930 . S
H1903 C1912 0.930 . S
H1904 C1917 0.929 . S
H1905 C1915 0.929 . S
H1906 C1910 0.929 . S
H1907 C1916 0.929 . S
C1908 H1902 0.930 . S
C1908 C1909 1.367 . S
C1908 C1916 1.378 . S
C1909 C1908 1.367 . S
C1909 C1917 1.433 . S
C1910 H1906 0.929 . S
C1910 C1912 1.378 . S
C1910 C1914 1.350 . S
C1911 C1914 1.463 . S
C1911 C1916 1.350 . S
C1911 N1919 1.427 . S
C1912 H1903 0.930 . S
C1912 C1910 1.378 . S
C1912 C1913 1.367 . S
C1913 C1912 1.367 . S
C1913 C1915 1.433 . S
C1914 C1910 1.350 . S
C1914 C1911 1.463 . S
C1914 N1918 1.427 . S
C1915 H1905 0.929 . S
C1915 C1913 1.433 . S
C1915 N1918 1.384 . S
C1916 H1907 0.929 . S
C1916 C1908 1.378 . S
C1916 C1911 1.350 . S
C1917 H1904 0.929 . S
C1917 C1909 1.433 . S
C1917 N1919 1.384 . S
N1918 C1914 1.427 . S
N1918 C1915 1.384 . S
N1919 C1911 1.427 . S
N1919 C1917 1.384 . S
H1920 C1926 0.930 . S
H1921 C1930 0.930 . S
H1922 C1935 0.929 . S
H1923 C1933 0.929 . S
H1924 C1928 0.929 . S
H1925 C1934 0.929 . S
C1926 H1920 0.930 . S
C1926 C1927 1.367 . S
C1926 C1934 1.378 . S
C1927 C1926 1.367 . S
C1927 C1935 1.433 . S
C1928 H1924 0.929 . S
C1928 C1930 1.378 . S
C1928 C1932 1.350 . S
C1929 C1932 1.463 1_554 S
C1929 C1934 1.350 . S
C1929 N1937 1.427 . S
C1930 H1921 0.930 . S
C1930 C1928 1.378 . S
C1930 C1931 1.367 . S
C1931 C1930 1.367 . S
C1931 C1933 1.433 . S
C1932 C1928 1.350 . S
C1932 C1929 1.463 1_556 S
C1932 N1936 1.427 . S
C1933 H1923 0.929 . S
C1933 C1931 1.433 . S
C1933 N1936 1.384 . S
C1934 H1925 0.929 . S
C1934 C1926 1.378 . S
C1934 C1929 1.350 . S
C1935 H1922 0.929 . S
C1935 C1927 1.433 . S
C1935 N1937 1.384 . S
N1936 C1932 1.427 . S
N1936 C1933 1.384 . S
N1937 C1929 1.427 . S
N1937 C1935 1.384 . S
H1938 C1944 0.930 . S
H1939 C1948 0.930 . S
H1940 C1953 0.929 . S
H1941 C1951 0.929 . S
H1942 C1946 0.929 . S
H1943 C1952 0.929 . S
C1944 H1938 0.930 . S
C1944 C1945 1.367 1_545 S
C1944 C1952 1.378 . S
C1945 C1944 1.367 1_565 S
C1945 C1953 1.433 . S
C1946 H1942 0.929 . S
C1946 C1948 1.378 . S
C1946 C1950 1.350 1_565 S
C1947 C1950 1.463 1_565 S
C1947 C1952 1.350 1_565 S
C1947 N1955 1.427 . S
C1948 H1939 0.930 . S
C1948 C1946 1.378 . S
C1948 C1949 1.367 1_565 S
C1949 C1948 1.367 1_545 S
C1949 C1951 1.433 . S
C1950 C1946 1.350 1_545 S
C1950 C1947 1.463 1_545 S
C1950 N1954 1.427 . S
C1951 H1941 0.929 . S
C1951 C1949 1.433 . S
C1951 N1954 1.384 . S
C1952 H1943 0.929 . S
C1952 C1944 1.378 . S
C1952 C1947 1.350 1_545 S
C1953 H1940 0.929 . S
C1953 C1945 1.433 . S
C1953 N1955 1.384 . S
N1954 C1950 1.427 . S
N1954 C1951 1.384 . S
N1955 C1947 1.427 . S
N1955 C1953 1.384 . S
H1956 C1962 0.930 . S
H1957 C1966 0.930 . S
H1958 C1971 0.929 . S
H1959 C1969 0.929 . S
H1960 C1964 0.929 . S
H1961 C1970 0.929 . S
C1962 H1956 0.930 . S
C1962 C1963 1.367 . S
C1962 C1970 1.378 . S
C1963 C1962 1.367 . S
C1963 C1971 1.433 . S
C1964 H1960 0.929 . S
C1964 C1966 1.378 . S
C1964 C1968 1.350 . S
C1965 C1968 1.463 . S
C1965 C1970 1.350 . S
C1965 N1973 1.427 . S
C1966 H1957 0.930 . S
C1966 C1964 1.378 . S
C1966 C1967 1.367 . S
C1967 C1966 1.367 . S
C1967 C1969 1.433 . S
C1968 C1964 1.350 . S
C1968 C1965 1.463 . S
C1968 N1972 1.427 . S
C1969 H1959 0.929 . S
C1969 C1967 1.433 . S
C1969 N1972 1.384 . S
C1970 H1961 0.929 . S
C1970 C1962 1.378 . S
C1970 C1965 1.350 . S
C1971 H1958 0.929 . S
C1971 C1963 1.433 . S
C1971 N1973 1.384 . S
N1972 C1968 1.427 . S
N1972 C1969 1.384 . S
N1973 C1965 1.427 . S
N1973 C1971 1.384 . S
H1974 C1980 0.930 . S
H1975 C1984 0.930 . S
H1976 C1989 0.929 . S
H1977 C1987 0.929 . S
H1978 C1982 0.929 . S
H1979 C1988 0.929 . S
C1980 H1974 0.930 . S
C1980 C1981 1.367 1_545 S
C1980 C1988 1.378 . S
C1981 C1980 1.367 1_565 S
C1981 C1989 1.433 . S
C1982 H1978 0.929 . S
C1982 C1984 1.378 . S
C1982 C1986 1.350 1_565 S
C1983 C1986 1.463 1_565 S
C1983 C1988 1.350 1_565 S
C1983 N1991 1.427 . S
C1984 H1975 0.930 . S
C1984 C1982 1.378 . S
C1984 C1985 1.367 1_565 S
C1985 C1984 1.367 1_545 S
C1985 C1987 1.433 . S
C1986 C1982 1.350 1_545 S
C1986 C1983 1.463 1_545 S
C1986 N1990 1.427 . S
C1987 H1977 0.929 . S
C1987 C1985 1.433 . S
C1987 N1990 1.384 . S
C1988 H1979 0.929 . S
C1988 C1980 1.378 . S
C1988 C1983 1.350 1_545 S
C1989 H1976 0.929 . S
C1989 C1981 1.433 . S
C1989 N1991 1.384 . S
N1990 C1986 1.427 . S
N1990 C1987 1.384 . S
N1991 C1983 1.427 . S
N1991 C1989 1.384 . S
H1992 C1998 0.930 . S
H1993 C2002 0.930 . S
H1994 C2007 0.929 . S
H1995 C2005 0.929 . S
H1996 C2000 0.929 . S
H1997 C2006 0.929 . S
C1998 H1992 0.930 . S
C1998 C1999 1.367 . S
C1998 C2006 1.378 . S
C1999 C1998 1.367 . S
C1999 C2007 1.433 . S
C2000 H1996 0.929 . S
C2000 C2002 1.378 . S
C2000 C2004 1.350 . S
C2001 C2004 1.463 1_554 S
C2001 C2006 1.350 . S
C2001 N2009 1.427 . S
C2002 H1993 0.930 . S
C2002 C2000 1.378 . S
C2002 C2003 1.367 . S
C2003 C2002 1.367 . S
C2003 C2005 1.433 . S
C2004 C2000 1.350 . S
C2004 C2001 1.463 1_556 S
C2004 N2008 1.427 . S
C2005 H1995 0.929 . S
C2005 C2003 1.433 . S
C2005 N2008 1.384 . S
C2006 H1997 0.929 . S
C2006 C1998 1.378 . S
C2006 C2001 1.350 . S
C2007 H1994 0.929 . S
C2007 C1999 1.433 . S
C2007 N2009 1.384 . S
N2008 C2004 1.427 . S
N2008 C2005 1.384 . S
N2009 C2001 1.427 . S
N2009 C2007 1.384 . S
H2010 C2016 0.930 . S
H2011 C2020 0.930 . S
H2012 C2025 0.929 . S
H2013 C2023 0.929 . S
H2014 C2018 0.929 . S
H2015 C2024 0.929 . S
C2016 H2010 0.930 . S
C2016 C2017 1.367 . S
C2016 C2024 1.378 . S
C2017 C2016 1.367 . S
C2017 C2025 1.433 1_545 S
C2018 H2014 0.929 . S
C2018 C2020 1.378 . S
C2018 C2022 1.350 . S
C2019 C2022 1.463 1_545 S
C2019 C2024 1.350 . S
C2019 N2027 1.427 1_545 S
C2020 H2011 0.930 . S
C2020 C2018 1.378 . S
C2020 C2021 1.367 . S
C2021 C2020 1.367 . S
C2021 C2023 1.433 1_565 S
C2022 C2018 1.350 . S
C2022 C2019 1.463 1_565 S
C2022 N2026 1.427 1_565 S
C2023 H2013 0.929 . S
C2023 C2021 1.433 1_545 S
C2023 N2026 1.384 . S
C2024 H2015 0.929 . S
C2024 C2016 1.378 . S
C2024 C2019 1.350 . S
C2025 H2012 0.929 . S
C2025 C2017 1.433 1_565 S
C2025 N2027 1.384 . S
N2026 C2022 1.427 1_545 S
N2026 C2023 1.384 . S
N2027 C2019 1.427 1_565 S
N2027 C2025 1.384 . S
H2028 C2034 0.930 . S
H2029 C2038 0.930 . S
H2030 C2043 0.929 . S
H2031 C2041 0.929 . S
H2032 C2036 0.929 . S
H2033 C2042 0.929 . S
C2034 H2028 0.930 . S
C2034 C2035 1.367 . S
C2034 C2042 1.378 . S
C2035 C2034 1.367 . S
C2035 C2043 1.433 . S
C2036 H2032 0.929 . S
C2036 C2038 1.378 . S
C2036 C2040 1.350 . S
C2037 C2040 1.463 . S
C2037 C2042 1.350 . S
C2037 N2045 1.427 . S
C2038 H2029 0.930 . S
C2038 C2036 1.378 . S
C2038 C2039 1.367 . S
C2039 C2038 1.367 . S
C2039 C2041 1.433 . S
C2040 C2036 1.350 . S
C2040 C2037 1.463 . S
C2040 N2044 1.427 . S
C2041 H2031 0.929 . S
C2041 C2039 1.433 . S
C2041 N2044 1.384 . S
C2042 H2033 0.929 . S
C2042 C2034 1.378 . S
C2042 C2037 1.350 . S
C2043 H2030 0.929 . S
C2043 C2035 1.433 . S
C2043 N2045 1.384 . S
N2044 C2040 1.427 . S
N2044 C2041 1.384 . S
N2045 C2037 1.427 . S
N2045 C2043 1.384 . S
H2046 C2052 0.930 . S
H2047 C2056 0.930 . S
H2048 C2061 0.929 . S
H2049 C2059 0.929 . S
H2050 C2054 0.929 . S
H2051 C2060 0.929 . S
C2052 H2046 0.930 . S
C2052 C2053 1.367 1_545 S
C2052 C2060 1.378 . S
C2053 C2052 1.367 1_565 S
C2053 C2061 1.433 . S
C2054 H2050 0.929 . S
C2054 C2056 1.378 . S
C2054 C2058 1.350 1_565 S
C2055 C2058 1.463 1_565 S
C2055 C2060 1.350 1_565 S
C2055 N2063 1.427 . S
C2056 H2047 0.930 . S
C2056 C2054 1.378 . S
C2056 C2057 1.367 1_565 S
C2057 C2056 1.367 1_545 S
C2057 C2059 1.433 . S
C2058 C2054 1.350 1_545 S
C2058 C2055 1.463 1_545 S
C2058 N2062 1.427 . S
C2059 H2049 0.929 . S
C2059 C2057 1.433 . S
C2059 N2062 1.384 . S
C2060 H2051 0.929 . S
C2060 C2052 1.378 . S
C2060 C2055 1.350 1_545 S
C2061 H2048 0.929 . S
C2061 C2053 1.433 . S
C2061 N2063 1.384 . S
N2062 C2058 1.427 . S
N2062 C2059 1.384 . S
N2063 C2055 1.427 . S
N2063 C2061 1.384 . S
H2064 C2070 0.930 . S
H2065 C2074 0.930 . S
H2066 C2079 0.929 . S
H2067 C2077 0.929 . S
H2068 C2072 0.929 . S
H2069 C2078 0.929 . S
C2070 H2064 0.930 . S
C2070 C2071 1.367 . S
C2070 C2078 1.378 . S
C2071 C2070 1.367 . S
C2071 C2079 1.433 . S
C2072 H2068 0.929 . S
C2072 C2074 1.378 . S
C2072 C2076 1.350 . S
C2073 C2076 1.463 . S
C2073 C2078 1.350 . S
C2073 N2081 1.427 . S
C2074 H2065 0.930 . S
C2074 C2072 1.378 . S
C2074 C2075 1.367 . S
C2075 C2074 1.367 . S
C2075 C2077 1.433 . S
C2076 C2072 1.350 . S
C2076 C2073 1.463 . S
C2076 N2080 1.427 . S
C2077 H2067 0.929 . S
C2077 C2075 1.433 . S
C2077 N2080 1.384 . S
C2078 H2069 0.929 . S
C2078 C2070 1.378 . S
C2078 C2073 1.350 . S
C2079 H2066 0.929 . S
C2079 C2071 1.433 . S
C2079 N2081 1.384 . S
N2080 C2076 1.427 . S
N2080 C2077 1.384 . S
N2081 C2073 1.427 . S
N2081 C2079 1.384 . S
H2082 C2088 0.930 . S
H2083 C2092 0.930 . S
H2084 C2097 0.929 . S
H2085 C2095 0.929 . S
H2086 C2090 0.929 . S
H2087 C2096 0.929 . S
C2088 H2082 0.930 . S
C2088 C2089 1.367 . S
C2088 C2096 1.378 . S
C2089 C2088 1.367 . S
C2089 C2097 1.433 . S
C2090 H2086 0.929 . S
C2090 C2092 1.378 . S
C2090 C2094 1.350 . S
C2091 C2094 1.463 . S
C2091 C2096 1.350 . S
C2091 N2099 1.427 . S
C2092 H2083 0.930 . S
C2092 C2090 1.378 . S
C2092 C2093 1.367 . S
C2093 C2092 1.367 . S
C2093 C2095 1.433 . S
C2094 C2090 1.350 . S
C2094 C2091 1.463 . S
C2094 N2098 1.427 . S
C2095 H2085 0.929 . S
C2095 C2093 1.433 . S
C2095 N2098 1.384 . S
C2096 H2087 0.929 . S
C2096 C2088 1.378 . S
C2096 C2091 1.350 . S
C2097 H2084 0.929 . S
C2097 C2089 1.433 . S
C2097 N2099 1.384 . S
N2098 C2094 1.427 . S
N2098 C2095 1.384 . S
N2099 C2091 1.427 . S
N2099 C2097 1.384 . S
H2100 C2106 0.930 . S
H2101 C2110 0.930 . S
H2102 C2115 0.929 . S
H2103 C2113 0.929 . S
H2104 C2108 0.929 . S
H2105 C2114 0.929 . S
C2106 H2100 0.930 . S
C2106 C2107 1.367 . S
C2106 C2114 1.378 . S
C2107 C2106 1.367 . S
C2107 C2115 1.433 . S
C2108 H2104 0.929 . S
C2108 C2110 1.378 . S
C2108 C2112 1.350 . S
C2109 C2112 1.463 1_554 S
C2109 C2114 1.350 . S
C2109 N2117 1.427 . S
C2110 H2101 0.930 . S
C2110 C2108 1.378 . S
C2110 C2111 1.367 . S
C2111 C2110 1.367 . S
C2111 C2113 1.433 . S
C2112 C2108 1.350 . S
C2112 C2109 1.463 1_556 S
C2112 N2116 1.427 . S
C2113 H2103 0.929 . S
C2113 C2111 1.433 . S
C2113 N2116 1.384 . S
C2114 H2105 0.929 . S
C2114 C2106 1.378 . S
C2114 C2109 1.350 . S
C2115 H2102 0.929 . S
C2115 C2107 1.433 . S
C2115 N2117 1.384 . S
N2116 C2112 1.427 . S
N2116 C2113 1.384 . S
N2117 C2109 1.427 . S
N2117 C2115 1.384 . S
H2118 C2124 0.930 . S
H2119 C2128 0.930 . S
H2120 C2133 0.929 . S
H2121 C2131 0.929 . S
H2122 C2126 0.929 . S
H2123 C2132 0.929 . S
C2124 H2118 0.930 . S
C2124 C2125 1.367 . S
C2124 C2132 1.378 . S
C2125 C2124 1.367 . S
C2125 C2133 1.433 . S
C2126 H2122 0.929 . S
C2126 C2128 1.378 . S
C2126 C2130 1.350 . S
C2127 C2130 1.463 . S
C2127 C2132 1.350 . S
C2127 N2135 1.427 . S
C2128 H2119 0.930 . S
C2128 C2126 1.378 . S
C2128 C2129 1.367 . S
C2129 C2128 1.367 . S
C2129 C2131 1.433 . S
C2130 C2126 1.350 . S
C2130 C2127 1.463 . S
C2130 N2134 1.427 . S
C2131 H2121 0.929 . S
C2131 C2129 1.433 . S
C2131 N2134 1.384 . S
C2132 H2123 0.929 . S
C2132 C2124 1.378 . S
C2132 C2127 1.350 . S
C2133 H2120 0.929 . S
C2133 C2125 1.433 . S
C2133 N2135 1.384 . S
N2134 C2130 1.427 . S
N2134 C2131 1.384 . S
N2135 C2127 1.427 . S
N2135 C2133 1.384 . S
H2136 C2142 0.930 . S
H2137 C2146 0.930 . S
H2138 C2151 0.929 . S
H2139 C2149 0.929 . S
H2140 C2144 0.929 . S
H2141 C2150 0.929 . S
C2142 H2136 0.930 . S
C2142 C2143 1.367 . S
C2142 C2150 1.378 . S
C2143 C2142 1.367 . S
C2143 C2151 1.433 . S
C2144 H2140 0.929 . S
C2144 C2146 1.378 . S
C2144 C2148 1.350 . S
C2145 C2148 1.463 . S
C2145 C2150 1.350 . S
C2145 N2153 1.427 . S
C2146 H2137 0.930 . S
C2146 C2144 1.378 . S
C2146 C2147 1.367 . S
C2147 C2146 1.367 . S
C2147 C2149 1.433 . S
C2148 C2144 1.350 . S
C2148 C2145 1.463 . S
C2148 N2152 1.427 . S
C2149 H2139 0.929 . S
C2149 C2147 1.433 . S
C2149 N2152 1.384 . S
C2150 H2141 0.929 . S
C2150 C2142 1.378 . S
C2150 C2145 1.350 . S
C2151 H2138 0.929 . S
C2151 C2143 1.433 . S
C2151 N2153 1.384 . S
N2152 C2148 1.427 . S
N2152 C2149 1.384 . S
N2153 C2145 1.427 . S
N2153 C2151 1.384 . S
H2154 C2160 0.930 . S
H2155 C2164 0.930 . S
H2156 C2169 0.929 . S
H2157 C2167 0.929 . S
H2158 C2162 0.929 . S
H2159 C2168 0.929 . S
C2160 H2154 0.930 . S
C2160 C2161 1.367 . S
C2160 C2168 1.378 . S
C2161 C2160 1.367 . S
C2161 C2169 1.433 . S
C2162 H2158 0.929 . S
C2162 C2164 1.378 . S
C2162 C2166 1.350 . S
C2163 C2166 1.463 . S
C2163 C2168 1.350 . S
C2163 N2171 1.427 . S
C2164 H2155 0.930 . S
C2164 C2162 1.378 . S
C2164 C2165 1.367 . S
C2165 C2164 1.367 . S
C2165 C2167 1.433 . S
C2166 C2162 1.350 . S
C2166 C2163 1.463 . S
C2166 N2170 1.427 . S
C2167 H2157 0.929 . S
C2167 C2165 1.433 . S
C2167 N2170 1.384 . S
C2168 H2159 0.929 . S
C2168 C2160 1.378 . S
C2168 C2163 1.350 . S
C2169 H2156 0.929 . S
C2169 C2161 1.433 . S
C2169 N2171 1.384 . S
N2170 C2166 1.427 . S
N2170 C2167 1.384 . S
N2171 C2163 1.427 . S
N2171 C2169 1.384 . S
H2172 C2178 0.930 . S
H2173 C2182 0.930 . S
H2174 C2187 0.929 . S
H2175 C2185 0.929 . S
H2176 C2180 0.929 . S
H2177 C2186 0.929 . S
C2178 H2172 0.930 . S
C2178 C2179 1.367 . S
C2178 C2186 1.378 . S
C2179 C2178 1.367 . S
C2179 C2187 1.433 . S
C2180 H2176 0.929 . S
C2180 C2182 1.378 . S
C2180 C2184 1.350 . S
C2181 C2184 1.463 1_556 S
C2181 C2186 1.350 . S
C2181 N2189 1.427 . S
C2182 H2173 0.930 . S
C2182 C2180 1.378 . S
C2182 C2183 1.367 . S
C2183 C2182 1.367 . S
C2183 C2185 1.433 . S
C2184 C2180 1.350 . S
C2184 C2181 1.463 1_554 S
C2184 N2188 1.427 . S
C2185 H2175 0.929 . S
C2185 C2183 1.433 . S
C2185 N2188 1.384 . S
C2186 H2177 0.929 . S
C2186 C2178 1.378 . S
C2186 C2181 1.350 . S
C2187 H2174 0.929 . S
C2187 C2179 1.433 . S
C2187 N2189 1.384 . S
N2188 C2184 1.427 . S
N2188 C2185 1.384 . S
N2189 C2181 1.427 . S
N2189 C2187 1.384 . S
H2190 C2196 0.930 . S
H2191 C2200 0.930 . S
H2192 C2205 0.929 . S
H2193 C2203 0.929 . S
H2194 C2198 0.929 . S
H2195 C2204 0.929 . S
C2196 H2190 0.930 . S
C2196 C2197 1.367 . S
C2196 C2204 1.378 . S
C2197 C2196 1.367 . S
C2197 C2205 1.433 . S
C2198 H2194 0.929 . S
C2198 C2200 1.378 . S
C2198 C2202 1.350 . S
C2199 C2202 1.463 . S
C2199 C2204 1.350 . S
C2199 N2207 1.427 . S
C2200 H2191 0.930 . S
C2200 C2198 1.378 . S
C2200 C2201 1.367 . S
C2201 C2200 1.367 . S
C2201 C2203 1.433 . S
C2202 C2198 1.350 . S
C2202 C2199 1.463 . S
C2202 N2206 1.427 . S
C2203 H2193 0.929 . S
C2203 C2201 1.433 . S
C2203 N2206 1.384 . S
C2204 H2195 0.929 . S
C2204 C2196 1.378 . S
C2204 C2199 1.350 . S
C2205 H2192 0.929 . S
C2205 C2197 1.433 . S
C2205 N2207 1.384 . S
N2206 C2202 1.427 . S
N2206 C2203 1.384 . S
N2207 C2199 1.427 . S
N2207 C2205 1.384 . S
H2208 C2214 0.930 . S
H2209 C2218 0.930 . S
H2210 C2223 0.929 . S
H2211 C2221 0.929 . S
H2212 C2216 0.929 . S
H2213 C2222 0.929 . S
C2214 H2208 0.930 . S
C2214 C2215 1.367 . S
C2214 C2222 1.378 . S
C2215 C2214 1.367 . S
C2215 C2223 1.433 . S
C2216 H2212 0.929 . S
C2216 C2218 1.378 . S
C2216 C2220 1.350 . S
C2217 C2220 1.463 . S
C2217 C2222 1.350 . S
C2217 N2225 1.427 . S
C2218 H2209 0.930 . S
C2218 C2216 1.378 . S
C2218 C2219 1.367 . S
C2219 C2218 1.367 . S
C2219 C2221 1.433 . S
C2220 C2216 1.350 . S
C2220 C2217 1.463 . S
C2220 N2224 1.427 . S
C2221 H2211 0.929 . S
C2221 C2219 1.433 . S
C2221 N2224 1.384 . S
C2222 H2213 0.929 . S
C2222 C2214 1.378 . S
C2222 C2217 1.350 . S
C2223 H2210 0.929 . S
C2223 C2215 1.433 . S
C2223 N2225 1.384 . S
N2224 C2220 1.427 . S
N2224 C2221 1.384 . S
N2225 C2217 1.427 . S
N2225 C2223 1.384 . S
H2226 C2232 0.930 . S
H2227 C2236 0.930 . S
H2228 C2241 0.929 . S
H2229 C2239 0.929 . S
H2230 C2234 0.929 . S
H2231 C2240 0.929 . S
C2232 H2226 0.930 . S
C2232 C2233 1.367 . S
C2232 C2240 1.378 . S
C2233 C2232 1.367 . S
C2233 C2241 1.433 . S
C2234 H2230 0.929 . S
C2234 C2236 1.378 . S
C2234 C2238 1.350 . S
C2235 C2238 1.463 . S
C2235 C2240 1.350 . S
C2235 N2243 1.427 . S
C2236 H2227 0.930 . S
C2236 C2234 1.378 . S
C2236 C2237 1.367 . S
C2237 C2236 1.367 . S
C2237 C2239 1.433 . S
C2238 C2234 1.350 . S
C2238 C2235 1.463 . S
C2238 N2242 1.427 . S
C2239 H2229 0.929 . S
C2239 C2237 1.433 . S
C2239 N2242 1.384 . S
C2240 H2231 0.929 . S
C2240 C2232 1.378 . S
C2240 C2235 1.350 . S
C2241 H2228 0.929 . S
C2241 C2233 1.433 . S
C2241 N2243 1.384 . S
N2242 C2238 1.427 . S
N2242 C2239 1.384 . S
N2243 C2235 1.427 . S
N2243 C2241 1.384 . S
H2244 C2250 0.930 . S
H2245 C2254 0.930 . S
H2246 C2259 0.929 . S
H2247 C2257 0.929 . S
H2248 C2252 0.929 . S
H2249 C2258 0.929 . S
C2250 H2244 0.930 . S
C2250 C2251 1.367 . S
C2250 C2258 1.378 . S
C2251 C2250 1.367 . S
C2251 C2259 1.433 . S
C2252 H2248 0.929 . S
C2252 C2254 1.378 . S
C2252 C2256 1.350 . S
C2253 C2256 1.463 . S
C2253 C2258 1.350 . S
C2253 N2261 1.427 . S
C2254 H2245 0.930 . S
C2254 C2252 1.378 . S
C2254 C2255 1.367 . S
C2255 C2254 1.367 . S
C2255 C2257 1.433 . S
C2256 C2252 1.350 . S
C2256 C2253 1.463 . S
C2256 N2260 1.427 . S
C2257 H2247 0.929 . S
C2257 C2255 1.433 . S
C2257 N2260 1.384 . S
C2258 H2249 0.929 . S
C2258 C2250 1.378 . S
C2258 C2253 1.350 . S
C2259 H2246 0.929 . S
C2259 C2251 1.433 . S
C2259 N2261 1.384 . S
N2260 C2256 1.427 . S
N2260 C2257 1.384 . S
N2261 C2253 1.427 . S
N2261 C2259 1.384 . S
H2262 C2268 0.930 . S
H2263 C2272 0.930 . S
H2264 C2277 0.929 . S
H2265 C2275 0.929 . S
H2266 C2270 0.929 . S
H2267 C2276 0.929 . S
C2268 H2262 0.930 . S
C2268 C2269 1.367 . S
C2268 C2276 1.378 . S
C2269 C2268 1.367 . S
C2269 C2277 1.433 . S
C2270 H2266 0.929 . S
C2270 C2272 1.378 . S
C2270 C2274 1.350 . S
C2271 C2274 1.463 . S
C2271 C2276 1.350 . S
C2271 N2279 1.427 . S
C2272 H2263 0.930 . S
C2272 C2270 1.378 . S
C2272 C2273 1.367 . S
C2273 C2272 1.367 . S
C2273 C2275 1.433 . S
C2274 C2270 1.350 . S
C2274 C2271 1.463 . S
C2274 N2278 1.427 . S
C2275 H2265 0.929 . S
C2275 C2273 1.433 . S
C2275 N2278 1.384 . S
C2276 H2267 0.929 . S
C2276 C2268 1.378 . S
C2276 C2271 1.350 . S
C2277 H2264 0.929 . S
C2277 C2269 1.433 . S
C2277 N2279 1.384 . S
N2278 C2274 1.427 . S
N2278 C2275 1.384 . S
N2279 C2271 1.427 . S
N2279 C2277 1.384 . S
H2280 C2286 0.930 . S
H2281 C2290 0.930 . S
H2282 C2295 0.929 . S
H2283 C2293 0.929 . S
H2284 C2288 0.929 . S
H2285 C2294 0.929 . S
C2286 H2280 0.930 . S
C2286 C2287 1.367 . S
C2286 C2294 1.378 . S
C2287 C2286 1.367 . S
C2287 C2295 1.433 . S
C2288 H2284 0.929 . S
C2288 C2290 1.378 . S
C2288 C2292 1.350 . S
C2289 C2292 1.463 . S
C2289 C2294 1.350 . S
C2289 N2297 1.427 . S
C2290 H2281 0.930 . S
C2290 C2288 1.378 . S
C2290 C2291 1.367 . S
C2291 C2290 1.367 . S
C2291 C2293 1.433 . S
C2292 C2288 1.350 . S
C2292 C2289 1.463 . S
C2292 N2296 1.427 . S
C2293 H2283 0.929 . S
C2293 C2291 1.433 . S
C2293 N2296 1.384 . S
C2294 H2285 0.929 . S
C2294 C2286 1.378 . S
C2294 C2289 1.350 . S
C2295 H2282 0.929 . S
C2295 C2287 1.433 . S
C2295 N2297 1.384 . S
N2296 C2292 1.427 . S
N2296 C2293 1.384 . S
N2297 C2289 1.427 . S
N2297 C2295 1.384 . S
H2298 C2304 0.930 . S
H2299 C2308 0.930 . S
H2300 C2313 0.929 . S
H2301 C2311 0.929 . S
H2302 C2306 0.929 . S
H2303 C2312 0.929 . S
C2304 H2298 0.930 . S
C2304 C2305 1.367 . S
C2304 C2312 1.378 . S
C2305 C2304 1.367 . S
C2305 C2313 1.433 . S
C2306 H2302 0.929 . S
C2306 C2308 1.378 . S
C2306 C2310 1.350 . S
C2307 C2310 1.463 . S
C2307 C2312 1.350 . S
C2307 N2315 1.427 . S
C2308 H2299 0.930 . S
C2308 C2306 1.378 . S
C2308 C2309 1.367 . S
C2309 C2308 1.367 . S
C2309 C2311 1.433 . S
C2310 C2306 1.350 . S
C2310 C2307 1.463 . S
C2310 N2314 1.427 . S
C2311 H2301 0.929 . S
C2311 C2309 1.433 . S
C2311 N2314 1.384 . S
C2312 H2303 0.929 . S
C2312 C2304 1.378 . S
C2312 C2307 1.350 . S
C2313 H2300 0.929 . S
C2313 C2305 1.433 . S
C2313 N2315 1.384 . S
N2314 C2310 1.427 . S
N2314 C2311 1.384 . S
N2315 C2307 1.427 . S
N2315 C2313 1.384 . S
H2316 C2322 0.930 . S
H2317 C2326 0.930 . S
H2318 C2331 0.929 . S
H2319 C2329 0.929 . S
H2320 C2324 0.929 . S
H2321 C2330 0.929 . S
C2322 H2316 0.930 . S
C2322 C2323 1.367 . S
C2322 C2330 1.378 . S
C2323 C2322 1.367 . S
C2323 C2331 1.433 . S
C2324 H2320 0.929 . S
C2324 C2326 1.378 . S
C2324 C2328 1.350 . S
C2325 C2328 1.463 . S
C2325 C2330 1.350 . S
C2325 N2333 1.427 . S
C2326 H2317 0.930 . S
C2326 C2324 1.378 . S
C2326 C2327 1.367 . S
C2327 C2326 1.367 . S
C2327 C2329 1.433 . S
C2328 C2324 1.350 . S
C2328 C2325 1.463 . S
C2328 N2332 1.427 . S
C2329 H2319 0.929 . S
C2329 C2327 1.433 . S
C2329 N2332 1.384 . S
C2330 H2321 0.929 . S
C2330 C2322 1.378 . S
C2330 C2325 1.350 . S
C2331 H2318 0.929 . S
C2331 C2323 1.433 . S
C2331 N2333 1.384 . S
N2332 C2328 1.427 . S
N2332 C2329 1.384 . S
N2333 C2325 1.427 . S
N2333 C2331 1.384 . S
H2334 C2340 0.930 . S
H2335 C2344 0.930 . S
H2336 C2349 0.929 1_565 S
H2337 C2347 0.929 . S
H2338 C2342 0.929 . S
H2339 C2348 0.929 . S
C2340 H2334 0.930 . S
C2340 C2341 1.367 . S
C2340 C2348 1.378 . S
C2341 C2340 1.367 . S
C2341 C2349 1.433 . S
C2342 H2338 0.929 . S
C2342 C2344 1.378 . S
C2342 C2346 1.350 . S
C2343 C2346 1.463 . S
C2343 C2348 1.350 . S
C2343 N2351 1.427 . S
C2344 H2335 0.930 . S
C2344 C2342 1.378 . S
C2344 C2345 1.367 . S
C2345 C2344 1.367 . S
C2345 C2347 1.433 . S
C2346 C2342 1.350 . S
C2346 C2343 1.463 . S
C2346 N2350 1.427 . S
C2347 H2337 0.929 . S
C2347 C2345 1.433 . S
C2347 N2350 1.384 . S
C2348 H2339 0.929 . S
C2348 C2340 1.378 . S
C2348 C2343 1.350 . S
C2349 H2336 0.929 1_545 S
C2349 C2341 1.433 . S
C2349 N2351 1.384 . S
N2350 C2346 1.427 . S
N2350 C2347 1.384 . S
N2351 C2343 1.427 . S
N2351 C2349 1.384 . S
H2352 C2358 0.930 . S
H2353 C2362 0.930 . S
H2354 C2367 0.929 . S
H2355 C2365 0.929 . S
H2356 C2360 0.929 . S
H2357 C2366 0.929 . S
C2358 H2352 0.930 . S
C2358 C2359 1.367 . S
C2358 C2366 1.378 . S
C2359 C2358 1.367 . S
C2359 C2367 1.433 . S
C2360 H2356 0.929 . S
C2360 C2362 1.378 . S
C2360 C2364 1.350 . S
C2361 C2364 1.463 . S
C2361 C2366 1.350 . S
C2361 N2369 1.427 . S
C2362 H2353 0.930 . S
C2362 C2360 1.378 . S
C2362 C2363 1.367 . S
C2363 C2362 1.367 . S
C2363 C2365 1.433 . S
C2364 C2360 1.350 . S
C2364 C2361 1.463 . S
C2364 N2368 1.427 . S
C2365 H2355 0.929 . S
C2365 C2363 1.433 . S
C2365 N2368 1.384 . S
C2366 H2357 0.929 . S
C2366 C2358 1.378 . S
C2366 C2361 1.350 . S
C2367 H2354 0.929 . S
C2367 C2359 1.433 . S
C2367 N2369 1.384 . S
N2368 C2364 1.427 . S
N2368 C2365 1.384 . S
N2369 C2361 1.427 . S
N2369 C2367 1.384 . S
H2370 C2376 0.930 . S
H2371 C2380 0.930 . S
H2372 C2385 0.929 . S
H2373 C2383 0.929 . S
H2374 C2378 0.929 . S
H2375 C2384 0.929 . S
C2376 H2370 0.930 . S
C2376 C2377 1.367 . S
C2376 C2384 1.378 . S
C2377 C2376 1.367 . S
C2377 C2385 1.433 . S
C2378 H2374 0.929 . S
C2378 C2380 1.378 . S
C2378 C2382 1.350 . S
C2379 C2382 1.463 . S
C2379 C2384 1.350 . S
C2379 N2387 1.427 . S
C2380 H2371 0.930 . S
C2380 C2378 1.378 . S
C2380 C2381 1.367 . S
C2381 C2380 1.367 . S
C2381 C2383 1.433 . S
C2382 C2378 1.350 . S
C2382 C2379 1.463 . S
C2382 N2386 1.427 . S
C2383 H2373 0.929 . S
C2383 C2381 1.433 . S
C2383 N2386 1.384 . S
C2384 H2375 0.929 . S
C2384 C2376 1.378 . S
C2384 C2379 1.350 . S
C2385 H2372 0.929 . S
C2385 C2377 1.433 . S
C2385 N2387 1.384 . S
N2386 C2382 1.427 . S
N2386 C2383 1.384 . S
N2387 C2379 1.427 . S
N2387 C2385 1.384 . S
H2388 C2394 0.930 . S
H2389 C2398 0.930 . S
H2390 C2403 0.929 . S
H2391 C2401 0.929 . S
H2392 C2396 0.929 . S
H2393 C2402 0.929 . S
C2394 H2388 0.930 . S
C2394 C2395 1.367 . S
C2394 C2402 1.378 . S
C2395 C2394 1.367 . S
C2395 C2403 1.433 . S
C2396 H2392 0.929 . S
C2396 C2398 1.378 . S
C2396 C2400 1.350 . S
C2397 C2400 1.463 . S
C2397 C2402 1.350 . S
C2397 N2405 1.427 . S
C2398 H2389 0.930 . S
C2398 C2396 1.378 . S
C2398 C2399 1.367 . S
C2399 C2398 1.367 . S
C2399 C2401 1.433 . S
C2400 C2396 1.350 . S
C2400 C2397 1.463 . S
C2400 N2404 1.427 . S
C2401 H2391 0.929 . S
C2401 C2399 1.433 . S
C2401 N2404 1.384 . S
C2402 H2393 0.929 . S
C2402 C2394 1.378 . S
C2402 C2397 1.350 . S
C2403 H2390 0.929 . S
C2403 C2395 1.433 . S
C2403 N2405 1.384 . S
N2404 C2400 1.427 . S
N2404 C2401 1.384 . S
N2405 C2397 1.427 . S
N2405 C2403 1.384 . S
H2406 C2412 0.930 . S
H2407 C2416 0.930 . S
H2408 C2421 0.929 . S
H2409 C2419 0.929 . S
H2410 C2414 0.929 . S
H2411 C2420 0.929 . S
C2412 H2406 0.930 . S
C2412 C2413 1.367 . S
C2412 C2420 1.378 . S
C2413 C2412 1.367 . S
C2413 C2421 1.433 . S
C2414 H2410 0.929 . S
C2414 C2416 1.378 . S
C2414 C2418 1.350 . S
C2415 C2418 1.463 . S
C2415 C2420 1.350 . S
C2415 N2423 1.427 . S
C2416 H2407 0.930 . S
C2416 C2414 1.378 . S
C2416 C2417 1.367 . S
C2417 C2416 1.367 . S
C2417 C2419 1.433 . S
C2418 C2414 1.350 . S
C2418 C2415 1.463 . S
C2418 N2422 1.427 . S
C2419 H2409 0.929 . S
C2419 C2417 1.433 . S
C2419 N2422 1.384 . S
C2420 H2411 0.929 . S
C2420 C2412 1.378 . S
C2420 C2415 1.350 . S
C2421 H2408 0.929 . S
C2421 C2413 1.433 . S
C2421 N2423 1.384 . S
N2422 C2418 1.427 . S
N2422 C2419 1.384 . S
N2423 C2415 1.427 . S
N2423 C2421 1.384 . S
H2424 C2430 0.930 . S
H2425 C2434 0.930 . S
H2426 C2439 0.929 . S
H2427 C2437 0.929 . S
H2428 C2432 0.929 . S
H2429 C2438 0.929 . S
C2430 H2424 0.930 . S
C2430 C2431 1.367 . S
C2430 C2438 1.378 . S
C2431 C2430 1.367 . S
C2431 C2439 1.433 . S
C2432 H2428 0.929 . S
C2432 C2434 1.378 . S
C2432 C2436 1.350 . S
C2433 C2436 1.463 . S
C2433 C2438 1.350 . S
C2433 N2441 1.427 . S
C2434 H2425 0.930 . S
C2434 C2432 1.378 . S
C2434 C2435 1.367 . S
C2435 C2434 1.367 . S
C2435 C2437 1.433 . S
C2436 C2432 1.350 . S
C2436 C2433 1.463 . S
C2436 N2440 1.427 . S
C2437 H2427 0.929 . S
C2437 C2435 1.433 . S
C2437 N2440 1.384 . S
C2438 H2429 0.929 . S
C2438 C2430 1.378 . S
C2438 C2433 1.350 . S
C2439 H2426 0.929 . S
C2439 C2431 1.433 . S
C2439 N2441 1.384 . S
N2440 C2436 1.427 . S
N2440 C2437 1.384 . S
N2441 C2433 1.427 . S
N2441 C2439 1.384 . S
H2442 C2448 0.930 . S
H2443 C2452 0.930 . S
H2444 C2457 0.929 . S
H2445 C2455 0.929 . S
H2446 C2450 0.929 . S
H2447 C2456 0.929 . S
C2448 H2442 0.930 . S
C2448 C2449 1.367 . S
C2448 C2456 1.378 . S
C2449 C2448 1.367 . S
C2449 C2457 1.433 . S
C2450 H2446 0.929 . S
C2450 C2452 1.378 . S
C2450 C2454 1.350 . S
C2451 C2454 1.463 . S
C2451 C2456 1.350 . S
C2451 N2459 1.427 . S
C2452 H2443 0.930 . S
C2452 C2450 1.378 . S
C2452 C2453 1.367 . S
C2453 C2452 1.367 . S
C2453 C2455 1.433 . S
C2454 C2450 1.350 . S
C2454 C2451 1.463 . S
C2454 N2458 1.427 . S
C2455 H2445 0.929 . S
C2455 C2453 1.433 . S
C2455 N2458 1.384 . S
C2456 H2447 0.929 . S
C2456 C2448 1.378 . S
C2456 C2451 1.350 . S
C2457 H2444 0.929 . S
C2457 C2449 1.433 . S
C2457 N2459 1.384 . S
N2458 C2454 1.427 . S
N2458 C2455 1.384 . S
N2459 C2451 1.427 . S
N2459 C2457 1.384 . S
H2460 C2466 0.930 . S
H2461 C2470 0.930 . S
H2462 C2475 0.929 . S
H2463 C2473 0.929 . S
H2464 C2468 0.929 . S
H2465 C2474 0.929 . S
C2466 H2460 0.930 . S
C2466 C2467 1.367 . S
C2466 C2474 1.378 . S
C2467 C2466 1.367 . S
C2467 C2475 1.433 . S
C2468 H2464 0.929 . S
C2468 C2470 1.378 . S
C2468 C2472 1.350 . S
C2469 C2472 1.463 . S
C2469 C2474 1.350 . S
C2469 N2477 1.427 . S
C2470 H2461 0.930 . S
C2470 C2468 1.378 . S
C2470 C2471 1.367 . S
C2471 C2470 1.367 . S
C2471 C2473 1.433 . S
C2472 C2468 1.350 . S
C2472 C2469 1.463 . S
C2472 N2476 1.427 . S
C2473 H2463 0.929 . S
C2473 C2471 1.433 . S
C2473 N2476 1.384 . S
C2474 H2465 0.929 . S
C2474 C2466 1.378 . S
C2474 C2469 1.350 . S
C2475 H2462 0.929 . S
C2475 C2467 1.433 . S
C2475 N2477 1.384 . S
N2476 C2472 1.427 . S
N2476 C2473 1.384 . S
N2477 C2469 1.427 . S
N2477 C2475 1.384 . S
H2478 C2484 0.930 . S
H2479 C2488 0.930 . S
H2480 C2493 0.929 . S
H2481 C2491 0.929 . S
H2482 C2486 0.929 . S
H2483 C2492 0.929 . S
C2484 H2478 0.930 . S
C2484 C2485 1.367 . S
C2484 C2492 1.378 . S
C2485 C2484 1.367 . S
C2485 C2493 1.433 . S
C2486 H2482 0.929 . S
C2486 C2488 1.378 . S
C2486 C2490 1.350 . S
C2487 C2490 1.463 . S
C2487 C2492 1.350 . S
C2487 N2495 1.427 . S
C2488 H2479 0.930 . S
C2488 C2486 1.378 . S
C2488 C2489 1.367 . S
C2489 C2488 1.367 . S
C2489 C2491 1.433 . S
C2490 C2486 1.350 . S
C2490 C2487 1.463 . S
C2490 N2494 1.427 . S
C2491 H2481 0.929 . S
C2491 C2489 1.433 . S
C2491 N2494 1.384 . S
C2492 H2483 0.929 . S
C2492 C2484 1.378 . S
C2492 C2487 1.350 . S
C2493 H2480 0.929 . S
C2493 C2485 1.433 . S
C2493 N2495 1.384 . S
N2494 C2490 1.427 . S
N2494 C2491 1.384 . S
N2495 C2487 1.427 . S
N2495 C2493 1.384 . S
C1063 C28 1.573 . S
C1067 C820 1.573 . S
C1081 C325 1.575 . S
C1085 C61 1.575 . S
C1099 C886 1.575 . S
C1103 C94 1.575 . S
C1117 C391 1.575 . S
C1121 C127 1.575 . S
C1135 C952 1.574 . S
C1139 C160 1.574 . S
C1153 C457 1.573 . S
C1157 C193 1.573 . S
C1171 C1018 1.573 . S
C1175 C226 1.573 . S
C1189 C523 1.574 . S
C1193 C259 1.574 . S
C1207 C292 1.574 . S
C1211 C556 1.574 . S
C1225 C358 1.573 . S
C1229 C622 1.573 . S
C1243 C424 1.575 . S
C1247 C688 1.575 . S
C1261 C754 1.574 . S
C1265 C490 1.574 . S
C1279 C589 1.575 . S
C1283 C853 1.575 . S
C1297 C919 1.573 . S
C1301 C655 1.573 . S
C1315 C721 1.573 . S
C1319 C985 1.573 . S
C1333 C1051 1.575 . S
C1337 C787 1.575 . S
C1351 N5 1.270 . S
C1355 C380 1.305 . S
C1369 N38 1.266 1_455 S
C1373 C809 1.302 . S
C1387 C314 1.310 . S
C1391 N71 1.282 . S
C1405 N104 1.282 . S
C1409 C875 1.309 . S
C1423 C446 1.301 . S
C1427 N137 1.269 . S
C1441 C1007 1.300 . S
C1445 N170 1.265 . S
C1459 N203 1.270 . S
C1463 C512 1.305 . S
C1477 C941 1.309 . S
C1481 N236 1.282 1_455 S
C1495 N269 1.274 . S
C1499 C116 1.308 . S
C1513 N302 1.277 1_655 S
C1517 C545 1.309 . S
C1531 C50 1.307 . S
C1535 N335 1.273 . S
C1549 N368 1.279 . S
C1553 C611 1.310 . S
C1567 N401 1.265 . S
C1571 C182 1.300 . S
C1585 C743 1.307 . S
C1589 N434 1.279 . S
C1603 C248 1.309 . S
C1607 N467 1.281 . S
C1621 N500 1.265 1_655 S
C1625 C677 1.301 . S
C1639 C908 1.300 . S
C1643 N533 1.265 . S
C1657 C281 1.302 . S
C1661 N566 1.266 . S
C1675 C842 1.300 . S
C1679 N599 1.265 . S
C1693 N632 1.275 1_655 S
C1697 C347 1.304 . S
C1711 C974 1.300 . S
C1715 N665 1.265 . S
C1729 C479 1.300 . S
C1733 N698 1.265 1_655 S
C1747 N731 1.269 . S
C1751 C1040 1.305 . S
C1765 C413 1.310 . S
C1769 N764 1.281 . S
C1783 C644 1.303 . S
C1787 N797 1.267 . S
C1801 N830 1.273 . S
C1805 C17 1.307 . S
C1819 N863 1.281 . S
C1823 C578 1.310 . S
C1837 C83 1.309 . S
C1841 N896 1.277 1_455 S
C1855 C710 1.305 . S
C1859 N929 1.277 . S
C1873 N962 1.274 1_455 S
C1877 C215 1.304 . S
C1891 C776 1.303 . S
C1895 N995 1.267 . S
C1909 C149 1.309 . S
C1913 N1028 1.282 . S
C1927 C8 1.013 . S
C1931 C206 1.015 . S
C1945 C239 1.023 . S
C1949 C41 1.024 . S
C1963 C74 1.014 . S
C1967 C140 1.018 . S
C1981 C107 1.021 . S
C1985 C173 1.023 . S
C1999 C470 1.017 . S
C2003 C272 1.014 . S
C2017 C503 1.013 . S
C2021 C305 1.014 . S
C2035 C404 1.017 . S
C2039 C338 1.014 . S
C2053 C437 1.023 . S
C2057 C371 1.021 . S
C2071 C536 1.023 . S
C2075 C734 1.020 . S
C2089 C569 1.015 . S
C2093 C767 1.013 . S
C2107 C602 1.020 . S
C2111 C668 1.017 . S
C2125 C635 1.020 . S
C2129 C701 1.023 . S
C2143 C998 1.018 . S
C2147 C800 1.021 . S
C2161 C1031 1.013 . S
C2165 C833 1.015 . S
C2179 C866 1.019 . S
C2183 C932 1.022 . S
C2197 C899 1.013 . S
C2201 C965 1.015 . S
C2215 N14 1.888 . S
C2219 N707 1.888 . S
C2233 N47 1.893 1_565 S
C2237 N740 1.893 . S
C2251 N80 1.894 . S
C2255 N773 1.894 . S
C2269 N113 1.893 1_545 S
C2273 N674 1.893 . S
C2287 N641 1.890 . S
C2291 N146 1.890 . S
C2305 N179 1.889 1_565 S
C2309 N542 1.889 . S
C2323 N575 1.888 . S
C2327 N212 1.888 . S
C2341 N245 1.891 1_545 S
C2345 N608 1.891 . S
C2359 N971 1.890 . S
C2363 N278 1.890 . S
C2377 N311 1.888 1_545 S
C2381 N1004 1.888 . S
C2395 N1037 1.893 . S
C2399 N344 1.893 . S
C2413 N377 1.888 1_565 S
C2417 N938 1.888 . S
C2431 N410 1.887 . S
C2435 N905 1.887 . S
C2449 N806 1.888 . S
C2453 N443 1.888 1_545 S
C2467 N476 1.888 . S
C2471 N839 1.888 . S
C2485 N509 1.888 1_565 S
C2489 N872 1.889 . S
