# Generated by pormake.
# Topology rac, (4)-cn, num edge types: 1
# Building blocks:
#     Node 0, Type 0, BuildingBlock: GALJAG_clean_sbu_0, # of connection points: 4
#     Node 1, Type 0, BuildingBlock: GALJAG_clean_sbu_0, # of connection points: 4
#     Node 2, Type 0, BuildingBlock: GALJAG_clean_sbu_0, # of connection points: 4
#     Node 3, Type 0, BuildingBlock: GALJAG_clean_sbu_0, # of connection points: 4
#     Node 4, Type 0, BuildingBlock: GALJAG_clean_sbu_0, # of connection points: 4
#     Node 5, Type 0, BuildingBlock: GALJAG_clean_sbu_0, # of connection points: 4
#     Node 6, Type 0, BuildingBlock: GALJAG_clean_sbu_0, # of connection points: 4
#     Node 7, Type 0, BuildingBlock: GALJAG_clean_sbu_0, # of connection points: 4
#     Edge 8, Type (0, 0), BuildingBlock: KIFKEQ_clean_linker_1, # of connection points: 2
#     Edge 9, Type (0, 0), BuildingBlock: KIFKEQ_clean_linker_1, # of connection points: 2
#     Edge 10, Type (0, 0), BuildingBlock: KIFKEQ_clean_linker_1, # of connection points: 2
#     Edge 11, Type (0, 0), BuildingBlock: KIFKEQ_clean_linker_1, # of connection points: 2
#     Edge 12, Type (0, 0), BuildingBlock: KIFKEQ_clean_linker_1, # of connection points: 2
#     Edge 13, Type (0, 0), BuildingBlock: KIFKEQ_clean_linker_1, # of connection points: 2
#     Edge 14, Type (0, 0), BuildingBlock: KIFKEQ_clean_linker_1, # of connection points: 2
#     Edge 15, Type (0, 0), BuildingBlock: KIFKEQ_clean_linker_1, # of connection points: 2
#     Edge 16, Type (0, 0), BuildingBlock: KIFKEQ_clean_linker_1, # of connection points: 2
#     Edge 17, Type (0, 0), BuildingBlock: KIFKEQ_clean_linker_1, # of connection points: 2
#     Edge 18, Type (0, 0), BuildingBlock: KIFKEQ_clean_linker_1, # of connection points: 2
#     Edge 19, Type (0, 0), BuildingBlock: KIFKEQ_clean_linker_1, # of connection points: 2
#     Edge 20, Type (0, 0), BuildingBlock: KIFKEQ_clean_linker_1, # of connection points: 2
#     Edge 21, Type (0, 0), BuildingBlock: KIFKEQ_clean_linker_1, # of connection points: 2
#     Edge 22, Type (0, 0), BuildingBlock: KIFKEQ_clean_linker_1, # of connection points: 2
#     Edge 23, Type (0, 0), BuildingBlock: KIFKEQ_clean_linker_1, # of connection points: 2
# Relax obj value: 0.254
# Max RMSD: 0.115
# Mean RMSD: 0.115
data_MOF--net-rac--node1-GALJAG_clean_sbu_0--edge1-KIFKEQ_clean_linker_1
_symmetry_space_group_name_H-M    P1
_symmetry_Int_Tables_number       1
_symmetry_cell_setting            triclinic
loop_
_symmetry_equiv_pos_as_xyz
'x, y, z'
_cell_length_a     36.48515
_cell_length_b     23.336951
_cell_length_c     40.042352
_cell_angle_alpha  90.336678
_cell_angle_beta   90.112207
_cell_angle_gamma 89.878139
loop_
_atom_site_label
_atom_site_type_symbol
_atom_site_fract_x
_atom_site_fract_y
_atom_site_fract_z
_atom_type_partial_charge
In0 In 0.37258 0.26587 0.07251 0.0
O1 O 0.35182 0.275 0.12521 0.0
O2 O 0.40278 0.23094 0.11824 0.0
C3 C 0.3318 0.34392 0.04198 0.0
C4 C 0.3345 0.17001 0.05666 0.0
C5 C 0.43234 0.32878 0.05723 0.0
O6 O 0.33706 0.34452 0.07319 0.0
O7 O 0.34609 0.3027 0.02611 0.0
O8 O 0.42375 0.28501 0.0398 0.0
O9 O 0.41288 0.33629 0.08283 0.0
C10 C 0.3787 0.24944 0.1384 0.0
O11 O 0.36894 0.17244 0.05161 0.0
O12 O 0.32084 0.21475 0.0693 0.0
In13 In 0.12034 0.73607 0.04862 0.0
O14 O 0.1299 0.83027 0.03186 0.0
O15 O 0.17404 0.78314 0.05313 0.0
C16 C 0.05827 0.69225 0.02094 0.0
C17 C 0.10923 0.74438 0.11469 0.0
C18 C 0.16138 0.65055 0.02488 0.0
O19 O 0.08149 0.71923 0.0037 0.0
O20 O 0.06399 0.69515 0.05187 0.0
O21 O 0.1467 0.64904 0.05337 0.0
O22 O 0.15638 0.69604 0.00867 0.0
C23 C 0.16338 0.82982 0.04077 0.0
O24 O 0.12876 0.70559 0.10151 0.0
O25 O 0.09527 0.77983 0.0944 0.0
In26 In 0.37972 0.24955 0.45597 0.0
O27 O 0.37501 0.34716 0.46779 0.0
O28 O 0.32823 0.29473 0.47381 0.0
C29 C 0.44022 0.20241 0.48441 0.0
C30 C 0.38417 0.26387 0.38964 0.0
C31 C 0.34483 0.15091 0.46613 0.0
O32 O 0.41449 0.22394 0.50146 0.0
O33 O 0.43802 0.21293 0.45364 0.0
O34 O 0.35456 0.16713 0.4375 0.0
O35 O 0.35103 0.18594 0.48952 0.0
C36 C 0.34112 0.3446 0.4745 0.0
O37 O 0.35533 0.24748 0.40409 0.0
O38 O 0.41108 0.27432 0.40872 0.0
In39 In 0.13325 0.77323 0.42894 0.0
O40 O 0.13512 0.68595 0.45703 0.0
O41 O 0.17119 0.70098 0.41625 0.0
C42 C 0.08347 0.85289 0.44836 0.0
C43 C 0.11455 0.76951 0.36424 0.0
C44 C 0.19148 0.82073 0.45764 0.0
O45 O 0.08147 0.80151 0.45882 0.0
O46 O 0.10948 0.86207 0.42843 0.0
O47 O 0.18903 0.81314 0.42646 0.0
O48 O 0.16398 0.80576 0.47452 0.0
C49 C 0.16187 0.66792 0.43946 0.0
O50 O 0.13976 0.80107 0.3757 0.0
O51 O 0.09823 0.73889 0.38567 0.0
In52 In 0.63525 0.71683 0.94769 0.0
O53 O 0.64439 0.68914 0.89423 0.0
O54 O 0.60767 0.75908 0.90275 0.0
C55 C 0.67269 0.62494 0.96721 0.0
C56 C 0.67859 0.80975 0.95906 0.0
C57 C 0.5738 0.67308 0.97589 0.0
O58 O 0.66447 0.63402 0.93704 0.0
O59 O 0.66373 0.66405 0.98751 0.0
O60 O 0.59757 0.69991 0.99283 0.0
O61 O 0.5786 0.67588 0.94484 0.0
C62 C 0.62288 0.72581 0.8818 0.0
O63 O 0.64408 0.81226 0.96263 0.0
O64 O 0.69043 0.76107 0.95072 0.0
In65 In 0.87176 0.2592 0.92497 0.0
O66 O 0.87491 0.1654 0.94484 0.0
O67 O 0.82977 0.1924 0.91476 0.0
C68 C 0.92015 0.34253 0.94009 0.0
C69 C 0.88305 0.26103 0.85903 0.0
C70 C 0.82137 0.30219 0.96559 0.0
O71 O 0.92525 0.29129 0.95013 0.0
O72 O 0.8918 0.34982 0.92245 0.0
O73 O 0.81781 0.30201 0.93414 0.0
O74 O 0.85098 0.28172 0.97684 0.0
C75 C 0.844 0.1529 0.93176 0.0
O76 O 0.85505 0.28266 0.87285 0.0
O77 O 0.90586 0.23748 0.87866 0.0
In78 In 0.63641 0.78646 0.56861 0.0
O79 O 0.64867 0.70092 0.53992 0.0
O80 O 0.69017 0.73851 0.57005 0.0
C81 C 0.57399 0.83661 0.54558 0.0
C82 C 0.62184 0.76724 0.63313 0.0
C83 C 0.67545 0.88028 0.55596 0.0
O84 O 0.59763 0.81546 0.52599 0.0
O85 O 0.57939 0.82458 0.57579 0.0
O86 O 0.67187 0.86049 0.58499 0.0
O87 O 0.66082 0.85104 0.53301 0.0
C88 C 0.68131 0.69806 0.55083 0.0
O89 O 0.63981 0.80978 0.62283 0.0
O90 O 0.61087 0.73283 0.61055 0.0
In91 In 0.88629 0.28258 0.5437 0.0
O92 O 0.86689 0.30068 0.59624 0.0
O93 O 0.92424 0.28778 0.58961 0.0
C94 C 0.82263 0.22848 0.53511 0.0
C95 C 0.8692 0.3862 0.51683 0.0
C96 C 0.93322 0.19805 0.5237 0.0
O97 O 0.83217 0.24963 0.56288 0.0
O98 O 0.8452 0.23511 0.51161 0.0
O99 O 0.93842 0.24983 0.51527 0.0
O100 O 0.90574 0.19077 0.54206 0.0
C101 C 0.89812 0.2974 0.60962 0.0
O102 O 0.89189 0.38119 0.5405 0.0
O103 O 0.86014 0.33917 0.5038 0.0
H104 H 0.35401 0.06125 0.0346 0.0
H105 H 0.26058 0.16496 0.0621 0.0
H106 H 0.31314 0.97901 0.02572 0.0
H107 H 0.22037 0.08369 0.05414 0.0
H108 H 0.14957 0.93864 0.01695 0.0
H109 H 0.19198 0.01987 0.01549 0.0
H110 H 0.2771 0.91378 0.05799 0.0
H111 H 0.2353 0.83302 0.05859 0.0
C112 C 0.32486 0.06659 0.03859 0.0
C113 C 0.31072 0.11967 0.04922 0.0
C114 C 0.30137 0.01945 0.03369 0.0
C115 C 0.26323 0.02444 0.03919 0.0
C116 C 0.2493 0.07805 0.04906 0.0
C117 C 0.2726 0.12476 0.05396 0.0
C118 C 0.17741 0.9327 0.02569 0.0
C119 C 0.18885 0.87939 0.03807 0.0
C120 C 0.20178 0.9793 0.02502 0.0
C121 C 0.23815 0.97372 0.03676 0.0
C122 C 0.24965 0.91984 0.04829 0.0
C123 C 0.22541 0.87348 0.04892 0.0
H124 H 0.21591 0.62324 0.40109 0.0
H125 H 0.16058 0.5974 0.49503 0.0
H126 H 0.25976 0.54893 0.41489 0.0
H127 H 0.2051 0.52171 0.50897 0.0
H128 H 0.27026 0.34626 0.49588 0.0
H129 H 0.22579 0.42393 0.49058 0.0
H130 H 0.3111 0.53497 0.45406 0.0
H131 H 0.35563 0.45686 0.45911 0.0
C132 C 0.21286 0.60131 0.42469 0.0
C133 C 0.18461 0.61649 0.44697 0.0
C134 C 0.23842 0.55901 0.43277 0.0
C135 C 0.23655 0.53009 0.46335 0.0
C136 C 0.20743 0.5434 0.48524 0.0
C137 C 0.18179 0.58645 0.4772 0.0
C138 C 0.27974 0.38763 0.48738 0.0
C139 C 0.31652 0.39524 0.47771 0.0
C140 C 0.25417 0.43223 0.48442 0.0
C141 C 0.26466 0.48548 0.47143 0.0
C142 C 0.30194 0.49412 0.46363 0.0
C143 C 0.32759 0.44958 0.46683 0.0
H144 H 0.66072 0.92399 0.96412 0.0
H145 H 0.7533 0.80879 0.95914 0.0
H146 H 0.70246 1.00581 0.96103 0.0
H147 H 0.79489 0.89031 0.95581 0.0
H148 H 0.8603 0.06074 0.97306 0.0
H149 H 0.82071 0.97773 0.98461 0.0
H150 H 0.74036 0.04267 0.91512 0.0
H151 H 0.77919 0.12397 0.90363 0.0
C152 C 0.68995 0.91613 0.96286 0.0
C153 C 0.70359 0.85988 0.9616 0.0
C154 C 0.71392 0.96295 0.96089 0.0
C155 C 0.75209 0.95464 0.95781 0.0
C156 C 0.76577 0.89837 0.95832 0.0
C157 C 0.74183 0.85162 0.96004 0.0
C158 C 0.83435 0.05678 0.9601 0.0
C159 C 0.82303 0.09914 0.93745 0.0
C160 C 0.8116 0.00945 0.96677 0.0
C161 C 0.77698 1.00409 0.95123 0.0
C162 C 0.7663 0.04598 0.92819 0.0
C163 C 0.78893 0.09249 0.92135 0.0
H164 H 0.73952 0.66502 0.58782 0.0
H165 H 0.68435 0.6282 0.49485 0.0
H166 H 0.78619 0.59472 0.57472 0.0
H167 H 0.73266 0.55931 0.48034 0.0
H168 H 0.80377 0.39482 0.48424 0.0
H169 H 0.75861 0.47064 0.4898 0.0
H170 H 0.83739 0.57315 0.5444 0.0
H171 H 0.88169 0.49506 0.54071 0.0
C172 C 0.73756 0.64201 0.5643 0.0
C173 C 0.70813 0.65214 0.54242 0.0
C174 C 0.76479 0.60199 0.55648 0.0
C175 C 0.76409 0.57142 0.52606 0.0
C176 C 0.73431 0.58133 0.50415 0.0
C177 C 0.70649 0.62089 0.51238 0.0
C178 C 0.81179 0.43407 0.49682 0.0
C179 C 0.84639 0.43857 0.51227 0.0
C180 C 0.78568 0.47791 0.50004 0.0
C181 C 0.7936 0.52812 0.51832 0.0
C182 C 0.82947 0.5345 0.53121 0.0
C183 C 0.85531 0.49007 0.52859 0.0
H184 H 0.32447 0.2279 0.18229 0.0
H185 H 0.44025 0.26255 0.17637 0.0
H186 H 0.32778 0.22984 0.24285 0.0
H187 H 0.4435 0.26963 0.23718 0.0
H188 H 0.44246 0.23697 0.34994 0.0
H189 H 0.44273 0.22849 0.28913 0.0
H190 H 0.33108 0.29177 0.28647 0.0
H191 H 0.33032 0.29528 0.34705 0.0
C192 C 0.35067 0.2361 0.19417 0.0
C193 C 0.3821 0.24499 0.17489 0.0
C194 C 0.35259 0.23814 0.22894 0.0
C195 C 0.38576 0.25137 0.24534 0.0
C196 C 0.41749 0.25882 0.22577 0.0
C197 C 0.41573 0.25492 0.19088 0.0
C198 C 0.41819 0.24936 0.3361 0.0
C199 C 0.38632 0.2665 0.35298 0.0
C200 C 0.41827 0.24467 0.3012 0.0
C201 C 0.38671 0.25847 0.28248 0.0
C202 C 0.35552 0.27854 0.29972 0.0
C203 C 0.35515 0.28147 0.33452 0.0
H204 H 0.13236 0.84938 0.31822 0.0
H205 H 0.07867 0.68577 0.32879 0.0
H206 H 0.12489 0.8436 0.25782 0.0
H207 H 0.07144 0.67973 0.26791 0.0
H208 H 0.12439 0.66216 0.16055 0.0
H209 H 0.11888 0.6689 0.22116 0.0
H210 H 0.07629 0.84086 0.21207 0.0
H211 H 0.08154 0.83401 0.15117 0.0
C212 C 0.11857 0.81244 0.30761 0.0
C213 C 0.10627 0.76783 0.32814 0.0
C214 C 0.11408 0.80935 0.27304 0.0
C215 C 0.09764 0.76121 0.25819 0.0
C216 C 0.08437 0.71722 0.27876 0.0
C217 C 0.08835 0.72075 0.31352 0.0
C218 C 0.11353 0.70123 0.17146 0.0
C219 C 0.10364 0.74774 0.15118 0.0
C220 C 0.11009 0.70486 0.20613 0.0
C221 C 0.09713 0.75535 0.2213 0.0
C222 C 0.08649 0.8015 0.20099 0.0
C223 C 0.08944 0.79756 0.16621 0.0
H224 H 0.64629 0.65089 0.83406 0.0
H225 H 0.58489 0.80781 0.8474 0.0
H226 H 0.63934 0.65864 0.7737 0.0
H227 H 0.57777 0.81541 0.7868 0.0
H228 H 0.62841 0.84761 0.6817 0.0
H229 H 0.62255 0.83536 0.74164 0.0
H230 H 0.59378 0.65765 0.72647 0.0
H231 H 0.59973 0.67004 0.66584 0.0
C232 C 0.631 0.68681 0.82409 0.0
C233 C 0.61645 0.72912 0.84542 0.0
C234 C 0.62673 0.6909 0.78952 0.0
C235 C 0.60804 0.73763 0.77552 0.0
C236 C 0.59255 0.77912 0.79691 0.0
C237 C 0.59658 0.77478 0.83156 0.0
C238 C 0.62046 0.80599 0.69106 0.0
C239 C 0.6148 0.7596 0.66913 0.0
C240 C 0.6168 0.79914 0.72543 0.0
C241 C 0.6077 0.74558 0.73878 0.0
C242 C 0.60103 0.69937 0.71683 0.0
C243 C 0.60429 0.70645 0.68221 0.0
H244 H 0.85729 0.35898 0.65314 0.0
H245 H 0.9479 0.24026 0.64832 0.0
H246 H 0.85742 0.35309 0.71369 0.0
H247 H 0.94675 0.23108 0.70917 0.0
H248 H 0.94738 0.25483 0.8237 0.0
H249 H 0.95537 0.26928 0.76357 0.0
H250 H 0.83791 0.2869 0.75255 0.0
H251 H 0.8305 0.27572 0.81224 0.0
C252 C 0.8774 0.33179 0.66521 0.0
C253 C 0.90245 0.29987 0.64619 0.0
C254 C 0.87724 0.32776 0.69992 0.0
C255 C 0.90141 0.2903 0.71648 0.0
C256 C 0.92778 0.26048 0.69742 0.0
C257 C 0.92848 0.26563 0.66255 0.0
C258 C 0.92342 0.2617 0.80821 0.0
C259 C 0.88837 0.26465 0.82258 0.0
C260 C 0.92792 0.26988 0.77378 0.0
C261 C 0.89737 0.28035 0.75308 0.0
C262 C 0.86227 0.28104 0.76763 0.0
C263 C 0.85791 0.27396 0.8019 0.0
H264 H 0.45709 0.41781 0.0947 0.0
H265 H 0.465 0.34452 0.99577 0.0
H266 H 0.48903 0.50276 0.0762 0.0
H267 H 0.49859 0.42944 0.97723 0.0
H268 H 0.51931 0.61319 0.94455 0.0
H269 H 0.48795 0.52788 0.96458 0.0
H270 H 0.54428 0.54416 0.05919 0.0
H271 H 0.57458 0.63046 0.03942 0.0
C272 C 0.46647 0.41922 0.06907 0.0
C273 C 0.45843 0.37415 0.04672 0.0
C274 C 0.48496 0.46821 0.05842 0.0
C275 C 0.49624 0.47375 0.02505 0.0
C276 C 0.4897 0.42742 0.00297 0.0
C277 C 0.47097 0.3782 0.01368 0.0
C278 C 0.5243 0.59931 0.96992 0.0
C279 C 0.5492 0.62912 0.99048 0.0
C280 C 0.5068 0.54967 0.98124 0.0
C281 C 0.51388 0.52813 0.0134 0.0
C282 C 0.53776 0.55936 0.03439 0.0
C283 C 0.55507 0.60926 0.02313 0.0
H284 H 0.04902 0.66016 0.95518 0.0
H285 H 0.01212 0.62211 0.05499 0.0
H286 H 0.01752 0.57446 0.93429 0.0
H287 H 0.98105 0.53671 0.03422 0.0
H288 H 0.9683 0.35353 0.99292 0.0
H289 H 1.00012 0.44095 0.01117 0.0
H290 H 0.9553 0.53192 0.92683 0.0
H291 H 0.92368 0.4452 0.90879 0.0
C292 C 0.0335 0.63438 0.97252 0.0
C293 C 0.03303 0.64831 0.00674 0.0
C294 C 0.01568 0.58497 0.96061 0.0
C295 C 0.99732 0.54803 0.9827 0.0
C296 C 0.99558 0.56341 0.01664 0.0
C297 C 0.013 0.61295 0.02845 0.0
C298 C 0.96575 0.39197 0.97808 0.0
C299 C 0.94346 0.39235 0.94945 0.0
C300 C 0.98363 0.44224 0.98866 0.0
C301 C 0.98001 0.49369 0.97059 0.0
C302 C 0.95886 0.49319 0.94127 0.0
C303 C 0.94066 0.44337 0.93099 0.0
H304 H 0.53374 0.90475 0.58695 0.0
H305 H 0.55956 0.87916 0.48282 0.0
H306 H 0.50452 0.99505 0.57407 0.0
H307 H 0.52791 0.96842 0.46925 0.0
H308 H 0.50229 0.15677 0.45628 0.0
H309 H 0.53262 0.06703 0.47087 0.0
H310 H 0.45695 0.04592 0.55291 0.0
H311 H 0.42864 0.13703 0.53949 0.0
C312 C 0.53213 0.91753 0.56103 0.0
C313 C 0.54899 0.88434 0.53593 0.0
C314 C 0.5152 0.96979 0.55354 0.0
C315 C 0.51386 0.99029 0.52053 0.0
C316 C 0.52908 0.95539 0.49512 0.0
C317 C 0.54668 0.90341 0.50277 0.0
C318 C 0.49294 0.13362 0.47803 0.0
C319 C 0.46342 0.15466 0.49701 0.0
C320 C 0.50985 0.08136 0.48607 0.0
C321 C 0.49718 0.0479 0.51292 0.0
C322 C 0.46822 0.07015 0.53241 0.0
C323 C 0.45188 0.1229 0.52478 0.0
H324 H 0.99965 0.1972 0.49042 0.0
H325 H 0.91777 0.08535 0.53206 0.0
H326 H 0.03562 0.11333 0.4733 0.0
H327 H 0.95244 1.00218 0.51394 0.0
H328 H 0.03854 0.8605 0.50369 0.0
H329 H 0.00379 0.94437 0.52278 0.0
H330 H 0.03831 0.03717 0.4352 0.0
H331 H 0.07387 0.95468 0.4172 0.0
C332 C 0.98925 0.15481 0.49574 0.0
C333 C 0.95588 0.14821 0.51268 0.0
C334 C 0.00971 0.10648 0.48576 0.0
C335 C 0.99712 0.05031 0.49213 0.0
C336 C 0.96364 0.04421 0.50905 0.0
C337 C 0.94351 0.09227 0.51926 0.0
C338 C 0.03837 0.89873 0.48849 0.0
C339 C 0.059 0.90078 0.45897 0.0
C340 C 0.01842 0.94702 0.49935 0.0
C341 C 0.01827 0.99837 0.48074 0.0
C342 C 0.03828 0.99942 0.45078 0.0
C343 C 0.05845 0.95161 0.44021 0.0
H344 H 0.15161 0.53785 0.03635 0.0
H345 H 0.22181 0.65789 0.98564 0.0
H346 H 0.19512 0.46082 0.02451 0.0
H347 H 0.26621 0.58081 0.9749 0.0
H348 H 0.33676 0.45698 0.05383 0.0
H349 H 0.29564 0.5316 0.03337 0.0
H350 H 0.23742 0.40594 0.97424 0.0
H351 H 0.27993 0.3312 0.99372 0.0
C352 C 0.17597 0.54724 0.02196 0.0
C353 C 0.18394 0.60344 0.01233 0.0
C354 C 0.20052 0.50323 0.01482 0.0
C355 C 0.23369 0.51531 0.99873 0.0
C356 C 0.24048 0.57078 0.98697 0.0
C357 C 0.21534 0.61463 0.99332 0.0
C358 C 0.31585 0.44581 0.03568 0.0
C359 C 0.31085 0.38887 0.02554 0.0
C360 C 0.29274 0.48838 0.02367 0.0
C361 C 0.26376 0.47412 0.00215 0.0
C362 C 0.26001 0.41762 0.99048 0.0
C363 C 0.28399 0.37516 0.00174 0.0
H364 H 0.33115 0.0695 0.41957 0.0
H365 H 0.32403 0.10412 0.52553 0.0
H366 H 0.30351 0.97667 0.42782 0.0
H367 H 0.29667 0.0096 0.53407 0.0
H368 H 0.18996 0.89788 0.50841 0.0
H369 H 0.23671 0.97015 0.5191 0.0
H370 H 0.31007 0.88231 0.45117 0.0
H371 H 0.26236 0.81213 0.43912 0.0
C372 C 0.32401 0.05685 0.44474 0.0
C373 C 0.32912 0.09414 0.47184 0.0
C374 C 0.30873 1.00319 0.4496 0.0
C375 C 0.29833 0.98552 0.48172 0.0
C376 C 0.30447 0.02219 0.50908 0.0
C377 C 0.31986 0.07621 0.50417 0.0
C378 C 0.21659 0.89309 0.49678 0.0
C379 C 0.22255 0.85106 0.47226 0.0
C380 C 0.24346 0.93419 0.50302 0.0
C381 C 0.27655 0.93272 0.48509 0.0
C382 C 0.28432 0.8853 0.46451 0.0
C383 C 0.25718 0.8452 0.45764 0.0
H384 H 0.6794 0.52867 0.93031 0.0
H385 H 0.702 0.59875 0.02834 0.0
H386 H 0.70746 0.43913 0.94622 0.0
H387 H 0.73062 0.50763 0.04458 0.0
H388 H 0.83426 0.38803 0.0095 0.0
H389 H 0.78924 0.46154 0.02379 0.0
H390 H 0.70313 0.35497 0.98311 0.0
H391 H 0.74861 0.28319 0.96715 0.0
C392 C 0.69017 0.52465 0.95543 0.0
C393 C 0.6891 0.57072 0.97794 0.0
C394 C 0.70565 0.47291 0.96482 0.0
C395 C 0.72066 0.46605 0.99691 0.0
C396 C 0.7189 0.51175 0.01983 0.0
C397 C 0.70287 0.56375 0.01047 0.0
C398 C 0.80545 0.3793 0.00526 0.0
C399 C 0.79459 0.33128 0.98662 0.0
C400 C 0.77963 0.4212 0.01355 0.0
C401 C 0.74297 0.41454 0.00344 0.0
C402 C 0.73145 0.36154 0.99036 0.0
C403 C 0.75733 0.32053 0.98127 0.0
H404 H 0.71187 0.94623 0.6008 0.0
H405 H 0.67681 0.9399 0.49766 0.0
H406 H 0.73854 0.03997 0.59172 0.0
H407 H 0.70288 0.03498 0.48867 0.0
H408 H 0.80736 0.15461 0.48433 0.0
H409 H 0.76455 0.075 0.4865 0.0
H410 H 0.72249 0.13905 0.58047 0.0
H411 H 0.76635 0.21761 0.57886 0.0
C412 C 0.70976 0.96512 0.5762 0.0
C413 C 0.69265 0.93583 0.54985 0.0
C414 C 0.72452 0.01916 0.57111 0.0
C415 C 0.72225 0.04512 0.5396 0.0
C416 C 0.70499 0.01587 0.51319 0.0
C417 C 0.69029 0.9615 0.51828 0.0
C418 C 0.78824 0.15254 0.50497 0.0
C419 C 0.79065 0.19111 0.53188 0.0
C420 C 0.76362 0.10709 0.50613 0.0
C421 C 0.74092 0.10018 0.53409 0.0
C422 C 0.74047 0.14265 0.55909 0.0
C423 C 0.76537 0.18767 0.55811 0.0
loop_
_geom_bond_atom_site_label_1
_geom_bond_atom_site_label_2
_geom_bond_distance
_geom_bond_site_symmetry_2
_ccdc_geom_bond_type
In0 O1 2.294 . S
In0 O2 2.326 . S
In0 O6 2.266 . S
In0 O7 2.326 . S
In0 O8 2.266 . S
In0 O9 2.326 . S
In0 O11 2.294 . S
In0 O12 2.326 . S
O1 In0 2.294 . S
O1 C10 1.240 . S
O2 In0 2.326 . S
O2 C10 1.252 . S
C3 O6 1.252 . S
C3 O7 1.260 . S
C4 O11 1.240 . S
C4 O12 1.252 . S
C5 O8 1.252 . S
C5 O9 1.260 . S
O6 In0 2.266 . S
O6 C3 1.252 . S
O7 In0 2.326 . S
O7 C3 1.260 . S
O8 In0 2.266 . S
O8 C5 1.252 . S
O9 In0 2.326 . S
O9 C5 1.260 . S
C10 O1 1.240 . S
C10 O2 1.252 . S
O11 In0 2.294 . S
O11 C4 1.240 . S
O12 In0 2.326 . S
O12 C4 1.252 . S
In13 O14 2.294 . S
In13 O15 2.326 . S
In13 O19 2.266 . S
In13 O20 2.326 . S
In13 O21 2.266 . S
In13 O22 2.326 . S
In13 O24 2.294 . S
In13 O25 2.326 . S
O14 In13 2.294 . S
O14 C23 1.240 . S
O15 In13 2.326 . S
O15 C23 1.252 . S
C16 O19 1.252 . S
C16 O20 1.260 . S
C17 O24 1.240 . S
C17 O25 1.252 . S
C18 O21 1.252 . S
C18 O22 1.260 . S
O19 In13 2.266 . S
O19 C16 1.252 . S
O20 In13 2.326 . S
O20 C16 1.260 . S
O21 In13 2.266 . S
O21 C18 1.252 . S
O22 In13 2.326 . S
O22 C18 1.260 . S
C23 O14 1.240 . S
C23 O15 1.252 . S
O24 In13 2.294 . S
O24 C17 1.240 . S
O25 In13 2.326 . S
O25 C17 1.252 . S
In26 O27 2.294 . S
In26 O28 2.326 . S
In26 O32 2.266 . S
In26 O33 2.326 . S
In26 O34 2.266 . S
In26 O35 2.326 . S
In26 O37 2.294 . S
In26 O38 2.326 . S
O27 In26 2.294 . S
O27 C36 1.240 . S
O28 In26 2.326 . S
O28 C36 1.252 . S
C29 O32 1.252 . S
C29 O33 1.260 . S
C30 O37 1.240 . S
C30 O38 1.252 . S
C31 O34 1.252 . S
C31 O35 1.260 . S
O32 In26 2.266 . S
O32 C29 1.252 . S
O33 In26 2.326 . S
O33 C29 1.260 . S
O34 In26 2.266 . S
O34 C31 1.252 . S
O35 In26 2.326 . S
O35 C31 1.260 . S
C36 O27 1.240 . S
C36 O28 1.252 . S
O37 In26 2.294 . S
O37 C30 1.240 . S
O38 In26 2.326 . S
O38 C30 1.252 . S
In39 O40 2.294 . S
In39 O41 2.326 . S
In39 O45 2.266 . S
In39 O46 2.326 . S
In39 O47 2.266 . S
In39 O48 2.326 . S
In39 O50 2.294 . S
In39 O51 2.326 . S
O40 In39 2.294 . S
O40 C49 1.240 . S
O41 In39 2.326 . S
O41 C49 1.252 . S
C42 O45 1.252 . S
C42 O46 1.260 . S
C43 O50 1.240 . S
C43 O51 1.252 . S
C44 O47 1.252 . S
C44 O48 1.260 . S
O45 In39 2.266 . S
O45 C42 1.252 . S
O46 In39 2.326 . S
O46 C42 1.260 . S
O47 In39 2.266 . S
O47 C44 1.252 . S
O48 In39 2.326 . S
O48 C44 1.260 . S
C49 O40 1.240 . S
C49 O41 1.252 . S
O50 In39 2.294 . S
O50 C43 1.240 . S
O51 In39 2.326 . S
O51 C43 1.252 . S
In52 O53 2.294 . S
In52 O54 2.326 . S
In52 O58 2.266 . S
In52 O59 2.326 . S
In52 O60 2.266 . S
In52 O61 2.326 . S
In52 O63 2.294 . S
In52 O64 2.326 . S
O53 In52 2.294 . S
O53 C62 1.240 . S
O54 In52 2.326 . S
O54 C62 1.252 . S
C55 O58 1.252 . S
C55 O59 1.260 . S
C56 O63 1.240 . S
C56 O64 1.252 . S
C57 O60 1.252 . S
C57 O61 1.260 . S
O58 In52 2.266 . S
O58 C55 1.252 . S
O59 In52 2.326 . S
O59 C55 1.260 . S
O60 In52 2.266 . S
O60 C57 1.252 . S
O61 In52 2.326 . S
O61 C57 1.260 . S
C62 O53 1.240 . S
C62 O54 1.252 . S
O63 In52 2.294 . S
O63 C56 1.240 . S
O64 In52 2.326 . S
O64 C56 1.252 . S
In65 O66 2.294 . S
In65 O67 2.326 . S
In65 O71 2.266 . S
In65 O72 2.326 . S
In65 O73 2.266 . S
In65 O74 2.326 . S
In65 O76 2.294 . S
In65 O77 2.326 . S
O66 In65 2.294 . S
O66 C75 1.240 . S
O67 In65 2.326 . S
O67 C75 1.252 . S
C68 O71 1.252 . S
C68 O72 1.260 . S
C69 O76 1.240 . S
C69 O77 1.252 . S
C70 O73 1.252 . S
C70 O74 1.260 . S
O71 In65 2.266 . S
O71 C68 1.252 . S
O72 In65 2.326 . S
O72 C68 1.260 . S
O73 In65 2.266 . S
O73 C70 1.252 . S
O74 In65 2.326 . S
O74 C70 1.260 . S
C75 O66 1.240 . S
C75 O67 1.252 . S
O76 In65 2.294 . S
O76 C69 1.240 . S
O77 In65 2.326 . S
O77 C69 1.252 . S
In78 O79 2.294 . S
In78 O80 2.326 . S
In78 O84 2.266 . S
In78 O85 2.326 . S
In78 O86 2.266 . S
In78 O87 2.326 . S
In78 O89 2.294 . S
In78 O90 2.326 . S
O79 In78 2.294 . S
O79 C88 1.240 . S
O80 In78 2.326 . S
O80 C88 1.252 . S
C81 O84 1.252 . S
C81 O85 1.260 . S
C82 O89 1.240 . S
C82 O90 1.252 . S
C83 O86 1.252 . S
C83 O87 1.260 . S
O84 In78 2.266 . S
O84 C81 1.252 . S
O85 In78 2.326 . S
O85 C81 1.260 . S
O86 In78 2.266 . S
O86 C83 1.252 . S
O87 In78 2.326 . S
O87 C83 1.260 . S
C88 O79 1.240 . S
C88 O80 1.252 . S
O89 In78 2.294 . S
O89 C82 1.240 . S
O90 In78 2.326 . S
O90 C82 1.252 . S
In91 O92 2.294 . S
In91 O93 2.326 . S
In91 O97 2.266 . S
In91 O98 2.326 . S
In91 O99 2.266 . S
In91 O100 2.326 . S
In91 O102 2.294 . S
In91 O103 2.326 . S
O92 In91 2.294 . S
O92 C101 1.240 . S
O93 In91 2.326 . S
O93 C101 1.252 . S
C94 O97 1.252 . S
C94 O98 1.260 . S
C95 O102 1.240 . S
C95 O103 1.252 . S
C96 O99 1.252 . S
C96 O100 1.260 . S
O97 In91 2.266 . S
O97 C94 1.252 . S
O98 In91 2.326 . S
O98 C94 1.260 . S
O99 In91 2.266 . S
O99 C96 1.252 . S
O100 In91 2.326 . S
O100 C96 1.260 . S
C101 O92 1.240 . S
C101 O93 1.252 . S
O102 In91 2.294 . S
O102 C95 1.240 . S
O103 In91 2.326 . S
O103 C95 1.252 . S
H104 C112 0.950 . S
H105 C117 0.950 . S
H106 C114 0.950 1_565 S
H107 C116 0.950 . S
H108 C118 0.950 . S
H109 C120 0.950 1_545 S
H110 C122 0.950 . S
H111 C123 0.950 . S
C112 H104 0.950 . S
C112 C113 1.386 . S
C112 C114 1.391 . S
C113 C112 1.386 . S
C113 C117 1.393 . S
C114 H106 0.950 1_545 S
C114 C112 1.391 . S
C114 C115 1.400 . S
C115 C114 1.400 . S
C115 C116 1.398 . S
C115 C121 1.491 1_545 S
C116 H107 0.950 . S
C116 C115 1.398 . S
C116 C117 1.391 . S
C117 H105 0.950 . S
C117 C113 1.393 . S
C117 C116 1.391 . S
C118 H108 0.950 . S
C118 C119 1.386 . S
C118 C120 1.391 . S
C119 C118 1.386 . S
C119 C123 1.393 . S
C120 H109 0.950 1_565 S
C120 C118 1.391 . S
C120 C121 1.400 . S
C121 C115 1.491 1_565 S
C121 C120 1.400 . S
C121 C122 1.398 . S
C122 H110 0.950 . S
C122 C121 1.398 . S
C122 C123 1.391 . S
C123 H111 0.950 . S
C123 C119 1.393 . S
C123 C122 1.391 . S
H124 C132 0.950 . S
H125 C137 0.950 . S
H126 C134 0.950 . S
H127 C136 0.950 . S
H128 C138 0.950 . S
H129 C140 0.950 . S
H130 C142 0.950 . S
H131 C143 0.950 . S
C132 H124 0.950 . S
C132 C133 1.386 . S
C132 C134 1.391 . S
C133 C132 1.386 . S
C133 C137 1.393 . S
C134 H126 0.950 . S
C134 C132 1.391 . S
C134 C135 1.400 . S
C135 C134 1.400 . S
C135 C136 1.398 . S
C135 C141 1.491 . S
C136 H127 0.950 . S
C136 C135 1.398 . S
C136 C137 1.391 . S
C137 H125 0.950 . S
C137 C133 1.393 . S
C137 C136 1.391 . S
C138 H128 0.950 . S
C138 C139 1.386 . S
C138 C140 1.391 . S
C139 C138 1.386 . S
C139 C143 1.393 . S
C140 H129 0.950 . S
C140 C138 1.391 . S
C140 C141 1.400 . S
C141 C135 1.491 . S
C141 C140 1.400 . S
C141 C142 1.398 . S
C142 H130 0.950 . S
C142 C141 1.398 . S
C142 C143 1.391 . S
C143 H131 0.950 . S
C143 C139 1.393 . S
C143 C142 1.391 . S
H144 C152 0.950 . S
H145 C157 0.950 . S
H146 C154 0.950 1_545 S
H147 C156 0.950 . S
H148 C158 0.950 . S
H149 C160 0.950 1_565 S
H150 C162 0.950 . S
H151 C163 0.950 . S
C152 H144 0.950 . S
C152 C153 1.386 . S
C152 C154 1.391 . S
C153 C152 1.386 . S
C153 C157 1.393 . S
C154 H146 0.950 1_565 S
C154 C152 1.391 . S
C154 C155 1.400 . S
C155 C154 1.400 . S
C155 C156 1.398 . S
C155 C161 1.491 1_565 S
C156 H147 0.950 . S
C156 C155 1.398 . S
C156 C157 1.391 . S
C157 H145 0.950 . S
C157 C153 1.393 . S
C157 C156 1.391 . S
C158 H148 0.950 . S
C158 C159 1.386 . S
C158 C160 1.391 . S
C159 C158 1.386 . S
C159 C163 1.393 . S
C160 H149 0.950 1_545 S
C160 C158 1.391 . S
C160 C161 1.400 . S
C161 C155 1.491 1_545 S
C161 C160 1.400 . S
C161 C162 1.398 . S
C162 H150 0.950 . S
C162 C161 1.398 . S
C162 C163 1.391 . S
C163 H151 0.950 . S
C163 C159 1.393 . S
C163 C162 1.391 . S
H164 C172 0.950 . S
H165 C177 0.950 . S
H166 C174 0.950 . S
H167 C176 0.950 . S
H168 C178 0.950 . S
H169 C180 0.950 . S
H170 C182 0.950 . S
H171 C183 0.950 . S
C172 H164 0.950 . S
C172 C173 1.386 . S
C172 C174 1.391 . S
C173 C172 1.386 . S
C173 C177 1.393 . S
C174 H166 0.950 . S
C174 C172 1.391 . S
C174 C175 1.400 . S
C175 C174 1.400 . S
C175 C176 1.398 . S
C175 C181 1.491 . S
C176 H167 0.950 . S
C176 C175 1.398 . S
C176 C177 1.391 . S
C177 H165 0.950 . S
C177 C173 1.393 . S
C177 C176 1.391 . S
C178 H168 0.950 . S
C178 C179 1.386 . S
C178 C180 1.391 . S
C179 C178 1.386 . S
C179 C183 1.393 . S
C180 H169 0.950 . S
C180 C178 1.391 . S
C180 C181 1.400 . S
C181 C175 1.491 . S
C181 C180 1.400 . S
C181 C182 1.398 . S
C182 H170 0.950 . S
C182 C181 1.398 . S
C182 C183 1.391 . S
C183 H171 0.950 . S
C183 C179 1.393 . S
C183 C182 1.391 . S
H184 C192 0.950 . S
H185 C197 0.950 . S
H186 C194 0.950 . S
H187 C196 0.950 . S
H188 C198 0.950 . S
H189 C200 0.950 . S
H190 C202 0.950 . S
H191 C203 0.950 . S
C192 H184 0.950 . S
C192 C193 1.386 . S
C192 C194 1.391 . S
C193 C192 1.386 . S
C193 C197 1.393 . S
C194 H186 0.950 . S
C194 C192 1.391 . S
C194 C195 1.400 . S
C195 C194 1.400 . S
C195 C196 1.398 . S
C195 C201 1.491 . S
C196 H187 0.950 . S
C196 C195 1.398 . S
C196 C197 1.391 . S
C197 H185 0.950 . S
C197 C193 1.393 . S
C197 C196 1.391 . S
C198 H188 0.950 . S
C198 C199 1.386 . S
C198 C200 1.391 . S
C199 C198 1.386 . S
C199 C203 1.393 . S
C200 H189 0.950 . S
C200 C198 1.391 . S
C200 C201 1.400 . S
C201 C195 1.491 . S
C201 C200 1.400 . S
C201 C202 1.398 . S
C202 H190 0.950 . S
C202 C201 1.398 . S
C202 C203 1.391 . S
C203 H191 0.950 . S
C203 C199 1.393 . S
C203 C202 1.391 . S
H204 C212 0.950 . S
H205 C217 0.950 . S
H206 C214 0.950 . S
H207 C216 0.950 . S
H208 C218 0.950 . S
H209 C220 0.950 . S
H210 C222 0.950 . S
H211 C223 0.950 . S
C212 H204 0.950 . S
C212 C213 1.386 . S
C212 C214 1.391 . S
C213 C212 1.386 . S
C213 C217 1.393 . S
C214 H206 0.950 . S
C214 C212 1.391 . S
C214 C215 1.400 . S
C215 C214 1.400 . S
C215 C216 1.398 . S
C215 C221 1.491 . S
C216 H207 0.950 . S
C216 C215 1.398 . S
C216 C217 1.391 . S
C217 H205 0.950 . S
C217 C213 1.393 . S
C217 C216 1.391 . S
C218 H208 0.950 . S
C218 C219 1.386 . S
C218 C220 1.391 . S
C219 C218 1.386 . S
C219 C223 1.393 . S
C220 H209 0.950 . S
C220 C218 1.391 . S
C220 C221 1.400 . S
C221 C215 1.491 . S
C221 C220 1.400 . S
C221 C222 1.398 . S
C222 H210 0.950 . S
C222 C221 1.398 . S
C222 C223 1.391 . S
C223 H211 0.950 . S
C223 C219 1.393 . S
C223 C222 1.391 . S
H224 C232 0.950 . S
H225 C237 0.950 . S
H226 C234 0.950 . S
H227 C236 0.950 . S
H228 C238 0.950 . S
H229 C240 0.950 . S
H230 C242 0.950 . S
H231 C243 0.950 . S
C232 H224 0.950 . S
C232 C233 1.386 . S
C232 C234 1.391 . S
C233 C232 1.386 . S
C233 C237 1.393 . S
C234 H226 0.950 . S
C234 C232 1.391 . S
C234 C235 1.400 . S
C235 C234 1.400 . S
C235 C236 1.398 . S
C235 C241 1.491 . S
C236 H227 0.950 . S
C236 C235 1.398 . S
C236 C237 1.391 . S
C237 H225 0.950 . S
C237 C233 1.393 . S
C237 C236 1.391 . S
C238 H228 0.950 . S
C238 C239 1.386 . S
C238 C240 1.391 . S
C239 C238 1.386 . S
C239 C243 1.393 . S
C240 H229 0.950 . S
C240 C238 1.391 . S
C240 C241 1.400 . S
C241 C235 1.491 . S
C241 C240 1.400 . S
C241 C242 1.398 . S
C242 H230 0.950 . S
C242 C241 1.398 . S
C242 C243 1.391 . S
C243 H231 0.950 . S
C243 C239 1.393 . S
C243 C242 1.391 . S
H244 C252 0.950 . S
H245 C257 0.950 . S
H246 C254 0.950 . S
H247 C256 0.950 . S
H248 C258 0.950 . S
H249 C260 0.950 . S
H250 C262 0.950 . S
H251 C263 0.950 . S
C252 H244 0.950 . S
C252 C253 1.386 . S
C252 C254 1.391 . S
C253 C252 1.386 . S
C253 C257 1.393 . S
C254 H246 0.950 . S
C254 C252 1.391 . S
C254 C255 1.400 . S
C255 C254 1.400 . S
C255 C256 1.398 . S
C255 C261 1.491 . S
C256 H247 0.950 . S
C256 C255 1.398 . S
C256 C257 1.391 . S
C257 H245 0.950 . S
C257 C253 1.393 . S
C257 C256 1.391 . S
C258 H248 0.950 . S
C258 C259 1.386 . S
C258 C260 1.391 . S
C259 C258 1.386 . S
C259 C263 1.393 . S
C260 H249 0.950 . S
C260 C258 1.391 . S
C260 C261 1.400 . S
C261 C255 1.491 . S
C261 C260 1.400 . S
C261 C262 1.398 . S
C262 H250 0.950 . S
C262 C261 1.398 . S
C262 C263 1.391 . S
C263 H251 0.950 . S
C263 C259 1.393 . S
C263 C262 1.391 . S
H264 C272 0.950 . S
H265 C277 0.940 1_556 S
H266 C274 0.950 . S
H267 C276 0.950 . S
H268 C278 0.950 . S
H269 C280 0.950 . S
H270 C282 0.950 . S
H271 C283 0.940 1_554 S
C272 H264 0.950 . S
C272 C273 1.386 . S
C272 C274 1.391 . S
C273 C272 1.386 . S
C273 C277 1.412 . S
C274 H266 0.950 . S
C274 C272 1.391 . S
C274 C275 1.400 . S
C275 C274 1.400 . S
C275 C276 1.398 1_554 S
C275 C281 1.491 1_554 S
C276 H267 0.950 . S
C276 C275 1.398 1_556 S
C276 C277 1.383 1_556 S
C277 H265 0.940 1_554 S
C277 C273 1.412 . S
C277 C276 1.383 1_554 S
C278 H268 0.950 . S
C278 C279 1.386 . S
C278 C280 1.391 . S
C279 C278 1.386 . S
C279 C283 1.412 . S
C280 H269 0.950 . S
C280 C278 1.391 . S
C280 C281 1.400 . S
C281 C275 1.491 1_556 S
C281 C280 1.400 . S
C281 C282 1.398 1_556 S
C282 H270 0.950 . S
C282 C281 1.398 1_554 S
C282 C283 1.383 1_554 S
C283 H271 0.940 1_556 S
C283 C279 1.412 . S
C283 C282 1.383 1_556 S
H284 C292 0.950 . S
H285 C297 0.950 . S
H286 C294 0.950 . S
H287 C296 0.950 . S
H288 C298 0.950 . S
H289 C300 0.950 . S
H290 C302 0.950 . S
H291 C303 0.950 . S
C292 H284 0.950 . S
C292 C293 1.386 1_556 S
C292 C294 1.391 . S
C293 C292 1.386 1_554 S
C293 C297 1.393 . S
C294 H286 0.950 . S
C294 C292 1.391 . S
C294 C295 1.400 1_556 S
C295 C294 1.400 1_554 S
C295 C296 1.398 . S
C295 C301 1.491 1_454 S
C296 H287 0.950 . S
C296 C295 1.398 . S
C296 C297 1.391 . S
C297 H285 0.950 . S
C297 C293 1.393 . S
C297 C296 1.391 . S
C298 H288 0.950 . S
C298 C299 1.386 1_554 S
C298 C300 1.391 . S
C299 C298 1.386 1_556 S
C299 C303 1.393 . S
C300 H289 0.950 . S
C300 C298 1.391 . S
C300 C301 1.400 1_554 S
C301 C295 1.491 1_656 S
C301 C300 1.400 1_556 S
C301 C302 1.398 . S
C302 H290 0.950 . S
C302 C301 1.398 . S
C302 C303 1.391 . S
C303 H291 0.950 . S
C303 C299 1.393 . S
C303 C302 1.391 . S
H304 C312 0.950 . S
H305 C317 0.950 . S
H306 C314 0.950 . S
H307 C316 0.950 . S
H308 C318 0.950 . S
H309 C320 0.950 . S
H310 C322 0.950 . S
H311 C323 0.950 . S
C312 H304 0.950 . S
C312 C313 1.386 . S
C312 C314 1.391 . S
C313 C312 1.386 . S
C313 C317 1.393 . S
C314 H306 0.950 . S
C314 C312 1.391 . S
C314 C315 1.400 . S
C315 C314 1.400 . S
C315 C316 1.398 . S
C315 C321 1.491 1_565 S
C316 H307 0.950 . S
C316 C315 1.398 . S
C316 C317 1.391 . S
C317 H305 0.950 . S
C317 C313 1.393 . S
C317 C316 1.391 . S
C318 H308 0.950 . S
C318 C319 1.386 . S
C318 C320 1.391 . S
C319 C318 1.386 . S
C319 C323 1.393 . S
C320 H309 0.950 . S
C320 C318 1.391 . S
C320 C321 1.400 . S
C321 C315 1.491 1_545 S
C321 C320 1.400 . S
C321 C322 1.398 . S
C322 H310 0.950 . S
C322 C321 1.398 . S
C322 C323 1.391 . S
C323 H311 0.950 . S
C323 C319 1.393 . S
C323 C322 1.391 . S
H324 C332 0.944 1_455 S
H325 C337 0.950 . S
H326 C334 0.950 . S
H327 C336 0.950 1_565 S
H328 C338 0.944 1_655 S
H329 C340 0.950 . S
H330 C342 0.950 1_545 S
H331 C343 0.950 . S
C332 H324 0.944 1_655 S
C332 C333 1.386 . S
C332 C334 1.391 1_655 S
C333 C332 1.386 . S
C333 C337 1.393 . S
C334 H326 0.950 . S
C334 C332 1.391 1_455 S
C334 C335 1.400 1_455 S
C335 C334 1.400 1_655 S
C335 C336 1.398 . S
C335 C341 1.491 1_645 S
C336 H327 0.950 1_545 S
C336 C335 1.398 . S
C336 C337 1.391 . S
C337 H325 0.950 . S
C337 C333 1.393 . S
C337 C336 1.391 . S
C338 H328 0.944 1_455 S
C338 C339 1.386 . S
C338 C340 1.391 1_455 S
C339 C338 1.386 . S
C339 C343 1.393 . S
C340 H329 0.950 . S
C340 C338 1.391 1_655 S
C340 C341 1.400 1_655 S
C341 C335 1.491 1_465 S
C341 C340 1.400 1_455 S
C341 C342 1.398 . S
C342 H330 0.950 1_565 S
C342 C341 1.398 . S
C342 C343 1.391 . S
C343 H331 0.950 . S
C343 C339 1.393 . S
C343 C342 1.391 . S
H344 C352 0.950 . S
H345 C357 0.950 . S
H346 C354 0.950 . S
H347 C356 0.950 . S
H348 C358 0.950 . S
H349 C360 0.950 . S
H350 C362 0.950 . S
H351 C363 0.950 . S
C352 H344 0.950 . S
C352 C353 1.386 . S
C352 C354 1.391 . S
C353 C352 1.386 . S
C353 C357 1.393 . S
C354 H346 0.950 . S
C354 C352 1.391 . S
C354 C355 1.400 . S
C355 C354 1.400 . S
C355 C356 1.398 . S
C355 C361 1.491 . S
C356 H347 0.950 . S
C356 C355 1.398 . S
C356 C357 1.391 . S
C357 H345 0.950 . S
C357 C353 1.393 . S
C357 C356 1.391 . S
C358 H348 0.950 . S
C358 C359 1.386 . S
C358 C360 1.391 . S
C359 C358 1.386 . S
C359 C363 1.393 . S
C360 H349 0.950 . S
C360 C358 1.391 . S
C360 C361 1.400 . S
C361 C355 1.491 . S
C361 C360 1.400 . S
C361 C362 1.398 . S
C362 H350 0.950 . S
C362 C361 1.398 . S
C362 C363 1.391 . S
C363 H351 0.950 . S
C363 C359 1.393 . S
C363 C362 1.391 . S
H364 C372 0.950 . S
H365 C377 0.950 . S
H366 C374 0.950 1_565 S
H367 C376 0.950 . S
H368 C378 0.950 . S
H369 C380 0.950 1_545 S
H370 C382 0.950 . S
H371 C383 0.950 . S
C372 H364 0.950 . S
C372 C373 1.386 . S
C372 C374 1.391 . S
C373 C372 1.386 . S
C373 C377 1.393 . S
C374 H366 0.950 1_545 S
C374 C372 1.391 . S
C374 C375 1.400 . S
C375 C374 1.400 . S
C375 C376 1.398 . S
C375 C381 1.491 1_545 S
C376 H367 0.950 . S
C376 C375 1.398 . S
C376 C377 1.391 . S
C377 H365 0.950 . S
C377 C373 1.393 . S
C377 C376 1.391 . S
C378 H368 0.950 . S
C378 C379 1.386 . S
C378 C380 1.391 . S
C379 C378 1.386 . S
C379 C383 1.393 . S
C380 H369 0.950 1_565 S
C380 C378 1.391 . S
C380 C381 1.400 . S
C381 C375 1.491 1_565 S
C381 C380 1.400 . S
C381 C382 1.398 . S
C382 H370 0.950 . S
C382 C381 1.398 . S
C382 C383 1.391 . S
C383 H371 0.950 . S
C383 C379 1.393 . S
C383 C382 1.391 . S
H384 C392 0.950 . S
H385 C397 0.950 . S
H386 C394 0.950 . S
H387 C396 0.950 . S
H388 C398 0.950 . S
H389 C400 0.950 . S
H390 C402 0.950 . S
H391 C403 0.950 . S
C392 H384 0.950 . S
C392 C393 1.386 . S
C392 C394 1.391 . S
C393 C392 1.386 . S
C393 C397 1.393 . S
C394 H386 0.950 . S
C394 C392 1.391 . S
C394 C395 1.400 . S
C395 C394 1.400 . S
C395 C396 1.398 . S
C395 C401 1.491 . S
C396 H387 0.950 . S
C396 C395 1.398 . S
C396 C397 1.391 . S
C397 H385 0.950 . S
C397 C393 1.393 . S
C397 C396 1.391 . S
C398 H388 0.950 . S
C398 C399 1.386 . S
C398 C400 1.391 . S
C399 C398 1.386 . S
C399 C403 1.393 . S
C400 H389 0.950 . S
C400 C398 1.391 . S
C400 C401 1.400 . S
C401 C395 1.491 . S
C401 C400 1.400 . S
C401 C402 1.398 . S
C402 H390 0.950 . S
C402 C401 1.398 . S
C402 C403 1.391 . S
C403 H391 0.950 . S
C403 C399 1.393 . S
C403 C402 1.391 . S
H404 C412 0.950 . S
H405 C417 0.950 . S
H406 C414 0.950 . S
H407 C416 0.950 . S
H408 C418 0.950 . S
H409 C420 0.950 . S
H410 C422 0.950 . S
H411 C423 0.950 . S
C412 H404 0.950 . S
C412 C413 1.386 . S
C412 C414 1.391 . S
C413 C412 1.386 . S
C413 C417 1.393 . S
C414 H406 0.950 . S
C414 C412 1.391 . S
C414 C415 1.400 . S
C415 C414 1.400 . S
C415 C416 1.398 . S
C415 C421 1.491 1_565 S
C416 H407 0.950 . S
C416 C415 1.398 . S
C416 C417 1.391 . S
C417 H405 0.950 . S
C417 C413 1.393 . S
C417 C416 1.391 . S
C418 H408 0.950 . S
C418 C419 1.386 . S
C418 C420 1.391 . S
C419 C418 1.386 . S
C419 C423 1.393 . S
C420 H409 0.950 . S
C420 C418 1.391 . S
C420 C421 1.400 . S
C421 C415 1.491 1_545 S
C421 C420 1.400 . S
C421 C422 1.398 . S
C422 H410 0.950 . S
C422 C421 1.398 . S
C422 C423 1.391 . S
C423 H411 0.950 . S
C423 C419 1.393 . S
C423 C422 1.391 . S
C113 C4 1.788 . S
C119 C23 1.796 . S
C133 C49 1.799 . S
C139 C36 1.794 . S
C153 C56 1.799 . S
C159 C75 1.792 . S
C173 C88 1.793 . S
C179 C95 1.799 . S
C193 C10 1.750 . S
C199 C30 1.747 . S
C213 C43 1.736 . S
C219 C17 1.748 . S
C233 C62 1.751 . S
C239 C82 1.744 . S
C253 C101 1.732 . S
C259 C69 1.737 . S
C273 C5 1.388 . S
C279 C57 1.388 . S
C293 C16 1.370 . S
C299 C68 1.370 . S
C313 C81 1.367 . S
C319 C29 1.367 . S
C333 C96 1.373 . S
C339 C42 1.373 . S
C353 C18 0.922 . S
C359 C3 0.896 . S
C373 C31 0.922 . S
C379 C44 0.896 . S
C393 C55 0.897 . S
C399 C70 0.922 . S
C413 C83 0.908 . S
C419 C94 0.913 . S
