# Generated by pormake.
# Topology ukn, (4)-cn, num edge types: 1
# Building blocks:
#     Node 0, Type 0, BuildingBlock: CEKHIL_clean_sbu_0, # of connection points: 4
#     Node 1, Type 0, BuildingBlock: CEKHIL_clean_sbu_0, # of connection points: 4
#     Node 2, Type 0, BuildingBlock: CEKHIL_clean_sbu_0, # of connection points: 4
#     Node 3, Type 0, BuildingBlock: CEKHIL_clean_sbu_0, # of connection points: 4
#     Node 4, Type 0, BuildingBlock: CEKHIL_clean_sbu_0, # of connection points: 4
#     Node 5, Type 0, BuildingBlock: CEKHIL_clean_sbu_0, # of connection points: 4
#     Node 6, Type 0, BuildingBlock: CEKHIL_clean_sbu_0, # of connection points: 4
#     Node 7, Type 0, BuildingBlock: CEKHIL_clean_sbu_0, # of connection points: 4
#     Node 8, Type 0, BuildingBlock: CEKHIL_clean_sbu_0, # of connection points: 4
#     Node 9, Type 0, BuildingBlock: CEKHIL_clean_sbu_0, # of connection points: 4
#     Node 10, Type 0, BuildingBlock: CEKHIL_clean_sbu_0, # of connection points: 4
#     Node 11, Type 0, BuildingBlock: CEKHIL_clean_sbu_0, # of connection points: 4
#     Node 12, Type 0, BuildingBlock: CEKHIL_clean_sbu_0, # of connection points: 4
#     Node 13, Type 0, BuildingBlock: CEKHIL_clean_sbu_0, # of connection points: 4
#     Node 14, Type 0, BuildingBlock: CEKHIL_clean_sbu_0, # of connection points: 4
#     Node 15, Type 0, BuildingBlock: CEKHIL_clean_sbu_0, # of connection points: 4
#     Node 16, Type 0, BuildingBlock: CEKHIL_clean_sbu_0, # of connection points: 4
#     Node 17, Type 0, BuildingBlock: CEKHIL_clean_sbu_0, # of connection points: 4
#     Node 18, Type 0, BuildingBlock: CEKHIL_clean_sbu_0, # of connection points: 4
#     Node 19, Type 0, BuildingBlock: CEKHIL_clean_sbu_0, # of connection points: 4
#     Node 20, Type 0, BuildingBlock: CEKHIL_clean_sbu_0, # of connection points: 4
#     Node 21, Type 0, BuildingBlock: CEKHIL_clean_sbu_0, # of connection points: 4
#     Node 22, Type 0, BuildingBlock: CEKHIL_clean_sbu_0, # of connection points: 4
#     Node 23, Type 0, BuildingBlock: CEKHIL_clean_sbu_0, # of connection points: 4
#     Node 24, Type 0, BuildingBlock: CEKHIL_clean_sbu_0, # of connection points: 4
#     Node 25, Type 0, BuildingBlock: CEKHIL_clean_sbu_0, # of connection points: 4
#     Node 26, Type 0, BuildingBlock: CEKHIL_clean_sbu_0, # of connection points: 4
#     Node 27, Type 0, BuildingBlock: CEKHIL_clean_sbu_0, # of connection points: 4
#     Node 28, Type 0, BuildingBlock: CEKHIL_clean_sbu_0, # of connection points: 4
#     Node 29, Type 0, BuildingBlock: CEKHIL_clean_sbu_0, # of connection points: 4
#     Node 30, Type 0, BuildingBlock: CEKHIL_clean_sbu_0, # of connection points: 4
#     Node 31, Type 0, BuildingBlock: CEKHIL_clean_sbu_0, # of connection points: 4
#     Node 32, Type 0, BuildingBlock: CEKHIL_clean_sbu_0, # of connection points: 4
#     Node 33, Type 0, BuildingBlock: CEKHIL_clean_sbu_0, # of connection points: 4
#     Node 34, Type 0, BuildingBlock: CEKHIL_clean_sbu_0, # of connection points: 4
#     Node 35, Type 0, BuildingBlock: CEKHIL_clean_sbu_0, # of connection points: 4
#     Edge 36, Type (0, 0), BuildingBlock: XIVTED_clean_linker_0, # of connection points: 2
#     Edge 37, Type (0, 0), BuildingBlock: XIVTED_clean_linker_0, # of connection points: 2
#     Edge 38, Type (0, 0), BuildingBlock: XIVTED_clean_linker_0, # of connection points: 2
#     Edge 39, Type (0, 0), BuildingBlock: XIVTED_clean_linker_0, # of connection points: 2
#     Edge 40, Type (0, 0), BuildingBlock: XIVTED_clean_linker_0, # of connection points: 2
#     Edge 41, Type (0, 0), BuildingBlock: XIVTED_clean_linker_0, # of connection points: 2
#     Edge 42, Type (0, 0), BuildingBlock: XIVTED_clean_linker_0, # of connection points: 2
#     Edge 43, Type (0, 0), BuildingBlock: XIVTED_clean_linker_0, # of connection points: 2
#     Edge 44, Type (0, 0), BuildingBlock: XIVTED_clean_linker_0, # of connection points: 2
#     Edge 45, Type (0, 0), BuildingBlock: XIVTED_clean_linker_0, # of connection points: 2
#     Edge 46, Type (0, 0), BuildingBlock: XIVTED_clean_linker_0, # of connection points: 2
#     Edge 47, Type (0, 0), BuildingBlock: XIVTED_clean_linker_0, # of connection points: 2
#     Edge 48, Type (0, 0), BuildingBlock: XIVTED_clean_linker_0, # of connection points: 2
#     Edge 49, Type (0, 0), BuildingBlock: XIVTED_clean_linker_0, # of connection points: 2
#     Edge 50, Type (0, 0), BuildingBlock: XIVTED_clean_linker_0, # of connection points: 2
#     Edge 51, Type (0, 0), BuildingBlock: XIVTED_clean_linker_0, # of connection points: 2
#     Edge 52, Type (0, 0), BuildingBlock: XIVTED_clean_linker_0, # of connection points: 2
#     Edge 53, Type (0, 0), BuildingBlock: XIVTED_clean_linker_0, # of connection points: 2
#     Edge 54, Type (0, 0), BuildingBlock: XIVTED_clean_linker_0, # of connection points: 2
#     Edge 55, Type (0, 0), BuildingBlock: XIVTED_clean_linker_0, # of connection points: 2
#     Edge 56, Type (0, 0), BuildingBlock: XIVTED_clean_linker_0, # of connection points: 2
#     Edge 57, Type (0, 0), BuildingBlock: XIVTED_clean_linker_0, # of connection points: 2
#     Edge 58, Type (0, 0), BuildingBlock: XIVTED_clean_linker_0, # of connection points: 2
#     Edge 59, Type (0, 0), BuildingBlock: XIVTED_clean_linker_0, # of connection points: 2
#     Edge 60, Type (0, 0), BuildingBlock: XIVTED_clean_linker_0, # of connection points: 2
#     Edge 61, Type (0, 0), BuildingBlock: XIVTED_clean_linker_0, # of connection points: 2
#     Edge 62, Type (0, 0), BuildingBlock: XIVTED_clean_linker_0, # of connection points: 2
#     Edge 63, Type (0, 0), BuildingBlock: XIVTED_clean_linker_0, # of connection points: 2
#     Edge 64, Type (0, 0), BuildingBlock: XIVTED_clean_linker_0, # of connection points: 2
#     Edge 65, Type (0, 0), BuildingBlock: XIVTED_clean_linker_0, # of connection points: 2
#     Edge 66, Type (0, 0), BuildingBlock: XIVTED_clean_linker_0, # of connection points: 2
#     Edge 67, Type (0, 0), BuildingBlock: XIVTED_clean_linker_0, # of connection points: 2
#     Edge 68, Type (0, 0), BuildingBlock: XIVTED_clean_linker_0, # of connection points: 2
#     Edge 69, Type (0, 0), BuildingBlock: XIVTED_clean_linker_0, # of connection points: 2
#     Edge 70, Type (0, 0), BuildingBlock: XIVTED_clean_linker_0, # of connection points: 2
#     Edge 71, Type (0, 0), BuildingBlock: XIVTED_clean_linker_0, # of connection points: 2
#     Edge 72, Type (0, 0), BuildingBlock: XIVTED_clean_linker_0, # of connection points: 2
#     Edge 73, Type (0, 0), BuildingBlock: XIVTED_clean_linker_0, # of connection points: 2
#     Edge 74, Type (0, 0), BuildingBlock: XIVTED_clean_linker_0, # of connection points: 2
#     Edge 75, Type (0, 0), BuildingBlock: XIVTED_clean_linker_0, # of connection points: 2
#     Edge 76, Type (0, 0), BuildingBlock: XIVTED_clean_linker_0, # of connection points: 2
#     Edge 77, Type (0, 0), BuildingBlock: XIVTED_clean_linker_0, # of connection points: 2
#     Edge 78, Type (0, 0), BuildingBlock: XIVTED_clean_linker_0, # of connection points: 2
#     Edge 79, Type (0, 0), BuildingBlock: XIVTED_clean_linker_0, # of connection points: 2
#     Edge 80, Type (0, 0), BuildingBlock: XIVTED_clean_linker_0, # of connection points: 2
#     Edge 81, Type (0, 0), BuildingBlock: XIVTED_clean_linker_0, # of connection points: 2
#     Edge 82, Type (0, 0), BuildingBlock: XIVTED_clean_linker_0, # of connection points: 2
#     Edge 83, Type (0, 0), BuildingBlock: XIVTED_clean_linker_0, # of connection points: 2
#     Edge 84, Type (0, 0), BuildingBlock: XIVTED_clean_linker_0, # of connection points: 2
#     Edge 85, Type (0, 0), BuildingBlock: XIVTED_clean_linker_0, # of connection points: 2
#     Edge 86, Type (0, 0), BuildingBlock: XIVTED_clean_linker_0, # of connection points: 2
#     Edge 87, Type (0, 0), BuildingBlock: XIVTED_clean_linker_0, # of connection points: 2
#     Edge 88, Type (0, 0), BuildingBlock: XIVTED_clean_linker_0, # of connection points: 2
#     Edge 89, Type (0, 0), BuildingBlock: XIVTED_clean_linker_0, # of connection points: 2
#     Edge 90, Type (0, 0), BuildingBlock: XIVTED_clean_linker_0, # of connection points: 2
#     Edge 91, Type (0, 0), BuildingBlock: XIVTED_clean_linker_0, # of connection points: 2
#     Edge 92, Type (0, 0), BuildingBlock: XIVTED_clean_linker_0, # of connection points: 2
#     Edge 93, Type (0, 0), BuildingBlock: XIVTED_clean_linker_0, # of connection points: 2
#     Edge 94, Type (0, 0), BuildingBlock: XIVTED_clean_linker_0, # of connection points: 2
#     Edge 95, Type (0, 0), BuildingBlock: XIVTED_clean_linker_0, # of connection points: 2
#     Edge 96, Type (0, 0), BuildingBlock: XIVTED_clean_linker_0, # of connection points: 2
#     Edge 97, Type (0, 0), BuildingBlock: XIVTED_clean_linker_0, # of connection points: 2
#     Edge 98, Type (0, 0), BuildingBlock: XIVTED_clean_linker_0, # of connection points: 2
#     Edge 99, Type (0, 0), BuildingBlock: XIVTED_clean_linker_0, # of connection points: 2
#     Edge 100, Type (0, 0), BuildingBlock: XIVTED_clean_linker_0, # of connection points: 2
#     Edge 101, Type (0, 0), BuildingBlock: XIVTED_clean_linker_0, # of connection points: 2
#     Edge 102, Type (0, 0), BuildingBlock: XIVTED_clean_linker_0, # of connection points: 2
#     Edge 103, Type (0, 0), BuildingBlock: XIVTED_clean_linker_0, # of connection points: 2
#     Edge 104, Type (0, 0), BuildingBlock: XIVTED_clean_linker_0, # of connection points: 2
#     Edge 105, Type (0, 0), BuildingBlock: XIVTED_clean_linker_0, # of connection points: 2
#     Edge 106, Type (0, 0), BuildingBlock: XIVTED_clean_linker_0, # of connection points: 2
#     Edge 107, Type (0, 0), BuildingBlock: XIVTED_clean_linker_0, # of connection points: 2
# Relax obj value: 0.077
# Max RMSD: 0.097
# Mean RMSD: 0.097
data_MOF--net-ukn--node1-CEKHIL_clean_sbu_0--edge1-XIVTED_clean_linker_0
_symmetry_space_group_name_H-M    P1
_symmetry_Int_Tables_number       1
_symmetry_cell_setting            triclinic
loop_
_symmetry_equiv_pos_as_xyz
'x, y, z'
_cell_length_a     105.34673
_cell_length_b     105.3112
_cell_length_c     26.859105
_cell_angle_alpha  89.963752
_cell_angle_beta   90.066164
_cell_angle_gamma 120.06229
loop_
_atom_site_label
_atom_site_type_symbol
_atom_site_fract_x
_atom_site_fract_y
_atom_site_fract_z
_atom_type_partial_charge
Co0 Co 0.08425 0.30373 0.07979 0.0
O1 O 0.0659 0.30289 0.06725 0.0
O2 O 0.07017 0.28474 0.05183 0.0
C3 C 0.08753 0.31385 0.15605 0.0
O4 O 0.10174 0.30047 0.08948 0.0
Co5 Co 0.11286 0.33367 0.09944 0.0
O6 O 0.1199 0.32072 0.12579 0.0
C7 C 0.10014 0.32574 -0.00195 0.0
C8 C 0.06104 0.28967 0.05086 0.0
C9 C 0.11417 0.30736 0.11228 0.0
O10 O 0.0913 0.31239 0.01149 0.0
O11 O 0.10858 0.33586 0.0284 0.0
O12 O 0.07937 0.2997 0.15096 0.0
O13 O 0.09248 0.32113 0.11547 0.0
Co14 Co 0.71172 0.7834 0.08015 0.0
O15 O 0.71256 0.7658 0.07046 0.0
O16 O 0.73063 0.78813 0.05269 0.0
C17 C 0.7016 0.77739 0.15646 0.0
O18 O 0.715 0.80419 0.08687 0.0
Co19 Co 0.68173 0.78214 0.09667 0.0
O20 O 0.69465 0.80244 0.12089 0.0
C21 C 0.68954 0.77545 -0.00172 0.0
C22 C 0.72571 0.77406 0.05325 0.0
C23 C 0.70808 0.80991 0.10806 0.0
O24 O 0.70305 0.78101 0.01159 0.0
O25 O 0.67934 0.77381 0.02806 0.0
O26 O 0.71575 0.78329 0.15168 0.0
O27 O 0.69433 0.77459 0.11567 0.0
Co28 Co 0.23439 0.9325 0.08124 0.0
O29 O 0.25166 0.95137 0.07408 0.0
O30 O 0.22927 0.94668 0.05558 0.0
C31 C 0.24027 0.92793 0.15722 0.0
O32 O 0.21388 0.91429 0.08595 0.0
Co33 Co 0.2373 0.9045 0.09382 0.0
O34 O 0.21668 0.89585 0.11612 0.0
C35 C 0.24327 0.91974 -0.00301 0.0
C36 C 0.24325 0.95617 0.05791 0.0
C37 C 0.20867 0.90133 0.10465 0.0
O38 O 0.23729 0.92715 0.01181 0.0
O39 O 0.24549 0.91129 0.02552 0.0
O40 O 0.23399 0.93584 0.15313 0.0
O41 O 0.24358 0.92414 0.116 0.0
Co42 Co 0.30694 0.08192 0.89288 0.0
O43 O 0.30637 0.06377 0.90726 0.0
O44 O 0.28815 0.06798 0.92219 0.0
C45 C 0.31669 0.08465 0.8162 0.0
O46 O 0.30338 0.09914 0.88172 0.0
Co47 Co 0.33659 0.11056 0.87092 0.0
O48 O 0.32342 0.11737 0.84473 0.0
C49 C 0.32922 0.09857 0.97324 0.0
C50 C 0.29321 0.05897 0.92417 0.0
C51 C 0.31009 0.11152 0.85857 0.0
O52 O 0.31584 0.08961 0.96045 0.0
O53 O 0.33922 0.10682 0.94225 0.0
O54 O 0.3026 0.07637 0.82232 0.0
O55 O 0.32418 0.09003 0.85621 0.0
Co56 Co 0.93412 0.22717 0.89313 0.0
O57 O 0.95202 0.24516 0.90604 0.0
O58 O 0.94871 0.22308 0.92157 0.0
C59 C 0.93071 0.2338 0.81672 0.0
O60 O 0.91727 0.20607 0.88298 0.0
Co61 Co 0.9048 0.22694 0.87226 0.0
O62 O 0.89886 0.20729 0.84488 0.0
C63 C 0.91727 0.23218 0.97416 0.0
C64 C 0.9574 0.23725 0.92242 0.0
C65 C 0.90501 0.20012 0.85899 0.0
O66 O 0.92664 0.22833 0.96113 0.0
O67 O 0.90856 0.2333 0.94348 0.0
O68 O 0.93933 0.22837 0.82225 0.0
O69 O 0.92534 0.23572 0.85701 0.0
Co70 Co 0.78595 0.70898 0.89077 0.0
O71 O 0.76865 0.71064 0.89389 0.0
O72 O 0.79087 0.72821 0.91564 0.0
C73 C 0.78142 0.69856 0.8148 0.0
O74 O 0.80644 0.7114 0.89117 0.0
Co75 Co 0.78336 0.67815 0.88197 0.0
O76 O 0.80483 0.68985 0.87085 0.0
C77 C 0.77548 0.68729 0.97513 0.0
C78 C 0.77695 0.72377 0.91135 0.0
C79 C 0.81226 0.70353 0.8803 0.0
O80 O 0.78195 0.70072 0.96025 0.0
O81 O 0.77355 0.6766 0.94733 0.0
O82 O 0.78758 0.71276 0.81873 0.0
O83 O 0.77736 0.6914 0.85593 0.0
Co84 Co 0.93627 0.71106 0.89082 0.0
O85 O 0.95534 0.71304 0.89551 0.0
O86 O 0.95026 0.73024 0.91754 0.0
C87 C 0.93126 0.70111 0.81402 0.0
O88 O 0.91789 0.71299 0.88988 0.0
Co89 Co 0.90835 0.6801 0.87736 0.0
O90 O 0.89916 0.69196 0.8596 0.0
C91 C 0.92407 0.68878 0.97364 0.0
C92 C 0.95992 0.72603 0.91363 0.0
C93 C 0.90473 0.70532 0.87288 0.0
O94 O 0.9315 0.70227 0.95959 0.0
O95 O 0.91542 0.6783 0.9448 0.0
O96 O 0.93901 0.71531 0.81896 0.0
O97 O 0.92786 0.69374 0.85472 0.0
Co98 Co 0.30532 0.22825 0.89366 0.0
O99 O 0.3045 0.24583 0.90411 0.0
O100 O 0.28625 0.22348 0.92027 0.0
C101 C 0.31567 0.23464 0.81776 0.0
O102 O 0.30217 0.20751 0.88569 0.0
Co103 Co 0.3356 0.22999 0.8782 0.0
O104 O 0.32292 0.20973 0.85329 0.0
C105 C 0.32702 0.23549 0.97703 0.0
C106 C 0.29122 0.23756 0.92011 0.0
C107 C 0.30942 0.20204 0.86506 0.0
O108 O 0.31363 0.23015 0.96262 0.0
O109 O 0.33747 0.23752 0.94779 0.0
O110 O 0.30152 0.22877 0.82222 0.0
O111 O 0.32284 0.23729 0.85875 0.0
Co112 Co 0.78713 0.08076 0.89133 0.0
O113 O 0.7695 0.06245 0.90339 0.0
O114 O 0.79188 0.0666 0.91908 0.0
C115 C 0.78049 0.08429 0.81515 0.0
O116 O 0.80795 0.09812 0.88219 0.0
Co117 Co 0.78613 0.10956 0.87271 0.0
O118 O 0.80624 0.11665 0.84728 0.0
C119 C 0.78062 0.09622 0.97309 0.0
C120 C 0.7778 0.05753 0.91987 0.0
C121 C 0.81368 0.11068 0.86025 0.0
O122 O 0.7855 0.0877 0.95968 0.0
O123 O 0.77893 0.10468 0.9429 0.0
O124 O 0.78632 0.07599 0.82014 0.0
O125 O 0.77815 0.0892 0.85579 0.0
Co126 Co 0.71293 0.93112 0.08033 0.0
O127 O 0.71327 0.94932 0.07023 0.0
O128 O 0.73162 0.94561 0.05188 0.0
C129 C 0.70325 0.92715 0.15738 0.0
O130 O 0.71665 0.91388 0.08741 0.0
Co131 Co 0.68331 0.90209 0.09865 0.0
O132 O 0.69664 0.89532 0.12337 0.0
C133 C 0.69069 0.91562 -0.0014 0.0
C134 C 0.72643 0.95453 0.05284 0.0
C135 C 0.70999 0.90134 0.10959 0.0
O136 O 0.70404 0.9244 0.01213 0.0
O137 O 0.68068 0.90683 0.02857 0.0
O138 O 0.71732 0.93567 0.15142 0.0
O139 O 0.69572 0.92234 0.11713 0.0
Co140 Co 0.08523 0.78434 0.07971 0.0
O141 O 0.06632 0.76726 0.07119 0.0
O142 O 0.07151 0.78979 0.05205 0.0
C143 C 0.08915 0.7784 0.15649 0.0
O144 O 0.10361 0.80467 0.08539 0.0
Co145 Co 0.11271 0.78074 0.09526 0.0
O146 O 0.12158 0.80142 0.11747 0.0
C147 C 0.09821 0.77507 -0.00281 0.0
C148 C 0.06187 0.77584 0.05362 0.0
C149 C 0.1164 0.80964 0.10516 0.0
O150 O 0.09095 0.78131 0.01108 0.0
O151 O 0.10629 0.77259 0.02663 0.0
O152 O 0.08146 0.78488 0.15119 0.0
O153 O 0.09305 0.7749 0.11589 0.0
Co154 Co 0.23162 0.3043 0.0789 0.0
O155 O 0.24921 0.30355 0.06758 0.0
O156 O 0.22684 0.2853 0.05153 0.0
C157 C 0.2381 0.31448 0.15515 0.0
O158 O 0.21086 0.301 0.08759 0.0
Co159 Co 0.23311 0.33438 0.09564 0.0
O160 O 0.21298 0.32156 0.12135 0.0
C161 C 0.23858 0.32614 -0.00389 0.0
C162 C 0.24093 0.29031 0.05119 0.0
C163 C 0.20535 0.30808 0.10916 0.0
O164 O 0.23339 0.31274 0.01022 0.0
O165 O 0.24049 0.33649 0.02569 0.0
O166 O 0.23226 0.30034 0.15012 0.0
O167 O 0.24066 0.32176 0.11442 0.0
Co168 Co 0.75124 0.63636 0.41167 0.0
O169 O 0.73265 0.63541 0.40502 0.0
O170 O 0.73687 0.61756 0.38356 0.0
C171 C 0.75605 0.64595 0.4889 0.0
O172 O 0.76895 0.6333 0.41491 0.0
Co173 Co 0.77989 0.66657 0.42712 0.0
O174 O 0.78772 0.65377 0.44805 0.0
C175 C 0.76466 0.65893 0.33009 0.0
C176 C 0.72768 0.62239 0.38643 0.0
C177 C 0.78182 0.64038 0.43465 0.0
O178 O 0.75686 0.6454 0.34338 0.0
O179 O 0.77347 0.66912 0.35953 0.0
O180 O 0.74771 0.63184 0.48317 0.0
O181 O 0.76006 0.65351 0.44856 0.0
Co182 Co 0.37975 0.11792 0.41414 0.0
O183 O 0.38154 0.10111 0.3989 0.0
O184 O 0.39889 0.1241 0.38509 0.0
C185 C 0.37004 0.11019 0.49046 0.0
O186 O 0.38181 0.13805 0.42632 0.0
Co187 Co 0.34889 0.11423 0.43502 0.0
O188 O 0.36083 0.13448 0.46119 0.0
C189 C 0.3573 0.11071 0.3332 0.0
C190 C 0.39454 0.11017 0.38208 0.0
C191 C 0.37419 0.1428 0.4487 0.0
O192 O 0.37083 0.11642 0.34642 0.0
O193 O 0.34688 0.10775 0.36389 0.0
O194 O 0.3842 0.11685 0.48467 0.0
O195 O 0.36252 0.10764 0.45028 0.0
Co196 Co 0.90009 0.26633 0.41409 0.0
O197 O 0.91737 0.28504 0.40439 0.0
O198 O 0.89488 0.28032 0.38729 0.0
C199 C 0.90654 0.26255 0.49031 0.0
O200 O 0.87957 0.2483 0.42129 0.0
Co201 Co 0.9028 0.23833 0.43 0.0
O202 O 0.8823 0.23004 0.45352 0.0
C203 C 0.90803 0.25236 0.33109 0.0
C204 C 0.90889 0.28977 0.38828 0.0
C205 C 0.87435 0.23553 0.44143 0.0
O206 O 0.90236 0.26013 0.34517 0.0
O207 O 0.91043 0.24423 0.3606 0.0
O208 O 0.90024 0.27042 0.48566 0.0
O209 O 0.90947 0.25826 0.4494 0.0
Co210 Co 0.972 0.4156 0.22408 0.0
O211 O 0.97145 0.39747 0.23794 0.0
O212 O 0.95311 0.40151 0.25244 0.0
C213 C 0.98204 0.41867 0.14783 0.0
O214 O 0.96848 0.43285 0.21298 0.0
Co215 Co 1.00182 0.44429 0.20452 0.0
O216 O 0.98876 0.45109 0.17713 0.0
C217 C 0.99394 0.43171 0.30587 0.0
C218 C 0.95823 0.39255 0.25436 0.0
C219 C 0.97534 0.44522 0.18988 0.0
O220 O 0.98058 0.42302 0.29221 0.0
O221 O 1.00413 0.44004 0.27561 0.0
O222 O 0.96794 0.41032 0.15332 0.0
O223 O 0.98939 0.42387 0.18822 0.0
Co224 Co 0.60221 0.56398 0.22354 0.0
O225 O 0.62145 0.58099 0.2259 0.0
O226 O 0.61614 0.55875 0.25 0.0
C227 C 0.59644 0.56798 0.14659 0.0
O228 O 0.58373 0.54376 0.22532 0.0
Co229 Co 0.57473 0.56781 0.21373 0.0
O230 O 0.56376 0.54608 0.21345 0.0
C231 C 0.59172 0.57569 0.30663 0.0
C232 C 0.62591 0.57256 0.24482 0.0
C233 C 0.56979 0.53833 0.2205 0.0
O234 O 0.59819 0.5687 0.29241 0.0
O235 O 0.58333 0.57801 0.27823 0.0
O236 O 0.60427 0.56165 0.15196 0.0
O237 O 0.5936 0.57265 0.18688 0.0
Co238 Co 0.4533 0.04329 0.22728 0.0
O239 O 0.43638 0.04553 0.23178 0.0
O240 O 0.45887 0.06271 0.25251 0.0
C241 C 0.44797 0.03296 0.15125 0.0
O242 O 0.47356 0.04508 0.22499 0.0
Co243 Co 0.44982 0.01213 0.21608 0.0
O244 O 0.47047 0.02387 0.19368 0.0
C245 C 0.44312 0.02145 0.31147 0.0
C246 C 0.44505 0.05871 0.24809 0.0
C247 C 0.47861 0.0373 0.20565 0.0
O248 O 0.44947 0.0349 0.29673 0.0
O249 O 0.44106 0.01078 0.28329 0.0
O250 O 0.45452 0.04718 0.1554 0.0
O251 O 0.44405 0.02576 0.19233 0.0
Co252 Co 0.6011 0.04375 0.22937 0.0
O253 O 0.61923 0.04417 0.2421 0.0
O254 O 0.61538 0.06259 0.25783 0.0
C255 C 0.59779 0.03381 0.15288 0.0
O256 O 0.58383 0.04734 0.21965 0.0
Co257 Co 0.57226 0.014 0.20925 0.0
O258 O 0.56552 0.02721 0.18323 0.0
C259 C 0.58478 0.02175 0.31078 0.0
C260 C 0.62431 0.05741 0.2587 0.0
C261 C 0.57137 0.04055 0.19699 0.0
O262 O 0.59381 0.03506 0.29738 0.0
O263 O 0.5763 0.01168 0.28039 0.0
O264 O 0.60623 0.04791 0.15849 0.0
O265 O 0.59265 0.02643 0.19318 0.0
Co266 Co 0.97463 0.56297 0.22577 0.0
O267 O 0.97473 0.58081 0.2414 0.0
O268 O 0.95595 0.55854 0.25482 0.0
C269 C 0.98469 0.57038 0.14979 0.0
O270 O 0.97038 0.54202 0.213 0.0
Co271 Co 1.00374 0.56301 0.20306 0.0
O272 O 0.99006 0.54345 0.17475 0.0
C273 C 0.99647 0.56724 0.30605 0.0
C274 C 0.96145 0.57268 0.25766 0.0
C275 C 0.97671 0.53619 0.18859 0.0
O276 O 0.98324 0.56346 0.29327 0.0
O277 O 1.00634 0.56873 0.27498 0.0
O278 O 0.97062 0.56483 0.15538 0.0
O279 O 0.99198 0.57192 0.18987 0.0
Co280 Co 0.45368 0.41321 0.22251 0.0
O281 O 0.43642 0.39414 0.22518 0.0
O282 O 0.45838 0.39914 0.25125 0.0
C283 C 0.45 0.41851 0.14444 0.0
O284 O 0.47407 0.43145 0.22465 0.0
Co285 Co 0.45125 0.44136 0.20678 0.0
O286 O 0.47269 0.45081 0.19548 0.0
C287 C 0.44299 0.42562 0.30289 0.0
C288 C 0.44457 0.38951 0.24525 0.0
C289 C 0.48003 0.44486 0.20985 0.0
O290 O 0.44886 0.41793 0.29006 0.0
O291 O 0.44165 0.43442 0.27331 0.0
O292 O 0.45615 0.41056 0.15135 0.0
O293 O 0.44548 0.42187 0.18394 0.0
Co294 Co 0.37852 0.2645 0.4157 0.0
O295 O 0.37956 0.2829 0.40289 0.0
O296 O 0.39747 0.27831 0.38678 0.0
C297 C 0.36872 0.26164 0.49212 0.0
O298 O 0.38135 0.24677 0.42566 0.0
Co299 Co 0.34818 0.23641 0.43582 0.0
O300 O 0.3608 0.22888 0.46149 0.0
C301 C 0.35614 0.24911 0.33467 0.0
C302 C 0.39265 0.28753 0.38564 0.0
C303 C 0.37415 0.23432 0.44824 0.0
O304 O 0.36962 0.25741 0.34783 0.0
O305 O 0.34592 0.24101 0.36518 0.0
O306 O 0.38288 0.26956 0.48663 0.0
O307 O 0.36129 0.2567 0.45181 0.0
Co308 Co 0.75136 0.11849 0.41293 0.0
O309 O 0.73271 0.1011 0.40339 0.0
O310 O 0.73726 0.12352 0.38591 0.0
C311 C 0.75525 0.11221 0.48926 0.0
O312 O 0.76935 0.13909 0.41983 0.0
Co313 Co 0.77949 0.11601 0.42893 0.0
O314 O 0.78763 0.13646 0.45248 0.0
C315 C 0.76531 0.11046 0.33009 0.0
C316 C 0.7279 0.10949 0.38686 0.0
C317 C 0.78212 0.14438 0.44014 0.0
O318 O 0.75748 0.11606 0.34412 0.0
O319 O 0.77363 0.10833 0.35959 0.0
O320 O 0.74729 0.11841 0.48447 0.0
O321 O 0.75955 0.10926 0.44842 0.0
Co322 Co 0.89981 0.63779 0.41237 0.0
O323 O 0.91755 0.63703 0.40521 0.0
O324 O 0.89542 0.61885 0.3859 0.0
C325 C 0.90507 0.64795 0.48879 0.0
O326 O 0.87892 0.63437 0.41645 0.0
Co327 Co 0.90071 0.6677 0.42673 0.0
O328 O 0.88023 0.65471 0.44894 0.0
C329 C 0.90791 0.65977 0.32942 0.0
C330 C 0.90947 0.6238 0.38825 0.0
C331 C 0.87295 0.64126 0.4361 0.0
O332 O 0.90266 0.64635 0.34343 0.0
O333 O 0.90919 0.66998 0.35849 0.0
O334 O 0.89936 0.63382 0.48414 0.0
O335 O 0.9082 0.65522 0.44789 0.0
Co336 Co 0.41831 0.97061 0.74889 0.0
O337 O 0.39813 0.96547 0.7409 0.0
O338 O 0.40721 0.95127 0.7193 0.0
C339 C 0.42087 0.97974 0.82627 0.0
O340 O 0.43832 0.97186 0.75407 0.0
Co341 Co 0.44289 1.00308 0.76716 0.0
O342 O 0.45402 0.99351 0.78957 0.0
C343 C 0.42912 0.99368 0.66813 0.0
C344 C 0.39597 0.95321 0.72203 0.0
C345 C 0.4506 0.98061 0.77566 0.0
O346 O 0.42301 0.98008 0.681 0.0
O347 O 0.43635 1.00432 0.69835 0.0
O348 O 0.41499 0.96562 0.82019 0.0
O349 O 0.42382 0.98732 0.78616 0.0
Co350 Co 0.04551 0.45115 0.74607 0.0
O351 O 0.04641 0.43369 0.73356 0.0
O352 O 0.06444 0.45615 0.71738 0.0
C353 C 0.03571 0.44439 0.82276 0.0
O354 O 0.04855 0.4718 0.75573 0.0
Co355 Co 0.0153 0.44912 0.76554 0.0
O356 O 0.02802 0.46933 0.79088 0.0
C357 C 0.02329 0.44447 0.66443 0.0
C358 C 0.05954 0.44208 0.71654 0.0
C359 C 0.0414 0.47715 0.77787 0.0
O360 O 0.03671 0.44944 0.67798 0.0
O361 O 0.01304 0.44236 0.69472 0.0
O362 O 0.04984 0.45047 0.81702 0.0
O363 O 0.02825 0.44183 0.78245 0.0
Co364 Co 0.56666 0.60105 0.74491 0.0
O365 O 0.58243 0.62099 0.7384 0.0
O366 O 0.55945 0.61303 0.71523 0.0
C367 C 0.5725 0.59777 0.82267 0.0
O368 O 0.54727 0.58156 0.74841 0.0
Co369 Co 0.57267 0.57523 0.76308 0.0
O370 O 0.5519 0.56509 0.78514 0.0
C371 C 0.57778 0.58913 0.6639 0.0
C372 C 0.57286 0.62386 0.71913 0.0
C373 C 0.54301 0.56917 0.77024 0.0
O374 O 0.57128 0.59621 0.67711 0.0
O375 O 0.58035 0.58122 0.69384 0.0
O376 O 0.56484 0.60424 0.81615 0.0
O377 O 0.57704 0.59461 0.78278 0.0
Co378 Co 0.63919 0.74789 0.55936 0.0
O379 O 0.63516 0.72797 0.5647 0.0
O380 O 0.6199 0.7356 0.58778 0.0
C381 C 0.6487 0.75178 0.48212 0.0
O382 O 0.63911 0.76729 0.55695 0.0
Co383 Co 0.67108 0.77401 0.54392 0.0
O384 O 0.66051 0.78431 0.52322 0.0
C385 C 0.66194 0.75908 0.64117 0.0
C386 C 0.62259 0.72488 0.58341 0.0
C387 C 0.64738 0.77995 0.53702 0.0
O388 O 0.64837 0.75241 0.6277 0.0
O389 O 0.67256 0.76702 0.61174 0.0
O390 O 0.63452 0.74504 0.48778 0.0
O391 O 0.65622 0.75477 0.52243 0.0
Co392 Co 0.27193 0.89642 0.55932 0.0
O393 O 0.29135 0.91299 0.56813 0.0
O394 O 0.2847 0.89008 0.58828 0.0
C395 C 0.26874 0.9028 0.4822 0.0
O396 O 0.25329 0.87634 0.55342 0.0
Co397 Co 0.24465 0.9 0.53958 0.0
O398 O 0.23604 0.87952 0.51547 0.0
C399 C 0.25791 0.90519 0.6402 0.0
C400 C 0.29497 0.90378 0.58594 0.0
C401 C 0.24093 0.87131 0.53059 0.0
O402 O 0.26605 0.89981 0.62732 0.0
O403 O 0.24966 0.90712 0.60974 0.0
O404 O 0.2759 0.89577 0.48793 0.0
O405 O 0.26469 0.90628 0.52249 0.0
Co406 Co 0.12136 0.3776 0.55786 0.0
O407 O 0.10379 0.37859 0.56607 0.0
O408 O 0.12606 0.39667 0.58419 0.0
C409 C 0.11556 0.36729 0.48157 0.0
O410 O 0.14212 0.38067 0.55265 0.0
Co411 Co 0.11968 0.3473 0.54355 0.0
O412 O 0.14038 0.35987 0.52262 0.0
C413 C 0.11337 0.35577 0.64127 0.0
C414 C 0.11202 0.39184 0.58255 0.0
C415 C 0.14786 0.37338 0.53449 0.0
O416 O 0.11885 0.36919 0.62695 0.0
O417 O 0.1115 0.34533 0.61219 0.0
O418 O 0.12149 0.38145 0.48611 0.0
O419 O 0.11256 0.36009 0.52258 0.0
Co420 Co 0.26992 0.37801 0.55701 0.0
O421 O 0.28863 0.37934 0.56558 0.0
O422 O 0.28394 0.39696 0.58539 0.0
C423 C 0.26608 0.36842 0.47972 0.0
O424 O 0.25198 0.38065 0.55169 0.0
Co425 Co 0.24172 0.34762 0.53866 0.0
O426 O 0.23363 0.36016 0.51709 0.0
C427 C 0.25543 0.35546 0.63852 0.0
C428 C 0.29337 0.39241 0.58325 0.0
C429 C 0.23922 0.37345 0.53124 0.0
O430 O 0.26377 0.36892 0.6252 0.0
O431 O 0.24695 0.34529 0.60839 0.0
O432 O 0.27398 0.38256 0.48567 0.0
O433 O 0.26175 0.36085 0.51997 0.0
Co434 Co 0.6393 0.89665 0.55783 0.0
O435 O 0.63672 0.91333 0.56395 0.0
O436 O 0.61986 0.89071 0.58429 0.0
C437 C 0.64927 0.90251 0.48114 0.0
O438 O 0.63811 0.87665 0.55416 0.0
Co439 Co 0.67086 0.90132 0.54377 0.0
O440 O 0.65956 0.88052 0.52242 0.0
C441 C 0.66138 0.9063 0.64176 0.0
C442 C 0.62365 0.90451 0.58055 0.0
C443 C 0.64625 0.87199 0.53504 0.0
O444 O 0.64794 0.90024 0.62697 0.0
O445 O 0.67209 0.90889 0.61296 0.0
O446 O 0.63507 0.89556 0.48608 0.0
O447 O 0.65662 0.90644 0.52192 0.0
Co448 Co 0.12306 0.74943 0.55902 0.0
O449 O 0.10544 0.73094 0.56822 0.0
O450 O 0.12763 0.73523 0.58802 0.0
C451 C 0.11747 0.75329 0.4816 0.0
O452 O 0.14384 0.76713 0.55302 0.0
Co453 Co 0.12143 0.77791 0.54019 0.0
O454 O 0.14187 0.78546 0.51758 0.0
C455 C 0.1149 0.76398 0.63956 0.0
C456 C 0.11357 0.72603 0.58637 0.0
C457 C 0.14948 0.77976 0.53158 0.0
O458 O 0.12029 0.75584 0.62689 0.0
O459 O 0.11331 0.77245 0.60914 0.0
O460 O 0.12337 0.7451 0.48788 0.0
O461 O 0.11437 0.75781 0.52167 0.0
Co462 Co 0.04742 0.59969 0.74685 0.0
O463 O 0.04866 0.61822 0.73479 0.0
O464 O 0.06656 0.6136 0.71934 0.0
C465 C 0.03728 0.59649 0.82295 0.0
O466 O 0.05004 0.58182 0.75631 0.0
Co467 Co 0.01678 0.57168 0.76459 0.0
O468 O 0.02909 0.56366 0.7892 0.0
C469 C 0.0254 0.58495 0.66452 0.0
C470 C 0.06187 0.62293 0.71866 0.0
C471 C 0.04254 0.56913 0.77716 0.0
O472 O 0.03887 0.59288 0.67832 0.0
O473 O 0.01493 0.577 0.69445 0.0
O474 O 0.05144 0.60443 0.81805 0.0
O475 O 0.03 0.5918 0.78222 0.0
Co476 Co 0.41961 0.45131 0.7429 0.0
O477 O 0.40079 0.43415 0.73394 0.0
O478 O 0.4058 0.45665 0.71532 0.0
C479 C 0.42349 0.44526 0.81952 0.0
O480 O 0.43792 0.4717 0.74894 0.0
Co481 Co 0.44723 0.44794 0.75856 0.0
O482 O 0.45588 0.46853 0.78145 0.0
C483 C 0.43266 0.44214 0.66048 0.0
C484 C 0.39628 0.44266 0.71634 0.0
C485 C 0.45067 0.47671 0.76911 0.0
O486 O 0.42539 0.44836 0.67426 0.0
O487 O 0.44085 0.43981 0.68993 0.0
O488 O 0.41578 0.45171 0.81438 0.0
O489 O 0.42749 0.44188 0.77886 0.0
Co490 Co 0.56668 0.97142 0.7509 0.0
O491 O 0.58288 0.96859 0.7365 0.0
O492 O 0.55969 0.95212 0.72125 0.0
C493 C 0.57454 0.98081 0.8274 0.0
O494 O 0.54709 0.97072 0.76212 0.0
Co495 Co 0.57257 1.00317 0.77215 0.0
O496 O 0.55201 0.9923 0.79603 0.0
C497 C 0.57529 0.99425 0.67033 0.0
C498 C 0.57347 0.95582 0.71892 0.0
C499 C 0.54302 0.97909 0.78337 0.0
O500 O 0.56892 0.98065 0.68342 0.0
O501 O 0.5789 1.00481 0.70108 0.0
O502 O 0.56712 0.96663 0.82152 0.0
O503 O 0.57764 0.98842 0.78733 0.0
H504 H 0.11875 0.28992 0.04712 0.0
H505 H 0.19174 0.30902 0.1931 0.0
H506 H 0.13056 0.30952 0.19293 0.0
H507 H 0.18292 0.29169 0.04388 0.0
H508 H 0.16621 0.30277 0.20113 0.0
H509 H 0.13876 0.2843 0.0523 0.0
C510 C 0.12525 0.29261 0.08082 0.0
C511 C 0.1232 0.30039 0.11939 0.0
C512 C 0.16971 0.30006 0.16681 0.0
C513 C 0.14605 0.29416 0.12542 0.0
C514 C 0.18428 0.30359 0.16236 0.0
C515 C 0.18941 0.301 0.11763 0.0
C516 C 0.16024 0.29429 0.12565 0.0
C517 C 0.17933 0.29387 0.07897 0.0
C518 C 0.13672 0.2895 0.08364 0.0
C519 C 0.13195 0.30371 0.16208 0.0
N520 N 0.16526 0.29106 0.08341 0.0
N521 N 0.14308 0.30075 0.16368 0.0
H522 H 0.70795 0.82412 0.19157 0.0
H523 H 0.72622 0.896 0.0416 0.0
H524 H 0.72422 0.83185 0.04106 0.0
H525 H 0.70961 0.88629 0.19163 0.0
H526 H 0.73177 0.87595 0.04662 0.0
H527 H 0.7149 0.84987 0.19868 0.0
C528 C 0.71327 0.83138 0.16031 0.0
C529 C 0.71537 0.8259 0.11553 0.0
C530 C 0.72728 0.87848 0.07889 0.0
C531 C 0.72287 0.85531 0.12249 0.0
C532 C 0.72422 0.88998 0.07614 0.0
C533 C 0.71726 0.89259 0.11605 0.0
C534 C 0.72336 0.86967 0.12192 0.0
C535 C 0.71478 0.88444 0.15981 0.0
C536 C 0.71722 0.84608 0.16424 0.0
C537 C 0.7224 0.83572 0.07618 0.0
N538 N 0.71764 0.87325 0.16133 0.0
N539 N 0.7256 0.84993 0.08012 0.0
H540 H 0.13249 0.8231 0.1868 0.0
H541 H 0.18629 0.89644 0.04019 0.0
H542 H 0.12291 0.83213 0.03932 0.0
H543 H 0.19493 0.88392 0.18352 0.0
H544 H 0.16076 0.87607 0.04544 0.0
H545 H 0.1526 0.84831 0.19306 0.0
C546 C 0.1345 0.83054 0.15604 0.0
C547 C 0.12616 0.82555 0.11236 0.0
C548 C 0.16817 0.87801 0.07619 0.0
C549 C 0.14956 0.85438 0.11837 0.0
C550 C 0.18269 0.88967 0.07334 0.0
C551 C 0.19271 0.89171 0.11128 0.0
C552 C 0.16375 0.86848 0.11743 0.0
C553 C 0.18757 0.8826 0.15321 0.0
C554 C 0.14602 0.84494 0.15948 0.0
C555 C 0.12913 0.83562 0.07365 0.0
N556 N 0.17354 0.87134 0.15492 0.0
N557 N 0.14082 0.84952 0.07709 0.0
H558 H 0.31043 0.12634 0.77576 0.0
H559 H 0.29229 0.17967 0.92968 0.0
H560 H 0.29407 0.11723 0.92615 0.0
H561 H 0.31148 0.18829 0.7832 0.0
H562 H 0.28664 0.15404 0.92239 0.0
H563 H 0.30423 0.14571 0.7706 0.0
C564 C 0.30522 0.12825 0.80735 0.0
C565 C 0.3029 0.12034 0.85158 0.0
C566 C 0.29175 0.16146 0.89137 0.0
C567 C 0.29627 0.1429 0.84684 0.0
C568 C 0.29487 0.17603 0.89541 0.0
C569 C 0.30251 0.18607 0.85717 0.0
C570 C 0.29624 0.15701 0.84869 0.0
C571 C 0.30575 0.1809 0.81374 0.0
C572 C 0.30172 0.13935 0.80456 0.0
C573 C 0.29604 0.12315 0.8914 0.0
N574 N 0.30275 0.16681 0.81093 0.0
N575 N 0.29327 0.13446 0.88855 0.0
H576 H 0.83564 0.11447 0.92455 0.0
H577 H 0.89182 0.18571 0.77415 0.0
H578 H 0.82805 0.12715 0.77989 0.0
H579 H 0.89836 0.17834 0.92746 0.0
H580 H 0.87219 0.16023 0.76766 0.0
H581 H 0.86162 0.13368 0.91854 0.0
C582 C 0.83955 0.121 0.89095 0.0
C583 C 0.82971 0.11943 0.85294 0.0
C584 C 0.87807 0.16403 0.80254 0.0
C585 C 0.85921 0.1413 0.84584 0.0
C586 C 0.88934 0.17856 0.8061 0.0
C587 C 0.89655 0.18411 0.85151 0.0
C588 C 0.87367 0.15508 0.84514 0.0
C589 C 0.893 0.17442 0.8918 0.0
C590 C 0.85433 0.132 0.88764 0.0
C591 C 0.83526 0.12818 0.81032 0.0
N592 N 0.88152 0.16042 0.88808 0.0
N593 N 0.84957 0.13882 0.80817 0.0
H594 H 0.82986 0.71245 0.79931 0.0
H595 H 0.89815 0.7181 0.94949 0.0
H596 H 0.83061 0.70904 0.95892 0.0
H597 H 0.88857 0.70578 0.79519 0.0
H598 H 0.8775 0.72281 0.95182 0.0
H599 H 0.85555 0.71842 0.79628 0.0
C600 C 0.83562 0.71335 0.83376 0.0
C601 C 0.82828 0.71033 0.87937 0.0
C602 C 0.88017 0.71944 0.91718 0.0
C603 C 0.85736 0.7167 0.8763 0.0
C604 C 0.89199 0.71687 0.91574 0.0
C605 C 0.89495 0.71153 0.87209 0.0
C606 C 0.87149 0.71683 0.87441 0.0
C607 C 0.88655 0.70985 0.82956 0.0
C608 C 0.8502 0.71666 0.83208 0.0
C609 C 0.83604 0.71144 0.9231 0.0
N610 N 0.87515 0.71241 0.83183 0.0
N611 N 0.85016 0.71436 0.9205 0.0
H612 H 0.85799 0.63984 0.5194 0.0
H613 H 0.78734 0.62455 0.36541 0.0
H614 H 0.85172 0.62673 0.36534 0.0
H615 H 0.79719 0.6409 0.51579 0.0
H616 H 0.80726 0.61877 0.37001 0.0
H617 H 0.83232 0.63331 0.52449 0.0
C618 C 0.85105 0.63525 0.48691 0.0
C619 C 0.85692 0.63392 0.44184 0.0
C620 C 0.8048 0.62327 0.4024 0.0
C621 C 0.82766 0.62699 0.44653 0.0
C622 C 0.79339 0.62647 0.39987 0.0
C623 C 0.79082 0.63337 0.44012 0.0
C624 C 0.81352 0.62694 0.44559 0.0
C625 C 0.79899 0.63576 0.48376 0.0
C626 C 0.83641 0.63158 0.48966 0.0
C627 C 0.84753 0.6279 0.40077 0.0
N628 N 0.81005 0.6327 0.48514 0.0
N629 N 0.83339 0.62496 0.40372 0.0
H630 H 0.37072 0.15584 0.53026 0.0
H631 H 0.39159 0.22932 0.38438 0.0
H632 H 0.39134 0.1657 0.38597 0.0
H633 H 0.37121 0.21771 0.529 0.0
H634 H 0.39683 0.20907 0.39077 0.0
H635 H 0.37623 0.18115 0.53754 0.0
C636 C 0.37667 0.16347 0.50045 0.0
C637 C 0.38043 0.15868 0.45725 0.0
C638 C 0.39153 0.21119 0.42159 0.0
C639 C 0.38639 0.18765 0.46441 0.0
C640 C 0.38864 0.2228 0.41808 0.0
C641 C 0.38078 0.22501 0.45596 0.0
C642 C 0.38656 0.20186 0.46335 0.0
C643 C 0.3771 0.21621 0.49865 0.0
C644 C 0.37979 0.17793 0.50449 0.0
C645 C 0.38823 0.169 0.41986 0.0
N646 N 0.37986 0.20496 0.50091 0.0
N647 N 0.39067 0.18297 0.42377 0.0
H648 H 0.86062 0.21962 0.52318 0.0
H649 H 0.78758 0.16666 0.37459 0.0
H650 H 0.85201 0.2296 0.37569 0.0
H651 H 0.7987 0.15825 0.52063 0.0
H652 H 0.80809 0.19211 0.38019 0.0
H653 H 0.83519 0.19997 0.52938 0.0
C654 C 0.85323 0.21781 0.49242 0.0
C655 C 0.8584 0.2261 0.44875 0.0
C656 C 0.8058 0.18478 0.41146 0.0
C657 C 0.82931 0.20323 0.45465 0.0
C658 C 0.79405 0.17031 0.40841 0.0
C659 C 0.7916 0.16036 0.44703 0.0
C660 C 0.81502 0.18922 0.45353 0.0
C661 C 0.80035 0.16555 0.48981 0.0
C662 C 0.83871 0.20655 0.49581 0.0
C663 C 0.84839 0.2234 0.41001 0.0
N664 N 0.81173 0.17953 0.49166 0.0
N665 N 0.83436 0.21195 0.41339 0.0
H666 H 0.95866 0.5142 0.25288 0.0
H667 H 0.97591 0.45946 0.10533 0.0
H668 H 0.97806 0.52185 0.10684 0.0
H669 H 0.95909 0.45134 0.25516 0.0
H670 H 0.9698 0.47884 0.09724 0.0
H671 H 0.95214 0.48832 0.24671 0.0
C672 C 0.96111 0.51032 0.2189 0.0
C673 C 0.96912 0.52017 0.18062 0.0
C674 C 0.96716 0.47269 0.13169 0.0
C675 C 0.96187 0.49079 0.17346 0.0
C676 C 0.9706 0.46158 0.13616 0.0
C677 C 0.96816 0.45397 0.18113 0.0
C678 C 0.96164 0.47655 0.17303 0.0
C679 C 0.96118 0.45703 0.2199 0.0
C680 C 0.95748 0.49559 0.21551 0.0
C681 C 0.97209 0.51463 0.13752 0.0
N682 N 0.95848 0.46836 0.21544 0.0
N683 N 0.96865 0.50039 0.1354 0.0
H684 H 0.56786 0.51639 0.1607 0.0
H685 H 0.49481 0.45569 0.29601 0.0
H686 H 0.54914 0.52447 0.29097 0.0
H687 H 0.50075 0.45684 0.13712 0.0
H688 H 0.51972 0.47679 0.30444 0.0
H689 H 0.54803 0.4905 0.16211 0.0
C690 C 0.55979 0.51258 0.19027 0.0
C691 C 0.55997 0.52244 0.22565 0.0
C692 C 0.51572 0.47214 0.26789 0.0
C693 C 0.5376 0.49316 0.22778 0.0
C694 C 0.50161 0.46008 0.26314 0.0
C695 C 0.49589 0.4546 0.21585 0.0
C696 C 0.52414 0.47862 0.22503 0.0
C697 C 0.5049 0.4608 0.17417 0.0
C698 C 0.54851 0.49791 0.19094 0.0
C699 C 0.54927 0.51713 0.26301 0.0
N700 N 0.51861 0.47259 0.17965 0.0
N701 N 0.53847 0.50285 0.26303 0.0
H702 H 0.56576 0.05641 0.26566 0.0
H703 H 0.49172 0.03419 0.12415 0.0
H704 H 0.55575 0.03965 0.1158 0.0
H705 H 0.50145 0.05471 0.26866 0.0
H706 H 0.51729 0.04088 0.11509 0.0
H707 H 0.54496 0.06084 0.26258 0.0
C708 C 0.55952 0.05418 0.23151 0.0
C709 C 0.5623 0.0475 0.19109 0.0
C710 C 0.514 0.04416 0.14861 0.0
C711 C 0.53847 0.05225 0.18755 0.0
C712 C 0.49936 0.04032 0.15372 0.0
C713 C 0.4945 0.04377 0.1974 0.0
C714 C 0.52383 0.05115 0.1881 0.0
C715 C 0.50483 0.05183 0.23445 0.0
C716 C 0.54758 0.05659 0.22989 0.0
C717 C 0.55382 0.04465 0.14795 0.0
N718 N 0.519 0.05499 0.22947 0.0
N719 N 0.54219 0.04685 0.14758 0.0
H720 H 0.46962 0.9882 0.8527 0.0
H721 H 0.51971 0.96076 0.72327 0.0
H722 H 0.45673 0.96273 0.71741 0.0
H723 H 0.53056 0.98638 0.85798 0.0
H724 H 0.49483 0.95737 0.72676 0.0
H725 H 0.48998 0.98367 0.86166 0.0
C726 C 0.47104 0.98154 0.82498 0.0
C727 C 0.46162 0.97603 0.78386 0.0
C728 C 0.50259 0.96349 0.75602 0.0
C729 C 0.48519 0.97096 0.79334 0.0
C730 C 0.51674 0.96533 0.75423 0.0
C731 C 0.52725 0.97403 0.79006 0.0
C732 C 0.49901 0.97034 0.79405 0.0
C733 C 0.52287 0.97978 0.82919 0.0
C734 C 0.48268 0.97893 0.83011 0.0
C735 C 0.46382 0.96725 0.74955 0.0
N736 N 0.50919 0.97796 0.82982 0.0
N737 N 0.47556 0.96519 0.75455 0.0
H738 H 0.06001 0.56417 0.7133 0.0
H739 H 0.03992 0.49091 0.86071 0.0
H740 H 0.03919 0.55211 0.85715 0.0
H741 H 0.05775 0.49951 0.71222 0.0
H742 H 0.0458 0.51636 0.86745 0.0
H743 H 0.06512 0.54381 0.71916 0.0
C744 C 0.05693 0.55752 0.74673 0.0
C745 C 0.04902 0.55966 0.78458 0.0
C746 C 0.04869 0.51283 0.83356 0.0
C747 C 0.05468 0.53642 0.79139 0.0
C748 C 0.04537 0.4983 0.82986 0.0
C749 C 0.04822 0.49312 0.78571 0.0
C750 C 0.05454 0.52222 0.79228 0.0
C751 C 0.05538 0.50313 0.7469 0.0
C752 C 0.05975 0.54585 0.74991 0.0
C753 C 0.04516 0.5507 0.82688 0.0
N754 N 0.05801 0.51717 0.75062 0.0
N755 N 0.04788 0.53941 0.82889 0.0
H756 H 0.45586 0.4993 0.70523 0.0
H757 H 0.52997 0.55182 0.85008 0.0
H758 H 0.4681 0.49019 0.84832 0.0
H759 H 0.5202 0.56263 0.70558 0.0
H760 H 0.50479 0.53171 0.85654 0.0
H761 H 0.47655 0.52466 0.71074 0.0
C762 C 0.46264 0.50277 0.73838 0.0
C763 C 0.46045 0.49264 0.77611 0.0
C764 C 0.50802 0.53852 0.8235 0.0
C765 C 0.48405 0.52139 0.78249 0.0
C766 C 0.52242 0.55001 0.81987 0.0
C767 C 0.52719 0.55871 0.77694 0.0
C768 C 0.49833 0.5354 0.78334 0.0
C769 C 0.51692 0.55608 0.73921 0.0
C770 C 0.47449 0.51719 0.74137 0.0
C771 C 0.46956 0.49761 0.8181 0.0
N772 N 0.503 0.54443 0.74279 0.0
N773 N 0.48101 0.51155 0.81989 0.0
H774 H 0.62937 0.84955 0.60017 0.0
H775 H 0.65102 0.79684 0.45666 0.0
H776 H 0.65087 0.85849 0.4575 0.0
H777 H 0.63166 0.78677 0.60296 0.0
H778 H 0.64587 0.81689 0.45018 0.0
H779 H 0.62518 0.82435 0.5962 0.0
C780 C 0.63283 0.84607 0.56747 0.0
C781 C 0.64063 0.8561 0.52934 0.0
C782 C 0.64258 0.81026 0.48364 0.0
C783 C 0.636 0.82753 0.52464 0.0
C784 C 0.64552 0.7988 0.48726 0.0
C785 C 0.64193 0.79031 0.53061 0.0
C786 C 0.63633 0.81357 0.52423 0.0
C787 C 0.63463 0.79314 0.56894 0.0
C788 C 0.63054 0.83175 0.56536 0.0
C789 C 0.64499 0.85114 0.48798 0.0
N790 N 0.63232 0.80476 0.56532 0.0
N791 N 0.64274 0.83729 0.48697 0.0
H792 H 0.17123 0.78534 0.5995 0.0
H793 H 0.22541 0.85718 0.44845 0.0
H794 H 0.16397 0.7954 0.45029 0.0
H795 H 0.2343 0.84932 0.59849 0.0
H796 H 0.20583 0.8317 0.44259 0.0
H797 H 0.19681 0.80554 0.59448 0.0
C798 C 0.17517 0.7915 0.56518 0.0
C799 C 0.1655 0.78889 0.52544 0.0
C800 C 0.21214 0.83541 0.4767 0.0
C801 C 0.1945 0.81197 0.51956 0.0
C802 C 0.22334 0.84997 0.47994 0.0
C803 C 0.23129 0.85535 0.5242 0.0
C804 C 0.20853 0.82622 0.51857 0.0
C805 C 0.22832 0.84554 0.56377 0.0
C806 C 0.18972 0.80308 0.56242 0.0
C807 C 0.17105 0.79722 0.48197 0.0
N808 N 0.21693 0.83148 0.56047 0.0
N809 N 0.1851 0.80846 0.48042 0.0
H810 H 0.23389 0.38921 0.60129 0.0
H811 H 0.16291 0.37557 0.45059 0.0
H812 H 0.22276 0.37217 0.45199 0.0
H813 H 0.16891 0.3862 0.6068 0.0
H814 H 0.1884 0.3814 0.44521 0.0
H815 H 0.21378 0.39474 0.59891 0.0
C816 C 0.2275 0.38707 0.56752 0.0
C817 C 0.22983 0.38011 0.5269 0.0
C818 C 0.18429 0.38272 0.4806 0.0
C819 C 0.20692 0.38629 0.52393 0.0
C820 C 0.16977 0.37948 0.48351 0.0
C821 C 0.16388 0.38038 0.52915 0.0
C822 C 0.19289 0.38647 0.52401 0.0
C823 C 0.17314 0.38546 0.57086 0.0
C824 C 0.21598 0.39012 0.56628 0.0
C825 C 0.22119 0.3774 0.48424 0.0
N826 N 0.18715 0.38803 0.56758 0.0
N827 N 0.21006 0.38037 0.48404 0.0
H828 H 0.04554 0.26036 0.02358 0.0
H829 H 0.97621 0.26639 0.93422 0.0
H830 H 0.04187 0.29929 0.03405 0.0
H831 H 0.97354 0.22441 0.95273 0.0
H832 H 1.00128 0.27846 0.96434 0.0
H833 H 0.02015 0.24681 -0.00802 0.0
C834 C 0.03943 0.26605 0.01921 0.0
C835 C 0.04585 0.28099 0.03151 0.0
C836 C 0.99527 0.2666 0.96204 0.0
C837 C 0.01698 0.26565 -0.00467 0.0
C838 C 0.9809 0.25967 0.94468 0.0
C839 C 0.9727 0.24434 0.94107 0.0
C840 C 1.00169 0.25822 0.97591 0.0
C841 C 0.97946 0.23626 0.95513 0.0
C842 C 0.02496 0.25831 0.00133 0.0
C843 C 0.03743 0.2878 0.02522 0.0
N844 N 0.9936 0.24331 0.97192 0.0
N845 N 0.02353 0.28012 0.00752 0.0
H846 H 0.79097 0.75238 0.94553 0.0
H847 H 0.71633 0.74507 0.04287 0.0
H848 H 0.74804 0.71516 0.91718 0.0
H849 H 0.75424 0.78781 0.01823 0.0
H850 H 0.72943 0.7338 0.00698 0.0
H851 H 0.7792 0.76565 0.97992 0.0
C852 C 0.77911 0.74705 0.94624 0.0
C853 C 0.77046 0.73261 0.92872 0.0
C854 C 0.73491 0.74565 0.00923 0.0
C855 C 0.75706 0.74755 0.96843 0.0
C856 C 0.72745 0.75212 0.03 0.0
C857 C 0.73416 0.76743 0.03332 0.0
C858 C 0.74929 0.75449 -0.00816 0.0
C859 C 0.74865 0.77596 0.01614 0.0
C860 C 0.77243 0.75462 0.96578 0.0
C861 C 0.75517 0.72623 0.93037 0.0
N862 N 0.75579 0.76936 -0.00387 0.0
N863 N 0.74899 0.73368 0.95025 0.0
H864 H 0.27182 0.97742 0.06328 0.0
H865 H 0.26363 0.04282 0.94686 0.0
H866 H 0.22955 0.97037 0.01656 0.0
H867 H 0.30368 0.04108 0.95033 0.0
H868 H 0.25046 0.01778 0.98192 0.0
H869 H 0.28314 1.00248 0.03348 0.0
C870 C 0.26487 0.98114 0.04676 0.0
C871 C 0.2497 0.97168 0.04195 0.0
C872 C 0.26213 0.02295 0.97489 0.0
C873 C 0.26275 1.00063 0.00732 0.0
C874 C 0.26964 0.03721 0.95509 0.0
C875 C 0.28478 0.04403 0.9456 0.0
C876 C 0.2699 0.01566 0.98592 0.0
C877 C 0.29203 0.03627 0.95679 0.0
C878 C 0.27138 0.9955 0.02959 0.0
C879 C 0.2413 0.97728 0.02069 0.0
N880 N 0.28456 0.0226 0.97645 0.0
N881 N 0.24795 0.99142 0.00392 0.0
H882 H 0.97421 0.75446 0.95047 0.0
H883 H 0.04157 0.74704 0.04555 0.0
H884 H 0.98056 0.7179 0.91766 0.0
H885 H 0.04751 0.79009 0.01813 0.0
H886 H 0.01708 0.7361 0.01087 0.0
H887 H 0.99935 0.76785 0.98473 0.0
C888 C 0.98087 0.74929 0.9502 0.0
C889 C 0.97523 0.73499 0.93147 0.0
C890 C 0.02371 0.74795 0.01227 0.0
C891 C 1.00368 0.75006 0.97094 0.0
C892 C 0.03772 0.75424 0.03233 0.0
C893 C 0.0467 0.76953 0.03444 0.0
C894 C 0.01841 0.75693 -0.00569 0.0
C895 C 0.04097 0.77824 0.0169 0.0
C896 C 0.99518 0.75693 0.96962 0.0
C897 C 0.98435 0.72884 0.93186 0.0
N898 N 0.02712 0.7718 -0.00248 0.0
N899 N 0.998 0.73633 0.95163 0.0
H900 H 0.26234 0.22394 0.95219 0.0
H901 H 0.26984 0.30009 0.03707 0.0
H902 H 0.30056 0.26656 0.92922 0.0
H903 H 0.22732 0.26116 0.02194 0.0
H904 H 0.28122 0.28668 0.00511 0.0
H905 H 0.24914 0.23612 0.98393 0.0
C906 C 0.26793 0.23581 0.95373 0.0
C907 C 0.28261 0.24424 0.93823 0.0
C908 C 0.26939 0.28101 0.00856 0.0
C909 C 0.2677 0.25813 0.97457 0.0
C910 C 0.26285 0.28867 0.02705 0.0
C911 C 0.24758 0.28177 0.0321 0.0
C912 C 0.26067 0.26621 -0.0049 0.0
C913 C 0.23915 0.26692 0.01845 0.0
C914 C 0.2604 0.24273 0.97169 0.0
C915 C 0.28931 0.25957 0.94083 0.0
N916 N 0.24581 0.25958 0.00062 0.0
N917 N 0.28185 0.26596 0.95882 0.0
H918 H 0.79148 0.04191 0.94616 0.0
H919 H 0.71676 0.97397 0.04598 0.0
H920 H 0.74902 0.03865 0.93851 0.0
H921 H 0.75497 0.97001 0.01791 0.0
H922 H 0.72982 0.99892 0.01466 0.0
H923 H 0.77962 0.01669 0.97924 0.0
C924 C 0.77971 0.03592 0.95145 0.0
C925 C 0.77122 0.0424 0.93956 0.0
C926 C 0.7354 0.99264 0.01515 0.0
C927 C 0.7577 0.01376 0.97753 0.0
C928 C 0.72794 0.97835 0.03322 0.0
C929 C 0.73474 0.96983 0.03439 0.0
C930 C 0.74987 0.99863 -0.00186 0.0
C931 C 0.74929 0.97619 0.01746 0.0
C932 C 0.77296 0.02155 0.97016 0.0
C933 C 0.75602 0.03414 0.947 0.0
N934 N 0.75641 0.99026 0.0 0.0
N935 N 0.7498 0.02034 0.96561 0.0
H936 H 0.64032 0.55814 0.27664 0.0
H937 H 0.70783 0.6316 0.38173 0.0
H938 H 0.64622 0.60138 0.25485 0.0
H939 H 0.71282 0.59428 0.34756 0.0
H940 H 0.6833 0.61879 0.3466 0.0
H941 H 0.66533 0.5695 0.31153 0.0
C942 C 0.64687 0.56998 0.27895 0.0
C943 C 0.64117 0.57883 0.26293 0.0
C944 C 0.68973 0.61337 0.34665 0.0
C945 C 0.66946 0.59176 0.30332 0.0
C946 C 0.70375 0.62066 0.36696 0.0
C947 C 0.71246 0.61405 0.36733 0.0
C948 C 0.6842 0.59926 0.32673 0.0
C949 C 0.70649 0.59979 0.3478 0.0
C950 C 0.6611 0.57642 0.29875 0.0
C951 C 0.65012 0.5941 0.26666 0.0
N952 N 0.69266 0.59282 0.32825 0.0
N953 N 0.66371 0.60004 0.28681 0.0
H954 H 0.41817 0.05446 0.22526 0.0
H955 H 0.42468 0.12375 0.37043 0.0
H956 H 0.45823 0.08484 0.30082 0.0
H957 H 0.38435 0.08357 0.33995 0.0
H958 H 0.43844 0.1128 0.33306 0.0
H959 H 0.40709 0.06863 0.25279 0.0
C960 C 0.42468 0.06416 0.24767 0.0
C961 C 0.43907 0.06831 0.26151 0.0
C962 C 0.42658 0.10648 0.33454 0.0
C963 C 0.42632 0.08464 0.29363 0.0
C964 C 0.41875 0.11271 0.35561 0.0
C965 C 0.40338 0.10449 0.35852 0.0
C966 C 0.41888 0.09213 0.31545 0.0
C967 C 0.3962 0.09025 0.33898 0.0
C968 C 0.41832 0.07225 0.26343 0.0
C969 C 0.44704 0.08119 0.28974 0.0
N970 N 0.40398 0.08457 0.31823 0.0
N971 N 0.4405 0.08887 0.30538 0.0
H972 H 0.93758 0.31079 0.38939 0.0
H973 H 0.92875 0.37643 0.2789 0.0
H974 H 0.89493 0.304 0.34922 0.0
H975 H 0.9687 0.37447 0.27755 0.0
H976 H 0.91573 0.35133 0.31352 0.0
H977 H 0.94872 0.33578 0.35922 0.0
C978 C 0.93051 0.31455 0.37418 0.0
C979 C 0.91528 0.30519 0.3714 0.0
C980 C 0.92734 0.35646 0.30549 0.0
C981 C 0.92812 0.33407 0.33633 0.0
C982 C 0.93477 0.37076 0.28593 0.0
C983 C 0.94984 0.37755 0.27528 0.0
C984 C 0.93514 0.34911 0.31504 0.0
C985 C 0.9571 0.36971 0.28496 0.0
C986 C 0.93692 0.32887 0.35679 0.0
C987 C 0.90673 0.31083 0.35173 0.0
N988 N 0.94971 0.35601 0.30437 0.0
N989 N 0.91328 0.32495 0.33474 0.0
H990 H 0.71293 0.12334 0.35384 0.0
H991 H 0.64297 0.04719 0.27508 0.0
H992 H 0.70781 0.08056 0.37961 0.0
H993 H 0.64037 0.0867 0.28613 0.0
H994 H 0.66789 0.06045 0.30633 0.0
H995 H 0.6874 0.11133 0.32314 0.0
C996 C 0.70647 0.11148 0.35313 0.0
C997 C 0.71255 0.10295 0.36914 0.0
C998 C 0.66193 0.06629 0.30218 0.0
C999 C 0.68357 0.08924 0.334 0.0
C1000 C 0.64765 0.0587 0.28411 0.0
C1001 C 0.63951 0.06582 0.27806 0.0
C1002 C 0.66834 0.08123 0.31419 0.0
C1003 C 0.64624 0.08078 0.29045 0.0
C1004 C 0.69193 0.10465 0.33576 0.0
C1005 C 0.70368 0.08763 0.36759 0.0
N1006 N 0.66033 0.08805 0.30784 0.0
N1007 N 0.68975 0.08133 0.35019 0.0
H1008 H 0.89597 0.59521 0.3541 0.0
H1009 H 0.97235 0.60138 0.28057 0.0
H1010 H 0.93853 0.63282 0.38363 0.0
H1011 H 0.93206 0.55968 0.28235 0.0
H1012 H 0.95931 0.61306 0.31364 0.0
H1013 H 0.90812 0.5819 0.3238 0.0
C1014 C 0.90783 0.60064 0.35435 0.0
C1015 C 0.91625 0.61517 0.37126 0.0
C1016 C 0.95326 0.60134 0.30705 0.0
C1017 C 0.93014 0.60011 0.33654 0.0
C1018 C 0.96072 0.59465 0.28795 0.0
C1019 C 0.9533 0.57951 0.27864 0.0
C1020 C 0.93817 0.59293 0.31671 0.0
C1021 C 0.93821 0.57138 0.28913 0.0
C1022 C 0.91474 0.59304 0.33717 0.0
C1023 C 0.93157 0.62167 0.37088 0.0
N1024 N 0.93109 0.57821 0.30743 0.0
N1025 N 0.93798 0.61414 0.35362 0.0
H1026 H 0.45838 0.37528 0.2845 0.0
H1027 H 0.38271 0.3063 0.36702 0.0
H1028 H 0.41572 0.36872 0.2459 0.0
H1029 H 0.42176 0.30287 0.35581 0.0
H1030 H 0.39594 0.33069 0.33131 0.0
H1031 H 0.44644 0.35004 0.3175 0.0
C1032 C 0.44655 0.36854 0.28272 0.0
C1033 C 0.43802 0.37415 0.26267 0.0
C1034 C 0.40166 0.32464 0.3364 0.0
C1035 C 0.4244 0.34552 0.30064 0.0
C1036 C 0.39412 0.31069 0.35708 0.0
C1037 C 0.40111 0.30248 0.36434 0.0
C1038 C 0.41644 0.33065 0.32307 0.0
C1039 C 0.41594 0.30882 0.35065 0.0
C1040 C 0.43978 0.35416 0.30143 0.0
C1041 C 0.42276 0.36493 0.26113 0.0
N1042 N 0.42318 0.32261 0.33079 0.0
N1043 N 0.41647 0.35118 0.28019 0.0
H1044 H 0.32013 0.92603 0.54731 0.0
H1045 H 0.3706 0.93716 0.77341 0.0
H1046 H 0.30415 0.89323 0.66301 0.0
H1047 H 0.38855 0.94598 0.62515 0.0
H1048 H 0.34582 0.92255 0.73792 0.0
H1049 H 0.34518 0.93554 0.57843 0.0
C1050 C 0.32193 0.9208 0.57915 0.0
C1051 C 0.31011 0.90886 0.60275 0.0
C1052 C 0.35522 0.92744 0.71328 0.0
C1053 C 0.3386 0.91985 0.639 0.0
C1054 C 0.36929 0.93574 0.73343 0.0
C1055 C 0.38151 0.94255 0.70197 0.0
C1056 C 0.35341 0.92651 0.66138 0.0
C1057 C 0.37934 0.94068 0.65044 0.0
C1058 C 0.3362 0.92616 0.59664 0.0
C1059 C 0.31301 0.90243 0.64374 0.0
N1060 N 0.3655 0.93305 0.6316 0.0
N1061 N 0.32697 0.90819 0.66125 0.0
H1062 H 0.04978 0.41323 0.701 0.0
H1063 H 0.1257 0.42059 0.61607 0.0
H1064 H 0.08861 0.45583 0.68604 0.0
H1065 H 0.08303 0.38288 0.58856 0.0
H1066 H 0.1136 0.43386 0.64772 0.0
H1067 H 0.06311 0.40196 0.66743 0.0
C1068 C 0.06116 0.42026 0.69065 0.0
C1069 C 0.06806 0.43553 0.69627 0.0
C1070 C 0.10696 0.42271 0.63445 0.0
C1071 C 0.08353 0.42255 0.65741 0.0
C1072 C 0.11383 0.41512 0.61653 0.0
C1073 C 0.10536 0.40055 0.59994 0.0
C1074 C 0.09156 0.41555 0.63624 0.0
C1075 C 0.09005 0.39404 0.60114 0.0
C1076 C 0.06878 0.41379 0.67122 0.0
C1077 C 0.08286 0.44401 0.68215 0.0
N1078 N 0.08369 0.40153 0.61921 0.0
N1079 N 0.09016 0.4374 0.66346 0.0
H1080 H 0.59108 0.64963 0.76523 0.0
H1081 H 0.61442 0.69925 0.53508 0.0
H1082 H 0.56521 0.63184 0.63218 0.0
H1083 H 0.60779 0.71663 0.67157 0.0
H1084 H 0.59936 0.67427 0.56832 0.0
H1085 H 0.60056 0.67448 0.73169 0.0
C1086 C 0.5873 0.651 0.72918 0.0
C1087 C 0.57733 0.63876 0.70139 0.0
C1088 C 0.60104 0.68356 0.59057 0.0
C1089 C 0.58842 0.66694 0.66249 0.0
C1090 C 0.60963 0.69775 0.57181 0.0
C1091 C 0.61223 0.70991 0.6007 0.0
C1092 C 0.59555 0.68162 0.63921 0.0
C1093 C 0.60588 0.70747 0.64813 0.0
C1094 C 0.59265 0.66513 0.71026 0.0
C1095 C 0.5728 0.64106 0.65479 0.0
N1096 N 0.59808 0.69358 0.66647 0.0
N1097 N 0.57863 0.65491 0.63619 0.0
H1098 H 0.37771 0.41412 0.6951 0.0
H1099 H 0.30765 0.42045 0.6235 0.0
H1100 H 0.38044 0.4564 0.69187 0.0
H1101 H 0.31418 0.38448 0.58276 0.0
H1102 H 0.3331 0.43386 0.65504 0.0
H1103 H 0.35307 0.40295 0.66181 0.0
C1104 C 0.3731 0.42109 0.68752 0.0
C1105 C 0.38119 0.43624 0.69634 0.0
C1106 C 0.3289 0.42306 0.63886 0.0
C1107 C 0.35268 0.42338 0.65781 0.0
C1108 C 0.31441 0.41541 0.62101 0.0
C1109 C 0.30873 0.40126 0.60081 0.0
C1110 C 0.3376 0.41641 0.63684 0.0
C1111 C 0.31798 0.39528 0.5983 0.0
C1112 C 0.35899 0.41469 0.66819 0.0
C1113 C 0.37458 0.44467 0.68543 0.0
N1114 N 0.33184 0.40282 0.61631 0.0
N1115 N 0.36062 0.43811 0.66689 0.0
H1116 H 0.62765 0.93128 0.55817 0.0
H1117 H 0.55899 0.92562 0.70432 0.0
H1118 H 0.59762 0.89122 0.63441 0.0
H1119 H 0.60013 0.96538 0.67862 0.0
H1120 H 0.56947 0.91148 0.66615 0.0
H1121 H 0.61363 0.94237 0.58687 0.0
C1122 C 0.61805 0.92476 0.58096 0.0
C1123 C 0.61398 0.91037 0.59468 0.0
C1124 C 0.57609 0.9233 0.66894 0.0
C1125 C 0.5978 0.92317 0.62817 0.0
C1126 C 0.57013 0.93135 0.69043 0.0
C1127 C 0.57875 0.94668 0.69487 0.0
C1128 C 0.59057 0.93076 0.65092 0.0
C1129 C 0.59312 0.95359 0.67646 0.0
C1130 C 0.61004 0.93114 0.5974 0.0
C1131 C 0.60121 0.90241 0.62343 0.0
N1132 N 0.59851 0.94562 0.65526 0.0
N1133 N 0.5936 0.90897 0.63976 0.0
H1134 H 0.09101 0.63803 0.68892 0.0
H1135 H 0.08454 0.70663 0.59579 0.0
H1136 H 0.05272 0.64257 0.70531 0.0
H1137 H 0.12691 0.71059 0.61963 0.0
H1138 H 0.07284 0.68176 0.62745 0.0
H1139 H 0.10459 0.66338 0.65655 0.0
C1140 C 0.08548 0.64432 0.68575 0.0
C1141 C 0.07068 0.63814 0.69968 0.0
C1142 C 0.08471 0.68801 0.62597 0.0
C1143 C 0.08602 0.66689 0.66262 0.0
C1144 C 0.09143 0.70226 0.60765 0.0
C1145 C 0.10675 0.71077 0.60518 0.0
C1146 C 0.09329 0.68202 0.64188 0.0
C1147 C 0.11505 0.70442 0.62112 0.0
C1148 C 0.09323 0.65876 0.66746 0.0
C1149 C 0.06407 0.64679 0.69501 0.0
N1150 N 0.1082 0.69036 0.63878 0.0
N1151 N 0.07174 0.66061 0.67675 0.0
H1152 H 0.12276 0.37419 0.7221 0.0
H1153 H 0.08378 0.30859 0.91919 0.0
H1154 H 0.09508 0.32876 0.6806 0.0
H1155 H 0.11761 0.35268 0.95655 0.0
H1156 H 0.08518 0.3163 0.83237 0.0
H1157 H 0.11802 0.36702 0.80977 0.0
C1158 C 0.11557 0.36275 0.73141 0.0
C1159 C 0.1095 0.35203 0.6941 0.0
C1160 C 0.09226 0.32425 0.85975 0.0
C1161 C 0.10407 0.34376 0.79397 0.0
C1162 C 0.0915 0.31985 0.90924 0.0
C1163 C 0.10067 0.32995 0.94525 0.0
C1164 C 0.10223 0.33884 0.84633 0.0
C1165 C 0.11036 0.34446 0.93021 0.0
C1166 C 0.11292 0.35865 0.78139 0.0
C1167 C 0.10022 0.33736 0.70823 0.0
N1168 N 0.1109 0.34844 0.88196 0.0
N1169 N 0.09785 0.33364 0.75705 0.0
H1170 H 0.66186 0.75948 0.96037 0.0
H1171 H 0.68897 0.76731 0.67971 0.0
H1172 H 0.70748 0.78012 0.91775 0.0
H1173 H 0.64356 0.74905 0.72214 0.0
H1174 H 0.69562 0.7688 0.76712 0.0
H1175 H 0.65484 0.75258 0.87415 0.0
C1176 C 0.67044 0.76259 0.93289 0.0
C1177 C 0.68532 0.77065 0.94626 0.0
C1178 C 0.68419 0.76438 0.75735 0.0
C1179 C 0.67726 0.76269 0.8472 0.0
C1180 C 0.68036 0.76353 0.70741 0.0
C1181 C 0.6657 0.75832 0.69361 0.0
C1182 C 0.67331 0.76006 0.79389 0.0
C1183 C 0.65502 0.7533 0.73109 0.0
C1184 C 0.66638 0.75857 0.88361 0.0
C1185 C 0.69589 0.77407 0.90908 0.0
N1186 N 0.65907 0.75446 0.77964 0.0
N1187 N 0.69165 0.77018 0.86108 0.0
H1188 H 0.23417 0.92935 0.91678 0.0
H1189 H 0.2735 0.90337 0.71958 0.0
H1190 H 0.26206 0.9118 0.95725 0.0
H1191 H 0.24192 0.91653 0.68056 0.0
H1192 H 0.27198 0.90945 0.80645 0.0
H1193 H 0.23962 0.92798 0.82907 0.0
C1194 C 0.24154 0.92535 0.90727 0.0
C1195 C 0.24746 0.92044 0.94426 0.0
C1196 C 0.26544 0.91105 0.77871 0.0
C1197 C 0.25372 0.91883 0.84434 0.0
C1198 C 0.26628 0.90755 0.72915 0.0
C1199 C 0.25771 0.90927 0.69272 0.0
C1200 C 0.25595 0.91627 0.79181 0.0
C1201 C 0.24866 0.91489 0.70729 0.0
C1202 C 0.24462 0.92453 0.85724 0.0
C1203 C 0.25701 0.91543 0.92988 0.0
N1204 N 0.24797 0.9181 0.75568 0.0
N1205 N 0.25977 0.91466 0.88104 0.0
H1206 H 0.35665 0.11495 0.01313 0.0
H1207 H 0.33011 0.09311 0.29368 0.0
H1208 H 0.31181 0.08421 0.05399 0.0
H1209 H 0.37545 0.12089 0.25167 0.0
H1210 H 0.32336 0.08902 0.20606 0.0
H1211 H 0.36377 0.11668 0.09999 0.0
C1212 C 0.34826 0.10855 0.04032 0.0
C1213 C 0.33354 0.0995 0.02611 0.0
C1214 C 0.33479 0.09598 0.21593 0.0
C1215 C 0.34173 0.10145 0.12605 0.0
C1216 C 0.33867 0.09837 0.26601 0.0
C1217 C 0.35337 0.10753 0.28007 0.0
C1218 C 0.34565 0.10288 0.17948 0.0
C1219 C 0.36399 0.11382 0.24254 0.0
C1220 C 0.35238 0.10952 0.09001 0.0
C1221 C 0.32325 0.0914 0.06317 0.0
N1222 N 0.3599 0.11147 0.19389 0.0
N1223 N 0.32754 0.09263 0.11151 0.0
H1224 H 0.92798 0.24597 0.29179 0.0
H1225 H 0.89794 0.23921 0.01571 0.0
H1226 H 0.8957 0.25784 0.24986 0.0
H1227 H 0.93501 0.23396 0.05246 0.0
H1228 H 0.89719 0.2462 0.10123 0.0
H1229 H 0.93133 0.2423 0.20427 0.0
C1230 C 0.92165 0.24789 0.26405 0.0
C1231 C 0.91139 0.25202 0.27806 0.0
C1232 C 0.90553 0.24359 0.09063 0.0
C1233 C 0.91508 0.24769 0.1779 0.0
C1234 C 0.90595 0.23952 0.04172 0.0
C1235 C 0.91655 0.23593 0.02672 0.0
C1236 C 0.91573 0.24404 0.12515 0.0
C1237 C 0.9266 0.23654 0.06235 0.0
C1238 C 0.9236 0.24581 0.2141 0.0
C1239 C 0.90369 0.2546 0.24063 0.0
N1240 N 0.92591 0.24049 0.11002 0.0
N1241 N 0.90556 0.25221 0.19219 0.0
H1242 H 0.74852 0.64106 0.25253 0.0
H1243 H 0.78346 0.70631 0.05418 0.0
H1244 H 0.77826 0.68647 0.28994 0.0
H1245 H 0.7567 0.66053 0.01529 0.0
H1246 H 0.77813 0.69969 0.14201 0.0
H1247 H 0.74816 0.64844 0.1665 0.0
C1248 C 0.75493 0.65256 0.24277 0.0
C1249 C 0.76365 0.66311 0.27837 0.0
C1250 C 0.77331 0.69112 0.11416 0.0
C1251 C 0.76322 0.67163 0.18021 0.0
C1252 C 0.77632 0.6949 0.06403 0.0
C1253 C 0.7708 0.68392 0.0275 0.0
C1254 C 0.76472 0.67627 0.12762 0.0
C1255 C 0.76149 0.66932 0.04234 0.0
C1256 C 0.75469 0.65678 0.1937 0.0
C1257 C 0.77156 0.6779 0.26368 0.0
N1258 N 0.75887 0.66591 0.0913 0.0
N1259 N 0.77125 0.68169 0.21568 0.0
H1260 H 0.93596 0.7074 0.05346 0.0
H1261 H 0.90442 0.64163 0.25052 0.0
H1262 H 0.91413 0.66153 0.01313 0.0
H1263 H 0.92249 0.6873 0.28957 0.0
H1264 H 0.91125 0.64893 0.16379 0.0
H1265 H 0.93464 0.70041 0.14092 0.0
C1266 C 0.93103 0.69588 0.0629 0.0
C1267 C 0.92489 0.68502 0.02603 0.0
C1268 C 0.91378 0.65734 0.1915 0.0
C1269 C 0.9233 0.67696 0.12579 0.0
C1270 C 0.90986 0.65317 0.24098 0.0
C1271 C 0.91264 0.66383 0.27726 0.0
C1272 C 0.92052 0.67225 0.17837 0.0
C1273 C 0.91988 0.67865 0.2628 0.0
C1274 C 0.93024 0.69189 0.11282 0.0
C1275 C 0.91874 0.67027 0.04039 0.0
N1276 N 0.92347 0.6824 0.21447 0.0
N1277 N 0.91798 0.66667 0.08917 0.0
H1278 H 0.30837 0.22744 0.05721 0.0
H1279 H 0.37398 0.26373 0.25517 0.0
H1280 H 0.35422 0.25233 0.0173 0.0
H1281 H 0.32873 0.23387 0.29396 0.0
H1282 H 0.36659 0.26229 0.16809 0.0
H1283 H 0.31533 0.23249 0.145 0.0
C1284 C 0.31987 0.23404 0.06685 0.0
C1285 C 0.33074 0.23925 0.02996 0.0
C1286 C 0.3583 0.25609 0.1958 0.0
C1287 C 0.33876 0.24507 0.12998 0.0
C1288 C 0.36252 0.25688 0.24548 0.0
C1289 C 0.35201 0.24876 0.28191 0.0
C1290 C 0.34349 0.24713 0.18257 0.0
C1291 C 0.33727 0.24021 0.26718 0.0
C1292 C 0.32384 0.23689 0.11692 0.0
C1293 C 0.34547 0.24784 0.04454 0.0
N1294 N 0.33347 0.23957 0.21866 0.0
N1295 N 0.34905 0.25041 0.09341 0.0
H1296 H 0.78464 0.08232 0.05326 0.0
H1297 H 0.75423 0.11788 0.24949 0.0
H1298 H 0.76739 0.1105 0.0129 0.0
H1299 H 0.77593 0.0938 0.29049 0.0
H1300 H 0.75601 0.11255 0.16194 0.0
H1301 H 0.7787 0.08383 0.14027 0.0
C1302 C 0.77959 0.08879 0.06259 0.0
C1303 C 0.77671 0.09646 0.02575 0.0
C1304 C 0.76031 0.10838 0.19022 0.0
C1305 C 0.76984 0.09818 0.12501 0.0
C1306 C 0.75927 0.1114 0.24016 0.0
C1307 C 0.76516 0.1065 0.2773 0.0
C1308 C 0.76723 0.10037 0.17751 0.0
C1309 C 0.77148 0.09805 0.26308 0.0
C1310 C 0.77619 0.08963 0.11223 0.0
C1311 C 0.77001 0.10456 0.04002 0.0
N1312 N 0.77242 0.09533 0.21433 0.0
N1313 N 0.76687 0.10525 0.0885 0.0
H1314 H 0.64266 0.89567 0.72172 0.0
H1315 H 0.70791 0.93251 0.92098 0.0
H1316 H 0.68803 0.92485 0.68302 0.0
H1317 H 0.6636 0.89892 0.95668 0.0
H1318 H 0.70026 0.93213 0.83475 0.0
H1319 H 0.64954 0.8994 0.80982 0.0
C1320 C 0.65402 0.903 0.73174 0.0
C1321 C 0.66482 0.90978 0.695 0.0
C1322 C 0.69223 0.92488 0.86159 0.0
C1323 C 0.67276 0.91402 0.79539 0.0
C1324 C 0.6966 0.92506 0.91078 0.0
C1325 C 0.68643 0.91565 0.94614 0.0
C1326 C 0.6776 0.91524 0.84773 0.0
C1327 C 0.67188 0.90631 0.93078 0.0
C1328 C 0.65796 0.90507 0.78198 0.0
C1329 C 0.67937 0.91919 0.71009 0.0
N1330 N 0.66792 0.90632 0.88275 0.0
N1331 N 0.68293 0.92095 0.7591 0.0
H1332 H 0.10093 0.77774 0.67789 0.0
H1333 H 0.10605 0.75609 0.95821 0.0
H1334 H 0.11807 0.74958 0.71993 0.0
H1335 H 0.08936 0.78459 0.91612 0.0
H1336 H 0.10783 0.7513 0.87061 0.0
H1337 H 0.09423 0.77823 0.76405 0.0
C1338 C 0.1033 0.77163 0.7052 0.0
C1339 C 0.1103 0.76377 0.69164 0.0
C1340 C 0.10371 0.75854 0.88047 0.0
C1341 C 0.10256 0.76429 0.7907 0.0
C1342 C 0.10271 0.76132 0.9305 0.0
C1343 C 0.09781 0.77099 0.94446 0.0
C1344 C 0.09989 0.76557 0.84401 0.0
C1345 C 0.09333 0.77717 0.90701 0.0
C1346 C 0.09939 0.77189 0.75447 0.0
C1347 C 0.11284 0.75591 0.7287 0.0
N1348 N 0.09465 0.77449 0.85838 0.0
N1349 N 0.10907 0.75647 0.77666 0.0
H1350 H 0.23202 0.30764 0.91593 0.0
H1351 H 0.26879 0.37349 0.71896 0.0
H1352 H 0.25452 0.35354 0.95609 0.0
H1353 H 0.24142 0.32789 0.67845 0.0
H1354 H 0.26645 0.36616 0.80641 0.0
H1355 H 0.23807 0.3147 0.82862 0.0
C1356 C 0.23827 0.31918 0.90648 0.0
C1357 C 0.24257 0.33 0.94332 0.0
C1358 C 0.26101 0.35777 0.77826 0.0
C1359 C 0.24958 0.33815 0.84374 0.0
C1360 C 0.26236 0.36195 0.72834 0.0
C1361 C 0.25512 0.35133 0.69131 0.0
C1362 C 0.2524 0.34288 0.79112 0.0
C1363 C 0.24704 0.33652 0.70569 0.0
C1364 C 0.24172 0.32321 0.85666 0.0
C1365 C 0.25075 0.3448 0.92891 0.0
N1366 N 0.24583 0.33275 0.75444 0.0
N1367 N 0.25393 0.34843 0.88027 0.0
H1368 H 0.04164 0.45147 0.58366 0.0
H1369 H 0.97577 0.41842 0.38598 0.0
H1370 H 0.99581 0.42978 0.62413 0.0
H1371 H 0.02139 0.44598 0.3466 0.0
H1372 H 0.98301 0.42001 0.47334 0.0
H1373 H 0.03447 0.44695 0.49595 0.0
C1374 C 0.03009 0.44571 0.57419 0.0
C1375 C 0.01933 0.44118 0.61131 0.0
C1376 C 0.99142 0.42568 0.44546 0.0
C1377 C 0.01106 0.43596 0.51122 0.0
C1378 C 0.98728 0.42478 0.3956 0.0
C1379 C 0.99795 0.43221 0.35889 0.0
C1380 C 1.00631 0.434 0.45859 0.0
C1381 C 0.01274 0.4402 0.37359 0.0
C1382 C 0.026 0.44315 0.52413 0.0
C1383 C 1.00451 0.43367 0.59681 0.0
N1384 N 0.01647 0.44091 0.42225 0.0
N1385 N 1.00082 0.43135 0.54794 0.0
H1386 H 0.60346 0.56843 0.38551 0.0
H1387 H 0.57352 0.6033 0.58515 0.0
H1388 H 0.58304 0.59391 0.34706 0.0
H1389 H 0.59245 0.5764 0.62302 0.0
H1390 H 0.57982 0.60266 0.498 0.0
H1391 H 0.60263 0.57412 0.47319 0.0
C1392 C 0.59896 0.57535 0.3954 0.0
C1393 C 0.59306 0.58046 0.35897 0.0
C1394 C 0.58267 0.59698 0.52552 0.0
C1395 C 0.59201 0.58696 0.45908 0.0
C1396 C 0.57905 0.59733 0.57527 0.0
C1397 C 0.58225 0.58972 0.61144 0.0
C1398 C 0.5895 0.58896 0.51191 0.0
C1399 C 0.58958 0.58229 0.59645 0.0
C1400 C 0.59845 0.57857 0.44547 0.0
C1401 C 0.58747 0.58949 0.37394 0.0
N1402 N 0.59284 0.58201 0.54782 0.0
N1403 N 0.58695 0.59232 0.42288 0.0
H1404 H 0.41601 0.97508 0.5888 0.0
H1405 H 0.44976 0.04035 0.39053 0.0
H1406 H 0.44016 0.02106 0.62803 0.0
H1407 H 0.42531 0.99439 0.35147 0.0
H1408 H 0.44358 0.03362 0.47797 0.0
H1409 H 0.41661 0.98204 0.50165 0.0
C1410 C 0.42137 0.98662 0.57921 0.0
C1411 C 0.42829 0.99748 0.61573 0.0
C1412 C 0.43948 0.02503 0.45013 0.0
C1413 C 0.42902 1.00552 0.51622 0.0
C1414 C 0.443 0.02887 0.40023 0.0
C1415 C 0.43833 0.01791 0.36376 0.0
C1416 C 0.43125 0.01013 0.46348 0.0
C1417 C 0.42945 1.00321 0.37842 0.0
C1418 C 0.42169 0.99059 0.52947 0.0
C1419 C 0.43488 0.01227 0.60115 0.0
N1420 N 0.42633 0.99975 0.42716 0.0
N1421 N 0.4352 0.01584 0.55251 0.0
H1422 H 0.59361 0.02116 0.63011 0.0
H1423 H 0.56713 0.99485 0.35238 0.0
H1424 H 0.56369 0.9761 0.58943 0.0
H1425 H 0.60088 0.03898 0.38976 0.0
H1426 H 0.56603 0.98786 0.439 0.0
H1427 H 0.59692 0.02782 0.54233 0.0
C1428 C 0.58775 0.01264 0.60269 0.0
C1429 C 0.57821 0.99806 0.61715 0.0
C1430 C 0.57372 0.99906 0.42831 0.0
C1431 C 0.58194 1.00566 0.51657 0.0
C1432 C 0.57434 1.00311 0.37876 0.0
C1433 C 0.58409 0.01759 0.36364 0.0
C1434 C 0.58285 0.00953 0.46331 0.0
C1435 C 0.59315 0.02773 0.3997 0.0
C1436 C 0.58969 0.01646 0.55255 0.0
C1437 C 0.5711 0.98747 0.57998 0.0
N1438 N 0.59227 0.02351 0.44799 0.0
N1439 N 0.57302 0.99151 0.53134 0.0
H1440 H 0.02304 0.57461 0.34706 0.0
H1441 H 0.99874 0.57751 0.62522 0.0
H1442 H 0.9801 0.56743 0.38554 0.0
H1443 H 0.0433 0.59108 0.5832 0.0
H1444 H 0.9918 0.57421 0.53765 0.0
H1445 H 0.03055 0.58061 0.43335 0.0
C1446 C 0.01514 0.57428 0.37361 0.0
C1447 C 1.00086 0.57045 0.35888 0.0
C1448 C 1.00311 0.57799 0.54748 0.0
C1449 C 1.00951 0.57741 0.45812 0.0
C1450 C 1.00709 0.57985 0.59748 0.0
C1451 C 0.02159 0.5844 0.61147 0.0
C1452 C 0.01367 0.58054 0.51116 0.0
C1453 C 0.03199 0.58751 0.574 0.0
C1454 C 0.0195 0.57778 0.42295 0.0
C1455 C 0.99118 0.57023 0.39517 0.0
N1456 N 0.02778 0.58536 0.52547 0.0
N1457 N 0.99568 0.57364 0.4432 0.0
H1458 H 0.42661 0.43685 0.34106 0.0
H1459 H 0.44238 0.42461 0.62164 0.0
H1460 H 0.44865 0.41321 0.38355 0.0
H1461 H 0.42068 0.44867 0.58027 0.0
H1462 H 0.44211 0.4179 0.535 0.0
H1463 H 0.42154 0.4386 0.42841 0.0
C1464 C 0.43031 0.43193 0.36872 0.0
C1465 C 0.43832 0.4251 0.355 0.0
C1466 C 0.43734 0.42459 0.54481 0.0
C1467 C 0.43257 0.42714 0.45516 0.0
C1468 C 0.43754 0.4285 0.59433 0.0
C1469 C 0.43176 0.43744 0.6082 0.0
C1470 C 0.43141 0.42972 0.50861 0.0
C1471 C 0.42539 0.44188 0.57121 0.0
C1472 C 0.42738 0.43293 0.41863 0.0
C1473 C 0.44258 0.41871 0.39241 0.0
N1474 N 0.42552 0.43809 0.52295 0.0
N1475 N 0.43979 0.42004 0.44089 0.0
H1476 H 0.10227 0.34322 0.17093 0.0
H1477 H 0.10409 0.33804 0.46684 0.0
H1478 H 0.08271 0.30211 0.25069 0.0
H1479 H 0.11963 0.37877 0.38702 0.0
H1480 H 0.09756 0.32484 0.38814 0.0
H1481 H 0.10979 0.35635 0.24949 0.0
C1482 C 0.09956 0.33692 0.2051 0.0
C1483 C 0.09183 0.32152 0.20432 0.0
C1484 C 0.10241 0.33665 0.38772 0.0
C1485 C 0.10048 0.3366 0.29472 0.0
C1486 C 0.10619 0.34424 0.43266 0.0
C1487 C 0.11238 0.35956 0.43345 0.0
C1488 C 0.10482 0.34441 0.34307 0.0
C1489 C 0.11487 0.36698 0.38805 0.0
C1490 C 0.10386 0.34447 0.25 0.0
C1491 C 0.0886 0.31399 0.24971 0.0
N1492 N 0.11104 0.35931 0.3446 0.0
N1493 N 0.09297 0.32162 0.29323 0.0
H1494 H 0.67796 0.76884 0.46681 0.0
H1495 H 0.67223 0.76356 0.17103 0.0
H1496 H 0.6368 0.74594 0.3877 0.0
H1497 H 0.71334 0.78462 0.25092 0.0
H1498 H 0.65912 0.75831 0.24953 0.0
H1499 H 0.69091 0.77612 0.38807 0.0
C1500 C 0.6716 0.76537 0.43279 0.0
C1501 C 0.65624 0.75669 0.43382 0.0
C1502 C 0.67099 0.76412 0.25004 0.0
C1503 C 0.67114 0.76493 0.34315 0.0
C1504 C 0.67853 0.76714 0.2052 0.0
C1505 C 0.69393 0.77451 0.20452 0.0
C1506 C 0.67888 0.7685 0.29475 0.0
C1507 C 0.70147 0.77885 0.24987 0.0
C1508 C 0.67905 0.76954 0.38775 0.0
C1509 C 0.64864 0.7526 0.38852 0.0
N1510 N 0.69385 0.77575 0.29329 0.0
N1511 N 0.6562 0.7567 0.34486 0.0
H1512 H 0.25217 0.9105 0.17113 0.0
H1513 H 0.25471 0.91803 0.46669 0.0
H1514 H 0.23565 0.93462 0.25193 0.0
H1515 H 0.2724 0.89464 0.3878 0.0
H1516 H 0.2469 0.92329 0.38834 0.0
H1517 H 0.25863 0.90362 0.24963 0.0
C1518 C 0.24983 0.9143 0.20548 0.0
C1519 C 0.2434 0.92321 0.20506 0.0
C1520 C 0.25246 0.91699 0.38792 0.0
C1521 C 0.25088 0.91539 0.29513 0.0
C1522 C 0.25694 0.91395 0.43275 0.0
C1523 C 0.26424 0.90586 0.43378 0.0
C1524 C 0.25527 0.91195 0.3434 0.0
C1525 C 0.26685 0.90094 0.3886 0.0
C1526 C 0.25356 0.91037 0.25029 0.0
C1527 C 0.24061 0.92777 0.25061 0.0
N1528 N 0.26236 0.90408 0.34505 0.0
N1529 N 0.24443 0.92385 0.29389 0.0
H1530 H 0.38233 0.11797 0.58389 0.0
H1531 H 0.30449 0.07542 0.72315 0.0
H1532 H 0.34082 0.09382 0.50762 0.0
H1533 H 0.34576 0.10223 0.79831 0.0
H1534 H 0.31763 0.08156 0.64347 0.0
H1535 H 0.36916 0.11173 0.66351 0.0
C1536 C 0.37048 0.11133 0.58396 0.0
C1537 C 0.36265 0.10643 0.53924 0.0
C1538 C 0.32378 0.08612 0.67748 0.0
C1539 C 0.34753 0.09926 0.62965 0.0
C1540 C 0.31627 0.08262 0.72285 0.0
C1541 C 0.32403 0.08832 0.7673 0.0
C1542 C 0.33913 0.09535 0.67681 0.0
C1543 C 0.33932 0.09758 0.76492 0.0
C1544 C 0.36295 0.10779 0.62927 0.0
C1545 C 0.34729 0.09789 0.54128 0.0
N1546 N 0.34635 0.10078 0.72051 0.0
N1547 N 0.34024 0.09457 0.58568 0.0
H1548 H 0.91288 0.24507 0.80053 0.0
H1549 H 0.92115 0.24776 0.50514 0.0
H1550 H 0.93929 0.23067 0.72277 0.0
H1551 H 0.89929 0.26696 0.58466 0.0
H1552 H 0.92672 0.24021 0.5839 0.0
H1553 H 0.9066 0.25174 0.72151 0.0
C1554 C 0.91735 0.24326 0.76672 0.0
C1555 C 0.92667 0.23732 0.7682 0.0
C1556 C 0.92071 0.24607 0.58425 0.0
C1557 C 0.91951 0.24504 0.67735 0.0
C1558 C 0.91748 0.25038 0.53928 0.0
C1559 C 0.90974 0.25802 0.53842 0.0
C1560 C 0.91611 0.24936 0.62888 0.0
C1561 C 0.90531 0.26112 0.58373 0.0
C1562 C 0.91376 0.24713 0.72157 0.0
C1563 C 0.93209 0.23524 0.72324 0.0
N1564 N 0.90856 0.25676 0.62725 0.0
N1565 N 0.92843 0.23912 0.6795 0.0
H1566 H 0.76774 0.66908 0.80078 0.0
H1567 H 0.77521 0.6748 0.50518 0.0
H1568 H 0.78968 0.71012 0.72072 0.0
H1569 H 0.74863 0.63396 0.58293 0.0
H1570 H 0.78272 0.68753 0.5844 0.0
H1571 H 0.76273 0.65589 0.72227 0.0
C1572 C 0.77158 0.67534 0.76662 0.0
C1573 C 0.77908 0.69075 0.76719 0.0
C1574 C 0.77529 0.67579 0.58431 0.0
C1575 C 0.77334 0.67563 0.6771 0.0
C1576 C 0.77099 0.66846 0.53902 0.0
C1577 C 0.76118 0.65327 0.53747 0.0
C1578 C 0.76973 0.66792 0.62862 0.0
C1579 C 0.75616 0.64567 0.58252 0.0
C1580 C 0.76868 0.66777 0.7218 0.0
C1581 C 0.78381 0.69825 0.72188 0.0
N1582 N 0.76044 0.65311 0.62642 0.0
N1583 N 0.78081 0.6906 0.67854 0.0
H1584 H 0.91619 0.67714 0.50327 0.0
H1585 H 0.91473 0.67176 0.79941 0.0
H1586 H 0.8996 0.63631 0.58341 0.0
H1587 H 0.93604 0.71285 0.71949 0.0
H1588 H 0.90706 0.65866 0.72084 0.0
H1589 H 0.9214 0.69022 0.58192 0.0
C1590 C 0.91358 0.67089 0.5375 0.0
C1591 C 0.90751 0.65559 0.53684 0.0
C1592 C 0.91337 0.67053 0.72033 0.0
C1593 C 0.91354 0.67061 0.62721 0.0
C1594 C 0.91776 0.67807 0.76524 0.0
C1595 C 0.92612 0.69346 0.76596 0.0
C1596 C 0.91736 0.6784 0.67557 0.0
C1597 C 0.92966 0.70099 0.72054 0.0
C1598 C 0.91659 0.67841 0.58243 0.0
C1599 C 0.90433 0.64811 0.58231 0.0
N1600 N 0.92529 0.69337 0.67703 0.0
N1601 N 0.90743 0.65572 0.62579 0.0
H1602 H 0.34476 0.24519 0.80284 0.0
H1603 H 0.33953 0.24898 0.50762 0.0
H1604 H 0.30428 0.23163 0.72359 0.0
H1605 H 0.38056 0.26533 0.58629 0.0
H1606 H 0.3265 0.2419 0.58631 0.0
H1607 H 0.35792 0.25164 0.7241 0.0
C1608 C 0.33861 0.24352 0.76877 0.0
C1609 C 0.32338 0.23789 0.76969 0.0
C1610 C 0.33834 0.24702 0.58657 0.0
C1611 C 0.33847 0.24537 0.67936 0.0
C1612 C 0.34583 0.25107 0.5416 0.0
C1613 C 0.36117 0.25775 0.5405 0.0
C1614 C 0.34622 0.24959 0.63102 0.0
C1615 C 0.36873 0.26026 0.58562 0.0
C1616 C 0.34617 0.24725 0.72383 0.0
C1617 C 0.31601 0.23594 0.72449 0.0
N1618 N 0.36115 0.25613 0.62924 0.0
N1619 N 0.32365 0.23973 0.68105 0.0
H1620 H 0.76711 0.10024 0.80025 0.0
H1621 H 0.7719 0.09954 0.50418 0.0
H1622 H 0.78643 0.07851 0.72059 0.0
H1623 H 0.74856 0.11717 0.58373 0.0
H1624 H 0.77857 0.0931 0.58298 0.0
H1625 H 0.76146 0.10767 0.72153 0.0
C1626 C 0.7702 0.09704 0.76608 0.0
C1627 C 0.77725 0.08871 0.76691 0.0
C1628 C 0.77201 0.09838 0.58334 0.0
C1629 C 0.77077 0.09724 0.6764 0.0
C1630 C 0.7682 0.10212 0.53833 0.0
C1631 C 0.75962 0.10888 0.53745 0.0
C1632 C 0.76721 0.10144 0.62798 0.0
C1633 C 0.75517 0.11194 0.5828 0.0
C1634 C 0.76694 0.10129 0.7211 0.0
C1635 C 0.78095 0.08488 0.72154 0.0
N1636 N 0.75901 0.10816 0.62636 0.0
N1637 N 0.77766 0.08919 0.67797 0.0
H1638 H 0.71529 0.93656 0.2504 0.0
H1639 H 0.63744 0.89253 0.38825 0.0
H1640 H 0.67453 0.90783 0.17527 0.0
H1641 H 0.67853 0.91894 0.46484 0.0
H1642 H 0.6509 0.89779 0.30945 0.0
H1643 H 0.70211 0.92992 0.32999 0.0
C1644 C 0.70362 0.9288 0.25072 0.0
C1645 C 0.69599 0.9228 0.20627 0.0
C1646 C 0.65696 0.9024 0.34358 0.0
C1647 C 0.68085 0.91519 0.29663 0.0
C1648 C 0.64926 0.89942 0.38842 0.0
C1649 C 0.65688 0.90532 0.43296 0.0
C1650 C 0.67233 0.91141 0.34349 0.0
C1651 C 0.67222 0.91414 0.4313 0.0
C1652 C 0.69609 0.92502 0.29603 0.0
C1653 C 0.68085 0.91279 0.20865 0.0
N1654 N 0.67943 0.91695 0.38731 0.0
N1655 N 0.67378 0.90935 0.25299 0.0
H1656 H 0.12241 0.74583 0.38827 0.0
H1657 H 0.08501 0.78641 0.24987 0.0
H1658 H 0.10595 0.77081 0.46392 0.0
H1659 H 0.10416 0.76409 0.17292 0.0
H1660 H 0.09294 0.78106 0.32913 0.0
H1661 H 0.11623 0.75274 0.30837 0.0
C1662 C 0.11758 0.7528 0.38803 0.0
C1663 C 0.11463 0.7577 0.43266 0.0
C1664 C 0.09543 0.77738 0.29481 0.0
C1665 C 0.1075 0.76558 0.34202 0.0
C1666 C 0.09088 0.78042 0.24969 0.0
C1667 C 0.0939 0.77566 0.20493 0.0
C1668 C 0.10296 0.76947 0.29493 0.0
C1669 C 0.1016 0.76796 0.20664 0.0
C1670 C 0.11404 0.75674 0.34255 0.0
C1671 C 0.10837 0.76674 0.43039 0.0
N1672 N 0.10582 0.76507 0.25088 0.0
N1673 N 0.10497 0.77033 0.3859 0.0
H1674 H 0.23381 0.30254 0.24885 0.0
H1675 H 0.27084 0.38076 0.38612 0.0
H1676 H 0.25001 0.34373 0.17137 0.0
H1677 H 0.25139 0.33914 0.46272 0.0
H1678 H 0.26344 0.36751 0.30649 0.0
H1679 H 0.2403 0.31589 0.32804 0.0
C1680 C 0.23867 0.31436 0.24855 0.0
C1681 C 0.24139 0.32203 0.20361 0.0
C1682 C 0.26079 0.36131 0.34084 0.0
C1683 C 0.24888 0.33738 0.29363 0.0
C1684 C 0.26502 0.36887 0.38615 0.0
C1685 C 0.26173 0.36104 0.43095 0.0
C1686 C 0.2533 0.34586 0.34063 0.0
C1687 C 0.25414 0.34564 0.42904 0.0
C1688 C 0.24238 0.32199 0.29366 0.0
C1689 C 0.24773 0.33736 0.20522 0.0
N1690 N 0.25023 0.33858 0.38471 0.0
N1691 N 0.25129 0.34453 0.24946 0.0
H1692 H 0.04802 0.45158 0.91637 0.0
H1693 H 0.96997 0.41028 0.0544 0.0
H1694 H 1.00642 0.42939 0.83967 0.0
H1695 H 0.01123 0.43597 0.13088 0.0
H1696 H 0.98321 0.41677 0.97497 0.0
H1697 H 0.03481 0.44552 -0.00404 0.0
C1698 C 0.03614 0.44544 0.91632 0.0
C1699 C 0.02831 0.44099 0.8715 0.0
C1700 C 0.98935 0.42101 0.0092 0.0
C1701 C 0.01316 0.434 0.96184 0.0
C1702 C 0.98178 0.4173 0.05444 0.0
C1703 C 0.9895 0.42258 0.09917 0.0
C1704 C 1.00472 0.43 0.00892 0.0
C1705 C 1.00482 0.43164 0.09722 0.0
C1706 C 0.0286 0.442 0.96162 0.0
C1707 C 0.01291 0.43308 0.87339 0.0
N1708 N 0.01192 0.43504 0.0529 0.0
N1709 N 1.00586 0.42982 0.91775 0.0
H1710 H 0.60402 0.5635 0.05326 0.0
H1711 H 0.56091 0.59822 0.91434 0.0
H1712 H 0.57755 0.57803 0.12981 0.0
H1713 H 0.58974 0.58606 0.8412 0.0
H1714 H 0.56542 0.58939 -0.00654 0.0
H1715 H 0.59715 0.56988 0.97391 0.0
C1716 C 0.59665 0.56788 0.0533 0.0
C1717 C 0.59143 0.57034 0.09805 0.0
C1718 C 0.57073 0.58867 0.95996 0.0
C1719 C 0.5836 0.57774 0.00784 0.0
C1720 C 0.56819 0.59375 0.91499 0.0
C1721 C 0.57499 0.59291 0.87132 0.0
C1722 C 0.58013 0.58277 0.96095 0.0
C1723 C 0.58424 0.58691 0.87399 0.0
C1724 C 0.59277 0.57158 0.0081 0.0
C1725 C 0.58192 0.57606 0.09611 0.0
N1726 N 0.58655 0.5821 0.91796 0.0
N1727 N 0.57837 0.57964 0.05177 0.0
H1728 H 0.43656 1.00367 0.13733 0.0
H1729 H 0.43322 0.00889 0.84251 0.0
H1730 H 0.45341 0.04445 0.05678 0.0
H1731 H 0.41906 0.96799 0.91982 0.0
H1732 H 0.44113 0.02192 0.92081 0.0
H1733 H 0.43083 0.99045 0.05868 0.0
C1734 C 0.43914 0.00988 0.10302 0.0
C1735 C 0.4454 0.0252 0.1035 0.0
C1736 C 0.43635 0.01011 0.92089 0.0
C1737 C 0.43875 0.01006 0.01332 0.0
C1738 C 0.43179 1.00261 0.87608 0.0
C1739 C 0.42544 0.98728 0.87465 0.0
C1740 C 0.4345 1.00229 0.96499 0.0
C1741 C 0.42385 0.97979 0.91938 0.0
C1742 C 0.43585 1.00229 0.05812 0.0
C1743 C 0.44854 0.03264 0.05801 0.0
N1744 N 0.42833 0.98739 0.96296 0.0
N1745 N 0.44509 0.02497 0.01466 0.0
H1746 H 0.59485 0.0091 0.84503 0.0
H1747 H 0.5769 1.00558 0.13465 0.0
H1748 H 0.56303 0.96956 0.91971 0.0
H1749 H 0.60973 0.0448 0.06092 0.0
H1750 H 0.57127 0.99246 0.05608 0.0
H1751 H 0.60039 0.0223 0.92361 0.0
C1752 C 0.58904 1.00318 0.87816 0.0
C1753 C 0.57843 0.98822 0.87599 0.0
C1754 C 0.5797 1.00392 0.05692 0.0
C1755 C 0.58465 1.00334 0.9661 0.0
C1756 C 0.58291 0.01148 0.10181 0.0
C1757 C 0.59384 0.02633 0.10431 0.0
C1758 C 0.58753 0.01122 0.01409 0.0
C1759 C 0.6012 0.03337 0.06053 0.0
C1760 C 0.59221 0.01074 0.923 0.0
C1761 C 0.57133 0.98107 0.91995 0.0
N1762 N 0.59795 0.02572 0.01712 0.0
N1763 N 0.57452 0.98874 0.96334 0.0
H1764 H 1.00791 0.58038 0.83817 0.0
H1765 H 0.01401 0.58427 0.13419 0.0
H1766 H 0.04906 0.60344 0.91725 0.0
H1767 H 0.97274 0.56526 0.05551 0.0
H1768 H 0.02692 0.59058 0.05516 0.0
H1769 H 0.9949 0.57393 0.91714 0.0
C1770 C 0.01424 0.58408 0.87225 0.0
C1771 C 0.02962 0.59248 0.8712 0.0
C1772 C 0.01505 0.58504 0.055 0.0
C1773 C 0.01471 0.58512 0.96191 0.0
C1774 C 1.00763 0.58139 0.10016 0.0
C1775 C 0.99224 0.5742 0.10136 0.0
C1776 C 1.00706 0.58143 0.01049 0.0
C1777 C 0.9846 0.57082 0.05617 0.0
C1778 C 1.00676 0.5804 0.91735 0.0
C1779 C 0.0372 0.59696 0.91645 0.0
N1780 N 0.99211 0.57445 0.0124 0.0
N1781 N 0.02965 0.59321 0.96009 0.0
H1782 H 0.45422 0.4103 0.05141 0.0
H1783 H 0.42108 0.45477 0.91249 0.0
H1784 H 0.44135 0.43836 0.12621 0.0
H1785 H 0.43664 0.42916 0.83597 0.0
H1786 H 0.42908 0.44936 -0.00848 0.0
H1787 H 0.4487 0.41773 0.97134 0.0
C1788 C 0.4504 0.41813 0.05093 0.0
C1789 C 0.44816 0.42365 0.0954 0.0
C1790 C 0.43076 0.44496 0.95735 0.0
C1791 C 0.44176 0.43212 0.00458 0.0
C1792 C 0.42615 0.44801 0.91239 0.0
C1793 C 0.42816 0.44237 0.86783 0.0
C1794 C 0.43731 0.43612 0.95754 0.0
C1795 C 0.43489 0.43375 0.86956 0.0
C1796 C 0.44721 0.42234 0.00536 0.0
C1797 C 0.44314 0.43373 0.09284 0.0
N1798 N 0.43917 0.43084 0.91367 0.0
N1799 N 0.44005 0.43758 0.04827 0.0
loop_
_geom_bond_atom_site_label_1
_geom_bond_atom_site_label_2
_geom_bond_distance
_geom_bond_site_symmetry_2
_ccdc_geom_bond_type
Co0 O1 2.216 . S
Co0 O2 2.091 . S
Co0 O4 2.004 . S
Co0 O10 2.021 . S
Co0 O12 2.137 . S
Co0 O13 2.244 . S
O1 Co0 2.216 . S
O1 C8 1.247 . S
O2 Co0 2.091 . S
O2 C8 1.261 . S
C3 O12 1.247 . S
C3 O13 1.272 . S
O4 Co0 2.004 . S
O4 C9 1.259 . S
Co5 O6 2.061 . S
Co5 O11 2.052 . S
Co5 O13 2.135 . S
O6 Co5 2.061 . S
O6 C9 1.235 . S
C7 O10 1.238 1_556 S
C7 O11 1.241 1_556 S
C8 O1 1.247 . S
C8 O2 1.261 . S
C9 O4 1.259 . S
C9 O6 1.235 . S
O10 Co0 2.021 . S
O10 C7 1.238 1_554 S
O11 Co5 2.052 . S
O11 C7 1.241 1_554 S
O12 Co0 2.137 . S
O12 C3 1.247 . S
O13 Co0 2.244 . S
O13 C3 1.272 . S
O13 Co5 2.135 . S
Co14 O15 2.216 . S
Co14 O16 2.091 . S
Co14 O18 2.004 . S
Co14 O24 2.021 . S
Co14 O26 2.137 . S
Co14 O27 2.244 . S
O15 Co14 2.216 . S
O15 C22 1.247 . S
O16 Co14 2.091 . S
O16 C22 1.261 . S
C17 O26 1.247 . S
C17 O27 1.272 . S
O18 Co14 2.004 . S
O18 C23 1.259 . S
Co19 O20 2.061 . S
Co19 O25 2.052 . S
Co19 O27 2.135 . S
O20 Co19 2.061 . S
O20 C23 1.235 . S
C21 O24 1.238 1_556 S
C21 O25 1.241 1_556 S
C22 O15 1.247 . S
C22 O16 1.261 . S
C23 O18 1.259 . S
C23 O20 1.235 . S
O24 Co14 2.021 . S
O24 C21 1.238 1_554 S
O25 Co19 2.052 . S
O25 C21 1.241 1_554 S
O26 Co14 2.137 . S
O26 C17 1.247 . S
O27 Co14 2.244 . S
O27 C17 1.272 . S
O27 Co19 2.135 . S
Co28 O29 2.216 . S
Co28 O30 2.091 . S
Co28 O32 2.004 . S
Co28 O38 2.021 . S
Co28 O40 2.137 . S
Co28 O41 2.244 . S
O29 Co28 2.216 . S
O29 C36 1.247 . S
O30 Co28 2.091 . S
O30 C36 1.261 . S
C31 O40 1.247 . S
C31 O41 1.272 . S
O32 Co28 2.004 . S
O32 C37 1.259 . S
Co33 O34 2.061 . S
Co33 O39 2.052 . S
Co33 O41 2.135 . S
O34 Co33 2.061 . S
O34 C37 1.235 . S
C35 O38 1.238 1_556 S
C35 O39 1.241 1_556 S
C36 O29 1.247 . S
C36 O30 1.261 . S
C37 O32 1.259 . S
C37 O34 1.235 . S
O38 Co28 2.021 . S
O38 C35 1.238 1_554 S
O39 Co33 2.052 . S
O39 C35 1.241 1_554 S
O40 Co28 2.137 . S
O40 C31 1.247 . S
O41 Co28 2.244 . S
O41 C31 1.272 . S
O41 Co33 2.135 . S
Co42 O43 2.216 . S
Co42 O44 2.091 . S
Co42 O46 2.004 . S
Co42 O52 2.021 . S
Co42 O54 2.137 . S
Co42 O55 2.244 . S
O43 Co42 2.216 . S
O43 C50 1.247 . S
O44 Co42 2.091 . S
O44 C50 1.261 . S
C45 O54 1.247 . S
C45 O55 1.272 . S
O46 Co42 2.004 . S
O46 C51 1.259 . S
Co47 O48 2.061 . S
Co47 O53 2.052 . S
Co47 O55 2.135 . S
O48 Co47 2.061 . S
O48 C51 1.235 . S
C49 O52 1.238 1_554 S
C49 O53 1.241 1_554 S
C50 O43 1.247 . S
C50 O44 1.261 . S
C51 O46 1.259 . S
C51 O48 1.235 . S
O52 Co42 2.021 . S
O52 C49 1.238 1_556 S
O53 Co47 2.052 . S
O53 C49 1.241 1_556 S
O54 Co42 2.137 . S
O54 C45 1.247 . S
O55 Co42 2.244 . S
O55 C45 1.272 . S
O55 Co47 2.135 . S
Co56 O57 2.216 . S
Co56 O58 2.091 . S
Co56 O60 2.004 . S
Co56 O66 2.021 . S
Co56 O68 2.137 . S
Co56 O69 2.244 . S
O57 Co56 2.216 . S
O57 C64 1.247 . S
O58 Co56 2.091 . S
O58 C64 1.261 . S
C59 O68 1.247 . S
C59 O69 1.272 . S
O60 Co56 2.004 . S
O60 C65 1.259 . S
Co61 O62 2.061 . S
Co61 O67 2.052 . S
Co61 O69 2.135 . S
O62 Co61 2.061 . S
O62 C65 1.235 . S
C63 O66 1.238 1_554 S
C63 O67 1.241 1_554 S
C64 O57 1.247 . S
C64 O58 1.261 . S
C65 O60 1.259 . S
C65 O62 1.235 . S
O66 Co56 2.021 . S
O66 C63 1.238 1_556 S
O67 Co61 2.052 . S
O67 C63 1.241 1_556 S
O68 Co56 2.137 . S
O68 C59 1.247 . S
O69 Co56 2.244 . S
O69 C59 1.272 . S
O69 Co61 2.135 . S
Co70 O71 2.216 . S
Co70 O72 2.091 . S
Co70 O74 2.004 . S
Co70 O80 2.021 . S
Co70 O82 2.137 . S
Co70 O83 2.244 . S
O71 Co70 2.216 . S
O71 C78 1.247 . S
O72 Co70 2.091 . S
O72 C78 1.261 . S
C73 O82 1.247 . S
C73 O83 1.272 . S
O74 Co70 2.004 . S
O74 C79 1.259 . S
Co75 O76 2.061 . S
Co75 O81 2.052 . S
Co75 O83 2.135 . S
O76 Co75 2.061 . S
O76 C79 1.235 . S
C77 O80 1.238 1_554 S
C77 O81 1.241 1_554 S
C78 O71 1.247 . S
C78 O72 1.261 . S
C79 O74 1.259 . S
C79 O76 1.235 . S
O80 Co70 2.021 . S
O80 C77 1.238 1_556 S
O81 Co75 2.052 . S
O81 C77 1.241 1_556 S
O82 Co70 2.137 . S
O82 C73 1.247 . S
O83 Co70 2.244 . S
O83 C73 1.272 . S
O83 Co75 2.135 . S
Co84 O85 2.216 . S
Co84 O86 2.091 . S
Co84 O88 2.004 . S
Co84 O94 2.021 . S
Co84 O96 2.137 . S
Co84 O97 2.244 . S
O85 Co84 2.216 . S
O85 C92 1.247 . S
O86 Co84 2.091 . S
O86 C92 1.261 . S
C87 O96 1.247 . S
C87 O97 1.272 . S
O88 Co84 2.004 . S
O88 C93 1.259 . S
Co89 O90 2.061 . S
Co89 O95 2.052 . S
Co89 O97 2.135 . S
O90 Co89 2.061 . S
O90 C93 1.235 . S
C91 O94 1.238 1_554 S
C91 O95 1.241 1_554 S
C92 O85 1.247 . S
C92 O86 1.261 . S
C93 O88 1.259 . S
C93 O90 1.235 . S
O94 Co84 2.021 . S
O94 C91 1.238 1_556 S
O95 Co89 2.052 . S
O95 C91 1.241 1_556 S
O96 Co84 2.137 . S
O96 C87 1.247 . S
O97 Co84 2.244 . S
O97 C87 1.272 . S
O97 Co89 2.135 . S
Co98 O99 2.216 . S
Co98 O100 2.091 . S
Co98 O102 2.004 . S
Co98 O108 2.021 . S
Co98 O110 2.137 . S
Co98 O111 2.244 . S
O99 Co98 2.216 . S
O99 C106 1.247 . S
O100 Co98 2.091 . S
O100 C106 1.261 . S
C101 O110 1.247 . S
C101 O111 1.272 . S
O102 Co98 2.004 . S
O102 C107 1.259 . S
Co103 O104 2.061 . S
Co103 O109 2.052 . S
Co103 O111 2.135 . S
O104 Co103 2.061 . S
O104 C107 1.235 . S
C105 O108 1.238 1_554 S
C105 O109 1.241 1_554 S
C106 O99 1.247 . S
C106 O100 1.261 . S
C107 O102 1.259 . S
C107 O104 1.235 . S
O108 Co98 2.021 . S
O108 C105 1.238 1_556 S
O109 Co103 2.052 . S
O109 C105 1.241 1_556 S
O110 Co98 2.137 . S
O110 C101 1.247 . S
O111 Co98 2.244 . S
O111 C101 1.272 . S
O111 Co103 2.135 . S
Co112 O113 2.216 . S
Co112 O114 2.091 . S
Co112 O116 2.004 . S
Co112 O122 2.021 . S
Co112 O124 2.137 . S
Co112 O125 2.244 . S
O113 Co112 2.216 . S
O113 C120 1.247 . S
O114 Co112 2.091 . S
O114 C120 1.261 . S
C115 O124 1.247 . S
C115 O125 1.272 . S
O116 Co112 2.004 . S
O116 C121 1.259 . S
Co117 O118 2.061 . S
Co117 O123 2.052 . S
Co117 O125 2.135 . S
O118 Co117 2.061 . S
O118 C121 1.235 . S
C119 O122 1.238 1_554 S
C119 O123 1.241 1_554 S
C120 O113 1.247 . S
C120 O114 1.261 . S
C121 O116 1.259 . S
C121 O118 1.235 . S
O122 Co112 2.021 . S
O122 C119 1.238 1_556 S
O123 Co117 2.052 . S
O123 C119 1.241 1_556 S
O124 Co112 2.137 . S
O124 C115 1.247 . S
O125 Co112 2.244 . S
O125 C115 1.272 . S
O125 Co117 2.135 . S
Co126 O127 2.216 . S
Co126 O128 2.091 . S
Co126 O130 2.004 . S
Co126 O136 2.021 . S
Co126 O138 2.137 . S
Co126 O139 2.244 . S
O127 Co126 2.216 . S
O127 C134 1.247 . S
O128 Co126 2.091 . S
O128 C134 1.261 . S
C129 O138 1.247 . S
C129 O139 1.272 . S
O130 Co126 2.004 . S
O130 C135 1.259 . S
Co131 O132 2.061 . S
Co131 O137 2.052 . S
Co131 O139 2.135 . S
O132 Co131 2.061 . S
O132 C135 1.235 . S
C133 O136 1.238 1_556 S
C133 O137 1.241 1_556 S
C134 O127 1.247 . S
C134 O128 1.261 . S
C135 O130 1.259 . S
C135 O132 1.235 . S
O136 Co126 2.021 . S
O136 C133 1.238 1_554 S
O137 Co131 2.052 . S
O137 C133 1.241 1_554 S
O138 Co126 2.137 . S
O138 C129 1.247 . S
O139 Co126 2.244 . S
O139 C129 1.272 . S
O139 Co131 2.135 . S
Co140 O141 2.216 . S
Co140 O142 2.091 . S
Co140 O144 2.004 . S
Co140 O150 2.021 . S
Co140 O152 2.137 . S
Co140 O153 2.244 . S
O141 Co140 2.216 . S
O141 C148 1.247 . S
O142 Co140 2.091 . S
O142 C148 1.261 . S
C143 O152 1.247 . S
C143 O153 1.272 . S
O144 Co140 2.004 . S
O144 C149 1.259 . S
Co145 O146 2.061 . S
Co145 O151 2.052 . S
Co145 O153 2.135 . S
O146 Co145 2.061 . S
O146 C149 1.235 . S
C147 O150 1.238 1_556 S
C147 O151 1.241 1_556 S
C148 O141 1.247 . S
C148 O142 1.261 . S
C149 O144 1.259 . S
C149 O146 1.235 . S
O150 Co140 2.021 . S
O150 C147 1.238 1_554 S
O151 Co145 2.052 . S
O151 C147 1.241 1_554 S
O152 Co140 2.137 . S
O152 C143 1.247 . S
O153 Co140 2.244 . S
O153 C143 1.272 . S
O153 Co145 2.135 . S
Co154 O155 2.216 . S
Co154 O156 2.091 . S
Co154 O158 2.004 . S
Co154 O164 2.021 . S
Co154 O166 2.137 . S
Co154 O167 2.244 . S
O155 Co154 2.216 . S
O155 C162 1.247 . S
O156 Co154 2.091 . S
O156 C162 1.261 . S
C157 O166 1.247 . S
C157 O167 1.272 . S
O158 Co154 2.004 . S
O158 C163 1.259 . S
Co159 O160 2.061 . S
Co159 O165 2.052 . S
Co159 O167 2.135 . S
O160 Co159 2.061 . S
O160 C163 1.235 . S
C161 O164 1.238 1_556 S
C161 O165 1.241 1_556 S
C162 O155 1.247 . S
C162 O156 1.261 . S
C163 O158 1.259 . S
C163 O160 1.235 . S
O164 Co154 2.021 . S
O164 C161 1.238 1_554 S
O165 Co159 2.052 . S
O165 C161 1.241 1_554 S
O166 Co154 2.137 . S
O166 C157 1.247 . S
O167 Co154 2.244 . S
O167 C157 1.272 . S
O167 Co159 2.135 . S
Co168 O169 2.216 . S
Co168 O170 2.091 . S
Co168 O172 2.004 . S
Co168 O178 2.021 . S
Co168 O180 2.137 . S
Co168 O181 2.244 . S
O169 Co168 2.216 . S
O169 C176 1.247 . S
O170 Co168 2.091 . S
O170 C176 1.261 . S
C171 O180 1.247 . S
C171 O181 1.272 . S
O172 Co168 2.004 . S
O172 C177 1.259 . S
Co173 O174 2.061 . S
Co173 O179 2.052 . S
Co173 O181 2.135 . S
O174 Co173 2.061 . S
O174 C177 1.235 . S
C175 O178 1.238 . S
C175 O179 1.241 . S
C176 O169 1.247 . S
C176 O170 1.261 . S
C177 O172 1.259 . S
C177 O174 1.235 . S
O178 Co168 2.021 . S
O178 C175 1.238 . S
O179 Co173 2.052 . S
O179 C175 1.241 . S
O180 Co168 2.137 . S
O180 C171 1.247 . S
O181 Co168 2.244 . S
O181 C171 1.272 . S
O181 Co173 2.135 . S
Co182 O183 2.216 . S
Co182 O184 2.091 . S
Co182 O186 2.004 . S
Co182 O192 2.021 . S
Co182 O194 2.137 . S
Co182 O195 2.244 . S
O183 Co182 2.216 . S
O183 C190 1.247 . S
O184 Co182 2.091 . S
O184 C190 1.261 . S
C185 O194 1.247 . S
C185 O195 1.272 . S
O186 Co182 2.004 . S
O186 C191 1.259 . S
Co187 O188 2.061 . S
Co187 O193 2.052 . S
Co187 O195 2.135 . S
O188 Co187 2.061 . S
O188 C191 1.235 . S
C189 O192 1.238 . S
C189 O193 1.241 . S
C190 O183 1.247 . S
C190 O184 1.261 . S
C191 O186 1.259 . S
C191 O188 1.235 . S
O192 Co182 2.021 . S
O192 C189 1.238 . S
O193 Co187 2.052 . S
O193 C189 1.241 . S
O194 Co182 2.137 . S
O194 C185 1.247 . S
O195 Co182 2.244 . S
O195 C185 1.272 . S
O195 Co187 2.135 . S
Co196 O197 2.216 . S
Co196 O198 2.091 . S
Co196 O200 2.004 . S
Co196 O206 2.021 . S
Co196 O208 2.137 . S
Co196 O209 2.244 . S
O197 Co196 2.216 . S
O197 C204 1.247 . S
O198 Co196 2.091 . S
O198 C204 1.261 . S
C199 O208 1.247 . S
C199 O209 1.272 . S
O200 Co196 2.004 . S
O200 C205 1.259 . S
Co201 O202 2.061 . S
Co201 O207 2.052 . S
Co201 O209 2.135 . S
O202 Co201 2.061 . S
O202 C205 1.235 . S
C203 O206 1.238 . S
C203 O207 1.241 . S
C204 O197 1.247 . S
C204 O198 1.261 . S
C205 O200 1.259 . S
C205 O202 1.235 . S
O206 Co196 2.021 . S
O206 C203 1.238 . S
O207 Co201 2.052 . S
O207 C203 1.241 . S
O208 Co196 2.137 . S
O208 C199 1.247 . S
O209 Co196 2.244 . S
O209 C199 1.272 . S
O209 Co201 2.135 . S
Co210 O211 2.216 . S
Co210 O212 2.091 . S
Co210 O214 2.004 . S
Co210 O220 2.021 . S
Co210 O222 2.137 . S
Co210 O223 2.244 . S
O211 Co210 2.216 . S
O211 C218 1.247 . S
O212 Co210 2.091 . S
O212 C218 1.261 . S
C213 O222 1.247 . S
C213 O223 1.272 . S
O214 Co210 2.004 . S
O214 C219 1.259 . S
Co215 O216 2.061 . S
Co215 O221 2.052 . S
Co215 O223 2.135 . S
O216 Co215 2.061 . S
O216 C219 1.235 . S
C217 O220 1.238 . S
C217 O221 1.241 . S
C218 O211 1.247 . S
C218 O212 1.261 . S
C219 O214 1.259 . S
C219 O216 1.235 . S
O220 Co210 2.021 . S
O220 C217 1.238 . S
O221 Co215 2.052 . S
O221 C217 1.241 . S
O222 Co210 2.137 . S
O222 C213 1.247 . S
O223 Co210 2.244 . S
O223 C213 1.272 . S
O223 Co215 2.135 . S
Co224 O225 2.216 . S
Co224 O226 2.091 . S
Co224 O228 2.004 . S
Co224 O234 2.021 . S
Co224 O236 2.137 . S
Co224 O237 2.244 . S
O225 Co224 2.216 . S
O225 C232 1.247 . S
O226 Co224 2.091 . S
O226 C232 1.261 . S
C227 O236 1.247 . S
C227 O237 1.272 . S
O228 Co224 2.004 . S
O228 C233 1.259 . S
Co229 O230 2.061 . S
Co229 O235 2.052 . S
Co229 O237 2.135 . S
O230 Co229 2.061 . S
O230 C233 1.235 . S
C231 O234 1.238 . S
C231 O235 1.241 . S
C232 O225 1.247 . S
C232 O226 1.261 . S
C233 O228 1.259 . S
C233 O230 1.235 . S
O234 Co224 2.021 . S
O234 C231 1.238 . S
O235 Co229 2.052 . S
O235 C231 1.241 . S
O236 Co224 2.137 . S
O236 C227 1.247 . S
O237 Co224 2.244 . S
O237 C227 1.272 . S
O237 Co229 2.135 . S
Co238 O239 2.216 . S
Co238 O240 2.091 . S
Co238 O242 2.004 . S
Co238 O248 2.021 . S
Co238 O250 2.137 . S
Co238 O251 2.244 . S
O239 Co238 2.216 . S
O239 C246 1.247 . S
O240 Co238 2.091 . S
O240 C246 1.261 . S
C241 O250 1.247 . S
C241 O251 1.272 . S
O242 Co238 2.004 . S
O242 C247 1.259 . S
Co243 O244 2.061 . S
Co243 O249 2.052 . S
Co243 O251 2.135 . S
O244 Co243 2.061 . S
O244 C247 1.235 . S
C245 O248 1.238 . S
C245 O249 1.241 . S
C246 O239 1.247 . S
C246 O240 1.261 . S
C247 O242 1.259 . S
C247 O244 1.235 . S
O248 Co238 2.021 . S
O248 C245 1.238 . S
O249 Co243 2.052 . S
O249 C245 1.241 . S
O250 Co238 2.137 . S
O250 C241 1.247 . S
O251 Co238 2.244 . S
O251 C241 1.272 . S
O251 Co243 2.135 . S
Co252 O253 2.216 . S
Co252 O254 2.091 . S
Co252 O256 2.004 . S
Co252 O262 2.021 . S
Co252 O264 2.137 . S
Co252 O265 2.244 . S
O253 Co252 2.216 . S
O253 C260 1.247 . S
O254 Co252 2.091 . S
O254 C260 1.261 . S
C255 O264 1.247 . S
C255 O265 1.272 . S
O256 Co252 2.004 . S
O256 C261 1.259 . S
Co257 O258 2.061 . S
Co257 O263 2.052 . S
Co257 O265 2.135 . S
O258 Co257 2.061 . S
O258 C261 1.235 . S
C259 O262 1.238 . S
C259 O263 1.241 . S
C260 O253 1.247 . S
C260 O254 1.261 . S
C261 O256 1.259 . S
C261 O258 1.235 . S
O262 Co252 2.021 . S
O262 C259 1.238 . S
O263 Co257 2.052 . S
O263 C259 1.241 . S
O264 Co252 2.137 . S
O264 C255 1.247 . S
O265 Co252 2.244 . S
O265 C255 1.272 . S
O265 Co257 2.135 . S
Co266 O267 2.216 . S
Co266 O268 2.091 . S
Co266 O270 2.004 . S
Co266 O276 2.021 . S
Co266 O278 2.137 . S
Co266 O279 2.244 . S
O267 Co266 2.216 . S
O267 C274 1.247 . S
O268 Co266 2.091 . S
O268 C274 1.261 . S
C269 O278 1.247 . S
C269 O279 1.272 . S
O270 Co266 2.004 . S
O270 C275 1.259 . S
Co271 O272 2.061 . S
Co271 O277 2.052 . S
Co271 O279 2.135 . S
O272 Co271 2.061 . S
O272 C275 1.235 . S
C273 O276 1.238 . S
C273 O277 1.241 . S
C274 O267 1.247 . S
C274 O268 1.261 . S
C275 O270 1.259 . S
C275 O272 1.235 . S
O276 Co266 2.021 . S
O276 C273 1.238 . S
O277 Co271 2.052 . S
O277 C273 1.241 . S
O278 Co266 2.137 . S
O278 C269 1.247 . S
O279 Co266 2.244 . S
O279 C269 1.272 . S
O279 Co271 2.135 . S
Co280 O281 2.216 . S
Co280 O282 2.091 . S
Co280 O284 2.004 . S
Co280 O290 2.021 . S
Co280 O292 2.137 . S
Co280 O293 2.244 . S
O281 Co280 2.216 . S
O281 C288 1.247 . S
O282 Co280 2.091 . S
O282 C288 1.261 . S
C283 O292 1.247 . S
C283 O293 1.272 . S
O284 Co280 2.004 . S
O284 C289 1.259 . S
Co285 O286 2.061 . S
Co285 O291 2.052 . S
Co285 O293 2.135 . S
O286 Co285 2.061 . S
O286 C289 1.235 . S
C287 O290 1.238 . S
C287 O291 1.241 . S
C288 O281 1.247 . S
C288 O282 1.261 . S
C289 O284 1.259 . S
C289 O286 1.235 . S
O290 Co280 2.021 . S
O290 C287 1.238 . S
O291 Co285 2.052 . S
O291 C287 1.241 . S
O292 Co280 2.137 . S
O292 C283 1.247 . S
O293 Co280 2.244 . S
O293 C283 1.272 . S
O293 Co285 2.135 . S
Co294 O295 2.216 . S
Co294 O296 2.091 . S
Co294 O298 2.004 . S
Co294 O304 2.021 . S
Co294 O306 2.137 . S
Co294 O307 2.244 . S
O295 Co294 2.216 . S
O295 C302 1.247 . S
O296 Co294 2.091 . S
O296 C302 1.261 . S
C297 O306 1.247 . S
C297 O307 1.272 . S
O298 Co294 2.004 . S
O298 C303 1.259 . S
Co299 O300 2.061 . S
Co299 O305 2.052 . S
Co299 O307 2.135 . S
O300 Co299 2.061 . S
O300 C303 1.235 . S
C301 O304 1.238 . S
C301 O305 1.241 . S
C302 O295 1.247 . S
C302 O296 1.261 . S
C303 O298 1.259 . S
C303 O300 1.235 . S
O304 Co294 2.021 . S
O304 C301 1.238 . S
O305 Co299 2.052 . S
O305 C301 1.241 . S
O306 Co294 2.137 . S
O306 C297 1.247 . S
O307 Co294 2.244 . S
O307 C297 1.272 . S
O307 Co299 2.135 . S
Co308 O309 2.216 . S
Co308 O310 2.091 . S
Co308 O312 2.004 . S
Co308 O318 2.021 . S
Co308 O320 2.137 . S
Co308 O321 2.244 . S
O309 Co308 2.216 . S
O309 C316 1.247 . S
O310 Co308 2.091 . S
O310 C316 1.261 . S
C311 O320 1.247 . S
C311 O321 1.272 . S
O312 Co308 2.004 . S
O312 C317 1.259 . S
Co313 O314 2.061 . S
Co313 O319 2.052 . S
Co313 O321 2.135 . S
O314 Co313 2.061 . S
O314 C317 1.235 . S
C315 O318 1.238 . S
C315 O319 1.241 . S
C316 O309 1.247 . S
C316 O310 1.261 . S
C317 O312 1.259 . S
C317 O314 1.235 . S
O318 Co308 2.021 . S
O318 C315 1.238 . S
O319 Co313 2.052 . S
O319 C315 1.241 . S
O320 Co308 2.137 . S
O320 C311 1.247 . S
O321 Co308 2.244 . S
O321 C311 1.272 . S
O321 Co313 2.135 . S
Co322 O323 2.216 . S
Co322 O324 2.091 . S
Co322 O326 2.004 . S
Co322 O332 2.021 . S
Co322 O334 2.137 . S
Co322 O335 2.244 . S
O323 Co322 2.216 . S
O323 C330 1.247 . S
O324 Co322 2.091 . S
O324 C330 1.261 . S
C325 O334 1.247 . S
C325 O335 1.272 . S
O326 Co322 2.004 . S
O326 C331 1.259 . S
Co327 O328 2.061 . S
Co327 O333 2.052 . S
Co327 O335 2.135 . S
O328 Co327 2.061 . S
O328 C331 1.235 . S
C329 O332 1.238 . S
C329 O333 1.241 . S
C330 O323 1.247 . S
C330 O324 1.261 . S
C331 O326 1.259 . S
C331 O328 1.235 . S
O332 Co322 2.021 . S
O332 C329 1.238 . S
O333 Co327 2.052 . S
O333 C329 1.241 . S
O334 Co322 2.137 . S
O334 C325 1.247 . S
O335 Co322 2.244 . S
O335 C325 1.272 . S
O335 Co327 2.135 . S
Co336 O337 2.216 . S
Co336 O338 2.091 . S
Co336 O340 2.004 . S
Co336 O346 2.021 . S
Co336 O348 2.137 . S
Co336 O349 2.244 . S
O337 Co336 2.216 . S
O337 C344 1.247 . S
O338 Co336 2.091 . S
O338 C344 1.261 . S
C339 O348 1.247 . S
C339 O349 1.272 . S
O340 Co336 2.004 . S
O340 C345 1.259 . S
Co341 O342 2.061 . S
Co341 O347 2.052 . S
Co341 O349 2.135 . S
O342 Co341 2.061 . S
O342 C345 1.235 . S
C343 O346 1.238 . S
C343 O347 1.241 . S
C344 O337 1.247 . S
C344 O338 1.261 . S
C345 O340 1.259 . S
C345 O342 1.235 . S
O346 Co336 2.021 . S
O346 C343 1.238 . S
O347 Co341 2.052 . S
O347 C343 1.241 . S
O348 Co336 2.137 . S
O348 C339 1.247 . S
O349 Co336 2.244 . S
O349 C339 1.272 . S
O349 Co341 2.135 . S
Co350 O351 2.216 . S
Co350 O352 2.091 . S
Co350 O354 2.004 . S
Co350 O360 2.021 . S
Co350 O362 2.137 . S
Co350 O363 2.244 . S
O351 Co350 2.216 . S
O351 C358 1.247 . S
O352 Co350 2.091 . S
O352 C358 1.261 . S
C353 O362 1.247 . S
C353 O363 1.272 . S
O354 Co350 2.004 . S
O354 C359 1.259 . S
Co355 O356 2.061 . S
Co355 O361 2.052 . S
Co355 O363 2.135 . S
O356 Co355 2.061 . S
O356 C359 1.235 . S
C357 O360 1.238 . S
C357 O361 1.241 . S
C358 O351 1.247 . S
C358 O352 1.261 . S
C359 O354 1.259 . S
C359 O356 1.235 . S
O360 Co350 2.021 . S
O360 C357 1.238 . S
O361 Co355 2.052 . S
O361 C357 1.241 . S
O362 Co350 2.137 . S
O362 C353 1.247 . S
O363 Co350 2.244 . S
O363 C353 1.272 . S
O363 Co355 2.135 . S
Co364 O365 2.216 . S
Co364 O366 2.091 . S
Co364 O368 2.004 . S
Co364 O374 2.021 . S
Co364 O376 2.137 . S
Co364 O377 2.244 . S
O365 Co364 2.216 . S
O365 C372 1.247 . S
O366 Co364 2.091 . S
O366 C372 1.261 . S
C367 O376 1.247 . S
C367 O377 1.272 . S
O368 Co364 2.004 . S
O368 C373 1.259 . S
Co369 O370 2.061 . S
Co369 O375 2.052 . S
Co369 O377 2.135 . S
O370 Co369 2.061 . S
O370 C373 1.235 . S
C371 O374 1.238 . S
C371 O375 1.241 . S
C372 O365 1.247 . S
C372 O366 1.261 . S
C373 O368 1.259 . S
C373 O370 1.235 . S
O374 Co364 2.021 . S
O374 C371 1.238 . S
O375 Co369 2.052 . S
O375 C371 1.241 . S
O376 Co364 2.137 . S
O376 C367 1.247 . S
O377 Co364 2.244 . S
O377 C367 1.272 . S
O377 Co369 2.135 . S
Co378 O379 2.216 . S
Co378 O380 2.091 . S
Co378 O382 2.004 . S
Co378 O388 2.021 . S
Co378 O390 2.137 . S
Co378 O391 2.244 . S
O379 Co378 2.216 . S
O379 C386 1.247 . S
O380 Co378 2.091 . S
O380 C386 1.261 . S
C381 O390 1.247 . S
C381 O391 1.272 . S
O382 Co378 2.004 . S
O382 C387 1.259 . S
Co383 O384 2.061 . S
Co383 O389 2.052 . S
Co383 O391 2.135 . S
O384 Co383 2.061 . S
O384 C387 1.235 . S
C385 O388 1.238 . S
C385 O389 1.241 . S
C386 O379 1.247 . S
C386 O380 1.261 . S
C387 O382 1.259 . S
C387 O384 1.235 . S
O388 Co378 2.021 . S
O388 C385 1.238 . S
O389 Co383 2.052 . S
O389 C385 1.241 . S
O390 Co378 2.137 . S
O390 C381 1.247 . S
O391 Co378 2.244 . S
O391 C381 1.272 . S
O391 Co383 2.135 . S
Co392 O393 2.216 . S
Co392 O394 2.091 . S
Co392 O396 2.004 . S
Co392 O402 2.021 . S
Co392 O404 2.137 . S
Co392 O405 2.244 . S
O393 Co392 2.216 . S
O393 C400 1.247 . S
O394 Co392 2.091 . S
O394 C400 1.261 . S
C395 O404 1.247 . S
C395 O405 1.272 . S
O396 Co392 2.004 . S
O396 C401 1.259 . S
Co397 O398 2.061 . S
Co397 O403 2.052 . S
Co397 O405 2.135 . S
O398 Co397 2.061 . S
O398 C401 1.235 . S
C399 O402 1.238 . S
C399 O403 1.241 . S
C400 O393 1.247 . S
C400 O394 1.261 . S
C401 O396 1.259 . S
C401 O398 1.235 . S
O402 Co392 2.021 . S
O402 C399 1.238 . S
O403 Co397 2.052 . S
O403 C399 1.241 . S
O404 Co392 2.137 . S
O404 C395 1.247 . S
O405 Co392 2.244 . S
O405 C395 1.272 . S
O405 Co397 2.135 . S
Co406 O407 2.216 . S
Co406 O408 2.091 . S
Co406 O410 2.004 . S
Co406 O416 2.021 . S
Co406 O418 2.137 . S
Co406 O419 2.244 . S
O407 Co406 2.216 . S
O407 C414 1.247 . S
O408 Co406 2.091 . S
O408 C414 1.261 . S
C409 O418 1.247 . S
C409 O419 1.272 . S
O410 Co406 2.004 . S
O410 C415 1.259 . S
Co411 O412 2.061 . S
Co411 O417 2.052 . S
Co411 O419 2.135 . S
O412 Co411 2.061 . S
O412 C415 1.235 . S
C413 O416 1.238 . S
C413 O417 1.241 . S
C414 O407 1.247 . S
C414 O408 1.261 . S
C415 O410 1.259 . S
C415 O412 1.235 . S
O416 Co406 2.021 . S
O416 C413 1.238 . S
O417 Co411 2.052 . S
O417 C413 1.241 . S
O418 Co406 2.137 . S
O418 C409 1.247 . S
O419 Co406 2.244 . S
O419 C409 1.272 . S
O419 Co411 2.135 . S
Co420 O421 2.216 . S
Co420 O422 2.091 . S
Co420 O424 2.004 . S
Co420 O430 2.021 . S
Co420 O432 2.137 . S
Co420 O433 2.244 . S
O421 Co420 2.216 . S
O421 C428 1.247 . S
O422 Co420 2.091 . S
O422 C428 1.261 . S
C423 O432 1.247 . S
C423 O433 1.272 . S
O424 Co420 2.004 . S
O424 C429 1.259 . S
Co425 O426 2.061 . S
Co425 O431 2.052 . S
Co425 O433 2.135 . S
O426 Co425 2.061 . S
O426 C429 1.235 . S
C427 O430 1.238 . S
C427 O431 1.241 . S
C428 O421 1.247 . S
C428 O422 1.261 . S
C429 O424 1.259 . S
C429 O426 1.235 . S
O430 Co420 2.021 . S
O430 C427 1.238 . S
O431 Co425 2.052 . S
O431 C427 1.241 . S
O432 Co420 2.137 . S
O432 C423 1.247 . S
O433 Co420 2.244 . S
O433 C423 1.272 . S
O433 Co425 2.135 . S
Co434 O435 2.216 . S
Co434 O436 2.091 . S
Co434 O438 2.004 . S
Co434 O444 2.021 . S
Co434 O446 2.137 . S
Co434 O447 2.244 . S
O435 Co434 2.216 . S
O435 C442 1.247 . S
O436 Co434 2.091 . S
O436 C442 1.261 . S
C437 O446 1.247 . S
C437 O447 1.272 . S
O438 Co434 2.004 . S
O438 C443 1.259 . S
Co439 O440 2.061 . S
Co439 O445 2.052 . S
Co439 O447 2.135 . S
O440 Co439 2.061 . S
O440 C443 1.235 . S
C441 O444 1.238 . S
C441 O445 1.241 . S
C442 O435 1.247 . S
C442 O436 1.261 . S
C443 O438 1.259 . S
C443 O440 1.235 . S
O444 Co434 2.021 . S
O444 C441 1.238 . S
O445 Co439 2.052 . S
O445 C441 1.241 . S
O446 Co434 2.137 . S
O446 C437 1.247 . S
O447 Co434 2.244 . S
O447 C437 1.272 . S
O447 Co439 2.135 . S
Co448 O449 2.216 . S
Co448 O450 2.091 . S
Co448 O452 2.004 . S
Co448 O458 2.021 . S
Co448 O460 2.137 . S
Co448 O461 2.244 . S
O449 Co448 2.216 . S
O449 C456 1.247 . S
O450 Co448 2.091 . S
O450 C456 1.261 . S
C451 O460 1.247 . S
C451 O461 1.272 . S
O452 Co448 2.004 . S
O452 C457 1.259 . S
Co453 O454 2.061 . S
Co453 O459 2.052 . S
Co453 O461 2.135 . S
O454 Co453 2.061 . S
O454 C457 1.235 . S
C455 O458 1.238 . S
C455 O459 1.241 . S
C456 O449 1.247 . S
C456 O450 1.261 . S
C457 O452 1.259 . S
C457 O454 1.235 . S
O458 Co448 2.021 . S
O458 C455 1.238 . S
O459 Co453 2.052 . S
O459 C455 1.241 . S
O460 Co448 2.137 . S
O460 C451 1.247 . S
O461 Co448 2.244 . S
O461 C451 1.272 . S
O461 Co453 2.135 . S
Co462 O463 2.216 . S
Co462 O464 2.091 . S
Co462 O466 2.004 . S
Co462 O472 2.021 . S
Co462 O474 2.137 . S
Co462 O475 2.244 . S
O463 Co462 2.216 . S
O463 C470 1.247 . S
O464 Co462 2.091 . S
O464 C470 1.261 . S
C465 O474 1.247 . S
C465 O475 1.272 . S
O466 Co462 2.004 . S
O466 C471 1.259 . S
Co467 O468 2.061 . S
Co467 O473 2.052 . S
Co467 O475 2.135 . S
O468 Co467 2.061 . S
O468 C471 1.235 . S
C469 O472 1.238 . S
C469 O473 1.241 . S
C470 O463 1.247 . S
C470 O464 1.261 . S
C471 O466 1.259 . S
C471 O468 1.235 . S
O472 Co462 2.021 . S
O472 C469 1.238 . S
O473 Co467 2.052 . S
O473 C469 1.241 . S
O474 Co462 2.137 . S
O474 C465 1.247 . S
O475 Co462 2.244 . S
O475 C465 1.272 . S
O475 Co467 2.135 . S
Co476 O477 2.216 . S
Co476 O478 2.091 . S
Co476 O480 2.004 . S
Co476 O486 2.021 . S
Co476 O488 2.137 . S
Co476 O489 2.244 . S
O477 Co476 2.216 . S
O477 C484 1.247 . S
O478 Co476 2.091 . S
O478 C484 1.261 . S
C479 O488 1.247 . S
C479 O489 1.272 . S
O480 Co476 2.004 . S
O480 C485 1.259 . S
Co481 O482 2.061 . S
Co481 O487 2.052 . S
Co481 O489 2.135 . S
O482 Co481 2.061 . S
O482 C485 1.235 . S
C483 O486 1.238 . S
C483 O487 1.241 . S
C484 O477 1.247 . S
C484 O478 1.261 . S
C485 O480 1.259 . S
C485 O482 1.235 . S
O486 Co476 2.021 . S
O486 C483 1.238 . S
O487 Co481 2.052 . S
O487 C483 1.241 . S
O488 Co476 2.137 . S
O488 C479 1.247 . S
O489 Co476 2.244 . S
O489 C479 1.272 . S
O489 Co481 2.135 . S
Co490 O491 2.216 . S
Co490 O492 2.091 . S
Co490 O494 2.004 . S
Co490 O500 2.021 . S
Co490 O502 2.137 . S
Co490 O503 2.244 . S
O491 Co490 2.216 . S
O491 C498 1.247 . S
O492 Co490 2.091 . S
O492 C498 1.261 . S
C493 O502 1.247 . S
C493 O503 1.272 . S
O494 Co490 2.004 . S
O494 C499 1.259 . S
Co495 O496 2.061 . S
Co495 O501 2.052 . S
Co495 O503 2.135 . S
O496 Co495 2.061 . S
O496 C499 1.235 . S
C497 O500 1.238 . S
C497 O501 1.241 . S
C498 O491 1.247 . S
C498 O492 1.261 . S
C499 O494 1.259 . S
C499 O496 1.235 . S
O500 Co490 2.021 . S
O500 C497 1.238 . S
O501 Co495 2.052 . S
O501 C497 1.241 . S
O502 Co490 2.137 . S
O502 C493 1.247 . S
O503 Co490 2.244 . S
O503 C493 1.272 . S
O503 Co495 2.135 . S
H504 C510 0.930 . S
H505 C514 0.930 . S
H506 C519 0.929 . S
H507 C517 0.929 . S
H508 C512 0.929 . S
H509 C518 0.929 . S
C510 H504 0.930 . S
C510 C511 1.367 . S
C510 C518 1.378 . S
C511 C510 1.367 . S
C511 C519 1.433 . S
C512 H508 0.929 . S
C512 C514 1.378 . S
C512 C516 1.350 . S
C513 C516 1.463 . S
C513 C518 1.350 . S
C513 N521 1.427 . S
C514 H505 0.930 . S
C514 C512 1.378 . S
C514 C515 1.367 . S
C515 C514 1.367 . S
C515 C517 1.433 . S
C516 C512 1.350 . S
C516 C513 1.463 . S
C516 N520 1.427 . S
C517 H507 0.929 . S
C517 C515 1.433 . S
C517 N520 1.384 . S
C518 H509 0.929 . S
C518 C510 1.378 . S
C518 C513 1.350 . S
C519 H506 0.929 . S
C519 C511 1.433 . S
C519 N521 1.384 . S
N520 C516 1.427 . S
N520 C517 1.384 . S
N521 C513 1.427 . S
N521 C519 1.384 . S
H522 C528 0.930 . S
H523 C532 0.943 . S
H524 C537 0.927 . S
H525 C535 0.929 . S
H526 C530 0.942 . S
H527 C536 0.929 . S
C528 H522 0.930 . S
C528 C529 1.367 . S
C528 C536 1.378 . S
C529 C528 1.367 . S
C529 C537 1.433 . S
C530 H526 0.942 . S
C530 C532 1.378 . S
C530 C534 1.350 . S
C531 C534 1.463 . S
C531 C536 1.350 . S
C531 N539 1.427 . S
C532 H523 0.943 . S
C532 C530 1.378 . S
C532 C533 1.367 . S
C533 C532 1.367 . S
C533 C535 1.433 . S
C534 C530 1.350 . S
C534 C531 1.463 . S
C534 N538 1.427 . S
C535 H525 0.929 . S
C535 C533 1.433 . S
C535 N538 1.384 . S
C536 H527 0.929 . S
C536 C528 1.378 . S
C536 C531 1.350 . S
C537 H524 0.927 . S
C537 C529 1.433 . S
C537 N539 1.384 . S
N538 C534 1.427 . S
N538 C535 1.384 . S
N539 C531 1.427 . S
N539 C537 1.384 . S
H540 C546 0.930 . S
H541 C550 0.930 . S
H542 C555 0.929 . S
H543 C553 0.929 . S
H544 C548 0.929 . S
H545 C554 0.929 . S
C546 H540 0.930 . S
C546 C547 1.367 . S
C546 C554 1.378 . S
C547 C546 1.367 . S
C547 C555 1.433 . S
C548 H544 0.929 . S
C548 C550 1.378 . S
C548 C552 1.350 . S
C549 C552 1.463 . S
C549 C554 1.350 . S
C549 N557 1.427 . S
C550 H541 0.930 . S
C550 C548 1.378 . S
C550 C551 1.367 . S
C551 C550 1.367 . S
C551 C553 1.433 . S
C552 C548 1.350 . S
C552 C549 1.463 . S
C552 N556 1.427 . S
C553 H543 0.929 . S
C553 C551 1.433 . S
C553 N556 1.384 . S
C554 H545 0.929 . S
C554 C546 1.378 . S
C554 C549 1.350 . S
C555 H542 0.929 . S
C555 C547 1.433 . S
C555 N557 1.384 . S
N556 C552 1.427 . S
N556 C553 1.384 . S
N557 C549 1.427 . S
N557 C555 1.384 . S
H558 C564 0.930 . S
H559 C568 0.929 . S
H560 C573 0.918 1_554 S
H561 C571 0.929 . S
H562 C566 0.928 . S
H563 C572 0.929 . S
C564 H558 0.930 . S
C564 C565 1.367 . S
C564 C572 1.378 . S
C565 C564 1.367 . S
C565 C573 1.433 . S
C566 H562 0.928 . S
C566 C568 1.378 . S
C566 C570 1.350 . S
C567 C570 1.463 . S
C567 C572 1.350 . S
C567 N575 1.427 . S
C568 H559 0.929 . S
C568 C566 1.378 . S
C568 C569 1.367 . S
C569 C568 1.367 . S
C569 C571 1.433 . S
C570 C566 1.350 . S
C570 C567 1.463 . S
C570 N574 1.427 . S
C571 H561 0.929 . S
C571 C569 1.433 . S
C571 N574 1.384 . S
C572 H563 0.929 . S
C572 C564 1.378 . S
C572 C567 1.350 . S
C573 H560 0.918 1_556 S
C573 C565 1.433 . S
C573 N575 1.384 . S
N574 C570 1.427 . S
N574 C571 1.384 . S
N575 C567 1.427 . S
N575 C573 1.384 . S
H576 C582 0.930 . S
H577 C586 0.930 . S
H578 C591 0.929 . S
H579 C589 0.929 . S
H580 C584 0.929 . S
H581 C590 0.929 . S
C582 H576 0.930 . S
C582 C583 1.367 . S
C582 C590 1.378 . S
C583 C582 1.367 . S
C583 C591 1.433 . S
C584 H580 0.929 . S
C584 C586 1.378 . S
C584 C588 1.350 . S
C585 C588 1.463 . S
C585 C590 1.350 . S
C585 N593 1.427 . S
C586 H577 0.930 . S
C586 C584 1.378 . S
C586 C587 1.367 . S
C587 C586 1.367 . S
C587 C589 1.433 . S
C588 C584 1.350 . S
C588 C585 1.463 . S
C588 N592 1.427 . S
C589 H579 0.929 . S
C589 C587 1.433 . S
C589 N592 1.384 . S
C590 H581 0.929 . S
C590 C582 1.378 . S
C590 C585 1.350 . S
C591 H578 0.929 . S
C591 C583 1.433 . S
C591 N593 1.384 . S
N592 C588 1.427 . S
N592 C589 1.384 . S
N593 C585 1.427 . S
N593 C591 1.384 . S
H594 C600 0.930 . S
H595 C604 0.930 . S
H596 C609 0.929 . S
H597 C607 0.929 . S
H598 C602 0.929 . S
H599 C608 0.929 . S
C600 H594 0.930 . S
C600 C601 1.367 . S
C600 C608 1.378 . S
C601 C600 1.367 . S
C601 C609 1.433 . S
C602 H598 0.929 . S
C602 C604 1.378 . S
C602 C606 1.350 . S
C603 C606 1.463 . S
C603 C608 1.350 . S
C603 N611 1.427 . S
C604 H595 0.930 . S
C604 C602 1.378 . S
C604 C605 1.367 . S
C605 C604 1.367 . S
C605 C607 1.433 . S
C606 C602 1.350 . S
C606 C603 1.463 . S
C606 N610 1.427 . S
C607 H597 0.929 . S
C607 C605 1.433 . S
C607 N610 1.384 . S
C608 H599 0.929 . S
C608 C600 1.378 . S
C608 C603 1.350 . S
C609 H596 0.929 . S
C609 C601 1.433 . S
C609 N611 1.384 . S
N610 C606 1.427 . S
N610 C607 1.384 . S
N611 C603 1.427 . S
N611 C609 1.384 . S
H612 C618 0.930 . S
H613 C622 0.930 . S
H614 C627 0.929 . S
H615 C625 0.929 . S
H616 C620 0.929 . S
H617 C626 0.929 . S
C618 H612 0.930 . S
C618 C619 1.367 . S
C618 C626 1.378 . S
C619 C618 1.367 . S
C619 C627 1.433 . S
C620 H616 0.929 . S
C620 C622 1.378 . S
C620 C624 1.350 . S
C621 C624 1.463 . S
C621 C626 1.350 . S
C621 N629 1.427 . S
C622 H613 0.930 . S
C622 C620 1.378 . S
C622 C623 1.367 . S
C623 C622 1.367 . S
C623 C625 1.433 . S
C624 C620 1.350 . S
C624 C621 1.463 . S
C624 N628 1.427 . S
C625 H615 0.929 . S
C625 C623 1.433 . S
C625 N628 1.384 . S
C626 H617 0.929 . S
C626 C618 1.378 . S
C626 C621 1.350 . S
C627 H614 0.929 . S
C627 C619 1.433 . S
C627 N629 1.384 . S
N628 C624 1.427 . S
N628 C625 1.384 . S
N629 C621 1.427 . S
N629 C627 1.384 . S
H630 C636 0.930 . S
H631 C640 0.930 . S
H632 C645 0.929 . S
H633 C643 0.929 . S
H634 C638 0.929 . S
H635 C644 0.929 . S
C636 H630 0.930 . S
C636 C637 1.367 . S
C636 C644 1.378 . S
C637 C636 1.367 . S
C637 C645 1.433 . S
C638 H634 0.929 . S
C638 C640 1.378 . S
C638 C642 1.350 . S
C639 C642 1.463 . S
C639 C644 1.350 . S
C639 N647 1.427 . S
C640 H631 0.930 . S
C640 C638 1.378 . S
C640 C641 1.367 . S
C641 C640 1.367 . S
C641 C643 1.433 . S
C642 C638 1.350 . S
C642 C639 1.463 . S
C642 N646 1.427 . S
C643 H633 0.929 . S
C643 C641 1.433 . S
C643 N646 1.384 . S
C644 H635 0.929 . S
C644 C636 1.378 . S
C644 C639 1.350 . S
C645 H632 0.929 . S
C645 C637 1.433 . S
C645 N647 1.384 . S
N646 C642 1.427 . S
N646 C643 1.384 . S
N647 C639 1.427 . S
N647 C645 1.384 . S
H648 C654 0.930 . S
H649 C658 0.930 . S
H650 C663 0.929 . S
H651 C661 0.929 . S
H652 C656 0.929 . S
H653 C662 0.929 . S
C654 H648 0.930 . S
C654 C655 1.367 . S
C654 C662 1.378 . S
C655 C654 1.367 . S
C655 C663 1.433 . S
C656 H652 0.929 . S
C656 C658 1.378 . S
C656 C660 1.350 . S
C657 C660 1.463 . S
C657 C662 1.350 . S
C657 N665 1.427 . S
C658 H649 0.930 . S
C658 C656 1.378 . S
C658 C659 1.367 . S
C659 C658 1.367 . S
C659 C661 1.433 . S
C660 C656 1.350 . S
C660 C657 1.463 . S
C660 N664 1.427 . S
C661 H651 0.929 . S
C661 C659 1.433 . S
C661 N664 1.384 . S
C662 H653 0.929 . S
C662 C654 1.378 . S
C662 C657 1.350 . S
C663 H650 0.929 . S
C663 C655 1.433 . S
C663 N665 1.384 . S
N664 C660 1.427 . S
N664 C661 1.384 . S
N665 C657 1.427 . S
N665 C663 1.384 . S
H666 C672 0.930 . S
H667 C676 0.930 . S
H668 C681 0.929 . S
H669 C679 0.929 . S
H670 C674 0.929 . S
H671 C680 0.929 . S
C672 H666 0.930 . S
C672 C673 1.367 . S
C672 C680 1.378 . S
C673 C672 1.367 . S
C673 C681 1.433 . S
C674 H670 0.929 . S
C674 C676 1.378 . S
C674 C678 1.350 . S
C675 C678 1.463 . S
C675 C680 1.350 . S
C675 N683 1.427 . S
C676 H667 0.930 . S
C676 C674 1.378 . S
C676 C677 1.367 . S
C677 C676 1.367 . S
C677 C679 1.433 . S
C678 C674 1.350 . S
C678 C675 1.463 . S
C678 N682 1.427 . S
C679 H669 0.929 . S
C679 C677 1.433 . S
C679 N682 1.384 . S
C680 H671 0.929 . S
C680 C672 1.378 . S
C680 C675 1.350 . S
C681 H668 0.929 . S
C681 C673 1.433 . S
C681 N683 1.384 . S
N682 C678 1.427 . S
N682 C679 1.384 . S
N683 C675 1.427 . S
N683 C681 1.384 . S
H684 C690 0.930 . S
H685 C694 0.930 . S
H686 C699 0.929 . S
H687 C697 0.929 . S
H688 C692 0.929 . S
H689 C698 0.929 . S
C690 H684 0.930 . S
C690 C691 1.367 . S
C690 C698 1.378 . S
C691 C690 1.367 . S
C691 C699 1.433 . S
C692 H688 0.929 . S
C692 C694 1.378 . S
C692 C696 1.350 . S
C693 C696 1.463 . S
C693 C698 1.350 . S
C693 N701 1.427 . S
C694 H685 0.930 . S
C694 C692 1.378 . S
C694 C695 1.367 . S
C695 C694 1.367 . S
C695 C697 1.433 . S
C696 C692 1.350 . S
C696 C693 1.463 . S
C696 N700 1.427 . S
C697 H687 0.929 . S
C697 C695 1.433 . S
C697 N700 1.384 . S
C698 H689 0.929 . S
C698 C690 1.378 . S
C698 C693 1.350 . S
C699 H686 0.929 . S
C699 C691 1.433 . S
C699 N701 1.384 . S
N700 C696 1.427 . S
N700 C697 1.384 . S
N701 C693 1.427 . S
N701 C699 1.384 . S
H702 C708 0.930 . S
H703 C712 0.930 . S
H704 C717 0.929 . S
H705 C715 0.929 . S
H706 C710 0.929 . S
H707 C716 0.929 . S
C708 H702 0.930 . S
C708 C709 1.367 . S
C708 C716 1.378 . S
C709 C708 1.367 . S
C709 C717 1.433 . S
C710 H706 0.929 . S
C710 C712 1.378 . S
C710 C714 1.350 . S
C711 C714 1.463 . S
C711 C716 1.350 . S
C711 N719 1.427 . S
C712 H703 0.930 . S
C712 C710 1.378 . S
C712 C713 1.367 . S
C713 C712 1.367 . S
C713 C715 1.433 . S
C714 C710 1.350 . S
C714 C711 1.463 . S
C714 N718 1.427 . S
C715 H705 0.929 . S
C715 C713 1.433 . S
C715 N718 1.384 . S
C716 H707 0.929 . S
C716 C708 1.378 . S
C716 C711 1.350 . S
C717 H704 0.929 . S
C717 C709 1.433 . S
C717 N719 1.384 . S
N718 C714 1.427 . S
N718 C715 1.384 . S
N719 C711 1.427 . S
N719 C717 1.384 . S
H720 C726 0.930 . S
H721 C730 0.930 . S
H722 C735 0.929 . S
H723 C733 0.929 . S
H724 C728 0.929 . S
H725 C734 0.929 . S
C726 H720 0.930 . S
C726 C727 1.367 . S
C726 C734 1.378 . S
C727 C726 1.367 . S
C727 C735 1.433 . S
C728 H724 0.929 . S
C728 C730 1.378 . S
C728 C732 1.350 . S
C729 C732 1.463 . S
C729 C734 1.350 . S
C729 N737 1.427 . S
C730 H721 0.930 . S
C730 C728 1.378 . S
C730 C731 1.367 . S
C731 C730 1.367 . S
C731 C733 1.433 . S
C732 C728 1.350 . S
C732 C729 1.463 . S
C732 N736 1.427 . S
C733 H723 0.929 . S
C733 C731 1.433 . S
C733 N736 1.384 . S
C734 H725 0.929 . S
C734 C726 1.378 . S
C734 C729 1.350 . S
C735 H722 0.929 . S
C735 C727 1.433 . S
C735 N737 1.384 . S
N736 C732 1.427 . S
N736 C733 1.384 . S
N737 C729 1.427 . S
N737 C735 1.384 . S
H738 C744 0.930 . S
H739 C748 0.930 . S
H740 C753 0.929 . S
H741 C751 0.929 . S
H742 C746 0.929 . S
H743 C752 0.929 . S
C744 H738 0.930 . S
C744 C745 1.367 . S
C744 C752 1.378 . S
C745 C744 1.367 . S
C745 C753 1.433 . S
C746 H742 0.929 . S
C746 C748 1.378 . S
C746 C750 1.350 . S
C747 C750 1.463 . S
C747 C752 1.350 . S
C747 N755 1.427 . S
C748 H739 0.930 . S
C748 C746 1.378 . S
C748 C749 1.367 . S
C749 C748 1.367 . S
C749 C751 1.433 . S
C750 C746 1.350 . S
C750 C747 1.463 . S
C750 N754 1.427 . S
C751 H741 0.929 . S
C751 C749 1.433 . S
C751 N754 1.384 . S
C752 H743 0.929 . S
C752 C744 1.378 . S
C752 C747 1.350 . S
C753 H740 0.929 . S
C753 C745 1.433 . S
C753 N755 1.384 . S
N754 C750 1.427 . S
N754 C751 1.384 . S
N755 C747 1.427 . S
N755 C753 1.384 . S
H756 C762 0.930 . S
H757 C766 0.930 . S
H758 C771 0.929 . S
H759 C769 0.929 . S
H760 C764 0.929 . S
H761 C770 0.929 . S
C762 H756 0.930 . S
C762 C763 1.367 . S
C762 C770 1.378 . S
C763 C762 1.367 . S
C763 C771 1.433 . S
C764 H760 0.929 . S
C764 C766 1.378 . S
C764 C768 1.350 . S
C765 C768 1.463 . S
C765 C770 1.350 . S
C765 N773 1.427 . S
C766 H757 0.930 . S
C766 C764 1.378 . S
C766 C767 1.367 . S
C767 C766 1.367 . S
C767 C769 1.433 . S
C768 C764 1.350 . S
C768 C765 1.463 . S
C768 N772 1.427 . S
C769 H759 0.929 . S
C769 C767 1.433 . S
C769 N772 1.384 . S
C770 H761 0.929 . S
C770 C762 1.378 . S
C770 C765 1.350 . S
C771 H758 0.929 . S
C771 C763 1.433 . S
C771 N773 1.384 . S
N772 C768 1.427 . S
N772 C769 1.384 . S
N773 C765 1.427 . S
N773 C771 1.384 . S
H774 C780 0.930 . S
H775 C784 0.930 . S
H776 C789 0.929 . S
H777 C787 0.929 . S
H778 C782 0.929 . S
H779 C788 0.929 . S
C780 H774 0.930 . S
C780 C781 1.367 . S
C780 C788 1.378 . S
C781 C780 1.367 . S
C781 C789 1.433 . S
C782 H778 0.929 . S
C782 C784 1.378 . S
C782 C786 1.350 . S
C783 C786 1.463 . S
C783 C788 1.350 . S
C783 N791 1.427 . S
C784 H775 0.930 . S
C784 C782 1.378 . S
C784 C785 1.367 . S
C785 C784 1.367 . S
C785 C787 1.433 . S
C786 C782 1.350 . S
C786 C783 1.463 . S
C786 N790 1.427 . S
C787 H777 0.929 . S
C787 C785 1.433 . S
C787 N790 1.384 . S
C788 H779 0.929 . S
C788 C780 1.378 . S
C788 C783 1.350 . S
C789 H776 0.929 . S
C789 C781 1.433 . S
C789 N791 1.384 . S
N790 C786 1.427 . S
N790 C787 1.384 . S
N791 C783 1.427 . S
N791 C789 1.384 . S
H792 C798 0.930 . S
H793 C802 0.930 . S
H794 C807 0.929 . S
H795 C805 0.929 . S
H796 C800 0.929 . S
H797 C806 0.929 . S
C798 H792 0.930 . S
C798 C799 1.367 . S
C798 C806 1.378 . S
C799 C798 1.367 . S
C799 C807 1.433 . S
C800 H796 0.929 . S
C800 C802 1.378 . S
C800 C804 1.350 . S
C801 C804 1.463 . S
C801 C806 1.350 . S
C801 N809 1.427 . S
C802 H793 0.930 . S
C802 C800 1.378 . S
C802 C803 1.367 . S
C803 C802 1.367 . S
C803 C805 1.433 . S
C804 C800 1.350 . S
C804 C801 1.463 . S
C804 N808 1.427 . S
C805 H795 0.929 . S
C805 C803 1.433 . S
C805 N808 1.384 . S
C806 H797 0.929 . S
C806 C798 1.378 . S
C806 C801 1.350 . S
C807 H794 0.929 . S
C807 C799 1.433 . S
C807 N809 1.384 . S
N808 C804 1.427 . S
N808 C805 1.384 . S
N809 C801 1.427 . S
N809 C807 1.384 . S
H810 C816 0.930 . S
H811 C820 0.930 . S
H812 C825 0.929 . S
H813 C823 0.929 . S
H814 C818 0.929 . S
H815 C824 0.929 . S
C816 H810 0.930 . S
C816 C817 1.367 . S
C816 C824 1.378 . S
C817 C816 1.367 . S
C817 C825 1.433 . S
C818 H814 0.929 . S
C818 C820 1.378 . S
C818 C822 1.350 . S
C819 C822 1.463 . S
C819 C824 1.350 . S
C819 N827 1.427 . S
C820 H811 0.930 . S
C820 C818 1.378 . S
C820 C821 1.367 . S
C821 C820 1.367 . S
C821 C823 1.433 . S
C822 C818 1.350 . S
C822 C819 1.463 . S
C822 N826 1.427 . S
C823 H813 0.929 . S
C823 C821 1.433 . S
C823 N826 1.384 . S
C824 H815 0.929 . S
C824 C816 1.378 . S
C824 C819 1.350 . S
C825 H812 0.929 . S
C825 C817 1.433 . S
C825 N827 1.384 . S
N826 C822 1.427 . S
N826 C823 1.384 . S
N827 C819 1.427 . S
N827 C825 1.384 . S
H828 C834 0.930 . S
H829 C838 0.930 . S
H830 C843 0.929 . S
H831 C841 0.929 . S
H832 C836 0.929 . S
H833 C842 0.929 . S
C834 H828 0.930 . S
C834 C835 1.367 . S
C834 C842 1.378 . S
C835 C834 1.367 . S
C835 C843 1.433 . S
C836 H832 0.929 . S
C836 C838 1.378 . S
C836 C840 1.350 . S
C837 C840 1.463 1_454 S
C837 C842 1.350 . S
C837 N845 1.427 . S
C838 H829 0.930 . S
C838 C836 1.378 . S
C838 C839 1.367 . S
C839 C838 1.367 . S
C839 C841 1.433 . S
C840 C836 1.350 . S
C840 C837 1.463 1_656 S
C840 N844 1.427 . S
C841 H831 0.929 . S
C841 C839 1.433 . S
C841 N844 1.384 . S
C842 H833 0.929 . S
C842 C834 1.378 . S
C842 C837 1.350 . S
C843 H830 0.929 . S
C843 C835 1.433 . S
C843 N845 1.384 . S
N844 C840 1.427 . S
N844 C841 1.384 . S
N845 C837 1.427 . S
N845 C843 1.384 . S
H846 C852 0.930 . S
H847 C856 0.930 . S
H848 C861 0.929 1_554 S
H849 C859 0.929 1_556 S
H850 C854 0.929 . S
H851 C860 0.929 . S
C852 H846 0.930 . S
C852 C853 1.367 . S
C852 C860 1.378 . S
C853 C852 1.367 . S
C853 C861 1.433 . S
C854 H850 0.929 . S
C854 C856 1.378 . S
C854 C858 1.350 . S
C855 C858 1.463 1_556 S
C855 C860 1.350 . S
C855 N863 1.427 1_556 S
C856 H847 0.930 . S
C856 C854 1.378 . S
C856 C857 1.367 . S
C857 C856 1.367 . S
C857 C859 1.433 . S
C858 C854 1.350 . S
C858 C855 1.463 1_554 S
C858 N862 1.427 1_554 S
C859 H849 0.929 1_554 S
C859 C857 1.433 . S
C859 N862 1.384 1_554 S
C860 H851 0.929 . S
C860 C852 1.378 . S
C860 C855 1.350 . S
C861 H848 0.929 1_556 S
C861 C853 1.433 . S
C861 N863 1.384 1_556 S
N862 C858 1.427 1_556 S
N862 C859 1.384 1_556 S
N863 C855 1.427 1_554 S
N863 C861 1.384 1_554 S
H864 C870 0.930 . S
H865 C874 0.930 . S
H866 C879 0.929 . S
H867 C877 0.929 . S
H868 C872 0.929 . S
H869 C878 0.929 . S
C870 H864 0.930 . S
C870 C871 1.367 . S
C870 C878 1.378 . S
C871 C870 1.367 . S
C871 C879 1.433 1_554 S
C872 H868 0.929 . S
C872 C874 1.378 . S
C872 C876 1.350 . S
C873 C876 1.463 1_564 S
C873 C878 1.350 . S
C873 N881 1.427 1_554 S
C874 H865 0.930 . S
C874 C872 1.378 . S
C874 C875 1.367 . S
C875 C874 1.367 . S
C875 C877 1.433 1_556 S
C876 C872 1.350 . S
C876 C873 1.463 1_546 S
C876 N880 1.427 1_556 S
C877 H867 0.929 . S
C877 C875 1.433 1_554 S
C877 N880 1.384 . S
C878 H869 0.929 . S
C878 C870 1.378 . S
C878 C873 1.350 . S
C879 H866 0.929 . S
C879 C871 1.433 1_556 S
C879 N881 1.384 . S
N880 C876 1.427 1_554 S
N880 C877 1.384 . S
N881 C873 1.427 1_556 S
N881 C879 1.384 . S
H882 C888 0.930 . S
H883 C892 0.930 . S
H884 C897 0.929 . S
H885 C895 0.929 . S
H886 C890 0.929 . S
H887 C896 0.929 . S
C888 H882 0.930 . S
C888 C889 1.367 . S
C888 C896 1.378 . S
C889 C888 1.367 . S
C889 C897 1.433 . S
C890 H886 0.929 . S
C890 C892 1.378 . S
C890 C894 1.350 . S
C891 C894 1.463 1_656 S
C891 C896 1.350 . S
C891 N899 1.427 . S
C892 H883 0.930 . S
C892 C890 1.378 . S
C892 C893 1.367 . S
C893 C892 1.367 . S
C893 C895 1.433 . S
C894 C890 1.350 . S
C894 C891 1.463 1_454 S
C894 N898 1.427 . S
C895 H885 0.929 . S
C895 C893 1.433 . S
C895 N898 1.384 . S
C896 H887 0.929 . S
C896 C888 1.378 . S
C896 C891 1.350 . S
C897 H884 0.929 . S
C897 C889 1.433 . S
C897 N899 1.384 . S
N898 C894 1.427 . S
N898 C895 1.384 . S
N899 C891 1.427 . S
N899 C897 1.384 . S
H900 C906 0.930 . S
H901 C910 0.930 . S
H902 C915 0.929 . S
H903 C913 0.929 . S
H904 C908 0.929 . S
H905 C914 0.929 . S
C906 H900 0.930 . S
C906 C907 1.367 . S
C906 C914 1.378 . S
C907 C906 1.367 . S
C907 C915 1.433 . S
C908 H904 0.929 . S
C908 C910 1.378 . S
C908 C912 1.350 . S
C909 C912 1.463 1_556 S
C909 C914 1.350 . S
C909 N917 1.427 . S
C910 H901 0.930 . S
C910 C908 1.378 . S
C910 C911 1.367 . S
C911 C910 1.367 . S
C911 C913 1.433 . S
C912 C908 1.350 . S
C912 C909 1.463 1_554 S
C912 N916 1.427 . S
C913 H903 0.929 . S
C913 C911 1.433 . S
C913 N916 1.384 . S
C914 H905 0.929 . S
C914 C906 1.378 . S
C914 C909 1.350 . S
C915 H902 0.929 . S
C915 C907 1.433 . S
C915 N917 1.384 . S
N916 C912 1.427 . S
N916 C913 1.384 . S
N917 C909 1.427 . S
N917 C915 1.384 . S
H918 C924 0.930 . S
H919 C928 0.930 . S
H920 C933 0.929 . S
H921 C931 0.929 . S
H922 C926 0.929 . S
H923 C932 0.929 . S
C924 H918 0.930 . S
C924 C925 1.367 . S
C924 C932 1.378 . S
C925 C924 1.367 . S
C925 C933 1.433 1_556 S
C926 H922 0.929 . S
C926 C928 1.378 . S
C926 C930 1.350 . S
C927 C930 1.463 1_546 S
C927 C932 1.350 . S
C927 N935 1.427 1_556 S
C928 H919 0.930 . S
C928 C926 1.378 . S
C928 C929 1.367 . S
C929 C928 1.367 . S
C929 C931 1.433 1_554 S
C930 C926 1.350 . S
C930 C927 1.463 1_564 S
C930 N934 1.427 1_554 S
C931 H921 0.929 . S
C931 C929 1.433 1_556 S
C931 N934 1.384 . S
C932 H923 0.929 . S
C932 C924 1.378 . S
C932 C927 1.350 . S
C933 H920 0.929 . S
C933 C925 1.433 1_554 S
C933 N935 1.384 . S
N934 C930 1.427 1_556 S
N934 C931 1.384 . S
N935 C927 1.427 1_554 S
N935 C933 1.384 . S
H936 C942 0.930 . S
H937 C946 0.930 . S
H938 C951 0.929 . S
H939 C949 0.929 . S
H940 C944 0.929 . S
H941 C950 0.929 . S
C942 H936 0.930 . S
C942 C943 1.367 . S
C942 C950 1.378 . S
C943 C942 1.367 . S
C943 C951 1.433 . S
C944 H940 0.929 . S
C944 C946 1.378 . S
C944 C948 1.350 . S
C945 C948 1.463 . S
C945 C950 1.350 . S
C945 N953 1.427 . S
C946 H937 0.930 . S
C946 C944 1.378 . S
C946 C947 1.367 . S
C947 C946 1.367 . S
C947 C949 1.433 . S
C948 C944 1.350 . S
C948 C945 1.463 . S
C948 N952 1.427 . S
C949 H939 0.929 . S
C949 C947 1.433 . S
C949 N952 1.384 . S
C950 H941 0.929 . S
C950 C942 1.378 . S
C950 C945 1.350 . S
C951 H938 0.929 . S
C951 C943 1.433 . S
C951 N953 1.384 . S
N952 C948 1.427 . S
N952 C949 1.384 . S
N953 C945 1.427 . S
N953 C951 1.384 . S
H954 C960 0.930 . S
H955 C964 0.930 . S
H956 C969 0.929 . S
H957 C967 0.929 . S
H958 C962 0.929 . S
H959 C968 0.929 . S
C960 H954 0.930 . S
C960 C961 1.367 . S
C960 C968 1.378 . S
C961 C960 1.367 . S
C961 C969 1.433 . S
C962 H958 0.929 . S
C962 C964 1.378 . S
C962 C966 1.350 . S
C963 C966 1.463 . S
C963 C968 1.350 . S
C963 N971 1.427 . S
C964 H955 0.930 . S
C964 C962 1.378 . S
C964 C965 1.367 . S
C965 C964 1.367 . S
C965 C967 1.433 . S
C966 C962 1.350 . S
C966 C963 1.463 . S
C966 N970 1.427 . S
C967 H957 0.929 . S
C967 C965 1.433 . S
C967 N970 1.384 . S
C968 H959 0.929 . S
C968 C960 1.378 . S
C968 C963 1.350 . S
C969 H956 0.929 . S
C969 C961 1.433 . S
C969 N971 1.384 . S
N970 C966 1.427 . S
N970 C967 1.384 . S
N971 C963 1.427 . S
N971 C969 1.384 . S
H972 C978 0.930 . S
H973 C982 0.930 . S
H974 C987 0.929 . S
H975 C985 0.929 . S
H976 C980 0.929 . S
H977 C986 0.929 . S
C978 H972 0.930 . S
C978 C979 1.367 . S
C978 C986 1.378 . S
C979 C978 1.367 . S
C979 C987 1.433 . S
C980 H976 0.929 . S
C980 C982 1.378 . S
C980 C984 1.350 . S
C981 C984 1.463 . S
C981 C986 1.350 . S
C981 N989 1.427 . S
C982 H973 0.930 . S
C982 C980 1.378 . S
C982 C983 1.367 . S
C983 C982 1.367 . S
C983 C985 1.433 . S
C984 C980 1.350 . S
C984 C981 1.463 . S
C984 N988 1.427 . S
C985 H975 0.929 . S
C985 C983 1.433 . S
C985 N988 1.384 . S
C986 H977 0.929 . S
C986 C978 1.378 . S
C986 C981 1.350 . S
C987 H974 0.929 . S
C987 C979 1.433 . S
C987 N989 1.384 . S
N988 C984 1.427 . S
N988 C985 1.384 . S
N989 C981 1.427 . S
N989 C987 1.384 . S
H990 C996 0.930 . S
H991 C1000 0.930 . S
H992 C1005 0.929 . S
H993 C1003 0.929 . S
H994 C998 0.929 . S
H995 C1004 0.929 . S
C996 H990 0.930 . S
C996 C997 1.367 . S
C996 C1004 1.378 . S
C997 C996 1.367 . S
C997 C1005 1.433 . S
C998 H994 0.929 . S
C998 C1000 1.378 . S
C998 C1002 1.350 . S
C999 C1002 1.463 . S
C999 C1004 1.350 . S
C999 N1007 1.427 . S
C1000 H991 0.930 . S
C1000 C998 1.378 . S
C1000 C1001 1.367 . S
C1001 C1000 1.367 . S
C1001 C1003 1.433 . S
C1002 C998 1.350 . S
C1002 C999 1.463 . S
C1002 N1006 1.427 . S
C1003 H993 0.929 . S
C1003 C1001 1.433 . S
C1003 N1006 1.384 . S
C1004 H995 0.929 . S
C1004 C996 1.378 . S
C1004 C999 1.350 . S
C1005 H992 0.929 . S
C1005 C997 1.433 . S
C1005 N1007 1.384 . S
N1006 C1002 1.427 . S
N1006 C1003 1.384 . S
N1007 C999 1.427 . S
N1007 C1005 1.384 . S
H1008 C1014 0.930 . S
H1009 C1018 0.930 . S
H1010 C1023 0.929 . S
H1011 C1021 0.929 . S
H1012 C1016 0.929 . S
H1013 C1022 0.929 . S
C1014 H1008 0.930 . S
C1014 C1015 1.367 . S
C1014 C1022 1.378 . S
C1015 C1014 1.367 . S
C1015 C1023 1.433 . S
C1016 H1012 0.929 . S
C1016 C1018 1.378 . S
C1016 C1020 1.350 . S
C1017 C1020 1.463 . S
C1017 C1022 1.350 . S
C1017 N1025 1.427 . S
C1018 H1009 0.930 . S
C1018 C1016 1.378 . S
C1018 C1019 1.367 . S
C1019 C1018 1.367 . S
C1019 C1021 1.433 . S
C1020 C1016 1.350 . S
C1020 C1017 1.463 . S
C1020 N1024 1.427 . S
C1021 H1011 0.929 . S
C1021 C1019 1.433 . S
C1021 N1024 1.384 . S
C1022 H1013 0.929 . S
C1022 C1014 1.378 . S
C1022 C1017 1.350 . S
C1023 H1010 0.929 . S
C1023 C1015 1.433 . S
C1023 N1025 1.384 . S
N1024 C1020 1.427 . S
N1024 C1021 1.384 . S
N1025 C1017 1.427 . S
N1025 C1023 1.384 . S
H1026 C1032 0.930 . S
H1027 C1036 0.930 . S
H1028 C1041 0.929 . S
H1029 C1039 0.929 . S
H1030 C1034 0.929 . S
H1031 C1040 0.929 . S
C1032 H1026 0.930 . S
C1032 C1033 1.367 . S
C1032 C1040 1.378 . S
C1033 C1032 1.367 . S
C1033 C1041 1.433 . S
C1034 H1030 0.929 . S
C1034 C1036 1.378 . S
C1034 C1038 1.350 . S
C1035 C1038 1.463 . S
C1035 C1040 1.350 . S
C1035 N1043 1.427 . S
C1036 H1027 0.930 . S
C1036 C1034 1.378 . S
C1036 C1037 1.367 . S
C1037 C1036 1.367 . S
C1037 C1039 1.433 . S
C1038 C1034 1.350 . S
C1038 C1035 1.463 . S
C1038 N1042 1.427 . S
C1039 H1029 0.929 . S
C1039 C1037 1.433 . S
C1039 N1042 1.384 . S
C1040 H1031 0.929 . S
C1040 C1032 1.378 . S
C1040 C1035 1.350 . S
C1041 H1028 0.929 . S
C1041 C1033 1.433 . S
C1041 N1043 1.384 . S
N1042 C1038 1.427 . S
N1042 C1039 1.384 . S
N1043 C1035 1.427 . S
N1043 C1041 1.384 . S
H1044 C1050 0.930 . S
H1045 C1054 0.930 . S
H1046 C1059 0.929 . S
H1047 C1057 0.929 . S
H1048 C1052 0.929 . S
H1049 C1058 0.929 . S
C1050 H1044 0.930 . S
C1050 C1051 1.367 . S
C1050 C1058 1.378 . S
C1051 C1050 1.367 . S
C1051 C1059 1.433 . S
C1052 H1048 0.929 . S
C1052 C1054 1.378 . S
C1052 C1056 1.350 . S
C1053 C1056 1.463 . S
C1053 C1058 1.350 . S
C1053 N1061 1.427 . S
C1054 H1045 0.930 . S
C1054 C1052 1.378 . S
C1054 C1055 1.367 . S
C1055 C1054 1.367 . S
C1055 C1057 1.433 . S
C1056 C1052 1.350 . S
C1056 C1053 1.463 . S
C1056 N1060 1.427 . S
C1057 H1047 0.929 . S
C1057 C1055 1.433 . S
C1057 N1060 1.384 . S
C1058 H1049 0.929 . S
C1058 C1050 1.378 . S
C1058 C1053 1.350 . S
C1059 H1046 0.929 . S
C1059 C1051 1.433 . S
C1059 N1061 1.384 . S
N1060 C1056 1.427 . S
N1060 C1057 1.384 . S
N1061 C1053 1.427 . S
N1061 C1059 1.384 . S
H1062 C1068 0.930 . S
H1063 C1072 0.930 . S
H1064 C1077 0.929 . S
H1065 C1075 0.929 . S
H1066 C1070 0.929 . S
H1067 C1076 0.929 . S
C1068 H1062 0.930 . S
C1068 C1069 1.367 . S
C1068 C1076 1.378 . S
C1069 C1068 1.367 . S
C1069 C1077 1.433 . S
C1070 H1066 0.929 . S
C1070 C1072 1.378 . S
C1070 C1074 1.350 . S
C1071 C1074 1.463 . S
C1071 C1076 1.350 . S
C1071 N1079 1.427 . S
C1072 H1063 0.930 . S
C1072 C1070 1.378 . S
C1072 C1073 1.367 . S
C1073 C1072 1.367 . S
C1073 C1075 1.433 . S
C1074 C1070 1.350 . S
C1074 C1071 1.463 . S
C1074 N1078 1.427 . S
C1075 H1065 0.929 . S
C1075 C1073 1.433 . S
C1075 N1078 1.384 . S
C1076 H1067 0.929 . S
C1076 C1068 1.378 . S
C1076 C1071 1.350 . S
C1077 H1064 0.929 . S
C1077 C1069 1.433 . S
C1077 N1079 1.384 . S
N1078 C1074 1.427 . S
N1078 C1075 1.384 . S
N1079 C1071 1.427 . S
N1079 C1077 1.384 . S
H1080 C1086 0.930 . S
H1081 C1090 0.930 . S
H1082 C1095 0.929 . S
H1083 C1093 0.929 . S
H1084 C1088 0.929 . S
H1085 C1094 0.929 . S
C1086 H1080 0.930 . S
C1086 C1087 1.367 . S
C1086 C1094 1.378 . S
C1087 C1086 1.367 . S
C1087 C1095 1.433 . S
C1088 H1084 0.929 . S
C1088 C1090 1.378 . S
C1088 C1092 1.350 . S
C1089 C1092 1.463 . S
C1089 C1094 1.350 . S
C1089 N1097 1.427 . S
C1090 H1081 0.930 . S
C1090 C1088 1.378 . S
C1090 C1091 1.367 . S
C1091 C1090 1.367 . S
C1091 C1093 1.433 . S
C1092 C1088 1.350 . S
C1092 C1089 1.463 . S
C1092 N1096 1.427 . S
C1093 H1083 0.929 . S
C1093 C1091 1.433 . S
C1093 N1096 1.384 . S
C1094 H1085 0.929 . S
C1094 C1086 1.378 . S
C1094 C1089 1.350 . S
C1095 H1082 0.929 . S
C1095 C1087 1.433 . S
C1095 N1097 1.384 . S
N1096 C1092 1.427 . S
N1096 C1093 1.384 . S
N1097 C1089 1.427 . S
N1097 C1095 1.384 . S
H1098 C1104 0.930 . S
H1099 C1108 0.930 . S
H1100 C1113 0.929 . S
H1101 C1111 0.929 . S
H1102 C1106 0.929 . S
H1103 C1112 0.929 . S
C1104 H1098 0.930 . S
C1104 C1105 1.367 . S
C1104 C1112 1.378 . S
C1105 C1104 1.367 . S
C1105 C1113 1.433 . S
C1106 H1102 0.929 . S
C1106 C1108 1.378 . S
C1106 C1110 1.350 . S
C1107 C1110 1.463 . S
C1107 C1112 1.350 . S
C1107 N1115 1.427 . S
C1108 H1099 0.930 . S
C1108 C1106 1.378 . S
C1108 C1109 1.367 . S
C1109 C1108 1.367 . S
C1109 C1111 1.433 . S
C1110 C1106 1.350 . S
C1110 C1107 1.463 . S
C1110 N1114 1.427 . S
C1111 H1101 0.929 . S
C1111 C1109 1.433 . S
C1111 N1114 1.384 . S
C1112 H1103 0.929 . S
C1112 C1104 1.378 . S
C1112 C1107 1.350 . S
C1113 H1100 0.929 . S
C1113 C1105 1.433 . S
C1113 N1115 1.384 . S
N1114 C1110 1.427 . S
N1114 C1111 1.384 . S
N1115 C1107 1.427 . S
N1115 C1113 1.384 . S
H1116 C1122 0.930 . S
H1117 C1126 0.930 . S
H1118 C1131 0.929 . S
H1119 C1129 0.929 . S
H1120 C1124 0.929 . S
H1121 C1130 0.929 . S
C1122 H1116 0.930 . S
C1122 C1123 1.367 . S
C1122 C1130 1.378 . S
C1123 C1122 1.367 . S
C1123 C1131 1.433 . S
C1124 H1120 0.929 . S
C1124 C1126 1.378 . S
C1124 C1128 1.350 . S
C1125 C1128 1.463 . S
C1125 C1130 1.350 . S
C1125 N1133 1.427 . S
C1126 H1117 0.930 . S
C1126 C1124 1.378 . S
C1126 C1127 1.367 . S
C1127 C1126 1.367 . S
C1127 C1129 1.433 . S
C1128 C1124 1.350 . S
C1128 C1125 1.463 . S
C1128 N1132 1.427 . S
C1129 H1119 0.929 . S
C1129 C1127 1.433 . S
C1129 N1132 1.384 . S
C1130 H1121 0.929 . S
C1130 C1122 1.378 . S
C1130 C1125 1.350 . S
C1131 H1118 0.929 . S
C1131 C1123 1.433 . S
C1131 N1133 1.384 . S
N1132 C1128 1.427 . S
N1132 C1129 1.384 . S
N1133 C1125 1.427 . S
N1133 C1131 1.384 . S
H1134 C1140 0.930 . S
H1135 C1144 0.930 . S
H1136 C1149 0.929 . S
H1137 C1147 0.929 . S
H1138 C1142 0.929 . S
H1139 C1148 0.929 . S
C1140 H1134 0.930 . S
C1140 C1141 1.367 . S
C1140 C1148 1.378 . S
C1141 C1140 1.367 . S
C1141 C1149 1.433 . S
C1142 H1138 0.929 . S
C1142 C1144 1.378 . S
C1142 C1146 1.350 . S
C1143 C1146 1.463 . S
C1143 C1148 1.350 . S
C1143 N1151 1.427 . S
C1144 H1135 0.930 . S
C1144 C1142 1.378 . S
C1144 C1145 1.367 . S
C1145 C1144 1.367 . S
C1145 C1147 1.433 . S
C1146 C1142 1.350 . S
C1146 C1143 1.463 . S
C1146 N1150 1.427 . S
C1147 H1137 0.929 . S
C1147 C1145 1.433 . S
C1147 N1150 1.384 . S
C1148 H1139 0.929 . S
C1148 C1140 1.378 . S
C1148 C1143 1.350 . S
C1149 H1136 0.929 . S
C1149 C1141 1.433 . S
C1149 N1151 1.384 . S
N1150 C1146 1.427 . S
N1150 C1147 1.384 . S
N1151 C1143 1.427 . S
N1151 C1149 1.384 . S
H1152 C1158 0.930 . S
H1153 C1162 0.930 . S
H1154 C1167 0.929 . S
H1155 C1165 0.929 . S
H1156 C1160 0.929 . S
H1157 C1166 0.929 . S
C1158 H1152 0.930 . S
C1158 C1159 1.367 . S
C1158 C1166 1.378 . S
C1159 C1158 1.367 . S
C1159 C1167 1.433 . S
C1160 H1156 0.929 . S
C1160 C1162 1.378 . S
C1160 C1164 1.350 . S
C1161 C1164 1.463 . S
C1161 C1166 1.350 . S
C1161 N1169 1.427 . S
C1162 H1153 0.930 . S
C1162 C1160 1.378 . S
C1162 C1163 1.367 . S
C1163 C1162 1.367 . S
C1163 C1165 1.433 . S
C1164 C1160 1.350 . S
C1164 C1161 1.463 . S
C1164 N1168 1.427 . S
C1165 H1155 0.929 . S
C1165 C1163 1.433 . S
C1165 N1168 1.384 . S
C1166 H1157 0.929 . S
C1166 C1158 1.378 . S
C1166 C1161 1.350 . S
C1167 H1154 0.929 . S
C1167 C1159 1.433 . S
C1167 N1169 1.384 . S
N1168 C1164 1.427 . S
N1168 C1165 1.384 . S
N1169 C1161 1.427 . S
N1169 C1167 1.384 . S
H1170 C1176 0.930 . S
H1171 C1180 0.930 . S
H1172 C1185 0.929 . S
H1173 C1183 0.929 . S
H1174 C1178 0.929 . S
H1175 C1184 0.929 . S
C1176 H1170 0.930 . S
C1176 C1177 1.367 . S
C1176 C1184 1.378 . S
C1177 C1176 1.367 . S
C1177 C1185 1.433 . S
C1178 H1174 0.929 . S
C1178 C1180 1.378 . S
C1178 C1182 1.350 . S
C1179 C1182 1.463 . S
C1179 C1184 1.350 . S
C1179 N1187 1.427 . S
C1180 H1171 0.930 . S
C1180 C1178 1.378 . S
C1180 C1181 1.367 . S
C1181 C1180 1.367 . S
C1181 C1183 1.433 . S
C1182 C1178 1.350 . S
C1182 C1179 1.463 . S
C1182 N1186 1.427 . S
C1183 H1173 0.929 . S
C1183 C1181 1.433 . S
C1183 N1186 1.384 . S
C1184 H1175 0.929 . S
C1184 C1176 1.378 . S
C1184 C1179 1.350 . S
C1185 H1172 0.929 . S
C1185 C1177 1.433 . S
C1185 N1187 1.384 . S
N1186 C1182 1.427 . S
N1186 C1183 1.384 . S
N1187 C1179 1.427 . S
N1187 C1185 1.384 . S
H1188 C1194 0.930 . S
H1189 C1198 0.930 . S
H1190 C1203 0.929 . S
H1191 C1201 0.929 . S
H1192 C1196 0.929 . S
H1193 C1202 0.929 . S
C1194 H1188 0.930 . S
C1194 C1195 1.367 . S
C1194 C1202 1.378 . S
C1195 C1194 1.367 . S
C1195 C1203 1.433 . S
C1196 H1192 0.929 . S
C1196 C1198 1.378 . S
C1196 C1200 1.350 . S
C1197 C1200 1.463 . S
C1197 C1202 1.350 . S
C1197 N1205 1.427 . S
C1198 H1189 0.930 . S
C1198 C1196 1.378 . S
C1198 C1199 1.367 . S
C1199 C1198 1.367 . S
C1199 C1201 1.433 . S
C1200 C1196 1.350 . S
C1200 C1197 1.463 . S
C1200 N1204 1.427 . S
C1201 H1191 0.929 . S
C1201 C1199 1.433 . S
C1201 N1204 1.384 . S
C1202 H1193 0.929 . S
C1202 C1194 1.378 . S
C1202 C1197 1.350 . S
C1203 H1190 0.929 . S
C1203 C1195 1.433 . S
C1203 N1205 1.384 . S
N1204 C1200 1.427 . S
N1204 C1201 1.384 . S
N1205 C1197 1.427 . S
N1205 C1203 1.384 . S
H1206 C1212 0.930 . S
H1207 C1216 0.930 . S
H1208 C1221 0.929 . S
H1209 C1219 0.929 . S
H1210 C1214 0.929 . S
H1211 C1220 0.929 . S
C1212 H1206 0.930 . S
C1212 C1213 1.367 . S
C1212 C1220 1.378 . S
C1213 C1212 1.367 . S
C1213 C1221 1.433 . S
C1214 H1210 0.929 . S
C1214 C1216 1.378 . S
C1214 C1218 1.350 . S
C1215 C1218 1.463 . S
C1215 C1220 1.350 . S
C1215 N1223 1.427 . S
C1216 H1207 0.930 . S
C1216 C1214 1.378 . S
C1216 C1217 1.367 . S
C1217 C1216 1.367 . S
C1217 C1219 1.433 . S
C1218 C1214 1.350 . S
C1218 C1215 1.463 . S
C1218 N1222 1.427 . S
C1219 H1209 0.929 . S
C1219 C1217 1.433 . S
C1219 N1222 1.384 . S
C1220 H1211 0.929 . S
C1220 C1212 1.378 . S
C1220 C1215 1.350 . S
C1221 H1208 0.929 . S
C1221 C1213 1.433 . S
C1221 N1223 1.384 . S
N1222 C1218 1.427 . S
N1222 C1219 1.384 . S
N1223 C1215 1.427 . S
N1223 C1221 1.384 . S
H1224 C1230 0.930 . S
H1225 C1234 0.930 . S
H1226 C1239 0.929 . S
H1227 C1237 0.929 . S
H1228 C1232 0.929 . S
H1229 C1238 0.929 . S
C1230 H1224 0.930 . S
C1230 C1231 1.367 . S
C1230 C1238 1.378 . S
C1231 C1230 1.367 . S
C1231 C1239 1.433 . S
C1232 H1228 0.929 . S
C1232 C1234 1.378 . S
C1232 C1236 1.350 . S
C1233 C1236 1.463 . S
C1233 C1238 1.350 . S
C1233 N1241 1.427 . S
C1234 H1225 0.930 . S
C1234 C1232 1.378 . S
C1234 C1235 1.367 . S
C1235 C1234 1.367 . S
C1235 C1237 1.433 . S
C1236 C1232 1.350 . S
C1236 C1233 1.463 . S
C1236 N1240 1.427 . S
C1237 H1227 0.929 . S
C1237 C1235 1.433 . S
C1237 N1240 1.384 . S
C1238 H1229 0.929 . S
C1238 C1230 1.378 . S
C1238 C1233 1.350 . S
C1239 H1226 0.929 . S
C1239 C1231 1.433 . S
C1239 N1241 1.384 . S
N1240 C1236 1.427 . S
N1240 C1237 1.384 . S
N1241 C1233 1.427 . S
N1241 C1239 1.384 . S
H1242 C1248 0.930 . S
H1243 C1252 0.930 . S
H1244 C1257 0.929 . S
H1245 C1255 0.929 . S
H1246 C1250 0.929 . S
H1247 C1256 0.929 . S
C1248 H1242 0.930 . S
C1248 C1249 1.367 . S
C1248 C1256 1.378 . S
C1249 C1248 1.367 . S
C1249 C1257 1.433 . S
C1250 H1246 0.929 . S
C1250 C1252 1.378 . S
C1250 C1254 1.350 . S
C1251 C1254 1.463 . S
C1251 C1256 1.350 . S
C1251 N1259 1.427 . S
C1252 H1243 0.930 . S
C1252 C1250 1.378 . S
C1252 C1253 1.367 . S
C1253 C1252 1.367 . S
C1253 C1255 1.433 . S
C1254 C1250 1.350 . S
C1254 C1251 1.463 . S
C1254 N1258 1.427 . S
C1255 H1245 0.929 . S
C1255 C1253 1.433 . S
C1255 N1258 1.384 . S
C1256 H1247 0.929 . S
C1256 C1248 1.378 . S
C1256 C1251 1.350 . S
C1257 H1244 0.929 . S
C1257 C1249 1.433 . S
C1257 N1259 1.384 . S
N1258 C1254 1.427 . S
N1258 C1255 1.384 . S
N1259 C1251 1.427 . S
N1259 C1257 1.384 . S
H1260 C1266 0.930 . S
H1261 C1270 0.930 . S
H1262 C1275 0.929 . S
H1263 C1273 0.929 . S
H1264 C1268 0.929 . S
H1265 C1274 0.929 . S
C1266 H1260 0.930 . S
C1266 C1267 1.367 . S
C1266 C1274 1.378 . S
C1267 C1266 1.367 . S
C1267 C1275 1.433 . S
C1268 H1264 0.929 . S
C1268 C1270 1.378 . S
C1268 C1272 1.350 . S
C1269 C1272 1.463 . S
C1269 C1274 1.350 . S
C1269 N1277 1.427 . S
C1270 H1261 0.930 . S
C1270 C1268 1.378 . S
C1270 C1271 1.367 . S
C1271 C1270 1.367 . S
C1271 C1273 1.433 . S
C1272 C1268 1.350 . S
C1272 C1269 1.463 . S
C1272 N1276 1.427 . S
C1273 H1263 0.929 . S
C1273 C1271 1.433 . S
C1273 N1276 1.384 . S
C1274 H1265 0.929 . S
C1274 C1266 1.378 . S
C1274 C1269 1.350 . S
C1275 H1262 0.929 . S
C1275 C1267 1.433 . S
C1275 N1277 1.384 . S
N1276 C1272 1.427 . S
N1276 C1273 1.384 . S
N1277 C1269 1.427 . S
N1277 C1275 1.384 . S
H1278 C1284 0.930 . S
H1279 C1288 0.930 . S
H1280 C1293 0.929 . S
H1281 C1291 0.929 . S
H1282 C1286 0.929 . S
H1283 C1292 0.929 . S
C1284 H1278 0.930 . S
C1284 C1285 1.367 . S
C1284 C1292 1.378 . S
C1285 C1284 1.367 . S
C1285 C1293 1.433 . S
C1286 H1282 0.929 . S
C1286 C1288 1.378 . S
C1286 C1290 1.350 . S
C1287 C1290 1.463 . S
C1287 C1292 1.350 . S
C1287 N1295 1.427 . S
C1288 H1279 0.930 . S
C1288 C1286 1.378 . S
C1288 C1289 1.367 . S
C1289 C1288 1.367 . S
C1289 C1291 1.433 . S
C1290 C1286 1.350 . S
C1290 C1287 1.463 . S
C1290 N1294 1.427 . S
C1291 H1281 0.929 . S
C1291 C1289 1.433 . S
C1291 N1294 1.384 . S
C1292 H1283 0.929 . S
C1292 C1284 1.378 . S
C1292 C1287 1.350 . S
C1293 H1280 0.929 . S
C1293 C1285 1.433 . S
C1293 N1295 1.384 . S
N1294 C1290 1.427 . S
N1294 C1291 1.384 . S
N1295 C1287 1.427 . S
N1295 C1293 1.384 . S
H1296 C1302 0.930 . S
H1297 C1306 0.930 . S
H1298 C1311 0.929 . S
H1299 C1309 0.929 . S
H1300 C1304 0.929 . S
H1301 C1310 0.929 . S
C1302 H1296 0.930 . S
C1302 C1303 1.367 . S
C1302 C1310 1.378 . S
C1303 C1302 1.367 . S
C1303 C1311 1.433 . S
C1304 H1300 0.929 . S
C1304 C1306 1.378 . S
C1304 C1308 1.350 . S
C1305 C1308 1.463 . S
C1305 C1310 1.350 . S
C1305 N1313 1.427 . S
C1306 H1297 0.930 . S
C1306 C1304 1.378 . S
C1306 C1307 1.367 . S
C1307 C1306 1.367 . S
C1307 C1309 1.433 . S
C1308 C1304 1.350 . S
C1308 C1305 1.463 . S
C1308 N1312 1.427 . S
C1309 H1299 0.929 . S
C1309 C1307 1.433 . S
C1309 N1312 1.384 . S
C1310 H1301 0.929 . S
C1310 C1302 1.378 . S
C1310 C1305 1.350 . S
C1311 H1298 0.929 . S
C1311 C1303 1.433 . S
C1311 N1313 1.384 . S
N1312 C1308 1.427 . S
N1312 C1309 1.384 . S
N1313 C1305 1.427 . S
N1313 C1311 1.384 . S
H1314 C1320 0.930 . S
H1315 C1324 0.930 . S
H1316 C1329 0.929 . S
H1317 C1327 0.929 . S
H1318 C1322 0.929 . S
H1319 C1328 0.929 . S
C1320 H1314 0.930 . S
C1320 C1321 1.367 . S
C1320 C1328 1.378 . S
C1321 C1320 1.367 . S
C1321 C1329 1.433 . S
C1322 H1318 0.929 . S
C1322 C1324 1.378 . S
C1322 C1326 1.350 . S
C1323 C1326 1.463 . S
C1323 C1328 1.350 . S
C1323 N1331 1.427 . S
C1324 H1315 0.930 . S
C1324 C1322 1.378 . S
C1324 C1325 1.367 . S
C1325 C1324 1.367 . S
C1325 C1327 1.433 . S
C1326 C1322 1.350 . S
C1326 C1323 1.463 . S
C1326 N1330 1.427 . S
C1327 H1317 0.929 . S
C1327 C1325 1.433 . S
C1327 N1330 1.384 . S
C1328 H1319 0.929 . S
C1328 C1320 1.378 . S
C1328 C1323 1.350 . S
C1329 H1316 0.929 . S
C1329 C1321 1.433 . S
C1329 N1331 1.384 . S
N1330 C1326 1.427 . S
N1330 C1327 1.384 . S
N1331 C1323 1.427 . S
N1331 C1329 1.384 . S
H1332 C1338 0.930 . S
H1333 C1342 0.930 . S
H1334 C1347 0.929 . S
H1335 C1345 0.929 . S
H1336 C1340 0.929 . S
H1337 C1346 0.929 . S
C1338 H1332 0.930 . S
C1338 C1339 1.367 . S
C1338 C1346 1.378 . S
C1339 C1338 1.367 . S
C1339 C1347 1.433 . S
C1340 H1336 0.929 . S
C1340 C1342 1.378 . S
C1340 C1344 1.350 . S
C1341 C1344 1.463 . S
C1341 C1346 1.350 . S
C1341 N1349 1.427 . S
C1342 H1333 0.930 . S
C1342 C1340 1.378 . S
C1342 C1343 1.367 . S
C1343 C1342 1.367 . S
C1343 C1345 1.433 . S
C1344 C1340 1.350 . S
C1344 C1341 1.463 . S
C1344 N1348 1.427 . S
C1345 H1335 0.929 . S
C1345 C1343 1.433 . S
C1345 N1348 1.384 . S
C1346 H1337 0.929 . S
C1346 C1338 1.378 . S
C1346 C1341 1.350 . S
C1347 H1334 0.929 . S
C1347 C1339 1.433 . S
C1347 N1349 1.384 . S
N1348 C1344 1.427 . S
N1348 C1345 1.384 . S
N1349 C1341 1.427 . S
N1349 C1347 1.384 . S
H1350 C1356 0.930 . S
H1351 C1360 0.930 . S
H1352 C1365 0.929 . S
H1353 C1363 0.929 . S
H1354 C1358 0.929 . S
H1355 C1364 0.929 . S
C1356 H1350 0.930 . S
C1356 C1357 1.367 . S
C1356 C1364 1.378 . S
C1357 C1356 1.367 . S
C1357 C1365 1.433 . S
C1358 H1354 0.929 . S
C1358 C1360 1.378 . S
C1358 C1362 1.350 . S
C1359 C1362 1.463 . S
C1359 C1364 1.350 . S
C1359 N1367 1.427 . S
C1360 H1351 0.930 . S
C1360 C1358 1.378 . S
C1360 C1361 1.367 . S
C1361 C1360 1.367 . S
C1361 C1363 1.433 . S
C1362 C1358 1.350 . S
C1362 C1359 1.463 . S
C1362 N1366 1.427 . S
C1363 H1353 0.929 . S
C1363 C1361 1.433 . S
C1363 N1366 1.384 . S
C1364 H1355 0.929 . S
C1364 C1356 1.378 . S
C1364 C1359 1.350 . S
C1365 H1352 0.929 . S
C1365 C1357 1.433 . S
C1365 N1367 1.384 . S
N1366 C1362 1.427 . S
N1366 C1363 1.384 . S
N1367 C1359 1.427 . S
N1367 C1365 1.384 . S
H1368 C1374 0.930 . S
H1369 C1378 0.930 . S
H1370 C1383 0.929 1_655 S
H1371 C1381 0.929 1_455 S
H1372 C1376 0.929 . S
H1373 C1382 0.929 . S
C1374 H1368 0.930 . S
C1374 C1375 1.367 . S
C1374 C1382 1.378 . S
C1375 C1374 1.367 . S
C1375 C1383 1.433 . S
C1376 H1372 0.929 . S
C1376 C1378 1.378 . S
C1376 C1380 1.350 . S
C1377 C1380 1.463 1_455 S
C1377 C1382 1.350 . S
C1377 N1385 1.427 1_455 S
C1378 H1369 0.930 . S
C1378 C1376 1.378 . S
C1378 C1379 1.367 . S
C1379 C1378 1.367 . S
C1379 C1381 1.433 . S
C1380 C1376 1.350 . S
C1380 C1377 1.463 1_655 S
C1380 N1384 1.427 1_655 S
C1381 H1371 0.929 1_655 S
C1381 C1379 1.433 . S
C1381 N1384 1.384 1_655 S
C1382 H1373 0.929 . S
C1382 C1374 1.378 . S
C1382 C1377 1.350 . S
C1383 H1370 0.929 1_455 S
C1383 C1375 1.433 . S
C1383 N1385 1.384 1_455 S
N1384 C1380 1.427 1_455 S
N1384 C1381 1.384 1_455 S
N1385 C1377 1.427 1_655 S
N1385 C1383 1.384 1_655 S
H1386 C1392 0.930 . S
H1387 C1396 0.930 . S
H1388 C1401 0.929 . S
H1389 C1399 0.929 . S
H1390 C1394 0.929 . S
H1391 C1400 0.929 . S
C1392 H1386 0.930 . S
C1392 C1393 1.367 . S
C1392 C1400 1.378 . S
C1393 C1392 1.367 . S
C1393 C1401 1.433 . S
C1394 H1390 0.929 . S
C1394 C1396 1.378 . S
C1394 C1398 1.350 . S
C1395 C1398 1.463 . S
C1395 C1400 1.350 . S
C1395 N1403 1.427 . S
C1396 H1387 0.930 . S
C1396 C1394 1.378 . S
C1396 C1397 1.367 . S
C1397 C1396 1.367 . S
C1397 C1399 1.433 . S
C1398 C1394 1.350 . S
C1398 C1395 1.463 . S
C1398 N1402 1.427 . S
C1399 H1389 0.929 . S
C1399 C1397 1.433 . S
C1399 N1402 1.384 . S
C1400 H1391 0.929 . S
C1400 C1392 1.378 . S
C1400 C1395 1.350 . S
C1401 H1388 0.929 . S
C1401 C1393 1.433 . S
C1401 N1403 1.384 . S
N1402 C1398 1.427 . S
N1402 C1399 1.384 . S
N1403 C1395 1.427 . S
N1403 C1401 1.384 . S
H1404 C1410 0.930 . S
H1405 C1414 0.930 . S
H1406 C1419 0.929 1_545 S
H1407 C1417 0.929 1_565 S
H1408 C1412 0.929 . S
H1409 C1418 0.929 . S
C1410 H1404 0.930 . S
C1410 C1411 1.367 . S
C1410 C1418 1.378 . S
C1411 C1410 1.367 . S
C1411 C1419 1.433 . S
C1412 H1408 0.929 . S
C1412 C1414 1.378 . S
C1412 C1416 1.350 . S
C1413 C1416 1.463 1_565 S
C1413 C1418 1.350 . S
C1413 N1421 1.427 1_565 S
C1414 H1405 0.930 . S
C1414 C1412 1.378 . S
C1414 C1415 1.367 . S
C1415 C1414 1.367 . S
C1415 C1417 1.433 . S
C1416 C1412 1.350 . S
C1416 C1413 1.463 1_545 S
C1416 N1420 1.427 1_545 S
C1417 H1407 0.929 1_545 S
C1417 C1415 1.433 . S
C1417 N1420 1.384 1_545 S
C1418 H1409 0.929 . S
C1418 C1410 1.378 . S
C1418 C1413 1.350 . S
C1419 H1406 0.929 1_565 S
C1419 C1411 1.433 . S
C1419 N1421 1.384 1_565 S
N1420 C1416 1.427 1_565 S
N1420 C1417 1.384 1_565 S
N1421 C1413 1.427 1_545 S
N1421 C1419 1.384 1_545 S
H1422 C1428 0.930 . S
H1423 C1432 0.930 . S
H1424 C1437 0.929 . S
H1425 C1435 0.929 . S
H1426 C1430 0.929 . S
H1427 C1436 0.929 . S
C1428 H1422 0.930 . S
C1428 C1429 1.367 . S
C1428 C1436 1.378 . S
C1429 C1428 1.367 . S
C1429 C1437 1.433 . S
C1430 H1426 0.929 . S
C1430 C1432 1.378 . S
C1430 C1434 1.350 . S
C1431 C1434 1.463 1_565 S
C1431 C1436 1.350 . S
C1431 N1439 1.427 . S
C1432 H1423 0.930 . S
C1432 C1430 1.378 . S
C1432 C1433 1.367 . S
C1433 C1432 1.367 . S
C1433 C1435 1.433 . S
C1434 C1430 1.350 . S
C1434 C1431 1.463 1_545 S
C1434 N1438 1.427 . S
C1435 H1425 0.929 . S
C1435 C1433 1.433 . S
C1435 N1438 1.384 . S
C1436 H1427 0.929 . S
C1436 C1428 1.378 . S
C1436 C1431 1.350 . S
C1437 H1424 0.929 . S
C1437 C1429 1.433 . S
C1437 N1439 1.384 . S
N1438 C1434 1.427 . S
N1438 C1435 1.384 . S
N1439 C1431 1.427 . S
N1439 C1437 1.384 . S
H1440 C1446 0.930 . S
H1441 C1450 0.930 . S
H1442 C1455 0.929 . S
H1443 C1453 0.929 . S
H1444 C1448 0.929 1_655 S
H1445 C1454 0.929 1_455 S
C1446 H1440 0.930 . S
C1446 C1447 1.367 . S
C1446 C1454 1.378 . S
C1447 C1446 1.367 . S
C1447 C1455 1.433 . S
C1448 H1444 0.929 1_455 S
C1448 C1450 1.378 . S
C1448 C1452 1.350 . S
C1449 C1452 1.463 1_655 S
C1449 C1454 1.350 . S
C1449 N1457 1.427 . S
C1450 H1441 0.930 . S
C1450 C1448 1.378 . S
C1450 C1451 1.367 . S
C1451 C1450 1.367 . S
C1451 C1453 1.433 . S
C1452 C1448 1.350 . S
C1452 C1449 1.463 1_455 S
C1452 N1456 1.427 . S
C1453 H1443 0.929 . S
C1453 C1451 1.433 . S
C1453 N1456 1.384 . S
C1454 H1445 0.929 1_655 S
C1454 C1446 1.378 . S
C1454 C1449 1.350 . S
C1455 H1442 0.929 . S
C1455 C1447 1.433 . S
C1455 N1457 1.384 . S
N1456 C1452 1.427 . S
N1456 C1453 1.384 . S
N1457 C1449 1.427 . S
N1457 C1455 1.384 . S
H1458 C1464 0.930 . S
H1459 C1468 0.930 . S
H1460 C1473 0.929 . S
H1461 C1471 0.929 . S
H1462 C1466 0.929 . S
H1463 C1472 0.929 . S
C1464 H1458 0.930 . S
C1464 C1465 1.367 . S
C1464 C1472 1.378 . S
C1465 C1464 1.367 . S
C1465 C1473 1.433 . S
C1466 H1462 0.929 . S
C1466 C1468 1.378 . S
C1466 C1470 1.350 . S
C1467 C1470 1.463 . S
C1467 C1472 1.350 . S
C1467 N1475 1.427 . S
C1468 H1459 0.930 . S
C1468 C1466 1.378 . S
C1468 C1469 1.367 . S
C1469 C1468 1.367 . S
C1469 C1471 1.433 . S
C1470 C1466 1.350 . S
C1470 C1467 1.463 . S
C1470 N1474 1.427 . S
C1471 H1461 0.929 . S
C1471 C1469 1.433 . S
C1471 N1474 1.384 . S
C1472 H1463 0.929 . S
C1472 C1464 1.378 . S
C1472 C1467 1.350 . S
C1473 H1460 0.929 . S
C1473 C1465 1.433 . S
C1473 N1475 1.384 . S
N1474 C1470 1.427 . S
N1474 C1471 1.384 . S
N1475 C1467 1.427 . S
N1475 C1473 1.384 . S
H1476 C1482 0.930 . S
H1477 C1486 0.930 . S
H1478 C1491 0.929 . S
H1479 C1489 0.929 . S
H1480 C1484 0.929 . S
H1481 C1490 0.929 . S
C1482 H1476 0.930 . S
C1482 C1483 1.367 . S
C1482 C1490 1.378 . S
C1483 C1482 1.367 . S
C1483 C1491 1.433 . S
C1484 H1480 0.929 . S
C1484 C1486 1.378 . S
C1484 C1488 1.350 . S
C1485 C1488 1.463 . S
C1485 C1490 1.350 . S
C1485 N1493 1.427 . S
C1486 H1477 0.930 . S
C1486 C1484 1.378 . S
C1486 C1487 1.367 . S
C1487 C1486 1.367 . S
C1487 C1489 1.433 . S
C1488 C1484 1.350 . S
C1488 C1485 1.463 . S
C1488 N1492 1.427 . S
C1489 H1479 0.929 . S
C1489 C1487 1.433 . S
C1489 N1492 1.384 . S
C1490 H1481 0.929 . S
C1490 C1482 1.378 . S
C1490 C1485 1.350 . S
C1491 H1478 0.929 . S
C1491 C1483 1.433 . S
C1491 N1493 1.384 . S
N1492 C1488 1.427 . S
N1492 C1489 1.384 . S
N1493 C1485 1.427 . S
N1493 C1491 1.384 . S
H1494 C1500 0.930 . S
H1495 C1504 0.930 . S
H1496 C1509 0.929 . S
H1497 C1507 0.929 . S
H1498 C1502 0.929 . S
H1499 C1508 0.929 . S
C1500 H1494 0.930 . S
C1500 C1501 1.367 . S
C1500 C1508 1.378 . S
C1501 C1500 1.367 . S
C1501 C1509 1.433 . S
C1502 H1498 0.929 . S
C1502 C1504 1.378 . S
C1502 C1506 1.350 . S
C1503 C1506 1.463 . S
C1503 C1508 1.350 . S
C1503 N1511 1.427 . S
C1504 H1495 0.930 . S
C1504 C1502 1.378 . S
C1504 C1505 1.367 . S
C1505 C1504 1.367 . S
C1505 C1507 1.433 . S
C1506 C1502 1.350 . S
C1506 C1503 1.463 . S
C1506 N1510 1.427 . S
C1507 H1497 0.929 . S
C1507 C1505 1.433 . S
C1507 N1510 1.384 . S
C1508 H1499 0.929 . S
C1508 C1500 1.378 . S
C1508 C1503 1.350 . S
C1509 H1496 0.929 . S
C1509 C1501 1.433 . S
C1509 N1511 1.384 . S
N1510 C1506 1.427 . S
N1510 C1507 1.384 . S
N1511 C1503 1.427 . S
N1511 C1509 1.384 . S
H1512 C1518 0.930 . S
H1513 C1522 0.930 . S
H1514 C1527 0.929 . S
H1515 C1525 0.929 . S
H1516 C1520 0.929 . S
H1517 C1526 0.929 . S
C1518 H1512 0.930 . S
C1518 C1519 1.367 . S
C1518 C1526 1.378 . S
C1519 C1518 1.367 . S
C1519 C1527 1.433 . S
C1520 H1516 0.929 . S
C1520 C1522 1.378 . S
C1520 C1524 1.350 . S
C1521 C1524 1.463 . S
C1521 C1526 1.350 . S
C1521 N1529 1.427 . S
C1522 H1513 0.930 . S
C1522 C1520 1.378 . S
C1522 C1523 1.367 . S
C1523 C1522 1.367 . S
C1523 C1525 1.433 . S
C1524 C1520 1.350 . S
C1524 C1521 1.463 . S
C1524 N1528 1.427 . S
C1525 H1515 0.929 . S
C1525 C1523 1.433 . S
C1525 N1528 1.384 . S
C1526 H1517 0.929 . S
C1526 C1518 1.378 . S
C1526 C1521 1.350 . S
C1527 H1514 0.929 . S
C1527 C1519 1.433 . S
C1527 N1529 1.384 . S
N1528 C1524 1.427 . S
N1528 C1525 1.384 . S
N1529 C1521 1.427 . S
N1529 C1527 1.384 . S
H1530 C1536 0.930 . S
H1531 C1540 0.930 . S
H1532 C1545 0.929 . S
H1533 C1543 0.929 . S
H1534 C1538 0.929 . S
H1535 C1544 0.929 . S
C1536 H1530 0.930 . S
C1536 C1537 1.367 . S
C1536 C1544 1.378 . S
C1537 C1536 1.367 . S
C1537 C1545 1.433 . S
C1538 H1534 0.929 . S
C1538 C1540 1.378 . S
C1538 C1542 1.350 . S
C1539 C1542 1.463 . S
C1539 C1544 1.350 . S
C1539 N1547 1.427 . S
C1540 H1531 0.930 . S
C1540 C1538 1.378 . S
C1540 C1541 1.367 . S
C1541 C1540 1.367 . S
C1541 C1543 1.433 . S
C1542 C1538 1.350 . S
C1542 C1539 1.463 . S
C1542 N1546 1.427 . S
C1543 H1533 0.929 . S
C1543 C1541 1.433 . S
C1543 N1546 1.384 . S
C1544 H1535 0.929 . S
C1544 C1536 1.378 . S
C1544 C1539 1.350 . S
C1545 H1532 0.929 . S
C1545 C1537 1.433 . S
C1545 N1547 1.384 . S
N1546 C1542 1.427 . S
N1546 C1543 1.384 . S
N1547 C1539 1.427 . S
N1547 C1545 1.384 . S
H1548 C1554 0.930 . S
H1549 C1558 0.930 . S
H1550 C1563 0.929 . S
H1551 C1561 0.929 . S
H1552 C1556 0.929 . S
H1553 C1562 0.929 . S
C1554 H1548 0.930 . S
C1554 C1555 1.367 . S
C1554 C1562 1.378 . S
C1555 C1554 1.367 . S
C1555 C1563 1.433 . S
C1556 H1552 0.929 . S
C1556 C1558 1.378 . S
C1556 C1560 1.350 . S
C1557 C1560 1.463 . S
C1557 C1562 1.350 . S
C1557 N1565 1.427 . S
C1558 H1549 0.930 . S
C1558 C1556 1.378 . S
C1558 C1559 1.367 . S
C1559 C1558 1.367 . S
C1559 C1561 1.433 . S
C1560 C1556 1.350 . S
C1560 C1557 1.463 . S
C1560 N1564 1.427 . S
C1561 H1551 0.929 . S
C1561 C1559 1.433 . S
C1561 N1564 1.384 . S
C1562 H1553 0.929 . S
C1562 C1554 1.378 . S
C1562 C1557 1.350 . S
C1563 H1550 0.929 . S
C1563 C1555 1.433 . S
C1563 N1565 1.384 . S
N1564 C1560 1.427 . S
N1564 C1561 1.384 . S
N1565 C1557 1.427 . S
N1565 C1563 1.384 . S
H1566 C1572 0.930 . S
H1567 C1576 0.930 . S
H1568 C1581 0.929 . S
H1569 C1579 0.929 . S
H1570 C1574 0.929 . S
H1571 C1580 0.929 . S
C1572 H1566 0.930 . S
C1572 C1573 1.367 . S
C1572 C1580 1.378 . S
C1573 C1572 1.367 . S
C1573 C1581 1.433 . S
C1574 H1570 0.929 . S
C1574 C1576 1.378 . S
C1574 C1578 1.350 . S
C1575 C1578 1.463 . S
C1575 C1580 1.350 . S
C1575 N1583 1.427 . S
C1576 H1567 0.930 . S
C1576 C1574 1.378 . S
C1576 C1577 1.367 . S
C1577 C1576 1.367 . S
C1577 C1579 1.433 . S
C1578 C1574 1.350 . S
C1578 C1575 1.463 . S
C1578 N1582 1.427 . S
C1579 H1569 0.929 . S
C1579 C1577 1.433 . S
C1579 N1582 1.384 . S
C1580 H1571 0.929 . S
C1580 C1572 1.378 . S
C1580 C1575 1.350 . S
C1581 H1568 0.929 . S
C1581 C1573 1.433 . S
C1581 N1583 1.384 . S
N1582 C1578 1.427 . S
N1582 C1579 1.384 . S
N1583 C1575 1.427 . S
N1583 C1581 1.384 . S
H1584 C1590 0.930 . S
H1585 C1594 0.930 . S
H1586 C1599 0.929 . S
H1587 C1597 0.929 . S
H1588 C1592 0.929 . S
H1589 C1598 0.929 . S
C1590 H1584 0.930 . S
C1590 C1591 1.367 . S
C1590 C1598 1.378 . S
C1591 C1590 1.367 . S
C1591 C1599 1.433 . S
C1592 H1588 0.929 . S
C1592 C1594 1.378 . S
C1592 C1596 1.350 . S
C1593 C1596 1.463 . S
C1593 C1598 1.350 . S
C1593 N1601 1.427 . S
C1594 H1585 0.930 . S
C1594 C1592 1.378 . S
C1594 C1595 1.367 . S
C1595 C1594 1.367 . S
C1595 C1597 1.433 . S
C1596 C1592 1.350 . S
C1596 C1593 1.463 . S
C1596 N1600 1.427 . S
C1597 H1587 0.929 . S
C1597 C1595 1.433 . S
C1597 N1600 1.384 . S
C1598 H1589 0.929 . S
C1598 C1590 1.378 . S
C1598 C1593 1.350 . S
C1599 H1586 0.929 . S
C1599 C1591 1.433 . S
C1599 N1601 1.384 . S
N1600 C1596 1.427 . S
N1600 C1597 1.384 . S
N1601 C1593 1.427 . S
N1601 C1599 1.384 . S
H1602 C1608 0.930 . S
H1603 C1612 0.930 . S
H1604 C1617 0.929 . S
H1605 C1615 0.929 . S
H1606 C1610 0.929 . S
H1607 C1616 0.929 . S
C1608 H1602 0.930 . S
C1608 C1609 1.367 . S
C1608 C1616 1.378 . S
C1609 C1608 1.367 . S
C1609 C1617 1.433 . S
C1610 H1606 0.929 . S
C1610 C1612 1.378 . S
C1610 C1614 1.350 . S
C1611 C1614 1.463 . S
C1611 C1616 1.350 . S
C1611 N1619 1.427 . S
C1612 H1603 0.930 . S
C1612 C1610 1.378 . S
C1612 C1613 1.367 . S
C1613 C1612 1.367 . S
C1613 C1615 1.433 . S
C1614 C1610 1.350 . S
C1614 C1611 1.463 . S
C1614 N1618 1.427 . S
C1615 H1605 0.929 . S
C1615 C1613 1.433 . S
C1615 N1618 1.384 . S
C1616 H1607 0.929 . S
C1616 C1608 1.378 . S
C1616 C1611 1.350 . S
C1617 H1604 0.929 . S
C1617 C1609 1.433 . S
C1617 N1619 1.384 . S
N1618 C1614 1.427 . S
N1618 C1615 1.384 . S
N1619 C1611 1.427 . S
N1619 C1617 1.384 . S
H1620 C1626 0.930 . S
H1621 C1630 0.930 . S
H1622 C1635 0.929 . S
H1623 C1633 0.929 . S
H1624 C1628 0.929 . S
H1625 C1634 0.929 . S
C1626 H1620 0.930 . S
C1626 C1627 1.367 . S
C1626 C1634 1.378 . S
C1627 C1626 1.367 . S
C1627 C1635 1.433 . S
C1628 H1624 0.929 . S
C1628 C1630 1.378 . S
C1628 C1632 1.350 . S
C1629 C1632 1.463 . S
C1629 C1634 1.350 . S
C1629 N1637 1.427 . S
C1630 H1621 0.930 . S
C1630 C1628 1.378 . S
C1630 C1631 1.367 . S
C1631 C1630 1.367 . S
C1631 C1633 1.433 . S
C1632 C1628 1.350 . S
C1632 C1629 1.463 . S
C1632 N1636 1.427 . S
C1633 H1623 0.929 . S
C1633 C1631 1.433 . S
C1633 N1636 1.384 . S
C1634 H1625 0.929 . S
C1634 C1626 1.378 . S
C1634 C1629 1.350 . S
C1635 H1622 0.929 . S
C1635 C1627 1.433 . S
C1635 N1637 1.384 . S
N1636 C1632 1.427 . S
N1636 C1633 1.384 . S
N1637 C1629 1.427 . S
N1637 C1635 1.384 . S
H1638 C1644 0.930 . S
H1639 C1648 0.930 . S
H1640 C1653 0.929 . S
H1641 C1651 0.929 . S
H1642 C1646 0.929 . S
H1643 C1652 0.929 . S
C1644 H1638 0.930 . S
C1644 C1645 1.367 . S
C1644 C1652 1.378 . S
C1645 C1644 1.367 . S
C1645 C1653 1.433 . S
C1646 H1642 0.929 . S
C1646 C1648 1.378 . S
C1646 C1650 1.350 . S
C1647 C1650 1.463 . S
C1647 C1652 1.350 . S
C1647 N1655 1.427 . S
C1648 H1639 0.930 . S
C1648 C1646 1.378 . S
C1648 C1649 1.367 . S
C1649 C1648 1.367 . S
C1649 C1651 1.433 . S
C1650 C1646 1.350 . S
C1650 C1647 1.463 . S
C1650 N1654 1.427 . S
C1651 H1641 0.929 . S
C1651 C1649 1.433 . S
C1651 N1654 1.384 . S
C1652 H1643 0.929 . S
C1652 C1644 1.378 . S
C1652 C1647 1.350 . S
C1653 H1640 0.929 . S
C1653 C1645 1.433 . S
C1653 N1655 1.384 . S
N1654 C1650 1.427 . S
N1654 C1651 1.384 . S
N1655 C1647 1.427 . S
N1655 C1653 1.384 . S
H1656 C1662 0.930 . S
H1657 C1666 0.930 . S
H1658 C1671 0.929 . S
H1659 C1669 0.929 . S
H1660 C1664 0.929 . S
H1661 C1670 0.929 . S
C1662 H1656 0.930 . S
C1662 C1663 1.367 . S
C1662 C1670 1.378 . S
C1663 C1662 1.367 . S
C1663 C1671 1.433 . S
C1664 H1660 0.929 . S
C1664 C1666 1.378 . S
C1664 C1668 1.350 . S
C1665 C1668 1.463 . S
C1665 C1670 1.350 . S
C1665 N1673 1.427 . S
C1666 H1657 0.930 . S
C1666 C1664 1.378 . S
C1666 C1667 1.367 . S
C1667 C1666 1.367 . S
C1667 C1669 1.433 . S
C1668 C1664 1.350 . S
C1668 C1665 1.463 . S
C1668 N1672 1.427 . S
C1669 H1659 0.929 . S
C1669 C1667 1.433 . S
C1669 N1672 1.384 . S
C1670 H1661 0.929 . S
C1670 C1662 1.378 . S
C1670 C1665 1.350 . S
C1671 H1658 0.929 . S
C1671 C1663 1.433 . S
C1671 N1673 1.384 . S
N1672 C1668 1.427 . S
N1672 C1669 1.384 . S
N1673 C1665 1.427 . S
N1673 C1671 1.384 . S
H1674 C1680 0.930 . S
H1675 C1684 0.930 . S
H1676 C1689 0.929 . S
H1677 C1687 0.929 . S
H1678 C1682 0.929 . S
H1679 C1688 0.929 . S
C1680 H1674 0.930 . S
C1680 C1681 1.367 . S
C1680 C1688 1.378 . S
C1681 C1680 1.367 . S
C1681 C1689 1.433 . S
C1682 H1678 0.929 . S
C1682 C1684 1.378 . S
C1682 C1686 1.350 . S
C1683 C1686 1.463 . S
C1683 C1688 1.350 . S
C1683 N1691 1.427 . S
C1684 H1675 0.930 . S
C1684 C1682 1.378 . S
C1684 C1685 1.367 . S
C1685 C1684 1.367 . S
C1685 C1687 1.433 . S
C1686 C1682 1.350 . S
C1686 C1683 1.463 . S
C1686 N1690 1.427 . S
C1687 H1677 0.929 . S
C1687 C1685 1.433 . S
C1687 N1690 1.384 . S
C1688 H1679 0.929 . S
C1688 C1680 1.378 . S
C1688 C1683 1.350 . S
C1689 H1676 0.929 . S
C1689 C1681 1.433 . S
C1689 N1691 1.384 . S
N1690 C1686 1.427 . S
N1690 C1687 1.384 . S
N1691 C1683 1.427 . S
N1691 C1689 1.384 . S
H1692 C1698 0.930 . S
H1693 C1702 0.930 . S
H1694 C1707 0.929 . S
H1695 C1705 0.929 . S
H1696 C1700 0.929 . S
H1697 C1706 0.929 . S
C1698 H1692 0.930 . S
C1698 C1699 1.367 . S
C1698 C1706 1.378 . S
C1699 C1698 1.367 . S
C1699 C1707 1.433 . S
C1700 H1696 0.929 . S
C1700 C1702 1.378 . S
C1700 C1704 1.350 . S
C1701 C1704 1.463 1_456 S
C1701 C1706 1.350 . S
C1701 N1709 1.427 . S
C1702 H1693 0.930 . S
C1702 C1700 1.378 . S
C1702 C1703 1.367 . S
C1703 C1702 1.367 . S
C1703 C1705 1.433 . S
C1704 C1700 1.350 . S
C1704 C1701 1.463 1_654 S
C1704 N1708 1.427 . S
C1705 H1695 0.929 . S
C1705 C1703 1.433 . S
C1705 N1708 1.384 . S
C1706 H1697 0.929 . S
C1706 C1698 1.378 . S
C1706 C1701 1.350 . S
C1707 H1694 0.929 . S
C1707 C1699 1.433 . S
C1707 N1709 1.384 . S
N1708 C1704 1.427 . S
N1708 C1705 1.384 . S
N1709 C1701 1.427 . S
N1709 C1707 1.384 . S
H1710 C1716 0.930 . S
H1711 C1720 0.930 . S
H1712 C1725 0.929 . S
H1713 C1723 0.929 . S
H1714 C1718 0.929 . S
H1715 C1724 0.929 . S
C1716 H1710 0.930 . S
C1716 C1717 1.367 . S
C1716 C1724 1.378 . S
C1717 C1716 1.367 . S
C1717 C1725 1.433 . S
C1718 H1714 0.929 . S
C1718 C1720 1.378 . S
C1718 C1722 1.350 . S
C1719 C1722 1.463 1_554 S
C1719 C1724 1.350 . S
C1719 N1727 1.427 . S
C1720 H1711 0.930 . S
C1720 C1718 1.378 . S
C1720 C1721 1.367 . S
C1721 C1720 1.367 . S
C1721 C1723 1.433 . S
C1722 C1718 1.350 . S
C1722 C1719 1.463 1_556 S
C1722 N1726 1.427 . S
C1723 H1713 0.929 . S
C1723 C1721 1.433 . S
C1723 N1726 1.384 . S
C1724 H1715 0.929 . S
C1724 C1716 1.378 . S
C1724 C1719 1.350 . S
C1725 H1712 0.929 . S
C1725 C1717 1.433 . S
C1725 N1727 1.384 . S
N1726 C1722 1.427 . S
N1726 C1723 1.384 . S
N1727 C1719 1.427 . S
N1727 C1725 1.384 . S
H1728 C1734 0.930 1_565 S
H1729 C1738 0.930 1_545 S
H1730 C1743 0.929 . S
H1731 C1741 0.929 . S
H1732 C1736 0.929 . S
H1733 C1742 0.929 . S
C1734 H1728 0.930 1_545 S
C1734 C1735 1.367 . S
C1734 C1742 1.378 1_545 S
C1735 C1734 1.367 . S
C1735 C1743 1.433 . S
C1736 H1732 0.929 . S
C1736 C1738 1.378 1_545 S
C1736 C1740 1.350 1_545 S
C1737 C1740 1.463 1_544 S
C1737 C1742 1.350 1_545 S
C1737 N1745 1.427 . S
C1738 H1729 0.930 1_565 S
C1738 C1736 1.378 1_565 S
C1738 C1739 1.367 . S
C1739 C1738 1.367 . S
C1739 C1741 1.433 . S
C1740 C1736 1.350 1_565 S
C1740 C1737 1.463 1_566 S
C1740 N1744 1.427 . S
C1741 H1731 0.929 . S
C1741 C1739 1.433 . S
C1741 N1744 1.384 . S
C1742 H1733 0.929 . S
C1742 C1734 1.378 1_565 S
C1742 C1737 1.350 1_565 S
C1743 H1730 0.929 . S
C1743 C1735 1.433 . S
C1743 N1745 1.384 . S
N1744 C1740 1.427 . S
N1744 C1741 1.384 . S
N1745 C1737 1.427 . S
N1745 C1743 1.384 . S
H1746 C1752 0.930 . S
H1747 C1756 0.930 . S
H1748 C1761 0.929 . S
H1749 C1759 0.929 . S
H1750 C1754 0.929 . S
H1751 C1760 0.929 . S
C1752 H1746 0.930 . S
C1752 C1753 1.367 . S
C1752 C1760 1.378 . S
C1753 C1752 1.367 . S
C1753 C1761 1.433 . S
C1754 H1750 0.929 . S
C1754 C1756 1.378 . S
C1754 C1758 1.350 . S
C1755 C1758 1.463 1_566 S
C1755 C1760 1.350 . S
C1755 N1763 1.427 . S
C1756 H1747 0.930 . S
C1756 C1754 1.378 . S
C1756 C1757 1.367 . S
C1757 C1756 1.367 . S
C1757 C1759 1.433 . S
C1758 C1754 1.350 . S
C1758 C1755 1.463 1_544 S
C1758 N1762 1.427 . S
C1759 H1749 0.929 . S
C1759 C1757 1.433 . S
C1759 N1762 1.384 . S
C1760 H1751 0.929 . S
C1760 C1752 1.378 . S
C1760 C1755 1.350 . S
C1761 H1748 0.929 . S
C1761 C1753 1.433 . S
C1761 N1763 1.384 . S
N1762 C1758 1.427 . S
N1762 C1759 1.384 . S
N1763 C1755 1.427 . S
N1763 C1761 1.384 . S
H1764 C1770 0.930 1_655 S
H1765 C1774 0.930 1_455 S
H1766 C1779 0.929 . S
H1767 C1777 0.929 . S
H1768 C1772 0.929 . S
H1769 C1778 0.929 . S
C1770 H1764 0.930 1_455 S
C1770 C1771 1.367 . S
C1770 C1778 1.378 1_455 S
C1771 C1770 1.367 . S
C1771 C1779 1.433 . S
C1772 H1768 0.929 . S
C1772 C1774 1.378 1_455 S
C1772 C1776 1.350 1_455 S
C1773 C1776 1.463 1_456 S
C1773 C1778 1.350 1_455 S
C1773 N1781 1.427 . S
C1774 H1765 0.930 1_655 S
C1774 C1772 1.378 1_655 S
C1774 C1775 1.367 . S
C1775 C1774 1.367 . S
C1775 C1777 1.433 . S
C1776 C1772 1.350 1_655 S
C1776 C1773 1.463 1_654 S
C1776 N1780 1.427 . S
C1777 H1767 0.929 . S
C1777 C1775 1.433 . S
C1777 N1780 1.384 . S
C1778 H1769 0.929 . S
C1778 C1770 1.378 1_655 S
C1778 C1773 1.350 1_655 S
C1779 H1766 0.929 . S
C1779 C1771 1.433 . S
C1779 N1781 1.384 . S
N1780 C1776 1.427 . S
N1780 C1777 1.384 . S
N1781 C1773 1.427 . S
N1781 C1779 1.384 . S
H1782 C1788 0.930 . S
H1783 C1792 0.930 . S
H1784 C1797 0.929 . S
H1785 C1795 0.929 . S
H1786 C1790 0.929 . S
H1787 C1796 0.929 . S
C1788 H1782 0.930 . S
C1788 C1789 1.367 . S
C1788 C1796 1.378 . S
C1789 C1788 1.367 . S
C1789 C1797 1.433 . S
C1790 H1786 0.929 . S
C1790 C1792 1.378 . S
C1790 C1794 1.350 . S
C1791 C1794 1.463 1_554 S
C1791 C1796 1.350 . S
C1791 N1799 1.427 . S
C1792 H1783 0.930 . S
C1792 C1790 1.378 . S
C1792 C1793 1.367 . S
C1793 C1792 1.367 . S
C1793 C1795 1.433 . S
C1794 C1790 1.350 . S
C1794 C1791 1.463 1_556 S
C1794 N1798 1.427 . S
C1795 H1785 0.929 . S
C1795 C1793 1.433 . S
C1795 N1798 1.384 . S
C1796 H1787 0.929 . S
C1796 C1788 1.378 . S
C1796 C1791 1.350 . S
C1797 H1784 0.929 . S
C1797 C1789 1.433 . S
C1797 N1799 1.384 . S
N1798 C1794 1.427 . S
N1798 C1795 1.384 . S
N1799 C1791 1.427 . S
N1799 C1797 1.384 . S
C511 C9 1.342 . S
C515 C163 1.330 . S
C529 C23 1.334 . S
C533 C135 1.338 . S
C547 C149 1.329 . S
C551 C37 1.343 . S
C565 C51 1.337 . S
C569 C107 1.335 . S
C583 C121 1.339 . S
C587 C65 1.333 . S
C601 C79 1.340 . S
C605 C93 1.331 . S
C619 C331 1.338 . S
C623 C177 1.333 . S
C637 C191 1.336 . S
C641 C303 1.336 . S
C655 C205 1.330 . S
C659 C317 1.342 . S
C673 C275 1.341 . S
C677 C219 1.331 . S
C691 C233 1.343 . S
C695 C289 1.329 . S
C709 C261 1.343 . S
C713 C247 1.329 . S
C727 C345 1.329 . S
C731 C499 1.343 . S
C745 C471 1.338 . S
C749 C359 1.333 . S
C763 C485 1.335 . S
C767 C373 1.337 . S
C781 C443 1.334 . S
C785 C387 1.338 . S
C799 C457 1.333 . S
C803 C401 1.339 . S
C817 C429 1.332 . S
C821 C415 1.340 . S
C835 C8 1.373 . S
C839 C64 1.371 . S
C853 C78 1.373 . S
C857 C22 1.372 . S
C871 C36 1.373 . S
C875 C50 1.374 . S
C889 C92 1.371 . S
C893 C148 1.370 . S
C907 C106 1.371 . S
C911 C162 1.369 . S
C925 C120 1.374 . S
C929 C134 1.373 . S
C943 C232 1.374 . S
C947 C176 1.373 . S
C961 C246 1.373 . S
C965 C190 1.374 . S
C979 C204 1.372 . S
C983 C218 1.373 . S
C997 C316 1.371 . S
C1001 C260 1.369 . S
C1015 C330 1.371 . S
C1019 C274 1.370 . S
C1033 C288 1.373 . S
C1037 C302 1.372 . S
C1051 C400 1.374 . S
C1055 C344 1.374 . S
C1069 C358 1.371 . S
C1073 C414 1.373 . S
C1087 C372 1.373 . S
C1091 C386 1.374 . S
C1105 C484 1.367 . S
C1109 C428 1.368 . S
C1123 C442 1.372 . S
C1127 C498 1.374 . S
C1141 C470 1.372 . S
C1145 C456 1.370 . S
C1159 C413 1.018 . S
C1163 C7 1.030 . S
C1177 C21 1.017 . S
C1181 C385 1.019 . S
C1195 C35 1.018 . S
C1199 C399 1.029 . S
C1213 C49 1.015 . S
C1217 C189 1.025 . S
C1231 C203 1.027 . S
C1235 C63 1.015 . S
C1249 C175 1.030 . S
C1253 C77 1.023 . S
C1267 C91 1.024 . S
C1271 C329 1.030 . S
C1285 C105 1.019 . S
C1289 C301 1.030 . S
C1303 C119 1.029 . S
C1307 C315 1.026 . S
C1321 C441 1.017 . S
C1325 C133 1.029 . S
C1339 C455 1.015 . S
C1343 C147 1.022 . S
C1357 C161 1.021 . S
C1361 C427 1.030 . S
C1375 C357 1.025 . S
C1379 C217 1.030 . S
C1393 C231 1.024 . S
C1397 C371 1.030 . S
C1411 C343 1.030 . S
C1415 C245 1.024 . S
C1429 C497 1.028 . S
C1433 C259 1.016 . S
C1447 C273 1.015 . S
C1451 C469 1.026 . S
C1465 C287 1.015 . S
C1469 C483 1.021 . S
C1483 C3 1.694 . S
C1487 C409 1.692 . S
C1501 C381 1.692 . S
C1505 C17 1.694 . S
C1519 C31 1.693 . S
C1523 C395 1.694 . S
C1537 C185 1.692 . S
C1541 C45 1.694 . S
C1555 C59 1.692 . S
C1559 C199 1.694 . S
C1573 C73 1.694 . S
C1577 C171 1.692 . S
C1591 C325 1.693 . S
C1595 C87 1.693 . S
C1609 C101 1.692 . S
C1613 C297 1.694 . S
C1627 C115 1.693 . S
C1631 C311 1.693 . S
C1645 C129 1.694 . S
C1649 C437 1.692 . S
C1663 C451 1.693 . S
C1667 C143 1.693 . S
C1681 C157 1.693 . S
C1685 C423 1.692 . S
C1699 C353 1.692 . S
C1703 C213 1.694 . S
C1717 C227 1.694 . S
C1721 C367 1.691 . S
C1735 C241 1.693 . S
C1739 C339 1.693 . S
C1753 C493 1.694 . S
C1757 C255 1.692 . S
C1771 C465 1.693 . S
C1775 C269 1.694 . S
C1789 C283 1.694 . S
C1793 C479 1.691 . S
