# Generated by pormake.
# Topology uoj, (4)-cn, num edge types: 1
# Building blocks:
#     Node 0, Type 0, BuildingBlock: KUFVIS_clean_sbu_0, # of connection points: 4
#     Node 1, Type 0, BuildingBlock: KUFVIS_clean_sbu_0, # of connection points: 4
#     Node 2, Type 0, BuildingBlock: KUFVIS_clean_sbu_0, # of connection points: 4
#     Node 3, Type 0, BuildingBlock: KUFVIS_clean_sbu_0, # of connection points: 4
#     Node 4, Type 0, BuildingBlock: KUFVIS_clean_sbu_0, # of connection points: 4
#     Node 5, Type 0, BuildingBlock: KUFVIS_clean_sbu_0, # of connection points: 4
#     Node 6, Type 0, BuildingBlock: KUFVIS_clean_sbu_0, # of connection points: 4
#     Node 7, Type 0, BuildingBlock: KUFVIS_clean_sbu_0, # of connection points: 4
#     Edge 8, Type (0, 0), BuildingBlock: UVAHIK_clean_linker_0, # of connection points: 2
#     Edge 9, Type (0, 0), BuildingBlock: UVAHIK_clean_linker_0, # of connection points: 2
#     Edge 10, Type (0, 0), BuildingBlock: UVAHIK_clean_linker_0, # of connection points: 2
#     Edge 11, Type (0, 0), BuildingBlock: UVAHIK_clean_linker_0, # of connection points: 2
#     Edge 12, Type (0, 0), BuildingBlock: UVAHIK_clean_linker_0, # of connection points: 2
#     Edge 13, Type (0, 0), BuildingBlock: UVAHIK_clean_linker_0, # of connection points: 2
#     Edge 14, Type (0, 0), BuildingBlock: UVAHIK_clean_linker_0, # of connection points: 2
#     Edge 15, Type (0, 0), BuildingBlock: UVAHIK_clean_linker_0, # of connection points: 2
#     Edge 16, Type (0, 0), BuildingBlock: UVAHIK_clean_linker_0, # of connection points: 2
#     Edge 17, Type (0, 0), BuildingBlock: UVAHIK_clean_linker_0, # of connection points: 2
#     Edge 18, Type (0, 0), BuildingBlock: UVAHIK_clean_linker_0, # of connection points: 2
#     Edge 19, Type (0, 0), BuildingBlock: UVAHIK_clean_linker_0, # of connection points: 2
#     Edge 20, Type (0, 0), BuildingBlock: UVAHIK_clean_linker_0, # of connection points: 2
#     Edge 21, Type (0, 0), BuildingBlock: UVAHIK_clean_linker_0, # of connection points: 2
#     Edge 22, Type (0, 0), BuildingBlock: UVAHIK_clean_linker_0, # of connection points: 2
#     Edge 23, Type (0, 0), BuildingBlock: UVAHIK_clean_linker_0, # of connection points: 2
# Relax obj value: 0.139
# Max RMSD: 0.162
# Mean RMSD: 0.162
data_MOF--net-uoj--node1-KUFVIS_clean_sbu_0--edge1-UVAHIK_clean_linker_0
_symmetry_space_group_name_H-M    P1
_symmetry_Int_Tables_number       1
_symmetry_cell_setting            triclinic
loop_
_symmetry_equiv_pos_as_xyz
'x, y, z'
_cell_length_a     42.276483
_cell_length_b     42.269176
_cell_length_c     45.796329
_cell_angle_alpha  90.016639
_cell_angle_beta   89.988483
_cell_angle_gamma 89.984309
loop_
_atom_site_label
_atom_site_type_symbol
_atom_site_fract_x
_atom_site_fract_y
_atom_site_fract_z
_atom_type_partial_charge
Mn0 Mn 0.08307 0.30217 0.44497 0.0
Mn1 Mn 0.08643 0.31079 0.51833 0.0
C2 C 0.06634 0.34847 0.4658 0.0
C3 C 0.10708 0.30409 0.39934 0.0
C4 C 0.03372 0.27572 0.48769 0.0
O5 O 0.11092 0.2659 0.4574 0.0
O6 O 0.11229 0.27368 0.50592 0.0
C7 C 0.15405 0.32868 0.52126 0.0
N8 N 0.12317 0.3354 0.52703 0.0
C9 C 0.13716 0.38515 0.54907 0.0
C10 C 0.16914 0.37866 0.54354 0.0
C11 C 0.1776 0.35032 0.52952 0.0
C12 C 0.11475 0.36269 0.54032 0.0
H13 H 0.16065 0.307 0.51036 0.0
C14 C 0.11997 0.25824 0.48291 0.0
O15 O 0.08268 0.28619 0.40417 0.0
O16 O 0.1178 0.32048 0.42118 0.0
N17 N 0.0629 0.34544 0.53422 0.0
C18 C 0.03109 0.34776 0.5386 0.0
C19 C 0.01869 0.37471 0.55242 0.0
C20 C 0.03915 0.3987 0.5621 0.0
C21 C 0.07188 0.39527 0.55828 0.0
C22 C 0.08287 0.3678 0.5445 0.0
H23 H 0.01525 0.32935 0.53129 0.0
O24 O 0.05778 0.34105 0.43949 0.0
O25 O 0.08589 0.32925 0.47889 0.0
O26 O 0.04438 0.27954 0.46183 0.0
O27 O 0.04759 0.28623 0.51055 0.0
C28 C 0.09402 0.41812 0.56742 0.0
C29 C 0.12663 0.41311 0.56274 0.0
H30 H 0.18737 0.39531 0.54985 0.0
H31 H 0.20222 0.34521 0.52507 0.0
H32 H 0.99342 0.37705 0.55552 0.0
H33 H 0.02948 0.41958 0.57251 0.0
H34 H 0.08622 0.4397 0.57797 0.0
H35 H 0.14342 0.43092 0.56973 0.0
Mn36 Mn 0.29943 0.90846 0.55864 0.0
Mn37 Mn 0.31182 0.90601 0.48564 0.0
C38 C 0.34466 0.92991 0.53976 0.0
C39 C 0.30091 0.88498 0.60452 0.0
C40 C 0.27147 0.95582 0.51459 0.0
O41 O 0.26654 0.8774 0.5449 0.0
O42 O 0.27581 0.878 0.49667 0.0
C43 C 0.33424 0.83965 0.4846 0.0
N44 N 0.33918 0.87081 0.47857 0.0
C45 C 0.39084 0.85975 0.45898 0.0
C46 C 0.38622 0.82752 0.46482 0.0
C47 C 0.35781 0.81745 0.47775 0.0
C48 C 0.36655 0.88079 0.46643 0.0
H49 H 0.31251 0.83181 0.49466 0.0
C50 C 0.26026 0.8686 0.51903 0.0
O51 O 0.28113 0.90755 0.59853 0.0
O52 O 0.31956 0.8757 0.58366 0.0
N53 N 0.3455 0.93146 0.47056 0.0
C54 C 0.3454 0.96307 0.46467 0.0
C55 C 0.37187 0.9769 0.45124 0.0
C56 C 0.39782 0.95799 0.44335 0.0
C57 C 0.39677 0.92529 0.44841 0.0
C58 C 0.36967 0.91283 0.46173 0.0
H59 H 0.32542 0.97769 0.47048 0.0
O60 O 0.33525 0.93733 0.56582 0.0
O61 O 0.32834 0.90841 0.52586 0.0
O62 O 0.27427 0.94488 0.54048 0.0
O63 O 0.28454 0.94328 0.49218 0.0
C64 C 0.42152 0.90458 0.44074 0.0
C65 C 0.41861 0.87184 0.44613 0.0
H66 H 0.40433 0.81032 0.45953 0.0
H67 H 0.35412 0.79262 0.48242 0.0
H68 H 0.3723 0.00209 0.44704 0.0
H69 H 0.4183 0.96877 0.43321 0.0
H70 H 0.44289 0.91357 0.43065 0.0
H71 H 0.43782 0.85614 0.44017 0.0
Mn72 Mn 0.90999 0.69211 0.43681 0.0
Mn73 Mn 0.90754 0.68138 0.51003 0.0
C74 C 0.93124 0.64714 0.45651 0.0
C75 C 0.88581 0.68935 0.39127 0.0
C76 C 0.95746 0.72096 0.48015 0.0
O77 O 0.87931 0.72568 0.45006 0.0
O78 O 0.87911 0.71681 0.49836 0.0
C79 C 0.84143 0.65835 0.51166 0.0
N80 N 0.87264 0.65386 0.51775 0.0
C81 C 0.86216 0.6026 0.53844 0.0
C82 C 0.82988 0.60676 0.53257 0.0
C83 C 0.81949 0.63473 0.51905 0.0
C84 C 0.88293 0.6269 0.53045 0.0
H85 H 0.83335 0.67973 0.50115 0.0
C86 C 0.87003 0.73214 0.47577 0.0
O87 O 0.90867 0.70912 0.39636 0.0
O88 O 0.87674 0.67155 0.4128 0.0
N89 N 0.93337 0.6483 0.5257 0.0
C90 C 0.965 0.64882 0.53147 0.0
C91 C 0.97913 0.62283 0.54543 0.0
C92 C 0.96049 0.59692 0.55395 0.0
C93 C 0.92778 0.59755 0.54897 0.0
C94 C 0.91501 0.6242 0.53512 0.0
H95 H 0.97941 0.66877 0.52518 0.0
O96 O 0.93848 0.65579 0.4302 0.0
O97 O 0.90999 0.66401 0.47017 0.0
O98 O 0.94684 0.71737 0.45421 0.0
O99 O 0.94452 0.70878 0.50279 0.0
C100 C 0.90733 0.5728 0.55722 0.0
C101 C 0.87456 0.57527 0.55185 0.0
H102 H 0.81287 0.58861 0.53827 0.0
H103 H 0.79463 0.63806 0.51434 0.0
H104 H 0.00433 0.62273 0.54955 0.0
H105 H 0.97151 0.5768 0.56449 0.0
H106 H 0.91656 0.55178 0.56772 0.0
H107 H 0.85908 0.55606 0.55824 0.0
Mn108 Mn 0.69014 0.0817 0.55723 0.0
Mn109 Mn 0.68159 0.08545 0.48388 0.0
C110 C 0.64392 0.06491 0.53629 0.0
C111 C 0.6879 0.1058 0.60284 0.0
C112 C 0.71695 0.03272 0.51437 0.0
O113 O 0.72635 0.10971 0.54489 0.0
O114 O 0.71829 0.11179 0.49644 0.0
C115 C 0.6628 0.15286 0.48113 0.0
N116 N 0.65653 0.1219 0.47523 0.0
C117 C 0.60675 0.13533 0.45299 0.0
C118 C 0.61277 0.16737 0.45864 0.0
C119 C 0.64089 0.17616 0.47283 0.0
C120 C 0.62945 0.11318 0.46178 0.0
H121 H 0.68431 0.1597 0.49215 0.0
C122 C 0.73375 0.11928 0.51947 0.0
O123 O 0.70593 0.08144 0.59814 0.0
O124 O 0.67161 0.11639 0.58091 0.0
N125 N 0.64731 0.06152 0.46787 0.0
C126 C 0.64539 0.02968 0.46348 0.0
C127 C 0.61868 0.01698 0.44952 0.0
C128 C 0.59451 0.03717 0.43974 0.0
C129 C 0.59752 0.06994 0.4436 0.0
C130 C 0.62477 0.08124 0.45751 0.0
H131 H 0.66393 0.01404 0.47087 0.0
O132 O 0.65131 0.0563 0.56259 0.0
O133 O 0.66313 0.08453 0.5233 0.0
O134 O 0.71292 0.04304 0.54033 0.0
O135 O 0.7066 0.04689 0.49161 0.0
C136 C 0.57444 0.09183 0.4344 0.0
C137 C 0.57901 0.12449 0.43917 0.0
H138 H 0.59591 0.18542 0.45231 0.0
H139 H 0.64565 0.20083 0.47738 0.0
H140 H 0.61666 0.99169 0.44641 0.0
H141 H 0.57381 0.02727 0.42923 0.0
H142 H 0.55303 0.08378 0.42375 0.0
H143 H 0.56102 0.14107 0.43214 0.0
Mn144 Mn 0.40706 0.79976 0.94169 0.0
Mn145 Mn 0.4073 0.8114 0.01481 0.0
C146 C 0.42924 0.8448 0.9603 0.0
C147 C 0.38165 0.80217 0.89673 0.0
C148 C 0.45584 0.77106 0.9839 0.0
O149 O 0.37655 0.76669 0.95613 0.0
O150 O 0.37849 0.77583 0.00436 0.0
C151 C 0.34129 0.8345 0.01829 0.0
N152 N 0.37272 0.83907 0.02329 0.0
C153 C 0.36303 0.8907 0.04356 0.0
C154 C 0.33054 0.88647 0.0388 0.0
C155 C 0.31964 0.85827 0.02605 0.0
C156 C 0.38348 0.86623 0.03527 0.0
H157 H 0.33282 0.81294 0.00837 0.0
C158 C 0.36839 0.7604 0.98219 0.0
O159 O 0.40443 0.78222 0.90151 0.0
O160 O 0.37328 0.82032 0.91827 0.0
N161 N 0.4337 0.84466 0.02928 0.0
C162 C 0.46553 0.84422 0.03401 0.0
C163 C 0.48019 0.87047 0.04707 0.0
C164 C 0.46189 0.89656 0.05576 0.0
C165 C 0.429 0.89587 0.05188 0.0
C166 C 0.41571 0.86898 0.03889 0.0
H167 H 0.4797 0.82414 0.02755 0.0
O168 O 0.43564 0.83571 0.93393 0.0
O169 O 0.40833 0.82828 0.97473 0.0
O170 O 0.44419 0.77435 0.95831 0.0
O171 O 0.44398 0.78379 0.0068 0.0
C172 C 0.40888 0.9208 0.0604 0.0
C173 C 0.37593 0.91826 0.05614 0.0
H174 H 0.31376 0.90473 0.04478 0.0
H175 H 0.29462 0.85488 0.0222 0.0
H176 H 0.50554 0.87062 0.05035 0.0
H177 H 0.47331 0.91687 0.06561 0.0
H178 H 0.41851 0.94201 0.07025 0.0
H179 H 0.3607 0.9376 0.06273 0.0
Mn180 Mn 0.80188 0.58395 0.05313 0.0
Mn181 Mn 0.8119 0.58617 0.97987 0.0
C182 C 0.84845 0.56667 0.03324 0.0
C183 C 0.80292 0.60801 0.09878 0.0
C184 C 0.77614 0.53403 0.01051 0.0
O185 O 0.76614 0.61202 0.03984 0.0
O186 O 0.77446 0.61205 0.99138 0.0
C187 C 0.82958 0.65384 0.97646 0.0
N188 N 0.83652 0.6229 0.97115 0.0
C189 C 0.88656 0.63681 0.94965 0.0
C190 C 0.87986 0.66884 0.95472 0.0
C191 C 0.85126 0.67737 0.96823 0.0
C192 C 0.86406 0.61442 0.95836 0.0
H193 H 0.8077 0.66051 0.98696 0.0
C194 C 0.75877 0.62038 0.01405 0.0
O195 O 0.78486 0.58384 0.0935 0.0
O196 O 0.81998 0.6186 0.07732 0.0
N197 N 0.84691 0.56258 0.96476 0.0
C198 C 0.84939 0.53072 0.9607 0.0
C199 C 0.87659 0.51826 0.94736 0.0
C200 C 0.90066 0.53868 0.93782 0.0
C201 C 0.89707 0.57145 0.94128 0.0
C202 C 0.86936 0.58251 0.95459 0.0
H203 H 0.83091 0.51491 0.96789 0.0
O204 O 0.84039 0.55837 0.05946 0.0
O205 O 0.82966 0.58624 0.01964 0.0
O206 O 0.77928 0.54532 0.03621 0.0
O207 O 0.78734 0.54732 0.98764 0.0
C208 C 0.91998 0.59357 0.93221 0.0
C209 C 0.91477 0.62622 0.93647 0.0
H210 H 0.89653 0.68706 0.94842 0.0
H211 H 0.84597 0.70203 0.97232 0.0
H212 H 0.87905 0.49296 0.94453 0.0
H213 H 0.92173 0.52896 0.92777 0.0
H214 H 0.94173 0.58571 0.92202 0.0
H215 H 0.93262 0.64299 0.92953 0.0
Mn216 Mn 0.58246 0.19123 0.94082 0.0
Mn217 Mn 0.58629 0.18092 0.01398 0.0
C218 C 0.56518 0.14474 0.9609 0.0
C219 C 0.60589 0.18988 0.89489 0.0
C220 C 0.53388 0.21751 0.98439 0.0
O221 O 0.61114 0.22669 0.95373 0.0
O222 O 0.61274 0.21778 0.00207 0.0
C223 C 0.6536 0.16174 0.01614 0.0
N224 N 0.62265 0.15549 0.02202 0.0
C225 C 0.63592 0.10516 0.0433 0.0
C226 C 0.66797 0.11115 0.03765 0.0
C227 C 0.67683 0.13954 0.02396 0.0
C228 C 0.61385 0.12815 0.03499 0.0
H229 H 0.66051 0.18346 0.0055 0.0
C230 C 0.62057 0.23357 0.97931 0.0
O231 O 0.58195 0.20819 0.90038 0.0
O232 O 0.61656 0.17277 0.91627 0.0
N233 N 0.56226 0.14639 0.02941 0.0
C234 C 0.53044 0.14454 0.0339 0.0
C235 C 0.51768 0.1176 0.04744 0.0
C236 C 0.53779 0.09313 0.05671 0.0
C237 C 0.57054 0.09606 0.05276 0.0
C238 C 0.58191 0.12354 0.03929 0.0
H239 H 0.51486 0.16331 0.02691 0.0
O240 O 0.55643 0.15291 0.93484 0.0
O241 O 0.58516 0.16335 0.97418 0.0
O242 O 0.54431 0.21417 0.9584 0.0
O243 O 0.5478 0.20629 0.00693 0.0
C244 C 0.59235 0.07268 0.06147 0.0
C245 C 0.62501 0.07719 0.05666 0.0
H246 H 0.68595 0.09408 0.04362 0.0
H247 H 0.7015 0.14428 0.01941 0.0
H248 H 0.49239 0.11565 0.05062 0.0
H249 H 0.52783 0.07227 0.0669 0.0
H250 H 0.58424 0.05109 0.07177 0.0
H251 H 0.64153 0.05897 0.06331 0.0
Mn252 Mn 0.19263 0.40932 0.06133 0.0
Mn253 Mn 0.18171 0.40722 0.98814 0.0
C254 C 0.14765 0.43066 0.04181 0.0
C255 C 0.19026 0.38551 0.10703 0.0
C256 C 0.22105 0.4572 0.01803 0.0
O257 O 0.22598 0.3785 0.048 0.0
O258 O 0.21763 0.37928 -0.00037 0.0
C259 C 0.15971 0.34075 0.98636 0.0
N260 N 0.1547 0.37193 0.98042 0.0
C261 C 0.10349 0.36073 0.95994 0.0
C262 C 0.10819 0.32848 0.96567 0.0
C263 C 0.1364 0.31847 0.97899 0.0
C264 C 0.1275 0.38184 0.9679 0.0
H265 H 0.18128 0.33295 0.99671 0.0
C266 C 0.23277 0.36981 0.0222 0.0
O267 O 0.21007 0.4082 0.10154 0.0
O268 O 0.17213 0.37629 0.08578 0.0
N269 N 0.14819 0.43259 0.97262 0.0
C270 C 0.14823 0.46423 0.96686 0.0
C271 C 0.12195 0.47801 0.95307 0.0
C272 C 0.09626 0.45902 0.94469 0.0
C273 C 0.09738 0.4263 0.94962 0.0
C274 C 0.12429 0.4139 0.96331 0.0
H275 H 0.16801 0.47893 0.97306 0.0
O276 O 0.15648 0.43795 0.06806 0.0
O277 O 0.16437 0.40933 0.02807 0.0
O278 O 0.2179 0.44606 0.04382 0.0
O279 O 0.20858 0.44463 0.99535 0.0
C280 C 0.0729 0.4055 0.94144 0.0
C281 C 0.0759 0.37275 0.94671 0.0
H282 H 0.09028 0.31122 0.95999 0.0
H283 H 0.14015 0.29364 0.98359 0.0
H284 H 0.12147 0.50322 0.94898 0.0
H285 H 0.07592 0.46976 0.93426 0.0
H286 H 0.05169 0.41445 0.93105 0.0
H287 H 0.0569 0.357 0.94035 0.0
C288 C 0.20677 0.38287 0.15938 0.0
C289 C 0.18736 0.37193 0.13663 0.0
C290 C 0.20229 0.37207 0.18789 0.0
C291 C 0.16393 0.30961 0.23225 0.0
H292 H 0.16238 0.3748 0.29182 0.0
C293 C 0.10692 0.29209 0.34583 0.0
C294 C 0.12108 0.30702 0.36991 0.0
C295 C 0.11856 0.29713 0.31764 0.0
C296 C 0.16326 0.35617 0.2756 0.0
H297 H 0.1488 0.34024 0.12568 0.0
H298 H 0.14077 0.32161 0.17554 0.0
H299 H 0.17656 0.38861 0.242 0.0
H300 H 0.15939 0.33777 0.38356 0.0
H301 H 0.17997 0.34619 0.33447 0.0
H302 H 0.15007 0.27726 0.26591 0.0
C303 C 0.15964 0.33832 0.17131 0.0
C304 C 0.17138 0.3641 0.247 0.0
C305 C 0.16413 0.34913 0.14277 0.0
C306 C 0.1478 0.32613 0.36541 0.0
C307 C 0.15949 0.33109 0.33726 0.0
C308 C 0.15583 0.30164 0.26093 0.0
C309 C 0.17831 0.35011 0.19427 0.0
C310 C 0.17155 0.34099 0.22494 0.0
C311 C 0.14464 0.31714 0.31299 0.0
C312 C 0.15514 0.32491 0.28288 0.0
H313 H 0.22503 0.40029 0.15531 0.0
H314 H 0.21738 0.38122 0.20504 0.0
H315 H 0.1642 0.2912 0.21579 0.0
H316 H 0.08627 0.27723 0.34861 0.0
H317 H 0.10636 0.28628 0.29942 0.0
C318 C 0.32541 0.84788 0.64064 0.0
C319 C 0.30313 0.87155 0.63423 0.0
C320 C 0.32921 0.83706 0.66926 0.0
C321 C 0.31852 0.86384 0.74463 0.0
H322 H 0.3348 0.77608 0.76422 0.0
C323 C 0.34167 0.82625 0.86321 0.0
C324 C 0.36709 0.80539 0.86757 0.0
C325 C 0.32973 0.83147 0.83519 0.0
C326 C 0.33047 0.80071 0.75906 0.0
H327 H 0.2665 0.90155 0.65254 0.0
H328 H 0.27308 0.88257 0.70243 0.0
H329 H 0.32144 0.79036 0.71401 0.0
H330 H 0.39922 0.77278 0.84619 0.0
H331 H 0.37884 0.78233 0.79723 0.0
H332 H 0.32837 0.87447 0.78929 0.0
C333 C 0.28786 0.87267 0.68541 0.0
C334 C 0.32279 0.80886 0.73033 0.0
C335 C 0.28401 0.88342 0.65681 0.0
C336 C 0.3796 0.78899 0.84351 0.0
C337 C 0.36777 0.79434 0.81546 0.0
C338 C 0.3263 0.85574 0.77327 0.0
C339 C 0.31086 0.84975 0.69203 0.0
C340 C 0.31701 0.84056 0.72277 0.0
C341 C 0.34307 0.81608 0.8109 0.0
C342 C 0.33266 0.82413 0.7808 0.0
H343 H 0.34047 0.83825 0.62369 0.0
H344 H 0.34732 0.81959 0.67371 0.0
H345 H 0.31474 0.88854 0.73941 0.0
H346 H 0.33135 0.83904 0.88137 0.0
H347 H 0.3103 0.84793 0.83251 0.0
C348 C 0.8464 0.66517 0.35727 0.0
C349 C 0.87174 0.68606 0.36191 0.0
C350 C 0.8347 0.66005 0.32916 0.0
C351 C 0.83509 0.69147 0.25343 0.0
H352 H 0.81974 0.60376 0.23306 0.0
C353 C 0.82711 0.64582 0.13447 0.0
C354 C 0.80533 0.62158 0.12843 0.0
C355 C 0.8315 0.65648 0.16308 0.0
C356 C 0.82339 0.62844 0.23847 0.0
H357 H 0.90402 0.71877 0.34087 0.0
H358 H 0.88394 0.70944 0.2917 0.0
H359 H 0.83407 0.61735 0.28288 0.0
H360 H 0.77001 0.59055 0.14739 0.0
H361 H 0.77747 0.60934 0.19722 0.0
H362 H 0.82505 0.70233 0.20866 0.0
C363 C 0.87282 0.69731 0.30982 0.0
C364 C 0.83161 0.63625 0.26708 0.0
C365 C 0.88445 0.70252 0.33799 0.0
C366 C 0.78715 0.60909 0.15137 0.0
C367 C 0.79153 0.61974 0.17994 0.0
C368 C 0.82691 0.68362 0.22472 0.0
C369 C 0.84816 0.67559 0.30503 0.0
C370 C 0.83776 0.66782 0.27488 0.0
C371 C 0.81421 0.64309 0.18621 0.0
C372 C 0.82117 0.65198 0.21691 0.0
H373 H 0.83592 0.65232 0.3753 0.0
H374 H 0.81531 0.6436 0.32628 0.0
H375 H 0.8393 0.71606 0.25881 0.0
H376 H 0.84146 0.65592 0.11724 0.0
H377 H 0.84933 0.67432 0.16722 0.0
C378 C 0.64323 0.16519 0.85913 0.0
C379 C 0.61929 0.1873 0.86519 0.0
C380 C 0.65392 0.16075 0.83055 0.0
C381 C 0.62679 0.17006 0.75488 0.0
H382 H 0.71417 0.15147 0.73562 0.0
C383 C 0.66497 0.14627 0.63654 0.0
C384 C 0.68472 0.11995 0.63219 0.0
C385 C 0.65978 0.15812 0.6646 0.0
C386 C 0.68966 0.15647 0.74071 0.0
H387 H 0.58877 0.2231 0.84629 0.0
H388 H 0.6077 0.21562 0.79647 0.0
H389 H 0.70016 0.16611 0.7856 0.0
H390 H 0.71539 0.08607 0.6537 0.0
H391 H 0.70603 0.10652 0.70277 0.0
H392 H 0.6161 0.15989 0.71027 0.0
C393 C 0.61781 0.20131 0.81372 0.0
C394 C 0.68163 0.16486 0.76931 0.0
C395 C 0.60709 0.20571 0.84228 0.0
C396 C 0.70004 0.10639 0.65636 0.0
C397 C 0.69481 0.11822 0.68446 0.0
C398 C 0.63479 0.16171 0.72635 0.0
C399 C 0.64093 0.17836 0.80744 0.0
C400 C 0.65004 0.17147 0.77677 0.0
C401 C 0.67418 0.14387 0.68894 0.0
C402 C 0.66626 0.15456 0.71896 0.0
H403 H 0.6531 0.15064 0.87633 0.0
H404 H 0.67152 0.14267 0.82644 0.0
H405 H 0.60215 0.17441 0.75998 0.0
H406 H 0.653 0.1574 0.61833 0.0
H407 H 0.64417 0.17824 0.66726 0.0
C408 C 0.24167 0.00204 0.53504 0.0
C409 C 0.25379 0.98577 0.51067 0.0
C410 C 0.22739 0.03158 0.53173 0.0
C411 C 0.18943 0.08393 0.47815 0.0
H412 H 0.21346 0.15034 0.53227 0.0
C413 C 0.14981 0.2127 0.46133 0.0
C414 C 0.13893 0.22902 0.48615 0.0
C415 C 0.16526 0.1837 0.46416 0.0
C416 C 0.20627 0.13198 0.51717 0.0
H417 H 0.25953 0.98758 0.46356 0.0
H418 H 0.2345 0.03914 0.45788 0.0
H419 H 0.23618 0.09761 0.53752 0.0
H420 H 0.13671 0.228 0.53351 0.0
H421 H 0.16331 0.1772 0.53837 0.0
H422 H 0.15928 0.11813 0.45797 0.0
C423 C 0.23603 0.0289 0.47952 0.0
C424 C 0.21927 0.1018 0.52018 0.0
C425 C 0.25045 -0.00062 0.48281 0.0
C426 C 0.1448 0.21612 0.51392 0.0
C427 C 0.16016 0.18702 0.51673 0.0
C428 C 0.17634 0.11408 0.47521 0.0
C429 C 0.22477 0.04547 0.50399 0.0
C430 C 0.21093 0.07746 0.50074 0.0
C431 C 0.17013 0.17027 0.49185 0.0
C432 C 0.1846 0.13844 0.49469 0.0
H433 H 0.24372 0.9923 0.55683 0.0
H434 H 0.21847 0.04361 0.55093 0.0
H435 H 0.1823 0.06553 0.46307 0.0
H436 H 0.14598 0.22205 0.43959 0.0
H437 H 0.17322 0.17168 0.4446 0.0
C438 C 0.21509 0.83673 0.53859 0.0
C439 C 0.23202 0.84849 0.51449 0.0
C440 C 0.18626 0.82128 0.53462 0.0
C441 C 0.13511 0.78253 0.47977 0.0
H442 H 0.06784 0.80844 0.53223 0.0
C443 C 0.00464 0.74931 0.4597 0.0
C444 C 0.98761 0.73829 0.48405 0.0
C445 C 0.03444 0.76304 0.46322 0.0
C446 C 0.08643 0.80074 0.51758 0.0
H447 H 0.23261 0.85175 0.46717 0.0
H448 H 0.18212 0.82501 0.46032 0.0
H449 H 0.12089 0.8297 0.5388 0.0
H450 H 0.98835 0.73391 0.53132 0.0
H451 H 0.04026 0.75777 0.53734 0.0
H452 H 0.10049 0.75367 0.45847 0.0
C453 C 0.19127 0.82762 0.48228 0.0
C454 C 0.11685 0.81283 0.52139 0.0
C455 C 0.22019 0.84304 0.48623 0.0
C456 C 0.00071 0.74216 0.51205 0.0
C457 C 0.03046 0.75594 0.51555 0.0
C458 C 0.10464 0.77045 0.47594 0.0
C459 C 0.17366 0.81727 0.50648 0.0
C460 C 0.14155 0.80381 0.50258 0.0
C461 C 0.04781 0.76615 0.49115 0.0
C462 C 0.08 0.77941 0.49484 0.0
H463 H 0.22363 0.84017 0.56066 0.0
H464 H 0.17356 0.81294 0.55366 0.0
H465 H 0.15372 0.7749 0.46511 0.0
H466 H 0.9953 0.74679 0.4378 0.0
H467 H 0.04707 0.77114 0.44405 0.0
C468 C 0.74312 0.98419 0.53473 0.0
C469 C 0.73314 0.00192 0.51042 0.0
C470 C 0.75673 0.95435 0.53101 0.0
C471 C 0.79702 0.9043 0.47673 0.0
H472 H 0.77151 0.83541 0.52749 0.0
C473 C 0.83821 0.77706 0.45551 0.0
C474 C 0.84938 0.76011 0.47984 0.0
C475 C 0.82176 0.80539 0.45922 0.0
C476 C 0.77904 0.85447 0.5133 0.0
H477 H 0.73006 0.00214 0.46306 0.0
H478 H 0.75372 0.95015 0.45669 0.0
H479 H 0.74842 0.88788 0.53422 0.0
H480 H 0.85068 0.75904 0.52724 0.0
H481 H 0.82226 0.80868 0.53363 0.0
H482 H 0.8278 0.8711 0.45595 0.0
C483 C 0.75122 0.95947 0.47861 0.0
C484 C 0.76587 0.88451 0.51718 0.0
C485 C 0.73755 0.98927 0.4823 0.0
C486 C 0.84248 0.77148 0.508 0.0
C487 C 0.82606 0.7999 0.51169 0.0
C488 C 0.81019 0.87432 0.47288 0.0
C489 C 0.76076 0.94161 0.50292 0.0
C490 C 0.77475 0.90973 0.49893 0.0
C491 C 0.81613 0.81749 0.48732 0.0
C492 C 0.80136 0.84907 0.49111 0.0
H493 H 0.74012 0.99316 0.55672 0.0
H494 H 0.76425 0.9413 0.55014 0.0
H495 H 0.80468 0.92337 0.46261 0.0
H496 H 0.84278 0.76887 0.4335 0.0
H497 H 0.81383 0.81808 0.44002 0.0
C498 C 0.77928 0.14898 0.54124 0.0
C499 C 0.76255 0.13893 0.51636 0.0
C500 C 0.80775 0.16538 0.5384 0.0
C501 C 0.85669 0.21073 0.48619 0.0
H502 H 0.92539 0.18537 0.53723 0.0
C503 C 0.98574 0.24926 0.46674 0.0
C504 C 0.00302 0.2593 0.4913 0.0
C505 C 0.95613 0.23511 0.47005 0.0
C506 C 0.90635 0.19294 0.52304 0.0
H507 H 0.76227 0.13915 0.46895 0.0
H508 H 0.81216 0.16743 0.46406 0.0
H509 H 0.87362 0.16074 0.54255 0.0
H510 H 0.0027 0.26196 0.53867 0.0
H511 H 0.95104 0.23725 0.54434 0.0
H512 H 0.88963 0.24271 0.4665 0.0
C513 C 0.80305 0.16287 0.48576 0.0
C514 C 0.87667 0.17889 0.52611 0.0
C515 C 0.7745 0.14653 0.48858 0.0
C516 C 0.99014 0.25445 0.51926 0.0
C517 C 0.96056 0.2402 0.52255 0.0
C518 C 0.88642 0.22472 0.48307 0.0
C519 C 0.82021 0.17206 0.51064 0.0
C520 C 0.85151 0.1876 0.5077 0.0
C521 C 0.94317 0.23057 0.49797 0.0
C522 C 0.91156 0.21591 0.50142 0.0
H523 H 0.77067 0.14382 0.56299 0.0
H524 H 0.8201 0.17267 0.55799 0.0
H525 H 0.83768 0.21825 0.47194 0.0
H526 H 0.99489 0.25257 0.44486 0.0
H527 H 0.94345 0.22754 0.45073 0.0
C528 C 0.24099 0.50175 0.9869 0.0
C529 C 0.23806 0.4876 0.01456 0.0
C530 C 0.25431 0.53181 0.98402 0.0
C531 C 0.30428 0.59047 0.02204 0.0
H532 H 0.26352 0.64981 0.96952 0.0
C533 C 0.34304 0.72074 0.01552 0.0
C534 C 0.34808 0.73239 0.98713 0.0
C535 C 0.32724 0.6921 0.01984 0.0
C536 C 0.27523 0.63344 0.98415 0.0
H537 H 0.24768 0.49378 0.06081 0.0
H538 H 0.27065 0.5462 0.05574 0.0
H539 H 0.24229 0.59645 0.97468 0.0
H540 H 0.33888 0.72383 0.94113 0.0
H541 H 0.31146 0.67397 0.94873 0.0
H542 H 0.33729 0.62744 0.03143 0.0
C543 C 0.26288 0.53393 0.03626 0.0
C544 C 0.26317 0.60286 0.98702 0.0
C545 C 0.2496 0.50386 0.03915 0.0
C546 C 0.33558 0.71552 0.9633 0.0
C547 C 0.31969 0.68699 0.96764 0.0
C548 C 0.31629 0.62107 0.01922 0.0
C549 C 0.26499 0.54841 0.00872 0.0
C550 C 0.2777 0.58096 0.00585 0.0
C551 C 0.31598 0.67463 0.99589 0.0
C552 C 0.30201 0.64281 0.00012 0.0
H553 H 0.23248 0.48991 0.96745 0.0
H554 H 0.25613 0.54211 0.96244 0.0
H555 H 0.31623 0.57405 0.03646 0.0
H556 H 0.35221 0.73316 0.0344 0.0
H557 H 0.32428 0.68336 0.0419 0.0
C558 C 0.71282 0.65054 0.03448 0.0
C559 C 0.7296 0.63927 0.01007 0.0
C560 C 0.68388 0.66594 0.03098 0.0
C561 C 0.61708 0.67133 0.98038 0.0
H562 H 0.59445 0.74494 0.02642 0.0
C563 C 0.50162 0.74163 0.96211 0.0
C564 C 0.48584 0.75327 0.98694 0.0
C565 C 0.53125 0.72733 0.96468 0.0
C566 C 0.60028 0.72415 0.01368 0.0
H567 H 0.7295 0.63636 0.96273 0.0
H568 H 0.67895 0.66341 0.9567 0.0
H569 H 0.64733 0.72241 0.03083 0.0
H570 H 0.48853 0.75795 0.03411 0.0
H571 H 0.53994 0.73252 0.03857 0.0
H572 H 0.56995 0.67285 0.96343 0.0
C573 C 0.68813 0.65993 0.97854 0.0
C574 C 0.63059 0.71134 0.01613 0.0
C575 C 0.71719 0.64464 0.98202 0.0
C576 C 0.50002 0.74941 0.01449 0.0
C577 C 0.52962 0.73506 0.01705 0.0
C578 C 0.58673 0.68408 0.97799 0.0
C579 C 0.67101 0.67035 0.00302 0.0
C580 C 0.63927 0.68474 -0.00043 0.0
C581 C 0.54577 0.72426 0.99213 0.0
C582 C 0.57796 0.71057 0.99469 0.0
H583 H 0.72167 0.64691 0.05642 0.0
H584 H 0.67111 0.67349 0.05027 0.0
H585 H 0.62295 0.65051 0.96769 0.0
H586 H 0.4915 0.74424 0.94052 0.0
H587 H 0.54319 0.71951 0.94504 0.0
C588 C 0.74931 0.48661 0.03204 0.0
C589 C 0.75979 0.50325 0.00726 0.0
C590 C 0.73525 0.45692 0.02921 0.0
C591 C 0.72879 0.38922 0.97865 0.0
H592 H 0.65658 0.36726 0.02678 0.0
C593 C 0.65096 0.27917 0.95846 0.0
C594 C 0.64038 0.26218 0.983 0.0
C595 C 0.66743 0.30754 0.96185 0.0
C596 C 0.67699 0.3729 0.01347 0.0
H597 H 0.76321 0.50171 0.95996 0.0
H598 H 0.73813 0.45012 0.95505 0.0
H599 H 0.68044 0.41948 0.03139 0.0
H600 H 0.63986 0.26125 0.03042 0.0
H601 H 0.66871 0.31079 0.03624 0.0
H602 H 0.72498 0.3427 0.96047 0.0
C603 C 0.74133 0.45988 0.97672 0.0
C604 C 0.69065 0.40282 0.01608 0.0
C605 C 0.75549 0.48959 0.97954 0.0
C606 C 0.64752 0.27376 0.01103 0.0
C607 C 0.66388 0.30223 0.0144 0.0
C608 C 0.71504 0.35932 0.97596 0.0
C609 C 0.73121 0.44315 0.00154 0.0
C610 C 0.71667 0.41135 0.99867 0.0
C611 C 0.67361 0.31962 0.98984 0.0
C612 C 0.68898 0.35088 0.99332 0.0
H613 H 0.75236 0.49627 0.05377 0.0
H614 H 0.7281 0.44448 0.0488 0.0
H615 H 0.74915 0.39487 0.96527 0.0
H616 H 0.64599 0.27093 0.93654 0.0
H617 H 0.67443 0.32053 0.94252 0.0
C618 C 0.48998 0.23704 0.01656 0.0
C619 C 0.50317 0.23382 0.98852 0.0
C620 C 0.46016 0.25069 0.02026 0.0
C621 C 0.38611 0.26715 0.98079 0.0
H622 H 0.37122 0.3265 0.04387 0.0
C623 C 0.273 0.34356 0.98997 0.0
C624 C 0.26088 0.34936 0.01807 0.0
C625 C 0.30152 0.32729 0.9864 0.0
C626 C 0.37485 0.30961 0.0264 0.0
H627 H 0.4954 0.243 0.94239 0.0
H628 H 0.44356 0.26705 0.94898 0.0
H629 H 0.42359 0.30349 0.03759 0.0
H630 H 0.2684 0.34098 0.06435 0.0
H631 H 0.31777 0.31226 0.05801 0.0
H632 H 0.33734 0.27337 0.96956 0.0
C633 C 0.45616 0.2586 0.96803 0.0
C634 C 0.40489 0.29649 0.02278 0.0
C635 C 0.486 0.24502 0.96432 0.0
C636 C 0.27719 0.33727 0.04239 0.0
C637 C 0.30561 0.32095 0.0388 0.0
C638 C 0.35603 0.28025 0.98444 0.0
C639 C 0.44283 0.26137 0.99601 0.0
C640 C 0.41087 0.27519 -0.00011 0.0
C641 C 0.31845 0.31639 0.01082 0.0
C642 C 0.35008 0.30166 0.00727 0.0
H643 H 0.50242 0.22859 0.03571 0.0
H644 H 0.45038 0.25223 0.04208 0.0
H645 H 0.3899 0.25043 0.96321 0.0
H646 H 0.26108 0.35252 0.97075 0.0
H647 H 0.31088 0.32433 0.96455 0.0
C648 C 0.92972 0.59201 0.4753 0.0
C649 C 0.94696 0.61935 0.46873 0.0
C650 C 0.94551 0.56428 0.4833 0.0
C651 C 0.02325 0.52606 0.47412 0.0
H652 H 0.98674 0.463 0.52554 0.0
C653 C 0.07786 0.40244 0.48451 0.0
C654 C 0.05585 0.37873 0.47786 0.0
C655 C 0.06747 0.43292 0.4915 0.0
C656 C -0.00267 0.48058 0.51137 0.0
H657 H 0.99369 0.6396 0.46442 0.0
H658 H 0.02139 0.59175 0.47963 0.0
H659 H 0.96281 0.51564 0.52258 0.0
H660 H 0.00622 0.36774 0.47259 0.0
H661 H 0.98791 0.42084 0.48518 0.0
H662 H 0.05732 0.49091 0.46249 0.0
C663 C 0.99582 0.5913 0.47843 0.0
C664 C 0.98353 0.51058 0.50948 0.0
C665 C 0.98004 0.61874 0.46997 0.0
C666 C 0.02345 0.38564 0.47839 0.0
C667 C 0.01305 0.41588 0.48576 0.0
C668 C 0.0372 0.4963 0.47629 0.0
C669 C 0.97881 0.56353 0.4847 0.0
C670 C 0.99577 0.53332 0.49011 0.0
C671 C 0.03496 0.43997 0.49176 0.0
C672 C 0.02381 0.47299 0.49422 0.0
H673 H 0.90416 0.59187 0.47348 0.0
H674 H 0.93166 0.54319 0.48733 0.0
H675 H 0.03309 0.54271 0.45863 0.0
H676 H 0.10301 0.39768 0.48331 0.0
H677 H 0.08481 0.45118 0.49587 0.0
C678 C 0.59004 0.07639 0.51739 0.0
C679 C 0.61374 0.0544 0.52413 0.0
C680 C 0.5597 0.06598 0.51003 0.0
C681 C 0.5127 0.99586 0.4889 0.0
H682 H 0.44916 0.03141 0.54036 0.0
C683 C 0.40024 0.9283 0.52214 0.0
C684 C 0.37275 0.94559 0.52813 0.0
C685 C 0.42819 0.94406 0.51479 0.0
C686 C 0.46624 0.02163 0.52522 0.0
H687 H 0.6248 0.00476 0.5293 0.0
H688 H 0.5719 0.9864 0.51609 0.0
H689 H 0.50107 0.05559 0.53784 0.0
H690 H 0.35245 0.99236 0.53201 0.0
H691 H 0.40074 0.02 0.51795 0.0
H692 H 0.47795 0.96145 0.4767 0.0
C693 C 0.5768 0.01155 0.5157 0.0
C694 C 0.49606 0.03555 0.52382 0.0
C695 C 0.60691 0.02198 0.52343 0.0
C696 C 0.37343 0.97868 0.52692 0.0
C697 C 0.40111 0.99442 0.51911 0.0
C698 C 0.48267 0.9821 0.49002 0.0
C699 C 0.55275 0.03345 0.5095 0.0
C700 C 0.51984 0.02225 0.50636 0.0
C701 C 0.42902 0.97736 0.51349 0.0
C702 C 0.45939 0.99427 0.5089 0.0
H703 H 0.59474 0.10155 0.51873 0.0
H704 H 0.54147 0.08331 0.50552 0.0
H705 H 0.53066 0.98536 0.47507 0.0
H706 H 0.40029 0.90274 0.52393 0.0
H707 H 0.44936 0.93017 0.51123 0.0
C708 C 0.52212 0.10762 0.97323 0.0
C709 C 0.55456 0.1143 0.97244 0.0
C710 C 0.51159 0.07748 0.98077 0.0
C711 C 0.53478 0.99654 0.97244 0.0
H712 H 0.46225 0.97883 0.02171 0.0
C713 C 0.47827 0.87378 0.9718 0.0
C714 C 0.44516 0.87292 0.97161 0.0
C715 C 0.49412 0.90158 0.97904 0.0
C716 C 0.48243 0.98344 0.00777 0.0
H717 H 0.60164 0.09497 0.97732 0.0
H718 H 0.58322 0.04165 0.99015 0.0
H719 H 0.48615 0.03159 0.02224 0.0
H720 H 0.40235 0.90024 0.9771 0.0
H721 H 0.42994 0.94952 0.98874 0.0
H722 H 0.53016 0.94949 0.95639 0.0
C723 C 0.56596 0.06002 0.98588 0.0
C724 C 0.49619 0.01351 0.00826 0.0
C725 C 0.57648 0.09038 0.97873 0.0
C726 C 0.42796 0.90033 0.9781 0.0
C727 C 0.44381 0.92841 0.98484 0.0
C728 C 0.52084 0.9667 0.97165 0.0
C729 C 0.53341 0.05328 0.98669 0.0
C730 C 0.52204 0.02046 0.9901 0.0
C731 C 0.47713 0.92944 0.98504 0.0
C732 C 0.49405 0.95996 0.9888 0.0
H733 H 0.50495 0.12569 0.96769 0.0
H734 H 0.48641 0.07273 0.98061 0.0
H735 H 0.55439 0.00143 0.9579 0.0
H736 H 0.49186 0.85286 0.96632 0.0
H737 H 0.51973 0.90133 0.97939 0.0
C738 C 0.11904 0.47945 0.02868 0.0
C739 C 0.11975 0.44635 0.02977 0.0
C740 C 0.09147 0.4952 0.02052 0.0
C741 C 0.0104 0.48288 0.99025 0.0
H742 H 0.99128 0.55658 0.03756 0.0
C743 C 0.88566 0.52344 0.02171 0.0
C744 C 0.87888 0.55588 0.0218 0.0
C745 C 0.9159 0.5128 0.01462 0.0
C746 C 0.99651 0.53648 0.02369 0.0
H747 H 0.09236 0.4035 0.02498 0.0
H748 H 0.04348 0.43093 0.01168 0.0
H749 H 0.04309 0.53228 0.04093 0.0
H750 H 0.89809 0.60288 0.016 0.0
H751 H 0.95159 0.58428 0.00397 0.0
H752 H 0.96267 0.48619 0.97461 0.0
C753 C 0.06456 0.44483 0.0156 0.0
C754 C 0.02628 0.52249 0.02557 0.0
C755 C 0.09241 0.42907 0.0233 0.0
C756 C 0.90276 0.5777 0.01513 0.0
C757 C 0.93323 0.56708 0.00844 0.0
C758 C 0.98041 0.4967 0.98866 0.0
C759 C 0.06369 0.47814 0.01442 0.0
C760 C 0.03338 0.49506 0.00941 0.0
C761 C 0.9401 0.53453 0.00847 0.0
C762 C 0.97303 0.52317 0.00591 0.0
H763 H 0.1399 0.49312 0.03415 0.0
H764 H 0.09185 0.52078 0.01945 0.0
H765 H 0.01532 0.4622 0.97703 0.0
H766 H 0.86762 0.50636 0.02754 0.0
H767 H 0.92073 0.48765 0.01543 0.0
loop_
_geom_bond_atom_site_label_1
_geom_bond_atom_site_label_2
_geom_bond_distance
_geom_bond_site_symmetry_2
_ccdc_geom_bond_type
Mn0 O5 2.095 . S
Mn0 O15 2.162 . S
Mn0 O16 2.297 . S
Mn0 O24 2.385 . S
Mn0 O25 2.209 . S
Mn0 O26 2.094 . S
Mn1 O6 2.121 . S
Mn1 N8 2.257 . S
Mn1 N17 2.282 . S
Mn1 O25 2.215 . S
Mn1 O27 2.117 . S
C2 O24 1.234 . S
C2 O25 1.283 . S
C3 O15 1.281 . S
C3 O16 1.236 . S
C4 O26 1.240 . S
C4 O27 1.264 . S
O5 Mn0 2.095 . S
O5 C14 1.250 . S
O6 Mn1 2.121 . S
O6 C14 1.258 . S
C7 N8 1.326 . S
C7 C11 1.460 . S
C7 H13 0.929 . S
N8 Mn1 2.257 . S
N8 C7 1.326 . S
N8 C12 1.362 . S
C9 C10 1.258 . S
C9 C12 1.431 . S
C9 C29 1.449 . S
C10 C9 1.258 . S
C10 C11 1.477 . S
C10 H30 0.931 . S
C11 C7 1.460 . S
C11 C10 1.477 . S
C11 H31 0.930 . S
C12 N8 1.362 . S
C12 C9 1.431 . S
C12 C22 1.476 . S
H13 C7 0.929 . S
C14 O5 1.250 . S
C14 O6 1.258 . S
O15 Mn0 2.162 . S
O15 C3 1.281 . S
O16 Mn0 2.297 . S
O16 C3 1.236 . S
N17 Mn1 2.282 . S
N17 C18 1.328 1_455 S
N17 C22 1.318 . S
C18 N17 1.328 1_655 S
C18 C19 1.457 . S
C18 H23 0.929 . S
C19 C18 1.457 . S
C19 C20 1.291 . S
C19 H32 0.931 . S
C20 C19 1.291 . S
C20 C21 1.373 1_655 S
C20 H33 0.929 . S
C21 C20 1.373 1_455 S
C21 C22 1.396 . S
C21 C28 1.403 . S
C22 C12 1.476 . S
C22 N17 1.318 . S
C22 C21 1.396 . S
H23 C18 0.929 . S
O24 Mn0 2.385 . S
O24 C2 1.234 . S
O25 Mn0 2.209 . S
O25 Mn1 2.215 . S
O25 C2 1.283 . S
O26 Mn0 2.094 . S
O26 C4 1.240 . S
O27 Mn1 2.117 . S
O27 C4 1.264 . S
C28 C21 1.403 . S
C28 C29 1.399 . S
C28 H34 0.929 . S
C29 C9 1.449 . S
C29 C28 1.399 . S
C29 H35 0.930 . S
H30 C10 0.931 . S
H31 C11 0.930 . S
H32 C19 0.931 . S
H33 C20 0.929 . S
H34 C28 0.929 . S
H35 C29 0.930 . S
Mn36 O41 2.095 . S
Mn36 O51 2.162 . S
Mn36 O52 2.297 . S
Mn36 O60 2.385 . S
Mn36 O61 2.209 . S
Mn36 O62 2.094 . S
Mn37 O42 2.121 . S
Mn37 N44 2.257 . S
Mn37 N53 2.282 . S
Mn37 O61 2.215 . S
Mn37 O63 2.117 . S
C38 O60 1.234 . S
C38 O61 1.283 . S
C39 O51 1.281 . S
C39 O52 1.236 . S
C40 O62 1.240 . S
C40 O63 1.264 . S
O41 Mn36 2.095 . S
O41 C50 1.250 . S
O42 Mn37 2.121 . S
O42 C50 1.258 . S
C43 N44 1.326 . S
C43 C47 1.460 . S
C43 H49 0.929 . S
N44 Mn37 2.257 . S
N44 C43 1.326 . S
N44 C48 1.362 . S
C45 C46 1.258 . S
C45 C48 1.431 . S
C45 C65 1.449 . S
C46 C45 1.258 . S
C46 C47 1.477 . S
C46 H66 0.931 . S
C47 C43 1.460 . S
C47 C46 1.477 . S
C47 H67 0.930 . S
C48 N44 1.362 . S
C48 C45 1.431 . S
C48 C58 1.476 . S
H49 C43 0.929 . S
C50 O41 1.250 . S
C50 O42 1.258 . S
O51 Mn36 2.162 . S
O51 C39 1.281 . S
O52 Mn36 2.297 . S
O52 C39 1.236 . S
N53 Mn37 2.282 . S
N53 C54 1.328 1_565 S
N53 C58 1.318 . S
C54 N53 1.328 1_545 S
C54 C55 1.457 . S
C54 H59 0.929 . S
C55 C54 1.457 . S
C55 C56 1.291 . S
C55 H68 0.931 . S
C56 C55 1.291 . S
C56 C57 1.373 1_545 S
C56 H69 0.929 . S
C57 C56 1.373 1_565 S
C57 C58 1.396 . S
C57 C64 1.403 . S
C58 C48 1.476 . S
C58 N53 1.318 . S
C58 C57 1.396 . S
H59 C54 0.929 . S
O60 Mn36 2.385 . S
O60 C38 1.234 . S
O61 Mn36 2.209 . S
O61 Mn37 2.215 . S
O61 C38 1.283 . S
O62 Mn36 2.094 . S
O62 C40 1.240 . S
O63 Mn37 2.117 . S
O63 C40 1.264 . S
C64 C57 1.403 . S
C64 C65 1.399 . S
C64 H70 0.929 . S
C65 C45 1.449 . S
C65 C64 1.399 . S
C65 H71 0.930 . S
H66 C46 0.931 . S
H67 C47 0.930 . S
H68 C55 0.931 . S
H69 C56 0.929 . S
H70 C64 0.929 . S
H71 C65 0.930 . S
Mn72 O77 2.095 . S
Mn72 O87 2.162 . S
Mn72 O88 2.297 . S
Mn72 O96 2.385 . S
Mn72 O97 2.209 . S
Mn72 O98 2.094 . S
Mn73 O78 2.121 . S
Mn73 N80 2.257 . S
Mn73 N89 2.282 . S
Mn73 O97 2.215 . S
Mn73 O99 2.117 . S
C74 O96 1.234 . S
C74 O97 1.283 . S
C75 O87 1.281 . S
C75 O88 1.236 . S
C76 O98 1.240 . S
C76 O99 1.264 . S
O77 Mn72 2.095 . S
O77 C86 1.250 . S
O78 Mn73 2.121 . S
O78 C86 1.258 . S
C79 N80 1.326 . S
C79 C83 1.460 . S
C79 H85 0.929 . S
N80 Mn73 2.257 . S
N80 C79 1.326 . S
N80 C84 1.362 . S
C81 C82 1.258 . S
C81 C84 1.431 . S
C81 C101 1.449 . S
C82 C81 1.258 . S
C82 C83 1.477 . S
C82 H102 0.931 . S
C83 C79 1.460 . S
C83 C82 1.477 . S
C83 H103 0.930 . S
C84 N80 1.362 . S
C84 C81 1.431 . S
C84 C94 1.476 . S
H85 C79 0.929 . S
C86 O77 1.250 . S
C86 O78 1.258 . S
O87 Mn72 2.162 . S
O87 C75 1.281 . S
O88 Mn72 2.297 . S
O88 C75 1.236 . S
N89 Mn73 2.282 . S
N89 C90 1.328 1_655 S
N89 C94 1.318 . S
C90 N89 1.328 1_455 S
C90 C91 1.457 . S
C90 H95 0.929 . S
C91 C90 1.457 . S
C91 C92 1.291 . S
C91 H104 0.931 . S
C92 C91 1.291 . S
C92 C93 1.373 1_455 S
C92 H105 0.929 . S
C93 C92 1.373 1_655 S
C93 C94 1.396 . S
C93 C100 1.403 . S
C94 C84 1.476 . S
C94 N89 1.318 . S
C94 C93 1.396 . S
H95 C90 0.929 . S
O96 Mn72 2.385 . S
O96 C74 1.234 . S
O97 Mn72 2.209 . S
O97 Mn73 2.215 . S
O97 C74 1.283 . S
O98 Mn72 2.094 . S
O98 C76 1.240 . S
O99 Mn73 2.117 . S
O99 C76 1.264 . S
C100 C93 1.403 . S
C100 C101 1.399 . S
C100 H106 0.929 . S
C101 C81 1.449 . S
C101 C100 1.399 . S
C101 H107 0.930 . S
H102 C82 0.931 . S
H103 C83 0.930 . S
H104 C91 0.931 . S
H105 C92 0.929 . S
H106 C100 0.929 . S
H107 C101 0.930 . S
Mn108 O113 2.095 . S
Mn108 O123 2.162 . S
Mn108 O124 2.297 . S
Mn108 O132 2.385 . S
Mn108 O133 2.209 . S
Mn108 O134 2.094 . S
Mn109 O114 2.121 . S
Mn109 N116 2.257 . S
Mn109 N125 2.282 . S
Mn109 O133 2.215 . S
Mn109 O135 2.117 . S
C110 O132 1.234 . S
C110 O133 1.283 . S
C111 O123 1.281 . S
C111 O124 1.236 . S
C112 O134 1.240 . S
C112 O135 1.264 . S
O113 Mn108 2.095 . S
O113 C122 1.250 . S
O114 Mn109 2.121 . S
O114 C122 1.258 . S
C115 N116 1.326 . S
C115 C119 1.460 . S
C115 H121 0.929 . S
N116 Mn109 2.257 . S
N116 C115 1.326 . S
N116 C120 1.362 . S
C117 C118 1.258 . S
C117 C120 1.431 . S
C117 C137 1.449 . S
C118 C117 1.258 . S
C118 C119 1.477 . S
C118 H138 0.931 . S
C119 C115 1.460 . S
C119 C118 1.477 . S
C119 H139 0.930 . S
C120 N116 1.362 . S
C120 C117 1.431 . S
C120 C130 1.476 . S
H121 C115 0.929 . S
C122 O113 1.250 . S
C122 O114 1.258 . S
O123 Mn108 2.162 . S
O123 C111 1.281 . S
O124 Mn108 2.297 . S
O124 C111 1.236 . S
N125 Mn109 2.282 . S
N125 C126 1.328 1_545 S
N125 C130 1.318 . S
C126 N125 1.328 1_565 S
C126 C127 1.457 . S
C126 H131 0.929 . S
C127 C126 1.457 . S
C127 C128 1.291 . S
C127 H140 0.931 . S
C128 C127 1.291 . S
C128 C129 1.373 1_565 S
C128 H141 0.929 . S
C129 C128 1.373 1_545 S
C129 C130 1.396 . S
C129 C136 1.403 . S
C130 C120 1.476 . S
C130 N125 1.318 . S
C130 C129 1.396 . S
H131 C126 0.929 . S
O132 Mn108 2.385 . S
O132 C110 1.234 . S
O133 Mn108 2.209 . S
O133 Mn109 2.215 . S
O133 C110 1.283 . S
O134 Mn108 2.094 . S
O134 C112 1.240 . S
O135 Mn109 2.117 . S
O135 C112 1.264 . S
C136 C129 1.403 . S
C136 C137 1.399 . S
C136 H142 0.929 . S
C137 C117 1.449 . S
C137 C136 1.399 . S
C137 H143 0.930 . S
H138 C118 0.931 . S
H139 C119 0.930 . S
H140 C127 0.931 . S
H141 C128 0.929 . S
H142 C136 0.929 . S
H143 C137 0.930 . S
Mn144 O149 2.095 . S
Mn144 O159 2.162 . S
Mn144 O160 2.297 . S
Mn144 O168 2.385 . S
Mn144 O169 2.209 . S
Mn144 O170 2.094 . S
Mn145 O150 2.121 . S
Mn145 N152 2.257 . S
Mn145 N161 2.282 . S
Mn145 O169 2.215 1_554 S
Mn145 O171 2.117 1_554 S
C146 O168 1.234 . S
C146 O169 1.283 . S
C147 O159 1.281 . S
C147 O160 1.236 . S
C148 O170 1.240 . S
C148 O171 1.264 . S
O149 Mn144 2.095 . S
O149 C158 1.250 . S
O150 Mn145 2.121 . S
O150 C158 1.258 1_554 S
C151 N152 1.326 . S
C151 C155 1.460 . S
C151 H157 0.929 . S
N152 Mn145 2.257 . S
N152 C151 1.326 . S
N152 C156 1.362 . S
C153 C154 1.258 . S
C153 C156 1.431 . S
C153 C173 1.449 . S
C154 C153 1.258 . S
C154 C155 1.477 . S
C154 H174 0.931 . S
C155 C151 1.460 . S
C155 C154 1.477 . S
C155 H175 0.930 . S
C156 N152 1.362 . S
C156 C153 1.431 . S
C156 C166 1.476 . S
H157 C151 0.929 . S
C158 O149 1.250 . S
C158 O150 1.258 1_556 S
O159 Mn144 2.162 . S
O159 C147 1.281 . S
O160 Mn144 2.297 . S
O160 C147 1.236 . S
N161 Mn145 2.282 . S
N161 C162 1.328 . S
N161 C166 1.318 . S
C162 N161 1.328 . S
C162 C163 1.457 . S
C162 H167 0.929 . S
C163 C162 1.457 . S
C163 C164 1.291 . S
C163 H176 0.931 . S
C164 C163 1.291 . S
C164 C165 1.373 . S
C164 H177 0.929 . S
C165 C164 1.373 . S
C165 C166 1.396 . S
C165 C172 1.403 . S
C166 C156 1.476 . S
C166 N161 1.318 . S
C166 C165 1.396 . S
H167 C162 0.929 . S
O168 Mn144 2.385 . S
O168 C146 1.234 . S
O169 Mn144 2.209 . S
O169 Mn145 2.215 1_556 S
O169 C146 1.283 . S
O170 Mn144 2.094 . S
O170 C148 1.240 . S
O171 Mn145 2.117 1_556 S
O171 C148 1.264 . S
C172 C165 1.403 . S
C172 C173 1.399 . S
C172 H178 0.929 . S
C173 C153 1.449 . S
C173 C172 1.399 . S
C173 H179 0.930 . S
H174 C154 0.931 . S
H175 C155 0.930 . S
H176 C163 0.931 . S
H177 C164 0.929 . S
H178 C172 0.929 . S
H179 C173 0.930 . S
Mn180 O185 2.095 . S
Mn180 O195 2.162 . S
Mn180 O196 2.297 . S
Mn180 O204 2.385 . S
Mn180 O205 2.209 . S
Mn180 O206 2.094 . S
Mn181 O186 2.121 . S
Mn181 N188 2.257 . S
Mn181 N197 2.282 . S
Mn181 O205 2.215 1_556 S
Mn181 O207 2.117 1_556 S
C182 O204 1.234 . S
C182 O205 1.283 . S
C183 O195 1.281 . S
C183 O196 1.236 . S
C184 O206 1.240 . S
C184 O207 1.264 . S
O185 Mn180 2.095 . S
O185 C194 1.250 . S
O186 Mn181 2.121 . S
O186 C194 1.258 1_556 S
C187 N188 1.326 . S
C187 C191 1.460 . S
C187 H193 0.929 . S
N188 Mn181 2.257 . S
N188 C187 1.326 . S
N188 C192 1.362 . S
C189 C190 1.258 . S
C189 C192 1.431 . S
C189 C209 1.449 . S
C190 C189 1.258 . S
C190 C191 1.477 . S
C190 H210 0.931 . S
C191 C187 1.460 . S
C191 C190 1.477 . S
C191 H211 0.930 . S
C192 N188 1.362 . S
C192 C189 1.431 . S
C192 C202 1.476 . S
H193 C187 0.929 . S
C194 O185 1.250 . S
C194 O186 1.258 1_554 S
O195 Mn180 2.162 . S
O195 C183 1.281 . S
O196 Mn180 2.297 . S
O196 C183 1.236 . S
N197 Mn181 2.282 . S
N197 C198 1.328 . S
N197 C202 1.318 . S
C198 N197 1.328 . S
C198 C199 1.457 . S
C198 H203 0.929 . S
C199 C198 1.457 . S
C199 C200 1.291 . S
C199 H212 0.931 . S
C200 C199 1.291 . S
C200 C201 1.373 . S
C200 H213 0.929 . S
C201 C200 1.373 . S
C201 C202 1.396 . S
C201 C208 1.403 . S
C202 C192 1.476 . S
C202 N197 1.318 . S
C202 C201 1.396 . S
H203 C198 0.929 . S
O204 Mn180 2.385 . S
O204 C182 1.234 . S
O205 Mn180 2.209 . S
O205 Mn181 2.215 1_554 S
O205 C182 1.283 . S
O206 Mn180 2.094 . S
O206 C184 1.240 . S
O207 Mn181 2.117 1_554 S
O207 C184 1.264 . S
C208 C201 1.403 . S
C208 C209 1.399 . S
C208 H214 0.929 . S
C209 C189 1.449 . S
C209 C208 1.399 . S
C209 H215 0.930 . S
H210 C190 0.931 . S
H211 C191 0.930 . S
H212 C199 0.931 . S
H213 C200 0.929 . S
H214 C208 0.929 . S
H215 C209 0.930 . S
Mn216 O221 2.095 . S
Mn216 O231 2.162 . S
Mn216 O232 2.297 . S
Mn216 O240 2.385 . S
Mn216 O241 2.209 . S
Mn216 O242 2.094 . S
Mn217 O222 2.121 . S
Mn217 N224 2.257 . S
Mn217 N233 2.282 . S
Mn217 O241 2.215 1_554 S
Mn217 O243 2.117 1_554 S
C218 O240 1.234 . S
C218 O241 1.283 . S
C219 O231 1.281 . S
C219 O232 1.236 . S
C220 O242 1.240 . S
C220 O243 1.264 . S
O221 Mn216 2.095 . S
O221 C230 1.250 . S
O222 Mn217 2.121 . S
O222 C230 1.258 1_554 S
C223 N224 1.326 . S
C223 C227 1.460 . S
C223 H229 0.929 . S
N224 Mn217 2.257 . S
N224 C223 1.326 . S
N224 C228 1.362 . S
C225 C226 1.258 . S
C225 C228 1.431 . S
C225 C245 1.449 . S
C226 C225 1.258 . S
C226 C227 1.477 . S
C226 H246 0.931 . S
C227 C223 1.460 . S
C227 C226 1.477 . S
C227 H247 0.930 . S
C228 N224 1.362 . S
C228 C225 1.431 . S
C228 C238 1.476 . S
H229 C223 0.929 . S
C230 O221 1.250 . S
C230 O222 1.258 1_556 S
O231 Mn216 2.162 . S
O231 C219 1.281 . S
O232 Mn216 2.297 . S
O232 C219 1.236 . S
N233 Mn217 2.282 . S
N233 C234 1.328 . S
N233 C238 1.318 . S
C234 N233 1.328 . S
C234 C235 1.457 . S
C234 H239 0.929 . S
C235 C234 1.457 . S
C235 C236 1.291 . S
C235 H248 0.931 . S
C236 C235 1.291 . S
C236 C237 1.373 . S
C236 H249 0.929 . S
C237 C236 1.373 . S
C237 C238 1.396 . S
C237 C244 1.403 . S
C238 C228 1.476 . S
C238 N233 1.318 . S
C238 C237 1.396 . S
H239 C234 0.929 . S
O240 Mn216 2.385 . S
O240 C218 1.234 . S
O241 Mn216 2.209 . S
O241 Mn217 2.215 1_556 S
O241 C218 1.283 . S
O242 Mn216 2.094 . S
O242 C220 1.240 . S
O243 Mn217 2.117 1_556 S
O243 C220 1.264 . S
C244 C237 1.403 . S
C244 C245 1.399 . S
C244 H250 0.929 . S
C245 C225 1.449 . S
C245 C244 1.399 . S
C245 H251 0.930 . S
H246 C226 0.931 . S
H247 C227 0.930 . S
H248 C235 0.931 . S
H249 C236 0.929 . S
H250 C244 0.929 . S
H251 C245 0.930 . S
Mn252 O257 2.095 . S
Mn252 O267 2.162 . S
Mn252 O268 2.297 . S
Mn252 O276 2.385 . S
Mn252 O277 2.209 . S
Mn252 O278 2.094 . S
Mn253 O258 2.121 . S
Mn253 N260 2.257 . S
Mn253 N269 2.282 . S
Mn253 O277 2.215 1_556 S
Mn253 O279 2.117 1_556 S
C254 O276 1.234 . S
C254 O277 1.283 . S
C255 O267 1.281 . S
C255 O268 1.236 . S
C256 O278 1.240 . S
C256 O279 1.264 . S
O257 Mn252 2.095 . S
O257 C266 1.250 . S
O258 Mn253 2.121 . S
O258 C266 1.258 1_556 S
C259 N260 1.326 . S
C259 C263 1.460 . S
C259 H265 0.929 . S
N260 Mn253 2.257 . S
N260 C259 1.326 . S
N260 C264 1.362 . S
C261 C262 1.258 . S
C261 C264 1.431 . S
C261 C281 1.449 . S
C262 C261 1.258 . S
C262 C263 1.477 . S
C262 H282 0.931 . S
C263 C259 1.460 . S
C263 C262 1.477 . S
C263 H283 0.930 . S
C264 N260 1.362 . S
C264 C261 1.431 . S
C264 C274 1.476 . S
H265 C259 0.929 . S
C266 O257 1.250 . S
C266 O258 1.258 1_554 S
O267 Mn252 2.162 . S
O267 C255 1.281 . S
O268 Mn252 2.297 . S
O268 C255 1.236 . S
N269 Mn253 2.282 . S
N269 C270 1.328 . S
N269 C274 1.318 . S
C270 N269 1.328 . S
C270 C271 1.457 . S
C270 H275 0.929 . S
C271 C270 1.457 . S
C271 C272 1.291 . S
C271 H284 0.931 . S
C272 C271 1.291 . S
C272 C273 1.373 . S
C272 H285 0.929 . S
C273 C272 1.373 . S
C273 C274 1.396 . S
C273 C280 1.403 . S
C274 C264 1.476 . S
C274 N269 1.318 . S
C274 C273 1.396 . S
H275 C270 0.929 . S
O276 Mn252 2.385 . S
O276 C254 1.234 . S
O277 Mn252 2.209 . S
O277 Mn253 2.215 1_554 S
O277 C254 1.283 . S
O278 Mn252 2.094 . S
O278 C256 1.240 . S
O279 Mn253 2.117 1_554 S
O279 C256 1.264 . S
C280 C273 1.403 . S
C280 C281 1.399 . S
C280 H286 0.929 . S
C281 C261 1.449 . S
C281 C280 1.399 . S
C281 H287 0.930 . S
H282 C262 0.931 . S
H283 C263 0.930 . S
H284 C271 0.931 . S
H285 C272 0.929 . S
H286 C280 0.929 . S
H287 C281 0.930 . S
C288 C289 1.349 . S
C288 C290 1.327 . S
C288 H313 0.950 . S
C289 C288 1.349 . S
C289 C305 1.349 . S
C290 C288 1.327 . S
C290 C309 1.429 . S
C290 H314 0.950 . S
C291 C308 1.574 . S
C291 C310 1.368 . S
C291 H315 0.949 . S
H292 C296 0.949 . S
C293 C294 1.349 . S
C293 C295 1.327 . S
C293 H316 0.950 . S
C294 C293 1.349 . S
C294 C306 1.349 . S
C295 C293 1.327 . S
C295 C311 1.429 . S
C295 H317 0.950 . S
C296 H292 0.949 . S
C296 C304 1.574 . S
C296 C312 1.368 . S
H297 C305 0.950 . S
H298 C303 0.950 . S
H299 C304 0.949 . S
H300 C306 0.950 . S
H301 C307 0.950 . S
H302 C308 0.949 . S
C303 H298 0.950 . S
C303 C305 1.327 . S
C303 C309 1.429 . S
C304 C296 1.574 . S
C304 H299 0.949 . S
C304 C310 1.368 . S
C305 C289 1.349 . S
C305 H297 0.950 . S
C305 C303 1.327 . S
C306 C294 1.349 . S
C306 H300 0.950 . S
C306 C307 1.327 . S
C307 H301 0.950 . S
C307 C306 1.327 . S
C307 C311 1.429 . S
C308 C291 1.574 . S
C308 H302 0.949 . S
C308 C312 1.368 . S
C309 C290 1.429 . S
C309 C303 1.429 . S
C309 C310 1.523 . S
C310 C291 1.368 . S
C310 C304 1.368 . S
C310 C309 1.523 . S
C311 C295 1.429 . S
C311 C307 1.429 . S
C311 C312 1.523 . S
C312 C296 1.368 . S
C312 C308 1.368 . S
C312 C311 1.523 . S
H313 C288 0.950 . S
H314 C290 0.950 . S
H315 C291 0.949 . S
H316 C293 0.950 . S
H317 C295 0.950 . S
C318 C319 1.349 . S
C318 C320 1.327 . S
C318 H343 0.950 . S
C319 C318 1.349 . S
C319 C335 1.349 . S
C320 C318 1.327 . S
C320 C339 1.429 . S
C320 H344 0.950 . S
C321 C338 1.574 . S
C321 C340 1.368 . S
C321 H345 0.949 . S
H322 C326 0.949 . S
C323 C324 1.349 . S
C323 C325 1.327 . S
C323 H346 0.950 . S
C324 C323 1.349 . S
C324 C336 1.349 . S
C325 C323 1.327 . S
C325 C341 1.429 . S
C325 H347 0.950 . S
C326 H322 0.949 . S
C326 C334 1.574 . S
C326 C342 1.368 . S
H327 C335 0.950 . S
H328 C333 0.950 . S
H329 C334 0.949 . S
H330 C336 0.950 . S
H331 C337 0.950 . S
H332 C338 0.949 . S
C333 H328 0.950 . S
C333 C335 1.327 . S
C333 C339 1.429 . S
C334 C326 1.574 . S
C334 H329 0.949 . S
C334 C340 1.368 . S
C335 C319 1.349 . S
C335 H327 0.950 . S
C335 C333 1.327 . S
C336 C324 1.349 . S
C336 H330 0.950 . S
C336 C337 1.327 . S
C337 H331 0.950 . S
C337 C336 1.327 . S
C337 C341 1.429 . S
C338 C321 1.574 . S
C338 H332 0.949 . S
C338 C342 1.368 . S
C339 C320 1.429 . S
C339 C333 1.429 . S
C339 C340 1.523 . S
C340 C321 1.368 . S
C340 C334 1.368 . S
C340 C339 1.523 . S
C341 C325 1.429 . S
C341 C337 1.429 . S
C341 C342 1.523 . S
C342 C326 1.368 . S
C342 C338 1.368 . S
C342 C341 1.523 . S
H343 C318 0.950 . S
H344 C320 0.950 . S
H345 C321 0.949 . S
H346 C323 0.950 . S
H347 C325 0.950 . S
C348 C349 1.349 . S
C348 C350 1.327 . S
C348 H373 0.950 . S
C349 C348 1.349 . S
C349 C365 1.349 . S
C350 C348 1.327 . S
C350 C369 1.429 . S
C350 H374 0.950 . S
C351 C368 1.574 . S
C351 C370 1.368 . S
C351 H375 0.949 . S
H352 C356 0.949 . S
C353 C354 1.349 . S
C353 C355 1.327 . S
C353 H376 0.950 . S
C354 C353 1.349 . S
C354 C366 1.349 . S
C355 C353 1.327 . S
C355 C371 1.429 . S
C355 H377 0.950 . S
C356 H352 0.949 . S
C356 C364 1.574 . S
C356 C372 1.368 . S
H357 C365 0.950 . S
H358 C363 0.950 . S
H359 C364 0.949 . S
H360 C366 0.950 . S
H361 C367 0.950 . S
H362 C368 0.949 . S
C363 H358 0.950 . S
C363 C365 1.327 . S
C363 C369 1.429 . S
C364 C356 1.574 . S
C364 H359 0.949 . S
C364 C370 1.368 . S
C365 C349 1.349 . S
C365 H357 0.950 . S
C365 C363 1.327 . S
C366 C354 1.349 . S
C366 H360 0.950 . S
C366 C367 1.327 . S
C367 H361 0.950 . S
C367 C366 1.327 . S
C367 C371 1.429 . S
C368 C351 1.574 . S
C368 H362 0.949 . S
C368 C372 1.368 . S
C369 C350 1.429 . S
C369 C363 1.429 . S
C369 C370 1.523 . S
C370 C351 1.368 . S
C370 C364 1.368 . S
C370 C369 1.523 . S
C371 C355 1.429 . S
C371 C367 1.429 . S
C371 C372 1.523 . S
C372 C356 1.368 . S
C372 C368 1.368 . S
C372 C371 1.523 . S
H373 C348 0.950 . S
H374 C350 0.950 . S
H375 C351 0.949 . S
H376 C353 0.950 . S
H377 C355 0.950 . S
C378 C379 1.349 . S
C378 C380 1.327 . S
C378 H403 0.950 . S
C379 C378 1.349 . S
C379 C395 1.349 . S
C380 C378 1.327 . S
C380 C399 1.429 . S
C380 H404 0.950 . S
C381 C398 1.574 . S
C381 C400 1.368 . S
C381 H405 0.949 . S
H382 C386 0.949 . S
C383 C384 1.349 . S
C383 C385 1.327 . S
C383 H406 0.950 . S
C384 C383 1.349 . S
C384 C396 1.349 . S
C385 C383 1.327 . S
C385 C401 1.429 . S
C385 H407 0.950 . S
C386 H382 0.949 . S
C386 C394 1.574 . S
C386 C402 1.368 . S
H387 C395 0.950 . S
H388 C393 0.950 . S
H389 C394 0.949 . S
H390 C396 0.950 . S
H391 C397 0.950 . S
H392 C398 0.949 . S
C393 H388 0.950 . S
C393 C395 1.327 . S
C393 C399 1.429 . S
C394 C386 1.574 . S
C394 H389 0.949 . S
C394 C400 1.368 . S
C395 C379 1.349 . S
C395 H387 0.950 . S
C395 C393 1.327 . S
C396 C384 1.349 . S
C396 H390 0.950 . S
C396 C397 1.327 . S
C397 H391 0.950 . S
C397 C396 1.327 . S
C397 C401 1.429 . S
C398 C381 1.574 . S
C398 H392 0.949 . S
C398 C402 1.368 . S
C399 C380 1.429 . S
C399 C393 1.429 . S
C399 C400 1.523 . S
C400 C381 1.368 . S
C400 C394 1.368 . S
C400 C399 1.523 . S
C401 C385 1.429 . S
C401 C397 1.429 . S
C401 C402 1.523 . S
C402 C386 1.368 . S
C402 C398 1.368 . S
C402 C401 1.523 . S
H403 C378 0.950 . S
H404 C380 0.950 . S
H405 C381 0.949 . S
H406 C383 0.950 . S
H407 C385 0.950 . S
C408 C409 1.349 . S
C408 C410 1.327 . S
C408 H433 0.950 . S
C409 C408 1.349 . S
C409 C425 1.349 . S
C410 C408 1.327 . S
C410 C429 1.429 . S
C410 H434 0.950 . S
C411 C428 1.574 . S
C411 C430 1.368 . S
C411 H435 0.949 . S
H412 C416 0.949 . S
C413 C414 1.349 . S
C413 C415 1.327 . S
C413 H436 0.950 . S
C414 C413 1.349 . S
C414 C426 1.349 . S
C415 C413 1.327 . S
C415 C431 1.429 . S
C415 H437 0.950 . S
C416 H412 0.949 . S
C416 C424 1.574 . S
C416 C432 1.368 . S
H417 C425 0.950 . S
H418 C423 0.950 . S
H419 C424 0.949 . S
H420 C426 0.950 . S
H421 C427 0.950 . S
H422 C428 0.949 . S
C423 H418 0.950 . S
C423 C425 1.327 . S
C423 C429 1.429 . S
C424 C416 1.574 . S
C424 H419 0.949 . S
C424 C430 1.368 . S
C425 C409 1.349 . S
C425 H417 0.950 . S
C425 C423 1.327 . S
C426 C414 1.349 . S
C426 H420 0.950 . S
C426 C427 1.327 . S
C427 H421 0.950 . S
C427 C426 1.327 . S
C427 C431 1.429 . S
C428 C411 1.574 . S
C428 H422 0.949 . S
C428 C432 1.368 . S
C429 C410 1.429 . S
C429 C423 1.429 . S
C429 C430 1.523 . S
C430 C411 1.368 . S
C430 C424 1.368 . S
C430 C429 1.523 . S
C431 C415 1.429 . S
C431 C427 1.429 . S
C431 C432 1.523 . S
C432 C416 1.368 . S
C432 C428 1.368 . S
C432 C431 1.523 . S
H433 C408 0.950 . S
H434 C410 0.950 . S
H435 C411 0.949 . S
H436 C413 0.950 . S
H437 C415 0.950 . S
C438 C439 1.349 . S
C438 C440 1.327 . S
C438 H463 0.950 . S
C439 C438 1.349 . S
C439 C455 1.349 . S
C440 C438 1.327 . S
C440 C459 1.429 . S
C440 H464 0.950 . S
C441 C458 1.574 . S
C441 C460 1.368 . S
C441 H465 0.949 . S
H442 C446 0.949 . S
C443 C444 1.349 . S
C443 C445 1.327 . S
C443 H466 0.950 . S
C444 C443 1.349 . S
C444 C456 1.349 . S
C445 C443 1.327 . S
C445 C461 1.429 . S
C445 H467 0.950 . S
C446 H442 0.949 . S
C446 C454 1.574 . S
C446 C462 1.368 . S
H447 C455 0.950 . S
H448 C453 0.950 . S
H449 C454 0.949 . S
H450 C456 0.950 . S
H451 C457 0.950 . S
H452 C458 0.949 . S
C453 H448 0.950 . S
C453 C455 1.327 . S
C453 C459 1.429 . S
C454 C446 1.574 . S
C454 H449 0.949 . S
C454 C460 1.368 . S
C455 C439 1.349 . S
C455 H447 0.950 . S
C455 C453 1.327 . S
C456 C444 1.349 . S
C456 H450 0.950 . S
C456 C457 1.327 . S
C457 H451 0.950 . S
C457 C456 1.327 . S
C457 C461 1.429 . S
C458 C441 1.574 . S
C458 H452 0.949 . S
C458 C462 1.368 . S
C459 C440 1.429 . S
C459 C453 1.429 . S
C459 C460 1.523 . S
C460 C441 1.368 . S
C460 C454 1.368 . S
C460 C459 1.523 . S
C461 C445 1.429 . S
C461 C457 1.429 . S
C461 C462 1.523 . S
C462 C446 1.368 . S
C462 C458 1.368 . S
C462 C461 1.523 . S
H463 C438 0.950 . S
H464 C440 0.950 . S
H465 C441 0.949 . S
H466 C443 0.950 . S
H467 C445 0.950 . S
C468 C469 1.349 . S
C468 C470 1.327 . S
C468 H493 0.950 . S
C469 C468 1.349 . S
C469 C485 1.349 . S
C470 C468 1.327 . S
C470 C489 1.429 . S
C470 H494 0.950 . S
C471 C488 1.574 . S
C471 C490 1.368 . S
C471 H495 0.949 . S
H472 C476 0.949 . S
C473 C474 1.349 . S
C473 C475 1.327 . S
C473 H496 0.950 . S
C474 C473 1.349 . S
C474 C486 1.349 . S
C475 C473 1.327 . S
C475 C491 1.429 . S
C475 H497 0.950 . S
C476 H472 0.949 . S
C476 C484 1.574 . S
C476 C492 1.368 . S
H477 C485 0.950 . S
H478 C483 0.950 . S
H479 C484 0.949 . S
H480 C486 0.950 . S
H481 C487 0.950 . S
H482 C488 0.949 . S
C483 H478 0.950 . S
C483 C485 1.327 . S
C483 C489 1.429 . S
C484 C476 1.574 . S
C484 H479 0.949 . S
C484 C490 1.368 . S
C485 C469 1.349 . S
C485 H477 0.950 . S
C485 C483 1.327 . S
C486 C474 1.349 . S
C486 H480 0.950 . S
C486 C487 1.327 . S
C487 H481 0.950 . S
C487 C486 1.327 . S
C487 C491 1.429 . S
C488 C471 1.574 . S
C488 H482 0.949 . S
C488 C492 1.368 . S
C489 C470 1.429 . S
C489 C483 1.429 . S
C489 C490 1.523 . S
C490 C471 1.368 . S
C490 C484 1.368 . S
C490 C489 1.523 . S
C491 C475 1.429 . S
C491 C487 1.429 . S
C491 C492 1.523 . S
C492 C476 1.368 . S
C492 C488 1.368 . S
C492 C491 1.523 . S
H493 C468 0.950 . S
H494 C470 0.950 . S
H495 C471 0.949 . S
H496 C473 0.950 . S
H497 C475 0.950 . S
C498 C499 1.349 . S
C498 C500 1.327 . S
C498 H523 0.950 . S
C499 C498 1.349 . S
C499 C515 1.349 . S
C500 C498 1.327 . S
C500 C519 1.429 . S
C500 H524 0.950 . S
C501 C518 1.574 . S
C501 C520 1.368 . S
C501 H525 0.949 . S
H502 C506 0.949 . S
C503 C504 1.349 . S
C503 C505 1.327 . S
C503 H526 0.950 . S
C504 C503 1.349 . S
C504 C516 1.349 . S
C505 C503 1.327 . S
C505 C521 1.429 . S
C505 H527 0.950 . S
C506 H502 0.949 . S
C506 C514 1.574 . S
C506 C522 1.368 . S
H507 C515 0.950 . S
H508 C513 0.950 . S
H509 C514 0.949 . S
H510 C516 0.950 . S
H511 C517 0.950 . S
H512 C518 0.949 . S
C513 H508 0.950 . S
C513 C515 1.327 . S
C513 C519 1.429 . S
C514 C506 1.574 . S
C514 H509 0.949 . S
C514 C520 1.368 . S
C515 C499 1.349 . S
C515 H507 0.950 . S
C515 C513 1.327 . S
C516 C504 1.349 . S
C516 H510 0.950 . S
C516 C517 1.327 . S
C517 H511 0.950 . S
C517 C516 1.327 . S
C517 C521 1.429 . S
C518 C501 1.574 . S
C518 H512 0.949 . S
C518 C522 1.368 . S
C519 C500 1.429 . S
C519 C513 1.429 . S
C519 C520 1.523 . S
C520 C501 1.368 . S
C520 C514 1.368 . S
C520 C519 1.523 . S
C521 C505 1.429 . S
C521 C517 1.429 . S
C521 C522 1.523 . S
C522 C506 1.368 . S
C522 C518 1.368 . S
C522 C521 1.523 . S
H523 C498 0.950 . S
H524 C500 0.950 . S
H525 C501 0.949 . S
H526 C503 0.950 . S
H527 C505 0.950 . S
C528 C529 1.349 1_556 S
C528 C530 1.327 . S
C528 H553 0.950 . S
C529 C528 1.349 1_554 S
C529 C545 1.349 . S
C530 C528 1.327 . S
C530 C549 1.429 1_556 S
C530 H554 0.950 . S
C531 C548 1.574 . S
C531 C550 1.368 . S
C531 H555 0.949 . S
H532 C536 0.949 . S
C533 C534 1.349 1_554 S
C533 C535 1.327 . S
C533 H556 0.950 . S
C534 C533 1.349 1_556 S
C534 C546 1.349 . S
C535 C533 1.327 . S
C535 C551 1.429 1_554 S
C535 H557 0.950 . S
C536 H532 0.949 . S
C536 C544 1.574 . S
C536 C552 1.368 . S
H537 C545 0.950 . S
H538 C543 0.950 . S
H539 C544 0.949 . S
H540 C546 0.950 . S
H541 C547 0.950 . S
H542 C548 0.949 . S
C543 H538 0.950 . S
C543 C545 1.327 . S
C543 C549 1.429 . S
C544 C536 1.574 . S
C544 H539 0.949 . S
C544 C550 1.368 1_556 S
C545 C529 1.349 . S
C545 H537 0.950 . S
C545 C543 1.327 . S
C546 C534 1.349 . S
C546 H540 0.950 . S
C546 C547 1.327 . S
C547 H541 0.950 . S
C547 C546 1.327 . S
C547 C551 1.429 . S
C548 C531 1.574 . S
C548 H542 0.949 . S
C548 C552 1.368 1_554 S
C549 C530 1.429 1_554 S
C549 C543 1.429 . S
C549 C550 1.523 . S
C550 C531 1.368 . S
C550 C544 1.368 1_554 S
C550 C549 1.523 . S
C551 C535 1.429 1_556 S
C551 C547 1.429 . S
C551 C552 1.523 . S
C552 C536 1.368 . S
C552 C548 1.368 1_556 S
C552 C551 1.523 . S
H553 C528 0.950 . S
H554 C530 0.950 . S
H555 C531 0.949 . S
H556 C533 0.950 . S
H557 C535 0.950 . S
C558 C559 1.349 . S
C558 C560 1.327 . S
C558 H583 0.950 . S
C559 C558 1.349 . S
C559 C575 1.349 1_554 S
C560 C558 1.327 . S
C560 C579 1.429 . S
C560 H584 0.950 . S
C561 C578 1.574 . S
C561 C580 1.368 1_556 S
C561 H585 0.949 . S
H562 C566 0.949 . S
C563 C564 1.349 . S
C563 C565 1.327 . S
C563 H586 0.950 . S
C564 C563 1.349 . S
C564 C576 1.319 1_556 S
C565 C563 1.327 . S
C565 C581 1.429 . S
C565 H587 0.950 . S
C566 H562 0.949 . S
C566 C574 1.574 . S
C566 C582 1.368 1_554 S
H567 C575 0.950 . S
H568 C573 0.950 . S
H569 C574 0.949 . S
H570 C576 0.974 . S
H571 C577 0.950 . S
H572 C578 0.949 . S
C573 H568 0.950 . S
C573 C575 1.327 . S
C573 C579 1.429 1_556 S
C574 C566 1.574 . S
C574 H569 0.949 . S
C574 C580 1.368 . S
C575 C559 1.349 1_556 S
C575 H567 0.950 . S
C575 C573 1.327 . S
C576 C564 1.319 1_554 S
C576 H570 0.974 . S
C576 C577 1.334 . S
C577 H571 0.950 . S
C577 C576 1.334 . S
C577 C581 1.429 1_554 S
C578 C561 1.574 . S
C578 H572 0.949 . S
C578 C582 1.368 . S
C579 C560 1.429 . S
C579 C573 1.429 1_554 S
C579 C580 1.523 . S
C580 C561 1.368 1_554 S
C580 C574 1.368 . S
C580 C579 1.523 . S
C581 C565 1.429 . S
C581 C577 1.429 1_556 S
C581 C582 1.523 . S
C582 C566 1.368 1_556 S
C582 C578 1.368 . S
C582 C581 1.523 . S
H583 C558 0.950 . S
H584 C560 0.950 . S
H585 C561 0.949 . S
H586 C563 0.950 . S
H587 C565 0.950 . S
C588 C589 1.349 . S
C588 C590 1.327 . S
C588 H613 0.950 . S
C589 C588 1.349 . S
C589 C605 1.349 1_554 S
C590 C588 1.327 . S
C590 C609 1.429 . S
C590 H614 0.950 . S
C591 C608 1.574 . S
C591 C610 1.368 1_556 S
C591 H615 0.949 . S
H592 C596 0.949 . S
C593 C594 1.349 . S
C593 C595 1.327 . S
C593 H616 0.950 . S
C594 C593 1.349 . S
C594 C606 1.349 1_556 S
C595 C593 1.327 . S
C595 C611 1.429 . S
C595 H617 0.950 . S
C596 H592 0.949 . S
C596 C604 1.574 . S
C596 C612 1.368 1_554 S
H597 C605 0.950 . S
H598 C603 0.950 . S
H599 C604 0.949 . S
H600 C606 0.950 . S
H601 C607 0.950 . S
H602 C608 0.949 . S
C603 H598 0.950 . S
C603 C605 1.327 . S
C603 C609 1.429 1_556 S
C604 C596 1.574 . S
C604 H599 0.949 . S
C604 C610 1.368 . S
C605 C589 1.349 1_556 S
C605 H597 0.950 . S
C605 C603 1.327 . S
C606 C594 1.349 1_554 S
C606 H600 0.950 . S
C606 C607 1.327 . S
C607 H601 0.950 . S
C607 C606 1.327 . S
C607 C611 1.429 1_554 S
C608 C591 1.574 . S
C608 H602 0.949 . S
C608 C612 1.368 . S
C609 C590 1.429 . S
C609 C603 1.429 1_554 S
C609 C610 1.523 . S
C610 C591 1.368 1_554 S
C610 C604 1.368 . S
C610 C609 1.523 . S
C611 C595 1.429 . S
C611 C607 1.429 1_556 S
C611 C612 1.523 . S
C612 C596 1.368 1_556 S
C612 C608 1.368 . S
C612 C611 1.523 . S
H613 C588 0.950 . S
H614 C590 0.950 . S
H615 C591 0.949 . S
H616 C593 0.950 . S
H617 C595 0.950 . S
C618 C619 1.349 1_554 S
C618 C620 1.327 . S
C618 H643 0.950 . S
C619 C618 1.349 1_556 S
C619 C635 1.349 . S
C620 C618 1.327 . S
C620 C639 1.429 1_554 S
C620 H644 0.950 . S
C621 C638 1.574 . S
C621 C640 1.368 . S
C621 H645 0.949 . S
H622 C626 0.949 . S
C623 C624 1.349 1_556 S
C623 C625 1.327 . S
C623 H646 0.950 . S
C624 C623 1.349 1_554 S
C624 C636 1.349 . S
C625 C623 1.327 . S
C625 C641 1.429 1_556 S
C625 H647 0.950 . S
C626 H622 0.949 . S
C626 C634 1.574 . S
C626 C642 1.368 . S
H627 C635 0.950 . S
H628 C633 0.950 . S
H629 C634 0.949 . S
H630 C636 0.950 . S
H631 C637 0.950 . S
H632 C638 0.949 . S
C633 H628 0.950 . S
C633 C635 1.327 . S
C633 C639 1.429 . S
C634 C626 1.574 . S
C634 H629 0.949 . S
C634 C640 1.368 1_554 S
C635 C619 1.349 . S
C635 H627 0.950 . S
C635 C633 1.327 . S
C636 C624 1.349 . S
C636 H630 0.950 . S
C636 C637 1.327 . S
C637 H631 0.950 . S
C637 C636 1.327 . S
C637 C641 1.429 . S
C638 C621 1.574 . S
C638 H632 0.949 . S
C638 C642 1.368 1_556 S
C639 C620 1.429 1_556 S
C639 C633 1.429 . S
C639 C640 1.523 . S
C640 C621 1.368 . S
C640 C634 1.368 1_556 S
C640 C639 1.523 . S
C641 C625 1.429 1_554 S
C641 C637 1.429 . S
C641 C642 1.523 . S
C642 C626 1.368 . S
C642 C638 1.368 1_554 S
C642 C641 1.523 . S
H643 C618 0.950 . S
H644 C620 0.950 . S
H645 C621 0.949 . S
H646 C623 0.950 . S
H647 C625 0.950 . S
C648 C649 1.349 . S
C648 C650 1.327 . S
C648 H673 0.950 . S
C649 C648 1.349 . S
C649 C665 1.349 . S
C650 C648 1.327 . S
C650 C669 1.429 . S
C650 H674 0.950 . S
C651 C668 1.574 . S
C651 C670 1.368 1_455 S
C651 H675 0.949 . S
H652 C656 0.949 . S
C653 C654 1.349 . S
C653 C655 1.327 . S
C653 H676 0.950 . S
C654 C653 1.349 . S
C654 C666 1.349 . S
C655 C653 1.327 . S
C655 C671 1.429 . S
C655 H677 0.950 . S
C656 H652 0.949 . S
C656 C664 1.574 . S
C656 C672 1.368 1_655 S
H657 C665 0.950 . S
H658 C663 0.950 . S
H659 C664 0.949 . S
H660 C666 0.950 . S
H661 C667 0.950 . S
H662 C668 0.949 . S
C663 H658 0.950 . S
C663 C665 1.327 . S
C663 C669 1.429 . S
C664 C656 1.574 . S
C664 H659 0.949 . S
C664 C670 1.368 . S
C665 C649 1.349 . S
C665 H657 0.950 . S
C665 C663 1.327 . S
C666 C654 1.349 . S
C666 H660 0.950 . S
C666 C667 1.327 . S
C667 H661 0.950 . S
C667 C666 1.327 . S
C667 C671 1.429 . S
C668 C651 1.574 . S
C668 H662 0.949 . S
C668 C672 1.368 . S
C669 C650 1.429 . S
C669 C663 1.429 . S
C669 C670 1.523 . S
C670 C651 1.368 1_655 S
C670 C664 1.368 . S
C670 C669 1.523 . S
C671 C655 1.429 . S
C671 C667 1.429 . S
C671 C672 1.523 . S
C672 C656 1.368 1_455 S
C672 C668 1.368 . S
C672 C671 1.523 . S
H673 C648 0.950 . S
H674 C650 0.950 . S
H675 C651 0.949 . S
H676 C653 0.950 . S
H677 C655 0.950 . S
C678 C679 1.349 . S
C678 C680 1.327 . S
C678 H703 0.950 . S
C679 C678 1.349 . S
C679 C695 1.349 . S
C680 C678 1.327 . S
C680 C699 1.429 . S
C680 H704 0.950 . S
C681 C698 1.574 . S
C681 C700 1.368 1_565 S
C681 H705 0.949 . S
H682 C686 0.949 . S
C683 C684 1.349 . S
C683 C685 1.327 . S
C683 H706 0.950 . S
C684 C683 1.349 . S
C684 C696 1.349 . S
C685 C683 1.327 . S
C685 C701 1.429 . S
C685 H707 0.950 . S
C686 H682 0.949 . S
C686 C694 1.574 . S
C686 C702 1.368 1_545 S
H687 C695 0.950 . S
H688 C693 0.950 . S
H689 C694 0.949 . S
H690 C696 0.950 . S
H691 C697 0.950 . S
H692 C698 0.949 . S
C693 H688 0.950 . S
C693 C695 1.327 . S
C693 C699 1.429 . S
C694 C686 1.574 . S
C694 H689 0.949 . S
C694 C700 1.368 . S
C695 C679 1.349 . S
C695 H687 0.950 . S
C695 C693 1.327 . S
C696 C684 1.349 . S
C696 H690 0.950 . S
C696 C697 1.327 . S
C697 H691 0.950 . S
C697 C696 1.327 . S
C697 C701 1.429 . S
C698 C681 1.574 . S
C698 H692 0.949 . S
C698 C702 1.368 . S
C699 C680 1.429 . S
C699 C693 1.429 . S
C699 C700 1.523 . S
C700 C681 1.368 1_545 S
C700 C694 1.368 . S
C700 C699 1.523 . S
C701 C685 1.429 . S
C701 C697 1.429 . S
C701 C702 1.523 . S
C702 C686 1.368 1_565 S
C702 C698 1.368 . S
C702 C701 1.523 . S
H703 C678 0.950 . S
H704 C680 0.950 . S
H705 C681 0.949 . S
H706 C683 0.950 . S
H707 C685 0.950 . S
C708 C709 1.349 . S
C708 C710 1.327 . S
C708 H733 0.950 1_556 S
C709 C708 1.349 . S
C709 C725 1.349 . S
C710 C708 1.327 . S
C710 C729 1.429 . S
C710 H734 0.950 1_556 S
C711 C728 1.574 1_545 S
C711 C730 1.368 . S
C711 H735 0.949 . S
H712 C716 0.937 1_554 S
C713 C714 1.349 . S
C713 C715 1.327 . S
C713 H736 0.950 . S
C714 C713 1.349 . S
C714 C726 1.349 . S
C715 C713 1.327 . S
C715 C731 1.429 . S
C715 H737 0.950 . S
C716 H712 0.937 1_556 S
C716 C724 1.574 1_565 S
C716 C732 1.382 . S
H717 C725 0.950 . S
H718 C723 0.950 . S
H719 C724 0.937 1_554 S
H720 C726 0.950 1_554 S
H721 C727 0.950 1_554 S
H722 C728 0.949 . S
C723 H718 0.950 . S
C723 C725 1.327 . S
C723 C729 1.429 . S
C724 C716 1.574 1_545 S
C724 H719 0.937 1_556 S
C724 C730 1.382 . S
C725 C709 1.349 . S
C725 H717 0.950 . S
C725 C723 1.327 . S
C726 C714 1.349 . S
C726 H720 0.950 1_556 S
C726 C727 1.327 . S
C727 H721 0.950 1_556 S
C727 C726 1.327 . S
C727 C731 1.429 . S
C728 C711 1.574 1_565 S
C728 H722 0.949 . S
C728 C732 1.368 . S
C729 C710 1.429 . S
C729 C723 1.429 . S
C729 C730 1.523 . S
C730 C711 1.368 . S
C730 C724 1.382 . S
C730 C729 1.523 . S
C731 C715 1.429 . S
C731 C727 1.429 . S
C731 C732 1.523 . S
C732 C716 1.382 . S
C732 C728 1.368 . S
C732 C731 1.523 . S
H733 C708 0.950 1_554 S
H734 C710 0.950 1_554 S
H735 C711 0.949 . S
H736 C713 0.950 . S
H737 C715 0.950 . S
C738 C739 1.349 . S
C738 C740 1.327 . S
C738 H763 0.950 . S
C739 C738 1.349 . S
C739 C755 1.349 . S
C740 C738 1.327 . S
C740 C759 1.429 . S
C740 H764 0.950 . S
C741 C758 1.574 1_455 S
C741 C760 1.382 . S
C741 H765 0.937 1_554 S
H742 C746 0.949 . S
C743 C744 1.349 . S
C743 C745 1.327 . S
C743 H766 0.950 1_554 S
C744 C743 1.349 . S
C744 C756 1.349 . S
C745 C743 1.327 . S
C745 C761 1.429 . S
C745 H767 0.950 1_554 S
C746 H742 0.949 . S
C746 C754 1.574 1_655 S
C746 C762 1.368 . S
H747 C755 0.950 1_556 S
H748 C753 0.950 1_556 S
H749 C754 0.949 . S
H750 C756 0.950 . S
H751 C757 0.950 . S
H752 C758 0.937 1_556 S
C753 H748 0.950 1_554 S
C753 C755 1.327 . S
C753 C759 1.429 . S
C754 C746 1.574 1_455 S
C754 H749 0.949 . S
C754 C760 1.368 . S
C755 C739 1.349 . S
C755 H747 0.950 1_554 S
C755 C753 1.327 . S
C756 C744 1.349 . S
C756 H750 0.950 . S
C756 C757 1.327 . S
C757 H751 0.950 . S
C757 C756 1.327 . S
C757 C761 1.429 . S
C758 C741 1.574 1_655 S
C758 H752 0.937 1_554 S
C758 C762 1.382 . S
C759 C740 1.429 . S
C759 C753 1.429 . S
C759 C760 1.523 . S
C760 C741 1.382 . S
C760 C754 1.368 . S
C760 C759 1.523 . S
C761 C745 1.429 . S
C761 C757 1.429 . S
C761 C762 1.523 . S
C762 C746 1.368 . S
C762 C758 1.382 . S
C762 C761 1.523 . S
H763 C738 0.950 . S
H764 C740 0.950 . S
H765 C741 0.937 1_556 S
H766 C743 0.950 1_556 S
H767 C745 0.950 1_556 S
C289 C255 1.554 . S
C294 C3 1.554 . S
C319 C39 1.554 . S
C324 C147 1.554 . S
C349 C75 1.554 . S
C354 C183 1.554 . S
C379 C219 1.554 . S
C384 C111 1.554 . S
C409 C40 1.389 1_545 S
C414 C14 1.339 . S
C439 C50 1.339 . S
C444 C76 1.389 1_455 S
C469 C112 1.389 1_565 S
C474 C86 1.339 . S
C499 C122 1.339 . S
C504 C4 1.389 1_655 S
C529 C256 1.389 . S
C534 C158 1.339 . S
C559 C194 1.339 . S
C564 C148 1.389 . S
C589 C184 1.389 . S
C594 C230 1.339 . S
C619 C220 1.389 . S
C624 C266 1.339 . S
C649 C74 0.720 . S
C654 C2 0.720 . S
C679 C110 0.720 . S
C684 C38 0.720 . S
C709 C218 0.720 . S
C714 C146 0.720 . S
C739 C254 0.720 . S
C744 C182 0.720 . S
