# Generated by pormake.
# Topology ulj, (4)-cn, num edge types: 1
# Building blocks:
#     Node 0, Type 0, BuildingBlock: ESEHIV_clean_sbu_0, # of connection points: 4
#     Node 1, Type 0, BuildingBlock: ESEHIV_clean_sbu_0, # of connection points: 4
#     Node 2, Type 0, BuildingBlock: ESEHIV_clean_sbu_0, # of connection points: 4
#     Node 3, Type 0, BuildingBlock: ESEHIV_clean_sbu_0, # of connection points: 4
#     Node 4, Type 0, BuildingBlock: ESEHIV_clean_sbu_0, # of connection points: 4
#     Node 5, Type 0, BuildingBlock: ESEHIV_clean_sbu_0, # of connection points: 4
#     Node 6, Type 0, BuildingBlock: ESEHIV_clean_sbu_0, # of connection points: 4
#     Node 7, Type 0, BuildingBlock: ESEHIV_clean_sbu_0, # of connection points: 4
#     Node 8, Type 0, BuildingBlock: ESEHIV_clean_sbu_0, # of connection points: 4
#     Node 9, Type 0, BuildingBlock: ESEHIV_clean_sbu_0, # of connection points: 4
#     Node 10, Type 0, BuildingBlock: ESEHIV_clean_sbu_0, # of connection points: 4
#     Node 11, Type 0, BuildingBlock: ESEHIV_clean_sbu_0, # of connection points: 4
#     Node 12, Type 0, BuildingBlock: ESEHIV_clean_sbu_0, # of connection points: 4
#     Node 13, Type 0, BuildingBlock: ESEHIV_clean_sbu_0, # of connection points: 4
#     Node 14, Type 0, BuildingBlock: ESEHIV_clean_sbu_0, # of connection points: 4
#     Node 15, Type 0, BuildingBlock: ESEHIV_clean_sbu_0, # of connection points: 4
#     Node 16, Type 0, BuildingBlock: ESEHIV_clean_sbu_0, # of connection points: 4
#     Node 17, Type 0, BuildingBlock: ESEHIV_clean_sbu_0, # of connection points: 4
#     Node 18, Type 0, BuildingBlock: ESEHIV_clean_sbu_0, # of connection points: 4
#     Node 19, Type 0, BuildingBlock: ESEHIV_clean_sbu_0, # of connection points: 4
#     Node 20, Type 0, BuildingBlock: ESEHIV_clean_sbu_0, # of connection points: 4
#     Node 21, Type 0, BuildingBlock: ESEHIV_clean_sbu_0, # of connection points: 4
#     Node 22, Type 0, BuildingBlock: ESEHIV_clean_sbu_0, # of connection points: 4
#     Node 23, Type 0, BuildingBlock: ESEHIV_clean_sbu_0, # of connection points: 4
#     Node 24, Type 0, BuildingBlock: ESEHIV_clean_sbu_0, # of connection points: 4
#     Node 25, Type 0, BuildingBlock: ESEHIV_clean_sbu_0, # of connection points: 4
#     Node 26, Type 0, BuildingBlock: ESEHIV_clean_sbu_0, # of connection points: 4
#     Node 27, Type 0, BuildingBlock: ESEHIV_clean_sbu_0, # of connection points: 4
#     Node 28, Type 0, BuildingBlock: ESEHIV_clean_sbu_0, # of connection points: 4
#     Node 29, Type 0, BuildingBlock: ESEHIV_clean_sbu_0, # of connection points: 4
#     Node 30, Type 0, BuildingBlock: ESEHIV_clean_sbu_0, # of connection points: 4
#     Node 31, Type 0, BuildingBlock: ESEHIV_clean_sbu_0, # of connection points: 4
#     Node 32, Type 0, BuildingBlock: ESEHIV_clean_sbu_0, # of connection points: 4
#     Node 33, Type 0, BuildingBlock: ESEHIV_clean_sbu_0, # of connection points: 4
#     Node 34, Type 0, BuildingBlock: ESEHIV_clean_sbu_0, # of connection points: 4
#     Node 35, Type 0, BuildingBlock: ESEHIV_clean_sbu_0, # of connection points: 4
#     Node 36, Type 0, BuildingBlock: ESEHIV_clean_sbu_0, # of connection points: 4
#     Node 37, Type 0, BuildingBlock: ESEHIV_clean_sbu_0, # of connection points: 4
#     Node 38, Type 0, BuildingBlock: ESEHIV_clean_sbu_0, # of connection points: 4
#     Node 39, Type 0, BuildingBlock: ESEHIV_clean_sbu_0, # of connection points: 4
#     Node 40, Type 0, BuildingBlock: ESEHIV_clean_sbu_0, # of connection points: 4
#     Node 41, Type 0, BuildingBlock: ESEHIV_clean_sbu_0, # of connection points: 4
#     Node 42, Type 0, BuildingBlock: ESEHIV_clean_sbu_0, # of connection points: 4
#     Node 43, Type 0, BuildingBlock: ESEHIV_clean_sbu_0, # of connection points: 4
#     Node 44, Type 0, BuildingBlock: ESEHIV_clean_sbu_0, # of connection points: 4
#     Node 45, Type 0, BuildingBlock: ESEHIV_clean_sbu_0, # of connection points: 4
#     Node 46, Type 0, BuildingBlock: ESEHIV_clean_sbu_0, # of connection points: 4
#     Node 47, Type 0, BuildingBlock: ESEHIV_clean_sbu_0, # of connection points: 4
#     Edge 48, Type (0, 0), BuildingBlock: UVAHIK_clean_linker_0, # of connection points: 2
#     Edge 49, Type (0, 0), BuildingBlock: UVAHIK_clean_linker_0, # of connection points: 2
#     Edge 50, Type (0, 0), BuildingBlock: UVAHIK_clean_linker_0, # of connection points: 2
#     Edge 51, Type (0, 0), BuildingBlock: UVAHIK_clean_linker_0, # of connection points: 2
#     Edge 52, Type (0, 0), BuildingBlock: UVAHIK_clean_linker_0, # of connection points: 2
#     Edge 53, Type (0, 0), BuildingBlock: UVAHIK_clean_linker_0, # of connection points: 2
#     Edge 54, Type (0, 0), BuildingBlock: UVAHIK_clean_linker_0, # of connection points: 2
#     Edge 55, Type (0, 0), BuildingBlock: UVAHIK_clean_linker_0, # of connection points: 2
#     Edge 56, Type (0, 0), BuildingBlock: UVAHIK_clean_linker_0, # of connection points: 2
#     Edge 57, Type (0, 0), BuildingBlock: UVAHIK_clean_linker_0, # of connection points: 2
#     Edge 58, Type (0, 0), BuildingBlock: UVAHIK_clean_linker_0, # of connection points: 2
#     Edge 59, Type (0, 0), BuildingBlock: UVAHIK_clean_linker_0, # of connection points: 2
#     Edge 60, Type (0, 0), BuildingBlock: UVAHIK_clean_linker_0, # of connection points: 2
#     Edge 61, Type (0, 0), BuildingBlock: UVAHIK_clean_linker_0, # of connection points: 2
#     Edge 62, Type (0, 0), BuildingBlock: UVAHIK_clean_linker_0, # of connection points: 2
#     Edge 63, Type (0, 0), BuildingBlock: UVAHIK_clean_linker_0, # of connection points: 2
#     Edge 64, Type (0, 0), BuildingBlock: UVAHIK_clean_linker_0, # of connection points: 2
#     Edge 65, Type (0, 0), BuildingBlock: UVAHIK_clean_linker_0, # of connection points: 2
#     Edge 66, Type (0, 0), BuildingBlock: UVAHIK_clean_linker_0, # of connection points: 2
#     Edge 67, Type (0, 0), BuildingBlock: UVAHIK_clean_linker_0, # of connection points: 2
#     Edge 68, Type (0, 0), BuildingBlock: UVAHIK_clean_linker_0, # of connection points: 2
#     Edge 69, Type (0, 0), BuildingBlock: UVAHIK_clean_linker_0, # of connection points: 2
#     Edge 70, Type (0, 0), BuildingBlock: UVAHIK_clean_linker_0, # of connection points: 2
#     Edge 71, Type (0, 0), BuildingBlock: UVAHIK_clean_linker_0, # of connection points: 2
#     Edge 72, Type (0, 0), BuildingBlock: UVAHIK_clean_linker_0, # of connection points: 2
#     Edge 73, Type (0, 0), BuildingBlock: UVAHIK_clean_linker_0, # of connection points: 2
#     Edge 74, Type (0, 0), BuildingBlock: UVAHIK_clean_linker_0, # of connection points: 2
#     Edge 75, Type (0, 0), BuildingBlock: UVAHIK_clean_linker_0, # of connection points: 2
#     Edge 76, Type (0, 0), BuildingBlock: UVAHIK_clean_linker_0, # of connection points: 2
#     Edge 77, Type (0, 0), BuildingBlock: UVAHIK_clean_linker_0, # of connection points: 2
#     Edge 78, Type (0, 0), BuildingBlock: UVAHIK_clean_linker_0, # of connection points: 2
#     Edge 79, Type (0, 0), BuildingBlock: UVAHIK_clean_linker_0, # of connection points: 2
#     Edge 80, Type (0, 0), BuildingBlock: UVAHIK_clean_linker_0, # of connection points: 2
#     Edge 81, Type (0, 0), BuildingBlock: UVAHIK_clean_linker_0, # of connection points: 2
#     Edge 82, Type (0, 0), BuildingBlock: UVAHIK_clean_linker_0, # of connection points: 2
#     Edge 83, Type (0, 0), BuildingBlock: UVAHIK_clean_linker_0, # of connection points: 2
#     Edge 84, Type (0, 0), BuildingBlock: UVAHIK_clean_linker_0, # of connection points: 2
#     Edge 85, Type (0, 0), BuildingBlock: UVAHIK_clean_linker_0, # of connection points: 2
#     Edge 86, Type (0, 0), BuildingBlock: UVAHIK_clean_linker_0, # of connection points: 2
#     Edge 87, Type (0, 0), BuildingBlock: UVAHIK_clean_linker_0, # of connection points: 2
#     Edge 88, Type (0, 0), BuildingBlock: UVAHIK_clean_linker_0, # of connection points: 2
#     Edge 89, Type (0, 0), BuildingBlock: UVAHIK_clean_linker_0, # of connection points: 2
#     Edge 90, Type (0, 0), BuildingBlock: UVAHIK_clean_linker_0, # of connection points: 2
#     Edge 91, Type (0, 0), BuildingBlock: UVAHIK_clean_linker_0, # of connection points: 2
#     Edge 92, Type (0, 0), BuildingBlock: UVAHIK_clean_linker_0, # of connection points: 2
#     Edge 93, Type (0, 0), BuildingBlock: UVAHIK_clean_linker_0, # of connection points: 2
#     Edge 94, Type (0, 0), BuildingBlock: UVAHIK_clean_linker_0, # of connection points: 2
#     Edge 95, Type (0, 0), BuildingBlock: UVAHIK_clean_linker_0, # of connection points: 2
#     Edge 96, Type (0, 0), BuildingBlock: UVAHIK_clean_linker_0, # of connection points: 2
#     Edge 97, Type (0, 0), BuildingBlock: UVAHIK_clean_linker_0, # of connection points: 2
#     Edge 98, Type (0, 0), BuildingBlock: UVAHIK_clean_linker_0, # of connection points: 2
#     Edge 99, Type (0, 0), BuildingBlock: UVAHIK_clean_linker_0, # of connection points: 2
#     Edge 100, Type (0, 0), BuildingBlock: UVAHIK_clean_linker_0, # of connection points: 2
#     Edge 101, Type (0, 0), BuildingBlock: UVAHIK_clean_linker_0, # of connection points: 2
#     Edge 102, Type (0, 0), BuildingBlock: UVAHIK_clean_linker_0, # of connection points: 2
#     Edge 103, Type (0, 0), BuildingBlock: UVAHIK_clean_linker_0, # of connection points: 2
#     Edge 104, Type (0, 0), BuildingBlock: UVAHIK_clean_linker_0, # of connection points: 2
#     Edge 105, Type (0, 0), BuildingBlock: UVAHIK_clean_linker_0, # of connection points: 2
#     Edge 106, Type (0, 0), BuildingBlock: UVAHIK_clean_linker_0, # of connection points: 2
#     Edge 107, Type (0, 0), BuildingBlock: UVAHIK_clean_linker_0, # of connection points: 2
#     Edge 108, Type (0, 0), BuildingBlock: UVAHIK_clean_linker_0, # of connection points: 2
#     Edge 109, Type (0, 0), BuildingBlock: UVAHIK_clean_linker_0, # of connection points: 2
#     Edge 110, Type (0, 0), BuildingBlock: UVAHIK_clean_linker_0, # of connection points: 2
#     Edge 111, Type (0, 0), BuildingBlock: UVAHIK_clean_linker_0, # of connection points: 2
#     Edge 112, Type (0, 0), BuildingBlock: UVAHIK_clean_linker_0, # of connection points: 2
#     Edge 113, Type (0, 0), BuildingBlock: UVAHIK_clean_linker_0, # of connection points: 2
#     Edge 114, Type (0, 0), BuildingBlock: UVAHIK_clean_linker_0, # of connection points: 2
#     Edge 115, Type (0, 0), BuildingBlock: UVAHIK_clean_linker_0, # of connection points: 2
#     Edge 116, Type (0, 0), BuildingBlock: UVAHIK_clean_linker_0, # of connection points: 2
#     Edge 117, Type (0, 0), BuildingBlock: UVAHIK_clean_linker_0, # of connection points: 2
#     Edge 118, Type (0, 0), BuildingBlock: UVAHIK_clean_linker_0, # of connection points: 2
#     Edge 119, Type (0, 0), BuildingBlock: UVAHIK_clean_linker_0, # of connection points: 2
#     Edge 120, Type (0, 0), BuildingBlock: UVAHIK_clean_linker_0, # of connection points: 2
#     Edge 121, Type (0, 0), BuildingBlock: UVAHIK_clean_linker_0, # of connection points: 2
#     Edge 122, Type (0, 0), BuildingBlock: UVAHIK_clean_linker_0, # of connection points: 2
#     Edge 123, Type (0, 0), BuildingBlock: UVAHIK_clean_linker_0, # of connection points: 2
#     Edge 124, Type (0, 0), BuildingBlock: UVAHIK_clean_linker_0, # of connection points: 2
#     Edge 125, Type (0, 0), BuildingBlock: UVAHIK_clean_linker_0, # of connection points: 2
#     Edge 126, Type (0, 0), BuildingBlock: UVAHIK_clean_linker_0, # of connection points: 2
#     Edge 127, Type (0, 0), BuildingBlock: UVAHIK_clean_linker_0, # of connection points: 2
#     Edge 128, Type (0, 0), BuildingBlock: UVAHIK_clean_linker_0, # of connection points: 2
#     Edge 129, Type (0, 0), BuildingBlock: UVAHIK_clean_linker_0, # of connection points: 2
#     Edge 130, Type (0, 0), BuildingBlock: UVAHIK_clean_linker_0, # of connection points: 2
#     Edge 131, Type (0, 0), BuildingBlock: UVAHIK_clean_linker_0, # of connection points: 2
#     Edge 132, Type (0, 0), BuildingBlock: UVAHIK_clean_linker_0, # of connection points: 2
#     Edge 133, Type (0, 0), BuildingBlock: UVAHIK_clean_linker_0, # of connection points: 2
#     Edge 134, Type (0, 0), BuildingBlock: UVAHIK_clean_linker_0, # of connection points: 2
#     Edge 135, Type (0, 0), BuildingBlock: UVAHIK_clean_linker_0, # of connection points: 2
#     Edge 136, Type (0, 0), BuildingBlock: UVAHIK_clean_linker_0, # of connection points: 2
#     Edge 137, Type (0, 0), BuildingBlock: UVAHIK_clean_linker_0, # of connection points: 2
#     Edge 138, Type (0, 0), BuildingBlock: UVAHIK_clean_linker_0, # of connection points: 2
#     Edge 139, Type (0, 0), BuildingBlock: UVAHIK_clean_linker_0, # of connection points: 2
#     Edge 140, Type (0, 0), BuildingBlock: UVAHIK_clean_linker_0, # of connection points: 2
#     Edge 141, Type (0, 0), BuildingBlock: UVAHIK_clean_linker_0, # of connection points: 2
#     Edge 142, Type (0, 0), BuildingBlock: UVAHIK_clean_linker_0, # of connection points: 2
#     Edge 143, Type (0, 0), BuildingBlock: UVAHIK_clean_linker_0, # of connection points: 2
# Relax obj value: 0.037
# Max RMSD: 0.127
# Mean RMSD: 0.127
data_MOF--net-ulj--node1-ESEHIV_clean_sbu_0--edge1-UVAHIK_clean_linker_0
_symmetry_space_group_name_H-M    P1
_symmetry_Int_Tables_number       1
_symmetry_cell_setting            triclinic
loop_
_symmetry_equiv_pos_as_xyz
'x, y, z'
_cell_length_a     89.816155
_cell_length_b     89.924224
_cell_length_c     90.106799
_cell_angle_alpha  90.016206
_cell_angle_beta   89.989829
_cell_angle_gamma 89.924148
loop_
_atom_site_label
_atom_site_type_symbol
_atom_site_fract_x
_atom_site_fract_y
_atom_site_fract_z
_atom_type_partial_charge
Cu0 Cu 0.14431 0.26175 0.32867 0.0
N1 N 0.14226 0.25877 0.34929 0.0
N2 N 0.13102 0.24987 0.36977 0.0
C3 C 0.13124 0.25018 0.35477 0.0
C4 C 0.1425 0.25867 0.37391 0.0
C5 C 0.14934 0.26424 0.36126 0.0
O6 O 0.12374 0.26794 0.32397 0.0
C7 C 0.16596 0.24069 0.32685 0.0
O8 O 0.16992 0.249 0.33817 0.0
H9 H 0.12349 0.24423 0.34776 0.0
H10 H 0.15866 0.27183 0.36085 0.0
N11 N 0.15759 0.2764 0.32172 0.0
N12 N 0.17117 0.28792 0.30417 0.0
C13 C 0.16338 0.27564 0.3079 0.0
C14 C 0.16199 0.28964 0.3271 0.0
C15 C 0.17032 0.2968 0.31627 0.0
C16 C 0.12059 0.28124 0.31998 0.0
O17 O 0.13082 0.28914 0.31321 0.0
H18 H 0.16118 0.26649 0.3004 0.0
H19 H 0.15886 0.29404 0.33783 0.0
O20 O 0.15349 0.24351 0.32052 0.0
H21 H 0.14555 0.2612 0.38525 0.0
H22 H 0.17513 0.30779 0.31715 0.0
Cu23 Cu 0.51185 0.62848 0.94306 0.0
N24 N 0.50814 0.63074 0.92255 0.0
N25 N 0.49886 0.64244 0.90248 0.0
C26 C 0.4998 0.64216 0.91746 0.0
C27 C 0.50697 0.63059 0.89795 0.0
C28 C 0.51277 0.62346 0.91034 0.0
O29 O 0.52084 0.64799 0.94764 0.0
C30 C 0.48878 0.60923 0.94574 0.0
O31 O 0.4957 0.60491 0.93364 0.0
H32 H 0.49451 0.65014 0.92473 0.0
H33 H 0.51995 0.61379 0.91041 0.0
N34 N 0.52508 0.61374 0.95008 0.0
N35 N 0.53529 0.59939 0.96782 0.0
C36 C 0.52474 0.60955 0.96447 0.0
C37 C 0.53621 0.60576 0.94396 0.0
C38 C 0.54263 0.59702 0.95494 0.0
C39 C 0.53407 0.64921 0.94244 0.0
O40 O 0.54029 0.63749 0.93638 0.0
H41 H 0.51705 0.61421 0.97247 0.0
H42 H 0.5396 0.60643 0.93246 0.0
O43 O 0.49323 0.62119 0.9521 0.0
H44 H 0.50888 0.62747 0.88651 0.0
H45 H 0.55194 0.58949 0.95355 0.0
Cu46 Cu 0.88096 0.26127 0.32928 0.0
N47 N 0.88282 0.26367 0.34996 0.0
N48 N 0.89464 0.27237 0.37024 0.0
C49 C 0.89166 0.27439 0.35565 0.0
C50 C 0.88713 0.25985 0.37388 0.0
C51 C 0.87998 0.25445 0.36135 0.0
O52 O 0.90174 0.25588 0.3246 0.0
C53 C 0.85877 0.28182 0.3281 0.0
O54 O 0.85517 0.27323 0.33934 0.0
H55 H 0.89644 0.28307 0.34887 0.0
H56 H 0.87404 0.24404 0.36041 0.0
N57 N 0.8682 0.24639 0.32187 0.0
N58 N 0.85505 0.23497 0.30395 0.0
C59 C 0.86224 0.24746 0.30815 0.0
C60 C 0.86456 0.23271 0.32669 0.0
C61 C 0.85648 0.22562 0.31563 0.0
C62 C 0.90534 0.24289 0.32003 0.0
O63 O 0.8955 0.23507 0.31262 0.0
H64 H 0.86393 0.257 0.30103 0.0
H65 H 0.86808 0.22797 0.33714 0.0
O66 O 0.87126 0.27945 0.32163 0.0
H67 H 0.8875 0.2544 0.38458 0.0
H68 H 0.85228 0.21435 0.31605 0.0
Cu69 Cu 0.51498 0.89805 0.94531 0.0
N70 N 0.51984 0.89621 0.925 0.0
N71 N 0.52977 0.88521 0.90484 0.0
C72 C 0.52664 0.88398 0.91947 0.0
C73 C 0.52458 0.8988 0.90098 0.0
C74 C 0.5184 0.90551 0.9134 0.0
O75 O 0.50386 0.87948 0.94893 0.0
C76 C 0.54347 0.91037 0.95005 0.0
O77 O 0.54493 0.90871 0.93566 0.0
H78 H 0.52969 0.87454 0.92627 0.0
H79 H 0.51347 0.91647 0.91392 0.0
N80 N 0.50296 0.91413 0.95132 0.0
N81 N 0.49449 0.92937 0.9693 0.0
C82 C 0.49802 0.91525 0.96545 0.0
C83 C 0.50251 0.9281 0.94596 0.0
C84 C 0.49719 0.93747 0.95695 0.0
C85 C 0.49042 0.87971 0.94416 0.0
O86 O 0.48498 0.89236 0.9393 0.0
H87 H 0.49861 0.90612 0.97326 0.0
H88 H 0.50708 0.9315 0.9354 0.0
O89 O 0.53302 0.9033 0.95665 0.0
H90 H 0.5252 0.90359 0.88999 0.0
H91 H 0.49628 0.94944 0.95617 0.0
Cu92 Cu 0.14383 0.76424 0.19474 0.0
N93 N 0.14149 0.76717 0.17414 0.0
N94 N 0.12998 0.7761 0.15381 0.0
C95 C 0.13031 0.77568 0.1688 0.0
C96 C 0.14154 0.76746 0.14951 0.0
C97 C 0.14855 0.76187 0.16207 0.0
O98 O 0.12329 0.7584 0.19983 0.0
C99 C 0.16576 0.78495 0.19627 0.0
O100 O 0.16939 0.77665 0.18483 0.0
H101 H 0.12255 0.78151 0.17591 0.0
H102 H 0.158 0.7544 0.16235 0.0
N103 N 0.15705 0.74943 0.20155 0.0
N104 N 0.17075 0.73802 0.21908 0.0
C105 C 0.16355 0.75056 0.21502 0.0
C106 C 0.16038 0.73565 0.19674 0.0
C107 C 0.16877 0.72856 0.20758 0.0
C108 C 0.12001 0.74527 0.2042 0.0
O109 O 0.13011 0.7375 0.21132 0.0
H110 H 0.16219 0.76015 0.22216 0.0
H111 H 0.15633 0.73083 0.18651 0.0
O112 O 0.15332 0.78234 0.20275 0.0
H113 H 0.14454 0.76507 0.13813 0.0
H114 H 0.17275 0.7172 0.20718 0.0
Cu115 Cu 0.01485 0.63142 0.07938 0.0
N116 N 0.01778 0.63372 0.09998 0.0
N117 N 0.02654 0.64532 0.12033 0.0
C118 C 0.02616 0.64496 0.10533 0.0
C119 C 0.01802 0.63369 0.12461 0.0
C120 C 1.01253 0.62662 0.11204 0.0
O121 O 1.00883 0.65194 0.07441 0.0
C122 C 0.03583 0.60965 0.07777 0.0
O123 O 0.02751 0.60585 0.08914 0.0
H124 H 0.03191 0.65277 0.09823 0.0
H125 H 1.00515 0.61713 0.11175 0.0
N126 N 1.0001 0.61822 0.07252 0.0
N127 N 0.98847 0.60472 0.05499 0.0
C128 C 1.0009 0.61226 0.05878 0.0
C129 C 0.98667 0.6142 0.07778 0.0
C130 C 0.97945 0.60591 0.06696 0.0
C131 C 0.9956 0.65515 0.07022 0.0
O132 O 0.98775 0.64498 0.0633 0.0
H133 H 1.01017 0.61419 0.05135 0.0
H134 H 0.98218 0.6176 0.0884 0.0
O135 O 0.03306 0.62207 0.07134 0.0
H136 H 0.01562 0.6307 0.13599 0.0
H137 H 0.96831 0.6014 0.06774 0.0
Cu138 Cu 0.87988 0.76156 0.19373 0.0
N139 N 0.8826 0.75771 0.1733 0.0
N140 N 0.89453 0.74842 0.15334 0.0
C141 C 0.89399 0.74922 0.16833 0.0
C142 C 0.88291 0.75679 0.14869 0.0
C143 C 0.87565 0.7626 0.161 0.0
O144 O 0.89919 0.77085 0.19856 0.0
C145 C 0.86172 0.7373 0.19619 0.0
O146 O 0.85826 0.74269 0.1831 0.0
H147 H 0.90177 0.74375 0.17569 0.0
H148 H 0.86615 0.76999 0.16095 0.0
N149 N 0.86453 0.77447 0.19993 0.0
N150 N 0.84937 0.78346 0.21771 0.0
C151 C 0.86318 0.7785 0.21433 0.0
C152 C 0.85105 0.77701 0.19392 0.0
C153 C 0.84171 0.78261 0.20483 0.0
C154 C 0.90017 0.78479 0.19576 0.0
O155 O 0.88797 0.79217 0.19255 0.0
H156 H 0.87177 0.7764 0.22249 0.0
H157 H 0.84783 0.7738 0.18281 0.0
O158 O 0.87279 0.74303 0.2031 0.0
H159 H 0.88006 0.75891 0.13721 0.0
H160 H 0.82999 0.7851 0.20353 0.0
Cu161 Cu 1.01226 0.89565 0.07895 0.0
N162 N 1.00914 0.89356 0.09955 0.0
N163 N 1.00015 0.88227 0.11995 0.0
C164 C 1.0015 0.88186 0.10503 0.0
C165 C 1.0073 0.89483 0.12409 0.0
C166 C 1.01295 0.90171 0.1115 0.0
O167 O 0.01857 0.87515 0.07417 0.0
C168 C 0.99082 0.91704 0.07678 0.0
O169 O 0.99879 0.92123 0.08825 0.0
H170 H 0.99675 0.87327 0.09806 0.0
H171 H 0.01926 0.91194 0.1111 0.0
N172 N 0.02689 0.90903 0.07218 0.0
N173 N 0.03853 0.92274 0.05483 0.0
C174 C 0.02636 0.91463 0.05829 0.0
C175 C 0.03985 0.91386 0.0779 0.0
C176 C 0.04708 0.92228 0.06718 0.0
C177 C 0.03197 0.87203 0.07046 0.0
O178 O 0.04018 0.88239 0.0643 0.0
H179 H 0.01747 0.91214 0.05058 0.0
H180 H 0.04399 0.91103 0.08881 0.0
O181 O 0.99403 0.90463 0.07055 0.0
H182 H 1.00849 0.8987 0.1354 0.0
H183 H 0.05789 0.92745 0.06835 0.0
Cu184 Cu 0.33029 0.14586 0.26016 0.0
N185 N 0.35095 0.14413 0.25665 0.0
N186 N 0.37145 0.13359 0.24686 0.0
C187 C 0.35655 0.13268 0.2487 0.0
C188 C 0.37543 0.14618 0.25403 0.0
C189 C 0.36279 0.1526 0.26016 0.0
O190 O 0.3258 0.12592 0.26808 0.0
C191 C 0.32732 0.1664 0.23842 0.0
O192 O 0.33863 0.17103 0.24639 0.0
H193 H 0.34968 0.12399 0.24401 0.0
H194 H 0.36226 0.1628 0.26651 0.0
N195 N 0.32301 0.1598 0.27405 0.0
N196 N 0.30518 0.17364 0.28487 0.0
C197 C 0.30845 0.16358 0.27423 0.0
C198 C 0.3293 0.16787 0.28495 0.0
C199 C 0.31829 0.17633 0.29173 0.0
C200 C 0.33098 0.12403 0.2812 0.0
O201 O 0.33708 0.1354 0.28799 0.0
H202 H 0.30034 0.15881 0.26673 0.0
H203 H 0.34099 0.1676 0.28781 0.0
O204 O 0.3214 0.15388 0.24178 0.0
H205 H 0.38667 0.15044 0.25482 0.0
H206 H 0.31986 0.18397 0.30088 0.0
Cu207 Cu 0.39551 0.44645 0.01357 0.0
N208 N 0.3946 0.42608 0.01835 0.0
N209 N 0.38395 0.40556 0.02792 0.0
C210 C 0.3822 0.42004 0.0243 0.0
C211 C 0.39814 0.40233 0.024 0.0
C212 C 0.40466 0.41498 0.01805 0.0
O213 O 0.37544 0.44952 1.00504 0.0
C214 C 0.40876 0.45146 0.04213 0.0
O215 O 0.40659 0.43723 0.04446 0.0
H216 H 0.3722 0.42642 0.02645 0.0
H217 H 0.41599 0.41609 0.01414 0.0
N218 N 0.40992 0.45268 0.99975 0.0
N219 N 0.42416 0.46983 0.98846 0.0
C220 C 0.41517 0.46674 1.00005 0.0
C221 C 0.41588 0.4465 0.9875 0.0
C222 C 0.42462 0.45711 0.98046 0.0
C223 C 0.37326 0.45261 0.99135 0.0
O224 O 0.38416 0.45848 0.98363 0.0
H225 H 0.41175 0.47485 1.00824 0.0
H226 H 0.41359 0.43534 0.98365 0.0
O227 O 0.40221 0.45773 0.03117 0.0
H228 H 0.40347 0.39162 0.0254 0.0
H229 H 0.43064 0.45564 0.97015 0.0
Cu230 Cu 0.69501 0.37713 0.26057 0.0
N231 N 0.67447 0.37919 0.25651 0.0
N232 N 0.65422 0.3903 0.24678 0.0
C233 C 0.66917 0.3907 0.24843 0.0
C234 C 0.6499 0.37795 0.25418 0.0
C235 C 0.66239 0.37118 0.26026 0.0
O236 O 0.69937 0.39658 0.26978 0.0
C237 C 0.69842 0.3576 0.23796 0.0
O238 O 0.68649 0.35303 0.24504 0.0
H239 H 0.67629 0.39915 0.24368 0.0
H240 H 0.66262 0.36116 0.26689 0.0
N241 N 0.70184 0.36249 0.27395 0.0
N242 N 0.71942 0.34826 0.28468 0.0
C243 C 0.71643 0.35888 0.27451 0.0
C244 C 0.69523 0.35371 0.2841 0.0
C245 C 0.70608 0.34501 0.29082 0.0
C246 C 0.69362 0.39761 0.28277 0.0
O247 O 0.68707 0.38584 0.28839 0.0
H248 H 0.72477 0.36418 0.26765 0.0
H249 H 0.68343 0.35367 0.28649 0.0
O250 O 0.70449 0.36979 0.24219 0.0
H251 H 0.63853 0.37415 0.2553 0.0
H252 H 0.70425 0.33682 0.29943 0.0
Cu253 Cu 0.62924 0.07927 0.01314 0.0
N254 N 0.63025 0.09954 0.01835 0.0
N255 N 0.6409 0.11996 0.02815 0.0
C256 C 0.64255 0.10541 0.02468 0.0
C257 C 0.6269 0.12337 0.02372 0.0
C258 C 0.62039 0.11078 0.01763 0.0
O259 O 0.64823 0.07639 1.00243 0.0
C260 C 0.61755 0.07337 0.04194 0.0
O261 O 0.61883 0.08775 0.04407 0.0
H262 H 0.65239 0.0989 0.0271 0.0
H263 H 0.60923 0.10985 0.01323 0.0
N264 N 0.61375 0.07278 1.00059 0.0
N265 N 0.59875 0.05552 0.99053 0.0
C266 C 0.60961 0.05835 1.00046 0.0
C267 C 0.60504 0.07944 0.99038 0.0
C268 C 0.59588 0.06875 0.98404 0.0
C269 C 0.64855 0.08273 0.98969 0.0
O270 O 0.63636 0.08907 0.98475 0.0
H271 H 0.6148 0.04994 1.00733 0.0
H272 H 0.60545 0.09113 0.9876 0.0
O273 O 0.6243 0.06743 0.03092 0.0
H274 H 0.6217 0.13417 0.02479 0.0
H275 H 0.5877 0.07059 0.97541 0.0
Cu276 Cu 0.33029 0.87734 0.26353 0.0
N277 N 0.35059 0.87826 0.2687 0.0
N278 N 0.37107 0.88892 0.2784 0.0
C279 C 0.3565 0.89055 0.27498 0.0
C280 C 0.37447 0.87493 0.27399 0.0
C281 C 0.36184 0.8684 0.26796 0.0
O282 O 0.32746 0.89644 0.25307 0.0
C283 C 0.32437 0.86526 0.29218 0.0
O284 O 0.33874 0.86663 0.29443 0.0
H285 H 0.34999 0.90039 0.27739 0.0
H286 H 0.3609 0.85724 0.26359 0.0
N287 N 0.32369 0.86213 0.25075 0.0
N288 N 0.30618 0.84769 0.2403 0.0
C289 C 0.30907 0.85877 0.24997 0.0
C290 C 0.33043 0.85273 0.24124 0.0
C291 C 0.3196 0.84389 0.23466 0.0
C292 C 0.33331 0.89672 0.2401 0.0
O293 O 0.33908 0.88442 0.23477 0.0
H294 H 0.30063 0.86458 0.25629 0.0
H295 H 0.34228 0.85237 0.23916 0.0
O296 O 0.31845 0.87209 0.28121 0.0
H297 H 0.38529 0.86973 0.27502 0.0
H298 H 0.32149 0.83525 0.22651 0.0
Cu299 Cu 0.1301 0.44531 1.01088 0.0
N300 N 0.13223 0.42466 1.00759 0.0
N301 N 0.14337 0.40421 0.99839 0.0
C302 C 0.14367 0.41919 0.99952 0.0
C303 C 0.13117 0.40005 1.00613 0.0
C304 C 0.12438 0.41267 0.0119 0.0
O305 O 0.15005 0.45018 0.0186 0.0
C306 C 0.10933 0.44764 0.98919 0.0
O307 O 0.10528 0.43595 0.99691 0.0
H308 H 0.15198 0.4262 0.99438 0.0
H309 H 0.11445 0.41304 0.01867 0.0
N310 N 0.11622 0.45248 0.02488 0.0
N311 N 0.10241 0.47027 0.0358 0.0
C312 C 0.11239 0.46701 0.02508 0.0
C313 C 0.10826 0.44619 0.03587 0.0
C314 C 0.09982 0.45718 0.04271 0.0
C315 C 0.1521 0.44498 0.0317 0.0
O316 O 0.14087 0.43864 0.03851 0.0
H317 H 0.11709 0.47511 0.01753 0.0
H318 H 0.10861 0.43452 0.03875 0.0
O319 O 0.12165 0.45398 0.99258 0.0
H320 H 0.12749 0.3887 1.00767 0.0
H321 H 0.09226 0.4556 0.05193 0.0
Cu322 Cu 0.69731 0.64504 0.26296 0.0
N323 N 0.67696 0.64459 0.268 0.0
N324 N 0.65633 0.63473 0.27816 0.0
C325 C 0.67067 0.63246 0.27423 0.0
C326 C 0.65345 0.64894 0.27412 0.0
C327 C 0.66617 0.65497 0.2678 0.0
O328 O 0.70009 0.62557 0.25317 0.0
C329 C 0.70304 0.65734 0.29166 0.0
O330 O 0.68875 0.65557 0.29408 0.0
H331 H 0.67681 0.62233 0.27641 0.0
H332 H 0.66756 0.66622 0.26378 0.0
N333 N 0.70408 0.65982 0.24977 0.0
N334 N 0.72159 0.67421 0.23926 0.0
C335 C 0.71854 0.66388 0.24967 0.0
C336 C 0.69762 0.66799 0.23902 0.0
C337 C 0.70846 0.67678 0.2324 0.0
C338 C 0.69361 0.62458 0.24054 0.0
O339 O 0.68709 0.63642 0.23507 0.0
H340 H 0.72682 0.65902 0.25693 0.0
H341 H 0.68596 0.66748 0.23606 0.0
O342 O 0.70903 0.65065 0.28063 0.0
H343 H 0.64296 0.65465 0.27574 0.0
H344 H 0.70679 0.6845 0.22334 0.0
Cu345 Cu 0.8958 0.08013 1.00993 0.0
N346 N 0.89371 0.10074 1.00652 0.0
N347 N 0.88272 0.1211 0.99696 0.0
C348 C 0.8821 0.10619 0.99867 0.0
C349 C 0.89528 0.12526 1.0041 0.0
C350 C 0.90197 0.1127 1.0101 0.0
O351 O 0.87541 0.07541 0.01661 0.0
C352 C 0.91694 0.07775 0.98836 0.0
O353 O 0.92107 0.08943 0.99605 0.0
H354 H 0.87349 0.0992 0.99399 0.0
H355 H 0.9122 0.11232 0.01643 0.0
N356 N 0.90942 0.07351 0.0244 0.0
N357 N 0.92325 0.05612 0.03591 0.0
C358 C 0.91517 0.05965 0.02376 0.0
C359 C 0.91412 0.07914 0.03741 0.0
C360 C 0.92262 0.0684 0.04456 0.0
C361 C 0.87253 0.07126 0.02989 0.0
O362 O 0.88302 0.06466 0.03761 0.0
H363 H 0.91274 0.05197 0.01484 0.0
H364 H 0.91109 0.08998 0.04168 0.0
O365 O 0.90462 0.07144 0.99179 0.0
H366 H 0.8993 0.13657 1.00499 0.0
H367 H 0.92768 0.06948 0.05541 0.0
Cu368 Cu 0.2618 0.33147 0.14625 0.0
N369 N 0.25861 0.3521 0.14418 0.0
N370 N 0.24997 0.37255 0.13262 0.0
C371 C 0.25087 0.35755 0.13254 0.0
C372 C 0.25751 0.37674 0.14492 0.0
C373 C 0.26293 0.36412 0.15197 0.0
O374 O 0.27033 0.3268 0.12657 0.0
C375 C 0.23882 0.32908 0.16579 0.0
O376 O 0.24603 0.34096 0.17024 0.0
H377 H 0.24586 0.3505 0.12418 0.0
H378 H 0.26955 0.36375 0.16199 0.0
N379 N 0.27515 0.32415 0.16066 0.0
N380 N 0.28555 0.30616 0.17454 0.0
C381 C 0.27508 0.30961 0.16436 0.0
C382 C 0.286 0.33027 0.16895 0.0
C383 C 0.29254 0.31914 0.17743 0.0
C384 C 0.28383 0.33124 0.1252 0.0
O385 O 0.29066 0.33651 0.13694 0.0
H386 H 0.26761 0.3016 0.15937 0.0
H387 H 0.28908 0.34189 0.16872 0.0
O388 O 0.24307 0.32276 0.15374 0.0
H389 H 0.25921 0.38811 0.14847 0.0
H390 H 0.30166 0.32052 0.18516 0.0
Cu391 Cu 0.26159 0.69557 0.37594 0.0
N392 N 0.25718 0.67519 0.37847 0.0
N393 N 0.24731 0.65526 0.38992 0.0
C394 C 0.24906 0.6702 0.39007 0.0
C395 C 0.25471 0.65066 0.37768 0.0
C396 C 0.26089 0.66294 0.37071 0.0
O397 O 0.27191 0.69991 0.39481 0.0
C398 C 0.23633 0.69895 0.35894 0.0
O399 O 0.24046 0.68535 0.35565 0.0
H400 H 0.24436 0.6775 0.39839 0.0
H401 H 0.26757 0.66292 0.36072 0.0
N402 N 0.27429 0.7015 0.3604 0.0
N403 N 0.28359 0.71937 0.34557 0.0
C404 C 0.27935 0.71563 0.35948 0.0
C405 C 0.27544 0.69603 0.34654 0.0
C406 C 0.28123 0.70699 0.33741 0.0
C407 C 0.28525 0.69483 0.39515 0.0
O408 O 0.29089 0.68924 0.38292 0.0
H409 H 0.27838 0.7235 0.36852 0.0
H410 H 0.27106 0.68541 0.34301 0.0
O411 O 0.24319 0.70575 0.36942 0.0
H412 H 0.25577 0.63921 0.3741 0.0
H413 H 0.28274 0.70615 0.32552 0.0
Cu414 Cu 0.94407 0.51468 0.89714 0.0
N415 N 0.92348 0.51838 0.89504 0.0
N416 N 0.90322 0.52755 0.88354 0.0
C417 C 0.91814 0.52574 0.8831 0.0
C418 C 0.89893 0.52101 0.89635 0.0
C419 C 0.91144 0.51524 0.90337 0.0
O420 O 0.94855 0.50578 0.87758 0.0
C421 C 0.94714 0.53765 0.91653 0.0
O422 O 0.9352 0.53066 0.92117 0.0
H423 H 0.92523 0.52993 0.87434 0.0
H424 H 0.91171 0.50932 0.91381 0.0
N425 N 0.95105 0.50134 0.91172 0.0
N426 N 0.96871 0.49073 0.92589 0.0
C427 C 0.96563 0.50094 0.91534 0.0
C428 C 0.94453 0.49107 0.92043 0.0
C429 C 0.95545 0.48441 0.92909 0.0
C430 C 0.94388 0.49236 0.87638 0.0
O431 O 0.93851 0.48577 0.88821 0.0
H432 H 0.9739 0.50793 0.91009 0.0
H433 H 0.93276 0.48853 0.92042 0.0
O434 O 0.95327 0.53323 0.90444 0.0
H435 H 0.88758 0.5203 0.90031 0.0
H436 H 0.95372 0.47572 0.93721 0.0
Cu437 Cu 0.76437 0.82712 0.375 0.0
N438 N 0.77037 0.84714 0.37676 0.0
N439 N 0.7806 0.86704 0.38799 0.0
C440 C 0.77829 0.85218 0.38847 0.0
C441 C 0.7737 0.87153 0.37541 0.0
C442 C 0.76739 0.85927 0.36854 0.0
O443 O 0.75296 0.82409 0.39351 0.0
C444 C 0.79282 0.82028 0.36316 0.0
O445 O 0.79527 0.83462 0.36433 0.0
H446 H 0.78198 0.84501 0.39739 0.0
H447 H 0.76092 0.85926 0.35842 0.0
N448 N 0.75234 0.82177 0.35879 0.0
N449 N 0.74378 0.80385 0.34357 0.0
C450 C 0.74659 0.80792 0.35775 0.0
C451 C 0.75315 0.8267 0.34472 0.0
C452 C 0.7478 0.81574 0.33534 0.0
C453 C 0.73934 0.82833 0.39331 0.0
O454 O 0.73341 0.83232 0.3806 0.0
H455 H 0.74622 0.80032 0.36706 0.0
H456 H 0.75876 0.83678 0.34135 0.0
O457 O 0.78171 0.81464 0.37003 0.0
H458 H 0.77325 0.88286 0.37139 0.0
H459 H 0.74786 0.81614 0.32334 0.0
Cu460 Cu 0.57996 0.51062 0.39597 0.0
N461 N 0.60023 0.5054 0.3945 0.0
N462 N 0.62035 0.4954 0.38339 0.0
C463 C 0.6055 0.49779 0.38269 0.0
C464 C 0.62462 0.50196 0.39622 0.0
C465 C 0.6122 0.50811 0.40305 0.0
O466 O 0.57663 0.52114 0.377 0.0
C467 C 0.57437 0.48201 0.40834 0.0
O468 O 0.58881 0.48009 0.4072 0.0
H469 H 0.59845 0.49427 0.37361 0.0
H470 H 0.61195 0.51414 0.41343 0.0
N471 N 0.57363 0.52341 0.4113 0.0
N472 N 0.55631 0.53392 0.42596 0.0
C473 C 0.55908 0.52407 0.415 0.0
C474 C 0.58044 0.53319 0.42034 0.0
C475 C 0.56974 0.53981 0.42932 0.0
C476 C 0.58248 0.53412 0.3766 0.0
O477 O 0.58866 0.53938 0.3887 0.0
H478 H 0.55058 0.51758 0.40949 0.0
H479 H 0.59226 0.53549 0.42032 0.0
O480 O 0.56828 0.49287 0.40144 0.0
H481 H 0.63588 0.50218 0.4005 0.0
H482 H 0.57169 0.54819 0.43771 0.0
Cu483 Cu 0.26435 0.69339 0.64628 0.0
N484 N 0.26849 0.67286 0.64441 0.0
N485 N 0.27799 0.65267 0.63302 0.0
C486 C 0.27701 0.66768 0.63319 0.0
C487 C 0.26973 0.64822 0.64476 0.0
C488 C 0.26379 0.66067 0.6517 0.0
O489 O 0.25585 0.69749 0.62649 0.0
C490 C 0.28685 0.69649 0.66612 0.0
O491 O 0.2798 0.68448 0.67049 0.0
H492 H 0.28234 0.67491 0.62521 0.0
H493 H 0.25641 0.6608 0.66118 0.0
N494 N 0.25039 0.70029 0.66032 0.0
N495 N 0.23935 0.71791 0.67425 0.0
C496 C 0.25047 0.71466 0.66469 0.0
C497 C 0.2388 0.69409 0.66749 0.0
C498 C 0.23191 0.70497 0.67601 0.0
C499 C 0.2438 0.69011 0.62453 0.0
O500 O 0.23846 0.68246 0.63572 0.0
H501 H 0.25839 0.72272 0.66056 0.0
H502 H 0.23547 0.68258 0.66646 0.0
O503 O 0.28263 0.70275 0.65404 0.0
H504 H 0.26777 0.63677 0.6479 0.0
H505 H 0.22222 0.70345 0.68298 0.0
Cu506 Cu 0.94621 0.51196 0.62543 0.0
N507 N 0.92588 0.5069 0.62732 0.0
N508 N 0.90576 0.49692 0.63839 0.0
C509 C 0.92044 0.50006 0.63953 0.0
C510 C 0.90179 0.50212 0.62487 0.0
C511 C 0.91418 0.50833 0.61811 0.0
O512 O 0.94965 0.52321 0.64396 0.0
C513 C 0.95111 0.48357 0.61283 0.0
O514 O 0.93669 0.48209 0.61456 0.0
H515 H 0.92732 0.49705 0.64891 0.0
H516 H 0.91462 0.51332 0.60721 0.0
N517 N 0.95204 0.52427 0.60958 0.0
N518 N 0.9701 0.53322 0.59472 0.0
C519 C 0.96603 0.52975 0.60876 0.0
C520 C 0.94701 0.52431 0.59551 0.0
C521 C 0.95805 0.52991 0.58636 0.0
C522 C 0.94322 0.53595 0.64378 0.0
O523 O 0.93688 0.5403 0.63137 0.0
H524 H 0.97367 0.52954 0.61805 0.0
H525 H 0.93673 0.51922 0.59191 0.0
O526 O 0.95774 0.49405 0.61982 0.0
H527 H 0.89072 0.50152 0.62017 0.0
H528 H 0.95756 0.53057 0.57438 0.0
Cu529 Cu 0.08046 0.01652 0.62691 0.0
N530 N 0.10072 0.02193 0.62788 0.0
N531 N 0.1211 0.03204 0.63834 0.0
C532 C 0.10674 0.02797 0.64023 0.0
C533 C 0.12427 0.0283 0.62413 0.0
C534 C 0.11171 0.02203 0.61773 0.0
O535 O 0.07767 1.00535 0.64561 0.0
C536 C 0.07446 0.04562 0.61576 0.0
O537 O 0.08863 0.04826 0.6181 0.0
H538 H 0.10041 0.02986 0.65028 0.0
H539 H 0.11058 0.01817 0.60641 0.0
N540 N 0.07402 1.00398 0.61143 0.0
N541 N 0.05665 0.99358 0.59678 0.0
C542 C 0.0595 1.00358 0.60757 0.0
C543 C 0.08073 0.99387 0.60264 0.0
C544 C 0.06999 0.98733 0.59367 0.0
C545 C 0.0851 0.99317 0.64567 0.0
O546 O 0.09251 0.98956 0.63364 0.0
H547 H 0.05105 1.01027 0.61294 0.0
H548 H 0.09249 0.99127 0.60286 0.0
O549 O 0.0685 0.03427 0.62194 0.0
H550 H 0.13486 0.03005 0.61868 0.0
H551 H 0.07185 0.97871 0.5855 0.0
Cu552 Cu 0.64728 0.76023 0.82788 0.0
N553 N 0.64631 0.75507 0.84813 0.0
N554 N 0.63559 0.74538 0.86852 0.0
C555 C 0.63379 0.74939 0.85417 0.0
C556 C 0.64992 0.74876 0.87165 0.0
C557 C 0.6565 0.75479 0.85907 0.0
O558 O 0.62808 0.77056 0.82492 0.0
C559 C 0.65916 0.73131 0.82202 0.0
O560 O 0.65719 0.72875 0.83622 0.0
H561 H 0.62366 0.74772 0.84789 0.0
H562 H 0.66794 0.75834 0.8579 0.0
N563 N 0.66246 0.77311 0.82137 0.0
N564 N 0.67702 0.78364 0.80403 0.0
C565 C 0.66604 0.77382 0.80683 0.0
C566 C 0.67162 0.78283 0.82813 0.0
C567 C 0.68053 0.78946 0.81741 0.0
C568 C 0.62759 0.78361 0.83061 0.0
O569 O 0.6398 0.78918 0.83635 0.0
H570 H 0.66045 0.76734 0.79838 0.0
H571 H 0.67175 0.78502 0.83993 0.0
O572 O 0.65269 0.74253 0.81611 0.0
H573 H 0.65534 0.74694 0.88222 0.0
H574 H 0.68901 0.79778 0.81934 0.0
Cu575 Cu 1.01269 0.13098 0.44495 0.0
N576 N 1.00983 0.13304 0.4243 0.0
N577 N 1.00081 0.14432 0.40387 0.0
C578 C 1.00106 0.14397 0.41886 0.0
C579 C 1.00982 0.133 0.39967 0.0
C580 C 0.01546 0.12614 0.41229 0.0
O581 O 0.01931 0.15139 0.44966 0.0
C582 C 0.99134 0.10977 0.4465 0.0
O583 O 0.99969 0.10581 0.43519 0.0
H584 H 0.99495 0.15157 0.42592 0.0
H585 H 0.0232 0.11692 0.41264 0.0
N586 N 0.02679 0.11733 0.45239 0.0
N587 N 0.03712 0.10324 0.47034 0.0
C588 C 0.02659 0.11341 0.46686 0.0
C589 C 0.03786 0.10929 0.44631 0.0
C590 C 0.04429 0.10064 0.45737 0.0
C591 C 0.03291 0.15416 0.45292 0.0
O592 O 0.04122 0.1434 0.45826 0.0
H593 H 0.01884 0.11821 0.47471 0.0
H594 H 0.04098 0.1096 0.43472 0.0
O595 O 0.99421 0.12217 0.45291 0.0
H596 H 1.01246 0.13008 0.38832 0.0
H597 H 0.0534 0.0929 0.45585 0.0
Cu598 Cu 0.38083 0.76276 0.82946 0.0
N599 N 0.3828 0.76603 0.85003 0.0
N600 N 0.3938 0.7761 0.87012 0.0
C601 C 0.39128 0.77721 0.85535 0.0
C602 C 0.38647 0.76362 0.87425 0.0
C603 C 0.37977 0.75741 0.86184 0.0
O604 O 0.4014 0.75659 0.82479 0.0
C605 C 0.35916 0.78375 0.8278 0.0
O606 O 0.35567 0.77582 0.83954 0.0
H607 H 0.39635 0.78546 0.84823 0.0
H608 H 0.37381 0.74698 0.86137 0.0
N609 N 0.3676 0.74797 0.82276 0.0
N610 N 0.35391 0.7363 0.80541 0.0
C611 C 0.3615 0.74872 0.80908 0.0
C612 C 0.36363 0.73457 0.82811 0.0
C613 C 0.35522 0.72733 0.8174 0.0
C614 C 0.40458 0.74341 0.82043 0.0
O615 O 0.39439 0.7357 0.8134 0.0
H616 H 0.36335 0.75795 0.80161 0.0
H617 H 0.36715 0.73011 0.83869 0.0
O618 O 0.37143 0.78079 0.82114 0.0
H619 H 0.38627 0.75904 0.88535 0.0
H620 H 0.3507 0.71621 0.81828 0.0
Cu621 Cu 0.0136 0.39527 0.4444 0.0
N622 N 0.01756 0.393 0.42392 0.0
N623 N 0.02697 0.38142 0.40382 0.0
C624 C 0.02594 0.38162 0.4188 0.0
C625 C 0.01885 0.39329 0.39933 0.0
C626 C 1.01298 0.40034 0.41173 0.0
O627 O 1.00434 0.37586 0.44896 0.0
C628 C 0.03647 0.41456 0.44736 0.0
O629 O 0.0295 0.41888 0.4353 0.0
H630 H 0.0312 0.3736 0.42605 0.0
H631 H 1.00578 0.40999 0.41182 0.0
N632 N 1.00036 0.41015 0.45119 0.0
N633 N 0.99022 0.42496 0.46861 0.0
C634 C 1.00081 0.41478 0.46546 0.0
C635 C 0.98911 0.41786 0.44496 0.0
C636 C 0.98274 0.42689 0.45574 0.0
C637 C 0.9915 0.37469 0.44284 0.0
O638 O 0.98609 0.38629 0.43586 0.0
H639 H 1.00861 0.41043 0.47352 0.0
H640 H 0.98563 0.41685 0.43352 0.0
O641 O 0.03213 0.40253 0.45365 0.0
H642 H 0.01698 0.39647 0.3879 0.0
H643 H 0.97337 0.43432 0.45421 0.0
Cu644 Cu 0.64581 0.26297 0.69419 0.0
N645 N 0.644 0.26616 0.67357 0.0
N646 N 0.63309 0.27543 0.65306 0.0
C647 C 0.63263 0.27428 0.66801 0.0
C648 C 0.64534 0.26766 0.64902 0.0
C649 C 0.65198 0.26186 0.66167 0.0
O650 O 0.62556 0.25559 0.69861 0.0
C651 C 0.66634 0.2849 0.69662 0.0
O652 O 0.67081 0.27691 0.68527 0.0
H653 H 0.62425 0.27946 0.67494 0.0
H654 H 0.66193 0.25508 0.66214 0.0
N655 N 0.65994 0.24929 0.70148 0.0
N656 N 0.6745 0.23937 0.71927 0.0
C657 C 0.66386 0.24947 0.71594 0.0
C658 C 0.66846 0.23867 0.69525 0.0
C659 C 0.67739 0.23248 0.70622 0.0
C660 C 0.62325 0.24173 0.70096 0.0
O661 O 0.63444 0.23334 0.70515 0.0
H662 H 0.65878 0.25692 0.7239 0.0
H663 H 0.66829 0.23572 0.68361 0.0
O664 O 0.65387 0.28154 0.70269 0.0
H665 H 0.64915 0.26612 0.63773 0.0
H666 H 0.68555 0.22376 0.7046 0.0
Cu667 Cu 0.5144 0.12961 0.57859 0.0
N668 N 0.51781 0.13178 0.59916 0.0
N669 N 0.52691 0.14331 0.6194 0.0
C670 C 0.52592 0.14326 0.60443 0.0
C671 C 0.51905 0.13125 0.62375 0.0
C672 C 0.51336 0.12422 0.61126 0.0
O673 O 0.50659 0.14955 0.5738 0.0
C674 C 0.53611 0.10881 0.57614 0.0
O675 O 0.52826 0.10466 0.58771 0.0
H676 H 0.5311 0.15142 0.59728 0.0
H677 H 0.50644 0.11439 0.61105 0.0
N678 N 0.50037 0.11574 0.57147 0.0
N679 N 0.48947 0.10195 0.55371 0.0
C680 C 0.5004 0.11168 0.55704 0.0
C681 C 0.48901 0.10817 0.57764 0.0
C682 C 0.48218 0.09976 0.56666 0.0
C683 C 0.49356 0.15164 0.57924 0.0
O684 O 0.48684 0.14045 0.58572 0.0
H685 H 0.50822 0.11607 0.54902 0.0
H686 H 0.48583 0.10883 0.58919 0.0
O687 O 0.53278 0.12121 0.56992 0.0
H688 H 0.5173 0.12789 0.63515 0.0
H689 H 0.47268 0.09252 0.56812 0.0
Cu690 Cu 0.37997 0.26274 0.69347 0.0
N691 N 0.38195 0.25909 0.67293 0.0
N692 N 0.39332 0.25001 0.65257 0.0
C693 C 0.39351 0.25112 0.66753 0.0
C694 C 0.38103 0.25763 0.64836 0.0
C695 C 0.37411 0.26332 0.66092 0.0
O696 O 0.39957 0.27164 0.69791 0.0
C697 C 0.36026 0.24018 0.69648 0.0
O698 O 0.35578 0.24743 0.68464 0.0
H699 H 0.4019 0.24615 0.67458 0.0
H700 H 0.36414 0.27008 0.66124 0.0
N701 N 0.3654 0.27613 0.70054 0.0
N702 N 0.35097 0.28637 0.7182 0.0
C703 C 0.36123 0.27589 0.71494 0.0
C704 C 0.35733 0.28713 0.69433 0.0
C705 C 0.34852 0.29356 0.70525 0.0
C706 C 0.40085 0.2846 0.69212 0.0
O707 O 0.38922 0.29044 0.68551 0.0
H708 H 0.36592 0.26827 0.72298 0.0
H709 H 0.3579 0.29034 0.68278 0.0
O710 O 0.37251 0.24422 0.70258 0.0
H711 H 0.37742 0.25923 0.63701 0.0
H712 H 0.34085 0.30273 0.70375 0.0
Cu713 Cu 0.514 0.39767 0.57879 0.0
N714 N 0.51078 0.39549 0.59935 0.0
N715 N 0.50149 0.38378 0.6194 0.0
C716 C 0.49986 0.3867 0.60476 0.0
C717 C 0.51401 0.39113 0.62336 0.0
C718 C 0.51974 0.39826 0.61098 0.0
O719 O 0.52257 0.37796 0.57414 0.0
C720 C 0.4902 0.41664 0.57694 0.0
O721 O 0.49631 0.42024 0.58968 0.0
H722 H 0.49149 0.38164 0.59776 0.0
H723 H 0.53016 0.40424 0.61032 0.0
N724 N 0.5273 0.41238 0.57203 0.0
N725 N 0.53677 0.42683 0.55397 0.0
C726 C 0.53123 0.41333 0.55757 0.0
C727 C 0.53053 0.42578 0.57785 0.0
C728 C 0.5364 0.43469 0.56675 0.0
C729 C 0.53655 0.37661 0.57674 0.0
O730 O 0.54431 0.3886 0.57969 0.0
H731 H 0.5287 0.40474 0.54955 0.0
H732 H 0.52766 0.42924 0.58898 0.0
O733 O 0.49534 0.40529 0.56999 0.0
H734 H 0.51898 0.39098 0.6343 0.0
H735 H 0.53945 0.44628 0.56785 0.0
Cu736 Cu 0.83016 0.64695 0.76124 0.0
N737 N 0.8507 0.64453 0.75751 0.0
N738 N 0.87075 0.63297 0.74779 0.0
C739 C 0.85579 0.63482 0.74725 0.0
C740 C 0.87522 0.64206 0.75891 0.0
C741 C 0.86286 0.64907 0.76493 0.0
O742 O 0.82551 0.62754 0.77036 0.0
C743 C 0.82796 0.66537 0.73724 0.0
O744 O 0.84086 0.66897 0.74306 0.0
H745 H 0.84845 0.62891 0.73979 0.0
H746 H 0.86269 0.65642 0.77444 0.0
N747 N 0.82365 0.66201 0.77429 0.0
N748 N 0.80564 0.67663 0.78376 0.0
C749 C 0.80924 0.66299 0.77853 0.0
C750 C 0.82945 0.67553 0.77699 0.0
C751 C 0.81839 0.68455 0.78287 0.0
C752 C 0.82872 0.62654 0.78419 0.0
O753 O 0.83243 0.63868 0.79138 0.0
H754 H 0.8012 0.65428 0.77643 0.0
H755 H 0.84052 0.67899 0.77376 0.0
O756 O 0.82098 0.6542 0.74268 0.0
H757 H 0.88653 0.64312 0.7629 0.0
H758 H 0.81948 0.69623 0.78554 0.0
Cu759 Cu 0.89886 0.9438 0.50978 0.0
N760 N 0.89711 0.92321 0.51367 0.0
N761 N 0.88571 0.90301 0.523 0.0
C762 C 0.88458 0.91764 0.51984 0.0
C763 C 0.89954 0.89911 0.51856 0.0
C764 C 0.9065 0.91156 0.51266 0.0
O765 O 0.87931 0.94786 0.50059 0.0
C766 C 0.91852 0.94791 0.53215 0.0
O767 O 0.92383 0.93666 0.52453 0.0
H768 H 0.87495 0.9244 0.52247 0.0
H769 H 0.91771 0.9121 0.50831 0.0
N770 N 0.91343 0.95103 0.49653 0.0
N771 N 0.92748 0.969 0.48633 0.0
C772 C 0.91697 0.96562 0.49647 0.0
C773 C 0.92216 0.94482 0.48607 0.0
C774 C 0.93074 0.95593 0.47965 0.0
C775 C 0.87838 0.94216 0.48757 0.0
O776 O 0.89031 0.93599 0.48184 0.0
H777 H 0.91168 0.97369 0.50368 0.0
H778 H 0.92224 0.93313 0.48326 0.0
O779 O 0.90586 0.9533 0.5283 0.0
H780 H 0.90429 0.88809 0.51957 0.0
H781 H 0.93885 0.95447 0.47088 0.0
Cu782 Cu 0.19474 0.87798 0.76104 0.0
N783 N 0.17422 0.88044 0.7572 0.0
N784 N 0.15431 0.89238 0.74768 0.0
C785 C 0.16928 0.89063 0.74734 0.0
C786 C 0.14965 0.8827 0.7582 0.0
C787 C 0.16193 0.87545 0.76411 0.0
O788 O 0.19954 0.89742 0.77009 0.0
C789 C 0.19719 0.85845 0.73823 0.0
O790 O 0.18478 0.85466 0.74494 0.0
H791 H 0.17674 0.89693 0.74034 0.0
H792 H 0.16192 0.86761 0.77321 0.0
N793 N 0.20141 0.8633 0.77443 0.0
N794 N 0.21886 0.84886 0.78507 0.0
C795 C 0.21596 0.85956 0.77496 0.0
C796 C 0.19472 0.85454 0.78454 0.0
C797 C 0.2055 0.84571 0.79121 0.0
C798 C 0.19403 0.89857 0.78318 0.0
O799 O 0.1875 0.88689 0.78897 0.0
H800 H 0.22434 0.86479 0.76809 0.0
H801 H 0.18293 0.85458 0.78694 0.0
O802 O 0.20389 0.87024 0.74266 0.0
H803 H 0.13826 0.88138 0.76188 0.0
H804 H 0.2036 0.83748 0.79977 0.0
Cu805 Cu 0.12826 0.57913 0.5139 0.0
N806 N 0.12839 0.5994 0.51921 0.0
N807 N 0.13847 0.61988 0.52938 0.0
C808 C 0.14104 0.60633 0.52343 0.0
C809 C 0.12354 0.62163 0.52877 0.0
C810 C 0.11734 0.60902 0.52241 0.0
O811 O 0.14764 0.57681 0.50363 0.0
C812 C 0.11753 0.57265 0.54319 0.0
O813 O 0.12043 0.58654 0.54658 0.0
H814 H 0.15187 0.60106 0.52309 0.0
H815 H 0.10561 0.60666 0.5211 0.0
N816 N 0.11305 0.5722 0.50128 0.0
N817 N 0.09863 0.55454 0.49109 0.0
C818 C 0.10963 0.5576 0.5008 0.0
C819 C 0.10375 0.57875 0.49154 0.0
C820 C 0.09493 0.56782 0.4851 0.0
C821 C 0.14801 0.5802 0.48982 0.0
O822 O 0.13545 0.58296 0.48294 0.0
H823 H 0.11535 0.54927 0.50734 0.0
H824 H 0.10349 0.59054 0.48916 0.0
O825 O 0.12345 0.56705 0.53154 0.0
H826 H 0.11748 0.63113 0.53305 0.0
H827 H 0.0864 0.56953 0.47679 0.0
Cu828 Cu 0.82885 0.38032 0.76402 0.0
N829 N 0.84914 0.38132 0.76927 0.0
N830 N 0.86951 0.39202 0.77912 0.0
C831 C 0.85509 0.39377 0.7752 0.0
C832 C 0.87279 0.37781 0.77542 0.0
C833 C 0.86023 0.37125 0.76929 0.0
O834 O 0.82589 0.39943 0.75361 0.0
C835 C 0.82291 0.3683 0.79274 0.0
O836 O 0.83722 0.36997 0.79515 0.0
H837 H 0.84869 0.4038 0.77708 0.0
H838 H 0.85918 0.3599 0.76546 0.0
N839 N 0.8224 0.36511 0.75117 0.0
N840 N 0.80505 0.35048 0.74069 0.0
C841 C 0.80785 0.36137 0.75059 0.0
C842 C 0.82917 0.35613 0.74128 0.0
C843 C 0.81845 0.34718 0.73469 0.0
C844 C 0.83209 0.39992 0.74081 0.0
O845 O 0.83837 0.38782 0.7356 0.0
H846 H 0.79938 0.36683 0.75718 0.0
H847 H 0.84099 0.35616 0.73893 0.0
O848 O 0.81698 0.37496 0.78166 0.0
H849 H 0.88346 0.37246 0.77707 0.0
H850 H 0.82039 0.33882 0.72625 0.0
Cu851 Cu 0.6292 0.94424 0.50946 0.0
N852 N 0.63085 0.92373 0.50511 0.0
N853 N 0.64134 0.90345 0.49484 0.0
C854 C 0.64232 0.91828 0.49706 0.0
C855 C 0.62868 0.89937 0.50186 0.0
C856 C 0.62229 0.91187 0.50828 0.0
O857 O 0.64853 0.94821 0.51915 0.0
C858 C 0.61008 0.94822 0.48662 0.0
O859 O 0.60511 0.93642 0.49359 0.0
H860 H 0.6511 0.92522 0.49263 0.0
H861 H 0.61209 0.91228 0.51464 0.0
N862 N 0.61439 0.95117 0.52263 0.0
N863 N 0.60017 0.96891 0.5331 0.0
C864 C 0.61054 0.9657 0.52274 0.0
C865 C 0.60601 0.94483 0.53327 0.0
C866 C 0.59731 0.95579 0.53984 0.0
C867 C 0.64932 0.94162 0.53174 0.0
O868 O 0.63756 0.93437 0.53646 0.0
H869 H 0.61559 0.97387 0.5155 0.0
H870 H 0.6063 0.93317 0.53619 0.0
O871 O 0.62234 0.95402 0.49106 0.0
H872 H 0.62438 0.88814 0.5024 0.0
H873 H 0.58947 0.95421 0.54882 0.0
Cu874 Cu 0.19755 0.14685 0.7657 0.0
N875 N 0.1773 0.14549 0.77107 0.0
N876 N 0.1571 0.13448 0.78101 0.0
C877 C 0.1718 0.13332 0.77792 0.0
C878 C 0.1532 0.14806 0.7758 0.0
C879 C 0.16565 0.1548 0.76964 0.0
O880 O 0.20074 0.1279 0.75505 0.0
C881 C 0.2034 0.15918 0.79426 0.0
O882 O 0.18903 0.15776 0.79646 0.0
H883 H 0.17867 0.12387 0.78084 0.0
H884 H 0.16617 0.16568 0.76456 0.0
N885 N 0.20383 0.16214 0.75283 0.0
N886 N 0.22114 0.17667 0.74216 0.0
C887 C 0.21834 0.16601 0.75231 0.0
C888 C 0.19708 0.17077 0.74264 0.0
C889 C 0.20778 0.17966 0.73593 0.0
C890 C 0.19387 0.12739 0.7426 0.0
O891 O 0.18669 0.13927 0.73808 0.0
H892 H 0.22682 0.16075 0.75905 0.0
H893 H 0.18531 0.17049 0.74008 0.0
O894 O 0.2094 0.15235 0.78331 0.0
H895 H 0.14213 0.1528 0.77627 0.0
H896 H 0.20588 0.18772 0.72721 0.0
Cu897 Cu 0.39556 0.58052 0.51148 0.0
N898 N 0.39364 0.60113 0.50814 0.0
N899 N 0.38252 0.62127 0.4982 0.0
C900 C 0.38517 0.6065 0.49697 0.0
C901 C 0.38975 0.62536 0.51072 0.0
C902 C 0.39652 0.61293 0.51686 0.0
O903 O 0.37514 0.576 0.51819 0.0
C904 C 0.41669 0.57851 0.49008 0.0
O905 O 0.42051 0.59024 0.49789 0.0
H906 H 0.38016 0.5994 0.48866 0.0
H907 H 0.40238 0.61241 0.52733 0.0
N908 N 0.40918 0.57373 0.5259 0.0
N909 N 0.4231 0.55623 0.53714 0.0
C910 C 0.41528 0.56002 0.52492 0.0
C911 C 0.4134 0.57896 0.53925 0.0
C912 C 0.42195 0.56816 0.54622 0.0
C913 C 0.37229 0.57136 0.53131 0.0
O914 O 0.38266 0.56413 0.53862 0.0
H915 H 0.41323 0.5526 0.51569 0.0
H916 H 0.40993 0.58951 0.54387 0.0
O917 O 0.40441 0.57202 0.4933 0.0
H918 H 0.3898 0.63644 0.51541 0.0
H919 H 0.42665 0.56892 0.55726 0.0
Cu920 Cu 0.76361 0.83093 0.64475 0.0
N921 N 0.76023 0.85158 0.64319 0.0
N922 N 0.75113 0.87176 0.63141 0.0
C923 C 0.75007 0.85689 0.6335 0.0
C924 C 0.76242 0.87599 0.64042 0.0
C925 C 0.76808 0.86353 0.64757 0.0
O926 O 0.77109 0.82685 0.62454 0.0
C927 C 0.74198 0.82851 0.66546 0.0
O928 O 0.74995 0.84 0.66965 0.0
H929 H 0.74247 0.84969 0.6276 0.0
H930 H 0.77775 0.86313 0.65469 0.0
N931 N 0.77773 0.82338 0.65831 0.0
N932 N 0.78831 0.80533 0.672 0.0
C933 C 0.77716 0.80902 0.66266 0.0
C934 C 0.78967 0.82912 0.6653 0.0
C935 C 0.7963 0.81795 0.67365 0.0
C936 C 0.7837 0.83315 0.62232 0.0
O937 O 0.79038 0.83941 0.63366 0.0
H938 H 0.76882 0.80129 0.65872 0.0
H939 H 0.7934 0.8405 0.6643 0.0
O940 O 0.74521 0.82231 0.65305 0.0
H941 H 0.76689 0.88712 0.64121 0.0
H942 H 0.80616 0.81906 0.68046 0.0
Cu943 Cu 0.76153 0.19779 0.87617 0.0
N944 N 0.75599 0.17758 0.87738 0.0
N945 N 0.7456 0.15738 0.88791 0.0
C946 C 0.74963 0.17177 0.88968 0.0
C947 C 0.74973 0.15399 0.87388 0.0
C948 C 0.75617 0.16641 0.86744 0.0
O949 O 0.77224 0.20074 0.89509 0.0
C950 C 0.7326 0.20387 0.86479 0.0
O951 O 0.72985 0.18975 0.8672 0.0
H952 H 0.74748 0.17824 0.89958 0.0
H953 H 0.76034 0.16727 0.85623 0.0
N954 N 0.77391 0.20385 0.86042 0.0
N955 N 0.78264 0.22203 0.8456 0.0
C956 C 0.77908 0.21795 0.85961 0.0
C957 C 0.77424 0.19879 0.84636 0.0
C958 C 0.77971 0.2099 0.83725 0.0
C959 C 0.78598 0.1969 0.89528 0.0
O960 O 0.7925 0.19352 0.88268 0.0
H961 H 0.77861 0.2256 0.86887 0.0
H962 H 0.76944 0.1884 0.84272 0.0
O963 O 0.74393 0.20981 0.87103 0.0
H964 H 0.74815 0.14331 0.86856 0.0
H965 H 0.78054 0.20938 0.82528 0.0
Cu966 Cu 0.44481 0.0134 0.39511 0.0
N967 N 0.42416 0.01669 0.39302 0.0
N968 N 0.40372 0.02552 0.38155 0.0
C969 C 0.41874 0.02455 0.38145 0.0
C970 C 0.39949 0.01792 0.3938 0.0
C971 C 0.41211 1.01239 0.40079 0.0
O972 O 0.44958 1.00492 0.37547 0.0
C973 C 0.44725 0.03581 0.41507 0.0
O974 O 0.43562 0.02817 0.41951 0.0
H975 H 0.42581 0.02958 0.37312 0.0
H976 H 0.41245 1.00569 0.41076 0.0
N977 N 0.4521 0.99985 0.40935 0.0
N978 N 0.47014 0.98943 0.42318 0.0
C979 C 0.46653 1.00033 0.41355 0.0
C980 C 0.44624 0.98825 0.41676 0.0
C981 C 0.4574 0.9817 0.4252 0.0
C982 C 0.44373 0.99203 0.37381 0.0
O983 O 0.43675 0.98603 0.3851 0.0
H984 H 0.47438 1.00836 0.40921 0.0
H985 H 0.43479 0.98462 0.41589 0.0
O986 O 0.45349 0.03202 0.40284 0.0
H987 H 0.3881 0.01626 0.39734 0.0
H988 H 0.45623 0.97204 0.43226 0.0
Cu989 Cu 0.2643 0.32975 0.87775 0.0
N990 N 0.26824 0.35022 0.88038 0.0
N991 N 0.2778 0.37023 0.89197 0.0
C992 C 0.2767 0.35523 0.89172 0.0
C993 C 0.26964 0.37486 0.88024 0.0
C994 C 0.26365 0.36252 0.87318 0.0
O995 O 0.25509 0.32502 0.89708 0.0
C996 C 0.28873 0.32725 0.85955 0.0
O997 O 0.28391 0.34071 0.8566 0.0
H998 H 0.28202 0.3479 0.89963 0.0
H999 H 0.25643 0.36254 0.86358 0.0
N1000 N 0.25113 0.32358 0.86269 0.0
N1001 N 0.24182 0.30555 0.84805 0.0
C1002 C 0.24654 0.30928 0.8618 0.0
C1003 C 0.24919 0.32915 0.84897 0.0
C1004 C 0.24339 0.3181 0.83995 0.0
C1005 C 0.24132 0.32865 0.89815 0.0
O1006 O 0.23422 0.33287 0.88613 0.0
H1007 H 0.24817 0.30135 0.87069 0.0
H1008 H 0.25303 0.33996 0.84539 0.0
O1009 O 0.2827 0.32017 0.87034 0.0
H1010 H 0.26784 0.38634 0.87713 0.0
H1011 H 0.24134 0.31901 0.82815 0.0
Cu1012 Cu 0.0822 0.01266 0.89578 0.0
N1013 N 0.10285 1.00964 0.89366 0.0
N1014 N 0.12292 1.00066 0.88155 0.0
C1015 C 0.10823 0.99899 0.88455 0.0
C1016 C 0.12693 0.01289 0.88935 0.0
C1017 C 0.11454 0.01845 0.89668 0.0
O1018 O 0.07749 0.01946 0.87548 0.0
C1019 C 0.08055 0.99058 0.91645 0.0
O1020 O 0.09253 0.99803 0.92026 0.0
H1021 H 0.10116 0.99063 0.8796 0.0
H1022 H 0.11392 0.02872 0.9029 0.0
N1023 N 0.07536 0.02697 0.90946 0.0
N1024 N 0.05779 0.0383 0.92322 0.0
C1025 C 0.06148 0.02618 0.91517 0.0
C1026 C 0.08083 0.04007 0.91418 0.0
C1027 C 0.06999 0.0471 0.92264 0.0
C1028 C 0.07341 0.03284 0.87279 0.0
O1029 O 0.06668 0.04041 0.88328 0.0
H1030 H 0.0539 0.01716 0.91271 0.0
H1031 H 0.09159 0.0445 0.91116 0.0
O1032 O 0.07387 0.9943 0.90443 0.0
H1033 H 0.13779 0.01805 0.8891 0.0
H1034 H 0.07093 0.05798 0.92769 0.0
Cu1035 Cu 0.76557 0.19352 0.14514 0.0
N1036 N 0.76922 0.17297 0.14282 0.0
N1037 N 0.77836 0.15284 0.13106 0.0
C1038 C 0.77737 0.16784 0.13131 0.0
C1039 C 0.77047 0.14832 0.14303 0.0
C1040 C 0.76476 0.16075 0.1502 0.0
O1041 O 0.75676 0.1983 0.12565 0.0
C1042 C 0.78863 0.19607 0.16452 0.0
O1043 O 0.78175 0.18393 0.16879 0.0
H1044 H 0.78252 0.17511 0.12324 0.0
H1045 H 0.75777 0.16084 0.15998 0.0
N1046 N 0.75209 0.20049 0.15963 0.0
N1047 N 0.74147 0.21826 0.17366 0.0
C1048 C 0.75229 0.21491 0.16382 0.0
C1049 C 0.74075 0.19436 0.16725 0.0
C1050 C 0.73409 0.20535 0.17582 0.0
C1051 C 0.74385 0.19242 0.12411 0.0
O1052 O 0.73798 0.18542 0.13545 0.0
H1053 H 0.76006 0.22293 0.15934 0.0
H1054 H 0.73738 0.18284 0.16644 0.0
O1055 O 0.78413 0.20252 0.15264 0.0
H1056 H 0.76867 0.13686 0.14622 0.0
H1057 H 0.72458 0.20394 0.18306 0.0
Cu1058 Cu 0.44844 1.01104 0.12671 0.0
N1059 N 0.42849 1.00456 0.12806 0.0
N1060 N 0.40859 0.99367 0.13866 0.0
C1061 C 0.42296 0.99785 0.1403 0.0
C1062 C 0.40491 0.99805 0.12478 0.0
C1063 C 0.41715 1.0048 0.1183 0.0
O1064 O 0.45097 0.02261 0.14519 0.0
C1065 C 0.45615 0.98244 0.11579 0.0
O1066 O 0.44204 0.97917 0.11767 0.0
H1067 H 0.42958 0.99571 0.15011 0.0
H1068 H 0.41772 1.0094 0.10724 0.0
N1069 N 0.45388 0.02294 0.11042 0.0
N1070 N 0.47188 0.03142 0.09521 0.0
C1071 C 0.46776 0.02868 0.10939 0.0
C1072 C 0.449 0.02207 0.09632 0.0
C1073 C 0.45999 0.02738 0.08696 0.0
C1074 C 0.44694 0.03627 0.14486 0.0
O1075 O 0.44343 0.04225 0.13204 0.0
H1076 H 0.47534 0.02909 0.11872 0.0
H1077 H 0.43894 0.01646 0.0929 0.0
O1078 O 0.46142 0.99398 0.12223 0.0
H1079 H 0.39414 0.99654 0.11963 0.0
H1080 H 0.45963 0.02728 0.07495 0.0
Cu1081 Cu 0.57972 0.51163 0.12628 0.0
N1082 N 0.60023 0.5156 0.12874 0.0
N1083 N 0.62031 0.52524 0.14017 0.0
C1084 C 0.60532 0.52386 0.1402 0.0
C1085 C 0.62486 0.51746 0.12814 0.0
C1086 C 0.61247 0.51143 0.12119 0.0
O1087 O 0.57516 0.50244 0.14566 0.0
C1088 C 0.57699 0.53564 0.10777 0.0
O1089 O 0.59004 0.53013 0.10421 0.0
H1090 H 0.59805 0.52889 0.14836 0.0
H1091 H 0.61243 0.5045 0.11137 0.0
N1092 N 0.5734 0.49842 0.11131 0.0
N1093 N 0.55536 0.48897 0.09676 0.0
C1094 C 0.55904 0.49398 0.11043 0.0
C1095 C 0.57907 0.49605 0.09769 0.0
C1096 C 0.568 0.49018 0.08872 0.0
C1097 C 0.57899 0.48873 0.1467 0.0
O1098 O 0.58332 0.48173 0.13466 0.0
H1099 H 0.55105 0.49587 0.11923 0.0
H1100 H 0.58999 0.49959 0.09411 0.0
O1101 O 0.57017 0.53006 0.11897 0.0
H1102 H 0.63632 0.51603 0.12472 0.0
H1103 H 0.56898 0.4878 0.07699 0.0
C1104 C 0.22753 0.30739 0.17971 0.0
C1105 C 0.22776 0.32264 0.17628 0.0
C1106 C 0.21993 0.30224 0.19242 0.0
C1107 C 0.19276 0.31428 0.22213 0.0
H1108 H 0.21309 0.2849 0.24621 0.0
C1109 C 0.17866 0.30582 0.28445 0.0
C1110 C 0.17772 0.29114 0.28979 0.0
C1111 C 0.18415 0.30879 0.27015 0.0
C1112 C 0.20717 0.29302 0.23958 0.0
H1113 H 0.21965 0.34427 0.18309 0.0
H1114 H 0.20652 0.33548 0.20486 0.0
H1115 H 0.2227 0.291 0.22159 0.0
H1116 H 0.18237 0.26814 0.28427 0.0
H1117 H 0.19199 0.27331 0.25943 0.0
H1118 H 0.17748 0.31658 0.24028 0.0
C1119 C 0.21197 0.32733 0.19787 0.0
C1120 C 0.21265 0.29648 0.22536 0.0
C1121 C 0.21956 0.33242 0.18531 0.0
C1122 C 0.18277 0.27956 0.28051 0.0
C1123 C 0.18841 0.28254 0.26628 0.0
C1124 C 0.18738 0.31092 0.23636 0.0
C1125 C 0.21234 0.31222 0.20192 0.0
C1126 C 0.20565 0.30733 0.21647 0.0
C1127 C 0.18903 0.29719 0.2608 0.0
C1128 C 0.19459 0.30037 0.24539 0.0
H1129 H 0.23398 0.2996 0.17317 0.0
H1130 H 0.22035 0.29049 0.19502 0.0
H1131 H 0.1868 0.32245 0.2156 0.0
H1132 H 0.1748 0.31501 0.29119 0.0
H1133 H 0.18462 0.32023 0.26643 0.0
C1134 C 0.55486 0.54553 0.09325 0.0
C1135 C 0.57006 0.54612 0.09695 0.0
C1136 C 0.54951 0.55275 0.08039 0.0
C1137 C 0.56121 0.57971 0.05016 0.0
H1138 H 0.5315 0.55906 0.02679 0.0
C1139 C 0.55294 0.59048 0.98711 0.0
C1140 C 0.53827 0.5931 0.98234 0.0
C1141 C 0.55582 0.58534 1.00156 0.0
C1142 C 0.53975 0.56501 0.03323 0.0
H1143 H 0.59133 0.55537 0.09043 0.0
H1144 H 0.5823 0.56754 0.06834 0.0
H1145 H 0.53777 0.54998 0.05159 0.0
H1146 H 0.5151 0.59185 0.98887 0.0
H1147 H 0.5201 0.58248 0.01395 0.0
H1148 H 0.56362 0.59431 0.03148 0.0
C1149 C 0.57427 0.56184 0.07524 0.0
C1150 C 0.54329 0.55987 0.04755 0.0
C1151 C 0.57953 0.55475 0.08801 0.0
C1152 C 0.52653 0.59005 0.99224 0.0
C1153 C 0.52939 0.58461 1.00658 0.0
C1154 C 0.55788 0.58464 0.03577 0.0
C1155 C 0.55924 0.5607 0.07093 0.0
C1156 C 0.55425 0.56701 0.05622 0.0
C1157 C 0.54408 0.58238 0.01151 0.0
C1158 C 0.54723 0.57728 0.02704 0.0
H1159 H 0.5473 0.5388 0.09976 0.0
H1160 H 0.53782 0.55175 0.07768 0.0
H1161 H 0.56938 0.58587 0.05648 0.0
H1162 H 0.56222 0.59281 0.97981 0.0
H1163 H 0.56726 0.58365 1.00496 0.0
C1164 C 0.84296 0.24369 0.28068 0.0
C1165 C 0.8486 0.23201 0.28946 0.0
C1166 C 0.83742 0.24102 0.26635 0.0
C1167 C 0.83973 0.21392 0.23532 0.0
H1168 H 0.80346 0.23271 0.22142 0.0
C1169 C 0.80824 0.19285 0.18368 0.0
C1170 C 0.79957 0.20259 0.17506 0.0
C1171 C 0.8157 0.19782 0.19636 0.0
C1172 C 0.81377 0.22757 0.22496 0.0
H1173 H 0.85269 0.20827 0.28989 0.0
H1174 H 0.84304 0.20358 0.26496 0.0
H1175 H 0.81285 0.2383 0.24624 0.0
H1176 H 0.79237 0.22545 0.17279 0.0
H1177 H 0.80576 0.23436 0.19486 0.0
H1178 H 0.84076 0.20323 0.21412 0.0
C1179 C 0.84297 0.21487 0.26914 0.0
C1180 C 0.81913 0.23073 0.23928 0.0
C1181 C 0.84836 0.21753 0.28354 0.0
C1182 C 0.7992 0.21772 0.17901 0.0
C1183 C 0.80666 0.22274 0.19185 0.0
C1184 C 0.83446 0.21085 0.22099 0.0
C1185 C 0.8375 0.22659 0.26028 0.0
C1186 C 0.83206 0.22376 0.24477 0.0
C1187 C 0.81472 0.21276 0.20095 0.0
C1188 C 0.82123 0.2174 0.21563 0.0
H1189 H 0.84281 0.25496 0.2849 0.0
H1190 H 0.83338 0.25033 0.25989 0.0
H1191 H 0.8499 0.20858 0.23899 0.0
H1192 H 0.80859 0.18109 0.18106 0.0
H1193 H 0.82153 0.18968 0.20304 0.0
C1194 C 0.49532 0.94914 0.9887 0.0
C1195 C 0.49107 0.93477 0.98412 0.0
C1196 C 0.49257 0.95407 1.00326 0.0
C1197 C 0.46875 0.94669 0.03624 0.0
H1198 H 0.49853 0.96936 0.05761 0.0
C1199 C 0.4597 0.96142 0.09788 0.0
C1200 C 0.46395 0.97562 0.10284 0.0
C1201 C 0.46429 0.95607 0.084 0.0
C1202 C 0.49 0.96318 0.0518 0.0
H1203 H 0.48039 0.91446 0.99139 0.0
H1204 H 0.47558 0.92301 0.01666 0.0
H1205 H 0.50352 0.96116 0.03223 0.0
H1206 H 0.47683 0.99516 0.09713 0.0
H1207 H 0.48471 0.98595 0.07284 0.0
H1208 H 0.45509 0.94889 0.05554 0.0
C1209 C 0.48102 0.93052 1.009 0.0
C1210 C 0.49287 0.95846 0.03718 0.0
C1211 C 0.48388 0.92555 0.9945 0.0
C1212 C 0.47355 0.98406 0.09381 0.0
C1213 C 0.47802 0.97876 0.07979 0.0
C1214 C 0.46584 0.95148 0.05077 0.0
C1215 C 0.48536 0.94483 0.01364 0.0
C1216 C 0.48231 0.95008 0.02919 0.0
C1217 C 0.4731 0.96484 0.07447 0.0
C1218 C 0.47643 0.95973 0.05887 0.0
H1219 H 0.50104 0.95651 0.98114 0.0
H1220 H 0.49597 0.9652 1.00633 0.0
H1221 H 0.46021 0.94053 0.03041 0.0
H1222 H 0.45231 0.95462 0.10453 0.0
H1223 H 0.4606 0.94513 0.08061 0.0
C1224 C 0.21557 0.69761 0.34074 0.0
C1225 C 0.22606 0.70641 0.34828 0.0
C1226 C 0.2085 0.70275 0.3279 0.0
C1227 C 0.21372 0.73002 0.29712 0.0
H1228 H 0.17513 0.71499 0.28505 0.0
C1229 C 0.18425 0.74666 0.24156 0.0
C1230 C 0.17752 0.7351 0.23342 0.0
C1231 C 0.19 0.74413 0.25583 0.0
C1232 C 0.18597 0.71921 0.28819 0.0
H1233 H 0.23687 0.7279 0.34848 0.0
H1234 H 0.22409 0.73721 0.32623 0.0
H1235 H 0.18418 0.71011 0.31004 0.0
H1236 H 0.17167 0.71176 0.23403 0.0
H1237 H 0.18157 0.70735 0.25897 0.0
H1238 H 0.21527 0.73933 0.27521 0.0
C1239 C 0.22151 0.72614 0.33015 0.0
C1240 C 0.19123 0.71639 0.30258 0.0
C1241 C 0.22864 0.72093 0.34311 0.0
C1242 C 0.17686 0.72089 0.2399 0.0
C1243 C 0.18241 0.71841 0.25428 0.0
C1244 C 0.20835 0.73301 0.28276 0.0
C1245 C 0.21163 0.71694 0.32209 0.0
C1246 C 0.20533 0.72148 0.30724 0.0
C1247 C 0.18899 0.73001 0.26249 0.0
C1248 C 0.19451 0.72742 0.278 0.0
H1249 H 0.21344 0.6863 0.34431 0.0
H1250 H 0.20122 0.69515 0.32208 0.0
H1251 H 0.2247 0.734 0.30008 0.0
H1252 H 0.18503 0.75772 0.23688 0.0
H1253 H 0.19493 0.75334 0.26181 0.0
C1254 C 0.99681 0.59274 0.03151 0.0
C1255 C 0.98525 0.59817 0.0406 0.0
C1256 C 0.99387 0.58714 0.01726 0.0
C1257 C 0.96598 0.58897 0.98691 0.0
H1258 H 0.98496 0.55299 0.97258 0.0
C1259 C 0.94419 0.55731 0.93566 0.0
C1260 C 0.95383 0.54869 0.92687 0.0
C1261 C 0.94936 0.56483 0.94823 0.0
C1262 C 0.97976 0.56322 0.97623 0.0
H1263 H 0.96143 0.60182 0.04165 0.0
H1264 H 0.95627 0.59207 0.01684 0.0
H1265 H 0.991 0.56247 0.99726 0.0
H1266 H 0.97671 0.54163 0.92418 0.0
H1267 H 0.98596 0.55514 0.94604 0.0
H1268 H 0.9548 0.58985 0.96596 0.0
C1269 C 0.96768 0.59221 0.02073 0.0
C1270 C 0.98317 0.56863 0.99048 0.0
C1271 C 0.97061 0.59766 0.03506 0.0
C1272 C 0.96904 0.54843 0.93053 0.0
C1273 C 0.97427 0.55596 0.94326 0.0
C1274 C 0.96267 0.58366 0.97264 0.0
C1275 C 0.97927 0.58695 0.01157 0.0
C1276 C 0.97615 0.58145 0.99613 0.0
C1277 C 0.9644 0.56396 0.95254 0.0
C1278 C 0.96928 0.57053 0.96713 0.0
H1279 H 1.00821 0.59282 0.03543 0.0
H1280 H 1.0031 0.58326 1.01056 0.0
H1281 H 0.96058 0.59906 0.99071 0.0
H1282 H 0.93237 0.55758 0.93327 0.0
H1283 H 0.94128 0.57061 0.95505 0.0
C1284 C 0.82877 0.78352 0.23627 0.0
C1285 C 0.84364 0.78669 0.23245 0.0
C1286 C 0.8235 0.78602 0.25076 0.0
C1287 C 0.83111 0.80794 0.2848 0.0
H1288 H 0.8064 0.7787 0.30456 0.0
C1289 C 0.81441 0.81646 0.34602 0.0
C1290 C 0.80001 0.81236 0.35051 0.0
C1291 C 0.82013 0.81193 0.33226 0.0
C1292 C 0.81313 0.78711 0.29921 0.0
H1293 H 0.8645 0.79522 0.24095 0.0
H1294 H 0.85531 0.79974 0.26609 0.0
H1295 H 0.81508 0.77413 0.27926 0.0
H1296 H 0.78043 0.79989 0.34408 0.0
H1297 H 0.7902 0.79221 0.31996 0.0
H1298 H 0.82891 0.82115 0.30439 0.0
C1299 C 0.8477 0.79527 0.2579 0.0
C1300 C 0.81815 0.78445 0.28464 0.0
C1301 C 0.85302 0.79259 0.24349 0.0
C1302 C 0.7917 0.80301 0.34113 0.0
C1303 C 0.79733 0.79866 0.3272 0.0
C1304 C 0.82598 0.81067 0.29926 0.0
C1305 C 0.83288 0.79196 0.26179 0.0
C1306 C 0.82728 0.7948 0.27725 0.0
C1307 C 0.8115 0.80342 0.32233 0.0
C1308 C 0.81698 0.80027 0.3068 0.0
H1309 H 0.82126 0.77881 0.22815 0.0
H1310 H 0.812 0.78344 0.25328 0.0
H1311 H 0.83788 0.81631 0.27942 0.0
H1312 H 0.82109 0.8237 0.35295 0.0
H1313 H 0.83125 0.81548 0.32928 0.0
C1314 C 0.08448 0.9726 0.93708 0.0
C1315 C 0.07448 0.9798 0.92745 0.0
C1316 C 0.07945 0.96502 0.94966 0.0
C1317 C 0.04764 0.964 0.97602 0.0
H1318 H 0.06924 0.93023 0.99195 0.0
C1319 C 0.03044 0.9338 0.03084 0.0
C1320 C 0.04194 0.92933 0.04051 0.0
C1321 C 0.03363 0.93949 0.01667 0.0
C1322 C 0.06316 0.93975 0.98776 0.0
H1323 H 0.05116 0.98425 0.92333 0.0
H1324 H 0.04221 0.97068 0.94528 0.0
H1325 H 0.07548 0.93972 0.96742 0.0
H1326 H 0.06588 0.92751 0.0427 0.0
H1327 H 0.07147 0.93745 0.01808 0.0
H1328 H 0.03529 0.96394 0.99643 0.0
C1329 C 0.05406 0.97104 0.94311 0.0
C1330 C 0.06672 0.94521 0.97362 0.0
C1331 C 0.05915 0.97862 0.93037 0.0
C1332 C 0.05674 0.93091 0.03564 0.0
C1333 C 0.05993 0.93647 0.02142 0.0
C1334 C 0.044 0.95845 0.99015 0.0
C1335 C 0.06419 0.96439 0.95314 0.0
C1336 C 0.05921 0.9576 0.96759 0.0
C1337 C 0.04843 0.94076 0.01167 0.0
C1338 C 0.05186 0.94638 0.99634 0.0
H1339 H 0.09638 0.97339 0.93524 0.0
H1340 H 0.08768 0.96031 0.95707 0.0
H1341 H 0.0417 0.97365 0.97194 0.0
H1342 H 0.01891 0.93292 0.03422 0.0
H1343 H 0.02446 0.94259 1.00951 0.0
C1344 C 0.27993 0.18174 0.27689 0.0
C1345 C 0.29062 0.17984 0.28819 0.0
C1346 C 0.26565 0.18725 0.28012 0.0
C1347 C 0.2385 0.19077 0.31081 0.0
H1348 H 0.21998 0.22113 0.28645 0.0
C1349 C 0.18756 0.22392 0.33121 0.0
C1350 C 0.17713 0.22981 0.32116 0.0
C1351 C 0.20017 0.21628 0.32626 0.0
C1352 C 0.2248 0.21244 0.29324 0.0
H1353 H 0.29454 0.18234 0.31175 0.0
H1354 H 0.26961 0.19182 0.31743 0.0
H1355 H 0.24454 0.21146 0.27978 0.0
H1356 H 0.17159 0.23176 0.29787 0.0
H1357 H 0.19358 0.21796 0.28908 0.0
H1358 H 0.21884 0.19151 0.32418 0.0
C1359 C 0.27229 0.18903 0.30604 0.0
C1360 C 0.23898 0.20695 0.28944 0.0
C1361 C 0.28665 0.18373 0.30278 0.0
C1362 C 0.17929 0.22718 0.30592 0.0
C1363 C 0.19205 0.21948 0.3009 0.0
C1364 C 0.2243 0.19611 0.31451 0.0
C1365 C 0.26156 0.19082 0.29477 0.0
C1366 C 0.24615 0.19623 0.29834 0.0
C1367 C 0.20287 0.21418 0.31102 0.0
C1368 C 0.2173 0.20727 0.30598 0.0
H1369 H 0.28264 0.17902 0.2655 0.0
H1370 H 0.2577 0.18842 0.27116 0.0
H1371 H 0.2435 0.18229 0.31775 0.0
H1372 H 0.18632 0.22581 0.34303 0.0
H1373 H 0.20819 0.21267 0.33448 0.0
C1374 C 0.46981 0.58939 0.94276 0.0
C1375 C 0.47799 0.5986 0.95238 0.0
C1376 C 0.46259 0.57667 0.94797 0.0
C1377 C 0.46415 0.54932 0.97901 0.0
H1378 H 0.42962 0.53313 0.95887 0.0
C1379 C 0.43493 0.49394 0.99652 0.0
C1380 C 0.43069 0.48418 0.98505 0.0
C1381 C 0.44039 0.50821 0.99335 0.0
C1382 C 0.43934 0.53742 0.96454 0.0
H1383 H 0.48446 0.60188 0.97527 0.0
H1384 H 0.47137 0.57979 0.98461 0.0
H1385 H 0.43818 0.55809 0.95286 0.0
H1386 H 0.42901 0.48186 0.9612 0.0
H1387 H 0.4384 0.50681 0.95563 0.0
H1388 H 0.46506 0.5286 0.99085 0.0
C1389 C 0.47075 0.58233 0.97289 0.0
C1390 C 0.4443 0.5518 0.96109 0.0
C1391 C 0.47803 0.59519 0.96761 0.0
C1392 C 0.43226 0.48902 0.97029 0.0
C1393 C 0.4375 0.5034 0.96712 0.0
C1394 C 0.45905 0.53498 0.9826 0.0
C1395 C 0.46324 0.57263 0.96305 0.0
C1396 C 0.45697 0.55792 0.96804 0.0
C1397 C 0.44156 0.51324 0.97861 0.0
C1398 C 0.44673 0.52873 0.97523 0.0
H1399 H 0.46969 0.59159 0.93094 0.0
H1400 H 0.45721 0.56954 0.93992 0.0
H1401 H 0.47404 0.55343 0.9845 0.0
H1402 H 0.434 0.49053 1.008 0.0
H1403 H 0.44334 0.51546 1.00248 0.0
C1404 C 0.83623 0.29734 0.33258 0.0
C1405 C 0.84724 0.29244 0.3226 0.0
C1406 C 0.82355 0.30488 0.32762 0.0
C1407 C 0.8001 0.31027 0.29395 0.0
H1408 H 0.77979 0.33843 0.31954 0.0
C1409 C 0.7451 0.34098 0.27727 0.0
C1410 C 0.73392 0.34205 0.28821 0.0
C1411 C 0.75932 0.3355 0.28075 0.0
C1412 C 0.78524 0.3305 0.3123 0.0
H1413 H 0.85369 0.29213 0.29947 0.0
H1414 H 0.83159 0.30572 0.2907 0.0
H1415 H 0.80435 0.32927 0.32639 0.0
H1416 H 0.72908 0.33807 0.3114 0.0
H1417 H 0.75391 0.32862 0.31752 0.0
H1418 H 0.78091 0.31174 0.27978 0.0
C1419 C 0.83272 0.3035 0.30245 0.0
C1420 C 0.79939 0.3252 0.31623 0.0
C1421 C 0.84553 0.29591 0.30748 0.0
C1422 C 0.73736 0.33734 0.3027 0.0
C1423 C 0.75166 0.33205 0.30622 0.0
C1424 C 0.78597 0.31573 0.28993 0.0
C1425 C 0.82137 0.30786 0.31245 0.0
C1426 C 0.80697 0.31475 0.30729 0.0
C1427 C 0.76288 0.3311 0.29531 0.0
C1428 C 0.77822 0.32572 0.29919 0.0
H1429 H 0.8371 0.29482 0.34431 0.0
H1430 H 0.81513 0.30773 0.33572 0.0
H1431 H 0.80539 0.30214 0.28682 0.0
H1432 H 0.74282 0.34434 0.26597 0.0
H1433 H 0.76765 0.33499 0.27207 0.0
C1434 C 0.56098 0.932 0.94865 0.0
C1435 C 0.55086 0.92352 0.95708 0.0
C1436 C 0.56586 0.94593 0.95354 0.0
C1437 C 0.57341 0.97009 0.98444 0.0
H1438 H 0.56327 1.00251 0.95794 0.0
C1439 C 0.58915 0.03113 0.99904 0.0
C1440 C 0.59212 0.04117 0.98745 0.0
C1441 C 0.58337 0.01694 0.9961 0.0
C1442 C 0.5665 0.99366 0.9654 0.0
H1443 H 0.53861 0.92295 0.97782 0.0
H1444 H 0.54774 0.9472 0.98668 0.0
H1445 H 0.55554 0.97729 0.95195 0.0
H1446 H 0.59146 0.0441 0.96367 0.0
H1447 H 0.58213 0.01922 0.95836 0.0
H1448 H 0.5851 0.98612 0.99752 0.0
C1449 C 0.55164 0.94298 0.97611 0.0
C1450 C 0.56188 0.97917 0.962 0.0
C1451 C 0.54649 0.92905 0.97107 0.0
C1452 C 0.58911 0.03668 0.97284 0.0
C1453 C 0.58365 0.02235 0.96985 0.0
C1454 C 0.57835 0.98456 0.9877 0.0
C1455 C 0.56103 0.95174 0.96716 0.0
C1456 C 0.56531 0.9672 0.97143 0.0
C1457 C 0.58069 1.01216 0.98142 0.0
C1458 C 0.57506 0.99665 0.9782 0.0
H1459 H 0.56469 0.92819 0.93785 0.0
H1460 H 0.57321 0.95235 0.94648 0.0
H1461 H 0.57633 0.96106 0.99184 0.0
H1462 H 0.5912 0.03434 1.01044 0.0
H1463 H 0.58095 1.00978 1.00544 0.0
C1464 C 0.17927 0.7981 0.21727 0.0
C1465 C 0.17728 0.79537 0.20203 0.0
C1466 C 0.19223 0.80533 0.22242 0.0
C1467 C 0.22573 0.82698 0.20902 0.0
H1468 H 0.24437 0.81179 0.24472 0.0
C1469 C 0.28819 0.83691 0.2223 0.0
C1470 C 0.29166 0.8416 0.23678 0.0
C1471 C 0.2738 0.83194 0.21876 0.0
C1472 C 0.23926 0.81623 0.23477 0.0
H1473 H 0.18701 0.79872 0.18028 0.0
H1474 H 0.20925 0.81096 0.18906 0.0
H1475 H 0.21962 0.80298 0.23763 0.0
H1476 H 0.28279 0.84416 0.259 0.0
H1477 H 0.25781 0.83524 0.25289 0.0
H1478 H 0.2456 0.83981 0.20591 0.0
C1479 C 0.20094 0.80783 0.19718 0.0
C1480 C 0.22498 0.81125 0.23073 0.0
C1481 C 0.18812 0.80069 0.1921 0.0
C1482 C 0.28047 0.84078 0.24771 0.0
C1483 C 0.26616 0.83557 0.24423 0.0
C1484 C 0.24005 0.83177 0.21293 0.0
C1485 C 0.20344 0.81002 0.21244 0.0
C1486 C 0.21804 0.81639 0.21766 0.0
C1487 C 0.26256 0.83127 0.22966 0.0
C1488 C 0.2471 0.82635 0.22577 0.0
H1489 H 0.17125 0.79397 0.22524 0.0
H1490 H 0.19359 0.80695 0.23425 0.0
H1491 H 0.22073 0.83157 0.19909 0.0
H1492 H 0.29651 0.83747 0.21363 0.0
H1493 H 0.27146 0.82858 0.20745 0.0
C1494 C 0.09239 0.48878 0.05376 0.0
C1495 C 0.09621 0.48481 0.03915 0.0
C1496 C 0.0871 0.50312 0.05705 0.0
C1497 C 0.0692 0.53645 0.04047 0.0
H1498 H 0.0847 0.55649 0.07524 0.0
C1499 C 0.04929 0.5962 0.0569 0.0
C1500 C 0.04662 0.59838 0.07212 0.0
C1501 C 0.05692 0.5834 0.0519 0.0
C1502 C 0.08009 0.55106 0.06556 0.0
H1503 H 0.09692 0.49278 0.01646 0.0
H1504 H 0.08758 0.51769 0.02216 0.0
H1505 H 0.09385 0.53183 0.0688 0.0
H1506 H 0.05048 0.58916 0.094 0.0
H1507 H 0.06351 0.56722 0.08549 0.0
H1508 H 0.0551 0.5555 0.03747 0.0
C1509 C 0.08878 0.50975 0.03112 0.0
C1510 C 0.08538 0.53686 0.06186 0.0
C1511 C 0.09426 0.49548 0.02787 0.0
C1512 C 0.0524 0.58791 0.08219 0.0
C1513 C 0.05998 0.57526 0.07727 0.0
C1514 C 0.06377 0.55064 0.04426 0.0
C1515 C 0.08527 0.51385 0.04578 0.0
C1516 C 0.0799 0.52925 0.04937 0.0
C1517 C 0.06212 0.57256 0.06203 0.0
C1518 C 0.06896 0.5581 0.05701 0.0
H1519 H 0.09381 0.48089 0.06273 0.0
H1520 H 0.08437 0.5058 0.06845 0.0
H1521 H 0.06466 0.53092 0.0308 0.0
H1522 H 0.0448 0.60392 0.04883 0.0
H1523 H 0.05847 0.58186 0.04009 0.0
C1524 C 0.84171 0.71839 0.19372 0.0
C1525 C 0.85081 0.72693 0.20312 0.0
C1526 C 0.82889 0.7114 0.19905 0.0
C1527 C 0.80141 0.71359 0.23014 0.0
H1528 H 0.78491 0.67921 0.21004 0.0
C1529 C 0.74619 0.68358 0.24758 0.0
C1530 C 0.73606 0.68056 0.23604 0.0
C1531 C 0.76051 0.68901 0.2445 0.0
C1532 C 0.78932 0.68887 0.21572 0.0
H1533 H 0.85386 0.73419 0.22581 0.0
H1534 H 0.8317 0.7214 0.2354 0.0
H1535 H 0.80998 0.68749 0.20405 0.0
H1536 H 0.73307 0.68093 0.21222 0.0
H1537 H 0.75823 0.69008 0.20678 0.0
H1538 H 0.7807 0.71455 0.24211 0.0
C1539 C 0.83432 0.7204 0.22371 0.0
C1540 C 0.80375 0.69371 0.21226 0.0
C1541 C 0.84723 0.72753 0.2183 0.0
C1542 C 0.74057 0.68323 0.22134 0.0
C1543 C 0.75501 0.68836 0.21824 0.0
C1544 C 0.78705 0.70855 0.23381 0.0
C1545 C 0.82471 0.71255 0.21406 0.0
C1546 C 0.80996 0.70637 0.21914 0.0
C1547 C 0.76519 0.69126 0.22978 0.0
C1548 C 0.78071 0.6963 0.22643 0.0
H1549 H 0.84405 0.71776 0.18194 0.0
H1550 H 0.82186 0.70576 0.19109 0.0
H1551 H 0.80556 0.72347 0.23561 0.0
H1552 H 0.74301 0.68174 0.25902 0.0
H1553 H 0.76806 0.6911 0.25364 0.0
C1554 C 0.93132 0.03672 0.05394 0.0
C1555 C 0.92985 0.04174 0.03922 0.0
C1556 C 0.93681 0.02241 0.05702 0.0
C1557 C 0.95872 0.99105 0.04092 0.0
H1558 H 0.93978 0.96816 0.07205 0.0
C1559 C 0.97859 0.93092 0.05555 0.0
C1560 C 0.97986 0.92795 0.07081 0.0
C1561 C 0.97099 0.94373 0.05056 0.0
C1562 C 0.94533 0.97439 0.06339 0.0
H1563 H 0.93358 0.03563 0.01624 0.0
H1564 H 0.94312 1.01078 0.02159 0.0
H1565 H 0.93045 0.99286 0.06604 0.0
H1566 H 0.97359 0.93569 0.0927 0.0
H1567 H 0.96043 0.95762 0.08417 0.0
H1568 H 0.97381 0.97269 0.03849 0.0
C1569 C 0.93999 0.01788 0.03078 0.0
C1570 C 0.93995 0.98864 0.05995 0.0
C1571 C 0.93438 0.03213 0.0277 0.0
C1572 C 0.9727 0.93757 0.08085 0.0
C1573 C 0.9651 0.95021 0.07592 0.0
C1574 C 0.96417 0.97681 0.04443 0.0
C1575 C 0.94114 0.01272 0.04549 0.0
C1576 C 0.94667 0.99728 0.04879 0.0
C1577 C 0.96442 0.95376 0.06073 0.0
C1578 C 0.95769 0.96831 0.05587 0.0
H1579 H 0.92788 0.04371 0.0631 0.0
H1580 H 0.93771 0.01894 0.0685 0.0
H1581 H 0.96427 0.99738 0.03232 0.0
H1582 H 0.98421 0.92389 0.04755 0.0
H1583 H 0.97059 0.94596 0.03876 0.0
C1584 C 0.27714 0.28113 0.1826 0.0
C1585 C 0.28868 0.29152 0.18051 0.0
C1586 C 0.28019 0.26671 0.18775 0.0
C1587 C 0.31001 0.23858 0.18915 0.0
H1588 H 0.28722 0.22072 0.22103 0.0
C1589 C 0.33107 0.18681 0.2203 0.0
C1590 C 0.32114 0.17701 0.22733 0.0
C1591 C 0.32595 0.19945 0.21287 0.0
C1592 C 0.29353 0.22534 0.2119 0.0
H1593 H 0.31248 0.2948 0.18225 0.0
H1594 H 0.31786 0.26955 0.19101 0.0
H1595 H 0.28075 0.24557 0.21212 0.0
H1596 H 0.29786 0.17253 0.2315 0.0
H1597 H 0.28871 0.19448 0.218 0.0
H1598 H 0.32263 0.21841 0.18862 0.0
C1599 C 0.30642 0.27261 0.18872 0.0
C1600 C 0.28986 0.23969 0.20686 0.0
C1601 C 0.30334 0.28712 0.18382 0.0
C1602 C 0.30578 0.17971 0.22598 0.0
C1603 C 0.30059 0.19248 0.21847 0.0
C1604 C 0.31353 0.22418 0.19401 0.0
C1605 C 0.29489 0.26218 0.1907 0.0
C1606 C 0.29825 0.24661 0.19562 0.0
C1607 C 0.31065 0.20278 0.21214 0.0
C1608 C 0.30559 0.21741 0.20571 0.0
H1609 H 0.26572 0.28419 0.18029 0.0
H1610 H 0.27105 0.25898 0.18911 0.0
H1611 H 0.3165 0.24342 0.18026 0.0
H1612 H 0.34298 0.18514 0.22125 0.0
H1613 H 0.33416 0.20705 0.20844 0.0
C1614 C 0.30586 0.84412 0.29192 0.0
C1615 C 0.3166 0.85257 0.29955 0.0
C1616 C 0.3012 0.83023 0.29742 0.0
C1617 C 0.31404 0.80032 0.32366 0.0
H1618 H 0.27536 0.78316 0.31543 0.0
C1619 C 0.29473 0.74433 0.34963 0.0
C1620 C 0.28733 0.73417 0.34032 0.0
C1621 C 0.29791 0.75883 0.3448 0.0
C1622 C 0.28626 0.78774 0.31774 0.0
H1623 H 0.33007 0.85341 0.31944 0.0
H1624 H 0.32144 0.82981 0.32941 0.0
H1625 H 0.28077 0.80855 0.30746 0.0
H1626 H 0.27729 0.73156 0.3186 0.0
H1627 H 0.28278 0.75684 0.31021 0.0
H1628 H 0.31942 0.77958 0.33412 0.0
C1629 C 0.317 0.83348 0.31886 0.0
C1630 C 0.2894 0.80236 0.31312 0.0
C1631 C 0.32181 0.84721 0.31325 0.0
C1632 C 0.28317 0.73897 0.32603 0.0
C1633 C 0.28617 0.75356 0.32127 0.0
C1634 C 0.31083 0.78581 0.3284 0.0
C1635 C 0.30702 0.82446 0.3108 0.0
C1636 C 0.30337 0.80892 0.31599 0.0
C1637 C 0.2936 0.76371 0.33058 0.0
C1638 C 0.29692 0.77927 0.3255 0.0
H1639 H 0.30175 0.84777 0.28123 0.0
H1640 H 0.2936 0.82373 0.29075 0.0
H1641 H 0.32507 0.80464 0.32579 0.0
H1642 H 0.29814 0.74102 0.36067 0.0
H1643 H 0.30355 0.76633 0.35234 0.0
C1644 C 0.98689 0.4728 0.9365 0.0
C1645 C 0.98323 0.48733 0.93208 0.0
C1646 C 1.00117 0.46941 0.94192 0.0
C1647 C 0.04032 0.4845 0.9443 0.0
H1648 H 0.04465 0.45275 0.97303 0.0
C1649 C 0.0953 0.46919 0.97751 0.0
C1650 C 0.09817 0.45384 0.97862 0.0
C1651 C 0.08209 0.47434 0.9707 0.0
C1652 C 0.04366 0.46162 0.96494 0.0
H1653 H 0.99168 0.50981 0.93035 0.0
H1654 H 0.01631 0.50411 0.94021 0.0
H1655 H 0.01998 0.45957 0.9643 0.0
H1656 H 0.08999 0.43202 0.97254 0.0
H1657 H 0.06733 0.44091 0.96074 0.0
H1658 H 0.06418 0.48667 0.94543 0.0
C1659 C 1.00839 0.49512 0.93907 0.0
C1660 C 0.02945 0.46549 0.95982 0.0
C1661 C 0.99418 0.49844 0.93345 0.0
C1662 C 0.08813 0.44391 0.97191 0.0
C1663 C 0.07503 0.44899 0.96525 0.0
C1664 C 0.05458 0.48074 0.94963 0.0
C1665 C 1.01219 0.48052 0.94334 0.0
C1666 C 0.02749 0.47685 0.94923 0.0
C1667 C 0.07154 0.46421 0.96502 0.0
C1668 C 0.05644 0.46908 0.95984 0.0
H1669 H 0.97883 0.46393 0.93541 0.0
H1670 H 1.00359 0.45797 0.94472 0.0
H1671 H 0.03945 0.49319 0.93604 0.0
H1672 H 0.10267 0.47712 0.98278 0.0
H1673 H 0.07973 0.48615 0.97067 0.0
C1674 C 0.74557 0.78355 0.3248 0.0
C1675 C 0.74006 0.78901 0.3384 0.0
C1676 C 0.74251 0.76893 0.32019 0.0
C1677 C 0.71607 0.73769 0.32601 0.0
H1678 H 0.74699 0.71352 0.30808 0.0
C1679 C 0.70483 0.67603 0.31228 0.0
C1680 C 0.71061 0.67019 0.29899 0.0
C1681 C 0.70959 0.68984 0.31773 0.0
C1682 C 0.73814 0.72012 0.31291 0.0
H1683 H 0.72687 0.78328 0.35767 0.0
H1684 H 0.72146 0.75789 0.34963 0.0
H1685 H 0.75253 0.73897 0.3158 0.0
H1686 H 0.72649 0.67419 0.28135 0.0
H1687 H 0.73462 0.69836 0.29063 0.0
H1688 H 0.70157 0.71913 0.32288 0.0
C1689 C 0.72813 0.76491 0.34249 0.0
C1690 C 0.74134 0.73477 0.31736 0.0
C1691 C 0.73131 0.77946 0.34717 0.0
C1692 C 0.72189 0.67823 0.29169 0.0
C1693 C 0.72653 0.69218 0.29705 0.0
C1694 C 0.71284 0.72313 0.32147 0.0
C1695 C 0.73374 0.75938 0.32896 0.0
C1696 C 0.73037 0.74377 0.32404 0.0
C1697 C 0.72014 0.69843 0.30994 0.0
C1698 C 0.72382 0.71402 0.3149 0.0
H1699 H 0.75251 0.79046 0.31784 0.0
H1700 H 0.74693 0.76515 0.30966 0.0
H1701 H 0.70724 0.74432 0.33085 0.0
H1702 H 0.69618 0.67015 0.31824 0.0
H1703 H 0.70469 0.69392 0.32792 0.0
C1704 C 0.43842 0.58234 0.47342 0.0
C1705 C 0.42794 0.57247 0.47951 0.0
C1706 C 0.45114 0.57714 0.46615 0.0
C1707 C 0.47572 0.54377 0.46369 0.0
H1708 H 0.49531 0.56768 0.43368 0.0
C1709 C 0.53087 0.5264 0.43364 0.0
C1710 C 0.54187 0.53746 0.43224 0.0
C1711 C 0.51661 0.52987 0.43901 0.0
C1712 C 0.49005 0.56092 0.44213 0.0
H1713 H 0.42242 0.54921 0.48217 0.0
H1714 H 0.44454 0.53996 0.46897 0.0
H1715 H 0.47048 0.57447 0.44214 0.0
H1716 H 0.54644 0.56085 0.43547 0.0
H1717 H 0.52146 0.56701 0.44461 0.0
H1718 H 0.49534 0.53005 0.46333 0.0
C1719 C 0.443 0.55185 0.47008 0.0
C1720 C 0.47575 0.56482 0.44704 0.0
C1721 C 0.43015 0.55712 0.47743 0.0
C1722 C 0.53827 0.55207 0.43649 0.0
C1723 C 0.52391 0.5556 0.44161 0.0
C1724 C 0.48997 0.53974 0.45859 0.0
C1725 C 0.45388 0.5618 0.46462 0.0
C1726 C 0.46844 0.55652 0.45815 0.0
C1727 C 0.51286 0.54456 0.44287 0.0
C1728 C 0.49743 0.54842 0.44793 0.0
H1729 H 0.43713 0.59424 0.47487 0.0
H1730 H 0.45919 0.58526 0.46242 0.0
H1731 H 0.47067 0.53715 0.47236 0.0
H1732 H 0.53331 0.51501 0.43059 0.0
H1733 H 0.50839 0.5211 0.43979 0.0
C1734 C 0.22126 0.73666 0.68361 0.0
C1735 C 0.23601 0.73236 0.68063 0.0
C1736 C 0.21802 0.7509 0.68915 0.0
C1737 C 0.23469 0.78907 0.69451 0.0
H1738 H 0.20024 0.79423 0.71987 0.0
C1739 C 0.21897 0.84372 0.72788 0.0
C1740 C 0.20372 0.84739 0.72777 0.0
C1741 C 0.22403 0.83049 0.72108 0.0
C1742 C 0.20987 0.79303 0.71272 0.0
H1743 H 0.25896 0.73965 0.6816 0.0
H1744 H 0.25344 0.76421 0.69169 0.0
H1745 H 0.2067 0.76955 0.711 0.0
H1746 H 0.18211 0.84057 0.71956 0.0
H1747 H 0.19087 0.81787 0.70775 0.0
H1748 H 0.23794 0.8127 0.69674 0.0
C1749 C 0.24424 0.75682 0.68931 0.0
C1750 C 0.21355 0.7788 0.70751 0.0
C1751 C 0.24745 0.74264 0.68357 0.0
C1752 C 0.19392 0.8381 0.71988 0.0
C1753 C 0.19892 0.82497 0.71322 0.0
C1754 C 0.23109 0.80333 0.69993 0.0
C1755 C 0.22944 0.76126 0.69213 0.0
C1756 C 0.22591 0.77654 0.69814 0.0
C1757 C 0.21392 0.82067 0.71418 0.0
C1758 C 0.21849 0.80552 0.70892 0.0
H1759 H 0.21216 0.72913 0.68128 0.0
H1760 H 0.20645 0.75384 0.69081 0.0
H1761 H 0.24419 0.78798 0.6872 0.0
H1762 H 0.22677 0.85048 0.73409 0.0
H1763 H 0.23568 0.82751 0.72201 0.0
C1764 C 0.09579 0.55477 0.5426 0.0
C1765 C 0.1043 0.56545 0.55026 0.0
C1766 C 0.08173 0.55037 0.5479 0.0
C1767 C 0.05142 0.56364 0.57344 0.0
H1768 H 0.03454 0.52474 0.56592 0.0
C1769 C 0.99483 0.54495 0.59881 0.0
C1770 C 0.98499 0.53696 0.58963 0.0
C1771 C 1.00942 0.54812 0.59416 0.0
C1772 C 0.03902 0.53571 0.56801 0.0
H1773 H 0.10495 0.5791 0.57005 0.0
H1774 H 0.08096 0.57099 0.57962 0.0
H1775 H 0.06003 0.53006 0.55817 0.0
H1776 H 0.98306 0.5259 0.56834 0.0
H1777 H 1.00842 0.53142 0.56025 0.0
H1778 H 0.03046 0.5692 0.58343 0.0
C1779 C 0.08479 0.56638 0.56919 0.0
C1780 C 0.05371 0.53879 0.56353 0.0
C1781 C 0.09872 0.57091 0.5638 0.0
C1782 C 0.9902 0.53223 0.57565 0.0
C1783 C 1.00485 0.53525 0.57107 0.0
C1784 C 0.03681 0.56051 0.57803 0.0
C1785 C 0.07581 0.55639 0.56112 0.0
C1786 C 0.06018 0.55284 0.56616 0.0
C1787 C 0.01469 0.54324 0.58025 0.0
C1788 C 0.03036 0.54651 0.57537 0.0
H1789 H 0.0996 0.55042 0.53206 0.0
H1790 H 0.07526 0.54274 0.54123 0.0
H1791 H 0.0557 0.57472 0.57539 0.0
H1792 H 0.99121 0.54881 0.6096 0.0
H1793 H 0.01666 0.55418 0.60161 0.0
C1794 C 0.9312 0.97008 0.54401 0.0
C1795 C 0.92862 0.95468 0.54335 0.0
C1796 C 0.9438 0.9757 0.55152 0.0
C1797 C 0.97543 0.96397 0.57689 0.0
H1798 H 0.99646 0.9965 0.55808 0.0
C1799 C 0.03828 0.9754 0.58703 0.0
C1800 C 0.04219 0.99012 0.59054 0.0
C1801 C 0.02387 0.97197 0.58199 0.0
C1802 C 0.99068 0.98745 0.56351 0.0
H1803 H 0.9368 0.93324 0.55063 0.0
H1804 H 0.95841 0.94275 0.5634 0.0
H1805 H 0.9718 0.9894 0.54909 0.0
H1806 H 0.03417 0.01283 0.59097 0.0
H1807 H 1.00918 1.00692 0.58179 0.0
H1808 H 0.99465 0.96165 0.59085 0.0
C1809 C 0.95084 0.95071 0.55847 0.0
C1810 C 0.97643 0.98343 0.55844 0.0
C1811 C 0.93835 0.94518 0.55107 0.0
C1812 C 0.03148 1.00137 0.58847 0.0
C1813 C 0.01718 0.998 0.58314 0.0
C1814 C 0.98975 0.96781 0.58175 0.0
C1815 C 0.95408 0.96603 0.55851 0.0
C1816 C 0.96862 0.97146 0.56491 0.0
C1817 C 0.01311 0.98322 0.58003 0.0
C1818 C 0.99765 0.97949 0.57503 0.0
H1819 H 0.9241 0.97767 0.53793 0.0
H1820 H 0.9457 0.98758 0.55145 0.0
H1821 H 0.96976 0.95499 0.58252 0.0
H1822 H 0.04623 0.96648 0.58858 0.0
H1823 H 0.02115 0.96049 0.57959 0.0
C1824 C 0.72911 0.80705 0.67852 0.0
C1825 C 0.73116 0.8224 0.67641 0.0
C1826 C 0.72162 0.80171 0.69122 0.0
C1827 C 0.69823 0.81456 0.72379 0.0
H1828 H 0.71452 0.77974 0.74326 0.0
C1829 C 0.68758 0.80176 0.78606 0.0
C1830 C 0.68327 0.78717 0.78961 0.0
C1831 C 0.69271 0.80529 0.77175 0.0
C1832 C 0.70978 0.78944 0.73791 0.0
H1833 H 0.72634 0.84413 0.68564 0.0
H1834 H 0.71365 0.83506 0.70744 0.0
H1835 H 0.72369 0.78689 0.71873 0.0
H1836 H 0.68152 0.76474 0.78101 0.0
H1837 H 0.69077 0.77082 0.75618 0.0
H1838 H 0.68475 0.81739 0.74324 0.0
C1839 C 0.7175 0.82696 0.69941 0.0
C1840 C 0.71496 0.79351 0.72375 0.0
C1841 C 0.72489 0.83223 0.68683 0.0
C1842 C 0.68462 0.77612 0.77861 0.0
C1843 C 0.69001 0.77958 0.7644 0.0
C1844 C 0.69325 0.81064 0.738 0.0
C1845 C 0.716 0.81162 0.70207 0.0
C1846 C 0.70943 0.80628 0.71651 0.0
C1847 C 0.69394 0.79426 0.7607 0.0
C1848 C 0.69905 0.79812 0.74535 0.0
H1849 H 0.734 0.79917 0.67083 0.0
H1850 H 0.72055 0.78981 0.69269 0.0
H1851 H 0.69332 0.82423 0.71855 0.0
H1852 H 0.6866 0.81053 0.79424 0.0
H1853 H 0.69577 0.81669 0.76934 0.0
C1854 C 0.05373 0.09005 0.4883 0.0
C1855 C 0.03998 0.09679 0.4849 0.0
C1856 C 0.0566 0.08434 0.50255 0.0
C1857 C 0.03782 0.07301 0.53815 0.0
H1858 H 0.07756 0.07719 0.55427 0.0
C1859 C 0.05616 0.04589 0.59438 0.0
C1860 C 0.06723 0.05308 0.60279 0.0
C1861 C 0.05186 0.05144 0.58041 0.0
C1862 C 0.06632 0.07605 0.55009 0.0
H1863 H 0.01828 0.10218 0.49412 0.0
H1864 H 0.0234 0.09275 0.5188 0.0
H1865 H 0.07228 0.08609 0.52939 0.0
H1866 H 0.0817 0.07232 0.60341 0.0
H1867 H 0.07386 0.08226 0.57955 0.0
H1868 H 0.03179 0.06333 0.55907 0.0
C1869 C 0.03199 0.0917 0.51043 0.0
C1870 C 0.06334 0.08097 0.53561 0.0
C1871 C 0.02911 0.09736 0.4962 0.0
C1872 C 0.07319 0.06643 0.59725 0.0
C1873 C 0.06882 0.07204 0.5834 0.0
C1874 C 0.04079 0.06812 0.55269 0.0
C1875 C 0.04582 0.08518 0.51392 0.0
C1876 C 0.04903 0.07958 0.52936 0.0
C1877 C 0.05844 0.0644 0.57449 0.0
C1878 C 0.05509 0.06962 0.55894 0.0
H1879 H 0.06243 0.08938 0.48002 0.0
H1880 H 0.06731 0.07921 0.50462 0.0
H1881 H 0.02669 0.07151 0.53378 0.0
H1882 H 0.05142 0.0355 0.59818 0.0
H1883 H 0.04389 0.04514 0.57396 0.0
C1884 C 0.34175 0.74454 0.782 0.0
C1885 C 0.34716 0.73302 0.79113 0.0
C1886 C 0.33582 0.7415 0.7679 0.0
C1887 C 0.32112 0.71023 0.74454 0.0
H1888 H 0.32701 0.73792 0.71206 0.0
C1889 C 0.30659 0.69319 0.68507 0.0
C1890 C 0.29775 0.703 0.6767 0.0
C1891 C 0.31365 0.69789 0.69808 0.0
C1892 C 0.32518 0.73012 0.72103 0.0
H1893 H 0.35061 0.70922 0.79234 0.0
H1894 H 0.34056 0.70391 0.76781 0.0
H1895 H 0.33688 0.74376 0.7367 0.0
H1896 H 0.28998 0.72573 0.67512 0.0
H1897 H 0.30262 0.73413 0.69789 0.0
H1898 H 0.30964 0.69652 0.72886 0.0
C1899 C 0.34054 0.71532 0.77162 0.0
C1900 C 0.3308 0.73348 0.73523 0.0
C1901 C 0.34636 0.71836 0.78577 0.0
C1902 C 0.29699 0.71799 0.68113 0.0
C1903 C 0.30411 0.72274 0.69427 0.0
C1904 C 0.31566 0.70684 0.73037 0.0
C1905 C 0.33517 0.72684 0.76241 0.0
C1906 C 0.32895 0.72352 0.74722 0.0
C1907 C 0.31204 0.71256 0.70323 0.0
C1908 C 0.3177 0.71665 0.71836 0.0
H1909 H 0.34199 0.75595 0.7858 0.0
H1910 H 0.33157 0.75069 0.76138 0.0
H1911 H 0.31904 0.70242 0.75343 0.0
H1912 H 0.30734 0.68156 0.68201 0.0
H1913 H 0.31993 0.68981 0.70445 0.0
C1914 C 0.97271 0.43435 0.4878 0.0
C1915 C 0.98733 0.43173 0.48293 0.0
C1916 C 0.96992 0.44012 0.50203 0.0
C1917 C 0.98859 0.44736 0.53907 0.0
H1918 H 0.95211 0.46917 0.54645 0.0
C1919 C 0.97205 0.48029 0.594 0.0
C1920 C 0.95816 0.47591 0.59982 0.0
C1921 C 0.97702 0.47482 0.58017 0.0
C1922 C 0.96237 0.46311 0.54455 0.0
H1923 H 1.01054 0.43363 0.48906 0.0
H1924 H 1.00584 0.44436 0.51347 0.0
H1925 H 0.9578 0.46077 0.52142 0.0
H1926 H 0.93903 0.46171 0.59576 0.0
H1927 H 0.94751 0.45262 0.57179 0.0
H1928 H 0.99322 0.45033 0.56235 0.0
C1929 C 0.99637 0.44143 0.50665 0.0
C1930 C 0.96561 0.4581 0.53016 0.0
C1931 C 0.99912 0.43536 0.49254 0.0
C1932 C 0.94975 0.46545 0.59172 0.0
C1933 C 0.95456 0.46024 0.57789 0.0
C1934 C 0.98548 0.45269 0.55344 0.0
C1935 C 0.9817 0.4438 0.51177 0.0
C1936 C 0.97866 0.44988 0.52714 0.0
C1937 C 0.96808 0.46507 0.57178 0.0
C1938 C 0.97221 0.46042 0.55638 0.0
H1939 H 0.96338 0.43149 0.48075 0.0
H1940 H 0.95844 0.44135 0.50544 0.0
H1941 H 0.99865 0.44092 0.53749 0.0
H1942 H 0.97878 0.48843 0.59979 0.0
H1943 H 0.98751 0.47873 0.57572 0.0
C1944 C 0.68073 0.24772 0.7449 0.0
C1945 C 0.68117 0.23672 0.73375 0.0
C1946 C 0.68658 0.24504 0.75909 0.0
C1947 C 0.69724 0.21411 0.7846 0.0
H1948 H 0.7158 0.24569 0.80729 0.0
C1949 C 0.71171 0.20546 0.8464 0.0
C1950 C 0.72535 0.21101 0.85168 0.0
C1951 C 0.70618 0.20965 0.83247 0.0
C1952 C 0.71074 0.23668 0.80112 0.0
H1953 H 0.68854 0.21426 0.72902 0.0
H1954 H 0.699 0.20968 0.7536 0.0
H1955 H 0.70742 0.25046 0.78197 0.0
H1956 H 0.74366 0.2258 0.84646 0.0
H1957 H 0.73407 0.2331 0.82212 0.0
H1958 H 0.70086 0.20021 0.80353 0.0
C1959 C 0.69385 0.22035 0.75143 0.0
C1960 C 0.70576 0.23948 0.78658 0.0
C1961 C 0.68798 0.22304 0.73721 0.0
C1962 C 0.73299 0.22147 0.8429 0.0
C1963 C 0.72749 0.22561 0.82885 0.0
C1964 C 0.70221 0.21132 0.7991 0.0
C1965 C 0.69314 0.23127 0.76266 0.0
C1966 C 0.69887 0.22824 0.77808 0.0
C1967 C 0.71419 0.21943 0.82324 0.0
C1968 C 0.70897 0.22257 0.80766 0.0
H1969 H 0.67585 0.25851 0.74271 0.0
H1970 H 0.68565 0.25372 0.76737 0.0
H1971 H 0.69187 0.20517 0.77859 0.0
H1972 H 0.70552 0.19739 0.85285 0.0
H1973 H 0.69572 0.20494 0.82881 0.0
C1974 C 0.44356 0.05413 0.43537 0.0
C1975 C 0.45347 0.04687 0.42569 0.0
C1976 C 0.44868 0.06167 0.44793 0.0
C1977 C 0.48099 0.06276 0.47387 0.0
H1978 H 0.45837 0.09518 0.49119 0.0
C1979 C 0.49774 0.09298 0.52895 0.0
C1980 C 0.48622 0.09573 0.53922 0.0
C1981 C 0.49462 0.08754 0.51468 0.0
C1982 C 0.46476 0.08607 0.48657 0.0
H1983 H 0.47674 0.04239 0.42139 0.0
H1984 H 0.48589 0.05605 0.44319 0.0
H1985 H 0.45217 0.08629 0.46643 0.0
H1986 H 0.46236 0.09481 0.54241 0.0
H1987 H 0.45686 0.0855 0.51744 0.0
H1988 H 0.49372 0.06282 0.49407 0.0
C1989 C 0.47402 0.05569 0.44115 0.0
C1990 C 0.4612 0.08091 0.47231 0.0
C1991 C 0.46882 0.04808 0.42847 0.0
C1992 C 0.47149 0.09275 0.53484 0.0
C1993 C 0.46834 0.08754 0.52047 0.0
C1994 C 0.48469 0.06809 0.48809 0.0
C1995 C 0.46397 0.06229 0.45131 0.0
C1996 C 0.46903 0.06895 0.46581 0.0
C1997 C 0.47986 0.08491 0.51017 0.0
C1998 C 0.47644 0.07963 0.49474 0.0
H1999 H 0.43164 0.05331 0.43365 0.0
H2000 H 0.44047 0.06631 0.45542 0.0
H2001 H 0.4872 0.05344 0.46946 0.0
H2002 H 0.50922 0.09501 0.53199 0.0
H2003 H 0.50376 0.08569 0.50705 0.0
C2004 C 0.34188 0.2777 0.74276 0.0
C2005 C 0.34448 0.28934 0.73264 0.0
C2006 C 0.33604 0.28056 0.75694 0.0
C2007 C 0.3174 0.31067 0.77947 0.0
H2008 H 0.32857 0.28574 0.81281 0.0
C2009 C 0.30743 0.32954 0.83932 0.0
C2010 C 0.29861 0.32019 0.84824 0.0
C2011 C 0.31365 0.32444 0.82605 0.0
C2012 C 0.32527 0.29273 0.80358 0.0
H2013 H 0.34313 0.31315 0.72966 0.0
H2014 H 0.33354 0.3183 0.75443 0.0
H2015 H 0.33794 0.27994 0.78796 0.0
H2016 H 0.29025 0.29773 0.85053 0.0
H2017 H 0.30167 0.28857 0.82735 0.0
H2018 H 0.30526 0.32377 0.79526 0.0
C2019 C 0.33548 0.30683 0.75136 0.0
C2020 C 0.33058 0.28939 0.78925 0.0
C2021 C 0.34107 0.30392 0.73709 0.0
C2022 C 0.29716 0.30517 0.84407 0.0
C2023 C 0.30358 0.29997 0.83072 0.0
C2024 C 0.31235 0.31413 0.79378 0.0
C2025 C 0.33282 0.2952 0.76158 0.0
C2026 C 0.32683 0.29839 0.77692 0.0
C2027 C 0.3114 0.30975 0.82129 0.0
C2028 C 0.3163 0.3053 0.80604 0.0
H2029 H 0.34421 0.26631 0.73963 0.0
H2030 H 0.33393 0.27121 0.76419 0.0
H2031 H 0.31379 0.31769 0.7704 0.0
H2032 H 0.30882 0.34117 0.84218 0.0
H2033 H 0.31981 0.33218 0.81919 0.0
C2034 C 0.55637 0.48222 0.42984 0.0
C2035 C 0.56663 0.47448 0.42091 0.0
C2036 C 0.55197 0.47652 0.44371 0.0
C2037 C 0.56482 0.44889 0.47242 0.0
H2038 H 0.52741 0.45884 0.49144 0.0
C2039 C 0.54606 0.42253 0.52836 0.0
C2040 C 0.54012 0.43218 0.53915 0.0
C2041 C 0.54888 0.42751 0.51386 0.0
C2042 C 0.53796 0.45603 0.48631 0.0
H2043 H 0.57949 0.45419 0.41915 0.0
H2044 H 0.57117 0.44382 0.44267 0.0
H2045 H 0.53213 0.46707 0.46605 0.0
H2046 H 0.53228 0.45466 0.54294 0.0
H2047 H 0.53704 0.46332 0.51761 0.0
H2048 H 0.57045 0.43759 0.49262 0.0
C2049 C 0.56697 0.45463 0.43943 0.0
C2050 C 0.54072 0.46081 0.4717 0.0
C2051 C 0.57157 0.46046 0.42575 0.0
C2052 C 0.53702 0.44696 0.535 0.0
C2053 C 0.5396 0.45189 0.52042 0.0
C2054 C 0.56196 0.44395 0.48691 0.0
C2055 C 0.55754 0.46279 0.44895 0.0
C2056 C 0.55423 0.45735 0.46447 0.0
C2057 C 0.5456 0.44224 0.50964 0.0
C2058 C 0.54852 0.44749 0.4941 0.0
H2059 H 0.55252 0.49316 0.4266 0.0
H2060 H 0.5448 0.48331 0.4506 0.0
H2061 H 0.57554 0.44628 0.4676 0.0
H2062 H 0.54861 0.41111 0.53118 0.0
H2063 H 0.55341 0.41974 0.50586 0.0
C2064 C 0.67708 0.71001 0.81953 0.0
C2065 C 0.67207 0.72396 0.81455 0.0
C2066 C 0.69089 0.70429 0.81498 0.0
C2067 C 0.72301 0.71048 0.78855 0.0
H2068 H 0.74444 0.68757 0.8181 0.0
C2069 C 0.78649 0.6967 0.78401 0.0
C2070 C 0.7908 0.68199 0.78728 0.0
C2071 C 0.77188 0.70162 0.78676 0.0
C2072 C 0.73859 0.69384 0.80966 0.0
H2073 H 0.67761 0.74263 0.80042 0.0
H2074 H 0.70178 0.73295 0.79277 0.0
H2075 H 0.71933 0.6962 0.82338 0.0
H2076 H 0.78307 0.66106 0.79626 0.0
H2077 H 0.75771 0.66969 0.80133 0.0
H2078 H 0.74267 0.70846 0.77508 0.0
C2079 C 0.69495 0.72615 0.79995 0.0
C2080 C 0.72405 0.69876 0.81263 0.0
C2081 C 0.68098 0.73175 0.80433 0.0
C2082 C 0.78014 0.67243 0.79357 0.0
C2083 C 0.76561 0.67741 0.79654 0.0
C2084 C 0.73766 0.70573 0.78567 0.0
C2085 C 0.70034 0.71248 0.80552 0.0
C2086 C 0.71592 0.7071 0.80211 0.0
C2087 C 0.76123 0.69205 0.79309 0.0
C2088 C 0.74564 0.69729 0.79616 0.0
H2089 H 0.67052 0.70369 0.82739 0.0
H2090 H 0.69425 0.69353 0.81918 0.0
H2091 H 0.71722 0.71665 0.78001 0.0
H2092 H 0.79433 0.70433 0.779 0.0
H2093 H 0.76896 0.71299 0.78406 0.0
C2094 C 0.9375 0.98785 0.46879 0.0
C2095 C 0.93352 0.98364 0.48329 0.0
C2096 C 0.94248 1.00235 0.46577 0.0
C2097 C 0.9595 0.03575 0.4828 0.0
H2098 H 0.94294 0.05625 0.44878 0.0
C2099 C 0.97828 0.09601 0.46735 0.0
C2100 C 0.98049 0.0986 0.45212 0.0
C2101 C 0.97086 0.08306 0.47221 0.0
C2102 C 0.94787 0.0507 0.45824 0.0
H2103 H 0.93223 0.9913 0.50605 0.0
H2104 H 0.94114 0.01647 0.50083 0.0
H2105 H 0.93453 0.03123 0.45475 0.0
H2106 H 0.976 0.09 0.43012 0.0
H2107 H 0.96337 0.06779 0.43838 0.0
H2108 H 0.97324 0.05498 0.48601 0.0
C2109 C 0.94026 1.00861 0.49176 0.0
C2110 C 0.94298 0.03629 0.46167 0.0
C2111 C 0.93505 0.9942 0.49474 0.0
C2112 C 0.97442 0.08842 0.44194 0.0
C2113 C 0.96707 0.07561 0.44673 0.0
C2114 C 0.96456 0.05011 0.47924 0.0
C2115 C 0.94387 0.01296 0.4772 0.0
C2116 C 0.94884 0.02853 0.47389 0.0
C2117 C 0.96545 0.07246 0.46194 0.0
C2118 C 0.95898 0.05777 0.46676 0.0
H2119 H 0.93639 0.98004 0.45971 0.0
H2120 H 0.9453 1.00525 0.45445 0.0
H2121 H 0.9643 0.03009 0.49228 0.0
H2122 H 0.98302 0.10349 0.47549 0.0
H2123 H 0.96969 0.08119 0.48402 0.0
C2124 C 0.23668 0.83754 0.80291 0.0
C2125 C 0.23329 0.84244 0.7885 0.0
C2126 C 0.25085 0.83187 0.80632 0.0
C2127 C 0.29022 0.82973 0.7919 0.0
H2128 H 0.29375 0.79952 0.82233 0.0
C2129 C 0.34508 0.79616 0.80669 0.0
C2130 C 0.34758 0.79411 0.82197 0.0
C2131 C 0.33188 0.80307 0.80165 0.0
C2132 C 0.293 0.80802 0.81385 0.0
H2133 H 0.24213 0.84476 0.76625 0.0
H2134 H 0.26659 0.83452 0.77201 0.0
H2135 H 0.26928 0.80875 0.81547 0.0
H2136 H 0.33868 0.79864 0.84388 0.0
H2137 H 0.31603 0.81059 0.83519 0.0
H2138 H 0.31412 0.82858 0.79017 0.0
C2139 C 0.25852 0.83546 0.78088 0.0
C2140 C 0.27889 0.81343 0.80995 0.0
C2141 C 0.2444 0.8413 0.77753 0.0
C2142 C 0.3371 0.79993 0.83203 0.0
C2143 C 0.32401 0.8067 0.82705 0.0
C2144 C 0.30438 0.82415 0.7957 0.0
C2145 C 0.26204 0.8307 0.79536 0.0
C2146 C 0.27722 0.82454 0.79906 0.0
C2147 C 0.32094 0.80792 0.81182 0.0
C2148 C 0.30596 0.81339 0.8069 0.0
H2149 H 0.22848 0.83844 0.81167 0.0
H2150 H 0.25307 0.82866 0.81768 0.0
H2151 H 0.28956 0.83838 0.78358 0.0
H2152 H 0.35282 0.79163 0.79865 0.0
H2153 H 0.32987 0.80387 0.78983 0.0
C2154 C 0.09074 0.52938 0.49916 0.0
C2155 C 0.09254 0.53999 0.48781 0.0
C2156 C 0.08555 0.51501 0.49598 0.0
C2157 C 0.08449 0.48722 0.4663 0.0
H2158 H 0.05178 0.46927 0.48789 0.0
C2159 C 0.05489 0.4349 0.44443 0.0
C2160 C 0.0472 0.42526 0.45402 0.0
C2161 C 0.06196 0.44765 0.44977 0.0
C2162 C 0.06115 0.4739 0.48192 0.0
H2163 H 0.09027 0.54378 0.46422 0.0
H2164 H 0.08157 0.51853 0.45855 0.0
H2165 H 0.06042 0.49415 0.49464 0.0
H2166 H 0.04152 0.4212 0.477 0.0
H2167 H 0.05449 0.44326 0.48657 0.0
H2168 H 0.08568 0.46702 0.45387 0.0
C2169 C 0.08404 0.52141 0.46996 0.0
C2170 C 0.06602 0.48827 0.48574 0.0
C2171 C 0.08892 0.5359 0.4732 0.0
C2172 C 0.04756 0.42824 0.46934 0.0
C2173 C 0.05476 0.44109 0.47476 0.0
C2174 C 0.07985 0.47278 0.46268 0.0
C2175 C 0.08234 0.51076 0.4813 0.0
C2176 C 0.07755 0.49522 0.47777 0.0
C2177 C 0.06172 0.45124 0.46498 0.0
C2178 C 0.06786 0.46596 0.47017 0.0
H2179 H 0.09334 0.53222 0.51054 0.0
H2180 H 0.0844 0.50709 0.50496 0.0
H2181 H 0.09361 0.49211 0.46015 0.0
H2182 H 0.05471 0.43303 0.43255 0.0
H2183 H 0.06688 0.4551 0.44173 0.0
C2184 C 0.77973 0.34255 0.74838 0.0
C2185 C 0.79062 0.34415 0.73724 0.0
C2186 C 0.76548 0.33711 0.745 0.0
C2187 C 0.73863 0.33416 0.71431 0.0
H2188 H 0.71988 0.30324 0.73771 0.0
C2189 C 0.6873 0.30248 0.6929 0.0
C2190 C 0.67709 0.29591 0.70274 0.0
C2191 C 0.69989 0.30995 0.69811 0.0
C2192 C 0.72475 0.3121 0.7312 0.0
H2193 H 0.79501 0.3412 0.71382 0.0
H2194 H 0.77003 0.33194 0.70783 0.0
H2195 H 0.74451 0.31246 0.74468 0.0
H2196 H 0.67187 0.2926 0.72594 0.0
H2197 H 0.69373 0.30618 0.73521 0.0
H2198 H 0.71893 0.33418 0.70101 0.0
C2199 C 0.77257 0.33484 0.71922 0.0
C2200 C 0.73897 0.31731 0.73516 0.0
C2201 C 0.78692 0.34003 0.72265 0.0
C2202 C 0.67938 0.29774 0.71806 0.0
C2203 C 0.69209 0.3053 0.72335 0.0
C2204 C 0.72436 0.32915 0.71049 0.0
C2205 C 0.76163 0.33337 0.73034 0.0
C2206 C 0.74622 0.32822 0.72659 0.0
C2207 C 0.70276 0.3112 0.71341 0.0
C2208 C 0.71727 0.31779 0.71866 0.0
H2209 H 0.78225 0.34551 0.75975 0.0
H2210 H 0.75735 0.33616 0.75383 0.0
H2211 H 0.74373 0.3428 0.70764 0.0
H2212 H 0.68596 0.30119 0.68102 0.0
H2213 H 0.70778 0.31402 0.68999 0.0
C2214 C 0.59208 0.99409 0.52507 0.0
C2215 C 0.59404 0.98347 0.5364 0.0
C2216 C 0.5868 1.00844 0.52829 0.0
C2217 C 0.58475 0.03592 0.55861 0.0
H2218 H 0.55341 0.05447 0.53551 0.0
C2219 C 0.55352 0.08766 0.57987 0.0
C2220 C 0.5469 0.09781 0.57 0.0
C2221 C 0.56083 0.07494 0.5747 0.0
C2222 C 0.56239 0.04965 0.54193 0.0
H2223 H 0.59187 0.97971 0.56002 0.0
H2224 H 0.58287 1.00481 0.56571 0.0
H2225 H 0.56243 0.02971 0.52875 0.0
H2226 H 0.54332 0.10278 0.54678 0.0
H2227 H 0.5566 0.08068 0.53758 0.0
H2228 H 0.58504 0.05579 0.57163 0.0
C2229 C 0.58539 1.002 0.55429 0.0
C2230 C 0.56749 0.03535 0.53808 0.0
C2231 C 0.59043 0.98756 0.55103 0.0
C2232 C 0.5485 0.09531 0.55468 0.0
C2233 C 0.55589 0.08247 0.54944 0.0
C2234 C 0.57983 0.05026 0.56231 0.0
C2235 C 0.58357 0.01267 0.54298 0.0
C2236 C 0.57855 0.02818 0.54655 0.0
C2237 C 0.56187 0.07188 0.55942 0.0
C2238 C 0.56833 0.05728 0.55426 0.0
H2239 H 0.59462 0.99128 0.51366 0.0
H2240 H 0.58558 0.01635 0.51931 0.0
H2241 H 0.59351 0.0309 0.56519 0.0
H2242 H 0.5524 0.08915 0.59175 0.0
H2243 H 0.56497 0.06712 0.58285 0.0
C2244 C 0.34695 0.22864 0.71847 0.0
C2245 C 0.34957 0.2294 0.70311 0.0
C2246 C 0.33418 0.22135 0.724 0.0
C2247 C 0.30224 0.19651 0.71209 0.0
H2248 H 0.28147 0.2152 0.74486 0.0
C2249 C 0.23945 0.18636 0.72388 0.0
C2250 C 0.23558 0.18291 0.7386 0.0
C2251 C 0.25384 0.19139 0.72037 0.0
C2252 C 0.28718 0.2098 0.73574 0.0
H2253 H 0.34126 0.2225 0.68163 0.0
H2254 H 0.31935 0.21014 0.691 0.0
H2255 H 0.30618 0.22406 0.73775 0.0
H2256 H 0.24369 0.18259 0.76123 0.0
H2257 H 0.26865 0.19172 0.75517 0.0
H2258 H 0.28294 0.18267 0.70974 0.0
C2259 C 0.32701 0.21483 0.69899 0.0
C2260 C 0.30145 0.2148 0.73171 0.0
C2261 C 0.33966 0.22202 0.69354 0.0
C2262 C 0.24634 0.18504 0.74977 0.0
C2263 C 0.26062 0.19035 0.74631 0.0
C2264 C 0.28791 0.1917 0.71596 0.0
C2265 C 0.32378 0.21466 0.71428 0.0
C2266 C 0.30917 0.20837 0.71966 0.0
C2267 C 0.26464 0.1934 0.73154 0.0
C2268 C 0.2801 0.19837 0.72773 0.0
H2269 H 0.35421 0.23443 0.72613 0.0
H2270 H 0.33229 0.22131 0.73586 0.0
H2271 H 0.30784 0.1909 0.70303 0.0
H2272 H 0.23147 0.18476 0.71502 0.0
H2273 H 0.25652 0.19375 0.70889 0.0
C2274 C 0.47095 0.4363 0.5801 0.0
C2275 C 0.4795 0.4275 0.5704 0.0
C2276 C 0.46356 0.44904 0.57509 0.0
C2277 C 0.46507 0.47735 0.54495 0.0
H2278 H 0.42934 0.49177 0.56441 0.0
C2279 C 0.4351 0.5328 0.52853 0.0
C2280 C 0.42982 0.54184 0.54018 0.0
C2281 C 0.44082 0.51853 0.53131 0.0
C2282 C 0.4394 0.48799 0.55893 0.0
H2283 H 0.48651 0.425 0.54756 0.0
H2284 H 0.47321 0.44715 0.53859 0.0
H2285 H 0.43859 0.46693 0.56994 0.0
H2286 H 0.4266 0.54278 0.56399 0.0
H2287 H 0.43654 0.51794 0.56886 0.0
H2288 H 0.46569 0.49848 0.53384 0.0
C2289 C 0.47239 0.44425 0.55022 0.0
C2290 C 0.44475 0.47367 0.56211 0.0
C2291 C 0.47982 0.43137 0.55528 0.0
C2292 C 0.43063 0.53624 0.55474 0.0
C2293 C 0.4362 0.52189 0.55751 0.0
C2294 C 0.45961 0.49165 0.54166 0.0
C2295 C 0.46444 0.45351 0.56014 0.0
C2296 C 0.45784 0.46818 0.55541 0.0
C2297 C 0.44128 0.51277 0.54583 0.0
C2298 C 0.44683 0.49728 0.5488 0.0
H2299 H 0.47057 0.43374 0.59185 0.0
H2300 H 0.45782 0.45582 0.58321 0.0
H2301 H 0.47526 0.47371 0.53967 0.0
H2302 H 0.43479 0.53677 0.51719 0.0
H2303 H 0.44457 0.51185 0.52202 0.0
C2304 C 0.83099 0.6849 0.71797 0.0
C2305 C 0.82131 0.67612 0.72654 0.0
C2306 C 0.82592 0.69764 0.71065 0.0
C2307 C 0.79535 0.72575 0.71214 0.0
H2308 H 0.81578 0.74102 0.67743 0.0
C2309 C 0.77929 0.78122 0.68197 0.0
C2310 C 0.79115 0.79077 0.67831 0.0
C2311 C 0.78198 0.76685 0.68747 0.0
C2312 C 0.81002 0.73696 0.68718 0.0
H2313 H 0.79841 0.67358 0.73354 0.0
H2314 H 0.7893 0.69565 0.72025 0.0
H2315 H 0.82122 0.71601 0.68622 0.0
H2316 H 0.81516 0.79263 0.67762 0.0
H2317 H 0.8199 0.76747 0.68698 0.0
H2318 H 0.78392 0.74677 0.71277 0.0
C2319 C 0.80099 0.6928 0.71944 0.0
C2320 C 0.81316 0.72257 0.69229 0.0
C2321 C 0.80612 0.67995 0.72685 0.0
C2322 C 0.80579 0.78561 0.68041 0.0
C2323 C 0.80849 0.77114 0.68565 0.0
C2324 C 0.79204 0.7401 0.70686 0.0
C2325 C 0.81092 0.70209 0.71155 0.0
C2326 C 0.80614 0.7168 0.70507 0.0
C2327 C 0.79662 0.76154 0.68921 0.0
C2328 C 0.79954 0.746 0.69448 0.0
H2329 H 0.84278 0.68236 0.71756 0.0
H2330 H 0.83407 0.70443 0.70498 0.0
H2331 H 0.78981 0.72193 0.7221 0.0
H2332 H 0.76789 0.78488 0.6806 0.0
H2333 H 0.77259 0.75977 0.69005 0.0
C2334 C 0.80435 0.34717 0.79264 0.0
C2335 C 0.81527 0.35553 0.80012 0.0
C2336 C 0.79973 0.33327 0.79814 0.0
C2337 C 0.81293 0.30308 0.82382 0.0
H2338 H 0.77385 0.28637 0.81661 0.0
C2339 C 0.79412 0.24684 0.84965 0.0
C2340 C 0.78622 0.23693 0.8405 0.0
C2341 C 0.79723 0.26141 0.84494 0.0
C2342 C 0.78487 0.29082 0.81863 0.0
H2343 H 0.8291 0.35617 0.81978 0.0
H2344 H 0.82058 0.33251 0.82972 0.0
H2345 H 0.77928 0.31176 0.80866 0.0
H2346 H 0.77515 0.23483 0.81923 0.0
H2347 H 0.78056 0.26017 0.81102 0.0
H2348 H 0.81843 0.28219 0.83393 0.0
C2349 C 0.81596 0.33629 0.81929 0.0
C2350 C 0.78802 0.30544 0.81403 0.0
C2351 C 0.82071 0.35004 0.81369 0.0
C2352 C 0.78144 0.24204 0.82651 0.0
C2353 C 0.78439 0.25667 0.82186 0.0
C2354 C 0.80973 0.28855 0.82853 0.0
C2355 C 0.80577 0.32738 0.81137 0.0
C2356 C 0.80213 0.31184 0.81654 0.0
C2357 C 0.79236 0.26657 0.83099 0.0
C2358 C 0.79567 0.28217 0.82599 0.0
H2359 H 0.80004 0.35092 0.78206 0.0
H2360 H 0.79195 0.32684 0.79158 0.0
H2361 H 0.82406 0.30729 0.82567 0.0
H2362 H 0.79799 0.2433 0.86046 0.0
H2363 H 0.80328 0.26871 0.85234 0.0
C2364 C 0.59098 0.9456 0.46697 0.0
C2365 C 0.5999 0.95511 0.47556 0.0
C2366 C 0.57829 0.95087 0.45968 0.0
C2367 C 0.55055 0.98173 0.4617 0.0
H2368 H 0.53435 0.96148 0.42731 0.0
C2369 C 0.49457 0.99824 0.43258 0.0
C2370 C 0.48479 0.98647 0.42926 0.0
C2371 C 0.50904 0.99544 0.43779 0.0
C2372 C 0.53867 0.9672 0.43697 0.0
H2373 H 0.6028 0.97789 0.4827 0.0
H2374 H 0.58085 0.98738 0.46942 0.0
H2375 H 0.55953 0.95582 0.43556 0.0
H2376 H 0.48262 0.96251 0.42887 0.0
H2377 H 0.50798 0.95758 0.43768 0.0
H2378 H 0.52962 0.99333 0.46276 0.0
C2379 C 0.58354 0.97568 0.46854 0.0
C2380 C 0.55317 0.96394 0.44177 0.0
C2381 C 0.59633 0.97033 0.47591 0.0
C2382 C 0.48982 0.97181 0.4314 0.0
C2383 C 0.5044 0.969 0.43633 0.0
C2384 C 0.53611 0.98518 0.45671 0.0
C2385 C 0.57404 0.96591 0.46067 0.0
C2386 C 0.55927 0.97088 0.45444 0.0
C2387 C 0.51423 0.98078 0.43954 0.0
C2388 C 0.52987 0.97773 0.44446 0.0
H2389 H 0.59329 0.93377 0.46664 0.0
H2390 H 0.57134 0.94284 0.45403 0.0
H2391 H 0.55462 0.98722 0.47158 0.0
H2392 H 0.491 1.00966 0.43116 0.0
H2393 H 0.5163 1.00476 0.44011 0.0
C2394 C 0.24219 0.28612 0.82832 0.0
C2395 C 0.23834 0.29069 0.84278 0.0
C2396 C 0.23947 0.2715 0.82352 0.0
C2397 C 0.21588 0.23858 0.83099 0.0
H2398 H 0.24606 0.2167 0.80928 0.0
C2399 C 0.20591 0.17709 0.81546 0.0
C2400 C 0.21107 0.17191 0.80166 0.0
C2401 C 0.21053 0.19087 0.82111 0.0
C2402 C 0.23738 0.22264 0.81516 0.0
H2403 H 0.2284 0.28338 0.8634 0.0
H2404 H 0.22343 0.25798 0.85499 0.0
H2405 H 0.251 0.24216 0.81731 0.0
H2406 H 0.22563 0.1771 0.78322 0.0
H2407 H 0.23342 0.20124 0.7928 0.0
H2408 H 0.20204 0.21944 0.82851 0.0
C2409 C 0.22862 0.2657 0.84736 0.0
C2410 C 0.24027 0.2373 0.8198 0.0
C2411 C 0.23154 0.28025 0.85222 0.0
C2412 C 0.22157 0.1806 0.79398 0.0
C2413 C 0.22602 0.19455 0.79952 0.0
C2414 C 0.21292 0.22403 0.82619 0.0
C2415 C 0.23262 0.26107 0.83296 0.0
C2416 C 0.22957 0.24546 0.82784 0.0
C2417 C 0.22024 0.20013 0.813 0.0
C2418 C 0.22364 0.21572 0.81825 0.0
H2419 H 0.24761 0.29377 0.82079 0.0
H2420 H 0.24261 0.26839 0.81233 0.0
H2421 H 0.20728 0.24457 0.83693 0.0
H2422 H 0.19783 0.17069 0.82168 0.0
H2423 H 0.20615 0.19438 0.83174 0.0
C2424 C 0.03825 0.05625 0.93121 0.0
C2425 C 0.04335 0.04153 0.92975 0.0
C2426 C 0.02398 0.05929 0.93683 0.0
C2427 C 0.98686 0.04155 0.94458 0.0
H2428 H 0.98079 0.07736 0.9677 0.0
C2429 C 0.93196 0.0565 0.97757 0.0
C2430 C 0.92792 0.07163 0.97761 0.0
C2431 C 0.94525 0.05182 0.97062 0.0
C2432 C 0.98221 0.06737 0.96114 0.0
H2433 H 0.03741 0.01849 0.93351 0.0
H2434 H 1.01275 0.02375 0.94355 0.0
H2435 H 1.00553 0.07137 0.95862 0.0
H2436 H 0.93411 0.09345 0.96958 0.0
H2437 H 0.95682 0.08534 0.95728 0.0
H2438 H 0.96341 0.03751 0.94748 0.0
C2439 C 0.01959 0.03299 0.94 0.0
C2440 C 0.99648 0.06393 0.95585 0.0
C2441 C 0.03382 0.02995 0.93427 0.0
C2442 C 0.93687 0.08172 0.96972 0.0
C2443 C 0.95003 0.07709 0.96282 0.0
C2444 C 0.97255 0.04494 0.95001 0.0
C2445 C 0.01437 0.04772 0.94131 0.0
C2446 C 0.99906 0.05106 0.94733 0.0
C2447 C 0.95475 0.06221 0.96366 0.0
C2448 C 0.96999 0.05802 0.9582 0.0
H2449 H 0.04513 0.06545 0.92765 0.0
H2450 H 0.02039 0.07078 0.93735 0.0
H2451 H 0.98826 0.0316 0.93796 0.0
H2452 H 0.92547 0.04851 0.98382 0.0
H2453 H 0.94853 0.04026 0.97148 0.0
C2454 C 0.72352 0.2374 0.18246 0.0
C2455 C 0.73826 0.23282 0.17982 0.0
C2456 C 0.72041 0.25187 0.1875 0.0
C2457 C 0.73642 0.28414 0.20723 0.0
H2458 H 0.70521 0.30639 0.18751 0.0
C2459 C 0.72045 0.34404 0.22667 0.0
C2460 C 0.7051 0.34711 0.22703 0.0
C2461 C 0.72585 0.3313 0.21925 0.0
C2462 C 0.71385 0.30035 0.19332 0.0
H2463 H 0.76132 0.23976 0.18095 0.0
H2464 H 0.75593 0.26487 0.19006 0.0
H2465 H 0.71137 0.28143 0.17902 0.0
H2466 H 0.68355 0.33964 0.21929 0.0
H2467 H 0.69272 0.31778 0.20664 0.0
H2468 H 0.73853 0.30278 0.22194 0.0
C2469 C 0.74675 0.25733 0.18805 0.0
C2470 C 0.7174 0.28598 0.18839 0.0
C2471 C 0.74983 0.24296 0.18275 0.0
C2472 C 0.69546 0.3377 0.21911 0.0
C2473 C 0.70079 0.32508 0.21177 0.0
C2474 C 0.7327 0.29846 0.21235 0.0
C2475 C 0.73198 0.26206 0.19031 0.0
C2476 C 0.72861 0.27759 0.19536 0.0
C2477 C 0.71602 0.32137 0.21202 0.0
C2478 C 0.72118 0.30674 0.20562 0.0
H2479 H 0.71435 0.22993 0.18023 0.0
H2480 H 0.70892 0.25508 0.18924 0.0
H2481 H 0.74509 0.27799 0.21289 0.0
H2482 H 0.72814 0.35091 0.23289 0.0
H2483 H 0.73768 0.32902 0.21954 0.0
C2484 C 0.59924 0.07133 0.06286 0.0
C2485 C 0.60501 0.06555 0.04955 0.0
C2486 C 0.58556 0.0664 0.06852 0.0
C2487 C 0.55557 0.03745 0.06422 0.0
H2488 H 0.53113 0.06819 0.08209 0.0
C2489 C 0.49221 0.02956 0.07647 0.0
C2490 C 0.48673 0.03513 0.09003 0.0
C2491 C 0.50681 0.03267 0.0718 0.0
C2492 C 0.53783 0.0594 0.07728 0.0
H2493 H 0.60109 0.04945 0.03212 0.0
H2494 H 0.57713 0.04102 0.04173 0.0
H2495 H 0.55621 0.07408 0.07387 0.0
H2496 H 0.49243 0.04845 0.10921 0.0
H2497 H 0.5178 0.05396 0.10107 0.0
H2498 H 0.53689 0.02289 0.06737 0.0
C2499 C 0.58326 0.04925 0.04801 0.0
C2500 C 0.55233 0.06276 0.07259 0.0
C2501 C 0.59709 0.05407 0.04246 0.0
C2502 C 0.49626 0.04396 0.09874 0.0
C2503 C 0.5108 0.0472 0.094 0.0
C2504 C 0.54098 0.03412 0.06881 0.0
C2505 C 0.57704 0.05567 0.06091 0.0
C2506 C 0.56153 0.05184 0.06604 0.0
C2507 C 0.51633 0.04156 0.08048 0.0
C2508 C 0.5319 0.04505 0.07546 0.0
H2509 H 0.60504 0.08014 0.06867 0.0
H2510 H 0.58151 0.07132 0.07871 0.0
H2511 H 0.56224 0.02865 0.05941 0.0
H2512 H 0.48531 0.02254 0.06956 0.0
H2513 H 0.51059 0.02822 0.06129 0.0
C2514 C 0.53602 0.4892 0.07695 0.0
C2515 C 0.54049 0.4855 0.09147 0.0
C2516 C 0.52139 0.48649 0.07211 0.0
C2517 C 0.48837 0.46308 0.07944 0.0
H2518 H 0.46657 0.49336 0.05786 0.0
C2519 C 0.42687 0.45319 0.0633 0.0
C2520 C 0.42172 0.45869 0.04962 0.0
C2521 C 0.44067 0.45764 0.06908 0.0
C2522 C 0.47248 0.48465 0.06368 0.0
H2523 H 0.53303 0.47584 0.11217 0.0
H2524 H 0.50763 0.47084 0.10367 0.0
H2525 H 0.49202 0.49824 0.06601 0.0
H2526 H 0.42702 0.47362 0.03154 0.0
H2527 H 0.45118 0.48107 0.04129 0.0
H2528 H 0.46924 0.44924 0.07676 0.0
C2529 C 0.51542 0.47592 0.09603 0.0
C2530 C 0.48713 0.4875 0.06841 0.0
C2531 C 0.52997 0.47885 0.10094 0.0
C2532 C 0.43049 0.46929 0.04219 0.0
C2533 C 0.44446 0.47356 0.04784 0.0
C2534 C 0.47383 0.46014 0.07454 0.0
C2535 C 0.51087 0.47979 0.08158 0.0
C2536 C 0.49527 0.47677 0.07641 0.0
C2537 C 0.44999 0.46751 0.06122 0.0
C2538 C 0.46555 0.47088 0.06662 0.0
H2539 H 0.54374 0.4945 0.0694 0.0
H2540 H 0.51834 0.48953 0.06088 0.0
H2541 H 0.49434 0.45446 0.08537 0.0
H2542 H 0.42041 0.44504 0.06936 0.0
H2543 H 0.44414 0.45304 0.07963 0.0
C2544 C 0.10022 0.28391 0.33924 0.0
C2545 C 0.10748 0.28924 0.32645 0.0
C2546 C 0.09002 0.29293 0.34699 0.0
C2547 C 0.0671 0.32777 0.34421 0.0
H2548 H 0.07105 0.32834 0.38702 0.0
C2549 C 0.04011 0.37431 0.38047 0.0
C2550 C 0.03485 0.37061 0.39472 0.0
C2551 C 0.04807 0.36392 0.37188 0.0
C2552 C 0.06957 0.32823 0.3751 0.0
H2553 H 0.10905 0.30804 0.31148 0.0
H2554 H 0.09129 0.32357 0.3248 0.0
H2555 H 0.08563 0.31076 0.37247 0.0
H2556 H 0.03353 0.35269 0.41076 0.0
H2557 H 0.04716 0.33467 0.39588 0.0
H2558 H 0.05107 0.34527 0.34682 0.0
C2559 C 0.0934 0.31245 0.3289 0.0
C2560 C 0.07798 0.31808 0.36671 0.0
C2561 C 0.10365 0.3035 0.32123 0.0
C2562 C 0.03762 0.35612 0.4 0.0
C2563 C 0.04551 0.34573 0.39141 0.0
C2564 C 0.05863 0.3379 0.35261 0.0
C2565 C 0.0867 0.30748 0.34212 0.0
C2566 C 0.07698 0.31774 0.35112 0.0
C2567 C 0.05098 0.34945 0.37723 0.0
C2568 C 0.05978 0.33838 0.36821 0.0
H2569 H 0.10295 0.27307 0.3437 0.0
H2570 H 0.08495 0.28859 0.357 0.0
H2571 H 0.06583 0.32776 0.33226 0.0
H2572 H 0.03835 0.38535 0.37604 0.0
H2573 H 0.05223 0.36738 0.36115 0.0
C2574 C 0.629 0.72877 0.88968 0.0
C2575 C 0.62463 0.73821 0.878 0.0
C2576 C 0.61836 0.72124 0.8983 0.0
C2577 C 0.57849 0.70901 0.89766 0.0
H2578 H 0.58572 0.70039 0.93917 0.0
C2579 C 0.53578 0.67527 0.93248 0.0
C2580 C 0.54206 0.66356 0.94069 0.0
C2581 C 0.54489 0.68655 0.92654 0.0
C2582 C 0.58351 0.70266 0.92758 0.0
H2583 H 0.60542 0.74751 0.86676 0.0
H2584 H 0.58697 0.73462 0.88179 0.0
H2585 H 0.60351 0.71544 0.92532 0.0
H2586 H 0.56264 0.65485 0.94966 0.0
H2587 H 0.57835 0.67455 0.93982 0.0
H2588 H 0.55857 0.69608 0.8999 0.0
C2589 C 0.59864 0.73268 0.88409 0.0
C2590 C 0.59379 0.71127 0.91957 0.0
C2591 C 0.60928 0.74014 0.87544 0.0
C2592 C 0.55742 0.66391 0.94365 0.0
C2593 C 0.56646 0.67521 0.93792 0.0
C2594 C 0.56819 0.70045 0.90569 0.0
C2595 C 0.60298 0.72297 0.89558 0.0
C2596 C 0.59158 0.71443 0.90441 0.0
C2597 C 0.56046 0.68641 0.92879 0.0
C2598 C 0.57063 0.69695 0.92072 0.0
H2599 H 0.64068 0.72685 0.89192 0.0
H2600 H 0.62225 0.71373 0.90685 0.0
H2601 H 0.5764 0.71095 0.88599 0.0
H2602 H 0.52406 0.67509 0.92965 0.0
H2603 H 0.53982 0.69506 0.9197 0.0
C2604 C 0.92508 0.23961 0.33983 0.0
C2605 C 0.91848 0.23491 0.32645 0.0
C2606 C 0.93531 0.23044 0.34737 0.0
C2607 C 0.94642 0.19036 0.35017 0.0
H2608 H 0.97872 0.20566 0.37419 0.0
C2609 C 0.98841 0.15099 0.37999 0.0
C2610 C 0.99275 0.15478 0.39452 0.0
C2611 C 0.98019 0.16098 0.37119 0.0
C2612 C 0.96967 0.20117 0.36764 0.0
H2613 H 0.91821 0.21717 0.31018 0.0
H2614 H 0.93627 0.20154 0.32294 0.0
H2615 H 0.96345 0.2228 0.35968 0.0
H2616 H 0.99211 0.17248 0.41087 0.0
H2617 H 0.97774 0.18971 0.39572 0.0
H2618 H 0.9526 0.16876 0.35814 0.0
C2619 C 0.93327 0.21208 0.32792 0.0
C2620 C 0.96087 0.21105 0.35929 0.0
C2621 C 0.923 0.22117 0.32046 0.0
C2622 C 0.98883 0.169 0.39986 0.0
C2623 C 0.98071 0.17901 0.39105 0.0
C2624 C 0.95525 0.1805 0.35846 0.0
C2625 C 0.93928 0.21634 0.34173 0.0
C2626 C 0.94905 0.20582 0.35042 0.0
C2627 C 0.97614 0.17515 0.37661 0.0
C2628 C 0.96699 0.18573 0.36739 0.0
H2629 H 0.92174 0.25001 0.34492 0.0
H2630 H 0.93954 0.23416 0.35799 0.0
H2631 H 0.93727 0.18582 0.3438 0.0
H2632 H 0.99113 0.14017 0.37548 0.0
H2633 H 0.97706 0.15762 0.36009 0.0
C2634 C 0.48751 0.85332 0.93493 0.0
C2635 C 0.48139 0.86608 0.94161 0.0
C2636 C 0.47816 0.84228 0.92887 0.0
C2637 C 0.43953 0.83881 0.91399 0.0
H2638 H 0.44857 0.79676 0.91137 0.0
C2639 C 0.40672 0.80017 0.87447 0.0
C2640 C 0.40338 0.78558 0.87906 0.0
C2641 C 0.4163 0.80924 0.88276 0.0
C2642 C 0.44578 0.80846 0.91209 0.0
H2643 H 0.46076 0.87673 0.94807 0.0
H2644 H 0.44463 0.85738 0.93826 0.0
H2645 H 0.46503 0.81324 0.92546 0.0
H2646 H 0.40776 0.76924 0.89623 0.0
H2647 H 0.4242 0.78517 0.91083 0.0
H2648 H 0.42024 0.83414 0.90089 0.0
C2649 C 0.45655 0.856 0.93715 0.0
C2650 C 0.45534 0.81796 0.92007 0.0
C2651 C 0.46583 0.86703 0.94301 0.0
C2652 C 0.4099 0.78041 0.89233 0.0
C2653 C 0.41952 0.78952 0.90065 0.0
C2654 C 0.43002 0.82937 0.90606 0.0
C2655 C 0.4625 0.84375 0.92942 0.0
C2656 C 0.45235 0.83331 0.92116 0.0
C2657 C 0.42287 0.80411 0.896 0.0
C2658 C 0.43299 0.81404 0.90489 0.0
H2659 H 0.49944 0.8524 0.93342 0.0
H2660 H 0.48322 0.83306 0.923 0.0
H2661 H 0.43689 0.85056 0.91427 0.0
H2662 H 0.40188 0.80468 0.86444 0.0
H2663 H 0.41869 0.82029 0.87864 0.0
C2664 C 0.10311 0.723 0.20309 0.0
C2665 C 0.10694 0.73722 0.19777 0.0
C2666 C 0.09286 0.71403 0.19547 0.0
C2667 C 0.07757 0.7082 0.15767 0.0
H2668 H 0.05037 0.68139 0.17759 0.0
C2669 C 0.03718 0.67054 0.12429 0.0
C2670 C 0.03426 0.65609 0.12957 0.0
C2671 C 0.04504 0.68086 0.13294 0.0
C2672 C 0.05801 0.68865 0.1718 0.0
H2673 H 0.10242 0.75328 0.18039 0.0
H2674 H 0.08445 0.73771 0.1672 0.0
H2675 H 0.0652 0.69883 0.19212 0.0
H2676 H 0.03735 0.64135 0.14832 0.0
H2677 H 0.05122 0.65922 0.16334 0.0
H2678 H 0.07067 0.69789 0.13739 0.0
C2679 C 0.08951 0.73343 0.17723 0.0
C2680 C 0.06652 0.69874 0.18018 0.0
C2681 C 0.09969 0.74247 0.18493 0.0
C2682 C 0.03926 0.65238 0.1439 0.0
C2683 C 0.04722 0.6627 0.15255 0.0
C2684 C 0.06913 0.69808 0.1493 0.0
C2685 C 0.08618 0.71893 0.1822 0.0
C2686 C 0.07648 0.70865 0.17325 0.0
C2687 C 0.05034 0.67711 0.14718 0.0
C2688 C 0.05922 0.68809 0.15621 0.0
H2689 H 0.10848 0.71852 0.21287 0.0
H2690 H 0.09073 0.70294 0.19964 0.0
H2691 H 0.08529 0.71541 0.1519 0.0
H2692 H 0.03326 0.67397 0.11346 0.0
H2693 H 0.04683 0.69189 0.12846 0.0
C2694 C 0.91983 0.73758 0.1499 0.0
C2695 C 0.90545 0.74054 0.14437 0.0
C2696 C 0.93033 0.72973 0.1414 0.0
C2697 C 0.93874 0.71704 0.10256 0.0
H2698 H 0.96541 0.68968 0.12255 0.0
C2699 C 0.97334 0.67212 0.0713 0.0
C2700 C 0.98754 0.66822 0.07667 0.0
C2701 C 0.96432 0.68233 0.07892 0.0
C2702 C 0.95823 0.69743 0.11677 0.0
H2703 H 0.89101 0.73741 0.12539 0.0
H2704 H 0.90916 0.72357 0.11066 0.0
H2705 H 0.94767 0.7042 0.13699 0.0
H2706 H 1.00354 0.67258 0.09415 0.0
H2707 H 0.98788 0.69051 0.10738 0.0
H2708 H 0.94915 0.70999 0.0823 0.0
C2709 C 0.91246 0.72756 0.1215 0.0
C2710 C 0.94798 0.70581 0.12509 0.0
C2711 C 0.90197 0.7355 0.12999 0.0
C2712 C 0.99274 0.67537 0.08957 0.0
C2713 C 0.98365 0.68553 0.09729 0.0
C2714 C 0.94894 0.7086 0.09423 0.0
C2715 C 0.92682 0.72448 0.12708 0.0
C2716 C 0.93799 0.71572 0.11814 0.0
C2717 C 0.96916 0.68892 0.09225 0.0
C2718 C 0.95882 0.6986 0.10119 0.0
H2719 H 0.92308 0.7415 0.16078 0.0
H2720 H 0.9413 0.72794 0.14605 0.0
H2721 H 0.9315 0.72471 0.09675 0.0
H2722 H 0.9689 0.66681 0.06146 0.0
H2723 H 0.95325 0.68451 0.0747 0.0
C2724 C 0.91596 0.80757 0.19605 0.0
C2725 C 0.91457 0.79236 0.19271 0.0
C2726 C 0.92745 0.81612 0.1899 0.0
C2727 C 0.95051 0.81783 0.1563 0.0
H2728 H 0.9708 0.84977 0.17688 0.0
C2729 C 0.99175 0.85648 0.12513 0.0
C2730 C 0.99244 0.87157 0.12923 0.0
C2731 C 0.98378 0.84617 0.1337 0.0
C2732 C 0.96512 0.84105 0.17085 0.0
H2733 H 0.92444 0.77411 0.18051 0.0
H2734 H 0.94458 0.78906 0.16967 0.0
H2735 H 0.95484 0.83278 0.19073 0.0
H2736 H 0.98527 0.88754 0.14571 0.0
H2737 H 0.97102 0.86976 0.16044 0.0
H2738 H 0.96019 0.82634 0.13635 0.0
C2739 C 0.93679 0.79436 0.17718 0.0
C2740 C 0.95601 0.83121 0.17887 0.0
C2741 C 0.9254 0.78572 0.18358 0.0
C2742 C 0.98509 0.87601 0.14229 0.0
C2743 C 0.97694 0.86572 0.15078 0.0
C2744 C 0.95947 0.82777 0.14826 0.0
C2745 C 0.93773 0.80978 0.17996 0.0
C2746 C 0.94849 0.8195 0.1717 0.0
C2747 C 0.97605 0.85061 0.14659 0.0
C2748 C 0.96687 0.83964 0.15535 0.0
H2749 H 0.90766 0.81307 0.20285 0.0
H2750 H 0.9277 0.82794 0.19223 0.0
H2751 H 0.94471 0.80914 0.15033 0.0
H2752 H 0.99749 0.8526 0.1153 0.0
H2753 H 0.98378 0.83466 0.13019 0.0
C2754 C 0.03405 0.85114 0.08918 0.0
C2755 C 0.03967 0.85863 0.07665 0.0
C2756 C 0.04282 0.84065 0.09681 0.0
C2757 C 0.07733 0.81727 0.09401 0.0
H2758 H 0.07771 0.8208 0.13686 0.0
C2759 C 0.12316 0.78907 0.13031 0.0
C2760 C 0.11931 0.78399 0.14458 0.0
C2761 C 0.11295 0.79722 0.12168 0.0
C2762 C 0.07764 0.81942 0.12492 0.0
H2763 H 0.0587 0.86026 0.06196 0.0
H2764 H 0.0738 0.84196 0.07503 0.0
H2765 H 0.06046 0.8358 0.12236 0.0
H2766 H 0.10131 0.78305 0.16058 0.0
H2767 H 0.08357 0.79692 0.1456 0.0
H2768 H 0.09452 0.8009 0.09655 0.0
C2769 C 0.06265 0.84415 0.07903 0.0
C2770 C 0.06768 0.82809 0.11657 0.0
C2771 C 0.05395 0.85471 0.07151 0.0
C2772 C 0.10484 0.78703 0.14981 0.0
C2773 C 0.09462 0.79506 0.14116 0.0
C2774 C 0.08725 0.80854 0.10237 0.0
C2775 C 0.0574 0.83724 0.09204 0.0
C2776 C 0.06742 0.82724 0.10097 0.0
C2777 C 0.09851 0.80044 0.127 0.0
C2778 C 0.08766 0.80952 0.11798 0.0
H2779 H 0.02317 0.85394 0.09358 0.0
H2780 H 0.03829 0.83543 0.10664 0.0
H2781 H 0.07738 0.81615 0.08204 0.0
H2782 H 0.13421 0.78708 0.12594 0.0
H2783 H 0.11654 0.80128 0.11095 0.0
C2784 C 0.34387 0.09949 0.28329 0.0
C2785 C 0.33279 0.1093 0.28835 0.0
C2786 C 0.34964 0.0884 0.29271 0.0
C2787 C 0.3535 0.08086 0.33341 0.0
H2788 H 0.37151 0.044 0.32018 0.0
C2789 C 0.38058 0.0393 0.3749 0.0
C2790 C 0.39441 0.03318 0.3708 0.0
C2791 C 0.37197 0.04734 0.36463 0.0
C2792 C 0.36661 0.0543 0.32407 0.0
H2793 H 0.31861 0.11476 0.30694 0.0
H2794 H 0.32782 0.09495 0.32298 0.0
H2795 H 0.35787 0.05947 0.30251 0.0
H2796 H 0.40964 0.0303 0.35235 0.0
H2797 H 0.39473 0.04429 0.33454 0.0
H2798 H 0.36225 0.07571 0.35493 0.0
C2799 C 0.33249 0.09597 0.31195 0.0
C2800 C 0.35876 0.06322 0.31389 0.0
C2801 C 0.32692 0.10716 0.30262 0.0
C2802 C 0.39918 0.03501 0.35601 0.0
C2803 C 0.39051 0.04292 0.34571 0.0
C2804 C 0.36122 0.0719 0.34358 0.0
C2805 C 0.34443 0.08684 0.30743 0.0
C2806 C 0.35214 0.07672 0.31836 0.0
C2807 C 0.37684 0.04936 0.34989 0.0
C2808 C 0.368 0.05853 0.33907 0.0
H2809 H 0.34899 0.10121 0.27254 0.0
H2810 H 0.35888 0.08176 0.28875 0.0
H2811 H 0.34897 0.0913 0.33735 0.0
H2812 H 0.37655 0.03819 0.38617 0.0
H2813 H 0.36144 0.05199 0.36825 0.0
C2814 C 0.35199 0.43434 0.98879 0.0
C2815 C 0.36015 0.44646 0.98316 0.0
C2816 C 0.34165 0.42677 0.97981 0.0
C2817 C 0.31972 0.42944 0.94455 0.0
H2818 H 0.32173 0.38641 0.94524 0.0
C2819 C 0.29161 0.39327 0.89879 0.0
C2820 C 0.28589 0.37924 0.90267 0.0
C2821 C 0.2998 0.40176 0.90905 0.0
C2822 C 0.32077 0.39841 0.945 0.0
H2823 H 0.36321 0.46045 0.96382 0.0
H2824 H 0.34514 0.44749 0.94836 0.0
H2825 H 0.33665 0.4008 0.96262 0.0
H2826 H 0.28396 0.36346 0.92074 0.0
H2827 H 0.29789 0.37822 0.93861 0.0
H2828 H 0.30382 0.42709 0.92698 0.0
C2829 C 0.34669 0.44378 0.95969 0.0
C2830 C 0.32939 0.4067 0.95503 0.0
C2831 C 0.35711 0.45123 0.96859 0.0
C2832 C 0.2884 0.37406 0.91721 0.0
C2833 C 0.29647 0.38258 0.9275 0.0
C2834 C 0.31101 0.42115 0.93458 0.0
C2835 C 0.33906 0.43119 0.96501 0.0
C2836 C 0.32911 0.42236 0.9549 0.0
C2837 C 0.30243 0.39654 0.92359 0.0
C2838 C 0.31146 0.40547 0.93454 0.0
H2839 H 0.35411 0.43023 0.99989 0.0
H2840 H 0.33587 0.41726 0.98439 0.0
H2841 H 0.31902 0.44146 0.9442 0.0
H2842 H 0.29006 0.39758 0.88768 0.0
H2843 H 0.30433 0.41229 0.90543 0.0
C2844 C 0.68583 0.42448 0.2849 0.0
C2845 C 0.69219 0.4117 0.29127 0.0
C2846 C 0.68022 0.43597 0.29398 0.0
C2847 C 0.679 0.44985 0.33349 0.0
H2848 H 0.63976 0.46401 0.32256 0.0
C2849 C 0.64494 0.48996 0.37159 0.0
C2850 C 0.62948 0.48748 0.37263 0.0
C2851 C 0.65364 0.48237 0.36103 0.0
C2852 C 0.65068 0.46013 0.32586 0.0
H2853 H 0.69832 0.40131 0.31204 0.0
H2854 H 0.68894 0.42119 0.32773 0.0
H2855 H 0.65377 0.44851 0.30531 0.0
H2856 H 0.6113 0.47459 0.36338 0.0
H2857 H 0.62633 0.46145 0.34521 0.0
H2858 H 0.67566 0.46094 0.35429 0.0
C2859 C 0.68826 0.42258 0.31581 0.0
C2860 C 0.65886 0.4514 0.31582 0.0
C2861 C 0.6937 0.41113 0.30678 0.0
C2862 C 0.62306 0.4771 0.36282 0.0
C2863 C 0.63174 0.46953 0.3523 0.0
C2864 C 0.67083 0.45859 0.34354 0.0
C2865 C 0.68094 0.43495 0.30962 0.0
C2866 C 0.67305 0.44586 0.31957 0.0
C2867 C 0.64717 0.47204 0.35118 0.0
C2868 C 0.65641 0.46365 0.34001 0.0
H2869 H 0.68418 0.4251 0.273 0.0
H2870 H 0.67482 0.44539 0.28877 0.0
H2871 H 0.68994 0.446 0.33677 0.0
H2872 H 0.65031 0.49794 0.37879 0.0
H2873 H 0.66543 0.48477 0.36047 0.0
C2874 C 0.67402 0.09378 0.98643 0.0
C2875 C 0.66234 0.085 0.9809 0.0
C2876 C 0.68465 0.09996 0.97673 0.0
C2877 C 0.68814 0.11027 0.93659 0.0
H2878 H 0.7288 0.12005 0.94702 0.0
C2879 C 0.72856 0.13632 0.89367 0.0
C2880 C 0.7377 0.14807 0.8985 0.0
C2881 C 0.72037 0.12778 0.90386 0.0
C2882 C 0.71743 0.11749 0.94395 0.0
H2883 H 0.65307 0.0752 0.96105 0.0
H2884 H 0.67194 0.08507 0.94433 0.0
H2885 H 0.71336 0.10609 0.9645 0.0
H2886 H 0.74569 0.15959 0.91808 0.0
H2887 H 0.7314 0.14481 0.93578 0.0
H2888 H 0.69216 0.12163 0.91609 0.0
C2889 C 0.67276 0.0877 0.95603 0.0
C2890 C 0.70853 0.10947 0.95401 0.0
C2891 C 0.66207 0.08175 0.96566 0.0
C2892 C 0.73866 0.15079 0.91388 0.0
C2893 C 0.73055 0.14217 0.92408 0.0
C2894 C 0.69703 0.11817 0.92653 0.0
C2895 C 0.68386 0.09745 0.96126 0.0
C2896 C 0.69371 0.10569 0.9505 0.0
C2897 C 0.72114 0.13064 0.91923 0.0
C2898 C 0.71182 0.12193 0.93002 0.0
H2899 H 0.67425 0.09684 0.99806 0.0
H2900 H 0.69291 0.10745 0.98127 0.0
H2901 H 0.6767 0.10805 0.93351 0.0
H2902 H 0.72742 0.1339 0.88197 0.0
H2903 H 0.71342 0.1189 0.89966 0.0
C2904 C 0.33245 0.91051 0.21625 0.0
C2905 C 0.33581 0.91054 0.23147 0.0
C2906 C 0.33854 0.92118 0.2067 0.0
C2907 C 0.36092 0.95653 0.2049 0.0
H2908 H 0.37268 0.94026 0.16679 0.0
C2909 C 0.40231 0.98644 0.16464 0.0
C2910 C 0.39941 0.98566 0.14928 0.0
C2911 C 0.39373 0.97833 0.17486 0.0
C2912 C 0.36934 0.9451 0.17728 0.0
H2913 H 0.34797 0.92205 0.24869 0.0
H2914 H 0.35882 0.94067 0.23203 0.0
H2915 H 0.35895 0.9249 0.18417 0.0
H2916 H 0.38497 0.97563 0.13282 0.0
H2917 H 0.37004 0.96162 0.15055 0.0
H2918 H 0.37176 0.97667 0.19798 0.0
C2919 C 0.35116 0.93261 0.22745 0.0
C2920 C 0.36135 0.93626 0.18731 0.0
C2921 C 0.34483 0.922 0.23708 0.0
C2922 C 0.38754 0.97664 0.14451 0.0
C2923 C 0.37903 0.96845 0.15471 0.0
C2924 C 0.36903 0.96537 0.19485 0.0
C2925 C 0.34854 0.93202 0.212 0.0
C2926 C 0.35692 0.94181 0.20128 0.0
C2927 C 0.38205 0.96908 0.17005 0.0
C2928 C 0.37332 0.9598 0.18086 0.0
H2929 H 0.3257 0.9017 0.21157 0.0
H2930 H 0.33582 0.92054 0.19501 0.0
H2931 H 0.35767 0.96131 0.21543 0.0
H2932 H 0.41122 0.99338 0.1688 0.0
H2933 H 0.39649 0.97906 0.18654 0.0
C2934 C 0.24065 0.37707 0.10701 0.0
C2935 C 0.24245 0.38188 0.12179 0.0
C2936 C 0.23285 0.38575 0.09665 0.0
C2937 C 0.20412 0.41528 0.09426 0.0
H2938 H 0.21667 0.41815 0.05319 0.0
C2939 C 0.16915 0.4494 0.05291 0.0
C2940 C 0.16692 0.44332 0.03873 0.0
C2941 C 0.18033 0.44389 0.06229 0.0
C2942 C 0.21289 0.4174 0.06457 0.0
H2943 H 0.23751 0.39981 0.13707 0.0
H2944 H 0.22392 0.41496 0.11902 0.0
H2945 H 0.23199 0.40453 0.07101 0.0
H2946 H 0.17485 0.42684 0.02316 0.0
H2947 H 0.19431 0.41708 0.03946 0.0
H2948 H 0.18483 0.42766 0.08789 0.0
C2949 C 0.22849 0.40439 0.11546 0.0
C2950 C 0.22173 0.40957 0.07483 0.0
C2951 C 0.23642 0.39576 0.12581 0.0
C2952 C 0.17665 0.43212 0.03382 0.0
C2953 C 0.18774 0.42642 0.04329 0.0
C2954 C 0.19525 0.423 0.08401 0.0
C2955 C 0.2265 0.39947 0.10073 0.0
C2956 C 0.21744 0.40833 0.08983 0.0
C2957 C 0.18937 0.43183 0.05793 0.0
C2958 C 0.19942 0.42418 0.06896 0.0
H2959 H 0.24529 0.36656 0.10341 0.0
H2960 H 0.23149 0.3815 0.08548 0.0
H2961 H 0.20027 0.41438 0.10561 0.0
H2962 H 0.16159 0.4578 0.05713 0.0
H2963 H 0.1814 0.4487 0.07326 0.0
C2964 C 0.69619 0.609 0.21787 0.0
C2965 C 0.69124 0.61033 0.23258 0.0
C2966 C 0.69039 0.59802 0.20844 0.0
C2967 C 0.66524 0.56435 0.207 0.0
H2968 H 0.65988 0.57721 0.16627 0.0
C2969 C 0.62466 0.53522 0.16557 0.0
C2970 C 0.62937 0.53338 0.15077 0.0
C2971 C 0.63317 0.54345 0.17575 0.0
C2972 C 0.66142 0.57332 0.17755 0.0
H2973 H 0.67634 0.60113 0.24901 0.0
H2974 H 0.66597 0.5821 0.23262 0.0
H2975 H 0.67313 0.59306 0.18363 0.0
H2976 H 0.6469 0.53883 0.13519 0.0
H2977 H 0.66169 0.55326 0.15287 0.0
H2978 H 0.65295 0.5448 0.20085 0.0
C2979 C 0.67472 0.58917 0.22836 0.0
C2980 C 0.66914 0.58242 0.18758 0.0
C2981 C 0.68075 0.60004 0.23787 0.0
C2982 C 0.64294 0.53992 0.14649 0.0
C2983 C 0.65137 0.54831 0.15662 0.0
C2984 C 0.65735 0.55531 0.19697 0.0
C2985 C 0.67908 0.58829 0.21331 0.0
C2986 C 0.67122 0.57813 0.20251 0.0
C2987 C 0.64659 0.55026 0.17139 0.0
C2988 C 0.65531 0.55967 0.18209 0.0
H2989 H 0.70403 0.61698 0.2134 0.0
H2990 H 0.69444 0.59755 0.19714 0.0
H2991 H 0.66669 0.56045 0.21826 0.0
H2992 H 0.61437 0.53022 0.16934 0.0
H2993 H 0.62905 0.54475 0.18697 0.0
C2994 C 0.78842 0.14907 0.10559 0.0
C2995 C 0.78609 0.14377 0.12012 0.0
C2996 C 0.79628 0.1406 0.09511 0.0
C2997 C 0.81034 0.10206 0.08716 0.0
H2998 H 0.83638 0.12268 0.05974 0.0
C2999 C 0.85585 0.07195 0.0523 0.0
C3000 C 0.85932 0.0773 0.03802 0.0
C3001 C 0.84547 0.07931 0.06134 0.0
C3002 C 0.829 0.11671 0.06714 0.0
H3003 H 0.79026 0.12519 0.13483 0.0
H3004 H 0.80413 0.1105 0.11668 0.0
H3005 H 0.82165 0.13687 0.07747 0.0
H3006 H 0.85398 0.09441 0.02192 0.0
H3007 H 0.83575 0.10715 0.03762 0.0
H3008 H 0.81797 0.08187 0.07696 0.0
C3009 C 0.79965 0.12115 0.11327 0.0
C3010 C 0.8205 0.12489 0.07738 0.0
C3011 C 0.7917 0.12961 0.12376 0.0
C3012 C 0.85155 0.08986 0.03278 0.0
C3013 C 0.84121 0.0973 0.0419 0.0
C3014 C 0.8189 0.09388 0.07695 0.0
C3015 C 0.80217 0.12654 0.09878 0.0
C3016 C 0.81106 0.11772 0.08763 0.0
C3017 C 0.83826 0.09233 0.05646 0.0
C3018 C 0.82843 0.10106 0.06681 0.0
H3019 H 0.78402 0.15976 0.10223 0.0
H3020 H 0.79761 0.14507 0.08404 0.0
H3021 H 0.80305 0.09607 0.09462 0.0
H3022 H 0.86163 0.06237 0.05677 0.0
H3023 H 0.84364 0.07515 0.07247 0.0
C3024 C 0.35771 0.39884 0.03368 0.0
C3025 C 0.37308 0.39604 0.03516 0.0
C3026 C 0.34716 0.39019 0.04125 0.0
C3027 C 0.34236 0.35437 0.06214 0.0
H3028 H 0.30785 0.3744 0.07859 0.0
C3029 C 0.30678 0.32995 0.10987 0.0
C3030 C 0.29149 0.33321 0.11072 0.0
C3031 C 0.31562 0.33576 0.09846 0.0
C3032 C 0.31725 0.36852 0.07387 0.0
H3033 H 0.38924 0.38169 0.04581 0.0
H3034 H 0.37095 0.36673 0.05913 0.0
H3035 H 0.32552 0.3883 0.06354 0.0
H3036 H 0.27339 0.34485 0.09993 0.0
H3037 H 0.28881 0.35493 0.07978 0.0
H3038 H 0.33424 0.33467 0.07285 0.0
C3039 C 0.36698 0.37549 0.0519 0.0
C3040 C 0.32747 0.37654 0.0652 0.0
C3041 C 0.37754 0.38411 0.04425 0.0
C3042 C 0.28506 0.3418 0.09937 0.0
C3043 C 0.29398 0.34781 0.08799 0.0
C3044 C 0.33216 0.34637 0.07086 0.0
C3045 C 0.3516 0.37846 0.05064 0.0
C3046 C 0.3403 0.36965 0.05932 0.0
C3047 C 0.3095 0.34524 0.08764 0.0
C3048 C 0.31953 0.35335 0.07702 0.0
H3049 H 0.35378 0.40771 0.02657 0.0
H3050 H 0.33548 0.39269 0.03967 0.0
H3051 H 0.35187 0.34853 0.05761 0.0
H3052 H 0.31211 0.32362 0.11862 0.0
H3053 H 0.32748 0.3336 0.09875 0.0
C3054 C 0.28793 0.68552 0.42145 0.0
C3055 C 0.29401 0.69276 0.40902 0.0
C3056 C 0.2973 0.67953 0.43251 0.0
C3057 C 0.33633 0.66575 0.43617 0.0
H3058 H 0.32688 0.66169 0.47792 0.0
C3059 C 0.3697 0.62587 0.47413 0.0
C3060 C 0.37283 0.63024 0.48882 0.0
C3061 C 0.36002 0.63419 0.46516 0.0
C3062 C 0.32978 0.66281 0.46631 0.0
H3063 H 0.31454 0.70024 0.39896 0.0
H3064 H 0.33071 0.69056 0.41836 0.0
H3065 H 0.3102 0.67579 0.46165 0.0
H3066 H 0.36792 0.64699 0.50545 0.0
H3067 H 0.35126 0.6616 0.48972 0.0
H3068 H 0.35593 0.65299 0.44072 0.0
C3069 C 0.31881 0.689 0.41948 0.0
C3070 C 0.3201 0.6708 0.45693 0.0
C3071 C 0.3095 0.6948 0.40844 0.0
C3072 C 0.36596 0.64328 0.4942 0.0
C3073 C 0.35622 0.6516 0.4852 0.0
C3074 C 0.34595 0.65778 0.44549 0.0
C3075 C 0.31295 0.68069 0.43137 0.0
C3076 C 0.32324 0.67242 0.44169 0.0
C3077 C 0.3531 0.6472 0.47051 0.0
C3078 C 0.34284 0.6561 0.46071 0.0
H3079 H 0.27606 0.68346 0.42204 0.0
H3080 H 0.29232 0.6732 0.44143 0.0
H3081 H 0.3391 0.66644 0.42449 0.0
H3082 H 0.37481 0.61602 0.46948 0.0
H3083 H 0.35782 0.63026 0.45401 0.0
C3084 C 0.93339 0.49095 0.85052 0.0
C3085 C 0.94183 0.48454 0.862 0.0
C3086 C 0.92734 0.482 0.83919 0.0
C3087 C 0.92856 0.44373 0.82237 0.0
H3088 H 0.8867 0.45064 0.81461 0.0
C3089 C 0.89077 0.39847 0.79571 0.0
C3090 C 0.87894 0.40291 0.78646 0.0
C3091 C 0.89937 0.40903 0.80338 0.0
C3092 C 0.89845 0.44861 0.81639 0.0
H3093 H 0.95109 0.4639 0.8702 0.0
H3094 H 0.94106 0.44847 0.85039 0.0
H3095 H 0.90063 0.46829 0.82967 0.0
H3096 H 0.8674 0.42217 0.77766 0.0
H3097 H 0.88237 0.44048 0.79081 0.0
H3098 H 0.92637 0.42397 0.80923 0.0
C3099 C 0.93905 0.46034 0.84998 0.0
C3100 C 0.90648 0.45881 0.82507 0.0
C3101 C 0.94489 0.46922 0.86134 0.0
C3102 C 0.8762 0.41826 0.78488 0.0
C3103 C 0.88482 0.42881 0.79248 0.0
C3104 C 0.92055 0.43355 0.81364 0.0
C3105 C 0.92973 0.46647 0.83901 0.0
C3106 C 0.92162 0.45644 0.82838 0.0
C3107 C 0.89647 0.4244 0.802 0.0
C3108 C 0.90529 0.4357 0.81067 0.0
H3109 H 0.9305 0.50265 0.85093 0.0
H3110 H 0.92034 0.48716 0.83086 0.0
H3111 H 0.94024 0.44158 0.82448 0.0
H3112 H 0.89316 0.38679 0.79736 0.0
H3113 H 0.90805 0.40508 0.81072 0.0
C3114 C 0.64638 0.88169 0.47851 0.0
C3115 C 0.65152 0.89419 0.48637 0.0
C3116 C 0.65614 0.8732 0.46972 0.0
C3117 C 0.69606 0.86405 0.46354 0.0
H3118 H 0.68311 0.85398 0.42381 0.0
C3119 C 0.73662 0.84002 0.41859 0.0
C3120 C 0.73063 0.83143 0.40702 0.0
C3121 C 0.72727 0.84631 0.42948 0.0
C3122 C 0.68691 0.85634 0.43495 0.0
H3123 H 0.67116 0.90718 0.49149 0.0
H3124 H 0.68817 0.89232 0.47631 0.0
H3125 H 0.66636 0.86725 0.44031 0.0
H3126 H 0.71032 0.82195 0.39831 0.0
H3127 H 0.69425 0.83191 0.41765 0.0
H3128 H 0.71656 0.85297 0.45829 0.0
C3129 C 0.67657 0.88912 0.47687 0.0
C3130 C 0.67723 0.86409 0.44443 0.0
C3131 C 0.66677 0.89774 0.48548 0.0
C3132 C 0.71528 0.82848 0.40713 0.0
C3133 C 0.70601 0.83446 0.41812 0.0
C3134 C 0.70571 0.8561 0.45411 0.0
C3135 C 0.67137 0.87683 0.46871 0.0
C3136 C 0.68166 0.86813 0.45884 0.0
C3137 C 0.7117 0.84401 0.42916 0.0
C3138 C 0.70132 0.85212 0.4396 0.0
H3139 H 0.63473 0.87867 0.47886 0.0
H3140 H 0.65175 0.86375 0.46369 0.0
H3141 H 0.69982 0.86686 0.4746 0.0
H3142 H 0.74836 0.84279 0.41861 0.0
H3143 H 0.7322 0.85364 0.43764 0.0
C3144 C 0.59274 0.53726 0.35082 0.0
C3145 C 0.58444 0.54291 0.36279 0.0
C3146 C 0.59865 0.54693 0.34001 0.0
C3147 C 0.60933 0.587 0.33628 0.0
H3148 H 0.61757 0.57653 0.29539 0.0
C3149 C 0.63528 0.62955 0.29541 0.0
C3150 C 0.6467 0.6244 0.28601 0.0
C3151 C 0.62662 0.61955 0.30371 0.0
C3152 C 0.61544 0.57961 0.30681 0.0
H3153 H 0.57513 0.56291 0.37236 0.0
H3154 H 0.58453 0.57955 0.35324 0.0
H3155 H 0.60385 0.5592 0.31121 0.0
H3156 H 0.65744 0.60449 0.27763 0.0
H3157 H 0.64246 0.58713 0.29212 0.0
H3158 H 0.62092 0.60734 0.33195 0.0
C3159 C 0.58702 0.5678 0.35232 0.0
C3160 C 0.60756 0.56963 0.31592 0.0
C3161 C 0.58134 0.55821 0.36317 0.0
C3162 C 0.64891 0.60892 0.28487 0.0
C3163 C 0.64018 0.59892 0.29309 0.0
C3164 C 0.6171 0.59697 0.32718 0.0
C3165 C 0.59633 0.56245 0.34091 0.0
C3166 C 0.60436 0.57316 0.33084 0.0
C3167 C 0.62902 0.60408 0.3028 0.0
C3168 C 0.62032 0.59345 0.31231 0.0
H3169 H 0.59566 0.52558 0.35046 0.0
H3170 H 0.6058 0.5423 0.33151 0.0
H3171 H 0.60756 0.59008 0.34776 0.0
H3172 H 0.63326 0.64135 0.29667 0.0
H3173 H 0.61803 0.62398 0.3109 0.0
C3174 C 0.14593 0.63727 0.54951 0.0
C3175 C 0.14939 0.62941 0.53647 0.0
C3176 C 0.15689 0.64551 0.55702 0.0
C3177 C 0.1986 0.64996 0.55942 0.0
H3178 H 0.18791 0.68308 0.58477 0.0
C3179 C 0.2388 0.67221 0.60433 0.0
C3180 C 0.23741 0.68679 0.60973 0.0
C3181 C 0.22917 0.66677 0.59338 0.0
C3182 C 0.19125 0.67404 0.57757 0.0
H3183 H 0.16694 0.6246 0.52076 0.0
H3184 H 0.18583 0.63944 0.53328 0.0
H3185 H 0.16895 0.67124 0.56967 0.0
H3186 H 0.22501 0.70728 0.60759 0.0
H3187 H 0.20865 0.69817 0.5878 0.0
H3188 H 0.22098 0.65314 0.56681 0.0
C3189 C 0.17485 0.63885 0.5382 0.0
C3190 C 0.18021 0.66698 0.56904 0.0
C3191 C 0.16396 0.63039 0.53088 0.0
C3192 C 0.22664 0.69613 0.60334 0.0
C3193 C 0.21702 0.69073 0.59222 0.0
C3194 C 0.20966 0.65716 0.56774 0.0
C3195 C 0.17162 0.64638 0.55157 0.0
C3196 C 0.18361 0.65462 0.56 0.0
C3197 C 0.21777 0.67577 0.58742 0.0
C3198 C 0.20618 0.66915 0.57723 0.0
H3199 H 0.13487 0.6366 0.55423 0.0
H3200 H 0.15384 0.65082 0.56736 0.0
H3201 H 0.20186 0.64044 0.55284 0.0
H3202 H 0.2467 0.66461 0.60939 0.0
H3203 H 0.23012 0.65516 0.59036 0.0
C3204 C 0.87319 0.6107 0.7314 0.0
C3205 C 0.87976 0.62272 0.73903 0.0
C3206 C 0.88182 0.60088 0.72285 0.0
C3207 C 0.91858 0.59768 0.70369 0.0
H3208 H 0.90728 0.55624 0.70004 0.0
C3209 C 0.93891 0.56079 0.65528 0.0
C3210 C 0.94089 0.54539 0.65721 0.0
C3211 C 0.93358 0.56976 0.66681 0.0
C3212 C 0.91078 0.56771 0.70106 0.0
H3213 H 0.90087 0.63352 0.74348 0.0
H3214 H 0.91588 0.61629 0.72888 0.0
H3215 H 0.89381 0.57242 0.71714 0.0
H3216 H 0.93921 0.52742 0.67308 0.0
H3217 H 0.93002 0.54317 0.69346 0.0
H3218 H 0.93562 0.59296 0.68772 0.0
C3219 C 0.90396 0.61458 0.72934 0.0
C3220 C 0.90286 0.57711 0.71074 0.0
C3221 C 0.89532 0.62444 0.7379 0.0
C3222 C 0.93803 0.53927 0.67128 0.0
C3223 C 0.93253 0.54829 0.68289 0.0
C3224 C 0.9265 0.58829 0.69404 0.0
C3225 C 0.89735 0.60264 0.72162 0.0
C3226 C 0.90646 0.59232 0.71204 0.0
C3227 C 0.92992 0.56365 0.68071 0.0
C3228 C 0.92257 0.57321 0.69234 0.0
H3229 H 0.86134 0.60873 0.73205 0.0
H3230 H 0.87619 0.59202 0.71697 0.0
H3231 H 0.92172 0.60928 0.70422 0.0
H3232 H 0.94091 0.56587 0.64456 0.0
H3233 H 0.9316 0.58141 0.66451 0.0
C3234 C 0.15211 0.91545 0.73243 0.0
C3235 C 0.14544 0.90302 0.73926 0.0
C3236 C 0.14364 0.92563 0.72417 0.0
C3237 C 0.10745 0.92943 0.70413 0.0
H3238 H 0.11858 0.97105 0.70262 0.0
C3239 C 0.08903 0.96801 0.65644 0.0
C3240 C 0.08683 0.98331 0.65885 0.0
C3241 C 0.09387 0.95866 0.66786 0.0
C3242 C 0.11513 0.95953 0.70304 0.0
H3243 H 0.12431 0.89187 0.74262 0.0
H3244 H 0.10956 0.90971 0.72852 0.0
H3245 H 0.13157 0.95424 0.71947 0.0
H3246 H 0.08759 1.0007 0.67543 0.0
H3247 H 0.09594 0.98426 0.69564 0.0
H3248 H 0.09095 0.93472 0.6878 0.0
C3249 C 0.12144 0.91148 0.72939 0.0
C3250 C 0.12277 0.94978 0.71259 0.0
C3251 C 0.12993 0.90126 0.73765 0.0
C3252 C 0.08895 0.98893 0.67326 0.0
C3253 C 0.09396 0.97952 0.68477 0.0
C3254 C 0.09981 0.93917 0.69463 0.0
C3255 C 0.12817 0.92382 0.72244 0.0
C3256 C 0.11925 0.9345 0.71309 0.0
C3257 C 0.0968 0.96427 0.68213 0.0
C3258 C 0.10371 0.95433 0.69369 0.0
H3259 H 0.16392 0.91746 0.73349 0.0
H3260 H 0.14936 0.93481 0.71888 0.0
H3261 H 0.10439 0.9178 0.70405 0.0
H3262 H 0.08761 0.96333 0.64545 0.0
H3263 H 0.09606 0.94711 0.66521 0.0
C3264 C 0.61326 0.80721 0.82916 0.0
C3265 C 0.61361 0.79209 0.83301 0.0
C3266 C 0.60244 0.81677 0.83507 0.0
C3267 C 0.56739 0.81849 0.85806 0.0
H3268 H 0.58272 0.85756 0.86791 0.0
C3269 C 0.53759 0.85925 0.89905 0.0
C3270 C 0.53769 0.87454 0.89562 0.0
C3271 C 0.54571 0.84899 0.8905 0.0
C3272 C 0.57814 0.84678 0.8651 0.0
H3273 H 0.60267 0.77503 0.8459 0.0
H3274 H 0.58383 0.79169 0.85647 0.0
H3275 H 0.59831 0.8401 0.85446 0.0
H3276 H 0.54647 0.89086 0.88026 0.0
H3277 H 0.56056 0.87306 0.86537 0.0
H3278 H 0.54731 0.82521 0.8692 0.0
C3279 C 0.59167 0.79619 0.84854 0.0
C3280 C 0.58711 0.8367 0.85727 0.0
C3281 C 0.60241 0.78655 0.84238 0.0
C3282 C 0.54601 0.87922 0.88323 0.0
C3283 C 0.55424 0.86898 0.87476 0.0
C3284 C 0.55843 0.82858 0.86602 0.0
C3285 C 0.59185 0.81158 0.84539 0.0
C3286 C 0.5819 0.82238 0.85353 0.0
C3287 C 0.55431 0.85372 0.87831 0.0
C3288 C 0.56367 0.84291 0.86964 0.0
H3289 H 0.62188 0.81184 0.82213 0.0
H3290 H 0.60278 0.82838 0.83195 0.0
H3291 H 0.56284 0.80769 0.85533 0.0
H3292 H 0.5312 0.85516 0.90838 0.0
H3293 H 0.54554 0.83738 0.89367 0.0
C3294 C 0.05463 0.17166 0.45277 0.0
C3295 C 0.04062 0.16765 0.44705 0.0
C3296 C 0.06362 0.18209 0.44548 0.0
C3297 C 0.06431 0.2107 0.41501 0.0
H3298 H 0.10646 0.20131 0.41469 0.0
C3299 C 0.10612 0.23848 0.37403 0.0
C3300 C 0.12053 0.24194 0.37917 0.0
C3301 C 0.09609 0.23044 0.38288 0.0
C3302 C 0.09477 0.20427 0.41478 0.0
H3303 H 0.0249 0.17201 0.42934 0.0
H3304 H 0.04061 0.19009 0.41651 0.0
H3305 H 0.08943 0.186 0.42901 0.0
H3306 H 0.13548 0.23964 0.39789 0.0
H3307 H 0.118 0.22569 0.41335 0.0
H3308 H 0.06973 0.22882 0.40047 0.0
C3309 C 0.04462 0.18534 0.4268 0.0
C3310 C 0.08492 0.19546 0.42308 0.0
C3311 C 0.03552 0.17497 0.43421 0.0
C3312 C 0.1245 0.23726 0.39355 0.0
C3313 C 0.11449 0.22912 0.40237 0.0
C3314 C 0.07418 0.21948 0.40663 0.0
C3315 C 0.05902 0.18875 0.43208 0.0
C3316 C 0.06951 0.1985 0.42337 0.0
C3317 C 0.10014 0.22551 0.39715 0.0
C3318 C 0.08957 0.21639 0.40637 0.0
H3319 H 0.05892 0.16629 0.46264 0.0
H3320 H 0.07439 0.18466 0.45021 0.0
H3321 H 0.05261 0.21359 0.41503 0.0
H3322 H 0.10252 0.24204 0.36314 0.0
H3323 H 0.08522 0.22783 0.37838 0.0
C3324 C 0.48564 0.6497 0.87922 0.0
C3325 C 0.491 0.65333 0.89345 0.0
C3326 C 0.47761 0.66014 0.87076 0.0
C3327 C 0.45608 0.69574 0.87449 0.0
H3328 H 0.45936 0.69661 0.83162 0.0
C3329 C 0.42509 0.74042 0.83948 0.0
C3330 C 0.4177 0.73528 0.82669 0.0
C3331 C 0.43535 0.7313 0.84701 0.0
C3332 C 0.45822 0.69649 0.84358 0.0
H3333 H 0.49251 0.67118 0.90956 0.0
H3334 H 0.47877 0.68927 0.8949 0.0
H3335 H 0.4743 0.67898 0.84585 0.0
H3336 H 0.41599 0.71668 0.81148 0.0
H3337 H 0.43385 0.70096 0.82442 0.0
H3338 H 0.43997 0.71321 0.87221 0.0
C3339 C 0.48037 0.67824 0.89036 0.0
C3340 C 0.46679 0.6863 0.85178 0.0
C3341 C 0.48832 0.6678 0.89882 0.0
C3342 C 0.42147 0.72108 0.82124 0.0
C3343 C 0.43178 0.71203 0.82869 0.0
C3344 C 0.44757 0.70596 0.86629 0.0
C3345 C 0.47475 0.67457 0.87623 0.0
C3346 C 0.46581 0.68568 0.86739 0.0
C3347 C 0.43861 0.71682 0.84192 0.0
C3348 C 0.44841 0.70645 0.85069 0.0
H3349 H 0.48734 0.63867 0.87474 0.0
H3350 H 0.47335 0.65673 0.86005 0.0
H3351 H 0.45473 0.69553 0.88642 0.0
H3352 H 0.42241 0.75122 0.84412 0.0
H3353 H 0.44052 0.73551 0.85702 0.0
C3354 C 0.98971 0.34734 0.43659 0.0
C3355 C 0.98299 0.36057 0.44155 0.0
C3356 C 0.98091 0.33553 0.4312 0.0
C3357 C 0.94122 0.32196 0.42821 0.0
H3358 H 0.95498 0.30418 0.39153 0.0
C3359 C 0.90468 0.27986 0.39501 0.0
C3360 C 0.905 0.28081 0.3794 0.0
C3361 C 0.91478 0.28796 0.40379 0.0
C3362 C 0.95087 0.30908 0.40172 0.0
H3363 H 0.96184 0.37144 0.44545 0.0
H3364 H 0.94666 0.3511 0.43637 0.0
H3365 H 0.9714 0.32065 0.40537 0.0
H3366 H 0.91673 0.29111 0.36099 0.0
H3367 H 0.93378 0.30539 0.37611 0.0
H3368 H 0.92045 0.31097 0.42421 0.0
C3369 C 0.95862 0.34958 0.43665 0.0
C3370 C 0.96044 0.31839 0.40983 0.0
C3371 C 0.96736 0.36132 0.4419 0.0
C3372 C 0.91583 0.29011 0.3729 0.0
C3373 C 0.92588 0.29821 0.38165 0.0
C3374 C 0.93163 0.3127 0.42008 0.0
C3375 C 0.96521 0.33667 0.43074 0.0
C3376 C 0.95568 0.32522 0.42308 0.0
C3377 C 0.92556 0.29729 0.39725 0.0
C3378 C 0.93619 0.3063 0.40654 0.0
H3379 H 1.00172 0.34653 0.43588 0.0
H3380 H 0.98643 0.32571 0.42692 0.0
H3381 H 0.93715 0.32679 0.43845 0.0
H3382 H 0.89654 0.27294 0.40052 0.0
H3383 H 0.9142 0.28679 0.41573 0.0
C3384 C 0.60127 0.24004 0.68347 0.0
C3385 C 0.60956 0.23414 0.69536 0.0
C3386 C 0.59059 0.2313 0.67608 0.0
C3387 C 0.56836 0.19609 0.67878 0.0
H3388 H 0.56998 0.19701 0.63582 0.0
C3389 C 0.54056 0.15015 0.64251 0.0
C3390 C 0.5347 0.1541 0.62856 0.0
C3391 C 0.54861 0.16049 0.65104 0.0
C3392 C 0.56913 0.19671 0.6478 0.0
H3393 H 0.61247 0.21466 0.70921 0.0
H3394 H 0.59383 0.19964 0.6966 0.0
H3395 H 0.58498 0.21437 0.65016 0.0
H3396 H 0.53228 0.17237 0.61306 0.0
H3397 H 0.546 0.19033 0.6279 0.0
H3398 H 0.55254 0.17841 0.67645 0.0
C3399 C 0.59552 0.21097 0.69291 0.0
C3400 C 0.57779 0.20674 0.65606 0.0
C3401 C 0.60626 0.21962 0.70017 0.0
C3402 C 0.53686 0.16878 0.62357 0.0
C3403 C 0.54481 0.17913 0.63213 0.0
C3404 C 0.55963 0.18611 0.67052 0.0
C3405 C 0.5878 0.21649 0.68047 0.0
C3406 C 0.57766 0.20651 0.67169 0.0
C3407 C 0.55096 0.17515 0.64596 0.0
C3408 C 0.55995 0.18614 0.65487 0.0
H3409 H 0.60362 0.25109 0.67932 0.0
H3410 H 0.58476 0.23603 0.66668 0.0
H3411 H 0.56778 0.19566 0.69077 0.0
H3412 H 0.53926 0.13894 0.64667 0.0
H3413 H 0.55329 0.15683 0.66149 0.0
C3414 C 0.39988 0.23623 0.62947 0.0
C3415 C 0.40405 0.24228 0.64327 0.0
C3416 C 0.41015 0.2282 0.62081 0.0
C3417 C 0.45083 0.22119 0.61532 0.0
H3418 H 0.43742 0.18448 0.59729 0.0
C3419 C 0.49161 0.1761 0.59218 0.0
C3420 C 0.48654 0.16646 0.58101 0.0
C3421 C 0.48219 0.18718 0.59803 0.0
C3422 C 0.44139 0.19484 0.60194 0.0
H3423 H 0.42261 0.24497 0.65842 0.0
H3424 H 0.44039 0.23099 0.64344 0.0
H3425 H 0.41982 0.19995 0.61076 0.0
H3426 H 0.46791 0.16127 0.56677 0.0
H3427 H 0.45187 0.18106 0.57614 0.0
H3428 H 0.47244 0.21606 0.60652 0.0
C3429 C 0.42917 0.23243 0.63927 0.0
C3430 C 0.43122 0.20374 0.60976 0.0
C3431 C 0.41889 0.24033 0.64798 0.0
C3432 C 0.47225 0.16876 0.57513 0.0
C3433 C 0.46292 0.17993 0.58079 0.0
C3434 C 0.46101 0.21234 0.60738 0.0
C3435 C 0.42494 0.2261 0.62562 0.0
C3436 C 0.43577 0.21699 0.61669 0.0
C3437 C 0.46745 0.18888 0.59282 0.0
C3438 C 0.4565 0.19894 0.60061 0.0
H3439 H 0.38858 0.23742 0.62549 0.0
H3440 H 0.40648 0.22365 0.61031 0.0
H3441 H 0.45475 0.23141 0.62033 0.0
H3442 H 0.50237 0.17424 0.59732 0.0
H3443 H 0.48616 0.19368 0.60733 0.0
C3444 C 0.47763 0.37073 0.62451 0.0
C3445 C 0.49253 0.3737 0.62833 0.0
C3446 C 0.46901 0.36074 0.63282 0.0
C3447 C 0.47145 0.32931 0.65979 0.0
H3448 H 0.42995 0.33892 0.66658 0.0
C3449 C 0.4269 0.28699 0.68221 0.0
C3450 C 0.41511 0.29281 0.69068 0.0
C3451 C 0.43792 0.29648 0.67634 0.0
C3452 C 0.44155 0.33606 0.66498 0.0
H3453 H 0.50998 0.36817 0.64402 0.0
H3454 H 0.49492 0.35088 0.6586 0.0
H3455 H 0.44559 0.3562 0.65299 0.0
H3456 H 0.40609 0.31291 0.70032 0.0
H3457 H 0.42548 0.32924 0.6908 0.0
H3458 H 0.46729 0.30912 0.6719 0.0
C3459 C 0.48992 0.35625 0.64906 0.0
C3460 C 0.45052 0.34595 0.65695 0.0
C3461 C 0.49853 0.36634 0.64078 0.0
C3462 C 0.41516 0.30806 0.69403 0.0
C3463 C 0.42616 0.31748 0.6883 0.0
C3464 C 0.46241 0.31934 0.66779 0.0
C3465 C 0.475 0.35332 0.64523 0.0
C3466 C 0.4656 0.34274 0.65416 0.0
C3467 C 0.43733 0.31198 0.67879 0.0
C3468 C 0.44731 0.32258 0.67055 0.0
H3469 H 0.47253 0.37622 0.61511 0.0
H3470 H 0.45765 0.35869 0.62936 0.0
H3471 H 0.48296 0.32635 0.65778 0.0
H3472 H 0.42691 0.27536 0.67906 0.0
H3473 H 0.44628 0.29179 0.66904 0.0
C3474 C 0.55852 0.35981 0.57488 0.0
C3475 C 0.54385 0.36208 0.57978 0.0
C3476 C 0.56743 0.34857 0.581 0.0
C3477 C 0.56747 0.31558 0.6069 0.0
H3478 H 0.60868 0.32716 0.61231 0.0
C3479 C 0.60781 0.28562 0.64803 0.0
C3480 C 0.62273 0.28352 0.64365 0.0
C3481 C 0.5979 0.29395 0.63928 0.0
C3482 C 0.59727 0.32361 0.61076 0.0
H3483 H 0.52688 0.35402 0.59477 0.0
H3484 H 0.54241 0.33451 0.60571 0.0
H3485 H 0.59189 0.34334 0.5987 0.0
H3486 H 0.63876 0.28853 0.62642 0.0
H3487 H 0.62154 0.30308 0.61118 0.0
H3488 H 0.57291 0.29601 0.61947 0.0
C3489 C 0.54702 0.34115 0.59681 0.0
C3490 C 0.58756 0.33291 0.60284 0.0
C3491 C 0.53801 0.3523 0.59046 0.0
C3492 C 0.62737 0.28983 0.63013 0.0
C3493 C 0.6175 0.2983 0.62145 0.0
C3494 C 0.57719 0.30631 0.61496 0.0
C3495 C 0.56208 0.33945 0.59256 0.0
C3496 C 0.57247 0.32909 0.60073 0.0
C3497 C 0.60262 0.30058 0.62594 0.0
C3498 C 0.59225 0.3102 0.61701 0.0
H3499 H 0.5634 0.36727 0.56678 0.0
H3500 H 0.57874 0.34742 0.577 0.0
H3501 H 0.55604 0.31206 0.60545 0.0
H3502 H 0.60374 0.28079 0.65825 0.0
H3503 H 0.5866 0.2955 0.64319 0.0
C3504 C 0.89821 0.53543 0.85757 0.0
C3505 C 0.89405 0.53516 0.87264 0.0
C3506 C 0.88975 0.54327 0.84706 0.0
C3507 C 0.8527 0.56221 0.84138 0.0
H3508 H 0.87361 0.58179 0.80923 0.0
C3509 C 0.82796 0.61094 0.80702 0.0
C3510 C 0.83147 0.61215 0.79185 0.0
C3511 C 0.83397 0.59951 0.81574 0.0
C3512 C 0.86752 0.57621 0.81798 0.0
H3513 H 0.87759 0.54298 0.88835 0.0
H3514 H 0.86304 0.55697 0.87021 0.0
H3515 H 0.88742 0.56651 0.82676 0.0
H3516 H 0.84381 0.60202 0.77387 0.0
H3517 H 0.85439 0.58196 0.78911 0.0
H3518 H 0.83289 0.57248 0.83282 0.0
C3519 C 0.87266 0.55082 0.86636 0.0
C3520 C 0.87547 0.56738 0.82811 0.0
C3521 C 0.88105 0.54282 0.87684 0.0
C3522 C 0.8406 0.60119 0.78543 0.0
C3523 C 0.84686 0.58985 0.79424 0.0
C3524 C 0.84478 0.57118 0.83133 0.0
C3525 C 0.87691 0.55128 0.85127 0.0
C3526 C 0.86824 0.56029 0.84008 0.0
C3527 C 0.84393 0.5891 0.80962 0.0
C3528 C 0.85209 0.57841 0.81954 0.0
H3529 H 0.90799 0.52945 0.85386 0.0
H3530 H 0.89329 0.54296 0.83559 0.0
H3531 H 0.84657 0.55676 0.85017 0.0
H3532 H 0.82117 0.61936 0.81235 0.0
H3533 H 0.83153 0.59942 0.82751 0.0
C3534 C 0.85182 0.93327 0.4858 0.0
C3535 C 0.86422 0.9402 0.47927 0.0
C3536 C 0.84044 0.92725 0.47686 0.0
C3537 C 0.82592 0.92588 0.43761 0.0
H3538 H 0.81321 0.88619 0.44844 0.0
C3539 C 0.78582 0.89146 0.40009 0.0
C3540 C 0.78856 0.87609 0.39878 0.0
C3541 C 0.79348 0.90013 0.4106 0.0
C3542 C 0.81668 0.89723 0.44516 0.0
H3543 H 0.87405 0.94682 0.45838 0.0
H3544 H 0.85433 0.93674 0.44294 0.0
H3545 H 0.82866 0.90048 0.46549 0.0
H3546 H 0.80189 0.85798 0.40754 0.0
H3547 H 0.81522 0.87297 0.42562 0.0
H3548 H 0.81449 0.92242 0.41703 0.0
C3549 C 0.85315 0.93594 0.45488 0.0
C3550 C 0.82539 0.90556 0.4551 0.0
C3551 C 0.86451 0.94179 0.46376 0.0
C3552 C 0.79922 0.86969 0.40831 0.0
C3553 C 0.80689 0.87834 0.41878 0.0
C3554 C 0.81722 0.91756 0.42767 0.0
C3555 C 0.84117 0.92811 0.46121 0.0
C3556 C 0.83038 0.91993 0.45139 0.0
C3557 C 0.80416 0.89372 0.42012 0.0
C3558 C 0.81265 0.90299 0.43117 0.0
H3559 H 0.85146 0.93154 0.49769 0.0
H3560 H 0.83133 0.92146 0.48219 0.0
H3561 H 0.82934 0.93695 0.43436 0.0
H3562 H 0.77758 0.89682 0.39315 0.0
H3563 H 0.79086 0.91186 0.41137 0.0
C3564 C 0.18742 0.92585 0.78503 0.0
C3565 C 0.19283 0.91274 0.79162 0.0
C3566 C 0.18213 0.93764 0.79393 0.0
C3567 C 0.18022 0.95139 0.83353 0.0
H3568 H 0.14278 0.96866 0.82091 0.0
C3569 C 0.14754 0.99319 0.87091 0.0
C3570 C 0.13187 0.99219 0.871 0.0
C3571 C 0.15611 0.98513 0.8606 0.0
C3572 C 0.15318 0.9639 0.82471 0.0
H3573 H 0.19766 0.90209 0.81261 0.0
H3574 H 0.18875 0.9224 0.82794 0.0
H3575 H 0.15637 0.95228 0.80417 0.0
H3576 H 0.11316 0.98175 0.8598 0.0
H3577 H 0.12796 0.96753 0.84243 0.0
H3578 H 0.1767 0.96241 0.85432 0.0
C3579 C 0.18859 0.92384 0.81602 0.0
C3580 C 0.16115 0.95465 0.81494 0.0
C3581 C 0.19375 0.91212 0.80718 0.0
C3582 C 0.12512 0.98284 0.86039 0.0
C3583 C 0.13368 0.97476 0.85014 0.0
C3584 C 0.17223 0.96059 0.84331 0.0
C3585 C 0.18222 0.93661 0.80959 0.0
C3586 C 0.17467 0.948 0.81928 0.0
C3587 C 0.14933 0.97576 0.85003 0.0
C3588 C 0.15843 0.9668 0.83917 0.0
H3589 H 0.18629 0.92656 0.77309 0.0
H3590 H 0.17751 0.94736 0.78852 0.0
H3591 H 0.19068 0.94673 0.83728 0.0
H3592 H 0.15326 1.00013 0.87887 0.0
H3593 H 0.1681 0.98638 0.86086 0.0
C3594 C 0.17237 0.59384 0.48737 0.0
C3595 C 0.16202 0.5836 0.48171 0.0
C3596 C 0.18316 0.60029 0.47801 0.0
C3597 C 0.18955 0.60733 0.43739 0.0
H3598 H 0.22775 0.62232 0.45055 0.0
C3599 C 0.23216 0.63298 0.39622 0.0
C3600 C 0.23911 0.64631 0.40055 0.0
C3601 C 0.22371 0.62466 0.40638 0.0
C3602 C 0.21708 0.61826 0.4467 0.0
H3603 H 0.15542 0.57145 0.46208 0.0
H3604 H 0.17463 0.58178 0.44611 0.0
H3605 H 0.21199 0.6085 0.46784 0.0
H3606 H 0.24296 0.66097 0.41925 0.0
H3607 H 0.22831 0.64647 0.43694 0.0
H3608 H 0.19469 0.61698 0.41626 0.0
C3609 C 0.1742 0.58542 0.45755 0.0
C3610 C 0.20798 0.61034 0.45666 0.0
C3611 C 0.16331 0.57923 0.4668 0.0
C3612 C 0.23764 0.65088 0.41544 0.0
C3613 C 0.22934 0.64246 0.42565 0.0
C3614 C 0.1987 0.61508 0.42743 0.0
C3615 C 0.18393 0.59654 0.46279 0.0
C3616 C 0.19402 0.60472 0.45218 0.0
C3617 C 0.22211 0.6293 0.42123 0.0
C3618 C 0.21258 0.62071 0.43192 0.0
H3619 H 0.17143 0.59771 0.49872 0.0
H3620 H 0.19031 0.60883 0.48256 0.0
H3621 H 0.17877 0.60367 0.43348 0.0
H3622 H 0.23297 0.62913 0.38486 0.0
H3623 H 0.21843 0.61452 0.40258 0.0
C3624 C 0.84383 0.42502 0.7376 0.0
C3625 C 0.83433 0.41383 0.73224 0.0
C3626 C 0.8499 0.43567 0.72785 0.0
C3627 C 0.85818 0.44001 0.68729 0.0
H3628 H 0.87049 0.4797 0.69857 0.0
C3629 C 0.88408 0.48079 0.64455 0.0
C3630 C 0.89658 0.48905 0.64911 0.0
C3631 C 0.87563 0.47264 0.65484 0.0
C3632 C 0.86721 0.4686 0.69525 0.0
H3633 H 0.82322 0.40544 0.7127 0.0
H3634 H 0.83289 0.42439 0.69597 0.0
H3635 H 0.8567 0.46433 0.71623 0.0
H3636 H 0.90957 0.49549 0.66835 0.0
H3637 H 0.89491 0.48127 0.68622 0.0
H3638 H 0.86864 0.44426 0.66635 0.0
C3639 C 0.83616 0.4248 0.70753 0.0
C3640 C 0.85928 0.45974 0.70542 0.0
C3641 C 0.83032 0.41407 0.71719 0.0
C3642 C 0.90015 0.48915 0.66435 0.0
C3643 C 0.89162 0.4811 0.67466 0.0
C3644 C 0.86597 0.44889 0.67712 0.0
C3645 C 0.84657 0.4354 0.71253 0.0
C3646 C 0.85463 0.44526 0.70162 0.0
C3647 C 0.87932 0.47257 0.67005 0.0
C3648 C 0.87066 0.46331 0.68093 0.0
H3649 H 0.84749 0.42483 0.74905 0.0
H3650 H 0.85793 0.4435 0.73222 0.0
H3651 H 0.85526 0.42883 0.68394 0.0
H3652 H 0.881 0.48033 0.63296 0.0
H3653 H 0.86615 0.46637 0.65086 0.0
C3654 C 0.66147 0.93997 0.55643 0.0
C3655 C 0.66306 0.94048 0.54092 0.0
C3656 C 0.6731 0.93513 0.56554 0.0
C3657 C 0.70652 0.91093 0.5644 0.0
H3658 H 0.71039 0.92397 0.60522 0.0
C3659 C 0.735 0.87414 0.60898 0.0
C3660 C 0.74287 0.88079 0.62079 0.0
C3661 C 0.72695 0.88274 0.59877 0.0
C3662 C 0.70968 0.92024 0.59382 0.0
H3663 H 0.67845 0.93681 0.52283 0.0
H3664 H 0.69909 0.92856 0.5388 0.0
H3665 H 0.69445 0.93772 0.58825 0.0
H3666 H 0.7483 0.90204 0.63077 0.0
H3667 H 0.73458 0.91703 0.61283 0.0
H3668 H 0.7219 0.89355 0.56992 0.0
C3669 C 0.68869 0.93182 0.54393 0.0
C3670 C 0.70033 0.92808 0.58407 0.0
C3671 C 0.67696 0.9368 0.53475 0.0
C3672 C 0.7425 0.89642 0.62188 0.0
C3673 C 0.73446 0.90506 0.61161 0.0
C3674 C 0.71593 0.90313 0.57414 0.0
C3675 C 0.68678 0.93053 0.55946 0.0
C3676 C 0.69832 0.92337 0.56927 0.0
C3677 C 0.7265 0.89836 0.59989 0.0
C3678 C 0.71743 0.90745 0.58912 0.0
H3679 H 0.65085 0.94258 0.56153 0.0
H3680 H 0.67099 0.93417 0.57733 0.0
H3681 H 0.70526 0.90682 0.55317 0.0
H3682 H 0.73506 0.86222 0.60745 0.0
H3683 H 0.72084 0.87705 0.59012 0.0
C3684 C 0.14224 0.04895 0.64435 0.0
C3685 C 0.13054 0.03965 0.64903 0.0
C3686 C 0.15081 0.05693 0.65468 0.0
C3687 C 0.16107 0.05907 0.6949 0.0
H3688 H 0.17032 0.10002 0.68538 0.0
C3689 C 0.1834 0.10184 0.73863 0.0
C3690 C 0.19218 0.11371 0.73354 0.0
C3691 C 0.1776 0.09132 0.72858 0.0
C3692 C 0.16815 0.08852 0.6882 0.0
H3693 H 0.1192 0.03113 0.66849 0.0
H3694 H 0.134 0.04507 0.68642 0.0
H3695 H 0.15703 0.08483 0.6675 0.0
H3696 H 0.20231 0.12349 0.71411 0.0
H3697 H 0.19309 0.10484 0.6968 0.0
H3698 H 0.17217 0.06282 0.71567 0.0
C3699 C 0.13658 0.04621 0.67473 0.0
C3700 C 0.16043 0.07977 0.67788 0.0
C3701 C 0.12795 0.0383 0.6644 0.0
C3702 C 0.19579 0.11432 0.7184 0.0
C3703 C 0.19021 0.10375 0.70841 0.0
C3704 C 0.16889 0.06782 0.70524 0.0
C3705 C 0.14804 0.05579 0.67004 0.0
C3706 C 0.15671 0.06492 0.68104 0.0
C3707 C 0.18047 0.09244 0.7132 0.0
C3708 C 0.17256 0.08272 0.70207 0.0
H3709 H 0.14457 0.05037 0.63265 0.0
H3710 H 0.15963 0.06403 0.6506 0.0
H3711 H 0.15856 0.04764 0.69772 0.0
H3712 H 0.18003 0.10136 0.75017 0.0
H3713 H 0.1701 0.08291 0.73279 0.0
C3714 C 0.35188 0.59041 0.53528 0.0
C3715 C 0.35932 0.5774 0.53984 0.0
C3716 C 0.34178 0.59767 0.5448 0.0
C3717 C 0.33259 0.60074 0.58523 0.0
H3718 H 0.29835 0.62291 0.57122 0.0
C3719 C 0.29122 0.62927 0.6261 0.0
C3720 C 0.28596 0.64353 0.62231 0.0
C3721 C 0.29935 0.62069 0.61585 0.0
C3722 C 0.30794 0.61688 0.57534 0.0
H3723 H 0.36122 0.56143 0.55775 0.0
H3724 H 0.34339 0.5737 0.57403 0.0
H3725 H 0.31344 0.60878 0.55361 0.0
H3726 H 0.28482 0.65961 0.6044 0.0
H3727 H 0.29904 0.64482 0.58672 0.0
H3728 H 0.32713 0.60886 0.60693 0.0
C3729 C 0.34563 0.57863 0.56329 0.0
C3730 C 0.31664 0.60875 0.56519 0.0
C3731 C 0.35577 0.57145 0.55384 0.0
C3732 C 0.28884 0.64881 0.60787 0.0
C3733 C 0.29688 0.6402 0.59761 0.0
C3734 C 0.32387 0.60882 0.59536 0.0
C3735 C 0.33878 0.5921 0.55913 0.0
C3736 C 0.32915 0.60055 0.56995 0.0
C3737 C 0.30237 0.62604 0.60145 0.0
C3738 C 0.31143 0.61707 0.5906 0.0
H3739 H 0.35445 0.59546 0.52467 0.0
H3740 H 0.33686 0.60804 0.54114 0.0
H3741 H 0.34227 0.5949 0.58939 0.0
H3742 H 0.2893 0.62483 0.63709 0.0
H3743 H 0.3032 0.60979 0.61922 0.0
C3744 C 0.85942 0.89572 0.52704 0.0
C3745 C 0.87461 0.89394 0.53034 0.0
C3746 C 0.84852 0.88757 0.53467 0.0
C3747 C 0.84337 0.85589 0.56204 0.0
H3748 H 0.8048 0.87447 0.56711 0.0
C3749 C 0.79793 0.82795 0.59879 0.0
C3750 C 0.78913 0.83754 0.60741 0.0
C3751 C 0.8069 0.83361 0.58724 0.0
C3752 C 0.81553 0.86909 0.56602 0.0
H3753 H 0.89024 0.88218 0.54429 0.0
H3754 H 0.87136 0.86852 0.55817 0.0
H3755 H 0.82358 0.88675 0.55243 0.0
H3756 H 0.78265 0.86047 0.61062 0.0
H3757 H 0.79816 0.87034 0.59099 0.0
H3758 H 0.8356 0.83876 0.5766 0.0
C3759 C 0.86771 0.87577 0.5493 0.0
C3760 C 0.82636 0.87608 0.55724 0.0
C3761 C 0.87864 0.88367 0.54139 0.0
C3762 C 0.78899 0.85275 0.60387 0.0
C3763 C 0.798 0.85842 0.59253 0.0
C3764 C 0.83261 0.84903 0.57109 0.0
C3765 C 0.8524 0.87763 0.54618 0.0
C3766 C 0.84056 0.8697 0.55514 0.0
C3767 C 0.80748 0.84904 0.58424 0.0
C3768 C 0.81853 0.8556 0.57342 0.0
H3769 H 0.85598 0.90341 0.51844 0.0
H3770 H 0.83702 0.88914 0.53145 0.0
H3771 H 0.85394 0.8503 0.56057 0.0
H3772 H 0.79858 0.81624 0.60153 0.0
H3773 H 0.81374 0.82589 0.58103 0.0
C3774 C 0.87707 0.14292 0.98094 0.0
C3775 C 0.87226 0.13034 0.98885 0.0
C3776 C 0.86702 0.15136 0.97242 0.0
C3777 C 0.82869 0.14941 0.95542 0.0
H3778 H 0.83552 0.19135 0.9483 0.0
C3779 C 0.78739 0.18546 0.92081 0.0
C3780 C 0.79417 0.19347 0.90923 0.0
C3781 C 0.79608 0.17904 0.93215 0.0
C3782 C 0.83344 0.17964 0.95018 0.0
H3783 H 0.85291 0.11718 0.99447 0.0
H3784 H 0.83533 0.13205 0.9802 0.0
H3785 H 0.85214 0.17765 0.96479 0.0
H3786 H 0.81525 0.20158 0.9009 0.0
H3787 H 0.83025 0.19098 0.92086 0.0
H3788 H 0.80985 0.15155 0.9409 0.0
C3789 C 0.84696 0.1352 0.98002 0.0
C3790 C 0.84307 0.17169 0.95958 0.0
C3791 C 0.85705 0.12665 0.98832 0.0
C3792 C 0.80967 0.19564 0.90975 0.0
C3793 C 0.81828 0.18951 0.9212 0.0
C3794 C 0.81894 0.15742 0.9462 0.0
C3795 C 0.85176 0.14761 0.97174 0.0
C3796 C 0.84101 0.15636 0.96223 0.0
C3797 C 0.8117 0.18074 0.93231 0.0
C3798 C 0.82128 0.1726 0.94329 0.0
H3799 H 0.88872 0.14599 0.98097 0.0
H3800 H 0.87135 0.1606 0.96608 0.0
H3801 H 0.82674 0.13762 0.95681 0.0
H3802 H 0.77552 0.18333 0.92058 0.0
H3803 H 0.79062 0.17243 0.94058 0.0
C3804 C 0.39311 0.89518 0.29402 0.0
C3805 C 0.38058 0.89971 0.28579 0.0
C3806 C 0.40182 0.90558 0.30178 0.0
C3807 C 0.41013 0.94634 0.30502 0.0
H3808 H 0.42361 0.93539 0.34435 0.0
C3809 C 0.43225 0.98919 0.3487 0.0
C3810 C 0.44246 0.98418 0.3594 0.0
C3811 C 0.42658 0.97937 0.33792 0.0
C3812 C 0.42023 0.93863 0.33328 0.0
H3813 H 0.36788 0.91905 0.27891 0.0
H3814 H 0.38281 0.93704 0.29254 0.0
H3815 H 0.41013 0.91743 0.32941 0.0
H3816 H 0.45524 0.9652 0.36678 0.0
H3817 H 0.44613 0.94835 0.34763 0.0
H3818 H 0.4201 0.96767 0.30904 0.0
C3819 C 0.38599 0.92543 0.29298 0.0
C3820 C 0.41241 0.92825 0.32467 0.0
C3821 C 0.37726 0.91503 0.28527 0.0
C3822 C 0.44764 0.96947 0.35847 0.0
C3823 C 0.44213 0.95972 0.34766 0.0
C3824 C 0.41799 0.95676 0.31365 0.0
C3825 C 0.39832 0.92087 0.3015 0.0
C3826 C 0.40716 0.93192 0.31042 0.0
C3827 C 0.43098 0.96428 0.33763 0.0
C3828 C 0.42315 0.95308 0.32795 0.0
H3829 H 0.39604 0.88353 0.29477 0.0
H3830 H 0.41132 0.9016 0.30801 0.0
H3831 H 0.40645 0.94959 0.29404 0.0
H3832 H 0.42765 1.00031 0.34947 0.0
H3833 H 0.41796 0.98336 0.33051 0.0
C3834 C 0.21891 0.32665 0.91426 0.0
C3835 C 0.23372 0.33133 0.91255 0.0
C3836 C 0.20981 0.33266 0.9254 0.0
C3837 C 0.20936 0.35794 0.95891 0.0
H3838 H 0.16845 0.36405 0.94658 0.0
C3839 C 0.16876 0.39924 0.98846 0.0
C3840 C 0.15382 0.39485 0.99034 0.0
C3841 C 0.17877 0.39051 0.98021 0.0
C3842 C 0.17977 0.3623 0.95032 0.0
H3843 H 0.25072 0.34582 0.92144 0.0
H3844 H 0.23485 0.35657 0.94075 0.0
H3845 H 0.18542 0.3505 0.93054 0.0
H3846 H 0.13785 0.37764 0.98502 0.0
H3847 H 0.15524 0.36247 0.97056 0.0
H3848 H 0.20365 0.37032 0.97851 0.0
C3849 C 0.23027 0.34792 0.93378 0.0
C3850 C 0.18959 0.35441 0.94111 0.0
C3851 C 0.23947 0.34166 0.92275 0.0
C3852 C 0.14925 0.38136 0.98388 0.0
C3853 C 0.15921 0.37271 0.97547 0.0
C3854 C 0.19954 0.366 0.96807 0.0
C3855 C 0.2151 0.3439 0.93495 0.0
C3856 C 0.20457 0.35203 0.94521 0.0
C3857 C 0.17411 0.3772 0.97344 0.0
C3858 C 0.18459 0.3683 0.96391 0.0
H3859 H 0.2141 0.31886 0.90644 0.0
H3860 H 0.19842 0.32883 0.92612 0.0
H3861 H 0.22069 0.35628 0.96265 0.0
H3862 H 0.17275 0.40945 0.99341 0.0
H3863 H 0.19009 0.39441 0.97884 0.0
C3864 C 0.07486 0.05585 0.85701 0.0
C3865 C 0.07968 0.04122 0.85987 0.0
C3866 C 0.08243 0.06499 0.84692 0.0
C3867 C 0.11974 0.06954 0.82942 0.0
H3868 H 0.09962 0.0999 0.80637 0.0
C3869 C 0.15203 0.10848 0.78918 0.0
C3870 C 0.14781 0.12358 0.78856 0.0
C3871 C 0.14338 0.09801 0.79687 0.0
C3872 C 0.10547 0.0916 0.81283 0.0
H3873 H 0.09608 0.02462 0.85372 0.0
H3874 H 0.10912 0.04044 0.83587 0.0
H3875 H 0.08505 0.08215 0.82076 0.0
H3876 H 0.13089 0.13927 0.79566 0.0
H3877 H 0.11586 0.12108 0.80901 0.0
H3878 H 0.14015 0.07905 0.82158 0.0
C3879 C 0.09956 0.04495 0.84165 0.0
C3880 C 0.09708 0.08135 0.82112 0.0
C3881 C 0.09194 0.03577 0.85176 0.0
C3882 C 0.1345 0.12778 0.7957 0.0
C3883 C 0.12583 0.11729 0.80339 0.0
C3884 C 0.12813 0.07977 0.82112 0.0
C3885 C 0.09514 0.05984 0.83932 0.0
C3886 C 0.10406 0.07021 0.82966 0.0
C3887 C 0.13018 0.10223 0.80419 0.0
C3888 C 0.12115 0.09105 0.81276 0.0
H3889 H 0.06553 0.06051 0.86306 0.0
H3890 H 0.07869 0.07636 0.84562 0.0
H3891 H 0.12562 0.06136 0.83602 0.0
H3892 H 0.16198 0.10465 0.78361 0.0
H3893 H 0.14701 0.08652 0.79694 0.0
C3894 C 0.66701 0.12617 0.03511 0.0
C3895 C 0.65166 0.12943 0.03563 0.0
C3896 C 0.67738 0.13486 0.04291 0.0
C3897 C 0.68006 0.16095 0.07485 0.0
H3898 H 0.71944 0.16914 0.05923 0.0
C3899 C 0.72108 0.1961 0.109 0.0
C3900 C 0.73589 0.19114 0.10977 0.0
C3901 C 0.71133 0.1906 0.09817 0.0
C3902 C 0.70854 0.16688 0.06384 0.0
H3903 H 0.63539 0.14474 0.04473 0.0
H3904 H 0.6534 0.15995 0.05813 0.0
H3905 H 0.70143 0.15551 0.04412 0.0
H3906 H 0.75219 0.17672 0.09952 0.0
H3907 H 0.73524 0.16704 0.08055 0.0
H3908 H 0.68714 0.17196 0.09465 0.0
C3909 C 0.65743 0.15053 0.05181 0.0
C3910 C 0.69817 0.15903 0.05514 0.0
C3911 C 0.64706 0.14186 0.04397 0.0
C3912 C 0.74098 0.18115 0.09889 0.0
C3913 C 0.73116 0.17548 0.0881 0.0
C3914 C 0.69041 0.16874 0.08354 0.0
C3915 C 0.67276 0.14709 0.05152 0.0
C3916 C 0.68377 0.1559 0.06053 0.0
C3917 C 0.716 0.17967 0.08796 0.0
C3918 C 0.70484 0.17185 0.07822 0.0
H3919 H 0.67108 0.11685 0.02868 0.0
H3920 H 0.68902 0.13174 0.04245 0.0
H3921 H 0.66925 0.15853 0.07958 0.0
H3922 H 0.71674 0.20354 0.11743 0.0
H3923 H 0.6999 0.19445 0.09826 0.0
C3924 C 0.44642 0.06035 0.15861 0.0
C3925 C 0.4436 0.04499 0.15851 0.0
C3926 C 0.4404 0.06955 0.16965 0.0
C3927 C 0.419 0.0696 0.20579 0.0
H3928 H 0.40762 0.10895 0.19227 0.0
C3929 C 0.3773 0.10823 0.23749 0.0
C3930 C 0.38082 0.12346 0.23846 0.0
C3931 C 0.38594 0.0985 0.22883 0.0
C3932 C 0.41085 0.09807 0.19632 0.0
H3933 H 0.43244 0.02718 0.17015 0.0
H3934 H 0.42151 0.04321 0.18922 0.0
H3935 H 0.42083 0.09233 0.17559 0.0
H3936 H 0.39635 0.1403 0.23107 0.0
H3937 H 0.41132 0.1234 0.21581 0.0
H3938 H 0.40834 0.07535 0.22639 0.0
C3939 C 0.42875 0.04821 0.18103 0.0
C3940 C 0.41856 0.08847 0.18673 0.0
C3941 C 0.43508 0.03893 0.1701 0.0
C3942 C 0.39336 0.12865 0.23066 0.0
C3943 C 0.40187 0.11897 0.22181 0.0
C3944 C 0.41107 0.07917 0.21532 0.0
C3945 C 0.43095 0.06378 0.18073 0.0
C3946 C 0.42286 0.07406 0.19128 0.0
C3947 C 0.39824 0.10376 0.2207 0.0
C3948 C 0.40692 0.09356 0.21073 0.0
H3949 H 0.4529 0.06537 0.1498 0.0
H3950 H 0.44288 0.08132 0.16918 0.0
H3951 H 0.42219 0.05875 0.2099 0.0
H3952 H 0.36782 0.10381 0.24345 0.0
H3953 H 0.38275 0.08691 0.2282 0.0
C3954 C 0.6494 0.41573 0.23694 0.0
C3955 C 0.645 0.40079 0.23863 0.0
C3956 C 0.64077 0.42579 0.22866 0.0
C3957 C 0.61277 0.42704 0.1985 0.0
H3958 H 0.60665 0.46782 0.21111 0.0
C3959 C 0.57701 0.46629 0.16271 0.0
C3960 C 0.58168 0.48109 0.16107 0.0
C3961 C 0.58305 0.45715 0.1738 0.0
C3962 C 0.60834 0.45653 0.20729 0.0
H3963 H 0.62787 0.38487 0.23288 0.0
H3964 H 0.61286 0.40235 0.21841 0.0
H3965 H 0.62065 0.45069 0.22691 0.0
H3966 H 0.59619 0.49804 0.17002 0.0
H3967 H 0.60698 0.48211 0.18925 0.0
H3968 H 0.60101 0.43281 0.17873 0.0
C3969 C 0.62305 0.40629 0.22349 0.0
C3970 C 0.61638 0.44666 0.21641 0.0
C3971 C 0.6316 0.39627 0.23191 0.0
C3972 C 0.59203 0.4868 0.17128 0.0
C3973 C 0.59831 0.47756 0.18226 0.0
C3974 C 0.60488 0.4369 0.18934 0.0
C3975 C 0.62753 0.4212 0.22166 0.0
C3976 C 0.61871 0.43175 0.21215 0.0
C3977 C 0.59431 0.4624 0.18336 0.0
C3978 C 0.60247 0.45183 0.19355 0.0
H3979 H 0.65954 0.4197 0.24207 0.0
H3980 H 0.64467 0.43712 0.22746 0.0
H3981 H 0.61454 0.41576 0.19467 0.0
H3982 H 0.56921 0.46151 0.15489 0.0
H3983 H 0.57923 0.44576 0.17446 0.0
loop_
_geom_bond_atom_site_label_1
_geom_bond_atom_site_label_2
_geom_bond_distance
_geom_bond_site_symmetry_2
_ccdc_geom_bond_type
Cu0 N1 1.999 . S
Cu0 O6 1.974 . S
Cu0 N11 1.985 . S
Cu0 O20 1.959 . S
N1 Cu0 1.999 . S
N1 C3 1.263 . S
N1 C5 1.389 . S
N2 C3 1.358 . S
N2 C4 1.400 . S
C3 N1 1.263 . S
C3 N2 1.358 . S
C3 H9 0.930 . S
C4 N2 1.400 . S
C4 C5 1.351 . S
C4 H21 0.930 . S
C5 N1 1.389 . S
C5 C4 1.351 . S
C5 H10 0.930 . S
O6 Cu0 1.974 . S
O6 C16 1.282 . S
C7 O8 1.261 . S
C7 O20 1.251 . S
O8 C7 1.261 . S
H9 C3 0.930 . S
H10 C5 0.930 . S
N11 Cu0 1.985 . S
N11 C13 1.335 . S
N11 C14 1.390 . S
N12 C13 1.345 . S
N12 C15 1.336 . S
C13 N11 1.335 . S
C13 N12 1.345 . S
C13 H18 0.930 . S
C14 N11 1.390 . S
C14 C15 1.346 . S
C14 H19 0.930 . S
C15 N12 1.336 . S
C15 C14 1.346 . S
C15 H22 0.929 . S
C16 O6 1.282 . S
C16 O17 1.216 . S
O17 C16 1.216 . S
H18 C13 0.930 . S
H19 C14 0.930 . S
O20 Cu0 1.959 . S
O20 C7 1.251 . S
H21 C4 0.930 . S
H22 C15 0.929 . S
Cu23 N24 1.999 . S
Cu23 O29 1.974 . S
Cu23 N34 1.985 . S
Cu23 O43 1.959 . S
N24 Cu23 1.999 . S
N24 C26 1.263 . S
N24 C28 1.389 . S
N25 C26 1.358 . S
N25 C27 1.400 . S
C26 N24 1.263 . S
C26 N25 1.358 . S
C26 H32 0.930 . S
C27 N25 1.400 . S
C27 C28 1.351 . S
C27 H44 0.930 . S
C28 N24 1.389 . S
C28 C27 1.351 . S
C28 H33 0.930 . S
O29 Cu23 1.974 . S
O29 C39 1.282 . S
C30 O31 1.261 . S
C30 O43 1.251 . S
O31 C30 1.261 . S
H32 C26 0.930 . S
H33 C28 0.930 . S
N34 Cu23 1.985 . S
N34 C36 1.335 . S
N34 C37 1.390 . S
N35 C36 1.345 . S
N35 C38 1.336 . S
C36 N34 1.335 . S
C36 N35 1.345 . S
C36 H41 0.930 . S
C37 N34 1.390 . S
C37 C38 1.346 . S
C37 H42 0.930 . S
C38 N35 1.336 . S
C38 C37 1.346 . S
C38 H45 0.929 . S
C39 O29 1.282 . S
C39 O40 1.216 . S
O40 C39 1.216 . S
H41 C36 0.930 . S
H42 C37 0.930 . S
O43 Cu23 1.959 . S
O43 C30 1.251 . S
H44 C27 0.930 . S
H45 C38 0.929 . S
Cu46 N47 1.999 . S
Cu46 O52 1.974 . S
Cu46 N57 1.985 . S
Cu46 O66 1.959 . S
N47 Cu46 1.999 . S
N47 C49 1.263 . S
N47 C51 1.389 . S
N48 C49 1.358 . S
N48 C50 1.400 . S
C49 N47 1.263 . S
C49 N48 1.358 . S
C49 H55 0.930 . S
C50 N48 1.400 . S
C50 C51 1.351 . S
C50 H67 0.930 . S
C51 N47 1.389 . S
C51 C50 1.351 . S
C51 H56 0.930 . S
O52 Cu46 1.974 . S
O52 C62 1.282 . S
C53 O54 1.261 . S
C53 O66 1.251 . S
O54 C53 1.261 . S
H55 C49 0.930 . S
H56 C51 0.930 . S
N57 Cu46 1.985 . S
N57 C59 1.335 . S
N57 C60 1.390 . S
N58 C59 1.345 . S
N58 C61 1.336 . S
C59 N57 1.335 . S
C59 N58 1.345 . S
C59 H64 0.930 . S
C60 N57 1.390 . S
C60 C61 1.346 . S
C60 H65 0.930 . S
C61 N58 1.336 . S
C61 C60 1.346 . S
C61 H68 0.929 . S
C62 O52 1.282 . S
C62 O63 1.216 . S
O63 C62 1.216 . S
H64 C59 0.930 . S
H65 C60 0.930 . S
O66 Cu46 1.959 . S
O66 C53 1.251 . S
H67 C50 0.930 . S
H68 C61 0.929 . S
Cu69 N70 1.999 . S
Cu69 O75 1.974 . S
Cu69 N80 1.985 . S
Cu69 O89 1.959 . S
N70 Cu69 1.999 . S
N70 C72 1.263 . S
N70 C74 1.389 . S
N71 C72 1.358 . S
N71 C73 1.400 . S
C72 N70 1.263 . S
C72 N71 1.358 . S
C72 H78 0.930 . S
C73 N71 1.400 . S
C73 C74 1.351 . S
C73 H90 0.930 . S
C74 N70 1.389 . S
C74 C73 1.351 . S
C74 H79 0.930 . S
O75 Cu69 1.974 . S
O75 C85 1.282 . S
C76 O77 1.261 . S
C76 O89 1.251 . S
O77 C76 1.261 . S
H78 C72 0.930 . S
H79 C74 0.930 . S
N80 Cu69 1.985 . S
N80 C82 1.335 . S
N80 C83 1.390 . S
N81 C82 1.345 . S
N81 C84 1.336 . S
C82 N80 1.335 . S
C82 N81 1.345 . S
C82 H87 0.930 . S
C83 N80 1.390 . S
C83 C84 1.346 . S
C83 H88 0.930 . S
C84 N81 1.336 . S
C84 C83 1.346 . S
C84 H91 0.929 . S
C85 O75 1.282 . S
C85 O86 1.216 . S
O86 C85 1.216 . S
H87 C82 0.930 . S
H88 C83 0.930 . S
O89 Cu69 1.959 . S
O89 C76 1.251 . S
H90 C73 0.930 . S
H91 C84 0.929 . S
Cu92 N93 1.999 . S
Cu92 O98 1.974 . S
Cu92 N103 1.985 . S
Cu92 O112 1.959 . S
N93 Cu92 1.999 . S
N93 C95 1.263 . S
N93 C97 1.389 . S
N94 C95 1.358 . S
N94 C96 1.400 . S
C95 N93 1.263 . S
C95 N94 1.358 . S
C95 H101 0.930 . S
C96 N94 1.400 . S
C96 C97 1.351 . S
C96 H113 0.930 . S
C97 N93 1.389 . S
C97 C96 1.351 . S
C97 H102 0.930 . S
O98 Cu92 1.974 . S
O98 C108 1.282 . S
C99 O100 1.261 . S
C99 O112 1.251 . S
O100 C99 1.261 . S
H101 C95 0.930 . S
H102 C97 0.930 . S
N103 Cu92 1.985 . S
N103 C105 1.335 . S
N103 C106 1.390 . S
N104 C105 1.345 . S
N104 C107 1.336 . S
C105 N103 1.335 . S
C105 N104 1.345 . S
C105 H110 0.930 . S
C106 N103 1.390 . S
C106 C107 1.346 . S
C106 H111 0.930 . S
C107 N104 1.336 . S
C107 C106 1.346 . S
C107 H114 0.929 . S
C108 O98 1.282 . S
C108 O109 1.216 . S
O109 C108 1.216 . S
H110 C105 0.930 . S
H111 C106 0.930 . S
O112 Cu92 1.959 . S
O112 C99 1.251 . S
H113 C96 0.930 . S
H114 C107 0.929 . S
Cu115 N116 1.999 . S
Cu115 O121 1.974 1_455 S
Cu115 N126 1.985 1_455 S
Cu115 O135 1.959 . S
N116 Cu115 1.999 . S
N116 C118 1.263 . S
N116 C120 1.389 . S
N117 C118 1.358 . S
N117 C119 1.400 . S
C118 N116 1.263 . S
C118 N117 1.358 . S
C118 H124 0.930 . S
C119 N117 1.400 . S
C119 C120 1.351 . S
C119 H136 0.930 . S
C120 N116 1.389 . S
C120 C119 1.351 . S
C120 H125 0.930 . S
O121 Cu115 1.974 1_655 S
O121 C131 1.282 . S
C122 O123 1.261 . S
C122 O135 1.251 . S
O123 C122 1.261 . S
H124 C118 0.930 . S
H125 C120 0.930 . S
N126 Cu115 1.985 1_655 S
N126 C128 1.335 . S
N126 C129 1.390 . S
N127 C128 1.345 . S
N127 C130 1.336 . S
C128 N126 1.335 . S
C128 N127 1.345 . S
C128 H133 0.930 . S
C129 N126 1.390 . S
C129 C130 1.346 . S
C129 H134 0.930 . S
C130 N127 1.336 . S
C130 C129 1.346 . S
C130 H137 0.929 . S
C131 O121 1.282 . S
C131 O132 1.216 . S
O132 C131 1.216 . S
H133 C128 0.930 . S
H134 C129 0.930 . S
O135 Cu115 1.959 . S
O135 C122 1.251 . S
H136 C119 0.930 . S
H137 C130 0.929 . S
Cu138 N139 1.999 . S
Cu138 O144 1.974 . S
Cu138 N149 1.985 . S
Cu138 O158 1.959 . S
N139 Cu138 1.999 . S
N139 C141 1.263 . S
N139 C143 1.389 . S
N140 C141 1.358 . S
N140 C142 1.400 . S
C141 N139 1.263 . S
C141 N140 1.358 . S
C141 H147 0.930 . S
C142 N140 1.400 . S
C142 C143 1.351 . S
C142 H159 0.930 . S
C143 N139 1.389 . S
C143 C142 1.351 . S
C143 H148 0.930 . S
O144 Cu138 1.974 . S
O144 C154 1.282 . S
C145 O146 1.261 . S
C145 O158 1.251 . S
O146 C145 1.261 . S
H147 C141 0.930 . S
H148 C143 0.930 . S
N149 Cu138 1.985 . S
N149 C151 1.335 . S
N149 C152 1.390 . S
N150 C151 1.345 . S
N150 C153 1.336 . S
C151 N149 1.335 . S
C151 N150 1.345 . S
C151 H156 0.930 . S
C152 N149 1.390 . S
C152 C153 1.346 . S
C152 H157 0.930 . S
C153 N150 1.336 . S
C153 C152 1.346 . S
C153 H160 0.929 . S
C154 O144 1.282 . S
C154 O155 1.216 . S
O155 C154 1.216 . S
H156 C151 0.930 . S
H157 C152 0.930 . S
O158 Cu138 1.959 . S
O158 C145 1.251 . S
H159 C142 0.930 . S
H160 C153 0.929 . S
Cu161 N162 1.999 . S
Cu161 O167 1.974 1_655 S
Cu161 N172 1.985 1_655 S
Cu161 O181 1.959 . S
N162 Cu161 1.999 . S
N162 C164 1.263 . S
N162 C166 1.389 . S
N163 C164 1.358 . S
N163 C165 1.400 . S
C164 N162 1.263 . S
C164 N163 1.358 . S
C164 H170 0.930 . S
C165 N163 1.400 . S
C165 C166 1.351 . S
C165 H182 0.930 . S
C166 N162 1.389 . S
C166 C165 1.351 . S
C166 H171 0.930 . S
O167 Cu161 1.974 1_455 S
O167 C177 1.282 . S
C168 O169 1.261 . S
C168 O181 1.251 . S
O169 C168 1.261 . S
H170 C164 0.930 . S
H171 C166 0.930 . S
N172 Cu161 1.985 1_455 S
N172 C174 1.335 . S
N172 C175 1.390 . S
N173 C174 1.345 . S
N173 C176 1.336 . S
C174 N172 1.335 . S
C174 N173 1.345 . S
C174 H179 0.930 . S
C175 N172 1.390 . S
C175 C176 1.346 . S
C175 H180 0.930 . S
C176 N173 1.336 . S
C176 C175 1.346 . S
C176 H183 0.929 . S
C177 O167 1.282 . S
C177 O178 1.216 . S
O178 C177 1.216 . S
H179 C174 0.930 . S
H180 C175 0.930 . S
O181 Cu161 1.959 . S
O181 C168 1.251 . S
H182 C165 0.930 . S
H183 C176 0.929 . S
Cu184 N185 1.999 . S
Cu184 O190 1.974 . S
Cu184 N195 1.985 . S
Cu184 O204 1.959 . S
N185 Cu184 1.999 . S
N185 C187 1.263 . S
N185 C189 1.389 . S
N186 C187 1.358 . S
N186 C188 1.400 . S
C187 N185 1.263 . S
C187 N186 1.358 . S
C187 H193 0.930 . S
C188 N186 1.400 . S
C188 C189 1.351 . S
C188 H205 0.930 . S
C189 N185 1.389 . S
C189 C188 1.351 . S
C189 H194 0.930 . S
O190 Cu184 1.974 . S
O190 C200 1.282 . S
C191 O192 1.261 . S
C191 O204 1.251 . S
O192 C191 1.261 . S
H193 C187 0.930 . S
H194 C189 0.930 . S
N195 Cu184 1.985 . S
N195 C197 1.335 . S
N195 C198 1.390 . S
N196 C197 1.345 . S
N196 C199 1.336 . S
C197 N195 1.335 . S
C197 N196 1.345 . S
C197 H202 0.930 . S
C198 N195 1.390 . S
C198 C199 1.346 . S
C198 H203 0.930 . S
C199 N196 1.336 . S
C199 C198 1.346 . S
C199 H206 0.929 . S
C200 O190 1.282 . S
C200 O201 1.216 . S
O201 C200 1.216 . S
H202 C197 0.930 . S
H203 C198 0.930 . S
O204 Cu184 1.959 . S
O204 C191 1.251 . S
H205 C188 0.930 . S
H206 C199 0.929 . S
Cu207 N208 1.999 . S
Cu207 O213 1.974 1_554 S
Cu207 N218 1.985 1_554 S
Cu207 O227 1.959 . S
N208 Cu207 1.999 . S
N208 C210 1.263 . S
N208 C212 1.389 . S
N209 C210 1.358 . S
N209 C211 1.400 . S
C210 N208 1.263 . S
C210 N209 1.358 . S
C210 H216 0.930 . S
C211 N209 1.400 . S
C211 C212 1.351 . S
C211 H228 0.930 . S
C212 N208 1.389 . S
C212 C211 1.351 . S
C212 H217 0.930 . S
O213 Cu207 1.974 1_556 S
O213 C223 1.282 . S
C214 O215 1.261 . S
C214 O227 1.251 . S
O215 C214 1.261 . S
H216 C210 0.930 . S
H217 C212 0.930 . S
N218 Cu207 1.985 1_556 S
N218 C220 1.335 . S
N218 C221 1.390 . S
N219 C220 1.345 . S
N219 C222 1.336 . S
C220 N218 1.335 . S
C220 N219 1.345 . S
C220 H225 0.930 . S
C221 N218 1.390 . S
C221 C222 1.346 . S
C221 H226 0.930 . S
C222 N219 1.336 . S
C222 C221 1.346 . S
C222 H229 0.929 . S
C223 O213 1.282 . S
C223 O224 1.216 . S
O224 C223 1.216 . S
H225 C220 0.930 . S
H226 C221 0.930 . S
O227 Cu207 1.959 . S
O227 C214 1.251 . S
H228 C211 0.930 . S
H229 C222 0.929 . S
Cu230 N231 1.999 . S
Cu230 O236 1.974 . S
Cu230 N241 1.985 . S
Cu230 O250 1.959 . S
N231 Cu230 1.999 . S
N231 C233 1.263 . S
N231 C235 1.389 . S
N232 C233 1.358 . S
N232 C234 1.400 . S
C233 N231 1.263 . S
C233 N232 1.358 . S
C233 H239 0.930 . S
C234 N232 1.400 . S
C234 C235 1.351 . S
C234 H251 0.930 . S
C235 N231 1.389 . S
C235 C234 1.351 . S
C235 H240 0.930 . S
O236 Cu230 1.974 . S
O236 C246 1.282 . S
C237 O238 1.261 . S
C237 O250 1.251 . S
O238 C237 1.261 . S
H239 C233 0.930 . S
H240 C235 0.930 . S
N241 Cu230 1.985 . S
N241 C243 1.335 . S
N241 C244 1.390 . S
N242 C243 1.345 . S
N242 C245 1.336 . S
C243 N241 1.335 . S
C243 N242 1.345 . S
C243 H248 0.930 . S
C244 N241 1.390 . S
C244 C245 1.346 . S
C244 H249 0.930 . S
C245 N242 1.336 . S
C245 C244 1.346 . S
C245 H252 0.929 . S
C246 O236 1.282 . S
C246 O247 1.216 . S
O247 C246 1.216 . S
H248 C243 0.930 . S
H249 C244 0.930 . S
O250 Cu230 1.959 . S
O250 C237 1.251 . S
H251 C234 0.930 . S
H252 C245 0.929 . S
Cu253 N254 1.999 . S
Cu253 O259 1.974 1_554 S
Cu253 N264 1.985 1_554 S
Cu253 O273 1.959 . S
N254 Cu253 1.999 . S
N254 C256 1.263 . S
N254 C258 1.389 . S
N255 C256 1.358 . S
N255 C257 1.400 . S
C256 N254 1.263 . S
C256 N255 1.358 . S
C256 H262 0.930 . S
C257 N255 1.400 . S
C257 C258 1.351 . S
C257 H274 0.930 . S
C258 N254 1.389 . S
C258 C257 1.351 . S
C258 H263 0.930 . S
O259 Cu253 1.974 1_556 S
O259 C269 1.282 . S
C260 O261 1.261 . S
C260 O273 1.251 . S
O261 C260 1.261 . S
H262 C256 0.930 . S
H263 C258 0.930 . S
N264 Cu253 1.985 1_556 S
N264 C266 1.335 . S
N264 C267 1.390 . S
N265 C266 1.345 . S
N265 C268 1.336 . S
C266 N264 1.335 . S
C266 N265 1.345 . S
C266 H271 0.930 . S
C267 N264 1.390 . S
C267 C268 1.346 . S
C267 H272 0.930 . S
C268 N265 1.336 . S
C268 C267 1.346 . S
C268 H275 0.929 . S
C269 O259 1.282 . S
C269 O270 1.216 . S
O270 C269 1.216 . S
H271 C266 0.930 . S
H272 C267 0.930 . S
O273 Cu253 1.959 . S
O273 C260 1.251 . S
H274 C257 0.930 . S
H275 C268 0.929 . S
Cu276 N277 1.999 . S
Cu276 O282 1.974 . S
Cu276 N287 1.985 . S
Cu276 O296 1.959 . S
N277 Cu276 1.999 . S
N277 C279 1.263 . S
N277 C281 1.389 . S
N278 C279 1.358 . S
N278 C280 1.400 . S
C279 N277 1.263 . S
C279 N278 1.358 . S
C279 H285 0.930 . S
C280 N278 1.400 . S
C280 C281 1.351 . S
C280 H297 0.930 . S
C281 N277 1.389 . S
C281 C280 1.351 . S
C281 H286 0.930 . S
O282 Cu276 1.974 . S
O282 C292 1.282 . S
C283 O284 1.261 . S
C283 O296 1.251 . S
O284 C283 1.261 . S
H285 C279 0.930 . S
H286 C281 0.930 . S
N287 Cu276 1.985 . S
N287 C289 1.335 . S
N287 C290 1.390 . S
N288 C289 1.345 . S
N288 C291 1.336 . S
C289 N287 1.335 . S
C289 N288 1.345 . S
C289 H294 0.930 . S
C290 N287 1.390 . S
C290 C291 1.346 . S
C290 H295 0.930 . S
C291 N288 1.336 . S
C291 C290 1.346 . S
C291 H298 0.929 . S
C292 O282 1.282 . S
C292 O293 1.216 . S
O293 C292 1.216 . S
H294 C289 0.930 . S
H295 C290 0.930 . S
O296 Cu276 1.959 . S
O296 C283 1.251 . S
H297 C280 0.930 . S
H298 C291 0.929 . S
Cu299 N300 1.999 . S
Cu299 O305 1.974 1_556 S
Cu299 N310 1.985 1_556 S
Cu299 O319 1.959 . S
N300 Cu299 1.999 . S
N300 C302 1.263 . S
N300 C304 1.389 . S
N301 C302 1.358 . S
N301 C303 1.400 . S
C302 N300 1.263 . S
C302 N301 1.358 . S
C302 H308 0.930 . S
C303 N301 1.400 . S
C303 C304 1.351 . S
C303 H320 0.930 . S
C304 N300 1.389 . S
C304 C303 1.351 . S
C304 H309 0.930 . S
O305 Cu299 1.974 1_554 S
O305 C315 1.282 . S
C306 O307 1.261 . S
C306 O319 1.251 . S
O307 C306 1.261 . S
H308 C302 0.930 . S
H309 C304 0.930 . S
N310 Cu299 1.985 1_554 S
N310 C312 1.335 . S
N310 C313 1.390 . S
N311 C312 1.345 . S
N311 C314 1.336 . S
C312 N310 1.335 . S
C312 N311 1.345 . S
C312 H317 0.930 . S
C313 N310 1.390 . S
C313 C314 1.346 . S
C313 H318 0.930 . S
C314 N311 1.336 . S
C314 C313 1.346 . S
C314 H321 0.929 . S
C315 O305 1.282 . S
C315 O316 1.216 . S
O316 C315 1.216 . S
H317 C312 0.930 . S
H318 C313 0.930 . S
O319 Cu299 1.959 . S
O319 C306 1.251 . S
H320 C303 0.930 . S
H321 C314 0.929 . S
Cu322 N323 1.999 . S
Cu322 O328 1.974 . S
Cu322 N333 1.985 . S
Cu322 O342 1.959 . S
N323 Cu322 1.999 . S
N323 C325 1.263 . S
N323 C327 1.389 . S
N324 C325 1.358 . S
N324 C326 1.400 . S
C325 N323 1.263 . S
C325 N324 1.358 . S
C325 H331 0.930 . S
C326 N324 1.400 . S
C326 C327 1.351 . S
C326 H343 0.930 . S
C327 N323 1.389 . S
C327 C326 1.351 . S
C327 H332 0.930 . S
O328 Cu322 1.974 . S
O328 C338 1.282 . S
C329 O330 1.261 . S
C329 O342 1.251 . S
O330 C329 1.261 . S
H331 C325 0.930 . S
H332 C327 0.930 . S
N333 Cu322 1.985 . S
N333 C335 1.335 . S
N333 C336 1.390 . S
N334 C335 1.345 . S
N334 C337 1.336 . S
C335 N333 1.335 . S
C335 N334 1.345 . S
C335 H340 0.930 . S
C336 N333 1.390 . S
C336 C337 1.346 . S
C336 H341 0.930 . S
C337 N334 1.336 . S
C337 C336 1.346 . S
C337 H344 0.929 . S
C338 O328 1.282 . S
C338 O339 1.216 . S
O339 C338 1.216 . S
H340 C335 0.930 . S
H341 C336 0.930 . S
O342 Cu322 1.959 . S
O342 C329 1.251 . S
H343 C326 0.930 . S
H344 C337 0.929 . S
Cu345 N346 1.999 . S
Cu345 O351 1.974 1_556 S
Cu345 N356 1.985 1_556 S
Cu345 O365 1.959 . S
N346 Cu345 1.999 . S
N346 C348 1.263 . S
N346 C350 1.389 . S
N347 C348 1.358 . S
N347 C349 1.400 . S
C348 N346 1.263 . S
C348 N347 1.358 . S
C348 H354 0.930 . S
C349 N347 1.400 . S
C349 C350 1.351 . S
C349 H366 0.930 . S
C350 N346 1.389 . S
C350 C349 1.351 . S
C350 H355 0.930 . S
O351 Cu345 1.974 1_554 S
O351 C361 1.282 . S
C352 O353 1.261 . S
C352 O365 1.251 . S
O353 C352 1.261 . S
H354 C348 0.930 . S
H355 C350 0.930 . S
N356 Cu345 1.985 1_554 S
N356 C358 1.335 . S
N356 C359 1.390 . S
N357 C358 1.345 . S
N357 C360 1.336 . S
C358 N356 1.335 . S
C358 N357 1.345 . S
C358 H363 0.930 . S
C359 N356 1.390 . S
C359 C360 1.346 . S
C359 H364 0.930 . S
C360 N357 1.336 . S
C360 C359 1.346 . S
C360 H367 0.929 . S
C361 O351 1.282 . S
C361 O362 1.216 . S
O362 C361 1.216 . S
H363 C358 0.930 . S
H364 C359 0.930 . S
O365 Cu345 1.959 . S
O365 C352 1.251 . S
H366 C349 0.930 . S
H367 C360 0.929 . S
Cu368 N369 1.999 . S
Cu368 O374 1.974 . S
Cu368 N379 1.985 . S
Cu368 O388 1.959 . S
N369 Cu368 1.999 . S
N369 C371 1.263 . S
N369 C373 1.389 . S
N370 C371 1.358 . S
N370 C372 1.400 . S
C371 N369 1.263 . S
C371 N370 1.358 . S
C371 H377 0.930 . S
C372 N370 1.400 . S
C372 C373 1.351 . S
C372 H389 0.930 . S
C373 N369 1.389 . S
C373 C372 1.351 . S
C373 H378 0.930 . S
O374 Cu368 1.974 . S
O374 C384 1.282 . S
C375 O376 1.261 . S
C375 O388 1.251 . S
O376 C375 1.261 . S
H377 C371 0.930 . S
H378 C373 0.930 . S
N379 Cu368 1.985 . S
N379 C381 1.335 . S
N379 C382 1.390 . S
N380 C381 1.345 . S
N380 C383 1.336 . S
C381 N379 1.335 . S
C381 N380 1.345 . S
C381 H386 0.930 . S
C382 N379 1.390 . S
C382 C383 1.346 . S
C382 H387 0.930 . S
C383 N380 1.336 . S
C383 C382 1.346 . S
C383 H390 0.929 . S
C384 O374 1.282 . S
C384 O385 1.216 . S
O385 C384 1.216 . S
H386 C381 0.930 . S
H387 C382 0.930 . S
O388 Cu368 1.959 . S
O388 C375 1.251 . S
H389 C372 0.930 . S
H390 C383 0.929 . S
Cu391 N392 1.999 . S
Cu391 O397 1.974 . S
Cu391 N402 1.985 . S
Cu391 O411 1.959 . S
N392 Cu391 1.999 . S
N392 C394 1.263 . S
N392 C396 1.389 . S
N393 C394 1.358 . S
N393 C395 1.400 . S
C394 N392 1.263 . S
C394 N393 1.358 . S
C394 H400 0.930 . S
C395 N393 1.400 . S
C395 C396 1.351 . S
C395 H412 0.930 . S
C396 N392 1.389 . S
C396 C395 1.351 . S
C396 H401 0.930 . S
O397 Cu391 1.974 . S
O397 C407 1.282 . S
C398 O399 1.261 . S
C398 O411 1.251 . S
O399 C398 1.261 . S
H400 C394 0.930 . S
H401 C396 0.930 . S
N402 Cu391 1.985 . S
N402 C404 1.335 . S
N402 C405 1.390 . S
N403 C404 1.345 . S
N403 C406 1.336 . S
C404 N402 1.335 . S
C404 N403 1.345 . S
C404 H409 0.930 . S
C405 N402 1.390 . S
C405 C406 1.346 . S
C405 H410 0.930 . S
C406 N403 1.336 . S
C406 C405 1.346 . S
C406 H413 0.929 . S
C407 O397 1.282 . S
C407 O408 1.216 . S
O408 C407 1.216 . S
H409 C404 0.930 . S
H410 C405 0.930 . S
O411 Cu391 1.959 . S
O411 C398 1.251 . S
H412 C395 0.930 . S
H413 C406 0.929 . S
Cu414 N415 1.999 . S
Cu414 O420 1.974 . S
Cu414 N425 1.985 . S
Cu414 O434 1.959 . S
N415 Cu414 1.999 . S
N415 C417 1.263 . S
N415 C419 1.389 . S
N416 C417 1.358 . S
N416 C418 1.400 . S
C417 N415 1.263 . S
C417 N416 1.358 . S
C417 H423 0.930 . S
C418 N416 1.400 . S
C418 C419 1.351 . S
C418 H435 0.930 . S
C419 N415 1.389 . S
C419 C418 1.351 . S
C419 H424 0.930 . S
O420 Cu414 1.974 . S
O420 C430 1.282 . S
C421 O422 1.261 . S
C421 O434 1.251 . S
O422 C421 1.261 . S
H423 C417 0.930 . S
H424 C419 0.930 . S
N425 Cu414 1.985 . S
N425 C427 1.335 . S
N425 C428 1.390 . S
N426 C427 1.345 . S
N426 C429 1.336 . S
C427 N425 1.335 . S
C427 N426 1.345 . S
C427 H432 0.930 . S
C428 N425 1.390 . S
C428 C429 1.346 . S
C428 H433 0.930 . S
C429 N426 1.336 . S
C429 C428 1.346 . S
C429 H436 0.929 . S
C430 O420 1.282 . S
C430 O431 1.216 . S
O431 C430 1.216 . S
H432 C427 0.930 . S
H433 C428 0.930 . S
O434 Cu414 1.959 . S
O434 C421 1.251 . S
H435 C418 0.930 . S
H436 C429 0.929 . S
Cu437 N438 1.999 . S
Cu437 O443 1.974 . S
Cu437 N448 1.985 . S
Cu437 O457 1.959 . S
N438 Cu437 1.999 . S
N438 C440 1.263 . S
N438 C442 1.389 . S
N439 C440 1.358 . S
N439 C441 1.400 . S
C440 N438 1.263 . S
C440 N439 1.358 . S
C440 H446 0.930 . S
C441 N439 1.400 . S
C441 C442 1.351 . S
C441 H458 0.930 . S
C442 N438 1.389 . S
C442 C441 1.351 . S
C442 H447 0.930 . S
O443 Cu437 1.974 . S
O443 C453 1.282 . S
C444 O445 1.261 . S
C444 O457 1.251 . S
O445 C444 1.261 . S
H446 C440 0.930 . S
H447 C442 0.930 . S
N448 Cu437 1.985 . S
N448 C450 1.335 . S
N448 C451 1.390 . S
N449 C450 1.345 . S
N449 C452 1.336 . S
C450 N448 1.335 . S
C450 N449 1.345 . S
C450 H455 0.930 . S
C451 N448 1.390 . S
C451 C452 1.346 . S
C451 H456 0.930 . S
C452 N449 1.336 . S
C452 C451 1.346 . S
C452 H459 0.929 . S
C453 O443 1.282 . S
C453 O454 1.216 . S
O454 C453 1.216 . S
H455 C450 0.930 . S
H456 C451 0.930 . S
O457 Cu437 1.959 . S
O457 C444 1.251 . S
H458 C441 0.930 . S
H459 C452 0.929 . S
Cu460 N461 1.999 . S
Cu460 O466 1.974 . S
Cu460 N471 1.985 . S
Cu460 O480 1.959 . S
N461 Cu460 1.999 . S
N461 C463 1.263 . S
N461 C465 1.389 . S
N462 C463 1.358 . S
N462 C464 1.400 . S
C463 N461 1.263 . S
C463 N462 1.358 . S
C463 H469 0.930 . S
C464 N462 1.400 . S
C464 C465 1.351 . S
C464 H481 0.930 . S
C465 N461 1.389 . S
C465 C464 1.351 . S
C465 H470 0.930 . S
O466 Cu460 1.974 . S
O466 C476 1.282 . S
C467 O468 1.261 . S
C467 O480 1.251 . S
O468 C467 1.261 . S
H469 C463 0.930 . S
H470 C465 0.930 . S
N471 Cu460 1.985 . S
N471 C473 1.335 . S
N471 C474 1.390 . S
N472 C473 1.345 . S
N472 C475 1.336 . S
C473 N471 1.335 . S
C473 N472 1.345 . S
C473 H478 0.930 . S
C474 N471 1.390 . S
C474 C475 1.346 . S
C474 H479 0.930 . S
C475 N472 1.336 . S
C475 C474 1.346 . S
C475 H482 0.929 . S
C476 O466 1.282 . S
C476 O477 1.216 . S
O477 C476 1.216 . S
H478 C473 0.930 . S
H479 C474 0.930 . S
O480 Cu460 1.959 . S
O480 C467 1.251 . S
H481 C464 0.930 . S
H482 C475 0.929 . S
Cu483 N484 1.999 . S
Cu483 O489 1.974 . S
Cu483 N494 1.985 . S
Cu483 O503 1.959 . S
N484 Cu483 1.999 . S
N484 C486 1.263 . S
N484 C488 1.389 . S
N485 C486 1.358 . S
N485 C487 1.400 . S
C486 N484 1.263 . S
C486 N485 1.358 . S
C486 H492 0.930 . S
C487 N485 1.400 . S
C487 C488 1.351 . S
C487 H504 0.930 . S
C488 N484 1.389 . S
C488 C487 1.351 . S
C488 H493 0.930 . S
O489 Cu483 1.974 . S
O489 C499 1.282 . S
C490 O491 1.261 . S
C490 O503 1.251 . S
O491 C490 1.261 . S
H492 C486 0.930 . S
H493 C488 0.930 . S
N494 Cu483 1.985 . S
N494 C496 1.335 . S
N494 C497 1.390 . S
N495 C496 1.345 . S
N495 C498 1.336 . S
C496 N494 1.335 . S
C496 N495 1.345 . S
C496 H501 0.930 . S
C497 N494 1.390 . S
C497 C498 1.346 . S
C497 H502 0.930 . S
C498 N495 1.336 . S
C498 C497 1.346 . S
C498 H505 0.929 . S
C499 O489 1.282 . S
C499 O500 1.216 . S
O500 C499 1.216 . S
H501 C496 0.930 . S
H502 C497 0.930 . S
O503 Cu483 1.959 . S
O503 C490 1.251 . S
H504 C487 0.930 . S
H505 C498 0.929 . S
Cu506 N507 1.999 . S
Cu506 O512 1.974 . S
Cu506 N517 1.985 . S
Cu506 O526 1.959 . S
N507 Cu506 1.999 . S
N507 C509 1.263 . S
N507 C511 1.389 . S
N508 C509 1.358 . S
N508 C510 1.400 . S
C509 N507 1.263 . S
C509 N508 1.358 . S
C509 H515 0.930 . S
C510 N508 1.400 . S
C510 C511 1.351 . S
C510 H527 0.930 . S
C511 N507 1.389 . S
C511 C510 1.351 . S
C511 H516 0.930 . S
O512 Cu506 1.974 . S
O512 C522 1.282 . S
C513 O514 1.261 . S
C513 O526 1.251 . S
O514 C513 1.261 . S
H515 C509 0.930 . S
H516 C511 0.930 . S
N517 Cu506 1.985 . S
N517 C519 1.335 . S
N517 C520 1.390 . S
N518 C519 1.345 . S
N518 C521 1.336 . S
C519 N517 1.335 . S
C519 N518 1.345 . S
C519 H524 0.930 . S
C520 N517 1.390 . S
C520 C521 1.346 . S
C520 H525 0.930 . S
C521 N518 1.336 . S
C521 C520 1.346 . S
C521 H528 0.929 . S
C522 O512 1.282 . S
C522 O523 1.216 . S
O523 C522 1.216 . S
H524 C519 0.930 . S
H525 C520 0.930 . S
O526 Cu506 1.959 . S
O526 C513 1.251 . S
H527 C510 0.930 . S
H528 C521 0.929 . S
Cu529 N530 1.999 . S
Cu529 O535 1.974 1_545 S
Cu529 N540 1.985 1_545 S
Cu529 O549 1.959 . S
N530 Cu529 1.999 . S
N530 C532 1.263 . S
N530 C534 1.389 . S
N531 C532 1.358 . S
N531 C533 1.400 . S
C532 N530 1.263 . S
C532 N531 1.358 . S
C532 H538 0.930 . S
C533 N531 1.400 . S
C533 C534 1.351 . S
C533 H550 0.930 . S
C534 N530 1.389 . S
C534 C533 1.351 . S
C534 H539 0.930 . S
O535 Cu529 1.974 1_565 S
O535 C545 1.282 . S
C536 O537 1.261 . S
C536 O549 1.251 . S
O537 C536 1.261 . S
H538 C532 0.930 . S
H539 C534 0.930 . S
N540 Cu529 1.985 1_565 S
N540 C542 1.335 . S
N540 C543 1.390 . S
N541 C542 1.345 . S
N541 C544 1.336 . S
C542 N540 1.335 . S
C542 N541 1.345 . S
C542 H547 0.930 . S
C543 N540 1.390 . S
C543 C544 1.346 . S
C543 H548 0.930 . S
C544 N541 1.336 . S
C544 C543 1.346 . S
C544 H551 0.929 . S
C545 O535 1.282 . S
C545 O546 1.216 . S
O546 C545 1.216 . S
H547 C542 0.930 . S
H548 C543 0.930 . S
O549 Cu529 1.959 . S
O549 C536 1.251 . S
H550 C533 0.930 . S
H551 C544 0.929 . S
Cu552 N553 1.999 . S
Cu552 O558 1.974 . S
Cu552 N563 1.985 . S
Cu552 O572 1.959 . S
N553 Cu552 1.999 . S
N553 C555 1.263 . S
N553 C557 1.389 . S
N554 C555 1.358 . S
N554 C556 1.400 . S
C555 N553 1.263 . S
C555 N554 1.358 . S
C555 H561 0.930 . S
C556 N554 1.400 . S
C556 C557 1.351 . S
C556 H573 0.930 . S
C557 N553 1.389 . S
C557 C556 1.351 . S
C557 H562 0.930 . S
O558 Cu552 1.974 . S
O558 C568 1.282 . S
C559 O560 1.261 . S
C559 O572 1.251 . S
O560 C559 1.261 . S
H561 C555 0.930 . S
H562 C557 0.930 . S
N563 Cu552 1.985 . S
N563 C565 1.335 . S
N563 C566 1.390 . S
N564 C565 1.345 . S
N564 C567 1.336 . S
C565 N563 1.335 . S
C565 N564 1.345 . S
C565 H570 0.930 . S
C566 N563 1.390 . S
C566 C567 1.346 . S
C566 H571 0.930 . S
C567 N564 1.336 . S
C567 C566 1.346 . S
C567 H574 0.929 . S
C568 O558 1.282 . S
C568 O569 1.216 . S
O569 C568 1.216 . S
H570 C565 0.930 . S
H571 C566 0.930 . S
O572 Cu552 1.959 . S
O572 C559 1.251 . S
H573 C556 0.930 . S
H574 C567 0.929 . S
Cu575 N576 1.999 . S
Cu575 O581 1.974 1_655 S
Cu575 N586 1.985 1_655 S
Cu575 O595 1.959 . S
N576 Cu575 1.999 . S
N576 C578 1.263 . S
N576 C580 1.389 . S
N577 C578 1.358 . S
N577 C579 1.400 . S
C578 N576 1.263 . S
C578 N577 1.358 . S
C578 H584 0.930 . S
C579 N577 1.400 . S
C579 C580 1.351 . S
C579 H596 0.930 . S
C580 N576 1.389 . S
C580 C579 1.351 . S
C580 H585 0.930 . S
O581 Cu575 1.974 1_455 S
O581 C591 1.282 . S
C582 O583 1.261 . S
C582 O595 1.251 . S
O583 C582 1.261 . S
H584 C578 0.930 . S
H585 C580 0.930 . S
N586 Cu575 1.985 1_455 S
N586 C588 1.335 . S
N586 C589 1.390 . S
N587 C588 1.345 . S
N587 C590 1.336 . S
C588 N586 1.335 . S
C588 N587 1.345 . S
C588 H593 0.930 . S
C589 N586 1.390 . S
C589 C590 1.346 . S
C589 H594 0.930 . S
C590 N587 1.336 . S
C590 C589 1.346 . S
C590 H597 0.929 . S
C591 O581 1.282 . S
C591 O592 1.216 . S
O592 C591 1.216 . S
H593 C588 0.930 . S
H594 C589 0.930 . S
O595 Cu575 1.959 . S
O595 C582 1.251 . S
H596 C579 0.930 . S
H597 C590 0.929 . S
Cu598 N599 1.999 . S
Cu598 O604 1.974 . S
Cu598 N609 1.985 . S
Cu598 O618 1.959 . S
N599 Cu598 1.999 . S
N599 C601 1.263 . S
N599 C603 1.389 . S
N600 C601 1.358 . S
N600 C602 1.400 . S
C601 N599 1.263 . S
C601 N600 1.358 . S
C601 H607 0.930 . S
C602 N600 1.400 . S
C602 C603 1.351 . S
C602 H619 0.930 . S
C603 N599 1.389 . S
C603 C602 1.351 . S
C603 H608 0.930 . S
O604 Cu598 1.974 . S
O604 C614 1.282 . S
C605 O606 1.261 . S
C605 O618 1.251 . S
O606 C605 1.261 . S
H607 C601 0.930 . S
H608 C603 0.930 . S
N609 Cu598 1.985 . S
N609 C611 1.335 . S
N609 C612 1.390 . S
N610 C611 1.345 . S
N610 C613 1.336 . S
C611 N609 1.335 . S
C611 N610 1.345 . S
C611 H616 0.930 . S
C612 N609 1.390 . S
C612 C613 1.346 . S
C612 H617 0.930 . S
C613 N610 1.336 . S
C613 C612 1.346 . S
C613 H620 0.929 . S
C614 O604 1.282 . S
C614 O615 1.216 . S
O615 C614 1.216 . S
H616 C611 0.930 . S
H617 C612 0.930 . S
O618 Cu598 1.959 . S
O618 C605 1.251 . S
H619 C602 0.930 . S
H620 C613 0.929 . S
Cu621 N622 1.999 . S
Cu621 O627 1.974 1_455 S
Cu621 N632 1.985 1_455 S
Cu621 O641 1.959 . S
N622 Cu621 1.999 . S
N622 C624 1.263 . S
N622 C626 1.389 . S
N623 C624 1.358 . S
N623 C625 1.400 . S
C624 N622 1.263 . S
C624 N623 1.358 . S
C624 H630 0.930 . S
C625 N623 1.400 . S
C625 C626 1.351 . S
C625 H642 0.930 . S
C626 N622 1.389 . S
C626 C625 1.351 . S
C626 H631 0.930 . S
O627 Cu621 1.974 1_655 S
O627 C637 1.282 . S
C628 O629 1.261 . S
C628 O641 1.251 . S
O629 C628 1.261 . S
H630 C624 0.930 . S
H631 C626 0.930 . S
N632 Cu621 1.985 1_655 S
N632 C634 1.335 . S
N632 C635 1.390 . S
N633 C634 1.345 . S
N633 C636 1.336 . S
C634 N632 1.335 . S
C634 N633 1.345 . S
C634 H639 0.930 . S
C635 N632 1.390 . S
C635 C636 1.346 . S
C635 H640 0.930 . S
C636 N633 1.336 . S
C636 C635 1.346 . S
C636 H643 0.929 . S
C637 O627 1.282 . S
C637 O638 1.216 . S
O638 C637 1.216 . S
H639 C634 0.930 . S
H640 C635 0.930 . S
O641 Cu621 1.959 . S
O641 C628 1.251 . S
H642 C625 0.930 . S
H643 C636 0.929 . S
Cu644 N645 1.999 . S
Cu644 O650 1.974 . S
Cu644 N655 1.985 . S
Cu644 O664 1.959 . S
N645 Cu644 1.999 . S
N645 C647 1.263 . S
N645 C649 1.389 . S
N646 C647 1.358 . S
N646 C648 1.400 . S
C647 N645 1.263 . S
C647 N646 1.358 . S
C647 H653 0.930 . S
C648 N646 1.400 . S
C648 C649 1.351 . S
C648 H665 0.930 . S
C649 N645 1.389 . S
C649 C648 1.351 . S
C649 H654 0.930 . S
O650 Cu644 1.974 . S
O650 C660 1.282 . S
C651 O652 1.261 . S
C651 O664 1.251 . S
O652 C651 1.261 . S
H653 C647 0.930 . S
H654 C649 0.930 . S
N655 Cu644 1.985 . S
N655 C657 1.335 . S
N655 C658 1.390 . S
N656 C657 1.345 . S
N656 C659 1.336 . S
C657 N655 1.335 . S
C657 N656 1.345 . S
C657 H662 0.930 . S
C658 N655 1.390 . S
C658 C659 1.346 . S
C658 H663 0.930 . S
C659 N656 1.336 . S
C659 C658 1.346 . S
C659 H666 0.929 . S
C660 O650 1.282 . S
C660 O661 1.216 . S
O661 C660 1.216 . S
H662 C657 0.930 . S
H663 C658 0.930 . S
O664 Cu644 1.959 . S
O664 C651 1.251 . S
H665 C648 0.930 . S
H666 C659 0.929 . S
Cu667 N668 1.999 . S
Cu667 O673 1.974 . S
Cu667 N678 1.985 . S
Cu667 O687 1.959 . S
N668 Cu667 1.999 . S
N668 C670 1.263 . S
N668 C672 1.389 . S
N669 C670 1.358 . S
N669 C671 1.400 . S
C670 N668 1.263 . S
C670 N669 1.358 . S
C670 H676 0.930 . S
C671 N669 1.400 . S
C671 C672 1.351 . S
C671 H688 0.930 . S
C672 N668 1.389 . S
C672 C671 1.351 . S
C672 H677 0.930 . S
O673 Cu667 1.974 . S
O673 C683 1.282 . S
C674 O675 1.261 . S
C674 O687 1.251 . S
O675 C674 1.261 . S
H676 C670 0.930 . S
H677 C672 0.930 . S
N678 Cu667 1.985 . S
N678 C680 1.335 . S
N678 C681 1.390 . S
N679 C680 1.345 . S
N679 C682 1.336 . S
C680 N678 1.335 . S
C680 N679 1.345 . S
C680 H685 0.930 . S
C681 N678 1.390 . S
C681 C682 1.346 . S
C681 H686 0.930 . S
C682 N679 1.336 . S
C682 C681 1.346 . S
C682 H689 0.929 . S
C683 O673 1.282 . S
C683 O684 1.216 . S
O684 C683 1.216 . S
H685 C680 0.930 . S
H686 C681 0.930 . S
O687 Cu667 1.959 . S
O687 C674 1.251 . S
H688 C671 0.930 . S
H689 C682 0.929 . S
Cu690 N691 1.999 . S
Cu690 O696 1.974 . S
Cu690 N701 1.985 . S
Cu690 O710 1.959 . S
N691 Cu690 1.999 . S
N691 C693 1.263 . S
N691 C695 1.389 . S
N692 C693 1.358 . S
N692 C694 1.400 . S
C693 N691 1.263 . S
C693 N692 1.358 . S
C693 H699 0.930 . S
C694 N692 1.400 . S
C694 C695 1.351 . S
C694 H711 0.930 . S
C695 N691 1.389 . S
C695 C694 1.351 . S
C695 H700 0.930 . S
O696 Cu690 1.974 . S
O696 C706 1.282 . S
C697 O698 1.261 . S
C697 O710 1.251 . S
O698 C697 1.261 . S
H699 C693 0.930 . S
H700 C695 0.930 . S
N701 Cu690 1.985 . S
N701 C703 1.335 . S
N701 C704 1.390 . S
N702 C703 1.345 . S
N702 C705 1.336 . S
C703 N701 1.335 . S
C703 N702 1.345 . S
C703 H708 0.930 . S
C704 N701 1.390 . S
C704 C705 1.346 . S
C704 H709 0.930 . S
C705 N702 1.336 . S
C705 C704 1.346 . S
C705 H712 0.929 . S
C706 O696 1.282 . S
C706 O707 1.216 . S
O707 C706 1.216 . S
H708 C703 0.930 . S
H709 C704 0.930 . S
O710 Cu690 1.959 . S
O710 C697 1.251 . S
H711 C694 0.930 . S
H712 C705 0.929 . S
Cu713 N714 1.999 . S
Cu713 O719 1.974 . S
Cu713 N724 1.985 . S
Cu713 O733 1.959 . S
N714 Cu713 1.999 . S
N714 C716 1.263 . S
N714 C718 1.389 . S
N715 C716 1.358 . S
N715 C717 1.400 . S
C716 N714 1.263 . S
C716 N715 1.358 . S
C716 H722 0.930 . S
C717 N715 1.400 . S
C717 C718 1.351 . S
C717 H734 0.930 . S
C718 N714 1.389 . S
C718 C717 1.351 . S
C718 H723 0.930 . S
O719 Cu713 1.974 . S
O719 C729 1.282 . S
C720 O721 1.261 . S
C720 O733 1.251 . S
O721 C720 1.261 . S
H722 C716 0.930 . S
H723 C718 0.930 . S
N724 Cu713 1.985 . S
N724 C726 1.335 . S
N724 C727 1.390 . S
N725 C726 1.345 . S
N725 C728 1.336 . S
C726 N724 1.335 . S
C726 N725 1.345 . S
C726 H731 0.930 . S
C727 N724 1.390 . S
C727 C728 1.346 . S
C727 H732 0.930 . S
C728 N725 1.336 . S
C728 C727 1.346 . S
C728 H735 0.929 . S
C729 O719 1.282 . S
C729 O730 1.216 . S
O730 C729 1.216 . S
H731 C726 0.930 . S
H732 C727 0.930 . S
O733 Cu713 1.959 . S
O733 C720 1.251 . S
H734 C717 0.930 . S
H735 C728 0.929 . S
Cu736 N737 1.999 . S
Cu736 O742 1.974 . S
Cu736 N747 1.985 . S
Cu736 O756 1.959 . S
N737 Cu736 1.999 . S
N737 C739 1.263 . S
N737 C741 1.389 . S
N738 C739 1.358 . S
N738 C740 1.400 . S
C739 N737 1.263 . S
C739 N738 1.358 . S
C739 H745 0.930 . S
C740 N738 1.400 . S
C740 C741 1.351 . S
C740 H757 0.930 . S
C741 N737 1.389 . S
C741 C740 1.351 . S
C741 H746 0.930 . S
O742 Cu736 1.974 . S
O742 C752 1.282 . S
C743 O744 1.261 . S
C743 O756 1.251 . S
O744 C743 1.261 . S
H745 C739 0.930 . S
H746 C741 0.930 . S
N747 Cu736 1.985 . S
N747 C749 1.335 . S
N747 C750 1.390 . S
N748 C749 1.345 . S
N748 C751 1.336 . S
C749 N747 1.335 . S
C749 N748 1.345 . S
C749 H754 0.930 . S
C750 N747 1.390 . S
C750 C751 1.346 . S
C750 H755 0.930 . S
C751 N748 1.336 . S
C751 C750 1.346 . S
C751 H758 0.929 . S
C752 O742 1.282 . S
C752 O753 1.216 . S
O753 C752 1.216 . S
H754 C749 0.930 . S
H755 C750 0.930 . S
O756 Cu736 1.959 . S
O756 C743 1.251 . S
H757 C740 0.930 . S
H758 C751 0.929 . S
Cu759 N760 1.999 . S
Cu759 O765 1.974 . S
Cu759 N770 1.985 . S
Cu759 O779 1.959 . S
N760 Cu759 1.999 . S
N760 C762 1.263 . S
N760 C764 1.389 . S
N761 C762 1.358 . S
N761 C763 1.400 . S
C762 N760 1.263 . S
C762 N761 1.358 . S
C762 H768 0.930 . S
C763 N761 1.400 . S
C763 C764 1.351 . S
C763 H780 0.930 . S
C764 N760 1.389 . S
C764 C763 1.351 . S
C764 H769 0.930 . S
O765 Cu759 1.974 . S
O765 C775 1.282 . S
C766 O767 1.261 . S
C766 O779 1.251 . S
O767 C766 1.261 . S
H768 C762 0.930 . S
H769 C764 0.930 . S
N770 Cu759 1.985 . S
N770 C772 1.335 . S
N770 C773 1.390 . S
N771 C772 1.345 . S
N771 C774 1.336 . S
C772 N770 1.335 . S
C772 N771 1.345 . S
C772 H777 0.930 . S
C773 N770 1.390 . S
C773 C774 1.346 . S
C773 H778 0.930 . S
C774 N771 1.336 . S
C774 C773 1.346 . S
C774 H781 0.929 . S
C775 O765 1.282 . S
C775 O776 1.216 . S
O776 C775 1.216 . S
H777 C772 0.930 . S
H778 C773 0.930 . S
O779 Cu759 1.959 . S
O779 C766 1.251 . S
H780 C763 0.930 . S
H781 C774 0.929 . S
Cu782 N783 1.999 . S
Cu782 O788 1.974 . S
Cu782 N793 1.985 . S
Cu782 O802 1.959 . S
N783 Cu782 1.999 . S
N783 C785 1.263 . S
N783 C787 1.389 . S
N784 C785 1.358 . S
N784 C786 1.400 . S
C785 N783 1.263 . S
C785 N784 1.358 . S
C785 H791 0.930 . S
C786 N784 1.400 . S
C786 C787 1.351 . S
C786 H803 0.930 . S
C787 N783 1.389 . S
C787 C786 1.351 . S
C787 H792 0.930 . S
O788 Cu782 1.974 . S
O788 C798 1.282 . S
C789 O790 1.261 . S
C789 O802 1.251 . S
O790 C789 1.261 . S
H791 C785 0.930 . S
H792 C787 0.930 . S
N793 Cu782 1.985 . S
N793 C795 1.335 . S
N793 C796 1.390 . S
N794 C795 1.345 . S
N794 C797 1.336 . S
C795 N793 1.335 . S
C795 N794 1.345 . S
C795 H800 0.930 . S
C796 N793 1.390 . S
C796 C797 1.346 . S
C796 H801 0.930 . S
C797 N794 1.336 . S
C797 C796 1.346 . S
C797 H804 0.929 . S
C798 O788 1.282 . S
C798 O799 1.216 . S
O799 C798 1.216 . S
H800 C795 0.930 . S
H801 C796 0.930 . S
O802 Cu782 1.959 . S
O802 C789 1.251 . S
H803 C786 0.930 . S
H804 C797 0.929 . S
Cu805 N806 1.999 . S
Cu805 O811 1.974 . S
Cu805 N816 1.985 . S
Cu805 O825 1.959 . S
N806 Cu805 1.999 . S
N806 C808 1.263 . S
N806 C810 1.389 . S
N807 C808 1.358 . S
N807 C809 1.400 . S
C808 N806 1.263 . S
C808 N807 1.358 . S
C808 H814 0.930 . S
C809 N807 1.400 . S
C809 C810 1.351 . S
C809 H826 0.930 . S
C810 N806 1.389 . S
C810 C809 1.351 . S
C810 H815 0.930 . S
O811 Cu805 1.974 . S
O811 C821 1.282 . S
C812 O813 1.261 . S
C812 O825 1.251 . S
O813 C812 1.261 . S
H814 C808 0.930 . S
H815 C810 0.930 . S
N816 Cu805 1.985 . S
N816 C818 1.335 . S
N816 C819 1.390 . S
N817 C818 1.345 . S
N817 C820 1.336 . S
C818 N816 1.335 . S
C818 N817 1.345 . S
C818 H823 0.930 . S
C819 N816 1.390 . S
C819 C820 1.346 . S
C819 H824 0.930 . S
C820 N817 1.336 . S
C820 C819 1.346 . S
C820 H827 0.929 . S
C821 O811 1.282 . S
C821 O822 1.216 . S
O822 C821 1.216 . S
H823 C818 0.930 . S
H824 C819 0.930 . S
O825 Cu805 1.959 . S
O825 C812 1.251 . S
H826 C809 0.930 . S
H827 C820 0.929 . S
Cu828 N829 1.999 . S
Cu828 O834 1.974 . S
Cu828 N839 1.985 . S
Cu828 O848 1.959 . S
N829 Cu828 1.999 . S
N829 C831 1.263 . S
N829 C833 1.389 . S
N830 C831 1.358 . S
N830 C832 1.400 . S
C831 N829 1.263 . S
C831 N830 1.358 . S
C831 H837 0.930 . S
C832 N830 1.400 . S
C832 C833 1.351 . S
C832 H849 0.930 . S
C833 N829 1.389 . S
C833 C832 1.351 . S
C833 H838 0.930 . S
O834 Cu828 1.974 . S
O834 C844 1.282 . S
C835 O836 1.261 . S
C835 O848 1.251 . S
O836 C835 1.261 . S
H837 C831 0.930 . S
H838 C833 0.930 . S
N839 Cu828 1.985 . S
N839 C841 1.335 . S
N839 C842 1.390 . S
N840 C841 1.345 . S
N840 C843 1.336 . S
C841 N839 1.335 . S
C841 N840 1.345 . S
C841 H846 0.930 . S
C842 N839 1.390 . S
C842 C843 1.346 . S
C842 H847 0.930 . S
C843 N840 1.336 . S
C843 C842 1.346 . S
C843 H850 0.929 . S
C844 O834 1.282 . S
C844 O845 1.216 . S
O845 C844 1.216 . S
H846 C841 0.930 . S
H847 C842 0.930 . S
O848 Cu828 1.959 . S
O848 C835 1.251 . S
H849 C832 0.930 . S
H850 C843 0.929 . S
Cu851 N852 1.999 . S
Cu851 O857 1.974 . S
Cu851 N862 1.985 . S
Cu851 O871 1.959 . S
N852 Cu851 1.999 . S
N852 C854 1.263 . S
N852 C856 1.389 . S
N853 C854 1.358 . S
N853 C855 1.400 . S
C854 N852 1.263 . S
C854 N853 1.358 . S
C854 H860 0.930 . S
C855 N853 1.400 . S
C855 C856 1.351 . S
C855 H872 0.930 . S
C856 N852 1.389 . S
C856 C855 1.351 . S
C856 H861 0.930 . S
O857 Cu851 1.974 . S
O857 C867 1.282 . S
C858 O859 1.261 . S
C858 O871 1.251 . S
O859 C858 1.261 . S
H860 C854 0.930 . S
H861 C856 0.930 . S
N862 Cu851 1.985 . S
N862 C864 1.335 . S
N862 C865 1.390 . S
N863 C864 1.345 . S
N863 C866 1.336 . S
C864 N862 1.335 . S
C864 N863 1.345 . S
C864 H869 0.930 . S
C865 N862 1.390 . S
C865 C866 1.346 . S
C865 H870 0.930 . S
C866 N863 1.336 . S
C866 C865 1.346 . S
C866 H873 0.929 . S
C867 O857 1.282 . S
C867 O868 1.216 . S
O868 C867 1.216 . S
H869 C864 0.930 . S
H870 C865 0.930 . S
O871 Cu851 1.959 . S
O871 C858 1.251 . S
H872 C855 0.930 . S
H873 C866 0.929 . S
Cu874 N875 1.999 . S
Cu874 O880 1.974 . S
Cu874 N885 1.985 . S
Cu874 O894 1.959 . S
N875 Cu874 1.999 . S
N875 C877 1.263 . S
N875 C879 1.389 . S
N876 C877 1.358 . S
N876 C878 1.400 . S
C877 N875 1.263 . S
C877 N876 1.358 . S
C877 H883 0.930 . S
C878 N876 1.400 . S
C878 C879 1.351 . S
C878 H895 0.930 . S
C879 N875 1.389 . S
C879 C878 1.351 . S
C879 H884 0.930 . S
O880 Cu874 1.974 . S
O880 C890 1.282 . S
C881 O882 1.261 . S
C881 O894 1.251 . S
O882 C881 1.261 . S
H883 C877 0.930 . S
H884 C879 0.930 . S
N885 Cu874 1.985 . S
N885 C887 1.335 . S
N885 C888 1.390 . S
N886 C887 1.345 . S
N886 C889 1.336 . S
C887 N885 1.335 . S
C887 N886 1.345 . S
C887 H892 0.930 . S
C888 N885 1.390 . S
C888 C889 1.346 . S
C888 H893 0.930 . S
C889 N886 1.336 . S
C889 C888 1.346 . S
C889 H896 0.929 . S
C890 O880 1.282 . S
C890 O891 1.216 . S
O891 C890 1.216 . S
H892 C887 0.930 . S
H893 C888 0.930 . S
O894 Cu874 1.959 . S
O894 C881 1.251 . S
H895 C878 0.930 . S
H896 C889 0.929 . S
Cu897 N898 1.999 . S
Cu897 O903 1.974 . S
Cu897 N908 1.985 . S
Cu897 O917 1.959 . S
N898 Cu897 1.999 . S
N898 C900 1.263 . S
N898 C902 1.389 . S
N899 C900 1.358 . S
N899 C901 1.400 . S
C900 N898 1.263 . S
C900 N899 1.358 . S
C900 H906 0.930 . S
C901 N899 1.400 . S
C901 C902 1.351 . S
C901 H918 0.930 . S
C902 N898 1.389 . S
C902 C901 1.351 . S
C902 H907 0.930 . S
O903 Cu897 1.974 . S
O903 C913 1.282 . S
C904 O905 1.261 . S
C904 O917 1.251 . S
O905 C904 1.261 . S
H906 C900 0.930 . S
H907 C902 0.930 . S
N908 Cu897 1.985 . S
N908 C910 1.335 . S
N908 C911 1.390 . S
N909 C910 1.345 . S
N909 C912 1.336 . S
C910 N908 1.335 . S
C910 N909 1.345 . S
C910 H915 0.930 . S
C911 N908 1.390 . S
C911 C912 1.346 . S
C911 H916 0.930 . S
C912 N909 1.336 . S
C912 C911 1.346 . S
C912 H919 0.929 . S
C913 O903 1.282 . S
C913 O914 1.216 . S
O914 C913 1.216 . S
H915 C910 0.930 . S
H916 C911 0.930 . S
O917 Cu897 1.959 . S
O917 C904 1.251 . S
H918 C901 0.930 . S
H919 C912 0.929 . S
Cu920 N921 1.999 . S
Cu920 O926 1.974 . S
Cu920 N931 1.985 . S
Cu920 O940 1.959 . S
N921 Cu920 1.999 . S
N921 C923 1.263 . S
N921 C925 1.389 . S
N922 C923 1.358 . S
N922 C924 1.400 . S
C923 N921 1.263 . S
C923 N922 1.358 . S
C923 H929 0.930 . S
C924 N922 1.400 . S
C924 C925 1.351 . S
C924 H941 0.930 . S
C925 N921 1.389 . S
C925 C924 1.351 . S
C925 H930 0.930 . S
O926 Cu920 1.974 . S
O926 C936 1.282 . S
C927 O928 1.261 . S
C927 O940 1.251 . S
O928 C927 1.261 . S
H929 C923 0.930 . S
H930 C925 0.930 . S
N931 Cu920 1.985 . S
N931 C933 1.335 . S
N931 C934 1.390 . S
N932 C933 1.345 . S
N932 C935 1.336 . S
C933 N931 1.335 . S
C933 N932 1.345 . S
C933 H938 0.930 . S
C934 N931 1.390 . S
C934 C935 1.346 . S
C934 H939 0.930 . S
C935 N932 1.336 . S
C935 C934 1.346 . S
C935 H942 0.929 . S
C936 O926 1.282 . S
C936 O937 1.216 . S
O937 C936 1.216 . S
H938 C933 0.930 . S
H939 C934 0.930 . S
O940 Cu920 1.959 . S
O940 C927 1.251 . S
H941 C924 0.930 . S
H942 C935 0.929 . S
Cu943 N944 1.999 . S
Cu943 O949 1.974 . S
Cu943 N954 1.985 . S
Cu943 O963 1.959 . S
N944 Cu943 1.999 . S
N944 C946 1.263 . S
N944 C948 1.389 . S
N945 C946 1.358 . S
N945 C947 1.400 . S
C946 N944 1.263 . S
C946 N945 1.358 . S
C946 H952 0.930 . S
C947 N945 1.400 . S
C947 C948 1.351 . S
C947 H964 0.930 . S
C948 N944 1.389 . S
C948 C947 1.351 . S
C948 H953 0.930 . S
O949 Cu943 1.974 . S
O949 C959 1.282 . S
C950 O951 1.261 . S
C950 O963 1.251 . S
O951 C950 1.261 . S
H952 C946 0.930 . S
H953 C948 0.930 . S
N954 Cu943 1.985 . S
N954 C956 1.335 . S
N954 C957 1.390 . S
N955 C956 1.345 . S
N955 C958 1.336 . S
C956 N954 1.335 . S
C956 N955 1.345 . S
C956 H961 0.930 . S
C957 N954 1.390 . S
C957 C958 1.346 . S
C957 H962 0.930 . S
C958 N955 1.336 . S
C958 C957 1.346 . S
C958 H965 0.929 . S
C959 O949 1.282 . S
C959 O960 1.216 . S
O960 C959 1.216 . S
H961 C956 0.930 . S
H962 C957 0.930 . S
O963 Cu943 1.959 . S
O963 C950 1.251 . S
H964 C947 0.930 . S
H965 C958 0.929 . S
Cu966 N967 1.999 . S
Cu966 O972 1.974 1_545 S
Cu966 N977 1.985 1_545 S
Cu966 O986 1.959 . S
N967 Cu966 1.999 . S
N967 C969 1.263 . S
N967 C971 1.389 . S
N968 C969 1.358 . S
N968 C970 1.400 . S
C969 N967 1.263 . S
C969 N968 1.358 . S
C969 H975 0.930 . S
C970 N968 1.400 . S
C970 C971 1.351 . S
C970 H987 0.930 . S
C971 N967 1.389 . S
C971 C970 1.351 . S
C971 H976 0.930 . S
O972 Cu966 1.974 1_565 S
O972 C982 1.282 . S
C973 O974 1.261 . S
C973 O986 1.251 . S
O974 C973 1.261 . S
H975 C969 0.930 . S
H976 C971 0.930 . S
N977 Cu966 1.985 1_565 S
N977 C979 1.335 . S
N977 C980 1.390 . S
N978 C979 1.345 . S
N978 C981 1.336 . S
C979 N977 1.335 . S
C979 N978 1.345 . S
C979 H984 0.930 . S
C980 N977 1.390 . S
C980 C981 1.346 . S
C980 H985 0.930 . S
C981 N978 1.336 . S
C981 C980 1.346 . S
C981 H988 0.929 . S
C982 O972 1.282 . S
C982 O983 1.216 . S
O983 C982 1.216 . S
H984 C979 0.930 . S
H985 C980 0.930 . S
O986 Cu966 1.959 . S
O986 C973 1.251 . S
H987 C970 0.930 . S
H988 C981 0.929 . S
Cu989 N990 1.999 . S
Cu989 O995 1.974 . S
Cu989 N1000 1.985 . S
Cu989 O1009 1.959 . S
N990 Cu989 1.999 . S
N990 C992 1.263 . S
N990 C994 1.389 . S
N991 C992 1.358 . S
N991 C993 1.400 . S
C992 N990 1.263 . S
C992 N991 1.358 . S
C992 H998 0.930 . S
C993 N991 1.400 . S
C993 C994 1.351 . S
C993 H1010 0.930 . S
C994 N990 1.389 . S
C994 C993 1.351 . S
C994 H999 0.930 . S
O995 Cu989 1.974 . S
O995 C1005 1.282 . S
C996 O997 1.261 . S
C996 O1009 1.251 . S
O997 C996 1.261 . S
H998 C992 0.930 . S
H999 C994 0.930 . S
N1000 Cu989 1.985 . S
N1000 C1002 1.335 . S
N1000 C1003 1.390 . S
N1001 C1002 1.345 . S
N1001 C1004 1.336 . S
C1002 N1000 1.335 . S
C1002 N1001 1.345 . S
C1002 H1007 0.930 . S
C1003 N1000 1.390 . S
C1003 C1004 1.346 . S
C1003 H1008 0.930 . S
C1004 N1001 1.336 . S
C1004 C1003 1.346 . S
C1004 H1011 0.929 . S
C1005 O995 1.282 . S
C1005 O1006 1.216 . S
O1006 C1005 1.216 . S
H1007 C1002 0.930 . S
H1008 C1003 0.930 . S
O1009 Cu989 1.959 . S
O1009 C996 1.251 . S
H1010 C993 0.930 . S
H1011 C1004 0.929 . S
Cu1012 N1013 1.999 . S
Cu1012 O1018 1.974 1_565 S
Cu1012 N1023 1.985 1_565 S
Cu1012 O1032 1.959 . S
N1013 Cu1012 1.999 . S
N1013 C1015 1.263 . S
N1013 C1017 1.389 . S
N1014 C1015 1.358 . S
N1014 C1016 1.400 . S
C1015 N1013 1.263 . S
C1015 N1014 1.358 . S
C1015 H1021 0.930 . S
C1016 N1014 1.400 . S
C1016 C1017 1.351 . S
C1016 H1033 0.930 . S
C1017 N1013 1.389 . S
C1017 C1016 1.351 . S
C1017 H1022 0.930 . S
O1018 Cu1012 1.974 1_545 S
O1018 C1028 1.282 . S
C1019 O1020 1.261 . S
C1019 O1032 1.251 . S
O1020 C1019 1.261 . S
H1021 C1015 0.930 . S
H1022 C1017 0.930 . S
N1023 Cu1012 1.985 1_545 S
N1023 C1025 1.335 . S
N1023 C1026 1.390 . S
N1024 C1025 1.345 . S
N1024 C1027 1.336 . S
C1025 N1023 1.335 . S
C1025 N1024 1.345 . S
C1025 H1030 0.930 . S
C1026 N1023 1.390 . S
C1026 C1027 1.346 . S
C1026 H1031 0.930 . S
C1027 N1024 1.336 . S
C1027 C1026 1.346 . S
C1027 H1034 0.929 . S
C1028 O1018 1.282 . S
C1028 O1029 1.216 . S
O1029 C1028 1.216 . S
H1030 C1025 0.930 . S
H1031 C1026 0.930 . S
O1032 Cu1012 1.959 . S
O1032 C1019 1.251 . S
H1033 C1016 0.930 . S
H1034 C1027 0.929 . S
Cu1035 N1036 1.999 . S
Cu1035 O1041 1.974 . S
Cu1035 N1046 1.985 . S
Cu1035 O1055 1.959 . S
N1036 Cu1035 1.999 . S
N1036 C1038 1.263 . S
N1036 C1040 1.389 . S
N1037 C1038 1.358 . S
N1037 C1039 1.400 . S
C1038 N1036 1.263 . S
C1038 N1037 1.358 . S
C1038 H1044 0.930 . S
C1039 N1037 1.400 . S
C1039 C1040 1.351 . S
C1039 H1056 0.930 . S
C1040 N1036 1.389 . S
C1040 C1039 1.351 . S
C1040 H1045 0.930 . S
O1041 Cu1035 1.974 . S
O1041 C1051 1.282 . S
C1042 O1043 1.261 . S
C1042 O1055 1.251 . S
O1043 C1042 1.261 . S
H1044 C1038 0.930 . S
H1045 C1040 0.930 . S
N1046 Cu1035 1.985 . S
N1046 C1048 1.335 . S
N1046 C1049 1.390 . S
N1047 C1048 1.345 . S
N1047 C1050 1.336 . S
C1048 N1046 1.335 . S
C1048 N1047 1.345 . S
C1048 H1053 0.930 . S
C1049 N1046 1.390 . S
C1049 C1050 1.346 . S
C1049 H1054 0.930 . S
C1050 N1047 1.336 . S
C1050 C1049 1.346 . S
C1050 H1057 0.929 . S
C1051 O1041 1.282 . S
C1051 O1052 1.216 . S
O1052 C1051 1.216 . S
H1053 C1048 0.930 . S
H1054 C1049 0.930 . S
O1055 Cu1035 1.959 . S
O1055 C1042 1.251 . S
H1056 C1039 0.930 . S
H1057 C1050 0.929 . S
Cu1058 N1059 1.999 . S
Cu1058 O1064 1.974 1_565 S
Cu1058 N1069 1.985 1_565 S
Cu1058 O1078 1.959 . S
N1059 Cu1058 1.999 . S
N1059 C1061 1.263 . S
N1059 C1063 1.389 . S
N1060 C1061 1.358 . S
N1060 C1062 1.400 . S
C1061 N1059 1.263 . S
C1061 N1060 1.358 . S
C1061 H1067 0.930 . S
C1062 N1060 1.400 . S
C1062 C1063 1.351 . S
C1062 H1079 0.930 . S
C1063 N1059 1.389 . S
C1063 C1062 1.351 . S
C1063 H1068 0.930 . S
O1064 Cu1058 1.974 1_545 S
O1064 C1074 1.282 . S
C1065 O1066 1.261 . S
C1065 O1078 1.251 . S
O1066 C1065 1.261 . S
H1067 C1061 0.930 . S
H1068 C1063 0.930 . S
N1069 Cu1058 1.985 1_545 S
N1069 C1071 1.335 . S
N1069 C1072 1.390 . S
N1070 C1071 1.345 . S
N1070 C1073 1.336 . S
C1071 N1069 1.335 . S
C1071 N1070 1.345 . S
C1071 H1076 0.930 . S
C1072 N1069 1.390 . S
C1072 C1073 1.346 . S
C1072 H1077 0.930 . S
C1073 N1070 1.336 . S
C1073 C1072 1.346 . S
C1073 H1080 0.929 . S
C1074 O1064 1.282 . S
C1074 O1075 1.216 . S
O1075 C1074 1.216 . S
H1076 C1071 0.930 . S
H1077 C1072 0.930 . S
O1078 Cu1058 1.959 . S
O1078 C1065 1.251 . S
H1079 C1062 0.930 . S
H1080 C1073 0.929 . S
Cu1081 N1082 1.999 . S
Cu1081 O1087 1.974 . S
Cu1081 N1092 1.985 . S
Cu1081 O1101 1.959 . S
N1082 Cu1081 1.999 . S
N1082 C1084 1.263 . S
N1082 C1086 1.389 . S
N1083 C1084 1.358 . S
N1083 C1085 1.400 . S
C1084 N1082 1.263 . S
C1084 N1083 1.358 . S
C1084 H1090 0.930 . S
C1085 N1083 1.400 . S
C1085 C1086 1.351 . S
C1085 H1102 0.930 . S
C1086 N1082 1.389 . S
C1086 C1085 1.351 . S
C1086 H1091 0.930 . S
O1087 Cu1081 1.974 . S
O1087 C1097 1.282 . S
C1088 O1089 1.261 . S
C1088 O1101 1.251 . S
O1089 C1088 1.261 . S
H1090 C1084 0.930 . S
H1091 C1086 0.930 . S
N1092 Cu1081 1.985 . S
N1092 C1094 1.335 . S
N1092 C1095 1.390 . S
N1093 C1094 1.345 . S
N1093 C1096 1.336 . S
C1094 N1092 1.335 . S
C1094 N1093 1.345 . S
C1094 H1099 0.930 . S
C1095 N1092 1.390 . S
C1095 C1096 1.346 . S
C1095 H1100 0.930 . S
C1096 N1093 1.336 . S
C1096 C1095 1.346 . S
C1096 H1103 0.929 . S
C1097 O1087 1.282 . S
C1097 O1098 1.216 . S
O1098 C1097 1.216 . S
H1099 C1094 0.930 . S
H1100 C1095 0.930 . S
O1101 Cu1081 1.959 . S
O1101 C1088 1.251 . S
H1102 C1085 0.930 . S
H1103 C1096 0.929 . S
C1104 C1105 1.349 . S
C1104 C1106 1.327 . S
C1104 H1129 0.950 . S
C1105 C1104 1.349 . S
C1105 C1121 1.349 . S
C1106 C1104 1.327 . S
C1106 C1125 1.429 . S
C1106 H1130 0.950 . S
C1107 C1124 1.574 . S
C1107 C1126 1.368 . S
C1107 H1131 0.949 . S
H1108 C1112 0.949 . S
C1109 C1110 1.349 . S
C1109 C1111 1.327 . S
C1109 H1132 0.950 . S
C1110 C1109 1.349 . S
C1110 C1122 1.349 . S
C1111 C1109 1.327 . S
C1111 C1127 1.429 . S
C1111 H1133 0.950 . S
C1112 H1108 0.949 . S
C1112 C1120 1.574 . S
C1112 C1128 1.368 . S
H1113 C1121 0.950 . S
H1114 C1119 0.950 . S
H1115 C1120 0.949 . S
H1116 C1122 0.950 . S
H1117 C1123 0.950 . S
H1118 C1124 0.949 . S
C1119 H1114 0.950 . S
C1119 C1121 1.327 . S
C1119 C1125 1.429 . S
C1120 C1112 1.574 . S
C1120 H1115 0.949 . S
C1120 C1126 1.368 . S
C1121 C1105 1.349 . S
C1121 H1113 0.950 . S
C1121 C1119 1.327 . S
C1122 C1110 1.349 . S
C1122 H1116 0.950 . S
C1122 C1123 1.327 . S
C1123 H1117 0.950 . S
C1123 C1122 1.327 . S
C1123 C1127 1.429 . S
C1124 C1107 1.574 . S
C1124 H1118 0.949 . S
C1124 C1128 1.368 . S
C1125 C1106 1.429 . S
C1125 C1119 1.429 . S
C1125 C1126 1.523 . S
C1126 C1107 1.368 . S
C1126 C1120 1.368 . S
C1126 C1125 1.523 . S
C1127 C1111 1.429 . S
C1127 C1123 1.429 . S
C1127 C1128 1.523 . S
C1128 C1112 1.368 . S
C1128 C1124 1.368 . S
C1128 C1127 1.523 . S
H1129 C1104 0.950 . S
H1130 C1106 0.950 . S
H1131 C1107 0.949 . S
H1132 C1109 0.950 . S
H1133 C1111 0.950 . S
C1134 C1135 1.349 . S
C1134 C1136 1.327 . S
C1134 H1159 0.950 . S
C1135 C1134 1.349 . S
C1135 C1151 1.349 . S
C1136 C1134 1.327 . S
C1136 C1155 1.429 . S
C1136 H1160 0.950 . S
C1137 C1154 1.574 . S
C1137 C1156 1.368 . S
C1137 H1161 0.949 . S
H1138 C1142 0.949 . S
C1139 C1140 1.349 . S
C1139 C1141 1.327 . S
C1139 H1162 0.950 . S
C1140 C1139 1.349 . S
C1140 C1152 1.349 . S
C1141 C1139 1.327 . S
C1141 C1157 1.429 . S
C1141 H1163 0.950 . S
C1142 H1138 0.949 . S
C1142 C1150 1.574 . S
C1142 C1158 1.368 . S
H1143 C1151 0.950 . S
H1144 C1149 0.950 . S
H1145 C1150 0.949 . S
H1146 C1152 0.950 . S
H1147 C1153 0.950 . S
H1148 C1154 0.949 . S
C1149 H1144 0.950 . S
C1149 C1151 1.327 . S
C1149 C1155 1.429 . S
C1150 C1142 1.574 . S
C1150 H1145 0.949 . S
C1150 C1156 1.368 . S
C1151 C1135 1.349 . S
C1151 H1143 0.950 . S
C1151 C1149 1.327 . S
C1152 C1140 1.349 . S
C1152 H1146 0.950 . S
C1152 C1153 1.327 . S
C1153 H1147 0.950 . S
C1153 C1152 1.327 . S
C1153 C1157 1.429 . S
C1154 C1137 1.574 . S
C1154 H1148 0.949 . S
C1154 C1158 1.368 . S
C1155 C1136 1.429 . S
C1155 C1149 1.429 . S
C1155 C1156 1.523 . S
C1156 C1137 1.368 . S
C1156 C1150 1.368 . S
C1156 C1155 1.523 . S
C1157 C1141 1.429 . S
C1157 C1153 1.429 . S
C1157 C1158 1.523 1_556 S
C1158 C1142 1.368 . S
C1158 C1154 1.368 . S
C1158 C1157 1.523 1_554 S
H1159 C1134 0.950 . S
H1160 C1136 0.950 . S
H1161 C1137 0.949 . S
H1162 C1139 0.950 . S
H1163 C1141 0.950 . S
C1164 C1165 1.349 . S
C1164 C1166 1.327 . S
C1164 H1189 0.950 . S
C1165 C1164 1.349 . S
C1165 C1181 1.349 . S
C1166 C1164 1.327 . S
C1166 C1185 1.429 . S
C1166 H1190 0.950 . S
C1167 C1184 1.574 . S
C1167 C1186 1.368 . S
C1167 H1191 0.949 . S
H1168 C1172 0.949 . S
C1169 C1170 1.349 . S
C1169 C1171 1.327 . S
C1169 H1192 0.950 . S
C1170 C1169 1.349 . S
C1170 C1182 1.349 . S
C1171 C1169 1.327 . S
C1171 C1187 1.429 . S
C1171 H1193 0.950 . S
C1172 H1168 0.949 . S
C1172 C1180 1.574 . S
C1172 C1188 1.368 . S
H1173 C1181 0.950 . S
H1174 C1179 0.950 . S
H1175 C1180 0.949 . S
H1176 C1182 0.950 . S
H1177 C1183 0.950 . S
H1178 C1184 0.949 . S
C1179 H1174 0.950 . S
C1179 C1181 1.327 . S
C1179 C1185 1.429 . S
C1180 C1172 1.574 . S
C1180 H1175 0.949 . S
C1180 C1186 1.368 . S
C1181 C1165 1.349 . S
C1181 H1173 0.950 . S
C1181 C1179 1.327 . S
C1182 C1170 1.349 . S
C1182 H1176 0.950 . S
C1182 C1183 1.327 . S
C1183 H1177 0.950 . S
C1183 C1182 1.327 . S
C1183 C1187 1.429 . S
C1184 C1167 1.574 . S
C1184 H1178 0.949 . S
C1184 C1188 1.368 . S
C1185 C1166 1.429 . S
C1185 C1179 1.429 . S
C1185 C1186 1.523 . S
C1186 C1167 1.368 . S
C1186 C1180 1.368 . S
C1186 C1185 1.523 . S
C1187 C1171 1.429 . S
C1187 C1183 1.429 . S
C1187 C1188 1.523 . S
C1188 C1172 1.368 . S
C1188 C1184 1.368 . S
C1188 C1187 1.523 . S
H1189 C1164 0.950 . S
H1190 C1166 0.950 . S
H1191 C1167 0.949 . S
H1192 C1169 0.950 . S
H1193 C1171 0.950 . S
C1194 C1195 1.349 . S
C1194 C1196 1.327 . S
C1194 H1219 0.950 . S
C1195 C1194 1.349 . S
C1195 C1211 1.349 . S
C1196 C1194 1.327 . S
C1196 C1215 1.429 . S
C1196 H1220 0.950 . S
C1197 C1214 1.574 . S
C1197 C1216 1.368 . S
C1197 H1221 0.949 . S
H1198 C1202 0.949 . S
C1199 C1200 1.349 . S
C1199 C1201 1.327 . S
C1199 H1222 0.950 . S
C1200 C1199 1.349 . S
C1200 C1212 1.349 . S
C1201 C1199 1.327 . S
C1201 C1217 1.429 . S
C1201 H1223 0.950 . S
C1202 H1198 0.949 . S
C1202 C1210 1.574 . S
C1202 C1218 1.368 . S
H1203 C1211 0.950 . S
H1204 C1209 0.950 . S
H1205 C1210 0.949 1_556 S
H1206 C1212 0.950 . S
H1207 C1213 0.950 . S
H1208 C1214 0.949 . S
C1209 H1204 0.950 . S
C1209 C1211 1.327 . S
C1209 C1215 1.429 . S
C1210 C1202 1.574 . S
C1210 H1205 0.949 1_554 S
C1210 C1216 1.368 . S
C1211 C1195 1.349 . S
C1211 H1203 0.950 . S
C1211 C1209 1.327 . S
C1212 C1200 1.349 . S
C1212 H1206 0.950 . S
C1212 C1213 1.327 . S
C1213 H1207 0.950 . S
C1213 C1212 1.327 . S
C1213 C1217 1.429 . S
C1214 C1197 1.574 . S
C1214 H1208 0.949 . S
C1214 C1218 1.368 . S
C1215 C1196 1.429 . S
C1215 C1209 1.429 . S
C1215 C1216 1.523 1_556 S
C1216 C1197 1.368 . S
C1216 C1210 1.368 . S
C1216 C1215 1.523 1_554 S
C1217 C1201 1.429 . S
C1217 C1213 1.429 . S
C1217 C1218 1.523 . S
C1218 C1202 1.368 . S
C1218 C1214 1.368 . S
C1218 C1217 1.523 . S
H1219 C1194 0.950 . S
H1220 C1196 0.950 . S
H1221 C1197 0.949 . S
H1222 C1199 0.950 . S
H1223 C1201 0.950 . S
C1224 C1225 1.349 . S
C1224 C1226 1.327 . S
C1224 H1249 0.950 . S
C1225 C1224 1.349 . S
C1225 C1241 1.349 . S
C1226 C1224 1.327 . S
C1226 C1245 1.429 . S
C1226 H1250 0.950 . S
C1227 C1244 1.574 . S
C1227 C1246 1.368 . S
C1227 H1251 0.949 . S
H1228 C1232 0.949 . S
C1229 C1230 1.349 . S
C1229 C1231 1.327 . S
C1229 H1252 0.950 . S
C1230 C1229 1.349 . S
C1230 C1242 1.349 . S
C1231 C1229 1.327 . S
C1231 C1247 1.429 . S
C1231 H1253 0.950 . S
C1232 H1228 0.949 . S
C1232 C1240 1.574 . S
C1232 C1248 1.368 . S
H1233 C1241 0.950 . S
H1234 C1239 0.950 . S
H1235 C1240 0.949 . S
H1236 C1242 0.950 . S
H1237 C1243 0.950 . S
H1238 C1244 0.949 . S
C1239 H1234 0.950 . S
C1239 C1241 1.327 . S
C1239 C1245 1.429 . S
C1240 C1232 1.574 . S
C1240 H1235 0.949 . S
C1240 C1246 1.368 . S
C1241 C1225 1.349 . S
C1241 H1233 0.950 . S
C1241 C1239 1.327 . S
C1242 C1230 1.349 . S
C1242 H1236 0.950 . S
C1242 C1243 1.327 . S
C1243 H1237 0.950 . S
C1243 C1242 1.327 . S
C1243 C1247 1.429 . S
C1244 C1227 1.574 . S
C1244 H1238 0.949 . S
C1244 C1248 1.368 . S
C1245 C1226 1.429 . S
C1245 C1239 1.429 . S
C1245 C1246 1.523 . S
C1246 C1227 1.368 . S
C1246 C1240 1.368 . S
C1246 C1245 1.523 . S
C1247 C1231 1.429 . S
C1247 C1243 1.429 . S
C1247 C1248 1.523 . S
C1248 C1232 1.368 . S
C1248 C1244 1.368 . S
C1248 C1247 1.523 . S
H1249 C1224 0.950 . S
H1250 C1226 0.950 . S
H1251 C1227 0.949 . S
H1252 C1229 0.950 . S
H1253 C1231 0.950 . S
C1254 C1255 1.349 . S
C1254 C1256 1.327 . S
C1254 H1279 0.950 . S
C1255 C1254 1.349 . S
C1255 C1271 1.349 . S
C1256 C1254 1.327 . S
C1256 C1275 1.429 . S
C1256 H1280 0.950 . S
C1257 C1274 1.574 . S
C1257 C1276 1.368 . S
C1257 H1281 0.949 . S
H1258 C1262 0.949 . S
C1259 C1260 1.349 . S
C1259 C1261 1.327 . S
C1259 H1282 0.950 . S
C1260 C1259 1.349 . S
C1260 C1272 1.349 . S
C1261 C1259 1.327 . S
C1261 C1277 1.429 . S
C1261 H1283 0.950 . S
C1262 H1258 0.949 . S
C1262 C1270 1.574 . S
C1262 C1278 1.368 . S
H1263 C1271 0.950 . S
H1264 C1269 0.950 . S
H1265 C1270 0.902 1_554 S
H1266 C1272 0.950 . S
H1267 C1273 0.950 . S
H1268 C1274 0.949 . S
C1269 H1264 0.950 . S
C1269 C1271 1.327 . S
C1269 C1275 1.429 . S
C1270 C1262 1.574 . S
C1270 H1265 0.902 1_556 S
C1270 C1276 1.368 . S
C1271 C1255 1.349 . S
C1271 H1263 0.950 . S
C1271 C1269 1.327 . S
C1272 C1260 1.349 . S
C1272 H1266 0.950 . S
C1272 C1273 1.327 . S
C1273 H1267 0.950 . S
C1273 C1272 1.327 . S
C1273 C1277 1.429 . S
C1274 C1257 1.574 . S
C1274 H1268 0.949 . S
C1274 C1278 1.368 . S
C1275 C1256 1.429 . S
C1275 C1269 1.429 . S
C1275 C1276 1.523 1_554 S
C1276 C1257 1.368 . S
C1276 C1270 1.368 . S
C1276 C1275 1.523 1_556 S
C1277 C1261 1.429 . S
C1277 C1273 1.429 . S
C1277 C1278 1.523 . S
C1278 C1262 1.368 . S
C1278 C1274 1.368 . S
C1278 C1277 1.523 . S
H1279 C1254 0.950 . S
H1280 C1256 0.950 . S
H1281 C1257 0.949 . S
H1282 C1259 0.950 . S
H1283 C1261 0.950 . S
C1284 C1285 1.349 . S
C1284 C1286 1.327 . S
C1284 H1309 0.950 . S
C1285 C1284 1.349 . S
C1285 C1301 1.349 . S
C1286 C1284 1.327 . S
C1286 C1305 1.429 . S
C1286 H1310 0.950 . S
C1287 C1304 1.574 . S
C1287 C1306 1.368 . S
C1287 H1311 0.949 . S
H1288 C1292 0.949 . S
C1289 C1290 1.349 . S
C1289 C1291 1.327 . S
C1289 H1312 0.950 . S
C1290 C1289 1.349 . S
C1290 C1302 1.349 . S
C1291 C1289 1.327 . S
C1291 C1307 1.429 . S
C1291 H1313 0.950 . S
C1292 H1288 0.949 . S
C1292 C1300 1.574 . S
C1292 C1308 1.368 . S
H1293 C1301 0.950 . S
H1294 C1299 0.950 . S
H1295 C1300 0.949 . S
H1296 C1302 0.950 . S
H1297 C1303 0.950 . S
H1298 C1304 0.949 . S
C1299 H1294 0.950 . S
C1299 C1301 1.327 . S
C1299 C1305 1.429 . S
C1300 C1292 1.574 . S
C1300 H1295 0.949 . S
C1300 C1306 1.368 . S
C1301 C1285 1.349 . S
C1301 H1293 0.950 . S
C1301 C1299 1.327 . S
C1302 C1290 1.349 . S
C1302 H1296 0.950 . S
C1302 C1303 1.327 . S
C1303 H1297 0.950 . S
C1303 C1302 1.327 . S
C1303 C1307 1.429 . S
C1304 C1287 1.574 . S
C1304 H1298 0.949 . S
C1304 C1308 1.368 . S
C1305 C1286 1.429 . S
C1305 C1299 1.429 . S
C1305 C1306 1.523 . S
C1306 C1287 1.368 . S
C1306 C1300 1.368 . S
C1306 C1305 1.523 . S
C1307 C1291 1.429 . S
C1307 C1303 1.429 . S
C1307 C1308 1.523 . S
C1308 C1292 1.368 . S
C1308 C1304 1.368 . S
C1308 C1307 1.523 . S
H1309 C1284 0.950 . S
H1310 C1286 0.950 . S
H1311 C1287 0.949 . S
H1312 C1289 0.950 . S
H1313 C1291 0.950 . S
C1314 C1315 1.349 . S
C1314 C1316 1.327 . S
C1314 H1339 0.950 . S
C1315 C1314 1.349 . S
C1315 C1331 1.349 . S
C1316 C1314 1.327 . S
C1316 C1335 1.429 . S
C1316 H1340 0.950 . S
C1317 C1334 1.574 . S
C1317 C1336 1.368 . S
C1317 H1341 0.949 . S
H1318 C1322 0.949 . S
C1319 C1320 1.349 . S
C1319 C1321 1.327 . S
C1319 H1342 0.950 . S
C1320 C1319 1.349 . S
C1320 C1332 1.349 . S
C1321 C1319 1.327 . S
C1321 C1337 1.429 . S
C1321 H1343 0.950 . S
C1322 H1318 0.949 . S
C1322 C1330 1.574 . S
C1322 C1338 1.368 . S
H1323 C1331 0.950 . S
H1324 C1329 0.950 . S
H1325 C1330 0.949 . S
H1326 C1332 0.950 . S
H1327 C1333 0.950 . S
H1328 C1334 0.949 . S
C1329 H1324 0.950 . S
C1329 C1331 1.327 . S
C1329 C1335 1.429 . S
C1330 C1322 1.574 . S
C1330 H1325 0.949 . S
C1330 C1336 1.368 . S
C1331 C1315 1.349 . S
C1331 H1323 0.950 . S
C1331 C1329 1.327 . S
C1332 C1320 1.349 . S
C1332 H1326 0.950 . S
C1332 C1333 1.327 . S
C1333 H1327 0.950 . S
C1333 C1332 1.327 . S
C1333 C1337 1.429 . S
C1334 C1317 1.574 . S
C1334 H1328 0.949 . S
C1334 C1338 1.368 . S
C1335 C1316 1.429 . S
C1335 C1329 1.429 . S
C1335 C1336 1.523 . S
C1336 C1317 1.368 . S
C1336 C1330 1.368 . S
C1336 C1335 1.523 . S
C1337 C1321 1.429 . S
C1337 C1333 1.429 . S
C1337 C1338 1.523 1_554 S
C1338 C1322 1.368 . S
C1338 C1334 1.368 . S
C1338 C1337 1.523 1_556 S
H1339 C1314 0.950 . S
H1340 C1316 0.950 . S
H1341 C1317 0.949 . S
H1342 C1319 0.950 . S
H1343 C1321 0.950 . S
C1344 C1345 1.349 . S
C1344 C1346 1.327 . S
C1344 H1369 0.950 . S
C1345 C1344 1.349 . S
C1345 C1361 1.349 . S
C1346 C1344 1.327 . S
C1346 C1365 1.429 . S
C1346 H1370 0.950 . S
C1347 C1364 1.574 . S
C1347 C1366 1.368 . S
C1347 H1371 0.949 . S
H1348 C1352 0.949 . S
C1349 C1350 1.349 . S
C1349 C1351 1.327 . S
C1349 H1372 0.950 . S
C1350 C1349 1.349 . S
C1350 C1362 1.349 . S
C1351 C1349 1.327 . S
C1351 C1367 1.429 . S
C1351 H1373 0.950 . S
C1352 H1348 0.949 . S
C1352 C1360 1.574 . S
C1352 C1368 1.368 . S
H1353 C1361 0.950 . S
H1354 C1359 0.950 . S
H1355 C1360 0.949 . S
H1356 C1362 0.950 . S
H1357 C1363 0.950 . S
H1358 C1364 0.949 . S
C1359 H1354 0.950 . S
C1359 C1361 1.327 . S
C1359 C1365 1.429 . S
C1360 C1352 1.574 . S
C1360 H1355 0.949 . S
C1360 C1366 1.368 . S
C1361 C1345 1.349 . S
C1361 H1353 0.950 . S
C1361 C1359 1.327 . S
C1362 C1350 1.349 . S
C1362 H1356 0.950 . S
C1362 C1363 1.327 . S
C1363 H1357 0.950 . S
C1363 C1362 1.327 . S
C1363 C1367 1.429 . S
C1364 C1347 1.574 . S
C1364 H1358 0.949 . S
C1364 C1368 1.368 . S
C1365 C1346 1.429 . S
C1365 C1359 1.429 . S
C1365 C1366 1.523 . S
C1366 C1347 1.368 . S
C1366 C1360 1.368 . S
C1366 C1365 1.523 . S
C1367 C1351 1.429 . S
C1367 C1363 1.429 . S
C1367 C1368 1.523 . S
C1368 C1352 1.368 . S
C1368 C1364 1.368 . S
C1368 C1367 1.523 . S
H1369 C1344 0.950 . S
H1370 C1346 0.950 . S
H1371 C1347 0.949 . S
H1372 C1349 0.950 . S
H1373 C1351 0.950 . S
C1374 C1375 1.349 . S
C1374 C1376 1.327 . S
C1374 H1399 0.950 . S
C1375 C1374 1.349 . S
C1375 C1391 1.349 . S
C1376 C1374 1.327 . S
C1376 C1395 1.429 . S
C1376 H1400 0.950 . S
C1377 C1394 1.574 . S
C1377 C1396 1.368 . S
C1377 H1401 0.949 . S
H1378 C1382 0.949 . S
C1379 C1380 1.349 . S
C1379 C1381 1.327 . S
C1379 H1402 0.950 . S
C1380 C1379 1.349 . S
C1380 C1392 1.349 . S
C1381 C1379 1.327 . S
C1381 C1397 1.429 . S
C1381 H1403 0.950 . S
C1382 H1378 0.949 . S
C1382 C1390 1.574 . S
C1382 C1398 1.368 . S
H1383 C1391 0.950 . S
H1384 C1389 0.950 . S
H1385 C1390 0.949 . S
H1386 C1392 0.950 . S
H1387 C1393 0.950 . S
H1388 C1394 0.949 . S
C1389 H1384 0.950 . S
C1389 C1391 1.327 . S
C1389 C1395 1.429 . S
C1390 C1382 1.574 . S
C1390 H1385 0.949 . S
C1390 C1396 1.368 . S
C1391 C1375 1.349 . S
C1391 H1383 0.950 . S
C1391 C1389 1.327 . S
C1392 C1380 1.349 . S
C1392 H1386 0.950 . S
C1392 C1393 1.327 . S
C1393 H1387 0.950 . S
C1393 C1392 1.327 . S
C1393 C1397 1.429 . S
C1394 C1377 1.574 . S
C1394 H1388 0.949 . S
C1394 C1398 1.368 . S
C1395 C1376 1.429 . S
C1395 C1389 1.429 . S
C1395 C1396 1.523 . S
C1396 C1377 1.368 . S
C1396 C1390 1.368 . S
C1396 C1395 1.523 . S
C1397 C1381 1.429 . S
C1397 C1393 1.429 . S
C1397 C1398 1.523 . S
C1398 C1382 1.368 . S
C1398 C1394 1.368 . S
C1398 C1397 1.523 . S
H1399 C1374 0.950 . S
H1400 C1376 0.950 . S
H1401 C1377 0.949 . S
H1402 C1379 0.950 . S
H1403 C1381 0.950 . S
C1404 C1405 1.349 . S
C1404 C1406 1.327 . S
C1404 H1429 0.950 . S
C1405 C1404 1.349 . S
C1405 C1421 1.349 . S
C1406 C1404 1.327 . S
C1406 C1425 1.429 . S
C1406 H1430 0.950 . S
C1407 C1424 1.574 . S
C1407 C1426 1.368 . S
C1407 H1431 0.949 . S
H1408 C1412 0.949 . S
C1409 C1410 1.349 . S
C1409 C1411 1.327 . S
C1409 H1432 0.950 . S
C1410 C1409 1.349 . S
C1410 C1422 1.349 . S
C1411 C1409 1.327 . S
C1411 C1427 1.429 . S
C1411 H1433 0.950 . S
C1412 H1408 0.949 . S
C1412 C1420 1.574 . S
C1412 C1428 1.368 . S
H1413 C1421 0.950 . S
H1414 C1419 0.950 . S
H1415 C1420 0.949 . S
H1416 C1422 0.950 . S
H1417 C1423 0.950 . S
H1418 C1424 0.949 . S
C1419 H1414 0.950 . S
C1419 C1421 1.327 . S
C1419 C1425 1.429 . S
C1420 C1412 1.574 . S
C1420 H1415 0.949 . S
C1420 C1426 1.368 . S
C1421 C1405 1.349 . S
C1421 H1413 0.950 . S
C1421 C1419 1.327 . S
C1422 C1410 1.349 . S
C1422 H1416 0.950 . S
C1422 C1423 1.327 . S
C1423 H1417 0.950 . S
C1423 C1422 1.327 . S
C1423 C1427 1.429 . S
C1424 C1407 1.574 . S
C1424 H1418 0.949 . S
C1424 C1428 1.368 . S
C1425 C1406 1.429 . S
C1425 C1419 1.429 . S
C1425 C1426 1.523 . S
C1426 C1407 1.368 . S
C1426 C1420 1.368 . S
C1426 C1425 1.523 . S
C1427 C1411 1.429 . S
C1427 C1423 1.429 . S
C1427 C1428 1.523 . S
C1428 C1412 1.368 . S
C1428 C1424 1.368 . S
C1428 C1427 1.523 . S
H1429 C1404 0.950 . S
H1430 C1406 0.950 . S
H1431 C1407 0.949 . S
H1432 C1409 0.950 . S
H1433 C1411 0.950 . S
C1434 C1435 1.349 . S
C1434 C1436 1.327 . S
C1434 H1459 0.950 . S
C1435 C1434 1.349 . S
C1435 C1451 1.349 . S
C1436 C1434 1.327 . S
C1436 C1455 1.429 . S
C1436 H1460 0.950 . S
C1437 C1454 1.574 . S
C1437 C1456 1.368 . S
C1437 H1461 0.949 . S
H1438 C1442 0.949 1_545 S
C1439 C1440 1.349 . S
C1439 C1441 1.327 . S
C1439 H1462 0.950 . S
C1440 C1439 1.349 . S
C1440 C1452 1.349 . S
C1441 C1439 1.327 . S
C1441 C1457 1.429 . S
C1441 H1463 0.950 . S
C1442 H1438 0.949 1_565 S
C1442 C1450 1.574 . S
C1442 C1458 1.368 . S
H1443 C1451 0.950 . S
H1444 C1449 0.950 . S
H1445 C1450 0.949 . S
H1446 C1452 0.950 . S
H1447 C1453 0.950 . S
H1448 C1454 0.949 . S
C1449 H1444 0.950 . S
C1449 C1451 1.327 . S
C1449 C1455 1.429 . S
C1450 C1442 1.574 . S
C1450 H1445 0.949 . S
C1450 C1456 1.368 . S
C1451 C1435 1.349 . S
C1451 H1443 0.950 . S
C1451 C1449 1.327 . S
C1452 C1440 1.349 . S
C1452 H1446 0.950 . S
C1452 C1453 1.327 . S
C1453 H1447 0.950 . S
C1453 C1452 1.327 . S
C1453 C1457 1.429 . S
C1454 C1437 1.574 . S
C1454 H1448 0.949 . S
C1454 C1458 1.368 . S
C1455 C1436 1.429 . S
C1455 C1449 1.429 . S
C1455 C1456 1.523 . S
C1456 C1437 1.368 . S
C1456 C1450 1.368 . S
C1456 C1455 1.523 . S
C1457 C1441 1.429 . S
C1457 C1453 1.429 . S
C1457 C1458 1.523 1_545 S
C1458 C1442 1.368 . S
C1458 C1454 1.368 . S
C1458 C1457 1.523 1_565 S
H1459 C1434 0.950 . S
H1460 C1436 0.950 . S
H1461 C1437 0.949 . S
H1462 C1439 0.950 . S
H1463 C1441 0.950 . S
C1464 C1465 1.349 . S
C1464 C1466 1.327 . S
C1464 H1489 0.950 . S
C1465 C1464 1.349 . S
C1465 C1481 1.349 . S
C1466 C1464 1.327 . S
C1466 C1485 1.429 . S
C1466 H1490 0.950 . S
C1467 C1484 1.574 . S
C1467 C1486 1.368 . S
C1467 H1491 0.949 . S
H1468 C1472 0.949 . S
C1469 C1470 1.349 . S
C1469 C1471 1.327 . S
C1469 H1492 0.950 . S
C1470 C1469 1.349 . S
C1470 C1482 1.349 . S
C1471 C1469 1.327 . S
C1471 C1487 1.429 . S
C1471 H1493 0.950 . S
C1472 H1468 0.949 . S
C1472 C1480 1.574 . S
C1472 C1488 1.368 . S
H1473 C1481 0.950 . S
H1474 C1479 0.950 . S
H1475 C1480 0.949 . S
H1476 C1482 0.950 . S
H1477 C1483 0.950 . S
H1478 C1484 0.949 . S
C1479 H1474 0.950 . S
C1479 C1481 1.327 . S
C1479 C1485 1.429 . S
C1480 C1472 1.574 . S
C1480 H1475 0.949 . S
C1480 C1486 1.368 . S
C1481 C1465 1.349 . S
C1481 H1473 0.950 . S
C1481 C1479 1.327 . S
C1482 C1470 1.349 . S
C1482 H1476 0.950 . S
C1482 C1483 1.327 . S
C1483 H1477 0.950 . S
C1483 C1482 1.327 . S
C1483 C1487 1.429 . S
C1484 C1467 1.574 . S
C1484 H1478 0.949 . S
C1484 C1488 1.368 . S
C1485 C1466 1.429 . S
C1485 C1479 1.429 . S
C1485 C1486 1.523 . S
C1486 C1467 1.368 . S
C1486 C1480 1.368 . S
C1486 C1485 1.523 . S
C1487 C1471 1.429 . S
C1487 C1483 1.429 . S
C1487 C1488 1.523 . S
C1488 C1472 1.368 . S
C1488 C1484 1.368 . S
C1488 C1487 1.523 . S
H1489 C1464 0.950 . S
H1490 C1466 0.950 . S
H1491 C1467 0.949 . S
H1492 C1469 0.950 . S
H1493 C1471 0.950 . S
C1494 C1495 1.349 . S
C1494 C1496 1.327 . S
C1494 H1519 0.950 . S
C1495 C1494 1.349 . S
C1495 C1511 1.349 . S
C1496 C1494 1.327 . S
C1496 C1515 1.429 . S
C1496 H1520 0.950 . S
C1497 C1514 1.574 . S
C1497 C1516 1.368 . S
C1497 H1521 0.949 . S
H1498 C1502 0.949 . S
C1499 C1500 1.349 . S
C1499 C1501 1.327 . S
C1499 H1522 0.950 . S
C1500 C1499 1.349 . S
C1500 C1512 1.349 . S
C1501 C1499 1.327 . S
C1501 C1517 1.429 . S
C1501 H1523 0.950 . S
C1502 H1498 0.949 . S
C1502 C1510 1.574 . S
C1502 C1518 1.368 . S
H1503 C1511 0.950 . S
H1504 C1509 0.950 . S
H1505 C1510 0.949 . S
H1506 C1512 0.950 . S
H1507 C1513 0.950 . S
H1508 C1514 0.949 . S
C1509 H1504 0.950 . S
C1509 C1511 1.327 . S
C1509 C1515 1.429 . S
C1510 C1502 1.574 . S
C1510 H1505 0.949 . S
C1510 C1516 1.368 . S
C1511 C1495 1.349 . S
C1511 H1503 0.950 . S
C1511 C1509 1.327 . S
C1512 C1500 1.349 . S
C1512 H1506 0.950 . S
C1512 C1513 1.327 . S
C1513 H1507 0.950 . S
C1513 C1512 1.327 . S
C1513 C1517 1.429 . S
C1514 C1497 1.574 . S
C1514 H1508 0.949 . S
C1514 C1518 1.368 . S
C1515 C1496 1.429 . S
C1515 C1509 1.429 . S
C1515 C1516 1.523 . S
C1516 C1497 1.368 . S
C1516 C1510 1.368 . S
C1516 C1515 1.523 . S
C1517 C1501 1.429 . S
C1517 C1513 1.429 . S
C1517 C1518 1.523 . S
C1518 C1502 1.368 . S
C1518 C1514 1.368 . S
C1518 C1517 1.523 . S
H1519 C1494 0.950 . S
H1520 C1496 0.950 . S
H1521 C1497 0.949 . S
H1522 C1499 0.950 . S
H1523 C1501 0.950 . S
C1524 C1525 1.349 . S
C1524 C1526 1.327 . S
C1524 H1549 0.950 . S
C1525 C1524 1.349 . S
C1525 C1541 1.349 . S
C1526 C1524 1.327 . S
C1526 C1545 1.429 . S
C1526 H1550 0.950 . S
C1527 C1544 1.574 . S
C1527 C1546 1.368 . S
C1527 H1551 0.949 . S
H1528 C1532 0.949 . S
C1529 C1530 1.349 . S
C1529 C1531 1.327 . S
C1529 H1552 0.950 . S
C1530 C1529 1.349 . S
C1530 C1542 1.349 . S
C1531 C1529 1.327 . S
C1531 C1547 1.429 . S
C1531 H1553 0.950 . S
C1532 H1528 0.949 . S
C1532 C1540 1.574 . S
C1532 C1548 1.368 . S
H1533 C1541 0.950 . S
H1534 C1539 0.950 . S
H1535 C1540 0.949 . S
H1536 C1542 0.950 . S
H1537 C1543 0.950 . S
H1538 C1544 0.949 . S
C1539 H1534 0.950 . S
C1539 C1541 1.327 . S
C1539 C1545 1.429 . S
C1540 C1532 1.574 . S
C1540 H1535 0.949 . S
C1540 C1546 1.368 . S
C1541 C1525 1.349 . S
C1541 H1533 0.950 . S
C1541 C1539 1.327 . S
C1542 C1530 1.349 . S
C1542 H1536 0.950 . S
C1542 C1543 1.327 . S
C1543 H1537 0.950 . S
C1543 C1542 1.327 . S
C1543 C1547 1.429 . S
C1544 C1527 1.574 . S
C1544 H1538 0.949 . S
C1544 C1548 1.368 . S
C1545 C1526 1.429 . S
C1545 C1539 1.429 . S
C1545 C1546 1.523 . S
C1546 C1527 1.368 . S
C1546 C1540 1.368 . S
C1546 C1545 1.523 . S
C1547 C1531 1.429 . S
C1547 C1543 1.429 . S
C1547 C1548 1.523 . S
C1548 C1532 1.368 . S
C1548 C1544 1.368 . S
C1548 C1547 1.523 . S
H1549 C1524 0.950 . S
H1550 C1526 0.950 . S
H1551 C1527 0.949 . S
H1552 C1529 0.950 . S
H1553 C1531 0.950 . S
C1554 C1555 1.349 . S
C1554 C1556 1.327 . S
C1554 H1579 0.950 . S
C1555 C1554 1.349 . S
C1555 C1571 1.349 . S
C1556 C1554 1.327 . S
C1556 C1575 1.429 . S
C1556 H1580 0.950 . S
C1557 C1574 1.574 . S
C1557 C1576 1.368 . S
C1557 H1581 0.949 . S
H1558 C1562 0.949 . S
C1559 C1560 1.349 . S
C1559 C1561 1.327 . S
C1559 H1582 0.950 . S
C1560 C1559 1.349 . S
C1560 C1572 1.349 . S
C1561 C1559 1.327 . S
C1561 C1577 1.429 . S
C1561 H1583 0.950 . S
C1562 H1558 0.949 . S
C1562 C1570 1.574 . S
C1562 C1578 1.368 . S
H1563 C1571 0.950 . S
H1564 C1569 0.950 . S
H1565 C1570 0.949 . S
H1566 C1572 0.950 . S
H1567 C1573 0.950 . S
H1568 C1574 0.949 . S
C1569 H1564 0.950 . S
C1569 C1571 1.327 . S
C1569 C1575 1.429 . S
C1570 C1562 1.574 . S
C1570 H1565 0.949 . S
C1570 C1576 1.368 . S
C1571 C1555 1.349 . S
C1571 H1563 0.950 . S
C1571 C1569 1.327 . S
C1572 C1560 1.349 . S
C1572 H1566 0.950 . S
C1572 C1573 1.327 . S
C1573 H1567 0.950 . S
C1573 C1572 1.327 . S
C1573 C1577 1.429 . S
C1574 C1557 1.574 . S
C1574 H1568 0.949 . S
C1574 C1578 1.368 . S
C1575 C1556 1.429 . S
C1575 C1569 1.429 . S
C1575 C1576 1.523 1_545 S
C1576 C1557 1.368 . S
C1576 C1570 1.368 . S
C1576 C1575 1.523 1_565 S
C1577 C1561 1.429 . S
C1577 C1573 1.429 . S
C1577 C1578 1.523 . S
C1578 C1562 1.368 . S
C1578 C1574 1.368 . S
C1578 C1577 1.523 . S
H1579 C1554 0.950 . S
H1580 C1556 0.950 . S
H1581 C1557 0.949 . S
H1582 C1559 0.950 . S
H1583 C1561 0.950 . S
C1584 C1585 1.349 . S
C1584 C1586 1.327 . S
C1584 H1609 0.950 . S
C1585 C1584 1.349 . S
C1585 C1601 1.349 . S
C1586 C1584 1.327 . S
C1586 C1605 1.429 . S
C1586 H1610 0.950 . S
C1587 C1604 1.574 . S
C1587 C1606 1.368 . S
C1587 H1611 0.949 . S
H1588 C1592 0.949 . S
C1589 C1590 1.349 . S
C1589 C1591 1.327 . S
C1589 H1612 0.950 . S
C1590 C1589 1.349 . S
C1590 C1602 1.349 . S
C1591 C1589 1.327 . S
C1591 C1607 1.429 . S
C1591 H1613 0.950 . S
C1592 H1588 0.949 . S
C1592 C1600 1.574 . S
C1592 C1608 1.368 . S
H1593 C1601 0.950 . S
H1594 C1599 0.950 . S
H1595 C1600 0.949 . S
H1596 C1602 0.950 . S
H1597 C1603 0.950 . S
H1598 C1604 0.949 . S
C1599 H1594 0.950 . S
C1599 C1601 1.327 . S
C1599 C1605 1.429 . S
C1600 C1592 1.574 . S
C1600 H1595 0.949 . S
C1600 C1606 1.368 . S
C1601 C1585 1.349 . S
C1601 H1593 0.950 . S
C1601 C1599 1.327 . S
C1602 C1590 1.349 . S
C1602 H1596 0.950 . S
C1602 C1603 1.327 . S
C1603 H1597 0.950 . S
C1603 C1602 1.327 . S
C1603 C1607 1.429 . S
C1604 C1587 1.574 . S
C1604 H1598 0.949 . S
C1604 C1608 1.368 . S
C1605 C1586 1.429 . S
C1605 C1599 1.429 . S
C1605 C1606 1.523 . S
C1606 C1587 1.368 . S
C1606 C1600 1.368 . S
C1606 C1605 1.523 . S
C1607 C1591 1.429 . S
C1607 C1603 1.429 . S
C1607 C1608 1.523 . S
C1608 C1592 1.368 . S
C1608 C1604 1.368 . S
C1608 C1607 1.523 . S
H1609 C1584 0.950 . S
H1610 C1586 0.950 . S
H1611 C1587 0.949 . S
H1612 C1589 0.950 . S
H1613 C1591 0.950 . S
C1614 C1615 1.349 . S
C1614 C1616 1.327 . S
C1614 H1639 0.950 . S
C1615 C1614 1.349 . S
C1615 C1631 1.349 . S
C1616 C1614 1.327 . S
C1616 C1635 1.429 . S
C1616 H1640 0.950 . S
C1617 C1634 1.574 . S
C1617 C1636 1.368 . S
C1617 H1641 0.949 . S
H1618 C1622 0.949 . S
C1619 C1620 1.349 . S
C1619 C1621 1.327 . S
C1619 H1642 0.950 . S
C1620 C1619 1.349 . S
C1620 C1632 1.349 . S
C1621 C1619 1.327 . S
C1621 C1637 1.429 . S
C1621 H1643 0.950 . S
C1622 H1618 0.949 . S
C1622 C1630 1.574 . S
C1622 C1638 1.368 . S
H1623 C1631 0.950 . S
H1624 C1629 0.950 . S
H1625 C1630 0.949 . S
H1626 C1632 0.950 . S
H1627 C1633 0.950 . S
H1628 C1634 0.949 . S
C1629 H1624 0.950 . S
C1629 C1631 1.327 . S
C1629 C1635 1.429 . S
C1630 C1622 1.574 . S
C1630 H1625 0.949 . S
C1630 C1636 1.368 . S
C1631 C1615 1.349 . S
C1631 H1623 0.950 . S
C1631 C1629 1.327 . S
C1632 C1620 1.349 . S
C1632 H1626 0.950 . S
C1632 C1633 1.327 . S
C1633 H1627 0.950 . S
C1633 C1632 1.327 . S
C1633 C1637 1.429 . S
C1634 C1617 1.574 . S
C1634 H1628 0.949 . S
C1634 C1638 1.368 . S
C1635 C1616 1.429 . S
C1635 C1629 1.429 . S
C1635 C1636 1.523 . S
C1636 C1617 1.368 . S
C1636 C1630 1.368 . S
C1636 C1635 1.523 . S
C1637 C1621 1.429 . S
C1637 C1633 1.429 . S
C1637 C1638 1.523 . S
C1638 C1622 1.368 . S
C1638 C1634 1.368 . S
C1638 C1637 1.523 . S
H1639 C1614 0.950 . S
H1640 C1616 0.950 . S
H1641 C1617 0.949 . S
H1642 C1619 0.950 . S
H1643 C1621 0.950 . S
C1644 C1645 1.349 . S
C1644 C1646 1.327 . S
C1644 H1669 0.950 . S
C1645 C1644 1.349 . S
C1645 C1661 1.349 . S
C1646 C1644 1.327 . S
C1646 C1665 1.429 . S
C1646 H1670 0.950 . S
C1647 C1664 1.574 . S
C1647 C1666 1.368 . S
C1647 H1671 0.949 . S
H1648 C1652 0.949 . S
C1649 C1650 1.349 . S
C1649 C1651 1.327 . S
C1649 H1672 0.950 . S
C1650 C1649 1.349 . S
C1650 C1662 1.349 . S
C1651 C1649 1.327 . S
C1651 C1667 1.429 . S
C1651 H1673 0.950 . S
C1652 H1648 0.949 . S
C1652 C1660 1.574 . S
C1652 C1668 1.368 . S
H1653 C1661 0.950 . S
H1654 C1659 0.950 . S
H1655 C1660 0.949 1_655 S
H1656 C1662 0.950 . S
H1657 C1663 0.950 . S
H1658 C1664 0.949 . S
C1659 H1654 0.950 . S
C1659 C1661 1.327 . S
C1659 C1665 1.429 . S
C1660 C1652 1.574 . S
C1660 H1655 0.949 1_455 S
C1660 C1666 1.368 . S
C1661 C1645 1.349 . S
C1661 H1653 0.950 . S
C1661 C1659 1.327 . S
C1662 C1650 1.349 . S
C1662 H1656 0.950 . S
C1662 C1663 1.327 . S
C1663 H1657 0.950 . S
C1663 C1662 1.327 . S
C1663 C1667 1.429 . S
C1664 C1647 1.574 . S
C1664 H1658 0.949 . S
C1664 C1668 1.368 . S
C1665 C1646 1.429 . S
C1665 C1659 1.429 . S
C1665 C1666 1.523 1_655 S
C1666 C1647 1.368 . S
C1666 C1660 1.368 . S
C1666 C1665 1.523 1_455 S
C1667 C1651 1.429 . S
C1667 C1663 1.429 . S
C1667 C1668 1.523 . S
C1668 C1652 1.368 . S
C1668 C1664 1.368 . S
C1668 C1667 1.523 . S
H1669 C1644 0.950 . S
H1670 C1646 0.950 . S
H1671 C1647 0.949 . S
H1672 C1649 0.950 . S
H1673 C1651 0.950 . S
C1674 C1675 1.349 . S
C1674 C1676 1.327 . S
C1674 H1699 0.950 . S
C1675 C1674 1.349 . S
C1675 C1691 1.349 . S
C1676 C1674 1.327 . S
C1676 C1695 1.429 . S
C1676 H1700 0.950 . S
C1677 C1694 1.574 . S
C1677 C1696 1.368 . S
C1677 H1701 0.949 . S
H1678 C1682 0.949 . S
C1679 C1680 1.349 . S
C1679 C1681 1.327 . S
C1679 H1702 0.950 . S
C1680 C1679 1.349 . S
C1680 C1692 1.349 . S
C1681 C1679 1.327 . S
C1681 C1697 1.429 . S
C1681 H1703 0.950 . S
C1682 H1678 0.949 . S
C1682 C1690 1.574 . S
C1682 C1698 1.368 . S
H1683 C1691 0.950 . S
H1684 C1689 0.950 . S
H1685 C1690 0.949 . S
H1686 C1692 0.950 . S
H1687 C1693 0.950 . S
H1688 C1694 0.949 . S
C1689 H1684 0.950 . S
C1689 C1691 1.327 . S
C1689 C1695 1.429 . S
C1690 C1682 1.574 . S
C1690 H1685 0.949 . S
C1690 C1696 1.368 . S
C1691 C1675 1.349 . S
C1691 H1683 0.950 . S
C1691 C1689 1.327 . S
C1692 C1680 1.349 . S
C1692 H1686 0.950 . S
C1692 C1693 1.327 . S
C1693 H1687 0.950 . S
C1693 C1692 1.327 . S
C1693 C1697 1.429 . S
C1694 C1677 1.574 . S
C1694 H1688 0.949 . S
C1694 C1698 1.368 . S
C1695 C1676 1.429 . S
C1695 C1689 1.429 . S
C1695 C1696 1.523 . S
C1696 C1677 1.368 . S
C1696 C1690 1.368 . S
C1696 C1695 1.523 . S
C1697 C1681 1.429 . S
C1697 C1693 1.429 . S
C1697 C1698 1.523 . S
C1698 C1682 1.368 . S
C1698 C1694 1.368 . S
C1698 C1697 1.523 . S
H1699 C1674 0.950 . S
H1700 C1676 0.950 . S
H1701 C1677 0.949 . S
H1702 C1679 0.950 . S
H1703 C1681 0.950 . S
C1704 C1705 1.349 . S
C1704 C1706 1.327 . S
C1704 H1729 0.950 . S
C1705 C1704 1.349 . S
C1705 C1721 1.349 . S
C1706 C1704 1.327 . S
C1706 C1725 1.429 . S
C1706 H1730 0.950 . S
C1707 C1724 1.574 . S
C1707 C1726 1.368 . S
C1707 H1731 0.949 . S
H1708 C1712 0.949 . S
C1709 C1710 1.349 . S
C1709 C1711 1.327 . S
C1709 H1732 0.950 . S
C1710 C1709 1.349 . S
C1710 C1722 1.349 . S
C1711 C1709 1.327 . S
C1711 C1727 1.429 . S
C1711 H1733 0.950 . S
C1712 H1708 0.949 . S
C1712 C1720 1.574 . S
C1712 C1728 1.368 . S
H1713 C1721 0.950 . S
H1714 C1719 0.950 . S
H1715 C1720 0.949 . S
H1716 C1722 0.950 . S
H1717 C1723 0.950 . S
H1718 C1724 0.949 . S
C1719 H1714 0.950 . S
C1719 C1721 1.327 . S
C1719 C1725 1.429 . S
C1720 C1712 1.574 . S
C1720 H1715 0.949 . S
C1720 C1726 1.368 . S
C1721 C1705 1.349 . S
C1721 H1713 0.950 . S
C1721 C1719 1.327 . S
C1722 C1710 1.349 . S
C1722 H1716 0.950 . S
C1722 C1723 1.327 . S
C1723 H1717 0.950 . S
C1723 C1722 1.327 . S
C1723 C1727 1.429 . S
C1724 C1707 1.574 . S
C1724 H1718 0.949 . S
C1724 C1728 1.368 . S
C1725 C1706 1.429 . S
C1725 C1719 1.429 . S
C1725 C1726 1.523 . S
C1726 C1707 1.368 . S
C1726 C1720 1.368 . S
C1726 C1725 1.523 . S
C1727 C1711 1.429 . S
C1727 C1723 1.429 . S
C1727 C1728 1.523 . S
C1728 C1712 1.368 . S
C1728 C1724 1.368 . S
C1728 C1727 1.523 . S
H1729 C1704 0.950 . S
H1730 C1706 0.950 . S
H1731 C1707 0.949 . S
H1732 C1709 0.950 . S
H1733 C1711 0.950 . S
C1734 C1735 1.349 . S
C1734 C1736 1.327 . S
C1734 H1759 0.950 . S
C1735 C1734 1.349 . S
C1735 C1751 1.349 . S
C1736 C1734 1.327 . S
C1736 C1755 1.429 . S
C1736 H1760 0.950 . S
C1737 C1754 1.574 . S
C1737 C1756 1.368 . S
C1737 H1761 0.949 . S
H1738 C1742 0.949 . S
C1739 C1740 1.349 . S
C1739 C1741 1.327 . S
C1739 H1762 0.950 . S
C1740 C1739 1.349 . S
C1740 C1752 1.349 . S
C1741 C1739 1.327 . S
C1741 C1757 1.429 . S
C1741 H1763 0.950 . S
C1742 H1738 0.949 . S
C1742 C1750 1.574 . S
C1742 C1758 1.368 . S
H1743 C1751 0.950 . S
H1744 C1749 0.950 . S
H1745 C1750 0.949 . S
H1746 C1752 0.950 . S
H1747 C1753 0.950 . S
H1748 C1754 0.949 . S
C1749 H1744 0.950 . S
C1749 C1751 1.327 . S
C1749 C1755 1.429 . S
C1750 C1742 1.574 . S
C1750 H1745 0.949 . S
C1750 C1756 1.368 . S
C1751 C1735 1.349 . S
C1751 H1743 0.950 . S
C1751 C1749 1.327 . S
C1752 C1740 1.349 . S
C1752 H1746 0.950 . S
C1752 C1753 1.327 . S
C1753 H1747 0.950 . S
C1753 C1752 1.327 . S
C1753 C1757 1.429 . S
C1754 C1737 1.574 . S
C1754 H1748 0.949 . S
C1754 C1758 1.368 . S
C1755 C1736 1.429 . S
C1755 C1749 1.429 . S
C1755 C1756 1.523 . S
C1756 C1737 1.368 . S
C1756 C1750 1.368 . S
C1756 C1755 1.523 . S
C1757 C1741 1.429 . S
C1757 C1753 1.429 . S
C1757 C1758 1.523 . S
C1758 C1742 1.368 . S
C1758 C1754 1.368 . S
C1758 C1757 1.523 . S
H1759 C1734 0.950 . S
H1760 C1736 0.950 . S
H1761 C1737 0.949 . S
H1762 C1739 0.950 . S
H1763 C1741 0.950 . S
C1764 C1765 1.349 . S
C1764 C1766 1.327 . S
C1764 H1789 0.950 . S
C1765 C1764 1.349 . S
C1765 C1781 1.349 . S
C1766 C1764 1.327 . S
C1766 C1785 1.429 . S
C1766 H1790 0.950 . S
C1767 C1784 1.574 . S
C1767 C1786 1.368 . S
C1767 H1791 0.949 . S
H1768 C1772 0.949 1_655 S
C1769 C1770 1.349 . S
C1769 C1771 1.327 . S
C1769 H1792 0.950 . S
C1770 C1769 1.349 . S
C1770 C1782 1.349 . S
C1771 C1769 1.327 . S
C1771 C1787 1.429 . S
C1771 H1793 0.950 . S
C1772 H1768 0.949 1_455 S
C1772 C1780 1.574 . S
C1772 C1788 1.368 . S
H1773 C1781 0.950 . S
H1774 C1779 0.950 . S
H1775 C1780 0.949 . S
H1776 C1782 0.950 . S
H1777 C1783 0.950 . S
H1778 C1784 0.949 . S
C1779 H1774 0.950 . S
C1779 C1781 1.327 . S
C1779 C1785 1.429 . S
C1780 C1772 1.574 . S
C1780 H1775 0.949 . S
C1780 C1786 1.368 . S
C1781 C1765 1.349 . S
C1781 H1773 0.950 . S
C1781 C1779 1.327 . S
C1782 C1770 1.349 . S
C1782 H1776 0.950 . S
C1782 C1783 1.327 . S
C1783 H1777 0.950 . S
C1783 C1782 1.327 . S
C1783 C1787 1.429 . S
C1784 C1767 1.574 . S
C1784 H1778 0.949 . S
C1784 C1788 1.368 . S
C1785 C1766 1.429 . S
C1785 C1779 1.429 . S
C1785 C1786 1.523 . S
C1786 C1767 1.368 . S
C1786 C1780 1.368 . S
C1786 C1785 1.523 . S
C1787 C1771 1.429 . S
C1787 C1783 1.429 . S
C1787 C1788 1.523 1_655 S
C1788 C1772 1.368 . S
C1788 C1784 1.368 . S
C1788 C1787 1.523 1_455 S
H1789 C1764 0.950 . S
H1790 C1766 0.950 . S
H1791 C1767 0.949 . S
H1792 C1769 0.950 . S
H1793 C1771 0.950 . S
C1794 C1795 1.349 . S
C1794 C1796 1.327 . S
C1794 H1819 0.950 . S
C1795 C1794 1.349 . S
C1795 C1811 1.349 . S
C1796 C1794 1.327 . S
C1796 C1815 1.429 . S
C1796 H1820 0.950 . S
C1797 C1814 1.574 . S
C1797 C1816 1.368 . S
C1797 H1821 0.949 . S
H1798 C1802 0.949 . S
C1799 C1800 1.349 . S
C1799 C1801 1.327 . S
C1799 H1822 0.950 . S
C1800 C1799 1.349 . S
C1800 C1812 1.349 . S
C1801 C1799 1.327 . S
C1801 C1817 1.429 . S
C1801 H1823 0.950 . S
C1802 H1798 0.949 . S
C1802 C1810 1.574 . S
C1802 C1818 1.368 . S
H1803 C1811 0.950 . S
H1804 C1809 0.950 . S
H1805 C1810 0.949 . S
H1806 C1812 0.950 . S
H1807 C1813 0.950 . S
H1808 C1814 0.949 1_455 S
C1809 H1804 0.950 . S
C1809 C1811 1.327 . S
C1809 C1815 1.429 . S
C1810 C1802 1.574 . S
C1810 H1805 0.949 . S
C1810 C1816 1.368 . S
C1811 C1795 1.349 . S
C1811 H1803 0.950 . S
C1811 C1809 1.327 . S
C1812 C1800 1.349 . S
C1812 H1806 0.950 . S
C1812 C1813 1.327 . S
C1813 H1807 0.950 . S
C1813 C1812 1.327 . S
C1813 C1817 1.429 . S
C1814 C1797 1.574 . S
C1814 H1808 0.949 1_655 S
C1814 C1818 1.368 . S
C1815 C1796 1.429 . S
C1815 C1809 1.429 . S
C1815 C1816 1.523 . S
C1816 C1797 1.368 . S
C1816 C1810 1.368 . S
C1816 C1815 1.523 . S
C1817 C1801 1.429 . S
C1817 C1813 1.429 . S
C1817 C1818 1.523 1_455 S
C1818 C1802 1.368 . S
C1818 C1814 1.368 . S
C1818 C1817 1.523 1_655 S
H1819 C1794 0.950 . S
H1820 C1796 0.950 . S
H1821 C1797 0.949 . S
H1822 C1799 0.950 . S
H1823 C1801 0.950 . S
C1824 C1825 1.349 . S
C1824 C1826 1.327 . S
C1824 H1849 0.950 . S
C1825 C1824 1.349 . S
C1825 C1841 1.349 . S
C1826 C1824 1.327 . S
C1826 C1845 1.429 . S
C1826 H1850 0.950 . S
C1827 C1844 1.574 . S
C1827 C1846 1.368 . S
C1827 H1851 0.949 . S
H1828 C1832 0.949 . S
C1829 C1830 1.349 . S
C1829 C1831 1.327 . S
C1829 H1852 0.950 . S
C1830 C1829 1.349 . S
C1830 C1842 1.349 . S
C1831 C1829 1.327 . S
C1831 C1847 1.429 . S
C1831 H1853 0.950 . S
C1832 H1828 0.949 . S
C1832 C1840 1.574 . S
C1832 C1848 1.368 . S
H1833 C1841 0.950 . S
H1834 C1839 0.950 . S
H1835 C1840 0.949 . S
H1836 C1842 0.950 . S
H1837 C1843 0.950 . S
H1838 C1844 0.949 . S
C1839 H1834 0.950 . S
C1839 C1841 1.327 . S
C1839 C1845 1.429 . S
C1840 C1832 1.574 . S
C1840 H1835 0.949 . S
C1840 C1846 1.368 . S
C1841 C1825 1.349 . S
C1841 H1833 0.950 . S
C1841 C1839 1.327 . S
C1842 C1830 1.349 . S
C1842 H1836 0.950 . S
C1842 C1843 1.327 . S
C1843 H1837 0.950 . S
C1843 C1842 1.327 . S
C1843 C1847 1.429 . S
C1844 C1827 1.574 . S
C1844 H1838 0.949 . S
C1844 C1848 1.368 . S
C1845 C1826 1.429 . S
C1845 C1839 1.429 . S
C1845 C1846 1.523 . S
C1846 C1827 1.368 . S
C1846 C1840 1.368 . S
C1846 C1845 1.523 . S
C1847 C1831 1.429 . S
C1847 C1843 1.429 . S
C1847 C1848 1.523 . S
C1848 C1832 1.368 . S
C1848 C1844 1.368 . S
C1848 C1847 1.523 . S
H1849 C1824 0.950 . S
H1850 C1826 0.950 . S
H1851 C1827 0.949 . S
H1852 C1829 0.950 . S
H1853 C1831 0.950 . S
C1854 C1855 1.349 . S
C1854 C1856 1.327 . S
C1854 H1879 0.950 . S
C1855 C1854 1.349 . S
C1855 C1871 1.349 . S
C1856 C1854 1.327 . S
C1856 C1875 1.429 . S
C1856 H1880 0.950 . S
C1857 C1874 1.574 . S
C1857 C1876 1.368 . S
C1857 H1881 0.949 . S
H1858 C1862 0.949 . S
C1859 C1860 1.349 . S
C1859 C1861 1.327 . S
C1859 H1882 0.950 . S
C1860 C1859 1.349 . S
C1860 C1872 1.349 . S
C1861 C1859 1.327 . S
C1861 C1877 1.429 . S
C1861 H1883 0.950 . S
C1862 H1858 0.949 . S
C1862 C1870 1.574 . S
C1862 C1878 1.368 . S
H1863 C1871 0.950 . S
H1864 C1869 0.950 . S
H1865 C1870 0.949 . S
H1866 C1872 0.950 . S
H1867 C1873 0.950 . S
H1868 C1874 0.949 . S
C1869 H1864 0.950 . S
C1869 C1871 1.327 . S
C1869 C1875 1.429 . S
C1870 C1862 1.574 . S
C1870 H1865 0.949 . S
C1870 C1876 1.368 . S
C1871 C1855 1.349 . S
C1871 H1863 0.950 . S
C1871 C1869 1.327 . S
C1872 C1860 1.349 . S
C1872 H1866 0.950 . S
C1872 C1873 1.327 . S
C1873 H1867 0.950 . S
C1873 C1872 1.327 . S
C1873 C1877 1.429 . S
C1874 C1857 1.574 . S
C1874 H1868 0.949 . S
C1874 C1878 1.368 . S
C1875 C1856 1.429 . S
C1875 C1869 1.429 . S
C1875 C1876 1.523 . S
C1876 C1857 1.368 . S
C1876 C1870 1.368 . S
C1876 C1875 1.523 . S
C1877 C1861 1.429 . S
C1877 C1873 1.429 . S
C1877 C1878 1.523 . S
C1878 C1862 1.368 . S
C1878 C1874 1.368 . S
C1878 C1877 1.523 . S
H1879 C1854 0.950 . S
H1880 C1856 0.950 . S
H1881 C1857 0.949 . S
H1882 C1859 0.950 . S
H1883 C1861 0.950 . S
C1884 C1885 1.349 . S
C1884 C1886 1.327 . S
C1884 H1909 0.950 . S
C1885 C1884 1.349 . S
C1885 C1901 1.349 . S
C1886 C1884 1.327 . S
C1886 C1905 1.429 . S
C1886 H1910 0.950 . S
C1887 C1904 1.574 . S
C1887 C1906 1.368 . S
C1887 H1911 0.949 . S
H1888 C1892 0.949 . S
C1889 C1890 1.349 . S
C1889 C1891 1.327 . S
C1889 H1912 0.950 . S
C1890 C1889 1.349 . S
C1890 C1902 1.349 . S
C1891 C1889 1.327 . S
C1891 C1907 1.429 . S
C1891 H1913 0.950 . S
C1892 H1888 0.949 . S
C1892 C1900 1.574 . S
C1892 C1908 1.368 . S
H1893 C1901 0.950 . S
H1894 C1899 0.950 . S
H1895 C1900 0.949 . S
H1896 C1902 0.950 . S
H1897 C1903 0.950 . S
H1898 C1904 0.949 . S
C1899 H1894 0.950 . S
C1899 C1901 1.327 . S
C1899 C1905 1.429 . S
C1900 C1892 1.574 . S
C1900 H1895 0.949 . S
C1900 C1906 1.368 . S
C1901 C1885 1.349 . S
C1901 H1893 0.950 . S
C1901 C1899 1.327 . S
C1902 C1890 1.349 . S
C1902 H1896 0.950 . S
C1902 C1903 1.327 . S
C1903 H1897 0.950 . S
C1903 C1902 1.327 . S
C1903 C1907 1.429 . S
C1904 C1887 1.574 . S
C1904 H1898 0.949 . S
C1904 C1908 1.368 . S
C1905 C1886 1.429 . S
C1905 C1899 1.429 . S
C1905 C1906 1.523 . S
C1906 C1887 1.368 . S
C1906 C1900 1.368 . S
C1906 C1905 1.523 . S
C1907 C1891 1.429 . S
C1907 C1903 1.429 . S
C1907 C1908 1.523 . S
C1908 C1892 1.368 . S
C1908 C1904 1.368 . S
C1908 C1907 1.523 . S
H1909 C1884 0.950 . S
H1910 C1886 0.950 . S
H1911 C1887 0.949 . S
H1912 C1889 0.950 . S
H1913 C1891 0.950 . S
C1914 C1915 1.349 . S
C1914 C1916 1.327 . S
C1914 H1939 0.950 . S
C1915 C1914 1.349 . S
C1915 C1931 1.349 . S
C1916 C1914 1.327 . S
C1916 C1935 1.429 . S
C1916 H1940 0.950 . S
C1917 C1934 1.574 . S
C1917 C1936 1.368 . S
C1917 H1941 0.949 . S
H1918 C1922 0.949 . S
C1919 C1920 1.349 . S
C1919 C1921 1.327 . S
C1919 H1942 0.950 . S
C1920 C1919 1.349 . S
C1920 C1932 1.349 . S
C1921 C1919 1.327 . S
C1921 C1937 1.429 . S
C1921 H1943 0.950 . S
C1922 H1918 0.949 . S
C1922 C1930 1.574 . S
C1922 C1938 1.368 . S
H1923 C1931 0.950 . S
H1924 C1929 0.950 . S
H1925 C1930 0.949 . S
H1926 C1932 0.950 . S
H1927 C1933 0.950 . S
H1928 C1934 0.949 . S
C1929 H1924 0.950 . S
C1929 C1931 1.327 . S
C1929 C1935 1.429 . S
C1930 C1922 1.574 . S
C1930 H1925 0.949 . S
C1930 C1936 1.368 . S
C1931 C1915 1.349 . S
C1931 H1923 0.950 . S
C1931 C1929 1.327 . S
C1932 C1920 1.349 . S
C1932 H1926 0.950 . S
C1932 C1933 1.327 . S
C1933 H1927 0.950 . S
C1933 C1932 1.327 . S
C1933 C1937 1.429 . S
C1934 C1917 1.574 . S
C1934 H1928 0.949 . S
C1934 C1938 1.368 . S
C1935 C1916 1.429 . S
C1935 C1929 1.429 . S
C1935 C1936 1.523 . S
C1936 C1917 1.368 . S
C1936 C1930 1.368 . S
C1936 C1935 1.523 . S
C1937 C1921 1.429 . S
C1937 C1933 1.429 . S
C1937 C1938 1.523 . S
C1938 C1922 1.368 . S
C1938 C1934 1.368 . S
C1938 C1937 1.523 . S
H1939 C1914 0.950 . S
H1940 C1916 0.950 . S
H1941 C1917 0.949 . S
H1942 C1919 0.950 . S
H1943 C1921 0.950 . S
C1944 C1945 1.349 . S
C1944 C1946 1.327 . S
C1944 H1969 0.950 . S
C1945 C1944 1.349 . S
C1945 C1961 1.349 . S
C1946 C1944 1.327 . S
C1946 C1965 1.429 . S
C1946 H1970 0.950 . S
C1947 C1964 1.574 . S
C1947 C1966 1.368 . S
C1947 H1971 0.949 . S
H1948 C1952 0.949 . S
C1949 C1950 1.349 . S
C1949 C1951 1.327 . S
C1949 H1972 0.950 . S
C1950 C1949 1.349 . S
C1950 C1962 1.349 . S
C1951 C1949 1.327 . S
C1951 C1967 1.429 . S
C1951 H1973 0.950 . S
C1952 H1948 0.949 . S
C1952 C1960 1.574 . S
C1952 C1968 1.368 . S
H1953 C1961 0.950 . S
H1954 C1959 0.950 . S
H1955 C1960 0.949 . S
H1956 C1962 0.950 . S
H1957 C1963 0.950 . S
H1958 C1964 0.949 . S
C1959 H1954 0.950 . S
C1959 C1961 1.327 . S
C1959 C1965 1.429 . S
C1960 C1952 1.574 . S
C1960 H1955 0.949 . S
C1960 C1966 1.368 . S
C1961 C1945 1.349 . S
C1961 H1953 0.950 . S
C1961 C1959 1.327 . S
C1962 C1950 1.349 . S
C1962 H1956 0.950 . S
C1962 C1963 1.327 . S
C1963 H1957 0.950 . S
C1963 C1962 1.327 . S
C1963 C1967 1.429 . S
C1964 C1947 1.574 . S
C1964 H1958 0.949 . S
C1964 C1968 1.368 . S
C1965 C1946 1.429 . S
C1965 C1959 1.429 . S
C1965 C1966 1.523 . S
C1966 C1947 1.368 . S
C1966 C1960 1.368 . S
C1966 C1965 1.523 . S
C1967 C1951 1.429 . S
C1967 C1963 1.429 . S
C1967 C1968 1.523 . S
C1968 C1952 1.368 . S
C1968 C1964 1.368 . S
C1968 C1967 1.523 . S
H1969 C1944 0.950 . S
H1970 C1946 0.950 . S
H1971 C1947 0.949 . S
H1972 C1949 0.950 . S
H1973 C1951 0.950 . S
C1974 C1975 1.349 . S
C1974 C1976 1.327 . S
C1974 H1999 0.950 . S
C1975 C1974 1.349 . S
C1975 C1991 1.349 . S
C1976 C1974 1.327 . S
C1976 C1995 1.429 . S
C1976 H2000 0.950 . S
C1977 C1994 1.574 . S
C1977 C1996 1.368 . S
C1977 H2001 0.949 . S
H1978 C1982 0.949 . S
C1979 C1980 1.349 . S
C1979 C1981 1.327 . S
C1979 H2002 0.950 . S
C1980 C1979 1.349 . S
C1980 C1992 1.349 . S
C1981 C1979 1.327 . S
C1981 C1997 1.429 . S
C1981 H2003 0.950 . S
C1982 H1978 0.949 . S
C1982 C1990 1.574 . S
C1982 C1998 1.368 . S
H1983 C1991 0.950 . S
H1984 C1989 0.950 . S
H1985 C1990 0.949 . S
H1986 C1992 0.950 . S
H1987 C1993 0.950 . S
H1988 C1994 0.949 . S
C1989 H1984 0.950 . S
C1989 C1991 1.327 . S
C1989 C1995 1.429 . S
C1990 C1982 1.574 . S
C1990 H1985 0.949 . S
C1990 C1996 1.368 . S
C1991 C1975 1.349 . S
C1991 H1983 0.950 . S
C1991 C1989 1.327 . S
C1992 C1980 1.349 . S
C1992 H1986 0.950 . S
C1992 C1993 1.327 . S
C1993 H1987 0.950 . S
C1993 C1992 1.327 . S
C1993 C1997 1.429 . S
C1994 C1977 1.574 . S
C1994 H1988 0.949 . S
C1994 C1998 1.368 . S
C1995 C1976 1.429 . S
C1995 C1989 1.429 . S
C1995 C1996 1.523 . S
C1996 C1977 1.368 . S
C1996 C1990 1.368 . S
C1996 C1995 1.523 . S
C1997 C1981 1.429 . S
C1997 C1993 1.429 . S
C1997 C1998 1.523 . S
C1998 C1982 1.368 . S
C1998 C1994 1.368 . S
C1998 C1997 1.523 . S
H1999 C1974 0.950 . S
H2000 C1976 0.950 . S
H2001 C1977 0.949 . S
H2002 C1979 0.950 . S
H2003 C1981 0.950 . S
C2004 C2005 1.349 . S
C2004 C2006 1.327 . S
C2004 H2029 0.950 . S
C2005 C2004 1.349 . S
C2005 C2021 1.349 . S
C2006 C2004 1.327 . S
C2006 C2025 1.429 . S
C2006 H2030 0.950 . S
C2007 C2024 1.574 . S
C2007 C2026 1.368 . S
C2007 H2031 0.949 . S
H2008 C2012 0.949 . S
C2009 C2010 1.349 . S
C2009 C2011 1.327 . S
C2009 H2032 0.950 . S
C2010 C2009 1.349 . S
C2010 C2022 1.349 . S
C2011 C2009 1.327 . S
C2011 C2027 1.429 . S
C2011 H2033 0.950 . S
C2012 H2008 0.949 . S
C2012 C2020 1.574 . S
C2012 C2028 1.368 . S
H2013 C2021 0.950 . S
H2014 C2019 0.950 . S
H2015 C2020 0.949 . S
H2016 C2022 0.950 . S
H2017 C2023 0.950 . S
H2018 C2024 0.949 . S
C2019 H2014 0.950 . S
C2019 C2021 1.327 . S
C2019 C2025 1.429 . S
C2020 C2012 1.574 . S
C2020 H2015 0.949 . S
C2020 C2026 1.368 . S
C2021 C2005 1.349 . S
C2021 H2013 0.950 . S
C2021 C2019 1.327 . S
C2022 C2010 1.349 . S
C2022 H2016 0.950 . S
C2022 C2023 1.327 . S
C2023 H2017 0.950 . S
C2023 C2022 1.327 . S
C2023 C2027 1.429 . S
C2024 C2007 1.574 . S
C2024 H2018 0.949 . S
C2024 C2028 1.368 . S
C2025 C2006 1.429 . S
C2025 C2019 1.429 . S
C2025 C2026 1.523 . S
C2026 C2007 1.368 . S
C2026 C2020 1.368 . S
C2026 C2025 1.523 . S
C2027 C2011 1.429 . S
C2027 C2023 1.429 . S
C2027 C2028 1.523 . S
C2028 C2012 1.368 . S
C2028 C2024 1.368 . S
C2028 C2027 1.523 . S
H2029 C2004 0.950 . S
H2030 C2006 0.950 . S
H2031 C2007 0.949 . S
H2032 C2009 0.950 . S
H2033 C2011 0.950 . S
C2034 C2035 1.349 . S
C2034 C2036 1.327 . S
C2034 H2059 0.950 . S
C2035 C2034 1.349 . S
C2035 C2051 1.349 . S
C2036 C2034 1.327 . S
C2036 C2055 1.429 . S
C2036 H2060 0.950 . S
C2037 C2054 1.574 . S
C2037 C2056 1.368 . S
C2037 H2061 0.949 . S
H2038 C2042 0.949 . S
C2039 C2040 1.349 . S
C2039 C2041 1.327 . S
C2039 H2062 0.950 . S
C2040 C2039 1.349 . S
C2040 C2052 1.349 . S
C2041 C2039 1.327 . S
C2041 C2057 1.429 . S
C2041 H2063 0.950 . S
C2042 H2038 0.949 . S
C2042 C2050 1.574 . S
C2042 C2058 1.368 . S
H2043 C2051 0.950 . S
H2044 C2049 0.950 . S
H2045 C2050 0.949 . S
H2046 C2052 0.950 . S
H2047 C2053 0.950 . S
H2048 C2054 0.949 . S
C2049 H2044 0.950 . S
C2049 C2051 1.327 . S
C2049 C2055 1.429 . S
C2050 C2042 1.574 . S
C2050 H2045 0.949 . S
C2050 C2056 1.368 . S
C2051 C2035 1.349 . S
C2051 H2043 0.950 . S
C2051 C2049 1.327 . S
C2052 C2040 1.349 . S
C2052 H2046 0.950 . S
C2052 C2053 1.327 . S
C2053 H2047 0.950 . S
C2053 C2052 1.327 . S
C2053 C2057 1.429 . S
C2054 C2037 1.574 . S
C2054 H2048 0.949 . S
C2054 C2058 1.368 . S
C2055 C2036 1.429 . S
C2055 C2049 1.429 . S
C2055 C2056 1.523 . S
C2056 C2037 1.368 . S
C2056 C2050 1.368 . S
C2056 C2055 1.523 . S
C2057 C2041 1.429 . S
C2057 C2053 1.429 . S
C2057 C2058 1.523 . S
C2058 C2042 1.368 . S
C2058 C2054 1.368 . S
C2058 C2057 1.523 . S
H2059 C2034 0.950 . S
H2060 C2036 0.950 . S
H2061 C2037 0.949 . S
H2062 C2039 0.950 . S
H2063 C2041 0.950 . S
C2064 C2065 1.349 . S
C2064 C2066 1.327 . S
C2064 H2089 0.950 . S
C2065 C2064 1.349 . S
C2065 C2081 1.349 . S
C2066 C2064 1.327 . S
C2066 C2085 1.429 . S
C2066 H2090 0.950 . S
C2067 C2084 1.574 . S
C2067 C2086 1.368 . S
C2067 H2091 0.949 . S
H2068 C2072 0.949 . S
C2069 C2070 1.349 . S
C2069 C2071 1.327 . S
C2069 H2092 0.950 . S
C2070 C2069 1.349 . S
C2070 C2082 1.349 . S
C2071 C2069 1.327 . S
C2071 C2087 1.429 . S
C2071 H2093 0.950 . S
C2072 H2068 0.949 . S
C2072 C2080 1.574 . S
C2072 C2088 1.368 . S
H2073 C2081 0.950 . S
H2074 C2079 0.950 . S
H2075 C2080 0.949 . S
H2076 C2082 0.950 . S
H2077 C2083 0.950 . S
H2078 C2084 0.949 . S
C2079 H2074 0.950 . S
C2079 C2081 1.327 . S
C2079 C2085 1.429 . S
C2080 C2072 1.574 . S
C2080 H2075 0.949 . S
C2080 C2086 1.368 . S
C2081 C2065 1.349 . S
C2081 H2073 0.950 . S
C2081 C2079 1.327 . S
C2082 C2070 1.349 . S
C2082 H2076 0.950 . S
C2082 C2083 1.327 . S
C2083 H2077 0.950 . S
C2083 C2082 1.327 . S
C2083 C2087 1.429 . S
C2084 C2067 1.574 . S
C2084 H2078 0.949 . S
C2084 C2088 1.368 . S
C2085 C2066 1.429 . S
C2085 C2079 1.429 . S
C2085 C2086 1.523 . S
C2086 C2067 1.368 . S
C2086 C2080 1.368 . S
C2086 C2085 1.523 . S
C2087 C2071 1.429 . S
C2087 C2083 1.429 . S
C2087 C2088 1.523 . S
C2088 C2072 1.368 . S
C2088 C2084 1.368 . S
C2088 C2087 1.523 . S
H2089 C2064 0.950 . S
H2090 C2066 0.950 . S
H2091 C2067 0.949 . S
H2092 C2069 0.950 . S
H2093 C2071 0.950 . S
C2094 C2095 1.349 . S
C2094 C2096 1.327 . S
C2094 H2119 0.950 . S
C2095 C2094 1.349 . S
C2095 C2111 1.349 . S
C2096 C2094 1.327 . S
C2096 C2115 1.429 . S
C2096 H2120 0.950 . S
C2097 C2114 1.574 . S
C2097 C2116 1.368 . S
C2097 H2121 0.949 . S
H2098 C2102 0.949 . S
C2099 C2100 1.349 . S
C2099 C2101 1.327 . S
C2099 H2122 0.950 . S
C2100 C2099 1.349 . S
C2100 C2112 1.349 . S
C2101 C2099 1.327 . S
C2101 C2117 1.429 . S
C2101 H2123 0.950 . S
C2102 H2098 0.949 . S
C2102 C2110 1.574 . S
C2102 C2118 1.368 . S
H2103 C2111 0.950 . S
H2104 C2109 0.950 . S
H2105 C2110 0.949 1_565 S
H2106 C2112 0.950 . S
H2107 C2113 0.950 . S
H2108 C2114 0.949 . S
C2109 H2104 0.950 . S
C2109 C2111 1.327 . S
C2109 C2115 1.429 . S
C2110 C2102 1.574 . S
C2110 H2105 0.949 1_545 S
C2110 C2116 1.368 . S
C2111 C2095 1.349 . S
C2111 H2103 0.950 . S
C2111 C2109 1.327 . S
C2112 C2100 1.349 . S
C2112 H2106 0.950 . S
C2112 C2113 1.327 . S
C2113 H2107 0.950 . S
C2113 C2112 1.327 . S
C2113 C2117 1.429 . S
C2114 C2097 1.574 . S
C2114 H2108 0.949 . S
C2114 C2118 1.368 . S
C2115 C2096 1.429 . S
C2115 C2109 1.429 . S
C2115 C2116 1.523 1_565 S
C2116 C2097 1.368 . S
C2116 C2110 1.368 . S
C2116 C2115 1.523 1_545 S
C2117 C2101 1.429 . S
C2117 C2113 1.429 . S
C2117 C2118 1.523 . S
C2118 C2102 1.368 . S
C2118 C2114 1.368 . S
C2118 C2117 1.523 . S
H2119 C2094 0.950 . S
H2120 C2096 0.950 . S
H2121 C2097 0.949 . S
H2122 C2099 0.950 . S
H2123 C2101 0.950 . S
C2124 C2125 1.349 . S
C2124 C2126 1.327 . S
C2124 H2149 0.950 . S
C2125 C2124 1.349 . S
C2125 C2141 1.349 . S
C2126 C2124 1.327 . S
C2126 C2145 1.429 . S
C2126 H2150 0.950 . S
C2127 C2144 1.574 . S
C2127 C2146 1.368 . S
C2127 H2151 0.949 . S
H2128 C2132 0.949 . S
C2129 C2130 1.349 . S
C2129 C2131 1.327 . S
C2129 H2152 0.950 . S
C2130 C2129 1.349 . S
C2130 C2142 1.349 . S
C2131 C2129 1.327 . S
C2131 C2147 1.429 . S
C2131 H2153 0.950 . S
C2132 H2128 0.949 . S
C2132 C2140 1.574 . S
C2132 C2148 1.368 . S
H2133 C2141 0.950 . S
H2134 C2139 0.950 . S
H2135 C2140 0.949 . S
H2136 C2142 0.950 . S
H2137 C2143 0.950 . S
H2138 C2144 0.949 . S
C2139 H2134 0.950 . S
C2139 C2141 1.327 . S
C2139 C2145 1.429 . S
C2140 C2132 1.574 . S
C2140 H2135 0.949 . S
C2140 C2146 1.368 . S
C2141 C2125 1.349 . S
C2141 H2133 0.950 . S
C2141 C2139 1.327 . S
C2142 C2130 1.349 . S
C2142 H2136 0.950 . S
C2142 C2143 1.327 . S
C2143 H2137 0.950 . S
C2143 C2142 1.327 . S
C2143 C2147 1.429 . S
C2144 C2127 1.574 . S
C2144 H2138 0.949 . S
C2144 C2148 1.368 . S
C2145 C2126 1.429 . S
C2145 C2139 1.429 . S
C2145 C2146 1.523 . S
C2146 C2127 1.368 . S
C2146 C2140 1.368 . S
C2146 C2145 1.523 . S
C2147 C2131 1.429 . S
C2147 C2143 1.429 . S
C2147 C2148 1.523 . S
C2148 C2132 1.368 . S
C2148 C2144 1.368 . S
C2148 C2147 1.523 . S
H2149 C2124 0.950 . S
H2150 C2126 0.950 . S
H2151 C2127 0.949 . S
H2152 C2129 0.950 . S
H2153 C2131 0.950 . S
C2154 C2155 1.349 . S
C2154 C2156 1.327 . S
C2154 H2179 0.950 . S
C2155 C2154 1.349 . S
C2155 C2171 1.349 . S
C2156 C2154 1.327 . S
C2156 C2175 1.429 . S
C2156 H2180 0.950 . S
C2157 C2174 1.574 . S
C2157 C2176 1.368 . S
C2157 H2181 0.949 . S
H2158 C2162 0.949 . S
C2159 C2160 1.349 . S
C2159 C2161 1.327 . S
C2159 H2182 0.950 . S
C2160 C2159 1.349 . S
C2160 C2172 1.349 . S
C2161 C2159 1.327 . S
C2161 C2177 1.429 . S
C2161 H2183 0.950 . S
C2162 H2158 0.949 . S
C2162 C2170 1.574 . S
C2162 C2178 1.368 . S
H2163 C2171 0.950 . S
H2164 C2169 0.950 . S
H2165 C2170 0.949 . S
H2166 C2172 0.950 . S
H2167 C2173 0.950 . S
H2168 C2174 0.949 . S
C2169 H2164 0.950 . S
C2169 C2171 1.327 . S
C2169 C2175 1.429 . S
C2170 C2162 1.574 . S
C2170 H2165 0.949 . S
C2170 C2176 1.368 . S
C2171 C2155 1.349 . S
C2171 H2163 0.950 . S
C2171 C2169 1.327 . S
C2172 C2160 1.349 . S
C2172 H2166 0.950 . S
C2172 C2173 1.327 . S
C2173 H2167 0.950 . S
C2173 C2172 1.327 . S
C2173 C2177 1.429 . S
C2174 C2157 1.574 . S
C2174 H2168 0.949 . S
C2174 C2178 1.368 . S
C2175 C2156 1.429 . S
C2175 C2169 1.429 . S
C2175 C2176 1.523 . S
C2176 C2157 1.368 . S
C2176 C2170 1.368 . S
C2176 C2175 1.523 . S
C2177 C2161 1.429 . S
C2177 C2173 1.429 . S
C2177 C2178 1.523 . S
C2178 C2162 1.368 . S
C2178 C2174 1.368 . S
C2178 C2177 1.523 . S
H2179 C2154 0.950 . S
H2180 C2156 0.950 . S
H2181 C2157 0.949 . S
H2182 C2159 0.950 . S
H2183 C2161 0.950 . S
C2184 C2185 1.349 . S
C2184 C2186 1.327 . S
C2184 H2209 0.950 . S
C2185 C2184 1.349 . S
C2185 C2201 1.349 . S
C2186 C2184 1.327 . S
C2186 C2205 1.429 . S
C2186 H2210 0.950 . S
C2187 C2204 1.574 . S
C2187 C2206 1.368 . S
C2187 H2211 0.949 . S
H2188 C2192 0.949 . S
C2189 C2190 1.349 . S
C2189 C2191 1.327 . S
C2189 H2212 0.950 . S
C2190 C2189 1.349 . S
C2190 C2202 1.349 . S
C2191 C2189 1.327 . S
C2191 C2207 1.429 . S
C2191 H2213 0.950 . S
C2192 H2188 0.949 . S
C2192 C2200 1.574 . S
C2192 C2208 1.368 . S
H2193 C2201 0.950 . S
H2194 C2199 0.950 . S
H2195 C2200 0.949 . S
H2196 C2202 0.950 . S
H2197 C2203 0.950 . S
H2198 C2204 0.949 . S
C2199 H2194 0.950 . S
C2199 C2201 1.327 . S
C2199 C2205 1.429 . S
C2200 C2192 1.574 . S
C2200 H2195 0.949 . S
C2200 C2206 1.368 . S
C2201 C2185 1.349 . S
C2201 H2193 0.950 . S
C2201 C2199 1.327 . S
C2202 C2190 1.349 . S
C2202 H2196 0.950 . S
C2202 C2203 1.327 . S
C2203 H2197 0.950 . S
C2203 C2202 1.327 . S
C2203 C2207 1.429 . S
C2204 C2187 1.574 . S
C2204 H2198 0.949 . S
C2204 C2208 1.368 . S
C2205 C2186 1.429 . S
C2205 C2199 1.429 . S
C2205 C2206 1.523 . S
C2206 C2187 1.368 . S
C2206 C2200 1.368 . S
C2206 C2205 1.523 . S
C2207 C2191 1.429 . S
C2207 C2203 1.429 . S
C2207 C2208 1.523 . S
C2208 C2192 1.368 . S
C2208 C2204 1.368 . S
C2208 C2207 1.523 . S
H2209 C2184 0.950 . S
H2210 C2186 0.950 . S
H2211 C2187 0.949 . S
H2212 C2189 0.950 . S
H2213 C2191 0.950 . S
C2214 C2215 1.349 . S
C2214 C2216 1.327 . S
C2214 H2239 0.950 . S
C2215 C2214 1.349 . S
C2215 C2231 1.349 . S
C2216 C2214 1.327 . S
C2216 C2235 1.429 . S
C2216 H2240 0.950 . S
C2217 C2234 1.574 . S
C2217 C2236 1.368 . S
C2217 H2241 0.903 1_545 S
H2218 C2222 0.949 . S
C2219 C2220 1.349 . S
C2219 C2221 1.327 . S
C2219 H2242 0.950 . S
C2220 C2219 1.349 . S
C2220 C2232 1.349 . S
C2221 C2219 1.327 . S
C2221 C2237 1.429 . S
C2221 H2243 0.950 . S
C2222 H2218 0.949 . S
C2222 C2230 1.574 . S
C2222 C2238 1.368 . S
H2223 C2231 0.950 . S
H2224 C2229 0.950 . S
H2225 C2230 0.949 . S
H2226 C2232 0.950 . S
H2227 C2233 0.950 . S
H2228 C2234 0.949 . S
C2229 H2224 0.950 . S
C2229 C2231 1.327 . S
C2229 C2235 1.429 . S
C2230 C2222 1.574 . S
C2230 H2225 0.949 . S
C2230 C2236 1.368 . S
C2231 C2215 1.349 . S
C2231 H2223 0.950 . S
C2231 C2229 1.327 . S
C2232 C2220 1.349 . S
C2232 H2226 0.950 . S
C2232 C2233 1.327 . S
C2233 H2227 0.950 . S
C2233 C2232 1.327 . S
C2233 C2237 1.429 . S
C2234 C2217 1.574 . S
C2234 H2228 0.949 . S
C2234 C2238 1.368 . S
C2235 C2216 1.429 . S
C2235 C2229 1.429 . S
C2235 C2236 1.523 1_565 S
C2236 C2217 1.368 . S
C2236 C2230 1.368 . S
C2236 C2235 1.523 1_545 S
C2237 C2221 1.429 . S
C2237 C2233 1.429 . S
C2237 C2238 1.523 . S
C2238 C2222 1.368 . S
C2238 C2234 1.368 . S
C2238 C2237 1.523 . S
H2239 C2214 0.950 . S
H2240 C2216 0.950 . S
H2241 C2217 0.903 1_565 S
H2242 C2219 0.950 . S
H2243 C2221 0.950 . S
C2244 C2245 1.349 . S
C2244 C2246 1.327 . S
C2244 H2269 0.950 . S
C2245 C2244 1.349 . S
C2245 C2261 1.349 . S
C2246 C2244 1.327 . S
C2246 C2265 1.429 . S
C2246 H2270 0.950 . S
C2247 C2264 1.574 . S
C2247 C2266 1.368 . S
C2247 H2271 0.949 . S
H2248 C2252 0.949 . S
C2249 C2250 1.349 . S
C2249 C2251 1.327 . S
C2249 H2272 0.950 . S
C2250 C2249 1.349 . S
C2250 C2262 1.349 . S
C2251 C2249 1.327 . S
C2251 C2267 1.429 . S
C2251 H2273 0.950 . S
C2252 H2248 0.949 . S
C2252 C2260 1.574 . S
C2252 C2268 1.368 . S
H2253 C2261 0.950 . S
H2254 C2259 0.950 . S
H2255 C2260 0.949 . S
H2256 C2262 0.950 . S
H2257 C2263 0.950 . S
H2258 C2264 0.949 . S
C2259 H2254 0.950 . S
C2259 C2261 1.327 . S
C2259 C2265 1.429 . S
C2260 C2252 1.574 . S
C2260 H2255 0.949 . S
C2260 C2266 1.368 . S
C2261 C2245 1.349 . S
C2261 H2253 0.950 . S
C2261 C2259 1.327 . S
C2262 C2250 1.349 . S
C2262 H2256 0.950 . S
C2262 C2263 1.327 . S
C2263 H2257 0.950 . S
C2263 C2262 1.327 . S
C2263 C2267 1.429 . S
C2264 C2247 1.574 . S
C2264 H2258 0.949 . S
C2264 C2268 1.368 . S
C2265 C2246 1.429 . S
C2265 C2259 1.429 . S
C2265 C2266 1.523 . S
C2266 C2247 1.368 . S
C2266 C2260 1.368 . S
C2266 C2265 1.523 . S
C2267 C2251 1.429 . S
C2267 C2263 1.429 . S
C2267 C2268 1.523 . S
C2268 C2252 1.368 . S
C2268 C2264 1.368 . S
C2268 C2267 1.523 . S
H2269 C2244 0.950 . S
H2270 C2246 0.950 . S
H2271 C2247 0.949 . S
H2272 C2249 0.950 . S
H2273 C2251 0.950 . S
C2274 C2275 1.349 . S
C2274 C2276 1.327 . S
C2274 H2299 0.950 . S
C2275 C2274 1.349 . S
C2275 C2291 1.349 . S
C2276 C2274 1.327 . S
C2276 C2295 1.429 . S
C2276 H2300 0.950 . S
C2277 C2294 1.574 . S
C2277 C2296 1.368 . S
C2277 H2301 0.949 . S
H2278 C2282 0.949 . S
C2279 C2280 1.349 . S
C2279 C2281 1.327 . S
C2279 H2302 0.950 . S
C2280 C2279 1.349 . S
C2280 C2292 1.349 . S
C2281 C2279 1.327 . S
C2281 C2297 1.429 . S
C2281 H2303 0.950 . S
C2282 H2278 0.949 . S
C2282 C2290 1.574 . S
C2282 C2298 1.368 . S
H2283 C2291 0.950 . S
H2284 C2289 0.950 . S
H2285 C2290 0.949 . S
H2286 C2292 0.950 . S
H2287 C2293 0.950 . S
H2288 C2294 0.949 . S
C2289 H2284 0.950 . S
C2289 C2291 1.327 . S
C2289 C2295 1.429 . S
C2290 C2282 1.574 . S
C2290 H2285 0.949 . S
C2290 C2296 1.368 . S
C2291 C2275 1.349 . S
C2291 H2283 0.950 . S
C2291 C2289 1.327 . S
C2292 C2280 1.349 . S
C2292 H2286 0.950 . S
C2292 C2293 1.327 . S
C2293 H2287 0.950 . S
C2293 C2292 1.327 . S
C2293 C2297 1.429 . S
C2294 C2277 1.574 . S
C2294 H2288 0.949 . S
C2294 C2298 1.368 . S
C2295 C2276 1.429 . S
C2295 C2289 1.429 . S
C2295 C2296 1.523 . S
C2296 C2277 1.368 . S
C2296 C2290 1.368 . S
C2296 C2295 1.523 . S
C2297 C2281 1.429 . S
C2297 C2293 1.429 . S
C2297 C2298 1.523 . S
C2298 C2282 1.368 . S
C2298 C2294 1.368 . S
C2298 C2297 1.523 . S
H2299 C2274 0.950 . S
H2300 C2276 0.950 . S
H2301 C2277 0.949 . S
H2302 C2279 0.950 . S
H2303 C2281 0.950 . S
C2304 C2305 1.349 . S
C2304 C2306 1.327 . S
C2304 H2329 0.950 . S
C2305 C2304 1.349 . S
C2305 C2321 1.349 . S
C2306 C2304 1.327 . S
C2306 C2325 1.429 . S
C2306 H2330 0.950 . S
C2307 C2324 1.574 . S
C2307 C2326 1.368 . S
C2307 H2331 0.949 . S
H2308 C2312 0.949 . S
C2309 C2310 1.349 . S
C2309 C2311 1.327 . S
C2309 H2332 0.950 . S
C2310 C2309 1.349 . S
C2310 C2322 1.349 . S
C2311 C2309 1.327 . S
C2311 C2327 1.429 . S
C2311 H2333 0.950 . S
C2312 H2308 0.949 . S
C2312 C2320 1.574 . S
C2312 C2328 1.368 . S
H2313 C2321 0.950 . S
H2314 C2319 0.950 . S
H2315 C2320 0.949 . S
H2316 C2322 0.950 . S
H2317 C2323 0.950 . S
H2318 C2324 0.949 . S
C2319 H2314 0.950 . S
C2319 C2321 1.327 . S
C2319 C2325 1.429 . S
C2320 C2312 1.574 . S
C2320 H2315 0.949 . S
C2320 C2326 1.368 . S
C2321 C2305 1.349 . S
C2321 H2313 0.950 . S
C2321 C2319 1.327 . S
C2322 C2310 1.349 . S
C2322 H2316 0.950 . S
C2322 C2323 1.327 . S
C2323 H2317 0.950 . S
C2323 C2322 1.327 . S
C2323 C2327 1.429 . S
C2324 C2307 1.574 . S
C2324 H2318 0.949 . S
C2324 C2328 1.368 . S
C2325 C2306 1.429 . S
C2325 C2319 1.429 . S
C2325 C2326 1.523 . S
C2326 C2307 1.368 . S
C2326 C2320 1.368 . S
C2326 C2325 1.523 . S
C2327 C2311 1.429 . S
C2327 C2323 1.429 . S
C2327 C2328 1.523 . S
C2328 C2312 1.368 . S
C2328 C2324 1.368 . S
C2328 C2327 1.523 . S
H2329 C2304 0.950 . S
H2330 C2306 0.950 . S
H2331 C2307 0.949 . S
H2332 C2309 0.950 . S
H2333 C2311 0.950 . S
C2334 C2335 1.349 . S
C2334 C2336 1.327 . S
C2334 H2359 0.950 . S
C2335 C2334 1.349 . S
C2335 C2351 1.349 . S
C2336 C2334 1.327 . S
C2336 C2355 1.429 . S
C2336 H2360 0.950 . S
C2337 C2354 1.574 . S
C2337 C2356 1.368 . S
C2337 H2361 0.949 . S
H2338 C2342 0.949 . S
C2339 C2340 1.349 . S
C2339 C2341 1.327 . S
C2339 H2362 0.950 . S
C2340 C2339 1.349 . S
C2340 C2352 1.349 . S
C2341 C2339 1.327 . S
C2341 C2357 1.429 . S
C2341 H2363 0.950 . S
C2342 H2338 0.949 . S
C2342 C2350 1.574 . S
C2342 C2358 1.368 . S
H2343 C2351 0.950 . S
H2344 C2349 0.950 . S
H2345 C2350 0.949 . S
H2346 C2352 0.950 . S
H2347 C2353 0.950 . S
H2348 C2354 0.949 . S
C2349 H2344 0.950 . S
C2349 C2351 1.327 . S
C2349 C2355 1.429 . S
C2350 C2342 1.574 . S
C2350 H2345 0.949 . S
C2350 C2356 1.368 . S
C2351 C2335 1.349 . S
C2351 H2343 0.950 . S
C2351 C2349 1.327 . S
C2352 C2340 1.349 . S
C2352 H2346 0.950 . S
C2352 C2353 1.327 . S
C2353 H2347 0.950 . S
C2353 C2352 1.327 . S
C2353 C2357 1.429 . S
C2354 C2337 1.574 . S
C2354 H2348 0.949 . S
C2354 C2358 1.368 . S
C2355 C2336 1.429 . S
C2355 C2349 1.429 . S
C2355 C2356 1.523 . S
C2356 C2337 1.368 . S
C2356 C2350 1.368 . S
C2356 C2355 1.523 . S
C2357 C2341 1.429 . S
C2357 C2353 1.429 . S
C2357 C2358 1.523 . S
C2358 C2342 1.368 . S
C2358 C2354 1.368 . S
C2358 C2357 1.523 . S
H2359 C2334 0.950 . S
H2360 C2336 0.950 . S
H2361 C2337 0.949 . S
H2362 C2339 0.950 . S
H2363 C2341 0.950 . S
C2364 C2365 1.349 . S
C2364 C2366 1.327 . S
C2364 H2389 0.950 . S
C2365 C2364 1.349 . S
C2365 C2381 1.349 . S
C2366 C2364 1.327 . S
C2366 C2385 1.429 . S
C2366 H2390 0.950 . S
C2367 C2384 1.574 . S
C2367 C2386 1.368 . S
C2367 H2391 0.949 . S
H2368 C2372 0.949 . S
C2369 C2370 1.349 . S
C2369 C2371 1.327 . S
C2369 H2392 0.950 . S
C2370 C2369 1.349 . S
C2370 C2382 1.349 . S
C2371 C2369 1.327 . S
C2371 C2387 1.429 . S
C2371 H2393 0.950 . S
C2372 H2368 0.949 . S
C2372 C2380 1.574 . S
C2372 C2388 1.368 . S
H2373 C2381 0.950 . S
H2374 C2379 0.950 . S
H2375 C2380 0.949 . S
H2376 C2382 0.950 . S
H2377 C2383 0.950 . S
H2378 C2384 0.949 . S
C2379 H2374 0.950 . S
C2379 C2381 1.327 . S
C2379 C2385 1.429 . S
C2380 C2372 1.574 . S
C2380 H2375 0.949 . S
C2380 C2386 1.368 . S
C2381 C2365 1.349 . S
C2381 H2373 0.950 . S
C2381 C2379 1.327 . S
C2382 C2370 1.349 . S
C2382 H2376 0.950 . S
C2382 C2383 1.327 . S
C2383 H2377 0.950 . S
C2383 C2382 1.327 . S
C2383 C2387 1.429 . S
C2384 C2367 1.574 . S
C2384 H2378 0.949 . S
C2384 C2388 1.368 . S
C2385 C2366 1.429 . S
C2385 C2379 1.429 . S
C2385 C2386 1.523 . S
C2386 C2367 1.368 . S
C2386 C2380 1.368 . S
C2386 C2385 1.523 . S
C2387 C2371 1.429 . S
C2387 C2383 1.429 . S
C2387 C2388 1.523 . S
C2388 C2372 1.368 . S
C2388 C2384 1.368 . S
C2388 C2387 1.523 . S
H2389 C2364 0.950 . S
H2390 C2366 0.950 . S
H2391 C2367 0.949 . S
H2392 C2369 0.950 . S
H2393 C2371 0.950 . S
C2394 C2395 1.349 . S
C2394 C2396 1.327 . S
C2394 H2419 0.950 . S
C2395 C2394 1.349 . S
C2395 C2411 1.349 . S
C2396 C2394 1.327 . S
C2396 C2415 1.429 . S
C2396 H2420 0.950 . S
C2397 C2414 1.574 . S
C2397 C2416 1.368 . S
C2397 H2421 0.949 . S
H2398 C2402 0.949 . S
C2399 C2400 1.349 . S
C2399 C2401 1.327 . S
C2399 H2422 0.950 . S
C2400 C2399 1.349 . S
C2400 C2412 1.349 . S
C2401 C2399 1.327 . S
C2401 C2417 1.429 . S
C2401 H2423 0.950 . S
C2402 H2398 0.949 . S
C2402 C2410 1.574 . S
C2402 C2418 1.368 . S
H2403 C2411 0.950 . S
H2404 C2409 0.950 . S
H2405 C2410 0.949 . S
H2406 C2412 0.950 . S
H2407 C2413 0.950 . S
H2408 C2414 0.949 . S
C2409 H2404 0.950 . S
C2409 C2411 1.327 . S
C2409 C2415 1.429 . S
C2410 C2402 1.574 . S
C2410 H2405 0.949 . S
C2410 C2416 1.368 . S
C2411 C2395 1.349 . S
C2411 H2403 0.950 . S
C2411 C2409 1.327 . S
C2412 C2400 1.349 . S
C2412 H2406 0.950 . S
C2412 C2413 1.327 . S
C2413 H2407 0.950 . S
C2413 C2412 1.327 . S
C2413 C2417 1.429 . S
C2414 C2397 1.574 . S
C2414 H2408 0.949 . S
C2414 C2418 1.368 . S
C2415 C2396 1.429 . S
C2415 C2409 1.429 . S
C2415 C2416 1.523 . S
C2416 C2397 1.368 . S
C2416 C2410 1.368 . S
C2416 C2415 1.523 . S
C2417 C2401 1.429 . S
C2417 C2413 1.429 . S
C2417 C2418 1.523 . S
C2418 C2402 1.368 . S
C2418 C2414 1.368 . S
C2418 C2417 1.523 . S
H2419 C2394 0.950 . S
H2420 C2396 0.950 . S
H2421 C2397 0.949 . S
H2422 C2399 0.950 . S
H2423 C2401 0.950 . S
C2424 C2425 1.349 . S
C2424 C2426 1.327 . S
C2424 H2449 0.950 . S
C2425 C2424 1.349 . S
C2425 C2441 1.349 . S
C2426 C2424 1.327 . S
C2426 C2445 1.429 . S
C2426 H2450 0.950 . S
C2427 C2444 1.574 . S
C2427 C2446 1.368 . S
C2427 H2451 0.949 . S
H2428 C2432 0.949 . S
C2429 C2430 1.349 . S
C2429 C2431 1.327 . S
C2429 H2452 0.950 . S
C2430 C2429 1.349 . S
C2430 C2442 1.349 . S
C2431 C2429 1.327 . S
C2431 C2447 1.429 . S
C2431 H2453 0.950 . S
C2432 H2428 0.949 . S
C2432 C2440 1.574 . S
C2432 C2448 1.368 . S
H2433 C2441 0.950 . S
H2434 C2439 0.950 . S
H2435 C2440 0.949 1_455 S
H2436 C2442 0.950 . S
H2437 C2443 0.950 . S
H2438 C2444 0.949 . S
C2439 H2434 0.950 . S
C2439 C2441 1.327 . S
C2439 C2445 1.429 . S
C2440 C2432 1.574 . S
C2440 H2435 0.949 1_655 S
C2440 C2446 1.368 . S
C2441 C2425 1.349 . S
C2441 H2433 0.950 . S
C2441 C2439 1.327 . S
C2442 C2430 1.349 . S
C2442 H2436 0.950 . S
C2442 C2443 1.327 . S
C2443 H2437 0.950 . S
C2443 C2442 1.327 . S
C2443 C2447 1.429 . S
C2444 C2427 1.574 . S
C2444 H2438 0.949 . S
C2444 C2448 1.368 . S
C2445 C2426 1.429 . S
C2445 C2439 1.429 . S
C2445 C2446 1.523 1_455 S
C2446 C2427 1.368 . S
C2446 C2440 1.368 . S
C2446 C2445 1.523 1_655 S
C2447 C2431 1.429 . S
C2447 C2443 1.429 . S
C2447 C2448 1.523 . S
C2448 C2432 1.368 . S
C2448 C2444 1.368 . S
C2448 C2447 1.523 . S
H2449 C2424 0.950 . S
H2450 C2426 0.950 . S
H2451 C2427 0.949 . S
H2452 C2429 0.950 . S
H2453 C2431 0.950 . S
C2454 C2455 1.349 . S
C2454 C2456 1.327 . S
C2454 H2479 0.950 . S
C2455 C2454 1.349 . S
C2455 C2471 1.349 . S
C2456 C2454 1.327 . S
C2456 C2475 1.429 . S
C2456 H2480 0.950 . S
C2457 C2474 1.574 . S
C2457 C2476 1.368 . S
C2457 H2481 0.949 . S
H2458 C2462 0.949 . S
C2459 C2460 1.349 . S
C2459 C2461 1.327 . S
C2459 H2482 0.950 . S
C2460 C2459 1.349 . S
C2460 C2472 1.349 . S
C2461 C2459 1.327 . S
C2461 C2477 1.429 . S
C2461 H2483 0.950 . S
C2462 H2458 0.949 . S
C2462 C2470 1.574 . S
C2462 C2478 1.368 . S
H2463 C2471 0.950 . S
H2464 C2469 0.950 . S
H2465 C2470 0.949 . S
H2466 C2472 0.950 . S
H2467 C2473 0.950 . S
H2468 C2474 0.949 . S
C2469 H2464 0.950 . S
C2469 C2471 1.327 . S
C2469 C2475 1.429 . S
C2470 C2462 1.574 . S
C2470 H2465 0.949 . S
C2470 C2476 1.368 . S
C2471 C2455 1.349 . S
C2471 H2463 0.950 . S
C2471 C2469 1.327 . S
C2472 C2460 1.349 . S
C2472 H2466 0.950 . S
C2472 C2473 1.327 . S
C2473 H2467 0.950 . S
C2473 C2472 1.327 . S
C2473 C2477 1.429 . S
C2474 C2457 1.574 . S
C2474 H2468 0.949 . S
C2474 C2478 1.368 . S
C2475 C2456 1.429 . S
C2475 C2469 1.429 . S
C2475 C2476 1.523 . S
C2476 C2457 1.368 . S
C2476 C2470 1.368 . S
C2476 C2475 1.523 . S
C2477 C2461 1.429 . S
C2477 C2473 1.429 . S
C2477 C2478 1.523 . S
C2478 C2462 1.368 . S
C2478 C2474 1.368 . S
C2478 C2477 1.523 . S
H2479 C2454 0.950 . S
H2480 C2456 0.950 . S
H2481 C2457 0.949 . S
H2482 C2459 0.950 . S
H2483 C2461 0.950 . S
C2484 C2485 1.349 . S
C2484 C2486 1.327 . S
C2484 H2509 0.950 . S
C2485 C2484 1.349 . S
C2485 C2501 1.349 . S
C2486 C2484 1.327 . S
C2486 C2505 1.429 . S
C2486 H2510 0.950 . S
C2487 C2504 1.574 . S
C2487 C2506 1.368 . S
C2487 H2511 0.949 . S
H2488 C2492 0.949 . S
C2489 C2490 1.349 . S
C2489 C2491 1.327 . S
C2489 H2512 0.950 . S
C2490 C2489 1.349 . S
C2490 C2502 1.349 . S
C2491 C2489 1.327 . S
C2491 C2507 1.429 . S
C2491 H2513 0.950 . S
C2492 H2488 0.949 . S
C2492 C2500 1.574 . S
C2492 C2508 1.368 . S
H2493 C2501 0.950 . S
H2494 C2499 0.950 . S
H2495 C2500 0.949 . S
H2496 C2502 0.950 . S
H2497 C2503 0.950 . S
H2498 C2504 0.949 . S
C2499 H2494 0.950 . S
C2499 C2501 1.327 . S
C2499 C2505 1.429 . S
C2500 C2492 1.574 . S
C2500 H2495 0.949 . S
C2500 C2506 1.368 . S
C2501 C2485 1.349 . S
C2501 H2493 0.950 . S
C2501 C2499 1.327 . S
C2502 C2490 1.349 . S
C2502 H2496 0.950 . S
C2502 C2503 1.327 . S
C2503 H2497 0.950 . S
C2503 C2502 1.327 . S
C2503 C2507 1.429 . S
C2504 C2487 1.574 . S
C2504 H2498 0.949 . S
C2504 C2508 1.368 . S
C2505 C2486 1.429 . S
C2505 C2499 1.429 . S
C2505 C2506 1.523 . S
C2506 C2487 1.368 . S
C2506 C2500 1.368 . S
C2506 C2505 1.523 . S
C2507 C2491 1.429 . S
C2507 C2503 1.429 . S
C2507 C2508 1.523 . S
C2508 C2492 1.368 . S
C2508 C2504 1.368 . S
C2508 C2507 1.523 . S
H2509 C2484 0.950 . S
H2510 C2486 0.950 . S
H2511 C2487 0.949 . S
H2512 C2489 0.950 . S
H2513 C2491 0.950 . S
C2514 C2515 1.349 . S
C2514 C2516 1.327 . S
C2514 H2539 0.950 . S
C2515 C2514 1.349 . S
C2515 C2531 1.349 . S
C2516 C2514 1.327 . S
C2516 C2535 1.429 . S
C2516 H2540 0.950 . S
C2517 C2534 1.574 . S
C2517 C2536 1.368 . S
C2517 H2541 0.949 . S
H2518 C2522 0.949 . S
C2519 C2520 1.349 . S
C2519 C2521 1.327 . S
C2519 H2542 0.950 . S
C2520 C2519 1.349 . S
C2520 C2532 1.349 . S
C2521 C2519 1.327 . S
C2521 C2537 1.429 . S
C2521 H2543 0.950 . S
C2522 H2518 0.949 . S
C2522 C2530 1.574 . S
C2522 C2538 1.368 . S
H2523 C2531 0.950 . S
H2524 C2529 0.950 . S
H2525 C2530 0.949 . S
H2526 C2532 0.950 . S
H2527 C2533 0.950 . S
H2528 C2534 0.949 . S
C2529 H2524 0.950 . S
C2529 C2531 1.327 . S
C2529 C2535 1.429 . S
C2530 C2522 1.574 . S
C2530 H2525 0.949 . S
C2530 C2536 1.368 . S
C2531 C2515 1.349 . S
C2531 H2523 0.950 . S
C2531 C2529 1.327 . S
C2532 C2520 1.349 . S
C2532 H2526 0.950 . S
C2532 C2533 1.327 . S
C2533 H2527 0.950 . S
C2533 C2532 1.327 . S
C2533 C2537 1.429 . S
C2534 C2517 1.574 . S
C2534 H2528 0.949 . S
C2534 C2538 1.368 . S
C2535 C2516 1.429 . S
C2535 C2529 1.429 . S
C2535 C2536 1.523 . S
C2536 C2517 1.368 . S
C2536 C2530 1.368 . S
C2536 C2535 1.523 . S
C2537 C2521 1.429 . S
C2537 C2533 1.429 . S
C2537 C2538 1.523 . S
C2538 C2522 1.368 . S
C2538 C2534 1.368 . S
C2538 C2537 1.523 . S
H2539 C2514 0.950 . S
H2540 C2516 0.950 . S
H2541 C2517 0.949 . S
H2542 C2519 0.950 . S
H2543 C2521 0.950 . S
C2544 C2545 1.349 . S
C2544 C2546 1.327 . S
C2544 H2569 0.950 . S
C2545 C2544 1.349 . S
C2545 C2561 1.349 . S
C2546 C2544 1.327 . S
C2546 C2565 1.429 . S
C2546 H2570 0.950 . S
C2547 C2564 1.574 . S
C2547 C2566 1.368 . S
C2547 H2571 0.949 . S
H2548 C2552 0.949 . S
C2549 C2550 1.349 . S
C2549 C2551 1.327 . S
C2549 H2572 0.950 . S
C2550 C2549 1.349 . S
C2550 C2562 1.349 . S
C2551 C2549 1.327 . S
C2551 C2567 1.429 . S
C2551 H2573 0.950 . S
C2552 H2548 0.949 . S
C2552 C2560 1.574 . S
C2552 C2568 1.368 . S
H2553 C2561 0.950 . S
H2554 C2559 0.950 . S
H2555 C2560 0.949 . S
H2556 C2562 0.950 . S
H2557 C2563 0.950 . S
H2558 C2564 0.949 . S
C2559 H2554 0.950 . S
C2559 C2561 1.327 . S
C2559 C2565 1.429 . S
C2560 C2552 1.574 . S
C2560 H2555 0.949 . S
C2560 C2566 1.368 . S
C2561 C2545 1.349 . S
C2561 H2553 0.950 . S
C2561 C2559 1.327 . S
C2562 C2550 1.349 . S
C2562 H2556 0.950 . S
C2562 C2563 1.327 . S
C2563 H2557 0.950 . S
C2563 C2562 1.327 . S
C2563 C2567 1.429 . S
C2564 C2547 1.574 . S
C2564 H2558 0.949 . S
C2564 C2568 1.368 . S
C2565 C2546 1.429 . S
C2565 C2559 1.429 . S
C2565 C2566 1.523 . S
C2566 C2547 1.368 . S
C2566 C2560 1.368 . S
C2566 C2565 1.523 . S
C2567 C2551 1.429 . S
C2567 C2563 1.429 . S
C2567 C2568 1.523 . S
C2568 C2552 1.368 . S
C2568 C2564 1.368 . S
C2568 C2567 1.523 . S
H2569 C2544 0.950 . S
H2570 C2546 0.950 . S
H2571 C2547 0.949 . S
H2572 C2549 0.950 . S
H2573 C2551 0.950 . S
C2574 C2575 1.349 . S
C2574 C2576 1.327 . S
C2574 H2599 0.950 . S
C2575 C2574 1.349 . S
C2575 C2591 1.349 . S
C2576 C2574 1.327 . S
C2576 C2595 1.429 . S
C2576 H2600 0.950 . S
C2577 C2594 1.574 . S
C2577 C2596 1.368 . S
C2577 H2601 0.949 . S
H2578 C2582 0.949 . S
C2579 C2580 1.349 . S
C2579 C2581 1.327 . S
C2579 H2602 0.950 . S
C2580 C2579 1.349 . S
C2580 C2592 1.349 . S
C2581 C2579 1.327 . S
C2581 C2597 1.429 . S
C2581 H2603 0.950 . S
C2582 H2578 0.949 . S
C2582 C2590 1.574 . S
C2582 C2598 1.368 . S
H2583 C2591 0.950 . S
H2584 C2589 0.950 . S
H2585 C2590 0.949 . S
H2586 C2592 0.950 . S
H2587 C2593 0.950 . S
H2588 C2594 0.949 . S
C2589 H2584 0.950 . S
C2589 C2591 1.327 . S
C2589 C2595 1.429 . S
C2590 C2582 1.574 . S
C2590 H2585 0.949 . S
C2590 C2596 1.368 . S
C2591 C2575 1.349 . S
C2591 H2583 0.950 . S
C2591 C2589 1.327 . S
C2592 C2580 1.349 . S
C2592 H2586 0.950 . S
C2592 C2593 1.327 . S
C2593 H2587 0.950 . S
C2593 C2592 1.327 . S
C2593 C2597 1.429 . S
C2594 C2577 1.574 . S
C2594 H2588 0.949 . S
C2594 C2598 1.368 . S
C2595 C2576 1.429 . S
C2595 C2589 1.429 . S
C2595 C2596 1.523 . S
C2596 C2577 1.368 . S
C2596 C2590 1.368 . S
C2596 C2595 1.523 . S
C2597 C2581 1.429 . S
C2597 C2593 1.429 . S
C2597 C2598 1.523 . S
C2598 C2582 1.368 . S
C2598 C2594 1.368 . S
C2598 C2597 1.523 . S
H2599 C2574 0.950 . S
H2600 C2576 0.950 . S
H2601 C2577 0.949 . S
H2602 C2579 0.950 . S
H2603 C2581 0.950 . S
C2604 C2605 1.349 . S
C2604 C2606 1.327 . S
C2604 H2629 0.950 . S
C2605 C2604 1.349 . S
C2605 C2621 1.349 . S
C2606 C2604 1.327 . S
C2606 C2625 1.429 . S
C2606 H2630 0.950 . S
C2607 C2624 1.574 . S
C2607 C2626 1.368 . S
C2607 H2631 0.949 . S
H2608 C2612 0.949 . S
C2609 C2610 1.349 . S
C2609 C2611 1.327 . S
C2609 H2632 0.950 . S
C2610 C2609 1.349 . S
C2610 C2622 1.349 . S
C2611 C2609 1.327 . S
C2611 C2627 1.429 . S
C2611 H2633 0.950 . S
C2612 H2608 0.949 . S
C2612 C2620 1.574 . S
C2612 C2628 1.368 . S
H2613 C2621 0.950 . S
H2614 C2619 0.950 . S
H2615 C2620 0.949 . S
H2616 C2622 0.950 . S
H2617 C2623 0.950 . S
H2618 C2624 0.949 . S
C2619 H2614 0.950 . S
C2619 C2621 1.327 . S
C2619 C2625 1.429 . S
C2620 C2612 1.574 . S
C2620 H2615 0.949 . S
C2620 C2626 1.368 . S
C2621 C2605 1.349 . S
C2621 H2613 0.950 . S
C2621 C2619 1.327 . S
C2622 C2610 1.349 . S
C2622 H2616 0.950 . S
C2622 C2623 1.327 . S
C2623 H2617 0.950 . S
C2623 C2622 1.327 . S
C2623 C2627 1.429 . S
C2624 C2607 1.574 . S
C2624 H2618 0.949 . S
C2624 C2628 1.368 . S
C2625 C2606 1.429 . S
C2625 C2619 1.429 . S
C2625 C2626 1.523 . S
C2626 C2607 1.368 . S
C2626 C2620 1.368 . S
C2626 C2625 1.523 . S
C2627 C2611 1.429 . S
C2627 C2623 1.429 . S
C2627 C2628 1.523 . S
C2628 C2612 1.368 . S
C2628 C2624 1.368 . S
C2628 C2627 1.523 . S
H2629 C2604 0.950 . S
H2630 C2606 0.950 . S
H2631 C2607 0.949 . S
H2632 C2609 0.950 . S
H2633 C2611 0.950 . S
C2634 C2635 1.349 . S
C2634 C2636 1.327 . S
C2634 H2659 0.950 . S
C2635 C2634 1.349 . S
C2635 C2651 1.349 . S
C2636 C2634 1.327 . S
C2636 C2655 1.429 . S
C2636 H2660 0.950 . S
C2637 C2654 1.574 . S
C2637 C2656 1.368 . S
C2637 H2661 0.949 . S
H2638 C2642 0.949 . S
C2639 C2640 1.349 . S
C2639 C2641 1.327 . S
C2639 H2662 0.950 . S
C2640 C2639 1.349 . S
C2640 C2652 1.349 . S
C2641 C2639 1.327 . S
C2641 C2657 1.429 . S
C2641 H2663 0.950 . S
C2642 H2638 0.949 . S
C2642 C2650 1.574 . S
C2642 C2658 1.368 . S
H2643 C2651 0.950 . S
H2644 C2649 0.950 . S
H2645 C2650 0.949 . S
H2646 C2652 0.950 . S
H2647 C2653 0.950 . S
H2648 C2654 0.949 . S
C2649 H2644 0.950 . S
C2649 C2651 1.327 . S
C2649 C2655 1.429 . S
C2650 C2642 1.574 . S
C2650 H2645 0.949 . S
C2650 C2656 1.368 . S
C2651 C2635 1.349 . S
C2651 H2643 0.950 . S
C2651 C2649 1.327 . S
C2652 C2640 1.349 . S
C2652 H2646 0.950 . S
C2652 C2653 1.327 . S
C2653 H2647 0.950 . S
C2653 C2652 1.327 . S
C2653 C2657 1.429 . S
C2654 C2637 1.574 . S
C2654 H2648 0.949 . S
C2654 C2658 1.368 . S
C2655 C2636 1.429 . S
C2655 C2649 1.429 . S
C2655 C2656 1.523 . S
C2656 C2637 1.368 . S
C2656 C2650 1.368 . S
C2656 C2655 1.523 . S
C2657 C2641 1.429 . S
C2657 C2653 1.429 . S
C2657 C2658 1.523 . S
C2658 C2642 1.368 . S
C2658 C2654 1.368 . S
C2658 C2657 1.523 . S
H2659 C2634 0.950 . S
H2660 C2636 0.950 . S
H2661 C2637 0.949 . S
H2662 C2639 0.950 . S
H2663 C2641 0.950 . S
C2664 C2665 1.349 . S
C2664 C2666 1.327 . S
C2664 H2689 0.950 . S
C2665 C2664 1.349 . S
C2665 C2681 1.349 . S
C2666 C2664 1.327 . S
C2666 C2685 1.429 . S
C2666 H2690 0.950 . S
C2667 C2684 1.574 . S
C2667 C2686 1.368 . S
C2667 H2691 0.949 . S
H2668 C2672 0.949 . S
C2669 C2670 1.349 . S
C2669 C2671 1.327 . S
C2669 H2692 0.950 . S
C2670 C2669 1.349 . S
C2670 C2682 1.349 . S
C2671 C2669 1.327 . S
C2671 C2687 1.429 . S
C2671 H2693 0.950 . S
C2672 H2668 0.949 . S
C2672 C2680 1.574 . S
C2672 C2688 1.368 . S
H2673 C2681 0.950 . S
H2674 C2679 0.950 . S
H2675 C2680 0.949 . S
H2676 C2682 0.950 . S
H2677 C2683 0.950 . S
H2678 C2684 0.949 . S
C2679 H2674 0.950 . S
C2679 C2681 1.327 . S
C2679 C2685 1.429 . S
C2680 C2672 1.574 . S
C2680 H2675 0.949 . S
C2680 C2686 1.368 . S
C2681 C2665 1.349 . S
C2681 H2673 0.950 . S
C2681 C2679 1.327 . S
C2682 C2670 1.349 . S
C2682 H2676 0.950 . S
C2682 C2683 1.327 . S
C2683 H2677 0.950 . S
C2683 C2682 1.327 . S
C2683 C2687 1.429 . S
C2684 C2667 1.574 . S
C2684 H2678 0.949 . S
C2684 C2688 1.368 . S
C2685 C2666 1.429 . S
C2685 C2679 1.429 . S
C2685 C2686 1.523 . S
C2686 C2667 1.368 . S
C2686 C2680 1.368 . S
C2686 C2685 1.523 . S
C2687 C2671 1.429 . S
C2687 C2683 1.429 . S
C2687 C2688 1.523 . S
C2688 C2672 1.368 . S
C2688 C2684 1.368 . S
C2688 C2687 1.523 . S
H2689 C2664 0.950 . S
H2690 C2666 0.950 . S
H2691 C2667 0.949 . S
H2692 C2669 0.950 . S
H2693 C2671 0.950 . S
C2694 C2695 1.349 . S
C2694 C2696 1.327 . S
C2694 H2719 0.950 . S
C2695 C2694 1.349 . S
C2695 C2711 1.349 . S
C2696 C2694 1.327 . S
C2696 C2715 1.429 . S
C2696 H2720 0.950 . S
C2697 C2714 1.574 . S
C2697 C2716 1.368 . S
C2697 H2721 0.949 . S
H2698 C2702 0.949 . S
C2699 C2700 1.349 . S
C2699 C2701 1.327 . S
C2699 H2722 0.950 . S
C2700 C2699 1.349 . S
C2700 C2712 1.349 . S
C2701 C2699 1.327 . S
C2701 C2717 1.429 . S
C2701 H2723 0.950 . S
C2702 H2698 0.949 . S
C2702 C2710 1.574 . S
C2702 C2718 1.368 . S
H2703 C2711 0.950 . S
H2704 C2709 0.950 . S
H2705 C2710 0.949 . S
H2706 C2712 0.950 . S
H2707 C2713 0.950 . S
H2708 C2714 0.949 . S
C2709 H2704 0.950 . S
C2709 C2711 1.327 . S
C2709 C2715 1.429 . S
C2710 C2702 1.574 . S
C2710 H2705 0.949 . S
C2710 C2716 1.368 . S
C2711 C2695 1.349 . S
C2711 H2703 0.950 . S
C2711 C2709 1.327 . S
C2712 C2700 1.349 . S
C2712 H2706 0.950 . S
C2712 C2713 1.327 . S
C2713 H2707 0.950 . S
C2713 C2712 1.327 . S
C2713 C2717 1.429 . S
C2714 C2697 1.574 . S
C2714 H2708 0.949 . S
C2714 C2718 1.368 . S
C2715 C2696 1.429 . S
C2715 C2709 1.429 . S
C2715 C2716 1.523 . S
C2716 C2697 1.368 . S
C2716 C2710 1.368 . S
C2716 C2715 1.523 . S
C2717 C2701 1.429 . S
C2717 C2713 1.429 . S
C2717 C2718 1.523 . S
C2718 C2702 1.368 . S
C2718 C2714 1.368 . S
C2718 C2717 1.523 . S
H2719 C2694 0.950 . S
H2720 C2696 0.950 . S
H2721 C2697 0.949 . S
H2722 C2699 0.950 . S
H2723 C2701 0.950 . S
C2724 C2725 1.349 . S
C2724 C2726 1.327 . S
C2724 H2749 0.950 . S
C2725 C2724 1.349 . S
C2725 C2741 1.349 . S
C2726 C2724 1.327 . S
C2726 C2745 1.429 . S
C2726 H2750 0.950 . S
C2727 C2744 1.574 . S
C2727 C2746 1.368 . S
C2727 H2751 0.949 . S
H2728 C2732 0.949 . S
C2729 C2730 1.349 . S
C2729 C2731 1.327 . S
C2729 H2752 0.950 . S
C2730 C2729 1.349 . S
C2730 C2742 1.349 . S
C2731 C2729 1.327 . S
C2731 C2747 1.429 . S
C2731 H2753 0.950 . S
C2732 H2728 0.949 . S
C2732 C2740 1.574 . S
C2732 C2748 1.368 . S
H2733 C2741 0.950 . S
H2734 C2739 0.950 . S
H2735 C2740 0.949 . S
H2736 C2742 0.950 . S
H2737 C2743 0.950 . S
H2738 C2744 0.949 . S
C2739 H2734 0.950 . S
C2739 C2741 1.327 . S
C2739 C2745 1.429 . S
C2740 C2732 1.574 . S
C2740 H2735 0.949 . S
C2740 C2746 1.368 . S
C2741 C2725 1.349 . S
C2741 H2733 0.950 . S
C2741 C2739 1.327 . S
C2742 C2730 1.349 . S
C2742 H2736 0.950 . S
C2742 C2743 1.327 . S
C2743 H2737 0.950 . S
C2743 C2742 1.327 . S
C2743 C2747 1.429 . S
C2744 C2727 1.574 . S
C2744 H2738 0.949 . S
C2744 C2748 1.368 . S
C2745 C2726 1.429 . S
C2745 C2739 1.429 . S
C2745 C2746 1.523 . S
C2746 C2727 1.368 . S
C2746 C2740 1.368 . S
C2746 C2745 1.523 . S
C2747 C2731 1.429 . S
C2747 C2743 1.429 . S
C2747 C2748 1.523 . S
C2748 C2732 1.368 . S
C2748 C2744 1.368 . S
C2748 C2747 1.523 . S
H2749 C2724 0.950 . S
H2750 C2726 0.950 . S
H2751 C2727 0.949 . S
H2752 C2729 0.950 . S
H2753 C2731 0.950 . S
C2754 C2755 1.349 . S
C2754 C2756 1.327 . S
C2754 H2779 0.950 . S
C2755 C2754 1.349 . S
C2755 C2771 1.349 . S
C2756 C2754 1.327 . S
C2756 C2775 1.429 . S
C2756 H2780 0.950 . S
C2757 C2774 1.574 . S
C2757 C2776 1.368 . S
C2757 H2781 0.949 . S
H2758 C2762 0.949 . S
C2759 C2760 1.349 . S
C2759 C2761 1.327 . S
C2759 H2782 0.950 . S
C2760 C2759 1.349 . S
C2760 C2772 1.349 . S
C2761 C2759 1.327 . S
C2761 C2777 1.429 . S
C2761 H2783 0.950 . S
C2762 H2758 0.949 . S
C2762 C2770 1.574 . S
C2762 C2778 1.368 . S
H2763 C2771 0.950 . S
H2764 C2769 0.950 . S
H2765 C2770 0.949 . S
H2766 C2772 0.950 . S
H2767 C2773 0.950 . S
H2768 C2774 0.949 . S
C2769 H2764 0.950 . S
C2769 C2771 1.327 . S
C2769 C2775 1.429 . S
C2770 C2762 1.574 . S
C2770 H2765 0.949 . S
C2770 C2776 1.368 . S
C2771 C2755 1.349 . S
C2771 H2763 0.950 . S
C2771 C2769 1.327 . S
C2772 C2760 1.349 . S
C2772 H2766 0.950 . S
C2772 C2773 1.327 . S
C2773 H2767 0.950 . S
C2773 C2772 1.327 . S
C2773 C2777 1.429 . S
C2774 C2757 1.574 . S
C2774 H2768 0.949 . S
C2774 C2778 1.368 . S
C2775 C2756 1.429 . S
C2775 C2769 1.429 . S
C2775 C2776 1.523 . S
C2776 C2757 1.368 . S
C2776 C2770 1.368 . S
C2776 C2775 1.523 . S
C2777 C2761 1.429 . S
C2777 C2773 1.429 . S
C2777 C2778 1.523 . S
C2778 C2762 1.368 . S
C2778 C2774 1.368 . S
C2778 C2777 1.523 . S
H2779 C2754 0.950 . S
H2780 C2756 0.950 . S
H2781 C2757 0.949 . S
H2782 C2759 0.950 . S
H2783 C2761 0.950 . S
C2784 C2785 1.349 . S
C2784 C2786 1.327 . S
C2784 H2809 0.950 . S
C2785 C2784 1.349 . S
C2785 C2801 1.349 . S
C2786 C2784 1.327 . S
C2786 C2805 1.429 . S
C2786 H2810 0.950 . S
C2787 C2804 1.574 . S
C2787 C2806 1.368 . S
C2787 H2811 0.949 . S
H2788 C2792 0.949 . S
C2789 C2790 1.349 . S
C2789 C2791 1.327 . S
C2789 H2812 0.950 . S
C2790 C2789 1.349 . S
C2790 C2802 1.349 . S
C2791 C2789 1.327 . S
C2791 C2807 1.429 . S
C2791 H2813 0.950 . S
C2792 H2788 0.949 . S
C2792 C2800 1.574 . S
C2792 C2808 1.368 . S
H2793 C2801 0.950 . S
H2794 C2799 0.950 . S
H2795 C2800 0.949 . S
H2796 C2802 0.950 . S
H2797 C2803 0.950 . S
H2798 C2804 0.949 . S
C2799 H2794 0.950 . S
C2799 C2801 1.327 . S
C2799 C2805 1.429 . S
C2800 C2792 1.574 . S
C2800 H2795 0.949 . S
C2800 C2806 1.368 . S
C2801 C2785 1.349 . S
C2801 H2793 0.950 . S
C2801 C2799 1.327 . S
C2802 C2790 1.349 . S
C2802 H2796 0.950 . S
C2802 C2803 1.327 . S
C2803 H2797 0.950 . S
C2803 C2802 1.327 . S
C2803 C2807 1.429 . S
C2804 C2787 1.574 . S
C2804 H2798 0.949 . S
C2804 C2808 1.368 . S
C2805 C2786 1.429 . S
C2805 C2799 1.429 . S
C2805 C2806 1.523 . S
C2806 C2787 1.368 . S
C2806 C2800 1.368 . S
C2806 C2805 1.523 . S
C2807 C2791 1.429 . S
C2807 C2803 1.429 . S
C2807 C2808 1.523 . S
C2808 C2792 1.368 . S
C2808 C2804 1.368 . S
C2808 C2807 1.523 . S
H2809 C2784 0.950 . S
H2810 C2786 0.950 . S
H2811 C2787 0.949 . S
H2812 C2789 0.950 . S
H2813 C2791 0.950 . S
C2814 C2815 1.349 . S
C2814 C2816 1.327 . S
C2814 H2839 0.950 . S
C2815 C2814 1.349 . S
C2815 C2831 1.349 . S
C2816 C2814 1.327 . S
C2816 C2835 1.429 . S
C2816 H2840 0.950 . S
C2817 C2834 1.574 . S
C2817 C2836 1.368 . S
C2817 H2841 0.949 . S
H2818 C2822 0.949 . S
C2819 C2820 1.349 . S
C2819 C2821 1.327 . S
C2819 H2842 0.950 . S
C2820 C2819 1.349 . S
C2820 C2832 1.349 . S
C2821 C2819 1.327 . S
C2821 C2837 1.429 . S
C2821 H2843 0.950 . S
C2822 H2818 0.949 . S
C2822 C2830 1.574 . S
C2822 C2838 1.368 . S
H2823 C2831 0.950 . S
H2824 C2829 0.950 . S
H2825 C2830 0.949 . S
H2826 C2832 0.950 . S
H2827 C2833 0.950 . S
H2828 C2834 0.949 . S
C2829 H2824 0.950 . S
C2829 C2831 1.327 . S
C2829 C2835 1.429 . S
C2830 C2822 1.574 . S
C2830 H2825 0.949 . S
C2830 C2836 1.368 . S
C2831 C2815 1.349 . S
C2831 H2823 0.950 . S
C2831 C2829 1.327 . S
C2832 C2820 1.349 . S
C2832 H2826 0.950 . S
C2832 C2833 1.327 . S
C2833 H2827 0.950 . S
C2833 C2832 1.327 . S
C2833 C2837 1.429 . S
C2834 C2817 1.574 . S
C2834 H2828 0.949 . S
C2834 C2838 1.368 . S
C2835 C2816 1.429 . S
C2835 C2829 1.429 . S
C2835 C2836 1.523 . S
C2836 C2817 1.368 . S
C2836 C2830 1.368 . S
C2836 C2835 1.523 . S
C2837 C2821 1.429 . S
C2837 C2833 1.429 . S
C2837 C2838 1.523 . S
C2838 C2822 1.368 . S
C2838 C2834 1.368 . S
C2838 C2837 1.523 . S
H2839 C2814 0.950 . S
H2840 C2816 0.950 . S
H2841 C2817 0.949 . S
H2842 C2819 0.950 . S
H2843 C2821 0.950 . S
C2844 C2845 1.349 . S
C2844 C2846 1.327 . S
C2844 H2869 0.950 . S
C2845 C2844 1.349 . S
C2845 C2861 1.349 . S
C2846 C2844 1.327 . S
C2846 C2865 1.429 . S
C2846 H2870 0.950 . S
C2847 C2864 1.574 . S
C2847 C2866 1.368 . S
C2847 H2871 0.949 . S
H2848 C2852 0.949 . S
C2849 C2850 1.349 . S
C2849 C2851 1.327 . S
C2849 H2872 0.950 . S
C2850 C2849 1.349 . S
C2850 C2862 1.349 . S
C2851 C2849 1.327 . S
C2851 C2867 1.429 . S
C2851 H2873 0.950 . S
C2852 H2848 0.949 . S
C2852 C2860 1.574 . S
C2852 C2868 1.368 . S
H2853 C2861 0.950 . S
H2854 C2859 0.950 . S
H2855 C2860 0.949 . S
H2856 C2862 0.950 . S
H2857 C2863 0.950 . S
H2858 C2864 0.949 . S
C2859 H2854 0.950 . S
C2859 C2861 1.327 . S
C2859 C2865 1.429 . S
C2860 C2852 1.574 . S
C2860 H2855 0.949 . S
C2860 C2866 1.368 . S
C2861 C2845 1.349 . S
C2861 H2853 0.950 . S
C2861 C2859 1.327 . S
C2862 C2850 1.349 . S
C2862 H2856 0.950 . S
C2862 C2863 1.327 . S
C2863 H2857 0.950 . S
C2863 C2862 1.327 . S
C2863 C2867 1.429 . S
C2864 C2847 1.574 . S
C2864 H2858 0.949 . S
C2864 C2868 1.368 . S
C2865 C2846 1.429 . S
C2865 C2859 1.429 . S
C2865 C2866 1.523 . S
C2866 C2847 1.368 . S
C2866 C2860 1.368 . S
C2866 C2865 1.523 . S
C2867 C2851 1.429 . S
C2867 C2863 1.429 . S
C2867 C2868 1.523 . S
C2868 C2852 1.368 . S
C2868 C2864 1.368 . S
C2868 C2867 1.523 . S
H2869 C2844 0.950 . S
H2870 C2846 0.950 . S
H2871 C2847 0.949 . S
H2872 C2849 0.950 . S
H2873 C2851 0.950 . S
C2874 C2875 1.349 . S
C2874 C2876 1.327 . S
C2874 H2899 0.950 . S
C2875 C2874 1.349 . S
C2875 C2891 1.349 . S
C2876 C2874 1.327 . S
C2876 C2895 1.429 . S
C2876 H2900 0.950 . S
C2877 C2894 1.574 . S
C2877 C2896 1.368 . S
C2877 H2901 0.949 . S
H2878 C2882 0.949 . S
C2879 C2880 1.349 . S
C2879 C2881 1.327 . S
C2879 H2902 0.950 . S
C2880 C2879 1.349 . S
C2880 C2892 1.349 . S
C2881 C2879 1.327 . S
C2881 C2897 1.429 . S
C2881 H2903 0.950 . S
C2882 H2878 0.949 . S
C2882 C2890 1.574 . S
C2882 C2898 1.368 . S
H2883 C2891 0.950 . S
H2884 C2889 0.950 . S
H2885 C2890 0.949 . S
H2886 C2892 0.950 . S
H2887 C2893 0.950 . S
H2888 C2894 0.949 . S
C2889 H2884 0.950 . S
C2889 C2891 1.327 . S
C2889 C2895 1.429 . S
C2890 C2882 1.574 . S
C2890 H2885 0.949 . S
C2890 C2896 1.368 . S
C2891 C2875 1.349 . S
C2891 H2883 0.950 . S
C2891 C2889 1.327 . S
C2892 C2880 1.349 . S
C2892 H2886 0.950 . S
C2892 C2893 1.327 . S
C2893 H2887 0.950 . S
C2893 C2892 1.327 . S
C2893 C2897 1.429 . S
C2894 C2877 1.574 . S
C2894 H2888 0.949 . S
C2894 C2898 1.368 . S
C2895 C2876 1.429 . S
C2895 C2889 1.429 . S
C2895 C2896 1.523 . S
C2896 C2877 1.368 . S
C2896 C2890 1.368 . S
C2896 C2895 1.523 . S
C2897 C2881 1.429 . S
C2897 C2893 1.429 . S
C2897 C2898 1.523 . S
C2898 C2882 1.368 . S
C2898 C2894 1.368 . S
C2898 C2897 1.523 . S
H2899 C2874 0.950 . S
H2900 C2876 0.950 . S
H2901 C2877 0.949 . S
H2902 C2879 0.950 . S
H2903 C2881 0.950 . S
C2904 C2905 1.349 . S
C2904 C2906 1.327 . S
C2904 H2929 0.950 . S
C2905 C2904 1.349 . S
C2905 C2921 1.349 . S
C2906 C2904 1.327 . S
C2906 C2925 1.429 . S
C2906 H2930 0.950 . S
C2907 C2924 1.574 . S
C2907 C2926 1.368 . S
C2907 H2931 0.949 . S
H2908 C2912 0.949 . S
C2909 C2910 1.349 . S
C2909 C2911 1.327 . S
C2909 H2932 0.950 . S
C2910 C2909 1.349 . S
C2910 C2922 1.349 . S
C2911 C2909 1.327 . S
C2911 C2927 1.429 . S
C2911 H2933 0.950 . S
C2912 H2908 0.949 . S
C2912 C2920 1.574 . S
C2912 C2928 1.368 . S
H2913 C2921 0.950 . S
H2914 C2919 0.950 . S
H2915 C2920 0.949 . S
H2916 C2922 0.950 . S
H2917 C2923 0.950 . S
H2918 C2924 0.949 . S
C2919 H2914 0.950 . S
C2919 C2921 1.327 . S
C2919 C2925 1.429 . S
C2920 C2912 1.574 . S
C2920 H2915 0.949 . S
C2920 C2926 1.368 . S
C2921 C2905 1.349 . S
C2921 H2913 0.950 . S
C2921 C2919 1.327 . S
C2922 C2910 1.349 . S
C2922 H2916 0.950 . S
C2922 C2923 1.327 . S
C2923 H2917 0.950 . S
C2923 C2922 1.327 . S
C2923 C2927 1.429 . S
C2924 C2907 1.574 . S
C2924 H2918 0.949 . S
C2924 C2928 1.368 . S
C2925 C2906 1.429 . S
C2925 C2919 1.429 . S
C2925 C2926 1.523 . S
C2926 C2907 1.368 . S
C2926 C2920 1.368 . S
C2926 C2925 1.523 . S
C2927 C2911 1.429 . S
C2927 C2923 1.429 . S
C2927 C2928 1.523 . S
C2928 C2912 1.368 . S
C2928 C2924 1.368 . S
C2928 C2927 1.523 . S
H2929 C2904 0.950 . S
H2930 C2906 0.950 . S
H2931 C2907 0.949 . S
H2932 C2909 0.950 . S
H2933 C2911 0.950 . S
C2934 C2935 1.349 . S
C2934 C2936 1.327 . S
C2934 H2959 0.950 . S
C2935 C2934 1.349 . S
C2935 C2951 1.349 . S
C2936 C2934 1.327 . S
C2936 C2955 1.429 . S
C2936 H2960 0.950 . S
C2937 C2954 1.574 . S
C2937 C2956 1.368 . S
C2937 H2961 0.949 . S
H2938 C2942 0.949 . S
C2939 C2940 1.349 . S
C2939 C2941 1.327 . S
C2939 H2962 0.950 . S
C2940 C2939 1.349 . S
C2940 C2952 1.349 . S
C2941 C2939 1.327 . S
C2941 C2957 1.429 . S
C2941 H2963 0.950 . S
C2942 H2938 0.949 . S
C2942 C2950 1.574 . S
C2942 C2958 1.368 . S
H2943 C2951 0.950 . S
H2944 C2949 0.950 . S
H2945 C2950 0.949 . S
H2946 C2952 0.950 . S
H2947 C2953 0.950 . S
H2948 C2954 0.949 . S
C2949 H2944 0.950 . S
C2949 C2951 1.327 . S
C2949 C2955 1.429 . S
C2950 C2942 1.574 . S
C2950 H2945 0.949 . S
C2950 C2956 1.368 . S
C2951 C2935 1.349 . S
C2951 H2943 0.950 . S
C2951 C2949 1.327 . S
C2952 C2940 1.349 . S
C2952 H2946 0.950 . S
C2952 C2953 1.327 . S
C2953 H2947 0.950 . S
C2953 C2952 1.327 . S
C2953 C2957 1.429 . S
C2954 C2937 1.574 . S
C2954 H2948 0.949 . S
C2954 C2958 1.368 . S
C2955 C2936 1.429 . S
C2955 C2949 1.429 . S
C2955 C2956 1.523 . S
C2956 C2937 1.368 . S
C2956 C2950 1.368 . S
C2956 C2955 1.523 . S
C2957 C2941 1.429 . S
C2957 C2953 1.429 . S
C2957 C2958 1.523 . S
C2958 C2942 1.368 . S
C2958 C2954 1.368 . S
C2958 C2957 1.523 . S
H2959 C2934 0.950 . S
H2960 C2936 0.950 . S
H2961 C2937 0.949 . S
H2962 C2939 0.950 . S
H2963 C2941 0.950 . S
C2964 C2965 1.349 . S
C2964 C2966 1.327 . S
C2964 H2989 0.950 . S
C2965 C2964 1.349 . S
C2965 C2981 1.349 . S
C2966 C2964 1.327 . S
C2966 C2985 1.429 . S
C2966 H2990 0.950 . S
C2967 C2984 1.574 . S
C2967 C2986 1.368 . S
C2967 H2991 0.949 . S
H2968 C2972 0.949 . S
C2969 C2970 1.349 . S
C2969 C2971 1.327 . S
C2969 H2992 0.950 . S
C2970 C2969 1.349 . S
C2970 C2982 1.349 . S
C2971 C2969 1.327 . S
C2971 C2987 1.429 . S
C2971 H2993 0.950 . S
C2972 H2968 0.949 . S
C2972 C2980 1.574 . S
C2972 C2988 1.368 . S
H2973 C2981 0.950 . S
H2974 C2979 0.950 . S
H2975 C2980 0.949 . S
H2976 C2982 0.950 . S
H2977 C2983 0.950 . S
H2978 C2984 0.949 . S
C2979 H2974 0.950 . S
C2979 C2981 1.327 . S
C2979 C2985 1.429 . S
C2980 C2972 1.574 . S
C2980 H2975 0.949 . S
C2980 C2986 1.368 . S
C2981 C2965 1.349 . S
C2981 H2973 0.950 . S
C2981 C2979 1.327 . S
C2982 C2970 1.349 . S
C2982 H2976 0.950 . S
C2982 C2983 1.327 . S
C2983 H2977 0.950 . S
C2983 C2982 1.327 . S
C2983 C2987 1.429 . S
C2984 C2967 1.574 . S
C2984 H2978 0.949 . S
C2984 C2988 1.368 . S
C2985 C2966 1.429 . S
C2985 C2979 1.429 . S
C2985 C2986 1.523 . S
C2986 C2967 1.368 . S
C2986 C2980 1.368 . S
C2986 C2985 1.523 . S
C2987 C2971 1.429 . S
C2987 C2983 1.429 . S
C2987 C2988 1.523 . S
C2988 C2972 1.368 . S
C2988 C2984 1.368 . S
C2988 C2987 1.523 . S
H2989 C2964 0.950 . S
H2990 C2966 0.950 . S
H2991 C2967 0.949 . S
H2992 C2969 0.950 . S
H2993 C2971 0.950 . S
C2994 C2995 1.349 . S
C2994 C2996 1.327 . S
C2994 H3019 0.950 . S
C2995 C2994 1.349 . S
C2995 C3011 1.349 . S
C2996 C2994 1.327 . S
C2996 C3015 1.429 . S
C2996 H3020 0.950 . S
C2997 C3014 1.574 . S
C2997 C3016 1.368 . S
C2997 H3021 0.949 . S
H2998 C3002 0.949 . S
C2999 C3000 1.349 . S
C2999 C3001 1.327 . S
C2999 H3022 0.950 . S
C3000 C2999 1.349 . S
C3000 C3012 1.349 . S
C3001 C2999 1.327 . S
C3001 C3017 1.429 . S
C3001 H3023 0.950 . S
C3002 H2998 0.949 . S
C3002 C3010 1.574 . S
C3002 C3018 1.368 . S
H3003 C3011 0.950 . S
H3004 C3009 0.950 . S
H3005 C3010 0.949 . S
H3006 C3012 0.950 . S
H3007 C3013 0.950 . S
H3008 C3014 0.949 . S
C3009 H3004 0.950 . S
C3009 C3011 1.327 . S
C3009 C3015 1.429 . S
C3010 C3002 1.574 . S
C3010 H3005 0.949 . S
C3010 C3016 1.368 . S
C3011 C2995 1.349 . S
C3011 H3003 0.950 . S
C3011 C3009 1.327 . S
C3012 C3000 1.349 . S
C3012 H3006 0.950 . S
C3012 C3013 1.327 . S
C3013 H3007 0.950 . S
C3013 C3012 1.327 . S
C3013 C3017 1.429 . S
C3014 C2997 1.574 . S
C3014 H3008 0.949 . S
C3014 C3018 1.368 . S
C3015 C2996 1.429 . S
C3015 C3009 1.429 . S
C3015 C3016 1.523 . S
C3016 C2997 1.368 . S
C3016 C3010 1.368 . S
C3016 C3015 1.523 . S
C3017 C3001 1.429 . S
C3017 C3013 1.429 . S
C3017 C3018 1.523 . S
C3018 C3002 1.368 . S
C3018 C3014 1.368 . S
C3018 C3017 1.523 . S
H3019 C2994 0.950 . S
H3020 C2996 0.950 . S
H3021 C2997 0.949 . S
H3022 C2999 0.950 . S
H3023 C3001 0.950 . S
C3024 C3025 1.349 . S
C3024 C3026 1.327 . S
C3024 H3049 0.950 . S
C3025 C3024 1.349 . S
C3025 C3041 1.349 . S
C3026 C3024 1.327 . S
C3026 C3045 1.429 . S
C3026 H3050 0.950 . S
C3027 C3044 1.574 . S
C3027 C3046 1.368 . S
C3027 H3051 0.949 . S
H3028 C3032 0.949 . S
C3029 C3030 1.349 . S
C3029 C3031 1.327 . S
C3029 H3052 0.950 . S
C3030 C3029 1.349 . S
C3030 C3042 1.349 . S
C3031 C3029 1.327 . S
C3031 C3047 1.429 . S
C3031 H3053 0.950 . S
C3032 H3028 0.949 . S
C3032 C3040 1.574 . S
C3032 C3048 1.368 . S
H3033 C3041 0.950 . S
H3034 C3039 0.950 . S
H3035 C3040 0.949 . S
H3036 C3042 0.950 . S
H3037 C3043 0.950 . S
H3038 C3044 0.949 . S
C3039 H3034 0.950 . S
C3039 C3041 1.327 . S
C3039 C3045 1.429 . S
C3040 C3032 1.574 . S
C3040 H3035 0.949 . S
C3040 C3046 1.368 . S
C3041 C3025 1.349 . S
C3041 H3033 0.950 . S
C3041 C3039 1.327 . S
C3042 C3030 1.349 . S
C3042 H3036 0.950 . S
C3042 C3043 1.327 . S
C3043 H3037 0.950 . S
C3043 C3042 1.327 . S
C3043 C3047 1.429 . S
C3044 C3027 1.574 . S
C3044 H3038 0.949 . S
C3044 C3048 1.368 . S
C3045 C3026 1.429 . S
C3045 C3039 1.429 . S
C3045 C3046 1.523 . S
C3046 C3027 1.368 . S
C3046 C3040 1.368 . S
C3046 C3045 1.523 . S
C3047 C3031 1.429 . S
C3047 C3043 1.429 . S
C3047 C3048 1.523 . S
C3048 C3032 1.368 . S
C3048 C3044 1.368 . S
C3048 C3047 1.523 . S
H3049 C3024 0.950 . S
H3050 C3026 0.950 . S
H3051 C3027 0.949 . S
H3052 C3029 0.950 . S
H3053 C3031 0.950 . S
C3054 C3055 1.349 . S
C3054 C3056 1.327 . S
C3054 H3079 0.950 . S
C3055 C3054 1.349 . S
C3055 C3071 1.349 . S
C3056 C3054 1.327 . S
C3056 C3075 1.429 . S
C3056 H3080 0.950 . S
C3057 C3074 1.574 . S
C3057 C3076 1.368 . S
C3057 H3081 0.949 . S
H3058 C3062 0.949 . S
C3059 C3060 1.349 . S
C3059 C3061 1.327 . S
C3059 H3082 0.950 . S
C3060 C3059 1.349 . S
C3060 C3072 1.349 . S
C3061 C3059 1.327 . S
C3061 C3077 1.429 . S
C3061 H3083 0.950 . S
C3062 H3058 0.949 . S
C3062 C3070 1.574 . S
C3062 C3078 1.368 . S
H3063 C3071 0.950 . S
H3064 C3069 0.950 . S
H3065 C3070 0.949 . S
H3066 C3072 0.950 . S
H3067 C3073 0.950 . S
H3068 C3074 0.949 . S
C3069 H3064 0.950 . S
C3069 C3071 1.327 . S
C3069 C3075 1.429 . S
C3070 C3062 1.574 . S
C3070 H3065 0.949 . S
C3070 C3076 1.368 . S
C3071 C3055 1.349 . S
C3071 H3063 0.950 . S
C3071 C3069 1.327 . S
C3072 C3060 1.349 . S
C3072 H3066 0.950 . S
C3072 C3073 1.327 . S
C3073 H3067 0.950 . S
C3073 C3072 1.327 . S
C3073 C3077 1.429 . S
C3074 C3057 1.574 . S
C3074 H3068 0.949 . S
C3074 C3078 1.368 . S
C3075 C3056 1.429 . S
C3075 C3069 1.429 . S
C3075 C3076 1.523 . S
C3076 C3057 1.368 . S
C3076 C3070 1.368 . S
C3076 C3075 1.523 . S
C3077 C3061 1.429 . S
C3077 C3073 1.429 . S
C3077 C3078 1.523 . S
C3078 C3062 1.368 . S
C3078 C3074 1.368 . S
C3078 C3077 1.523 . S
H3079 C3054 0.950 . S
H3080 C3056 0.950 . S
H3081 C3057 0.949 . S
H3082 C3059 0.950 . S
H3083 C3061 0.950 . S
C3084 C3085 1.349 . S
C3084 C3086 1.327 . S
C3084 H3109 0.950 . S
C3085 C3084 1.349 . S
C3085 C3101 1.349 . S
C3086 C3084 1.327 . S
C3086 C3105 1.429 . S
C3086 H3110 0.950 . S
C3087 C3104 1.574 . S
C3087 C3106 1.368 . S
C3087 H3111 0.949 . S
H3088 C3092 0.949 . S
C3089 C3090 1.349 . S
C3089 C3091 1.327 . S
C3089 H3112 0.950 . S
C3090 C3089 1.349 . S
C3090 C3102 1.349 . S
C3091 C3089 1.327 . S
C3091 C3107 1.429 . S
C3091 H3113 0.950 . S
C3092 H3088 0.949 . S
C3092 C3100 1.574 . S
C3092 C3108 1.368 . S
H3093 C3101 0.950 . S
H3094 C3099 0.950 . S
H3095 C3100 0.949 . S
H3096 C3102 0.950 . S
H3097 C3103 0.950 . S
H3098 C3104 0.949 . S
C3099 H3094 0.950 . S
C3099 C3101 1.327 . S
C3099 C3105 1.429 . S
C3100 C3092 1.574 . S
C3100 H3095 0.949 . S
C3100 C3106 1.368 . S
C3101 C3085 1.349 . S
C3101 H3093 0.950 . S
C3101 C3099 1.327 . S
C3102 C3090 1.349 . S
C3102 H3096 0.950 . S
C3102 C3103 1.327 . S
C3103 H3097 0.950 . S
C3103 C3102 1.327 . S
C3103 C3107 1.429 . S
C3104 C3087 1.574 . S
C3104 H3098 0.949 . S
C3104 C3108 1.368 . S
C3105 C3086 1.429 . S
C3105 C3099 1.429 . S
C3105 C3106 1.523 . S
C3106 C3087 1.368 . S
C3106 C3100 1.368 . S
C3106 C3105 1.523 . S
C3107 C3091 1.429 . S
C3107 C3103 1.429 . S
C3107 C3108 1.523 . S
C3108 C3092 1.368 . S
C3108 C3104 1.368 . S
C3108 C3107 1.523 . S
H3109 C3084 0.950 . S
H3110 C3086 0.950 . S
H3111 C3087 0.949 . S
H3112 C3089 0.950 . S
H3113 C3091 0.950 . S
C3114 C3115 1.349 . S
C3114 C3116 1.327 . S
C3114 H3139 0.950 . S
C3115 C3114 1.349 . S
C3115 C3131 1.349 . S
C3116 C3114 1.327 . S
C3116 C3135 1.429 . S
C3116 H3140 0.950 . S
C3117 C3134 1.574 . S
C3117 C3136 1.368 . S
C3117 H3141 0.949 . S
H3118 C3122 0.949 . S
C3119 C3120 1.349 . S
C3119 C3121 1.327 . S
C3119 H3142 0.950 . S
C3120 C3119 1.349 . S
C3120 C3132 1.349 . S
C3121 C3119 1.327 . S
C3121 C3137 1.429 . S
C3121 H3143 0.950 . S
C3122 H3118 0.949 . S
C3122 C3130 1.574 . S
C3122 C3138 1.368 . S
H3123 C3131 0.950 . S
H3124 C3129 0.950 . S
H3125 C3130 0.949 . S
H3126 C3132 0.950 . S
H3127 C3133 0.950 . S
H3128 C3134 0.949 . S
C3129 H3124 0.950 . S
C3129 C3131 1.327 . S
C3129 C3135 1.429 . S
C3130 C3122 1.574 . S
C3130 H3125 0.949 . S
C3130 C3136 1.368 . S
C3131 C3115 1.349 . S
C3131 H3123 0.950 . S
C3131 C3129 1.327 . S
C3132 C3120 1.349 . S
C3132 H3126 0.950 . S
C3132 C3133 1.327 . S
C3133 H3127 0.950 . S
C3133 C3132 1.327 . S
C3133 C3137 1.429 . S
C3134 C3117 1.574 . S
C3134 H3128 0.949 . S
C3134 C3138 1.368 . S
C3135 C3116 1.429 . S
C3135 C3129 1.429 . S
C3135 C3136 1.523 . S
C3136 C3117 1.368 . S
C3136 C3130 1.368 . S
C3136 C3135 1.523 . S
C3137 C3121 1.429 . S
C3137 C3133 1.429 . S
C3137 C3138 1.523 . S
C3138 C3122 1.368 . S
C3138 C3134 1.368 . S
C3138 C3137 1.523 . S
H3139 C3114 0.950 . S
H3140 C3116 0.950 . S
H3141 C3117 0.949 . S
H3142 C3119 0.950 . S
H3143 C3121 0.950 . S
C3144 C3145 1.349 . S
C3144 C3146 1.327 . S
C3144 H3169 0.950 . S
C3145 C3144 1.349 . S
C3145 C3161 1.349 . S
C3146 C3144 1.327 . S
C3146 C3165 1.429 . S
C3146 H3170 0.950 . S
C3147 C3164 1.574 . S
C3147 C3166 1.368 . S
C3147 H3171 0.949 . S
H3148 C3152 0.949 . S
C3149 C3150 1.349 . S
C3149 C3151 1.327 . S
C3149 H3172 0.950 . S
C3150 C3149 1.349 . S
C3150 C3162 1.349 . S
C3151 C3149 1.327 . S
C3151 C3167 1.429 . S
C3151 H3173 0.950 . S
C3152 H3148 0.949 . S
C3152 C3160 1.574 . S
C3152 C3168 1.368 . S
H3153 C3161 0.950 . S
H3154 C3159 0.950 . S
H3155 C3160 0.949 . S
H3156 C3162 0.950 . S
H3157 C3163 0.950 . S
H3158 C3164 0.949 . S
C3159 H3154 0.950 . S
C3159 C3161 1.327 . S
C3159 C3165 1.429 . S
C3160 C3152 1.574 . S
C3160 H3155 0.949 . S
C3160 C3166 1.368 . S
C3161 C3145 1.349 . S
C3161 H3153 0.950 . S
C3161 C3159 1.327 . S
C3162 C3150 1.349 . S
C3162 H3156 0.950 . S
C3162 C3163 1.327 . S
C3163 H3157 0.950 . S
C3163 C3162 1.327 . S
C3163 C3167 1.429 . S
C3164 C3147 1.574 . S
C3164 H3158 0.949 . S
C3164 C3168 1.368 . S
C3165 C3146 1.429 . S
C3165 C3159 1.429 . S
C3165 C3166 1.523 . S
C3166 C3147 1.368 . S
C3166 C3160 1.368 . S
C3166 C3165 1.523 . S
C3167 C3151 1.429 . S
C3167 C3163 1.429 . S
C3167 C3168 1.523 . S
C3168 C3152 1.368 . S
C3168 C3164 1.368 . S
C3168 C3167 1.523 . S
H3169 C3144 0.950 . S
H3170 C3146 0.950 . S
H3171 C3147 0.949 . S
H3172 C3149 0.950 . S
H3173 C3151 0.950 . S
C3174 C3175 1.349 . S
C3174 C3176 1.327 . S
C3174 H3199 0.950 . S
C3175 C3174 1.349 . S
C3175 C3191 1.349 . S
C3176 C3174 1.327 . S
C3176 C3195 1.429 . S
C3176 H3200 0.950 . S
C3177 C3194 1.574 . S
C3177 C3196 1.368 . S
C3177 H3201 0.949 . S
H3178 C3182 0.949 . S
C3179 C3180 1.349 . S
C3179 C3181 1.327 . S
C3179 H3202 0.950 . S
C3180 C3179 1.349 . S
C3180 C3192 1.349 . S
C3181 C3179 1.327 . S
C3181 C3197 1.429 . S
C3181 H3203 0.950 . S
C3182 H3178 0.949 . S
C3182 C3190 1.574 . S
C3182 C3198 1.368 . S
H3183 C3191 0.950 . S
H3184 C3189 0.950 . S
H3185 C3190 0.949 . S
H3186 C3192 0.950 . S
H3187 C3193 0.950 . S
H3188 C3194 0.949 . S
C3189 H3184 0.950 . S
C3189 C3191 1.327 . S
C3189 C3195 1.429 . S
C3190 C3182 1.574 . S
C3190 H3185 0.949 . S
C3190 C3196 1.368 . S
C3191 C3175 1.349 . S
C3191 H3183 0.950 . S
C3191 C3189 1.327 . S
C3192 C3180 1.349 . S
C3192 H3186 0.950 . S
C3192 C3193 1.327 . S
C3193 H3187 0.950 . S
C3193 C3192 1.327 . S
C3193 C3197 1.429 . S
C3194 C3177 1.574 . S
C3194 H3188 0.949 . S
C3194 C3198 1.368 . S
C3195 C3176 1.429 . S
C3195 C3189 1.429 . S
C3195 C3196 1.523 . S
C3196 C3177 1.368 . S
C3196 C3190 1.368 . S
C3196 C3195 1.523 . S
C3197 C3181 1.429 . S
C3197 C3193 1.429 . S
C3197 C3198 1.523 . S
C3198 C3182 1.368 . S
C3198 C3194 1.368 . S
C3198 C3197 1.523 . S
H3199 C3174 0.950 . S
H3200 C3176 0.950 . S
H3201 C3177 0.949 . S
H3202 C3179 0.950 . S
H3203 C3181 0.950 . S
C3204 C3205 1.349 . S
C3204 C3206 1.327 . S
C3204 H3229 0.950 . S
C3205 C3204 1.349 . S
C3205 C3221 1.349 . S
C3206 C3204 1.327 . S
C3206 C3225 1.429 . S
C3206 H3230 0.950 . S
C3207 C3224 1.574 . S
C3207 C3226 1.368 . S
C3207 H3231 0.949 . S
H3208 C3212 0.949 . S
C3209 C3210 1.349 . S
C3209 C3211 1.327 . S
C3209 H3232 0.950 . S
C3210 C3209 1.349 . S
C3210 C3222 1.349 . S
C3211 C3209 1.327 . S
C3211 C3227 1.429 . S
C3211 H3233 0.950 . S
C3212 H3208 0.949 . S
C3212 C3220 1.574 . S
C3212 C3228 1.368 . S
H3213 C3221 0.950 . S
H3214 C3219 0.950 . S
H3215 C3220 0.949 . S
H3216 C3222 0.950 . S
H3217 C3223 0.950 . S
H3218 C3224 0.949 . S
C3219 H3214 0.950 . S
C3219 C3221 1.327 . S
C3219 C3225 1.429 . S
C3220 C3212 1.574 . S
C3220 H3215 0.949 . S
C3220 C3226 1.368 . S
C3221 C3205 1.349 . S
C3221 H3213 0.950 . S
C3221 C3219 1.327 . S
C3222 C3210 1.349 . S
C3222 H3216 0.950 . S
C3222 C3223 1.327 . S
C3223 H3217 0.950 . S
C3223 C3222 1.327 . S
C3223 C3227 1.429 . S
C3224 C3207 1.574 . S
C3224 H3218 0.949 . S
C3224 C3228 1.368 . S
C3225 C3206 1.429 . S
C3225 C3219 1.429 . S
C3225 C3226 1.523 . S
C3226 C3207 1.368 . S
C3226 C3220 1.368 . S
C3226 C3225 1.523 . S
C3227 C3211 1.429 . S
C3227 C3223 1.429 . S
C3227 C3228 1.523 . S
C3228 C3212 1.368 . S
C3228 C3224 1.368 . S
C3228 C3227 1.523 . S
H3229 C3204 0.950 . S
H3230 C3206 0.950 . S
H3231 C3207 0.949 . S
H3232 C3209 0.950 . S
H3233 C3211 0.950 . S
C3234 C3235 1.349 . S
C3234 C3236 1.327 . S
C3234 H3259 0.950 . S
C3235 C3234 1.349 . S
C3235 C3251 1.349 . S
C3236 C3234 1.327 . S
C3236 C3255 1.429 . S
C3236 H3260 0.950 . S
C3237 C3254 1.574 . S
C3237 C3256 1.368 . S
C3237 H3261 0.949 . S
H3238 C3242 0.949 . S
C3239 C3240 1.349 . S
C3239 C3241 1.327 . S
C3239 H3262 0.950 . S
C3240 C3239 1.349 . S
C3240 C3252 1.349 . S
C3241 C3239 1.327 . S
C3241 C3257 1.429 . S
C3241 H3263 0.950 . S
C3242 H3238 0.949 . S
C3242 C3250 1.574 . S
C3242 C3258 1.368 . S
H3243 C3251 0.950 . S
H3244 C3249 0.950 . S
H3245 C3250 0.949 . S
H3246 C3252 0.950 . S
H3247 C3253 0.950 . S
H3248 C3254 0.949 . S
C3249 H3244 0.950 . S
C3249 C3251 1.327 . S
C3249 C3255 1.429 . S
C3250 C3242 1.574 . S
C3250 H3245 0.949 . S
C3250 C3256 1.368 . S
C3251 C3235 1.349 . S
C3251 H3243 0.950 . S
C3251 C3249 1.327 . S
C3252 C3240 1.349 . S
C3252 H3246 0.950 . S
C3252 C3253 1.327 . S
C3253 H3247 0.950 . S
C3253 C3252 1.327 . S
C3253 C3257 1.429 . S
C3254 C3237 1.574 . S
C3254 H3248 0.949 . S
C3254 C3258 1.368 . S
C3255 C3236 1.429 . S
C3255 C3249 1.429 . S
C3255 C3256 1.523 . S
C3256 C3237 1.368 . S
C3256 C3250 1.368 . S
C3256 C3255 1.523 . S
C3257 C3241 1.429 . S
C3257 C3253 1.429 . S
C3257 C3258 1.523 . S
C3258 C3242 1.368 . S
C3258 C3254 1.368 . S
C3258 C3257 1.523 . S
H3259 C3234 0.950 . S
H3260 C3236 0.950 . S
H3261 C3237 0.949 . S
H3262 C3239 0.950 . S
H3263 C3241 0.950 . S
C3264 C3265 1.349 . S
C3264 C3266 1.327 . S
C3264 H3289 0.950 . S
C3265 C3264 1.349 . S
C3265 C3281 1.349 . S
C3266 C3264 1.327 . S
C3266 C3285 1.429 . S
C3266 H3290 0.950 . S
C3267 C3284 1.574 . S
C3267 C3286 1.368 . S
C3267 H3291 0.949 . S
H3268 C3272 0.949 . S
C3269 C3270 1.349 . S
C3269 C3271 1.327 . S
C3269 H3292 0.950 . S
C3270 C3269 1.349 . S
C3270 C3282 1.349 . S
C3271 C3269 1.327 . S
C3271 C3287 1.429 . S
C3271 H3293 0.950 . S
C3272 H3268 0.949 . S
C3272 C3280 1.574 . S
C3272 C3288 1.368 . S
H3273 C3281 0.950 . S
H3274 C3279 0.950 . S
H3275 C3280 0.949 . S
H3276 C3282 0.950 . S
H3277 C3283 0.950 . S
H3278 C3284 0.949 . S
C3279 H3274 0.950 . S
C3279 C3281 1.327 . S
C3279 C3285 1.429 . S
C3280 C3272 1.574 . S
C3280 H3275 0.949 . S
C3280 C3286 1.368 . S
C3281 C3265 1.349 . S
C3281 H3273 0.950 . S
C3281 C3279 1.327 . S
C3282 C3270 1.349 . S
C3282 H3276 0.950 . S
C3282 C3283 1.327 . S
C3283 H3277 0.950 . S
C3283 C3282 1.327 . S
C3283 C3287 1.429 . S
C3284 C3267 1.574 . S
C3284 H3278 0.949 . S
C3284 C3288 1.368 . S
C3285 C3266 1.429 . S
C3285 C3279 1.429 . S
C3285 C3286 1.523 . S
C3286 C3267 1.368 . S
C3286 C3280 1.368 . S
C3286 C3285 1.523 . S
C3287 C3271 1.429 . S
C3287 C3283 1.429 . S
C3287 C3288 1.523 . S
C3288 C3272 1.368 . S
C3288 C3284 1.368 . S
C3288 C3287 1.523 . S
H3289 C3264 0.950 . S
H3290 C3266 0.950 . S
H3291 C3267 0.949 . S
H3292 C3269 0.950 . S
H3293 C3271 0.950 . S
C3294 C3295 1.349 . S
C3294 C3296 1.327 . S
C3294 H3319 0.950 . S
C3295 C3294 1.349 . S
C3295 C3311 1.349 . S
C3296 C3294 1.327 . S
C3296 C3315 1.429 . S
C3296 H3320 0.950 . S
C3297 C3314 1.574 . S
C3297 C3316 1.368 . S
C3297 H3321 0.949 . S
H3298 C3302 0.949 . S
C3299 C3300 1.349 . S
C3299 C3301 1.327 . S
C3299 H3322 0.950 . S
C3300 C3299 1.349 . S
C3300 C3312 1.349 . S
C3301 C3299 1.327 . S
C3301 C3317 1.429 . S
C3301 H3323 0.950 . S
C3302 H3298 0.949 . S
C3302 C3310 1.574 . S
C3302 C3318 1.368 . S
H3303 C3311 0.950 . S
H3304 C3309 0.950 . S
H3305 C3310 0.949 . S
H3306 C3312 0.950 . S
H3307 C3313 0.950 . S
H3308 C3314 0.949 . S
C3309 H3304 0.950 . S
C3309 C3311 1.327 . S
C3309 C3315 1.429 . S
C3310 C3302 1.574 . S
C3310 H3305 0.949 . S
C3310 C3316 1.368 . S
C3311 C3295 1.349 . S
C3311 H3303 0.950 . S
C3311 C3309 1.327 . S
C3312 C3300 1.349 . S
C3312 H3306 0.950 . S
C3312 C3313 1.327 . S
C3313 H3307 0.950 . S
C3313 C3312 1.327 . S
C3313 C3317 1.429 . S
C3314 C3297 1.574 . S
C3314 H3308 0.949 . S
C3314 C3318 1.368 . S
C3315 C3296 1.429 . S
C3315 C3309 1.429 . S
C3315 C3316 1.523 . S
C3316 C3297 1.368 . S
C3316 C3310 1.368 . S
C3316 C3315 1.523 . S
C3317 C3301 1.429 . S
C3317 C3313 1.429 . S
C3317 C3318 1.523 . S
C3318 C3302 1.368 . S
C3318 C3314 1.368 . S
C3318 C3317 1.523 . S
H3319 C3294 0.950 . S
H3320 C3296 0.950 . S
H3321 C3297 0.949 . S
H3322 C3299 0.950 . S
H3323 C3301 0.950 . S
C3324 C3325 1.349 . S
C3324 C3326 1.327 . S
C3324 H3349 0.950 . S
C3325 C3324 1.349 . S
C3325 C3341 1.349 . S
C3326 C3324 1.327 . S
C3326 C3345 1.429 . S
C3326 H3350 0.950 . S
C3327 C3344 1.574 . S
C3327 C3346 1.368 . S
C3327 H3351 0.949 . S
H3328 C3332 0.949 . S
C3329 C3330 1.349 . S
C3329 C3331 1.327 . S
C3329 H3352 0.950 . S
C3330 C3329 1.349 . S
C3330 C3342 1.349 . S
C3331 C3329 1.327 . S
C3331 C3347 1.429 . S
C3331 H3353 0.950 . S
C3332 H3328 0.949 . S
C3332 C3340 1.574 . S
C3332 C3348 1.368 . S
H3333 C3341 0.950 . S
H3334 C3339 0.950 . S
H3335 C3340 0.949 . S
H3336 C3342 0.950 . S
H3337 C3343 0.950 . S
H3338 C3344 0.949 . S
C3339 H3334 0.950 . S
C3339 C3341 1.327 . S
C3339 C3345 1.429 . S
C3340 C3332 1.574 . S
C3340 H3335 0.949 . S
C3340 C3346 1.368 . S
C3341 C3325 1.349 . S
C3341 H3333 0.950 . S
C3341 C3339 1.327 . S
C3342 C3330 1.349 . S
C3342 H3336 0.950 . S
C3342 C3343 1.327 . S
C3343 H3337 0.950 . S
C3343 C3342 1.327 . S
C3343 C3347 1.429 . S
C3344 C3327 1.574 . S
C3344 H3338 0.949 . S
C3344 C3348 1.368 . S
C3345 C3326 1.429 . S
C3345 C3339 1.429 . S
C3345 C3346 1.523 . S
C3346 C3327 1.368 . S
C3346 C3340 1.368 . S
C3346 C3345 1.523 . S
C3347 C3331 1.429 . S
C3347 C3343 1.429 . S
C3347 C3348 1.523 . S
C3348 C3332 1.368 . S
C3348 C3344 1.368 . S
C3348 C3347 1.523 . S
H3349 C3324 0.950 . S
H3350 C3326 0.950 . S
H3351 C3327 0.949 . S
H3352 C3329 0.950 . S
H3353 C3331 0.950 . S
C3354 C3355 1.349 . S
C3354 C3356 1.327 . S
C3354 H3379 0.950 . S
C3355 C3354 1.349 . S
C3355 C3371 1.349 . S
C3356 C3354 1.327 . S
C3356 C3375 1.429 . S
C3356 H3380 0.950 . S
C3357 C3374 1.574 . S
C3357 C3376 1.368 . S
C3357 H3381 0.949 . S
H3358 C3362 0.949 . S
C3359 C3360 1.349 . S
C3359 C3361 1.327 . S
C3359 H3382 0.950 . S
C3360 C3359 1.349 . S
C3360 C3372 1.349 . S
C3361 C3359 1.327 . S
C3361 C3377 1.429 . S
C3361 H3383 0.950 . S
C3362 H3358 0.949 . S
C3362 C3370 1.574 . S
C3362 C3378 1.368 . S
H3363 C3371 0.950 . S
H3364 C3369 0.950 . S
H3365 C3370 0.949 . S
H3366 C3372 0.950 . S
H3367 C3373 0.950 . S
H3368 C3374 0.949 . S
C3369 H3364 0.950 . S
C3369 C3371 1.327 . S
C3369 C3375 1.429 . S
C3370 C3362 1.574 . S
C3370 H3365 0.949 . S
C3370 C3376 1.368 . S
C3371 C3355 1.349 . S
C3371 H3363 0.950 . S
C3371 C3369 1.327 . S
C3372 C3360 1.349 . S
C3372 H3366 0.950 . S
C3372 C3373 1.327 . S
C3373 H3367 0.950 . S
C3373 C3372 1.327 . S
C3373 C3377 1.429 . S
C3374 C3357 1.574 . S
C3374 H3368 0.949 . S
C3374 C3378 1.368 . S
C3375 C3356 1.429 . S
C3375 C3369 1.429 . S
C3375 C3376 1.523 . S
C3376 C3357 1.368 . S
C3376 C3370 1.368 . S
C3376 C3375 1.523 . S
C3377 C3361 1.429 . S
C3377 C3373 1.429 . S
C3377 C3378 1.523 . S
C3378 C3362 1.368 . S
C3378 C3374 1.368 . S
C3378 C3377 1.523 . S
H3379 C3354 0.950 . S
H3380 C3356 0.950 . S
H3381 C3357 0.949 . S
H3382 C3359 0.950 . S
H3383 C3361 0.950 . S
C3384 C3385 1.349 . S
C3384 C3386 1.327 . S
C3384 H3409 0.950 . S
C3385 C3384 1.349 . S
C3385 C3401 1.349 . S
C3386 C3384 1.327 . S
C3386 C3405 1.429 . S
C3386 H3410 0.950 . S
C3387 C3404 1.574 . S
C3387 C3406 1.368 . S
C3387 H3411 0.949 . S
H3388 C3392 0.949 . S
C3389 C3390 1.349 . S
C3389 C3391 1.327 . S
C3389 H3412 0.950 . S
C3390 C3389 1.349 . S
C3390 C3402 1.349 . S
C3391 C3389 1.327 . S
C3391 C3407 1.429 . S
C3391 H3413 0.950 . S
C3392 H3388 0.949 . S
C3392 C3400 1.574 . S
C3392 C3408 1.368 . S
H3393 C3401 0.950 . S
H3394 C3399 0.950 . S
H3395 C3400 0.949 . S
H3396 C3402 0.950 . S
H3397 C3403 0.950 . S
H3398 C3404 0.949 . S
C3399 H3394 0.950 . S
C3399 C3401 1.327 . S
C3399 C3405 1.429 . S
C3400 C3392 1.574 . S
C3400 H3395 0.949 . S
C3400 C3406 1.368 . S
C3401 C3385 1.349 . S
C3401 H3393 0.950 . S
C3401 C3399 1.327 . S
C3402 C3390 1.349 . S
C3402 H3396 0.950 . S
C3402 C3403 1.327 . S
C3403 H3397 0.950 . S
C3403 C3402 1.327 . S
C3403 C3407 1.429 . S
C3404 C3387 1.574 . S
C3404 H3398 0.949 . S
C3404 C3408 1.368 . S
C3405 C3386 1.429 . S
C3405 C3399 1.429 . S
C3405 C3406 1.523 . S
C3406 C3387 1.368 . S
C3406 C3400 1.368 . S
C3406 C3405 1.523 . S
C3407 C3391 1.429 . S
C3407 C3403 1.429 . S
C3407 C3408 1.523 . S
C3408 C3392 1.368 . S
C3408 C3404 1.368 . S
C3408 C3407 1.523 . S
H3409 C3384 0.950 . S
H3410 C3386 0.950 . S
H3411 C3387 0.949 . S
H3412 C3389 0.950 . S
H3413 C3391 0.950 . S
C3414 C3415 1.349 . S
C3414 C3416 1.327 . S
C3414 H3439 0.950 . S
C3415 C3414 1.349 . S
C3415 C3431 1.349 . S
C3416 C3414 1.327 . S
C3416 C3435 1.429 . S
C3416 H3440 0.950 . S
C3417 C3434 1.574 . S
C3417 C3436 1.368 . S
C3417 H3441 0.949 . S
H3418 C3422 0.949 . S
C3419 C3420 1.349 . S
C3419 C3421 1.327 . S
C3419 H3442 0.950 . S
C3420 C3419 1.349 . S
C3420 C3432 1.349 . S
C3421 C3419 1.327 . S
C3421 C3437 1.429 . S
C3421 H3443 0.950 . S
C3422 H3418 0.949 . S
C3422 C3430 1.574 . S
C3422 C3438 1.368 . S
H3423 C3431 0.950 . S
H3424 C3429 0.950 . S
H3425 C3430 0.949 . S
H3426 C3432 0.950 . S
H3427 C3433 0.950 . S
H3428 C3434 0.949 . S
C3429 H3424 0.950 . S
C3429 C3431 1.327 . S
C3429 C3435 1.429 . S
C3430 C3422 1.574 . S
C3430 H3425 0.949 . S
C3430 C3436 1.368 . S
C3431 C3415 1.349 . S
C3431 H3423 0.950 . S
C3431 C3429 1.327 . S
C3432 C3420 1.349 . S
C3432 H3426 0.950 . S
C3432 C3433 1.327 . S
C3433 H3427 0.950 . S
C3433 C3432 1.327 . S
C3433 C3437 1.429 . S
C3434 C3417 1.574 . S
C3434 H3428 0.949 . S
C3434 C3438 1.368 . S
C3435 C3416 1.429 . S
C3435 C3429 1.429 . S
C3435 C3436 1.523 . S
C3436 C3417 1.368 . S
C3436 C3430 1.368 . S
C3436 C3435 1.523 . S
C3437 C3421 1.429 . S
C3437 C3433 1.429 . S
C3437 C3438 1.523 . S
C3438 C3422 1.368 . S
C3438 C3434 1.368 . S
C3438 C3437 1.523 . S
H3439 C3414 0.950 . S
H3440 C3416 0.950 . S
H3441 C3417 0.949 . S
H3442 C3419 0.950 . S
H3443 C3421 0.950 . S
C3444 C3445 1.349 . S
C3444 C3446 1.327 . S
C3444 H3469 0.950 . S
C3445 C3444 1.349 . S
C3445 C3461 1.349 . S
C3446 C3444 1.327 . S
C3446 C3465 1.429 . S
C3446 H3470 0.950 . S
C3447 C3464 1.574 . S
C3447 C3466 1.368 . S
C3447 H3471 0.949 . S
H3448 C3452 0.949 . S
C3449 C3450 1.349 . S
C3449 C3451 1.327 . S
C3449 H3472 0.950 . S
C3450 C3449 1.349 . S
C3450 C3462 1.349 . S
C3451 C3449 1.327 . S
C3451 C3467 1.429 . S
C3451 H3473 0.950 . S
C3452 H3448 0.949 . S
C3452 C3460 1.574 . S
C3452 C3468 1.368 . S
H3453 C3461 0.950 . S
H3454 C3459 0.950 . S
H3455 C3460 0.949 . S
H3456 C3462 0.950 . S
H3457 C3463 0.950 . S
H3458 C3464 0.949 . S
C3459 H3454 0.950 . S
C3459 C3461 1.327 . S
C3459 C3465 1.429 . S
C3460 C3452 1.574 . S
C3460 H3455 0.949 . S
C3460 C3466 1.368 . S
C3461 C3445 1.349 . S
C3461 H3453 0.950 . S
C3461 C3459 1.327 . S
C3462 C3450 1.349 . S
C3462 H3456 0.950 . S
C3462 C3463 1.327 . S
C3463 H3457 0.950 . S
C3463 C3462 1.327 . S
C3463 C3467 1.429 . S
C3464 C3447 1.574 . S
C3464 H3458 0.949 . S
C3464 C3468 1.368 . S
C3465 C3446 1.429 . S
C3465 C3459 1.429 . S
C3465 C3466 1.523 . S
C3466 C3447 1.368 . S
C3466 C3460 1.368 . S
C3466 C3465 1.523 . S
C3467 C3451 1.429 . S
C3467 C3463 1.429 . S
C3467 C3468 1.523 . S
C3468 C3452 1.368 . S
C3468 C3464 1.368 . S
C3468 C3467 1.523 . S
H3469 C3444 0.950 . S
H3470 C3446 0.950 . S
H3471 C3447 0.949 . S
H3472 C3449 0.950 . S
H3473 C3451 0.950 . S
C3474 C3475 1.349 . S
C3474 C3476 1.327 . S
C3474 H3499 0.950 . S
C3475 C3474 1.349 . S
C3475 C3491 1.349 . S
C3476 C3474 1.327 . S
C3476 C3495 1.429 . S
C3476 H3500 0.950 . S
C3477 C3494 1.574 . S
C3477 C3496 1.368 . S
C3477 H3501 0.949 . S
H3478 C3482 0.949 . S
C3479 C3480 1.349 . S
C3479 C3481 1.327 . S
C3479 H3502 0.950 . S
C3480 C3479 1.349 . S
C3480 C3492 1.349 . S
C3481 C3479 1.327 . S
C3481 C3497 1.429 . S
C3481 H3503 0.950 . S
C3482 H3478 0.949 . S
C3482 C3490 1.574 . S
C3482 C3498 1.368 . S
H3483 C3491 0.950 . S
H3484 C3489 0.950 . S
H3485 C3490 0.949 . S
H3486 C3492 0.950 . S
H3487 C3493 0.950 . S
H3488 C3494 0.949 . S
C3489 H3484 0.950 . S
C3489 C3491 1.327 . S
C3489 C3495 1.429 . S
C3490 C3482 1.574 . S
C3490 H3485 0.949 . S
C3490 C3496 1.368 . S
C3491 C3475 1.349 . S
C3491 H3483 0.950 . S
C3491 C3489 1.327 . S
C3492 C3480 1.349 . S
C3492 H3486 0.950 . S
C3492 C3493 1.327 . S
C3493 H3487 0.950 . S
C3493 C3492 1.327 . S
C3493 C3497 1.429 . S
C3494 C3477 1.574 . S
C3494 H3488 0.949 . S
C3494 C3498 1.368 . S
C3495 C3476 1.429 . S
C3495 C3489 1.429 . S
C3495 C3496 1.523 . S
C3496 C3477 1.368 . S
C3496 C3490 1.368 . S
C3496 C3495 1.523 . S
C3497 C3481 1.429 . S
C3497 C3493 1.429 . S
C3497 C3498 1.523 . S
C3498 C3482 1.368 . S
C3498 C3494 1.368 . S
C3498 C3497 1.523 . S
H3499 C3474 0.950 . S
H3500 C3476 0.950 . S
H3501 C3477 0.949 . S
H3502 C3479 0.950 . S
H3503 C3481 0.950 . S
C3504 C3505 1.349 . S
C3504 C3506 1.327 . S
C3504 H3529 0.950 . S
C3505 C3504 1.349 . S
C3505 C3521 1.349 . S
C3506 C3504 1.327 . S
C3506 C3525 1.429 . S
C3506 H3530 0.950 . S
C3507 C3524 1.574 . S
C3507 C3526 1.368 . S
C3507 H3531 0.949 . S
H3508 C3512 0.949 . S
C3509 C3510 1.349 . S
C3509 C3511 1.327 . S
C3509 H3532 0.950 . S
C3510 C3509 1.349 . S
C3510 C3522 1.349 . S
C3511 C3509 1.327 . S
C3511 C3527 1.429 . S
C3511 H3533 0.950 . S
C3512 H3508 0.949 . S
C3512 C3520 1.574 . S
C3512 C3528 1.368 . S
H3513 C3521 0.950 . S
H3514 C3519 0.950 . S
H3515 C3520 0.949 . S
H3516 C3522 0.950 . S
H3517 C3523 0.950 . S
H3518 C3524 0.949 . S
C3519 H3514 0.950 . S
C3519 C3521 1.327 . S
C3519 C3525 1.429 . S
C3520 C3512 1.574 . S
C3520 H3515 0.949 . S
C3520 C3526 1.368 . S
C3521 C3505 1.349 . S
C3521 H3513 0.950 . S
C3521 C3519 1.327 . S
C3522 C3510 1.349 . S
C3522 H3516 0.950 . S
C3522 C3523 1.327 . S
C3523 H3517 0.950 . S
C3523 C3522 1.327 . S
C3523 C3527 1.429 . S
C3524 C3507 1.574 . S
C3524 H3518 0.949 . S
C3524 C3528 1.368 . S
C3525 C3506 1.429 . S
C3525 C3519 1.429 . S
C3525 C3526 1.523 . S
C3526 C3507 1.368 . S
C3526 C3520 1.368 . S
C3526 C3525 1.523 . S
C3527 C3511 1.429 . S
C3527 C3523 1.429 . S
C3527 C3528 1.523 . S
C3528 C3512 1.368 . S
C3528 C3524 1.368 . S
C3528 C3527 1.523 . S
H3529 C3504 0.950 . S
H3530 C3506 0.950 . S
H3531 C3507 0.949 . S
H3532 C3509 0.950 . S
H3533 C3511 0.950 . S
C3534 C3535 1.349 . S
C3534 C3536 1.327 . S
C3534 H3559 0.950 . S
C3535 C3534 1.349 . S
C3535 C3551 1.349 . S
C3536 C3534 1.327 . S
C3536 C3555 1.429 . S
C3536 H3560 0.950 . S
C3537 C3554 1.574 . S
C3537 C3556 1.368 . S
C3537 H3561 0.949 . S
H3538 C3542 0.949 . S
C3539 C3540 1.349 . S
C3539 C3541 1.327 . S
C3539 H3562 0.950 . S
C3540 C3539 1.349 . S
C3540 C3552 1.349 . S
C3541 C3539 1.327 . S
C3541 C3557 1.429 . S
C3541 H3563 0.950 . S
C3542 H3538 0.949 . S
C3542 C3550 1.574 . S
C3542 C3558 1.368 . S
H3543 C3551 0.950 . S
H3544 C3549 0.950 . S
H3545 C3550 0.949 . S
H3546 C3552 0.950 . S
H3547 C3553 0.950 . S
H3548 C3554 0.949 . S
C3549 H3544 0.950 . S
C3549 C3551 1.327 . S
C3549 C3555 1.429 . S
C3550 C3542 1.574 . S
C3550 H3545 0.949 . S
C3550 C3556 1.368 . S
C3551 C3535 1.349 . S
C3551 H3543 0.950 . S
C3551 C3549 1.327 . S
C3552 C3540 1.349 . S
C3552 H3546 0.950 . S
C3552 C3553 1.327 . S
C3553 H3547 0.950 . S
C3553 C3552 1.327 . S
C3553 C3557 1.429 . S
C3554 C3537 1.574 . S
C3554 H3548 0.949 . S
C3554 C3558 1.368 . S
C3555 C3536 1.429 . S
C3555 C3549 1.429 . S
C3555 C3556 1.523 . S
C3556 C3537 1.368 . S
C3556 C3550 1.368 . S
C3556 C3555 1.523 . S
C3557 C3541 1.429 . S
C3557 C3553 1.429 . S
C3557 C3558 1.523 . S
C3558 C3542 1.368 . S
C3558 C3554 1.368 . S
C3558 C3557 1.523 . S
H3559 C3534 0.950 . S
H3560 C3536 0.950 . S
H3561 C3537 0.949 . S
H3562 C3539 0.950 . S
H3563 C3541 0.950 . S
C3564 C3565 1.349 . S
C3564 C3566 1.327 . S
C3564 H3589 0.950 . S
C3565 C3564 1.349 . S
C3565 C3581 1.349 . S
C3566 C3564 1.327 . S
C3566 C3585 1.429 . S
C3566 H3590 0.950 . S
C3567 C3584 1.574 . S
C3567 C3586 1.368 . S
C3567 H3591 0.949 . S
H3568 C3572 0.949 . S
C3569 C3570 1.349 . S
C3569 C3571 1.327 . S
C3569 H3592 0.950 . S
C3570 C3569 1.349 . S
C3570 C3582 1.349 . S
C3571 C3569 1.327 . S
C3571 C3587 1.429 . S
C3571 H3593 0.950 . S
C3572 H3568 0.949 . S
C3572 C3580 1.574 . S
C3572 C3588 1.368 . S
H3573 C3581 0.950 . S
H3574 C3579 0.950 . S
H3575 C3580 0.949 . S
H3576 C3582 0.950 . S
H3577 C3583 0.950 . S
H3578 C3584 0.949 . S
C3579 H3574 0.950 . S
C3579 C3581 1.327 . S
C3579 C3585 1.429 . S
C3580 C3572 1.574 . S
C3580 H3575 0.949 . S
C3580 C3586 1.368 . S
C3581 C3565 1.349 . S
C3581 H3573 0.950 . S
C3581 C3579 1.327 . S
C3582 C3570 1.349 . S
C3582 H3576 0.950 . S
C3582 C3583 1.327 . S
C3583 H3577 0.950 . S
C3583 C3582 1.327 . S
C3583 C3587 1.429 . S
C3584 C3567 1.574 . S
C3584 H3578 0.949 . S
C3584 C3588 1.368 . S
C3585 C3566 1.429 . S
C3585 C3579 1.429 . S
C3585 C3586 1.523 . S
C3586 C3567 1.368 . S
C3586 C3580 1.368 . S
C3586 C3585 1.523 . S
C3587 C3571 1.429 . S
C3587 C3583 1.429 . S
C3587 C3588 1.523 . S
C3588 C3572 1.368 . S
C3588 C3584 1.368 . S
C3588 C3587 1.523 . S
H3589 C3564 0.950 . S
H3590 C3566 0.950 . S
H3591 C3567 0.949 . S
H3592 C3569 0.950 . S
H3593 C3571 0.950 . S
C3594 C3595 1.349 . S
C3594 C3596 1.327 . S
C3594 H3619 0.950 . S
C3595 C3594 1.349 . S
C3595 C3611 1.349 . S
C3596 C3594 1.327 . S
C3596 C3615 1.429 . S
C3596 H3620 0.950 . S
C3597 C3614 1.574 . S
C3597 C3616 1.368 . S
C3597 H3621 0.949 . S
H3598 C3602 0.949 . S
C3599 C3600 1.349 . S
C3599 C3601 1.327 . S
C3599 H3622 0.950 . S
C3600 C3599 1.349 . S
C3600 C3612 1.349 . S
C3601 C3599 1.327 . S
C3601 C3617 1.429 . S
C3601 H3623 0.950 . S
C3602 H3598 0.949 . S
C3602 C3610 1.574 . S
C3602 C3618 1.368 . S
H3603 C3611 0.950 . S
H3604 C3609 0.950 . S
H3605 C3610 0.949 . S
H3606 C3612 0.950 . S
H3607 C3613 0.950 . S
H3608 C3614 0.949 . S
C3609 H3604 0.950 . S
C3609 C3611 1.327 . S
C3609 C3615 1.429 . S
C3610 C3602 1.574 . S
C3610 H3605 0.949 . S
C3610 C3616 1.368 . S
C3611 C3595 1.349 . S
C3611 H3603 0.950 . S
C3611 C3609 1.327 . S
C3612 C3600 1.349 . S
C3612 H3606 0.950 . S
C3612 C3613 1.327 . S
C3613 H3607 0.950 . S
C3613 C3612 1.327 . S
C3613 C3617 1.429 . S
C3614 C3597 1.574 . S
C3614 H3608 0.949 . S
C3614 C3618 1.368 . S
C3615 C3596 1.429 . S
C3615 C3609 1.429 . S
C3615 C3616 1.523 . S
C3616 C3597 1.368 . S
C3616 C3610 1.368 . S
C3616 C3615 1.523 . S
C3617 C3601 1.429 . S
C3617 C3613 1.429 . S
C3617 C3618 1.523 . S
C3618 C3602 1.368 . S
C3618 C3614 1.368 . S
C3618 C3617 1.523 . S
H3619 C3594 0.950 . S
H3620 C3596 0.950 . S
H3621 C3597 0.949 . S
H3622 C3599 0.950 . S
H3623 C3601 0.950 . S
C3624 C3625 1.349 . S
C3624 C3626 1.327 . S
C3624 H3649 0.950 . S
C3625 C3624 1.349 . S
C3625 C3641 1.349 . S
C3626 C3624 1.327 . S
C3626 C3645 1.429 . S
C3626 H3650 0.950 . S
C3627 C3644 1.574 . S
C3627 C3646 1.368 . S
C3627 H3651 0.949 . S
H3628 C3632 0.949 . S
C3629 C3630 1.349 . S
C3629 C3631 1.327 . S
C3629 H3652 0.950 . S
C3630 C3629 1.349 . S
C3630 C3642 1.349 . S
C3631 C3629 1.327 . S
C3631 C3647 1.429 . S
C3631 H3653 0.950 . S
C3632 H3628 0.949 . S
C3632 C3640 1.574 . S
C3632 C3648 1.368 . S
H3633 C3641 0.950 . S
H3634 C3639 0.950 . S
H3635 C3640 0.949 . S
H3636 C3642 0.950 . S
H3637 C3643 0.950 . S
H3638 C3644 0.949 . S
C3639 H3634 0.950 . S
C3639 C3641 1.327 . S
C3639 C3645 1.429 . S
C3640 C3632 1.574 . S
C3640 H3635 0.949 . S
C3640 C3646 1.368 . S
C3641 C3625 1.349 . S
C3641 H3633 0.950 . S
C3641 C3639 1.327 . S
C3642 C3630 1.349 . S
C3642 H3636 0.950 . S
C3642 C3643 1.327 . S
C3643 H3637 0.950 . S
C3643 C3642 1.327 . S
C3643 C3647 1.429 . S
C3644 C3627 1.574 . S
C3644 H3638 0.949 . S
C3644 C3648 1.368 . S
C3645 C3626 1.429 . S
C3645 C3639 1.429 . S
C3645 C3646 1.523 . S
C3646 C3627 1.368 . S
C3646 C3640 1.368 . S
C3646 C3645 1.523 . S
C3647 C3631 1.429 . S
C3647 C3643 1.429 . S
C3647 C3648 1.523 . S
C3648 C3632 1.368 . S
C3648 C3644 1.368 . S
C3648 C3647 1.523 . S
H3649 C3624 0.950 . S
H3650 C3626 0.950 . S
H3651 C3627 0.949 . S
H3652 C3629 0.950 . S
H3653 C3631 0.950 . S
C3654 C3655 1.349 . S
C3654 C3656 1.327 . S
C3654 H3679 0.950 . S
C3655 C3654 1.349 . S
C3655 C3671 1.349 . S
C3656 C3654 1.327 . S
C3656 C3675 1.429 . S
C3656 H3680 0.950 . S
C3657 C3674 1.574 . S
C3657 C3676 1.368 . S
C3657 H3681 0.949 . S
H3658 C3662 0.949 . S
C3659 C3660 1.349 . S
C3659 C3661 1.327 . S
C3659 H3682 0.950 . S
C3660 C3659 1.349 . S
C3660 C3672 1.349 . S
C3661 C3659 1.327 . S
C3661 C3677 1.429 . S
C3661 H3683 0.950 . S
C3662 H3658 0.949 . S
C3662 C3670 1.574 . S
C3662 C3678 1.368 . S
H3663 C3671 0.950 . S
H3664 C3669 0.950 . S
H3665 C3670 0.949 . S
H3666 C3672 0.950 . S
H3667 C3673 0.950 . S
H3668 C3674 0.949 . S
C3669 H3664 0.950 . S
C3669 C3671 1.327 . S
C3669 C3675 1.429 . S
C3670 C3662 1.574 . S
C3670 H3665 0.949 . S
C3670 C3676 1.368 . S
C3671 C3655 1.349 . S
C3671 H3663 0.950 . S
C3671 C3669 1.327 . S
C3672 C3660 1.349 . S
C3672 H3666 0.950 . S
C3672 C3673 1.327 . S
C3673 H3667 0.950 . S
C3673 C3672 1.327 . S
C3673 C3677 1.429 . S
C3674 C3657 1.574 . S
C3674 H3668 0.949 . S
C3674 C3678 1.368 . S
C3675 C3656 1.429 . S
C3675 C3669 1.429 . S
C3675 C3676 1.523 . S
C3676 C3657 1.368 . S
C3676 C3670 1.368 . S
C3676 C3675 1.523 . S
C3677 C3661 1.429 . S
C3677 C3673 1.429 . S
C3677 C3678 1.523 . S
C3678 C3662 1.368 . S
C3678 C3674 1.368 . S
C3678 C3677 1.523 . S
H3679 C3654 0.950 . S
H3680 C3656 0.950 . S
H3681 C3657 0.949 . S
H3682 C3659 0.950 . S
H3683 C3661 0.950 . S
C3684 C3685 1.349 . S
C3684 C3686 1.327 . S
C3684 H3709 0.950 . S
C3685 C3684 1.349 . S
C3685 C3701 1.349 . S
C3686 C3684 1.327 . S
C3686 C3705 1.429 . S
C3686 H3710 0.950 . S
C3687 C3704 1.574 . S
C3687 C3706 1.368 . S
C3687 H3711 0.949 . S
H3688 C3692 0.949 . S
C3689 C3690 1.349 . S
C3689 C3691 1.327 . S
C3689 H3712 0.950 . S
C3690 C3689 1.349 . S
C3690 C3702 1.349 . S
C3691 C3689 1.327 . S
C3691 C3707 1.429 . S
C3691 H3713 0.950 . S
C3692 H3688 0.949 . S
C3692 C3700 1.574 . S
C3692 C3708 1.368 . S
H3693 C3701 0.950 . S
H3694 C3699 0.950 . S
H3695 C3700 0.949 . S
H3696 C3702 0.950 . S
H3697 C3703 0.950 . S
H3698 C3704 0.949 . S
C3699 H3694 0.950 . S
C3699 C3701 1.327 . S
C3699 C3705 1.429 . S
C3700 C3692 1.574 . S
C3700 H3695 0.949 . S
C3700 C3706 1.368 . S
C3701 C3685 1.349 . S
C3701 H3693 0.950 . S
C3701 C3699 1.327 . S
C3702 C3690 1.349 . S
C3702 H3696 0.950 . S
C3702 C3703 1.327 . S
C3703 H3697 0.950 . S
C3703 C3702 1.327 . S
C3703 C3707 1.429 . S
C3704 C3687 1.574 . S
C3704 H3698 0.949 . S
C3704 C3708 1.368 . S
C3705 C3686 1.429 . S
C3705 C3699 1.429 . S
C3705 C3706 1.523 . S
C3706 C3687 1.368 . S
C3706 C3700 1.368 . S
C3706 C3705 1.523 . S
C3707 C3691 1.429 . S
C3707 C3703 1.429 . S
C3707 C3708 1.523 . S
C3708 C3692 1.368 . S
C3708 C3704 1.368 . S
C3708 C3707 1.523 . S
H3709 C3684 0.950 . S
H3710 C3686 0.950 . S
H3711 C3687 0.949 . S
H3712 C3689 0.950 . S
H3713 C3691 0.950 . S
C3714 C3715 1.349 . S
C3714 C3716 1.327 . S
C3714 H3739 0.950 . S
C3715 C3714 1.349 . S
C3715 C3731 1.349 . S
C3716 C3714 1.327 . S
C3716 C3735 1.429 . S
C3716 H3740 0.950 . S
C3717 C3734 1.574 . S
C3717 C3736 1.368 . S
C3717 H3741 0.949 . S
H3718 C3722 0.949 . S
C3719 C3720 1.349 . S
C3719 C3721 1.327 . S
C3719 H3742 0.950 . S
C3720 C3719 1.349 . S
C3720 C3732 1.349 . S
C3721 C3719 1.327 . S
C3721 C3737 1.429 . S
C3721 H3743 0.950 . S
C3722 H3718 0.949 . S
C3722 C3730 1.574 . S
C3722 C3738 1.368 . S
H3723 C3731 0.950 . S
H3724 C3729 0.950 . S
H3725 C3730 0.949 . S
H3726 C3732 0.950 . S
H3727 C3733 0.950 . S
H3728 C3734 0.949 . S
C3729 H3724 0.950 . S
C3729 C3731 1.327 . S
C3729 C3735 1.429 . S
C3730 C3722 1.574 . S
C3730 H3725 0.949 . S
C3730 C3736 1.368 . S
C3731 C3715 1.349 . S
C3731 H3723 0.950 . S
C3731 C3729 1.327 . S
C3732 C3720 1.349 . S
C3732 H3726 0.950 . S
C3732 C3733 1.327 . S
C3733 H3727 0.950 . S
C3733 C3732 1.327 . S
C3733 C3737 1.429 . S
C3734 C3717 1.574 . S
C3734 H3728 0.949 . S
C3734 C3738 1.368 . S
C3735 C3716 1.429 . S
C3735 C3729 1.429 . S
C3735 C3736 1.523 . S
C3736 C3717 1.368 . S
C3736 C3730 1.368 . S
C3736 C3735 1.523 . S
C3737 C3721 1.429 . S
C3737 C3733 1.429 . S
C3737 C3738 1.523 . S
C3738 C3722 1.368 . S
C3738 C3734 1.368 . S
C3738 C3737 1.523 . S
H3739 C3714 0.950 . S
H3740 C3716 0.950 . S
H3741 C3717 0.949 . S
H3742 C3719 0.950 . S
H3743 C3721 0.950 . S
C3744 C3745 1.349 . S
C3744 C3746 1.327 . S
C3744 H3769 0.950 . S
C3745 C3744 1.349 . S
C3745 C3761 1.349 . S
C3746 C3744 1.327 . S
C3746 C3765 1.429 . S
C3746 H3770 0.950 . S
C3747 C3764 1.574 . S
C3747 C3766 1.368 . S
C3747 H3771 0.949 . S
H3748 C3752 0.949 . S
C3749 C3750 1.349 . S
C3749 C3751 1.327 . S
C3749 H3772 0.950 . S
C3750 C3749 1.349 . S
C3750 C3762 1.349 . S
C3751 C3749 1.327 . S
C3751 C3767 1.429 . S
C3751 H3773 0.950 . S
C3752 H3748 0.949 . S
C3752 C3760 1.574 . S
C3752 C3768 1.368 . S
H3753 C3761 0.950 . S
H3754 C3759 0.950 . S
H3755 C3760 0.949 . S
H3756 C3762 0.950 . S
H3757 C3763 0.950 . S
H3758 C3764 0.949 . S
C3759 H3754 0.950 . S
C3759 C3761 1.327 . S
C3759 C3765 1.429 . S
C3760 C3752 1.574 . S
C3760 H3755 0.949 . S
C3760 C3766 1.368 . S
C3761 C3745 1.349 . S
C3761 H3753 0.950 . S
C3761 C3759 1.327 . S
C3762 C3750 1.349 . S
C3762 H3756 0.950 . S
C3762 C3763 1.327 . S
C3763 H3757 0.950 . S
C3763 C3762 1.327 . S
C3763 C3767 1.429 . S
C3764 C3747 1.574 . S
C3764 H3758 0.949 . S
C3764 C3768 1.368 . S
C3765 C3746 1.429 . S
C3765 C3759 1.429 . S
C3765 C3766 1.523 . S
C3766 C3747 1.368 . S
C3766 C3760 1.368 . S
C3766 C3765 1.523 . S
C3767 C3751 1.429 . S
C3767 C3763 1.429 . S
C3767 C3768 1.523 . S
C3768 C3752 1.368 . S
C3768 C3764 1.368 . S
C3768 C3767 1.523 . S
H3769 C3744 0.950 . S
H3770 C3746 0.950 . S
H3771 C3747 0.949 . S
H3772 C3749 0.950 . S
H3773 C3751 0.950 . S
C3774 C3775 1.349 . S
C3774 C3776 1.327 . S
C3774 H3799 0.950 . S
C3775 C3774 1.349 . S
C3775 C3791 1.349 . S
C3776 C3774 1.327 . S
C3776 C3795 1.429 . S
C3776 H3800 0.950 . S
C3777 C3794 1.574 . S
C3777 C3796 1.368 . S
C3777 H3801 0.949 . S
H3778 C3782 0.949 . S
C3779 C3780 1.349 . S
C3779 C3781 1.327 . S
C3779 H3802 0.950 . S
C3780 C3779 1.349 . S
C3780 C3792 1.349 . S
C3781 C3779 1.327 . S
C3781 C3797 1.429 . S
C3781 H3803 0.950 . S
C3782 H3778 0.949 . S
C3782 C3790 1.574 . S
C3782 C3798 1.368 . S
H3783 C3791 0.950 . S
H3784 C3789 0.950 . S
H3785 C3790 0.949 . S
H3786 C3792 0.950 . S
H3787 C3793 0.950 . S
H3788 C3794 0.949 . S
C3789 H3784 0.950 . S
C3789 C3791 1.327 . S
C3789 C3795 1.429 . S
C3790 C3782 1.574 . S
C3790 H3785 0.949 . S
C3790 C3796 1.368 . S
C3791 C3775 1.349 . S
C3791 H3783 0.950 . S
C3791 C3789 1.327 . S
C3792 C3780 1.349 . S
C3792 H3786 0.950 . S
C3792 C3793 1.327 . S
C3793 H3787 0.950 . S
C3793 C3792 1.327 . S
C3793 C3797 1.429 . S
C3794 C3777 1.574 . S
C3794 H3788 0.949 . S
C3794 C3798 1.368 . S
C3795 C3776 1.429 . S
C3795 C3789 1.429 . S
C3795 C3796 1.523 . S
C3796 C3777 1.368 . S
C3796 C3790 1.368 . S
C3796 C3795 1.523 . S
C3797 C3781 1.429 . S
C3797 C3793 1.429 . S
C3797 C3798 1.523 . S
C3798 C3782 1.368 . S
C3798 C3794 1.368 . S
C3798 C3797 1.523 . S
H3799 C3774 0.950 . S
H3800 C3776 0.950 . S
H3801 C3777 0.949 . S
H3802 C3779 0.950 . S
H3803 C3781 0.950 . S
C3804 C3805 1.349 . S
C3804 C3806 1.327 . S
C3804 H3829 0.950 . S
C3805 C3804 1.349 . S
C3805 C3821 1.349 . S
C3806 C3804 1.327 . S
C3806 C3825 1.429 . S
C3806 H3830 0.950 . S
C3807 C3824 1.574 . S
C3807 C3826 1.368 . S
C3807 H3831 0.949 . S
H3808 C3812 0.949 . S
C3809 C3810 1.349 . S
C3809 C3811 1.327 . S
C3809 H3832 0.950 . S
C3810 C3809 1.349 . S
C3810 C3822 1.349 . S
C3811 C3809 1.327 . S
C3811 C3827 1.429 . S
C3811 H3833 0.950 . S
C3812 H3808 0.949 . S
C3812 C3820 1.574 . S
C3812 C3828 1.368 . S
H3813 C3821 0.950 . S
H3814 C3819 0.950 . S
H3815 C3820 0.949 . S
H3816 C3822 0.950 . S
H3817 C3823 0.950 . S
H3818 C3824 0.949 . S
C3819 H3814 0.950 . S
C3819 C3821 1.327 . S
C3819 C3825 1.429 . S
C3820 C3812 1.574 . S
C3820 H3815 0.949 . S
C3820 C3826 1.368 . S
C3821 C3805 1.349 . S
C3821 H3813 0.950 . S
C3821 C3819 1.327 . S
C3822 C3810 1.349 . S
C3822 H3816 0.950 . S
C3822 C3823 1.327 . S
C3823 H3817 0.950 . S
C3823 C3822 1.327 . S
C3823 C3827 1.429 . S
C3824 C3807 1.574 . S
C3824 H3818 0.949 . S
C3824 C3828 1.368 . S
C3825 C3806 1.429 . S
C3825 C3819 1.429 . S
C3825 C3826 1.523 . S
C3826 C3807 1.368 . S
C3826 C3820 1.368 . S
C3826 C3825 1.523 . S
C3827 C3811 1.429 . S
C3827 C3823 1.429 . S
C3827 C3828 1.523 . S
C3828 C3812 1.368 . S
C3828 C3824 1.368 . S
C3828 C3827 1.523 . S
H3829 C3804 0.950 . S
H3830 C3806 0.950 . S
H3831 C3807 0.949 . S
H3832 C3809 0.950 . S
H3833 C3811 0.950 . S
C3834 C3835 1.349 . S
C3834 C3836 1.327 . S
C3834 H3859 0.950 . S
C3835 C3834 1.349 . S
C3835 C3851 1.349 . S
C3836 C3834 1.327 . S
C3836 C3855 1.429 . S
C3836 H3860 0.950 . S
C3837 C3854 1.574 . S
C3837 C3856 1.368 . S
C3837 H3861 0.949 . S
H3838 C3842 0.949 . S
C3839 C3840 1.349 . S
C3839 C3841 1.327 . S
C3839 H3862 0.950 . S
C3840 C3839 1.349 . S
C3840 C3852 1.349 . S
C3841 C3839 1.327 . S
C3841 C3857 1.429 . S
C3841 H3863 0.950 . S
C3842 H3838 0.949 . S
C3842 C3850 1.574 . S
C3842 C3858 1.368 . S
H3843 C3851 0.950 . S
H3844 C3849 0.950 . S
H3845 C3850 0.949 . S
H3846 C3852 0.950 . S
H3847 C3853 0.950 . S
H3848 C3854 0.949 . S
C3849 H3844 0.950 . S
C3849 C3851 1.327 . S
C3849 C3855 1.429 . S
C3850 C3842 1.574 . S
C3850 H3845 0.949 . S
C3850 C3856 1.368 . S
C3851 C3835 1.349 . S
C3851 H3843 0.950 . S
C3851 C3849 1.327 . S
C3852 C3840 1.349 . S
C3852 H3846 0.950 . S
C3852 C3853 1.327 . S
C3853 H3847 0.950 . S
C3853 C3852 1.327 . S
C3853 C3857 1.429 . S
C3854 C3837 1.574 . S
C3854 H3848 0.949 . S
C3854 C3858 1.368 . S
C3855 C3836 1.429 . S
C3855 C3849 1.429 . S
C3855 C3856 1.523 . S
C3856 C3837 1.368 . S
C3856 C3850 1.368 . S
C3856 C3855 1.523 . S
C3857 C3841 1.429 . S
C3857 C3853 1.429 . S
C3857 C3858 1.523 . S
C3858 C3842 1.368 . S
C3858 C3854 1.368 . S
C3858 C3857 1.523 . S
H3859 C3834 0.950 . S
H3860 C3836 0.950 . S
H3861 C3837 0.949 . S
H3862 C3839 0.950 . S
H3863 C3841 0.950 . S
C3864 C3865 1.349 . S
C3864 C3866 1.327 . S
C3864 H3889 0.950 . S
C3865 C3864 1.349 . S
C3865 C3881 1.349 . S
C3866 C3864 1.327 . S
C3866 C3885 1.429 . S
C3866 H3890 0.950 . S
C3867 C3884 1.574 . S
C3867 C3886 1.368 . S
C3867 H3891 0.949 . S
H3868 C3872 0.949 . S
C3869 C3870 1.349 . S
C3869 C3871 1.327 . S
C3869 H3892 0.950 . S
C3870 C3869 1.349 . S
C3870 C3882 1.349 . S
C3871 C3869 1.327 . S
C3871 C3887 1.429 . S
C3871 H3893 0.950 . S
C3872 H3868 0.949 . S
C3872 C3880 1.574 . S
C3872 C3888 1.368 . S
H3873 C3881 0.950 . S
H3874 C3879 0.950 . S
H3875 C3880 0.949 . S
H3876 C3882 0.950 . S
H3877 C3883 0.950 . S
H3878 C3884 0.949 . S
C3879 H3874 0.950 . S
C3879 C3881 1.327 . S
C3879 C3885 1.429 . S
C3880 C3872 1.574 . S
C3880 H3875 0.949 . S
C3880 C3886 1.368 . S
C3881 C3865 1.349 . S
C3881 H3873 0.950 . S
C3881 C3879 1.327 . S
C3882 C3870 1.349 . S
C3882 H3876 0.950 . S
C3882 C3883 1.327 . S
C3883 H3877 0.950 . S
C3883 C3882 1.327 . S
C3883 C3887 1.429 . S
C3884 C3867 1.574 . S
C3884 H3878 0.949 . S
C3884 C3888 1.368 . S
C3885 C3866 1.429 . S
C3885 C3879 1.429 . S
C3885 C3886 1.523 . S
C3886 C3867 1.368 . S
C3886 C3880 1.368 . S
C3886 C3885 1.523 . S
C3887 C3871 1.429 . S
C3887 C3883 1.429 . S
C3887 C3888 1.523 . S
C3888 C3872 1.368 . S
C3888 C3884 1.368 . S
C3888 C3887 1.523 . S
H3889 C3864 0.950 . S
H3890 C3866 0.950 . S
H3891 C3867 0.949 . S
H3892 C3869 0.950 . S
H3893 C3871 0.950 . S
C3894 C3895 1.349 . S
C3894 C3896 1.327 . S
C3894 H3919 0.950 . S
C3895 C3894 1.349 . S
C3895 C3911 1.349 . S
C3896 C3894 1.327 . S
C3896 C3915 1.429 . S
C3896 H3920 0.950 . S
C3897 C3914 1.574 . S
C3897 C3916 1.368 . S
C3897 H3921 0.949 . S
H3898 C3902 0.949 . S
C3899 C3900 1.349 . S
C3899 C3901 1.327 . S
C3899 H3922 0.950 . S
C3900 C3899 1.349 . S
C3900 C3912 1.349 . S
C3901 C3899 1.327 . S
C3901 C3917 1.429 . S
C3901 H3923 0.950 . S
C3902 H3898 0.949 . S
C3902 C3910 1.574 . S
C3902 C3918 1.368 . S
H3903 C3911 0.950 . S
H3904 C3909 0.950 . S
H3905 C3910 0.949 . S
H3906 C3912 0.950 . S
H3907 C3913 0.950 . S
H3908 C3914 0.949 . S
C3909 H3904 0.950 . S
C3909 C3911 1.327 . S
C3909 C3915 1.429 . S
C3910 C3902 1.574 . S
C3910 H3905 0.949 . S
C3910 C3916 1.368 . S
C3911 C3895 1.349 . S
C3911 H3903 0.950 . S
C3911 C3909 1.327 . S
C3912 C3900 1.349 . S
C3912 H3906 0.950 . S
C3912 C3913 1.327 . S
C3913 H3907 0.950 . S
C3913 C3912 1.327 . S
C3913 C3917 1.429 . S
C3914 C3897 1.574 . S
C3914 H3908 0.949 . S
C3914 C3918 1.368 . S
C3915 C3896 1.429 . S
C3915 C3909 1.429 . S
C3915 C3916 1.523 . S
C3916 C3897 1.368 . S
C3916 C3910 1.368 . S
C3916 C3915 1.523 . S
C3917 C3901 1.429 . S
C3917 C3913 1.429 . S
C3917 C3918 1.523 . S
C3918 C3902 1.368 . S
C3918 C3914 1.368 . S
C3918 C3917 1.523 . S
H3919 C3894 0.950 . S
H3920 C3896 0.950 . S
H3921 C3897 0.949 . S
H3922 C3899 0.950 . S
H3923 C3901 0.950 . S
C3924 C3925 1.349 . S
C3924 C3926 1.327 . S
C3924 H3949 0.950 . S
C3925 C3924 1.349 . S
C3925 C3941 1.349 . S
C3926 C3924 1.327 . S
C3926 C3945 1.429 . S
C3926 H3950 0.950 . S
C3927 C3944 1.574 . S
C3927 C3946 1.368 . S
C3927 H3951 0.949 . S
H3928 C3932 0.949 . S
C3929 C3930 1.349 . S
C3929 C3931 1.327 . S
C3929 H3952 0.950 . S
C3930 C3929 1.349 . S
C3930 C3942 1.349 . S
C3931 C3929 1.327 . S
C3931 C3947 1.429 . S
C3931 H3953 0.950 . S
C3932 H3928 0.949 . S
C3932 C3940 1.574 . S
C3932 C3948 1.368 . S
H3933 C3941 0.950 . S
H3934 C3939 0.950 . S
H3935 C3940 0.949 . S
H3936 C3942 0.950 . S
H3937 C3943 0.950 . S
H3938 C3944 0.949 . S
C3939 H3934 0.950 . S
C3939 C3941 1.327 . S
C3939 C3945 1.429 . S
C3940 C3932 1.574 . S
C3940 H3935 0.949 . S
C3940 C3946 1.368 . S
C3941 C3925 1.349 . S
C3941 H3933 0.950 . S
C3941 C3939 1.327 . S
C3942 C3930 1.349 . S
C3942 H3936 0.950 . S
C3942 C3943 1.327 . S
C3943 H3937 0.950 . S
C3943 C3942 1.327 . S
C3943 C3947 1.429 . S
C3944 C3927 1.574 . S
C3944 H3938 0.949 . S
C3944 C3948 1.368 . S
C3945 C3926 1.429 . S
C3945 C3939 1.429 . S
C3945 C3946 1.523 . S
C3946 C3927 1.368 . S
C3946 C3940 1.368 . S
C3946 C3945 1.523 . S
C3947 C3931 1.429 . S
C3947 C3943 1.429 . S
C3947 C3948 1.523 . S
C3948 C3932 1.368 . S
C3948 C3944 1.368 . S
C3948 C3947 1.523 . S
H3949 C3924 0.950 . S
H3950 C3926 0.950 . S
H3951 C3927 0.949 . S
H3952 C3929 0.950 . S
H3953 C3931 0.950 . S
C3954 C3955 1.349 . S
C3954 C3956 1.327 . S
C3954 H3979 0.950 . S
C3955 C3954 1.349 . S
C3955 C3971 1.349 . S
C3956 C3954 1.327 . S
C3956 C3975 1.429 . S
C3956 H3980 0.950 . S
C3957 C3974 1.574 . S
C3957 C3976 1.368 . S
C3957 H3981 0.949 . S
H3958 C3962 0.949 . S
C3959 C3960 1.349 . S
C3959 C3961 1.327 . S
C3959 H3982 0.950 . S
C3960 C3959 1.349 . S
C3960 C3972 1.349 . S
C3961 C3959 1.327 . S
C3961 C3977 1.429 . S
C3961 H3983 0.950 . S
C3962 H3958 0.949 . S
C3962 C3970 1.574 . S
C3962 C3978 1.368 . S
H3963 C3971 0.950 . S
H3964 C3969 0.950 . S
H3965 C3970 0.949 . S
H3966 C3972 0.950 . S
H3967 C3973 0.950 . S
H3968 C3974 0.949 . S
C3969 H3964 0.950 . S
C3969 C3971 1.327 . S
C3969 C3975 1.429 . S
C3970 C3962 1.574 . S
C3970 H3965 0.949 . S
C3970 C3976 1.368 . S
C3971 C3955 1.349 . S
C3971 H3963 0.950 . S
C3971 C3969 1.327 . S
C3972 C3960 1.349 . S
C3972 H3966 0.950 . S
C3972 C3973 1.327 . S
C3973 H3967 0.950 . S
C3973 C3972 1.327 . S
C3973 C3977 1.429 . S
C3974 C3957 1.574 . S
C3974 H3968 0.949 . S
C3974 C3978 1.368 . S
C3975 C3956 1.429 . S
C3975 C3969 1.429 . S
C3975 C3976 1.523 . S
C3976 C3957 1.368 . S
C3976 C3970 1.368 . S
C3976 C3975 1.523 . S
C3977 C3961 1.429 . S
C3977 C3973 1.429 . S
C3977 C3978 1.523 . S
C3978 C3962 1.368 . S
C3978 C3974 1.368 . S
C3978 C3977 1.523 . S
H3979 C3954 0.950 . S
H3980 C3956 0.950 . S
H3981 C3957 0.949 . S
H3982 C3959 0.950 . S
H3983 C3961 0.950 . S
C1105 C375 1.350 . S
C1110 N12 1.342 . S
C1135 C1088 1.355 . S
C1140 N35 1.346 . S
C1165 N58 1.343 . S
C1170 C1042 1.351 . S
C1195 N81 1.340 . S
C1200 C1065 1.343 . S
C1225 C398 1.355 . S
C1230 N104 1.347 . S
C1255 N127 1.348 . S
C1260 C421 1.360 . S
C1285 N150 1.348 . S
C1290 C444 1.356 . S
C1315 C1019 1.350 . S
C1320 N173 1.339 . S
C1345 N196 1.342 . S
C1350 C7 1.350 . S
C1375 C30 1.354 . S
C1380 N219 1.348 . S
C1405 C53 1.348 . S
C1410 N242 1.340 . S
C1435 C76 1.357 . S
C1440 N265 1.350 . S
C1465 C99 1.351 . S
C1470 N288 1.343 . S
C1495 N311 1.339 . S
C1500 C122 1.346 . S
C1525 C145 1.349 . S
C1530 N334 1.341 . S
C1555 N357 1.342 . S
C1560 C168 1.349 . S
C1585 N380 1.342 . S
C1590 C191 1.350 . S
C1615 C283 1.348 . S
C1620 N403 1.340 . S
C1645 N426 1.340 . S
C1650 C306 1.343 . S
C1675 N449 1.345 . S
C1680 C329 1.353 . S
C1705 C904 1.352 . S
C1710 N472 1.344 . S
C1735 N495 1.341 . S
C1740 C789 1.349 . S
C1765 C812 1.355 . S
C1770 N518 1.346 . S
C1795 C766 1.357 . S
C1800 N541 1.350 . S
C1825 C927 1.354 . S
C1830 N564 1.346 . S
C1855 N587 1.339 . S
C1860 C536 1.346 . S
C1885 N610 1.345 . S
C1890 C490 1.353 . S
C1915 N633 1.346 . S
C1920 C513 1.357 . S
C1945 N656 1.341 . S
C1950 C950 1.349 . S
C1975 C973 1.345 . S
C1980 N679 1.332 . S
C2005 N702 1.340 . S
C2010 C996 1.348 . S
C2035 C467 1.352 . S
C2040 N725 1.344 . S
C2065 C559 1.354 . S
C2070 N748 1.346 . S
C2095 N771 1.340 . S
C2100 C582 1.343 . S
C2125 N794 1.348 . S
C2130 C605 1.356 . S
C2155 N817 1.337 . S
C2160 C628 1.341 . S
C2185 N840 1.345 . S
C2190 C651 1.353 . S
C2215 N863 1.346 . S
C2220 C674 1.355 . S
C2245 C697 1.355 . S
C2250 N886 1.347 . S
C2275 C720 1.352 . S
C2280 N909 1.344 . S
C2305 C743 1.354 . S
C2310 N932 1.346 . S
C2335 C835 1.356 . S
C2340 N955 1.348 . S
C2365 C858 1.354 . S
C2370 N978 1.348 . S
C2395 N1001 1.343 . S
C2400 C881 1.351 . S
C2425 N1024 1.342 . S
C2430 C352 1.349 . S
C2455 N1047 1.347 . S
C2460 C237 1.355 . S
C2485 C260 1.348 . S
C2490 N1070 1.336 . S
C2515 N1093 1.337 . S
C2520 C214 1.341 . S
C2545 C16 1.624 . S
C2550 N623 1.526 . S
C2575 N554 1.550 . S
C2580 C39 1.645 . S
C2605 C62 1.619 . S
C2610 N577 1.522 . S
C2635 C85 1.644 . S
C2640 N600 1.549 . S
C2665 C108 1.629 . S
C2670 N117 1.531 . S
C2695 N140 1.561 . S
C2700 C131 1.661 . S
C2725 C154 1.625 . S
C2730 N163 1.527 . S
C2755 C177 1.655 . S
C2760 N94 1.566 . S
C2785 C200 1.624 . S
C2790 N968 1.526 . S
C2815 C223 1.650 . S
C2820 N991 1.562 . S
C2845 C246 1.643 . S
C2850 N462 1.547 . S
C2875 C269 1.656 . S
C2880 N945 1.567 . S
C2905 C292 1.619 . S
C2910 N1060 1.522 . S
C2935 N370 1.555 . S
C2940 C315 1.655 . S
C2965 C338 1.638 . S
C2970 N1083 1.543 . S
C2995 N1037 1.561 . S
C3000 C361 1.661 . S
C3025 N209 1.531 . S
C3030 C384 1.617 . S
C3055 C407 1.643 . S
C3060 N899 1.547 . S
C3085 C430 1.644 . S
C3090 N830 1.549 . S
C3115 N853 1.552 . S
C3120 C453 1.647 . S
C3145 C476 1.639 . S
C3150 N324 1.544 . S
C3175 N807 1.543 . S
C3180 C499 1.638 . S
C3205 N738 1.550 . S
C3210 C522 1.645 . S
C3235 N784 1.561 . S
C3240 C545 1.661 . S
C3265 C568 1.643 . S
C3270 N71 1.547 . S
C3295 C591 1.649 . S
C3300 N2 1.561 . S
C3325 N25 1.552 . S
C3330 C614 1.647 . S
C3355 C637 1.650 . S
C3360 N48 1.562 . S
C3385 C660 1.638 . S
C3390 N669 1.543 . S
C3415 N692 1.543 . S
C3420 C683 1.638 . S
C3445 N715 1.547 . S
C3450 C706 1.643 . S
C3475 C729 1.639 . S
C3480 N646 1.544 . S
C3505 N416 1.547 . S
C3510 C752 1.643 . S
C3535 C775 1.644 . S
C3540 N439 1.549 . S
C3565 C798 1.625 . S
C3570 N1014 1.527 . S
C3595 C821 1.638 . S
C3600 N393 1.543 . S
C3625 C844 1.647 . S
C3630 N508 1.552 . S
C3655 C867 1.645 . S
C3660 N922 1.550 . S
C3685 N531 1.536 . S
C3690 C890 1.622 . S
C3715 C913 1.639 . S
C3720 N485 1.544 . S
C3745 N761 1.547 . S
C3750 C936 1.643 . S
C3775 N347 1.531 . S
C3780 C959 1.618 . S
C3805 N278 1.556 . S
C3810 C982 1.656 . S
C3835 C1005 1.619 . S
C3840 N301 1.522 . S
C3865 C1028 1.655 . S
C3870 N876 1.566 . S
C3895 N255 1.536 . S
C3900 C1051 1.622 . S
C3925 C1074 1.649 . S
C3930 N186 1.561 . S
C3955 N232 1.543 . S
C3960 C1097 1.638 . S
