# Generated by pormake.
# Topology wme, (6)-cn, num edge types: 1
# Building blocks:
#     Node 0, Type 0, BuildingBlock: GEDQOX_clean_sbu_0, # of connection points: 6
#     Node 1, Type 0, BuildingBlock: GEDQOX_clean_sbu_0, # of connection points: 6
#     Node 2, Type 0, BuildingBlock: GEDQOX_clean_sbu_0, # of connection points: 6
#     Node 3, Type 0, BuildingBlock: GEDQOX_clean_sbu_0, # of connection points: 6
#     Node 4, Type 0, BuildingBlock: GEDQOX_clean_sbu_0, # of connection points: 6
#     Node 5, Type 0, BuildingBlock: GEDQOX_clean_sbu_0, # of connection points: 6
#     Node 6, Type 0, BuildingBlock: GEDQOX_clean_sbu_0, # of connection points: 6
#     Node 7, Type 0, BuildingBlock: GEDQOX_clean_sbu_0, # of connection points: 6
#     Node 8, Type 0, BuildingBlock: GEDQOX_clean_sbu_0, # of connection points: 6
#     Node 9, Type 0, BuildingBlock: GEDQOX_clean_sbu_0, # of connection points: 6
#     Node 10, Type 0, BuildingBlock: GEDQOX_clean_sbu_0, # of connection points: 6
#     Node 11, Type 0, BuildingBlock: GEDQOX_clean_sbu_0, # of connection points: 6
#     Edge 12, Type (0, 0), BuildingBlock: ZUJKAS_clean_linker_0, # of connection points: 2
#     Edge 13, Type (0, 0), BuildingBlock: ZUJKAS_clean_linker_0, # of connection points: 2
#     Edge 14, Type (0, 0), BuildingBlock: ZUJKAS_clean_linker_0, # of connection points: 2
#     Edge 15, Type (0, 0), BuildingBlock: ZUJKAS_clean_linker_0, # of connection points: 2
#     Edge 16, Type (0, 0), BuildingBlock: ZUJKAS_clean_linker_0, # of connection points: 2
#     Edge 17, Type (0, 0), BuildingBlock: ZUJKAS_clean_linker_0, # of connection points: 2
#     Edge 18, Type (0, 0), BuildingBlock: ZUJKAS_clean_linker_0, # of connection points: 2
#     Edge 19, Type (0, 0), BuildingBlock: ZUJKAS_clean_linker_0, # of connection points: 2
#     Edge 20, Type (0, 0), BuildingBlock: ZUJKAS_clean_linker_0, # of connection points: 2
#     Edge 21, Type (0, 0), BuildingBlock: ZUJKAS_clean_linker_0, # of connection points: 2
#     Edge 22, Type (0, 0), BuildingBlock: ZUJKAS_clean_linker_0, # of connection points: 2
#     Edge 23, Type (0, 0), BuildingBlock: ZUJKAS_clean_linker_0, # of connection points: 2
#     Edge 24, Type (0, 0), BuildingBlock: ZUJKAS_clean_linker_0, # of connection points: 2
#     Edge 25, Type (0, 0), BuildingBlock: ZUJKAS_clean_linker_0, # of connection points: 2
#     Edge 26, Type (0, 0), BuildingBlock: ZUJKAS_clean_linker_0, # of connection points: 2
#     Edge 27, Type (0, 0), BuildingBlock: ZUJKAS_clean_linker_0, # of connection points: 2
#     Edge 28, Type (0, 0), BuildingBlock: ZUJKAS_clean_linker_0, # of connection points: 2
#     Edge 29, Type (0, 0), BuildingBlock: ZUJKAS_clean_linker_0, # of connection points: 2
#     Edge 30, Type (0, 0), BuildingBlock: ZUJKAS_clean_linker_0, # of connection points: 2
#     Edge 31, Type (0, 0), BuildingBlock: ZUJKAS_clean_linker_0, # of connection points: 2
#     Edge 32, Type (0, 0), BuildingBlock: ZUJKAS_clean_linker_0, # of connection points: 2
#     Edge 33, Type (0, 0), BuildingBlock: ZUJKAS_clean_linker_0, # of connection points: 2
#     Edge 34, Type (0, 0), BuildingBlock: ZUJKAS_clean_linker_0, # of connection points: 2
#     Edge 35, Type (0, 0), BuildingBlock: ZUJKAS_clean_linker_0, # of connection points: 2
#     Edge 36, Type (0, 0), BuildingBlock: ZUJKAS_clean_linker_0, # of connection points: 2
#     Edge 37, Type (0, 0), BuildingBlock: ZUJKAS_clean_linker_0, # of connection points: 2
#     Edge 38, Type (0, 0), BuildingBlock: ZUJKAS_clean_linker_0, # of connection points: 2
#     Edge 39, Type (0, 0), BuildingBlock: ZUJKAS_clean_linker_0, # of connection points: 2
#     Edge 40, Type (0, 0), BuildingBlock: ZUJKAS_clean_linker_0, # of connection points: 2
#     Edge 41, Type (0, 0), BuildingBlock: ZUJKAS_clean_linker_0, # of connection points: 2
#     Edge 42, Type (0, 0), BuildingBlock: ZUJKAS_clean_linker_0, # of connection points: 2
#     Edge 43, Type (0, 0), BuildingBlock: ZUJKAS_clean_linker_0, # of connection points: 2
#     Edge 44, Type (0, 0), BuildingBlock: ZUJKAS_clean_linker_0, # of connection points: 2
#     Edge 45, Type (0, 0), BuildingBlock: ZUJKAS_clean_linker_0, # of connection points: 2
#     Edge 46, Type (0, 0), BuildingBlock: ZUJKAS_clean_linker_0, # of connection points: 2
#     Edge 47, Type (0, 0), BuildingBlock: ZUJKAS_clean_linker_0, # of connection points: 2
# Relax obj value: 0.094
# Max RMSD: 0.196
# Mean RMSD: 0.196
data_MOF--net-wme--node1-GEDQOX_clean_sbu_0--edge1-ZUJKAS_clean_linker_0
_symmetry_space_group_name_H-M    P1
_symmetry_Int_Tables_number       1
_symmetry_cell_setting            triclinic
loop_
_symmetry_equiv_pos_as_xyz
'x, y, z'
_cell_length_a     49.361283
_cell_length_b     49.391788
_cell_length_c     68.078388
_cell_angle_alpha  90.181186
_cell_angle_beta   89.912024
_cell_angle_gamma 120.01535
loop_
_atom_site_label
_atom_site_type_symbol
_atom_site_fract_x
_atom_site_fract_y
_atom_site_fract_z
_atom_type_partial_charge
Nd0 Nd 0.25929 0.36846 0.13859 0.0
Nd1 Nd 0.19357 0.33168 0.12405 0.0
C2 C 0.3124 0.41067 0.15536 0.0
C3 C 0.33698 0.44334 0.15135 0.0
C4 C 0.35146 0.46422 0.16701 0.0
C5 C 0.37513 0.49507 0.16348 0.0
C6 C 0.38496 0.5057 0.14419 0.0
C7 C 0.37017 0.48475 0.12851 0.0
C8 C 0.34635 0.45397 0.13204 0.0
C9 C 0.25657 0.34939 0.10053 0.0
C10 C 0.22437 0.40504 0.1206 0.0
C11 C 0.13831 0.29191 0.10837 0.0
C12 C 0.10789 0.26482 0.11392 0.0
C13 C 0.08827 0.24468 0.09921 0.0
C14 C 0.05854 0.21989 0.10389 0.0
C15 C 0.0477 0.2147 0.12343 0.0
C16 C 0.06777 0.23464 0.13822 0.0
C17 C 0.09758 0.25948 0.13351 0.0
C18 C 0.19853 0.34721 0.16355 0.0
C19 C 0.22859 0.29428 0.13979 0.0
O20 O 0.285 0.40617 0.1607 0.0
O21 O 0.31035 0.38936 0.14306 0.0
O22 O 0.27777 0.35296 0.11304 0.0
O23 O 0.23898 0.35914 0.10732 0.0
O24 O 0.24476 0.40561 0.13332 0.0
O25 O 0.20509 0.37898 0.11134 0.0
O26 O 0.16241 0.28773 0.10769 0.0
O27 O 0.14511 0.31883 0.11605 0.0
O28 O 0.17777 0.34693 0.15188 0.0
O29 O 0.21457 0.33779 0.15464 0.0
O30 O 0.20808 0.2945 0.12748 0.0
O31 O 0.24877 0.31998 0.14926 0.0
H32 H 0.34459 0.45657 0.18201 0.0
H33 H 0.38616 0.51045 0.17591 0.0
H34 H 0.37681 0.49223 0.11347 0.0
H35 H 0.33533 0.43845 0.11966 0.0
H36 H 0.09583 0.24834 0.08402 0.0
H37 H 0.04406 0.20471 0.09216 0.0
H38 H 0.06018 0.23153 0.15339 0.0
H39 H 0.11238 0.2748 0.1451 0.0
Nd40 Nd 0.90768 0.25331 0.64118 0.0
Nd41 Nd 0.8776 0.18281 0.62672 0.0
C42 C 0.92278 0.3101 0.65371 0.0
C43 C 0.9105 0.33189 0.65388 0.0
C44 C 0.88067 0.32307 0.64646 0.0
C45 C 0.87139 0.34546 0.6439 0.0
C46 C 0.892 0.37715 0.64843 0.0
C47 C 0.92147 0.38558 0.65643 0.0
C48 C 0.93058 0.36319 0.65912 0.0
C49 C 0.92978 0.24441 0.60632 0.0
C50 C 0.83457 0.21536 0.62429 0.0
C51 C 0.86283 0.13092 0.60709 0.0
C52 C 0.85737 0.09936 0.61163 0.0
C53 C 0.863 0.08244 0.59723 0.0
C54 C 0.85733 0.05223 0.60115 0.0
C55 C 0.84583 0.03829 0.61959 0.0
C56 C 0.84039 0.05546 0.63404 0.0
C57 C 0.84621 0.08573 0.63013 0.0
C58 C 0.86746 0.18416 0.66676 0.0
C59 C 0.94713 0.21813 0.64794 0.0
O60 O 0.90949 0.28534 0.66503 0.0
O61 O 0.92972 0.30409 0.63632 0.0
O62 O 0.94683 0.26463 0.61955 0.0
O63 O 0.90101 0.22975 0.61115 0.0
O64 O 0.85664 0.23963 0.63401 0.0
O65 O 0.83869 0.19252 0.61769 0.0
O66 O 0.89164 0.15412 0.6088 0.0
O67 O 0.84207 0.13773 0.61385 0.0
O68 O 0.85822 0.1586 0.65683 0.0
O69 O 0.88123 0.20692 0.6553 0.0
O70 O 0.92776 0.19669 0.63536 0.0
O71 O 0.94231 0.24046 0.65506 0.0
H72 H 0.86505 0.29915 0.64199 0.0
H73 H 0.84863 0.33819 0.63758 0.0
H74 H 0.93775 0.40966 0.66033 0.0
H75 H 0.95382 0.37055 0.66467 0.0
H76 H 0.87157 0.09251 0.58286 0.0
H77 H 0.86146 0.03958 0.58961 0.0
H78 H 0.83195 0.04563 0.64847 0.0
H79 H 0.84188 0.09844 0.64153 0.0
Nd80 Nd 0.67144 0.89569 0.14083 0.0
Nd81 Nd 0.7145 0.86741 0.12899 0.0
C82 C 0.63456 0.91564 0.15518 0.0
C83 C 0.60153 0.90783 0.15184 0.0
C84 C 0.5767 0.88337 0.16223 0.0
C85 C 0.54565 0.87578 0.15886 0.0
C86 C 0.53851 0.89246 0.14505 0.0
C87 C 0.56338 0.9171 0.13481 0.0
C88 C 0.59444 0.92475 0.13821 0.0
C89 C 0.68636 0.89921 0.10121 0.0
C90 C 0.63872 0.82337 0.12685 0.0
C91 C 0.75115 0.85103 0.11015 0.0
C92 C 0.77634 0.84439 0.11502 0.0
C93 C 0.79779 0.84748 0.10047 0.0
C94 C 0.82218 0.84178 0.10482 0.0
C95 C 0.82563 0.83286 0.12387 0.0
C96 C 0.80392 0.82964 0.13842 0.0
C97 C 0.77956 0.83546 0.13405 0.0
C98 C 0.70061 0.85708 0.1686 0.0
C99 C 0.74823 0.93881 0.14678 0.0
O100 O 0.63895 0.89449 0.16385 0.0
O101 O 0.65454 0.9298 0.14091 0.0
O102 O 0.65901 0.89262 0.10782 0.0
O103 O 0.70392 0.90279 0.11554 0.0
O104 O 0.63635 0.84337 0.1386 0.0
O105 O 0.66535 0.83069 0.11791 0.0
O106 O 0.75781 0.88006 0.11218 0.0
O107 O 0.72302 0.83093 0.11635 0.0
O108 O 0.71791 0.84836 0.15931 0.0
O109 O 0.69164 0.8705 0.15676 0.0
O110 O 0.75163 0.91633 0.13863 0.0
O111 O 0.7204 0.93604 0.15017 0.0
H112 H 0.58117 0.86989 0.17292 0.0
H113 H 0.52718 0.85647 0.16691 0.0
H114 H 0.55891 0.93084 0.12431 0.0
H115 H 0.61293 0.94395 0.1301 0.0
H116 H 0.79569 0.85434 0.0857 0.0
H117 H 0.83818 0.84407 0.09319 0.0
H118 H 0.80607 0.82315 0.15328 0.0
H119 H 0.76335 0.83314 0.14555 0.0
Nd120 Nd 0.78549 0.66024 0.64148 0.0
Nd121 Nd 0.8557 0.7009 0.62664 0.0
C122 C 0.73502 0.6206 0.66128 0.0
C123 C 0.70813 0.58895 0.65731 0.0
C124 C 0.69889 0.56546 0.67154 0.0
C125 C 0.67455 0.535 0.66772 0.0
C126 C 0.65875 0.52733 0.64957 0.0
C127 C 0.66786 0.55101 0.63539 0.0
C128 C 0.69236 0.58143 0.63917 0.0
C129 C 0.786 0.66973 0.60115 0.0
C130 C 0.82379 0.62669 0.62392 0.0
C131 C 0.91039 0.74101 0.61068 0.0
C132 C 0.94108 0.76738 0.61667 0.0
C133 C 0.95799 0.7919 0.60347 0.0
C134 C 0.98763 0.8166 0.60849 0.0
C135 C 1.00106 0.81728 0.62684 0.0
C136 C 0.98386 0.79277 0.64015 0.0
C137 C 0.9541 0.76812 0.63514 0.0
C138 C 0.84837 0.68399 0.66583 0.0
C139 C 0.81655 0.73613 0.64065 0.0
O140 O 0.76223 0.62235 0.6635 0.0
O141 O 0.73675 0.64387 0.65103 0.0
O142 O 0.76083 0.65314 0.61135 0.0
O143 O 0.809 0.67781 0.61241 0.0
O144 O 0.80338 0.62559 0.63694 0.0
O145 O 0.8424 0.65265 0.61425 0.0
O146 O 0.88657 0.74567 0.61117 0.0
O147 O 0.90334 0.71324 0.61691 0.0
O148 O 0.87126 0.68705 0.65495 0.0
O149 O 0.83177 0.6922 0.65637 0.0
O150 O 0.84082 0.73754 0.63139 0.0
O151 O 0.79345 0.70966 0.64791 0.0
H152 H 0.71073 0.57062 0.6856 0.0
H153 H 0.66796 0.51747 0.67906 0.0
H154 H 0.6565 0.54589 0.62117 0.0
H155 H 0.69919 0.59893 0.62779 0.0
H156 H 0.94841 0.79176 0.58913 0.0
H157 H 1.00032 0.83484 0.59779 0.0
H158 H 0.99332 0.79274 0.65449 0.0
H159 H 0.94139 0.74954 0.64564 0.0
Nd160 Nd 0.14593 0.78218 0.13808 0.0
Nd161 Nd 0.1724 0.85186 0.12294 0.0
C162 C 0.13682 0.72931 0.15392 0.0
C163 C 0.14585 0.70548 0.14946 0.0
C164 C 0.15889 0.69577 0.16422 0.0
C165 C 0.16683 0.67271 0.16039 0.0
C166 C 0.16175 0.65866 0.14169 0.0
C167 C 0.14895 0.66873 0.12687 0.0
C168 C 0.14121 0.69191 0.13068 0.0
C169 C 0.12604 0.78713 0.10137 0.0
C170 C 0.21902 0.82262 0.12132 0.0
C171 C 0.18553 0.90278 0.10295 0.0
C172 C 0.1908 0.9341 0.10804 0.0
C173 C 0.18396 0.95098 0.09436 0.0
C174 C 0.18908 0.98081 0.09906 0.0
C175 C 0.20122 0.99433 0.11753 0.0
C176 C 0.20793 0.97722 0.13122 0.0
C177 C 0.20269 0.94738 0.12654 0.0
C178 C 0.17935 0.85191 0.16347 0.0
C179 C 0.10259 0.81344 0.14265 0.0
O180 O 0.15911 0.75685 0.15962 0.0
O181 O 0.11706 0.73096 0.14191 0.0
O182 O 0.10955 0.76502 0.1137 0.0
O183 O 0.15362 0.80482 0.10781 0.0
O184 O 0.19647 0.79637 0.12903 0.0
O185 O 0.21478 0.84611 0.11647 0.0
O186 O 0.15695 0.87937 0.10515 0.0
O187 O 0.20683 0.89635 0.10905 0.0
O188 O 0.18791 0.87702 0.15329 0.0
O189 O 0.16794 0.82896 0.15198 0.0
O190 O 0.12056 0.83354 0.12907 0.0
O191 O 0.11013 0.79411 0.1514 0.0
H192 H 0.16285 0.70598 0.17878 0.0
H193 H 0.17714 0.66604 0.17209 0.0
H194 H 0.14427 0.65826 0.11238 0.0
H195 H 0.13129 0.69896 0.11894 0.0
H196 H 0.17477 0.94114 0.08001 0.0
H197 H 0.18392 0.99347 0.08812 0.0
H198 H 0.21686 0.98672 0.14566 0.0
H199 H 0.20797 0.93472 0.1374 0.0
Nd200 Nd 0.37775 0.13626 0.63632 0.0
Nd201 Nd 0.33168 0.16013 0.62131 0.0
C202 C 0.42192 0.12941 0.65382 0.0
C203 C 0.4547 0.13793 0.64971 0.0
C204 C 0.47634 0.14734 0.66517 0.0
C205 C 0.50742 0.15527 0.6616 0.0
C206 C 0.51753 0.15384 0.64247 0.0
C207 C 0.49579 0.14458 0.62698 0.0
C208 C 0.46476 0.13685 0.63054 0.0
C209 C 0.35776 0.12004 0.59835 0.0
C210 C 0.40734 0.20986 0.62158 0.0
C211 C 0.29311 0.17311 0.60186 0.0
C212 C 0.26782 0.17947 0.60716 0.0
C213 C 0.24863 0.18083 0.59251 0.0
C214 C 0.22465 0.18699 0.59742 0.0
C215 C 0.21938 0.19187 0.61713 0.0
C216 C 0.23875 0.19046 0.63176 0.0
C217 C 0.2627 0.18432 0.62682 0.0
C218 C 0.33665 0.1637 0.66209 0.0
C219 C 0.30375 0.0885 0.63639 0.0
O220 O 0.41686 0.15245 0.65776 0.0
O221 O 0.40032 0.10809 0.64251 0.0
O222 O 0.3666 0.10474 0.60954 0.0
O223 O 0.36375 0.14585 0.60621 0.0
O224 O 0.41213 0.18777 0.62883 0.0
O225 O 0.37924 0.20456 0.61644 0.0
O226 O 0.28745 0.14457 0.60485 0.0
O227 O 0.32138 0.19434 0.6072 0.0
O228 O 0.31928 0.17157 0.65224 0.0
O229 O 0.34954 0.15442 0.65014 0.0
O230 O 0.3021 0.10682 0.6229 0.0
O231 O 0.32931 0.09759 0.64715 0.0
H232 H 0.46913 0.1484 0.68006 0.0
H233 H 0.5234 0.16198 0.67391 0.0
H234 H 0.50284 0.14363 0.61204 0.0
H235 H 0.44863 0.13 0.6183 0.0
H236 H 0.25215 0.17706 0.57725 0.0
H237 H 0.20994 0.18746 0.5858 0.0
H238 H 0.23568 0.19447 0.64704 0.0
H239 H 0.27728 0.18349 0.63836 0.0
Nd240 Nd 0.66848 0.77816 0.4048 0.0
Nd241 Nd 0.71252 0.84814 0.42019 0.0
C242 C 0.62526 0.72588 0.38775 0.0
C243 C 0.59194 0.70215 0.39104 0.0
C244 C 0.56922 0.71071 0.39484 0.0
C245 C 0.53802 0.68784 0.39842 0.0
C246 C 0.52881 0.65586 0.39835 0.0
C247 C 0.55165 0.64741 0.39445 0.0
C248 C 0.58279 0.67028 0.39082 0.0
C249 C 0.68928 0.78269 0.44263 0.0
C250 C 0.6367 0.8199 0.42062 0.0
C251 C 0.75051 0.89978 0.4398 0.0
C252 C 0.77602 0.93148 0.43482 0.0
C253 C 0.80004 0.94834 0.44839 0.0
C254 C 0.82446 0.97838 0.44386 0.0
C255 C 0.82533 0.99221 0.42562 0.0
C256 C 0.80114 0.97516 0.41205 0.0
C257 C 0.77679 0.94508 0.41658 0.0
C258 C 0.70711 0.84738 0.37943 0.0
C259 C 0.74269 0.80627 0.40466 0.0
O260 O 0.63172 0.75381 0.38212 0.0
O261 O 0.64519 0.72669 0.40068 0.0
O262 O 0.68226 0.75926 0.43104 0.0
O263 O 0.68166 0.80148 0.43513 0.0
O264 O 0.63283 0.79382 0.41245 0.0
O265 O 0.66439 0.8428 0.42629 0.0
O266 O 0.7563 0.87689 0.43712 0.0
O267 O 0.72231 0.89263 0.4342 0.0
O268 O 0.72341 0.87264 0.3896 0.0
O269 O 0.69517 0.82481 0.3911 0.0
O270 O 0.74376 0.82628 0.41801 0.0
O271 O 0.71725 0.78898 0.39396 0.0
H272 H 0.57559 0.73508 0.39519 0.0
H273 H 0.52121 0.69528 0.40157 0.0
H274 H 0.54541 0.62305 0.39399 0.0
H275 H 0.59983 0.66305 0.3879 0.0
H276 H 0.79989 0.93829 0.46254 0.0
H277 H 0.84246 0.99094 0.45476 0.0
H278 H 0.80126 0.98488 0.39779 0.0
H279 H 0.7586 0.93245 0.4058 0.0
Nd280 Nd 0.9054 0.6598 0.9017 0.0
Nd281 Nd 0.88129 0.7056 0.91711 0.0
C282 C 0.91176 0.61543 0.88399 0.0
C283 C 0.90303 0.58263 0.88826 0.0
C284 C 0.89136 0.56021 0.87318 0.0
C285 C 0.8832 0.52914 0.87691 0.0
C286 C 0.88669 0.51981 0.89582 0.0
C287 C 0.89823 0.54233 0.91095 0.0
C288 C 0.90617 0.57335 0.90724 0.0
C289 C 0.92227 0.68 0.93958 0.0
C290 C 0.83216 0.62991 0.91751 0.0
C291 C 0.86872 0.74447 0.93674 0.0
C292 C 0.86124 0.76904 0.9317 0.0
C293 C 0.85131 0.78207 0.94638 0.0
C294 C 0.84395 0.80528 0.94175 0.0
C295 C 0.84635 0.81591 0.92229 0.0
C296 C 0.8563 0.80265 0.90761 0.0
C297 C 0.86367 0.77947 0.91228 0.0
C298 C 0.87656 0.69979 0.87634 0.0
C299 C 0.95309 0.73355 0.90203 0.0
O300 O 0.88883 0.62069 0.88014 0.0
O301 O 0.93339 0.63714 0.8951 0.0
O302 O 0.93738 0.67112 0.92815 0.0
O303 O 0.89627 0.67396 0.93199 0.0
O304 O 0.85426 0.62519 0.91009 0.0
O305 O 0.83723 0.65801 0.92244 0.0
O306 O 0.89717 0.75054 0.93274 0.0
O307 O 0.84749 0.71579 0.93222 0.0
O308 O 0.868 0.71657 0.88635 0.0
O309 O 0.88673 0.68768 0.88817 0.0
O310 O 0.93463 0.73509 0.91553 0.0
O311 O 0.94406 0.70824 0.891 0.0
H312 H 0.88869 0.56679 0.85845 0.0
H313 H 0.87467 0.51253 0.86488 0.0
H314 H 0.90082 0.53591 0.92573 0.0
H315 H 0.91478 0.59005 0.91922 0.0
H316 H 0.84933 0.77437 0.96146 0.0
H317 H 0.83684 0.81522 0.95349 0.0
H318 H 0.85807 0.80992 0.89245 0.0
H319 H 0.87123 0.76967 0.9007 0.0
Nd320 Nd 0.25991 0.89772 0.39955 0.0
Nd321 Nd 0.19044 0.87407 0.41534 0.0
C322 C 0.31048 0.90424 0.38159 0.0
C323 C 0.33585 0.89741 0.38622 0.0
C324 C 0.3415 0.87827 0.37358 0.0
C325 C 0.36525 0.87144 0.37771 0.0
C326 C 0.38409 0.88374 0.39457 0.0
C327 C 0.37831 0.90291 0.40723 0.0
C328 C 0.35446 0.90959 0.40315 0.0
C329 C 0.25763 0.91465 0.43759 0.0
C330 C 0.21651 0.82453 0.41525 0.0
C331 C 0.13924 0.86154 0.43509 0.0
C332 C 0.10712 0.85392 0.42999 0.0
C333 C 0.08982 0.86111 0.44321 0.0
C334 C 0.05947 0.85439 0.43846 0.0
C335 C 0.04579 0.84031 0.42037 0.0
C336 C 0.06327 0.83312 0.40716 0.0
C337 C 0.09365 0.83993 0.4119 0.0
C338 C 0.19084 0.8697 0.3745 0.0
C339 C 0.23383 0.94549 0.40031 0.0
O340 O 0.28254 0.88012 0.37884 0.0
O341 O 0.30994 0.92671 0.39151 0.0
O342 O 0.28148 0.9294 0.42605 0.0
O343 O 0.23725 0.88883 0.43001 0.0
O344 O 0.24315 0.84644 0.40756 0.0
O345 O 0.19376 0.82986 0.42049 0.0
O346 O 0.16149 0.89003 0.43115 0.0
O347 O 0.14691 0.84041 0.43069 0.0
O348 O 0.16577 0.86186 0.38461 0.0
O349 O 0.21324 0.87928 0.38623 0.0
O350 O 0.21463 0.92732 0.41416 0.0
O351 O 0.24965 0.93622 0.38901 0.0
H352 H 0.32743 0.86847 0.36049 0.0
H353 H 0.36858 0.8562 0.36777 0.0
H354 H 0.39253 0.9132 0.4202 0.0
H355 H 0.35069 0.92438 0.41325 0.0
H356 H 0.09978 0.87192 0.45723 0.0
H357 H 0.04658 0.85988 0.44909 0.0
H358 H 0.05367 0.82265 0.39301 0.0
H359 H 0.10663 0.83433 0.4014 0.0
Nd360 Nd 0.37489 0.2517 0.89906 0.0
Nd361 Nd 0.33396 0.18131 0.91347 0.0
C362 C 0.41733 0.30661 0.88457 0.0
C363 C 0.45074 0.33049 0.88791 0.0
C364 C 0.47537 0.32606 0.88149 0.0
C365 C 0.50665 0.34925 0.88465 0.0
C366 C 0.51409 0.37743 0.89432 0.0
C367 C 0.48932 0.3816 0.9008 0.0
C368 C 0.45817 0.35858 0.89753 0.0
C369 C 0.34831 0.2442 0.93538 0.0
C370 C 0.41013 0.21364 0.91539 0.0
C371 C 0.29701 0.12927 0.93277 0.0
C372 C 0.27145 0.09754 0.9276 0.0
C373 C 0.24389 0.08354 0.93877 0.0
C374 C 0.21961 0.05341 0.9342 0.0
C375 C 0.22241 0.03648 0.91839 0.0
C376 C 0.25004 0.05075 0.90713 0.0
C377 C 0.2742 0.08095 0.91163 0.0
C378 C 0.34179 0.18237 0.87305 0.0
C379 C 0.30007 0.21804 0.89452 0.0
O380 O 0.41073 0.27988 0.8765 0.0
O381 O 0.39787 0.30332 0.89863 0.0
O382 O 0.35229 0.26574 0.92303 0.0
O383 O 0.36017 0.22812 0.92911 0.0
O384 O 0.41265 0.23937 0.90768 0.0
O385 O 0.38286 0.18935 0.92025 0.0
O386 O 0.29098 0.15215 0.93103 0.0
O387 O 0.32517 0.13685 0.92677 0.0
O388 O 0.32591 0.15691 0.88305 0.0
O389 O 0.3523 0.20521 0.88463 0.0
O390 O 0.29864 0.19743 0.90746 0.0
O391 O 0.32675 0.23882 0.8861 0.0
H392 H 0.47054 0.30477 0.87393 0.0
H393 H 0.52498 0.34526 0.8792 0.0
H394 H 0.49391 0.4026 0.90861 0.0
H395 H 0.43979 0.36281 0.90261 0.0
H396 H 0.24113 0.09595 0.95106 0.0
H397 H 0.19852 0.0435 0.943 0.0
H398 H 0.2533 0.03841 0.89501 0.0
H399 H 0.29513 0.09121 0.90266 0.0
Nd400 Nd 0.13777 0.36774 0.40099 0.0
Nd401 Nd 0.16914 0.33278 0.41324 0.0
C402 C 0.12229 0.40856 0.38724 0.0
C403 C 0.13226 0.44205 0.38943 0.0
C404 C 0.16152 0.46353 0.39743 0.0
C405 C 0.16965 0.49484 0.40043 0.0
C406 C 0.14854 0.50519 0.39568 0.0
C407 C 0.11939 0.48353 0.3875 0.0
C408 C 0.11139 0.45236 0.38442 0.0
C409 C 0.12053 0.34299 0.43781 0.0
C410 C 0.2097 0.40569 0.41856 0.0
C411 C 0.1868 0.29351 0.42667 0.0
C412 C 0.18974 0.26631 0.42024 0.0
C413 C 0.16927 0.23642 0.42776 0.0
C414 C 0.17321 0.21098 0.42303 0.0
C415 C 0.19789 0.21482 0.41077 0.0
C416 C 0.21803 0.24466 0.40297 0.0
C417 C 0.21405 0.27009 0.40766 0.0
C418 C 0.17953 0.3514 0.37427 0.0
C419 C 0.09658 0.29337 0.39704 0.0
O420 O 0.14122 0.40142 0.37809 0.0
O421 O 0.10958 0.39128 0.40272 0.0
O422 O 0.10178 0.34393 0.42497 0.0
O423 O 0.14864 0.3564 0.43167 0.0
O424 O 0.18938 0.40606 0.40616 0.0
O425 O 0.20355 0.3795 0.42725 0.0
O426 O 0.15865 0.28924 0.42915 0.0
O427 O 0.20597 0.32069 0.41897 0.0
O428 O 0.20053 0.35187 0.3858 0.0
O429 O 0.15374 0.34012 0.38307 0.0
O430 O 0.11856 0.29353 0.40814 0.0
O431 O 0.1002 0.31956 0.38933 0.0
H432 H 0.17783 0.45599 0.40163 0.0
H433 H 0.19216 0.51074 0.40692 0.0
H434 H 0.10272 0.4907 0.38341 0.0
H435 H 0.08865 0.43615 0.37831 0.0
H436 H 0.15044 0.23276 0.43757 0.0
H437 H 0.15692 0.18829 0.42908 0.0
H438 H 0.23751 0.24864 0.39368 0.0
H439 H 0.23045 0.29282 0.40171 0.0
Nd440 Nd 0.78535 0.12963 0.90454 0.0
Nd441 Nd 0.85631 0.15992 0.91789 0.0
C442 C 0.72903 0.11594 0.89196 0.0
C443 C 0.70701 0.12812 0.89354 0.0
C444 C 0.71427 0.15773 0.88642 0.0
C445 C 0.69289 0.16846 0.88863 0.0
C446 C 0.66401 0.14997 0.89817 0.0
C447 C 0.65687 0.12036 0.90514 0.0
C448 C 0.67801 0.10956 0.90277 0.0
C449 C 0.79483 0.11054 0.94025 0.0
C450 C 0.82408 0.20349 0.92015 0.0
C451 C 0.90921 0.17562 0.93651 0.0
C452 C 0.94052 0.18088 0.9312 0.0
C453 C 0.95885 0.17701 0.94539 0.0
C454 C 0.98881 0.18247 0.94066 0.0
C455 C 1.00109 0.19198 0.92162 0.0
C456 C 0.98249 0.19567 0.90741 0.0
C457 C 0.9525 0.19009 0.91214 0.0
C458 C 0.8535 0.16704 0.87761 0.0
C459 C 0.81928 0.08882 0.89893 0.0
O460 O 0.75437 0.13117 0.88125 0.0
O461 O 0.73399 0.10511 0.9082 0.0
O462 O 0.77367 0.09258 0.92775 0.0
O463 O 0.81001 0.13873 0.93433 0.0
O464 O 0.7988 0.18053 0.91177 0.0
O465 O 0.84784 0.20016 0.92578 0.0
O466 O 0.88593 0.14678 0.93544 0.0
O467 O 0.90198 0.19602 0.92978 0.0
O468 O 0.87939 0.17667 0.88717 0.0
O469 O 0.83117 0.15431 0.8895 0.0
O470 O 0.84086 0.10871 0.91124 0.0
O471 O 0.79743 0.09391 0.89133 0.0
H472 H 0.73648 0.17266 0.87929 0.0
H473 H 0.69917 0.19144 0.88318 0.0
H474 H 0.63469 0.10529 0.91226 0.0
H475 H 0.67169 0.08659 0.90829 0.0
H476 H 0.95008 0.16997 0.96019 0.0
H477 H 1.00256 0.17972 0.95203 0.0
H478 H 0.99098 0.20252 0.89255 0.0
H479 H 0.93871 0.19307 0.9009 0.0
H480 H 0.2516 0.04178 0.13662 0.0
H481 H 0.2601 0.09371 0.14522 0.0
H482 H 0.17225 0.07077 0.11813 0.0
H483 H 0.16328 0.0187 0.10981 0.0
H484 H 0.26286 0.14051 0.11934 0.0
H485 H 0.16661 0.10228 0.17345 0.0
H486 H 0.1817 0.07741 0.16555 0.0
H487 H 0.15452 0.08202 0.15035 0.0
C488 C 0.23393 0.04769 0.13267 0.0
C489 C 0.20668 0.02603 0.12259 0.0
C490 C 0.23892 0.07741 0.13751 0.0
C491 C 0.21661 0.08592 0.13257 0.0
C492 C 0.18954 0.06449 0.12238 0.0
H493 H 0.18357 0.23666 0.12781 0.0
H494 H 0.18428 0.18788 0.12891 0.0
C495 C 0.1846 0.03485 0.11744 0.0
C496 C 0.22181 0.11745 0.13754 0.0
H497 H 0.18845 0.15447 0.16129 0.0
C498 C 0.24695 0.14372 0.12877 0.0
C499 C 0.20111 0.12152 0.14995 0.0
C500 C 0.17463 0.09436 0.16053 0.0
C501 C 0.25081 0.17375 0.13114 0.0
C502 C 0.22925 0.17759 0.14286 0.0
C503 C 0.20498 0.15149 0.15233 0.0
C504 C 0.22909 0.20755 0.1435 0.0
C505 C 0.2768 0.20085 0.1202 0.0
C506 C 0.25388 0.23488 0.15173 0.0
C507 C 0.25358 0.26317 0.15115 0.0
C508 C 0.22851 0.26443 0.14229 0.0
C509 C 0.20341 0.23672 0.13463 0.0
C510 C 0.20369 0.20867 0.13528 0.0
H511 H 0.28861 0.19311 0.10952 0.0
H512 H 0.26756 0.21408 0.11218 0.0
H513 H 0.29455 0.21706 0.13085 0.0
H514 H 0.27353 0.2344 0.1584 0.0
H515 H 0.27323 0.28408 0.15719 0.0
H516 H 0.17934 0.16924 0.64862 0.0
H517 H 0.13613 0.1782 0.65669 0.0
H518 H 0.15763 0.23737 0.60589 0.0
H519 H 0.20106 0.22876 0.59775 0.0
H520 H 0.13389 0.23383 0.66397 0.0
H521 H 0.0655 0.17036 0.59781 0.0
H522 H 0.09895 0.16801 0.60612 0.0
H523 H 0.10437 0.20178 0.59286 0.0
C524 C 0.17516 0.18447 0.63926 0.0
C525 C 0.19361 0.19808 0.62243 0.0
C526 C 0.15038 0.18951 0.64389 0.0
C527 C 0.1434 0.20814 0.63178 0.0
C528 C 0.16223 0.22244 0.61526 0.0
H529 H 1.00597 0.26869 0.6534 0.0
H530 H 0.05553 0.26827 0.65159 0.0
C531 C 0.187 0.2174 0.6106 0.0
C532 C 0.11571 0.2116 0.63602 0.0
H533 H 0.04469 0.19486 0.61758 0.0
C534 C 0.11438 0.22538 0.65384 0.0
C535 C 0.09016 0.20029 0.62286 0.0
C536 C 0.08954 0.18403 0.60392 0.0
C537 C 0.08816 0.22817 0.6588 0.0
C538 C 0.06276 0.21708 0.64554 0.0
C539 C 0.06423 0.20345 0.62772 0.0
C540 C 0.03362 0.21784 0.64999 0.0
C541 C 0.08745 0.24219 0.67837 0.0
C542 C 1.00493 0.18972 0.65015 0.0
C543 C 0.97682 0.18995 0.65107 0.0
C544 C 0.97668 0.21832 0.65193 0.0
C545 C 1.00539 0.24648 0.65308 0.0
C546 C 0.0337 0.24625 0.65199 0.0
H547 H 0.10564 0.24348 0.68854 0.0
H548 H 0.09178 0.26627 0.67607 0.0
H549 H 0.06417 0.22835 0.68542 0.0
H550 H 1.00425 0.16754 0.64867 0.0
H551 H 0.95506 0.16787 0.65016 0.0
H552 H 0.75556 0.99782 0.14927 0.0
H553 H 0.80524 0.04776 0.14819 0.0
H554 H 0.85623 0.99806 0.15047 0.0
H555 H 0.80714 0.94843 0.15147 0.0
H556 H 0.8629 0.07652 0.1728 0.0
H557 H 0.88111 0.04633 0.09717 0.0
H558 H 0.84358 0.02647 0.10931 0.0
H559 H 0.8732 0.01678 0.1152 0.0
C560 C 0.77736 0.9976 0.15003 0.0
C561 C 0.77735 0.9691 0.15023 0.0
C562 C 0.80572 0.02614 0.14933 0.0
C563 C 0.8344 0.02655 0.14885 0.0
C564 C 0.83438 0.99826 0.15047 0.0
H565 H 0.0286 0.17483 0.15509 0.0
H566 H 0.97609 0.13126 0.16201 0.0
C567 C 0.80623 0.96988 0.15109 0.0
C568 C 0.8643 0.056 0.14517 0.0
H569 H 0.92407 0.09032 0.11201 0.0
C570 C 0.87623 0.07969 0.15948 0.0
C571 C 0.88146 0.06027 0.12765 0.0
C572 C 0.86914 0.03628 0.11134 0.0
C573 C 0.90536 0.10716 0.15696 0.0
C574 C 0.92311 0.11081 0.13978 0.0
C575 C 0.91066 0.08745 0.12526 0.0
C576 C 0.95463 0.13857 0.13641 0.0
C577 C 0.91674 0.13216 0.17261 0.0
C578 C 0.96026 0.15701 0.11958 0.0
C579 C 0.99027 0.18188 0.11556 0.0
C580 C 1.0155 0.18881 0.1282 0.0
C581 C 1.00972 0.17049 0.14517 0.0
C582 C 0.97964 0.14557 0.14918 0.0
H583 H 0.89721 0.12979 0.18196 0.0
H584 H 0.9337 0.13001 0.18222 0.0
H585 H 0.92875 0.15585 0.16598 0.0
H586 H 0.94139 0.15206 0.10947 0.0
H587 H 0.99365 0.19574 0.10252 0.0
H588 H 0.76752 0.74486 0.65188 0.0
H589 H 0.76607 0.79399 0.65056 0.0
H590 H 0.86202 0.84303 0.63117 0.0
H591 H 0.86388 0.79485 0.6325 0.0
H592 H 0.813 0.85911 0.66904 0.0
H593 H 0.80672 0.85502 0.58755 0.0
H594 H 0.79474 0.82055 0.60236 0.0
H595 H 0.83555 0.84732 0.59812 0.0
C596 C 0.7884 0.7662 0.6476 0.0
C597 C 0.81569 0.76574 0.64213 0.0
C598 C 0.78751 0.7942 0.64682 0.0
C599 C 0.81384 0.82199 0.64051 0.0
C600 C 0.84135 0.82176 0.63584 0.0
H601 H 0.8815 1.01224 0.6093 0.0
H602 H 0.87061 0.95895 0.6153 0.0
C603 C 0.8423 0.79406 0.63663 0.0
C604 C 0.81294 0.85134 0.63795 0.0
H605 H 0.82013 0.90357 0.6027 0.0
C606 C 0.814 0.8687 0.65457 0.0
C607 C 0.81442 0.86376 0.61904 0.0
C608 C 0.81256 0.84566 0.6007 0.0
C609 C 0.81804 0.89891 0.65277 0.0
C610 C 0.82058 0.91178 0.63382 0.0
C611 C 0.81835 0.89382 0.61722 0.0
C612 C 0.82714 0.94434 0.63077 0.0
C613 C 0.82109 0.91736 0.67116 0.0
C614 C 0.80626 0.95391 0.63737 0.0
C615 C 0.81244 0.98445 0.63394 0.0
C616 C 0.83949 1.00597 0.62366 0.0
C617 C 0.86029 0.99623 0.61705 0.0
C618 C 0.85415 0.96578 0.62055 0.0
H619 H 0.82575 0.90707 0.68432 0.0
H620 H 0.84022 0.94198 0.66964 0.0
H621 H 0.79893 0.91746 0.67367 0.0
H622 H 0.78491 0.93763 0.64489 0.0
H623 H 0.79568 0.99101 0.63897 0.0
H624 H 0.08859 0.85915 0.13629 0.0
H625 H 0.03741 0.85511 0.13724 0.0
H626 H 0.99619 0.76053 0.15843 0.0
H627 H 0.04793 0.76429 0.15746 0.0
H628 H 0.98255 0.79946 0.1143 0.0
H629 H 0.96246 0.81355 0.19334 0.0
H630 H 1.00167 0.83184 0.18347 0.0
H631 H 0.97961 0.79021 0.18605 0.0
C632 C 0.06881 0.83756 0.14146 0.0
C633 C 0.07232 0.81193 0.14668 0.0
C634 C 0.03956 0.83536 0.14201 0.0
C635 C 1.01308 0.80756 0.14785 0.0
C636 C 1.01648 0.78227 0.15399 0.0
H637 H 0.82453 0.78618 0.14642 0.0
H638 H 0.86781 0.77643 0.15289 0.0
C639 C 0.04601 0.78448 0.15349 0.0
C640 C 0.98192 0.80479 0.14564 0.0
H641 H 0.92696 0.81423 0.17042 0.0
C642 C 0.97009 0.80219 0.12659 0.0
C643 C 0.96575 0.80823 0.16171 0.0
C644 C 0.97781 0.81114 0.18237 0.0
C645 C 0.94305 0.80403 0.12307 0.0
C646 C 0.92782 0.80934 0.13901 0.0
C647 C 0.93879 0.81041 0.15821 0.0
C648 C 0.90171 0.81568 0.13579 0.0
C649 C 0.93129 0.80066 0.10226 0.0
C650 C 0.90655 0.8414 0.12442 0.0
C651 C 0.88198 0.84705 0.12073 0.0
C652 C 0.85196 0.82725 0.12845 0.0
C653 C 0.84736 0.80198 0.14032 0.0
C654 C 0.87203 0.7963 0.14398 0.0
H655 H 0.93925 0.7874 0.093 0.0
H656 H 0.90534 0.7886 0.1018 0.0
H657 H 0.94066 0.82423 0.09571 0.0
H658 H 0.92945 0.85716 0.11836 0.0
H659 H 0.88657 0.86713 0.11191 0.0
H660 H 0.02626 0.87992 0.61975 0.0
H661 H 0.07981 0.92196 0.62601 0.0
H662 H 0.10189 0.85574 0.65181 0.0
H663 H 0.04847 0.81336 0.64523 0.0
H664 H 0.11484 0.94239 0.66222 0.0
H665 H 0.16778 0.89846 0.6075 0.0
H666 H 0.12644 0.88523 0.6079 0.0
H667 H 0.14297 0.87119 0.62588 0.0
C668 C 0.04251 0.87424 0.62669 0.0
C669 C 0.03309 0.84318 0.63182 0.0
C670 C 0.07305 0.89835 0.6304 0.0
C671 C 0.09494 0.89196 0.63919 0.0
C672 C 0.08548 0.86116 0.64482 0.0
H673 H 0.28463 0.04953 0.66875 0.0
H674 H 0.23542 0.99923 0.67216 0.0
C675 C 0.05485 0.837 0.64119 0.0
C676 C 0.12784 0.91752 0.64179 0.0
H677 H 0.20177 0.94538 0.62381 0.0
C678 C 0.13397 0.94287 0.65407 0.0
C679 C 0.15271 0.91815 0.63103 0.0
C680 C 0.14733 0.89197 0.61721 0.0
C681 C 0.16414 0.96921 0.65545 0.0
C682 C 0.18882 0.97015 0.64432 0.0
C683 C 0.18288 0.94441 0.6325 0.0
C684 C 0.21962 0.99926 0.64252 0.0
C685 C 0.16915 0.99658 0.66798 0.0
C686 C 0.22729 0.01544 0.62466 0.0
C687 C 0.255 0.04392 0.62274 0.0
C688 C 0.27597 0.05688 0.63859 0.0
C689 C 0.26895 0.04012 0.65631 0.0
C690 C 0.24081 1.01154 0.65829 0.0
H691 H 0.14691 0.99339 0.67418 0.0
H692 H 0.18508 0.99955 0.68032 0.0
H693 H 0.18041 0.01844 0.65921 0.0
H694 H 0.21138 1.00638 0.61229 0.0
H695 H 0.25982 0.05598 0.60879 0.0
H696 H 1.01924 0.87675 0.42698 0.0
H697 H 0.96573 0.86443 0.41975 0.0
H698 H 0.9458 0.77617 0.39456 0.0
H699 H 0.99912 0.78795 0.40218 0.0
H700 H 0.93302 0.84973 0.38293 0.0
H701 H 0.87699 0.75231 0.43677 0.0
H702 H 0.91832 0.78048 0.43731 0.0
H703 H 0.90292 0.75005 0.41911 0.0
C704 C 1.00344 0.85459 0.42004 0.0
C705 C 1.01347 0.83323 0.41533 0.0
C706 C 0.97293 0.84771 0.41576 0.0
C707 C 0.95168 0.81927 0.40678 0.0
C708 C 0.96169 0.79811 0.4017 0.0
H709 H 0.76296 0.78599 0.37288 0.0
H710 H 0.81237 0.78496 0.37045 0.0
C711 C 0.99228 0.80501 0.40592 0.0
C712 C 0.9189 0.81171 0.40325 0.0
H713 H 0.84392 0.76517 0.41939 0.0
C714 C 0.91343 0.83094 0.39065 0.0
C715 C 0.89342 0.78725 0.41342 0.0
C716 C 0.89802 0.76639 0.42753 0.0
C717 C 0.88332 0.82697 0.38841 0.0
C718 C 0.85803 0.80308 0.399 0.0
C719 C 0.86331 0.78321 0.4111 0.0
C720 C 0.82724 0.80152 0.40015 0.0
C721 C 0.87896 0.84935 0.3756 0.0
C722 C 0.81906 0.81053 0.41767 0.0
C723 C 0.7913 0.8113 0.41903 0.0
C724 C 0.77076 0.80281 0.40292 0.0
C725 C 0.77832 0.79266 0.3855 0.0
C726 C 0.80654 0.79221 0.38409 0.0
H727 H 0.90146 0.86816 0.36955 0.0
H728 H 0.86325 0.83634 0.36316 0.0
H729 H 0.86769 0.86026 0.38412 0.0
H730 H 0.8346 0.81769 0.43025 0.0
H731 H 0.78607 0.81885 0.43277 0.0
H732 H 0.9911 0.75671 0.86935 0.0
H733 H 0.04177 0.80596 0.8674 0.0
H734 H 0.03699 0.82086 0.92944 0.0
H735 H 0.98696 0.7725 0.93145 0.0
H736 H 0.05025 0.86785 0.8802 0.0
H737 H 0.1269 0.83478 0.92041 0.0
H738 H 0.09081 0.80633 0.90876 0.0
H739 H 0.09002 0.82277 0.9322 0.0
C740 C 1.00123 0.77032 0.88257 0.0
C741 C 0.98506 0.76086 0.90051 0.0
C742 C 0.03002 0.79842 0.88144 0.0
C743 C 0.04322 0.81689 0.89833 0.0
C744 C 0.02746 0.80683 0.91629 0.0
H745 H 0.18504 0.99019 0.94431 0.0
H746 H 0.14293 0.93735 0.93693 0.0
C747 C 0.99874 0.77923 0.91737 0.0
C748 C 0.07228 0.84783 0.89743 0.0
H749 H 0.14468 0.88953 0.91825 0.0
C750 C 0.07123 0.8726 0.88813 0.0
C751 C 0.09941 0.85391 0.90796 0.0
C752 C 0.10208 0.82801 0.91778 0.0
C753 C 0.0959 0.90363 0.89007 0.0
C754 C 0.12263 0.90989 0.90125 0.0
C755 C 0.12418 0.88483 0.90978 0.0
C756 C 0.14834 0.94232 0.90538 0.0
C757 C 0.09227 0.92954 0.8811 0.0
C758 C 0.16564 0.9628 0.89011 0.0
C759 C 0.18949 0.99334 0.89428 0.0
C760 C 0.19685 1.00399 0.91384 0.0
C761 C 0.17972 0.98317 0.92907 0.0
C762 C 0.15579 0.95275 0.92488 0.0
H763 H 0.06756 0.92157 0.87714 0.0
H764 H 0.10061 0.9497 0.89133 0.0
H765 H 0.10646 0.93775 0.86749 0.0
H766 H 0.16079 0.95515 0.87496 0.0
H767 H 0.20194 1.00868 0.88214 0.0
H768 H 0.21642 0.19985 0.37613 0.0
H769 H 0.22527 0.15594 0.36985 0.0
H770 H 0.20027 0.12541 0.42972 0.0
H771 H 0.19191 0.1693 0.43625 0.0
H772 H 0.26668 0.13911 0.38943 0.0
H773 H 0.14212 0.04734 0.39661 0.0
H774 H 0.15428 0.08806 0.39295 0.0
H775 H 0.15628 0.07411 0.41697 0.0
C776 C 0.21299 0.18392 0.38801 0.0
C777 C 0.20314 0.18804 0.40667 0.0
C778 C 0.21797 0.15878 0.38436 0.0
C779 C 0.21299 0.13714 0.39922 0.0
C780 C 0.20363 0.14144 0.4179 0.0
H781 H 0.22453 0.97837 0.42865 0.0
H782 H 0.22207 0.02605 0.4253 0.0
C783 C 0.19873 0.16653 0.42159 0.0
C784 C 0.21751 0.10999 0.39545 0.0
H785 H 0.17967 0.03035 0.39833 0.0
C786 C 0.24761 0.11528 0.39104 0.0
C787 C 0.19254 0.07892 0.39738 0.0
C788 C 0.15941 0.07166 0.40105 0.0
C789 C 0.25369 0.09032 0.38973 0.0
C790 C 0.22897 0.05939 0.39269 0.0
C791 C 0.19865 0.0541 0.39614 0.0
C792 C 0.23426 0.0324 0.39449 0.0
C793 C 0.28669 0.09719 0.38621 0.0
C794 C 0.24276 0.0204 0.37831 0.0
C795 C 0.24431 0.99283 0.3802 0.0
C796 C 0.23705 0.97685 0.39822 0.0
C797 C 0.22987 0.98981 0.41447 0.0
C798 C 0.22848 0.01716 0.41261 0.0
H799 H 0.30382 0.12268 0.38637 0.0
H800 H 0.29351 0.08563 0.39757 0.0
H801 H 0.288 0.08759 0.37171 0.0
H802 H 0.24705 0.03167 0.36413 0.0
H803 H 0.24974 0.98331 0.36742 0.0
H804 H 0.29279 0.26796 0.88399 0.0
H805 H 0.24377 0.26977 0.88516 0.0
H806 H 0.19262 0.17178 0.89961 0.0
H807 H 0.2409 0.16969 0.89845 0.0
H808 H 0.17355 0.21728 0.86556 0.0
H809 H 0.18774 0.23285 0.94665 0.0
H810 H 0.22083 0.24684 0.93021 0.0
H811 H 0.19744 0.20585 0.93521 0.0
C812 C 0.27095 0.24667 0.88687 0.0
C813 C 0.27074 0.21873 0.89121 0.0
C814 C 0.24304 0.24777 0.88763 0.0
C815 C 0.2147 0.22093 0.89262 0.0
C816 C 0.21427 0.19273 0.89581 0.0
H817 H 0.02876 0.15816 0.93269 0.0
H818 H 0.08136 0.16829 0.92481 0.0
C819 C 0.24194 0.19164 0.89513 0.0
C820 C 0.18573 0.22222 0.89618 0.0
H821 H 0.13853 0.22038 0.93349 0.0
C822 C 0.16602 0.21852 0.88035 0.0
C823 C 0.17597 0.2235 0.91551 0.0
C824 C 0.19655 0.22764 0.93295 0.0
C825 C 0.13615 0.2149 0.88343 0.0
C826 C 0.126 0.21536 0.90287 0.0
C827 C 0.14624 0.21999 0.91862 0.0
C828 C 0.09394 0.20944 0.90733 0.0
C829 C 0.11516 0.20914 0.86596 0.0
C830 C 0.08349 0.22933 0.90028 0.0
C831 C 0.05336 0.2236 0.9048 0.0
C832 C 0.03311 0.198 0.91662 0.0
C833 C 0.04379 0.17828 0.92375 0.0
C834 C 0.07384 0.18397 0.91918 0.0
H835 H 0.12362 0.20252 0.85266 0.0
H836 H 0.09087 0.19034 0.86914 0.0
H837 H 0.11459 0.23082 0.86262 0.0
H838 H 0.09877 0.24953 0.89148 0.0
H839 H 0.04613 0.23958 0.89933 0.0
H840 H 0.08711 0.23538 0.40476 0.0
H841 H 0.03763 0.18647 0.40659 0.0
H842 H 0.98867 0.23325 0.38699 0.0
H843 H 0.03863 0.28295 0.38514 0.0
H844 H 0.98653 0.18119 0.43184 0.0
H845 H 0.95231 0.14916 0.35355 0.0
H846 H 0.99257 0.17456 0.36074 0.0
H847 H 0.96552 0.18874 0.3614 0.0
C848 C 0.06596 0.23538 0.40052 0.0
C849 C 0.06687 0.26322 0.39488 0.0
C850 C 0.03765 0.2073 0.40159 0.0
C851 C 1.00949 0.2062 0.39695 0.0
C852 C 1.01022 0.23356 0.39047 0.0
H853 H 0.8221 0.03972 0.40683 0.0
H854 H 0.86507 0.09254 0.39967 0.0
C855 C 0.03876 0.26191 0.38939 0.0
C856 C 0.97957 0.17679 0.40053 0.0
H857 H 0.91971 0.1135 0.37762 0.0
C858 C 0.97175 0.16649 0.42 0.0
C859 C 0.96025 0.15783 0.38508 0.0
C860 C 0.96793 0.16786 0.36396 0.0
C861 C 0.94551 0.13743 0.42442 0.0
C862 C 0.92695 0.1177 0.40893 0.0
C863 C 0.93408 0.12851 0.38948 0.0
C864 C 0.90092 0.08536 0.41269 0.0
C865 C 0.93797 0.12814 0.44569 0.0
C866 C 0.90684 0.06352 0.42202 0.0
C867 C 0.88239 0.03337 0.42612 0.0
C868 C 0.85143 0.0242 0.42082 0.0
C869 C 0.84566 0.0459 0.41102 0.0
C870 C 0.87018 0.07615 0.40696 0.0
H871 H 0.9481 0.14892 0.45552 0.0
H872 H 0.9123 0.11448 0.44815 0.0
H873 H 0.94813 0.11341 0.44995 0.0
H874 H 0.93047 0.0698 0.42612 0.0
H875 H 0.88782 0.01711 0.43329 0.0
H876 H 0.79881 0.82387 0.9369 0.0
H877 H 0.78792 0.86602 0.92977 0.0
H878 H 0.86582 0.90685 0.88958 0.0
H879 H 0.87706 0.86501 0.89673 0.0
H880 H 0.82604 0.92843 0.93619 0.0
H881 H 0.79703 0.90756 0.85704 0.0
H882 H 0.79833 0.87878 0.8727 0.0
H883 H 0.83388 0.91053 0.86286 0.0
C884 C 0.81367 0.8418 0.92654 0.0
C885 C 0.83884 0.84093 0.9174 0.0
C886 C 0.80726 0.8658 0.92238 0.0
C887 C 0.82569 0.88937 0.90887 0.0
C888 C 0.85071 0.88851 0.89964 0.0
H889 H 0.86782 0.07814 0.90259 0.0
H890 H 0.86586 0.0279 0.90361 0.0
C891 C 0.85716 0.86453 0.90379 0.0
C892 C 0.82019 0.91604 0.9055 0.0
H893 H 0.80879 0.9578 0.86965 0.0
C894 C 0.82187 0.93455 0.92166 0.0
C895 C 0.81436 0.92393 0.88659 0.0
C896 C 0.81046 0.90398 0.86883 0.0
C897 C 0.81929 0.96141 0.91932 0.0
C898 C 0.81524 0.97027 0.90029 0.0
C899 C 0.81217 0.9511 0.88421 0.0
C900 C 0.81653 1.00059 0.89692 0.0
C901 C 0.82148 0.98054 0.93722 0.0
C902 C 0.78964 1.00202 0.89193 0.0
C903 C 0.79066 0.03098 0.89126 0.0
C904 C 0.81862 0.05879 0.89559 0.0
C905 C 0.84581 0.05718 0.89937 0.0
C906 C 0.84476 0.02846 0.9 0.0
H907 H 0.81704 0.96692 0.95098 0.0
H908 H 0.84536 1.00123 0.93808 0.0
H909 H 0.80454 0.98906 0.93627 0.0
H910 H 0.76762 0.9807 0.88943 0.0
H911 H 0.76931 0.03141 0.88842 0.0
H912 H 0.18596 0.64801 0.10798 0.0
H913 H 0.19621 0.60532 0.1012 0.0
H914 H 0.16658 0.57009 0.15985 0.0
H915 H 0.15471 0.61164 0.16642 0.0
H916 H 0.23594 0.58988 0.11769 0.0
H917 H 0.11494 0.4922 0.12788 0.0
H918 H 0.12412 0.53235 0.12614 0.0
H919 H 0.12904 0.51718 0.14905 0.0
C920 C 0.18113 0.63093 0.11937 0.0
C921 C 0.16921 0.63328 0.13772 0.0
C922 C 0.18726 0.60663 0.1155 0.0
C923 C 0.18161 0.58405 0.12987 0.0
C924 C 0.17042 0.58672 0.14834 0.0
H925 H 0.25782 0.46124 0.13942 0.0
H926 H 0.24819 0.50503 0.13945 0.0
C927 C 0.16409 0.61087 0.15218 0.0
C928 C 0.18803 0.55813 0.1257 0.0
H929 H 0.15516 0.47865 0.12721 0.0
C930 C 0.21818 0.56554 0.11962 0.0
C931 C 0.16476 0.52628 0.12779 0.0
C932 C 0.13133 0.51648 0.13286 0.0
C933 C 0.22597 0.54213 0.11626 0.0
C934 C 0.2032 0.51041 0.1195 0.0
C935 C 0.17276 0.50294 0.12491 0.0
C936 C 0.21063 0.48467 0.11815 0.0
C937 C 0.25849 0.55169 0.10912 0.0
C938 C 0.19254 0.45827 0.10632 0.0
C939 C 0.19778 0.43285 0.10643 0.0
C940 C 0.22116 0.43327 0.11844 0.0
C941 C 0.23975 0.4601 0.12987 0.0
C942 C 0.2344 0.48537 0.12982 0.0
H943 H 0.26909 0.57434 0.10118 0.0
H944 H 0.27362 0.5547 0.12193 0.0
H945 H 0.25838 0.53374 0.09921 0.0
H946 H 0.17396 0.45707 0.09725 0.0
H947 H 0.18291 0.41256 0.09752 0.0
H948 H 0.81338 0.25206 0.64092 0.0
H949 H 0.75984 0.24254 0.64152 0.0
H950 H 0.73022 0.16174 0.60435 0.0
H951 H 0.78367 0.17081 0.60385 0.0
H952 H 0.71798 0.23807 0.61295 0.0
H953 H 0.67294 0.12482 0.65164 0.0
H954 H 0.7142 0.15214 0.64893 0.0
H955 H 0.69222 0.12704 0.62883 0.0
C956 C 0.79567 0.23251 0.63261 0.0
C957 C 0.80299 0.21213 0.62242 0.0
C958 C 0.76494 0.22703 0.63304 0.0
C959 C 0.74079 0.20102 0.62335 0.0
C960 C 0.74827 0.18152 0.61235 0.0
H961 H 0.53833 0.12316 0.61858 0.0
H962 H 0.59235 0.13549 0.61294 0.0
C963 C 0.77897 0.18691 0.61196 0.0
C964 C 0.70775 0.19386 0.62527 0.0
H965 H 0.63542 0.13836 0.64155 0.0
C966 C 0.69995 0.21629 0.61922 0.0
C967 C 0.68416 0.16545 0.63353 0.0
C968 C 0.69125 0.14108 0.64128 0.0
C969 C 0.66921 0.21092 0.62096 0.0
C970 C 0.64568 0.18254 0.62922 0.0
C971 C 0.65342 0.16005 0.63516 0.0
C972 C 0.61299 0.17586 0.63215 0.0
C973 C 0.66205 0.23547 0.61368 0.0
C974 C 0.60653 0.19429 0.64494 0.0
C975 C 0.57566 0.18728 0.64821 0.0
C976 C 0.55051 0.16167 0.63874 0.0
C977 C 0.5571 0.14329 0.6259 0.0
C978 C 0.58797 0.15021 0.62274 0.0
H979 H 0.68032 0.25205 0.60342 0.0
H980 H 0.63904 0.22454 0.60612 0.0
H981 H 0.66104 0.24907 0.62638 0.0
H982 H 0.62538 0.21388 0.65262 0.0
H983 H 0.5715 0.20206 0.65808 0.0
H984 H 0.63454 0.77322 0.10636 0.0
H985 H 0.59069 0.71931 0.10598 0.0
H986 H 0.53763 0.74644 0.14332 0.0
H987 H 0.5808 0.80021 0.14346 0.0
H988 H 0.56531 0.68 0.13692 0.0
H989 H 0.47332 0.69634 0.10212 0.0
H990 H 0.51412 0.72614 0.10161 0.0
H991 H 0.49056 0.72157 0.12293 0.0
C992 C 0.61333 0.76785 0.11421 0.0
C993 C 0.61128 0.79123 0.12487 0.0
C994 C 0.58829 0.73695 0.11403 0.0
C995 C 0.56058 0.72876 0.12439 0.0
C996 C 0.55836 0.75216 0.1348 0.0
H997 H 0.39453 0.55992 0.16173 0.0
H998 H 0.43742 0.61333 0.15604 0.0
C999 C 0.58327 0.783 0.13496 0.0
C1000 C 0.53478 0.69554 0.12544 0.0
H1001 H 0.45584 0.64808 0.11929 0.0
C1002 C 0.54146 0.67297 0.13282 0.0
C1003 C 0.50356 0.68625 0.12014 0.0
C1004 C 0.49498 0.70879 0.11107 0.0
C1005 C 0.51773 0.64174 0.13564 0.0
C1006 C 0.48645 0.63269 0.13079 0.0
C1007 C 0.4798 0.65508 0.12312 0.0
C1008 C 0.46024 0.6002 0.13393 0.0
C1009 C 0.52612 0.61886 0.14438 0.0
C1010 C 0.45858 0.57507 0.12322 0.0
C1011 C 0.43407 0.5445 0.12642 0.0
C1012 C 0.41071 0.53837 0.14046 0.0
C1013 C 0.41231 0.5637 0.15101 0.0
C1014 C 0.43671 0.59428 0.14769 0.0
H1015 H 0.5499 0.63083 0.15096 0.0
H1016 H 0.50894 0.60443 0.15584 0.0
H1017 H 0.52554 0.60289 0.13268 0.0
H1018 H 0.47626 0.5791 0.11235 0.0
H1019 H 0.43372 0.52558 0.11813 0.0
H1020 H 0.78636 0.5679 0.63858 0.0
H1021 H 0.79722 0.52479 0.63981 0.0
H1022 H 0.88202 0.57942 0.60677 0.0
H1023 H 0.87147 0.6229 0.60553 0.0
H1024 H 0.80876 0.49054 0.60954 0.0
H1025 H 0.9112 0.55761 0.6586 0.0
H1026 H 0.88239 0.56925 0.65426 0.0
H1027 H 0.91153 0.5765 0.636 0.0
C1028 C 0.80717 0.57072 0.63135 0.0
C1029 C 0.82817 0.59907 0.62208 0.0
C1030 C 0.81332 0.54597 0.63207 0.0
C1031 C 0.84069 0.54904 0.62368 0.0
C1032 C 0.86099 0.57671 0.61361 0.0
H1033 H 0.92867 0.43432 0.6315 0.0
H1034 H 0.91541 0.47481 0.6245 0.0
C1035 C 0.85479 0.60148 0.61279 0.0
C1036 C 0.84854 0.52382 0.62631 0.0
H1037 H 0.90045 0.50741 0.64888 0.0
C1038 C 0.82883 0.4942 0.6181 0.0
C1039 C 0.8747 0.5286 0.63752 0.0
C1040 C 0.89611 0.55959 0.64727 0.0
C1041 C 0.83483 0.46936 0.62056 0.0
C1042 C 0.8608 0.47401 0.632 0.0
C1043 C 0.88055 0.50374 0.64012 0.0
C1044 C 0.86814 0.44858 0.63573 0.0
C1045 C 0.81365 0.43862 0.61048 0.0
C1046 C 0.84612 0.42025 0.64453 0.0
C1047 C 0.85364 0.39691 0.64848 0.0
C1048 C 0.88355 0.40162 0.64406 0.0
C1049 C 0.90557 0.43006 0.63535 0.0
C1050 C 0.89796 0.45321 0.63125 0.0
H1051 H 0.80124 0.44165 0.59782 0.0
H1052 H 0.82698 0.42742 0.60516 0.0
H1053 H 0.7957 0.42258 0.62106 0.0
H1054 H 0.82326 0.41635 0.64866 0.0
H1055 H 0.83627 0.37545 0.6554 0.0
H1056 H 0.51034 0.89061 0.10983 0.0
H1057 H 0.45632 0.87813 0.10407 0.0
H1058 H 0.43705 0.86223 0.16603 0.0
H1059 H 0.49117 0.87548 0.17201 0.0
H1060 H 0.39943 0.82332 0.11226 0.0
H1061 H 0.4083 0.92492 0.15298 0.0
H1062 H 0.44226 0.92249 0.14583 0.0
H1063 H 0.41978 0.90156 0.16699 0.0
C1064 C 0.49474 0.8848 0.12229 0.0
C1065 C 0.50533 0.88429 0.14142 0.0
C1066 C 0.46375 0.87742 0.11894 0.0
C1067 C 0.44265 0.86961 0.13463 0.0
C1068 C 0.45297 0.86865 0.1537 0.0
H1069 H 0.23923 0.78202 0.13219 0.0
H1070 H 0.29314 0.79257 0.1339 0.0
C1071 C 0.48392 0.87594 0.15707 0.0
C1072 C 0.40987 0.86246 0.13108 0.0
H1073 H 0.35749 0.88609 0.14284 0.0
C1074 C 0.39028 0.83709 0.1189 0.0
C1075 C 0.39798 0.88066 0.13951 0.0
C1076 C 0.4182 0.90911 0.15191 0.0
C1077 C 0.35902 0.82908 0.11527 0.0
C1078 C 0.34685 0.84669 0.12421 0.0
C1079 C 0.36666 0.87241 0.13608 0.0
C1080 C 0.31373 0.83902 0.12153 0.0
C1081 C 0.33945 0.8021 0.10165 0.0
C1082 C 0.30711 0.86152 0.11398 0.0
C1083 C 0.27625 0.8556 0.11301 0.0
C1084 C 0.25117 0.82705 0.11972 0.0
C1085 C 0.25779 0.80417 0.12674 0.0
C1086 C 0.28871 0.81014 0.12769 0.0
H1087 H 0.35422 0.7966 0.09199 0.0
H1088 H 0.32432 0.781 0.11051 0.0
H1089 H 0.32413 0.80721 0.09232 0.0
H1090 H 0.32595 0.884 0.10916 0.0
H1091 H 0.27223 0.87387 0.10756 0.0
H1092 H 0.60246 0.50828 0.63119 0.0
H1093 H 0.56032 0.4547 0.62486 0.0
H1094 H 0.61516 0.41897 0.65167 0.0
H1095 H 0.65717 0.47236 0.65821 0.0
H1096 H 0.55825 0.40691 0.60341 0.0
H1097 H 0.53404 0.37179 0.68154 0.0
H1098 H 0.55836 0.41197 0.67416 0.0
H1099 H 0.57407 0.38603 0.67485 0.0
C1100 C 0.6056 0.48902 0.6357 0.0
C1101 C 0.63314 0.4947 0.6454 0.0
C1102 C 0.58143 0.45836 0.6321 0.0
C1103 C 0.58421 0.43267 0.63813 0.0
C1104 C 0.61199 0.43829 0.64738 0.0
H1105 H 0.46821 0.23066 0.63225 0.0
H1106 H 0.51103 0.28463 0.63463 0.0
C1107 C 0.63606 0.4689 0.65109 0.0
C1108 C 0.5582 0.40004 0.63463 0.0
H1109 H 0.50964 0.33111 0.65788 0.0
C1110 C 0.5475 0.39039 0.61534 0.0
C1111 C 0.54401 0.37841 0.65018 0.0
C1112 C 0.55296 0.38761 0.67136 0.0
C1113 C 0.52364 0.35963 0.61114 0.0
C1114 C 0.50983 0.33795 0.62667 0.0
C1115 C 0.52036 0.34764 0.64595 0.0
C1116 C 0.48437 0.30507 0.62337 0.0
C1117 C 0.51389 0.35035 0.59008 0.0
C1118 C 0.45508 0.29843 0.61603 0.0
C1119 C 0.43039 0.26745 0.61463 0.0
C1120 C 0.43441 0.24241 0.62063 0.0
C1121 C 0.4641 0.24919 0.62744 0.0
C1122 C 0.48869 0.28012 0.62887 0.0
H1123 H 0.53158 0.3671 0.57961 0.0
H1124 H 0.51008 0.3266 0.58701 0.0
H1125 H 0.49153 0.34995 0.58737 0.0
H1126 H 0.45098 0.31727 0.61199 0.0
H1127 H 0.40788 0.26326 0.60944 0.0
H1128 H 0.40271 0.87309 0.43044 0.0
H1129 H 0.4456 0.86322 0.43739 0.0
H1130 H 0.46555 0.8671 0.37546 0.0
H1131 H 0.42376 0.87845 0.36844 0.0
H1132 H 0.45504 0.81586 0.42643 0.0
H1133 H 0.55101 0.92732 0.39725 0.0
H1134 H 0.51214 0.92095 0.40138 0.0
H1135 H 0.52081 0.90624 0.37946 0.0
C1136 C 0.4165 0.87235 0.41829 0.0
C1137 C 0.40978 0.87686 0.39886 0.0
C1138 C 0.44089 0.86642 0.42229 0.0
C1139 C 0.45925 0.86495 0.407 0.0
C1140 C 0.45224 0.86882 0.38758 0.0
H1141 H 0.57704 0.78136 0.40718 0.0
H1142 H 0.53391 0.79199 0.40582 0.0
C1143 C 0.42796 0.87488 0.38356 0.0
C1144 C 0.48534 0.85885 0.41131 0.0
H1145 H 0.56346 0.88733 0.40375 0.0
C1146 C 0.47879 0.8316 0.42158 0.0
C1147 C 0.51651 0.87963 0.40534 0.0
C1148 C 0.52566 0.91033 0.39543 0.0
C1149 C 0.50228 0.82413 0.42551 0.0
C1150 C 0.53311 0.84411 0.41864 0.0
C1151 C 0.53982 0.87181 0.40887 0.0
C1152 C 0.55862 0.8365 0.42092 0.0
C1153 C 0.49385 0.79505 0.43719 0.0
C1154 C 0.58719 0.85804 0.42971 0.0
C1155 C 0.61215 0.85212 0.43035 0.0
C1156 C 0.60916 0.82454 0.42215 0.0
C1157 C 0.58023 0.80268 0.41382 0.0
C1158 C 0.55537 0.80868 0.41311 0.0
H1159 H 0.47293 0.78818 0.44653 0.0
H1160 H 0.48824 0.77544 0.42692 0.0
H1161 H 0.51352 0.79841 0.44673 0.0
H1162 H 0.59038 0.87974 0.43579 0.0
H1163 H 0.63404 0.86958 0.43684 0.0
H1164 H 0.81292 0.56759 0.91288 0.0
H1165 H 0.75914 0.52379 0.91084 0.0
H1166 H 0.72405 0.58649 0.92239 0.0
H1167 H 0.77768 0.63048 0.92463 0.0
H1168 H 0.70339 0.50478 0.941 0.0
H1169 H 0.68913 0.54037 0.86593 0.0
H1170 H 0.72708 0.55124 0.87603 0.0
H1171 H 0.70642 0.57026 0.88456 0.0
C1172 C 0.79383 0.57209 0.91529 0.0
C1173 C 0.79976 0.60271 0.91887 0.0
C1174 C 0.76308 0.54697 0.91411 0.0
C1175 C 0.73765 0.55196 0.9163 0.0
C1176 C 0.74339 0.58219 0.92057 0.0
H1177 H 0.53893 0.44113 0.89267 0.0
H1178 H 0.59263 0.48213 0.899 0.0
C1179 C 0.77411 0.6073 0.92193 0.0
C1180 C 0.70517 0.5259 0.91312 0.0
H1181 H 0.64523 0.49724 0.87995 0.0
C1182 C 0.69061 0.503 0.92766 0.0
C1183 C 0.68861 0.52375 0.89572 0.0
C1184 C 0.70349 0.54754 0.87954 0.0
C1185 C 0.6596 0.47829 0.92543 0.0
C1186 C 0.64301 0.47596 0.90792 0.0
C1187 C 0.65781 0.49889 0.89335 0.0
C1188 C 0.61009 0.45046 0.90451 0.0
C1189 C 0.64465 0.45554 0.94214 0.0
C1190 C 0.6018 0.41879 0.90525 0.0
C1191 C 0.5708 0.39512 0.90194 0.0
C1192 C 0.54737 0.40253 0.89756 0.0
C1193 C 0.55599 0.43433 0.89643 0.0
C1194 C 0.58688 0.45792 0.89988 0.0
H1195 H 0.6568 0.46557 0.95629 0.0
H1196 H 0.61961 0.44856 0.94381 0.0
H1197 H 0.64611 0.43422 0.9391 0.0
H1198 H 0.61934 0.41232 0.90828 0.0
H1199 H 0.56518 0.371 0.90306 0.0
H1200 H 0.16371 0.77138 0.42772 0.0
H1201 H 0.15358 0.71756 0.4269 0.0
H1202 H 0.24669 0.75002 0.4048 0.0
H1203 H 0.25722 0.80385 0.40578 0.0
H1204 H 0.15444 0.68544 0.39378 0.0
H1205 H 0.24042 0.69052 0.44813 0.0
H1206 H 0.22961 0.72038 0.44655 0.0
H1207 H 0.25724 0.72001 0.42947 0.0
C1208 C 0.18227 0.76721 0.423 0.0
C1209 C 0.21134 0.79215 0.41686 0.0
C1210 C 0.17638 0.73634 0.42248 0.0
C1211 C 0.19945 0.72966 0.41599 0.0
C1212 C 0.22869 0.75453 0.41026 0.0
H1213 H 0.20458 0.55926 0.38945 0.0
H1214 H 0.21673 0.61333 0.3947 0.0
C1215 C 0.23462 0.78539 0.41074 0.0
C1216 C 0.19221 0.69661 0.4139 0.0
H1217 H 0.21558 0.64499 0.42798 0.0
C1218 C 0.16766 0.67654 0.40139 0.0
C1219 C 0.20961 0.685 0.42368 0.0
C1220 C 0.23551 0.70498 0.43785 0.0
C1221 C 0.1604 0.64549 0.39809 0.0
C1222 C 0.17772 0.63381 0.40791 0.0
C1223 C 0.20229 0.65387 0.42044 0.0
C1224 C 0.17061 0.60086 0.40535 0.0
C1225 C 0.13478 0.62577 0.38367 0.0
C1226 C 0.14087 0.57573 0.40998 0.0
C1227 C 0.13385 0.54483 0.40696 0.0
C1228 C 0.15651 0.53822 0.39942 0.0
C1229 C 0.18659 0.56342 0.39534 0.0
C1230 C 0.19355 0.59438 0.39829 0.0
H1231 H 0.13006 0.64041 0.37344 0.0
H1232 H 0.14087 0.61057 0.37489 0.0
H1233 H 0.11287 0.61058 0.39184 0.0
H1234 H 0.12301 0.58 0.41597 0.0
H1235 H 0.11068 0.52605 0.4107 0.0
H1236 H 0.64564 0.17896 0.87127 0.0
H1237 H 0.6056 0.19418 0.8753 0.0
H1238 H 0.59017 0.16078 0.93497 0.0
H1239 H 0.63024 0.1458 0.93112 0.0
H1240 H 0.54142 0.15285 0.88539 0.0
H1241 H 0.60034 0.24919 0.93963 0.0
H1242 H 0.62135 0.23523 0.9249 0.0
H1243 H 0.59965 0.21358 0.94607 0.0
C1244 C 0.63406 0.17531 0.88534 0.0
C1245 C 0.64114 0.16112 0.90086 0.0
C1246 C 0.61108 0.18388 0.8876 0.0
C1247 C 0.59506 0.1789 0.9055 0.0
C1248 C 0.60247 0.16525 0.92111 0.0
H1249 H 0.41437 0.16291 0.92747 0.0
H1250 H 0.45986 0.15579 0.92564 0.0
C1251 C 0.62521 0.15644 0.91882 0.0
C1252 C 0.56943 0.18635 0.90756 0.0
H1253 H 0.54634 0.23066 0.93368 0.0
C1254 C 0.54257 0.16997 0.89588 0.0
C1255 C 0.57099 0.20885 0.92116 0.0
C1256 C 0.59972 0.22797 0.93356 0.0
C1257 C 0.517 0.17495 0.89773 0.0
C1258 C 0.51815 0.19674 0.91175 0.0
C1259 C 0.54532 0.21371 0.9231 0.0
C1260 C 0.49134 0.20221 0.91464 0.0
C1261 C 0.48899 0.15699 0.88453 0.0
C1262 C 0.49416 0.23114 0.90982 0.0
C1263 C 0.46814 0.23538 0.91089 0.0
C1264 C 0.43876 0.21081 0.91696 0.0
C1265 C 0.43649 0.18237 0.92269 0.0
C1266 C 0.46247 0.17814 0.92154 0.0
H1267 H 0.49456 0.14669 0.87169 0.0
H1268 H 0.46997 0.13761 0.89299 0.0
H1269 H 0.48012 0.1723 0.87913 0.0
H1270 H 0.51625 0.25011 0.90457 0.0
H1271 H 0.47088 0.25762 0.90637 0.0
H1272 H 0.23185 0.4629 0.40107 0.0
H1273 H 0.28576 0.50633 0.40036 0.0
H1274 H 0.31365 0.45599 0.43928 0.0
H1275 H 0.25978 0.41224 0.43998 0.0
H1276 H 0.3284 0.54433 0.43002 0.0
H1277 H 0.37002 0.47301 0.39094 0.0
H1278 H 0.32904 0.4607 0.39333 0.0
H1279 H 0.34994 0.45672 0.41366 0.0
C1280 C 0.24928 0.46115 0.40973 0.0
C1281 C 0.24137 0.43387 0.4205 0.0
C1282 C 0.28018 0.48606 0.40927 0.0
C1283 C 0.30391 0.48421 0.41944 0.0
C1284 C 0.29586 0.4577 0.43098 0.0
H1285 H 0.50729 0.60243 0.42033 0.0
H1286 H 0.45304 0.56187 0.42631 0.0
C1287 C 0.26495 0.43278 0.43149 0.0
C1288 C 0.33717 0.50948 0.41733 0.0
H1289 H 0.40836 0.5242 0.40007 0.0
C1290 C 0.3459 0.53995 0.42348 0.0
C1291 C 0.36002 0.50379 0.40876 0.0
C1292 C 0.35186 0.47188 0.40112 0.0
C1293 C 0.37691 0.56475 0.42154 0.0
C1294 C 0.39971 0.55911 0.41281 0.0
C1295 C 0.39096 0.52858 0.40678 0.0
C1296 C 0.43271 0.58447 0.4096 0.0
C1297 C 0.38504 0.59662 0.42922 0.0
C1298 C 0.43952 0.61067 0.39805 0.0
C1299 C 0.47059 0.63393 0.39456 0.0
C1300 C 0.49563 0.63139 0.40237 0.0
C1301 C 0.48869 0.60504 0.41388 0.0
C1302 C 0.45763 0.58187 0.4174 0.0
H1303 H 0.36786 0.59511 0.44036 0.0
H1304 H 0.40874 0.60872 0.4359 0.0
H1305 H 0.38476 0.61109 0.41687 0.0
H1306 H 0.42081 0.61289 0.3914 0.0
H1307 H 0.475 0.65356 0.38536 0.0
H1308 H 0.91923 0.49906 0.91783 0.0
H1309 H 0.90653 0.44503 0.9235 0.0
H1310 H 0.82288 0.4118 0.88866 0.0
H1311 H 0.83562 0.46575 0.88276 0.0
H1312 H 0.85682 0.39557 0.94082 0.0
H1313 H 0.86316 0.36732 0.86269 0.0
H1314 H 0.87701 0.40676 0.87111 0.0
H1315 H 0.83592 0.38071 0.86694 0.0
C1316 C 0.89805 0.48026 0.91144 0.0
C1317 C 0.87859 0.48683 0.89969 0.0
C1318 C 0.89085 0.44934 0.91465 0.0
C1319 C 0.86405 0.42424 0.90621 0.0
C1320 C 0.84416 0.4307 0.89489 0.0
H1321 H 0.78352 0.22184 0.90636 0.0
H1322 H 0.79197 0.27495 0.90456 0.0
C1323 C 0.85145 0.46161 0.89155 0.0
C1324 C 0.85687 0.39138 0.90932 0.0
H1325 H 0.84316 0.32493 0.88508 0.0
C1326 C 0.85395 0.38018 0.92863 0.0
C1327 C 0.85317 0.3712 0.89344 0.0
C1328 C 0.85777 0.38215 0.87239 0.0
C1329 C 0.84696 0.34933 0.93244 0.0
C1330 C 0.84305 0.32915 0.91654 0.0
C1331 C 0.84592 0.34031 0.89727 0.0
C1332 C 0.83664 0.29657 0.91947 0.0
C1333 C 0.8433 0.33839 0.95344 0.0
C1334 C 0.85876 0.29088 0.92868 0.0
C1335 C 0.85404 0.26047 0.92973 0.0
C1336 C 0.82709 0.23502 0.92155 0.0
C1337 C 0.8045 0.24072 0.91291 0.0
C1338 C 0.80933 0.27115 0.91179 0.0
H1339 H 0.83926 0.35373 0.96354 0.0
H1340 H 0.82356 0.31405 0.95489 0.0
H1341 H 0.86501 0.3388 0.95816 0.0
H1342 H 0.88026 0.31013 0.93443 0.0
H1343 H 0.87205 0.25712 0.9364 0.0
H1344 H 0.13659 0.34743 0.34739 0.0
H1345 H 0.14165 0.34977 0.31145 0.0
H1346 H 0.23533 0.36509 0.31657 0.0
H1347 H 0.23055 0.36297 0.35244 0.0
H1348 H 0.19227 0.40078 0.28657 0.0
H1349 H 0.18479 0.28482 0.28067 0.0
H1350 H 0.17073 0.29616 0.30189 0.0
H1351 H 0.21194 0.31182 0.2984 0.0
C1352 C 0.15832 0.35149 0.34084 0.0
C1353 C 0.1831 0.3548 0.35269 0.0
C1354 C 0.16118 0.35284 0.32034 0.0
C1355 C 0.18873 0.35724 0.31138 0.0
C1356 C 0.21376 0.36133 0.32321 0.0
H1357 H 0.23992 0.34734 0.19016 0.0
H1358 H 0.23885 0.35204 0.22598 0.0
C1359 C 0.21102 0.3602 0.34369 0.0
C1360 C 0.19111 0.35689 0.28967 0.0
H1361 H 0.19464 0.31378 0.25147 0.0
C1362 C 0.19274 0.38177 0.27884 0.0
C1363 C 0.1919 0.33214 0.2797 0.0
C1364 C 0.18955 0.30454 0.29067 0.0
C1365 C 0.19558 0.38279 0.25826 0.0
C1366 C 0.19594 0.35779 0.24821 0.0
C1367 C 0.1944 0.33296 0.25913 0.0
C1368 C 0.19743 0.35657 0.2264 0.0
C1369 C 0.19891 0.41099 0.24754 0.0
C1370 C 0.17449 0.35745 0.21467 0.0
C1371 C 0.17522 0.35502 0.19422 0.0
C1372 C 0.19863 0.35116 0.1851 0.0
C1373 C 0.2216 0.35028 0.1968 0.0
C1374 C 0.22098 0.35294 0.21726 0.0
H1375 H 0.20789 0.4317 0.25739 0.0
H1376 H 0.21493 0.41705 0.23478 0.0
H1377 H 0.17563 0.40581 0.24208 0.0
H1378 H 0.15561 0.3594 0.22136 0.0
H1379 H 0.1571 0.35557 0.18557 0.0
H1380 H 0.87295 0.23282 0.68949 0.0
H1381 H 0.86654 0.23308 0.72531 0.0
H1382 H 0.85001 0.1387 0.7282 0.0
H1383 H 0.85467 0.13789 0.69259 0.0
H1384 H 0.81082 0.14308 0.75099 0.0
H1385 H 0.928 0.24495 0.7666 0.0
H1386 H 0.9046 0.25409 0.75086 0.0
H1387 H 0.91716 0.22747 0.74255 0.0
C1388 C 0.86802 0.21225 0.69787 0.0
C1389 C 0.86446 0.18541 0.68832 0.0
C1390 C 0.86456 0.21243 0.71835 0.0
C1391 C 0.85835 0.18608 0.72964 0.0
C1392 C 0.85475 0.15933 0.71995 0.0
H1393 H 0.89807 0.17684 0.85098 0.0
H1394 H 0.89647 0.18173 0.81544 0.0
C1395 C 0.85754 0.15893 0.69955 0.0
C1396 C 0.85534 0.18576 0.7515 0.0
H1397 H 0.894 0.22273 0.79358 0.0
C1398 C 0.82903 0.16055 0.7603 0.0
C1399 C 0.87913 0.2084 0.76375 0.0
C1400 C 0.90894 0.23508 0.7555 0.0
C1401 C 0.82631 0.15673 0.78081 0.0
C1402 C 0.84998 0.17951 0.79305 0.0
C1403 C 0.87576 0.20529 0.78427 0.0
C1404 C 0.84998 0.17594 0.81485 0.0
C1405 C 0.79887 0.12746 0.789 0.0
C1406 C 0.82436 0.17094 0.82659 0.0
C1407 C 0.82496 0.16731 0.84702 0.0
C1408 C 0.85153 0.16949 0.85607 0.0
C1409 C 0.87725 0.17503 0.84439 0.0
C1410 C 0.8764 0.17796 0.82404 0.0
H1411 H 0.78795 0.10873 0.77772 0.0
H1412 H 0.80605 0.11828 0.80161 0.0
H1413 H 0.78078 0.13291 0.79413 0.0
H1414 H 0.80403 0.17018 0.82003 0.0
H1415 H 0.80502 0.16354 0.85575 0.0
H1416 H 0.71357 0.82183 0.19271 0.0
H1417 H 0.70929 0.81792 0.22836 0.0
H1418 H 0.67183 0.88029 0.22904 0.0
H1419 H 0.67562 0.88386 0.19295 0.0
H1420 H 0.74056 0.86642 0.25366 0.0
H1421 H 0.6125 0.81049 0.26633 0.0
H1422 H 0.62893 0.81057 0.24258 0.0
H1423 H 0.62906 0.84499 0.25131 0.0
C1424 C 0.704 0.83442 0.20039 0.0
C1425 C 0.69494 0.85318 0.19004 0.0
C1426 C 0.70158 0.83216 0.2208 0.0
C1427 C 0.69007 0.84863 0.23145 0.0
C1428 C 0.68027 0.86691 0.22115 0.0
H1429 H 0.7306 0.89679 0.35469 0.0
H1430 H 0.72495 0.89648 0.31904 0.0
C1431 C 0.68254 0.86905 0.20055 0.0
C1432 C 0.69077 0.84818 0.25332 0.0
H1433 H 0.64512 0.82791 0.29459 0.0
C1434 C 0.71965 0.85798 0.26257 0.0
C1435 C 0.66346 0.83684 0.26499 0.0
C1436 C 0.63165 0.82485 0.25585 0.0
C1437 C 0.72205 0.85694 0.28307 0.0
C1438 C 0.69491 0.84629 0.29478 0.0
C1439 C 0.66592 0.8362 0.28559 0.0
C1440 C 0.69659 0.84618 0.31659 0.0
C1441 C 0.75363 0.86682 0.29201 0.0
C1442 C 0.68191 0.818 0.32718 0.0
C1443 C 0.68511 0.81811 0.34768 0.0
C1444 C 0.70286 0.84643 0.35787 0.0
C1445 C 0.71694 0.87456 0.34724 0.0
C1446 C 0.71377 0.87444 0.32685 0.0
H1447 H 0.77024 0.86673 0.28101 0.0
H1448 H 0.76376 0.89095 0.29788 0.0
H1449 H 0.75151 0.8512 0.30434 0.0
H1450 H 0.66851 0.79591 0.31954 0.0
H1451 H 0.67401 0.79611 0.35551 0.0
H1452 H 0.81415 0.6954 0.69302 0.0
H1453 H 0.81807 0.69445 0.72895 0.0
H1454 H 0.88462 0.66253 0.72318 0.0
H1455 H 0.88154 0.66442 0.68741 0.0
H1456 H 0.80698 0.64928 0.75552 0.0
H1457 H 0.9331 0.73857 0.75713 0.0
H1458 H 0.90967 0.73006 0.73523 0.0
H1459 H 0.9248 0.70512 0.74241 0.0
C1460 C 0.8295 0.68807 0.69946 0.0
C1461 C 0.84787 0.68039 0.68744 0.0
C1462 C 0.83175 0.68754 0.71998 0.0
C1463 C 0.85229 0.67922 0.72882 0.0
C1464 C 0.86938 0.67 0.71677 0.0
H1465 H 0.89812 0.66956 0.85254 0.0
H1466 H 0.89157 0.66221 0.81669 0.0
C1467 C 0.86741 0.67085 0.69631 0.0
C1468 C 0.85615 0.68055 0.75059 0.0
H1469 H 0.9105 0.71349 0.7873 0.0
C1470 C 0.82962 0.66336 0.76244 0.0
C1471 C 0.88571 0.69897 0.75971 0.0
C1472 C 0.91489 0.71947 0.74799 0.0
C1473 C 0.83188 0.66395 0.78306 0.0
C1474 C 0.8614 0.6823 0.7921 0.0
C1475 C 0.88796 0.6992 0.78031 0.0
C1476 C 0.86487 0.68586 0.81378 0.0
C1477 C 0.80271 0.64487 0.79507 0.0
C1478 C 0.8524 0.70189 0.82393 0.0
C1479 C 0.85635 0.70632 0.84424 0.0
C1480 C 0.87274 0.6947 0.85485 0.0
C1481 C 0.88525 0.67861 0.84472 0.0
C1482 C 0.88154 0.67443 0.82429 0.0
H1483 H 0.78332 0.62676 0.78606 0.0
H1484 H 0.80746 0.63327 0.80747 0.0
H1485 H 0.79486 0.66058 0.80134 0.0
H1486 H 0.83988 0.71132 0.81609 0.0
H1487 H 0.84651 0.71889 0.85164 0.0
H1488 H 0.19151 0.89878 0.18896 0.0
H1489 H 0.19577 0.89878 0.22464 0.0
H1490 H 0.17811 0.80396 0.22269 0.0
H1491 H 0.17231 0.80346 0.1868 0.0
H1492 H 0.14718 0.80961 0.25173 0.0
H1493 H 0.26726 0.90967 0.25683 0.0
H1494 H 0.24275 0.92104 0.24419 0.0
H1495 H 0.24986 0.89159 0.23366 0.0
C1496 C 0.18862 0.87793 0.19612 0.0
C1497 C 0.1818 0.85117 0.1851 0.0
C1498 C 0.19139 0.87807 0.21655 0.0
C1499 C 0.18826 0.85173 0.22644 0.0
C1500 C 0.181 0.82473 0.21544 0.0
H1501 H 0.23862 0.87319 0.35198 0.0
H1502 H 0.23868 0.86591 0.31628 0.0
C1503 C 0.17768 0.82442 0.19494 0.0
C1504 C 0.1913 0.85219 0.24828 0.0
H1505 H 0.23653 0.89694 0.28651 0.0
C1506 C 0.16694 0.82851 0.25931 0.0
C1507 C 0.21741 0.87634 0.25833 0.0
C1508 C 0.24593 0.90085 0.2476 0.0
C1509 C 0.16727 0.82909 0.27997 0.0
C1510 C 0.19208 0.85472 0.28997 0.0
C1511 C 0.21714 0.8776 0.27896 0.0
C1512 C 0.19208 0.85872 0.31173 0.0
C1513 C 0.14111 0.80194 0.29077 0.0
C1514 C 0.16624 0.85777 0.32113 0.0
C1515 C 0.16603 0.86137 0.3415 0.0
C1516 C 0.19198 0.86688 0.35291 0.0
C1517 C 0.21829 0.8689 0.34353 0.0
C1518 C 0.21829 0.86473 0.32314 0.0
H1519 H 0.13125 0.78014 0.28188 0.0
H1520 H 0.14916 0.79771 0.30505 0.0
H1521 H 0.12192 0.80701 0.29355 0.0
H1522 H 0.1462 0.85441 0.3127 0.0
H1523 H 0.14556 0.86006 0.34831 0.0
H1524 H 0.38336 0.2311 0.84987 0.0
H1525 H 0.38859 0.23094 0.81397 0.0
H1526 H 0.31163 0.13595 0.81183 0.0
H1527 H 0.30749 0.13562 0.84752 0.0
H1528 H 0.35569 0.14113 0.7887 0.0
H1529 H 0.33605 0.24024 0.77331 0.0
H1530 H 0.36916 0.25056 0.78883 0.0
H1531 H 0.3304 0.22316 0.79738 0.0
C1532 C 0.36758 0.21031 0.84166 0.0
C1533 C 0.34496 0.18343 0.85143 0.0
C1534 C 0.37042 0.21026 0.82113 0.0
C1535 C 0.35014 0.18358 0.81004 0.0
C1536 C 0.32759 0.15682 0.81995 0.0
H1537 H 0.29946 0.17057 0.68844 0.0
H1538 H 0.30531 0.1756 0.72407 0.0
C1539 C 0.32516 0.15669 0.84038 0.0
C1540 C 0.35222 0.18289 0.78819 0.0
H1541 H 0.3482 0.21838 0.74618 0.0
C1542 C 0.35408 0.15807 0.7794 0.0
C1543 C 0.34989 0.20482 0.776 0.0
C1544 C 0.34596 0.23102 0.78432 0.0
C1545 C 0.35279 0.15402 0.7589 0.0
C1546 C 0.35083 0.17615 0.7467 0.0
C1547 C 0.34984 0.20146 0.75547 0.0
C1548 C 0.34751 0.17244 0.72492 0.0
C1549 C 0.35205 0.12524 0.75068 0.0
C1550 C 0.36921 0.1689 0.71335 0.0
C1551 C 0.36542 0.16525 0.69291 0.0
C1552 C 0.34036 0.16593 0.68367 0.0
C1553 C 0.31899 0.16991 0.69519 0.0
C1554 C 0.32241 0.17294 0.71557 0.0
H1555 H 0.34484 0.10665 0.76194 0.0
H1556 H 0.33572 0.11552 0.73804 0.0
H1557 H 0.37583 0.13149 0.74557 0.0
H1558 H 0.38927 0.16931 0.72006 0.0
H1559 H 0.38243 0.16263 0.68433 0.0
H1560 H 0.28881 0.23186 0.93729 0.0
H1561 H 0.26404 0.24191 0.96527 0.0
H1562 H 0.34267 0.2598 1.00174 0.0
H1563 H 0.36724 0.24884 0.97364 0.0
H1564 H 0.28253 0.23051 0.02206 0.0
H1565 H 0.30486 0.33546 0.97936 0.0
H1566 H 0.28146 0.29877 0.967 0.0
H1567 H 0.32167 0.31163 0.97267 0.0
C1568 C 0.30014 0.23649 0.9515 0.0
C1569 C 0.32974 0.23916 0.95339 0.0
C1570 C 0.28614 0.24264 0.96744 0.0
C1571 C 0.3018 0.25233 0.9855 0.0
C1572 C 0.33018 0.25243 0.98792 0.0
H1573 H 0.30634 0.37288 0.07644 0.0
H1574 H 0.31302 0.34772 0.04732 0.0
C1575 C 0.34409 0.24588 0.97193 0.0
C1576 C 0.29054 0.26596 1.00086 0.0
H1577 H 0.27984 0.32818 1.00993 0.0
C1578 C 0.28166 0.25169 1.01938 0.0
C1579 C 0.28972 0.29384 0.99741 0.0
C1580 C 0.30016 0.31105 0.97811 0.0
C1581 C 0.27213 0.26465 0.03452 0.0
C1582 C 0.27133 0.2925 0.03102 0.0
C1583 C 0.27998 0.30659 1.01248 0.0
C1584 C 0.26528 0.30937 0.04705 0.0
C1585 C 0.2641 0.24917 0.0544 0.0
C1586 C 0.23576 0.29698 0.05607 0.0
C1587 C 0.23172 0.31185 0.07255 0.0
C1588 C 0.25722 0.33911 0.08025 0.0
C1589 C 0.28619 0.3522 0.07057 0.0
C1590 C 0.29009 0.33768 0.05404 0.0
H1591 H 0.26967 0.23003 0.05546 0.0
H1592 H 0.27702 0.26663 0.06612 0.0
H1593 H 0.23871 0.2392 0.05721 0.0
H1594 H 0.21622 0.27527 0.05081 0.0
H1595 H 0.20939 0.30088 0.08006 0.0
H1596 H 0.13937 0.36375 0.47561 0.0
H1597 H 0.1081 0.33997 0.50547 0.0
H1598 H 0.04102 0.26135 0.47117 0.0
H1599 H 0.07186 0.28495 0.44164 0.0
H1600 H 0.04592 0.32803 0.50836 0.0
H1601 H 0.04939 0.21892 0.52059 0.0
H1602 H 0.07816 0.25077 0.50588 0.0
H1603 H 0.04046 0.22377 0.49574 0.0
C1604 C 0.11867 0.34081 0.4747 0.0
C1605 C 0.10821 0.32594 0.45643 0.0
C1606 C 0.10063 0.32737 0.49168 0.0
C1607 C 0.07225 0.29871 0.49062 0.0
C1608 C 0.063 0.2831 0.47251 0.0
H1609 H 0.90977 0.24005 0.56804 0.0
H1610 H 0.94252 0.24973 0.53857 0.0
C1611 C 0.0807 0.29663 0.45562 0.0
C1612 C 0.0503 0.28682 0.50762 0.0
H1613 H 1.00893 0.22313 0.53716 0.0
C1614 C 0.038 0.30518 0.51474 0.0
C1615 C 0.03979 0.25692 0.51589 0.0
C1616 C 0.05281 0.23652 0.50928 0.0
C1617 C 1.01531 0.29436 0.5297 0.0
C1618 C 1.00425 0.26417 0.53766 0.0
C1619 C 1.0169 0.24598 0.53078 0.0
C1620 C 0.98187 0.25258 0.55445 0.0
C1621 C 1.00377 0.31561 0.53715 0.0
C1622 C 0.99239 0.24925 0.5729 0.0
C1623 C 0.97383 0.24374 0.58956 0.0
C1624 C 0.94412 0.24094 0.58813 0.0
C1625 C 0.93239 0.24168 0.56949 0.0
C1626 C 0.95125 0.24759 0.55273 0.0
H1627 H 1.01864 0.34006 0.53201 0.0
H1628 H 0.97959 0.30698 0.53177 0.0
H1629 H 1.00319 0.31562 0.55346 0.0
H1630 H 1.0158 0.25286 0.57462 0.0
H1631 H 0.98347 0.24341 0.60379 0.0
H1632 H 0.65594 0.91351 0.07292 0.0
H1633 H 0.6797 0.95076 0.0459 0.0
H1634 H 0.77024 0.96373 0.06103 0.0
H1635 H 0.74669 0.92683 0.08822 0.0
H1636 H 0.77194 0.01974 0.05651 0.0
H1637 H 0.7123 0.94283 0.99274 0.0
H1638 H 0.68564 0.94185 1.01106 0.0
H1639 H 0.71182 0.9276 1.01688 0.0
C1640 C 0.68079 0.92374 0.07022 0.0
C1641 C 0.69937 0.91707 0.08271 0.0
C1642 C 0.69439 0.9451 0.05475 0.0
C1643 C 0.72682 0.96005 0.0513 0.0
C1644 C 0.74522 0.9526 0.06336 0.0
H1645 H 0.80946 0.06537 0.94462 0.0
H1646 H 0.79767 0.03125 0.97308 0.0
C1647 C 0.73165 0.93128 0.07883 0.0
C1648 C 0.74175 0.98449 0.03576 0.0
H1649 H 0.73993 0.99757 0.98666 0.0
C1650 C 0.76508 1.01484 0.0412 0.0
C1651 C 0.73314 0.97816 1.01574 0.0
C1652 C 0.70958 0.94578 1.00868 0.0
C1653 C 0.77954 0.03905 0.02727 0.0
C1654 C 0.77012 0.03295 1.00736 0.0
C1655 C 0.74715 1.00245 1.00191 0.0
C1656 C 0.78348 0.05752 0.99176 0.0
C1657 C 0.80508 0.07076 0.034 0.0
C1658 C 0.78098 0.08468 0.99294 0.0
C1659 C 0.78853 0.10475 0.9767 0.0
C1660 C 0.79841 0.09778 0.95901 0.0
C1661 C 0.80265 0.07171 0.95825 0.0
C1662 C 0.79549 0.05195 0.97445 0.0
H1663 H 0.81586 0.0692 0.04796 0.0
H1664 H 0.8237 0.08195 0.02272 0.0
H1665 H 0.79494 0.08606 0.03664 0.0
H1666 H 0.77115 0.08925 1.0059 0.0
H1667 H 0.78399 0.12404 0.97743 0.0
H1668 H 0.73886 0.64811 0.57496 0.0
H1669 H 0.73055 0.67743 0.54918 0.0
H1670 H 0.82172 0.75691 0.56055 0.0
H1671 H 0.83024 0.72735 0.5866 0.0
H1672 H 0.7334 0.73747 0.55897 0.0
H1673 H 0.81344 0.74679 0.49823 0.0
H1674 H 0.79933 0.71551 0.51599 0.0
H1675 H 0.82789 0.75448 0.52311 0.0
C1676 C 0.75756 0.67152 0.57162 0.0
C1677 C 0.78528 0.68533 0.58273 0.0
C1678 C 0.75268 0.68834 0.55694 0.0
C1679 C 0.77541 0.7194 0.55294 0.0
C1680 C 0.80394 0.73286 0.56327 0.0
H1681 H 0.74522 0.82565 0.45915 0.0
H1682 H 0.76952 0.81687 0.48819 0.0
C1683 C 0.80888 0.7159 0.57805 0.0
C1684 C 0.76759 0.73787 0.53912 0.0
H1685 H 0.77882 0.76549 0.49207 0.0
C1686 C 0.74367 0.74402 0.54444 0.0
C1687 C 0.78119 0.74676 0.52026 0.0
C1688 C 0.80686 0.74058 0.51386 0.0
C1689 C 0.73209 0.75755 0.53115 0.0
C1690 C 0.74425 0.7646 0.51183 0.0
C1691 C 0.76941 0.76008 0.50686 0.0
C1692 C 0.72872 0.77287 0.49602 0.0
C1693 C 0.70645 0.7636 0.53785 0.0
C1694 C 0.69757 0.75154 0.49095 0.0
C1695 C 0.68379 0.75659 0.47449 0.0
C1696 C 0.70064 0.78326 0.46278 0.0
C1697 C 0.73133 0.80546 0.4683 0.0
C1698 C 0.74535 0.80021 0.48473 0.0
H1699 H 0.70736 0.76734 0.554 0.0
H1700 H 0.70806 0.78432 0.53041 0.0
H1701 H 0.68341 0.74293 0.53431 0.0
H1702 H 0.6844 0.72995 0.49906 0.0
H1703 H 0.66046 0.73865 0.47022 0.0
H1704 H 0.9446 0.65584 0.96594 0.0
H1705 H 0.97745 0.68207 0.99442 0.0
H1706 H 0.96395 0.76087 0.98538 0.0
H1707 H 0.93039 0.73416 0.95677 0.0
H1708 H 0.02936 0.77545 0.98854 0.0
H1709 H 0.9565 0.70125 0.04991 0.0
H1710 H 0.9591 0.6794 0.02958 0.0
H1711 H 0.94022 0.70217 0.02634 0.0
C1712 C 0.94766 0.67827 0.97045 0.0
C1713 C 0.93434 0.69265 0.9594 0.0
C1714 C 0.96663 0.69334 0.98668 0.0
C1715 C 0.97315 0.72342 0.99214 0.0
C1716 C 0.95911 0.73758 0.98151 0.0
H1717 H 0.07683 0.79646 0.10108 0.0
H1718 H 0.04166 0.78774 0.07364 0.0
C1719 C 0.93958 0.72216 0.96534 0.0
C1720 C 0.99625 0.74029 1.00814 0.0
H1721 H 1.01121 0.73306 0.0562 0.0
C1722 C 0.02526 0.76655 1.00344 0.0
C1723 C 0.99095 0.7288 0.02759 0.0
C1724 C 0.95991 0.70153 0.03376 0.0
C1725 C 0.04945 0.78081 1.01748 0.0
C1726 C 0.04467 0.76826 0.03669 0.0
C1727 C 1.01518 0.74272 0.0415 0.0
C1728 C 0.0697 0.78047 0.0521 0.0
C1729 C 0.07985 0.80914 1.01157 0.0
C1730 C 0.09817 0.78083 0.04912 0.0
C1731 C 0.11887 0.78668 0.06487 0.0
C1732 C 0.11126 0.79192 0.08385 0.0
C1733 C 0.08372 0.79326 0.08653 0.0
C1734 C 0.06336 0.78789 0.07085 0.0
H1735 H 0.07656 0.82144 0.99897 0.0
H1736 H 0.0903 0.82585 0.02399 0.0
H1737 H 0.09665 0.80159 1.00698 0.0
H1738 H 0.10342 0.77448 0.03498 0.0
H1739 H 0.1394 0.78448 0.06254 0.0
H1740 H 0.30529 0.93935 0.4631 0.0
H1741 H 0.31306 0.97487 0.49022 0.0
H1742 H 0.21911 0.95786 0.48266 0.0
H1743 H 0.21108 0.92153 0.45543 0.0
H1744 H 0.30744 0.02951 0.48227 0.0
H1745 H 0.23151 0.95801 0.54414 0.0
H1746 H 0.24463 0.9412 0.52539 0.0
H1747 H 0.2153 0.95123 0.51972 0.0
C1748 C 0.28582 0.94218 0.4677 0.0
C1749 C 0.25745 0.92735 0.45729 0.0
C1750 C 0.29039 0.96274 0.48311 0.0
C1751 C 0.26679 0.96924 0.48847 0.0
C1752 C 0.23759 0.95299 0.47894 0.0
H1753 H 0.30159 0.10814 0.58253 0.0
H1754 H 0.27551 0.07432 0.55393 0.0
C1755 C 0.2329 0.93203 0.46347 0.0
C1756 C 0.2746 0.99541 0.5025 0.0
H1757 H 0.2655 1.01161 0.55015 0.0
C1758 C 0.29789 0.02565 0.49702 0.0
C1759 C 0.26195 0.99054 0.52167 0.0
C1760 C 0.23702 0.95854 0.52827 0.0
C1761 C 0.3099 0.05072 0.51042 0.0
C1762 C 0.29874 0.04547 0.52997 0.0
C1763 C 0.27411 0.01567 0.53516 0.0
C1764 C 0.31514 0.06927 0.54571 0.0
C1765 C 0.33513 0.0825 0.50364 0.0
C1766 C 0.3462 0.07823 0.55039 0.0
C1767 C 0.36094 0.09736 0.56663 0.0
C1768 C 0.3452 0.10841 0.57848 0.0
C1769 C 0.31462 0.1008 0.57331 0.0
C1770 C 0.29958 0.08113 0.55713 0.0
H1771 H 0.33394 0.08522 0.48752 0.0
H1772 H 0.33329 0.10147 0.51122 0.0
H1773 H 0.35836 0.08528 0.50703 0.0
H1774 H 0.35856 0.06901 0.54209 0.0
H1775 H 0.3842 0.10217 0.57057 0.0
loop_
_geom_bond_atom_site_label_1
_geom_bond_atom_site_label_2
_geom_bond_distance
_geom_bond_site_symmetry_2
_ccdc_geom_bond_type
Nd0 C2 2.836 . S
Nd0 O20 2.500 . S
Nd0 O21 2.492 . S
Nd0 O22 2.487 . S
Nd0 O23 2.682 . S
Nd0 O24 2.410 . S
Nd0 O29 2.414 . S
Nd0 O31 2.424 . S
Nd1 C11 2.836 . S
Nd1 O23 2.414 . S
Nd1 O25 2.424 . S
Nd1 O26 2.500 . S
Nd1 O27 2.492 . S
Nd1 O28 2.487 . S
Nd1 O29 2.682 . S
Nd1 O30 2.410 . S
C2 Nd0 2.836 . S
C2 C3 1.498 . S
C2 O20 1.258 . S
C2 O21 1.239 . S
C3 C2 1.498 . S
C3 C4 1.366 . S
C3 C8 1.407 . S
C4 C3 1.366 . S
C4 C5 1.392 . S
C4 H32 0.930 . S
C5 C4 1.392 . S
C5 C6 1.398 . S
C5 H33 0.929 . S
C6 C5 1.398 . S
C6 C7 1.352 . S
C7 C6 1.352 . S
C7 C8 1.384 . S
C7 H34 0.930 . S
C8 C3 1.407 . S
C8 C7 1.384 . S
C8 H35 0.929 . S
C9 O22 1.241 . S
C9 O23 1.273 . S
C10 O24 1.251 . S
C10 O25 1.268 . S
C11 Nd1 2.836 . S
C11 C12 1.498 . S
C11 O26 1.258 . S
C11 O27 1.239 . S
C12 C11 1.498 . S
C12 C13 1.366 . S
C12 C17 1.407 . S
C13 C12 1.366 . S
C13 C14 1.392 . S
C13 H36 0.930 . S
C14 C13 1.392 . S
C14 C15 1.398 . S
C14 H37 0.929 . S
C15 C14 1.398 . S
C15 C16 1.352 . S
C16 C15 1.352 . S
C16 C17 1.384 . S
C16 H38 0.930 . S
C17 C12 1.407 . S
C17 C16 1.384 . S
C17 H39 0.929 . S
C18 O28 1.241 . S
C18 O29 1.273 . S
C19 O30 1.251 . S
C19 O31 1.268 . S
O20 Nd0 2.500 . S
O20 C2 1.258 . S
O21 Nd0 2.492 . S
O21 C2 1.239 . S
O22 Nd0 2.487 . S
O22 C9 1.241 . S
O23 Nd0 2.682 . S
O23 Nd1 2.414 . S
O23 C9 1.273 . S
O24 Nd0 2.410 . S
O24 C10 1.251 . S
O25 Nd1 2.424 . S
O25 C10 1.268 . S
O26 Nd1 2.500 . S
O26 C11 1.258 . S
O27 Nd1 2.492 . S
O27 C11 1.239 . S
O28 Nd1 2.487 . S
O28 C18 1.241 . S
O29 Nd0 2.414 . S
O29 Nd1 2.682 . S
O29 C18 1.273 . S
O30 Nd1 2.410 . S
O30 C19 1.251 . S
O31 Nd0 2.424 . S
O31 C19 1.268 . S
H32 C4 0.930 . S
H33 C5 0.929 . S
H34 C7 0.930 . S
H35 C8 0.929 . S
H36 C13 0.930 . S
H37 C14 0.929 . S
H38 C16 0.930 . S
H39 C17 0.929 . S
Nd40 C42 2.836 . S
Nd40 O60 2.500 . S
Nd40 O61 2.492 . S
Nd40 O62 2.487 . S
Nd40 O63 2.682 . S
Nd40 O64 2.410 . S
Nd40 O69 2.414 . S
Nd40 O71 2.424 . S
Nd41 C51 2.836 . S
Nd41 O63 2.414 . S
Nd41 O65 2.424 . S
Nd41 O66 2.500 . S
Nd41 O67 2.492 . S
Nd41 O68 2.487 . S
Nd41 O69 2.682 . S
Nd41 O70 2.410 . S
C42 Nd40 2.836 . S
C42 C43 1.498 . S
C42 O60 1.258 . S
C42 O61 1.239 . S
C43 C42 1.498 . S
C43 C44 1.366 . S
C43 C48 1.407 . S
C44 C43 1.366 . S
C44 C45 1.392 . S
C44 H72 0.930 . S
C45 C44 1.392 . S
C45 C46 1.398 . S
C45 H73 0.929 . S
C46 C45 1.398 . S
C46 C47 1.352 . S
C47 C46 1.352 . S
C47 C48 1.384 . S
C47 H74 0.930 . S
C48 C43 1.407 . S
C48 C47 1.384 . S
C48 H75 0.929 . S
C49 O62 1.241 . S
C49 O63 1.273 . S
C50 O64 1.251 . S
C50 O65 1.268 . S
C51 Nd41 2.836 . S
C51 C52 1.498 . S
C51 O66 1.258 . S
C51 O67 1.239 . S
C52 C51 1.498 . S
C52 C53 1.366 . S
C52 C57 1.407 . S
C53 C52 1.366 . S
C53 C54 1.392 . S
C53 H76 0.930 . S
C54 C53 1.392 . S
C54 C55 1.398 . S
C54 H77 0.929 . S
C55 C54 1.398 . S
C55 C56 1.352 . S
C56 C55 1.352 . S
C56 C57 1.384 . S
C56 H78 0.930 . S
C57 C52 1.407 . S
C57 C56 1.384 . S
C57 H79 0.929 . S
C58 O68 1.241 . S
C58 O69 1.273 . S
C59 O70 1.251 . S
C59 O71 1.268 . S
O60 Nd40 2.500 . S
O60 C42 1.258 . S
O61 Nd40 2.492 . S
O61 C42 1.239 . S
O62 Nd40 2.487 . S
O62 C49 1.241 . S
O63 Nd40 2.682 . S
O63 Nd41 2.414 . S
O63 C49 1.273 . S
O64 Nd40 2.410 . S
O64 C50 1.251 . S
O65 Nd41 2.424 . S
O65 C50 1.268 . S
O66 Nd41 2.500 . S
O66 C51 1.258 . S
O67 Nd41 2.492 . S
O67 C51 1.239 . S
O68 Nd41 2.487 . S
O68 C58 1.241 . S
O69 Nd40 2.414 . S
O69 Nd41 2.682 . S
O69 C58 1.273 . S
O70 Nd41 2.410 . S
O70 C59 1.251 . S
O71 Nd40 2.424 . S
O71 C59 1.268 . S
H72 C44 0.930 . S
H73 C45 0.929 . S
H74 C47 0.930 . S
H75 C48 0.929 . S
H76 C53 0.930 . S
H77 C54 0.929 . S
H78 C56 0.930 . S
H79 C57 0.929 . S
Nd80 C82 2.836 . S
Nd80 O100 2.500 . S
Nd80 O101 2.492 . S
Nd80 O102 2.487 . S
Nd80 O103 2.682 . S
Nd80 O104 2.410 . S
Nd80 O109 2.414 . S
Nd80 O111 2.424 . S
Nd81 C91 2.836 . S
Nd81 O103 2.414 . S
Nd81 O105 2.424 . S
Nd81 O106 2.500 . S
Nd81 O107 2.492 . S
Nd81 O108 2.487 . S
Nd81 O109 2.682 . S
Nd81 O110 2.410 . S
C82 Nd80 2.836 . S
C82 C83 1.498 . S
C82 O100 1.258 . S
C82 O101 1.239 . S
C83 C82 1.498 . S
C83 C84 1.366 . S
C83 C88 1.407 . S
C84 C83 1.366 . S
C84 C85 1.392 . S
C84 H112 0.930 . S
C85 C84 1.392 . S
C85 C86 1.398 . S
C85 H113 0.929 . S
C86 C85 1.398 . S
C86 C87 1.352 . S
C87 C86 1.352 . S
C87 C88 1.384 . S
C87 H114 0.930 . S
C88 C83 1.407 . S
C88 C87 1.384 . S
C88 H115 0.929 . S
C89 O102 1.241 . S
C89 O103 1.273 . S
C90 O104 1.251 . S
C90 O105 1.268 . S
C91 Nd81 2.836 . S
C91 C92 1.498 . S
C91 O106 1.258 . S
C91 O107 1.239 . S
C92 C91 1.498 . S
C92 C93 1.366 . S
C92 C97 1.407 . S
C93 C92 1.366 . S
C93 C94 1.392 . S
C93 H116 0.930 . S
C94 C93 1.392 . S
C94 C95 1.398 . S
C94 H117 0.929 . S
C95 C94 1.398 . S
C95 C96 1.352 . S
C96 C95 1.352 . S
C96 C97 1.384 . S
C96 H118 0.930 . S
C97 C92 1.407 . S
C97 C96 1.384 . S
C97 H119 0.929 . S
C98 O108 1.241 . S
C98 O109 1.273 . S
C99 O110 1.251 . S
C99 O111 1.268 . S
O100 Nd80 2.500 . S
O100 C82 1.258 . S
O101 Nd80 2.492 . S
O101 C82 1.239 . S
O102 Nd80 2.487 . S
O102 C89 1.241 . S
O103 Nd80 2.682 . S
O103 Nd81 2.414 . S
O103 C89 1.273 . S
O104 Nd80 2.410 . S
O104 C90 1.251 . S
O105 Nd81 2.424 . S
O105 C90 1.268 . S
O106 Nd81 2.500 . S
O106 C91 1.258 . S
O107 Nd81 2.492 . S
O107 C91 1.239 . S
O108 Nd81 2.487 . S
O108 C98 1.241 . S
O109 Nd80 2.414 . S
O109 Nd81 2.682 . S
O109 C98 1.273 . S
O110 Nd81 2.410 . S
O110 C99 1.251 . S
O111 Nd80 2.424 . S
O111 C99 1.268 . S
H112 C84 0.930 . S
H113 C85 0.929 . S
H114 C87 0.930 . S
H115 C88 0.929 . S
H116 C93 0.930 . S
H117 C94 0.929 . S
H118 C96 0.930 . S
H119 C97 0.929 . S
Nd120 C122 2.836 . S
Nd120 O140 2.500 . S
Nd120 O141 2.492 . S
Nd120 O142 2.487 . S
Nd120 O143 2.682 . S
Nd120 O144 2.410 . S
Nd120 O149 2.414 . S
Nd120 O151 2.424 . S
Nd121 C131 2.836 . S
Nd121 O143 2.414 . S
Nd121 O145 2.424 . S
Nd121 O146 2.500 . S
Nd121 O147 2.492 . S
Nd121 O148 2.487 . S
Nd121 O149 2.682 . S
Nd121 O150 2.410 . S
C122 Nd120 2.836 . S
C122 C123 1.498 . S
C122 O140 1.258 . S
C122 O141 1.239 . S
C123 C122 1.498 . S
C123 C124 1.366 . S
C123 C128 1.407 . S
C124 C123 1.366 . S
C124 C125 1.392 . S
C124 H152 0.930 . S
C125 C124 1.392 . S
C125 C126 1.398 . S
C125 H153 0.929 . S
C126 C125 1.398 . S
C126 C127 1.352 . S
C127 C126 1.352 . S
C127 C128 1.384 . S
C127 H154 0.930 . S
C128 C123 1.407 . S
C128 C127 1.384 . S
C128 H155 0.929 . S
C129 O142 1.241 . S
C129 O143 1.273 . S
C130 O144 1.251 . S
C130 O145 1.268 . S
C131 Nd121 2.836 . S
C131 C132 1.498 . S
C131 O146 1.258 . S
C131 O147 1.239 . S
C132 C131 1.498 . S
C132 C133 1.366 . S
C132 C137 1.407 . S
C133 C132 1.366 . S
C133 C134 1.392 . S
C133 H156 0.930 . S
C134 C133 1.392 . S
C134 C135 1.398 . S
C134 H157 0.929 . S
C135 C134 1.398 . S
C135 C136 1.352 . S
C136 C135 1.352 . S
C136 C137 1.384 . S
C136 H158 0.930 . S
C137 C132 1.407 . S
C137 C136 1.384 . S
C137 H159 0.929 . S
C138 O148 1.241 . S
C138 O149 1.273 . S
C139 O150 1.251 . S
C139 O151 1.268 . S
O140 Nd120 2.500 . S
O140 C122 1.258 . S
O141 Nd120 2.492 . S
O141 C122 1.239 . S
O142 Nd120 2.487 . S
O142 C129 1.241 . S
O143 Nd120 2.682 . S
O143 Nd121 2.414 . S
O143 C129 1.273 . S
O144 Nd120 2.410 . S
O144 C130 1.251 . S
O145 Nd121 2.424 . S
O145 C130 1.268 . S
O146 Nd121 2.500 . S
O146 C131 1.258 . S
O147 Nd121 2.492 . S
O147 C131 1.239 . S
O148 Nd121 2.487 . S
O148 C138 1.241 . S
O149 Nd120 2.414 . S
O149 Nd121 2.682 . S
O149 C138 1.273 . S
O150 Nd121 2.410 . S
O150 C139 1.251 . S
O151 Nd120 2.424 . S
O151 C139 1.268 . S
H152 C124 0.930 . S
H153 C125 0.929 . S
H154 C127 0.930 . S
H155 C128 0.929 . S
H156 C133 0.930 . S
H157 C134 0.929 . S
H158 C136 0.930 . S
H159 C137 0.929 . S
Nd160 C162 2.836 . S
Nd160 O180 2.500 . S
Nd160 O181 2.492 . S
Nd160 O182 2.487 . S
Nd160 O183 2.682 . S
Nd160 O184 2.410 . S
Nd160 O189 2.414 . S
Nd160 O191 2.424 . S
Nd161 C171 2.836 . S
Nd161 O183 2.414 . S
Nd161 O185 2.424 . S
Nd161 O186 2.500 . S
Nd161 O187 2.492 . S
Nd161 O188 2.487 . S
Nd161 O189 2.682 . S
Nd161 O190 2.410 . S
C162 Nd160 2.836 . S
C162 C163 1.498 . S
C162 O180 1.258 . S
C162 O181 1.239 . S
C163 C162 1.498 . S
C163 C164 1.366 . S
C163 C168 1.407 . S
C164 C163 1.366 . S
C164 C165 1.392 . S
C164 H192 0.930 . S
C165 C164 1.392 . S
C165 C166 1.398 . S
C165 H193 0.929 . S
C166 C165 1.398 . S
C166 C167 1.352 . S
C167 C166 1.352 . S
C167 C168 1.384 . S
C167 H194 0.930 . S
C168 C163 1.407 . S
C168 C167 1.384 . S
C168 H195 0.929 . S
C169 O182 1.241 . S
C169 O183 1.273 . S
C170 O184 1.251 . S
C170 O185 1.268 . S
C171 Nd161 2.836 . S
C171 C172 1.498 . S
C171 O186 1.258 . S
C171 O187 1.239 . S
C172 C171 1.498 . S
C172 C173 1.366 . S
C172 C177 1.407 . S
C173 C172 1.366 . S
C173 C174 1.392 . S
C173 H196 0.930 . S
C174 C173 1.392 . S
C174 C175 1.398 . S
C174 H197 0.929 . S
C175 C174 1.398 . S
C175 C176 1.352 . S
C176 C175 1.352 . S
C176 C177 1.384 . S
C176 H198 0.930 . S
C177 C172 1.407 . S
C177 C176 1.384 . S
C177 H199 0.929 . S
C178 O188 1.241 . S
C178 O189 1.273 . S
C179 O190 1.251 . S
C179 O191 1.268 . S
O180 Nd160 2.500 . S
O180 C162 1.258 . S
O181 Nd160 2.492 . S
O181 C162 1.239 . S
O182 Nd160 2.487 . S
O182 C169 1.241 . S
O183 Nd160 2.682 . S
O183 Nd161 2.414 . S
O183 C169 1.273 . S
O184 Nd160 2.410 . S
O184 C170 1.251 . S
O185 Nd161 2.424 . S
O185 C170 1.268 . S
O186 Nd161 2.500 . S
O186 C171 1.258 . S
O187 Nd161 2.492 . S
O187 C171 1.239 . S
O188 Nd161 2.487 . S
O188 C178 1.241 . S
O189 Nd160 2.414 . S
O189 Nd161 2.682 . S
O189 C178 1.273 . S
O190 Nd161 2.410 . S
O190 C179 1.251 . S
O191 Nd160 2.424 . S
O191 C179 1.268 . S
H192 C164 0.930 . S
H193 C165 0.929 . S
H194 C167 0.930 . S
H195 C168 0.929 . S
H196 C173 0.930 . S
H197 C174 0.929 . S
H198 C176 0.930 . S
H199 C177 0.929 . S
Nd200 C202 2.836 . S
Nd200 O220 2.500 . S
Nd200 O221 2.492 . S
Nd200 O222 2.487 . S
Nd200 O223 2.682 . S
Nd200 O224 2.410 . S
Nd200 O229 2.414 . S
Nd200 O231 2.424 . S
Nd201 C211 2.836 . S
Nd201 O223 2.414 . S
Nd201 O225 2.424 . S
Nd201 O226 2.500 . S
Nd201 O227 2.492 . S
Nd201 O228 2.487 . S
Nd201 O229 2.682 . S
Nd201 O230 2.410 . S
C202 Nd200 2.836 . S
C202 C203 1.498 . S
C202 O220 1.258 . S
C202 O221 1.239 . S
C203 C202 1.498 . S
C203 C204 1.366 . S
C203 C208 1.407 . S
C204 C203 1.366 . S
C204 C205 1.392 . S
C204 H232 0.930 . S
C205 C204 1.392 . S
C205 C206 1.398 . S
C205 H233 0.929 . S
C206 C205 1.398 . S
C206 C207 1.352 . S
C207 C206 1.352 . S
C207 C208 1.384 . S
C207 H234 0.930 . S
C208 C203 1.407 . S
C208 C207 1.384 . S
C208 H235 0.929 . S
C209 O222 1.241 . S
C209 O223 1.273 . S
C210 O224 1.251 . S
C210 O225 1.268 . S
C211 Nd201 2.836 . S
C211 C212 1.498 . S
C211 O226 1.258 . S
C211 O227 1.239 . S
C212 C211 1.498 . S
C212 C213 1.366 . S
C212 C217 1.407 . S
C213 C212 1.366 . S
C213 C214 1.392 . S
C213 H236 0.930 . S
C214 C213 1.392 . S
C214 C215 1.398 . S
C214 H237 0.929 . S
C215 C214 1.398 . S
C215 C216 1.352 . S
C216 C215 1.352 . S
C216 C217 1.384 . S
C216 H238 0.930 . S
C217 C212 1.407 . S
C217 C216 1.384 . S
C217 H239 0.929 . S
C218 O228 1.241 . S
C218 O229 1.273 . S
C219 O230 1.251 . S
C219 O231 1.268 . S
O220 Nd200 2.500 . S
O220 C202 1.258 . S
O221 Nd200 2.492 . S
O221 C202 1.239 . S
O222 Nd200 2.487 . S
O222 C209 1.241 . S
O223 Nd200 2.682 . S
O223 Nd201 2.414 . S
O223 C209 1.273 . S
O224 Nd200 2.410 . S
O224 C210 1.251 . S
O225 Nd201 2.424 . S
O225 C210 1.268 . S
O226 Nd201 2.500 . S
O226 C211 1.258 . S
O227 Nd201 2.492 . S
O227 C211 1.239 . S
O228 Nd201 2.487 . S
O228 C218 1.241 . S
O229 Nd200 2.414 . S
O229 Nd201 2.682 . S
O229 C218 1.273 . S
O230 Nd201 2.410 . S
O230 C219 1.251 . S
O231 Nd200 2.424 . S
O231 C219 1.268 . S
H232 C204 0.930 . S
H233 C205 0.929 . S
H234 C207 0.930 . S
H235 C208 0.929 . S
H236 C213 0.930 . S
H237 C214 0.929 . S
H238 C216 0.930 . S
H239 C217 0.929 . S
Nd240 C242 2.836 . S
Nd240 O260 2.500 . S
Nd240 O261 2.492 . S
Nd240 O262 2.487 . S
Nd240 O263 2.682 . S
Nd240 O264 2.410 . S
Nd240 O269 2.414 . S
Nd240 O271 2.424 . S
Nd241 C251 2.836 . S
Nd241 O263 2.414 . S
Nd241 O265 2.424 . S
Nd241 O266 2.500 . S
Nd241 O267 2.492 . S
Nd241 O268 2.487 . S
Nd241 O269 2.682 . S
Nd241 O270 2.410 . S
C242 Nd240 2.836 . S
C242 C243 1.498 . S
C242 O260 1.258 . S
C242 O261 1.239 . S
C243 C242 1.498 . S
C243 C244 1.366 . S
C243 C248 1.407 . S
C244 C243 1.366 . S
C244 C245 1.392 . S
C244 H272 0.930 . S
C245 C244 1.392 . S
C245 C246 1.398 . S
C245 H273 0.929 . S
C246 C245 1.398 . S
C246 C247 1.352 . S
C247 C246 1.352 . S
C247 C248 1.384 . S
C247 H274 0.930 . S
C248 C243 1.407 . S
C248 C247 1.384 . S
C248 H275 0.929 . S
C249 O262 1.241 . S
C249 O263 1.273 . S
C250 O264 1.251 . S
C250 O265 1.268 . S
C251 Nd241 2.836 . S
C251 C252 1.498 . S
C251 O266 1.258 . S
C251 O267 1.239 . S
C252 C251 1.498 . S
C252 C253 1.366 . S
C252 C257 1.407 . S
C253 C252 1.366 . S
C253 C254 1.392 . S
C253 H276 0.930 . S
C254 C253 1.392 . S
C254 C255 1.398 . S
C254 H277 0.929 . S
C255 C254 1.398 . S
C255 C256 1.352 . S
C256 C255 1.352 . S
C256 C257 1.384 . S
C256 H278 0.930 . S
C257 C252 1.407 . S
C257 C256 1.384 . S
C257 H279 0.929 . S
C258 O268 1.241 . S
C258 O269 1.273 . S
C259 O270 1.251 . S
C259 O271 1.268 . S
O260 Nd240 2.500 . S
O260 C242 1.258 . S
O261 Nd240 2.492 . S
O261 C242 1.239 . S
O262 Nd240 2.487 . S
O262 C249 1.241 . S
O263 Nd240 2.682 . S
O263 Nd241 2.414 . S
O263 C249 1.273 . S
O264 Nd240 2.410 . S
O264 C250 1.251 . S
O265 Nd241 2.424 . S
O265 C250 1.268 . S
O266 Nd241 2.500 . S
O266 C251 1.258 . S
O267 Nd241 2.492 . S
O267 C251 1.239 . S
O268 Nd241 2.487 . S
O268 C258 1.241 . S
O269 Nd240 2.414 . S
O269 Nd241 2.682 . S
O269 C258 1.273 . S
O270 Nd241 2.410 . S
O270 C259 1.251 . S
O271 Nd240 2.424 . S
O271 C259 1.268 . S
H272 C244 0.930 . S
H273 C245 0.929 . S
H274 C247 0.930 . S
H275 C248 0.929 . S
H276 C253 0.930 . S
H277 C254 0.929 . S
H278 C256 0.930 . S
H279 C257 0.929 . S
Nd280 C282 2.836 . S
Nd280 O300 2.500 . S
Nd280 O301 2.492 . S
Nd280 O302 2.487 . S
Nd280 O303 2.682 . S
Nd280 O304 2.410 . S
Nd280 O309 2.414 . S
Nd280 O311 2.424 . S
Nd281 C291 2.836 . S
Nd281 O303 2.414 . S
Nd281 O305 2.424 . S
Nd281 O306 2.500 . S
Nd281 O307 2.492 . S
Nd281 O308 2.487 . S
Nd281 O309 2.682 . S
Nd281 O310 2.410 . S
C282 Nd280 2.836 . S
C282 C283 1.498 . S
C282 O300 1.258 . S
C282 O301 1.239 . S
C283 C282 1.498 . S
C283 C284 1.366 . S
C283 C288 1.407 . S
C284 C283 1.366 . S
C284 C285 1.392 . S
C284 H312 0.930 . S
C285 C284 1.392 . S
C285 C286 1.398 . S
C285 H313 0.929 . S
C286 C285 1.398 . S
C286 C287 1.352 . S
C287 C286 1.352 . S
C287 C288 1.384 . S
C287 H314 0.930 . S
C288 C283 1.407 . S
C288 C287 1.384 . S
C288 H315 0.929 . S
C289 O302 1.241 . S
C289 O303 1.273 . S
C290 O304 1.251 . S
C290 O305 1.268 . S
C291 Nd281 2.836 . S
C291 C292 1.498 . S
C291 O306 1.258 . S
C291 O307 1.239 . S
C292 C291 1.498 . S
C292 C293 1.366 . S
C292 C297 1.407 . S
C293 C292 1.366 . S
C293 C294 1.392 . S
C293 H316 0.930 . S
C294 C293 1.392 . S
C294 C295 1.398 . S
C294 H317 0.929 . S
C295 C294 1.398 . S
C295 C296 1.352 . S
C296 C295 1.352 . S
C296 C297 1.384 . S
C296 H318 0.930 . S
C297 C292 1.407 . S
C297 C296 1.384 . S
C297 H319 0.929 . S
C298 O308 1.241 . S
C298 O309 1.273 . S
C299 O310 1.251 . S
C299 O311 1.268 . S
O300 Nd280 2.500 . S
O300 C282 1.258 . S
O301 Nd280 2.492 . S
O301 C282 1.239 . S
O302 Nd280 2.487 . S
O302 C289 1.241 . S
O303 Nd280 2.682 . S
O303 Nd281 2.414 . S
O303 C289 1.273 . S
O304 Nd280 2.410 . S
O304 C290 1.251 . S
O305 Nd281 2.424 . S
O305 C290 1.268 . S
O306 Nd281 2.500 . S
O306 C291 1.258 . S
O307 Nd281 2.492 . S
O307 C291 1.239 . S
O308 Nd281 2.487 . S
O308 C298 1.241 . S
O309 Nd280 2.414 . S
O309 Nd281 2.682 . S
O309 C298 1.273 . S
O310 Nd281 2.410 . S
O310 C299 1.251 . S
O311 Nd280 2.424 . S
O311 C299 1.268 . S
H312 C284 0.930 . S
H313 C285 0.929 . S
H314 C287 0.930 . S
H315 C288 0.929 . S
H316 C293 0.930 . S
H317 C294 0.929 . S
H318 C296 0.930 . S
H319 C297 0.929 . S
Nd320 C322 2.836 . S
Nd320 O340 2.500 . S
Nd320 O341 2.492 . S
Nd320 O342 2.487 . S
Nd320 O343 2.682 . S
Nd320 O344 2.410 . S
Nd320 O349 2.414 . S
Nd320 O351 2.424 . S
Nd321 C331 2.836 . S
Nd321 O343 2.414 . S
Nd321 O345 2.424 . S
Nd321 O346 2.500 . S
Nd321 O347 2.492 . S
Nd321 O348 2.487 . S
Nd321 O349 2.682 . S
Nd321 O350 2.410 . S
C322 Nd320 2.836 . S
C322 C323 1.498 . S
C322 O340 1.258 . S
C322 O341 1.239 . S
C323 C322 1.498 . S
C323 C324 1.366 . S
C323 C328 1.407 . S
C324 C323 1.366 . S
C324 C325 1.392 . S
C324 H352 0.930 . S
C325 C324 1.392 . S
C325 C326 1.398 . S
C325 H353 0.929 . S
C326 C325 1.398 . S
C326 C327 1.352 . S
C327 C326 1.352 . S
C327 C328 1.384 . S
C327 H354 0.930 . S
C328 C323 1.407 . S
C328 C327 1.384 . S
C328 H355 0.929 . S
C329 O342 1.241 . S
C329 O343 1.273 . S
C330 O344 1.251 . S
C330 O345 1.268 . S
C331 Nd321 2.836 . S
C331 C332 1.498 . S
C331 O346 1.258 . S
C331 O347 1.239 . S
C332 C331 1.498 . S
C332 C333 1.366 . S
C332 C337 1.407 . S
C333 C332 1.366 . S
C333 C334 1.392 . S
C333 H356 0.930 . S
C334 C333 1.392 . S
C334 C335 1.398 . S
C334 H357 0.929 . S
C335 C334 1.398 . S
C335 C336 1.352 . S
C336 C335 1.352 . S
C336 C337 1.384 . S
C336 H358 0.930 . S
C337 C332 1.407 . S
C337 C336 1.384 . S
C337 H359 0.929 . S
C338 O348 1.241 . S
C338 O349 1.273 . S
C339 O350 1.251 . S
C339 O351 1.268 . S
O340 Nd320 2.500 . S
O340 C322 1.258 . S
O341 Nd320 2.492 . S
O341 C322 1.239 . S
O342 Nd320 2.487 . S
O342 C329 1.241 . S
O343 Nd320 2.682 . S
O343 Nd321 2.414 . S
O343 C329 1.273 . S
O344 Nd320 2.410 . S
O344 C330 1.251 . S
O345 Nd321 2.424 . S
O345 C330 1.268 . S
O346 Nd321 2.500 . S
O346 C331 1.258 . S
O347 Nd321 2.492 . S
O347 C331 1.239 . S
O348 Nd321 2.487 . S
O348 C338 1.241 . S
O349 Nd320 2.414 . S
O349 Nd321 2.682 . S
O349 C338 1.273 . S
O350 Nd321 2.410 . S
O350 C339 1.251 . S
O351 Nd320 2.424 . S
O351 C339 1.268 . S
H352 C324 0.930 . S
H353 C325 0.929 . S
H354 C327 0.930 . S
H355 C328 0.929 . S
H356 C333 0.930 . S
H357 C334 0.929 . S
H358 C336 0.930 . S
H359 C337 0.929 . S
Nd360 C362 2.836 . S
Nd360 O380 2.500 . S
Nd360 O381 2.492 . S
Nd360 O382 2.487 . S
Nd360 O383 2.682 . S
Nd360 O384 2.410 . S
Nd360 O389 2.414 . S
Nd360 O391 2.424 . S
Nd361 C371 2.836 . S
Nd361 O383 2.414 . S
Nd361 O385 2.424 . S
Nd361 O386 2.500 . S
Nd361 O387 2.492 . S
Nd361 O388 2.487 . S
Nd361 O389 2.682 . S
Nd361 O390 2.410 . S
C362 Nd360 2.836 . S
C362 C363 1.498 . S
C362 O380 1.258 . S
C362 O381 1.239 . S
C363 C362 1.498 . S
C363 C364 1.366 . S
C363 C368 1.407 . S
C364 C363 1.366 . S
C364 C365 1.392 . S
C364 H392 0.930 . S
C365 C364 1.392 . S
C365 C366 1.398 . S
C365 H393 0.929 . S
C366 C365 1.398 . S
C366 C367 1.352 . S
C367 C366 1.352 . S
C367 C368 1.384 . S
C367 H394 0.930 . S
C368 C363 1.407 . S
C368 C367 1.384 . S
C368 H395 0.929 . S
C369 O382 1.241 . S
C369 O383 1.273 . S
C370 O384 1.251 . S
C370 O385 1.268 . S
C371 Nd361 2.836 . S
C371 C372 1.498 . S
C371 O386 1.258 . S
C371 O387 1.239 . S
C372 C371 1.498 . S
C372 C373 1.366 . S
C372 C377 1.407 . S
C373 C372 1.366 . S
C373 C374 1.392 . S
C373 H396 0.930 . S
C374 C373 1.392 . S
C374 C375 1.398 . S
C374 H397 0.929 . S
C375 C374 1.398 . S
C375 C376 1.352 . S
C376 C375 1.352 . S
C376 C377 1.384 . S
C376 H398 0.930 . S
C377 C372 1.407 . S
C377 C376 1.384 . S
C377 H399 0.929 . S
C378 O388 1.241 . S
C378 O389 1.273 . S
C379 O390 1.251 . S
C379 O391 1.268 . S
O380 Nd360 2.500 . S
O380 C362 1.258 . S
O381 Nd360 2.492 . S
O381 C362 1.239 . S
O382 Nd360 2.487 . S
O382 C369 1.241 . S
O383 Nd360 2.682 . S
O383 Nd361 2.414 . S
O383 C369 1.273 . S
O384 Nd360 2.410 . S
O384 C370 1.251 . S
O385 Nd361 2.424 . S
O385 C370 1.268 . S
O386 Nd361 2.500 . S
O386 C371 1.258 . S
O387 Nd361 2.492 . S
O387 C371 1.239 . S
O388 Nd361 2.487 . S
O388 C378 1.241 . S
O389 Nd360 2.414 . S
O389 Nd361 2.682 . S
O389 C378 1.273 . S
O390 Nd361 2.410 . S
O390 C379 1.251 . S
O391 Nd360 2.424 . S
O391 C379 1.268 . S
H392 C364 0.930 . S
H393 C365 0.929 . S
H394 C367 0.930 . S
H395 C368 0.929 . S
H396 C373 0.930 . S
H397 C374 0.929 . S
H398 C376 0.930 . S
H399 C377 0.929 . S
Nd400 C402 2.836 . S
Nd400 O420 2.500 . S
Nd400 O421 2.492 . S
Nd400 O422 2.487 . S
Nd400 O423 2.682 . S
Nd400 O424 2.410 . S
Nd400 O429 2.414 . S
Nd400 O431 2.424 . S
Nd401 C411 2.836 . S
Nd401 O423 2.414 . S
Nd401 O425 2.424 . S
Nd401 O426 2.500 . S
Nd401 O427 2.492 . S
Nd401 O428 2.487 . S
Nd401 O429 2.682 . S
Nd401 O430 2.410 . S
C402 Nd400 2.836 . S
C402 C403 1.498 . S
C402 O420 1.258 . S
C402 O421 1.239 . S
C403 C402 1.498 . S
C403 C404 1.366 . S
C403 C408 1.407 . S
C404 C403 1.366 . S
C404 C405 1.392 . S
C404 H432 0.930 . S
C405 C404 1.392 . S
C405 C406 1.398 . S
C405 H433 0.929 . S
C406 C405 1.398 . S
C406 C407 1.352 . S
C407 C406 1.352 . S
C407 C408 1.384 . S
C407 H434 0.930 . S
C408 C403 1.407 . S
C408 C407 1.384 . S
C408 H435 0.929 . S
C409 O422 1.241 . S
C409 O423 1.273 . S
C410 O424 1.251 . S
C410 O425 1.268 . S
C411 Nd401 2.836 . S
C411 C412 1.498 . S
C411 O426 1.258 . S
C411 O427 1.239 . S
C412 C411 1.498 . S
C412 C413 1.366 . S
C412 C417 1.407 . S
C413 C412 1.366 . S
C413 C414 1.392 . S
C413 H436 0.930 . S
C414 C413 1.392 . S
C414 C415 1.398 . S
C414 H437 0.929 . S
C415 C414 1.398 . S
C415 C416 1.352 . S
C416 C415 1.352 . S
C416 C417 1.384 . S
C416 H438 0.930 . S
C417 C412 1.407 . S
C417 C416 1.384 . S
C417 H439 0.929 . S
C418 O428 1.241 . S
C418 O429 1.273 . S
C419 O430 1.251 . S
C419 O431 1.268 . S
O420 Nd400 2.500 . S
O420 C402 1.258 . S
O421 Nd400 2.492 . S
O421 C402 1.239 . S
O422 Nd400 2.487 . S
O422 C409 1.241 . S
O423 Nd400 2.682 . S
O423 Nd401 2.414 . S
O423 C409 1.273 . S
O424 Nd400 2.410 . S
O424 C410 1.251 . S
O425 Nd401 2.424 . S
O425 C410 1.268 . S
O426 Nd401 2.500 . S
O426 C411 1.258 . S
O427 Nd401 2.492 . S
O427 C411 1.239 . S
O428 Nd401 2.487 . S
O428 C418 1.241 . S
O429 Nd400 2.414 . S
O429 Nd401 2.682 . S
O429 C418 1.273 . S
O430 Nd401 2.410 . S
O430 C419 1.251 . S
O431 Nd400 2.424 . S
O431 C419 1.268 . S
H432 C404 0.930 . S
H433 C405 0.929 . S
H434 C407 0.930 . S
H435 C408 0.929 . S
H436 C413 0.930 . S
H437 C414 0.929 . S
H438 C416 0.930 . S
H439 C417 0.929 . S
Nd440 C442 2.836 . S
Nd440 O460 2.500 . S
Nd440 O461 2.492 . S
Nd440 O462 2.487 . S
Nd440 O463 2.682 . S
Nd440 O464 2.410 . S
Nd440 O469 2.414 . S
Nd440 O471 2.424 . S
Nd441 C451 2.836 . S
Nd441 O463 2.414 . S
Nd441 O465 2.424 . S
Nd441 O466 2.500 . S
Nd441 O467 2.492 . S
Nd441 O468 2.487 . S
Nd441 O469 2.682 . S
Nd441 O470 2.410 . S
C442 Nd440 2.836 . S
C442 C443 1.498 . S
C442 O460 1.258 . S
C442 O461 1.239 . S
C443 C442 1.498 . S
C443 C444 1.366 . S
C443 C448 1.407 . S
C444 C443 1.366 . S
C444 C445 1.392 . S
C444 H472 0.930 . S
C445 C444 1.392 . S
C445 C446 1.398 . S
C445 H473 0.929 . S
C446 C445 1.398 . S
C446 C447 1.352 . S
C447 C446 1.352 . S
C447 C448 1.384 . S
C447 H474 0.930 . S
C448 C443 1.407 . S
C448 C447 1.384 . S
C448 H475 0.929 . S
C449 O462 1.241 . S
C449 O463 1.273 . S
C450 O464 1.251 . S
C450 O465 1.268 . S
C451 Nd441 2.836 . S
C451 C452 1.498 . S
C451 O466 1.258 . S
C451 O467 1.239 . S
C452 C451 1.498 . S
C452 C453 1.366 . S
C452 C457 1.407 . S
C453 C452 1.366 . S
C453 C454 1.392 . S
C453 H476 0.930 . S
C454 C453 1.392 . S
C454 C455 1.398 . S
C454 H477 0.929 . S
C455 C454 1.398 . S
C455 C456 1.352 . S
C456 C455 1.352 . S
C456 C457 1.384 . S
C456 H478 0.930 . S
C457 C452 1.407 . S
C457 C456 1.384 . S
C457 H479 0.929 . S
C458 O468 1.241 . S
C458 O469 1.273 . S
C459 O470 1.251 . S
C459 O471 1.268 . S
O460 Nd440 2.500 . S
O460 C442 1.258 . S
O461 Nd440 2.492 . S
O461 C442 1.239 . S
O462 Nd440 2.487 . S
O462 C449 1.241 . S
O463 Nd440 2.682 . S
O463 Nd441 2.414 . S
O463 C449 1.273 . S
O464 Nd440 2.410 . S
O464 C450 1.251 . S
O465 Nd441 2.424 . S
O465 C450 1.268 . S
O466 Nd441 2.500 . S
O466 C451 1.258 . S
O467 Nd441 2.492 . S
O467 C451 1.239 . S
O468 Nd441 2.487 . S
O468 C458 1.241 . S
O469 Nd440 2.414 . S
O469 Nd441 2.682 . S
O469 C458 1.273 . S
O470 Nd441 2.410 . S
O470 C459 1.251 . S
O471 Nd440 2.424 . S
O471 C459 1.268 . S
H472 C444 0.930 . S
H473 C445 0.929 . S
H474 C447 0.930 . S
H475 C448 0.929 . S
H476 C453 0.930 . S
H477 C454 0.929 . S
H478 C456 0.930 . S
H479 C457 0.929 . S
H480 C488 0.929 . S
H481 C490 0.930 . S
H482 C492 0.930 . S
H483 C495 0.929 1_565 S
H484 C498 0.930 . S
H485 C500 0.960 . S
H486 C500 0.960 . S
H487 C500 0.960 . S
C488 H480 0.929 . S
C488 C489 1.377 . S
C488 C490 1.384 . S
C489 C488 1.377 . S
C489 C495 1.390 . S
C490 H481 0.930 . S
C490 C488 1.384 . S
C490 C491 1.372 . S
C491 C490 1.372 . S
C491 C492 1.400 . S
C491 C496 1.490 . S
C492 H482 0.930 . S
C492 C491 1.400 . S
C492 C495 1.386 . S
H493 C509 0.930 . S
H494 C510 0.931 . S
C495 H483 0.929 1_545 S
C495 C489 1.390 . S
C495 C492 1.386 . S
C496 C491 1.490 . S
C496 C498 1.395 . S
C496 C499 1.403 . S
H497 C503 0.930 . S
C498 H484 0.930 . S
C498 C496 1.395 . S
C498 C501 1.403 . S
C499 C496 1.403 . S
C499 C500 1.524 . S
C499 C503 1.400 . S
C500 H485 0.960 . S
C500 H486 0.960 . S
C500 H487 0.960 . S
C500 C499 1.524 . S
C501 C498 1.403 . S
C501 C502 1.392 . S
C501 C505 1.495 . S
C502 C501 1.392 . S
C502 C503 1.385 . S
C502 C504 1.478 . S
C503 H497 0.930 . S
C503 C499 1.400 . S
C503 C502 1.385 . S
C504 C502 1.478 . S
C504 C506 1.381 . S
C504 C510 1.383 . S
C505 C501 1.495 . S
C505 H511 0.959 . S
C505 H512 0.961 . S
C505 H513 0.960 . S
C506 C504 1.381 . S
C506 C507 1.394 . S
C506 H514 0.930 . S
C507 C506 1.394 . S
C507 C508 1.383 . S
C507 H515 0.929 . S
C508 C507 1.383 . S
C508 C509 1.377 . S
C509 H493 0.930 . S
C509 C508 1.377 . S
C509 C510 1.379 . S
C510 H494 0.931 . S
C510 C504 1.383 . S
C510 C509 1.379 . S
H511 C505 0.959 . S
H512 C505 0.961 . S
H513 C505 0.960 . S
H514 C506 0.930 . S
H515 C507 0.929 . S
H516 C524 0.929 . S
H517 C526 0.930 . S
H518 C528 0.930 . S
H519 C531 0.929 . S
H520 C534 0.930 . S
H521 C536 0.960 . S
H522 C536 0.960 . S
H523 C536 0.960 . S
C524 H516 0.929 . S
C524 C525 1.377 . S
C524 C526 1.384 . S
C525 C524 1.377 . S
C525 C531 1.390 . S
C526 H517 0.930 . S
C526 C524 1.384 . S
C526 C527 1.372 . S
C527 C526 1.372 . S
C527 C528 1.400 . S
C527 C532 1.490 . S
C528 H518 0.930 . S
C528 C527 1.400 . S
C528 C531 1.386 . S
H529 C545 0.930 . S
H530 C546 0.931 . S
C531 H519 0.929 . S
C531 C525 1.390 . S
C531 C528 1.386 . S
C532 C527 1.490 . S
C532 C534 1.395 . S
C532 C535 1.403 . S
H533 C539 0.930 1_655 S
C534 H520 0.930 . S
C534 C532 1.395 . S
C534 C537 1.403 . S
C535 C532 1.403 . S
C535 C536 1.524 . S
C535 C539 1.400 . S
C536 H521 0.960 . S
C536 H522 0.960 . S
C536 H523 0.960 . S
C536 C535 1.524 . S
C537 C534 1.403 . S
C537 C538 1.392 . S
C537 C541 1.495 . S
C538 C537 1.392 . S
C538 C539 1.385 . S
C538 C540 1.478 1_455 S
C539 H533 0.930 1_455 S
C539 C535 1.400 . S
C539 C538 1.385 . S
C540 C538 1.478 1_655 S
C540 C542 1.381 . S
C540 C546 1.383 . S
C541 C537 1.495 . S
C541 H547 0.959 . S
C541 H548 0.961 . S
C541 H549 0.960 . S
C542 C540 1.381 . S
C542 C543 1.394 . S
C542 H550 0.930 . S
C543 C542 1.394 . S
C543 C544 1.383 . S
C543 H551 0.929 . S
C544 C543 1.383 . S
C544 C545 1.377 . S
C545 H529 0.930 . S
C545 C544 1.377 . S
C545 C546 1.379 . S
C546 H530 0.931 . S
C546 C540 1.383 . S
C546 C545 1.379 . S
H547 C541 0.959 . S
H548 C541 0.961 . S
H549 C541 0.960 . S
H550 C542 0.930 . S
H551 C543 0.929 . S
H552 C560 0.929 . S
H553 C562 0.953 . S
H554 C564 0.930 . S
H555 C567 0.929 . S
H556 C570 0.930 . S
H557 C572 0.960 . S
H558 C572 0.960 . S
H559 C572 0.960 . S
C560 H552 0.929 . S
C560 C561 1.377 . S
C560 C562 1.384 . S
C561 C560 1.377 . S
C561 C567 1.390 . S
C562 H553 0.953 . S
C562 C560 1.384 . S
C562 C563 1.372 . S
C563 C562 1.372 . S
C563 C564 1.400 . S
C563 C568 1.490 1_565 S
C564 H554 0.930 . S
C564 C563 1.400 . S
C564 C567 1.386 . S
H565 C581 0.930 1_455 S
H566 C582 0.931 . S
C567 H555 0.929 . S
C567 C561 1.390 . S
C567 C564 1.386 . S
C568 C563 1.490 1_545 S
C568 C570 1.395 . S
C568 C571 1.403 . S
H569 C575 0.930 . S
C570 H556 0.930 . S
C570 C568 1.395 . S
C570 C573 1.403 . S
C571 C568 1.403 . S
C571 C572 1.524 1_545 S
C571 C575 1.400 . S
C572 H557 0.960 . S
C572 H558 0.960 . S
C572 H559 0.960 . S
C572 C571 1.524 1_565 S
C573 C570 1.403 . S
C573 C574 1.392 . S
C573 C577 1.495 . S
C574 C573 1.392 . S
C574 C575 1.385 . S
C574 C576 1.478 . S
C575 H569 0.930 . S
C575 C571 1.400 . S
C575 C574 1.385 . S
C576 C574 1.478 . S
C576 C578 1.381 . S
C576 C582 1.383 . S
C577 C573 1.495 . S
C577 H583 0.959 . S
C577 H584 0.961 . S
C577 H585 0.960 . S
C578 C576 1.381 . S
C578 C579 1.394 . S
C578 H586 0.930 . S
C579 C578 1.394 . S
C579 C580 1.383 . S
C579 H587 0.929 . S
C580 C579 1.383 . S
C580 C581 1.377 . S
C581 H565 0.930 1_655 S
C581 C580 1.377 . S
C581 C582 1.379 . S
C582 H566 0.931 . S
C582 C576 1.383 . S
C582 C581 1.379 . S
H583 C577 0.959 . S
H584 C577 0.961 . S
H585 C577 0.960 . S
H586 C578 0.930 . S
H587 C579 0.929 . S
H588 C596 0.929 . S
H589 C598 0.930 . S
H590 C600 0.930 . S
H591 C603 0.929 . S
H592 C606 0.930 . S
H593 C608 0.960 . S
H594 C608 0.960 . S
H595 C608 0.960 . S
C596 H588 0.929 . S
C596 C597 1.377 . S
C596 C598 1.384 . S
C597 C596 1.377 . S
C597 C603 1.390 . S
C598 H589 0.930 . S
C598 C596 1.384 . S
C598 C599 1.372 . S
C599 C598 1.372 . S
C599 C600 1.400 . S
C599 C604 1.490 . S
C600 H590 0.930 . S
C600 C599 1.400 . S
C600 C603 1.386 . S
H601 C617 0.930 1_545 S
H602 C618 0.931 . S
C603 H591 0.929 . S
C603 C597 1.390 . S
C603 C600 1.386 . S
C604 C599 1.490 . S
C604 C606 1.395 . S
C604 C607 1.403 . S
H605 C611 0.930 . S
C606 H592 0.930 . S
C606 C604 1.395 . S
C606 C609 1.403 . S
C607 C604 1.403 . S
C607 C608 1.524 . S
C607 C611 1.400 . S
C608 H593 0.960 . S
C608 H594 0.960 . S
C608 H595 0.960 . S
C608 C607 1.524 . S
C609 C606 1.403 . S
C609 C610 1.392 . S
C609 C613 1.495 . S
C610 C609 1.392 . S
C610 C611 1.385 . S
C610 C612 1.478 . S
C611 H605 0.930 . S
C611 C607 1.400 . S
C611 C610 1.385 . S
C612 C610 1.478 . S
C612 C614 1.381 . S
C612 C618 1.383 . S
C613 C609 1.495 . S
C613 H619 0.959 . S
C613 H620 0.961 . S
C613 H621 0.960 . S
C614 C612 1.381 . S
C614 C615 1.394 . S
C614 H622 0.930 . S
C615 C614 1.394 . S
C615 C616 1.383 . S
C615 H623 0.929 . S
C616 C615 1.383 . S
C616 C617 1.377 . S
C617 H601 0.930 1_565 S
C617 C616 1.377 . S
C617 C618 1.379 . S
C618 H602 0.931 . S
C618 C612 1.383 . S
C618 C617 1.379 . S
H619 C613 0.959 . S
H620 C613 0.961 . S
H621 C613 0.960 . S
H622 C614 0.930 . S
H623 C615 0.929 . S
H624 C632 0.929 . S
H625 C634 0.930 . S
H626 C636 0.930 1_655 S
H627 C639 0.929 . S
H628 C642 0.930 . S
H629 C644 0.960 . S
H630 C644 0.960 1_455 S
H631 C644 0.960 . S
C632 H624 0.929 . S
C632 C633 1.377 . S
C632 C634 1.384 . S
C633 C632 1.377 . S
C633 C639 1.390 . S
C634 H625 0.930 . S
C634 C632 1.384 . S
C634 C635 1.372 . S
C635 C634 1.372 . S
C635 C636 1.400 . S
C635 C640 1.490 1_455 S
C636 H626 0.930 1_455 S
C636 C635 1.400 . S
C636 C639 1.386 . S
H637 C653 0.930 . S
H638 C654 0.931 . S
C639 H627 0.929 . S
C639 C633 1.390 . S
C639 C636 1.386 . S
C640 C635 1.490 1_655 S
C640 C642 1.395 . S
C640 C643 1.403 . S
H641 C647 0.930 . S
C642 H628 0.930 . S
C642 C640 1.395 . S
C642 C645 1.403 . S
C643 C640 1.403 . S
C643 C644 1.524 . S
C643 C647 1.400 . S
C644 H629 0.960 . S
C644 H630 0.960 1_655 S
C644 H631 0.960 . S
C644 C643 1.524 . S
C645 C642 1.403 . S
C645 C646 1.392 . S
C645 C649 1.495 . S
C646 C645 1.392 . S
C646 C647 1.385 . S
C646 C648 1.478 . S
C647 H641 0.930 . S
C647 C643 1.400 . S
C647 C646 1.385 . S
C648 C646 1.478 . S
C648 C650 1.381 . S
C648 C654 1.383 . S
C649 C645 1.495 . S
C649 H655 0.959 . S
C649 H656 0.961 . S
C649 H657 0.960 . S
C650 C648 1.381 . S
C650 C651 1.394 . S
C650 H658 0.930 . S
C651 C650 1.394 . S
C651 C652 1.383 . S
C651 H659 0.929 . S
C652 C651 1.383 . S
C652 C653 1.377 . S
C653 H637 0.930 . S
C653 C652 1.377 . S
C653 C654 1.379 . S
C654 H638 0.931 . S
C654 C648 1.383 . S
C654 C653 1.379 . S
H655 C649 0.959 . S
H656 C649 0.961 . S
H657 C649 0.960 . S
H658 C650 0.930 . S
H659 C651 0.929 . S
H660 C668 0.944 . S
H661 C670 0.930 . S
H662 C672 0.930 . S
H663 C675 0.929 . S
H664 C678 0.930 . S
H665 C680 0.960 . S
H666 C680 0.960 . S
H667 C680 0.960 . S
C668 H660 0.944 . S
C668 C669 1.377 . S
C668 C670 1.384 . S
C669 C668 1.377 . S
C669 C675 1.390 . S
C670 H661 0.930 . S
C670 C668 1.384 . S
C670 C671 1.372 . S
C671 C670 1.372 . S
C671 C672 1.400 . S
C671 C676 1.490 . S
C672 H662 0.930 . S
C672 C671 1.400 . S
C672 C675 1.386 . S
H673 C689 0.930 . S
H674 C690 0.931 . S
C675 H663 0.929 . S
C675 C669 1.390 . S
C675 C672 1.386 . S
C676 C671 1.490 . S
C676 C678 1.395 . S
C676 C679 1.403 . S
H677 C683 0.930 . S
C678 H664 0.930 . S
C678 C676 1.395 . S
C678 C681 1.403 1_565 S
C679 C676 1.403 . S
C679 C680 1.524 . S
C679 C683 1.400 . S
C680 H665 0.960 . S
C680 H666 0.960 . S
C680 H667 0.960 . S
C680 C679 1.524 . S
C681 C678 1.403 1_545 S
C681 C682 1.392 1_545 S
C681 C685 1.495 . S
C682 C681 1.392 1_565 S
C682 C683 1.385 . S
C682 C684 1.478 1_565 S
C683 H677 0.930 . S
C683 C679 1.400 . S
C683 C682 1.385 . S
C684 C682 1.478 1_545 S
C684 C686 1.381 . S
C684 C690 1.383 . S
C685 C681 1.495 . S
C685 H691 0.959 . S
C685 H692 0.961 . S
C685 H693 0.960 . S
C686 C684 1.381 . S
C686 C687 1.394 . S
C686 H694 0.930 . S
C687 C686 1.394 . S
C687 C688 1.383 . S
C687 H695 0.929 . S
C688 C687 1.383 . S
C688 C689 1.377 . S
C689 H673 0.930 . S
C689 C688 1.377 . S
C689 C690 1.379 . S
C690 H674 0.931 . S
C690 C684 1.383 . S
C690 C689 1.379 . S
H691 C685 0.959 . S
H692 C685 0.961 . S
H693 C685 0.960 . S
H694 C686 0.930 . S
H695 C687 0.929 . S
H696 C704 0.928 1_455 S
H697 C706 0.930 . S
H698 C708 0.930 . S
H699 C711 0.929 . S
H700 C714 0.930 . S
H701 C716 0.960 . S
H702 C716 0.960 . S
H703 C716 0.960 . S
C704 H696 0.928 1_655 S
C704 C705 1.377 . S
C704 C706 1.384 . S
C705 C704 1.377 . S
C705 C711 1.390 . S
C706 H697 0.930 . S
C706 C704 1.384 . S
C706 C707 1.372 . S
C707 C706 1.372 . S
C707 C708 1.400 . S
C707 C712 1.490 . S
C708 H698 0.930 . S
C708 C707 1.400 . S
C708 C711 1.386 . S
H709 C725 0.930 . S
H710 C726 0.931 . S
C711 H699 0.929 . S
C711 C705 1.390 . S
C711 C708 1.386 . S
C712 C707 1.490 . S
C712 C714 1.395 . S
C712 C715 1.403 . S
H713 C719 0.930 . S
C714 H700 0.930 . S
C714 C712 1.395 . S
C714 C717 1.403 . S
C715 C712 1.403 . S
C715 C716 1.524 . S
C715 C719 1.400 . S
C716 H701 0.960 . S
C716 H702 0.960 . S
C716 H703 0.960 . S
C716 C715 1.524 . S
C717 C714 1.403 . S
C717 C718 1.392 . S
C717 C721 1.495 . S
C718 C717 1.392 . S
C718 C719 1.385 . S
C718 C720 1.478 . S
C719 H713 0.930 . S
C719 C715 1.400 . S
C719 C718 1.385 . S
C720 C718 1.478 . S
C720 C722 1.381 . S
C720 C726 1.383 . S
C721 C717 1.495 . S
C721 H727 0.959 . S
C721 H728 0.961 . S
C721 H729 0.960 . S
C722 C720 1.381 . S
C722 C723 1.394 . S
C722 H730 0.930 . S
C723 C722 1.394 . S
C723 C724 1.383 . S
C723 H731 0.929 . S
C724 C723 1.383 . S
C724 C725 1.377 . S
C725 H709 0.930 . S
C725 C724 1.377 . S
C725 C726 1.379 . S
C726 H710 0.931 . S
C726 C720 1.383 . S
C726 C725 1.379 . S
H727 C721 0.959 . S
H728 C721 0.961 . S
H729 C721 0.960 . S
H730 C722 0.930 . S
H731 C723 0.929 . S
H732 C740 0.929 . S
H733 C742 0.930 . S
H734 C744 0.930 . S
H735 C747 0.929 . S
H736 C750 0.930 1_655 S
H737 C752 0.960 . S
H738 C752 0.960 . S
H739 C752 0.960 . S
C740 H732 0.929 . S
C740 C741 1.377 . S
C740 C742 1.384 . S
C741 C740 1.377 . S
C741 C747 1.390 . S
C742 H733 0.930 . S
C742 C740 1.384 . S
C742 C743 1.372 . S
C743 C742 1.372 . S
C743 C744 1.400 . S
C743 C748 1.490 1_655 S
C744 H734 0.930 . S
C744 C743 1.400 . S
C744 C747 1.386 . S
H745 C761 0.930 . S
H746 C762 0.931 . S
C747 H735 0.929 . S
C747 C741 1.390 . S
C747 C744 1.386 . S
C748 C743 1.490 1_455 S
C748 C750 1.395 . S
C748 C751 1.403 . S
H749 C755 0.930 . S
C750 H736 0.930 1_455 S
C750 C748 1.395 . S
C750 C753 1.403 . S
C751 C748 1.403 . S
C751 C752 1.524 . S
C751 C755 1.400 . S
C752 H737 0.960 . S
C752 H738 0.960 . S
C752 H739 0.960 . S
C752 C751 1.524 . S
C753 C750 1.403 . S
C753 C754 1.392 . S
C753 C757 1.495 . S
C754 C753 1.392 . S
C754 C755 1.385 . S
C754 C756 1.478 . S
C755 H749 0.930 . S
C755 C751 1.400 . S
C755 C754 1.385 . S
C756 C754 1.478 . S
C756 C758 1.381 . S
C756 C762 1.383 . S
C757 C753 1.495 . S
C757 H763 0.959 . S
C757 H764 0.961 . S
C757 H765 0.960 . S
C758 C756 1.381 . S
C758 C759 1.394 . S
C758 H766 0.930 . S
C759 C758 1.394 . S
C759 C760 1.397 . S
C759 H767 0.929 . S
C760 C759 1.397 . S
C760 C761 1.379 . S
C761 H745 0.930 . S
C761 C760 1.379 . S
C761 C762 1.379 . S
C762 H746 0.931 . S
C762 C756 1.383 . S
C762 C761 1.379 . S
H763 C757 0.959 . S
H764 C757 0.961 . S
H765 C757 0.960 . S
H766 C758 0.930 . S
H767 C759 0.929 . S
H768 C776 0.929 . S
H769 C778 0.930 . S
H770 C780 0.930 . S
H771 C783 0.929 . S
H772 C786 0.930 . S
H773 C788 0.960 1_565 S
H774 C788 0.960 . S
H775 C788 0.960 . S
C776 H768 0.929 . S
C776 C777 1.377 . S
C776 C778 1.384 . S
C777 C776 1.377 . S
C777 C783 1.390 . S
C778 H769 0.930 . S
C778 C776 1.384 . S
C778 C779 1.372 . S
C779 C778 1.372 . S
C779 C780 1.400 . S
C779 C784 1.490 . S
C780 H770 0.930 . S
C780 C779 1.400 . S
C780 C783 1.386 . S
H781 C797 0.930 . S
H782 C798 0.931 . S
C783 H771 0.929 . S
C783 C777 1.390 . S
C783 C780 1.386 . S
C784 C779 1.490 . S
C784 C786 1.395 . S
C784 C787 1.403 . S
H785 C791 0.930 1_565 S
C786 H772 0.930 . S
C786 C784 1.395 . S
C786 C789 1.403 . S
C787 C784 1.403 . S
C787 C788 1.524 . S
C787 C791 1.400 . S
C788 H773 0.960 1_545 S
C788 H774 0.960 . S
C788 H775 0.960 . S
C788 C787 1.524 . S
C789 C786 1.403 . S
C789 C790 1.392 . S
C789 C793 1.495 . S
C790 C789 1.392 . S
C790 C791 1.385 . S
C790 C792 1.478 1_545 S
C791 H785 0.930 1_545 S
C791 C787 1.400 . S
C791 C790 1.385 . S
C792 C790 1.478 1_565 S
C792 C794 1.381 . S
C792 C798 1.383 . S
C793 C789 1.495 . S
C793 H799 0.959 . S
C793 H800 0.961 . S
C793 H801 0.960 . S
C794 C792 1.381 . S
C794 C795 1.394 . S
C794 H802 0.930 . S
C795 C794 1.394 . S
C795 C796 1.383 . S
C795 H803 0.929 . S
C796 C795 1.383 . S
C796 C797 1.377 . S
C797 H781 0.930 . S
C797 C796 1.377 . S
C797 C798 1.379 . S
C798 H782 0.931 . S
C798 C792 1.383 . S
C798 C797 1.379 . S
H799 C793 0.959 . S
H800 C793 0.961 . S
H801 C793 0.960 . S
H802 C794 0.930 . S
H803 C795 0.929 . S
H804 C812 0.929 . S
H805 C814 0.930 . S
H806 C816 0.930 . S
H807 C819 0.929 . S
H808 C822 0.930 . S
H809 C824 0.960 . S
H810 C824 0.960 . S
H811 C824 0.960 . S
C812 H804 0.929 . S
C812 C813 1.377 . S
C812 C814 1.384 . S
C813 C812 1.377 . S
C813 C819 1.390 . S
C814 H805 0.930 . S
C814 C812 1.384 . S
C814 C815 1.372 . S
C815 C814 1.372 . S
C815 C816 1.400 . S
C815 C820 1.490 . S
C816 H806 0.930 . S
C816 C815 1.400 . S
C816 C819 1.386 . S
H817 C833 0.930 1_655 S
H818 C834 0.931 . S
C819 H807 0.929 . S
C819 C813 1.390 . S
C819 C816 1.386 . S
C820 C815 1.490 . S
C820 C822 1.395 . S
C820 C823 1.403 . S
H821 C827 0.930 . S
C822 H808 0.930 . S
C822 C820 1.395 . S
C822 C825 1.403 . S
C823 C820 1.403 . S
C823 C824 1.524 . S
C823 C827 1.400 . S
C824 H809 0.960 . S
C824 H810 0.960 . S
C824 H811 0.960 . S
C824 C823 1.524 . S
C825 C822 1.403 . S
C825 C826 1.392 . S
C825 C829 1.495 . S
C826 C825 1.392 . S
C826 C827 1.385 . S
C826 C828 1.478 . S
C827 H821 0.930 . S
C827 C823 1.400 . S
C827 C826 1.385 . S
C828 C826 1.478 . S
C828 C830 1.381 . S
C828 C834 1.383 . S
C829 C825 1.495 . S
C829 H835 0.959 . S
C829 H836 0.961 . S
C829 H837 0.960 . S
C830 C828 1.381 . S
C830 C831 1.394 . S
C830 H838 0.930 . S
C831 C830 1.394 . S
C831 C832 1.383 . S
C831 H839 0.929 . S
C832 C831 1.383 . S
C832 C833 1.377 . S
C833 H817 0.930 1_455 S
C833 C832 1.377 . S
C833 C834 1.379 . S
C834 H818 0.931 . S
C834 C828 1.383 . S
C834 C833 1.379 . S
H835 C829 0.959 . S
H836 C829 0.961 . S
H837 C829 0.960 . S
H838 C830 0.930 . S
H839 C831 0.929 . S
H840 C848 0.929 . S
H841 C850 0.930 . S
H842 C852 0.930 1_655 S
H843 C855 0.929 . S
H844 C858 0.930 . S
H845 C860 0.960 . S
H846 C860 0.960 1_455 S
H847 C860 0.960 . S
C848 H840 0.929 . S
C848 C849 1.377 . S
C848 C850 1.384 . S
C849 C848 1.377 . S
C849 C855 1.390 . S
C850 H841 0.930 . S
C850 C848 1.384 . S
C850 C851 1.372 . S
C851 C850 1.372 . S
C851 C852 1.400 . S
C851 C856 1.490 1_455 S
C852 H842 0.930 1_455 S
C852 C851 1.400 . S
C852 C855 1.386 . S
H853 C869 0.930 . S
H854 C870 0.931 . S
C855 H843 0.929 . S
C855 C849 1.390 . S
C855 C852 1.386 . S
C856 C851 1.490 1_655 S
C856 C858 1.395 . S
C856 C859 1.403 . S
H857 C863 0.930 . S
C858 H844 0.930 . S
C858 C856 1.395 . S
C858 C861 1.403 . S
C859 C856 1.403 . S
C859 C860 1.524 . S
C859 C863 1.400 . S
C860 H845 0.960 . S
C860 H846 0.960 1_655 S
C860 H847 0.960 . S
C860 C859 1.524 . S
C861 C858 1.403 . S
C861 C862 1.392 . S
C861 C865 1.495 . S
C862 C861 1.392 . S
C862 C863 1.385 . S
C862 C864 1.478 . S
C863 H857 0.930 . S
C863 C859 1.400 . S
C863 C862 1.385 . S
C864 C862 1.478 . S
C864 C866 1.381 . S
C864 C870 1.383 . S
C865 C861 1.495 . S
C865 H871 0.959 . S
C865 H872 0.961 . S
C865 H873 0.960 . S
C866 C864 1.381 . S
C866 C867 1.394 . S
C866 H874 0.930 . S
C867 C866 1.394 . S
C867 C868 1.383 . S
C867 H875 0.929 1_545 S
C868 C867 1.383 . S
C868 C869 1.377 . S
C869 H853 0.930 . S
C869 C868 1.377 . S
C869 C870 1.379 . S
C870 H854 0.931 . S
C870 C864 1.383 . S
C870 C869 1.379 . S
H871 C865 0.959 . S
H872 C865 0.961 . S
H873 C865 0.960 . S
H874 C866 0.930 . S
H875 C867 0.929 1_565 S
H876 C884 0.929 . S
H877 C886 0.930 . S
H878 C888 0.930 . S
H879 C891 0.929 . S
H880 C894 0.930 . S
H881 C896 0.960 . S
H882 C896 0.960 . S
H883 C896 0.960 . S
C884 H876 0.929 . S
C884 C885 1.377 . S
C884 C886 1.384 . S
C885 C884 1.377 . S
C885 C891 1.390 . S
C886 H877 0.930 . S
C886 C884 1.384 . S
C886 C887 1.372 . S
C887 C886 1.372 . S
C887 C888 1.400 . S
C887 C892 1.490 . S
C888 H878 0.930 . S
C888 C887 1.400 . S
C888 C891 1.386 . S
H889 C905 0.930 . S
H890 C906 0.931 . S
C891 H879 0.929 . S
C891 C885 1.390 . S
C891 C888 1.386 . S
C892 C887 1.490 . S
C892 C894 1.395 . S
C892 C895 1.403 . S
H893 C899 0.930 . S
C894 H880 0.930 . S
C894 C892 1.395 . S
C894 C897 1.403 . S
C895 C892 1.403 . S
C895 C896 1.524 . S
C895 C899 1.400 . S
C896 H881 0.960 . S
C896 H882 0.960 . S
C896 H883 0.960 . S
C896 C895 1.524 . S
C897 C894 1.403 . S
C897 C898 1.392 . S
C897 C901 1.495 1_565 S
C898 C897 1.392 . S
C898 C899 1.385 . S
C898 C900 1.478 1_565 S
C899 H893 0.930 . S
C899 C895 1.400 . S
C899 C898 1.385 . S
C900 C898 1.478 1_545 S
C900 C902 1.381 . S
C900 C906 1.383 . S
C901 C897 1.495 1_545 S
C901 H907 0.959 . S
C901 H908 0.961 . S
C901 H909 0.960 . S
C902 C900 1.381 . S
C902 C903 1.394 . S
C902 H910 0.930 . S
C903 C902 1.394 . S
C903 C904 1.383 . S
C903 H911 0.929 . S
C904 C903 1.383 . S
C904 C905 1.377 . S
C905 H889 0.930 . S
C905 C904 1.377 . S
C905 C906 1.379 . S
C906 H890 0.931 . S
C906 C900 1.383 . S
C906 C905 1.379 . S
H907 C901 0.959 . S
H908 C901 0.961 . S
H909 C901 0.960 . S
H910 C902 0.930 . S
H911 C903 0.929 . S
H912 C920 0.929 . S
H913 C922 0.930 . S
H914 C924 0.930 . S
H915 C927 0.929 . S
H916 C930 0.930 . S
H917 C932 0.960 . S
H918 C932 0.960 . S
H919 C932 0.960 . S
C920 H912 0.929 . S
C920 C921 1.377 . S
C920 C922 1.384 . S
C921 C920 1.377 . S
C921 C927 1.390 . S
C922 H913 0.930 . S
C922 C920 1.384 . S
C922 C923 1.372 . S
C923 C922 1.372 . S
C923 C924 1.400 . S
C923 C928 1.490 . S
C924 H914 0.930 . S
C924 C923 1.400 . S
C924 C927 1.386 . S
H925 C941 0.930 . S
H926 C942 0.931 . S
C927 H915 0.929 . S
C927 C921 1.390 . S
C927 C924 1.386 . S
C928 C923 1.490 . S
C928 C930 1.395 . S
C928 C931 1.403 . S
H929 C935 0.930 . S
C930 H916 0.930 . S
C930 C928 1.395 . S
C930 C933 1.403 . S
C931 C928 1.403 . S
C931 C932 1.524 . S
C931 C935 1.400 . S
C932 H917 0.960 . S
C932 H918 0.960 . S
C932 H919 0.960 . S
C932 C931 1.524 . S
C933 C930 1.403 . S
C933 C934 1.392 . S
C933 C937 1.495 . S
C934 C933 1.392 . S
C934 C935 1.385 . S
C934 C936 1.478 . S
C935 H929 0.930 . S
C935 C931 1.400 . S
C935 C934 1.385 . S
C936 C934 1.478 . S
C936 C938 1.381 . S
C936 C942 1.383 . S
C937 C933 1.495 . S
C937 H943 0.959 . S
C937 H944 0.961 . S
C937 H945 0.960 . S
C938 C936 1.381 . S
C938 C939 1.394 . S
C938 H946 0.930 . S
C939 C938 1.394 . S
C939 C940 1.383 . S
C939 H947 0.929 . S
C940 C939 1.383 . S
C940 C941 1.377 . S
C941 H925 0.930 . S
C941 C940 1.377 . S
C941 C942 1.379 . S
C942 H926 0.931 . S
C942 C936 1.383 . S
C942 C941 1.379 . S
H943 C937 0.959 . S
H944 C937 0.961 . S
H945 C937 0.960 . S
H946 C938 0.930 . S
H947 C939 0.929 . S
H948 C956 0.929 . S
H949 C958 0.930 . S
H950 C960 0.930 . S
H951 C963 0.929 . S
H952 C966 0.930 . S
H953 C968 0.960 . S
H954 C968 0.960 . S
H955 C968 0.960 . S
C956 H948 0.929 . S
C956 C957 1.377 . S
C956 C958 1.384 . S
C957 C956 1.377 . S
C957 C963 1.390 . S
C958 H949 0.930 . S
C958 C956 1.384 . S
C958 C959 1.372 . S
C959 C958 1.372 . S
C959 C960 1.400 . S
C959 C964 1.490 . S
C960 H950 0.930 . S
C960 C959 1.400 . S
C960 C963 1.386 . S
H961 C977 0.930 . S
H962 C978 0.931 . S
C963 H951 0.929 . S
C963 C957 1.390 . S
C963 C960 1.386 . S
C964 C959 1.490 . S
C964 C966 1.395 . S
C964 C967 1.403 . S
H965 C971 0.930 . S
C966 H952 0.930 . S
C966 C964 1.395 . S
C966 C969 1.403 . S
C967 C964 1.403 . S
C967 C968 1.524 . S
C967 C971 1.400 . S
C968 H953 0.960 . S
C968 H954 0.960 . S
C968 H955 0.960 . S
C968 C967 1.524 . S
C969 C966 1.403 . S
C969 C970 1.392 . S
C969 C973 1.495 . S
C970 C969 1.392 . S
C970 C971 1.385 . S
C970 C972 1.478 . S
C971 H965 0.930 . S
C971 C967 1.400 . S
C971 C970 1.385 . S
C972 C970 1.478 . S
C972 C974 1.381 . S
C972 C978 1.383 . S
C973 C969 1.495 . S
C973 H979 0.959 . S
C973 H980 0.961 . S
C973 H981 0.960 . S
C974 C972 1.381 . S
C974 C975 1.394 . S
C974 H982 0.930 . S
C975 C974 1.394 . S
C975 C976 1.383 . S
C975 H983 0.929 . S
C976 C975 1.383 . S
C976 C977 1.377 . S
C977 H961 0.930 . S
C977 C976 1.377 . S
C977 C978 1.379 . S
C978 H962 0.931 . S
C978 C972 1.383 . S
C978 C977 1.379 . S
H979 C973 0.959 . S
H980 C973 0.961 . S
H981 C973 0.960 . S
H982 C974 0.930 . S
H983 C975 0.929 . S
H984 C992 0.929 . S
H985 C994 0.930 . S
H986 C996 0.930 . S
H987 C999 0.929 . S
H988 C1002 0.930 . S
H989 C1004 0.960 . S
H990 C1004 0.960 . S
H991 C1004 0.960 . S
C992 H984 0.929 . S
C992 C993 1.377 . S
C992 C994 1.384 . S
C993 C992 1.377 . S
C993 C999 1.390 . S
C994 H985 0.930 . S
C994 C992 1.384 . S
C994 C995 1.372 . S
C995 C994 1.372 . S
C995 C996 1.400 . S
C995 C1000 1.490 . S
C996 H986 0.930 . S
C996 C995 1.400 . S
C996 C999 1.386 . S
H997 C1013 0.930 . S
H998 C1014 0.931 . S
C999 H987 0.929 . S
C999 C993 1.390 . S
C999 C996 1.386 . S
C1000 C995 1.490 . S
C1000 C1002 1.395 . S
C1000 C1003 1.403 . S
H1001 C1007 0.930 . S
C1002 H988 0.930 . S
C1002 C1000 1.395 . S
C1002 C1005 1.403 . S
C1003 C1000 1.403 . S
C1003 C1004 1.524 . S
C1003 C1007 1.400 . S
C1004 H989 0.960 . S
C1004 H990 0.960 . S
C1004 H991 0.960 . S
C1004 C1003 1.524 . S
C1005 C1002 1.403 . S
C1005 C1006 1.392 . S
C1005 C1009 1.495 . S
C1006 C1005 1.392 . S
C1006 C1007 1.385 . S
C1006 C1008 1.478 . S
C1007 H1001 0.930 . S
C1007 C1003 1.400 . S
C1007 C1006 1.385 . S
C1008 C1006 1.478 . S
C1008 C1010 1.381 . S
C1008 C1014 1.383 . S
C1009 C1005 1.495 . S
C1009 H1015 0.959 . S
C1009 H1016 0.961 . S
C1009 H1017 0.960 . S
C1010 C1008 1.381 . S
C1010 C1011 1.394 . S
C1010 H1018 0.930 . S
C1011 C1010 1.394 . S
C1011 C1012 1.383 . S
C1011 H1019 0.929 . S
C1012 C1011 1.383 . S
C1012 C1013 1.377 . S
C1013 H997 0.930 . S
C1013 C1012 1.377 . S
C1013 C1014 1.379 . S
C1014 H998 0.931 . S
C1014 C1008 1.383 . S
C1014 C1013 1.379 . S
H1015 C1009 0.959 . S
H1016 C1009 0.961 . S
H1017 C1009 0.960 . S
H1018 C1010 0.930 . S
H1019 C1011 0.929 . S
H1020 C1028 0.929 . S
H1021 C1030 0.930 . S
H1022 C1032 0.930 . S
H1023 C1035 0.929 . S
H1024 C1038 0.930 . S
H1025 C1040 0.960 . S
H1026 C1040 0.960 . S
H1027 C1040 0.960 . S
C1028 H1020 0.929 . S
C1028 C1029 1.377 . S
C1028 C1030 1.384 . S
C1029 C1028 1.377 . S
C1029 C1035 1.390 . S
C1030 H1021 0.930 . S
C1030 C1028 1.384 . S
C1030 C1031 1.372 . S
C1031 C1030 1.372 . S
C1031 C1032 1.400 . S
C1031 C1036 1.490 . S
C1032 H1022 0.930 . S
C1032 C1031 1.400 . S
C1032 C1035 1.386 . S
H1033 C1049 0.930 . S
H1034 C1050 0.931 . S
C1035 H1023 0.929 . S
C1035 C1029 1.390 . S
C1035 C1032 1.386 . S
C1036 C1031 1.490 . S
C1036 C1038 1.395 . S
C1036 C1039 1.403 . S
H1037 C1043 0.930 . S
C1038 H1024 0.930 . S
C1038 C1036 1.395 . S
C1038 C1041 1.403 . S
C1039 C1036 1.403 . S
C1039 C1040 1.524 . S
C1039 C1043 1.400 . S
C1040 H1025 0.960 . S
C1040 H1026 0.960 . S
C1040 H1027 0.960 . S
C1040 C1039 1.524 . S
C1041 C1038 1.403 . S
C1041 C1042 1.392 . S
C1041 C1045 1.495 . S
C1042 C1041 1.392 . S
C1042 C1043 1.385 . S
C1042 C1044 1.478 . S
C1043 H1037 0.930 . S
C1043 C1039 1.400 . S
C1043 C1042 1.385 . S
C1044 C1042 1.478 . S
C1044 C1046 1.381 . S
C1044 C1050 1.383 . S
C1045 C1041 1.495 . S
C1045 H1051 0.959 . S
C1045 H1052 0.961 . S
C1045 H1053 0.960 . S
C1046 C1044 1.381 . S
C1046 C1047 1.394 . S
C1046 H1054 0.930 . S
C1047 C1046 1.394 . S
C1047 C1048 1.383 . S
C1047 H1055 0.929 . S
C1048 C1047 1.383 . S
C1048 C1049 1.377 . S
C1049 H1033 0.930 . S
C1049 C1048 1.377 . S
C1049 C1050 1.379 . S
C1050 H1034 0.931 . S
C1050 C1044 1.383 . S
C1050 C1049 1.379 . S
H1051 C1045 0.959 . S
H1052 C1045 0.961 . S
H1053 C1045 0.960 . S
H1054 C1046 0.930 . S
H1055 C1047 0.929 . S
H1056 C1064 0.929 . S
H1057 C1066 0.930 . S
H1058 C1068 0.930 . S
H1059 C1071 0.929 . S
H1060 C1074 0.930 . S
H1061 C1076 0.960 . S
H1062 C1076 0.960 . S
H1063 C1076 0.960 . S
C1064 H1056 0.929 . S
C1064 C1065 1.377 . S
C1064 C1066 1.384 . S
C1065 C1064 1.377 . S
C1065 C1071 1.390 . S
C1066 H1057 0.930 . S
C1066 C1064 1.384 . S
C1066 C1067 1.372 . S
C1067 C1066 1.372 . S
C1067 C1068 1.400 . S
C1067 C1072 1.490 . S
C1068 H1058 0.930 . S
C1068 C1067 1.400 . S
C1068 C1071 1.386 . S
H1069 C1085 0.930 . S
H1070 C1086 0.931 . S
C1071 H1059 0.929 . S
C1071 C1065 1.390 . S
C1071 C1068 1.386 . S
C1072 C1067 1.490 . S
C1072 C1074 1.395 . S
C1072 C1075 1.403 . S
H1073 C1079 0.930 . S
C1074 H1060 0.930 . S
C1074 C1072 1.395 . S
C1074 C1077 1.403 . S
C1075 C1072 1.403 . S
C1075 C1076 1.524 . S
C1075 C1079 1.400 . S
C1076 H1061 0.960 . S
C1076 H1062 0.960 . S
C1076 H1063 0.960 . S
C1076 C1075 1.524 . S
C1077 C1074 1.403 . S
C1077 C1078 1.392 . S
C1077 C1081 1.495 . S
C1078 C1077 1.392 . S
C1078 C1079 1.385 . S
C1078 C1080 1.478 . S
C1079 H1073 0.930 . S
C1079 C1075 1.400 . S
C1079 C1078 1.385 . S
C1080 C1078 1.478 . S
C1080 C1082 1.381 . S
C1080 C1086 1.383 . S
C1081 C1077 1.495 . S
C1081 H1087 0.959 . S
C1081 H1088 0.961 . S
C1081 H1089 0.960 . S
C1082 C1080 1.381 . S
C1082 C1083 1.394 . S
C1082 H1090 0.930 . S
C1083 C1082 1.394 . S
C1083 C1084 1.383 . S
C1083 H1091 0.929 . S
C1084 C1083 1.383 . S
C1084 C1085 1.377 . S
C1085 H1069 0.930 . S
C1085 C1084 1.377 . S
C1085 C1086 1.379 . S
C1086 H1070 0.931 . S
C1086 C1080 1.383 . S
C1086 C1085 1.379 . S
H1087 C1081 0.959 . S
H1088 C1081 0.961 . S
H1089 C1081 0.960 . S
H1090 C1082 0.930 . S
H1091 C1083 0.929 . S
H1092 C1100 0.929 . S
H1093 C1102 0.930 . S
H1094 C1104 0.930 . S
H1095 C1107 0.929 . S
H1096 C1110 0.930 . S
H1097 C1112 0.960 . S
H1098 C1112 0.960 . S
H1099 C1112 0.960 . S
C1100 H1092 0.929 . S
C1100 C1101 1.377 . S
C1100 C1102 1.384 . S
C1101 C1100 1.377 . S
C1101 C1107 1.390 . S
C1102 H1093 0.930 . S
C1102 C1100 1.384 . S
C1102 C1103 1.372 . S
C1103 C1102 1.372 . S
C1103 C1104 1.400 . S
C1103 C1108 1.490 . S
C1104 H1094 0.930 . S
C1104 C1103 1.400 . S
C1104 C1107 1.386 . S
H1105 C1121 0.930 . S
H1106 C1122 0.931 . S
C1107 H1095 0.929 . S
C1107 C1101 1.390 . S
C1107 C1104 1.386 . S
C1108 C1103 1.490 . S
C1108 C1110 1.395 . S
C1108 C1111 1.403 . S
H1109 C1115 0.930 . S
C1110 H1096 0.930 . S
C1110 C1108 1.395 . S
C1110 C1113 1.403 . S
C1111 C1108 1.403 . S
C1111 C1112 1.524 . S
C1111 C1115 1.400 . S
C1112 H1097 0.960 . S
C1112 H1098 0.960 . S
C1112 H1099 0.960 . S
C1112 C1111 1.524 . S
C1113 C1110 1.403 . S
C1113 C1114 1.392 . S
C1113 C1117 1.495 . S
C1114 C1113 1.392 . S
C1114 C1115 1.385 . S
C1114 C1116 1.478 . S
C1115 H1109 0.930 . S
C1115 C1111 1.400 . S
C1115 C1114 1.385 . S
C1116 C1114 1.478 . S
C1116 C1118 1.381 . S
C1116 C1122 1.383 . S
C1117 C1113 1.495 . S
C1117 H1123 0.959 . S
C1117 H1124 0.961 . S
C1117 H1125 0.960 . S
C1118 C1116 1.381 . S
C1118 C1119 1.394 . S
C1118 H1126 0.930 . S
C1119 C1118 1.394 . S
C1119 C1120 1.383 . S
C1119 H1127 0.929 . S
C1120 C1119 1.383 . S
C1120 C1121 1.377 . S
C1121 H1105 0.930 . S
C1121 C1120 1.377 . S
C1121 C1122 1.379 . S
C1122 H1106 0.931 . S
C1122 C1116 1.383 . S
C1122 C1121 1.379 . S
H1123 C1117 0.959 . S
H1124 C1117 0.961 . S
H1125 C1117 0.960 . S
H1126 C1118 0.930 . S
H1127 C1119 0.929 . S
H1128 C1136 0.929 . S
H1129 C1138 0.930 . S
H1130 C1140 0.930 . S
H1131 C1143 0.929 . S
H1132 C1146 0.930 . S
H1133 C1148 0.960 . S
H1134 C1148 0.960 . S
H1135 C1148 0.960 . S
C1136 H1128 0.929 . S
C1136 C1137 1.377 . S
C1136 C1138 1.384 . S
C1137 C1136 1.377 . S
C1137 C1143 1.390 . S
C1138 H1129 0.930 . S
C1138 C1136 1.384 . S
C1138 C1139 1.372 . S
C1139 C1138 1.372 . S
C1139 C1140 1.400 . S
C1139 C1144 1.490 . S
C1140 H1130 0.930 . S
C1140 C1139 1.400 . S
C1140 C1143 1.386 . S
H1141 C1157 0.930 . S
H1142 C1158 0.931 . S
C1143 H1131 0.929 . S
C1143 C1137 1.390 . S
C1143 C1140 1.386 . S
C1144 C1139 1.490 . S
C1144 C1146 1.395 . S
C1144 C1147 1.403 . S
H1145 C1151 0.930 . S
C1146 H1132 0.930 . S
C1146 C1144 1.395 . S
C1146 C1149 1.403 . S
C1147 C1144 1.403 . S
C1147 C1148 1.524 . S
C1147 C1151 1.400 . S
C1148 H1133 0.960 . S
C1148 H1134 0.960 . S
C1148 H1135 0.960 . S
C1148 C1147 1.524 . S
C1149 C1146 1.403 . S
C1149 C1150 1.392 . S
C1149 C1153 1.495 . S
C1150 C1149 1.392 . S
C1150 C1151 1.385 . S
C1150 C1152 1.478 . S
C1151 H1145 0.930 . S
C1151 C1147 1.400 . S
C1151 C1150 1.385 . S
C1152 C1150 1.478 . S
C1152 C1154 1.381 . S
C1152 C1158 1.383 . S
C1153 C1149 1.495 . S
C1153 H1159 0.959 . S
C1153 H1160 0.961 . S
C1153 H1161 0.960 . S
C1154 C1152 1.381 . S
C1154 C1155 1.394 . S
C1154 H1162 0.930 . S
C1155 C1154 1.394 . S
C1155 C1156 1.383 . S
C1155 H1163 0.929 . S
C1156 C1155 1.383 . S
C1156 C1157 1.377 . S
C1157 H1141 0.930 . S
C1157 C1156 1.377 . S
C1157 C1158 1.379 . S
C1158 H1142 0.931 . S
C1158 C1152 1.383 . S
C1158 C1157 1.379 . S
H1159 C1153 0.959 . S
H1160 C1153 0.961 . S
H1161 C1153 0.960 . S
H1162 C1154 0.930 . S
H1163 C1155 0.929 . S
H1164 C1172 0.929 . S
H1165 C1174 0.930 . S
H1166 C1176 0.930 . S
H1167 C1179 0.929 . S
H1168 C1182 0.930 . S
H1169 C1184 0.960 . S
H1170 C1184 0.960 . S
H1171 C1184 0.960 . S
C1172 H1164 0.929 . S
C1172 C1173 1.377 . S
C1172 C1174 1.384 . S
C1173 C1172 1.377 . S
C1173 C1179 1.390 . S
C1174 H1165 0.930 . S
C1174 C1172 1.384 . S
C1174 C1175 1.372 . S
C1175 C1174 1.372 . S
C1175 C1176 1.400 . S
C1175 C1180 1.490 . S
C1176 H1166 0.930 . S
C1176 C1175 1.400 . S
C1176 C1179 1.386 . S
H1177 C1193 0.930 . S
H1178 C1194 0.931 . S
C1179 H1167 0.929 . S
C1179 C1173 1.390 . S
C1179 C1176 1.386 . S
C1180 C1175 1.490 . S
C1180 C1182 1.395 . S
C1180 C1183 1.403 . S
H1181 C1187 0.930 . S
C1182 H1168 0.930 . S
C1182 C1180 1.395 . S
C1182 C1185 1.403 . S
C1183 C1180 1.403 . S
C1183 C1184 1.524 . S
C1183 C1187 1.400 . S
C1184 H1169 0.960 . S
C1184 H1170 0.960 . S
C1184 H1171 0.960 . S
C1184 C1183 1.524 . S
C1185 C1182 1.403 . S
C1185 C1186 1.392 . S
C1185 C1189 1.495 . S
C1186 C1185 1.392 . S
C1186 C1187 1.385 . S
C1186 C1188 1.478 . S
C1187 H1181 0.930 . S
C1187 C1183 1.400 . S
C1187 C1186 1.385 . S
C1188 C1186 1.478 . S
C1188 C1190 1.381 . S
C1188 C1194 1.383 . S
C1189 C1185 1.495 . S
C1189 H1195 0.959 . S
C1189 H1196 0.961 . S
C1189 H1197 0.960 . S
C1190 C1188 1.381 . S
C1190 C1191 1.394 . S
C1190 H1198 0.930 . S
C1191 C1190 1.394 . S
C1191 C1192 1.383 . S
C1191 H1199 0.929 . S
C1192 C1191 1.383 . S
C1192 C1193 1.377 . S
C1193 H1177 0.930 . S
C1193 C1192 1.377 . S
C1193 C1194 1.379 . S
C1194 H1178 0.931 . S
C1194 C1188 1.383 . S
C1194 C1193 1.379 . S
H1195 C1189 0.959 . S
H1196 C1189 0.961 . S
H1197 C1189 0.960 . S
H1198 C1190 0.930 . S
H1199 C1191 0.929 . S
H1200 C1208 0.929 . S
H1201 C1210 0.930 . S
H1202 C1212 0.930 . S
H1203 C1215 0.929 . S
H1204 C1218 0.930 . S
H1205 C1220 0.960 . S
H1206 C1220 0.960 . S
H1207 C1220 0.960 . S
C1208 H1200 0.929 . S
C1208 C1209 1.377 . S
C1208 C1210 1.384 . S
C1209 C1208 1.377 . S
C1209 C1215 1.390 . S
C1210 H1201 0.930 . S
C1210 C1208 1.384 . S
C1210 C1211 1.372 . S
C1211 C1210 1.372 . S
C1211 C1212 1.400 . S
C1211 C1216 1.490 . S
C1212 H1202 0.930 . S
C1212 C1211 1.400 . S
C1212 C1215 1.386 . S
H1213 C1229 0.930 . S
H1214 C1230 0.931 . S
C1215 H1203 0.929 . S
C1215 C1209 1.390 . S
C1215 C1212 1.386 . S
C1216 C1211 1.490 . S
C1216 C1218 1.395 . S
C1216 C1219 1.403 . S
H1217 C1223 0.930 . S
C1218 H1204 0.930 . S
C1218 C1216 1.395 . S
C1218 C1221 1.403 . S
C1219 C1216 1.403 . S
C1219 C1220 1.524 . S
C1219 C1223 1.400 . S
C1220 H1205 0.960 . S
C1220 H1206 0.960 . S
C1220 H1207 0.960 . S
C1220 C1219 1.524 . S
C1221 C1218 1.403 . S
C1221 C1222 1.392 . S
C1221 C1225 1.495 . S
C1222 C1221 1.392 . S
C1222 C1223 1.385 . S
C1222 C1224 1.478 . S
C1223 H1217 0.930 . S
C1223 C1219 1.400 . S
C1223 C1222 1.385 . S
C1224 C1222 1.478 . S
C1224 C1226 1.381 . S
C1224 C1230 1.383 . S
C1225 C1221 1.495 . S
C1225 H1231 0.959 . S
C1225 H1232 0.961 . S
C1225 H1233 0.960 . S
C1226 C1224 1.381 . S
C1226 C1227 1.394 . S
C1226 H1234 0.930 . S
C1227 C1226 1.394 . S
C1227 C1228 1.383 . S
C1227 H1235 0.929 . S
C1228 C1227 1.383 . S
C1228 C1229 1.377 . S
C1229 H1213 0.930 . S
C1229 C1228 1.377 . S
C1229 C1230 1.379 . S
C1230 H1214 0.931 . S
C1230 C1224 1.383 . S
C1230 C1229 1.379 . S
H1231 C1225 0.959 . S
H1232 C1225 0.961 . S
H1233 C1225 0.960 . S
H1234 C1226 0.930 . S
H1235 C1227 0.929 . S
H1236 C1244 0.929 . S
H1237 C1246 0.930 . S
H1238 C1248 0.930 . S
H1239 C1251 0.929 . S
H1240 C1254 0.930 . S
H1241 C1256 0.960 . S
H1242 C1256 0.960 . S
H1243 C1256 0.960 . S
C1244 H1236 0.929 . S
C1244 C1245 1.377 . S
C1244 C1246 1.384 . S
C1245 C1244 1.377 . S
C1245 C1251 1.390 . S
C1246 H1237 0.930 . S
C1246 C1244 1.384 . S
C1246 C1247 1.372 . S
C1247 C1246 1.372 . S
C1247 C1248 1.400 . S
C1247 C1252 1.490 . S
C1248 H1238 0.930 . S
C1248 C1247 1.400 . S
C1248 C1251 1.386 . S
H1249 C1265 0.930 . S
H1250 C1266 0.931 . S
C1251 H1239 0.929 . S
C1251 C1245 1.390 . S
C1251 C1248 1.386 . S
C1252 C1247 1.490 . S
C1252 C1254 1.395 . S
C1252 C1255 1.403 . S
H1253 C1259 0.930 . S
C1254 H1240 0.930 . S
C1254 C1252 1.395 . S
C1254 C1257 1.403 . S
C1255 C1252 1.403 . S
C1255 C1256 1.524 . S
C1255 C1259 1.400 . S
C1256 H1241 0.960 . S
C1256 H1242 0.960 . S
C1256 H1243 0.960 . S
C1256 C1255 1.524 . S
C1257 C1254 1.403 . S
C1257 C1258 1.392 . S
C1257 C1261 1.495 . S
C1258 C1257 1.392 . S
C1258 C1259 1.385 . S
C1258 C1260 1.478 . S
C1259 H1253 0.930 . S
C1259 C1255 1.400 . S
C1259 C1258 1.385 . S
C1260 C1258 1.478 . S
C1260 C1262 1.381 . S
C1260 C1266 1.383 . S
C1261 C1257 1.495 . S
C1261 H1267 0.959 . S
C1261 H1268 0.961 . S
C1261 H1269 0.960 . S
C1262 C1260 1.381 . S
C1262 C1263 1.394 . S
C1262 H1270 0.930 . S
C1263 C1262 1.394 . S
C1263 C1264 1.383 . S
C1263 H1271 0.929 . S
C1264 C1263 1.383 . S
C1264 C1265 1.377 . S
C1265 H1249 0.930 . S
C1265 C1264 1.377 . S
C1265 C1266 1.379 . S
C1266 H1250 0.931 . S
C1266 C1260 1.383 . S
C1266 C1265 1.379 . S
H1267 C1261 0.959 . S
H1268 C1261 0.961 . S
H1269 C1261 0.960 . S
H1270 C1262 0.930 . S
H1271 C1263 0.929 . S
H1272 C1280 0.929 . S
H1273 C1282 0.930 . S
H1274 C1284 0.930 . S
H1275 C1287 0.929 . S
H1276 C1290 0.930 . S
H1277 C1292 0.960 . S
H1278 C1292 0.960 . S
H1279 C1292 0.960 . S
C1280 H1272 0.929 . S
C1280 C1281 1.377 . S
C1280 C1282 1.384 . S
C1281 C1280 1.377 . S
C1281 C1287 1.390 . S
C1282 H1273 0.930 . S
C1282 C1280 1.384 . S
C1282 C1283 1.372 . S
C1283 C1282 1.372 . S
C1283 C1284 1.400 . S
C1283 C1288 1.490 . S
C1284 H1274 0.930 . S
C1284 C1283 1.400 . S
C1284 C1287 1.386 . S
H1285 C1301 0.930 . S
H1286 C1302 0.931 . S
C1287 H1275 0.929 . S
C1287 C1281 1.390 . S
C1287 C1284 1.386 . S
C1288 C1283 1.490 . S
C1288 C1290 1.395 . S
C1288 C1291 1.403 . S
H1289 C1295 0.930 . S
C1290 H1276 0.930 . S
C1290 C1288 1.395 . S
C1290 C1293 1.403 . S
C1291 C1288 1.403 . S
C1291 C1292 1.524 . S
C1291 C1295 1.400 . S
C1292 H1277 0.960 . S
C1292 H1278 0.960 . S
C1292 H1279 0.960 . S
C1292 C1291 1.524 . S
C1293 C1290 1.403 . S
C1293 C1294 1.392 . S
C1293 C1297 1.495 . S
C1294 C1293 1.392 . S
C1294 C1295 1.385 . S
C1294 C1296 1.478 . S
C1295 H1289 0.930 . S
C1295 C1291 1.400 . S
C1295 C1294 1.385 . S
C1296 C1294 1.478 . S
C1296 C1298 1.381 . S
C1296 C1302 1.383 . S
C1297 C1293 1.495 . S
C1297 H1303 0.959 . S
C1297 H1304 0.961 . S
C1297 H1305 0.960 . S
C1298 C1296 1.381 . S
C1298 C1299 1.394 . S
C1298 H1306 0.930 . S
C1299 C1298 1.394 . S
C1299 C1300 1.383 . S
C1299 H1307 0.929 . S
C1300 C1299 1.383 . S
C1300 C1301 1.377 . S
C1301 H1285 0.930 . S
C1301 C1300 1.377 . S
C1301 C1302 1.379 . S
C1302 H1286 0.931 . S
C1302 C1296 1.383 . S
C1302 C1301 1.379 . S
H1303 C1297 0.959 . S
H1304 C1297 0.961 . S
H1305 C1297 0.960 . S
H1306 C1298 0.930 . S
H1307 C1299 0.929 . S
H1308 C1316 0.929 . S
H1309 C1318 0.930 . S
H1310 C1320 0.930 . S
H1311 C1323 0.929 . S
H1312 C1326 0.930 . S
H1313 C1328 0.960 . S
H1314 C1328 0.960 . S
H1315 C1328 0.960 . S
C1316 H1308 0.929 . S
C1316 C1317 1.377 . S
C1316 C1318 1.384 . S
C1317 C1316 1.377 . S
C1317 C1323 1.390 . S
C1318 H1309 0.930 . S
C1318 C1316 1.384 . S
C1318 C1319 1.372 . S
C1319 C1318 1.372 . S
C1319 C1320 1.400 . S
C1319 C1324 1.490 . S
C1320 H1310 0.930 . S
C1320 C1319 1.400 . S
C1320 C1323 1.386 . S
H1321 C1337 0.930 . S
H1322 C1338 0.931 . S
C1323 H1311 0.929 . S
C1323 C1317 1.390 . S
C1323 C1320 1.386 . S
C1324 C1319 1.490 . S
C1324 C1326 1.395 . S
C1324 C1327 1.403 . S
H1325 C1331 0.930 . S
C1326 H1312 0.930 . S
C1326 C1324 1.395 . S
C1326 C1329 1.403 . S
C1327 C1324 1.403 . S
C1327 C1328 1.524 . S
C1327 C1331 1.400 . S
C1328 H1313 0.960 . S
C1328 H1314 0.960 . S
C1328 H1315 0.960 . S
C1328 C1327 1.524 . S
C1329 C1326 1.403 . S
C1329 C1330 1.392 . S
C1329 C1333 1.495 . S
C1330 C1329 1.392 . S
C1330 C1331 1.385 . S
C1330 C1332 1.478 . S
C1331 H1325 0.930 . S
C1331 C1327 1.400 . S
C1331 C1330 1.385 . S
C1332 C1330 1.478 . S
C1332 C1334 1.381 . S
C1332 C1338 1.383 . S
C1333 C1329 1.495 . S
C1333 H1339 0.959 . S
C1333 H1340 0.961 . S
C1333 H1341 0.960 . S
C1334 C1332 1.381 . S
C1334 C1335 1.394 . S
C1334 H1342 0.930 . S
C1335 C1334 1.394 . S
C1335 C1336 1.383 . S
C1335 H1343 0.929 . S
C1336 C1335 1.383 . S
C1336 C1337 1.377 . S
C1337 H1321 0.930 . S
C1337 C1336 1.377 . S
C1337 C1338 1.379 . S
C1338 H1322 0.931 . S
C1338 C1332 1.383 . S
C1338 C1337 1.379 . S
H1339 C1333 0.959 . S
H1340 C1333 0.961 . S
H1341 C1333 0.960 . S
H1342 C1334 0.930 . S
H1343 C1335 0.929 . S
H1344 C1352 0.929 . S
H1345 C1354 0.930 . S
H1346 C1356 0.930 . S
H1347 C1359 0.929 . S
H1348 C1362 0.930 . S
H1349 C1364 0.960 . S
H1350 C1364 0.960 . S
H1351 C1364 0.960 . S
C1352 H1344 0.929 . S
C1352 C1353 1.377 . S
C1352 C1354 1.384 . S
C1353 C1352 1.377 . S
C1353 C1359 1.390 . S
C1354 H1345 0.930 . S
C1354 C1352 1.384 . S
C1354 C1355 1.372 . S
C1355 C1354 1.372 . S
C1355 C1356 1.400 . S
C1355 C1360 1.490 . S
C1356 H1346 0.930 . S
C1356 C1355 1.400 . S
C1356 C1359 1.386 . S
H1357 C1373 0.930 . S
H1358 C1374 0.931 . S
C1359 H1347 0.929 . S
C1359 C1353 1.390 . S
C1359 C1356 1.386 . S
C1360 C1355 1.490 . S
C1360 C1362 1.395 . S
C1360 C1363 1.403 . S
H1361 C1367 0.930 . S
C1362 H1348 0.930 . S
C1362 C1360 1.395 . S
C1362 C1365 1.403 . S
C1363 C1360 1.403 . S
C1363 C1364 1.524 . S
C1363 C1367 1.400 . S
C1364 H1349 0.960 . S
C1364 H1350 0.960 . S
C1364 H1351 0.960 . S
C1364 C1363 1.524 . S
C1365 C1362 1.403 . S
C1365 C1366 1.392 . S
C1365 C1369 1.495 . S
C1366 C1365 1.392 . S
C1366 C1367 1.385 . S
C1366 C1368 1.478 . S
C1367 H1361 0.930 . S
C1367 C1363 1.400 . S
C1367 C1366 1.385 . S
C1368 C1366 1.478 . S
C1368 C1370 1.381 . S
C1368 C1374 1.383 . S
C1369 C1365 1.495 . S
C1369 H1375 0.959 . S
C1369 H1376 0.961 . S
C1369 H1377 0.960 . S
C1370 C1368 1.381 . S
C1370 C1371 1.394 . S
C1370 H1378 0.930 . S
C1371 C1370 1.394 . S
C1371 C1372 1.383 . S
C1371 H1379 0.929 . S
C1372 C1371 1.383 . S
C1372 C1373 1.377 . S
C1373 H1357 0.930 . S
C1373 C1372 1.377 . S
C1373 C1374 1.379 . S
C1374 H1358 0.931 . S
C1374 C1368 1.383 . S
C1374 C1373 1.379 . S
H1375 C1369 0.959 . S
H1376 C1369 0.961 . S
H1377 C1369 0.960 . S
H1378 C1370 0.930 . S
H1379 C1371 0.929 . S
H1380 C1388 0.929 . S
H1381 C1390 0.930 . S
H1382 C1392 0.930 . S
H1383 C1395 0.929 . S
H1384 C1398 0.930 . S
H1385 C1400 0.960 . S
H1386 C1400 0.960 . S
H1387 C1400 0.960 . S
C1388 H1380 0.929 . S
C1388 C1389 1.377 . S
C1388 C1390 1.384 . S
C1389 C1388 1.377 . S
C1389 C1395 1.390 . S
C1390 H1381 0.930 . S
C1390 C1388 1.384 . S
C1390 C1391 1.372 . S
C1391 C1390 1.372 . S
C1391 C1392 1.400 . S
C1391 C1396 1.490 . S
C1392 H1382 0.930 . S
C1392 C1391 1.400 . S
C1392 C1395 1.386 . S
H1393 C1409 0.930 . S
H1394 C1410 0.931 . S
C1395 H1383 0.929 . S
C1395 C1389 1.390 . S
C1395 C1392 1.386 . S
C1396 C1391 1.490 . S
C1396 C1398 1.395 . S
C1396 C1399 1.403 . S
H1397 C1403 0.930 . S
C1398 H1384 0.930 . S
C1398 C1396 1.395 . S
C1398 C1401 1.403 . S
C1399 C1396 1.403 . S
C1399 C1400 1.524 . S
C1399 C1403 1.400 . S
C1400 H1385 0.960 . S
C1400 H1386 0.960 . S
C1400 H1387 0.960 . S
C1400 C1399 1.524 . S
C1401 C1398 1.403 . S
C1401 C1402 1.392 . S
C1401 C1405 1.495 . S
C1402 C1401 1.392 . S
C1402 C1403 1.385 . S
C1402 C1404 1.478 . S
C1403 H1397 0.930 . S
C1403 C1399 1.400 . S
C1403 C1402 1.385 . S
C1404 C1402 1.478 . S
C1404 C1406 1.381 . S
C1404 C1410 1.383 . S
C1405 C1401 1.495 . S
C1405 H1411 0.959 . S
C1405 H1412 0.961 . S
C1405 H1413 0.960 . S
C1406 C1404 1.381 . S
C1406 C1407 1.394 . S
C1406 H1414 0.930 . S
C1407 C1406 1.394 . S
C1407 C1408 1.383 . S
C1407 H1415 0.929 . S
C1408 C1407 1.383 . S
C1408 C1409 1.377 . S
C1409 H1393 0.930 . S
C1409 C1408 1.377 . S
C1409 C1410 1.379 . S
C1410 H1394 0.931 . S
C1410 C1404 1.383 . S
C1410 C1409 1.379 . S
H1411 C1405 0.959 . S
H1412 C1405 0.961 . S
H1413 C1405 0.960 . S
H1414 C1406 0.930 . S
H1415 C1407 0.929 . S
H1416 C1424 0.929 . S
H1417 C1426 0.930 . S
H1418 C1428 0.930 . S
H1419 C1431 0.929 . S
H1420 C1434 0.930 . S
H1421 C1436 0.960 . S
H1422 C1436 0.960 . S
H1423 C1436 0.960 . S
C1424 H1416 0.929 . S
C1424 C1425 1.377 . S
C1424 C1426 1.384 . S
C1425 C1424 1.377 . S
C1425 C1431 1.390 . S
C1426 H1417 0.930 . S
C1426 C1424 1.384 . S
C1426 C1427 1.372 . S
C1427 C1426 1.372 . S
C1427 C1428 1.400 . S
C1427 C1432 1.490 . S
C1428 H1418 0.930 . S
C1428 C1427 1.400 . S
C1428 C1431 1.386 . S
H1429 C1445 0.930 . S
H1430 C1446 0.931 . S
C1431 H1419 0.929 . S
C1431 C1425 1.390 . S
C1431 C1428 1.386 . S
C1432 C1427 1.490 . S
C1432 C1434 1.395 . S
C1432 C1435 1.403 . S
H1433 C1439 0.930 . S
C1434 H1420 0.930 . S
C1434 C1432 1.395 . S
C1434 C1437 1.403 . S
C1435 C1432 1.403 . S
C1435 C1436 1.524 . S
C1435 C1439 1.400 . S
C1436 H1421 0.960 . S
C1436 H1422 0.960 . S
C1436 H1423 0.960 . S
C1436 C1435 1.524 . S
C1437 C1434 1.403 . S
C1437 C1438 1.392 . S
C1437 C1441 1.495 . S
C1438 C1437 1.392 . S
C1438 C1439 1.385 . S
C1438 C1440 1.478 . S
C1439 H1433 0.930 . S
C1439 C1435 1.400 . S
C1439 C1438 1.385 . S
C1440 C1438 1.478 . S
C1440 C1442 1.381 . S
C1440 C1446 1.383 . S
C1441 C1437 1.495 . S
C1441 H1447 0.959 . S
C1441 H1448 0.961 . S
C1441 H1449 0.960 . S
C1442 C1440 1.381 . S
C1442 C1443 1.394 . S
C1442 H1450 0.930 . S
C1443 C1442 1.394 . S
C1443 C1444 1.383 . S
C1443 H1451 0.929 . S
C1444 C1443 1.383 . S
C1444 C1445 1.377 . S
C1445 H1429 0.930 . S
C1445 C1444 1.377 . S
C1445 C1446 1.379 . S
C1446 H1430 0.931 . S
C1446 C1440 1.383 . S
C1446 C1445 1.379 . S
H1447 C1441 0.959 . S
H1448 C1441 0.961 . S
H1449 C1441 0.960 . S
H1450 C1442 0.930 . S
H1451 C1443 0.929 . S
H1452 C1460 0.929 . S
H1453 C1462 0.930 . S
H1454 C1464 0.930 . S
H1455 C1467 0.929 . S
H1456 C1470 0.930 . S
H1457 C1472 0.960 . S
H1458 C1472 0.960 . S
H1459 C1472 0.960 . S
C1460 H1452 0.929 . S
C1460 C1461 1.377 . S
C1460 C1462 1.384 . S
C1461 C1460 1.377 . S
C1461 C1467 1.390 . S
C1462 H1453 0.930 . S
C1462 C1460 1.384 . S
C1462 C1463 1.372 . S
C1463 C1462 1.372 . S
C1463 C1464 1.400 . S
C1463 C1468 1.490 . S
C1464 H1454 0.930 . S
C1464 C1463 1.400 . S
C1464 C1467 1.386 . S
H1465 C1481 0.930 . S
H1466 C1482 0.931 . S
C1467 H1455 0.929 . S
C1467 C1461 1.390 . S
C1467 C1464 1.386 . S
C1468 C1463 1.490 . S
C1468 C1470 1.395 . S
C1468 C1471 1.403 . S
H1469 C1475 0.930 . S
C1470 H1456 0.930 . S
C1470 C1468 1.395 . S
C1470 C1473 1.403 . S
C1471 C1468 1.403 . S
C1471 C1472 1.524 . S
C1471 C1475 1.400 . S
C1472 H1457 0.960 . S
C1472 H1458 0.960 . S
C1472 H1459 0.960 . S
C1472 C1471 1.524 . S
C1473 C1470 1.403 . S
C1473 C1474 1.392 . S
C1473 C1477 1.495 . S
C1474 C1473 1.392 . S
C1474 C1475 1.385 . S
C1474 C1476 1.478 . S
C1475 H1469 0.930 . S
C1475 C1471 1.400 . S
C1475 C1474 1.385 . S
C1476 C1474 1.478 . S
C1476 C1478 1.381 . S
C1476 C1482 1.383 . S
C1477 C1473 1.495 . S
C1477 H1483 0.959 . S
C1477 H1484 0.961 . S
C1477 H1485 0.960 . S
C1478 C1476 1.381 . S
C1478 C1479 1.394 . S
C1478 H1486 0.930 . S
C1479 C1478 1.394 . S
C1479 C1480 1.383 . S
C1479 H1487 0.929 . S
C1480 C1479 1.383 . S
C1480 C1481 1.377 . S
C1481 H1465 0.930 . S
C1481 C1480 1.377 . S
C1481 C1482 1.379 . S
C1482 H1466 0.931 . S
C1482 C1476 1.383 . S
C1482 C1481 1.379 . S
H1483 C1477 0.959 . S
H1484 C1477 0.961 . S
H1485 C1477 0.960 . S
H1486 C1478 0.930 . S
H1487 C1479 0.929 . S
H1488 C1496 0.929 . S
H1489 C1498 0.930 . S
H1490 C1500 0.930 . S
H1491 C1503 0.929 . S
H1492 C1506 0.930 . S
H1493 C1508 0.960 . S
H1494 C1508 0.960 . S
H1495 C1508 0.960 . S
C1496 H1488 0.929 . S
C1496 C1497 1.377 . S
C1496 C1498 1.384 . S
C1497 C1496 1.377 . S
C1497 C1503 1.390 . S
C1498 H1489 0.930 . S
C1498 C1496 1.384 . S
C1498 C1499 1.372 . S
C1499 C1498 1.372 . S
C1499 C1500 1.400 . S
C1499 C1504 1.490 . S
C1500 H1490 0.930 . S
C1500 C1499 1.400 . S
C1500 C1503 1.386 . S
H1501 C1517 0.930 . S
H1502 C1518 0.931 . S
C1503 H1491 0.929 . S
C1503 C1497 1.390 . S
C1503 C1500 1.386 . S
C1504 C1499 1.490 . S
C1504 C1506 1.395 . S
C1504 C1507 1.403 . S
H1505 C1511 0.930 . S
C1506 H1492 0.930 . S
C1506 C1504 1.395 . S
C1506 C1509 1.403 . S
C1507 C1504 1.403 . S
C1507 C1508 1.524 . S
C1507 C1511 1.400 . S
C1508 H1493 0.960 . S
C1508 H1494 0.960 . S
C1508 H1495 0.960 . S
C1508 C1507 1.524 . S
C1509 C1506 1.403 . S
C1509 C1510 1.392 . S
C1509 C1513 1.495 . S
C1510 C1509 1.392 . S
C1510 C1511 1.385 . S
C1510 C1512 1.478 . S
C1511 H1505 0.930 . S
C1511 C1507 1.400 . S
C1511 C1510 1.385 . S
C1512 C1510 1.478 . S
C1512 C1514 1.381 . S
C1512 C1518 1.383 . S
C1513 C1509 1.495 . S
C1513 H1519 0.959 . S
C1513 H1520 0.961 . S
C1513 H1521 0.960 . S
C1514 C1512 1.381 . S
C1514 C1515 1.394 . S
C1514 H1522 0.930 . S
C1515 C1514 1.394 . S
C1515 C1516 1.383 . S
C1515 H1523 0.929 . S
C1516 C1515 1.383 . S
C1516 C1517 1.377 . S
C1517 H1501 0.930 . S
C1517 C1516 1.377 . S
C1517 C1518 1.379 . S
C1518 H1502 0.931 . S
C1518 C1512 1.383 . S
C1518 C1517 1.379 . S
H1519 C1513 0.959 . S
H1520 C1513 0.961 . S
H1521 C1513 0.960 . S
H1522 C1514 0.930 . S
H1523 C1515 0.929 . S
H1524 C1532 0.929 . S
H1525 C1534 0.930 . S
H1526 C1536 0.930 . S
H1527 C1539 0.929 . S
H1528 C1542 0.930 . S
H1529 C1544 0.960 . S
H1530 C1544 0.960 . S
H1531 C1544 0.960 . S
C1532 H1524 0.929 . S
C1532 C1533 1.377 . S
C1532 C1534 1.384 . S
C1533 C1532 1.377 . S
C1533 C1539 1.390 . S
C1534 H1525 0.930 . S
C1534 C1532 1.384 . S
C1534 C1535 1.372 . S
C1535 C1534 1.372 . S
C1535 C1536 1.400 . S
C1535 C1540 1.490 . S
C1536 H1526 0.930 . S
C1536 C1535 1.400 . S
C1536 C1539 1.386 . S
H1537 C1553 0.930 . S
H1538 C1554 0.931 . S
C1539 H1527 0.929 . S
C1539 C1533 1.390 . S
C1539 C1536 1.386 . S
C1540 C1535 1.490 . S
C1540 C1542 1.395 . S
C1540 C1543 1.403 . S
H1541 C1547 0.930 . S
C1542 H1528 0.930 . S
C1542 C1540 1.395 . S
C1542 C1545 1.403 . S
C1543 C1540 1.403 . S
C1543 C1544 1.524 . S
C1543 C1547 1.400 . S
C1544 H1529 0.960 . S
C1544 H1530 0.960 . S
C1544 H1531 0.960 . S
C1544 C1543 1.524 . S
C1545 C1542 1.403 . S
C1545 C1546 1.392 . S
C1545 C1549 1.495 . S
C1546 C1545 1.392 . S
C1546 C1547 1.385 . S
C1546 C1548 1.478 . S
C1547 H1541 0.930 . S
C1547 C1543 1.400 . S
C1547 C1546 1.385 . S
C1548 C1546 1.478 . S
C1548 C1550 1.381 . S
C1548 C1554 1.383 . S
C1549 C1545 1.495 . S
C1549 H1555 0.959 . S
C1549 H1556 0.961 . S
C1549 H1557 0.960 . S
C1550 C1548 1.381 . S
C1550 C1551 1.394 . S
C1550 H1558 0.930 . S
C1551 C1550 1.394 . S
C1551 C1552 1.383 . S
C1551 H1559 0.929 . S
C1552 C1551 1.383 . S
C1552 C1553 1.377 . S
C1553 H1537 0.930 . S
C1553 C1552 1.377 . S
C1553 C1554 1.379 . S
C1554 H1538 0.931 . S
C1554 C1548 1.383 . S
C1554 C1553 1.379 . S
H1555 C1549 0.959 . S
H1556 C1549 0.961 . S
H1557 C1549 0.960 . S
H1558 C1550 0.930 . S
H1559 C1551 0.929 . S
H1560 C1568 0.929 . S
H1561 C1570 0.930 . S
H1562 C1572 0.930 . S
H1563 C1575 0.929 . S
H1564 C1578 0.930 . S
H1565 C1580 0.960 . S
H1566 C1580 0.960 . S
H1567 C1580 0.960 . S
C1568 H1560 0.929 . S
C1568 C1569 1.377 . S
C1568 C1570 1.384 . S
C1569 C1568 1.377 . S
C1569 C1575 1.390 . S
C1570 H1561 0.930 . S
C1570 C1568 1.384 . S
C1570 C1571 1.372 . S
C1571 C1570 1.372 . S
C1571 C1572 1.400 . S
C1571 C1576 1.490 . S
C1572 H1562 0.930 . S
C1572 C1571 1.400 . S
C1572 C1575 1.386 . S
H1573 C1589 0.930 . S
H1574 C1590 0.931 . S
C1575 H1563 0.929 . S
C1575 C1569 1.390 . S
C1575 C1572 1.386 . S
C1576 C1571 1.490 . S
C1576 C1578 1.395 . S
C1576 C1579 1.403 . S
H1577 C1583 0.930 . S
C1578 H1564 0.930 . S
C1578 C1576 1.395 . S
C1578 C1581 1.403 1_556 S
C1579 C1576 1.403 . S
C1579 C1580 1.524 . S
C1579 C1583 1.400 1_556 S
C1580 H1565 0.960 . S
C1580 H1566 0.960 . S
C1580 H1567 0.960 . S
C1580 C1579 1.524 . S
C1581 C1578 1.403 1_554 S
C1581 C1582 1.392 . S
C1581 C1585 1.495 . S
C1582 C1581 1.392 . S
C1582 C1583 1.385 . S
C1582 C1584 1.478 . S
C1583 H1577 0.930 . S
C1583 C1579 1.400 1_554 S
C1583 C1582 1.385 . S
C1584 C1582 1.478 . S
C1584 C1586 1.381 . S
C1584 C1590 1.383 . S
C1585 C1581 1.495 . S
C1585 H1591 0.959 . S
C1585 H1592 0.961 . S
C1585 H1593 0.960 . S
C1586 C1584 1.381 . S
C1586 C1587 1.394 . S
C1586 H1594 0.930 . S
C1587 C1586 1.394 . S
C1587 C1588 1.383 . S
C1587 H1595 0.929 . S
C1588 C1587 1.383 . S
C1588 C1589 1.377 . S
C1589 H1573 0.930 . S
C1589 C1588 1.377 . S
C1589 C1590 1.379 . S
C1590 H1574 0.931 . S
C1590 C1584 1.383 . S
C1590 C1589 1.379 . S
H1591 C1585 0.959 . S
H1592 C1585 0.961 . S
H1593 C1585 0.960 . S
H1594 C1586 0.930 . S
H1595 C1587 0.929 . S
H1596 C1604 0.929 . S
H1597 C1606 0.930 . S
H1598 C1608 0.930 . S
H1599 C1611 0.929 . S
H1600 C1614 0.930 . S
H1601 C1616 0.960 . S
H1602 C1616 0.960 1_455 S
H1603 C1616 0.960 . S
C1604 H1596 0.929 . S
C1604 C1605 1.377 . S
C1604 C1606 1.384 . S
C1605 C1604 1.377 . S
C1605 C1611 1.390 . S
C1606 H1597 0.930 . S
C1606 C1604 1.384 . S
C1606 C1607 1.372 . S
C1607 C1606 1.372 . S
C1607 C1608 1.400 . S
C1607 C1612 1.490 . S
C1608 H1598 0.930 . S
C1608 C1607 1.400 . S
C1608 C1611 1.386 . S
H1609 C1625 0.930 . S
H1610 C1626 0.931 . S
C1611 H1599 0.929 . S
C1611 C1605 1.390 . S
C1611 C1608 1.386 . S
C1612 C1607 1.490 . S
C1612 C1614 1.395 . S
C1612 C1615 1.403 1_455 S
H1613 C1619 0.930 . S
C1614 H1600 0.930 . S
C1614 C1612 1.395 . S
C1614 C1617 1.403 . S
C1615 C1612 1.403 1_655 S
C1615 C1616 1.524 . S
C1615 C1619 1.400 . S
C1616 H1601 0.960 . S
C1616 H1602 0.960 1_655 S
C1616 H1603 0.960 . S
C1616 C1615 1.524 . S
C1617 C1614 1.403 . S
C1617 C1618 1.392 1_455 S
C1617 C1621 1.495 . S
C1618 C1617 1.392 1_655 S
C1618 C1619 1.385 . S
C1618 C1620 1.478 . S
C1619 H1613 0.930 . S
C1619 C1615 1.400 . S
C1619 C1618 1.385 . S
C1620 C1618 1.478 . S
C1620 C1622 1.381 . S
C1620 C1626 1.383 . S
C1621 C1617 1.495 . S
C1621 H1627 0.959 . S
C1621 H1628 0.961 1_455 S
C1621 H1629 0.960 . S
C1622 C1620 1.381 . S
C1622 C1623 1.394 . S
C1622 H1630 0.930 . S
C1623 C1622 1.394 . S
C1623 C1624 1.383 . S
C1623 H1631 0.929 . S
C1624 C1623 1.383 . S
C1624 C1625 1.377 . S
C1625 H1609 0.930 . S
C1625 C1624 1.377 . S
C1625 C1626 1.379 . S
C1626 H1610 0.931 . S
C1626 C1620 1.383 . S
C1626 C1625 1.379 . S
H1627 C1621 0.959 . S
H1628 C1621 0.961 1_655 S
H1629 C1621 0.960 . S
H1630 C1622 0.930 . S
H1631 C1623 0.929 . S
H1632 C1640 0.929 . S
H1633 C1642 0.930 . S
H1634 C1644 0.930 . S
H1635 C1647 0.929 . S
H1636 C1650 0.930 . S
H1637 C1652 0.960 . S
H1638 C1652 0.960 . S
H1639 C1652 0.960 . S
C1640 H1632 0.929 . S
C1640 C1641 1.377 . S
C1640 C1642 1.384 . S
C1641 C1640 1.377 . S
C1641 C1647 1.390 . S
C1642 H1633 0.930 . S
C1642 C1640 1.384 . S
C1642 C1643 1.372 . S
C1643 C1642 1.372 . S
C1643 C1644 1.400 . S
C1643 C1648 1.490 . S
C1644 H1634 0.930 . S
C1644 C1643 1.400 . S
C1644 C1647 1.386 . S
H1645 C1661 0.930 . S
H1646 C1662 0.931 . S
C1647 H1635 0.929 . S
C1647 C1641 1.390 . S
C1647 C1644 1.386 . S
C1648 C1643 1.490 . S
C1648 C1650 1.395 1_565 S
C1648 C1651 1.403 1_554 S
H1649 C1655 0.930 . S
C1650 H1636 0.930 . S
C1650 C1648 1.395 1_545 S
C1650 C1653 1.403 . S
C1651 C1648 1.403 1_556 S
C1651 C1652 1.524 . S
C1651 C1655 1.419 . S
C1652 H1637 0.960 . S
C1652 H1638 0.960 . S
C1652 H1639 0.960 . S
C1652 C1651 1.524 . S
C1653 C1650 1.403 . S
C1653 C1654 1.392 1_554 S
C1653 C1657 1.495 . S
C1654 C1653 1.392 1_556 S
C1654 C1655 1.367 1_545 S
C1654 C1656 1.478 . S
C1655 H1649 0.930 . S
C1655 C1651 1.419 . S
C1655 C1654 1.367 1_565 S
C1656 C1654 1.478 . S
C1656 C1658 1.381 . S
C1656 C1662 1.383 . S
C1657 C1653 1.495 . S
C1657 H1663 0.959 . S
C1657 H1664 0.961 . S
C1657 H1665 0.960 . S
C1658 C1656 1.381 . S
C1658 C1659 1.394 . S
C1658 H1666 0.930 . S
C1659 C1658 1.394 . S
C1659 C1660 1.383 . S
C1659 H1667 0.929 . S
C1660 C1659 1.383 . S
C1660 C1661 1.377 . S
C1661 H1645 0.930 . S
C1661 C1660 1.377 . S
C1661 C1662 1.379 . S
C1662 H1646 0.931 . S
C1662 C1656 1.383 . S
C1662 C1661 1.379 . S
H1663 C1657 0.959 . S
H1664 C1657 0.961 . S
H1665 C1657 0.960 . S
H1666 C1658 0.930 . S
H1667 C1659 0.929 . S
H1668 C1676 0.929 . S
H1669 C1678 0.930 . S
H1670 C1680 0.930 . S
H1671 C1683 0.929 . S
H1672 C1686 0.930 . S
H1673 C1688 0.960 . S
H1674 C1688 0.960 . S
H1675 C1688 0.960 . S
C1676 H1668 0.929 . S
C1676 C1677 1.377 . S
C1676 C1678 1.384 . S
C1677 C1676 1.377 . S
C1677 C1683 1.390 . S
C1678 H1669 0.930 . S
C1678 C1676 1.384 . S
C1678 C1679 1.372 . S
C1679 C1678 1.372 . S
C1679 C1680 1.400 . S
C1679 C1684 1.490 . S
C1680 H1670 0.930 . S
C1680 C1679 1.400 . S
C1680 C1683 1.386 . S
H1681 C1697 0.930 . S
H1682 C1698 0.931 . S
C1683 H1671 0.929 . S
C1683 C1677 1.390 . S
C1683 C1680 1.386 . S
C1684 C1679 1.490 . S
C1684 C1686 1.395 . S
C1684 C1687 1.403 . S
H1685 C1691 0.930 . S
C1686 H1672 0.930 . S
C1686 C1684 1.395 . S
C1686 C1689 1.403 . S
C1687 C1684 1.403 . S
C1687 C1688 1.524 . S
C1687 C1691 1.400 . S
C1688 H1673 0.960 . S
C1688 H1674 0.960 . S
C1688 H1675 0.960 . S
C1688 C1687 1.524 . S
C1689 C1686 1.403 . S
C1689 C1690 1.392 . S
C1689 C1693 1.495 . S
C1690 C1689 1.392 . S
C1690 C1691 1.385 . S
C1690 C1692 1.478 . S
C1691 H1685 0.930 . S
C1691 C1687 1.400 . S
C1691 C1690 1.385 . S
C1692 C1690 1.478 . S
C1692 C1694 1.381 . S
C1692 C1698 1.383 . S
C1693 C1689 1.495 . S
C1693 H1699 0.959 . S
C1693 H1700 0.961 . S
C1693 H1701 0.960 . S
C1694 C1692 1.381 . S
C1694 C1695 1.394 . S
C1694 H1702 0.930 . S
C1695 C1694 1.394 . S
C1695 C1696 1.383 . S
C1695 H1703 0.929 . S
C1696 C1695 1.383 . S
C1696 C1697 1.377 . S
C1697 H1681 0.930 . S
C1697 C1696 1.377 . S
C1697 C1698 1.379 . S
C1698 H1682 0.931 . S
C1698 C1692 1.383 . S
C1698 C1697 1.379 . S
H1699 C1693 0.959 . S
H1700 C1693 0.961 . S
H1701 C1693 0.960 . S
H1702 C1694 0.930 . S
H1703 C1695 0.929 . S
H1704 C1712 0.929 . S
H1705 C1714 0.930 . S
H1706 C1716 0.930 . S
H1707 C1719 0.929 . S
H1708 C1722 0.930 . S
H1709 C1724 0.960 . S
H1710 C1724 0.960 . S
H1711 C1724 0.960 . S
C1712 H1704 0.929 . S
C1712 C1713 1.377 . S
C1712 C1714 1.384 . S
C1713 C1712 1.377 . S
C1713 C1719 1.390 . S
C1714 H1705 0.930 . S
C1714 C1712 1.384 . S
C1714 C1715 1.372 . S
C1715 C1714 1.372 . S
C1715 C1716 1.400 . S
C1715 C1720 1.490 . S
C1716 H1706 0.930 . S
C1716 C1715 1.400 . S
C1716 C1719 1.386 . S
H1717 C1733 0.930 . S
H1718 C1734 0.931 . S
C1719 H1707 0.929 . S
C1719 C1713 1.390 . S
C1719 C1716 1.386 . S
C1720 C1715 1.490 . S
C1720 C1722 1.395 1_655 S
C1720 C1723 1.403 1_556 S
H1721 C1727 0.930 . S
C1722 H1708 0.930 . S
C1722 C1720 1.395 1_455 S
C1722 C1725 1.403 . S
C1723 C1720 1.403 1_554 S
C1723 C1724 1.524 . S
C1723 C1727 1.400 . S
C1724 H1709 0.960 . S
C1724 H1710 0.960 . S
C1724 H1711 0.960 . S
C1724 C1723 1.524 . S
C1725 C1722 1.403 . S
C1725 C1726 1.392 1_556 S
C1725 C1729 1.495 . S
C1726 C1725 1.392 1_554 S
C1726 C1727 1.385 1_455 S
C1726 C1728 1.478 . S
C1727 H1721 0.930 . S
C1727 C1723 1.400 . S
C1727 C1726 1.385 1_655 S
C1728 C1726 1.478 . S
C1728 C1730 1.381 . S
C1728 C1734 1.383 . S
C1729 C1725 1.495 . S
C1729 H1735 0.959 . S
C1729 H1736 0.961 . S
C1729 H1737 0.960 . S
C1730 C1728 1.381 . S
C1730 C1731 1.394 . S
C1730 H1738 0.930 . S
C1731 C1730 1.394 . S
C1731 C1732 1.383 . S
C1731 H1739 0.929 . S
C1732 C1731 1.383 . S
C1732 C1733 1.377 . S
C1733 H1717 0.930 . S
C1733 C1732 1.377 . S
C1733 C1734 1.379 . S
C1734 H1718 0.931 . S
C1734 C1728 1.383 . S
C1734 C1733 1.379 . S
H1735 C1729 0.959 . S
H1736 C1729 0.961 . S
H1737 C1729 0.960 . S
H1738 C1730 0.930 . S
H1739 C1731 0.929 . S
H1740 C1748 0.929 . S
H1741 C1750 0.930 . S
H1742 C1752 0.930 . S
H1743 C1755 0.929 . S
H1744 C1758 0.930 . S
H1745 C1760 0.960 . S
H1746 C1760 0.960 . S
H1747 C1760 0.960 . S
C1748 H1740 0.929 . S
C1748 C1749 1.377 . S
C1748 C1750 1.384 . S
C1749 C1748 1.377 . S
C1749 C1755 1.390 . S
C1750 H1741 0.930 . S
C1750 C1748 1.384 . S
C1750 C1751 1.372 . S
C1751 C1750 1.372 . S
C1751 C1752 1.400 . S
C1751 C1756 1.490 . S
C1752 H1742 0.930 . S
C1752 C1751 1.400 . S
C1752 C1755 1.386 . S
H1753 C1769 0.930 . S
H1754 C1770 0.931 . S
C1755 H1743 0.929 . S
C1755 C1749 1.390 . S
C1755 C1752 1.386 . S
C1756 C1751 1.490 . S
C1756 C1758 1.395 1_565 S
C1756 C1759 1.403 . S
H1757 C1763 0.936 . S
C1758 H1744 0.930 . S
C1758 C1756 1.395 1_545 S
C1758 C1761 1.403 . S
C1759 C1756 1.403 . S
C1759 C1760 1.524 . S
C1759 C1763 1.374 1_565 S
C1760 H1745 0.960 . S
C1760 H1746 0.960 . S
C1760 H1747 0.960 . S
C1760 C1759 1.524 . S
C1761 C1758 1.403 . S
C1761 C1762 1.392 . S
C1761 C1765 1.495 . S
C1762 C1761 1.392 . S
C1762 C1763 1.403 . S
C1762 C1764 1.478 . S
C1763 H1757 0.936 . S
C1763 C1759 1.374 1_545 S
C1763 C1762 1.403 . S
C1764 C1762 1.478 . S
C1764 C1766 1.381 . S
C1764 C1770 1.383 . S
C1765 C1761 1.495 . S
C1765 H1771 0.959 . S
C1765 H1772 0.961 . S
C1765 H1773 0.960 . S
C1766 C1764 1.381 . S
C1766 C1767 1.394 . S
C1766 H1774 0.930 . S
C1767 C1766 1.394 . S
C1767 C1768 1.383 . S
C1767 H1775 0.929 . S
C1768 C1767 1.383 . S
C1768 C1769 1.377 . S
C1769 H1753 0.930 . S
C1769 C1768 1.377 . S
C1769 C1770 1.379 . S
C1770 H1754 0.931 . S
C1770 C1764 1.383 . S
C1770 C1769 1.379 . S
H1771 C1765 0.959 . S
H1772 C1765 0.961 . S
H1773 C1765 0.960 . S
H1774 C1766 0.930 . S
H1775 C1767 0.929 . S
C489 C175 1.293 1_545 S
C508 C19 1.322 . S
C525 C215 1.298 . S
C544 C59 1.322 . S
C561 C99 1.322 . S
C580 C15 1.269 1_655 S
C597 C139 1.323 . S
C616 C55 1.274 1_565 S
C633 C179 1.321 . S
C652 C95 1.303 . S
C669 C135 1.297 1_455 S
C688 C219 1.316 . S
C705 C335 1.296 1_655 S
C724 C259 1.316 . S
C741 C299 1.323 . S
C760 C375 1.289 1_565 S
C777 C415 1.296 . S
C796 C339 1.323 . S
C813 C379 1.323 . S
C832 C455 1.274 1_455 S
C849 C419 1.322 . S
C868 C255 1.304 1_545 S
C885 C295 1.291 . S
C904 C459 1.317 . S
C921 C166 1.704 . S
C940 C10 1.706 . S
C957 C50 1.699 . S
C976 C206 1.699 . S
C993 C90 1.699 . S
C1012 C6 1.705 . S
C1029 C130 1.696 . S
C1048 C46 1.708 . S
C1065 C86 1.705 . S
C1084 C170 1.705 . S
C1101 C126 1.707 . S
C1120 C210 1.692 . S
C1137 C326 1.704 . S
C1156 C250 1.706 . S
C1173 C290 1.701 . S
C1192 C366 1.694 . S
C1209 C330 1.701 . S
C1228 C406 1.696 . S
C1245 C446 1.707 . S
C1264 C370 1.684 . S
C1281 C410 1.697 . S
C1300 C246 1.705 . S
C1317 C286 1.705 . S
C1336 C450 1.700 . S
C1353 C418 1.725 . S
C1372 C18 1.736 . S
C1389 C58 1.730 . S
C1408 C458 1.734 . S
C1425 C98 1.730 . S
C1444 C258 1.731 . S
C1461 C138 1.724 . S
C1480 C298 1.731 . S
C1497 C178 1.722 . S
C1516 C338 1.712 . S
C1533 C378 1.729 . S
C1552 C218 1.742 . S
C1569 C369 1.968 . S
C1588 C9 1.973 . S
C1605 C409 1.978 . S
C1624 C49 1.940 . S
C1641 C89 1.971 . S
C1660 C449 1.999 . S
C1677 C129 1.975 . S
C1696 C249 1.987 . S
C1713 C289 1.972 . S
C1732 C169 1.997 . S
C1749 C329 1.976 . S
C1768 C209 1.983 . S
