# Generated by pormake.
# Topology ukb, (4)-cn, num edge types: 1
# Building blocks:
#     Node 0, Type 0, BuildingBlock: QUQFOY_clean_sbu_1, # of connection points: 4
#     Node 1, Type 0, BuildingBlock: QUQFOY_clean_sbu_1, # of connection points: 4
#     Node 2, Type 0, BuildingBlock: QUQFOY_clean_sbu_1, # of connection points: 4
#     Node 3, Type 0, BuildingBlock: QUQFOY_clean_sbu_1, # of connection points: 4
#     Node 4, Type 0, BuildingBlock: QUQFOY_clean_sbu_1, # of connection points: 4
#     Node 5, Type 0, BuildingBlock: QUQFOY_clean_sbu_1, # of connection points: 4
#     Node 6, Type 0, BuildingBlock: QUQFOY_clean_sbu_1, # of connection points: 4
#     Node 7, Type 0, BuildingBlock: QUQFOY_clean_sbu_1, # of connection points: 4
#     Node 8, Type 0, BuildingBlock: QUQFOY_clean_sbu_1, # of connection points: 4
#     Node 9, Type 0, BuildingBlock: QUQFOY_clean_sbu_1, # of connection points: 4
#     Node 10, Type 0, BuildingBlock: QUQFOY_clean_sbu_1, # of connection points: 4
#     Node 11, Type 0, BuildingBlock: QUQFOY_clean_sbu_1, # of connection points: 4
#     Node 12, Type 0, BuildingBlock: QUQFOY_clean_sbu_1, # of connection points: 4
#     Node 13, Type 0, BuildingBlock: QUQFOY_clean_sbu_1, # of connection points: 4
#     Node 14, Type 0, BuildingBlock: QUQFOY_clean_sbu_1, # of connection points: 4
#     Node 15, Type 0, BuildingBlock: QUQFOY_clean_sbu_1, # of connection points: 4
#     Edge 16, Type (0, 0), BuildingBlock: EZIPEK_clean_linker_0, # of connection points: 2
#     Edge 17, Type (0, 0), BuildingBlock: EZIPEK_clean_linker_0, # of connection points: 2
#     Edge 18, Type (0, 0), BuildingBlock: EZIPEK_clean_linker_0, # of connection points: 2
#     Edge 19, Type (0, 0), BuildingBlock: EZIPEK_clean_linker_0, # of connection points: 2
#     Edge 20, Type (0, 0), BuildingBlock: EZIPEK_clean_linker_0, # of connection points: 2
#     Edge 21, Type (0, 0), BuildingBlock: EZIPEK_clean_linker_0, # of connection points: 2
#     Edge 22, Type (0, 0), BuildingBlock: EZIPEK_clean_linker_0, # of connection points: 2
#     Edge 23, Type (0, 0), BuildingBlock: EZIPEK_clean_linker_0, # of connection points: 2
#     Edge 24, Type (0, 0), BuildingBlock: EZIPEK_clean_linker_0, # of connection points: 2
#     Edge 25, Type (0, 0), BuildingBlock: EZIPEK_clean_linker_0, # of connection points: 2
#     Edge 26, Type (0, 0), BuildingBlock: EZIPEK_clean_linker_0, # of connection points: 2
#     Edge 27, Type (0, 0), BuildingBlock: EZIPEK_clean_linker_0, # of connection points: 2
#     Edge 28, Type (0, 0), BuildingBlock: EZIPEK_clean_linker_0, # of connection points: 2
#     Edge 29, Type (0, 0), BuildingBlock: EZIPEK_clean_linker_0, # of connection points: 2
#     Edge 30, Type (0, 0), BuildingBlock: EZIPEK_clean_linker_0, # of connection points: 2
#     Edge 31, Type (0, 0), BuildingBlock: EZIPEK_clean_linker_0, # of connection points: 2
#     Edge 32, Type (0, 0), BuildingBlock: EZIPEK_clean_linker_0, # of connection points: 2
#     Edge 33, Type (0, 0), BuildingBlock: EZIPEK_clean_linker_0, # of connection points: 2
#     Edge 34, Type (0, 0), BuildingBlock: EZIPEK_clean_linker_0, # of connection points: 2
#     Edge 35, Type (0, 0), BuildingBlock: EZIPEK_clean_linker_0, # of connection points: 2
#     Edge 36, Type (0, 0), BuildingBlock: EZIPEK_clean_linker_0, # of connection points: 2
#     Edge 37, Type (0, 0), BuildingBlock: EZIPEK_clean_linker_0, # of connection points: 2
#     Edge 38, Type (0, 0), BuildingBlock: EZIPEK_clean_linker_0, # of connection points: 2
#     Edge 39, Type (0, 0), BuildingBlock: EZIPEK_clean_linker_0, # of connection points: 2
#     Edge 40, Type (0, 0), BuildingBlock: EZIPEK_clean_linker_0, # of connection points: 2
#     Edge 41, Type (0, 0), BuildingBlock: EZIPEK_clean_linker_0, # of connection points: 2
#     Edge 42, Type (0, 0), BuildingBlock: EZIPEK_clean_linker_0, # of connection points: 2
#     Edge 43, Type (0, 0), BuildingBlock: EZIPEK_clean_linker_0, # of connection points: 2
#     Edge 44, Type (0, 0), BuildingBlock: EZIPEK_clean_linker_0, # of connection points: 2
#     Edge 45, Type (0, 0), BuildingBlock: EZIPEK_clean_linker_0, # of connection points: 2
#     Edge 46, Type (0, 0), BuildingBlock: EZIPEK_clean_linker_0, # of connection points: 2
#     Edge 47, Type (0, 0), BuildingBlock: EZIPEK_clean_linker_0, # of connection points: 2
# Relax obj value: 0.038
# Max RMSD: 0.065
# Mean RMSD: 0.065
data_MOF--net-ukb--node1-QUQFOY_clean_sbu_1--edge1-EZIPEK_clean_linker_0
_symmetry_space_group_name_H-M    P1
_symmetry_Int_Tables_number       1
_symmetry_cell_setting            triclinic
loop_
_symmetry_equiv_pos_as_xyz
'x, y, z'
_cell_length_a     34.056285
_cell_length_b     34.012218
_cell_length_c     31.831322
_cell_angle_alpha  90.088762
_cell_angle_beta   89.949621
_cell_angle_gamma 89.913995
loop_
_atom_site_label
_atom_site_type_symbol
_atom_site_fract_x
_atom_site_fract_y
_atom_site_fract_z
_atom_type_partial_charge
O0 O 0.58314 0.26235 0.19658 0.0
Cd1 Cd 0.57725 0.21455 0.15695 0.0
Cd2 Cd 0.53694 0.18878 0.2291 0.0
O3 O 0.54289 0.24637 0.24842 0.0
O4 O 0.59797 0.2354 0.10248 0.0
O5 O 0.53714 0.21381 0.10991 0.0
C6 C 0.56395 0.22907 0.08635 0.0
C7 C 0.47989 0.15258 0.24109 0.0
C8 C 0.5663 0.27052 0.23115 0.0
C9 C 0.61377 0.14927 0.20605 0.0
O10 O 0.58726 0.15529 0.23338 0.0
O11 O 0.6133 0.16726 0.17102 0.0
O12 O 0.50218 0.16353 0.27158 0.0
O13 O 0.48854 0.16423 0.2036 0.0
O14 O 0.35357 0.57245 0.74146 0.0
Cd15 Cd 0.31367 0.52678 0.73583 0.0
Cd16 Cd 0.29108 0.57727 0.66987 0.0
O17 O 0.33744 0.61141 0.68903 0.0
O18 O 0.33521 0.48953 0.77835 0.0
O19 O 0.33432 0.47639 0.71028 0.0
C20 C 0.34504 0.46674 0.74778 0.0
C21 C 0.27803 0.56479 0.59904 0.0
C22 C 0.35854 0.6041 0.721 0.0
C23 C 0.23343 0.56323 0.74056 0.0
O24 O 0.24313 0.58223 0.70788 0.0
O25 O 0.25588 0.53667 0.75529 0.0
O26 O 0.27284 0.5992 0.61505 0.0
O27 O 0.29207 0.53737 0.62274 0.0
O28 O 0.93146 0.23716 0.21432 0.0
Cd29 Cd 0.93263 0.28438 0.17443 0.0
Cd30 Cd 0.98095 0.31419 0.23998 0.0
O31 O 0.97042 0.25875 0.26501 0.0
O32 O 0.91097 0.26302 0.12076 0.0
O33 O 0.97089 0.28781 0.12594 0.0
C34 C 0.94404 0.27136 0.10333 0.0
C35 C 0.03953 0.34755 0.25324 0.0
C36 C 0.94811 0.23245 0.24961 0.0
C37 C 0.9025 0.35441 0.22111 0.0
O38 O 0.93474 0.35341 0.24106 0.0
O39 O 0.8956 0.32962 0.19212 0.0
O40 O 0.01526 0.3394 0.28293 0.0
O41 O 0.0323 0.33402 0.21614 0.0
O42 O 0.14557 0.92224 0.74088 0.0
Cd43 Cd 0.17797 0.97368 0.73751 0.0
Cd44 Cd 0.20048 0.93795 0.66499 0.0
O45 O 0.14932 0.90636 0.67383 0.0
O46 O 0.15058 0.01059 0.77651 0.0
O47 O 0.15417 0.0199 0.70762 0.0
C48 C 0.1408 0.03075 0.74387 0.0
C49 C 0.21959 0.95465 0.5965 0.0
C50 C 0.13505 0.90071 0.71022 0.0
C51 C 0.25775 0.94293 0.73825 0.0
O52 O 0.24643 0.92504 0.70529 0.0
O53 O 0.23655 0.96993 0.75408 0.0
O54 O 0.22096 0.91893 0.60964 0.0
O55 O 0.20636 0.98131 0.62174 0.0
O56 O 0.57173 0.23878 0.80218 0.0
Cd57 Cd 0.56973 0.2872 0.84038 0.0
Cd58 Cd 0.5204 0.31102 0.77425 0.0
O59 O 0.52737 0.25313 0.75401 0.0
O60 O 0.59373 0.26732 0.8936 0.0
O61 O 0.53271 0.2895 0.89016 0.0
C62 C 0.56073 0.27412 0.912 0.0
C63 C 0.46083 0.34436 0.77141 0.0
C64 C 0.55264 0.2296 0.76935 0.0
C65 C 0.59831 0.3539 0.78833 0.0
O66 O 0.56713 0.34928 0.76698 0.0
O67 O 0.60457 0.33305 0.82077 0.0
O68 O 0.47994 0.33588 0.73766 0.0
O69 O 0.47381 0.33104 0.8068 0.0
O70 O 0.15514 0.57494 0.27716 0.0
Cd71 Cd 0.19054 0.52623 0.28551 0.0
Cd72 Cd 0.20861 0.56957 0.35609 0.0
O73 O 0.15877 0.60085 0.3407 0.0
O74 O 0.16725 0.48633 0.24717 0.0
O75 O 0.16857 0.4799 0.31655 0.0
C76 C 0.15734 0.46697 0.28028 0.0
C77 C 0.22593 0.56048 0.42687 0.0
C78 C 0.14412 0.60035 0.30401 0.0
C79 C 0.2683 0.56196 0.28472 0.0
O80 O 0.25574 0.58001 0.31706 0.0
O81 O 0.24879 0.53368 0.2691 0.0
O82 O 0.22719 0.59454 0.40944 0.0
O83 O 0.21357 0.53123 0.40466 0.0
O84 O 0.91848 0.25829 0.81933 0.0
Cd85 Cd 0.9262 0.21086 0.85915 0.0
Cd86 Cd 0.96344 0.1846 0.78531 0.0
O87 O 0.9575 0.24227 0.76637 0.0
O88 O 0.90624 0.23232 0.91366 0.0
O89 O 0.96734 0.21174 0.90519 0.0
C90 C 0.94067 0.22685 0.92916 0.0
C91 C 0.02014 0.14787 0.77241 0.0
C92 C 0.93445 0.26645 0.78433 0.0
C93 C 0.88795 0.1452 0.81238 0.0
O94 O 0.91266 0.15171 0.78332 0.0
O95 O 0.89064 0.16266 0.84763 0.0
O96 O 0.99722 0.15846 0.74229 0.0
O97 O 0.01223 0.16007 0.80995 0.0
O98 O 0.36072 0.92723 0.28389 0.0
Cd99 Cd 0.32629 0.97674 0.28013 0.0
Cd100 Cd 0.30103 0.94728 0.35872 0.0
O101 O 0.35076 0.91246 0.35065 0.0
O102 O 0.35417 0.0114 0.23954 0.0
O103 O 0.34546 0.02667 0.30677 0.0
C104 C 0.36064 0.0349 0.27058 0.0
C105 C 0.28011 0.95955 0.42817 0.0
C106 C 0.36796 0.90606 0.31578 0.0
C107 C 0.24656 0.94576 0.28057 0.0
O108 O 0.25478 0.9361 0.31818 0.0
O109 O 0.27028 0.96622 0.25895 0.0
O110 O 0.27813 0.92515 0.41163 0.0
O111 O 0.2949 0.9875 0.40585 0.0
O112 O 0.4259 0.86002 0.78707 0.0
Cd113 Cd 0.47178 0.82007 0.79291 0.0
Cd114 Cd 0.42096 0.7956 0.85789 0.0
O115 O 0.38539 0.84038 0.83691 0.0
O116 O 0.51184 0.84427 0.75503 0.0
O117 O 0.52209 0.83438 0.82261 0.0
C118 C 0.53444 0.84812 0.78718 0.0
C119 C 0.43054 0.78318 0.92956 0.0
C120 C 0.39311 0.86274 0.80602 0.0
C121 C 0.43856 0.73871 0.7866 0.0
O122 O 0.41988 0.74713 0.81998 0.0
O123 O 0.46305 0.76293 0.77117 0.0
O124 O 0.39755 0.77574 0.9115 0.0
O125 O 0.45809 0.79899 0.9074 0.0
O126 O 0.65785 0.42719 0.2711 0.0
Cd127 Cd 0.69133 0.47748 0.27781 0.0
Cd128 Cd 0.70951 0.43907 0.35073 0.0
O129 O 0.65897 0.40801 0.33734 0.0
O130 O 0.66624 0.51686 0.24011 0.0
O131 O 0.66844 0.52308 0.30954 0.0
C132 C 0.65635 0.5359 0.27356 0.0
C133 C 0.72716 0.4507 0.42111 0.0
C134 C 0.64616 0.40431 0.30004 0.0
C135 C 0.76955 0.44402 0.27926 0.0
O136 O 0.7567 0.42684 0.31195 0.0
O137 O 0.74993 0.47164 0.26253 0.0
O138 O 0.72819 0.41601 0.40502 0.0
O139 O 0.71491 0.47919 0.39776 0.0
O140 O 0.06711 0.64771 0.78619 0.0
Cd141 Cd 0.02089 0.68695 0.78824 0.0
Cd142 Cd 0.07127 0.7184 0.85055 0.0
O143 O 0.10784 0.67264 0.83299 0.0
O144 O 0.98308 0.65943 0.75039 0.0
O145 O 0.97137 0.66968 0.81789 0.0
C146 C 0.96112 0.65377 0.78271 0.0
C147 C 0.06119 0.73463 0.92111 0.0
C148 C 0.10007 0.64726 0.80481 0.0
C149 C 0.05319 0.76835 0.77451 0.0
O150 O 0.07107 0.76437 0.80919 0.0
O151 O 0.03023 0.74177 0.76074 0.0
O152 O 0.094 0.74201 0.90264 0.0
O153 O 0.03405 0.71694 0.90002 0.0
O154 O 0.85613 0.07822 0.28179 0.0
Cd155 Cd 0.8213 0.02873 0.28215 0.0
Cd156 Cd 0.79523 0.06482 0.35515 0.0
O157 O 0.84663 0.09652 0.34758 0.0
O158 O 0.84944 0.99104 0.24465 0.0
O159 O 0.84033 0.98071 0.31278 0.0
C160 C 0.85585 0.96988 0.27751 0.0
C161 C 0.77409 0.05233 0.42422 0.0
C162 C 0.86403 0.10071 0.31251 0.0
C163 C 0.7426 0.0626 0.27698 0.0
O164 O 0.75094 0.07746 0.31256 0.0
O165 O 0.76528 0.03767 0.25968 0.0
O166 O 0.7729 0.08704 0.40832 0.0
O167 O 0.78764 0.02415 0.40114 0.0
O168 O 0.43224 0.65178 0.24093 0.0
Cd169 Cd 0.47899 0.69016 0.23917 0.0
Cd170 Cd 0.42755 0.72231 0.17566 0.0
O171 O 0.39135 0.67676 0.19424 0.0
O172 O 0.51401 0.66376 0.28075 0.0
O173 O 0.52959 0.66971 0.21368 0.0
C174 C 0.53753 0.65563 0.25033 0.0
C175 C 0.43483 0.73746 0.10426 0.0
C176 C 0.39926 0.65143 0.22238 0.0
C177 C 0.44722 0.77225 0.25187 0.0
O178 O 0.42909 0.76841 0.21727 0.0
O179 O 0.46983 0.74539 0.26567 0.0
O180 O 0.40299 0.74569 0.12427 0.0
O181 O 0.46272 0.71994 0.1244 0.0
O182 O 0.84304 0.4245 0.74507 0.0
Cd183 Cd 0.81049 0.47564 0.73779 0.0
Cd184 Cd 0.79545 0.43725 0.66335 0.0
O185 O 0.84576 0.40664 0.6784 0.0
O186 O 0.83111 0.51138 0.78237 0.0
O187 O 0.83767 0.52337 0.71432 0.0
C188 C 0.84525 0.53298 0.75277 0.0
C189 C 0.78062 0.45046 0.59276 0.0
C190 C 0.85643 0.40217 0.71635 0.0
C191 C 0.73222 0.442 0.73052 0.0
O192 O 0.74718 0.42365 0.69958 0.0
O193 O 0.75058 0.47051 0.74721 0.0
O194 O 0.77974 0.41529 0.60749 0.0
O195 O 0.79131 0.47852 0.61757 0.0
O196 O 0.08363 0.85716 0.24502 0.0
Cd197 Cd 0.03625 0.82003 0.24154 0.0
Cd198 Cd 0.07337 0.79934 0.16487 0.0
O199 O 0.11078 0.84473 0.18319 0.0
O200 O 0.99963 0.8421 0.28446 0.0
O201 O 0.98636 0.8415 0.21633 0.0
C202 C 0.97702 0.85245 0.25394 0.0
C203 C 0.06237 0.78677 0.09325 0.0
C204 C 0.1103 0.86332 0.21796 0.0
C205 C 0.0687 0.73882 0.23575 0.0
O206 O 0.07909 0.74818 0.19877 0.0
O207 O 0.04886 0.76249 0.25838 0.0
O208 O 0.09609 0.78099 0.11025 0.0
O209 O 0.03478 0.8015 0.11625 0.0
O210 O 0.63489 0.06067 0.72877 0.0
Cd211 Cd 0.67949 0.01955 0.73279 0.0
Cd212 Cd 0.70854 0.06745 0.66686 0.0
O213 O 0.66151 0.10243 0.68416 0.0
O214 O 0.65795 0.9855 0.77833 0.0
O215 O 0.66919 0.96303 0.71515 0.0
C216 C 0.65713 0.95618 0.75284 0.0
C217 C 0.72223 0.05422 0.59623 0.0
C218 C 0.63464 0.09375 0.71032 0.0
C219 C 0.75867 0.05974 0.74356 0.0
O220 O 0.75564 0.07267 0.70634 0.0
O221 O 0.73201 0.03836 0.75971 0.0
O222 O 0.72781 0.08861 0.61208 0.0
O223 O 0.70783 0.02713 0.62008 0.0
C224 C 0.40873 0.13175 0.23865 0.0
C225 C 0.44846 0.12328 0.24871 0.0
C226 C 0.42876 0.06019 0.27932 0.0
C227 C 0.38966 0.06696 0.26586 0.0
N228 N 0.34251 0.10675 0.22886 0.0
N229 N 0.49744 0.07582 0.26988 0.0
C230 C 0.37965 0.10205 0.2443 0.0
C231 C 0.4588 0.08659 0.26689 0.0
N232 N 0.39863 0.16854 0.22521 0.0
N233 N 0.43736 0.02838 0.30392 0.0
H234 H 0.52052 0.09346 0.25956 0.0
H235 H 0.5066 0.04773 0.27847 0.0
H236 H 0.41657 0.00747 0.31265 0.0
H237 H 0.46438 0.02444 0.31863 0.0
H238 H 0.36973 0.17787 0.22142 0.0
H239 H 0.41916 0.19091 0.22091 0.0
H240 H 0.33444 0.12951 0.2088 0.0
H241 H 0.32016 0.0864 0.2342 0.0
C242 C 0.36346 0.39478 0.74573 0.0
C243 C 0.37339 0.43432 0.75515 0.0
C244 C 0.4372 0.41297 0.78274 0.0
C245 C 0.42888 0.37394 0.76971 0.0
N246 N 0.38603 0.32756 0.73563 0.0
N247 N 0.42267 0.48212 0.77437 0.0
C248 C 0.39251 0.36479 0.75024 0.0
C249 C 0.41093 0.4437 0.77178 0.0
N250 N 0.32599 0.38583 0.73377 0.0
N251 N 0.47055 0.42097 0.80509 0.0
H252 H 0.40516 0.50574 0.76516 0.0
H253 H 0.45126 0.49061 0.78153 0.0
H254 H 0.4921 0.4001 0.81165 0.0
H255 H 0.47555 0.44778 0.82 0.0
H256 H 0.31564 0.35721 0.73046 0.0
H257 H 0.3042 0.40714 0.73016 0.0
H258 H 0.36219 0.3199 0.7169 0.0
H259 H 0.40578 0.30453 0.74052 0.0
C260 C 0.1109 0.36757 0.25516 0.0
C261 C 0.07065 0.3772 0.2605 0.0
C262 C 0.08848 0.44308 0.28537 0.0
C263 C 0.12848 0.43469 0.2767 0.0
N264 N 0.17812 0.39102 0.2495 0.0
N265 N 0.02064 0.4266 0.27178 0.0
C266 C 0.13982 0.39749 0.2604 0.0
C267 C 0.05929 0.41555 0.27346 0.0
N268 N 0.12145 0.32964 0.24647 0.0
N269 N 0.07821 0.47758 0.30468 0.0
H270 H 0.99824 0.40799 0.26167 0.0
H271 H 0.01107 0.4554 0.27619 0.0
H272 H 0.09823 0.49971 0.31195 0.0
H273 H 0.0502 0.48309 0.31648 0.0
H274 H 0.15038 0.31972 0.24635 0.0
H275 H 0.10094 0.30721 0.24232 0.0
H276 H 0.18766 0.36627 0.23313 0.0
H277 H 0.20021 0.41165 0.25486 0.0
C278 C 0.07213 0.05525 0.73484 0.0
C279 C 0.11128 0.06263 0.74783 0.0
C280 C 0.09158 0.12788 0.77377 0.0
C281 C 0.05187 0.11881 0.76442 0.0
N282 N 0.00331 0.07061 0.74433 0.0
N283 N 0.15827 0.10394 0.78316 0.0
C284 C 0.04186 0.08171 0.74692 0.0
C285 C 0.121 0.09838 0.76843 0.0
N286 N 0.06366 0.02275 0.71118 0.0
N287 N 0.10135 0.16509 0.7862 0.0
H288 H 0.18099 0.08397 0.77768 0.0
H289 H 0.16619 0.12718 0.80271 0.0
H290 H 0.0806 0.18738 0.79015 0.0
H291 H 0.13016 0.17482 0.78936 0.0
H292 H 0.03661 0.01833 0.69668 0.0
H293 H 0.08447 1.00159 0.70303 0.0
H294 H 0.99438 0.04228 0.73643 0.0
H295 H 0.98009 0.08835 0.75424 0.0
C296 C 0.59647 0.86173 0.7465 0.0
C297 C 0.57298 0.86857 0.78285 0.0
C298 C 0.62203 0.91583 0.80689 0.0
C299 C 0.63749 0.91839 0.76569 0.0
N300 N 0.64702 0.88544 0.69916 0.0
N301 N 0.56304 0.90629 0.84697 0.0
C302 C 0.6272 0.88864 0.73627 0.0
C303 C 0.58594 0.8962 0.81338 0.0
N304 N 0.59057 0.82858 0.72302 0.0
N305 N 0.64222 0.93138 0.83996 0.0
H306 H 0.53489 0.89546 0.852 0.0
H307 H 0.57053 0.92901 0.86749 0.0
H308 H 0.67056 0.9426 0.83645 0.0
H309 H 0.63323 0.92789 0.87106 0.0
H310 H 0.60849 0.82018 0.69806 0.0
H311 H 0.57016 0.8071 0.73133 0.0
H312 H 0.6368 0.86917 0.67368 0.0
H313 H 0.67443 0.89824 0.6944 0.0
C314 C 0.60893 0.6352 0.24936 0.0
C315 C 0.56888 0.62584 0.25644 0.0
C316 C 0.5876 0.56017 0.28124 0.0
C317 C 0.62726 0.5682 0.27071 0.0
N318 N 0.67583 0.61138 0.24091 0.0
N319 N 0.51934 0.57667 0.27007 0.0
C320 C 0.63798 0.60518 0.25354 0.0
C321 C 0.558 0.58764 0.27017 0.0
N322 N 0.61925 0.67303 0.24011 0.0
N323 N 0.57802 0.52609 0.30158 0.0
H324 H 0.49661 0.59519 0.26054 0.0
H325 H 0.50997 0.54794 0.27515 0.0
H326 H 0.59834 0.50414 0.3086 0.0
H327 H 0.55043 0.52088 0.31453 0.0
H328 H 0.64819 0.68277 0.23878 0.0
H329 H 0.59868 0.69557 0.23683 0.0
H330 H 0.68471 0.63589 0.22384 0.0
H331 H 0.69813 0.59078 0.24554 0.0
C332 C 0.93406 0.58689 0.79689 0.0
C333 C 0.92842 0.62512 0.78007 0.0
C334 C 0.86529 0.60434 0.74997 0.0
C335 C 0.87315 0.56517 0.76282 0.0
N336 N 0.91845 0.51769 0.79185 0.0
N337 N 0.89057 0.6702 0.73815 0.0
C338 C 0.90825 0.55609 0.78491 0.0
C339 C 0.89451 0.63385 0.7559 0.0
N340 N 0.96451 0.57971 0.82383 0.0
N341 N 0.82943 0.61354 0.73338 0.0
H342 H 0.91023 0.69309 0.74392 0.0
H343 H 0.86908 0.67714 0.71612 0.0
H344 H 0.80738 0.59269 0.72894 0.0
H345 H 0.8203 0.64217 0.7272 0.0
H346 H 0.96717 0.55384 0.84106 0.0
H347 H 0.98559 0.60061 0.83172 0.0
H348 H 0.9458 0.50902 0.80315 0.0
H349 H 0.90124 0.49394 0.78249 0.0
C350 C 0.87596 0.9018 0.25448 0.0
C351 C 0.885 0.9375 0.27549 0.0
C352 C 0.95422 0.91822 0.27952 0.0
C353 C 0.94484 0.88116 0.26146 0.0
N354 N 0.8962 0.83509 0.23724 0.0
N355 N 0.93117 0.97702 0.31461 0.0
C356 C 0.90549 0.8722 0.25037 0.0
C357 C 0.92357 0.94466 0.2904 0.0
N358 N 0.83929 0.89644 0.23804 0.0
N359 N 0.99263 0.92945 0.28356 0.0
H360 H 0.91013 0.99824 0.32189 0.0
H361 H 0.9576 0.98122 0.33044 0.0
H362 H 0.01625 0.91195 0.27426 0.0
H363 H 1.00117 0.95778 0.29195 0.0
H364 H 0.83198 0.87319 0.21825 0.0
H365 H 0.81654 0.91663 0.24243 0.0
H366 H 0.86754 0.82543 0.23263 0.0
H367 H 0.91711 0.81283 0.23411 0.0
C368 C 0.56676 0.34286 0.2477 0.0
C369 C 0.58118 0.30447 0.25537 0.0
C370 C 0.63671 0.33128 0.29482 0.0
C371 C 0.62171 0.36986 0.28853 0.0
N372 N 0.56864 0.41205 0.26669 0.0
N373 N 0.62409 0.26125 0.29415 0.0
C374 C 0.58545 0.37555 0.26732 0.0
C375 C 0.61405 0.29847 0.28189 0.0
N376 N 0.53596 0.34806 0.22079 0.0
N377 N 0.67396 0.32583 0.30988 0.0
H378 H 0.60901 0.23622 0.28429 0.0
H379 H 0.64508 0.25546 0.31711 0.0
H380 H 0.69265 0.34875 0.31823 0.0
H381 H 0.68798 0.2986 0.31025 0.0
H382 H 0.52682 0.37546 0.21 0.0
H383 H 0.52076 0.32452 0.20746 0.0
H384 H 0.54063 0.41759 0.25503 0.0
H385 H 0.5814 0.43633 0.28133 0.0
C386 C 0.19251 0.58376 0.80417 0.0
C387 C 0.19541 0.57394 0.76077 0.0
C388 C 0.13571 0.61121 0.74655 0.0
C389 C 0.13106 0.61929 0.79021 0.0
N390 N 0.14875 0.60158 0.86121 0.0
N391 N 0.16113 0.56539 0.69524 0.0
C392 C 0.15741 0.60175 0.81932 0.0
C393 C 0.16373 0.58294 0.73375 0.0
N394 N 0.22363 0.57846 0.83059 0.0
N395 N 0.11651 0.63281 0.71674 0.0
H396 H 0.181 0.54382 0.68543 0.0
H397 H 0.13693 0.56908 0.67556 0.0
H398 H 0.0996 0.65754 0.72348 0.0
H399 H 0.1219 0.62946 0.68467 0.0
H400 H 0.22407 0.58951 0.86115 0.0
H401 H 0.25011 0.56583 0.82142 0.0
H402 H 0.16549 0.5863 0.88321 0.0
H403 H 0.12247 0.61275 0.87317 0.0
C404 C 0.87678 0.17365 0.31246 0.0
C405 C 0.89056 0.13468 0.30533 0.0
C406 C 0.94817 0.16075 0.26824 0.0
C407 C 0.93442 0.19939 0.27588 0.0
N408 N 0.8925 0.243 0.31543 0.0
N409 N 0.94391 0.09153 0.28624 0.0
C410 C 0.90129 0.20584 0.3019 0.0
C411 C 0.92786 0.12837 0.28638 0.0
N412 N 0.83904 0.18031 0.32548 0.0
N413 N 0.97983 0.15507 0.24257 0.0
H414 H 0.93002 0.06753 0.30017 0.0
H415 H 0.97234 0.08551 0.276 0.0
H416 H 0.99627 0.17841 0.23062 0.0
H417 H 0.98862 0.12755 0.23164 0.0
H418 H 0.82631 0.20817 0.32626 0.0
H419 H 0.81882 0.1581 0.33147 0.0
H420 H 0.87095 0.24891 0.33782 0.0
H421 H 0.90936 0.26746 0.30751 0.0
C422 C 0.29971 0.92411 0.80167 0.0
C423 C 0.29574 0.93078 0.7577 0.0
C424 C 0.35607 0.89362 0.74521 0.0
C425 C 0.36196 0.88947 0.78931 0.0
N426 N 0.34535 0.91306 0.85874 0.0
N427 N 0.32887 0.93481 0.69079 0.0
C428 C 0.33575 0.90879 0.81734 0.0
C429 C 0.32702 0.92006 0.73062 0.0
N430 N 0.26877 0.92959 0.82839 0.0
N431 N 0.37529 0.87017 0.71695 0.0
H432 H 0.30889 0.95564 0.67968 0.0
H433 H 0.35282 0.9299 0.671 0.0
H434 H 0.39332 0.84677 0.72539 0.0
H435 H 0.36899 0.8706 0.6849 0.0
H436 H 0.26964 0.92108 0.85983 0.0
H437 H 0.24108 0.93881 0.81879 0.0
H438 H 0.32853 0.92971 0.8796 0.0
H439 H 0.37235 0.90406 0.87087 0.0
C440 C 0.5679 0.1589 0.7775 0.0
C441 C 0.56161 0.19077 0.74985 0.0
C442 C 0.5902 0.15106 0.69307 0.0
C443 C 0.60556 0.12439 0.72326 0.0
N444 N 0.61467 0.10965 0.79756 0.0
N445 N 0.56951 0.21796 0.67998 0.0
C446 C 0.59544 0.12951 0.76641 0.0
C447 C 0.57283 0.18696 0.70696 0.0
N448 N 0.54867 0.1576 0.81513 0.0
N449 N 0.59181 0.14204 0.65129 0.0
H450 H 0.5571 0.24483 0.68826 0.0
H451 H 0.58174 0.21777 0.64995 0.0
H452 H 0.60274 0.11527 0.64024 0.0
H453 H 0.57821 0.15906 0.62829 0.0
H454 H 0.55026 0.13344 0.8352 0.0
H455 H 0.52784 0.17872 0.82369 0.0
H456 H 0.60998 0.11547 0.82934 0.0
H457 H 0.63887 0.09155 0.79253 0.0
C458 C 0.34296 0.60497 0.20744 0.0
C459 C 0.36852 0.6233 0.23678 0.0
C460 C 0.33635 0.58662 0.29316 0.0
C461 C 0.30561 0.57593 0.26559 0.0
N462 N 0.27753 0.57999 0.19569 0.0
N463 N 0.38201 0.6379 0.31022 0.0
C464 C 0.3084 0.58598 0.22229 0.0
C465 C 0.3636 0.61557 0.28043 0.0
N466 N 0.3519 0.60492 0.16561 0.0
N467 N 0.33913 0.56957 0.33186 0.0
H468 H 0.39864 0.66272 0.3033 0.0
H469 H 0.37634 0.63491 0.34225 0.0
H470 H 0.32017 0.54723 0.34149 0.0
H471 H 0.36281 0.57444 0.35196 0.0
H472 H 0.3358 0.58906 0.14351 0.0
H473 H 0.37785 0.61683 0.15379 0.0
H474 H 0.27697 0.59097 0.16514 0.0
H475 H 0.25114 0.56723 0.20485 0.0
C476 C 0.86557 0.32902 0.7203 0.0
C477 C 0.88025 0.3674 0.72841 0.0
C478 C 0.93363 0.33929 0.77074 0.0
C479 C 0.91976 0.30107 0.76106 0.0
N480 N 0.87816 0.25895 0.71936 0.0
N481 N 0.9323 0.40894 0.7539 0.0
C482 C 0.88779 0.29582 0.73312 0.0
C483 C 0.9156 0.3725 0.75141 0.0
N484 N 0.82894 0.32408 0.70343 0.0
N485 N 0.96335 0.3438 0.79914 0.0
H486 H 0.92015 0.43355 0.73929 0.0
H487 H 0.95977 0.41418 0.76706 0.0
H488 H 0.97818 0.31995 0.81233 0.0
H489 H 0.97186 0.37091 0.8113 0.0
H490 H 0.81494 0.29694 0.70158 0.0
H491 H 0.8106 0.3473 0.69498 0.0
H492 H 0.85804 0.25381 0.69535 0.0
H493 H 0.89271 0.23359 0.72919 0.0
C494 C 0.15029 0.92583 0.22164 0.0
C495 C 0.14555 0.88542 0.23143 0.0
C496 C 0.21042 0.88431 0.26389 0.0
C497 C 0.2129 0.92576 0.26008 0.0
N498 N 0.18364 0.98707 0.23839 0.0
N499 N 0.16725 0.82881 0.271 0.0
C500 C 0.18256 0.94695 0.23939 0.0
C501 C 0.17449 0.86541 0.25518 0.0
N502 N 0.12397 0.9439 0.1957 0.0
N503 N 0.24284 0.86268 0.27442 0.0
H504 H 0.14045 0.81456 0.26731 0.0
H505 H 0.18615 0.81465 0.29183 0.0
H506 H 0.27054 0.87511 0.27876 0.0
H507 H 0.24324 0.83203 0.27385 0.0
H508 H 0.12776 0.97225 0.18411 0.0
H509 H 0.09958 0.92934 0.18339 0.0
H510 H 0.16052 0.00434 0.22755 0.0
H511 H 0.20664 0.00328 0.25129 0.0
C512 C 0.40602 0.65986 0.70782 0.0
C513 C 0.38684 0.63435 0.73664 0.0
C514 C 0.42082 0.66842 0.79363 0.0
C515 C 0.42986 0.70004 0.76649 0.0
N516 N 0.42785 0.72631 0.69552 0.0
N517 N 0.37055 0.62176 0.81011 0.0
C518 C 0.42222 0.69584 0.72273 0.0
C519 C 0.39317 0.64002 0.78051 0.0
N520 N 0.40947 0.6496 0.66649 0.0
N521 N 0.43754 0.66633 0.83253 0.0
H522 H 0.34578 0.60513 0.80323 0.0
H523 H 0.37306 0.62793 0.8421 0.0
H524 H 0.45882 0.68638 0.84244 0.0
H525 H 0.43355 0.64231 0.85242 0.0
H526 H 0.42581 0.66599 0.64506 0.0
H527 H 0.40033 0.62237 0.65502 0.0
H528 H 0.41824 0.7254 0.66444 0.0
H529 H 0.4392 0.75346 0.70422 0.0
C530 C 0.86523 0.39071 0.27797 0.0
C531 C 0.87141 0.38273 0.23452 0.0
C532 C 0.81148 0.41977 0.21804 0.0
C533 C 0.80741 0.43 0.26122 0.0
N534 N 0.83954 0.43742 0.32815 0.0
N535 N 0.85688 0.40115 0.16287 0.0
C536 C 0.8376 0.41977 0.28966 0.0
C537 C 0.84664 0.40097 0.20435 0.0
N538 N 0.88279 0.36857 0.30848 0.0
N539 N 0.78135 0.42545 0.19041 0.0
H540 H 0.88337 0.38956 0.15195 0.0
H541 H 0.8413 0.41691 0.14028 0.0
H542 H 0.75456 0.43801 0.19865 0.0
H543 H 0.78183 0.41437 0.15986 0.0
H544 H 0.87621 0.37191 0.34029 0.0
H545 H 0.89949 0.34358 0.30229 0.0
H546 H 0.86277 0.43276 0.34891 0.0
H547 H 0.82045 0.46006 0.33686 0.0
C548 C 0.09568 0.79594 0.71854 0.0
C549 C 0.06489 0.80192 0.74778 0.0
C550 C 0.07277 0.8732 0.74064 0.0
C551 C 0.10836 0.86694 0.71824 0.0
N552 N 0.15642 0.82117 0.6903 0.0
N553 N 0.02341 0.84571 0.78722 0.0
C554 C 0.12022 0.82805 0.7075 0.0
C555 C 0.05291 0.84049 0.75863 0.0
N556 N 0.1023 0.75926 0.70239 0.0
N557 N 0.05778 0.91035 0.74415 0.0
H558 H 0.00708 0.82225 0.79907 0.0
H559 H 0.01638 0.87284 0.80046 0.0
H560 H 0.07125 0.93468 0.73044 0.0
H561 H 0.03033 0.91652 0.75701 0.0
H562 H 0.12187 0.75383 0.67788 0.0
H563 H 0.08538 0.73492 0.71052 0.0
H564 H 0.16821 0.79311 0.68654 0.0
H565 H 0.17662 0.8432 0.68351 0.0
C566 C 0.68562 0.14208 0.22144 0.0
C567 C 0.64794 0.12454 0.21775 0.0
C568 C 0.67309 0.06383 0.2499 0.0
C569 C 0.71082 0.08115 0.25229 0.0
N570 N 0.75549 0.13238 0.23113 0.0
N571 N 0.60715 0.06679 0.22084 0.0
C572 C 0.71785 0.11883 0.23487 0.0
C573 C 0.64211 0.0847 0.22962 0.0
N574 N 0.69023 0.18161 0.21517 0.0
N575 N 0.66665 0.02813 0.26827 0.0
H576 H 0.58416 0.08127 0.20564 0.0
H577 H 0.60202 0.03693 0.22529 0.0
H578 H 0.68912 0.01174 0.28208 0.0
H579 H 0.63893 0.01576 0.27192 0.0
H580 H 0.71594 0.19668 0.22245 0.0
H581 H 0.66742 0.20031 0.20636 0.0
H582 H 0.76279 0.15779 0.21468 0.0
H583 H 0.77991 0.11629 0.24099 0.0
C584 C 0.45033 0.84357 0.27196 0.0
C585 C 0.4354 0.8054 0.27925 0.0
C586 C 0.37948 0.83278 0.31782 0.0
C587 C 0.39402 0.87133 0.31017 0.0
N588 N 0.44831 0.91279 0.29066 0.0
N589 N 0.3933 0.76287 0.3195 0.0
C590 C 0.43125 0.87647 0.29076 0.0
C591 C 0.40275 0.79985 0.30615 0.0
N592 N 0.48182 0.84835 0.24588 0.0
N593 N 0.34212 0.82726 0.33248 0.0
H594 H 0.40938 0.73803 0.31084 0.0
H595 H 0.37212 0.75738 0.34238 0.0
H596 H 0.32302 0.85006 0.3402 0.0
H597 H 0.32856 0.79985 0.33348 0.0
H598 H 0.4914 0.87562 0.23521 0.0
H599 H 0.49733 0.82453 0.23342 0.0
H600 H 0.47672 0.91803 0.27996 0.0
H601 H 0.43528 0.93705 0.30518 0.0
C602 C 0.68676 0.42201 0.79059 0.0
C603 C 0.69366 0.42813 0.74694 0.0
C604 C 0.63776 0.38606 0.73022 0.0
C605 C 0.62888 0.38217 0.77373 0.0
N606 N 0.63765 0.40862 0.84363 0.0
N607 N 0.66594 0.42819 0.6772 0.0
C608 C 0.65098 0.40414 0.80343 0.0
C609 C 0.66566 0.41445 0.71749 0.0
N610 N 0.71484 0.4305 0.81983 0.0
N611 N 0.62252 0.3608 0.70106 0.0
H612 H 0.68512 0.45025 0.66732 0.0
H613 H 0.64419 0.42104 0.65546 0.0
H614 H 0.60558 0.33637 0.70864 0.0
H615 H 0.63116 0.36112 0.66962 0.0
H616 H 0.71212 0.42245 0.85129 0.0
H617 H 0.7423 0.44195 0.81257 0.0
H618 H 0.65129 0.42705 0.86536 0.0
H619 H 0.61052 0.39787 0.85357 0.0
C620 C 0.08265 0.64044 0.2926 0.0
C621 C 0.12387 0.63591 0.28852 0.0
C622 C 0.12873 0.70018 0.25456 0.0
C623 C 0.08701 0.70337 0.25483 0.0
N624 N 0.02377 0.67504 0.27 0.0
N625 N 0.18601 0.65866 0.26117 0.0
C626 C 0.06376 0.6732 0.27306 0.0
C627 C 0.1468 0.66497 0.26821 0.0
N628 N 0.06178 0.61355 0.3153 0.0
N629 N 0.15147 0.73154 0.24312 0.0
H630 H 0.20142 0.63453 0.27284 0.0
H631 H 0.20289 0.67597 0.24114 0.0
H632 H 0.14019 0.75793 0.23201 0.0
H633 H 0.18167 0.73281 0.24805 0.0
H634 H 0.03229 0.61692 0.32309 0.0
H635 H 0.07484 0.58885 0.32885 0.0
H636 H 0.00513 0.6523 0.27889 0.0
H637 H 0.00917 0.69837 0.25558 0.0
C638 C 0.81503 0.13472 0.80565 0.0
C639 C 0.85386 0.11943 0.8031 0.0
C640 C 0.82909 0.06061 0.76696 0.0
C641 C 0.79048 0.07582 0.77008 0.0
N642 N 0.7452 0.12165 0.80181 0.0
N643 N 0.89669 0.06409 0.79095 0.0
C644 C 0.78301 0.11081 0.79298 0.0
C645 C 0.8605 0.08107 0.78679 0.0
N646 N 0.80878 0.17314 0.81664 0.0
N647 N 0.8358 0.02729 0.74402 0.0
H648 H 0.9199 0.07806 0.80626 0.0
H649 H 0.90269 0.03502 0.78288 0.0
H650 H 0.81309 0.01076 0.73091 0.0
H651 H 0.86375 0.01714 0.73628 0.0
H652 H 0.7816 0.187 0.81402 0.0
H653 H 0.83115 0.19257 0.82465 0.0
H654 H 0.73808 0.14461 0.82215 0.0
H655 H 0.7209 0.10543 0.79204 0.0
C656 C 0.5601 0.21066 1.01006 0.0
C657 C 0.55637 0.23963 0.04189 0.0
C658 C 0.55153 0.29144 0.9884 0.0
C659 C 0.55513 0.26242 0.95654 0.0
N660 N 0.55386 0.19419 0.9361 0.0
N661 N 0.54045 0.30594 0.06229 0.0
C662 C 0.55664 0.2219 0.96714 0.0
C663 C 0.54942 0.27955 0.03127 0.0
N664 N 0.56848 0.17266 0.02084 0.0
N665 N 0.55216 0.33038 0.97783 0.0
H666 H 0.53896 0.2981 0.09394 0.0
H667 H 0.53127 0.33463 0.05655 0.0
H668 H 0.55313 0.34014 0.9468 0.0
H669 H 0.55427 0.35307 0.99968 0.0
H670 H 0.57635 0.15105 0.99922 0.0
H671 H 0.56984 0.16315 0.05196 0.0
H672 H 0.55092 0.16422 0.94183 0.0
H673 H 0.55095 0.20144 0.90441 0.0
C674 C 0.21524 0.54321 0.50319 0.0
C675 C 0.24079 0.5554 0.47045 0.0
C676 C 0.29246 0.5699 0.52201 0.0
C677 C 0.26712 0.55734 0.55466 0.0
N678 N 0.20769 0.52497 0.57657 0.0
N679 N 0.30635 0.57101 0.44726 0.0
C680 C 0.22962 0.54146 0.54523 0.0
C681 C 0.28025 0.56595 0.47948 0.0
N682 N 0.17668 0.53557 0.49454 0.0
N683 N 0.32785 0.58651 0.53175 0.0
H684 H 0.29858 0.56755 0.41579 0.0
H685 H 0.33637 0.57495 0.45163 0.0
H686 H 0.33861 0.58802 0.5624 0.0
H687 H 0.34557 0.60075 0.5099 0.0
H688 H 0.15544 0.53102 0.51754 0.0
H689 H 0.16509 0.53649 0.46425 0.0
H690 H 0.18191 0.50933 0.57128 0.0
H691 H 0.21691 0.52418 0.60781 0.0
C692 C 0.9437 0.29028 0.02718 0.0
C693 C 0.95061 0.26153 0.05851 0.0
C694 C 0.95604 0.21018 1.00448 0.0
C695 C 0.94896 0.23894 0.9731 0.0
N696 N 0.94543 0.30712 0.95309 0.0
N697 N 0.9719 0.19643 0.07743 0.0
C698 C 0.94573 0.2793 0.98406 0.0
C699 C 0.95964 0.22218 0.04721 0.0
N700 N 0.93366 0.32771 0.03873 0.0
N701 N 0.95711 0.17125 0.99377 0.0
H702 H 0.97454 0.20437 0.10899 0.0
H703 H 0.98265 0.16841 0.07091 0.0
H704 H 0.95507 0.16137 0.96282 0.0
H705 H 0.95748 0.14852 0.01561 0.0
H706 H 0.92356 0.34887 0.01775 0.0
H707 H 0.93328 0.33708 0.06996 0.0
H708 H 0.94688 0.33722 0.95885 0.0
H709 H 0.94736 0.3 0.92124 0.0
C710 C 0.22273 0.9594 0.47715 0.0
C711 C 0.26338 0.96641 0.47071 0.0
C712 C 0.27196 0.97701 0.54652 0.0
C713 C 0.23287 0.96403 0.55327 0.0
N714 N 0.17075 0.94209 0.52593 0.0
N715 N 0.32752 0.98066 0.49871 0.0
C716 C 0.20805 0.95534 0.51878 0.0
C717 C 0.28816 0.97559 0.50519 0.0
N718 N 0.19808 0.95752 0.44331 0.0
N719 N 0.29359 0.99036 0.57976 0.0
H720 H 0.34026 0.98031 0.46892 0.0
H721 H 0.34799 0.98283 0.52285 0.0
H722 H 0.28274 0.99102 0.61041 0.0
H723 H 0.32093 0.0037 0.57667 0.0
H724 H 0.16764 0.95617 0.44578 0.0
H725 H 0.20787 0.96104 0.41246 0.0
H726 H 0.15276 0.9305 0.50258 0.0
H727 H 0.15835 0.9408 0.55589 0.0
C728 C 0.4376 0.73107 0.98459 0.0
C729 C 0.43681 0.77163 0.97405 0.0
C730 C 0.44321 0.78893 0.04866 0.0
C731 C 0.43901 0.74865 0.0594 0.0
N732 N 0.42928 0.68127 0.03844 0.0
N733 N 0.4361 0.83959 0.99548 0.0
C734 C 0.43578 0.7196 0.02758 0.0
C735 C 0.43929 0.80073 1.00591 0.0
N736 N 0.44102 0.70355 0.95342 0.0
N737 N 0.45169 0.81576 0.07936 0.0
H738 H 0.43385 0.84931 0.96451 0.0
H739 H 0.43304 0.86207 0.01746 0.0
H740 H 0.45468 0.80806 0.11093 0.0
H741 H 0.45905 0.8449 0.07332 0.0
H742 H 0.44576 0.67377 0.95901 0.0
H743 H 0.4426 0.71092 0.92166 0.0
H744 H 0.42193 0.65942 0.01692 0.0
H745 H 0.42864 0.67165 0.06953 0.0
C746 C 0.79472 0.44481 0.51571 0.0
C747 C 0.76941 0.45765 0.54837 0.0
C748 C 0.71696 0.47018 0.49701 0.0
C749 C 0.74236 0.45732 0.46435 0.0
N750 N 0.80784 0.44171 0.44086 0.0
N751 N 0.70953 0.48957 0.57016 0.0
C752 C 0.78203 0.44744 0.47324 0.0
C753 C 0.73159 0.47291 0.53893 0.0
N754 N 0.83063 0.42926 0.52543 0.0
N755 N 0.6783 0.47747 0.48843 0.0
H756 H 0.71881 0.49086 0.60134 0.0
H757 H 0.68348 0.50478 0.56482 0.0
H758 H 0.66662 0.47595 0.4582 0.0
H759 H 0.65711 0.48246 0.51141 0.0
H760 H 0.84842 0.41468 0.50381 0.0
H761 H 0.84194 0.42916 0.55589 0.0
H762 H 0.83797 0.43825 0.4449 0.0
H763 H 0.79964 0.44408 0.40942 0.0
C764 C 0.05199 0.8013 0.01649 0.0
C765 C 0.05532 0.77353 0.04947 0.0
C766 C 0.05842 0.7195 0.99823 0.0
C767 C 0.05503 0.74724 0.96524 0.0
N768 N 0.04041 0.81306 0.94222 0.0
N769 N 0.05272 0.70625 0.07291 0.0
C770 C 0.04919 0.78774 0.97421 0.0
C771 C 0.05571 0.73259 0.04063 0.0
N772 N 0.05334 0.8406 0.02547 0.0
N773 N 0.06596 0.68094 0.98902 0.0
H774 H 0.05045 0.71488 0.1043 0.0
H775 H 0.04896 0.67616 0.06855 0.0
H776 H 0.06707 0.67014 0.95834 0.0
H777 H 0.07353 0.66006 0.01149 0.0
H778 H 0.0557 0.86241 1.00272 0.0
H779 H 0.05445 0.85146 0.05612 0.0
H780 H 0.03205 0.84219 0.94684 0.0
H781 H 0.03827 0.804 0.91096 0.0
C782 C 0.77009 0.03045 0.54193 0.0
C783 C 0.73273 0.04656 0.55174 0.0
C784 C 0.71946 0.05597 0.47671 0.0
C785 C 0.75893 0.0456 0.46743 0.0
N786 N 0.82308 0.02528 0.49117 0.0
N787 N 0.67186 0.07595 0.52942 0.0
C788 C 0.78447 0.03279 0.49993 0.0
C789 C 0.70728 0.05944 0.51934 0.0
N790 N 0.79188 0.0132 0.5729 0.0
N791 N 0.69337 0.06146 0.4446 0.0
H792 H 0.66116 0.07711 0.56013 0.0
H793 H 0.65404 0.09039 0.50781 0.0
H794 H 0.70117 0.05829 0.41306 0.0
H795 H 0.66334 0.06542 0.44909 0.0
H796 H 0.81754 0.99738 0.56721 0.0
H797 H 0.78256 0.01187 0.60409 0.0
H798 H 0.84426 0.02039 0.51414 0.0
H799 H 0.83476 0.02663 0.46094 0.0
loop_
_geom_bond_atom_site_label_1
_geom_bond_atom_site_label_2
_geom_bond_distance
_geom_bond_site_symmetry_2
_ccdc_geom_bond_type
O0 Cd1 2.223 . S
O0 C8 1.315 . S
Cd1 O0 2.223 . S
Cd1 O4 2.297 . S
Cd1 O5 2.439 . S
Cd1 O11 2.240 . S
Cd2 O3 2.240 . S
Cd2 O10 2.223 . S
Cd2 O12 2.297 . S
Cd2 O13 2.439 . S
O3 Cd2 2.240 . S
O3 C8 1.279 . S
O4 Cd1 2.297 . S
O4 C6 1.247 . S
O5 Cd1 2.439 . S
O5 C6 1.208 . S
C6 O4 1.247 . S
C6 O5 1.208 . S
C7 O12 1.247 . S
C7 O13 1.208 . S
C8 O0 1.315 . S
C8 O3 1.279 . S
C9 O10 1.315 . S
C9 O11 1.279 . S
O10 Cd2 2.223 . S
O10 C9 1.315 . S
O11 Cd1 2.240 . S
O11 C9 1.279 . S
O12 Cd2 2.297 . S
O12 C7 1.247 . S
O13 Cd2 2.439 . S
O13 C7 1.208 . S
O14 Cd15 2.223 . S
O14 C22 1.315 . S
Cd15 O14 2.223 . S
Cd15 O18 2.297 . S
Cd15 O19 2.439 . S
Cd15 O25 2.240 . S
Cd16 O17 2.240 . S
Cd16 O24 2.223 . S
Cd16 O26 2.297 . S
Cd16 O27 2.439 . S
O17 Cd16 2.240 . S
O17 C22 1.279 . S
O18 Cd15 2.297 . S
O18 C20 1.247 . S
O19 Cd15 2.439 . S
O19 C20 1.208 . S
C20 O18 1.247 . S
C20 O19 1.208 . S
C21 O26 1.247 . S
C21 O27 1.208 . S
C22 O14 1.315 . S
C22 O17 1.279 . S
C23 O24 1.315 . S
C23 O25 1.279 . S
O24 Cd16 2.223 . S
O24 C23 1.315 . S
O25 Cd15 2.240 . S
O25 C23 1.279 . S
O26 Cd16 2.297 . S
O26 C21 1.247 . S
O27 Cd16 2.439 . S
O27 C21 1.208 . S
O28 Cd29 2.223 . S
O28 C36 1.315 . S
Cd29 O28 2.223 . S
Cd29 O32 2.297 . S
Cd29 O33 2.439 . S
Cd29 O39 2.240 . S
Cd30 O31 2.240 . S
Cd30 O38 2.223 . S
Cd30 O40 2.297 1_655 S
Cd30 O41 2.439 1_655 S
O31 Cd30 2.240 . S
O31 C36 1.279 . S
O32 Cd29 2.297 . S
O32 C34 1.247 . S
O33 Cd29 2.439 . S
O33 C34 1.208 . S
C34 O32 1.247 . S
C34 O33 1.208 . S
C35 O40 1.247 . S
C35 O41 1.208 . S
C36 O28 1.315 . S
C36 O31 1.279 . S
C37 O38 1.315 . S
C37 O39 1.279 . S
O38 Cd30 2.223 . S
O38 C37 1.315 . S
O39 Cd29 2.240 . S
O39 C37 1.279 . S
O40 Cd30 2.297 1_455 S
O40 C35 1.247 . S
O41 Cd30 2.439 1_455 S
O41 C35 1.208 . S
O42 Cd43 2.223 . S
O42 C50 1.315 . S
Cd43 O42 2.223 . S
Cd43 O46 2.297 1_565 S
Cd43 O47 2.439 1_565 S
Cd43 O53 2.240 . S
Cd44 O45 2.240 . S
Cd44 O52 2.223 . S
Cd44 O54 2.297 . S
Cd44 O55 2.439 . S
O45 Cd44 2.240 . S
O45 C50 1.279 . S
O46 Cd43 2.297 1_545 S
O46 C48 1.247 . S
O47 Cd43 2.439 1_545 S
O47 C48 1.208 . S
C48 O46 1.247 . S
C48 O47 1.208 . S
C49 O54 1.247 . S
C49 O55 1.208 . S
C50 O42 1.315 . S
C50 O45 1.279 . S
C51 O52 1.315 . S
C51 O53 1.279 . S
O52 Cd44 2.223 . S
O52 C51 1.315 . S
O53 Cd43 2.240 . S
O53 C51 1.279 . S
O54 Cd44 2.297 . S
O54 C49 1.247 . S
O55 Cd44 2.439 . S
O55 C49 1.208 . S
O56 Cd57 2.223 . S
O56 C64 1.315 . S
Cd57 O56 2.223 . S
Cd57 O60 2.297 . S
Cd57 O61 2.439 . S
Cd57 O67 2.240 . S
Cd58 O59 2.240 . S
Cd58 O66 2.223 . S
Cd58 O68 2.297 . S
Cd58 O69 2.439 . S
O59 Cd58 2.240 . S
O59 C64 1.279 . S
O60 Cd57 2.297 . S
O60 C62 1.247 . S
O61 Cd57 2.439 . S
O61 C62 1.208 . S
C62 O60 1.247 . S
C62 O61 1.208 . S
C63 O68 1.247 . S
C63 O69 1.208 . S
C64 O56 1.315 . S
C64 O59 1.279 . S
C65 O66 1.315 . S
C65 O67 1.279 . S
O66 Cd58 2.223 . S
O66 C65 1.315 . S
O67 Cd57 2.240 . S
O67 C65 1.279 . S
O68 Cd58 2.297 . S
O68 C63 1.247 . S
O69 Cd58 2.439 . S
O69 C63 1.208 . S
O70 Cd71 2.223 . S
O70 C78 1.315 . S
Cd71 O70 2.223 . S
Cd71 O74 2.297 . S
Cd71 O75 2.439 . S
Cd71 O81 2.240 . S
Cd72 O73 2.240 . S
Cd72 O80 2.223 . S
Cd72 O82 2.297 . S
Cd72 O83 2.439 . S
O73 Cd72 2.240 . S
O73 C78 1.279 . S
O74 Cd71 2.297 . S
O74 C76 1.247 . S
O75 Cd71 2.439 . S
O75 C76 1.208 . S
C76 O74 1.247 . S
C76 O75 1.208 . S
C77 O82 1.247 . S
C77 O83 1.208 . S
C78 O70 1.315 . S
C78 O73 1.279 . S
C79 O80 1.315 . S
C79 O81 1.279 . S
O80 Cd72 2.223 . S
O80 C79 1.315 . S
O81 Cd71 2.240 . S
O81 C79 1.279 . S
O82 Cd72 2.297 . S
O82 C77 1.247 . S
O83 Cd72 2.439 . S
O83 C77 1.208 . S
O84 Cd85 2.223 . S
O84 C92 1.315 . S
Cd85 O84 2.223 . S
Cd85 O88 2.297 . S
Cd85 O89 2.439 . S
Cd85 O95 2.240 . S
Cd86 O87 2.240 . S
Cd86 O94 2.223 . S
Cd86 O96 2.297 1_655 S
Cd86 O97 2.439 1_655 S
O87 Cd86 2.240 . S
O87 C92 1.279 . S
O88 Cd85 2.297 . S
O88 C90 1.247 . S
O89 Cd85 2.439 . S
O89 C90 1.208 . S
C90 O88 1.247 . S
C90 O89 1.208 . S
C91 O96 1.247 . S
C91 O97 1.208 . S
C92 O84 1.315 . S
C92 O87 1.279 . S
C93 O94 1.315 . S
C93 O95 1.279 . S
O94 Cd86 2.223 . S
O94 C93 1.315 . S
O95 Cd85 2.240 . S
O95 C93 1.279 . S
O96 Cd86 2.297 1_455 S
O96 C91 1.247 . S
O97 Cd86 2.439 1_455 S
O97 C91 1.208 . S
O98 Cd99 2.223 . S
O98 C106 1.315 . S
Cd99 O98 2.223 . S
Cd99 O102 2.297 1_565 S
Cd99 O103 2.439 1_565 S
Cd99 O109 2.240 . S
Cd100 O101 2.240 . S
Cd100 O108 2.223 . S
Cd100 O110 2.297 . S
Cd100 O111 2.439 . S
O101 Cd100 2.240 . S
O101 C106 1.279 . S
O102 Cd99 2.297 1_545 S
O102 C104 1.247 . S
O103 Cd99 2.439 1_545 S
O103 C104 1.208 . S
C104 O102 1.247 . S
C104 O103 1.208 . S
C105 O110 1.247 . S
C105 O111 1.208 . S
C106 O98 1.315 . S
C106 O101 1.279 . S
C107 O108 1.315 . S
C107 O109 1.279 . S
O108 Cd100 2.223 . S
O108 C107 1.315 . S
O109 Cd99 2.240 . S
O109 C107 1.279 . S
O110 Cd100 2.297 . S
O110 C105 1.247 . S
O111 Cd100 2.439 . S
O111 C105 1.208 . S
O112 Cd113 2.223 . S
O112 C120 1.315 . S
Cd113 O112 2.223 . S
Cd113 O116 2.297 . S
Cd113 O117 2.439 . S
Cd113 O123 2.240 . S
Cd114 O115 2.240 . S
Cd114 O122 2.223 . S
Cd114 O124 2.297 . S
Cd114 O125 2.439 . S
O115 Cd114 2.240 . S
O115 C120 1.279 . S
O116 Cd113 2.297 . S
O116 C118 1.247 . S
O117 Cd113 2.439 . S
O117 C118 1.208 . S
C118 O116 1.247 . S
C118 O117 1.208 . S
C119 O124 1.247 . S
C119 O125 1.208 . S
C120 O112 1.315 . S
C120 O115 1.279 . S
C121 O122 1.315 . S
C121 O123 1.279 . S
O122 Cd114 2.223 . S
O122 C121 1.315 . S
O123 Cd113 2.240 . S
O123 C121 1.279 . S
O124 Cd114 2.297 . S
O124 C119 1.247 . S
O125 Cd114 2.439 . S
O125 C119 1.208 . S
O126 Cd127 2.223 . S
O126 C134 1.315 . S
Cd127 O126 2.223 . S
Cd127 O130 2.297 . S
Cd127 O131 2.439 . S
Cd127 O137 2.240 . S
Cd128 O129 2.240 . S
Cd128 O136 2.223 . S
Cd128 O138 2.297 . S
Cd128 O139 2.439 . S
O129 Cd128 2.240 . S
O129 C134 1.279 . S
O130 Cd127 2.297 . S
O130 C132 1.247 . S
O131 Cd127 2.439 . S
O131 C132 1.208 . S
C132 O130 1.247 . S
C132 O131 1.208 . S
C133 O138 1.247 . S
C133 O139 1.208 . S
C134 O126 1.315 . S
C134 O129 1.279 . S
C135 O136 1.315 . S
C135 O137 1.279 . S
O136 Cd128 2.223 . S
O136 C135 1.315 . S
O137 Cd127 2.240 . S
O137 C135 1.279 . S
O138 Cd128 2.297 . S
O138 C133 1.247 . S
O139 Cd128 2.439 . S
O139 C133 1.208 . S
O140 Cd141 2.223 . S
O140 C148 1.315 . S
Cd141 O140 2.223 . S
Cd141 O144 2.297 1_455 S
Cd141 O145 2.439 1_455 S
Cd141 O151 2.240 . S
Cd142 O143 2.240 . S
Cd142 O150 2.223 . S
Cd142 O152 2.297 . S
Cd142 O153 2.439 . S
O143 Cd142 2.240 . S
O143 C148 1.279 . S
O144 Cd141 2.297 1_655 S
O144 C146 1.247 . S
O145 Cd141 2.439 1_655 S
O145 C146 1.208 . S
C146 O144 1.247 . S
C146 O145 1.208 . S
C147 O152 1.247 . S
C147 O153 1.208 . S
C148 O140 1.315 . S
C148 O143 1.279 . S
C149 O150 1.315 . S
C149 O151 1.279 . S
O150 Cd142 2.223 . S
O150 C149 1.315 . S
O151 Cd141 2.240 . S
O151 C149 1.279 . S
O152 Cd142 2.297 . S
O152 C147 1.247 . S
O153 Cd142 2.439 . S
O153 C147 1.208 . S
O154 Cd155 2.223 . S
O154 C162 1.315 . S
Cd155 O154 2.223 . S
Cd155 O158 2.297 1_545 S
Cd155 O159 2.439 1_545 S
Cd155 O165 2.240 . S
Cd156 O157 2.240 . S
Cd156 O164 2.223 . S
Cd156 O166 2.297 . S
Cd156 O167 2.439 . S
O157 Cd156 2.240 . S
O157 C162 1.279 . S
O158 Cd155 2.297 1_565 S
O158 C160 1.247 . S
O159 Cd155 2.439 1_565 S
O159 C160 1.208 . S
C160 O158 1.247 . S
C160 O159 1.208 . S
C161 O166 1.247 . S
C161 O167 1.208 . S
C162 O154 1.315 . S
C162 O157 1.279 . S
C163 O164 1.315 . S
C163 O165 1.279 . S
O164 Cd156 2.223 . S
O164 C163 1.315 . S
O165 Cd155 2.240 . S
O165 C163 1.279 . S
O166 Cd156 2.297 . S
O166 C161 1.247 . S
O167 Cd156 2.439 . S
O167 C161 1.208 . S
O168 Cd169 2.223 . S
O168 C176 1.315 . S
Cd169 O168 2.223 . S
Cd169 O172 2.297 . S
Cd169 O173 2.439 . S
Cd169 O179 2.240 . S
Cd170 O171 2.240 . S
Cd170 O178 2.223 . S
Cd170 O180 2.297 . S
Cd170 O181 2.439 . S
O171 Cd170 2.240 . S
O171 C176 1.279 . S
O172 Cd169 2.297 . S
O172 C174 1.247 . S
O173 Cd169 2.439 . S
O173 C174 1.208 . S
C174 O172 1.247 . S
C174 O173 1.208 . S
C175 O180 1.247 . S
C175 O181 1.208 . S
C176 O168 1.315 . S
C176 O171 1.279 . S
C177 O178 1.315 . S
C177 O179 1.279 . S
O178 Cd170 2.223 . S
O178 C177 1.315 . S
O179 Cd169 2.240 . S
O179 C177 1.279 . S
O180 Cd170 2.297 . S
O180 C175 1.247 . S
O181 Cd170 2.439 . S
O181 C175 1.208 . S
O182 Cd183 2.223 . S
O182 C190 1.315 . S
Cd183 O182 2.223 . S
Cd183 O186 2.297 . S
Cd183 O187 2.439 . S
Cd183 O193 2.240 . S
Cd184 O185 2.240 . S
Cd184 O192 2.223 . S
Cd184 O194 2.297 . S
Cd184 O195 2.439 . S
O185 Cd184 2.240 . S
O185 C190 1.279 . S
O186 Cd183 2.297 . S
O186 C188 1.247 . S
O187 Cd183 2.439 . S
O187 C188 1.208 . S
C188 O186 1.247 . S
C188 O187 1.208 . S
C189 O194 1.247 . S
C189 O195 1.208 . S
C190 O182 1.315 . S
C190 O185 1.279 . S
C191 O192 1.315 . S
C191 O193 1.279 . S
O192 Cd184 2.223 . S
O192 C191 1.315 . S
O193 Cd183 2.240 . S
O193 C191 1.279 . S
O194 Cd184 2.297 . S
O194 C189 1.247 . S
O195 Cd184 2.439 . S
O195 C189 1.208 . S
O196 Cd197 2.223 . S
O196 C204 1.315 . S
Cd197 O196 2.223 . S
Cd197 O200 2.297 1_455 S
Cd197 O201 2.439 1_455 S
Cd197 O207 2.240 . S
Cd198 O199 2.240 . S
Cd198 O206 2.223 . S
Cd198 O208 2.297 . S
Cd198 O209 2.439 . S
O199 Cd198 2.240 . S
O199 C204 1.279 . S
O200 Cd197 2.297 1_655 S
O200 C202 1.247 . S
O201 Cd197 2.439 1_655 S
O201 C202 1.208 . S
C202 O200 1.247 . S
C202 O201 1.208 . S
C203 O208 1.247 . S
C203 O209 1.208 . S
C204 O196 1.315 . S
C204 O199 1.279 . S
C205 O206 1.315 . S
C205 O207 1.279 . S
O206 Cd198 2.223 . S
O206 C205 1.315 . S
O207 Cd197 2.240 . S
O207 C205 1.279 . S
O208 Cd198 2.297 . S
O208 C203 1.247 . S
O209 Cd198 2.439 . S
O209 C203 1.208 . S
O210 Cd211 2.223 . S
O210 C218 1.315 . S
Cd211 O210 2.223 . S
Cd211 O214 2.297 1_545 S
Cd211 O215 2.439 1_545 S
Cd211 O221 2.240 . S
Cd212 O213 2.240 . S
Cd212 O220 2.223 . S
Cd212 O222 2.297 . S
Cd212 O223 2.439 . S
O213 Cd212 2.240 . S
O213 C218 1.279 . S
O214 Cd211 2.297 1_565 S
O214 C216 1.247 . S
O215 Cd211 2.439 1_565 S
O215 C216 1.208 . S
C216 O214 1.247 . S
C216 O215 1.208 . S
C217 O222 1.247 . S
C217 O223 1.208 . S
C218 O210 1.315 . S
C218 O213 1.279 . S
C219 O220 1.315 . S
C219 O221 1.279 . S
O220 Cd212 2.223 . S
O220 C219 1.315 . S
O221 Cd211 2.240 . S
O221 C219 1.279 . S
O222 Cd212 2.297 . S
O222 C217 1.247 . S
O223 Cd212 2.439 . S
O223 C217 1.208 . S
C224 C225 1.363 . S
C224 C230 1.379 . S
C224 N232 1.356 . S
C225 C224 1.363 . S
C225 C231 1.363 . S
C226 C227 1.363 . S
C226 C231 1.379 . S
C226 N233 1.356 . S
C227 C226 1.363 . S
C227 C230 1.363 . S
N228 C230 1.356 . S
N228 H240 0.984 . S
N228 H241 0.985 . S
N229 C231 1.356 . S
N229 H234 0.984 . S
N229 H235 0.985 . S
C230 C224 1.379 . S
C230 C227 1.363 . S
C230 N228 1.356 . S
C231 C225 1.363 . S
C231 C226 1.379 . S
C231 N229 1.356 . S
N232 C224 1.356 . S
N232 H238 0.984 . S
N232 H239 0.984 . S
N233 C226 1.356 . S
N233 H236 0.984 . S
N233 H237 0.985 . S
H234 N229 0.984 . S
H235 N229 0.985 . S
H236 N233 0.984 . S
H237 N233 0.985 . S
H238 N232 0.984 . S
H239 N232 0.984 . S
H240 N228 0.984 . S
H241 N228 0.985 . S
C242 C243 1.363 . S
C242 C248 1.379 . S
C242 N250 1.356 . S
C243 C242 1.363 . S
C243 C249 1.363 . S
C244 C245 1.363 . S
C244 C249 1.379 . S
C244 N251 1.356 . S
C245 C244 1.363 . S
C245 C248 1.363 . S
N246 C248 1.356 . S
N246 H258 0.984 . S
N246 H259 0.985 . S
N247 C249 1.356 . S
N247 H252 0.984 . S
N247 H253 0.985 . S
C248 C242 1.379 . S
C248 C245 1.363 . S
C248 N246 1.356 . S
C249 C243 1.363 . S
C249 C244 1.379 . S
C249 N247 1.356 . S
N250 C242 1.356 . S
N250 H256 0.984 . S
N250 H257 0.984 . S
N251 C244 1.356 . S
N251 H254 0.984 . S
N251 H255 0.985 . S
H252 N247 0.984 . S
H253 N247 0.985 . S
H254 N251 0.984 . S
H255 N251 0.985 . S
H256 N250 0.984 . S
H257 N250 0.984 . S
H258 N246 0.984 . S
H259 N246 0.985 . S
C260 C261 1.363 . S
C260 C266 1.379 . S
C260 N268 1.356 . S
C261 C260 1.363 . S
C261 C267 1.363 . S
C262 C263 1.363 . S
C262 C267 1.379 . S
C262 N269 1.356 . S
C263 C262 1.363 . S
C263 C266 1.363 . S
N264 C266 1.356 . S
N264 H276 0.984 . S
N264 H277 0.985 . S
N265 C267 1.356 . S
N265 H270 0.984 1_455 S
N265 H271 0.985 1_455 S
C266 C260 1.379 . S
C266 C263 1.363 . S
C266 N264 1.356 . S
C267 C261 1.363 . S
C267 C262 1.379 . S
C267 N265 1.356 . S
N268 C260 1.356 . S
N268 H274 0.984 . S
N268 H275 0.984 . S
N269 C262 1.356 . S
N269 H272 0.984 . S
N269 H273 0.985 . S
H270 N265 0.984 1_655 S
H271 N265 0.985 1_655 S
H272 N269 0.984 . S
H273 N269 0.985 . S
H274 N268 0.984 . S
H275 N268 0.984 . S
H276 N264 0.984 . S
H277 N264 0.985 . S
C278 C279 1.363 . S
C278 C284 1.379 . S
C278 N286 1.356 . S
C279 C278 1.363 . S
C279 C285 1.363 . S
C280 C281 1.363 . S
C280 C285 1.379 . S
C280 N287 1.356 . S
C281 C280 1.363 . S
C281 C284 1.363 . S
N282 C284 1.356 . S
N282 H294 0.984 1_455 S
N282 H295 0.985 1_455 S
N283 C285 1.356 . S
N283 H288 0.984 . S
N283 H289 0.985 . S
C284 C278 1.379 . S
C284 C281 1.363 . S
C284 N282 1.356 . S
C285 C279 1.363 . S
C285 C280 1.379 . S
C285 N283 1.356 . S
N286 C278 1.356 . S
N286 H292 0.984 . S
N286 H293 0.984 . S
N287 C280 1.356 . S
N287 H290 0.984 . S
N287 H291 0.985 . S
H288 N283 0.984 . S
H289 N283 0.985 . S
H290 N287 0.984 . S
H291 N287 0.985 . S
H292 N286 0.984 . S
H293 N286 0.984 . S
H294 N282 0.984 1_655 S
H295 N282 0.985 1_655 S
C296 C297 1.363 . S
C296 C302 1.379 . S
C296 N304 1.356 . S
C297 C296 1.363 . S
C297 C303 1.363 . S
C298 C299 1.363 . S
C298 C303 1.379 . S
C298 N305 1.356 . S
C299 C298 1.363 . S
C299 C302 1.363 . S
N300 C302 1.356 . S
N300 H312 0.984 . S
N300 H313 0.985 . S
N301 C303 1.356 . S
N301 H306 0.984 . S
N301 H307 0.985 . S
C302 C296 1.379 . S
C302 C299 1.363 . S
C302 N300 1.356 . S
C303 C297 1.363 . S
C303 C298 1.379 . S
C303 N301 1.356 . S
N304 C296 1.356 . S
N304 H310 0.984 . S
N304 H311 0.984 . S
N305 C298 1.356 . S
N305 H308 0.984 . S
N305 H309 0.985 . S
H306 N301 0.984 . S
H307 N301 0.985 . S
H308 N305 0.984 . S
H309 N305 0.985 . S
H310 N304 0.984 . S
H311 N304 0.984 . S
H312 N300 0.984 . S
H313 N300 0.985 . S
C314 C315 1.363 . S
C314 C320 1.379 . S
C314 N322 1.356 . S
C315 C314 1.363 . S
C315 C321 1.363 . S
C316 C317 1.363 . S
C316 C321 1.379 . S
C316 N323 1.356 . S
C317 C316 1.363 . S
C317 C320 1.363 . S
N318 C320 1.356 . S
N318 H330 0.984 . S
N318 H331 0.985 . S
N319 C321 1.356 . S
N319 H324 0.984 . S
N319 H325 0.985 . S
C320 C314 1.379 . S
C320 C317 1.363 . S
C320 N318 1.356 . S
C321 C315 1.363 . S
C321 C316 1.379 . S
C321 N319 1.356 . S
N322 C314 1.356 . S
N322 H328 0.984 . S
N322 H329 0.984 . S
N323 C316 1.356 . S
N323 H326 0.984 . S
N323 H327 0.985 . S
H324 N319 0.984 . S
H325 N319 0.985 . S
H326 N323 0.984 . S
H327 N323 0.985 . S
H328 N322 0.984 . S
H329 N322 0.984 . S
H330 N318 0.984 . S
H331 N318 0.985 . S
C332 C333 1.363 . S
C332 C338 1.379 . S
C332 N340 1.356 . S
C333 C332 1.363 . S
C333 C339 1.363 . S
C334 C335 1.363 . S
C334 C339 1.379 . S
C334 N341 1.356 . S
C335 C334 1.363 . S
C335 C338 1.363 . S
N336 C338 1.356 . S
N336 H348 0.984 . S
N336 H349 0.985 . S
N337 C339 1.356 . S
N337 H342 0.984 . S
N337 H343 0.985 . S
C338 C332 1.379 . S
C338 C335 1.363 . S
C338 N336 1.356 . S
C339 C333 1.363 . S
C339 C334 1.379 . S
C339 N337 1.356 . S
N340 C332 1.356 . S
N340 H346 0.984 . S
N340 H347 0.984 . S
N341 C334 1.356 . S
N341 H344 0.984 . S
N341 H345 0.985 . S
H342 N337 0.984 . S
H343 N337 0.985 . S
H344 N341 0.984 . S
H345 N341 0.985 . S
H346 N340 0.984 . S
H347 N340 0.984 . S
H348 N336 0.984 . S
H349 N336 0.985 . S
C350 C351 1.363 . S
C350 C356 1.379 . S
C350 N358 1.356 . S
C351 C350 1.363 . S
C351 C357 1.363 . S
C352 C353 1.363 . S
C352 C357 1.379 . S
C352 N359 1.356 . S
C353 C352 1.363 . S
C353 C356 1.363 . S
N354 C356 1.356 . S
N354 H366 0.984 . S
N354 H367 0.985 . S
N355 C357 1.356 . S
N355 H360 0.984 . S
N355 H361 0.985 . S
C356 C350 1.379 . S
C356 C353 1.363 . S
C356 N354 1.356 . S
C357 C351 1.363 . S
C357 C352 1.379 . S
C357 N355 1.356 . S
N358 C350 1.356 . S
N358 H364 0.984 . S
N358 H365 0.984 . S
N359 C352 1.356 . S
N359 H362 0.984 . S
N359 H363 0.985 . S
H360 N355 0.984 . S
H361 N355 0.985 . S
H362 N359 0.984 . S
H363 N359 0.985 . S
H364 N358 0.984 . S
H365 N358 0.984 . S
H366 N354 0.984 . S
H367 N354 0.985 . S
C368 C369 1.363 . S
C368 C374 1.379 . S
C368 N376 1.356 . S
C369 C368 1.363 . S
C369 C375 1.363 . S
C370 C371 1.363 . S
C370 C375 1.379 . S
C370 N377 1.356 . S
C371 C370 1.363 . S
C371 C374 1.363 . S
N372 C374 1.356 . S
N372 H384 0.984 . S
N372 H385 0.985 . S
N373 C375 1.356 . S
N373 H378 0.984 . S
N373 H379 0.985 . S
C374 C368 1.379 . S
C374 C371 1.363 . S
C374 N372 1.356 . S
C375 C369 1.363 . S
C375 C370 1.379 . S
C375 N373 1.356 . S
N376 C368 1.356 . S
N376 H382 0.984 . S
N376 H383 0.984 . S
N377 C370 1.356 . S
N377 H380 0.984 . S
N377 H381 0.985 . S
H378 N373 0.984 . S
H379 N373 0.985 . S
H380 N377 0.984 . S
H381 N377 0.985 . S
H382 N376 0.984 . S
H383 N376 0.984 . S
H384 N372 0.984 . S
H385 N372 0.985 . S
C386 C387 1.363 . S
C386 C392 1.379 . S
C386 N394 1.356 . S
C387 C386 1.363 . S
C387 C393 1.363 . S
C388 C389 1.363 . S
C388 C393 1.379 . S
C388 N395 1.356 . S
C389 C388 1.363 . S
C389 C392 1.363 . S
N390 C392 1.356 . S
N390 H402 0.984 . S
N390 H403 0.985 . S
N391 C393 1.356 . S
N391 H396 0.984 . S
N391 H397 0.985 . S
C392 C386 1.379 . S
C392 C389 1.363 . S
C392 N390 1.356 . S
C393 C387 1.363 . S
C393 C388 1.379 . S
C393 N391 1.356 . S
N394 C386 1.356 . S
N394 H400 0.984 . S
N394 H401 0.984 . S
N395 C388 1.356 . S
N395 H398 0.984 . S
N395 H399 0.985 . S
H396 N391 0.984 . S
H397 N391 0.985 . S
H398 N395 0.984 . S
H399 N395 0.985 . S
H400 N394 0.984 . S
H401 N394 0.984 . S
H402 N390 0.984 . S
H403 N390 0.985 . S
C404 C405 1.363 . S
C404 C410 1.379 . S
C404 N412 1.356 . S
C405 C404 1.363 . S
C405 C411 1.363 . S
C406 C407 1.363 . S
C406 C411 1.379 . S
C406 N413 1.356 . S
C407 C406 1.363 . S
C407 C410 1.363 . S
N408 C410 1.356 . S
N408 H420 0.984 . S
N408 H421 0.985 . S
N409 C411 1.356 . S
N409 H414 0.984 . S
N409 H415 0.985 . S
C410 C404 1.379 . S
C410 C407 1.363 . S
C410 N408 1.356 . S
C411 C405 1.363 . S
C411 C406 1.379 . S
C411 N409 1.356 . S
N412 C404 1.356 . S
N412 H418 0.984 . S
N412 H419 0.984 . S
N413 C406 1.356 . S
N413 H416 0.984 . S
N413 H417 0.985 . S
H414 N409 0.984 . S
H415 N409 0.985 . S
H416 N413 0.984 . S
H417 N413 0.985 . S
H418 N412 0.984 . S
H419 N412 0.984 . S
H420 N408 0.984 . S
H421 N408 0.985 . S
C422 C423 1.363 . S
C422 C428 1.379 . S
C422 N430 1.356 . S
C423 C422 1.363 . S
C423 C429 1.363 . S
C424 C425 1.363 . S
C424 C429 1.379 . S
C424 N431 1.356 . S
C425 C424 1.363 . S
C425 C428 1.363 . S
N426 C428 1.356 . S
N426 H438 0.984 . S
N426 H439 0.985 . S
N427 C429 1.356 . S
N427 H432 0.984 . S
N427 H433 0.985 . S
C428 C422 1.379 . S
C428 C425 1.363 . S
C428 N426 1.356 . S
C429 C423 1.363 . S
C429 C424 1.379 . S
C429 N427 1.356 . S
N430 C422 1.356 . S
N430 H436 0.984 . S
N430 H437 0.984 . S
N431 C424 1.356 . S
N431 H434 0.984 . S
N431 H435 0.985 . S
H432 N427 0.984 . S
H433 N427 0.985 . S
H434 N431 0.984 . S
H435 N431 0.985 . S
H436 N430 0.984 . S
H437 N430 0.984 . S
H438 N426 0.984 . S
H439 N426 0.985 . S
C440 C441 1.363 . S
C440 C446 1.379 . S
C440 N448 1.356 . S
C441 C440 1.363 . S
C441 C447 1.363 . S
C442 C443 1.363 . S
C442 C447 1.379 . S
C442 N449 1.356 . S
C443 C442 1.363 . S
C443 C446 1.363 . S
N444 C446 1.356 . S
N444 H456 0.984 . S
N444 H457 0.985 . S
N445 C447 1.356 . S
N445 H450 0.984 . S
N445 H451 0.985 . S
C446 C440 1.379 . S
C446 C443 1.363 . S
C446 N444 1.356 . S
C447 C441 1.363 . S
C447 C442 1.379 . S
C447 N445 1.356 . S
N448 C440 1.356 . S
N448 H454 0.984 . S
N448 H455 0.984 . S
N449 C442 1.356 . S
N449 H452 0.984 . S
N449 H453 0.985 . S
H450 N445 0.984 . S
H451 N445 0.985 . S
H452 N449 0.984 . S
H453 N449 0.985 . S
H454 N448 0.984 . S
H455 N448 0.984 . S
H456 N444 0.984 . S
H457 N444 0.985 . S
C458 C459 1.363 . S
C458 C464 1.379 . S
C458 N466 1.356 . S
C459 C458 1.363 . S
C459 C465 1.363 . S
C460 C461 1.363 . S
C460 C465 1.379 . S
C460 N467 1.356 . S
C461 C460 1.363 . S
C461 C464 1.363 . S
N462 C464 1.356 . S
N462 H474 0.984 . S
N462 H475 0.985 . S
N463 C465 1.356 . S
N463 H468 0.984 . S
N463 H469 0.985 . S
C464 C458 1.379 . S
C464 C461 1.363 . S
C464 N462 1.356 . S
C465 C459 1.363 . S
C465 C460 1.379 . S
C465 N463 1.356 . S
N466 C458 1.356 . S
N466 H472 0.984 . S
N466 H473 0.984 . S
N467 C460 1.356 . S
N467 H470 0.984 . S
N467 H471 0.985 . S
H468 N463 0.984 . S
H469 N463 0.985 . S
H470 N467 0.984 . S
H471 N467 0.985 . S
H472 N466 0.984 . S
H473 N466 0.984 . S
H474 N462 0.984 . S
H475 N462 0.985 . S
C476 C477 1.363 . S
C476 C482 1.379 . S
C476 N484 1.356 . S
C477 C476 1.363 . S
C477 C483 1.363 . S
C478 C479 1.363 . S
C478 C483 1.379 . S
C478 N485 1.356 . S
C479 C478 1.363 . S
C479 C482 1.363 . S
N480 C482 1.356 . S
N480 H492 0.984 . S
N480 H493 0.985 . S
N481 C483 1.356 . S
N481 H486 0.984 . S
N481 H487 0.985 . S
C482 C476 1.379 . S
C482 C479 1.363 . S
C482 N480 1.356 . S
C483 C477 1.363 . S
C483 C478 1.379 . S
C483 N481 1.356 . S
N484 C476 1.356 . S
N484 H490 0.984 . S
N484 H491 0.984 . S
N485 C478 1.356 . S
N485 H488 0.984 . S
N485 H489 0.985 . S
H486 N481 0.984 . S
H487 N481 0.985 . S
H488 N485 0.984 . S
H489 N485 0.985 . S
H490 N484 0.984 . S
H491 N484 0.984 . S
H492 N480 0.984 . S
H493 N480 0.985 . S
C494 C495 1.363 . S
C494 C500 1.379 . S
C494 N502 1.356 . S
C495 C494 1.363 . S
C495 C501 1.363 . S
C496 C497 1.363 . S
C496 C501 1.379 . S
C496 N503 1.356 . S
C497 C496 1.363 . S
C497 C500 1.363 . S
N498 C500 1.356 . S
N498 H510 0.984 . S
N498 H511 0.985 . S
N499 C501 1.356 . S
N499 H504 0.984 . S
N499 H505 0.985 . S
C500 C494 1.379 . S
C500 C497 1.363 . S
C500 N498 1.356 . S
C501 C495 1.363 . S
C501 C496 1.379 . S
C501 N499 1.356 . S
N502 C494 1.356 . S
N502 H508 0.984 . S
N502 H509 0.984 . S
N503 C496 1.356 . S
N503 H506 0.984 . S
N503 H507 0.985 . S
H504 N499 0.984 . S
H505 N499 0.985 . S
H506 N503 0.984 . S
H507 N503 0.985 . S
H508 N502 0.984 . S
H509 N502 0.984 . S
H510 N498 0.984 . S
H511 N498 0.985 . S
C512 C513 1.363 . S
C512 C518 1.379 . S
C512 N520 1.356 . S
C513 C512 1.363 . S
C513 C519 1.363 . S
C514 C515 1.363 . S
C514 C519 1.379 . S
C514 N521 1.356 . S
C515 C514 1.363 . S
C515 C518 1.363 . S
N516 C518 1.356 . S
N516 H528 0.984 . S
N516 H529 0.985 . S
N517 C519 1.356 . S
N517 H522 0.984 . S
N517 H523 0.985 . S
C518 C512 1.379 . S
C518 C515 1.363 . S
C518 N516 1.356 . S
C519 C513 1.363 . S
C519 C514 1.379 . S
C519 N517 1.356 . S
N520 C512 1.356 . S
N520 H526 0.984 . S
N520 H527 0.984 . S
N521 C514 1.356 . S
N521 H524 0.984 . S
N521 H525 0.985 . S
H522 N517 0.984 . S
H523 N517 0.985 . S
H524 N521 0.984 . S
H525 N521 0.985 . S
H526 N520 0.984 . S
H527 N520 0.984 . S
H528 N516 0.984 . S
H529 N516 0.985 . S
C530 C531 1.363 . S
C530 C536 1.379 . S
C530 N538 1.356 . S
C531 C530 1.363 . S
C531 C537 1.363 . S
C532 C533 1.363 . S
C532 C537 1.379 . S
C532 N539 1.356 . S
C533 C532 1.363 . S
C533 C536 1.363 . S
N534 C536 1.356 . S
N534 H546 0.984 . S
N534 H547 0.985 . S
N535 C537 1.356 . S
N535 H540 0.984 . S
N535 H541 0.985 . S
C536 C530 1.379 . S
C536 C533 1.363 . S
C536 N534 1.356 . S
C537 C531 1.363 . S
C537 C532 1.379 . S
C537 N535 1.356 . S
N538 C530 1.356 . S
N538 H544 0.984 . S
N538 H545 0.984 . S
N539 C532 1.356 . S
N539 H542 0.984 . S
N539 H543 0.985 . S
H540 N535 0.984 . S
H541 N535 0.985 . S
H542 N539 0.984 . S
H543 N539 0.985 . S
H544 N538 0.984 . S
H545 N538 0.984 . S
H546 N534 0.984 . S
H547 N534 0.985 . S
C548 C549 1.363 . S
C548 C554 1.379 . S
C548 N556 1.356 . S
C549 C548 1.363 . S
C549 C555 1.363 . S
C550 C551 1.363 . S
C550 C555 1.379 . S
C550 N557 1.356 . S
C551 C550 1.363 . S
C551 C554 1.363 . S
N552 C554 1.356 . S
N552 H564 0.984 . S
N552 H565 0.985 . S
N553 C555 1.356 . S
N553 H558 0.984 . S
N553 H559 0.985 . S
C554 C548 1.379 . S
C554 C551 1.363 . S
C554 N552 1.356 . S
C555 C549 1.363 . S
C555 C550 1.379 . S
C555 N553 1.356 . S
N556 C548 1.356 . S
N556 H562 0.984 . S
N556 H563 0.984 . S
N557 C550 1.356 . S
N557 H560 0.984 . S
N557 H561 0.985 . S
H558 N553 0.984 . S
H559 N553 0.985 . S
H560 N557 0.984 . S
H561 N557 0.985 . S
H562 N556 0.984 . S
H563 N556 0.984 . S
H564 N552 0.984 . S
H565 N552 0.985 . S
C566 C567 1.363 . S
C566 C572 1.379 . S
C566 N574 1.356 . S
C567 C566 1.363 . S
C567 C573 1.363 . S
C568 C569 1.363 . S
C568 C573 1.379 . S
C568 N575 1.356 . S
C569 C568 1.363 . S
C569 C572 1.363 . S
N570 C572 1.356 . S
N570 H582 0.984 . S
N570 H583 0.985 . S
N571 C573 1.356 . S
N571 H576 0.984 . S
N571 H577 0.985 . S
C572 C566 1.379 . S
C572 C569 1.363 . S
C572 N570 1.356 . S
C573 C567 1.363 . S
C573 C568 1.379 . S
C573 N571 1.356 . S
N574 C566 1.356 . S
N574 H580 0.984 . S
N574 H581 0.984 . S
N575 C568 1.356 . S
N575 H578 0.984 . S
N575 H579 0.985 . S
H576 N571 0.984 . S
H577 N571 0.985 . S
H578 N575 0.984 . S
H579 N575 0.985 . S
H580 N574 0.984 . S
H581 N574 0.984 . S
H582 N570 0.984 . S
H583 N570 0.985 . S
C584 C585 1.363 . S
C584 C590 1.379 . S
C584 N592 1.356 . S
C585 C584 1.363 . S
C585 C591 1.363 . S
C586 C587 1.363 . S
C586 C591 1.379 . S
C586 N593 1.356 . S
C587 C586 1.363 . S
C587 C590 1.363 . S
N588 C590 1.356 . S
N588 H600 0.984 . S
N588 H601 0.985 . S
N589 C591 1.356 . S
N589 H594 0.984 . S
N589 H595 0.985 . S
C590 C584 1.379 . S
C590 C587 1.363 . S
C590 N588 1.356 . S
C591 C585 1.363 . S
C591 C586 1.379 . S
C591 N589 1.356 . S
N592 C584 1.356 . S
N592 H598 0.984 . S
N592 H599 0.984 . S
N593 C586 1.356 . S
N593 H596 0.984 . S
N593 H597 0.985 . S
H594 N589 0.984 . S
H595 N589 0.985 . S
H596 N593 0.984 . S
H597 N593 0.985 . S
H598 N592 0.984 . S
H599 N592 0.984 . S
H600 N588 0.984 . S
H601 N588 0.985 . S
C602 C603 1.363 . S
C602 C608 1.379 . S
C602 N610 1.356 . S
C603 C602 1.363 . S
C603 C609 1.363 . S
C604 C605 1.363 . S
C604 C609 1.379 . S
C604 N611 1.356 . S
C605 C604 1.363 . S
C605 C608 1.363 . S
N606 C608 1.356 . S
N606 H618 0.984 . S
N606 H619 0.985 . S
N607 C609 1.356 . S
N607 H612 0.984 . S
N607 H613 0.985 . S
C608 C602 1.379 . S
C608 C605 1.363 . S
C608 N606 1.356 . S
C609 C603 1.363 . S
C609 C604 1.379 . S
C609 N607 1.356 . S
N610 C602 1.356 . S
N610 H616 0.984 . S
N610 H617 0.984 . S
N611 C604 1.356 . S
N611 H614 0.984 . S
N611 H615 0.985 . S
H612 N607 0.984 . S
H613 N607 0.985 . S
H614 N611 0.984 . S
H615 N611 0.985 . S
H616 N610 0.984 . S
H617 N610 0.984 . S
H618 N606 0.984 . S
H619 N606 0.985 . S
C620 C621 1.363 . S
C620 C626 1.379 . S
C620 N628 1.356 . S
C621 C620 1.363 . S
C621 C627 1.363 . S
C622 C623 1.363 . S
C622 C627 1.379 . S
C622 N629 1.356 . S
C623 C622 1.363 . S
C623 C626 1.363 . S
N624 C626 1.356 . S
N624 H636 0.984 . S
N624 H637 0.985 . S
N625 C627 1.356 . S
N625 H630 0.984 . S
N625 H631 0.985 . S
C626 C620 1.379 . S
C626 C623 1.363 . S
C626 N624 1.356 . S
C627 C621 1.363 . S
C627 C622 1.379 . S
C627 N625 1.356 . S
N628 C620 1.356 . S
N628 H634 0.984 . S
N628 H635 0.984 . S
N629 C622 1.356 . S
N629 H632 0.984 . S
N629 H633 0.985 . S
H630 N625 0.984 . S
H631 N625 0.985 . S
H632 N629 0.984 . S
H633 N629 0.985 . S
H634 N628 0.984 . S
H635 N628 0.984 . S
H636 N624 0.984 . S
H637 N624 0.985 . S
C638 C639 1.363 . S
C638 C644 1.379 . S
C638 N646 1.356 . S
C639 C638 1.363 . S
C639 C645 1.363 . S
C640 C641 1.363 . S
C640 C645 1.379 . S
C640 N647 1.356 . S
C641 C640 1.363 . S
C641 C644 1.363 . S
N642 C644 1.356 . S
N642 H654 0.984 . S
N642 H655 0.985 . S
N643 C645 1.356 . S
N643 H648 0.984 . S
N643 H649 0.985 . S
C644 C638 1.379 . S
C644 C641 1.363 . S
C644 N642 1.356 . S
C645 C639 1.363 . S
C645 C640 1.379 . S
C645 N643 1.356 . S
N646 C638 1.356 . S
N646 H652 0.984 . S
N646 H653 0.984 . S
N647 C640 1.356 . S
N647 H650 0.984 . S
N647 H651 0.985 . S
H648 N643 0.984 . S
H649 N643 0.985 . S
H650 N647 0.984 . S
H651 N647 0.985 . S
H652 N646 0.984 . S
H653 N646 0.984 . S
H654 N642 0.984 . S
H655 N642 0.985 . S
C656 C657 1.363 . S
C656 C662 1.379 1_554 S
C656 N664 1.356 . S
C657 C656 1.363 . S
C657 C663 1.363 . S
C658 C659 1.363 . S
C658 C663 1.379 1_556 S
C658 N665 1.356 . S
C659 C658 1.363 . S
C659 C662 1.363 . S
N660 C662 1.356 . S
N660 H672 0.984 . S
N660 H673 0.985 . S
N661 C663 1.356 . S
N661 H666 0.984 . S
N661 H667 0.985 . S
C662 C656 1.379 1_556 S
C662 C659 1.363 . S
C662 N660 1.356 . S
C663 C657 1.363 . S
C663 C658 1.379 1_554 S
C663 N661 1.356 . S
N664 C656 1.356 . S
N664 H670 0.984 . S
N664 H671 0.984 . S
N665 C658 1.356 . S
N665 H668 0.984 . S
N665 H669 0.985 . S
H666 N661 0.984 . S
H667 N661 0.985 . S
H668 N665 0.984 . S
H669 N665 0.985 . S
H670 N664 0.984 . S
H671 N664 0.984 . S
H672 N660 0.984 . S
H673 N660 0.985 . S
C674 C675 1.363 . S
C674 C680 1.379 . S
C674 N682 1.356 . S
C675 C674 1.363 . S
C675 C681 1.363 . S
C676 C677 1.363 . S
C676 C681 1.379 . S
C676 N683 1.356 . S
C677 C676 1.363 . S
C677 C680 1.363 . S
N678 C680 1.356 . S
N678 H690 0.984 . S
N678 H691 0.985 . S
N679 C681 1.356 . S
N679 H684 0.984 . S
N679 H685 0.985 . S
C680 C674 1.379 . S
C680 C677 1.363 . S
C680 N678 1.356 . S
C681 C675 1.363 . S
C681 C676 1.379 . S
C681 N679 1.356 . S
N682 C674 1.356 . S
N682 H688 0.984 . S
N682 H689 0.984 . S
N683 C676 1.356 . S
N683 H686 0.984 . S
N683 H687 0.985 . S
H684 N679 0.984 . S
H685 N679 0.985 . S
H686 N683 0.984 . S
H687 N683 0.985 . S
H688 N682 0.984 . S
H689 N682 0.984 . S
H690 N678 0.984 . S
H691 N678 0.985 . S
C692 C693 1.363 . S
C692 C698 1.379 1_554 S
C692 N700 1.356 . S
C693 C692 1.363 . S
C693 C699 1.363 . S
C694 C695 1.363 . S
C694 C699 1.379 1_556 S
C694 N701 1.354 1_655 S
C695 C694 1.363 . S
C695 C698 1.363 . S
N696 C698 1.356 . S
N696 H708 0.984 . S
N696 H709 0.985 . S
N697 C699 1.353 1_455 S
N697 H702 0.983 1_455 S
N697 H703 0.989 . S
C698 C692 1.379 1_556 S
C698 C695 1.363 . S
C698 N696 1.356 . S
C699 C693 1.363 . S
C699 C694 1.379 1_554 S
C699 N697 1.353 1_655 S
N700 C692 1.356 . S
N700 H706 0.984 . S
N700 H707 0.984 . S
N701 C694 1.354 1_455 S
N701 H704 0.983 1_455 S
N701 H705 0.989 . S
H702 N697 0.983 1_655 S
H703 N697 0.989 . S
H704 N701 0.983 1_655 S
H705 N701 0.989 . S
H706 N700 0.984 . S
H707 N700 0.984 . S
H708 N696 0.984 . S
H709 N696 0.985 . S
C710 C711 1.363 . S
C710 C716 1.379 . S
C710 N718 1.356 . S
C711 C710 1.363 . S
C711 C717 1.363 . S
C712 C713 1.363 . S
C712 C717 1.379 . S
C712 N719 1.356 1_565 S
C713 C712 1.363 . S
C713 C716 1.363 . S
N714 C716 1.356 . S
N714 H726 0.984 . S
N714 H727 0.985 . S
N715 C717 1.356 1_545 S
N715 H720 0.984 . S
N715 H721 0.985 . S
C716 C710 1.379 . S
C716 C713 1.363 . S
C716 N714 1.356 . S
C717 C711 1.363 . S
C717 C712 1.379 . S
C717 N715 1.356 1_565 S
N718 C710 1.356 . S
N718 H724 0.984 . S
N718 H725 0.984 . S
N719 C712 1.356 1_545 S
N719 H722 0.984 . S
N719 H723 0.985 . S
H720 N715 0.984 . S
H721 N715 0.985 . S
H722 N719 0.984 . S
H723 N719 0.985 . S
H724 N718 0.984 . S
H725 N718 0.984 . S
H726 N714 0.984 . S
H727 N714 0.985 . S
C728 C729 1.363 . S
C728 C734 1.379 1_556 S
C728 N736 1.356 . S
C729 C728 1.363 . S
C729 C735 1.363 . S
C730 C731 1.363 . S
C730 C735 1.379 1_554 S
C730 N737 1.356 . S
C731 C730 1.363 . S
C731 C734 1.363 . S
N732 C734 1.356 . S
N732 H744 0.984 . S
N732 H745 0.985 . S
N733 C735 1.356 . S
N733 H738 0.984 . S
N733 H739 0.985 . S
C734 C728 1.379 1_554 S
C734 C731 1.363 . S
C734 N732 1.356 . S
C735 C729 1.363 . S
C735 C730 1.379 1_556 S
C735 N733 1.356 . S
N736 C728 1.356 . S
N736 H742 0.984 . S
N736 H743 0.984 . S
N737 C730 1.356 . S
N737 H740 0.984 . S
N737 H741 0.985 . S
H738 N733 0.984 . S
H739 N733 0.985 . S
H740 N737 0.984 . S
H741 N737 0.985 . S
H742 N736 0.984 . S
H743 N736 0.984 . S
H744 N732 0.984 . S
H745 N732 0.985 . S
C746 C747 1.363 . S
C746 C752 1.379 . S
C746 N754 1.356 . S
C747 C746 1.363 . S
C747 C753 1.363 . S
C748 C749 1.363 . S
C748 C753 1.379 . S
C748 N755 1.356 . S
C749 C748 1.363 . S
C749 C752 1.363 . S
N750 C752 1.356 . S
N750 H762 0.984 . S
N750 H763 0.985 . S
N751 C753 1.356 . S
N751 H756 0.984 . S
N751 H757 0.985 . S
C752 C746 1.379 . S
C752 C749 1.363 . S
C752 N750 1.356 . S
C753 C747 1.363 . S
C753 C748 1.379 . S
C753 N751 1.356 . S
N754 C746 1.356 . S
N754 H760 0.984 . S
N754 H761 0.984 . S
N755 C748 1.356 . S
N755 H758 0.984 . S
N755 H759 0.985 . S
H756 N751 0.984 . S
H757 N751 0.985 . S
H758 N755 0.984 . S
H759 N755 0.985 . S
H760 N754 0.984 . S
H761 N754 0.984 . S
H762 N750 0.984 . S
H763 N750 0.985 . S
C764 C765 1.363 . S
C764 C770 1.379 1_554 S
C764 N772 1.347 1_455 S
C765 C764 1.363 . S
C765 C771 1.363 . S
C766 C767 1.363 . S
C766 C771 1.379 1_556 S
C766 N773 1.356 . S
C767 C766 1.363 . S
C767 C770 1.363 . S
N768 C770 1.347 1_655 S
N768 H780 0.998 . S
N768 H781 0.981 1_655 S
N769 C771 1.356 . S
N769 H774 0.984 . S
N769 H775 0.985 . S
C770 C764 1.379 1_556 S
C770 C767 1.363 . S
C770 N768 1.347 1_455 S
C771 C765 1.363 . S
C771 C766 1.379 1_554 S
C771 N769 1.356 . S
N772 C764 1.347 1_655 S
N772 H778 0.998 . S
N772 H779 0.981 1_655 S
N773 C766 1.356 . S
N773 H776 0.984 . S
N773 H777 0.985 . S
H774 N769 0.984 . S
H775 N769 0.985 . S
H776 N773 0.984 . S
H777 N773 0.985 . S
H778 N772 0.998 . S
H779 N772 0.981 1_455 S
H780 N768 0.998 . S
H781 N768 0.981 1_455 S
C782 C783 1.363 . S
C782 C788 1.379 . S
C782 N790 1.356 1_545 S
C783 C782 1.363 . S
C783 C789 1.363 . S
C784 C785 1.363 . S
C784 C789 1.379 . S
C784 N791 1.356 . S
C785 C784 1.363 . S
C785 C788 1.363 . S
N786 C788 1.356 1_565 S
N786 H798 0.984 . S
N786 H799 0.985 . S
N787 C789 1.356 . S
N787 H792 0.984 . S
N787 H793 0.985 . S
C788 C782 1.379 . S
C788 C785 1.363 . S
C788 N786 1.356 1_545 S
C789 C783 1.363 . S
C789 C784 1.379 . S
C789 N787 1.356 . S
N790 C782 1.356 1_565 S
N790 H796 0.984 . S
N790 H797 0.984 . S
N791 C784 1.356 . S
N791 H794 0.984 . S
N791 H795 0.985 . S
H792 N787 0.984 . S
H793 N787 0.985 . S
H794 N791 0.984 . S
H795 N791 0.985 . S
H796 N790 0.984 . S
H797 N790 0.984 . S
H798 N786 0.984 . S
H799 N786 0.985 . S
C225 C7 1.428 . S
C227 C104 1.428 . S
C243 C20 1.428 . S
C245 C63 1.428 . S
C261 C35 1.428 . S
C263 C76 1.428 . S
C279 C48 1.427 . S
C281 C91 1.427 . S
C297 C118 1.428 . S
C299 C216 1.428 . S
C315 C174 1.428 . S
C317 C132 1.428 . S
C333 C146 1.428 . S
C335 C188 1.428 . S
C351 C160 1.427 . S
C353 C202 1.427 . S
C369 C8 1.543 . S
C371 C134 1.579 . S
C387 C23 1.543 . S
C389 C148 1.579 . S
C405 C162 1.579 . S
C407 C36 1.543 . S
C423 C51 1.543 . S
C425 C120 1.579 . S
C441 C64 1.543 . S
C443 C218 1.579 . S
C459 C176 1.579 . S
C461 C79 1.543 . S
C477 C190 1.579 . S
C479 C92 1.543 . S
C495 C204 1.579 . S
C497 C107 1.543 . S
C513 C22 1.579 . S
C515 C121 1.543 . S
C531 C37 1.579 . S
C533 C135 1.543 . S
C549 C149 1.543 . S
C551 C50 1.579 . S
C567 C9 1.579 . S
C569 C163 1.543 . S
C585 C177 1.543 . S
C587 C106 1.579 . S
C603 C191 1.543 . S
C605 C65 1.579 . S
C621 C78 1.579 . S
C623 C205 1.543 . S
C639 C93 1.579 . S
C641 C219 1.543 . S
C657 C6 1.537 . S
C659 C62 1.537 . S
C675 C77 1.537 . S
C677 C21 1.537 . S
C693 C34 1.537 . S
C695 C90 1.537 . S
C711 C105 1.537 . S
C713 C49 1.537 . S
C729 C119 1.537 . S
C731 C175 1.537 . S
C747 C189 1.537 . S
C749 C133 1.537 . S
C765 C203 1.537 . S
C767 C147 1.537 . S
C783 C217 1.537 . S
C785 C161 1.537 . S
