# Generated by pormake.
# Topology mdf, (4)-cn, num edge types: 1
# Building blocks:
#     Node 0, Type 0, BuildingBlock: QUQFOY_clean_sbu_3, # of connection points: 4
#     Node 1, Type 0, BuildingBlock: QUQFOY_clean_sbu_3, # of connection points: 4
#     Node 2, Type 0, BuildingBlock: QUQFOY_clean_sbu_3, # of connection points: 4
#     Node 3, Type 0, BuildingBlock: QUQFOY_clean_sbu_3, # of connection points: 4
#     Node 4, Type 0, BuildingBlock: QUQFOY_clean_sbu_3, # of connection points: 4
#     Node 5, Type 0, BuildingBlock: QUQFOY_clean_sbu_3, # of connection points: 4
#     Node 6, Type 0, BuildingBlock: QUQFOY_clean_sbu_3, # of connection points: 4
#     Node 7, Type 0, BuildingBlock: QUQFOY_clean_sbu_3, # of connection points: 4
#     Edge 8, Type (0, 0), BuildingBlock: FUNLAD_clean_linker_1, # of connection points: 2
#     Edge 9, Type (0, 0), BuildingBlock: FUNLAD_clean_linker_1, # of connection points: 2
#     Edge 10, Type (0, 0), BuildingBlock: FUNLAD_clean_linker_1, # of connection points: 2
#     Edge 11, Type (0, 0), BuildingBlock: FUNLAD_clean_linker_1, # of connection points: 2
#     Edge 12, Type (0, 0), BuildingBlock: FUNLAD_clean_linker_1, # of connection points: 2
#     Edge 13, Type (0, 0), BuildingBlock: FUNLAD_clean_linker_1, # of connection points: 2
#     Edge 14, Type (0, 0), BuildingBlock: FUNLAD_clean_linker_1, # of connection points: 2
#     Edge 15, Type (0, 0), BuildingBlock: FUNLAD_clean_linker_1, # of connection points: 2
#     Edge 16, Type (0, 0), BuildingBlock: FUNLAD_clean_linker_1, # of connection points: 2
#     Edge 17, Type (0, 0), BuildingBlock: FUNLAD_clean_linker_1, # of connection points: 2
#     Edge 18, Type (0, 0), BuildingBlock: FUNLAD_clean_linker_1, # of connection points: 2
#     Edge 19, Type (0, 0), BuildingBlock: FUNLAD_clean_linker_1, # of connection points: 2
#     Edge 20, Type (0, 0), BuildingBlock: FUNLAD_clean_linker_1, # of connection points: 2
#     Edge 21, Type (0, 0), BuildingBlock: FUNLAD_clean_linker_1, # of connection points: 2
#     Edge 22, Type (0, 0), BuildingBlock: FUNLAD_clean_linker_1, # of connection points: 2
#     Edge 23, Type (0, 0), BuildingBlock: FUNLAD_clean_linker_1, # of connection points: 2
# Relax obj value: 0.015
# Max RMSD: 0.038
# Mean RMSD: 0.038
data_MOF--net-mdf--node1-QUQFOY_clean_sbu_3--edge1-FUNLAD_clean_linker_1
_symmetry_space_group_name_H-M    P1
_symmetry_Int_Tables_number       1
_symmetry_cell_setting            triclinic
loop_
_symmetry_equiv_pos_as_xyz
'x, y, z'
_cell_length_a     40.663439
_cell_length_b     40.747976
_cell_length_c     12.447001
_cell_angle_alpha  90.033607
_cell_angle_beta   89.876257
_cell_angle_gamma 92.294252
loop_
_atom_site_label
_atom_site_type_symbol
_atom_site_fract_x
_atom_site_fract_y
_atom_site_fract_z
_atom_type_partial_charge
C0 C 0.25664 0.54371 0.07947 0.0
O1 O 0.24268 0.51903 0.03422 0.0
Cd2 Cd 0.21079 0.48026 0.14012 0.0
O3 O 0.25341 0.54847 0.17991 0.0
Cd4 Cd 0.2254 0.52543 0.3387 0.0
C5 C 0.27056 0.45852 0.31976 0.0
O6 O 0.17415 0.51123 0.24846 0.0
O7 O 0.18096 0.48783 0.4021 0.0
O8 O 0.21508 0.58246 0.37255 0.0
C9 C 0.16193 0.49446 0.32522 0.0
O10 O 0.25076 0.45003 0.24472 0.0
C11 C 0.21905 0.58127 0.47328 0.0
O12 O 0.26901 0.48641 0.36549 0.0
O13 O 0.22776 0.55418 0.51279 0.0
C14 C 0.4443 0.70572 0.84416 0.0
O15 O 0.46863 0.71681 0.89853 0.0
Cd16 Cd 0.51494 0.7441 0.81214 0.0
O17 O 0.44323 0.70981 0.74296 0.0
Cd18 Cd 0.4734 0.736 0.59382 0.0
C19 C 0.53395 0.68364 0.62876 0.0
O20 O 0.49412 0.78381 0.69195 0.0
O21 O 0.518 0.77439 0.54044 0.0
O22 O 0.41997 0.75545 0.55047 0.0
C23 C 0.51465 0.79318 0.62046 0.0
O24 O 0.54189 0.70156 0.70922 0.0
C25 C 0.42163 0.75045 0.45011 0.0
O26 O 0.50805 0.68852 0.57431 0.0
O27 O 0.44741 0.7374 0.41482 0.0
C28 C 0.22156 0.94683 0.74382 0.0
O29 O 0.2359 0.96738 0.6811 0.0
Cd30 Cd 0.26456 0.01414 0.75798 0.0
O31 O 0.22622 0.94802 0.84458 0.0
Cd32 Cd 0.26074 0.97616 0.97966 0.0
C33 C 0.20643 0.03473 0.94929 0.0
O34 O 0.30693 0.99371 0.86923 0.0
O35 O 0.301 0.02132 0.01605 0.0
O36 O 0.28145 0.92309 0.01933 0.0
C37 C 0.31832 0.01524 0.93395 0.0
O38 O 0.22178 0.04144 0.86201 0.0
C39 C 0.27595 0.92389 0.11961 0.0
O40 O 0.21431 0.01077 0.00811 0.0
O41 O 0.26266 0.94928 0.15675 0.0
C42 C 0.06504 0.78495 0.34376 0.0
O43 O 0.04336 0.77361 0.4088 0.0
Cd44 Cd -0.0015 0.73877 0.34734 0.0
O45 O 0.06484 0.77649 0.24564 0.0
Cd46 Cd 0.0355 0.74066 0.11747 0.0
C47 C 0.9714 0.7898 0.14496 0.0
O48 O 0.01939 0.69596 0.23861 0.0
O49 O 0.99356 0.6978 0.08687 0.0
O50 O 0.09088 0.72383 0.08871 0.0
C51 C -0.00137 0.68284 0.17423 0.0
O52 O 0.96789 0.77577 0.23582 0.0
C53 C 0.08979 0.7231 0.98716 0.0
O54 O 0.99543 0.78358 0.08272 0.0
O55 O 0.06326 0.73172 0.94278 0.0
C56 C 0.7888 0.04368 0.71928 0.0
O57 O 0.77591 0.02627 0.64472 0.0
Cd58 Cd 0.74274 0.97819 0.68703 0.0
O59 O 0.78131 0.03843 0.81696 0.0
Cd60 Cd 0.74329 0.00447 0.92629 0.0
C61 C 0.79491 0.94421 0.87283 0.0
O62 O 0.69861 0.99352 0.80078 0.0
O63 O 0.70155 0.96019 0.93582 0.0
O64 O 0.72038 0.05522 0.97971 0.0
C65 C 0.68569 0.97006 0.85507 0.0
O66 O 0.78105 0.94361 0.78119 0.0
C67 C 0.72261 0.05103 0.08027 0.0
O68 O 0.78735 0.96513 0.94429 0.0
O69 O 0.73604 0.02506 0.11212 0.0
C70 C 0.94693 0.20878 0.34731 0.0
O71 O 0.96916 0.22338 0.40304 0.0
Cd72 Cd 0.00887 0.26067 0.32027 0.0
O73 O 0.94403 0.21467 0.24768 0.0
Cd74 Cd 0.967 0.24913 0.10312 0.0
C75 C 0.03683 0.20884 0.12117 0.0
O76 O 0.97986 0.29778 0.21115 0.0
O77 O 0.00343 0.2953 0.05577 0.0
O78 O 0.90896 0.25484 0.06836 0.0
C79 C -0.0021 0.31164 0.13994 0.0
O80 O 0.04202 0.22634 0.20473 0.0
C81 C 0.91175 0.25709 0.96729 0.0
O82 O 0.00973 0.20951 0.06978 0.0
O83 O 0.94025 0.25398 0.9272 0.0
C84 C 0.72696 0.43911 0.12025 0.0
O85 O 0.73314 0.46656 0.07484 0.0
Cd86 Cd 0.75508 0.51263 0.17544 0.0
O87 O 0.73408 0.43476 0.21831 0.0
Cd88 Cd 0.76048 0.46345 0.36982 0.0
C89 C 0.69699 0.51343 0.37873 0.0
O90 O 0.80184 0.496 0.27444 0.0
O91 O 0.79087 0.51251 0.43562 0.0
O92 O 0.79756 0.41961 0.39234 0.0
C93 C 0.8091 0.51477 0.35289 0.0
O94 O 0.71049 0.52714 0.29685 0.0
C95 C 0.78751 0.41077 0.48455 0.0
O96 O 0.7086 0.48779 0.42016 0.0
O97 O 0.76428 0.42652 0.52621 0.0
C98 C 0.55273 0.29304 0.74078 0.0
O99 O 0.52933 0.2881 0.80726 0.0
Cd100 Cd 0.47845 0.26075 0.75561 0.0
O101 O 0.55075 0.28194 0.64557 0.0
Cd102 Cd 0.51384 0.24784 0.53212 0.0
C103 C 0.45951 0.30807 0.53514 0.0
O104 O 0.49142 0.21069 0.66885 0.0
O105 O 0.46466 0.21164 0.51894 0.0
O106 O 0.56289 0.21812 0.49822 0.0
C107 C 0.46845 0.19868 0.61038 0.0
O108 O 0.4526 0.29783 0.6296 0.0
C109 C 0.56075 0.21796 0.39664 0.0
O110 O 0.48297 0.2962 0.48131 0.0
O111 O 0.53657 0.23231 0.35551 0.0
H112 H 0.41991 0.68157 0.98339 0.0
C113 C 0.41752 0.68689 0.89823 0.0
H114 H 0.38787 0.68085 0.75932 0.0
H115 H 0.34108 0.55506 0.07043 0.0
H116 H 0.39522 0.53489 0.03429 0.0
H117 H 0.4361 0.56814 0.93029 0.0
H118 H 0.42322 0.62199 0.86385 0.0
C119 C 0.39118 0.675 0.84369 0.0
C120 C 0.36565 0.65369 0.89656 0.0
C121 C 0.37322 0.62164 0.93034 0.0
C122 C 0.3492 0.60189 0.98574 0.0
C123 C 0.35795 0.5707 0.02437 0.0
C124 C 0.38905 0.55885 0.00469 0.0
C125 C 0.41209 0.5776 0.9465 0.0
C126 C 0.40441 0.60861 0.90945 0.0
H127 H 0.2838 0.55984 0.93371 0.0
C128 C 0.27813 0.56624 0.01634 0.0
H129 H 0.28622 0.60055 0.14237 0.0
H130 H 0.34316 0.71367 0.839 0.0
H131 H 0.2881 0.73289 0.86808 0.0
H132 H 0.24556 0.69757 0.95713 0.0
H133 H 0.25799 0.64292 0.01916 0.0
C134 C 0.29228 0.59326 0.06092 0.0
C135 C 0.31724 0.61368 0.00223 0.0
C136 C 0.30938 0.64531 0.9657 0.0
C137 C 0.3337 0.66544 0.91294 0.0
C138 C 0.32547 0.69721 0.87867 0.0
C139 C 0.29398 0.70856 0.89494 0.0
C140 C 0.27004 0.68868 0.94522 0.0
C141 C 0.2775 0.65741 0.98047 0.0
H142 H 0.4024 0.7647 0.29174 0.0
C143 C 0.39676 0.7633 0.37706 0.0
H144 H 0.36503 0.77733 0.50188 0.0
H145 H 0.34396 0.91249 0.26927 0.0
H146 H 0.38144 0.92917 0.41096 0.0
H147 H 0.40585 0.88811 0.52884 0.0
H148 H 0.39326 0.83009 0.50387 0.0
C149 C 0.37016 0.77787 0.41612 0.0
C150 C 0.35257 0.80203 0.35084 0.0
C151 C 0.35895 0.836 0.36999 0.0
C152 C 0.34385 0.85972 0.30482 0.0
C153 C 0.35303 0.89336 0.31987 0.0
C154 C 0.37497 0.90334 0.40035 0.0
C155 C 0.38877 0.88024 0.46647 0.0
C156 C 0.38118 0.84696 0.45135 0.0
H157 H 0.28086 0.89864 0.27572 0.0
C158 C 0.2866 0.89742 0.19052 0.0
H159 H 0.31127 0.87231 0.06767 0.0
H160 H 0.33462 0.73889 0.29606 0.0
H161 H 0.29608 0.72175 0.15607 0.0
H162 H 0.26796 0.7628 0.04749 0.0
H163 H 0.27852 0.82112 0.0771 0.0
C164 C 0.30584 0.87383 0.15304 0.0
C165 C 0.32098 0.84935 0.2243 0.0
C166 C 0.31433 0.81531 0.20627 0.0
C167 C 0.33031 0.79162 0.26929 0.0
C168 C 0.32329 0.75784 0.24977 0.0
C169 C 0.30115 0.74769 0.16998 0.0
C170 C 0.28536 0.77079 0.10876 0.0
C171 C 0.29172 0.80422 0.12643 0.0
H172 H 0.11284 0.81151 0.32877 0.0
C173 C 0.09138 0.80781 0.38036 0.0
H174 H 0.0681 0.82149 0.52451 0.0
H175 H 0.20707 0.85862 0.73287 0.0
H176 H 0.18739 0.8134 0.84593 0.0
H177 H 0.13434 0.78412 0.80764 0.0
H178 H 0.10254 0.7977 0.651 0.0
C179 C 0.08931 0.82491 0.47184 0.0
C180 C 0.1172 0.84694 0.50639 0.0
C181 C 0.13521 0.83883 0.59915 0.0
C182 C 0.16435 0.85733 0.62585 0.0
C183 C 0.18354 0.84683 0.71336 0.0
C184 C 0.17275 0.82064 0.77802 0.0
C185 C 0.14314 0.8039 0.75579 0.0
C186 C 0.1249 0.81222 0.66608 0.0
H187 H 0.17762 0.91436 0.75559 0.0
C188 C 0.19767 0.92226 0.70243 0.0
H189 H 0.22028 0.91655 0.55146 0.0
H190 H 0.0859 0.87138 0.33032 0.0
H191 H 0.10403 0.91824 0.22273 0.0
H192 H 0.15431 0.95087 0.27018 0.0
H193 H 0.1866 0.9369 0.42545 0.0
C194 C 0.20014 0.90892 0.60452 0.0
C195 C 0.17384 0.88562 0.56477 0.0
C196 C 0.15578 0.89378 0.47189 0.0
C197 C 0.1272 0.87459 0.44324 0.0
C198 C 0.10857 0.88425 0.35331 0.0
C199 C 0.11849 0.91135 0.29145 0.0
C200 C 0.14674 0.92976 0.31832 0.0
C201 C 0.16511 0.92138 0.40781 0.0
H202 H 0.13924 0.70381 0.97291 0.0
C203 C 0.11742 0.70955 0.9273 0.0
H204 H 0.09219 0.70275 0.78091 0.0
H205 H 0.24407 0.65799 0.65758 0.0
H206 H 0.26019 0.71586 0.67255 0.0
H207 H 0.22106 0.75584 0.74018 0.0
H208 H 0.16554 0.73809 0.79178 0.0
C209 C 0.11473 0.69921 0.82543 0.0
C210 C 0.13859 0.67572 0.78231 0.0
C211 C 0.17105 0.68636 0.75339 0.0
C212 C 0.1935 0.66339 0.71337 0.0
C213 C 0.22582 0.67459 0.68575 0.0
C214 C 0.23544 0.70768 0.69469 0.0
C215 C 0.21344 0.73017 0.73288 0.0
C216 C 0.18164 0.71973 0.76223 0.0
H217 H 0.2013 0.63077 0.49852 0.0
C218 C 0.20948 0.60908 0.54008 0.0
H219 H 0.21117 0.58415 0.68816 0.0
H220 H 0.07889 0.64675 0.83768 0.0
H221 H 0.0628 0.5891 0.82162 0.0
H222 H 0.10145 0.54937 0.74994 0.0
H223 H 0.15643 0.56702 0.69457 0.0
C224 C 0.20478 0.60642 0.64641 0.0
C225 C 0.18336 0.62989 0.70182 0.0
C226 C 0.15126 0.61905 0.73413 0.0
C227 C 0.12883 0.64201 0.77406 0.0
C228 C 0.09689 0.6305 0.80568 0.0
C229 C 0.0873 0.59741 0.79706 0.0
C230 C 0.10906 0.57505 0.75682 0.0
C231 C 0.14063 0.58558 0.72539 0.0
H232 H 0.8268 0.08114 0.76221 0.0
C233 C 0.81357 0.06975 0.69512 0.0
H234 H 0.80821 0.06786 0.52655 0.0
H235 H 0.89372 0.20787 0.63948 0.0
H236 H 0.84524 0.22436 0.73823 0.0
H237 H 0.79672 0.18659 0.75633 0.0
H238 H 0.79656 0.1319 0.67955 0.0
C239 C 0.8206 0.07952 0.5947 0.0
C240 C 0.84795 0.10387 0.57412 0.0
C241 C 0.84682 0.13628 0.61566 0.0
C242 C 0.87403 0.15871 0.60028 0.0
C243 C 0.87309 0.19042 0.64614 0.0
C244 C 0.84557 0.2001 0.70306 0.0
C245 C 0.81829 0.17874 0.71384 0.0
C246 C 0.81869 0.14725 0.67032 0.0
H247 H 0.90564 0.17268 0.3427 0.0
C248 C 0.92406 0.18423 0.39532 0.0
H249 H 0.94271 0.1865 0.55419 0.0
H250 H 0.85882 0.04303 0.48907 0.0
H251 H 0.90735 0.02715 0.39161 0.0
H252 H 0.95387 0.06684 0.36126 0.0
H253 H 0.95206 0.12269 0.42874 0.0
C254 C 0.92523 0.175 0.49849 0.0
C255 C 0.90114 0.14944 0.53742 0.0
C256 C 0.90273 0.11685 0.49865 0.0
C257 C 0.87603 0.09402 0.51668 0.0
C258 C 0.87829 0.06155 0.47715 0.0
C259 C 0.90607 0.05205 0.42124 0.0
C260 C 0.93224 0.07439 0.40404 0.0
C261 C 0.93077 0.10642 0.4424 0.0
H262 H 0.85898 0.26143 0.93382 0.0
C263 C 0.8836 0.26702 0.90302 0.0
H264 H 0.91239 0.29504 0.79263 0.0
H265 H 0.79565 0.32068 0.47229 0.0
H266 H 0.8261 0.28137 0.3684 0.0
H267 H 0.8734 0.25403 0.44789 0.0
H268 H 0.88987 0.26526 0.63206 0.0
C269 C 0.88781 0.28846 0.82199 0.0
C270 C 0.85965 0.30551 0.77424 0.0
C271 C 0.85157 0.30011 0.66488 0.0
C272 C 0.82556 0.31717 0.61733 0.0
C273 C 0.81634 0.3095 0.5103 0.0
C274 C 0.83341 0.28683 0.45026 0.0
C275 C 0.85996 0.27138 0.49506 0.0
C276 C 0.86908 0.27793 0.60098 0.0
H277 H 0.82881 0.37944 0.51466 0.0
C278 C 0.80396 0.38444 0.54072 0.0
H279 H 0.765 0.37102 0.64602 0.0
H280 H 0.86941 0.32323 0.98604 0.0
H281 H 0.83782 0.36121 0.08893 0.0
H282 H 0.79273 0.39073 0.0051 0.0
H283 H 0.77931 0.38251 0.81739 0.0
C284 C 0.78983 0.36632 0.61943 0.0
C285 C 0.80949 0.34164 0.67653 0.0
C286 C 0.81621 0.34581 0.78739 0.0
C287 C 0.84164 0.32806 0.83627 0.0
C288 C 0.8494 0.33463 0.94541 0.0
C289 C 0.83169 0.35678 0.00543 0.0
C290 C 0.80639 0.37348 0.9582 0.0
C291 C 0.79891 0.36846 0.85022 0.0
H292 H 0.70136 0.39086 0.11088 0.0
C293 C 0.70804 0.41282 0.06477 0.0
H294 H 0.70048 0.439 0.92126 0.0
H295 H 0.63423 0.28495 0.87588 0.0
H296 H 0.69039 0.26684 0.87938 0.0
H297 H 0.73717 0.3068 0.90129 0.0
H298 H 0.72787 0.36496 0.92259 0.0
C299 C 0.69521 0.41664 0.96671 0.0
C300 C 0.66828 0.39367 0.93025 0.0
C301 C 0.67421 0.36001 0.91315 0.0
C302 C 0.64737 0.33724 0.89603 0.0
C303 C 0.65381 0.30348 0.88543 0.0
C304 C 0.68591 0.29273 0.88781 0.0
C305 C 0.71224 0.31519 0.90058 0.0
C306 C 0.70659 0.34846 0.9132 0.0
H307 H 0.60099 0.31756 0.70965 0.0
C308 C 0.58242 0.31256 0.77117 0.0
H309 H 0.56789 0.32158 0.93119 0.0
H310 H 0.64848 0.45688 0.9564 0.0
H311 H 0.59265 0.47517 0.94715 0.0
H312 H 0.54625 0.43589 0.911 0.0
H313 H 0.55547 0.37803 0.88473 0.0
C314 C 0.58666 0.32529 0.86961 0.0
C315 C 0.61484 0.34849 0.89177 0.0
C316 C 0.60902 0.38229 0.90535 0.0
C317 C 0.63578 0.40495 0.92463 0.0
C318 C 0.62918 0.43853 0.9403 0.0
C319 C 0.59719 0.44941 0.93528 0.0
C320 C 0.57107 0.42731 0.91501 0.0
C321 C 0.57674 0.39413 0.90014 0.0
H322 H 0.71243 0.07173 0.24137 0.0
C323 C 0.70802 0.07435 0.15579 0.0
H324 H 0.68301 0.09937 0.03417 0.0
H325 H 0.58872 0.13049 0.45364 0.0
H326 H 0.58093 0.07161 0.4744 0.0
H327 H 0.61201 0.03364 0.36245 0.0
H328 H 0.65133 0.05424 0.23085 0.0
C329 C 0.68717 0.09677 0.11994 0.0
C330 C 0.66912 0.11915 0.19172 0.0
C331 C 0.64549 0.10643 0.26674 0.0
C332 C 0.6267 0.1283 0.32874 0.0
C333 C 0.60358 0.11505 0.40406 0.0
C334 C 0.59874 0.08126 0.41661 0.0
C335 C 0.61629 0.0599 0.35378 0.0
C336 C 0.63917 0.07216 0.27908 0.0
H337 H 0.58035 0.19869 0.24399 0.0
C338 C 0.58445 0.2004 0.33011 0.0
H339 H 0.61325 0.18583 0.46157 0.0
H340 H 0.71248 0.15177 0.0564 0.0
H341 H 0.7187 0.21074 0.03187 0.0
H342 H 0.68508 0.24843 0.13654 0.0
H343 H 0.64504 0.22734 0.2666 0.0
C344 C 0.60966 0.18502 0.37509 0.0
C345 C 0.63043 0.16269 0.31232 0.0
C346 C 0.65387 0.17542 0.23732 0.0
C347 C 0.67327 0.15364 0.1771 0.0
C348 C 0.69674 0.16709 0.10332 0.0
C349 C 0.70071 0.20093 0.08881 0.0
C350 C 0.68178 0.22215 0.14776 0.0
C351 C 0.65875 0.2097 0.22173 0.0
H352 H 0.29102 0.40951 0.33202 0.0
C353 C 0.29559 0.43528 0.35187 0.0
H354 H 0.3292 0.47063 0.41714 0.0
H355 H 0.40723 0.37235 0.70272 0.0
H356 H 0.38713 0.41048 0.83447 0.0
H357 H 0.34903 0.45325 0.78234 0.0
H358 H 0.33116 0.45842 0.59792 0.0
C359 C 0.32429 0.4449 0.39773 0.0
C360 C 0.34926 0.42053 0.42722 0.0
C361 C 0.35911 0.41755 0.53584 0.0
C362 C 0.38033 0.39224 0.56642 0.0
C363 C 0.39043 0.39045 0.67519 0.0
C364 C 0.37922 0.41232 0.75176 0.0
C365 C 0.35782 0.43643 0.72239 0.0
C366 C 0.34778 0.43913 0.61596 0.0
H367 H 0.45118 0.34925 0.42367 0.0
C368 C 0.44039 0.33467 0.4888 0.0
H369 H 0.39968 0.32615 0.5912 0.0
H370 H 0.34313 0.42501 0.20852 0.0
H371 H 0.36105 0.38558 0.07686 0.0
H372 H 0.39033 0.33662 0.13324 0.0
H373 H 0.40305 0.32758 0.32036 0.0
C374 C 0.41013 0.3409 0.52585 0.0
C375 C 0.3909 0.36924 0.48905 0.0
C376 C 0.38152 0.37263 0.37983 0.0
C377 C 0.3621 0.39928 0.34833 0.0
C378 C 0.35586 0.40399 0.23759 0.0
C379 C 0.36627 0.38171 0.16106 0.0
C380 C 0.38294 0.35427 0.19273 0.0
C381 C 0.39043 0.34959 0.30066 0.0
H382 H 0.63807 0.96717 0.77114 0.0
C383 C 0.65491 0.95349 0.81993 0.0
H384 H 0.66534 0.90813 0.89034 0.0
H385 H 0.52722 0.83875 0.91612 0.0
H386 H 0.542 0.84419 0.10343 0.0
H387 H 0.59054 0.87827 0.15865 0.0
H388 H 0.62495 0.90653 0.02624 0.0
C389 C 0.64832 0.92169 0.84176 0.0
C390 C 0.6172 0.90443 0.80732 0.0
C391 C 0.59654 0.88916 0.88625 0.0
C392 C 0.56792 0.87047 0.85467 0.0
C393 C 0.54881 0.85396 0.935 0.0
C394 C 0.55704 0.85681 0.04326 0.0
C395 C 0.58439 0.87593 0.07433 0.0
C396 C 0.60401 0.89193 0.99722 0.0
H397 H 0.56238 0.81949 0.60066 0.0
C398 C 0.53863 0.82025 0.64067 0.0
H399 H 0.50873 0.84504 0.74959 0.0
H400 H 0.65333 0.92638 0.63158 0.0
H401 H 0.63492 0.92673 0.44691 0.0
H402 H 0.58028 0.90294 0.39724 0.0
H403 H 0.54448 0.87733 0.53224 0.0
C404 C 0.53257 0.84446 0.71026 0.0
C405 C 0.55936 0.86817 0.74439 0.0
C406 C 0.57834 0.88602 0.66667 0.0
C407 C 0.60833 0.90248 0.69704 0.0
C408 C 0.62903 0.91594 0.61507 0.0
C409 C 0.61895 0.91593 0.50816 0.0
C410 C 0.5883 0.90237 0.48009 0.0
C411 C 0.56815 0.8875 0.55808 0.0
H412 H 0.08794 0.19385 0.11418 0.0
C413 C 0.06312 0.18743 0.08677 0.0
H414 H 0.03277 0.15217 0.00609 0.0
H415 H 0.14877 0.08854 0.74892 0.0
H416 H 0.11352 0.10657 0.60583 0.0
H417 H 0.06522 0.13929 0.64541 0.0
H418 H 0.05159 0.15372 0.82866 0.0
C419 C 0.05744 0.15914 0.03338 0.0
C420 C 0.08498 0.13702 0.01022 0.0
C421 C 0.09292 0.12927 0.90249 0.0
C422 C 0.12133 0.11117 0.87955 0.0
C423 C 0.12804 0.10292 0.77122 0.0
C424 C 0.10791 0.11301 0.68809 0.0
C425 C 0.0807 0.13139 0.71037 0.0
C426 C 0.07316 0.1395 0.81608 0.0
H427 H 0.16089 0.0432 0.03958 0.0
C428 C 0.17792 0.05382 0.98049 0.0
H429 H 0.18937 0.09392 0.87848 0.0
H430 H 0.07191 0.13914 0.22645 0.0
H431 H 0.1087 0.12437 0.37014 0.0
H432 H 0.1629 0.10213 0.32944 0.0
H433 H 0.17981 0.09311 0.14557 0.0
C434 C 0.17248 0.08348 0.93828 0.0
C435 C 0.14235 0.10171 0.96421 0.0
C436 C 0.13438 0.10961 0.07214 0.0
C437 C 0.10467 0.12546 0.0953 0.0
C438 C 0.09536 0.12948 0.20417 0.0
C439 C 0.11609 0.12079 0.28746 0.0
C440 C 0.14647 0.10807 0.26457 0.0
C441 C 0.15569 0.1026 0.15841 0.0
H442 H 0.9887 0.63606 0.25944 0.0
C443 C 0.97825 0.65396 0.20604 0.0
H444 H 0.93645 0.66897 0.12274 0.0
H445 H 0.85591 0.53731 0.07272 0.0
H446 H 0.8664 0.55313 0.88832 0.0
H447 H 0.905 0.59943 0.84467 0.0
H448 H 0.93277 0.63058 0.98558 0.0
C449 C 0.94672 0.65059 0.17488 0.0
C450 C 0.92547 0.62128 0.20306 0.0
C451 C 0.91045 0.60247 0.11928 0.0
C452 C 0.88922 0.57498 0.14431 0.0
C453 C 0.87311 0.55778 0.05896 0.0
C454 C 0.87879 0.56668 0.95231 0.0
C455 C 0.90045 0.59278 0.92776 0.0
C456 C 0.91614 0.61055 0.00976 0.0
H457 H 0.83146 0.56383 0.38607 0.0
C458 C 0.83452 0.5411 0.34212 0.0
H459 H 0.86348 0.51448 0.23545 0.0
H460 H 0.94468 0.65542 0.38503 0.0
H461 H 0.93875 0.63654 0.56873 0.0
H462 H 0.91049 0.5833 0.60972 0.0
H463 H 0.88671 0.54945 0.4672 0.0
C464 C 0.8607 0.53754 0.27784 0.0
C465 C 0.88422 0.56545 0.253 0.0
C466 C 0.90073 0.5832 0.33646 0.0
C467 C 0.91978 0.61224 0.31196 0.0
C468 C 0.93227 0.6318 0.39799 0.0
C469 C 0.92869 0.62145 0.50416 0.0
C470 C 0.9126 0.5916 0.52729 0.0
C471 C 0.89875 0.57259 0.44475 0.0
H472 H 0.3665 0.02482 0.85793 0.0
C473 C 0.34696 0.03607 0.90288 0.0
H474 H 0.32707 0.08016 0.95651 0.0
H475 H 0.45336 0.17309 0.93171 0.0
H476 H 0.43954 0.17524 0.1207 0.0
H477 H 0.39629 0.138 0.19715 0.0
H478 H 0.36615 0.09883 0.08438 0.0
C479 C 0.34703 0.06882 0.91382 0.0
C480 C 0.3738 0.09048 0.86731 0.0
C481 C 0.3919 0.11253 0.93509 0.0
C482 C 0.41757 0.13327 0.89158 0.0
C483 C 0.43419 0.15614 0.96042 0.0
C484 C 0.42645 0.15773 0.06932 0.0
C485 C 0.40207 0.13681 0.11232 0.0
C486 C 0.3849 0.11446 0.04647 0.0
H487 H 0.42042 0.17196 0.61332 0.0
C488 C 0.44436 0.17407 0.65197 0.0
H489 H 0.47524 0.1566 0.77308 0.0
H490 H 0.33924 0.05723 0.70786 0.0
H491 H 0.35643 0.05091 0.52294 0.0
H492 H 0.40763 0.0785 0.45644 0.0
H493 H 0.44086 0.11388 0.57353 0.0
C494 C 0.45127 0.15438 0.73475 0.0
C495 C 0.42588 0.13104 0.78104 0.0
C496 C 0.40887 0.10771 0.71457 0.0
C497 C 0.38144 0.08906 0.75592 0.0
C498 C 0.36201 0.06968 0.68357 0.0
C499 C 0.37135 0.06618 0.5766 0.0
C500 C 0.40001 0.08189 0.53898 0.0
C501 C 0.41866 0.10243 0.60678 0.0
H502 H 0.82444 0.90212 0.83016 0.0
C503 C 0.82062 0.92042 0.89215 0.0
H504 H 0.83784 0.93992 0.03989 0.0
H505 H 0.89535 0.78813 -0.00143 0.0
H506 H 0.83824 0.76886 0.01033 0.0
H507 H 0.79366 0.80812 0.01819 0.0
H508 H 0.80589 0.86678 0.01167 0.0
C509 C 0.84002 0.92092 0.97929 0.0
C510 C 0.86692 0.89727 0.98918 0.0
C511 C 0.85936 0.86307 -0.00151 0.0
C512 C 0.88514 0.8405 0.0004 0.0
C513 C 0.87681 0.80641 0.00235 0.0
C514 C 0.84411 0.795 0.00818 0.0
C515 C 0.81902 0.81709 0.0121 0.0
C516 C 0.82639 0.85074 0.00743 0.0
H517 H 0.92766 0.81806 0.17521 0.0
C518 C 0.94657 0.81355 0.11558 0.0
H519 H 0.96429 0.82591 0.96034 0.0
H520 H 0.88999 0.96098 0.96775 0.0
H521 H 0.9472 0.98019 0.9617 0.0
H522 H 0.99189 0.94118 0.97434 0.0
H523 H 0.97964 0.88265 0.99202 0.0
C524 C 0.94536 0.82908 0.02075 0.0
C525 C 0.91851 0.85221 0.0003 0.0
C526 C 0.92607 0.88632 0.99032 0.0
C527 C 0.90026 0.90887 0.98452 0.0
C528 C 0.90856 0.9428 0.97361 0.0
C529 C 0.94132 0.95416 0.96994 0.0
C530 C 0.96648 0.9322 0.97701 0.0
C531 C 0.9591 0.89866 0.98722 0.0
H532 H 0.04068 0.34503 0.11743 0.0
C533 C 0.01806 0.34132 0.16334 0.0
H534 H 0.98784 0.35895 0.28643 0.0
H535 H 0.10707 0.43021 0.53014 0.0
H536 H 0.0791 0.39893 0.6712 0.0
H537 H 0.03084 0.3625 0.63037 0.0
H538 H 0.00983 0.35769 0.44908 0.0
C539 C 0.01038 0.36279 0.24043 0.0
C540 C 0.03442 0.38982 0.27029 0.0
C541 C 0.04645 0.39202 0.37698 0.0
C542 C 0.07487 0.41226 0.39997 0.0
C543 C 0.08605 0.4146 0.50758 0.0
C544 C 0.07017 0.39686 0.58948 0.0
C545 C 0.04298 0.37639 0.56651 0.0
C546 C 0.03119 0.37383 0.46173 0.0
H547 H 0.11009 0.49244 0.27517 0.0
C548 C 0.12904 0.47886 0.31496 0.0
H549 H 0.14289 0.43351 0.37749 0.0
H550 H 0.01042 0.40089 0.06923 0.0
H551 H 0.03938 0.42979 0.92399 0.0
H552 H 0.09464 0.45544 0.95355 0.0
H553 H 0.12025 0.45399 0.12834 0.0
C554 C 0.12362 0.44708 0.33928 0.0
C555 C 0.09182 0.42923 0.31567 0.0
C556 C 0.07896 0.42789 0.20946 0.0
C557 C 0.04891 0.4101 0.18915 0.0
C558 C 0.0344 0.41218 0.08618 0.0
C559 C 0.05061 0.42882 0.00264 0.0
C560 C 0.08159 0.44344 0.0195 0.0
C561 C 0.09581 0.44288 0.12122 0.0
H562 H 0.58162 0.6604 0.62617 0.0
C563 C 0.55639 0.65784 0.59763 0.0
H564 H 0.52191 0.62865 0.50983 0.0
H565 H 0.63049 0.56421 0.22141 0.0
H566 H 0.59384 0.58664 0.08947 0.0
H567 H 0.54699 0.61927 0.14576 0.0
H568 H 0.53622 0.62921 0.33412 0.0
C569 C 0.54707 0.6315 0.53851 0.0
C570 C 0.57176 0.60731 0.50511 0.0
C571 C 0.57776 0.60195 0.39442 0.0
C572 C 0.60532 0.58391 0.3619 0.0
C573 C 0.61044 0.57845 0.25071 0.0
C574 C 0.5895 0.59106 0.17402 0.0
C575 C 0.5631 0.60938 0.20572 0.0
C576 C 0.55721 0.6149 0.31439 0.0
H577 H 0.65153 0.51167 0.47703 0.0
C578 C 0.66697 0.52707 0.42459 0.0
H579 H 0.67407 0.57309 0.34936 0.0
H580 H 0.56088 0.60358 0.72177 0.0
H581 H 0.59781 0.58203 0.85528 0.0
H582 H 0.65001 0.558 0.80059 0.0
H583 H 0.66496 0.55423 0.61296 0.0
C584 C 0.65867 0.55797 0.40283 0.0
C585 C 0.62734 0.57205 0.43989 0.0
C586 C 0.62029 0.57588 0.55093 0.0
C587 C 0.59156 0.59213 0.58312 0.0
C588 C 0.58346 0.59325 0.69374 0.0
C589 C 0.60427 0.58074 0.77099 0.0
C590 C 0.63355 0.56705 0.74015 0.0
C591 C 0.64167 0.56472 0.63166 0.0
loop_
_geom_bond_atom_site_label_1
_geom_bond_atom_site_label_2
_geom_bond_distance
_geom_bond_site_symmetry_2
_ccdc_geom_bond_type
C0 O1 1.306 . S
C0 O3 1.160 . S
O1 C0 1.306 . S
O1 Cd2 2.228 . S
Cd2 O1 2.228 . S
Cd2 O6 2.273 . S
Cd2 O10 2.277 . S
O3 C0 1.160 . S
O3 Cd4 2.203 . S
Cd4 O3 2.203 . S
Cd4 O6 2.411 . S
Cd4 O7 2.333 . S
Cd4 O8 2.352 . S
Cd4 O12 2.277 . S
Cd4 O13 2.356 . S
C5 O10 1.209 . S
C5 O12 1.226 . S
O6 Cd2 2.273 . S
O6 Cd4 2.411 . S
O6 C9 1.320 . S
O7 Cd4 2.333 . S
O7 C9 1.214 . S
O8 Cd4 2.352 . S
O8 C11 1.258 . S
C9 O6 1.320 . S
C9 O7 1.214 . S
O10 Cd2 2.277 . S
O10 C5 1.209 . S
C11 O8 1.258 . S
C11 O13 1.282 . S
O12 Cd4 2.277 . S
O12 C5 1.226 . S
O13 Cd4 2.356 . S
O13 C11 1.282 . S
C14 O15 1.306 . S
C14 O17 1.160 . S
O15 C14 1.306 . S
O15 Cd16 2.228 . S
Cd16 O15 2.228 . S
Cd16 O20 2.273 . S
Cd16 O24 2.277 . S
O17 C14 1.160 . S
O17 Cd18 2.203 . S
Cd18 O17 2.203 . S
Cd18 O20 2.411 . S
Cd18 O21 2.333 . S
Cd18 O22 2.352 . S
Cd18 O26 2.277 . S
Cd18 O27 2.356 . S
C19 O24 1.209 . S
C19 O26 1.226 . S
O20 Cd16 2.273 . S
O20 Cd18 2.411 . S
O20 C23 1.320 . S
O21 Cd18 2.333 . S
O21 C23 1.214 . S
O22 Cd18 2.352 . S
O22 C25 1.258 . S
C23 O20 1.320 . S
C23 O21 1.214 . S
O24 Cd16 2.277 . S
O24 C19 1.209 . S
C25 O22 1.258 . S
C25 O27 1.282 . S
O26 Cd18 2.277 . S
O26 C19 1.226 . S
O27 Cd18 2.356 . S
O27 C25 1.282 . S
C28 O29 1.306 . S
C28 O31 1.160 . S
O29 C28 1.306 . S
O29 Cd30 2.228 1_565 S
Cd30 O29 2.228 1_545 S
Cd30 O34 2.273 . S
Cd30 O38 2.277 . S
O31 C28 1.160 . S
O31 Cd32 2.203 . S
Cd32 O31 2.203 . S
Cd32 O34 2.411 1_565 S
Cd32 O35 2.333 1_565 S
Cd32 O36 2.352 . S
Cd32 O40 2.277 1_566 S
Cd32 O41 2.356 1_556 S
C33 O38 1.209 . S
C33 O40 1.226 1_556 S
O34 Cd30 2.273 . S
O34 Cd32 2.411 1_545 S
O34 C37 1.320 . S
O35 Cd32 2.333 1_545 S
O35 C37 1.214 . S
O36 Cd32 2.352 . S
O36 C39 1.258 1_556 S
C37 O34 1.320 . S
C37 O35 1.214 . S
O38 Cd30 2.277 . S
O38 C33 1.209 . S
C39 O36 1.258 1_554 S
C39 O41 1.282 . S
O40 Cd32 2.277 1_544 S
O40 C33 1.226 1_554 S
O41 Cd32 2.356 1_554 S
O41 C39 1.282 . S
C42 O43 1.306 . S
C42 O45 1.160 . S
O43 C42 1.306 . S
O43 Cd44 2.228 1_455 S
Cd44 O43 2.228 1_655 S
Cd44 O48 2.273 . S
Cd44 O52 2.277 . S
O45 C42 1.160 . S
O45 Cd46 2.203 . S
Cd46 O45 2.203 . S
Cd46 O48 2.411 1_455 S
Cd46 O49 2.333 1_455 S
Cd46 O50 2.352 . S
Cd46 O54 2.277 1_454 S
Cd46 O55 2.356 1_554 S
C47 O52 1.209 . S
C47 O54 1.226 1_554 S
O48 Cd44 2.273 . S
O48 Cd46 2.411 1_655 S
O48 C51 1.320 . S
O49 Cd46 2.333 1_655 S
O49 C51 1.214 . S
O50 Cd46 2.352 . S
O50 C53 1.258 1_554 S
C51 O48 1.320 . S
C51 O49 1.214 . S
O52 Cd44 2.277 . S
O52 C47 1.209 . S
C53 O50 1.258 1_556 S
C53 O55 1.282 . S
O54 Cd46 2.277 1_656 S
O54 C47 1.226 1_556 S
O55 Cd46 2.356 1_556 S
O55 C53 1.282 . S
C56 O57 1.306 . S
C56 O59 1.160 . S
O57 C56 1.306 . S
O57 Cd58 2.228 1_545 S
Cd58 O57 2.228 1_565 S
Cd58 O62 2.273 . S
Cd58 O66 2.277 . S
O59 C56 1.160 . S
O59 Cd60 2.203 . S
Cd60 O59 2.203 . S
Cd60 O62 2.411 1_545 S
Cd60 O63 2.333 1_545 S
Cd60 O64 2.352 . S
Cd60 O68 2.277 1_546 S
Cd60 O69 2.356 1_556 S
C61 O66 1.209 . S
C61 O68 1.226 1_556 S
O62 Cd58 2.273 . S
O62 Cd60 2.411 1_565 S
O62 C65 1.320 . S
O63 Cd60 2.333 1_565 S
O63 C65 1.214 . S
O64 Cd60 2.352 . S
O64 C67 1.258 1_556 S
C65 O62 1.320 . S
C65 O63 1.214 . S
O66 Cd58 2.277 . S
O66 C61 1.209 . S
C67 O64 1.258 1_554 S
C67 O69 1.282 . S
O68 Cd60 2.277 1_564 S
O68 C61 1.226 1_554 S
O69 Cd60 2.356 1_554 S
O69 C67 1.282 . S
C70 O71 1.306 . S
C70 O73 1.160 . S
O71 C70 1.306 . S
O71 Cd72 2.228 1_655 S
Cd72 O71 2.228 1_455 S
Cd72 O76 2.273 . S
Cd72 O80 2.277 . S
O73 C70 1.160 . S
O73 Cd74 2.203 . S
Cd74 O73 2.203 . S
Cd74 O76 2.411 1_655 S
Cd74 O77 2.333 1_655 S
Cd74 O78 2.352 . S
Cd74 O82 2.277 1_654 S
Cd74 O83 2.356 1_554 S
C75 O80 1.209 . S
C75 O82 1.226 1_554 S
O76 Cd72 2.273 . S
O76 Cd74 2.411 1_455 S
O76 C79 1.320 . S
O77 Cd74 2.333 1_455 S
O77 C79 1.214 . S
O78 Cd74 2.352 . S
O78 C81 1.258 1_554 S
C79 O76 1.320 . S
C79 O77 1.214 . S
O80 Cd72 2.277 . S
O80 C75 1.209 . S
C81 O78 1.258 1_556 S
C81 O83 1.282 . S
O82 Cd74 2.277 1_456 S
O82 C75 1.226 1_556 S
O83 Cd74 2.356 1_556 S
O83 C81 1.282 . S
C84 O85 1.306 . S
C84 O87 1.160 . S
O85 C84 1.306 . S
O85 Cd86 2.228 . S
Cd86 O85 2.228 . S
Cd86 O90 2.273 . S
Cd86 O94 2.277 . S
O87 C84 1.160 . S
O87 Cd88 2.203 . S
Cd88 O87 2.203 . S
Cd88 O90 2.411 . S
Cd88 O91 2.333 . S
Cd88 O92 2.352 . S
Cd88 O96 2.277 . S
Cd88 O97 2.356 . S
C89 O94 1.209 . S
C89 O96 1.226 . S
O90 Cd86 2.273 . S
O90 Cd88 2.411 . S
O90 C93 1.320 . S
O91 Cd88 2.333 . S
O91 C93 1.214 . S
O92 Cd88 2.352 . S
O92 C95 1.258 . S
C93 O90 1.320 . S
C93 O91 1.214 . S
O94 Cd86 2.277 . S
O94 C89 1.209 . S
C95 O92 1.258 . S
C95 O97 1.282 . S
O96 Cd88 2.277 . S
O96 C89 1.226 . S
O97 Cd88 2.356 . S
O97 C95 1.282 . S
C98 O99 1.306 . S
C98 O101 1.160 . S
O99 C98 1.306 . S
O99 Cd100 2.228 . S
Cd100 O99 2.228 . S
Cd100 O104 2.273 . S
Cd100 O108 2.277 . S
O101 C98 1.160 . S
O101 Cd102 2.203 . S
Cd102 O101 2.203 . S
Cd102 O104 2.411 . S
Cd102 O105 2.333 . S
Cd102 O106 2.352 . S
Cd102 O110 2.277 . S
Cd102 O111 2.356 . S
C103 O108 1.209 . S
C103 O110 1.226 . S
O104 Cd100 2.273 . S
O104 Cd102 2.411 . S
O104 C107 1.320 . S
O105 Cd102 2.333 . S
O105 C107 1.214 . S
O106 Cd102 2.352 . S
O106 C109 1.258 . S
C107 O104 1.320 . S
C107 O105 1.214 . S
O108 Cd100 2.277 . S
O108 C103 1.209 . S
C109 O106 1.258 . S
C109 O111 1.282 . S
O110 Cd102 2.277 . S
O110 C103 1.226 . S
O111 Cd102 2.356 . S
O111 C109 1.282 . S
H112 C113 0.951 . S
C113 H112 0.951 . S
C113 C119 1.265 . S
H114 C119 0.950 . S
H115 C123 0.949 . S
H116 C124 0.950 . S
H117 C125 0.951 . S
H118 C126 0.951 . S
C119 C113 1.265 . S
C119 H114 0.950 . S
C119 C120 1.478 . S
C120 C119 1.478 . S
C120 C121 1.397 . S
C120 C137 1.394 . S
C121 C120 1.397 . S
C121 C122 1.438 1_556 S
C121 C126 1.429 . S
C122 C121 1.438 1_554 S
C122 C123 1.428 . S
C122 C135 1.394 . S
C123 H115 0.949 . S
C123 C122 1.428 . S
C123 C124 1.345 1_554 S
C124 H116 0.950 . S
C124 C123 1.345 1_556 S
C124 C125 1.424 . S
C125 H117 0.951 . S
C125 C124 1.424 . S
C125 C126 1.347 . S
C126 H118 0.951 . S
C126 C121 1.429 . S
C126 C125 1.347 . S
H127 C128 0.951 . S
C128 H127 0.951 . S
C128 C134 1.265 . S
H129 C134 0.950 . S
H130 C138 0.949 . S
H131 C139 0.950 . S
H132 C140 0.951 . S
H133 C141 0.951 . S
C134 C128 1.265 . S
C134 H129 0.950 . S
C134 C135 1.478 . S
C135 C122 1.394 . S
C135 C134 1.478 . S
C135 C136 1.397 . S
C136 C135 1.397 . S
C136 C137 1.438 1_554 S
C136 C141 1.429 . S
C137 C120 1.394 . S
C137 C136 1.438 1_556 S
C137 C138 1.428 . S
C138 H130 0.949 . S
C138 C137 1.428 . S
C138 C139 1.345 1_556 S
C139 H131 0.950 . S
C139 C138 1.345 1_554 S
C139 C140 1.424 . S
C140 H132 0.951 . S
C140 C139 1.424 . S
C140 C141 1.347 . S
C141 H133 0.951 . S
C141 C136 1.429 . S
C141 C140 1.347 . S
H142 C143 0.951 . S
C143 H142 0.951 . S
C143 C149 1.265 . S
H144 C149 0.950 . S
H145 C153 0.949 . S
H146 C154 0.950 . S
H147 C155 0.951 . S
H148 C156 0.951 . S
C149 C143 1.265 . S
C149 H144 0.950 . S
C149 C150 1.478 . S
C150 C149 1.478 . S
C150 C151 1.397 . S
C150 C167 1.394 . S
C151 C150 1.397 . S
C151 C152 1.438 . S
C151 C156 1.429 . S
C152 C151 1.438 . S
C152 C153 1.428 . S
C152 C165 1.394 . S
C153 H145 0.949 . S
C153 C152 1.428 . S
C153 C154 1.345 . S
C154 H146 0.950 . S
C154 C153 1.345 . S
C154 C155 1.424 . S
C155 H147 0.951 . S
C155 C154 1.424 . S
C155 C156 1.347 . S
C156 H148 0.951 . S
C156 C151 1.429 . S
C156 C155 1.347 . S
H157 C158 0.951 . S
C158 H157 0.951 . S
C158 C164 1.265 . S
H159 C164 0.950 . S
H160 C168 0.949 . S
H161 C169 0.950 . S
H162 C170 0.951 . S
H163 C171 0.951 1_556 S
C164 C158 1.265 . S
C164 H159 0.950 . S
C164 C165 1.478 . S
C165 C152 1.394 . S
C165 C164 1.478 . S
C165 C166 1.397 . S
C166 C165 1.397 . S
C166 C167 1.438 . S
C166 C171 1.429 . S
C167 C150 1.394 . S
C167 C166 1.438 . S
C167 C168 1.428 . S
C168 H160 0.949 . S
C168 C167 1.428 . S
C168 C169 1.345 . S
C169 H161 0.950 . S
C169 C168 1.345 . S
C169 C170 1.424 1_554 S
C170 H162 0.951 . S
C170 C169 1.424 1_556 S
C170 C171 1.347 1_556 S
C171 H163 0.951 1_554 S
C171 C166 1.429 . S
C171 C170 1.347 1_554 S
H172 C173 0.951 . S
C173 H172 0.951 . S
C173 C179 1.265 . S
H174 C179 0.950 . S
H175 C183 0.949 . S
H176 C184 0.950 . S
H177 C185 0.951 . S
H178 C186 0.951 . S
C179 C173 1.265 . S
C179 H174 0.950 . S
C179 C180 1.478 . S
C180 C179 1.478 . S
C180 C181 1.397 . S
C180 C197 1.394 . S
C181 C180 1.397 . S
C181 C182 1.438 . S
C181 C186 1.429 . S
C182 C181 1.438 . S
C182 C183 1.428 . S
C182 C195 1.394 . S
C183 H175 0.949 . S
C183 C182 1.428 . S
C183 C184 1.345 . S
C184 H176 0.950 . S
C184 C183 1.345 . S
C184 C185 1.424 . S
C185 H177 0.951 . S
C185 C184 1.424 . S
C185 C186 1.347 . S
C186 H178 0.951 . S
C186 C181 1.429 . S
C186 C185 1.347 . S
H187 C188 0.951 . S
C188 H187 0.951 . S
C188 C194 1.265 . S
H189 C194 0.950 . S
H190 C198 0.949 . S
H191 C199 0.950 . S
H192 C200 0.951 . S
H193 C201 0.951 . S
C194 C188 1.265 . S
C194 H189 0.950 . S
C194 C195 1.478 . S
C195 C182 1.394 . S
C195 C194 1.478 . S
C195 C196 1.397 . S
C196 C195 1.397 . S
C196 C197 1.438 . S
C196 C201 1.429 . S
C197 C180 1.394 . S
C197 C196 1.438 . S
C197 C198 1.428 . S
C198 H190 0.949 . S
C198 C197 1.428 . S
C198 C199 1.345 . S
C199 H191 0.950 . S
C199 C198 1.345 . S
C199 C200 1.424 . S
C200 H192 0.951 . S
C200 C199 1.424 . S
C200 C201 1.347 . S
C201 H193 0.951 . S
C201 C196 1.429 . S
C201 C200 1.347 . S
H202 C203 0.951 . S
C203 H202 0.951 . S
C203 C209 1.265 . S
H204 C209 0.950 . S
H205 C213 0.949 . S
H206 C214 0.950 . S
H207 C215 0.951 . S
H208 C216 0.951 . S
C209 C203 1.265 . S
C209 H204 0.950 . S
C209 C210 1.478 . S
C210 C209 1.478 . S
C210 C211 1.397 . S
C210 C227 1.394 . S
C211 C210 1.397 . S
C211 C212 1.438 . S
C211 C216 1.429 . S
C212 C211 1.438 . S
C212 C213 1.428 . S
C212 C225 1.394 . S
C213 H205 0.949 . S
C213 C212 1.428 . S
C213 C214 1.345 . S
C214 H206 0.950 . S
C214 C213 1.345 . S
C214 C215 1.424 . S
C215 H207 0.951 . S
C215 C214 1.424 . S
C215 C216 1.347 . S
C216 H208 0.951 . S
C216 C211 1.429 . S
C216 C215 1.347 . S
H217 C218 0.951 . S
C218 H217 0.951 . S
C218 C224 1.265 . S
H219 C224 0.950 . S
H220 C228 0.949 . S
H221 C229 0.950 . S
H222 C230 0.951 . S
H223 C231 0.951 . S
C224 C218 1.265 . S
C224 H219 0.950 . S
C224 C225 1.478 . S
C225 C212 1.394 . S
C225 C224 1.478 . S
C225 C226 1.397 . S
C226 C225 1.397 . S
C226 C227 1.438 . S
C226 C231 1.429 . S
C227 C210 1.394 . S
C227 C226 1.438 . S
C227 C228 1.428 . S
C228 H220 0.949 . S
C228 C227 1.428 . S
C228 C229 1.345 . S
C229 H221 0.950 . S
C229 C228 1.345 . S
C229 C230 1.424 . S
C230 H222 0.951 . S
C230 C229 1.424 . S
C230 C231 1.347 . S
C231 H223 0.951 . S
C231 C226 1.429 . S
C231 C230 1.347 . S
H232 C233 0.951 . S
C233 H232 0.951 . S
C233 C239 1.265 . S
H234 C239 0.950 . S
H235 C243 0.949 . S
H236 C244 0.950 . S
H237 C245 0.951 . S
H238 C246 0.951 . S
C239 C233 1.265 . S
C239 H234 0.950 . S
C239 C240 1.478 . S
C240 C239 1.478 . S
C240 C241 1.397 . S
C240 C257 1.394 . S
C241 C240 1.397 . S
C241 C242 1.438 . S
C241 C246 1.429 . S
C242 C241 1.438 . S
C242 C243 1.428 . S
C242 C255 1.394 . S
C243 H235 0.949 . S
C243 C242 1.428 . S
C243 C244 1.345 . S
C244 H236 0.950 . S
C244 C243 1.345 . S
C244 C245 1.424 . S
C245 H237 0.951 . S
C245 C244 1.424 . S
C245 C246 1.347 . S
C246 H238 0.951 . S
C246 C241 1.429 . S
C246 C245 1.347 . S
H247 C248 0.951 . S
C248 H247 0.951 . S
C248 C254 1.265 . S
H249 C254 0.950 . S
H250 C258 0.949 . S
H251 C259 0.950 . S
H252 C260 0.951 . S
H253 C261 0.951 . S
C254 C248 1.265 . S
C254 H249 0.950 . S
C254 C255 1.478 . S
C255 C242 1.394 . S
C255 C254 1.478 . S
C255 C256 1.397 . S
C256 C255 1.397 . S
C256 C257 1.438 . S
C256 C261 1.429 . S
C257 C240 1.394 . S
C257 C256 1.438 . S
C257 C258 1.428 . S
C258 H250 0.949 . S
C258 C257 1.428 . S
C258 C259 1.345 . S
C259 H251 0.950 . S
C259 C258 1.345 . S
C259 C260 1.424 . S
C260 H252 0.951 . S
C260 C259 1.424 . S
C260 C261 1.347 . S
C261 H253 0.951 . S
C261 C256 1.429 . S
C261 C260 1.347 . S
H262 C263 0.951 . S
C263 H262 0.951 . S
C263 C269 1.265 . S
H264 C269 0.950 . S
H265 C273 0.949 . S
H266 C274 0.950 . S
H267 C275 0.951 . S
H268 C276 0.951 . S
C269 C263 1.265 . S
C269 H264 0.950 . S
C269 C270 1.478 . S
C270 C269 1.478 . S
C270 C271 1.397 . S
C270 C287 1.394 . S
C271 C270 1.397 . S
C271 C272 1.438 . S
C271 C276 1.429 . S
C272 C271 1.438 . S
C272 C273 1.428 . S
C272 C285 1.394 . S
C273 H265 0.949 . S
C273 C272 1.428 . S
C273 C274 1.345 . S
C274 H266 0.950 . S
C274 C273 1.345 . S
C274 C275 1.424 . S
C275 H267 0.951 . S
C275 C274 1.424 . S
C275 C276 1.347 . S
C276 H268 0.951 . S
C276 C271 1.429 . S
C276 C275 1.347 . S
H277 C278 0.951 . S
C278 H277 0.951 . S
C278 C284 1.265 . S
H279 C284 0.950 . S
H280 C288 0.949 . S
H281 C289 0.950 . S
H282 C290 0.951 1_554 S
H283 C291 0.951 . S
C284 C278 1.265 . S
C284 H279 0.950 . S
C284 C285 1.478 . S
C285 C272 1.394 . S
C285 C284 1.478 . S
C285 C286 1.397 . S
C286 C285 1.397 . S
C286 C287 1.438 . S
C286 C291 1.429 . S
C287 C270 1.394 . S
C287 C286 1.438 . S
C287 C288 1.428 . S
C288 H280 0.949 . S
C288 C287 1.428 . S
C288 C289 1.345 1_556 S
C289 H281 0.950 . S
C289 C288 1.345 1_554 S
C289 C290 1.424 1_554 S
C290 H282 0.951 1_556 S
C290 C289 1.424 1_556 S
C290 C291 1.347 . S
C291 H283 0.951 . S
C291 C286 1.429 . S
C291 C290 1.347 . S
H292 C293 0.951 . S
C293 H292 0.951 . S
C293 C299 1.265 . S
H294 C299 0.950 . S
H295 C303 0.949 . S
H296 C304 0.950 . S
H297 C305 0.951 . S
H298 C306 0.951 . S
C299 C293 1.265 . S
C299 H294 0.950 . S
C299 C300 1.478 . S
C300 C299 1.478 . S
C300 C301 1.397 1_554 S
C300 C317 1.394 . S
C301 C300 1.397 1_556 S
C301 C302 1.438 . S
C301 C306 1.429 . S
C302 C301 1.438 . S
C302 C303 1.428 . S
C302 C315 1.394 . S
C303 H295 0.949 . S
C303 C302 1.428 . S
C303 C304 1.345 . S
C304 H296 0.950 . S
C304 C303 1.345 . S
C304 C305 1.424 . S
C305 H297 0.951 . S
C305 C304 1.424 . S
C305 C306 1.347 . S
C306 H298 0.951 . S
C306 C301 1.429 . S
C306 C305 1.347 . S
H307 C308 0.951 . S
C308 H307 0.951 . S
C308 C314 1.265 . S
H309 C314 0.950 . S
H310 C318 0.949 . S
H311 C319 0.950 . S
H312 C320 0.951 . S
H313 C321 0.951 . S
C314 C308 1.265 . S
C314 H309 0.950 . S
C314 C315 1.478 . S
C315 C302 1.394 . S
C315 C314 1.478 . S
C315 C316 1.397 1_556 S
C316 C315 1.397 1_554 S
C316 C317 1.438 . S
C316 C321 1.429 . S
C317 C300 1.394 . S
C317 C316 1.438 . S
C317 C318 1.428 . S
C318 H310 0.949 . S
C318 C317 1.428 . S
C318 C319 1.345 . S
C319 H311 0.950 . S
C319 C318 1.345 . S
C319 C320 1.424 . S
C320 H312 0.951 . S
C320 C319 1.424 . S
C320 C321 1.347 . S
C321 H313 0.951 . S
C321 C316 1.429 . S
C321 C320 1.347 . S
H322 C323 0.951 . S
C323 H322 0.951 . S
C323 C329 1.265 . S
H324 C329 0.950 . S
H325 C333 0.949 . S
H326 C334 0.950 . S
H327 C335 0.951 . S
H328 C336 0.951 . S
C329 C323 1.265 . S
C329 H324 0.950 . S
C329 C330 1.478 . S
C330 C329 1.478 . S
C330 C331 1.397 . S
C330 C347 1.394 . S
C331 C330 1.397 . S
C331 C332 1.438 . S
C331 C336 1.429 . S
C332 C331 1.438 . S
C332 C333 1.428 . S
C332 C345 1.394 . S
C333 H325 0.949 . S
C333 C332 1.428 . S
C333 C334 1.345 . S
C334 H326 0.950 . S
C334 C333 1.345 . S
C334 C335 1.424 . S
C335 H327 0.951 . S
C335 C334 1.424 . S
C335 C336 1.347 . S
C336 H328 0.951 . S
C336 C331 1.429 . S
C336 C335 1.347 . S
H337 C338 0.951 . S
C338 H337 0.951 . S
C338 C344 1.265 . S
H339 C344 0.950 . S
H340 C348 0.949 . S
H341 C349 0.950 . S
H342 C350 0.951 . S
H343 C351 0.951 . S
C344 C338 1.265 . S
C344 H339 0.950 . S
C344 C345 1.478 . S
C345 C332 1.394 . S
C345 C344 1.478 . S
C345 C346 1.397 . S
C346 C345 1.397 . S
C346 C347 1.438 . S
C346 C351 1.429 . S
C347 C330 1.394 . S
C347 C346 1.438 . S
C347 C348 1.428 . S
C348 H340 0.949 . S
C348 C347 1.428 . S
C348 C349 1.345 . S
C349 H341 0.950 . S
C349 C348 1.345 . S
C349 C350 1.424 . S
C350 H342 0.951 . S
C350 C349 1.424 . S
C350 C351 1.347 . S
C351 H343 0.951 . S
C351 C346 1.429 . S
C351 C350 1.347 . S
H352 C353 0.951 . S
C353 H352 0.951 . S
C353 C359 1.265 . S
H354 C359 0.950 . S
H355 C363 0.949 . S
H356 C364 0.950 . S
H357 C365 0.951 . S
H358 C366 0.951 . S
C359 C353 1.265 . S
C359 H354 0.950 . S
C359 C360 1.478 . S
C360 C359 1.478 . S
C360 C361 1.397 . S
C360 C377 1.394 . S
C361 C360 1.397 . S
C361 C362 1.438 . S
C361 C366 1.429 . S
C362 C361 1.438 . S
C362 C363 1.428 . S
C362 C375 1.394 . S
C363 H355 0.949 . S
C363 C362 1.428 . S
C363 C364 1.345 . S
C364 H356 0.950 . S
C364 C363 1.345 . S
C364 C365 1.424 . S
C365 H357 0.951 . S
C365 C364 1.424 . S
C365 C366 1.347 . S
C366 H358 0.951 . S
C366 C361 1.429 . S
C366 C365 1.347 . S
H367 C368 0.951 . S
C368 H367 0.951 . S
C368 C374 1.265 . S
H369 C374 0.950 . S
H370 C378 0.949 . S
H371 C379 0.950 . S
H372 C380 0.951 . S
H373 C381 0.951 . S
C374 C368 1.265 . S
C374 H369 0.950 . S
C374 C375 1.478 . S
C375 C362 1.394 . S
C375 C374 1.478 . S
C375 C376 1.397 . S
C376 C375 1.397 . S
C376 C377 1.438 . S
C376 C381 1.429 . S
C377 C360 1.394 . S
C377 C376 1.438 . S
C377 C378 1.428 . S
C378 H370 0.949 . S
C378 C377 1.428 . S
C378 C379 1.345 . S
C379 H371 0.950 . S
C379 C378 1.345 . S
C379 C380 1.424 . S
C380 H372 0.951 . S
C380 C379 1.424 . S
C380 C381 1.347 . S
C381 H373 0.951 . S
C381 C376 1.429 . S
C381 C380 1.347 . S
H382 C383 0.951 . S
C383 H382 0.951 . S
C383 C389 1.265 . S
H384 C389 0.950 . S
H385 C393 0.949 . S
H386 C394 0.950 1_554 S
H387 C395 0.951 1_554 S
H388 C396 0.951 . S
C389 C383 1.265 . S
C389 H384 0.950 . S
C389 C390 1.478 . S
C390 C389 1.478 . S
C390 C391 1.397 . S
C390 C407 1.394 . S
C391 C390 1.397 . S
C391 C392 1.438 . S
C391 C396 1.429 . S
C392 C391 1.438 . S
C392 C393 1.428 . S
C392 C405 1.394 . S
C393 H385 0.949 . S
C393 C392 1.428 . S
C393 C394 1.345 . S
C394 H386 0.950 1_556 S
C394 C393 1.345 . S
C394 C395 1.424 . S
C395 H387 0.951 1_556 S
C395 C394 1.424 . S
C395 C396 1.347 . S
C396 H388 0.951 . S
C396 C391 1.429 . S
C396 C395 1.347 . S
H397 C398 0.951 . S
C398 H397 0.951 . S
C398 C404 1.265 . S
H399 C404 0.950 . S
H400 C408 0.949 . S
H401 C409 0.950 . S
H402 C410 0.951 . S
H403 C411 0.951 . S
C404 C398 1.265 . S
C404 H399 0.950 . S
C404 C405 1.478 . S
C405 C392 1.394 . S
C405 C404 1.478 . S
C405 C406 1.397 . S
C406 C405 1.397 . S
C406 C407 1.438 . S
C406 C411 1.429 . S
C407 C390 1.394 . S
C407 C406 1.438 . S
C407 C408 1.428 . S
C408 H400 0.949 . S
C408 C407 1.428 . S
C408 C409 1.345 . S
C409 H401 0.950 . S
C409 C408 1.345 . S
C409 C410 1.424 . S
C410 H402 0.951 . S
C410 C409 1.424 . S
C410 C411 1.347 . S
C411 H403 0.951 . S
C411 C406 1.429 . S
C411 C410 1.347 . S
H412 C413 0.951 . S
C413 H412 0.951 . S
C413 C419 1.265 . S
H414 C419 0.950 . S
H415 C423 0.949 . S
H416 C424 0.950 . S
H417 C425 0.951 . S
H418 C426 0.951 . S
C419 C413 1.265 . S
C419 H414 0.950 . S
C419 C420 1.478 . S
C420 C419 1.478 . S
C420 C421 1.397 1_554 S
C420 C437 1.394 . S
C421 C420 1.397 1_556 S
C421 C422 1.438 . S
C421 C426 1.429 . S
C422 C421 1.438 . S
C422 C423 1.428 . S
C422 C435 1.394 . S
C423 H415 0.949 . S
C423 C422 1.428 . S
C423 C424 1.345 . S
C424 H416 0.950 . S
C424 C423 1.345 . S
C424 C425 1.424 . S
C425 H417 0.951 . S
C425 C424 1.424 . S
C425 C426 1.347 . S
C426 H418 0.951 . S
C426 C421 1.429 . S
C426 C425 1.347 . S
H427 C428 0.951 . S
C428 H427 0.951 . S
C428 C434 1.265 . S
H429 C434 0.950 . S
H430 C438 0.949 . S
H431 C439 0.950 . S
H432 C440 0.951 . S
H433 C441 0.951 . S
C434 C428 1.265 . S
C434 H429 0.950 . S
C434 C435 1.478 . S
C435 C422 1.394 . S
C435 C434 1.478 . S
C435 C436 1.397 1_556 S
C436 C435 1.397 1_554 S
C436 C437 1.438 . S
C436 C441 1.429 . S
C437 C420 1.394 . S
C437 C436 1.438 . S
C437 C438 1.428 . S
C438 H430 0.949 . S
C438 C437 1.428 . S
C438 C439 1.345 . S
C439 H431 0.950 . S
C439 C438 1.345 . S
C439 C440 1.424 . S
C440 H432 0.951 . S
C440 C439 1.424 . S
C440 C441 1.347 . S
C441 H433 0.951 . S
C441 C436 1.429 . S
C441 C440 1.347 . S
H442 C443 0.951 . S
C443 H442 0.951 . S
C443 C449 1.265 . S
H444 C449 0.950 . S
H445 C453 0.949 . S
H446 C454 0.950 . S
H447 C455 0.951 . S
H448 C456 0.951 . S
C449 C443 1.265 . S
C449 H444 0.950 . S
C449 C450 1.478 . S
C450 C449 1.478 . S
C450 C451 1.397 . S
C450 C467 1.394 . S
C451 C450 1.397 . S
C451 C452 1.438 . S
C451 C456 1.429 . S
C452 C451 1.438 . S
C452 C453 1.428 . S
C452 C465 1.394 . S
C453 H445 0.949 . S
C453 C452 1.428 . S
C453 C454 1.345 1_554 S
C454 H446 0.950 . S
C454 C453 1.345 1_556 S
C454 C455 1.424 . S
C455 H447 0.951 . S
C455 C454 1.424 . S
C455 C456 1.347 1_556 S
C456 H448 0.951 . S
C456 C451 1.429 . S
C456 C455 1.347 1_554 S
H457 C458 0.951 . S
C458 H457 0.951 . S
C458 C464 1.265 . S
H459 C464 0.950 . S
H460 C468 0.949 . S
H461 C469 0.950 . S
H462 C470 0.951 . S
H463 C471 0.951 . S
C464 C458 1.265 . S
C464 H459 0.950 . S
C464 C465 1.478 . S
C465 C452 1.394 . S
C465 C464 1.478 . S
C465 C466 1.397 . S
C466 C465 1.397 . S
C466 C467 1.438 . S
C466 C471 1.429 . S
C467 C450 1.394 . S
C467 C466 1.438 . S
C467 C468 1.428 . S
C468 H460 0.949 . S
C468 C467 1.428 . S
C468 C469 1.345 . S
C469 H461 0.950 . S
C469 C468 1.345 . S
C469 C470 1.424 . S
C470 H462 0.951 . S
C470 C469 1.424 . S
C470 C471 1.347 . S
C471 H463 0.951 . S
C471 C466 1.429 . S
C471 C470 1.347 . S
H472 C473 0.951 . S
C473 H472 0.951 . S
C473 C479 1.265 . S
H474 C479 0.950 . S
H475 C483 0.949 . S
H476 C484 0.950 1_554 S
H477 C485 0.951 1_554 S
H478 C486 0.951 . S
C479 C473 1.265 . S
C479 H474 0.950 . S
C479 C480 1.478 . S
C480 C479 1.478 . S
C480 C481 1.397 . S
C480 C497 1.394 . S
C481 C480 1.397 . S
C481 C482 1.438 . S
C481 C486 1.429 . S
C482 C481 1.438 . S
C482 C483 1.428 . S
C482 C495 1.394 . S
C483 H475 0.949 . S
C483 C482 1.428 . S
C483 C484 1.345 . S
C484 H476 0.950 1_556 S
C484 C483 1.345 . S
C484 C485 1.424 . S
C485 H477 0.951 1_556 S
C485 C484 1.424 . S
C485 C486 1.347 . S
C486 H478 0.951 . S
C486 C481 1.429 . S
C486 C485 1.347 . S
H487 C488 0.951 . S
C488 H487 0.951 . S
C488 C494 1.265 . S
H489 C494 0.950 . S
H490 C498 0.949 . S
H491 C499 0.950 . S
H492 C500 0.951 . S
H493 C501 0.951 . S
C494 C488 1.265 . S
C494 H489 0.950 . S
C494 C495 1.478 . S
C495 C482 1.394 . S
C495 C494 1.478 . S
C495 C496 1.397 . S
C496 C495 1.397 . S
C496 C497 1.438 . S
C496 C501 1.429 . S
C497 C480 1.394 . S
C497 C496 1.438 . S
C497 C498 1.428 . S
C498 H490 0.949 . S
C498 C497 1.428 . S
C498 C499 1.345 . S
C499 H491 0.950 . S
C499 C498 1.345 . S
C499 C500 1.424 . S
C500 H492 0.951 . S
C500 C499 1.424 . S
C500 C501 1.347 . S
C501 H493 0.951 . S
C501 C496 1.429 . S
C501 C500 1.347 . S
H502 C503 0.951 . S
C503 H502 0.951 . S
C503 C509 1.265 1_556 S
H504 C509 0.950 . S
H505 C513 0.949 . S
H506 C514 0.950 . S
H507 C515 0.951 . S
H508 C516 0.951 . S
C509 C503 1.265 1_554 S
C509 H504 0.950 . S
C509 C510 1.478 . S
C510 C509 1.478 . S
C510 C511 1.397 . S
C510 C527 1.394 1_554 S
C511 C510 1.397 . S
C511 C512 1.438 . S
C511 C516 1.429 . S
C512 C511 1.438 . S
C512 C513 1.428 . S
C512 C525 1.394 1_554 S
C513 H505 0.949 . S
C513 C512 1.428 . S
C513 C514 1.345 . S
C514 H506 0.950 . S
C514 C513 1.345 . S
C514 C515 1.424 . S
C515 H507 0.951 . S
C515 C514 1.424 . S
C515 C516 1.347 . S
C516 H508 0.951 . S
C516 C511 1.429 . S
C516 C515 1.347 . S
H517 C518 0.951 . S
C518 H517 0.951 . S
C518 C524 1.265 1_554 S
H519 C524 0.950 . S
H520 C528 0.949 . S
H521 C529 0.950 . S
H522 C530 0.951 . S
H523 C531 0.951 . S
C524 C518 1.265 1_556 S
C524 H519 0.950 . S
C524 C525 1.478 . S
C525 C512 1.394 1_556 S
C525 C524 1.478 . S
C525 C526 1.397 . S
C526 C525 1.397 . S
C526 C527 1.438 . S
C526 C531 1.429 . S
C527 C510 1.394 1_556 S
C527 C526 1.438 . S
C527 C528 1.428 . S
C528 H520 0.949 . S
C528 C527 1.428 . S
C528 C529 1.345 . S
C529 H521 0.950 . S
C529 C528 1.345 . S
C529 C530 1.424 . S
C530 H522 0.951 . S
C530 C529 1.424 . S
C530 C531 1.347 . S
C531 H523 0.951 . S
C531 C526 1.429 . S
C531 C530 1.347 . S
H532 C533 0.951 . S
C533 H532 0.951 . S
C533 C539 1.265 . S
H534 C539 0.950 . S
H535 C543 0.949 . S
H536 C544 0.950 . S
H537 C545 0.951 . S
H538 C546 0.951 . S
C539 C533 1.265 . S
C539 H534 0.950 . S
C539 C540 1.478 . S
C540 C539 1.478 . S
C540 C541 1.397 . S
C540 C557 1.394 . S
C541 C540 1.397 . S
C541 C542 1.438 . S
C541 C546 1.429 . S
C542 C541 1.438 . S
C542 C543 1.428 . S
C542 C555 1.394 . S
C543 H535 0.949 . S
C543 C542 1.428 . S
C543 C544 1.345 . S
C544 H536 0.950 . S
C544 C543 1.345 . S
C544 C545 1.424 . S
C545 H537 0.951 . S
C545 C544 1.424 . S
C545 C546 1.347 . S
C546 H538 0.951 . S
C546 C541 1.429 . S
C546 C545 1.347 . S
H547 C548 0.951 . S
C548 H547 0.951 . S
C548 C554 1.265 . S
H549 C554 0.950 . S
H550 C558 0.949 . S
H551 C559 0.950 . S
H552 C560 0.951 . S
H553 C561 0.951 . S
C554 C548 1.265 . S
C554 H549 0.950 . S
C554 C555 1.478 . S
C555 C542 1.394 . S
C555 C554 1.478 . S
C555 C556 1.397 . S
C556 C555 1.397 . S
C556 C557 1.438 . S
C556 C561 1.429 . S
C557 C540 1.394 . S
C557 C556 1.438 . S
C557 C558 1.428 . S
C558 H550 0.949 . S
C558 C557 1.428 . S
C558 C559 1.345 1_554 S
C559 H551 0.950 . S
C559 C558 1.345 1_556 S
C559 C560 1.424 . S
C560 H552 0.951 . S
C560 C559 1.424 . S
C560 C561 1.347 1_556 S
C561 H553 0.951 . S
C561 C556 1.429 . S
C561 C560 1.347 1_554 S
H562 C563 0.951 . S
C563 H562 0.951 . S
C563 C569 1.265 . S
H564 C569 0.950 . S
H565 C573 0.949 . S
H566 C574 0.950 . S
H567 C575 0.951 . S
H568 C576 0.951 . S
C569 C563 1.265 . S
C569 H564 0.950 . S
C569 C570 1.478 . S
C570 C569 1.478 . S
C570 C571 1.397 . S
C570 C587 1.394 . S
C571 C570 1.397 . S
C571 C572 1.438 . S
C571 C576 1.429 . S
C572 C571 1.438 . S
C572 C573 1.428 . S
C572 C585 1.394 . S
C573 H565 0.949 . S
C573 C572 1.428 . S
C573 C574 1.345 . S
C574 H566 0.950 . S
C574 C573 1.345 . S
C574 C575 1.424 . S
C575 H567 0.951 . S
C575 C574 1.424 . S
C575 C576 1.347 . S
C576 H568 0.951 . S
C576 C571 1.429 . S
C576 C575 1.347 . S
H577 C578 0.951 . S
C578 H577 0.951 . S
C578 C584 1.265 . S
H579 C584 0.950 . S
H580 C588 0.949 . S
H581 C589 0.950 . S
H582 C590 0.951 . S
H583 C591 0.951 . S
C584 C578 1.265 . S
C584 H579 0.950 . S
C584 C585 1.478 . S
C585 C572 1.394 . S
C585 C584 1.478 . S
C585 C586 1.397 . S
C586 C585 1.397 . S
C586 C587 1.438 . S
C586 C591 1.429 . S
C587 C570 1.394 . S
C587 C586 1.438 . S
C587 C588 1.428 . S
C588 H580 0.949 . S
C588 C587 1.428 . S
C588 C589 1.345 . S
C589 H581 0.950 . S
C589 C588 1.345 . S
C589 C590 1.424 . S
C590 H582 0.951 . S
C590 C589 1.424 . S
C590 C591 1.347 . S
C591 H583 0.951 . S
C591 C586 1.429 . S
C591 C590 1.347 . S
C113 C14 1.415 . S
C128 C0 1.415 . S
C143 C25 1.407 . S
C158 C39 1.425 . S
C173 C42 1.446 . S
C188 C28 1.427 . S
C203 C53 1.431 . S
C218 C11 1.427 . S
C233 C56 1.417 . S
C248 C70 1.448 . S
C263 C81 1.435 . S
C278 C95 1.418 . S
C293 C84 1.443 . S
C308 C98 1.433 . S
C323 C67 1.426 . S
C338 C109 1.407 . S
C353 C5 1.430 . S
C368 C103 1.443 . S
C383 C65 1.445 . S
C398 C23 1.449 . S
C413 C75 1.432 . S
C428 C33 1.445 . S
C443 C51 1.450 . S
C458 C93 1.455 . S
C473 C37 1.443 . S
C488 C107 1.448 . S
C503 C61 1.427 . S
C518 C47 1.435 . S
C533 C79 1.450 . S
C548 C9 1.445 . S
C563 C19 1.434 . S
C578 C89 1.448 . S
