# Generated by pormake.
# Topology umb, (4)-cn, num edge types: 1
# Building blocks:
#     Node 0, Type 0, BuildingBlock: CEKHIL_clean_sbu_0, # of connection points: 4
#     Node 1, Type 0, BuildingBlock: CEKHIL_clean_sbu_0, # of connection points: 4
#     Node 2, Type 0, BuildingBlock: CEKHIL_clean_sbu_0, # of connection points: 4
#     Node 3, Type 0, BuildingBlock: CEKHIL_clean_sbu_0, # of connection points: 4
#     Node 4, Type 0, BuildingBlock: CEKHIL_clean_sbu_0, # of connection points: 4
#     Node 5, Type 0, BuildingBlock: CEKHIL_clean_sbu_0, # of connection points: 4
#     Node 6, Type 0, BuildingBlock: CEKHIL_clean_sbu_0, # of connection points: 4
#     Node 7, Type 0, BuildingBlock: CEKHIL_clean_sbu_0, # of connection points: 4
#     Node 8, Type 0, BuildingBlock: CEKHIL_clean_sbu_0, # of connection points: 4
#     Node 9, Type 0, BuildingBlock: CEKHIL_clean_sbu_0, # of connection points: 4
#     Node 10, Type 0, BuildingBlock: CEKHIL_clean_sbu_0, # of connection points: 4
#     Node 11, Type 0, BuildingBlock: CEKHIL_clean_sbu_0, # of connection points: 4
#     Edge 12, Type (0, 0), BuildingBlock: MIFKUJ_clean_linker_0, # of connection points: 2
#     Edge 13, Type (0, 0), BuildingBlock: MIFKUJ_clean_linker_0, # of connection points: 2
#     Edge 14, Type (0, 0), BuildingBlock: MIFKUJ_clean_linker_0, # of connection points: 2
#     Edge 15, Type (0, 0), BuildingBlock: MIFKUJ_clean_linker_0, # of connection points: 2
#     Edge 16, Type (0, 0), BuildingBlock: MIFKUJ_clean_linker_0, # of connection points: 2
#     Edge 17, Type (0, 0), BuildingBlock: MIFKUJ_clean_linker_0, # of connection points: 2
#     Edge 18, Type (0, 0), BuildingBlock: MIFKUJ_clean_linker_0, # of connection points: 2
#     Edge 19, Type (0, 0), BuildingBlock: MIFKUJ_clean_linker_0, # of connection points: 2
#     Edge 20, Type (0, 0), BuildingBlock: MIFKUJ_clean_linker_0, # of connection points: 2
#     Edge 21, Type (0, 0), BuildingBlock: MIFKUJ_clean_linker_0, # of connection points: 2
#     Edge 22, Type (0, 0), BuildingBlock: MIFKUJ_clean_linker_0, # of connection points: 2
#     Edge 23, Type (0, 0), BuildingBlock: MIFKUJ_clean_linker_0, # of connection points: 2
#     Edge 24, Type (0, 0), BuildingBlock: MIFKUJ_clean_linker_0, # of connection points: 2
#     Edge 25, Type (0, 0), BuildingBlock: MIFKUJ_clean_linker_0, # of connection points: 2
#     Edge 26, Type (0, 0), BuildingBlock: MIFKUJ_clean_linker_0, # of connection points: 2
#     Edge 27, Type (0, 0), BuildingBlock: MIFKUJ_clean_linker_0, # of connection points: 2
#     Edge 28, Type (0, 0), BuildingBlock: MIFKUJ_clean_linker_0, # of connection points: 2
#     Edge 29, Type (0, 0), BuildingBlock: MIFKUJ_clean_linker_0, # of connection points: 2
#     Edge 30, Type (0, 0), BuildingBlock: MIFKUJ_clean_linker_0, # of connection points: 2
#     Edge 31, Type (0, 0), BuildingBlock: MIFKUJ_clean_linker_0, # of connection points: 2
#     Edge 32, Type (0, 0), BuildingBlock: MIFKUJ_clean_linker_0, # of connection points: 2
#     Edge 33, Type (0, 0), BuildingBlock: MIFKUJ_clean_linker_0, # of connection points: 2
#     Edge 34, Type (0, 0), BuildingBlock: MIFKUJ_clean_linker_0, # of connection points: 2
#     Edge 35, Type (0, 0), BuildingBlock: MIFKUJ_clean_linker_0, # of connection points: 2
# Relax obj value: 0.272
# Max RMSD: 0.247
# Mean RMSD: 0.247
data_MOF--net-umb--node1-CEKHIL_clean_sbu_0--edge1-MIFKUJ_clean_linker_0
_symmetry_space_group_name_H-M    P1
_symmetry_Int_Tables_number       1
_symmetry_cell_setting            triclinic
loop_
_symmetry_equiv_pos_as_xyz
'x, y, z'
_cell_length_a     60.699265
_cell_length_b     60.639163
_cell_length_c     48.095158
_cell_angle_alpha  89.948143
_cell_angle_beta   90.125392
_cell_angle_gamma 120.01019
loop_
_atom_site_label
_atom_site_type_symbol
_atom_site_fract_x
_atom_site_fract_y
_atom_site_fract_z
_atom_type_partial_charge
Co0 Co 0.51409 0.15916 0.32242 0.0
O1 O 0.49157 0.12306 0.32551 0.0
O2 O 0.53335 0.1421 0.31899 0.0
C3 C 0.49111 0.16807 0.29236 0.0
O4 O 0.54308 0.19513 0.31746 0.0
Co5 Co 0.4979 0.19619 0.34574 0.0
O6 O 0.52974 0.2226 0.32798 0.0
C7 C 0.51763 0.17296 0.38466 0.0
C8 C 0.51182 0.12115 0.32237 0.0
C9 C 0.54673 0.21784 0.31924 0.0
O10 O 0.52098 0.16197 0.36363 0.0
O11 O 0.50684 0.18644 0.38263 0.0
O12 O 0.50475 0.15844 0.28381 0.0
O13 O 0.4888 0.16865 0.31919 0.0
Co14 Co 0.35938 0.52632 0.65344 0.0
O15 O 0.36832 0.50055 0.66017 0.0
O16 O 0.39557 0.54121 0.65082 0.0
C17 C 0.32701 0.50445 0.62347 0.0
O18 O 0.35737 0.55786 0.64449 0.0
Co19 Co 0.30812 0.51861 0.67395 0.0
O20 O 0.31667 0.54797 0.64909 0.0
C21 C 0.34986 0.53584 0.71422 0.0
C22 C 0.3917 0.51859 0.65649 0.0
C23 C 0.33948 0.56312 0.64149 0.0
O24 O 0.36365 0.53567 0.69411 0.0
O25 O 0.32611 0.52814 0.71128 0.0
O26 O 0.35048 0.5151 0.61532 0.0
O27 O 0.3238 0.50424 0.65024 0.0
Co28 Co 0.8321 0.35252 0.98836 0.0
O29 O 0.86781 0.36375 0.9892 0.0
O30 O 0.85114 0.38899 0.9866 0.0
C31 C 0.82056 0.32172 0.95615 0.0
O32 O 0.7969 0.34826 0.98634 0.0
Co33 Co 0.79281 0.29921 0.009 0.0
O34 O 0.76782 0.30704 0.99195 0.0
C35 C 0.81822 0.34037 0.05014 0.0
C36 C 0.87128 0.38667 0.98766 0.0
C37 C 0.77375 0.32993 0.98666 0.0
O38 O 0.83129 0.355 0.03005 0.0
O39 O 0.80204 0.31672 0.04654 0.0
O40 O 0.83076 0.34547 0.94907 0.0
O41 O 0.82048 0.31739 0.98266 0.0
Co42 Co 0.47694 0.83274 0.32587 0.0
O43 O 0.50318 0.86795 0.32831 0.0
O44 O 0.46202 0.85386 0.32172 0.0
C45 C 0.49645 0.81929 0.29606 0.0
O46 O 0.44465 0.79901 0.32155 0.0
Co47 Co 0.4852 0.79018 0.34894 0.0
O48 O 0.4521 0.76707 0.33091 0.0
C49 C 0.47018 0.81775 0.38786 0.0
C50 C 0.48492 0.87302 0.32474 0.0
C51 C 0.43747 0.77525 0.32288 0.0
O52 O 0.47047 0.83137 0.36722 0.0
O53 O 0.47681 0.80083 0.38548 0.0
O54 O 0.48505 0.83119 0.2872 0.0
O55 O 0.49863 0.81862 0.32291 0.0
Co56 Co 0.6343 0.46653 0.65605 0.0
O57 O 0.62495 0.49207 0.66233 0.0
O58 O 0.59799 0.45087 0.65557 0.0
C59 C 0.66453 0.48701 0.62365 0.0
O60 O 0.63638 0.43497 0.6479 0.0
Co61 Co 0.68667 0.47533 0.67311 0.0
O62 O 0.6773 0.4452 0.64928 0.0
C63 C 0.64746 0.45946 0.71624 0.0
C64 C 0.60157 0.47355 0.66012 0.0
C65 C 0.65405 0.42963 0.64362 0.0
O66 O 0.63261 0.45936 0.69715 0.0
O67 O 0.6708 0.46638 0.7115 0.0
O68 O 0.64054 0.47565 0.61732 0.0
O69 O 0.66962 0.48893 0.65017 0.0
Co70 Co 0.15895 0.64138 0.99525 0.0
O71 O 0.12328 0.62939 0.99099 0.0
O72 O 0.14073 0.60486 0.99404 0.0
C73 C 0.17369 0.67146 0.96177 0.0
O74 O 0.19441 0.64659 0.99889 0.0
Co75 Co 0.19446 0.69475 0.01748 0.0
O76 O 0.22182 0.68818 1.00549 0.0
C77 C 0.16645 0.65377 0.05781 0.0
C78 C 0.12037 0.60666 0.99137 0.0
C79 C 0.21711 0.66554 1.00113 0.0
O80 O 0.15549 0.6392 0.03691 0.0
O81 O 0.18247 0.67754 0.05497 0.0
O82 O 0.16434 0.64755 0.95599 0.0
O83 O 0.17048 0.67643 0.98735 0.0
Co84 Co 0.82924 0.47462 0.36485 0.0
O85 O 0.86406 0.50133 0.36136 0.0
O86 O 0.85095 0.46041 0.3687 0.0
C87 C 0.81628 0.49435 0.39482 0.0
O88 O 0.79597 0.44199 0.37045 0.0
Co89 Co 0.78535 0.48123 0.34292 0.0
O90 O 0.76362 0.44929 0.36367 0.0
C91 C 0.81328 0.46739 0.30317 0.0
C92 C 0.86968 0.48348 0.36532 0.0
C93 C 0.77223 0.43488 0.37108 0.0
O94 O 0.82702 0.46762 0.32364 0.0
O95 O 0.79609 0.47361 0.30596 0.0
O96 O 0.82888 0.48356 0.40335 0.0
O97 O 0.81455 0.49577 0.36797 0.0
Co98 Co 0.34612 0.82957 0.70123 0.0
O99 O 0.35872 0.86545 0.69727 0.0
O100 O 0.38235 0.84759 0.70548 0.0
C101 C 0.31379 0.82062 0.73058 0.0
O102 O 0.34044 0.79418 0.70756 0.0
Co103 Co 0.29384 0.79026 0.67831 0.0
O104 O 0.2998 0.76523 0.69856 0.0
C105 C 0.33683 0.81391 0.63934 0.0
C106 C 0.3811 0.86813 0.70151 0.0
C107 C 0.32191 0.77114 0.70726 0.0
O108 O 0.35083 0.82636 0.66015 0.0
O109 O 0.31275 0.79905 0.64161 0.0
O110 O 0.33702 0.83076 0.73947 0.0
O111 O 0.31097 0.81912 0.70368 0.0
Co112 Co 0.52119 0.35792 0.03929 0.0
O113 O 0.49774 0.37024 0.03477 0.0
O114 O 0.53945 0.3944 0.04091 0.0
C115 C 0.49922 0.32732 0.07105 0.0
O116 O 0.55103 0.35248 0.04578 0.0
Co117 Co 0.50711 0.30411 0.02025 0.0
O118 O 0.53769 0.31081 0.04192 0.0
C119 C 0.52516 0.34472 0.97824 0.0
C120 C 0.51751 0.39287 0.03733 0.0
C121 C 0.55467 0.33345 0.0482 0.0
O122 O 0.52744 0.36005 0.99792 0.0
O123 O 0.51611 0.32085 0.98234 0.0
O124 O 0.51248 0.35108 0.0782 0.0
O125 O 0.49668 0.32305 0.0444 0.0
Co126 Co 0.15933 0.52346 0.3724 0.0
O127 O 0.12382 0.4995 0.36713 0.0
O128 O 0.14051 0.54093 0.37532 0.0
C129 C 0.16894 0.50107 0.40245 0.0
O130 O 0.19409 0.55359 0.3798 0.0
Co131 Co 0.19969 0.51162 0.3504 0.0
O132 O 0.2234 0.54206 0.37251 0.0
C133 C 0.17582 0.53002 0.31085 0.0
C134 C 0.12051 0.51893 0.37045 0.0
C135 C 0.21709 0.55809 0.38079 0.0
O136 O 0.16352 0.53176 0.33157 0.0
O137 O 0.19053 0.52063 0.31311 0.0
O138 O 0.15751 0.51315 0.41066 0.0
O139 O 0.17073 0.49961 0.37561 0.0
Co140 Co 0.63257 0.1578 0.70256 0.0
O141 O 0.62274 0.12261 0.69769 0.0
O142 O 0.5963 0.13738 0.70484 0.0
C143 C 0.66421 0.16841 0.73353 0.0
O144 O 0.63527 0.19191 0.70954 0.0
Co145 Co 0.68468 0.20044 0.68282 0.0
O146 O 0.67602 0.22255 0.70521 0.0
C147 C 0.64378 0.17536 0.64143 0.0
C148 C 0.59955 0.118 0.70086 0.0
C149 C 0.65307 0.21518 0.71192 0.0
O150 O 0.62924 0.16179 0.66135 0.0
O151 O 0.66747 0.19135 0.64509 0.0
O152 O 0.64057 0.15639 0.74121 0.0
O153 O 0.66797 0.17062 0.70681 0.0
Co154 Co 0.48608 0.64876 0.02728 0.0
O155 O 0.51104 0.63808 0.02935 0.0
O156 O 0.46917 0.61232 0.02824 0.0
C157 C 0.50146 0.67896 0.06061 0.0
O158 O 0.45464 0.65206 0.02623 0.0
Co159 Co 0.50102 0.70228 1.00619 0.0
O160 O 0.46506 0.69181 0.01344 0.0
C161 C 0.48742 0.6616 0.96513 0.0
C162 C 0.49176 0.61498 0.02939 0.0
C163 C 0.44887 0.66926 0.02084 0.0
O164 O 0.48561 0.64693 0.98534 0.0
O165 O 0.49424 0.68508 0.96873 0.0
O166 O 0.48836 0.65497 0.06682 0.0
O167 O 0.50848 0.68403 0.03474 0.0
H168 H 0.55882 0.16719 0.39167 0.0
H169 H 0.58029 0.16773 0.43452 0.0
H170 H 0.52448 0.17603 0.48177 0.0
H171 H 0.50373 0.17719 0.43828 0.0
H172 H 0.56711 0.2044 0.50413 0.0
H173 H 0.52749 0.11703 0.47637 0.0
H174 H 0.51631 0.08119 0.44445 0.0
H175 H 0.59519 0.10351 0.43654 0.0
H176 H 0.60691 0.1397 0.46827 0.0
H177 H 0.59305 0.15384 0.62991 0.0
H178 H 0.57286 0.15459 0.58628 0.0
H179 H 0.64612 0.19421 0.54655 0.0
H180 H 0.66684 0.19409 0.59055 0.0
H181 H 0.59503 0.14142 0.52148 0.0
H182 H 0.63327 0.23247 0.54533 0.0
H183 H 0.64228 0.26907 0.57533 0.0
H184 H 0.56257 0.23627 0.59246 0.0
H185 H 0.55308 0.19968 0.56218 0.0
C186 C 0.55088 0.16888 0.41117 0.0
C187 C 0.52929 0.17182 0.41151 0.0
C188 C 0.56317 0.16903 0.43582 0.0
C189 C 0.55376 0.17118 0.46173 0.0
C190 C 0.53216 0.17417 0.46217 0.0
C191 C 0.52019 0.17473 0.4373 0.0
C192 C 0.56701 0.17114 0.4881 0.0
C193 C 0.57284 0.19034 0.50791 0.0
C194 C 0.57507 0.15316 0.49325 0.0
C195 C 0.56808 0.13119 0.47452 0.0
C196 C 0.54247 0.11437 0.46772 0.0
C197 C 0.53603 0.09398 0.44966 0.0
C198 C 0.55501 0.0901 0.43837 0.0
C199 C 0.58049 0.10655 0.44526 0.0
C200 C 0.58705 0.12698 0.46333 0.0
C201 C 0.60502 0.16255 0.61192 0.0
C202 C 0.6317 0.17386 0.61387 0.0
C203 C 0.59336 0.16312 0.58701 0.0
C204 C 0.60798 0.17464 0.56327 0.0
C205 C 0.63452 0.18537 0.56474 0.0
C206 C 0.64631 0.18517 0.58986 0.0
C207 C 0.59517 0.17474 0.53691 0.0
C208 C 0.58925 0.1554 0.51738 0.0
C209 C 0.58673 0.19231 0.53215 0.0
C210 C 0.59251 0.21329 0.55178 0.0
C211 C 0.61771 0.23295 0.55576 0.0
C212 C 0.62288 0.2538 0.57259 0.0
C213 C 0.60301 0.255 0.58577 0.0
C214 C 0.57793 0.23533 0.58221 0.0
C215 C 0.57264 0.2146 0.56513 0.0
H216 H 0.60703 0.27116 0.59875 0.0
H217 H 0.54996 0.07432 0.42433 0.0
H218 H 0.40047 0.56806 0.72225 0.0
H219 H 0.4228 0.5884 0.76488 0.0
H220 H 0.35216 0.55048 0.81027 0.0
H221 H 0.32923 0.53086 0.76682 0.0
H222 H 0.37866 0.59572 0.83036 0.0
H223 H 0.39878 0.53069 0.81247 0.0
H224 H 0.4128 0.50554 0.78526 0.0
H225 H 0.48632 0.57192 0.77411 0.0
H226 H 0.47261 0.59757 0.80098 0.0
H227 H 0.4742 0.61328 0.94841 0.0
H228 H 0.45056 0.59095 0.90678 0.0
H229 H 0.45378 0.65967 0.87731 0.0
H230 H 0.47718 0.68216 0.91919 0.0
H231 H 0.45798 0.59471 0.85289 0.0
H232 H 0.39552 0.64291 0.84526 0.0
H233 H 0.37978 0.66408 0.87671 0.0
H234 H 0.38669 0.62354 0.94628 0.0
H235 H 0.40143 0.60132 0.91516 0.0
C236 C 0.38955 0.56379 0.74127 0.0
C237 C 0.363 0.54735 0.74107 0.0
C238 C 0.40246 0.57547 0.76581 0.0
C239 C 0.38944 0.57055 0.79121 0.0
C240 C 0.3628 0.55451 0.79109 0.0
C241 C 0.34969 0.54315 0.76625 0.0
C242 C 0.40389 0.58225 0.81756 0.0
C243 C 0.39597 0.59544 0.83525 0.0
C244 C 0.42622 0.58147 0.82464 0.0
C245 C 0.43459 0.56608 0.80858 0.0
C246 C 0.41789 0.53996 0.80408 0.0
C247 C 0.42579 0.52561 0.78872 0.0
C248 C 0.45044 0.53714 0.77791 0.0
C249 C 0.46724 0.56303 0.78248 0.0
C250 C 0.45942 0.57747 0.79781 0.0
C251 C 0.4703 0.62386 0.93292 0.0
C252 C 0.4776 0.6496 0.93738 0.0
C253 C 0.4567 0.61098 0.90905 0.0
C254 C 0.44989 0.62342 0.88906 0.0
C255 C 0.45836 0.64948 0.89265 0.0
C256 C 0.47202 0.66242 0.91653 0.0
C257 C 0.43326 0.60887 0.86505 0.0
C258 C 0.4407 0.59503 0.84794 0.0
C259 C 0.4101 0.60839 0.85911 0.0
C260 C 0.39998 0.62072 0.87785 0.0
C261 C 0.39346 0.63831 0.86722 0.0
C262 C 0.38465 0.65046 0.885 0.0
C263 C 0.38234 0.64523 0.91348 0.0
C264 C 0.38857 0.62763 0.92422 0.0
C265 C 0.39704 0.61517 0.90649 0.0
H266 H 0.37563 0.65474 0.92722 0.0
H267 H 0.45658 0.52603 0.76607 0.0
H268 H 0.84051 0.44353 0.29253 0.0
H269 H 0.84217 0.42302 0.24986 0.0
H270 H 0.79474 0.44747 0.20888 0.0
H271 H 0.79208 0.46727 0.2522 0.0
H272 H 0.77897 0.40197 0.19395 0.0
H273 H 0.86144 0.47464 0.1967 0.0
H274 H 0.90396 0.50617 0.21414 0.0
H275 H 0.92372 0.44765 0.22207 0.0
H276 H 0.8811 0.41563 0.20533 0.0
H277 H 0.85038 0.38996 0.06486 0.0
H278 H 0.8498 0.41182 0.10687 0.0
H279 H 0.79051 0.34095 0.14071 0.0
H280 H 0.79033 0.31888 0.09794 0.0
H281 H 0.85958 0.41139 0.15752 0.0
H282 H 0.75148 0.35253 0.1835 0.0
H283 H 0.71054 0.32735 0.15898 0.0
H284 H 0.74396 0.36856 0.08364 0.0
H285 H 0.78495 0.39431 0.1078 0.0
C286 C 0.8306 0.44488 0.27443 0.0
C287 C 0.81623 0.45727 0.27595 0.0
C288 C 0.83167 0.43313 0.24984 0.0
C289 C 0.81888 0.43385 0.22577 0.0
C290 C 0.80479 0.44653 0.22706 0.0
C291 C 0.80341 0.45803 0.25186 0.0
C292 C 0.81961 0.42068 0.1997 0.0
C293 C 0.79665 0.4041 0.18602 0.0
C294 C 0.84264 0.42366 0.18875 0.0
C295 C 0.86794 0.44268 0.19998 0.0
C296 C 0.87472 0.46842 0.2025 0.0
C297 C 0.89887 0.4864 0.2122 0.0
C298 C 0.91653 0.47892 0.21916 0.0
C299 C 0.91003 0.45342 0.21661 0.0
C300 C 0.88585 0.43534 0.2071 0.0
C301 C 0.8373 0.37882 0.08124 0.0
C302 C 0.82029 0.35254 0.07776 0.0
C303 C 0.83701 0.39145 0.10541 0.0
C304 C 0.81983 0.37825 0.12697 0.0
C305 C 0.8036 0.35177 0.1242 0.0
C306 C 0.80372 0.33908 0.0998 0.0
C307 C 0.81897 0.39247 0.15202 0.0
C308 C 0.84191 0.4092 0.16553 0.0
C309 C 0.79606 0.39039 0.1621 0.0
C310 C 0.77142 0.37509 0.1474 0.0
C311 C 0.75009 0.35626 0.16172 0.0
C312 C 0.72687 0.34191 0.14789 0.0
C313 C 0.72473 0.34627 0.11975 0.0
C314 C 0.74571 0.36512 0.10541 0.0
C315 C 0.76895 0.37959 0.11916 0.0
H316 H 0.70681 0.33506 0.10907 0.0
H317 H 0.93525 0.49288 0.2266 0.0
H318 H 0.44072 0.83952 0.39622 0.0
H319 H 0.41847 0.83949 0.43818 0.0
H320 H 0.4518 0.80149 0.48266 0.0
H321 H 0.47322 0.80027 0.44 0.0
H322 H 0.40549 0.78036 0.49677 0.0
H323 H 0.47009 0.86816 0.49171 0.0
H324 H 0.49575 0.91036 0.46996 0.0
H325 H 0.42854 0.91583 0.45786 0.0
H326 H 0.40242 0.87352 0.47924 0.0
H327 H 0.38806 0.83846 0.62898 0.0
H328 H 0.40976 0.83885 0.58623 0.0
H329 H 0.33752 0.79462 0.5451 0.0
H330 H 0.31538 0.79326 0.58825 0.0
H331 H 0.40325 0.85651 0.53038 0.0
H332 H 0.33969 0.75964 0.52747 0.0
H333 H 0.31881 0.71838 0.55202 0.0
H334 H 0.39128 0.73257 0.58253 0.0
H335 H 0.41239 0.7745 0.55924 0.0
C336 C 0.44372 0.83147 0.41499 0.0
C337 C 0.45909 0.82012 0.41465 0.0
C338 C 0.43098 0.83158 0.43917 0.0
C339 C 0.4337 0.82097 0.46404 0.0
C340 C 0.44934 0.80992 0.4639 0.0
C341 C 0.46174 0.80935 0.43948 0.0
C342 C 0.41926 0.8203 0.48965 0.0
C343 C 0.40515 0.79713 0.50399 0.0
C344 C 0.41858 0.84203 0.49952 0.0
C345 C 0.43427 0.86757 0.48686 0.0
C346 C 0.46076 0.8783 0.48426 0.0
C347 C 0.47539 0.90224 0.47202 0.0
C348 C 0.46377 0.91574 0.46247 0.0
C349 C 0.43751 0.90535 0.46524 0.0
C350 C 0.42279 0.8814 0.47745 0.0
C351 C 0.37661 0.82875 0.61093 0.0
C352 C 0.3498 0.81568 0.61231 0.0
C353 C 0.38916 0.82893 0.58645 0.0
C354 C 0.37535 0.81608 0.56263 0.0
C355 C 0.34863 0.80379 0.5635 0.0
C356 C 0.33597 0.80335 0.58814 0.0
C357 C 0.38918 0.81656 0.53679 0.0
C358 C 0.40343 0.83978 0.52271 0.0
C359 C 0.39032 0.79505 0.52738 0.0
C360 C 0.37746 0.77046 0.54234 0.0
C361 C 0.35105 0.75426 0.54006 0.0
C362 C 0.3392 0.73072 0.55365 0.0
C363 C 0.35369 0.72295 0.56903 0.0
C364 C 0.38006 0.7387 0.57079 0.0
C365 C 0.39194 0.76243 0.55761 0.0
H366 H 0.34451 0.70469 0.57947 0.0
H367 H 0.47513 0.93427 0.45298 0.0
H368 H 0.54953 0.39507 0.96331 0.0
H369 H 0.57011 0.41413 0.91942 0.0
H370 H 0.54532 0.3395 0.88548 0.0
H371 H 0.52519 0.32016 0.9299 0.0
H372 H 0.59232 0.36947 0.87096 0.0
H373 H 0.51755 0.37637 0.86748 0.0
H374 H 0.48581 0.38779 0.88284 0.0
H375 H 0.5432 0.4669 0.88378 0.0
H376 H 0.57544 0.45592 0.86908 0.0
H377 H 0.59787 0.43999 0.7317 0.0
H378 H 0.57769 0.4199 0.77518 0.0
H379 H 0.65028 0.43586 0.80848 0.0
H380 H 0.67061 0.45509 0.76406 0.0
H381 H 0.57899 0.43441 0.82329 0.0
H382 H 0.64509 0.39782 0.85838 0.0
H383 H 0.67125 0.38082 0.83898 0.0
H384 H 0.62164 0.35194 0.76817 0.0
H385 H 0.59539 0.36911 0.78704 0.0
C386 C 0.54815 0.38255 0.94651 0.0
C387 C 0.53549 0.35593 0.95031 0.0
C388 C 0.55997 0.39358 0.92126 0.0
C389 C 0.55916 0.37836 0.89884 0.0
C390 C 0.5463 0.35175 0.9024 0.0
C391 C 0.53461 0.34066 0.9278 0.0
C392 C 0.57213 0.39028 0.87199 0.0
C393 C 0.58932 0.38364 0.86055 0.0
C394 C 0.56821 0.40864 0.858 0.0
C395 C 0.54898 0.41528 0.86745 0.0
C396 C 0.52348 0.39618 0.87128 0.0
C397 C 0.50539 0.40257 0.87984 0.0
C398 C 0.5125 0.42804 0.88435 0.0
C399 C 0.53773 0.44717 0.88034 0.0
C400 C 0.55593 0.44087 0.87194 0.0
C401 C 0.60974 0.43938 0.74819 0.0
C402 C 0.63602 0.44927 0.74414 0.0
C403 C 0.59805 0.4278 0.77325 0.0
C404 C 0.61221 0.4259 0.79532 0.0
C405 C 0.63863 0.43636 0.79169 0.0
C406 C 0.65036 0.44771 0.76632 0.0
C407 C 0.5991 0.41352 0.82205 0.0
C408 C 0.58201 0.42024 0.83366 0.0
C409 C 0.60251 0.39469 0.83569 0.0
C410 C 0.61857 0.38504 0.82387 0.0
C411 C 0.6399 0.38799 0.83858 0.0
C412 C 0.65475 0.37839 0.82766 0.0
C413 C 0.64824 0.36554 0.8022 0.0
C414 C 0.62685 0.36224 0.78765 0.0
C415 C 0.61207 0.37201 0.79836 0.0
H416 H 0.65967 0.358 0.79384 0.0
H417 H 0.49846 0.43297 0.89092 0.0
H418 H 0.16959 0.57089 0.30511 0.0
H419 H 0.16733 0.59154 0.26288 0.0
H420 H 0.17475 0.53608 0.21372 0.0
H421 H 0.17921 0.51646 0.25663 0.0
H422 H 0.19794 0.57687 0.18781 0.0
H423 H 0.11504 0.53605 0.22526 0.0
H424 H 0.08163 0.52326 0.26082 0.0
H425 H 0.09995 0.60104 0.26994 0.0
H426 H 0.13375 0.61438 0.23471 0.0
H427 H 0.1429 0.60277 0.06883 0.0
H428 H 0.14283 0.58193 0.11214 0.0
H429 H 0.18122 0.65459 0.15359 0.0
H430 H 0.18223 0.67606 0.10976 0.0
H431 H 0.13294 0.60353 0.18154 0.0
H432 H 0.21731 0.64031 0.1384 0.0
H433 H 0.24314 0.64575 0.09693 0.0
H434 H 0.21409 0.56512 0.09352 0.0
H435 H 0.18685 0.559 0.13415 0.0
C436 C 0.17068 0.56296 0.28533 0.0
C437 C 0.17424 0.54177 0.28428 0.0
C438 C 0.16916 0.57474 0.26103 0.0
C439 C 0.16988 0.56498 0.23477 0.0
C440 C 0.17389 0.54399 0.2336 0.0
C441 C 0.17633 0.53266 0.25812 0.0
C442 C 0.16666 0.577 0.20889 0.0
C443 C 0.18351 0.58239 0.18653 0.0
C444 C 0.14771 0.58419 0.20661 0.0
C445 C 0.1271 0.57625 0.22749 0.0
C446 C 0.11204 0.55045 0.23494 0.0
C447 C 0.09303 0.5431 0.25505 0.0
C448 C 0.08872 0.56133 0.26769 0.0
C449 C 0.10334 0.58695 0.26016 0.0
C450 C 0.12241 0.59441 0.24009 0.0
C451 C 0.151 0.6145 0.08715 0.0
C452 C 0.16269 0.64128 0.08559 0.0
C453 C 0.15094 0.60242 0.11196 0.0
C454 C 0.16213 0.61667 0.13603 0.0
C455 C 0.17247 0.64323 0.13518 0.0
C456 C 0.17303 0.65548 0.11011 0.0
C457 C 0.1646 0.60384 0.1613 0.0
C458 C 0.14741 0.59808 0.18324 0.0
C459 C 0.18247 0.59534 0.16269 0.0
C460 C 0.19977 0.59918 0.13912 0.0
C461 C 0.21617 0.62369 0.12864 0.0
C462 C 0.23112 0.62691 0.10528 0.0
C463 C 0.2304 0.60584 0.09263 0.0
C464 C 0.21464 0.58145 0.10332 0.0
C465 C 0.19934 0.57808 0.12645 0.0
H466 H 0.24205 0.6084 0.07456 0.0
H467 H 0.07402 0.55561 0.2833 0.0
H468 H 0.72352 0.41386 0.38967 0.0
H469 H 0.69028 0.36947 0.38406 0.0
H470 H 0.74595 0.35049 0.35497 0.0
H471 H 0.77944 0.39482 0.36102 0.0
H472 H 0.70796 0.34167 0.31622 0.0
H473 H 0.71375 0.31897 0.40815 0.0
H474 H 0.71791 0.3226 0.45915 0.0
H475 H 0.64628 0.32042 0.46484 0.0
H476 H 0.64182 0.31718 0.41383 0.0
H477 H 0.58896 0.21613 0.30229 0.0
H478 H 0.6332 0.24934 0.30998 0.0
H479 H 0.60803 0.30077 0.33735 0.0
H480 H 0.56395 0.26812 0.32947 0.0
H481 H 0.63636 0.28471 0.37769 0.0
H482 H 0.63701 0.31725 0.28467 0.0
H483 H 0.63395 0.31464 0.23353 0.0
H484 H 0.69484 0.29799 0.23049 0.0
H485 H 0.69795 0.30007 0.28172 0.0
C486 C 0.72879 0.40004 0.38307 0.0
C487 C 0.75391 0.40776 0.37544 0.0
C488 C 0.70985 0.3747 0.37997 0.0
C489 C 0.71577 0.35687 0.36895 0.0
C490 C 0.74115 0.36407 0.36355 0.0
C491 C 0.7602 0.38935 0.36712 0.0
C492 C 0.69494 0.33245 0.35862 0.0
C493 C 0.69259 0.32868 0.3297 0.0
C494 C 0.67497 0.31582 0.37629 0.0
C495 C 0.67751 0.31793 0.40706 0.0
C496 C 0.69896 0.31947 0.42023 0.0
C497 C 0.70136 0.32142 0.44917 0.0
C498 C 0.68238 0.32176 0.46522 0.0
C499 C 0.66095 0.32013 0.45237 0.0
C500 C 0.65846 0.3182 0.42343 0.0
C501 C 0.59285 0.23476 0.3091 0.0
C502 C 0.5729 0.23931 0.31589 0.0
C503 C 0.61811 0.25363 0.31348 0.0
C504 C 0.62356 0.27714 0.32463 0.0
C505 C 0.60394 0.28253 0.32893 0.0
C506 C 0.57878 0.26385 0.32432 0.0
C507 C 0.64903 0.29493 0.33541 0.0
C508 C 0.65212 0.29723 0.36437 0.0
C509 C 0.66967 0.31014 0.31779 0.0
C510 C 0.66739 0.30834 0.28706 0.0
C511 C 0.64946 0.31261 0.27315 0.0
C512 C 0.64779 0.31134 0.24413 0.0
C513 C 0.66411 0.30603 0.22877 0.0
C514 C 0.68215 0.30201 0.24242 0.0
C515 C 0.68386 0.30322 0.27144 0.0
H516 H 0.66285 0.30514 0.20631 0.0
H517 H 0.68426 0.32325 0.48763 0.0
H518 H 0.36829 0.77563 0.71801 0.0
H519 H 0.37951 0.74287 0.70912 0.0
H520 H 0.30025 0.68745 0.69687 0.0
H521 H 0.28874 0.71983 0.70606 0.0
H522 H 0.32725 0.66623 0.71863 0.0
H523 H 0.33521 0.72439 0.64302 0.0
H524 H 0.3532 0.76769 0.6236 0.0
H525 H 0.4287 0.77956 0.63345 0.0
H526 H 0.41114 0.73641 0.65323 0.0
H527 H 0.30798 0.57975 0.62261 0.0
H528 H 0.31479 0.62239 0.63045 0.0
H529 H 0.39262 0.64864 0.65379 0.0
H530 H 0.38612 0.60605 0.64584 0.0
H531 H 0.3745 0.68774 0.62916 0.0
H532 H 0.36679 0.62987 0.70569 0.0
H533 H 0.34847 0.58634 0.72445 0.0
H534 H 0.27312 0.57433 0.71236 0.0
H535 H 0.2911 0.61781 0.69328 0.0
C536 C 0.35312 0.75628 0.71442 0.0
C537 C 0.32768 0.75049 0.71172 0.0
C538 C 0.35963 0.73763 0.70927 0.0
C539 C 0.34077 0.71309 0.70143 0.0
C540 C 0.3151 0.70645 0.70251 0.0
C541 C 0.30856 0.72503 0.7077 0.0
C542 C 0.34757 0.69547 0.68806 0.0
C543 C 0.33782 0.67106 0.69928 0.0
C544 C 0.3615 0.70186 0.66282 0.0
C545 C 0.3719 0.72734 0.64988 0.0
C546 C 0.35565 0.73631 0.64117 0.0
C547 C 0.36577 0.76084 0.63018 0.0
C548 C 0.39209 0.77645 0.62756 0.0
C549 C 0.40833 0.76749 0.63568 0.0
C550 C 0.39831 0.743 0.64673 0.0
C551 C 0.3269 0.59486 0.62808 0.0
C552 C 0.34625 0.58943 0.63463 0.0
C553 C 0.33081 0.61926 0.63233 0.0
C554 C 0.35401 0.6383 0.64325 0.0
C555 C 0.37459 0.63405 0.64538 0.0
C556 C 0.37075 0.60962 0.64096 0.0
C557 C 0.35398 0.65866 0.65975 0.0
C558 C 0.3647 0.68332 0.64898 0.0
C559 C 0.34112 0.65266 0.68554 0.0
C560 C 0.33026 0.62695 0.69799 0.0
C561 C 0.34632 0.61789 0.707 0.0
C562 C 0.33601 0.59324 0.71766 0.0
C563 C 0.30964 0.57754 0.71954 0.0
C564 C 0.29354 0.58652 0.71089 0.0
C565 C 0.30378 0.61118 0.70021 0.0
H566 H 0.30169 0.55843 0.72776 0.0
H567 H 0.39995 0.79539 0.61901 0.0
H568 H 0.57053 0.29875 0.05311 0.0
H569 H 0.61407 0.30747 0.05142 0.0
H570 H 0.64148 0.38823 0.05476 0.0
H571 H 0.59768 0.37967 0.05643 0.0
H572 H 0.65764 0.37602 0.0093 0.0
H573 H 0.66118 0.36157 0.10506 0.0
H574 H 0.64724 0.34116 0.15098 0.0
H575 H 0.6417 0.2725 0.11895 0.0
H576 H 0.65534 0.29237 0.07276 0.0
H577 H 0.77837 0.37718 0.98972 0.0
H578 H 0.74511 0.38612 1.0045 0.0
H579 H 0.68972 0.30606 1.00005 0.0
H580 H 0.72259 0.29684 0.98515 0.0
H581 H 0.69624 0.32959 0.05387 0.0
H582 H 0.68517 0.34324 0.95603 0.0
H583 H 0.69959 0.36459 0.91062 0.0
H584 H 0.72029 0.43654 0.9484 0.0
H585 H 0.70627 0.41564 0.99413 0.0
C586 C 0.58575 0.31835 0.05444 0.0
C587 C 0.5806 0.3385 0.05439 0.0
C588 C 0.61073 0.32334 0.05366 0.0
C589 C 0.63101 0.34853 0.05291 0.0
C590 C 0.62605 0.36867 0.0553 0.0
C591 C 0.60099 0.36369 0.05622 0.0
C592 C 0.65641 0.35333 0.04454 0.0
C593 C 0.66657 0.36653 0.01953 0.0
C594 C 0.66787 0.34079 0.05775 0.0
C595 C 0.65923 0.32848 0.08538 0.0
C596 C 0.6568 0.34205 0.10774 0.0
C597 C 0.649 0.33059 0.13384 0.0
C598 C 0.64357 0.30555 0.13787 0.0
C599 C 0.64593 0.2919 0.1158 0.0
C600 C 0.65374 0.30328 0.08966 0.0
C601 C 0.75896 0.36154 0.99097 0.0
C602 C 0.7532 0.3362 0.98686 0.0
C603 C 0.74006 0.36672 0.99954 0.0
C604 C 0.71525 0.34665 1.00387 0.0
C605 C 0.70895 0.3217 0.99717 0.0
C606 C 0.72774 0.3165 0.98853 0.0
C607 C 0.69631 0.35098 0.01806 0.0
C608 C 0.68766 0.33966 0.0442 0.0
C609 C 0.68638 0.36539 1.006 0.0
C610 C 0.69503 0.37794 0.97856 0.0
C611 C 0.69308 0.36365 0.95472 0.0
C612 C 0.7011 0.37566 0.9289 0.0
C613 C 0.71094 0.40192 0.92664 0.0
C614 C 0.71272 0.41622 0.95019 0.0
C615 C 0.70474 0.4043 0.97605 0.0
H616 H 0.71711 0.41118 0.90663 0.0
H617 H 0.63754 0.29671 0.15809 0.0
H618 H 0.39811 0.78428 0.32871 0.0
H619 H 0.35387 0.75223 0.33772 0.0
H620 H 0.37094 0.6927 0.31977 0.0
H621 H 0.41536 0.72458 0.31116 0.0
H622 H 0.32046 0.68214 0.30329 0.0
H623 H 0.38078 0.71367 0.38163 0.0
H624 H 0.4113 0.74752 0.41285 0.0
H625 H 0.35403 0.76589 0.4358 0.0
H626 H 0.32332 0.7325 0.40419 0.0
H627 H 0.26828 0.5762 0.38285 0.0
H628 H 0.30108 0.62047 0.37622 0.0
H629 H 0.24519 0.64401 0.38485 0.0
H630 H 0.21199 0.59969 0.39138 0.0
H631 H 0.30777 0.67845 0.40564 0.0
H632 H 0.24629 0.64581 0.32882 0.0
H633 H 0.21581 0.61109 0.29858 0.0
H634 H 0.27424 0.59485 0.27414 0.0
H635 H 0.3051 0.62957 0.30439 0.0
C636 C 0.39227 0.76439 0.32567 0.0
C637 C 0.41022 0.75681 0.31979 0.0
C638 C 0.36702 0.74617 0.33088 0.0
C639 C 0.35946 0.72028 0.32982 0.0
C640 C 0.37661 0.7127 0.32076 0.0
C641 C 0.40195 0.73088 0.31596 0.0
C642 C 0.33535 0.70119 0.34239 0.0
C643 C 0.31743 0.68158 0.32557 0.0
C644 C 0.33137 0.70073 0.37146 0.0
C645 C 0.34989 0.72087 0.39026 0.0
C646 C 0.3748 0.72514 0.39307 0.0
C647 C 0.3921 0.7442 0.41085 0.0
C648 C 0.38459 0.75884 0.42623 0.0
C649 C 0.35981 0.75455 0.4238 0.0
C650 C 0.34247 0.7356 0.40593 0.0
C651 C 0.26301 0.59078 0.38435 0.0
C652 C 0.23741 0.58437 0.38665 0.0
C653 C 0.2818 0.61607 0.38068 0.0
C654 C 0.27525 0.63516 0.37957 0.0
C655 C 0.25039 0.62933 0.38556 0.0
C656 C 0.23149 0.60398 0.38918 0.0
C657 C 0.29316 0.65947 0.36652 0.0
C658 C 0.31014 0.67976 0.38323 0.0
C659 C 0.29616 0.66081 0.33734 0.0
C660 C 0.27788 0.64009 0.31898 0.0
C661 C 0.25256 0.6347 0.31713 0.0
C662 C 0.23523 0.61504 0.29997 0.0
C663 C 0.24302 0.60064 0.28452 0.0
C664 C 0.26822 0.60598 0.28614 0.0
C665 C 0.28565 0.62569 0.30323 0.0
H666 H 0.22958 0.58544 0.27122 0.0
H667 H 0.3979 0.77339 0.44016 0.0
H668 H 0.60591 0.38887 0.63762 0.0
H669 H 0.59415 0.34441 0.64409 0.0
H670 H 0.67337 0.36561 0.64205 0.0
H671 H 0.68536 0.40995 0.63567 0.0
H672 H 0.64143 0.31588 0.62447 0.0
H673 H 0.64974 0.37356 0.70102 0.0
H674 H 0.63694 0.40226 0.72278 0.0
H675 H 0.55974 0.34079 0.72784 0.0
H676 H 0.57205 0.31186 0.70556 0.0
H677 H 0.68474 0.26639 0.71831 0.0
H678 H 0.67316 0.29863 0.70834 0.0
H679 H 0.59383 0.24104 0.70681 0.0
H680 H 0.60509 0.20842 0.71675 0.0
H681 H 0.6133 0.30092 0.72315 0.0
H682 H 0.60933 0.24112 0.65231 0.0
H683 H 0.62602 0.21534 0.63178 0.0
H684 H 0.69775 0.28291 0.61656 0.0
H685 H 0.68155 0.30911 0.63772 0.0
C686 C 0.6208 0.38399 0.63743 0.0
C687 C 0.64665 0.40303 0.63722 0.0
C688 C 0.61399 0.35853 0.64104 0.0
C689 C 0.63296 0.35201 0.64439 0.0
C690 C 0.65847 0.3704 0.63981 0.0
C691 C 0.66531 0.39581 0.63631 0.0
C692 C 0.62743 0.32828 0.65862 0.0
C693 C 0.63475 0.31227 0.6458 0.0
C694 C 0.61879 0.3237 0.68656 0.0
C695 C 0.61172 0.34067 0.70135 0.0
C696 C 0.63003 0.36622 0.7067 0.0
C697 C 0.62285 0.38255 0.719 0.0
C698 C 0.59749 0.3734 0.72643 0.0
C699 C 0.57933 0.34787 0.72188 0.0
C700 C 0.58639 0.3315 0.70941 0.0
C701 C 0.66475 0.26062 0.71706 0.0
C702 C 0.6459 0.23475 0.71712 0.0
C703 C 0.65817 0.27913 0.71157 0.0
C704 C 0.63275 0.27195 0.70622 0.0
C705 C 0.61356 0.24677 0.71078 0.0
C706 C 0.62012 0.22816 0.71625 0.0
C707 C 0.62758 0.28886 0.68897 0.0
C708 C 0.61866 0.30374 0.70138 0.0
C709 C 0.63486 0.29253 0.66066 0.0
C710 C 0.64432 0.27701 0.64688 0.0
C711 C 0.62876 0.25044 0.64491 0.0
C712 C 0.63814 0.23575 0.63314 0.0
C713 C 0.66302 0.24743 0.62299 0.0
C714 C 0.6785 0.27387 0.62449 0.0
C715 C 0.66922 0.28866 0.63634 0.0
H716 H 0.67029 0.23606 0.61386 0.0
H717 H 0.59191 0.38601 0.73593 0.0
H718 H 0.21498 0.62029 0.01141 0.0
H719 H 0.25087 0.6133 0.01871 0.0
H720 H 0.30305 0.69224 0.99966 0.0
H721 H 0.26735 0.69956 0.99296 0.0
H722 H 0.28915 0.61862 0.98611 0.0
H723 H 0.35412 0.71479 0.03995 0.0
H724 H 0.35073 0.7466 0.06873 0.0
H725 H 0.27865 0.68854 0.09998 0.0
H726 H 0.28176 0.65623 0.0715 0.0
H727 H 0.42414 0.67998 0.98133 0.0
H728 H 0.37925 0.6682 0.98107 0.0
H729 H 0.36858 0.6307 0.06025 0.0
H730 H 0.41351 0.64166 0.0601 0.0
H731 H 0.35683 0.67419 0.05279 0.0
H732 H 0.33872 0.59323 0.01899 0.0
H733 H 0.34327 0.56279 0.98909 0.0
H734 H 0.3228 0.59105 0.91752 0.0
H735 H 0.31884 0.6222 0.94684 0.0
C736 C 0.2341 0.63609 0.00842 0.0
C737 C 0.23843 0.66054 1.00181 0.0
C738 C 0.25453 0.63206 0.01272 0.0
C739 C 0.27951 0.65239 0.01036 0.0
C740 C 0.28386 0.67648 1.0023 0.0
C741 C 0.26348 0.68059 0.9983 0.0
C742 C 0.30116 0.64861 0.01647 0.0
C743 C 0.30387 0.63057 1.00086 0.0
C744 C 0.32005 0.66399 0.03609 0.0
C745 C 0.31808 0.68313 0.05351 0.0
C746 C 0.33759 0.70877 0.05306 0.0
C747 C 0.33571 0.72688 0.06926 0.0
C748 C 0.31443 0.71956 0.0861 0.0
C749 C 0.29503 0.69412 0.08681 0.0
C750 C 0.29682 0.67592 0.07063 0.0
C751 C 0.41213 0.6691 0.99857 0.0
C752 C 0.42205 0.66197 0.02095 0.0
C753 C 0.38657 0.66214 0.99823 0.0
C754 C 0.37082 0.64842 0.02049 0.0
C755 C 0.38058 0.64103 0.04279 0.0
C756 C 0.40608 0.6474 0.04277 0.0
C757 C 0.34518 0.64494 0.02171 0.0
C758 C 0.34179 0.66177 0.03857 0.0
C759 C 0.32588 0.62868 1.00304 0.0
C760 C 0.32866 0.61023 0.98517 0.0
C761 C 0.33552 0.59322 0.99683 0.0
C762 C 0.33793 0.57577 0.97998 0.0
C763 C 0.3333 0.57496 0.95143 0.0
C764 C 0.32627 0.59162 0.93967 0.0
C765 C 0.324 0.60923 0.95639 0.0
H766 H 0.33519 0.56146 0.93842 0.0
H767 H 0.313 0.73361 0.09863 0.0
H768 H 0.46961 0.07422 0.31826 0.0
H769 H 0.46754 0.03299 0.32039 0.0
H770 H 0.54894 0.07083 0.33198 0.0
H771 H 0.55122 0.11217 0.32884 0.0
H772 H 0.5344 0.03363 0.29597 0.0
H773 H 0.50634 0.04195 0.38659 0.0
H774 H 0.48006 0.04922 0.42032 0.0
H775 H 0.41275 0.98432 0.38863 0.0
H776 H 0.43846 0.97689 0.35431 0.0
H777 H 0.5302 0.917 0.33284 0.0
H778 H 0.53734 0.96049 0.33412 0.0
H779 H 0.4576 0.93168 0.31782 0.0
H780 H 0.45025 0.88832 0.3169 0.0
H781 H 0.47465 0.96562 0.35967 0.0
H782 H 0.50159 0.95969 0.26684 0.0
H783 H 0.52699 0.95212 0.23221 0.0
H784 H 0.59581 0.01214 0.26804 0.0
H785 H 0.57081 0.01985 0.30313 0.0
C786 C 0.48704 0.07373 0.32126 0.0
C787 C 0.51056 0.09632 0.32342 0.0
C788 C 0.48583 0.05018 0.32265 0.0
C789 C 0.50804 0.04886 0.32686 0.0
C790 C 0.53158 0.07144 0.32881 0.0
C791 C 0.53285 0.09501 0.32701 0.0
C792 C 0.50673 0.02389 0.3286 0.0
C793 C 0.52166 0.0189 0.31025 0.0
C794 C 0.48979 0.00457 0.34692 0.0
C795 C 0.47434 0.00897 0.36772 0.0
C796 C 0.48592 0.02932 0.38667 0.0
C797 C 0.47113 0.03346 0.40591 0.0
C798 C 0.44479 0.01727 0.40661 0.0
C799 C 0.43316 0.99686 0.38807 0.0
C800 C 0.44782 0.99267 0.36872 0.0
C801 C 0.51423 0.91999 0.32945 0.0
C802 C 0.48968 0.89932 0.32475 0.0
C803 C 0.51835 0.9448 0.33012 0.0
C804 C 0.498 0.94923 0.32592 0.0
C805 C 0.47352 0.9286 0.32119 0.0
C806 C 0.46938 0.90387 0.32057 0.0
C807 C 0.50193 0.97528 0.32671 0.0
C808 C 0.48756 0.98048 0.34561 0.0
C809 C 0.51932 0.99475 0.30889 0.0
C810 C 0.53435 0.99014 0.2878 0.0
C811 C 0.52215 0.97113 0.26748 0.0
C812 C 0.53647 0.96684 0.24774 0.0
C813 C 0.563 0.98159 0.24798 0.0
C814 C 0.57526 0.0007 0.26791 0.0
C815 C 0.56103 0.00505 0.28772 0.0
H816 H 0.57406 0.97824 0.23267 0.0
H817 H 0.43341 0.02053 0.42154 0.0
H818 H 0.38952 0.47262 0.65582 0.0
H819 H 0.42519 0.46471 0.65866 0.0
H820 H 0.47734 0.54549 0.66653 0.0
H821 H 0.44185 0.55354 0.66264 0.0
H822 H 0.49441 0.52568 0.63028 0.0
H823 H 0.45908 0.50264 0.72262 0.0
H824 H 0.42532 0.47913 0.75725 0.0
H825 H 0.41576 0.40831 0.72703 0.0
H826 H 0.44912 0.43129 0.69191 0.0
H827 H 0.60317 0.51878 0.66882 0.0
H828 H 0.56712 0.52618 0.67053 0.0
H829 H 0.51534 0.44598 0.65762 0.0
H830 H 0.55119 0.43835 0.65627 0.0
H831 H 0.49823 0.46532 0.69714 0.0
H832 H 0.53077 0.48649 0.6043 0.0
H833 H 0.56359 0.50829 0.56836 0.0
H834 H 0.57723 0.58082 0.5981 0.0
H835 H 0.54472 0.55945 0.63449 0.0
C836 C 0.4086 0.48865 0.65825 0.0
C837 C 0.413 0.51369 0.65895 0.0
C838 C 0.42893 0.48411 0.66004 0.0
C839 C 0.45387 0.5045 0.6632 0.0
C840 C 0.45822 0.52949 0.66411 0.0
C841 C 0.43796 0.53407 0.66189 0.0
C842 C 0.47561 0.49995 0.66438 0.0
C843 C 0.49543 0.5128 0.64523 0.0
C844 C 0.4765 0.48249 0.68328 0.0
C845 C 0.45646 0.4687 0.70448 0.0
C846 C 0.44965 0.48205 0.72323 0.0
C847 C 0.43061 0.46882 0.74296 0.0
C848 C 0.4184 0.44228 0.74431 0.0
C849 C 0.42522 0.42888 0.72595 0.0
C850 C 0.44419 0.44199 0.70613 0.0
C851 C 0.58409 0.50272 0.66647 0.0
C852 C 0.57996 0.47802 0.66223 0.0
C853 C 0.56357 0.50699 0.66738 0.0
C854 C 0.53866 0.48665 0.66387 0.0
C855 C 0.53445 0.4619 0.66033 0.0
C856 C 0.55495 0.45761 0.65947 0.0
C857 C 0.51699 0.49124 0.66325 0.0
C858 C 0.49721 0.47833 0.68238 0.0
C859 C 0.51598 0.50847 0.6442 0.0
C860 C 0.53551 0.52138 0.6223 0.0
C861 C 0.54092 0.5071 0.60332 0.0
C862 C 0.55944 0.51937 0.58284 0.0
C863 C 0.57254 0.54593 0.581 0.0
C864 C 0.5671 0.56026 0.59958 0.0
C865 C 0.54862 0.54807 0.62013 0.0
H866 H 0.58686 0.5554 0.56512 0.0
H867 H 0.40368 0.4321 0.75961 0.0
H868 H 0.91647 0.38736 0.98534 0.0
H869 H 0.95914 0.42471 0.9848 0.0
H870 H 0.92679 0.47384 0.989 0.0
H871 H 0.88403 0.43659 0.98899 0.0
H872 H 0.96413 0.4905 0.95122 0.0
H873 H 0.95253 0.4626 0.04636 0.0
H874 H 0.94257 0.43178 0.08444 0.0
H875 H 0.00456 0.42116 0.05967 0.0
H876 H 0.01468 0.45167 0.02119 0.0
H877 H 0.0746 0.60476 0.9908 0.0
H878 H 0.03242 0.56686 0.98878 0.0
H879 H 0.06662 0.51934 0.98505 0.0
H880 H 0.10892 0.55718 0.9877 0.0
H881 H 0.02862 0.50146 0.02177 0.0
H882 H 0.04076 0.53044 0.92706 0.0
H883 H 0.05067 0.56168 0.88945 0.0
H884 H 0.98763 0.57071 0.91387 0.0
H885 H 0.97754 0.53977 0.95188 0.0
C886 C 0.91846 0.40612 0.98616 0.0
C887 C 0.89698 0.40911 0.9873 0.0
C888 C 0.94282 0.42741 0.98593 0.0
C889 C 0.94605 0.45197 0.98719 0.0
C890 C 0.92463 0.455 0.98804 0.0
C891 C 0.90026 0.43373 0.98811 0.0
C892 C 0.97181 0.47455 0.98751 0.0
C893 C 0.97817 0.49308 0.96683 0.0
C894 C 0.9902 0.47752 0.00753 0.0
C895 C 0.9842 0.45923 0.03073 0.0
C896 C 0.96391 0.45354 0.0489 0.0
C897 C 0.95826 0.43615 0.07058 0.0
C898 C 0.97288 0.42447 0.07443 0.0
C899 C 0.99323 0.4302 0.05665 0.0
C900 C -0.00106 0.44755 0.03491 0.0
C901 C 0.07314 0.58625 0.98943 0.0
C902 C 0.095 0.58388 0.98936 0.0
C903 C 0.04905 0.56464 0.98815 0.0
C904 C 0.04647 0.54036 0.98641 0.0
C905 C 0.06827 0.53795 0.98633 0.0
C906 C 0.09238 0.55955 0.98779 0.0
C907 C 0.02097 0.51743 0.98549 0.0
C908 C 0.01464 0.49884 1.00609 0.0
C909 C 0.00259 0.51445 0.96544 0.0
C910 C 0.00853 0.53294 0.94246 0.0
C911 C 0.02911 0.53922 0.92453 0.0
C912 C 0.03475 0.55685 0.90312 0.0
C913 C 0.01982 0.56822 0.89931 0.0
C914 C -0.00081 0.56191 0.91686 0.0
C915 C 0.99349 0.5443 0.93832 0.0
H916 H 0.02422 0.58187 0.88273 0.0
H917 H 0.96848 0.41101 0.09123 0.0
H918 H 0.10958 0.55676 0.36215 0.0
H919 H 0.06753 0.55264 0.35887 0.0
H920 H 0.03253 0.47142 0.37097 0.0
H921 H 0.0746 0.47533 0.37327 0.0
H922 H 0.00837 0.48161 0.33195 0.0
H923 H 0.03854 0.51209 0.42461 0.0
H924 H 0.06882 0.54133 0.45958 0.0
H925 H 0.06214 0.60314 0.4253 0.0
H926 H 0.03205 0.57431 0.38989 0.0
H927 H 0.88622 0.45023 0.37633 0.0
H928 H 0.92997 0.4588 0.37618 0.0
H929 H 0.95666 0.53744 0.35553 0.0
H930 H 0.91278 0.52911 0.35602 0.0
H931 H 0.98575 0.53124 0.39616 0.0
H932 H 0.95009 0.49718 0.30696 0.0
H933 H 0.91691 0.46552 0.27628 0.0
H934 H 0.93311 0.4082 0.30549 0.0
H935 H 0.96546 0.4392 0.33765 0.0
C936 C 0.0929 0.53803 0.36411 0.0
C937 C 0.09523 0.51636 0.36824 0.0
C938 C 0.06893 0.53572 0.36227 0.0
C939 C 0.04698 0.51179 0.36516 0.0
C940 C 0.04929 0.49006 0.36874 0.0
C941 C 0.07326 0.49232 0.37015 0.0
C942 C 0.02156 0.50938 0.36493 0.0
C943 C 0.00333 0.49227 0.34614 0.0
C944 C 0.01528 0.52378 0.38306 0.0
C945 C 0.03326 0.5411 0.40443 0.0
C946 C 0.04368 0.53195 0.42441 0.0
C947 C 0.06078 0.54845 0.44433 0.0
C948 C 0.06746 0.57409 0.44461 0.0
C949 C 0.05698 0.58328 0.42503 0.0
C950 C 0.03989 0.56687 0.40504 0.0
C951 C 0.90138 0.46938 0.37182 0.0
C952 C 0.89614 0.48898 0.36593 0.0
C953 C 0.92632 0.47421 0.37174 0.0
C954 C 0.94637 0.49864 0.36545 0.0
C955 C 0.94133 0.51845 0.36032 0.0
C956 C 0.91632 0.51364 0.3605 0.0
C957 C 0.97251 0.50317 0.36354 0.0
C958 C 0.99088 0.52074 0.38182 0.0
C959 C 0.97881 0.48897 0.34516 0.0
C960 C 0.96012 0.47053 0.32494 0.0
C961 C 0.94649 0.47779 0.30704 0.0
C962 C 0.92779 0.45994 0.28936 0.0
C963 C 0.92301 0.43489 0.28874 0.0
C964 C 0.93685 0.42762 0.30595 0.0
C965 C 0.9553 0.44531 0.32403 0.0
H966 H 0.90855 0.42112 0.27497 0.0
H967 H 0.0807 0.58683 0.46005 0.0
H968 H 0.60068 0.0736 0.69926 0.0
H969 H 0.56428 0.03026 0.69986 0.0
H970 H 0.51308 0.06026 0.70147 0.0
H971 H 0.54931 0.10357 0.70151 0.0
H972 H 0.49952 0.02322 0.73867 0.0
H973 H 0.52303 0.03551 0.64188 0.0
H974 H 0.55219 0.04591 0.60213 0.0
H975 H 0.5649 0.98451 0.6241 0.0
H976 H 0.53606 0.97395 0.66422 0.0
H977 H 0.38395 0.91439 0.69932 0.0
H978 H 0.42241 0.95631 0.70017 0.0
H979 H 0.46863 0.92078 0.70524 0.0
H980 H 0.43027 0.87876 0.70434 0.0
H981 H 0.4859 0.95942 0.66615 0.0
H982 H 0.46078 0.94606 0.7618 0.0
H983 H 0.43128 0.93556 0.80122 0.0
H984 H 0.42129 -0.00098 0.78106 0.0
H985 H 0.45046 0.00969 0.74125 0.0
C986 C 0.58165 0.07093 0.69964 0.0
C987 C 0.57778 0.0919 0.70032 0.0
C988 C 0.56091 0.0462 0.6999 0.0
C989 C 0.53604 0.04212 0.70046 0.0
C990 C 0.53216 0.06305 0.70107 0.0
C991 C 0.55286 0.08775 0.70102 0.0
C992 C 0.51394 0.01605 0.70089 0.0
C993 C 0.49637 0.00935 0.72264 0.0
C994 C 0.5103 -0.00217 0.68037 0.0
C995 C 0.5276 0.00411 0.65622 0.0
C996 C 0.5322 0.02436 0.63836 0.0
C997 C 0.54864 0.03026 0.61574 0.0
C998 C 0.56045 0.01593 0.61064 0.0
C999 C 0.55578 0.99562 0.6281 0.0
C1000 C 0.53937 0.98966 0.65077 0.0
C1001 C 0.4023 0.91551 0.70061 0.0
C1002 C 0.40416 0.89337 0.70183 0.0
C1003 C 0.4242 0.93942 0.7012 0.0
C1004 C 0.44823 0.94151 0.70301 0.0
C1005 C 0.45018 0.91945 0.7039 0.0
C1006 C 0.42829 0.89553 0.70346 0.0
C1007 C 0.47136 0.96679 0.70368 0.0
C1008 C 0.48913 0.97329 0.68221 0.0
C1009 C 0.47516 0.98487 0.72441 0.0
C1010 C 0.45763 0.97852 0.74837 0.0
C1011 C 0.45212 0.95765 0.76562 0.0
C1012 C 0.43549 0.95169 0.78807 0.0
C1013 C 0.42437 0.96657 0.7936 0.0
C1014 C 0.4299 0.98749 0.77673 0.0
C1015 C 0.4465 0.99351 0.75423 0.0
H1016 H 0.41151 0.96193 0.811 0.0
H1017 H 0.57317 0.02053 0.59311 0.0
H1018 H 0.4548 0.56506 0.02887 0.0
H1019 H 0.4603 0.52789 0.03053 0.0
H1020 H 0.54177 0.57698 0.03398 0.0
H1021 H 0.53645 0.61441 0.03199 0.0
H1022 H 0.52754 0.53779 0.99725 0.0
H1023 H 0.50983 0.54815 0.09196 0.0
H1024 H 0.48592 0.55357 0.13017 0.0
H1025 H 0.4202 0.48183 0.10971 0.0
H1026 H 0.44362 0.47614 0.07112 0.0
H1027 H 0.55581 0.44229 0.03906 0.0
H1028 H 0.55191 0.48048 0.03785 0.0
H1029 H 0.47025 0.4337 0.03227 0.0
H1030 H 0.47396 0.39535 0.03363 0.0
H1031 H 0.4856 0.47228 0.07071 0.0
H1032 H 0.5032 0.46176 0.97622 0.0
H1033 H 0.52726 0.45556 0.93892 0.0
H1034 H 0.59306 0.52747 0.95863 0.0
H1035 H 0.56957 0.53377 0.99671 0.0
C1036 C 0.4739 0.56798 0.03002 0.0
C1037 C 0.49521 0.59263 0.03044 0.0
C1038 C 0.47699 0.54673 0.03104 0.0
C1039 C 0.50142 0.54975 0.03271 0.0
C1040 C 0.52277 0.57432 0.03277 0.0
C1041 C 0.51969 0.59563 0.03172 0.0
C1042 C 0.50457 0.52717 0.0343 0.0
C1043 C 0.51871 0.52364 0.01354 0.0
C1044 C 0.49253 0.50851 0.05523 0.0
C1045 C 0.47842 0.51184 0.07849 0.0
C1046 C 0.49022 0.53362 0.09547 0.0
C1047 C 0.47677 0.53673 0.11722 0.0
C1048 C 0.45154 0.51808 0.12232 0.0
C1049 C 0.43974 0.49627 0.10572 0.0
C1050 C 0.4531 0.49308 0.08392 0.0
C1051 C 0.53702 0.44012 0.03756 0.0
C1052 C 0.51518 0.41587 0.03637 0.0
C1053 C 0.53485 0.46194 0.03681 0.0
C1054 C 0.51082 0.45982 0.03478 0.0
C1055 C 0.48896 0.43564 0.03384 0.0
C1056 C 0.49112 0.4138 0.03451 0.0
C1057 C 0.50848 0.48287 0.03364 0.0
C1058 C 0.49449 0.48647 0.05448 0.0
C1059 C 0.52065 0.50157 0.01278 0.0
C1060 C 0.53469 0.49811 0.98954 0.0
C1061 C 0.52286 0.47617 0.97278 0.0
C1062 C 0.5364 0.47264 0.95145 0.0
C1063 C 0.56169 0.4911 0.94637 0.0
C1064 C 0.57348 0.51316 0.96261 0.0
C1065 C 0.56006 0.51671 0.9841 0.0
H1066 H 0.57214 0.48833 0.92985 0.0
H1067 H 0.44116 0.52052 0.13917 0.0
H1068 H 0.48732 0.21131 0.29783 0.0
H1069 H 0.48156 0.235 0.25981 0.0
H1070 H 0.4678 0.17447 0.20277 0.0
H1071 H 0.47491 0.15165 0.24025 0.0
H1072 H 0.50161 0.21632 0.18175 0.0
H1073 H 0.42036 0.19034 0.22439 0.0
H1074 H 0.3916 0.18583 0.26289 0.0
H1075 H 0.42976 0.26711 0.2722 0.0
H1076 H 0.45894 0.2721 0.23398 0.0
H1077 H 0.48129 0.2758 0.06451 0.0
H1078 H 0.47213 0.24447 0.10168 0.0
H1079 H 0.48971 0.30264 0.16333 0.0
H1080 H 0.49835 0.33356 0.12668 0.0
H1081 H 0.4506 0.25953 0.18046 0.0
H1082 H 0.53445 0.28585 0.14475 0.0
H1083 H 0.56617 0.29275 0.10881 0.0
H1084 H 0.52509 0.21314 0.08835 0.0
H1085 H 0.49315 0.20578 0.12432 0.0
C1086 C 0.48249 0.20287 0.27731 0.0
C1087 C 0.48172 0.17974 0.27194 0.0
C1088 C 0.47912 0.21638 0.25553 0.0
C1089 C 0.47424 0.2066 0.22821 0.0
C1090 C 0.47177 0.18263 0.22346 0.0
C1091 C 0.47568 0.1695 0.24497 0.0
C1092 C 0.47409 0.22208 0.20406 0.0
C1093 C 0.48996 0.22526 0.18132 0.0
C1094 C 0.45963 0.23456 0.20363 0.0
C1095 C 0.44195 0.23157 0.22645 0.0
C1096 C 0.42271 0.20724 0.23476 0.0
C1097 C 0.40632 0.2046 0.25651 0.0
C1098 C 0.40889 0.22616 0.27002 0.0
C1099 C 0.4278 0.25042 0.26174 0.0
C1100 C 0.44424 0.25317 0.24 0.0
C1101 C 0.48278 0.28172 0.08599 0.0
C1102 C 0.49071 0.30719 0.09261 0.0
C1103 C 0.47771 0.26388 0.10723 0.0
C1104 C 0.48053 0.27125 0.1354 0.0
C1105 C 0.48735 0.29641 0.14187 0.0
C1106 C 0.49242 0.31413 0.12079 0.0
C1107 C 0.47792 0.25347 0.15827 0.0
C1108 C 0.46177 0.25008 0.18079 0.0
C1109 C 0.4923 0.24096 0.15873 0.0
C1110 C 0.5113 0.24532 0.13697 0.0
C1111 C 0.53211 0.26986 0.13244 0.0
C1112 C 0.55015 0.27384 0.11211 0.0
C1113 C 0.54759 0.25342 0.09618 0.0
C1114 C 0.52703 0.22895 0.10066 0.0
C1115 C 0.50899 0.22484 0.12107 0.0
H1116 H 0.56158 0.25654 0.08045 0.0
H1117 H 0.39619 0.22407 0.28687 0.0
H1118 H 0.15931 0.49501 0.4575 0.0
H1119 H 0.18411 0.4897 0.4939 0.0
H1120 H 0.23257 0.48434 0.43212 0.0
H1121 H 0.20755 0.48983 0.39501 0.0
H1122 H 0.22015 0.44991 0.48061 0.0
H1123 H 0.25459 0.53778 0.45897 0.0
H1124 H 0.25297 0.57682 0.449 0.0
H1125 H 0.22303 0.57406 0.53054 0.0
H1126 H 0.22401 0.53468 0.54083 0.0
H1127 H 0.32806 0.49069 0.57026 0.0
H1128 H 0.29786 0.48358 0.53303 0.0
H1129 H 0.24962 0.49358 0.59124 0.0
H1130 H 0.27982 0.50031 0.629 0.0
H1131 H 0.26225 0.52478 0.54342 0.0
H1132 H 0.22947 0.43654 0.56474 0.0
H1133 H 0.23185 0.3977 0.57332 0.0
H1134 H 0.26104 0.40219 0.491 0.0
H1135 H 0.25919 0.44129 0.48205 0.0
C1136 C 0.17499 0.49232 0.45147 0.0
C1137 C 0.18165 0.49315 0.42333 0.0
C1138 C 0.18915 0.48926 0.47239 0.0
C1139 C 0.21039 0.487 0.46578 0.0
C1140 C 0.21623 0.48611 0.43764 0.0
C1141 C 0.20195 0.48922 0.41648 0.0
C1142 C 0.22738 0.48786 0.4886 0.0
C1143 C 0.22971 0.46639 0.49411 0.0
C1144 C 0.23946 0.50923 0.5065 0.0
C1145 C 0.23912 0.53311 0.50057 0.0
C1146 C 0.24744 0.54536 0.4747 0.0
C1147 C 0.24667 0.56757 0.46899 0.0
C1148 C 0.23784 0.57787 0.4891 0.0
C1149 C 0.22983 0.56603 0.51498 0.0
C1150 C 0.2305 0.54376 0.52076 0.0
C1151 C 0.31078 0.4909 0.57531 0.0
C1152 C 0.30637 0.49618 0.60257 0.0
C1153 C 0.2935 0.48676 0.55397 0.0
C1154 C 0.27147 0.48804 0.55929 0.0
C1155 C 0.26652 0.49249 0.58668 0.0
C1156 C 0.2837 0.49622 0.60826 0.0
C1157 C 0.25485 0.48669 0.53575 0.0
C1158 C 0.25269 0.50823 0.53001 0.0
C1159 C 0.24327 0.46551 0.5175 0.0
C1160 C 0.24442 0.442 0.52282 0.0
C1161 C 0.23662 0.42939 0.54855 0.0
C1162 C 0.23783 0.40729 0.55346 0.0
C1163 C 0.24665 0.39752 0.53275 0.0
C1164 C 0.25424 0.40979 0.50704 0.0
C1165 C 0.25309 0.43191 0.50203 0.0
H1166 H 0.24757 0.3804 0.53659 0.0
H1167 H 0.23726 0.59508 0.48464 0.0
H1168 H 0.83484 0.3257 0.90252 0.0
H1169 H 0.81216 0.29662 0.8644 0.0
H1170 H 0.75606 0.24409 0.92208 0.0
H1171 H 0.77948 0.27306 0.96079 0.0
H1172 H 0.76468 0.21872 0.8811 0.0
H1173 H 0.74582 0.28648 0.88516 0.0
H1174 H 0.75567 0.33113 0.88714 0.0
H1175 H 0.79375 0.34597 0.80842 0.0
H1176 H 0.78445 0.30147 0.80616 0.0
H1177 H 0.66012 0.15841 0.78869 0.0
H1178 H 0.69088 0.18167 0.82518 0.0
H1179 H 0.7451 0.23021 0.76359 0.0
H1180 H 0.71395 0.20685 0.72657 0.0
H1181 H 0.73957 0.25734 0.80527 0.0
H1182 H 0.75453 0.18709 0.80037 0.0
H1183 H 0.74268 0.14183 0.79925 0.0
H1184 H 0.70931 0.1308 0.88034 0.0
H1185 H 0.72065 0.17593 0.8818 0.0
C1186 C 0.81791 0.30774 0.90721 0.0
C1187 C 0.80876 0.30174 0.93459 0.0
C1188 C 0.80488 0.29117 0.88534 0.0
C1189 C 0.782 0.26847 0.89019 0.0
C1190 C 0.77359 0.26161 0.91779 0.0
C1191 C 0.78696 0.27811 0.9399 0.0
C1192 C 0.76627 0.25297 0.86623 0.0
C1193 C 0.75897 0.22709 0.86467 0.0
C1194 C 0.75919 0.26397 0.84443 0.0
C1195 C 0.76465 0.2907 0.84563 0.0
C1196 C 0.75645 0.29931 0.86836 0.0
C1197 C 0.76192 0.32459 0.86953 0.0
C1198 C 0.77538 0.3414 0.84795 0.0
C1199 C 0.78335 0.33294 0.82513 0.0
C1200 C 0.77797 0.30769 0.82389 0.0
C1201 C 0.67872 0.1738 0.78276 0.0
C1202 C 0.68458 0.18082 0.7547 0.0
C1203 C 0.69638 0.18701 0.80373 0.0
C1204 C 0.72044 0.20757 0.79721 0.0
C1205 C 0.72667 0.21431 0.76911 0.0
C1206 C 0.70894 0.2009 0.74797 0.0
C1207 C 0.73802 0.22307 0.82003 0.0
C1208 C 0.74554 0.249 0.8215 0.0
C1209 C 0.745 0.212 0.84184 0.0
C1210 C 0.73829 0.18488 0.8411 0.0
C1211 C 0.74451 0.17498 0.81788 0.0
C1212 C 0.73791 0.14935 0.8172 0.0
C1213 C 0.72521 0.13344 0.83969 0.0
C1214 C 0.71914 0.14315 0.86294 0.0
C1215 C 0.72568 0.16876 0.86372 0.0
H1216 H 0.72011 0.1136 0.83912 0.0
H1217 H 0.7796 0.36096 0.84888 0.0
H1218 H 0.54186 0.72766 0.06956 0.0
H1219 H 0.54657 0.75619 0.10865 0.0
H1220 H 0.47153 0.70133 0.13748 0.0
H1221 H 0.46701 0.67301 0.0993 0.0
H1222 H 0.48045 0.75112 0.13807 0.0
H1223 H 0.521 0.70323 0.1673 0.0
H1224 H 0.55264 0.6892 0.16357 0.0
H1225 H 0.61324 0.76681 0.16946 0.0
H1226 H 0.5819 0.78133 0.17284 0.0
H1227 H 0.464 0.77253 0.27558 0.0
H1228 H 0.47023 0.75243 0.23474 0.0
H1229 H 0.54763 0.81416 0.22806 0.0
H1230 H 0.54147 0.83407 0.26971 0.0
H1231 H 0.5434 0.76805 0.21291 0.0
H1232 H 0.50294 0.81563 0.18938 0.0
H1233 H 0.47136 0.8297 0.1935 0.0
H1234 H 0.41112 0.75376 0.17594 0.0
H1235 H 0.44231 0.73914 0.17215 0.0
C1236 C 0.52634 0.72198 0.0841 0.0
C1237 C 0.50414 0.69811 0.0815 0.0
C1238 C 0.52908 0.73815 0.10647 0.0
C1239 C 0.50943 0.73081 0.12613 0.0
C1240 C 0.48694 0.70743 0.12268 0.0
C1241 C 0.48443 0.69122 0.10085 0.0
C1242 C 0.51199 0.74669 0.1509 0.0
C1243 C 0.49421 0.75481 0.15443 0.0
C1244 C 0.53033 0.75209 0.17199 0.0
C1245 C 0.54913 0.74338 0.16992 0.0
C1246 C 0.54107 0.71732 0.16751 0.0
C1247 C 0.55894 0.70927 0.16552 0.0
C1248 C 0.58494 0.72711 0.16617 0.0
C1249 C 0.5931 0.75303 0.16889 0.0
C1250 C 0.57529 0.76117 0.17084 0.0
C1251 C 0.48264 0.78129 0.26614 0.0
C1252 C 0.50245 0.8045 0.27622 0.0
C1253 C 0.48611 0.76998 0.24249 0.0
C1254 C 0.50928 0.78198 0.22795 0.0
C1255 C 0.52959 0.80453 0.23887 0.0
C1256 C 0.52613 0.81581 0.26274 0.0
C1257 C 0.51134 0.77182 0.2004 0.0
C1258 C 0.52994 0.7648 0.19636 0.0
C1259 C 0.4938 0.76751 0.17868 0.0
C1260 C 0.47497 0.77625 0.18068 0.0
C1261 C 0.48294 0.80189 0.18658 0.0
C1262 C 0.46511 0.80997 0.18884 0.0
C1263 C 0.43925 0.79263 0.18503 0.0
C1264 C 0.43116 0.76717 0.1789 0.0
C1265 C 0.44891 0.75898 0.17666 0.0
H1266 H 0.42547 0.79892 0.18679 0.0
H1267 H 0.59875 0.72085 0.16465 0.0
H1268 H 0.65543 0.48312 0.56832 0.0
H1269 H 0.68453 0.48971 0.53056 0.0
H1270 H 0.74613 0.51306 0.58909 0.0
H1271 H 0.71659 0.50603 0.62777 0.0
H1272 H 0.75711 0.5439 0.53568 0.0
H1273 H 0.72735 0.45931 0.56829 0.0
H1274 H 0.69566 0.41649 0.58463 0.0
H1275 H 0.65561 0.40157 0.50702 0.0
H1276 H 0.68708 0.44443 0.4902 0.0
H1277 H 0.83399 0.51443 0.44552 0.0
H1278 H 0.81044 0.51969 0.48364 0.0
H1279 H 0.7454 0.49532 0.42987 0.0
H1280 H 0.7694 0.49095 0.3911 0.0
H1281 H 0.7378 0.46629 0.48212 0.0
H1282 H 0.77018 0.55156 0.44927 0.0
H1283 H 0.80315 0.59425 0.43389 0.0
H1284 H 0.84005 0.60781 0.51339 0.0
H1285 H 0.80749 0.565 0.52912 0.0
C1286 C 0.67519 0.48986 0.5734 0.0
C1287 C 0.68363 0.49388 0.6012 0.0
C1288 C 0.69182 0.49364 0.55165 0.0
C1289 C 0.71741 0.5017 0.55699 0.0
C1290 C 0.72638 0.50684 0.58457 0.0
C1291 C 0.70953 0.50281 0.60661 0.0
C1292 C 0.73391 0.5031 0.53349 0.0
C1293 C 0.75326 0.52693 0.52424 0.0
C1294 C 0.72843 0.48099 0.5182 0.0
C1295 C 0.70941 0.45519 0.52811 0.0
C1296 C 0.71165 0.447 0.5548 0.0
C1297 C 0.69375 0.4227 0.56414 0.0
C1298 C 0.67352 0.40637 0.54697 0.0
C1299 C 0.67125 0.41427 0.52033 0.0
C1300 C 0.68915 0.43854 0.51085 0.0
C1301 C 0.8149 0.51088 0.44158 0.0
C1302 C 0.80348 0.50224 0.41537 0.0
C1303 C 0.80148 0.51388 0.4634 0.0
C1304 C 0.77616 0.50781 0.45963 0.0
C1305 C 0.76496 0.50014 0.43316 0.0
C1306 C 0.77869 0.49776 0.41102 0.0
C1307 C 0.76092 0.50713 0.48408 0.0
C1308 C 0.74175 0.48331 0.49354 0.0
C1309 C 0.76686 0.52923 0.49967 0.0
C1310 C 0.78654 0.55493 0.49026 0.0
C1311 C 0.78548 0.56352 0.46338 0.0
C1312 C 0.80406 0.58777 0.45462 0.0
C1313 C 0.82373 0.6037 0.47262 0.0
C1314 C 0.82482 0.59543 0.49945 0.0
C1315 C 0.80629 0.57117 0.5083 0.0
H1316 H 0.83808 0.62248 0.46581 0.0
H1317 H 0.65967 0.38757 0.55427 0.0
H1318 H 0.18954 0.72325 0.96063 0.0
H1319 H 0.21125 0.75307 0.92183 0.0
H1320 H 0.21085 0.69232 0.87485 0.0
H1321 H 0.18977 0.66308 0.91282 0.0
H1322 H 0.2556 0.73325 0.87051 0.0
H1323 H 0.16835 0.71222 0.86166 0.0
H1324 H 0.12803 0.70899 0.87668 0.0
H1325 H 0.16561 0.79018 0.88669 0.0
H1326 H 0.20628 0.79385 0.87209 0.0
H1327 H 0.26902 0.77473 0.729 0.0
H1328 H 0.24158 0.75312 0.76919 0.0
H1329 H 0.28401 0.82094 0.81848 0.0
H1330 H 0.31209 0.84211 0.77897 0.0
H1331 H 0.21876 0.77999 0.82259 0.0
H1332 H 0.30818 0.79677 0.83859 0.0
H1333 H 0.34604 0.79801 0.81806 0.0
H1334 H 0.29988 0.72105 0.7894 0.0
H1335 H 0.26173 0.71951 0.80962 0.0
C1336 C 0.19426 0.71643 0.94205 0.0
C1337 C 0.18778 0.69075 0.93984 0.0
C1338 C 0.20653 0.7334 0.91984 0.0
C1339 C 0.21261 0.72492 0.89525 0.0
C1340 C 0.2065 0.69943 0.89348 0.0
C1341 C 0.19426 0.68264 0.91533 0.0
C1342 C 0.22523 0.74204 0.87099 0.0
C1343 C 0.24744 0.74345 0.86024 0.0
C1344 C 0.21476 0.75541 0.85722 0.0
C1345 C 0.19042 0.75327 0.86617 0.0
C1346 C 0.16807 0.72936 0.86735 0.0
C1347 C 0.14515 0.72745 0.87572 0.0
C1348 C 0.14428 0.74936 0.88274 0.0
C1349 C 0.16633 0.77322 0.88132 0.0
C1350 C 0.18933 0.77523 0.873 0.0
C1351 C 0.27194 0.78525 0.74811 0.0
C1352 C 0.29274 0.81002 0.75094 0.0
C1353 C 0.25625 0.77293 0.77105 0.0
C1354 C 0.26077 0.78549 0.79678 0.0
C1355 C 0.28007 0.81099 0.79879 0.0
C1356 C 0.2961 0.82303 0.77619 0.0
C1357 C 0.24878 0.77091 0.82255 0.0
C1358 C 0.22689 0.76999 0.83335 0.0
C1359 C 0.25922 0.75766 0.8363 0.0
C1360 C 0.28221 0.75805 0.8255 0.0
C1361 C 0.30617 0.78013 0.82793 0.0
C1362 C 0.32765 0.7809 0.81634 0.0
C1363 C 0.32536 0.75963 0.80241 0.0
C1364 C 0.30162 0.7375 0.8002 0.0
C1365 C 0.28008 0.73665 0.81176 0.0
H1366 H 0.34199 0.76029 0.79334 0.0
H1367 H 0.1265 0.74785 0.88919 0.0
loop_
_geom_bond_atom_site_label_1
_geom_bond_atom_site_label_2
_geom_bond_distance
_geom_bond_site_symmetry_2
_ccdc_geom_bond_type
Co0 O1 2.216 . S
Co0 O2 2.091 . S
Co0 O4 2.004 . S
Co0 O10 2.021 . S
Co0 O12 2.137 . S
Co0 O13 2.244 . S
O1 Co0 2.216 . S
O1 C8 1.247 . S
O2 Co0 2.091 . S
O2 C8 1.261 . S
C3 O12 1.247 . S
C3 O13 1.272 . S
O4 Co0 2.004 . S
O4 C9 1.259 . S
Co5 O6 2.061 . S
Co5 O11 2.052 . S
Co5 O13 2.135 . S
O6 Co5 2.061 . S
O6 C9 1.235 . S
C7 O10 1.238 . S
C7 O11 1.241 . S
C8 O1 1.247 . S
C8 O2 1.261 . S
C9 O4 1.259 . S
C9 O6 1.235 . S
O10 Co0 2.021 . S
O10 C7 1.238 . S
O11 Co5 2.052 . S
O11 C7 1.241 . S
O12 Co0 2.137 . S
O12 C3 1.247 . S
O13 Co0 2.244 . S
O13 C3 1.272 . S
O13 Co5 2.135 . S
Co14 O15 2.216 . S
Co14 O16 2.091 . S
Co14 O18 2.004 . S
Co14 O24 2.021 . S
Co14 O26 2.137 . S
Co14 O27 2.244 . S
O15 Co14 2.216 . S
O15 C22 1.247 . S
O16 Co14 2.091 . S
O16 C22 1.261 . S
C17 O26 1.247 . S
C17 O27 1.272 . S
O18 Co14 2.004 . S
O18 C23 1.259 . S
Co19 O20 2.061 . S
Co19 O25 2.052 . S
Co19 O27 2.135 . S
O20 Co19 2.061 . S
O20 C23 1.235 . S
C21 O24 1.238 . S
C21 O25 1.241 . S
C22 O15 1.247 . S
C22 O16 1.261 . S
C23 O18 1.259 . S
C23 O20 1.235 . S
O24 Co14 2.021 . S
O24 C21 1.238 . S
O25 Co19 2.052 . S
O25 C21 1.241 . S
O26 Co14 2.137 . S
O26 C17 1.247 . S
O27 Co14 2.244 . S
O27 C17 1.272 . S
O27 Co19 2.135 . S
Co28 O29 2.216 . S
Co28 O30 2.091 . S
Co28 O32 2.004 . S
Co28 O38 2.021 1_556 S
Co28 O40 2.137 . S
Co28 O41 2.244 . S
O29 Co28 2.216 . S
O29 C36 1.247 . S
O30 Co28 2.091 . S
O30 C36 1.261 . S
C31 O40 1.247 . S
C31 O41 1.272 . S
O32 Co28 2.004 . S
O32 C37 1.259 . S
Co33 O34 2.061 . S
Co33 O39 2.052 . S
Co33 O41 2.135 1_554 S
O34 Co33 2.061 . S
O34 C37 1.235 1_554 S
C35 O38 1.238 . S
C35 O39 1.241 . S
C36 O29 1.247 . S
C36 O30 1.261 . S
C37 O32 1.259 . S
C37 O34 1.235 1_556 S
O38 Co28 2.021 1_554 S
O38 C35 1.238 . S
O39 Co33 2.052 . S
O39 C35 1.241 . S
O40 Co28 2.137 . S
O40 C31 1.247 . S
O41 Co28 2.244 . S
O41 C31 1.272 . S
O41 Co33 2.135 1_556 S
Co42 O43 2.216 . S
Co42 O44 2.091 . S
Co42 O46 2.004 . S
Co42 O52 2.021 . S
Co42 O54 2.137 . S
Co42 O55 2.244 . S
O43 Co42 2.216 . S
O43 C50 1.247 . S
O44 Co42 2.091 . S
O44 C50 1.261 . S
C45 O54 1.247 . S
C45 O55 1.272 . S
O46 Co42 2.004 . S
O46 C51 1.259 . S
Co47 O48 2.061 . S
Co47 O53 2.052 . S
Co47 O55 2.135 . S
O48 Co47 2.061 . S
O48 C51 1.235 . S
C49 O52 1.238 . S
C49 O53 1.241 . S
C50 O43 1.247 . S
C50 O44 1.261 . S
C51 O46 1.259 . S
C51 O48 1.235 . S
O52 Co42 2.021 . S
O52 C49 1.238 . S
O53 Co47 2.052 . S
O53 C49 1.241 . S
O54 Co42 2.137 . S
O54 C45 1.247 . S
O55 Co42 2.244 . S
O55 C45 1.272 . S
O55 Co47 2.135 . S
Co56 O57 2.216 . S
Co56 O58 2.091 . S
Co56 O60 2.004 . S
Co56 O66 2.021 . S
Co56 O68 2.137 . S
Co56 O69 2.244 . S
O57 Co56 2.216 . S
O57 C64 1.247 . S
O58 Co56 2.091 . S
O58 C64 1.261 . S
C59 O68 1.247 . S
C59 O69 1.272 . S
O60 Co56 2.004 . S
O60 C65 1.259 . S
Co61 O62 2.061 . S
Co61 O67 2.052 . S
Co61 O69 2.135 . S
O62 Co61 2.061 . S
O62 C65 1.235 . S
C63 O66 1.238 . S
C63 O67 1.241 . S
C64 O57 1.247 . S
C64 O58 1.261 . S
C65 O60 1.259 . S
C65 O62 1.235 . S
O66 Co56 2.021 . S
O66 C63 1.238 . S
O67 Co61 2.052 . S
O67 C63 1.241 . S
O68 Co56 2.137 . S
O68 C59 1.247 . S
O69 Co56 2.244 . S
O69 C59 1.272 . S
O69 Co61 2.135 . S
Co70 O71 2.216 . S
Co70 O72 2.091 . S
Co70 O74 2.004 . S
Co70 O80 2.021 1_556 S
Co70 O82 2.137 . S
Co70 O83 2.244 . S
O71 Co70 2.216 . S
O71 C78 1.247 . S
O72 Co70 2.091 . S
O72 C78 1.261 . S
C73 O82 1.247 . S
C73 O83 1.272 . S
O74 Co70 2.004 . S
O74 C79 1.259 . S
Co75 O76 2.061 . S
Co75 O81 2.052 . S
Co75 O83 2.135 1_554 S
O76 Co75 2.061 . S
O76 C79 1.235 1_554 S
C77 O80 1.238 . S
C77 O81 1.241 . S
C78 O71 1.247 . S
C78 O72 1.261 . S
C79 O74 1.259 . S
C79 O76 1.235 1_556 S
O80 Co70 2.021 1_554 S
O80 C77 1.238 . S
O81 Co75 2.052 . S
O81 C77 1.241 . S
O82 Co70 2.137 . S
O82 C73 1.247 . S
O83 Co70 2.244 . S
O83 C73 1.272 . S
O83 Co75 2.135 1_556 S
Co84 O85 2.216 . S
Co84 O86 2.091 . S
Co84 O88 2.004 . S
Co84 O94 2.021 . S
Co84 O96 2.137 . S
Co84 O97 2.244 . S
O85 Co84 2.216 . S
O85 C92 1.247 . S
O86 Co84 2.091 . S
O86 C92 1.261 . S
C87 O96 1.247 . S
C87 O97 1.272 . S
O88 Co84 2.004 . S
O88 C93 1.259 . S
Co89 O90 2.061 . S
Co89 O95 2.052 . S
Co89 O97 2.135 . S
O90 Co89 2.061 . S
O90 C93 1.235 . S
C91 O94 1.238 . S
C91 O95 1.241 . S
C92 O85 1.247 . S
C92 O86 1.261 . S
C93 O88 1.259 . S
C93 O90 1.235 . S
O94 Co84 2.021 . S
O94 C91 1.238 . S
O95 Co89 2.052 . S
O95 C91 1.241 . S
O96 Co84 2.137 . S
O96 C87 1.247 . S
O97 Co84 2.244 . S
O97 C87 1.272 . S
O97 Co89 2.135 . S
Co98 O99 2.216 . S
Co98 O100 2.091 . S
Co98 O102 2.004 . S
Co98 O108 2.021 . S
Co98 O110 2.137 . S
Co98 O111 2.244 . S
O99 Co98 2.216 . S
O99 C106 1.247 . S
O100 Co98 2.091 . S
O100 C106 1.261 . S
C101 O110 1.247 . S
C101 O111 1.272 . S
O102 Co98 2.004 . S
O102 C107 1.259 . S
Co103 O104 2.061 . S
Co103 O109 2.052 . S
Co103 O111 2.135 . S
O104 Co103 2.061 . S
O104 C107 1.235 . S
C105 O108 1.238 . S
C105 O109 1.241 . S
C106 O99 1.247 . S
C106 O100 1.261 . S
C107 O102 1.259 . S
C107 O104 1.235 . S
O108 Co98 2.021 . S
O108 C105 1.238 . S
O109 Co103 2.052 . S
O109 C105 1.241 . S
O110 Co98 2.137 . S
O110 C101 1.247 . S
O111 Co98 2.244 . S
O111 C101 1.272 . S
O111 Co103 2.135 . S
Co112 O113 2.216 . S
Co112 O114 2.091 . S
Co112 O116 2.004 . S
Co112 O122 2.021 1_554 S
Co112 O124 2.137 . S
Co112 O125 2.244 . S
O113 Co112 2.216 . S
O113 C120 1.247 . S
O114 Co112 2.091 . S
O114 C120 1.261 . S
C115 O124 1.247 . S
C115 O125 1.272 . S
O116 Co112 2.004 . S
O116 C121 1.259 . S
Co117 O118 2.058 1_556 S
Co117 O123 2.063 . S
Co117 O125 2.123 1_556 S
O118 Co117 2.058 1_554 S
O118 C121 1.235 . S
C119 O122 1.238 . S
C119 O123 1.241 . S
C120 O113 1.247 . S
C120 O114 1.261 . S
C121 O116 1.259 . S
C121 O118 1.235 . S
O122 Co112 2.021 1_556 S
O122 C119 1.238 . S
O123 Co117 2.063 . S
O123 C119 1.241 . S
O124 Co112 2.137 . S
O124 C115 1.247 . S
O125 Co112 2.244 . S
O125 C115 1.272 . S
O125 Co117 2.123 1_554 S
Co126 O127 2.216 . S
Co126 O128 2.091 . S
Co126 O130 2.004 . S
Co126 O136 2.021 . S
Co126 O138 2.137 . S
Co126 O139 2.244 . S
O127 Co126 2.216 . S
O127 C134 1.247 . S
O128 Co126 2.091 . S
O128 C134 1.261 . S
C129 O138 1.247 . S
C129 O139 1.272 . S
O130 Co126 2.004 . S
O130 C135 1.259 . S
Co131 O132 2.061 . S
Co131 O137 2.052 . S
Co131 O139 2.135 . S
O132 Co131 2.061 . S
O132 C135 1.235 . S
C133 O136 1.238 . S
C133 O137 1.241 . S
C134 O127 1.247 . S
C134 O128 1.261 . S
C135 O130 1.259 . S
C135 O132 1.235 . S
O136 Co126 2.021 . S
O136 C133 1.238 . S
O137 Co131 2.052 . S
O137 C133 1.241 . S
O138 Co126 2.137 . S
O138 C129 1.247 . S
O139 Co126 2.244 . S
O139 C129 1.272 . S
O139 Co131 2.135 . S
Co140 O141 2.216 . S
Co140 O142 2.091 . S
Co140 O144 2.004 . S
Co140 O150 2.021 . S
Co140 O152 2.137 . S
Co140 O153 2.244 . S
O141 Co140 2.216 . S
O141 C148 1.247 . S
O142 Co140 2.091 . S
O142 C148 1.261 . S
C143 O152 1.247 . S
C143 O153 1.272 . S
O144 Co140 2.004 . S
O144 C149 1.259 . S
Co145 O146 2.061 . S
Co145 O151 2.052 . S
Co145 O153 2.135 . S
O146 Co145 2.061 . S
O146 C149 1.235 . S
C147 O150 1.238 . S
C147 O151 1.241 . S
C148 O141 1.247 . S
C148 O142 1.261 . S
C149 O144 1.259 . S
C149 O146 1.235 . S
O150 Co140 2.021 . S
O150 C147 1.238 . S
O151 Co145 2.052 . S
O151 C147 1.241 . S
O152 Co140 2.137 . S
O152 C143 1.247 . S
O153 Co140 2.244 . S
O153 C143 1.272 . S
O153 Co145 2.135 . S
Co154 O155 2.216 . S
Co154 O156 2.091 . S
Co154 O158 2.004 . S
Co154 O164 2.021 1_554 S
Co154 O166 2.137 . S
Co154 O167 2.244 . S
O155 Co154 2.216 . S
O155 C162 1.247 . S
O156 Co154 2.091 . S
O156 C162 1.261 . S
C157 O166 1.247 . S
C157 O167 1.272 . S
O158 Co154 2.004 . S
O158 C163 1.259 . S
Co159 O160 2.058 1_556 S
Co159 O165 2.063 . S
Co159 O167 2.123 1_556 S
O160 Co159 2.058 1_554 S
O160 C163 1.235 . S
C161 O164 1.238 . S
C161 O165 1.241 . S
C162 O155 1.247 . S
C162 O156 1.261 . S
C163 O158 1.259 . S
C163 O160 1.235 . S
O164 Co154 2.021 1_556 S
O164 C161 1.238 . S
O165 Co159 2.063 . S
O165 C161 1.241 . S
O166 Co154 2.137 . S
O166 C157 1.247 . S
O167 Co154 2.244 . S
O167 C157 1.272 . S
O167 Co159 2.123 1_554 S
H168 C186 0.951 . S
H169 C188 0.951 . S
H170 C190 0.950 . S
H171 C191 0.950 . S
H172 C193 0.950 . S
H173 C196 0.950 . S
H174 C197 0.950 . S
H175 C199 0.950 . S
H176 C200 0.950 . S
H177 C201 0.951 . S
H178 C203 0.951 . S
H179 C205 0.950 . S
H180 C206 0.950 . S
H181 C208 0.950 . S
H182 C211 0.950 . S
H183 C212 0.950 . S
H184 C214 0.950 . S
H185 C215 0.950 . S
C186 H168 0.951 . S
C186 C187 1.366 . S
C186 C188 1.388 . S
C187 C186 1.366 . S
C187 C191 1.385 . S
C188 H169 0.951 . S
C188 C186 1.388 . S
C188 C189 1.366 . S
C189 C188 1.366 . S
C189 C190 1.414 . S
C189 C192 1.499 . S
C190 H170 0.950 . S
C190 C189 1.414 . S
C190 C191 1.374 . S
C191 H171 0.950 . S
C191 C187 1.385 . S
C191 C190 1.374 . S
C192 C189 1.499 . S
C192 C193 1.373 . S
C192 C194 1.389 . S
C193 H172 0.950 . S
C193 C192 1.373 . S
C193 C209 1.377 . S
C194 C192 1.389 . S
C194 C195 1.524 . S
C194 C208 1.377 . S
C195 C194 1.524 . S
C195 C196 1.397 . S
C195 C200 1.363 . S
C196 H173 0.950 . S
C196 C195 1.397 . S
C196 C197 1.334 . S
C197 H174 0.950 . S
C197 C196 1.334 . S
C197 C198 1.287 . S
C198 C197 1.287 . S
C198 C199 1.524 . S
C198 H217 0.913 . S
C199 H175 0.950 . S
C199 C198 1.524 . S
C199 C200 1.415 . S
C200 H176 0.950 . S
C200 C195 1.363 . S
C200 C199 1.415 . S
C201 H177 0.951 . S
C201 C202 1.366 . S
C201 C203 1.388 . S
C202 C201 1.366 . S
C202 C206 1.385 . S
C203 H178 0.951 . S
C203 C201 1.388 . S
C203 C204 1.366 . S
C204 C203 1.366 . S
C204 C205 1.414 . S
C204 C207 1.499 . S
C205 H179 0.950 . S
C205 C204 1.414 . S
C205 C206 1.374 . S
C206 H180 0.950 . S
C206 C202 1.385 . S
C206 C205 1.374 . S
C207 C204 1.499 . S
C207 C208 1.373 . S
C207 C209 1.389 . S
C208 H181 0.950 . S
C208 C194 1.377 . S
C208 C207 1.373 . S
C209 C193 1.377 . S
C209 C207 1.389 . S
C209 C210 1.524 . S
C210 C209 1.524 . S
C210 C211 1.397 . S
C210 C215 1.363 . S
C211 H182 0.950 . S
C211 C210 1.397 . S
C211 C212 1.334 . S
C212 H183 0.950 . S
C212 C211 1.334 . S
C212 C213 1.287 . S
C213 C212 1.287 . S
C213 C214 1.524 . S
C213 H216 0.999 . S
C214 H184 0.950 . S
C214 C213 1.524 . S
C214 C215 1.415 . S
C215 H185 0.950 . S
C215 C210 1.363 . S
C215 C214 1.415 . S
H216 C213 0.999 . S
H217 C198 0.913 . S
H218 C236 0.951 . S
H219 C238 0.951 . S
H220 C240 0.950 . S
H221 C241 0.950 . S
H222 C243 0.950 . S
H223 C246 0.950 . S
H224 C247 0.950 . S
H225 C249 0.950 . S
H226 C250 0.950 . S
H227 C251 0.951 . S
H228 C253 0.951 . S
H229 C255 0.950 . S
H230 C256 0.950 . S
H231 C258 0.950 . S
H232 C261 0.950 . S
H233 C262 0.950 . S
H234 C264 0.950 . S
H235 C265 0.950 . S
C236 H218 0.951 . S
C236 C237 1.366 . S
C236 C238 1.388 . S
C237 C236 1.366 . S
C237 C241 1.385 . S
C238 H219 0.951 . S
C238 C236 1.388 . S
C238 C239 1.366 . S
C239 C238 1.366 . S
C239 C240 1.414 . S
C239 C242 1.499 . S
C240 H220 0.950 . S
C240 C239 1.414 . S
C240 C241 1.374 . S
C241 H221 0.950 . S
C241 C237 1.385 . S
C241 C240 1.374 . S
C242 C239 1.499 . S
C242 C243 1.373 . S
C242 C244 1.389 . S
C243 H222 0.950 . S
C243 C242 1.373 . S
C243 C259 1.377 . S
C244 C242 1.389 . S
C244 C245 1.524 . S
C244 C258 1.377 . S
C245 C244 1.524 . S
C245 C246 1.397 . S
C245 C250 1.363 . S
C246 H223 0.950 . S
C246 C245 1.397 . S
C246 C247 1.334 . S
C247 H224 0.950 . S
C247 C246 1.334 . S
C247 C248 1.287 . S
C248 C247 1.287 . S
C248 C249 1.524 . S
C248 H267 0.913 . S
C249 H225 0.950 . S
C249 C248 1.524 . S
C249 C250 1.415 . S
C250 H226 0.950 . S
C250 C245 1.363 . S
C250 C249 1.415 . S
C251 H227 0.951 . S
C251 C252 1.366 . S
C251 C253 1.388 . S
C252 C251 1.366 . S
C252 C256 1.385 . S
C253 H228 0.951 . S
C253 C251 1.388 . S
C253 C254 1.366 . S
C254 C253 1.366 . S
C254 C255 1.414 . S
C254 C257 1.499 . S
C255 H229 0.950 . S
C255 C254 1.414 . S
C255 C256 1.374 . S
C256 H230 0.950 . S
C256 C252 1.385 . S
C256 C255 1.374 . S
C257 C254 1.499 . S
C257 C258 1.373 . S
C257 C259 1.389 . S
C258 H231 0.950 . S
C258 C244 1.377 . S
C258 C257 1.373 . S
C259 C243 1.377 . S
C259 C257 1.389 . S
C259 C260 1.524 . S
C260 C259 1.524 . S
C260 C261 1.397 . S
C260 C265 1.363 . S
C261 H232 0.950 . S
C261 C260 1.397 . S
C261 C262 1.334 . S
C262 H233 0.950 . S
C262 C261 1.334 . S
C262 C263 1.287 . S
C263 C262 1.287 . S
C263 C264 1.524 . S
C263 H266 0.999 . S
C264 H234 0.950 . S
C264 C263 1.524 . S
C264 C265 1.415 . S
C265 H235 0.950 . S
C265 C260 1.363 . S
C265 C264 1.415 . S
H266 C263 0.999 . S
H267 C248 0.913 . S
H268 C286 0.951 . S
H269 C288 0.951 . S
H270 C290 0.950 . S
H271 C291 0.950 . S
H272 C293 0.950 . S
H273 C296 0.950 . S
H274 C297 0.950 . S
H275 C299 0.950 . S
H276 C300 0.950 . S
H277 C301 0.951 . S
H278 C303 0.951 . S
H279 C305 0.950 . S
H280 C306 0.950 . S
H281 C308 0.950 . S
H282 C311 0.950 . S
H283 C312 0.950 . S
H284 C314 0.950 . S
H285 C315 0.950 . S
C286 H268 0.951 . S
C286 C287 1.366 . S
C286 C288 1.388 . S
C287 C286 1.366 . S
C287 C291 1.385 . S
C288 H269 0.951 . S
C288 C286 1.388 . S
C288 C289 1.366 . S
C289 C288 1.366 . S
C289 C290 1.414 . S
C289 C292 1.499 . S
C290 H270 0.950 . S
C290 C289 1.414 . S
C290 C291 1.374 . S
C291 H271 0.950 . S
C291 C287 1.385 . S
C291 C290 1.374 . S
C292 C289 1.499 . S
C292 C293 1.373 . S
C292 C294 1.389 . S
C293 H272 0.950 . S
C293 C292 1.373 . S
C293 C309 1.377 . S
C294 C292 1.389 . S
C294 C295 1.524 . S
C294 C308 1.377 . S
C295 C294 1.524 . S
C295 C296 1.397 . S
C295 C300 1.363 . S
C296 H273 0.950 . S
C296 C295 1.397 . S
C296 C297 1.334 . S
C297 H274 0.950 . S
C297 C296 1.334 . S
C297 C298 1.287 . S
C298 C297 1.287 . S
C298 C299 1.524 . S
C298 H317 0.913 . S
C299 H275 0.950 . S
C299 C298 1.524 . S
C299 C300 1.415 . S
C300 H276 0.950 . S
C300 C295 1.363 . S
C300 C299 1.415 . S
C301 H277 0.951 . S
C301 C302 1.366 . S
C301 C303 1.388 . S
C302 C301 1.366 . S
C302 C306 1.385 . S
C303 H278 0.951 . S
C303 C301 1.388 . S
C303 C304 1.366 . S
C304 C303 1.366 . S
C304 C305 1.414 . S
C304 C307 1.499 . S
C305 H279 0.950 . S
C305 C304 1.414 . S
C305 C306 1.374 . S
C306 H280 0.950 . S
C306 C302 1.385 . S
C306 C305 1.374 . S
C307 C304 1.499 . S
C307 C308 1.373 . S
C307 C309 1.389 . S
C308 H281 0.950 . S
C308 C294 1.377 . S
C308 C307 1.373 . S
C309 C293 1.377 . S
C309 C307 1.389 . S
C309 C310 1.524 . S
C310 C309 1.524 . S
C310 C311 1.397 . S
C310 C315 1.363 . S
C311 H282 0.950 . S
C311 C310 1.397 . S
C311 C312 1.334 . S
C312 H283 0.950 . S
C312 C311 1.334 . S
C312 C313 1.287 . S
C313 C312 1.287 . S
C313 C314 1.524 . S
C313 H316 0.999 . S
C314 H284 0.950 . S
C314 C313 1.524 . S
C314 C315 1.415 . S
C315 H285 0.950 . S
C315 C310 1.363 . S
C315 C314 1.415 . S
H316 C313 0.999 . S
H317 C298 0.913 . S
H318 C336 0.951 . S
H319 C338 0.951 . S
H320 C340 0.950 . S
H321 C341 0.950 . S
H322 C343 0.950 . S
H323 C346 0.950 . S
H324 C347 0.950 . S
H325 C349 0.950 . S
H326 C350 0.950 . S
H327 C351 0.951 . S
H328 C353 0.951 . S
H329 C355 0.950 . S
H330 C356 0.950 . S
H331 C358 0.950 . S
H332 C361 0.950 . S
H333 C362 0.950 . S
H334 C364 0.950 . S
H335 C365 0.950 . S
C336 H318 0.951 . S
C336 C337 1.366 . S
C336 C338 1.388 . S
C337 C336 1.366 . S
C337 C341 1.385 . S
C338 H319 0.951 . S
C338 C336 1.388 . S
C338 C339 1.366 . S
C339 C338 1.366 . S
C339 C340 1.414 . S
C339 C342 1.499 . S
C340 H320 0.950 . S
C340 C339 1.414 . S
C340 C341 1.374 . S
C341 H321 0.950 . S
C341 C337 1.385 . S
C341 C340 1.374 . S
C342 C339 1.499 . S
C342 C343 1.373 . S
C342 C344 1.389 . S
C343 H322 0.950 . S
C343 C342 1.373 . S
C343 C359 1.377 . S
C344 C342 1.389 . S
C344 C345 1.524 . S
C344 C358 1.377 . S
C345 C344 1.524 . S
C345 C346 1.397 . S
C345 C350 1.363 . S
C346 H323 0.950 . S
C346 C345 1.397 . S
C346 C347 1.334 . S
C347 H324 0.950 . S
C347 C346 1.334 . S
C347 C348 1.287 . S
C348 C347 1.287 . S
C348 C349 1.524 . S
C348 H367 0.913 . S
C349 H325 0.950 . S
C349 C348 1.524 . S
C349 C350 1.415 . S
C350 H326 0.950 . S
C350 C345 1.363 . S
C350 C349 1.415 . S
C351 H327 0.951 . S
C351 C352 1.366 . S
C351 C353 1.388 . S
C352 C351 1.366 . S
C352 C356 1.385 . S
C353 H328 0.951 . S
C353 C351 1.388 . S
C353 C354 1.366 . S
C354 C353 1.366 . S
C354 C355 1.414 . S
C354 C357 1.499 . S
C355 H329 0.950 . S
C355 C354 1.414 . S
C355 C356 1.374 . S
C356 H330 0.950 . S
C356 C352 1.385 . S
C356 C355 1.374 . S
C357 C354 1.499 . S
C357 C358 1.373 . S
C357 C359 1.389 . S
C358 H331 0.950 . S
C358 C344 1.377 . S
C358 C357 1.373 . S
C359 C343 1.377 . S
C359 C357 1.389 . S
C359 C360 1.524 . S
C360 C359 1.524 . S
C360 C361 1.397 . S
C360 C365 1.363 . S
C361 H332 0.950 . S
C361 C360 1.397 . S
C361 C362 1.334 . S
C362 H333 0.950 . S
C362 C361 1.334 . S
C362 C363 1.287 . S
C363 C362 1.287 . S
C363 C364 1.524 . S
C363 H366 0.999 . S
C364 H334 0.950 . S
C364 C363 1.524 . S
C364 C365 1.415 . S
C365 H335 0.950 . S
C365 C360 1.363 . S
C365 C364 1.415 . S
H366 C363 0.999 . S
H367 C348 0.913 . S
H368 C386 0.951 . S
H369 C388 0.951 . S
H370 C390 0.950 . S
H371 C391 0.950 . S
H372 C393 0.950 . S
H373 C396 0.950 . S
H374 C397 0.950 . S
H375 C399 0.950 . S
H376 C400 0.950 . S
H377 C401 0.951 . S
H378 C403 0.951 . S
H379 C405 0.950 . S
H380 C406 0.950 . S
H381 C408 0.950 . S
H382 C411 0.950 . S
H383 C412 0.950 . S
H384 C414 0.950 . S
H385 C415 0.950 . S
C386 H368 0.951 . S
C386 C387 1.366 . S
C386 C388 1.388 . S
C387 C386 1.366 . S
C387 C391 1.385 . S
C388 H369 0.951 . S
C388 C386 1.388 . S
C388 C389 1.366 . S
C389 C388 1.366 . S
C389 C390 1.414 . S
C389 C392 1.499 . S
C390 H370 0.950 . S
C390 C389 1.414 . S
C390 C391 1.374 . S
C391 H371 0.950 . S
C391 C387 1.385 . S
C391 C390 1.374 . S
C392 C389 1.499 . S
C392 C393 1.373 . S
C392 C394 1.389 . S
C393 H372 0.950 . S
C393 C392 1.373 . S
C393 C409 1.377 . S
C394 C392 1.389 . S
C394 C395 1.524 . S
C394 C408 1.377 . S
C395 C394 1.524 . S
C395 C396 1.397 . S
C395 C400 1.363 . S
C396 H373 0.950 . S
C396 C395 1.397 . S
C396 C397 1.334 . S
C397 H374 0.950 . S
C397 C396 1.334 . S
C397 C398 1.287 . S
C398 C397 1.287 . S
C398 C399 1.524 . S
C398 H417 0.913 . S
C399 H375 0.950 . S
C399 C398 1.524 . S
C399 C400 1.415 . S
C400 H376 0.950 . S
C400 C395 1.363 . S
C400 C399 1.415 . S
C401 H377 0.951 . S
C401 C402 1.366 . S
C401 C403 1.388 . S
C402 C401 1.366 . S
C402 C406 1.385 . S
C403 H378 0.951 . S
C403 C401 1.388 . S
C403 C404 1.366 . S
C404 C403 1.366 . S
C404 C405 1.414 . S
C404 C407 1.499 . S
C405 H379 0.950 . S
C405 C404 1.414 . S
C405 C406 1.374 . S
C406 H380 0.950 . S
C406 C402 1.385 . S
C406 C405 1.374 . S
C407 C404 1.499 . S
C407 C408 1.373 . S
C407 C409 1.389 . S
C408 H381 0.950 . S
C408 C394 1.377 . S
C408 C407 1.373 . S
C409 C393 1.377 . S
C409 C407 1.389 . S
C409 C410 1.524 . S
C410 C409 1.524 . S
C410 C411 1.397 . S
C410 C415 1.363 . S
C411 H382 0.950 . S
C411 C410 1.397 . S
C411 C412 1.334 . S
C412 H383 0.950 . S
C412 C411 1.334 . S
C412 C413 1.287 . S
C413 C412 1.287 . S
C413 C414 1.524 . S
C413 H416 0.999 . S
C414 H384 0.950 . S
C414 C413 1.524 . S
C414 C415 1.415 . S
C415 H385 0.950 . S
C415 C410 1.363 . S
C415 C414 1.415 . S
H416 C413 0.999 . S
H417 C398 0.913 . S
H418 C436 0.951 . S
H419 C438 0.951 . S
H420 C440 0.950 . S
H421 C441 0.950 . S
H422 C443 0.950 . S
H423 C446 0.950 . S
H424 C447 0.950 . S
H425 C449 0.950 . S
H426 C450 0.950 . S
H427 C451 0.951 . S
H428 C453 0.951 . S
H429 C455 0.950 . S
H430 C456 0.950 . S
H431 C458 0.950 . S
H432 C461 0.950 . S
H433 C462 0.950 . S
H434 C464 0.950 . S
H435 C465 0.950 . S
C436 H418 0.951 . S
C436 C437 1.366 . S
C436 C438 1.388 . S
C437 C436 1.366 . S
C437 C441 1.385 . S
C438 H419 0.951 . S
C438 C436 1.388 . S
C438 C439 1.366 . S
C439 C438 1.366 . S
C439 C440 1.414 . S
C439 C442 1.499 . S
C440 H420 0.950 . S
C440 C439 1.414 . S
C440 C441 1.374 . S
C441 H421 0.950 . S
C441 C437 1.385 . S
C441 C440 1.374 . S
C442 C439 1.499 . S
C442 C443 1.373 . S
C442 C444 1.389 . S
C443 H422 0.950 . S
C443 C442 1.373 . S
C443 C459 1.377 . S
C444 C442 1.389 . S
C444 C445 1.524 . S
C444 C458 1.377 . S
C445 C444 1.524 . S
C445 C446 1.397 . S
C445 C450 1.363 . S
C446 H423 0.950 . S
C446 C445 1.397 . S
C446 C447 1.334 . S
C447 H424 0.950 . S
C447 C446 1.334 . S
C447 C448 1.287 . S
C448 C447 1.287 . S
C448 C449 1.524 . S
C448 H467 0.913 . S
C449 H425 0.950 . S
C449 C448 1.524 . S
C449 C450 1.415 . S
C450 H426 0.950 . S
C450 C445 1.363 . S
C450 C449 1.415 . S
C451 H427 0.951 . S
C451 C452 1.366 . S
C451 C453 1.388 . S
C452 C451 1.366 . S
C452 C456 1.385 . S
C453 H428 0.951 . S
C453 C451 1.388 . S
C453 C454 1.366 . S
C454 C453 1.366 . S
C454 C455 1.414 . S
C454 C457 1.499 . S
C455 H429 0.950 . S
C455 C454 1.414 . S
C455 C456 1.374 . S
C456 H430 0.950 . S
C456 C452 1.385 . S
C456 C455 1.374 . S
C457 C454 1.499 . S
C457 C458 1.373 . S
C457 C459 1.389 . S
C458 H431 0.950 . S
C458 C444 1.377 . S
C458 C457 1.373 . S
C459 C443 1.377 . S
C459 C457 1.389 . S
C459 C460 1.524 . S
C460 C459 1.524 . S
C460 C461 1.397 . S
C460 C465 1.363 . S
C461 H432 0.950 . S
C461 C460 1.397 . S
C461 C462 1.334 . S
C462 H433 0.950 . S
C462 C461 1.334 . S
C462 C463 1.287 . S
C463 C462 1.287 . S
C463 C464 1.524 . S
C463 H466 0.999 . S
C464 H434 0.950 . S
C464 C463 1.524 . S
C464 C465 1.415 . S
C465 H435 0.950 . S
C465 C460 1.363 . S
C465 C464 1.415 . S
H466 C463 0.999 . S
H467 C448 0.913 . S
H468 C486 0.951 . S
H469 C488 0.951 . S
H470 C490 0.950 . S
H471 C491 0.950 . S
H472 C493 0.950 . S
H473 C496 0.950 . S
H474 C497 0.950 . S
H475 C499 0.950 . S
H476 C500 0.950 . S
H477 C501 0.951 . S
H478 C503 0.951 . S
H479 C505 0.950 . S
H480 C506 0.950 . S
H481 C508 0.950 . S
H482 C511 0.950 . S
H483 C512 0.950 . S
H484 C514 0.950 . S
H485 C515 0.950 . S
C486 H468 0.951 . S
C486 C487 1.366 . S
C486 C488 1.388 . S
C487 C486 1.366 . S
C487 C491 1.385 . S
C488 H469 0.951 . S
C488 C486 1.388 . S
C488 C489 1.366 . S
C489 C488 1.366 . S
C489 C490 1.414 . S
C489 C492 1.499 . S
C490 H470 0.950 . S
C490 C489 1.414 . S
C490 C491 1.374 . S
C491 H471 0.950 . S
C491 C487 1.385 . S
C491 C490 1.374 . S
C492 C489 1.499 . S
C492 C493 1.373 . S
C492 C494 1.389 . S
C493 H472 0.950 . S
C493 C492 1.373 . S
C493 C509 1.377 . S
C494 C492 1.389 . S
C494 C495 1.524 . S
C494 C508 1.377 . S
C495 C494 1.524 . S
C495 C496 1.397 . S
C495 C500 1.363 . S
C496 H473 0.950 . S
C496 C495 1.397 . S
C496 C497 1.334 . S
C497 H474 0.950 . S
C497 C496 1.334 . S
C497 C498 1.287 . S
C498 C497 1.287 . S
C498 C499 1.524 . S
C498 H517 0.913 . S
C499 H475 0.950 . S
C499 C498 1.524 . S
C499 C500 1.415 . S
C500 H476 0.950 . S
C500 C495 1.363 . S
C500 C499 1.415 . S
C501 H477 0.951 . S
C501 C502 1.366 . S
C501 C503 1.388 . S
C502 C501 1.366 . S
C502 C506 1.385 . S
C503 H478 0.951 . S
C503 C501 1.388 . S
C503 C504 1.366 . S
C504 C503 1.366 . S
C504 C505 1.414 . S
C504 C507 1.499 . S
C505 H479 0.950 . S
C505 C504 1.414 . S
C505 C506 1.374 . S
C506 H480 0.950 . S
C506 C502 1.385 . S
C506 C505 1.374 . S
C507 C504 1.499 . S
C507 C508 1.373 . S
C507 C509 1.389 . S
C508 H481 0.950 . S
C508 C494 1.377 . S
C508 C507 1.373 . S
C509 C493 1.377 . S
C509 C507 1.389 . S
C509 C510 1.524 . S
C510 C509 1.524 . S
C510 C511 1.397 . S
C510 C515 1.363 . S
C511 H482 0.950 . S
C511 C510 1.397 . S
C511 C512 1.334 . S
C512 H483 0.950 . S
C512 C511 1.334 . S
C512 C513 1.287 . S
C513 C512 1.287 . S
C513 C514 1.524 . S
C513 H516 0.999 . S
C514 H484 0.950 . S
C514 C513 1.524 . S
C514 C515 1.415 . S
C515 H485 0.950 . S
C515 C510 1.363 . S
C515 C514 1.415 . S
H516 C513 0.999 . S
H517 C498 0.913 . S
H518 C536 0.951 . S
H519 C538 0.951 . S
H520 C540 0.950 . S
H521 C541 0.950 . S
H522 C543 0.950 . S
H523 C546 0.950 . S
H524 C547 0.950 . S
H525 C549 0.950 . S
H526 C550 0.950 . S
H527 C551 0.951 . S
H528 C553 0.951 . S
H529 C555 0.950 . S
H530 C556 0.950 . S
H531 C558 0.950 . S
H532 C561 0.950 . S
H533 C562 0.950 . S
H534 C564 0.950 . S
H535 C565 0.950 . S
C536 H518 0.951 . S
C536 C537 1.366 . S
C536 C538 1.388 . S
C537 C536 1.366 . S
C537 C541 1.385 . S
C538 H519 0.951 . S
C538 C536 1.388 . S
C538 C539 1.366 . S
C539 C538 1.366 . S
C539 C540 1.414 . S
C539 C542 1.499 . S
C540 H520 0.950 . S
C540 C539 1.414 . S
C540 C541 1.374 . S
C541 H521 0.950 . S
C541 C537 1.385 . S
C541 C540 1.374 . S
C542 C539 1.499 . S
C542 C543 1.373 . S
C542 C544 1.389 . S
C543 H522 0.950 . S
C543 C542 1.373 . S
C543 C559 1.377 . S
C544 C542 1.389 . S
C544 C545 1.524 . S
C544 C558 1.377 . S
C545 C544 1.524 . S
C545 C546 1.397 . S
C545 C550 1.363 . S
C546 H523 0.950 . S
C546 C545 1.397 . S
C546 C547 1.334 . S
C547 H524 0.950 . S
C547 C546 1.334 . S
C547 C548 1.287 . S
C548 C547 1.287 . S
C548 C549 1.524 . S
C548 H567 0.913 . S
C549 H525 0.950 . S
C549 C548 1.524 . S
C549 C550 1.415 . S
C550 H526 0.950 . S
C550 C545 1.363 . S
C550 C549 1.415 . S
C551 H527 0.951 . S
C551 C552 1.366 . S
C551 C553 1.388 . S
C552 C551 1.366 . S
C552 C556 1.385 . S
C553 H528 0.951 . S
C553 C551 1.388 . S
C553 C554 1.366 . S
C554 C553 1.366 . S
C554 C555 1.414 . S
C554 C557 1.499 . S
C555 H529 0.950 . S
C555 C554 1.414 . S
C555 C556 1.374 . S
C556 H530 0.950 . S
C556 C552 1.385 . S
C556 C555 1.374 . S
C557 C554 1.499 . S
C557 C558 1.373 . S
C557 C559 1.389 . S
C558 H531 0.950 . S
C558 C544 1.377 . S
C558 C557 1.373 . S
C559 C543 1.377 . S
C559 C557 1.389 . S
C559 C560 1.524 . S
C560 C559 1.524 . S
C560 C561 1.397 . S
C560 C565 1.363 . S
C561 H532 0.950 . S
C561 C560 1.397 . S
C561 C562 1.334 . S
C562 H533 0.950 . S
C562 C561 1.334 . S
C562 C563 1.287 . S
C563 C562 1.287 . S
C563 C564 1.524 . S
C563 H566 0.999 . S
C564 H534 0.950 . S
C564 C563 1.524 . S
C564 C565 1.415 . S
C565 H535 0.950 . S
C565 C560 1.363 . S
C565 C564 1.415 . S
H566 C563 0.999 . S
H567 C548 0.913 . S
H568 C586 0.951 . S
H569 C588 0.951 . S
H570 C590 0.950 . S
H571 C591 0.950 . S
H572 C593 0.950 . S
H573 C596 0.950 . S
H574 C597 0.950 . S
H575 C599 0.950 . S
H576 C600 0.950 . S
H577 C601 0.951 1_554 S
H578 C603 0.951 . S
H579 C605 0.950 . S
H580 C606 0.950 . S
H581 C608 0.950 . S
H582 C611 0.950 . S
H583 C612 0.950 . S
H584 C614 0.950 . S
H585 C615 0.950 . S
C586 H568 0.951 . S
C586 C587 1.366 . S
C586 C588 1.388 . S
C587 C586 1.366 . S
C587 C591 1.385 . S
C588 H569 0.951 . S
C588 C586 1.388 . S
C588 C589 1.366 . S
C589 C588 1.366 . S
C589 C590 1.414 . S
C589 C592 1.499 . S
C590 H570 0.950 . S
C590 C589 1.414 . S
C590 C591 1.374 . S
C591 H571 0.950 . S
C591 C587 1.385 . S
C591 C590 1.374 . S
C592 C589 1.499 . S
C592 C593 1.373 1_554 S
C592 C594 1.389 . S
C593 H572 0.950 . S
C593 C592 1.373 1_556 S
C593 C609 1.377 . S
C594 C592 1.389 . S
C594 C595 1.524 . S
C594 C608 1.377 . S
C595 C594 1.524 . S
C595 C596 1.397 . S
C595 C600 1.363 . S
C596 H573 0.950 . S
C596 C595 1.397 . S
C596 C597 1.334 . S
C597 H574 0.950 . S
C597 C596 1.334 . S
C597 C598 1.287 . S
C598 C597 1.287 . S
C598 C599 1.524 . S
C598 H617 0.913 . S
C599 H575 0.950 . S
C599 C598 1.524 . S
C599 C600 1.415 . S
C600 H576 0.950 . S
C600 C595 1.363 . S
C600 C599 1.415 . S
C601 H577 0.951 1_556 S
C601 C602 1.366 . S
C601 C603 1.388 1_556 S
C602 C601 1.366 . S
C602 C606 1.385 . S
C603 H578 0.951 . S
C603 C601 1.388 1_554 S
C603 C604 1.366 1_554 S
C604 C603 1.366 1_556 S
C604 C605 1.414 . S
C604 C607 1.500 . S
C605 H579 0.950 . S
C605 C604 1.414 . S
C605 C606 1.374 . S
C606 H580 0.950 . S
C606 C602 1.385 . S
C606 C605 1.374 . S
C607 C604 1.500 . S
C607 C608 1.368 1_556 S
C607 C609 1.392 . S
C608 H581 0.950 . S
C608 C594 1.377 . S
C608 C607 1.368 1_554 S
C609 C593 1.377 . S
C609 C607 1.392 . S
C609 C610 1.524 . S
C610 C609 1.524 . S
C610 C611 1.397 . S
C610 C615 1.363 . S
C611 H582 0.950 . S
C611 C610 1.397 . S
C611 C612 1.334 . S
C612 H583 0.950 . S
C612 C611 1.334 . S
C612 C613 1.287 . S
C613 C612 1.287 . S
C613 C614 1.524 . S
C613 H616 0.999 . S
C614 H584 0.950 . S
C614 C613 1.524 . S
C614 C615 1.415 . S
C615 H585 0.950 . S
C615 C610 1.363 . S
C615 C614 1.415 . S
H616 C613 0.999 . S
H617 C598 0.913 . S
H618 C636 0.951 . S
H619 C638 0.951 . S
H620 C640 0.950 . S
H621 C641 0.950 . S
H622 C643 0.950 . S
H623 C646 0.950 . S
H624 C647 0.950 . S
H625 C649 0.950 . S
H626 C650 0.950 . S
H627 C651 0.951 . S
H628 C653 0.951 . S
H629 C655 0.950 . S
H630 C656 0.950 . S
H631 C658 0.950 . S
H632 C661 0.950 . S
H633 C662 0.950 . S
H634 C664 0.950 . S
H635 C665 0.950 . S
C636 H618 0.951 . S
C636 C637 1.366 . S
C636 C638 1.388 . S
C637 C636 1.366 . S
C637 C641 1.385 . S
C638 H619 0.951 . S
C638 C636 1.388 . S
C638 C639 1.366 . S
C639 C638 1.366 . S
C639 C640 1.414 . S
C639 C642 1.499 . S
C640 H620 0.950 . S
C640 C639 1.414 . S
C640 C641 1.374 . S
C641 H621 0.950 . S
C641 C637 1.385 . S
C641 C640 1.374 . S
C642 C639 1.499 . S
C642 C643 1.373 . S
C642 C644 1.389 . S
C643 H622 0.950 . S
C643 C642 1.373 . S
C643 C659 1.377 . S
C644 C642 1.389 . S
C644 C645 1.524 . S
C644 C658 1.377 . S
C645 C644 1.524 . S
C645 C646 1.397 . S
C645 C650 1.363 . S
C646 H623 0.950 . S
C646 C645 1.397 . S
C646 C647 1.334 . S
C647 H624 0.950 . S
C647 C646 1.334 . S
C647 C648 1.287 . S
C648 C647 1.287 . S
C648 C649 1.524 . S
C648 H667 0.913 . S
C649 H625 0.950 . S
C649 C648 1.524 . S
C649 C650 1.415 . S
C650 H626 0.950 . S
C650 C645 1.363 . S
C650 C649 1.415 . S
C651 H627 0.951 . S
C651 C652 1.366 . S
C651 C653 1.388 . S
C652 C651 1.366 . S
C652 C656 1.385 . S
C653 H628 0.951 . S
C653 C651 1.388 . S
C653 C654 1.366 . S
C654 C653 1.366 . S
C654 C655 1.414 . S
C654 C657 1.499 . S
C655 H629 0.950 . S
C655 C654 1.414 . S
C655 C656 1.374 . S
C656 H630 0.950 . S
C656 C652 1.385 . S
C656 C655 1.374 . S
C657 C654 1.499 . S
C657 C658 1.373 . S
C657 C659 1.389 . S
C658 H631 0.950 . S
C658 C644 1.377 . S
C658 C657 1.373 . S
C659 C643 1.377 . S
C659 C657 1.389 . S
C659 C660 1.524 . S
C660 C659 1.524 . S
C660 C661 1.397 . S
C660 C665 1.363 . S
C661 H632 0.950 . S
C661 C660 1.397 . S
C661 C662 1.334 . S
C662 H633 0.950 . S
C662 C661 1.334 . S
C662 C663 1.287 . S
C663 C662 1.287 . S
C663 C664 1.524 . S
C663 H666 0.999 . S
C664 H634 0.950 . S
C664 C663 1.524 . S
C664 C665 1.415 . S
C665 H635 0.950 . S
C665 C660 1.363 . S
C665 C664 1.415 . S
H666 C663 0.999 . S
H667 C648 0.913 . S
H668 C686 0.951 . S
H669 C688 0.951 . S
H670 C690 0.950 . S
H671 C691 0.950 . S
H672 C693 0.950 . S
H673 C696 0.950 . S
H674 C697 0.950 . S
H675 C699 0.950 . S
H676 C700 0.950 . S
H677 C701 0.951 . S
H678 C703 0.951 . S
H679 C705 0.950 . S
H680 C706 0.950 . S
H681 C708 0.950 . S
H682 C711 0.950 . S
H683 C712 0.950 . S
H684 C714 0.950 . S
H685 C715 0.950 . S
C686 H668 0.951 . S
C686 C687 1.366 . S
C686 C688 1.388 . S
C687 C686 1.366 . S
C687 C691 1.385 . S
C688 H669 0.951 . S
C688 C686 1.388 . S
C688 C689 1.366 . S
C689 C688 1.366 . S
C689 C690 1.414 . S
C689 C692 1.499 . S
C690 H670 0.950 . S
C690 C689 1.414 . S
C690 C691 1.374 . S
C691 H671 0.950 . S
C691 C687 1.385 . S
C691 C690 1.374 . S
C692 C689 1.499 . S
C692 C693 1.373 . S
C692 C694 1.389 . S
C693 H672 0.950 . S
C693 C692 1.373 . S
C693 C709 1.377 . S
C694 C692 1.389 . S
C694 C695 1.524 . S
C694 C708 1.377 . S
C695 C694 1.524 . S
C695 C696 1.397 . S
C695 C700 1.363 . S
C696 H673 0.950 . S
C696 C695 1.397 . S
C696 C697 1.334 . S
C697 H674 0.950 . S
C697 C696 1.334 . S
C697 C698 1.287 . S
C698 C697 1.287 . S
C698 C699 1.524 . S
C698 H717 0.913 . S
C699 H675 0.950 . S
C699 C698 1.524 . S
C699 C700 1.415 . S
C700 H676 0.950 . S
C700 C695 1.363 . S
C700 C699 1.415 . S
C701 H677 0.951 . S
C701 C702 1.366 . S
C701 C703 1.388 . S
C702 C701 1.366 . S
C702 C706 1.385 . S
C703 H678 0.951 . S
C703 C701 1.388 . S
C703 C704 1.366 . S
C704 C703 1.366 . S
C704 C705 1.414 . S
C704 C707 1.499 . S
C705 H679 0.950 . S
C705 C704 1.414 . S
C705 C706 1.374 . S
C706 H680 0.950 . S
C706 C702 1.385 . S
C706 C705 1.374 . S
C707 C704 1.499 . S
C707 C708 1.373 . S
C707 C709 1.389 . S
C708 H681 0.950 . S
C708 C694 1.377 . S
C708 C707 1.373 . S
C709 C693 1.377 . S
C709 C707 1.389 . S
C709 C710 1.524 . S
C710 C709 1.524 . S
C710 C711 1.397 . S
C710 C715 1.363 . S
C711 H682 0.950 . S
C711 C710 1.397 . S
C711 C712 1.334 . S
C712 H683 0.950 . S
C712 C711 1.334 . S
C712 C713 1.287 . S
C713 C712 1.287 . S
C713 C714 1.524 . S
C713 H716 0.999 . S
C714 H684 0.950 . S
C714 C713 1.524 . S
C714 C715 1.415 . S
C715 H685 0.950 . S
C715 C710 1.363 . S
C715 C714 1.415 . S
H716 C713 0.999 . S
H717 C698 0.913 . S
H718 C736 0.951 . S
H719 C738 0.951 . S
H720 C740 0.950 . S
H721 C741 0.950 . S
H722 C743 0.950 . S
H723 C746 0.950 . S
H724 C747 0.950 . S
H725 C749 0.950 . S
H726 C750 0.950 . S
H727 C751 0.951 . S
H728 C753 0.951 . S
H729 C755 0.950 . S
H730 C756 0.950 . S
H731 C758 0.950 . S
H732 C761 0.944 1_554 S
H733 C762 0.950 . S
H734 C764 0.950 . S
H735 C765 0.950 . S
C736 H718 0.951 . S
C736 C737 1.366 1_554 S
C736 C738 1.388 . S
C737 C736 1.366 1_556 S
C737 C741 1.385 . S
C738 H719 0.951 . S
C738 C736 1.388 . S
C738 C739 1.366 1_554 S
C739 C738 1.366 1_556 S
C739 C740 1.414 . S
C739 C742 1.499 1_556 S
C740 H720 0.950 . S
C740 C739 1.414 . S
C740 C741 1.374 . S
C741 H721 0.950 . S
C741 C737 1.385 . S
C741 C740 1.374 . S
C742 C739 1.499 1_554 S
C742 C743 1.373 1_554 S
C742 C744 1.389 . S
C743 H722 0.950 . S
C743 C742 1.373 1_556 S
C743 C759 1.377 . S
C744 C742 1.389 . S
C744 C745 1.524 . S
C744 C758 1.377 . S
C745 C744 1.524 . S
C745 C746 1.397 . S
C745 C750 1.363 . S
C746 H723 0.950 . S
C746 C745 1.397 . S
C746 C747 1.334 . S
C747 H724 0.950 . S
C747 C746 1.334 . S
C747 C748 1.287 . S
C748 C747 1.287 . S
C748 C749 1.524 . S
C748 H767 0.913 . S
C749 H725 0.950 . S
C749 C748 1.524 . S
C749 C750 1.415 . S
C750 H726 0.950 . S
C750 C745 1.363 . S
C750 C749 1.415 . S
C751 H727 0.951 . S
C751 C752 1.366 1_556 S
C751 C753 1.388 . S
C752 C751 1.366 1_554 S
C752 C756 1.385 . S
C753 H728 0.951 . S
C753 C751 1.388 . S
C753 C754 1.366 1_556 S
C754 C753 1.366 1_554 S
C754 C755 1.414 . S
C754 C757 1.499 . S
C755 H729 0.950 . S
C755 C754 1.414 . S
C755 C756 1.374 . S
C756 H730 0.950 . S
C756 C752 1.385 . S
C756 C755 1.374 . S
C757 C754 1.499 . S
C757 C758 1.373 . S
C757 C759 1.389 1_554 S
C758 H731 0.950 . S
C758 C744 1.377 . S
C758 C757 1.373 . S
C759 C743 1.377 . S
C759 C757 1.389 1_556 S
C759 C760 1.524 . S
C760 C759 1.524 . S
C760 C761 1.397 . S
C760 C765 1.363 . S
C761 H732 0.944 1_556 S
C761 C760 1.397 . S
C761 C762 1.334 . S
C762 H733 0.950 . S
C762 C761 1.334 . S
C762 C763 1.287 . S
C763 C762 1.287 . S
C763 C764 1.524 . S
C763 H766 0.999 . S
C764 H734 0.950 . S
C764 C763 1.524 . S
C764 C765 1.415 . S
C765 H735 0.950 . S
C765 C760 1.363 . S
C765 C764 1.415 . S
H766 C763 0.999 . S
H767 C748 0.913 . S
H768 C786 0.951 . S
H769 C788 0.951 . S
H770 C790 0.950 . S
H771 C791 0.950 . S
H772 C793 0.950 . S
H773 C796 0.950 . S
H774 C797 0.950 . S
H775 C799 0.950 . S
H776 C800 0.950 . S
H777 C801 0.951 . S
H778 C803 0.951 . S
H779 C805 0.950 . S
H780 C806 0.950 . S
H781 C808 0.950 . S
H782 C811 0.950 . S
H783 C812 0.950 . S
H784 C814 0.950 . S
H785 C815 0.950 . S
C786 H768 0.951 . S
C786 C787 1.366 . S
C786 C788 1.388 . S
C787 C786 1.366 . S
C787 C791 1.385 . S
C788 H769 0.951 . S
C788 C786 1.388 . S
C788 C789 1.366 . S
C789 C788 1.366 . S
C789 C790 1.414 . S
C789 C792 1.499 . S
C790 H770 0.950 . S
C790 C789 1.414 . S
C790 C791 1.374 . S
C791 H771 0.950 . S
C791 C787 1.385 . S
C791 C790 1.374 . S
C792 C789 1.499 . S
C792 C793 1.373 . S
C792 C794 1.389 . S
C793 H772 0.950 . S
C793 C792 1.373 . S
C793 C809 1.377 1_545 S
C794 C792 1.389 . S
C794 C795 1.524 . S
C794 C808 1.377 1_545 S
C795 C794 1.524 . S
C795 C796 1.397 . S
C795 C800 1.363 1_545 S
C796 H773 0.950 . S
C796 C795 1.397 . S
C796 C797 1.334 . S
C797 H774 0.950 . S
C797 C796 1.334 . S
C797 C798 1.287 . S
C798 C797 1.287 . S
C798 C799 1.524 1_545 S
C798 H817 0.913 . S
C799 H775 0.950 . S
C799 C798 1.524 1_565 S
C799 C800 1.415 . S
C800 H776 0.950 . S
C800 C795 1.363 1_565 S
C800 C799 1.415 . S
C801 H777 0.951 . S
C801 C802 1.366 . S
C801 C803 1.388 . S
C802 C801 1.366 . S
C802 C806 1.385 . S
C803 H778 0.951 . S
C803 C801 1.388 . S
C803 C804 1.366 . S
C804 C803 1.366 . S
C804 C805 1.414 . S
C804 C807 1.499 . S
C805 H779 0.950 . S
C805 C804 1.414 . S
C805 C806 1.374 . S
C806 H780 0.950 . S
C806 C802 1.385 . S
C806 C805 1.374 . S
C807 C804 1.499 . S
C807 C808 1.373 . S
C807 C809 1.389 . S
C808 H781 0.950 . S
C808 C794 1.377 1_565 S
C808 C807 1.373 . S
C809 C793 1.377 1_565 S
C809 C807 1.389 . S
C809 C810 1.524 . S
C810 C809 1.524 . S
C810 C811 1.397 . S
C810 C815 1.363 1_565 S
C811 H782 0.950 . S
C811 C810 1.397 . S
C811 C812 1.334 . S
C812 H783 0.950 . S
C812 C811 1.334 . S
C812 C813 1.287 . S
C813 C812 1.287 . S
C813 C814 1.524 1_565 S
C813 H816 0.999 . S
C814 H784 0.950 . S
C814 C813 1.524 1_545 S
C814 C815 1.415 . S
C815 H785 0.950 . S
C815 C810 1.363 1_545 S
C815 C814 1.415 . S
H816 C813 0.999 . S
H817 C798 0.913 . S
H818 C836 0.951 . S
H819 C838 0.951 . S
H820 C840 0.950 . S
H821 C841 0.950 . S
H822 C843 0.950 . S
H823 C846 0.950 . S
H824 C847 0.950 . S
H825 C849 0.950 . S
H826 C850 0.950 . S
H827 C851 0.951 . S
H828 C853 0.951 . S
H829 C855 0.950 . S
H830 C856 0.950 . S
H831 C858 0.950 . S
H832 C861 0.950 . S
H833 C862 0.950 . S
H834 C864 0.950 . S
H835 C865 0.950 . S
C836 H818 0.951 . S
C836 C837 1.366 . S
C836 C838 1.388 . S
C837 C836 1.366 . S
C837 C841 1.385 . S
C838 H819 0.951 . S
C838 C836 1.388 . S
C838 C839 1.366 . S
C839 C838 1.366 . S
C839 C840 1.414 . S
C839 C842 1.499 . S
C840 H820 0.950 . S
C840 C839 1.414 . S
C840 C841 1.374 . S
C841 H821 0.950 . S
C841 C837 1.385 . S
C841 C840 1.374 . S
C842 C839 1.499 . S
C842 C843 1.373 . S
C842 C844 1.389 . S
C843 H822 0.950 . S
C843 C842 1.373 . S
C843 C859 1.377 . S
C844 C842 1.389 . S
C844 C845 1.524 . S
C844 C858 1.377 . S
C845 C844 1.524 . S
C845 C846 1.397 . S
C845 C850 1.363 . S
C846 H823 0.950 . S
C846 C845 1.397 . S
C846 C847 1.334 . S
C847 H824 0.950 . S
C847 C846 1.334 . S
C847 C848 1.287 . S
C848 C847 1.287 . S
C848 C849 1.524 . S
C848 H867 0.913 . S
C849 H825 0.950 . S
C849 C848 1.524 . S
C849 C850 1.415 . S
C850 H826 0.950 . S
C850 C845 1.363 . S
C850 C849 1.415 . S
C851 H827 0.951 . S
C851 C852 1.366 . S
C851 C853 1.388 . S
C852 C851 1.366 . S
C852 C856 1.385 . S
C853 H828 0.951 . S
C853 C851 1.388 . S
C853 C854 1.366 . S
C854 C853 1.366 . S
C854 C855 1.414 . S
C854 C857 1.499 . S
C855 H829 0.950 . S
C855 C854 1.414 . S
C855 C856 1.374 . S
C856 H830 0.950 . S
C856 C852 1.385 . S
C856 C855 1.374 . S
C857 C854 1.499 . S
C857 C858 1.373 . S
C857 C859 1.389 . S
C858 H831 0.950 . S
C858 C844 1.377 . S
C858 C857 1.373 . S
C859 C843 1.377 . S
C859 C857 1.389 . S
C859 C860 1.524 . S
C860 C859 1.524 . S
C860 C861 1.397 . S
C860 C865 1.363 . S
C861 H832 0.950 . S
C861 C860 1.397 . S
C861 C862 1.334 . S
C862 H833 0.950 . S
C862 C861 1.334 . S
C862 C863 1.287 . S
C863 C862 1.287 . S
C863 C864 1.524 . S
C863 H866 0.999 . S
C864 H834 0.950 . S
C864 C863 1.524 . S
C864 C865 1.415 . S
C865 H835 0.950 . S
C865 C860 1.363 . S
C865 C864 1.415 . S
H866 C863 0.999 . S
H867 C848 0.913 . S
H868 C886 0.951 . S
H869 C888 0.951 . S
H870 C890 0.950 . S
H871 C891 0.950 . S
H872 C893 0.950 . S
H873 C896 0.950 . S
H874 C897 0.950 . S
H875 C899 0.950 . S
H876 C900 0.950 1_556 S
H877 C901 0.951 . S
H878 C903 0.951 . S
H879 C905 0.950 . S
H880 C906 0.950 . S
H881 C908 0.949 . S
H882 C911 0.950 . S
H883 C912 0.950 . S
H884 C914 0.950 . S
H885 C915 0.950 . S
C886 H868 0.951 . S
C886 C887 1.366 . S
C886 C888 1.388 . S
C887 C886 1.366 . S
C887 C891 1.385 . S
C888 H869 0.951 . S
C888 C886 1.388 . S
C888 C889 1.366 . S
C889 C888 1.366 . S
C889 C890 1.414 . S
C889 C892 1.499 . S
C890 H870 0.950 . S
C890 C889 1.414 . S
C890 C891 1.374 . S
C891 H871 0.950 . S
C891 C887 1.385 . S
C891 C890 1.374 . S
C892 C889 1.499 . S
C892 C893 1.373 . S
C892 C894 1.389 . S
C893 H872 0.950 . S
C893 C892 1.373 . S
C893 C909 1.377 1_655 S
C894 C892 1.389 . S
C894 C895 1.524 1_556 S
C894 C908 1.377 1_655 S
C895 C894 1.524 1_554 S
C895 C896 1.397 . S
C895 C900 1.363 1_655 S
C896 H873 0.950 . S
C896 C895 1.397 . S
C896 C897 1.334 . S
C897 H874 0.950 . S
C897 C896 1.334 . S
C897 C898 1.287 . S
C898 C897 1.287 . S
C898 C899 1.524 1_655 S
C898 H917 0.913 . S
C899 H875 0.950 . S
C899 C898 1.524 1_455 S
C899 C900 1.415 . S
C900 H876 0.950 1_554 S
C900 C895 1.363 1_455 S
C900 C899 1.415 . S
C901 H877 0.951 . S
C901 C902 1.366 . S
C901 C903 1.388 . S
C902 C901 1.366 . S
C902 C906 1.385 . S
C903 H878 0.951 . S
C903 C901 1.388 . S
C903 C904 1.366 . S
C904 C903 1.366 . S
C904 C905 1.414 . S
C904 C907 1.499 . S
C905 H879 0.950 . S
C905 C904 1.414 . S
C905 C906 1.374 . S
C906 H880 0.950 . S
C906 C902 1.385 . S
C906 C905 1.374 . S
C907 C904 1.499 . S
C907 C908 1.373 . S
C907 C909 1.389 . S
C908 H881 0.949 . S
C908 C894 1.377 1_455 S
C908 C907 1.373 . S
C909 C893 1.377 1_455 S
C909 C907 1.389 . S
C909 C910 1.524 . S
C910 C909 1.524 . S
C910 C911 1.397 . S
C910 C915 1.363 1_455 S
C911 H882 0.950 . S
C911 C910 1.397 . S
C911 C912 1.334 . S
C912 H883 0.950 . S
C912 C911 1.334 . S
C912 C913 1.287 . S
C913 C912 1.287 . S
C913 C914 1.524 1_455 S
C913 H916 0.999 . S
C914 H884 0.950 . S
C914 C913 1.524 1_655 S
C914 C915 1.415 . S
C915 H885 0.950 . S
C915 C910 1.363 1_655 S
C915 C914 1.415 . S
H916 C913 0.999 . S
H917 C898 0.913 . S
H918 C936 0.951 . S
H919 C938 0.951 . S
H920 C940 0.950 . S
H921 C941 0.950 . S
H922 C943 0.950 . S
H923 C946 0.950 . S
H924 C947 0.950 . S
H925 C949 0.950 . S
H926 C950 0.950 . S
H927 C951 0.951 . S
H928 C953 0.951 . S
H929 C955 0.950 . S
H930 C956 0.950 . S
H931 C958 0.950 . S
H932 C961 0.950 . S
H933 C962 0.950 . S
H934 C964 0.950 . S
H935 C965 0.950 . S
C936 H918 0.951 . S
C936 C937 1.366 . S
C936 C938 1.388 . S
C937 C936 1.366 . S
C937 C941 1.385 . S
C938 H919 0.951 . S
C938 C936 1.388 . S
C938 C939 1.366 . S
C939 C938 1.366 . S
C939 C940 1.414 . S
C939 C942 1.499 . S
C940 H920 0.950 . S
C940 C939 1.414 . S
C940 C941 1.374 . S
C941 H921 0.950 . S
C941 C937 1.385 . S
C941 C940 1.374 . S
C942 C939 1.499 . S
C942 C943 1.373 . S
C942 C944 1.389 . S
C943 H922 0.950 . S
C943 C942 1.373 . S
C943 C959 1.377 1_455 S
C944 C942 1.389 . S
C944 C945 1.524 . S
C944 C958 1.377 1_455 S
C945 C944 1.524 . S
C945 C946 1.397 . S
C945 C950 1.363 . S
C946 H923 0.950 . S
C946 C945 1.397 . S
C946 C947 1.334 . S
C947 H924 0.950 . S
C947 C946 1.334 . S
C947 C948 1.287 . S
C948 C947 1.287 . S
C948 C949 1.524 . S
C948 H967 0.913 . S
C949 H925 0.950 . S
C949 C948 1.524 . S
C949 C950 1.415 . S
C950 H926 0.950 . S
C950 C945 1.363 . S
C950 C949 1.415 . S
C951 H927 0.951 . S
C951 C952 1.366 . S
C951 C953 1.388 . S
C952 C951 1.366 . S
C952 C956 1.385 . S
C953 H928 0.951 . S
C953 C951 1.388 . S
C953 C954 1.366 . S
C954 C953 1.366 . S
C954 C955 1.414 . S
C954 C957 1.499 . S
C955 H929 0.950 . S
C955 C954 1.414 . S
C955 C956 1.374 . S
C956 H930 0.950 . S
C956 C952 1.385 . S
C956 C955 1.374 . S
C957 C954 1.499 . S
C957 C958 1.373 . S
C957 C959 1.389 . S
C958 H931 0.950 . S
C958 C944 1.377 1_655 S
C958 C957 1.373 . S
C959 C943 1.377 1_655 S
C959 C957 1.389 . S
C959 C960 1.524 . S
C960 C959 1.524 . S
C960 C961 1.397 . S
C960 C965 1.363 . S
C961 H932 0.950 . S
C961 C960 1.397 . S
C961 C962 1.334 . S
C962 H933 0.950 . S
C962 C961 1.334 . S
C962 C963 1.287 . S
C963 C962 1.287 . S
C963 C964 1.524 . S
C963 H966 0.999 . S
C964 H934 0.950 . S
C964 C963 1.524 . S
C964 C965 1.415 . S
C965 H935 0.950 . S
C965 C960 1.363 . S
C965 C964 1.415 . S
H966 C963 0.999 . S
H967 C948 0.913 . S
H968 C986 0.951 . S
H969 C988 0.951 . S
H970 C990 0.950 . S
H971 C991 0.950 . S
H972 C993 0.950 . S
H973 C996 0.950 . S
H974 C997 0.950 . S
H975 C999 0.950 1_565 S
H976 C1000 0.950 . S
H977 C1001 0.951 . S
H978 C1003 0.951 . S
H979 C1005 0.950 . S
H980 C1006 0.950 . S
H981 C1008 0.950 . S
H982 C1011 0.950 . S
H983 C1012 0.950 . S
H984 C1014 0.950 1_545 S
H985 C1015 0.950 . S
C986 H968 0.951 . S
C986 C987 1.366 . S
C986 C988 1.388 . S
C987 C986 1.366 . S
C987 C991 1.385 . S
C988 H969 0.951 . S
C988 C986 1.388 . S
C988 C989 1.366 . S
C989 C988 1.366 . S
C989 C990 1.414 . S
C989 C992 1.499 . S
C990 H970 0.950 . S
C990 C989 1.414 . S
C990 C991 1.374 . S
C991 H971 0.950 . S
C991 C987 1.385 . S
C991 C990 1.374 . S
C992 C989 1.499 . S
C992 C993 1.373 . S
C992 C994 1.389 . S
C993 H972 0.950 . S
C993 C992 1.373 . S
C993 C1009 1.377 1_545 S
C994 C992 1.389 . S
C994 C995 1.524 . S
C994 C1008 1.377 1_545 S
C995 C994 1.524 . S
C995 C996 1.397 . S
C995 C1000 1.363 1_545 S
C996 H973 0.950 . S
C996 C995 1.397 . S
C996 C997 1.334 . S
C997 H974 0.950 . S
C997 C996 1.334 . S
C997 C998 1.287 . S
C998 C997 1.287 . S
C998 C999 1.524 . S
C998 H1017 0.913 . S
C999 H975 0.950 1_545 S
C999 C998 1.524 . S
C999 C1000 1.415 1_545 S
C1000 H976 0.950 . S
C1000 C995 1.363 1_565 S
C1000 C999 1.415 1_565 S
C1001 H977 0.951 . S
C1001 C1002 1.366 . S
C1001 C1003 1.388 . S
C1002 C1001 1.366 . S
C1002 C1006 1.385 . S
C1003 H978 0.951 . S
C1003 C1001 1.388 . S
C1003 C1004 1.366 . S
C1004 C1003 1.366 . S
C1004 C1005 1.414 . S
C1004 C1007 1.499 . S
C1005 H979 0.950 . S
C1005 C1004 1.414 . S
C1005 C1006 1.374 . S
C1006 H980 0.950 . S
C1006 C1002 1.385 . S
C1006 C1005 1.374 . S
C1007 C1004 1.499 . S
C1007 C1008 1.373 . S
C1007 C1009 1.389 . S
C1008 H981 0.950 . S
C1008 C994 1.377 1_565 S
C1008 C1007 1.373 . S
C1009 C993 1.377 1_565 S
C1009 C1007 1.389 . S
C1009 C1010 1.524 . S
C1010 C1009 1.524 . S
C1010 C1011 1.397 . S
C1010 C1015 1.363 1_565 S
C1011 H982 0.950 . S
C1011 C1010 1.397 . S
C1011 C1012 1.334 . S
C1012 H983 0.950 . S
C1012 C1011 1.334 . S
C1012 C1013 1.287 . S
C1013 C1012 1.287 . S
C1013 C1014 1.524 . S
C1013 H1016 0.999 . S
C1014 H984 0.950 1_565 S
C1014 C1013 1.524 . S
C1014 C1015 1.415 1_565 S
C1015 H985 0.950 . S
C1015 C1010 1.363 1_545 S
C1015 C1014 1.415 1_545 S
H1016 C1013 0.999 . S
H1017 C998 0.913 . S
H1018 C1036 0.951 . S
H1019 C1038 0.951 . S
H1020 C1040 0.950 . S
H1021 C1041 0.950 . S
H1022 C1043 0.950 . S
H1023 C1046 0.950 . S
H1024 C1047 0.950 . S
H1025 C1049 0.950 . S
H1026 C1050 0.950 . S
H1027 C1051 0.951 . S
H1028 C1053 0.951 . S
H1029 C1055 0.950 . S
H1030 C1056 0.950 . S
H1031 C1058 0.950 . S
H1032 C1061 0.950 . S
H1033 C1062 0.950 . S
H1034 C1064 0.950 . S
H1035 C1065 0.950 . S
C1036 H1018 0.951 . S
C1036 C1037 1.366 . S
C1036 C1038 1.388 . S
C1037 C1036 1.366 . S
C1037 C1041 1.385 . S
C1038 H1019 0.951 . S
C1038 C1036 1.388 . S
C1038 C1039 1.366 . S
C1039 C1038 1.366 . S
C1039 C1040 1.414 . S
C1039 C1042 1.499 . S
C1040 H1020 0.950 . S
C1040 C1039 1.414 . S
C1040 C1041 1.374 . S
C1041 H1021 0.950 . S
C1041 C1037 1.385 . S
C1041 C1040 1.374 . S
C1042 C1039 1.499 . S
C1042 C1043 1.373 . S
C1042 C1044 1.389 . S
C1043 H1022 0.950 . S
C1043 C1042 1.373 . S
C1043 C1059 1.377 . S
C1044 C1042 1.389 . S
C1044 C1045 1.524 . S
C1044 C1058 1.377 . S
C1045 C1044 1.524 . S
C1045 C1046 1.397 . S
C1045 C1050 1.363 . S
C1046 H1023 0.950 . S
C1046 C1045 1.397 . S
C1046 C1047 1.334 . S
C1047 H1024 0.950 . S
C1047 C1046 1.334 . S
C1047 C1048 1.287 . S
C1048 C1047 1.287 . S
C1048 C1049 1.524 . S
C1048 H1067 0.913 . S
C1049 H1025 0.950 . S
C1049 C1048 1.524 . S
C1049 C1050 1.415 . S
C1050 H1026 0.950 . S
C1050 C1045 1.363 . S
C1050 C1049 1.415 . S
C1051 H1027 0.951 . S
C1051 C1052 1.366 . S
C1051 C1053 1.388 . S
C1052 C1051 1.366 . S
C1052 C1056 1.385 . S
C1053 H1028 0.951 . S
C1053 C1051 1.388 . S
C1053 C1054 1.366 . S
C1054 C1053 1.366 . S
C1054 C1055 1.414 . S
C1054 C1057 1.499 . S
C1055 H1029 0.950 . S
C1055 C1054 1.414 . S
C1055 C1056 1.374 . S
C1056 H1030 0.950 . S
C1056 C1052 1.385 . S
C1056 C1055 1.374 . S
C1057 C1054 1.499 . S
C1057 C1058 1.373 . S
C1057 C1059 1.389 . S
C1058 H1031 0.950 . S
C1058 C1044 1.377 . S
C1058 C1057 1.373 . S
C1059 C1043 1.377 . S
C1059 C1057 1.389 . S
C1059 C1060 1.524 1_554 S
C1060 C1059 1.524 1_556 S
C1060 C1061 1.397 . S
C1060 C1065 1.363 . S
C1061 H1032 0.950 . S
C1061 C1060 1.397 . S
C1061 C1062 1.334 . S
C1062 H1033 0.950 . S
C1062 C1061 1.334 . S
C1062 C1063 1.287 . S
C1063 C1062 1.287 . S
C1063 C1064 1.524 . S
C1063 H1066 0.999 . S
C1064 H1034 0.950 . S
C1064 C1063 1.524 . S
C1064 C1065 1.415 . S
C1065 H1035 0.950 . S
C1065 C1060 1.363 . S
C1065 C1064 1.415 . S
H1066 C1063 0.999 . S
H1067 C1048 0.913 . S
H1068 C1086 0.951 . S
H1069 C1088 0.951 . S
H1070 C1090 0.950 . S
H1071 C1091 0.950 . S
H1072 C1093 0.950 . S
H1073 C1096 0.950 . S
H1074 C1097 0.950 . S
H1075 C1099 0.950 . S
H1076 C1100 0.950 . S
H1077 C1101 0.951 . S
H1078 C1103 0.951 . S
H1079 C1105 0.950 . S
H1080 C1106 0.950 . S
H1081 C1108 0.950 . S
H1082 C1111 0.950 . S
H1083 C1112 0.950 . S
H1084 C1114 0.950 . S
H1085 C1115 0.950 . S
C1086 H1068 0.951 . S
C1086 C1087 1.366 . S
C1086 C1088 1.388 . S
C1087 C1086 1.366 . S
C1087 C1091 1.385 . S
C1088 H1069 0.951 . S
C1088 C1086 1.388 . S
C1088 C1089 1.366 . S
C1089 C1088 1.366 . S
C1089 C1090 1.414 . S
C1089 C1092 1.499 . S
C1090 H1070 0.950 . S
C1090 C1089 1.414 . S
C1090 C1091 1.374 . S
C1091 H1071 0.950 . S
C1091 C1087 1.385 . S
C1091 C1090 1.374 . S
C1092 C1089 1.499 . S
C1092 C1093 1.373 . S
C1092 C1094 1.389 . S
C1093 H1072 0.950 . S
C1093 C1092 1.373 . S
C1093 C1109 1.377 . S
C1094 C1092 1.389 . S
C1094 C1095 1.524 . S
C1094 C1108 1.377 . S
C1095 C1094 1.524 . S
C1095 C1096 1.397 . S
C1095 C1100 1.363 . S
C1096 H1073 0.950 . S
C1096 C1095 1.397 . S
C1096 C1097 1.334 . S
C1097 H1074 0.950 . S
C1097 C1096 1.334 . S
C1097 C1098 1.287 . S
C1098 C1097 1.287 . S
C1098 C1099 1.524 . S
C1098 H1117 0.913 . S
C1099 H1075 0.950 . S
C1099 C1098 1.524 . S
C1099 C1100 1.415 . S
C1100 H1076 0.950 . S
C1100 C1095 1.363 . S
C1100 C1099 1.415 . S
C1101 H1077 0.951 . S
C1101 C1102 1.366 . S
C1101 C1103 1.388 . S
C1102 C1101 1.366 . S
C1102 C1106 1.385 . S
C1103 H1078 0.951 . S
C1103 C1101 1.388 . S
C1103 C1104 1.366 . S
C1104 C1103 1.366 . S
C1104 C1105 1.414 . S
C1104 C1107 1.499 . S
C1105 H1079 0.950 . S
C1105 C1104 1.414 . S
C1105 C1106 1.374 . S
C1106 H1080 0.950 . S
C1106 C1102 1.385 . S
C1106 C1105 1.374 . S
C1107 C1104 1.499 . S
C1107 C1108 1.373 . S
C1107 C1109 1.389 . S
C1108 H1081 0.950 . S
C1108 C1094 1.377 . S
C1108 C1107 1.373 . S
C1109 C1093 1.377 . S
C1109 C1107 1.389 . S
C1109 C1110 1.524 . S
C1110 C1109 1.524 . S
C1110 C1111 1.397 . S
C1110 C1115 1.363 . S
C1111 H1082 0.950 . S
C1111 C1110 1.397 . S
C1111 C1112 1.334 . S
C1112 H1083 0.950 . S
C1112 C1111 1.334 . S
C1112 C1113 1.287 . S
C1113 C1112 1.287 . S
C1113 C1114 1.524 . S
C1113 H1116 0.999 . S
C1114 H1084 0.950 . S
C1114 C1113 1.524 . S
C1114 C1115 1.415 . S
C1115 H1085 0.950 . S
C1115 C1110 1.363 . S
C1115 C1114 1.415 . S
H1116 C1113 0.999 . S
H1117 C1098 0.913 . S
H1118 C1136 0.951 . S
H1119 C1138 0.951 . S
H1120 C1140 0.950 . S
H1121 C1141 0.950 . S
H1122 C1143 0.950 . S
H1123 C1146 0.950 . S
H1124 C1147 0.950 . S
H1125 C1149 0.950 . S
H1126 C1150 0.950 . S
H1127 C1151 0.951 . S
H1128 C1153 0.951 . S
H1129 C1155 0.950 . S
H1130 C1156 0.950 . S
H1131 C1158 0.950 . S
H1132 C1161 0.950 . S
H1133 C1162 0.950 . S
H1134 C1164 0.950 . S
H1135 C1165 0.950 . S
C1136 H1118 0.951 . S
C1136 C1137 1.366 . S
C1136 C1138 1.388 . S
C1137 C1136 1.366 . S
C1137 C1141 1.385 . S
C1138 H1119 0.951 . S
C1138 C1136 1.388 . S
C1138 C1139 1.366 . S
C1139 C1138 1.366 . S
C1139 C1140 1.414 . S
C1139 C1142 1.499 . S
C1140 H1120 0.950 . S
C1140 C1139 1.414 . S
C1140 C1141 1.374 . S
C1141 H1121 0.950 . S
C1141 C1137 1.385 . S
C1141 C1140 1.374 . S
C1142 C1139 1.499 . S
C1142 C1143 1.373 . S
C1142 C1144 1.389 . S
C1143 H1122 0.950 . S
C1143 C1142 1.373 . S
C1143 C1159 1.377 . S
C1144 C1142 1.389 . S
C1144 C1145 1.524 . S
C1144 C1158 1.377 . S
C1145 C1144 1.524 . S
C1145 C1146 1.397 . S
C1145 C1150 1.363 . S
C1146 H1123 0.950 . S
C1146 C1145 1.397 . S
C1146 C1147 1.334 . S
C1147 H1124 0.950 . S
C1147 C1146 1.334 . S
C1147 C1148 1.287 . S
C1148 C1147 1.287 . S
C1148 C1149 1.524 . S
C1148 H1167 0.913 . S
C1149 H1125 0.950 . S
C1149 C1148 1.524 . S
C1149 C1150 1.415 . S
C1150 H1126 0.950 . S
C1150 C1145 1.363 . S
C1150 C1149 1.415 . S
C1151 H1127 0.951 . S
C1151 C1152 1.366 . S
C1151 C1153 1.388 . S
C1152 C1151 1.366 . S
C1152 C1156 1.385 . S
C1153 H1128 0.951 . S
C1153 C1151 1.388 . S
C1153 C1154 1.366 . S
C1154 C1153 1.366 . S
C1154 C1155 1.414 . S
C1154 C1157 1.499 . S
C1155 H1129 0.950 . S
C1155 C1154 1.414 . S
C1155 C1156 1.374 . S
C1156 H1130 0.950 . S
C1156 C1152 1.385 . S
C1156 C1155 1.374 . S
C1157 C1154 1.499 . S
C1157 C1158 1.373 . S
C1157 C1159 1.389 . S
C1158 H1131 0.950 . S
C1158 C1144 1.377 . S
C1158 C1157 1.373 . S
C1159 C1143 1.377 . S
C1159 C1157 1.389 . S
C1159 C1160 1.524 . S
C1160 C1159 1.524 . S
C1160 C1161 1.397 . S
C1160 C1165 1.363 . S
C1161 H1132 0.950 . S
C1161 C1160 1.397 . S
C1161 C1162 1.334 . S
C1162 H1133 0.950 . S
C1162 C1161 1.334 . S
C1162 C1163 1.287 . S
C1163 C1162 1.287 . S
C1163 C1164 1.524 . S
C1163 H1166 0.999 . S
C1164 H1134 0.950 . S
C1164 C1163 1.524 . S
C1164 C1165 1.415 . S
C1165 H1135 0.950 . S
C1165 C1160 1.363 . S
C1165 C1164 1.415 . S
H1166 C1163 0.999 . S
H1167 C1148 0.913 . S
H1168 C1186 0.951 . S
H1169 C1188 0.951 . S
H1170 C1190 0.950 . S
H1171 C1191 0.950 . S
H1172 C1193 0.950 . S
H1173 C1196 0.950 . S
H1174 C1197 0.950 . S
H1175 C1199 0.950 . S
H1176 C1200 0.950 . S
H1177 C1201 0.951 . S
H1178 C1203 0.951 . S
H1179 C1205 0.950 . S
H1180 C1206 0.950 . S
H1181 C1208 0.950 . S
H1182 C1211 0.950 . S
H1183 C1212 0.950 . S
H1184 C1214 0.950 . S
H1185 C1215 0.950 . S
C1186 H1168 0.951 . S
C1186 C1187 1.366 . S
C1186 C1188 1.388 . S
C1187 C1186 1.366 . S
C1187 C1191 1.385 . S
C1188 H1169 0.951 . S
C1188 C1186 1.388 . S
C1188 C1189 1.366 . S
C1189 C1188 1.366 . S
C1189 C1190 1.414 . S
C1189 C1192 1.499 . S
C1190 H1170 0.950 . S
C1190 C1189 1.414 . S
C1190 C1191 1.374 . S
C1191 H1171 0.950 . S
C1191 C1187 1.385 . S
C1191 C1190 1.374 . S
C1192 C1189 1.499 . S
C1192 C1193 1.373 . S
C1192 C1194 1.389 . S
C1193 H1172 0.950 . S
C1193 C1192 1.373 . S
C1193 C1209 1.377 . S
C1194 C1192 1.389 . S
C1194 C1195 1.524 . S
C1194 C1208 1.377 . S
C1195 C1194 1.524 . S
C1195 C1196 1.397 . S
C1195 C1200 1.363 . S
C1196 H1173 0.950 . S
C1196 C1195 1.397 . S
C1196 C1197 1.334 . S
C1197 H1174 0.950 . S
C1197 C1196 1.334 . S
C1197 C1198 1.287 . S
C1198 C1197 1.287 . S
C1198 C1199 1.524 . S
C1198 H1217 0.913 . S
C1199 H1175 0.950 . S
C1199 C1198 1.524 . S
C1199 C1200 1.415 . S
C1200 H1176 0.950 . S
C1200 C1195 1.363 . S
C1200 C1199 1.415 . S
C1201 H1177 0.951 . S
C1201 C1202 1.366 . S
C1201 C1203 1.388 . S
C1202 C1201 1.366 . S
C1202 C1206 1.385 . S
C1203 H1178 0.951 . S
C1203 C1201 1.388 . S
C1203 C1204 1.366 . S
C1204 C1203 1.366 . S
C1204 C1205 1.414 . S
C1204 C1207 1.499 . S
C1205 H1179 0.950 . S
C1205 C1204 1.414 . S
C1205 C1206 1.374 . S
C1206 H1180 0.950 . S
C1206 C1202 1.385 . S
C1206 C1205 1.374 . S
C1207 C1204 1.499 . S
C1207 C1208 1.373 . S
C1207 C1209 1.389 . S
C1208 H1181 0.950 . S
C1208 C1194 1.377 . S
C1208 C1207 1.373 . S
C1209 C1193 1.377 . S
C1209 C1207 1.389 . S
C1209 C1210 1.524 . S
C1210 C1209 1.524 . S
C1210 C1211 1.397 . S
C1210 C1215 1.363 . S
C1211 H1182 0.950 . S
C1211 C1210 1.397 . S
C1211 C1212 1.334 . S
C1212 H1183 0.950 . S
C1212 C1211 1.334 . S
C1212 C1213 1.287 . S
C1213 C1212 1.287 . S
C1213 C1214 1.524 . S
C1213 H1216 0.999 . S
C1214 H1184 0.950 . S
C1214 C1213 1.524 . S
C1214 C1215 1.415 . S
C1215 H1185 0.950 . S
C1215 C1210 1.363 . S
C1215 C1214 1.415 . S
H1216 C1213 0.999 . S
H1217 C1198 0.913 . S
H1218 C1236 0.951 . S
H1219 C1238 0.951 . S
H1220 C1240 0.950 . S
H1221 C1241 0.950 . S
H1222 C1243 0.950 . S
H1223 C1246 0.950 . S
H1224 C1247 0.950 . S
H1225 C1249 0.950 . S
H1226 C1250 0.950 . S
H1227 C1251 0.951 . S
H1228 C1253 0.951 . S
H1229 C1255 0.950 . S
H1230 C1256 0.950 . S
H1231 C1258 0.950 . S
H1232 C1261 0.950 . S
H1233 C1262 0.950 . S
H1234 C1264 0.950 . S
H1235 C1265 0.950 . S
C1236 H1218 0.951 . S
C1236 C1237 1.366 . S
C1236 C1238 1.388 . S
C1237 C1236 1.366 . S
C1237 C1241 1.385 . S
C1238 H1219 0.951 . S
C1238 C1236 1.388 . S
C1238 C1239 1.366 . S
C1239 C1238 1.366 . S
C1239 C1240 1.414 . S
C1239 C1242 1.499 . S
C1240 H1220 0.950 . S
C1240 C1239 1.414 . S
C1240 C1241 1.374 . S
C1241 H1221 0.950 . S
C1241 C1237 1.385 . S
C1241 C1240 1.374 . S
C1242 C1239 1.499 . S
C1242 C1243 1.373 . S
C1242 C1244 1.389 . S
C1243 H1222 0.950 . S
C1243 C1242 1.373 . S
C1243 C1259 1.377 . S
C1244 C1242 1.389 . S
C1244 C1245 1.524 . S
C1244 C1258 1.377 . S
C1245 C1244 1.524 . S
C1245 C1246 1.397 . S
C1245 C1250 1.363 . S
C1246 H1223 0.950 . S
C1246 C1245 1.397 . S
C1246 C1247 1.334 . S
C1247 H1224 0.950 . S
C1247 C1246 1.334 . S
C1247 C1248 1.287 . S
C1248 C1247 1.287 . S
C1248 C1249 1.524 . S
C1248 H1267 0.913 . S
C1249 H1225 0.950 . S
C1249 C1248 1.524 . S
C1249 C1250 1.415 . S
C1250 H1226 0.950 . S
C1250 C1245 1.363 . S
C1250 C1249 1.415 . S
C1251 H1227 0.951 . S
C1251 C1252 1.366 . S
C1251 C1253 1.388 . S
C1252 C1251 1.366 . S
C1252 C1256 1.385 . S
C1253 H1228 0.951 . S
C1253 C1251 1.388 . S
C1253 C1254 1.366 . S
C1254 C1253 1.366 . S
C1254 C1255 1.414 . S
C1254 C1257 1.499 . S
C1255 H1229 0.950 . S
C1255 C1254 1.414 . S
C1255 C1256 1.374 . S
C1256 H1230 0.950 . S
C1256 C1252 1.385 . S
C1256 C1255 1.374 . S
C1257 C1254 1.499 . S
C1257 C1258 1.373 . S
C1257 C1259 1.389 . S
C1258 H1231 0.950 . S
C1258 C1244 1.377 . S
C1258 C1257 1.373 . S
C1259 C1243 1.377 . S
C1259 C1257 1.389 . S
C1259 C1260 1.524 . S
C1260 C1259 1.524 . S
C1260 C1261 1.397 . S
C1260 C1265 1.363 . S
C1261 H1232 0.950 . S
C1261 C1260 1.397 . S
C1261 C1262 1.334 . S
C1262 H1233 0.950 . S
C1262 C1261 1.334 . S
C1262 C1263 1.287 . S
C1263 C1262 1.287 . S
C1263 C1264 1.524 . S
C1263 H1266 0.999 . S
C1264 H1234 0.950 . S
C1264 C1263 1.524 . S
C1264 C1265 1.415 . S
C1265 H1235 0.950 . S
C1265 C1260 1.363 . S
C1265 C1264 1.415 . S
H1266 C1263 0.999 . S
H1267 C1248 0.913 . S
H1268 C1286 0.951 . S
H1269 C1288 0.951 . S
H1270 C1290 0.950 . S
H1271 C1291 0.950 . S
H1272 C1293 0.950 . S
H1273 C1296 0.950 . S
H1274 C1297 0.950 . S
H1275 C1299 0.950 . S
H1276 C1300 0.950 . S
H1277 C1301 0.951 . S
H1278 C1303 0.951 . S
H1279 C1305 0.950 . S
H1280 C1306 0.950 . S
H1281 C1308 0.950 . S
H1282 C1311 0.950 . S
H1283 C1312 0.950 . S
H1284 C1314 0.950 . S
H1285 C1315 0.950 . S
C1286 H1268 0.951 . S
C1286 C1287 1.366 . S
C1286 C1288 1.388 . S
C1287 C1286 1.366 . S
C1287 C1291 1.385 . S
C1288 H1269 0.951 . S
C1288 C1286 1.388 . S
C1288 C1289 1.366 . S
C1289 C1288 1.366 . S
C1289 C1290 1.414 . S
C1289 C1292 1.499 . S
C1290 H1270 0.950 . S
C1290 C1289 1.414 . S
C1290 C1291 1.374 . S
C1291 H1271 0.950 . S
C1291 C1287 1.385 . S
C1291 C1290 1.374 . S
C1292 C1289 1.499 . S
C1292 C1293 1.373 . S
C1292 C1294 1.389 . S
C1293 H1272 0.950 . S
C1293 C1292 1.373 . S
C1293 C1309 1.377 . S
C1294 C1292 1.389 . S
C1294 C1295 1.524 . S
C1294 C1308 1.377 . S
C1295 C1294 1.524 . S
C1295 C1296 1.397 . S
C1295 C1300 1.363 . S
C1296 H1273 0.950 . S
C1296 C1295 1.397 . S
C1296 C1297 1.334 . S
C1297 H1274 0.950 . S
C1297 C1296 1.334 . S
C1297 C1298 1.287 . S
C1298 C1297 1.287 . S
C1298 C1299 1.524 . S
C1298 H1317 0.913 . S
C1299 H1275 0.950 . S
C1299 C1298 1.524 . S
C1299 C1300 1.415 . S
C1300 H1276 0.950 . S
C1300 C1295 1.363 . S
C1300 C1299 1.415 . S
C1301 H1277 0.951 . S
C1301 C1302 1.366 . S
C1301 C1303 1.388 . S
C1302 C1301 1.366 . S
C1302 C1306 1.385 . S
C1303 H1278 0.951 . S
C1303 C1301 1.388 . S
C1303 C1304 1.366 . S
C1304 C1303 1.366 . S
C1304 C1305 1.414 . S
C1304 C1307 1.499 . S
C1305 H1279 0.950 . S
C1305 C1304 1.414 . S
C1305 C1306 1.374 . S
C1306 H1280 0.950 . S
C1306 C1302 1.385 . S
C1306 C1305 1.374 . S
C1307 C1304 1.499 . S
C1307 C1308 1.373 . S
C1307 C1309 1.389 . S
C1308 H1281 0.950 . S
C1308 C1294 1.377 . S
C1308 C1307 1.373 . S
C1309 C1293 1.377 . S
C1309 C1307 1.389 . S
C1309 C1310 1.524 . S
C1310 C1309 1.524 . S
C1310 C1311 1.397 . S
C1310 C1315 1.363 . S
C1311 H1282 0.950 . S
C1311 C1310 1.397 . S
C1311 C1312 1.334 . S
C1312 H1283 0.950 . S
C1312 C1311 1.334 . S
C1312 C1313 1.287 . S
C1313 C1312 1.287 . S
C1313 C1314 1.524 . S
C1313 H1316 0.999 . S
C1314 H1284 0.950 . S
C1314 C1313 1.524 . S
C1314 C1315 1.415 . S
C1315 H1285 0.950 . S
C1315 C1310 1.363 . S
C1315 C1314 1.415 . S
H1316 C1313 0.999 . S
H1317 C1298 0.913 . S
H1318 C1336 0.951 . S
H1319 C1338 0.951 . S
H1320 C1340 0.950 . S
H1321 C1341 0.950 . S
H1322 C1343 0.950 . S
H1323 C1346 0.950 . S
H1324 C1347 0.950 . S
H1325 C1349 0.950 . S
H1326 C1350 0.950 . S
H1327 C1351 0.951 . S
H1328 C1353 0.951 . S
H1329 C1355 0.950 . S
H1330 C1356 0.950 . S
H1331 C1358 0.950 . S
H1332 C1361 0.950 . S
H1333 C1362 0.950 . S
H1334 C1364 0.950 . S
H1335 C1365 0.950 . S
C1336 H1318 0.951 . S
C1336 C1337 1.366 . S
C1336 C1338 1.388 . S
C1337 C1336 1.366 . S
C1337 C1341 1.385 . S
C1338 H1319 0.951 . S
C1338 C1336 1.388 . S
C1338 C1339 1.366 . S
C1339 C1338 1.366 . S
C1339 C1340 1.414 . S
C1339 C1342 1.499 . S
C1340 H1320 0.950 . S
C1340 C1339 1.414 . S
C1340 C1341 1.374 . S
C1341 H1321 0.950 . S
C1341 C1337 1.385 . S
C1341 C1340 1.374 . S
C1342 C1339 1.499 . S
C1342 C1343 1.373 . S
C1342 C1344 1.389 . S
C1343 H1322 0.950 . S
C1343 C1342 1.373 . S
C1343 C1359 1.377 . S
C1344 C1342 1.389 . S
C1344 C1345 1.524 . S
C1344 C1358 1.377 . S
C1345 C1344 1.524 . S
C1345 C1346 1.397 . S
C1345 C1350 1.363 . S
C1346 H1323 0.950 . S
C1346 C1345 1.397 . S
C1346 C1347 1.334 . S
C1347 H1324 0.950 . S
C1347 C1346 1.334 . S
C1347 C1348 1.287 . S
C1348 C1347 1.287 . S
C1348 C1349 1.524 . S
C1348 H1367 0.913 . S
C1349 H1325 0.950 . S
C1349 C1348 1.524 . S
C1349 C1350 1.415 . S
C1350 H1326 0.950 . S
C1350 C1345 1.363 . S
C1350 C1349 1.415 . S
C1351 H1327 0.951 . S
C1351 C1352 1.366 . S
C1351 C1353 1.388 . S
C1352 C1351 1.366 . S
C1352 C1356 1.385 . S
C1353 H1328 0.951 . S
C1353 C1351 1.388 . S
C1353 C1354 1.366 . S
C1354 C1353 1.366 . S
C1354 C1355 1.414 . S
C1354 C1357 1.499 . S
C1355 H1329 0.950 . S
C1355 C1354 1.414 . S
C1355 C1356 1.374 . S
C1356 H1330 0.950 . S
C1356 C1352 1.385 . S
C1356 C1355 1.374 . S
C1357 C1354 1.499 . S
C1357 C1358 1.373 . S
C1357 C1359 1.389 . S
C1358 H1331 0.950 . S
C1358 C1344 1.377 . S
C1358 C1357 1.373 . S
C1359 C1343 1.377 . S
C1359 C1357 1.389 . S
C1359 C1360 1.524 . S
C1360 C1359 1.524 . S
C1360 C1361 1.397 . S
C1360 C1365 1.363 . S
C1361 H1332 0.950 . S
C1361 C1360 1.397 . S
C1361 C1362 1.334 . S
C1362 H1333 0.950 . S
C1362 C1361 1.334 . S
C1362 C1363 1.287 . S
C1363 C1362 1.287 . S
C1363 C1364 1.524 . S
C1363 H1366 0.999 . S
C1364 H1334 0.950 . S
C1364 C1363 1.524 . S
C1364 C1365 1.415 . S
C1365 H1335 0.950 . S
C1365 C1360 1.363 . S
C1365 C1364 1.415 . S
H1366 C1363 0.999 . S
H1367 C1348 0.913 . S
C187 C7 1.449 . S
C202 C147 1.450 . S
C237 C21 1.449 . S
C252 C161 1.450 . S
C287 C91 1.449 . S
C302 C35 1.450 . S
C337 C49 1.449 . S
C352 C105 1.450 . S
C387 C119 1.449 . S
C402 C63 1.450 . S
C437 C133 1.449 . S
C452 C77 1.450 . S
C487 C93 0.303 . S
C502 C9 0.306 . S
C537 C107 0.304 . S
C552 C23 0.308 . S
C587 C121 0.305 . S
C602 C37 0.303 . S
C637 C51 0.307 . S
C652 C135 0.307 . S
C687 C65 0.307 . S
C702 C149 0.307 . S
C737 C79 0.308 . S
C752 C163 0.304 . S
C787 C8 1.413 . S
C802 C50 1.413 . S
C837 C22 1.413 . S
C852 C64 1.413 . S
C887 C36 1.413 . S
C902 C78 1.413 . S
C937 C134 1.413 . S
C952 C92 1.414 . S
C987 C148 1.413 . S
C1002 C106 1.413 . S
C1037 C162 1.413 . S
C1052 C120 1.413 . S
C1087 C3 1.467 . S
C1102 C115 1.467 . S
C1137 C129 1.468 . S
C1152 C17 1.467 . S
C1187 C31 1.468 . S
C1202 C143 1.467 . S
C1237 C157 1.467 . S
C1252 C45 1.468 . S
C1287 C59 1.468 . S
C1302 C87 1.467 . S
C1337 C73 1.467 . S
C1352 C101 1.468 . S
