# Generated by pormake.
# Topology uov, (4)-cn, num edge types: 1
# Building blocks:
#     Node 0, Type 0, BuildingBlock: CEKHIL_clean_sbu_0, # of connection points: 4
#     Node 1, Type 0, BuildingBlock: CEKHIL_clean_sbu_0, # of connection points: 4
#     Node 2, Type 0, BuildingBlock: CEKHIL_clean_sbu_0, # of connection points: 4
#     Node 3, Type 0, BuildingBlock: CEKHIL_clean_sbu_0, # of connection points: 4
#     Node 4, Type 0, BuildingBlock: CEKHIL_clean_sbu_0, # of connection points: 4
#     Node 5, Type 0, BuildingBlock: CEKHIL_clean_sbu_0, # of connection points: 4
#     Node 6, Type 0, BuildingBlock: CEKHIL_clean_sbu_0, # of connection points: 4
#     Node 7, Type 0, BuildingBlock: CEKHIL_clean_sbu_0, # of connection points: 4
#     Edge 8, Type (0, 0), BuildingBlock: AJUNOK_clean_linker_0, # of connection points: 2
#     Edge 9, Type (0, 0), BuildingBlock: AJUNOK_clean_linker_0, # of connection points: 2
#     Edge 10, Type (0, 0), BuildingBlock: AJUNOK_clean_linker_0, # of connection points: 2
#     Edge 11, Type (0, 0), BuildingBlock: AJUNOK_clean_linker_0, # of connection points: 2
#     Edge 12, Type (0, 0), BuildingBlock: AJUNOK_clean_linker_0, # of connection points: 2
#     Edge 13, Type (0, 0), BuildingBlock: AJUNOK_clean_linker_0, # of connection points: 2
#     Edge 14, Type (0, 0), BuildingBlock: AJUNOK_clean_linker_0, # of connection points: 2
#     Edge 15, Type (0, 0), BuildingBlock: AJUNOK_clean_linker_0, # of connection points: 2
#     Edge 16, Type (0, 0), BuildingBlock: AJUNOK_clean_linker_0, # of connection points: 2
#     Edge 17, Type (0, 0), BuildingBlock: AJUNOK_clean_linker_0, # of connection points: 2
#     Edge 18, Type (0, 0), BuildingBlock: AJUNOK_clean_linker_0, # of connection points: 2
#     Edge 19, Type (0, 0), BuildingBlock: AJUNOK_clean_linker_0, # of connection points: 2
#     Edge 20, Type (0, 0), BuildingBlock: AJUNOK_clean_linker_0, # of connection points: 2
#     Edge 21, Type (0, 0), BuildingBlock: AJUNOK_clean_linker_0, # of connection points: 2
#     Edge 22, Type (0, 0), BuildingBlock: AJUNOK_clean_linker_0, # of connection points: 2
#     Edge 23, Type (0, 0), BuildingBlock: AJUNOK_clean_linker_0, # of connection points: 2
# Relax obj value: 0.153
# Max RMSD: 0.152
# Mean RMSD: 0.152
data_MOF--net-uov--node1-CEKHIL_clean_sbu_0--edge1-AJUNOK_clean_linker_0
_symmetry_space_group_name_H-M    P1
_symmetry_Int_Tables_number       1
_symmetry_cell_setting            triclinic
loop_
_symmetry_equiv_pos_as_xyz
'x, y, z'
_cell_length_a     21.891558
_cell_length_b     21.904451
_cell_length_c     30.786048
_cell_angle_alpha  90.049928
_cell_angle_beta   89.935742
_cell_angle_gamma 89.914595
loop_
_atom_site_label
_atom_site_type_symbol
_atom_site_fract_x
_atom_site_fract_y
_atom_site_fract_z
_atom_type_partial_charge
Co0 Co 0.02321 0.27508 0.60978 0.0
O1 O 0.98072 0.33468 0.64497 0.0
O2 O 0.06547 0.35253 0.60786 0.0
C3 C 0.93914 0.23911 0.57537 0.0
O4 O 0.07781 0.22711 0.56786 0.0
Co5 Co 0.99622 0.13546 0.61533 0.0
O6 O 0.03632 0.1342 0.55774 0.0
C7 C 0.08418 0.19286 0.6764 0.0
C8 C 0.02164 0.37356 0.63221 0.0
C9 C 0.07382 0.17601 0.54731 0.0
O10 O 0.07492 0.24658 0.66054 0.0
O11 O 0.05632 0.14479 0.66362 0.0
O12 O 0.96499 0.28937 0.5627 0.0
O13 O 0.96118 0.21595 0.61055 0.0
Co14 Co 0.27402 0.9854 0.38534 0.0
O15 O 0.3329 0.03058 0.35152 0.0
O16 O 0.35272 0.94488 0.38673 0.0
C17 C 0.23567 0.0667 0.42211 0.0
O18 O 0.22683 0.9283 0.42564 0.0
Co19 Co 0.13378 0.01137 0.37745 0.0
O20 O 0.12842 0.95883 0.42939 0.0
C21 C 0.19454 0.92724 0.31537 0.0
C22 C 0.37296 0.99045 0.36381 0.0
C23 C 0.17249 0.925 0.44154 0.0
O24 O 0.24732 0.93533 0.33308 0.0
O25 O 0.14586 0.95497 0.32726 0.0
O26 O 0.28656 0.04134 0.43407 0.0
O27 O 0.21354 0.04653 0.38601 0.0
Co28 Co 0.98556 0.73383 0.60775 0.0
O29 O 0.03 0.67519 0.64223 0.0
O30 O 0.94221 0.65683 0.60942 0.0
C31 C 0.06719 0.76606 0.56882 0.0
O32 O 0.92815 0.78093 0.56745 0.0
Co33 Co 0.01635 0.87302 0.60884 0.0
O34 O 0.97074 0.87232 0.55338 0.0
C35 C 0.93495 0.8201 0.6763 0.0
C36 C 0.98808 0.63601 0.63184 0.0
C37 C 0.9314 0.831 0.54568 0.0
O38 O 0.93964 0.76584 0.6603 0.0
O39 O 0.96316 0.86677 0.66147 0.0
O40 O 0.03884 0.71618 0.55827 0.0
O41 O 0.04885 0.79145 0.60433 0.0
Co42 Co 0.73365 0.02555 0.38833 0.0
O43 O 0.67422 0.98462 0.35217 0.0
O44 O 0.65673 0.06901 0.3897 0.0
C45 C 0.76758 0.94032 0.42277 0.0
O46 O 0.78076 0.07903 0.43101 0.0
Co47 Co 0.87317 0.99599 0.38546 0.0
O48 O 0.87301 0.03677 0.44283 0.0
C49 C 0.81966 0.08669 0.32425 0.0
C50 C 0.63547 0.02583 0.365 0.0
C51 C 0.83114 0.07486 0.45229 0.0
O52 O 0.76482 0.0776 0.33835 0.0
O53 O 0.86658 0.05769 0.33803 0.0
O54 O 0.71733 0.96687 0.43496 0.0
O55 O 0.792 0.9625 0.38808 0.0
Co56 Co 0.98571 0.27211 0.10798 0.0
O57 O 0.0299 0.33342 0.14026 0.0
O58 O 0.9439 0.34971 0.10434 0.0
C59 C 0.06769 0.23251 0.0726 0.0
O60 O 0.92931 0.22218 0.069 0.0
Co61 Co 0.01245 0.1331 0.12103 0.0
O62 O 0.95676 0.12288 0.07111 0.0
C63 C 0.93098 0.19792 0.18234 0.0
C64 C 0.98852 0.3718 0.12732 0.0
C65 C 0.92416 0.16636 0.05643 0.0
O66 O 0.9356 0.24826 0.16093 0.0
O67 O 0.96064 0.14928 0.17316 0.0
O68 O 0.04193 0.28242 0.0591 0.0
O69 O 0.04741 0.21222 0.10925 0.0
Co70 Co 0.27804 0.02152 0.88505 0.0
O71 O 0.33639 0.97913 0.84894 0.0
O72 O 0.35634 0.06232 0.88712 0.0
C73 C 0.24151 0.93704 0.91853 0.0
O74 O 0.23103 0.07565 0.9279 0.0
Co75 Co 0.13806 0.99641 0.87945 0.0
O76 O 0.13791 0.03442 0.93773 0.0
C77 C 0.19648 0.08371 0.81856 0.0
C78 C 0.37636 0.01857 0.86226 0.0
C79 C 0.18001 0.07134 0.94861 0.0
O80 O 0.24989 0.07459 0.83496 0.0
O81 O 0.14815 0.05578 0.83077 0.0
O82 O 0.29214 0.96205 0.93129 0.0
O83 O 0.21816 0.96028 0.88379 0.0
Co84 Co 0.02712 0.73229 0.10544 0.0
O85 O 0.98367 0.67401 0.14078 0.0
O86 O 0.06809 0.65405 0.10378 0.0
C87 C 0.94359 0.7692 0.07065 0.0
O88 O 0.08261 0.77845 0.06352 0.0
Co89 Co 1.00203 0.87244 0.10991 0.0
O90 O 0.04203 0.87156 0.05227 0.0
C91 C 0.08837 0.81453 0.17196 0.0
C92 C 0.02351 0.634 0.12778 0.0
C93 C 0.07914 0.829 0.04239 0.0
O94 O 0.07888 0.76072 0.15627 0.0
O95 O 0.06106 0.86279 0.15885 0.0
O96 O 0.96887 0.71845 0.05822 0.0
O97 O 0.96593 0.79246 0.10572 0.0
Co98 Co 0.73546 0.98594 0.88638 0.0
O99 O 0.67631 0.02887 0.85146 0.0
O100 O 0.66061 0.93939 0.88279 0.0
C101 C 0.76298 0.06669 0.92765 0.0
O102 O 0.78365 0.92974 0.92683 0.0
Co103 Co 0.87317 0.02277 0.88749 0.0
O104 O 0.87289 0.97587 0.94241 0.0
C105 C 0.82671 0.93629 0.82081 0.0
C106 C 0.63869 0.98501 0.86066 0.0
C107 C 0.8331 0.93465 0.94919 0.0
O108 O 0.77117 0.94192 0.83426 0.0
O109 O 0.87198 0.96549 0.83687 0.0
O110 O 0.71341 0.03655 0.9361 0.0
O111 O 0.79022 0.05165 0.89198 0.0
C112 C 0.94657 0.52946 0.63575 0.0
C113 C 0.99651 0.5695 0.63949 0.0
C114 C 0.95487 0.46585 0.63629 0.0
C115 C 0.01357 0.43991 0.63945 0.0
H116 H 0.90089 0.54734 0.63104 0.0
H117 H 0.91532 0.43686 0.63176 0.0
S118 S 0.1589 0.52389 0.65357 0.0
N119 N 0.10648 0.57794 0.65003 0.0
N120 N 0.12181 0.45857 0.64931 0.0
C121 C 0.06355 0.47912 0.6449 0.0
C122 C 0.05507 0.54386 0.64544 0.0
C123 C 0.54349 0.95962 0.35531 0.0
C124 C 0.56891 0.0186 0.3576 0.0
C125 C 0.47992 0.95074 0.35582 0.0
C126 C 0.43939 1.00054 0.35732 0.0
H127 H 0.57289 0.91979 0.35551 0.0
H128 H 0.46242 0.9045 0.35605 0.0
S129 S 0.48273 0.16436 0.36033 0.0
N130 N 0.54861 0.12755 0.35954 0.0
N131 N 0.42937 0.11119 0.35885 0.0
C132 C 0.46424 0.05985 0.35726 0.0
C133 C 0.52893 0.06879 0.35786 0.0
C134 C 0.05506 0.46381 0.13455 0.0
C135 C 0.99602 0.43838 0.13382 0.0
C136 C 0.0638 0.52732 0.13421 0.0
C137 C 0.01382 0.5677 0.13444 0.0
H138 H 0.09492 0.43448 0.13314 0.0
H139 H 0.10998 0.54489 0.13274 0.0
S140 S 0.84995 0.5241 0.13601 0.0
N141 N 0.88693 0.45834 0.13525 0.0
N142 N 0.90308 0.57754 0.13621 0.0
C143 C 0.95457 0.54278 0.13602 0.0
C144 C 0.94572 0.47816 0.13524 0.0
C145 C 0.48263 0.05951 0.85531 0.0
C146 C 0.44262 0.00943 0.85454 0.0
C147 C 0.5462 0.05109 0.85409 0.0
C148 C 0.57217 0.99219 0.85332 0.0
H149 H 0.46475 0.10551 0.85804 0.0
H150 H 0.57516 0.09104 0.85629 0.0
S151 S 0.48743 0.84601 0.84864 0.0
N152 N 0.43356 0.89884 0.8502 0.0
N153 N 0.55298 0.88321 0.84954 0.0
C154 C 0.53272 0.94184 0.85103 0.0
C155 C 0.46796 0.95042 0.85118 0.0
C156 C 0.13765 0.11878 0.44134 0.0
C157 C 0.1986 0.10467 0.45216 0.0
C158 C 0.09809 0.14548 0.4717 0.0
C159 C 0.11857 0.16086 0.51343 0.0
H160 H 0.11926 0.10649 0.40991 0.0
H161 H 0.05056 0.15214 0.46304 0.0
S162 S 0.27442 0.13881 0.55726 0.0
N163 N 0.27815 0.11175 0.50721 0.0
N164 N 0.20368 0.16354 0.56372 0.0
C165 C 0.18003 0.15072 0.52396 0.0
C166 C 0.22017 0.12237 0.49338 0.0
C167 C 0.12498 0.82653 0.46142 0.0
C168 C 0.15829 0.8783 0.47401 0.0
C169 C 0.09917 0.78762 0.49252 0.0
C170 C 0.10484 0.80012 0.53718 0.0
H171 H 0.11641 0.81771 0.42732 0.0
H172 H 0.07148 0.74979 0.48136 0.0
S173 S 0.19159 0.9283 0.58626 0.0
N174 N 0.19901 0.93844 0.53335 0.0
N175 N 0.15018 0.86584 0.59222 0.0
C176 C 0.14072 0.85031 0.55002 0.0
C177 C 0.16746 0.88944 0.51827 0.0
C178 C 0.86353 0.88384 0.44018 0.0
C179 C 0.80364 0.9006 0.45226 0.0
C180 C 0.90379 0.85753 0.47009 0.0
C181 C 0.88505 0.84497 0.51269 0.0
H182 H 0.88082 0.89417 0.40806 0.0
H183 H 0.95069 0.84924 0.46036 0.0
S184 S 0.73164 0.87231 0.5596 0.0
N185 N 0.72635 0.89757 0.50918 0.0
N186 N 0.80205 0.84615 0.56493 0.0
C187 C 0.82425 0.85683 0.52442 0.0
C188 C 0.7834 0.88493 0.49423 0.0
C189 C 0.85974 0.10125 0.5278 0.0
C190 C 0.84547 0.12047 0.48562 0.0
C191 C 0.88556 0.1417 0.55779 0.0
C192 C 0.90015 0.20218 0.54608 0.0
H193 H 0.85299 0.05403 0.53713 0.0
H194 H 0.89717 0.12422 0.58961 0.0
S195 S 0.86723 0.27513 0.43982 0.0
N196 N 0.84297 0.20421 0.43416 0.0
N197 N 0.89355 0.28025 0.48997 0.0
C198 C 0.88294 0.22267 0.50451 0.0
C199 C 0.8553 0.18167 0.47432 0.0
C200 C 0.84198 0.14243 0.95016 0.0
C201 C 0.7959 0.10068 0.96181 0.0
C202 C 0.88126 0.16727 0.98154 0.0
C203 C 0.87626 0.15005 0.02527 0.0
H204 H 0.84913 0.15424 0.91637 0.0
H205 H 0.91776 0.19733 0.97123 0.0
S206 S 0.76223 0.04503 0.07313 0.0
N207 N 0.74576 0.04622 0.02082 0.0
N208 N 0.82103 0.09136 0.07923 0.0
C209 C 0.82926 0.11028 0.0376 0.0
C210 C 0.78851 0.08605 0.00599 0.0
C211 C 0.14331 0.09316 0.02321 0.0
C212 C 0.16507 0.11507 0.98327 0.0
C213 C 0.11576 0.1325 0.05331 0.0
C214 C 0.107 0.19481 0.04386 0.0
H215 H 0.14545 0.04478 0.03047 0.0
H216 H 0.09838 0.113 0.08312 0.0
S217 S 0.16034 0.27503 0.94465 0.0
N218 N 0.18061 0.20317 0.9369 0.0
N219 N 0.12702 0.27727 0.99281 0.0
C220 C 0.13149 0.21776 0.00484 0.0
C221 C 0.1609 0.17778 0.97464 0.0
C222 C 0.10352 0.85908 0.96693 0.0
C223 C 0.12401 0.84245 0.00837 0.0
C224 C 0.14349 0.88501 0.93667 0.0
C225 C 0.20479 0.8974 0.94746 0.0
H226 H 0.0557 0.85428 0.9585 0.0
H227 H 0.12503 0.89862 0.90554 0.0
S228 S 0.28134 0.85681 0.05107 0.0
N229 N 0.20988 0.8346 0.05778 0.0
N230 N 0.28511 0.88546 0.00151 0.0
C231 C 0.22656 0.87746 0.98807 0.0
C232 C 0.186 0.84964 0.01849 0.0
C233 C 0.86277 0.90694 0.02412 0.0
C234 C 0.84828 0.88827 0.98183 0.0
C235 C 0.88927 0.86637 0.05367 0.0
C236 C 0.90445 0.8062 0.04146 0.0
H237 H 0.85581 0.95397 0.03386 0.0
H238 H 0.90089 0.88357 0.08558 0.0
S239 S 0.87242 0.73469 0.93449 0.0
N240 N 0.84691 0.80535 0.92957 0.0
N241 N 0.89897 0.72905 0.98455 0.0
C242 C 0.88743 0.7862 -0.00031 0.0
C243 C 0.85898 0.82737 0.96993 0.0
C244 C 0.17393 0.13763 0.70513 0.0
C245 C 0.12936 0.18338 0.71108 0.0
C246 C 0.20311 0.1104 0.74071 0.0
C247 C 0.18802 0.12785 0.7832 0.0
H248 H 0.18218 0.11898 0.67302 0.0
H249 H 0.23249 0.07131 0.73511 0.0
S250 S 0.08184 0.25167 0.81572 0.0
N251 N 0.0778 0.25036 0.76211 0.0
N252 N 0.13198 0.19852 0.82924 0.0
C253 C 0.14842 0.17775 0.78929 0.0
C254 C 0.1192 0.20588 0.75305 0.0
C255 C 0.1158 0.80719 0.2498 0.0
C256 C 0.13231 0.82381 0.20744 0.0
C257 C 0.14236 0.83641 0.28567 0.0
C258 C 0.18655 0.88251 0.28016 0.0
H259 H 0.07779 0.77645 0.25518 0.0
H260 H 0.12423 0.82689 0.31773 0.0
S261 S 0.25204 0.9348 0.17589 0.0
N262 N 0.2006 0.88326 0.16192 0.0
N263 N 0.25106 0.93752 0.22955 0.0
C264 C 0.20816 0.89446 0.23823 0.0
C265 C 0.18076 0.86519 0.20172 0.0
C266 C 0.84445 0.87089 0.70839 0.0
C267 C 0.89502 0.83175 0.71376 0.0
C268 C 0.81755 0.9005 0.74411 0.0
C269 C 0.84151 0.89261 0.78597 0.0
H270 H 0.82862 0.88223 0.67603 0.0
H271 H 0.78162 0.9336 0.73845 0.0
S272 S 0.96833 0.78948 0.81766 0.0
N273 N 0.96357 0.78188 0.76436 0.0
N274 N 0.91394 0.83812 0.83154 0.0
C275 C 0.88878 0.84988 0.79206 0.0
C276 C 0.91542 0.8192 0.75586 0.0
C277 C 0.88382 0.17097 0.29649 0.0
C278 C 0.83232 0.13322 0.29079 0.0
C279 C 0.91153 0.20021 0.26117 0.0
C280 C 0.88841 0.19285 0.21908 0.0
H281 H 0.90611 0.17343 0.32787 0.0
H282 H 0.95467 0.22335 0.26618 0.0
S283 S 0.7487 0.10812 0.18802 0.0
N284 N 0.75444 0.09731 0.24099 0.0
N285 N 0.80671 0.15235 0.17429 0.0
C286 C 0.83314 0.16105 0.21371 0.0
C287 C 0.8048 0.13128 0.24976 0.0
loop_
_geom_bond_atom_site_label_1
_geom_bond_atom_site_label_2
_geom_bond_distance
_geom_bond_site_symmetry_2
_ccdc_geom_bond_type
Co0 O1 2.216 . S
Co0 O2 2.091 . S
Co0 O4 2.004 . S
Co0 O10 2.021 . S
Co0 O12 2.137 . S
Co0 O13 2.244 . S
O1 Co0 2.216 . S
O1 C8 1.247 . S
O2 Co0 2.091 . S
O2 C8 1.261 . S
C3 O12 1.247 . S
C3 O13 1.272 . S
O4 Co0 2.004 . S
O4 C9 1.259 . S
Co5 O6 2.061 . S
Co5 O11 2.052 . S
Co5 O13 2.135 . S
O6 Co5 2.061 . S
O6 C9 1.235 . S
C7 O10 1.238 . S
C7 O11 1.241 . S
C8 O1 1.247 . S
C8 O2 1.261 . S
C9 O4 1.259 . S
C9 O6 1.235 . S
O10 Co0 2.021 . S
O10 C7 1.238 . S
O11 Co5 2.052 . S
O11 C7 1.241 . S
O12 Co0 2.137 . S
O12 C3 1.247 . S
O13 Co0 2.244 . S
O13 C3 1.272 . S
O13 Co5 2.135 . S
Co14 O15 2.216 . S
Co14 O16 2.091 . S
Co14 O18 2.004 . S
Co14 O24 2.021 . S
Co14 O26 2.137 . S
Co14 O27 2.244 . S
O15 Co14 2.216 . S
O15 C22 1.247 . S
O16 Co14 2.091 . S
O16 C22 1.261 . S
C17 O26 1.247 . S
C17 O27 1.272 . S
O18 Co14 2.004 . S
O18 C23 1.259 . S
Co19 O20 2.061 . S
Co19 O25 2.052 . S
Co19 O27 2.135 . S
O20 Co19 2.061 . S
O20 C23 1.235 . S
C21 O24 1.238 . S
C21 O25 1.241 . S
C22 O15 1.247 . S
C22 O16 1.261 . S
C23 O18 1.259 . S
C23 O20 1.235 . S
O24 Co14 2.021 . S
O24 C21 1.238 . S
O25 Co19 2.052 . S
O25 C21 1.241 . S
O26 Co14 2.137 . S
O26 C17 1.247 . S
O27 Co14 2.244 . S
O27 C17 1.272 . S
O27 Co19 2.135 . S
Co28 O29 2.216 . S
Co28 O30 2.091 . S
Co28 O32 2.004 . S
Co28 O38 2.021 . S
Co28 O40 2.137 . S
Co28 O41 2.244 . S
O29 Co28 2.216 . S
O29 C36 1.247 . S
O30 Co28 2.091 . S
O30 C36 1.261 . S
C31 O40 1.247 . S
C31 O41 1.272 . S
O32 Co28 2.004 . S
O32 C37 1.259 . S
Co33 O34 2.061 . S
Co33 O39 2.052 . S
Co33 O41 2.135 . S
O34 Co33 2.061 . S
O34 C37 1.235 . S
C35 O38 1.238 . S
C35 O39 1.241 . S
C36 O29 1.247 . S
C36 O30 1.261 . S
C37 O32 1.259 . S
C37 O34 1.235 . S
O38 Co28 2.021 . S
O38 C35 1.238 . S
O39 Co33 2.052 . S
O39 C35 1.241 . S
O40 Co28 2.137 . S
O40 C31 1.247 . S
O41 Co28 2.244 . S
O41 C31 1.272 . S
O41 Co33 2.135 . S
Co42 O43 2.216 . S
Co42 O44 2.091 . S
Co42 O46 2.004 . S
Co42 O52 2.021 . S
Co42 O54 2.137 . S
Co42 O55 2.244 . S
O43 Co42 2.216 . S
O43 C50 1.247 . S
O44 Co42 2.091 . S
O44 C50 1.261 . S
C45 O54 1.247 . S
C45 O55 1.272 . S
O46 Co42 2.004 . S
O46 C51 1.259 . S
Co47 O48 2.061 . S
Co47 O53 2.052 . S
Co47 O55 2.135 . S
O48 Co47 2.061 . S
O48 C51 1.235 . S
C49 O52 1.238 . S
C49 O53 1.241 . S
C50 O43 1.247 . S
C50 O44 1.261 . S
C51 O46 1.259 . S
C51 O48 1.235 . S
O52 Co42 2.021 . S
O52 C49 1.238 . S
O53 Co47 2.052 . S
O53 C49 1.241 . S
O54 Co42 2.137 . S
O54 C45 1.247 . S
O55 Co42 2.244 . S
O55 C45 1.272 . S
O55 Co47 2.135 . S
Co56 O57 2.216 . S
Co56 O58 2.091 . S
Co56 O60 2.004 . S
Co56 O66 2.021 . S
Co56 O68 2.137 . S
Co56 O69 2.244 . S
O57 Co56 2.216 . S
O57 C64 1.247 . S
O58 Co56 2.091 . S
O58 C64 1.261 . S
C59 O68 1.247 . S
C59 O69 1.272 . S
O60 Co56 2.004 . S
O60 C65 1.259 . S
Co61 O62 2.061 . S
Co61 O67 2.052 . S
Co61 O69 2.135 . S
O62 Co61 2.061 . S
O62 C65 1.235 . S
C63 O66 1.238 . S
C63 O67 1.241 . S
C64 O57 1.247 . S
C64 O58 1.261 . S
C65 O60 1.259 . S
C65 O62 1.235 . S
O66 Co56 2.021 . S
O66 C63 1.238 . S
O67 Co61 2.052 . S
O67 C63 1.241 . S
O68 Co56 2.137 . S
O68 C59 1.247 . S
O69 Co56 2.244 . S
O69 C59 1.272 . S
O69 Co61 2.135 . S
Co70 O71 2.216 . S
Co70 O72 2.091 . S
Co70 O74 2.004 . S
Co70 O80 2.021 . S
Co70 O82 2.137 . S
Co70 O83 2.244 . S
O71 Co70 2.216 . S
O71 C78 1.247 . S
O72 Co70 2.091 . S
O72 C78 1.261 . S
C73 O82 1.247 . S
C73 O83 1.272 . S
O74 Co70 2.004 . S
O74 C79 1.259 . S
Co75 O76 2.061 . S
Co75 O81 2.052 . S
Co75 O83 2.135 . S
O76 Co75 2.061 . S
O76 C79 1.235 . S
C77 O80 1.238 . S
C77 O81 1.241 . S
C78 O71 1.247 . S
C78 O72 1.261 . S
C79 O74 1.259 . S
C79 O76 1.235 . S
O80 Co70 2.021 . S
O80 C77 1.238 . S
O81 Co75 2.052 . S
O81 C77 1.241 . S
O82 Co70 2.137 . S
O82 C73 1.247 . S
O83 Co70 2.244 . S
O83 C73 1.272 . S
O83 Co75 2.135 . S
Co84 O85 2.216 . S
Co84 O86 2.091 . S
Co84 O88 2.004 . S
Co84 O94 2.021 . S
Co84 O96 2.137 . S
Co84 O97 2.244 . S
O85 Co84 2.216 . S
O85 C92 1.247 . S
O86 Co84 2.091 . S
O86 C92 1.261 . S
C87 O96 1.247 . S
C87 O97 1.272 . S
O88 Co84 2.004 . S
O88 C93 1.259 . S
Co89 O90 2.061 . S
Co89 O95 2.052 . S
Co89 O97 2.135 . S
O90 Co89 2.061 . S
O90 C93 1.235 . S
C91 O94 1.238 . S
C91 O95 1.241 . S
C92 O85 1.247 . S
C92 O86 1.261 . S
C93 O88 1.259 . S
C93 O90 1.235 . S
O94 Co84 2.021 . S
O94 C91 1.238 . S
O95 Co89 2.052 . S
O95 C91 1.241 . S
O96 Co84 2.137 . S
O96 C87 1.247 . S
O97 Co84 2.244 . S
O97 C87 1.272 . S
O97 Co89 2.135 . S
Co98 O99 2.216 . S
Co98 O100 2.091 . S
Co98 O102 2.004 . S
Co98 O108 2.021 . S
Co98 O110 2.137 . S
Co98 O111 2.244 . S
O99 Co98 2.216 . S
O99 C106 1.247 . S
O100 Co98 2.091 . S
O100 C106 1.261 . S
C101 O110 1.247 . S
C101 O111 1.272 . S
O102 Co98 2.004 . S
O102 C107 1.259 . S
Co103 O104 2.061 . S
Co103 O109 2.052 . S
Co103 O111 2.135 . S
O104 Co103 2.061 . S
O104 C107 1.235 . S
C105 O108 1.238 . S
C105 O109 1.241 . S
C106 O99 1.247 . S
C106 O100 1.261 . S
C107 O102 1.259 . S
C107 O104 1.235 . S
O108 Co98 2.021 . S
O108 C105 1.238 . S
O109 Co103 2.052 . S
O109 C105 1.241 . S
O110 Co98 2.137 . S
O110 C101 1.247 . S
O111 Co98 2.244 . S
O111 C101 1.272 . S
O111 Co103 2.135 . S
C112 C113 1.369 . S
C112 C114 1.419 1_655 S
C112 H116 0.930 . S
C113 C112 1.369 . S
C113 C122 1.429 . S
C114 C112 1.419 1_455 S
C114 C115 1.363 . S
C114 H117 0.929 . S
C115 C114 1.363 . S
C115 C121 1.428 . S
H116 C112 0.930 . S
H117 C114 0.929 . S
S118 N119 1.613 1_455 S
S118 N120 1.610 . S
N119 S118 1.613 1_655 S
N119 C122 1.350 . S
N120 S118 1.610 . S
N120 C121 1.351 . S
C121 C115 1.428 . S
C121 N120 1.351 . S
C121 C122 1.434 1_455 S
C122 C113 1.429 . S
C122 N119 1.350 . S
C122 C121 1.434 1_655 S
C123 C124 1.369 1_565 S
C123 C125 1.419 . S
C123 H127 0.930 . S
C124 C123 1.369 1_545 S
C124 C133 1.429 . S
C125 C123 1.419 . S
C125 C126 1.363 . S
C125 H128 0.929 . S
C126 C125 1.363 . S
C126 C132 1.428 1_565 S
H127 C123 0.930 . S
H128 C125 0.929 . S
S129 N130 1.613 . S
S129 N131 1.610 . S
N130 S129 1.613 . S
N130 C133 1.350 . S
N131 S129 1.610 . S
N131 C132 1.351 . S
C132 C126 1.428 1_545 S
C132 N131 1.351 . S
C132 C133 1.434 . S
C133 C124 1.429 . S
C133 N130 1.350 . S
C133 C132 1.434 . S
C134 C135 1.369 1_455 S
C134 C136 1.419 . S
C134 H138 0.930 . S
C135 C134 1.369 1_655 S
C135 C144 1.429 . S
C136 C134 1.419 . S
C136 C137 1.363 . S
C136 H139 0.929 . S
C137 C136 1.363 . S
C137 C143 1.428 1_455 S
H138 C134 0.930 . S
H139 C136 0.929 . S
S140 N141 1.613 . S
S140 N142 1.610 . S
N141 S140 1.613 . S
N141 C144 1.350 . S
N142 S140 1.610 . S
N142 C143 1.351 . S
C143 C137 1.428 1_655 S
C143 N142 1.351 . S
C143 C144 1.434 . S
C144 C135 1.429 . S
C144 N141 1.350 . S
C144 C143 1.434 . S
C145 C146 1.369 . S
C145 C147 1.419 . S
C145 H149 0.930 . S
C146 C145 1.369 . S
C146 C155 1.429 1_545 S
C147 C145 1.419 . S
C147 C148 1.363 1_545 S
C147 H150 0.929 . S
C148 C147 1.363 1_565 S
C148 C154 1.428 . S
H149 C145 0.930 . S
H150 C147 0.929 . S
S151 N152 1.613 . S
S151 N153 1.610 . S
N152 S151 1.613 . S
N152 C155 1.350 . S
N153 S151 1.610 . S
N153 C154 1.351 . S
C154 C148 1.428 . S
C154 N153 1.351 . S
C154 C155 1.434 . S
C155 C146 1.429 1_565 S
C155 N152 1.350 . S
C155 C154 1.434 . S
C156 C157 1.369 . S
C156 C158 1.419 . S
C156 H160 0.930 . S
C157 C156 1.369 . S
C157 C166 1.429 . S
C158 C156 1.419 . S
C158 C159 1.363 . S
C158 H161 0.929 . S
C159 C158 1.363 . S
C159 C165 1.428 . S
H160 C156 0.930 . S
H161 C158 0.929 . S
S162 N163 1.613 1_545 S
S162 N164 1.610 . S
N163 S162 1.613 1_565 S
N163 C166 1.350 1_565 S
N164 S162 1.610 . S
N164 C165 1.351 . S
C165 C159 1.428 . S
C165 N164 1.351 . S
C165 C166 1.434 . S
C166 C157 1.429 . S
C166 N163 1.350 1_545 S
C166 C165 1.434 . S
C167 C168 1.369 . S
C167 C169 1.419 . S
C167 H171 0.930 . S
C168 C167 1.369 . S
C168 C177 1.429 . S
C169 C167 1.419 . S
C169 C170 1.363 . S
C169 H172 0.929 . S
C170 C169 1.363 . S
C170 C176 1.428 . S
H171 C167 0.930 . S
H172 C169 0.929 . S
S173 N174 1.613 . S
S173 N175 1.610 . S
N174 S173 1.613 . S
N174 C177 1.350 . S
N175 S173 1.610 . S
N175 C176 1.351 . S
C176 C170 1.428 . S
C176 N175 1.351 . S
C176 C177 1.434 . S
C177 C168 1.429 . S
C177 N174 1.350 . S
C177 C176 1.434 . S
C178 C179 1.369 . S
C178 C180 1.419 . S
C178 H182 0.930 . S
C179 C178 1.369 . S
C179 C188 1.429 . S
C180 C178 1.419 . S
C180 C181 1.363 . S
C180 H183 0.929 . S
C181 C180 1.363 . S
C181 C187 1.428 . S
H182 C178 0.930 . S
H183 C180 0.929 . S
S184 N185 1.613 . S
S184 N186 1.610 . S
N185 S184 1.613 . S
N185 C188 1.350 . S
N186 S184 1.610 . S
N186 C187 1.351 . S
C187 C181 1.428 . S
C187 N186 1.351 . S
C187 C188 1.434 . S
C188 C179 1.429 . S
C188 N185 1.350 . S
C188 C187 1.434 . S
C189 C190 1.369 . S
C189 C191 1.419 . S
C189 H193 0.930 . S
C190 C189 1.369 . S
C190 C199 1.429 . S
C191 C189 1.419 . S
C191 C192 1.363 . S
C191 H194 0.929 . S
C192 C191 1.363 . S
C192 C198 1.428 . S
H193 C189 0.930 . S
H194 C191 0.929 . S
S195 N196 1.613 . S
S195 N197 1.610 1_655 S
N196 S195 1.613 . S
N196 C199 1.350 . S
N197 S195 1.610 1_455 S
N197 C198 1.351 1_455 S
C198 C192 1.428 . S
C198 N197 1.351 1_655 S
C198 C199 1.434 . S
C199 C190 1.429 . S
C199 N196 1.350 . S
C199 C198 1.434 . S
C200 C201 1.369 . S
C200 C202 1.419 . S
C200 H204 0.930 . S
C201 C200 1.369 . S
C201 C210 1.429 1_556 S
C202 C200 1.419 . S
C202 C203 1.363 1_556 S
C202 H205 0.929 . S
C203 C202 1.363 1_554 S
C203 C209 1.428 . S
H204 C200 0.930 . S
H205 C202 0.929 . S
S206 N207 1.613 1_545 S
S206 N208 1.610 . S
N207 S206 1.613 1_565 S
N207 C210 1.350 1_565 S
N208 S206 1.610 . S
N208 C209 1.351 . S
C209 C203 1.428 . S
C209 N208 1.351 . S
C209 C210 1.434 . S
C210 C201 1.429 1_554 S
C210 N207 1.350 1_545 S
C210 C209 1.434 . S
C211 C212 1.369 1_554 S
C211 C213 1.419 . S
C211 H215 0.930 . S
C212 C211 1.369 1_556 S
C212 C221 1.429 . S
C213 C211 1.419 . S
C213 C214 1.363 . S
C213 H216 0.929 . S
C214 C213 1.363 . S
C214 C220 1.424 1_554 S
H215 C211 0.930 . S
H216 C213 0.929 . S
S217 N218 1.613 . S
S217 N219 1.610 . S
N218 S217 1.613 . S
N218 C221 1.350 . S
N219 S217 1.610 . S
N219 C220 1.352 . S
C220 C214 1.424 1_556 S
C220 N219 1.352 . S
C220 C221 1.437 . S
C221 C212 1.429 . S
C221 N218 1.350 . S
C221 C220 1.437 . S
C222 C223 1.369 1_556 S
C222 C224 1.419 . S
C222 H226 0.930 . S
C223 C222 1.369 1_554 S
C223 C232 1.429 . S
C224 C222 1.419 . S
C224 C225 1.363 . S
C224 H227 0.929 . S
C225 C224 1.363 . S
C225 C231 1.428 . S
H226 C222 0.930 . S
H227 C224 0.929 . S
S228 N229 1.613 . S
S228 N230 1.608 1_554 S
N229 S228 1.613 . S
N229 C232 1.350 . S
N230 S228 1.608 1_556 S
N230 C231 1.351 . S
C231 C225 1.428 . S
C231 N230 1.351 . S
C231 C232 1.434 1_556 S
C232 C223 1.429 . S
C232 N229 1.350 . S
C232 C231 1.434 1_554 S
C233 C234 1.369 1_554 S
C233 C235 1.419 . S
C233 H237 0.930 . S
C234 C233 1.369 1_556 S
C234 C243 1.429 . S
C235 C233 1.419 . S
C235 C236 1.363 . S
C235 H238 0.929 . S
C236 C235 1.363 . S
C236 C242 1.428 1_554 S
H237 C233 0.930 . S
H238 C235 0.929 . S
S239 N240 1.613 . S
S239 N241 1.610 1_655 S
N240 S239 1.613 . S
N240 C243 1.350 . S
N241 S239 1.610 1_455 S
N241 C242 1.351 1_455 S
C242 C236 1.428 1_556 S
C242 N241 1.351 1_655 S
C242 C243 1.434 . S
C243 C234 1.429 . S
C243 N240 1.350 . S
C243 C242 1.434 . S
C244 C245 1.369 . S
C244 C246 1.419 . S
C244 H248 0.930 . S
C245 C244 1.369 . S
C245 C254 1.429 . S
C246 C244 1.419 . S
C246 C247 1.363 . S
C246 H249 0.929 . S
C247 C246 1.363 . S
C247 C253 1.428 . S
H248 C244 0.930 . S
H249 C246 0.929 . S
S250 N251 1.613 . S
S250 N252 1.610 . S
N251 S250 1.613 . S
N251 C254 1.350 . S
N252 S250 1.610 . S
N252 C253 1.351 . S
C253 C247 1.428 . S
C253 N252 1.351 . S
C253 C254 1.434 . S
C254 C245 1.429 . S
C254 N251 1.350 . S
C254 C253 1.434 . S
C255 C256 1.369 . S
C255 C257 1.419 . S
C255 H259 0.930 . S
C256 C255 1.369 . S
C256 C265 1.429 . S
C257 C255 1.419 . S
C257 C258 1.363 . S
C257 H260 0.929 . S
C258 C257 1.363 . S
C258 C264 1.428 . S
H259 C255 0.930 . S
H260 C257 0.929 . S
S261 N262 1.613 . S
S261 N263 1.610 . S
N262 S261 1.613 . S
N262 C265 1.350 . S
N263 S261 1.610 . S
N263 C264 1.351 . S
C264 C258 1.428 . S
C264 N263 1.351 . S
C264 C265 1.434 . S
C265 C256 1.429 . S
C265 N262 1.350 . S
C265 C264 1.434 . S
C266 C267 1.369 . S
C266 C268 1.419 . S
C266 H270 0.930 . S
C267 C266 1.369 . S
C267 C276 1.429 . S
C268 C266 1.419 . S
C268 C269 1.363 . S
C268 H271 0.929 . S
C269 C268 1.363 . S
C269 C275 1.428 . S
H270 C266 0.930 . S
H271 C268 0.929 . S
S272 N273 1.613 . S
S272 N274 1.610 . S
N273 S272 1.613 . S
N273 C276 1.350 . S
N274 S272 1.610 . S
N274 C275 1.351 . S
C275 C269 1.428 . S
C275 N274 1.351 . S
C275 C276 1.434 . S
C276 C267 1.429 . S
C276 N273 1.350 . S
C276 C275 1.434 . S
C277 C278 1.369 . S
C277 C279 1.419 . S
C277 H281 0.930 . S
C278 C277 1.369 . S
C278 C287 1.429 . S
C279 C277 1.419 . S
C279 C280 1.363 . S
C279 H282 0.929 . S
C280 C279 1.363 . S
C280 C286 1.428 . S
H281 C277 0.930 . S
H282 C279 0.929 . S
S283 N284 1.613 . S
S283 N285 1.610 . S
N284 S283 1.613 . S
N284 C287 1.350 . S
N285 S283 1.610 . S
N285 C286 1.351 . S
C286 C280 1.428 . S
C286 N285 1.351 . S
C286 C287 1.434 . S
C287 C278 1.429 . S
C287 N284 1.350 . S
C287 C286 1.434 . S
C113 C36 1.582 . S
C115 C8 1.586 . S
C124 C50 1.584 . S
C126 C22 1.580 . S
C135 C64 1.588 . S
C137 C92 1.579 . S
C146 C78 1.579 . S
C148 C106 1.586 . S
C157 C17 1.265 1_545 S
C159 C9 1.181 . S
C168 C23 1.193 . S
C170 C31 1.266 1_455 S
C179 C45 1.263 1_565 S
C181 C37 1.186 . S
C190 C51 1.179 . S
C192 C3 1.265 1_655 S
C201 C101 1.264 1_545 S
C203 C65 1.181 . S
C212 C79 1.192 . S
C214 C59 1.264 1_455 S
C223 C93 1.188 . S
C225 C73 1.264 1_565 S
C234 C107 1.183 . S
C236 C87 1.264 1_655 S
C245 C7 1.596 . S
C247 C77 1.592 . S
C256 C91 1.595 . S
C258 C21 1.593 . S
C267 C35 1.590 . S
C269 C105 1.588 . S
C278 C49 1.592 . S
C280 C63 1.587 . S
