# Generated by pormake.
# Topology ukm, (4)-cn, num edge types: 1
# Building blocks:
#     Node 0, Type 0, BuildingBlock: CEKHIL_clean_sbu_0, # of connection points: 4
#     Node 1, Type 0, BuildingBlock: CEKHIL_clean_sbu_0, # of connection points: 4
#     Node 2, Type 0, BuildingBlock: CEKHIL_clean_sbu_0, # of connection points: 4
#     Node 3, Type 0, BuildingBlock: CEKHIL_clean_sbu_0, # of connection points: 4
#     Node 4, Type 0, BuildingBlock: CEKHIL_clean_sbu_0, # of connection points: 4
#     Node 5, Type 0, BuildingBlock: CEKHIL_clean_sbu_0, # of connection points: 4
#     Node 6, Type 0, BuildingBlock: CEKHIL_clean_sbu_0, # of connection points: 4
#     Node 7, Type 0, BuildingBlock: CEKHIL_clean_sbu_0, # of connection points: 4
#     Node 8, Type 0, BuildingBlock: CEKHIL_clean_sbu_0, # of connection points: 4
#     Node 9, Type 0, BuildingBlock: CEKHIL_clean_sbu_0, # of connection points: 4
#     Node 10, Type 0, BuildingBlock: CEKHIL_clean_sbu_0, # of connection points: 4
#     Node 11, Type 0, BuildingBlock: CEKHIL_clean_sbu_0, # of connection points: 4
#     Node 12, Type 0, BuildingBlock: CEKHIL_clean_sbu_0, # of connection points: 4
#     Node 13, Type 0, BuildingBlock: CEKHIL_clean_sbu_0, # of connection points: 4
#     Node 14, Type 0, BuildingBlock: CEKHIL_clean_sbu_0, # of connection points: 4
#     Node 15, Type 0, BuildingBlock: CEKHIL_clean_sbu_0, # of connection points: 4
#     Node 16, Type 0, BuildingBlock: CEKHIL_clean_sbu_0, # of connection points: 4
#     Node 17, Type 0, BuildingBlock: CEKHIL_clean_sbu_0, # of connection points: 4
#     Node 18, Type 0, BuildingBlock: CEKHIL_clean_sbu_0, # of connection points: 4
#     Node 19, Type 0, BuildingBlock: CEKHIL_clean_sbu_0, # of connection points: 4
#     Node 20, Type 0, BuildingBlock: CEKHIL_clean_sbu_0, # of connection points: 4
#     Node 21, Type 0, BuildingBlock: CEKHIL_clean_sbu_0, # of connection points: 4
#     Node 22, Type 0, BuildingBlock: CEKHIL_clean_sbu_0, # of connection points: 4
#     Node 23, Type 0, BuildingBlock: CEKHIL_clean_sbu_0, # of connection points: 4
#     Node 24, Type 0, BuildingBlock: CEKHIL_clean_sbu_0, # of connection points: 4
#     Node 25, Type 0, BuildingBlock: CEKHIL_clean_sbu_0, # of connection points: 4
#     Node 26, Type 0, BuildingBlock: CEKHIL_clean_sbu_0, # of connection points: 4
#     Node 27, Type 0, BuildingBlock: CEKHIL_clean_sbu_0, # of connection points: 4
#     Node 28, Type 0, BuildingBlock: CEKHIL_clean_sbu_0, # of connection points: 4
#     Node 29, Type 0, BuildingBlock: CEKHIL_clean_sbu_0, # of connection points: 4
#     Node 30, Type 0, BuildingBlock: CEKHIL_clean_sbu_0, # of connection points: 4
#     Node 31, Type 0, BuildingBlock: CEKHIL_clean_sbu_0, # of connection points: 4
#     Edge 32, Type (0, 0), BuildingBlock: MIFKUJ_clean_linker_0, # of connection points: 2
#     Edge 33, Type (0, 0), BuildingBlock: MIFKUJ_clean_linker_0, # of connection points: 2
#     Edge 34, Type (0, 0), BuildingBlock: MIFKUJ_clean_linker_0, # of connection points: 2
#     Edge 35, Type (0, 0), BuildingBlock: MIFKUJ_clean_linker_0, # of connection points: 2
#     Edge 36, Type (0, 0), BuildingBlock: MIFKUJ_clean_linker_0, # of connection points: 2
#     Edge 37, Type (0, 0), BuildingBlock: MIFKUJ_clean_linker_0, # of connection points: 2
#     Edge 38, Type (0, 0), BuildingBlock: MIFKUJ_clean_linker_0, # of connection points: 2
#     Edge 39, Type (0, 0), BuildingBlock: MIFKUJ_clean_linker_0, # of connection points: 2
#     Edge 40, Type (0, 0), BuildingBlock: MIFKUJ_clean_linker_0, # of connection points: 2
#     Edge 41, Type (0, 0), BuildingBlock: MIFKUJ_clean_linker_0, # of connection points: 2
#     Edge 42, Type (0, 0), BuildingBlock: MIFKUJ_clean_linker_0, # of connection points: 2
#     Edge 43, Type (0, 0), BuildingBlock: MIFKUJ_clean_linker_0, # of connection points: 2
#     Edge 44, Type (0, 0), BuildingBlock: MIFKUJ_clean_linker_0, # of connection points: 2
#     Edge 45, Type (0, 0), BuildingBlock: MIFKUJ_clean_linker_0, # of connection points: 2
#     Edge 46, Type (0, 0), BuildingBlock: MIFKUJ_clean_linker_0, # of connection points: 2
#     Edge 47, Type (0, 0), BuildingBlock: MIFKUJ_clean_linker_0, # of connection points: 2
#     Edge 48, Type (0, 0), BuildingBlock: MIFKUJ_clean_linker_0, # of connection points: 2
#     Edge 49, Type (0, 0), BuildingBlock: MIFKUJ_clean_linker_0, # of connection points: 2
#     Edge 50, Type (0, 0), BuildingBlock: MIFKUJ_clean_linker_0, # of connection points: 2
#     Edge 51, Type (0, 0), BuildingBlock: MIFKUJ_clean_linker_0, # of connection points: 2
#     Edge 52, Type (0, 0), BuildingBlock: MIFKUJ_clean_linker_0, # of connection points: 2
#     Edge 53, Type (0, 0), BuildingBlock: MIFKUJ_clean_linker_0, # of connection points: 2
#     Edge 54, Type (0, 0), BuildingBlock: MIFKUJ_clean_linker_0, # of connection points: 2
#     Edge 55, Type (0, 0), BuildingBlock: MIFKUJ_clean_linker_0, # of connection points: 2
#     Edge 56, Type (0, 0), BuildingBlock: MIFKUJ_clean_linker_0, # of connection points: 2
#     Edge 57, Type (0, 0), BuildingBlock: MIFKUJ_clean_linker_0, # of connection points: 2
#     Edge 58, Type (0, 0), BuildingBlock: MIFKUJ_clean_linker_0, # of connection points: 2
#     Edge 59, Type (0, 0), BuildingBlock: MIFKUJ_clean_linker_0, # of connection points: 2
#     Edge 60, Type (0, 0), BuildingBlock: MIFKUJ_clean_linker_0, # of connection points: 2
#     Edge 61, Type (0, 0), BuildingBlock: MIFKUJ_clean_linker_0, # of connection points: 2
#     Edge 62, Type (0, 0), BuildingBlock: MIFKUJ_clean_linker_0, # of connection points: 2
#     Edge 63, Type (0, 0), BuildingBlock: MIFKUJ_clean_linker_0, # of connection points: 2
#     Edge 64, Type (0, 0), BuildingBlock: MIFKUJ_clean_linker_0, # of connection points: 2
#     Edge 65, Type (0, 0), BuildingBlock: MIFKUJ_clean_linker_0, # of connection points: 2
#     Edge 66, Type (0, 0), BuildingBlock: MIFKUJ_clean_linker_0, # of connection points: 2
#     Edge 67, Type (0, 0), BuildingBlock: MIFKUJ_clean_linker_0, # of connection points: 2
#     Edge 68, Type (0, 0), BuildingBlock: MIFKUJ_clean_linker_0, # of connection points: 2
#     Edge 69, Type (0, 0), BuildingBlock: MIFKUJ_clean_linker_0, # of connection points: 2
#     Edge 70, Type (0, 0), BuildingBlock: MIFKUJ_clean_linker_0, # of connection points: 2
#     Edge 71, Type (0, 0), BuildingBlock: MIFKUJ_clean_linker_0, # of connection points: 2
#     Edge 72, Type (0, 0), BuildingBlock: MIFKUJ_clean_linker_0, # of connection points: 2
#     Edge 73, Type (0, 0), BuildingBlock: MIFKUJ_clean_linker_0, # of connection points: 2
#     Edge 74, Type (0, 0), BuildingBlock: MIFKUJ_clean_linker_0, # of connection points: 2
#     Edge 75, Type (0, 0), BuildingBlock: MIFKUJ_clean_linker_0, # of connection points: 2
#     Edge 76, Type (0, 0), BuildingBlock: MIFKUJ_clean_linker_0, # of connection points: 2
#     Edge 77, Type (0, 0), BuildingBlock: MIFKUJ_clean_linker_0, # of connection points: 2
#     Edge 78, Type (0, 0), BuildingBlock: MIFKUJ_clean_linker_0, # of connection points: 2
#     Edge 79, Type (0, 0), BuildingBlock: MIFKUJ_clean_linker_0, # of connection points: 2
#     Edge 80, Type (0, 0), BuildingBlock: MIFKUJ_clean_linker_0, # of connection points: 2
#     Edge 81, Type (0, 0), BuildingBlock: MIFKUJ_clean_linker_0, # of connection points: 2
#     Edge 82, Type (0, 0), BuildingBlock: MIFKUJ_clean_linker_0, # of connection points: 2
#     Edge 83, Type (0, 0), BuildingBlock: MIFKUJ_clean_linker_0, # of connection points: 2
#     Edge 84, Type (0, 0), BuildingBlock: MIFKUJ_clean_linker_0, # of connection points: 2
#     Edge 85, Type (0, 0), BuildingBlock: MIFKUJ_clean_linker_0, # of connection points: 2
#     Edge 86, Type (0, 0), BuildingBlock: MIFKUJ_clean_linker_0, # of connection points: 2
#     Edge 87, Type (0, 0), BuildingBlock: MIFKUJ_clean_linker_0, # of connection points: 2
#     Edge 88, Type (0, 0), BuildingBlock: MIFKUJ_clean_linker_0, # of connection points: 2
#     Edge 89, Type (0, 0), BuildingBlock: MIFKUJ_clean_linker_0, # of connection points: 2
#     Edge 90, Type (0, 0), BuildingBlock: MIFKUJ_clean_linker_0, # of connection points: 2
#     Edge 91, Type (0, 0), BuildingBlock: MIFKUJ_clean_linker_0, # of connection points: 2
#     Edge 92, Type (0, 0), BuildingBlock: MIFKUJ_clean_linker_0, # of connection points: 2
#     Edge 93, Type (0, 0), BuildingBlock: MIFKUJ_clean_linker_0, # of connection points: 2
#     Edge 94, Type (0, 0), BuildingBlock: MIFKUJ_clean_linker_0, # of connection points: 2
#     Edge 95, Type (0, 0), BuildingBlock: MIFKUJ_clean_linker_0, # of connection points: 2
# Relax obj value: 0.247
# Max RMSD: 0.190
# Mean RMSD: 0.187
data_MOF--net-ukm--node1-CEKHIL_clean_sbu_0--edge1-MIFKUJ_clean_linker_0
_symmetry_space_group_name_H-M    P1
_symmetry_Int_Tables_number       1
_symmetry_cell_setting            triclinic
loop_
_symmetry_equiv_pos_as_xyz
'x, y, z'
_cell_length_a     30.220674
_cell_length_b     133.97288
_cell_length_c     54.907247
_cell_angle_alpha  89.984224
_cell_angle_beta   89.994416
_cell_angle_gamma 90.010716
loop_
_atom_site_label
_atom_site_type_symbol
_atom_site_fract_x
_atom_site_fract_y
_atom_site_fract_z
_atom_type_partial_charge
Co0 Co 0.11422 0.3097 0.29833 0.0
O1 O 0.12196 0.29646 0.28581 0.0
O2 O 0.05721 0.30318 0.29517 0.0
C3 C 0.1708 0.30842 0.32481 0.0
O4 O 0.09336 0.32306 0.31232 0.0
Co5 Co 0.18925 0.3254 0.29348 0.0
O6 O 0.14963 0.33405 0.31272 0.0
C7 C 0.13973 0.31868 0.25027 0.0
C8 C 0.07929 0.29558 0.28672 0.0
C9 C 0.10963 0.33171 0.31731 0.0
O10 O 0.10977 0.31485 0.26404 0.0
O11 O 0.17577 0.32238 0.25854 0.0
O12 O 0.13186 0.30512 0.33096 0.0
O13 O 0.1742 0.31196 0.30313 0.0
Co14 Co 0.14926 0.93522 0.29889 0.0
O15 O 0.12948 0.94732 0.28354 0.0
O16 O 0.19787 0.94464 0.29635 0.0
C17 C 0.09011 0.93357 0.32359 0.0
O18 O 0.1811 0.92367 0.31603 0.0
Co19 Co 0.09288 0.91585 0.29241 0.0
O20 O 0.13929 0.90975 0.31282 0.0
C21 C 0.13659 0.9255 0.25097 0.0
C22 C 0.16987 0.9505 0.28535 0.0
C23 C 0.1738 0.91433 0.32011 0.0
O24 O 0.16351 0.92977 0.26577 0.0
O25 O 0.10322 0.92042 0.2582 0.0
O26 O 0.12279 0.93934 0.33005 0.0
O27 O 0.0934 0.92971 0.30225 0.0
Co28 Co 0.08862 0.93937 0.94932 0.0
O29 O 0.10723 0.95277 0.95622 0.0
O30 O 0.03891 0.94842 0.9462 0.0
C31 C 0.14764 0.93546 0.92608 0.0
O32 O 0.05783 0.92628 0.9403 0.0
Co33 Co 0.14655 0.92155 0.9672 0.0
O34 O 0.09993 0.91323 0.95215 0.0
C35 C 0.10476 0.93544 0.00118 0.0
C36 C 0.06637 0.95539 0.95289 0.0
C37 C 0.06529 0.91684 0.94229 0.0
O38 O 0.07571 0.93759 0.98497 0.0
O39 O 0.13899 0.93014 0.99676 0.0
O40 O 0.11422 0.94016 0.91642 0.0
O41 O 0.14497 0.93396 0.94914 0.0
Co42 Co 0.1389 0.30198 0.94283 0.0
O43 O 0.14402 0.28788 0.94763 0.0
O44 O 0.20067 0.29806 0.94117 0.0
C45 C 0.08059 0.30102 0.91756 0.0
O46 O 0.14528 0.31691 0.93606 0.0
Co47 Co 0.05222 0.31288 0.95858 0.0
O48 O 0.07796 0.32399 0.93931 0.0
C49 C 0.11359 0.30477 0.9952 0.0
C50 C 0.18643 0.28906 0.94564 0.0
C51 C 0.11874 0.32436 0.93333 0.0
O52 O 0.1443 0.30407 0.97906 0.0
O53 O 0.07354 0.30708 0.99012 0.0
O54 O 0.12031 0.29994 0.90874 0.0
O55 O 0.078 0.30194 0.94077 0.0
Co56 Co 0.92253 0.68405 0.69473 0.0
O57 O 0.9556 0.6803 0.72356 0.0
O58 O 0.88615 0.6857 0.72278 0.0
C59 C 0.94041 0.67073 0.67206 0.0
O60 O 0.87518 0.68806 0.67072 0.0
Co61 Co 0.95991 0.68878 0.64442 0.0
O62 O 0.89823 0.68742 0.63214 0.0
C63 C 0.96556 0.70402 0.68318 0.0
C64 C 0.91925 0.68234 0.73531 0.0
C65 C 0.86744 0.68823 0.6478 0.0
O66 O 0.94431 0.69816 0.69754 0.0
O67 O 0.97637 0.70162 0.6614 0.0
O68 O 0.90911 0.67024 0.68821 0.0
O69 O 0.96237 0.67904 0.67096 0.0
Co70 Co 0.84551 0.06388 0.70426 0.0
O71 O 0.81255 0.06378 0.73441 0.0
O72 O 0.88473 0.06111 0.73068 0.0
C73 C 0.81698 0.07797 0.68859 0.0
O74 O 0.89216 0.06371 0.6781 0.0
Co75 Co 0.80427 0.06167 0.65337 0.0
O76 O 0.86441 0.0648 0.64041 0.0
C77 C 0.80837 0.04428 0.68598 0.0
C78 C 0.85043 0.06187 0.74474 0.0
C79 C 0.89712 0.06455 0.65502 0.0
O80 O 0.83423 0.04924 0.69999 0.0
O81 O 0.78904 0.04815 0.66748 0.0
O82 O 0.84813 0.07832 0.70488 0.0
O83 O 0.80115 0.06918 0.68383 0.0
Co84 Co 0.90676 0.06836 0.04365 0.0
O85 O 0.9414 0.06732 0.01416 0.0
O86 O 0.86818 0.06639 0.01662 0.0
C87 C 0.94043 0.08166 0.05981 0.0
O88 O 0.85866 0.06951 0.06894 0.0
Co89 Co 0.94376 0.06491 0.09501 0.0
O90 O 0.88366 0.06847 0.10725 0.0
C91 C 0.93757 0.04821 0.06079 0.0
C92 C 0.90349 0.06615 0.00322 0.0
C93 C 0.85245 0.06982 0.09201 0.0
O94 O 0.91098 0.05354 0.0481 0.0
O95 O 0.95844 0.05168 0.07923 0.0
O96 O 0.91105 0.08274 0.04273 0.0
O97 O 0.95195 0.07258 0.06497 0.0
Co98 Co 0.84591 0.68028 0.03364 0.0
O99 O 0.81251 0.6786 0.00384 0.0
O100 O 0.88351 0.68268 0.00633 0.0
C101 C 0.82306 0.66643 0.0528 0.0
O102 O 0.89332 0.68205 0.05915 0.0
Co103 Co 0.806 0.68361 0.08441 0.0
O104 O 0.86639 0.68054 0.09692 0.0
C105 C 0.80606 0.70019 0.04914 0.0
C106 C 0.84953 0.68068 0.99278 0.0
C107 C 0.89884 0.68102 0.08217 0.0
O108 O 0.82966 0.69481 0.03479 0.0
O109 O 0.79066 0.69691 0.06936 0.0
O110 O 0.85369 0.66601 0.03622 0.0
O111 O 0.80397 0.67503 0.05565 0.0
Co112 Co 0.10552 0.81486 0.7946 0.0
O113 O 0.1228 0.80212 0.78168 0.0
O114 O 0.05483 0.80603 0.79336 0.0
C115 C 0.16466 0.81638 0.81936 0.0
O116 O 0.07548 0.82708 0.80968 0.0
Co117 Co 0.16476 0.83357 0.78673 0.0
O118 O 0.11954 0.84058 0.80622 0.0
C119 C 0.11908 0.82407 0.74555 0.0
C120 C 0.0817 0.79949 0.78395 0.0
C121 C 0.08393 0.8364 0.81326 0.0
O122 O 0.0931 0.81954 0.76046 0.0
O123 O 0.15239 0.82922 0.75257 0.0
O124 O 0.13027 0.81131 0.82655 0.0
O125 O 0.16264 0.81982 0.79752 0.0
Co126 Co 0.15423 0.4364 0.79602 0.0
O127 O 0.1541 0.45025 0.78741 0.0
O128 O 0.21307 0.44197 0.80046 0.0
C129 C 0.09068 0.43706 0.81725 0.0
O130 O 0.16539 0.42211 0.80787 0.0
Co131 Co 0.07697 0.4227 0.77846 0.0
O132 O 0.103 0.41323 0.80196 0.0
C133 C 0.14767 0.42847 0.74426 0.0
C134 C 0.19581 0.45031 0.79278 0.0
C135 C 0.14197 0.41412 0.81054 0.0
O136 O 0.16952 0.4328 0.76135 0.0
O137 O 0.10946 0.42454 0.74713 0.0
O138 O 0.12768 0.43955 0.82773 0.0
O139 O 0.09312 0.43501 0.7944 0.0
Co140 Co 0.10199 0.43543 0.44485 0.0
O141 O 0.11871 0.4476 0.4609 0.0
O142 O 0.05 0.44345 0.45115 0.0
C143 C 0.15608 0.43598 0.41691 0.0
O144 O 0.07219 0.42365 0.42762 0.0
Co145 Co 0.16608 0.41725 0.44339 0.0
O146 O 0.12489 0.41245 0.41802 0.0
C147 C 0.12446 0.42354 0.48945 0.0
C148 C 0.07694 0.44983 0.46114 0.0
C149 C 0.08555 0.41577 0.41634 0.0
O150 O 0.09656 0.42891 0.4776 0.0
O151 O 0.15644 0.41883 0.47934 0.0
O152 O 0.11998 0.44107 0.41343 0.0
O153 O 0.15929 0.43141 0.43745 0.0
Co154 Co 0.14869 0.80643 0.43937 0.0
O155 O 0.14966 0.79233 0.44543 0.0
O156 O 0.20933 0.80179 0.44077 0.0
C157 C 0.09361 0.80569 0.41184 0.0
O158 O 0.16057 0.82112 0.43204 0.0
Co159 Co 0.0639 0.81894 0.44987 0.0
O160 O 0.09649 0.82966 0.43248 0.0
C161 C 0.11617 0.81026 0.48988 0.0
C162 C 0.19246 0.79304 0.44528 0.0
C163 C 0.13801 0.82914 0.42847 0.0
O164 O 0.14925 0.80897 0.47549 0.0
O165 O 0.07791 0.81308 0.48261 0.0
O166 O 0.13413 0.80407 0.40474 0.0
O167 O 0.08827 0.80717 0.43472 0.0
Co168 Co 0.90959 0.18557 0.2021 0.0
O169 O 0.94519 0.18816 0.23069 0.0
O170 O 0.87178 0.18832 0.22909 0.0
C171 C 0.94553 0.17198 0.18864 0.0
O172 O 0.8607 0.18287 0.17803 0.0
Co173 Co 0.94355 0.187 0.14941 0.0
O174 O 0.88459 0.18163 0.13957 0.0
C175 C 0.93357 0.20518 0.1786 0.0
C176 C 0.90755 0.18944 0.24183 0.0
C177 C 0.85393 0.18102 0.15544 0.0
O178 O 0.91039 0.20012 0.19378 0.0
O179 O 0.95405 0.20116 0.16069 0.0
O180 O 0.91718 0.1713 0.20639 0.0
O181 O 0.95457 0.18095 0.18127 0.0
Co182 Co 0.83614 0.56152 0.20362 0.0
O183 O 0.80301 0.56134 0.23372 0.0
O184 O 0.87294 0.55662 0.22923 0.0
C185 C 0.81658 0.57675 0.19087 0.0
O186 O 0.88268 0.56093 0.17751 0.0
Co187 Co 0.7948 0.56229 0.15258 0.0
O188 O 0.85646 0.56447 0.14044 0.0
C189 C 0.78777 0.54398 0.18157 0.0
C190 C 0.83912 0.55784 0.24347 0.0
C191 C 0.8886 0.56274 0.15485 0.0
O192 O 0.81645 0.54759 0.19632 0.0
O193 O 0.77077 0.54899 0.16406 0.0
O194 O 0.84771 0.57566 0.20698 0.0
O195 O 0.79539 0.56875 0.18455 0.0
Co196 Co 0.90185 0.56281 0.54092 0.0
O197 O 0.9344 0.56284 0.51063 0.0
O198 O 0.86327 0.55906 0.51495 0.0
C199 C 0.9254 0.57752 0.55529 0.0
O200 O 0.85555 0.56231 0.56719 0.0
Co201 Co 0.94368 0.5619 0.59158 0.0
O202 O 0.88292 0.56423 0.60469 0.0
C203 C 0.94444 0.544 0.56086 0.0
C204 C 0.89708 0.56019 0.50067 0.0
C205 C 0.85027 0.56345 0.59015 0.0
O206 O 0.91787 0.54847 0.54627 0.0
O207 O 0.96229 0.54833 0.57917 0.0
O208 O 0.89388 0.57707 0.53924 0.0
O209 O 0.94489 0.56917 0.56061 0.0
Co210 Co 0.84349 0.18136 0.53844 0.0
O211 O 0.80765 0.18135 0.50919 0.0
O212 O 0.88075 0.18293 0.51079 0.0
C213 C 0.81275 0.16812 0.55675 0.0
O214 O 0.89313 0.18133 0.56299 0.0
Co215 Co 0.80956 0.18531 0.59016 0.0
O216 O 0.87045 0.18209 0.60167 0.0
C217 C 0.81293 0.2018 0.55478 0.0
C218 C 0.84512 0.18244 0.49773 0.0
C219 C 0.90108 0.18122 0.5859 0.0
O220 O 0.83644 0.19622 0.54088 0.0
O221 O 0.7955 0.19861 0.57457 0.0
O222 O 0.84185 0.16693 0.53959 0.0
O223 O 0.79999 0.1772 0.561 0.0
Co224 Co 0.59378 0.31376 0.79582 0.0
O225 O 0.60787 0.30019 0.7876 0.0
O226 O 0.54093 0.30568 0.79747 0.0
C227 C 0.65311 0.31622 0.81994 0.0
O228 O 0.56701 0.32702 0.80637 0.0
Co229 Co 0.65744 0.33107 0.7812 0.0
O230 O 0.61373 0.33967 0.79791 0.0
C231 C 0.61079 0.31927 0.74446 0.0
C232 C 0.56607 0.29833 0.79058 0.0
C233 C 0.57746 0.33634 0.80654 0.0
O234 O 0.58213 0.31658 0.76042 0.0
O235 O 0.64627 0.324 0.7497 0.0
O236 O 0.61811 0.31182 0.82873 0.0
O237 O 0.6517 0.31824 0.79708 0.0
Co238 Co 0.64553 0.93678 0.8026 0.0
O239 O 0.63212 0.9497 0.78957 0.0
O240 O 0.69796 0.94512 0.80328 0.0
C241 C 0.58333 0.93594 0.82502 0.0
O242 O 0.67151 0.92413 0.8179 0.0
Co243 Co 0.58329 0.91865 0.79357 0.0
O244 O 0.61842 0.9124 0.81973 0.0
C245 C 0.6383 0.92684 0.75375 0.0
C246 C 0.67336 0.95193 0.79312 0.0
C247 C 0.65685 0.9156 0.82518 0.0
O248 O 0.6606 0.93218 0.76882 0.0
O249 O 0.60494 0.9215 0.75983 0.0
O250 O 0.61805 0.94044 0.8338 0.0
O251 O 0.58719 0.93248 0.80331 0.0
Co252 Co 0.59371 0.93715 0.45006 0.0
O253 O 0.60588 0.95066 0.45954 0.0
O254 O 0.54066 0.94514 0.44688 0.0
C255 C 0.65627 0.93554 0.42813 0.0
O256 O 0.56873 0.92387 0.43778 0.0
Co257 Co 0.65667 0.91977 0.46425 0.0
O258 O 0.61748 0.91144 0.44399 0.0
C259 C 0.59853 0.92893 0.50117 0.0
C260 C 0.56459 0.95251 0.45497 0.0
C261 C 0.58074 0.91468 0.43586 0.0
O262 O 0.57779 0.93392 0.48476 0.0
O263 O 0.63238 0.92349 0.49683 0.0
O264 O 0.62135 0.93952 0.41822 0.0
O265 O 0.65263 0.93306 0.45067 0.0
Co266 Co 0.66529 0.31273 0.44557 0.0
O267 O 0.6504 0.30071 0.46285 0.0
O268 O 0.71731 0.30438 0.449 0.0
C269 C 0.60524 0.31214 0.42123 0.0
O270 O 0.69328 0.32431 0.42675 0.0
Co271 Co 0.60272 0.33121 0.44543 0.0
O272 O 0.64138 0.33589 0.41878 0.0
C273 C 0.65152 0.32524 0.48999 0.0
C274 C 0.69162 0.29819 0.46057 0.0
C275 C 0.68017 0.33235 0.41608 0.0
O276 O 0.67698 0.31945 0.47761 0.0
O277 O 0.61852 0.32988 0.48072 0.0
O278 O 0.64055 0.30711 0.4154 0.0
O279 O 0.60731 0.31695 0.44143 0.0
Co280 Co 0.40535 0.68559 0.20563 0.0
O281 O 0.43842 0.68685 0.23566 0.0
O282 O 0.36633 0.68943 0.23127 0.0
C283 C 0.43332 0.671 0.19281 0.0
O284 O 0.35846 0.68465 0.17971 0.0
Co285 Co 0.44594 0.68595 0.1543 0.0
O286 O 0.38567 0.68229 0.14228 0.0
C287 C 0.44485 0.7042 0.18383 0.0
C288 C 0.40062 0.68927 0.24545 0.0
C289 C 0.35316 0.68283 0.15699 0.0
O290 O 0.41694 0.69996 0.19806 0.0
O291 O 0.46429 0.69959 0.16643 0.0
O292 O 0.4026 0.67122 0.20939 0.0
O293 O 0.44933 0.67958 0.18632 0.0
Co294 Co 0.33883 0.06178 0.20011 0.0
O295 O 0.30433 0.06077 0.22961 0.0
O296 O 0.37573 0.05715 0.22591 0.0
C297 C 0.31514 0.0769 0.18819 0.0
O298 O 0.38672 0.06218 0.17467 0.0
Co299 Co 0.29951 0.06212 0.14889 0.0
O300 O 0.36067 0.06524 0.1373 0.0
C301 C 0.29718 0.04355 0.17696 0.0
C302 C 0.34089 0.05768 0.23965 0.0
C303 C 0.39278 0.06403 0.15204 0.0
O304 O 0.32408 0.04764 0.19192 0.0
O305 O 0.27926 0.04833 0.15933 0.0
O306 O 0.34555 0.07599 0.20477 0.0
O307 O 0.29684 0.06865 0.18083 0.0
Co308 Co 0.40586 0.06782 0.53453 0.0
O309 O 0.44051 0.06778 0.505 0.0
O310 O 0.3676 0.06582 0.50739 0.0
C311 C 0.43496 0.08132 0.55215 0.0
O312 O 0.35791 0.06785 0.56 0.0
Co313 Co 0.44459 0.06409 0.58527 0.0
O314 O 0.38458 0.06739 0.59803 0.0
C315 C 0.43752 0.04738 0.55107 0.0
C316 C 0.40291 0.06628 0.494 0.0
C317 C 0.35251 0.06822 0.58312 0.0
O318 O 0.41404 0.05304 0.53739 0.0
O319 O 0.45658 0.05057 0.5704 0.0
O320 O 0.40513 0.08218 0.53524 0.0
O321 O 0.45024 0.0724 0.55605 0.0
Co322 Co 0.34727 0.68364 0.54303 0.0
O323 O 0.31168 0.68306 0.51376 0.0
O324 O 0.38348 0.68647 0.51541 0.0
C325 C 0.32293 0.66957 0.56042 0.0
O326 O 0.39664 0.68452 0.56765 0.0
Co327 Co 0.31212 0.68637 0.5946 0.0
O328 O 0.37374 0.68428 0.60633 0.0
C329 C 0.31137 0.70345 0.56144 0.0
C330 C 0.34807 0.68538 0.50235 0.0
C331 C 0.40456 0.68422 0.59055 0.0
O332 O 0.33313 0.69817 0.54614 0.0
O333 O 0.29711 0.70008 0.58176 0.0
O334 O 0.35317 0.66934 0.54359 0.0
O335 O 0.30532 0.67821 0.56506 0.0
Co336 Co 0.59954 0.81377 0.29393 0.0
O337 O 0.62042 0.80125 0.2811 0.0
O338 O 0.55275 0.80396 0.29508 0.0
C339 C 0.66098 0.81661 0.31636 0.0
O340 O 0.56546 0.82541 0.30916 0.0
Co341 Co 0.64893 0.83379 0.285 0.0
O342 O 0.60573 0.83955 0.30791 0.0
C343 C 0.60017 0.82384 0.24508 0.0
C344 C 0.58088 0.79784 0.28515 0.0
C345 C 0.57153 0.83469 0.31432 0.0
O346 O 0.58157 0.81778 0.26007 0.0
O347 O 0.62977 0.83019 0.25126 0.0
O348 O 0.62934 0.81103 0.32499 0.0
O349 O 0.6548 0.81996 0.29466 0.0
Co350 Co 0.6485 0.43597 0.30536 0.0
O351 O 0.62592 0.4486 0.29434 0.0
O352 O 0.69664 0.44535 0.30131 0.0
C353 C 0.59577 0.4335 0.33378 0.0
O354 O 0.68388 0.42389 0.31738 0.0
Co355 Co 0.59051 0.41683 0.29957 0.0
O356 O 0.64129 0.41009 0.31504 0.0
C357 C 0.62701 0.42707 0.25674 0.0
C358 C 0.66665 0.45165 0.29397 0.0
C359 C 0.67759 0.41444 0.32018 0.0
O360 O 0.65471 0.43171 0.27044 0.0
O361 O 0.59588 0.42159 0.26517 0.0
O362 O 0.62993 0.43905 0.33887 0.0
O363 O 0.59366 0.43034 0.31171 0.0
Co364 Co 0.60276 0.43839 0.9521 0.0
O365 O 0.62147 0.45106 0.96484 0.0
O366 O 0.55398 0.4477 0.95136 0.0
C367 C 0.66333 0.43598 0.92896 0.0
O368 O 0.57134 0.42639 0.93711 0.0
Co369 Co 0.65741 0.41903 0.96162 0.0
O370 O 0.61569 0.41287 0.9384 0.0
C371 C 0.60757 0.42876 0.00137 0.0
C372 C 0.58116 0.45406 0.96122 0.0
C373 C 0.58027 0.41725 0.93189 0.0
O374 O 0.58627 0.43417 0.986 0.0
O375 O 0.63932 0.42293 0.99536 0.0
O376 O 0.63081 0.44138 0.92068 0.0
O377 O 0.65892 0.43277 0.9509 0.0
Co378 Co 0.66026 0.81209 0.94722 0.0
O379 O 0.64592 0.80014 0.96482 0.0
O380 O 0.71038 0.80307 0.94692 0.0
C381 C 0.59572 0.8126 0.92679 0.0
O382 O 0.6868 0.82349 0.9271 0.0
Co383 Co 0.60347 0.83129 0.9529 0.0
O384 O 0.6355 0.83554 0.92329 0.0
C385 C 0.66111 0.82429 0.99298 0.0
C386 C 0.68582 0.79717 0.96005 0.0
C387 C 0.67242 0.83164 0.91747 0.0
O388 O 0.68091 0.81819 0.97858 0.0
O389 O 0.62792 0.82963 0.98659 0.0
O390 O 0.62822 0.8072 0.91852 0.0
O391 O 0.60281 0.81706 0.94716 0.0
Co392 Co 0.40816 0.18254 0.7098 0.0
O393 O 0.44037 0.18204 0.74019 0.0
O394 O 0.36819 0.18464 0.73618 0.0
C395 C 0.4379 0.16898 0.69254 0.0
O396 O 0.36184 0.18308 0.68341 0.0
Co397 Co 0.44911 0.18613 0.65949 0.0
O398 O 0.3898 0.18292 0.64573 0.0
C399 C 0.44307 0.20279 0.69417 0.0
C400 C 0.40215 0.1837 0.75041 0.0
C401 C 0.35701 0.18261 0.66026 0.0
O402 O 0.41895 0.19724 0.70779 0.0
O403 O 0.46111 0.19963 0.67451 0.0
O404 O 0.40634 0.16816 0.7085 0.0
O405 O 0.4533 0.17791 0.68894 0.0
Co406 Co 0.33156 0.5656 0.703 0.0
O407 O 0.29446 0.56801 0.73113 0.0
O408 O 0.36671 0.56491 0.73169 0.0
C409 C 0.30766 0.57828 0.67993 0.0
O410 O 0.3823 0.56327 0.67984 0.0
Co411 Co 0.29983 0.55954 0.65246 0.0
O412 O 0.36127 0.56209 0.64099 0.0
C413 C 0.30101 0.54445 0.69139 0.0
C414 C 0.33078 0.56689 0.74362 0.0
C415 C 0.39137 0.56275 0.6571 0.0
O416 O 0.31881 0.55095 0.70544 0.0
O417 O 0.28915 0.54639 0.6695 0.0
O418 O 0.33673 0.57969 0.69699 0.0
O419 O 0.29065 0.56939 0.67842 0.0
Co420 Co 0.39892 0.56693 0.04105 0.0
O421 O 0.43172 0.56689 0.01084 0.0
O422 O 0.3602 0.56349 0.01491 0.0
C423 C 0.42452 0.58136 0.0561 0.0
O424 O 0.35216 0.56674 0.06713 0.0
Co425 Co 0.44013 0.56545 0.09198 0.0
O426 O 0.37947 0.5681 0.10486 0.0
C427 C 0.44029 0.54789 0.0601 0.0
C428 C 0.39423 0.56446 0.00073 0.0
C429 C 0.34696 0.56783 0.09011 0.0
O430 O 0.41302 0.55246 0.04608 0.0
O431 O 0.45877 0.55209 0.07841 0.0
O432 O 0.39339 0.58129 0.03976 0.0
O433 O 0.44232 0.5728 0.06115 0.0
Co434 Co 0.33951 0.1809 0.04917 0.0
O435 O 0.30353 0.18225 0.02018 0.0
O436 O 0.37681 0.18122 0.02123 0.0
C437 C 0.30061 0.16889 0.06778 0.0
O438 O 0.38857 0.17898 0.07358 0.0
Co439 Co 0.30877 0.18621 0.1009 0.0
O440 O 0.36653 0.1807 0.11225 0.0
C441 C 0.32439 0.20223 0.06546 0.0
C442 C 0.34099 0.18206 0.00842 0.0
C443 C 0.39604 0.17856 0.09653 0.0
O444 O 0.34375 0.1958 0.05181 0.0
O445 O 0.30394 0.1998 0.08502 0.0
O446 O 0.32771 0.16674 0.05019 0.0
O447 O 0.29422 0.17832 0.07199 0.0
H448 H 0.00304 0.40939 0.42998 0.0
H449 H 0.96288 0.39522 0.41195 0.0
H450 H 0.05902 0.39394 0.35391 0.0
H451 H 0.09882 0.40791 0.37183 0.0
H452 H 0.97642 0.38764 0.3383 0.0
H453 H 0.07941 0.38191 0.40963 0.0
H454 H 0.09652 0.3845 0.45317 0.0
H455 H 0.96749 0.37367 0.47269 0.0
H456 H 0.94963 0.37111 0.42921 0.0
H457 H 0.12174 0.35164 0.31296 0.0
H458 H 0.07588 0.36503 0.32851 0.0
H459 H 0.98532 0.34359 0.35933 0.0
H460 H 0.03145 0.32988 0.34322 0.0
H461 H 0.01648 0.35929 0.39213 0.0
H462 H 0.93956 0.357 0.31856 0.0
H463 H 0.92972 0.35403 0.2746 0.0
H464 H 0.00888 0.3798 0.25839 0.0
H465 H 0.01988 0.38284 0.30222 0.0
C466 C 0.0143 0.40633 0.41281 0.0
C467 C 0.05413 0.40964 0.40233 0.0
C468 C 0.99148 0.39822 0.40259 0.0
C469 C 0.00825 0.39343 0.38174 0.0
C470 C 0.0453 0.3975 0.36993 0.0
C471 C 0.06822 0.40546 0.38024 0.0
C472 C 0.99428 0.38321 0.37465 0.0
C473 C 0.98388 0.38138 0.35014 0.0
C474 C 0.00218 0.375 0.39032 0.0
C475 C 0.01314 0.37639 0.41632 0.0
C476 C 0.05477 0.3801 0.42326 0.0
C477 C 0.06455 0.38157 0.44789 0.0
C478 C 0.03308 0.37927 0.46568 0.0
C479 C 0.9918 0.37547 0.45889 0.0
C480 C 0.98182 0.37401 0.43428 0.0
C481 C 0.09207 0.34969 0.32297 0.0
C482 C 0.08047 0.33967 0.32701 0.0
C483 C 0.06556 0.35739 0.33163 0.0
C484 C 0.02683 0.35531 0.34473 0.0
C485 C 0.01485 0.34533 0.34898 0.0
C486 C 0.04123 0.33754 0.33985 0.0
C487 C 0.00223 0.36384 0.35535 0.0
C488 C 0.00561 0.36537 0.38052 0.0
C489 C 0.98767 0.37174 0.34026 0.0
C490 C 0.98044 0.37016 0.31377 0.0
C491 C 0.95505 0.36201 0.30563 0.0
C492 C 0.94934 0.3603 0.28072 0.0
C493 C 0.96871 0.36671 0.26372 0.0
C494 C 0.99384 0.37485 0.27159 0.0
C495 C 0.99971 0.37659 0.29649 0.0
H496 H 0.96418 0.36538 0.24443 0.0
H497 H 0.0407 0.38041 0.48474 0.0
H498 H 0.20888 0.9181 0.36522 0.0
H499 H 0.24031 0.90541 0.39252 0.0
H500 H 0.23844 0.88409 0.33352 0.0
H501 H 0.20812 0.89669 0.30662 0.0
H502 H 0.1922 0.89117 0.40515 0.0
H503 H 0.29333 0.86454 0.33962 0.0
H504 H 0.35893 0.86595 0.31314 0.0
H505 H 0.40286 0.89158 0.35331 0.0
H506 H 0.33759 0.89034 0.38008 0.0
H507 H 0.10175 0.84517 0.40562 0.0
H508 H 0.13735 0.86082 0.39477 0.0
H509 H 0.26187 0.84986 0.42239 0.0
H510 H 0.22639 0.83388 0.43265 0.0
H511 H 0.27675 0.86075 0.38312 0.0
H512 H 0.20244 0.86667 0.45627 0.0
H513 H 0.14258 0.866 0.48673 0.0
H514 H 0.05837 0.88306 0.43945 0.0
H515 H 0.11736 0.88368 0.40851 0.0
C516 C 0.21744 0.91084 0.35792 0.0
C517 C 0.20583 0.9083 0.33397 0.0
C518 C 0.23523 0.90357 0.37352 0.0
C519 C 0.24172 0.89372 0.36524 0.0
C520 C 0.23471 0.89161 0.34047 0.0
C521 C 0.21687 0.89881 0.32505 0.0
C522 C 0.24427 0.88519 0.38263 0.0
C523 C 0.21147 0.8846 0.40067 0.0
C524 C 0.2708 0.87669 0.37788 0.0
C525 C 0.31036 0.87736 0.36186 0.0
C526 C 0.31703 0.87045 0.34291 0.0
C527 C 0.35406 0.87126 0.32774 0.0
C528 C 0.38495 0.87886 0.3315 0.0
C529 C 0.37881 0.88571 0.35037 0.0
C530 C 0.3417 0.88499 0.36547 0.0
C531 C 0.13674 0.84604 0.40936 0.0
C532 C 0.16106 0.83832 0.42031 0.0
C533 C 0.15708 0.85503 0.40326 0.0
C534 C 0.20203 0.85666 0.40849 0.0
C535 C 0.22704 0.84883 0.41847 0.0
C536 C 0.20671 0.83971 0.4243 0.0
C537 C 0.22168 0.86664 0.4035 0.0
C538 C 0.25869 0.86743 0.38811 0.0
C539 C 0.20018 0.87546 0.41141 0.0
C540 C 0.16448 0.87522 0.43005 0.0
C541 C 0.17111 0.87024 0.45231 0.0
C542 C 0.13729 0.86987 0.46967 0.0
C543 C 0.09671 0.87449 0.46503 0.0
C544 C 0.08986 0.8795 0.44304 0.0
C545 C 0.12352 0.87988 0.4256 0.0
H546 H 0.07057 0.87418 0.47849 0.0
H547 H 0.4137 0.87943 0.31982 0.0
H548 H 0.0205 0.9024 0.96633 0.0
H549 H 0.98679 0.88756 0.94811 0.0
H550 H 0.01049 0.89967 0.87646 0.0
H551 H 0.04205 0.91476 0.89479 0.0
H552 H 0.93965 0.88678 0.87585 0.0
H553 H 0.09222 0.88677 0.90676 0.0
H554 H 0.14773 0.88884 0.93934 0.0
H555 H 0.08203 0.86647 0.98218 0.0
H556 H 0.02583 0.86438 0.94992 0.0
H557 H 0.05985 0.85521 0.80166 0.0
H558 H 0.01974 0.86703 0.8271 0.0
H559 H 0.99704 0.84394 0.88046 0.0
H560 H 0.03681 0.83194 0.85452 0.0
H561 H 0.04391 0.85966 0.89821 0.0
H562 H 0.90525 0.85624 0.86031 0.0
H563 H 0.85273 0.85395 0.82642 0.0
H564 H 0.89308 0.88196 0.79563 0.0
H565 H 0.94583 0.88445 0.82936 0.0
C566 C 0.01657 0.90206 0.94673 0.0
C567 C 0.0339 0.90964 0.93187 0.0
C568 C 0.99746 0.89358 0.93633 0.0
C569 C 0.99722 0.89238 0.91091 0.0
C570 C 0.0104 0.90042 0.8961 0.0
C571 C 0.02851 0.90903 0.90655 0.0
C572 C 0.99221 0.88229 0.89999 0.0
C573 C 0.96215 0.88081 0.88081 0.0
C574 C 0.02057 0.87436 0.90694 0.0
C575 C 0.05466 0.8755 0.92612 0.0
C576 C 0.08958 0.88233 0.92318 0.0
C577 C 0.12113 0.88351 0.94158 0.0
C578 C 0.11834 0.87781 0.96285 0.0
C579 C 0.08409 0.87089 0.96572 0.0
C580 C 0.05239 0.86971 0.9474 0.0
C581 C 0.04506 0.85257 0.81845 0.0
C582 C 0.05171 0.84271 0.82629 0.0
C583 C 0.0217 0.85931 0.83289 0.0
C584 C 0.00509 0.85637 0.85566 0.0
C585 C 0.00919 0.84634 0.86284 0.0
C586 C 0.03191 0.8395 0.84807 0.0
C587 C 0.99262 0.86425 0.87339 0.0
C588 C 0.01982 0.8654 0.89385 0.0
C589 C 0.96178 0.87182 0.86752 0.0
C590 C 0.92967 0.8705 0.84733 0.0
C591 C 0.90306 0.8619 0.84626 0.0
C592 C 0.87319 0.86057 0.8271 0.0
C593 C 0.86969 0.86779 0.80884 0.0
C594 C 0.89585 0.87638 0.80979 0.0
C595 C 0.92557 0.87778 0.829 0.0
H596 H 0.8466 0.86673 0.79399 0.0
H597 H 0.14278 0.87873 0.97708 0.0
H598 H 0.11379 0.39496 0.80769 0.0
H599 H 0.13482 0.38095 0.83323 0.0
H600 H 0.2317 0.39923 0.86967 0.0
H601 H 0.21034 0.41356 0.84403 0.0
H602 H 0.23818 0.37327 0.84848 0.0
H603 H 0.18565 0.39808 0.90894 0.0
H604 H 0.13681 0.41221 0.91941 0.0
H605 H 0.02291 0.3948 0.89984 0.0
H606 H 0.07121 0.38062 0.88896 0.0
H607 H 0.2049 0.33112 0.93069 0.0
H608 H 0.23058 0.34726 0.91475 0.0
H609 H 0.09614 0.3549 0.89587 0.0
H610 H 0.07046 0.3391 0.91222 0.0
H611 H 0.13236 0.37002 0.91708 0.0
H612 H 0.17885 0.34629 0.85432 0.0
H613 H 0.22205 0.3322 0.83787 0.0
H614 H 0.34299 0.34707 0.85709 0.0
H615 H 0.30046 0.3612 0.87392 0.0
C616 C 0.13995 0.39605 0.82092 0.0
C617 C 0.15991 0.40545 0.82408 0.0
C618 C 0.15215 0.38798 0.83536 0.0
C619 C 0.18459 0.38908 0.85332 0.0
C620 C 0.20656 0.39827 0.85582 0.0
C621 C 0.19432 0.40643 0.8412 0.0
C622 C 0.19039 0.38082 0.87087 0.0
C623 C 0.21641 0.37262 0.86412 0.0
C624 C 0.16116 0.37996 0.8908 0.0
C625 C 0.13201 0.38834 0.89804 0.0
C626 C 0.1502 0.3973 0.90678 0.0
C627 C 0.12263 0.40531 0.91279 0.0
C628 C 0.07678 0.40441 0.91025 0.0
C629 C 0.05841 0.39549 0.9018 0.0
C630 C 0.08586 0.38746 0.89574 0.0
C631 C 0.18094 0.33626 0.92308 0.0
C632 C 0.13557 0.33385 0.92291 0.0
C633 C 0.19567 0.34547 0.91395 0.0
C634 C 0.16532 0.35234 0.90414 0.0
C635 C 0.12023 0.34982 0.90362 0.0
C636 C 0.10554 0.34074 0.91296 0.0
C637 C 0.17924 0.36222 0.89433 0.0
C638 C 0.1562 0.37071 0.90239 0.0
C639 C 0.21109 0.36328 0.87552 0.0
C640 C 0.23647 0.35471 0.86579 0.0
C641 C 0.21464 0.3465 0.8553 0.0
C642 C 0.23901 0.33852 0.84584 0.0
C643 C 0.28523 0.33872 0.84655 0.0
C644 C 0.30719 0.34691 0.85665 0.0
C645 C 0.28297 0.3549 0.86616 0.0
H646 H 0.30404 0.33254 0.83918 0.0
H647 H 0.05549 0.41063 0.91485 0.0
H648 H 0.87041 0.59298 0.56377 0.0
H649 H 0.88871 0.60931 0.58027 0.0
H650 H 0.02509 0.60029 0.58839 0.0
H651 H 0.00598 0.58357 0.573 0.0
H652 H 0.00479 0.61135 0.62488 0.0
H653 H 0.99109 0.61619 0.54068 0.0
H654 H 0.95971 0.61475 0.4994 0.0
H655 H 0.84389 0.63076 0.52228 0.0
H656 H 0.87422 0.63217 0.56381 0.0
H657 H 0.01941 0.66513 0.6516 0.0
H658 H 0.03381 0.64988 0.62769 0.0
H659 H 0.8954 0.64221 0.63188 0.0
H660 H 0.88121 0.65713 0.65619 0.0
H661 H 0.94029 0.64077 0.58292 0.0
H662 H 0.95726 0.63222 0.67047 0.0
H663 H 0.99601 0.63398 0.70976 0.0
H664 H 0.11859 0.62564 0.67583 0.0
H665 H 0.08063 0.62401 0.63622 0.0
C666 C 0.90428 0.59446 0.56916 0.0
C667 C 0.93692 0.58708 0.56688 0.0
C668 C 0.91485 0.60383 0.57839 0.0
C669 C 0.95866 0.60619 0.58474 0.0
C670 C 0.99118 0.5987 0.58331 0.0
C671 C 0.98029 0.58917 0.57457 0.0
C672 C 0.96946 0.61647 0.59308 0.0
C673 C 0.99162 0.61779 0.61535 0.0
C674 C 0.95335 0.62497 0.58048 0.0
C675 C 0.93496 0.62426 0.55543 0.0
C676 C 0.95884 0.61936 0.53696 0.0
C677 C 0.94123 0.61855 0.5135 0.0
C678 C 0.89983 0.62266 0.50822 0.0
C679 C 0.87598 0.6276 0.52639 0.0
C680 C 0.89342 0.62842 0.54989 0.0
C681 C 0.99214 0.66021 0.64713 0.0
C682 C 0.94925 0.66224 0.65575 0.0
C683 C 0.0004 0.65153 0.63359 0.0
C684 C 0.9656 0.64496 0.62811 0.0
C685 C 0.92261 0.64722 0.63593 0.0
C686 C 0.91458 0.65571 0.64986 0.0
C687 C 0.97313 0.63546 0.61512 0.0
C688 C 0.95456 0.63432 0.59193 0.0
C689 C 0.9938 0.62722 0.62648 0.0
C690 C 0.01626 0.62814 0.65034 0.0
C691 C 0.99256 0.63087 0.67134 0.0
C692 C 0.01436 0.63183 0.69367 0.0
C693 C 0.05977 0.62997 0.69527 0.0
C694 C 0.08344 0.62711 0.67456 0.0
C695 C 0.06181 0.62618 0.65216 0.0
H696 H 0.07659 0.63071 0.71258 0.0
H697 H 0.88623 0.62202 0.49005 0.0
H698 H 0.83095 0.09719 0.70221 0.0
H699 H 0.81231 0.11234 0.67969 0.0
H700 H 0.75243 0.09456 0.62312 0.0
H701 H 0.77056 0.07929 0.64583 0.0
H702 H 0.81757 0.1081 0.60693 0.0
H703 H 0.68649 0.10864 0.65596 0.0
H704 H 0.64382 0.10795 0.69426 0.0
H705 H 0.71223 0.13385 0.72063 0.0
H706 H 0.75578 0.13463 0.68269 0.0
H707 H 0.78019 0.15097 0.5383 0.0
H708 H 0.76248 0.13565 0.56047 0.0
H709 H 0.79497 0.15027 0.62825 0.0
H710 H 0.8092 0.16585 0.60606 0.0
H711 H 0.73364 0.13746 0.63693 0.0
H712 H 0.87219 0.13562 0.59364 0.0
H713 H 0.92061 0.13653 0.55752 0.0
H714 H 0.84575 0.11321 0.52315 0.0
H715 H 0.79657 0.11225 0.55897 0.0
C716 C 0.81331 0.0965 0.68512 0.0
C717 C 0.80242 0.08706 0.67569 0.0
C718 C 0.80238 0.10517 0.67238 0.0
C719 C 0.78068 0.10457 0.64986 0.0
C720 C 0.76892 0.09516 0.64058 0.0
C721 C 0.7793 0.08647 0.65353 0.0
C722 C 0.7747 0.11371 0.63504 0.0
C723 C 0.79834 0.11444 0.61317 0.0
C724 C 0.75089 0.12208 0.64369 0.0
C725 C 0.72462 0.12165 0.66652 0.0
C726 C 0.69268 0.11414 0.67 0.0
C727 C 0.66827 0.11375 0.69162 0.0
C728 C 0.67534 0.12084 0.70984 0.0
C729 C 0.70678 0.12836 0.70649 0.0
C730 C 0.73129 0.12879 0.68491 0.0
C731 C 0.78251 0.15094 0.55799 0.0
C732 C 0.79631 0.15949 0.57056 0.0
C733 C 0.77274 0.14218 0.57065 0.0
C734 C 0.77887 0.14167 0.59599 0.0
C735 C 0.79027 0.15043 0.6087 0.0
C736 C 0.79851 0.15932 0.59606 0.0
C737 C 0.77701 0.1319 0.60888 0.0
C738 C 0.7522 0.13106 0.63043 0.0
C739 C 0.80061 0.12345 0.60026 0.0
C740 C 0.83047 0.12393 0.57885 0.0
C741 C 0.86596 0.13072 0.57832 0.0
C742 C 0.89353 0.13125 0.55792 0.0
C743 C 0.88619 0.12495 0.53803 0.0
C744 C 0.85136 0.11809 0.53855 0.0
C745 C 0.82364 0.11755 0.5589 0.0
H746 H 0.90754 0.12538 0.52224 0.0
H747 H 0.65642 0.12052 0.72657 0.0
H748 H 0.94684 0.15297 0.20599 0.0
H749 H 0.96573 0.13776 0.18363 0.0
H750 H 0.99972 0.1554 0.12065 0.0
H751 H 0.98172 0.17069 0.1431 0.0
H752 H 0.93184 0.14094 0.11369 0.0
H753 H 0.08214 0.14216 0.14248 0.0
H754 H 0.14203 0.14364 0.1728 0.0
H755 H 0.08974 0.11853 0.21197 0.0
H756 H 0.02981 0.11683 0.18172 0.0
H757 H 0.96137 0.09948 0.0401 0.0
H758 H 0.98043 0.11485 0.06154 0.0
H759 H 0.9749 0.09914 0.13014 0.0
H760 H 0.95857 0.08354 0.10838 0.0
H761 H 0.03467 0.1132 0.13306 0.0
H762 H 0.88363 0.11221 0.1063 0.0
H763 H 0.823 0.11029 0.07661 0.0
H764 H 0.87289 0.13515 0.03555 0.0
H765 H 0.93417 0.13714 0.06486 0.0
C766 C 0.95921 0.15362 0.18754 0.0
C767 C 0.9624 0.16299 0.17618 0.0
C768 C 0.97036 0.14493 0.17488 0.0
C769 C 0.98435 0.14547 0.15056 0.0
C770 C 0.98933 0.15485 0.13949 0.0
C771 C 0.97891 0.16357 0.1523 0.0
C772 C 0.98681 0.13625 0.13581 0.0
C773 C 0.95509 0.13496 0.11748 0.0
C774 C 0.01595 0.12833 0.14149 0.0
C775 C 0.05128 0.12944 0.16 0.0
C776 C 0.08324 0.13701 0.15767 0.0
C777 C 0.11732 0.13785 0.17477 0.0
C778 C 0.11959 0.13121 0.19435 0.0
C779 C 0.08786 0.12369 0.19684 0.0
C780 C 0.05398 0.12275 0.17965 0.0
C781 C 0.96512 0.09929 0.05972 0.0
C782 C 0.95802 0.09041 0.0727 0.0
C783 C 0.97578 0.10807 0.07197 0.0
C784 C 0.97757 0.10824 0.09752 0.0
C785 C 0.97328 0.09922 0.11043 0.0
C786 C 0.9639 0.09032 0.09805 0.0
C787 C 0.98008 0.11792 0.11065 0.0
C788 C 0.01213 0.11925 0.12888 0.0
C789 C 0.95081 0.12587 0.10512 0.0
C790 C 0.9137 0.12476 0.08764 0.0
C791 C 0.88179 0.11723 0.09087 0.0
C792 C 0.8473 0.11613 0.07412 0.0
C793 C 0.84415 0.12258 0.05418 0.0
C794 C 0.8754 0.13016 0.05099 0.0
C795 C 0.91 0.13128 0.06767 0.0
H796 H 0.81745 0.12171 0.04121 0.0
H797 H 0.14602 0.13186 0.20756 0.0
H798 H 0.74066 0.58758 0.18717 0.0
H799 H 0.73202 0.60411 0.16842 0.0
H800 H 0.86931 0.6034 0.14635 0.0
H801 H 0.87845 0.58735 0.16688 0.0
H802 H 0.85443 0.62053 0.16127 0.0
H803 H 0.76951 0.59872 0.10695 0.0
H804 H 0.70954 0.58689 0.09703 0.0
H805 H 0.61291 0.60795 0.12248 0.0
H806 H 0.67239 0.61987 0.13272 0.0
H807 H 0.87136 0.64944 0.05637 0.0
H808 H 0.85983 0.63544 0.08399 0.0
H809 H 0.74406 0.64985 0.11351 0.0
H810 H 0.75576 0.66409 0.08591 0.0
H811 H 0.73645 0.62811 0.10125 0.0
H812 H 0.8246 0.6511 0.14658 0.0
H813 H 0.88641 0.6629 0.15202 0.0
H814 H 0.97966 0.63916 0.14102 0.0
H815 H 0.91847 0.62728 0.13465 0.0
C816 C 0.76876 0.59102 0.17824 0.0
C817 C 0.81017 0.58631 0.17835 0.0
C818 C 0.76383 0.60042 0.16738 0.0
C819 C 0.79984 0.60501 0.15557 0.0
C820 C 0.84102 0.60011 0.15545 0.0
C821 C 0.84627 0.59092 0.16703 0.0
C822 C 0.79564 0.61495 0.14356 0.0
C823 C 0.82871 0.62212 0.14804 0.0
C824 C 0.76103 0.6173 0.12704 0.0
C825 C 0.72539 0.61013 0.12086 0.0
C826 C 0.73549 0.6008 0.11056 0.0
C827 C 0.70159 0.59409 0.10485 0.0
C828 C 0.65746 0.59666 0.10919 0.0
C829 C 0.64712 0.60596 0.11917 0.0
C830 C 0.68089 0.6127 0.1249 0.0
C831 C 0.84329 0.64964 0.06862 0.0
C832 C 0.81449 0.65787 0.06903 0.0
C833 C 0.83681 0.64164 0.08441 0.0
C834 C 0.80127 0.64166 0.1008 0.0
C835 C 0.77168 0.64973 0.10093 0.0
C836 C 0.77849 0.65785 0.08527 0.0
C837 C 0.79649 0.63327 0.11807 0.0
C838 C 0.76166 0.6265 0.11476 0.0
C839 C 0.82979 0.63121 0.13541 0.0
C840 C 0.86681 0.6383 0.13994 0.0
C841 C 0.85827 0.64841 0.14509 0.0
C842 C 0.89322 0.65512 0.1483 0.0
C843 C 0.93694 0.6518 0.14674 0.0
C844 C 0.94578 0.64174 0.14209 0.0
C845 C 0.91096 0.63501 0.13866 0.0
H846 H 0.96396 0.65701 0.1492 0.0
H847 H 0.63128 0.59145 0.10477 0.0
H848 H 0.51789 0.40565 0.95255 0.0
H849 H 0.48004 0.39161 0.9329 0.0
H850 H 0.53397 0.40059 0.86353 0.0
H851 H 0.5717 0.41464 0.88322 0.0
H852 H 0.44863 0.39034 0.86037 0.0
H853 H 0.59691 0.38707 0.89707 0.0
H854 H 0.64831 0.38845 0.93181 0.0
H855 H 0.56564 0.3689 0.97394 0.0
H856 H 0.51338 0.36754 0.9395 0.0
H857 H 0.56367 0.35555 0.7931 0.0
H858 H 0.52559 0.36845 0.81627 0.0
H859 H 0.48627 0.34656 0.86972 0.0
H860 H 0.52398 0.3335 0.84617 0.0
H861 H 0.53734 0.36137 0.88852 0.0
H862 H 0.40488 0.36003 0.84533 0.0
H863 H 0.35373 0.35852 0.81058 0.0
H864 H 0.40366 0.38593 0.78072 0.0
H865 H 0.45545 0.38756 0.81518 0.0
C866 C 0.51979 0.40487 0.93294 0.0
C867 C 0.54733 0.41116 0.91925 0.0
C868 C 0.49821 0.39687 0.92175 0.0
C869 C 0.50454 0.39503 0.89683 0.0
C870 C 0.5284 0.40194 0.88274 0.0
C871 C 0.55003 0.40993 0.89396 0.0
C872 C 0.49579 0.385 0.88667 0.0
C873 C 0.46762 0.38395 0.86653 0.0
C874 C 0.51942 0.3766 0.89535 0.0
C875 C 0.55103 0.37731 0.9159 0.0
C876 C 0.58958 0.38312 0.91381 0.0
C877 C 0.61886 0.3839 0.93343 0.0
C878 C 0.61017 0.37879 0.9551 0.0
C879 C 0.57225 0.37287 0.95717 0.0
C880 C 0.54278 0.3721 0.93762 0.0
C881 C 0.54584 0.35343 0.80943 0.0
C882 C 0.54726 0.34357 0.81807 0.0
C883 C 0.52361 0.36079 0.82252 0.0
C884 C 0.50289 0.35846 0.84468 0.0
C885 C 0.50172 0.34849 0.85255 0.0
C886 C 0.52335 0.34105 0.83914 0.0
C887 C 0.49152 0.36673 0.86143 0.0
C888 C 0.51647 0.36754 0.88285 0.0
C889 C 0.46478 0.37484 0.85391 0.0
C890 C 0.4342 0.3739 0.83286 0.0
C891 C 0.40522 0.3657 0.83126 0.0
C892 C 0.37602 0.36483 0.81164 0.0
C893 C 0.37548 0.37212 0.79343 0.0
C894 C 0.4041 0.38029 0.79485 0.0
C895 C 0.4333 0.38121 0.81448 0.0
H896 H 0.35286 0.37144 0.77824 0.0
H897 H 0.63287 0.37939 0.97027 0.0
H898 H 0.76216 0.8346 0.92044 0.0
H899 H 0.80358 0.84814 0.90051 0.0
H900 H 0.68737 0.85569 0.85868 0.0
H901 H 0.64657 0.84229 0.87827 0.0
H902 H 0.76174 0.86004 0.83315 0.0
H903 H 0.70426 0.86535 0.91883 0.0
H904 H 0.70739 0.86107 0.96257 0.0
H905 H 0.84785 0.86601 0.96271 0.0
H906 H 0.84543 0.87024 0.9189 0.0
H907 H 0.63253 0.89995 0.85344 0.0
H908 H 0.67879 0.88621 0.86706 0.0
H909 H 0.79488 0.90133 0.84018 0.0
H910 H 0.74817 0.91518 0.82571 0.0
H911 H 0.77235 0.88621 0.89674 0.0
H912 H 0.81385 0.88817 0.81153 0.0
H913 H 0.80061 0.89261 0.76857 0.0
H914 H 0.68567 0.87377 0.76739 0.0
H915 H 0.69802 0.86932 0.81046 0.0
C916 C 0.74621 0.83891 0.90625 0.0
C917 C 0.70104 0.83752 0.90108 0.0
C918 C 0.76981 0.84667 0.89496 0.0
C919 C 0.74841 0.85305 0.87838 0.0
C920 C 0.70474 0.8509 0.87138 0.0
C921 C 0.68125 0.84326 0.88271 0.0
C922 C 0.76672 0.86296 0.87159 0.0
C923 C 0.76581 0.86576 0.84696 0.0
C924 C 0.77339 0.87042 0.88948 0.0
C925 C 0.77472 0.86803 0.91572 0.0
C926 C 0.73575 0.86551 0.92825 0.0
C927 C 0.73741 0.86308 0.953 0.0
C928 C 0.77781 0.86325 0.9654 0.0
C929 C 0.81661 0.86587 0.95307 0.0
C930 C 0.81513 0.86827 0.9283 0.0
C931 C 0.66796 0.90048 0.85072 0.0
C932 C 0.68656 0.90857 0.83807 0.0
C933 C 0.6944 0.89263 0.85863 0.0
C934 C 0.74004 0.89268 0.85419 0.0
C935 C 0.75956 0.9011 0.84342 0.0
C936 C 0.73288 0.90903 0.83534 0.0
C937 C 0.76445 0.88328 0.85848 0.0
C938 C 0.77251 0.88052 0.88269 0.0
C939 C 0.76445 0.87586 0.84017 0.0
C940 C 0.75683 0.87845 0.81424 0.0
C941 C 0.78559 0.88504 0.80215 0.0
C942 C 0.77829 0.88754 0.77777 0.0
C943 C 0.74228 0.88348 0.76526 0.0
C944 C 0.71357 0.8769 0.7771 0.0
C945 C 0.72078 0.87437 0.80149 0.0
H946 H 0.73664 0.88543 0.74638 0.0
H947 H 0.77904 0.86137 0.98456 0.0
H948 H 0.55767 0.83711 0.36281 0.0
H949 H 0.51658 0.85089 0.3814 0.0
H950 H 0.46777 0.85955 0.31062 0.0
H951 H 0.50907 0.84576 0.29211 0.0
H952 H 0.51811 0.87347 0.32925 0.0
H953 H 0.39538 0.85623 0.35552 0.0
H954 H 0.34454 0.84385 0.37312 0.0
H955 H 0.39953 0.84903 0.44407 0.0
H956 H 0.4509 0.86145 0.42694 0.0
H957 H 0.51888 0.91784 0.39984 0.0
H958 H 0.4777 0.90495 0.3773 0.0
H959 H 0.53407 0.88225 0.4236 0.0
H960 H 0.57502 0.89494 0.44584 0.0
H961 H 0.44579 0.87793 0.40953 0.0
H962 H 0.58873 0.88916 0.37284 0.0
H963 H 0.63523 0.90229 0.35439 0.0
H964 H 0.53416 0.90816 0.30129 0.0
H965 H 0.4869 0.89512 0.31967 0.0
C966 C 0.53634 0.84166 0.35148 0.0
C967 C 0.5362 0.84042 0.32615 0.0
C968 C 0.51269 0.84952 0.36207 0.0
C969 C 0.4891 0.85629 0.34739 0.0
C970 C 0.48555 0.85441 0.3223 0.0
C971 C 0.50908 0.84654 0.31175 0.0
C972 C 0.47881 0.86636 0.35714 0.0
C973 C 0.5008 0.87448 0.34639 0.0
C974 C 0.45609 0.86777 0.37942 0.0
C975 C 0.42704 0.85987 0.38985 0.0
C976 C 0.39692 0.85473 0.37485 0.0
C977 C 0.36788 0.8477 0.38477 0.0
C978 C 0.36874 0.84567 0.40971 0.0
C979 C 0.39879 0.85064 0.42476 0.0
C980 C 0.4278 0.85771 0.41494 0.0
C981 C 0.52162 0.91012 0.40547 0.0
C982 C 0.55083 0.90736 0.42424 0.0
C983 C 0.49798 0.90278 0.39268 0.0
C984 C 0.50299 0.89265 0.39875 0.0
C985 C 0.5295 0.89002 0.41869 0.0
C986 C 0.55338 0.89728 0.43118 0.0
C987 C 0.4877 0.88457 0.38237 0.0
C988 C 0.46118 0.87689 0.39188 0.0
C989 C 0.50579 0.88352 0.3588 0.0
C990 C 0.53421 0.89128 0.34774 0.0
C991 C 0.57641 0.8933 0.35731 0.0
C992 C 0.60287 0.90071 0.34687 0.0
C993 C 0.5876 0.90608 0.32672 0.0
C994 C 0.54588 0.90402 0.31693 0.0
C995 C 0.51925 0.89662 0.32735 0.0
H996 H 0.60814 0.91181 0.31865 0.0
H997 H 0.34615 0.84024 0.41737 0.0
H998 H 0.76717 0.33578 0.42733 0.0
H999 H 0.81142 0.35008 0.41326 0.0
H1000 H 0.70863 0.35775 0.36217 0.0
H1001 H 0.66445 0.34364 0.37614 0.0
H1002 H 0.82223 0.36104 0.35305 0.0
H1003 H 0.6743 0.37667 0.4029 0.0
H1004 H 0.62935 0.37311 0.43943 0.0
H1005 H 0.7443 0.36178 0.47617 0.0
H1006 H 0.78996 0.3654 0.43995 0.0
H1007 H 0.70149 0.39677 0.30128 0.0
H1008 H 0.7475 0.38412 0.31998 0.0
H1009 H 0.78107 0.40455 0.37793 0.0
H1010 H 0.73399 0.41739 0.35891 0.0
H1011 H 0.74581 0.38868 0.39602 0.0
H1012 H 0.86895 0.39199 0.34597 0.0
H1013 H 0.91112 0.39561 0.30857 0.0
H1014 H 0.85299 0.37015 0.27353 0.0
H1015 H 0.81028 0.36638 0.31062 0.0
C1016 C 0.75499 0.34027 0.41235 0.0
C1017 C 0.71223 0.33869 0.40295 0.0
C1018 C 0.78026 0.34843 0.40439 0.0
C1019 C 0.76304 0.35497 0.38683 0.0
C1020 C 0.72249 0.35275 0.37569 0.0
C1021 C 0.69719 0.34471 0.38375 0.0
C1022 C 0.78105 0.36513 0.38336 0.0
C1023 C 0.80687 0.36717 0.36275 0.0
C1024 C 0.76237 0.37312 0.39664 0.0
C1025 C 0.73544 0.37127 0.41874 0.0
C1026 C 0.68999 0.37349 0.41885 0.0
C1027 C 0.66439 0.37145 0.43947 0.0
C1028 C 0.68394 0.36721 0.4601 0.0
C1029 C 0.72918 0.36505 0.46018 0.0
C1030 C 0.75492 0.36709 0.43961 0.0
C1031 C 0.71982 0.39869 0.31759 0.0
C1032 C 0.71385 0.40799 0.32884 0.0
C1033 C 0.74677 0.39147 0.32816 0.0
C1034 C 0.76835 0.39335 0.35034 0.0
C1035 C 0.76511 0.40294 0.36071 0.0
C1036 C 0.73826 0.41026 0.34988 0.0
C1037 C 0.78477 0.38465 0.36459 0.0
C1038 C 0.76441 0.3828 0.38711 0.0
C1039 C 0.80974 0.37695 0.35342 0.0
C1040 C 0.8363 0.37892 0.33115 0.0
C1041 C 0.86505 0.38717 0.33028 0.0
C1042 C 0.88905 0.38925 0.30912 0.0
C1043 C 0.88451 0.38315 0.28865 0.0
C1044 C 0.85636 0.37489 0.28939 0.0
C1045 C 0.83246 0.37273 0.31055 0.0
H1046 H 0.90291 0.38481 0.27224 0.0
H1047 H 0.66405 0.36561 0.47602 0.0
H1048 H 0.49843 0.58514 0.08354 0.0
H1049 H 0.51603 0.60055 0.10569 0.0
H1050 H 0.39283 0.61349 0.08134 0.0
H1051 H 0.3764 0.5984 0.05842 0.0
H1052 H 0.45216 0.62703 0.07958 0.0
H1053 H 0.40875 0.60234 0.14041 0.0
H1054 H 0.41601 0.58629 0.1621 0.0
H1055 H 0.54898 0.59385 0.18266 0.0
H1056 H 0.54258 0.60991 0.16086 0.0
H1057 H 0.39725 0.65263 0.19981 0.0
H1058 H 0.41144 0.63745 0.17666 0.0
H1059 H 0.51104 0.65283 0.13465 0.0
H1060 H 0.49606 0.6682 0.15743 0.0
H1061 H 0.47889 0.62536 0.16863 0.0
H1062 H 0.50521 0.64427 0.07593 0.0
H1063 H 0.48825 0.66016 0.05515 0.0
H1064 H 0.37275 0.66387 0.09982 0.0
H1065 H 0.3887 0.64794 0.12058 0.0
C1066 C 0.47535 0.59132 0.08287 0.0
C1067 C 0.43602 0.59058 0.06934 0.0
C1068 C 0.48534 0.6001 0.09556 0.0
C1069 C 0.45553 0.60817 0.09543 0.0
C1070 C 0.41654 0.60742 0.08164 0.0
C1071 C 0.40704 0.59876 0.06862 0.0
C1072 C 0.46335 0.61729 0.11024 0.0
C1073 C 0.4585 0.62665 0.09901 0.0
C1074 C 0.4716 0.61685 0.13561 0.0
C1075 C 0.47532 0.60726 0.14886 0.0
C1076 C 0.43957 0.60055 0.14948 0.0
C1077 C 0.44353 0.59146 0.16179 0.0
C1078 C 0.48296 0.58904 0.17371 0.0
C1079 C 0.51848 0.59573 0.1734 0.0
C1080 C 0.5147 0.60482 0.16109 0.0
C1081 C 0.42246 0.65277 0.18579 0.0
C1082 C 0.4452 0.66163 0.18025 0.0
C1083 C 0.43075 0.64406 0.17267 0.0
C1084 C 0.462 0.64401 0.15377 0.0
C1085 C 0.48635 0.65273 0.14895 0.0
C1086 C 0.4778 0.6615 0.16199 0.0
C1087 C 0.46611 0.63504 0.13808 0.0
C1088 C 0.47355 0.62573 0.14911 0.0
C1089 C 0.45889 0.6355 0.11263 0.0
C1090 C 0.44851 0.64499 0.09999 0.0
C1091 C 0.47615 0.64847 0.08125 0.0
C1092 C 0.4667 0.65748 0.06948 0.0
C1093 C 0.42954 0.66304 0.07623 0.0
C1094 C 0.4016 0.65958 0.09467 0.0
C1095 C 0.41084 0.65056 0.10644 0.0
H1096 H 0.42234 0.67002 0.06713 0.0
H1097 H 0.48597 0.582 0.18322 0.0
H1098 H 0.28809 0.16905 0.11715 0.0
H1099 H 0.27453 0.15438 0.143 0.0
H1100 H 0.25914 0.13612 0.0789 0.0
H1101 H 0.27427 0.15061 0.05315 0.0
H1102 H 0.19978 0.13138 0.12227 0.0
H1103 H 0.35425 0.13695 0.09654 0.0
H1104 H 0.42057 0.14762 0.09346 0.0
H1105 H 0.42244 0.15104 0.1712 0.0
H1106 H 0.3555 0.14055 0.17467 0.0
H1107 H 0.26826 0.08151 0.14683 0.0
H1108 H 0.25152 0.09823 0.13108 0.0
H1109 H 0.31443 0.11137 0.19396 0.0
H1110 H 0.33259 0.09479 0.20915 0.0
H1111 H 0.34333 0.12019 0.15659 0.0
H1112 H 0.19934 0.1117 0.18384 0.0
H1113 H 0.13144 0.10169 0.18834 0.0
H1114 H 0.10546 0.10454 0.1118 0.0
H1115 H 0.17385 0.11435 0.10667 0.0
C1116 C 0.28054 0.16196 0.10865 0.0
C1117 C 0.28261 0.16089 0.08324 0.0
C1118 C 0.27273 0.15361 0.12339 0.0
C1119 C 0.26589 0.14419 0.11279 0.0
C1120 C 0.26404 0.14334 0.08738 0.0
C1121 C 0.27296 0.1516 0.07272 0.0
C1122 C 0.26841 0.13499 0.12759 0.0
C1123 C 0.231 0.12887 0.12984 0.0
C1124 C 0.30898 0.13192 0.13791 0.0
C1125 C 0.34964 0.13806 0.13584 0.0
C1126 C 0.36859 0.14005 0.11295 0.0
C1127 C 0.40629 0.14605 0.11113 0.0
C1128 C 0.42568 0.15001 0.13212 0.0
C1129 C 0.40736 0.14798 0.15496 0.0
C1130 C 0.36953 0.14201 0.15686 0.0
C1131 C 0.27813 0.08799 0.15733 0.0
C1132 C 0.30197 0.08685 0.17911 0.0
C1133 C 0.26829 0.09754 0.14843 0.0
C1134 C 0.28135 0.10611 0.16143 0.0
C1135 C 0.30409 0.10492 0.18353 0.0
C1136 C 0.31448 0.09542 0.19219 0.0
C1137 C 0.27463 0.1163 0.1512 0.0
C1138 C 0.31157 0.12265 0.14961 0.0
C1139 C 0.23335 0.1196 0.14186 0.0
C1140 C 0.19216 0.11367 0.14482 0.0
C1141 C 0.17951 0.11009 0.16789 0.0
C1142 C 0.14091 0.10444 0.17055 0.0
C1143 C 0.11428 0.10244 0.15035 0.0
C1144 C 0.12621 0.10607 0.12742 0.0
C1145 C 0.16492 0.11167 0.12463 0.0
H1146 H 0.08425 0.09812 0.15248 0.0
H1147 H 0.455 0.15461 0.13068 0.0
H1148 H 0.51574 0.08637 0.57131 0.0
H1149 H 0.5339 0.10177 0.59359 0.0
H1150 H 0.39645 0.11058 0.59054 0.0
H1151 H 0.37923 0.09566 0.56717 0.0
H1152 H 0.44169 0.12567 0.58022 0.0
H1153 H 0.45233 0.1005 0.64472 0.0
H1154 H 0.48302 0.08521 0.66326 0.0
H1155 H 0.61384 0.09761 0.65948 0.0
H1156 H 0.58385 0.11302 0.64108 0.0
H1157 H 0.42176 0.14955 0.70287 0.0
H1158 H 0.44058 0.13499 0.6784 0.0
H1159 H 0.50795 0.1539 0.62669 0.0
H1160 H 0.48907 0.16861 0.65128 0.0
H1161 H 0.51573 0.12603 0.66083 0.0
H1162 H 0.47564 0.14535 0.57028 0.0
H1163 H 0.43364 0.15983 0.55472 0.0
H1164 H 0.34396 0.15771 0.61518 0.0
H1165 H 0.38507 0.14316 0.63087 0.0
C1166 C 0.48963 0.09162 0.57559 0.0
C1167 C 0.44623 0.08993 0.56749 0.0
C1168 C 0.49992 0.10039 0.58833 0.0
C1169 C 0.46655 0.10738 0.59378 0.0
C1170 C 0.42299 0.10543 0.58626 0.0
C1171 C 0.41306 0.09687 0.57303 0.0
C1172 C 0.47592 0.11681 0.60712 0.0
C1173 C 0.4584 0.12573 0.59771 0.0
C1174 C 0.49794 0.11699 0.62988 0.0
C1175 C 0.51592 0.10784 0.64131 0.0
C1176 C 0.48764 0.09995 0.64783 0.0
C1177 C 0.5049 0.09128 0.65837 0.0
C1178 C 0.55036 0.09045 0.66255 0.0
C1179 C 0.57864 0.0983 0.65631 0.0
C1180 C 0.56153 0.107 0.64588 0.0
C1181 C 0.44107 0.15062 0.68645 0.0
C1182 C 0.45348 0.16022 0.67879 0.0
C1183 C 0.45219 0.14227 0.67262 0.0
C1184 C 0.47553 0.14338 0.65073 0.0
C1185 C 0.48984 0.15291 0.64355 0.0
C1186 C 0.47897 0.16129 0.65754 0.0
C1187 C 0.47971 0.13467 0.63433 0.0
C1188 C 0.50015 0.12596 0.64302 0.0
C1189 C 0.45892 0.13457 0.61128 0.0
C1190 C 0.43383 0.14327 0.6019 0.0
C1191 C 0.44694 0.14798 0.58021 0.0
C1192 C 0.42327 0.15619 0.57137 0.0
C1193 C 0.38626 0.15971 0.58401 0.0
C1194 C 0.37272 0.155 0.60546 0.0
C1195 C 0.39623 0.14678 0.61434 0.0
H1196 H 0.36801 0.16607 0.57715 0.0
H1197 H 0.56368 0.08372 0.67064 0.0
H1198 H 0.23977 0.66424 0.57559 0.0
H1199 H 0.21673 0.64783 0.59116 0.0
H1200 H 0.35279 0.63796 0.58907 0.0
H1201 H 0.37498 0.654 0.57221 0.0
H1202 H 0.30539 0.62436 0.57041 0.0
H1203 H 0.28838 0.64514 0.64449 0.0
H1204 H 0.25425 0.65885 0.66794 0.0
H1205 H 0.12522 0.64658 0.65452 0.0
H1206 H 0.15869 0.63283 0.63092 0.0
H1207 H 0.35905 0.59398 0.66809 0.0
H1208 H 0.34009 0.60829 0.64277 0.0
H1209 H 0.21096 0.59578 0.62919 0.0
H1210 H 0.23033 0.58112 0.65434 0.0
H1211 H 0.22667 0.61888 0.64852 0.0
H1212 H 0.24959 0.59567 0.58351 0.0
H1213 H 0.28724 0.58173 0.56279 0.0
H1214 H 0.40779 0.59867 0.5604 0.0
H1215 H 0.37103 0.61266 0.58144 0.0
C1216 C 0.26458 0.65855 0.57874 0.0
C1217 C 0.30908 0.66032 0.5727 0.0
C1218 C 0.25147 0.64919 0.58765 0.0
C1219 C 0.28297 0.6416 0.59132 0.0
C1220 C 0.32765 0.6436 0.5861 0.0
C1221 C 0.34044 0.65279 0.57662 0.0
C1222 C 0.27059 0.63145 0.60005 0.0
C1223 C 0.28793 0.6232 0.58744 0.0
C1224 C 0.24582 0.62979 0.6216 0.0
C1225 C 0.22594 0.63804 0.63576 0.0
C1226 C 0.25273 0.64541 0.64646 0.0
C1227 C 0.23352 0.65317 0.6598 0.0
C1228 C 0.1876 0.6536 0.66268 0.0
C1229 C 0.16078 0.64625 0.65227 0.0
C1230 C 0.17984 0.63846 0.63894 0.0
C1231 C 0.32668 0.59422 0.65963 0.0
C1232 C 0.2961 0.58647 0.66317 0.0
C1233 C 0.31591 0.60239 0.6452 0.0
C1234 C 0.27415 0.60308 0.63429 0.0
C1235 C 0.24334 0.59535 0.63758 0.0
C1236 C 0.25451 0.587 0.65175 0.0
C1237 C 0.26415 0.61205 0.61967 0.0
C1238 C 0.24263 0.62006 0.63105 0.0
C1239 C 0.28533 0.61354 0.59708 0.0
C1240 C 0.30756 0.6052 0.58415 0.0
C1241 C 0.28421 0.59639 0.57872 0.0
C1242 C 0.30538 0.58849 0.56689 0.0
C1243 C 0.34989 0.58931 0.56031 0.0
C1244 C 0.3733 0.59805 0.5655 0.0
C1245 C 0.35228 0.60597 0.57734 0.0
H1246 H 0.36624 0.58317 0.55116 0.0
H1247 H 0.17279 0.65961 0.673 0.0
H1248 H 0.52843 0.32106 0.43383 0.0
H1249 H 0.45536 0.31828 0.41675 0.0
H1250 H 0.5111 0.2989 0.36213 0.0
H1251 H 0.58538 0.30143 0.37971 0.0
H1252 H 0.44236 0.31541 0.34777 0.0
H1253 H 0.46621 0.28683 0.39909 0.0
H1254 H 0.48932 0.27834 0.43684 0.0
H1255 H 0.39097 0.2945 0.4772 0.0
H1256 H 0.36776 0.30322 0.43973 0.0
H1257 H 0.23983 0.29849 0.3067 0.0
H1258 H 0.31375 0.29713 0.32409 0.0
H1259 H 0.26849 0.31177 0.38949 0.0
H1260 H 0.19334 0.31298 0.37206 0.0
H1261 H 0.33366 0.29652 0.39767 0.0
H1262 H 0.31208 0.32566 0.34857 0.0
H1263 H 0.28838 0.33488 0.31197 0.0
H1264 H 0.38249 0.31868 0.26873 0.0
H1265 H 0.40618 0.30922 0.30503 0.0
C1266 C 0.52553 0.31626 0.41804 0.0
C1267 C 0.5627 0.3114 0.40818 0.0
C1268 C 0.48362 0.31467 0.40839 0.0
C1269 C 0.47799 0.3083 0.38849 0.0
C1270 C 0.51508 0.3038 0.37767 0.0
C1271 C 0.55732 0.30527 0.38762 0.0
C1272 C 0.43277 0.30633 0.37965 0.0
C1273 C 0.41879 0.31109 0.35832 0.0
C1274 C 0.40191 0.30102 0.39407 0.0
C1275 C 0.41555 0.29575 0.41663 0.0
C1276 C 0.44981 0.28865 0.41606 0.0
C1277 C 0.46287 0.28378 0.4374 0.0
C1278 C 0.44171 0.2859 0.45942 0.0
C1279 C 0.40736 0.29288 0.46013 0.0
C1280 C 0.39422 0.29778 0.43884 0.0
C1281 C 0.2454 0.30119 0.32506 0.0
C1282 C 0.21136 0.30591 0.33807 0.0
C1283 C 0.28757 0.30042 0.33493 0.0
C1284 C 0.29668 0.30453 0.35782 0.0
C1285 C 0.26195 0.30859 0.37173 0.0
C1286 C 0.21922 0.30927 0.36185 0.0
C1287 C 0.34326 0.30553 0.36565 0.0
C1288 C 0.35736 0.3007 0.3869 0.0
C1289 C 0.37424 0.31087 0.35129 0.0
C1290 C 0.36058 0.31666 0.32947 0.0
C1291 C 0.32748 0.32401 0.33122 0.0
C1292 C 0.31407 0.32928 0.31054 0.0
C1293 C 0.33384 0.32735 0.28802 0.0
C1294 C 0.36716 0.32016 0.28618 0.0
C1295 C 0.3806 0.31484 0.3068 0.0
H1296 H 0.32341 0.33144 0.27203 0.0
H1297 H 0.45185 0.28212 0.47592 0.0
H1298 H 0.06823 0.94196 0.36777 0.0
H1299 H 0.99471 0.94184 0.38713 0.0
H1300 H 0.94484 0.92322 0.32927 0.0
H1301 H 0.01752 0.9231 0.31026 0.0
H1302 H 0.8965 0.94185 0.33883 0.0
H1303 H 0.95683 0.91246 0.37861 0.0
H1304 H 0.01168 0.90349 0.40366 0.0
H1305 H 0.98608 0.92329 0.46352 0.0
H1306 H 0.93152 0.93247 0.43868 0.0
H1307 H 0.67759 0.93144 0.38049 0.0
H1308 H 0.75252 0.9306 0.3631 0.0
H1309 H 0.80729 0.93945 0.43252 0.0
H1310 H 0.73347 0.93959 0.45004 0.0
H1311 H 0.85497 0.92583 0.41696 0.0
H1312 H 0.79718 0.95556 0.37981 0.0
H1313 H 0.74479 0.96574 0.35594 0.0
H1314 H 0.76802 0.94738 0.29313 0.0
H1315 H 0.82014 0.93702 0.31672 0.0
C1316 C 0.04174 0.9377 0.35949 0.0
C1317 C 0.04854 0.93259 0.33746 0.0
C1318 C 0.99989 0.93766 0.37048 0.0
C1319 C 0.96453 0.93259 0.35941 0.0
C1320 C 0.97173 0.92723 0.33793 0.0
C1321 C 0.01339 0.92715 0.32718 0.0
C1322 C 0.91928 0.93318 0.36936 0.0
C1323 C 0.88712 0.9383 0.35584 0.0
C1324 C 0.90775 0.92875 0.39176 0.0
C1325 C 0.94048 0.92322 0.40669 0.0
C1326 C 0.96323 0.91496 0.39703 0.0
C1327 C 0.99418 0.90983 0.41121 0.0
C1328 C 0.00246 0.91284 0.43514 0.0
C1329 C 0.9797 0.92097 0.44496 0.0
C1330 C 0.94874 0.92614 0.43085 0.0
C1331 C 0.70582 0.93321 0.39185 0.0
C1332 C 0.70006 0.93552 0.41653 0.0
C1333 C 0.74856 0.93279 0.38195 0.0
C1334 C 0.78575 0.93505 0.39644 0.0
C1335 C 0.77943 0.93757 0.42098 0.0
C1336 C 0.73716 0.93769 0.43096 0.0
C1337 C 0.83151 0.93461 0.38656 0.0
C1338 C 0.86398 0.92947 0.40002 0.0
C1339 C 0.84355 0.93923 0.36432 0.0
C1340 C 0.8122 0.94545 0.35011 0.0
C1341 C 0.79086 0.95365 0.36096 0.0
C1342 C 0.76125 0.95946 0.34747 0.0
C1343 C 0.75298 0.95719 0.32306 0.0
C1344 C 0.77439 0.94912 0.31206 0.0
C1345 C 0.80399 0.94328 0.32547 0.0
H1346 H 0.73006 0.9617 0.31264 0.0
H1347 H 0.02642 0.90885 0.4461 0.0
H1348 H 0.56353 0.93612 0.87406 0.0
H1349 H 0.48874 0.93551 0.89222 0.0
H1350 H 0.43115 0.93556 0.82036 0.0
H1351 H 0.50467 0.93584 0.80232 0.0
H1352 H 0.39493 0.95004 0.85803 0.0
H1353 H 0.43257 0.91513 0.84152 0.0
H1354 H 0.48054 0.90035 0.84601 0.0
H1355 H 0.46423 0.90142 0.92366 0.0
H1356 H 0.41672 0.91632 0.91962 0.0
H1357 H 0.16947 0.93969 0.87849 0.0
H1358 H 0.24367 0.93884 0.8604 0.0
H1359 H 0.29488 0.9267 0.92758 0.0
H1360 H 0.22127 0.92702 0.94506 0.0
H1361 H 0.33677 0.91856 0.89332 0.0
H1362 H 0.29935 0.95248 0.91238 0.0
H1363 H 0.25491 0.96791 0.91098 0.0
H1364 H 0.27443 0.9698 0.83364 0.0
H1365 H 0.3185 0.95429 0.83454 0.0
C1366 C 0.53478 0.93602 0.86229 0.0
C1367 C 0.53971 0.93595 0.83687 0.0
C1368 C 0.49233 0.93567 0.87259 0.0
C1369 C 0.45476 0.93549 0.8575 0.0
C1370 C 0.45982 0.9357 0.83222 0.0
C1371 C 0.50186 0.9358 0.822 0.0
C1372 C 0.40973 0.93483 0.86764 0.0
C1373 C 0.38196 0.94316 0.8657 0.0
C1374 C 0.39348 0.92591 0.87793 0.0
C1375 C 0.4216 0.9169 0.88029 0.0
C1376 C 0.43959 0.91227 0.85956 0.0
C1377 C 0.46661 0.90386 0.86202 0.0
C1378 C 0.47555 0.89997 0.88511 0.0
C1379 C 0.45736 0.90445 0.90579 0.0
C1380 C 0.43038 0.91288 0.90342 0.0
C1381 C 0.19646 0.93664 0.88912 0.0
C1382 C 0.18969 0.93355 0.91326 0.0
C1383 C 0.23889 0.93624 0.87889 0.0
C1384 C 0.27516 0.93296 0.89288 0.0
C1385 C 0.26766 0.92931 0.91643 0.0
C1386 C 0.2254 0.92954 0.92645 0.0
C1387 C 0.32129 0.9338 0.8838 0.0
C1388 C 0.34943 0.92549 0.88584 0.0
C1389 C 0.33818 0.94284 0.87409 0.0
C1390 C 0.3118 0.95217 0.87349 0.0
C1391 C 0.2939 0.95615 0.89505 0.0
C1392 C 0.26881 0.96491 0.89435 0.0
C1393 C 0.26175 0.96982 0.87223 0.0
C1394 C 0.27986 0.96598 0.85076 0.0
C1395 C 0.30491 0.95721 0.85136 0.0
H1396 H 0.24233 0.9766 0.87172 0.0
H1397 H 0.49647 0.89345 0.88697 0.0
H1398 H 0.72481 0.32672 0.8054 0.0
H1399 H 0.7995 0.32563 0.82175 0.0
H1400 H 0.75211 0.3073 0.8808 0.0
H1401 H 0.6766 0.3082 0.8642 0.0
H1402 H 0.82342 0.32282 0.89184 0.0
H1403 H 0.78711 0.29505 0.83839 0.0
H1404 H 0.7586 0.28789 0.80012 0.0
H1405 H 0.85733 0.30389 0.75959 0.0
H1406 H 0.88594 0.31128 0.79765 0.0
H1407 H 0.99992 0.29506 0.9312 0.0
H1408 H 0.92957 0.29916 0.91226 0.0
H1409 H 0.99816 0.31329 0.85258 0.0
H1410 H 0.06979 0.30909 0.8717 0.0
H1411 H 0.91973 0.30181 0.83933 0.0
H1412 H 0.96238 0.32805 0.89245 0.0
H1413 H 0.99157 0.33546 0.93025 0.0
H1414 H 0.88271 0.32317 0.97057 0.0
H1415 H 0.85319 0.31553 0.93306 0.0
C1416 C 0.72993 0.32262 0.82217 0.0
C1417 C 0.695 0.3174 0.83335 0.0
C1418 C 0.77267 0.32203 0.83147 0.0
C1419 C 0.78119 0.31628 0.85219 0.0
C1420 C 0.74591 0.31176 0.86469 0.0
C1421 C 0.70291 0.31229 0.85525 0.0
C1422 C 0.8274 0.31411 0.859 0.0
C1423 C 0.84443 0.31817 0.88053 0.0
C1424 C 0.85504 0.30835 0.84365 0.0
C1425 C 0.83831 0.3038 0.82082 0.0
C1426 C 0.80247 0.29711 0.8213 0.0
C1427 C 0.78634 0.293 0.79965 0.0
C1428 C 0.80605 0.29546 0.77743 0.0
C1429 C 0.84204 0.30201 0.77682 0.0
C1430 C 0.85824 0.30616 0.79842 0.0
C1431 C 0.00015 0.29887 0.91379 0.0
C1432 C 0.04009 0.30184 0.90294 0.0
C1433 C 0.95994 0.30124 0.90306 0.0
C1434 C 0.9588 0.30671 0.88137 0.0
C1435 C 0.99861 0.30911 0.86946 0.0
C1436 C 0.03932 0.30668 0.88026 0.0
C1437 C 0.91561 0.31034 0.87246 0.0
C1438 C 0.89901 0.30657 0.85052 0.0
C1439 C 0.8885 0.31646 0.88733 0.0
C1440 C 0.90571 0.32116 0.90993 0.0
C1441 C 0.94481 0.32686 0.9094 0.0
C1442 C 0.96142 0.33111 0.93078 0.0
C1443 C 0.93907 0.32977 0.95281 0.0
C1444 C 0.9 0.3242 0.95349 0.0
C1445 C 0.88327 0.31992 0.93216 0.0
H1446 H 0.952 0.33306 0.96934 0.0
H1447 H 0.79352 0.29227 0.76068 0.0
H1448 H 0.83007 0.6834 0.60361 0.0
H1449 H 0.75088 0.6832 0.59366 0.0
H1450 H 0.72058 0.69499 0.66485 0.0
H1451 H 0.79889 0.6951 0.67498 0.0
H1452 H 0.67081 0.67917 0.65539 0.0
H1453 H 0.71141 0.70936 0.61361 0.0
H1454 H 0.75404 0.71972 0.58481 0.0
H1455 H 0.71141 0.70121 0.52544 0.0
H1456 H 0.66899 0.69066 0.55393 0.0
H1457 H 0.44062 0.68945 0.63482 0.0
H1458 H 0.51961 0.69045 0.645 0.0
H1459 H 0.55289 0.67939 0.5735 0.0
H1460 H 0.47481 0.67857 0.56312 0.0
H1461 H 0.60104 0.69514 0.58356 0.0
H1462 H 0.56157 0.66477 0.62522 0.0
H1463 H 0.51914 0.65432 0.6539 0.0
H1464 H 0.55988 0.67301 0.71334 0.0
H1465 H 0.60209 0.68365 0.68495 0.0
C1466 C 0.80653 0.68609 0.61695 0.0
C1467 C 0.82073 0.68919 0.64011 0.0
C1468 C 0.76133 0.68597 0.61127 0.0
C1469 C 0.72984 0.68906 0.62857 0.0
C1470 C 0.74423 0.69249 0.65132 0.0
C1471 C 0.7891 0.69256 0.65703 0.0
C1472 C 0.68173 0.68831 0.62363 0.0
C1473 C 0.65543 0.68277 0.63984 0.0
C1474 C 0.66188 0.69283 0.6031 0.0
C1475 C 0.6874 0.69916 0.58594 0.0
C1476 C 0.71143 0.70745 0.59444 0.0
C1477 C 0.73549 0.71336 0.57817 0.0
C1478 C 0.73553 0.71111 0.55332 0.0
C1479 C 0.71141 0.70294 0.54469 0.0
C1480 C 0.68732 0.697 0.56089 0.0
C1481 C 0.46484 0.68714 0.62142 0.0
C1482 C 0.45149 0.684 0.59813 0.0
C1483 C 0.50992 0.6877 0.62724 0.0
C1484 C 0.54217 0.685 0.60997 0.0
C1485 C 0.52868 0.6816 0.58702 0.0
C1486 C 0.48393 0.68112 0.58115 0.0
C1487 C 0.5901 0.68596 0.61526 0.0
C1488 C 0.61639 0.69155 0.59913 0.0
C1489 C 0.60996 0.68147 0.63584 0.0
C1490 C 0.58459 0.67507 0.65292 0.0
C1491 C 0.56117 0.6667 0.64438 0.0
C1492 C 0.53722 0.66073 0.66058 0.0
C1493 C 0.53671 0.66301 0.68541 0.0
C1494 C 0.56025 0.67126 0.69409 0.0
C1495 C 0.58421 0.67726 0.67796 0.0
H1496 H 0.51816 0.65838 0.69793 0.0
H1497 H 0.75417 0.7157 0.54075 0.0
H1498 H 0.92682 0.07153 0.61068 0.0
H1499 H 0.00422 0.07322 0.59758 0.0
H1500 H 0.04769 0.06028 0.66548 0.0
H1501 H 0.97142 0.05877 0.67876 0.0
H1502 H 0.09435 0.07631 0.65591 0.0
H1503 H 0.04761 0.04704 0.61137 0.0
H1504 H 0.00102 0.0375 0.58276 0.0
H1505 H 0.03529 0.05773 0.52507 0.0
H1506 H 0.08166 0.06746 0.55343 0.0
H1507 H 0.3181 0.06302 0.62774 0.0
H1508 H 0.23996 0.06352 0.63985 0.0
H1509 H 0.20616 0.07686 0.57076 0.0
H1510 H 0.28342 0.0762 0.55844 0.0
H1511 H 0.15386 0.06163 0.57978 0.0
H1512 H 0.20453 0.09032 0.62427 0.0
H1513 H 0.25203 0.09953 0.65305 0.0
H1514 H 0.21109 0.08014 0.71111 0.0
H1515 H 0.1638 0.07072 0.68261 0.0
C1516 C 0.95295 0.06899 0.62267 0.0
C1517 C 0.943 0.06508 0.64579 0.0
C1518 C 0.9971 0.06995 0.6152 0.0
C1519 C 0.03172 0.06687 0.6306 0.0
C1520 C 0.02161 0.0628 0.65341 0.0
C1521 C 0.97785 0.06192 0.66093 0.0
C1522 C 0.07875 0.06796 0.62345 0.0
C1523 C 0.10746 0.07303 0.63934 0.0
C1524 C 0.09564 0.06388 0.60161 0.0
C1525 C 0.06766 0.05805 0.58459 0.0
C1526 C 0.04489 0.0495 0.59263 0.0
C1527 C 0.01859 0.04405 0.57646 0.0
C1528 C 0.01508 0.04703 0.55214 0.0
C1529 C 0.03796 0.05544 0.54393 0.0
C1530 C 0.06427 0.06093 0.56004 0.0
C1531 C 0.29403 0.06618 0.61533 0.0
C1532 C 0.30679 0.06948 0.59208 0.0
C1533 C 0.24944 0.06648 0.62225 0.0
C1534 C 0.21725 0.07023 0.60617 0.0
C1535 C 0.23035 0.07386 0.58336 0.0
C1536 C 0.27458 0.07348 0.57638 0.0
C1537 C 0.16956 0.06989 0.61235 0.0
C1538 C 0.14073 0.06497 0.59627 0.0
C1539 C 0.15261 0.07408 0.63406 0.0
C1540 C 0.18093 0.07976 0.65124 0.0
C1541 C 0.20592 0.08797 0.64313 0.0
C1542 C 0.23276 0.09324 0.6594 0.0
C1543 C 0.23466 0.09041 0.68388 0.0
C1544 C 0.20963 0.08232 0.69215 0.0
C1545 C 0.18277 0.07702 0.67594 0.0
H1546 H 0.25546 0.0945 0.69645 0.0
H1547 H 0.99473 0.04279 0.53964 0.0
H1548 H 0.46585 0.05723 0.1754 0.0
H1549 H 0.54286 0.05961 0.16433 0.0
H1550 H 0.5032 0.07504 0.09892 0.0
H1551 H 0.42496 0.07257 0.10983 0.0
H1552 H 0.57237 0.06186 0.09138 0.0
H1553 H 0.53861 0.08833 0.14693 0.0
H1554 H 0.50882 0.09561 0.18477 0.0
H1555 H 0.60082 0.07837 0.22697 0.0
H1556 H 0.63077 0.07087 0.18939 0.0
H1557 H 0.78635 0.07916 0.06762 0.0
H1558 H 0.70806 0.07962 0.07808 0.0
H1559 H 0.73561 0.06429 0.1455 0.0
H1560 H 0.81474 0.06395 0.13528 0.0
H1561 H 0.67138 0.07859 0.15092 0.0
H1562 H 0.70135 0.05128 0.09669 0.0
H1563 H 0.73095 0.04342 0.05949 0.0
H1564 H 0.64581 0.06169 0.01552 0.0
H1565 H 0.61616 0.06976 0.05247 0.0
C1566 C 0.47323 0.06113 0.15859 0.0
C1567 C 0.43917 0.06483 0.14362 0.0
C1568 C 0.5174 0.0625 0.15235 0.0
C1569 C 0.52873 0.06771 0.13114 0.0
C1570 C 0.49502 0.07108 0.11553 0.0
C1571 C 0.45043 0.06965 0.12174 0.0
C1572 C 0.57598 0.0696 0.12566 0.0
C1573 C 0.59386 0.0657 0.10414 0.0
C1574 C 0.60417 0.07437 0.14269 0.0
C1575 C 0.58674 0.07899 0.16533 0.0
C1576 C 0.55233 0.08605 0.16428 0.0
C1577 C 0.53543 0.09022 0.18569 0.0
C1578 C 0.55286 0.08744 0.20826 0.0
C1579 C 0.58735 0.08051 0.20947 0.0
C1580 C 0.60434 0.07631 0.18811 0.0
C1581 C 0.77591 0.07599 0.08484 0.0
C1582 C 0.80658 0.07138 0.10049 0.0
C1583 C 0.73112 0.07625 0.09076 0.0
C1584 C 0.71593 0.07178 0.11226 0.0
C1585 C 0.74671 0.06772 0.12871 0.0
C1586 C 0.79184 0.06754 0.12288 0.0
C1587 C 0.66776 0.07081 0.11669 0.0
C1588 C 0.64977 0.07486 0.13804 0.0
C1589 C 0.63948 0.06612 0.09957 0.0
C1590 C 0.65686 0.06119 0.07733 0.0
C1591 C 0.68916 0.05367 0.07908 0.0
C1592 C 0.70592 0.04917 0.05804 0.0
C1593 C 0.69036 0.05207 0.03515 0.0
C1594 C 0.65789 0.05946 0.03326 0.0
C1595 C 0.64107 0.06399 0.05424 0.0
H1596 H 0.70339 0.04859 0.01888 0.0
H1597 H 0.5397 0.09067 0.22482 0.0
H1598 H 0.97372 0.67963 0.05491 0.0
H1599 H 0.04979 0.67862 0.06881 0.0
H1600 H 0.00579 0.67966 0.14348 0.0
H1601 H 0.92856 0.68068 0.12968 0.0
H1602 H 0.07493 0.69303 0.13251 0.0
H1603 H 0.0417 0.65846 0.122 0.0
H1604 H 0.01377 0.64366 0.10018 0.0
H1605 H 0.11145 0.64787 0.04437 0.0
H1606 H 0.13941 0.66283 0.06552 0.0
H1607 H 0.27902 0.68181 0.18487 0.0
H1608 H 0.20275 0.68046 0.17174 0.0
H1609 H 0.24486 0.67931 0.09676 0.0
H1610 H 0.32256 0.68061 0.10981 0.0
H1611 H 0.17637 0.66561 0.10841 0.0
H1612 H 0.20662 0.70051 0.11715 0.0
H1613 H 0.23418 0.71559 0.13793 0.0
H1614 H 0.14175 0.71088 0.19622 0.0
H1615 H 0.11405 0.69568 0.17594 0.0
C1616 C 0.97989 0.67964 0.07434 0.0
C1617 C 0.94489 0.68031 0.0912 0.0
C1618 C 0.02353 0.679 0.08222 0.0
C1619 C 0.03333 0.67898 0.10713 0.0
C1620 C 0.99873 0.67964 0.12414 0.0
C1621 C 0.95471 0.68022 0.11624 0.0
C1622 C 0.08009 0.6787 0.11504 0.0
C1623 C 0.09694 0.68695 0.12766 0.0
C1624 C 0.10895 0.6709 0.10792 0.0
C1625 C 0.09245 0.66183 0.09527 0.0
C1626 C 0.05702 0.65629 0.10497 0.0
C1627 C 0.0412 0.64786 0.09274 0.0
C1628 C 0.06079 0.64483 0.07092 0.0
C1629 C 0.09629 0.65023 0.06128 0.0
C1630 C 0.11215 0.65868 0.07338 0.0
C1631 C 0.27248 0.68126 0.16552 0.0
C1632 C 0.3071 0.68146 0.14835 0.0
C1633 C 0.22866 0.68048 0.15809 0.0
C1634 C 0.21816 0.67995 0.13331 0.0
C1635 C 0.25243 0.67977 0.11601 0.0
C1636 C 0.29671 0.68054 0.12347 0.0
C1637 C 0.17111 0.67994 0.12586 0.0
C1638 C 0.15425 0.67166 0.11332 0.0
C1639 C 0.14217 0.68773 0.13294 0.0
C1640 C 0.15854 0.69691 0.14512 0.0
C1641 C 0.19241 0.70264 0.13449 0.0
C1642 C 0.20802 0.71122 0.14617 0.0
C1643 C 0.18981 0.71418 0.16841 0.0
C1644 C 0.15586 0.70858 0.179 0.0
C1645 C 0.14016 0.69999 0.16741 0.0
H1646 H 0.20194 0.72082 0.17742 0.0
H1647 H 0.0485 0.6383 0.06149 0.0
H1648 H 0.5193 0.81815 0.94841 0.0
H1649 H 0.44519 0.81847 0.93085 0.0
H1650 H 0.49758 0.80844 0.86207 0.0
H1651 H 0.57245 0.80778 0.87983 0.0
H1652 H 0.43145 0.82899 0.87267 0.0
H1653 H 0.45189 0.79236 0.87487 0.0
H1654 H 0.47218 0.77692 0.89669 0.0
H1655 H 0.37517 0.7833 0.95168 0.0
H1656 H 0.35484 0.79886 0.93035 0.0
H1657 H 0.24414 0.82197 0.80165 0.0
H1658 H 0.31531 0.82142 0.82172 0.0
H1659 H 0.25264 0.81154 0.88817 0.0
H1660 H 0.18047 0.81154 0.86739 0.0
H1661 H 0.32359 0.80129 0.88176 0.0
H1662 H 0.2954 0.83604 0.88062 0.0
H1663 H 0.27366 0.85238 0.86374 0.0
H1664 H 0.38226 0.8512 0.8134 0.0
H1665 H 0.40433 0.8348 0.82974 0.0
C1666 C 0.5152 0.816 0.92952 0.0
C1667 C 0.55162 0.81296 0.91541 0.0
C1668 C 0.47283 0.81615 0.91961 0.0
C1669 C 0.46617 0.8134 0.89534 0.0
C1670 C 0.50236 0.81049 0.88097 0.0
C1671 C 0.54491 0.81014 0.89106 0.0
C1672 C 0.42124 0.81395 0.88507 0.0
C1673 C 0.40794 0.82289 0.87416 0.0
C1674 C 0.39026 0.80619 0.88851 0.0
C1675 C 0.40228 0.79682 0.9012 0.0
C1676 C 0.43527 0.79052 0.89176 0.0
C1677 C 0.44668 0.78174 0.904 0.0
C1678 C 0.42509 0.77915 0.9256 0.0
C1679 C 0.39194 0.78532 0.93497 0.0
C1680 C 0.38044 0.79412 0.92281 0.0
C1681 C 0.24518 0.81978 0.82063 0.0
C1682 C 0.20661 0.81686 0.83302 0.0
C1683 C 0.28607 0.81952 0.83216 0.0
C1684 C 0.28941 0.81666 0.85665 0.0
C1685 C 0.25085 0.81383 0.86928 0.0
C1686 C 0.20967 0.81388 0.85749 0.0
C1687 C 0.33366 0.81627 0.86836 0.0
C1688 C 0.34685 0.80741 0.87997 0.0
C1689 C 0.36432 0.82424 0.86612 0.0
C1690 C 0.35134 0.83415 0.85631 0.0
C1691 C 0.31449 0.83924 0.86584 0.0
C1692 C 0.30213 0.84851 0.85639 0.0
C1693 C 0.32652 0.85282 0.83749 0.0
C1694 C 0.36339 0.84786 0.82804 0.0
C1695 C 0.37589 0.83858 0.83742 0.0
H1696 H 0.31688 0.86 0.83018 0.0
H1697 H 0.43396 0.77235 0.93505 0.0
H1698 H 0.6846 0.44146 0.8821 0.0
H1699 H 0.75801 0.44035 0.86286 0.0
H1700 H 0.81003 0.42636 0.92753 0.0
H1701 H 0.7374 0.42721 0.94655 0.0
H1702 H 0.85683 0.44406 0.91026 0.0
H1703 H 0.80044 0.41223 0.88377 0.0
H1704 H 0.74688 0.40099 0.8639 0.0
H1705 H 0.76628 0.41621 0.79591 0.0
H1706 H 0.81946 0.42766 0.81548 0.0
H1707 H 0.07488 0.43413 0.86598 0.0
H1708 H 0.0022 0.43273 0.88577 0.0
H1709 H 0.93829 0.43804 0.8166 0.0
H1710 H 0.01015 0.43891 0.79682 0.0
H1711 H 0.89744 0.42395 0.83781 0.0
H1712 H 0.94935 0.45639 0.86327 0.0
H1713 H 0.00102 0.46832 0.88232 0.0
H1714 H 0.98817 0.45305 0.95072 0.0
H1715 H 0.93681 0.44095 0.93199 0.0
C1716 C 0.71157 0.43801 0.892 0.0
C1717 C 0.70534 0.43447 0.91582 0.0
C1718 C 0.75334 0.43739 0.88104 0.0
C1719 C 0.78921 0.43333 0.89394 0.0
C1720 C 0.7827 0.42956 0.91741 0.0
C1721 C 0.74109 0.43003 0.92817 0.0
C1722 C 0.83422 0.43344 0.8836 0.0
C1723 C 0.86601 0.4396 0.89455 0.0
C1724 C 0.84557 0.42773 0.86295 0.0
C1725 C 0.81352 0.42088 0.85117 0.0
C1726 C 0.79291 0.41325 0.86465 0.0
C1727 C 0.76271 0.40683 0.85343 0.0
C1728 C 0.75307 0.4079 0.82868 0.0
C1729 C 0.77371 0.4154 0.81509 0.0
C1730 C 0.8039 0.42185 0.82624 0.0
C1731 C 0.04518 0.43502 0.85515 0.0
C1732 C 0.04793 0.43663 0.82995 0.0
C1733 C 0.00374 0.43425 0.86642 0.0
C1734 C 0.9647 0.43538 0.85269 0.0
C1735 C 0.9678 0.43708 0.82756 0.0
C1736 C 0.00892 0.43761 0.81629 0.0
C1737 C 0.92032 0.43475 0.86414 0.0
C1738 C 0.88852 0.42845 0.85349 0.0
C1739 C 0.90878 0.44045 0.88489 0.0
C1740 C 0.93965 0.44771 0.89617 0.0
C1741 C 0.95781 0.45554 0.88233 0.0
C1742 C 0.98699 0.46233 0.89308 0.0
C1743 C 0.99797 0.46142 0.9177 0.0
C1744 C 0.9797 0.45373 0.93164 0.0
C1745 C 0.95054 0.44691 0.92098 0.0
H1746 H 0.02056 0.46669 0.92599 0.0
H1747 H 0.72971 0.40292 0.82001 0.0
H1748 H 0.56726 0.44652 0.36891 0.0
H1749 H 0.49146 0.44747 0.38488 0.0
H1750 H 0.45955 0.41978 0.3488 0.0
H1751 H 0.53468 0.41884 0.33283 0.0
H1752 H 0.40587 0.43484 0.33447 0.0
H1753 H 0.45934 0.42089 0.40908 0.0
H1754 H 0.50687 0.41953 0.44541 0.0
H1755 H 0.46271 0.4483 0.46984 0.0
H1756 H 0.41534 0.4499 0.43343 0.0
H1757 H 0.20102 0.42104 0.39512 0.0
H1758 H 0.27709 0.42197 0.37969 0.0
H1759 H 0.2779 0.45375 0.39209 0.0
H1760 H 0.20095 0.45289 0.40654 0.0
H1761 H 0.3466 0.43854 0.4182 0.0
H1762 H 0.29041 0.45178 0.34263 0.0
H1763 H 0.24137 0.45205 0.30676 0.0
H1764 H 0.29016 0.42333 0.28478 0.0
H1765 H 0.33899 0.42282 0.32079 0.0
C1766 C 0.5445 0.44046 0.36522 0.0
C1767 C 0.55652 0.43266 0.34948 0.0
C1768 C 0.50118 0.44103 0.3742 0.0
C1769 C 0.46979 0.43377 0.36764 0.0
C1770 C 0.48313 0.42553 0.35378 0.0
C1771 C 0.52612 0.42497 0.34481 0.0
C1772 C 0.42214 0.43525 0.37273 0.0
C1773 C 0.39294 0.43559 0.35282 0.0
C1774 C 0.40546 0.43646 0.39659 0.0
C1775 C 0.43426 0.43558 0.41835 0.0
C1776 C 0.46015 0.42698 0.42204 0.0
C1777 C 0.48697 0.42615 0.44269 0.0
C1778 C 0.48794 0.43384 0.45987 0.0
C1779 C 0.46201 0.44236 0.45647 0.0
C1780 C 0.43516 0.44323 0.43584 0.0
C1781 C 0.21687 0.42827 0.3935 0.0
C1782 C 0.19526 0.43692 0.40148 0.0
C1783 C 0.26025 0.42878 0.38492 0.0
C1784 C 0.28284 0.43792 0.3849 0.0
C1785 C 0.26068 0.44666 0.39188 0.0
C1786 C 0.21678 0.44618 0.39983 0.0
C1787 C 0.33075 0.43805 0.37998 0.0
C1788 C 0.35987 0.43795 0.39989 0.0
C1789 C 0.34741 0.43696 0.35616 0.0
C1790 C 0.31793 0.4372 0.33458 0.0
C1791 C 0.29027 0.44546 0.33032 0.0
C1792 C 0.26262 0.44567 0.30992 0.0
C1793 C 0.26254 0.43769 0.29354 0.0
C1794 C 0.29019 0.42949 0.29751 0.0
C1795 C 0.31788 0.42924 0.31791 0.0
H1796 H 0.24114 0.43788 0.27774 0.0
H1797 H 0.50868 0.43318 0.47586 0.0
H1798 H 0.73262 0.82619 0.29801 0.0
H1799 H 0.80891 0.82504 0.31198 0.0
H1800 H 0.76685 0.80778 0.37406 0.0
H1801 H 0.68976 0.80864 0.35979 0.0
H1802 H 0.83656 0.82429 0.38141 0.0
H1803 H 0.80149 0.79471 0.33428 0.0
H1804 H 0.77258 0.78594 0.29816 0.0
H1805 H 0.86769 0.80093 0.25298 0.0
H1806 H 0.89666 0.80992 0.28883 0.0
H1807 H 0.01469 0.7982 0.42356 0.0
H1808 H 0.94458 0.80095 0.40297 0.0
H1809 H 0.01237 0.81593 0.34428 0.0
H1810 H 0.08386 0.81313 0.36516 0.0
H1811 H 0.93346 0.80229 0.33175 0.0
H1812 H 0.97414 0.83064 0.37925 0.0
H1813 H 0.00432 0.83912 0.41545 0.0
H1814 H 0.89979 0.82694 0.45932 0.0
H1815 H 0.86951 0.8182 0.42346 0.0
C1816 C 0.73928 0.82227 0.31487 0.0
C1817 C 0.70516 0.81741 0.32771 0.0
C1818 C 0.78298 0.82162 0.32276 0.0
C1819 C 0.79337 0.81625 0.34383 0.0
C1820 C 0.75923 0.81195 0.35768 0.0
C1821 C 0.71532 0.81246 0.34956 0.0
C1822 C 0.84022 0.81458 0.35029 0.0
C1823 C 0.8577 0.81945 0.37067 0.0
C1824 C 0.86801 0.80852 0.3357 0.0
C1825 C 0.85083 0.80308 0.31417 0.0
C1826 C 0.8159 0.79622 0.3166 0.0
C1827 C 0.79958 0.79119 0.29619 0.0
C1828 C 0.81818 0.7929 0.27327 0.0
C1829 C 0.85324 0.79962 0.27073 0.0
C1830 C 0.86964 0.80469 0.29109 0.0
C1831 C 0.01491 0.80188 0.40598 0.0
C1832 C 0.05446 0.80554 0.39598 0.0
C1833 C 0.97483 0.80344 0.39427 0.0
C1834 C 0.97336 0.80878 0.37239 0.0
C1835 C 0.01308 0.81181 0.36125 0.0
C1836 C 0.05372 0.81019 0.37307 0.0
C1837 C 0.92965 0.8119 0.36308 0.0
C1838 C 0.91258 0.80729 0.34222 0.0
C1839 C 0.9023 0.81828 0.37712 0.0
C1840 C 0.91974 0.8237 0.39868 0.0
C1841 C 0.95777 0.8297 0.39665 0.0
C1842 C 0.97489 0.83456 0.41711 0.0
C1843 C 0.95403 0.83356 0.43968 0.0
C1844 C 0.91593 0.82771 0.44182 0.0
C1845 C 0.89875 0.8228 0.42142 0.0
H1846 H 0.96734 0.83733 0.4555 0.0
H1847 H 0.80552 0.78899 0.25748 0.0
H1848 H 0.78445 0.177 0.18539 0.0
H1849 H 0.70784 0.17413 0.17439 0.0
H1850 H 0.74189 0.17605 0.09822 0.0
H1851 H 0.81944 0.17917 0.10915 0.0
H1852 H 0.67238 0.18744 0.10838 0.0
H1853 H 0.71128 0.15372 0.12403 0.0
H1854 H 0.74329 0.13951 0.14648 0.0
H1855 H 0.65317 0.14464 0.20562 0.0
H1856 H 0.621 0.15897 0.18368 0.0
H1857 H 0.46349 0.17213 0.06774 0.0
H1858 H 0.54101 0.17031 0.07852 0.0
H1859 H 0.51076 0.17728 0.15331 0.0
H1860 H 0.43225 0.17932 0.14265 0.0
H1861 H 0.578 0.16047 0.14235 0.0
H1862 H 0.54443 0.19528 0.12661 0.0
H1863 H 0.51193 0.20898 0.10251 0.0
H1864 H 0.59328 0.20097 0.04144 0.0
H1865 H 0.62574 0.18711 0.06509 0.0
C1866 C 0.776 0.17675 0.16623 0.0
C1867 C 0.8082 0.17839 0.14812 0.0
C1868 C 0.73205 0.17501 0.15998 0.0
C1869 C 0.71915 0.17476 0.13549 0.0
C1870 C 0.75123 0.17617 0.11726 0.0
C1871 C 0.7955 0.17793 0.12352 0.0
C1872 C 0.67159 0.17382 0.12929 0.0
C1873 C 0.65201 0.18143 0.11546 0.0
C1874 C 0.64472 0.1661 0.13898 0.0
C1875 C 0.66396 0.15748 0.15228 0.0
C1876 C 0.69852 0.15187 0.14191 0.0
C1877 C 0.71665 0.14378 0.15453 0.0
C1878 C 0.70034 0.14119 0.17748 0.0
C1879 C 0.66579 0.14666 0.18784 0.0
C1880 C 0.64755 0.15476 0.17531 0.0
C1881 C 0.47292 0.1732 0.0866 0.0
C1882 C 0.44166 0.17607 0.10428 0.0
C1883 C 0.51732 0.1721 0.09268 0.0
C1884 C 0.53145 0.17377 0.11658 0.0
C1885 C 0.50022 0.17599 0.13472 0.0
C1886 C 0.45551 0.17718 0.12859 0.0
C1887 C 0.57933 0.17412 0.12178 0.0
C1888 C 0.59873 0.16642 0.1353 0.0
C1889 C 0.60622 0.1817 0.11167 0.0
C1890 C 0.58713 0.1901 0.09752 0.0
C1891 C 0.55508 0.19638 0.10797 0.0
C1892 C 0.53672 0.20419 0.09441 0.0
C1893 C 0.55043 0.20582 0.07043 0.0
C1894 C 0.58263 0.19968 0.06 0.0
C1895 C 0.60104 0.19186 0.07348 0.0
H1896 H 0.53618 0.21187 0.05996 0.0
H1897 H 0.71442 0.13492 0.18722 0.0
H1898 H 0.27631 0.57429 0.06431 0.0
H1899 H 0.19893 0.57422 0.07631 0.0
H1900 H 0.23507 0.5634 0.14759 0.0
H1901 H 0.31354 0.5634 0.13555 0.0
H1902 H 0.16924 0.55221 0.12536 0.0
H1903 H 0.19763 0.58674 0.14143 0.0
H1904 H 0.22472 0.6037 0.13234 0.0
H1905 H 0.1344 0.60582 0.07221 0.0
H1906 H 0.10719 0.58881 0.0807 0.0
H1907 H 0.96158 0.55689 0.17989 0.0
H1908 H 0.03838 0.55825 0.16795 0.0
H1909 H 0.99936 0.57033 0.09835 0.0
H1910 H 0.92113 0.56921 0.11049 0.0
H1911 H 0.06649 0.581 0.11907 0.0
H1912 H 0.03853 0.54664 0.10217 0.0
H1913 H 0.01143 0.52961 0.11034 0.0
H1914 H 0.10105 0.52702 0.17069 0.0
H1915 H 0.12829 0.5441 0.16309 0.0
C1916 C 0.26801 0.57197 0.08266 0.0
C1917 C 0.301 0.56876 0.09896 0.0
C1918 C 0.2237 0.57201 0.08952 0.0
C1919 C 0.2113 0.56886 0.11284 0.0
C1920 C 0.24413 0.56589 0.12949 0.0
C1921 C 0.28883 0.56593 0.12267 0.0
C1922 C 0.16374 0.56801 0.11893 0.0
C1923 C 0.14686 0.55853 0.12446 0.0
C1924 C 0.13443 0.57621 0.1167 0.0
C1925 C 0.15062 0.58646 0.11159 0.0
C1926 C 0.18378 0.59079 0.12614 0.0
C1927 C 0.19912 0.60042 0.12112 0.0
C1928 C 0.18136 0.60583 0.10168 0.0
C1929 C 0.14815 0.60162 0.08725 0.0
C1930 C 0.13272 0.59199 0.09218 0.0
C1931 C 0.96893 0.5598 0.16193 0.0
C1932 C 0.93498 0.56295 0.14612 0.0
C1933 C 0.01308 0.56052 0.1551 0.0
C1934 C 0.02462 0.56427 0.13217 0.0
C1935 C 0.99104 0.56737 0.11613 0.0
C1936 C 0.94643 0.56667 0.12301 0.0
C1937 C 0.07203 0.5652 0.12567 0.0
C1938 C 0.08887 0.57468 0.12 0.0
C1939 C 0.10134 0.55699 0.1276 0.0
C1940 C 0.08521 0.54669 0.13216 0.0
C1941 C 0.05224 0.54247 0.11729 0.0
C1942 C 0.0369 0.5328 0.1218 0.0
C1943 C 0.05445 0.52724 0.14105 0.0
C1944 C 0.08747 0.53134 0.15579 0.0
C1945 C 0.10292 0.54101 0.15137 0.0
H1946 H 0.04251 0.51976 0.14451 0.0
H1947 H 0.19328 0.61328 0.09782 0.0
H1948 H 0.77532 0.56359 0.56287 0.0
H1949 H 0.69925 0.56406 0.57654 0.0
H1950 H 0.74274 0.56479 0.65133 0.0
H1951 H 0.8203 0.56421 0.63771 0.0
H1952 H 0.67452 0.5512 0.64289 0.0
H1953 H 0.70332 0.58558 0.62667 0.0
H1954 H 0.73038 0.59996 0.6029 0.0
H1955 H 0.63757 0.59326 0.546 0.0
H1956 H 0.61038 0.57875 0.56927 0.0
H1957 H 0.46238 0.56304 0.68755 0.0
H1958 H 0.54028 0.56344 0.67701 0.0
H1959 H 0.50693 0.56313 0.60064 0.0
H1960 H 0.42788 0.56283 0.61104 0.0
H1961 H 0.5711 0.57705 0.61193 0.0
H1962 H 0.54492 0.54229 0.62708 0.0
H1963 H 0.51818 0.52777 0.65043 0.0
H1964 H 0.60625 0.53514 0.70909 0.0
H1965 H 0.63311 0.54979 0.68622 0.0
C1966 C 0.76914 0.56386 0.58229 0.0
C1967 C 0.80415 0.56387 0.59922 0.0
C1968 C 0.72541 0.56419 0.59004 0.0
C1969 C 0.7154 0.56461 0.61489 0.0
C1970 C 0.74996 0.56453 0.63201 0.0
C1971 C 0.79415 0.56422 0.62423 0.0
C1972 C 0.66849 0.56487 0.62255 0.0
C1973 C 0.65203 0.55696 0.63657 0.0
C1974 C 0.63906 0.57224 0.61363 0.0
C1975 C 0.65501 0.58103 0.59966 0.0
C1976 C 0.68888 0.58713 0.60902 0.0
C1977 C 0.70421 0.59531 0.59564 0.0
C1978 C 0.68576 0.59751 0.57294 0.0
C1979 C 0.65184 0.59155 0.56359 0.0
C1980 C 0.63641 0.58335 0.57688 0.0
C1981 C 0.47128 0.56303 0.66844 0.0
C1982 C 0.4387 0.56286 0.6501 0.0
C1983 C 0.51601 0.56322 0.66249 0.0
C1984 C 0.52936 0.56318 0.63809 0.0
C1985 C 0.49716 0.56312 0.61962 0.0
C1986 C 0.45209 0.56292 0.62558 0.0
C1987 C 0.57709 0.56334 0.6321 0.0
C1988 C 0.59365 0.57133 0.61839 0.0
C1989 C 0.6066 0.55604 0.64129 0.0
C1990 C 0.59073 0.54719 0.65503 0.0
C1991 C 0.55835 0.54086 0.64504 0.0
C1992 C 0.54321 0.53259 0.65817 0.0
C1993 C 0.56043 0.53054 0.68125 0.0
C1994 C 0.59292 0.53674 0.69122 0.0
C1995 C 0.60814 0.54502 0.67817 0.0
H1996 H 0.54866 0.52414 0.69139 0.0
H1997 H 0.6977 0.60384 0.5626 0.0
H1998 H 0.93513 0.18042 0.63245 0.0
H1999 H 0.01339 0.17994 0.64412 0.0
H2000 H 0.05103 0.18 0.56832 0.0
H2001 H 0.97364 0.18022 0.55654 0.0
H2002 H 0.10205 0.1676 0.59225 0.0
H2003 H 0.05357 0.20143 0.60282 0.0
H2004 H 0.00638 0.21499 0.61856 0.0
H2005 H 0.04129 0.2071 0.69188 0.0
H2006 H 0.08824 0.1934 0.67658 0.0
H2007 H 0.32835 0.18263 0.61247 0.0
H2008 H 0.25138 0.18205 0.59816 0.0
H2009 H 0.20587 0.18016 0.67249 0.0
H2010 H 0.28157 0.18088 0.68687 0.0
H2011 H 0.15996 0.19383 0.64747 0.0
H2012 H 0.20944 0.15975 0.63551 0.0
H2013 H 0.25987 0.14709 0.61843 0.0
H2014 H 0.22521 0.15625 0.54596 0.0
H2015 H 0.17512 0.16909 0.56262 0.0
C2016 C 0.96007 0.18026 0.61829 0.0
C2017 C 0.94798 0.18044 0.59358 0.0
C2018 C 0.00479 0.18002 0.62497 0.0
C2019 C 0.03809 0.18007 0.60706 0.0
C2020 C 0.026 0.17996 0.58245 0.0
C2021 C 0.98154 0.18013 0.57578 0.0
C2022 C 0.08559 0.18056 0.61376 0.0
C2023 C 0.11477 0.17339 0.60416 0.0
C2024 C 0.10225 0.18809 0.62931 0.0
C2025 C 0.07404 0.19632 0.63856 0.0
C2026 C 0.0509 0.20254 0.62231 0.0
C2027 C 0.02424 0.21026 0.63115 0.0
C2028 C 0.02073 0.21189 0.65621 0.0
C2029 C 0.04397 0.20582 0.67248 0.0
C2030 C 0.07063 0.19808 0.66373 0.0
C2031 C 0.30191 0.18208 0.62572 0.0
C2032 C 0.31122 0.18187 0.65081 0.0
C2033 C 0.258 0.18172 0.61752 0.0
C2034 C 0.22296 0.18106 0.63431 0.0
C2035 C 0.23235 0.18074 0.65925 0.0
C2036 C 0.27585 0.18112 0.66741 0.0
C2037 C 0.17618 0.18079 0.62632 0.0
C2038 C 0.14717 0.18803 0.63559 0.0
C2039 C 0.15986 0.17338 0.61033 0.0
C2040 C 0.18885 0.16545 0.60032 0.0
C2041 C 0.21273 0.1591 0.61593 0.0
C2042 C 0.24126 0.15189 0.60633 0.0
C2043 C 0.24584 0.15088 0.58113 0.0
C2044 C 0.22169 0.15705 0.56548 0.0
C2045 C 0.1932 0.16429 0.57499 0.0
H2046 H 0.26805 0.14532 0.57373 0.0
H2047 H 0.0001 0.21787 0.66301 0.0
H2048 H 0.00416 0.21705 0.16704 0.0
H2049 H 0.01994 0.23369 0.18353 0.0
H2050 H 0.8922 0.23415 0.21839 0.0
H2051 H 0.87653 0.21746 0.20256 0.0
H2052 H 0.95565 0.25402 0.1865 0.0
H2053 H 0.92321 0.23206 0.26156 0.0
H2054 H 0.93112 0.21537 0.28022 0.0
H2055 H 0.07014 0.21555 0.26399 0.0
H2056 H 0.06276 0.23218 0.24493 0.0
H2057 H 0.99219 0.29305 0.2739 0.0
H2058 H 0.95926 0.27839 0.25397 0.0
H2059 H 0.08497 0.26322 0.25745 0.0
H2060 H 0.11791 0.27774 0.27714 0.0
H2061 H 0.01682 0.25091 0.27012 0.0
H2062 H 0.05606 0.27305 0.20445 0.0
H2063 H 0.05703 0.28892 0.18172 0.0
H2064 H 0.91528 0.28821 0.17626 0.0
H2065 H 0.91358 0.27229 0.19892 0.0
C2066 C 0.97895 0.22081 0.17764 0.0
C2067 C 0.93931 0.21592 0.18372 0.0
C2068 C 0.98802 0.2303 0.18704 0.0
C2069 C 0.9573 0.23505 0.20227 0.0
C2070 C 0.91631 0.23054 0.20675 0.0
C2071 C 0.9075 0.22101 0.19771 0.0
C2072 C 0.97039 0.24402 0.21607 0.0
C2073 C 0.96819 0.25342 0.20495 0.0
C2074 C 0.98781 0.24313 0.23982 0.0
C2075 C 0.9924 0.23329 0.25177 0.0
C2076 C 0.95539 0.22851 0.26193 0.0
C2077 C 0.95976 0.21907 0.27255 0.0
C2078 C 0.0011 0.2144 0.27326 0.0
C2079 C 0.03814 0.21917 0.26339 0.0
C2080 C 0.03388 0.22859 0.25268 0.0
C2081 C 0.01256 0.28653 0.27066 0.0
C2082 C 0.05761 0.28654 0.27702 0.0
C2083 C 0.99383 0.27821 0.25917 0.0
C2084 C 0.01982 0.26976 0.25409 0.0
C2085 C 0.06435 0.26965 0.26121 0.0
C2086 C 0.08312 0.27797 0.27242 0.0
C2087 C 0.00133 0.26108 0.24084 0.0
C2088 C 0.00308 0.25165 0.25195 0.0
C2089 C 0.98391 0.26196 0.21699 0.0
C2090 C 0.98466 0.27156 0.20359 0.0
C2091 C 0.02509 0.27633 0.19856 0.0
C2092 C 0.02578 0.28531 0.18564 0.0
C2093 C 0.98622 0.28961 0.17767 0.0
C2094 C 0.94589 0.28489 0.18249 0.0
C2095 C 0.94505 0.27587 0.19531 0.0
H2096 H 0.98682 0.29658 0.16769 0.0
H2097 H 0.00447 0.2071 0.28151 0.0
H2098 H 0.12045 0.96215 0.25517 0.0
H2099 H 0.14272 0.97735 0.23403 0.0
H2100 H 0.27213 0.97546 0.26684 0.0
H2101 H 0.24995 0.96015 0.28821 0.0
H2102 H 0.23961 0.99422 0.26928 0.0
H2103 H 0.26192 0.97015 0.20587 0.0
H2104 H 0.24539 0.95646 0.17731 0.0
H2105 H 0.13342 0.97268 0.14992 0.0
H2106 H 0.14983 0.98658 0.1781 0.0
H2107 H 0.34876 0.02962 0.19871 0.0
H2108 H 0.3263 0.01336 0.21421 0.0
H2109 H 0.19661 0.01735 0.1829 0.0
H2110 H 0.2193 0.03372 0.16685 0.0
H2111 H 0.22697 0.99776 0.17954 0.0
H2112 H 0.21328 0.02293 0.24144 0.0
H2113 H 0.24004 0.03695 0.26655 0.0
H2114 H 0.34163 0.01826 0.29665 0.0
H2115 H 0.31606 0.00417 0.27138 0.0
C2116 C 0.15364 0.96497 0.25803 0.0
C2117 C 0.18341 0.95996 0.2735 0.0
C2118 C 0.16643 0.97363 0.24572 0.0
C2119 C 0.20926 0.97749 0.2486 0.0
C2120 C 0.23894 0.97259 0.26428 0.0
C2121 C 0.22624 0.96386 0.2765 0.0
C2122 C 0.22242 0.98681 0.23577 0.0
C2123 C 0.23735 0.99494 0.24964 0.0
C2124 C 0.21846 0.98787 0.21019 0.0
C2125 C 0.20685 0.97934 0.19423 0.0
C2126 C 0.23349 0.97075 0.19394 0.0
C2127 C 0.22429 0.96298 0.17773 0.0
C2128 C 0.18831 0.96369 0.16184 0.0
C2129 C 0.16136 0.97216 0.16219 0.0
C2130 C 0.17068 0.98 0.17821 0.0
C2131 C 0.31565 0.02699 0.19472 0.0
C2132 C 0.28558 0.033 0.18181 0.0
C2133 C 0.30282 0.0177 0.20369 0.0
C2134 C 0.25944 0.01428 0.20029 0.0
C2135 C 0.23016 0.01992 0.18592 0.0
C2136 C 0.24317 0.02924 0.17669 0.0
C2137 C 0.24441 0.0051 0.21303 0.0
C2138 C 0.22892 0.99704 0.1992 0.0
C2139 C 0.2482 0.00409 0.23865 0.0
C2140 C 0.26291 0.0125 0.25436 0.0
C2141 C 0.24148 0.02181 0.25331 0.0
C2142 C 0.25644 0.02978 0.26757 0.0
C2143 C 0.29254 0.0285 0.28316 0.0
C2144 C 0.31368 0.01924 0.28456 0.0
C2145 C 0.29894 0.01126 0.27028 0.0
H2146 H 0.30407 0.03467 0.29419 0.0
H2147 H 0.18137 0.95769 0.14923 0.0
H2148 H 0.88543 0.03675 0.03142 0.0
H2149 H 0.90428 0.02081 0.01248 0.0
H2150 H 0.02869 0.02055 0.05089 0.0
H2151 H 0.00994 0.0365 0.07019 0.0
H2152 H 0.03445 0.01791 -0.00112 0.0
H2153 H 0.95407 0.00473 0.068 0.0
H2154 H 0.88938 0.00333 0.09517 0.0
H2155 H 0.80859 0.99425 0.03478 0.0
H2156 H 0.8727 0.99573 0.00718 0.0
H2157 H 0.1152 0.96995 0.97436 0.0
H2158 H 0.08958 0.98575 0.99069 0.0
H2159 H 0.95842 0.97986 0.96308 0.0
H2160 H 0.98374 0.96368 0.94743 0.0
H2161 H 0.95202 0.98607 0.00737 0.0
H2162 H 0.02789 0.99862 0.93807 0.0
H2163 H 0.08889 0.00061 0.90864 0.0
H2164 H 0.17332 0.01166 0.96547 0.0
H2165 H 0.11296 0.00962 0.99531 0.0
C2166 C 0.91651 0.03323 0.03618 0.0
C2167 C 0.94624 0.0379 0.05231 0.0
C2168 C 0.92718 0.02412 0.02534 0.0
C2169 C 0.96787 0.01953 0.03026 0.0
C2170 C 0.99711 0.024 0.04688 0.0
C2171 C 0.98621 0.03307 0.05801 0.0
C2172 C 0.98089 0.01037 0.01698 0.0
C2173 C 0.01691 0.0109 0.00095 0.0
C2174 C 0.95654 0.0014 0.01887 0.0
C2175 C 0.91809 0.00044 0.03549 0.0
C2176 C 0.92243 0.00252 0.06048 0.0
C2177 C 0.88588 0.00169 0.07596 0.0
C2178 C 0.84488 0.99873 0.0667 0.0
C2179 C 0.84037 0.99655 0.04193 0.0
C2180 C 0.8768 0.99738 0.02637 0.0
C2181 C 0.08103 0.97205 0.97136 0.0
C2182 C 0.0515 0.96556 0.95953 0.0
C2183 C 0.06643 0.98116 0.98065 0.0
C2184 C 0.02215 0.98411 0.97787 0.0
C2185 C 0.99277 0.97776 0.96543 0.0
C2186 C 0.00729 0.96855 0.95637 0.0
C2187 C 0.00635 0.9935 0.98943 0.0
C2188 C 0.96962 0.99307 0.00511 0.0
C2189 C 0.02954 0.00264 0.98684 0.0
C2190 C 0.06598 0.00389 0.96896 0.0
C2191 C 0.05956 0.0014 0.94433 0.0
C2192 C 0.094 0.00256 0.92756 0.0
C2193 C 0.13498 0.00624 0.93519 0.0
C2194 C 0.14156 0.0088 0.95959 0.0
C2195 C 0.10722 0.00767 0.97643 0.0
H2196 H 0.16162 0.00712 0.92219 0.0
H2197 H 0.81662 0.9981 0.07871 0.0
H2198 H 0.26234 0.21662 0.07496 0.0
H2199 H 0.25408 0.23266 0.05404 0.0
H2200 H 0.37687 0.2276 0.01591 0.0
H2201 H 0.38448 0.21144 0.03606 0.0
H2202 H 0.29725 0.24996 0.04777 0.0
H2203 H 0.36558 0.23539 0.95705 0.0
H2204 H 0.38005 0.21943 0.93605 0.0
H2205 H 0.27424 0.20557 0.9758 0.0
H2206 H 0.25865 0.22148 0.99674 0.0
H2207 H 0.27122 0.28977 0.96338 0.0
H2208 H 0.31176 0.27582 0.98204 0.0
H2209 H 0.20778 0.25561 0.96038 0.0
H2210 H 0.16762 0.2694 0.94176 0.0
H2211 H 0.2889 0.24676 0.9578 0.0
H2212 H 0.20369 0.26724 0.0148 0.0
H2213 H 0.18729 0.28358 0.03349 0.0
H2214 H 0.32041 0.28536 0.06047 0.0
H2215 H 0.33781 0.26911 0.04155 0.0
C2216 C 0.28801 0.21902 0.0625 0.0
C2217 C 0.32365 0.2127 0.05685 0.0
C2218 C 0.2833 0.2282 0.05056 0.0
C2219 C 0.31434 0.23123 0.03297 0.0
C2220 C 0.35196 0.22532 0.02896 0.0
C2221 C 0.35629 0.21609 0.04055 0.0
C2222 C 0.30502 0.24001 0.01721 0.0
C2223 C 0.29585 0.24927 0.0281 0.0
C2224 C 0.30315 0.23916 0.99147 0.0
C2225 C 0.31137 0.22959 0.97867 0.0
C2226 C 0.34531 0.22894 0.96123 0.0
C2227 C 0.3537 0.21991 0.94935 0.0
C2228 C 0.32823 0.21149 0.95469 0.0
C2229 C 0.29406 0.21209 0.97177 0.0
C2230 C 0.28542 0.22111 0.98365 0.0
C2231 C 0.25786 0.28229 0.96193 0.0
C2232 C 0.21613 0.28066 0.95137 0.0
C2233 C 0.28085 0.27435 0.97271 0.0
C2234 C 0.26236 0.26471 0.97294 0.0
C2235 C 0.2226 0.26298 0.96049 0.0
C2236 C 0.19961 0.27088 0.94992 0.0
C2237 C 0.28087 0.25664 0.98836 0.0
C2238 C 0.29143 0.24749 0.97743 0.0
C2239 C 0.28349 0.25757 0.01401 0.0
C2240 C 0.27219 0.26703 0.02656 0.0
C2241 C 0.22947 0.27113 0.02467 0.0
C2242 C 0.22005 0.28039 0.03521 0.0
C2243 C 0.25292 0.28554 0.04798 0.0
C2244 C 0.29507 0.28138 0.05048 0.0
C2245 C 0.30474 0.27216 0.03985 0.0
H2246 H 0.24572 0.29272 0.05602 0.0
H2247 H 0.33499 0.20452 0.94553 0.0
H2248 H 0.98594 0.7093 0.72967 0.0
H2249 H 0.00248 0.72595 0.74521 0.0
H2250 H 0.9847 0.73818 0.67308 0.0
H2251 H 0.97096 0.72138 0.65723 0.0
H2252 H 0.04777 0.74731 0.69172 0.0
H2253 H 0.90373 0.74014 0.72102 0.0
H2254 H 0.8447 0.73047 0.74116 0.0
H2255 H 0.9151 0.73199 0.80898 0.0
H2256 H 0.97486 0.74156 0.78917 0.0
H2257 H 0.99633 0.79328 0.77649 0.0
H2258 H 0.97205 0.77772 0.75714 0.0
H2259 H 0.10804 0.76821 0.75102 0.0
H2260 H 0.1324 0.78378 0.76964 0.0
H2261 H 0.97666 0.75904 0.76795 0.0
H2262 H 0.12501 0.75482 0.69987 0.0
H2263 H 0.17376 0.76558 0.67517 0.0
H2264 H 0.07736 0.78908 0.67772 0.0
H2265 H 0.02774 0.77843 0.70209 0.0
C2266 C 0.98578 0.71554 0.71713 0.0
C2267 C 0.97704 0.71407 0.69227 0.0
C2268 C 0.99484 0.72509 0.72606 0.0
C2269 C 0.99372 0.73342 0.71049 0.0
C2270 C 0.98566 0.73191 0.68553 0.0
C2271 C 0.97779 0.72231 0.67647 0.0
C2272 C 0.00151 0.74365 0.72024 0.0
C2273 C 0.03209 0.74987 0.70835 0.0
C2274 C 0.97997 0.7472 0.74149 0.0
C2275 C 0.94394 0.74151 0.75355 0.0
C2276 C 0.90674 0.73836 0.7402 0.0
C2277 C 0.87314 0.7329 0.75155 0.0
C2278 C 0.87619 0.7306 0.77632 0.0
C2279 C 0.9128 0.73378 0.78979 0.0
C2280 C 0.94652 0.73923 0.77852 0.0
C2281 C 0.02096 0.78783 0.77114 0.0
C2282 C 0.06626 0.78977 0.77448 0.0
C2283 C 0.00708 0.77896 0.76004 0.0
C2284 C 0.03826 0.77187 0.75215 0.0
C2285 C 0.08339 0.77366 0.75633 0.0
C2286 C 0.09726 0.78254 0.76718 0.0
C2287 C 0.02391 0.76253 0.73984 0.0
C2288 C 0.99209 0.75649 0.75123 0.0
C2289 C 0.04289 0.75934 0.71756 0.0
C2290 C 0.07283 0.76584 0.70307 0.0
C2291 C 0.11416 0.76228 0.69513 0.0
C2292 C 0.14196 0.76836 0.68119 0.0
C2293 C 0.12878 0.77803 0.675 0.0
C2294 C 0.08768 0.78162 0.68266 0.0
C2295 C 0.05972 0.77556 0.69658 0.0
H2296 H 0.15036 0.78272 0.66421 0.0
H2297 H 0.85015 0.72637 0.78508 0.0
H2298 H 0.75995 0.95824 0.79276 0.0
H2299 H 0.78942 0.97332 0.77309 0.0
H2300 H 0.65719 0.98192 0.75226 0.0
H2301 H 0.6277 0.96698 0.77164 0.0
H2302 H 0.71532 0.98276 0.71403 0.0
H2303 H 0.7098 0.99348 0.79865 0.0
H2304 H 0.72885 0.99227 0.84223 0.0
H2305 H 0.86699 0.99451 0.82472 0.0
H2306 H 0.84876 0.9956 0.78099 0.0
H2307 H 0.73231 0.03357 0.67928 0.0
H2308 H 0.71542 0.01702 0.69561 0.0
H2309 H 0.84891 0.01462 0.72307 0.0
H2310 H 0.86501 0.03136 0.70792 0.0
H2311 H 0.79766 0.00953 0.75678 0.0
H2312 H 0.80606 0.00015 0.67324 0.0
H2313 H 0.79044 0.00072 0.62918 0.0
H2314 H 0.65286 0.9951 0.6431 0.0
H2315 H 0.66751 0.99464 0.68727 0.0
C2316 C 0.73719 0.96342 0.78425 0.0
C2317 C 0.69153 0.96143 0.78375 0.0
C2318 C 0.75405 0.97201 0.77299 0.0
C2319 C 0.72544 0.97871 0.76116 0.0
C2320 C 0.67984 0.97681 0.76114 0.0
C2321 C 0.66305 0.96829 0.77236 0.0
C2322 C 0.74252 0.98763 0.74825 0.0
C2323 C 0.73308 0.98867 0.72335 0.0
C2324 C 0.76709 0.99513 0.76025 0.0
C2325 C 0.77794 0.9945 0.78654 0.0
C2326 C 0.74425 0.99363 0.80408 0.0
C2327 C 0.7549 0.99298 0.82881 0.0
C2328 C 0.79911 0.99328 0.83623 0.0
C2329 C 0.83276 0.99426 0.81894 0.0
C2330 C 0.82229 0.9949 0.79419 0.0
C2331 C 0.7582 0.02942 0.68843 0.0
C2332 C 0.79988 0.03375 0.69241 0.0
C2333 C 0.74863 0.01993 0.69769 0.0
C2334 C 0.78099 0.01448 0.71047 0.0
C2335 C 0.82326 0.01866 0.71344 0.0
C2336 C 0.83249 0.02822 0.70469 0.0
C2337 C 0.7699 0.00482 0.72242 0.0
C2338 C 0.78043 0.00361 0.7472 0.0
C2339 C 0.74688 0.9971 0.71017 0.0
C2340 C 0.73786 0.99745 0.6836 0.0
C2341 C 0.77241 -0.00088 0.66693 0.0
C2342 C 0.76373 -0.00059 0.64192 0.0
C2343 C 0.72067 0.99797 0.63335 0.0
C2344 C 0.68619 0.99623 0.64976 0.0
C2345 C 0.69468 0.99594 0.67478 0.0
H2346 H 0.71403 0.99819 0.61399 0.0
H2347 H 0.80729 0.99278 0.85539 0.0
H2348 H 0.65503 0.78745 -0.00012 0.0
H2349 H 0.6805 0.77154 0.0166 0.0
H2350 H 0.77877 0.76946 0.95989 0.0
H2351 H 0.75405 0.78559 0.94329 0.0
H2352 H 0.71735 0.75207 0.96763 0.0
H2353 H 0.81718 0.77411 0.01078 0.0
H2354 H 0.83403 0.7887 0.0365 0.0
H2355 H 0.75454 0.77653 0.09412 0.0
H2356 H 0.73667 0.76192 0.06859 0.0
H2357 H 0.83142 0.70954 0.00714 0.0
H2358 H 0.81355 0.72639 0.99381 0.0
H2359 H 0.74032 0.73139 0.06011 0.0
H2360 H 0.75847 0.71449 0.07387 0.0
H2361 H 0.78862 0.74764 0.04834 0.0
H2362 H 0.68767 0.7262 0.00907 0.0
H2363 H 0.65966 0.71213 0.98468 0.0
H2364 H 0.72661 0.72356 0.92156 0.0
H2365 H 0.75656 0.73745 0.9458 0.0
C2366 C 0.68219 0.78363 0.991 0.0
C2367 C 0.70245 0.7877 0.97019 0.0
C2368 C 0.69681 0.77458 0.00066 0.0
C2369 C 0.73153 0.76939 0.9895 0.0
C2370 C 0.75199 0.77342 0.96875 0.0
C2371 C 0.73792 0.7826 0.95933 0.0
C2372 C 0.7447 0.75949 -0.00112 0.0
C2373 C 0.73383 0.75107 0.98502 0.0
C2374 C 0.76393 0.75826 0.02216 0.0
C2375 C 0.77527 0.76696 0.03768 0.0
C2376 C 0.80301 0.77458 0.02886 0.0
C2377 C 0.8128 0.78285 0.04342 0.0
C2378 C 0.79527 0.78356 0.0669 0.0
C2379 C 0.76806 0.77597 0.07591 0.0
C2380 C 0.75814 0.76769 0.06142 0.0
C2381 C 0.81163 0.7142 0.01903 0.0
C2382 C 0.79614 0.7106 0.04156 0.0
C2383 C 0.80136 0.72384 0.0113 0.0
C2384 C 0.77516 0.73011 0.02582 0.0
C2385 C 0.76055 0.72667 0.0486 0.0
C2386 C 0.7708 0.71699 0.05638 0.0
C2387 C 0.76229 0.74014 0.01677 0.0
C2388 C 0.7727 0.74859 0.03079 0.0
C2389 C 0.74149 0.7414 0.99385 0.0
C2390 C 0.72495 0.73281 0.97938 0.0
C2391 C 0.69717 0.72561 0.99011 0.0
C2392 C 0.68091 0.71766 0.9763 0.0
C2393 C 0.69163 0.71689 0.95163 0.0
C2394 C 0.71869 0.72408 0.94073 0.0
C2395 C 0.73544 0.73198 0.95452 0.0
H2396 H 0.67869 0.71076 0.94096 0.0
H2397 H 0.80285 0.78997 0.07814 0.0
H2398 H 0.30612 0.52655 0.66745 0.0
H2399 H 0.29993 0.50984 0.68526 0.0
H2400 H 0.27265 0.52297 0.75554 0.0
H2401 H 0.28173 0.53957 0.73811 0.0
H2402 H 0.32252 0.50869 0.7633 0.0
H2403 H 0.1906 0.51174 0.71546 0.0
H2404 H 0.14533 0.51457 0.67872 0.0
H2405 H 0.20847 0.4898 0.64331 0.0
H2406 H 0.25454 0.48691 0.67975 0.0
H2407 H 0.17485 0.46908 0.80618 0.0
H2408 H 0.20722 0.48455 0.7904 0.0
H2409 H 0.30446 0.46748 0.75089 0.0
H2410 H 0.27312 0.45193 0.76753 0.0
H2411 H 0.22884 0.48242 0.72607 0.0
H2412 H 0.35516 0.47923 0.78064 0.0
H2413 H 0.39019 0.47703 0.82085 0.0
H2414 H 0.32282 0.50304 0.84754 0.0
H2415 H 0.28668 0.50526 0.80762 0.0
C2416 C 0.29856 0.52583 0.68666 0.0
C2417 C 0.29423 0.53433 0.70139 0.0
C2418 C 0.29487 0.51627 0.69684 0.0
C2419 C 0.28519 0.51507 0.72176 0.0
C2420 C 0.28038 0.52362 0.73634 0.0
C2421 C 0.2853 0.53313 0.72633 0.0
C2422 C 0.28026 0.50498 0.73289 0.0
C2423 C 0.30183 0.50299 0.75509 0.0
C2424 C 0.25375 0.49741 0.72223 0.0
C2425 C 0.22643 0.49919 0.70021 0.0
C2426 C 0.19511 0.50696 0.69976 0.0
C2427 C 0.16925 0.50856 0.67901 0.0
C2428 C 0.17414 0.50239 0.65866 0.0
C2429 C 0.20481 0.49459 0.65906 0.0
C2430 C 0.2308 0.49296 0.67975 0.0
C2431 C 0.20421 0.46867 0.7949 0.0
C2432 C 0.22189 0.45938 0.78822 0.0
C2433 C 0.22255 0.47748 0.78587 0.0
C2434 C 0.25818 0.47712 0.76957 0.0
C2435 C 0.27725 0.46787 0.76369 0.0
C2436 C 0.25957 0.45903 0.77328 0.0
C2437 C 0.27072 0.48628 0.75628 0.0
C2438 C 0.2502 0.4881 0.73382 0.0
C2439 C 0.29682 0.4938 0.76709 0.0
C2440 C 0.318 0.49237 0.79119 0.0
C2441 C 0.34741 0.4844 0.79516 0.0
C2442 C 0.36755 0.48317 0.8179 0.0
C2443 C 0.35868 0.48988 0.83676 0.0
C2444 C 0.32965 0.49784 0.83293 0.0
C2445 C 0.30937 0.4991 0.81025 0.0
H2446 H 0.37438 0.48892 0.85432 0.0
H2447 H 0.15408 0.50365 0.64262 0.0
H2448 H 0.99287 0.45751 0.46153 0.0
H2449 H 0.96779 0.4729 0.48133 0.0
H2450 H 0.10028 0.47832 0.50739 0.0
H2451 H 0.1255 0.46298 0.48781 0.0
H2452 H 0.03779 0.48169 0.54278 0.0
H2453 H 0.06327 0.49067 0.4589 0.0
H2454 H 0.05399 0.4892 0.41443 0.0
H2455 H 0.91445 0.49442 0.42181 0.0
H2456 H 0.92282 0.49578 0.4664 0.0
H2457 H 0.02018 0.53367 0.57195 0.0
H2458 H 0.0404 0.5169 0.55798 0.0
H2459 H 0.91218 0.51377 0.52415 0.0
H2460 H 0.89268 0.53059 0.53717 0.0
H2461 H 0.97148 0.50882 0.49335 0.0
H2462 H 0.94561 0.50056 0.57722 0.0
H2463 H 0.9545 0.50191 0.62174 0.0
H2464 H 0.09288 0.49519 0.61501 0.0
H2465 H 0.08499 0.49396 0.5704 0.0
C2466 C 0.0166 0.46198 0.47149 0.0
C2467 C 0.06119 0.45908 0.47296 0.0
C2468 C 0.00226 0.47077 0.48277 0.0
C2469 C 0.03228 0.47677 0.4957 0.0
C2470 C 0.0766 0.47379 0.49753 0.0
C2471 C 0.09097 0.46505 0.48619 0.0
C2472 C 0.01792 0.48631 0.50685 0.0
C2473 C 0.02358 0.48768 0.53201 0.0
C2474 C 0.99866 0.49401 0.49281 0.0
C2475 C 0.9936 0.49321 0.46601 0.0
C2476 C 0.03055 0.49142 0.45106 0.0
C2477 C 0.02547 0.49062 0.42583 0.0
C2478 C 0.98364 0.49169 0.41531 0.0
C2479 C 0.94682 0.49358 0.42999 0.0
C2480 C 0.95171 0.49437 0.45524 0.0
C2481 C 0.99614 0.52932 0.56186 0.0
C2482 C 0.955 0.53345 0.55551 0.0
C2483 C 0.00763 0.51973 0.55395 0.0
C2484 C 0.97774 0.51403 0.54005 0.0
C2485 C 0.93594 0.51803 0.53468 0.0
C2486 C 0.9248 0.52764 0.54218 0.0
C2487 C 0.99083 0.50425 0.5295 0.0
C2488 C 0.98522 0.50284 0.50432 0.0
C2489 C 0.00994 0.49651 0.54359 0.0
C2490 C 0.01478 0.49727 0.57042 0.0
C2491 C 0.97802 0.49946 0.58521 0.0
C2492 C 0.98288 0.50019 0.61047 0.0
C2493 C 0.02426 0.49867 0.62119 0.0
C2494 C 0.06087 0.49639 0.60668 0.0
C2495 C 0.05621 0.49567 0.5814 0.0
H2496 H 0.02795 0.49923 0.64075 0.0
H2497 H 0.97977 0.49108 0.39577 0.0
H2498 H 0.33897 0.72119 0.58096 0.0
H2499 H 0.33043 0.7378 0.56224 0.0
H2500 H 0.24996 0.7248 0.50549 0.0
H2501 H 0.2602 0.70832 0.52352 0.0
H2502 H 0.31123 0.73554 0.48607 0.0
H2503 H 0.20966 0.74001 0.55372 0.0
H2504 H 0.18845 0.74091 0.59703 0.0
H2505 H 0.28203 0.76458 0.60838 0.0
H2506 H 0.30439 0.76369 0.56521 0.0
H2507 H 0.17473 0.77348 0.43785 0.0
H2508 H 0.21039 0.75923 0.45756 0.0
H2509 H 0.30465 0.77901 0.49144 0.0
H2510 H 0.26961 0.79334 0.47112 0.0
H2511 H 0.25438 0.76653 0.52418 0.0
H2512 H 0.34471 0.76363 0.45369 0.0
H2513 H 0.36367 0.76253 0.41012 0.0
H2514 H 0.28701 0.73568 0.40361 0.0
H2515 H 0.26673 0.73673 0.44699 0.0
C2516 C 0.3187 0.722 0.56481 0.0
C2517 C 0.29986 0.71359 0.55367 0.0
C2518 C 0.31389 0.73145 0.5541 0.0
C2519 C 0.2896 0.73256 0.53239 0.0
C2520 C 0.26916 0.72414 0.52208 0.0
C2521 C 0.27463 0.71475 0.53247 0.0
C2522 C 0.28721 0.74223 0.51924 0.0
C2523 C 0.29842 0.7423 0.49439 0.0
C2524 C 0.27257 0.75118 0.53034 0.0
C2525 C 0.25926 0.75166 0.55632 0.0
C2526 C 0.22612 0.74532 0.56551 0.0
C2527 C 0.21386 0.74584 0.59004 0.0
C2528 C 0.23414 0.75274 0.6055 0.0
C2529 C 0.26657 0.75918 0.59643 0.0
C2530 C 0.27906 0.75867 0.57194 0.0
C2531 C 0.20387 0.77475 0.44892 0.0
C2532 C 0.21957 0.78447 0.45295 0.0
C2533 C 0.22421 0.76662 0.46015 0.0
C2534 C 0.2601 0.76809 0.47594 0.0
C2535 C 0.27709 0.77775 0.47922 0.0
C2536 C 0.25728 0.78589 0.4675 0.0
C2537 C 0.27609 0.75962 0.49083 0.0
C2538 C 0.26777 0.7598 0.516 0.0
C2539 C 0.29273 0.75083 0.47998 0.0
C2540 C 0.30389 0.75032 0.45364 0.0
C2541 C 0.33139 0.75757 0.44292 0.0
C2542 C 0.34247 0.75693 0.41825 0.0
C2543 C 0.32647 0.74906 0.40409 0.0
C2544 C 0.2993 0.7418 0.41458 0.0
C2545 C 0.288 0.74241 0.43922 0.0
H2546 H 0.3352 0.74857 0.38501 0.0
H2547 H 0.22448 0.75316 0.62445 0.0
H2548 H 0.6101 0.4666 0.28113 0.0
H2549 H 0.62797 0.48224 0.26051 0.0
H2550 H 0.7665 0.47446 0.26156 0.0
H2551 H 0.74889 0.45888 0.28276 0.0
H2552 H 0.75529 0.49359 0.27285 0.0
H2553 H 0.69723 0.47151 0.20961 0.0
H2554 H 0.64131 0.46104 0.18908 0.0
H2555 H 0.55028 0.48561 0.18843 0.0
H2556 H 0.60534 0.49621 0.20915 0.0
H2557 H 0.83963 0.52806 0.1913 0.0
H2558 H 0.81615 0.51194 0.2076 0.0
H2559 H 0.67951 0.52096 0.20112 0.0
H2560 H 0.70313 0.53694 0.18346 0.0
H2561 H 0.6861 0.50171 0.1933 0.0
H2562 H 0.73749 0.52382 0.25516 0.0
H2563 H 0.79071 0.53561 0.2733 0.0
H2564 H 0.88784 0.51232 0.27817 0.0
H2565 H 0.83539 0.5004 0.25968 0.0
C2566 C 0.64444 0.46825 0.27716 0.0
C2567 C 0.67812 0.46149 0.28353 0.0
C2568 C 0.65455 0.47717 0.26518 0.0
C2569 C 0.69847 0.47944 0.259 0.0
C2570 C 0.73231 0.47284 0.26601 0.0
C2571 C 0.72225 0.46395 0.27818 0.0
C2572 C 0.70934 0.48869 0.24531 0.0
C2573 C 0.74052 0.49529 0.25532 0.0
C2574 C 0.68874 0.49115 0.22288 0.0
C2575 C 0.65528 0.48462 0.21115 0.0
C2576 C 0.66512 0.47465 0.20535 0.0
C2577 C 0.6336 0.4687 0.19363 0.0
C2578 C 0.59227 0.47265 0.18753 0.0
C2579 C 0.58227 0.48255 0.1932 0.0
C2580 C 0.61361 0.48853 0.20491 0.0
C2581 C 0.80457 0.52647 0.19274 0.0
C2582 C 0.7731 0.5337 0.18629 0.0
C2583 C 0.79117 0.51731 0.20226 0.0
C2584 C 0.74613 0.51538 0.20638 0.0
C2585 C 0.71447 0.52233 0.19832 0.0
C2586 C 0.7279 0.53143 0.18817 0.0
C2587 C 0.73257 0.50646 0.2206 0.0
C2588 C 0.70078 0.49999 0.21083 0.0
C2589 C 0.75174 0.50423 0.24352 0.0
C2590 C 0.78263 0.51124 0.25581 0.0
C2591 C 0.77025 0.52122 0.26002 0.0
C2592 C 0.80035 0.52794 0.27026 0.0
C2593 C 0.84279 0.52474 0.27665 0.0
C2594 C 0.85504 0.51479 0.27307 0.0
C2595 C 0.82511 0.50805 0.26274 0.0
H2596 H 0.86603 0.52995 0.28461 0.0
H2597 H 0.56803 0.46808 0.17828 0.0
H2598 H 0.84945 0.2116 0.5159 0.0
H2599 H 0.83197 0.22828 0.50096 0.0
H2600 H 0.73972 0.23235 0.56004 0.0
H2601 H 0.75683 0.2156 0.5752 0.0
H2602 H 0.70488 0.2373 0.51455 0.0
H2603 H 0.8368 0.24431 0.56134 0.0
H2604 H 0.91482 0.24181 0.57302 0.0
H2605 H 0.95598 0.2487 0.50007 0.0
H2606 H 0.87812 0.25111 0.48788 0.0
H2607 H 0.65608 0.28787 0.49825 0.0
H2608 H 0.68053 0.27197 0.5151 0.0
H2609 H 0.78744 0.27101 0.463 0.0
H2610 H 0.7642 0.28728 0.44686 0.0
H2611 H 0.81607 0.26422 0.50405 0.0
H2612 H 0.68858 0.25709 0.45594 0.0
H2613 H 0.61174 0.25904 0.44159 0.0
H2614 H 0.56329 0.25149 0.51277 0.0
H2615 H 0.63989 0.24963 0.52764 0.0
C2616 C 0.82571 0.21605 0.52593 0.0
C2617 C 0.80459 0.21223 0.54683 0.0
C2618 C 0.81587 0.22561 0.51735 0.0
C2619 C 0.78477 0.23158 0.52948 0.0
C2620 C 0.76388 0.22786 0.55045 0.0
C2621 C 0.77386 0.2183 0.55914 0.0
C2622 C 0.77288 0.24155 0.51975 0.0
C2623 C 0.72899 0.24325 0.51259 0.0
C2624 C 0.8048 0.24915 0.51628 0.0
C2625 C 0.85162 0.24781 0.52366 0.0
C2626 C 0.86247 0.24523 0.54776 0.0
C2627 C 0.90667 0.24384 0.55447 0.0
C2628 C 0.94033 0.24508 0.53729 0.0
C2629 C 0.92987 0.24774 0.51336 0.0
C2630 C 0.88572 0.24913 0.50655 0.0
C2631 C 0.68488 0.28428 0.49042 0.0
C2632 C 0.70799 0.28874 0.47108 0.0
C2633 C 0.69872 0.27516 0.49998 0.0
C2634 C 0.73514 0.27012 0.48991 0.0
C2635 C 0.75907 0.27471 0.47099 0.0
C2636 C 0.74576 0.28398 0.46174 0.0
C2637 C 0.74776 0.26005 0.49907 0.0
C2638 C 0.79182 0.2583 0.50601 0.0
C2639 C 0.71615 0.25231 0.5019 0.0
C2640 C 0.67 0.2533 0.49295 0.0
C2641 C 0.66154 0.2559 0.46857 0.0
C2642 C 0.61803 0.25699 0.46034 0.0
C2643 C 0.58266 0.25541 0.47627 0.0
C2644 C 0.59073 0.25272 0.50045 0.0
C2645 C 0.63418 0.25163 0.50879 0.0
H2646 H 0.549 0.25627 0.46987 0.0
H2647 H 0.97452 0.24399 0.54252 0.0
H2648 H 0.48476 0.2943 0.77163 0.0
H2649 H 0.45956 0.27845 0.75438 0.0
H2650 H 0.58108 0.26441 0.77764 0.0
H2651 H 0.60732 0.28039 0.79345 0.0
H2652 H 0.56726 0.25908 0.73468 0.0
H2653 H 0.47384 0.26035 0.80546 0.0
H2654 H 0.41907 0.26756 0.83373 0.0
H2655 H 0.32305 0.26879 0.77617 0.0
H2656 H 0.37743 0.26169 0.74748 0.0
H2657 H 0.4322 0.20999 0.74 0.0
H2658 H 0.44924 0.22655 0.7552 0.0
H2659 H 0.4886 0.23574 0.68301 0.0
H2660 H 0.47323 0.21889 0.66773 0.0
H2661 H 0.41958 0.24397 0.74839 0.0
H2662 H 0.56901 0.25346 0.68693 0.0
H2663 H 0.62809 0.24488 0.664 0.0
H2664 H 0.61976 0.21982 0.71257 0.0
H2665 H 0.56105 0.22829 0.73594 0.0
C2666 C 0.50565 0.28777 0.7734 0.0
C2667 C 0.54787 0.28852 0.78389 0.0
C2668 C 0.49124 0.27871 0.76356 0.0
C2669 C 0.51826 0.27018 0.76479 0.0
C2670 C 0.55973 0.27088 0.77624 0.0
C2671 C 0.5746 0.27999 0.78545 0.0
C2672 C 0.50462 0.26063 0.75316 0.0
C2673 C 0.53493 0.25579 0.73776 0.0
C2674 C 0.46253 0.25628 0.75709 0.0
C2675 C 0.42986 0.26059 0.77428 0.0
C2676 C 0.44116 0.26223 0.79879 0.0
C2677 C 0.41016 0.26628 0.8149 0.0
C2678 C 0.36765 0.26866 0.80674 0.0
C2679 C 0.35601 0.26696 0.78246 0.0
C2680 C 0.38689 0.26292 0.76628 0.0
C2681 C 0.44431 0.21552 0.72723 0.0
C2682 C 0.45154 0.2131 0.70262 0.0
C2683 C 0.45392 0.22503 0.73599 0.0
C2684 C 0.47056 0.2324 0.72035 0.0
C2685 C 0.47657 0.23012 0.69555 0.0
C2686 C 0.46764 0.22051 0.6868 0.0
C2687 C 0.48264 0.24232 0.73049 0.0
C2688 C 0.45185 0.2473 0.74533 0.0
C2689 C 0.52492 0.24661 0.72683 0.0
C2690 C 0.56026 0.24145 0.71295 0.0
C2691 C 0.57985 0.24612 0.69271 0.0
C2692 C 0.61326 0.24128 0.67965 0.0
C2693 C 0.62753 0.23179 0.68676 0.0
C2694 C 0.60854 0.22714 0.70701 0.0
C2695 C 0.57516 0.23196 0.72015 0.0
H2696 H 0.65339 0.22806 0.67662 0.0
H2697 H 0.3437 0.2718 0.81924 0.0
H2698 H 0.4976 0.03361 0.56802 0.0
H2699 H 0.51294 0.01707 0.55098 0.0
H2700 H 0.40665 0.02089 0.4994 0.0
H2701 H 0.39154 0.0374 0.51592 0.0
H2702 H 0.46696 -0.00017 0.54467 0.0
H2703 H 0.44073 0.01094 0.44393 0.0
H2704 H 0.44259 0.02585 0.41766 0.0
H2705 H 0.53183 0.04023 0.46736 0.0
H2706 H 0.53174 0.02526 0.49353 0.0
H2707 H 0.47892 0.95697 0.46669 0.0
H2708 H 0.45088 0.97298 0.48216 0.0
H2709 H 0.57974 0.98616 0.4719 0.0
H2710 H 0.60812 0.97019 0.45701 0.0
H2711 H 0.5059 0.9985 0.45687 0.0
H2712 H 0.56106 0.97941 0.52513 0.0
H2713 H 0.56577 0.96439 0.55077 0.0
H2714 H 0.4267 0.96639 0.56626 0.0
H2715 H 0.42122 0.98145 0.54044 0.0
C2716 C 0.47714 0.03088 0.55326 0.0
C2717 C 0.44376 0.0369 0.54315 0.0
C2718 C 0.4859 0.02142 0.54356 0.0
C2719 C 0.46142 0.01783 0.52364 0.0
C2720 C 0.42648 0.02359 0.51446 0.0
C2721 C 0.4179 0.03304 0.524 0.0
C2722 C 0.474 0.00835 0.51157 0.0
C2723 C 0.47516 -0.00045 0.52544 0.0
C2724 C 0.48504 0.00797 0.48648 0.0
C2725 C 0.48573 0.01702 0.47086 0.0
C2726 C 0.46087 0.01727 0.44922 0.0
C2727 C 0.46164 0.02573 0.43434 0.0
C2728 C 0.48704 0.03401 0.44093 0.0
C2729 C 0.512 0.03382 0.46235 0.0
C2730 C 0.51166 0.02534 0.47719 0.0
C2731 C 0.50096 0.96334 0.46732 0.0
C2732 C 0.54567 0.96237 0.46073 0.0
C2733 C 0.485 0.97244 0.47624 0.0
C2734 C 0.51338 0.9807 0.47824 0.0
C2735 C 0.55738 0.97987 0.47044 0.0
C2736 C 0.57352 0.97075 0.46201 0.0
C2737 C 0.49836 0.99005 0.48992 0.0
C2738 C 0.4969 0.9988 0.47599 0.0
C2739 C 0.4875 0.99042 0.51494 0.0
C2740 C 0.49065 0.98147 0.53067 0.0
C2741 C 0.53143 0.9766 0.53386 0.0
C2742 C 0.53424 0.96809 0.54846 0.0
C2743 C 0.49649 0.96439 0.56008 0.0
C2744 C 0.4559 0.96925 0.55721 0.0
C2745 C 0.45293 0.97779 0.54262 0.0
H2746 H 0.4987 0.95778 0.57137 0.0
H2747 H 0.48764 0.04054 0.42935 0.0
H2748 H 0.63333 0.78369 0.26416 0.0
H2749 H 0.61041 0.76773 0.24675 0.0
H2750 H 0.47604 0.77328 0.26951 0.0
H2751 H 0.49884 0.78923 0.28731 0.0
H2752 H 0.50122 0.7537 0.27672 0.0
H2753 H 0.50848 0.77825 0.21199 0.0
H2754 H 0.54671 0.79117 0.18785 0.0
H2755 H 0.64449 0.76976 0.16579 0.0
H2756 H 0.60744 0.75676 0.19023 0.0
H2757 H 0.39314 0.71825 0.20539 0.0
H2758 H 0.41619 0.73449 0.22099 0.0
H2759 H 0.54712 0.72982 0.19177 0.0
H2760 H 0.52364 0.71366 0.17527 0.0
H2761 H 0.52525 0.74885 0.18805 0.0
H2762 H 0.52182 0.72443 0.25158 0.0
H2763 H 0.48846 0.71115 0.2767 0.0
H2764 H 0.38931 0.73161 0.30198 0.0
H2765 H 0.42156 0.74498 0.27665 0.0
C2766 C 0.59898 0.78147 0.26572 0.0
C2767 C 0.5678 0.78775 0.27694 0.0
C2768 C 0.58592 0.77236 0.25567 0.0
C2769 C 0.5414 0.7694 0.25646 0.0
C2770 C 0.51054 0.77545 0.26861 0.0
C2771 C 0.5236 0.78456 0.27874 0.0
C2772 C 0.52669 0.76022 0.24374 0.0
C2773 C 0.50594 0.75268 0.25729 0.0
C2774 C 0.53404 0.7588 0.21849 0.0
C2775 C 0.55541 0.76655 0.20314 0.0
C2776 C 0.53827 0.77631 0.20211 0.0
C2777 C 0.55977 0.78365 0.1884 0.0
C2778 C 0.59811 0.78129 0.17539 0.0
C2779 C 0.61486 0.77158 0.17593 0.0
C2780 C 0.59364 0.76422 0.18971 0.0
C2781 C 0.42663 0.72076 0.2019 0.0
C2782 C 0.45677 0.71465 0.18934 0.0
C2783 C 0.43983 0.73002 0.21095 0.0
C2784 C 0.48375 0.73323 0.2082 0.0
C2785 C 0.51316 0.72744 0.19429 0.0
C2786 C 0.49971 0.71823 0.18483 0.0
C2787 C 0.49943 0.74233 0.22099 0.0
C2788 C 0.52043 0.74986 0.20748 0.0
C2789 C 0.49287 0.74368 0.24636 0.0
C2790 C 0.47391 0.7357 0.26203 0.0
C2791 C 0.49275 0.72609 0.26238 0.0
C2792 C 0.47403 0.71854 0.27666 0.0
C2793 C 0.43673 0.72053 0.29089 0.0
C2794 C 0.41817 0.73008 0.29092 0.0
C2795 C 0.43666 0.73765 0.27662 0.0
H2796 H 0.42227 0.71468 0.30192 0.0
H2797 H 0.61484 0.78697 0.16484 0.0
H2798 H 0.49886 0.46245 0.95697 0.0
H2799 H 0.47354 0.47826 0.97456 0.0
H2800 H 0.60445 0.48368 0.00294 0.0
H2801 H 0.62991 0.46792 0.98557 0.0
H2802 H 0.54023 0.48648 0.03734 0.0
H2803 H 0.56798 0.49648 0.95434 0.0
H2804 H 0.56015 0.49549 0.9097 0.0
H2805 H 0.42013 0.50026 0.91609 0.0
H2806 H 0.42704 0.50114 0.96082 0.0
H2807 H 0.51622 0.53766 0.07108 0.0
H2808 H 0.53849 0.52128 0.05559 0.0
H2809 H 0.41211 0.51821 0.01971 0.0
H2810 H 0.39048 0.53469 0.03432 0.0
H2811 H 0.47318 0.51391 0.98927 0.0
H2812 H 0.44363 0.50417 0.0716 0.0
H2813 H 0.44923 0.50466 0.11639 0.0
H2814 H 0.58874 0.4989 0.11192 0.0
H2815 H 0.58412 0.49851 0.06707 0.0
C2816 C 0.52233 0.46706 0.96674 0.0
C2817 C 0.56637 0.46395 0.96986 0.0
C2818 C 0.50784 0.47609 0.97676 0.0
C2819 C 0.53719 0.48214 0.99001 0.0
C2820 C 0.58128 0.4791 0.99284 0.0
C2821 C 0.5958 0.47012 0.98278 0.0
C2822 C 0.5218 0.49152 0.00151 0.0
C2823 C 0.52601 0.49255 0.02685 0.0
C2824 C 0.50214 0.49928 0.98785 0.0
C2825 C 0.49798 0.49877 0.96095 0.0
C2826 C 0.53547 0.49723 0.94624 0.0
C2827 C 0.5312 0.49671 0.92092 0.0
C2828 C 0.48965 0.49778 0.91007 0.0
C2829 C 0.45228 0.49941 0.92452 0.0
C2830 C 0.45636 0.49993 0.94985 0.0
C2831 C 0.49296 0.53341 0.06023 0.0
C2832 C 0.45172 0.53747 0.05381 0.0
C2833 C 0.50566 0.52403 0.05143 0.0
C2834 C 0.47691 0.51847 0.03653 0.0
C2835 C 0.435 0.52237 0.03101 0.0
C2836 C 0.42262 0.53179 0.03945 0.0
C2837 C 0.49139 0.50893 0.02527 0.0
C2838 C 0.48715 0.50786 -0.0001 0.0
C2839 C 0.51064 0.50109 0.03897 0.0
C2840 C 0.51359 0.50142 0.06595 0.0
C2841 C 0.47559 0.5031 0.08015 0.0
C2842 C 0.47857 0.50334 0.10556 0.0
C2843 C 0.51933 0.50184 0.11699 0.0
C2844 C 0.5572 0.50008 0.10304 0.0
C2845 C 0.55441 0.49984 0.07763 0.0
H2846 H 0.52157 0.50201 0.13666 0.0
H2847 H 0.48641 0.49737 0.89046 0.0
H2848 H 0.1957 0.32589 0.21547 0.0
H2849 H 0.19274 0.32286 0.17188 0.0
H2850 H 0.06882 0.30727 0.18054 0.0
H2851 H 0.07209 0.30997 0.22456 0.0
H2852 H 0.12687 0.29651 0.15437 0.0
H2853 H 0.07192 0.32982 0.15309 0.0
H2854 H 0.06998 0.34781 0.16248 0.0
H2855 H 0.1943 0.35188 0.12593 0.0
H2856 H 0.19731 0.33387 0.11661 0.0
H2857 H 0.06098 0.29693 0.03015 0.0
H2858 H 0.07245 0.29762 0.07408 0.0
H2859 H 0.20149 0.31061 0.06278 0.0
H2860 H 0.19039 0.30978 0.01851 0.0
H2861 H 0.14412 0.32233 0.09031 0.0
H2862 H 0.19713 0.2886 0.09156 0.0
H2863 H 0.19682 0.27055 0.08241 0.0
H2864 H 0.07178 0.26743 0.11875 0.0
H2865 H 0.07128 0.28546 0.12795 0.0
C2866 C 0.16745 0.32191 0.20818 0.0
C2867 C 0.13427 0.31811 0.22358 0.0
C2868 C 0.16577 0.32023 0.18319 0.0
C2869 C 0.13061 0.31483 0.17304 0.0
C2870 C 0.09644 0.31137 0.18814 0.0
C2871 C 0.09821 0.31299 0.21324 0.0
C2872 C 0.13125 0.31227 0.14689 0.0
C2873 C 0.12997 0.30215 0.14031 0.0
C2874 C 0.13659 0.31964 0.1287 0.0
C2875 C 0.13506 0.33047 0.13437 0.0
C2876 C 0.09906 0.33453 0.14726 0.0
C2877 C 0.09772 0.34473 0.15252 0.0
C2878 C 0.13205 0.35098 0.14487 0.0
C2879 C 0.16776 0.34703 0.13188 0.0
C2880 C 0.16928 0.33683 0.12658 0.0
C2881 C 0.09225 0.2997 0.03703 0.0
C2882 C 0.12457 0.30344 0.02107 0.0
C2883 C 0.09889 0.30002 0.0621 0.0
C2884 C 0.13777 0.30417 0.0716 0.0
C2885 C 0.17131 0.30735 0.05568 0.0
C2886 C 0.16499 0.30687 0.03049 0.0
C2887 C 0.1399 0.30657 0.0978 0.0
C2888 C 0.14142 0.31668 0.1044 0.0
C2889 C 0.13424 0.2992 0.11595 0.0
C2890 C 0.13392 0.28839 0.11009 0.0
C2891 C 0.16932 0.28408 0.09726 0.0
C2892 C 0.16936 0.27385 0.09216 0.0
C2893 C 0.13416 0.26787 0.09983 0.0
C2894 C 0.09895 0.27208 0.11274 0.0
C2895 C 0.09883 0.2823 0.11794 0.0
H2896 H 0.13426 0.25995 0.09588 0.0
H2897 H 0.13094 0.35887 0.14894 0.0
H2898 H 0.16108 0.94814 0.02268 0.0
H2899 H 0.16731 0.9513 0.06642 0.0
H2900 H 0.04782 0.93438 0.07872 0.0
H2901 H 0.04087 0.93149 0.03472 0.0
H2902 H 0.06051 0.9495 0.11337 0.0
H2903 H 0.14399 0.92239 0.07539 0.0
H2904 H 0.19745 0.91569 0.04564 0.0
H2905 H 0.29863 0.93485 0.07445 0.0
H2906 H 0.24547 0.94177 0.10414 0.0
H2907 H 0.08076 0.91945 0.21499 0.0
H2908 H 0.0792 0.92522 0.17306 0.0
H2909 H 0.19918 0.94192 0.18488 0.0
H2910 H 0.20068 0.93641 0.22743 0.0
H2911 H 0.19449 0.93096 0.13989 0.0
H2912 H 0.113 0.95458 0.18544 0.0
H2913 H 0.05874 0.96058 0.21544 0.0
H2914 H 0.95321 0.94763 0.17369 0.0
H2915 H 0.00697 0.94142 0.14351 0.0
C2916 C 0.13526 0.94546 0.03472 0.0
C2917 C 0.10074 0.93953 0.02571 0.0
C2918 C 0.13883 0.94726 0.0596 0.0
C2919 C 0.10858 0.94288 0.07573 0.0
C2920 C 0.07151 0.9378 0.06649 0.0
C2921 C 0.06755 0.93614 0.04146 0.0
C2922 C 0.11974 0.94196 0.10179 0.0
C2923 C 0.08977 0.94548 0.11925 0.0
C2924 C 0.15865 0.93693 0.10935 0.0
C2925 C 0.1907 0.93268 0.09175 0.0
C2926 C 0.17757 0.92521 0.07526 0.0
C2927 C 0.2078 0.92137 0.05843 0.0
C2928 C 0.25138 0.92486 0.0581 0.0
C2929 C 0.26484 0.93218 0.07468 0.0
C2930 C 0.23469 0.93606 0.09151 0.0
C2931 C 0.10722 0.92426 0.20875 0.0
C2932 C 0.14062 0.92755 0.22468 0.0
C2933 C 0.10604 0.9276 0.1848 0.0
C2934 C 0.13839 0.9342 0.17626 0.0
C2935 C 0.17352 0.93698 0.19146 0.0
C2936 C 0.17444 0.93376 0.21565 0.0
C2937 C 0.13452 0.9382 0.15141 0.0
C2938 C 0.16585 0.93524 0.13415 0.0
C2939 C 0.09683 0.94372 0.14413 0.0
C2940 C 0.06418 0.94751 0.16215 0.0
C2941 C 0.07829 0.95297 0.18263 0.0
C2942 C 0.04758 0.95641 0.19971 0.0
C2943 C 0.00254 0.95448 0.19648 0.0
C2944 C 0.98812 0.94912 0.17614 0.0
C2945 C 0.01872 0.94566 0.15901 0.0
H2946 H 0.9788 0.95715 0.20973 0.0
H2947 H 0.27474 0.92188 0.04505 0.0
H2948 H 0.98242 0.68306 0.77115 0.0
H2949 H 0.96992 0.68133 0.81516 0.0
H2950 H 0.83173 0.67518 0.80174 0.0
H2951 H 0.84368 0.67742 0.75827 0.0
H2952 H 0.83621 0.68806 0.8348 0.0
H2953 H 0.90876 0.65693 0.8216 0.0
H2954 H 0.96745 0.64551 0.80758 0.0
H2955 H 0.06069 0.65981 0.85517 0.0
H2956 H 0.00268 0.67141 0.86923 0.0
H2957 H 0.78747 0.6752 0.95881 0.0
H2958 H 0.79794 0.67406 0.91456 0.0
H2959 H 0.93238 0.6844 0.92254 0.0
H2960 H 0.92245 0.68545 0.96644 0.0
H2961 H 0.92726 0.66834 0.89246 0.0
H2962 H 0.84942 0.69988 0.90375 0.0
H2963 H 0.78715 0.71048 0.9168 0.0
H2964 H 0.69849 0.69366 0.87149 0.0
H2965 H 0.76017 0.68285 0.8585 0.0
C2966 C 0.94958 0.68126 0.77773 0.0
C2967 C 0.91392 0.68048 0.7615 0.0
C2968 C 0.94246 0.68021 0.8028 0.0
C2969 C 0.89985 0.67808 0.81179 0.0
C2970 C 0.86476 0.67691 0.79532 0.0
C2971 C 0.87164 0.67819 0.77049 0.0
C2972 C 0.89071 0.67776 0.83831 0.0
C2973 C 0.85572 0.68359 0.8473 0.0
C2974 C 0.91643 0.67205 0.85474 0.0
C2975 C 0.95145 0.6651 0.84629 0.0
C2976 C 0.94186 0.65769 0.82892 0.0
C2977 C 0.97499 0.65118 0.821 0.0
C2978 C 0.0178 0.65195 0.83043 0.0
C2979 C 0.02753 0.65923 0.84785 0.0
C2980 C 0.99453 0.66577 0.85582 0.0
C2981 C 0.81912 0.67727 0.95106 0.0
C2982 C 0.85409 0.68042 0.96606 0.0
C2983 C 0.82508 0.67661 0.92584 0.0
C2984 C 0.86595 0.67916 0.91533 0.0
C2985 C 0.9007 0.68235 0.93031 0.0
C2986 C 0.89483 0.68299 0.9554 0.0
C2987 C 0.87294 0.67864 0.88871 0.0
C2988 C 0.90759 0.67269 0.87978 0.0
C2989 C 0.84635 0.68407 0.87222 0.0
C2990 C 0.8093 0.6905 0.88036 0.0
C2991 C 0.81657 0.69838 0.89677 0.0
C2992 C 0.78136 0.70444 0.90412 0.0
C2993 C 0.73885 0.70274 0.89498 0.0
C2994 C 0.73142 0.69496 0.87856 0.0
C2995 C 0.76647 0.68887 0.87121 0.0
H2996 H 0.71163 0.70746 0.90048 0.0
H2997 H 0.0434 0.6469 0.82428 0.0
H2998 H 0.78488 0.0605 0.779 0.0
H2999 H 0.79415 0.05967 0.82328 0.0
H3000 H 0.93604 0.06055 0.81446 0.0
H3001 H 0.92707 0.06102 0.7704 0.0
H3002 H 0.91556 0.04801 0.8494 0.0
H3003 H 0.87546 0.08171 0.82833 0.0
H3004 H 0.82918 0.09483 0.80977 0.0
H3005 H 0.71944 0.086 0.85455 0.0
H3006 H 0.76493 0.07274 0.87316 0.0
H3007 H 0.97002 0.06595 0.9692 0.0
H3008 H 0.96184 0.06386 0.92501 0.0
H3009 H 0.8207 0.06057 0.9338 0.0
H3010 H 0.82841 0.06273 0.97757 0.0
H3011 H 0.84134 0.07401 0.89907 0.0
H3012 H 0.88467 0.04064 0.92162 0.0
H3013 H 0.93318 0.02801 0.94048 0.0
H3014 H 0.03968 0.03677 0.89332 0.0
H3015 H 0.99201 0.04956 0.87443 0.0
C3016 C 0.81799 0.06044 0.78655 0.0
C3017 C 0.85521 0.06091 0.77131 0.0
C3018 C 0.82327 0.05999 0.8118 0.0
C3019 C 0.86581 0.06021 0.82215 0.0
C3020 C 0.90295 0.06037 0.80688 0.0
C3021 C 0.89772 0.06069 0.78169 0.0
C3022 C 0.87185 0.06073 0.84885 0.0
C3023 C 0.89964 0.05374 0.86026 0.0
C3024 C 0.85076 0.06816 0.86301 0.0
C3025 C 0.82346 0.07617 0.85195 0.0
C3026 C 0.84137 0.08253 0.83409 0.0
C3027 C 0.8153 0.08999 0.82358 0.0
C3028 C 0.77137 0.09123 0.83093 0.0
C3029 C 0.75345 0.08502 0.84885 0.0
C3030 C 0.77937 0.07754 0.8594 0.0
C3031 C 0.93734 0.06473 0.96166 0.0
C3032 C 0.89985 0.06456 0.97677 0.0
C3033 C 0.93274 0.0635 0.93649 0.0
C3034 C 0.89066 0.06202 0.92625 0.0
C3035 C 0.85341 0.06172 0.94139 0.0
C3036 C 0.85794 0.06296 0.9664 0.0
C3037 C 0.88472 0.06125 0.89964 0.0
C3038 C 0.85709 0.06824 0.88824 0.0
C3039 C 0.90626 0.05388 0.88555 0.0
C3040 C 0.93486 0.04613 0.89677 0.0
C3041 C 0.91854 0.03993 0.9154 0.0
C3042 C 0.94587 0.03273 0.92608 0.0
C3043 C 0.98952 0.0316 0.91814 0.0
C3044 C 0.00588 0.03766 0.89947 0.0
C3045 C 0.97871 0.04488 0.88876 0.0
H3046 H 0.01063 0.02603 0.92643 0.0
H3047 H 0.75123 0.09701 0.82277 0.0
H3048 H 0.16272 0.83366 0.70904 0.0
H3049 H 0.16073 0.82991 0.66585 0.0
H3050 H 0.05981 0.8077 0.67833 0.0
H3051 H 0.06261 0.81117 0.72212 0.0
H3052 H 0.12399 0.80052 0.64957 0.0
H3053 H 0.03408 0.82954 0.65048 0.0
H3054 H 0.0121 0.84676 0.66063 0.0
H3055 H 0.12522 0.8581 0.62223 0.0
H3056 H 0.14826 0.84093 0.61212 0.0
H3057 H 0.05767 0.80215 0.52146 0.0
H3058 H 0.06169 0.80236 0.56598 0.0
H3059 H 0.19074 0.816 0.56213 0.0
H3060 H 0.18757 0.8155 0.51741 0.0
H3061 H 0.11046 0.82679 0.58633 0.0
H3062 H 0.19699 0.79649 0.58498 0.0
H3063 H 0.21217 0.77896 0.57417 0.0
H3064 H 0.09575 0.76965 0.61282 0.0
H3065 H 0.0793 0.78715 0.62341 0.0
C3066 C 0.13967 0.82804 0.7027 0.0
C3067 C 0.11283 0.82271 0.71909 0.0
C3068 C 0.13849 0.82593 0.67792 0.0
C3069 C 0.10997 0.81857 0.66888 0.0
C3070 C 0.08216 0.81339 0.68501 0.0
C3071 C 0.08349 0.81546 0.70996 0.0
C3072 C 0.11092 0.81608 0.64267 0.0
C3073 C 0.12027 0.80622 0.6357 0.0
C3074 C 0.10675 0.82357 0.62466 0.0
C3075 C 0.0931 0.83393 0.63072 0.0
C3076 C 0.05449 0.8357 0.64437 0.0
C3077 C 0.0418 0.84545 0.65008 0.0
C3078 C 0.0673 0.85352 0.64213 0.0
C3079 C 0.10552 0.85184 0.62839 0.0
C3080 C 0.11838 0.8421 0.62264 0.0
C3081 C 0.08737 0.80495 0.53015 0.0
C3082 C 0.12219 0.80889 0.51619 0.0
C3083 C 0.0897 0.80501 0.55548 0.0
C3084 C 0.12651 0.80917 0.56713 0.0
C3085 C 0.16229 0.81268 0.55328 0.0
C3086 C 0.16045 0.8124 0.52786 0.0
C3087 C 0.12416 0.81129 0.59336 0.0
C3088 C 0.11417 0.8211 0.60026 0.0
C3089 C 0.12673 0.8037 0.61115 0.0
C3090 C 0.13652 0.79317 0.60466 0.0
C3091 C 0.17425 0.79073 0.59088 0.0
C3092 C 0.18317 0.78079 0.58485 0.0
C3093 C 0.15476 0.77321 0.59266 0.0
C3094 C 0.11757 0.77554 0.60666 0.0
C3095 C 0.10843 0.78547 0.61266 0.0
H3096 H 0.16155 0.76553 0.58787 0.0
H3097 H 0.05741 0.86106 0.64656 0.0
H3098 H 0.17751 0.44433 0.71817 0.0
H3099 H 0.18652 0.4448 0.67368 0.0
H3100 H 0.16609 0.41296 0.67045 0.0
H3101 H 0.15559 0.41253 0.71462 0.0
H3102 H 0.23167 0.42209 0.63461 0.0
H3103 H 0.07933 0.42487 0.66792 0.0
H3104 H 0.02506 0.43328 0.69448 0.0
H3105 H 0.0508 0.46114 0.65843 0.0
H3106 H 0.1058 0.4529 0.63194 0.0
H3107 H 0.14573 0.40878 0.52157 0.0
H3108 H 0.15749 0.41064 0.56541 0.0
H3109 H 0.11879 0.44162 0.56068 0.0
H3110 H 0.10405 0.43957 0.51729 0.0
H3111 H 0.0914 0.43535 0.6004 0.0
H3112 H 0.23179 0.43334 0.56228 0.0
H3113 H 0.29037 0.42652 0.53584 0.0
H3114 H 0.29548 0.39993 0.57945 0.0
H3115 H 0.23645 0.40654 0.60597 0.0
C3116 C 0.17666 0.43741 0.70797 0.0
C3117 C 0.16567 0.4284 0.71952 0.0
C3118 C 0.18175 0.43768 0.68267 0.0
C3119 C 0.17672 0.42891 0.66896 0.0
C3120 C 0.17028 0.41977 0.68083 0.0
C3121 C 0.16416 0.41953 0.70596 0.0
C3122 C 0.16993 0.42937 0.64243 0.0
C3123 C 0.20116 0.42499 0.62697 0.0
C3124 C 0.13065 0.43343 0.63262 0.0
C3125 C 0.09694 0.4383 0.64818 0.0
C3126 C 0.07362 0.4328 0.6658 0.0
C3127 C 0.04272 0.43754 0.68081 0.0
C3128 C 0.03457 0.44775 0.67819 0.0
C3129 C 0.0572 0.45324 0.66048 0.0
C3130 C 0.08823 0.44854 0.64546 0.0
C3131 C 0.13878 0.41591 0.53009 0.0
C3132 C 0.12395 0.42402 0.51617 0.0
C3133 C 0.14613 0.41702 0.55503 0.0
C3134 C 0.14059 0.42637 0.56623 0.0
C3135 C 0.12366 0.43435 0.55248 0.0
C3136 C 0.115 0.43316 0.52771 0.0
C3137 C 0.1529 0.42787 0.59214 0.0
C3138 C 0.12251 0.43261 0.60764 0.0
C3139 C 0.19367 0.4244 0.60179 0.0
C3140 C 0.22944 0.42041 0.58601 0.0
C3141 C 0.24522 0.42602 0.56616 0.0
C3142 C 0.27852 0.42219 0.55116 0.0
C3143 C 0.29657 0.41279 0.55594 0.0
C3144 C 0.28144 0.40721 0.57576 0.0
C3145 C 0.24809 0.411 0.5908 0.0
H3146 H 0.32234 0.40984 0.5443 0.0
H3147 H 0.01065 0.4514 0.68983 0.0
H3148 H 0.97184 0.18714 0.27646 0.0
H3149 H 0.96141 0.18782 0.32072 0.0
H3150 H 0.82598 0.19707 0.31039 0.0
H3151 H 0.83615 0.19646 0.26634 0.0
H3152 H 0.86521 0.206 0.35107 0.0
H3153 H 0.84423 0.17345 0.31576 0.0
H3154 H 0.86559 0.15889 0.29095 0.0
H3155 H 0.97842 0.15396 0.33693 0.0
H3156 H 0.95809 0.1686 0.36179 0.0
H3157 H 0.78007 0.18755 0.46511 0.0
H3158 H 0.78915 0.18996 0.42093 0.0
H3159 H 0.92646 0.18146 0.42673 0.0
H3160 H 0.91782 0.17912 0.47042 0.0
H3161 H 0.88296 0.17242 0.3881 0.0
H3162 H 0.90223 0.20504 0.42404 0.0
H3163 H 0.87853 0.21931 0.44921 0.0
H3164 H 0.76645 0.22389 0.40247 0.0
H3165 H 0.78906 0.20951 0.37726 0.0
C3166 C 0.94021 0.18954 0.28367 0.0
C3167 C 0.90454 0.19154 0.26807 0.0
C3168 C 0.93429 0.18993 0.30888 0.0
C3169 C 0.89269 0.19234 0.3187 0.0
C3170 C 0.85823 0.19516 0.30314 0.0
C3171 C 0.86404 0.19472 0.27799 0.0
C3172 C 0.88333 0.19066 0.34476 0.0
C3173 C 0.86877 0.19866 0.35918 0.0
C3174 C 0.88787 0.18106 0.3552 0.0
C3175 C 0.89992 0.17219 0.34046 0.0
C3176 C 0.87379 0.16931 0.32046 0.0
C3177 C 0.88568 0.16104 0.3064 0.0
C3178 C 0.92341 0.15552 0.31232 0.0
C3179 C 0.94925 0.15825 0.33235 0.0
C3180 C 0.93756 0.16654 0.34643 0.0
C3181 C 0.81197 0.18611 0.45682 0.0
C3182 C 0.84829 0.1832 0.4711 0.0
C3183 C 0.81717 0.18753 0.43173 0.0
C3184 C 0.85858 0.18595 0.42075 0.0
C3185 C 0.89432 0.18273 0.43492 0.0
C3186 C 0.88931 0.18144 0.45987 0.0
C3187 C 0.86558 0.18778 0.39456 0.0
C3188 C 0.87945 0.17977 0.38004 0.0
C3189 C 0.86019 0.19735 0.3841 0.0
C3190 C 0.84707 0.20613 0.39892 0.0
C3191 C 0.87235 0.20904 0.41923 0.0
C3192 C 0.85914 0.21716 0.4335 0.0
C3193 C 0.82094 0.22249 0.42748 0.0
C3194 C 0.79599 0.21974 0.40713 0.0
C3195 C 0.80899 0.21161 0.39284 0.0
H3196 H 0.81074 0.22876 0.43857 0.0
H3197 H 0.93257 0.14911 0.30142 0.0
H3198 H 0.96254 0.55722 0.46701 0.0
H3199 H 0.95328 0.55476 0.42307 0.0
H3200 H 0.81175 0.55775 0.4311 0.0
H3201 H 0.8207 0.55974 0.4749 0.0
H3202 H 0.827 0.54367 0.40071 0.0
H3203 H 0.87999 0.5772 0.41019 0.0
H3204 H 0.93064 0.59051 0.42385 0.0
H3205 H 0.03634 0.5774 0.38253 0.0
H3206 H 0.98643 0.56394 0.36886 0.0
H3207 H 0.77531 0.55977 0.27864 0.0
H3208 H 0.78502 0.55765 0.32269 0.0
H3209 H 0.92076 0.54889 0.31125 0.0
H3210 H 0.91143 0.55093 0.26745 0.0
H3211 H 0.9103 0.56498 0.34279 0.0
H3212 H 0.8528 0.53111 0.33417 0.0
H3213 H 0.79845 0.51837 0.32129 0.0
H3214 H 0.69575 0.53389 0.35976 0.0
H3215 H 0.74963 0.54657 0.37333 0.0
C3216 C 0.92953 0.55732 0.45932 0.0
C3217 C 0.89237 0.55871 0.47426 0.0
C3218 C 0.92425 0.55595 0.43426 0.0
C3219 C 0.88182 0.55621 0.42375 0.0
C3220 C 0.84476 0.55749 0.43878 0.0
C3221 C 0.84996 0.55867 0.4638 0.0
C3222 C 0.87577 0.55535 0.39706 0.0
C3223 C 0.84502 0.54839 0.38808 0.0
C3224 C 0.89952 0.56143 0.38052 0.0
C3225 C 0.92962 0.5695 0.38874 0.0
C3226 C 0.91413 0.57712 0.40417 0.0
C3227 C 0.94268 0.58469 0.41189 0.0
C3228 C 0.98672 0.58478 0.40413 0.0
C3229 C 0.00225 0.57731 0.38857 0.0
C3230 C 0.97385 0.56971 0.38082 0.0
C3231 C 0.80699 0.55726 0.28553 0.0
C3232 C 0.84277 0.55565 0.26968 0.0
C3233 C 0.8124 0.55598 0.31063 0.0
C3234 C 0.85362 0.55311 0.3201 0.0
C3235 C 0.88875 0.55111 0.30422 0.0
C3236 C 0.88333 0.55232 0.27922 0.0
C3237 C 0.86172 0.55332 0.34658 0.0
C3238 C 0.89271 0.5602 0.35548 0.0
C3239 C 0.83759 0.54733 0.36302 0.0
C3240 C 0.8051 0.53982 0.35456 0.0
C3241 C 0.81856 0.53182 0.33974 0.0
C3242 C 0.78791 0.5246 0.33241 0.0
C3243 C 0.74365 0.52538 0.3395 0.0
C3244 C 0.73002 0.53331 0.3542 0.0
C3245 C 0.76063 0.54048 0.36186 0.0
H3246 H 0.71996 0.5198 0.33369 0.0
H3247 H 0.00877 0.59066 0.41011 0.0
H3248 H 0.60928 0.3377 0.5215 0.0
H3249 H 0.60319 0.33577 0.56526 0.0
H3250 H 0.69824 0.31174 0.56337 0.0
H3251 H 0.70325 0.31334 0.51907 0.0
H3252 H 0.62787 0.30615 0.58756 0.0
H3253 H 0.72188 0.33458 0.59061 0.0
H3254 H 0.74891 0.35145 0.58063 0.0
H3255 H 0.62884 0.3642 0.60857 0.0
H3256 H 0.6008 0.34738 0.61842 0.0
H3257 H 0.66076 0.3071 0.71715 0.0
H3258 H 0.66273 0.30655 0.67262 0.0
H3259 H 0.54975 0.32622 0.66969 0.0
H3260 H 0.54729 0.3266 0.71446 0.0
H3261 H 0.62943 0.33355 0.64828 0.0
H3262 H 0.53823 0.30421 0.64646 0.0
H3263 H 0.51647 0.28711 0.65788 0.0
H3264 H 0.63882 0.2758 0.6293 0.0
H3265 H 0.66167 0.29286 0.61804 0.0
C3266 C 0.62965 0.33212 0.53035 0.0
C3267 C 0.65642 0.3256 0.51673 0.0
C3268 C 0.62627 0.33107 0.55547 0.0
C3269 C 0.6503 0.32362 0.5676 0.0
C3270 C 0.67927 0.31751 0.5543 0.0
C3271 C 0.68241 0.3185 0.52903 0.0
C3272 C 0.64196 0.32174 0.59374 0.0
C3273 C 0.62899 0.31211 0.60094 0.0
C3274 C 0.6424 0.32956 0.61104 0.0
C3275 C 0.65908 0.3397 0.60507 0.0
C3276 C 0.70107 0.34097 0.59444 0.0
C3277 C 0.71661 0.35053 0.58884 0.0
C3278 C 0.69057 0.35889 0.59391 0.0
C3279 C 0.64896 0.35771 0.60463 0.0
C3280 C 0.63325 0.34817 0.61026 0.0
C3281 C 0.63531 0.31096 0.70691 0.0
C3282 C 0.60379 0.31686 0.71887 0.0
C3283 C 0.63642 0.31064 0.68158 0.0
C3284 C 0.60643 0.31636 0.66801 0.0
C3285 C 0.57296 0.32173 0.67999 0.0
C3286 C 0.57141 0.32191 0.70541 0.0
C3287 C 0.61495 0.31803 0.64193 0.0
C3288 C 0.62823 0.32762 0.63483 0.0
C3289 C 0.6156 0.31013 0.62492 0.0
C3290 C 0.60185 0.29985 0.63161 0.0
C3291 C 0.56071 0.2981 0.64281 0.0
C3292 C 0.54812 0.2884 0.64921 0.0
C3293 C 0.57629 0.28037 0.64438 0.0
C3294 C 0.61705 0.28202 0.63306 0.0
C3295 C 0.62981 0.29171 0.62664 0.0
H3296 H 0.5665 0.27287 0.64936 0.0
H3297 H 0.70266 0.36628 0.58957 0.0
H3298 H 0.59454 0.91435 0.535 0.0
H3299 H 0.59176 0.91659 0.57906 0.0
H3300 H 0.57451 0.94828 0.56942 0.0
H3301 H 0.57622 0.94606 0.52491 0.0
H3302 H 0.6482 0.94306 0.59766 0.0
H3303 H 0.49452 0.93674 0.59642 0.0
H3304 H 0.42506 0.92832 0.58497 0.0
H3305 H 0.46994 0.9013 0.619 0.0
H3306 H 0.53999 0.9095 0.63036 0.0
H3307 H 0.65346 0.94414 0.72964 0.0
H3308 H 0.64239 0.94682 0.68603 0.0
H3309 H 0.62936 0.91501 0.67549 0.0
H3310 H 0.6379 0.91239 0.71927 0.0
H3311 H 0.56036 0.9241 0.65828 0.0
H3312 H 0.71956 0.92998 0.65281 0.0
H3313 H 0.78905 0.93856 0.66371 0.0
H3314 H 0.73294 0.96666 0.6422 0.0
H3315 H 0.66299 0.95825 0.63135 0.0
C3316 C 0.5886 0.92175 0.54227 0.0
C3317 C 0.58564 0.93003 0.52675 0.0
C3318 C 0.58698 0.92302 0.56739 0.0
C3319 C 0.58294 0.93262 0.57733 0.0
C3320 C 0.57737 0.94085 0.56188 0.0
C3321 C 0.57809 0.93955 0.53661 0.0
C3322 C 0.59035 0.93397 0.60365 0.0
C3323 C 0.62848 0.93912 0.61109 0.0
C3324 C 0.56479 0.92874 0.62093 0.0
C3325 C 0.52265 0.92374 0.61417 0.0
C3326 C 0.48975 0.92898 0.60132 0.0
C3327 C 0.45022 0.92424 0.59487 0.0
C3328 C 0.44311 0.91428 0.60123 0.0
C3329 C 0.47549 0.90902 0.61409 0.0
C3330 C 0.51509 0.91372 0.62059 0.0
C3331 C 0.64986 0.93771 0.71782 0.0
C3332 C 0.64638 0.92806 0.72762 0.0
C3333 C 0.64339 0.93925 0.69292 0.0
C3334 C 0.63467 0.93112 0.67752 0.0
C3335 C 0.63548 0.9214 0.68711 0.0
C3336 C 0.64079 0.91989 0.71202 0.0
C3337 C 0.61979 0.93266 0.65213 0.0
C3338 C 0.57987 0.92815 0.64497 0.0
C3339 C 0.64376 0.93848 0.63515 0.0
C3340 C 0.68593 0.9435 0.64152 0.0
C3341 C 0.72197 0.93799 0.65056 0.0
C3342 C 0.76145 0.94282 0.65669 0.0
C3343 C 0.76536 0.95315 0.65372 0.0
C3344 C 0.72985 0.95866 0.64452 0.0
C3345 C 0.69032 0.95387 0.63834 0.0
H3346 H 0.79594 0.95687 0.65849 0.0
H3347 H 0.41248 0.91062 0.59622 0.0
H3348 H 0.4213 0.68839 0.4748 0.0
H3349 H 0.42535 0.69141 0.43121 0.0
H3350 H 0.28309 0.68945 0.42613 0.0
H3351 H 0.27881 0.68621 0.47009 0.0
H3352 H 0.32066 0.67899 0.39128 0.0
H3353 H 0.33503 0.71215 0.41953 0.0
H3354 H 0.36258 0.72609 0.44461 0.0
H3355 H 0.49377 0.72156 0.41669 0.0
H3356 H 0.46712 0.70751 0.39163 0.0
H3357 H 0.32523 0.69453 0.26898 0.0
H3358 H 0.31398 0.69622 0.31271 0.0
H3359 H 0.4527 0.69066 0.32509 0.0
H3360 H 0.46446 0.68892 0.28102 0.0
H3361 H 0.41026 0.70642 0.35563 0.0
H3362 H 0.39081 0.67185 0.32961 0.0
H3363 H 0.35775 0.65883 0.30357 0.0
H3364 H 0.22781 0.66745 0.32722 0.0
H3365 H 0.26012 0.68062 0.35313 0.0
C3366 C 0.39077 0.68863 0.46448 0.0
C3367 C 0.34969 0.68706 0.47584 0.0
C3368 C 0.39315 0.69044 0.43957 0.0
C3369 C 0.35449 0.69086 0.42551 0.0
C3370 C 0.31331 0.68923 0.43673 0.0
C3371 C 0.31091 0.68736 0.46177 0.0
C3372 C 0.35784 0.69236 0.39887 0.0
C3373 C 0.3395 0.6851 0.38351 0.0
C3374 C 0.38277 0.7003 0.38872 0.0
C3375 C 0.39911 0.70872 0.40382 0.0
C3376 C 0.36982 0.71408 0.41887 0.0
C3377 C 0.38525 0.72202 0.43304 0.0
C3378 C 0.42989 0.7247 0.43226 0.0
C3379 C 0.45919 0.71947 0.41727 0.0
C3380 C 0.44392 0.71153 0.40304 0.0
C3381 C 0.35357 0.69378 0.28092 0.0
C3382 C 0.39565 0.69141 0.27163 0.0
C3383 C 0.34702 0.69478 0.30588 0.0
C3384 C 0.3824 0.69345 0.32199 0.0
C3385 C 0.42503 0.69169 0.31281 0.0
C3386 C 0.43163 0.69064 0.28772 0.0
C3387 C 0.37383 0.69295 0.34839 0.0
C3388 C 0.39112 0.70039 0.36357 0.0
C3389 C 0.34717 0.6853 0.35839 0.0
C3390 C 0.32785 0.67728 0.3431 0.0
C3391 C 0.35518 0.67101 0.32911 0.0
C3392 C 0.33658 0.6636 0.3144 0.0
C3393 C 0.2907 0.66233 0.3137 0.0
C3394 C 0.26334 0.66845 0.32776 0.0
C3395 C 0.28177 0.67588 0.34247 0.0
H3396 H 0.27636 0.65659 0.30229 0.0
H3397 H 0.44178 0.73085 0.44325 0.0
H3398 H 0.32912 0.06757 0.46634 0.0
H3399 H 0.32165 0.06393 0.42314 0.0
H3400 H 0.46147 0.05762 0.41871 0.0
H3401 H 0.46939 0.06147 0.4622 0.0
H3402 H 0.43602 0.06778 0.38053 0.0
H3403 H 0.38466 0.03891 0.42067 0.0
H3404 H 0.34235 0.02891 0.45029 0.0
H3405 H 0.22065 0.03843 0.41725 0.0
H3406 H 0.2623 0.04858 0.38759 0.0
H3407 H 0.40947 0.04872 0.26283 0.0
H3408 H 0.42089 0.04739 0.30667 0.0
H3409 H 0.29168 0.06003 0.31936 0.0
H3410 H 0.27972 0.06133 0.2753 0.0
H3411 H 0.31801 0.04452 0.35327 0.0
H3412 H 0.37411 0.07535 0.31701 0.0
H3413 H 0.41935 0.08457 0.28712 0.0
H3414 H 0.53647 0.06998 0.31346 0.0
H3415 H 0.49176 0.06057 0.34328 0.0
C3416 C 0.35835 0.06543 0.45618 0.0
C3417 C 0.3998 0.06473 0.46758 0.0
C3418 C 0.35396 0.06329 0.43153 0.0
C3419 C 0.39076 0.06021 0.41792 0.0
C3420 C 0.43257 0.05984 0.42904 0.0
C3421 C 0.43709 0.06208 0.45378 0.0
C3422 C 0.38515 0.05753 0.392 0.0
C3423 C 0.41081 0.06255 0.37463 0.0
C3424 C 0.35205 0.05072 0.38432 0.0
C3425 C 0.32669 0.04453 0.40193 0.0
C3426 C 0.34889 0.03889 0.41976 0.0
C3427 C 0.32501 0.0332 0.43656 0.0
C3428 C 0.27882 0.03304 0.43567 0.0
C3429 C 0.25644 0.03856 0.41791 0.0
C3430 C 0.2802 0.04427 0.40106 0.0
C3431 C 0.38312 0.05106 0.27492 0.0
C3432 C 0.34408 0.05535 0.26575 0.0
C3433 C 0.38968 0.05025 0.29992 0.0
C3434 C 0.35745 0.05378 0.31608 0.0
C3435 C 0.31695 0.05731 0.30703 0.0
C3436 C 0.31026 0.05809 0.28193 0.0
C3437 C 0.36816 0.05494 0.34208 0.0
C3438 C 0.34352 0.04964 0.35936 0.0
C3439 C 0.40263 0.06136 0.34974 0.0
C3440 C 0.42957 0.06719 0.33219 0.0
C3441 C 0.40947 0.07407 0.31632 0.0
C3442 C 0.43501 0.07933 0.29941 0.0
C3443 C 0.48074 0.07784 0.29835 0.0
C3444 C 0.50104 0.07112 0.31428 0.0
C3445 C 0.47563 0.06582 0.3312 0.0
H3446 H 0.50045 0.08192 0.28522 0.0
H3447 H 0.26035 0.02864 0.44872 0.0
H3448 H 0.65253 0.83937 0.0257 0.0
H3449 H 0.65021 0.83761 0.06991 0.0
H3450 H 0.68903 0.80673 0.06351 0.0
H3451 H 0.69181 0.80846 0.01912 0.0
H3452 H 0.60844 0.80966 0.08773 0.0
H3453 H 0.75631 0.82154 0.09256 0.0
H3454 H 0.81951 0.83258 0.08363 0.0
H3455 H 0.75001 0.85738 0.11509 0.0
H3456 H 0.6861 0.84652 0.1239 0.0
H3457 H 0.59811 0.80653 0.21947 0.0
H3458 H 0.61118 0.80504 0.17562 0.0
H3459 H 0.59891 0.83699 0.16805 0.0
H3460 H 0.58815 0.83852 0.21197 0.0
H3461 H 0.67516 0.83105 0.15155 0.0
H3462 H 0.52468 0.81945 0.14383 0.0
H3463 H 0.46075 0.8085 0.15181 0.0
H3464 H 0.53336 0.7833 0.12473 0.0
H3465 H 0.59811 0.79405 0.11707 0.0
C3466 C 0.66205 0.8323 0.03377 0.0
C3467 C 0.67211 0.82404 0.01906 0.0
C3468 C 0.66073 0.8313 0.05899 0.0
C3469 C 0.66918 0.82202 0.06986 0.0
C3470 C 0.68238 0.81394 0.05536 0.0
C3471 C 0.68433 0.81497 0.03007 0.0
C3472 C 0.65857 0.82059 0.09585 0.0
C3473 C 0.62359 0.81415 0.1019 0.0
C3474 C 0.67785 0.82663 0.114 0.0
C3475 C 0.71627 0.83321 0.10877 0.0
C3476 C 0.75434 0.82936 0.09741 0.0
C3477 C 0.79033 0.83559 0.0924 0.0
C3478 C 0.78875 0.84568 0.09876 0.0
C3479 C 0.7512 0.84956 0.11018 0.0
C3480 C 0.7151 0.84337 0.11522 0.0
C3481 C 0.59648 0.81317 0.20823 0.0
C3482 C 0.59236 0.82265 0.21891 0.0
C3483 C 0.60409 0.81232 0.18321 0.0
C3484 C 0.60649 0.82091 0.16862 0.0
C3485 C 0.59775 0.83027 0.17904 0.0
C3486 C 0.59119 0.83115 0.20404 0.0
C3487 C 0.6236 0.82041 0.14339 0.0
C3488 C 0.66014 0.82645 0.13754 0.0
C3489 C 0.60552 0.81402 0.12545 0.0
C3490 C 0.56656 0.80755 0.13022 0.0
C3491 C 0.52726 0.81156 0.13986 0.0
C3492 C 0.49081 0.80539 0.14427 0.0
C3493 C 0.49303 0.79521 0.13885 0.0
C3494 C 0.53167 0.79119 0.12891 0.0
C3495 C 0.56828 0.79732 0.12457 0.0
H3496 H 0.4648 0.79044 0.1423 0.0
H3497 H 0.81666 0.85049 0.09487 0.0
H3498 H 0.56978 0.44478 0.02442 0.0
H3499 H 0.57048 0.44806 0.06842 0.0
H3500 H 0.62676 0.41893 0.08104 0.0
H3501 H 0.62633 0.4156 0.03747 0.0
H3502 H 0.53749 0.43822 0.11067 0.0
H3503 H 0.71672 0.42198 0.11573 0.0
H3504 H 0.78257 0.4211 0.08928 0.0
H3505 H 0.73902 0.44713 0.05049 0.0
H3506 H 0.67333 0.44828 0.07695 0.0
H3507 H 0.58053 0.4171 0.22194 0.0
H3508 H 0.57603 0.42096 0.1788 0.0
H3509 H 0.67248 0.44441 0.18778 0.0
H3510 H 0.67714 0.44065 0.23136 0.0
H3511 H 0.68702 0.43447 0.14713 0.0
H3512 H 0.56553 0.4501 0.18287 0.0
H3513 H 0.49988 0.45244 0.2088 0.0
H3514 H 0.42883 0.43072 0.16665 0.0
H3515 H 0.49425 0.42816 0.14061 0.0
C3516 C 0.58119 0.43898 0.03666 0.0
C3517 C 0.59859 0.42998 0.02755 0.0
C3518 C 0.58174 0.44089 0.06171 0.0
C3519 C 0.59971 0.43382 0.07772 0.0
C3520 C 0.61367 0.42455 0.0688 0.0
C3521 C 0.61327 0.42265 0.04393 0.0
C3522 C 0.60685 0.43614 0.10365 0.0
C3523 C 0.57008 0.43751 0.11876 0.0
C3524 C 0.64978 0.43568 0.11385 0.0
C3525 C 0.68994 0.43518 0.09828 0.0
C3526 C 0.72136 0.42756 0.10169 0.0
C3527 C 0.75863 0.42701 0.08667 0.0
C3528 C 0.76494 0.43404 0.0682 0.0
C3529 C 0.73406 0.44167 0.06477 0.0
C3530 C 0.69678 0.44227 0.07976 0.0
C3531 C 0.60097 0.42307 0.21483 0.0
C3532 C 0.62881 0.42864 0.23017 0.0
C3533 C 0.5981 0.42531 0.19017 0.0
C3534 C 0.62271 0.43321 0.18034 0.0
C3535 C 0.65243 0.43845 0.19522 0.0
C3536 C 0.65529 0.43623 0.22004 0.0
C3537 C 0.61722 0.43579 0.15437 0.0
C3538 C 0.65442 0.43541 0.1392 0.0
C3539 C 0.57475 0.43745 0.14417 0.0
C3540 C 0.53496 0.43896 0.1597 0.0
C3541 C 0.53596 0.44581 0.17912 0.0
C3542 C 0.49876 0.44717 0.19387 0.0
C3543 C 0.46017 0.44173 0.18937 0.0
C3544 C 0.45872 0.43494 0.17009 0.0
C3545 C 0.49586 0.43355 0.15528 0.0
H3546 H 0.4314 0.44278 0.20082 0.0
H3547 H 0.79377 0.43359 0.05656 0.0
H3548 H 0.32708 0.18843 0.7749 0.0
H3549 H 0.31584 0.18887 0.81877 0.0
H3550 H 0.45288 0.18112 0.8301 0.0
H3551 H 0.46442 0.18056 0.78588 0.0
H3552 H 0.3974 0.16966 0.85702 0.0
H3553 H 0.4177 0.20438 0.84139 0.0
H3554 H 0.40514 0.22055 0.82109 0.0
H3555 H 0.26988 0.22043 0.84503 0.0
H3556 H 0.28141 0.20417 0.86514 0.0
H3557 H 0.41543 0.18134 0.98108 0.0
H3558 H 0.42164 0.18192 0.93697 0.0
H3559 H 0.27995 0.18478 0.93075 0.0
H3560 H 0.27321 0.18417 0.9754 0.0
H3561 H 0.33437 0.19866 0.90134 0.0
H3562 H 0.31642 0.16368 0.91757 0.0
H3563 H 0.33199 0.1478 0.9386 0.0
H3564 H 0.46687 0.14891 0.91415 0.0
H3565 H 0.45227 0.16488 0.89327 0.0
C3566 C 0.35498 0.18687 0.78668 0.0
C3567 C 0.39665 0.18443 0.77699 0.0
C3568 C 0.3485 0.18719 0.81175 0.0
C3569 C 0.3836 0.18512 0.82762 0.0
C3570 C 0.42542 0.18276 0.81806 0.0
C3571 C 0.43199 0.18246 0.79287 0.0
C3572 C 0.3758 0.18495 0.85416 0.0
C3573 C 0.38419 0.17605 0.86677 0.0
C3574 C 0.35741 0.19321 0.86666 0.0
C3575 C 0.35031 0.20299 0.85455 0.0
C3576 C 0.38515 0.20775 0.84213 0.0
C3577 C 0.37824 0.21694 0.83069 0.0
C3578 C 0.33671 0.2215 0.83171 0.0
C3579 C 0.30202 0.21688 0.84422 0.0
C3580 C 0.30873 0.20768 0.85565 0.0
C3581 C 0.38544 0.1821 0.97044 0.0
C3582 C 0.34374 0.18266 0.98168 0.0
C3583 C 0.38913 0.18241 0.94523 0.0
C3584 C 0.35126 0.1833 0.93075 0.0
C3585 C 0.30948 0.18404 0.94178 0.0
C3586 C 0.3057 0.18368 0.96718 0.0
C3587 C 0.35613 0.1834 0.90407 0.0
C3588 C 0.3473 0.19228 0.89148 0.0
C3589 C 0.37447 0.17516 0.89159 0.0
C3590 C 0.38332 0.16552 0.90403 0.0
C3591 C 0.3495 0.16058 0.91685 0.0
C3592 C 0.35813 0.15156 0.92871 0.0
C3593 C 0.40042 0.14736 0.92776 0.0
C3594 C 0.43413 0.15217 0.91489 0.0
C3595 C 0.42568 0.16121 0.90302 0.0
H3596 H 0.40703 0.14037 0.93695 0.0
H3597 H 0.33143 0.22862 0.82286 0.0
H3598 H 0.45427 0.56901 0.96509 0.0
H3599 H 0.4414 0.56885 0.92101 0.0
H3600 H 0.30994 0.55723 0.93272 0.0
H3601 H 0.32259 0.55728 0.97658 0.0
H3602 H 0.35015 0.54868 0.89296 0.0
H3603 H 0.32252 0.58148 0.92524 0.0
H3604 H 0.34093 0.59671 0.94832 0.0
H3605 H 0.45094 0.60227 0.90071 0.0
H3606 H 0.43357 0.58697 0.87756 0.0
H3607 H 0.26441 0.5631 0.77632 0.0
H3608 H 0.27161 0.5626 0.82097 0.0
H3609 H 0.4078 0.57195 0.81494 0.0
H3610 H 0.40106 0.57233 0.77071 0.0
H3611 H 0.36043 0.58168 0.85216 0.0
H3612 H 0.38976 0.54869 0.82079 0.0
H3613 H 0.37127 0.53361 0.79714 0.0
H3614 H 0.25808 0.52846 0.8427 0.0
H3615 H 0.27542 0.54365 0.86635 0.0
C3616 C 0.42293 0.56628 0.95821 0.0
C3617 C 0.38923 0.56329 0.97422 0.0
C3618 C 0.41557 0.56622 0.9331 0.0
C3619 C 0.37446 0.56317 0.92374 0.0
C3620 C 0.34179 0.55964 0.93963 0.0
C3621 C 0.34904 0.55973 0.96468 0.0
C3622 C 0.36423 0.56434 0.89762 0.0
C3623 C 0.35187 0.55591 0.88408 0.0
C3624 C 0.36676 0.57377 0.8861 0.0
C3625 C 0.37699 0.58303 0.89982 0.0
C3626 C 0.35082 0.58591 0.9198 0.0
C3627 C 0.36105 0.59456 0.93288 0.0
C3628 C 0.39715 0.60044 0.92603 0.0
C3629 C 0.42302 0.5977 0.90602 0.0
C3630 C 0.41299 0.58904 0.8929 0.0
C3631 C 0.29556 0.56519 0.78465 0.0
C3632 C 0.33227 0.56769 0.77024 0.0
C3633 C 0.29968 0.56486 0.81002 0.0
C3634 C 0.34034 0.56718 0.82106 0.0
C3635 C 0.37623 0.57014 0.80668 0.0
C3636 C 0.37236 0.57031 0.78146 0.0
C3637 C 0.3468 0.56603 0.84749 0.0
C3638 C 0.35841 0.57447 0.8611 0.0
C3639 C 0.34358 0.55661 0.85902 0.0
C3640 C 0.33354 0.54738 0.84513 0.0
C3641 C 0.36069 0.5444 0.82564 0.0
C3642 C 0.35046 0.53583 0.81225 0.0
C3643 C 0.31342 0.53011 0.81835 0.0
C3644 C 0.28669 0.53292 0.83795 0.0
C3645 C 0.29669 0.54151 0.85135 0.0
H3646 H 0.3055 0.5235 0.8079 0.0
H3647 H 0.40502 0.60713 0.93618 0.0
loop_
_geom_bond_atom_site_label_1
_geom_bond_atom_site_label_2
_geom_bond_distance
_geom_bond_site_symmetry_2
_ccdc_geom_bond_type
Co0 O1 2.216 . S
Co0 O2 2.091 . S
Co0 O4 2.004 . S
Co0 O10 2.021 . S
Co0 O12 2.137 . S
Co0 O13 2.244 . S
O1 Co0 2.216 . S
O1 C8 1.247 . S
O2 Co0 2.091 . S
O2 C8 1.261 . S
C3 O12 1.247 . S
C3 O13 1.272 . S
O4 Co0 2.004 . S
O4 C9 1.259 . S
Co5 O6 2.061 . S
Co5 O11 2.052 . S
Co5 O13 2.135 . S
O6 Co5 2.061 . S
O6 C9 1.235 . S
C7 O10 1.238 . S
C7 O11 1.241 . S
C8 O1 1.247 . S
C8 O2 1.261 . S
C9 O4 1.259 . S
C9 O6 1.235 . S
O10 Co0 2.021 . S
O10 C7 1.238 . S
O11 Co5 2.052 . S
O11 C7 1.241 . S
O12 Co0 2.137 . S
O12 C3 1.247 . S
O13 Co0 2.244 . S
O13 C3 1.272 . S
O13 Co5 2.135 . S
Co14 O15 2.216 . S
Co14 O16 2.091 . S
Co14 O18 2.004 . S
Co14 O24 2.021 . S
Co14 O26 2.137 . S
Co14 O27 2.244 . S
O15 Co14 2.216 . S
O15 C22 1.247 . S
O16 Co14 2.091 . S
O16 C22 1.261 . S
C17 O26 1.247 . S
C17 O27 1.272 . S
O18 Co14 2.004 . S
O18 C23 1.259 . S
Co19 O20 2.061 . S
Co19 O25 2.052 . S
Co19 O27 2.135 . S
O20 Co19 2.061 . S
O20 C23 1.235 . S
C21 O24 1.238 . S
C21 O25 1.241 . S
C22 O15 1.247 . S
C22 O16 1.261 . S
C23 O18 1.259 . S
C23 O20 1.235 . S
O24 Co14 2.021 . S
O24 C21 1.238 . S
O25 Co19 2.052 . S
O25 C21 1.241 . S
O26 Co14 2.137 . S
O26 C17 1.247 . S
O27 Co14 2.244 . S
O27 C17 1.272 . S
O27 Co19 2.135 . S
Co28 O29 2.216 . S
Co28 O30 2.091 . S
Co28 O32 2.004 . S
Co28 O38 2.021 . S
Co28 O40 2.137 . S
Co28 O41 2.244 . S
O29 Co28 2.216 . S
O29 C36 1.247 . S
O30 Co28 2.091 . S
O30 C36 1.261 . S
C31 O40 1.247 . S
C31 O41 1.272 . S
O32 Co28 2.004 . S
O32 C37 1.259 . S
Co33 O34 2.061 . S
Co33 O39 2.052 1_556 S
Co33 O41 2.135 . S
O34 Co33 2.061 . S
O34 C37 1.235 . S
C35 O38 1.238 1_554 S
C35 O39 1.241 . S
C36 O29 1.247 . S
C36 O30 1.261 . S
C37 O32 1.259 . S
C37 O34 1.235 . S
O38 Co28 2.021 . S
O38 C35 1.238 1_556 S
O39 Co33 2.052 1_554 S
O39 C35 1.241 . S
O40 Co28 2.137 . S
O40 C31 1.247 . S
O41 Co28 2.244 . S
O41 C31 1.272 . S
O41 Co33 2.135 . S
Co42 O43 2.216 . S
Co42 O44 2.091 . S
Co42 O46 2.004 . S
Co42 O52 2.021 . S
Co42 O54 2.137 . S
Co42 O55 2.244 . S
O43 Co42 2.216 . S
O43 C50 1.247 . S
O44 Co42 2.091 . S
O44 C50 1.261 . S
C45 O54 1.247 . S
C45 O55 1.272 . S
O46 Co42 2.004 . S
O46 C51 1.259 . S
Co47 O48 2.061 . S
Co47 O53 2.052 1_556 S
Co47 O55 2.135 . S
O48 Co47 2.061 . S
O48 C51 1.235 . S
C49 O52 1.238 1_554 S
C49 O53 1.241 . S
C50 O43 1.247 . S
C50 O44 1.261 . S
C51 O46 1.259 . S
C51 O48 1.235 . S
O52 Co42 2.021 . S
O52 C49 1.238 1_556 S
O53 Co47 2.052 1_554 S
O53 C49 1.241 . S
O54 Co42 2.137 . S
O54 C45 1.247 . S
O55 Co42 2.244 . S
O55 C45 1.272 . S
O55 Co47 2.135 . S
Co56 O57 2.216 . S
Co56 O58 2.091 . S
Co56 O60 2.004 . S
Co56 O66 2.021 . S
Co56 O68 2.137 . S
Co56 O69 2.244 . S
O57 Co56 2.216 . S
O57 C64 1.247 . S
O58 Co56 2.091 . S
O58 C64 1.261 . S
C59 O68 1.247 . S
C59 O69 1.272 . S
O60 Co56 2.004 . S
O60 C65 1.259 . S
Co61 O62 2.061 . S
Co61 O67 2.052 . S
Co61 O69 2.135 . S
O62 Co61 2.061 . S
O62 C65 1.235 . S
C63 O66 1.238 . S
C63 O67 1.241 . S
C64 O57 1.247 . S
C64 O58 1.261 . S
C65 O60 1.259 . S
C65 O62 1.235 . S
O66 Co56 2.021 . S
O66 C63 1.238 . S
O67 Co61 2.052 . S
O67 C63 1.241 . S
O68 Co56 2.137 . S
O68 C59 1.247 . S
O69 Co56 2.244 . S
O69 C59 1.272 . S
O69 Co61 2.135 . S
Co70 O71 2.216 . S
Co70 O72 2.091 . S
Co70 O74 2.004 . S
Co70 O80 2.021 . S
Co70 O82 2.137 . S
Co70 O83 2.244 . S
O71 Co70 2.216 . S
O71 C78 1.247 . S
O72 Co70 2.091 . S
O72 C78 1.261 . S
C73 O82 1.247 . S
C73 O83 1.272 . S
O74 Co70 2.004 . S
O74 C79 1.259 . S
Co75 O76 2.061 . S
Co75 O81 2.052 . S
Co75 O83 2.135 . S
O76 Co75 2.061 . S
O76 C79 1.235 . S
C77 O80 1.238 . S
C77 O81 1.241 . S
C78 O71 1.247 . S
C78 O72 1.261 . S
C79 O74 1.259 . S
C79 O76 1.235 . S
O80 Co70 2.021 . S
O80 C77 1.238 . S
O81 Co75 2.052 . S
O81 C77 1.241 . S
O82 Co70 2.137 . S
O82 C73 1.247 . S
O83 Co70 2.244 . S
O83 C73 1.272 . S
O83 Co75 2.135 . S
Co84 O85 2.216 . S
Co84 O86 2.091 1_554 S
Co84 O88 2.004 . S
Co84 O94 2.021 . S
Co84 O96 2.137 . S
Co84 O97 2.244 . S
O85 Co84 2.216 . S
O85 C92 1.247 1_554 S
O86 Co84 2.091 1_556 S
O86 C92 1.261 . S
C87 O96 1.247 . S
C87 O97 1.272 . S
O88 Co84 2.004 . S
O88 C93 1.259 . S
Co89 O90 2.061 . S
Co89 O95 2.052 . S
Co89 O97 2.135 . S
O90 Co89 2.061 . S
O90 C93 1.235 . S
C91 O94 1.238 . S
C91 O95 1.241 . S
C92 O85 1.247 1_556 S
C92 O86 1.261 . S
C93 O88 1.259 . S
C93 O90 1.235 . S
O94 Co84 2.021 . S
O94 C91 1.238 . S
O95 Co89 2.052 . S
O95 C91 1.241 . S
O96 Co84 2.137 . S
O96 C87 1.247 . S
O97 Co84 2.244 . S
O97 C87 1.272 . S
O97 Co89 2.135 . S
Co98 O99 2.216 . S
Co98 O100 2.091 1_554 S
Co98 O102 2.004 . S
Co98 O108 2.021 . S
Co98 O110 2.137 . S
Co98 O111 2.244 . S
O99 Co98 2.216 . S
O99 C106 1.247 1_554 S
O100 Co98 2.091 1_556 S
O100 C106 1.261 . S
C101 O110 1.247 . S
C101 O111 1.272 . S
O102 Co98 2.004 . S
O102 C107 1.259 . S
Co103 O104 2.061 . S
Co103 O109 2.052 . S
Co103 O111 2.135 . S
O104 Co103 2.061 . S
O104 C107 1.235 . S
C105 O108 1.238 . S
C105 O109 1.241 . S
C106 O99 1.247 1_556 S
C106 O100 1.261 . S
C107 O102 1.259 . S
C107 O104 1.235 . S
O108 Co98 2.021 . S
O108 C105 1.238 . S
O109 Co103 2.052 . S
O109 C105 1.241 . S
O110 Co98 2.137 . S
O110 C101 1.247 . S
O111 Co98 2.244 . S
O111 C101 1.272 . S
O111 Co103 2.135 . S
Co112 O113 2.216 . S
Co112 O114 2.091 . S
Co112 O116 2.004 . S
Co112 O122 2.021 . S
Co112 O124 2.137 . S
Co112 O125 2.244 . S
O113 Co112 2.216 . S
O113 C120 1.247 . S
O114 Co112 2.091 . S
O114 C120 1.261 . S
C115 O124 1.247 . S
C115 O125 1.272 . S
O116 Co112 2.004 . S
O116 C121 1.259 . S
Co117 O118 2.061 . S
Co117 O123 2.052 . S
Co117 O125 2.135 . S
O118 Co117 2.061 . S
O118 C121 1.235 . S
C119 O122 1.238 . S
C119 O123 1.241 . S
C120 O113 1.247 . S
C120 O114 1.261 . S
C121 O116 1.259 . S
C121 O118 1.235 . S
O122 Co112 2.021 . S
O122 C119 1.238 . S
O123 Co117 2.052 . S
O123 C119 1.241 . S
O124 Co112 2.137 . S
O124 C115 1.247 . S
O125 Co112 2.244 . S
O125 C115 1.272 . S
O125 Co117 2.135 . S
Co126 O127 2.216 . S
Co126 O128 2.091 . S
Co126 O130 2.004 . S
Co126 O136 2.021 . S
Co126 O138 2.137 . S
Co126 O139 2.244 . S
O127 Co126 2.216 . S
O127 C134 1.247 . S
O128 Co126 2.091 . S
O128 C134 1.261 . S
C129 O138 1.247 . S
C129 O139 1.272 . S
O130 Co126 2.004 . S
O130 C135 1.259 . S
Co131 O132 2.061 . S
Co131 O137 2.052 . S
Co131 O139 2.135 . S
O132 Co131 2.061 . S
O132 C135 1.235 . S
C133 O136 1.238 . S
C133 O137 1.241 . S
C134 O127 1.247 . S
C134 O128 1.261 . S
C135 O130 1.259 . S
C135 O132 1.235 . S
O136 Co126 2.021 . S
O136 C133 1.238 . S
O137 Co131 2.052 . S
O137 C133 1.241 . S
O138 Co126 2.137 . S
O138 C129 1.247 . S
O139 Co126 2.244 . S
O139 C129 1.272 . S
O139 Co131 2.135 . S
Co140 O141 2.216 . S
Co140 O142 2.091 . S
Co140 O144 2.004 . S
Co140 O150 2.021 . S
Co140 O152 2.137 . S
Co140 O153 2.244 . S
O141 Co140 2.216 . S
O141 C148 1.247 . S
O142 Co140 2.091 . S
O142 C148 1.261 . S
C143 O152 1.247 . S
C143 O153 1.272 . S
O144 Co140 2.004 . S
O144 C149 1.259 . S
Co145 O146 2.061 . S
Co145 O151 2.052 . S
Co145 O153 2.135 . S
O146 Co145 2.061 . S
O146 C149 1.235 . S
C147 O150 1.238 . S
C147 O151 1.241 . S
C148 O141 1.247 . S
C148 O142 1.261 . S
C149 O144 1.259 . S
C149 O146 1.235 . S
O150 Co140 2.021 . S
O150 C147 1.238 . S
O151 Co145 2.052 . S
O151 C147 1.241 . S
O152 Co140 2.137 . S
O152 C143 1.247 . S
O153 Co140 2.244 . S
O153 C143 1.272 . S
O153 Co145 2.135 . S
Co154 O155 2.216 . S
Co154 O156 2.091 . S
Co154 O158 2.004 . S
Co154 O164 2.021 . S
Co154 O166 2.137 . S
Co154 O167 2.244 . S
O155 Co154 2.216 . S
O155 C162 1.247 . S
O156 Co154 2.091 . S
O156 C162 1.261 . S
C157 O166 1.247 . S
C157 O167 1.272 . S
O158 Co154 2.004 . S
O158 C163 1.259 . S
Co159 O160 2.061 . S
Co159 O165 2.052 . S
Co159 O167 2.135 . S
O160 Co159 2.061 . S
O160 C163 1.235 . S
C161 O164 1.238 . S
C161 O165 1.241 . S
C162 O155 1.247 . S
C162 O156 1.261 . S
C163 O158 1.259 . S
C163 O160 1.235 . S
O164 Co154 2.021 . S
O164 C161 1.238 . S
O165 Co159 2.052 . S
O165 C161 1.241 . S
O166 Co154 2.137 . S
O166 C157 1.247 . S
O167 Co154 2.244 . S
O167 C157 1.272 . S
O167 Co159 2.135 . S
Co168 O169 2.216 . S
Co168 O170 2.091 . S
Co168 O172 2.004 . S
Co168 O178 2.021 . S
Co168 O180 2.137 . S
Co168 O181 2.244 . S
O169 Co168 2.216 . S
O169 C176 1.247 . S
O170 Co168 2.091 . S
O170 C176 1.261 . S
C171 O180 1.247 . S
C171 O181 1.272 . S
O172 Co168 2.004 . S
O172 C177 1.259 . S
Co173 O174 2.061 . S
Co173 O179 2.052 . S
Co173 O181 2.135 . S
O174 Co173 2.061 . S
O174 C177 1.235 . S
C175 O178 1.238 . S
C175 O179 1.241 . S
C176 O169 1.247 . S
C176 O170 1.261 . S
C177 O172 1.259 . S
C177 O174 1.235 . S
O178 Co168 2.021 . S
O178 C175 1.238 . S
O179 Co173 2.052 . S
O179 C175 1.241 . S
O180 Co168 2.137 . S
O180 C171 1.247 . S
O181 Co168 2.244 . S
O181 C171 1.272 . S
O181 Co173 2.135 . S
Co182 O183 2.216 . S
Co182 O184 2.091 . S
Co182 O186 2.004 . S
Co182 O192 2.021 . S
Co182 O194 2.137 . S
Co182 O195 2.244 . S
O183 Co182 2.216 . S
O183 C190 1.247 . S
O184 Co182 2.091 . S
O184 C190 1.261 . S
C185 O194 1.247 . S
C185 O195 1.272 . S
O186 Co182 2.004 . S
O186 C191 1.259 . S
Co187 O188 2.061 . S
Co187 O193 2.052 . S
Co187 O195 2.135 . S
O188 Co187 2.061 . S
O188 C191 1.235 . S
C189 O192 1.238 . S
C189 O193 1.241 . S
C190 O183 1.247 . S
C190 O184 1.261 . S
C191 O186 1.259 . S
C191 O188 1.235 . S
O192 Co182 2.021 . S
O192 C189 1.238 . S
O193 Co187 2.052 . S
O193 C189 1.241 . S
O194 Co182 2.137 . S
O194 C185 1.247 . S
O195 Co182 2.244 . S
O195 C185 1.272 . S
O195 Co187 2.135 . S
Co196 O197 2.216 . S
Co196 O198 2.091 . S
Co196 O200 2.004 . S
Co196 O206 2.021 . S
Co196 O208 2.137 . S
Co196 O209 2.244 . S
O197 Co196 2.216 . S
O197 C204 1.247 . S
O198 Co196 2.091 . S
O198 C204 1.261 . S
C199 O208 1.247 . S
C199 O209 1.272 . S
O200 Co196 2.004 . S
O200 C205 1.259 . S
Co201 O202 2.061 . S
Co201 O207 2.052 . S
Co201 O209 2.135 . S
O202 Co201 2.061 . S
O202 C205 1.235 . S
C203 O206 1.238 . S
C203 O207 1.241 . S
C204 O197 1.247 . S
C204 O198 1.261 . S
C205 O200 1.259 . S
C205 O202 1.235 . S
O206 Co196 2.021 . S
O206 C203 1.238 . S
O207 Co201 2.052 . S
O207 C203 1.241 . S
O208 Co196 2.137 . S
O208 C199 1.247 . S
O209 Co196 2.244 . S
O209 C199 1.272 . S
O209 Co201 2.135 . S
Co210 O211 2.216 . S
Co210 O212 2.091 . S
Co210 O214 2.004 . S
Co210 O220 2.021 . S
Co210 O222 2.137 . S
Co210 O223 2.244 . S
O211 Co210 2.216 . S
O211 C218 1.247 . S
O212 Co210 2.091 . S
O212 C218 1.261 . S
C213 O222 1.247 . S
C213 O223 1.272 . S
O214 Co210 2.004 . S
O214 C219 1.259 . S
Co215 O216 2.061 . S
Co215 O221 2.052 . S
Co215 O223 2.135 . S
O216 Co215 2.061 . S
O216 C219 1.235 . S
C217 O220 1.238 . S
C217 O221 1.241 . S
C218 O211 1.247 . S
C218 O212 1.261 . S
C219 O214 1.259 . S
C219 O216 1.235 . S
O220 Co210 2.021 . S
O220 C217 1.238 . S
O221 Co215 2.052 . S
O221 C217 1.241 . S
O222 Co210 2.137 . S
O222 C213 1.247 . S
O223 Co210 2.244 . S
O223 C213 1.272 . S
O223 Co215 2.135 . S
Co224 O225 2.216 . S
Co224 O226 2.091 . S
Co224 O228 2.004 . S
Co224 O234 2.021 . S
Co224 O236 2.137 . S
Co224 O237 2.244 . S
O225 Co224 2.216 . S
O225 C232 1.247 . S
O226 Co224 2.091 . S
O226 C232 1.261 . S
C227 O236 1.247 . S
C227 O237 1.272 . S
O228 Co224 2.004 . S
O228 C233 1.259 . S
Co229 O230 2.061 . S
Co229 O235 2.052 . S
Co229 O237 2.135 . S
O230 Co229 2.061 . S
O230 C233 1.235 . S
C231 O234 1.238 . S
C231 O235 1.241 . S
C232 O225 1.247 . S
C232 O226 1.261 . S
C233 O228 1.259 . S
C233 O230 1.235 . S
O234 Co224 2.021 . S
O234 C231 1.238 . S
O235 Co229 2.052 . S
O235 C231 1.241 . S
O236 Co224 2.137 . S
O236 C227 1.247 . S
O237 Co224 2.244 . S
O237 C227 1.272 . S
O237 Co229 2.135 . S
Co238 O239 2.216 . S
Co238 O240 2.091 . S
Co238 O242 2.004 . S
Co238 O248 2.021 . S
Co238 O250 2.137 . S
Co238 O251 2.244 . S
O239 Co238 2.216 . S
O239 C246 1.247 . S
O240 Co238 2.091 . S
O240 C246 1.261 . S
C241 O250 1.247 . S
C241 O251 1.272 . S
O242 Co238 2.004 . S
O242 C247 1.259 . S
Co243 O244 2.061 . S
Co243 O249 2.052 . S
Co243 O251 2.135 . S
O244 Co243 2.061 . S
O244 C247 1.235 . S
C245 O248 1.238 . S
C245 O249 1.241 . S
C246 O239 1.247 . S
C246 O240 1.261 . S
C247 O242 1.259 . S
C247 O244 1.235 . S
O248 Co238 2.021 . S
O248 C245 1.238 . S
O249 Co243 2.052 . S
O249 C245 1.241 . S
O250 Co238 2.137 . S
O250 C241 1.247 . S
O251 Co238 2.244 . S
O251 C241 1.272 . S
O251 Co243 2.135 . S
Co252 O253 2.216 . S
Co252 O254 2.091 . S
Co252 O256 2.004 . S
Co252 O262 2.021 . S
Co252 O264 2.137 . S
Co252 O265 2.244 . S
O253 Co252 2.216 . S
O253 C260 1.247 . S
O254 Co252 2.091 . S
O254 C260 1.261 . S
C255 O264 1.247 . S
C255 O265 1.272 . S
O256 Co252 2.004 . S
O256 C261 1.259 . S
Co257 O258 2.061 . S
Co257 O263 2.052 . S
Co257 O265 2.135 . S
O258 Co257 2.061 . S
O258 C261 1.235 . S
C259 O262 1.238 . S
C259 O263 1.241 . S
C260 O253 1.247 . S
C260 O254 1.261 . S
C261 O256 1.259 . S
C261 O258 1.235 . S
O262 Co252 2.021 . S
O262 C259 1.238 . S
O263 Co257 2.052 . S
O263 C259 1.241 . S
O264 Co252 2.137 . S
O264 C255 1.247 . S
O265 Co252 2.244 . S
O265 C255 1.272 . S
O265 Co257 2.135 . S
Co266 O267 2.216 . S
Co266 O268 2.091 . S
Co266 O270 2.004 . S
Co266 O276 2.021 . S
Co266 O278 2.137 . S
Co266 O279 2.244 . S
O267 Co266 2.216 . S
O267 C274 1.247 . S
O268 Co266 2.091 . S
O268 C274 1.261 . S
C269 O278 1.247 . S
C269 O279 1.272 . S
O270 Co266 2.004 . S
O270 C275 1.259 . S
Co271 O272 2.061 . S
Co271 O277 2.052 . S
Co271 O279 2.135 . S
O272 Co271 2.061 . S
O272 C275 1.235 . S
C273 O276 1.238 . S
C273 O277 1.241 . S
C274 O267 1.247 . S
C274 O268 1.261 . S
C275 O270 1.259 . S
C275 O272 1.235 . S
O276 Co266 2.021 . S
O276 C273 1.238 . S
O277 Co271 2.052 . S
O277 C273 1.241 . S
O278 Co266 2.137 . S
O278 C269 1.247 . S
O279 Co266 2.244 . S
O279 C269 1.272 . S
O279 Co271 2.135 . S
Co280 O281 2.216 . S
Co280 O282 2.091 . S
Co280 O284 2.004 . S
Co280 O290 2.021 . S
Co280 O292 2.137 . S
Co280 O293 2.244 . S
O281 Co280 2.216 . S
O281 C288 1.247 . S
O282 Co280 2.091 . S
O282 C288 1.261 . S
C283 O292 1.247 . S
C283 O293 1.272 . S
O284 Co280 2.004 . S
O284 C289 1.259 . S
Co285 O286 2.061 . S
Co285 O291 2.052 . S
Co285 O293 2.135 . S
O286 Co285 2.061 . S
O286 C289 1.235 . S
C287 O290 1.238 . S
C287 O291 1.241 . S
C288 O281 1.247 . S
C288 O282 1.261 . S
C289 O284 1.259 . S
C289 O286 1.235 . S
O290 Co280 2.021 . S
O290 C287 1.238 . S
O291 Co285 2.052 . S
O291 C287 1.241 . S
O292 Co280 2.137 . S
O292 C283 1.247 . S
O293 Co280 2.244 . S
O293 C283 1.272 . S
O293 Co285 2.135 . S
Co294 O295 2.216 . S
Co294 O296 2.091 . S
Co294 O298 2.004 . S
Co294 O304 2.021 . S
Co294 O306 2.137 . S
Co294 O307 2.244 . S
O295 Co294 2.216 . S
O295 C302 1.247 . S
O296 Co294 2.091 . S
O296 C302 1.261 . S
C297 O306 1.247 . S
C297 O307 1.272 . S
O298 Co294 2.004 . S
O298 C303 1.259 . S
Co299 O300 2.061 . S
Co299 O305 2.052 . S
Co299 O307 2.135 . S
O300 Co299 2.061 . S
O300 C303 1.235 . S
C301 O304 1.238 . S
C301 O305 1.241 . S
C302 O295 1.247 . S
C302 O296 1.261 . S
C303 O298 1.259 . S
C303 O300 1.235 . S
O304 Co294 2.021 . S
O304 C301 1.238 . S
O305 Co299 2.052 . S
O305 C301 1.241 . S
O306 Co294 2.137 . S
O306 C297 1.247 . S
O307 Co294 2.244 . S
O307 C297 1.272 . S
O307 Co299 2.135 . S
Co308 O309 2.216 . S
Co308 O310 2.091 . S
Co308 O312 2.004 . S
Co308 O318 2.021 . S
Co308 O320 2.137 . S
Co308 O321 2.244 . S
O309 Co308 2.216 . S
O309 C316 1.247 . S
O310 Co308 2.091 . S
O310 C316 1.261 . S
C311 O320 1.247 . S
C311 O321 1.272 . S
O312 Co308 2.004 . S
O312 C317 1.259 . S
Co313 O314 2.061 . S
Co313 O319 2.052 . S
Co313 O321 2.135 . S
O314 Co313 2.061 . S
O314 C317 1.235 . S
C315 O318 1.238 . S
C315 O319 1.241 . S
C316 O309 1.247 . S
C316 O310 1.261 . S
C317 O312 1.259 . S
C317 O314 1.235 . S
O318 Co308 2.021 . S
O318 C315 1.238 . S
O319 Co313 2.052 . S
O319 C315 1.241 . S
O320 Co308 2.137 . S
O320 C311 1.247 . S
O321 Co308 2.244 . S
O321 C311 1.272 . S
O321 Co313 2.135 . S
Co322 O323 2.216 . S
Co322 O324 2.091 . S
Co322 O326 2.004 . S
Co322 O332 2.021 . S
Co322 O334 2.137 . S
Co322 O335 2.244 . S
O323 Co322 2.216 . S
O323 C330 1.247 . S
O324 Co322 2.091 . S
O324 C330 1.261 . S
C325 O334 1.247 . S
C325 O335 1.272 . S
O326 Co322 2.004 . S
O326 C331 1.259 . S
Co327 O328 2.061 . S
Co327 O333 2.052 . S
Co327 O335 2.135 . S
O328 Co327 2.061 . S
O328 C331 1.235 . S
C329 O332 1.238 . S
C329 O333 1.241 . S
C330 O323 1.247 . S
C330 O324 1.261 . S
C331 O326 1.259 . S
C331 O328 1.235 . S
O332 Co322 2.021 . S
O332 C329 1.238 . S
O333 Co327 2.052 . S
O333 C329 1.241 . S
O334 Co322 2.137 . S
O334 C325 1.247 . S
O335 Co322 2.244 . S
O335 C325 1.272 . S
O335 Co327 2.135 . S
Co336 O337 2.216 . S
Co336 O338 2.091 . S
Co336 O340 2.004 . S
Co336 O346 2.021 . S
Co336 O348 2.137 . S
Co336 O349 2.244 . S
O337 Co336 2.216 . S
O337 C344 1.247 . S
O338 Co336 2.091 . S
O338 C344 1.261 . S
C339 O348 1.247 . S
C339 O349 1.272 . S
O340 Co336 2.004 . S
O340 C345 1.259 . S
Co341 O342 2.061 . S
Co341 O347 2.052 . S
Co341 O349 2.135 . S
O342 Co341 2.061 . S
O342 C345 1.235 . S
C343 O346 1.238 . S
C343 O347 1.241 . S
C344 O337 1.247 . S
C344 O338 1.261 . S
C345 O340 1.259 . S
C345 O342 1.235 . S
O346 Co336 2.021 . S
O346 C343 1.238 . S
O347 Co341 2.052 . S
O347 C343 1.241 . S
O348 Co336 2.137 . S
O348 C339 1.247 . S
O349 Co336 2.244 . S
O349 C339 1.272 . S
O349 Co341 2.135 . S
Co350 O351 2.216 . S
Co350 O352 2.091 . S
Co350 O354 2.004 . S
Co350 O360 2.021 . S
Co350 O362 2.137 . S
Co350 O363 2.244 . S
O351 Co350 2.216 . S
O351 C358 1.247 . S
O352 Co350 2.091 . S
O352 C358 1.261 . S
C353 O362 1.247 . S
C353 O363 1.272 . S
O354 Co350 2.004 . S
O354 C359 1.259 . S
Co355 O356 2.061 . S
Co355 O361 2.052 . S
Co355 O363 2.135 . S
O356 Co355 2.061 . S
O356 C359 1.235 . S
C357 O360 1.238 . S
C357 O361 1.241 . S
C358 O351 1.247 . S
C358 O352 1.261 . S
C359 O354 1.259 . S
C359 O356 1.235 . S
O360 Co350 2.021 . S
O360 C357 1.238 . S
O361 Co355 2.052 . S
O361 C357 1.241 . S
O362 Co350 2.137 . S
O362 C353 1.247 . S
O363 Co350 2.244 . S
O363 C353 1.272 . S
O363 Co355 2.135 . S
Co364 O365 2.216 . S
Co364 O366 2.091 . S
Co364 O368 2.004 . S
Co364 O374 2.021 . S
Co364 O376 2.137 . S
Co364 O377 2.244 . S
O365 Co364 2.216 . S
O365 C372 1.247 . S
O366 Co364 2.091 . S
O366 C372 1.261 . S
C367 O376 1.247 . S
C367 O377 1.272 . S
O368 Co364 2.004 . S
O368 C373 1.259 . S
Co369 O370 2.061 . S
Co369 O375 2.052 1_556 S
Co369 O377 2.135 . S
O370 Co369 2.061 . S
O370 C373 1.235 . S
C371 O374 1.238 1_554 S
C371 O375 1.241 . S
C372 O365 1.247 . S
C372 O366 1.261 . S
C373 O368 1.259 . S
C373 O370 1.235 . S
O374 Co364 2.021 . S
O374 C371 1.238 1_556 S
O375 Co369 2.052 1_554 S
O375 C371 1.241 . S
O376 Co364 2.137 . S
O376 C367 1.247 . S
O377 Co364 2.244 . S
O377 C367 1.272 . S
O377 Co369 2.135 . S
Co378 O379 2.216 . S
Co378 O380 2.091 . S
Co378 O382 2.004 . S
Co378 O388 2.021 . S
Co378 O390 2.137 . S
Co378 O391 2.244 . S
O379 Co378 2.216 . S
O379 C386 1.247 . S
O380 Co378 2.091 . S
O380 C386 1.261 . S
C381 O390 1.247 . S
C381 O391 1.272 . S
O382 Co378 2.004 . S
O382 C387 1.259 . S
Co383 O384 2.061 . S
Co383 O389 2.052 1_556 S
Co383 O391 2.135 . S
O384 Co383 2.061 . S
O384 C387 1.235 . S
C385 O388 1.238 1_554 S
C385 O389 1.241 . S
C386 O379 1.247 . S
C386 O380 1.261 . S
C387 O382 1.259 . S
C387 O384 1.235 . S
O388 Co378 2.021 . S
O388 C385 1.238 1_556 S
O389 Co383 2.052 1_554 S
O389 C385 1.241 . S
O390 Co378 2.137 . S
O390 C381 1.247 . S
O391 Co378 2.244 . S
O391 C381 1.272 . S
O391 Co383 2.135 . S
Co392 O393 2.216 . S
Co392 O394 2.091 . S
Co392 O396 2.004 . S
Co392 O402 2.021 . S
Co392 O404 2.137 . S
Co392 O405 2.244 . S
O393 Co392 2.216 . S
O393 C400 1.247 . S
O394 Co392 2.091 . S
O394 C400 1.261 . S
C395 O404 1.247 . S
C395 O405 1.272 . S
O396 Co392 2.004 . S
O396 C401 1.259 . S
Co397 O398 2.061 . S
Co397 O403 2.052 . S
Co397 O405 2.135 . S
O398 Co397 2.061 . S
O398 C401 1.235 . S
C399 O402 1.238 . S
C399 O403 1.241 . S
C400 O393 1.247 . S
C400 O394 1.261 . S
C401 O396 1.259 . S
C401 O398 1.235 . S
O402 Co392 2.021 . S
O402 C399 1.238 . S
O403 Co397 2.052 . S
O403 C399 1.241 . S
O404 Co392 2.137 . S
O404 C395 1.247 . S
O405 Co392 2.244 . S
O405 C395 1.272 . S
O405 Co397 2.135 . S
Co406 O407 2.216 . S
Co406 O408 2.091 . S
Co406 O410 2.004 . S
Co406 O416 2.021 . S
Co406 O418 2.137 . S
Co406 O419 2.244 . S
O407 Co406 2.216 . S
O407 C414 1.247 . S
O408 Co406 2.091 . S
O408 C414 1.261 . S
C409 O418 1.247 . S
C409 O419 1.272 . S
O410 Co406 2.004 . S
O410 C415 1.259 . S
Co411 O412 2.061 . S
Co411 O417 2.052 . S
Co411 O419 2.135 . S
O412 Co411 2.061 . S
O412 C415 1.235 . S
C413 O416 1.238 . S
C413 O417 1.241 . S
C414 O407 1.247 . S
C414 O408 1.261 . S
C415 O410 1.259 . S
C415 O412 1.235 . S
O416 Co406 2.021 . S
O416 C413 1.238 . S
O417 Co411 2.052 . S
O417 C413 1.241 . S
O418 Co406 2.137 . S
O418 C409 1.247 . S
O419 Co406 2.244 . S
O419 C409 1.272 . S
O419 Co411 2.135 . S
Co420 O421 2.216 . S
Co420 O422 2.091 1_554 S
Co420 O424 2.004 . S
Co420 O430 2.021 . S
Co420 O432 2.137 . S
Co420 O433 2.244 . S
O421 Co420 2.216 . S
O421 C428 1.247 1_554 S
O422 Co420 2.091 1_556 S
O422 C428 1.261 . S
C423 O432 1.247 . S
C423 O433 1.272 . S
O424 Co420 2.004 . S
O424 C429 1.259 . S
Co425 O426 2.061 . S
Co425 O431 2.052 . S
Co425 O433 2.135 . S
O426 Co425 2.061 . S
O426 C429 1.235 . S
C427 O430 1.238 . S
C427 O431 1.241 . S
C428 O421 1.247 1_556 S
C428 O422 1.261 . S
C429 O424 1.259 . S
C429 O426 1.235 . S
O430 Co420 2.021 . S
O430 C427 1.238 . S
O431 Co425 2.052 . S
O431 C427 1.241 . S
O432 Co420 2.137 . S
O432 C423 1.247 . S
O433 Co420 2.244 . S
O433 C423 1.272 . S
O433 Co425 2.135 . S
Co434 O435 2.216 . S
Co434 O436 2.091 1_554 S
Co434 O438 2.004 . S
Co434 O444 2.021 . S
Co434 O446 2.137 . S
Co434 O447 2.244 . S
O435 Co434 2.216 . S
O435 C442 1.247 1_554 S
O436 Co434 2.091 1_556 S
O436 C442 1.261 . S
C437 O446 1.247 . S
C437 O447 1.272 . S
O438 Co434 2.004 . S
O438 C443 1.259 . S
Co439 O440 2.061 . S
Co439 O445 2.052 . S
Co439 O447 2.135 . S
O440 Co439 2.061 . S
O440 C443 1.235 . S
C441 O444 1.238 . S
C441 O445 1.241 . S
C442 O435 1.247 1_556 S
C442 O436 1.261 . S
C443 O438 1.259 . S
C443 O440 1.235 . S
O444 Co434 2.021 . S
O444 C441 1.238 . S
O445 Co439 2.052 . S
O445 C441 1.241 . S
O446 Co434 2.137 . S
O446 C437 1.247 . S
O447 Co434 2.244 . S
O447 C437 1.272 . S
O447 Co439 2.135 . S
H448 C466 0.951 . S
H449 C468 0.951 . S
H450 C470 0.950 . S
H451 C471 0.950 . S
H452 C473 0.950 . S
H453 C476 0.950 . S
H454 C477 0.950 . S
H455 C479 0.950 . S
H456 C480 0.950 . S
H457 C481 0.951 . S
H458 C483 0.951 . S
H459 C485 0.950 . S
H460 C486 0.950 . S
H461 C488 0.950 . S
H462 C491 0.950 . S
H463 C492 0.950 1_655 S
H464 C494 0.950 . S
H465 C495 0.950 . S
C466 H448 0.951 . S
C466 C467 1.366 . S
C466 C468 1.388 . S
C467 C466 1.366 . S
C467 C471 1.385 . S
C468 H449 0.951 . S
C468 C466 1.388 . S
C468 C469 1.366 . S
C469 C468 1.366 . S
C469 C470 1.414 . S
C469 C472 1.499 . S
C470 H450 0.950 . S
C470 C469 1.414 . S
C470 C471 1.374 . S
C471 H451 0.950 . S
C471 C467 1.385 . S
C471 C470 1.374 . S
C472 C469 1.499 . S
C472 C473 1.373 . S
C472 C474 1.389 . S
C473 H452 0.950 . S
C473 C472 1.373 . S
C473 C489 1.377 . S
C474 C472 1.389 . S
C474 C475 1.524 . S
C474 C488 1.377 . S
C475 C474 1.524 . S
C475 C476 1.397 . S
C475 C480 1.363 . S
C476 H453 0.950 . S
C476 C475 1.397 . S
C476 C477 1.334 . S
C477 H454 0.950 . S
C477 C476 1.334 . S
C477 C478 1.287 . S
C478 C477 1.287 . S
C478 C479 1.524 . S
C478 H497 0.913 . S
C479 H455 0.950 . S
C479 C478 1.524 . S
C479 C480 1.415 . S
C480 H456 0.950 . S
C480 C475 1.363 . S
C480 C479 1.415 . S
C481 H457 0.951 . S
C481 C482 1.366 . S
C481 C483 1.388 . S
C482 C481 1.366 . S
C482 C486 1.385 . S
C483 H458 0.951 . S
C483 C481 1.388 . S
C483 C484 1.366 . S
C484 C483 1.366 . S
C484 C485 1.414 . S
C484 C487 1.499 . S
C485 H459 0.950 . S
C485 C484 1.414 . S
C485 C486 1.374 . S
C486 H460 0.950 . S
C486 C482 1.385 . S
C486 C485 1.374 . S
C487 C484 1.499 . S
C487 C488 1.373 . S
C487 C489 1.389 . S
C488 H461 0.950 . S
C488 C474 1.377 . S
C488 C487 1.373 . S
C489 C473 1.377 . S
C489 C487 1.389 . S
C489 C490 1.524 . S
C490 C489 1.524 . S
C490 C491 1.397 . S
C490 C495 1.363 . S
C491 H462 0.950 . S
C491 C490 1.397 . S
C491 C492 1.334 . S
C492 H463 0.950 1_455 S
C492 C491 1.334 . S
C492 C493 1.287 . S
C493 C492 1.287 . S
C493 C494 1.524 . S
C493 H496 0.999 . S
C494 H464 0.950 . S
C494 C493 1.524 . S
C494 C495 1.415 . S
C495 H465 0.950 . S
C495 C490 1.363 . S
C495 C494 1.415 . S
H496 C493 0.999 . S
H497 C478 0.913 . S
H498 C516 0.951 . S
H499 C518 0.951 . S
H500 C520 0.950 . S
H501 C521 0.950 . S
H502 C523 0.950 . S
H503 C526 0.950 . S
H504 C527 0.950 . S
H505 C529 0.950 . S
H506 C530 0.950 . S
H507 C531 0.951 . S
H508 C533 0.951 . S
H509 C535 0.950 . S
H510 C536 0.950 . S
H511 C538 0.950 . S
H512 C541 0.950 . S
H513 C542 0.950 . S
H514 C544 0.950 1_655 S
H515 C545 0.950 . S
C516 H498 0.951 . S
C516 C517 1.366 . S
C516 C518 1.388 . S
C517 C516 1.366 . S
C517 C521 1.385 . S
C518 H499 0.951 . S
C518 C516 1.388 . S
C518 C519 1.366 . S
C519 C518 1.366 . S
C519 C520 1.414 . S
C519 C522 1.499 . S
C520 H500 0.950 . S
C520 C519 1.414 . S
C520 C521 1.374 . S
C521 H501 0.950 . S
C521 C517 1.385 . S
C521 C520 1.374 . S
C522 C519 1.499 . S
C522 C523 1.373 . S
C522 C524 1.389 . S
C523 H502 0.950 . S
C523 C522 1.373 . S
C523 C539 1.377 . S
C524 C522 1.389 . S
C524 C525 1.524 . S
C524 C538 1.377 . S
C525 C524 1.524 . S
C525 C526 1.397 . S
C525 C530 1.363 . S
C526 H503 0.950 . S
C526 C525 1.397 . S
C526 C527 1.334 . S
C527 H504 0.950 . S
C527 C526 1.334 . S
C527 C528 1.287 . S
C528 C527 1.287 . S
C528 C529 1.524 . S
C528 H547 0.913 . S
C529 H505 0.950 . S
C529 C528 1.524 . S
C529 C530 1.415 . S
C530 H506 0.950 . S
C530 C525 1.363 . S
C530 C529 1.415 . S
C531 H507 0.951 . S
C531 C532 1.366 . S
C531 C533 1.388 . S
C532 C531 1.366 . S
C532 C536 1.385 . S
C533 H508 0.951 . S
C533 C531 1.388 . S
C533 C534 1.366 . S
C534 C533 1.366 . S
C534 C535 1.414 . S
C534 C537 1.499 . S
C535 H509 0.950 . S
C535 C534 1.414 . S
C535 C536 1.374 . S
C536 H510 0.950 . S
C536 C532 1.385 . S
C536 C535 1.374 . S
C537 C534 1.499 . S
C537 C538 1.373 . S
C537 C539 1.389 . S
C538 H511 0.950 . S
C538 C524 1.377 . S
C538 C537 1.373 . S
C539 C523 1.377 . S
C539 C537 1.389 . S
C539 C540 1.524 . S
C540 C539 1.524 . S
C540 C541 1.397 . S
C540 C545 1.363 . S
C541 H512 0.950 . S
C541 C540 1.397 . S
C541 C542 1.334 . S
C542 H513 0.950 . S
C542 C541 1.334 . S
C542 C543 1.287 . S
C543 C542 1.287 . S
C543 C544 1.524 . S
C543 H546 0.999 1_455 S
C544 H514 0.950 1_455 S
C544 C543 1.524 . S
C544 C545 1.415 . S
C545 H515 0.950 . S
C545 C540 1.363 . S
C545 C544 1.415 . S
H546 C543 0.999 1_655 S
H547 C528 0.913 . S
H548 C566 0.951 . S
H549 C568 0.951 . S
H550 C570 0.950 . S
H551 C571 0.950 . S
H552 C573 0.950 . S
H553 C576 0.950 . S
H554 C577 0.950 . S
H555 C579 0.950 . S
H556 C580 0.950 . S
H557 C581 0.951 . S
H558 C583 0.951 . S
H559 C585 0.950 . S
H560 C586 0.950 . S
H561 C588 0.950 . S
H562 C591 0.950 . S
H563 C592 0.950 . S
H564 C594 0.950 . S
H565 C595 0.950 . S
C566 H548 0.951 . S
C566 C567 1.366 . S
C566 C568 1.388 . S
C567 C566 1.366 . S
C567 C571 1.385 . S
C568 H549 0.951 . S
C568 C566 1.388 . S
C568 C569 1.366 . S
C569 C568 1.366 . S
C569 C570 1.414 . S
C569 C572 1.499 . S
C570 H550 0.950 . S
C570 C569 1.414 . S
C570 C571 1.374 . S
C571 H551 0.950 . S
C571 C567 1.385 . S
C571 C570 1.374 . S
C572 C569 1.499 . S
C572 C573 1.373 . S
C572 C574 1.389 . S
C573 H552 0.950 . S
C573 C572 1.373 . S
C573 C589 1.377 . S
C574 C572 1.389 . S
C574 C575 1.524 . S
C574 C588 1.377 . S
C575 C574 1.524 . S
C575 C576 1.397 . S
C575 C580 1.363 . S
C576 H553 0.950 . S
C576 C575 1.397 . S
C576 C577 1.334 . S
C577 H554 0.950 . S
C577 C576 1.334 . S
C577 C578 1.287 . S
C578 C577 1.287 . S
C578 C579 1.524 . S
C578 H597 0.913 . S
C579 H555 0.950 . S
C579 C578 1.524 . S
C579 C580 1.415 . S
C580 H556 0.950 . S
C580 C575 1.363 . S
C580 C579 1.415 . S
C581 H557 0.951 . S
C581 C582 1.366 . S
C581 C583 1.388 . S
C582 C581 1.366 . S
C582 C586 1.385 . S
C583 H558 0.951 . S
C583 C581 1.388 . S
C583 C584 1.366 . S
C584 C583 1.366 . S
C584 C585 1.414 . S
C584 C587 1.499 . S
C585 H559 0.950 . S
C585 C584 1.414 . S
C585 C586 1.374 . S
C586 H560 0.950 . S
C586 C582 1.385 . S
C586 C585 1.374 . S
C587 C584 1.499 . S
C587 C588 1.373 . S
C587 C589 1.389 . S
C588 H561 0.950 . S
C588 C574 1.377 . S
C588 C587 1.373 . S
C589 C573 1.377 . S
C589 C587 1.389 . S
C589 C590 1.524 . S
C590 C589 1.524 . S
C590 C591 1.397 1_455 S
C590 C595 1.363 . S
C591 H562 0.950 . S
C591 C590 1.397 1_655 S
C591 C592 1.334 . S
C592 H563 0.950 . S
C592 C591 1.334 . S
C592 C593 1.287 . S
C593 C592 1.287 . S
C593 C594 1.524 . S
C593 H596 0.999 . S
C594 H564 0.950 . S
C594 C593 1.524 . S
C594 C595 1.415 1_655 S
C595 H565 0.950 . S
C595 C590 1.363 . S
C595 C594 1.415 1_455 S
H596 C593 0.999 . S
H597 C578 0.913 . S
H598 C616 0.951 . S
H599 C618 0.951 . S
H600 C620 0.950 . S
H601 C621 0.950 . S
H602 C623 0.950 . S
H603 C626 0.950 . S
H604 C627 0.950 . S
H605 C629 0.950 1_655 S
H606 C630 0.950 . S
H607 C631 0.951 . S
H608 C633 0.951 . S
H609 C635 0.950 . S
H610 C636 0.950 . S
H611 C638 0.950 . S
H612 C641 0.950 . S
H613 C642 0.950 . S
H614 C644 0.950 . S
H615 C645 0.950 . S
C616 H598 0.951 . S
C616 C617 1.366 . S
C616 C618 1.388 . S
C617 C616 1.366 . S
C617 C621 1.385 . S
C618 H599 0.951 . S
C618 C616 1.388 . S
C618 C619 1.366 . S
C619 C618 1.366 . S
C619 C620 1.414 . S
C619 C622 1.499 . S
C620 H600 0.950 . S
C620 C619 1.414 . S
C620 C621 1.374 . S
C621 H601 0.950 . S
C621 C617 1.385 . S
C621 C620 1.374 . S
C622 C619 1.499 . S
C622 C623 1.373 . S
C622 C624 1.389 . S
C623 H602 0.950 . S
C623 C622 1.373 . S
C623 C639 1.377 . S
C624 C622 1.389 . S
C624 C625 1.524 . S
C624 C638 1.377 . S
C625 C624 1.524 . S
C625 C626 1.397 . S
C625 C630 1.363 . S
C626 H603 0.950 . S
C626 C625 1.397 . S
C626 C627 1.334 . S
C627 H604 0.950 . S
C627 C626 1.334 . S
C627 C628 1.287 . S
C628 C627 1.287 . S
C628 C629 1.524 . S
C628 H647 0.913 . S
C629 H605 0.950 1_455 S
C629 C628 1.524 . S
C629 C630 1.415 . S
C630 H606 0.950 . S
C630 C625 1.363 . S
C630 C629 1.415 . S
C631 H607 0.951 . S
C631 C632 1.366 . S
C631 C633 1.388 . S
C632 C631 1.366 . S
C632 C636 1.385 . S
C633 H608 0.951 . S
C633 C631 1.388 . S
C633 C634 1.366 . S
C634 C633 1.366 . S
C634 C635 1.414 . S
C634 C637 1.499 . S
C635 H609 0.950 . S
C635 C634 1.414 . S
C635 C636 1.374 . S
C636 H610 0.950 . S
C636 C632 1.385 . S
C636 C635 1.374 . S
C637 C634 1.499 . S
C637 C638 1.373 . S
C637 C639 1.389 . S
C638 H611 0.950 . S
C638 C624 1.377 . S
C638 C637 1.373 . S
C639 C623 1.377 . S
C639 C637 1.389 . S
C639 C640 1.524 . S
C640 C639 1.524 . S
C640 C641 1.397 . S
C640 C645 1.363 . S
C641 H612 0.950 . S
C641 C640 1.397 . S
C641 C642 1.334 . S
C642 H613 0.950 . S
C642 C641 1.334 . S
C642 C643 1.287 . S
C643 C642 1.287 . S
C643 C644 1.524 . S
C643 H646 0.999 . S
C644 H614 0.950 . S
C644 C643 1.524 . S
C644 C645 1.415 . S
C645 H615 0.950 . S
C645 C640 1.363 . S
C645 C644 1.415 . S
H646 C643 0.999 . S
H647 C628 0.913 . S
H648 C666 0.951 . S
H649 C668 0.951 . S
H650 C670 0.950 . S
H651 C671 0.950 . S
H652 C673 0.950 . S
H653 C676 0.950 . S
H654 C677 0.950 . S
H655 C679 0.950 . S
H656 C680 0.950 . S
H657 C681 0.951 . S
H658 C683 0.951 . S
H659 C685 0.950 . S
H660 C686 0.950 . S
H661 C688 0.950 . S
H662 C691 0.950 . S
H663 C692 0.950 . S
H664 C694 0.950 . S
H665 C695 0.950 . S
C666 H648 0.951 . S
C666 C667 1.366 . S
C666 C668 1.388 . S
C667 C666 1.366 . S
C667 C671 1.385 . S
C668 H649 0.951 . S
C668 C666 1.388 . S
C668 C669 1.366 . S
C669 C668 1.366 . S
C669 C670 1.414 . S
C669 C672 1.499 . S
C670 H650 0.950 . S
C670 C669 1.414 . S
C670 C671 1.374 . S
C671 H651 0.950 . S
C671 C667 1.385 . S
C671 C670 1.374 . S
C672 C669 1.499 . S
C672 C673 1.373 . S
C672 C674 1.389 . S
C673 H652 0.950 . S
C673 C672 1.373 . S
C673 C689 1.377 . S
C674 C672 1.389 . S
C674 C675 1.524 . S
C674 C688 1.377 . S
C675 C674 1.524 . S
C675 C676 1.397 . S
C675 C680 1.363 . S
C676 H653 0.950 . S
C676 C675 1.397 . S
C676 C677 1.334 . S
C677 H654 0.950 . S
C677 C676 1.334 . S
C677 C678 1.287 . S
C678 C677 1.287 . S
C678 C679 1.524 . S
C678 H697 0.913 . S
C679 H655 0.950 . S
C679 C678 1.524 . S
C679 C680 1.415 . S
C680 H656 0.950 . S
C680 C675 1.363 . S
C680 C679 1.415 . S
C681 H657 0.951 . S
C681 C682 1.366 . S
C681 C683 1.388 . S
C682 C681 1.366 . S
C682 C686 1.385 . S
C683 H658 0.951 . S
C683 C681 1.388 . S
C683 C684 1.366 . S
C684 C683 1.366 . S
C684 C685 1.414 . S
C684 C687 1.499 . S
C685 H659 0.950 . S
C685 C684 1.414 . S
C685 C686 1.374 . S
C686 H660 0.950 . S
C686 C682 1.385 . S
C686 C685 1.374 . S
C687 C684 1.499 . S
C687 C688 1.373 . S
C687 C689 1.389 . S
C688 H661 0.950 . S
C688 C674 1.377 . S
C688 C687 1.373 . S
C689 C673 1.377 . S
C689 C687 1.389 . S
C689 C690 1.524 . S
C690 C689 1.524 . S
C690 C691 1.397 . S
C690 C695 1.363 1_655 S
C691 H662 0.950 . S
C691 C690 1.397 . S
C691 C692 1.334 . S
C692 H663 0.950 . S
C692 C691 1.334 . S
C692 C693 1.287 1_655 S
C693 C692 1.287 1_455 S
C693 C694 1.524 . S
C693 H696 0.999 . S
C694 H664 0.950 . S
C694 C693 1.524 . S
C694 C695 1.415 . S
C695 H665 0.950 . S
C695 C690 1.363 1_455 S
C695 C694 1.415 . S
H696 C693 0.999 . S
H697 C678 0.913 . S
H698 C716 0.951 . S
H699 C718 0.951 . S
H700 C720 0.950 . S
H701 C721 0.950 . S
H702 C723 0.950 . S
H703 C726 0.950 . S
H704 C727 0.950 . S
H705 C729 0.950 . S
H706 C730 0.950 . S
H707 C731 0.951 . S
H708 C733 0.951 . S
H709 C735 0.950 . S
H710 C736 0.950 . S
H711 C738 0.950 . S
H712 C741 0.950 . S
H713 C742 0.950 . S
H714 C744 0.950 . S
H715 C745 0.950 . S
C716 H698 0.951 . S
C716 C717 1.366 . S
C716 C718 1.388 . S
C717 C716 1.366 . S
C717 C721 1.385 . S
C718 H699 0.951 . S
C718 C716 1.388 . S
C718 C719 1.366 . S
C719 C718 1.366 . S
C719 C720 1.414 . S
C719 C722 1.499 . S
C720 H700 0.950 . S
C720 C719 1.414 . S
C720 C721 1.374 . S
C721 H701 0.950 . S
C721 C717 1.385 . S
C721 C720 1.374 . S
C722 C719 1.499 . S
C722 C723 1.373 . S
C722 C724 1.389 . S
C723 H702 0.950 . S
C723 C722 1.373 . S
C723 C739 1.377 . S
C724 C722 1.389 . S
C724 C725 1.524 . S
C724 C738 1.377 . S
C725 C724 1.524 . S
C725 C726 1.397 . S
C725 C730 1.363 . S
C726 H703 0.950 . S
C726 C725 1.397 . S
C726 C727 1.334 . S
C727 H704 0.950 . S
C727 C726 1.334 . S
C727 C728 1.287 . S
C728 C727 1.287 . S
C728 C729 1.524 . S
C728 H747 0.913 . S
C729 H705 0.950 . S
C729 C728 1.524 . S
C729 C730 1.415 . S
C730 H706 0.950 . S
C730 C725 1.363 . S
C730 C729 1.415 . S
C731 H707 0.951 . S
C731 C732 1.366 . S
C731 C733 1.388 . S
C732 C731 1.366 . S
C732 C736 1.385 . S
C733 H708 0.951 . S
C733 C731 1.388 . S
C733 C734 1.366 . S
C734 C733 1.366 . S
C734 C735 1.414 . S
C734 C737 1.499 . S
C735 H709 0.950 . S
C735 C734 1.414 . S
C735 C736 1.374 . S
C736 H710 0.950 . S
C736 C732 1.385 . S
C736 C735 1.374 . S
C737 C734 1.499 . S
C737 C738 1.373 . S
C737 C739 1.389 . S
C738 H711 0.950 . S
C738 C724 1.377 . S
C738 C737 1.373 . S
C739 C723 1.377 . S
C739 C737 1.389 . S
C739 C740 1.524 . S
C740 C739 1.524 . S
C740 C741 1.397 . S
C740 C745 1.363 . S
C741 H712 0.950 . S
C741 C740 1.397 . S
C741 C742 1.334 . S
C742 H713 0.950 . S
C742 C741 1.334 . S
C742 C743 1.287 . S
C743 C742 1.287 . S
C743 C744 1.524 . S
C743 H746 0.999 . S
C744 H714 0.950 . S
C744 C743 1.524 . S
C744 C745 1.415 . S
C745 H715 0.950 . S
C745 C740 1.363 . S
C745 C744 1.415 . S
H746 C743 0.999 . S
H747 C728 0.913 . S
H748 C766 0.951 . S
H749 C768 0.951 . S
H750 C770 0.950 . S
H751 C771 0.950 . S
H752 C773 0.950 . S
H753 C776 0.950 1_455 S
H754 C777 0.950 1_455 S
H755 C779 0.950 . S
H756 C780 0.950 . S
H757 C781 0.951 . S
H758 C783 0.951 . S
H759 C785 0.950 . S
H760 C786 0.950 . S
H761 C788 0.950 . S
H762 C791 0.950 . S
H763 C792 0.950 . S
H764 C794 0.950 . S
H765 C795 0.950 . S
C766 H748 0.951 . S
C766 C767 1.366 . S
C766 C768 1.388 . S
C767 C766 1.366 . S
C767 C771 1.385 . S
C768 H749 0.951 . S
C768 C766 1.388 . S
C768 C769 1.366 . S
C769 C768 1.366 . S
C769 C770 1.414 . S
C769 C772 1.499 . S
C770 H750 0.950 . S
C770 C769 1.414 . S
C770 C771 1.374 . S
C771 H751 0.950 . S
C771 C767 1.385 . S
C771 C770 1.374 . S
C772 C769 1.499 . S
C772 C773 1.373 . S
C772 C774 1.389 . S
C773 H752 0.950 . S
C773 C772 1.373 . S
C773 C789 1.377 . S
C774 C772 1.389 . S
C774 C775 1.524 . S
C774 C788 1.377 . S
C775 C774 1.524 . S
C775 C776 1.397 . S
C775 C780 1.363 . S
C776 H753 0.950 1_655 S
C776 C775 1.397 . S
C776 C777 1.334 . S
C777 H754 0.950 1_655 S
C777 C776 1.334 . S
C777 C778 1.287 . S
C778 C777 1.287 . S
C778 C779 1.524 . S
C778 H797 0.913 . S
C779 H755 0.950 . S
C779 C778 1.524 . S
C779 C780 1.415 . S
C780 H756 0.950 . S
C780 C775 1.363 . S
C780 C779 1.415 . S
C781 H757 0.951 . S
C781 C782 1.366 . S
C781 C783 1.388 . S
C782 C781 1.366 . S
C782 C786 1.385 . S
C783 H758 0.951 . S
C783 C781 1.388 . S
C783 C784 1.366 . S
C784 C783 1.366 . S
C784 C785 1.414 . S
C784 C787 1.499 . S
C785 H759 0.950 . S
C785 C784 1.414 . S
C785 C786 1.374 . S
C786 H760 0.950 . S
C786 C782 1.385 . S
C786 C785 1.374 . S
C787 C784 1.499 . S
C787 C788 1.373 . S
C787 C789 1.389 . S
C788 H761 0.950 . S
C788 C774 1.377 . S
C788 C787 1.373 . S
C789 C773 1.377 . S
C789 C787 1.389 . S
C789 C790 1.524 . S
C790 C789 1.524 . S
C790 C791 1.397 . S
C790 C795 1.363 . S
C791 H762 0.950 . S
C791 C790 1.397 . S
C791 C792 1.334 . S
C792 H763 0.950 . S
C792 C791 1.334 . S
C792 C793 1.287 . S
C793 C792 1.287 . S
C793 C794 1.524 . S
C793 H796 0.999 . S
C794 H764 0.950 . S
C794 C793 1.524 . S
C794 C795 1.415 . S
C795 H765 0.950 . S
C795 C790 1.363 . S
C795 C794 1.415 . S
H796 C793 0.999 . S
H797 C778 0.913 . S
H798 C816 0.951 . S
H799 C818 0.951 . S
H800 C820 0.950 . S
H801 C821 0.950 . S
H802 C823 0.950 . S
H803 C826 0.950 . S
H804 C827 0.950 . S
H805 C829 0.950 . S
H806 C830 0.950 . S
H807 C831 0.951 . S
H808 C833 0.951 . S
H809 C835 0.950 . S
H810 C836 0.950 . S
H811 C838 0.950 . S
H812 C841 0.950 . S
H813 C842 0.950 . S
H814 C844 0.950 1_455 S
H815 C845 0.950 . S
C816 H798 0.951 . S
C816 C817 1.366 . S
C816 C818 1.388 . S
C817 C816 1.366 . S
C817 C821 1.385 . S
C818 H799 0.951 . S
C818 C816 1.388 . S
C818 C819 1.366 . S
C819 C818 1.366 . S
C819 C820 1.414 . S
C819 C822 1.499 . S
C820 H800 0.950 . S
C820 C819 1.414 . S
C820 C821 1.374 . S
C821 H801 0.950 . S
C821 C817 1.385 . S
C821 C820 1.374 . S
C822 C819 1.499 . S
C822 C823 1.373 . S
C822 C824 1.389 . S
C823 H802 0.950 . S
C823 C822 1.373 . S
C823 C839 1.377 . S
C824 C822 1.389 . S
C824 C825 1.524 . S
C824 C838 1.377 . S
C825 C824 1.524 . S
C825 C826 1.397 . S
C825 C830 1.363 . S
C826 H803 0.950 . S
C826 C825 1.397 . S
C826 C827 1.334 . S
C827 H804 0.950 . S
C827 C826 1.334 . S
C827 C828 1.287 . S
C828 C827 1.287 . S
C828 C829 1.524 . S
C828 H847 0.913 . S
C829 H805 0.950 . S
C829 C828 1.524 . S
C829 C830 1.415 . S
C830 H806 0.950 . S
C830 C825 1.363 . S
C830 C829 1.415 . S
C831 H807 0.951 . S
C831 C832 1.366 . S
C831 C833 1.388 . S
C832 C831 1.366 . S
C832 C836 1.385 . S
C833 H808 0.951 . S
C833 C831 1.388 . S
C833 C834 1.366 . S
C834 C833 1.366 . S
C834 C835 1.414 . S
C834 C837 1.499 . S
C835 H809 0.950 . S
C835 C834 1.414 . S
C835 C836 1.374 . S
C836 H810 0.950 . S
C836 C832 1.385 . S
C836 C835 1.374 . S
C837 C834 1.499 . S
C837 C838 1.373 . S
C837 C839 1.389 . S
C838 H811 0.950 . S
C838 C824 1.377 . S
C838 C837 1.373 . S
C839 C823 1.377 . S
C839 C837 1.389 . S
C839 C840 1.524 . S
C840 C839 1.524 . S
C840 C841 1.397 . S
C840 C845 1.363 . S
C841 H812 0.950 . S
C841 C840 1.397 . S
C841 C842 1.334 . S
C842 H813 0.950 . S
C842 C841 1.334 . S
C842 C843 1.287 . S
C843 C842 1.287 . S
C843 C844 1.524 . S
C843 H846 0.999 . S
C844 H814 0.950 1_655 S
C844 C843 1.524 . S
C844 C845 1.415 . S
C845 H815 0.950 . S
C845 C840 1.363 . S
C845 C844 1.415 . S
H846 C843 0.999 . S
H847 C828 0.913 . S
H848 C866 0.951 . S
H849 C868 0.951 . S
H850 C870 0.950 . S
H851 C871 0.950 . S
H852 C873 0.950 . S
H853 C876 0.950 . S
H854 C877 0.950 . S
H855 C879 0.950 . S
H856 C880 0.950 . S
H857 C881 0.951 . S
H858 C883 0.951 . S
H859 C885 0.950 . S
H860 C886 0.950 . S
H861 C888 0.950 . S
H862 C891 0.950 . S
H863 C892 0.950 . S
H864 C894 0.950 . S
H865 C895 0.950 . S
C866 H848 0.951 . S
C866 C867 1.366 . S
C866 C868 1.388 . S
C867 C866 1.366 . S
C867 C871 1.385 . S
C868 H849 0.951 . S
C868 C866 1.388 . S
C868 C869 1.366 . S
C869 C868 1.366 . S
C869 C870 1.414 . S
C869 C872 1.499 . S
C870 H850 0.950 . S
C870 C869 1.414 . S
C870 C871 1.374 . S
C871 H851 0.950 . S
C871 C867 1.385 . S
C871 C870 1.374 . S
C872 C869 1.499 . S
C872 C873 1.373 . S
C872 C874 1.389 . S
C873 H852 0.950 . S
C873 C872 1.373 . S
C873 C889 1.377 . S
C874 C872 1.389 . S
C874 C875 1.524 . S
C874 C888 1.377 . S
C875 C874 1.524 . S
C875 C876 1.397 . S
C875 C880 1.363 . S
C876 H853 0.950 . S
C876 C875 1.397 . S
C876 C877 1.334 . S
C877 H854 0.950 . S
C877 C876 1.334 . S
C877 C878 1.287 . S
C878 C877 1.287 . S
C878 C879 1.524 . S
C878 H897 0.913 . S
C879 H855 0.950 . S
C879 C878 1.524 . S
C879 C880 1.415 . S
C880 H856 0.950 . S
C880 C875 1.363 . S
C880 C879 1.415 . S
C881 H857 0.951 . S
C881 C882 1.366 . S
C881 C883 1.388 . S
C882 C881 1.366 . S
C882 C886 1.385 . S
C883 H858 0.951 . S
C883 C881 1.388 . S
C883 C884 1.366 . S
C884 C883 1.366 . S
C884 C885 1.414 . S
C884 C887 1.499 . S
C885 H859 0.950 . S
C885 C884 1.414 . S
C885 C886 1.374 . S
C886 H860 0.950 . S
C886 C882 1.385 . S
C886 C885 1.374 . S
C887 C884 1.499 . S
C887 C888 1.373 . S
C887 C889 1.389 . S
C888 H861 0.950 . S
C888 C874 1.377 . S
C888 C887 1.373 . S
C889 C873 1.377 . S
C889 C887 1.389 . S
C889 C890 1.524 . S
C890 C889 1.524 . S
C890 C891 1.397 . S
C890 C895 1.363 . S
C891 H862 0.950 . S
C891 C890 1.397 . S
C891 C892 1.334 . S
C892 H863 0.950 . S
C892 C891 1.334 . S
C892 C893 1.287 . S
C893 C892 1.287 . S
C893 C894 1.524 . S
C893 H896 0.999 . S
C894 H864 0.950 . S
C894 C893 1.524 . S
C894 C895 1.415 . S
C895 H865 0.950 . S
C895 C890 1.363 . S
C895 C894 1.415 . S
H896 C893 0.999 . S
H897 C878 0.913 . S
H898 C916 0.951 . S
H899 C918 0.951 . S
H900 C920 0.950 . S
H901 C921 0.950 . S
H902 C923 0.950 . S
H903 C926 0.950 . S
H904 C927 0.950 . S
H905 C929 0.950 . S
H906 C930 0.950 . S
H907 C931 0.951 . S
H908 C933 0.951 . S
H909 C935 0.950 . S
H910 C936 0.950 . S
H911 C938 0.950 . S
H912 C941 0.950 . S
H913 C942 0.950 . S
H914 C944 0.950 . S
H915 C945 0.950 . S
C916 H898 0.951 . S
C916 C917 1.366 . S
C916 C918 1.388 . S
C917 C916 1.366 . S
C917 C921 1.385 . S
C918 H899 0.951 . S
C918 C916 1.388 . S
C918 C919 1.366 . S
C919 C918 1.366 . S
C919 C920 1.414 . S
C919 C922 1.499 . S
C920 H900 0.950 . S
C920 C919 1.414 . S
C920 C921 1.374 . S
C921 H901 0.950 . S
C921 C917 1.385 . S
C921 C920 1.374 . S
C922 C919 1.499 . S
C922 C923 1.373 . S
C922 C924 1.389 . S
C923 H902 0.950 . S
C923 C922 1.373 . S
C923 C939 1.377 . S
C924 C922 1.389 . S
C924 C925 1.524 . S
C924 C938 1.377 . S
C925 C924 1.524 . S
C925 C926 1.397 . S
C925 C930 1.363 . S
C926 H903 0.950 . S
C926 C925 1.397 . S
C926 C927 1.334 . S
C927 H904 0.950 . S
C927 C926 1.334 . S
C927 C928 1.287 . S
C928 C927 1.287 . S
C928 C929 1.524 . S
C928 H947 0.913 . S
C929 H905 0.950 . S
C929 C928 1.524 . S
C929 C930 1.415 . S
C930 H906 0.950 . S
C930 C925 1.363 . S
C930 C929 1.415 . S
C931 H907 0.951 . S
C931 C932 1.366 . S
C931 C933 1.388 . S
C932 C931 1.366 . S
C932 C936 1.385 . S
C933 H908 0.951 . S
C933 C931 1.388 . S
C933 C934 1.366 . S
C934 C933 1.366 . S
C934 C935 1.414 . S
C934 C937 1.499 . S
C935 H909 0.950 . S
C935 C934 1.414 . S
C935 C936 1.374 . S
C936 H910 0.950 . S
C936 C932 1.385 . S
C936 C935 1.374 . S
C937 C934 1.499 . S
C937 C938 1.373 . S
C937 C939 1.389 . S
C938 H911 0.950 . S
C938 C924 1.377 . S
C938 C937 1.373 . S
C939 C923 1.377 . S
C939 C937 1.389 . S
C939 C940 1.524 . S
C940 C939 1.524 . S
C940 C941 1.397 . S
C940 C945 1.363 . S
C941 H912 0.950 . S
C941 C940 1.397 . S
C941 C942 1.334 . S
C942 H913 0.950 . S
C942 C941 1.334 . S
C942 C943 1.287 . S
C943 C942 1.287 . S
C943 C944 1.524 . S
C943 H946 0.999 . S
C944 H914 0.950 . S
C944 C943 1.524 . S
C944 C945 1.415 . S
C945 H915 0.950 . S
C945 C940 1.363 . S
C945 C944 1.415 . S
H946 C943 0.999 . S
H947 C928 0.913 . S
H948 C966 0.951 . S
H949 C968 0.951 . S
H950 C970 0.950 . S
H951 C971 0.950 . S
H952 C973 0.950 . S
H953 C976 0.950 . S
H954 C977 0.950 . S
H955 C979 0.950 . S
H956 C980 0.950 . S
H957 C981 0.951 . S
H958 C983 0.951 . S
H959 C985 0.950 . S
H960 C986 0.950 . S
H961 C988 0.950 . S
H962 C991 0.950 . S
H963 C992 0.950 . S
H964 C994 0.950 . S
H965 C995 0.950 . S
C966 H948 0.951 . S
C966 C967 1.366 . S
C966 C968 1.388 . S
C967 C966 1.366 . S
C967 C971 1.385 . S
C968 H949 0.951 . S
C968 C966 1.388 . S
C968 C969 1.366 . S
C969 C968 1.366 . S
C969 C970 1.414 . S
C969 C972 1.499 . S
C970 H950 0.950 . S
C970 C969 1.414 . S
C970 C971 1.374 . S
C971 H951 0.950 . S
C971 C967 1.385 . S
C971 C970 1.374 . S
C972 C969 1.499 . S
C972 C973 1.373 . S
C972 C974 1.389 . S
C973 H952 0.950 . S
C973 C972 1.373 . S
C973 C989 1.377 . S
C974 C972 1.389 . S
C974 C975 1.524 . S
C974 C988 1.377 . S
C975 C974 1.524 . S
C975 C976 1.397 . S
C975 C980 1.363 . S
C976 H953 0.950 . S
C976 C975 1.397 . S
C976 C977 1.334 . S
C977 H954 0.950 . S
C977 C976 1.334 . S
C977 C978 1.287 . S
C978 C977 1.287 . S
C978 C979 1.524 . S
C978 H997 0.913 . S
C979 H955 0.950 . S
C979 C978 1.524 . S
C979 C980 1.415 . S
C980 H956 0.950 . S
C980 C975 1.363 . S
C980 C979 1.415 . S
C981 H957 0.951 . S
C981 C982 1.366 . S
C981 C983 1.388 . S
C982 C981 1.366 . S
C982 C986 1.385 . S
C983 H958 0.951 . S
C983 C981 1.388 . S
C983 C984 1.366 . S
C984 C983 1.366 . S
C984 C985 1.414 . S
C984 C987 1.499 . S
C985 H959 0.950 . S
C985 C984 1.414 . S
C985 C986 1.374 . S
C986 H960 0.950 . S
C986 C982 1.385 . S
C986 C985 1.374 . S
C987 C984 1.499 . S
C987 C988 1.373 . S
C987 C989 1.389 . S
C988 H961 0.950 . S
C988 C974 1.377 . S
C988 C987 1.373 . S
C989 C973 1.377 . S
C989 C987 1.389 . S
C989 C990 1.524 . S
C990 C989 1.524 . S
C990 C991 1.397 . S
C990 C995 1.363 . S
C991 H962 0.950 . S
C991 C990 1.397 . S
C991 C992 1.334 . S
C992 H963 0.950 . S
C992 C991 1.334 . S
C992 C993 1.287 . S
C993 C992 1.287 . S
C993 C994 1.524 . S
C993 H996 0.999 . S
C994 H964 0.950 . S
C994 C993 1.524 . S
C994 C995 1.415 . S
C995 H965 0.950 . S
C995 C990 1.363 . S
C995 C994 1.415 . S
H996 C993 0.999 . S
H997 C978 0.913 . S
H998 C1016 0.951 . S
H999 C1018 0.951 . S
H1000 C1020 0.950 . S
H1001 C1021 0.950 . S
H1002 C1023 0.950 . S
H1003 C1026 0.950 . S
H1004 C1027 0.950 . S
H1005 C1029 0.950 . S
H1006 C1030 0.950 . S
H1007 C1031 0.951 . S
H1008 C1033 0.951 . S
H1009 C1035 0.950 . S
H1010 C1036 0.950 . S
H1011 C1038 0.950 . S
H1012 C1041 0.950 . S
H1013 C1042 0.950 . S
H1014 C1044 0.950 . S
H1015 C1045 0.950 . S
C1016 H998 0.951 . S
C1016 C1017 1.366 . S
C1016 C1018 1.388 . S
C1017 C1016 1.366 . S
C1017 C1021 1.385 . S
C1018 H999 0.951 . S
C1018 C1016 1.388 . S
C1018 C1019 1.366 . S
C1019 C1018 1.366 . S
C1019 C1020 1.414 . S
C1019 C1022 1.499 . S
C1020 H1000 0.950 . S
C1020 C1019 1.414 . S
C1020 C1021 1.374 . S
C1021 H1001 0.950 . S
C1021 C1017 1.385 . S
C1021 C1020 1.374 . S
C1022 C1019 1.499 . S
C1022 C1023 1.373 . S
C1022 C1024 1.389 . S
C1023 H1002 0.950 . S
C1023 C1022 1.373 . S
C1023 C1039 1.377 . S
C1024 C1022 1.389 . S
C1024 C1025 1.524 . S
C1024 C1038 1.377 . S
C1025 C1024 1.524 . S
C1025 C1026 1.397 . S
C1025 C1030 1.363 . S
C1026 H1003 0.950 . S
C1026 C1025 1.397 . S
C1026 C1027 1.334 . S
C1027 H1004 0.950 . S
C1027 C1026 1.334 . S
C1027 C1028 1.287 . S
C1028 C1027 1.287 . S
C1028 C1029 1.524 . S
C1028 H1047 0.913 . S
C1029 H1005 0.950 . S
C1029 C1028 1.524 . S
C1029 C1030 1.415 . S
C1030 H1006 0.950 . S
C1030 C1025 1.363 . S
C1030 C1029 1.415 . S
C1031 H1007 0.951 . S
C1031 C1032 1.366 . S
C1031 C1033 1.388 . S
C1032 C1031 1.366 . S
C1032 C1036 1.385 . S
C1033 H1008 0.951 . S
C1033 C1031 1.388 . S
C1033 C1034 1.366 . S
C1034 C1033 1.366 . S
C1034 C1035 1.414 . S
C1034 C1037 1.499 . S
C1035 H1009 0.950 . S
C1035 C1034 1.414 . S
C1035 C1036 1.374 . S
C1036 H1010 0.950 . S
C1036 C1032 1.385 . S
C1036 C1035 1.374 . S
C1037 C1034 1.499 . S
C1037 C1038 1.373 . S
C1037 C1039 1.389 . S
C1038 H1011 0.950 . S
C1038 C1024 1.377 . S
C1038 C1037 1.373 . S
C1039 C1023 1.377 . S
C1039 C1037 1.389 . S
C1039 C1040 1.524 . S
C1040 C1039 1.524 . S
C1040 C1041 1.397 . S
C1040 C1045 1.363 . S
C1041 H1012 0.950 . S
C1041 C1040 1.397 . S
C1041 C1042 1.334 . S
C1042 H1013 0.950 . S
C1042 C1041 1.334 . S
C1042 C1043 1.287 . S
C1043 C1042 1.287 . S
C1043 C1044 1.524 . S
C1043 H1046 0.999 . S
C1044 H1014 0.950 . S
C1044 C1043 1.524 . S
C1044 C1045 1.415 . S
C1045 H1015 0.950 . S
C1045 C1040 1.363 . S
C1045 C1044 1.415 . S
H1046 C1043 0.999 . S
H1047 C1028 0.913 . S
H1048 C1066 0.951 . S
H1049 C1068 0.951 . S
H1050 C1070 0.950 . S
H1051 C1071 0.950 . S
H1052 C1073 0.950 . S
H1053 C1076 0.950 . S
H1054 C1077 0.950 . S
H1055 C1079 0.950 . S
H1056 C1080 0.950 . S
H1057 C1081 0.951 . S
H1058 C1083 0.951 . S
H1059 C1085 0.950 . S
H1060 C1086 0.950 . S
H1061 C1088 0.950 . S
H1062 C1091 0.950 . S
H1063 C1092 0.950 . S
H1064 C1094 0.950 . S
H1065 C1095 0.950 . S
C1066 H1048 0.951 . S
C1066 C1067 1.366 . S
C1066 C1068 1.388 . S
C1067 C1066 1.366 . S
C1067 C1071 1.385 . S
C1068 H1049 0.951 . S
C1068 C1066 1.388 . S
C1068 C1069 1.366 . S
C1069 C1068 1.366 . S
C1069 C1070 1.414 . S
C1069 C1072 1.499 . S
C1070 H1050 0.950 . S
C1070 C1069 1.414 . S
C1070 C1071 1.374 . S
C1071 H1051 0.950 . S
C1071 C1067 1.385 . S
C1071 C1070 1.374 . S
C1072 C1069 1.499 . S
C1072 C1073 1.373 . S
C1072 C1074 1.389 . S
C1073 H1052 0.950 . S
C1073 C1072 1.373 . S
C1073 C1089 1.377 . S
C1074 C1072 1.389 . S
C1074 C1075 1.524 . S
C1074 C1088 1.377 . S
C1075 C1074 1.524 . S
C1075 C1076 1.397 . S
C1075 C1080 1.363 . S
C1076 H1053 0.950 . S
C1076 C1075 1.397 . S
C1076 C1077 1.334 . S
C1077 H1054 0.950 . S
C1077 C1076 1.334 . S
C1077 C1078 1.287 . S
C1078 C1077 1.287 . S
C1078 C1079 1.524 . S
C1078 H1097 0.913 . S
C1079 H1055 0.950 . S
C1079 C1078 1.524 . S
C1079 C1080 1.415 . S
C1080 H1056 0.950 . S
C1080 C1075 1.363 . S
C1080 C1079 1.415 . S
C1081 H1057 0.951 . S
C1081 C1082 1.366 . S
C1081 C1083 1.388 . S
C1082 C1081 1.366 . S
C1082 C1086 1.385 . S
C1083 H1058 0.951 . S
C1083 C1081 1.388 . S
C1083 C1084 1.366 . S
C1084 C1083 1.366 . S
C1084 C1085 1.414 . S
C1084 C1087 1.499 . S
C1085 H1059 0.950 . S
C1085 C1084 1.414 . S
C1085 C1086 1.374 . S
C1086 H1060 0.950 . S
C1086 C1082 1.385 . S
C1086 C1085 1.374 . S
C1087 C1084 1.499 . S
C1087 C1088 1.373 . S
C1087 C1089 1.389 . S
C1088 H1061 0.950 . S
C1088 C1074 1.377 . S
C1088 C1087 1.373 . S
C1089 C1073 1.377 . S
C1089 C1087 1.389 . S
C1089 C1090 1.524 . S
C1090 C1089 1.524 . S
C1090 C1091 1.397 . S
C1090 C1095 1.363 . S
C1091 H1062 0.950 . S
C1091 C1090 1.397 . S
C1091 C1092 1.334 . S
C1092 H1063 0.950 . S
C1092 C1091 1.334 . S
C1092 C1093 1.287 . S
C1093 C1092 1.287 . S
C1093 C1094 1.524 . S
C1093 H1096 0.999 . S
C1094 H1064 0.950 . S
C1094 C1093 1.524 . S
C1094 C1095 1.415 . S
C1095 H1065 0.950 . S
C1095 C1090 1.363 . S
C1095 C1094 1.415 . S
H1096 C1093 0.999 . S
H1097 C1078 0.913 . S
H1098 C1116 0.951 . S
H1099 C1118 0.951 . S
H1100 C1120 0.950 . S
H1101 C1121 0.950 . S
H1102 C1123 0.950 . S
H1103 C1126 0.950 . S
H1104 C1127 0.950 . S
H1105 C1129 0.950 . S
H1106 C1130 0.950 . S
H1107 C1131 0.951 . S
H1108 C1133 0.951 . S
H1109 C1135 0.950 . S
H1110 C1136 0.950 . S
H1111 C1138 0.950 . S
H1112 C1141 0.950 . S
H1113 C1142 0.950 . S
H1114 C1144 0.950 . S
H1115 C1145 0.950 . S
C1116 H1098 0.951 . S
C1116 C1117 1.366 . S
C1116 C1118 1.388 . S
C1117 C1116 1.366 . S
C1117 C1121 1.385 . S
C1118 H1099 0.951 . S
C1118 C1116 1.388 . S
C1118 C1119 1.366 . S
C1119 C1118 1.366 . S
C1119 C1120 1.414 . S
C1119 C1122 1.499 . S
C1120 H1100 0.950 . S
C1120 C1119 1.414 . S
C1120 C1121 1.374 . S
C1121 H1101 0.950 . S
C1121 C1117 1.385 . S
C1121 C1120 1.374 . S
C1122 C1119 1.499 . S
C1122 C1123 1.373 . S
C1122 C1124 1.389 . S
C1123 H1102 0.950 . S
C1123 C1122 1.373 . S
C1123 C1139 1.377 . S
C1124 C1122 1.389 . S
C1124 C1125 1.524 . S
C1124 C1138 1.377 . S
C1125 C1124 1.524 . S
C1125 C1126 1.397 . S
C1125 C1130 1.363 . S
C1126 H1103 0.950 . S
C1126 C1125 1.397 . S
C1126 C1127 1.334 . S
C1127 H1104 0.950 . S
C1127 C1126 1.334 . S
C1127 C1128 1.287 . S
C1128 C1127 1.287 . S
C1128 C1129 1.524 . S
C1128 H1147 0.913 . S
C1129 H1105 0.950 . S
C1129 C1128 1.524 . S
C1129 C1130 1.415 . S
C1130 H1106 0.950 . S
C1130 C1125 1.363 . S
C1130 C1129 1.415 . S
C1131 H1107 0.951 . S
C1131 C1132 1.366 . S
C1131 C1133 1.388 . S
C1132 C1131 1.366 . S
C1132 C1136 1.385 . S
C1133 H1108 0.951 . S
C1133 C1131 1.388 . S
C1133 C1134 1.366 . S
C1134 C1133 1.366 . S
C1134 C1135 1.414 . S
C1134 C1137 1.499 . S
C1135 H1109 0.950 . S
C1135 C1134 1.414 . S
C1135 C1136 1.374 . S
C1136 H1110 0.950 . S
C1136 C1132 1.385 . S
C1136 C1135 1.374 . S
C1137 C1134 1.499 . S
C1137 C1138 1.373 . S
C1137 C1139 1.389 . S
C1138 H1111 0.950 . S
C1138 C1124 1.377 . S
C1138 C1137 1.373 . S
C1139 C1123 1.377 . S
C1139 C1137 1.389 . S
C1139 C1140 1.524 . S
C1140 C1139 1.524 . S
C1140 C1141 1.397 . S
C1140 C1145 1.363 . S
C1141 H1112 0.950 . S
C1141 C1140 1.397 . S
C1141 C1142 1.334 . S
C1142 H1113 0.950 . S
C1142 C1141 1.334 . S
C1142 C1143 1.287 . S
C1143 C1142 1.287 . S
C1143 C1144 1.524 . S
C1143 H1146 0.999 . S
C1144 H1114 0.950 . S
C1144 C1143 1.524 . S
C1144 C1145 1.415 . S
C1145 H1115 0.950 . S
C1145 C1140 1.363 . S
C1145 C1144 1.415 . S
H1146 C1143 0.999 . S
H1147 C1128 0.913 . S
H1148 C1166 0.951 . S
H1149 C1168 0.951 . S
H1150 C1170 0.950 . S
H1151 C1171 0.950 . S
H1152 C1173 0.950 . S
H1153 C1176 0.950 . S
H1154 C1177 0.950 . S
H1155 C1179 0.950 . S
H1156 C1180 0.950 . S
H1157 C1181 0.951 . S
H1158 C1183 0.951 . S
H1159 C1185 0.950 . S
H1160 C1186 0.950 . S
H1161 C1188 0.950 . S
H1162 C1191 0.950 . S
H1163 C1192 0.950 . S
H1164 C1194 0.950 . S
H1165 C1195 0.950 . S
C1166 H1148 0.951 . S
C1166 C1167 1.366 . S
C1166 C1168 1.388 . S
C1167 C1166 1.366 . S
C1167 C1171 1.385 . S
C1168 H1149 0.951 . S
C1168 C1166 1.388 . S
C1168 C1169 1.366 . S
C1169 C1168 1.366 . S
C1169 C1170 1.414 . S
C1169 C1172 1.499 . S
C1170 H1150 0.950 . S
C1170 C1169 1.414 . S
C1170 C1171 1.374 . S
C1171 H1151 0.950 . S
C1171 C1167 1.385 . S
C1171 C1170 1.374 . S
C1172 C1169 1.499 . S
C1172 C1173 1.373 . S
C1172 C1174 1.389 . S
C1173 H1152 0.950 . S
C1173 C1172 1.373 . S
C1173 C1189 1.377 . S
C1174 C1172 1.389 . S
C1174 C1175 1.524 . S
C1174 C1188 1.377 . S
C1175 C1174 1.524 . S
C1175 C1176 1.397 . S
C1175 C1180 1.363 . S
C1176 H1153 0.950 . S
C1176 C1175 1.397 . S
C1176 C1177 1.334 . S
C1177 H1154 0.950 . S
C1177 C1176 1.334 . S
C1177 C1178 1.287 . S
C1178 C1177 1.287 . S
C1178 C1179 1.524 . S
C1178 H1197 0.913 . S
C1179 H1155 0.950 . S
C1179 C1178 1.524 . S
C1179 C1180 1.415 . S
C1180 H1156 0.950 . S
C1180 C1175 1.363 . S
C1180 C1179 1.415 . S
C1181 H1157 0.951 . S
C1181 C1182 1.366 . S
C1181 C1183 1.388 . S
C1182 C1181 1.366 . S
C1182 C1186 1.385 . S
C1183 H1158 0.951 . S
C1183 C1181 1.388 . S
C1183 C1184 1.366 . S
C1184 C1183 1.366 . S
C1184 C1185 1.414 . S
C1184 C1187 1.499 . S
C1185 H1159 0.950 . S
C1185 C1184 1.414 . S
C1185 C1186 1.374 . S
C1186 H1160 0.950 . S
C1186 C1182 1.385 . S
C1186 C1185 1.374 . S
C1187 C1184 1.499 . S
C1187 C1188 1.373 . S
C1187 C1189 1.389 . S
C1188 H1161 0.950 . S
C1188 C1174 1.377 . S
C1188 C1187 1.373 . S
C1189 C1173 1.377 . S
C1189 C1187 1.389 . S
C1189 C1190 1.524 . S
C1190 C1189 1.524 . S
C1190 C1191 1.397 . S
C1190 C1195 1.363 . S
C1191 H1162 0.950 . S
C1191 C1190 1.397 . S
C1191 C1192 1.334 . S
C1192 H1163 0.950 . S
C1192 C1191 1.334 . S
C1192 C1193 1.287 . S
C1193 C1192 1.287 . S
C1193 C1194 1.524 . S
C1193 H1196 0.999 . S
C1194 H1164 0.950 . S
C1194 C1193 1.524 . S
C1194 C1195 1.415 . S
C1195 H1165 0.950 . S
C1195 C1190 1.363 . S
C1195 C1194 1.415 . S
H1196 C1193 0.999 . S
H1197 C1178 0.913 . S
H1198 C1216 0.951 . S
H1199 C1218 0.951 . S
H1200 C1220 0.950 . S
H1201 C1221 0.950 . S
H1202 C1223 0.950 . S
H1203 C1226 0.950 . S
H1204 C1227 0.950 . S
H1205 C1229 0.950 . S
H1206 C1230 0.950 . S
H1207 C1231 0.951 . S
H1208 C1233 0.951 . S
H1209 C1235 0.950 . S
H1210 C1236 0.950 . S
H1211 C1238 0.950 . S
H1212 C1241 0.950 . S
H1213 C1242 0.950 . S
H1214 C1244 0.950 . S
H1215 C1245 0.950 . S
C1216 H1198 0.951 . S
C1216 C1217 1.366 . S
C1216 C1218 1.388 . S
C1217 C1216 1.366 . S
C1217 C1221 1.385 . S
C1218 H1199 0.951 . S
C1218 C1216 1.388 . S
C1218 C1219 1.366 . S
C1219 C1218 1.366 . S
C1219 C1220 1.414 . S
C1219 C1222 1.499 . S
C1220 H1200 0.950 . S
C1220 C1219 1.414 . S
C1220 C1221 1.374 . S
C1221 H1201 0.950 . S
C1221 C1217 1.385 . S
C1221 C1220 1.374 . S
C1222 C1219 1.499 . S
C1222 C1223 1.373 . S
C1222 C1224 1.389 . S
C1223 H1202 0.950 . S
C1223 C1222 1.373 . S
C1223 C1239 1.377 . S
C1224 C1222 1.389 . S
C1224 C1225 1.524 . S
C1224 C1238 1.377 . S
C1225 C1224 1.524 . S
C1225 C1226 1.397 . S
C1225 C1230 1.363 . S
C1226 H1203 0.950 . S
C1226 C1225 1.397 . S
C1226 C1227 1.334 . S
C1227 H1204 0.950 . S
C1227 C1226 1.334 . S
C1227 C1228 1.287 . S
C1228 C1227 1.287 . S
C1228 C1229 1.524 . S
C1228 H1247 0.913 . S
C1229 H1205 0.950 . S
C1229 C1228 1.524 . S
C1229 C1230 1.415 . S
C1230 H1206 0.950 . S
C1230 C1225 1.363 . S
C1230 C1229 1.415 . S
C1231 H1207 0.951 . S
C1231 C1232 1.366 . S
C1231 C1233 1.388 . S
C1232 C1231 1.366 . S
C1232 C1236 1.385 . S
C1233 H1208 0.951 . S
C1233 C1231 1.388 . S
C1233 C1234 1.366 . S
C1234 C1233 1.366 . S
C1234 C1235 1.414 . S
C1234 C1237 1.499 . S
C1235 H1209 0.950 . S
C1235 C1234 1.414 . S
C1235 C1236 1.374 . S
C1236 H1210 0.950 . S
C1236 C1232 1.385 . S
C1236 C1235 1.374 . S
C1237 C1234 1.499 . S
C1237 C1238 1.373 . S
C1237 C1239 1.389 . S
C1238 H1211 0.950 . S
C1238 C1224 1.377 . S
C1238 C1237 1.373 . S
C1239 C1223 1.377 . S
C1239 C1237 1.389 . S
C1239 C1240 1.524 . S
C1240 C1239 1.524 . S
C1240 C1241 1.397 . S
C1240 C1245 1.363 . S
C1241 H1212 0.950 . S
C1241 C1240 1.397 . S
C1241 C1242 1.334 . S
C1242 H1213 0.950 . S
C1242 C1241 1.334 . S
C1242 C1243 1.287 . S
C1243 C1242 1.287 . S
C1243 C1244 1.524 . S
C1243 H1246 0.999 . S
C1244 H1214 0.950 . S
C1244 C1243 1.524 . S
C1244 C1245 1.415 . S
C1245 H1215 0.950 . S
C1245 C1240 1.363 . S
C1245 C1244 1.415 . S
H1246 C1243 0.999 . S
H1247 C1228 0.913 . S
H1248 C1266 0.951 . S
H1249 C1268 0.951 . S
H1250 C1270 0.950 . S
H1251 C1271 0.950 . S
H1252 C1273 0.950 . S
H1253 C1276 0.950 . S
H1254 C1277 0.950 . S
H1255 C1279 0.950 . S
H1256 C1280 0.950 . S
H1257 C1281 0.951 . S
H1258 C1283 0.951 . S
H1259 C1285 0.950 . S
H1260 C1286 0.950 . S
H1261 C1288 0.950 . S
H1262 C1291 0.950 . S
H1263 C1292 0.950 . S
H1264 C1294 0.950 . S
H1265 C1295 0.950 . S
C1266 H1248 0.951 . S
C1266 C1267 1.366 . S
C1266 C1268 1.388 . S
C1267 C1266 1.366 . S
C1267 C1271 1.385 . S
C1268 H1249 0.951 . S
C1268 C1266 1.388 . S
C1268 C1269 1.366 . S
C1269 C1268 1.366 . S
C1269 C1270 1.414 . S
C1269 C1272 1.499 . S
C1270 H1250 0.950 . S
C1270 C1269 1.414 . S
C1270 C1271 1.374 . S
C1271 H1251 0.950 . S
C1271 C1267 1.385 . S
C1271 C1270 1.374 . S
C1272 C1269 1.499 . S
C1272 C1273 1.373 . S
C1272 C1274 1.389 . S
C1273 H1252 0.950 . S
C1273 C1272 1.373 . S
C1273 C1289 1.377 . S
C1274 C1272 1.389 . S
C1274 C1275 1.524 . S
C1274 C1288 1.377 . S
C1275 C1274 1.524 . S
C1275 C1276 1.397 . S
C1275 C1280 1.363 . S
C1276 H1253 0.950 . S
C1276 C1275 1.397 . S
C1276 C1277 1.334 . S
C1277 H1254 0.950 . S
C1277 C1276 1.334 . S
C1277 C1278 1.287 . S
C1278 C1277 1.287 . S
C1278 C1279 1.524 . S
C1278 H1297 0.913 . S
C1279 H1255 0.950 . S
C1279 C1278 1.524 . S
C1279 C1280 1.415 . S
C1280 H1256 0.950 . S
C1280 C1275 1.363 . S
C1280 C1279 1.415 . S
C1281 H1257 0.951 . S
C1281 C1282 1.366 . S
C1281 C1283 1.388 . S
C1282 C1281 1.366 . S
C1282 C1286 1.385 . S
C1283 H1258 0.951 . S
C1283 C1281 1.388 . S
C1283 C1284 1.366 . S
C1284 C1283 1.366 . S
C1284 C1285 1.414 . S
C1284 C1287 1.499 . S
C1285 H1259 0.950 . S
C1285 C1284 1.414 . S
C1285 C1286 1.374 . S
C1286 H1260 0.950 . S
C1286 C1282 1.385 . S
C1286 C1285 1.374 . S
C1287 C1284 1.499 . S
C1287 C1288 1.373 . S
C1287 C1289 1.389 . S
C1288 H1261 0.950 . S
C1288 C1274 1.377 . S
C1288 C1287 1.373 . S
C1289 C1273 1.377 . S
C1289 C1287 1.389 . S
C1289 C1290 1.524 . S
C1290 C1289 1.524 . S
C1290 C1291 1.397 . S
C1290 C1295 1.363 . S
C1291 H1262 0.950 . S
C1291 C1290 1.397 . S
C1291 C1292 1.334 . S
C1292 H1263 0.950 . S
C1292 C1291 1.334 . S
C1292 C1293 1.287 . S
C1293 C1292 1.287 . S
C1293 C1294 1.524 . S
C1293 H1296 0.999 . S
C1294 H1264 0.950 . S
C1294 C1293 1.524 . S
C1294 C1295 1.415 . S
C1295 H1265 0.950 . S
C1295 C1290 1.363 . S
C1295 C1294 1.415 . S
H1296 C1293 0.999 . S
H1297 C1278 0.913 . S
H1298 C1316 0.951 . S
H1299 C1318 0.951 . S
H1300 C1320 0.950 . S
H1301 C1321 0.950 . S
H1302 C1323 0.950 . S
H1303 C1326 0.950 . S
H1304 C1327 0.950 . S
H1305 C1329 0.950 . S
H1306 C1330 0.950 . S
H1307 C1331 0.951 . S
H1308 C1333 0.951 . S
H1309 C1335 0.950 . S
H1310 C1336 0.950 . S
H1311 C1338 0.950 . S
H1312 C1341 0.950 . S
H1313 C1342 0.950 . S
H1314 C1344 0.950 . S
H1315 C1345 0.950 . S
C1316 H1298 0.951 . S
C1316 C1317 1.366 . S
C1316 C1318 1.388 1_455 S
C1317 C1316 1.366 . S
C1317 C1321 1.385 . S
C1318 H1299 0.951 . S
C1318 C1316 1.388 1_655 S
C1318 C1319 1.366 . S
C1319 C1318 1.366 . S
C1319 C1320 1.414 . S
C1319 C1322 1.499 . S
C1320 H1300 0.950 . S
C1320 C1319 1.414 . S
C1320 C1321 1.374 1_655 S
C1321 H1301 0.950 . S
C1321 C1317 1.385 . S
C1321 C1320 1.374 1_455 S
C1322 C1319 1.499 . S
C1322 C1323 1.373 . S
C1322 C1324 1.389 . S
C1323 H1302 0.950 . S
C1323 C1322 1.373 . S
C1323 C1339 1.377 . S
C1324 C1322 1.389 . S
C1324 C1325 1.524 . S
C1324 C1338 1.377 . S
C1325 C1324 1.524 . S
C1325 C1326 1.397 . S
C1325 C1330 1.363 . S
C1326 H1303 0.950 . S
C1326 C1325 1.397 . S
C1326 C1327 1.334 1_655 S
C1327 H1304 0.950 . S
C1327 C1326 1.334 1_455 S
C1327 C1328 1.287 . S
C1328 C1327 1.287 . S
C1328 C1329 1.524 1_455 S
C1328 H1347 0.913 . S
C1329 H1305 0.950 . S
C1329 C1328 1.524 1_655 S
C1329 C1330 1.415 . S
C1330 H1306 0.950 . S
C1330 C1325 1.363 . S
C1330 C1329 1.415 . S
C1331 H1307 0.951 . S
C1331 C1332 1.366 . S
C1331 C1333 1.388 . S
C1332 C1331 1.366 . S
C1332 C1336 1.385 . S
C1333 H1308 0.951 . S
C1333 C1331 1.388 . S
C1333 C1334 1.366 . S
C1334 C1333 1.366 . S
C1334 C1335 1.414 . S
C1334 C1337 1.499 . S
C1335 H1309 0.950 . S
C1335 C1334 1.414 . S
C1335 C1336 1.374 . S
C1336 H1310 0.950 . S
C1336 C1332 1.385 . S
C1336 C1335 1.374 . S
C1337 C1334 1.499 . S
C1337 C1338 1.373 . S
C1337 C1339 1.389 . S
C1338 H1311 0.950 . S
C1338 C1324 1.377 . S
C1338 C1337 1.373 . S
C1339 C1323 1.377 . S
C1339 C1337 1.389 . S
C1339 C1340 1.524 . S
C1340 C1339 1.524 . S
C1340 C1341 1.397 . S
C1340 C1345 1.363 . S
C1341 H1312 0.950 . S
C1341 C1340 1.397 . S
C1341 C1342 1.334 . S
C1342 H1313 0.950 . S
C1342 C1341 1.334 . S
C1342 C1343 1.287 . S
C1343 C1342 1.287 . S
C1343 C1344 1.524 . S
C1343 H1346 0.999 . S
C1344 H1314 0.950 . S
C1344 C1343 1.524 . S
C1344 C1345 1.415 . S
C1345 H1315 0.950 . S
C1345 C1340 1.363 . S
C1345 C1344 1.415 . S
H1346 C1343 0.999 . S
H1347 C1328 0.913 . S
H1348 C1366 0.951 . S
H1349 C1368 0.951 . S
H1350 C1370 0.950 . S
H1351 C1371 0.950 . S
H1352 C1373 0.950 . S
H1353 C1376 0.950 . S
H1354 C1377 0.950 . S
H1355 C1379 0.950 . S
H1356 C1380 0.950 . S
H1357 C1381 0.951 . S
H1358 C1383 0.951 . S
H1359 C1385 0.950 . S
H1360 C1386 0.950 . S
H1361 C1388 0.950 . S
H1362 C1391 0.950 . S
H1363 C1392 0.950 . S
H1364 C1394 0.950 . S
H1365 C1395 0.950 . S
C1366 H1348 0.951 . S
C1366 C1367 1.366 . S
C1366 C1368 1.388 . S
C1367 C1366 1.366 . S
C1367 C1371 1.385 . S
C1368 H1349 0.951 . S
C1368 C1366 1.388 . S
C1368 C1369 1.366 . S
C1369 C1368 1.366 . S
C1369 C1370 1.414 . S
C1369 C1372 1.499 . S
C1370 H1350 0.950 . S
C1370 C1369 1.414 . S
C1370 C1371 1.374 . S
C1371 H1351 0.950 . S
C1371 C1367 1.385 . S
C1371 C1370 1.374 . S
C1372 C1369 1.499 . S
C1372 C1373 1.373 . S
C1372 C1374 1.389 . S
C1373 H1352 0.950 . S
C1373 C1372 1.373 . S
C1373 C1389 1.377 . S
C1374 C1372 1.389 . S
C1374 C1375 1.524 . S
C1374 C1388 1.377 . S
C1375 C1374 1.524 . S
C1375 C1376 1.397 . S
C1375 C1380 1.363 . S
C1376 H1353 0.950 . S
C1376 C1375 1.397 . S
C1376 C1377 1.334 . S
C1377 H1354 0.950 . S
C1377 C1376 1.334 . S
C1377 C1378 1.287 . S
C1378 C1377 1.287 . S
C1378 C1379 1.524 . S
C1378 H1397 0.913 . S
C1379 H1355 0.950 . S
C1379 C1378 1.524 . S
C1379 C1380 1.415 . S
C1380 H1356 0.950 . S
C1380 C1375 1.363 . S
C1380 C1379 1.415 . S
C1381 H1357 0.951 . S
C1381 C1382 1.366 . S
C1381 C1383 1.388 . S
C1382 C1381 1.366 . S
C1382 C1386 1.385 . S
C1383 H1358 0.951 . S
C1383 C1381 1.388 . S
C1383 C1384 1.366 . S
C1384 C1383 1.366 . S
C1384 C1385 1.414 . S
C1384 C1387 1.499 . S
C1385 H1359 0.950 . S
C1385 C1384 1.414 . S
C1385 C1386 1.374 . S
C1386 H1360 0.950 . S
C1386 C1382 1.385 . S
C1386 C1385 1.374 . S
C1387 C1384 1.499 . S
C1387 C1388 1.373 . S
C1387 C1389 1.389 . S
C1388 H1361 0.950 . S
C1388 C1374 1.377 . S
C1388 C1387 1.373 . S
C1389 C1373 1.377 . S
C1389 C1387 1.389 . S
C1389 C1390 1.524 . S
C1390 C1389 1.524 . S
C1390 C1391 1.397 . S
C1390 C1395 1.363 . S
C1391 H1362 0.950 . S
C1391 C1390 1.397 . S
C1391 C1392 1.334 . S
C1392 H1363 0.950 . S
C1392 C1391 1.334 . S
C1392 C1393 1.287 . S
C1393 C1392 1.287 . S
C1393 C1394 1.524 . S
C1393 H1396 0.999 . S
C1394 H1364 0.950 . S
C1394 C1393 1.524 . S
C1394 C1395 1.415 . S
C1395 H1365 0.950 . S
C1395 C1390 1.363 . S
C1395 C1394 1.415 . S
H1396 C1393 0.999 . S
H1397 C1378 0.913 . S
H1398 C1416 0.951 . S
H1399 C1418 0.951 . S
H1400 C1420 0.950 . S
H1401 C1421 0.950 . S
H1402 C1423 0.950 . S
H1403 C1426 0.950 . S
H1404 C1427 0.950 . S
H1405 C1429 0.950 . S
H1406 C1430 0.950 . S
H1407 C1431 0.951 . S
H1408 C1433 0.951 . S
H1409 C1435 0.952 . S
H1410 C1436 0.950 . S
H1411 C1438 0.950 . S
H1412 C1441 0.950 . S
H1413 C1442 0.950 . S
H1414 C1444 0.950 . S
H1415 C1445 0.950 . S
C1416 H1398 0.951 . S
C1416 C1417 1.366 . S
C1416 C1418 1.388 . S
C1417 C1416 1.366 . S
C1417 C1421 1.385 . S
C1418 H1399 0.951 . S
C1418 C1416 1.388 . S
C1418 C1419 1.366 . S
C1419 C1418 1.366 . S
C1419 C1420 1.414 . S
C1419 C1422 1.499 . S
C1420 H1400 0.950 . S
C1420 C1419 1.414 . S
C1420 C1421 1.374 . S
C1421 H1401 0.950 . S
C1421 C1417 1.385 . S
C1421 C1420 1.374 . S
C1422 C1419 1.499 . S
C1422 C1423 1.373 . S
C1422 C1424 1.389 . S
C1423 H1402 0.950 . S
C1423 C1422 1.373 . S
C1423 C1439 1.377 . S
C1424 C1422 1.389 . S
C1424 C1425 1.524 . S
C1424 C1438 1.377 . S
C1425 C1424 1.524 . S
C1425 C1426 1.397 . S
C1425 C1430 1.363 . S
C1426 H1403 0.950 . S
C1426 C1425 1.397 . S
C1426 C1427 1.334 . S
C1427 H1404 0.950 . S
C1427 C1426 1.334 . S
C1427 C1428 1.287 . S
C1428 C1427 1.287 . S
C1428 C1429 1.524 . S
C1428 H1447 0.913 . S
C1429 H1405 0.950 . S
C1429 C1428 1.524 . S
C1429 C1430 1.415 . S
C1430 H1406 0.950 . S
C1430 C1425 1.363 . S
C1430 C1429 1.415 . S
C1431 H1407 0.951 . S
C1431 C1432 1.366 . S
C1431 C1433 1.388 1_455 S
C1432 C1431 1.366 . S
C1432 C1436 1.385 . S
C1433 H1408 0.951 . S
C1433 C1431 1.388 1_655 S
C1433 C1434 1.366 . S
C1434 C1433 1.366 . S
C1434 C1435 1.428 . S
C1434 C1437 1.499 . S
C1435 H1409 0.952 . S
C1435 C1434 1.428 . S
C1435 C1436 1.359 1_655 S
C1436 H1410 0.950 . S
C1436 C1432 1.385 . S
C1436 C1435 1.359 1_455 S
C1437 C1434 1.499 . S
C1437 C1438 1.373 . S
C1437 C1439 1.389 . S
C1438 H1411 0.950 . S
C1438 C1424 1.377 . S
C1438 C1437 1.373 . S
C1439 C1423 1.377 . S
C1439 C1437 1.389 . S
C1439 C1440 1.524 . S
C1440 C1439 1.524 . S
C1440 C1441 1.397 . S
C1440 C1445 1.363 . S
C1441 H1412 0.950 . S
C1441 C1440 1.397 . S
C1441 C1442 1.334 . S
C1442 H1413 0.950 . S
C1442 C1441 1.334 . S
C1442 C1443 1.287 . S
C1443 C1442 1.287 . S
C1443 C1444 1.524 . S
C1443 H1446 0.999 . S
C1444 H1414 0.950 . S
C1444 C1443 1.524 . S
C1444 C1445 1.415 . S
C1445 H1415 0.950 . S
C1445 C1440 1.363 . S
C1445 C1444 1.415 . S
H1446 C1443 0.999 . S
H1447 C1428 0.913 . S
H1448 C1466 0.951 . S
H1449 C1468 0.951 . S
H1450 C1470 0.950 . S
H1451 C1471 0.950 . S
H1452 C1473 0.950 . S
H1453 C1476 0.950 . S
H1454 C1477 0.950 . S
H1455 C1479 0.950 . S
H1456 C1480 0.950 . S
H1457 C1481 0.951 . S
H1458 C1483 0.951 . S
H1459 C1485 0.950 . S
H1460 C1486 0.950 . S
H1461 C1488 0.950 . S
H1462 C1491 0.950 . S
H1463 C1492 0.950 . S
H1464 C1494 0.950 . S
H1465 C1495 0.950 . S
C1466 H1448 0.951 . S
C1466 C1467 1.366 . S
C1466 C1468 1.388 . S
C1467 C1466 1.366 . S
C1467 C1471 1.385 . S
C1468 H1449 0.951 . S
C1468 C1466 1.388 . S
C1468 C1469 1.366 . S
C1469 C1468 1.366 . S
C1469 C1470 1.414 . S
C1469 C1472 1.499 . S
C1470 H1450 0.950 . S
C1470 C1469 1.414 . S
C1470 C1471 1.374 . S
C1471 H1451 0.950 . S
C1471 C1467 1.385 . S
C1471 C1470 1.374 . S
C1472 C1469 1.499 . S
C1472 C1473 1.373 . S
C1472 C1474 1.389 . S
C1473 H1452 0.950 . S
C1473 C1472 1.373 . S
C1473 C1489 1.377 . S
C1474 C1472 1.389 . S
C1474 C1475 1.524 . S
C1474 C1488 1.377 . S
C1475 C1474 1.524 . S
C1475 C1476 1.397 . S
C1475 C1480 1.363 . S
C1476 H1453 0.950 . S
C1476 C1475 1.397 . S
C1476 C1477 1.334 . S
C1477 H1454 0.950 . S
C1477 C1476 1.334 . S
C1477 C1478 1.287 . S
C1478 C1477 1.287 . S
C1478 C1479 1.524 . S
C1478 H1497 0.913 . S
C1479 H1455 0.950 . S
C1479 C1478 1.524 . S
C1479 C1480 1.415 . S
C1480 H1456 0.950 . S
C1480 C1475 1.363 . S
C1480 C1479 1.415 . S
C1481 H1457 0.951 . S
C1481 C1482 1.366 . S
C1481 C1483 1.388 . S
C1482 C1481 1.366 . S
C1482 C1486 1.385 . S
C1483 H1458 0.951 . S
C1483 C1481 1.388 . S
C1483 C1484 1.366 . S
C1484 C1483 1.366 . S
C1484 C1485 1.414 . S
C1484 C1487 1.499 . S
C1485 H1459 0.950 . S
C1485 C1484 1.414 . S
C1485 C1486 1.374 . S
C1486 H1460 0.950 . S
C1486 C1482 1.385 . S
C1486 C1485 1.374 . S
C1487 C1484 1.499 . S
C1487 C1488 1.373 . S
C1487 C1489 1.389 . S
C1488 H1461 0.950 . S
C1488 C1474 1.377 . S
C1488 C1487 1.373 . S
C1489 C1473 1.377 . S
C1489 C1487 1.389 . S
C1489 C1490 1.524 . S
C1490 C1489 1.524 . S
C1490 C1491 1.397 . S
C1490 C1495 1.363 . S
C1491 H1462 0.950 . S
C1491 C1490 1.397 . S
C1491 C1492 1.334 . S
C1492 H1463 0.950 . S
C1492 C1491 1.334 . S
C1492 C1493 1.287 . S
C1493 C1492 1.287 . S
C1493 C1494 1.524 . S
C1493 H1496 0.999 . S
C1494 H1464 0.950 . S
C1494 C1493 1.524 . S
C1494 C1495 1.415 . S
C1495 H1465 0.950 . S
C1495 C1490 1.363 . S
C1495 C1494 1.415 . S
H1496 C1493 0.999 . S
H1497 C1478 0.913 . S
H1498 C1516 0.951 . S
H1499 C1518 0.951 . S
H1500 C1520 0.950 . S
H1501 C1521 0.950 . S
H1502 C1523 0.950 . S
H1503 C1526 0.950 . S
H1504 C1527 0.950 . S
H1505 C1529 0.950 . S
H1506 C1530 0.950 . S
H1507 C1531 0.951 . S
H1508 C1533 0.951 . S
H1509 C1535 0.950 . S
H1510 C1536 0.950 . S
H1511 C1538 0.950 . S
H1512 C1541 0.950 . S
H1513 C1542 0.950 . S
H1514 C1544 0.950 . S
H1515 C1545 0.950 . S
C1516 H1498 0.951 . S
C1516 C1517 1.366 . S
C1516 C1518 1.388 1_655 S
C1517 C1516 1.366 . S
C1517 C1521 1.385 . S
C1518 H1499 0.951 . S
C1518 C1516 1.388 1_455 S
C1518 C1519 1.366 . S
C1519 C1518 1.366 . S
C1519 C1520 1.414 . S
C1519 C1522 1.499 . S
C1520 H1500 0.950 . S
C1520 C1519 1.414 . S
C1520 C1521 1.374 1_455 S
C1521 H1501 0.950 . S
C1521 C1517 1.385 . S
C1521 C1520 1.374 1_655 S
C1522 C1519 1.499 . S
C1522 C1523 1.373 . S
C1522 C1524 1.389 . S
C1523 H1502 0.950 . S
C1523 C1522 1.373 . S
C1523 C1539 1.377 . S
C1524 C1522 1.389 . S
C1524 C1525 1.524 . S
C1524 C1538 1.377 . S
C1525 C1524 1.524 . S
C1525 C1526 1.397 . S
C1525 C1530 1.363 . S
C1526 H1503 0.950 . S
C1526 C1525 1.397 . S
C1526 C1527 1.334 1_455 S
C1527 H1504 0.950 . S
C1527 C1526 1.334 1_655 S
C1527 C1528 1.287 . S
C1528 C1527 1.287 . S
C1528 C1529 1.524 1_655 S
C1528 H1547 0.913 . S
C1529 H1505 0.950 . S
C1529 C1528 1.524 1_455 S
C1529 C1530 1.415 . S
C1530 H1506 0.950 . S
C1530 C1525 1.363 . S
C1530 C1529 1.415 . S
C1531 H1507 0.951 . S
C1531 C1532 1.366 . S
C1531 C1533 1.388 . S
C1532 C1531 1.366 . S
C1532 C1536 1.385 . S
C1533 H1508 0.951 . S
C1533 C1531 1.388 . S
C1533 C1534 1.366 . S
C1534 C1533 1.366 . S
C1534 C1535 1.414 . S
C1534 C1537 1.499 . S
C1535 H1509 0.950 . S
C1535 C1534 1.414 . S
C1535 C1536 1.374 . S
C1536 H1510 0.950 . S
C1536 C1532 1.385 . S
C1536 C1535 1.374 . S
C1537 C1534 1.499 . S
C1537 C1538 1.373 . S
C1537 C1539 1.389 . S
C1538 H1511 0.950 . S
C1538 C1524 1.377 . S
C1538 C1537 1.373 . S
C1539 C1523 1.377 . S
C1539 C1537 1.389 . S
C1539 C1540 1.524 . S
C1540 C1539 1.524 . S
C1540 C1541 1.397 . S
C1540 C1545 1.363 . S
C1541 H1512 0.950 . S
C1541 C1540 1.397 . S
C1541 C1542 1.334 . S
C1542 H1513 0.950 . S
C1542 C1541 1.334 . S
C1542 C1543 1.287 . S
C1543 C1542 1.287 . S
C1543 C1544 1.524 . S
C1543 H1546 0.999 . S
C1544 H1514 0.950 . S
C1544 C1543 1.524 . S
C1544 C1545 1.415 . S
C1545 H1515 0.950 . S
C1545 C1540 1.363 . S
C1545 C1544 1.415 . S
H1546 C1543 0.999 . S
H1547 C1528 0.913 . S
H1548 C1566 0.951 . S
H1549 C1568 0.951 . S
H1550 C1570 0.950 . S
H1551 C1571 0.950 . S
H1552 C1573 0.950 . S
H1553 C1576 0.950 . S
H1554 C1577 0.950 . S
H1555 C1579 0.950 . S
H1556 C1580 0.950 . S
H1557 C1581 0.951 . S
H1558 C1583 0.951 . S
H1559 C1585 0.950 . S
H1560 C1586 0.950 . S
H1561 C1588 0.950 . S
H1562 C1591 0.950 . S
H1563 C1592 0.950 . S
H1564 C1594 0.950 . S
H1565 C1595 0.950 . S
C1566 H1548 0.951 . S
C1566 C1567 1.366 . S
C1566 C1568 1.388 . S
C1567 C1566 1.366 . S
C1567 C1571 1.385 . S
C1568 H1549 0.951 . S
C1568 C1566 1.388 . S
C1568 C1569 1.366 . S
C1569 C1568 1.366 . S
C1569 C1570 1.414 . S
C1569 C1572 1.499 . S
C1570 H1550 0.950 . S
C1570 C1569 1.414 . S
C1570 C1571 1.374 . S
C1571 H1551 0.950 . S
C1571 C1567 1.385 . S
C1571 C1570 1.374 . S
C1572 C1569 1.499 . S
C1572 C1573 1.373 . S
C1572 C1574 1.389 . S
C1573 H1552 0.950 . S
C1573 C1572 1.373 . S
C1573 C1589 1.377 . S
C1574 C1572 1.389 . S
C1574 C1575 1.524 . S
C1574 C1588 1.377 . S
C1575 C1574 1.524 . S
C1575 C1576 1.397 . S
C1575 C1580 1.363 . S
C1576 H1553 0.950 . S
C1576 C1575 1.397 . S
C1576 C1577 1.334 . S
C1577 H1554 0.950 . S
C1577 C1576 1.334 . S
C1577 C1578 1.287 . S
C1578 C1577 1.287 . S
C1578 C1579 1.524 . S
C1578 H1597 0.913 . S
C1579 H1555 0.950 . S
C1579 C1578 1.524 . S
C1579 C1580 1.415 . S
C1580 H1556 0.950 . S
C1580 C1575 1.363 . S
C1580 C1579 1.415 . S
C1581 H1557 0.951 . S
C1581 C1582 1.366 . S
C1581 C1583 1.388 . S
C1582 C1581 1.366 . S
C1582 C1586 1.385 . S
C1583 H1558 0.951 . S
C1583 C1581 1.388 . S
C1583 C1584 1.366 . S
C1584 C1583 1.366 . S
C1584 C1585 1.414 . S
C1584 C1587 1.499 . S
C1585 H1559 0.950 . S
C1585 C1584 1.414 . S
C1585 C1586 1.374 . S
C1586 H1560 0.950 . S
C1586 C1582 1.385 . S
C1586 C1585 1.374 . S
C1587 C1584 1.499 . S
C1587 C1588 1.373 . S
C1587 C1589 1.389 . S
C1588 H1561 0.950 . S
C1588 C1574 1.377 . S
C1588 C1587 1.373 . S
C1589 C1573 1.377 . S
C1589 C1587 1.389 . S
C1589 C1590 1.524 . S
C1590 C1589 1.524 . S
C1590 C1591 1.397 . S
C1590 C1595 1.363 . S
C1591 H1562 0.950 . S
C1591 C1590 1.397 . S
C1591 C1592 1.334 . S
C1592 H1563 0.950 . S
C1592 C1591 1.334 . S
C1592 C1593 1.287 . S
C1593 C1592 1.287 . S
C1593 C1594 1.524 . S
C1593 H1596 0.999 . S
C1594 H1564 0.950 . S
C1594 C1593 1.524 . S
C1594 C1595 1.415 . S
C1595 H1565 0.950 . S
C1595 C1590 1.363 . S
C1595 C1594 1.415 . S
H1596 C1593 0.999 . S
H1597 C1578 0.913 . S
H1598 C1616 0.951 . S
H1599 C1618 0.951 . S
H1600 C1620 0.954 . S
H1601 C1621 0.950 . S
H1602 C1623 0.950 . S
H1603 C1626 0.950 . S
H1604 C1627 0.950 . S
H1605 C1629 0.950 . S
H1606 C1630 0.950 . S
H1607 C1631 0.951 . S
H1608 C1633 0.951 . S
H1609 C1635 0.950 . S
H1610 C1636 0.950 . S
H1611 C1638 0.950 . S
H1612 C1641 0.950 . S
H1613 C1642 0.950 . S
H1614 C1644 0.950 . S
H1615 C1645 0.950 . S
C1616 H1598 0.951 . S
C1616 C1617 1.366 . S
C1616 C1618 1.388 1_655 S
C1617 C1616 1.366 . S
C1617 C1621 1.385 . S
C1618 H1599 0.951 . S
C1618 C1616 1.388 1_455 S
C1618 C1619 1.366 . S
C1619 C1618 1.366 . S
C1619 C1620 1.434 . S
C1619 C1622 1.499 . S
C1620 H1600 0.954 . S
C1620 C1619 1.434 . S
C1620 C1621 1.351 1_455 S
C1621 H1601 0.950 . S
C1621 C1617 1.385 . S
C1621 C1620 1.351 1_655 S
C1622 C1619 1.499 . S
C1622 C1623 1.373 . S
C1622 C1624 1.389 . S
C1623 H1602 0.950 . S
C1623 C1622 1.373 . S
C1623 C1639 1.377 . S
C1624 C1622 1.389 . S
C1624 C1625 1.524 . S
C1624 C1638 1.377 . S
C1625 C1624 1.524 . S
C1625 C1626 1.397 . S
C1625 C1630 1.363 . S
C1626 H1603 0.950 . S
C1626 C1625 1.397 . S
C1626 C1627 1.334 . S
C1627 H1604 0.950 . S
C1627 C1626 1.334 . S
C1627 C1628 1.287 . S
C1628 C1627 1.287 . S
C1628 C1629 1.524 . S
C1628 H1647 0.913 . S
C1629 H1605 0.950 . S
C1629 C1628 1.524 . S
C1629 C1630 1.415 . S
C1630 H1606 0.950 . S
C1630 C1625 1.363 . S
C1630 C1629 1.415 . S
C1631 H1607 0.951 . S
C1631 C1632 1.366 . S
C1631 C1633 1.388 . S
C1632 C1631 1.366 . S
C1632 C1636 1.385 . S
C1633 H1608 0.951 . S
C1633 C1631 1.388 . S
C1633 C1634 1.366 . S
C1634 C1633 1.366 . S
C1634 C1635 1.414 . S
C1634 C1637 1.499 . S
C1635 H1609 0.950 . S
C1635 C1634 1.414 . S
C1635 C1636 1.374 . S
C1636 H1610 0.950 . S
C1636 C1632 1.385 . S
C1636 C1635 1.374 . S
C1637 C1634 1.499 . S
C1637 C1638 1.373 . S
C1637 C1639 1.389 . S
C1638 H1611 0.950 . S
C1638 C1624 1.377 . S
C1638 C1637 1.373 . S
C1639 C1623 1.377 . S
C1639 C1637 1.389 . S
C1639 C1640 1.524 . S
C1640 C1639 1.524 . S
C1640 C1641 1.397 . S
C1640 C1645 1.363 . S
C1641 H1612 0.950 . S
C1641 C1640 1.397 . S
C1641 C1642 1.334 . S
C1642 H1613 0.950 . S
C1642 C1641 1.334 . S
C1642 C1643 1.287 . S
C1643 C1642 1.287 . S
C1643 C1644 1.524 . S
C1643 H1646 0.999 . S
C1644 H1614 0.950 . S
C1644 C1643 1.524 . S
C1644 C1645 1.415 . S
C1645 H1615 0.950 . S
C1645 C1640 1.363 . S
C1645 C1644 1.415 . S
H1646 C1643 0.999 . S
H1647 C1628 0.913 . S
H1648 C1666 0.951 . S
H1649 C1668 0.951 . S
H1650 C1670 0.950 . S
H1651 C1671 0.950 . S
H1652 C1673 0.950 . S
H1653 C1676 0.950 . S
H1654 C1677 0.950 . S
H1655 C1679 0.950 . S
H1656 C1680 0.950 . S
H1657 C1681 0.951 . S
H1658 C1683 0.951 . S
H1659 C1685 0.950 . S
H1660 C1686 0.950 . S
H1661 C1688 0.950 . S
H1662 C1691 0.950 . S
H1663 C1692 0.950 . S
H1664 C1694 0.950 . S
H1665 C1695 0.950 . S
C1666 H1648 0.951 . S
C1666 C1667 1.366 . S
C1666 C1668 1.388 . S
C1667 C1666 1.366 . S
C1667 C1671 1.385 . S
C1668 H1649 0.951 . S
C1668 C1666 1.388 . S
C1668 C1669 1.366 . S
C1669 C1668 1.366 . S
C1669 C1670 1.414 . S
C1669 C1672 1.499 . S
C1670 H1650 0.950 . S
C1670 C1669 1.414 . S
C1670 C1671 1.374 . S
C1671 H1651 0.950 . S
C1671 C1667 1.385 . S
C1671 C1670 1.374 . S
C1672 C1669 1.499 . S
C1672 C1673 1.373 . S
C1672 C1674 1.389 . S
C1673 H1652 0.950 . S
C1673 C1672 1.373 . S
C1673 C1689 1.377 . S
C1674 C1672 1.389 . S
C1674 C1675 1.524 . S
C1674 C1688 1.377 . S
C1675 C1674 1.524 . S
C1675 C1676 1.397 . S
C1675 C1680 1.363 . S
C1676 H1653 0.950 . S
C1676 C1675 1.397 . S
C1676 C1677 1.334 . S
C1677 H1654 0.950 . S
C1677 C1676 1.334 . S
C1677 C1678 1.287 . S
C1678 C1677 1.287 . S
C1678 C1679 1.524 . S
C1678 H1697 0.913 . S
C1679 H1655 0.950 . S
C1679 C1678 1.524 . S
C1679 C1680 1.415 . S
C1680 H1656 0.950 . S
C1680 C1675 1.363 . S
C1680 C1679 1.415 . S
C1681 H1657 0.951 . S
C1681 C1682 1.366 . S
C1681 C1683 1.388 . S
C1682 C1681 1.366 . S
C1682 C1686 1.385 . S
C1683 H1658 0.951 . S
C1683 C1681 1.388 . S
C1683 C1684 1.366 . S
C1684 C1683 1.366 . S
C1684 C1685 1.414 . S
C1684 C1687 1.499 . S
C1685 H1659 0.950 . S
C1685 C1684 1.414 . S
C1685 C1686 1.374 . S
C1686 H1660 0.950 . S
C1686 C1682 1.385 . S
C1686 C1685 1.374 . S
C1687 C1684 1.499 . S
C1687 C1688 1.373 . S
C1687 C1689 1.389 . S
C1688 H1661 0.950 . S
C1688 C1674 1.377 . S
C1688 C1687 1.373 . S
C1689 C1673 1.377 . S
C1689 C1687 1.389 . S
C1689 C1690 1.524 . S
C1690 C1689 1.524 . S
C1690 C1691 1.397 . S
C1690 C1695 1.363 . S
C1691 H1662 0.950 . S
C1691 C1690 1.397 . S
C1691 C1692 1.334 . S
C1692 H1663 0.950 . S
C1692 C1691 1.334 . S
C1692 C1693 1.287 . S
C1693 C1692 1.287 . S
C1693 C1694 1.524 . S
C1693 H1696 0.999 . S
C1694 H1664 0.950 . S
C1694 C1693 1.524 . S
C1694 C1695 1.415 . S
C1695 H1665 0.950 . S
C1695 C1690 1.363 . S
C1695 C1694 1.415 . S
H1696 C1693 0.999 . S
H1697 C1678 0.913 . S
H1698 C1716 0.951 . S
H1699 C1718 0.951 . S
H1700 C1720 0.950 . S
H1701 C1721 0.950 . S
H1702 C1723 0.950 . S
H1703 C1726 0.950 . S
H1704 C1727 0.950 . S
H1705 C1729 0.950 . S
H1706 C1730 0.950 . S
H1707 C1731 0.951 . S
H1708 C1733 0.951 . S
H1709 C1735 0.950 . S
H1710 C1736 0.950 . S
H1711 C1738 0.950 . S
H1712 C1741 0.950 . S
H1713 C1742 0.950 . S
H1714 C1744 0.950 . S
H1715 C1745 0.950 . S
C1716 H1698 0.951 . S
C1716 C1717 1.366 . S
C1716 C1718 1.388 . S
C1717 C1716 1.366 . S
C1717 C1721 1.385 . S
C1718 H1699 0.951 . S
C1718 C1716 1.388 . S
C1718 C1719 1.366 . S
C1719 C1718 1.366 . S
C1719 C1720 1.414 . S
C1719 C1722 1.499 . S
C1720 H1700 0.950 . S
C1720 C1719 1.414 . S
C1720 C1721 1.374 . S
C1721 H1701 0.950 . S
C1721 C1717 1.385 . S
C1721 C1720 1.374 . S
C1722 C1719 1.499 . S
C1722 C1723 1.373 . S
C1722 C1724 1.389 . S
C1723 H1702 0.950 . S
C1723 C1722 1.373 . S
C1723 C1739 1.377 . S
C1724 C1722 1.389 . S
C1724 C1725 1.524 . S
C1724 C1738 1.377 . S
C1725 C1724 1.524 . S
C1725 C1726 1.397 . S
C1725 C1730 1.363 . S
C1726 H1703 0.950 . S
C1726 C1725 1.397 . S
C1726 C1727 1.334 . S
C1727 H1704 0.950 . S
C1727 C1726 1.334 . S
C1727 C1728 1.287 . S
C1728 C1727 1.287 . S
C1728 C1729 1.524 . S
C1728 H1747 0.913 . S
C1729 H1705 0.950 . S
C1729 C1728 1.524 . S
C1729 C1730 1.415 . S
C1730 H1706 0.950 . S
C1730 C1725 1.363 . S
C1730 C1729 1.415 . S
C1731 H1707 0.951 . S
C1731 C1732 1.366 . S
C1731 C1733 1.388 1_455 S
C1732 C1731 1.366 . S
C1732 C1736 1.385 . S
C1733 H1708 0.951 . S
C1733 C1731 1.388 1_655 S
C1733 C1734 1.366 . S
C1734 C1733 1.366 . S
C1734 C1735 1.414 . S
C1734 C1737 1.499 . S
C1735 H1709 0.950 . S
C1735 C1734 1.414 . S
C1735 C1736 1.374 1_655 S
C1736 H1710 0.950 . S
C1736 C1732 1.385 . S
C1736 C1735 1.374 1_455 S
C1737 C1734 1.499 . S
C1737 C1738 1.373 . S
C1737 C1739 1.389 . S
C1738 H1711 0.950 . S
C1738 C1724 1.377 . S
C1738 C1737 1.373 . S
C1739 C1723 1.377 . S
C1739 C1737 1.389 . S
C1739 C1740 1.524 . S
C1740 C1739 1.524 . S
C1740 C1741 1.397 . S
C1740 C1745 1.363 . S
C1741 H1712 0.950 . S
C1741 C1740 1.397 . S
C1741 C1742 1.334 . S
C1742 H1713 0.950 . S
C1742 C1741 1.334 . S
C1742 C1743 1.287 . S
C1743 C1742 1.287 . S
C1743 C1744 1.524 . S
C1743 H1746 0.999 1_655 S
C1744 H1714 0.950 . S
C1744 C1743 1.524 . S
C1744 C1745 1.415 . S
C1745 H1715 0.950 . S
C1745 C1740 1.363 . S
C1745 C1744 1.415 . S
H1746 C1743 0.999 1_455 S
H1747 C1728 0.913 . S
H1748 C1766 0.951 . S
H1749 C1768 0.951 . S
H1750 C1770 0.950 . S
H1751 C1771 0.950 . S
H1752 C1773 0.950 . S
H1753 C1776 0.950 . S
H1754 C1777 0.950 . S
H1755 C1779 0.950 . S
H1756 C1780 0.950 . S
H1757 C1781 0.951 . S
H1758 C1783 0.951 . S
H1759 C1785 0.950 . S
H1760 C1786 0.950 . S
H1761 C1788 0.950 . S
H1762 C1791 0.950 . S
H1763 C1792 0.950 . S
H1764 C1794 0.950 . S
H1765 C1795 0.950 . S
C1766 H1748 0.951 . S
C1766 C1767 1.366 . S
C1766 C1768 1.388 . S
C1767 C1766 1.366 . S
C1767 C1771 1.385 . S
C1768 H1749 0.951 . S
C1768 C1766 1.388 . S
C1768 C1769 1.366 . S
C1769 C1768 1.366 . S
C1769 C1770 1.414 . S
C1769 C1772 1.499 . S
C1770 H1750 0.950 . S
C1770 C1769 1.414 . S
C1770 C1771 1.374 . S
C1771 H1751 0.950 . S
C1771 C1767 1.385 . S
C1771 C1770 1.374 . S
C1772 C1769 1.499 . S
C1772 C1773 1.373 . S
C1772 C1774 1.389 . S
C1773 H1752 0.950 . S
C1773 C1772 1.373 . S
C1773 C1789 1.377 . S
C1774 C1772 1.389 . S
C1774 C1775 1.524 . S
C1774 C1788 1.377 . S
C1775 C1774 1.524 . S
C1775 C1776 1.397 . S
C1775 C1780 1.363 . S
C1776 H1753 0.950 . S
C1776 C1775 1.397 . S
C1776 C1777 1.334 . S
C1777 H1754 0.950 . S
C1777 C1776 1.334 . S
C1777 C1778 1.287 . S
C1778 C1777 1.287 . S
C1778 C1779 1.524 . S
C1778 H1797 0.913 . S
C1779 H1755 0.950 . S
C1779 C1778 1.524 . S
C1779 C1780 1.415 . S
C1780 H1756 0.950 . S
C1780 C1775 1.363 . S
C1780 C1779 1.415 . S
C1781 H1757 0.951 . S
C1781 C1782 1.366 . S
C1781 C1783 1.388 . S
C1782 C1781 1.366 . S
C1782 C1786 1.385 . S
C1783 H1758 0.951 . S
C1783 C1781 1.388 . S
C1783 C1784 1.366 . S
C1784 C1783 1.366 . S
C1784 C1785 1.414 . S
C1784 C1787 1.499 . S
C1785 H1759 0.950 . S
C1785 C1784 1.414 . S
C1785 C1786 1.374 . S
C1786 H1760 0.950 . S
C1786 C1782 1.385 . S
C1786 C1785 1.374 . S
C1787 C1784 1.499 . S
C1787 C1788 1.373 . S
C1787 C1789 1.389 . S
C1788 H1761 0.950 . S
C1788 C1774 1.377 . S
C1788 C1787 1.373 . S
C1789 C1773 1.377 . S
C1789 C1787 1.389 . S
C1789 C1790 1.524 . S
C1790 C1789 1.524 . S
C1790 C1791 1.397 . S
C1790 C1795 1.363 . S
C1791 H1762 0.950 . S
C1791 C1790 1.397 . S
C1791 C1792 1.334 . S
C1792 H1763 0.950 . S
C1792 C1791 1.334 . S
C1792 C1793 1.287 . S
C1793 C1792 1.287 . S
C1793 C1794 1.524 . S
C1793 H1796 0.999 . S
C1794 H1764 0.950 . S
C1794 C1793 1.524 . S
C1794 C1795 1.415 . S
C1795 H1765 0.950 . S
C1795 C1790 1.363 . S
C1795 C1794 1.415 . S
H1796 C1793 0.999 . S
H1797 C1778 0.913 . S
H1798 C1816 0.951 . S
H1799 C1818 0.951 . S
H1800 C1820 0.950 . S
H1801 C1821 0.950 . S
H1802 C1823 0.950 . S
H1803 C1826 0.950 . S
H1804 C1827 0.950 . S
H1805 C1829 0.950 . S
H1806 C1830 0.950 . S
H1807 C1831 0.951 . S
H1808 C1833 0.951 . S
H1809 C1835 0.951 1_655 S
H1810 C1836 0.950 . S
H1811 C1838 0.950 . S
H1812 C1841 0.950 . S
H1813 C1842 0.950 . S
H1814 C1844 0.950 . S
H1815 C1845 0.950 . S
C1816 H1798 0.951 . S
C1816 C1817 1.366 . S
C1816 C1818 1.388 . S
C1817 C1816 1.366 . S
C1817 C1821 1.385 . S
C1818 H1799 0.951 . S
C1818 C1816 1.388 . S
C1818 C1819 1.366 . S
C1819 C1818 1.366 . S
C1819 C1820 1.414 . S
C1819 C1822 1.499 . S
C1820 H1800 0.950 . S
C1820 C1819 1.414 . S
C1820 C1821 1.374 . S
C1821 H1801 0.950 . S
C1821 C1817 1.385 . S
C1821 C1820 1.374 . S
C1822 C1819 1.499 . S
C1822 C1823 1.373 . S
C1822 C1824 1.389 . S
C1823 H1802 0.950 . S
C1823 C1822 1.373 . S
C1823 C1839 1.377 . S
C1824 C1822 1.389 . S
C1824 C1825 1.524 . S
C1824 C1838 1.377 . S
C1825 C1824 1.524 . S
C1825 C1826 1.397 . S
C1825 C1830 1.363 . S
C1826 H1803 0.950 . S
C1826 C1825 1.397 . S
C1826 C1827 1.334 . S
C1827 H1804 0.950 . S
C1827 C1826 1.334 . S
C1827 C1828 1.287 . S
C1828 C1827 1.287 . S
C1828 C1829 1.524 . S
C1828 H1847 0.913 . S
C1829 H1805 0.950 . S
C1829 C1828 1.524 . S
C1829 C1830 1.415 . S
C1830 H1806 0.950 . S
C1830 C1825 1.363 . S
C1830 C1829 1.415 . S
C1831 H1807 0.951 . S
C1831 C1832 1.366 . S
C1831 C1833 1.388 1_455 S
C1832 C1831 1.366 . S
C1832 C1836 1.385 . S
C1833 H1808 0.951 . S
C1833 C1831 1.388 1_655 S
C1833 C1834 1.366 . S
C1834 C1833 1.366 . S
C1834 C1835 1.416 1_655 S
C1834 C1837 1.499 . S
C1835 H1809 0.951 1_455 S
C1835 C1834 1.416 1_455 S
C1835 C1836 1.371 . S
C1836 H1810 0.950 . S
C1836 C1832 1.385 . S
C1836 C1835 1.371 . S
C1837 C1834 1.499 . S
C1837 C1838 1.373 . S
C1837 C1839 1.389 . S
C1838 H1811 0.950 . S
C1838 C1824 1.377 . S
C1838 C1837 1.373 . S
C1839 C1823 1.377 . S
C1839 C1837 1.389 . S
C1839 C1840 1.524 . S
C1840 C1839 1.524 . S
C1840 C1841 1.397 . S
C1840 C1845 1.363 . S
C1841 H1812 0.950 . S
C1841 C1840 1.397 . S
C1841 C1842 1.334 . S
C1842 H1813 0.950 . S
C1842 C1841 1.334 . S
C1842 C1843 1.287 . S
C1843 C1842 1.287 . S
C1843 C1844 1.524 . S
C1843 H1846 0.999 . S
C1844 H1814 0.950 . S
C1844 C1843 1.524 . S
C1844 C1845 1.415 . S
C1845 H1815 0.950 . S
C1845 C1840 1.363 . S
C1845 C1844 1.415 . S
H1846 C1843 0.999 . S
H1847 C1828 0.913 . S
H1848 C1866 0.951 . S
H1849 C1868 0.951 . S
H1850 C1870 0.950 . S
H1851 C1871 0.950 . S
H1852 C1873 0.950 . S
H1853 C1876 0.950 . S
H1854 C1877 0.950 . S
H1855 C1879 0.950 . S
H1856 C1880 0.950 . S
H1857 C1881 0.951 . S
H1858 C1883 0.951 . S
H1859 C1885 0.950 . S
H1860 C1886 0.950 . S
H1861 C1888 0.950 . S
H1862 C1891 0.950 . S
H1863 C1892 0.950 . S
H1864 C1894 0.950 . S
H1865 C1895 0.950 . S
C1866 H1848 0.951 . S
C1866 C1867 1.366 . S
C1866 C1868 1.388 . S
C1867 C1866 1.366 . S
C1867 C1871 1.385 . S
C1868 H1849 0.951 . S
C1868 C1866 1.388 . S
C1868 C1869 1.366 . S
C1869 C1868 1.366 . S
C1869 C1870 1.414 . S
C1869 C1872 1.499 . S
C1870 H1850 0.950 . S
C1870 C1869 1.414 . S
C1870 C1871 1.374 . S
C1871 H1851 0.950 . S
C1871 C1867 1.385 . S
C1871 C1870 1.374 . S
C1872 C1869 1.499 . S
C1872 C1873 1.373 . S
C1872 C1874 1.389 . S
C1873 H1852 0.950 . S
C1873 C1872 1.373 . S
C1873 C1889 1.377 . S
C1874 C1872 1.389 . S
C1874 C1875 1.524 . S
C1874 C1888 1.377 . S
C1875 C1874 1.524 . S
C1875 C1876 1.397 . S
C1875 C1880 1.363 . S
C1876 H1853 0.950 . S
C1876 C1875 1.397 . S
C1876 C1877 1.334 . S
C1877 H1854 0.950 . S
C1877 C1876 1.334 . S
C1877 C1878 1.287 . S
C1878 C1877 1.287 . S
C1878 C1879 1.524 . S
C1878 H1897 0.913 . S
C1879 H1855 0.950 . S
C1879 C1878 1.524 . S
C1879 C1880 1.415 . S
C1880 H1856 0.950 . S
C1880 C1875 1.363 . S
C1880 C1879 1.415 . S
C1881 H1857 0.951 . S
C1881 C1882 1.366 . S
C1881 C1883 1.388 . S
C1882 C1881 1.366 . S
C1882 C1886 1.385 . S
C1883 H1858 0.951 . S
C1883 C1881 1.388 . S
C1883 C1884 1.366 . S
C1884 C1883 1.366 . S
C1884 C1885 1.414 . S
C1884 C1887 1.499 . S
C1885 H1859 0.950 . S
C1885 C1884 1.414 . S
C1885 C1886 1.374 . S
C1886 H1860 0.950 . S
C1886 C1882 1.385 . S
C1886 C1885 1.374 . S
C1887 C1884 1.499 . S
C1887 C1888 1.373 . S
C1887 C1889 1.389 . S
C1888 H1861 0.950 . S
C1888 C1874 1.377 . S
C1888 C1887 1.373 . S
C1889 C1873 1.377 . S
C1889 C1887 1.389 . S
C1889 C1890 1.524 . S
C1890 C1889 1.524 . S
C1890 C1891 1.397 . S
C1890 C1895 1.363 . S
C1891 H1862 0.950 . S
C1891 C1890 1.397 . S
C1891 C1892 1.334 . S
C1892 H1863 0.950 . S
C1892 C1891 1.334 . S
C1892 C1893 1.287 . S
C1893 C1892 1.287 . S
C1893 C1894 1.524 . S
C1893 H1896 0.999 . S
C1894 H1864 0.950 . S
C1894 C1893 1.524 . S
C1894 C1895 1.415 . S
C1895 H1865 0.950 . S
C1895 C1890 1.363 . S
C1895 C1894 1.415 . S
H1896 C1893 0.999 . S
H1897 C1878 0.913 . S
H1898 C1916 0.951 . S
H1899 C1918 0.951 . S
H1900 C1920 0.950 . S
H1901 C1921 0.950 . S
H1902 C1923 0.950 . S
H1903 C1926 0.950 . S
H1904 C1927 0.950 . S
H1905 C1929 0.950 . S
H1906 C1930 0.950 . S
H1907 C1931 0.951 . S
H1908 C1933 0.951 . S
H1909 C1935 0.950 . S
H1910 C1936 0.950 . S
H1911 C1938 0.950 . S
H1912 C1941 0.950 . S
H1913 C1942 0.950 . S
H1914 C1944 0.950 . S
H1915 C1945 0.950 . S
C1916 H1898 0.951 . S
C1916 C1917 1.366 . S
C1916 C1918 1.388 . S
C1917 C1916 1.366 . S
C1917 C1921 1.385 . S
C1918 H1899 0.951 . S
C1918 C1916 1.388 . S
C1918 C1919 1.366 . S
C1919 C1918 1.366 . S
C1919 C1920 1.414 . S
C1919 C1922 1.499 . S
C1920 H1900 0.950 . S
C1920 C1919 1.414 . S
C1920 C1921 1.374 . S
C1921 H1901 0.950 . S
C1921 C1917 1.385 . S
C1921 C1920 1.374 . S
C1922 C1919 1.499 . S
C1922 C1923 1.373 . S
C1922 C1924 1.389 . S
C1923 H1902 0.950 . S
C1923 C1922 1.373 . S
C1923 C1939 1.377 . S
C1924 C1922 1.389 . S
C1924 C1925 1.524 . S
C1924 C1938 1.377 . S
C1925 C1924 1.524 . S
C1925 C1926 1.397 . S
C1925 C1930 1.363 . S
C1926 H1903 0.950 . S
C1926 C1925 1.397 . S
C1926 C1927 1.334 . S
C1927 H1904 0.950 . S
C1927 C1926 1.334 . S
C1927 C1928 1.287 . S
C1928 C1927 1.287 . S
C1928 C1929 1.524 . S
C1928 H1947 0.913 . S
C1929 H1905 0.950 . S
C1929 C1928 1.524 . S
C1929 C1930 1.415 . S
C1930 H1906 0.950 . S
C1930 C1925 1.363 . S
C1930 C1929 1.415 . S
C1931 H1907 0.951 . S
C1931 C1932 1.366 . S
C1931 C1933 1.388 1_655 S
C1932 C1931 1.366 . S
C1932 C1936 1.385 . S
C1933 H1908 0.951 . S
C1933 C1931 1.388 1_455 S
C1933 C1934 1.366 . S
C1934 C1933 1.366 . S
C1934 C1935 1.414 . S
C1934 C1937 1.499 . S
C1935 H1909 0.950 . S
C1935 C1934 1.414 . S
C1935 C1936 1.374 1_455 S
C1936 H1910 0.950 . S
C1936 C1932 1.385 . S
C1936 C1935 1.374 1_655 S
C1937 C1934 1.499 . S
C1937 C1938 1.373 . S
C1937 C1939 1.389 . S
C1938 H1911 0.950 . S
C1938 C1924 1.377 . S
C1938 C1937 1.373 . S
C1939 C1923 1.377 . S
C1939 C1937 1.389 . S
C1939 C1940 1.524 . S
C1940 C1939 1.524 . S
C1940 C1941 1.397 . S
C1940 C1945 1.363 . S
C1941 H1912 0.950 . S
C1941 C1940 1.397 . S
C1941 C1942 1.334 . S
C1942 H1913 0.950 . S
C1942 C1941 1.334 . S
C1942 C1943 1.287 . S
C1943 C1942 1.287 . S
C1943 C1944 1.524 . S
C1943 H1946 0.999 . S
C1944 H1914 0.950 . S
C1944 C1943 1.524 . S
C1944 C1945 1.415 . S
C1945 H1915 0.950 . S
C1945 C1940 1.363 . S
C1945 C1944 1.415 . S
H1946 C1943 0.999 . S
H1947 C1928 0.913 . S
H1948 C1966 0.951 . S
H1949 C1968 0.951 . S
H1950 C1970 0.950 . S
H1951 C1971 0.950 . S
H1952 C1973 0.950 . S
H1953 C1976 0.950 . S
H1954 C1977 0.950 . S
H1955 C1979 0.950 . S
H1956 C1980 0.950 . S
H1957 C1981 0.951 . S
H1958 C1983 0.951 . S
H1959 C1985 0.950 . S
H1960 C1986 0.950 . S
H1961 C1988 0.950 . S
H1962 C1991 0.950 . S
H1963 C1992 0.950 . S
H1964 C1994 0.950 . S
H1965 C1995 0.950 . S
C1966 H1948 0.951 . S
C1966 C1967 1.366 . S
C1966 C1968 1.388 . S
C1967 C1966 1.366 . S
C1967 C1971 1.385 . S
C1968 H1949 0.951 . S
C1968 C1966 1.388 . S
C1968 C1969 1.366 . S
C1969 C1968 1.366 . S
C1969 C1970 1.414 . S
C1969 C1972 1.499 . S
C1970 H1950 0.950 . S
C1970 C1969 1.414 . S
C1970 C1971 1.374 . S
C1971 H1951 0.950 . S
C1971 C1967 1.385 . S
C1971 C1970 1.374 . S
C1972 C1969 1.499 . S
C1972 C1973 1.373 . S
C1972 C1974 1.389 . S
C1973 H1952 0.950 . S
C1973 C1972 1.373 . S
C1973 C1989 1.377 . S
C1974 C1972 1.389 . S
C1974 C1975 1.524 . S
C1974 C1988 1.377 . S
C1975 C1974 1.524 . S
C1975 C1976 1.397 . S
C1975 C1980 1.363 . S
C1976 H1953 0.950 . S
C1976 C1975 1.397 . S
C1976 C1977 1.334 . S
C1977 H1954 0.950 . S
C1977 C1976 1.334 . S
C1977 C1978 1.287 . S
C1978 C1977 1.287 . S
C1978 C1979 1.524 . S
C1978 H1997 0.913 . S
C1979 H1955 0.950 . S
C1979 C1978 1.524 . S
C1979 C1980 1.415 . S
C1980 H1956 0.950 . S
C1980 C1975 1.363 . S
C1980 C1979 1.415 . S
C1981 H1957 0.951 . S
C1981 C1982 1.366 . S
C1981 C1983 1.388 . S
C1982 C1981 1.366 . S
C1982 C1986 1.385 . S
C1983 H1958 0.951 . S
C1983 C1981 1.388 . S
C1983 C1984 1.366 . S
C1984 C1983 1.366 . S
C1984 C1985 1.414 . S
C1984 C1987 1.499 . S
C1985 H1959 0.950 . S
C1985 C1984 1.414 . S
C1985 C1986 1.374 . S
C1986 H1960 0.950 . S
C1986 C1982 1.385 . S
C1986 C1985 1.374 . S
C1987 C1984 1.499 . S
C1987 C1988 1.373 . S
C1987 C1989 1.389 . S
C1988 H1961 0.950 . S
C1988 C1974 1.377 . S
C1988 C1987 1.373 . S
C1989 C1973 1.377 . S
C1989 C1987 1.389 . S
C1989 C1990 1.524 . S
C1990 C1989 1.524 . S
C1990 C1991 1.397 . S
C1990 C1995 1.363 . S
C1991 H1962 0.950 . S
C1991 C1990 1.397 . S
C1991 C1992 1.334 . S
C1992 H1963 0.950 . S
C1992 C1991 1.334 . S
C1992 C1993 1.287 . S
C1993 C1992 1.287 . S
C1993 C1994 1.524 . S
C1993 H1996 0.999 . S
C1994 H1964 0.950 . S
C1994 C1993 1.524 . S
C1994 C1995 1.415 . S
C1995 H1965 0.950 . S
C1995 C1990 1.363 . S
C1995 C1994 1.415 . S
H1996 C1993 0.999 . S
H1997 C1978 0.913 . S
H1998 C2016 0.951 . S
H1999 C2018 0.951 . S
H2000 C2020 0.950 . S
H2001 C2021 0.950 . S
H2002 C2023 0.950 . S
H2003 C2026 0.950 . S
H2004 C2027 0.950 1_655 S
H2005 C2029 0.950 . S
H2006 C2030 0.950 . S
H2007 C2031 0.951 . S
H2008 C2033 0.951 . S
H2009 C2035 0.950 . S
H2010 C2036 0.950 . S
H2011 C2038 0.950 . S
H2012 C2041 0.950 . S
H2013 C2042 0.950 . S
H2014 C2044 0.950 . S
H2015 C2045 0.950 . S
C2016 H1998 0.951 . S
C2016 C2017 1.366 . S
C2016 C2018 1.388 1_655 S
C2017 C2016 1.366 . S
C2017 C2021 1.385 . S
C2018 H1999 0.951 . S
C2018 C2016 1.388 1_455 S
C2018 C2019 1.366 . S
C2019 C2018 1.366 . S
C2019 C2020 1.414 . S
C2019 C2022 1.499 . S
C2020 H2000 0.950 . S
C2020 C2019 1.414 . S
C2020 C2021 1.374 1_455 S
C2021 H2001 0.950 . S
C2021 C2017 1.385 . S
C2021 C2020 1.374 1_655 S
C2022 C2019 1.499 . S
C2022 C2023 1.373 . S
C2022 C2024 1.389 . S
C2023 H2002 0.950 . S
C2023 C2022 1.373 . S
C2023 C2039 1.377 . S
C2024 C2022 1.389 . S
C2024 C2025 1.524 . S
C2024 C2038 1.377 . S
C2025 C2024 1.524 . S
C2025 C2026 1.397 . S
C2025 C2030 1.363 . S
C2026 H2003 0.950 . S
C2026 C2025 1.397 . S
C2026 C2027 1.334 . S
C2027 H2004 0.950 1_455 S
C2027 C2026 1.334 . S
C2027 C2028 1.287 . S
C2028 C2027 1.287 . S
C2028 C2029 1.524 . S
C2028 H2047 0.913 1_455 S
C2029 H2005 0.950 . S
C2029 C2028 1.524 . S
C2029 C2030 1.415 . S
C2030 H2006 0.950 . S
C2030 C2025 1.363 . S
C2030 C2029 1.415 . S
C2031 H2007 0.951 . S
C2031 C2032 1.366 . S
C2031 C2033 1.388 . S
C2032 C2031 1.366 . S
C2032 C2036 1.385 . S
C2033 H2008 0.951 . S
C2033 C2031 1.388 . S
C2033 C2034 1.366 . S
C2034 C2033 1.366 . S
C2034 C2035 1.414 . S
C2034 C2037 1.499 . S
C2035 H2009 0.950 . S
C2035 C2034 1.414 . S
C2035 C2036 1.374 . S
C2036 H2010 0.950 . S
C2036 C2032 1.385 . S
C2036 C2035 1.374 . S
C2037 C2034 1.499 . S
C2037 C2038 1.373 . S
C2037 C2039 1.389 . S
C2038 H2011 0.950 . S
C2038 C2024 1.377 . S
C2038 C2037 1.373 . S
C2039 C2023 1.377 . S
C2039 C2037 1.389 . S
C2039 C2040 1.524 . S
C2040 C2039 1.524 . S
C2040 C2041 1.397 . S
C2040 C2045 1.363 . S
C2041 H2012 0.950 . S
C2041 C2040 1.397 . S
C2041 C2042 1.334 . S
C2042 H2013 0.950 . S
C2042 C2041 1.334 . S
C2042 C2043 1.287 . S
C2043 C2042 1.287 . S
C2043 C2044 1.524 . S
C2043 H2046 0.999 . S
C2044 H2014 0.950 . S
C2044 C2043 1.524 . S
C2044 C2045 1.415 . S
C2045 H2015 0.950 . S
C2045 C2040 1.363 . S
C2045 C2044 1.415 . S
H2046 C2043 0.999 . S
H2047 C2028 0.913 1_655 S
H2048 C2066 0.951 1_455 S
H2049 C2068 0.951 . S
H2050 C2070 0.950 . S
H2051 C2071 0.950 . S
H2052 C2073 0.950 . S
H2053 C2076 0.950 1_655 S
H2054 C2077 0.950 . S
H2055 C2079 0.950 . S
H2056 C2080 0.950 . S
H2057 C2081 0.951 1_655 S
H2058 C2083 0.951 . S
H2059 C2085 0.950 . S
H2060 C2086 0.950 . S
H2061 C2088 0.950 . S
H2062 C2091 0.950 1_455 S
H2063 C2092 0.950 . S
H2064 C2094 0.950 . S
H2065 C2095 0.950 . S
C2066 H2048 0.951 1_655 S
C2066 C2067 1.366 . S
C2066 C2068 1.388 1_655 S
C2067 C2066 1.366 . S
C2067 C2071 1.385 . S
C2068 H2049 0.951 . S
C2068 C2066 1.388 1_455 S
C2068 C2069 1.366 1_455 S
C2069 C2068 1.366 1_655 S
C2069 C2070 1.414 . S
C2069 C2072 1.499 . S
C2070 H2050 0.950 . S
C2070 C2069 1.414 . S
C2070 C2071 1.374 . S
C2071 H2051 0.950 . S
C2071 C2067 1.385 . S
C2071 C2070 1.374 . S
C2072 C2069 1.499 . S
C2072 C2073 1.373 . S
C2072 C2074 1.389 1_655 S
C2073 H2052 0.950 . S
C2073 C2072 1.373 . S
C2073 C2089 1.377 . S
C2074 C2072 1.389 1_455 S
C2074 C2075 1.524 . S
C2074 C2088 1.377 . S
C2075 C2074 1.524 . S
C2075 C2076 1.397 . S
C2075 C2080 1.363 . S
C2076 H2053 0.950 1_455 S
C2076 C2075 1.397 . S
C2076 C2077 1.334 . S
C2077 H2054 0.950 . S
C2077 C2076 1.334 . S
C2077 C2078 1.287 . S
C2078 C2077 1.287 . S
C2078 C2079 1.524 . S
C2078 H2097 0.913 . S
C2079 H2055 0.950 . S
C2079 C2078 1.524 . S
C2079 C2080 1.415 . S
C2080 H2056 0.950 . S
C2080 C2075 1.363 . S
C2080 C2079 1.415 . S
C2081 H2057 0.951 1_455 S
C2081 C2082 1.366 . S
C2081 C2083 1.388 1_455 S
C2082 C2081 1.366 . S
C2082 C2086 1.385 . S
C2083 H2058 0.951 . S
C2083 C2081 1.388 1_655 S
C2083 C2084 1.366 1_655 S
C2084 C2083 1.366 1_455 S
C2084 C2085 1.414 . S
C2084 C2087 1.499 . S
C2085 H2059 0.950 . S
C2085 C2084 1.414 . S
C2085 C2086 1.374 . S
C2086 H2060 0.950 . S
C2086 C2082 1.385 . S
C2086 C2085 1.374 . S
C2087 C2084 1.499 . S
C2087 C2088 1.373 . S
C2087 C2089 1.389 1_455 S
C2088 H2061 0.950 . S
C2088 C2074 1.377 . S
C2088 C2087 1.373 . S
C2089 C2073 1.377 . S
C2089 C2087 1.389 1_655 S
C2089 C2090 1.524 . S
C2090 C2089 1.524 . S
C2090 C2091 1.397 . S
C2090 C2095 1.363 . S
C2091 H2062 0.950 1_655 S
C2091 C2090 1.397 . S
C2091 C2092 1.334 . S
C2092 H2063 0.950 . S
C2092 C2091 1.334 . S
C2092 C2093 1.287 . S
C2093 C2092 1.287 . S
C2093 C2094 1.524 . S
C2093 H2096 0.999 . S
C2094 H2064 0.950 . S
C2094 C2093 1.524 . S
C2094 C2095 1.415 . S
C2095 H2065 0.950 . S
C2095 C2090 1.363 . S
C2095 C2094 1.415 . S
H2096 C2093 0.999 . S
H2097 C2078 0.913 . S
H2098 C2116 0.951 . S
H2099 C2118 0.951 . S
H2100 C2120 0.950 . S
H2101 C2121 0.950 . S
H2102 C2123 0.950 . S
H2103 C2126 0.950 . S
H2104 C2127 0.950 . S
H2105 C2129 0.950 . S
H2106 C2130 0.950 1_545 S
H2107 C2131 0.951 . S
H2108 C2133 0.951 . S
H2109 C2135 0.950 . S
H2110 C2136 0.950 . S
H2111 C2138 0.950 . S
H2112 C2141 0.950 . S
H2113 C2142 0.950 . S
H2114 C2144 0.950 . S
H2115 C2145 0.950 . S
C2116 H2098 0.951 . S
C2116 C2117 1.366 . S
C2116 C2118 1.388 . S
C2117 C2116 1.366 . S
C2117 C2121 1.385 . S
C2118 H2099 0.951 . S
C2118 C2116 1.388 . S
C2118 C2119 1.366 . S
C2119 C2118 1.366 . S
C2119 C2120 1.414 . S
C2119 C2122 1.499 . S
C2120 H2100 0.950 . S
C2120 C2119 1.414 . S
C2120 C2121 1.374 . S
C2121 H2101 0.950 . S
C2121 C2117 1.385 . S
C2121 C2120 1.374 . S
C2122 C2119 1.499 . S
C2122 C2123 1.373 . S
C2122 C2124 1.389 . S
C2123 H2102 0.950 . S
C2123 C2122 1.373 . S
C2123 C2139 1.377 1_565 S
C2124 C2122 1.389 . S
C2124 C2125 1.524 . S
C2124 C2138 1.377 1_565 S
C2125 C2124 1.524 . S
C2125 C2126 1.397 . S
C2125 C2130 1.363 . S
C2126 H2103 0.950 . S
C2126 C2125 1.397 . S
C2126 C2127 1.334 . S
C2127 H2104 0.950 . S
C2127 C2126 1.334 . S
C2127 C2128 1.287 . S
C2128 C2127 1.287 . S
C2128 C2129 1.524 . S
C2128 H2147 0.913 . S
C2129 H2105 0.950 . S
C2129 C2128 1.524 . S
C2129 C2130 1.415 . S
C2130 H2106 0.950 1_565 S
C2130 C2125 1.363 . S
C2130 C2129 1.415 . S
C2131 H2107 0.951 . S
C2131 C2132 1.366 . S
C2131 C2133 1.388 . S
C2132 C2131 1.366 . S
C2132 C2136 1.385 . S
C2133 H2108 0.951 . S
C2133 C2131 1.388 . S
C2133 C2134 1.366 . S
C2134 C2133 1.366 . S
C2134 C2135 1.414 . S
C2134 C2137 1.499 . S
C2135 H2109 0.950 . S
C2135 C2134 1.414 . S
C2135 C2136 1.374 . S
C2136 H2110 0.950 . S
C2136 C2132 1.385 . S
C2136 C2135 1.374 . S
C2137 C2134 1.499 . S
C2137 C2138 1.373 . S
C2137 C2139 1.389 . S
C2138 H2111 0.950 . S
C2138 C2124 1.377 1_545 S
C2138 C2137 1.373 . S
C2139 C2123 1.377 1_545 S
C2139 C2137 1.389 . S
C2139 C2140 1.524 . S
C2140 C2139 1.524 . S
C2140 C2141 1.397 . S
C2140 C2145 1.363 . S
C2141 H2112 0.950 . S
C2141 C2140 1.397 . S
C2141 C2142 1.334 . S
C2142 H2113 0.950 . S
C2142 C2141 1.334 . S
C2142 C2143 1.287 . S
C2143 C2142 1.287 . S
C2143 C2144 1.524 . S
C2143 H2146 0.999 . S
C2144 H2114 0.950 . S
C2144 C2143 1.524 . S
C2144 C2145 1.415 . S
C2145 H2115 0.950 . S
C2145 C2140 1.363 . S
C2145 C2144 1.415 . S
H2146 C2143 0.999 . S
H2147 C2128 0.913 . S
H2148 C2166 0.951 . S
H2149 C2168 0.951 . S
H2150 C2170 0.938 1_455 S
H2151 C2171 0.950 1_455 S
H2152 C2173 0.950 . S
H2153 C2176 0.950 . S
H2154 C2177 0.950 . S
H2155 C2179 0.922 1_565 S
H2156 C2180 0.924 1_566 S
H2157 C2181 0.951 . S
H2158 C2183 0.942 1_554 S
H2159 C2185 0.950 . S
H2160 C2186 0.950 1_655 S
H2161 C2188 0.951 . S
H2162 C2191 0.950 . S
H2163 C2192 0.950 . S
H2164 C2194 0.950 . S
H2165 C2195 0.950 1_554 S
C2166 H2148 0.951 . S
C2166 C2167 1.366 . S
C2166 C2168 1.388 . S
C2167 C2166 1.366 . S
C2167 C2171 1.385 . S
C2168 H2149 0.951 . S
C2168 C2166 1.388 . S
C2168 C2169 1.366 . S
C2169 C2168 1.366 . S
C2169 C2170 1.422 . S
C2169 C2172 1.499 . S
C2170 H2150 0.938 1_655 S
C2170 C2169 1.422 . S
C2170 C2171 1.378 . S
C2171 H2151 0.950 1_655 S
C2171 C2167 1.385 . S
C2171 C2170 1.378 . S
C2172 C2169 1.499 . S
C2172 C2173 1.373 1_655 S
C2172 C2174 1.389 . S
C2173 H2152 0.950 . S
C2173 C2172 1.373 1_455 S
C2173 C2189 1.377 1_554 S
C2174 C2172 1.389 . S
C2174 C2175 1.524 . S
C2174 C2188 1.372 1_544 S
C2175 C2174 1.524 . S
C2175 C2176 1.397 . S
C2175 C2180 1.363 . S
C2176 H2153 0.950 . S
C2176 C2175 1.397 . S
C2176 C2177 1.334 . S
C2177 H2154 0.950 . S
C2177 C2176 1.334 . S
C2177 C2178 1.287 . S
C2178 C2177 1.287 . S
C2178 C2179 1.556 . S
C2178 H2197 0.913 . S
C2179 H2155 0.922 1_545 S
C2179 C2178 1.556 . S
C2179 C2180 1.421 . S
C2180 H2156 0.924 1_544 S
C2180 C2175 1.363 . S
C2180 C2179 1.421 . S
C2181 H2157 0.951 . S
C2181 C2182 1.366 . S
C2181 C2183 1.388 . S
C2182 C2181 1.366 . S
C2182 C2186 1.385 . S
C2183 H2158 0.942 1_556 S
C2183 C2181 1.388 . S
C2183 C2184 1.366 . S
C2184 C2183 1.366 . S
C2184 C2185 1.414 1_455 S
C2184 C2187 1.499 . S
C2185 H2159 0.950 . S
C2185 C2184 1.414 1_655 S
C2185 C2186 1.374 1_655 S
C2186 H2160 0.950 1_455 S
C2186 C2182 1.385 . S
C2186 C2185 1.374 1_455 S
C2187 C2184 1.499 . S
C2187 C2188 1.377 1_455 S
C2187 C2189 1.389 1_565 S
C2188 H2161 0.951 . S
C2188 C2174 1.372 1_566 S
C2188 C2187 1.377 1_655 S
C2189 C2173 1.377 1_556 S
C2189 C2187 1.389 1_545 S
C2189 C2190 1.524 . S
C2190 C2189 1.524 . S
C2190 C2191 1.397 1_545 S
C2190 C2195 1.363 . S
C2191 H2162 0.950 . S
C2191 C2190 1.397 1_565 S
C2191 C2192 1.334 . S
C2192 H2163 0.950 . S
C2192 C2191 1.334 . S
C2192 C2193 1.287 1_565 S
C2193 C2192 1.287 1_545 S
C2193 C2194 1.524 . S
C2193 H2196 0.999 . S
C2194 H2164 0.950 . S
C2194 C2193 1.524 . S
C2194 C2195 1.415 . S
C2195 H2165 0.950 1_556 S
C2195 C2190 1.363 . S
C2195 C2194 1.415 . S
H2196 C2193 0.999 . S
H2197 C2178 0.913 . S
H2198 C2216 0.951 . S
H2199 C2218 0.951 . S
H2200 C2220 0.950 . S
H2201 C2221 0.950 . S
H2202 C2223 0.950 . S
H2203 C2226 0.950 . S
H2204 C2227 0.950 . S
H2205 C2229 0.950 . S
H2206 C2230 0.950 . S
H2207 C2231 0.951 . S
H2208 C2233 0.951 . S
H2209 C2235 0.950 . S
H2210 C2236 0.950 . S
H2211 C2238 0.950 . S
H2212 C2241 0.950 . S
H2213 C2242 0.950 . S
H2214 C2244 0.950 . S
H2215 C2245 0.950 . S
C2216 H2198 0.951 . S
C2216 C2217 1.366 . S
C2216 C2218 1.388 . S
C2217 C2216 1.366 . S
C2217 C2221 1.385 . S
C2218 H2199 0.951 . S
C2218 C2216 1.388 . S
C2218 C2219 1.366 . S
C2219 C2218 1.366 . S
C2219 C2220 1.414 . S
C2219 C2222 1.499 . S
C2220 H2200 0.950 . S
C2220 C2219 1.414 . S
C2220 C2221 1.374 . S
C2221 H2201 0.950 . S
C2221 C2217 1.385 . S
C2221 C2220 1.374 . S
C2222 C2219 1.499 . S
C2222 C2223 1.373 . S
C2222 C2224 1.389 1_554 S
C2223 H2202 0.950 . S
C2223 C2222 1.373 . S
C2223 C2239 1.377 . S
C2224 C2222 1.389 1_556 S
C2224 C2225 1.524 . S
C2224 C2238 1.377 . S
C2225 C2224 1.524 . S
C2225 C2226 1.397 . S
C2225 C2230 1.363 . S
C2226 H2203 0.950 . S
C2226 C2225 1.397 . S
C2226 C2227 1.334 . S
C2227 H2204 0.950 . S
C2227 C2226 1.334 . S
C2227 C2228 1.287 . S
C2228 C2227 1.287 . S
C2228 C2229 1.524 . S
C2228 H2247 0.913 . S
C2229 H2205 0.950 . S
C2229 C2228 1.524 . S
C2229 C2230 1.415 . S
C2230 H2206 0.950 . S
C2230 C2225 1.363 . S
C2230 C2229 1.415 . S
C2231 H2207 0.951 . S
C2231 C2232 1.366 . S
C2231 C2233 1.388 . S
C2232 C2231 1.366 . S
C2232 C2236 1.385 . S
C2233 H2208 0.951 . S
C2233 C2231 1.388 . S
C2233 C2234 1.366 . S
C2234 C2233 1.366 . S
C2234 C2235 1.414 . S
C2234 C2237 1.499 . S
C2235 H2209 0.950 . S
C2235 C2234 1.414 . S
C2235 C2236 1.374 . S
C2236 H2210 0.950 . S
C2236 C2232 1.385 . S
C2236 C2235 1.374 . S
C2237 C2234 1.499 . S
C2237 C2238 1.373 . S
C2237 C2239 1.389 1_556 S
C2238 H2211 0.950 . S
C2238 C2224 1.377 . S
C2238 C2237 1.373 . S
C2239 C2223 1.377 . S
C2239 C2237 1.389 1_554 S
C2239 C2240 1.524 . S
C2240 C2239 1.524 . S
C2240 C2241 1.397 . S
C2240 C2245 1.363 . S
C2241 H2212 0.950 . S
C2241 C2240 1.397 . S
C2241 C2242 1.334 . S
C2242 H2213 0.950 . S
C2242 C2241 1.334 . S
C2242 C2243 1.287 . S
C2243 C2242 1.287 . S
C2243 C2244 1.524 . S
C2243 H2246 0.999 . S
C2244 H2214 0.950 . S
C2244 C2243 1.524 . S
C2244 C2245 1.415 . S
C2245 H2215 0.950 . S
C2245 C2240 1.363 . S
C2245 C2244 1.415 . S
H2246 C2243 0.999 . S
H2247 C2228 0.913 . S
H2248 C2266 0.951 . S
H2249 C2268 0.951 1_455 S
H2250 C2270 0.950 . S
H2251 C2271 0.950 . S
H2252 C2273 0.950 . S
H2253 C2276 0.950 . S
H2254 C2277 0.950 . S
H2255 C2279 0.950 . S
H2256 C2280 0.953 1_455 S
H2257 C2281 0.951 . S
H2258 C2283 0.951 1_655 S
H2259 C2285 0.950 . S
H2260 C2286 0.950 . S
H2261 C2288 0.950 . S
H2262 C2291 0.950 . S
H2263 C2292 0.950 . S
H2264 C2294 0.950 . S
H2265 C2295 0.950 1_655 S
C2266 H2248 0.951 . S
C2266 C2267 1.366 . S
C2266 C2268 1.388 . S
C2267 C2266 1.366 . S
C2267 C2271 1.385 . S
C2268 H2249 0.951 1_655 S
C2268 C2266 1.388 . S
C2268 C2269 1.366 . S
C2269 C2268 1.366 . S
C2269 C2270 1.414 . S
C2269 C2272 1.499 . S
C2270 H2250 0.950 . S
C2270 C2269 1.414 . S
C2270 C2271 1.374 . S
C2271 H2251 0.950 . S
C2271 C2267 1.385 . S
C2271 C2270 1.374 . S
C2272 C2269 1.499 . S
C2272 C2273 1.373 1_655 S
C2272 C2274 1.389 . S
C2273 H2252 0.950 . S
C2273 C2272 1.373 1_455 S
C2273 C2289 1.377 . S
C2274 C2272 1.389 . S
C2274 C2275 1.524 . S
C2274 C2288 1.377 . S
C2275 C2274 1.524 . S
C2275 C2276 1.397 . S
C2275 C2280 1.363 . S
C2276 H2253 0.950 . S
C2276 C2275 1.397 . S
C2276 C2277 1.334 . S
C2277 H2254 0.950 . S
C2277 C2276 1.334 . S
C2277 C2278 1.287 . S
C2278 C2277 1.287 . S
C2278 C2279 1.524 . S
C2278 H2297 0.913 . S
C2279 H2255 0.950 . S
C2279 C2278 1.524 . S
C2279 C2280 1.415 . S
C2280 H2256 0.953 1_655 S
C2280 C2275 1.363 . S
C2280 C2279 1.415 . S
C2281 H2257 0.951 . S
C2281 C2282 1.366 . S
C2281 C2283 1.388 . S
C2282 C2281 1.366 . S
C2282 C2286 1.385 . S
C2283 H2258 0.951 1_455 S
C2283 C2281 1.388 . S
C2283 C2284 1.366 . S
C2284 C2283 1.366 . S
C2284 C2285 1.414 . S
C2284 C2287 1.499 . S
C2285 H2259 0.950 . S
C2285 C2284 1.414 . S
C2285 C2286 1.374 . S
C2286 H2260 0.950 . S
C2286 C2282 1.385 . S
C2286 C2285 1.374 . S
C2287 C2284 1.499 . S
C2287 C2288 1.373 1_455 S
C2287 C2289 1.389 . S
C2288 H2261 0.950 . S
C2288 C2274 1.377 . S
C2288 C2287 1.373 1_655 S
C2289 C2273 1.377 . S
C2289 C2287 1.389 . S
C2289 C2290 1.524 . S
C2290 C2289 1.524 . S
C2290 C2291 1.397 . S
C2290 C2295 1.363 . S
C2291 H2262 0.950 . S
C2291 C2290 1.397 . S
C2291 C2292 1.334 . S
C2292 H2263 0.950 . S
C2292 C2291 1.334 . S
C2292 C2293 1.287 . S
C2293 C2292 1.287 . S
C2293 C2294 1.524 . S
C2293 H2296 0.999 . S
C2294 H2264 0.950 . S
C2294 C2293 1.524 . S
C2294 C2295 1.415 . S
C2295 H2265 0.950 1_455 S
C2295 C2290 1.363 . S
C2295 C2294 1.415 . S
H2296 C2293 0.999 . S
H2297 C2278 0.913 . S
H2298 C2316 0.951 . S
H2299 C2318 0.951 . S
H2300 C2320 0.950 . S
H2301 C2321 0.950 . S
H2302 C2323 0.950 . S
H2303 C2326 0.950 . S
H2304 C2327 0.950 . S
H2305 C2329 0.950 . S
H2306 C2330 0.950 . S
H2307 C2331 0.951 . S
H2308 C2333 0.951 . S
H2309 C2335 0.950 . S
H2310 C2336 0.950 . S
H2311 C2338 0.950 . S
H2312 C2341 0.950 . S
H2313 C2342 0.950 . S
H2314 C2344 0.950 . S
H2315 C2345 0.950 . S
C2316 H2298 0.951 . S
C2316 C2317 1.366 . S
C2316 C2318 1.388 . S
C2317 C2316 1.366 . S
C2317 C2321 1.385 . S
C2318 H2299 0.951 . S
C2318 C2316 1.388 . S
C2318 C2319 1.366 . S
C2319 C2318 1.366 . S
C2319 C2320 1.414 . S
C2319 C2322 1.499 . S
C2320 H2300 0.950 . S
C2320 C2319 1.414 . S
C2320 C2321 1.374 . S
C2321 H2301 0.950 . S
C2321 C2317 1.385 . S
C2321 C2320 1.374 . S
C2322 C2319 1.499 . S
C2322 C2323 1.373 . S
C2322 C2324 1.389 . S
C2323 H2302 0.950 . S
C2323 C2322 1.373 . S
C2323 C2339 1.377 1_565 S
C2324 C2322 1.389 . S
C2324 C2325 1.524 . S
C2324 C2338 1.377 1_565 S
C2325 C2324 1.524 . S
C2325 C2326 1.397 . S
C2325 C2330 1.363 . S
C2326 H2303 0.950 . S
C2326 C2325 1.397 . S
C2326 C2327 1.334 . S
C2327 H2304 0.950 . S
C2327 C2326 1.334 . S
C2327 C2328 1.287 . S
C2328 C2327 1.287 . S
C2328 C2329 1.524 . S
C2328 H2347 0.913 . S
C2329 H2305 0.950 . S
C2329 C2328 1.524 . S
C2329 C2330 1.415 . S
C2330 H2306 0.950 . S
C2330 C2325 1.363 . S
C2330 C2329 1.415 . S
C2331 H2307 0.951 . S
C2331 C2332 1.366 . S
C2331 C2333 1.388 . S
C2332 C2331 1.366 . S
C2332 C2336 1.385 . S
C2333 H2308 0.951 . S
C2333 C2331 1.388 . S
C2333 C2334 1.366 . S
C2334 C2333 1.366 . S
C2334 C2335 1.414 . S
C2334 C2337 1.499 . S
C2335 H2309 0.950 . S
C2335 C2334 1.414 . S
C2335 C2336 1.374 . S
C2336 H2310 0.950 . S
C2336 C2332 1.385 . S
C2336 C2335 1.374 . S
C2337 C2334 1.499 . S
C2337 C2338 1.373 . S
C2337 C2339 1.389 . S
C2338 H2311 0.950 . S
C2338 C2324 1.377 1_545 S
C2338 C2337 1.373 . S
C2339 C2323 1.377 1_545 S
C2339 C2337 1.389 . S
C2339 C2340 1.524 . S
C2340 C2339 1.524 . S
C2340 C2341 1.397 . S
C2340 C2345 1.363 . S
C2341 H2312 0.950 . S
C2341 C2340 1.397 . S
C2341 C2342 1.334 . S
C2342 H2313 0.950 . S
C2342 C2341 1.334 . S
C2342 C2343 1.287 . S
C2343 C2342 1.287 . S
C2343 C2344 1.524 . S
C2343 H2346 0.999 . S
C2344 H2314 0.950 . S
C2344 C2343 1.524 . S
C2344 C2345 1.415 . S
C2345 H2315 0.950 . S
C2345 C2340 1.363 . S
C2345 C2344 1.415 . S
H2346 C2343 0.999 . S
H2347 C2328 0.913 . S
H2348 C2366 0.951 . S
H2349 C2368 0.951 1_554 S
H2350 C2370 0.950 . S
H2351 C2371 0.950 . S
H2352 C2373 0.950 . S
H2353 C2376 0.950 1_556 S
H2354 C2377 0.950 . S
H2355 C2379 0.950 . S
H2356 C2380 0.950 . S
H2357 C2381 0.951 . S
H2358 C2383 0.951 1_556 S
H2359 C2385 0.950 . S
H2360 C2386 0.950 . S
H2361 C2388 0.950 . S
H2362 C2391 0.950 1_554 S
H2363 C2392 0.950 . S
H2364 C2394 0.950 . S
H2365 C2395 0.950 . S
C2366 H2348 0.951 . S
C2366 C2367 1.366 . S
C2366 C2368 1.388 . S
C2367 C2366 1.366 . S
C2367 C2371 1.385 . S
C2368 H2349 0.951 1_556 S
C2368 C2366 1.388 . S
C2368 C2369 1.366 . S
C2369 C2368 1.366 . S
C2369 C2370 1.414 . S
C2369 C2372 1.499 . S
C2370 H2350 0.950 . S
C2370 C2369 1.414 . S
C2370 C2371 1.374 . S
C2371 H2351 0.950 . S
C2371 C2367 1.385 . S
C2371 C2370 1.374 . S
C2372 C2369 1.499 . S
C2372 C2373 1.373 . S
C2372 C2374 1.389 1_556 S
C2373 H2352 0.950 . S
C2373 C2372 1.373 . S
C2373 C2389 1.377 . S
C2374 C2372 1.389 1_554 S
C2374 C2375 1.524 . S
C2374 C2388 1.377 . S
C2375 C2374 1.524 . S
C2375 C2376 1.397 . S
C2375 C2380 1.363 . S
C2376 H2353 0.950 1_554 S
C2376 C2375 1.397 . S
C2376 C2377 1.334 . S
C2377 H2354 0.950 . S
C2377 C2376 1.334 . S
C2377 C2378 1.287 . S
C2378 C2377 1.287 . S
C2378 C2379 1.524 . S
C2378 H2397 0.913 . S
C2379 H2355 0.950 . S
C2379 C2378 1.524 . S
C2379 C2380 1.415 . S
C2380 H2356 0.950 . S
C2380 C2375 1.363 . S
C2380 C2379 1.415 . S
C2381 H2357 0.951 . S
C2381 C2382 1.366 . S
C2381 C2383 1.388 . S
C2382 C2381 1.366 . S
C2382 C2386 1.385 . S
C2383 H2358 0.951 1_554 S
C2383 C2381 1.388 . S
C2383 C2384 1.366 . S
C2384 C2383 1.366 . S
C2384 C2385 1.414 . S
C2384 C2387 1.499 . S
C2385 H2359 0.950 . S
C2385 C2384 1.414 . S
C2385 C2386 1.374 . S
C2386 H2360 0.950 . S
C2386 C2382 1.385 . S
C2386 C2385 1.374 . S
C2387 C2384 1.499 . S
C2387 C2388 1.373 . S
C2387 C2389 1.389 1_554 S
C2388 H2361 0.950 . S
C2388 C2374 1.377 . S
C2388 C2387 1.373 . S
C2389 C2373 1.377 . S
C2389 C2387 1.389 1_556 S
C2389 C2390 1.524 . S
C2390 C2389 1.524 . S
C2390 C2391 1.397 . S
C2390 C2395 1.363 . S
C2391 H2362 0.950 1_556 S
C2391 C2390 1.397 . S
C2391 C2392 1.334 . S
C2392 H2363 0.950 . S
C2392 C2391 1.334 . S
C2392 C2393 1.287 . S
C2393 C2392 1.287 . S
C2393 C2394 1.524 . S
C2393 H2396 0.999 . S
C2394 H2364 0.950 . S
C2394 C2393 1.524 . S
C2394 C2395 1.415 . S
C2395 H2365 0.950 . S
C2395 C2390 1.363 . S
C2395 C2394 1.415 . S
H2396 C2393 0.999 . S
H2397 C2378 0.913 . S
H2398 C2416 0.951 . S
H2399 C2418 0.951 . S
H2400 C2420 0.950 . S
H2401 C2421 0.950 . S
H2402 C2423 0.950 . S
H2403 C2426 0.950 . S
H2404 C2427 0.950 . S
H2405 C2429 0.950 . S
H2406 C2430 0.950 . S
H2407 C2431 0.951 . S
H2408 C2433 0.951 . S
H2409 C2435 0.950 . S
H2410 C2436 0.950 . S
H2411 C2438 0.950 . S
H2412 C2441 0.950 . S
H2413 C2442 0.950 . S
H2414 C2444 0.950 . S
H2415 C2445 0.950 . S
C2416 H2398 0.951 . S
C2416 C2417 1.366 . S
C2416 C2418 1.388 . S
C2417 C2416 1.366 . S
C2417 C2421 1.385 . S
C2418 H2399 0.951 . S
C2418 C2416 1.388 . S
C2418 C2419 1.366 . S
C2419 C2418 1.366 . S
C2419 C2420 1.414 . S
C2419 C2422 1.499 . S
C2420 H2400 0.950 . S
C2420 C2419 1.414 . S
C2420 C2421 1.374 . S
C2421 H2401 0.950 . S
C2421 C2417 1.385 . S
C2421 C2420 1.374 . S
C2422 C2419 1.499 . S
C2422 C2423 1.373 . S
C2422 C2424 1.389 . S
C2423 H2402 0.950 . S
C2423 C2422 1.373 . S
C2423 C2439 1.377 . S
C2424 C2422 1.389 . S
C2424 C2425 1.524 . S
C2424 C2438 1.377 . S
C2425 C2424 1.524 . S
C2425 C2426 1.397 . S
C2425 C2430 1.363 . S
C2426 H2403 0.950 . S
C2426 C2425 1.397 . S
C2426 C2427 1.334 . S
C2427 H2404 0.950 . S
C2427 C2426 1.334 . S
C2427 C2428 1.287 . S
C2428 C2427 1.287 . S
C2428 C2429 1.524 . S
C2428 H2447 0.913 . S
C2429 H2405 0.950 . S
C2429 C2428 1.524 . S
C2429 C2430 1.415 . S
C2430 H2406 0.950 . S
C2430 C2425 1.363 . S
C2430 C2429 1.415 . S
C2431 H2407 0.951 . S
C2431 C2432 1.366 . S
C2431 C2433 1.388 . S
C2432 C2431 1.366 . S
C2432 C2436 1.385 . S
C2433 H2408 0.951 . S
C2433 C2431 1.388 . S
C2433 C2434 1.366 . S
C2434 C2433 1.366 . S
C2434 C2435 1.414 . S
C2434 C2437 1.499 . S
C2435 H2409 0.950 . S
C2435 C2434 1.414 . S
C2435 C2436 1.374 . S
C2436 H2410 0.950 . S
C2436 C2432 1.385 . S
C2436 C2435 1.374 . S
C2437 C2434 1.499 . S
C2437 C2438 1.373 . S
C2437 C2439 1.389 . S
C2438 H2411 0.950 . S
C2438 C2424 1.377 . S
C2438 C2437 1.373 . S
C2439 C2423 1.377 . S
C2439 C2437 1.389 . S
C2439 C2440 1.524 . S
C2440 C2439 1.524 . S
C2440 C2441 1.397 . S
C2440 C2445 1.363 . S
C2441 H2412 0.950 . S
C2441 C2440 1.397 . S
C2441 C2442 1.334 . S
C2442 H2413 0.950 . S
C2442 C2441 1.334 . S
C2442 C2443 1.287 . S
C2443 C2442 1.287 . S
C2443 C2444 1.524 . S
C2443 H2446 0.999 . S
C2444 H2414 0.950 . S
C2444 C2443 1.524 . S
C2444 C2445 1.415 . S
C2445 H2415 0.950 . S
C2445 C2440 1.363 . S
C2445 C2444 1.415 . S
H2446 C2443 0.999 . S
H2447 C2428 0.913 . S
H2448 C2466 0.951 1_655 S
H2449 C2468 0.951 . S
H2450 C2470 0.950 . S
H2451 C2471 0.950 . S
H2452 C2473 0.950 . S
H2453 C2476 0.950 . S
H2454 C2477 0.950 . S
H2455 C2479 0.950 . S
H2456 C2480 0.950 . S
H2457 C2481 0.951 1_455 S
H2458 C2483 0.951 . S
H2459 C2485 0.950 . S
H2460 C2486 0.950 . S
H2461 C2488 0.950 . S
H2462 C2491 0.950 . S
H2463 C2492 0.950 . S
H2464 C2494 0.950 . S
H2465 C2495 0.950 . S
C2466 H2448 0.951 1_455 S
C2466 C2467 1.366 . S
C2466 C2468 1.388 1_455 S
C2467 C2466 1.366 . S
C2467 C2471 1.385 . S
C2468 H2449 0.951 . S
C2468 C2466 1.388 1_655 S
C2468 C2469 1.366 1_655 S
C2469 C2468 1.366 1_455 S
C2469 C2470 1.414 . S
C2469 C2472 1.499 . S
C2470 H2450 0.950 . S
C2470 C2469 1.414 . S
C2470 C2471 1.374 . S
C2471 H2451 0.950 . S
C2471 C2467 1.385 . S
C2471 C2470 1.374 . S
C2472 C2469 1.499 . S
C2472 C2473 1.373 . S
C2472 C2474 1.389 1_455 S
C2473 H2452 0.950 . S
C2473 C2472 1.373 . S
C2473 C2489 1.377 . S
C2474 C2472 1.389 1_655 S
C2474 C2475 1.524 . S
C2474 C2488 1.377 . S
C2475 C2474 1.524 . S
C2475 C2476 1.397 1_655 S
C2475 C2480 1.363 . S
C2476 H2453 0.950 . S
C2476 C2475 1.397 1_455 S
C2476 C2477 1.334 . S
C2477 H2454 0.950 . S
C2477 C2476 1.334 . S
C2477 C2478 1.287 1_455 S
C2478 C2477 1.287 1_655 S
C2478 C2479 1.524 . S
C2478 H2497 0.913 . S
C2479 H2455 0.950 . S
C2479 C2478 1.524 . S
C2479 C2480 1.415 . S
C2480 H2456 0.950 . S
C2480 C2475 1.363 . S
C2480 C2479 1.415 . S
C2481 H2457 0.951 1_655 S
C2481 C2482 1.366 . S
C2481 C2483 1.388 1_655 S
C2482 C2481 1.366 . S
C2482 C2486 1.385 . S
C2483 H2458 0.951 . S
C2483 C2481 1.388 1_455 S
C2483 C2484 1.366 1_455 S
C2484 C2483 1.366 1_655 S
C2484 C2485 1.414 . S
C2484 C2487 1.499 . S
C2485 H2459 0.950 . S
C2485 C2484 1.414 . S
C2485 C2486 1.374 . S
C2486 H2460 0.950 . S
C2486 C2482 1.385 . S
C2486 C2485 1.374 . S
C2487 C2484 1.499 . S
C2487 C2488 1.373 . S
C2487 C2489 1.389 1_655 S
C2488 H2461 0.950 . S
C2488 C2474 1.377 . S
C2488 C2487 1.373 . S
C2489 C2473 1.377 . S
C2489 C2487 1.389 1_455 S
C2489 C2490 1.524 . S
C2490 C2489 1.524 . S
C2490 C2491 1.397 1_455 S
C2490 C2495 1.363 . S
C2491 H2462 0.950 . S
C2491 C2490 1.397 1_655 S
C2491 C2492 1.334 . S
C2492 H2463 0.950 . S
C2492 C2491 1.334 . S
C2492 C2493 1.287 1_655 S
C2493 C2492 1.287 1_455 S
C2493 C2494 1.524 . S
C2493 H2496 0.999 . S
C2494 H2464 0.950 . S
C2494 C2493 1.524 . S
C2494 C2495 1.415 . S
C2495 H2465 0.950 . S
C2495 C2490 1.363 . S
C2495 C2494 1.415 . S
H2496 C2493 0.999 . S
H2497 C2478 0.913 . S
H2498 C2516 0.951 . S
H2499 C2518 0.951 . S
H2500 C2520 0.950 . S
H2501 C2521 0.950 . S
H2502 C2523 0.950 . S
H2503 C2526 0.950 . S
H2504 C2527 0.950 . S
H2505 C2529 0.950 . S
H2506 C2530 0.950 . S
H2507 C2531 0.951 . S
H2508 C2533 0.951 . S
H2509 C2535 0.950 . S
H2510 C2536 0.950 . S
H2511 C2538 0.950 . S
H2512 C2541 0.950 . S
H2513 C2542 0.950 . S
H2514 C2544 0.950 . S
H2515 C2545 0.950 . S
C2516 H2498 0.951 . S
C2516 C2517 1.366 . S
C2516 C2518 1.388 . S
C2517 C2516 1.366 . S
C2517 C2521 1.385 . S
C2518 H2499 0.951 . S
C2518 C2516 1.388 . S
C2518 C2519 1.366 . S
C2519 C2518 1.366 . S
C2519 C2520 1.414 . S
C2519 C2522 1.499 . S
C2520 H2500 0.950 . S
C2520 C2519 1.414 . S
C2520 C2521 1.374 . S
C2521 H2501 0.950 . S
C2521 C2517 1.385 . S
C2521 C2520 1.374 . S
C2522 C2519 1.499 . S
C2522 C2523 1.373 . S
C2522 C2524 1.389 . S
C2523 H2502 0.950 . S
C2523 C2522 1.373 . S
C2523 C2539 1.377 . S
C2524 C2522 1.389 . S
C2524 C2525 1.524 . S
C2524 C2538 1.377 . S
C2525 C2524 1.524 . S
C2525 C2526 1.397 . S
C2525 C2530 1.363 . S
C2526 H2503 0.950 . S
C2526 C2525 1.397 . S
C2526 C2527 1.334 . S
C2527 H2504 0.950 . S
C2527 C2526 1.334 . S
C2527 C2528 1.287 . S
C2528 C2527 1.287 . S
C2528 C2529 1.524 . S
C2528 H2547 0.913 . S
C2529 H2505 0.950 . S
C2529 C2528 1.524 . S
C2529 C2530 1.415 . S
C2530 H2506 0.950 . S
C2530 C2525 1.363 . S
C2530 C2529 1.415 . S
C2531 H2507 0.951 . S
C2531 C2532 1.366 . S
C2531 C2533 1.388 . S
C2532 C2531 1.366 . S
C2532 C2536 1.385 . S
C2533 H2508 0.951 . S
C2533 C2531 1.388 . S
C2533 C2534 1.366 . S
C2534 C2533 1.366 . S
C2534 C2535 1.414 . S
C2534 C2537 1.499 . S
C2535 H2509 0.950 . S
C2535 C2534 1.414 . S
C2535 C2536 1.374 . S
C2536 H2510 0.950 . S
C2536 C2532 1.385 . S
C2536 C2535 1.374 . S
C2537 C2534 1.499 . S
C2537 C2538 1.373 . S
C2537 C2539 1.389 . S
C2538 H2511 0.950 . S
C2538 C2524 1.377 . S
C2538 C2537 1.373 . S
C2539 C2523 1.377 . S
C2539 C2537 1.389 . S
C2539 C2540 1.524 . S
C2540 C2539 1.524 . S
C2540 C2541 1.397 . S
C2540 C2545 1.363 . S
C2541 H2512 0.950 . S
C2541 C2540 1.397 . S
C2541 C2542 1.334 . S
C2542 H2513 0.950 . S
C2542 C2541 1.334 . S
C2542 C2543 1.287 . S
C2543 C2542 1.287 . S
C2543 C2544 1.524 . S
C2543 H2546 0.999 . S
C2544 H2514 0.950 . S
C2544 C2543 1.524 . S
C2544 C2545 1.415 . S
C2545 H2515 0.950 . S
C2545 C2540 1.363 . S
C2545 C2544 1.415 . S
H2546 C2543 0.999 . S
H2547 C2528 0.913 . S
H2548 C2566 0.951 . S
H2549 C2568 0.951 . S
H2550 C2570 0.950 . S
H2551 C2571 0.950 . S
H2552 C2573 0.950 . S
H2553 C2576 0.950 . S
H2554 C2577 0.950 . S
H2555 C2579 0.950 . S
H2556 C2580 0.950 . S
H2557 C2581 0.951 . S
H2558 C2583 0.951 . S
H2559 C2585 0.950 . S
H2560 C2586 0.950 . S
H2561 C2588 0.950 . S
H2562 C2591 0.950 . S
H2563 C2592 0.950 . S
H2564 C2594 0.950 . S
H2565 C2595 0.950 . S
C2566 H2548 0.951 . S
C2566 C2567 1.366 . S
C2566 C2568 1.388 . S
C2567 C2566 1.366 . S
C2567 C2571 1.385 . S
C2568 H2549 0.951 . S
C2568 C2566 1.388 . S
C2568 C2569 1.366 . S
C2569 C2568 1.366 . S
C2569 C2570 1.414 . S
C2569 C2572 1.499 . S
C2570 H2550 0.950 . S
C2570 C2569 1.414 . S
C2570 C2571 1.374 . S
C2571 H2551 0.950 . S
C2571 C2567 1.385 . S
C2571 C2570 1.374 . S
C2572 C2569 1.499 . S
C2572 C2573 1.373 . S
C2572 C2574 1.389 . S
C2573 H2552 0.950 . S
C2573 C2572 1.373 . S
C2573 C2589 1.377 . S
C2574 C2572 1.389 . S
C2574 C2575 1.524 . S
C2574 C2588 1.377 . S
C2575 C2574 1.524 . S
C2575 C2576 1.397 . S
C2575 C2580 1.363 . S
C2576 H2553 0.950 . S
C2576 C2575 1.397 . S
C2576 C2577 1.334 . S
C2577 H2554 0.950 . S
C2577 C2576 1.334 . S
C2577 C2578 1.287 . S
C2578 C2577 1.287 . S
C2578 C2579 1.524 . S
C2578 H2597 0.913 . S
C2579 H2555 0.950 . S
C2579 C2578 1.524 . S
C2579 C2580 1.415 . S
C2580 H2556 0.950 . S
C2580 C2575 1.363 . S
C2580 C2579 1.415 . S
C2581 H2557 0.951 . S
C2581 C2582 1.366 . S
C2581 C2583 1.388 . S
C2582 C2581 1.366 . S
C2582 C2586 1.385 . S
C2583 H2558 0.951 . S
C2583 C2581 1.388 . S
C2583 C2584 1.366 . S
C2584 C2583 1.366 . S
C2584 C2585 1.414 . S
C2584 C2587 1.499 . S
C2585 H2559 0.950 . S
C2585 C2584 1.414 . S
C2585 C2586 1.374 . S
C2586 H2560 0.950 . S
C2586 C2582 1.385 . S
C2586 C2585 1.374 . S
C2587 C2584 1.499 . S
C2587 C2588 1.373 . S
C2587 C2589 1.389 . S
C2588 H2561 0.950 . S
C2588 C2574 1.377 . S
C2588 C2587 1.373 . S
C2589 C2573 1.377 . S
C2589 C2587 1.389 . S
C2589 C2590 1.524 . S
C2590 C2589 1.524 . S
C2590 C2591 1.397 . S
C2590 C2595 1.363 . S
C2591 H2562 0.950 . S
C2591 C2590 1.397 . S
C2591 C2592 1.334 . S
C2592 H2563 0.950 . S
C2592 C2591 1.334 . S
C2592 C2593 1.287 . S
C2593 C2592 1.287 . S
C2593 C2594 1.524 . S
C2593 H2596 0.999 . S
C2594 H2564 0.950 . S
C2594 C2593 1.524 . S
C2594 C2595 1.415 . S
C2595 H2565 0.950 . S
C2595 C2590 1.363 . S
C2595 C2594 1.415 . S
H2596 C2593 0.999 . S
H2597 C2578 0.913 . S
H2598 C2616 0.951 . S
H2599 C2618 0.951 . S
H2600 C2620 0.950 . S
H2601 C2621 0.950 . S
H2602 C2623 0.950 . S
H2603 C2626 0.950 . S
H2604 C2627 0.950 . S
H2605 C2629 0.950 . S
H2606 C2630 0.950 . S
H2607 C2631 0.951 . S
H2608 C2633 0.951 . S
H2609 C2635 0.950 . S
H2610 C2636 0.950 . S
H2611 C2638 0.950 . S
H2612 C2641 0.950 . S
H2613 C2642 0.950 . S
H2614 C2644 0.950 . S
H2615 C2645 0.950 . S
C2616 H2598 0.951 . S
C2616 C2617 1.366 . S
C2616 C2618 1.388 . S
C2617 C2616 1.366 . S
C2617 C2621 1.385 . S
C2618 H2599 0.951 . S
C2618 C2616 1.388 . S
C2618 C2619 1.366 . S
C2619 C2618 1.366 . S
C2619 C2620 1.414 . S
C2619 C2622 1.499 . S
C2620 H2600 0.950 . S
C2620 C2619 1.414 . S
C2620 C2621 1.374 . S
C2621 H2601 0.950 . S
C2621 C2617 1.385 . S
C2621 C2620 1.374 . S
C2622 C2619 1.499 . S
C2622 C2623 1.373 . S
C2622 C2624 1.389 . S
C2623 H2602 0.950 . S
C2623 C2622 1.373 . S
C2623 C2639 1.377 . S
C2624 C2622 1.389 . S
C2624 C2625 1.524 . S
C2624 C2638 1.377 . S
C2625 C2624 1.524 . S
C2625 C2626 1.397 . S
C2625 C2630 1.363 . S
C2626 H2603 0.950 . S
C2626 C2625 1.397 . S
C2626 C2627 1.334 . S
C2627 H2604 0.950 . S
C2627 C2626 1.334 . S
C2627 C2628 1.287 . S
C2628 C2627 1.287 . S
C2628 C2629 1.524 . S
C2628 H2647 0.913 . S
C2629 H2605 0.950 . S
C2629 C2628 1.524 . S
C2629 C2630 1.415 . S
C2630 H2606 0.950 . S
C2630 C2625 1.363 . S
C2630 C2629 1.415 . S
C2631 H2607 0.951 . S
C2631 C2632 1.366 . S
C2631 C2633 1.388 . S
C2632 C2631 1.366 . S
C2632 C2636 1.385 . S
C2633 H2608 0.951 . S
C2633 C2631 1.388 . S
C2633 C2634 1.366 . S
C2634 C2633 1.366 . S
C2634 C2635 1.414 . S
C2634 C2637 1.499 . S
C2635 H2609 0.950 . S
C2635 C2634 1.414 . S
C2635 C2636 1.374 . S
C2636 H2610 0.950 . S
C2636 C2632 1.385 . S
C2636 C2635 1.374 . S
C2637 C2634 1.499 . S
C2637 C2638 1.373 . S
C2637 C2639 1.389 . S
C2638 H2611 0.950 . S
C2638 C2624 1.377 . S
C2638 C2637 1.373 . S
C2639 C2623 1.377 . S
C2639 C2637 1.389 . S
C2639 C2640 1.524 . S
C2640 C2639 1.524 . S
C2640 C2641 1.397 . S
C2640 C2645 1.363 . S
C2641 H2612 0.950 . S
C2641 C2640 1.397 . S
C2641 C2642 1.334 . S
C2642 H2613 0.950 . S
C2642 C2641 1.334 . S
C2642 C2643 1.287 . S
C2643 C2642 1.287 . S
C2643 C2644 1.524 . S
C2643 H2646 0.999 . S
C2644 H2614 0.950 . S
C2644 C2643 1.524 . S
C2644 C2645 1.415 . S
C2645 H2615 0.950 . S
C2645 C2640 1.363 . S
C2645 C2644 1.415 . S
H2646 C2643 0.999 . S
H2647 C2628 0.913 . S
H2648 C2666 0.951 . S
H2649 C2668 0.951 . S
H2650 C2670 0.950 . S
H2651 C2671 0.950 . S
H2652 C2673 0.950 . S
H2653 C2676 0.950 . S
H2654 C2677 0.950 . S
H2655 C2679 0.950 . S
H2656 C2680 0.950 . S
H2657 C2681 0.951 . S
H2658 C2683 0.951 . S
H2659 C2685 0.950 . S
H2660 C2686 0.950 . S
H2661 C2688 0.950 . S
H2662 C2691 0.950 . S
H2663 C2692 0.950 . S
H2664 C2694 0.950 . S
H2665 C2695 0.950 . S
C2666 H2648 0.951 . S
C2666 C2667 1.366 . S
C2666 C2668 1.388 . S
C2667 C2666 1.366 . S
C2667 C2671 1.385 . S
C2668 H2649 0.951 . S
C2668 C2666 1.388 . S
C2668 C2669 1.366 . S
C2669 C2668 1.366 . S
C2669 C2670 1.414 . S
C2669 C2672 1.499 . S
C2670 H2650 0.950 . S
C2670 C2669 1.414 . S
C2670 C2671 1.374 . S
C2671 H2651 0.950 . S
C2671 C2667 1.385 . S
C2671 C2670 1.374 . S
C2672 C2669 1.499 . S
C2672 C2673 1.373 . S
C2672 C2674 1.389 . S
C2673 H2652 0.950 . S
C2673 C2672 1.373 . S
C2673 C2689 1.377 . S
C2674 C2672 1.389 . S
C2674 C2675 1.524 . S
C2674 C2688 1.377 . S
C2675 C2674 1.524 . S
C2675 C2676 1.397 . S
C2675 C2680 1.363 . S
C2676 H2653 0.950 . S
C2676 C2675 1.397 . S
C2676 C2677 1.334 . S
C2677 H2654 0.950 . S
C2677 C2676 1.334 . S
C2677 C2678 1.287 . S
C2678 C2677 1.287 . S
C2678 C2679 1.524 . S
C2678 H2697 0.913 . S
C2679 H2655 0.950 . S
C2679 C2678 1.524 . S
C2679 C2680 1.415 . S
C2680 H2656 0.950 . S
C2680 C2675 1.363 . S
C2680 C2679 1.415 . S
C2681 H2657 0.951 . S
C2681 C2682 1.366 . S
C2681 C2683 1.388 . S
C2682 C2681 1.366 . S
C2682 C2686 1.385 . S
C2683 H2658 0.951 . S
C2683 C2681 1.388 . S
C2683 C2684 1.366 . S
C2684 C2683 1.366 . S
C2684 C2685 1.414 . S
C2684 C2687 1.499 . S
C2685 H2659 0.950 . S
C2685 C2684 1.414 . S
C2685 C2686 1.374 . S
C2686 H2660 0.950 . S
C2686 C2682 1.385 . S
C2686 C2685 1.374 . S
C2687 C2684 1.499 . S
C2687 C2688 1.373 . S
C2687 C2689 1.389 . S
C2688 H2661 0.950 . S
C2688 C2674 1.377 . S
C2688 C2687 1.373 . S
C2689 C2673 1.377 . S
C2689 C2687 1.389 . S
C2689 C2690 1.524 . S
C2690 C2689 1.524 . S
C2690 C2691 1.397 . S
C2690 C2695 1.363 . S
C2691 H2662 0.950 . S
C2691 C2690 1.397 . S
C2691 C2692 1.334 . S
C2692 H2663 0.950 . S
C2692 C2691 1.334 . S
C2692 C2693 1.287 . S
C2693 C2692 1.287 . S
C2693 C2694 1.524 . S
C2693 H2696 0.999 . S
C2694 H2664 0.950 . S
C2694 C2693 1.524 . S
C2694 C2695 1.415 . S
C2695 H2665 0.950 . S
C2695 C2690 1.363 . S
C2695 C2694 1.415 . S
H2696 C2693 0.999 . S
H2697 C2678 0.913 . S
H2698 C2716 0.951 . S
H2699 C2718 0.951 . S
H2700 C2720 0.950 . S
H2701 C2721 0.950 . S
H2702 C2723 0.950 . S
H2703 C2726 0.950 . S
H2704 C2727 0.950 . S
H2705 C2729 0.950 . S
H2706 C2730 0.950 . S
H2707 C2731 0.951 . S
H2708 C2733 0.951 . S
H2709 C2735 0.950 . S
H2710 C2736 0.950 . S
H2711 C2738 0.950 . S
H2712 C2741 0.950 . S
H2713 C2742 0.950 . S
H2714 C2744 0.950 . S
H2715 C2745 0.950 . S
C2716 H2698 0.951 . S
C2716 C2717 1.366 . S
C2716 C2718 1.388 . S
C2717 C2716 1.366 . S
C2717 C2721 1.385 . S
C2718 H2699 0.951 . S
C2718 C2716 1.388 . S
C2718 C2719 1.366 . S
C2719 C2718 1.366 . S
C2719 C2720 1.414 . S
C2719 C2722 1.499 . S
C2720 H2700 0.950 . S
C2720 C2719 1.414 . S
C2720 C2721 1.374 . S
C2721 H2701 0.950 . S
C2721 C2717 1.385 . S
C2721 C2720 1.374 . S
C2722 C2719 1.499 . S
C2722 C2723 1.373 . S
C2722 C2724 1.389 . S
C2723 H2702 0.950 . S
C2723 C2722 1.373 . S
C2723 C2739 1.377 1_545 S
C2724 C2722 1.389 . S
C2724 C2725 1.524 . S
C2724 C2738 1.377 . S
C2725 C2724 1.524 . S
C2725 C2726 1.397 . S
C2725 C2730 1.363 . S
C2726 H2703 0.950 . S
C2726 C2725 1.397 . S
C2726 C2727 1.334 . S
C2727 H2704 0.950 . S
C2727 C2726 1.334 . S
C2727 C2728 1.287 . S
C2728 C2727 1.287 . S
C2728 C2729 1.524 . S
C2728 H2747 0.913 . S
C2729 H2705 0.950 . S
C2729 C2728 1.524 . S
C2729 C2730 1.415 . S
C2730 H2706 0.950 . S
C2730 C2725 1.363 . S
C2730 C2729 1.415 . S
C2731 H2707 0.951 . S
C2731 C2732 1.366 . S
C2731 C2733 1.388 . S
C2732 C2731 1.366 . S
C2732 C2736 1.385 . S
C2733 H2708 0.951 . S
C2733 C2731 1.388 . S
C2733 C2734 1.366 . S
C2734 C2733 1.366 . S
C2734 C2735 1.414 . S
C2734 C2737 1.499 . S
C2735 H2709 0.950 . S
C2735 C2734 1.414 . S
C2735 C2736 1.374 . S
C2736 H2710 0.950 . S
C2736 C2732 1.385 . S
C2736 C2735 1.374 . S
C2737 C2734 1.499 . S
C2737 C2738 1.373 1_565 S
C2737 C2739 1.389 . S
C2738 H2711 0.950 . S
C2738 C2724 1.377 . S
C2738 C2737 1.373 1_545 S
C2739 C2723 1.377 1_565 S
C2739 C2737 1.389 . S
C2739 C2740 1.524 . S
C2740 C2739 1.524 . S
C2740 C2741 1.397 . S
C2740 C2745 1.363 . S
C2741 H2712 0.950 . S
C2741 C2740 1.397 . S
C2741 C2742 1.334 . S
C2742 H2713 0.950 . S
C2742 C2741 1.334 . S
C2742 C2743 1.287 . S
C2743 C2742 1.287 . S
C2743 C2744 1.524 . S
C2743 H2746 0.999 . S
C2744 H2714 0.950 . S
C2744 C2743 1.524 . S
C2744 C2745 1.415 . S
C2745 H2715 0.950 . S
C2745 C2740 1.363 . S
C2745 C2744 1.415 . S
H2746 C2743 0.999 . S
H2747 C2728 0.913 . S
H2748 C2766 0.951 . S
H2749 C2768 0.951 . S
H2750 C2770 0.950 . S
H2751 C2771 0.950 . S
H2752 C2773 0.950 . S
H2753 C2776 0.950 . S
H2754 C2777 0.950 . S
H2755 C2779 0.950 . S
H2756 C2780 0.950 . S
H2757 C2781 0.951 . S
H2758 C2783 0.951 . S
H2759 C2785 0.950 . S
H2760 C2786 0.950 . S
H2761 C2788 0.950 . S
H2762 C2791 0.950 . S
H2763 C2792 0.950 . S
H2764 C2794 0.950 . S
H2765 C2795 0.950 . S
C2766 H2748 0.951 . S
C2766 C2767 1.366 . S
C2766 C2768 1.388 . S
C2767 C2766 1.366 . S
C2767 C2771 1.385 . S
C2768 H2749 0.951 . S
C2768 C2766 1.388 . S
C2768 C2769 1.366 . S
C2769 C2768 1.366 . S
C2769 C2770 1.414 . S
C2769 C2772 1.499 . S
C2770 H2750 0.950 . S
C2770 C2769 1.414 . S
C2770 C2771 1.374 . S
C2771 H2751 0.950 . S
C2771 C2767 1.385 . S
C2771 C2770 1.374 . S
C2772 C2769 1.499 . S
C2772 C2773 1.373 . S
C2772 C2774 1.389 . S
C2773 H2752 0.950 . S
C2773 C2772 1.373 . S
C2773 C2789 1.377 . S
C2774 C2772 1.389 . S
C2774 C2775 1.524 . S
C2774 C2788 1.377 . S
C2775 C2774 1.524 . S
C2775 C2776 1.397 . S
C2775 C2780 1.363 . S
C2776 H2753 0.950 . S
C2776 C2775 1.397 . S
C2776 C2777 1.334 . S
C2777 H2754 0.950 . S
C2777 C2776 1.334 . S
C2777 C2778 1.287 . S
C2778 C2777 1.287 . S
C2778 C2779 1.524 . S
C2778 H2797 0.913 . S
C2779 H2755 0.950 . S
C2779 C2778 1.524 . S
C2779 C2780 1.415 . S
C2780 H2756 0.950 . S
C2780 C2775 1.363 . S
C2780 C2779 1.415 . S
C2781 H2757 0.951 . S
C2781 C2782 1.366 . S
C2781 C2783 1.388 . S
C2782 C2781 1.366 . S
C2782 C2786 1.385 . S
C2783 H2758 0.951 . S
C2783 C2781 1.388 . S
C2783 C2784 1.366 . S
C2784 C2783 1.366 . S
C2784 C2785 1.414 . S
C2784 C2787 1.499 . S
C2785 H2759 0.950 . S
C2785 C2784 1.414 . S
C2785 C2786 1.374 . S
C2786 H2760 0.950 . S
C2786 C2782 1.385 . S
C2786 C2785 1.374 . S
C2787 C2784 1.499 . S
C2787 C2788 1.373 . S
C2787 C2789 1.389 . S
C2788 H2761 0.950 . S
C2788 C2774 1.377 . S
C2788 C2787 1.373 . S
C2789 C2773 1.377 . S
C2789 C2787 1.389 . S
C2789 C2790 1.524 . S
C2790 C2789 1.524 . S
C2790 C2791 1.397 . S
C2790 C2795 1.363 . S
C2791 H2762 0.950 . S
C2791 C2790 1.397 . S
C2791 C2792 1.334 . S
C2792 H2763 0.950 . S
C2792 C2791 1.334 . S
C2792 C2793 1.287 . S
C2793 C2792 1.287 . S
C2793 C2794 1.524 . S
C2793 H2796 0.999 . S
C2794 H2764 0.950 . S
C2794 C2793 1.524 . S
C2794 C2795 1.415 . S
C2795 H2765 0.950 . S
C2795 C2790 1.363 . S
C2795 C2794 1.415 . S
H2796 C2793 0.999 . S
H2797 C2778 0.913 . S
H2798 C2816 0.951 . S
H2799 C2818 0.951 . S
H2800 C2820 0.950 . S
H2801 C2821 0.950 . S
H2802 C2823 0.950 . S
H2803 C2826 0.950 . S
H2804 C2827 0.950 . S
H2805 C2829 0.950 . S
H2806 C2830 0.950 . S
H2807 C2831 0.951 . S
H2808 C2833 0.951 . S
H2809 C2835 0.950 . S
H2810 C2836 0.950 . S
H2811 C2838 0.950 . S
H2812 C2841 0.950 . S
H2813 C2842 0.950 . S
H2814 C2844 0.950 . S
H2815 C2845 0.950 . S
C2816 H2798 0.951 . S
C2816 C2817 1.366 . S
C2816 C2818 1.388 . S
C2817 C2816 1.366 . S
C2817 C2821 1.385 . S
C2818 H2799 0.951 . S
C2818 C2816 1.388 . S
C2818 C2819 1.366 . S
C2819 C2818 1.366 . S
C2819 C2820 1.414 . S
C2819 C2822 1.499 . S
C2820 H2800 0.950 . S
C2820 C2819 1.414 . S
C2820 C2821 1.374 . S
C2821 H2801 0.950 . S
C2821 C2817 1.385 . S
C2821 C2820 1.374 . S
C2822 C2819 1.499 . S
C2822 C2823 1.373 1_556 S
C2822 C2824 1.389 . S
C2823 H2802 0.950 . S
C2823 C2822 1.373 1_554 S
C2823 C2839 1.377 . S
C2824 C2822 1.389 . S
C2824 C2825 1.524 . S
C2824 C2838 1.377 . S
C2825 C2824 1.524 . S
C2825 C2826 1.397 . S
C2825 C2830 1.363 . S
C2826 H2803 0.950 . S
C2826 C2825 1.397 . S
C2826 C2827 1.334 . S
C2827 H2804 0.950 . S
C2827 C2826 1.334 . S
C2827 C2828 1.287 . S
C2828 C2827 1.287 . S
C2828 C2829 1.524 . S
C2828 H2847 0.913 . S
C2829 H2805 0.950 . S
C2829 C2828 1.524 . S
C2829 C2830 1.415 . S
C2830 H2806 0.950 . S
C2830 C2825 1.363 . S
C2830 C2829 1.415 . S
C2831 H2807 0.951 . S
C2831 C2832 1.366 . S
C2831 C2833 1.388 . S
C2832 C2831 1.366 . S
C2832 C2836 1.385 . S
C2833 H2808 0.951 . S
C2833 C2831 1.388 . S
C2833 C2834 1.366 . S
C2834 C2833 1.366 . S
C2834 C2835 1.414 . S
C2834 C2837 1.499 . S
C2835 H2809 0.950 . S
C2835 C2834 1.414 . S
C2835 C2836 1.374 . S
C2836 H2810 0.950 . S
C2836 C2832 1.385 . S
C2836 C2835 1.374 . S
C2837 C2834 1.499 . S
C2837 C2838 1.373 1_554 S
C2837 C2839 1.389 . S
C2838 H2811 0.950 . S
C2838 C2824 1.377 . S
C2838 C2837 1.373 1_556 S
C2839 C2823 1.377 . S
C2839 C2837 1.389 . S
C2839 C2840 1.524 . S
C2840 C2839 1.524 . S
C2840 C2841 1.397 . S
C2840 C2845 1.363 . S
C2841 H2812 0.950 . S
C2841 C2840 1.397 . S
C2841 C2842 1.334 . S
C2842 H2813 0.950 . S
C2842 C2841 1.334 . S
C2842 C2843 1.287 . S
C2843 C2842 1.287 . S
C2843 C2844 1.524 . S
C2843 H2846 0.999 . S
C2844 H2814 0.950 . S
C2844 C2843 1.524 . S
C2844 C2845 1.415 . S
C2845 H2815 0.950 . S
C2845 C2840 1.363 . S
C2845 C2844 1.415 . S
H2846 C2843 0.999 . S
H2847 C2828 0.913 . S
H2848 C2866 0.951 . S
H2849 C2868 0.951 . S
H2850 C2870 0.950 . S
H2851 C2871 0.950 . S
H2852 C2873 0.950 . S
H2853 C2876 0.950 . S
H2854 C2877 0.950 . S
H2855 C2879 0.950 . S
H2856 C2880 0.950 . S
H2857 C2881 0.951 . S
H2858 C2883 0.951 . S
H2859 C2885 0.950 . S
H2860 C2886 0.950 . S
H2861 C2888 0.950 . S
H2862 C2891 0.950 . S
H2863 C2892 0.950 . S
H2864 C2894 0.950 . S
H2865 C2895 0.950 . S
C2866 H2848 0.951 . S
C2866 C2867 1.366 . S
C2866 C2868 1.388 . S
C2867 C2866 1.366 . S
C2867 C2871 1.385 . S
C2868 H2849 0.951 . S
C2868 C2866 1.388 . S
C2868 C2869 1.366 . S
C2869 C2868 1.366 . S
C2869 C2870 1.414 . S
C2869 C2872 1.499 . S
C2870 H2850 0.950 . S
C2870 C2869 1.414 . S
C2870 C2871 1.374 . S
C2871 H2851 0.950 . S
C2871 C2867 1.385 . S
C2871 C2870 1.374 . S
C2872 C2869 1.499 . S
C2872 C2873 1.373 . S
C2872 C2874 1.389 . S
C2873 H2852 0.950 . S
C2873 C2872 1.373 . S
C2873 C2889 1.377 . S
C2874 C2872 1.389 . S
C2874 C2875 1.524 . S
C2874 C2888 1.377 . S
C2875 C2874 1.524 . S
C2875 C2876 1.397 . S
C2875 C2880 1.363 . S
C2876 H2853 0.950 . S
C2876 C2875 1.397 . S
C2876 C2877 1.334 . S
C2877 H2854 0.950 . S
C2877 C2876 1.334 . S
C2877 C2878 1.287 . S
C2878 C2877 1.287 . S
C2878 C2879 1.524 . S
C2878 H2897 0.913 . S
C2879 H2855 0.950 . S
C2879 C2878 1.524 . S
C2879 C2880 1.415 . S
C2880 H2856 0.950 . S
C2880 C2875 1.363 . S
C2880 C2879 1.415 . S
C2881 H2857 0.951 . S
C2881 C2882 1.366 . S
C2881 C2883 1.388 . S
C2882 C2881 1.366 . S
C2882 C2886 1.385 . S
C2883 H2858 0.951 . S
C2883 C2881 1.388 . S
C2883 C2884 1.366 . S
C2884 C2883 1.366 . S
C2884 C2885 1.414 . S
C2884 C2887 1.499 . S
C2885 H2859 0.950 . S
C2885 C2884 1.414 . S
C2885 C2886 1.374 . S
C2886 H2860 0.950 . S
C2886 C2882 1.385 . S
C2886 C2885 1.374 . S
C2887 C2884 1.499 . S
C2887 C2888 1.373 . S
C2887 C2889 1.389 . S
C2888 H2861 0.950 . S
C2888 C2874 1.377 . S
C2888 C2887 1.373 . S
C2889 C2873 1.377 . S
C2889 C2887 1.389 . S
C2889 C2890 1.524 . S
C2890 C2889 1.524 . S
C2890 C2891 1.397 . S
C2890 C2895 1.363 . S
C2891 H2862 0.950 . S
C2891 C2890 1.397 . S
C2891 C2892 1.334 . S
C2892 H2863 0.950 . S
C2892 C2891 1.334 . S
C2892 C2893 1.287 . S
C2893 C2892 1.287 . S
C2893 C2894 1.524 . S
C2893 H2896 0.999 . S
C2894 H2864 0.950 . S
C2894 C2893 1.524 . S
C2894 C2895 1.415 . S
C2895 H2865 0.950 . S
C2895 C2890 1.363 . S
C2895 C2894 1.415 . S
H2896 C2893 0.999 . S
H2897 C2878 0.913 . S
H2898 C2916 0.951 . S
H2899 C2918 0.951 . S
H2900 C2920 0.950 . S
H2901 C2921 0.950 . S
H2902 C2923 0.950 . S
H2903 C2926 0.950 . S
H2904 C2927 0.950 . S
H2905 C2929 0.950 . S
H2906 C2930 0.950 . S
H2907 C2931 0.951 . S
H2908 C2933 0.951 . S
H2909 C2935 0.950 . S
H2910 C2936 0.950 . S
H2911 C2938 0.950 . S
H2912 C2941 0.950 . S
H2913 C2942 0.950 . S
H2914 C2944 0.950 . S
H2915 C2945 0.950 . S
C2916 H2898 0.951 . S
C2916 C2917 1.366 . S
C2916 C2918 1.388 . S
C2917 C2916 1.366 . S
C2917 C2921 1.385 . S
C2918 H2899 0.951 . S
C2918 C2916 1.388 . S
C2918 C2919 1.366 . S
C2919 C2918 1.366 . S
C2919 C2920 1.414 . S
C2919 C2922 1.499 . S
C2920 H2900 0.950 . S
C2920 C2919 1.414 . S
C2920 C2921 1.374 . S
C2921 H2901 0.950 . S
C2921 C2917 1.385 . S
C2921 C2920 1.374 . S
C2922 C2919 1.499 . S
C2922 C2923 1.373 . S
C2922 C2924 1.389 . S
C2923 H2902 0.950 . S
C2923 C2922 1.373 . S
C2923 C2939 1.377 . S
C2924 C2922 1.389 . S
C2924 C2925 1.524 . S
C2924 C2938 1.377 . S
C2925 C2924 1.524 . S
C2925 C2926 1.397 . S
C2925 C2930 1.363 . S
C2926 H2903 0.950 . S
C2926 C2925 1.397 . S
C2926 C2927 1.334 . S
C2927 H2904 0.950 . S
C2927 C2926 1.334 . S
C2927 C2928 1.287 . S
C2928 C2927 1.287 . S
C2928 C2929 1.524 . S
C2928 H2947 0.913 . S
C2929 H2905 0.950 . S
C2929 C2928 1.524 . S
C2929 C2930 1.415 . S
C2930 H2906 0.950 . S
C2930 C2925 1.363 . S
C2930 C2929 1.415 . S
C2931 H2907 0.951 . S
C2931 C2932 1.366 . S
C2931 C2933 1.388 . S
C2932 C2931 1.366 . S
C2932 C2936 1.385 . S
C2933 H2908 0.951 . S
C2933 C2931 1.388 . S
C2933 C2934 1.366 . S
C2934 C2933 1.366 . S
C2934 C2935 1.414 . S
C2934 C2937 1.499 . S
C2935 H2909 0.950 . S
C2935 C2934 1.414 . S
C2935 C2936 1.374 . S
C2936 H2910 0.950 . S
C2936 C2932 1.385 . S
C2936 C2935 1.374 . S
C2937 C2934 1.499 . S
C2937 C2938 1.373 . S
C2937 C2939 1.389 . S
C2938 H2911 0.950 . S
C2938 C2924 1.377 . S
C2938 C2937 1.373 . S
C2939 C2923 1.377 . S
C2939 C2937 1.389 . S
C2939 C2940 1.524 . S
C2940 C2939 1.524 . S
C2940 C2941 1.397 . S
C2940 C2945 1.363 . S
C2941 H2912 0.950 . S
C2941 C2940 1.397 . S
C2941 C2942 1.334 . S
C2942 H2913 0.950 . S
C2942 C2941 1.334 . S
C2942 C2943 1.287 . S
C2943 C2942 1.287 . S
C2943 C2944 1.524 1_455 S
C2943 H2946 0.999 1_455 S
C2944 H2914 0.950 . S
C2944 C2943 1.524 1_655 S
C2944 C2945 1.415 1_655 S
C2945 H2915 0.950 . S
C2945 C2940 1.363 . S
C2945 C2944 1.415 1_455 S
H2946 C2943 0.999 1_655 S
H2947 C2928 0.913 . S
H2948 C2966 0.951 . S
H2949 C2968 0.951 . S
H2950 C2970 0.950 . S
H2951 C2971 0.950 . S
H2952 C2973 0.950 . S
H2953 C2976 0.950 . S
H2954 C2977 0.950 . S
H2955 C2979 0.950 . S
H2956 C2980 0.950 . S
H2957 C2981 0.951 . S
H2958 C2983 0.951 . S
H2959 C2985 0.950 . S
H2960 C2986 0.950 . S
H2961 C2988 0.950 . S
H2962 C2991 0.950 . S
H2963 C2992 0.950 . S
H2964 C2994 0.950 . S
H2965 C2995 0.950 . S
C2966 H2948 0.951 . S
C2966 C2967 1.366 . S
C2966 C2968 1.388 . S
C2967 C2966 1.366 . S
C2967 C2971 1.385 . S
C2968 H2949 0.951 . S
C2968 C2966 1.388 . S
C2968 C2969 1.366 . S
C2969 C2968 1.366 . S
C2969 C2970 1.414 . S
C2969 C2972 1.499 . S
C2970 H2950 0.950 . S
C2970 C2969 1.414 . S
C2970 C2971 1.374 . S
C2971 H2951 0.950 . S
C2971 C2967 1.385 . S
C2971 C2970 1.374 . S
C2972 C2969 1.499 . S
C2972 C2973 1.373 . S
C2972 C2974 1.389 . S
C2973 H2952 0.950 . S
C2973 C2972 1.373 . S
C2973 C2989 1.377 . S
C2974 C2972 1.389 . S
C2974 C2975 1.524 . S
C2974 C2988 1.377 . S
C2975 C2974 1.524 . S
C2975 C2976 1.397 . S
C2975 C2980 1.363 . S
C2976 H2953 0.950 . S
C2976 C2975 1.397 . S
C2976 C2977 1.334 . S
C2977 H2954 0.950 . S
C2977 C2976 1.334 . S
C2977 C2978 1.287 1_655 S
C2978 C2977 1.287 1_455 S
C2978 C2979 1.524 . S
C2978 H2997 0.913 . S
C2979 H2955 0.950 . S
C2979 C2978 1.524 . S
C2979 C2980 1.415 1_455 S
C2980 H2956 0.950 . S
C2980 C2975 1.363 . S
C2980 C2979 1.415 1_655 S
C2981 H2957 0.951 . S
C2981 C2982 1.366 . S
C2981 C2983 1.388 . S
C2982 C2981 1.366 . S
C2982 C2986 1.385 . S
C2983 H2958 0.951 . S
C2983 C2981 1.388 . S
C2983 C2984 1.366 . S
C2984 C2983 1.366 . S
C2984 C2985 1.414 . S
C2984 C2987 1.499 . S
C2985 H2959 0.950 . S
C2985 C2984 1.414 . S
C2985 C2986 1.374 . S
C2986 H2960 0.950 . S
C2986 C2982 1.385 . S
C2986 C2985 1.374 . S
C2987 C2984 1.499 . S
C2987 C2988 1.373 . S
C2987 C2989 1.389 . S
C2988 H2961 0.950 . S
C2988 C2974 1.377 . S
C2988 C2987 1.373 . S
C2989 C2973 1.377 . S
C2989 C2987 1.389 . S
C2989 C2990 1.524 . S
C2990 C2989 1.524 . S
C2990 C2991 1.397 . S
C2990 C2995 1.363 . S
C2991 H2962 0.950 . S
C2991 C2990 1.397 . S
C2991 C2992 1.334 . S
C2992 H2963 0.950 . S
C2992 C2991 1.334 . S
C2992 C2993 1.287 . S
C2993 C2992 1.287 . S
C2993 C2994 1.524 . S
C2993 H2996 0.999 . S
C2994 H2964 0.950 . S
C2994 C2993 1.524 . S
C2994 C2995 1.415 . S
C2995 H2965 0.950 . S
C2995 C2990 1.363 . S
C2995 C2994 1.415 . S
H2996 C2993 0.999 . S
H2997 C2978 0.913 . S
H2998 C3016 0.951 . S
H2999 C3018 0.951 . S
H3000 C3020 0.950 . S
H3001 C3021 0.950 . S
H3002 C3023 0.950 . S
H3003 C3026 0.950 . S
H3004 C3027 0.950 . S
H3005 C3029 0.950 . S
H3006 C3030 0.950 . S
H3007 C3031 0.951 . S
H3008 C3033 0.951 . S
H3009 C3035 0.950 . S
H3010 C3036 0.950 . S
H3011 C3038 0.950 . S
H3012 C3041 0.950 . S
H3013 C3042 0.950 . S
H3014 C3044 0.950 . S
H3015 C3045 0.950 . S
C3016 H2998 0.951 . S
C3016 C3017 1.366 . S
C3016 C3018 1.388 . S
C3017 C3016 1.366 . S
C3017 C3021 1.385 . S
C3018 H2999 0.951 . S
C3018 C3016 1.388 . S
C3018 C3019 1.366 . S
C3019 C3018 1.366 . S
C3019 C3020 1.414 . S
C3019 C3022 1.499 . S
C3020 H3000 0.950 . S
C3020 C3019 1.414 . S
C3020 C3021 1.374 . S
C3021 H3001 0.950 . S
C3021 C3017 1.385 . S
C3021 C3020 1.374 . S
C3022 C3019 1.499 . S
C3022 C3023 1.373 . S
C3022 C3024 1.389 . S
C3023 H3002 0.950 . S
C3023 C3022 1.373 . S
C3023 C3039 1.377 . S
C3024 C3022 1.389 . S
C3024 C3025 1.524 . S
C3024 C3038 1.377 . S
C3025 C3024 1.524 . S
C3025 C3026 1.397 . S
C3025 C3030 1.363 . S
C3026 H3003 0.950 . S
C3026 C3025 1.397 . S
C3026 C3027 1.334 . S
C3027 H3004 0.950 . S
C3027 C3026 1.334 . S
C3027 C3028 1.287 . S
C3028 C3027 1.287 . S
C3028 C3029 1.524 . S
C3028 H3047 0.913 . S
C3029 H3005 0.950 . S
C3029 C3028 1.524 . S
C3029 C3030 1.415 . S
C3030 H3006 0.950 . S
C3030 C3025 1.363 . S
C3030 C3029 1.415 . S
C3031 H3007 0.951 . S
C3031 C3032 1.366 . S
C3031 C3033 1.388 . S
C3032 C3031 1.366 . S
C3032 C3036 1.385 . S
C3033 H3008 0.951 . S
C3033 C3031 1.388 . S
C3033 C3034 1.366 . S
C3034 C3033 1.366 . S
C3034 C3035 1.414 . S
C3034 C3037 1.499 . S
C3035 H3009 0.950 . S
C3035 C3034 1.414 . S
C3035 C3036 1.374 . S
C3036 H3010 0.950 . S
C3036 C3032 1.385 . S
C3036 C3035 1.374 . S
C3037 C3034 1.499 . S
C3037 C3038 1.373 . S
C3037 C3039 1.389 . S
C3038 H3011 0.950 . S
C3038 C3024 1.377 . S
C3038 C3037 1.373 . S
C3039 C3023 1.377 . S
C3039 C3037 1.389 . S
C3039 C3040 1.524 . S
C3040 C3039 1.524 . S
C3040 C3041 1.397 . S
C3040 C3045 1.363 . S
C3041 H3012 0.950 . S
C3041 C3040 1.397 . S
C3041 C3042 1.334 1_655 S
C3042 H3013 0.950 . S
C3042 C3041 1.334 1_455 S
C3042 C3043 1.287 . S
C3043 C3042 1.287 . S
C3043 C3044 1.524 . S
C3043 H3046 0.999 . S
C3044 H3014 0.950 . S
C3044 C3043 1.524 . S
C3044 C3045 1.415 1_455 S
C3045 H3015 0.950 . S
C3045 C3040 1.363 . S
C3045 C3044 1.415 1_655 S
H3046 C3043 0.999 . S
H3047 C3028 0.913 . S
H3048 C3066 0.951 . S
H3049 C3068 0.951 . S
H3050 C3070 0.950 . S
H3051 C3071 0.950 . S
H3052 C3073 0.950 . S
H3053 C3076 0.950 . S
H3054 C3077 0.950 . S
H3055 C3079 0.950 . S
H3056 C3080 0.950 . S
H3057 C3081 0.951 . S
H3058 C3083 0.951 . S
H3059 C3085 0.950 . S
H3060 C3086 0.950 . S
H3061 C3088 0.950 . S
H3062 C3091 0.950 . S
H3063 C3092 0.950 . S
H3064 C3094 0.950 . S
H3065 C3095 0.950 . S
C3066 H3048 0.951 . S
C3066 C3067 1.366 . S
C3066 C3068 1.388 . S
C3067 C3066 1.366 . S
C3067 C3071 1.385 . S
C3068 H3049 0.951 . S
C3068 C3066 1.388 . S
C3068 C3069 1.366 . S
C3069 C3068 1.366 . S
C3069 C3070 1.414 . S
C3069 C3072 1.499 . S
C3070 H3050 0.950 . S
C3070 C3069 1.414 . S
C3070 C3071 1.374 . S
C3071 H3051 0.950 . S
C3071 C3067 1.385 . S
C3071 C3070 1.374 . S
C3072 C3069 1.499 . S
C3072 C3073 1.373 . S
C3072 C3074 1.389 . S
C3073 H3052 0.950 . S
C3073 C3072 1.373 . S
C3073 C3089 1.377 . S
C3074 C3072 1.389 . S
C3074 C3075 1.524 . S
C3074 C3088 1.377 . S
C3075 C3074 1.524 . S
C3075 C3076 1.397 . S
C3075 C3080 1.363 . S
C3076 H3053 0.950 . S
C3076 C3075 1.397 . S
C3076 C3077 1.334 . S
C3077 H3054 0.950 . S
C3077 C3076 1.334 . S
C3077 C3078 1.287 . S
C3078 C3077 1.287 . S
C3078 C3079 1.524 . S
C3078 H3097 0.913 . S
C3079 H3055 0.950 . S
C3079 C3078 1.524 . S
C3079 C3080 1.415 . S
C3080 H3056 0.950 . S
C3080 C3075 1.363 . S
C3080 C3079 1.415 . S
C3081 H3057 0.951 . S
C3081 C3082 1.366 . S
C3081 C3083 1.388 . S
C3082 C3081 1.366 . S
C3082 C3086 1.385 . S
C3083 H3058 0.951 . S
C3083 C3081 1.388 . S
C3083 C3084 1.366 . S
C3084 C3083 1.366 . S
C3084 C3085 1.414 . S
C3084 C3087 1.499 . S
C3085 H3059 0.950 . S
C3085 C3084 1.414 . S
C3085 C3086 1.374 . S
C3086 H3060 0.950 . S
C3086 C3082 1.385 . S
C3086 C3085 1.374 . S
C3087 C3084 1.499 . S
C3087 C3088 1.373 . S
C3087 C3089 1.389 . S
C3088 H3061 0.950 . S
C3088 C3074 1.377 . S
C3088 C3087 1.373 . S
C3089 C3073 1.377 . S
C3089 C3087 1.389 . S
C3089 C3090 1.524 . S
C3090 C3089 1.524 . S
C3090 C3091 1.397 . S
C3090 C3095 1.363 . S
C3091 H3062 0.950 . S
C3091 C3090 1.397 . S
C3091 C3092 1.334 . S
C3092 H3063 0.950 . S
C3092 C3091 1.334 . S
C3092 C3093 1.287 . S
C3093 C3092 1.287 . S
C3093 C3094 1.524 . S
C3093 H3096 0.999 . S
C3094 H3064 0.950 . S
C3094 C3093 1.524 . S
C3094 C3095 1.415 . S
C3095 H3065 0.950 . S
C3095 C3090 1.363 . S
C3095 C3094 1.415 . S
H3096 C3093 0.999 . S
H3097 C3078 0.913 . S
H3098 C3116 0.951 . S
H3099 C3118 0.951 . S
H3100 C3120 0.950 . S
H3101 C3121 0.950 . S
H3102 C3123 0.950 . S
H3103 C3126 0.950 . S
H3104 C3127 0.950 . S
H3105 C3129 0.950 . S
H3106 C3130 0.950 . S
H3107 C3131 0.951 . S
H3108 C3133 0.951 . S
H3109 C3135 0.950 . S
H3110 C3136 0.950 . S
H3111 C3138 0.950 . S
H3112 C3141 0.950 . S
H3113 C3142 0.950 . S
H3114 C3144 0.950 . S
H3115 C3145 0.950 . S
C3116 H3098 0.951 . S
C3116 C3117 1.366 . S
C3116 C3118 1.388 . S
C3117 C3116 1.366 . S
C3117 C3121 1.385 . S
C3118 H3099 0.951 . S
C3118 C3116 1.388 . S
C3118 C3119 1.366 . S
C3119 C3118 1.366 . S
C3119 C3120 1.414 . S
C3119 C3122 1.499 . S
C3120 H3100 0.950 . S
C3120 C3119 1.414 . S
C3120 C3121 1.374 . S
C3121 H3101 0.950 . S
C3121 C3117 1.385 . S
C3121 C3120 1.374 . S
C3122 C3119 1.499 . S
C3122 C3123 1.373 . S
C3122 C3124 1.389 . S
C3123 H3102 0.950 . S
C3123 C3122 1.373 . S
C3123 C3139 1.377 . S
C3124 C3122 1.389 . S
C3124 C3125 1.524 . S
C3124 C3138 1.377 . S
C3125 C3124 1.524 . S
C3125 C3126 1.397 . S
C3125 C3130 1.363 . S
C3126 H3103 0.950 . S
C3126 C3125 1.397 . S
C3126 C3127 1.334 . S
C3127 H3104 0.950 . S
C3127 C3126 1.334 . S
C3127 C3128 1.287 . S
C3128 C3127 1.287 . S
C3128 C3129 1.524 . S
C3128 H3147 0.913 . S
C3129 H3105 0.950 . S
C3129 C3128 1.524 . S
C3129 C3130 1.415 . S
C3130 H3106 0.950 . S
C3130 C3125 1.363 . S
C3130 C3129 1.415 . S
C3131 H3107 0.951 . S
C3131 C3132 1.366 . S
C3131 C3133 1.388 . S
C3132 C3131 1.366 . S
C3132 C3136 1.385 . S
C3133 H3108 0.951 . S
C3133 C3131 1.388 . S
C3133 C3134 1.366 . S
C3134 C3133 1.366 . S
C3134 C3135 1.414 . S
C3134 C3137 1.499 . S
C3135 H3109 0.950 . S
C3135 C3134 1.414 . S
C3135 C3136 1.374 . S
C3136 H3110 0.950 . S
C3136 C3132 1.385 . S
C3136 C3135 1.374 . S
C3137 C3134 1.499 . S
C3137 C3138 1.373 . S
C3137 C3139 1.389 . S
C3138 H3111 0.950 . S
C3138 C3124 1.377 . S
C3138 C3137 1.373 . S
C3139 C3123 1.377 . S
C3139 C3137 1.389 . S
C3139 C3140 1.524 . S
C3140 C3139 1.524 . S
C3140 C3141 1.397 . S
C3140 C3145 1.363 . S
C3141 H3112 0.950 . S
C3141 C3140 1.397 . S
C3141 C3142 1.334 . S
C3142 H3113 0.950 . S
C3142 C3141 1.334 . S
C3142 C3143 1.287 . S
C3143 C3142 1.287 . S
C3143 C3144 1.524 . S
C3143 H3146 0.999 . S
C3144 H3114 0.950 . S
C3144 C3143 1.524 . S
C3144 C3145 1.415 . S
C3145 H3115 0.950 . S
C3145 C3140 1.363 . S
C3145 C3144 1.415 . S
H3146 C3143 0.999 . S
H3147 C3128 0.913 . S
H3148 C3166 0.951 . S
H3149 C3168 0.951 . S
H3150 C3170 0.950 . S
H3151 C3171 0.950 . S
H3152 C3173 0.950 . S
H3153 C3176 0.950 . S
H3154 C3177 0.950 . S
H3155 C3179 0.950 . S
H3156 C3180 0.950 . S
H3157 C3181 0.951 . S
H3158 C3183 0.951 . S
H3159 C3185 0.950 . S
H3160 C3186 0.950 . S
H3161 C3188 0.950 . S
H3162 C3191 0.950 . S
H3163 C3192 0.950 . S
H3164 C3194 0.950 . S
H3165 C3195 0.950 . S
C3166 H3148 0.951 . S
C3166 C3167 1.366 . S
C3166 C3168 1.388 . S
C3167 C3166 1.366 . S
C3167 C3171 1.385 . S
C3168 H3149 0.951 . S
C3168 C3166 1.388 . S
C3168 C3169 1.366 . S
C3169 C3168 1.366 . S
C3169 C3170 1.414 . S
C3169 C3172 1.499 . S
C3170 H3150 0.950 . S
C3170 C3169 1.414 . S
C3170 C3171 1.374 . S
C3171 H3151 0.950 . S
C3171 C3167 1.385 . S
C3171 C3170 1.374 . S
C3172 C3169 1.499 . S
C3172 C3173 1.373 . S
C3172 C3174 1.389 . S
C3173 H3152 0.950 . S
C3173 C3172 1.373 . S
C3173 C3189 1.377 . S
C3174 C3172 1.389 . S
C3174 C3175 1.524 . S
C3174 C3188 1.377 . S
C3175 C3174 1.524 . S
C3175 C3176 1.397 . S
C3175 C3180 1.363 . S
C3176 H3153 0.950 . S
C3176 C3175 1.397 . S
C3176 C3177 1.334 . S
C3177 H3154 0.950 . S
C3177 C3176 1.334 . S
C3177 C3178 1.287 . S
C3178 C3177 1.287 . S
C3178 C3179 1.524 . S
C3178 H3197 0.913 . S
C3179 H3155 0.950 . S
C3179 C3178 1.524 . S
C3179 C3180 1.415 . S
C3180 H3156 0.950 . S
C3180 C3175 1.363 . S
C3180 C3179 1.415 . S
C3181 H3157 0.951 . S
C3181 C3182 1.366 . S
C3181 C3183 1.388 . S
C3182 C3181 1.366 . S
C3182 C3186 1.385 . S
C3183 H3158 0.951 . S
C3183 C3181 1.388 . S
C3183 C3184 1.366 . S
C3184 C3183 1.366 . S
C3184 C3185 1.414 . S
C3184 C3187 1.499 . S
C3185 H3159 0.950 . S
C3185 C3184 1.414 . S
C3185 C3186 1.374 . S
C3186 H3160 0.950 . S
C3186 C3182 1.385 . S
C3186 C3185 1.374 . S
C3187 C3184 1.499 . S
C3187 C3188 1.373 . S
C3187 C3189 1.389 . S
C3188 H3161 0.950 . S
C3188 C3174 1.377 . S
C3188 C3187 1.373 . S
C3189 C3173 1.377 . S
C3189 C3187 1.389 . S
C3189 C3190 1.524 . S
C3190 C3189 1.524 . S
C3190 C3191 1.397 . S
C3190 C3195 1.363 . S
C3191 H3162 0.950 . S
C3191 C3190 1.397 . S
C3191 C3192 1.334 . S
C3192 H3163 0.950 . S
C3192 C3191 1.334 . S
C3192 C3193 1.287 . S
C3193 C3192 1.287 . S
C3193 C3194 1.524 . S
C3193 H3196 0.999 . S
C3194 H3164 0.950 . S
C3194 C3193 1.524 . S
C3194 C3195 1.415 . S
C3195 H3165 0.950 . S
C3195 C3190 1.363 . S
C3195 C3194 1.415 . S
H3196 C3193 0.999 . S
H3197 C3178 0.913 . S
H3198 C3216 0.951 . S
H3199 C3218 0.951 . S
H3200 C3220 0.950 . S
H3201 C3221 0.950 . S
H3202 C3223 0.950 . S
H3203 C3226 0.950 . S
H3204 C3227 0.950 . S
H3205 C3229 0.950 . S
H3206 C3230 0.950 . S
H3207 C3231 0.951 . S
H3208 C3233 0.951 . S
H3209 C3235 0.950 . S
H3210 C3236 0.950 . S
H3211 C3238 0.950 . S
H3212 C3241 0.950 . S
H3213 C3242 0.950 . S
H3214 C3244 0.950 . S
H3215 C3245 0.950 . S
C3216 H3198 0.951 . S
C3216 C3217 1.366 . S
C3216 C3218 1.388 . S
C3217 C3216 1.366 . S
C3217 C3221 1.385 . S
C3218 H3199 0.951 . S
C3218 C3216 1.388 . S
C3218 C3219 1.366 . S
C3219 C3218 1.366 . S
C3219 C3220 1.414 . S
C3219 C3222 1.499 . S
C3220 H3200 0.950 . S
C3220 C3219 1.414 . S
C3220 C3221 1.374 . S
C3221 H3201 0.950 . S
C3221 C3217 1.385 . S
C3221 C3220 1.374 . S
C3222 C3219 1.499 . S
C3222 C3223 1.373 . S
C3222 C3224 1.389 . S
C3223 H3202 0.950 . S
C3223 C3222 1.373 . S
C3223 C3239 1.377 . S
C3224 C3222 1.389 . S
C3224 C3225 1.524 . S
C3224 C3238 1.377 . S
C3225 C3224 1.524 . S
C3225 C3226 1.397 . S
C3225 C3230 1.363 . S
C3226 H3203 0.950 . S
C3226 C3225 1.397 . S
C3226 C3227 1.334 . S
C3227 H3204 0.950 . S
C3227 C3226 1.334 . S
C3227 C3228 1.287 1_655 S
C3228 C3227 1.287 1_455 S
C3228 C3229 1.524 . S
C3228 H3247 0.913 . S
C3229 H3205 0.950 . S
C3229 C3228 1.524 . S
C3229 C3230 1.415 1_455 S
C3230 H3206 0.950 . S
C3230 C3225 1.363 . S
C3230 C3229 1.415 1_655 S
C3231 H3207 0.951 . S
C3231 C3232 1.366 . S
C3231 C3233 1.388 . S
C3232 C3231 1.366 . S
C3232 C3236 1.385 . S
C3233 H3208 0.951 . S
C3233 C3231 1.388 . S
C3233 C3234 1.366 . S
C3234 C3233 1.366 . S
C3234 C3235 1.414 . S
C3234 C3237 1.499 . S
C3235 H3209 0.950 . S
C3235 C3234 1.414 . S
C3235 C3236 1.374 . S
C3236 H3210 0.950 . S
C3236 C3232 1.385 . S
C3236 C3235 1.374 . S
C3237 C3234 1.499 . S
C3237 C3238 1.373 . S
C3237 C3239 1.389 . S
C3238 H3211 0.950 . S
C3238 C3224 1.377 . S
C3238 C3237 1.373 . S
C3239 C3223 1.377 . S
C3239 C3237 1.389 . S
C3239 C3240 1.524 . S
C3240 C3239 1.524 . S
C3240 C3241 1.397 . S
C3240 C3245 1.363 . S
C3241 H3212 0.950 . S
C3241 C3240 1.397 . S
C3241 C3242 1.334 . S
C3242 H3213 0.950 . S
C3242 C3241 1.334 . S
C3242 C3243 1.287 . S
C3243 C3242 1.287 . S
C3243 C3244 1.524 . S
C3243 H3246 0.999 . S
C3244 H3214 0.950 . S
C3244 C3243 1.524 . S
C3244 C3245 1.415 . S
C3245 H3215 0.950 . S
C3245 C3240 1.363 . S
C3245 C3244 1.415 . S
H3246 C3243 0.999 . S
H3247 C3228 0.913 . S
H3248 C3266 0.951 . S
H3249 C3268 0.951 . S
H3250 C3270 0.950 . S
H3251 C3271 0.950 . S
H3252 C3273 0.950 . S
H3253 C3276 0.950 . S
H3254 C3277 0.950 . S
H3255 C3279 0.950 . S
H3256 C3280 0.950 . S
H3257 C3281 0.951 . S
H3258 C3283 0.951 . S
H3259 C3285 0.950 . S
H3260 C3286 0.950 . S
H3261 C3288 0.950 . S
H3262 C3291 0.950 . S
H3263 C3292 0.950 . S
H3264 C3294 0.950 . S
H3265 C3295 0.950 . S
C3266 H3248 0.951 . S
C3266 C3267 1.366 . S
C3266 C3268 1.388 . S
C3267 C3266 1.366 . S
C3267 C3271 1.385 . S
C3268 H3249 0.951 . S
C3268 C3266 1.388 . S
C3268 C3269 1.366 . S
C3269 C3268 1.366 . S
C3269 C3270 1.414 . S
C3269 C3272 1.499 . S
C3270 H3250 0.950 . S
C3270 C3269 1.414 . S
C3270 C3271 1.374 . S
C3271 H3251 0.950 . S
C3271 C3267 1.385 . S
C3271 C3270 1.374 . S
C3272 C3269 1.499 . S
C3272 C3273 1.373 . S
C3272 C3274 1.389 . S
C3273 H3252 0.950 . S
C3273 C3272 1.373 . S
C3273 C3289 1.377 . S
C3274 C3272 1.389 . S
C3274 C3275 1.524 . S
C3274 C3288 1.377 . S
C3275 C3274 1.524 . S
C3275 C3276 1.397 . S
C3275 C3280 1.363 . S
C3276 H3253 0.950 . S
C3276 C3275 1.397 . S
C3276 C3277 1.334 . S
C3277 H3254 0.950 . S
C3277 C3276 1.334 . S
C3277 C3278 1.287 . S
C3278 C3277 1.287 . S
C3278 C3279 1.524 . S
C3278 H3297 0.913 . S
C3279 H3255 0.950 . S
C3279 C3278 1.524 . S
C3279 C3280 1.415 . S
C3280 H3256 0.950 . S
C3280 C3275 1.363 . S
C3280 C3279 1.415 . S
C3281 H3257 0.951 . S
C3281 C3282 1.366 . S
C3281 C3283 1.388 . S
C3282 C3281 1.366 . S
C3282 C3286 1.385 . S
C3283 H3258 0.951 . S
C3283 C3281 1.388 . S
C3283 C3284 1.366 . S
C3284 C3283 1.366 . S
C3284 C3285 1.414 . S
C3284 C3287 1.499 . S
C3285 H3259 0.950 . S
C3285 C3284 1.414 . S
C3285 C3286 1.374 . S
C3286 H3260 0.950 . S
C3286 C3282 1.385 . S
C3286 C3285 1.374 . S
C3287 C3284 1.499 . S
C3287 C3288 1.373 . S
C3287 C3289 1.389 . S
C3288 H3261 0.950 . S
C3288 C3274 1.377 . S
C3288 C3287 1.373 . S
C3289 C3273 1.377 . S
C3289 C3287 1.389 . S
C3289 C3290 1.524 . S
C3290 C3289 1.524 . S
C3290 C3291 1.397 . S
C3290 C3295 1.363 . S
C3291 H3262 0.950 . S
C3291 C3290 1.397 . S
C3291 C3292 1.334 . S
C3292 H3263 0.950 . S
C3292 C3291 1.334 . S
C3292 C3293 1.287 . S
C3293 C3292 1.287 . S
C3293 C3294 1.524 . S
C3293 H3296 0.999 . S
C3294 H3264 0.950 . S
C3294 C3293 1.524 . S
C3294 C3295 1.415 . S
C3295 H3265 0.950 . S
C3295 C3290 1.363 . S
C3295 C3294 1.415 . S
H3296 C3293 0.999 . S
H3297 C3278 0.913 . S
H3298 C3316 0.951 . S
H3299 C3318 0.951 . S
H3300 C3320 0.950 . S
H3301 C3321 0.950 . S
H3302 C3323 0.950 . S
H3303 C3326 0.950 . S
H3304 C3327 0.950 . S
H3305 C3329 0.950 . S
H3306 C3330 0.950 . S
H3307 C3331 0.951 . S
H3308 C3333 0.951 . S
H3309 C3335 0.950 . S
H3310 C3336 0.950 . S
H3311 C3338 0.950 . S
H3312 C3341 0.950 . S
H3313 C3342 0.950 . S
H3314 C3344 0.950 . S
H3315 C3345 0.950 . S
C3316 H3298 0.951 . S
C3316 C3317 1.366 . S
C3316 C3318 1.388 . S
C3317 C3316 1.366 . S
C3317 C3321 1.385 . S
C3318 H3299 0.951 . S
C3318 C3316 1.388 . S
C3318 C3319 1.366 . S
C3319 C3318 1.366 . S
C3319 C3320 1.414 . S
C3319 C3322 1.499 . S
C3320 H3300 0.950 . S
C3320 C3319 1.414 . S
C3320 C3321 1.374 . S
C3321 H3301 0.950 . S
C3321 C3317 1.385 . S
C3321 C3320 1.374 . S
C3322 C3319 1.499 . S
C3322 C3323 1.373 . S
C3322 C3324 1.389 . S
C3323 H3302 0.950 . S
C3323 C3322 1.373 . S
C3323 C3339 1.377 . S
C3324 C3322 1.389 . S
C3324 C3325 1.524 . S
C3324 C3338 1.377 . S
C3325 C3324 1.524 . S
C3325 C3326 1.397 . S
C3325 C3330 1.363 . S
C3326 H3303 0.950 . S
C3326 C3325 1.397 . S
C3326 C3327 1.334 . S
C3327 H3304 0.950 . S
C3327 C3326 1.334 . S
C3327 C3328 1.287 . S
C3328 C3327 1.287 . S
C3328 C3329 1.524 . S
C3328 H3347 0.913 . S
C3329 H3305 0.950 . S
C3329 C3328 1.524 . S
C3329 C3330 1.415 . S
C3330 H3306 0.950 . S
C3330 C3325 1.363 . S
C3330 C3329 1.415 . S
C3331 H3307 0.951 . S
C3331 C3332 1.366 . S
C3331 C3333 1.388 . S
C3332 C3331 1.366 . S
C3332 C3336 1.385 . S
C3333 H3308 0.951 . S
C3333 C3331 1.388 . S
C3333 C3334 1.366 . S
C3334 C3333 1.366 . S
C3334 C3335 1.414 . S
C3334 C3337 1.499 . S
C3335 H3309 0.950 . S
C3335 C3334 1.414 . S
C3335 C3336 1.374 . S
C3336 H3310 0.950 . S
C3336 C3332 1.385 . S
C3336 C3335 1.374 . S
C3337 C3334 1.499 . S
C3337 C3338 1.373 . S
C3337 C3339 1.389 . S
C3338 H3311 0.950 . S
C3338 C3324 1.377 . S
C3338 C3337 1.373 . S
C3339 C3323 1.377 . S
C3339 C3337 1.389 . S
C3339 C3340 1.524 . S
C3340 C3339 1.524 . S
C3340 C3341 1.397 . S
C3340 C3345 1.363 . S
C3341 H3312 0.950 . S
C3341 C3340 1.397 . S
C3341 C3342 1.334 . S
C3342 H3313 0.950 . S
C3342 C3341 1.334 . S
C3342 C3343 1.287 . S
C3343 C3342 1.287 . S
C3343 C3344 1.524 . S
C3343 H3346 0.999 . S
C3344 H3314 0.950 . S
C3344 C3343 1.524 . S
C3344 C3345 1.415 . S
C3345 H3315 0.950 . S
C3345 C3340 1.363 . S
C3345 C3344 1.415 . S
H3346 C3343 0.999 . S
H3347 C3328 0.913 . S
H3348 C3366 0.951 . S
H3349 C3368 0.951 . S
H3350 C3370 0.950 . S
H3351 C3371 0.950 . S
H3352 C3373 0.950 . S
H3353 C3376 0.950 . S
H3354 C3377 0.950 . S
H3355 C3379 0.950 . S
H3356 C3380 0.950 . S
H3357 C3381 0.951 . S
H3358 C3383 0.951 . S
H3359 C3385 0.950 . S
H3360 C3386 0.950 . S
H3361 C3388 0.950 . S
H3362 C3391 0.950 . S
H3363 C3392 0.950 . S
H3364 C3394 0.950 . S
H3365 C3395 0.950 . S
C3366 H3348 0.951 . S
C3366 C3367 1.366 . S
C3366 C3368 1.388 . S
C3367 C3366 1.366 . S
C3367 C3371 1.385 . S
C3368 H3349 0.951 . S
C3368 C3366 1.388 . S
C3368 C3369 1.366 . S
C3369 C3368 1.366 . S
C3369 C3370 1.414 . S
C3369 C3372 1.499 . S
C3370 H3350 0.950 . S
C3370 C3369 1.414 . S
C3370 C3371 1.374 . S
C3371 H3351 0.950 . S
C3371 C3367 1.385 . S
C3371 C3370 1.374 . S
C3372 C3369 1.499 . S
C3372 C3373 1.373 . S
C3372 C3374 1.389 . S
C3373 H3352 0.950 . S
C3373 C3372 1.373 . S
C3373 C3389 1.377 . S
C3374 C3372 1.389 . S
C3374 C3375 1.524 . S
C3374 C3388 1.377 . S
C3375 C3374 1.524 . S
C3375 C3376 1.397 . S
C3375 C3380 1.363 . S
C3376 H3353 0.950 . S
C3376 C3375 1.397 . S
C3376 C3377 1.334 . S
C3377 H3354 0.950 . S
C3377 C3376 1.334 . S
C3377 C3378 1.287 . S
C3378 C3377 1.287 . S
C3378 C3379 1.524 . S
C3378 H3397 0.913 . S
C3379 H3355 0.950 . S
C3379 C3378 1.524 . S
C3379 C3380 1.415 . S
C3380 H3356 0.950 . S
C3380 C3375 1.363 . S
C3380 C3379 1.415 . S
C3381 H3357 0.951 . S
C3381 C3382 1.366 . S
C3381 C3383 1.388 . S
C3382 C3381 1.366 . S
C3382 C3386 1.385 . S
C3383 H3358 0.951 . S
C3383 C3381 1.388 . S
C3383 C3384 1.366 . S
C3384 C3383 1.366 . S
C3384 C3385 1.414 . S
C3384 C3387 1.499 . S
C3385 H3359 0.950 . S
C3385 C3384 1.414 . S
C3385 C3386 1.374 . S
C3386 H3360 0.950 . S
C3386 C3382 1.385 . S
C3386 C3385 1.374 . S
C3387 C3384 1.499 . S
C3387 C3388 1.373 . S
C3387 C3389 1.389 . S
C3388 H3361 0.950 . S
C3388 C3374 1.377 . S
C3388 C3387 1.373 . S
C3389 C3373 1.377 . S
C3389 C3387 1.389 . S
C3389 C3390 1.524 . S
C3390 C3389 1.524 . S
C3390 C3391 1.397 . S
C3390 C3395 1.363 . S
C3391 H3362 0.950 . S
C3391 C3390 1.397 . S
C3391 C3392 1.334 . S
C3392 H3363 0.950 . S
C3392 C3391 1.334 . S
C3392 C3393 1.287 . S
C3393 C3392 1.287 . S
C3393 C3394 1.524 . S
C3393 H3396 0.999 . S
C3394 H3364 0.950 . S
C3394 C3393 1.524 . S
C3394 C3395 1.415 . S
C3395 H3365 0.950 . S
C3395 C3390 1.363 . S
C3395 C3394 1.415 . S
H3396 C3393 0.999 . S
H3397 C3378 0.913 . S
H3398 C3416 0.951 . S
H3399 C3418 0.951 . S
H3400 C3420 0.950 . S
H3401 C3421 0.950 . S
H3402 C3423 0.950 . S
H3403 C3426 0.950 . S
H3404 C3427 0.950 . S
H3405 C3429 0.950 . S
H3406 C3430 0.950 . S
H3407 C3431 0.951 . S
H3408 C3433 0.951 . S
H3409 C3435 0.950 . S
H3410 C3436 0.950 . S
H3411 C3438 0.950 . S
H3412 C3441 0.950 . S
H3413 C3442 0.950 . S
H3414 C3444 0.950 . S
H3415 C3445 0.950 . S
C3416 H3398 0.951 . S
C3416 C3417 1.366 . S
C3416 C3418 1.388 . S
C3417 C3416 1.366 . S
C3417 C3421 1.385 . S
C3418 H3399 0.951 . S
C3418 C3416 1.388 . S
C3418 C3419 1.366 . S
C3419 C3418 1.366 . S
C3419 C3420 1.414 . S
C3419 C3422 1.499 . S
C3420 H3400 0.950 . S
C3420 C3419 1.414 . S
C3420 C3421 1.374 . S
C3421 H3401 0.950 . S
C3421 C3417 1.385 . S
C3421 C3420 1.374 . S
C3422 C3419 1.499 . S
C3422 C3423 1.373 . S
C3422 C3424 1.389 . S
C3423 H3402 0.950 . S
C3423 C3422 1.373 . S
C3423 C3439 1.377 . S
C3424 C3422 1.389 . S
C3424 C3425 1.524 . S
C3424 C3438 1.377 . S
C3425 C3424 1.524 . S
C3425 C3426 1.397 . S
C3425 C3430 1.363 . S
C3426 H3403 0.950 . S
C3426 C3425 1.397 . S
C3426 C3427 1.334 . S
C3427 H3404 0.950 . S
C3427 C3426 1.334 . S
C3427 C3428 1.287 . S
C3428 C3427 1.287 . S
C3428 C3429 1.524 . S
C3428 H3447 0.913 . S
C3429 H3405 0.950 . S
C3429 C3428 1.524 . S
C3429 C3430 1.415 . S
C3430 H3406 0.950 . S
C3430 C3425 1.363 . S
C3430 C3429 1.415 . S
C3431 H3407 0.951 . S
C3431 C3432 1.366 . S
C3431 C3433 1.388 . S
C3432 C3431 1.366 . S
C3432 C3436 1.385 . S
C3433 H3408 0.951 . S
C3433 C3431 1.388 . S
C3433 C3434 1.366 . S
C3434 C3433 1.366 . S
C3434 C3435 1.414 . S
C3434 C3437 1.499 . S
C3435 H3409 0.950 . S
C3435 C3434 1.414 . S
C3435 C3436 1.374 . S
C3436 H3410 0.950 . S
C3436 C3432 1.385 . S
C3436 C3435 1.374 . S
C3437 C3434 1.499 . S
C3437 C3438 1.373 . S
C3437 C3439 1.389 . S
C3438 H3411 0.950 . S
C3438 C3424 1.377 . S
C3438 C3437 1.373 . S
C3439 C3423 1.377 . S
C3439 C3437 1.389 . S
C3439 C3440 1.524 . S
C3440 C3439 1.524 . S
C3440 C3441 1.397 . S
C3440 C3445 1.363 . S
C3441 H3412 0.950 . S
C3441 C3440 1.397 . S
C3441 C3442 1.334 . S
C3442 H3413 0.950 . S
C3442 C3441 1.334 . S
C3442 C3443 1.287 . S
C3443 C3442 1.287 . S
C3443 C3444 1.524 . S
C3443 H3446 0.999 . S
C3444 H3414 0.950 . S
C3444 C3443 1.524 . S
C3444 C3445 1.415 . S
C3445 H3415 0.950 . S
C3445 C3440 1.363 . S
C3445 C3444 1.415 . S
H3446 C3443 0.999 . S
H3447 C3428 0.913 . S
H3448 C3466 0.951 . S
H3449 C3468 0.951 . S
H3450 C3470 0.950 . S
H3451 C3471 0.950 . S
H3452 C3473 0.950 . S
H3453 C3476 0.950 . S
H3454 C3477 0.950 . S
H3455 C3479 0.950 . S
H3456 C3480 0.950 . S
H3457 C3481 0.951 . S
H3458 C3483 0.951 . S
H3459 C3485 0.950 . S
H3460 C3486 0.950 . S
H3461 C3488 0.950 . S
H3462 C3491 0.950 . S
H3463 C3492 0.950 . S
H3464 C3494 0.950 . S
H3465 C3495 0.950 . S
C3466 H3448 0.951 . S
C3466 C3467 1.366 . S
C3466 C3468 1.388 . S
C3467 C3466 1.366 . S
C3467 C3471 1.385 . S
C3468 H3449 0.951 . S
C3468 C3466 1.388 . S
C3468 C3469 1.366 . S
C3469 C3468 1.366 . S
C3469 C3470 1.414 . S
C3469 C3472 1.499 . S
C3470 H3450 0.950 . S
C3470 C3469 1.414 . S
C3470 C3471 1.374 . S
C3471 H3451 0.950 . S
C3471 C3467 1.385 . S
C3471 C3470 1.374 . S
C3472 C3469 1.499 . S
C3472 C3473 1.373 . S
C3472 C3474 1.389 . S
C3473 H3452 0.950 . S
C3473 C3472 1.373 . S
C3473 C3489 1.377 . S
C3474 C3472 1.389 . S
C3474 C3475 1.524 . S
C3474 C3488 1.377 . S
C3475 C3474 1.524 . S
C3475 C3476 1.397 . S
C3475 C3480 1.363 . S
C3476 H3453 0.950 . S
C3476 C3475 1.397 . S
C3476 C3477 1.334 . S
C3477 H3454 0.950 . S
C3477 C3476 1.334 . S
C3477 C3478 1.287 . S
C3478 C3477 1.287 . S
C3478 C3479 1.524 . S
C3478 H3497 0.913 . S
C3479 H3455 0.950 . S
C3479 C3478 1.524 . S
C3479 C3480 1.415 . S
C3480 H3456 0.950 . S
C3480 C3475 1.363 . S
C3480 C3479 1.415 . S
C3481 H3457 0.951 . S
C3481 C3482 1.366 . S
C3481 C3483 1.388 . S
C3482 C3481 1.366 . S
C3482 C3486 1.385 . S
C3483 H3458 0.951 . S
C3483 C3481 1.388 . S
C3483 C3484 1.366 . S
C3484 C3483 1.366 . S
C3484 C3485 1.414 . S
C3484 C3487 1.499 . S
C3485 H3459 0.950 . S
C3485 C3484 1.414 . S
C3485 C3486 1.374 . S
C3486 H3460 0.950 . S
C3486 C3482 1.385 . S
C3486 C3485 1.374 . S
C3487 C3484 1.499 . S
C3487 C3488 1.373 . S
C3487 C3489 1.389 . S
C3488 H3461 0.950 . S
C3488 C3474 1.377 . S
C3488 C3487 1.373 . S
C3489 C3473 1.377 . S
C3489 C3487 1.389 . S
C3489 C3490 1.524 . S
C3490 C3489 1.524 . S
C3490 C3491 1.397 . S
C3490 C3495 1.363 . S
C3491 H3462 0.950 . S
C3491 C3490 1.397 . S
C3491 C3492 1.334 . S
C3492 H3463 0.950 . S
C3492 C3491 1.334 . S
C3492 C3493 1.287 . S
C3493 C3492 1.287 . S
C3493 C3494 1.524 . S
C3493 H3496 0.999 . S
C3494 H3464 0.950 . S
C3494 C3493 1.524 . S
C3494 C3495 1.415 . S
C3495 H3465 0.950 . S
C3495 C3490 1.363 . S
C3495 C3494 1.415 . S
H3496 C3493 0.999 . S
H3497 C3478 0.913 . S
H3498 C3516 0.951 . S
H3499 C3518 0.951 . S
H3500 C3520 0.950 . S
H3501 C3521 0.950 . S
H3502 C3523 0.950 . S
H3503 C3526 0.950 . S
H3504 C3527 0.950 . S
H3505 C3529 0.950 . S
H3506 C3530 0.950 . S
H3507 C3531 0.951 . S
H3508 C3533 0.951 . S
H3509 C3535 0.950 . S
H3510 C3536 0.950 . S
H3511 C3538 0.950 . S
H3512 C3541 0.950 . S
H3513 C3542 0.950 . S
H3514 C3544 0.950 . S
H3515 C3545 0.950 . S
C3516 H3498 0.951 . S
C3516 C3517 1.366 . S
C3516 C3518 1.388 . S
C3517 C3516 1.366 . S
C3517 C3521 1.385 . S
C3518 H3499 0.951 . S
C3518 C3516 1.388 . S
C3518 C3519 1.366 . S
C3519 C3518 1.366 . S
C3519 C3520 1.414 . S
C3519 C3522 1.499 . S
C3520 H3500 0.950 . S
C3520 C3519 1.414 . S
C3520 C3521 1.374 . S
C3521 H3501 0.950 . S
C3521 C3517 1.385 . S
C3521 C3520 1.374 . S
C3522 C3519 1.499 . S
C3522 C3523 1.373 . S
C3522 C3524 1.389 . S
C3523 H3502 0.950 . S
C3523 C3522 1.373 . S
C3523 C3539 1.377 . S
C3524 C3522 1.389 . S
C3524 C3525 1.524 . S
C3524 C3538 1.377 . S
C3525 C3524 1.524 . S
C3525 C3526 1.397 . S
C3525 C3530 1.363 . S
C3526 H3503 0.950 . S
C3526 C3525 1.397 . S
C3526 C3527 1.334 . S
C3527 H3504 0.950 . S
C3527 C3526 1.334 . S
C3527 C3528 1.287 . S
C3528 C3527 1.287 . S
C3528 C3529 1.524 . S
C3528 H3547 0.913 . S
C3529 H3505 0.950 . S
C3529 C3528 1.524 . S
C3529 C3530 1.415 . S
C3530 H3506 0.950 . S
C3530 C3525 1.363 . S
C3530 C3529 1.415 . S
C3531 H3507 0.951 . S
C3531 C3532 1.366 . S
C3531 C3533 1.388 . S
C3532 C3531 1.366 . S
C3532 C3536 1.385 . S
C3533 H3508 0.951 . S
C3533 C3531 1.388 . S
C3533 C3534 1.366 . S
C3534 C3533 1.366 . S
C3534 C3535 1.414 . S
C3534 C3537 1.499 . S
C3535 H3509 0.950 . S
C3535 C3534 1.414 . S
C3535 C3536 1.374 . S
C3536 H3510 0.950 . S
C3536 C3532 1.385 . S
C3536 C3535 1.374 . S
C3537 C3534 1.499 . S
C3537 C3538 1.373 . S
C3537 C3539 1.389 . S
C3538 H3511 0.950 . S
C3538 C3524 1.377 . S
C3538 C3537 1.373 . S
C3539 C3523 1.377 . S
C3539 C3537 1.389 . S
C3539 C3540 1.524 . S
C3540 C3539 1.524 . S
C3540 C3541 1.397 . S
C3540 C3545 1.363 . S
C3541 H3512 0.950 . S
C3541 C3540 1.397 . S
C3541 C3542 1.334 . S
C3542 H3513 0.950 . S
C3542 C3541 1.334 . S
C3542 C3543 1.287 . S
C3543 C3542 1.287 . S
C3543 C3544 1.524 . S
C3543 H3546 0.999 . S
C3544 H3514 0.950 . S
C3544 C3543 1.524 . S
C3544 C3545 1.415 . S
C3545 H3515 0.950 . S
C3545 C3540 1.363 . S
C3545 C3544 1.415 . S
H3546 C3543 0.999 . S
H3547 C3528 0.913 . S
H3548 C3566 0.951 . S
H3549 C3568 0.951 . S
H3550 C3570 0.950 . S
H3551 C3571 0.950 . S
H3552 C3573 0.950 . S
H3553 C3576 0.950 . S
H3554 C3577 0.950 . S
H3555 C3579 0.950 . S
H3556 C3580 0.950 . S
H3557 C3581 0.951 . S
H3558 C3583 0.951 . S
H3559 C3585 0.950 . S
H3560 C3586 0.950 . S
H3561 C3588 0.950 . S
H3562 C3591 0.950 . S
H3563 C3592 0.950 . S
H3564 C3594 0.950 . S
H3565 C3595 0.950 . S
C3566 H3548 0.951 . S
C3566 C3567 1.366 . S
C3566 C3568 1.388 . S
C3567 C3566 1.366 . S
C3567 C3571 1.385 . S
C3568 H3549 0.951 . S
C3568 C3566 1.388 . S
C3568 C3569 1.366 . S
C3569 C3568 1.366 . S
C3569 C3570 1.414 . S
C3569 C3572 1.499 . S
C3570 H3550 0.950 . S
C3570 C3569 1.414 . S
C3570 C3571 1.374 . S
C3571 H3551 0.950 . S
C3571 C3567 1.385 . S
C3571 C3570 1.374 . S
C3572 C3569 1.499 . S
C3572 C3573 1.373 . S
C3572 C3574 1.389 . S
C3573 H3552 0.950 . S
C3573 C3572 1.373 . S
C3573 C3589 1.377 . S
C3574 C3572 1.389 . S
C3574 C3575 1.524 . S
C3574 C3588 1.377 . S
C3575 C3574 1.524 . S
C3575 C3576 1.397 . S
C3575 C3580 1.363 . S
C3576 H3553 0.950 . S
C3576 C3575 1.397 . S
C3576 C3577 1.334 . S
C3577 H3554 0.950 . S
C3577 C3576 1.334 . S
C3577 C3578 1.287 . S
C3578 C3577 1.287 . S
C3578 C3579 1.524 . S
C3578 H3597 0.913 . S
C3579 H3555 0.950 . S
C3579 C3578 1.524 . S
C3579 C3580 1.415 . S
C3580 H3556 0.950 . S
C3580 C3575 1.363 . S
C3580 C3579 1.415 . S
C3581 H3557 0.951 . S
C3581 C3582 1.366 . S
C3581 C3583 1.388 . S
C3582 C3581 1.366 . S
C3582 C3586 1.385 . S
C3583 H3558 0.951 . S
C3583 C3581 1.388 . S
C3583 C3584 1.366 . S
C3584 C3583 1.366 . S
C3584 C3585 1.414 . S
C3584 C3587 1.499 . S
C3585 H3559 0.950 . S
C3585 C3584 1.414 . S
C3585 C3586 1.374 . S
C3586 H3560 0.950 . S
C3586 C3582 1.385 . S
C3586 C3585 1.374 . S
C3587 C3584 1.499 . S
C3587 C3588 1.373 . S
C3587 C3589 1.389 . S
C3588 H3561 0.950 . S
C3588 C3574 1.377 . S
C3588 C3587 1.373 . S
C3589 C3573 1.377 . S
C3589 C3587 1.389 . S
C3589 C3590 1.524 . S
C3590 C3589 1.524 . S
C3590 C3591 1.397 . S
C3590 C3595 1.363 . S
C3591 H3562 0.950 . S
C3591 C3590 1.397 . S
C3591 C3592 1.334 . S
C3592 H3563 0.950 . S
C3592 C3591 1.334 . S
C3592 C3593 1.287 . S
C3593 C3592 1.287 . S
C3593 C3594 1.524 . S
C3593 H3596 0.999 . S
C3594 H3564 0.950 . S
C3594 C3593 1.524 . S
C3594 C3595 1.415 . S
C3595 H3565 0.950 . S
C3595 C3590 1.363 . S
C3595 C3594 1.415 . S
H3596 C3593 0.999 . S
H3597 C3578 0.913 . S
H3598 C3616 0.951 . S
H3599 C3618 0.951 . S
H3600 C3620 0.950 . S
H3601 C3621 0.950 . S
H3602 C3623 0.950 . S
H3603 C3626 0.950 . S
H3604 C3627 0.950 . S
H3605 C3629 0.950 . S
H3606 C3630 0.950 . S
H3607 C3631 0.951 . S
H3608 C3633 0.951 . S
H3609 C3635 0.950 . S
H3610 C3636 0.950 . S
H3611 C3638 0.950 . S
H3612 C3641 0.950 . S
H3613 C3642 0.950 . S
H3614 C3644 0.950 . S
H3615 C3645 0.950 . S
C3616 H3598 0.951 . S
C3616 C3617 1.366 . S
C3616 C3618 1.388 . S
C3617 C3616 1.366 . S
C3617 C3621 1.385 . S
C3618 H3599 0.951 . S
C3618 C3616 1.388 . S
C3618 C3619 1.366 . S
C3619 C3618 1.366 . S
C3619 C3620 1.414 . S
C3619 C3622 1.499 . S
C3620 H3600 0.950 . S
C3620 C3619 1.414 . S
C3620 C3621 1.374 . S
C3621 H3601 0.950 . S
C3621 C3617 1.385 . S
C3621 C3620 1.374 . S
C3622 C3619 1.499 . S
C3622 C3623 1.373 . S
C3622 C3624 1.389 . S
C3623 H3602 0.950 . S
C3623 C3622 1.373 . S
C3623 C3639 1.377 . S
C3624 C3622 1.389 . S
C3624 C3625 1.524 . S
C3624 C3638 1.377 . S
C3625 C3624 1.524 . S
C3625 C3626 1.397 . S
C3625 C3630 1.363 . S
C3626 H3603 0.950 . S
C3626 C3625 1.397 . S
C3626 C3627 1.334 . S
C3627 H3604 0.950 . S
C3627 C3626 1.334 . S
C3627 C3628 1.287 . S
C3628 C3627 1.287 . S
C3628 C3629 1.524 . S
C3628 H3647 0.913 . S
C3629 H3605 0.950 . S
C3629 C3628 1.524 . S
C3629 C3630 1.415 . S
C3630 H3606 0.950 . S
C3630 C3625 1.363 . S
C3630 C3629 1.415 . S
C3631 H3607 0.951 . S
C3631 C3632 1.366 . S
C3631 C3633 1.388 . S
C3632 C3631 1.366 . S
C3632 C3636 1.385 . S
C3633 H3608 0.951 . S
C3633 C3631 1.388 . S
C3633 C3634 1.366 . S
C3634 C3633 1.366 . S
C3634 C3635 1.414 . S
C3634 C3637 1.499 . S
C3635 H3609 0.950 . S
C3635 C3634 1.414 . S
C3635 C3636 1.374 . S
C3636 H3610 0.950 . S
C3636 C3632 1.385 . S
C3636 C3635 1.374 . S
C3637 C3634 1.499 . S
C3637 C3638 1.373 . S
C3637 C3639 1.389 . S
C3638 H3611 0.950 . S
C3638 C3624 1.377 . S
C3638 C3637 1.373 . S
C3639 C3623 1.377 . S
C3639 C3637 1.389 . S
C3639 C3640 1.524 . S
C3640 C3639 1.524 . S
C3640 C3641 1.397 . S
C3640 C3645 1.363 . S
C3641 H3612 0.950 . S
C3641 C3640 1.397 . S
C3641 C3642 1.334 . S
C3642 H3613 0.950 . S
C3642 C3641 1.334 . S
C3642 C3643 1.287 . S
C3643 C3642 1.287 . S
C3643 C3644 1.524 . S
C3643 H3646 0.999 . S
C3644 H3614 0.950 . S
C3644 C3643 1.524 . S
C3644 C3645 1.415 . S
C3645 H3615 0.950 . S
C3645 C3640 1.363 . S
C3645 C3644 1.415 . S
H3646 C3643 0.999 . S
H3647 C3628 0.913 . S
C467 C149 1.208 . S
C482 C9 1.207 . S
C517 C23 1.207 . S
C532 C163 1.208 . S
C567 C37 1.208 . S
C582 C121 1.207 . S
C617 C135 1.208 . S
C632 C51 1.207 . S
C667 C199 1.108 . S
C682 C59 1.108 . S
C717 C73 1.108 . S
C732 C213 1.108 . S
C767 C171 1.108 . S
C782 C87 1.108 . S
C817 C185 1.108 . S
C832 C101 1.108 . S
C867 C373 1.208 . S
C882 C233 1.207 . S
C917 C387 1.207 . S
C932 C247 1.207 . S
C967 C345 1.207 . S
C982 C261 1.208 . S
C1017 C275 1.208 . S
C1032 C359 1.207 . S
C1067 C423 1.108 . S
C1082 C283 1.108 . S
C1117 C437 1.108 . S
C1132 C297 1.107 . S
C1167 C311 1.108 . S
C1182 C395 1.108 . S
C1217 C325 1.108 . S
C1232 C409 1.108 . S
C1267 C269 1.350 . S
C1282 C3 1.350 . S
C1317 C17 1.350 . S
C1332 C255 1.350 . S
C1367 C241 1.350 . S
C1382 C31 1.350 . S
C1417 C227 1.350 . S
C1432 C45 1.350 . S
C1467 C65 1.137 . S
C1482 C331 1.137 . S
C1517 C79 1.137 . S
C1532 C317 1.137 . S
C1567 C303 1.137 . S
C1582 C93 1.137 . S
C1617 C107 1.137 . S
C1632 C289 1.137 . S
C1667 C381 1.350 . S
C1682 C115 1.350 . S
C1717 C367 1.350 . S
C1732 C129 1.350 . S
C1767 C353 1.350 . S
C1782 C143 1.350 . S
C1817 C339 1.350 . S
C1832 C157 1.350 . S
C1867 C177 1.137 . S
C1882 C443 1.137 . S
C1917 C429 1.137 . S
C1932 C191 1.137 . S
C1967 C205 1.137 . S
C1982 C415 1.137 . S
C2017 C219 1.137 . S
C2032 C401 1.137 . S
C2067 C175 1.277 . S
C2082 C8 1.264 . S
C2117 C22 1.264 . S
C2132 C301 1.278 . S
C2167 C91 1.278 . S
C2182 C36 1.264 . S
C2217 C441 1.277 . S
C2232 C50 1.264 . S
C2267 C63 1.278 . S
C2282 C120 1.264 . S
C2317 C246 1.263 . S
C2332 C77 1.277 . S
C2367 C386 1.264 . S
C2382 C105 1.277 . S
C2417 C413 1.277 . S
C2432 C134 1.264 . S
C2467 C148 1.263 . S
C2482 C203 1.277 . S
C2517 C329 1.277 . S
C2532 C162 1.263 . S
C2567 C358 1.264 . S
C2582 C189 1.278 . S
C2617 C217 1.277 . S
C2632 C274 1.264 . S
C2667 C232 1.264 . S
C2682 C399 1.277 . S
C2717 C315 1.277 . S
C2732 C260 1.264 . S
C2767 C344 1.264 . S
C2782 C287 1.278 . S
C2817 C372 1.263 . S
C2832 C427 1.277 . S
C2867 C7 0.979 . S
C2882 C49 0.979 . S
C2917 C35 0.980 . S
C2932 C21 0.980 . S
C2967 C64 0.722 . S
C2982 C106 0.723 . S
C3017 C78 0.722 . S
C3032 C92 0.723 . S
C3067 C119 0.979 . S
C3082 C161 0.979 . S
C3117 C133 0.980 . S
C3132 C147 0.980 . S
C3167 C176 0.724 . S
C3182 C218 0.724 . S
C3217 C204 0.723 . S
C3232 C190 0.723 . S
C3267 C273 0.979 . S
C3282 C231 0.979 . S
C3317 C259 0.979 . S
C3332 C245 0.979 . S
C3367 C330 0.724 . S
C3382 C288 0.724 . S
C3417 C316 0.724 . S
C3432 C302 0.724 . S
C3467 C385 0.979 . S
C3482 C343 0.979 . S
C3517 C371 0.980 . S
C3532 C357 0.980 . S
C3567 C400 0.723 . S
C3582 C442 0.723 . S
C3617 C428 0.723 . S
C3632 C414 0.724 . S
