# Generated by pormake.
# Topology wip, (6)-cn, num edge types: 1
# Building blocks:
#     Node 0, Type 0, BuildingBlock: GEDQOX_clean_sbu_0, # of connection points: 6
#     Node 1, Type 0, BuildingBlock: GEDQOX_clean_sbu_0, # of connection points: 6
#     Node 2, Type 0, BuildingBlock: GEDQOX_clean_sbu_0, # of connection points: 6
#     Node 3, Type 0, BuildingBlock: GEDQOX_clean_sbu_0, # of connection points: 6
#     Node 4, Type 0, BuildingBlock: GEDQOX_clean_sbu_0, # of connection points: 6
#     Node 5, Type 0, BuildingBlock: GEDQOX_clean_sbu_0, # of connection points: 6
#     Node 6, Type 0, BuildingBlock: GEDQOX_clean_sbu_0, # of connection points: 6
#     Node 7, Type 0, BuildingBlock: GEDQOX_clean_sbu_0, # of connection points: 6
#     Node 8, Type 0, BuildingBlock: GEDQOX_clean_sbu_0, # of connection points: 6
#     Node 9, Type 0, BuildingBlock: GEDQOX_clean_sbu_0, # of connection points: 6
#     Node 10, Type 0, BuildingBlock: GEDQOX_clean_sbu_0, # of connection points: 6
#     Node 11, Type 0, BuildingBlock: GEDQOX_clean_sbu_0, # of connection points: 6
#     Node 12, Type 0, BuildingBlock: GEDQOX_clean_sbu_0, # of connection points: 6
#     Node 13, Type 0, BuildingBlock: GEDQOX_clean_sbu_0, # of connection points: 6
#     Node 14, Type 0, BuildingBlock: GEDQOX_clean_sbu_0, # of connection points: 6
#     Node 15, Type 0, BuildingBlock: GEDQOX_clean_sbu_0, # of connection points: 6
#     Node 16, Type 0, BuildingBlock: GEDQOX_clean_sbu_0, # of connection points: 6
#     Node 17, Type 0, BuildingBlock: GEDQOX_clean_sbu_0, # of connection points: 6
#     Node 18, Type 0, BuildingBlock: GEDQOX_clean_sbu_0, # of connection points: 6
#     Node 19, Type 0, BuildingBlock: GEDQOX_clean_sbu_0, # of connection points: 6
#     Node 20, Type 0, BuildingBlock: GEDQOX_clean_sbu_0, # of connection points: 6
#     Node 21, Type 0, BuildingBlock: GEDQOX_clean_sbu_0, # of connection points: 6
#     Node 22, Type 0, BuildingBlock: GEDQOX_clean_sbu_0, # of connection points: 6
#     Node 23, Type 0, BuildingBlock: GEDQOX_clean_sbu_0, # of connection points: 6
#     Node 24, Type 0, BuildingBlock: GEDQOX_clean_sbu_0, # of connection points: 6
#     Node 25, Type 0, BuildingBlock: GEDQOX_clean_sbu_0, # of connection points: 6
#     Node 26, Type 0, BuildingBlock: GEDQOX_clean_sbu_0, # of connection points: 6
#     Node 27, Type 0, BuildingBlock: GEDQOX_clean_sbu_0, # of connection points: 6
#     Node 28, Type 0, BuildingBlock: GEDQOX_clean_sbu_0, # of connection points: 6
#     Node 29, Type 0, BuildingBlock: GEDQOX_clean_sbu_0, # of connection points: 6
#     Node 30, Type 0, BuildingBlock: GEDQOX_clean_sbu_0, # of connection points: 6
#     Node 31, Type 0, BuildingBlock: GEDQOX_clean_sbu_0, # of connection points: 6
#     Edge 32, Type (0, 0), BuildingBlock: OJICUG_clean_linker_0, # of connection points: 2
#     Edge 33, Type (0, 0), BuildingBlock: OJICUG_clean_linker_0, # of connection points: 2
#     Edge 34, Type (0, 0), BuildingBlock: OJICUG_clean_linker_0, # of connection points: 2
#     Edge 35, Type (0, 0), BuildingBlock: OJICUG_clean_linker_0, # of connection points: 2
#     Edge 36, Type (0, 0), BuildingBlock: OJICUG_clean_linker_0, # of connection points: 2
#     Edge 37, Type (0, 0), BuildingBlock: OJICUG_clean_linker_0, # of connection points: 2
#     Edge 38, Type (0, 0), BuildingBlock: OJICUG_clean_linker_0, # of connection points: 2
#     Edge 39, Type (0, 0), BuildingBlock: OJICUG_clean_linker_0, # of connection points: 2
#     Edge 40, Type (0, 0), BuildingBlock: OJICUG_clean_linker_0, # of connection points: 2
#     Edge 41, Type (0, 0), BuildingBlock: OJICUG_clean_linker_0, # of connection points: 2
#     Edge 42, Type (0, 0), BuildingBlock: OJICUG_clean_linker_0, # of connection points: 2
#     Edge 43, Type (0, 0), BuildingBlock: OJICUG_clean_linker_0, # of connection points: 2
#     Edge 44, Type (0, 0), BuildingBlock: OJICUG_clean_linker_0, # of connection points: 2
#     Edge 45, Type (0, 0), BuildingBlock: OJICUG_clean_linker_0, # of connection points: 2
#     Edge 46, Type (0, 0), BuildingBlock: OJICUG_clean_linker_0, # of connection points: 2
#     Edge 47, Type (0, 0), BuildingBlock: OJICUG_clean_linker_0, # of connection points: 2
#     Edge 48, Type (0, 0), BuildingBlock: OJICUG_clean_linker_0, # of connection points: 2
#     Edge 49, Type (0, 0), BuildingBlock: OJICUG_clean_linker_0, # of connection points: 2
#     Edge 50, Type (0, 0), BuildingBlock: OJICUG_clean_linker_0, # of connection points: 2
#     Edge 51, Type (0, 0), BuildingBlock: OJICUG_clean_linker_0, # of connection points: 2
#     Edge 52, Type (0, 0), BuildingBlock: OJICUG_clean_linker_0, # of connection points: 2
#     Edge 53, Type (0, 0), BuildingBlock: OJICUG_clean_linker_0, # of connection points: 2
#     Edge 54, Type (0, 0), BuildingBlock: OJICUG_clean_linker_0, # of connection points: 2
#     Edge 55, Type (0, 0), BuildingBlock: OJICUG_clean_linker_0, # of connection points: 2
#     Edge 56, Type (0, 0), BuildingBlock: OJICUG_clean_linker_0, # of connection points: 2
#     Edge 57, Type (0, 0), BuildingBlock: OJICUG_clean_linker_0, # of connection points: 2
#     Edge 58, Type (0, 0), BuildingBlock: OJICUG_clean_linker_0, # of connection points: 2
#     Edge 59, Type (0, 0), BuildingBlock: OJICUG_clean_linker_0, # of connection points: 2
#     Edge 60, Type (0, 0), BuildingBlock: OJICUG_clean_linker_0, # of connection points: 2
#     Edge 61, Type (0, 0), BuildingBlock: OJICUG_clean_linker_0, # of connection points: 2
#     Edge 62, Type (0, 0), BuildingBlock: OJICUG_clean_linker_0, # of connection points: 2
#     Edge 63, Type (0, 0), BuildingBlock: OJICUG_clean_linker_0, # of connection points: 2
#     Edge 64, Type (0, 0), BuildingBlock: OJICUG_clean_linker_0, # of connection points: 2
#     Edge 65, Type (0, 0), BuildingBlock: OJICUG_clean_linker_0, # of connection points: 2
#     Edge 66, Type (0, 0), BuildingBlock: OJICUG_clean_linker_0, # of connection points: 2
#     Edge 67, Type (0, 0), BuildingBlock: OJICUG_clean_linker_0, # of connection points: 2
#     Edge 68, Type (0, 0), BuildingBlock: OJICUG_clean_linker_0, # of connection points: 2
#     Edge 69, Type (0, 0), BuildingBlock: OJICUG_clean_linker_0, # of connection points: 2
#     Edge 70, Type (0, 0), BuildingBlock: OJICUG_clean_linker_0, # of connection points: 2
#     Edge 71, Type (0, 0), BuildingBlock: OJICUG_clean_linker_0, # of connection points: 2
#     Edge 72, Type (0, 0), BuildingBlock: OJICUG_clean_linker_0, # of connection points: 2
#     Edge 73, Type (0, 0), BuildingBlock: OJICUG_clean_linker_0, # of connection points: 2
#     Edge 74, Type (0, 0), BuildingBlock: OJICUG_clean_linker_0, # of connection points: 2
#     Edge 75, Type (0, 0), BuildingBlock: OJICUG_clean_linker_0, # of connection points: 2
#     Edge 76, Type (0, 0), BuildingBlock: OJICUG_clean_linker_0, # of connection points: 2
#     Edge 77, Type (0, 0), BuildingBlock: OJICUG_clean_linker_0, # of connection points: 2
#     Edge 78, Type (0, 0), BuildingBlock: OJICUG_clean_linker_0, # of connection points: 2
#     Edge 79, Type (0, 0), BuildingBlock: OJICUG_clean_linker_0, # of connection points: 2
#     Edge 80, Type (0, 0), BuildingBlock: OJICUG_clean_linker_0, # of connection points: 2
#     Edge 81, Type (0, 0), BuildingBlock: OJICUG_clean_linker_0, # of connection points: 2
#     Edge 82, Type (0, 0), BuildingBlock: OJICUG_clean_linker_0, # of connection points: 2
#     Edge 83, Type (0, 0), BuildingBlock: OJICUG_clean_linker_0, # of connection points: 2
#     Edge 84, Type (0, 0), BuildingBlock: OJICUG_clean_linker_0, # of connection points: 2
#     Edge 85, Type (0, 0), BuildingBlock: OJICUG_clean_linker_0, # of connection points: 2
#     Edge 86, Type (0, 0), BuildingBlock: OJICUG_clean_linker_0, # of connection points: 2
#     Edge 87, Type (0, 0), BuildingBlock: OJICUG_clean_linker_0, # of connection points: 2
#     Edge 88, Type (0, 0), BuildingBlock: OJICUG_clean_linker_0, # of connection points: 2
#     Edge 89, Type (0, 0), BuildingBlock: OJICUG_clean_linker_0, # of connection points: 2
#     Edge 90, Type (0, 0), BuildingBlock: OJICUG_clean_linker_0, # of connection points: 2
#     Edge 91, Type (0, 0), BuildingBlock: OJICUG_clean_linker_0, # of connection points: 2
#     Edge 92, Type (0, 0), BuildingBlock: OJICUG_clean_linker_0, # of connection points: 2
#     Edge 93, Type (0, 0), BuildingBlock: OJICUG_clean_linker_0, # of connection points: 2
#     Edge 94, Type (0, 0), BuildingBlock: OJICUG_clean_linker_0, # of connection points: 2
#     Edge 95, Type (0, 0), BuildingBlock: OJICUG_clean_linker_0, # of connection points: 2
#     Edge 96, Type (0, 0), BuildingBlock: OJICUG_clean_linker_0, # of connection points: 2
#     Edge 97, Type (0, 0), BuildingBlock: OJICUG_clean_linker_0, # of connection points: 2
#     Edge 98, Type (0, 0), BuildingBlock: OJICUG_clean_linker_0, # of connection points: 2
#     Edge 99, Type (0, 0), BuildingBlock: OJICUG_clean_linker_0, # of connection points: 2
#     Edge 100, Type (0, 0), BuildingBlock: OJICUG_clean_linker_0, # of connection points: 2
#     Edge 101, Type (0, 0), BuildingBlock: OJICUG_clean_linker_0, # of connection points: 2
#     Edge 102, Type (0, 0), BuildingBlock: OJICUG_clean_linker_0, # of connection points: 2
#     Edge 103, Type (0, 0), BuildingBlock: OJICUG_clean_linker_0, # of connection points: 2
#     Edge 104, Type (0, 0), BuildingBlock: OJICUG_clean_linker_0, # of connection points: 2
#     Edge 105, Type (0, 0), BuildingBlock: OJICUG_clean_linker_0, # of connection points: 2
#     Edge 106, Type (0, 0), BuildingBlock: OJICUG_clean_linker_0, # of connection points: 2
#     Edge 107, Type (0, 0), BuildingBlock: OJICUG_clean_linker_0, # of connection points: 2
#     Edge 108, Type (0, 0), BuildingBlock: OJICUG_clean_linker_0, # of connection points: 2
#     Edge 109, Type (0, 0), BuildingBlock: OJICUG_clean_linker_0, # of connection points: 2
#     Edge 110, Type (0, 0), BuildingBlock: OJICUG_clean_linker_0, # of connection points: 2
#     Edge 111, Type (0, 0), BuildingBlock: OJICUG_clean_linker_0, # of connection points: 2
#     Edge 112, Type (0, 0), BuildingBlock: OJICUG_clean_linker_0, # of connection points: 2
#     Edge 113, Type (0, 0), BuildingBlock: OJICUG_clean_linker_0, # of connection points: 2
#     Edge 114, Type (0, 0), BuildingBlock: OJICUG_clean_linker_0, # of connection points: 2
#     Edge 115, Type (0, 0), BuildingBlock: OJICUG_clean_linker_0, # of connection points: 2
#     Edge 116, Type (0, 0), BuildingBlock: OJICUG_clean_linker_0, # of connection points: 2
#     Edge 117, Type (0, 0), BuildingBlock: OJICUG_clean_linker_0, # of connection points: 2
#     Edge 118, Type (0, 0), BuildingBlock: OJICUG_clean_linker_0, # of connection points: 2
#     Edge 119, Type (0, 0), BuildingBlock: OJICUG_clean_linker_0, # of connection points: 2
#     Edge 120, Type (0, 0), BuildingBlock: OJICUG_clean_linker_0, # of connection points: 2
#     Edge 121, Type (0, 0), BuildingBlock: OJICUG_clean_linker_0, # of connection points: 2
#     Edge 122, Type (0, 0), BuildingBlock: OJICUG_clean_linker_0, # of connection points: 2
#     Edge 123, Type (0, 0), BuildingBlock: OJICUG_clean_linker_0, # of connection points: 2
#     Edge 124, Type (0, 0), BuildingBlock: OJICUG_clean_linker_0, # of connection points: 2
#     Edge 125, Type (0, 0), BuildingBlock: OJICUG_clean_linker_0, # of connection points: 2
#     Edge 126, Type (0, 0), BuildingBlock: OJICUG_clean_linker_0, # of connection points: 2
#     Edge 127, Type (0, 0), BuildingBlock: OJICUG_clean_linker_0, # of connection points: 2
# Relax obj value: 0.324
# Max RMSD: 0.302
# Mean RMSD: 0.268
data_MOF--net-wip--node1-GEDQOX_clean_sbu_0--edge1-OJICUG_clean_linker_0
_symmetry_space_group_name_H-M    P1
_symmetry_Int_Tables_number       1
_symmetry_cell_setting            triclinic
loop_
_symmetry_equiv_pos_as_xyz
'x, y, z'
_cell_length_a     46.035958
_cell_length_b     46.035065
_cell_length_c     28.434208
_cell_angle_alpha  90.041399
_cell_angle_beta   90.019973
_cell_angle_gamma 89.97453
loop_
_atom_site_label
_atom_site_type_symbol
_atom_site_fract_x
_atom_site_fract_y
_atom_site_fract_z
_atom_type_partial_charge
Nd0 Nd 0.09151 0.44396 0.07254 0.0
Nd1 Nd 0.04994 0.40502 0.12792 0.0
C2 C 0.11744 0.47728 1.00839 0.0
C3 C 0.11367 0.48818 0.95921 0.0
C4 C 0.08675 0.49819 0.94231 0.0
C5 C 0.08415 0.50939 0.89642 0.0
C6 C 0.10835 0.51085 0.86594 0.0
C7 C 0.13513 0.50026 0.88281 0.0
C8 C 0.13772 0.48918 0.92875 0.0
C9 C 0.11678 0.39603 0.11528 0.0
C10 C 0.03917 0.40793 1.01735 0.0
C11 C 0.02493 0.36998 0.18994 0.0
C12 C 0.02402 0.36677 0.24152 0.0
C13 C 0.0483 0.37282 0.26985 0.0
C14 C 0.04593 0.37218 0.31902 0.0
C15 C 0.01915 0.3658 0.34059 0.0
C16 C 0.99515 0.35912 0.31193 0.0
C17 C -0.00241 0.35959 0.26297 0.0
C18 C 0.02634 0.45853 0.11018 0.0
C19 C 0.09386 0.45169 0.18398 0.0
O20 O 0.10009 0.4874 0.04112 0.0
O21 O 0.123 0.44958 1.01369 0.0
O22 O 0.12983 0.42063 0.10815 0.0
O23 O 0.09255 0.39634 0.09376 0.0
O24 O 0.05694 0.4303 1.01874 0.0
O25 O 0.03531 0.39088 0.05416 0.0
O26 O 0.04919 0.36368 0.16834 0.0
O27 O 0.01268 0.39339 0.17347 0.0
O28 O 0.01314 0.43411 0.10224 0.0
O29 O 0.0527 0.45358 0.11963 0.0
O30 O 0.07771 0.42778 0.1853 0.0
O31 O 0.09968 0.46522 0.144 0.0
H32 H 0.06769 0.4975 0.96462 0.0
H33 H 0.063 0.51676 0.88474 0.0
H34 H 0.15434 0.50115 0.8609 0.0
H35 H 0.15876 0.48166 0.94073 0.0
H36 H 0.06885 0.37869 0.25401 0.0
H37 H 0.06478 0.37759 0.34008 0.0
H38 H 0.97435 0.35369 0.32738 0.0
H39 H 0.97859 0.35494 0.24176 0.0
Nd40 Nd 0.79953 0.84007 0.32405 0.0
Nd41 Nd 0.83685 0.7971 0.37936 0.0
C42 C 0.76711 0.86698 0.25984 0.0
C43 C 0.75555 0.86344 0.21096 0.0
C44 C 0.72573 0.86729 0.20238 0.0
C45 C 0.71441 0.86556 0.15654 0.0
C46 C 0.7326 0.86007 0.11764 0.0
C47 C 0.76253 0.85618 0.12629 0.0
C48 C 0.77384 0.85777 0.17227 0.0
C49 C 0.84791 0.86359 0.36783 0.0
C50 C 0.83407 0.78678 0.26878 0.0
C51 C 0.87141 0.77173 0.44167 0.0
C52 C 0.87372 0.77039 0.49333 0.0
C53 C 0.86667 0.79433 0.52186 0.0
C54 C 0.86701 0.79169 0.57098 0.0
C55 C 0.874 0.76498 0.59228 0.0
C56 C 0.88142 0.74128 0.56345 0.0
C57 C 0.88132 0.74399 0.51452 0.0
C58 C 0.78289 0.77491 0.36128 0.0
C59 C 0.7905 0.84156 0.4353 0.0
O60 O 0.75617 0.85056 0.29308 0.0
O61 O 0.7951 0.87118 0.26489 0.0
O62 O 0.82378 0.87747 0.36058 0.0
O63 O 0.84699 0.83953 0.34589 0.0
O64 O 0.81225 0.80523 0.2701 0.0
O65 O 0.85084 0.78225 0.30573 0.0
O66 O 0.87758 0.79638 0.42124 0.0
O67 O 0.84857 0.75923 0.42363 0.0
O68 O 0.80699 0.76111 0.35322 0.0
O69 O 0.78843 0.80122 0.37041 0.0
O70 O 0.81304 0.82357 0.43722 0.0
O71 O 0.77862 0.84971 0.39505 0.0
H72 H 0.7111 0.87198 0.23125 0.0
H73 H 0.69134 0.869 0.15155 0.0
H74 H 0.77724 0.85148 0.09756 0.0
H75 H 0.79694 0.85466 0.17743 0.0
H76 H 0.86036 0.81484 0.50625 0.0
H77 H 0.86099 0.81028 0.59222 0.0
H78 H 0.88727 0.72055 0.57876 0.0
H79 H 0.8867 0.72526 0.49313 0.0
Nd80 Nd 0.40306 0.54877 0.57411 0.0
Nd81 Nd 0.44498 0.58835 0.62855 0.0
C82 C 0.3773 0.51434 0.51115 0.0
C83 C 0.38088 0.50276 0.46226 0.0
C84 C 0.40781 0.49287 0.44521 0.0
C85 C 0.41023 0.48096 0.39972 0.0
C86 C 0.38582 0.47863 0.36976 0.0
C87 C 0.35902 0.48909 0.38677 0.0
C88 C 0.35661 0.50089 0.43231 0.0
C89 C 0.37797 0.59732 0.61534 0.0
C90 C 0.45553 0.58418 0.51794 0.0
C91 C 0.47031 0.62387 0.68978 0.0
C92 C 0.47049 0.62821 0.74119 0.0
C93 C 0.4467 0.62018 0.76919 0.0
C94 C 0.44861 0.62148 0.81838 0.0
C95 C 0.47431 0.63105 0.8404 0.0
C96 C 0.49776 0.63979 0.81199 0.0
C97 C 0.49588 0.63829 0.76296 0.0
C98 C 0.46798 0.53429 0.61271 0.0
C99 C 0.40029 0.54311 0.68576 0.0
O100 O 0.39493 0.50485 0.54399 0.0
O101 O 0.37144 0.54204 0.51565 0.0
O102 O 0.3647 0.57281 0.60835 0.0
O103 O 0.40231 0.59663 0.59414 0.0
O104 O 0.43748 0.56204 0.51979 0.0
O105 O 0.45976 0.60144 0.55444 0.0
O106 O 0.44661 0.6305 0.66685 0.0
O107 O 0.48186 0.59963 0.67524 0.0
O108 O 0.4815 0.55845 0.60411 0.0
O109 O 0.44169 0.53971 0.62187 0.0
O110 O 0.41655 0.56693 0.68611 0.0
O111 O 0.39461 0.52876 0.64644 0.0
H112 H 0.42702 0.4942 0.46711 0.0
H113 H 0.43139 0.47373 0.38793 0.0
H114 H 0.33965 0.48756 0.3653 0.0
H115 H 0.33555 0.50828 0.4444 0.0
H116 H 0.4269 0.61247 0.75299 0.0
H117 H 0.43003 0.61489 0.83915 0.0
H118 H 0.51798 0.64691 0.82768 0.0
H119 H 0.51457 0.64433 0.74199 0.0
Nd120 Nd 0.69379 0.15341 0.82356 0.0
Nd121 Nd 0.65689 0.19673 0.87918 0.0
C122 C 0.72542 0.12576 0.75906 0.0
C123 C 0.73642 0.12923 0.70996 0.0
C124 C 0.74705 0.15591 0.69317 0.0
C125 C 0.7583 0.15825 0.64732 0.0
C126 C 0.75916 0.13402 0.61681 0.0
C127 C 0.7479 0.10751 0.63352 0.0
C128 C 0.73678 0.10517 0.67945 0.0
C129 C 0.64554 0.13028 0.86807 0.0
C130 C 0.65966 0.20707 0.76842 0.0
C131 C 0.6223 0.22229 0.94139 0.0
C132 C 0.61865 0.22253 0.99285 0.0
C133 C 0.62935 0.19988 1.02104 0.0
C134 C 0.62788 0.20186 0.07019 0.0
C135 C 0.61569 0.22654 0.09195 0.0
C136 C 0.60457 0.24886 0.06331 0.0
C137 C 0.60608 0.24686 1.01432 0.0
C138 C 0.71083 0.21865 0.86046 0.0
C139 C 0.70327 0.15214 0.93474 0.0
O140 O 0.7366 0.14235 0.79197 0.0
O141 O 0.69744 0.12187 0.76435 0.0
O142 O 0.66956 0.11626 0.86066 0.0
O143 O 0.64648 0.15426 0.846 0.0
O144 O 0.68114 0.18821 0.76951 0.0
O145 O 0.64318 0.212 0.8056 0.0
O146 O 0.6154 0.19847 0.91903 0.0
O147 O 0.64631 0.23383 0.92586 0.0
O148 O 0.68675 0.23254 0.85258 0.0
O149 O 0.70523 0.19235 0.86961 0.0
O150 O 0.68066 0.17004 0.93675 0.0
O151 O 0.71508 0.14399 0.89442 0.0
H152 H 0.74682 0.17496 0.71555 0.0
H153 H 0.76621 0.17919 0.63569 0.0
H154 H 0.7483 0.08832 0.61149 0.0
H155 H 0.72872 0.08433 0.69138 0.0
H156 H 0.63924 0.18092 1.00514 0.0
H157 H 0.63636 0.18413 0.09111 0.0
H158 H 0.59547 0.26835 0.07873 0.0
H159 H 0.59799 0.26468 0.99315 0.0
Nd160 Nd 0.08252 0.54636 0.56428 0.0
Nd161 Nd 0.0423 0.59136 0.60775 0.0
C162 C 0.11958 0.51797 0.51028 0.0
C163 C 0.12509 0.51458 0.45993 0.0
C164 C 0.14165 0.4909 0.44466 0.0
C165 C 0.14191 0.48326 0.39721 0.0
C166 C 0.12546 0.49915 0.36445 0.0
C167 C 0.11079 0.52434 0.37935 0.0
C168 C 0.11053 0.53196 0.42695 0.0
C169 C 0.04093 0.52211 0.62023 0.0
C170 C 0.02483 0.57126 0.50485 0.0
C171 C 0.00963 0.62381 0.66344 0.0
C172 C 0.00204 0.62276 0.71378 0.0
C173 C 0.00628 0.59723 0.73986 0.0
C174 C 0.00049 0.59674 0.78815 0.0
C175 C 0.9902 0.62175 0.81133 0.0
C176 C 0.98547 0.64713 0.78479 0.0
C177 C 0.99145 0.64764 0.73648 0.0
C178 C 0.08128 0.61255 0.54175 0.0
C179 C 0.08971 0.5571 0.67626 0.0
O180 O 0.12542 0.54329 0.52901 0.0
O181 O 0.09491 0.50708 0.52466 0.0
O182 O 0.06691 0.51159 0.61558 0.0
O183 O 0.03676 0.54347 0.593 0.0
O184 O 0.05135 0.55983 0.5027 0.0
O185 O 0.01391 0.58092 0.54478 0.0
O186 O -0.00072 0.60278 0.6373 0.0
O187 O 0.0368 0.62984 0.65395 0.0
O188 O 0.05512 0.62237 0.54741 0.0
O189 O 0.08687 0.59422 0.57374 0.0
O190 O 0.06536 0.57196 0.67231 0.0
O191 O 0.10376 0.54791 0.63835 0.0
H192 H 0.15297 0.47728 0.46978 0.0
H193 H 0.15366 0.46396 0.3865 0.0
H194 H 0.09781 0.53687 0.35489 0.0
H195 H 0.09757 0.55032 0.43834 0.0
H196 H 0.01434 0.57772 0.72298 0.0
H197 H 0.00407 0.57674 0.80735 0.0
H198 H 0.97789 0.66685 0.8016 0.0
H199 H 0.98817 0.66758 0.71697 0.0
Nd200 Nd 0.69809 0.83306 0.81581 0.0
Nd201 Nd 0.65134 0.79514 0.86028 0.0
C202 C 0.72802 0.86803 0.76045 0.0
C203 C 0.72904 0.87319 0.70975 0.0
C204 C 0.71067 0.85749 0.67968 0.0
C205 C 0.71632 0.85663 0.63153 0.0
C206 C 0.74009 0.87186 0.61302 0.0
C207 C 0.7568 0.88969 0.64252 0.0
C208 C 0.75138 0.89021 0.69085 0.0
C209 C 0.72048 0.79088 0.87269 0.0
C210 C 0.6702 0.77641 0.7574 0.0
C211 C 0.61806 0.76379 0.91654 0.0
C212 C 0.61914 0.75632 0.96686 0.0
C213 C 0.64448 0.76127 0.99312 0.0
C214 C 0.64505 0.75545 0.04137 0.0
C215 C 0.62032 0.74438 0.06427 0.0
C216 C 0.59513 0.73894 0.03758 0.0
C217 C 0.59454 0.74497 0.9893 0.0
C218 C 0.63145 0.83465 0.79403 0.0
C219 C 0.68755 0.84189 0.92746 0.0
O220 O 0.70435 0.87613 0.78229 0.0
O221 O 0.73709 0.84231 0.77335 0.0
O222 O 0.73219 0.81628 0.86738 0.0
O223 O 0.69893 0.78749 0.84555 0.0
O224 O 0.68258 0.80245 0.75485 0.0
O225 O 0.66035 0.76603 0.79754 0.0
O226 O 0.63863 0.75264 0.89032 0.0
O227 O 0.61293 0.79113 0.90693 0.0
O228 O 0.62028 0.80913 0.80063 0.0
O229 O 0.65042 0.83951 0.8254 0.0
O230 O 0.6714 0.81834 0.92422 0.0
O231 O 0.69774 0.85489 0.88931 0.0
H232 H 0.69324 0.84433 0.69376 0.0
H233 H 0.70334 0.84263 0.60923 0.0
H234 H 0.77545 0.90127 0.6288 0.0
H235 H 0.7658 0.90232 0.71373 0.0
H236 H 0.66379 0.76984 0.97639 0.0
H237 H 0.66489 0.75956 0.06074 0.0
H238 H 0.57564 0.73072 0.05422 0.0
H239 H 0.57476 0.7411 0.96961 0.0
Nd240 Nd 0.41189 0.4414 0.07033 0.0
Nd241 Nd 0.45188 0.39661 0.11264 0.0
C242 C 0.37703 0.47121 1.01455 0.0
C243 C 0.37814 0.47982 0.9647 0.0
C244 C 0.35603 0.47139 0.93345 0.0
C245 C 0.35681 0.48034 0.88638 0.0
C246 C 0.37956 0.49807 0.87038 0.0
C247 C 0.40201 0.50571 0.90138 0.0
C248 C 0.40138 0.49665 0.94794 0.0
C249 C 0.45388 0.46569 0.1255 0.0
C250 C 0.46964 0.41724 1.01003 0.0
C251 C 0.48454 0.36407 0.16821 0.0
C252 C 0.4924 0.3653 0.21839 0.0
C253 C 0.48811 0.3909 0.24432 0.0
C254 C 0.49394 0.39154 0.29257 0.0
C255 C 0.50432 0.36663 0.31584 0.0
C256 C 0.5092 0.3412 0.28944 0.0
C257 C 0.50317 0.34054 0.24115 0.0
C258 C 0.41241 0.37491 0.04769 0.0
C259 C 0.40412 0.4301 0.1813 0.0
O260 O 0.37325 0.44364 1.02339 0.0
O261 O 0.39629 0.48316 0.04213 0.0
O262 O 0.42765 0.47567 0.12215 0.0
O263 O 0.45805 0.44447 0.09788 0.0
O264 O 0.44345 0.42938 1.00856 0.0
O265 O 0.48031 0.40652 0.04939 0.0
O266 O 0.49495 0.38487 0.14173 0.0
O267 O 0.45724 0.35833 0.1592 0.0
O268 O 0.4387 0.36538 0.05294 0.0
O269 O 0.40691 0.39348 0.07954 0.0
O270 O 0.42917 0.41644 0.17731 0.0
O271 O 0.38951 0.43813 0.14326 0.0
H272 H 0.33806 0.45818 0.94556 0.0
H273 H 0.33934 0.47413 0.86293 0.0
H274 H 0.42009 0.5189 0.8896 0.0
H275 H 0.41905 0.50313 0.9708 0.0
H276 H 0.47994 0.41032 0.22736 0.0
H277 H 0.49026 0.41157 0.3117 0.0
H278 H 0.51688 0.32157 0.30635 0.0
H279 H 0.50651 0.32056 0.22172 0.0
Nd280 Nd 0.79565 0.1605 0.31596 0.0
Nd281 Nd 0.84223 0.19869 0.36042 0.0
C282 C 0.7658 0.12552 0.26032 0.0
C283 C 0.76467 0.12055 0.20953 0.0
C284 C 0.78299 0.13634 0.17955 0.0
C285 C 0.77728 0.13729 0.1314 0.0
C286 C 0.75352 0.12207 0.11278 0.0
C287 C 0.73683 0.1042 0.14219 0.0
C288 C 0.7423 0.10359 0.19052 0.0
C289 C 0.77305 0.20277 0.37248 0.0
C290 C 0.82338 0.21718 0.25748 0.0
C291 C 0.87593 0.22997 0.41626 0.0
C292 C 0.87593 0.23767 0.46655 0.0
C293 C 0.85085 0.23411 0.49402 0.0
C294 C 0.85137 0.24048 0.54216 0.0
C295 C 0.87698 0.25058 0.56378 0.0
C296 C 0.90196 0.25439 0.53583 0.0
C297 C 0.90142 0.24794 0.48772 0.0
C298 C 0.86228 0.15919 0.29423 0.0
C299 C 0.80606 0.15211 0.42773 0.0
O300 O 0.78957 0.1175 0.28197 0.0
O301 O 0.75661 0.15113 0.27359 0.0
O302 O 0.76147 0.17729 0.36733 0.0
O303 O 0.79462 0.20618 0.34542 0.0
O304 O 0.81111 0.19108 0.255 0.0
O305 O 0.83314 0.2277 0.29761 0.0
O306 O 0.85498 0.24112 0.39081 0.0
O307 O 0.88091 0.20261 0.40653 0.0
O308 O 0.87328 0.18479 0.30076 0.0
O309 O 0.84335 0.15425 0.3256 0.0
O310 O 0.82193 0.17585 0.42436 0.0
O311 O 0.79622 0.13877 0.38957 0.0
H312 H 0.80044 0.14945 0.19369 0.0
H313 H 0.79024 0.15134 0.10918 0.0
H314 H 0.71819 0.09262 0.1284 0.0
H315 H 0.72791 0.09141 0.21333 0.0
H316 H 0.83094 0.22613 0.47833 0.0
H317 H 0.83186 0.23686 0.5626 0.0
H318 H 0.92194 0.26247 0.5511 0.0
H319 H 0.92098 0.25083 0.46707 0.0
Nd320 Nd 0.94331 0.58531 0.22711 0.0
Nd321 Nd 0.90197 0.54624 0.28246 0.0
C322 C 0.96814 0.62041 0.16496 0.0
C323 C 0.96924 0.6232 0.11328 0.0
C324 C 0.9448 0.61786 0.08492 0.0
C325 C 0.94723 0.61829 0.03575 0.0
C326 C 0.97421 0.62373 1.01416 0.0
C327 C -0.00158 0.62962 0.04283 0.0
C328 C 0.99593 0.62938 0.0918 0.0
C329 C 0.9669 0.53171 0.24324 0.0
C330 C 0.89869 0.53928 0.17106 0.0
C331 C 0.87651 0.51253 0.34658 0.0
C332 C 0.88052 0.50099 0.39544 0.0
C333 C 0.87805 0.471 0.40378 0.0
C334 C 0.88011 0.45966 0.44958 0.0
C335 C 0.88455 0.47797 0.48872 0.0
C336 C 0.88708 0.50807 0.48029 0.0
C337 C 0.88516 0.51941 0.43436 0.0
C338 C 0.8769 0.59496 0.24162 0.0
C339 C 0.95457 0.58174 0.3374 0.0
O340 O 0.94367 0.62642 0.1861 0.0
O341 O 0.98074 0.5974 0.18217 0.0
O342 O 0.98016 0.55604 0.2516 0.0
O343 O 0.94042 0.53663 0.2345 0.0
O344 O 0.91503 0.56305 0.16985 0.0
O345 O 0.89302 0.52555 0.21089 0.0
O346 O 0.89334 0.50238 0.31319 0.0
O347 O 0.87112 0.54031 0.3417 0.0
O348 O 0.86366 0.57037 0.24803 0.0
O349 O 0.90121 0.59407 0.26276 0.0
O350 O 0.93698 0.55926 0.33576 0.0
O351 O 0.95817 0.59911 0.30091 0.0
H352 H 0.92404 0.61276 0.10073 0.0
H353 H 0.92821 0.61348 1.0147 0.0
H354 H 0.01939 0.63431 1.02736 0.0
H355 H 0.01506 0.63348 0.113 0.0
H356 H 0.87417 0.45624 0.37476 0.0
H357 H 0.87772 0.43645 0.45433 0.0
H358 H 0.89094 0.52292 0.50918 0.0
H359 H 0.88719 0.54265 0.42942 0.0
Nd360 Nd 0.15506 0.19645 0.97974 0.0
Nd361 Nd 0.19416 0.15416 0.03397 0.0
C362 C 0.11976 0.22216 0.91862 0.0
C363 C 0.11605 0.22285 0.8671 0.0
C364 C 0.1243 0.19928 0.83872 0.0
C365 C 0.12344 0.2016 0.78957 0.0
C366 C 0.11412 0.22751 0.76795 0.0
C367 C 0.10524 0.25078 0.79672 0.0
C368 C 0.10629 0.24847 0.84572 0.0
C369 C 0.20966 0.2185 0.99329 0.0
C370 C 0.19893 0.15046 0.92234 0.0
C371 C 0.2287 0.1282 0.0965 0.0
C372 C 0.24102 0.13163 0.14504 0.0
C373 C 0.27114 0.12902 0.15214 0.0
C374 C 0.2832 0.13043 0.19755 0.0
C375 C 0.26551 0.13434 0.23757 0.0
C376 C 0.23529 0.13701 0.23039 0.0
C377 C 0.22323 0.13574 0.18485 0.0
C378 C 0.14463 0.12982 0.99443 0.0
C379 C 0.16001 0.20737 0.09016 0.0
O380 O 0.11326 0.19809 0.94055 0.0
O381 O 0.14364 0.23388 0.93432 0.0
O382 O 0.18589 0.23255 1.00243 0.0
O383 O 0.20375 0.19217 0.98519 0.0
O384 O 0.17541 0.16717 0.92219 0.0
O385 O 0.2135 0.14481 0.96143 0.0
O386 O 0.23841 0.1453 0.06316 0.0
O387 O 0.20085 0.12294 0.09249 0.0
O388 O 0.16895 0.11609 1.00102 0.0
O389 O 0.1461 0.15427 1.01523 0.0
O390 O 0.18201 0.18916 0.088 0.0
O391 O 0.1425 0.21157 0.05398 0.0
H392 H 0.13184 0.1793 0.85458 0.0
H393 H 0.13012 0.18315 0.76852 0.0
H394 H 0.09833 0.27116 0.78137 0.0
H395 H 0.10009 0.267 0.86699 0.0
H396 H 0.28544 0.12552 0.12241 0.0
H397 H 0.30647 0.12795 0.20129 0.0
H398 H 0.2209 0.14049 0.25998 0.0
H399 H 0.19992 0.13784 0.18091 0.0
Nd400 Nd 0.54966 0.40679 0.73026 0.0
Nd401 Nd 0.59148 0.44596 0.78472 0.0
C402 C 0.52448 0.37118 0.66919 0.0
C403 C 0.52382 0.36739 0.61772 0.0
C404 C 0.54826 0.37315 0.58963 0.0
C405 C 0.54616 0.37203 0.54047 0.0
C406 C 0.51947 0.36553 0.51866 0.0
C407 C 0.4953 0.35915 0.54709 0.0
C408 C 0.49749 0.36005 0.59606 0.0
C409 C 0.52635 0.46058 0.74643 0.0
C410 C 0.59373 0.45259 0.673 0.0
C411 C 0.6176 0.48009 0.84754 0.0
C412 C 0.61421 0.49158 0.89649 0.0
C413 C 0.61789 0.52142 0.9051 0.0
C414 C 0.61622 0.5327 0.95097 0.0
C415 C 0.61094 0.51446 0.98987 0.0
C416 C 0.60726 0.48451 0.98119 0.0
C417 C 0.60879 0.47324 0.93517 0.0
C418 C 0.61645 0.39752 0.7429 0.0
C419 C 0.53935 0.41039 0.84108 0.0
O420 O 0.54858 0.36492 0.69126 0.0
O421 O 0.51241 0.39492 0.68479 0.0
O422 O 0.51296 0.43634 0.75486 0.0
O423 O 0.55274 0.45545 0.73746 0.0
O424 O 0.57749 0.42874 0.67221 0.0
O425 O 0.59964 0.46644 0.7127 0.0
O426 O 0.60002 0.48997 0.81495 0.0
O427 O 0.62326 0.45238 0.8425 0.0
O428 O 0.62966 0.4221 0.74953 0.0
O429 O 0.59228 0.3982 0.76454 0.0
O430 O 0.55728 0.43263 0.83934 0.0
O431 O 0.53514 0.3933 0.80437 0.0
H432 H 0.56872 0.37917 0.60564 0.0
H433 H 0.56512 0.37723 0.51956 0.0
H434 H 0.47457 0.35367 0.53141 0.0
H435 H 0.47837 0.35565 0.61709 0.0
H436 H 0.62237 0.53609 0.87622 0.0
H437 H 0.61949 0.55579 0.95597 0.0
H438 H 0.60273 0.46976 1.00991 0.0
H439 H 0.60582 0.45012 0.92995 0.0
Nd440 Nd 0.34138 0.7963 0.47838 0.0
Nd441 Nd 0.30213 0.83923 0.53393 0.0
C442 C 0.37712 0.77143 0.41706 0.0
C443 C 0.38091 0.77109 0.36556 0.0
C444 C 0.37245 0.79475 0.33758 0.0
C445 C 0.37334 0.79272 0.28839 0.0
C446 C 0.38288 0.767 0.26635 0.0
C447 C 0.39199 0.74367 0.29473 0.0
C448 C 0.39094 0.74569 0.34376 0.0
C449 C 0.28667 0.77476 0.49354 0.0
C450 C 0.29668 0.8422 0.42206 0.0
C451 C 0.26793 0.86533 0.59686 0.0
C452 C 0.25528 0.86211 0.64522 0.0
C453 C 0.22523 0.86566 0.65195 0.0
C454 C 0.21291 0.86464 0.69719 0.0
C455 C 0.23026 0.86015 0.73748 0.0
C456 C 0.26042 0.85651 0.73068 0.0
C457 C 0.27274 0.85742 0.68528 0.0
C458 C 0.35148 0.86313 0.49351 0.0
C459 C 0.33607 0.78544 0.58898 0.0
O460 O 0.38326 0.79545 0.43944 0.0
O461 O 0.35338 0.75928 0.43241 0.0
O462 O 0.31031 0.75967 0.4983 0.0
O463 O 0.293 0.80099 0.48572 0.0
O464 O 0.32021 0.82546 0.4214 0.0
O465 O 0.28245 0.84807 0.46143 0.0
O466 O 0.25797 0.84861 0.56312 0.0
O467 O 0.29592 0.87003 0.59324 0.0
O468 O 0.32741 0.87715 0.5009 0.0
O469 O 0.34994 0.83862 0.51408 0.0
O470 O 0.31434 0.80399 0.58722 0.0
O471 O 0.35347 0.78096 0.55272 0.0
H472 H 0.3647 0.81455 0.35377 0.0
H473 H 0.36647 0.81121 0.26765 0.0
H474 H 0.39908 0.72342 0.27905 0.0
H475 H 0.3973 0.7271 0.36473 0.0
H476 H 0.21119 0.86965 0.62205 0.0
H477 H 0.18971 0.86789 0.70059 0.0
H478 H 0.27455 0.85257 0.76044 0.0
H479 H 0.29599 0.85461 0.68165 0.0
Nd480 Nd 0.9505 0.39789 0.74684 0.0
Nd481 Nd 0.91157 0.44372 0.79086 0.0
C482 C 0.98288 0.36528 0.69093 0.0
C483 C 0.99062 0.36643 0.64068 0.0
C484 C 0.98562 0.39175 0.61441 0.0
C485 C 0.99161 0.39234 0.5662 0.0
C486 C 0.00283 0.36764 0.54329 0.0
C487 C 0.00833 0.34249 0.57003 0.0
C488 C 0.00217 0.34189 0.61827 0.0
C489 C 0.91118 0.37697 0.81255 0.0
C490 C 0.9033 0.43293 0.67901 0.0
C491 C 0.87578 0.47394 0.84452 0.0
C492 C 0.86945 0.47714 0.89464 0.0
C493 C 0.85255 0.50069 0.90943 0.0
C494 C 0.85157 0.5082 0.95691 0.0
C495 C 0.86763 0.4923 0.99016 0.0
C496 C 0.88258 0.46719 0.97566 0.0
C497 C 0.88356 0.45969 0.92803 0.0
C498 C 0.95332 0.46693 0.7339 0.0
C499 C 0.96841 0.41719 0.85008 0.0
O500 O 0.99343 0.38609 0.7173 0.0
O501 O 0.95561 0.35958 0.70017 0.0
O502 O 0.93702 0.36647 0.80616 0.0
O503 O 0.90594 0.39594 0.78134 0.0
O504 O 0.92722 0.41733 0.68247 0.0
O505 O 0.88992 0.44275 0.71712 0.0
O506 O 0.86845 0.44939 0.82457 0.0
O507 O 0.90147 0.48312 0.83179 0.0
O508 O 0.92754 0.47784 0.73877 0.0
O509 O 0.95725 0.44568 0.76144 0.0
O510 O 0.94209 0.429 0.85244 0.0
O511 O 0.97911 0.40754 0.80999 0.0
H512 H 0.97686 0.41102 0.6311 0.0
H513 H 0.98745 0.41217 0.54686 0.0
H514 H 0.01665 0.32301 0.55343 0.0
H515 H 0.00608 0.32212 0.63796 0.0
H516 H 0.84156 0.51433 0.88397 0.0
H517 H 0.83959 0.52742 0.96729 0.0
H518 H 0.89527 0.45465 1.00049 0.0
H519 H 0.89676 0.44143 0.91701 0.0
Nd520 Nd 0.3475 0.19822 0.49547 0.0
Nd521 Nd 0.30053 0.16093 0.53713 0.0
C522 C 0.38208 0.22888 0.44024 0.0
C523 C 0.38199 0.23656 0.38995 0.0
C524 C 0.35674 0.23317 0.3628 0.0
C525 C 0.35701 0.23961 0.31472 0.0
C526 C 0.38254 0.24963 0.29281 0.0
C527 C 0.40772 0.25319 0.32038 0.0
C528 C 0.40743 0.24666 0.36847 0.0
C529 C 0.36679 0.15906 0.56262 0.0
C530 C 0.3129 0.15119 0.42689 0.0
C531 C 0.26764 0.1281 0.59151 0.0
C532 C 0.25881 0.12833 0.64139 0.0
C533 C 0.27134 0.10907 0.674 0.0
C534 C 0.26246 0.10938 0.72111 0.0
C535 C 0.24077 0.12881 0.73602 0.0
C536 C 0.22869 0.14828 0.70344 0.0
C537 C 0.23743 0.14793 0.65675 0.0
C538 C 0.27901 0.20332 0.47967 0.0
C539 C 0.32686 0.21752 0.59739 0.0
O540 O 0.36144 0.24044 0.46581 0.0
O541 O 0.38646 0.20141 0.44984 0.0
O542 O 0.37762 0.18472 0.55629 0.0
O543 O 0.34832 0.15369 0.53053 0.0
O544 O 0.32784 0.1755 0.43057 0.0
O545 O 0.3035 0.13761 0.46503 0.0
O546 O 0.29467 0.12171 0.58194 0.0
O547 O 0.25772 0.14937 0.56576 0.0
O548 O 0.26812 0.17748 0.48292 0.0
O549 O 0.29979 0.20692 0.50831 0.0
O550 O 0.3137 0.19185 0.59895 0.0
O551 O 0.33814 0.22758 0.55802 0.0
H552 H 0.33687 0.2253 0.3787 0.0
H553 H 0.33735 0.23615 0.29456 0.0
H554 H 0.42766 0.26117 0.30486 0.0
H555 H 0.42713 0.2494 0.38887 0.0
H556 H 0.28785 0.09371 0.66304 0.0
H557 H 0.27211 0.09415 0.74558 0.0
H558 H 0.21244 0.164 0.71406 0.0
H559 H 0.22729 0.16314 0.63278 0.0
Nd560 Nd 0.54398 0.59361 0.24708 0.0
Nd561 Nd 0.58304 0.54815 0.29148 0.0
C562 C 0.51201 0.62649 0.19089 0.0
C563 C 0.50467 0.62676 0.14037 0.0
C564 C 0.50793 0.60171 0.11262 0.0
C565 C 0.50164 0.60249 0.06442 0.0
C566 C 0.4921 0.62838 0.04298 0.0
C567 C 0.48878 0.65335 0.0711 0.0
C568 C 0.495 0.65252 0.1193 0.0
C569 C 0.58285 0.61485 0.31327 0.0
C570 C 0.59194 0.5592 0.17999 0.0
C571 C 0.61849 0.51799 0.34587 0.0
C572 C 0.62411 0.51449 0.39617 0.0
C573 C 0.60995 0.53208 0.42934 0.0
C574 C 0.61032 0.52446 0.47693 0.0
C575 C 0.6247 0.49907 0.49164 0.0
C576 C 0.64074 0.48292 0.45866 0.0
C577 C 0.64037 0.49056 0.41123 0.0
C578 C 0.54176 0.52454 0.23395 0.0
C579 C 0.52582 0.57438 0.35015 0.0
O580 O 0.50142 0.60498 0.21567 0.0
O581 O 0.53905 0.63239 0.20143 0.0
O582 O 0.55691 0.62503 0.30679 0.0
O583 O 0.5884 0.59595 0.28205 0.0
O584 O 0.56777 0.57443 0.18307 0.0
O585 O 0.60522 0.54951 0.21827 0.0
O586 O 0.62576 0.54279 0.32672 0.0
O587 O 0.59313 0.50857 0.33191 0.0
O588 O 0.56769 0.51402 0.23888 0.0
O589 O 0.53746 0.54573 0.26155 0.0
O590 O 0.5522 0.56272 0.35267 0.0
O591 O 0.51514 0.58395 0.30999 0.0
H592 H 0.51557 0.58162 0.12814 0.0
H593 H 0.50484 0.58298 0.04376 0.0
H594 H 0.48121 0.67355 0.0559 0.0
H595 H 0.49239 0.67208 0.1401 0.0
H596 H 0.59722 0.55062 0.41812 0.0
H597 H 0.59766 0.5372 0.50155 0.0
H598 H 0.65229 0.46347 0.46921 0.0
H599 H 0.65139 0.47678 0.38596 0.0
Nd600 Nd 0.14432 0.79814 0.99252 0.0
Nd601 Nd 0.19205 0.83349 0.03635 0.0
C602 C 0.10854 0.77107 0.93435 0.0
C603 C 0.10725 0.76583 0.88303 0.0
C604 C 0.13237 0.75919 0.85707 0.0
C605 C 0.13076 0.75474 0.80838 0.0
C606 C 0.10405 0.75708 0.78441 0.0
C607 C 0.07904 0.76414 0.81062 0.0
C608 C 0.08065 0.76842 0.85934 0.0
C609 C 0.12587 0.83721 0.06044 0.0
C610 C 0.18105 0.84452 0.92592 0.0
C611 C 0.22555 0.86467 0.09245 0.0
C612 C 0.23414 0.86391 0.14244 0.0
C613 C 0.22249 0.88375 0.17503 0.0
C614 C 0.2316 0.8833 0.22205 0.0
C615 C 0.25267 0.86319 0.23683 0.0
C616 C 0.26373 0.84305 0.20436 0.0
C617 C 0.25474 0.84348 0.15779 0.0
C618 C 0.21302 0.79147 0.97797 0.0
C619 C 0.16294 0.77722 0.0947 0.0
O620 O 0.12906 0.75774 0.95797 0.0
O621 O 0.1048 0.79801 0.94779 0.0
O622 O 0.11437 0.81191 0.05332 0.0
O623 O 0.14467 0.84233 1.02879 0.0
O624 O 0.16531 0.8207 0.92874 0.0
O625 O 0.19057 0.85749 0.96461 0.0
O626 O 0.19881 0.87204 0.0825 0.0
O627 O 0.23491 0.84324 0.06647 0.0
O628 O 0.22436 0.81703 0.98245 0.0
O629 O 0.19179 0.7878 1.00586 0.0
O630 O 0.17725 0.80227 0.09683 0.0
O631 O 0.15148 0.76783 0.0549 0.0
H632 H 0.15327 0.75742 0.87437 0.0
H633 H 0.15044 0.74906 0.78968 0.0
H634 H 0.0582 0.76675 0.79347 0.0
H635 H 0.06108 0.77396 0.87853 0.0
H636 H 0.2066 0.89975 0.16407 0.0
H637 H 0.22273 0.89904 0.24648 0.0
H638 H 0.2795 0.82684 0.21497 0.0
H639 H 0.26417 0.8278 0.13385 0.0
Nd640 Nd 0.59366 0.94631 0.5754 0.0
Nd641 Nd 0.55173 0.90779 0.63055 0.0
C642 C 0.61986 0.97946 0.51127 0.0
C643 C 0.61609 0.99041 0.4621 0.0
C644 C 0.58921 0.00059 0.44531 0.0
C645 C 0.58662 0.01188 0.39948 0.0
C646 C 0.6108 0.01326 0.36893 0.0
C647 C 0.63753 0.00248 0.38567 0.0
C648 C 0.64012 0.99132 0.43156 0.0
C649 C 0.61814 0.89756 0.6169 0.0
C650 C 0.54096 0.911 0.5201 0.0
C651 C 0.52631 0.87304 0.69256 0.0
C652 C 0.52527 0.87012 0.7442 0.0
C653 C 0.54973 0.87551 0.77247 0.0
C654 C 0.54738 0.87499 0.82164 0.0
C655 C 0.52044 0.86943 0.84329 0.0
C656 C 0.49621 0.8635 0.8147 0.0
C657 C 0.49864 0.86382 0.76573 0.0
C658 C 0.52879 0.96165 0.61367 0.0
C659 C 0.59645 0.95363 0.68686 0.0
O660 O 0.60262 0.98969 0.54406 0.0
O661 O 0.6252 0.95171 0.51654 0.0
O662 O 0.63159 0.92202 0.61049 0.0
O663 O 0.5939 0.89853 0.59555 0.0
O664 O 0.55882 0.93329 0.5217 0.0
O665 O 0.53699 0.89387 0.55678 0.0
O666 O 0.55062 0.86659 0.67126 0.0
O667 O 0.51416 0.89638 0.67564 0.0
O668 O 0.51535 0.93744 0.60511 0.0
O669 O 0.55511 0.95637 0.62292 0.0
O670 O 0.57998 0.92994 0.68803 0.0
O671 O 0.60239 0.96719 0.64696 0.0
H672 H 0.57018 -2e-05 0.46768 0.0
H673 H 0.56551 0.01939 0.3879 0.0
H674 H 0.65672 0.0033 0.3637 0.0
H675 H 0.66113 0.98366 0.44345 0.0
H676 H 0.57045 0.88071 0.7566 0.0
H677 H 0.56641 0.87983 0.84265 0.0
H678 H 0.47527 0.85872 0.83022 0.0
H679 H 0.47949 0.8597 0.74457 0.0
Nd680 Nd 0.30187 0.3397 0.82319 0.0
Nd681 Nd 0.33839 0.29559 0.87827 0.0
C682 C 0.27008 0.36761 0.75922 0.0
C683 C 0.25837 0.36452 0.71029 0.0
C684 C 0.22858 0.36879 0.70195 0.0
C685 C 0.2171 0.36735 0.65618 0.0
C686 C 0.23508 0.36173 0.61707 0.0
C687 C 0.265 0.3575 0.62545 0.0
C688 C 0.27647 0.3588 0.67138 0.0
C689 C 0.34999 0.36206 0.86944 0.0
C690 C 0.33595 0.2863 0.76704 0.0
C691 C 0.37308 0.26978 0.93997 0.0
C692 C 0.37756 0.27009 0.99123 0.0
C693 C 0.36741 0.2931 1.0192 0.0
C694 C 0.36966 0.29168 0.06831 0.0
C695 C 0.38204 0.26718 0.09026 0.0
C696 C 0.39263 0.24449 0.0618 0.0
C697 C 0.39038 0.24595 1.01284 0.0
C698 C 0.28439 0.27418 0.85806 0.0
C699 C 0.29189 0.33991 0.93428 0.0
O700 O 0.25878 0.3513 0.7923 0.0
O701 O 0.29816 0.37118 0.76434 0.0
O702 O 0.3261 0.37633 0.86203 0.0
O703 O 0.349 0.33838 0.84651 0.0
O704 O 0.31476 0.30548 0.76822 0.0
O705 O 0.35203 0.28067 0.80443 0.0
O706 O 0.38039 0.29309 0.91658 0.0
O707 O 0.34846 0.25882 0.9258 0.0
O708 O 0.30842 0.26003 0.8508 0.0
O709 O 0.29019 0.30034 0.86787 0.0
O710 O 0.31444 0.32192 0.93622 0.0
O711 O 0.28032 0.34845 0.894 0.0
H712 H 0.21409 0.37354 0.73097 0.0
H713 H 0.19405 0.37107 0.65143 0.0
H714 H 0.27955 0.3527 0.59657 0.0
H715 H 0.29955 0.35539 0.67632 0.0
H716 H 0.35732 0.31191 1.00317 0.0
H717 H 0.36158 0.30969 0.08907 0.0
H718 H 0.40184 0.22511 0.07738 0.0
H719 H 0.39806 0.22786 0.99184 0.0
Nd720 Nd 0.90068 0.04762 0.07575 0.0
Nd721 Nd 0.94245 0.0863 0.1312 0.0
C722 C 0.87461 0.01434 1.01157 0.0
C723 C 0.87832 0.00338 0.96237 0.0
C724 C 0.90511 0.99295 0.94563 0.0
C725 C 0.90762 0.98164 0.89978 0.0
C726 C 0.88345 0.9805 0.86916 0.0
C727 C 0.85681 0.99152 0.88586 0.0
C728 C 0.8543 0.0027 0.93177 0.0
C729 C 0.87602 0.09635 0.11706 0.0
C730 C 0.9534 0.08303 1.02076 0.0
C731 C 0.9677 0.12105 0.19353 0.0
C732 C 0.96898 0.12376 0.24523 0.0
C733 C 0.94456 0.11867 0.27372 0.0
C734 C 0.9471 0.11915 0.32288 0.0
C735 C 0.97418 0.12439 0.34434 0.0
C736 C -0.00162 0.12998 0.31554 0.0
C737 C 0.99577 0.12969 0.26658 0.0
C738 C 0.96548 0.03246 0.11447 0.0
C739 C 0.89773 0.04041 0.18723 0.0
O740 O 0.89195 0.00419 0.0443 0.0
O741 O 0.86914 0.04205 1.0169 0.0
O742 O 0.86263 0.07186 0.11053 0.0
O743 O 0.90032 0.09542 0.09589 0.0
O744 O 0.93558 0.06071 1.02225 0.0
O745 O 0.95725 0.10021 0.05747 0.0
O746 O 0.94322 0.1273 0.17258 0.0
O747 O 0.98008 0.09798 0.17607 0.0
O748 O 0.97891 0.05667 0.106 0.0
O749 O 0.93913 0.03772 0.12355 0.0
O750 O 0.91419 0.0641 0.1885 0.0
O751 O 0.89185 0.02681 0.1473 0.0
H752 H 0.92414 0.99337 0.96805 0.0
H753 H 0.92867 0.97393 0.88823 0.0
H754 H 0.83763 0.99089 0.86384 0.0
H755 H 0.83336 0.01056 0.94363 0.0
H756 H 0.92371 0.11375 0.25802 0.0
H757 H 0.92808 0.11457 0.34403 0.0
H758 H 0.01943 0.13451 0.33089 0.0
H759 H 0.01489 0.1336 0.24528 0.0
Nd760 Nd 0.19058 0.66135 0.32454 0.0
Nd761 Nd 0.14301 0.69961 0.37782 0.0
C762 C 0.22667 0.63732 0.26243 0.0
C763 C 0.23844 0.64012 0.21353 0.0
C764 C 0.26799 0.63456 0.20505 0.0
C765 C 0.27923 0.63455 0.15905 0.0
C766 C 0.26124 0.64 0.11983 0.0
C767 C 0.2316 0.64579 0.12846 0.0
C768 C 0.22038 0.64589 0.1746 0.0
C769 C 0.14532 0.63164 0.36727 0.0
C770 C 0.15113 0.71023 0.26585 0.0
C771 C 0.09932 0.71314 0.43443 0.0
C772 C 0.09744 0.7219 0.48465 0.0
C773 C 0.08516 0.70269 0.51747 0.0
C774 C 0.0855 0.70909 0.56559 0.0
C775 C 0.09787 0.73511 0.58228 0.0
C776 C 0.10951 0.7547 0.54919 0.0
C777 C 0.1094 0.74814 0.50101 0.0
C778 C 0.19384 0.72984 0.38067 0.0
C779 C 0.1962 0.66477 0.43617 0.0
O780 O 0.23533 0.65575 0.29483 0.0
O781 O 0.19923 0.63025 0.2668 0.0
O782 O 0.17149 0.62161 0.3623 0.0
O783 O 0.14319 0.65548 0.34471 0.0
O784 O 0.17359 0.69253 0.26802 0.0
O785 O 0.13344 0.71464 0.30194 0.0
O786 O 0.10838 0.68671 0.42715 0.0
O787 O 0.11038 0.73158 0.40427 0.0
O788 O 0.16908 0.73972 0.39503 0.0
O789 O 0.19068 0.70534 0.36052 0.0
O790 O 0.16996 0.67689 0.43614 0.0
O791 O 0.211 0.65947 0.39716 0.0
H792 H 0.28241 0.62967 0.23411 0.0
H793 H 0.30205 0.62968 0.15423 0.0
H794 H 0.21705 0.65056 0.09955 0.0
H795 H 0.19747 0.65022 0.17972 0.0
H796 H 0.07587 0.68227 0.50597 0.0
H797 H 0.07672 0.69319 0.58975 0.0
H798 H 0.11878 0.77516 0.56044 0.0
H799 H 0.1191 0.76344 0.47675 0.0
Nd800 Nd 0.58458 0.04968 0.06754 0.0
Nd801 Nd 0.54478 0.09489 0.11167 0.0
C802 C 0.6206 0.01994 1.01348 0.0
C803 C 0.6265 0.01653 0.96323 0.0
C804 C 0.64307 0.99277 0.94831 0.0
C805 C 0.6436 0.98505 0.90089 0.0
C806 C 0.62743 0.00095 0.86778 0.0
C807 C 0.61277 0.02621 0.88234 0.0
C808 C 0.61222 0.03391 0.92992 0.0
C809 C 0.54287 0.02569 0.12355 0.0
C810 C 0.52748 0.07562 1.00822 0.0
C811 C 0.51186 0.12712 0.1673 0.0
C812 C 0.50398 0.12594 0.21745 0.0
C813 C 0.50863 0.10052 0.24362 0.0
C814 C 0.50275 0.09999 0.29185 0.0
C815 C 0.49197 0.12484 0.31486 0.0
C816 C 0.48672 0.15008 0.28821 0.0
C817 C 0.49279 0.15063 0.23995 0.0
C818 C 0.58398 0.1165 0.0464 0.0
C819 C 0.59212 0.06014 0.17963 0.0
O820 O 0.62755 0.04475 0.03293 0.0
O821 O 0.59525 0.01027 1.027 0.0
O822 O 0.56879 0.0151 0.11894 0.0
O823 O 0.53881 0.04711 0.0964 0.0
O824 O 0.55398 0.0642 1.00594 0.0
O825 O 0.51651 0.08495 0.0483 0.0
O826 O 0.50163 0.10618 0.14086 0.0
O827 O 0.53911 0.1331 0.15834 0.0
O828 O 0.558 0.12664 0.0527 0.0
O829 O 0.58939 0.09756 0.07758 0.0
O830 O 0.5679 0.07524 0.17597 0.0
O831 O 0.60598 0.05089 0.14155 0.0
H832 H 0.65417 0.97915 0.97368 0.0
H833 H 0.65536 0.96569 0.89047 0.0
H834 H 0.60001 0.03876 0.85762 0.0
H835 H 0.59923 0.05232 0.94102 0.0
H836 H 0.51713 0.08116 0.22685 0.0
H837 H 0.50671 0.0801 0.31117 0.0
H838 H 0.47873 0.16967 0.30491 0.0
H839 H 0.48916 0.17047 0.22033 0.0
Nd840 Nd 0.19901 0.33472 0.31555 0.0
Nd841 Nd 0.15304 0.29643 0.36085 0.0
C842 C 0.2285 0.36947 0.25917 0.0
C843 C 0.22976 0.37383 0.20826 0.0
C844 C 0.21171 0.35749 0.17857 0.0
C845 C 0.21769 0.35587 0.13056 0.0
C846 C 0.24143 0.37101 0.11175 0.0
C847 C 0.25784 0.38941 0.14077 0.0
C848 C 0.25212 0.39066 0.18899 0.0
C849 C 0.22229 0.293 0.37234 0.0
C850 C 0.17162 0.27745 0.25791 0.0
C851 C 0.11971 0.26537 0.41756 0.0
C852 C 0.11933 0.25823 0.46811 0.0
C853 C 0.14445 0.26104 0.4958 0.0
C854 C 0.14357 0.25488 0.54403 0.0
C855 C 0.11751 0.24591 0.56554 0.0
C856 C 0.09246 0.24306 0.53747 0.0
C857 C 0.09339 0.24917 0.48927 0.0
C858 C 0.13227 0.33514 0.29401 0.0
C859 C 0.18902 0.3437 0.42736 0.0
O860 O 0.20455 0.3774 0.28037 0.0
O861 O 0.23802 0.34416 0.27324 0.0
O862 O 0.23346 0.31863 0.36701 0.0
O863 O 0.20067 0.28919 0.34546 0.0
O864 O 0.18374 0.3036 0.25512 0.0
O865 O 0.16199 0.26708 0.29822 0.0
O866 O 0.14098 0.25425 0.39279 0.0
O867 O 0.1143 0.2925 0.40683 0.0
O868 O 0.12164 0.30946 0.30118 0.0
O869 O 0.15124 0.34062 0.32517 0.0
O870 O 0.17313 0.31996 0.42446 0.0
O871 O 0.19882 0.35676 0.38896 0.0
H872 H 0.19427 0.34448 0.19291 0.0
H873 H 0.20492 0.34145 0.10863 0.0
H874 H 0.27645 0.40095 0.12684 0.0
H875 H 0.26632 0.40325 0.21157 0.0
H876 H 0.16468 0.26823 0.48021 0.0
H877 H 0.16315 0.25772 0.56463 0.0
H878 H 0.07213 0.23592 0.55272 0.0
H879 H 0.07378 0.24692 0.46851 0.0
Nd880 Nd 0.90959 0.9443 0.56779 0.0
Nd881 Nd 0.9491 0.89881 0.61168 0.0
C882 C 0.87371 0.97424 0.5138 0.0
C883 C 0.86781 0.97767 0.46354 0.0
C884 C 0.85125 0.00143 0.44868 0.0
C885 C 0.85067 0.00913 0.40127 0.0
C886 C 0.8668 0.99321 0.36811 0.0
C887 C 0.88146 0.96794 0.38263 0.0
C888 C 0.88205 0.96026 0.4302 0.0
C889 C 0.95129 0.96802 0.62424 0.0
C890 C 0.96665 0.91828 0.50852 0.0
C891 C 0.98177 0.86622 0.66718 0.0
C892 C 0.9897 0.86721 0.71737 0.0
C893 C 0.985 0.89252 0.74383 0.0
C894 C 0.99093 0.8929 0.79206 0.0
C895 C 0.00181 0.868 0.8148 0.0
C896 C 0.00716 0.84289 0.78784 0.0
C897 C 0.00103 0.84249 0.73957 0.0
C898 C 0.9099 0.87759 0.54592 0.0
C899 C 0.90186 0.93364 0.67974 0.0
O900 O 0.86663 0.94946 0.53318 0.0
O901 O 0.89911 0.98378 0.52735 0.0
O902 O 0.92541 0.97872 0.61953 0.0
O903 O 0.95533 0.94664 0.59695 0.0
O904 O 0.9402 0.92981 0.50623 0.0
O905 O 0.97754 0.90881 0.54857 0.0
O906 O 0.99216 0.88713 0.64092 0.0
O907 O 0.95447 0.86049 0.65815 0.0
O908 O 0.93584 0.86734 0.55222 0.0
O909 O 0.90453 0.89643 0.57731 0.0
O910 O 0.92602 0.91844 0.67605 0.0
O911 O 0.88808 0.94303 0.64168 0.0
H912 H 0.84018 0.01507 0.47407 0.0
H913 H 0.83891 0.02849 0.39088 0.0
H914 H 0.8942 0.95537 0.35788 0.0
H915 H 0.89502 0.94185 0.44126 0.0
H916 H 0.97643 0.91191 0.7273 0.0
H917 H 0.98692 0.91271 0.81159 0.0
H918 H 0.01526 0.82328 0.8043 0.0
H919 H 0.00473 0.82273 0.71971 0.0
Nd920 Nd 0.29547 0.66048 0.81672 0.0
Nd921 Nd 0.34185 0.69832 0.86023 0.0
C922 C 0.26385 0.62693 0.76131 0.0
C923 C 0.25967 0.62378 0.71055 0.0
C924 C 0.27788 0.6384 0.67887 0.0
C925 C 0.26968 0.64138 0.63177 0.0
C926 C 0.24312 0.62985 0.616 0.0
C927 C 0.2262 0.61322 0.64714 0.0
C928 C 0.23439 0.61032 0.69414 0.0
C929 C 0.27271 0.70221 0.87395 0.0
C930 C 0.32285 0.71707 0.75773 0.0
C931 C 0.37594 0.72927 0.91601 0.0
C932 C 0.37656 0.73662 0.9665 0.0
C933 C 0.3516 0.73376 0.99449 0.0
C934 C 0.35271 0.73997 0.04269 0.0
C935 C 0.37883 0.74908 0.06387 0.0
C936 C 0.40372 0.75202 0.03548 0.0
C937 C 0.40257 0.74584 0.9873 0.0
C938 C 0.36203 0.65932 0.79326 0.0
C939 C 0.30642 0.65184 0.92839 0.0
O940 O 0.28885 0.61877 0.77878 0.0
O941 O 0.25484 0.65172 0.77827 0.0
O942 O 0.26195 0.67637 0.86948 0.0
O943 O 0.29401 0.70621 0.84639 0.0
O944 O 0.3104 0.69108 0.75553 0.0
O945 O 0.33278 0.72757 0.79775 0.0
O946 O 0.35471 0.74054 0.89134 0.0
O947 O 0.38092 0.70202 0.90555 0.0
O948 O 0.37269 0.68502 0.80006 0.0
O949 O 0.34329 0.65388 0.82482 0.0
O950 O 0.32235 0.67547 0.92467 0.0
O951 O 0.29626 0.63854 0.89038 0.0
H952 H 0.29748 0.64901 0.69111 0.0
H953 H 0.28311 0.65436 0.60864 0.0
H954 H 0.2059 0.60364 0.6357 0.0
H955 H 0.22007 0.59905 0.71824 0.0
H956 H 0.33132 0.72647 0.97917 0.0
H957 H 0.33324 0.73705 0.06354 0.0
H958 H 0.4241 0.75926 0.05047 0.0
H959 H 0.42207 0.74813 0.96629 0.0
Nd960 Nd 0.4467 0.08792 0.7301 0.0
Nd961 Nd 0.40453 0.04954 0.78521 0.0
C962 C 0.47224 0.12267 0.66826 0.0
C963 C 0.47278 0.12615 0.61675 0.0
C964 C 0.44832 0.12006 0.58887 0.0
C965 C 0.45033 0.12077 0.53968 0.0
C966 C 0.47695 0.12721 0.51766 0.0
C967 C 0.50113 0.13395 0.54588 0.0
C968 C 0.49903 0.13344 0.59487 0.0
C969 C 0.46987 0.03436 0.74803 0.0
C970 C 0.40254 0.04154 0.67387 0.0
C971 C 0.37812 0.01677 0.84966 0.0
C972 C 0.38189 0.00578 0.89884 0.0
C973 C 0.40862 0.99502 0.91536 0.0
C974 C 0.41118 0.98371 0.96119 0.0
C975 C 0.38712 0.98285 0.99204 0.0
C976 C 0.36055 0.99418 0.97556 0.0
C977 C 0.35799 0.00538 0.92968 0.0
C978 C 0.38003 0.09766 0.74156 0.0
C979 C 0.45712 0.08506 0.84063 0.0
O980 O 0.44834 0.1295 0.69046 0.0
O981 O 0.48392 0.09878 0.68401 0.0
O982 O 0.48318 0.05868 0.75625 0.0
O983 O 0.44348 0.03936 0.73873 0.0
O984 O 0.41891 0.0653 0.67262 0.0
O985 O 0.39641 0.02814 0.71386 0.0
O986 O 0.39511 0.00629 0.81672 0.0
O987 O 0.3731 0.04458 0.84437 0.0
O988 O 0.36668 0.07319 0.74852 0.0
O989 O 0.40403 0.09708 0.76369 0.0
O990 O 0.43916 0.06285 0.83912 0.0
O991 O 0.46127 0.10202 0.80383 0.0
H992 H 0.42793 0.11406 0.60509 0.0
H993 H 0.43136 0.1153 0.51895 0.0
H994 H 0.52182 0.13941 0.53003 0.0
H995 H 0.51817 0.13809 0.61576 0.0
H996 H 0.42756 0.99521 0.89277 0.0
H997 H 0.43218 0.97576 0.97253 0.0
H998 H 0.34144 0.99378 0.99774 0.0
H999 H 0.33709 0.01347 0.91802 0.0
Nd1000 Nd 0.6561 0.69553 0.47967 0.0
Nd1001 Nd 0.69337 0.65262 0.53512 0.0
C1002 C 0.6215 0.72084 0.41733 0.0
C1003 C 0.61917 0.72219 0.36567 0.0
C1004 C 0.62616 0.69825 0.33709 0.0
C1005 C 0.62576 0.7009 0.28798 0.0
C1006 C 0.61879 0.72762 0.26672 0.0
C1007 C 0.61143 0.75133 0.29559 0.0
C1008 C 0.61158 0.7486 0.34451 0.0
C1009 C 0.70994 0.71787 0.49756 0.0
C1010 C 0.70251 0.65108 0.42387 0.0
C1011 C 0.72567 0.62567 0.59948 0.0
C1012 C 0.73732 0.62924 0.64833 0.0
C1013 C 0.76718 0.62553 0.65677 0.0
C1014 C 0.77857 0.62725 0.70256 0.0
C1015 C 0.76042 0.63258 0.74158 0.0
C1016 C 0.73046 0.63633 0.73308 0.0
C1017 C 0.71908 0.63475 0.68714 0.0
C1018 C 0.64494 0.62915 0.49124 0.0
C1019 C 0.65891 0.70597 0.59023 0.0
O1020 O 0.61539 0.69618 0.43775 0.0
O1021 O 0.64433 0.73337 0.43535 0.0
O1022 O 0.68581 0.73162 0.50558 0.0
O1023 O 0.70457 0.69146 0.48879 0.0
O1024 O 0.67997 0.66907 0.42188 0.0
O1025 O 0.71434 0.64294 0.46416 0.0
O1026 O 0.73669 0.64193 0.5661 0.0
O1027 O 0.69766 0.62164 0.59451 0.0
O1028 O 0.66907 0.61525 0.49844 0.0
O1029 O 0.64594 0.65315 0.5133 0.0
O1030 O 0.68076 0.68756 0.58892 0.0
O1031 O 0.64211 0.71044 0.55329 0.0
H1032 H 0.63245 0.67773 0.35268 0.0
H1033 H 0.63174 0.68231 0.2667 0.0
H1034 H 0.60559 0.77207 0.28031 0.0
H1035 H 0.60624 0.76733 0.36593 0.0
H1036 H 0.78178 0.62096 0.62782 0.0
H1037 H 0.80166 0.62392 0.70742 0.0
H1038 H 0.71578 0.64091 0.76189 0.0
H1039 H 0.69595 0.63775 0.68211 0.0
Nd1040 Nd 0.04711 0.9063 0.23026 0.0
Nd1041 Nd 0.08953 0.94447 0.28577 0.0
C1042 C 0.02121 0.87183 0.16823 0.0
C1043 C 0.02081 0.86787 0.1168 0.0
C1044 C 0.0452 0.87412 0.0889 0.0
C1045 C 0.04328 0.87294 0.03971 0.0
C1046 C 0.01679 0.86591 1.0177 0.0
C1047 C 0.99268 0.85902 0.04595 0.0
C1048 C 0.99471 0.85997 0.09495 0.0
C1049 C 0.02416 0.95984 0.24903 0.0
C1050 C 0.09137 0.95266 0.17446 0.0
C1051 C 0.11603 0.97713 0.35034 0.0
C1052 C 0.11233 0.98806 0.39959 0.0
C1053 C 0.0857 -0.00096 0.4161 0.0
C1054 C 0.08323 0.0103 0.46201 0.0
C1055 C 0.10728 0.01086 0.49292 0.0
C1056 C 0.13375 -0.0007 0.47645 0.0
C1057 C 0.13622 0.98815 0.43049 0.0
C1058 C 0.1139 0.89652 0.24145 0.0
C1059 C 0.03692 0.90884 0.34094 0.0
O1060 O 0.0448 0.86457 0.19096 0.0
O1061 O 0.01006 0.89614 0.18333 0.0
O1062 O 0.0108 0.93552 0.25708 0.0
O1063 O 0.05051 0.95478 0.23955 0.0
O1064 O 0.07497 0.92893 0.17304 0.0
O1065 O 0.09756 0.96599 0.21452 0.0
O1066 O 0.099 0.98767 0.3175 0.0
O1067 O 0.12103 0.94933 0.34486 0.0
O1068 O 0.12735 0.92088 0.24896 0.0
O1069 O 0.08989 0.89705 0.26354 0.0
O1070 O 0.05504 0.93093 0.3397 0.0
O1071 O 0.03255 0.89209 0.3039 0.0
H1072 H 0.06544 0.88063 0.10511 0.0
H1073 H 0.06218 0.87854 1.01894 0.0
H1074 H 0.9721 0.85315 1.03012 0.0
H1075 H 0.97561 0.8552 0.11584 0.0
H1076 H 0.06677 -0.00092 0.39347 0.0
H1077 H 0.0623 0.01844 0.47335 0.0
H1078 H 0.15284 -0.00053 0.49868 0.0
H1079 H 0.15704 0.97988 0.41883 0.0
Nd1080 Nd 0.83768 0.29747 0.97917 0.0
Nd1081 Nd 0.80052 0.34065 0.03475 0.0
C1082 C 0.87237 0.27208 0.91695 0.0
C1083 C 0.87598 0.27203 0.8655 0.0
C1084 C 0.86535 0.29485 0.83758 0.0
C1085 C 0.86671 0.29304 0.78842 0.0
C1086 C 0.87868 0.26837 0.76635 0.0
C1087 C 0.88973 0.24587 0.79471 0.0
C1088 C 0.88835 0.24771 0.84373 0.0
C1089 C 0.78384 0.27532 0.99725 0.0
C1090 C 0.79139 0.34212 0.92354 0.0
C1091 C 0.76834 0.36771 0.09922 0.0
C1092 C 0.75662 0.36421 0.14806 0.0
C1093 C 0.72677 0.36807 0.1564 0.0
C1094 C 0.71531 0.36641 0.20215 0.0
C1095 C 0.73337 0.36098 0.24126 0.0
C1096 C 0.76333 0.3571 0.23285 0.0
C1097 C 0.77478 0.35863 0.18695 0.0
C1098 C 0.849 0.36382 0.99061 0.0
C1099 C 0.83471 0.28704 0.08982 0.0
O1100 O 0.87923 0.29584 0.93952 0.0
O1101 O 0.84838 0.26045 0.93239 0.0
O1102 O 0.80794 0.26149 1.00525 0.0
O1103 O 0.78927 0.30173 0.98854 0.0
O1104 O 0.81404 0.32428 0.92161 0.0
O1105 O 0.77944 0.35016 0.96381 0.0
O1106 O 0.75725 0.35153 0.06574 0.0
O1107 O 0.79637 0.37161 0.09429 0.0
O1108 O 0.82494 0.37786 0.99784 0.0
O1109 O 0.84789 0.33988 1.01274 0.0
O1110 O 0.81315 0.30579 0.08863 0.0
O1111 O 0.8513 0.28218 0.05276 0.0
H1112 H 0.8556 0.31381 0.85372 0.0
H1113 H 0.85828 0.3109 0.76772 0.0
H1114 H 0.89867 0.22637 0.77905 0.0
H1115 H 0.89637 0.22976 0.86468 0.0
H1116 H 0.71222 0.37272 0.1274 0.0
H1117 H 0.69223 0.36986 0.20691 0.0
H1118 H 0.77795 0.35246 0.26172 0.0
H1119 H 0.7979 0.35553 0.18202 0.0
Nd1120 Nd 0.4526 0.90104 0.24977 0.0
Nd1121 Nd 0.41356 0.94675 0.29343 0.0
C1122 C 0.48489 0.86841 0.19379 0.0
C1123 C 0.49264 0.86965 0.14355 0.0
C1124 C 0.48842 0.89528 0.1177 0.0
C1125 C 0.49428 0.89595 0.06945 0.0
C1126 C 0.50463 0.87103 0.04609 0.0
C1127 C 0.50937 0.84556 0.07241 0.0
C1128 C 0.50332 0.84487 0.12068 0.0
C1129 C 0.41397 0.87995 0.31638 0.0
C1130 C 0.40543 0.93591 0.18156 0.0
C1131 C 0.37812 0.97726 0.34728 0.0
C1132 C 0.37181 0.9801 0.39746 0.0
C1133 C 0.35513 0.00368 0.41276 0.0
C1134 C 0.3544 0.01094 0.46036 0.0
C1135 C 0.37049 0.99475 0.4932 0.0
C1136 C 0.38514 0.96959 0.47822 0.0
C1137 C 0.38589 0.96235 0.43048 0.0
C1138 C 0.45518 0.97005 0.23634 0.0
C1139 C 0.47057 0.92065 0.35262 0.0
O1140 O 0.49552 0.88909 0.22035 0.0
O1141 O 0.45759 0.86279 0.20295 0.0
O1142 O 0.43978 0.86958 0.30939 0.0
O1143 O 0.40824 0.89879 0.28511 0.0
O1144 O 0.42943 0.92047 0.18528 0.0
O1145 O 0.39185 0.94553 0.21963 0.0
O1146 O 0.37038 0.95305 0.32669 0.0
O1147 O 0.404 0.98608 0.33489 0.0
O1148 O 0.42934 0.98082 0.24109 0.0
O1149 O 0.45922 0.94889 0.264 0.0
O1150 O 0.44412 0.93218 0.355 0.0
O1151 O 0.48136 0.91116 0.31251 0.0
H1152 H 0.48031 0.91471 0.13473 0.0
H1153 H 0.4907 0.91601 0.05041 0.0
H1154 H 0.51699 0.82591 0.05546 0.0
H1155 H 0.5066 0.82487 0.14003 0.0
H1156 H 0.34418 0.01758 0.38761 0.0
H1157 H 0.34269 0.03025 0.47114 0.0
H1158 H 0.39785 0.95684 0.50276 0.0
H1159 H 0.39895 0.94408 0.41907 0.0
Nd1160 Nd 0.84187 0.69747 0.99885 0.0
Nd1161 Nd 0.79532 0.65938 0.04338 0.0
C1162 C 0.87492 0.72896 0.94247 0.0
C1163 C 0.87377 0.73641 0.89214 0.0
C1164 C 0.84841 0.73141 0.86595 0.0
C1165 C 0.84779 0.73721 0.8177 0.0
C1166 C 0.87249 0.74831 0.79472 0.0
C1167 C 0.89769 0.75379 0.82135 0.0
C1168 C 0.89834 0.74777 0.86963 0.0
C1169 C 0.86209 0.65812 0.06499 0.0
C1170 C 0.80577 0.65061 0.93168 0.0
C1171 C 0.76551 0.62437 0.09882 0.0
C1172 C 0.76438 0.61935 0.14956 0.0
C1173 C 0.78266 0.63514 0.17964 0.0
C1174 C 0.7769 0.6361 0.22776 0.0
C1175 C 0.75312 0.62086 0.24624 0.0
C1176 C 0.7365 0.60295 0.21674 0.0
C1177 C 0.74202 0.60234 0.16844 0.0
C1178 C 0.77283 0.70157 0.98649 0.0
C1179 C 0.82302 0.71617 0.10173 0.0
O1180 O 0.85432 0.74002 0.96872 0.0
O1181 O 0.8802 0.70165 0.95209 0.0
O1182 O 0.87313 0.68368 0.05827 0.0
O1183 O 0.84302 0.65308 0.03383 0.0
O1184 O 0.82186 0.67421 0.93492 0.0
O1185 O 0.79566 0.63756 0.96985 0.0
O1186 O 0.7893 0.61638 0.07721 0.0
O1187 O 0.75629 0.64998 0.08567 0.0
O1188 O 0.76122 0.67611 0.99166 0.0
O1189 O 0.79427 0.70497 1.01383 0.0
O1190 O 0.81075 0.69008 0.10431 0.0
O1191 O 0.83281 0.72657 0.06157 0.0
H1192 H 0.82913 0.72282 0.88274 0.0
H1193 H 0.82794 0.73306 0.79837 0.0
H1194 H 0.91716 0.76202 0.80465 0.0
H1195 H 0.91813 0.75167 0.88926 0.0
H1196 H 0.80011 0.64828 0.16559 0.0
H1197 H 0.78982 0.65016 0.25006 0.0
H1198 H 0.71786 0.59135 0.23043 0.0
H1199 H 0.72767 0.59016 0.14555 0.0
Nd1200 Nd 0.04235 0.09277 0.75097 0.0
Nd1201 Nd 0.08084 0.04666 0.79438 0.0
C1202 C 0.0105 0.12577 0.69489 0.0
C1203 C 0.00274 0.12455 0.64461 0.0
C1204 C 0.00674 0.09886 0.61876 0.0
C1205 C 0.00081 0.09818 0.57051 0.0
C1206 C 0.99061 0.12314 0.54714 0.0
C1207 C 0.9861 0.14868 0.57346 0.0
C1208 C 0.99222 0.14938 0.62172 0.0
C1209 C 0.08116 0.11337 0.81791 0.0
C1210 C 0.08924 0.05762 0.68266 0.0
C1211 C 0.11602 0.01582 0.8481 0.0
C1212 C 0.12255 0.01324 0.89823 0.0
C1213 C 0.13923 0.9897 0.91366 0.0
C1214 C 0.14009 0.98269 0.96132 0.0
C1215 C 0.12412 -0.00091 0.99407 0.0
C1216 C 0.10954 0.02424 0.97896 0.0
C1217 C 0.10867 0.03123 0.93115 0.0
C1218 C 0.03918 0.02375 0.73685 0.0
C1219 C 0.024 0.07318 0.85354 0.0
O1220 O -0.00041 0.10527 0.72146 0.0
O1221 O 0.03786 0.13105 0.70413 0.0
O1222 O 0.05542 0.12396 0.81099 0.0
O1223 O 0.0867 0.09457 0.78647 0.0
O1224 O 0.06538 0.07327 0.6864 0.0
O1225 O 0.10266 0.04778 0.72071 0.0
O1226 O 0.12409 0.03974 0.82705 0.0
O1227 O 0.08992 0.0074 0.83618 0.0
O1228 O 0.06493 0.01281 0.74173 0.0
O1229 O 0.03521 0.0449 0.76461 0.0
O1230 O 0.05036 0.06144 0.85596 0.0
O1231 O 0.01335 0.08281 0.81344 0.0
H1232 H 0.01471 0.07939 0.6358 0.0
H1233 H 0.00421 0.07806 0.5515 0.0
H1234 H 0.97859 0.16836 0.55651 0.0
H1235 H 0.98911 0.16943 0.64106 0.0
H1236 H 0.15004 0.97564 0.88858 0.0
H1237 H 0.15172 0.96337 0.97223 0.0
H1238 H 0.09693 0.03714 1.00344 0.0
H1239 H 0.09562 0.04948 0.91963 0.0
Nd1240 Nd 0.65127 0.2964 0.49823 0.0
Nd1241 Nd 0.6979 0.33428 0.54291 0.0
C1242 C 0.61758 0.26534 0.44204 0.0
C1243 C 0.61762 0.25786 0.39166 0.0
C1244 C 0.64266 0.26177 0.36422 0.0
C1245 C 0.64225 0.25541 0.31607 0.0
C1246 C 0.61678 0.24499 0.2944 0.0
C1247 C 0.59181 0.24093 0.32228 0.0
C1248 C 0.59225 0.24735 0.37041 0.0
C1249 C 0.63117 0.33546 0.565 0.0
C1250 C 0.68754 0.3431 0.43115 0.0
C1251 C 0.72789 0.36912 0.59852 0.0
C1252 C 0.72922 0.37407 0.64929 0.0
C1253 C 0.71108 0.3582 0.67945 0.0
C1254 C 0.71702 0.35721 0.72752 0.0
C1255 C 0.74083 0.37248 0.74587 0.0
C1256 C 0.75734 0.39041 0.7163 0.0
C1257 C 0.75164 0.39106 0.66805 0.0
C1258 C 0.72029 0.29213 0.48581 0.0
C1259 C 0.67026 0.27746 0.60103 0.0
O1260 O 0.63851 0.2541 0.46739 0.0
O1261 O 0.61257 0.29266 0.45209 0.0
O1262 O 0.62017 0.30992 0.55797 0.0
O1263 O 0.65017 0.34067 0.5338 0.0
O1264 O 0.67135 0.31957 0.43429 0.0
O1265 O 0.69764 0.35612 0.46941 0.0
O1266 O 0.70406 0.37719 0.57711 0.0
O1267 O 0.73702 0.34351 0.58512 0.0
O1268 O 0.73193 0.31757 0.49108 0.0
O1269 O 0.69886 0.2887 0.51311 0.0
O1270 O 0.68261 0.30351 0.60368 0.0
O1271 O 0.66035 0.26713 0.56084 0.0
H1272 H 0.66247 0.26998 0.37994 0.0
H1273 H 0.66174 0.25923 0.29566 0.0
H1274 H 0.57194 0.23263 0.30696 0.0
H1275 H 0.57272 0.2442 0.39103 0.0
H1276 H 0.6936 0.34505 0.66548 0.0
H1277 H 0.70422 0.3431 0.74987 0.0
H1278 H 0.77603 0.402 0.72989 0.0
H1279 H 0.76589 0.40329 0.6451 0.0
C1280 C 0.11301 0.49297 0.2328 0.0
C1281 C 0.10414 0.46384 0.22901 0.0
H1282 H 0.12674 0.52724 0.27912 0.0
C1283 C 0.10393 0.44635 0.26941 0.0
H1284 H 0.11322 0.507 0.20224 0.0
C1285 C 0.11196 0.45772 0.31282 0.0
C1286 C 0.12005 0.48701 0.31707 0.0
H1287 H 0.09718 0.42386 0.26777 0.0
H1288 H 0.11076 0.44379 0.34345 0.0
C1289 C 0.12065 0.50456 0.27667 0.0
C1290 C 0.7623 0.83645 0.55878 0.0
C1291 C 0.75107 0.86439 0.56606 0.0
H1292 H 0.78402 0.8076 0.51158 0.0
C1293 C 0.75238 0.88501 0.52982 0.0
H1294 H 0.76173 0.82038 0.58662 0.0
C1295 C 0.76468 0.87753 0.48642 0.0
C1296 C 0.77656 0.84972 0.47972 0.0
H1297 H 0.74402 0.90676 0.53518 0.0
H1298 H 0.76563 0.8936 0.45866 0.0
C1299 C 0.77522 0.82927 0.51615 0.0
C1300 C 0.38293 0.50241 0.73753 0.0
C1301 C 0.39045 0.53177 0.73151 0.0
H1302 H 0.3735 0.46844 0.7871 0.0
C1303 C 0.39085 0.55022 0.77081 0.0
H1304 H 0.38246 0.48771 0.70779 0.0
C1305 C 0.38563 0.53937 0.81552 0.0
C1306 C 0.38006 0.50973 0.8221 0.0
H1307 H 0.39609 0.573 0.76736 0.0
H1308 H 0.38698 0.55404 0.84528 0.0
C1309 C 0.37776 0.49142 0.78272 0.0
C1310 C 0.73125 0.15738 0.05844 0.0
C1311 C 0.74259 0.12949 0.06575 0.0
H1312 H 0.70951 0.18612 1.01115 0.0
C1313 C 0.74149 0.10888 1.02941 0.0
H1314 H 0.73166 0.17344 0.08632 0.0
C1315 C 0.72927 0.11631 0.98591 0.0
C1316 C 0.71727 0.14405 0.97918 0.0
H1317 H 0.74995 0.08717 0.03478 0.0
H1318 H 0.72846 0.10023 0.95811 0.0
C1319 C 0.71841 0.16451 1.01571 0.0
C1320 C 0.8794 0.49823 0.12195 0.0
C1321 C 0.88818 0.52737 0.12601 0.0
H1322 H 0.86592 0.46405 0.07531 0.0
C1323 C 0.88827 0.54503 0.08581 0.0
H1324 H 0.87926 0.48408 0.15237 0.0
C1325 C 0.88037 0.53376 0.04227 0.0
C1326 C 0.87249 0.50443 0.03771 0.0
H1327 H 0.89494 0.56754 0.0877 0.0
H1328 H 0.88159 0.5478 1.01177 0.0
C1329 C 0.87186 0.48676 0.07798 0.0
C1330 C 0.23931 0.13429 0.86904 0.0
C1331 C 0.20971 0.14013 0.87658 0.0
H1332 H 0.27266 0.12637 0.81782 0.0
C1333 C 0.19036 0.13862 0.83858 0.0
H1334 H 0.2547 0.13543 0.89781 0.0
C1335 C 0.20039 0.13286 0.79356 0.0
C1336 C 0.23019 0.12927 0.78511 0.0
H1337 H 0.16747 0.14285 0.84324 0.0
H1338 H 0.18485 0.13242 0.76493 0.0
C1339 C 0.24955 0.12903 0.82341 0.0
C1340 C 0.61126 0.45789 0.54385 0.0
C1341 C 0.61949 0.48711 0.5392 0.0
H1342 H 0.59656 0.4243 0.58944 0.0
C1343 C 0.62042 0.50483 0.57945 0.0
H1344 H 0.60982 0.44382 0.51337 0.0
C1345 C 0.61294 0.49348 0.62351 0.0
C1346 C 0.60391 0.46442 0.62771 0.0
H1347 H 0.62665 0.52745 0.57674 0.0
H1348 H 0.61339 0.50765 0.65392 0.0
C1349 C 0.60342 0.44674 0.58748 0.0
C1350 C 0.25578 0.8584 0.36981 0.0
C1351 C 0.28542 0.85234 0.37648 0.0
H1352 H 0.22185 0.86644 0.31955 0.0
C1353 C 0.30429 0.85346 0.33784 0.0
H1354 H 0.24074 0.85757 0.39907 0.0
C1355 C 0.29372 0.85898 0.29305 0.0
C1356 C 0.26385 0.86285 0.28556 0.0
H1357 H 0.32723 0.84914 0.34184 0.0
H1358 H 0.30887 0.85904 0.26388 0.0
C1359 C 0.24501 0.86353 0.32445 0.0
C1360 C 0.62315 0.00632 0.7799 0.0
C1361 C 0.62233 0.98877 0.82029 0.0
H1362 H 0.61602 0.00882 0.70541 0.0
C1363 C 0.61426 0.95948 0.81588 0.0
H1364 H 0.62924 0.029 0.78244 0.0
C1365 C 0.60641 0.94813 0.77235 0.0
C1366 C 0.60678 0.96565 0.73198 0.0
H1367 H 0.6129 0.94553 0.84648 0.0
H1368 H 0.59963 0.92565 0.77058 0.0
C1369 C 0.61569 0.99476 0.73593 0.0
C1370 C 0.26566 0.37585 0.98489 0.0
C1371 C 0.2779 0.34816 0.97868 0.0
H1372 H 0.24473 0.40521 0.03313 0.0
C1373 C 0.27698 0.32801 1.01561 0.0
H1374 H 0.2663 0.39171 0.95679 0.0
C1375 C 0.2641 0.3354 0.05822 0.0
C1376 C 0.25249 0.36324 0.06495 0.0
H1377 H 0.28608 0.30644 1.01147 0.0
H1378 H 0.26383 0.31958 0.08643 0.0
C1379 C 0.25339 0.38354 1.02821 0.0
C1380 C 0.88772 0.04597 0.2727 0.0
C1381 C 0.88738 0.02841 0.23232 0.0
H1382 H 0.88126 0.04863 0.34682 0.0
C1383 C 0.87849 -0.0007 0.23626 0.0
H1384 H 0.8945 0.06846 0.27094 0.0
C1385 C 0.87105 0.98777 0.28022 0.0
C1386 C 0.87186 0.00536 0.32062 0.0
H1387 H 0.87818 0.98522 0.20573 0.0
H1388 H 0.86498 0.96509 0.28275 0.0
C1389 C 0.8799 0.03465 0.31622 0.0
C1390 C 0.19115 0.65592 0.52225 0.0
C1391 C 0.20868 0.65591 0.48183 0.0
H1392 H 0.1883 0.64766 0.59591 0.0
C1393 C 0.23777 0.64685 0.48557 0.0
H1394 H 0.16863 0.66271 0.52071 0.0
C1395 C 0.24908 0.63808 0.52901 0.0
C1396 C 0.23138 0.63791 0.56926 0.0
H1397 H 0.25185 0.64667 0.45506 0.0
H1398 H 0.27157 0.63126 0.53106 0.0
C1399 C 0.20233 0.64695 0.56535 0.0
C1400 C 0.38272 0.00059 0.62494 0.0
C1401 C 0.39217 0.02953 0.62879 0.0
H1402 H 0.3684 0.96662 0.57849 0.0
C1403 C 0.39279 0.04702 0.58839 0.0
H1404 H 0.38218 0.98656 0.65549 0.0
C1405 C 0.38457 0.03585 0.54497 0.0
C1406 C 0.37589 0.00675 0.54066 0.0
H1407 H 0.40002 0.06936 0.59004 0.0
H1408 H 0.38611 0.04977 0.51436 0.0
C1409 C 0.37491 0.98917 0.58102 0.0
C1410 C 0.7407 0.60767 0.32937 0.0
C1411 C 0.7421 0.62832 0.29318 0.0
H1412 H 0.72734 0.59903 0.40047 0.0
C1413 C 0.73091 0.65627 0.3005 0.0
H1414 H 0.74903 0.58591 0.32398 0.0
C1415 C 0.71794 0.66344 0.3431 0.0
C1416 C 0.71652 0.64295 0.37948 0.0
H1417 H 0.73155 0.67237 0.27271 0.0
H1418 H 0.70917 0.68511 0.3477 0.0
C1419 C 0.72836 0.61513 0.37275 0.0
C1420 C 0.10095 0.94718 0.08896 0.0
C1421 C 0.10185 0.96461 0.12944 0.0
H1422 H 0.10767 0.94436 1.01496 0.0
C1423 C 0.11175 0.99341 0.12576 0.0
H1424 H 0.09335 0.92497 0.09045 0.0
C1425 C 0.11977 0.00474 0.0819 0.0
C1426 C 0.11856 0.98719 0.04148 0.0
H1427 H 0.1125 0.0074 0.15638 0.0
H1428 H 0.12661 0.02719 0.07946 0.0
C1429 C 0.1094 0.95824 0.04564 0.0
C1430 C 0.7524 0.38526 0.82953 0.0
C1431 C 0.75204 0.36499 0.79266 0.0
H1432 H 0.76491 0.39356 0.90116 0.0
C1433 C 0.76425 0.33741 0.79928 0.0
H1434 H 0.74326 0.40673 0.82468 0.0
C1435 C 0.77714 0.33023 0.84193 0.0
C1436 C 0.77751 0.35031 0.87904 0.0
H1437 H 0.76437 0.32163 0.77096 0.0
H1438 H 0.78665 0.30883 0.84598 0.0
C1439 C 0.76471 0.37776 0.87292 0.0
C1440 C 0.11449 0.33706 0.21 0.0
C1441 C 0.12891 0.3506 0.24799 0.0
H1442 H 0.09988 0.34026 0.13815 0.0
C1443 C 0.14055 0.37838 0.24077 0.0
H1444 H 0.10548 0.31547 0.214 0.0
C1445 C 0.13786 0.39225 0.19697 0.0
C1446 C 0.12252 0.3792 0.15947 0.0
H1447 H 0.15122 0.38971 0.26927 0.0
H1448 H 0.1469 0.41383 0.19317 0.0
C1449 C 0.11137 0.35116 0.16634 0.0
C1450 C 0.86582 0.88527 0.49424 0.0
C1451 C 0.89395 0.87418 0.50037 0.0
H1452 H 0.82986 0.89164 0.44756 0.0
C1453 C 0.90739 0.86042 0.46166 0.0
H1454 H 0.8546 0.89547 0.52331 0.0
C1455 C 0.89298 0.85764 0.41821 0.0
C1456 C 0.86471 0.86846 0.41228 0.0
H1457 H 0.9292 0.85181 0.46486 0.0
H1458 H 0.90384 0.84674 0.38938 0.0
C1459 C 0.85161 0.88288 0.45066 0.0
C1460 C 0.3531 0.61613 0.73993 0.0
C1461 C 0.36547 0.64357 0.74744 0.0
H1462 H 0.34636 0.58069 0.69233 0.0
C1463 C 0.38071 0.65656 0.70982 0.0
H1464 H 0.34177 0.60519 0.76813 0.0
C1465 C 0.38395 0.64225 0.66633 0.0
C1466 C 0.37211 0.61451 0.65922 0.0
H1467 H 0.39029 0.6779 0.71398 0.0
H1468 H 0.39601 0.65275 0.63843 0.0
C1469 C 0.35593 0.60204 0.69628 0.0
C1470 C 0.64208 0.11119 0.95097 0.0
C1471 C 0.6289 0.12563 0.91269 0.0
H1472 H 0.63925 0.09866 1.02362 0.0
C1473 C 0.60074 0.13666 0.91884 0.0
H1474 H 0.66376 0.10231 0.9477 0.0
C1475 C 0.58644 0.13394 0.96236 0.0
C1476 C 0.59991 0.12007 1.00091 0.0
H1477 H 0.58984 0.14757 0.89008 0.0
H1478 H 0.56468 0.14264 0.96571 0.0
C1479 C 0.62799 0.1089 0.99463 0.0
C1480 C 0.08282 0.62487 0.45523 0.0
C1481 C 0.09736 0.61549 0.49625 0.0
H1482 H 0.08612 0.63642 0.38194 0.0
C1483 C 0.12701 0.60881 0.49286 0.0
H1484 H 0.0598 0.6297 0.45626 0.0
C1485 C 0.142 0.61271 0.45027 0.0
C1486 C 0.12788 0.62379 0.40996 0.0
H1487 H 0.13884 0.60135 0.52348 0.0
H1488 H 0.16506 0.6081 0.44956 0.0
C1489 C 0.0978 0.62854 0.41244 0.0
C1490 C 0.61201 0.85213 0.66633 0.0
C1491 C 0.62349 0.88015 0.66058 0.0
H1492 H 0.60529 0.816 0.7128 0.0
C1493 C 0.6386 0.89264 0.69879 0.0
H1494 H 0.60062 0.84171 0.63758 0.0
C1495 C 0.6407 0.87827 0.74223 0.0
C1496 C 0.6287 0.85054 0.74834 0.0
H1497 H 0.64787 0.91417 0.69583 0.0
H1498 H 0.65118 0.88919 0.77133 0.0
C1499 C 0.61456 0.83753 0.70963 0.0
C1500 C 0.40953 0.35809 0.96324 0.0
C1501 C 0.39602 0.37116 1.00252 0.0
H1502 H 0.40598 0.34526 0.89054 0.0
C1503 C 0.3675 0.38139 0.99717 0.0
H1504 H 0.43155 0.34998 0.96586 0.0
C1505 C 0.35325 0.3795 0.95352 0.0
C1506 C 0.36657 0.36606 0.91439 0.0
H1507 H 0.35613 0.39086 1.02677 0.0
H1508 H 0.33138 0.38797 0.95083 0.0
C1509 C 0.39498 0.35551 0.91985 0.0
C1510 C 0.87927 0.15637 0.20993 0.0
C1511 C 0.86511 0.1433 0.24854 0.0
H1512 H 0.89332 0.15225 0.13794 0.0
C1513 C 0.85322 0.11553 0.2423 0.0
H1514 H 0.88845 0.17793 0.21319 0.0
C1515 C 0.85542 0.10118 0.19883 0.0
C1516 C 0.87054 0.11373 0.16073 0.0
H1517 H 0.84275 0.10457 0.27134 0.0
H1518 H 0.84622 0.07963 0.19577 0.0
C1519 C 0.88192 0.14178 0.1666 0.0
C1520 C 0.88244 0.64053 0.19231 0.0
C1521 C 0.8712 0.61243 0.19811 0.0
H1522 H 0.88865 0.67679 0.14588 0.0
C1523 C 0.85589 0.59994 0.16012 0.0
H1524 H 0.89395 0.65098 0.22093 0.0
C1525 C 0.85338 0.61439 0.1168 0.0
C1526 C 0.8652 0.64218 0.11058 0.0
H1527 H 0.84675 0.57835 0.16313 0.0
H1528 H 0.84271 0.60348 0.08786 0.0
C1529 C 0.87953 0.6552 0.14912 0.0
C1530 C 0.08471 0.13303 0.9009 0.0
C1531 C 0.09711 0.11703 0.86354 0.0
H1532 H 0.08937 0.14907 0.97181 0.0
C1533 C 0.12421 0.10394 0.87111 0.0
H1534 H 0.06362 0.14313 0.89673 0.0
C1535 C 0.13864 0.10691 0.91441 0.0
C1536 C 0.12688 0.12392 0.95112 0.0
H1537 H 0.13472 0.09205 0.84311 0.0
H1538 H 0.15974 0.0968 0.91828 0.0
C1539 C 0.09938 0.13639 0.94411 0.0
C1540 C 0.61362 0.33792 0.6491 0.0
C1541 C 0.62806 0.35113 0.61088 0.0
H1542 H 0.59918 0.34167 0.72096 0.0
C1543 C 0.63995 0.37885 0.6177 0.0
H1544 H 0.60445 0.31638 0.64541 0.0
C1545 C 0.63742 0.39302 0.66129 0.0
C1546 C 0.62201 0.38033 0.69899 0.0
H1547 H 0.65071 0.38991 0.58903 0.0
H1548 H 0.64663 0.41455 0.66476 0.0
C1549 C 0.61068 0.35231 0.69257 0.0
C1550 C 0.39656 0.85704 0.44278 0.0
C1551 C 0.36886 0.86901 0.44989 0.0
H1552 H 0.43229 0.85081 0.39521 0.0
C1553 C 0.35664 0.88564 0.41313 0.0
H1554 H 0.40691 0.8447 0.47053 0.0
C1555 C 0.37086 0.88872 0.3697 0.0
C1556 C 0.39819 0.87614 0.36207 0.0
H1557 H 0.33538 0.8954 0.41712 0.0
H1558 H 0.36006 0.90035 0.3417 0.0
C1559 C 0.41101 0.8605 0.39944 0.0
C1560 C 0.86715 0.38508 0.86415 0.0
C1561 C 0.89517 0.37367 0.85807 0.0
H1562 H 0.83124 0.39189 0.91076 0.0
C1563 C 0.90845 0.35982 0.89681 0.0
H1564 H 0.85607 0.3954 0.83507 0.0
C1565 C 0.894 0.35729 0.94026 0.0
C1566 C 0.86585 0.36842 0.94614 0.0
H1567 H 0.93017 0.35099 0.89366 0.0
H1568 H 0.90477 0.34638 0.96915 0.0
C1569 C 0.8529 0.3829 0.9077 0.0
C1570 C 0.35771 0.11562 0.61535 0.0
C1571 C 0.36955 0.14338 0.60859 0.0
H1572 H 0.3506 0.08015 0.6627 0.0
C1573 C 0.38367 0.15673 0.64707 0.0
H1574 H 0.34725 0.10441 0.5865 0.0
C1575 C 0.38628 0.14252 0.69073 0.0
C1576 C 0.37488 0.11454 0.69719 0.0
H1577 H 0.39285 0.17827 0.64348 0.0
H1578 H 0.39754 0.15329 0.71927 0.0
C1579 C 0.35984 0.10166 0.6592 0.0
C1580 C 0.62693 0.60732 0.36495 0.0
C1581 C 0.5988 0.61842 0.3588 0.0
H1582 H 0.66292 0.60105 0.41157 0.0
C1583 C 0.58539 0.63226 0.39745 0.0
H1584 H 0.63811 0.597 0.33594 0.0
C1585 C 0.59983 0.63511 0.44088 0.0
C1586 C 0.62811 0.62431 0.44681 0.0
H1587 H 0.56358 0.64086 0.39423 0.0
H1588 H 0.58898 0.64604 0.46969 0.0
C1589 C 0.64118 0.60982 0.40847 0.0
C1590 C 0.13605 0.87966 0.1148 0.0
C1591 C 0.1236 0.85228 0.10703 0.0
H1592 H 0.14386 0.91438 0.16339 0.0
C1593 C 0.10929 0.83869 0.14505 0.0
H1594 H 0.14671 0.89104 0.08634 0.0
C1595 C 0.10703 0.85235 0.18922 0.0
C1596 C 0.11893 0.88002 0.19665 0.0
H1597 H 0.09966 0.81739 0.14068 0.0
H1598 H 0.09562 0.84141 0.2174 0.0
C1599 C 0.13422 0.89309 0.15915 0.0
C1600 C 0.01255 0.51351 0.20595 0.0
C1601 C 0.98241 0.51083 0.21268 0.0
H1602 H 0.04977 0.50062 0.16625 0.0
C1603 C 0.96662 0.49224 0.18285 0.0
H1604 H 0.02534 0.52797 0.22777 0.0
C1605 C 0.98056 0.477 0.14686 0.0
C1606 C 0.01071 0.47963 0.14021 0.0
H1607 H 0.94332 0.48997 0.18653 0.0
H1608 H 0.9678 0.46249 0.12509 0.0
C1609 C 0.02647 0.49832 0.16992 0.0
C1610 C 0.76422 0.72982 0.39997 0.0
C1611 C 0.76182 0.7599 0.39227 0.0
H1612 H 0.75134 0.69327 0.44127 0.0
C1613 C 0.74355 0.77623 0.42188 0.0
H1614 H 0.77838 0.71659 0.37834 0.0
C1615 C 0.72853 0.76295 0.45873 0.0
C1616 C 0.73094 0.73286 0.46645 0.0
H1617 H 0.74142 0.7995 0.41744 0.0
H1618 H 0.71437 0.77618 0.48037 0.0
C1619 C 0.7492 0.71653 0.43682 0.0
C1620 C 0.48089 0.47914 0.70867 0.0
C1621 C 0.511 0.48165 0.71593 0.0
H1622 H 0.44395 0.49241 0.66849 0.0
C1623 C 0.52702 0.50032 0.68662 0.0
H1624 H 0.46792 0.46464 0.73009 0.0
C1625 C 0.51339 0.51571 0.65051 0.0
C1626 C 0.48328 0.51321 0.64325 0.0
H1627 H 0.55031 0.50252 0.69074 0.0
H1628 H 0.52637 0.53019 0.62908 0.0
C1629 C 0.46724 0.49456 0.67259 0.0
C1630 C 0.72961 0.26365 0.89941 0.0
C1631 C 0.73198 0.23358 0.89147 0.0
H1632 H 0.74248 0.30008 0.94107 0.0
C1633 C 0.75024 0.21717 0.92097 0.0
H1634 H 0.71546 0.27694 0.87787 0.0
C1635 C 0.76524 0.23035 0.95799 0.0
C1636 C 0.76283 0.26041 0.96598 0.0
H1637 H 0.75235 0.19391 0.91634 0.0
H1638 H 0.77937 0.21705 0.97954 0.0
C1639 C 0.74461 0.27683 0.93642 0.0
C1640 C 0.00426 0.46978 0.70363 0.0
C1641 C 0.97587 0.48071 0.70475 0.0
H1642 H 0.04723 0.4746 0.676 0.0
C1643 C 0.96892 0.50539 0.6778 0.0
H1644 H 0.01015 0.4508 0.72403 0.0
C1645 C 0.99005 0.51902 0.65035 0.0
C1646 C 0.01845 0.50811 0.64926 0.0
H1647 H 0.94711 0.51423 0.67794 0.0
H1648 H 0.98415 0.53801 0.62999 0.0
C1649 C 0.02541 0.48342 0.67616 0.0
C1650 C 0.73465 0.71841 0.93067 0.0
C1651 C 0.75966 0.7245 0.95736 0.0
H1652 H 0.70244 0.73475 0.883 0.0
C1653 C 0.77159 0.75248 0.95604 0.0
H1654 H 0.72504 0.69693 0.931 0.0
C1655 C 0.75864 0.77405 0.92858 0.0
C1656 C 0.73363 0.76796 0.90188 0.0
H1657 H 0.79084 0.75771 0.97626 0.0
H1658 H 0.76825 0.79553 0.92824 0.0
C1659 C 0.72169 0.73998 0.90322 0.0
C1660 C 0.50533 0.47069 0.15272 0.0
C1661 C 0.47655 0.48056 0.15305 0.0
H1662 H 0.54863 0.47721 0.17796 0.0
C1663 C 0.4693 0.50522 0.17993 0.0
H1664 H 0.51146 0.45177 0.13232 0.0
C1665 C 0.49049 0.51981 0.206 0.0
C1666 C 0.51925 0.50989 0.20579 0.0
H1667 H 0.4472 0.51328 0.18087 0.0
H1668 H 0.48434 0.53869 0.22646 0.0
C1669 C 0.52652 0.48528 0.17882 0.0
C1670 C 0.77159 0.25374 0.40275 0.0
C1671 C 0.75977 0.22571 0.40149 0.0
H1672 H 0.76807 0.29684 0.43036 0.0
C1673 C 0.73476 0.21958 0.42813 0.0
H1674 H 0.79084 0.259 0.38256 0.0
C1675 C 0.72171 0.24117 0.45547 0.0
C1676 C 0.73353 0.26919 0.45674 0.0
H1677 H 0.72523 0.19807 0.42785 0.0
H1678 H 0.70246 0.23591 0.47566 0.0
C1679 C 0.75854 0.27533 0.43008 0.0
C1680 C 0.24404 0.27604 0.91678 0.0
C1681 C 0.26258 0.25943 0.88802 0.0
H1682 H 0.21432 0.27657 0.97452 0.0
C1683 C 0.2645 0.22933 0.896 0.0
H1684 H 0.24221 0.29931 0.91204 0.0
C1685 C 0.24889 0.21635 0.93251 0.0
C1686 C 0.23063 0.23305 0.96161 0.0
H1687 H 0.27882 0.21588 0.875 0.0
H1688 H 0.25071 0.19309 0.93732 0.0
C1689 C 0.22852 0.26309 0.95337 0.0
C1690 C 0.21909 0.77014 0.41993 0.0
C1691 C 0.22047 0.74172 0.40193 0.0
H1692 H 0.23795 0.80218 0.46486 0.0
C1693 C 0.24378 0.72383 0.41494 0.0
H1694 H 0.20124 0.78442 0.41077 0.0
C1695 C 0.26453 0.73382 0.44721 0.0
C1696 C 0.26252 0.76205 0.46628 0.0
H1697 H 0.24549 0.7019 0.4017 0.0
H1698 H 0.28236 0.7196 0.45657 0.0
C1699 C 0.23972 0.78013 0.45182 0.0
C1700 C 0.24009 0.21992 0.42519 0.0
C1701 C 0.26487 0.22646 0.45219 0.0
H1702 H 0.20695 0.23595 0.379 0.0
C1703 C 0.27541 0.25499 0.45293 0.0
H1704 H 0.23151 0.19802 0.42393 0.0
C1705 C 0.26132 0.27666 0.42713 0.0
C1706 C 0.23653 0.27009 0.40015 0.0
H1707 H 0.29445 0.26057 0.47345 0.0
H1708 H 0.26986 0.29857 0.42828 0.0
C1709 C 0.22597 0.24157 0.39951 0.0
C1710 C 0.26724 0.75393 0.89903 0.0
C1711 C 0.25772 0.72509 0.9008 0.0
H1712 H 0.26011 0.7976 0.92173 0.0
C1713 C 0.23308 0.71808 0.92785 0.0
H1714 H 0.2861 0.75989 0.87841 0.0
C1715 C 0.21812 0.73961 0.95265 0.0
C1716 C 0.22768 0.76846 0.95092 0.0
H1717 H 0.2253 0.69591 0.92986 0.0
H1718 H 0.19927 0.73368 0.97334 0.0
C1719 C 0.25229 0.77544 0.92378 0.0
C1720 C 0.46949 0.99484 0.68781 0.0
C1721 C 0.48538 0.0134 0.71756 0.0
H1722 H 0.47037 0.96544 0.62963 0.0
C1723 C 0.5155 0.0161 0.71054 0.0
H1724 H 0.44622 0.99249 0.69175 0.0
C1725 C 0.52927 0.00103 0.67419 0.0
C1726 C 0.51336 0.98253 0.64438 0.0
H1727 H 0.52836 0.03052 0.73231 0.0
H1728 H 0.55256 0.00333 0.67027 0.0
C1729 C 0.48325 0.97982 0.65143 0.0
C1730 C 0.0246 -0.00054 0.18913 0.0
C1731 C 0.00867 0.98084 0.21866 0.0
H1732 H 0.02384 0.02885 0.13101 0.0
C1733 C 0.97858 0.97808 0.21138 0.0
H1734 H 0.04786 0.00186 0.19329 0.0
C1735 C 0.96489 0.99311 0.17493 0.0
C1736 C 0.98085 0.01164 0.14529 0.0
H1737 H 0.96568 0.96363 0.23298 0.0
H1738 H 0.94162 0.99075 0.17077 0.0
C1739 C 0.01093 0.01443 0.15265 0.0
C1740 C 0.50616 0.97317 0.20646 0.0
C1741 C 0.47772 0.98398 0.2074 0.0
H1742 H 0.54916 0.97818 0.17919 0.0
C1743 C 0.47074 0.00868 0.18051 0.0
H1744 H 0.51206 0.95417 0.22681 0.0
C1745 C 0.4919 0.02245 0.1533 0.0
C1746 C 0.52034 0.01165 0.15238 0.0
H1747 H 0.4489 0.01744 0.18053 0.0
H1748 H 0.48599 0.04144 0.13296 0.0
C1749 C 0.52732 0.98693 0.17922 0.0
C1750 C 0.96694 0.00686 0.67985 0.0
C1751 C 0.97386 0.98209 0.65304 0.0
H1752 H 0.98229 0.03969 0.72735 0.0
C1753 C 0.0023 0.97128 0.65392 0.0
H1754 H 0.9451 0.01562 0.67985 0.0
C1755 C 0.0235 0.98508 0.68106 0.0
C1756 C 0.01658 0.00982 0.70792 0.0
H1757 H 0.00817 0.95224 0.6336 0.0
H1758 H 0.04534 0.9763 0.68105 0.0
C1759 C 0.98815 0.02066 0.70702 0.0
C1760 C 0.03373 0.40913 0.93034 0.0
C1761 C 0.02088 0.40533 0.9747 0.0
H1762 H 0.0273 0.41562 0.85652 0.0
C1763 C 0.9904 0.40494 0.97795 0.0
H1764 H 0.05716 0.41015 0.92697 0.0
C1765 C 0.97316 0.40921 0.93765 0.0
C1766 C 0.98615 0.41332 0.89332 0.0
H1767 H 0.97994 0.40285 1.0119 0.0
H1768 H 0.94973 0.40933 0.94118 0.0
C1769 C 0.01661 0.4126 0.89009 0.0
C1770 C 0.8287 0.7643 0.14157 0.0
C1771 C 0.82734 0.73387 0.14487 0.0
H1772 H 0.83208 0.80481 0.17838 0.0
C1773 C 0.83127 0.72081 0.18919 0.0
H1774 H 0.82584 0.77503 0.10798 0.0
C1775 C 0.83597 0.73797 0.22944 0.0
C1776 C 0.8362 0.76845 0.22613 0.0
H1777 H 0.83067 0.69739 0.19275 0.0
H1778 H 0.8379 0.72748 0.26339 0.0
C1779 C 0.8326 0.78136 0.18178 0.0
C1780 C 0.52124 0.58283 0.43758 0.0
C1781 C 0.50813 0.5783 0.39342 0.0
H1782 H 0.5147 0.58966 0.51177 0.0
C1783 C 0.47766 0.57863 0.39045 0.0
H1784 H 0.54468 0.58301 0.44091 0.0
C1785 C 0.46066 0.58214 0.43083 0.0
C1786 C 0.47364 0.5864 0.47502 0.0
H1787 H 0.46689 0.57528 0.357 0.0
H1788 H 0.43723 0.58085 0.42768 0.0
C1789 C 0.50412 0.58718 0.47797 0.0
C1790 C 0.65769 0.25582 0.72886 0.0
C1791 C 0.65757 0.22533 0.72568 0.0
H1792 H 0.66274 0.29633 0.69203 0.0
C1793 C 0.66109 0.21235 0.68132 0.0
H1794 H 0.65579 0.26637 0.76279 0.0
C1795 C 0.66479 0.22935 0.641 0.0
C1796 C 0.66604 0.25978 0.6442 0.0
H1797 H 0.66167 0.1889 0.67798 0.0
H1798 H 0.66758 0.21857 0.60742 0.0
C1799 C 0.66221 0.2729 0.68853 0.0
C1800 C 0.0017 0.60857 0.94193 0.0
C1801 C 0.97756 0.62257 0.96207 0.0
H1802 H 0.02466 0.59745 0.87902 0.0
C1803 C 0.9571 0.63573 0.93214 0.0
H1804 H 0.01768 0.5979 0.96393 0.0
C1805 C 0.96106 0.63539 0.88325 0.0
C1806 C 0.98539 0.6216 0.86319 0.0
H1807 H 0.93833 0.64679 0.94656 0.0
H1808 H 0.94499 0.64582 0.86113 0.0
C1809 C 0.00554 0.60803 0.89317 0.0
C1810 C 0.60761 0.71032 0.18457 0.0
C1811 C 0.61983 0.73123 0.21473 0.0
H1812 H 0.59814 0.69805 0.1134 0.0
C1813 C 0.63274 0.75605 0.19495 0.0
H1814 H 0.59739 0.69103 0.19876 0.0
C1815 C 0.63316 0.76007 0.14625 0.0
C1816 C 0.62054 0.73945 0.11603 0.0
H1817 H 0.64264 0.7724 0.21719 0.0
H1818 H 0.64292 0.77967 0.1323 0.0
C1819 C 0.60782 0.71447 0.13574 0.0
C1820 C 0.49202 0.37987 0.44611 0.0
C1821 C 0.51631 0.36633 0.46659 0.0
H1822 H 0.46919 0.39047 0.38288 0.0
C1823 C 0.53711 0.35339 0.43702 0.0
H1824 H 0.47579 0.39036 0.46787 0.0
C1825 C 0.53335 0.35352 0.38809 0.0
C1826 C 0.5089 0.3669 0.3677 0.0
H1827 H 0.55599 0.3427 0.45176 0.0
H1828 H 0.54966 0.34327 0.3662 0.0
C1829 C 0.4884 0.38021 0.39734 0.0
C1830 C 0.85466 0.27395 0.68719 0.0
C1831 C 0.87886 0.26544 0.7141 0.0
H1832 H 0.83514 0.27622 0.61887 0.0
C1833 C 0.90276 0.2529 0.69088 0.0
H1834 H 0.83576 0.28342 0.70391 0.0
C1835 C 0.90226 0.24844 0.64223 0.0
C1836 C 0.87786 0.25643 0.61539 0.0
H1837 H 0.92189 0.24638 0.71038 0.0
H1838 H 0.92081 0.23809 0.62583 0.0
C1839 C 0.85415 0.26947 0.63846 0.0
C1840 C 0.0204 0.57833 0.41702 0.0
C1841 C 0.00725 0.57516 0.46143 0.0
H1842 H 0.0139 0.58441 0.34265 0.0
C1843 C 0.97684 0.57719 0.46461 0.0
H1844 H 0.0438 0.57711 0.41345 0.0
C1845 C 0.95989 0.58113 0.42431 0.0
C1846 C 0.97291 0.58411 0.37994 0.0
H1847 H 0.966 0.57489 0.49822 0.0
H1848 H 0.93644 0.58111 0.42765 0.0
C1849 C 0.00337 0.58308 0.37666 0.0
C1850 C 0.16612 0.22936 0.21766 0.0
C1851 C 0.16716 0.25982 0.21469 0.0
H1852 H 0.16292 0.18899 0.18037 0.0
C1853 C 0.16288 0.27301 0.17055 0.0
H1854 H 0.16926 0.21853 0.25109 0.0
C1855 C 0.15808 0.256 0.13017 0.0
C1856 C 0.15816 0.22551 0.1331 0.0
H1857 H 0.16325 0.29645 0.16723 0.0
H1858 H 0.15582 0.26662 0.09638 0.0
C1859 C 0.16216 0.21244 0.17726 0.0
C1860 C 0.5177 0.41464 0.96903 0.0
C1861 C 0.48721 0.41433 0.96643 0.0
H1862 H 0.55799 0.41358 0.93125 0.0
C1863 C 0.47399 0.40996 0.92233 0.0
H1864 H 0.52854 0.41785 1.00246 0.0
C1865 C 0.491 0.40635 0.88163 0.0
C1866 C 0.52147 0.40773 0.88421 0.0
H1867 H 0.45054 0.40925 0.91933 0.0
H1868 H 0.48031 0.4039 0.84791 0.0
C1869 C 0.53458 0.41188 0.92834 0.0
C1870 C 0.33663 0.73704 0.62955 0.0
C1871 C 0.33784 0.76751 0.63205 0.0
H1872 H 0.33 0.69709 0.66729 0.0
C1873 C 0.33462 0.78104 0.67604 0.0
H1874 H 0.33824 0.72613 0.59588 0.0
C1875 C 0.33008 0.76458 0.71669 0.0
C1876 C 0.32771 0.73419 0.71418 0.0
H1877 H 0.33482 0.80452 0.67878 0.0
H1878 H 0.32753 0.77577 0.74996 0.0
C1879 C 0.33132 0.72051 0.67023 0.0
C1880 C 0.9911 0.38015 0.41263 0.0
C1881 C 0.01572 0.36691 0.39265 0.0
H1882 H 0.96769 0.3906 0.47537 0.0
C1883 C 0.03657 0.35449 0.42271 0.0
H1884 H 0.97481 0.39025 0.39053 0.0
C1885 C 0.03254 0.3548 0.47159 0.0
C1886 C 0.00773 0.36781 0.49148 0.0
H1887 H 0.05571 0.34403 0.40841 0.0
H1888 H 0.04891 0.34495 0.49382 0.0
C1889 C 0.98718 0.38064 0.46135 0.0
C1890 C 0.40708 0.25198 0.16508 0.0
C1891 C 0.38295 0.26454 0.14252 0.0
H1892 H 0.42578 0.23715 0.22965 0.0
C1893 C 0.35912 0.27325 0.17013 0.0
H1894 H 0.42595 0.24532 0.14504 0.0
C1895 C 0.35916 0.26884 0.21885 0.0
C1896 C 0.38303 0.25566 0.24125 0.0
H1897 H 0.34006 0.28275 0.15396 0.0
H1898 H 0.34039 0.27569 0.23896 0.0
C1899 C 0.40712 0.24758 0.21376 0.0
C1900 C 0.49566 0.65343 0.96453 0.0
C1901 C 0.48633 0.62953 0.99135 0.0
H1902 H 0.49891 0.67282 0.89628 0.0
C1903 C 0.47196 0.6066 0.96828 0.0
H1904 H 0.50701 0.67136 0.981 0.0
C1905 C 0.46737 0.60742 0.91956 0.0
C1906 C 0.47726 0.63106 0.89265 0.0
H1907 H 0.46422 0.58799 0.98791 0.0
H1908 H 0.45674 0.58915 0.9028 0.0
C1909 C 0.49124 0.65416 0.91585 0.0
C1910 C 0.12478 0.76089 0.70231 0.0
C1911 C 0.10224 0.75198 0.73247 0.0
H1912 H 0.1414 0.76227 0.63208 0.0
C1913 C 0.07802 0.73791 0.71257 0.0
H1914 H 0.14361 0.77214 0.71606 0.0
C1915 C 0.07645 0.7328 0.66407 0.0
C1916 C 0.09913 0.74142 0.63394 0.0
H1917 H 0.06036 0.73038 0.73453 0.0
H1918 H 0.0573 0.72215 0.65023 0.0
C1919 C 0.12329 0.75561 0.65383 0.0
C1920 C 0.51868 0.91626 0.39283 0.0
C1921 C 0.48822 0.91674 0.39589 0.0
H1922 H 0.55915 0.91387 0.42992 0.0
C1923 C 0.47514 0.91227 0.44006 0.0
H1924 H 0.52943 0.91953 0.35936 0.0
C1925 C 0.49229 0.90791 0.48041 0.0
C1926 C 0.52278 0.90855 0.47734 0.0
H1927 H 0.45169 0.91217 0.44341 0.0
H1928 H 0.48177 0.90555 0.51426 0.0
C1929 C 0.53572 0.91268 0.43313 0.0
C1930 C 0.33401 0.22134 0.68508 0.0
C1931 C 0.33052 0.23488 0.64105 0.0
H1932 H 0.33988 0.2271 0.75963 0.0
C1933 C 0.33172 0.26534 0.63873 0.0
H1934 H 0.33356 0.19787 0.68788 0.0
C1935 C 0.33501 0.28195 0.67965 0.0
C1936 C 0.33821 0.26851 0.72372 0.0
H1937 H 0.32922 0.27642 0.60536 0.0
H1938 H 0.33443 0.30542 0.67698 0.0
C1939 C 0.33817 0.23801 0.726 0.0
C1940 C 0.95877 0.0815 0.93379 0.0
C1941 C 0.97167 0.08548 0.9781 0.0
H1942 H 0.96513 0.0747 0.86001 0.0
C1943 C 0.00215 0.0859 0.98132 0.0
H1944 H 0.93534 0.08046 0.93046 0.0
C1945 C 0.01935 0.08148 0.94103 0.0
C1946 C 0.00631 0.07717 0.89677 0.0
H1947 H 0.01264 0.08814 1.01524 0.0
H1948 H 0.04278 0.08142 0.94451 0.0
C1949 C 0.97585 0.07786 0.89356 0.0
C1950 C 0.155 0.77417 0.18235 0.0
C1951 C 0.15794 0.76019 0.13851 0.0
H1952 H 0.14898 0.76929 0.25702 0.0
C1953 C 0.15523 0.72979 0.13678 0.0
H1954 H 0.15667 0.79759 0.18483 0.0
C1955 C 0.15121 0.71366 0.17812 0.0
C1956 C 0.14864 0.72755 0.222 0.0
H1957 H 0.15729 0.71836 0.10363 0.0
H1958 H 0.15092 0.69016 0.17597 0.0
C1959 C 0.15005 0.75804 0.22359 0.0
C1960 C 0.4628 0.13805 0.38692 0.0
C1961 C 0.48736 0.12477 0.36671 0.0
H1962 H 0.44012 0.14915 0.45043 0.0
C1963 C 0.508 0.11183 0.39654 0.0
H1964 H 0.44638 0.148 0.36489 0.0
C1965 C 0.50441 0.11249 0.44531 0.0
C1966 C 0.48003 0.12599 0.4656 0.0
H1967 H 0.5273 0.10166 0.38224 0.0
H1968 H 0.52075 0.10231 0.46721 0.0
C1969 C 0.45908 0.13851 0.43585 0.0
C1970 C 0.13895 0.2254 0.6402 0.0
C1971 C 0.11627 0.24017 0.61716 0.0
H1972 H 0.15604 0.20972 0.7056 0.0
C1973 C 0.09246 0.24982 0.64396 0.0
H1974 H 0.15747 0.21742 0.62059 0.0
C1975 C 0.09156 0.24524 0.69258 0.0
C1976 C 0.11438 0.23082 0.71575 0.0
H1977 H 0.07473 0.26149 0.62753 0.0
H1978 H 0.07293 0.25309 0.71209 0.0
C1979 C 0.13797 0.22069 0.68887 0.0
C1980 C 0.03465 0.85433 0.93592 0.0
C1981 C 0.01368 0.86687 0.96562 0.0
H1982 H 0.04737 0.84474 0.86497 0.0
C1983 C 0.98925 0.88023 0.94528 0.0
H1984 H 0.05365 0.84379 0.95056 0.0
C1985 C 0.98567 0.88081 0.89651 0.0
C1986 C 0.00635 0.86794 0.86669 0.0
H1987 H 0.97287 0.8904 0.96714 0.0
H1988 H 0.96634 0.89093 0.88219 0.0
C1989 C 0.03093 0.85469 0.88696 0.0
C1990 C 0.35876 0.77398 0.18754 0.0
C1991 C 0.38251 0.76393 0.21412 0.0
H1992 H 0.33897 0.77729 0.11948 0.0
C1993 C 0.40536 0.74975 0.19062 0.0
H1994 H 0.34066 0.78477 0.20452 0.0
C1995 C 0.4043 0.74528 0.14197 0.0
C1996 C 0.38031 0.75481 0.11548 0.0
H1997 H 0.42411 0.74197 0.20989 0.0
H1998 H 0.42203 0.73376 0.12528 0.0
C1999 C 0.35763 0.76939 0.13884 0.0
C2000 C 0.46235 0.08343 0.92761 0.0
C2001 C 0.4753 0.08753 0.8834 0.0
H2002 H 0.46862 0.07666 1.00139 0.0
C2003 C 0.50579 0.08818 0.88035 0.0
H2004 H 0.43893 0.08223 0.93082 0.0
C2005 C 0.52294 0.08387 0.92071 0.0
C2006 C 0.50986 0.07946 0.96489 0.0
H2007 H 0.51632 0.09051 0.8465 0.0
H2008 H 0.54639 0.08396 0.91736 0.0
C2009 C 0.47939 0.07991 0.96792 0.0
C2010 C 0.66019 0.71133 0.67722 0.0
C2011 C 0.65678 0.7243 0.63287 0.0
H2012 H 0.66687 0.71757 0.75106 0.0
C2013 C 0.65728 0.75477 0.6296 0.0
H2014 H 0.66052 0.68788 0.68059 0.0
C2015 C 0.66205 0.77187 0.66989 0.0
C2016 C 0.66579 0.75876 0.71422 0.0
H2017 H 0.65551 0.76529 0.59565 0.0
H2018 H 0.66286 0.79529 0.66635 0.0
C2019 C 0.66416 0.72834 0.71748 0.0
C2020 C 0.03173 0.91025 0.42794 0.0
C2021 C 0.01876 0.90634 0.38368 0.0
H2022 H 0.02551 0.91688 0.50177 0.0
C2023 C 0.98827 0.90587 0.3806 0.0
H2024 H 0.05517 0.91131 0.43117 0.0
C2025 C 0.97115 0.91019 0.42098 0.0
C2026 C 0.98426 0.91442 0.4652 0.0
H2027 H 0.97772 0.90368 0.34673 0.0
H2028 H 0.9477 0.91024 0.41761 0.0
C2029 C 0.01473 0.91378 0.46827 0.0
C2030 C 0.83626 0.23836 0.12954 0.0
C2031 C 0.83677 0.26884 0.1326 0.0
H2032 H 0.83068 0.19799 0.16657 0.0
C2033 C 0.83341 0.28197 0.17687 0.0
H2034 H 0.83802 0.22772 0.09566 0.0
C2035 C 0.82944 0.26511 0.21724 0.0
C2036 C 0.82779 0.23468 0.21419 0.0
H2037 H 0.83311 0.30543 0.18008 0.0
H2038 H 0.82676 0.276 0.25075 0.0
C2039 C 0.8315 0.22141 0.16995 0.0
C2040 C 0.53768 0.85736 0.92519 0.0
C2041 C 0.51716 0.87052 0.89538 0.0
H2042 H 0.54988 0.84718 0.99612 0.0
C2043 C 0.49302 0.88447 0.91563 0.0
H2044 H 0.55645 0.84635 0.91067 0.0
C2045 C 0.48923 0.88491 0.96439 0.0
C2046 C 0.50943 0.87132 0.99425 0.0
H2047 H 0.477 0.89514 0.89371 0.0
H2048 H 0.4701 0.89544 0.97863 0.0
C2049 C 0.53377 0.85762 0.97408 0.0
C2050 C 0.88511 0.78235 0.67441 0.0
C2051 C 0.87294 0.7614 0.64426 0.0
H2052 H 0.89455 0.79467 0.74556 0.0
C2053 C 0.86005 0.73657 0.66407 0.0
H2054 H 0.8953 0.80164 0.66019 0.0
C2055 C 0.85963 0.73257 0.71277 0.0
C2056 C 0.87222 0.75323 0.74297 0.0
H2057 H 0.85019 0.7202 0.64184 0.0
H2058 H 0.84991 0.71297 0.72674 0.0
C2059 C 0.8849 0.77822 0.72323 0.0
C2060 C 0.9614 0.13667 0.47522 0.0
C2061 C 0.98567 0.12278 0.4953 0.0
H2062 H 0.93863 0.148 0.41192 0.0
C2063 C 0.00563 0.10892 0.46534 0.0
H2064 H 0.94547 0.14733 0.49732 0.0
C2065 C 0.00169 0.10926 0.41659 0.0
C2066 C 0.97761 0.12338 0.39643 0.0
H2067 H 0.0247 0.09824 0.47949 0.0
H2068 H 0.01753 0.09837 0.39461 0.0
C2069 C 0.95733 0.13684 0.42635 0.0
C2070 C 0.63956 0.22141 0.17132 0.0
C2071 C 0.61536 0.22965 0.14418 0.0
H2072 H 0.65893 0.21952 0.23978 0.0
C2073 C 0.59132 0.2421 0.16714 0.0
H2074 H 0.65856 0.21201 0.15481 0.0
C2075 C 0.59166 0.24672 0.21577 0.0
C2076 C 0.61606 0.239 0.24282 0.0
H2077 H 0.57219 0.24842 0.14747 0.0
H2078 H 0.573 0.25698 0.23199 0.0
C2079 C 0.63992 0.22606 0.22001 0.0
C2080 C 0.08396 0.55956 0.76422 0.0
C2081 C 0.09802 0.54729 0.72484 0.0
H2082 H 0.07624 0.55821 0.83843 0.0
C2083 C 0.11685 0.52367 0.73266 0.0
H2084 H 0.0694 0.57786 0.76005 0.0
C2085 C 0.12067 0.51213 0.77827 0.0
C2086 C 0.10567 0.52381 0.81733 0.0
H2087 H 0.12779 0.51336 0.70335 0.0
H2088 H 0.13464 0.4934 0.7826 0.0
C2089 C 0.08767 0.54805 0.80948 0.0
C2090 C 0.72371 0.8654 0.9833 0.0
C2091 C 0.69745 0.85042 0.97576 0.0
H2092 H 0.75546 0.88013 0.03348 0.0
C2093 C 0.68241 0.83992 1.01544 0.0
H2094 H 0.73613 0.87344 0.95371 0.0
C2095 C 0.69352 0.84354 0.061 0.0
C2096 C 0.72023 0.85767 0.06868 0.0
H2097 H 0.66224 0.82808 1.01127 0.0
H2098 H 0.68156 0.8343 0.09016 0.0
C2099 C 0.735 0.86885 1.02911 0.0
C2100 C 0.40679 0.44099 0.31418 0.0
C2101 C 0.38833 0.46495 0.32156 0.0
H2102 H 0.42537 0.4109 0.26541 0.0
C2103 C 0.37273 0.47566 0.28239 0.0
H2104 H 0.4187 0.43152 0.34323 0.0
C2105 C 0.37644 0.46354 0.23711 0.0
C2106 C 0.39577 0.44026 0.22972 0.0
H2107 H 0.35838 0.49414 0.28631 0.0
H2108 H 0.36505 0.47317 0.20766 0.0
C2109 C 0.4104 0.4289 0.26925 0.0
C2110 C 0.77167 0.12583 0.48351 0.0
C2111 C 0.79599 0.14379 0.47609 0.0
H2112 H 0.74074 0.10888 0.53314 0.0
C2113 C 0.80883 0.15703 0.51572 0.0
H2114 H 0.76095 0.11553 0.45399 0.0
C2115 C 0.79717 0.15346 0.56088 0.0
C2116 C 0.77224 0.13641 0.56833 0.0
H2117 H 0.82767 0.17089 0.51183 0.0
H2118 H 0.80774 0.16428 0.59006 0.0
C2119 C 0.76 0.12213 0.52903 0.0
C2120 C 0.90607 0.42827 0.59092 0.0
C2121 C 0.89477 0.44276 0.63061 0.0
H2122 H 0.91215 0.42785 0.51627 0.0
C2123 C 0.8789 0.4685 0.62305 0.0
H2124 H 0.91862 0.40852 0.59506 0.0
C2125 C 0.8753 0.47982 0.57727 0.0
C2126 C 0.88723 0.46558 0.53769 0.0
H2127 H 0.87022 0.48053 0.65262 0.0
H2128 H 0.86328 0.49986 0.57294 0.0
C2129 C 0.9023 0.43939 0.54539 0.0
C2130 C 0.30502 0.15118 0.29345 0.0
C2131 C 0.27866 0.13631 0.28618 0.0
H2132 H 0.33653 0.16695 0.34264 0.0
C2133 C 0.26495 0.12399 0.32588 0.0
H2134 H 0.31621 0.16129 0.26426 0.0
C2135 C 0.27686 0.12708 0.37138 0.0
C2136 C 0.3027 0.14283 0.37857 0.0
H2137 H 0.24481 0.11209 0.32188 0.0
H2138 H 0.26517 0.11817 0.40109 0.0
C2139 C 0.31674 0.15445 0.33874 0.0
C2140 C 0.59404 0.5534 0.04649 0.0
C2141 C 0.60845 0.52684 0.03884 0.0
H2142 H 0.57808 0.58446 0.09622 0.0
C2143 C 0.61978 0.51218 0.07845 0.0
H2144 H 0.58469 0.56527 1.01731 0.0
C2145 C 0.61616 0.52344 0.12425 0.0
C2146 C 0.60084 0.54952 0.13175 0.0
H2147 H 0.63127 0.49183 0.0741 0.0
H2148 H 0.62428 0.51109 0.15387 0.0
C2149 C 0.59022 0.56445 0.09205 0.0
C2150 C 0.17764 0.84189 0.83767 0.0
C2151 C 0.19189 0.85277 0.87791 0.0
H2152 H 0.17834 0.83524 0.76315 0.0
C2153 C 0.21843 0.86742 0.87133 0.0
H2154 H 0.15733 0.8302 0.84108 0.0
C2155 C 0.23075 0.87017 0.82603 0.0
C2156 C 0.21677 0.85857 0.78592 0.0
H2157 H 0.23032 0.8757 0.90135 0.0
H2158 H 0.25139 0.88122 0.82252 0.0
C2159 C 0.18977 0.84481 0.79262 0.0
C2160 C 0.62298 0.01469 0.2812 0.0
C2161 C 0.60813 0.02636 0.32041 0.0
H2162 H 0.62996 0.01606 0.20625 0.0
C2163 C 0.59029 0.05074 0.31281 0.0
H2164 H 0.63683 0.99585 0.28533 0.0
C2165 C 0.58658 0.0624 0.26764 0.0
C2166 C 0.60047 0.05014 0.2281 0.0
H2167 H 0.57898 0.06091 0.34188 0.0
H2168 H 0.57213 0.08081 0.26368 0.0
C2169 C 0.61915 0.02637 0.23568 0.0
C2170 C 0.22562 0.36705 0.48271 0.0
C2171 C 0.19918 0.35234 0.47551 0.0
H2172 H 0.25778 0.38147 0.53249 0.0
C2173 C 0.18421 0.34206 0.51541 0.0
H2174 H 0.23801 0.37489 0.45295 0.0
C2175 C 0.19556 0.34564 0.56084 0.0
C2176 C 0.22246 0.35946 0.5682 0.0
H2177 H 0.16392 0.33038 0.51149 0.0
H2178 H 0.18361 0.33657 0.59016 0.0
C2179 C 0.23717 0.37043 0.5284 0.0
C2180 C 0.87131 0.97924 0.7814 0.0
C2181 C 0.88602 0.9674 0.82061 0.0
H2182 H 0.86437 0.978 0.70643 0.0
C2183 C 0.90364 0.94285 0.81296 0.0
H2184 H 0.85763 -0.0018 0.78558 0.0
C2185 C 0.90728 0.9312 0.76775 0.0
C2186 C 0.89353 0.94362 0.72823 0.0
H2187 H 0.91484 0.93256 0.84202 0.0
H2188 H 0.92156 0.91266 0.76374 0.0
C2189 C 0.87506 0.96756 0.73585 0.0
C2190 C 0.25787 0.62953 0.0316 0.0
C2191 C 0.27358 0.64036 0.07058 0.0
H2192 H 0.25602 0.62376 0.95636 0.0
C2193 C 0.30126 0.65222 0.06196 0.0
H2194 H 0.23663 0.61994 0.03662 0.0
C2195 C 0.31241 0.65412 1.01614 0.0
C2196 C 0.29645 0.64409 0.97704 0.0
H2197 H 0.31403 0.66114 0.0905 0.0
H2198 H 0.33334 0.66444 1.01123 0.0
C2199 C 0.2692 0.63125 0.98551 0.0
C2200 C 0.41084 0.93346 0.09347 0.0
C2201 C 0.39717 0.94595 0.13304 0.0
H2202 H 0.41835 0.93477 1.01919 0.0
C2203 C 0.37884 0.97 0.12544 0.0
H2204 H 0.42504 0.91486 0.09745 0.0
C2205 C 0.37511 0.98168 0.0799 0.0
C2206 C 0.38972 0.96976 0.04063 0.0
H2207 H 0.36822 0.98049 0.15488 0.0
H2208 H 0.36154 0.00072 0.07579 0.0
C2209 C 0.40723 0.94513 0.04827 0.0
C2210 C 0.76958 0.62708 0.87589 0.0
C2211 C 0.79581 0.64211 0.88338 0.0
H2212 H 0.73777 0.61234 0.8258 0.0
C2213 C 0.81074 0.65272 0.84367 0.0
H2214 H 0.75723 0.61896 0.9055 0.0
C2215 C 0.79956 0.64913 0.79814 0.0
C2216 C 0.77288 0.63495 0.79051 0.0
H2217 H 0.83089 0.66461 0.84779 0.0
H2218 H 0.81145 0.65845 0.76897 0.0
C2219 C 0.75821 0.62367 0.83012 0.0
C2220 C 0.08753 0.0487 0.54931 0.0
C2221 C 0.10477 0.02389 0.54158 0.0
H2222 H 0.06999 0.07906 0.59864 0.0
C2223 C 0.1192 0.01173 0.58082 0.0
H2224 H 0.07656 0.05923 0.52026 0.0
C2225 C 0.11555 0.02337 0.62642 0.0
C2226 C 0.09747 0.0476 0.63411 0.0
H2227 H 0.13257 0.99255 0.57662 0.0
H2228 H 0.12601 0.01269 0.65583 0.0
C2229 C 0.08399 0.06032 0.59458 0.0
C2230 C 0.68274 0.34106 0.34305 0.0
C2231 C 0.69766 0.35156 0.3829 0.0
H2232 H 0.68213 0.33541 0.26831 0.0
C2233 C 0.724 0.36642 0.37561 0.0
H2234 H 0.66252 0.32928 0.34702 0.0
C2235 C 0.73548 0.36979 0.32991 0.0
C2236 C 0.72081 0.35864 0.29015 0.0
H2237 H 0.73635 0.37445 0.40532 0.0
H2238 H 0.756 0.38099 0.32576 0.0
C2239 C 0.69403 0.34462 0.29759 0.0
loop_
_geom_bond_atom_site_label_1
_geom_bond_atom_site_label_2
_geom_bond_distance
_geom_bond_site_symmetry_2
_ccdc_geom_bond_type
Nd0 C2 2.836 1_554 S
Nd0 O20 2.500 1_554 S
Nd0 O21 2.492 1_554 S
Nd0 O22 2.487 . S
Nd0 O23 2.682 . S
Nd0 O24 2.410 . S
Nd0 O29 2.414 . S
Nd0 O31 2.424 . S
Nd1 C11 2.836 . S
Nd1 O23 2.414 . S
Nd1 O25 2.424 . S
Nd1 O26 2.500 . S
Nd1 O27 2.492 1_455 S
Nd1 O28 2.487 1_455 S
Nd1 O29 2.682 . S
Nd1 O30 2.410 . S
C2 Nd0 2.836 1_556 S
C2 C3 1.498 . S
C2 O20 1.258 . S
C2 O21 1.239 . S
C3 C2 1.498 . S
C3 C4 1.366 . S
C3 C8 1.407 . S
C4 C3 1.366 . S
C4 C5 1.392 . S
C4 H32 0.930 . S
C5 C4 1.392 . S
C5 C6 1.398 . S
C5 H33 0.929 . S
C6 C5 1.398 . S
C6 C7 1.352 . S
C7 C6 1.352 . S
C7 C8 1.384 . S
C7 H34 0.930 . S
C8 C3 1.407 . S
C8 C7 1.384 . S
C8 H35 0.929 . S
C9 O22 1.241 . S
C9 O23 1.273 . S
C10 O24 1.251 . S
C10 O25 1.268 . S
C11 Nd1 2.836 . S
C11 C12 1.498 . S
C11 O26 1.258 . S
C11 O27 1.239 1_455 S
C12 C11 1.498 . S
C12 C13 1.366 . S
C12 C17 1.407 1_455 S
C13 C12 1.366 . S
C13 C14 1.392 . S
C13 H36 0.930 . S
C14 C13 1.392 . S
C14 C15 1.398 1_455 S
C14 H37 0.929 . S
C15 C14 1.398 1_655 S
C15 C16 1.352 . S
C16 C15 1.352 . S
C16 C17 1.384 . S
C16 H38 0.930 . S
C17 C12 1.407 1_655 S
C17 C16 1.384 . S
C17 H39 0.929 . S
C18 O28 1.241 1_455 S
C18 O29 1.273 . S
C19 O30 1.251 . S
C19 O31 1.268 . S
O20 Nd0 2.500 1_556 S
O20 C2 1.258 . S
O21 Nd0 2.492 1_556 S
O21 C2 1.239 . S
O22 Nd0 2.487 . S
O22 C9 1.241 . S
O23 Nd0 2.682 . S
O23 Nd1 2.414 . S
O23 C9 1.273 . S
O24 Nd0 2.410 . S
O24 C10 1.251 . S
O25 Nd1 2.424 . S
O25 C10 1.268 . S
O26 Nd1 2.500 . S
O26 C11 1.258 . S
O27 Nd1 2.492 1_655 S
O27 C11 1.239 1_655 S
O28 Nd1 2.487 1_655 S
O28 C18 1.241 1_655 S
O29 Nd0 2.414 . S
O29 Nd1 2.682 . S
O29 C18 1.273 . S
O30 Nd1 2.410 . S
O30 C19 1.251 . S
O31 Nd0 2.424 . S
O31 C19 1.268 . S
H32 C4 0.930 . S
H33 C5 0.929 . S
H34 C7 0.930 . S
H35 C8 0.929 . S
H36 C13 0.930 . S
H37 C14 0.929 . S
H38 C16 0.930 . S
H39 C17 0.929 . S
Nd40 C42 2.836 . S
Nd40 O60 2.500 . S
Nd40 O61 2.492 . S
Nd40 O62 2.487 . S
Nd40 O63 2.682 . S
Nd40 O64 2.410 . S
Nd40 O69 2.414 . S
Nd40 O71 2.424 . S
Nd41 C51 2.836 . S
Nd41 O63 2.414 . S
Nd41 O65 2.424 . S
Nd41 O66 2.500 . S
Nd41 O67 2.492 . S
Nd41 O68 2.487 . S
Nd41 O69 2.682 . S
Nd41 O70 2.410 . S
C42 Nd40 2.836 . S
C42 C43 1.498 . S
C42 O60 1.258 . S
C42 O61 1.239 . S
C43 C42 1.498 . S
C43 C44 1.366 . S
C43 C48 1.407 . S
C44 C43 1.366 . S
C44 C45 1.392 . S
C44 H72 0.930 . S
C45 C44 1.392 . S
C45 C46 1.398 . S
C45 H73 0.929 . S
C46 C45 1.398 . S
C46 C47 1.352 . S
C47 C46 1.352 . S
C47 C48 1.384 . S
C47 H74 0.930 . S
C48 C43 1.407 . S
C48 C47 1.384 . S
C48 H75 0.929 . S
C49 O62 1.241 . S
C49 O63 1.273 . S
C50 O64 1.251 . S
C50 O65 1.268 . S
C51 Nd41 2.836 . S
C51 C52 1.498 . S
C51 O66 1.258 . S
C51 O67 1.239 . S
C52 C51 1.498 . S
C52 C53 1.366 . S
C52 C57 1.407 . S
C53 C52 1.366 . S
C53 C54 1.392 . S
C53 H76 0.930 . S
C54 C53 1.392 . S
C54 C55 1.398 . S
C54 H77 0.929 . S
C55 C54 1.398 . S
C55 C56 1.352 . S
C56 C55 1.352 . S
C56 C57 1.384 . S
C56 H78 0.930 . S
C57 C52 1.407 . S
C57 C56 1.384 . S
C57 H79 0.929 . S
C58 O68 1.241 . S
C58 O69 1.273 . S
C59 O70 1.251 . S
C59 O71 1.268 . S
O60 Nd40 2.500 . S
O60 C42 1.258 . S
O61 Nd40 2.492 . S
O61 C42 1.239 . S
O62 Nd40 2.487 . S
O62 C49 1.241 . S
O63 Nd40 2.682 . S
O63 Nd41 2.414 . S
O63 C49 1.273 . S
O64 Nd40 2.410 . S
O64 C50 1.251 . S
O65 Nd41 2.424 . S
O65 C50 1.268 . S
O66 Nd41 2.500 . S
O66 C51 1.258 . S
O67 Nd41 2.492 . S
O67 C51 1.239 . S
O68 Nd41 2.487 . S
O68 C58 1.241 . S
O69 Nd40 2.414 . S
O69 Nd41 2.682 . S
O69 C58 1.273 . S
O70 Nd41 2.410 . S
O70 C59 1.251 . S
O71 Nd40 2.424 . S
O71 C59 1.268 . S
H72 C44 0.930 . S
H73 C45 0.929 . S
H74 C47 0.930 . S
H75 C48 0.929 . S
H76 C53 0.930 . S
H77 C54 0.929 . S
H78 C56 0.930 . S
H79 C57 0.929 . S
Nd80 C82 2.836 . S
Nd80 O100 2.500 . S
Nd80 O101 2.492 . S
Nd80 O102 2.487 . S
Nd80 O103 2.682 . S
Nd80 O104 2.410 . S
Nd80 O109 2.414 . S
Nd80 O111 2.424 . S
Nd81 C91 2.836 . S
Nd81 O103 2.414 . S
Nd81 O105 2.424 . S
Nd81 O106 2.500 . S
Nd81 O107 2.492 . S
Nd81 O108 2.487 . S
Nd81 O109 2.682 . S
Nd81 O110 2.410 . S
C82 Nd80 2.836 . S
C82 C83 1.498 . S
C82 O100 1.258 . S
C82 O101 1.239 . S
C83 C82 1.498 . S
C83 C84 1.366 . S
C83 C88 1.407 . S
C84 C83 1.366 . S
C84 C85 1.392 . S
C84 H112 0.930 . S
C85 C84 1.392 . S
C85 C86 1.398 . S
C85 H113 0.929 . S
C86 C85 1.398 . S
C86 C87 1.352 . S
C87 C86 1.352 . S
C87 C88 1.384 . S
C87 H114 0.930 . S
C88 C83 1.407 . S
C88 C87 1.384 . S
C88 H115 0.929 . S
C89 O102 1.241 . S
C89 O103 1.273 . S
C90 O104 1.251 . S
C90 O105 1.268 . S
C91 Nd81 2.836 . S
C91 C92 1.498 . S
C91 O106 1.258 . S
C91 O107 1.239 . S
C92 C91 1.498 . S
C92 C93 1.366 . S
C92 C97 1.407 . S
C93 C92 1.366 . S
C93 C94 1.392 . S
C93 H116 0.930 . S
C94 C93 1.392 . S
C94 C95 1.398 . S
C94 H117 0.929 . S
C95 C94 1.398 . S
C95 C96 1.352 . S
C96 C95 1.352 . S
C96 C97 1.384 . S
C96 H118 0.930 . S
C97 C92 1.407 . S
C97 C96 1.384 . S
C97 H119 0.929 . S
C98 O108 1.241 . S
C98 O109 1.273 . S
C99 O110 1.251 . S
C99 O111 1.268 . S
O100 Nd80 2.500 . S
O100 C82 1.258 . S
O101 Nd80 2.492 . S
O101 C82 1.239 . S
O102 Nd80 2.487 . S
O102 C89 1.241 . S
O103 Nd80 2.682 . S
O103 Nd81 2.414 . S
O103 C89 1.273 . S
O104 Nd80 2.410 . S
O104 C90 1.251 . S
O105 Nd81 2.424 . S
O105 C90 1.268 . S
O106 Nd81 2.500 . S
O106 C91 1.258 . S
O107 Nd81 2.492 . S
O107 C91 1.239 . S
O108 Nd81 2.487 . S
O108 C98 1.241 . S
O109 Nd80 2.414 . S
O109 Nd81 2.682 . S
O109 C98 1.273 . S
O110 Nd81 2.410 . S
O110 C99 1.251 . S
O111 Nd80 2.424 . S
O111 C99 1.268 . S
H112 C84 0.930 . S
H113 C85 0.929 . S
H114 C87 0.930 . S
H115 C88 0.929 . S
H116 C93 0.930 . S
H117 C94 0.929 . S
H118 C96 0.930 . S
H119 C97 0.929 . S
Nd120 C122 2.836 . S
Nd120 O140 2.500 . S
Nd120 O141 2.492 . S
Nd120 O142 2.487 . S
Nd120 O143 2.682 . S
Nd120 O144 2.410 . S
Nd120 O149 2.414 . S
Nd120 O151 2.424 . S
Nd121 C131 2.836 . S
Nd121 O143 2.414 . S
Nd121 O145 2.424 . S
Nd121 O146 2.500 . S
Nd121 O147 2.492 . S
Nd121 O148 2.487 . S
Nd121 O149 2.682 . S
Nd121 O150 2.410 . S
C122 Nd120 2.836 . S
C122 C123 1.498 . S
C122 O140 1.258 . S
C122 O141 1.239 . S
C123 C122 1.498 . S
C123 C124 1.366 . S
C123 C128 1.407 . S
C124 C123 1.366 . S
C124 C125 1.392 . S
C124 H152 0.930 . S
C125 C124 1.392 . S
C125 C126 1.398 . S
C125 H153 0.929 . S
C126 C125 1.398 . S
C126 C127 1.352 . S
C127 C126 1.352 . S
C127 C128 1.384 . S
C127 H154 0.930 . S
C128 C123 1.407 . S
C128 C127 1.384 . S
C128 H155 0.929 . S
C129 O142 1.241 . S
C129 O143 1.273 . S
C130 O144 1.251 . S
C130 O145 1.268 . S
C131 Nd121 2.836 . S
C131 C132 1.498 1_556 S
C131 O146 1.258 . S
C131 O147 1.239 . S
C132 C131 1.498 1_554 S
C132 C133 1.366 . S
C132 C137 1.407 . S
C133 C132 1.366 . S
C133 C134 1.392 . S
C133 H156 0.930 . S
C134 C133 1.392 . S
C134 C135 1.398 . S
C134 H157 0.929 . S
C135 C134 1.398 . S
C135 C136 1.352 . S
C136 C135 1.352 . S
C136 C137 1.384 . S
C136 H158 0.930 . S
C137 C132 1.407 . S
C137 C136 1.384 . S
C137 H159 0.929 . S
C138 O148 1.241 . S
C138 O149 1.273 . S
C139 O150 1.251 . S
C139 O151 1.268 . S
O140 Nd120 2.500 . S
O140 C122 1.258 . S
O141 Nd120 2.492 . S
O141 C122 1.239 . S
O142 Nd120 2.487 . S
O142 C129 1.241 . S
O143 Nd120 2.682 . S
O143 Nd121 2.414 . S
O143 C129 1.273 . S
O144 Nd120 2.410 . S
O144 C130 1.251 . S
O145 Nd121 2.424 . S
O145 C130 1.268 . S
O146 Nd121 2.500 . S
O146 C131 1.258 . S
O147 Nd121 2.492 . S
O147 C131 1.239 . S
O148 Nd121 2.487 . S
O148 C138 1.241 . S
O149 Nd120 2.414 . S
O149 Nd121 2.682 . S
O149 C138 1.273 . S
O150 Nd121 2.410 . S
O150 C139 1.251 . S
O151 Nd120 2.424 . S
O151 C139 1.268 . S
H152 C124 0.930 . S
H153 C125 0.929 . S
H154 C127 0.930 . S
H155 C128 0.929 . S
H156 C133 0.930 . S
H157 C134 0.929 . S
H158 C136 0.930 . S
H159 C137 0.929 . S
Nd160 C162 2.836 . S
Nd160 O180 2.500 . S
Nd160 O181 2.492 . S
Nd160 O182 2.487 . S
Nd160 O183 2.682 . S
Nd160 O184 2.410 . S
Nd160 O189 2.414 . S
Nd160 O191 2.424 . S
Nd161 C171 2.836 . S
Nd161 O183 2.414 . S
Nd161 O185 2.424 . S
Nd161 O186 2.500 . S
Nd161 O187 2.492 . S
Nd161 O188 2.487 . S
Nd161 O189 2.682 . S
Nd161 O190 2.410 . S
C162 Nd160 2.836 . S
C162 C163 1.498 . S
C162 O180 1.258 . S
C162 O181 1.239 . S
C163 C162 1.498 . S
C163 C164 1.366 . S
C163 C168 1.407 . S
C164 C163 1.366 . S
C164 C165 1.392 . S
C164 H192 0.930 . S
C165 C164 1.392 . S
C165 C166 1.398 . S
C165 H193 0.929 . S
C166 C165 1.398 . S
C166 C167 1.352 . S
C167 C166 1.352 . S
C167 C168 1.384 . S
C167 H194 0.930 . S
C168 C163 1.407 . S
C168 C167 1.384 . S
C168 H195 0.929 . S
C169 O182 1.241 . S
C169 O183 1.273 . S
C170 O184 1.251 . S
C170 O185 1.268 . S
C171 Nd161 2.836 . S
C171 C172 1.498 . S
C171 O186 1.258 . S
C171 O187 1.239 . S
C172 C171 1.498 . S
C172 C173 1.366 . S
C172 C177 1.407 . S
C173 C172 1.366 . S
C173 C174 1.392 . S
C173 H196 0.930 . S
C174 C173 1.392 . S
C174 C175 1.398 . S
C174 H197 0.929 . S
C175 C174 1.398 . S
C175 C176 1.352 . S
C176 C175 1.352 . S
C176 C177 1.384 . S
C176 H198 0.930 . S
C177 C172 1.407 . S
C177 C176 1.384 . S
C177 H199 0.929 . S
C178 O188 1.241 . S
C178 O189 1.273 . S
C179 O190 1.251 . S
C179 O191 1.268 . S
O180 Nd160 2.500 . S
O180 C162 1.258 . S
O181 Nd160 2.492 . S
O181 C162 1.239 . S
O182 Nd160 2.487 . S
O182 C169 1.241 . S
O183 Nd160 2.682 . S
O183 Nd161 2.414 . S
O183 C169 1.273 . S
O184 Nd160 2.410 . S
O184 C170 1.251 . S
O185 Nd161 2.424 . S
O185 C170 1.268 . S
O186 Nd161 2.500 . S
O186 C171 1.258 . S
O187 Nd161 2.492 . S
O187 C171 1.239 . S
O188 Nd161 2.487 . S
O188 C178 1.241 . S
O189 Nd160 2.414 . S
O189 Nd161 2.682 . S
O189 C178 1.273 . S
O190 Nd161 2.410 . S
O190 C179 1.251 . S
O191 Nd160 2.424 . S
O191 C179 1.268 . S
H192 C164 0.930 . S
H193 C165 0.929 . S
H194 C167 0.930 . S
H195 C168 0.929 . S
H196 C173 0.930 . S
H197 C174 0.929 . S
H198 C176 0.930 . S
H199 C177 0.929 . S
Nd200 C202 2.836 . S
Nd200 O220 2.500 . S
Nd200 O221 2.492 . S
Nd200 O222 2.487 . S
Nd200 O223 2.682 . S
Nd200 O224 2.410 . S
Nd200 O229 2.414 . S
Nd200 O231 2.424 . S
Nd201 C211 2.836 . S
Nd201 O223 2.414 . S
Nd201 O225 2.424 . S
Nd201 O226 2.500 . S
Nd201 O227 2.492 . S
Nd201 O228 2.487 . S
Nd201 O229 2.682 . S
Nd201 O230 2.410 . S
C202 Nd200 2.836 . S
C202 C203 1.498 . S
C202 O220 1.258 . S
C202 O221 1.239 . S
C203 C202 1.498 . S
C203 C204 1.366 . S
C203 C208 1.407 . S
C204 C203 1.366 . S
C204 C205 1.392 . S
C204 H232 0.930 . S
C205 C204 1.392 . S
C205 C206 1.398 . S
C205 H233 0.929 . S
C206 C205 1.398 . S
C206 C207 1.352 . S
C207 C206 1.352 . S
C207 C208 1.384 . S
C207 H234 0.930 . S
C208 C203 1.407 . S
C208 C207 1.384 . S
C208 H235 0.929 . S
C209 O222 1.241 . S
C209 O223 1.273 . S
C210 O224 1.251 . S
C210 O225 1.268 . S
C211 Nd201 2.836 . S
C211 C212 1.498 . S
C211 O226 1.258 . S
C211 O227 1.239 . S
C212 C211 1.498 . S
C212 C213 1.366 . S
C212 C217 1.407 . S
C213 C212 1.366 . S
C213 C214 1.392 1_556 S
C213 H236 0.930 . S
C214 C213 1.392 1_554 S
C214 C215 1.398 . S
C214 H237 0.929 . S
C215 C214 1.398 . S
C215 C216 1.352 . S
C216 C215 1.352 . S
C216 C217 1.384 1_554 S
C216 H238 0.930 . S
C217 C212 1.407 . S
C217 C216 1.384 1_556 S
C217 H239 0.929 . S
C218 O228 1.241 . S
C218 O229 1.273 . S
C219 O230 1.251 . S
C219 O231 1.268 . S
O220 Nd200 2.500 . S
O220 C202 1.258 . S
O221 Nd200 2.492 . S
O221 C202 1.239 . S
O222 Nd200 2.487 . S
O222 C209 1.241 . S
O223 Nd200 2.682 . S
O223 Nd201 2.414 . S
O223 C209 1.273 . S
O224 Nd200 2.410 . S
O224 C210 1.251 . S
O225 Nd201 2.424 . S
O225 C210 1.268 . S
O226 Nd201 2.500 . S
O226 C211 1.258 . S
O227 Nd201 2.492 . S
O227 C211 1.239 . S
O228 Nd201 2.487 . S
O228 C218 1.241 . S
O229 Nd200 2.414 . S
O229 Nd201 2.682 . S
O229 C218 1.273 . S
O230 Nd201 2.410 . S
O230 C219 1.251 . S
O231 Nd200 2.424 . S
O231 C219 1.268 . S
H232 C204 0.930 . S
H233 C205 0.929 . S
H234 C207 0.930 . S
H235 C208 0.929 . S
H236 C213 0.930 . S
H237 C214 0.929 . S
H238 C216 0.930 . S
H239 C217 0.929 . S
Nd240 C242 2.836 1_554 S
Nd240 O260 2.500 1_554 S
Nd240 O261 2.492 1_554 S
Nd240 O262 2.487 . S
Nd240 O263 2.682 . S
Nd240 O264 2.410 1_554 S
Nd240 O269 2.414 . S
Nd240 O271 2.424 . S
Nd241 C251 2.836 . S
Nd241 O263 2.414 . S
Nd241 O265 2.399 1_554 S
Nd241 O266 2.500 . S
Nd241 O267 2.492 . S
Nd241 O268 2.487 . S
Nd241 O269 2.682 . S
Nd241 O270 2.410 . S
C242 Nd240 2.836 1_556 S
C242 C243 1.498 . S
C242 O260 1.258 . S
C242 O261 1.239 . S
C243 C242 1.498 . S
C243 C244 1.366 . S
C243 C248 1.407 . S
C244 C243 1.366 . S
C244 C245 1.392 . S
C244 H272 0.930 . S
C245 C244 1.392 . S
C245 C246 1.398 . S
C245 H273 0.929 . S
C246 C245 1.398 . S
C246 C247 1.352 . S
C247 C246 1.352 . S
C247 C248 1.384 . S
C247 H274 0.930 . S
C248 C243 1.407 . S
C248 C247 1.384 . S
C248 H275 0.929 . S
C249 O262 1.241 . S
C249 O263 1.273 . S
C250 O264 1.251 . S
C250 O265 1.287 . S
C251 Nd241 2.836 . S
C251 C252 1.498 . S
C251 O266 1.258 . S
C251 O267 1.239 . S
C252 C251 1.498 . S
C252 C253 1.366 . S
C252 C257 1.407 . S
C253 C252 1.366 . S
C253 C254 1.392 . S
C253 H276 0.930 . S
C254 C253 1.392 . S
C254 C255 1.398 . S
C254 H277 0.929 . S
C255 C254 1.398 . S
C255 C256 1.352 . S
C256 C255 1.352 . S
C256 C257 1.384 . S
C256 H278 0.930 . S
C257 C252 1.407 . S
C257 C256 1.384 . S
C257 H279 0.929 . S
C258 O268 1.241 . S
C258 O269 1.273 . S
C259 O270 1.251 . S
C259 O271 1.268 . S
O260 Nd240 2.500 1_556 S
O260 C242 1.258 . S
O261 Nd240 2.492 1_556 S
O261 C242 1.239 . S
O262 Nd240 2.487 . S
O262 C249 1.241 . S
O263 Nd240 2.682 . S
O263 Nd241 2.414 . S
O263 C249 1.273 . S
O264 Nd240 2.410 1_556 S
O264 C250 1.251 . S
O265 Nd241 2.399 1_556 S
O265 C250 1.287 . S
O266 Nd241 2.500 . S
O266 C251 1.258 . S
O267 Nd241 2.492 . S
O267 C251 1.239 . S
O268 Nd241 2.487 . S
O268 C258 1.241 . S
O269 Nd240 2.414 . S
O269 Nd241 2.682 . S
O269 C258 1.273 . S
O270 Nd241 2.410 . S
O270 C259 1.251 . S
O271 Nd240 2.424 . S
O271 C259 1.268 . S
H272 C244 0.930 . S
H273 C245 0.929 . S
H274 C247 0.930 . S
H275 C248 0.929 . S
H276 C253 0.930 . S
H277 C254 0.929 . S
H278 C256 0.930 . S
H279 C257 0.929 . S
Nd280 C282 2.836 . S
Nd280 O300 2.500 . S
Nd280 O301 2.492 . S
Nd280 O302 2.487 . S
Nd280 O303 2.682 . S
Nd280 O304 2.410 . S
Nd280 O309 2.414 . S
Nd280 O311 2.424 . S
Nd281 C291 2.836 . S
Nd281 O303 2.414 . S
Nd281 O305 2.424 . S
Nd281 O306 2.500 . S
Nd281 O307 2.492 . S
Nd281 O308 2.487 . S
Nd281 O309 2.682 . S
Nd281 O310 2.410 . S
C282 Nd280 2.836 . S
C282 C283 1.498 . S
C282 O300 1.258 . S
C282 O301 1.239 . S
C283 C282 1.498 . S
C283 C284 1.366 . S
C283 C288 1.407 . S
C284 C283 1.366 . S
C284 C285 1.392 . S
C284 H312 0.930 . S
C285 C284 1.392 . S
C285 C286 1.398 . S
C285 H313 0.929 . S
C286 C285 1.398 . S
C286 C287 1.352 . S
C287 C286 1.352 . S
C287 C288 1.384 . S
C287 H314 0.930 . S
C288 C283 1.407 . S
C288 C287 1.384 . S
C288 H315 0.929 . S
C289 O302 1.241 . S
C289 O303 1.273 . S
C290 O304 1.251 . S
C290 O305 1.268 . S
C291 Nd281 2.836 . S
C291 C292 1.498 . S
C291 O306 1.258 . S
C291 O307 1.239 . S
C292 C291 1.498 . S
C292 C293 1.366 . S
C292 C297 1.407 . S
C293 C292 1.366 . S
C293 C294 1.392 . S
C293 H316 0.930 . S
C294 C293 1.392 . S
C294 C295 1.398 . S
C294 H317 0.929 . S
C295 C294 1.398 . S
C295 C296 1.352 . S
C296 C295 1.352 . S
C296 C297 1.384 . S
C296 H318 0.930 . S
C297 C292 1.407 . S
C297 C296 1.384 . S
C297 H319 0.929 . S
C298 O308 1.241 . S
C298 O309 1.273 . S
C299 O310 1.251 . S
C299 O311 1.268 . S
O300 Nd280 2.500 . S
O300 C282 1.258 . S
O301 Nd280 2.492 . S
O301 C282 1.239 . S
O302 Nd280 2.487 . S
O302 C289 1.241 . S
O303 Nd280 2.682 . S
O303 Nd281 2.414 . S
O303 C289 1.273 . S
O304 Nd280 2.410 . S
O304 C290 1.251 . S
O305 Nd281 2.424 . S
O305 C290 1.268 . S
O306 Nd281 2.500 . S
O306 C291 1.258 . S
O307 Nd281 2.492 . S
O307 C291 1.239 . S
O308 Nd281 2.487 . S
O308 C298 1.241 . S
O309 Nd280 2.414 . S
O309 Nd281 2.682 . S
O309 C298 1.273 . S
O310 Nd281 2.410 . S
O310 C299 1.251 . S
O311 Nd280 2.424 . S
O311 C299 1.268 . S
H312 C284 0.930 . S
H313 C285 0.929 . S
H314 C287 0.930 . S
H315 C288 0.929 . S
H316 C293 0.930 . S
H317 C294 0.929 . S
H318 C296 0.930 . S
H319 C297 0.929 . S
Nd320 C322 2.836 . S
Nd320 O340 2.500 . S
Nd320 O341 2.492 1_655 S
Nd320 O342 2.487 1_655 S
Nd320 O343 2.682 . S
Nd320 O344 2.410 . S
Nd320 O349 2.414 . S
Nd320 O351 2.424 . S
Nd321 C331 2.836 . S
Nd321 O343 2.414 . S
Nd321 O345 2.424 . S
Nd321 O346 2.500 . S
Nd321 O347 2.492 . S
Nd321 O348 2.487 . S
Nd321 O349 2.682 . S
Nd321 O350 2.410 . S
C322 Nd320 2.836 . S
C322 C323 1.498 . S
C322 O340 1.258 . S
C322 O341 1.239 1_655 S
C323 C322 1.498 . S
C323 C324 1.366 . S
C323 C328 1.407 1_655 S
C324 C323 1.366 . S
C324 C325 1.392 1_554 S
C324 H352 0.930 . S
C325 C324 1.392 1_556 S
C325 C326 1.398 1_655 S
C325 H353 0.929 . S
C326 C325 1.398 1_455 S
C326 C327 1.352 . S
C327 C326 1.352 . S
C327 C328 1.384 1_556 S
C327 H354 0.930 . S
C328 C323 1.407 1_455 S
C328 C327 1.384 1_554 S
C328 H355 0.929 . S
C329 O342 1.241 1_655 S
C329 O343 1.273 . S
C330 O344 1.251 . S
C330 O345 1.268 . S
C331 Nd321 2.836 . S
C331 C332 1.498 . S
C331 O346 1.258 . S
C331 O347 1.239 . S
C332 C331 1.498 . S
C332 C333 1.366 . S
C332 C337 1.407 . S
C333 C332 1.366 . S
C333 C334 1.392 . S
C333 H356 0.930 . S
C334 C333 1.392 . S
C334 C335 1.398 . S
C334 H357 0.929 . S
C335 C334 1.398 . S
C335 C336 1.352 . S
C336 C335 1.352 . S
C336 C337 1.384 . S
C336 H358 0.930 . S
C337 C332 1.407 . S
C337 C336 1.384 . S
C337 H359 0.929 . S
C338 O348 1.241 . S
C338 O349 1.273 . S
C339 O350 1.251 . S
C339 O351 1.268 . S
O340 Nd320 2.500 . S
O340 C322 1.258 . S
O341 Nd320 2.492 1_455 S
O341 C322 1.239 1_455 S
O342 Nd320 2.487 1_455 S
O342 C329 1.241 1_455 S
O343 Nd320 2.682 . S
O343 Nd321 2.414 . S
O343 C329 1.273 . S
O344 Nd320 2.410 . S
O344 C330 1.251 . S
O345 Nd321 2.424 . S
O345 C330 1.268 . S
O346 Nd321 2.500 . S
O346 C331 1.258 . S
O347 Nd321 2.492 . S
O347 C331 1.239 . S
O348 Nd321 2.487 . S
O348 C338 1.241 . S
O349 Nd320 2.414 . S
O349 Nd321 2.682 . S
O349 C338 1.273 . S
O350 Nd321 2.410 . S
O350 C339 1.251 . S
O351 Nd320 2.424 . S
O351 C339 1.268 . S
H352 C324 0.930 . S
H353 C325 0.929 . S
H354 C327 0.930 . S
H355 C328 0.929 . S
H356 C333 0.930 . S
H357 C334 0.929 . S
H358 C336 0.930 . S
H359 C337 0.929 . S
Nd360 C362 2.836 . S
Nd360 O380 2.500 . S
Nd360 O381 2.492 . S
Nd360 O382 2.487 . S
Nd360 O383 2.682 . S
Nd360 O384 2.410 . S
Nd360 O389 2.414 . S
Nd360 O391 2.424 . S
Nd361 C371 2.836 1_556 S
Nd361 O383 2.414 . S
Nd361 O385 2.424 . S
Nd361 O386 2.500 1_556 S
Nd361 O387 2.492 1_556 S
Nd361 O388 2.487 . S
Nd361 O389 2.682 . S
Nd361 O390 2.410 1_556 S
C362 Nd360 2.836 . S
C362 C363 1.498 . S
C362 O380 1.258 . S
C362 O381 1.239 . S
C363 C362 1.498 . S
C363 C364 1.366 . S
C363 C368 1.407 . S
C364 C363 1.366 . S
C364 C365 1.392 . S
C364 H392 0.930 . S
C365 C364 1.392 . S
C365 C366 1.398 . S
C365 H393 0.929 . S
C366 C365 1.398 . S
C366 C367 1.352 . S
C367 C366 1.352 . S
C367 C368 1.384 . S
C367 H394 0.930 . S
C368 C363 1.407 . S
C368 C367 1.384 . S
C368 H395 0.929 . S
C369 O382 1.241 . S
C369 O383 1.273 . S
C370 O384 1.251 . S
C370 O385 1.268 . S
C371 Nd361 2.836 1_554 S
C371 C372 1.498 . S
C371 O386 1.258 . S
C371 O387 1.239 . S
C372 C371 1.498 . S
C372 C373 1.366 . S
C372 C377 1.407 . S
C373 C372 1.366 . S
C373 C374 1.392 . S
C373 H396 0.930 . S
C374 C373 1.392 . S
C374 C375 1.398 . S
C374 H397 0.929 . S
C375 C374 1.398 . S
C375 C376 1.352 . S
C376 C375 1.352 . S
C376 C377 1.384 . S
C376 H398 0.930 . S
C377 C372 1.407 . S
C377 C376 1.384 . S
C377 H399 0.929 . S
C378 O388 1.241 . S
C378 O389 1.273 . S
C379 O390 1.251 . S
C379 O391 1.268 1_554 S
O380 Nd360 2.500 . S
O380 C362 1.258 . S
O381 Nd360 2.492 . S
O381 C362 1.239 . S
O382 Nd360 2.487 . S
O382 C369 1.241 . S
O383 Nd360 2.682 . S
O383 Nd361 2.414 . S
O383 C369 1.273 . S
O384 Nd360 2.410 . S
O384 C370 1.251 . S
O385 Nd361 2.424 . S
O385 C370 1.268 . S
O386 Nd361 2.500 1_554 S
O386 C371 1.258 . S
O387 Nd361 2.492 1_554 S
O387 C371 1.239 . S
O388 Nd361 2.487 . S
O388 C378 1.241 . S
O389 Nd360 2.414 . S
O389 Nd361 2.682 . S
O389 C378 1.273 . S
O390 Nd361 2.410 1_554 S
O390 C379 1.251 . S
O391 Nd360 2.424 . S
O391 C379 1.268 1_556 S
H392 C364 0.930 . S
H393 C365 0.929 . S
H394 C367 0.930 . S
H395 C368 0.929 . S
H396 C373 0.930 . S
H397 C374 0.929 . S
H398 C376 0.930 . S
H399 C377 0.929 . S
Nd400 C402 2.836 . S
Nd400 O420 2.500 . S
Nd400 O421 2.492 . S
Nd400 O422 2.487 . S
Nd400 O423 2.682 . S
Nd400 O424 2.410 . S
Nd400 O429 2.414 . S
Nd400 O431 2.424 . S
Nd401 C411 2.836 . S
Nd401 O423 2.414 . S
Nd401 O425 2.424 . S
Nd401 O426 2.500 . S
Nd401 O427 2.492 . S
Nd401 O428 2.487 . S
Nd401 O429 2.682 . S
Nd401 O430 2.410 . S
C402 Nd400 2.836 . S
C402 C403 1.498 . S
C402 O420 1.258 . S
C402 O421 1.239 . S
C403 C402 1.498 . S
C403 C404 1.366 . S
C403 C408 1.407 . S
C404 C403 1.366 . S
C404 C405 1.392 . S
C404 H432 0.930 . S
C405 C404 1.392 . S
C405 C406 1.398 . S
C405 H433 0.929 . S
C406 C405 1.398 . S
C406 C407 1.352 . S
C407 C406 1.352 . S
C407 C408 1.384 . S
C407 H434 0.930 . S
C408 C403 1.407 . S
C408 C407 1.384 . S
C408 H435 0.929 . S
C409 O422 1.241 . S
C409 O423 1.273 . S
C410 O424 1.251 . S
C410 O425 1.268 . S
C411 Nd401 2.836 . S
C411 C412 1.498 . S
C411 O426 1.258 . S
C411 O427 1.239 . S
C412 C411 1.498 . S
C412 C413 1.366 . S
C412 C417 1.407 . S
C413 C412 1.366 . S
C413 C414 1.392 . S
C413 H436 0.930 . S
C414 C413 1.392 . S
C414 C415 1.398 . S
C414 H437 0.929 . S
C415 C414 1.398 . S
C415 C416 1.352 . S
C416 C415 1.352 . S
C416 C417 1.384 . S
C416 H438 0.930 . S
C417 C412 1.407 . S
C417 C416 1.384 . S
C417 H439 0.929 . S
C418 O428 1.241 . S
C418 O429 1.273 . S
C419 O430 1.251 . S
C419 O431 1.268 . S
O420 Nd400 2.500 . S
O420 C402 1.258 . S
O421 Nd400 2.492 . S
O421 C402 1.239 . S
O422 Nd400 2.487 . S
O422 C409 1.241 . S
O423 Nd400 2.682 . S
O423 Nd401 2.414 . S
O423 C409 1.273 . S
O424 Nd400 2.410 . S
O424 C410 1.251 . S
O425 Nd401 2.424 . S
O425 C410 1.268 . S
O426 Nd401 2.500 . S
O426 C411 1.258 . S
O427 Nd401 2.492 . S
O427 C411 1.239 . S
O428 Nd401 2.487 . S
O428 C418 1.241 . S
O429 Nd400 2.414 . S
O429 Nd401 2.682 . S
O429 C418 1.273 . S
O430 Nd401 2.410 . S
O430 C419 1.251 . S
O431 Nd400 2.424 . S
O431 C419 1.268 . S
H432 C404 0.930 . S
H433 C405 0.929 . S
H434 C407 0.930 . S
H435 C408 0.929 . S
H436 C413 0.930 . S
H437 C414 0.929 . S
H438 C416 0.930 . S
H439 C417 0.929 . S
Nd440 C442 2.836 . S
Nd440 O460 2.500 . S
Nd440 O461 2.492 . S
Nd440 O462 2.487 . S
Nd440 O463 2.682 . S
Nd440 O464 2.410 . S
Nd440 O469 2.414 . S
Nd440 O471 2.424 . S
Nd441 C451 2.836 . S
Nd441 O463 2.414 . S
Nd441 O465 2.424 . S
Nd441 O466 2.500 . S
Nd441 O467 2.492 . S
Nd441 O468 2.487 . S
Nd441 O469 2.682 . S
Nd441 O470 2.410 . S
C442 Nd440 2.836 . S
C442 C443 1.498 . S
C442 O460 1.258 . S
C442 O461 1.239 . S
C443 C442 1.498 . S
C443 C444 1.366 . S
C443 C448 1.407 . S
C444 C443 1.366 . S
C444 C445 1.392 . S
C444 H472 0.930 . S
C445 C444 1.392 . S
C445 C446 1.398 . S
C445 H473 0.929 . S
C446 C445 1.398 . S
C446 C447 1.352 . S
C447 C446 1.352 . S
C447 C448 1.384 . S
C447 H474 0.930 . S
C448 C443 1.407 . S
C448 C447 1.384 . S
C448 H475 0.929 . S
C449 O462 1.241 . S
C449 O463 1.273 . S
C450 O464 1.251 . S
C450 O465 1.268 . S
C451 Nd441 2.836 . S
C451 C452 1.498 . S
C451 O466 1.258 . S
C451 O467 1.239 . S
C452 C451 1.498 . S
C452 C453 1.366 . S
C452 C457 1.407 . S
C453 C452 1.366 . S
C453 C454 1.392 . S
C453 H476 0.930 . S
C454 C453 1.392 . S
C454 C455 1.398 . S
C454 H477 0.929 . S
C455 C454 1.398 . S
C455 C456 1.352 . S
C456 C455 1.352 . S
C456 C457 1.384 . S
C456 H478 0.930 . S
C457 C452 1.407 . S
C457 C456 1.384 . S
C457 H479 0.929 . S
C458 O468 1.241 . S
C458 O469 1.273 . S
C459 O470 1.251 . S
C459 O471 1.268 . S
O460 Nd440 2.500 . S
O460 C442 1.258 . S
O461 Nd440 2.492 . S
O461 C442 1.239 . S
O462 Nd440 2.487 . S
O462 C449 1.241 . S
O463 Nd440 2.682 . S
O463 Nd441 2.414 . S
O463 C449 1.273 . S
O464 Nd440 2.410 . S
O464 C450 1.251 . S
O465 Nd441 2.424 . S
O465 C450 1.268 . S
O466 Nd441 2.500 . S
O466 C451 1.258 . S
O467 Nd441 2.492 . S
O467 C451 1.239 . S
O468 Nd441 2.487 . S
O468 C458 1.241 . S
O469 Nd440 2.414 . S
O469 Nd441 2.682 . S
O469 C458 1.273 . S
O470 Nd441 2.410 . S
O470 C459 1.251 . S
O471 Nd440 2.424 . S
O471 C459 1.268 . S
H472 C444 0.930 . S
H473 C445 0.929 . S
H474 C447 0.930 . S
H475 C448 0.929 . S
H476 C453 0.930 . S
H477 C454 0.929 . S
H478 C456 0.930 . S
H479 C457 0.929 . S
Nd480 C482 2.836 . S
Nd480 O500 2.500 . S
Nd480 O501 2.492 . S
Nd480 O502 2.487 . S
Nd480 O503 2.682 . S
Nd480 O504 2.410 . S
Nd480 O509 2.414 . S
Nd480 O511 2.424 . S
Nd481 C491 2.836 . S
Nd481 O503 2.414 . S
Nd481 O505 2.424 . S
Nd481 O506 2.500 . S
Nd481 O507 2.492 . S
Nd481 O508 2.487 . S
Nd481 O509 2.682 . S
Nd481 O510 2.410 . S
C482 Nd480 2.836 . S
C482 C483 1.498 . S
C482 O500 1.258 . S
C482 O501 1.239 . S
C483 C482 1.498 . S
C483 C484 1.366 . S
C483 C488 1.407 . S
C484 C483 1.366 . S
C484 C485 1.392 . S
C484 H512 0.930 . S
C485 C484 1.392 . S
C485 C486 1.398 . S
C485 H513 0.929 . S
C486 C485 1.398 . S
C486 C487 1.352 . S
C487 C486 1.352 . S
C487 C488 1.384 . S
C487 H514 0.930 . S
C488 C483 1.407 . S
C488 C487 1.384 . S
C488 H515 0.929 . S
C489 O502 1.241 . S
C489 O503 1.273 . S
C490 O504 1.251 . S
C490 O505 1.268 . S
C491 Nd481 2.836 . S
C491 C492 1.498 . S
C491 O506 1.258 . S
C491 O507 1.239 . S
C492 C491 1.498 . S
C492 C493 1.366 . S
C492 C497 1.407 . S
C493 C492 1.366 . S
C493 C494 1.392 . S
C493 H516 0.930 . S
C494 C493 1.392 . S
C494 C495 1.398 1_556 S
C494 H517 0.929 1_556 S
C495 C494 1.398 1_554 S
C495 C496 1.352 1_554 S
C496 C495 1.352 1_556 S
C496 C497 1.384 . S
C496 H518 0.930 . S
C497 C492 1.407 . S
C497 C496 1.384 . S
C497 H519 0.929 . S
C498 O508 1.241 . S
C498 O509 1.273 . S
C499 O510 1.251 . S
C499 O511 1.268 . S
O500 Nd480 2.500 . S
O500 C482 1.258 . S
O501 Nd480 2.492 . S
O501 C482 1.239 . S
O502 Nd480 2.487 . S
O502 C489 1.241 . S
O503 Nd480 2.682 . S
O503 Nd481 2.414 . S
O503 C489 1.273 . S
O504 Nd480 2.410 . S
O504 C490 1.251 . S
O505 Nd481 2.424 . S
O505 C490 1.268 . S
O506 Nd481 2.500 . S
O506 C491 1.258 . S
O507 Nd481 2.492 . S
O507 C491 1.239 . S
O508 Nd481 2.487 . S
O508 C498 1.241 . S
O509 Nd480 2.414 . S
O509 Nd481 2.682 . S
O509 C498 1.273 . S
O510 Nd481 2.410 . S
O510 C499 1.251 . S
O511 Nd480 2.424 . S
O511 C499 1.268 . S
H512 C484 0.930 . S
H513 C485 0.929 . S
H514 C487 0.930 . S
H515 C488 0.929 . S
H516 C493 0.930 . S
H517 C494 0.929 1_554 S
H518 C496 0.930 . S
H519 C497 0.929 . S
Nd520 C522 2.836 . S
Nd520 O540 2.500 . S
Nd520 O541 2.492 . S
Nd520 O542 2.487 . S
Nd520 O543 2.682 . S
Nd520 O544 2.410 . S
Nd520 O549 2.414 . S
Nd520 O551 2.424 . S
Nd521 C531 2.836 . S
Nd521 O543 2.414 . S
Nd521 O545 2.424 . S
Nd521 O546 2.500 . S
Nd521 O547 2.492 . S
Nd521 O548 2.487 . S
Nd521 O549 2.682 . S
Nd521 O550 2.410 . S
C522 Nd520 2.836 . S
C522 C523 1.498 . S
C522 O540 1.258 . S
C522 O541 1.239 . S
C523 C522 1.498 . S
C523 C524 1.366 . S
C523 C528 1.407 . S
C524 C523 1.366 . S
C524 C525 1.392 . S
C524 H552 0.930 . S
C525 C524 1.392 . S
C525 C526 1.398 . S
C525 H553 0.929 . S
C526 C525 1.398 . S
C526 C527 1.352 . S
C527 C526 1.352 . S
C527 C528 1.384 . S
C527 H554 0.930 . S
C528 C523 1.407 . S
C528 C527 1.384 . S
C528 H555 0.929 . S
C529 O542 1.241 . S
C529 O543 1.273 . S
C530 O544 1.251 . S
C530 O545 1.268 . S
C531 Nd521 2.836 . S
C531 C532 1.498 . S
C531 O546 1.258 . S
C531 O547 1.239 . S
C532 C531 1.498 . S
C532 C533 1.366 . S
C532 C537 1.407 . S
C533 C532 1.366 . S
C533 C534 1.392 . S
C533 H556 0.930 . S
C534 C533 1.392 . S
C534 C535 1.398 . S
C534 H557 0.929 . S
C535 C534 1.398 . S
C535 C536 1.352 . S
C536 C535 1.352 . S
C536 C537 1.384 . S
C536 H558 0.930 . S
C537 C532 1.407 . S
C537 C536 1.384 . S
C537 H559 0.929 . S
C538 O548 1.241 . S
C538 O549 1.273 . S
C539 O550 1.251 . S
C539 O551 1.268 . S
O540 Nd520 2.500 . S
O540 C522 1.258 . S
O541 Nd520 2.492 . S
O541 C522 1.239 . S
O542 Nd520 2.487 . S
O542 C529 1.241 . S
O543 Nd520 2.682 . S
O543 Nd521 2.414 . S
O543 C529 1.273 . S
O544 Nd520 2.410 . S
O544 C530 1.251 . S
O545 Nd521 2.424 . S
O545 C530 1.268 . S
O546 Nd521 2.500 . S
O546 C531 1.258 . S
O547 Nd521 2.492 . S
O547 C531 1.239 . S
O548 Nd521 2.487 . S
O548 C538 1.241 . S
O549 Nd520 2.414 . S
O549 Nd521 2.682 . S
O549 C538 1.273 . S
O550 Nd521 2.410 . S
O550 C539 1.251 . S
O551 Nd520 2.424 . S
O551 C539 1.268 . S
H552 C524 0.930 . S
H553 C525 0.929 . S
H554 C527 0.930 . S
H555 C528 0.929 . S
H556 C533 0.930 . S
H557 C534 0.929 . S
H558 C536 0.930 . S
H559 C537 0.929 . S
Nd560 C562 2.836 . S
Nd560 O580 2.500 . S
Nd560 O581 2.492 . S
Nd560 O582 2.487 . S
Nd560 O583 2.682 . S
Nd560 O584 2.410 . S
Nd560 O589 2.414 . S
Nd560 O591 2.424 . S
Nd561 C571 2.836 . S
Nd561 O583 2.414 . S
Nd561 O585 2.424 . S
Nd561 O586 2.500 . S
Nd561 O587 2.492 . S
Nd561 O588 2.487 . S
Nd561 O589 2.682 . S
Nd561 O590 2.410 . S
C562 Nd560 2.836 . S
C562 C563 1.498 . S
C562 O580 1.258 . S
C562 O581 1.239 . S
C563 C562 1.498 . S
C563 C564 1.366 . S
C563 C568 1.407 . S
C564 C563 1.366 . S
C564 C565 1.392 . S
C564 H592 0.930 . S
C565 C564 1.392 . S
C565 C566 1.398 1_554 S
C565 H593 0.929 1_554 S
C566 C565 1.398 1_556 S
C566 C567 1.352 1_556 S
C567 C566 1.352 1_554 S
C567 C568 1.384 . S
C567 H594 0.930 . S
C568 C563 1.407 . S
C568 C567 1.384 . S
C568 H595 0.929 . S
C569 O582 1.241 . S
C569 O583 1.273 . S
C570 O584 1.251 . S
C570 O585 1.268 . S
C571 Nd561 2.836 . S
C571 C572 1.498 . S
C571 O586 1.258 . S
C571 O587 1.239 . S
C572 C571 1.498 . S
C572 C573 1.366 . S
C572 C577 1.407 . S
C573 C572 1.366 . S
C573 C574 1.392 . S
C573 H596 0.930 . S
C574 C573 1.392 . S
C574 C575 1.398 . S
C574 H597 0.929 . S
C575 C574 1.398 . S
C575 C576 1.352 . S
C576 C575 1.352 . S
C576 C577 1.384 . S
C576 H598 0.930 . S
C577 C572 1.407 . S
C577 C576 1.384 . S
C577 H599 0.929 . S
C578 O588 1.241 . S
C578 O589 1.273 . S
C579 O590 1.251 . S
C579 O591 1.268 . S
O580 Nd560 2.500 . S
O580 C562 1.258 . S
O581 Nd560 2.492 . S
O581 C562 1.239 . S
O582 Nd560 2.487 . S
O582 C569 1.241 . S
O583 Nd560 2.682 . S
O583 Nd561 2.414 . S
O583 C569 1.273 . S
O584 Nd560 2.410 . S
O584 C570 1.251 . S
O585 Nd561 2.424 . S
O585 C570 1.268 . S
O586 Nd561 2.500 . S
O586 C571 1.258 . S
O587 Nd561 2.492 . S
O587 C571 1.239 . S
O588 Nd561 2.487 . S
O588 C578 1.241 . S
O589 Nd560 2.414 . S
O589 Nd561 2.682 . S
O589 C578 1.273 . S
O590 Nd561 2.410 . S
O590 C579 1.251 . S
O591 Nd560 2.424 . S
O591 C579 1.268 . S
H592 C564 0.930 . S
H593 C565 0.929 1_556 S
H594 C567 0.930 . S
H595 C568 0.929 . S
H596 C573 0.930 . S
H597 C574 0.929 . S
H598 C576 0.930 . S
H599 C577 0.929 . S
Nd600 C602 2.836 . S
Nd600 O620 2.500 . S
Nd600 O621 2.492 . S
Nd600 O622 2.487 . S
Nd600 O623 2.682 1_556 S
Nd600 O624 2.410 . S
Nd600 O629 2.414 . S
Nd600 O631 2.424 1_556 S
Nd601 C611 2.836 . S
Nd601 O623 2.414 . S
Nd601 O625 2.424 1_554 S
Nd601 O626 2.500 . S
Nd601 O627 2.492 . S
Nd601 O628 2.487 . S
Nd601 O629 2.682 1_554 S
Nd601 O630 2.410 . S
C602 Nd600 2.836 . S
C602 C603 1.498 . S
C602 O620 1.258 . S
C602 O621 1.239 . S
C603 C602 1.498 . S
C603 C604 1.366 . S
C603 C608 1.407 . S
C604 C603 1.366 . S
C604 C605 1.392 . S
C604 H632 0.930 . S
C605 C604 1.392 . S
C605 C606 1.398 . S
C605 H633 0.929 . S
C606 C605 1.398 . S
C606 C607 1.352 . S
C607 C606 1.352 . S
C607 C608 1.384 . S
C607 H634 0.930 . S
C608 C603 1.407 . S
C608 C607 1.384 . S
C608 H635 0.929 . S
C609 O622 1.241 1_554 S
C609 O623 1.273 . S
C610 O624 1.251 . S
C610 O625 1.268 . S
C611 Nd601 2.836 . S
C611 C612 1.498 . S
C611 O626 1.258 . S
C611 O627 1.239 . S
C612 C611 1.498 . S
C612 C613 1.366 . S
C612 C617 1.407 . S
C613 C612 1.366 . S
C613 C614 1.392 . S
C613 H636 0.930 . S
C614 C613 1.392 . S
C614 C615 1.398 . S
C614 H637 0.929 . S
C615 C614 1.398 . S
C615 C616 1.352 . S
C616 C615 1.352 . S
C616 C617 1.384 . S
C616 H638 0.930 . S
C617 C612 1.407 . S
C617 C616 1.384 . S
C617 H639 0.929 . S
C618 O628 1.241 1_556 S
C618 O629 1.273 . S
C619 O630 1.251 . S
C619 O631 1.268 . S
O620 Nd600 2.500 . S
O620 C602 1.258 . S
O621 Nd600 2.492 . S
O621 C602 1.239 . S
O622 Nd600 2.487 . S
O622 C609 1.241 1_556 S
O623 Nd600 2.682 1_554 S
O623 Nd601 2.414 . S
O623 C609 1.273 . S
O624 Nd600 2.410 . S
O624 C610 1.251 . S
O625 Nd601 2.424 1_556 S
O625 C610 1.268 . S
O626 Nd601 2.500 . S
O626 C611 1.258 . S
O627 Nd601 2.492 . S
O627 C611 1.239 . S
O628 Nd601 2.487 . S
O628 C618 1.241 1_554 S
O629 Nd600 2.414 . S
O629 Nd601 2.682 1_556 S
O629 C618 1.273 . S
O630 Nd601 2.410 . S
O630 C619 1.251 . S
O631 Nd600 2.424 1_554 S
O631 C619 1.268 . S
H632 C604 0.930 . S
H633 C605 0.929 . S
H634 C607 0.930 . S
H635 C608 0.929 . S
H636 C613 0.930 . S
H637 C614 0.929 . S
H638 C616 0.930 . S
H639 C617 0.929 . S
Nd640 C642 2.836 . S
Nd640 O660 2.500 . S
Nd640 O661 2.492 . S
Nd640 O662 2.487 . S
Nd640 O663 2.682 . S
Nd640 O664 2.410 . S
Nd640 O669 2.414 . S
Nd640 O671 2.424 . S
Nd641 C651 2.836 . S
Nd641 O663 2.414 . S
Nd641 O665 2.424 . S
Nd641 O666 2.500 . S
Nd641 O667 2.492 . S
Nd641 O668 2.487 . S
Nd641 O669 2.682 . S
Nd641 O670 2.410 . S
C642 Nd640 2.836 . S
C642 C643 1.498 . S
C642 O660 1.258 . S
C642 O661 1.239 . S
C643 C642 1.498 . S
C643 C644 1.366 . S
C643 C648 1.407 . S
C644 C643 1.366 . S
C644 C645 1.392 . S
C644 H672 0.930 . S
C645 C644 1.392 . S
C645 C646 1.398 . S
C645 H673 0.929 . S
C646 C645 1.398 . S
C646 C647 1.352 . S
C647 C646 1.352 . S
C647 C648 1.384 . S
C647 H674 0.930 . S
C648 C643 1.407 . S
C648 C647 1.384 . S
C648 H675 0.929 . S
C649 O662 1.241 . S
C649 O663 1.273 . S
C650 O664 1.251 . S
C650 O665 1.268 . S
C651 Nd641 2.836 . S
C651 C652 1.498 . S
C651 O666 1.258 . S
C651 O667 1.239 . S
C652 C651 1.498 . S
C652 C653 1.366 . S
C652 C657 1.407 . S
C653 C652 1.366 . S
C653 C654 1.392 . S
C653 H676 0.930 . S
C654 C653 1.392 . S
C654 C655 1.398 . S
C654 H677 0.929 . S
C655 C654 1.398 . S
C655 C656 1.352 . S
C656 C655 1.352 . S
C656 C657 1.384 . S
C656 H678 0.930 . S
C657 C652 1.407 . S
C657 C656 1.384 . S
C657 H679 0.929 . S
C658 O668 1.241 . S
C658 O669 1.273 . S
C659 O670 1.251 . S
C659 O671 1.268 . S
O660 Nd640 2.500 . S
O660 C642 1.258 . S
O661 Nd640 2.492 . S
O661 C642 1.239 . S
O662 Nd640 2.487 . S
O662 C649 1.241 . S
O663 Nd640 2.682 . S
O663 Nd641 2.414 . S
O663 C649 1.273 . S
O664 Nd640 2.410 . S
O664 C650 1.251 . S
O665 Nd641 2.424 . S
O665 C650 1.268 . S
O666 Nd641 2.500 . S
O666 C651 1.258 . S
O667 Nd641 2.492 . S
O667 C651 1.239 . S
O668 Nd641 2.487 . S
O668 C658 1.241 . S
O669 Nd640 2.414 . S
O669 Nd641 2.682 . S
O669 C658 1.273 . S
O670 Nd641 2.410 . S
O670 C659 1.251 . S
O671 Nd640 2.424 . S
O671 C659 1.268 . S
H672 C644 0.930 . S
H673 C645 0.929 . S
H674 C647 0.930 . S
H675 C648 0.929 . S
H676 C653 0.930 . S
H677 C654 0.929 . S
H678 C656 0.930 . S
H679 C657 0.929 . S
Nd680 C682 2.836 . S
Nd680 O700 2.500 . S
Nd680 O701 2.492 . S
Nd680 O702 2.487 . S
Nd680 O703 2.682 . S
Nd680 O704 2.410 . S
Nd680 O709 2.414 . S
Nd680 O711 2.424 . S
Nd681 C691 2.836 . S
Nd681 O703 2.414 . S
Nd681 O705 2.424 . S
Nd681 O706 2.500 . S
Nd681 O707 2.492 . S
Nd681 O708 2.487 . S
Nd681 O709 2.682 . S
Nd681 O710 2.410 . S
C682 Nd680 2.836 . S
C682 C683 1.498 . S
C682 O700 1.258 . S
C682 O701 1.239 . S
C683 C682 1.498 . S
C683 C684 1.366 . S
C683 C688 1.407 . S
C684 C683 1.366 . S
C684 C685 1.392 . S
C684 H712 0.930 . S
C685 C684 1.392 . S
C685 C686 1.398 . S
C685 H713 0.929 . S
C686 C685 1.398 . S
C686 C687 1.352 . S
C687 C686 1.352 . S
C687 C688 1.384 . S
C687 H714 0.930 . S
C688 C683 1.407 . S
C688 C687 1.384 . S
C688 H715 0.929 . S
C689 O702 1.241 . S
C689 O703 1.273 . S
C690 O704 1.251 . S
C690 O705 1.268 . S
C691 Nd681 2.836 . S
C691 C692 1.498 1_556 S
C691 O706 1.258 . S
C691 O707 1.239 . S
C692 C691 1.498 1_554 S
C692 C693 1.366 . S
C692 C697 1.407 . S
C693 C692 1.366 . S
C693 C694 1.392 . S
C693 H716 0.930 . S
C694 C693 1.392 . S
C694 C695 1.398 . S
C694 H717 0.929 . S
C695 C694 1.398 . S
C695 C696 1.352 . S
C696 C695 1.352 . S
C696 C697 1.384 . S
C696 H718 0.930 . S
C697 C692 1.407 . S
C697 C696 1.384 . S
C697 H719 0.929 . S
C698 O708 1.241 . S
C698 O709 1.273 . S
C699 O710 1.251 . S
C699 O711 1.268 . S
O700 Nd680 2.500 . S
O700 C682 1.258 . S
O701 Nd680 2.492 . S
O701 C682 1.239 . S
O702 Nd680 2.487 . S
O702 C689 1.241 . S
O703 Nd680 2.682 . S
O703 Nd681 2.414 . S
O703 C689 1.273 . S
O704 Nd680 2.410 . S
O704 C690 1.251 . S
O705 Nd681 2.424 . S
O705 C690 1.268 . S
O706 Nd681 2.500 . S
O706 C691 1.258 . S
O707 Nd681 2.492 . S
O707 C691 1.239 . S
O708 Nd681 2.487 . S
O708 C698 1.241 . S
O709 Nd680 2.414 . S
O709 Nd681 2.682 . S
O709 C698 1.273 . S
O710 Nd681 2.410 . S
O710 C699 1.251 . S
O711 Nd680 2.424 . S
O711 C699 1.268 . S
H712 C684 0.930 . S
H713 C685 0.929 . S
H714 C687 0.930 . S
H715 C688 0.929 . S
H716 C693 0.930 . S
H717 C694 0.929 . S
H718 C696 0.930 . S
H719 C697 0.929 . S
Nd720 C722 2.836 1_554 S
Nd720 O740 2.500 1_554 S
Nd720 O741 2.492 1_554 S
Nd720 O742 2.487 . S
Nd720 O743 2.682 . S
Nd720 O744 2.410 . S
Nd720 O749 2.414 . S
Nd720 O751 2.424 . S
Nd721 C731 2.836 . S
Nd721 O743 2.414 . S
Nd721 O745 2.424 . S
Nd721 O746 2.500 . S
Nd721 O747 2.492 1_655 S
Nd721 O748 2.487 1_655 S
Nd721 O749 2.682 . S
Nd721 O750 2.410 . S
C722 Nd720 2.836 1_556 S
C722 C723 1.498 . S
C722 O740 1.258 . S
C722 O741 1.239 . S
C723 C722 1.498 . S
C723 C724 1.366 . S
C723 C728 1.407 . S
C724 C723 1.366 . S
C724 C725 1.392 . S
C724 H752 0.930 . S
C725 C724 1.392 . S
C725 C726 1.398 . S
C725 H753 0.929 . S
C726 C725 1.398 . S
C726 C727 1.352 . S
C727 C726 1.352 . S
C727 C728 1.384 . S
C727 H754 0.930 . S
C728 C723 1.407 . S
C728 C727 1.384 . S
C728 H755 0.929 . S
C729 O742 1.241 . S
C729 O743 1.273 . S
C730 O744 1.251 . S
C730 O745 1.268 . S
C731 Nd721 2.836 . S
C731 C732 1.498 . S
C731 O746 1.258 . S
C731 O747 1.239 1_655 S
C732 C731 1.498 . S
C732 C733 1.366 . S
C732 C737 1.407 1_655 S
C733 C732 1.366 . S
C733 C734 1.392 . S
C733 H756 0.930 . S
C734 C733 1.392 . S
C734 C735 1.398 1_655 S
C734 H757 0.929 . S
C735 C734 1.398 1_455 S
C735 C736 1.352 . S
C736 C735 1.352 . S
C736 C737 1.384 . S
C736 H758 0.930 . S
C737 C732 1.407 1_455 S
C737 C736 1.384 . S
C737 H759 0.929 . S
C738 O748 1.241 1_655 S
C738 O749 1.273 . S
C739 O750 1.251 . S
C739 O751 1.268 . S
O740 Nd720 2.500 1_556 S
O740 C722 1.258 . S
O741 Nd720 2.492 1_556 S
O741 C722 1.239 . S
O742 Nd720 2.487 . S
O742 C729 1.241 . S
O743 Nd720 2.682 . S
O743 Nd721 2.414 . S
O743 C729 1.273 . S
O744 Nd720 2.410 . S
O744 C730 1.251 . S
O745 Nd721 2.424 . S
O745 C730 1.268 . S
O746 Nd721 2.500 . S
O746 C731 1.258 . S
O747 Nd721 2.492 1_455 S
O747 C731 1.239 1_455 S
O748 Nd721 2.487 1_455 S
O748 C738 1.241 1_455 S
O749 Nd720 2.414 . S
O749 Nd721 2.682 . S
O749 C738 1.273 . S
O750 Nd721 2.410 . S
O750 C739 1.251 . S
O751 Nd720 2.424 . S
O751 C739 1.268 . S
H752 C724 0.930 . S
H753 C725 0.929 . S
H754 C727 0.930 . S
H755 C728 0.929 . S
H756 C733 0.930 . S
H757 C734 0.929 . S
H758 C736 0.930 . S
H759 C737 0.929 . S
Nd760 C762 2.836 . S
Nd760 O780 2.500 . S
Nd760 O781 2.492 . S
Nd760 O782 2.487 . S
Nd760 O783 2.682 . S
Nd760 O784 2.410 . S
Nd760 O789 2.414 . S
Nd760 O791 2.424 . S
Nd761 C771 2.836 . S
Nd761 O783 2.414 . S
Nd761 O785 2.424 . S
Nd761 O786 2.500 . S
Nd761 O787 2.492 . S
Nd761 O788 2.487 . S
Nd761 O789 2.682 . S
Nd761 O790 2.410 . S
C762 Nd760 2.836 . S
C762 C763 1.498 . S
C762 O780 1.258 . S
C762 O781 1.239 . S
C763 C762 1.498 . S
C763 C764 1.366 . S
C763 C768 1.407 . S
C764 C763 1.366 . S
C764 C765 1.392 . S
C764 H792 0.930 . S
C765 C764 1.392 . S
C765 C766 1.398 . S
C765 H793 0.929 . S
C766 C765 1.398 . S
C766 C767 1.352 . S
C767 C766 1.352 . S
C767 C768 1.384 . S
C767 H794 0.930 . S
C768 C763 1.407 . S
C768 C767 1.384 . S
C768 H795 0.929 . S
C769 O782 1.241 . S
C769 O783 1.273 . S
C770 O784 1.251 . S
C770 O785 1.268 . S
C771 Nd761 2.836 . S
C771 C772 1.498 . S
C771 O786 1.258 . S
C771 O787 1.239 . S
C772 C771 1.498 . S
C772 C773 1.366 . S
C772 C777 1.407 . S
C773 C772 1.366 . S
C773 C774 1.392 . S
C773 H796 0.930 . S
C774 C773 1.392 . S
C774 C775 1.398 . S
C774 H797 0.929 . S
C775 C774 1.398 . S
C775 C776 1.352 . S
C776 C775 1.352 . S
C776 C777 1.384 . S
C776 H798 0.930 . S
C777 C772 1.407 . S
C777 C776 1.384 . S
C777 H799 0.929 . S
C778 O788 1.241 . S
C778 O789 1.273 . S
C779 O790 1.251 . S
C779 O791 1.268 . S
O780 Nd760 2.500 . S
O780 C762 1.258 . S
O781 Nd760 2.492 . S
O781 C762 1.239 . S
O782 Nd760 2.487 . S
O782 C769 1.241 . S
O783 Nd760 2.682 . S
O783 Nd761 2.414 . S
O783 C769 1.273 . S
O784 Nd760 2.410 . S
O784 C770 1.251 . S
O785 Nd761 2.424 . S
O785 C770 1.268 . S
O786 Nd761 2.500 . S
O786 C771 1.258 . S
O787 Nd761 2.492 . S
O787 C771 1.239 . S
O788 Nd761 2.487 . S
O788 C778 1.241 . S
O789 Nd760 2.414 . S
O789 Nd761 2.682 . S
O789 C778 1.273 . S
O790 Nd761 2.410 . S
O790 C779 1.251 . S
O791 Nd760 2.424 . S
O791 C779 1.268 . S
H792 C764 0.930 . S
H793 C765 0.929 . S
H794 C767 0.930 . S
H795 C768 0.929 . S
H796 C773 0.930 . S
H797 C774 0.929 . S
H798 C776 0.930 . S
H799 C777 0.929 . S
Nd800 C802 2.836 1_544 S
Nd800 O820 2.500 1_554 S
Nd800 O821 2.492 1_544 S
Nd800 O822 2.487 1_545 S
Nd800 O823 2.682 . S
Nd800 O824 2.410 1_554 S
Nd800 O829 2.414 . S
Nd800 O831 2.424 . S
Nd801 C811 2.836 . S
Nd801 O823 2.414 . S
Nd801 O825 2.399 1_554 S
Nd801 O826 2.500 . S
Nd801 O827 2.492 . S
Nd801 O828 2.487 . S
Nd801 O829 2.682 . S
Nd801 O830 2.410 . S
C802 Nd800 2.836 1_566 S
C802 C803 1.498 . S
C802 O820 1.258 1_565 S
C802 O821 1.239 . S
C803 C802 1.498 . S
C803 C804 1.366 . S
C803 C808 1.407 . S
C804 C803 1.366 . S
C804 C805 1.392 . S
C804 H832 0.930 1_565 S
C805 C804 1.392 . S
C805 C806 1.398 . S
C805 H833 0.929 . S
C806 C805 1.398 . S
C806 C807 1.352 . S
C807 C806 1.352 . S
C807 C808 1.384 . S
C807 H834 0.930 . S
C808 C803 1.407 . S
C808 C807 1.384 . S
C808 H835 0.929 . S
C809 O822 1.241 . S
C809 O823 1.273 1_565 S
C810 O824 1.251 . S
C810 O825 1.287 . S
C811 Nd801 2.836 . S
C811 C812 1.498 . S
C811 O826 1.258 . S
C811 O827 1.239 . S
C812 C811 1.498 . S
C812 C813 1.366 . S
C812 C817 1.407 . S
C813 C812 1.366 . S
C813 C814 1.392 . S
C813 H836 0.930 . S
C814 C813 1.392 . S
C814 C815 1.398 . S
C814 H837 0.929 . S
C815 C814 1.398 . S
C815 C816 1.352 . S
C816 C815 1.352 . S
C816 C817 1.384 . S
C816 H838 0.930 . S
C817 C812 1.407 . S
C817 C816 1.384 . S
C817 H839 0.929 . S
C818 O828 1.241 . S
C818 O829 1.273 . S
C819 O830 1.251 . S
C819 O831 1.268 . S
O820 Nd800 2.500 1_556 S
O820 C802 1.258 1_545 S
O821 Nd800 2.492 1_566 S
O821 C802 1.239 . S
O822 Nd800 2.487 1_565 S
O822 C809 1.241 . S
O823 Nd800 2.682 . S
O823 Nd801 2.414 . S
O823 C809 1.273 1_545 S
O824 Nd800 2.410 1_556 S
O824 C810 1.251 . S
O825 Nd801 2.399 1_556 S
O825 C810 1.287 . S
O826 Nd801 2.500 . S
O826 C811 1.258 . S
O827 Nd801 2.492 . S
O827 C811 1.239 . S
O828 Nd801 2.487 . S
O828 C818 1.241 . S
O829 Nd800 2.414 . S
O829 Nd801 2.682 . S
O829 C818 1.273 . S
O830 Nd801 2.410 . S
O830 C819 1.251 . S
O831 Nd800 2.424 . S
O831 C819 1.268 . S
H832 C804 0.930 1_545 S
H833 C805 0.929 . S
H834 C807 0.930 . S
H835 C808 0.929 . S
H836 C813 0.930 . S
H837 C814 0.929 . S
H838 C816 0.930 . S
H839 C817 0.929 . S
Nd840 C842 2.836 . S
Nd840 O860 2.500 . S
Nd840 O861 2.492 . S
Nd840 O862 2.487 . S
Nd840 O863 2.682 . S
Nd840 O864 2.410 . S
Nd840 O869 2.414 . S
Nd840 O871 2.424 . S
Nd841 C851 2.836 . S
Nd841 O863 2.414 . S
Nd841 O865 2.424 . S
Nd841 O866 2.500 . S
Nd841 O867 2.492 . S
Nd841 O868 2.487 . S
Nd841 O869 2.682 . S
Nd841 O870 2.410 . S
C842 Nd840 2.836 . S
C842 C843 1.498 . S
C842 O860 1.258 . S
C842 O861 1.239 . S
C843 C842 1.498 . S
C843 C844 1.366 . S
C843 C848 1.407 . S
C844 C843 1.366 . S
C844 C845 1.392 . S
C844 H872 0.930 . S
C845 C844 1.392 . S
C845 C846 1.398 . S
C845 H873 0.929 . S
C846 C845 1.398 . S
C846 C847 1.352 . S
C847 C846 1.352 . S
C847 C848 1.384 . S
C847 H874 0.930 . S
C848 C843 1.407 . S
C848 C847 1.384 . S
C848 H875 0.929 . S
C849 O862 1.241 . S
C849 O863 1.273 . S
C850 O864 1.251 . S
C850 O865 1.268 . S
C851 Nd841 2.836 . S
C851 C852 1.498 . S
C851 O866 1.258 . S
C851 O867 1.239 . S
C852 C851 1.498 . S
C852 C853 1.366 . S
C852 C857 1.407 . S
C853 C852 1.366 . S
C853 C854 1.392 . S
C853 H876 0.930 . S
C854 C853 1.392 . S
C854 C855 1.398 . S
C854 H877 0.929 . S
C855 C854 1.398 . S
C855 C856 1.352 . S
C856 C855 1.352 . S
C856 C857 1.384 . S
C856 H878 0.930 . S
C857 C852 1.407 . S
C857 C856 1.384 . S
C857 H879 0.929 . S
C858 O868 1.241 . S
C858 O869 1.273 . S
C859 O870 1.251 . S
C859 O871 1.268 . S
O860 Nd840 2.500 . S
O860 C842 1.258 . S
O861 Nd840 2.492 . S
O861 C842 1.239 . S
O862 Nd840 2.487 . S
O862 C849 1.241 . S
O863 Nd840 2.682 . S
O863 Nd841 2.414 . S
O863 C849 1.273 . S
O864 Nd840 2.410 . S
O864 C850 1.251 . S
O865 Nd841 2.424 . S
O865 C850 1.268 . S
O866 Nd841 2.500 . S
O866 C851 1.258 . S
O867 Nd841 2.492 . S
O867 C851 1.239 . S
O868 Nd841 2.487 . S
O868 C858 1.241 . S
O869 Nd840 2.414 . S
O869 Nd841 2.682 . S
O869 C858 1.273 . S
O870 Nd841 2.410 . S
O870 C859 1.251 . S
O871 Nd840 2.424 . S
O871 C859 1.268 . S
H872 C844 0.930 . S
H873 C845 0.929 . S
H874 C847 0.930 . S
H875 C848 0.929 . S
H876 C853 0.930 . S
H877 C854 0.929 . S
H878 C856 0.930 . S
H879 C857 0.929 . S
Nd880 C882 2.836 1_565 S
Nd880 O900 2.500 . S
Nd880 O901 2.492 1_565 S
Nd880 O902 2.487 1_565 S
Nd880 O903 2.682 . S
Nd880 O904 2.410 . S
Nd880 O909 2.414 . S
Nd880 O911 2.424 . S
Nd881 C891 2.836 . S
Nd881 O903 2.414 . S
Nd881 O905 2.424 . S
Nd881 O906 2.500 . S
Nd881 O907 2.492 . S
Nd881 O908 2.487 . S
Nd881 O909 2.682 . S
Nd881 O910 2.410 . S
C882 Nd880 2.836 1_545 S
C882 C883 1.498 . S
C882 O900 1.258 1_545 S
C882 O901 1.239 . S
C883 C882 1.498 . S
C883 C884 1.366 . S
C883 C888 1.407 . S
C884 C883 1.366 . S
C884 C885 1.392 . S
C884 H912 0.930 1_545 S
C885 C884 1.392 . S
C885 C886 1.398 . S
C885 H913 0.929 . S
C886 C885 1.398 . S
C886 C887 1.352 . S
C887 C886 1.352 . S
C887 C888 1.384 . S
C887 H914 0.930 . S
C888 C883 1.407 . S
C888 C887 1.384 . S
C888 H915 0.929 . S
C889 O902 1.241 . S
C889 O903 1.273 1_545 S
C890 O904 1.251 . S
C890 O905 1.268 . S
C891 Nd881 2.836 . S
C891 C892 1.498 . S
C891 O906 1.258 . S
C891 O907 1.239 . S
C892 C891 1.498 . S
C892 C893 1.366 . S
C892 C897 1.407 . S
C893 C892 1.366 . S
C893 C894 1.392 . S
C893 H916 0.930 . S
C894 C893 1.392 . S
C894 C895 1.398 . S
C894 H917 0.929 . S
C895 C894 1.398 . S
C895 C896 1.352 . S
C896 C895 1.352 . S
C896 C897 1.384 . S
C896 H918 0.930 . S
C897 C892 1.407 . S
C897 C896 1.384 . S
C897 H919 0.929 . S
C898 O908 1.241 . S
C898 O909 1.273 . S
C899 O910 1.251 . S
C899 O911 1.268 . S
O900 Nd880 2.500 . S
O900 C882 1.258 1_565 S
O901 Nd880 2.492 1_545 S
O901 C882 1.239 . S
O902 Nd880 2.487 1_545 S
O902 C889 1.241 . S
O903 Nd880 2.682 . S
O903 Nd881 2.414 . S
O903 C889 1.273 1_565 S
O904 Nd880 2.410 . S
O904 C890 1.251 . S
O905 Nd881 2.424 . S
O905 C890 1.268 . S
O906 Nd881 2.500 . S
O906 C891 1.258 . S
O907 Nd881 2.492 . S
O907 C891 1.239 . S
O908 Nd881 2.487 . S
O908 C898 1.241 . S
O909 Nd880 2.414 . S
O909 Nd881 2.682 . S
O909 C898 1.273 . S
O910 Nd881 2.410 . S
O910 C899 1.251 . S
O911 Nd880 2.424 . S
O911 C899 1.268 . S
H912 C884 0.930 1_565 S
H913 C885 0.929 . S
H914 C887 0.930 . S
H915 C888 0.929 . S
H916 C893 0.930 . S
H917 C894 0.929 . S
H918 C896 0.930 . S
H919 C897 0.929 . S
Nd920 C922 2.836 . S
Nd920 O940 2.500 . S
Nd920 O941 2.492 . S
Nd920 O942 2.487 . S
Nd920 O943 2.682 . S
Nd920 O944 2.410 . S
Nd920 O949 2.414 . S
Nd920 O951 2.424 . S
Nd921 C931 2.836 . S
Nd921 O943 2.414 . S
Nd921 O945 2.424 . S
Nd921 O946 2.500 . S
Nd921 O947 2.492 . S
Nd921 O948 2.487 . S
Nd921 O949 2.682 . S
Nd921 O950 2.410 . S
C922 Nd920 2.836 . S
C922 C923 1.498 . S
C922 O940 1.258 . S
C922 O941 1.239 . S
C923 C922 1.498 . S
C923 C924 1.366 . S
C923 C928 1.407 . S
C924 C923 1.366 . S
C924 C925 1.392 . S
C924 H952 0.930 . S
C925 C924 1.392 . S
C925 C926 1.398 . S
C925 H953 0.929 . S
C926 C925 1.398 . S
C926 C927 1.352 . S
C927 C926 1.352 . S
C927 C928 1.384 . S
C927 H954 0.930 . S
C928 C923 1.407 . S
C928 C927 1.384 . S
C928 H955 0.929 . S
C929 O942 1.241 . S
C929 O943 1.273 . S
C930 O944 1.251 . S
C930 O945 1.268 . S
C931 Nd921 2.836 . S
C931 C932 1.498 . S
C931 O946 1.258 . S
C931 O947 1.239 . S
C932 C931 1.498 . S
C932 C933 1.366 . S
C932 C937 1.407 . S
C933 C932 1.366 . S
C933 C934 1.392 1_556 S
C933 H956 0.930 . S
C934 C933 1.392 1_554 S
C934 C935 1.398 . S
C934 H957 0.929 . S
C935 C934 1.398 . S
C935 C936 1.352 . S
C936 C935 1.352 . S
C936 C937 1.384 1_554 S
C936 H958 0.930 . S
C937 C932 1.407 . S
C937 C936 1.384 1_556 S
C937 H959 0.929 . S
C938 O948 1.241 . S
C938 O949 1.273 . S
C939 O950 1.251 . S
C939 O951 1.268 . S
O940 Nd920 2.500 . S
O940 C922 1.258 . S
O941 Nd920 2.492 . S
O941 C922 1.239 . S
O942 Nd920 2.487 . S
O942 C929 1.241 . S
O943 Nd920 2.682 . S
O943 Nd921 2.414 . S
O943 C929 1.273 . S
O944 Nd920 2.410 . S
O944 C930 1.251 . S
O945 Nd921 2.424 . S
O945 C930 1.268 . S
O946 Nd921 2.500 . S
O946 C931 1.258 . S
O947 Nd921 2.492 . S
O947 C931 1.239 . S
O948 Nd921 2.487 . S
O948 C938 1.241 . S
O949 Nd920 2.414 . S
O949 Nd921 2.682 . S
O949 C938 1.273 . S
O950 Nd921 2.410 . S
O950 C939 1.251 . S
O951 Nd920 2.424 . S
O951 C939 1.268 . S
H952 C924 0.930 . S
H953 C925 0.929 . S
H954 C927 0.930 . S
H955 C928 0.929 . S
H956 C933 0.930 . S
H957 C934 0.929 . S
H958 C936 0.930 . S
H959 C937 0.929 . S
Nd960 C962 2.836 . S
Nd960 O980 2.500 . S
Nd960 O981 2.492 . S
Nd960 O982 2.487 . S
Nd960 O983 2.682 . S
Nd960 O984 2.410 . S
Nd960 O989 2.414 . S
Nd960 O991 2.424 . S
Nd961 C971 2.836 . S
Nd961 O983 2.414 . S
Nd961 O985 2.424 . S
Nd961 O986 2.500 . S
Nd961 O987 2.492 . S
Nd961 O988 2.487 . S
Nd961 O989 2.682 . S
Nd961 O990 2.410 . S
C962 Nd960 2.836 . S
C962 C963 1.498 . S
C962 O980 1.258 . S
C962 O981 1.239 . S
C963 C962 1.498 . S
C963 C964 1.366 . S
C963 C968 1.407 . S
C964 C963 1.366 . S
C964 C965 1.392 . S
C964 H992 0.930 . S
C965 C964 1.392 . S
C965 C966 1.398 . S
C965 H993 0.929 . S
C966 C965 1.398 . S
C966 C967 1.352 . S
C967 C966 1.352 . S
C967 C968 1.384 . S
C967 H994 0.930 . S
C968 C963 1.407 . S
C968 C967 1.384 . S
C968 H995 0.929 . S
C969 O982 1.241 . S
C969 O983 1.273 . S
C970 O984 1.251 . S
C970 O985 1.268 . S
C971 Nd961 2.836 . S
C971 C972 1.498 . S
C971 O986 1.258 . S
C971 O987 1.239 . S
C972 C971 1.498 . S
C972 C973 1.366 . S
C972 C977 1.407 . S
C973 C972 1.366 . S
C973 C974 1.392 . S
C973 H996 0.930 . S
C974 C973 1.392 . S
C974 C975 1.398 . S
C974 H997 0.929 . S
C975 C974 1.398 . S
C975 C976 1.352 . S
C976 C975 1.352 . S
C976 C977 1.384 . S
C976 H998 0.930 . S
C977 C972 1.407 . S
C977 C976 1.384 . S
C977 H999 0.929 . S
C978 O988 1.241 . S
C978 O989 1.273 . S
C979 O990 1.251 . S
C979 O991 1.268 . S
O980 Nd960 2.500 . S
O980 C962 1.258 . S
O981 Nd960 2.492 . S
O981 C962 1.239 . S
O982 Nd960 2.487 . S
O982 C969 1.241 . S
O983 Nd960 2.682 . S
O983 Nd961 2.414 . S
O983 C969 1.273 . S
O984 Nd960 2.410 . S
O984 C970 1.251 . S
O985 Nd961 2.424 . S
O985 C970 1.268 . S
O986 Nd961 2.500 . S
O986 C971 1.258 . S
O987 Nd961 2.492 . S
O987 C971 1.239 . S
O988 Nd961 2.487 . S
O988 C978 1.241 . S
O989 Nd960 2.414 . S
O989 Nd961 2.682 . S
O989 C978 1.273 . S
O990 Nd961 2.410 . S
O990 C979 1.251 . S
O991 Nd960 2.424 . S
O991 C979 1.268 . S
H992 C964 0.930 . S
H993 C965 0.929 . S
H994 C967 0.930 . S
H995 C968 0.929 . S
H996 C973 0.930 . S
H997 C974 0.929 . S
H998 C976 0.930 . S
H999 C977 0.929 . S
Nd1000 C1002 2.836 . S
Nd1000 O1020 2.500 . S
Nd1000 O1021 2.492 . S
Nd1000 O1022 2.487 . S
Nd1000 O1023 2.682 . S
Nd1000 O1024 2.410 . S
Nd1000 O1029 2.414 . S
Nd1000 O1031 2.424 . S
Nd1001 C1011 2.836 . S
Nd1001 O1023 2.414 . S
Nd1001 O1025 2.424 . S
Nd1001 O1026 2.500 . S
Nd1001 O1027 2.492 . S
Nd1001 O1028 2.487 . S
Nd1001 O1029 2.682 . S
Nd1001 O1030 2.410 . S
C1002 Nd1000 2.836 . S
C1002 C1003 1.498 . S
C1002 O1020 1.258 . S
C1002 O1021 1.239 . S
C1003 C1002 1.498 . S
C1003 C1004 1.366 . S
C1003 C1008 1.407 . S
C1004 C1003 1.366 . S
C1004 C1005 1.392 . S
C1004 H1032 0.930 . S
C1005 C1004 1.392 . S
C1005 C1006 1.398 . S
C1005 H1033 0.929 . S
C1006 C1005 1.398 . S
C1006 C1007 1.352 . S
C1007 C1006 1.352 . S
C1007 C1008 1.384 . S
C1007 H1034 0.930 . S
C1008 C1003 1.407 . S
C1008 C1007 1.384 . S
C1008 H1035 0.929 . S
C1009 O1022 1.241 . S
C1009 O1023 1.273 . S
C1010 O1024 1.251 . S
C1010 O1025 1.268 . S
C1011 Nd1001 2.836 . S
C1011 C1012 1.498 . S
C1011 O1026 1.258 . S
C1011 O1027 1.239 . S
C1012 C1011 1.498 . S
C1012 C1013 1.366 . S
C1012 C1017 1.407 . S
C1013 C1012 1.366 . S
C1013 C1014 1.392 . S
C1013 H1036 0.930 . S
C1014 C1013 1.392 . S
C1014 C1015 1.398 . S
C1014 H1037 0.929 . S
C1015 C1014 1.398 . S
C1015 C1016 1.352 . S
C1016 C1015 1.352 . S
C1016 C1017 1.384 . S
C1016 H1038 0.930 . S
C1017 C1012 1.407 . S
C1017 C1016 1.384 . S
C1017 H1039 0.929 . S
C1018 O1028 1.241 . S
C1018 O1029 1.273 . S
C1019 O1030 1.251 . S
C1019 O1031 1.268 . S
O1020 Nd1000 2.500 . S
O1020 C1002 1.258 . S
O1021 Nd1000 2.492 . S
O1021 C1002 1.239 . S
O1022 Nd1000 2.487 . S
O1022 C1009 1.241 . S
O1023 Nd1000 2.682 . S
O1023 Nd1001 2.414 . S
O1023 C1009 1.273 . S
O1024 Nd1000 2.410 . S
O1024 C1010 1.251 . S
O1025 Nd1001 2.424 . S
O1025 C1010 1.268 . S
O1026 Nd1001 2.500 . S
O1026 C1011 1.258 . S
O1027 Nd1001 2.492 . S
O1027 C1011 1.239 . S
O1028 Nd1001 2.487 . S
O1028 C1018 1.241 . S
O1029 Nd1000 2.414 . S
O1029 Nd1001 2.682 . S
O1029 C1018 1.273 . S
O1030 Nd1001 2.410 . S
O1030 C1019 1.251 . S
O1031 Nd1000 2.424 . S
O1031 C1019 1.268 . S
H1032 C1004 0.930 . S
H1033 C1005 0.929 . S
H1034 C1007 0.930 . S
H1035 C1008 0.929 . S
H1036 C1013 0.930 . S
H1037 C1014 0.929 . S
H1038 C1016 0.930 . S
H1039 C1017 0.929 . S
Nd1040 C1042 2.836 . S
Nd1040 O1060 2.500 . S
Nd1040 O1061 2.492 1_455 S
Nd1040 O1062 2.487 1_455 S
Nd1040 O1063 2.682 . S
Nd1040 O1064 2.410 . S
Nd1040 O1069 2.414 . S
Nd1040 O1071 2.424 . S
Nd1041 C1051 2.836 . S
Nd1041 O1063 2.414 . S
Nd1041 O1065 2.424 . S
Nd1041 O1066 2.500 . S
Nd1041 O1067 2.492 . S
Nd1041 O1068 2.487 . S
Nd1041 O1069 2.682 . S
Nd1041 O1070 2.410 . S
C1042 Nd1040 2.836 . S
C1042 C1043 1.498 . S
C1042 O1060 1.258 . S
C1042 O1061 1.239 1_455 S
C1043 C1042 1.498 . S
C1043 C1044 1.366 . S
C1043 C1048 1.407 1_455 S
C1044 C1043 1.366 . S
C1044 C1045 1.392 1_554 S
C1044 H1072 0.930 . S
C1045 C1044 1.392 1_556 S
C1045 C1046 1.398 1_455 S
C1045 H1073 0.929 . S
C1046 C1045 1.398 1_655 S
C1046 C1047 1.352 . S
C1047 C1046 1.352 . S
C1047 C1048 1.384 1_556 S
C1047 H1074 0.930 . S
C1048 C1043 1.407 1_655 S
C1048 C1047 1.384 1_554 S
C1048 H1075 0.929 . S
C1049 O1062 1.241 1_455 S
C1049 O1063 1.273 . S
C1050 O1064 1.251 . S
C1050 O1065 1.268 . S
C1051 Nd1041 2.836 . S
C1051 C1052 1.498 . S
C1051 O1066 1.258 . S
C1051 O1067 1.239 . S
C1052 C1051 1.498 . S
C1052 C1053 1.366 . S
C1052 C1057 1.407 . S
C1053 C1052 1.366 . S
C1053 C1054 1.392 . S
C1053 H1076 0.930 . S
C1054 C1053 1.392 . S
C1054 C1055 1.398 . S
C1054 H1077 0.929 . S
C1055 C1054 1.398 . S
C1055 C1056 1.352 . S
C1056 C1055 1.352 . S
C1056 C1057 1.384 . S
C1056 H1078 0.930 . S
C1057 C1052 1.407 . S
C1057 C1056 1.384 . S
C1057 H1079 0.929 . S
C1058 O1068 1.241 . S
C1058 O1069 1.273 . S
C1059 O1070 1.251 . S
C1059 O1071 1.268 . S
O1060 Nd1040 2.500 . S
O1060 C1042 1.258 . S
O1061 Nd1040 2.492 1_655 S
O1061 C1042 1.239 1_655 S
O1062 Nd1040 2.487 1_655 S
O1062 C1049 1.241 1_655 S
O1063 Nd1040 2.682 . S
O1063 Nd1041 2.414 . S
O1063 C1049 1.273 . S
O1064 Nd1040 2.410 . S
O1064 C1050 1.251 . S
O1065 Nd1041 2.424 . S
O1065 C1050 1.268 . S
O1066 Nd1041 2.500 . S
O1066 C1051 1.258 . S
O1067 Nd1041 2.492 . S
O1067 C1051 1.239 . S
O1068 Nd1041 2.487 . S
O1068 C1058 1.241 . S
O1069 Nd1040 2.414 . S
O1069 Nd1041 2.682 . S
O1069 C1058 1.273 . S
O1070 Nd1041 2.410 . S
O1070 C1059 1.251 . S
O1071 Nd1040 2.424 . S
O1071 C1059 1.268 . S
H1072 C1044 0.930 . S
H1073 C1045 0.929 . S
H1074 C1047 0.930 . S
H1075 C1048 0.929 . S
H1076 C1053 0.930 . S
H1077 C1054 0.929 . S
H1078 C1056 0.930 . S
H1079 C1057 0.929 . S
Nd1080 C1082 2.836 . S
Nd1080 O1100 2.500 . S
Nd1080 O1101 2.492 . S
Nd1080 O1102 2.487 . S
Nd1080 O1103 2.682 . S
Nd1080 O1104 2.410 . S
Nd1080 O1109 2.414 . S
Nd1080 O1111 2.424 . S
Nd1081 C1091 2.836 1_556 S
Nd1081 O1103 2.414 . S
Nd1081 O1105 2.424 . S
Nd1081 O1106 2.500 1_556 S
Nd1081 O1107 2.492 1_556 S
Nd1081 O1108 2.487 . S
Nd1081 O1109 2.682 . S
Nd1081 O1110 2.410 1_556 S
C1082 Nd1080 2.836 . S
C1082 C1083 1.498 . S
C1082 O1100 1.258 . S
C1082 O1101 1.239 . S
C1083 C1082 1.498 . S
C1083 C1084 1.366 . S
C1083 C1088 1.407 . S
C1084 C1083 1.366 . S
C1084 C1085 1.392 . S
C1084 H1112 0.930 . S
C1085 C1084 1.392 . S
C1085 C1086 1.398 . S
C1085 H1113 0.929 . S
C1086 C1085 1.398 . S
C1086 C1087 1.352 . S
C1087 C1086 1.352 . S
C1087 C1088 1.384 . S
C1087 H1114 0.930 . S
C1088 C1083 1.407 . S
C1088 C1087 1.384 . S
C1088 H1115 0.929 . S
C1089 O1102 1.241 . S
C1089 O1103 1.273 . S
C1090 O1104 1.251 . S
C1090 O1105 1.268 . S
C1091 Nd1081 2.836 1_554 S
C1091 C1092 1.498 . S
C1091 O1106 1.258 . S
C1091 O1107 1.239 . S
C1092 C1091 1.498 . S
C1092 C1093 1.366 . S
C1092 C1097 1.407 . S
C1093 C1092 1.366 . S
C1093 C1094 1.392 . S
C1093 H1116 0.930 . S
C1094 C1093 1.392 . S
C1094 C1095 1.398 . S
C1094 H1117 0.929 . S
C1095 C1094 1.398 . S
C1095 C1096 1.352 . S
C1096 C1095 1.352 . S
C1096 C1097 1.384 . S
C1096 H1118 0.930 . S
C1097 C1092 1.407 . S
C1097 C1096 1.384 . S
C1097 H1119 0.929 . S
C1098 O1108 1.241 . S
C1098 O1109 1.273 . S
C1099 O1110 1.251 . S
C1099 O1111 1.268 1_554 S
O1100 Nd1080 2.500 . S
O1100 C1082 1.258 . S
O1101 Nd1080 2.492 . S
O1101 C1082 1.239 . S
O1102 Nd1080 2.487 . S
O1102 C1089 1.241 . S
O1103 Nd1080 2.682 . S
O1103 Nd1081 2.414 . S
O1103 C1089 1.273 . S
O1104 Nd1080 2.410 . S
O1104 C1090 1.251 . S
O1105 Nd1081 2.424 . S
O1105 C1090 1.268 . S
O1106 Nd1081 2.500 1_554 S
O1106 C1091 1.258 . S
O1107 Nd1081 2.492 1_554 S
O1107 C1091 1.239 . S
O1108 Nd1081 2.487 . S
O1108 C1098 1.241 . S
O1109 Nd1080 2.414 . S
O1109 Nd1081 2.682 . S
O1109 C1098 1.273 . S
O1110 Nd1081 2.410 1_554 S
O1110 C1099 1.251 . S
O1111 Nd1080 2.424 . S
O1111 C1099 1.268 1_556 S
H1112 C1084 0.930 . S
H1113 C1085 0.929 . S
H1114 C1087 0.930 . S
H1115 C1088 0.929 . S
H1116 C1093 0.930 . S
H1117 C1094 0.929 . S
H1118 C1096 0.930 . S
H1119 C1097 0.929 . S
Nd1120 C1122 2.836 . S
Nd1120 O1140 2.500 . S
Nd1120 O1141 2.492 . S
Nd1120 O1142 2.487 . S
Nd1120 O1143 2.682 . S
Nd1120 O1144 2.410 . S
Nd1120 O1149 2.414 . S
Nd1120 O1151 2.424 . S
Nd1121 C1131 2.836 1_565 S
Nd1121 O1143 2.414 . S
Nd1121 O1145 2.424 . S
Nd1121 O1146 2.500 . S
Nd1121 O1147 2.492 1_565 S
Nd1121 O1148 2.487 1_565 S
Nd1121 O1149 2.682 . S
Nd1121 O1150 2.410 . S
C1122 Nd1120 2.836 . S
C1122 C1123 1.498 . S
C1122 O1140 1.258 . S
C1122 O1141 1.239 . S
C1123 C1122 1.498 . S
C1123 C1124 1.366 . S
C1123 C1128 1.407 . S
C1124 C1123 1.366 . S
C1124 C1125 1.392 . S
C1124 H1152 0.930 . S
C1125 C1124 1.392 . S
C1125 C1126 1.398 1_554 S
C1125 H1153 0.929 1_554 S
C1126 C1125 1.398 1_556 S
C1126 C1127 1.352 1_556 S
C1127 C1126 1.352 1_554 S
C1127 C1128 1.384 . S
C1127 H1154 0.930 . S
C1128 C1123 1.407 . S
C1128 C1127 1.384 . S
C1128 H1155 0.929 . S
C1129 O1142 1.241 . S
C1129 O1143 1.273 . S
C1130 O1144 1.251 . S
C1130 O1145 1.268 . S
C1131 Nd1121 2.836 1_545 S
C1131 C1132 1.498 . S
C1131 O1146 1.258 1_545 S
C1131 O1147 1.239 . S
C1132 C1131 1.498 . S
C1132 C1133 1.366 . S
C1132 C1137 1.407 . S
C1133 C1132 1.366 . S
C1133 C1134 1.392 . S
C1133 H1156 0.930 1_545 S
C1134 C1133 1.392 . S
C1134 C1135 1.398 . S
C1134 H1157 0.929 . S
C1135 C1134 1.398 . S
C1135 C1136 1.352 . S
C1136 C1135 1.352 . S
C1136 C1137 1.384 . S
C1136 H1158 0.930 . S
C1137 C1132 1.407 . S
C1137 C1136 1.384 . S
C1137 H1159 0.929 . S
C1138 O1148 1.241 . S
C1138 O1149 1.273 1_545 S
C1139 O1150 1.251 . S
C1139 O1151 1.268 . S
O1140 Nd1120 2.500 . S
O1140 C1122 1.258 . S
O1141 Nd1120 2.492 . S
O1141 C1122 1.239 . S
O1142 Nd1120 2.487 . S
O1142 C1129 1.241 . S
O1143 Nd1120 2.682 . S
O1143 Nd1121 2.414 . S
O1143 C1129 1.273 . S
O1144 Nd1120 2.410 . S
O1144 C1130 1.251 . S
O1145 Nd1121 2.424 . S
O1145 C1130 1.268 . S
O1146 Nd1121 2.500 . S
O1146 C1131 1.258 1_565 S
O1147 Nd1121 2.492 1_545 S
O1147 C1131 1.239 . S
O1148 Nd1121 2.487 1_545 S
O1148 C1138 1.241 . S
O1149 Nd1120 2.414 . S
O1149 Nd1121 2.682 . S
O1149 C1138 1.273 1_565 S
O1150 Nd1121 2.410 . S
O1150 C1139 1.251 . S
O1151 Nd1120 2.424 . S
O1151 C1139 1.268 . S
H1152 C1124 0.930 . S
H1153 C1125 0.929 1_556 S
H1154 C1127 0.930 . S
H1155 C1128 0.929 . S
H1156 C1133 0.930 1_565 S
H1157 C1134 0.929 . S
H1158 C1136 0.930 . S
H1159 C1137 0.929 . S
Nd1160 C1162 2.836 . S
Nd1160 O1180 2.500 . S
Nd1160 O1181 2.492 . S
Nd1160 O1182 2.487 . S
Nd1160 O1183 2.682 1_556 S
Nd1160 O1184 2.410 . S
Nd1160 O1189 2.414 . S
Nd1160 O1191 2.424 1_556 S
Nd1161 C1171 2.836 . S
Nd1161 O1183 2.414 . S
Nd1161 O1185 2.424 1_554 S
Nd1161 O1186 2.500 . S
Nd1161 O1187 2.492 . S
Nd1161 O1188 2.487 . S
Nd1161 O1189 2.682 1_554 S
Nd1161 O1190 2.410 . S
C1162 Nd1160 2.836 . S
C1162 C1163 1.498 . S
C1162 O1180 1.258 . S
C1162 O1181 1.239 . S
C1163 C1162 1.498 . S
C1163 C1164 1.366 . S
C1163 C1168 1.407 . S
C1164 C1163 1.366 . S
C1164 C1165 1.392 . S
C1164 H1192 0.930 . S
C1165 C1164 1.392 . S
C1165 C1166 1.398 . S
C1165 H1193 0.929 . S
C1166 C1165 1.398 . S
C1166 C1167 1.352 . S
C1167 C1166 1.352 . S
C1167 C1168 1.384 . S
C1167 H1194 0.930 . S
C1168 C1163 1.407 . S
C1168 C1167 1.384 . S
C1168 H1195 0.929 . S
C1169 O1182 1.241 1_554 S
C1169 O1183 1.273 . S
C1170 O1184 1.251 . S
C1170 O1185 1.268 . S
C1171 Nd1161 2.836 . S
C1171 C1172 1.498 . S
C1171 O1186 1.258 . S
C1171 O1187 1.239 . S
C1172 C1171 1.498 . S
C1172 C1173 1.366 . S
C1172 C1177 1.407 . S
C1173 C1172 1.366 . S
C1173 C1174 1.392 . S
C1173 H1196 0.930 . S
C1174 C1173 1.392 . S
C1174 C1175 1.398 . S
C1174 H1197 0.929 . S
C1175 C1174 1.398 . S
C1175 C1176 1.352 . S
C1176 C1175 1.352 . S
C1176 C1177 1.384 . S
C1176 H1198 0.930 . S
C1177 C1172 1.407 . S
C1177 C1176 1.384 . S
C1177 H1199 0.929 . S
C1178 O1188 1.241 1_556 S
C1178 O1189 1.273 . S
C1179 O1190 1.251 . S
C1179 O1191 1.268 . S
O1180 Nd1160 2.500 . S
O1180 C1162 1.258 . S
O1181 Nd1160 2.492 . S
O1181 C1162 1.239 . S
O1182 Nd1160 2.487 . S
O1182 C1169 1.241 1_556 S
O1183 Nd1160 2.682 1_554 S
O1183 Nd1161 2.414 . S
O1183 C1169 1.273 . S
O1184 Nd1160 2.410 . S
O1184 C1170 1.251 . S
O1185 Nd1161 2.424 1_556 S
O1185 C1170 1.268 . S
O1186 Nd1161 2.500 . S
O1186 C1171 1.258 . S
O1187 Nd1161 2.492 . S
O1187 C1171 1.239 . S
O1188 Nd1161 2.487 . S
O1188 C1178 1.241 1_554 S
O1189 Nd1160 2.414 . S
O1189 Nd1161 2.682 1_556 S
O1189 C1178 1.273 . S
O1190 Nd1161 2.410 . S
O1190 C1179 1.251 . S
O1191 Nd1160 2.424 1_554 S
O1191 C1179 1.268 . S
H1192 C1164 0.930 . S
H1193 C1165 0.929 . S
H1194 C1167 0.930 . S
H1195 C1168 0.929 . S
H1196 C1173 0.930 . S
H1197 C1174 0.929 . S
H1198 C1176 0.930 . S
H1199 C1177 0.929 . S
Nd1200 C1202 2.836 . S
Nd1200 O1220 2.500 . S
Nd1200 O1221 2.492 . S
Nd1200 O1222 2.487 . S
Nd1200 O1223 2.682 . S
Nd1200 O1224 2.410 . S
Nd1200 O1229 2.414 . S
Nd1200 O1231 2.424 . S
Nd1201 C1211 2.836 1_545 S
Nd1201 O1223 2.414 . S
Nd1201 O1225 2.424 . S
Nd1201 O1226 2.500 . S
Nd1201 O1227 2.492 1_545 S
Nd1201 O1228 2.487 1_545 S
Nd1201 O1229 2.682 . S
Nd1201 O1230 2.410 . S
C1202 Nd1200 2.836 . S
C1202 C1203 1.498 . S
C1202 O1220 1.258 . S
C1202 O1221 1.239 . S
C1203 C1202 1.498 . S
C1203 C1204 1.366 . S
C1203 C1208 1.407 . S
C1204 C1203 1.366 . S
C1204 C1205 1.392 . S
C1204 H1232 0.930 . S
C1205 C1204 1.392 . S
C1205 C1206 1.398 . S
C1205 H1233 0.929 . S
C1206 C1205 1.398 . S
C1206 C1207 1.352 . S
C1207 C1206 1.352 . S
C1207 C1208 1.384 . S
C1207 H1234 0.930 . S
C1208 C1203 1.407 . S
C1208 C1207 1.384 . S
C1208 H1235 0.929 . S
C1209 O1222 1.241 . S
C1209 O1223 1.273 . S
C1210 O1224 1.251 . S
C1210 O1225 1.268 . S
C1211 Nd1201 2.836 1_565 S
C1211 C1212 1.498 . S
C1211 O1226 1.258 1_565 S
C1211 O1227 1.239 . S
C1212 C1211 1.498 . S
C1212 C1213 1.366 . S
C1212 C1217 1.407 . S
C1213 C1212 1.366 . S
C1213 C1214 1.392 . S
C1213 H1236 0.930 1_565 S
C1214 C1213 1.392 . S
C1214 C1215 1.398 1_556 S
C1214 H1237 0.929 1_556 S
C1215 C1214 1.398 1_554 S
C1215 C1216 1.352 1_554 S
C1216 C1215 1.352 1_556 S
C1216 C1217 1.384 . S
C1216 H1238 0.930 . S
C1217 C1212 1.407 . S
C1217 C1216 1.384 . S
C1217 H1239 0.929 . S
C1218 O1228 1.241 . S
C1218 O1229 1.273 1_565 S
C1219 O1230 1.251 . S
C1219 O1231 1.268 . S
O1220 Nd1200 2.500 . S
O1220 C1202 1.258 . S
O1221 Nd1200 2.492 . S
O1221 C1202 1.239 . S
O1222 Nd1200 2.487 . S
O1222 C1209 1.241 . S
O1223 Nd1200 2.682 . S
O1223 Nd1201 2.414 . S
O1223 C1209 1.273 . S
O1224 Nd1200 2.410 . S
O1224 C1210 1.251 . S
O1225 Nd1201 2.424 . S
O1225 C1210 1.268 . S
O1226 Nd1201 2.500 . S
O1226 C1211 1.258 1_545 S
O1227 Nd1201 2.492 1_565 S
O1227 C1211 1.239 . S
O1228 Nd1201 2.487 1_565 S
O1228 C1218 1.241 . S
O1229 Nd1200 2.414 . S
O1229 Nd1201 2.682 . S
O1229 C1218 1.273 1_545 S
O1230 Nd1201 2.410 . S
O1230 C1219 1.251 . S
O1231 Nd1200 2.424 . S
O1231 C1219 1.268 . S
H1232 C1204 0.930 . S
H1233 C1205 0.929 . S
H1234 C1207 0.930 . S
H1235 C1208 0.929 . S
H1236 C1213 0.930 1_545 S
H1237 C1214 0.929 1_554 S
H1238 C1216 0.930 . S
H1239 C1217 0.929 . S
Nd1240 C1242 2.836 . S
Nd1240 O1260 2.500 . S
Nd1240 O1261 2.492 . S
Nd1240 O1262 2.487 . S
Nd1240 O1263 2.682 . S
Nd1240 O1264 2.410 . S
Nd1240 O1269 2.414 . S
Nd1240 O1271 2.424 . S
Nd1241 C1251 2.836 . S
Nd1241 O1263 2.414 . S
Nd1241 O1265 2.424 . S
Nd1241 O1266 2.500 . S
Nd1241 O1267 2.492 . S
Nd1241 O1268 2.487 . S
Nd1241 O1269 2.682 . S
Nd1241 O1270 2.410 . S
C1242 Nd1240 2.836 . S
C1242 C1243 1.498 . S
C1242 O1260 1.258 . S
C1242 O1261 1.239 . S
C1243 C1242 1.498 . S
C1243 C1244 1.366 . S
C1243 C1248 1.407 . S
C1244 C1243 1.366 . S
C1244 C1245 1.392 . S
C1244 H1272 0.930 . S
C1245 C1244 1.392 . S
C1245 C1246 1.398 . S
C1245 H1273 0.929 . S
C1246 C1245 1.398 . S
C1246 C1247 1.352 . S
C1247 C1246 1.352 . S
C1247 C1248 1.384 . S
C1247 H1274 0.930 . S
C1248 C1243 1.407 . S
C1248 C1247 1.384 . S
C1248 H1275 0.929 . S
C1249 O1262 1.241 . S
C1249 O1263 1.273 . S
C1250 O1264 1.251 . S
C1250 O1265 1.268 . S
C1251 Nd1241 2.836 . S
C1251 C1252 1.498 . S
C1251 O1266 1.258 . S
C1251 O1267 1.239 . S
C1252 C1251 1.498 . S
C1252 C1253 1.366 . S
C1252 C1257 1.407 . S
C1253 C1252 1.366 . S
C1253 C1254 1.392 . S
C1253 H1276 0.930 . S
C1254 C1253 1.392 . S
C1254 C1255 1.398 . S
C1254 H1277 0.929 . S
C1255 C1254 1.398 . S
C1255 C1256 1.352 . S
C1256 C1255 1.352 . S
C1256 C1257 1.384 . S
C1256 H1278 0.930 . S
C1257 C1252 1.407 . S
C1257 C1256 1.384 . S
C1257 H1279 0.929 . S
C1258 O1268 1.241 . S
C1258 O1269 1.273 . S
C1259 O1270 1.251 . S
C1259 O1271 1.268 . S
O1260 Nd1240 2.500 . S
O1260 C1242 1.258 . S
O1261 Nd1240 2.492 . S
O1261 C1242 1.239 . S
O1262 Nd1240 2.487 . S
O1262 C1249 1.241 . S
O1263 Nd1240 2.682 . S
O1263 Nd1241 2.414 . S
O1263 C1249 1.273 . S
O1264 Nd1240 2.410 . S
O1264 C1250 1.251 . S
O1265 Nd1241 2.424 . S
O1265 C1250 1.268 . S
O1266 Nd1241 2.500 . S
O1266 C1251 1.258 . S
O1267 Nd1241 2.492 . S
O1267 C1251 1.239 . S
O1268 Nd1241 2.487 . S
O1268 C1258 1.241 . S
O1269 Nd1240 2.414 . S
O1269 Nd1241 2.682 . S
O1269 C1258 1.273 . S
O1270 Nd1241 2.410 . S
O1270 C1259 1.251 . S
O1271 Nd1240 2.424 . S
O1271 C1259 1.268 . S
H1272 C1244 0.930 . S
H1273 C1245 0.929 . S
H1274 C1247 0.930 . S
H1275 C1248 0.929 . S
H1276 C1253 0.930 . S
H1277 C1254 0.929 . S
H1278 C1256 0.930 . S
H1279 C1257 0.929 . S
C1280 C1281 1.387 . S
C1280 H1284 0.950 . S
C1280 C1289 1.390 . S
C1281 C1280 1.387 . S
C1281 C1283 1.387 . S
H1282 C1289 0.950 . S
C1283 C1281 1.387 . S
C1283 C1285 1.390 . S
C1283 H1287 0.950 . S
H1284 C1280 0.950 . S
C1285 C1283 1.390 . S
C1285 C1286 1.387 . S
C1285 H1288 0.950 . S
C1286 C1285 1.387 . S
C1286 C1289 1.387 . S
H1287 C1283 0.950 . S
H1288 C1285 0.950 . S
C1289 C1280 1.390 . S
C1289 H1282 0.950 . S
C1289 C1286 1.387 . S
C1290 C1291 1.387 . S
C1290 H1294 0.950 . S
C1290 C1299 1.390 . S
C1291 C1290 1.387 . S
C1291 C1293 1.387 . S
H1292 C1299 0.950 . S
C1293 C1291 1.387 . S
C1293 C1295 1.390 . S
C1293 H1297 0.950 . S
H1294 C1290 0.950 . S
C1295 C1293 1.390 . S
C1295 C1296 1.387 . S
C1295 H1298 0.950 . S
C1296 C1295 1.387 . S
C1296 C1299 1.387 . S
H1297 C1293 0.950 . S
H1298 C1295 0.950 . S
C1299 C1290 1.390 . S
C1299 H1292 0.950 . S
C1299 C1296 1.387 . S
C1300 C1301 1.387 . S
C1300 H1304 0.950 . S
C1300 C1309 1.390 . S
C1301 C1300 1.387 . S
C1301 C1303 1.387 . S
H1302 C1309 0.950 . S
C1303 C1301 1.387 . S
C1303 C1305 1.390 . S
C1303 H1307 0.950 . S
H1304 C1300 0.950 . S
C1305 C1303 1.390 . S
C1305 C1306 1.387 . S
C1305 H1308 0.950 . S
C1306 C1305 1.387 . S
C1306 C1309 1.387 . S
H1307 C1303 0.950 . S
H1308 C1305 0.950 . S
C1309 C1300 1.390 . S
C1309 H1302 0.950 . S
C1309 C1306 1.387 . S
C1310 C1311 1.387 . S
C1310 H1314 0.950 . S
C1310 C1319 1.390 1_554 S
C1311 C1310 1.387 . S
C1311 C1313 1.387 1_554 S
H1312 C1319 0.950 . S
C1313 C1311 1.387 1_556 S
C1313 C1315 1.390 . S
C1313 H1317 0.952 . S
H1314 C1310 0.950 . S
C1315 C1313 1.390 . S
C1315 C1316 1.387 . S
C1315 H1318 0.950 . S
C1316 C1315 1.387 . S
C1316 C1319 1.387 . S
H1317 C1313 0.952 . S
H1318 C1315 0.950 . S
C1319 C1310 1.390 1_556 S
C1319 H1312 0.950 . S
C1319 C1316 1.387 . S
C1320 C1321 1.387 . S
C1320 H1324 0.950 . S
C1320 C1329 1.390 . S
C1321 C1320 1.387 . S
C1321 C1323 1.387 . S
H1322 C1329 0.950 . S
C1323 C1321 1.387 . S
C1323 C1325 1.390 . S
C1323 H1327 0.950 . S
H1324 C1320 0.950 . S
C1325 C1323 1.390 . S
C1325 C1326 1.387 . S
C1325 H1328 0.950 . S
C1326 C1325 1.387 . S
C1326 C1329 1.387 . S
H1327 C1323 0.950 . S
H1328 C1325 0.950 . S
C1329 C1320 1.390 . S
C1329 H1322 0.950 . S
C1329 C1326 1.387 . S
C1330 C1331 1.387 . S
C1330 H1334 0.950 . S
C1330 C1339 1.390 . S
C1331 C1330 1.387 . S
C1331 C1333 1.387 . S
H1332 C1339 0.950 . S
C1333 C1331 1.387 . S
C1333 C1335 1.390 . S
C1333 H1337 0.950 . S
H1334 C1330 0.950 . S
C1335 C1333 1.390 . S
C1335 C1336 1.387 . S
C1335 H1338 0.950 . S
C1336 C1335 1.387 . S
C1336 C1339 1.387 . S
H1337 C1333 0.950 . S
H1338 C1335 0.950 . S
C1339 C1330 1.390 . S
C1339 H1332 0.950 . S
C1339 C1336 1.387 . S
C1340 C1341 1.387 . S
C1340 H1344 0.950 . S
C1340 C1349 1.390 . S
C1341 C1340 1.387 . S
C1341 C1343 1.387 . S
H1342 C1349 0.950 . S
C1343 C1341 1.387 . S
C1343 C1345 1.390 . S
C1343 H1347 0.950 . S
H1344 C1340 0.950 . S
C1345 C1343 1.390 . S
C1345 C1346 1.387 . S
C1345 H1348 0.950 . S
C1346 C1345 1.387 . S
C1346 C1349 1.387 . S
H1347 C1343 0.950 . S
H1348 C1345 0.950 . S
C1349 C1340 1.390 . S
C1349 H1342 0.950 . S
C1349 C1346 1.387 . S
C1350 C1351 1.387 . S
C1350 H1354 0.950 . S
C1350 C1359 1.390 . S
C1351 C1350 1.387 . S
C1351 C1353 1.387 . S
H1352 C1359 0.950 . S
C1353 C1351 1.387 . S
C1353 C1355 1.390 . S
C1353 H1357 0.950 . S
H1354 C1350 0.950 . S
C1355 C1353 1.390 . S
C1355 C1356 1.387 . S
C1355 H1358 0.950 . S
C1356 C1355 1.387 . S
C1356 C1359 1.387 . S
H1357 C1353 0.950 . S
H1358 C1355 0.950 . S
C1359 C1350 1.390 . S
C1359 H1352 0.950 . S
C1359 C1356 1.387 . S
C1360 C1361 1.387 . S
C1360 H1364 0.950 . S
C1360 C1369 1.390 . S
C1361 C1360 1.387 . S
C1361 C1363 1.387 . S
H1362 C1369 0.950 . S
C1363 C1361 1.387 . S
C1363 C1365 1.390 . S
C1363 H1367 0.950 . S
H1364 C1360 0.950 . S
C1365 C1363 1.390 . S
C1365 C1366 1.387 . S
C1365 H1368 0.950 . S
C1366 C1365 1.387 . S
C1366 C1369 1.387 . S
H1367 C1363 0.950 . S
H1368 C1365 0.950 . S
C1369 C1360 1.390 . S
C1369 H1362 0.950 . S
C1369 C1366 1.387 . S
C1370 C1371 1.387 . S
C1370 H1374 0.950 . S
C1370 C1379 1.390 . S
C1371 C1370 1.387 . S
C1371 C1373 1.387 . S
H1372 C1379 0.954 . S
C1373 C1371 1.387 . S
C1373 C1375 1.390 1_556 S
C1373 H1377 0.950 . S
H1374 C1370 0.950 . S
C1375 C1373 1.390 1_554 S
C1375 C1376 1.387 . S
C1375 H1378 0.950 . S
C1376 C1375 1.387 . S
C1376 C1379 1.387 1_554 S
H1377 C1373 0.950 . S
H1378 C1375 0.950 . S
C1379 C1370 1.390 . S
C1379 H1372 0.954 . S
C1379 C1376 1.387 1_556 S
C1380 C1381 1.387 . S
C1380 H1384 0.950 . S
C1380 C1389 1.390 . S
C1381 C1380 1.387 . S
C1381 C1383 1.387 . S
H1382 C1389 0.950 . S
C1383 C1381 1.387 . S
C1383 C1385 1.390 . S
C1383 H1387 0.950 . S
H1384 C1380 0.950 . S
C1385 C1383 1.390 . S
C1385 C1386 1.387 . S
C1385 H1388 0.950 . S
C1386 C1385 1.387 . S
C1386 C1389 1.387 . S
H1387 C1383 0.950 . S
H1388 C1385 0.950 . S
C1389 C1380 1.390 . S
C1389 H1382 0.950 . S
C1389 C1386 1.387 . S
C1390 C1391 1.387 . S
C1390 H1394 0.950 . S
C1390 C1399 1.390 . S
C1391 C1390 1.387 . S
C1391 C1393 1.387 . S
H1392 C1399 0.950 . S
C1393 C1391 1.387 . S
C1393 C1395 1.390 . S
C1393 H1397 0.950 . S
H1394 C1390 0.950 . S
C1395 C1393 1.390 . S
C1395 C1396 1.387 . S
C1395 H1398 0.950 . S
C1396 C1395 1.387 . S
C1396 C1399 1.387 . S
H1397 C1393 0.950 . S
H1398 C1395 0.950 . S
C1399 C1390 1.390 . S
C1399 H1392 0.950 . S
C1399 C1396 1.387 . S
C1400 C1401 1.387 . S
C1400 H1404 0.950 . S
C1400 C1409 1.390 . S
C1401 C1400 1.387 . S
C1401 C1403 1.387 . S
H1402 C1409 0.950 . S
C1403 C1401 1.387 . S
C1403 C1405 1.390 . S
C1403 H1407 0.950 . S
H1404 C1400 0.950 . S
C1405 C1403 1.390 . S
C1405 C1406 1.387 . S
C1405 H1408 0.950 . S
C1406 C1405 1.387 . S
C1406 C1409 1.387 . S
H1407 C1403 0.950 . S
H1408 C1405 0.950 . S
C1409 C1400 1.390 . S
C1409 H1402 0.950 . S
C1409 C1406 1.387 . S
C1410 C1411 1.387 . S
C1410 H1414 0.950 . S
C1410 C1419 1.390 . S
C1411 C1410 1.387 . S
C1411 C1413 1.387 . S
H1412 C1419 0.950 . S
C1413 C1411 1.387 . S
C1413 C1415 1.390 . S
C1413 H1417 0.950 . S
H1414 C1410 0.950 . S
C1415 C1413 1.390 . S
C1415 C1416 1.387 . S
C1415 H1418 0.950 . S
C1416 C1415 1.387 . S
C1416 C1419 1.387 . S
H1417 C1413 0.950 . S
H1418 C1415 0.950 . S
C1419 C1410 1.390 . S
C1419 H1412 0.950 . S
C1419 C1416 1.387 . S
C1420 C1421 1.387 . S
C1420 H1424 0.950 . S
C1420 C1429 1.390 . S
C1421 C1420 1.387 . S
C1421 C1423 1.387 . S
H1422 C1429 0.950 . S
C1423 C1421 1.387 . S
C1423 C1425 1.390 . S
C1423 H1427 0.950 . S
H1424 C1420 0.950 . S
C1425 C1423 1.390 . S
C1425 C1426 1.387 . S
C1425 H1428 0.950 . S
C1426 C1425 1.387 . S
C1426 C1429 1.387 . S
H1427 C1423 0.950 . S
H1428 C1425 0.950 . S
C1429 C1420 1.390 . S
C1429 H1422 0.950 . S
C1429 C1426 1.387 . S
C1430 C1431 1.387 . S
C1430 H1434 0.950 . S
C1430 C1439 1.390 . S
C1431 C1430 1.387 . S
C1431 C1433 1.387 . S
H1432 C1439 0.950 . S
C1433 C1431 1.387 . S
C1433 C1435 1.390 . S
C1433 H1437 0.950 . S
H1434 C1430 0.950 . S
C1435 C1433 1.390 . S
C1435 C1436 1.387 . S
C1435 H1438 0.950 . S
C1436 C1435 1.387 . S
C1436 C1439 1.387 . S
H1437 C1433 0.950 . S
H1438 C1435 0.950 . S
C1439 C1430 1.390 . S
C1439 H1432 0.950 . S
C1439 C1436 1.387 . S
C1440 C1441 1.387 . S
C1440 H1444 0.950 . S
C1440 C1449 1.390 . S
C1441 C1440 1.387 . S
C1441 C1443 1.387 . S
H1442 C1449 0.950 . S
C1443 C1441 1.387 . S
C1443 C1445 1.390 . S
C1443 H1447 0.950 . S
H1444 C1440 0.950 . S
C1445 C1443 1.390 . S
C1445 C1446 1.387 . S
C1445 H1448 0.950 . S
C1446 C1445 1.387 . S
C1446 C1449 1.387 . S
H1447 C1443 0.950 . S
H1448 C1445 0.950 . S
C1449 C1440 1.390 . S
C1449 H1442 0.950 . S
C1449 C1446 1.387 . S
C1450 C1451 1.387 . S
C1450 H1454 0.950 . S
C1450 C1459 1.390 . S
C1451 C1450 1.387 . S
C1451 C1453 1.387 . S
H1452 C1459 0.950 . S
C1453 C1451 1.387 . S
C1453 C1455 1.390 . S
C1453 H1457 0.950 . S
H1454 C1450 0.950 . S
C1455 C1453 1.390 . S
C1455 C1456 1.387 . S
C1455 H1458 0.950 . S
C1456 C1455 1.387 . S
C1456 C1459 1.387 . S
H1457 C1453 0.950 . S
H1458 C1455 0.950 . S
C1459 C1450 1.390 . S
C1459 H1452 0.950 . S
C1459 C1456 1.387 . S
C1460 C1461 1.387 . S
C1460 H1464 0.950 . S
C1460 C1469 1.390 . S
C1461 C1460 1.387 . S
C1461 C1463 1.387 . S
H1462 C1469 0.950 . S
C1463 C1461 1.387 . S
C1463 C1465 1.390 . S
C1463 H1467 0.950 . S
H1464 C1460 0.950 . S
C1465 C1463 1.390 . S
C1465 C1466 1.387 . S
C1465 H1468 0.950 . S
C1466 C1465 1.387 . S
C1466 C1469 1.387 . S
H1467 C1463 0.950 . S
H1468 C1465 0.950 . S
C1469 C1460 1.390 . S
C1469 H1462 0.950 . S
C1469 C1466 1.387 . S
C1470 C1471 1.387 . S
C1470 H1474 0.950 . S
C1470 C1479 1.390 . S
C1471 C1470 1.387 . S
C1471 C1473 1.387 . S
H1472 C1479 0.950 . S
C1473 C1471 1.387 . S
C1473 C1475 1.390 . S
C1473 H1477 0.950 . S
H1474 C1470 0.950 . S
C1475 C1473 1.390 . S
C1475 C1476 1.387 . S
C1475 H1478 0.950 1_556 S
C1476 C1475 1.387 . S
C1476 C1479 1.387 . S
H1477 C1473 0.950 . S
H1478 C1475 0.950 1_554 S
C1479 C1470 1.390 . S
C1479 H1472 0.950 . S
C1479 C1476 1.387 . S
C1480 C1481 1.387 . S
C1480 H1484 0.950 . S
C1480 C1489 1.390 . S
C1481 C1480 1.387 . S
C1481 C1483 1.387 . S
H1482 C1489 0.950 . S
C1483 C1481 1.387 . S
C1483 C1485 1.390 . S
C1483 H1487 0.950 . S
H1484 C1480 0.950 . S
C1485 C1483 1.390 . S
C1485 C1486 1.387 . S
C1485 H1488 0.950 . S
C1486 C1485 1.387 . S
C1486 C1489 1.387 . S
H1487 C1483 0.950 . S
H1488 C1485 0.950 . S
C1489 C1480 1.390 . S
C1489 H1482 0.950 . S
C1489 C1486 1.387 . S
C1490 C1491 1.387 . S
C1490 H1494 0.950 . S
C1490 C1499 1.390 . S
C1491 C1490 1.387 . S
C1491 C1493 1.387 . S
H1492 C1499 0.950 . S
C1493 C1491 1.387 . S
C1493 C1495 1.390 . S
C1493 H1497 0.950 . S
H1494 C1490 0.950 . S
C1495 C1493 1.390 . S
C1495 C1496 1.387 . S
C1495 H1498 0.950 . S
C1496 C1495 1.387 . S
C1496 C1499 1.387 . S
H1497 C1493 0.950 . S
H1498 C1495 0.950 . S
C1499 C1490 1.390 . S
C1499 H1492 0.950 . S
C1499 C1496 1.387 . S
C1500 C1501 1.387 . S
C1500 H1504 0.950 1_556 S
C1500 C1509 1.390 . S
C1501 C1500 1.387 . S
C1501 C1503 1.387 . S
H1502 C1509 0.950 . S
C1503 C1501 1.387 . S
C1503 C1505 1.390 . S
C1503 H1507 0.950 . S
H1504 C1500 0.950 1_554 S
C1505 C1503 1.390 . S
C1505 C1506 1.387 . S
C1505 H1508 0.950 . S
C1506 C1505 1.387 . S
C1506 C1509 1.387 . S
H1507 C1503 0.950 . S
H1508 C1505 0.950 . S
C1509 C1500 1.390 . S
C1509 H1502 0.950 . S
C1509 C1506 1.387 . S
C1510 C1511 1.387 . S
C1510 H1514 0.950 . S
C1510 C1519 1.390 . S
C1511 C1510 1.387 . S
C1511 C1513 1.387 . S
H1512 C1519 0.950 . S
C1513 C1511 1.387 . S
C1513 C1515 1.390 . S
C1513 H1517 0.950 . S
H1514 C1510 0.950 . S
C1515 C1513 1.390 . S
C1515 C1516 1.387 . S
C1515 H1518 0.950 . S
C1516 C1515 1.387 . S
C1516 C1519 1.387 . S
H1517 C1513 0.950 . S
H1518 C1515 0.950 . S
C1519 C1510 1.390 . S
C1519 H1512 0.950 . S
C1519 C1516 1.387 . S
C1520 C1521 1.387 . S
C1520 H1524 0.950 . S
C1520 C1529 1.390 . S
C1521 C1520 1.387 . S
C1521 C1523 1.387 . S
H1522 C1529 0.950 . S
C1523 C1521 1.387 . S
C1523 C1525 1.390 . S
C1523 H1527 0.950 . S
H1524 C1520 0.950 . S
C1525 C1523 1.390 . S
C1525 C1526 1.387 . S
C1525 H1528 0.950 . S
C1526 C1525 1.387 . S
C1526 C1529 1.387 . S
H1527 C1523 0.950 . S
H1528 C1525 0.950 . S
C1529 C1520 1.390 . S
C1529 H1522 0.950 . S
C1529 C1526 1.387 . S
C1530 C1531 1.387 . S
C1530 H1534 0.950 . S
C1530 C1539 1.390 . S
C1531 C1530 1.387 . S
C1531 C1533 1.387 . S
H1532 C1539 0.950 . S
C1533 C1531 1.387 . S
C1533 C1535 1.390 . S
C1533 H1537 0.950 . S
H1534 C1530 0.950 . S
C1535 C1533 1.390 . S
C1535 C1536 1.387 . S
C1535 H1538 0.950 . S
C1536 C1535 1.387 . S
C1536 C1539 1.387 . S
H1537 C1533 0.950 . S
H1538 C1535 0.950 . S
C1539 C1530 1.390 . S
C1539 H1532 0.950 . S
C1539 C1536 1.387 . S
C1540 C1541 1.387 . S
C1540 H1544 0.950 . S
C1540 C1549 1.390 . S
C1541 C1540 1.387 . S
C1541 C1543 1.387 . S
H1542 C1549 0.950 . S
C1543 C1541 1.387 . S
C1543 C1545 1.390 . S
C1543 H1547 0.950 . S
H1544 C1540 0.950 . S
C1545 C1543 1.390 . S
C1545 C1546 1.387 . S
C1545 H1548 0.950 . S
C1546 C1545 1.387 . S
C1546 C1549 1.387 . S
H1547 C1543 0.950 . S
H1548 C1545 0.950 . S
C1549 C1540 1.390 . S
C1549 H1542 0.950 . S
C1549 C1546 1.387 . S
C1550 C1551 1.387 . S
C1550 H1554 0.950 . S
C1550 C1559 1.390 . S
C1551 C1550 1.387 . S
C1551 C1553 1.387 . S
H1552 C1559 0.950 . S
C1553 C1551 1.387 . S
C1553 C1555 1.390 . S
C1553 H1557 0.950 . S
H1554 C1550 0.950 . S
C1555 C1553 1.390 . S
C1555 C1556 1.387 . S
C1555 H1558 0.950 . S
C1556 C1555 1.387 . S
C1556 C1559 1.387 . S
H1557 C1553 0.950 . S
H1558 C1555 0.950 . S
C1559 C1550 1.390 . S
C1559 H1552 0.950 . S
C1559 C1556 1.387 . S
C1560 C1561 1.387 . S
C1560 H1564 0.950 . S
C1560 C1569 1.390 . S
C1561 C1560 1.387 . S
C1561 C1563 1.387 . S
H1562 C1569 0.950 . S
C1563 C1561 1.387 . S
C1563 C1565 1.390 . S
C1563 H1567 0.950 . S
H1564 C1560 0.950 . S
C1565 C1563 1.390 . S
C1565 C1566 1.387 . S
C1565 H1568 0.950 . S
C1566 C1565 1.387 . S
C1566 C1569 1.387 . S
H1567 C1563 0.950 . S
H1568 C1565 0.950 . S
C1569 C1560 1.390 . S
C1569 H1562 0.950 . S
C1569 C1566 1.387 . S
C1570 C1571 1.387 . S
C1570 H1574 0.950 . S
C1570 C1579 1.390 . S
C1571 C1570 1.387 . S
C1571 C1573 1.387 . S
H1572 C1579 0.950 . S
C1573 C1571 1.387 . S
C1573 C1575 1.390 . S
C1573 H1577 0.950 . S
H1574 C1570 0.950 . S
C1575 C1573 1.390 . S
C1575 C1576 1.387 . S
C1575 H1578 0.950 . S
C1576 C1575 1.387 . S
C1576 C1579 1.387 . S
H1577 C1573 0.950 . S
H1578 C1575 0.950 . S
C1579 C1570 1.390 . S
C1579 H1572 0.950 . S
C1579 C1576 1.387 . S
C1580 C1581 1.387 . S
C1580 H1584 0.950 . S
C1580 C1589 1.390 . S
C1581 C1580 1.387 . S
C1581 C1583 1.387 . S
H1582 C1589 0.950 . S
C1583 C1581 1.387 . S
C1583 C1585 1.390 . S
C1583 H1587 0.950 . S
H1584 C1580 0.950 . S
C1585 C1583 1.390 . S
C1585 C1586 1.387 . S
C1585 H1588 0.950 . S
C1586 C1585 1.387 . S
C1586 C1589 1.387 . S
H1587 C1583 0.950 . S
H1588 C1585 0.950 . S
C1589 C1580 1.390 . S
C1589 H1582 0.950 . S
C1589 C1586 1.387 . S
C1590 C1591 1.387 . S
C1590 H1594 0.950 . S
C1590 C1599 1.390 . S
C1591 C1590 1.387 . S
C1591 C1593 1.387 . S
H1592 C1599 0.950 . S
C1593 C1591 1.387 . S
C1593 C1595 1.390 . S
C1593 H1597 0.950 . S
H1594 C1590 0.950 . S
C1595 C1593 1.390 . S
C1595 C1596 1.387 . S
C1595 H1598 0.950 . S
C1596 C1595 1.387 . S
C1596 C1599 1.387 . S
H1597 C1593 0.950 . S
H1598 C1595 0.950 . S
C1599 C1590 1.390 . S
C1599 H1592 0.950 . S
C1599 C1596 1.387 . S
C1600 C1601 1.387 1_455 S
C1600 H1604 0.950 . S
C1600 C1609 1.390 . S
C1601 C1600 1.387 1_655 S
C1601 C1603 1.387 . S
H1602 C1609 0.950 . S
C1603 C1601 1.387 . S
C1603 C1605 1.390 . S
C1603 H1607 0.950 . S
H1604 C1600 0.950 . S
C1605 C1603 1.390 . S
C1605 C1606 1.387 1_655 S
C1605 H1608 0.950 . S
C1606 C1605 1.387 1_455 S
C1606 C1609 1.387 . S
H1607 C1603 0.950 . S
H1608 C1605 0.950 . S
C1609 C1600 1.390 . S
C1609 H1602 0.950 . S
C1609 C1606 1.387 . S
C1610 C1611 1.387 . S
C1610 H1614 0.950 . S
C1610 C1619 1.390 . S
C1611 C1610 1.387 . S
C1611 C1613 1.387 . S
H1612 C1619 0.950 . S
C1613 C1611 1.387 . S
C1613 C1615 1.390 . S
C1613 H1617 0.950 . S
H1614 C1610 0.950 . S
C1615 C1613 1.390 . S
C1615 C1616 1.387 . S
C1615 H1618 0.950 . S
C1616 C1615 1.387 . S
C1616 C1619 1.387 . S
H1617 C1613 0.950 . S
H1618 C1615 0.950 . S
C1619 C1610 1.390 . S
C1619 H1612 0.950 . S
C1619 C1616 1.387 . S
C1620 C1621 1.387 . S
C1620 H1624 0.950 . S
C1620 C1629 1.390 . S
C1621 C1620 1.387 . S
C1621 C1623 1.387 . S
H1622 C1629 0.950 . S
C1623 C1621 1.387 . S
C1623 C1625 1.390 . S
C1623 H1627 0.950 . S
H1624 C1620 0.950 . S
C1625 C1623 1.390 . S
C1625 C1626 1.387 . S
C1625 H1628 0.950 . S
C1626 C1625 1.387 . S
C1626 C1629 1.387 . S
H1627 C1623 0.950 . S
H1628 C1625 0.950 . S
C1629 C1620 1.390 . S
C1629 H1622 0.950 . S
C1629 C1626 1.387 . S
C1630 C1631 1.387 . S
C1630 H1634 0.950 . S
C1630 C1639 1.390 . S
C1631 C1630 1.387 . S
C1631 C1633 1.387 . S
H1632 C1639 0.950 . S
C1633 C1631 1.387 . S
C1633 C1635 1.390 . S
C1633 H1637 0.950 . S
H1634 C1630 0.950 . S
C1635 C1633 1.390 . S
C1635 C1636 1.387 . S
C1635 H1638 0.950 . S
C1636 C1635 1.387 . S
C1636 C1639 1.387 . S
H1637 C1633 0.950 . S
H1638 C1635 0.950 . S
C1639 C1630 1.390 . S
C1639 H1632 0.950 . S
C1639 C1636 1.387 . S
C1640 C1641 1.387 . S
C1640 H1644 0.950 . S
C1640 C1649 1.390 1_655 S
C1641 C1640 1.387 . S
C1641 C1643 1.387 . S
H1642 C1649 0.950 . S
C1643 C1641 1.387 . S
C1643 C1645 1.390 1_655 S
C1643 H1647 0.950 . S
H1644 C1640 0.950 . S
C1645 C1643 1.390 1_455 S
C1645 C1646 1.387 . S
C1645 H1648 0.950 . S
C1646 C1645 1.387 . S
C1646 C1649 1.387 . S
H1647 C1643 0.950 . S
H1648 C1645 0.950 . S
C1649 C1640 1.390 1_455 S
C1649 H1642 0.950 . S
C1649 C1646 1.387 . S
C1650 C1651 1.387 . S
C1650 H1654 0.950 . S
C1650 C1659 1.390 . S
C1651 C1650 1.387 . S
C1651 C1653 1.387 . S
H1652 C1659 0.950 . S
C1653 C1651 1.387 . S
C1653 C1655 1.390 . S
C1653 H1657 0.950 . S
H1654 C1650 0.950 . S
C1655 C1653 1.390 . S
C1655 C1656 1.387 . S
C1655 H1658 0.950 . S
C1656 C1655 1.387 . S
C1656 C1659 1.387 . S
H1657 C1653 0.950 . S
H1658 C1655 0.950 . S
C1659 C1650 1.390 . S
C1659 H1652 0.950 . S
C1659 C1656 1.387 . S
C1660 C1661 1.387 . S
C1660 H1664 0.950 . S
C1660 C1669 1.390 . S
C1661 C1660 1.387 . S
C1661 C1663 1.387 . S
H1662 C1669 0.950 . S
C1663 C1661 1.387 . S
C1663 C1665 1.390 . S
C1663 H1667 0.950 . S
H1664 C1660 0.950 . S
C1665 C1663 1.390 . S
C1665 C1666 1.387 . S
C1665 H1668 0.950 . S
C1666 C1665 1.387 . S
C1666 C1669 1.387 . S
H1667 C1663 0.950 . S
H1668 C1665 0.950 . S
C1669 C1660 1.390 . S
C1669 H1662 0.950 . S
C1669 C1666 1.387 . S
C1670 C1671 1.387 . S
C1670 H1674 0.950 . S
C1670 C1679 1.390 . S
C1671 C1670 1.387 . S
C1671 C1673 1.387 . S
H1672 C1679 0.950 . S
C1673 C1671 1.387 . S
C1673 C1675 1.390 . S
C1673 H1677 0.950 . S
H1674 C1670 0.950 . S
C1675 C1673 1.390 . S
C1675 C1676 1.387 . S
C1675 H1678 0.950 . S
C1676 C1675 1.387 . S
C1676 C1679 1.387 . S
H1677 C1673 0.950 . S
H1678 C1675 0.950 . S
C1679 C1670 1.390 . S
C1679 H1672 0.950 . S
C1679 C1676 1.387 . S
C1680 C1681 1.387 . S
C1680 H1684 0.950 . S
C1680 C1689 1.390 . S
C1681 C1680 1.387 . S
C1681 C1683 1.387 . S
H1682 C1689 0.950 . S
C1683 C1681 1.387 . S
C1683 C1685 1.390 . S
C1683 H1687 0.950 . S
H1684 C1680 0.950 . S
C1685 C1683 1.390 . S
C1685 C1686 1.387 . S
C1685 H1688 0.950 . S
C1686 C1685 1.387 . S
C1686 C1689 1.387 . S
H1687 C1683 0.950 . S
H1688 C1685 0.950 . S
C1689 C1680 1.390 . S
C1689 H1682 0.950 . S
C1689 C1686 1.387 . S
C1690 C1691 1.387 . S
C1690 H1694 0.950 . S
C1690 C1699 1.390 . S
C1691 C1690 1.387 . S
C1691 C1693 1.387 . S
H1692 C1699 0.950 . S
C1693 C1691 1.387 . S
C1693 C1695 1.390 . S
C1693 H1697 0.950 . S
H1694 C1690 0.950 . S
C1695 C1693 1.390 . S
C1695 C1696 1.387 . S
C1695 H1698 0.950 . S
C1696 C1695 1.387 . S
C1696 C1699 1.387 . S
H1697 C1693 0.950 . S
H1698 C1695 0.950 . S
C1699 C1690 1.390 . S
C1699 H1692 0.950 . S
C1699 C1696 1.387 . S
C1700 C1701 1.387 . S
C1700 H1704 0.950 . S
C1700 C1709 1.390 . S
C1701 C1700 1.387 . S
C1701 C1703 1.387 . S
H1702 C1709 0.950 . S
C1703 C1701 1.387 . S
C1703 C1705 1.390 . S
C1703 H1707 0.950 . S
H1704 C1700 0.950 . S
C1705 C1703 1.390 . S
C1705 C1706 1.387 . S
C1705 H1708 0.950 . S
C1706 C1705 1.387 . S
C1706 C1709 1.387 . S
H1707 C1703 0.950 . S
H1708 C1705 0.950 . S
C1709 C1700 1.390 . S
C1709 H1702 0.950 . S
C1709 C1706 1.387 . S
C1710 C1711 1.387 . S
C1710 H1714 0.950 . S
C1710 C1719 1.390 . S
C1711 C1710 1.387 . S
C1711 C1713 1.387 . S
H1712 C1719 0.950 . S
C1713 C1711 1.387 . S
C1713 C1715 1.390 . S
C1713 H1717 0.950 . S
H1714 C1710 0.950 . S
C1715 C1713 1.390 . S
C1715 C1716 1.387 . S
C1715 H1718 0.950 . S
C1716 C1715 1.387 . S
C1716 C1719 1.387 . S
H1717 C1713 0.950 . S
H1718 C1715 0.950 . S
C1719 C1710 1.390 . S
C1719 H1712 0.950 . S
C1719 C1716 1.387 . S
C1720 C1721 1.387 . S
C1720 H1724 0.950 . S
C1720 C1729 1.390 . S
C1721 C1720 1.387 . S
C1721 C1723 1.387 1_545 S
H1722 C1729 0.950 . S
C1723 C1721 1.387 1_565 S
C1723 C1725 1.390 . S
C1723 H1727 0.950 . S
H1724 C1720 0.950 . S
C1725 C1723 1.390 . S
C1725 C1726 1.387 . S
C1725 H1728 0.950 . S
C1726 C1725 1.387 . S
C1726 C1729 1.387 1_565 S
H1727 C1723 0.950 . S
H1728 C1725 0.950 . S
C1729 C1720 1.390 . S
C1729 H1722 0.950 . S
C1729 C1726 1.387 1_545 S
C1730 C1731 1.387 1_545 S
C1730 H1734 0.950 . S
C1730 C1739 1.390 . S
C1731 C1730 1.387 1_565 S
C1731 C1733 1.387 1_455 S
H1732 C1739 0.950 . S
C1733 C1731 1.387 1_655 S
C1733 C1735 1.390 . S
C1733 H1737 0.950 . S
H1734 C1730 0.950 . S
C1735 C1733 1.390 . S
C1735 C1736 1.387 1_565 S
C1735 H1738 0.950 . S
C1736 C1735 1.387 1_545 S
C1736 C1739 1.387 1_655 S
H1737 C1733 0.950 . S
H1738 C1735 0.950 . S
C1739 C1730 1.390 . S
C1739 H1732 0.950 . S
C1739 C1736 1.387 1_455 S
C1740 C1741 1.387 1_565 S
C1740 H1744 0.950 . S
C1740 C1749 1.390 . S
C1741 C1740 1.387 1_545 S
C1741 C1743 1.387 . S
H1742 C1749 0.950 . S
C1743 C1741 1.387 . S
C1743 C1745 1.390 . S
C1743 H1747 0.950 . S
H1744 C1740 0.950 . S
C1745 C1743 1.390 . S
C1745 C1746 1.387 1_545 S
C1745 H1748 0.950 . S
C1746 C1745 1.387 1_565 S
C1746 C1749 1.387 . S
H1747 C1743 0.950 . S
H1748 C1745 0.950 . S
C1749 C1740 1.390 . S
C1749 H1742 0.950 . S
C1749 C1746 1.387 . S
C1750 C1751 1.387 . S
C1750 H1754 0.950 . S
C1750 C1759 1.390 . S
C1751 C1750 1.387 . S
C1751 C1753 1.387 1_645 S
H1752 C1759 0.950 . S
C1753 C1751 1.387 1_465 S
C1753 C1755 1.390 . S
C1753 H1757 0.950 . S
H1754 C1750 0.950 . S
C1755 C1753 1.390 . S
C1755 C1756 1.387 . S
C1755 H1758 0.950 . S
C1756 C1755 1.387 . S
C1756 C1759 1.387 1_465 S
H1757 C1753 0.950 . S
H1758 C1755 0.950 . S
C1759 C1750 1.390 . S
C1759 H1752 0.950 . S
C1759 C1756 1.387 1_645 S
C1760 C1761 1.387 . S
C1760 H1764 0.950 . S
C1760 C1769 1.390 1_455 S
C1761 C1760 1.387 . S
C1761 C1763 1.387 1_455 S
H1762 C1769 0.950 . S
C1763 C1761 1.387 1_655 S
C1763 C1765 1.390 . S
C1763 H1767 0.944 1_655 S
H1764 C1760 0.950 . S
C1765 C1763 1.390 . S
C1765 C1766 1.387 . S
C1765 H1768 0.950 . S
C1766 C1765 1.387 . S
C1766 C1769 1.387 . S
H1767 C1763 0.944 1_455 S
H1768 C1765 0.950 . S
C1769 C1760 1.390 1_655 S
C1769 H1762 0.950 . S
C1769 C1766 1.387 . S
C1770 C1771 1.387 . S
C1770 H1774 0.950 . S
C1770 C1779 1.390 . S
C1771 C1770 1.387 . S
C1771 C1773 1.387 . S
H1772 C1779 0.950 . S
C1773 C1771 1.387 . S
C1773 C1775 1.390 . S
C1773 H1777 0.950 . S
H1774 C1770 0.950 . S
C1775 C1773 1.390 . S
C1775 C1776 1.387 . S
C1775 H1778 0.950 . S
C1776 C1775 1.387 . S
C1776 C1779 1.387 . S
H1777 C1773 0.950 . S
H1778 C1775 0.950 . S
C1779 C1770 1.390 . S
C1779 H1772 0.950 . S
C1779 C1776 1.387 . S
C1780 C1781 1.387 . S
C1780 H1784 0.950 . S
C1780 C1789 1.390 . S
C1781 C1780 1.387 . S
C1781 C1783 1.387 . S
H1782 C1789 0.950 . S
C1783 C1781 1.387 . S
C1783 C1785 1.390 . S
C1783 H1787 0.950 . S
H1784 C1780 0.950 . S
C1785 C1783 1.390 . S
C1785 C1786 1.387 . S
C1785 H1788 0.950 . S
C1786 C1785 1.387 . S
C1786 C1789 1.387 . S
H1787 C1783 0.950 . S
H1788 C1785 0.950 . S
C1789 C1780 1.390 . S
C1789 H1782 0.950 . S
C1789 C1786 1.387 . S
C1790 C1791 1.387 . S
C1790 H1794 0.950 . S
C1790 C1799 1.390 . S
C1791 C1790 1.387 . S
C1791 C1793 1.387 . S
H1792 C1799 0.950 . S
C1793 C1791 1.387 . S
C1793 C1795 1.390 . S
C1793 H1797 0.950 . S
H1794 C1790 0.950 . S
C1795 C1793 1.390 . S
C1795 C1796 1.387 . S
C1795 H1798 0.950 . S
C1796 C1795 1.387 . S
C1796 C1799 1.387 . S
H1797 C1793 0.950 . S
H1798 C1795 0.950 . S
C1799 C1790 1.390 . S
C1799 H1792 0.950 . S
C1799 C1796 1.387 . S
C1800 C1801 1.387 . S
C1800 H1804 0.950 . S
C1800 C1809 1.390 . S
C1801 C1800 1.387 . S
C1801 C1803 1.387 . S
H1802 C1809 0.950 . S
C1803 C1801 1.387 . S
C1803 C1805 1.390 . S
C1803 H1807 0.950 . S
H1804 C1800 0.950 . S
C1805 C1803 1.390 . S
C1805 C1806 1.387 . S
C1805 H1808 0.950 . S
C1806 C1805 1.387 . S
C1806 C1809 1.387 . S
H1807 C1803 0.950 . S
H1808 C1805 0.950 . S
C1809 C1800 1.390 . S
C1809 H1802 0.950 . S
C1809 C1806 1.387 . S
C1810 C1811 1.387 . S
C1810 H1814 0.950 . S
C1810 C1819 1.390 . S
C1811 C1810 1.387 . S
C1811 C1813 1.387 . S
H1812 C1819 0.950 . S
C1813 C1811 1.387 . S
C1813 C1815 1.390 . S
C1813 H1817 0.950 . S
H1814 C1810 0.950 . S
C1815 C1813 1.390 . S
C1815 C1816 1.387 . S
C1815 H1818 0.950 . S
C1816 C1815 1.387 . S
C1816 C1819 1.387 . S
H1817 C1813 0.950 . S
H1818 C1815 0.950 . S
C1819 C1810 1.390 . S
C1819 H1812 0.950 . S
C1819 C1816 1.387 . S
C1820 C1821 1.387 . S
C1820 H1824 0.950 . S
C1820 C1829 1.390 . S
C1821 C1820 1.387 . S
C1821 C1823 1.387 . S
H1822 C1829 0.950 . S
C1823 C1821 1.387 . S
C1823 C1825 1.390 . S
C1823 H1827 0.950 . S
H1824 C1820 0.950 . S
C1825 C1823 1.390 . S
C1825 C1826 1.387 . S
C1825 H1828 0.950 . S
C1826 C1825 1.387 . S
C1826 C1829 1.387 . S
H1827 C1823 0.950 . S
H1828 C1825 0.950 . S
C1829 C1820 1.390 . S
C1829 H1822 0.950 . S
C1829 C1826 1.387 . S
C1830 C1831 1.387 . S
C1830 H1834 0.950 . S
C1830 C1839 1.390 . S
C1831 C1830 1.387 . S
C1831 C1833 1.387 . S
H1832 C1839 0.950 . S
C1833 C1831 1.387 . S
C1833 C1835 1.390 . S
C1833 H1837 0.950 . S
H1834 C1830 0.950 . S
C1835 C1833 1.390 . S
C1835 C1836 1.387 . S
C1835 H1838 0.950 . S
C1836 C1835 1.387 . S
C1836 C1839 1.387 . S
H1837 C1833 0.950 . S
H1838 C1835 0.950 . S
C1839 C1830 1.390 . S
C1839 H1832 0.950 . S
C1839 C1836 1.387 . S
C1840 C1841 1.387 . S
C1840 H1844 0.950 . S
C1840 C1849 1.390 . S
C1841 C1840 1.387 . S
C1841 C1843 1.387 . S
H1842 C1849 0.950 . S
C1843 C1841 1.387 . S
C1843 C1845 1.390 1_455 S
C1843 H1847 0.950 1_455 S
H1844 C1840 0.950 . S
C1845 C1843 1.390 1_655 S
C1845 C1846 1.387 . S
C1845 H1848 0.950 . S
C1846 C1845 1.387 . S
C1846 C1849 1.387 1_655 S
H1847 C1843 0.950 1_655 S
H1848 C1845 0.950 . S
C1849 C1840 1.390 . S
C1849 H1842 0.950 . S
C1849 C1846 1.387 1_455 S
C1850 C1851 1.387 . S
C1850 H1854 0.950 . S
C1850 C1859 1.390 . S
C1851 C1850 1.387 . S
C1851 C1853 1.387 . S
H1852 C1859 0.950 . S
C1853 C1851 1.387 . S
C1853 C1855 1.390 . S
C1853 H1857 0.950 . S
H1854 C1850 0.950 . S
C1855 C1853 1.390 . S
C1855 C1856 1.387 . S
C1855 H1858 0.950 . S
C1856 C1855 1.387 . S
C1856 C1859 1.387 . S
H1857 C1853 0.950 . S
H1858 C1855 0.950 . S
C1859 C1850 1.390 . S
C1859 H1852 0.950 . S
C1859 C1856 1.387 . S
C1860 C1861 1.387 . S
C1860 H1864 0.950 . S
C1860 C1869 1.390 . S
C1861 C1860 1.387 . S
C1861 C1863 1.387 . S
H1862 C1869 0.950 . S
C1863 C1861 1.387 . S
C1863 C1865 1.390 . S
C1863 H1867 0.950 . S
H1864 C1860 0.950 . S
C1865 C1863 1.390 . S
C1865 C1866 1.387 . S
C1865 H1868 0.950 . S
C1866 C1865 1.387 . S
C1866 C1869 1.387 . S
H1867 C1863 0.950 . S
H1868 C1865 0.950 . S
C1869 C1860 1.390 . S
C1869 H1862 0.950 . S
C1869 C1866 1.387 . S
C1870 C1871 1.387 . S
C1870 H1874 0.950 . S
C1870 C1879 1.390 . S
C1871 C1870 1.387 . S
C1871 C1873 1.387 . S
H1872 C1879 0.950 . S
C1873 C1871 1.387 . S
C1873 C1875 1.390 . S
C1873 H1877 0.950 . S
H1874 C1870 0.950 . S
C1875 C1873 1.390 . S
C1875 C1876 1.387 . S
C1875 H1878 0.950 . S
C1876 C1875 1.387 . S
C1876 C1879 1.387 . S
H1877 C1873 0.950 . S
H1878 C1875 0.950 . S
C1879 C1870 1.390 . S
C1879 H1872 0.950 . S
C1879 C1876 1.387 . S
C1880 C1881 1.387 . S
C1880 H1884 0.950 . S
C1880 C1889 1.390 . S
C1881 C1880 1.387 . S
C1881 C1883 1.387 . S
H1882 C1889 0.950 . S
C1883 C1881 1.387 . S
C1883 C1885 1.390 . S
C1883 H1887 0.950 . S
H1884 C1880 0.950 . S
C1885 C1883 1.390 . S
C1885 C1886 1.387 . S
C1885 H1888 0.950 . S
C1886 C1885 1.387 . S
C1886 C1889 1.387 . S
H1887 C1883 0.950 . S
H1888 C1885 0.950 . S
C1889 C1880 1.390 . S
C1889 H1882 0.950 . S
C1889 C1886 1.387 . S
C1890 C1891 1.387 . S
C1890 H1894 0.950 . S
C1890 C1899 1.390 . S
C1891 C1890 1.387 . S
C1891 C1893 1.387 . S
H1892 C1899 0.950 . S
C1893 C1891 1.387 . S
C1893 C1895 1.390 . S
C1893 H1897 0.950 . S
H1894 C1890 0.950 . S
C1895 C1893 1.390 . S
C1895 C1896 1.387 . S
C1895 H1898 0.950 . S
C1896 C1895 1.387 . S
C1896 C1899 1.387 . S
H1897 C1893 0.950 . S
H1898 C1895 0.950 . S
C1899 C1890 1.390 . S
C1899 H1892 0.950 . S
C1899 C1896 1.387 . S
C1900 C1901 1.387 . S
C1900 H1904 0.950 . S
C1900 C1909 1.390 . S
C1901 C1900 1.387 . S
C1901 C1903 1.387 . S
H1902 C1909 0.950 . S
C1903 C1901 1.387 . S
C1903 C1905 1.390 . S
C1903 H1907 0.950 . S
H1904 C1900 0.950 . S
C1905 C1903 1.390 . S
C1905 C1906 1.387 . S
C1905 H1908 0.950 . S
C1906 C1905 1.387 . S
C1906 C1909 1.387 . S
H1907 C1903 0.950 . S
H1908 C1905 0.950 . S
C1909 C1900 1.390 . S
C1909 H1902 0.950 . S
C1909 C1906 1.387 . S
C1910 C1911 1.387 . S
C1910 H1914 0.950 . S
C1910 C1919 1.390 . S
C1911 C1910 1.387 . S
C1911 C1913 1.387 . S
H1912 C1919 0.950 . S
C1913 C1911 1.387 . S
C1913 C1915 1.390 . S
C1913 H1917 0.950 . S
H1914 C1910 0.950 . S
C1915 C1913 1.390 . S
C1915 C1916 1.387 . S
C1915 H1918 0.950 . S
C1916 C1915 1.387 . S
C1916 C1919 1.387 . S
H1917 C1913 0.950 . S
H1918 C1915 0.950 . S
C1919 C1910 1.390 . S
C1919 H1912 0.950 . S
C1919 C1916 1.387 . S
C1920 C1921 1.387 . S
C1920 H1924 0.950 . S
C1920 C1929 1.390 . S
C1921 C1920 1.387 . S
C1921 C1923 1.387 . S
H1922 C1929 0.950 . S
C1923 C1921 1.387 . S
C1923 C1925 1.390 . S
C1923 H1927 0.950 . S
H1924 C1920 0.950 . S
C1925 C1923 1.390 . S
C1925 C1926 1.387 . S
C1925 H1928 0.950 . S
C1926 C1925 1.387 . S
C1926 C1929 1.387 . S
H1927 C1923 0.950 . S
H1928 C1925 0.950 . S
C1929 C1920 1.390 . S
C1929 H1922 0.950 . S
C1929 C1926 1.387 . S
C1930 C1931 1.387 . S
C1930 H1934 0.950 . S
C1930 C1939 1.390 . S
C1931 C1930 1.387 . S
C1931 C1933 1.387 . S
H1932 C1939 0.950 . S
C1933 C1931 1.387 . S
C1933 C1935 1.390 . S
C1933 H1937 0.950 . S
H1934 C1930 0.950 . S
C1935 C1933 1.390 . S
C1935 C1936 1.387 . S
C1935 H1938 0.950 . S
C1936 C1935 1.387 . S
C1936 C1939 1.387 . S
H1937 C1933 0.950 . S
H1938 C1935 0.950 . S
C1939 C1930 1.390 . S
C1939 H1932 0.950 . S
C1939 C1936 1.387 . S
C1940 C1941 1.387 1_455 S
C1940 H1944 0.950 . S
C1940 C1949 1.390 . S
C1941 C1940 1.387 1_655 S
C1941 C1943 1.387 . S
H1942 C1949 0.950 . S
C1943 C1941 1.387 . S
C1943 C1945 1.390 1_655 S
C1943 H1947 0.950 . S
H1944 C1940 0.950 . S
C1945 C1943 1.390 1_455 S
C1945 C1946 1.387 . S
C1945 H1948 0.950 . S
C1946 C1945 1.387 . S
C1946 C1949 1.387 . S
H1947 C1943 0.950 . S
H1948 C1945 0.950 . S
C1949 C1940 1.390 . S
C1949 H1942 0.950 . S
C1949 C1946 1.387 . S
C1950 C1951 1.387 . S
C1950 H1954 0.950 . S
C1950 C1959 1.390 . S
C1951 C1950 1.387 . S
C1951 C1953 1.387 . S
H1952 C1959 0.950 . S
C1953 C1951 1.387 . S
C1953 C1955 1.390 . S
C1953 H1957 0.950 . S
H1954 C1950 0.950 . S
C1955 C1953 1.390 . S
C1955 C1956 1.387 . S
C1955 H1958 0.950 . S
C1956 C1955 1.387 . S
C1956 C1959 1.387 . S
H1957 C1953 0.950 . S
H1958 C1955 0.950 . S
C1959 C1950 1.390 . S
C1959 H1952 0.950 . S
C1959 C1956 1.387 . S
C1960 C1961 1.387 . S
C1960 H1964 0.950 . S
C1960 C1969 1.390 . S
C1961 C1960 1.387 . S
C1961 C1963 1.387 . S
H1962 C1969 0.950 . S
C1963 C1961 1.387 . S
C1963 C1965 1.390 . S
C1963 H1967 0.950 . S
H1964 C1960 0.950 . S
C1965 C1963 1.390 . S
C1965 C1966 1.387 . S
C1965 H1968 0.950 . S
C1966 C1965 1.387 . S
C1966 C1969 1.387 . S
H1967 C1963 0.950 . S
H1968 C1965 0.950 . S
C1969 C1960 1.390 . S
C1969 H1962 0.950 . S
C1969 C1966 1.387 . S
C1970 C1971 1.387 . S
C1970 H1974 0.950 . S
C1970 C1979 1.390 . S
C1971 C1970 1.387 . S
C1971 C1973 1.387 . S
H1972 C1979 0.950 . S
C1973 C1971 1.387 . S
C1973 C1975 1.390 . S
C1973 H1977 0.950 . S
H1974 C1970 0.950 . S
C1975 C1973 1.390 . S
C1975 C1976 1.387 . S
C1975 H1978 0.950 . S
C1976 C1975 1.387 . S
C1976 C1979 1.387 . S
H1977 C1973 0.950 . S
H1978 C1975 0.950 . S
C1979 C1970 1.390 . S
C1979 H1972 0.950 . S
C1979 C1976 1.387 . S
C1980 C1981 1.387 . S
C1980 H1984 0.934 1_655 S
C1980 C1989 1.390 . S
C1981 C1980 1.387 . S
C1981 C1983 1.387 . S
H1982 C1989 0.950 . S
C1983 C1981 1.387 . S
C1983 C1985 1.390 . S
C1983 H1987 0.950 . S
H1984 C1980 0.934 1_455 S
C1985 C1983 1.390 . S
C1985 C1986 1.387 . S
C1985 H1988 0.950 . S
C1986 C1985 1.387 . S
C1986 C1989 1.387 . S
H1987 C1983 0.950 . S
H1988 C1985 0.950 . S
C1989 C1980 1.390 . S
C1989 H1982 0.950 . S
C1989 C1986 1.387 . S
C1990 C1991 1.387 . S
C1990 H1994 0.950 . S
C1990 C1999 1.390 . S
C1991 C1990 1.387 . S
C1991 C1993 1.387 . S
H1992 C1999 0.950 . S
C1993 C1991 1.387 . S
C1993 C1995 1.390 . S
C1993 H1997 0.950 . S
H1994 C1990 0.950 . S
C1995 C1993 1.390 . S
C1995 C1996 1.387 . S
C1995 H1998 0.950 . S
C1996 C1995 1.387 . S
C1996 C1999 1.387 . S
H1997 C1993 0.950 . S
H1998 C1995 0.950 . S
C1999 C1990 1.390 . S
C1999 H1992 0.950 . S
C1999 C1996 1.387 . S
C2000 C2001 1.387 . S
C2000 H2004 0.950 . S
C2000 C2009 1.390 . S
C2001 C2000 1.387 . S
C2001 C2003 1.387 . S
H2002 C2009 0.950 . S
C2003 C2001 1.387 . S
C2003 C2005 1.390 . S
C2003 H2007 0.950 . S
H2004 C2000 0.950 . S
C2005 C2003 1.390 . S
C2005 C2006 1.387 . S
C2005 H2008 0.950 . S
C2006 C2005 1.387 . S
C2006 C2009 1.387 . S
H2007 C2003 0.950 . S
H2008 C2005 0.950 . S
C2009 C2000 1.390 . S
C2009 H2002 0.950 . S
C2009 C2006 1.387 . S
C2010 C2011 1.387 . S
C2010 H2014 0.950 . S
C2010 C2019 1.390 . S
C2011 C2010 1.387 . S
C2011 C2013 1.387 . S
H2012 C2019 0.950 . S
C2013 C2011 1.387 . S
C2013 C2015 1.390 . S
C2013 H2017 0.950 . S
H2014 C2010 0.950 . S
C2015 C2013 1.390 . S
C2015 C2016 1.387 . S
C2015 H2018 0.950 . S
C2016 C2015 1.387 . S
C2016 C2019 1.387 . S
H2017 C2013 0.950 . S
H2018 C2015 0.950 . S
C2019 C2010 1.390 . S
C2019 H2012 0.950 . S
C2019 C2016 1.387 . S
C2020 C2021 1.388 . S
C2020 H2024 0.951 . S
C2020 C2029 1.388 1_455 S
C2021 C2020 1.388 . S
C2021 C2023 1.382 1_455 S
H2022 C2029 0.950 . S
C2023 C2021 1.382 1_655 S
C2023 C2025 1.401 . S
C2023 H2027 0.945 1_655 S
H2024 C2020 0.951 . S
C2025 C2023 1.401 . S
C2025 C2026 1.387 . S
C2025 H2028 0.950 . S
C2026 C2025 1.387 . S
C2026 C2029 1.387 . S
H2027 C2023 0.945 1_455 S
H2028 C2025 0.950 . S
C2029 C2020 1.388 1_655 S
C2029 H2022 0.950 . S
C2029 C2026 1.387 . S
C2030 C2031 1.387 . S
C2030 H2034 0.950 . S
C2030 C2039 1.390 . S
C2031 C2030 1.387 . S
C2031 C2033 1.387 . S
H2032 C2039 0.950 . S
C2033 C2031 1.387 . S
C2033 C2035 1.390 . S
C2033 H2037 0.950 . S
H2034 C2030 0.950 . S
C2035 C2033 1.390 . S
C2035 C2036 1.387 . S
C2035 H2038 0.950 . S
C2036 C2035 1.387 . S
C2036 C2039 1.387 . S
H2037 C2033 0.950 . S
H2038 C2035 0.950 . S
C2039 C2030 1.390 . S
C2039 H2032 0.950 . S
C2039 C2036 1.387 . S
C2040 C2041 1.387 . S
C2040 H2044 0.950 . S
C2040 C2049 1.390 . S
C2041 C2040 1.387 . S
C2041 C2043 1.387 . S
H2042 C2049 0.950 . S
C2043 C2041 1.387 . S
C2043 C2045 1.390 . S
C2043 H2047 0.950 . S
H2044 C2040 0.950 . S
C2045 C2043 1.390 . S
C2045 C2046 1.387 . S
C2045 H2048 0.950 . S
C2046 C2045 1.387 . S
C2046 C2049 1.387 . S
H2047 C2043 0.950 . S
H2048 C2045 0.950 . S
C2049 C2040 1.390 . S
C2049 H2042 0.950 . S
C2049 C2046 1.387 . S
C2050 C2051 1.387 . S
C2050 H2054 0.950 . S
C2050 C2059 1.390 . S
C2051 C2050 1.387 . S
C2051 C2053 1.387 . S
H2052 C2059 0.950 . S
C2053 C2051 1.387 . S
C2053 C2055 1.390 . S
C2053 H2057 0.950 . S
H2054 C2050 0.950 . S
C2055 C2053 1.390 . S
C2055 C2056 1.387 . S
C2055 H2058 0.950 . S
C2056 C2055 1.387 . S
C2056 C2059 1.387 . S
H2057 C2053 0.950 . S
H2058 C2055 0.950 . S
C2059 C2050 1.390 . S
C2059 H2052 0.950 . S
C2059 C2056 1.387 . S
C2060 C2061 1.387 . S
C2060 H2064 0.950 . S
C2060 C2069 1.390 . S
C2061 C2060 1.387 . S
C2061 C2063 1.387 . S
H2062 C2069 0.950 . S
C2063 C2061 1.387 . S
C2063 C2065 1.390 . S
C2063 H2067 0.950 . S
H2064 C2060 0.950 . S
C2065 C2063 1.390 . S
C2065 C2066 1.387 . S
C2065 H2068 0.950 . S
C2066 C2065 1.387 . S
C2066 C2069 1.387 . S
H2067 C2063 0.950 . S
H2068 C2065 0.950 . S
C2069 C2060 1.390 . S
C2069 H2062 0.950 . S
C2069 C2066 1.387 . S
C2070 C2071 1.387 . S
C2070 H2074 0.950 . S
C2070 C2079 1.390 . S
C2071 C2070 1.387 . S
C2071 C2073 1.387 . S
H2072 C2079 0.950 . S
C2073 C2071 1.387 . S
C2073 C2075 1.390 . S
C2073 H2077 0.950 . S
H2074 C2070 0.950 . S
C2075 C2073 1.390 . S
C2075 C2076 1.387 . S
C2075 H2078 0.950 . S
C2076 C2075 1.387 . S
C2076 C2079 1.387 . S
H2077 C2073 0.950 . S
H2078 C2075 0.950 . S
C2079 C2070 1.390 . S
C2079 H2072 0.950 . S
C2079 C2076 1.387 . S
C2080 C2081 1.387 . S
C2080 H2084 0.950 . S
C2080 C2089 1.390 . S
C2081 C2080 1.387 . S
C2081 C2083 1.387 . S
H2082 C2089 0.950 . S
C2083 C2081 1.387 . S
C2083 C2085 1.390 . S
C2083 H2087 0.950 . S
H2084 C2080 0.950 . S
C2085 C2083 1.390 . S
C2085 C2086 1.387 . S
C2085 H2088 0.950 . S
C2086 C2085 1.387 . S
C2086 C2089 1.387 . S
H2087 C2083 0.950 . S
H2088 C2085 0.950 . S
C2089 C2080 1.390 . S
C2089 H2082 0.950 . S
C2089 C2086 1.387 . S
C2090 C2091 1.387 . S
C2090 H2094 0.950 . S
C2090 C2099 1.398 . S
C2091 C2090 1.387 . S
C2091 C2093 1.387 . S
H2092 C2099 0.946 1_554 S
C2093 C2091 1.387 . S
C2093 C2095 1.390 . S
C2093 H2097 0.950 . S
H2094 C2090 0.950 . S
C2095 C2093 1.390 . S
C2095 C2096 1.387 1_556 S
C2095 H2098 0.950 1_556 S
C2096 C2095 1.387 1_554 S
C2096 C2099 1.384 1_554 S
H2097 C2093 0.950 . S
H2098 C2095 0.950 1_554 S
C2099 C2090 1.398 . S
C2099 H2092 0.946 1_556 S
C2099 C2096 1.384 1_556 S
C2100 C2101 1.387 . S
C2100 H2104 0.950 . S
C2100 C2109 1.390 . S
C2101 C2100 1.387 . S
C2101 C2103 1.387 . S
H2102 C2109 0.950 . S
C2103 C2101 1.387 . S
C2103 C2105 1.390 . S
C2103 H2107 0.950 . S
H2104 C2100 0.950 . S
C2105 C2103 1.390 . S
C2105 C2106 1.387 . S
C2105 H2108 0.950 . S
C2106 C2105 1.387 . S
C2106 C2109 1.387 . S
H2107 C2103 0.950 . S
H2108 C2105 0.950 . S
C2109 C2100 1.390 . S
C2109 H2102 0.950 . S
C2109 C2106 1.387 . S
C2110 C2111 1.387 . S
C2110 H2114 0.950 . S
C2110 C2119 1.390 . S
C2111 C2110 1.387 . S
C2111 C2113 1.387 . S
H2112 C2119 0.950 . S
C2113 C2111 1.387 . S
C2113 C2115 1.390 . S
C2113 H2117 0.950 . S
H2114 C2110 0.950 . S
C2115 C2113 1.390 . S
C2115 C2116 1.387 . S
C2115 H2118 0.950 . S
C2116 C2115 1.387 . S
C2116 C2119 1.387 . S
H2117 C2113 0.950 . S
H2118 C2115 0.950 . S
C2119 C2110 1.390 . S
C2119 H2112 0.950 . S
C2119 C2116 1.387 . S
C2120 C2121 1.387 . S
C2120 H2124 0.950 . S
C2120 C2129 1.390 . S
C2121 C2120 1.387 . S
C2121 C2123 1.387 . S
H2122 C2129 0.950 . S
C2123 C2121 1.387 . S
C2123 C2125 1.390 . S
C2123 H2127 0.950 . S
H2124 C2120 0.950 . S
C2125 C2123 1.390 . S
C2125 C2126 1.387 . S
C2125 H2128 0.950 . S
C2126 C2125 1.387 . S
C2126 C2129 1.387 . S
H2127 C2123 0.950 . S
H2128 C2125 0.950 . S
C2129 C2120 1.390 . S
C2129 H2122 0.950 . S
C2129 C2126 1.387 . S
C2130 C2131 1.387 . S
C2130 H2134 0.950 . S
C2130 C2139 1.390 . S
C2131 C2130 1.387 . S
C2131 C2133 1.387 . S
H2132 C2139 0.950 . S
C2133 C2131 1.387 . S
C2133 C2135 1.390 . S
C2133 H2137 0.950 . S
H2134 C2130 0.950 . S
C2135 C2133 1.390 . S
C2135 C2136 1.387 . S
C2135 H2138 0.950 . S
C2136 C2135 1.387 . S
C2136 C2139 1.387 . S
H2137 C2133 0.950 . S
H2138 C2135 0.950 . S
C2139 C2130 1.390 . S
C2139 H2132 0.950 . S
C2139 C2136 1.387 . S
C2140 C2141 1.387 . S
C2140 H2144 0.950 . S
C2140 C2149 1.390 . S
C2141 C2140 1.387 . S
C2141 C2143 1.387 . S
H2142 C2149 0.950 . S
C2143 C2141 1.387 . S
C2143 C2145 1.390 . S
C2143 H2147 0.950 . S
H2144 C2140 0.950 . S
C2145 C2143 1.390 . S
C2145 C2146 1.387 . S
C2145 H2148 0.950 . S
C2146 C2145 1.387 . S
C2146 C2149 1.387 . S
H2147 C2143 0.950 . S
H2148 C2145 0.950 . S
C2149 C2140 1.390 . S
C2149 H2142 0.950 . S
C2149 C2146 1.387 . S
C2150 C2151 1.387 . S
C2150 H2154 0.950 . S
C2150 C2159 1.390 . S
C2151 C2150 1.387 . S
C2151 C2153 1.387 . S
H2152 C2159 0.950 . S
C2153 C2151 1.387 . S
C2153 C2155 1.390 . S
C2153 H2157 0.950 . S
H2154 C2150 0.950 . S
C2155 C2153 1.390 . S
C2155 C2156 1.387 . S
C2155 H2158 0.950 . S
C2156 C2155 1.387 . S
C2156 C2159 1.387 . S
H2157 C2153 0.950 . S
H2158 C2155 0.950 . S
C2159 C2150 1.390 . S
C2159 H2152 0.950 . S
C2159 C2156 1.387 . S
C2160 C2161 1.387 . S
C2160 H2164 0.950 . S
C2160 C2169 1.390 . S
C2161 C2160 1.387 . S
C2161 C2163 1.387 1_565 S
H2162 C2169 0.950 . S
C2163 C2161 1.387 1_545 S
C2163 C2165 1.390 . S
C2163 H2167 0.950 . S
H2164 C2160 0.950 . S
C2165 C2163 1.390 . S
C2165 C2166 1.387 . S
C2165 H2168 0.950 . S
C2166 C2165 1.387 . S
C2166 C2169 1.387 1_545 S
H2167 C2163 0.950 . S
H2168 C2165 0.950 . S
C2169 C2160 1.390 . S
C2169 H2162 0.950 . S
C2169 C2166 1.387 1_565 S
C2170 C2171 1.387 . S
C2170 H2174 0.950 . S
C2170 C2179 1.390 . S
C2171 C2170 1.387 . S
C2171 C2173 1.387 . S
H2172 C2179 0.950 . S
C2173 C2171 1.387 . S
C2173 C2175 1.390 . S
C2173 H2177 0.950 . S
H2174 C2170 0.950 . S
C2175 C2173 1.390 . S
C2175 C2176 1.387 . S
C2175 H2178 0.950 . S
C2176 C2175 1.387 . S
C2176 C2179 1.387 . S
H2177 C2173 0.950 . S
H2178 C2175 0.950 . S
C2179 C2170 1.390 . S
C2179 H2172 0.950 . S
C2179 C2176 1.387 . S
C2180 C2181 1.387 . S
C2180 H2184 0.950 . S
C2180 C2189 1.390 . S
C2181 C2180 1.387 . S
C2181 C2183 1.387 1_545 S
H2182 C2189 0.950 . S
C2183 C2181 1.387 1_565 S
C2183 C2185 1.390 . S
C2183 H2187 0.950 . S
H2184 C2180 0.950 . S
C2185 C2183 1.390 . S
C2185 C2186 1.387 . S
C2185 H2188 0.950 . S
C2186 C2185 1.387 . S
C2186 C2189 1.387 1_565 S
H2187 C2183 0.950 . S
H2188 C2185 0.950 . S
C2189 C2180 1.390 . S
C2189 H2182 0.950 . S
C2189 C2186 1.387 1_545 S
C2190 C2191 1.387 1_556 S
C2190 H2194 0.950 1_556 S
C2190 C2199 1.390 . S
C2191 C2190 1.387 1_554 S
C2191 C2193 1.387 . S
H2192 C2199 0.950 . S
C2193 C2191 1.387 . S
C2193 C2195 1.390 1_554 S
C2193 H2197 0.950 . S
H2194 C2190 0.950 1_554 S
C2195 C2193 1.390 1_556 S
C2195 C2196 1.387 . S
C2195 H2198 0.950 . S
C2196 C2195 1.387 . S
C2196 C2199 1.387 . S
H2197 C2193 0.950 . S
H2198 C2195 0.950 . S
C2199 C2190 1.390 . S
C2199 H2192 0.950 . S
C2199 C2196 1.387 . S
C2200 C2201 1.387 . S
C2200 H2204 0.950 . S
C2200 C2209 1.390 . S
C2201 C2200 1.387 . S
C2201 C2203 1.387 1_565 S
H2202 C2209 0.950 . S
C2203 C2201 1.387 1_545 S
C2203 C2205 1.390 . S
C2203 H2207 0.950 . S
H2204 C2200 0.950 . S
C2205 C2203 1.390 . S
C2205 C2206 1.387 . S
C2205 H2208 0.950 . S
C2206 C2205 1.387 . S
C2206 C2209 1.387 1_545 S
H2207 C2203 0.950 . S
H2208 C2205 0.950 . S
C2209 C2200 1.390 . S
C2209 H2202 0.950 . S
C2209 C2206 1.387 1_565 S
C2210 C2211 1.387 . S
C2210 H2214 0.950 . S
C2210 C2219 1.390 . S
C2211 C2210 1.387 . S
C2211 C2213 1.387 . S
H2212 C2219 0.950 . S
C2213 C2211 1.387 . S
C2213 C2215 1.390 . S
C2213 H2217 0.950 . S
H2214 C2210 0.950 . S
C2215 C2213 1.390 . S
C2215 C2216 1.387 . S
C2215 H2218 0.950 . S
C2216 C2215 1.387 . S
C2216 C2219 1.387 . S
H2217 C2213 0.950 . S
H2218 C2215 0.950 . S
C2219 C2210 1.390 . S
C2219 H2212 0.950 . S
C2219 C2216 1.387 . S
C2220 C2221 1.402 . S
C2220 H2224 0.944 1_565 S
C2220 C2229 1.381 1_565 S
C2221 C2220 1.402 . S
C2221 C2223 1.387 . S
H2222 C2229 0.950 . S
C2223 C2221 1.387 . S
C2223 C2225 1.390 . S
C2223 H2227 0.950 . S
H2224 C2220 0.944 1_545 S
C2225 C2223 1.390 . S
C2225 C2226 1.387 1_565 S
C2225 H2228 0.950 . S
C2226 C2225 1.387 1_545 S
C2226 C2229 1.387 . S
H2227 C2223 0.950 . S
H2228 C2225 0.950 . S
C2229 C2220 1.381 1_545 S
C2229 H2222 0.950 . S
C2229 C2226 1.387 . S
C2230 C2231 1.387 . S
C2230 H2234 0.950 . S
C2230 C2239 1.390 . S
C2231 C2230 1.387 . S
C2231 C2233 1.387 . S
H2232 C2239 0.950 . S
C2233 C2231 1.387 . S
C2233 C2235 1.390 . S
C2233 H2237 0.950 . S
H2234 C2230 0.950 . S
C2235 C2233 1.390 . S
C2235 C2236 1.387 . S
C2235 H2238 0.950 . S
C2236 C2235 1.387 . S
C2236 C2239 1.387 . S
H2237 C2233 0.950 . S
H2238 C2235 0.950 . S
C2239 C2230 1.390 . S
C2239 H2232 0.950 . S
C2239 C2236 1.387 . S
C1281 C19 0.539 . S
C1286 C166 0.550 . S
C1291 C206 0.554 . S
C1296 C59 0.537 . S
C1301 C99 0.539 . S
C1306 C246 0.550 . S
C1311 C286 0.554 . S
C1316 C139 0.537 . S
C1321 C330 0.536 . S
C1326 C495 0.555 . S
C1331 C370 0.536 . S
C1336 C535 0.554 . S
C1341 C575 0.549 . S
C1346 C410 0.539 . S
C1351 C450 0.537 . S
C1356 C615 0.555 . S
C1361 C806 0.549 . S
C1366 C659 0.539 . S
C1371 C699 0.539 . S
C1376 C846 0.550 . S
C1381 C739 0.537 . S
C1386 C886 0.554 . S
C1391 C779 0.538 . S
C1396 C926 0.553 . S
C1401 C970 0.537 . S
C1406 C1135 0.554 . S
C1411 C1175 0.552 . S
C1416 C1010 0.539 . S
C1421 C1050 0.539 . S
C1426 C1215 0.550 . S
C1431 C1255 0.552 . S
C1436 C1090 0.538 . S
C1441 C858 1.886 . S
C1446 C9 1.829 . S
C1451 C898 1.885 . S
C1456 C49 1.829 . S
C1461 C938 1.885 . S
C1466 C89 1.830 . S
C1471 C129 1.831 . S
C1476 C818 1.887 1_556 S
C1481 C178 1.886 . S
C1486 C769 1.829 . S
C1491 C649 1.827 . S
C1496 C218 1.884 . S
C1501 C258 1.883 1_556 S
C1506 C689 1.826 . S
C1511 C298 1.886 . S
C1516 C729 1.829 . S
C1521 C338 1.829 . S
C1526 C1169 1.886 . S
C1531 C1209 1.886 . S
C1536 C378 1.830 . S
C1541 C1249 1.885 . S
C1546 C418 1.829 . S
C1551 C458 1.829 . S
C1556 C1129 1.885 . S
C1561 C489 1.883 . S
C1566 C1098 1.827 . S
C1571 C529 1.885 . S
C1576 C978 1.829 . S
C1581 C569 1.886 . S
C1586 C1018 1.829 . S
C1591 C609 1.886 . S
C1596 C1058 1.830 . S
C1601 C329 1.493 . S
C1606 C18 1.493 . S
C1611 C58 1.496 . S
C1616 C1009 1.496 . S
C1621 C409 1.491 . S
C1626 C98 1.491 . S
C1631 C138 1.496 . S
C1636 C1089 1.496 . S
C1641 C498 1.522 . S
C1646 C169 1.522 . S
C1651 C1178 1.519 . S
C1656 C209 1.518 . S
C1661 C249 1.518 . S
C1666 C578 1.518 . S
C1671 C289 1.521 . S
C1676 C1258 1.521 . S
C1681 C698 1.492 . S
C1686 C369 1.492 . S
C1691 C778 1.496 . S
C1696 C449 1.496 . S
C1701 C538 1.520 . S
C1706 C849 1.520 . S
C1711 C929 1.519 . S
C1716 C618 1.518 . S
C1721 C969 1.495 . S
C1726 C658 1.495 . S
C1731 C1049 1.495 . S
C1736 C738 1.495 . S
C1741 C1138 1.522 . S
C1746 C809 1.522 . S
C1751 C889 1.522 . S
C1756 C1218 1.522 . S
C1761 C10 2.165 1_556 S
C1766 C499 2.213 . S
C1771 C1179 2.213 . S
C1776 C50 2.167 . S
C1781 C579 2.212 . S
C1786 C90 2.166 . S
C1791 C130 2.166 . S
C1796 C1259 2.213 . S
C1801 C326 1.020 . S
C1806 C175 1.018 . S
C1811 C1006 1.020 . S
C1816 C215 1.022 . S
C1821 C406 1.019 . S
C1826 C255 1.018 . S
C1831 C1086 1.019 . S
C1836 C295 1.019 . S
C1841 C170 2.213 . S
C1846 C339 2.165 . S
C1851 C850 2.213 . S
C1856 C379 2.166 . S
C1861 C250 2.212 . S
C1866 C419 2.165 . S
C1871 C459 2.164 . S
C1876 C930 2.212 . S
C1881 C15 1.022 . S
C1886 C486 1.022 . S
C1891 C695 1.019 . S
C1896 C526 1.020 . S
C1901 C566 1.019 . S
C1906 C95 1.019 . S
C1911 C606 1.022 . S
C1916 C775 1.020 . S
C1921 C1139 2.213 . S
C1926 C650 2.165 . S
C1931 C539 2.213 . S
C1936 C690 2.166 . S
C1941 C730 2.166 1_556 S
C1946 C1219 2.214 . S
C1951 C619 2.213 . S
C1956 C770 2.167 . S
C1961 C815 1.022 . S
C1966 C966 1.020 . S
C1971 C855 1.020 . S
C1976 C366 1.018 . S
C1981 C1046 1.021 . S
C1986 C895 1.022 . S
C1991 C446 1.018 . S
C1996 C935 1.019 . S
C2001 C979 2.165 . S
C2006 C810 2.212 . S
C2011 C1019 2.165 . S
C2016 C210 2.212 . S
C2021 C1059 2.165 . S
C2026 C890 2.212 . S
C2031 C1099 2.165 . S
C2036 C290 2.213 . S
C2041 C655 1.020 . S
C2046 C1126 1.018 . S
C2051 C55 1.020 . S
C2056 C1166 1.017 . S
C2061 C1206 1.018 . S
C2066 C735 1.019 . S
C2071 C135 1.023 . S
C2076 C1246 1.021 . S
C2081 C179 2.142 . S
C2086 C6 2.117 . S
C2091 C219 2.141 . S
C2096 C46 2.117 . S
C2101 C86 2.117 . S
C2106 C259 2.142 . S
C2111 C299 2.141 . S
C2116 C126 2.117 . S
C2121 C490 2.141 . S
C2126 C335 2.117 . S
C2131 C375 2.117 . S
C2136 C530 2.141 . S
C2141 C415 2.117 1_554 S
C2146 C570 2.141 . S
C2151 C610 2.141 . S
C2156 C455 2.116 . S
C2161 C646 2.118 . S
C2166 C819 2.141 . S
C2171 C859 2.141 . S
C2176 C686 2.117 . S
C2181 C726 2.118 . S
C2186 C899 2.141 . S
C2191 C766 2.117 . S
C2196 C939 2.141 . S
C2201 C1130 2.141 . S
C2206 C975 2.118 1_554 S
C2211 C1170 2.142 . S
C2216 C1015 2.117 . S
C2221 C1055 2.117 . S
C2226 C1210 2.141 . S
C2231 C1250 2.141 . S
C2236 C1095 2.117 . S
