# Generated by pormake.
# Topology vby, (6)-cn, num edge types: 1
# Building blocks:
#     Node 0, Type 0, BuildingBlock: HISSIN_clean_sbu_0, # of connection points: 6
#     Node 1, Type 0, BuildingBlock: HISSIN_clean_sbu_0, # of connection points: 6
#     Node 2, Type 0, BuildingBlock: HISSIN_clean_sbu_0, # of connection points: 6
#     Node 3, Type 0, BuildingBlock: HISSIN_clean_sbu_0, # of connection points: 6
#     Node 4, Type 0, BuildingBlock: HISSIN_clean_sbu_0, # of connection points: 6
#     Node 5, Type 0, BuildingBlock: HISSIN_clean_sbu_0, # of connection points: 6
#     Node 6, Type 0, BuildingBlock: HISSIN_clean_sbu_0, # of connection points: 6
#     Node 7, Type 0, BuildingBlock: HISSIN_clean_sbu_0, # of connection points: 6
#     Edge 8, Type (0, 0), BuildingBlock: MIFKUJ_clean_linker_0, # of connection points: 2
#     Edge 9, Type (0, 0), BuildingBlock: MIFKUJ_clean_linker_0, # of connection points: 2
#     Edge 10, Type (0, 0), BuildingBlock: MIFKUJ_clean_linker_0, # of connection points: 2
#     Edge 11, Type (0, 0), BuildingBlock: MIFKUJ_clean_linker_0, # of connection points: 2
#     Edge 12, Type (0, 0), BuildingBlock: MIFKUJ_clean_linker_0, # of connection points: 2
#     Edge 13, Type (0, 0), BuildingBlock: MIFKUJ_clean_linker_0, # of connection points: 2
#     Edge 14, Type (0, 0), BuildingBlock: MIFKUJ_clean_linker_0, # of connection points: 2
#     Edge 15, Type (0, 0), BuildingBlock: MIFKUJ_clean_linker_0, # of connection points: 2
#     Edge 16, Type (0, 0), BuildingBlock: MIFKUJ_clean_linker_0, # of connection points: 2
#     Edge 17, Type (0, 0), BuildingBlock: MIFKUJ_clean_linker_0, # of connection points: 2
#     Edge 18, Type (0, 0), BuildingBlock: MIFKUJ_clean_linker_0, # of connection points: 2
#     Edge 19, Type (0, 0), BuildingBlock: MIFKUJ_clean_linker_0, # of connection points: 2
#     Edge 20, Type (0, 0), BuildingBlock: MIFKUJ_clean_linker_0, # of connection points: 2
#     Edge 21, Type (0, 0), BuildingBlock: MIFKUJ_clean_linker_0, # of connection points: 2
#     Edge 22, Type (0, 0), BuildingBlock: MIFKUJ_clean_linker_0, # of connection points: 2
#     Edge 23, Type (0, 0), BuildingBlock: MIFKUJ_clean_linker_0, # of connection points: 2
#     Edge 24, Type (0, 0), BuildingBlock: MIFKUJ_clean_linker_0, # of connection points: 2
#     Edge 25, Type (0, 0), BuildingBlock: MIFKUJ_clean_linker_0, # of connection points: 2
#     Edge 26, Type (0, 0), BuildingBlock: MIFKUJ_clean_linker_0, # of connection points: 2
#     Edge 27, Type (0, 0), BuildingBlock: MIFKUJ_clean_linker_0, # of connection points: 2
#     Edge 28, Type (0, 0), BuildingBlock: MIFKUJ_clean_linker_0, # of connection points: 2
#     Edge 29, Type (0, 0), BuildingBlock: MIFKUJ_clean_linker_0, # of connection points: 2
#     Edge 30, Type (0, 0), BuildingBlock: MIFKUJ_clean_linker_0, # of connection points: 2
#     Edge 31, Type (0, 0), BuildingBlock: MIFKUJ_clean_linker_0, # of connection points: 2
# Relax obj value: 0.194
# Max RMSD: 0.213
# Mean RMSD: 0.213
data_MOF--net-vby--node1-HISSIN_clean_sbu_0--edge1-MIFKUJ_clean_linker_0
_symmetry_space_group_name_H-M    P1
_symmetry_Int_Tables_number       1
_symmetry_cell_setting            triclinic
loop_
_symmetry_equiv_pos_as_xyz
'x, y, z'
_cell_length_a     20.162713
_cell_length_b     121.45223
_cell_length_c     39.530171
_cell_angle_alpha  89.886123
_cell_angle_beta   91.192434
_cell_angle_gamma 90.28231
loop_
_atom_site_label
_atom_site_type_symbol
_atom_site_fract_x
_atom_site_fract_y
_atom_site_fract_z
_atom_type_partial_charge
Eu0 Eu 0.07316 0.37053 0.98273 0.0
Eu1 Eu 0.07755 0.39787 0.97886 0.0
C2 C 0.06689 0.3833 0.9124 0.0
C3 C 0.10589 0.33902 -0.00355 0.0
C4 C 0.16351 0.33566 0.98 0.0
C5 C 0.10709 0.32187 0.02842 0.0
C6 C 0.19183 0.3254 0.98724 0.0
C7 C 0.07871 0.33211 0.02112 0.0
C8 C 0.16314 0.31827 0.01103 0.0
C9 C 0.0692 0.34901 0.98571 0.0
O10 O 0.96762 0.39395 0.97391 0.0
O11 O 0.96637 0.37559 0.9892 0.0
C12 C 0.93543 0.38483 0.98168 0.0
O13 O 0.10098 0.37685 0.03483 0.0
O14 O 0.05528 0.41317 0.9517 0.0
O15 O 0.11428 0.41357 -0.00161 0.0
O16 O 0.04788 0.39344 0.03177 0.0
C17 C 0.07318 0.38529 0.0496 0.0
O18 O 0.18137 0.37447 0.97371 0.0
O19 O 0.18381 0.39273 0.98897 0.0
O20 O 0.10052 0.39124 0.92733 0.0
O21 O 0.04604 0.35538 0.00922 0.0
O22 O 0.09087 0.35455 0.95982 0.0
O23 O 0.03902 0.37552 0.93026 0.0
C24 C 0.06099 0.43037 0.98139 0.0
C25 C 0.06907 0.43508 0.01369 0.0
C26 C 1.02463 0.44815 0.95955 0.0
C27 C 0.05653 0.44629 0.01865 0.0
C28 C 0.03722 0.43697 0.95461 0.0
C29 C 0.03595 0.45302 -0.00859 0.0
C30 C 0.08702 0.4193 0.97387 0.0
C31 C 0.21433 0.38355 0.98133 0.0
H32 H 0.1855 0.34076 0.96069 0.0
H33 H 0.08432 0.31668 0.04728 0.0
H34 H 0.23455 0.32286 0.9731 0.0
H35 H 0.03412 0.33447 0.03405 0.0
H36 H 0.08771 0.43025 0.03485 0.0
H37 H 1.00958 0.45309 0.93792 0.0
H38 H 0.06479 0.44975 0.04362 0.0
H39 H 0.03155 0.43361 0.92933 0.0
Eu40 Eu 0.98803 0.62663 0.01992 0.0
Eu41 Eu 0.99199 0.65393 0.01759 0.0
C42 C 0.98795 0.63965 0.94998 0.0
C43 C 1.00661 0.59416 0.01541 0.0
C44 C 0.99813 0.58956 0.98298 0.0
C45 C 0.04392 0.57634 0.03647 0.0
C46 C 1.01095 0.57839 0.97758 0.0
C47 C 0.03109 0.58749 0.04186 0.0
C48 C 0.03218 0.57157 0.00449 0.0
C49 C 0.98012 0.60516 0.02346 0.0
O50 O 0.88394 0.64997 0.02683 0.0
O51 O 0.88112 0.63171 0.01133 0.0
C52 C 0.85084 0.64089 0.01931 0.0
O53 O 0.96275 0.63286 0.07153 0.0
O54 O 1.01027 0.6696 -0.00821 0.0
O55 O 0.98275 0.66943 0.04454 0.0
O56 O 1.02602 0.64837 0.0695 0.0
C57 C 0.99589 0.64073 0.08696 0.0
O58 O 0.09765 0.63082 0.02571 0.0
O59 O 0.09793 0.64892 0.00785 0.0
O60 O 0.9607 0.64799 0.96551 0.0
O61 O 1.01136 0.61119 0.04605 0.0
O62 O 0.95267 0.611 -0.00077 0.0
O63 O 1.0155 0.63153 0.96709 0.0
C64 C 0.95578 0.68563 0.01329 0.0
C65 C 0.93468 0.69146 0.04176 0.0
C66 C 0.91443 0.70053 0.97739 0.0
C67 C 0.90442 0.70173 0.03817 0.0
C68 C 0.94477 0.69023 0.98099 0.0
C69 C 0.89477 0.70648 0.006 0.0
C70 C 0.99551 0.67549 0.01817 0.0
C71 C 0.12952 0.63981 0.01636 0.0
H72 H 0.97892 0.59445 0.96208 0.0
H73 H 0.05947 0.57133 0.05787 0.0
H74 H 1.00234 0.57501 0.95252 0.0
H75 H 0.03706 0.59076 0.06723 0.0
H76 H 0.94354 0.68825 0.06703 0.0
H77 H 0.90714 0.70391 0.95221 0.0
H78 H 0.89103 0.70613 0.06081 0.0
H79 H 0.96102 0.68601 0.95854 0.0
Eu80 Eu 0.05661 0.62689 0.52126 0.0
Eu81 Eu 0.05207 0.65418 0.52021 0.0
C82 C 0.04803 0.64063 0.58821 0.0
C83 C 0.03997 0.59428 0.51764 0.0
C84 C 1.02271 0.58734 0.54453 0.0
C85 C 0.03023 0.57864 0.47935 0.0
C86 C 1.01083 0.57613 0.53909 0.0
C87 C 0.04215 0.58987 0.48482 0.0
C88 C 1.01619 0.57157 0.50658 0.0
C89 C 0.06567 0.60544 0.5254 0.0
O90 O 0.16116 0.65025 0.52879 0.0
O91 O 0.16207 0.63217 0.51158 0.0
C92 C 0.19337 0.64132 0.52006 0.0
O93 O 1.02673 0.63169 0.46801 0.0
O94 O 0.06518 0.66937 0.54899 0.0
O95 O 0.03045 0.67009 0.49662 0.0
O96 O 0.0745 0.6489 0.46706 0.0
C97 C 0.04879 0.6403 0.45131 0.0
O98 O 0.94678 0.63077 0.52525 0.0
O99 O 0.94556 0.64913 0.50993 0.0
O100 O 1.01572 0.64795 0.57016 0.0
O101 O 0.09128 0.61129 0.50117 0.0
O102 O 0.03526 0.61143 0.54761 0.0
O103 O 0.08439 0.63329 0.57317 0.0
C104 C 0.08421 0.68612 0.51969 0.0
C105 C 0.11842 0.68879 0.49014 0.0
C106 C 0.11036 0.70426 0.54226 0.0
C107 C 0.14786 0.69921 0.48661 0.0
C108 C 0.08117 0.69389 0.54577 0.0
C109 C 0.14319 0.70712 0.51247 0.0
C110 C 0.04757 0.67567 0.52365 0.0
C111 C 0.91452 0.63986 0.51701 0.0
H112 H 1.02172 0.59047 0.57016 0.0
H113 H 0.03377 0.57543 0.45391 0.0
H114 H 1.00103 0.57094 0.56075 0.0
H115 H 0.05568 0.59499 0.46356 0.0
H116 H 0.1214 0.68293 0.46962 0.0
H117 H 0.1069 0.71006 0.56291 0.0
H118 H 0.17257 0.70118 0.46328 0.0
H119 H 0.05503 0.69201 0.56877 0.0
Eu120 Eu 0.99009 0.3702 0.48045 0.0
Eu121 Eu 0.98661 0.39753 0.47818 0.0
C122 C 0.99335 0.38451 0.54857 0.0
C123 C 0.95333 0.33855 0.48811 0.0
C124 C 0.95267 0.33418 0.52108 0.0
C125 C 0.89379 0.32228 0.46783 0.0
C126 C 0.92345 0.3239 0.52725 0.0
C127 C 0.92301 0.33253 0.46166 0.0
C128 C 0.89452 0.31776 0.5006 0.0
C129 C 0.99168 0.34864 0.4802 0.0
O130 O 0.09651 0.39368 0.47522 0.0
O131 O 0.09751 0.37515 0.48861 0.0
C132 C 0.12858 0.38449 0.48247 0.0
O133 O 1.02481 0.37577 0.42947 0.0
O134 O 0.95209 0.41324 0.49755 0.0
O135 O 1.00792 0.41284 0.45107 0.0
O136 O 0.96012 0.39098 0.42629 0.0
C137 C 0.9947 0.38336 0.41141 0.0
O138 O 0.88151 0.37429 0.47102 0.0
O139 O 0.88117 0.39232 0.48852 0.0
O140 O 1.01667 0.39295 0.53155 0.0
O141 O 0.97106 0.35462 0.45464 0.0
O142 O 1.01516 0.35462 0.5052 0.0
O143 O 0.96675 0.37594 0.53308 0.0
C144 C 1.00329 0.43017 0.48007 0.0
C145 C 1.02062 0.43693 0.45278 0.0
C146 C 1.01294 0.44605 0.51741 0.0
C147 C 0.03249 0.44818 0.45754 0.0
C148 C 1.00102 0.43478 0.51262 0.0
C149 C 1.02703 0.45294 0.48976 0.0
C150 C 0.9776 0.41896 0.47298 0.0
C151 C 0.84951 0.38323 0.4799 0.0
H152 H 0.97615 0.33855 0.542 0.0
H153 H 0.87294 0.31772 0.4466 0.0
H154 H 0.92425 0.32071 0.55285 0.0
H155 H 0.92375 0.33557 0.43588 0.0
H156 H 1.02168 0.43364 0.42734 0.0
H157 H 1.00934 0.44942 0.54264 0.0
H158 H 0.04235 0.45322 0.43558 0.0
H159 H 0.98743 0.4298 0.53417 0.0
Eu160 Eu 0.57433 0.87158 0.98151 0.0
Eu161 Eu 0.57872 0.89892 0.97931 0.0
C162 C 0.56673 0.88477 0.9124 0.0
C163 C 0.6116 0.83992 0.98575 0.0
C164 C 0.6327 0.83402 0.95742 0.0
C165 C 0.6536 0.82516 0.02201 0.0
C166 C 0.6633 0.82379 0.96125 0.0
C167 C 0.62295 0.83543 0.01816 0.0
C168 C 0.67328 0.81914 -0.00646 0.0
C169 C 0.57165 0.85002 0.98059 0.0
O170 O 0.46875 0.89489 0.97458 0.0
O171 O 0.46791 0.87653 -0.01003 0.0
C172 C 0.43674 0.88577 0.98261 0.0
O173 O 0.6013 0.87742 0.0342 0.0
O174 O 0.55657 0.9144 0.95288 0.0
O175 O 0.61497 0.91449 -0.00015 0.0
O176 O 0.54947 0.89416 0.032 0.0
C177 C 0.57416 0.88585 0.04937 0.0
O178 O 0.68227 0.87565 0.97209 0.0
O179 O 0.68487 0.89371 0.98938 0.0
O180 O 0.6016 0.89254 0.92739 0.0
O181 O 0.55567 0.85586 0.00689 0.0
O182 O 0.5852 0.85613 0.95443 0.0
O183 O 0.53719 0.8772 0.93032 0.0
C184 C 0.56488 0.93152 0.98289 0.0
C185 C 0.55231 0.93499 0.01606 0.0
C186 C 0.55274 0.9504 0.96337 0.0
C187 C 0.54124 0.94616 0.02286 0.0
C188 C 0.56332 0.93928 0.95659 0.0
C189 C 0.54336 0.95401 -0.00333 0.0
C190 C 0.58878 0.92035 0.97533 0.0
C191 C 0.71536 0.88462 0.98073 0.0
H192 H 0.62359 0.83715 0.93207 0.0
H193 H 0.66114 0.82187 0.04727 0.0
H194 H 0.6767 0.81933 0.93872 0.0
H195 H 0.60675 0.83971 0.04052 0.0
H196 H 0.5536 0.92917 0.03685 0.0
H197 H 0.55364 0.95623 0.94261 0.0
H198 H 0.53428 0.94871 0.04877 0.0
H199 H 0.57324 0.93681 0.93086 0.0
Eu200 Eu 0.48019 0.12662 -0.00794 0.0
Eu201 Eu 0.48591 0.15401 -0.00761 0.0
C202 C 0.4882 0.14032 0.92413 0.0
C203 C 0.49596 0.0942 -0.00059 0.0
C204 C 0.52099 0.08731 0.97425 0.0
C205 C 0.50053 0.07878 0.03893 0.0
C206 C 0.53441 0.07624 0.98111 0.0
C207 C 0.48717 0.08988 0.03206 0.0
C208 C 0.52273 0.07176 0.0133 0.0
C209 C 0.46967 0.10515 0.98971 0.0
O210 O 0.37676 0.15002 0.98388 0.0
O211 O 0.37535 0.13203 0.00209 0.0
C212 C 0.34428 0.1411 -0.00687 0.0
O213 O 0.51226 0.13156 0.04479 0.0
O214 O 0.46923 0.16943 0.96504 0.0
O215 O 0.51295 0.16971 0.01577 0.0
O216 O 0.46471 0.14869 0.04588 0.0
C217 C 0.49065 0.14012 0.06157 0.0
O218 O 0.59027 0.13036 0.98808 0.0
O219 O 0.59292 0.14898 6e-05 0.0
O220 O 0.51895 0.148 0.94166 0.0
O221 O 0.44294 0.11123 0.01291 0.0
O222 O 0.50114 0.11096 0.96725 0.0
O223 O 0.45397 0.13269 0.93953 0.0
C224 C 0.46119 0.18616 -0.00435 0.0
C225 C 0.41399 0.18768 0.02082 0.0
C226 C 0.45489 0.2056 0.98168 0.0
C227 C 0.38765 0.19818 0.02651 0.0
C228 C 0.48082 0.19516 0.976 0.0
C229 C 0.40859 0.20728 0.00724 0.0
C230 C 0.4931 0.1755 0.98964 0.0
C231 C 0.62311 0.13959 -0.00565 0.0
H232 H 0.52718 0.09035 0.94871 0.0
H233 H 0.49185 0.07563 0.06412 0.0
H234 H 0.55059 0.07106 0.96062 0.0
H235 H 0.46747 0.09493 0.05199 0.0
H236 H 0.39819 0.1808 0.03625 0.0
H237 H 0.47106 0.21237 0.96593 0.0
H238 H 0.35215 0.19923 0.04642 0.0
H239 H 0.517 0.19414 0.95636 0.0
Eu240 Eu 0.57737 0.12497 0.49234 0.0
Eu241 Eu 0.57429 0.15229 0.49431 0.0
C242 C 0.57121 0.13799 0.56242 0.0
C243 C 0.55926 0.09256 0.49846 0.0
C244 C 0.56213 0.08867 0.53199 0.0
C245 C 0.52633 0.07425 0.47958 0.0
C246 C 0.54862 0.07759 0.5391 0.0
C247 C 0.53984 0.0853 0.4725 0.0
C248 C 0.53219 0.07018 0.51285 0.0
C249 C 0.5857 0.10351 0.48923 0.0
O250 O 0.68226 0.14832 0.48544 0.0
O251 O 0.68369 0.13022 0.50252 0.0
C252 C 0.71476 0.13933 0.49401 0.0
O253 O 0.60045 0.13119 0.44016 0.0
O254 O 0.55647 0.168 0.51957 0.0
O255 O 0.5849 0.16775 0.46692 0.0
O256 O 0.53832 0.14671 0.4428 0.0
C257 C 0.56704 0.13907 0.42504 0.0
O258 O 0.46761 0.12895 0.48738 0.0
O259 O 0.46749 0.14733 0.50226 0.0
O260 O 0.5988 0.14649 0.54745 0.0
O261 O 0.55306 0.10942 0.46689 0.0
O262 O 0.61458 0.10948 0.51275 0.0
O263 O 0.54726 0.12965 0.54488 0.0
C264 C 0.60928 0.1842 0.49737 0.0
C265 C 0.61945 0.19089 0.46891 0.0
C266 C 0.65764 0.19864 0.53296 0.0
C267 C 0.64734 0.20137 0.4724 0.0
C268 C 0.62947 0.18811 0.52946 0.0
C269 C 0.66547 0.20547 0.5045 0.0
C270 C 0.5712 0.17384 0.49297 0.0
C271 C 0.43597 0.13807 0.49507 0.0
H272 H 0.57724 0.09406 0.55257 0.0
H273 H 0.51473 0.06878 0.45865 0.0
H274 H 0.55268 0.07476 0.56505 0.0
H275 H 0.53822 0.08804 0.44639 0.0
H276 H 0.60391 0.18813 0.4439 0.0
H277 H 0.67083 0.20159 0.55805 0.0
H278 H 0.6537 0.20635 0.44992 0.0
H279 H 0.62178 0.18319 0.55192 0.0
Eu280 Eu 0.5016 0.87004 0.47981 0.0
Eu281 Eu 0.49744 0.89735 0.47873 0.0
C282 C 0.50349 0.88396 0.54853 0.0
C283 C 0.47007 0.83808 0.48072 0.0
C284 C 0.43596 0.8354 0.51029 0.0
C285 C 0.44423 0.81992 0.45822 0.0
C286 C 0.40672 0.82497 0.51387 0.0
C287 C 0.47322 0.8303 0.45467 0.0
C288 C 0.4115 0.81706 0.48805 0.0
C289 C 0.5065 0.84855 0.4767 0.0
O290 O 0.60706 0.89341 0.47437 0.0
O291 O 0.60808 0.87513 0.49042 0.0
C292 C 0.63927 0.88436 0.48303 0.0
O293 O 0.53631 0.87617 0.42935 0.0
O294 O 0.46188 0.91281 0.49913 0.0
O295 O 0.52001 0.91294 0.45331 0.0
O296 O 0.47004 0.89116 0.42666 0.0
C297 C 0.50496 0.88366 0.41149 0.0
O298 O 0.39243 0.8739 0.47133 0.0
O299 O 0.39151 0.89209 0.4874 0.0
O300 O 0.52708 0.89244 0.53182 0.0
O301 O 0.48894 0.85481 0.45124 0.0
O302 O 0.52334 0.85418 0.50368 0.0
O303 O 0.47745 0.8754 0.53273 0.0
C304 C 0.51263 0.92994 0.48389 0.0
C305 C 0.5209 0.93751 0.45745 0.0
C306 C 0.52799 0.94487 0.5244 0.0
C307 C 0.53058 0.94868 0.46429 0.0
C308 C 0.51795 0.93366 0.51752 0.0
C309 C 0.53214 0.95253 0.49779 0.0
C310 C 0.48828 0.91878 0.4754 0.0
C311 C 0.36026 0.88291 0.47935 0.0
H312 H 0.4329 0.84127 0.5308 0.0
H313 H 0.44775 0.81411 0.4376 0.0
H314 H 0.38208 0.823 0.53722 0.0
H315 H 0.49928 0.83219 0.43164 0.0
H316 H 0.51656 0.93486 0.43132 0.0
H317 H 0.52884 0.94761 0.55047 0.0
H318 H 0.53468 0.95436 0.44327 0.0
H319 H 0.51138 0.92801 0.53844 0.0
H320 H 0.2988 0.36581 0.97795 0.0
H321 H 0.42044 0.36602 0.97813 0.0
H322 H 0.4199 0.40145 0.98445 0.0
H323 H 0.29867 0.40132 0.98442 0.0
H324 H 0.50816 0.39404 0.93734 0.0
H325 H 0.45668 0.38635 0.0534 0.0
H326 H 0.40374 0.37615 0.09969 0.0
H327 H 0.50496 0.34669 0.07095 0.0
H328 H 0.55781 0.35669 0.02417 0.0
H329 H 0.85066 0.40255 0.97707 0.0
H330 H 0.7293 0.40237 0.97733 0.0
H331 H 0.73027 0.36696 0.98587 0.0
H332 H 0.85129 0.36711 0.98669 0.0
H333 H 0.64075 0.3743 0.02519 0.0
H334 H 0.69143 0.38129 0.90936 0.0
H335 H 0.74367 0.39088 0.86167 0.0
H336 H 0.64364 0.42074 0.88751 0.0
H337 H 0.59146 0.41136 0.93566 0.0
C338 C 0.32446 0.37365 0.97938 0.0
C339 C 0.28852 0.38354 0.98129 0.0
C340 C 0.39418 0.37376 0.9796 0.0
C341 C 0.42969 0.38375 0.98152 0.0
C342 C 0.3939 0.39363 0.98296 0.0
C343 C 0.32435 0.39353 0.98309 0.0
C344 C 0.50399 0.38396 0.98207 0.0
C345 C 0.53715 0.38983 0.95679 0.0
C346 C 0.54219 0.37825 0.00689 0.0
C347 C 0.51065 0.37224 0.03507 0.0
C348 C 0.46722 0.37767 0.05678 0.0
C349 C 0.43731 0.37193 0.08314 0.0
C350 C 0.45083 0.36077 0.0882 0.0
C351 C 0.49444 0.35533 0.06697 0.0
C352 C 0.52443 0.36103 0.04054 0.0
C353 C 0.82513 0.39471 0.97898 0.0
C354 C 0.86123 0.38485 0.98176 0.0
C355 C 0.75543 0.39461 0.97895 0.0
C356 C 0.71987 0.38463 0.98109 0.0
C357 C 0.75597 0.37479 0.98418 0.0
C358 C 0.82553 0.37489 0.98455 0.0
C359 C 0.64535 0.38439 0.98036 0.0
C360 C 0.612 0.37851 0.00564 0.0
C361 C 0.60697 0.38999 0.9553 0.0
C362 C 0.63808 0.39565 0.92632 0.0
C363 C 0.68095 0.38992 0.90502 0.0
C364 C 0.71049 0.39532 0.87789 0.0
C365 C 0.69712 0.40642 0.87162 0.0
C366 C 0.65403 0.41215 0.89243 0.0
C367 C 0.62442 0.40679 0.91963 0.0
H368 H 0.72004 0.41058 0.8506 0.0
H369 H 0.42763 0.35634 0.10862 0.0
H370 H 0.21352 0.65724 0.00469 0.0
H371 H 0.33451 0.6574 0.00499 0.0
H372 H 0.33621 0.62255 0.02615 0.0
H373 H 0.21484 0.6224 0.02678 0.0
H374 H 0.42677 0.63162 0.06351 0.0
H375 H 0.37354 0.63433 0.94542 0.0
H376 H 0.32788 0.64134 0.89118 0.0
H377 H 0.42686 0.6723 0.90769 0.0
H378 H 0.47224 0.66556 0.96225 0.0
H379 H 0.76627 0.62313 0.02015 0.0
H380 H 0.64495 0.62311 0.02061 0.0
H381 H 0.6452 0.65859 0.01953 0.0
H382 H 0.76688 0.65871 0.01946 0.0
H383 H 0.55535 0.6492 0.97228 0.0
H384 H 0.6105 0.64578 0.09042 0.0
H385 H 0.66671 0.63752 0.14022 0.0
H386 H 0.56811 0.60672 0.12037 0.0
H387 H 0.51208 0.61475 0.07009 0.0
C388 C 0.23939 0.64958 0.00928 0.0
C389 C 0.20381 0.6398 0.01566 0.0
C390 C 0.30902 0.64967 0.00923 0.0
C391 C 0.34534 0.63996 0.0151 0.0
C392 C 0.3099 0.63018 0.02151 0.0
C393 C 0.24018 0.63009 0.02178 0.0
C394 C 0.41996 0.64008 0.01554 0.0
C395 C 0.45458 0.63535 0.04323 0.0
C396 C 0.45729 0.64512 0.98961 0.0
C397 C 0.42586 0.64946 0.95808 0.0
C398 C 0.38468 0.6427 0.93776 0.0
C399 C 0.35907 0.64661 0.90689 0.0
C400 C 0.37472 0.65724 0.89598 0.0
C401 C 0.41493 0.66406 0.91616 0.0
C402 C 0.44055 0.6602 0.94706 0.0
C403 C 0.74071 0.63096 0.02006 0.0
C404 C 0.77672 0.64093 0.01978 0.0
C405 C 0.67115 0.63092 0.02048 0.0
C406 C 0.63565 0.64085 0.02032 0.0
C407 C 0.67133 0.65082 0.01973 0.0
C408 C 0.74103 0.65087 0.01979 0.0
C409 C 0.56139 0.6408 0.02008 0.0
C410 C 0.52709 0.64552 -0.0075 0.0
C411 C 0.52447 0.63566 0.04587 0.0
C412 C 0.55758 0.63084 0.07629 0.0
C413 C 0.6012 0.63722 0.09651 0.0
C414 C 0.63297 0.63258 0.12486 0.0
C415 C 0.62111 0.62159 0.13342 0.0
C416 C 0.5773 0.61523 0.11369 0.0
C417 C 0.54549 0.61982 0.08527 0.0
H418 H 0.64577 0.61801 0.15536 0.0
H419 H 0.35627 0.66018 0.87175 0.0
H420 H 0.82865 0.62217 0.52171 0.0
H421 H 0.70702 0.62246 0.52174 0.0
H422 H 0.71025 0.6578 0.51163 0.0
H423 H 0.83135 0.6576 0.51149 0.0
H424 H 0.62288 0.6511 0.55981 0.0
H425 H 0.67009 0.64187 0.44455 0.0
H426 H 0.72081 0.63105 0.39924 0.0
H427 H 0.61794 0.60208 0.43254 0.0
H428 H 0.5673 0.6127 0.47837 0.0
H429 H 0.27881 0.65912 0.52283 0.0
H430 H 0.40018 0.659 0.5215 0.0
H431 H 0.39765 0.62353 0.51629 0.0
H432 H 0.2767 0.62363 0.51634 0.0
H433 H 0.48588 0.63035 0.47581 0.0
H434 H 0.4401 0.63896 0.59134 0.0
H435 H 0.39054 0.64929 0.63807 0.0
H436 H 0.4914 0.67867 0.60657 0.0
H437 H 0.54091 0.66855 0.55937 0.0
C438 C 0.80357 0.63001 0.51939 0.0
C439 C 0.84027 0.63985 0.51647 0.0
C440 C 0.73385 0.63016 0.51932 0.0
C441 C 0.69908 0.64016 0.5165 0.0
C442 C 0.73562 0.64998 0.51386 0.0
C443 C 0.80515 0.64983 0.51362 0.0
C444 C 0.62478 0.64043 0.51647 0.0
C445 C 0.59292 0.64667 0.54118 0.0
C446 C 0.58531 0.63445 0.49274 0.0
C447 C 0.61544 0.62806 0.4651 0.0
C448 C 0.6587 0.63317 0.44238 0.0
C449 C 0.68736 0.62708 0.41657 0.0
C450 C 0.67275 0.61587 0.41307 0.0
C451 C 0.62929 0.61075 0.43531 0.0
C452 C 0.60055 0.61681 0.46119 0.0
C453 C 0.30407 0.65129 0.52147 0.0
C454 C 0.26756 0.64139 0.5198 0.0
C455 C 0.37377 0.65122 0.52088 0.0
C456 C 0.40894 0.64123 0.51932 0.0
C457 C 0.37235 0.63136 0.51747 0.0
C458 C 0.30281 0.63143 0.51761 0.0
C459 C 0.48351 0.64101 0.51932 0.0
C460 C 0.51558 0.63478 0.49454 0.0
C461 C 0.52321 0.64692 0.54323 0.0
C462 C 0.49366 0.65302 0.57163 0.0
C463 C 0.45133 0.64764 0.59424 0.0
C464 C 0.42331 0.65346 0.62083 0.0
C465 C 0.43767 0.66464 0.62523 0.0
C466 C 0.48024 0.67002 0.6031 0.0
C467 C 0.50834 0.66424 0.57644 0.0
H468 H 0.41592 0.66912 0.64583 0.0
H469 H 0.69498 0.61117 0.39307 0.0
H470 H 0.76643 0.40066 0.49037 0.0
H471 H 0.64558 0.40071 0.49124 0.0
H472 H 0.64205 0.36577 0.47204 0.0
H473 H 0.7635 0.3657 0.4703 0.0
H474 H 0.54819 0.37505 0.43556 0.0
H475 H 0.6117 0.37697 0.55211 0.0
H476 H 0.67123 0.38404 0.60275 0.0
H477 H 0.57667 0.41541 0.58984 0.0
H478 H 0.51726 0.40858 0.53881 0.0
H479 H 0.21185 0.3667 0.48271 0.0
H480 H 0.33303 0.36658 0.48267 0.0
H481 H 0.33608 0.40206 0.484 0.0
H482 H 0.2143 0.40228 0.48373 0.0
H483 H 0.42915 0.39232 0.53021 0.0
H484 H 0.36508 0.38951 0.41248 0.0
H485 H 0.30435 0.38148 0.36362 0.0
H486 H 0.3995 0.3504 0.38162 0.0
H487 H 0.46007 0.35821 0.43094 0.0
C488 C 0.74022 0.39295 0.48638 0.0
C489 C 0.77528 0.38316 0.48041 0.0
C490 C 0.67072 0.39299 0.48706 0.0
C491 C 0.63401 0.38322 0.48229 0.0
C492 C 0.6688 0.37344 0.47591 0.0
C493 C 0.7385 0.3734 0.475 0.0
C494 C 0.55959 0.38327 0.48359 0.0
C495 C 0.52241 0.37869 0.45654 0.0
C496 C 0.52512 0.38816 0.51065 0.0
C497 C 0.56051 0.39229 0.54142 0.0
C498 C 0.60397 0.38541 0.55991 0.0
C499 C 0.63763 0.38936 0.58872 0.0
C500 C 0.62786 0.40018 0.59946 0.0
C501 C 0.58425 0.40704 0.58146 0.0
C502 C 0.55052 0.40313 0.55261 0.0
C503 C 0.23802 0.37451 0.48308 0.0
C504 C 0.20282 0.38451 0.48316 0.0
C505 C 0.30757 0.37442 0.48295 0.0
C506 C 0.34401 0.38431 0.48313 0.0
C507 C 0.30923 0.39431 0.48384 0.0
C508 C 0.23947 0.39442 0.48355 0.0
C509 C 0.41823 0.38416 0.48217 0.0
C510 C 0.45522 0.38869 0.50928 0.0
C511 C 0.45251 0.3791 0.45545 0.0
C512 C 0.41664 0.37442 0.4256 0.0
C513 C 0.37267 0.38094 0.40618 0.0
C514 C 0.33834 0.37643 0.37838 0.0
C515 C 0.34794 0.36543 0.36957 0.0
C516 C 0.39205 0.35892 0.3885 0.0
C517 C 0.42644 0.36338 0.41637 0.0
H518 H 0.3213 0.36195 0.34804 0.0
H519 H 0.65398 0.40323 0.62176 0.0
H520 H 0.79964 0.8669 0.97616 0.0
H521 H 0.92131 0.86707 0.97669 0.0
H522 H 0.92119 0.90243 0.98554 0.0
H523 H 0.79992 0.90234 0.98522 0.0
H524 H 1.00999 0.89526 0.93799 0.0
H525 H 0.95687 0.88692 0.05346 0.0
H526 H 0.90309 0.87647 0.09894 0.0
H527 H 1.00426 0.84715 0.06888 0.0
H528 H 0.05796 0.85741 0.02289 0.0
H529 H 0.35198 0.9035 0.97881 0.0
H530 H 0.23064 0.90332 0.97892 0.0
H531 H 0.23148 0.86788 0.98616 0.0
H532 H 0.35254 0.86803 0.98718 0.0
H533 H 0.14119 0.875 0.02524 0.0
H534 H 0.19348 0.88258 0.91 0.0
H535 H 0.24638 0.89239 0.86291 0.0
H536 H 0.14633 0.92215 0.88981 0.0
H537 H 0.09349 0.91255 0.93736 0.0
C538 C 0.82541 0.87472 0.97821 0.0
C539 C 0.78957 0.8846 0.98076 0.0
C540 C 0.89514 0.8748 0.97862 0.0
C541 C 0.93078 0.88477 0.98136 0.0
C542 C 0.8951 0.89464 0.98341 0.0
C543 C 0.82552 0.89456 0.98337 0.0
C544 C 1.0051 0.88494 0.98217 0.0
C545 C 0.03868 0.89094 0.95731 0.0
C546 C 0.04291 0.87908 0.0068 0.0
C547 C 1.01089 0.87291 0.03451 0.0
C548 C 0.96723 0.87823 0.05637 0.0
C549 C 0.93684 0.87234 0.08228 0.0
C550 C 0.95011 0.86114 0.08674 0.0
C551 C 0.99395 0.85582 0.06536 0.0
C552 C 1.02441 0.86167 0.03939 0.0
C553 C 0.32643 0.89565 0.98044 0.0
C554 C 0.36253 0.88578 0.98289 0.0
C555 C 0.25673 0.89555 0.9803 0.0
C556 C 0.22111 0.88556 0.98198 0.0
C557 C 0.2572 0.87571 0.98481 0.0
C558 C 0.32679 0.87582 0.98531 0.0
C559 C 0.14654 0.88533 0.98096 0.0
C560 C 0.11276 0.87932 0.00581 0.0
C561 C 0.10853 0.89108 0.95606 0.0
C562 C 0.14007 0.89687 0.92744 0.0
C563 C 0.18314 0.89124 0.90602 0.0
C564 C 0.21305 0.89676 0.87923 0.0
C565 C 0.19986 0.90789 0.87343 0.0
C566 C 0.15658 0.91353 0.89437 0.0
C567 C 0.12659 0.90805 0.92122 0.0
H568 H 0.22307 0.91215 0.85267 0.0
H569 H 0.92654 0.8566 0.10681 0.0
H570 H 0.26058 0.12378 0.00586 0.0
H571 H 0.13959 0.12363 0.00604 0.0
H572 H 0.13723 0.15821 0.98133 0.0
H573 H 0.25891 0.15846 0.98128 0.0
H574 H 0.04876 0.15325 0.03084 0.0
H575 H 0.10041 0.13882 0.92128 0.0
H576 H 0.15486 0.12628 0.88161 0.0
H577 H 0.05997 0.09854 0.92803 0.0
H578 H 1.00564 0.1109 0.96831 0.0
H579 H 0.70676 0.15731 0.98935 0.0
H580 H 0.82757 0.15751 0.98891 0.0
H581 H 0.82966 0.12217 5e-05 0.0
H582 H 0.70803 0.12189 -0.00091 0.0
H583 H 0.91929 0.12747 0.95778 0.0
H584 H 0.86871 0.14118 0.06754 0.0
H585 H 0.81521 0.15319 0.10904 0.0
H586 H 0.90878 0.18152 0.06528 0.0
H587 H 0.96217 0.16969 0.02322 0.0
C588 C 0.23464 0.13138 0.00044 0.0
C589 C 0.27005 0.14114 -0.00657 0.0
C590 C 0.16511 0.13126 0.00041 0.0
C591 C 0.12881 0.14087 -0.00669 0.0
C592 C 0.16388 0.15067 0.9868 0.0
C593 C 0.23362 0.15079 0.98668 0.0
C594 C 0.05445 0.14066 -0.00717 0.0
C595 C 1.02043 0.14772 0.01451 0.0
C596 C 1.01713 0.13322 0.97234 0.0
C597 C 0.04944 0.12578 0.94801 0.0
C598 C 0.09154 0.13004 0.92319 0.0
C599 C 0.12232 0.12296 0.90057 0.0
C600 C 0.11101 0.11162 0.90235 0.0
C601 C 0.06875 0.10733 0.92671 0.0
C602 C 0.0379 0.11437 0.94941 0.0
C603 C 0.73272 0.14956 -0.00815 0.0
C604 C 0.69726 0.13958 -0.00549 0.0
C605 C 0.80223 0.14969 -0.00822 0.0
C606 C 0.83861 0.13988 -0.00479 0.0
C607 C 0.80327 0.12988 -0.00249 0.0
C608 C 0.73351 0.12973 -0.00296 0.0
C609 C 0.91318 0.14007 -0.00416 0.0
C610 C 0.94738 0.133 0.97419 0.0
C611 C 0.95071 0.14743 0.01666 0.0
C612 C 0.91895 0.15456 0.04203 0.0
C613 C 0.87753 0.14998 0.06662 0.0
C614 C 0.84727 0.15676 0.09027 0.0
C615 C 0.85846 0.16812 0.08974 0.0
C616 C 0.9001 0.17272 0.06563 0.0
C617 C 0.93042 0.16599 0.0419 0.0
H618 H 0.83498 0.17335 0.10806 0.0
H619 H 0.1349 0.10616 0.88482 0.0
H620 H 0.35035 0.12031 0.49269 0.0
H621 H 0.229 0.12047 0.49297 0.0
H622 H 0.23172 0.15596 0.49716 0.0
H623 H 0.35275 0.15583 0.49808 0.0
H624 H 0.14162 0.14918 0.53698 0.0
H625 H 0.19229 0.14053 0.42231 0.0
H626 H 0.24412 0.13026 0.37614 0.0
H627 H 0.14238 0.1008 0.40633 0.0
H628 H 0.0906 0.11088 0.45298 0.0
H629 H 0.80024 0.15701 0.48835 0.0
H630 H 0.92187 0.1568 0.48869 0.0
H631 H 0.91938 0.12149 0.49983 0.0
H632 H 0.79817 0.12162 0.49963 0.0
H633 H 1.00826 0.12821 0.45198 0.0
H634 H 0.95678 0.13759 0.56674 0.0
H635 H 0.90424 0.14846 0.61138 0.0
H636 H 1.00722 0.17745 0.57835 0.0
H637 H 0.0597 0.16678 0.53319 0.0
C638 C 0.32518 0.12815 0.49366 0.0
C639 C 0.36178 0.13805 0.49527 0.0
C640 C 0.25549 0.12824 0.49363 0.0
C641 C 0.22041 0.13824 0.49452 0.0
C642 C 0.25701 0.14811 0.49645 0.0
C643 C 0.32659 0.14802 0.49689 0.0
C644 C 0.14586 0.13847 0.49368 0.0
C645 C 0.11273 0.1447 0.51803 0.0
C646 C 0.10724 0.13251 0.46943 0.0
C647 C 0.1381 0.12644 0.44134 0.0
C648 C 0.18134 0.13185 0.41925 0.0
C649 C 0.21065 0.12606 0.39297 0.0
C650 C 0.19669 0.11488 0.38836 0.0
C651 C 0.15323 0.10946 0.40997 0.0
C652 C 0.12384 0.11521 0.43631 0.0
C653 C 0.82547 0.14919 0.49088 0.0
C654 C 0.78897 0.13934 0.49409 0.0
C655 C 0.89519 0.14909 0.49119 0.0
C656 C 0.93017 0.13913 0.49451 0.0
C657 C 0.89383 0.12928 0.49725 0.0
C658 C 0.82427 0.12939 0.49727 0.0
C659 C 1.00448 0.13893 0.49517 0.0
C660 C 0.03742 0.1327 0.47082 0.0
C661 C 0.04291 0.14499 0.51916 0.0
C662 C 1.01162 0.15141 0.54637 0.0
C663 C 0.9678 0.1463 0.56882 0.0
C664 C 0.93811 0.15242 0.59425 0.0
C665 C 0.95223 0.16365 0.59764 0.0
C666 C 0.99624 0.16876 0.57567 0.0
C667 C 1.02601 0.16268 0.55016 0.0
H668 H 0.9292 0.16837 0.61735 0.0
H669 H 0.21944 0.11041 0.36801 0.0
H670 H 0.72484 0.90194 0.47544 0.0
H671 H 0.84622 0.90173 0.47559 0.0
H672 H 0.84397 0.86661 0.49165 0.0
H673 H 0.72297 0.86679 0.49245 0.0
H674 H 0.93897 0.87505 0.52902 0.0
H675 H 0.87419 0.87893 0.41212 0.0
H676 H 0.81637 0.88735 0.36303 0.0
H677 H 0.92139 0.91772 0.38065 0.0
H678 H 0.9792 0.90951 0.43015 0.0
H679 H 0.27464 0.86511 0.47972 0.0
H680 H 0.15292 0.86535 0.48094 0.0
H681 H 0.15601 0.90083 0.4799 0.0
H682 H 0.27718 0.90068 0.47906 0.0
H683 H 0.06164 0.89215 0.4348 0.0
H684 H 0.12693 0.88807 0.5514 0.0
H685 H 0.18575 0.87949 0.59987 0.0
H686 H 0.08028 0.84919 0.5819 0.0
H687 H 1.02159 0.85755 0.5329 0.0
C688 C 0.75006 0.89416 0.47907 0.0
C689 C 0.71357 0.88438 0.4838 0.0
C690 C 0.81977 0.89404 0.47898 0.0
C691 C 0.85494 0.88412 0.48309 0.0
C692 C 0.81855 0.87438 0.48838 0.0
C693 C 0.74898 0.87451 0.48874 0.0
C694 C 0.92936 0.88382 0.48173 0.0
C695 C 0.96552 0.87867 0.50812 0.0
C696 C 0.96492 0.8887 0.45489 0.0
C697 C 0.93053 0.89363 0.42503 0.0
C698 C 0.88461 0.88742 0.40566 0.0
C699 C 0.85189 0.89216 0.37774 0.0
C700 C 0.86507 0.90307 0.36878 0.0
C701 C 0.91116 0.90927 0.38766 0.0
C702 C 0.94395 0.90458 0.41563 0.0
C703 C 0.24946 0.87297 0.47969 0.0
C704 C 0.28608 0.88287 0.4794 0.0
C705 C 0.17976 0.87309 0.48051 0.0
C706 C 0.145 0.88312 0.48067 0.0
C707 C 0.18143 0.89299 0.47978 0.0
C708 C 0.25095 0.89288 0.47945 0.0
C709 C 0.07082 0.88336 0.48196 0.0
C710 C 0.03486 0.88851 0.45559 0.0
C711 C 0.03548 0.87844 0.5087 0.0
C712 C 0.07041 0.8734 0.53824 0.0
C713 C 0.1167 0.87955 0.55759 0.0
C714 C 0.14994 0.87473 0.5852 0.0
C715 C 0.13688 0.86379 0.59393 0.0
C716 C 0.09042 0.85765 0.57508 0.0
C717 C 0.05714 0.86243 0.54739 0.0
H718 H 0.16264 0.86008 0.61533 0.0
H719 H 0.83968 0.90672 0.34716 0.0
H720 H 0.12634 0.55752 0.03087 0.0
H721 H 0.12671 0.53741 0.02822 0.0
H722 H 0.94901 0.53799 0.96558 0.0
H723 H 0.94701 0.55806 0.96906 0.0
H724 H 0.9377 0.52328 0.01542 0.0
H725 H 0.1001 0.53189 0.93241 0.0
H726 H 0.201 0.54065 0.91034 0.0
H727 H 0.31996 0.5238 0.98526 0.0
H728 H 0.21961 0.51506 0.00808 0.0
H729 H 0.94228 0.46702 0.96434 0.0
H730 H 0.94192 0.48715 0.96658 0.0
H731 H 0.11904 0.48668 0.02966 0.0
H732 H 0.12096 0.4666 0.02665 0.0
H733 H 0.13053 0.50133 0.97941 0.0
H734 H 0.96799 0.49275 0.06248 0.0
H735 H 0.86704 0.484 0.08449 0.0
H736 H 0.74829 0.50077 0.00934 0.0
H737 H 0.8487 0.50952 0.98657 0.0
C738 C 0.08742 0.55337 0.01646 0.0
C739 C 0.03671 0.55943 0.00013 0.0
C740 C 0.08797 0.54187 0.01475 0.0
C741 C 0.03809 0.53618 -0.00349 0.0
C742 C 0.98805 0.5422 0.97976 0.0
C743 C 0.98743 0.5537 0.98147 0.0
C744 C 0.03665 0.52394 -0.00407 0.0
C745 C 0.97952 0.51848 0.00707 0.0
C746 C 0.09179 0.51767 0.98587 0.0
C747 C 0.15224 0.5229 0.97216 0.0
C748 C 0.14771 0.53012 0.94435 0.0
C749 C 0.20482 0.53507 0.93168 0.0
C750 C 0.26683 0.53281 0.94645 0.0
C751 C 0.27188 0.52556 0.97387 0.0
C752 C 0.21491 0.5206 0.98667 0.0
C753 C 0.98107 0.4712 0.97876 0.0
C754 C 0.03156 0.46518 -0.00463 0.0
C755 C 0.98054 0.48271 0.98022 0.0
C756 C 0.03025 0.48843 -0.00153 0.0
C757 C 0.08013 0.48244 0.01546 0.0
C758 C 0.08072 0.47095 0.01402 0.0
C759 C 0.03159 0.50067 -0.0011 0.0
C760 C 0.0887 0.50613 0.98774 0.0
C761 C 0.97643 0.50694 0.00893 0.0
C762 C 0.91596 0.50171 0.02261 0.0
C763 C 0.92041 0.49451 0.05047 0.0
C764 C 0.86328 0.48956 0.06312 0.0
C765 C 0.80131 0.4918 0.04827 0.0
C766 C 0.79634 0.49903 0.02079 0.0
C767 C 0.85334 0.50399 0.00802 0.0
H768 H 0.75714 0.48796 0.0581 0.0
H769 H 0.31099 0.53665 0.93659 0.0
H770 H 0.94942 0.46606 0.52881 0.0
H771 H 0.9488 0.48613 0.53169 0.0
H772 H 0.10945 0.48763 0.46145 0.0
H773 H 0.11211 0.46751 0.45941 0.0
H774 H 0.12688 0.50255 0.51081 0.0
H775 H 0.94896 0.49192 0.43506 0.0
H776 H 0.84743 0.48185 0.41764 0.0
H777 H 0.74069 0.49713 0.4977 0.0
H778 H 0.84188 0.50718 0.51591 0.0
H779 H 0.09366 0.55869 0.4667 0.0
H780 H 0.09441 0.53863 0.46282 0.0
H781 H 0.93394 0.53673 0.53308 0.0
H782 H 0.93112 0.55683 0.53611 0.0
H783 H 0.91672 0.52201 0.48315 0.0
H784 H 0.0951 0.53254 0.55909 0.0
H785 H 0.19671 0.54261 0.5764 0.0
H786 H 0.30268 0.52752 0.49573 0.0
H787 H 0.20139 0.51747 0.47764 0.0
C788 C 0.98559 0.47063 0.51449 0.0
C789 C 0.0307 0.46514 0.49377 0.0
C790 C 0.98459 0.48213 0.51584 0.0
C791 C 1.02822 0.48841 0.49629 0.0
C792 C 0.07496 0.48297 0.47657 0.0
C793 C 0.07612 0.47146 0.47526 0.0
C794 C 1.02417 0.50064 0.49588 0.0
C795 C 0.08115 0.50681 0.50433 0.0
C796 C 0.96418 0.5062 0.48806 0.0
C797 C 0.90317 0.50022 0.47704 0.0
C798 C 0.90396 0.49307 0.44911 0.0
C799 C 0.84646 0.48737 0.43907 0.0
C800 C 0.78769 0.48882 0.4566 0.0
C801 C 0.78627 0.496 0.48417 0.0
C802 C 0.84367 0.5017 0.49434 0.0
C803 C 0.05753 0.55404 0.48081 0.0
C804 C 1.01247 0.5594 0.50184 0.0
C805 C 0.05861 0.54254 0.47888 0.0
C806 C 1.01511 0.53615 0.49817 0.0
C807 C 0.96834 0.54148 0.51816 0.0
C808 C 0.9671 0.55298 0.52004 0.0
C809 C 1.01939 0.52393 0.49814 0.0
C810 C 0.96246 0.51775 0.48961 0.0
C811 C 0.07944 0.51836 0.50586 0.0
C812 C 0.1405 0.52434 0.51682 0.0
C813 C 0.13995 0.53143 0.54489 0.0
C814 C 0.1975 0.53713 0.55486 0.0
C815 C 0.25607 0.53573 0.53712 0.0
C816 C 0.25725 0.52861 0.50942 0.0
C817 C 0.1998 0.5229 0.49931 0.0
H818 H 0.30058 0.54014 0.54488 0.0
H819 H 0.74322 0.48441 0.44879 0.0
H820 H 0.62497 0.97008 0.97323 0.0
H821 H 0.62039 0.98985 0.98395 0.0
H822 H 0.45165 0.98492 0.04763 0.0
H823 H 0.45584 0.96499 0.0368 0.0
H824 H 0.4346 1.00205 0.00078 0.0
H825 H 0.59483 0.99093 0.08422 0.0
H826 H 0.69475 0.9815 0.10629 0.0
H827 H 0.81645 1.00088 0.04084 0.0
H828 H 0.71712 1.01031 0.01798 0.0
H829 H 0.43931 0.05828 0.0485 0.0
H830 H 0.4431 0.03823 0.0534 0.0
H831 H 0.6212 0.03773 -0.00514 0.0
H832 H 0.61905 0.05782 -0.00917 0.0
H833 H 0.62869 0.02305 0.0459 0.0
H834 H 0.46958 0.0326 0.95823 0.0
H835 H 0.37065 0.04186 0.93426 0.0
H836 H 0.24796 0.02527 0.00599 0.0
H837 H 0.34641 0.01602 0.03071 0.0
C838 C 0.58669 0.97319 0.98943 0.0
C839 C 0.54047 0.96599 0.00401 0.0
C840 C 0.58451 0.98448 -0.00423 0.0
C841 C 0.53603 0.98885 0.0168 0.0
C842 C 0.48961 0.9817 0.03141 0.0
C843 C 0.4922 0.97034 0.02533 0.0
C844 C 0.53317 1.00092 0.02243 0.0
C845 C 0.47646 1.00663 0.01133 0.0
C846 C 0.58843 1.0069 0.03546 0.0
C847 C 0.6484 1.00127 0.04919 0.0
C848 C 0.64283 0.99312 0.07432 0.0
C849 C 0.69939 0.98778 0.08701 0.0
C850 C 0.7619 0.99057 0.07492 0.0
C851 C 0.76799 0.99872 0.05016 0.0
C852 C 0.71157 1.00407 0.03736 0.0
C853 C 0.48015 0.05394 0.03728 0.0
C854 C 0.52874 0.05968 0.0191 0.0
C855 C 0.48182 0.04245 0.03981 0.0
C856 C 0.53181 0.03645 0.02403 0.0
C857 C 0.58194 0.04217 0.00711 0.0
C858 C 0.58036 0.05366 0.0046 0.0
C859 C 0.53045 0.02421 0.02381 0.0
C860 C 0.58644 0.01846 0.03583 0.0
C861 C 0.47466 0.01819 0.01144 0.0
C862 C 0.41544 0.02372 -0.00342 0.0
C863 C 0.42158 0.031 0.96908 0.0
C864 C 0.36559 0.03623 0.95532 0.0
C865 C 0.30309 0.03418 0.96866 0.0
C866 C 0.29643 0.02686 -0.00427 0.0
C867 C 0.3523 0.02162 0.00962 0.0
H868 H 0.25979 0.03823 0.95797 0.0
H869 H 0.80563 0.98643 0.08479 0.0
H870 H 0.4429 0.05555 0.48475 0.0
H871 H 0.44239 0.03554 0.49031 0.0
H872 H 0.6067 0.03747 0.56175 0.0
H873 H 0.6093 0.05748 0.55523 0.0
H874 H 0.63036 0.02243 0.51595 0.0
H875 H 0.44905 0.03017 0.58693 0.0
H876 H 0.34344 0.03851 0.60359 0.0
H877 H 0.24151 0.02174 0.5222 0.0
H878 H 0.34669 0.01341 0.50472 0.0
H879 H 0.60712 0.964 0.54487 0.0
H880 H 0.60638 0.98394 0.55535 0.0
H881 H 0.45688 0.98802 0.47676 0.0
H882 H 0.45702 0.96821 0.4664 0.0
H883 H 0.42896 0.99978 0.53455 0.0
H884 H 0.61425 0.99386 0.46073 0.0
H885 H 0.7204 0.98555 0.4447 0.0
H886 H 0.81502 0.99898 0.53388 0.0
H887 H 0.70911 1.00725 0.55067 0.0
C888 C 0.47878 0.05173 0.50176 0.0
C889 C 0.52624 0.05814 0.51946 0.0
C890 C 0.478 0.04028 0.5052 0.0
C891 C 0.52416 0.03497 0.5267 0.0
C892 C 0.57047 0.04137 0.54509 0.0
C893 C 0.57143 0.05283 0.54159 0.0
C894 C 0.52665 0.02274 0.52816 0.0
C895 C 0.58658 0.01749 0.52076 0.0
C896 C 0.46942 0.01625 0.53393 0.0
C897 C 0.40593 0.02123 0.54436 0.0
C898 C 0.40422 0.02832 0.57241 0.0
C899 C 0.3444 0.03304 0.58204 0.0
C900 C 0.28583 0.03067 0.56393 0.0
C901 C 0.28693 0.02357 0.5362 0.0
C902 C 0.34663 0.01883 0.52645 0.0
C903 C 0.57401 0.96917 0.52996 0.0
C904 C 0.53267 0.96456 0.50457 0.0
C905 C 0.57376 0.98054 0.53588 0.0
C906 C 0.53177 0.98746 0.5167 0.0
C907 C 0.48966 0.98284 0.49183 0.0
C908 C 0.4903 0.97153 0.48572 0.0
C909 C 0.53219 0.99957 0.52177 0.0
C910 C 0.47284 1.00476 0.53033 0.0
C911 C 0.58998 1.00601 0.51728 0.0
C912 C 0.65362 1.00106 0.50716 0.0
C913 C 0.65756 0.99496 0.47707 0.0
C914 C 0.7177 0.99027 0.46782 0.0
C915 C 0.77437 0.99171 0.48831 0.0
C916 C 0.77105 0.99786 0.51806 0.0
C917 C 0.711 1.00255 0.52745 0.0
H918 H 0.82089 0.98807 0.4811 0.0
H919 H 0.23957 0.03433 0.57142 0.0
H920 H 0.29301 0.31153 0.01415 0.0
H921 H 0.33447 0.29266 0.01799 0.0
H922 H 0.13384 0.28041 0.02326 0.0
H923 H 0.09192 0.29921 0.01906 0.0
H924 H 0.2165 0.26951 0.0673 0.0
H925 H 0.21349 0.27962 0.94977 0.0
H926 H 0.2394 0.29124 0.9005 0.0
H927 H 0.44777 0.28657 0.91971 0.0
H928 H 0.42309 0.27505 0.96942 0.0
H929 H 0.28047 0.21366 0.01881 0.0
H930 H 0.2388 0.23248 0.02449 0.0
H931 H 0.43784 0.24518 0.01538 0.0
H932 H 0.4796 0.22646 0.00973 0.0
H933 H 0.35494 0.25586 0.9741 0.0
H934 H 0.35773 0.24533 0.09118 0.0
H935 H 0.33122 0.23369 0.14032 0.0
H936 H 0.12318 0.23899 0.12188 0.0
H937 H 0.14842 0.25054 0.07232 0.0
C938 C 0.25767 0.30483 0.01611 0.0
C939 C 0.18908 0.30691 0.0161 0.0
C940 C 0.28146 0.29404 0.0184 0.0
C941 C 0.2372 0.28511 0.02053 0.0
C942 C 0.1689 0.28717 0.02172 0.0
C943 C 0.14506 0.29795 0.01942 0.0
C944 C 0.26188 0.2736 0.02004 0.0
C945 C 0.2462 0.26648 0.04677 0.0
C946 C 0.30147 0.26969 -0.0065 0.0
C947 C 0.31644 0.27657 0.96352 0.0
C948 C 0.26484 0.28114 0.94364 0.0
C949 C 0.2793 0.2877 0.91562 0.0
C950 C 0.34519 0.28967 0.90704 0.0
C951 C 0.39676 0.28505 0.92642 0.0
C952 C 0.38256 0.2785 0.95451 0.0
C953 C 0.31541 0.22046 0.01856 0.0
C954 C 0.38326 0.21857 0.01354 0.0
C955 C 0.29155 0.23122 0.02178 0.0
C956 C 0.33522 0.24026 0.02041 0.0
C957 C 0.40314 0.23835 0.01629 0.0
C958 C 0.4269 0.22764 0.01298 0.0
C959 C 0.31018 0.25175 0.02155 0.0
C960 C 0.32552 0.25888 -0.00523 0.0
C961 C 0.27027 0.25563 0.04802 0.0
C962 C 0.25496 0.2487 0.07783 0.0
C963 C 0.3063 0.24393 0.09743 0.0
C964 C 0.29151 0.23737 0.12539 0.0
C965 C 0.22555 0.23558 0.13416 0.0
C966 C 0.17425 0.24037 0.11503 0.0
C967 C 0.18877 0.24693 0.08702 0.0
H968 H 0.21421 0.23049 0.15582 0.0
H969 H 0.35629 0.29474 0.88532 0.0
H970 H 0.63286 0.80269 0.03608 0.0
H971 H 0.672 0.78369 0.03872 0.0
H972 H 0.81321 0.79079 0.96107 0.0
H973 H 0.77482 0.80985 0.95851 0.0
H974 H 0.74533 0.77211 0.94742 0.0
H975 H 0.86393 0.78729 0.04286 0.0
H976 H 0.87717 0.79732 0.09676 0.0
H977 H 0.75015 0.77391 0.1453 0.0
H978 H 0.73539 0.76382 0.09154 0.0
H979 H 0.93566 0.72301 0.96384 0.0
H980 H 0.89677 0.74202 0.96148 0.0
H981 H 0.75538 0.73485 0.03898 0.0
H982 H 0.79347 0.71577 0.04125 0.0
H983 H 0.82327 0.75357 0.05277 0.0
H984 H 0.70461 0.73839 0.95736 0.0
H985 H 0.69126 0.72837 0.90346 0.0
H986 H 0.8183 0.75176 0.85487 0.0
H987 H 0.83317 0.76185 0.90863 0.0
C988 C 0.67314 0.80028 0.02002 0.0
C989 C 0.70068 0.80782 -0.00292 0.0
C990 C 0.69531 0.78939 0.02147 0.0
C991 C 0.74574 0.78582 0.00018 0.0
C992 C 0.77403 0.79335 0.97763 0.0
C993 C 0.75194 0.80424 0.97617 0.0
C994 C 0.76741 0.77413 0.0006 0.0
C995 C 0.76331 0.7681 0.97036 0.0
C996 C 0.78922 0.76882 0.0307 0.0
C997 C 0.79803 0.77486 0.06307 0.0
C998 C 0.83836 0.78433 0.06495 0.0
C999 C 0.84623 0.79002 0.09549 0.0
C1000 C 0.81437 0.78627 0.12441 0.0
C1001 C 0.77471 0.77681 0.12287 0.0
C1002 C 0.76663 0.7711 0.09237 0.0
C1003 C 0.89541 0.7254 0.97994 0.0
C1004 C 0.86769 0.71784 0.00273 0.0
C1005 C 0.87339 0.7363 0.97865 0.0
C1006 C 0.82295 0.73986 -4e-05 0.0
C1007 C 0.79457 0.73231 0.02241 0.0
C1008 C 0.81649 0.7214 0.0237 0.0
C1009 C 0.80123 0.75154 -0.00042 0.0
C1010 C 0.80531 0.75758 0.02983 0.0
C1011 C 0.7794 0.75686 0.96949 0.0
C1012 C 0.77053 0.75082 0.93712 0.0
C1013 C 0.73016 0.74135 0.93526 0.0
C1014 C 0.72223 0.73566 0.90472 0.0
C1015 C 0.75405 0.73941 0.87578 0.0
C1016 C 0.79375 0.74886 0.87732 0.0
C1017 C 0.8019 0.75457 0.90781 0.0
H1018 H 0.74783 0.735 0.85216 0.0
H1019 H 0.82054 0.79068 0.14804 0.0
H1020 H 0.08575 0.72658 0.52977 0.0
H1021 H 0.13197 0.74511 0.52537 0.0
H1022 H 0.30811 0.73195 0.48075 0.0
H1023 H 0.26274 0.71326 0.48597 0.0
H1024 H 0.33845 0.74696 0.5294 0.0
H1025 H 0.19287 0.74524 0.43228 0.0
H1026 H 0.08732 0.74194 0.40125 0.0
H1027 H 0.99319 0.76692 0.45986 0.0
H1028 H 0.098 0.77026 0.49158 0.0
H1029 H 0.46919 0.79761 0.47078 0.0
H1030 H 0.42318 0.77906 0.4752 0.0
H1031 H 0.24691 0.79218 0.51983 0.0
H1032 H 0.29207 0.81088 0.51459 0.0
H1033 H 0.21672 0.77718 0.47113 0.0
H1034 H 0.36236 0.7789 0.56826 0.0
H1035 H 0.46794 0.78219 0.59926 0.0
H1036 H 0.56201 0.75723 0.54059 0.0
H1037 H 0.45716 0.75389 0.50889 0.0
C1038 C 0.13452 0.7276 0.51919 0.0
C1039 C 0.17071 0.71843 0.50836 0.0
C1040 C 0.1606 0.73823 0.51639 0.0
C1041 C 0.22325 0.73994 0.50245 0.0
C1042 C 0.25956 0.73082 0.49151 0.0
C1043 C 0.2334 0.72016 0.49427 0.0
C1044 C 0.2512 0.75126 0.50003 0.0
C1045 C 0.31233 0.75353 0.51621 0.0
C1046 C 0.21625 0.7599 0.48361 0.0
C1047 C 0.15316 0.75793 0.46453 0.0
C1048 C 0.14953 0.74997 0.43874 0.0
C1049 C 0.08986 0.7481 0.42099 0.0
C1050 C 0.03354 0.7542 0.42863 0.0
C1051 C 0.03683 0.76219 0.45399 0.0
C1052 C 0.09638 0.76408 0.47185 0.0
C1053 C 0.42044 0.79658 0.48137 0.0
C1054 C 0.38415 0.80574 0.49219 0.0
C1055 C 0.39448 0.78594 0.48419 0.0
C1056 C 0.33184 0.78421 0.49812 0.0
C1057 C 0.29544 0.79332 0.50906 0.0
C1058 C 0.32149 0.80399 0.5063 0.0
C1059 C 0.30396 0.77289 0.50051 0.0
C1060 C 0.24284 0.77061 0.48432 0.0
C1061 C 0.33893 0.76424 0.51692 0.0
C1062 C 0.40204 0.76622 0.53598 0.0
C1063 C 0.40569 0.77417 0.56177 0.0
C1064 C 0.46538 0.77604 0.57951 0.0
C1065 C 0.52169 0.76994 0.57185 0.0
C1066 C 0.51837 0.76195 0.54648 0.0
C1067 C 0.45881 0.76006 0.52864 0.0
H1068 H 0.56786 0.77139 0.58561 0.0
H1069 H 0.98739 0.75274 0.41486 0.0
H1070 H 0.78187 0.30832 0.47325 0.0
H1071 H 0.74385 0.2893 0.47922 0.0
H1072 H 0.90864 0.28256 0.54734 0.0
H1073 H 0.94835 0.30149 0.54054 0.0
H1074 H 0.89549 0.26669 0.50109 0.0
H1075 H 0.75019 0.28493 0.5766 0.0
H1076 H 0.66981 0.29894 0.59413 0.0
H1077 H 0.53118 0.28772 0.51764 0.0
H1078 H 0.61111 0.27374 0.49932 0.0
H1079 H 0.76901 0.21335 0.54397 0.0
H1080 H 0.80815 0.23247 0.5487 0.0
H1081 H 0.65499 0.24272 0.47781 0.0
H1082 H 0.61499 0.22377 0.47351 0.0
H1083 H 0.66508 0.25668 0.53085 0.0
H1084 H 0.81276 0.23957 0.45264 0.0
H1085 H 0.89297 0.22568 0.43405 0.0
H1086 H 1.02677 0.23489 0.51518 0.0
H1087 H 0.94687 0.24874 0.53454 0.0
C1088 C 0.81008 0.3028 0.48951 0.0
C1089 C 0.86819 0.30645 0.50642 0.0
C1090 C 0.78791 0.29194 0.49316 0.0
C1091 C 0.823 0.28451 0.51401 0.0
C1092 C 0.88062 0.28815 0.53122 0.0
C1093 C 0.90288 0.29901 0.52756 0.0
C1094 C 0.80091 0.27285 0.51673 0.0
C1095 C 0.84546 0.26449 0.50824 0.0
C1096 C 0.73524 0.26997 0.52536 0.0
C1097 C 0.68689 0.27834 0.53642 0.0
C1098 C 0.70275 0.2855 0.56335 0.0
C1099 C 0.65723 0.29343 0.57346 0.0
C1100 C 0.59548 0.29423 0.55696 0.0
C1101 C 0.57905 0.28709 0.53038 0.0
C1102 C 0.62442 0.27916 0.52015 0.0
C1103 C 0.74346 0.2197 0.52961 0.0
C1104 C 0.6893 0.21703 0.50813 0.0
C1105 C 0.76609 0.2306 0.53217 0.0
C1106 C 0.73485 0.23901 0.51336 0.0
C1107 C 0.67997 0.23638 0.49249 0.0
C1108 C 0.65756 0.22551 0.48982 0.0
C1109 C 0.75944 0.25056 0.51489 0.0
C1110 C 0.71532 0.25888 0.52412 0.0
C1111 C 0.82544 0.2534 0.50688 0.0
C1112 C 0.87351 0.24509 0.49528 0.0
C1113 C 0.85903 0.23856 0.4667 0.0
C1114 C 0.90448 0.23071 0.45598 0.0
C1115 C 0.96483 0.22938 0.47349 0.0
C1116 C 0.97993 0.23592 0.50169 0.0
C1117 C 0.9346 0.24377 0.51254 0.0
H1118 H 0.99997 0.2233 0.46515 0.0
H1119 H 0.56031 0.30038 0.56482 0.0
H1120 H 0.12612 0.37061 0.09534 0.0
H1121 H 0.11426 0.37051 0.15671 0.0
H1122 H 0.99686 0.40006 0.15006 0.0
H1123 H 1.00961 0.40036 0.08873 0.0
H1124 H 0.08163 0.40122 0.20253 0.0
H1125 H 0.92449 0.37454 0.15997 0.0
H1126 H 0.88818 0.35824 0.12729 0.0
H1127 H 1.01979 0.33786 0.18655 0.0
H1128 H 0.05757 0.35408 0.21929 0.0
H1129 H 0.94163 0.39808 0.36581 0.0
H1130 H 0.95568 0.39847 0.30452 0.0
H1131 H 0.07765 0.36944 0.31128 0.0
H1132 H 0.06321 0.36889 0.37247 0.0
H1133 H 0.99047 0.36806 0.25886 0.0
H1134 H 0.14712 0.3948 0.3016 0.0
H1135 H 0.18272 0.41112 0.33436 0.0
H1136 H 0.05101 0.43141 0.27488 0.0
H1137 H 1.01391 0.41517 0.24205 0.0
C1138 C 0.09797 0.37712 0.10689 0.0
C1139 C 0.0685 0.38546 0.08702 0.0
C1140 C 0.091 0.37702 0.14202 0.0
C1141 C 0.05375 0.38518 0.158 0.0
C1142 C 1.02567 0.39366 0.13832 0.0
C1143 C 0.03291 0.3938 0.10321 0.0
C1144 C 0.04328 0.3848 0.19513 0.0
C1145 C 0.06091 0.39402 0.21477 0.0
C1146 C 1.01743 0.37533 0.21128 0.0
C1147 C 0.9943 0.36554 0.19186 0.0
C1148 C 0.94601 0.3666 0.16588 0.0
C1149 C 0.92512 0.35737 0.14737 0.0
C1150 C 0.95179 0.34703 0.15478 0.0
C1151 C 0.99924 0.34588 0.18081 0.0
C1152 C 1.02037 0.35509 0.19937 0.0
C1153 C 0.97129 0.39175 0.35428 0.0
C1154 C 1.00144 0.38347 0.37412 0.0
C1155 C 0.97952 0.39202 0.31923 0.0
C1156 C 1.01838 0.38406 0.30333 0.0
C1157 C 0.04753 0.37567 0.32299 0.0
C1158 C 0.03932 0.37539 0.35801 0.0
C1159 C 1.02887 0.38447 0.26623 0.0
C1160 C 1.0112 0.37526 0.2466 0.0
C1161 C 0.05456 0.39395 0.2501 0.0
C1162 C 0.07728 0.40375 0.26958 0.0
C1163 C 0.1254 0.40273 0.29566 0.0
C1164 C 0.14591 0.41197 0.31422 0.0
C1165 C 0.11902 0.42229 0.30676 0.0
C1166 C 0.07173 0.42341 0.28065 0.0
C1167 C 0.05099 0.41419 0.26204 0.0
H1168 H 0.13493 0.42944 0.32117 0.0
H1169 H 0.93558 0.33989 0.14041 0.0
H1170 H 0.95967 0.62443 0.13075 0.0
H1171 H 0.9679 0.62458 0.19244 0.0
H1172 H 0.04818 0.65757 0.18978 0.0
H1173 H 0.04193 0.65735 0.12794 0.0
H1174 H 0.11588 0.64572 0.23355 0.0
H1175 H 0.88409 0.65188 0.21172 0.0
H1176 H 0.77337 0.64798 0.1867 0.0
H1177 H 0.76835 0.61685 0.23827 0.0
H1178 H 0.87948 0.62048 0.2632 0.0
H1179 H 0.07947 0.65717 0.40819 0.0
H1180 H 0.0691 0.6574 0.34655 0.0
H1181 H 0.99656 0.62393 0.34764 0.0
H1182 H 1.0056 0.62368 0.40939 0.0
H1183 H 0.92402 0.63629 0.30482 0.0
H1184 H 0.15699 0.63013 0.32569 0.0
H1185 H 0.26764 0.63414 0.35058 0.0
H1186 H 0.26947 0.66557 0.30069 0.0
H1187 H 0.1584 0.66181 0.27586 0.0
C1188 C 0.97889 0.63174 0.14327 0.0
C1189 C 0.99997 0.64089 0.12441 0.0
C1190 C 0.98328 0.63183 0.1786 0.0
C1191 C 1.0077 0.64116 0.19586 0.0
C1192 C 1.02906 0.65029 0.17706 0.0
C1193 C 1.02535 0.65016 0.1417 0.0
C1194 C 1.01225 0.6413 0.23347 0.0
C1195 C 0.07361 0.64382 0.24911 0.0
C1196 C 0.95753 0.63858 0.25386 0.0
C1197 C 0.89041 0.63642 0.2391 0.0
C1198 C 0.85958 0.64417 0.21754 0.0
C1199 C 0.79672 0.64201 0.2034 0.0
C1200 C 0.76392 0.63217 0.21085 0.0
C1201 C 0.79385 0.62447 0.2325 0.0
C1202 C 0.85675 0.62658 0.24667 0.0
C1203 C 0.06149 0.64983 0.39538 0.0
C1204 C 0.04367 0.64039 0.41381 0.0
C1205 C 0.05576 0.64997 0.36007 0.0
C1206 C 0.03279 0.64064 0.34239 0.0
C1207 C 1.01446 0.63123 0.36072 0.0
C1208 C 1.0199 0.63109 0.39605 0.0
C1209 C 1.02761 0.6407 0.30482 0.0
C1210 C 0.96616 0.63821 0.28921 0.0
C1211 C 0.08215 0.64349 0.28444 0.0
C1212 C 0.14912 0.64573 0.29918 0.0
C1213 C 0.18079 0.63793 0.32023 0.0
C1214 C 0.24362 0.64015 0.33429 0.0
C1215 C 0.27549 0.65012 0.32729 0.0
C1216 C 0.24469 0.65787 0.30613 0.0
C1217 C 0.18183 0.65569 0.29203 0.0
H1218 H 0.32412 0.65182 0.33821 0.0
H1219 H 0.71524 0.63052 0.19992 0.0
H1220 H 0.07184 0.62811 0.91028 0.0
H1221 H 0.07783 0.62841 0.84855 0.0
H1222 H 0.91337 0.65093 0.84312 0.0
H1223 H 0.90787 0.65089 0.90512 0.0
H1224 H 0.9089 0.63223 0.79454 0.0
H1225 H 0.04266 0.66246 0.83058 0.0
H1226 H 0.12712 0.67193 0.86599 0.0
H1227 H 0.27662 0.65002 0.83014 0.0
H1228 H 0.19263 0.64031 0.79485 0.0
H1229 H 0.95527 0.65114 0.62546 0.0
H1230 H 0.94263 0.65069 0.68682 0.0
H1231 H 0.11274 0.62946 0.69672 0.0
H1232 H 0.12538 0.62975 0.63513 0.0
H1233 H 0.1116 0.6478 0.74313 0.0
H1234 H 0.96997 0.61812 0.70396 0.0
H1235 H 0.88079 0.60991 0.66848 0.0
H1236 H 0.74032 0.6324 0.7098 0.0
H1237 H 0.82895 0.64087 0.74518 0.0
C1238 C 0.03663 0.63308 0.89599 0.0
C1239 C 0.9895 0.63951 0.91257 0.0
C1240 C 0.04019 0.63324 0.86074 0.0
C1241 C 0.99604 0.63969 0.84137 0.0
C1242 C 0.9477 0.64588 0.8577 0.0
C1243 C 0.94491 0.64589 0.89307 0.0
C1244 C 1.00275 0.64027 0.80416 0.0
C1245 C 0.95275 0.63574 0.78322 0.0
C1246 C 0.06026 0.64477 0.78954 0.0
C1247 C 0.11128 0.65058 0.8104 0.0
C1248 C 0.09344 0.6596 0.8305 0.0
C1249 C 0.1412 0.66502 0.85049 0.0
C1250 C 0.20712 0.66156 0.85041 0.0
C1251 C 0.22548 0.65268 0.83024 0.0
C1252 C 0.17782 0.64721 0.8102 0.0
C1253 C 0.99013 0.64638 0.64065 0.0
C1254 C 0.0413 0.64046 0.62543 0.0
C1255 C 0.98266 0.64611 0.6757 0.0
C1256 C 1.02653 0.64 0.69624 0.0
C1257 C 0.07835 0.63422 0.68124 0.0
C1258 C 0.08534 0.63436 0.64609 0.0
C1259 C 1.01804 0.63964 0.73338 0.0
C1260 C 0.06778 0.64424 0.75437 0.0
C1261 C 0.95973 0.63536 0.74794 0.0
C1262 C 0.90623 0.6302 0.72697 0.0
C1263 C 0.92018 0.62138 0.70528 0.0
C1264 C 0.86971 0.61667 0.68522 0.0
C1265 C 0.80496 0.62065 0.68682 0.0
C1266 C 0.79051 0.62933 0.70856 0.0
C1267 C 0.84084 0.63408 0.72864 0.0
H1268 H 0.76595 0.61699 0.67126 0.0
H1269 H 0.24381 0.66582 0.86591 0.0
H1270 H 0.958 0.36808 0.59234 0.0
H1271 H 0.9687 0.36801 0.65397 0.0
H1272 H 0.04928 0.40096 0.65166 0.0
H1273 H 0.03981 0.40105 0.58992 0.0
H1274 H 0.12063 0.38821 0.69344 0.0
H1275 H 0.88922 0.39589 0.67591 0.0
H1276 H 0.77652 0.3927 0.65237 0.0
H1277 H 0.76835 0.36136 0.70264 0.0
H1278 H 0.88142 0.36429 0.72608 0.0
H1279 H 0.10089 0.39967 0.86834 0.0
H1280 H 0.08614 0.39989 0.80693 0.0
H1281 H 1.00142 0.36723 0.81005 0.0
H1282 H 1.01443 0.36705 0.87174 0.0
H1283 H 0.93161 0.3798 0.76776 0.0
H1284 H 0.16352 0.37206 0.78474 0.0
H1285 H 0.2766 0.3752 0.80782 0.0
H1286 H 0.28388 0.40665 0.7582 0.0
H1287 H 0.17047 0.40376 0.73518 0.0
C1288 C 0.97773 0.37535 0.60488 0.0
C1289 C 0.99792 0.38458 0.5861 0.0
C1290 C 0.98358 0.3753 0.6402 0.0
C1291 C 1.00914 0.38453 0.65753 0.0
C1292 C 1.02937 0.39375 0.63886 0.0
C1293 C 1.02374 0.3938 0.60353 0.0
C1294 C 1.01623 0.38446 0.69506 0.0
C1295 C 0.07908 0.38652 0.70971 0.0
C1296 C 0.96239 0.38199 0.71628 0.0
C1297 C 0.89407 0.38027 0.70251 0.0
C1298 C 0.86358 0.38828 0.68176 0.0
C1299 C 0.79961 0.38653 0.66846 0.0
C1300 C 0.76537 0.37682 0.67594 0.0
C1301 C 0.79496 0.36887 0.69683 0.0
C1302 C 0.85897 0.37058 0.71016 0.0
C1303 C 0.07936 0.3925 0.85601 0.0
C1304 C 0.05923 0.38331 0.87499 0.0
C1305 C 0.07111 0.39263 0.82081 0.0
C1306 C 0.04356 0.38351 0.80371 0.0
C1307 C 1.0229 0.37436 0.82263 0.0
C1308 C 0.03061 0.37426 0.8579 0.0
C1309 C 0.03606 0.38356 0.76616 0.0
C1310 C 0.97316 0.38149 0.7515 0.0
C1311 C 0.08985 0.38602 0.74488 0.0
C1312 C 0.15827 0.38773 0.75849 0.0
C1313 C 0.18907 0.37967 0.77894 0.0
C1314 C 0.25325 0.38141 0.79198 0.0
C1315 C 0.28734 0.39113 0.78455 0.0
C1316 C 0.25739 0.39913 0.76397 0.0
C1317 C 0.19319 0.39744 0.75089 0.0
H1318 H 0.33701 0.39246 0.79468 0.0
H1319 H 0.71586 0.37548 0.66561 0.0
H1320 H 0.50914 0.90057 0.08898 0.0
H1321 H 0.49849 0.90024 0.15034 0.0
H1322 H 0.61879 0.87099 0.15606 0.0
H1323 H 0.62841 0.8711 0.09451 0.0
H1324 H 0.5143 0.86879 0.19479 0.0
H1325 H 0.68028 0.89669 0.17948 0.0
H1326 H 0.72791 0.91368 0.15562 0.0
H1327 H 0.56976 0.93259 0.19714 0.0
H1328 H 0.52067 0.91568 0.22089 0.0
H1329 H 0.57559 0.86963 0.37217 0.0
H1330 H 0.58753 0.87015 0.31085 0.0
H1331 H 0.46033 0.89857 0.30487 0.0
H1332 H 0.4488 0.89821 0.36636 0.0
H1333 H 0.56847 0.90123 0.26647 0.0
H1334 H 0.40282 0.87322 0.28175 0.0
H1335 H 0.35611 0.85619 0.30586 0.0
H1336 H 0.51518 0.83746 0.26453 0.0
H1337 H 0.56337 0.8544 0.24056 0.0
C1338 C 0.53368 0.89409 0.10325 0.0
C1339 C 0.56981 0.88587 0.08677 0.0
C1340 C 0.52774 0.89394 0.13841 0.0
C1341 C 0.55852 0.88567 0.15793 0.0
C1342 C 0.59464 0.87746 0.14155 0.0
C1343 C 0.60026 0.87756 0.10634 0.0
C1344 C 0.55176 0.88544 0.19531 0.0
C1345 C 0.5271 0.87584 0.2105 0.0
C1346 C 0.56687 0.89471 0.21579 0.0
C1347 C 0.59648 0.9049 0.20169 0.0
C1348 C 0.65539 0.90446 0.18332 0.0
C1349 C 0.6827 0.91408 0.16985 0.0
C1350 C 0.65179 0.9242 0.17479 0.0
C1351 C 0.5936 0.92474 0.1933 0.0
C1352 C 0.56606 0.91514 0.2068 0.0
C1353 C 0.54994 0.87598 0.35786 0.0
C1354 C 0.51103 0.88386 0.3742 0.0
C1355 C 0.55667 0.87624 0.32275 0.0
C1356 C 0.52425 0.88433 0.30321 0.0
C1357 C 0.48572 0.89225 0.31944 0.0
C1358 C 0.479 0.892 0.35459 0.0
C1359 C 0.53114 0.88459 0.26587 0.0
C1360 C 0.55577 0.89419 0.25072 0.0
C1361 C 0.51616 0.87531 0.24543 0.0
C1362 C 0.48703 0.8651 0.25963 0.0
C1363 C 0.42811 0.86548 0.27802 0.0
C1364 C 0.40132 0.85584 0.29162 0.0
C1365 C 0.43275 0.84576 0.2868 0.0
C1366 C 0.49093 0.84528 0.26828 0.0
C1367 C 0.51797 0.8549 0.25465 0.0
H1368 H 0.41194 0.8383 0.29737 0.0
H1369 H 0.67299 0.93164 0.16434 0.0
H1370 H 0.53104 0.12323 0.10297 0.0
H1371 H 0.54248 0.12329 0.16457 0.0
H1372 H 0.47523 0.15692 0.16702 0.0
H1373 H 0.46402 0.15699 0.10524 0.0
H1374 H 0.58339 0.15387 0.20814 0.0
H1375 H 0.37288 0.13643 0.18977 0.0
H1376 H 0.29365 0.12301 0.1651 0.0
H1377 H 0.40514 0.09644 0.20953 0.0
H1378 H 0.48565 0.10971 0.23408 0.0
H1379 H 0.5204 0.15581 0.38489 0.0
H1380 H 0.50792 0.15604 0.32323 0.0
H1381 H 0.58517 0.12304 0.31869 0.0
H1382 H 0.59811 0.12274 0.38043 0.0
H1383 H 0.47076 0.12594 0.27884 0.0
H1384 H 0.68168 0.14367 0.29697 0.0
H1385 H 0.75934 0.15729 0.3219 0.0
H1386 H 0.64453 0.1836 0.27818 0.0
H1387 H 0.56556 0.17012 0.25337 0.0
C1388 C 0.51851 0.13065 0.11653 0.0
C1389 C 0.49641 0.1401 0.09908 0.0
C1390 C 0.52486 0.13065 0.15181 0.0
C1391 C 0.50915 0.14008 0.17046 0.0
C1392 C 0.48755 0.14955 0.15315 0.0
C1393 C 0.48091 0.14955 0.11783 0.0
C1394 C 0.51603 0.14005 0.20799 0.0
C1395 C 0.55799 0.14787 0.22363 0.0
C1396 C 0.48399 0.13207 0.22818 0.0
C1397 C 0.43569 0.12406 0.21347 0.0
C1398 C 0.38085 0.12772 0.19403 0.0
C1399 C 0.33564 0.12014 0.18012 0.0
C1400 C 0.34446 0.10887 0.18567 0.0
C1401 C 0.39843 0.10517 0.20521 0.0
C1402 C 0.44385 0.11272 0.21916 0.0
C1403 C 0.53486 0.1486 0.37081 0.0
C1404 C 0.56039 0.13926 0.38761 0.0
C1405 C 0.52788 0.14876 0.33555 0.0
C1406 C 0.54597 0.13958 0.31636 0.0
C1407 C 0.57096 0.13022 0.33302 0.0
C1408 C 0.57858 0.13008 0.3683 0.0
C1409 C 0.53824 0.13973 0.27891 0.0
C1410 C 0.49609 0.13195 0.26331 0.0
C1411 C 0.56986 0.14777 0.25878 0.0
C1412 C 0.61731 0.15589 0.27361 0.0
C1413 C 0.67264 0.15236 0.29292 0.0
C1414 C 0.71697 0.16005 0.30698 0.0
C1415 C 0.70677 0.1713 0.30171 0.0
C1416 C 0.6523 0.17488 0.28229 0.0
C1417 C 0.60777 0.16722 0.2682 0.0
H1418 H 0.74116 0.17725 0.31261 0.0
H1419 H 0.30938 0.10302 0.17488 0.0
H1420 H 0.43481 0.12533 0.87924 0.0
H1421 H 0.44782 0.12483 0.81786 0.0
H1422 H 0.56877 0.15419 0.8231 0.0
H1423 H 0.55534 0.15485 0.8843 0.0
H1424 H 0.48119 0.15524 0.77094 0.0
H1425 H 0.63842 0.12877 0.81451 0.0
H1426 H 0.67345 0.11248 0.84753 0.0
H1427 H 0.54166 0.09205 0.78805 0.0
H1428 H 0.50515 0.10826 0.75497 0.0
H1429 H 0.62044 0.15309 0.60812 0.0
H1430 H 0.60626 0.15325 0.66938 0.0
H1431 H 0.49241 0.12314 0.66259 0.0
H1432 H 0.50756 0.12278 0.60149 0.0
H1433 H 0.57452 0.12231 0.71552 0.0
H1434 H 0.4172 0.14844 0.67178 0.0
H1435 H 0.37991 0.16459 0.63878 0.0
H1436 H 0.50847 0.18551 0.69843 0.0
H1437 H 0.54723 0.16945 0.7315 0.0
C1438 C 0.46403 0.13171 0.86735 0.0
C1439 C 0.49423 0.14011 0.88677 0.0
C1440 C 0.47166 0.13138 0.83224 0.0
C1441 C 0.50996 0.1394 0.81588 0.0
C1442 C 0.53909 0.14791 0.83514 0.0
C1443 C 0.53147 0.14825 0.87019 0.0
C1444 C 0.52014 0.13894 0.77874 0.0
C1445 C 0.50236 0.1481 0.75887 0.0
C1446 C 0.54623 0.12951 0.76283 0.0
C1447 C 0.5686 0.11974 0.78249 0.0
C1448 C 0.61657 0.12081 0.80863 0.0
C1449 C 0.63674 0.11159 0.82733 0.0
C1450 C 0.60967 0.10124 0.81995 0.0
C1451 C 0.56252 0.10008 0.79377 0.0
C1452 C 0.54211 0.10928 0.77502 0.0
C1453 C 0.59257 0.14647 0.61964 0.0
C1454 C 0.5649 0.13795 0.59978 0.0
C1455 C 0.58422 0.14661 0.65469 0.0
C1456 C 0.54735 0.1383 0.67061 0.0
C1457 C 0.52092 0.12966 0.65094 0.0
C1458 C 0.52955 0.12948 0.61593 0.0
C1459 C 0.53584 0.13865 0.70768 0.0
C1460 C 0.55331 0.12946 0.72754 0.0
C1461 C 0.50914 0.14803 0.72357 0.0
C1462 C 0.48558 0.15772 0.7039 0.0
C1463 C 0.43787 0.15647 0.6777 0.0
C1464 C 0.41642 0.16561 0.65901 0.0
C1465 C 0.44193 0.17607 0.66644 0.0
C1466 C 0.48882 0.17741 0.69267 0.0
C1467 C 0.5105 0.16829 0.71141 0.0
H1468 H 0.42528 0.18314 0.65194 0.0
H1469 H 0.62533 0.09411 0.83447 0.0
H1470 H 0.46251 0.86788 0.59233 0.0
H1471 H 0.47174 0.86791 0.65409 0.0
H1472 H 0.5622 0.90015 0.65148 0.0
H1473 H 0.55399 0.90015 0.58979 0.0
H1474 H 0.62898 0.88659 0.69389 0.0
H1475 H 0.40043 0.89661 0.67364 0.0
H1476 H 0.28751 0.89419 0.6495 0.0
H1477 H 0.26784 0.86349 0.70248 0.0
H1478 H 0.38105 0.86565 0.72654 0.0
H1479 H 0.60892 0.90031 0.86727 0.0
H1480 H 0.59637 0.90001 0.80566 0.0
H1481 H 0.49735 0.8685 0.81119 0.0
H1482 H 0.50834 0.86886 0.87284 0.0
H1483 H 0.43457 0.88131 0.76719 0.0
H1484 H 0.66044 0.8708 0.78712 0.0
H1485 H 0.77411 0.87249 0.81083 0.0
H1486 H 0.79994 0.90311 0.75815 0.0
H1487 H 0.68602 0.90169 0.73448 0.0
C1488 C 0.48418 0.875 0.60486 0.0
C1489 C 0.50743 0.88402 0.58603 0.0
C1490 C 0.48921 0.87501 0.64021 0.0
C1491 C 0.51713 0.88408 0.65744 0.0
C1492 C 0.54047 0.89307 0.63872 0.0
C1493 C 0.53553 0.89306 0.60341 0.0
C1494 C 0.52318 0.88413 0.69495 0.0
C1495 C 0.58634 0.88558 0.70993 0.0
C1496 C 0.46782 0.88249 0.71586 0.0
C1497 C 0.39949 0.88124 0.70164 0.0
C1498 C 0.37222 0.88931 0.67995 0.0
C1499 C 0.30813 0.88799 0.6663 0.0
C1500 C 0.27059 0.87868 0.67439 0.0
C1501 C 0.297 0.87069 0.6962 0.0
C1502 C 0.3611 0.87196 0.70987 0.0
C1503 C 0.58459 0.8933 0.8554 0.0
C1504 C 0.5599 0.88458 0.875 0.0
C1505 C 0.57763 0.89312 0.82013 0.0
C1506 C 0.54666 0.88416 0.80371 0.0
C1507 C 0.52145 0.8755 0.82326 0.0
C1508 C 0.52799 0.8757 0.85853 0.0
C1509 C 0.54038 0.88384 0.76617 0.0
C1510 C 0.47723 0.88232 0.75117 0.0
C1511 C 0.59583 0.88532 0.7452 0.0
C1512 C 0.66446 0.88619 0.75929 0.0
C1513 C 0.69018 0.87794 0.78079 0.0
C1514 C 0.75468 0.87884 0.79419 0.0
C1515 C 0.79416 0.88791 0.78607 0.0
C1516 C 0.76927 0.89609 0.76446 0.0
C1517 C 0.70476 0.89524 0.75102 0.0
H1518 H 0.84409 0.8886 0.79648 0.0
H1519 H 0.22097 0.87768 0.66384 0.0
loop_
_geom_bond_atom_site_label_1
_geom_bond_atom_site_label_2
_geom_bond_distance
_geom_bond_site_symmetry_2
_ccdc_geom_bond_type
Eu0 C9 2.828 . S
Eu0 O11 2.392 1_455 S
Eu0 O13 2.418 . S
Eu0 O18 2.373 . S
Eu0 O21 2.488 . S
Eu0 O22 2.471 1_554 S
Eu0 O23 2.349 1_554 S
Eu1 O10 2.373 1_454 S
Eu1 O14 2.488 1_554 S
Eu1 O15 2.471 . S
Eu1 O16 2.349 . S
Eu1 O19 2.392 . S
Eu1 O20 2.418 1_554 S
Eu1 C30 2.828 . S
C2 O20 1.244 . S
C2 O23 1.265 . S
C3 C4 1.379 1_554 S
C3 C7 1.373 . S
C3 C9 1.505 . S
C4 C3 1.379 1_556 S
C4 C6 1.369 . S
C4 H32 0.930 . S
C5 C7 1.383 . S
C5 C8 1.382 1_554 S
C5 H33 0.930 . S
C6 C4 1.369 . S
C6 C8 1.392 . S
C6 H34 0.930 . S
C7 C3 1.373 . S
C7 C5 1.383 . S
C7 H35 0.931 . S
C8 C5 1.382 1_556 S
C8 C6 1.392 . S
C9 Eu0 2.828 . S
C9 C3 1.505 . S
C9 O21 1.249 . S
C9 O22 1.244 1_554 S
O10 Eu1 2.373 1_656 S
O10 C12 1.258 1_556 S
O11 Eu0 2.392 1_655 S
O11 C12 1.242 . S
C12 O10 1.258 1_554 S
C12 O11 1.242 . S
O13 Eu0 2.418 . S
O13 C17 1.244 . S
O14 Eu1 2.488 1_556 S
O14 C30 1.249 1_556 S
O15 Eu1 2.471 . S
O15 C30 1.244 . S
O16 Eu1 2.349 . S
O16 C17 1.265 . S
C17 O13 1.244 . S
C17 O16 1.265 . S
O18 Eu0 2.373 . S
O18 C31 1.258 . S
O19 Eu1 2.392 . S
O19 C31 1.242 . S
O20 Eu1 2.418 1_556 S
O20 C2 1.244 . S
O21 Eu0 2.488 . S
O21 C9 1.249 . S
O22 Eu0 2.471 1_556 S
O22 C9 1.244 1_556 S
O23 Eu0 2.349 1_556 S
O23 C2 1.265 . S
C24 C25 1.379 . S
C24 C28 1.373 1_554 S
C24 C30 1.505 1_655 S
C25 C24 1.379 . S
C25 C27 1.369 . S
C25 H36 0.930 . S
C26 C28 1.383 . S
C26 C29 1.382 1_556 S
C26 H37 0.930 . S
C27 C25 1.369 . S
C27 C29 1.392 . S
C27 H38 0.930 . S
C28 C24 1.373 1_556 S
C28 C26 1.383 . S
C28 H39 0.939 . S
C29 C26 1.382 1_554 S
C29 C27 1.392 . S
C30 Eu1 2.828 . S
C30 O14 1.249 1_554 S
C30 O15 1.244 . S
C30 C24 1.505 1_455 S
C31 O18 1.258 . S
C31 O19 1.242 . S
H32 C4 0.930 . S
H33 C5 0.930 . S
H34 C6 0.930 . S
H35 C7 0.931 . S
H36 C25 0.930 . S
H37 C26 0.930 . S
H38 C27 0.930 . S
H39 C28 0.939 . S
Eu40 C49 2.828 . S
Eu40 O51 2.392 . S
Eu40 O53 2.418 . S
Eu40 O58 2.373 1_655 S
Eu40 O61 2.488 . S
Eu40 O62 2.471 1_554 S
Eu40 O63 2.349 1_554 S
Eu41 O50 2.372 1_554 S
Eu41 O54 2.484 1_554 S
Eu41 O55 2.480 . S
Eu41 O56 2.361 . S
Eu41 O59 2.392 1_655 S
Eu41 O60 2.403 1_554 S
Eu41 C70 2.830 . S
C42 O60 1.244 . S
C42 O63 1.265 . S
C43 C44 1.379 1_554 S
C43 C47 1.373 . S
C43 C49 1.505 1_455 S
C44 C43 1.379 1_556 S
C44 C46 1.369 . S
C44 H72 0.930 . S
C45 C47 1.383 . S
C45 C48 1.382 1_554 S
C45 H73 0.930 . S
C46 C44 1.369 . S
C46 C48 1.392 . S
C46 H74 0.930 . S
C47 C43 1.373 . S
C47 C45 1.383 . S
C47 H75 0.939 . S
C48 C45 1.382 1_556 S
C48 C46 1.392 . S
C49 Eu40 2.828 . S
C49 C43 1.505 1_655 S
C49 O61 1.249 . S
C49 O62 1.244 1_554 S
O50 Eu41 2.372 1_556 S
O50 C52 1.258 1_556 S
O51 Eu40 2.392 . S
O51 C52 1.242 . S
C52 O50 1.258 1_554 S
C52 O51 1.242 . S
O53 Eu40 2.418 . S
O53 C57 1.244 . S
O54 Eu41 2.484 1_556 S
O54 C70 1.249 1_556 S
O55 Eu41 2.480 . S
O55 C70 1.244 . S
O56 Eu41 2.361 . S
O56 C57 1.265 . S
C57 O53 1.244 . S
C57 O56 1.265 . S
O58 Eu40 2.373 1_455 S
O58 C71 1.258 . S
O59 Eu41 2.392 1_455 S
O59 C71 1.242 . S
O60 Eu41 2.403 1_556 S
O60 C42 1.244 . S
O61 Eu40 2.488 . S
O61 C49 1.249 . S
O62 Eu40 2.471 1_556 S
O62 C49 1.244 1_556 S
O63 Eu40 2.349 1_556 S
O63 C42 1.265 . S
C64 C65 1.379 . S
C64 C68 1.373 1_554 S
C64 C70 1.505 . S
C65 C64 1.379 . S
C65 C67 1.369 . S
C65 H76 0.930 . S
C66 C68 1.383 . S
C66 C69 1.382 1_556 S
C66 H77 0.930 . S
C67 C65 1.369 . S
C67 C69 1.392 . S
C67 H78 0.930 . S
C68 C64 1.373 1_556 S
C68 C66 1.383 . S
C68 H79 0.931 . S
C69 C66 1.382 1_554 S
C69 C67 1.392 . S
C70 Eu41 2.830 . S
C70 O54 1.249 1_554 S
C70 O55 1.244 . S
C70 C64 1.505 . S
C71 O58 1.258 . S
C71 O59 1.242 . S
H72 C44 0.930 . S
H73 C45 0.930 . S
H74 C46 0.930 . S
H75 C47 0.939 . S
H76 C65 0.930 . S
H77 C66 0.930 . S
H78 C67 0.930 . S
H79 C68 0.931 . S
Eu80 C89 2.828 . S
Eu80 O91 2.392 . S
Eu80 O93 2.418 . S
Eu80 O98 2.373 1_455 S
Eu80 O101 2.488 . S
Eu80 O102 2.471 . S
Eu80 O103 2.349 . S
Eu81 O90 2.373 . S
Eu81 O94 2.488 . S
Eu81 O95 2.471 . S
Eu81 O96 2.349 . S
Eu81 O99 2.392 1_455 S
Eu81 O100 2.418 . S
Eu81 C110 2.828 . S
C82 O100 1.244 . S
C82 O103 1.265 . S
C83 C84 1.379 . S
C83 C87 1.373 . S
C83 C89 1.505 1_655 S
C84 C83 1.379 . S
C84 C86 1.369 . S
C84 H112 0.930 . S
C85 C87 1.383 . S
C85 C88 1.382 . S
C85 H113 0.930 . S
C86 C84 1.369 . S
C86 C88 1.392 . S
C86 H114 0.930 . S
C87 C83 1.373 . S
C87 C85 1.383 . S
C87 H115 0.938 . S
C88 C85 1.382 . S
C88 C86 1.392 . S
C89 Eu80 2.828 . S
C89 C83 1.505 1_455 S
C89 O101 1.249 . S
C89 O102 1.244 . S
O90 Eu81 2.373 . S
O90 C92 1.258 . S
O91 Eu80 2.392 . S
O91 C92 1.242 . S
C92 O90 1.258 . S
C92 O91 1.242 . S
O93 Eu80 2.418 . S
O93 C97 1.244 . S
O94 Eu81 2.488 . S
O94 C110 1.249 . S
O95 Eu81 2.471 . S
O95 C110 1.244 . S
O96 Eu81 2.349 . S
O96 C97 1.265 . S
C97 O93 1.244 . S
C97 O96 1.265 . S
O98 Eu80 2.373 1_655 S
O98 C111 1.258 . S
O99 Eu81 2.392 1_655 S
O99 C111 1.242 . S
O100 Eu81 2.418 . S
O100 C82 1.244 . S
O101 Eu80 2.488 . S
O101 C89 1.249 . S
O102 Eu80 2.471 . S
O102 C89 1.244 . S
O103 Eu80 2.349 . S
O103 C82 1.265 . S
C104 C105 1.379 . S
C104 C108 1.373 . S
C104 C110 1.505 . S
C105 C104 1.379 . S
C105 C107 1.369 . S
C105 H116 0.930 . S
C106 C108 1.383 . S
C106 C109 1.382 . S
C106 H117 0.930 . S
C107 C105 1.369 . S
C107 C109 1.392 . S
C107 H118 0.930 . S
C108 C104 1.373 . S
C108 C106 1.383 . S
C108 H119 0.931 . S
C109 C106 1.382 . S
C109 C107 1.392 . S
C110 Eu81 2.828 . S
C110 O94 1.249 . S
C110 O95 1.244 . S
C110 C104 1.505 . S
C111 O98 1.258 . S
C111 O99 1.242 . S
H112 C84 0.930 . S
H113 C85 0.930 . S
H114 C86 0.930 . S
H115 C87 0.938 . S
H116 C105 0.930 . S
H117 C106 0.930 . S
H118 C107 0.930 . S
H119 C108 0.931 . S
Eu120 C129 2.828 . S
Eu120 O131 2.392 1_655 S
Eu120 O133 2.418 . S
Eu120 O138 2.373 . S
Eu120 O141 2.488 . S
Eu120 O142 2.471 . S
Eu120 O143 2.349 . S
Eu121 O130 2.373 1_655 S
Eu121 O134 2.488 . S
Eu121 O135 2.471 . S
Eu121 O136 2.349 . S
Eu121 O139 2.392 . S
Eu121 O140 2.418 . S
Eu121 C150 2.828 . S
C122 O140 1.244 . S
C122 O143 1.265 . S
C123 C124 1.379 . S
C123 C127 1.373 . S
C123 C129 1.505 . S
C124 C123 1.379 . S
C124 C126 1.369 . S
C124 H152 0.930 . S
C125 C127 1.383 . S
C125 C128 1.382 . S
C125 H153 0.930 . S
C126 C124 1.369 . S
C126 C128 1.392 . S
C126 H154 0.930 . S
C127 C123 1.373 . S
C127 C125 1.383 . S
C127 H155 0.931 . S
C128 C125 1.382 . S
C128 C126 1.392 . S
C129 Eu120 2.828 . S
C129 C123 1.505 . S
C129 O141 1.249 . S
C129 O142 1.244 . S
O130 Eu121 2.373 1_455 S
O130 C132 1.258 . S
O131 Eu120 2.392 1_455 S
O131 C132 1.242 . S
C132 O130 1.258 . S
C132 O131 1.242 . S
O133 Eu120 2.418 . S
O133 C137 1.244 . S
O134 Eu121 2.488 . S
O134 C150 1.249 . S
O135 Eu121 2.471 . S
O135 C150 1.244 . S
O136 Eu121 2.349 . S
O136 C137 1.265 . S
C137 O133 1.244 . S
C137 O136 1.265 . S
O138 Eu120 2.373 . S
O138 C151 1.258 . S
O139 Eu121 2.392 . S
O139 C151 1.242 . S
O140 Eu121 2.418 . S
O140 C122 1.244 . S
O141 Eu120 2.488 . S
O141 C129 1.249 . S
O142 Eu120 2.471 . S
O142 C129 1.244 . S
O143 Eu120 2.349 . S
O143 C122 1.265 . S
C144 C145 1.379 . S
C144 C148 1.373 . S
C144 C150 1.505 1_455 S
C145 C144 1.379 . S
C145 C147 1.369 . S
C145 H156 0.930 . S
C146 C148 1.383 . S
C146 C149 1.382 . S
C146 H157 0.930 . S
C147 C145 1.369 . S
C147 C149 1.392 . S
C147 H158 0.930 . S
C148 C144 1.373 . S
C148 C146 1.383 . S
C148 H159 0.939 . S
C149 C146 1.382 . S
C149 C147 1.392 . S
C150 Eu121 2.828 . S
C150 O134 1.249 . S
C150 O135 1.244 . S
C150 C144 1.505 1_655 S
C151 O138 1.258 . S
C151 O139 1.242 . S
H152 C124 0.930 . S
H153 C125 0.930 . S
H154 C126 0.930 . S
H155 C127 0.931 . S
H156 C145 0.930 . S
H157 C146 0.930 . S
H158 C147 0.930 . S
H159 C148 0.939 . S
Eu160 C169 2.828 . S
Eu160 O171 2.392 . S
Eu160 O173 2.418 . S
Eu160 O178 2.373 . S
Eu160 O181 2.488 . S
Eu160 O182 2.471 1_554 S
Eu160 O183 2.349 1_554 S
Eu161 O170 2.373 1_554 S
Eu161 O174 2.488 1_554 S
Eu161 O175 2.471 . S
Eu161 O176 2.349 . S
Eu161 O179 2.392 . S
Eu161 O180 2.418 1_554 S
Eu161 C190 2.828 . S
C162 O180 1.244 . S
C162 O183 1.265 . S
C163 C164 1.379 1_554 S
C163 C167 1.373 . S
C163 C169 1.505 . S
C164 C163 1.379 1_556 S
C164 C166 1.369 . S
C164 H192 0.930 . S
C165 C167 1.383 . S
C165 C168 1.382 1_554 S
C165 H193 0.930 . S
C166 C164 1.369 . S
C166 C168 1.392 . S
C166 H194 0.930 . S
C167 C163 1.373 . S
C167 C165 1.383 . S
C167 H195 0.931 . S
C168 C165 1.382 1_556 S
C168 C166 1.392 . S
C169 Eu160 2.828 . S
C169 C163 1.505 . S
C169 O181 1.249 . S
C169 O182 1.244 1_554 S
O170 Eu161 2.373 1_556 S
O170 C172 1.258 1_556 S
O171 Eu160 2.392 . S
O171 C172 1.242 . S
C172 O170 1.258 1_554 S
C172 O171 1.242 . S
O173 Eu160 2.418 . S
O173 C177 1.244 . S
O174 Eu161 2.488 1_556 S
O174 C190 1.249 1_556 S
O175 Eu161 2.471 . S
O175 C190 1.244 . S
O176 Eu161 2.349 . S
O176 C177 1.265 . S
C177 O173 1.244 . S
C177 O176 1.265 . S
O178 Eu160 2.373 . S
O178 C191 1.258 . S
O179 Eu161 2.392 . S
O179 C191 1.242 . S
O180 Eu161 2.418 1_556 S
O180 C162 1.244 . S
O181 Eu160 2.488 . S
O181 C169 1.249 . S
O182 Eu160 2.471 1_556 S
O182 C169 1.244 1_556 S
O183 Eu160 2.349 1_556 S
O183 C162 1.265 . S
C184 C185 1.379 . S
C184 C188 1.373 1_554 S
C184 C190 1.505 . S
C185 C184 1.379 . S
C185 C187 1.369 . S
C185 H196 0.930 . S
C186 C188 1.383 . S
C186 C189 1.382 1_556 S
C186 H197 0.930 . S
C187 C185 1.369 . S
C187 C189 1.392 . S
C187 H198 0.930 . S
C188 C184 1.373 1_556 S
C188 C186 1.383 . S
C188 H199 0.931 . S
C189 C186 1.382 1_554 S
C189 C187 1.392 . S
C190 Eu161 2.828 . S
C190 O174 1.249 1_554 S
C190 O175 1.244 . S
C190 C184 1.505 . S
C191 O178 1.258 . S
C191 O179 1.242 . S
H192 C164 0.930 . S
H193 C165 0.930 . S
H194 C166 0.930 . S
H195 C167 0.931 . S
H196 C185 0.930 . S
H197 C186 0.930 . S
H198 C187 0.930 . S
H199 C188 0.931 . S
Eu200 C209 2.828 . S
Eu200 O211 2.392 . S
Eu200 O213 2.418 . S
Eu200 O218 2.373 . S
Eu200 O221 2.488 . S
Eu200 O222 2.471 1_554 S
Eu200 O223 2.349 1_554 S
Eu201 O210 2.372 1_554 S
Eu201 O214 2.484 1_554 S
Eu201 O215 2.480 . S
Eu201 O216 2.361 . S
Eu201 O219 2.392 . S
Eu201 O220 2.403 1_554 S
Eu201 C230 2.830 . S
C202 O220 1.244 . S
C202 O223 1.265 . S
C203 C204 1.379 1_554 S
C203 C207 1.373 . S
C203 C209 1.505 . S
C204 C203 1.379 1_556 S
C204 C206 1.369 . S
C204 H232 0.930 . S
C205 C207 1.383 . S
C205 C208 1.382 1_554 S
C205 H233 0.930 . S
C206 C204 1.369 . S
C206 C208 1.392 . S
C206 H234 0.930 . S
C207 C203 1.373 . S
C207 C205 1.383 . S
C207 H235 0.931 . S
C208 C205 1.382 1_556 S
C208 C206 1.392 . S
C209 Eu200 2.828 . S
C209 C203 1.505 . S
C209 O221 1.249 . S
C209 O222 1.244 1_554 S
O210 Eu201 2.372 1_556 S
O210 C212 1.258 1_556 S
O211 Eu200 2.392 . S
O211 C212 1.242 . S
C212 O210 1.258 1_554 S
C212 O211 1.242 . S
O213 Eu200 2.418 . S
O213 C217 1.244 . S
O214 Eu201 2.484 1_556 S
O214 C230 1.249 1_556 S
O215 Eu201 2.480 . S
O215 C230 1.244 . S
O216 Eu201 2.361 . S
O216 C217 1.265 . S
C217 O213 1.244 . S
C217 O216 1.265 . S
O218 Eu200 2.373 . S
O218 C231 1.258 . S
O219 Eu201 2.392 . S
O219 C231 1.242 . S
O220 Eu201 2.403 1_556 S
O220 C202 1.244 . S
O221 Eu200 2.488 . S
O221 C209 1.249 . S
O222 Eu200 2.471 1_556 S
O222 C209 1.244 1_556 S
O223 Eu200 2.349 1_556 S
O223 C202 1.265 . S
C224 C225 1.379 . S
C224 C228 1.373 1_554 S
C224 C230 1.505 . S
C225 C224 1.379 . S
C225 C227 1.369 . S
C225 H236 0.930 . S
C226 C228 1.383 . S
C226 C229 1.382 1_556 S
C226 H237 0.930 . S
C227 C225 1.369 . S
C227 C229 1.392 . S
C227 H238 0.930 . S
C228 C224 1.373 1_556 S
C228 C226 1.383 . S
C228 H239 0.931 . S
C229 C226 1.382 1_554 S
C229 C227 1.392 . S
C230 Eu201 2.830 . S
C230 O214 1.249 1_554 S
C230 O215 1.244 . S
C230 C224 1.505 . S
C231 O218 1.258 . S
C231 O219 1.242 . S
H232 C204 0.930 . S
H233 C205 0.930 . S
H234 C206 0.930 . S
H235 C207 0.931 . S
H236 C225 0.930 . S
H237 C226 0.930 . S
H238 C227 0.930 . S
H239 C228 0.931 . S
Eu240 C249 2.828 . S
Eu240 O251 2.392 . S
Eu240 O253 2.418 . S
Eu240 O258 2.373 . S
Eu240 O261 2.488 . S
Eu240 O262 2.471 . S
Eu240 O263 2.349 . S
Eu241 O250 2.373 . S
Eu241 O254 2.488 . S
Eu241 O255 2.471 . S
Eu241 O256 2.349 . S
Eu241 O259 2.392 . S
Eu241 O260 2.418 . S
Eu241 C270 2.828 . S
C242 O260 1.244 . S
C242 O263 1.265 . S
C243 C244 1.379 . S
C243 C247 1.373 . S
C243 C249 1.505 . S
C244 C243 1.379 . S
C244 C246 1.369 . S
C244 H272 0.930 . S
C245 C247 1.383 . S
C245 C248 1.382 . S
C245 H273 0.930 . S
C246 C244 1.369 . S
C246 C248 1.392 . S
C246 H274 0.930 . S
C247 C243 1.373 . S
C247 C245 1.383 . S
C247 H275 0.931 . S
C248 C245 1.382 . S
C248 C246 1.392 . S
C249 Eu240 2.828 . S
C249 C243 1.505 . S
C249 O261 1.249 . S
C249 O262 1.244 . S
O250 Eu241 2.373 . S
O250 C252 1.258 . S
O251 Eu240 2.392 . S
O251 C252 1.242 . S
C252 O250 1.258 . S
C252 O251 1.242 . S
O253 Eu240 2.418 . S
O253 C257 1.244 . S
O254 Eu241 2.488 . S
O254 C270 1.249 . S
O255 Eu241 2.471 . S
O255 C270 1.244 . S
O256 Eu241 2.349 . S
O256 C257 1.265 . S
C257 O253 1.244 . S
C257 O256 1.265 . S
O258 Eu240 2.373 . S
O258 C271 1.258 . S
O259 Eu241 2.392 . S
O259 C271 1.242 . S
O260 Eu241 2.418 . S
O260 C242 1.244 . S
O261 Eu240 2.488 . S
O261 C249 1.249 . S
O262 Eu240 2.471 . S
O262 C249 1.244 . S
O263 Eu240 2.349 . S
O263 C242 1.265 . S
C264 C265 1.379 . S
C264 C268 1.373 . S
C264 C270 1.505 . S
C265 C264 1.379 . S
C265 C267 1.369 . S
C265 H276 0.930 . S
C266 C268 1.383 . S
C266 C269 1.382 . S
C266 H277 0.930 . S
C267 C265 1.369 . S
C267 C269 1.392 . S
C267 H278 0.930 . S
C268 C264 1.373 . S
C268 C266 1.383 . S
C268 H279 0.931 . S
C269 C266 1.382 . S
C269 C267 1.392 . S
C270 Eu241 2.828 . S
C270 O254 1.249 . S
C270 O255 1.244 . S
C270 C264 1.505 . S
C271 O258 1.258 . S
C271 O259 1.242 . S
H272 C244 0.930 . S
H273 C245 0.930 . S
H274 C246 0.930 . S
H275 C247 0.931 . S
H276 C265 0.930 . S
H277 C266 0.930 . S
H278 C267 0.930 . S
H279 C268 0.931 . S
Eu280 C289 2.828 . S
Eu280 O291 2.392 . S
Eu280 O293 2.418 . S
Eu280 O298 2.373 . S
Eu280 O301 2.488 . S
Eu280 O302 2.471 . S
Eu280 O303 2.349 . S
Eu281 O290 2.373 . S
Eu281 O294 2.488 . S
Eu281 O295 2.471 . S
Eu281 O296 2.349 . S
Eu281 O299 2.392 . S
Eu281 O300 2.418 . S
Eu281 C310 2.828 . S
C282 O300 1.244 . S
C282 O303 1.265 . S
C283 C284 1.379 . S
C283 C287 1.373 . S
C283 C289 1.505 . S
C284 C283 1.379 . S
C284 C286 1.369 . S
C284 H312 0.930 . S
C285 C287 1.383 . S
C285 C288 1.382 . S
C285 H313 0.930 . S
C286 C284 1.369 . S
C286 C288 1.392 . S
C286 H314 0.930 . S
C287 C283 1.373 . S
C287 C285 1.383 . S
C287 H315 0.931 . S
C288 C285 1.382 . S
C288 C286 1.392 . S
C289 Eu280 2.828 . S
C289 C283 1.505 . S
C289 O301 1.249 . S
C289 O302 1.244 . S
O290 Eu281 2.373 . S
O290 C292 1.258 . S
O291 Eu280 2.392 . S
O291 C292 1.242 . S
C292 O290 1.258 . S
C292 O291 1.242 . S
O293 Eu280 2.418 . S
O293 C297 1.244 . S
O294 Eu281 2.488 . S
O294 C310 1.249 . S
O295 Eu281 2.471 . S
O295 C310 1.244 . S
O296 Eu281 2.349 . S
O296 C297 1.265 . S
C297 O293 1.244 . S
C297 O296 1.265 . S
O298 Eu280 2.373 . S
O298 C311 1.258 . S
O299 Eu281 2.392 . S
O299 C311 1.242 . S
O300 Eu281 2.418 . S
O300 C282 1.244 . S
O301 Eu280 2.488 . S
O301 C289 1.249 . S
O302 Eu280 2.471 . S
O302 C289 1.244 . S
O303 Eu280 2.349 . S
O303 C282 1.265 . S
C304 C305 1.379 . S
C304 C308 1.373 . S
C304 C310 1.505 . S
C305 C304 1.379 . S
C305 C307 1.369 . S
C305 H316 0.930 . S
C306 C308 1.383 . S
C306 C309 1.382 . S
C306 H317 0.930 . S
C307 C305 1.369 . S
C307 C309 1.392 . S
C307 H318 0.930 . S
C308 C304 1.373 . S
C308 C306 1.383 . S
C308 H319 0.931 . S
C309 C306 1.382 . S
C309 C307 1.392 . S
C310 Eu281 2.828 . S
C310 O294 1.249 . S
C310 O295 1.244 . S
C310 C304 1.505 . S
C311 O298 1.258 . S
C311 O299 1.242 . S
H312 C284 0.930 . S
H313 C285 0.930 . S
H314 C286 0.930 . S
H315 C287 0.931 . S
H316 C305 0.930 . S
H317 C306 0.930 . S
H318 C307 0.930 . S
H319 C308 0.931 . S
H320 C338 0.951 . S
H321 C340 0.951 . S
H322 C342 0.950 . S
H323 C343 0.950 . S
H324 C345 0.950 . S
H325 C348 0.950 . S
H326 C349 0.950 . S
H327 C351 0.950 . S
H328 C352 0.950 . S
H329 C353 0.951 . S
H330 C355 0.951 . S
H331 C357 0.950 . S
H332 C358 0.950 . S
H333 C360 0.950 . S
H334 C363 0.950 . S
H335 C364 0.950 . S
H336 C366 0.950 . S
H337 C367 0.950 . S
C338 H320 0.951 . S
C338 C339 1.366 . S
C338 C340 1.388 . S
C339 C338 1.366 . S
C339 C343 1.385 1_554 S
C340 H321 0.951 . S
C340 C338 1.388 . S
C340 C341 1.366 . S
C341 C340 1.366 . S
C341 C342 1.414 1_554 S
C341 C344 1.499 . S
C342 H322 0.950 . S
C342 C341 1.414 1_556 S
C342 C343 1.374 . S
C343 H323 0.950 . S
C343 C339 1.385 1_556 S
C343 C342 1.374 . S
C344 C341 1.499 . S
C344 C345 1.373 1_554 S
C344 C346 1.389 . S
C345 H324 0.950 . S
C345 C344 1.373 1_556 S
C345 C361 1.377 . S
C346 C344 1.389 . S
C346 C347 1.524 . S
C346 C360 1.377 . S
C347 C346 1.524 . S
C347 C348 1.397 . S
C347 C352 1.363 . S
C348 H325 0.950 . S
C348 C347 1.397 . S
C348 C349 1.334 . S
C349 H326 0.950 . S
C349 C348 1.334 . S
C349 C350 1.287 . S
C350 C349 1.287 . S
C350 C351 1.524 . S
C350 H369 0.913 . S
C351 H327 0.950 . S
C351 C350 1.524 . S
C351 C352 1.415 . S
C352 H328 0.950 . S
C352 C347 1.363 . S
C352 C351 1.415 . S
C353 H329 0.951 . S
C353 C354 1.366 1_556 S
C353 C355 1.388 . S
C354 C353 1.366 1_554 S
C354 C358 1.385 . S
C355 H330 0.951 . S
C355 C353 1.388 . S
C355 C356 1.366 1_556 S
C356 C355 1.366 1_554 S
C356 C357 1.414 . S
C356 C359 1.499 . S
C357 H331 0.950 . S
C357 C356 1.414 . S
C357 C358 1.374 . S
C358 H332 0.950 . S
C358 C354 1.385 . S
C358 C357 1.374 . S
C359 C356 1.499 . S
C359 C360 1.373 . S
C359 C361 1.389 1_554 S
C360 H333 0.950 . S
C360 C346 1.377 . S
C360 C359 1.373 . S
C361 C345 1.377 . S
C361 C359 1.389 1_556 S
C361 C362 1.524 . S
C362 C361 1.524 . S
C362 C363 1.397 . S
C362 C367 1.363 . S
C363 H334 0.950 . S
C363 C362 1.397 . S
C363 C364 1.334 . S
C364 H335 0.950 . S
C364 C363 1.334 . S
C364 C365 1.287 . S
C365 C364 1.287 . S
C365 C366 1.524 . S
C365 H368 0.999 . S
C366 H336 0.950 . S
C366 C365 1.524 . S
C366 C367 1.415 . S
C367 H337 0.950 . S
C367 C362 1.363 . S
C367 C366 1.415 . S
H368 C365 0.999 . S
H369 C350 0.913 . S
H370 C388 0.951 . S
H371 C390 0.954 . S
H372 C392 0.950 . S
H373 C393 0.950 . S
H374 C395 0.950 . S
H375 C398 0.950 . S
H376 C399 0.950 . S
H377 C401 0.950 . S
H378 C402 0.950 . S
H379 C403 0.951 . S
H380 C405 0.951 . S
H381 C407 0.947 1_556 S
H382 C408 0.950 1_556 S
H383 C410 0.950 . S
H384 C413 0.950 . S
H385 C414 0.950 . S
H386 C416 0.950 . S
H387 C417 0.950 . S
C388 H370 0.951 . S
C388 C389 1.366 . S
C388 C390 1.388 . S
C389 C388 1.366 . S
C389 C393 1.385 . S
C390 H371 0.954 . S
C390 C388 1.388 . S
C390 C391 1.366 . S
C391 C390 1.366 . S
C391 C392 1.414 . S
C391 C394 1.499 . S
C392 H372 0.950 . S
C392 C391 1.414 . S
C392 C393 1.374 . S
C393 H373 0.950 . S
C393 C389 1.385 . S
C393 C392 1.374 . S
C394 C391 1.499 . S
C394 C395 1.373 . S
C394 C396 1.389 1_554 S
C395 H374 0.950 . S
C395 C394 1.373 . S
C395 C411 1.377 . S
C396 C394 1.389 1_556 S
C396 C397 1.524 . S
C396 C410 1.377 . S
C397 C396 1.524 . S
C397 C398 1.397 . S
C397 C402 1.363 . S
C398 H375 0.950 . S
C398 C397 1.397 . S
C398 C399 1.334 . S
C399 H376 0.950 . S
C399 C398 1.334 . S
C399 C400 1.287 . S
C400 C399 1.287 . S
C400 C401 1.524 . S
C400 H419 0.913 . S
C401 H377 0.950 . S
C401 C400 1.524 . S
C401 C402 1.415 . S
C402 H378 0.950 . S
C402 C397 1.363 . S
C402 C401 1.415 . S
C403 H379 0.951 . S
C403 C404 1.366 . S
C403 C405 1.388 . S
C404 C403 1.366 . S
C404 C408 1.385 . S
C405 H380 0.951 . S
C405 C403 1.388 . S
C405 C406 1.366 . S
C406 C405 1.366 . S
C406 C407 1.414 . S
C406 C409 1.499 . S
C407 H381 0.947 1_554 S
C407 C406 1.414 . S
C407 C408 1.374 . S
C408 H382 0.950 1_554 S
C408 C404 1.385 . S
C408 C407 1.374 . S
C409 C406 1.499 . S
C409 C410 1.373 1_554 S
C409 C411 1.389 . S
C410 H383 0.950 . S
C410 C396 1.377 . S
C410 C409 1.373 1_556 S
C411 C395 1.377 . S
C411 C409 1.389 . S
C411 C412 1.524 . S
C412 C411 1.524 . S
C412 C413 1.397 . S
C412 C417 1.363 . S
C413 H384 0.950 . S
C413 C412 1.397 . S
C413 C414 1.334 . S
C414 H385 0.950 . S
C414 C413 1.334 . S
C414 C415 1.287 . S
C415 C414 1.287 . S
C415 C416 1.524 . S
C415 H418 0.999 . S
C416 H386 0.950 . S
C416 C415 1.524 . S
C416 C417 1.415 . S
C417 H387 0.950 . S
C417 C412 1.363 . S
C417 C416 1.415 . S
H418 C415 0.999 . S
H419 C400 0.913 . S
H420 C438 0.951 . S
H421 C440 0.951 . S
H422 C442 0.950 . S
H423 C443 0.950 . S
H424 C445 0.950 . S
H425 C448 0.950 . S
H426 C449 0.950 . S
H427 C451 0.950 . S
H428 C452 0.950 . S
H429 C453 0.951 . S
H430 C455 0.951 . S
H431 C457 0.950 . S
H432 C458 0.950 . S
H433 C460 0.950 . S
H434 C463 0.950 . S
H435 C464 0.950 . S
H436 C466 0.950 . S
H437 C467 0.950 . S
C438 H420 0.951 . S
C438 C439 1.366 . S
C438 C440 1.388 . S
C439 C438 1.366 . S
C439 C443 1.385 . S
C440 H421 0.951 . S
C440 C438 1.388 . S
C440 C441 1.366 . S
C441 C440 1.366 . S
C441 C442 1.414 . S
C441 C444 1.499 . S
C442 H422 0.950 . S
C442 C441 1.414 . S
C442 C443 1.374 . S
C443 H423 0.950 . S
C443 C439 1.385 . S
C443 C442 1.374 . S
C444 C441 1.499 . S
C444 C445 1.373 . S
C444 C446 1.389 . S
C445 H424 0.950 . S
C445 C444 1.373 . S
C445 C461 1.377 . S
C446 C444 1.389 . S
C446 C447 1.524 . S
C446 C460 1.377 . S
C447 C446 1.524 . S
C447 C448 1.397 . S
C447 C452 1.363 . S
C448 H425 0.950 . S
C448 C447 1.397 . S
C448 C449 1.334 . S
C449 H426 0.950 . S
C449 C448 1.334 . S
C449 C450 1.287 . S
C450 C449 1.287 . S
C450 C451 1.524 . S
C450 H469 0.913 . S
C451 H427 0.950 . S
C451 C450 1.524 . S
C451 C452 1.415 . S
C452 H428 0.950 . S
C452 C447 1.363 . S
C452 C451 1.415 . S
C453 H429 0.951 . S
C453 C454 1.366 . S
C453 C455 1.388 . S
C454 C453 1.366 . S
C454 C458 1.385 . S
C455 H430 0.951 . S
C455 C453 1.388 . S
C455 C456 1.366 . S
C456 C455 1.366 . S
C456 C457 1.414 . S
C456 C459 1.499 . S
C457 H431 0.950 . S
C457 C456 1.414 . S
C457 C458 1.374 . S
C458 H432 0.950 . S
C458 C454 1.385 . S
C458 C457 1.374 . S
C459 C456 1.499 . S
C459 C460 1.373 . S
C459 C461 1.389 . S
C460 H433 0.950 . S
C460 C446 1.377 . S
C460 C459 1.373 . S
C461 C445 1.377 . S
C461 C459 1.389 . S
C461 C462 1.524 . S
C462 C461 1.524 . S
C462 C463 1.397 . S
C462 C467 1.363 . S
C463 H434 0.950 . S
C463 C462 1.397 . S
C463 C464 1.334 . S
C464 H435 0.950 . S
C464 C463 1.334 . S
C464 C465 1.287 . S
C465 C464 1.287 . S
C465 C466 1.524 . S
C465 H468 0.999 . S
C466 H436 0.950 . S
C466 C465 1.524 . S
C466 C467 1.415 . S
C467 H437 0.950 . S
C467 C462 1.363 . S
C467 C466 1.415 . S
H468 C465 0.999 . S
H469 C450 0.913 . S
H470 C488 0.951 . S
H471 C490 0.951 . S
H472 C492 0.950 . S
H473 C493 0.950 . S
H474 C495 0.950 . S
H475 C498 0.950 . S
H476 C499 0.950 . S
H477 C501 0.950 . S
H478 C502 0.950 . S
H479 C503 0.951 . S
H480 C505 0.951 . S
H481 C507 0.950 . S
H482 C508 0.950 . S
H483 C510 0.950 . S
H484 C513 0.950 . S
H485 C514 0.950 . S
H486 C516 0.950 . S
H487 C517 0.950 . S
C488 H470 0.951 . S
C488 C489 1.366 . S
C488 C490 1.388 . S
C489 C488 1.366 . S
C489 C493 1.385 . S
C490 H471 0.951 . S
C490 C488 1.388 . S
C490 C491 1.366 . S
C491 C490 1.366 . S
C491 C492 1.414 . S
C491 C494 1.499 . S
C492 H472 0.950 . S
C492 C491 1.414 . S
C492 C493 1.374 . S
C493 H473 0.950 . S
C493 C489 1.385 . S
C493 C492 1.374 . S
C494 C491 1.499 . S
C494 C495 1.373 . S
C494 C496 1.389 . S
C495 H474 0.950 . S
C495 C494 1.373 . S
C495 C511 1.377 . S
C496 C494 1.389 . S
C496 C497 1.524 . S
C496 C510 1.377 . S
C497 C496 1.524 . S
C497 C498 1.397 . S
C497 C502 1.363 . S
C498 H475 0.950 . S
C498 C497 1.397 . S
C498 C499 1.334 . S
C499 H476 0.950 . S
C499 C498 1.334 . S
C499 C500 1.287 . S
C500 C499 1.287 . S
C500 C501 1.524 . S
C500 H519 0.913 . S
C501 H477 0.950 . S
C501 C500 1.524 . S
C501 C502 1.415 . S
C502 H478 0.950 . S
C502 C497 1.363 . S
C502 C501 1.415 . S
C503 H479 0.951 . S
C503 C504 1.366 . S
C503 C505 1.388 . S
C504 C503 1.366 . S
C504 C508 1.385 . S
C505 H480 0.951 . S
C505 C503 1.388 . S
C505 C506 1.366 . S
C506 C505 1.366 . S
C506 C507 1.414 . S
C506 C509 1.499 . S
C507 H481 0.950 . S
C507 C506 1.414 . S
C507 C508 1.374 . S
C508 H482 0.950 . S
C508 C504 1.385 . S
C508 C507 1.374 . S
C509 C506 1.499 . S
C509 C510 1.373 . S
C509 C511 1.389 . S
C510 H483 0.950 . S
C510 C496 1.377 . S
C510 C509 1.373 . S
C511 C495 1.377 . S
C511 C509 1.389 . S
C511 C512 1.524 . S
C512 C511 1.524 . S
C512 C513 1.397 . S
C512 C517 1.363 . S
C513 H484 0.950 . S
C513 C512 1.397 . S
C513 C514 1.334 . S
C514 H485 0.950 . S
C514 C513 1.334 . S
C514 C515 1.287 . S
C515 C514 1.287 . S
C515 C516 1.524 . S
C515 H518 0.999 . S
C516 H486 0.950 . S
C516 C515 1.524 . S
C516 C517 1.415 . S
C517 H487 0.950 . S
C517 C512 1.363 . S
C517 C516 1.415 . S
H518 C515 0.999 . S
H519 C500 0.913 . S
H520 C538 0.951 . S
H521 C540 0.951 . S
H522 C542 0.943 1_556 S
H523 C543 0.950 1_556 S
H524 C545 0.950 1_655 S
H525 C548 0.950 . S
H526 C549 0.950 . S
H527 C551 0.950 . S
H528 C552 0.950 . S
H529 C553 0.951 . S
H530 C555 0.951 . S
H531 C557 0.950 . S
H532 C558 0.950 . S
H533 C560 0.950 . S
H534 C563 0.950 . S
H535 C564 0.950 . S
H536 C566 0.950 . S
H537 C567 0.950 . S
C538 H520 0.951 . S
C538 C539 1.366 . S
C538 C540 1.388 . S
C539 C538 1.366 . S
C539 C543 1.385 . S
C540 H521 0.951 . S
C540 C538 1.388 . S
C540 C541 1.366 . S
C541 C540 1.366 . S
C541 C542 1.421 . S
C541 C544 1.499 . S
C542 H522 0.943 1_554 S
C542 C541 1.421 . S
C542 C543 1.375 . S
C543 H523 0.950 1_554 S
C543 C539 1.385 . S
C543 C542 1.375 . S
C544 C541 1.499 . S
C544 C545 1.373 1_654 S
C544 C546 1.389 1_655 S
C545 H524 0.950 1_455 S
C545 C544 1.373 1_456 S
C545 C561 1.377 . S
C546 C544 1.389 1_455 S
C546 C547 1.524 . S
C546 C560 1.377 . S
C547 C546 1.524 . S
C547 C548 1.397 1_455 S
C547 C552 1.363 . S
C548 H525 0.950 . S
C548 C547 1.397 1_655 S
C548 C549 1.334 . S
C549 H526 0.950 . S
C549 C548 1.334 . S
C549 C550 1.287 . S
C550 C549 1.287 . S
C550 C551 1.524 1_655 S
C550 H569 0.913 . S
C551 H527 0.950 . S
C551 C550 1.524 1_455 S
C551 C552 1.415 . S
C552 H528 0.950 . S
C552 C547 1.363 . S
C552 C551 1.415 . S
C553 H529 0.951 . S
C553 C554 1.366 1_556 S
C553 C555 1.388 . S
C554 C553 1.366 1_554 S
C554 C558 1.385 . S
C555 H530 0.951 . S
C555 C553 1.388 . S
C555 C556 1.366 1_556 S
C556 C555 1.366 1_554 S
C556 C557 1.414 . S
C556 C559 1.499 . S
C557 H531 0.950 . S
C557 C556 1.414 . S
C557 C558 1.374 . S
C558 H532 0.950 . S
C558 C554 1.385 . S
C558 C557 1.374 . S
C559 C556 1.499 . S
C559 C560 1.373 . S
C559 C561 1.389 1_554 S
C560 H533 0.950 . S
C560 C546 1.377 . S
C560 C559 1.373 . S
C561 C545 1.377 . S
C561 C559 1.389 1_556 S
C561 C562 1.524 . S
C562 C561 1.524 . S
C562 C563 1.397 . S
C562 C567 1.363 . S
C563 H534 0.950 . S
C563 C562 1.397 . S
C563 C564 1.334 . S
C564 H535 0.950 . S
C564 C563 1.334 . S
C564 C565 1.287 . S
C565 C564 1.287 . S
C565 C566 1.524 . S
C565 H568 0.999 . S
C566 H536 0.950 . S
C566 C565 1.524 . S
C566 C567 1.415 . S
C567 H537 0.950 . S
C567 C562 1.363 . S
C567 C566 1.415 . S
H568 C565 0.999 . S
H569 C550 0.913 . S
H570 C588 0.951 . S
H571 C590 0.951 . S
H572 C592 0.950 . S
H573 C593 0.950 . S
H574 C595 0.950 . S
H575 C598 0.950 . S
H576 C599 0.949 . S
H577 C601 0.950 . S
H578 C602 0.950 1_655 S
H579 C603 0.951 . S
H580 C605 0.951 . S
H581 C607 0.950 . S
H582 C608 0.950 . S
H583 C610 0.950 . S
H584 C613 0.950 . S
H585 C614 0.950 . S
H586 C616 0.950 . S
H587 C617 0.950 . S
C588 H570 0.951 . S
C588 C589 1.366 . S
C588 C590 1.388 . S
C589 C588 1.366 . S
C589 C593 1.385 1_554 S
C590 H571 0.951 . S
C590 C588 1.388 . S
C590 C591 1.366 . S
C591 C590 1.366 . S
C591 C592 1.414 1_554 S
C591 C594 1.499 . S
C592 H572 0.950 . S
C592 C591 1.414 1_556 S
C592 C593 1.374 . S
C593 H573 0.950 . S
C593 C589 1.385 1_556 S
C593 C592 1.374 . S
C594 C591 1.499 . S
C594 C595 1.373 1_454 S
C594 C596 1.389 1_455 S
C595 H574 0.950 . S
C595 C594 1.373 1_656 S
C595 C611 1.377 . S
C596 C594 1.389 1_655 S
C596 C597 1.524 1_655 S
C596 C610 1.377 . S
C597 C596 1.524 1_455 S
C597 C598 1.397 1_554 S
C597 C602 1.363 . S
C598 H575 0.950 . S
C598 C597 1.397 1_556 S
C598 C599 1.334 . S
C599 H576 0.949 . S
C599 C598 1.334 . S
C599 C600 1.289 1_556 S
C600 C599 1.289 1_554 S
C600 C601 1.524 . S
C600 H619 0.913 . S
C601 H577 0.950 . S
C601 C600 1.524 . S
C601 C602 1.415 . S
C602 H578 0.950 1_455 S
C602 C597 1.363 . S
C602 C601 1.415 . S
C603 H579 0.951 . S
C603 C604 1.366 1_556 S
C603 C605 1.388 . S
C604 C603 1.366 1_554 S
C604 C608 1.385 . S
C605 H580 0.951 . S
C605 C603 1.388 . S
C605 C606 1.366 1_556 S
C606 C605 1.366 1_554 S
C606 C607 1.414 . S
C606 C609 1.499 . S
C607 H581 0.950 . S
C607 C606 1.414 . S
C607 C608 1.374 . S
C608 H582 0.950 . S
C608 C604 1.385 . S
C608 C607 1.374 . S
C609 C606 1.499 . S
C609 C610 1.373 . S
C609 C611 1.388 1_554 S
C610 H583 0.950 . S
C610 C596 1.377 . S
C610 C609 1.373 . S
C611 C595 1.377 . S
C611 C609 1.388 1_556 S
C611 C612 1.525 . S
C612 C611 1.525 . S
C612 C613 1.397 1_556 S
C612 C617 1.363 . S
C613 H584 0.950 . S
C613 C612 1.397 1_554 S
C613 C614 1.334 . S
C614 H585 0.950 . S
C614 C613 1.334 . S
C614 C615 1.287 1_554 S
C615 C614 1.287 1_556 S
C615 C616 1.524 . S
C615 H618 0.999 . S
C616 H586 0.950 . S
C616 C615 1.524 . S
C616 C617 1.415 . S
C617 H587 0.950 . S
C617 C612 1.363 . S
C617 C616 1.415 . S
H618 C615 0.999 . S
H619 C600 0.913 . S
H620 C638 0.951 . S
H621 C640 0.951 . S
H622 C642 0.950 . S
H623 C643 0.950 . S
H624 C645 0.950 . S
H625 C648 0.950 . S
H626 C649 0.950 . S
H627 C651 0.950 . S
H628 C652 0.950 . S
H629 C653 0.951 . S
H630 C655 0.951 . S
H631 C657 0.950 . S
H632 C658 0.950 . S
H633 C660 0.950 1_655 S
H634 C663 0.950 . S
H635 C664 0.950 . S
H636 C666 0.950 . S
H637 C667 0.950 . S
C638 H620 0.951 . S
C638 C639 1.366 . S
C638 C640 1.388 . S
C639 C638 1.366 . S
C639 C643 1.385 . S
C640 H621 0.951 . S
C640 C638 1.388 . S
C640 C641 1.366 . S
C641 C640 1.366 . S
C641 C642 1.414 . S
C641 C644 1.499 . S
C642 H622 0.950 . S
C642 C641 1.414 . S
C642 C643 1.374 . S
C643 H623 0.950 . S
C643 C639 1.385 . S
C643 C642 1.374 . S
C644 C641 1.499 . S
C644 C645 1.373 . S
C644 C646 1.389 . S
C645 H624 0.950 . S
C645 C644 1.373 . S
C645 C661 1.377 . S
C646 C644 1.389 . S
C646 C647 1.524 . S
C646 C660 1.377 . S
C647 C646 1.524 . S
C647 C648 1.397 . S
C647 C652 1.363 . S
C648 H625 0.950 . S
C648 C647 1.397 . S
C648 C649 1.334 . S
C649 H626 0.950 . S
C649 C648 1.334 . S
C649 C650 1.287 . S
C650 C649 1.287 . S
C650 C651 1.524 . S
C650 H669 0.913 . S
C651 H627 0.950 . S
C651 C650 1.524 . S
C651 C652 1.415 . S
C652 H628 0.950 . S
C652 C647 1.363 . S
C652 C651 1.415 . S
C653 H629 0.951 . S
C653 C654 1.366 . S
C653 C655 1.388 . S
C654 C653 1.366 . S
C654 C658 1.385 . S
C655 H630 0.951 . S
C655 C653 1.388 . S
C655 C656 1.366 . S
C656 C655 1.366 . S
C656 C657 1.414 . S
C656 C659 1.499 . S
C657 H631 0.950 . S
C657 C656 1.414 . S
C657 C658 1.374 . S
C658 H632 0.950 . S
C658 C654 1.385 . S
C658 C657 1.374 . S
C659 C656 1.499 . S
C659 C660 1.373 1_655 S
C659 C661 1.389 1_655 S
C660 H633 0.950 1_455 S
C660 C646 1.377 . S
C660 C659 1.373 1_455 S
C661 C645 1.377 . S
C661 C659 1.389 1_455 S
C661 C662 1.524 . S
C662 C661 1.524 . S
C662 C663 1.397 1_455 S
C662 C667 1.363 . S
C663 H634 0.950 . S
C663 C662 1.397 1_655 S
C663 C664 1.334 . S
C664 H635 0.950 . S
C664 C663 1.334 . S
C664 C665 1.287 . S
C665 C664 1.287 . S
C665 C666 1.524 1_655 S
C665 H668 0.999 . S
C666 H636 0.950 . S
C666 C665 1.524 1_455 S
C666 C667 1.415 . S
C667 H637 0.950 . S
C667 C662 1.363 . S
C667 C666 1.415 . S
H668 C665 0.999 . S
H669 C650 0.913 . S
H670 C688 0.951 . S
H671 C690 0.951 . S
H672 C692 0.950 . S
H673 C693 0.950 . S
H674 C695 0.950 . S
H675 C698 0.950 . S
H676 C699 0.950 . S
H677 C701 0.950 . S
H678 C702 0.950 . S
H679 C703 0.951 . S
H680 C705 0.951 . S
H681 C707 0.950 . S
H682 C708 0.950 . S
H683 C710 0.949 . S
H684 C713 0.950 . S
H685 C714 0.950 . S
H686 C716 0.950 . S
H687 C717 0.950 . S
C688 H670 0.951 . S
C688 C689 1.366 . S
C688 C690 1.388 . S
C689 C688 1.366 . S
C689 C693 1.385 . S
C690 H671 0.951 . S
C690 C688 1.388 . S
C690 C691 1.366 . S
C691 C690 1.366 . S
C691 C692 1.414 . S
C691 C694 1.499 . S
C692 H672 0.950 . S
C692 C691 1.414 . S
C692 C693 1.374 . S
C693 H673 0.950 . S
C693 C689 1.385 . S
C693 C692 1.374 . S
C694 C691 1.499 . S
C694 C695 1.373 . S
C694 C696 1.389 . S
C695 H674 0.950 . S
C695 C694 1.373 . S
C695 C711 1.377 . S
C696 C694 1.389 . S
C696 C697 1.524 . S
C696 C710 1.377 . S
C697 C696 1.524 . S
C697 C698 1.397 . S
C697 C702 1.363 . S
C698 H675 0.950 . S
C698 C697 1.397 . S
C698 C699 1.334 . S
C699 H676 0.950 . S
C699 C698 1.334 . S
C699 C700 1.287 . S
C700 C699 1.287 . S
C700 C701 1.524 . S
C700 H719 0.913 . S
C701 H677 0.950 . S
C701 C700 1.524 . S
C701 C702 1.415 . S
C702 H678 0.950 . S
C702 C697 1.363 . S
C702 C701 1.415 . S
C703 H679 0.951 . S
C703 C704 1.366 . S
C703 C705 1.388 . S
C704 C703 1.366 . S
C704 C708 1.385 . S
C705 H680 0.951 . S
C705 C703 1.388 . S
C705 C706 1.366 . S
C706 C705 1.366 . S
C706 C707 1.414 . S
C706 C709 1.499 . S
C707 H681 0.950 . S
C707 C706 1.414 . S
C707 C708 1.374 . S
C708 H682 0.950 . S
C708 C704 1.385 . S
C708 C707 1.374 . S
C709 C706 1.499 . S
C709 C710 1.373 1_455 S
C709 C711 1.389 1_455 S
C710 H683 0.949 . S
C710 C696 1.377 . S
C710 C709 1.373 1_655 S
C711 C695 1.377 . S
C711 C709 1.389 1_655 S
C711 C712 1.524 . S
C712 C711 1.524 . S
C712 C713 1.397 1_655 S
C712 C717 1.363 . S
C713 H684 0.950 . S
C713 C712 1.397 1_455 S
C713 C714 1.334 . S
C714 H685 0.950 . S
C714 C713 1.334 . S
C714 C715 1.287 . S
C715 C714 1.287 . S
C715 C716 1.524 1_455 S
C715 H718 0.999 . S
C716 H686 0.950 . S
C716 C715 1.524 1_655 S
C716 C717 1.415 . S
C717 H687 0.950 . S
C717 C712 1.363 . S
C717 C716 1.415 . S
H718 C715 0.999 . S
H719 C700 0.913 . S
H720 C738 0.951 . S
H721 C740 0.951 . S
H722 C742 0.950 1_655 S
H723 C743 0.949 . S
H724 C745 0.950 . S
H725 C748 0.950 . S
H726 C749 0.950 . S
H727 C751 0.950 . S
H728 C752 0.950 1_554 S
H729 C753 0.951 1_556 S
H730 C755 0.943 1_556 S
H731 C757 0.950 1_455 S
H732 C758 0.951 1_455 S
H733 C760 0.951 . S
H734 C763 0.950 . S
H735 C764 0.950 . S
H736 C766 0.950 . S
H737 C767 0.950 1_556 S
C738 H720 0.951 . S
C738 C739 1.366 1_554 S
C738 C740 1.388 . S
C739 C738 1.366 1_556 S
C739 C743 1.385 . S
C740 H721 0.951 . S
C740 C738 1.388 . S
C740 C741 1.365 1_554 S
C741 C740 1.365 1_556 S
C741 C742 1.414 . S
C741 C744 1.499 1_556 S
C742 H722 0.950 1_455 S
C742 C741 1.414 . S
C742 C743 1.374 . S
C743 H723 0.949 . S
C743 C739 1.385 . S
C743 C742 1.374 . S
C744 C741 1.499 1_554 S
C744 C745 1.373 1_455 S
C744 C746 1.389 1_554 S
C745 H724 0.950 . S
C745 C744 1.373 1_655 S
C745 C761 1.377 . S
C746 C744 1.389 1_556 S
C746 C747 1.524 . S
C746 C760 1.377 1_556 S
C747 C746 1.524 . S
C747 C748 1.397 . S
C747 C752 1.363 . S
C748 H725 0.950 . S
C748 C747 1.397 . S
C748 C749 1.334 . S
C749 H726 0.950 . S
C749 C748 1.334 . S
C749 C750 1.287 . S
C750 C749 1.287 . S
C750 C751 1.524 . S
C750 H769 0.913 . S
C751 H727 0.950 . S
C751 C750 1.524 . S
C751 C752 1.415 . S
C752 H728 0.950 1_556 S
C752 C747 1.363 . S
C752 C751 1.415 . S
C753 H729 0.951 1_554 S
C753 C754 1.366 . S
C753 C755 1.389 . S
C754 C753 1.366 . S
C754 C758 1.385 . S
C755 H730 0.943 1_554 S
C755 C753 1.389 . S
C755 C756 1.372 . S
C756 C755 1.372 . S
C756 C757 1.414 . S
C756 C759 1.499 . S
C757 H731 0.950 1_655 S
C757 C756 1.414 . S
C757 C758 1.374 . S
C758 H732 0.951 1_655 S
C758 C754 1.385 . S
C758 C757 1.374 . S
C759 C756 1.499 . S
C759 C760 1.373 1_655 S
C759 C761 1.389 . S
C760 H733 0.951 . S
C760 C746 1.377 1_554 S
C760 C759 1.373 1_455 S
C761 C745 1.377 . S
C761 C759 1.389 . S
C761 C762 1.524 . S
C762 C761 1.524 . S
C762 C763 1.397 . S
C762 C767 1.363 . S
C763 H734 0.950 . S
C763 C762 1.397 . S
C763 C764 1.334 . S
C764 H735 0.950 . S
C764 C763 1.334 . S
C764 C765 1.287 . S
C765 C764 1.287 . S
C765 C766 1.524 . S
C765 H768 0.999 . S
C766 H736 0.950 . S
C766 C765 1.524 . S
C766 C767 1.415 . S
C767 H737 0.950 1_554 S
C767 C762 1.363 . S
C767 C766 1.415 . S
H768 C765 0.999 . S
H769 C750 0.913 . S
H770 C788 0.951 . S
H771 C790 0.951 . S
H772 C792 0.950 . S
H773 C793 0.950 . S
H774 C795 0.950 . S
H775 C798 0.950 . S
H776 C799 0.950 . S
H777 C801 0.950 . S
H778 C802 0.950 . S
H779 C803 0.951 . S
H780 C805 0.951 . S
H781 C807 0.950 . S
H782 C808 0.950 . S
H783 C810 0.950 . S
H784 C813 0.950 . S
H785 C814 0.950 . S
H786 C816 0.950 . S
H787 C817 0.950 . S
C788 H770 0.951 . S
C788 C789 1.366 . S
C788 C790 1.388 . S
C789 C788 1.366 . S
C789 C793 1.385 . S
C790 H771 0.951 . S
C790 C788 1.388 . S
C790 C791 1.366 . S
C791 C790 1.366 . S
C791 C792 1.414 . S
C791 C794 1.499 . S
C792 H772 0.950 . S
C792 C791 1.414 . S
C792 C793 1.374 . S
C793 H773 0.950 . S
C793 C789 1.385 . S
C793 C792 1.374 . S
C794 C791 1.499 . S
C794 C795 1.373 . S
C794 C796 1.389 1_455 S
C795 H774 0.950 . S
C795 C794 1.373 . S
C795 C811 1.377 . S
C796 C794 1.389 1_655 S
C796 C797 1.524 . S
C796 C810 1.377 . S
C797 C796 1.524 . S
C797 C798 1.397 . S
C797 C802 1.363 . S
C798 H775 0.950 . S
C798 C797 1.397 . S
C798 C799 1.334 . S
C799 H776 0.950 . S
C799 C798 1.334 . S
C799 C800 1.287 . S
C800 C799 1.287 . S
C800 C801 1.524 . S
C800 H819 0.913 . S
C801 H777 0.950 . S
C801 C800 1.524 . S
C801 C802 1.415 . S
C802 H778 0.950 . S
C802 C797 1.363 . S
C802 C801 1.415 . S
C803 H779 0.951 . S
C803 C804 1.366 . S
C803 C805 1.388 . S
C804 C803 1.366 . S
C804 C808 1.385 . S
C805 H780 0.951 . S
C805 C803 1.388 . S
C805 C806 1.366 . S
C806 C805 1.366 . S
C806 C807 1.414 . S
C806 C809 1.499 . S
C807 H781 0.950 . S
C807 C806 1.414 . S
C807 C808 1.374 . S
C808 H782 0.950 . S
C808 C804 1.385 . S
C808 C807 1.374 . S
C809 C806 1.499 . S
C809 C810 1.373 . S
C809 C811 1.389 1_655 S
C810 H783 0.950 . S
C810 C796 1.377 . S
C810 C809 1.373 . S
C811 C795 1.377 . S
C811 C809 1.389 1_455 S
C811 C812 1.524 . S
C812 C811 1.524 . S
C812 C813 1.397 . S
C812 C817 1.363 . S
C813 H784 0.950 . S
C813 C812 1.397 . S
C813 C814 1.334 . S
C814 H785 0.950 . S
C814 C813 1.334 . S
C814 C815 1.287 . S
C815 C814 1.287 . S
C815 C816 1.524 . S
C815 H818 0.999 . S
C816 H786 0.950 . S
C816 C815 1.524 . S
C816 C817 1.415 . S
C817 H787 0.950 . S
C817 C812 1.363 . S
C817 C816 1.415 . S
H818 C815 0.999 . S
H819 C800 0.913 . S
H820 C838 0.951 . S
H821 C840 0.951 . S
H822 C842 0.950 . S
H823 C843 0.950 . S
H824 C845 0.950 . S
H825 C848 0.950 . S
H826 C849 0.950 . S
H827 C851 0.950 . S
H828 C852 0.950 . S
H829 C853 0.951 . S
H830 C855 0.951 . S
H831 C857 0.950 . S
H832 C858 0.950 . S
H833 C860 0.950 . S
H834 C863 0.950 . S
H835 C864 0.950 . S
H836 C866 0.950 . S
H837 C867 0.950 . S
C838 H820 0.951 . S
C838 C839 1.366 . S
C838 C840 1.388 . S
C839 C838 1.366 . S
C839 C843 1.385 . S
C840 H821 0.951 . S
C840 C838 1.388 . S
C840 C841 1.366 . S
C841 C840 1.366 . S
C841 C842 1.414 . S
C841 C844 1.499 . S
C842 H822 0.950 . S
C842 C841 1.414 . S
C842 C843 1.374 . S
C843 H823 0.950 . S
C843 C839 1.385 . S
C843 C842 1.374 . S
C844 C841 1.499 . S
C844 C845 1.373 1_554 S
C844 C846 1.389 . S
C845 H824 0.950 . S
C845 C844 1.373 1_556 S
C845 C861 1.377 1_565 S
C846 C844 1.389 . S
C846 C847 1.524 . S
C846 C860 1.377 1_565 S
C847 C846 1.524 . S
C847 C848 1.397 . S
C847 C852 1.363 . S
C848 H825 0.950 . S
C848 C847 1.397 . S
C848 C849 1.334 . S
C849 H826 0.950 . S
C849 C848 1.334 . S
C849 C850 1.287 . S
C850 C849 1.287 . S
C850 C851 1.524 . S
C850 H869 0.913 . S
C851 H827 0.950 . S
C851 C850 1.524 . S
C851 C852 1.415 . S
C852 H828 0.950 . S
C852 C847 1.363 . S
C852 C851 1.415 . S
C853 H829 0.951 . S
C853 C854 1.366 1_554 S
C853 C855 1.388 . S
C854 C853 1.366 1_556 S
C854 C858 1.385 . S
C855 H830 0.951 . S
C855 C853 1.388 . S
C855 C856 1.364 1_554 S
C856 C855 1.364 1_556 S
C856 C857 1.416 . S
C856 C859 1.498 1_556 S
C857 H831 0.950 . S
C857 C856 1.416 . S
C857 C858 1.374 . S
C858 H832 0.950 . S
C858 C854 1.385 . S
C858 C857 1.374 . S
C859 C856 1.498 1_554 S
C859 C860 1.373 . S
C859 C861 1.389 1_554 S
C860 H833 0.950 . S
C860 C846 1.377 1_545 S
C860 C859 1.373 . S
C861 C845 1.377 1_545 S
C861 C859 1.389 1_556 S
C861 C862 1.524 . S
C862 C861 1.524 . S
C862 C863 1.397 . S
C862 C867 1.363 . S
C863 H834 0.950 . S
C863 C862 1.397 . S
C863 C864 1.334 . S
C864 H835 0.950 . S
C864 C863 1.334 . S
C864 C865 1.287 . S
C865 C864 1.287 . S
C865 C866 1.524 . S
C865 H868 0.999 . S
C866 H836 0.950 . S
C866 C865 1.524 . S
C866 C867 1.415 . S
C867 H837 0.950 . S
C867 C862 1.363 . S
C867 C866 1.415 . S
H868 C865 0.999 . S
H869 C850 0.913 . S
H870 C888 0.951 . S
H871 C890 0.951 . S
H872 C892 0.950 . S
H873 C893 0.950 . S
H874 C895 0.950 . S
H875 C898 0.950 . S
H876 C899 0.950 . S
H877 C901 0.950 . S
H878 C902 0.950 . S
H879 C903 0.951 . S
H880 C905 0.951 . S
H881 C907 0.950 . S
H882 C908 0.950 . S
H883 C910 0.950 . S
H884 C913 0.950 . S
H885 C914 0.950 . S
H886 C916 0.950 . S
H887 C917 0.950 . S
C888 H870 0.951 . S
C888 C889 1.366 . S
C888 C890 1.388 . S
C889 C888 1.366 . S
C889 C893 1.385 . S
C890 H871 0.951 . S
C890 C888 1.388 . S
C890 C891 1.366 . S
C891 C890 1.366 . S
C891 C892 1.414 . S
C891 C894 1.499 . S
C892 H872 0.950 . S
C892 C891 1.414 . S
C892 C893 1.374 . S
C893 H873 0.950 . S
C893 C889 1.385 . S
C893 C892 1.374 . S
C894 C891 1.499 . S
C894 C895 1.373 . S
C894 C896 1.389 . S
C895 H874 0.950 . S
C895 C894 1.373 . S
C895 C911 1.377 1_545 S
C896 C894 1.389 . S
C896 C897 1.524 . S
C896 C910 1.377 1_545 S
C897 C896 1.524 . S
C897 C898 1.397 . S
C897 C902 1.363 1_545 S
C898 H875 0.950 . S
C898 C897 1.397 . S
C898 C899 1.334 . S
C899 H876 0.950 . S
C899 C898 1.334 . S
C899 C900 1.287 . S
C900 C899 1.287 . S
C900 C901 1.524 1_545 S
C900 H919 0.913 . S
C901 H877 0.950 . S
C901 C900 1.524 1_565 S
C901 C902 1.415 . S
C902 H878 0.950 . S
C902 C897 1.363 1_565 S
C902 C901 1.415 . S
C903 H879 0.951 . S
C903 C904 1.366 . S
C903 C905 1.388 . S
C904 C903 1.366 . S
C904 C908 1.385 . S
C905 H880 0.951 . S
C905 C903 1.388 . S
C905 C906 1.366 . S
C906 C905 1.366 . S
C906 C907 1.414 . S
C906 C909 1.499 . S
C907 H881 0.950 . S
C907 C906 1.414 . S
C907 C908 1.374 . S
C908 H882 0.950 . S
C908 C904 1.385 . S
C908 C907 1.374 . S
C909 C906 1.499 . S
C909 C910 1.373 . S
C909 C911 1.389 . S
C910 H883 0.950 . S
C910 C896 1.377 1_565 S
C910 C909 1.373 . S
C911 C895 1.377 1_565 S
C911 C909 1.389 . S
C911 C912 1.524 . S
C912 C911 1.524 . S
C912 C913 1.397 . S
C912 C917 1.363 1_565 S
C913 H884 0.950 . S
C913 C912 1.397 . S
C913 C914 1.334 . S
C914 H885 0.950 . S
C914 C913 1.334 . S
C914 C915 1.287 . S
C915 C914 1.287 . S
C915 C916 1.524 1_565 S
C915 H918 0.999 . S
C916 H886 0.950 . S
C916 C915 1.524 1_545 S
C916 C917 1.415 . S
C917 H887 0.950 . S
C917 C912 1.363 1_545 S
C917 C916 1.415 . S
H918 C915 0.999 . S
H919 C900 0.913 . S
H920 C938 0.951 . S
H921 C940 0.951 . S
H922 C942 0.950 . S
H923 C943 0.950 . S
H924 C945 0.950 . S
H925 C948 0.950 . S
H926 C949 0.950 . S
H927 C951 0.950 . S
H928 C952 0.950 . S
H929 C953 0.951 . S
H930 C955 0.951 . S
H931 C957 0.950 . S
H932 C958 0.950 . S
H933 C960 0.950 . S
H934 C963 0.950 . S
H935 C964 0.950 . S
H936 C966 0.950 . S
H937 C967 0.950 . S
C938 H920 0.951 . S
C938 C939 1.366 . S
C938 C940 1.388 . S
C939 C938 1.366 . S
C939 C943 1.385 1_556 S
C940 H921 0.951 . S
C940 C938 1.388 . S
C940 C941 1.373 . S
C941 C940 1.373 . S
C941 C942 1.409 1_556 S
C941 C944 1.496 1_556 S
C942 H922 0.950 . S
C942 C941 1.409 1_554 S
C942 C943 1.374 . S
C943 H923 0.950 . S
C943 C939 1.385 1_554 S
C943 C942 1.374 . S
C944 C941 1.496 1_554 S
C944 C945 1.373 . S
C944 C946 1.389 1_554 S
C945 H924 0.950 . S
C945 C944 1.373 . S
C945 C961 1.377 . S
C946 C944 1.389 1_556 S
C946 C947 1.524 . S
C946 C960 1.377 . S
C947 C946 1.524 . S
C947 C948 1.397 . S
C947 C952 1.363 . S
C948 H925 0.950 . S
C948 C947 1.397 . S
C948 C949 1.334 . S
C949 H926 0.950 . S
C949 C948 1.334 . S
C949 C950 1.287 . S
C950 C949 1.287 . S
C950 C951 1.524 . S
C950 H969 0.913 . S
C951 H927 0.950 . S
C951 C950 1.524 . S
C951 C952 1.415 . S
C952 H928 0.950 . S
C952 C947 1.363 . S
C952 C951 1.415 . S
C953 H929 0.951 . S
C953 C954 1.366 . S
C953 C955 1.388 . S
C954 C953 1.366 . S
C954 C958 1.385 . S
C955 H930 0.951 . S
C955 C953 1.388 . S
C955 C956 1.366 . S
C956 C955 1.366 . S
C956 C957 1.414 . S
C956 C959 1.499 . S
C957 H931 0.950 . S
C957 C956 1.414 . S
C957 C958 1.374 . S
C958 H932 0.950 . S
C958 C954 1.385 . S
C958 C957 1.374 . S
C959 C956 1.499 . S
C959 C960 1.373 1_554 S
C959 C961 1.389 . S
C960 H933 0.950 . S
C960 C946 1.377 . S
C960 C959 1.373 1_556 S
C961 C945 1.377 . S
C961 C959 1.389 . S
C961 C962 1.524 . S
C962 C961 1.524 . S
C962 C963 1.397 . S
C962 C967 1.363 . S
C963 H934 0.950 . S
C963 C962 1.397 . S
C963 C964 1.334 . S
C964 H935 0.950 . S
C964 C963 1.334 . S
C964 C965 1.287 . S
C965 C964 1.287 . S
C965 C966 1.524 . S
C965 H968 0.999 . S
C966 H936 0.950 . S
C966 C965 1.524 . S
C966 C967 1.415 . S
C967 H937 0.950 . S
C967 C962 1.363 . S
C967 C966 1.415 . S
H968 C965 0.999 . S
H969 C950 0.913 . S
H970 C988 0.951 . S
H971 C990 0.951 . S
H972 C992 0.950 . S
H973 C993 0.950 . S
H974 C995 0.950 . S
H975 C998 0.950 . S
H976 C999 0.950 . S
H977 C1001 0.950 . S
H978 C1002 0.950 . S
H979 C1003 0.951 . S
H980 C1005 0.951 . S
H981 C1007 0.950 . S
H982 C1008 0.950 . S
H983 C1010 0.950 . S
H984 C1013 0.950 . S
H985 C1014 0.950 . S
H986 C1016 0.950 . S
H987 C1017 0.950 . S
C988 H970 0.951 . S
C988 C989 1.366 1_554 S
C988 C990 1.388 . S
C989 C988 1.366 1_556 S
C989 C993 1.385 . S
C990 H971 0.951 . S
C990 C988 1.388 . S
C990 C991 1.366 . S
C991 C990 1.366 . S
C991 C992 1.414 1_554 S
C991 C994 1.499 . S
C992 H972 0.950 . S
C992 C991 1.414 1_556 S
C992 C993 1.374 . S
C993 H973 0.950 . S
C993 C989 1.385 . S
C993 C992 1.374 . S
C994 C991 1.499 . S
C994 C995 1.373 1_554 S
C994 C996 1.389 . S
C995 H974 0.950 . S
C995 C994 1.373 1_556 S
C995 C1011 1.377 . S
C996 C994 1.389 . S
C996 C997 1.524 . S
C996 C1010 1.377 . S
C997 C996 1.524 . S
C997 C998 1.397 . S
C997 C1002 1.363 . S
C998 H975 0.950 . S
C998 C997 1.397 . S
C998 C999 1.334 . S
C999 H976 0.950 . S
C999 C998 1.334 . S
C999 C1000 1.287 . S
C1000 C999 1.287 . S
C1000 C1001 1.524 . S
C1000 H1019 0.913 . S
C1001 H977 0.950 . S
C1001 C1000 1.524 . S
C1001 C1002 1.415 . S
C1002 H978 0.950 . S
C1002 C997 1.363 . S
C1002 C1001 1.415 . S
C1003 H979 0.951 . S
C1003 C1004 1.366 1_556 S
C1003 C1005 1.388 . S
C1004 C1003 1.366 1_554 S
C1004 C1008 1.385 . S
C1005 H980 0.951 . S
C1005 C1003 1.388 . S
C1005 C1006 1.366 1_556 S
C1006 C1005 1.366 1_554 S
C1006 C1007 1.414 . S
C1006 C1009 1.499 . S
C1007 H981 0.950 . S
C1007 C1006 1.414 . S
C1007 C1008 1.374 . S
C1008 H982 0.950 . S
C1008 C1004 1.385 . S
C1008 C1007 1.374 . S
C1009 C1006 1.499 . S
C1009 C1010 1.373 . S
C1009 C1011 1.389 1_554 S
C1010 H983 0.950 . S
C1010 C996 1.377 . S
C1010 C1009 1.373 . S
C1011 C995 1.377 . S
C1011 C1009 1.389 1_556 S
C1011 C1012 1.524 . S
C1012 C1011 1.524 . S
C1012 C1013 1.397 . S
C1012 C1017 1.363 . S
C1013 H984 0.950 . S
C1013 C1012 1.397 . S
C1013 C1014 1.334 . S
C1014 H985 0.950 . S
C1014 C1013 1.334 . S
C1014 C1015 1.287 . S
C1015 C1014 1.287 . S
C1015 C1016 1.524 . S
C1015 H1018 0.999 . S
C1016 H986 0.950 . S
C1016 C1015 1.524 . S
C1016 C1017 1.415 . S
C1017 H987 0.950 . S
C1017 C1012 1.363 . S
C1017 C1016 1.415 . S
H1018 C1015 0.999 . S
H1019 C1000 0.913 . S
H1020 C1038 0.951 . S
H1021 C1040 0.951 . S
H1022 C1042 0.950 . S
H1023 C1043 0.950 . S
H1024 C1045 0.950 . S
H1025 C1048 0.950 . S
H1026 C1049 0.950 . S
H1027 C1051 0.950 1_655 S
H1028 C1052 0.950 . S
H1029 C1053 0.951 . S
H1030 C1055 0.951 . S
H1031 C1057 0.950 . S
H1032 C1058 0.950 . S
H1033 C1060 0.950 . S
H1034 C1063 0.950 . S
H1035 C1064 0.950 . S
H1036 C1066 0.950 . S
H1037 C1067 0.950 . S
C1038 H1020 0.951 . S
C1038 C1039 1.366 . S
C1038 C1040 1.388 . S
C1039 C1038 1.366 . S
C1039 C1043 1.385 . S
C1040 H1021 0.951 . S
C1040 C1038 1.388 . S
C1040 C1041 1.366 . S
C1041 C1040 1.366 . S
C1041 C1042 1.414 . S
C1041 C1044 1.499 . S
C1042 H1022 0.950 . S
C1042 C1041 1.414 . S
C1042 C1043 1.374 . S
C1043 H1023 0.950 . S
C1043 C1039 1.385 . S
C1043 C1042 1.374 . S
C1044 C1041 1.499 . S
C1044 C1045 1.373 . S
C1044 C1046 1.389 . S
C1045 H1024 0.950 . S
C1045 C1044 1.373 . S
C1045 C1061 1.377 . S
C1046 C1044 1.389 . S
C1046 C1047 1.524 . S
C1046 C1060 1.377 . S
C1047 C1046 1.524 . S
C1047 C1048 1.397 . S
C1047 C1052 1.363 . S
C1048 H1025 0.950 . S
C1048 C1047 1.397 . S
C1048 C1049 1.334 . S
C1049 H1026 0.950 . S
C1049 C1048 1.334 . S
C1049 C1050 1.287 . S
C1050 C1049 1.287 . S
C1050 C1051 1.524 . S
C1050 H1069 0.913 . S
C1051 H1027 0.950 1_455 S
C1051 C1050 1.524 . S
C1051 C1052 1.415 . S
C1052 H1028 0.950 . S
C1052 C1047 1.363 . S
C1052 C1051 1.415 . S
C1053 H1029 0.951 . S
C1053 C1054 1.366 . S
C1053 C1055 1.388 . S
C1054 C1053 1.366 . S
C1054 C1058 1.385 . S
C1055 H1030 0.951 . S
C1055 C1053 1.388 . S
C1055 C1056 1.366 . S
C1056 C1055 1.366 . S
C1056 C1057 1.414 . S
C1056 C1059 1.499 . S
C1057 H1031 0.950 . S
C1057 C1056 1.414 . S
C1057 C1058 1.374 . S
C1058 H1032 0.950 . S
C1058 C1054 1.385 . S
C1058 C1057 1.374 . S
C1059 C1056 1.499 . S
C1059 C1060 1.373 . S
C1059 C1061 1.389 . S
C1060 H1033 0.950 . S
C1060 C1046 1.377 . S
C1060 C1059 1.373 . S
C1061 C1045 1.377 . S
C1061 C1059 1.389 . S
C1061 C1062 1.524 . S
C1062 C1061 1.524 . S
C1062 C1063 1.397 . S
C1062 C1067 1.363 . S
C1063 H1034 0.950 . S
C1063 C1062 1.397 . S
C1063 C1064 1.334 . S
C1064 H1035 0.950 . S
C1064 C1063 1.334 . S
C1064 C1065 1.287 . S
C1065 C1064 1.287 . S
C1065 C1066 1.524 . S
C1065 H1068 0.999 . S
C1066 H1036 0.950 . S
C1066 C1065 1.524 . S
C1066 C1067 1.415 . S
C1067 H1037 0.950 . S
C1067 C1062 1.363 . S
C1067 C1066 1.415 . S
H1068 C1065 0.999 . S
H1069 C1050 0.913 . S
H1070 C1088 0.951 . S
H1071 C1090 0.951 . S
H1072 C1092 0.950 . S
H1073 C1093 0.950 . S
H1074 C1095 0.950 . S
H1075 C1098 0.950 . S
H1076 C1099 0.950 . S
H1077 C1101 0.950 . S
H1078 C1102 0.950 . S
H1079 C1103 0.951 . S
H1080 C1105 0.951 . S
H1081 C1107 0.950 . S
H1082 C1108 0.950 . S
H1083 C1110 0.950 . S
H1084 C1113 0.950 . S
H1085 C1114 0.950 . S
H1086 C1116 0.950 1_455 S
H1087 C1117 0.950 . S
C1088 H1070 0.951 . S
C1088 C1089 1.366 . S
C1088 C1090 1.388 . S
C1089 C1088 1.366 . S
C1089 C1093 1.385 . S
C1090 H1071 0.951 . S
C1090 C1088 1.388 . S
C1090 C1091 1.366 . S
C1091 C1090 1.366 . S
C1091 C1092 1.414 . S
C1091 C1094 1.499 . S
C1092 H1072 0.950 . S
C1092 C1091 1.414 . S
C1092 C1093 1.374 . S
C1093 H1073 0.950 . S
C1093 C1089 1.385 . S
C1093 C1092 1.374 . S
C1094 C1091 1.499 . S
C1094 C1095 1.373 . S
C1094 C1096 1.389 . S
C1095 H1074 0.950 . S
C1095 C1094 1.373 . S
C1095 C1111 1.377 . S
C1096 C1094 1.389 . S
C1096 C1097 1.524 . S
C1096 C1110 1.377 . S
C1097 C1096 1.524 . S
C1097 C1098 1.397 . S
C1097 C1102 1.363 . S
C1098 H1075 0.950 . S
C1098 C1097 1.397 . S
C1098 C1099 1.334 . S
C1099 H1076 0.950 . S
C1099 C1098 1.334 . S
C1099 C1100 1.287 . S
C1100 C1099 1.287 . S
C1100 C1101 1.524 . S
C1100 H1119 0.913 . S
C1101 H1077 0.950 . S
C1101 C1100 1.524 . S
C1101 C1102 1.415 . S
C1102 H1078 0.950 . S
C1102 C1097 1.363 . S
C1102 C1101 1.415 . S
C1103 H1079 0.951 . S
C1103 C1104 1.366 . S
C1103 C1105 1.388 . S
C1104 C1103 1.366 . S
C1104 C1108 1.385 . S
C1105 H1080 0.951 . S
C1105 C1103 1.388 . S
C1105 C1106 1.366 . S
C1106 C1105 1.366 . S
C1106 C1107 1.414 . S
C1106 C1109 1.499 . S
C1107 H1081 0.950 . S
C1107 C1106 1.414 . S
C1107 C1108 1.374 . S
C1108 H1082 0.950 . S
C1108 C1104 1.385 . S
C1108 C1107 1.374 . S
C1109 C1106 1.499 . S
C1109 C1110 1.373 . S
C1109 C1111 1.389 . S
C1110 H1083 0.950 . S
C1110 C1096 1.377 . S
C1110 C1109 1.373 . S
C1111 C1095 1.377 . S
C1111 C1109 1.389 . S
C1111 C1112 1.524 . S
C1112 C1111 1.524 . S
C1112 C1113 1.397 . S
C1112 C1117 1.363 . S
C1113 H1084 0.950 . S
C1113 C1112 1.397 . S
C1113 C1114 1.334 . S
C1114 H1085 0.950 . S
C1114 C1113 1.334 . S
C1114 C1115 1.287 . S
C1115 C1114 1.287 . S
C1115 C1116 1.524 . S
C1115 H1118 0.999 . S
C1116 H1086 0.950 1_655 S
C1116 C1115 1.524 . S
C1116 C1117 1.415 . S
C1117 H1087 0.950 . S
C1117 C1112 1.363 . S
C1117 C1116 1.415 . S
H1118 C1115 0.999 . S
H1119 C1100 0.913 . S
H1120 C1138 0.951 . S
H1121 C1140 0.951 . S
H1122 C1142 0.950 . S
H1123 C1143 0.950 . S
H1124 C1145 0.950 . S
H1125 C1148 0.950 . S
H1126 C1149 0.950 1_655 S
H1127 C1151 0.950 . S
H1128 C1152 0.950 . S
H1129 C1153 0.951 . S
H1130 C1155 0.951 . S
H1131 C1157 0.950 . S
H1132 C1158 0.950 . S
H1133 C1160 0.950 . S
H1134 C1163 0.950 . S
H1135 C1164 0.950 1_455 S
H1136 C1166 0.950 . S
H1137 C1167 0.950 . S
C1138 H1120 0.951 . S
C1138 C1139 1.366 . S
C1138 C1140 1.388 . S
C1139 C1138 1.366 . S
C1139 C1143 1.385 1_455 S
C1140 H1121 0.951 . S
C1140 C1138 1.388 . S
C1140 C1141 1.366 . S
C1141 C1140 1.366 . S
C1141 C1142 1.414 1_455 S
C1141 C1144 1.499 . S
C1142 H1122 0.950 . S
C1142 C1141 1.414 1_655 S
C1142 C1143 1.374 . S
C1143 H1123 0.950 . S
C1143 C1139 1.385 1_655 S
C1143 C1142 1.374 . S
C1144 C1141 1.499 . S
C1144 C1145 1.373 1_455 S
C1144 C1146 1.389 . S
C1145 H1124 0.950 . S
C1145 C1144 1.373 1_655 S
C1145 C1161 1.377 . S
C1146 C1144 1.389 . S
C1146 C1147 1.524 . S
C1146 C1160 1.377 . S
C1147 C1146 1.524 . S
C1147 C1148 1.397 1_455 S
C1147 C1152 1.363 . S
C1148 H1125 0.950 . S
C1148 C1147 1.397 1_655 S
C1148 C1149 1.334 1_655 S
C1149 H1126 0.950 1_455 S
C1149 C1148 1.334 1_455 S
C1149 C1150 1.287 . S
C1150 C1149 1.287 . S
C1150 C1151 1.524 . S
C1150 H1169 0.913 . S
C1151 H1127 0.950 . S
C1151 C1150 1.524 . S
C1151 C1152 1.415 . S
C1152 H1128 0.950 . S
C1152 C1147 1.363 . S
C1152 C1151 1.415 . S
C1153 H1129 0.951 . S
C1153 C1154 1.366 . S
C1153 C1155 1.388 . S
C1154 C1153 1.366 . S
C1154 C1158 1.385 1_655 S
C1155 H1130 0.951 . S
C1155 C1153 1.388 . S
C1155 C1156 1.366 . S
C1156 C1155 1.366 . S
C1156 C1157 1.414 1_655 S
C1156 C1159 1.499 . S
C1157 H1131 0.950 . S
C1157 C1156 1.414 1_455 S
C1157 C1158 1.374 . S
C1158 H1132 0.950 . S
C1158 C1154 1.385 1_455 S
C1158 C1157 1.374 . S
C1159 C1156 1.499 . S
C1159 C1160 1.373 1_655 S
C1159 C1161 1.389 . S
C1160 H1133 0.950 . S
C1160 C1146 1.377 . S
C1160 C1159 1.373 1_455 S
C1161 C1145 1.377 . S
C1161 C1159 1.389 . S
C1161 C1162 1.524 . S
C1162 C1161 1.524 . S
C1162 C1163 1.397 1_655 S
C1162 C1167 1.363 . S
C1163 H1134 0.950 . S
C1163 C1162 1.397 1_455 S
C1163 C1164 1.334 1_455 S
C1164 H1135 0.950 1_655 S
C1164 C1163 1.334 1_655 S
C1164 C1165 1.287 . S
C1165 C1164 1.287 . S
C1165 C1166 1.524 . S
C1165 H1168 0.999 . S
C1166 H1136 0.950 . S
C1166 C1165 1.524 . S
C1166 C1167 1.415 . S
C1167 H1137 0.950 . S
C1167 C1162 1.363 . S
C1167 C1166 1.415 . S
H1168 C1165 0.999 . S
H1169 C1150 0.913 . S
H1170 C1188 0.951 . S
H1171 C1190 0.951 . S
H1172 C1192 0.950 . S
H1173 C1193 0.950 . S
H1174 C1195 0.950 . S
H1175 C1198 0.950 . S
H1176 C1199 0.950 . S
H1177 C1201 0.950 . S
H1178 C1202 0.950 . S
H1179 C1203 0.951 . S
H1180 C1205 0.951 . S
H1181 C1207 0.950 . S
H1182 C1208 0.950 . S
H1183 C1210 0.950 . S
H1184 C1213 0.950 . S
H1185 C1214 0.950 . S
H1186 C1216 0.950 . S
H1187 C1217 0.950 . S
C1188 H1170 0.951 . S
C1188 C1189 1.366 1_455 S
C1188 C1190 1.388 . S
C1189 C1188 1.366 1_655 S
C1189 C1193 1.385 . S
C1190 H1171 0.951 . S
C1190 C1188 1.388 . S
C1190 C1191 1.366 1_455 S
C1191 C1190 1.366 1_655 S
C1191 C1192 1.414 . S
C1191 C1194 1.499 . S
C1192 H1172 0.950 . S
C1192 C1191 1.414 . S
C1192 C1193 1.374 . S
C1193 H1173 0.950 . S
C1193 C1189 1.385 . S
C1193 C1192 1.374 . S
C1194 C1191 1.499 . S
C1194 C1195 1.373 . S
C1194 C1196 1.390 . S
C1195 H1174 0.950 . S
C1195 C1194 1.373 . S
C1195 C1211 1.376 1_655 S
C1196 C1194 1.390 . S
C1196 C1197 1.525 . S
C1196 C1210 1.376 1_655 S
C1197 C1196 1.525 . S
C1197 C1198 1.397 . S
C1197 C1202 1.363 1_655 S
C1198 H1175 0.950 . S
C1198 C1197 1.397 . S
C1198 C1199 1.334 . S
C1199 H1176 0.950 . S
C1199 C1198 1.334 . S
C1199 C1200 1.287 . S
C1200 C1199 1.287 . S
C1200 C1201 1.524 1_655 S
C1200 H1219 0.913 . S
C1201 H1177 0.950 . S
C1201 C1200 1.524 1_455 S
C1201 C1202 1.415 . S
C1202 H1178 0.950 . S
C1202 C1197 1.363 1_455 S
C1202 C1201 1.415 . S
C1203 H1179 0.951 . S
C1203 C1204 1.366 1_655 S
C1203 C1205 1.388 . S
C1204 C1203 1.366 1_455 S
C1204 C1208 1.385 . S
C1205 H1180 0.951 . S
C1205 C1203 1.388 . S
C1205 C1206 1.366 1_655 S
C1206 C1205 1.366 1_455 S
C1206 C1207 1.414 . S
C1206 C1209 1.499 . S
C1207 H1181 0.950 . S
C1207 C1206 1.414 . S
C1207 C1208 1.374 . S
C1208 H1182 0.950 . S
C1208 C1204 1.385 . S
C1208 C1207 1.374 . S
C1209 C1206 1.499 . S
C1209 C1210 1.373 . S
C1209 C1211 1.390 . S
C1210 H1183 0.950 . S
C1210 C1196 1.376 1_455 S
C1210 C1209 1.373 . S
C1211 C1195 1.376 1_455 S
C1211 C1209 1.390 . S
C1211 C1212 1.525 . S
C1212 C1211 1.525 . S
C1212 C1213 1.397 . S
C1212 C1217 1.363 1_455 S
C1213 H1184 0.950 . S
C1213 C1212 1.397 . S
C1213 C1214 1.334 . S
C1214 H1185 0.950 . S
C1214 C1213 1.334 . S
C1214 C1215 1.287 . S
C1215 C1214 1.287 . S
C1215 C1216 1.524 1_455 S
C1215 H1218 0.999 . S
C1216 H1186 0.950 . S
C1216 C1215 1.524 1_655 S
C1216 C1217 1.415 . S
C1217 H1187 0.950 . S
C1217 C1212 1.363 1_655 S
C1217 C1216 1.415 . S
H1218 C1215 0.999 . S
H1219 C1200 0.913 . S
H1220 C1238 0.943 1_455 S
H1221 C1240 0.951 . S
H1222 C1242 0.950 . S
H1223 C1243 0.950 . S
H1224 C1245 0.950 . S
H1225 C1248 0.950 . S
H1226 C1249 0.950 . S
H1227 C1251 0.950 . S
H1228 C1252 0.950 . S
H1229 C1253 0.942 1_655 S
H1230 C1255 0.951 . S
H1231 C1257 0.950 . S
H1232 C1258 0.950 . S
H1233 C1260 0.950 . S
H1234 C1263 0.950 . S
H1235 C1264 0.950 . S
H1236 C1266 0.950 . S
H1237 C1267 0.950 . S
C1238 H1220 0.943 1_655 S
C1238 C1239 1.376 . S
C1238 C1240 1.385 1_655 S
C1239 C1238 1.376 . S
C1239 C1243 1.385 . S
C1240 H1221 0.951 . S
C1240 C1238 1.385 1_455 S
C1240 C1241 1.366 1_455 S
C1241 C1240 1.366 1_655 S
C1241 C1242 1.414 . S
C1241 C1244 1.499 . S
C1242 H1222 0.950 . S
C1242 C1241 1.414 . S
C1242 C1243 1.374 . S
C1243 H1223 0.950 . S
C1243 C1239 1.385 . S
C1243 C1242 1.374 . S
C1244 C1241 1.499 . S
C1244 C1245 1.373 . S
C1244 C1246 1.389 1_655 S
C1245 H1224 0.950 . S
C1245 C1244 1.373 . S
C1245 C1261 1.377 . S
C1246 C1244 1.389 1_455 S
C1246 C1247 1.524 . S
C1246 C1260 1.377 . S
C1247 C1246 1.524 . S
C1247 C1248 1.397 . S
C1247 C1252 1.363 . S
C1248 H1225 0.950 . S
C1248 C1247 1.397 . S
C1248 C1249 1.334 . S
C1249 H1226 0.950 . S
C1249 C1248 1.334 . S
C1249 C1250 1.287 . S
C1250 C1249 1.287 . S
C1250 C1251 1.524 . S
C1250 H1269 0.913 . S
C1251 H1227 0.950 . S
C1251 C1250 1.524 . S
C1251 C1252 1.415 . S
C1252 H1228 0.950 . S
C1252 C1247 1.363 . S
C1252 C1251 1.415 . S
C1253 H1229 0.942 1_455 S
C1253 C1254 1.378 . S
C1253 C1255 1.384 1_455 S
C1254 C1253 1.378 . S
C1254 C1258 1.385 . S
C1255 H1230 0.951 . S
C1255 C1253 1.384 1_655 S
C1255 C1256 1.366 1_655 S
C1256 C1255 1.366 1_455 S
C1256 C1257 1.414 . S
C1256 C1259 1.499 . S
C1257 H1231 0.950 . S
C1257 C1256 1.414 . S
C1257 C1258 1.374 . S
C1258 H1232 0.950 . S
C1258 C1254 1.385 . S
C1258 C1257 1.374 . S
C1259 C1256 1.499 . S
C1259 C1260 1.373 . S
C1259 C1261 1.389 1_455 S
C1260 H1233 0.950 . S
C1260 C1246 1.377 . S
C1260 C1259 1.373 . S
C1261 C1245 1.377 . S
C1261 C1259 1.389 1_655 S
C1261 C1262 1.524 . S
C1262 C1261 1.524 . S
C1262 C1263 1.397 . S
C1262 C1267 1.363 . S
C1263 H1234 0.950 . S
C1263 C1262 1.397 . S
C1263 C1264 1.334 . S
C1264 H1235 0.950 . S
C1264 C1263 1.334 . S
C1264 C1265 1.287 . S
C1265 C1264 1.287 . S
C1265 C1266 1.524 . S
C1265 H1268 0.999 . S
C1266 H1236 0.950 . S
C1266 C1265 1.524 . S
C1266 C1267 1.415 . S
C1267 H1237 0.950 . S
C1267 C1262 1.363 . S
C1267 C1266 1.415 . S
H1268 C1265 0.999 . S
H1269 C1250 0.913 . S
H1270 C1288 0.951 . S
H1271 C1290 0.951 . S
H1272 C1292 0.950 . S
H1273 C1293 0.950 . S
H1274 C1295 0.950 . S
H1275 C1298 0.950 . S
H1276 C1299 0.950 . S
H1277 C1301 0.950 . S
H1278 C1302 0.950 . S
H1279 C1303 0.951 . S
H1280 C1305 0.951 . S
H1281 C1307 0.950 . S
H1282 C1308 0.950 . S
H1283 C1310 0.950 . S
H1284 C1313 0.950 . S
H1285 C1314 0.950 . S
H1286 C1316 0.950 . S
H1287 C1317 0.950 . S
C1288 H1270 0.951 . S
C1288 C1289 1.366 1_455 S
C1288 C1290 1.388 . S
C1289 C1288 1.366 1_655 S
C1289 C1293 1.385 . S
C1290 H1271 0.951 . S
C1290 C1288 1.388 . S
C1290 C1291 1.366 1_455 S
C1291 C1290 1.366 1_655 S
C1291 C1292 1.414 . S
C1291 C1294 1.499 . S
C1292 H1272 0.950 . S
C1292 C1291 1.414 . S
C1292 C1293 1.374 . S
C1293 H1273 0.950 . S
C1293 C1289 1.385 . S
C1293 C1292 1.374 . S
C1294 C1291 1.499 . S
C1294 C1295 1.373 . S
C1294 C1296 1.389 1_655 S
C1295 H1274 0.950 . S
C1295 C1294 1.373 . S
C1295 C1311 1.377 . S
C1296 C1294 1.389 1_455 S
C1296 C1297 1.524 . S
C1296 C1310 1.377 . S
C1297 C1296 1.524 . S
C1297 C1298 1.397 1_455 S
C1297 C1302 1.363 . S
C1298 H1275 0.950 . S
C1298 C1297 1.397 1_655 S
C1298 C1299 1.334 . S
C1299 H1276 0.950 . S
C1299 C1298 1.334 . S
C1299 C1300 1.287 . S
C1300 C1299 1.287 . S
C1300 C1301 1.524 1_655 S
C1300 H1319 0.913 . S
C1301 H1277 0.950 . S
C1301 C1300 1.524 1_455 S
C1301 C1302 1.415 . S
C1302 H1278 0.950 . S
C1302 C1297 1.363 . S
C1302 C1301 1.415 . S
C1303 H1279 0.951 . S
C1303 C1304 1.366 1_655 S
C1303 C1305 1.388 . S
C1304 C1303 1.366 1_455 S
C1304 C1308 1.385 . S
C1305 H1280 0.951 . S
C1305 C1303 1.388 . S
C1305 C1306 1.366 1_655 S
C1306 C1305 1.366 1_455 S
C1306 C1307 1.414 . S
C1306 C1309 1.499 . S
C1307 H1281 0.950 . S
C1307 C1306 1.414 . S
C1307 C1308 1.374 . S
C1308 H1282 0.950 . S
C1308 C1304 1.385 . S
C1308 C1307 1.374 . S
C1309 C1306 1.499 . S
C1309 C1310 1.373 . S
C1309 C1311 1.389 1_455 S
C1310 H1283 0.950 . S
C1310 C1296 1.377 . S
C1310 C1309 1.373 . S
C1311 C1295 1.377 . S
C1311 C1309 1.389 1_655 S
C1311 C1312 1.524 . S
C1312 C1311 1.524 . S
C1312 C1313 1.397 1_655 S
C1312 C1317 1.363 . S
C1313 H1284 0.950 . S
C1313 C1312 1.397 1_455 S
C1313 C1314 1.334 . S
C1314 H1285 0.950 . S
C1314 C1313 1.334 . S
C1314 C1315 1.287 . S
C1315 C1314 1.287 . S
C1315 C1316 1.524 1_455 S
C1315 H1318 0.999 . S
C1316 H1286 0.950 . S
C1316 C1315 1.524 1_655 S
C1316 C1317 1.415 . S
C1317 H1287 0.950 . S
C1317 C1312 1.363 . S
C1317 C1316 1.415 . S
H1318 C1315 0.999 . S
H1319 C1300 0.913 . S
H1320 C1338 0.951 . S
H1321 C1340 0.951 . S
H1322 C1342 0.950 . S
H1323 C1343 0.950 . S
H1324 C1345 0.950 . S
H1325 C1348 0.950 . S
H1326 C1349 0.950 . S
H1327 C1351 0.950 . S
H1328 C1352 0.950 . S
H1329 C1353 0.951 . S
H1330 C1355 0.951 . S
H1331 C1357 0.950 . S
H1332 C1358 0.950 . S
H1333 C1360 0.950 . S
H1334 C1363 0.950 . S
H1335 C1364 0.950 . S
H1336 C1366 0.950 . S
H1337 C1367 0.950 . S
C1338 H1320 0.951 . S
C1338 C1339 1.366 . S
C1338 C1340 1.388 . S
C1339 C1338 1.366 . S
C1339 C1343 1.385 . S
C1340 H1321 0.951 . S
C1340 C1338 1.388 . S
C1340 C1341 1.366 . S
C1341 C1340 1.366 . S
C1341 C1342 1.414 . S
C1341 C1344 1.499 . S
C1342 H1322 0.950 . S
C1342 C1341 1.414 . S
C1342 C1343 1.374 . S
C1343 H1323 0.950 . S
C1343 C1339 1.385 . S
C1343 C1342 1.374 . S
C1344 C1341 1.499 . S
C1344 C1345 1.373 . S
C1344 C1346 1.389 . S
C1345 H1324 0.950 . S
C1345 C1344 1.373 . S
C1345 C1361 1.377 . S
C1346 C1344 1.389 . S
C1346 C1347 1.524 . S
C1346 C1360 1.377 . S
C1347 C1346 1.524 . S
C1347 C1348 1.397 . S
C1347 C1352 1.363 . S
C1348 H1325 0.950 . S
C1348 C1347 1.397 . S
C1348 C1349 1.334 . S
C1349 H1326 0.950 . S
C1349 C1348 1.334 . S
C1349 C1350 1.287 . S
C1350 C1349 1.287 . S
C1350 C1351 1.524 . S
C1350 H1369 0.913 . S
C1351 H1327 0.950 . S
C1351 C1350 1.524 . S
C1351 C1352 1.415 . S
C1352 H1328 0.950 . S
C1352 C1347 1.363 . S
C1352 C1351 1.415 . S
C1353 H1329 0.951 . S
C1353 C1354 1.366 . S
C1353 C1355 1.388 . S
C1354 C1353 1.366 . S
C1354 C1358 1.385 . S
C1355 H1330 0.951 . S
C1355 C1353 1.388 . S
C1355 C1356 1.366 . S
C1356 C1355 1.366 . S
C1356 C1357 1.414 . S
C1356 C1359 1.499 . S
C1357 H1331 0.950 . S
C1357 C1356 1.414 . S
C1357 C1358 1.374 . S
C1358 H1332 0.950 . S
C1358 C1354 1.385 . S
C1358 C1357 1.374 . S
C1359 C1356 1.499 . S
C1359 C1360 1.373 . S
C1359 C1361 1.389 . S
C1360 H1333 0.950 . S
C1360 C1346 1.377 . S
C1360 C1359 1.373 . S
C1361 C1345 1.377 . S
C1361 C1359 1.389 . S
C1361 C1362 1.524 . S
C1362 C1361 1.524 . S
C1362 C1363 1.397 . S
C1362 C1367 1.363 . S
C1363 H1334 0.950 . S
C1363 C1362 1.397 . S
C1363 C1364 1.334 . S
C1364 H1335 0.950 . S
C1364 C1363 1.334 . S
C1364 C1365 1.287 . S
C1365 C1364 1.287 . S
C1365 C1366 1.524 . S
C1365 H1368 0.999 . S
C1366 H1336 0.950 . S
C1366 C1365 1.524 . S
C1366 C1367 1.415 . S
C1367 H1337 0.950 . S
C1367 C1362 1.363 . S
C1367 C1366 1.415 . S
H1368 C1365 0.999 . S
H1369 C1350 0.913 . S
H1370 C1388 0.951 . S
H1371 C1390 0.951 . S
H1372 C1392 0.950 . S
H1373 C1393 0.950 . S
H1374 C1395 0.950 . S
H1375 C1398 0.950 . S
H1376 C1399 0.950 . S
H1377 C1401 0.950 . S
H1378 C1402 0.950 . S
H1379 C1403 0.951 . S
H1380 C1405 0.951 . S
H1381 C1407 0.950 . S
H1382 C1408 0.950 . S
H1383 C1410 0.950 . S
H1384 C1413 0.950 . S
H1385 C1414 0.950 . S
H1386 C1416 0.950 . S
H1387 C1417 0.950 . S
C1388 H1370 0.951 . S
C1388 C1389 1.366 . S
C1388 C1390 1.388 . S
C1389 C1388 1.366 . S
C1389 C1393 1.385 . S
C1390 H1371 0.951 . S
C1390 C1388 1.388 . S
C1390 C1391 1.366 . S
C1391 C1390 1.366 . S
C1391 C1392 1.414 . S
C1391 C1394 1.499 . S
C1392 H1372 0.950 . S
C1392 C1391 1.414 . S
C1392 C1393 1.374 . S
C1393 H1373 0.950 . S
C1393 C1389 1.385 . S
C1393 C1392 1.374 . S
C1394 C1391 1.499 . S
C1394 C1395 1.373 . S
C1394 C1396 1.389 . S
C1395 H1374 0.950 . S
C1395 C1394 1.373 . S
C1395 C1411 1.377 . S
C1396 C1394 1.389 . S
C1396 C1397 1.524 . S
C1396 C1410 1.377 . S
C1397 C1396 1.524 . S
C1397 C1398 1.397 . S
C1397 C1402 1.363 . S
C1398 H1375 0.950 . S
C1398 C1397 1.397 . S
C1398 C1399 1.334 . S
C1399 H1376 0.950 . S
C1399 C1398 1.334 . S
C1399 C1400 1.287 . S
C1400 C1399 1.287 . S
C1400 C1401 1.524 . S
C1400 H1419 0.913 . S
C1401 H1377 0.950 . S
C1401 C1400 1.524 . S
C1401 C1402 1.415 . S
C1402 H1378 0.950 . S
C1402 C1397 1.363 . S
C1402 C1401 1.415 . S
C1403 H1379 0.951 . S
C1403 C1404 1.366 . S
C1403 C1405 1.388 . S
C1404 C1403 1.366 . S
C1404 C1408 1.385 . S
C1405 H1380 0.951 . S
C1405 C1403 1.388 . S
C1405 C1406 1.366 . S
C1406 C1405 1.366 . S
C1406 C1407 1.414 . S
C1406 C1409 1.499 . S
C1407 H1381 0.950 . S
C1407 C1406 1.414 . S
C1407 C1408 1.374 . S
C1408 H1382 0.950 . S
C1408 C1404 1.385 . S
C1408 C1407 1.374 . S
C1409 C1406 1.499 . S
C1409 C1410 1.373 . S
C1409 C1411 1.389 . S
C1410 H1383 0.950 . S
C1410 C1396 1.377 . S
C1410 C1409 1.373 . S
C1411 C1395 1.377 . S
C1411 C1409 1.389 . S
C1411 C1412 1.524 . S
C1412 C1411 1.524 . S
C1412 C1413 1.397 . S
C1412 C1417 1.363 . S
C1413 H1384 0.950 . S
C1413 C1412 1.397 . S
C1413 C1414 1.334 . S
C1414 H1385 0.950 . S
C1414 C1413 1.334 . S
C1414 C1415 1.287 . S
C1415 C1414 1.287 . S
C1415 C1416 1.524 . S
C1415 H1418 0.999 . S
C1416 H1386 0.950 . S
C1416 C1415 1.524 . S
C1416 C1417 1.415 . S
C1417 H1387 0.950 . S
C1417 C1412 1.363 . S
C1417 C1416 1.415 . S
H1418 C1415 0.999 . S
H1419 C1400 0.913 . S
H1420 C1438 0.951 . S
H1421 C1440 0.951 . S
H1422 C1442 0.950 . S
H1423 C1443 0.950 . S
H1424 C1445 0.950 . S
H1425 C1448 0.950 . S
H1426 C1449 0.950 . S
H1427 C1451 0.950 . S
H1428 C1452 0.950 . S
H1429 C1453 0.951 . S
H1430 C1455 0.951 . S
H1431 C1457 0.950 . S
H1432 C1458 0.950 . S
H1433 C1460 0.950 . S
H1434 C1463 0.950 . S
H1435 C1464 0.950 . S
H1436 C1466 0.950 . S
H1437 C1467 0.950 . S
C1438 H1420 0.951 . S
C1438 C1439 1.366 . S
C1438 C1440 1.388 . S
C1439 C1438 1.366 . S
C1439 C1443 1.385 . S
C1440 H1421 0.951 . S
C1440 C1438 1.388 . S
C1440 C1441 1.366 . S
C1441 C1440 1.366 . S
C1441 C1442 1.414 . S
C1441 C1444 1.499 . S
C1442 H1422 0.950 . S
C1442 C1441 1.414 . S
C1442 C1443 1.374 . S
C1443 H1423 0.950 . S
C1443 C1439 1.385 . S
C1443 C1442 1.374 . S
C1444 C1441 1.499 . S
C1444 C1445 1.373 . S
C1444 C1446 1.389 . S
C1445 H1424 0.950 . S
C1445 C1444 1.373 . S
C1445 C1461 1.377 . S
C1446 C1444 1.389 . S
C1446 C1447 1.524 . S
C1446 C1460 1.377 . S
C1447 C1446 1.524 . S
C1447 C1448 1.397 . S
C1447 C1452 1.363 . S
C1448 H1425 0.950 . S
C1448 C1447 1.397 . S
C1448 C1449 1.334 . S
C1449 H1426 0.950 . S
C1449 C1448 1.334 . S
C1449 C1450 1.287 . S
C1450 C1449 1.287 . S
C1450 C1451 1.524 . S
C1450 H1469 0.913 . S
C1451 H1427 0.950 . S
C1451 C1450 1.524 . S
C1451 C1452 1.415 . S
C1452 H1428 0.950 . S
C1452 C1447 1.363 . S
C1452 C1451 1.415 . S
C1453 H1429 0.951 . S
C1453 C1454 1.366 . S
C1453 C1455 1.388 . S
C1454 C1453 1.366 . S
C1454 C1458 1.385 . S
C1455 H1430 0.951 . S
C1455 C1453 1.388 . S
C1455 C1456 1.366 . S
C1456 C1455 1.366 . S
C1456 C1457 1.414 . S
C1456 C1459 1.499 . S
C1457 H1431 0.950 . S
C1457 C1456 1.414 . S
C1457 C1458 1.374 . S
C1458 H1432 0.950 . S
C1458 C1454 1.385 . S
C1458 C1457 1.374 . S
C1459 C1456 1.499 . S
C1459 C1460 1.373 . S
C1459 C1461 1.389 . S
C1460 H1433 0.950 . S
C1460 C1446 1.377 . S
C1460 C1459 1.373 . S
C1461 C1445 1.377 . S
C1461 C1459 1.389 . S
C1461 C1462 1.524 . S
C1462 C1461 1.524 . S
C1462 C1463 1.397 . S
C1462 C1467 1.363 . S
C1463 H1434 0.950 . S
C1463 C1462 1.397 . S
C1463 C1464 1.334 . S
C1464 H1435 0.950 . S
C1464 C1463 1.334 . S
C1464 C1465 1.287 . S
C1465 C1464 1.287 . S
C1465 C1466 1.524 . S
C1465 H1468 0.999 . S
C1466 H1436 0.950 . S
C1466 C1465 1.524 . S
C1466 C1467 1.415 . S
C1467 H1437 0.950 . S
C1467 C1462 1.363 . S
C1467 C1466 1.415 . S
H1468 C1465 0.999 . S
H1469 C1450 0.913 . S
H1470 C1488 0.951 . S
H1471 C1490 0.951 . S
H1472 C1492 0.950 . S
H1473 C1493 0.950 . S
H1474 C1495 0.950 . S
H1475 C1498 0.950 . S
H1476 C1499 0.950 . S
H1477 C1501 0.950 . S
H1478 C1502 0.950 . S
H1479 C1503 0.951 . S
H1480 C1505 0.951 . S
H1481 C1507 0.950 . S
H1482 C1508 0.950 . S
H1483 C1510 0.950 . S
H1484 C1513 0.950 . S
H1485 C1514 0.950 . S
H1486 C1516 0.950 . S
H1487 C1517 0.950 . S
C1488 H1470 0.951 . S
C1488 C1489 1.366 . S
C1488 C1490 1.388 . S
C1489 C1488 1.366 . S
C1489 C1493 1.385 . S
C1490 H1471 0.951 . S
C1490 C1488 1.388 . S
C1490 C1491 1.366 . S
C1491 C1490 1.366 . S
C1491 C1492 1.414 . S
C1491 C1494 1.499 . S
C1492 H1472 0.950 . S
C1492 C1491 1.414 . S
C1492 C1493 1.374 . S
C1493 H1473 0.950 . S
C1493 C1489 1.385 . S
C1493 C1492 1.374 . S
C1494 C1491 1.499 . S
C1494 C1495 1.373 . S
C1494 C1496 1.389 . S
C1495 H1474 0.950 . S
C1495 C1494 1.373 . S
C1495 C1511 1.377 . S
C1496 C1494 1.389 . S
C1496 C1497 1.524 . S
C1496 C1510 1.377 . S
C1497 C1496 1.524 . S
C1497 C1498 1.397 . S
C1497 C1502 1.363 . S
C1498 H1475 0.950 . S
C1498 C1497 1.397 . S
C1498 C1499 1.334 . S
C1499 H1476 0.950 . S
C1499 C1498 1.334 . S
C1499 C1500 1.287 . S
C1500 C1499 1.287 . S
C1500 C1501 1.524 . S
C1500 H1519 0.913 . S
C1501 H1477 0.950 . S
C1501 C1500 1.524 . S
C1501 C1502 1.415 . S
C1502 H1478 0.950 . S
C1502 C1497 1.363 . S
C1502 C1501 1.415 . S
C1503 H1479 0.951 . S
C1503 C1504 1.366 . S
C1503 C1505 1.388 . S
C1504 C1503 1.366 . S
C1504 C1508 1.385 . S
C1505 H1480 0.951 . S
C1505 C1503 1.388 . S
C1505 C1506 1.366 . S
C1506 C1505 1.366 . S
C1506 C1507 1.414 . S
C1506 C1509 1.499 . S
C1507 H1481 0.950 . S
C1507 C1506 1.414 . S
C1507 C1508 1.374 . S
C1508 H1482 0.950 . S
C1508 C1504 1.385 . S
C1508 C1507 1.374 . S
C1509 C1506 1.499 . S
C1509 C1510 1.373 . S
C1509 C1511 1.389 . S
C1510 H1483 0.950 . S
C1510 C1496 1.377 . S
C1510 C1509 1.373 . S
C1511 C1495 1.377 . S
C1511 C1509 1.389 . S
C1511 C1512 1.524 . S
C1512 C1511 1.524 . S
C1512 C1513 1.397 . S
C1512 C1517 1.363 . S
C1513 H1484 0.950 . S
C1513 C1512 1.397 . S
C1513 C1514 1.334 . S
C1514 H1485 0.950 . S
C1514 C1513 1.334 . S
C1514 C1515 1.287 . S
C1515 C1514 1.287 . S
C1515 C1516 1.524 . S
C1515 H1518 0.999 . S
C1516 H1486 0.950 . S
C1516 C1515 1.524 . S
C1516 C1517 1.415 . S
C1517 H1487 0.950 . S
C1517 C1512 1.363 . S
C1517 C1516 1.415 . S
H1518 C1515 0.999 . S
H1519 C1500 0.913 . S
C339 C31 2.344 . S
C354 C12 2.344 . S
C389 C71 2.344 . S
C404 C52 2.344 . S
C439 C111 2.343 . S
C454 C92 2.343 . S
C489 C151 2.344 . S
C504 C132 2.344 . S
C539 C191 2.344 . S
C554 C172 2.344 . S
C589 C212 2.344 . S
C604 C231 2.344 . S
C639 C271 2.343 . S
C654 C252 2.343 . S
C689 C292 2.344 . S
C704 C311 2.344 . S
C739 C48 2.398 . S
C754 C29 2.398 . S
C789 C149 2.398 . S
C804 C88 2.398 . S
C839 C189 2.398 . S
C854 C208 2.398 . S
C889 C248 2.398 . S
C904 C309 2.398 . S
C939 C8 1.738 . S
C954 C229 1.738 . S
C989 C168 1.738 . S
C1004 C69 1.738 . S
C1039 C109 1.738 . S
C1054 C288 1.738 . S
C1089 C128 1.737 . S
C1104 C269 1.737 . S
C1139 C17 1.588 . S
C1154 C137 1.587 . S
C1189 C57 1.520 . S
C1204 C97 1.519 . S
C1239 C42 1.588 . S
C1254 C82 1.587 . S
C1289 C122 1.518 . S
C1304 C2 1.519 . S
C1339 C177 1.587 . S
C1354 C297 1.588 . S
C1389 C217 1.519 . S
C1404 C257 1.519 . S
C1439 C202 1.586 . S
C1454 C242 1.587 . S
C1489 C282 1.519 . S
C1504 C162 1.519 . S
