# Generated by pormake.
# Topology fcr, (5)-cn, num edge types: 1
# Building blocks:
#     Node 0, Type 0, BuildingBlock: XOMCOT_clean_sbu_0, # of connection points: 5
#     Node 1, Type 0, BuildingBlock: XOMCOT_clean_sbu_0, # of connection points: 5
#     Node 2, Type 0, BuildingBlock: XOMCOT_clean_sbu_0, # of connection points: 5
#     Node 3, Type 0, BuildingBlock: XOMCOT_clean_sbu_0, # of connection points: 5
#     Node 4, Type 0, BuildingBlock: XOMCOT_clean_sbu_0, # of connection points: 5
#     Node 5, Type 0, BuildingBlock: XOMCOT_clean_sbu_0, # of connection points: 5
#     Node 6, Type 0, BuildingBlock: XOMCOT_clean_sbu_0, # of connection points: 5
#     Node 7, Type 0, BuildingBlock: XOMCOT_clean_sbu_0, # of connection points: 5
#     Node 8, Type 0, BuildingBlock: XOMCOT_clean_sbu_0, # of connection points: 5
#     Node 9, Type 0, BuildingBlock: XOMCOT_clean_sbu_0, # of connection points: 5
#     Node 10, Type 0, BuildingBlock: XOMCOT_clean_sbu_0, # of connection points: 5
#     Node 11, Type 0, BuildingBlock: XOMCOT_clean_sbu_0, # of connection points: 5
#     Node 12, Type 0, BuildingBlock: XOMCOT_clean_sbu_0, # of connection points: 5
#     Node 13, Type 0, BuildingBlock: XOMCOT_clean_sbu_0, # of connection points: 5
#     Node 14, Type 0, BuildingBlock: XOMCOT_clean_sbu_0, # of connection points: 5
#     Node 15, Type 0, BuildingBlock: XOMCOT_clean_sbu_0, # of connection points: 5
#     Node 16, Type 0, BuildingBlock: XOMCOT_clean_sbu_0, # of connection points: 5
#     Node 17, Type 0, BuildingBlock: XOMCOT_clean_sbu_0, # of connection points: 5
#     Node 18, Type 0, BuildingBlock: XOMCOT_clean_sbu_0, # of connection points: 5
#     Node 19, Type 0, BuildingBlock: XOMCOT_clean_sbu_0, # of connection points: 5
#     Node 20, Type 0, BuildingBlock: XOMCOT_clean_sbu_0, # of connection points: 5
#     Node 21, Type 0, BuildingBlock: XOMCOT_clean_sbu_0, # of connection points: 5
#     Node 22, Type 0, BuildingBlock: XOMCOT_clean_sbu_0, # of connection points: 5
#     Node 23, Type 0, BuildingBlock: XOMCOT_clean_sbu_0, # of connection points: 5
#     Node 24, Type 0, BuildingBlock: XOMCOT_clean_sbu_0, # of connection points: 5
#     Node 25, Type 0, BuildingBlock: XOMCOT_clean_sbu_0, # of connection points: 5
#     Node 26, Type 0, BuildingBlock: XOMCOT_clean_sbu_0, # of connection points: 5
#     Node 27, Type 0, BuildingBlock: XOMCOT_clean_sbu_0, # of connection points: 5
#     Node 28, Type 0, BuildingBlock: XOMCOT_clean_sbu_0, # of connection points: 5
#     Node 29, Type 0, BuildingBlock: XOMCOT_clean_sbu_0, # of connection points: 5
#     Node 30, Type 0, BuildingBlock: XOMCOT_clean_sbu_0, # of connection points: 5
#     Node 31, Type 0, BuildingBlock: XOMCOT_clean_sbu_0, # of connection points: 5
#     Node 32, Type 0, BuildingBlock: XOMCOT_clean_sbu_0, # of connection points: 5
#     Node 33, Type 0, BuildingBlock: XOMCOT_clean_sbu_0, # of connection points: 5
#     Node 34, Type 0, BuildingBlock: XOMCOT_clean_sbu_0, # of connection points: 5
#     Node 35, Type 0, BuildingBlock: XOMCOT_clean_sbu_0, # of connection points: 5
#     Node 36, Type 0, BuildingBlock: XOMCOT_clean_sbu_0, # of connection points: 5
#     Node 37, Type 0, BuildingBlock: XOMCOT_clean_sbu_0, # of connection points: 5
#     Node 38, Type 0, BuildingBlock: XOMCOT_clean_sbu_0, # of connection points: 5
#     Node 39, Type 0, BuildingBlock: XOMCOT_clean_sbu_0, # of connection points: 5
#     Node 40, Type 0, BuildingBlock: XOMCOT_clean_sbu_0, # of connection points: 5
#     Node 41, Type 0, BuildingBlock: XOMCOT_clean_sbu_0, # of connection points: 5
#     Node 42, Type 0, BuildingBlock: XOMCOT_clean_sbu_0, # of connection points: 5
#     Node 43, Type 0, BuildingBlock: XOMCOT_clean_sbu_0, # of connection points: 5
#     Node 44, Type 0, BuildingBlock: XOMCOT_clean_sbu_0, # of connection points: 5
#     Node 45, Type 0, BuildingBlock: XOMCOT_clean_sbu_0, # of connection points: 5
#     Node 46, Type 0, BuildingBlock: XOMCOT_clean_sbu_0, # of connection points: 5
#     Node 47, Type 0, BuildingBlock: XOMCOT_clean_sbu_0, # of connection points: 5
#     Edge 48, Type (0, 0), BuildingBlock: AJUNOK_clean_linker_0, # of connection points: 2
#     Edge 49, Type (0, 0), BuildingBlock: AJUNOK_clean_linker_0, # of connection points: 2
#     Edge 50, Type (0, 0), BuildingBlock: AJUNOK_clean_linker_0, # of connection points: 2
#     Edge 51, Type (0, 0), BuildingBlock: AJUNOK_clean_linker_0, # of connection points: 2
#     Edge 52, Type (0, 0), BuildingBlock: AJUNOK_clean_linker_0, # of connection points: 2
#     Edge 53, Type (0, 0), BuildingBlock: AJUNOK_clean_linker_0, # of connection points: 2
#     Edge 54, Type (0, 0), BuildingBlock: AJUNOK_clean_linker_0, # of connection points: 2
#     Edge 55, Type (0, 0), BuildingBlock: AJUNOK_clean_linker_0, # of connection points: 2
#     Edge 56, Type (0, 0), BuildingBlock: AJUNOK_clean_linker_0, # of connection points: 2
#     Edge 57, Type (0, 0), BuildingBlock: AJUNOK_clean_linker_0, # of connection points: 2
#     Edge 58, Type (0, 0), BuildingBlock: AJUNOK_clean_linker_0, # of connection points: 2
#     Edge 59, Type (0, 0), BuildingBlock: AJUNOK_clean_linker_0, # of connection points: 2
#     Edge 60, Type (0, 0), BuildingBlock: AJUNOK_clean_linker_0, # of connection points: 2
#     Edge 61, Type (0, 0), BuildingBlock: AJUNOK_clean_linker_0, # of connection points: 2
#     Edge 62, Type (0, 0), BuildingBlock: AJUNOK_clean_linker_0, # of connection points: 2
#     Edge 63, Type (0, 0), BuildingBlock: AJUNOK_clean_linker_0, # of connection points: 2
#     Edge 64, Type (0, 0), BuildingBlock: AJUNOK_clean_linker_0, # of connection points: 2
#     Edge 65, Type (0, 0), BuildingBlock: AJUNOK_clean_linker_0, # of connection points: 2
#     Edge 66, Type (0, 0), BuildingBlock: AJUNOK_clean_linker_0, # of connection points: 2
#     Edge 67, Type (0, 0), BuildingBlock: AJUNOK_clean_linker_0, # of connection points: 2
#     Edge 68, Type (0, 0), BuildingBlock: AJUNOK_clean_linker_0, # of connection points: 2
#     Edge 69, Type (0, 0), BuildingBlock: AJUNOK_clean_linker_0, # of connection points: 2
#     Edge 70, Type (0, 0), BuildingBlock: AJUNOK_clean_linker_0, # of connection points: 2
#     Edge 71, Type (0, 0), BuildingBlock: AJUNOK_clean_linker_0, # of connection points: 2
#     Edge 72, Type (0, 0), BuildingBlock: AJUNOK_clean_linker_0, # of connection points: 2
#     Edge 73, Type (0, 0), BuildingBlock: AJUNOK_clean_linker_0, # of connection points: 2
#     Edge 74, Type (0, 0), BuildingBlock: AJUNOK_clean_linker_0, # of connection points: 2
#     Edge 75, Type (0, 0), BuildingBlock: AJUNOK_clean_linker_0, # of connection points: 2
#     Edge 76, Type (0, 0), BuildingBlock: AJUNOK_clean_linker_0, # of connection points: 2
#     Edge 77, Type (0, 0), BuildingBlock: AJUNOK_clean_linker_0, # of connection points: 2
#     Edge 78, Type (0, 0), BuildingBlock: AJUNOK_clean_linker_0, # of connection points: 2
#     Edge 79, Type (0, 0), BuildingBlock: AJUNOK_clean_linker_0, # of connection points: 2
#     Edge 80, Type (0, 0), BuildingBlock: AJUNOK_clean_linker_0, # of connection points: 2
#     Edge 81, Type (0, 0), BuildingBlock: AJUNOK_clean_linker_0, # of connection points: 2
#     Edge 82, Type (0, 0), BuildingBlock: AJUNOK_clean_linker_0, # of connection points: 2
#     Edge 83, Type (0, 0), BuildingBlock: AJUNOK_clean_linker_0, # of connection points: 2
#     Edge 84, Type (0, 0), BuildingBlock: AJUNOK_clean_linker_0, # of connection points: 2
#     Edge 85, Type (0, 0), BuildingBlock: AJUNOK_clean_linker_0, # of connection points: 2
#     Edge 86, Type (0, 0), BuildingBlock: AJUNOK_clean_linker_0, # of connection points: 2
#     Edge 87, Type (0, 0), BuildingBlock: AJUNOK_clean_linker_0, # of connection points: 2
#     Edge 88, Type (0, 0), BuildingBlock: AJUNOK_clean_linker_0, # of connection points: 2
#     Edge 89, Type (0, 0), BuildingBlock: AJUNOK_clean_linker_0, # of connection points: 2
#     Edge 90, Type (0, 0), BuildingBlock: AJUNOK_clean_linker_0, # of connection points: 2
#     Edge 91, Type (0, 0), BuildingBlock: AJUNOK_clean_linker_0, # of connection points: 2
#     Edge 92, Type (0, 0), BuildingBlock: AJUNOK_clean_linker_0, # of connection points: 2
#     Edge 93, Type (0, 0), BuildingBlock: AJUNOK_clean_linker_0, # of connection points: 2
#     Edge 94, Type (0, 0), BuildingBlock: AJUNOK_clean_linker_0, # of connection points: 2
#     Edge 95, Type (0, 0), BuildingBlock: AJUNOK_clean_linker_0, # of connection points: 2
#     Edge 96, Type (0, 0), BuildingBlock: AJUNOK_clean_linker_0, # of connection points: 2
#     Edge 97, Type (0, 0), BuildingBlock: AJUNOK_clean_linker_0, # of connection points: 2
#     Edge 98, Type (0, 0), BuildingBlock: AJUNOK_clean_linker_0, # of connection points: 2
#     Edge 99, Type (0, 0), BuildingBlock: AJUNOK_clean_linker_0, # of connection points: 2
#     Edge 100, Type (0, 0), BuildingBlock: AJUNOK_clean_linker_0, # of connection points: 2
#     Edge 101, Type (0, 0), BuildingBlock: AJUNOK_clean_linker_0, # of connection points: 2
#     Edge 102, Type (0, 0), BuildingBlock: AJUNOK_clean_linker_0, # of connection points: 2
#     Edge 103, Type (0, 0), BuildingBlock: AJUNOK_clean_linker_0, # of connection points: 2
#     Edge 104, Type (0, 0), BuildingBlock: AJUNOK_clean_linker_0, # of connection points: 2
#     Edge 105, Type (0, 0), BuildingBlock: AJUNOK_clean_linker_0, # of connection points: 2
#     Edge 106, Type (0, 0), BuildingBlock: AJUNOK_clean_linker_0, # of connection points: 2
#     Edge 107, Type (0, 0), BuildingBlock: AJUNOK_clean_linker_0, # of connection points: 2
#     Edge 108, Type (0, 0), BuildingBlock: AJUNOK_clean_linker_0, # of connection points: 2
#     Edge 109, Type (0, 0), BuildingBlock: AJUNOK_clean_linker_0, # of connection points: 2
#     Edge 110, Type (0, 0), BuildingBlock: AJUNOK_clean_linker_0, # of connection points: 2
#     Edge 111, Type (0, 0), BuildingBlock: AJUNOK_clean_linker_0, # of connection points: 2
#     Edge 112, Type (0, 0), BuildingBlock: AJUNOK_clean_linker_0, # of connection points: 2
#     Edge 113, Type (0, 0), BuildingBlock: AJUNOK_clean_linker_0, # of connection points: 2
#     Edge 114, Type (0, 0), BuildingBlock: AJUNOK_clean_linker_0, # of connection points: 2
#     Edge 115, Type (0, 0), BuildingBlock: AJUNOK_clean_linker_0, # of connection points: 2
#     Edge 116, Type (0, 0), BuildingBlock: AJUNOK_clean_linker_0, # of connection points: 2
#     Edge 117, Type (0, 0), BuildingBlock: AJUNOK_clean_linker_0, # of connection points: 2
#     Edge 118, Type (0, 0), BuildingBlock: AJUNOK_clean_linker_0, # of connection points: 2
#     Edge 119, Type (0, 0), BuildingBlock: AJUNOK_clean_linker_0, # of connection points: 2
#     Edge 120, Type (0, 0), BuildingBlock: AJUNOK_clean_linker_0, # of connection points: 2
#     Edge 121, Type (0, 0), BuildingBlock: AJUNOK_clean_linker_0, # of connection points: 2
#     Edge 122, Type (0, 0), BuildingBlock: AJUNOK_clean_linker_0, # of connection points: 2
#     Edge 123, Type (0, 0), BuildingBlock: AJUNOK_clean_linker_0, # of connection points: 2
#     Edge 124, Type (0, 0), BuildingBlock: AJUNOK_clean_linker_0, # of connection points: 2
#     Edge 125, Type (0, 0), BuildingBlock: AJUNOK_clean_linker_0, # of connection points: 2
#     Edge 126, Type (0, 0), BuildingBlock: AJUNOK_clean_linker_0, # of connection points: 2
#     Edge 127, Type (0, 0), BuildingBlock: AJUNOK_clean_linker_0, # of connection points: 2
#     Edge 128, Type (0, 0), BuildingBlock: AJUNOK_clean_linker_0, # of connection points: 2
#     Edge 129, Type (0, 0), BuildingBlock: AJUNOK_clean_linker_0, # of connection points: 2
#     Edge 130, Type (0, 0), BuildingBlock: AJUNOK_clean_linker_0, # of connection points: 2
#     Edge 131, Type (0, 0), BuildingBlock: AJUNOK_clean_linker_0, # of connection points: 2
#     Edge 132, Type (0, 0), BuildingBlock: AJUNOK_clean_linker_0, # of connection points: 2
#     Edge 133, Type (0, 0), BuildingBlock: AJUNOK_clean_linker_0, # of connection points: 2
#     Edge 134, Type (0, 0), BuildingBlock: AJUNOK_clean_linker_0, # of connection points: 2
#     Edge 135, Type (0, 0), BuildingBlock: AJUNOK_clean_linker_0, # of connection points: 2
#     Edge 136, Type (0, 0), BuildingBlock: AJUNOK_clean_linker_0, # of connection points: 2
#     Edge 137, Type (0, 0), BuildingBlock: AJUNOK_clean_linker_0, # of connection points: 2
#     Edge 138, Type (0, 0), BuildingBlock: AJUNOK_clean_linker_0, # of connection points: 2
#     Edge 139, Type (0, 0), BuildingBlock: AJUNOK_clean_linker_0, # of connection points: 2
#     Edge 140, Type (0, 0), BuildingBlock: AJUNOK_clean_linker_0, # of connection points: 2
#     Edge 141, Type (0, 0), BuildingBlock: AJUNOK_clean_linker_0, # of connection points: 2
#     Edge 142, Type (0, 0), BuildingBlock: AJUNOK_clean_linker_0, # of connection points: 2
#     Edge 143, Type (0, 0), BuildingBlock: AJUNOK_clean_linker_0, # of connection points: 2
#     Edge 144, Type (0, 0), BuildingBlock: AJUNOK_clean_linker_0, # of connection points: 2
#     Edge 145, Type (0, 0), BuildingBlock: AJUNOK_clean_linker_0, # of connection points: 2
#     Edge 146, Type (0, 0), BuildingBlock: AJUNOK_clean_linker_0, # of connection points: 2
#     Edge 147, Type (0, 0), BuildingBlock: AJUNOK_clean_linker_0, # of connection points: 2
#     Edge 148, Type (0, 0), BuildingBlock: AJUNOK_clean_linker_0, # of connection points: 2
#     Edge 149, Type (0, 0), BuildingBlock: AJUNOK_clean_linker_0, # of connection points: 2
#     Edge 150, Type (0, 0), BuildingBlock: AJUNOK_clean_linker_0, # of connection points: 2
#     Edge 151, Type (0, 0), BuildingBlock: AJUNOK_clean_linker_0, # of connection points: 2
#     Edge 152, Type (0, 0), BuildingBlock: AJUNOK_clean_linker_0, # of connection points: 2
#     Edge 153, Type (0, 0), BuildingBlock: AJUNOK_clean_linker_0, # of connection points: 2
#     Edge 154, Type (0, 0), BuildingBlock: AJUNOK_clean_linker_0, # of connection points: 2
#     Edge 155, Type (0, 0), BuildingBlock: AJUNOK_clean_linker_0, # of connection points: 2
#     Edge 156, Type (0, 0), BuildingBlock: AJUNOK_clean_linker_0, # of connection points: 2
#     Edge 157, Type (0, 0), BuildingBlock: AJUNOK_clean_linker_0, # of connection points: 2
#     Edge 158, Type (0, 0), BuildingBlock: AJUNOK_clean_linker_0, # of connection points: 2
#     Edge 159, Type (0, 0), BuildingBlock: AJUNOK_clean_linker_0, # of connection points: 2
#     Edge 160, Type (0, 0), BuildingBlock: AJUNOK_clean_linker_0, # of connection points: 2
#     Edge 161, Type (0, 0), BuildingBlock: AJUNOK_clean_linker_0, # of connection points: 2
#     Edge 162, Type (0, 0), BuildingBlock: AJUNOK_clean_linker_0, # of connection points: 2
#     Edge 163, Type (0, 0), BuildingBlock: AJUNOK_clean_linker_0, # of connection points: 2
#     Edge 164, Type (0, 0), BuildingBlock: AJUNOK_clean_linker_0, # of connection points: 2
#     Edge 165, Type (0, 0), BuildingBlock: AJUNOK_clean_linker_0, # of connection points: 2
#     Edge 166, Type (0, 0), BuildingBlock: AJUNOK_clean_linker_0, # of connection points: 2
#     Edge 167, Type (0, 0), BuildingBlock: AJUNOK_clean_linker_0, # of connection points: 2
# Relax obj value: 0.109
# Max RMSD: 0.155
# Mean RMSD: 0.155
data_MOF--net-fcr--node1-XOMCOT_clean_sbu_0--edge1-AJUNOK_clean_linker_0
_symmetry_space_group_name_H-M    P1
_symmetry_Int_Tables_number       1
_symmetry_cell_setting            triclinic
loop_
_symmetry_equiv_pos_as_xyz
'x, y, z'
_cell_length_a     50.376757
_cell_length_b     50.343619
_cell_length_c     50.288469
_cell_angle_alpha  90.007662
_cell_angle_beta   89.982148
_cell_angle_gamma 89.965749
loop_
_atom_site_label
_atom_site_type_symbol
_atom_site_fract_x
_atom_site_fract_y
_atom_site_fract_z
_atom_type_partial_charge
Co0 Co 0.14484 0.3361 0.26067 0.0
C1 C 0.17608 0.29199 0.28554 0.0
C2 C 0.14638 0.30797 0.31162 0.0
C3 C 0.1576 0.28612 0.32367 0.0
N4 N 0.15784 0.31166 0.28764 0.0
N5 N 0.17627 0.27629 0.30729 0.0
H6 H 0.18803 0.28818 0.26812 0.0
H7 H 0.12999 0.31955 0.3193 0.0
C8 C 0.12612 0.38521 0.29162 0.0
O9 O 0.11082 0.39368 0.27228 0.0
N10 N 0.13162 0.35992 0.23332 0.0
C11 C 0.11365 0.35346 0.21453 0.0
C12 C 0.1133 0.37298 0.1954 0.0
C13 C 0.14224 0.38324 0.22509 0.0
N14 N 0.13121 0.39167 0.20206 0.0
C15 C 0.10797 0.29377 0.25332 0.0
C16 C 0.0647 0.31615 0.27852 0.0
C17 C 0.06222 0.29042 0.26802 0.0
C18 C 0.08426 0.27948 0.25496 0.0
C19 C 0.08874 0.33 0.27608 0.0
N20 N 0.11011 0.3188 0.26361 0.0
H21 H 0.12476 0.28451 0.24376 0.0
H22 H 0.08988 0.34949 0.28458 0.0
H23 H 0.10245 0.33517 0.21395 0.0
H24 H 0.15839 0.39325 0.23514 0.0
O25 O 0.16048 0.31454 0.23261 0.0
O26 O 0.18052 0.34787 0.25315 0.0
O27 O 0.13784 0.36268 0.29018 0.0
C28 C 0.18142 0.32948 0.23505 0.0
H29 H 0.15206 0.27767 0.34268 0.0
H30 H 0.1011 0.37325 0.17768 0.0
H31 H 0.04828 0.32546 0.28884 0.0
H32 H 0.08323 0.26007 0.24575 0.0
Co33 Co 0.58954 0.63187 0.01995 0.0
C34 C 0.54442 0.60396 0.99353 0.0
C35 C 0.57044 0.62237 0.96528 0.0
C36 C 0.55004 0.61036 0.95168 0.0
N37 N 0.56709 0.61823 0.99159 0.0
N38 N 0.53383 0.59861 0.96944 0.0
H39 H 0.5357 0.59749 1.01203 0.0
H40 H 0.58625 0.63379 0.95636 0.0
C41 C 0.63897 0.65228 0.99063 0.0
O42 O 0.64316 0.67179 1.00745 0.0
N43 N 0.61184 0.64529 0.04849 0.0
C44 C 0.6039 0.66072 0.06897 0.0
C45 C 0.62341 0.66109 0.08803 0.0
C46 C 0.63617 0.6363 0.05563 0.0
N47 N 0.64362 0.64575 0.07966 0.0
C48 C 0.55229 0.67338 0.03075 0.0
C49 C 0.56596 0.70721 0.98984 0.0
C50 C 0.5453 0.71469 1.00707 0.0
C51 C 0.53854 0.69723 0.02765 0.0
C52 C 0.57955 0.6832 0.9939 0.0
N53 N 0.57313 0.66681 1.01464 0.0
H54 H 0.54605 0.66028 0.04649 0.0
H55 H 0.59454 0.67769 0.9797 0.0
H56 H 0.58474 0.66998 0.07097 0.0
H57 H 0.64757 0.62214 0.04412 0.0
O58 O 0.56561 0.61743 0.04657 0.0
O59 O 0.60001 0.5962 0.02931 0.0
O60 O 0.61856 0.63745 0.9929 0.0
C61 C 0.58007 0.59603 0.04568 0.0
H62 H 0.54703 0.6109 0.93038 0.0
H63 H 0.62264 0.67145 0.10689 0.0
H64 H 0.5712 0.71945 0.97294 0.0
H65 H 0.52272 0.70196 0.04145 0.0
Co66 Co 0.87826 0.18732 0.26006 0.0
C67 C 0.84935 0.23276 0.28511 0.0
C68 C 0.86951 0.20862 0.31386 0.0
C69 C 0.85711 0.22907 0.32699 0.0
N70 N 0.86454 0.21072 0.28757 0.0
N71 N 0.84426 0.24407 0.30894 0.0
H72 H 0.84206 0.24048 0.26644 0.0
H73 H 0.88175 0.19363 0.32311 0.0
C74 C 0.89982 0.13937 0.29044 0.0
O75 O 0.91788 0.13426 0.27232 0.0
N76 N 0.89206 0.1637 0.23262 0.0
C77 C 0.91433 0.16661 0.21795 0.0
C78 C 0.91609 0.14602 0.20014 0.0
C79 C 0.88056 0.14123 0.22327 0.0
N80 N 0.89497 0.12999 0.20357 0.0
C81 C 0.91907 0.22464 0.24678 0.0
C82 C 0.95392 0.21293 0.28747 0.0
C83 C 0.96117 0.23244 0.26884 0.0
C84 C 0.94313 0.2383 0.24846 0.0
C85 C 0.92975 0.19933 0.28481 0.0
N86 N 0.91286 0.20473 0.26421 0.0
H87 H 0.9058 0.2296 0.23072 0.0
H88 H 0.92464 0.18499 0.29982 0.0
H89 H 0.92855 0.18246 0.21959 0.0
H90 H 0.86216 0.13311 0.23082 0.0
O91 O 0.8629 0.20971 0.23249 0.0
O92 O 0.84267 0.17578 0.25174 0.0
O93 O 0.88486 0.15973 0.28834 0.0
C94 C 0.84187 0.19484 0.23437 0.0
H95 H 0.85807 0.23297 0.34813 0.0
H96 H 0.93147 0.14339 0.18534 0.0
H97 H 0.96655 0.20847 0.3043 0.0
H98 H 0.94768 0.25316 0.23356 0.0
Co99 Co 0.43946 0.89655 1.01401 0.0
C100 C 0.4857 0.92566 0.9912 0.0
C101 C 0.46483 0.90298 0.9618 0.0
C102 C 0.48665 0.91438 0.95 0.0
N103 N 0.46407 0.91017 0.98763 0.0
N104 N 0.49985 0.92846 0.96854 0.0
H105 H 0.49116 0.9346 1.00993 0.0
H106 H 0.45107 0.88953 0.95228 0.0
C107 C 0.39075 0.87863 0.98265 0.0
O108 O 0.38254 0.86248 1.00141 0.0
N109 N 0.41523 0.88276 0.04065 0.0
C110 C 0.41979 0.86215 0.05711 0.0
C111 C 0.39996 0.86127 0.07588 0.0
C112 C 0.39281 0.89437 0.04992 0.0
N113 N 0.38306 0.88161 0.0715 0.0
C114 C 0.48116 0.85923 0.0218 0.0
C115 C 0.46073 0.81746 0.99275 0.0
C116 C 0.48574 0.81448 1.00473 0.0
C117 C 0.49567 0.83573 0.01967 0.0
C118 C 0.44661 0.84135 0.99563 0.0
N119 N 0.4568 0.86192 1.01016 0.0
H120 H 0.48981 0.87538 0.03286 0.0
H121 H 0.42777 0.84302 0.98584 0.0
H122 H 0.43691 0.84924 0.05642 0.0
H123 H 0.38399 0.91187 0.04111 0.0
O124 O 0.4607 0.91108 0.04262 0.0
O125 O 0.42804 0.93229 0.02233 0.0
O126 O 0.41309 0.89051 0.98442 0.0
C127 C 0.44646 0.93252 0.0404 0.0
H128 H 0.49286 0.91176 0.92955 0.0
H129 H 0.39871 0.84733 0.09221 0.0
H130 H 0.45225 0.80158 0.98098 0.0
H131 H 0.51449 0.83422 0.02997 0.0
Co132 Co 0.14801 0.68939 0.26682 0.0
C133 C 0.16997 0.73664 0.23881 0.0
C134 C 0.16961 0.70228 0.21372 0.0
C135 C 0.18142 0.72281 0.20013 0.0
N136 N 0.1622 0.71092 0.23799 0.0
N137 N 0.18146 0.74454 0.21582 0.0
H138 H 0.16814 0.74916 0.25615 0.0
H139 H 0.16787 0.68217 0.20655 0.0
C140 C 0.15177 0.63956 0.23675 0.0
O141 O 0.17292 0.6355 0.25134 0.0
N142 N 0.13432 0.66763 0.29581 0.0
C143 C 0.11356 0.67288 0.31195 0.0
C144 C 0.11162 0.65303 0.33075 0.0
C145 C 0.14505 0.645 0.30559 0.0
N146 N 0.13137 0.63541 0.32661 0.0
C147 C 0.11199 0.73292 0.27009 0.0
C148 C 0.06653 0.70676 0.25417 0.0
C149 C 0.06465 0.7335 0.26206 0.0
C150 C 0.088 0.74664 0.26938 0.0
C151 C 0.09125 0.69374 0.25467 0.0
N152 N 0.11359 0.70684 0.26284 0.0
H153 H 0.12924 0.74336 0.27711 0.0
H154 H 0.09209 0.67294 0.24951 0.0
H155 H 0.10093 0.69019 0.31069 0.0
H156 H 0.16333 0.6364 0.29849 0.0
O157 O 0.1637 0.71311 0.29287 0.0
O158 O 0.1839 0.67845 0.27536 0.0
O159 O 0.13814 0.66076 0.24015 0.0
C160 C 0.18494 0.69861 0.29139 0.0
H161 H 0.19062 0.72124 0.18076 0.0
H162 H 0.09686 0.65173 0.34634 0.0
H163 H 0.04898 0.69578 0.24839 0.0
H164 H 0.08781 0.76745 0.27484 0.0
Co165 Co 0.94079 0.63337 0.0156 0.0
C166 C 0.98798 0.60652 0.04006 0.0
C167 C 0.96062 0.62079 0.06941 0.0
C168 C 0.98124 0.60844 0.08222 0.0
N169 N 0.96466 0.61966 0.0429 0.0
N170 N 0.99826 0.59912 0.06381 0.0
H171 H 0.99705 0.6019 0.02112 0.0
H172 H 0.9439 0.62987 0.07916 0.0
C173 C 0.89054 0.63289 0.04457 0.0
O174 O 0.88244 0.61783 0.02486 0.0
N175 N 0.91648 0.64747 0.98891 0.0
C176 C 0.90594 0.6721 0.98942 0.0
C177 C 0.887 0.67414 0.96985 0.0
C178 C 0.90351 0.63477 0.969 0.0
N179 N 0.88545 0.65069 0.95703 0.0
C180 C 0.97166 0.67693 0.99663 0.0
C181 C 0.97092 0.70688 0.04276 0.0
C182 C 0.98522 0.7163 0.02075 0.0
C183 C 0.98551 0.70097 0.99751 0.0
C184 C 0.95756 0.68251 0.04117 0.0
N185 N 0.95799 0.66791 0.01826 0.0
H186 H 0.97186 0.66551 0.97845 0.0
H187 H 0.94716 0.67537 0.05848 0.0
H188 H 0.91087 0.68731 1.00377 0.0
H189 H 0.906 0.61399 0.96425 0.0
O190 O 0.96268 0.61783 0.98796 0.0
O191 O 0.92947 0.59737 1.00809 0.0
O192 O 0.91394 0.64262 0.04383 0.0
C193 C 0.94851 0.59641 0.99061 0.0
H194 H 0.98359 0.60673 0.10354 0.0
H195 H 0.8749 0.69142 0.9657 0.0
H196 H 0.97048 0.718 0.06119 0.0
H197 H 0.99618 0.70763 0.98004 0.0
Co198 Co 0.88136 0.83635 0.26998 0.0
C199 C 0.86103 0.7901 0.23948 0.0
C200 C 0.85166 0.82696 0.22054 0.0
C201 C 0.83897 0.80683 0.20707 0.0
N202 N 0.86608 0.81645 0.24057 0.0
N203 N 0.84494 0.78365 0.21905 0.0
H204 H 0.86707 0.77602 0.25436 0.0
H205 H 0.84885 0.84798 0.21714 0.0
C206 C 0.90136 0.86439 0.22133 0.0
O207 O 0.90905 0.84123 0.21204 0.0
N208 N 0.89533 0.85617 0.29963 0.0
C209 C 0.90625 0.8455 0.32164 0.0
C210 C 0.90815 0.86491 0.34083 0.0
C211 C 0.89078 0.88193 0.30559 0.0
N212 N 0.89832 0.88764 0.3307 0.0
C213 C 0.91714 0.79179 0.2724 0.0
C214 C 0.96301 0.81898 0.25976 0.0
C215 C 0.96428 0.79148 0.26378 0.0
C216 C 0.94107 0.77791 0.27046 0.0
C217 C 0.93847 0.83206 0.26147 0.0
N218 N 0.91561 0.81823 0.26644 0.0
H219 H 0.90013 0.78133 0.2799 0.0
H220 H 0.93801 0.8534 0.25936 0.0
H221 H 0.91115 0.82472 0.32404 0.0
H222 H 0.88077 0.89573 0.29248 0.0
O223 O 0.86412 0.81242 0.29468 0.0
O224 O 0.84629 0.84927 0.27842 0.0
O225 O 0.89161 0.86602 0.24478 0.0
C226 C 0.84386 0.82843 0.2935 0.0
H227 H 0.82479 0.80935 0.19111 0.0
H228 H 0.9156 0.86245 0.36087 0.0
H229 H 0.98085 0.83027 0.25568 0.0
H230 H 0.9416 0.7569 0.2751 0.0
Co231 Co 0.09174 0.89733 1.00797 0.0
C232 C 0.0438 0.91569 0.03709 0.0
C233 C 0.07994 0.93159 0.05303 0.0
C234 C 0.05895 0.94312 0.06608 0.0
N235 N 0.07046 0.91433 0.03496 0.0
N236 N 0.03617 0.93329 0.05596 0.0
H237 H 0.03039 0.9046 0.02465 0.0
H238 H 0.10066 0.9366 0.05548 0.0
C239 C 0.14067 0.87731 0.03866 0.0
O240 O 0.14934 0.86268 0.01887 0.0
N241 N 0.11341 0.88122 0.98051 0.0
C242 C 0.10578 0.86275 0.96272 0.0
C243 C 0.12505 0.86051 0.94345 0.0
C244 C 0.13701 0.89031 0.97147 0.0
N245 N 0.14488 0.87767 0.94908 0.0
C246 C 0.04901 0.86031 1.00073 0.0
C247 C 0.06821 0.81975 0.03226 0.0
C248 C 0.04389 0.81624 0.01922 0.0
C249 C 0.03433 0.83693 1.00334 0.0
C250 C 0.08217 0.84369 0.02943 0.0
N251 N 0.07266 0.86372 1.01367 0.0
H252 H 0.04122 0.87564 0.98797 0.0
H253 H 0.10056 0.8456 0.03999 0.0
H254 H 0.08689 0.85265 0.96269 0.0
H255 H 0.14798 0.90616 0.98095 0.0
O256 O 0.06942 0.91282 0.98059 0.0
O257 O 0.10508 0.9319 0.99772 0.0
O258 O 0.11869 0.88986 0.03685 0.0
C259 C 0.08518 0.93321 0.98132 0.0
H260 H 0.06039 0.95872 0.08082 0.0
H261 H 0.12366 0.84826 0.92585 0.0
H262 H 0.07629 0.80417 0.04471 0.0
H263 H 0.01585 0.83485 0.99252 0.0
Co264 Co 0.26083 0.14434 0.33674 0.0
C265 C 0.28709 0.17376 0.29244 0.0
C266 C 0.31386 0.14749 0.31262 0.0
C267 C 0.32733 0.15955 0.29211 0.0
N268 N 0.28868 0.15662 0.31306 0.0
N269 N 0.31047 0.17612 0.27957 0.0
H270 H 0.26922 0.18405 0.2865 0.0
H271 H 0.32172 0.13232 0.32563 0.0
C272 C 0.29009 0.12771 0.38767 0.0
O273 O 0.26925 0.11554 0.39743 0.0
N274 N 0.23249 0.13199 0.35981 0.0
C275 C 0.21378 0.11412 0.35285 0.0
C276 C 0.19413 0.11397 0.37184 0.0
C277 C 0.22356 0.14296 0.38273 0.0
N278 N 0.20032 0.13207 0.39052 0.0
C279 C 0.25809 0.10722 0.29413 0.0
C280 C 0.27614 0.06285 0.32095 0.0
C281 C 0.27037 0.06058 0.29369 0.0
C282 C 0.26082 0.08319 0.28046 0.0
C283 C 0.27288 0.08731 0.33399 0.0
N284 N 0.26418 0.1092 0.32051 0.0
H285 H 0.25123 0.12446 0.28336 0.0
H286 H 0.27736 0.0884 0.35485 0.0
H287 H 0.21381 0.10266 0.33467 0.0
H288 H 0.23359 0.15881 0.39324 0.0
O289 O 0.23348 0.15939 0.31401 0.0
O290 O 0.25351 0.18061 0.34705 0.0
O291 O 0.2896 0.13735 0.36413 0.0
C292 C 0.23607 0.181 0.32802 0.0
H293 H 0.34761 0.15558 0.28621 0.0
H294 H 0.17659 0.10155 0.37196 0.0
H295 H 0.28338 0.04593 0.33208 0.0
H296 H 0.25519 0.08235 0.25971 0.0
Co297 Co 0.39861 0.51869 0.939 0.0
C298 C 0.41869 0.48992 0.98678 0.0
C299 C 0.42316 0.46691 0.95134 0.0
C300 C 0.43459 0.45326 0.972 0.0
N301 N 0.41221 0.48955 0.96066 0.0
N302 N 0.43186 0.46776 0.99435 0.0
H303 H 0.41633 0.50707 0.99941 0.0
H304 H 0.42451 0.46135 0.93064 0.0
C305 C 0.37653 0.47046 0.91144 0.0
O306 O 0.36721 0.46223 0.93441 0.0
N307 N 0.38639 0.54783 0.91714 0.0
C308 C 0.37103 0.56828 0.92501 0.0
C309 C 0.36928 0.5863 0.90449 0.0
C310 C 0.39423 0.55389 0.89215 0.0
N311 N 0.38384 0.57724 0.88387 0.0
C312 C 0.36129 0.52142 0.98253 0.0
C313 C 0.31609 0.51126 0.95315 0.0
C314 C 0.31359 0.51481 0.98074 0.0
C315 C 0.33667 0.5202 0.99536 0.0
C316 C 0.34111 0.51293 0.94108 0.0
N317 N 0.36357 0.5167 0.9559 0.0
H318 H 0.37838 0.52698 0.99404 0.0
H319 H 0.34236 0.51124 0.9197 0.0
H320 H 0.36244 0.57041 0.94461 0.0
H321 H 0.40765 0.54177 0.8805 0.0
O322 O 0.41577 0.54405 0.96243 0.0
O323 O 0.43435 0.52528 0.92723 0.0
O324 O 0.38834 0.49291 0.90993 0.0
C325 C 0.43662 0.54142 0.94728 0.0
H326 H 0.44523 0.43465 0.97035 0.0
H327 H 0.35895 0.60516 0.90508 0.0
H328 H 0.29893 0.50709 0.9409 0.0
H329 H 0.33566 0.52403 0.01653 0.0
Co330 Co 0.76381 0.37867 0.33985 0.0
C331 C 0.7332 0.35733 0.29412 0.0
C332 C 0.71126 0.354 0.33032 0.0
C333 C 0.69703 0.34188 0.31037 0.0
N334 N 0.73362 0.36463 0.32001 0.0
N335 N 0.71086 0.34405 0.28755 0.0
H336 H 0.74999 0.35906 0.28095 0.0
H337 H 0.70632 0.35328 0.3512 0.0
C338 C 0.71728 0.40101 0.37027 0.0
O339 O 0.70752 0.41047 0.34795 0.0
N340 N 0.79404 0.39139 0.35968 0.0
C341 C 0.8151 0.40431 0.34952 0.0
C342 C 0.8342 0.4064 0.36895 0.0
C343 C 0.80066 0.38548 0.38503 0.0
N344 N 0.82509 0.39468 0.39132 0.0
C345 C 0.76411 0.41482 0.29546 0.0
C346 C 0.75805 0.46114 0.32427 0.0
C347 C 0.75963 0.46267 0.29646 0.0
C348 C 0.76297 0.43911 0.2821 0.0
C349 C 0.75889 0.43627 0.33687 0.0
N350 N 0.76093 0.41334 0.32239 0.0
H351 H 0.76859 0.39735 0.28406 0.0
H352 H 0.75839 0.43551 0.35834 0.0
H353 H 0.81693 0.41064 0.32905 0.0
H354 H 0.78822 0.37399 0.39827 0.0
O355 O 0.78788 0.36114 0.3154 0.0
O356 O 0.77114 0.34321 0.35195 0.0
O357 O 0.73981 0.38933 0.3702 0.0
C358 C 0.78616 0.34061 0.33108 0.0
H359 H 0.67856 0.33118 0.31278 0.0
H360 H 0.85384 0.41468 0.3663 0.0
H361 H 0.75619 0.47898 0.33616 0.0
H362 H 0.76551 0.43951 0.26071 0.0
Co363 Co 0.63314 1.01247 0.94261 0.0
C364 C 0.60266 0.0365 0.98748 0.0
C365 C 0.62772 0.06494 0.96808 0.0
C366 C 0.61567 0.07707 0.98947 0.0
N367 N 0.61951 0.03948 0.96673 0.0
N368 N 0.60014 0.05907 1.00177 0.0
H369 H 0.59266 0.01819 0.99237 0.0
H370 H 0.64228 0.07391 0.95508 0.0
C371 C 0.65169 0.04361 0.89346 0.0
O372 O 0.66599 0.02407 0.8838 0.0
N373 N 0.64644 0.98515 0.91888 0.0
C374 C 0.66364 0.9658 0.92554 0.0
C375 C 0.66393 0.94704 0.90566 0.0
C376 C 0.63601 0.97752 0.89529 0.0
N377 N 0.64649 0.95429 0.88659 0.0
C378 C 0.66819 1.01151 0.98676 0.0
C379 C 0.71502 0.02224 0.96027 0.0
C380 C 0.71589 0.01749 0.98779 0.0
C381 C 0.69189 1.01268 1.00104 0.0
C382 C 0.69067 0.02131 0.94672 0.0
N383 N 0.66765 0.01572 0.95995 0.0
H384 H 0.65006 1.0071 0.99734 0.0
H385 H 0.69064 0.02434 0.9256 0.0
H386 H 0.67418 0.96458 0.94422 0.0
H387 H 0.62097 0.98883 0.88496 0.0
O388 O 0.61815 0.98453 0.96437 0.0
O389 O 0.59749 1.00462 0.93105 0.0
O390 O 0.6404 0.04182 0.91617 0.0
C391 C 0.59685 0.98687 0.94985 0.0
H392 H 0.61884 0.09729 0.99607 0.0
H393 H 0.67528 0.92878 0.90589 0.0
H394 H 0.73308 0.02597 0.94919 0.0
H395 H 0.69136 1.0097 0.02236 0.0
Co396 Co 0.26297 0.87865 0.18738 0.0
C397 C 0.28951 0.85996 0.23657 0.0
C398 C 0.31 0.84778 0.20116 0.0
C399 C 0.32228 0.83636 0.22269 0.0
N400 N 0.28951 0.86256 0.20986 0.0
N401 N 0.30933 0.84381 0.24499 0.0
H402 H 0.27494 0.86927 0.24932 0.0
H403 H 0.31487 0.84438 0.1805 0.0
C404 C 0.29552 0.90366 0.14294 0.0
O405 O 0.28043 0.92491 0.142 0.0
N406 N 0.23629 0.89417 0.16374 0.0
C407 C 0.2249 0.9185 0.16439 0.0
C408 C 0.20633 0.92025 0.1444 0.0
C409 C 0.22482 0.88188 0.14268 0.0
N410 N 0.20621 0.89716 0.13094 0.0
C411 C 0.24813 0.92042 0.22285 0.0
C412 C 0.29431 0.94981 0.22003 0.0
C413 C 0.27334 0.95932 0.23591 0.0
C414 C 0.25019 0.94396 0.23737 0.0
C415 C 0.29131 0.92613 0.2055 0.0
N416 N 0.26801 0.91227 0.20624 0.0
H417 H 0.22991 0.90924 0.22416 0.0
H418 H 0.30793 0.91881 0.1941 0.0
H419 H 0.22984 0.93446 0.17774 0.0
H420 H 0.22968 0.86202 0.13611 0.0
O421 O 0.23533 0.86351 0.20961 0.0
O422 O 0.25352 0.8436 0.1748 0.0
O423 O 0.29148 0.88566 0.16031 0.0
C424 C 0.23668 0.84271 0.19435 0.0
H425 H 0.33863 0.82243 0.22182 0.0
H426 H 0.19414 0.93737 0.13982 0.0
H427 H 0.31305 0.96028 0.21915 0.0
H428 H 0.23345 0.9503 0.24932 0.0
Co429 Co 0.13274 0.51589 0.0886 0.0
C430 C 0.10866 0.49226 0.03995 0.0
C431 C 0.10967 0.46476 0.07254 0.0
C432 C 0.09718 0.45279 0.05146 0.0
N433 N 0.11702 0.48945 0.06537 0.0
N434 N 0.09635 0.47008 0.03098 0.0
H435 H 0.11031 0.51057 0.02884 0.0
H436 H 0.11215 0.45621 0.09204 0.0
C437 C 0.13675 0.48648 0.13848 0.0
O438 O 0.12277 0.50636 0.14793 0.0
N439 N 0.1487 0.54197 0.1124 0.0
C440 C 0.17422 0.54112 0.12051 0.0
C441 C 0.17764 0.55862 0.14111 0.0
C442 C 0.1369 0.56015 0.12848 0.0
N443 N 0.15422 0.57045 0.14624 0.0
C444 C 0.17521 0.53619 0.05725 0.0
C445 C 0.20231 0.48891 0.05017 0.0
C446 C 0.21242 0.51212 0.03834 0.0
C447 C 0.1986 0.53599 0.04234 0.0
C448 C 0.17884 0.49001 0.06521 0.0
N449 N 0.16575 0.51352 0.06867 0.0
H450 H 0.16482 0.55476 0.06008 0.0
H451 H 0.17107 0.47196 0.07385 0.0
H452 H 0.189 0.52731 0.1133 0.0
H453 H 0.1158 0.56411 0.12888 0.0
O454 O 0.1158 0.54383 0.06829 0.0
O455 O 0.09775 0.52321 0.10265 0.0
O456 O 0.14392 0.48682 0.11406 0.0
C457 C 0.09531 0.54067 0.0837 0.0
H458 H 0.08872 0.43303 0.05147 0.0
H459 H 0.19564 0.5613 0.15257 0.0
H460 H 0.21228 0.47003 0.04755 0.0
H461 H 0.20596 0.55454 0.03434 0.0
Co462 Co 0.76841 0.64609 0.19344 0.0
C463 C 0.74022 0.67716 0.23532 0.0
C464 C 0.71442 0.64967 0.21557 0.0
C465 C 0.70063 0.66142 0.23611 0.0
N466 N 0.73925 0.65961 0.21493 0.0
N467 N 0.7169 0.67872 0.24849 0.0
H468 H 0.7578 0.68792 0.24122 0.0
H469 H 0.70728 0.63371 0.20313 0.0
C470 C 0.73661 0.64832 0.14432 0.0
O471 O 0.74903 0.67074 0.13977 0.0
N472 N 0.79777 0.63249 0.17255 0.0
C473 C 0.81921 0.62013 0.18284 0.0
C474 C 0.83846 0.6182 0.1635 0.0
C475 C 0.80428 0.6379 0.14704 0.0
N476 N 0.82897 0.62939 0.14114 0.0
C477 C 0.76705 0.6116 0.23854 0.0
C478 C 0.76067 0.56457 0.21087 0.0
C479 C 0.76188 0.56368 0.23881 0.0
C480 C 0.76518 0.5877 0.25257 0.0
C481 C 0.76225 0.589 0.19759 0.0
N482 N 0.76531 0.61209 0.21148 0.0
H483 H 0.76985 0.62988 0.24945 0.0
H484 H 0.76157 0.58935 0.1761 0.0
H485 H 0.82122 0.61421 0.20341 0.0
H486 H 0.79216 0.64917 0.13345 0.0
O487 O 0.79412 0.66332 0.21664 0.0
O488 O 0.77612 0.68141 0.18087 0.0
O489 O 0.74188 0.63483 0.16525 0.0
C490 C 0.79258 0.68353 0.20054 0.0
H491 H 0.68073 0.65637 0.24241 0.0
H492 H 0.85816 0.60991 0.16581 0.0
H493 H 0.75904 0.54653 0.19927 0.0
H494 H 0.7662 0.5881 0.27408 0.0
Co495 Co 0.89951 1.00713 0.09014 0.0
C496 C 0.91899 0.03376 0.04088 0.0
C497 C 0.9276 0.05597 0.07628 0.0
C498 C 0.93929 0.06852 0.05508 0.0
N499 N 0.91479 0.03423 0.06745 0.0
N500 N 0.93412 0.05455 0.03277 0.0
H501 H 0.9116 0.01822 0.02803 0.0
H502 H 0.92957 0.06164 0.09692 0.0
C503 C 0.87341 0.0423 0.13272 0.0
O504 O 0.8497 0.03192 0.12987 0.0
N505 N 0.88477 0.98 0.11392 0.0
C506 C 0.85896 0.97515 0.11947 0.0
C507 C 0.85732 0.95585 0.13877 0.0
C508 C 0.89838 0.96339 0.13022 0.0
N509 N 0.8821 0.94841 0.14541 0.0
C510 C 0.85574 0.99003 0.05905 0.0
C511 C 0.82852 0.03767 0.05688 0.0
C512 C 0.81743 0.0152 0.04454 0.0
C513 C 0.83184 0.99139 0.04518 0.0
C514 C 0.85284 0.0355 0.07041 0.0
N515 N 0.86551 1.01158 0.07227 0.0
H516 H 0.86624 0.97132 0.05967 0.0
H517 H 0.86144 0.053 0.07938 0.0
H518 H 0.84217 0.9852 0.11069 0.0
H519 H 0.91976 0.96269 0.13171 0.0
O520 O 0.91418 0.9799 0.06732 0.0
O521 O 0.93493 0.99816 0.10159 0.0
O522 O 0.89268 0.03509 0.11792 0.0
C523 C 0.93554 0.98156 0.08175 0.0
H524 H 0.9519 0.08588 0.05627 0.0
H525 H 0.83928 0.9479 0.14733 0.0
H526 H 0.81837 0.05663 0.05634 0.0
H527 H 0.82472 0.97383 0.035 0.0
Co528 Co 0.33689 0.26164 0.14696 0.0
C529 C 0.28868 0.28938 0.1669 0.0
C530 C 0.32424 0.31161 0.17404 0.0
C531 C 0.30334 0.32467 0.1858 0.0
N532 N 0.31506 0.28958 0.16197 0.0
N533 N 0.2809 0.31079 0.1812 0.0
H534 H 0.27559 0.27336 0.16125 0.0
H535 H 0.34492 0.31701 0.17575 0.0
C536 C 0.38707 0.2916 0.1465 0.0
O537 O 0.39532 0.27406 0.16389 0.0
N538 N 0.35926 0.23338 0.13244 0.0
C539 C 0.3572 0.22071 0.10884 0.0
C540 C 0.37685 0.20168 0.10713 0.0
C541 C 0.37982 0.22129 0.14486 0.0
N542 N 0.39119 0.2023 0.12972 0.0
C543 C 0.29328 0.25427 0.11106 0.0
C544 C 0.31479 0.27978 0.06749 0.0
C545 C 0.28899 0.26933 0.06542 0.0
C546 C 0.2784 0.25641 0.08772 0.0
C547 C 0.32887 0.27773 0.09148 0.0
N548 N 0.31803 0.26517 0.11305 0.0
H549 H 0.28468 0.24372 0.12758 0.0
H550 H 0.34876 0.28557 0.09216 0.0
H551 H 0.34237 0.22452 0.09383 0.0
H552 H 0.38597 0.22558 0.16497 0.0
O553 O 0.31484 0.23501 0.16392 0.0
O554 O 0.34972 0.25407 0.1824 0.0
O555 O 0.36388 0.28938 0.13642 0.0
C556 C 0.33027 0.23729 0.18449 0.0
H557 H 0.30499 0.34205 0.19834 0.0
H558 H 0.38043 0.18854 0.09047 0.0
H559 H 0.32438 0.28897 0.05057 0.0
H560 H 0.25864 0.24798 0.08725 0.0
Co561 Co 0.33991 0.7675 0.38197 0.0
C562 C 0.29388 0.74313 0.35392 0.0
C563 C 0.31672 0.71412 0.37508 0.0
C564 C 0.29538 0.70159 0.36355 0.0
N565 N 0.31595 0.7402 0.36891 0.0
N566 N 0.28097 0.71991 0.35041 0.0
H567 H 0.28732 0.76174 0.34561 0.0
H568 H 0.33124 0.70475 0.38775 0.0
C569 C 0.38856 0.73779 0.40279 0.0
O570 O 0.39524 0.75763 0.41831 0.0
N571 N 0.36374 0.79501 0.39513 0.0
C572 C 0.36208 0.80867 0.41819 0.0
C573 C 0.38182 0.82745 0.41882 0.0
C574 C 0.38464 0.80584 0.38212 0.0
N575 N 0.39591 0.8258 0.39611 0.0
C576 C 0.30295 0.78165 0.42259 0.0
C577 C 0.31376 0.74086 0.45768 0.0
C578 C 0.29377 0.75919 0.46401 0.0
C579 C 0.28853 0.77979 0.44616 0.0
C580 C 0.32806 0.7436 0.4339 0.0
N581 N 0.3228 0.76404 0.41674 0.0
H582 H 0.29828 0.79774 0.40928 0.0
H583 H 0.34286 0.72888 0.42935 0.0
H584 H 0.34772 0.80555 0.43375 0.0
H585 H 0.39167 0.79905 0.36297 0.0
O586 O 0.31765 0.7951 0.3668 0.0
O587 O 0.35083 0.77541 0.34586 0.0
O588 O 0.36721 0.73882 0.38905 0.0
C589 C 0.33184 0.79291 0.34535 0.0
H590 H 0.29041 0.68075 0.36529 0.0
H591 H 0.38527 0.84161 0.43465 0.0
H592 H 0.31841 0.72466 0.47107 0.0
H593 H 0.27314 0.79427 0.45026 0.0
Co594 Co 1.01356 0.4419 0.89653 0.0
C595 C 0.98931 0.49038 0.9202 0.0
C596 C 0.96028 0.46 0.91336 0.0
C597 C 0.94799 0.48122 0.9254 0.0
N598 N 0.98625 0.46565 0.91011 0.0
N599 N 0.96624 0.50029 0.92978 0.0
H600 H 1.0082 0.50042 0.92168 0.0
H601 H 0.95075 0.44155 0.90805 0.0
C602 C 0.98606 0.39126 0.89839 0.0
O603 O 1.00653 0.38447 0.91305 0.0
N604 N 0.0406 0.41776 0.88276 0.0
C605 C 0.04072 0.40701 0.8582 0.0
C606 C 0.06052 0.38822 0.85675 0.0
C607 C 0.06038 0.40511 0.89596 0.0
N608 N 0.07286 0.387 0.8805 0.0
C609 C 0.03149 0.47228 0.85204 0.0
C610 C 0.98428 0.47205 0.8239 0.0
C611 C 1.00577 0.4867 0.81393 0.0
C612 C 0.02966 0.48652 0.82822 0.0
C613 C 0.98682 0.45833 0.84804 0.0
N614 N 1.01024 0.45856 0.86175 0.0
H615 H 0.05001 0.47239 0.86286 0.0
H616 H 0.96976 0.448 0.8559 0.0
H617 H 0.02663 0.41165 0.84266 0.0
H618 H 0.06456 0.40775 0.91686 0.0
O619 O 0.04103 0.46442 0.91169 0.0
O620 O 0.02124 0.43136 0.9327 0.0
O621 O 0.98558 0.41441 0.88799 0.0
C622 C 0.03835 0.45067 0.93342 0.0
H623 H 0.92726 0.48233 0.93095 0.0
H624 H 0.06511 0.37595 0.83968 0.0
H625 H 0.96548 0.47176 0.81346 0.0
H626 H 0.04684 0.49725 0.82099 0.0
Co627 Co 0.68925 0.76157 0.38309 0.0
C628 C 0.73659 0.79041 0.36329 0.0
C629 C 0.70034 0.80944 0.35188 0.0
C630 C 0.72097 0.8217 0.33883 0.0
N631 N 0.71012 0.79009 0.36767 0.0
N632 N 0.74369 0.80945 0.34578 0.0
H633 H 0.75025 0.77602 0.37123 0.0
H634 H 0.67947 0.81306 0.3484 0.0
C635 C 0.6612 0.81146 0.40056 0.0
O636 O 0.68411 0.82167 0.40776 0.0
N637 N 0.6682 0.73289 0.39719 0.0
C638 C 0.6771 0.71213 0.41149 0.0
C639 C 0.65731 0.69334 0.41279 0.0
C640 C 0.64325 0.72648 0.38986 0.0
N641 N 0.63611 0.70222 0.39894 0.0
C642 C 0.73273 0.75695 0.42014 0.0
C643 C 0.70632 0.77539 0.46462 0.0
C644 C 0.73318 0.76846 0.46699 0.0
C645 C 0.74621 0.75865 0.44442 0.0
C646 C 0.69345 0.77304 0.43998 0.0
N647 N 0.707 0.76522 0.4177 0.0
H648 H 0.74289 0.74812 0.4035 0.0
H649 H 0.67242 0.77695 0.43913 0.0
H650 H 0.69707 0.71009 0.41911 0.0
H651 H 0.63105 0.73903 0.37741 0.0
O652 O 0.71249 0.73575 0.36607 0.0
O653 O 0.67653 0.75323 0.34792 0.0
O654 O 0.66001 0.78742 0.39248 0.0
C655 C 0.69663 0.73724 0.34565 0.0
H656 H 0.7192 0.83701 0.32382 0.0
H657 H 0.65895 0.67396 0.42198 0.0
H658 H 0.69512 0.78186 0.48184 0.0
H659 H 0.76671 0.75221 0.44554 0.0
Co660 Co 0.51305 0.58853 0.39788 0.0
C661 C 0.53793 0.54242 0.42613 0.0
C662 C 0.56626 0.56531 0.40406 0.0
C663 C 0.57943 0.54487 0.41648 0.0
N664 N 0.54024 0.56405 0.4103 0.0
N665 N 0.56165 0.53067 0.43054 0.0
H666 H 0.51944 0.53538 0.43445 0.0
H667 H 0.57524 0.57984 0.39107 0.0
C668 C 0.5431 0.63753 0.37904 0.0
O669 O 0.52435 0.64414 0.36217 0.0
N670 N 0.48581 0.61306 0.38524 0.0
C671 C 0.47213 0.6116 0.36221 0.0
C672 C 0.4538 0.63178 0.36143 0.0
C673 C 0.47537 0.63427 0.39818 0.0
N674 N 0.45576 0.64605 0.38401 0.0
C675 C 0.50044 0.55153 0.35659 0.0
C676 C 0.5378 0.56746 0.31971 0.0
C677 C 0.52083 0.54633 0.31327 0.0
C678 C 0.50211 0.53835 0.33221 0.0
C679 C 0.53552 0.58017 0.34445 0.0
N680 N 0.51661 0.57256 0.36245 0.0
H681 H 0.48573 0.54483 0.3706 0.0
H682 H 0.54949 0.59565 0.34897 0.0
H683 H 0.4749 0.59698 0.3468 0.0
H684 H 0.48153 0.64053 0.4178 0.0
O685 O 0.48507 0.56625 0.41234 0.0
O686 O 0.50555 0.59843 0.43428 0.0
O687 O 0.54169 0.61592 0.39225 0.0
C688 C 0.48778 0.57979 0.43418 0.0
H689 H 0.60039 0.54048 0.41479 0.0
H690 H 0.44005 0.63568 0.34536 0.0
H691 H 0.55312 0.57378 0.30598 0.0
H692 H 0.48859 0.52213 0.32815 0.0
Co693 Co 0.18894 0.76323 0.64558 0.0
C694 C 0.23238 0.73766 0.67673 0.0
C695 C 0.2156 0.71145 0.64768 0.0
C696 C 0.23693 0.69894 0.65931 0.0
N697 N 0.21257 0.7357 0.65871 0.0
N698 N 0.2476 0.7156 0.67732 0.0
H699 H 0.23628 0.75507 0.68863 0.0
H700 H 0.20422 0.70404 0.63105 0.0
C701 C 0.13873 0.73326 0.62835 0.0
O702 O 0.12853 0.75417 0.6166 0.0
N703 N 0.16605 0.79128 0.63227 0.0
C704 C 0.17317 0.80953 0.61395 0.0
C705 C 0.15452 0.82947 0.61348 0.0
C706 C 0.14336 0.80079 0.64316 0.0
N707 N 0.13589 0.82395 0.63184 0.0
C708 C 0.23234 0.7655 0.60997 0.0
C709 C 0.20629 0.75017 0.56412 0.0
C710 C 0.23337 0.75659 0.56281 0.0
C711 C 0.24637 0.76423 0.58615 0.0
C712 C 0.19283 0.7519 0.5885 0.0
N713 N 0.20591 0.75962 0.611 0.0
H714 H 0.24281 0.77127 0.62779 0.0
H715 H 0.17192 0.74758 0.58902 0.0
H716 H 0.19135 0.80917 0.60254 0.0
H717 H 0.13297 0.79142 0.6595 0.0
O718 O 0.21138 0.79062 0.66034 0.0
O719 O 0.17795 0.77145 0.68152 0.0
O720 O 0.16207 0.73414 0.63832 0.0
C721 C 0.19714 0.78876 0.68185 0.0
H722 H 0.24496 0.67975 0.65384 0.0
H723 H 0.15475 0.8469 0.60086 0.0
H724 H 0.19549 0.74454 0.54637 0.0
H725 H 0.26729 0.76918 0.58599 0.0
Co726 Co 1.01188 0.58875 0.62985 0.0
C727 C 0.98454 0.54024 0.61045 0.0
C728 C 0.96333 0.5759 0.60063 0.0
C729 C 0.95054 0.55474 0.58912 0.0
N730 N 0.98456 0.56684 0.61413 0.0
N731 N 0.96374 0.53226 0.59541 0.0
H732 H 0.99991 0.52713 0.61774 0.0
H733 H 0.95828 0.59658 0.59799 0.0
C734 C 0.98354 0.63873 0.64952 0.0
O735 O 1.00186 0.64413 0.66726 0.0
N736 N 0.03963 0.61089 0.64503 0.0
C737 C 0.05335 0.60686 0.66771 0.0
C738 C 0.07279 0.62593 0.66979 0.0
C739 C 0.05109 0.63237 0.63361 0.0
N740 N 0.07156 0.64177 0.64819 0.0
C741 C 0.01945 0.54751 0.66836 0.0
C742 C 0.98785 0.5677 0.7084 0.0
C743 C 1.00201 0.54417 0.71308 0.0
C744 C 0.01758 0.53389 0.69249 0.0
C745 C 0.98989 0.58055 0.68369 0.0
N746 N 1.00615 0.57084 0.66414 0.0
H747 H 0.03212 0.53924 0.65322 0.0
H748 H 0.97833 0.59821 0.68073 0.0
H749 H 0.04994 0.59105 0.6818 0.0
H750 H 0.04503 0.64062 0.6147 0.0
O751 O 0.03892 0.56565 0.61499 0.0
O752 O 0.02173 0.60041 0.59451 0.0
O753 O 0.98414 0.61711 0.63618 0.0
C754 C 0.03794 0.58034 0.59378 0.0
H755 H 0.9338 0.55611 0.57573 0.0
H756 H 0.08671 0.62798 0.68605 0.0
H757 H 0.97516 0.57602 0.72368 0.0
H758 H 0.02881 0.51574 0.69524 0.0
Co759 Co 0.01417 0.93966 0.63155 0.0
C760 C 0.04197 0.98825 0.61319 0.0
C761 C 0.06394 0.95266 0.60483 0.0
C762 C 0.0771 0.9738 0.59368 0.0
N763 N 0.04202 0.96172 0.61715 0.0
N764 N 0.06336 0.99622 0.59897 0.0
H765 H 0.02607 1.00123 0.61962 0.0
H766 H 0.06914 0.93195 0.60259 0.0
C767 C 0.04218 0.88891 0.63527 0.0
O768 O 0.02252 0.87972 0.62081 0.0
N769 N 0.98638 0.91669 0.64581 0.0
C770 C 0.98414 0.90856 0.67128 0.0
C771 C 0.96496 0.88913 0.67279 0.0
C772 C 0.96862 0.90172 0.63218 0.0
N773 N 0.95547 0.88463 0.64815 0.0
C774 C 0.99499 0.9725 0.67399 0.0
C775 C 0.04161 0.97416 0.70303 0.0
C776 C 0.01958 0.98854 0.71229 0.0
C777 C 0.99603 0.98749 0.69744 0.0
C778 C 0.03982 0.95959 0.67931 0.0
N779 N 0.01663 0.95869 0.66526 0.0
H780 H 0.97668 0.97184 0.66281 0.0
H781 H 0.05725 0.94938 0.67208 0.0
H782 H 0.99655 0.91521 0.6875 0.0
H783 H 0.96592 0.90246 0.61088 0.0
O784 O 0.98795 0.96167 0.61397 0.0
O785 O 1.00751 0.92662 0.59598 0.0
O786 O 0.04172 0.91306 0.64302 0.0
C787 C 0.99101 0.94637 0.59334 0.0
H788 H 0.09442 0.97243 0.58101 0.0
H789 H 0.95944 0.8781 0.69043 0.0
H790 H 0.06023 0.97457 0.71379 0.0
H791 H 0.97842 0.99795 0.70404 0.0
Co792 Co 0.64519 0.84279 0.76106 0.0
C793 C 0.67573 0.79885 0.78738 0.0
C794 C 0.64833 0.81811 0.81373 0.0
C795 C 0.66077 0.79804 0.82743 0.0
N796 N 0.65783 0.81888 0.78866 0.0
N797 N 0.67808 0.78605 0.8109 0.0
H798 H 0.68665 0.7934 0.76969 0.0
H799 H 0.63273 0.83072 0.82142 0.0
C800 C 0.6258 0.89194 0.79177 0.0
O801 O 0.61153 0.90112 0.77196 0.0
N802 N 0.63263 0.86666 0.7334 0.0
C803 C 0.6147 0.86079 0.71448 0.0
C804 C 0.61438 0.88098 0.69604 0.0
C805 C 0.64337 0.89017 0.72587 0.0
N806 N 0.63244 0.89955 0.70308 0.0
C807 C 0.60966 0.79931 0.75634 0.0
C808 C 0.56385 0.82358 0.77433 0.0
C809 C 0.56269 0.79692 0.76624 0.0
C810 C 0.58607 0.7848 0.75736 0.0
C811 C 0.58795 0.83757 0.77275 0.0
N812 N 0.6105 0.82544 0.76366 0.0
H813 H 0.62747 0.78935 0.74979 0.0
H814 H 0.58815 0.85803 0.77868 0.0
H815 H 0.60343 0.84255 0.71343 0.0
H816 H 0.65882 0.90006 0.73702 0.0
O817 O 0.66088 0.82077 0.73349 0.0
O818 O 0.68106 0.85413 0.75385 0.0
O819 O 0.63765 0.86953 0.79016 0.0
C820 C 0.682 0.83542 0.73603 0.0
H821 H 0.65663 0.79205 0.84768 0.0
H822 H 0.60241 0.88139 0.67818 0.0
H823 H 0.54617 0.83366 0.78132 0.0
H824 H 0.58617 0.76413 0.75137 0.0
Co825 Co 0.08904 0.1314 0.51786 0.0
C826 C 0.04171 0.11093 0.48948 0.0
C827 C 0.07788 0.10211 0.4688 0.0
C828 C 0.05725 0.09021 0.45553 0.0
N829 N 0.06815 0.11529 0.48997 0.0
N830 N 0.03446 0.09588 0.46845 0.0
H831 H 0.02817 0.11761 0.50474 0.0
H832 H 0.09867 0.09983 0.46411 0.0
C833 C 0.13857 0.12977 0.48611 0.0
O834 O 0.14538 0.10943 0.50088 0.0
N835 N 0.11029 0.147 0.54596 0.0
C836 C 0.10336 0.16672 0.56273 0.0
C837 C 0.12271 0.1692 0.58194 0.0
C838 C 0.13351 0.13756 0.55552 0.0
N839 N 0.14172 0.15089 0.57726 0.0
C840 C 0.04525 0.16741 0.52419 0.0
C841 C 0.06648 0.21013 0.4971 0.0
C842 C 0.04098 0.21264 0.50811 0.0
C843 C 0.0306 0.19088 0.52203 0.0
C844 C 0.08063 0.18625 0.49981 0.0
N845 N 0.06988 0.16502 0.513 0.0
H846 H 0.03679 0.15128 0.53542 0.0
H847 H 0.10035 0.18532 0.49158 0.0
H848 H 0.08502 0.17781 0.56195 0.0
H849 H 0.14381 0.12059 0.54749 0.0
O850 O 0.06644 0.11495 0.54456 0.0
O851 O 0.1023 0.0965 0.52734 0.0
O852 O 0.11652 0.14167 0.49033 0.0
C853 C 0.08243 0.09475 0.54368 0.0
H854 H 0.0592 0.07694 0.43872 0.0
H855 H 0.12208 0.18259 0.59876 0.0
H856 H 0.07546 0.22652 0.48644 0.0
H857 H 1.01148 0.19212 0.53179 0.0
Co858 Co 0.38148 0.68947 0.76032 0.0
C859 C 0.36261 0.73856 0.78696 0.0
C860 C 0.35411 0.70361 0.80984 0.0
C861 C 0.34327 0.72516 0.8226 0.0
N862 N 0.36632 0.71198 0.78756 0.0
N863 N 0.34872 0.74718 0.80832 0.0
H864 H 0.36917 0.75119 0.77083 0.0
H865 H 0.352 0.68315 0.81585 0.0
C866 C 0.40355 0.64146 0.79061 0.0
O867 O 0.42231 0.63652 0.77316 0.0
N868 N 0.39613 0.66683 0.73257 0.0
C869 C 0.41348 0.67416 0.71354 0.0
C870 C 0.41542 0.65422 0.69501 0.0
C871 C 0.38747 0.64247 0.72499 0.0
N872 N 0.39928 0.6341 0.70223 0.0
C873 C 0.41978 0.72974 0.74844 0.0
C874 C 0.45809 0.71594 0.78515 0.0
C875 C 0.46324 0.73694 0.76753 0.0
C876 C 0.44346 0.74404 0.74941 0.0
C877 C 0.434 0.70187 0.7834 0.0
N878 N 0.41546 0.70824 0.76452 0.0
H879 H 0.40518 0.73581 0.73404 0.0
H880 H 0.43051 0.68612 0.79741 0.0
H881 H 0.42304 0.69323 0.71204 0.0
H882 H 0.37238 0.63143 0.73558 0.0
O883 O 0.36542 0.71157 0.73326 0.0
O884 O 0.34627 0.67671 0.75181 0.0
O885 O 0.38902 0.66215 0.78866 0.0
C886 C 0.34465 0.69642 0.73523 0.0
H887 H 0.33093 0.72436 0.8402 0.0
H888 H 0.4267 0.65532 0.67674 0.0
H889 H 0.47271 0.71017 0.79984 0.0
H890 H 0.44628 0.76059 0.73593 0.0
Co891 Co 0.93673 0.39587 0.51715 0.0
C892 C 0.98318 0.42409 0.49265 0.0
C893 C 0.95863 0.4049 0.46361 0.0
C894 C 0.97932 0.41699 0.45067 0.0
N895 N 0.96078 0.40943 0.48999 0.0
N896 N 0.9946 0.42926 0.46885 0.0
H897 H 0.991 0.43101 0.51143 0.0
H898 H 0.9434 0.3932 0.4541 0.0
C899 C 0.88823 0.37639 0.48596 0.0
O900 O 0.88094 0.3592 0.50416 0.0
N901 N 0.9124 0.38206 0.5442 0.0
C902 C 0.91173 0.35731 0.55458 0.0
C903 C 0.89231 0.35611 0.57372 0.0
C904 C 0.89289 0.3954 0.55719 0.0
N905 N 0.88069 0.38013 0.57562 0.0
C906 C 0.97236 0.35412 0.53196 0.0
C907 C 0.96312 0.32069 0.48939 0.0
C908 C 0.98171 0.31292 0.50872 0.0
C909 C 0.98624 0.33014 0.53014 0.0
C910 C 0.94942 0.34483 0.49206 0.0
N911 N 0.95388 0.36115 0.51335 0.0
H912 H 0.97618 0.36681 0.5488 0.0
H913 H 0.93569 0.35039 0.47663 0.0
H914 H 0.92397 0.34079 0.54857 0.0
H915 H 0.88779 0.41591 0.55355 0.0
O916 O 0.95872 0.41115 0.54512 0.0
O917 O 0.92538 0.43161 0.52509 0.0
O918 O 0.90974 0.3895 0.48835 0.0
C919 C 0.94409 0.43235 0.54282 0.0
H920 H 0.98316 0.41622 0.4295 0.0
H921 H 0.88691 0.33869 0.58511 0.0
H922 H 0.95951 0.30849 0.47204 0.0
H923 H 1.00027 0.32502 0.54564 0.0
Co924 Co 0.64659 0.19186 0.77082 0.0
C925 C 0.67532 0.23763 0.74657 0.0
C926 C 0.65477 0.21466 0.71718 0.0
C927 C 0.66652 0.23605 0.70482 0.0
N928 N 0.6604 0.2155 0.74341 0.0
N929 N 0.67919 0.25058 0.72338 0.0
H930 H 0.68304 0.2444 0.76543 0.0
H931 H 0.64231 0.20007 0.70758 0.0
C932 C 0.62721 0.14247 0.74022 0.0
O933 O 0.6132 0.1328 0.75997 0.0
N934 N 0.63294 0.16899 0.79866 0.0
C935 C 0.61593 0.17682 0.81779 0.0
C936 C 0.61436 0.15735 0.83681 0.0
C937 C 0.6421 0.14505 0.8068 0.0
N938 N 0.63053 0.13714 0.82979 0.0
C939 C 0.6119 0.23644 0.77367 0.0
C940 C 0.56518 0.21055 0.76115 0.0
C941 C 0.56422 0.23772 0.76736 0.0
C942 C 0.58811 0.25072 0.77324 0.0
C943 C 0.58949 0.19701 0.76161 0.0
N944 N 0.61245 0.20992 0.76804 0.0
H945 H 0.63 0.24672 0.77877 0.0
H946 H 0.58955 0.17609 0.7575 0.0
H947 H 0.60648 0.19608 0.81874 0.0
H948 H 0.65718 0.13388 0.79629 0.0
O949 O 0.66313 0.2132 0.79851 0.0
O950 O 0.68189 0.17926 0.77773 0.0
O951 O 0.63817 0.16533 0.74177 0.0
C952 C 0.68395 0.19812 0.79524 0.0
H953 H 0.66514 0.24104 0.68392 0.0
H954 H 0.60327 0.15879 0.85518 0.0
H955 H 0.54719 0.1997 0.75657 0.0
H956 H 0.5885 0.27181 0.77746 0.0
Co957 Co 0.43916 0.13423 0.50918 0.0
C958 C 0.48832 0.11556 0.53596 0.0
C959 C 0.45304 0.10499 0.55737 0.0
C960 C 0.47442 0.09335 0.56967 0.0
N961 N 0.46172 0.11908 0.53636 0.0
N962 N 0.49663 0.09979 0.55613 0.0
H963 H 0.50111 0.12366 0.52077 0.0
H964 H 0.43243 0.10189 0.56243 0.0
C965 C 0.38965 0.15419 0.53843 0.0
O966 O 0.38212 0.16866 0.51809 0.0
N967 N 0.41629 0.14844 0.48151 0.0
C968 C 0.42064 0.16937 0.46537 0.0
C969 C 0.40056 0.17049 0.44674 0.0
C970 C 0.39386 0.13696 0.4722 0.0
N971 N 0.38368 0.15016 0.45116 0.0
C972 C 0.48077 0.17218 0.50052 0.0
C973 C 0.46088 0.21299 0.53135 0.0
C974 C 0.48524 0.2166 0.51843 0.0
C975 C 0.49514 0.19581 0.50286 0.0
C976 C 0.44729 0.1888 0.52888 0.0
N977 N 0.45714 0.16864 0.51348 0.0
H978 H 0.48886 0.15671 0.48813 0.0
H979 H 0.42899 0.18674 0.53957 0.0
H980 H 0.43746 0.18261 0.46648 0.0
H981 H 0.38552 0.1189 0.48029 0.0
O982 O 0.46154 0.11858 0.48185 0.0
O983 O 0.42705 0.09883 0.50058 0.0
O984 O 0.4119 0.14187 0.53794 0.0
C985 C 0.4465 0.09769 0.48364 0.0
H986 H 0.47348 0.07983 0.58639 0.0
H987 H 0.39862 0.18506 0.43103 0.0
H988 H 0.45258 0.22863 0.5436 0.0
H989 H 0.51372 0.19793 0.49222 0.0
Co990 Co 0.38063 0.34069 0.76729 0.0
C991 C 0.35685 0.29288 0.74158 0.0
C992 C 0.36747 0.32269 0.71305 0.0
C993 C 0.35624 0.30173 0.69979 0.0
N994 N 0.36795 0.31726 0.73931 0.0
N995 N 0.34914 0.28317 0.71773 0.0
H996 H 0.35363 0.28276 0.76029 0.0
H997 H 0.37432 0.34075 0.70388 0.0
C998 C 0.38439 0.39113 0.73906 0.0
O999 O 0.36897 0.39973 0.75829 0.0
N1000 N 0.39379 0.3644 0.79485 0.0
C1001 C 0.41865 0.37428 0.79576 0.0
C1002 C 0.42003 0.39316 0.81543 0.0
C1003 C 0.38031 0.37763 0.81405 0.0
N1004 N 0.39594 0.39528 0.82687 0.0
C1005 C 0.42251 0.30935 0.78923 0.0
C1006 C 0.4542 0.30799 0.7443 0.0
C1007 C 0.46298 0.29496 0.76736 0.0
C1008 C 0.44658 0.29552 0.78992 0.0
C1009 C 0.42989 0.32149 0.74438 0.0
N1010 N 0.41457 0.3223 0.76678 0.0
H1011 H 0.41022 0.30981 0.80684 0.0
H1012 H 0.4234 0.33118 0.72638 0.0
H1013 H 0.43448 0.36901 0.78222 0.0
H1014 H 0.35924 0.3757 0.81757 0.0
O1015 O 0.36228 0.31948 0.79383 0.0
O1016 O 0.34474 0.35342 0.77207 0.0
O1017 O 0.39275 0.36717 0.73974 0.0
C1018 C 0.34162 0.33432 0.78919 0.0
H1019 H 0.35339 0.30038 0.6785 0.0
H1020 H 0.43728 0.40493 0.8205 0.0
H1021 H 0.46615 0.30798 0.72638 0.0
H1022 H 0.45212 0.28512 0.80793 0.0
Co1023 Co 0.59046 0.39822 0.51579 0.0
C1024 C 0.54088 0.41663 0.54132 0.0
C1025 C 0.57542 0.42654 0.56425 0.0
C1026 C 0.55366 0.43832 0.5758 0.0
N1027 N 0.56739 0.41299 0.54266 0.0
N1028 N 0.53192 0.43235 0.56127 0.0
H1029 H 0.52871 0.40854 0.52558 0.0
H1030 H 0.59587 0.42907 0.57026 0.0
C1031 C 0.64102 0.39506 0.54431 0.0
O1032 O 0.65038 0.40869 0.52412 0.0
N1033 N 0.61415 0.38345 0.48898 0.0
C1034 C 0.62503 0.35898 0.48985 0.0
C1035 C 0.64419 0.35704 0.47042 0.0
C1036 C 0.62686 0.39604 0.46886 0.0
N1037 N 0.64542 0.38041 0.45744 0.0
C1038 C 0.55944 0.35495 0.49648 0.0
C1039 C 0.55699 0.32655 0.54353 0.0
C1040 C 0.54392 0.31655 0.521 0.0
C1041 C 0.54515 0.33117 0.49732 0.0
C1042 C 0.57082 0.35067 0.54194 0.0
N1043 N 0.57212 0.36436 0.51852 0.0
H1044 H 0.56045 0.36587 0.47801 0.0
H1045 H 0.5802 0.35847 0.55961 0.0
H1046 H 0.62032 0.34396 0.50448 0.0
H1047 H 0.62395 0.41664 0.46356 0.0
O1048 O 0.56879 0.41466 0.48856 0.0
O1049 O 0.60302 0.43377 0.5084 0.0
O1050 O 0.61664 0.38801 0.54436 0.0
C1051 C 0.58349 0.43569 0.49153 0.0
H1052 H 0.5541 0.45162 0.59272 0.0
H1053 H 0.65671 0.33998 0.46656 0.0
H1054 H 0.55615 0.31603 0.56229 0.0
H1055 H 0.53538 0.3241 0.47949 0.0
Co1056 Co 0.76262 0.65392 0.8428 0.0
C1057 C 0.79175 0.67385 0.79518 0.0
C1058 C 0.8125 0.68206 0.83138 0.0
C1059 C 0.82622 0.69343 0.81074 0.0
N1060 N 0.79129 0.66895 0.82164 0.0
N1061 N 0.81313 0.68841 0.78789 0.0
H1062 H 0.77563 0.6691 0.78195 0.0
H1063 H 0.81701 0.68452 0.85224 0.0
C1064 C 0.81214 0.63414 0.86999 0.0
O1065 O 0.82122 0.62663 0.84667 0.0
N1066 N 0.73381 0.64003 0.86409 0.0
C1067 C 0.71352 0.62512 0.85516 0.0
C1068 C 0.69525 0.62228 0.87529 0.0
C1069 C 0.72746 0.6464 0.88945 0.0
N1070 N 0.70403 0.63554 0.8969 0.0
C1071 C 0.75768 0.6178 0.79886 0.0
C1072 C 0.77535 0.57256 0.82426 0.0
C1073 C 0.76868 0.57083 0.79714 0.0
C1074 C 0.75878 0.59384 0.78488 0.0
C1075 C 0.77289 0.59679 0.83784 0.0
N1076 N 0.76575 0.61949 0.82472 0.0
H1077 H 0.74934 0.63481 0.78894 0.0
H1078 H 0.77659 0.59709 0.85897 0.0
H1079 H 0.71153 0.61782 0.83504 0.0
H1080 H 0.73938 0.65926 0.9019 0.0
O1081 O 0.73699 0.67071 0.81953 0.0
O1082 O 0.75446 0.68934 0.8553 0.0
O1083 O 0.78872 0.64393 0.87186 0.0
C1084 C 0.73861 0.69137 0.83496 0.0
H1085 H 0.84391 0.70546 0.81265 0.0
H1086 H 0.67629 0.61232 0.87364 0.0
H1087 H 0.78232 0.55533 0.83508 0.0
H1088 H 0.75119 0.59342 0.76477 0.0
Co1089 Co 0.89888 0.01699 0.44045 0.0
C1090 C 0.93036 0.99035 0.4833 0.0
C1091 C 0.90266 0.96406 0.46454 0.0
C1092 C 0.91502 0.95056 0.48483 0.0
N1093 N 0.9124 0.98896 0.46333 0.0
N1094 N 0.9325 0.96708 0.49655 0.0
H1095 H 0.9412 1.00807 0.48865 0.0
H1096 H 0.88657 0.95662 0.45254 0.0
C1097 C 0.90449 0.98278 0.39321 0.0
O1098 O 0.92703 0.99526 0.38958 0.0
N1099 N 0.88515 0.04498 0.4178 0.0
C1100 C 0.86948 0.0651 0.42583 0.0
C1101 C 0.8679 0.08357 0.40573 0.0
C1102 C 0.89302 0.05159 0.39295 0.0
N1103 N 0.88285 0.07523 0.38504 0.0
C1104 C 0.86302 0.02052 0.48403 0.0
C1105 C 0.81827 1.00131 0.45879 0.0
C1106 C 0.81641 1.00843 0.48581 0.0
C1107 C 0.83923 0.01863 0.49814 0.0
C1108 C 0.84244 1.00417 0.44511 0.0
N1109 N 0.8645 1.01342 0.45789 0.0
H1110 H 0.88041 0.02784 0.49421 0.0
H1111 H 0.84328 0.999 0.42429 0.0
H1112 H 0.8609 0.06692 0.44546 0.0
H1113 H 0.90635 0.03966 0.3812 0.0
O1114 O 0.91456 0.0441 0.46324 0.0
O1115 O 0.93443 0.02551 0.42884 0.0
O1116 O 0.88952 0.98919 0.41279 0.0
C1117 C 0.93534 0.04268 0.448 0.0
H1118 H 0.91039 0.93062 0.49139 0.0
H1119 H 0.85751 0.10236 0.40682 0.0
H1120 H 0.80123 0.9935 0.44826 0.0
H1121 H 0.83878 0.02557 0.5185 0.0
Co1122 Co 0.2683 0.88187 0.83483 0.0
C1123 C 0.24348 0.85102 0.79066 0.0
C1124 C 0.21513 0.87456 0.81205 0.0
C1125 C 0.20231 0.86228 0.79128 0.0
N1126 N 0.24094 0.86738 0.81183 0.0
N1127 N 0.22019 0.84769 0.77775 0.0
H1128 H 0.26192 0.84194 0.78456 0.0
H1129 H 0.20628 0.8886 0.82569 0.0
C1130 C 0.23785 0.89958 0.88484 0.0
O1131 O 0.25677 0.91511 0.89376 0.0
N1132 N 0.29577 0.89648 0.85745 0.0
C1133 C 0.31386 0.9147 0.85003 0.0
C1134 C 0.33281 0.91671 0.86957 0.0
C1135 C 0.30435 0.88718 0.88117 0.0
N1136 N 0.3267 0.89964 0.88936 0.0
C1137 C 0.27041 0.91764 0.79113 0.0
C1138 C 0.25118 0.96238 0.81646 0.0
C1139 C 0.25858 0.96431 0.7896 0.0
C1140 C 0.26846 0.94148 0.77705 0.0
C1141 C 0.25376 0.93815 0.82996 0.0
N1142 N 0.26335 0.91613 0.81731 0.0
H1143 H 0.27787 0.90029 0.78095 0.0
H1144 H 0.24825 0.93746 0.85054 0.0
H1145 H 0.31413 0.9248 0.83106 0.0
H1146 H 0.29458 0.87139 0.89202 0.0
O1147 O 0.29609 0.86722 0.81231 0.0
O1148 O 0.2777 0.84671 0.84669 0.0
O1149 O 0.23964 0.88819 0.86221 0.0
C1150 C 0.295 0.84631 0.82752 0.0
H1151 H 0.18165 0.86474 0.7859 0.0
H1152 H 0.35051 0.92882 0.86846 0.0
H1153 H 0.24345 0.97947 0.82701 0.0
H1154 H 0.2752 0.94203 0.75662 0.0
Co1155 Co 0.12932 0.51037 0.43933 0.0
C1156 C 0.09946 0.53564 0.48395 0.0
C1157 C 0.12516 0.56318 0.46412 0.0
C1158 C 0.11354 0.5759 0.48537 0.0
N1159 N 0.11617 0.53796 0.46301 0.0
N1160 N 0.09759 0.55848 0.49793 0.0
H1161 H 0.08915 0.5176 0.48926 0.0
H1162 H 0.14014 0.57151 0.4512 0.0
C1163 C 0.14854 0.54019 0.38964 0.0
O1164 O 0.16082 0.51926 0.38015 0.0
N1165 N 0.14263 0.48216 0.4164 0.0
C1166 C 0.16072 0.4639 0.4238 0.0
C1167 C 0.16243 0.44468 0.40453 0.0
C1168 C 0.13291 0.47316 0.39289 0.0
N1169 N 0.14531 0.45063 0.38477 0.0
C1170 C 0.16446 0.50539 0.48332 0.0
C1171 C 0.21024 0.52331 0.45891 0.0
C1172 C 0.21146 0.51489 0.48545 0.0
C1173 C 0.18817 0.50595 0.49768 0.0
C1174 C 0.1861 0.52202 0.44505 0.0
N1175 N 0.16359 0.51303 0.45727 0.0
H1176 H 0.14665 0.49868 0.4932 0.0
H1177 H 0.18584 0.5279 0.42452 0.0
H1178 H 0.17108 0.46368 0.44261 0.0
H1179 H 0.11714 0.48291 0.38202 0.0
O1180 O 0.11289 0.48302 0.46103 0.0
O1181 O 0.0937 0.50344 0.42717 0.0
O1182 O 0.13784 0.53951 0.41271 0.0
C1183 C 0.09194 0.48598 0.44613 0.0
H1184 H 0.11739 0.59606 0.4918 0.0
H1185 H 0.1745 0.42695 0.40577 0.0
H1186 H 0.22791 0.53025 0.44881 0.0
H1187 H 0.1883 0.49954 0.51824 0.0
Co1188 Co 0.76235 0.38472 0.69593 0.0
C1189 C 0.78801 0.35435 0.74037 0.0
C1190 C 0.81501 0.38086 0.72091 0.0
C1191 C 0.82837 0.36819 0.74107 0.0
N1192 N 0.78973 0.37205 0.72016 0.0
N1193 N 0.81142 0.35143 0.75319 0.0
H1194 H 0.7701 0.34391 0.74591 0.0
H1195 H 0.82319 0.39607 0.70821 0.0
C1196 C 0.79288 0.40368 0.64666 0.0
O1197 O 0.77348 0.41924 0.63883 0.0
N1198 N 0.73469 0.39749 0.67197 0.0
C1199 C 0.71648 0.41644 0.6774 0.0
C1200 C 0.69788 0.417 0.65749 0.0
C1201 C 0.72658 0.38662 0.64866 0.0
N1202 N 0.7042 0.39833 0.63944 0.0
C1203 C 0.74922 0.42557 0.73345 0.0
C1204 C 0.78716 0.46223 0.71884 0.0
C1205 C 0.76943 0.46898 0.73939 0.0
C1206 C 0.7503 0.45003 0.74653 0.0
C1207 C 0.78464 0.43792 0.70541 0.0
N1208 N 0.76558 0.41992 0.71251 0.0
H1209 H 0.73443 0.41147 0.7398 0.0
H1210 H 0.7987 0.4336 0.68992 0.0
H1211 H 0.71587 0.42866 0.69495 0.0
H1212 H 0.73637 0.37004 0.63907 0.0
O1213 O 0.73477 0.36939 0.71817 0.0
O1214 O 0.75479 0.34866 0.68507 0.0
O1215 O 0.79122 0.39117 0.66871 0.0
C1216 C 0.73716 0.34794 0.70391 0.0
H1217 H 0.8487 0.37181 0.74701 0.0
H1218 H 0.6808 0.43004 0.65641 0.0
H1219 H 0.80332 0.47526 0.71336 0.0
H1220 H 0.73596 0.45399 0.76207 0.0
Co1221 Co 0.63242 0.02263 0.58912 0.0
C1222 C 0.60511 0.99587 0.54365 0.0
C1223 C 0.6235 0.96798 0.57007 0.0
C1224 C 0.6119 0.95415 0.54962 0.0
N1225 N 0.61917 0.99421 0.56652 0.0
N1226 N 0.60012 0.97167 0.53317 0.0
H1227 H 0.5985 1.01424 0.53477 0.0
H1228 H 0.63474 0.9592 0.58609 0.0
C1229 C 0.65381 0.99255 0.63773 0.0
O1230 O 0.67383 1.0089 0.64117 0.0
N1231 N 0.64557 0.05108 0.61181 0.0
C1232 C 0.66078 0.07176 0.60418 0.0
C1233 C 0.66236 0.08971 0.62462 0.0
C1234 C 0.63767 0.05719 0.63686 0.0
N1235 N 0.64808 0.08053 0.64534 0.0
C1236 C 0.67459 0.03458 0.55278 0.0
C1237 C 0.70747 0.99235 0.56441 0.0
C1238 C 0.71567 1.01062 0.54488 0.0
C1239 C 0.69863 0.0319 0.53923 0.0
C1240 C 0.68346 0.99623 0.57814 0.0
N1241 N 0.66753 0.0176 0.57278 0.0
H1242 H 0.66168 0.05066 0.54704 0.0
H1243 H 0.67752 0.98136 0.5923 0.0
H1244 H 0.66898 0.07481 0.58467 0.0
H1245 H 0.6241 0.04511 0.64835 0.0
O1246 O 0.61787 0.04919 0.56507 0.0
O1247 O 0.59662 0.03183 0.59939 0.0
O1248 O 0.63798 0.99555 0.61816 0.0
C1249 C 0.59639 0.04817 0.5794 0.0
H1250 H 0.61265 0.93286 0.54678 0.0
H1251 H 0.67204 0.10886 0.6236 0.0
H1252 H 0.71905 0.97476 0.56866 0.0
H1253 H 0.70374 0.04657 0.52435 0.0
Co1254 Co 0.26653 0.14923 0.68861 0.0
C1255 C 0.24367 0.17572 0.73665 0.0
C1256 C 0.21347 0.16011 0.711 0.0
C1257 C 0.20138 0.17204 0.73233 0.0
N1258 N 0.24006 0.16244 0.71353 0.0
N1259 N 0.22032 0.18185 0.74844 0.0
H1260 H 0.26285 0.18141 0.7444 0.0
H1261 H 0.20319 0.1504 0.69488 0.0
C1262 C 0.23359 0.12791 0.64244 0.0
O1263 O 0.2495 0.10782 0.63764 0.0
N1264 N 0.29283 0.13594 0.66318 0.0
C1265 C 0.30387 0.11147 0.66201 0.0
C1266 C 0.32201 0.11073 0.64163 0.0
C1267 C 0.30429 0.14953 0.64291 0.0
N1268 N 0.32226 0.1346 0.62962 0.0
C1269 C 0.28315 0.10638 0.72207 0.0
C1270 C 0.23848 0.07505 0.71648 0.0
C1271 C 0.25925 0.06593 0.73273 0.0
C1272 C 0.28172 0.08213 0.73552 0.0
C1273 C 0.24089 0.09928 0.70299 0.0
N1274 N 0.26329 0.11439 0.70539 0.0
H1275 H 0.30071 0.11841 0.72448 0.0
H1276 H 0.22435 0.106 0.6912 0.0
H1277 H 0.29898 0.09478 0.67448 0.0
H1278 H 0.3 0.17004 0.63818 0.0
O1279 O 0.29502 0.16445 0.70997 0.0
O1280 O 0.27362 0.18501 0.67762 0.0
O1281 O 0.23744 0.1432 0.6622 0.0
C1282 C 0.29165 0.186 0.696 0.0
H1283 H 0.1802 0.17332 0.73579 0.0
H1284 H 0.33389 0.09377 0.6358 0.0
H1285 H 0.22022 0.06388 0.71459 0.0
H1286 H 0.29827 0.07603 0.74782 0.0
Co1287 Co 0.3952 0.5109 0.58719 0.0
C1288 C 0.42626 0.53668 0.54358 0.0
C1289 C 0.39571 0.56188 0.5593 0.0
C1290 C 0.40709 0.57444 0.53783 0.0
N1291 N 0.4076 0.53812 0.56287 0.0
N1292 N 0.42631 0.55859 0.52815 0.0
H1293 H 0.43871 0.51963 0.53988 0.0
H1294 H 0.37903 0.5691 0.57076 0.0
C1295 C 0.37712 0.54176 0.63675 0.0
O1296 O 0.36148 0.52273 0.64528 0.0
N1297 N 0.38252 0.48347 0.611 0.0
C1298 C 0.36533 0.464 0.60444 0.0
C1299 C 0.36499 0.44538 0.62446 0.0
C1300 C 0.39273 0.47622 0.6348 0.0
N1301 N 0.38218 0.45314 0.64338 0.0
C1302 C 0.35787 0.50325 0.5454 0.0
C1303 C 0.31417 0.52668 0.5689 0.0
C1304 C 0.31148 0.51531 0.54362 0.0
C1305 C 0.33369 0.50358 0.53184 0.0
C1306 C 0.3387 0.5255 0.58208 0.0
N1307 N 0.3602 0.51362 0.57042 0.0
H1308 H 0.37483 0.49455 0.53561 0.0
H1309 H 0.34008 0.53423 0.60146 0.0
H1310 H 0.35461 0.46273 0.58588 0.0
H1311 H 0.40804 0.48714 0.64521 0.0
O1312 O 0.41052 0.48309 0.56512 0.0
O1313 O 0.43119 0.50328 0.59825 0.0
O1314 O 0.38858 0.54018 0.61408 0.0
C1315 C 0.4318 0.48544 0.57958 0.0
H1316 H 0.40136 0.59346 0.52959 0.0
H1317 H 0.35331 0.42734 0.625 0.0
H1318 H 0.29735 0.53603 0.57853 0.0
H1319 H 0.3324 0.49485 0.51219 0.0
Co1320 Co 0.83844 0.76466 0.64984 0.0
C1321 C 0.78966 0.79259 0.66886 0.0
C1322 C 0.82587 0.80972 0.6834 0.0
C1323 C 0.80498 0.82281 0.69492 0.0
N1324 N 0.81638 0.79095 0.66693 0.0
N1325 N 0.78216 0.81228 0.68566 0.0
H1326 H 0.77609 0.77918 0.65897 0.0
H1327 H 0.84661 0.81254 0.68806 0.0
C1328 C 0.8843 0.79675 0.62616 0.0
O1329 O 0.88979 0.77832 0.60853 0.0
N1330 N 0.86131 0.73798 0.63352 0.0
C1331 C 0.85563 0.72163 0.61304 0.0
C1332 C 0.87584 0.70354 0.61015 0.0
C1333 C 0.88504 0.72931 0.64285 0.0
N1334 N 0.89448 0.70842 0.62875 0.0
C1335 C 0.79793 0.75177 0.61179 0.0
C1336 C 0.80875 0.79099 0.57498 0.0
C1337 C 0.78913 0.77213 0.56902 0.0
C1338 C 0.78359 0.75259 0.588 0.0
C1339 C 0.82293 0.7893 0.59899 0.0
N1340 N 0.81818 0.7692 0.6167 0.0
H1341 H 0.79332 0.73623 0.62579 0.0
H1342 H 0.83757 0.80431 0.60301 0.0
H1343 H 0.83774 0.72181 0.60136 0.0
H1344 H 0.89502 0.73789 0.65985 0.0
O1345 O 0.81784 0.73649 0.66636 0.0
O1346 O 0.85288 0.7559 0.68432 0.0
O1347 O 0.86432 0.7942 0.64158 0.0
C1348 C 0.83381 0.7387 0.68654 0.0
H1349 H 0.80659 0.83775 0.7103 0.0
H1350 H 0.87603 0.68719 0.59619 0.0
H1351 H 0.81351 0.80661 0.56096 0.0
H1352 H 0.7683 0.73788 0.58443 0.0
Co1353 Co 0.83872 0.26624 0.88608 0.0
C1354 C 0.79136 0.24088 0.86143 0.0
C1355 C 0.82371 0.2135 0.86574 0.0
C1356 C 0.80305 0.20058 0.85359 0.0
N1357 N 0.81645 0.23876 0.87079 0.0
N1358 N 0.78287 0.21789 0.85041 0.0
H1359 H 0.7799 0.25907 0.86173 0.0
H1360 H 0.84292 0.20498 0.86978 0.0
C1361 C 0.88927 0.23775 0.88905 0.0
O1362 O 0.89812 0.25751 0.87451 0.0
N1363 N 0.86142 0.29346 0.90177 0.0
C1364 C 0.86792 0.29471 0.92778 0.0
C1365 C 0.88787 0.31291 0.93116 0.0
C1366 C 0.87783 0.31111 0.88967 0.0
N1367 N 0.89421 0.32313 0.90725 0.0
C1368 C 0.80351 0.28441 0.92652 0.0
C1369 C 0.80568 0.24015 0.95898 0.0
C1370 C 0.79039 0.26206 0.96716 0.0
C1371 C 0.78889 0.28404 0.95008 0.0
C1372 C 0.81961 0.24107 0.93479 0.0
N1373 N 0.81892 0.26334 0.91926 0.0
H1374 H 0.80269 0.30196 0.91422 0.0
H1375 H 0.83104 0.22396 0.92876 0.0
H1376 H 0.86006 0.28199 0.94318 0.0
H1377 H 0.8794 0.31359 0.86836 0.0
O1378 O 0.81737 0.29318 0.86888 0.0
O1379 O 0.85238 0.27387 0.8508 0.0
O1380 O 0.86529 0.23833 0.89735 0.0
C1381 C 0.83287 0.29066 0.8484 0.0
H1382 H 0.80307 0.18001 0.84735 0.0
H1383 H 0.89805 0.31723 0.94963 0.0
H1384 H 0.80721 0.22259 0.97132 0.0
H1385 H 0.77649 0.30096 0.95479 0.0
Co1386 Co 0.51697 0.94026 0.40019 0.0
C1387 C 0.48953 0.98925 0.41854 0.0
C1388 C 0.4685 0.95368 0.4291 0.0
C1389 C 0.45527 0.97505 0.43972 0.0
N1390 N 0.48987 0.96257 0.41573 0.0
N1391 N 0.46837 0.99744 0.43299 0.0
H1392 H 0.50479 1.00227 0.41082 0.0
H1393 H 0.46353 0.933 0.43205 0.0
C1394 C 0.4811 0.8992 0.37282 0.0
O1395 O 0.49106 0.90322 0.34906 0.0
N1396 N 0.54414 0.91685 0.38502 0.0
C1397 C 0.54821 0.91098 0.35909 0.0
C1398 C 0.56745 0.89171 0.35707 0.0
C1399 C 0.5613 0.90087 0.39833 0.0
N1400 N 0.57555 0.88535 0.38173 0.0
C1401 C 0.53382 0.97113 0.35566 0.0
C1402 C 0.48487 0.97563 0.33119 0.0
C1403 C 0.50708 0.98734 0.31902 0.0
C1404 C 0.53172 0.98523 0.33183 0.0
C1405 C 0.48788 0.96157 0.35506 0.0
N1406 N 0.51232 0.95864 0.36644 0.0
H1407 H 0.55296 0.96966 0.36528 0.0
H1408 H 0.47052 0.95322 0.36453 0.0
H1409 H 0.53773 0.91959 0.34248 0.0
H1410 H 0.56294 0.89982 0.41974 0.0
O1411 O 0.54413 0.96281 0.41566 0.0
O1412 O 0.52559 0.92812 0.43534 0.0
O1413 O 0.48905 0.91263 0.3928 0.0
C1414 C 0.54208 0.94793 0.43678 0.0
H1415 H 0.4382 0.97398 0.45275 0.0
H1416 H 0.57492 0.88299 0.33886 0.0
H1417 H 0.46528 0.97763 0.32258 0.0
H1418 H 0.54936 0.99413 0.32333 0.0
Co1419 Co 0.18828 0.26577 0.8807 0.0
C1420 C 0.23466 0.29394 0.85668 0.0
C1421 C 0.19977 0.31805 0.8559 0.0
C1422 C 0.21959 0.33115 0.84249 0.0
N1423 N 0.2093 0.29497 0.86576 0.0
N1424 N 0.24148 0.31581 0.84268 0.0
H1425 H 0.24734 0.27669 0.8582 0.0
H1426 H 0.17932 0.32437 0.85641 0.0
C1427 C 0.15864 0.31323 0.90212 0.0
O1428 O 0.18091 0.32165 0.91275 0.0
N1429 N 0.16714 0.23644 0.89396 0.0
C1430 C 0.17611 0.21561 0.90813 0.0
C1431 C 0.1563 0.19682 0.90962 0.0
C1432 C 0.14212 0.22991 0.88671 0.0
N1433 N 0.13496 0.20565 0.89597 0.0
C1434 C 0.23186 0.26873 0.91756 0.0
C1435 C 0.20205 0.27181 0.96359 0.0
C1436 C 0.22981 0.27194 0.96545 0.0
C1437 C 0.24472 0.27036 0.94209 0.0
C1438 C 0.1899 0.27071 0.93848 0.0
N1439 N 0.20483 0.26978 0.91573 0.0
H1440 H 0.24381 0.26568 0.90017 0.0
H1441 H 0.16848 0.27016 0.93731 0.0
H1442 H 0.19607 0.21369 0.91581 0.0
H1443 H 0.12976 0.24246 0.8744 0.0
O1444 O 0.21274 0.24043 0.86546 0.0
O1445 O 0.1774 0.25694 0.84505 0.0
O1446 O 0.15827 0.29106 0.88964 0.0
C1447 C 0.19806 0.24139 0.84419 0.0
H1448 H 0.21763 0.35013 0.8326 0.0
H1449 H 0.15796 0.17754 0.919 0.0
H1450 H 0.1899 0.27245 0.98135 0.0
H1451 H 0.2662 0.26955 0.94286 0.0
Co1452 Co 1.01288 0.08956 0.89782 0.0
C1453 C 0.04123 0.04096 0.91604 0.0
C1454 C 0.06331 0.07648 0.92397 0.0
C1455 C 0.07687 0.05531 0.93456 0.0
N1456 N 0.04104 0.06754 0.91215 0.0
N1457 N 0.06309 0.03292 0.92947 0.0
H1458 H 0.02529 0.02787 0.91011 0.0
H1459 H 0.06872 0.0971 0.92616 0.0
C1460 C 0.04122 0.14049 0.87879 0.0
O1461 O 0.02193 0.14732 0.86263 0.0
N1462 N 0.9843 0.1115 0.88426 0.0
C1463 C 0.9649 0.10365 0.86752 0.0
C1464 C 0.94532 0.12278 0.86708 0.0
C1465 C 0.97604 0.13515 0.89405 0.0
N1466 N 0.95241 0.14245 0.88375 0.0
C1467 C 1.00637 0.04825 0.85908 0.0
C1468 C 0.03294 0.07162 0.81719 0.0
C1469 C 0.02108 0.04671 0.81321 0.0
C1470 C 1.00796 0.03496 0.83471 0.0
C1471 C 0.03119 0.08417 0.84211 0.0
N1472 N 0.01766 0.0727 0.86275 0.0
H1473 H 0.99562 0.03871 0.87492 0.0
H1474 H 0.04086 0.10299 0.84435 0.0
H1475 H 0.96433 0.0848 0.85727 0.0
H1476 H 0.98664 0.14632 0.90907 0.0
O1477 O 0.98655 0.0656 0.91263 0.0
O1478 O 1.0035 0.10017 0.93371 0.0
O1479 O 0.04044 0.11837 0.89135 0.0
C1480 C 0.98755 0.07986 0.93412 0.0
H1481 H 0.09463 0.05661 0.94658 0.0
H1482 H 0.92708 0.12216 0.85571 0.0
H1483 H 0.04371 0.08123 0.80123 0.0
H1484 H 0.99846 0.01578 0.83257 0.0
Co1485 Co 0.68486 0.26562 0.15052 0.0
C1486 C 0.73366 0.23791 0.1695 0.0
C1487 C 0.69825 0.21545 0.17674 0.0
C1488 C 0.71936 0.20208 0.1877 0.0
N1489 N 0.70718 0.2378 0.16506 0.0
N1490 N 0.74171 0.21609 0.183 0.0
H1491 H 0.74666 0.25403 0.16402 0.0
H1492 H 0.67762 0.20994 0.17862 0.0
C1493 C 0.63526 0.23479 0.14909 0.0
O1494 O 0.62649 0.25178 0.16679 0.0
N1495 N 0.66201 0.2937 0.13647 0.0
C1496 C 0.66452 0.30722 0.1134 0.0
C1497 C 0.64487 0.32621 0.11198 0.0
C1498 C 0.64111 0.30526 0.14891 0.0
N1499 N 0.63006 0.3248 0.13424 0.0
C1500 C 0.72835 0.2742 0.11484 0.0
C1501 C 0.70679 0.25039 0.07032 0.0
C1502 C 0.73211 0.2619 0.06835 0.0
C1503 C 0.74301 0.27333 0.0913 0.0
C1504 C 0.69296 0.25105 0.09457 0.0
N1505 N 0.70372 0.26302 0.11652 0.0
H1506 H 0.73698 0.28412 0.13173 0.0
H1507 H 0.67326 0.24272 0.09512 0.0
H1508 H 0.6798 0.30418 0.09867 0.0
H1509 H 0.63468 0.30036 0.1688 0.0
O1510 O 0.70632 0.29248 0.1678 0.0
O1511 O 0.67195 0.27233 0.18621 0.0
O1512 O 0.65852 0.23757 0.1394 0.0
C1513 C 0.69103 0.28953 0.1884 0.0
H1514 H 0.718 0.18431 0.1997 0.0
H1515 H 0.64176 0.34007 0.09581 0.0
H1516 H 0.69743 0.24148 0.05312 0.0
H1517 H 0.76281 0.28167 0.09122 0.0
Co1518 Co 0.51306 0.08627 0.13333 0.0
C1519 C 0.48794 0.04204 0.10325 0.0
C1520 C 0.46011 0.06192 0.12864 0.0
C1521 C 0.44758 0.04057 0.11698 0.0
N1522 N 0.48543 0.06294 0.11993 0.0
N1523 N 0.46523 0.02798 0.10128 0.0
H1524 H 0.50605 0.0368 0.09303 0.0
H1525 H 0.4516 0.07501 0.1434 0.0
C1526 C 0.48375 0.13686 0.15065 0.0
O1527 O 0.50458 0.14625 0.16313 0.0
N1528 N 0.54126 0.10883 0.1467 0.0
C1529 C 0.55983 0.10131 0.16452 0.0
C1530 C 0.57963 0.12009 0.16518 0.0
C1531 C 0.55046 0.13181 0.13622 0.0
N1532 N 0.57367 0.13915 0.1474 0.0
C1533 C 0.51394 0.04296 0.1697 0.0
C1534 C 0.50007 0.07063 0.21511 0.0
C1535 C 0.50496 0.04324 0.21706 0.0
C1536 C 0.51209 0.02946 0.1939 0.0
C1537 C 0.50215 0.08342 0.19044 0.0
N1538 N 0.50901 0.06958 0.16811 0.0
H1539 H 0.51955 0.032 0.1521 0.0
H1540 H 0.49872 0.10445 0.18962 0.0
H1541 H 0.55964 0.08287 0.17553 0.0
H1542 H 0.54067 0.14265 0.12042 0.0
O1543 O 0.5404 0.06355 0.11853 0.0
O1544 O 0.52148 0.09731 0.09755 0.0
O1545 O 0.48428 0.11362 0.14035 0.0
C1546 C 0.53873 0.07808 0.09713 0.0
H1547 H 0.42741 0.03412 0.12065 0.0
H1548 H 0.59713 0.11978 0.17768 0.0
H1549 H 0.49466 0.08209 0.23252 0.0
H1550 H 0.51676 1.00847 0.19452 0.0
Co1551 Co 0.50917 0.44002 0.13152 0.0
C1552 C 0.53672 0.48835 0.11305 0.0
C1553 C 0.55696 0.45269 0.10125 0.0
C1554 C 0.56952 0.47401 0.08975 0.0
N1555 N 0.53649 0.46172 0.11589 0.0
N1556 N 0.55668 0.49642 0.09697 0.0
H1557 H 0.52211 0.50132 0.12194 0.0
H1558 H 0.56149 0.43198 0.09784 0.0
C1559 C 0.53871 0.39192 0.15402 0.0
O1560 O 0.51931 0.38577 0.17031 0.0
N1561 N 0.48117 0.41809 0.14644 0.0
C1562 C 0.46203 0.42588 0.16357 0.0
C1563 C 0.44273 0.4066 0.16472 0.0
C1564 C 0.473 0.39417 0.13725 0.0
N1565 N 0.44963 0.38683 0.14811 0.0
C1566 C 0.49814 0.48072 0.16997 0.0
C1567 C 0.53622 0.46701 0.20698 0.0
C1568 C 0.51976 0.48886 0.21222 0.0
C1569 C 0.50056 0.49563 0.19328 0.0
C1570 C 0.5332 0.45259 0.18331 0.0
N1571 N 0.51385 0.45904 0.16531 0.0
H1572 H 0.48313 0.48651 0.15584 0.0
H1573 H 0.5469 0.43664 0.17967 0.0
H1574 H 0.46118 0.44471 0.17369 0.0
H1575 H 0.48338 0.38289 0.12215 0.0
O1576 O 0.48216 0.46215 0.11508 0.0
O1577 O 0.50067 0.4269 0.09648 0.0
O1578 O 0.53746 0.41283 0.13972 0.0
C1579 C 0.48411 0.44659 0.09454 0.0
H1580 H 0.58591 0.47294 0.07586 0.0
H1581 H 0.42475 0.40722 0.17652 0.0
H1582 H 0.55159 0.46131 0.22092 0.0
H1583 H 0.48711 0.5121 0.19661 0.0
C1584 C 0.1932 0.20471 0.3202 0.0
C1585 C 0.22104 0.20535 0.32176 0.0
C1586 C 0.1786 0.22804 0.31548 0.0
C1587 C 0.19147 0.25247 0.31131 0.0
H1588 H 0.18265 0.18622 0.32332 0.0
H1589 H 0.15713 0.22705 0.31497 0.0
S1590 S 0.26394 0.26434 0.31197 0.0
N1591 N 0.26091 0.23229 0.31839 0.0
N1592 N 0.23342 0.2758 0.30822 0.0
C1593 C 0.21926 0.25319 0.31207 0.0
C1594 C 0.23408 0.22968 0.31766 0.0
C1595 C 0.46402 0.57241 0.97513 0.0
C1596 C 0.46179 0.55577 0.95272 0.0
C1597 C 0.48766 0.58612 0.98066 0.0
C1598 C 0.50992 0.58387 0.96389 0.0
H1599 H 0.44737 0.57494 0.98853 0.0
H1600 H 0.48839 0.59894 0.99793 0.0
S1601 S 0.51515 0.54162 0.90366 0.0
N1602 N 0.48446 0.53712 0.91421 0.0
N1603 N 0.52876 0.56263 0.92484 0.0
C1604 C 0.50812 0.56701 0.94169 0.0
C1605 C 0.48412 0.55303 0.93606 0.0
C1606 C 0.83051 0.28969 0.2971 0.0
C1607 C 0.82888 0.26762 0.31416 0.0
C1608 C 0.8166 0.31322 0.30267 0.0
C1609 C 0.80041 0.31545 0.32541 0.0
H1610 H 0.8431 0.28894 0.27966 0.0
H1611 H 0.81872 0.3298 0.28913 0.0
S1612 S 0.78776 0.26232 0.37511 0.0
N1613 N 0.80858 0.2488 0.35368 0.0
N1614 N 0.78265 0.29288 0.36439 0.0
C1615 C 0.79817 0.29323 0.34227 0.0
C1616 C 0.81235 0.26936 0.33659 0.0
C1617 C 0.52882 0.95613 0.94038 0.0
C1618 C 0.52424 0.94294 0.9646 0.0
C1619 C 0.5524 0.97013 0.9358 0.0
C1620 C 0.5725 0.97129 0.95518 0.0
H1621 H 0.51387 0.9559 0.92492 0.0
H1622 H 0.55489 0.98006 0.91685 0.0
S1623 S 0.57063 0.93969 0.02186 0.0
N1624 N 0.54206 0.93146 1.00806 0.0
N1625 N 0.5863 0.958 0.9996 0.0
C1626 C 0.5683 0.95806 0.97947 0.0
C1627 C 0.54418 0.94389 0.98418 0.0
C1628 C 0.20464 0.78529 0.23097 0.0
C1629 C 0.19362 0.76997 0.21024 0.0
C1630 C 0.2178 0.80932 0.22576 0.0
C1631 C 0.22083 0.81866 0.19962 0.0
H1632 H 0.2038 0.77837 0.25132 0.0
H1633 H 0.22649 0.82015 0.24222 0.0
S1634 S 0.19299 0.78828 0.13864 0.0
N1635 N 0.18424 0.76783 0.16277 0.0
N1636 N 0.21021 0.81216 0.15305 0.0
C1637 C 0.20939 0.80408 0.17882 0.0
C1638 C 0.19549 0.77995 0.18411 0.0
C1639 C 0.06858 0.57425 0.05834 0.0
C1640 C 0.07028 0.55562 0.07921 0.0
C1641 C 0.04495 0.58814 0.05318 0.0
C1642 C 0.02214 0.58404 0.06874 0.0
H1643 H 0.08564 0.57818 0.04583 0.0
H1644 H 0.04464 0.60251 0.03716 0.0
S1645 S 0.01544 0.5362 0.12454 0.0
N1646 N 0.0466 0.53317 0.11488 0.0
N1647 N 1.00225 0.55889 0.10488 0.0
C1648 C 0.02342 0.56518 0.08938 0.0
C1649 C 0.04746 0.55109 0.09468 0.0
C1650 C 0.81451 0.71631 0.23066 0.0
C1651 C 0.8077 0.70825 0.20481 0.0
C1652 C 0.82693 0.74082 0.23516 0.0
C1653 C 0.83323 0.75801 0.21395 0.0
H1654 H 0.80945 0.70401 0.2476 0.0
H1655 H 0.83094 0.74663 0.25548 0.0
S1656 S 0.82259 0.74437 0.14228 0.0
N1657 N 0.80993 0.71827 0.15757 0.0
N1658 N 0.83386 0.76402 0.16602 0.0
C1659 C 0.82743 0.74964 0.18795 0.0
C1660 C 0.81456 0.72482 0.18339 0.0
C1661 C 1.00459 0.95263 0.0881 0.0
C1662 C 1.00973 0.94236 0.06256 0.0
C1663 C 0.98026 0.96452 0.09433 0.0
C1664 C 0.95986 0.96635 0.07539 0.0
H1665 H 0.01972 0.95191 0.10336 0.0
H1666 H 0.97761 0.97272 0.11408 0.0
S1667 S 0.96206 0.94089 1.00618 0.0
N1668 N 0.99166 0.93404 0.0184 0.0
N1669 N 0.94558 0.95545 0.03051 0.0
C1670 C 0.96409 0.95502 0.05017 0.0
C1671 C 0.98908 0.94322 0.04365 0.0
C1672 C 0.29664 0.19352 0.23586 0.0
C1673 C 0.31574 0.19169 0.25616 0.0
C1674 C 0.3016 0.20815 0.21267 0.0
C1675 C 0.32573 0.22176 0.20907 0.0
H1676 H 0.27789 0.18319 0.23774 0.0
H1677 H 0.28632 0.20889 0.19754 0.0
S1678 S 0.38182 0.22407 0.25691 0.0
N1679 N 0.35933 0.20526 0.2716 0.0
N1680 N 0.3688 0.23275 0.22807 0.0
C1681 C 0.3449 0.22031 0.22938 0.0
C1682 C 0.33988 0.20525 0.2529 0.0
C1683 C 0.46768 0.44745 0.02113 0.0
C1684 C 0.44406 0.46237 0.01982 0.0
C1685 C 0.48012 0.44214 0.04543 0.0
C1686 C 0.46969 0.45181 0.06947 0.0
H1687 H 0.47703 0.44016 1.00319 0.0
H1688 H 0.49842 0.43083 0.04526 0.0
S1689 S 0.40747 0.49036 0.07752 0.0
N1690 N 0.40987 0.48537 0.04515 0.0
N1691 N 0.4339 0.47617 0.0908 0.0
C1692 C 0.44604 0.4666 0.06865 0.0
C1693 C 0.43309 0.4717 0.04385 0.0
C1694 C 0.69107 0.30723 0.26167 0.0
C1695 C 0.70505 0.33143 0.26242 0.0
C1696 C 0.68624 0.29408 0.23758 0.0
C1697 C 0.69545 0.30446 0.21332 0.0
H1698 H 0.68432 0.29799 0.27988 0.0
H1699 H 0.67575 0.27531 0.23807 0.0
S1700 S 0.73066 0.36846 0.20395 0.0
N1701 N 0.72604 0.36632 0.23638 0.0
N1702 N 0.71775 0.34113 0.19123 0.0
C1703 C 0.70896 0.32887 0.21364 0.0
C1704 C 0.71357 0.34246 0.23814 0.0
C1705 C 0.57202 0.08755 0.03007 0.0
C1706 C 0.58488 0.06315 0.02571 0.0
C1707 C 0.55716 0.09213 0.0532 0.0
C1708 C 0.55484 0.07258 0.07307 0.0
H1709 H 0.57319 0.10314 0.01529 0.0
H1710 H 0.54753 0.11123 0.05555 0.0
S1711 S 0.58518 1.00538 0.07161 0.0
N1712 N 0.59477 0.0193 0.04348 0.0
N1713 N 0.56671 0.02781 0.08686 0.0
C1714 C 0.56773 0.0481 0.06907 0.0
C1715 C 0.58274 0.04338 0.04541 0.0
C1716 C 0.34611 0.81353 0.3026 0.0
C1717 C 0.32585 0.80838 0.32106 0.0
C1718 C 0.34066 0.82623 0.27842 0.0
C1719 C 0.31465 0.83385 0.27144 0.0
H1720 H 0.36634 0.8075 0.30675 0.0
H1721 H 0.35697 0.82969 0.26483 0.0
S1722 S 0.25443 0.82461 0.3131 0.0
N1723 N 0.27887 0.81258 0.33133 0.0
N1724 N 0.26835 0.83508 0.2853 0.0
C1725 C 0.29424 0.82926 0.29005 0.0
C1726 C 0.29993 0.81683 0.31498 0.0
C1727 C 0.04549 0.44528 0.98216 0.0
C1728 C 0.0537 0.45649 0.95792 0.0
C1729 C 0.05935 0.4501 1.00578 0.0
C1730 C 0.08222 0.46617 1.00626 0.0
H1731 H 0.02801 0.43278 0.98302 0.0
H1732 H 0.05185 0.44129 0.02391 0.0
S1733 S 0.11274 0.49943 0.94794 0.0
N1734 N 0.08644 0.48418 0.93567 0.0
N1735 N 0.11289 0.49274 0.9801 0.0
C1736 C 0.09075 0.47751 0.98215 0.0
C1737 C 0.07644 0.47275 0.958 0.0
C1738 C 0.73132 0.69658 0.29207 0.0
C1739 C 0.71153 0.69351 0.27252 0.0
C1740 C 0.72629 0.71043 0.31581 0.0
C1741 C 0.70134 0.72199 0.3208 0.0
H1742 H 0.75076 0.68787 0.28918 0.0
H1743 H 0.74216 0.71229 0.33021 0.0
S1744 S 0.64294 0.72018 0.27572 0.0
N1745 N 0.66621 0.70365 0.25956 0.0
N1746 N 0.6566 0.72945 0.30407 0.0
C1747 C 0.68141 0.71915 0.30135 0.0
C1748 C 0.68652 0.70496 0.27728 0.0
C1749 C 0.95086 0.08674 0.99964 0.0
C1750 C 0.94504 0.06026 1.00673 0.0
C1751 C 0.96427 0.09292 0.976 0.0
C1752 C 0.97202 0.07293 0.95815 0.0
H1753 H 0.94533 0.10291 1.01271 0.0
H1754 H 0.96869 0.11355 0.97173 0.0
S1755 S 0.96181 1.00053 0.96672 0.0
N1756 N 0.94854 1.01383 0.99364 0.0
N1757 N 0.97278 0.02564 0.94874 0.0
C1758 C 0.96569 0.04646 0.96441 0.0
C1759 C 0.9524 0.04007 0.98876 0.0
C1760 C 0.23813 0.29469 0.19959 0.0
C1761 C 0.25495 0.31589 0.19242 0.0
C1762 C 0.21381 0.29924 0.2125 0.0
C1763 C 0.20566 0.32512 0.21909 0.0
H1764 H 0.24415 0.27436 0.19605 0.0
H1765 H 0.20184 0.28233 0.21827 0.0
S1766 S 0.24018 0.38764 0.20139 0.0
N1767 N 0.25984 0.36393 0.19008 0.0
N1768 N 0.21482 0.37229 0.21538 0.0
C1769 C 0.22167 0.34651 0.21118 0.0
C1770 C 0.24614 0.34195 0.19761 0.0
C1771 C 0.23048 0.68658 0.30681 0.0
C1772 C 0.20924 0.70474 0.30676 0.0
C1773 C 0.25377 0.69171 0.3211 0.0
C1774 C 0.25685 0.71529 0.33575 0.0
H1775 H 0.22914 0.66814 0.29578 0.0
H1776 H 0.26965 0.67723 0.32044 0.0
S1777 S 0.20702 0.76916 0.34268 0.0
N1778 N 0.19274 0.74727 0.32287 0.0
N1779 N 0.23645 0.7567 0.34997 0.0
C1780 C 0.23579 0.73365 0.33594 0.0
C1781 C 0.212 0.7284 0.32143 0.0
C1782 C 0.94394 0.5254 0.9656 0.0
C1783 C 0.96218 0.52466 0.94441 0.0
C1784 C 0.93967 0.54866 0.9803 0.0
C1785 C 0.9535 0.57221 0.97447 0.0
H1786 H 0.9331 0.5077 0.97119 0.0
H1787 H 0.92552 0.54805 0.99651 0.0
S1788 S 1.00245 0.5813 0.91997 0.0
N1789 N 0.99337 0.54988 0.91758 0.0
N1790 N 0.98573 0.59356 0.94542 0.0
C1791 C 0.9717 0.57186 0.95319 0.0
C1792 C 0.97597 0.54811 0.93814 0.0
C1793 C 0.80206 0.84417 0.31495 0.0
C1794 C 0.81894 0.82302 0.30798 0.0
C1795 C 0.77777 0.83956 0.32773 0.0
C1796 C 0.76938 0.81364 0.33388 0.0
H1797 H 0.80766 0.86447 0.31051 0.0
H1798 H 0.76538 0.85639 0.33283 0.0
S1799 S 0.80525 0.75128 0.31753 0.0
N1800 N 0.82515 0.77516 0.30708 0.0
N1801 N 0.77916 0.76642 0.3304 0.0
C1802 C 0.78597 0.79228 0.32676 0.0
C1803 C 0.81084 0.797 0.31398 0.0
C1804 C 0.54949 0.48578 0.44625 0.0
C1805 C 0.56699 0.50751 0.44654 0.0
C1806 C 0.55504 0.46262 0.46079 0.0
C1807 C 0.57819 0.46043 0.47638 0.0
H1808 H 0.53166 0.48649 0.43425 0.0
H1809 H 0.54104 0.44633 0.45976 0.0
S1810 S 0.62933 0.51274 0.48544 0.0
N1811 N 0.60756 0.52606 0.46485 0.0
N1812 N 0.61814 0.48264 0.49203 0.0
C1813 C 0.59553 0.48231 0.47728 0.0
C1814 C 0.58991 0.50581 0.4624 0.0
C1815 C 0.27736 0.68637 0.70295 0.0
C1816 C 0.27178 0.71145 0.692 0.0
C1817 C 0.30096 0.6817 0.71695 0.0
C1818 C 0.32005 0.70183 0.72013 0.0
H1819 H 0.2632 0.67033 0.70086 0.0
H1820 H 0.30434 0.66209 0.72516 0.0
S1821 S 0.3152 0.77091 0.69474 0.0
N1822 N 0.28747 0.75655 0.68482 0.0
N1823 N 0.33175 0.74788 0.71122 0.0
C1824 C 0.31478 0.72699 0.70914 0.0
C1825 C 0.29065 0.73179 0.69509 0.0
C1826 C 0.97945 0.48862 0.57863 0.0
C1827 C 0.95846 0.506 0.58509 0.0
C1828 C 0.97464 0.46421 0.56589 0.0
C1829 C 0.94874 0.45656 0.55884 0.0
H1830 H 0.9998 0.49434 0.58249 0.0
H1831 H 0.9914 0.45182 0.56053 0.0
S1832 S 0.88667 0.49279 0.57498 0.0
N1833 N 0.91058 0.51198 0.58656 0.0
N1834 N 0.90173 0.46694 0.56155 0.0
C1835 C 0.92756 0.47315 0.56622 0.0
C1836 C 0.93237 0.49765 0.57961 0.0
C1837 C 0.04727 0.03847 0.57949 0.0
C1838 C 0.06843 0.02216 0.58781 0.0
C1839 C 0.05195 0.06241 0.56591 0.0
C1840 C 0.07793 0.0707 0.55991 0.0
H1841 H 0.02695 0.03224 0.58257 0.0
H1842 H 0.0351 0.07398 0.55919 0.0
S1843 S 0.14019 0.03741 0.58069 0.0
N1844 N 0.11636 0.01781 0.59179 0.0
N1845 N 0.12505 0.06221 0.56549 0.0
C1846 C 0.09923 0.05521 0.56904 0.0
C1847 C 0.09451 0.0311 0.58319 0.0
C1848 C 0.71086 0.7192 0.80441 0.0
C1849 C 0.72361 0.71608 0.82916 0.0
C1850 C 0.69655 0.74235 0.7983 0.0
C1851 C 0.69417 0.76312 0.81683 0.0
H1852 H 0.71192 0.70364 0.78956 0.0
H1853 H 0.68675 0.74375 0.7792 0.0
S1854 S 0.72467 0.76556 0.8839 0.0
N1855 N 0.73352 0.73631 0.87197 0.0
N1856 N 0.70664 0.77968 0.86042 0.0
C1857 C 0.70708 0.76046 0.84147 0.0
C1858 C 0.72181 0.737 0.84764 0.0
C1859 C 0.96686 0.06562 0.47879 0.0
C1860 C 0.95942 0.05865 0.45278 0.0
C1861 C 0.9911 0.07843 0.48379 0.0
C1862 C 1.00854 0.08503 0.46288 0.0
H1863 H 0.9544 0.06017 0.49549 0.0
H1864 H 0.99661 0.08229 0.50422 0.0
S1865 S 0.99602 0.0748 0.3909 0.0
N1866 N 0.97004 0.06141 0.40575 0.0
N1867 N 0.01498 0.08642 0.41499 0.0
C1868 C 1.00049 0.07949 0.43669 0.0
C1869 C 0.97608 0.06608 0.43167 0.0
C1870 C 0.31718 0.81409 0.79672 0.0
C1871 C 0.31164 0.82263 0.82277 0.0
C1872 C 0.33021 0.78983 0.79204 0.0
C1873 C 0.33844 0.77352 0.81327 0.0
H1874 H 0.31035 0.8256 0.77985 0.0
H1875 H 0.33283 0.78331 0.77169 0.0
S1876 S 0.33295 0.78969 0.88511 0.0
N1877 N 0.31792 0.81458 0.86994 0.0
N1878 N 0.34329 0.76965 0.86125 0.0
C1879 C 0.33456 0.78287 0.83937 0.0
C1880 C 0.32094 0.80725 0.84409 0.0
C1881 C 0.04078 0.44174 0.48008 0.0
C1882 C 0.01841 0.44425 0.46355 0.0
C1883 C 0.06457 0.45507 0.47417 0.0
C1884 C 0.0668 0.47155 0.45162 0.0
H1885 H 0.04002 0.42896 0.49738 0.0
H1886 H 0.08131 0.45243 0.48743 0.0
S1887 S 1.01313 0.48623 0.40315 0.0
N1888 N 0.99945 0.46557 0.42462 0.0
N1889 N 0.044 0.49033 0.41329 0.0
C1890 C 0.04434 0.47457 0.43524 0.0
C1891 C 0.02021 0.461 0.44126 0.0
C1892 C 0.723 0.30197 0.69148 0.0
C1893 C 0.72165 0.32346 0.70936 0.0
C1894 C 0.70903 0.27834 0.69618 0.0
C1895 C 0.69337 0.2751 0.71908 0.0
H1896 H 0.73494 0.30334 0.67362 0.0
H1897 H 0.71078 0.2623 0.68194 0.0
S1898 S 0.68228 0.3255 0.77177 0.0
N1899 N 0.70279 0.34006 0.75072 0.0
N1900 N 0.67649 0.29568 0.7594 0.0
C1901 C 0.69166 0.29643 0.73708 0.0
C1902 C 0.70576 0.3206 0.73223 0.0
C1903 C 0.55435 0.07028 0.59324 0.0
C1904 C 0.57233 0.06378 0.5729 0.0
C1905 C 0.53028 0.08303 0.58761 0.0
C1906 C 0.52291 0.08941 0.56136 0.0
H1907 H 0.55879 0.06527 0.61371 0.0
H1908 H 0.51708 0.08755 0.60399 0.0
S1909 S 0.563 0.07603 0.50078 0.0
N1910 N 0.58157 0.06505 0.52549 0.0
N1911 N 0.53574 0.08782 0.51469 0.0
C1912 C 0.54097 0.08338 0.54081 0.0
C1913 C 0.56581 0.07083 0.54664 0.0
C1914 C 0.34015 0.23557 0.72646 0.0
C1915 C 0.3345 0.25912 0.71249 0.0
C1916 C 0.32641 0.21187 0.72096 0.0
C1917 C 0.30645 0.21095 0.70136 0.0
H1918 H 0.35557 0.23539 0.74145 0.0
H1919 H 0.33149 0.19419 0.73212 0.0
S1920 S 0.28258 0.26795 0.66088 0.0
N1921 N 0.30634 0.28048 0.67961 0.0
N1922 N 0.281 0.23622 0.66883 0.0
C1923 C 0.30036 0.23456 0.6876 0.0
C1924 C 0.31424 0.25857 0.69328 0.0
C1925 C 0.49728 0.45025 0.59112 0.0
C1926 C 0.50563 0.44328 0.56529 0.0
C1927 C 0.47316 0.46342 0.59555 0.0
C1928 C 0.45608 0.46969 0.5744 0.0
H1929 H 0.50971 0.44584 0.60811 0.0
H1930 H 0.46791 0.46886 0.61573 0.0
S1931 S 0.46824 0.4563 0.50292 0.0
N1932 N 0.49476 0.44442 0.5181 0.0
N1933 N 0.44877 0.46779 0.5267 0.0
C1934 C 0.4636 0.46215 0.54856 0.0
C1935 C 0.48851 0.44926 0.54392 0.0
C1936 C 0.83234 0.72426 0.76032 0.0
C1937 C 0.81878 0.69985 0.76209 0.0
C1938 C 0.83762 0.73618 0.73575 0.0
C1939 C 0.8292 0.72447 0.71185 0.0
H1940 H 0.83849 0.7347 0.77807 0.0
H1941 H 0.84774 0.75516 0.73559 0.0
S1942 S 0.79481 0.65977 0.70489 0.0
N1943 N 0.79874 0.66347 0.73728 0.0
N1944 N 0.80769 0.68661 0.69111 0.0
C1945 C 0.81589 0.69999 0.71309 0.0
C1946 C 0.81091 0.68752 0.73818 0.0
C1947 C 0.96433 0.97606 0.56366 0.0
C1948 C 0.9764 0.95123 0.5682 0.0
C1949 C 0.9505 0.98129 0.54 0.0
C1950 C 0.94792 0.9618 0.52013 0.0
H1951 H 0.96564 0.99166 0.57844 0.0
H1952 H 0.94126 1.00055 0.53749 0.0
S1953 S 0.97627 0.89379 0.52191 0.0
N1954 N 0.98516 0.90708 0.55056 0.0
N1955 N 0.95921 0.91699 0.50619 0.0
C1956 C 0.96003 0.93697 0.52433 0.0
C1957 C 0.97428 0.93169 0.54831 0.0
C1958 C 0.18542 0.80494 0.72736 0.0
C1959 C 0.20354 0.80421 0.70609 0.0
C1960 C 0.19109 0.81907 0.75069 0.0
C1961 C 0.21521 0.83278 0.7538 0.0
H1962 H 0.16661 0.79461 0.72598 0.0
H1963 H 0.17657 0.81909 0.76656 0.0
S1964 S 0.26939 0.83733 0.70401 0.0
N1965 N 0.24672 0.81849 0.68967 0.0
N1966 N 0.25717 0.8452 0.73344 0.0
C1967 C 0.23356 0.83219 0.73273 0.0
C1968 C 0.22775 0.81792 0.70889 0.0
C1969 C 0.07003 0.58786 0.52585 0.0
C1970 C 0.08275 0.5633 0.52198 0.0
C1971 C 0.05566 0.59317 0.54913 0.0
C1972 C 0.05373 0.57424 0.56964 0.0
H1973 H 0.07094 0.60298 0.51057 0.0
H1974 H 0.04606 0.61234 0.55107 0.0
S1975 S 0.08431 0.50711 0.56969 0.0
N1976 N 0.09317 0.52011 0.54088 0.0
N1977 N 0.06608 0.52995 0.5846 0.0
C1978 C 0.06659 0.54965 0.56613 0.0
C1979 C 0.08108 0.54419 0.54231 0.0
C1980 C 0.79807 0.33355 0.7969 0.0
C1981 C 0.81683 0.33538 0.7763 0.0
C1982 C 0.80356 0.31917 0.82015 0.0
C1983 C 0.8279 0.30579 0.82358 0.0
H1984 H 0.77924 0.3438 0.79526 0.0
H1985 H 0.78851 0.31851 0.83553 0.0
S1986 S 0.88309 0.30323 0.77475 0.0
N1987 N 0.86027 0.3218 0.76027 0.0
N1988 N 0.87063 0.29475 0.80391 0.0
C1989 C 0.84664 0.30707 0.80288 0.0
C1990 C 0.84111 0.32189 0.77929 0.0
C1991 C 0.58747 0.98202 0.48677 0.0
C1992 C 0.58537 0.96566 0.50935 0.0
C1993 C 0.57367 0.97601 0.46324 0.0
C1994 C 0.55714 0.95352 0.46152 0.0
H1995 H 0.60015 0.99936 0.48718 0.0
H1996 H 0.57594 0.98916 0.44635 0.0
S1997 S 0.54358 0.90536 0.51585 0.0
N1998 N 0.56448 0.92688 0.529 0.0
N1999 N 0.5389 0.91531 0.48495 0.0
C2000 C 0.55467 0.93721 0.48415 0.0
C2001 C 0.56869 0.94334 0.50801 0.0
C2002 C 0.18839 0.22835 0.79732 0.0
C2003 C 0.20465 0.22602 0.81992 0.0
C2004 C 0.19386 0.21409 0.77408 0.0
C2005 C 0.21584 0.19691 0.7724 0.0
H2006 H 0.1712 0.24129 0.7975 0.0
H2007 H 0.18083 0.21667 0.75716 0.0
S2008 S 0.26444 0.18323 0.82606 0.0
N2009 N 0.24374 0.20503 0.8392 0.0
N2010 N 0.25373 0.17795 0.79549 0.0
C2011 C 0.23237 0.19441 0.79477 0.0
C2012 C 0.22682 0.20898 0.81853 0.0
C2013 C 0.42955 0.57097 0.48084 0.0
C2014 C 0.4419 0.56313 0.50467 0.0
C2015 C 0.44451 0.57574 0.45777 0.0
C2016 C 0.47229 0.57359 0.45815 0.0
H2017 H 0.40818 0.57316 0.48004 0.0
H2018 H 0.43437 0.58169 0.43972 0.0
S2019 S 0.51399 0.55355 0.51541 0.0
N2020 N 0.48331 0.55279 0.52704 0.0
N2021 N 0.51158 0.56298 0.48403 0.0
C2022 C 0.48486 0.56587 0.48182 0.0
C2023 C 0.46959 0.56028 0.50503 0.0
C2024 C 0.71227 0.80455 0.71122 0.0
C2025 C 0.70643 0.8303 0.7205 0.0
C2026 C 0.73663 0.79888 0.69877 0.0
C2027 C 0.75583 0.81883 0.69495 0.0
H2028 H 0.69843 0.78845 0.71459 0.0
H2029 H 0.7409 0.77856 0.69318 0.0
S2030 S 0.74826 0.89022 0.71174 0.0
N2031 N 0.72067 0.87633 0.72266 0.0
N2032 N 0.76579 0.86594 0.69839 0.0
C2033 C 0.7494 0.84494 0.70261 0.0
C2034 C 0.72489 0.8506 0.71562 0.0
C2035 C 0.73445 0.22488 0.84492 0.0
C2036 C 0.75835 0.21321 0.8363 0.0
C2037 C 0.71037 0.21993 0.83164 0.0
C2038 C 0.70936 0.20309 0.8093 0.0
H2039 H 0.73432 0.2376 0.86228 0.0
H2040 H 0.69243 0.22919 0.83907 0.0
S2041 S 0.76694 0.1701 0.77698 0.0
N2042 N 0.77979 0.18599 0.80261 0.0
N2043 N 0.73478 0.17616 0.77817 0.0
C2044 C 0.73325 0.19178 0.80018 0.0
C2045 C 0.75768 0.19697 0.81353 0.0
C2046 C 0.4833 0.04119 0.44988 0.0
C2047 C 0.4626 0.02386 0.44257 0.0
C2048 C 0.47793 0.06563 0.46228 0.0
C2049 C 0.45172 0.07341 0.46802 0.0
H2050 H 0.50379 0.03535 0.44702 0.0
H2051 H 0.49445 0.07797 0.46843 0.0
S2052 S 0.39044 0.03736 0.44916 0.0
N2053 N 0.41483 0.01793 0.43895 0.0
N2054 N 0.40487 0.06333 0.46302 0.0
C2055 C 0.43088 0.05692 0.45969 0.0
C2056 C 0.43629 0.03229 0.44676 0.0
C2057 C 0.3147 0.31614 0.82702 0.0
C2058 C 0.31581 0.32968 0.80256 0.0
C2059 C 0.29038 0.31169 0.83998 0.0
C2060 C 0.26625 0.32046 0.8289 0.0
H2061 H 0.33278 0.30922 0.8364 0.0
H2062 H 0.29049 0.30159 0.85898 0.0
S2063 S 0.25819 0.35416 0.76369 0.0
N2064 N 0.29056 0.35032 0.76696 0.0
N2065 N 0.24496 0.34134 0.79084 0.0
C2066 C 0.26708 0.3334 0.80409 0.0
C2067 C 0.29182 0.33815 0.79106 0.0
C2068 C 0.0482 0.9899 0.94818 0.0
C2069 C 0.06888 1.00673 0.9397 0.0
C2070 C 0.05363 0.96558 0.96076 0.0
C2071 C 0.0799 0.9574 0.96555 0.0
H2072 H 0.02771 0.996 0.94604 0.0
H2073 H 0.03715 0.95366 0.96776 0.0
S2074 S 0.14102 0.99204 0.94377 0.0
N2075 N 0.1166 1.01173 0.93417 0.0
N2076 N 0.12668 0.96657 0.95864 0.0
C2077 C 0.10069 0.9734 0.9562 0.0
C2078 C 0.09521 0.99792 0.94306 0.0
C2079 C 0.78497 0.2313 0.20098 0.0
C2080 C 0.76792 0.21047 0.1933 0.0
C2081 C 0.80949 0.22612 0.21327 0.0
C2082 C 0.81761 0.19996 0.21868 0.0
H2083 H 0.77896 0.25178 0.19838 0.0
H2084 H 0.82161 0.24274 0.21955 0.0
S2085 S 0.78257 0.13836 0.19887 0.0
N2086 N 0.76282 0.16259 0.18894 0.0
N2087 N 0.80821 0.15302 0.21308 0.0
C2088 C 0.80141 0.17898 0.2101 0.0
C2089 C 0.77673 0.18419 0.19716 0.0
C2090 C 0.43204 0.97629 0.05884 0.0
C2091 C 0.45159 0.95643 0.05672 0.0
C2092 C 0.43656 0.99946 0.07363 0.0
C2093 C 0.46093 1.00381 0.08654 0.0
H2094 H 0.41303 0.97393 0.04906 0.0
H2095 H 0.42104 1.01432 0.07462 0.0
S2096 S 0.51845 0.95769 0.08772 0.0
N2097 N 0.49615 0.94247 0.06913 0.0
N2098 N 0.50454 0.9859 0.09703 0.0
C2099 C 0.48058 0.98401 0.08477 0.0
C2100 C 0.47592 0.96033 0.06987 0.0
C2101 C 0.5939 0.55387 0.06743 0.0
C2102 C 0.57366 0.57209 0.06138 0.0
C2103 C 0.58824 0.52978 0.0801 0.0
C2104 C 0.56207 0.52271 0.08686 0.0
H2105 H 0.6143 0.5581 0.06206 0.0
H2106 H 0.6045 0.51632 0.08421 0.0
S2107 S 0.5018 0.56359 0.07493 0.0
N2108 N 0.52648 0.58193 0.0636 0.0
N2109 N 0.5156 0.53608 0.08627 0.0
C2110 C 0.54164 0.54105 0.08137 0.0
C2111 C 0.54751 0.56587 0.06889 0.0
C2112 C 1.01234 0.28833 0.26505 0.0
C2113 C 0.03663 0.27539 0.27001 0.0
C2114 C 0.98817 0.27444 0.2653 0.0
C2115 C 0.98711 0.24692 0.27044 0.0
H2116 H 1.012 0.30931 0.26029 0.0
H2117 H 0.97012 0.28542 0.26126 0.0
S2118 S 0.04492 0.20382 0.28606 0.0
N2119 N 0.05788 0.23364 0.28192 0.0
N2120 N 1.01272 0.20735 0.28109 0.0
C2121 C 1.0112 0.23381 0.27597 0.0
C2122 C 0.03583 0.24804 0.27599 0.0
C2123 C 0.50259 0.7407 1.00706 0.0
C2124 C 0.5304 0.7402 1.00382 0.0
C2125 C 0.48825 0.76462 1.00647 0.0
C2126 C 0.50107 0.78913 1.00256 0.0
H2127 H 0.49177 0.72243 1.01047 0.0
H2128 H 0.46705 0.76393 1.00998 0.0
S2129 S 0.57324 0.79879 0.99086 0.0
N2130 N 0.57003 0.76648 0.9955 0.0
N2131 N 0.543 0.81121 0.99323 0.0
C2132 C 0.52871 0.78885 0.99815 0.0
C2133 C 0.54336 0.7645 0.99898 0.0
C2134 C 0.99641 0.76013 0.24212 0.0
C2135 C 0.98996 0.77715 0.26333 0.0
C2136 C 0.02041 0.74579 0.24193 0.0
C2137 C 0.03865 0.7478 0.26309 0.0
H2138 H 0.98289 0.75804 0.22551 0.0
H2139 H 0.02488 0.73338 0.22492 0.0
S2140 S 0.0292 0.78765 0.32463 0.0
N2141 N 1.00261 0.79414 0.30657 0.0
N2142 N 0.04717 0.7667 0.30689 0.0
C2143 C 0.03183 0.76424 0.28479 0.0
C2144 C 1.00763 0.77903 0.28474 0.0
C2145 C 0.02711 0.74264 1.01488 0.0
C2146 C 1.00005 0.74185 0.02188 0.0
C2147 C 0.04134 0.76664 1.01484 0.0
C2148 C 0.02893 0.79083 0.02134 0.0
H2149 H 0.03736 0.72454 1.00935 0.0
H2150 H 0.06205 0.76637 1.00901 0.0
S2151 S 0.9586 0.79953 0.04144 0.0
N2152 N 0.96154 0.76732 0.0359 0.0
N2153 N 0.98817 0.81243 0.03556 0.0
C2154 C 1.00196 0.79028 0.02861 0.0
C2155 C 0.98757 0.76581 0.02899 0.0
C2156 C 0.26501 0.98671 0.2771 0.0
C2157 C 0.27506 0.98499 0.25096 0.0
C2158 C 0.2642 1.01096 0.29093 0.0
C2159 C 0.2734 0.03467 0.27929 0.0
H2160 H 0.25739 0.96916 0.28693 0.0
H2161 H 0.25556 1.01123 0.31066 0.0
S2162 S 0.30333 0.04092 0.21204 0.0
N2163 N 0.29521 1.00924 0.21434 0.0
N2164 N 0.29466 0.05448 0.24065 0.0
C2165 C 0.28438 0.03311 0.25354 0.0
C2166 C 0.28506 1.00841 0.23937 0.0
C2167 C 0.28451 0.49951 0.01852 0.0
C2168 C 0.28719 0.51343 0.99434 0.0
C2169 C 0.2602 0.49861 0.03224 0.0
C2170 C 0.23752 0.51173 0.02245 0.0
H2171 H 0.30139 0.4892 0.02699 0.0
H2172 H 0.25935 0.48809 0.051 0.0
S2173 S 0.23356 0.55031 0.95962 0.0
N2174 N 0.2648 0.54051 0.96116 0.0
N2175 N 0.21905 0.53807 0.98638 0.0
C2176 C 0.23977 0.52527 0.99803 0.0
C2177 C 0.26454 0.52627 0.98411 0.0
C2178 C 0.77773 0.53298 0.27513 0.0
C2179 C 0.76041 0.53792 0.25363 0.0
C2180 C 0.77697 0.50891 0.28926 0.0
C2181 C 0.75903 0.48867 0.28235 0.0
H2182 H 0.79238 0.54766 0.28082 0.0
H2183 H 0.79098 0.50585 0.30532 0.0
S2184 S 0.70787 0.49217 0.22945 0.0
N2185 N 0.72343 0.52097 0.22755 0.0
N2186 N 0.72258 0.47558 0.25364 0.0
C2187 C 0.74133 0.49342 0.26126 0.0
C2188 C 0.74189 0.51802 0.24703 0.0
C2189 C 0.78503 0.03659 1.01276 0.0
C2190 C 0.79107 0.01621 0.03098 0.0
C2191 C 0.76083 0.03684 0.99875 0.0
C2192 C 0.74163 0.01684 1.00257 0.0
H2193 H 0.79932 0.05219 1.00892 0.0
H2194 H 0.75705 0.05293 0.98496 0.0
S2195 S 0.74757 0.95927 0.04838 0.0
N2196 N 0.77541 0.97599 0.05266 0.0
N2197 N 0.73064 0.97589 0.02576 0.0
C2198 C 0.74743 0.99645 0.02084 0.0
C2199 C 0.77192 0.99628 0.03515 0.0
C2200 C 0.24352 0.2497 1.00777 0.0
C2201 C 0.24354 0.27238 0.99154 0.0
C2202 C 0.25824 0.24893 0.03149 0.0
C2203 C 0.27337 0.27094 0.04008 0.0
H2204 H 0.23257 0.23219 1.00174 0.0
H2205 H 0.25815 0.23069 0.04289 0.0
S2206 S 0.27812 0.33582 1.00515 0.0
N2207 N 0.25905 0.31756 0.98569 0.0
N2208 N 0.28584 0.31675 0.03074 0.0
C2209 C 0.27294 0.29399 0.02413 0.0
C2210 C 0.25824 0.29456 0.9998 0.0
C2211 C 0.27713 0.77991 0.50597 0.0
C2212 C 0.27858 0.75754 0.48928 0.0
C2213 C 0.26236 0.77937 0.52958 0.0
C2214 C 0.24815 0.75657 0.53724 0.0
H2215 H 0.28765 0.79795 0.50081 0.0
H2216 H 0.2619 0.79704 0.54187 0.0
S2217 S 0.24517 0.69287 0.50036 0.0
N2218 N 0.26443 0.71199 0.4819 0.0
N2219 N 0.23648 0.71103 0.52631 0.0
C2220 C 0.24926 0.73411 0.52067 0.0
C2221 C 0.2646 0.73455 0.49673 0.0
C2222 C 0.9956 0.48938 0.76506 0.0
C2223 C 1.0034 0.50209 0.78872 0.0
C2224 C 0.99478 0.50321 0.74076 0.0
C2225 C 1.00119 0.53041 0.73931 0.0
H2226 H 0.99078 0.46841 0.7652 0.0
H2227 H 0.98924 0.4925 0.72292 0.0
S2228 S 0.02172 0.57311 0.79576 0.0
N2229 N 0.01695 0.5436 0.80929 0.0
N2230 N 0.01507 0.5696 0.76378 0.0
C2231 C 1.00834 0.54349 0.76295 0.0
C2232 C 1.00957 0.52933 0.78758 0.0
C2233 C 0.76083 0.74774 0.50307 0.0
C2234 C 0.74727 0.77006 0.49307 0.0
C2235 C 0.77419 0.74864 0.52759 0.0
C2236 C 0.77495 0.77203 0.54294 0.0
H2237 H 0.76085 0.72928 0.49199 0.0
H2238 H 0.78423 0.7309 0.5345 0.0
S2239 S 0.74296 0.8361 0.52557 0.0
N2240 N 0.73558 0.81632 0.50042 0.0
N2241 N 0.76091 0.81808 0.54633 0.0
C2242 C 0.76168 0.79457 0.53309 0.0
C2243 C 0.74775 0.79355 0.50827 0.0
C2244 C 0.52243 0.49046 0.26207 0.0
C2245 C 0.522 0.50404 0.23762 0.0
C2246 C 0.52255 0.50428 0.28634 0.0
C2247 C 0.52251 0.53226 0.28718 0.0
H2248 H 0.52192 0.46896 0.26249 0.0
H2249 H 0.52248 0.49293 0.30464 0.0
S2250 S 0.52288 0.57723 0.22873 0.0
N2251 N 0.52283 0.5471 0.21574 0.0
N2252 N 0.52271 0.57303 0.2613 0.0
C2253 C 0.52282 0.54608 0.26287 0.0
C2254 C 0.52258 0.53201 0.23814 0.0
C2255 C 0.03028 1.00615 0.78537 0.0
C2256 C 0.02204 0.03286 0.78693 0.0
C2257 C 0.03 0.9922 0.76112 0.0
C2258 C 0.02102 1.00423 0.7375 0.0
H2259 H 0.03693 0.9959 0.8031 0.0
H2260 H 0.03628 0.97161 0.76099 0.0
S2261 S 0.99776 0.07385 0.73066 0.0
N2262 N 1.00505 0.07089 0.76254 0.0
N2263 N 1.00438 0.0447 0.7171 0.0
C2264 C 1.01299 0.031 0.73872 0.0
C2265 C 1.01359 0.0453 0.76335 0.0
C2266 C 0.49872 0.76394 0.79047 0.0
C2267 C 0.4891 0.75137 0.76739 0.0
C2268 C 0.52227 0.77906 0.78995 0.0
C2269 C 0.53727 0.78173 0.76644 0.0
H2270 H 0.4877 0.7625 0.80891 0.0
H2271 H 0.52896 0.78848 0.80812 0.0
S2272 S 0.52088 0.75236 0.70081 0.0
N2273 N 0.49661 0.74242 0.72051 0.0
N2274 N 0.54071 0.77052 0.71959 0.0
C2275 C 0.52795 0.76902 0.74336 0.0
C2276 C 0.50394 0.75394 0.74382 0.0
C2277 C 0.02406 0.28646 0.51214 0.0
C2278 C 0.9966 0.28724 0.50676 0.0
C2279 C 0.03833 0.26246 0.51185 0.0
C2280 C 0.02576 0.23811 0.50629 0.0
H2281 H 0.03466 0.3046 0.51676 0.0
H2282 H 0.05926 0.26293 0.51674 0.0
S2283 S 0.95447 0.22918 0.48973 0.0
N2284 N 0.95752 0.26137 0.4952 0.0
N2285 N 0.98441 0.21649 0.49389 0.0
C2286 C 0.99845 0.23865 0.50022 0.0
C2287 C 0.9839 0.2631 0.50057 0.0
C2288 C 0.49598 0.2635 0.74676 0.0
C2289 C 0.48895 0.28064 0.76776 0.0
C2290 C 0.52018 0.24957 0.74687 0.0
C2291 C 0.53844 0.25238 0.76787 0.0
H2292 H 0.48254 0.26057 0.73021 0.0
H2293 H 0.52475 0.23673 0.73019 0.0
S2294 S 0.52965 0.29479 0.82765 0.0
N2295 N 0.50252 0.29989 0.80997 0.0
N2296 N 0.5475 0.27324 0.81053 0.0
C2297 C 0.53163 0.26941 0.78902 0.0
C2298 C 0.50703 0.2836 0.7889 0.0
C2299 C 0.50224 0.29016 0.51365 0.0
C2300 C 0.52894 0.29107 0.52193 0.0
C2301 C 0.48802 0.26614 0.51329 0.0
C2302 C 0.50012 0.24205 0.52068 0.0
H2303 H 0.4923 0.30817 0.50736 0.0
H2304 H 0.4676 0.2663 0.50654 0.0
S2305 S 0.56939 0.23368 0.5442 0.0
N2306 N 0.56672 0.26582 0.53813 0.0
N2307 N 0.54014 0.22068 0.53707 0.0
C2308 C 0.5267 0.24272 0.5292 0.0
C2309 C 0.54105 0.26722 0.52996 0.0
C2310 C 0.76443 0.52086 0.7949 0.0
C2311 C 0.77056 0.54503 0.78218 0.0
C2312 C 0.76484 0.49659 0.78113 0.0
C2313 C 0.77078 0.4952 0.75373 0.0
H2314 H 0.7587 0.52058 0.81565 0.0
H2315 H 0.76029 0.47874 0.79223 0.0
S2316 S 0.78941 0.55258 0.71105 0.0
N2317 N 0.78492 0.56564 0.7408 0.0
N2318 N 0.78308 0.52061 0.71442 0.0
C2319 C 0.77721 0.5192 0.74076 0.0
C2320 C 0.77761 0.54387 0.75502 0.0
C2321 C 0.74261 1.01425 0.50265 0.0
C2322 C 0.74135 1.00767 0.52991 0.0
C2323 C 0.76667 1.01382 0.4885 0.0
C2324 C 0.79068 1.00645 0.50079 0.0
H2325 H 0.72485 0.02011 0.49205 0.0
H2326 H 0.76647 0.02007 0.4679 0.0
S2327 S 0.79822 0.98493 0.57113 0.0
N2328 N 0.76649 0.99264 0.56839 0.0
N2329 N 0.81118 0.98997 0.54141 0.0
C2330 C 0.78956 0.99857 0.52772 0.0
C2331 C 0.7651 0.99953 0.5423 0.0
C2332 C 0.26603 1.01367 0.78733 0.0
C2333 C 0.25705 0.99019 0.77508 0.0
C2334 C 0.26628 0.03798 0.77366 0.0
C2335 C 0.2576 0.03995 0.74709 0.0
H2336 H 0.27353 1.0132 0.80751 0.0
H2337 H 0.27343 0.05542 0.78405 0.0
S2338 S 0.23111 0.98454 0.70618 0.0
N2339 N 0.23789 0.97075 0.73517 0.0
N2340 N 0.23948 0.01609 0.70913 0.0
C2341 C 0.24816 0.01669 0.73471 0.0
C2342 C 0.24768 0.99195 0.74873 0.0
C2343 C 0.27468 0.53882 0.5195 0.0
C2344 C 0.2856 0.51513 0.52955 0.0
C2345 C 0.25085 0.53862 0.50488 0.0
C2346 C 0.23695 0.5148 0.50031 0.0
H2347 H 0.28485 0.55752 0.52261 0.0
H2348 H 0.24309 0.55723 0.49734 0.0
S2349 S 0.25725 0.4476 0.52258 0.0
N2350 N 0.28092 0.46735 0.53379 0.0
N2351 N 0.23591 0.46703 0.50697 0.0
C2352 C 0.24761 0.49109 0.51049 0.0
C2353 C 0.27201 0.49124 0.52493 0.0
C2354 C 0.74769 0.23971 0.02603 0.0
C2355 C 0.74697 0.26235 0.04253 0.0
C2356 C 0.76193 0.23963 1.00194 0.0
C2357 C 0.77606 0.26218 0.99328 0.0
H2358 H 0.73738 0.22177 0.03189 0.0
H2359 H 0.76154 0.22184 0.98984 0.0
S2360 S 0.78074 0.32659 0.0291 0.0
N2361 N 0.76118 0.30823 0.04791 0.0
N2362 N 0.78913 0.30751 1.00378 0.0
C2363 C 0.77571 0.28485 1.00973 0.0
C2364 C 0.76093 0.28507 0.03401 0.0
C2365 C 0.51727 0.02672 0.28999 0.0
C2366 C 0.50484 1.00187 0.29323 0.0
C2367 C 0.51666 0.04021 0.26555 0.0
C2368 C 0.50376 0.02932 0.24324 0.0
H2369 H 0.52769 0.03582 0.30648 0.0
H2370 H 0.52698 0.05901 0.26395 0.0
S2371 S 0.46736 0.96525 0.24134 0.0
N2372 N 0.47886 0.96713 0.27202 0.0
N2373 N 0.47724 0.99269 0.22633 0.0
C2374 C 0.49079 1.00474 0.24633 0.0
C2375 C 0.49138 0.99102 0.27124 0.0
C2376 C 0.14165 0.43708 0.14358 0.0
C2377 C 0.1404 0.46244 0.1553 0.0
C2378 C 0.13965 0.41396 0.15912 0.0
C2379 C 0.13712 0.4153 0.18697 0.0
H2380 H 0.14273 0.435 0.12219 0.0
H2381 H 0.13939 0.39484 0.14924 0.0
S2382 S 0.13654 0.47655 0.22773 0.0
N2383 N 0.13892 0.48734 0.19679 0.0
N2384 N 0.1358 0.44381 0.2258 0.0
C2385 C 0.13781 0.44037 0.19908 0.0
C2386 C 0.13931 0.46395 0.18329 0.0
C2387 C 0.68945 0.63454 0.13742 0.0
C2388 C 0.71425 0.64129 0.12659 0.0
C2389 C 0.66649 0.63459 0.12157 0.0
C2390 C 0.66768 0.64073 0.09427 0.0
H2391 H 0.68741 0.63112 0.15857 0.0
H2392 H 0.64746 0.6309 0.13089 0.0
S2393 S 0.72827 0.6564 0.05574 0.0
N2394 N 0.739 0.65203 0.08649 0.0
N2395 N 0.69588 0.65135 0.05669 0.0
C2396 C 0.6926 0.64544 0.08283 0.0
C2397 C 0.71589 0.64593 0.09902 0.0
C2398 C 0.86313 0.1015 0.17905 0.0
C2399 C 0.88903 0.10646 0.18834 0.0
C2400 C 0.85788 0.08021 0.16164 0.0
C2401 C 0.87838 0.06326 0.15293 0.0
H2402 H 0.84709 0.11477 0.18445 0.0
H2403 H 0.83785 0.07761 0.15426 0.0
S2404 S 0.94871 0.0654 0.17507 0.0
N2405 N 0.93459 0.0909 0.1901 0.0
N2406 N 0.92499 0.05126 0.15743 0.0
C2407 C 0.90405 0.06729 0.16327 0.0
C2408 C 0.9093 0.08879 0.18095 0.0
C2409 C 0.34582 0.86759 0.09998 0.0
C2410 C 0.36016 0.88811 0.08761 0.0
C2411 C 0.32488 0.87301 0.11744 0.0
C2412 C 0.31709 0.89924 0.12325 0.0
H2413 H 0.35093 0.84704 0.09625 0.0
H2414 H 0.31471 0.85635 0.12651 0.0
S2415 S 0.34817 0.96039 0.09638 0.0
N2416 N 0.36523 0.93594 0.08266 0.0
N2417 N 0.32528 0.9461 0.11507 0.0
C2418 C 0.33078 0.92006 0.1106 0.0
C2419 C 0.35242 0.91452 0.09289 0.0
C2420 C 0.13178 0.6113 0.36952 0.0
C2421 C 0.137 0.6118 0.34204 0.0
C2422 C 0.13618 0.58835 0.38476 0.0
C2423 C 0.14605 0.5648 0.37322 0.0
H2424 H 0.12421 0.62885 0.3794 0.0
H2425 H 0.13152 0.5891 0.40575 0.0
S2426 S 0.16205 0.55535 0.30166 0.0
N2427 N 0.1519 0.58646 0.3037 0.0
N2428 N 0.16059 0.54349 0.33224 0.0
C2429 C 0.15161 0.5651 0.34573 0.0
C2430 C 0.147 0.58851 0.33019 0.0
C2431 C 0.82304 0.65011 0.91594 0.0
C2432 C 0.83033 0.63524 0.89335 0.0
C2433 C 0.84092 0.65449 0.93684 0.0
C2434 C 0.86681 0.64399 0.93626 0.0
H2435 H 0.80361 0.65926 0.91719 0.0
H2436 H 0.83451 0.66649 0.95352 0.0
S2437 S 0.89545 0.60208 0.88282 0.0
N2438 N 0.86503 0.6087 0.8725 0.0
N2439 N 0.89854 0.61707 0.91186 0.0
C2440 C 0.87409 0.62816 0.91442 0.0
C2441 C 0.85591 0.62379 0.89297 0.0
C2442 C 0.91121 0.95801 0.3507 0.0
C2443 C 0.8984 0.95987 0.3756 0.0
C2444 C 0.90982 0.93482 0.3353 0.0
C2445 C 0.89597 0.91251 0.34446 0.0
H2446 H 0.9232 0.97431 0.34338 0.0
H2447 H 0.92077 0.93378 0.3168 0.0
S2448 S 0.85631 0.90773 0.40627 0.0
N2449 N 0.86889 0.93802 0.40706 0.0
N2450 N 0.86726 0.8941 0.37846 0.0
C2451 C 0.88192 0.91442 0.36849 0.0
C2452 C 0.88281 0.93824 0.38394 0.0
C2453 C 0.18027 0.9082 0.93321 0.0
C2454 C 0.16851 0.88276 0.93348 0.0
C2455 C 0.2029 0.91359 0.91771 0.0
C2456 C 0.21432 0.89386 0.90157 0.0
H2457 H 0.17171 0.92425 0.94468 0.0
H2458 H 0.21116 0.93345 0.91795 0.0
S2459 S 0.19326 0.82339 0.8972 0.0
N2460 N 0.17188 0.83709 0.91795 0.0
N2461 N 0.21343 0.84754 0.88807 0.0
C2462 C 0.20311 0.86829 0.90197 0.0
C2463 C 0.18046 0.86267 0.91808 0.0
C2464 C 0.19762 0.13139 0.43935 0.0
C2465 C 0.18578 0.13673 0.41467 0.0
C2466 C 0.18234 0.13061 0.46271 0.0
C2467 C 0.15483 0.13574 0.46225 0.0
H2468 H 0.21846 0.12619 0.4403 0.0
H2469 H 0.19198 0.125 0.48113 0.0
S2470 S 0.1152 0.15348 0.40268 0.0
N2471 N 0.14559 0.14891 0.39115 0.0
N2472 N 0.11693 0.14845 0.43509 0.0
C2473 C 0.14318 0.14291 0.43786 0.0
C2474 C 0.15865 0.14307 0.41404 0.0
C2475 C 0.41909 0.60902 0.8257 0.0
C2476 C 0.39837 0.62293 0.81305 0.0
C2477 C 0.41419 0.59327 0.84839 0.0
C2478 C 0.38844 0.59095 0.85909 0.0
H2479 H 0.43929 0.61103 0.8186 0.0
H2480 H 0.43075 0.58366 0.85819 0.0
S2481 S 0.32684 0.61942 0.83066 0.0
N2482 N 0.35068 0.63034 0.81099 0.0
N2483 N 0.34176 0.60128 0.85356 0.0
C2484 C 0.36749 0.60359 0.84577 0.0
C2485 C 0.37238 0.61941 0.82277 0.0
C2486 C 0.85284 0.36251 0.45326 0.0
C2487 C 0.87124 0.38154 0.4623 0.0
C2488 C 0.83737 0.36708 0.43038 0.0
C2489 C 0.83963 0.39088 0.41581 0.0
H2490 H 0.85079 0.34374 0.46356 0.0
H2491 H 0.82407 0.35158 0.42366 0.0
S2492 S 0.88208 0.44853 0.43316 0.0
N2493 N 0.88901 0.42609 0.45602 0.0
N2494 N 0.85973 0.43465 0.41363 0.0
C2495 C 0.85713 0.41043 0.42528 0.0
C2496 C 0.87296 0.40577 0.44835 0.0
C2497 C 0.65995 0.92262 0.8515 0.0
C2498 C 0.64054 0.9395 0.86256 0.0
C2499 C 0.65478 0.90724 0.82888 0.0
C2500 C 0.6301 0.90836 0.8159 0.0
H2501 H 0.67952 0.92135 0.86027 0.0
H2502 H 0.67048 0.89465 0.82125 0.0
S2503 S 0.5718 0.94806 0.837 0.0
N2504 N 0.59488 0.95518 0.85919 0.0
N2505 N 0.58572 0.92714 0.81588 0.0
C2506 C 0.61047 0.92518 0.82643 0.0
C2507 C 0.61554 0.94055 0.8499 0.0
C2508 C 0.19991 0.87833 0.08592 0.0
C2509 C 0.18933 0.89029 0.10886 0.0
C2510 C 0.1839 0.87338 0.06353 0.0
C2511 C 0.15669 0.87998 0.06342 0.0
H2512 H 0.22087 0.87365 0.08498 0.0
H2513 H 0.19313 0.86507 0.04594 0.0
S2514 S 0.11882 0.9077 0.12053 0.0
N2515 N 0.14974 0.90604 0.13128 0.0
N2516 N 0.11948 0.89627 0.08978 0.0
C2517 C 0.1457 0.89058 0.08695 0.0
C2518 C 0.16206 0.89587 0.1095 0.0
C2519 C 0.15881 0.57831 0.19417 0.0
C2520 C 0.14862 0.58628 0.16944 0.0
C2521 C 0.15779 0.5951 0.21627 0.0
C2522 C 0.14664 0.62071 0.21461 0.0
H2523 H 0.16856 0.55923 0.19616 0.0
H2524 H 0.16692 0.58832 0.23456 0.0
S2525 S 0.11441 0.64979 0.15499 0.0
N2526 N 0.12479 0.62028 0.14496 0.0
N2527 N 0.12283 0.6522 0.18667 0.0
C2528 C 0.13457 0.62821 0.19048 0.0
C2529 C 0.13559 0.61091 0.16784 0.0
C2530 C 0.84865 0.62276 0.06958 0.0
C2531 C 0.87362 0.63549 0.06876 0.0
C2532 C 0.83362 0.62174 0.09306 0.0
C2533 C 0.84314 0.63307 0.11665 0.0
H2534 H 0.8409 0.61277 0.05215 0.0
H2535 H 0.81492 0.61113 0.0931 0.0
S2536 S 0.90488 0.672 0.12484 0.0
N2537 N 0.90532 0.66256 0.09339 0.0
N2538 N 0.87736 0.65955 0.1376 0.0
C2539 C 0.86725 0.64693 0.11599 0.0
C2540 C 0.88238 0.64847 0.09201 0.0
C2541 C 0.87529 0.92761 0.18934 0.0
C2542 C 0.88926 0.92887 0.16516 0.0
C2543 C 0.8804 0.90753 0.20801 0.0
C2544 C 0.89935 0.88754 0.20302 0.0
H2545 H 0.86004 0.94214 0.1937 0.0
H2546 H 0.86856 0.90709 0.22599 0.0
S2547 S 0.94215 0.88263 0.14308 0.0
N2548 N 0.92361 0.90914 0.13764 0.0
N2549 N 0.93305 0.87113 0.17246 0.0
C2550 C 0.91401 0.88904 0.1792 0.0
C2551 C 0.90903 0.90976 0.16036 0.0
C2552 C 0.43728 0.14347 0.13365 0.0
C2553 C 0.45959 0.1537 0.14717 0.0
C2554 C 0.41501 0.15935 0.12824 0.0
C2555 C 0.41396 0.18609 0.13624 0.0
H2556 H 0.43707 0.12309 0.12678 0.0
H2557 H 0.39842 0.15061 0.11772 0.0
S2558 S 0.46701 0.223 0.17164 0.0
N2559 N 0.47903 0.19267 0.16828 0.0
N2560 N 0.43729 0.22235 0.15786 0.0
C2561 C 0.43592 0.19658 0.14996 0.0
C2562 C 0.45866 0.18045 0.15547 0.0
C2563 C 0.43557 0.8513 0.40888 0.0
C2564 C 0.41817 0.84237 0.38896 0.0
C2565 C 0.45602 0.8692 0.40321 0.0
C2566 C 0.46011 0.87895 0.37728 0.0
H2567 H 0.43324 0.84452 0.42918 0.0
H2568 H 0.46864 0.87556 0.41945 0.0
S2569 S 0.42001 0.86182 0.3178 0.0
N2570 N 0.40627 0.84464 0.34216 0.0
N2571 N 0.44512 0.87804 0.33131 0.0
C2572 C 0.44328 0.86971 0.35694 0.0
C2573 C 0.42224 0.85148 0.3628 0.0
C2574 C 0.11389 0.32448 0.88325 0.0
C2575 C 0.13549 0.33162 0.89957 0.0
C2576 C 0.0934 0.34248 0.87757 0.0
C2577 C 0.0934 0.36838 0.88808 0.0
H2578 H 0.11307 0.30502 0.87409 0.0
H2579 H 0.07746 0.33608 0.86463 0.0
S2580 S 0.14427 0.39684 0.93313 0.0
N2581 N 0.15477 0.36632 0.92726 0.0
N2582 N 0.11628 0.40005 0.91636 0.0
C2583 C 0.11426 0.37556 0.9052 0.0
C2584 C 0.13527 0.35724 0.91097 0.0
C2585 C 0.60252 0.66936 0.41266 0.0
C2586 C 0.61208 0.68744 0.39362 0.0
C2587 C 0.58027 0.65349 0.40765 0.0
C2588 C 0.56636 0.65512 0.38343 0.0
H2589 H 0.61236 0.66743 0.4317 0.0
H2590 H 0.57384 0.63989 0.42306 0.0
S2591 S 0.58365 0.69844 0.32633 0.0
N2592 N 0.60634 0.70531 0.349 0.0
N2593 N 0.56396 0.67602 0.33993 0.0
C2594 C 0.57544 0.67328 0.36423 0.0
C2595 C 0.5984 0.68931 0.36922 0.0
C2596 C 0.39627 0.69109 0.38734 0.0
C2597 C 0.40591 0.71384 0.40048 0.0
C2598 C 0.41244 0.6689 0.38288 0.0
C2599 C 0.4391 0.66835 0.39118 0.0
H2600 H 0.37611 0.69043 0.38 0.0
H2601 H 0.40399 0.65205 0.37254 0.0
S2602 S 0.47439 0.72251 0.42653 0.0
N2603 N 0.44404 0.73415 0.42221 0.0
N2604 N 0.4745 0.69246 0.41335 0.0
C2605 C 0.44898 0.69062 0.40487 0.0
C2606 C 0.4324 0.71333 0.40958 0.0
C2607 C 0.0873 0.82838 0.63477 0.0
C2608 C 0.11265 0.83961 0.6373 0.0
C2609 C 0.06445 0.84438 0.63542 0.0
C2610 C 0.06616 0.87212 0.63913 0.0
H2611 H 0.08527 0.80734 0.63078 0.0
H2612 H 0.04537 0.83504 0.63212 0.0
S2613 S 0.12822 0.91036 0.65009 0.0
N2614 N 0.13831 0.87943 0.64576 0.0
N2615 N 0.09553 0.90954 0.64785 0.0
C2616 C 0.09144 0.88322 0.64351 0.0
C2617 C 0.11466 0.86696 0.64231 0.0
C2618 C 0.07877 0.68688 0.6299 0.0
C2619 C 0.0889 0.66372 0.64181 0.0
C2620 C 0.09513 0.70896 0.62495 0.0
C2621 C 0.12234 0.70875 0.63163 0.0
H2622 H 0.05787 0.68821 0.62508 0.0
H2623 H 0.08616 0.72655 0.6164 0.0
S2624 S 0.15913 0.65148 0.66037 0.0
N2625 N 0.12823 0.64092 0.65789 0.0
N2626 N 0.15884 0.68226 0.64915 0.0
C2627 C 0.13283 0.68522 0.64268 0.0
C2628 C 0.11617 0.66279 0.64764 0.0
C2629 C 0.89766 0.83763 0.65138 0.0
C2630 C 0.9019 0.82042 0.62963 0.0
C2631 C 0.9149 0.85877 0.65689 0.0
C2632 C 0.93697 0.86401 0.6407 0.0
H2633 H 0.8812 0.8345 0.66482 0.0
H2634 H 0.91106 0.87106 0.67414 0.0
S2635 S 0.95692 0.82595 0.58072 0.0
N2636 N 0.92983 0.81079 0.59129 0.0
N2637 N 0.96209 0.85069 0.60165 0.0
C2638 C 0.94118 0.8476 0.61842 0.0
C2639 C 0.92372 0.82579 0.6129 0.0
C2640 C 0.62387 0.95766 0.65655 0.0
C2641 C 0.64909 0.96971 0.65608 0.0
C2642 C 0.61862 0.9354 0.67242 0.0
C2643 C 0.63836 0.92375 0.68846 0.0
H2644 H 0.60785 0.96546 0.64448 0.0
H2645 H 0.59876 0.92723 0.672 0.0
S2646 S 0.70788 0.94776 0.69463 0.0
N2647 N 0.694 0.96872 0.67356 0.0
N2648 N 0.68445 0.92636 0.70287 0.0
C2649 C 0.66366 0.93584 0.68857 0.0
C2650 C 0.66893 0.95886 0.67251 0.0
C2651 C 0.19719 0.11356 0.61133 0.0
C2652 C 0.21076 0.13387 0.62482 0.0
C2653 C 0.17468 0.11922 0.59578 0.0
C2654 C 0.16509 0.14543 0.59299 0.0
H2655 H 0.20359 0.09311 0.6133 0.0
H2656 H 0.16442 0.10288 0.58633 0.0
S2657 S 0.19563 0.20606 0.6216 0.0
N2658 N 0.21418 0.18145 0.63276 0.0
N2659 N 0.17245 0.192 0.60319 0.0
C2660 C 0.17908 0.16595 0.60568 0.0
C2661 C 0.20177 0.1602 0.62163 0.0
C2662 C 0.36889 0.59819 0.68695 0.0
C2663 C 0.39425 0.61006 0.68715 0.0
C2664 C 0.36339 0.57592 0.67085 0.0
C2665 C 0.38292 0.56498 0.65407 0.0
H2666 H 0.353 0.60652 0.6988 0.0
H2667 H 0.34356 0.56761 0.67109 0.0
S2668 S 0.45334 0.58609 0.64993 0.0
N2669 N 0.43978 0.60696 0.6713 0.0
N2670 N 0.42915 0.56617 0.64042 0.0
C2671 C 0.40848 0.57614 0.65469 0.0
C2672 C 0.41422 0.59838 0.67137 0.0
C2673 C 0.83872 0.40392 0.58591 0.0
C2674 C 0.85998 0.3877 0.59404 0.0
C2675 C 0.81743 0.40961 0.6032 0.0
C2676 C 0.81667 0.39942 0.62934 0.0
H2677 H 0.83813 0.41154 0.56579 0.0
H2678 H 0.80116 0.42155 0.59574 0.0
S2679 S 0.86944 0.35852 0.66109 0.0
N2680 N 0.88028 0.36368 0.63058 0.0
N2681 N 0.8405 0.37375 0.6628 0.0
C2682 C 0.83849 0.38403 0.6379 0.0
C2683 C 0.86005 0.37833 0.62034 0.0
C2684 C 0.66579 0.07815 0.86014 0.0
C2685 C 0.64621 0.06731 0.87687 0.0
C2686 C 0.66055 0.10079 0.84455 0.0
C2687 C 0.6354 0.11311 0.84484 0.0
H2688 H 0.68544 0.06941 0.85951 0.0
H2689 H 0.67645 0.10898 0.83263 0.0
S2690 S 0.57624 0.08969 0.88225 0.0
N2691 N 0.60017 0.06914 0.89112 0.0
N2692 N 0.58997 0.11068 0.86113 0.0
C2693 C 0.61538 0.10161 0.86065 0.0
C2694 C 0.62086 0.07899 0.87682 0.0
C2695 C 0.36023 0.14746 0.40806 0.0
C2696 C 0.36045 0.14337 0.43572 0.0
C2697 C 0.3377 0.14168 0.3927 0.0
C2698 C 0.31433 0.13155 0.40432 0.0
H2699 H 0.37768 0.15516 0.39815 0.0
H2700 H 0.33863 0.14549 0.37153 0.0
S2701 S 0.30433 0.11822 0.47634 0.0
N2702 N 0.33511 0.12924 0.4743 0.0
N2703 N 0.29288 0.11805 0.44558 0.0
C2704 C 0.31437 0.12715 0.43202 0.0
C2705 C 0.33737 0.13312 0.44766 0.0
C2706 C 0.39913 0.44018 0.84612 0.0
C2707 C 0.3884 0.41442 0.84683 0.0
C2708 C 0.394 0.45854 0.8664 0.0
C2709 C 0.37812 0.45185 0.88847 0.0
H2710 H 0.41191 0.4461 0.82987 0.0
H2711 H 0.40339 0.47785 0.86511 0.0
S2712 S 0.34382 0.38732 0.89881 0.0
N2713 N 0.36005 0.38347 0.87053 0.0
N2714 N 0.35028 0.41789 0.90882 0.0
C2715 C 0.36634 0.42643 0.88886 0.0
C2716 C 0.37149 0.40776 0.86801 0.0
C2717 C 0.65542 0.40095 0.41395 0.0
C2718 C 0.66407 0.38778 0.437 0.0
C2719 C 0.67301 0.40627 0.39291 0.0
C2720 C 0.7 0.39887 0.39427 0.0
H2721 H 0.6347 0.40624 0.4118 0.0
H2722 H 0.66513 0.41546 0.37511 0.0
S2723 S 0.73314 0.36772 0.45253 0.0
N2724 N 0.70168 0.37011 0.46138 0.0
N2725 N 0.73487 0.38023 0.42224 0.0
C2726 C 0.70912 0.38712 0.41806 0.0
C2727 C 0.69113 0.38151 0.43928 0.0
C2728 C 0.68953 0.66366 0.93494 0.0
C2729 C 0.68981 0.63898 0.92168 0.0
C2730 C 0.67361 0.6678 0.95766 0.0
C2731 C 0.65733 0.64745 0.96785 0.0
H2732 H 0.70098 0.68012 0.92717 0.0
H2733 H 0.67346 0.6873 0.96677 0.0
S2734 S 0.65401 0.5781 0.94265 0.0
N2735 N 0.67469 0.59322 0.92219 0.0
N2736 N 0.64469 0.6009 0.96429 0.0
C2737 C 0.65844 0.62238 0.95539 0.0
C2738 C 0.67467 0.61818 0.93249 0.0
C2739 C 0.868 0.10738 0.35103 0.0
C2740 C 0.8875 0.08976 0.36055 0.0
C2741 C 0.87225 0.12304 0.32842 0.0
C2742 C 0.89616 0.12171 0.31395 0.0
H2743 H 0.84912 0.10915 0.36116 0.0
H2744 H 0.85648 0.1363 0.32221 0.0
S2745 S 0.95392 0.07893 0.33009 0.0
N2746 N 0.93205 0.07219 0.3536 0.0
N2747 N 0.93965 0.10111 0.31059 0.0
C2748 C 0.91574 0.10385 0.3228 0.0
C2749 C 0.91152 0.088 0.34615 0.0
C2750 C 0.34258 0.86929 0.92497 0.0
C2751 C 0.34187 0.89477 0.91332 0.0
C2752 C 0.35812 0.86411 0.94766 0.0
C2753 C 0.3738 0.88412 0.95922 0.0
H2754 H 0.33149 0.8531 0.91623 0.0
H2755 H 0.35834 0.84419 0.9558 0.0
S2756 S 0.37642 0.95484 0.93867 0.0
N2757 N 0.35615 0.94079 0.91708 0.0
N2758 N 0.38606 0.93077 0.95874 0.0
C2759 C 0.37275 0.90976 0.94821 0.0
C2760 C 0.35664 0.91515 0.92551 0.0
C2761 C 0.11559 0.43423 0.34872 0.0
C2762 C 0.14086 0.43528 0.36075 0.0
C2763 C 0.11084 0.41824 0.32618 0.0
C2764 C 0.13108 0.40238 0.31513 0.0
H2765 H 0.09923 0.44541 0.35707 0.0
H2766 H 0.09108 0.41783 0.31772 0.0
S2767 S 0.20151 0.40076 0.3365 0.0
N2768 N 0.18704 0.4213 0.35758 0.0
N2769 N 0.17776 0.39052 0.31638 0.0
C2770 C 0.15652 0.40382 0.32647 0.0
C2771 C 0.1615 0.42043 0.34895 0.0
C2772 C 0.64597 0.39012 0.59362 0.0
C2773 C 0.65782 0.3913 0.56831 0.0
C2774 C 0.66141 0.39113 0.61683 0.0
C2775 C 0.68928 0.39272 0.61566 0.0
H2776 H 0.62455 0.3899 0.59559 0.0
H2777 H 0.65146 0.39152 0.63592 0.0
S2778 S 0.73025 0.39336 0.55454 0.0
N2779 N 0.69936 0.39208 0.54355 0.0
N2780 N 0.7282 0.39349 0.58733 0.0
C2781 C 0.70148 0.39218 0.5906 0.0
C2782 C 0.68578 0.39162 0.5669 0.0
C2783 C 0.61347 0.10847 0.706 0.0
C2784 C 0.63271 0.12584 0.71646 0.0
C2785 C 0.6187 0.09315 0.6831 0.0
C2786 C 0.6435 0.09439 0.67015 0.0
H2787 H 0.59404 0.10721 0.71515 0.0
H2788 H 0.60302 0.08082 0.6751 0.0
S2789 S 0.70196 0.13342 0.69247 0.0
N2790 N 0.67828 0.1414 0.71368 0.0
N2791 N 0.68841 0.11203 0.67165 0.0
C2792 C 0.66328 0.11067 0.68137 0.0
C2793 C 0.65781 0.12652 0.70425 0.0
C2794 C 0.36572 0.13374 0.60721 0.0
C2795 C 0.3391 0.14208 0.60767 0.0
C2796 C 0.38204 0.13863 0.58519 0.0
C2797 C 0.37238 0.15181 0.56243 0.0
H2798 H 0.37393 0.12309 0.62401 0.0
H2799 H 0.40231 0.13157 0.58595 0.0
S2800 S 0.30386 0.17793 0.55388 0.0
N2801 N 0.30376 0.16456 0.58387 0.0
N2802 N 0.3342 0.17364 0.54218 0.0
C2803 C 0.34584 0.16085 0.56292 0.0
C2804 C 0.32928 0.15602 0.58558 0.0
C2805 C 0.37764 0.44966 0.69183 0.0
C2806 C 0.38734 0.43943 0.66783 0.0
C2807 C 0.37816 0.43435 0.71514 0.0
C2808 C 0.38859 0.40829 0.71528 0.0
H2809 H 0.36834 0.46906 0.6922 0.0
H2810 H 0.3693 0.44269 0.7329 0.0
S2811 S 0.42015 0.37446 0.6577 0.0
N2812 N 0.40984 0.40318 0.64563 0.0
N2813 N 0.41197 0.37457 0.68952 0.0
C2814 C 0.40019 0.39875 0.69161 0.0
C2815 C 0.39919 0.41425 0.66783 0.0
C2816 C 0.94895 0.67146 0.66498 0.0
C2817 C 0.96186 0.65793 0.64418 0.0
C2818 C 0.92733 0.6885 0.65984 0.0
C2819 C 0.91813 0.69282 0.6337 0.0
H2820 H 0.95503 0.66822 0.68538 0.0
H2821 H 0.91727 0.69767 0.6765 0.0
S2822 S 0.94837 0.66556 0.5721 0.0
N2823 N 0.96579 0.65213 0.59642 0.0
N2824 N 0.926 0.68458 0.5867 0.0
C2825 C 0.93194 0.68047 0.61273 0.0
C2826 C 0.95358 0.66293 0.61799 0.0
C2827 C 0.94152 0.33266 0.9142 0.0
C2828 C 0.91737 0.33906 0.90183 0.0
C2829 C 0.96375 0.3491 0.91179 0.0
C2830 C 0.96282 0.37296 0.89714 0.0
H2831 H 0.9431 0.31492 0.92626 0.0
H2832 H 0.98158 0.34331 0.92233 0.0
S2833 S 0.90457 0.39763 0.85915 0.0
N2834 N 0.89402 0.36978 0.87297 0.0
N2835 N 0.93582 0.40115 0.86851 0.0
C2836 C 0.93902 0.37904 0.88365 0.0
C2837 C 0.91632 0.36198 0.88595 0.0
C2838 C 0.63724 0.85428 0.41012 0.0
C2839 C 0.63743 0.82891 0.3982 0.0
C2840 C 0.61637 0.87228 0.40561 0.0
C2841 C 0.59521 0.86577 0.38863 0.0
H2842 H 0.65362 0.86053 0.42258 0.0
H2843 H 0.61728 0.89183 0.41456 0.0
S2844 S 0.58471 0.80152 0.3543 0.0
N2845 N 0.61321 0.79778 0.37006 0.0
N2846 N 0.57452 0.83187 0.36142 0.0
C2847 C 0.59458 0.84028 0.37738 0.0
C2848 C 0.61552 0.82178 0.38224 0.0
C2849 C 0.10123 0.17329 0.91101 0.0
C2850 C 0.11065 0.1909 0.89141 0.0
C2851 C 0.0788 0.15735 0.90671 0.0
C2852 C 0.06461 0.15826 0.88261 0.0
H2853 H 0.11131 0.1718 0.92995 0.0
H2854 H 0.07239 0.14436 0.92261 0.0
S2855 S 0.0811 0.20048 0.82442 0.0
N2856 N 0.10413 0.20787 0.84659 0.0
N2857 N 0.06165 0.17829 0.83874 0.0
C2858 C 0.07348 0.17606 0.86291 0.0
C2859 C 0.09653 0.19225 0.86724 0.0
C2860 C 0.93291 0.21432 0.88368 0.0
C2861 C 0.90618 0.2136 0.89217 0.0
C2862 C 0.9484 0.19115 0.8823 0.0
C2863 C 0.93766 0.16635 0.88896 0.0
H2864 H 0.94179 0.2328 0.87718 0.0
H2865 H 0.9685 0.19239 0.87476 0.0
S2866 S 0.87042 0.15349 0.9157 0.0
N2867 N 0.87095 0.18587 0.91038 0.0
N2868 N 0.8999 0.14236 0.90658 0.0
C2869 C 0.9116 0.16535 0.89873 0.0
C2870 C 0.89594 0.18898 0.90072 0.0
C2871 C 0.58555 0.38461 0.13899 0.0
C2872 C 0.56256 0.37459 0.15145 0.0
C2873 C 0.60756 0.36836 0.13386 0.0
C2874 C 0.60767 0.34139 0.14106 0.0
H2875 H 0.58654 0.40519 0.13284 0.0
H2876 H 0.62466 0.37698 0.12409 0.0
S2877 S 0.55263 0.30505 0.17393 0.0
N2878 N 0.54143 0.33574 0.17095 0.0
N2879 N 0.58284 0.30523 0.16119 0.0
C2880 C 0.58511 0.33114 0.154 0.0
C2881 C 0.56258 0.34771 0.15923 0.0
C2882 C 0.59161 0.21125 0.14782 0.0
C2883 C 0.61929 0.21066 0.14363 0.0
C2884 C 0.57642 0.1879 0.14724 0.0
C2885 C 0.58846 0.16313 0.14301 0.0
H2886 H 0.58173 0.2298 0.15249 0.0
H2887 H 0.5554 0.18899 0.15166 0.0
S2888 S 0.65944 0.15071 0.12844 0.0
N2889 N 0.65755 0.1832 0.13262 0.0
N2890 N 0.62897 0.13932 0.13254 0.0
C2891 C 0.61575 0.16231 0.13751 0.0
C2892 C 0.63118 0.1861 0.13749 0.0
C2893 C 0.44636 0.33805 0.14777 0.0
C2894 C 0.43473 0.36297 0.14328 0.0
C2895 C 0.43094 0.31482 0.1474 0.0
C2896 C 0.40347 0.31568 0.142 0.0
H2897 H 0.46717 0.33673 0.15301 0.0
H2898 H 0.44048 0.29615 0.15225 0.0
S2899 S 0.36457 0.37613 0.1256 0.0
N2900 N 0.39493 0.38721 0.13117 0.0
N2901 N 0.36599 0.3436 0.1296 0.0
C2902 C 0.39208 0.34041 0.13565 0.0
C2903 C 0.4077 0.36407 0.13658 0.0
loop_
_geom_bond_atom_site_label_1
_geom_bond_atom_site_label_2
_geom_bond_distance
_geom_bond_site_symmetry_2
_ccdc_geom_bond_type
Co0 N4 2.148 . S
Co0 N10 2.128 . S
Co0 N20 2.194 . S
Co0 O25 2.351 . S
Co0 O26 2.155 . S
Co0 O27 2.096 . S
C1 N4 1.301 . S
C1 N5 1.328 . S
C1 H6 0.930 . S
C2 C3 1.333 . S
C2 N4 1.317 . S
C2 H7 0.930 . S
C3 C2 1.333 . S
C3 N5 1.350 . S
C3 H29 0.931 . S
N4 Co0 2.148 . S
N4 C1 1.301 . S
N4 C2 1.317 . S
N5 C1 1.328 . S
N5 C3 1.350 . S
H6 C1 0.930 . S
H7 C2 0.930 . S
C8 O9 1.224 . S
C8 O27 1.247 . S
O9 C8 1.224 . S
N10 Co0 2.128 . S
N10 C11 1.355 . S
N10 C13 1.311 . S
C11 N10 1.355 . S
C11 C12 1.363 . S
C11 H23 0.929 . S
C12 C11 1.363 . S
C12 N14 1.375 . S
C12 H30 0.931 . S
C13 N10 1.311 . S
C13 N14 1.347 . S
C13 H24 0.929 . S
N14 C12 1.375 . S
N14 C13 1.347 . S
C15 C18 1.365 . S
C15 N20 1.328 . S
C15 H21 0.929 . S
C16 C17 1.362 . S
C16 C19 1.378 . S
C16 H31 0.929 . S
C17 C16 1.362 . S
C17 C18 1.366 . S
C18 C15 1.365 . S
C18 C17 1.366 . S
C18 H32 0.930 . S
C19 C16 1.378 . S
C19 N20 1.315 . S
C19 H22 0.930 . S
N20 Co0 2.194 . S
N20 C15 1.328 . S
N20 C19 1.315 . S
H21 C15 0.929 . S
H22 C19 0.930 . S
H23 C11 0.929 . S
H24 C13 0.929 . S
O25 Co0 2.351 . S
O25 C28 1.244 . S
O26 Co0 2.155 . S
O26 C28 1.240 . S
O27 Co0 2.096 . S
O27 C8 1.247 . S
C28 O25 1.244 . S
C28 O26 1.240 . S
H29 C3 0.931 . S
H30 C12 0.931 . S
H31 C16 0.929 . S
H32 C18 0.930 . S
Co33 N37 2.148 1_554 S
Co33 N43 2.128 . S
Co33 N53 2.194 . S
Co33 O58 2.351 . S
Co33 O59 2.155 . S
Co33 O60 2.096 1_554 S
C34 N37 1.301 . S
C34 N38 1.328 . S
C34 H39 0.930 1_556 S
C35 C36 1.333 . S
C35 N37 1.317 . S
C35 H40 0.930 . S
C36 C35 1.333 . S
C36 N38 1.350 . S
C36 H62 0.931 . S
N37 Co33 2.148 1_556 S
N37 C34 1.301 . S
N37 C35 1.317 . S
N38 C34 1.328 . S
N38 C36 1.350 . S
H39 C34 0.930 1_554 S
H40 C35 0.930 . S
C41 O42 1.224 . S
C41 O60 1.247 . S
O42 C41 1.224 . S
N43 Co33 2.128 . S
N43 C44 1.355 . S
N43 C46 1.311 . S
C44 N43 1.355 . S
C44 C45 1.363 . S
C44 H56 0.929 . S
C45 C44 1.363 . S
C45 N47 1.375 . S
C45 H63 0.931 . S
C46 N43 1.311 . S
C46 N47 1.347 . S
C46 H57 0.929 . S
N47 C45 1.375 . S
N47 C46 1.347 . S
C48 C51 1.365 . S
C48 N53 1.328 . S
C48 H54 0.929 . S
C49 C50 1.362 . S
C49 C52 1.378 . S
C49 H64 0.929 . S
C50 C49 1.362 . S
C50 C51 1.366 . S
C51 C48 1.365 . S
C51 C50 1.366 . S
C51 H65 0.930 . S
C52 C49 1.378 . S
C52 N53 1.315 . S
C52 H55 0.933 . S
N53 Co33 2.194 . S
N53 C48 1.328 . S
N53 C52 1.315 . S
H54 C48 0.929 . S
H55 C52 0.933 . S
H56 C44 0.929 . S
H57 C46 0.929 . S
O58 Co33 2.351 . S
O58 C61 1.244 . S
O59 Co33 2.155 . S
O59 C61 1.240 . S
O60 Co33 2.096 1_556 S
O60 C41 1.247 . S
C61 O58 1.244 . S
C61 O59 1.240 . S
H62 C36 0.931 . S
H63 C45 0.931 . S
H64 C49 0.929 . S
H65 C51 0.930 . S
Co66 N70 2.148 . S
Co66 N76 2.128 . S
Co66 N86 2.194 . S
Co66 O91 2.351 . S
Co66 O92 2.155 . S
Co66 O93 2.096 . S
C67 N70 1.301 . S
C67 N71 1.328 . S
C67 H72 0.930 . S
C68 C69 1.333 . S
C68 N70 1.317 . S
C68 H73 0.930 . S
C69 C68 1.333 . S
C69 N71 1.350 . S
C69 H95 0.931 . S
N70 Co66 2.148 . S
N70 C67 1.301 . S
N70 C68 1.317 . S
N71 C67 1.328 . S
N71 C69 1.350 . S
H72 C67 0.930 . S
H73 C68 0.930 . S
C74 O75 1.224 . S
C74 O93 1.247 . S
O75 C74 1.224 . S
N76 Co66 2.128 . S
N76 C77 1.355 . S
N76 C79 1.311 . S
C77 N76 1.355 . S
C77 C78 1.363 . S
C77 H89 0.929 . S
C78 C77 1.363 . S
C78 N80 1.375 . S
C78 H96 0.931 . S
C79 N76 1.311 . S
C79 N80 1.347 . S
C79 H90 0.929 . S
N80 C78 1.375 . S
N80 C79 1.347 . S
C81 C84 1.365 . S
C81 N86 1.328 . S
C81 H87 0.929 . S
C82 C83 1.362 . S
C82 C85 1.378 . S
C82 H97 0.929 . S
C83 C82 1.362 . S
C83 C84 1.366 . S
C84 C81 1.365 . S
C84 C83 1.366 . S
C84 H98 0.930 . S
C85 C82 1.378 . S
C85 N86 1.315 . S
C85 H88 0.930 . S
N86 Co66 2.194 . S
N86 C81 1.328 . S
N86 C85 1.315 . S
H87 C81 0.929 . S
H88 C85 0.930 . S
H89 C77 0.929 . S
H90 C79 0.929 . S
O91 Co66 2.351 . S
O91 C94 1.244 . S
O92 Co66 2.155 . S
O92 C94 1.240 . S
O93 Co66 2.096 . S
O93 C74 1.247 . S
C94 O91 1.244 . S
C94 O92 1.240 . S
H95 C69 0.931 . S
H96 C78 0.931 . S
H97 C82 0.929 . S
H98 C84 0.930 . S
Co99 N103 2.148 1_554 S
Co99 N109 2.128 . S
Co99 N119 2.194 . S
Co99 O124 2.351 . S
Co99 O125 2.155 . S
Co99 O126 2.096 1_554 S
C100 N103 1.301 . S
C100 N104 1.328 . S
C100 H105 0.930 1_556 S
C101 C102 1.333 . S
C101 N103 1.317 . S
C101 H106 0.930 . S
C102 C101 1.333 . S
C102 N104 1.350 . S
C102 H128 0.931 . S
N103 Co99 2.148 1_556 S
N103 C100 1.301 . S
N103 C101 1.317 . S
N104 C100 1.328 . S
N104 C102 1.350 . S
H105 C100 0.930 1_554 S
H106 C101 0.930 . S
C107 O108 1.224 . S
C107 O126 1.247 . S
O108 C107 1.224 . S
N109 Co99 2.128 . S
N109 C110 1.355 . S
N109 C112 1.311 . S
C110 N109 1.355 . S
C110 C111 1.363 . S
C110 H122 0.929 . S
C111 C110 1.363 . S
C111 N113 1.375 . S
C111 H129 0.931 . S
C112 N109 1.311 . S
C112 N113 1.347 . S
C112 H123 0.929 . S
N113 C111 1.375 . S
N113 C112 1.347 . S
C114 C117 1.365 . S
C114 N119 1.328 . S
C114 H120 0.929 . S
C115 C116 1.362 . S
C115 C118 1.378 . S
C115 H130 0.929 . S
C116 C115 1.362 . S
C116 C117 1.366 . S
C117 C114 1.365 . S
C117 C116 1.366 . S
C117 H131 0.930 . S
C118 C115 1.378 . S
C118 N119 1.315 . S
C118 H121 0.933 . S
N119 Co99 2.194 . S
N119 C114 1.328 . S
N119 C118 1.315 . S
H120 C114 0.929 . S
H121 C118 0.933 . S
H122 C110 0.929 . S
H123 C112 0.929 . S
O124 Co99 2.351 . S
O124 C127 1.244 . S
O125 Co99 2.155 . S
O125 C127 1.240 . S
O126 Co99 2.096 1_556 S
O126 C107 1.247 . S
C127 O124 1.244 . S
C127 O125 1.240 . S
H128 C102 0.931 . S
H129 C111 0.931 . S
H130 C115 0.929 . S
H131 C117 0.930 . S
Co132 N136 2.148 . S
Co132 N142 2.128 . S
Co132 N152 2.194 . S
Co132 O157 2.351 . S
Co132 O158 2.155 . S
Co132 O159 2.096 . S
C133 N136 1.301 . S
C133 N137 1.328 . S
C133 H138 0.930 . S
C134 C135 1.333 . S
C134 N136 1.317 . S
C134 H139 0.930 . S
C135 C134 1.333 . S
C135 N137 1.350 . S
C135 H161 0.931 . S
N136 Co132 2.148 . S
N136 C133 1.301 . S
N136 C134 1.317 . S
N137 C133 1.328 . S
N137 C135 1.350 . S
H138 C133 0.930 . S
H139 C134 0.930 . S
C140 O141 1.224 . S
C140 O159 1.247 . S
O141 C140 1.224 . S
N142 Co132 2.128 . S
N142 C143 1.355 . S
N142 C145 1.311 . S
C143 N142 1.355 . S
C143 C144 1.363 . S
C143 H155 0.929 . S
C144 C143 1.363 . S
C144 N146 1.375 . S
C144 H162 0.931 . S
C145 N142 1.311 . S
C145 N146 1.347 . S
C145 H156 0.929 . S
N146 C144 1.375 . S
N146 C145 1.347 . S
C147 C150 1.365 . S
C147 N152 1.328 . S
C147 H153 0.929 . S
C148 C149 1.362 . S
C148 C151 1.378 . S
C148 H163 0.929 . S
C149 C148 1.362 . S
C149 C150 1.366 . S
C150 C147 1.365 . S
C150 C149 1.366 . S
C150 H164 0.930 . S
C151 C148 1.378 . S
C151 N152 1.315 . S
C151 H154 0.930 . S
N152 Co132 2.194 . S
N152 C147 1.328 . S
N152 C151 1.315 . S
H153 C147 0.929 . S
H154 C151 0.930 . S
H155 C143 0.929 . S
H156 C145 0.929 . S
O157 Co132 2.351 . S
O157 C160 1.244 . S
O158 Co132 2.155 . S
O158 C160 1.240 . S
O159 Co132 2.096 . S
O159 C140 1.247 . S
C160 O157 1.244 . S
C160 O158 1.240 . S
H161 C135 0.931 . S
H162 C144 0.931 . S
H163 C148 0.929 . S
H164 C150 0.930 . S
Co165 N169 2.148 1_556 S
Co165 N175 2.128 . S
Co165 N185 2.194 . S
Co165 O190 2.351 . S
Co165 O191 2.155 . S
Co165 O192 2.096 1_556 S
C166 N169 1.301 . S
C166 N170 1.328 . S
C166 H171 0.930 1_554 S
C167 C168 1.333 . S
C167 N169 1.317 . S
C167 H172 0.930 . S
C168 C167 1.333 . S
C168 N170 1.350 . S
C168 H194 0.931 . S
N169 Co165 2.148 1_554 S
N169 C166 1.301 . S
N169 C167 1.317 . S
N170 C166 1.328 . S
N170 C168 1.350 . S
H171 C166 0.930 1_556 S
H172 C167 0.930 . S
C173 O174 1.224 . S
C173 O192 1.247 . S
O174 C173 1.224 . S
N175 Co165 2.128 . S
N175 C176 1.355 . S
N175 C178 1.311 . S
C176 N175 1.355 . S
C176 C177 1.363 . S
C176 H188 0.929 . S
C177 C176 1.363 . S
C177 N179 1.375 . S
C177 H195 0.931 . S
C178 N175 1.311 . S
C178 N179 1.347 . S
C178 H189 0.929 . S
N179 C177 1.375 . S
N179 C178 1.347 . S
C180 C183 1.365 . S
C180 N185 1.328 . S
C180 H186 0.929 . S
C181 C182 1.362 . S
C181 C184 1.378 . S
C181 H196 0.929 . S
C182 C181 1.362 . S
C182 C183 1.366 . S
C183 C180 1.365 . S
C183 C182 1.366 . S
C183 H197 0.930 . S
C184 C181 1.378 . S
C184 N185 1.315 . S
C184 H187 0.933 . S
N185 Co165 2.194 . S
N185 C180 1.328 . S
N185 C184 1.315 . S
H186 C180 0.929 . S
H187 C184 0.933 . S
H188 C176 0.929 . S
H189 C178 0.929 . S
O190 Co165 2.351 . S
O190 C193 1.244 . S
O191 Co165 2.155 . S
O191 C193 1.240 . S
O192 Co165 2.096 1_554 S
O192 C173 1.247 . S
C193 O190 1.244 . S
C193 O191 1.240 . S
H194 C168 0.931 . S
H195 C177 0.931 . S
H196 C181 0.929 . S
H197 C183 0.930 . S
Co198 N202 2.148 . S
Co198 N208 2.128 . S
Co198 N218 2.194 . S
Co198 O223 2.351 . S
Co198 O224 2.155 . S
Co198 O225 2.096 . S
C199 N202 1.301 . S
C199 N203 1.328 . S
C199 H204 0.930 . S
C200 C201 1.333 . S
C200 N202 1.317 . S
C200 H205 0.930 . S
C201 C200 1.333 . S
C201 N203 1.350 . S
C201 H227 0.931 . S
N202 Co198 2.148 . S
N202 C199 1.301 . S
N202 C200 1.317 . S
N203 C199 1.328 . S
N203 C201 1.350 . S
H204 C199 0.930 . S
H205 C200 0.930 . S
C206 O207 1.224 . S
C206 O225 1.247 . S
O207 C206 1.224 . S
N208 Co198 2.128 . S
N208 C209 1.355 . S
N208 C211 1.311 . S
C209 N208 1.355 . S
C209 C210 1.363 . S
C209 H221 0.929 . S
C210 C209 1.363 . S
C210 N212 1.375 . S
C210 H228 0.931 . S
C211 N208 1.311 . S
C211 N212 1.347 . S
C211 H222 0.929 . S
N212 C210 1.375 . S
N212 C211 1.347 . S
C213 C216 1.365 . S
C213 N218 1.328 . S
C213 H219 0.929 . S
C214 C215 1.362 . S
C214 C217 1.378 . S
C214 H229 0.929 . S
C215 C214 1.362 . S
C215 C216 1.366 . S
C216 C213 1.365 . S
C216 C215 1.366 . S
C216 H230 0.930 . S
C217 C214 1.378 . S
C217 N218 1.315 . S
C217 H220 0.930 . S
N218 Co198 2.194 . S
N218 C213 1.328 . S
N218 C217 1.315 . S
H219 C213 0.929 . S
H220 C217 0.930 . S
H221 C209 0.929 . S
H222 C211 0.929 . S
O223 Co198 2.351 . S
O223 C226 1.244 . S
O224 Co198 2.155 . S
O224 C226 1.240 . S
O225 Co198 2.096 . S
O225 C206 1.247 . S
C226 O223 1.244 . S
C226 O224 1.240 . S
H227 C201 0.931 . S
H228 C210 0.931 . S
H229 C214 0.929 . S
H230 C216 0.930 . S
Co231 N235 2.148 1_556 S
Co231 N241 2.128 . S
Co231 N251 2.194 . S
Co231 O256 2.351 . S
Co231 O257 2.155 . S
Co231 O258 2.096 1_556 S
C232 N235 1.301 . S
C232 N236 1.328 . S
C232 H237 0.930 1_554 S
C233 C234 1.333 . S
C233 N235 1.317 . S
C233 H238 0.930 . S
C234 C233 1.333 . S
C234 N236 1.350 . S
C234 H260 0.931 . S
N235 Co231 2.148 1_554 S
N235 C232 1.301 . S
N235 C233 1.317 . S
N236 C232 1.328 . S
N236 C234 1.350 . S
H237 C232 0.930 1_556 S
H238 C233 0.930 . S
C239 O240 1.224 . S
C239 O258 1.247 . S
O240 C239 1.224 . S
N241 Co231 2.128 . S
N241 C242 1.355 . S
N241 C244 1.311 . S
C242 N241 1.355 . S
C242 C243 1.363 . S
C242 H254 0.929 . S
C243 C242 1.363 . S
C243 N245 1.375 . S
C243 H261 0.931 . S
C244 N241 1.311 . S
C244 N245 1.347 . S
C244 H255 0.929 . S
N245 C243 1.375 . S
N245 C244 1.347 . S
C246 C249 1.365 . S
C246 N251 1.328 . S
C246 H252 0.929 . S
C247 C248 1.362 . S
C247 C250 1.378 . S
C247 H262 0.929 . S
C248 C247 1.362 . S
C248 C249 1.366 . S
C249 C246 1.365 . S
C249 C248 1.366 . S
C249 H263 0.930 . S
C250 C247 1.378 . S
C250 N251 1.315 . S
C250 H253 0.933 . S
N251 Co231 2.194 . S
N251 C246 1.328 . S
N251 C250 1.315 . S
H252 C246 0.929 . S
H253 C250 0.933 . S
H254 C242 0.929 . S
H255 C244 0.929 . S
O256 Co231 2.351 . S
O256 C259 1.244 . S
O257 Co231 2.155 . S
O257 C259 1.240 . S
O258 Co231 2.096 1_554 S
O258 C239 1.247 . S
C259 O256 1.244 . S
C259 O257 1.240 . S
H260 C234 0.931 . S
H261 C243 0.931 . S
H262 C247 0.929 . S
H263 C249 0.930 . S
Co264 N268 2.148 . S
Co264 N274 2.128 . S
Co264 N284 2.194 . S
Co264 O289 2.351 . S
Co264 O290 2.155 . S
Co264 O291 2.096 . S
C265 N268 1.301 . S
C265 N269 1.328 . S
C265 H270 0.930 . S
C266 C267 1.333 . S
C266 N268 1.317 . S
C266 H271 0.930 . S
C267 C266 1.333 . S
C267 N269 1.350 . S
C267 H293 0.931 . S
N268 Co264 2.148 . S
N268 C265 1.301 . S
N268 C266 1.317 . S
N269 C265 1.328 . S
N269 C267 1.350 . S
H270 C265 0.930 . S
H271 C266 0.930 . S
C272 O273 1.224 . S
C272 O291 1.247 . S
O273 C272 1.224 . S
N274 Co264 2.128 . S
N274 C275 1.355 . S
N274 C277 1.311 . S
C275 N274 1.355 . S
C275 C276 1.363 . S
C275 H287 0.929 . S
C276 C275 1.363 . S
C276 N278 1.375 . S
C276 H294 0.931 . S
C277 N274 1.311 . S
C277 N278 1.347 . S
C277 H288 0.929 . S
N278 C276 1.375 . S
N278 C277 1.347 . S
C279 C282 1.365 . S
C279 N284 1.328 . S
C279 H285 0.929 . S
C280 C281 1.362 . S
C280 C283 1.378 . S
C280 H295 0.929 . S
C281 C280 1.362 . S
C281 C282 1.366 . S
C282 C279 1.365 . S
C282 C281 1.366 . S
C282 H296 0.930 . S
C283 C280 1.378 . S
C283 N284 1.315 . S
C283 H286 0.930 . S
N284 Co264 2.194 . S
N284 C279 1.328 . S
N284 C283 1.315 . S
H285 C279 0.929 . S
H286 C283 0.930 . S
H287 C275 0.929 . S
H288 C277 0.929 . S
O289 Co264 2.351 . S
O289 C292 1.244 . S
O290 Co264 2.155 . S
O290 C292 1.240 . S
O291 Co264 2.096 . S
O291 C272 1.247 . S
C292 O289 1.244 . S
C292 O290 1.240 . S
H293 C267 0.931 . S
H294 C276 0.931 . S
H295 C280 0.929 . S
H296 C282 0.930 . S
Co297 N301 2.148 . S
Co297 N307 2.128 . S
Co297 N317 2.194 . S
Co297 O322 2.351 . S
Co297 O323 2.155 . S
Co297 O324 2.096 . S
C298 N301 1.301 . S
C298 N302 1.328 . S
C298 H303 0.930 . S
C299 C300 1.333 . S
C299 N301 1.317 . S
C299 H304 0.930 . S
C300 C299 1.333 . S
C300 N302 1.350 . S
C300 H326 0.931 . S
N301 Co297 2.148 . S
N301 C298 1.301 . S
N301 C299 1.317 . S
N302 C298 1.328 . S
N302 C300 1.350 . S
H303 C298 0.930 . S
H304 C299 0.930 . S
C305 O306 1.224 . S
C305 O324 1.247 . S
O306 C305 1.224 . S
N307 Co297 2.128 . S
N307 C308 1.355 . S
N307 C310 1.311 . S
C308 N307 1.355 . S
C308 C309 1.363 . S
C308 H320 0.929 . S
C309 C308 1.363 . S
C309 N311 1.375 . S
C309 H327 0.931 . S
C310 N307 1.311 . S
C310 N311 1.347 . S
C310 H321 0.929 . S
N311 C309 1.375 . S
N311 C310 1.347 . S
C312 C315 1.365 . S
C312 N317 1.328 . S
C312 H318 0.929 . S
C313 C314 1.362 . S
C313 C316 1.378 . S
C313 H328 0.929 . S
C314 C313 1.362 . S
C314 C315 1.366 . S
C315 C312 1.365 . S
C315 C314 1.366 . S
C315 H329 0.930 . S
C316 C313 1.378 . S
C316 N317 1.315 . S
C316 H319 0.930 . S
N317 Co297 2.194 . S
N317 C312 1.328 . S
N317 C316 1.315 . S
H318 C312 0.929 . S
H319 C316 0.930 . S
H320 C308 0.929 . S
H321 C310 0.929 . S
O322 Co297 2.351 . S
O322 C325 1.244 . S
O323 Co297 2.155 . S
O323 C325 1.240 . S
O324 Co297 2.096 . S
O324 C305 1.247 . S
C325 O322 1.244 . S
C325 O323 1.240 . S
H326 C300 0.931 . S
H327 C309 0.931 . S
H328 C313 0.929 . S
H329 C315 0.930 . S
Co330 N334 2.148 . S
Co330 N340 2.128 . S
Co330 N350 2.194 . S
Co330 O355 2.351 . S
Co330 O356 2.155 . S
Co330 O357 2.096 . S
C331 N334 1.301 . S
C331 N335 1.328 . S
C331 H336 0.930 . S
C332 C333 1.333 . S
C332 N334 1.317 . S
C332 H337 0.930 . S
C333 C332 1.333 . S
C333 N335 1.350 . S
C333 H359 0.931 . S
N334 Co330 2.148 . S
N334 C331 1.301 . S
N334 C332 1.317 . S
N335 C331 1.328 . S
N335 C333 1.350 . S
H336 C331 0.930 . S
H337 C332 0.930 . S
C338 O339 1.224 . S
C338 O357 1.247 . S
O339 C338 1.224 . S
N340 Co330 2.128 . S
N340 C341 1.355 . S
N340 C343 1.311 . S
C341 N340 1.355 . S
C341 C342 1.363 . S
C341 H353 0.929 . S
C342 C341 1.363 . S
C342 N344 1.375 . S
C342 H360 0.931 . S
C343 N340 1.311 . S
C343 N344 1.347 . S
C343 H354 0.929 . S
N344 C342 1.375 . S
N344 C343 1.347 . S
C345 C348 1.365 . S
C345 N350 1.328 . S
C345 H351 0.929 . S
C346 C347 1.362 . S
C346 C349 1.378 . S
C346 H361 0.929 . S
C347 C346 1.362 . S
C347 C348 1.366 . S
C348 C345 1.365 . S
C348 C347 1.366 . S
C348 H362 0.930 . S
C349 C346 1.378 . S
C349 N350 1.315 . S
C349 H352 0.930 . S
N350 Co330 2.194 . S
N350 C345 1.328 . S
N350 C349 1.315 . S
H351 C345 0.929 . S
H352 C349 0.930 . S
H353 C341 0.929 . S
H354 C343 0.929 . S
O355 Co330 2.351 . S
O355 C358 1.244 . S
O356 Co330 2.155 . S
O356 C358 1.240 . S
O357 Co330 2.096 . S
O357 C338 1.247 . S
C358 O355 1.244 . S
C358 O356 1.240 . S
H359 C333 0.931 . S
H360 C342 0.931 . S
H361 C346 0.929 . S
H362 C348 0.930 . S
Co363 N367 2.148 1_565 S
Co363 N373 2.128 . S
Co363 N383 2.194 . S
Co363 O388 2.351 . S
Co363 O389 2.155 . S
Co363 O390 2.096 1_565 S
C364 N367 1.301 . S
C364 N368 1.328 . S
C364 H369 0.930 1_545 S
C365 C366 1.333 . S
C365 N367 1.317 . S
C365 H370 0.930 . S
C366 C365 1.333 . S
C366 N368 1.350 . S
C366 H392 0.931 . S
N367 Co363 2.148 1_545 S
N367 C364 1.301 . S
N367 C365 1.317 . S
N368 C364 1.328 . S
N368 C366 1.350 . S
H369 C364 0.930 1_565 S
H370 C365 0.930 . S
C371 O372 1.224 . S
C371 O390 1.247 . S
O372 C371 1.224 . S
N373 Co363 2.128 . S
N373 C374 1.355 . S
N373 C376 1.311 . S
C374 N373 1.355 . S
C374 C375 1.363 . S
C374 H386 0.929 . S
C375 C374 1.363 . S
C375 N377 1.375 . S
C375 H393 0.931 . S
C376 N373 1.311 . S
C376 N377 1.347 . S
C376 H387 0.929 . S
N377 C375 1.375 . S
N377 C376 1.347 . S
C378 C381 1.365 . S
C378 N383 1.328 . S
C378 H384 0.929 . S
C379 C380 1.362 . S
C379 C382 1.378 . S
C379 H394 0.929 . S
C380 C379 1.362 . S
C380 C381 1.366 . S
C381 C378 1.365 . S
C381 C380 1.366 . S
C381 H395 0.930 . S
C382 C379 1.378 . S
C382 N383 1.315 . S
C382 H385 0.933 . S
N383 Co363 2.194 . S
N383 C378 1.328 . S
N383 C382 1.315 . S
H384 C378 0.929 . S
H385 C382 0.933 . S
H386 C374 0.929 . S
H387 C376 0.929 . S
O388 Co363 2.351 . S
O388 C391 1.244 . S
O389 Co363 2.155 . S
O389 C391 1.240 . S
O390 Co363 2.096 1_545 S
O390 C371 1.247 . S
C391 O388 1.244 . S
C391 O389 1.240 . S
H392 C366 0.931 . S
H393 C375 0.931 . S
H394 C379 0.929 . S
H395 C381 0.930 . S
Co396 N400 2.148 . S
Co396 N406 2.128 . S
Co396 N416 2.194 . S
Co396 O421 2.351 . S
Co396 O422 2.155 . S
Co396 O423 2.096 . S
C397 N400 1.301 . S
C397 N401 1.328 . S
C397 H402 0.930 . S
C398 C399 1.333 . S
C398 N400 1.317 . S
C398 H403 0.930 . S
C399 C398 1.333 . S
C399 N401 1.350 . S
C399 H425 0.931 . S
N400 Co396 2.148 . S
N400 C397 1.301 . S
N400 C398 1.317 . S
N401 C397 1.328 . S
N401 C399 1.350 . S
H402 C397 0.930 . S
H403 C398 0.930 . S
C404 O405 1.224 . S
C404 O423 1.247 . S
O405 C404 1.224 . S
N406 Co396 2.128 . S
N406 C407 1.355 . S
N406 C409 1.311 . S
C407 N406 1.355 . S
C407 C408 1.363 . S
C407 H419 0.929 . S
C408 C407 1.363 . S
C408 N410 1.375 . S
C408 H426 0.931 . S
C409 N406 1.311 . S
C409 N410 1.347 . S
C409 H420 0.929 . S
N410 C408 1.375 . S
N410 C409 1.347 . S
C411 C414 1.365 . S
C411 N416 1.328 . S
C411 H417 0.929 . S
C412 C413 1.362 . S
C412 C415 1.378 . S
C412 H427 0.929 . S
C413 C412 1.362 . S
C413 C414 1.366 . S
C414 C411 1.365 . S
C414 C413 1.366 . S
C414 H428 0.930 . S
C415 C412 1.378 . S
C415 N416 1.315 . S
C415 H418 0.930 . S
N416 Co396 2.194 . S
N416 C411 1.328 . S
N416 C415 1.315 . S
H417 C411 0.929 . S
H418 C415 0.930 . S
H419 C407 0.929 . S
H420 C409 0.929 . S
O421 Co396 2.351 . S
O421 C424 1.244 . S
O422 Co396 2.155 . S
O422 C424 1.240 . S
O423 Co396 2.096 . S
O423 C404 1.247 . S
C424 O421 1.244 . S
C424 O422 1.240 . S
H425 C399 0.931 . S
H426 C408 0.931 . S
H427 C412 0.929 . S
H428 C414 0.930 . S
Co429 N433 2.148 . S
Co429 N439 2.128 . S
Co429 N449 2.194 . S
Co429 O454 2.351 . S
Co429 O455 2.155 . S
Co429 O456 2.096 . S
C430 N433 1.301 . S
C430 N434 1.328 . S
C430 H435 0.930 . S
C431 C432 1.333 . S
C431 N433 1.317 . S
C431 H436 0.930 . S
C432 C431 1.333 . S
C432 N434 1.350 . S
C432 H458 0.931 . S
N433 Co429 2.148 . S
N433 C430 1.301 . S
N433 C431 1.317 . S
N434 C430 1.328 . S
N434 C432 1.350 . S
H435 C430 0.930 . S
H436 C431 0.930 . S
C437 O438 1.224 . S
C437 O456 1.247 . S
O438 C437 1.224 . S
N439 Co429 2.128 . S
N439 C440 1.355 . S
N439 C442 1.311 . S
C440 N439 1.355 . S
C440 C441 1.363 . S
C440 H452 0.929 . S
C441 C440 1.363 . S
C441 N443 1.375 . S
C441 H459 0.931 . S
C442 N439 1.311 . S
C442 N443 1.347 . S
C442 H453 0.929 . S
N443 C441 1.375 . S
N443 C442 1.347 . S
C444 C447 1.365 . S
C444 N449 1.328 . S
C444 H450 0.929 . S
C445 C446 1.362 . S
C445 C448 1.378 . S
C445 H460 0.929 . S
C446 C445 1.362 . S
C446 C447 1.366 . S
C447 C444 1.365 . S
C447 C446 1.366 . S
C447 H461 0.930 . S
C448 C445 1.378 . S
C448 N449 1.315 . S
C448 H451 0.930 . S
N449 Co429 2.194 . S
N449 C444 1.328 . S
N449 C448 1.315 . S
H450 C444 0.929 . S
H451 C448 0.930 . S
H452 C440 0.929 . S
H453 C442 0.929 . S
O454 Co429 2.351 . S
O454 C457 1.244 . S
O455 Co429 2.155 . S
O455 C457 1.240 . S
O456 Co429 2.096 . S
O456 C437 1.247 . S
C457 O454 1.244 . S
C457 O455 1.240 . S
H458 C432 0.931 . S
H459 C441 0.931 . S
H460 C445 0.929 . S
H461 C447 0.930 . S
Co462 N466 2.148 . S
Co462 N472 2.128 . S
Co462 N482 2.194 . S
Co462 O487 2.351 . S
Co462 O488 2.155 . S
Co462 O489 2.096 . S
C463 N466 1.301 . S
C463 N467 1.328 . S
C463 H468 0.930 . S
C464 C465 1.333 . S
C464 N466 1.317 . S
C464 H469 0.930 . S
C465 C464 1.333 . S
C465 N467 1.350 . S
C465 H491 0.931 . S
N466 Co462 2.148 . S
N466 C463 1.301 . S
N466 C464 1.317 . S
N467 C463 1.328 . S
N467 C465 1.350 . S
H468 C463 0.930 . S
H469 C464 0.930 . S
C470 O471 1.224 . S
C470 O489 1.247 . S
O471 C470 1.224 . S
N472 Co462 2.128 . S
N472 C473 1.355 . S
N472 C475 1.311 . S
C473 N472 1.355 . S
C473 C474 1.363 . S
C473 H485 0.929 . S
C474 C473 1.363 . S
C474 N476 1.375 . S
C474 H492 0.931 . S
C475 N472 1.311 . S
C475 N476 1.347 . S
C475 H486 0.929 . S
N476 C474 1.375 . S
N476 C475 1.347 . S
C477 C480 1.365 . S
C477 N482 1.328 . S
C477 H483 0.929 . S
C478 C479 1.362 . S
C478 C481 1.378 . S
C478 H493 0.929 . S
C479 C478 1.362 . S
C479 C480 1.366 . S
C480 C477 1.365 . S
C480 C479 1.366 . S
C480 H494 0.930 . S
C481 C478 1.378 . S
C481 N482 1.315 . S
C481 H484 0.930 . S
N482 Co462 2.194 . S
N482 C477 1.328 . S
N482 C481 1.315 . S
H483 C477 0.929 . S
H484 C481 0.930 . S
H485 C473 0.929 . S
H486 C475 0.929 . S
O487 Co462 2.351 . S
O487 C490 1.244 . S
O488 Co462 2.155 . S
O488 C490 1.240 . S
O489 Co462 2.096 . S
O489 C470 1.247 . S
C490 O487 1.244 . S
C490 O488 1.240 . S
H491 C465 0.931 . S
H492 C474 0.931 . S
H493 C478 0.929 . S
H494 C480 0.930 . S
Co495 N499 2.148 1_565 S
Co495 N505 2.128 . S
Co495 N515 2.194 . S
Co495 O520 2.351 . S
Co495 O521 2.155 . S
Co495 O522 2.096 1_565 S
C496 N499 1.301 . S
C496 N500 1.328 . S
C496 H501 0.930 1_545 S
C497 C498 1.333 . S
C497 N499 1.317 . S
C497 H502 0.930 . S
C498 C497 1.333 . S
C498 N500 1.350 . S
C498 H524 0.931 . S
N499 Co495 2.148 1_545 S
N499 C496 1.301 . S
N499 C497 1.317 . S
N500 C496 1.328 . S
N500 C498 1.350 . S
H501 C496 0.930 1_565 S
H502 C497 0.930 . S
C503 O504 1.224 . S
C503 O522 1.247 . S
O504 C503 1.224 . S
N505 Co495 2.128 . S
N505 C506 1.355 . S
N505 C508 1.311 . S
C506 N505 1.355 . S
C506 C507 1.363 . S
C506 H518 0.929 . S
C507 C506 1.363 . S
C507 N509 1.375 . S
C507 H525 0.931 . S
C508 N505 1.311 . S
C508 N509 1.347 . S
C508 H519 0.929 . S
N509 C507 1.375 . S
N509 C508 1.347 . S
C510 C513 1.365 . S
C510 N515 1.328 . S
C510 H516 0.929 . S
C511 C512 1.362 . S
C511 C514 1.378 . S
C511 H526 0.929 . S
C512 C511 1.362 . S
C512 C513 1.366 . S
C513 C510 1.365 . S
C513 C512 1.366 . S
C513 H527 0.930 . S
C514 C511 1.378 . S
C514 N515 1.315 . S
C514 H517 0.933 . S
N515 Co495 2.194 . S
N515 C510 1.328 . S
N515 C514 1.315 . S
H516 C510 0.929 . S
H517 C514 0.933 . S
H518 C506 0.929 . S
H519 C508 0.929 . S
O520 Co495 2.351 . S
O520 C523 1.244 . S
O521 Co495 2.155 . S
O521 C523 1.240 . S
O522 Co495 2.096 1_545 S
O522 C503 1.247 . S
C523 O520 1.244 . S
C523 O521 1.240 . S
H524 C498 0.931 . S
H525 C507 0.931 . S
H526 C511 0.929 . S
H527 C513 0.930 . S
Co528 N532 2.148 . S
Co528 N538 2.128 . S
Co528 N548 2.194 . S
Co528 O553 2.351 . S
Co528 O554 2.155 . S
Co528 O555 2.096 . S
C529 N532 1.301 . S
C529 N533 1.328 . S
C529 H534 0.930 . S
C530 C531 1.333 . S
C530 N532 1.317 . S
C530 H535 0.930 . S
C531 C530 1.333 . S
C531 N533 1.350 . S
C531 H557 0.931 . S
N532 Co528 2.148 . S
N532 C529 1.301 . S
N532 C530 1.317 . S
N533 C529 1.328 . S
N533 C531 1.350 . S
H534 C529 0.930 . S
H535 C530 0.930 . S
C536 O537 1.224 . S
C536 O555 1.247 . S
O537 C536 1.224 . S
N538 Co528 2.128 . S
N538 C539 1.355 . S
N538 C541 1.311 . S
C539 N538 1.355 . S
C539 C540 1.363 . S
C539 H551 0.929 . S
C540 C539 1.363 . S
C540 N542 1.375 . S
C540 H558 0.931 . S
C541 N538 1.311 . S
C541 N542 1.347 . S
C541 H552 0.929 . S
N542 C540 1.375 . S
N542 C541 1.347 . S
C543 C546 1.365 . S
C543 N548 1.328 . S
C543 H549 0.929 . S
C544 C545 1.362 . S
C544 C547 1.378 . S
C544 H559 0.929 . S
C545 C544 1.362 . S
C545 C546 1.366 . S
C546 C543 1.365 . S
C546 C545 1.366 . S
C546 H560 0.930 . S
C547 C544 1.378 . S
C547 N548 1.315 . S
C547 H550 0.930 . S
N548 Co528 2.194 . S
N548 C543 1.328 . S
N548 C547 1.315 . S
H549 C543 0.929 . S
H550 C547 0.930 . S
H551 C539 0.929 . S
H552 C541 0.929 . S
O553 Co528 2.351 . S
O553 C556 1.244 . S
O554 Co528 2.155 . S
O554 C556 1.240 . S
O555 Co528 2.096 . S
O555 C536 1.247 . S
C556 O553 1.244 . S
C556 O554 1.240 . S
H557 C531 0.931 . S
H558 C540 0.931 . S
H559 C544 0.929 . S
H560 C546 0.930 . S
Co561 N565 2.148 . S
Co561 N571 2.128 . S
Co561 N581 2.194 . S
Co561 O586 2.351 . S
Co561 O587 2.155 . S
Co561 O588 2.096 . S
C562 N565 1.301 . S
C562 N566 1.328 . S
C562 H567 0.930 . S
C563 C564 1.333 . S
C563 N565 1.317 . S
C563 H568 0.930 . S
C564 C563 1.333 . S
C564 N566 1.350 . S
C564 H590 0.931 . S
N565 Co561 2.148 . S
N565 C562 1.301 . S
N565 C563 1.317 . S
N566 C562 1.328 . S
N566 C564 1.350 . S
H567 C562 0.930 . S
H568 C563 0.930 . S
C569 O570 1.224 . S
C569 O588 1.247 . S
O570 C569 1.224 . S
N571 Co561 2.128 . S
N571 C572 1.355 . S
N571 C574 1.311 . S
C572 N571 1.355 . S
C572 C573 1.363 . S
C572 H584 0.929 . S
C573 C572 1.363 . S
C573 N575 1.375 . S
C573 H591 0.931 . S
C574 N571 1.311 . S
C574 N575 1.347 . S
C574 H585 0.929 . S
N575 C573 1.375 . S
N575 C574 1.347 . S
C576 C579 1.365 . S
C576 N581 1.328 . S
C576 H582 0.929 . S
C577 C578 1.362 . S
C577 C580 1.378 . S
C577 H592 0.929 . S
C578 C577 1.362 . S
C578 C579 1.366 . S
C579 C576 1.365 . S
C579 C578 1.366 . S
C579 H593 0.930 . S
C580 C577 1.378 . S
C580 N581 1.315 . S
C580 H583 0.930 . S
N581 Co561 2.194 . S
N581 C576 1.328 . S
N581 C580 1.315 . S
H582 C576 0.929 . S
H583 C580 0.930 . S
H584 C572 0.929 . S
H585 C574 0.929 . S
O586 Co561 2.351 . S
O586 C589 1.244 . S
O587 Co561 2.155 . S
O587 C589 1.240 . S
O588 Co561 2.096 . S
O588 C569 1.247 . S
C589 O586 1.244 . S
C589 O587 1.240 . S
H590 C564 0.931 . S
H591 C573 0.931 . S
H592 C577 0.929 . S
H593 C579 0.930 . S
Co594 N598 2.148 1_455 S
Co594 N604 2.128 . S
Co594 N614 2.194 . S
Co594 O619 2.351 . S
Co594 O620 2.155 . S
Co594 O621 2.096 1_455 S
C595 N598 1.301 . S
C595 N599 1.328 . S
C595 H600 0.930 1_655 S
C596 C597 1.333 . S
C596 N598 1.317 . S
C596 H601 0.930 . S
C597 C596 1.333 . S
C597 N599 1.350 . S
C597 H623 0.931 . S
N598 Co594 2.148 1_655 S
N598 C595 1.301 . S
N598 C596 1.317 . S
N599 C595 1.328 . S
N599 C597 1.350 . S
H600 C595 0.930 1_455 S
H601 C596 0.930 . S
C602 O603 1.224 . S
C602 O621 1.247 . S
O603 C602 1.224 . S
N604 Co594 2.128 . S
N604 C605 1.355 . S
N604 C607 1.311 . S
C605 N604 1.355 . S
C605 C606 1.363 . S
C605 H617 0.929 . S
C606 C605 1.363 . S
C606 N608 1.375 . S
C606 H624 0.931 . S
C607 N604 1.311 . S
C607 N608 1.347 . S
C607 H618 0.929 . S
N608 C606 1.375 . S
N608 C607 1.347 . S
C609 C612 1.365 . S
C609 N614 1.328 . S
C609 H615 0.929 . S
C610 C611 1.362 . S
C610 C613 1.378 . S
C610 H625 0.929 . S
C611 C610 1.362 . S
C611 C612 1.366 . S
C612 C609 1.365 . S
C612 C611 1.366 . S
C612 H626 0.930 . S
C613 C610 1.378 . S
C613 N614 1.315 . S
C613 H616 0.933 . S
N614 Co594 2.194 . S
N614 C609 1.328 . S
N614 C613 1.315 . S
H615 C609 0.929 . S
H616 C613 0.933 . S
H617 C605 0.929 . S
H618 C607 0.929 . S
O619 Co594 2.351 . S
O619 C622 1.244 . S
O620 Co594 2.155 . S
O620 C622 1.240 . S
O621 Co594 2.096 1_655 S
O621 C602 1.247 . S
C622 O619 1.244 . S
C622 O620 1.240 . S
H623 C597 0.931 . S
H624 C606 0.931 . S
H625 C610 0.929 . S
H626 C612 0.930 . S
Co627 N631 2.148 . S
Co627 N637 2.128 . S
Co627 N647 2.194 . S
Co627 O652 2.351 . S
Co627 O653 2.155 . S
Co627 O654 2.096 . S
C628 N631 1.301 . S
C628 N632 1.328 . S
C628 H633 0.930 . S
C629 C630 1.333 . S
C629 N631 1.317 . S
C629 H634 0.930 . S
C630 C629 1.333 . S
C630 N632 1.350 . S
C630 H656 0.931 . S
N631 Co627 2.148 . S
N631 C628 1.301 . S
N631 C629 1.317 . S
N632 C628 1.328 . S
N632 C630 1.350 . S
H633 C628 0.930 . S
H634 C629 0.930 . S
C635 O636 1.224 . S
C635 O654 1.247 . S
O636 C635 1.224 . S
N637 Co627 2.128 . S
N637 C638 1.355 . S
N637 C640 1.311 . S
C638 N637 1.355 . S
C638 C639 1.363 . S
C638 H650 0.929 . S
C639 C638 1.363 . S
C639 N641 1.375 . S
C639 H657 0.931 . S
C640 N637 1.311 . S
C640 N641 1.347 . S
C640 H651 0.929 . S
N641 C639 1.375 . S
N641 C640 1.347 . S
C642 C645 1.365 . S
C642 N647 1.328 . S
C642 H648 0.929 . S
C643 C644 1.362 . S
C643 C646 1.378 . S
C643 H658 0.929 . S
C644 C643 1.362 . S
C644 C645 1.366 . S
C645 C642 1.365 . S
C645 C644 1.366 . S
C645 H659 0.930 . S
C646 C643 1.378 . S
C646 N647 1.315 . S
C646 H649 0.930 . S
N647 Co627 2.194 . S
N647 C642 1.328 . S
N647 C646 1.315 . S
H648 C642 0.929 . S
H649 C646 0.930 . S
H650 C638 0.929 . S
H651 C640 0.929 . S
O652 Co627 2.351 . S
O652 C655 1.244 . S
O653 Co627 2.155 . S
O653 C655 1.240 . S
O654 Co627 2.096 . S
O654 C635 1.247 . S
C655 O652 1.244 . S
C655 O653 1.240 . S
H656 C630 0.931 . S
H657 C639 0.931 . S
H658 C643 0.929 . S
H659 C645 0.930 . S
Co660 N664 2.148 . S
Co660 N670 2.128 . S
Co660 N680 2.194 . S
Co660 O685 2.351 . S
Co660 O686 2.155 . S
Co660 O687 2.096 . S
C661 N664 1.301 . S
C661 N665 1.328 . S
C661 H666 0.930 . S
C662 C663 1.333 . S
C662 N664 1.317 . S
C662 H667 0.930 . S
C663 C662 1.333 . S
C663 N665 1.350 . S
C663 H689 0.931 . S
N664 Co660 2.148 . S
N664 C661 1.301 . S
N664 C662 1.317 . S
N665 C661 1.328 . S
N665 C663 1.350 . S
H666 C661 0.930 . S
H667 C662 0.930 . S
C668 O669 1.224 . S
C668 O687 1.247 . S
O669 C668 1.224 . S
N670 Co660 2.128 . S
N670 C671 1.355 . S
N670 C673 1.311 . S
C671 N670 1.355 . S
C671 C672 1.363 . S
C671 H683 0.929 . S
C672 C671 1.363 . S
C672 N674 1.375 . S
C672 H690 0.931 . S
C673 N670 1.311 . S
C673 N674 1.347 . S
C673 H684 0.929 . S
N674 C672 1.375 . S
N674 C673 1.347 . S
C675 C678 1.365 . S
C675 N680 1.328 . S
C675 H681 0.929 . S
C676 C677 1.362 . S
C676 C679 1.378 . S
C676 H691 0.929 . S
C677 C676 1.362 . S
C677 C678 1.366 . S
C678 C675 1.365 . S
C678 C677 1.366 . S
C678 H692 0.930 . S
C679 C676 1.378 . S
C679 N680 1.315 . S
C679 H682 0.930 . S
N680 Co660 2.194 . S
N680 C675 1.328 . S
N680 C679 1.315 . S
H681 C675 0.929 . S
H682 C679 0.930 . S
H683 C671 0.929 . S
H684 C673 0.929 . S
O685 Co660 2.351 . S
O685 C688 1.244 . S
O686 Co660 2.155 . S
O686 C688 1.240 . S
O687 Co660 2.096 . S
O687 C668 1.247 . S
C688 O685 1.244 . S
C688 O686 1.240 . S
H689 C663 0.931 . S
H690 C672 0.931 . S
H691 C676 0.929 . S
H692 C678 0.930 . S
Co693 N697 2.148 . S
Co693 N703 2.128 . S
Co693 N713 2.194 . S
Co693 O718 2.351 . S
Co693 O719 2.155 . S
Co693 O720 2.096 . S
C694 N697 1.301 . S
C694 N698 1.328 . S
C694 H699 0.930 . S
C695 C696 1.333 . S
C695 N697 1.317 . S
C695 H700 0.930 . S
C696 C695 1.333 . S
C696 N698 1.350 . S
C696 H722 0.931 . S
N697 Co693 2.148 . S
N697 C694 1.301 . S
N697 C695 1.317 . S
N698 C694 1.328 . S
N698 C696 1.350 . S
H699 C694 0.930 . S
H700 C695 0.930 . S
C701 O702 1.224 . S
C701 O720 1.247 . S
O702 C701 1.224 . S
N703 Co693 2.128 . S
N703 C704 1.355 . S
N703 C706 1.311 . S
C704 N703 1.355 . S
C704 C705 1.363 . S
C704 H716 0.929 . S
C705 C704 1.363 . S
C705 N707 1.375 . S
C705 H723 0.931 . S
C706 N703 1.311 . S
C706 N707 1.347 . S
C706 H717 0.929 . S
N707 C705 1.375 . S
N707 C706 1.347 . S
C708 C711 1.365 . S
C708 N713 1.328 . S
C708 H714 0.929 . S
C709 C710 1.362 . S
C709 C712 1.378 . S
C709 H724 0.929 . S
C710 C709 1.362 . S
C710 C711 1.366 . S
C711 C708 1.365 . S
C711 C710 1.366 . S
C711 H725 0.930 . S
C712 C709 1.378 . S
C712 N713 1.315 . S
C712 H715 0.930 . S
N713 Co693 2.194 . S
N713 C708 1.328 . S
N713 C712 1.315 . S
H714 C708 0.929 . S
H715 C712 0.930 . S
H716 C704 0.929 . S
H717 C706 0.929 . S
O718 Co693 2.351 . S
O718 C721 1.244 . S
O719 Co693 2.155 . S
O719 C721 1.240 . S
O720 Co693 2.096 . S
O720 C701 1.247 . S
C721 O718 1.244 . S
C721 O719 1.240 . S
H722 C696 0.931 . S
H723 C705 0.931 . S
H724 C709 0.929 . S
H725 C711 0.930 . S
Co726 N730 2.148 1_455 S
Co726 N736 2.128 . S
Co726 N746 2.194 . S
Co726 O751 2.351 . S
Co726 O752 2.155 . S
Co726 O753 2.096 1_455 S
C727 N730 1.301 . S
C727 N731 1.328 . S
C727 H732 0.930 1_655 S
C728 C729 1.333 . S
C728 N730 1.317 . S
C728 H733 0.930 . S
C729 C728 1.333 . S
C729 N731 1.350 . S
C729 H755 0.931 . S
N730 Co726 2.148 1_655 S
N730 C727 1.301 . S
N730 C728 1.317 . S
N731 C727 1.328 . S
N731 C729 1.350 . S
H732 C727 0.930 1_455 S
H733 C728 0.930 . S
C734 O735 1.224 . S
C734 O753 1.247 . S
O735 C734 1.224 . S
N736 Co726 2.128 . S
N736 C737 1.355 . S
N736 C739 1.311 . S
C737 N736 1.355 . S
C737 C738 1.363 . S
C737 H749 0.929 . S
C738 C737 1.363 . S
C738 N740 1.375 . S
C738 H756 0.931 . S
C739 N736 1.311 . S
C739 N740 1.347 . S
C739 H750 0.929 . S
N740 C738 1.375 . S
N740 C739 1.347 . S
C741 C744 1.365 . S
C741 N746 1.328 . S
C741 H747 0.929 . S
C742 C743 1.362 . S
C742 C745 1.378 . S
C742 H757 0.929 . S
C743 C742 1.362 . S
C743 C744 1.366 . S
C744 C741 1.365 . S
C744 C743 1.366 . S
C744 H758 0.930 . S
C745 C742 1.378 . S
C745 N746 1.315 . S
C745 H748 0.933 . S
N746 Co726 2.194 . S
N746 C741 1.328 . S
N746 C745 1.315 . S
H747 C741 0.929 . S
H748 C745 0.933 . S
H749 C737 0.929 . S
H750 C739 0.929 . S
O751 Co726 2.351 . S
O751 C754 1.244 . S
O752 Co726 2.155 . S
O752 C754 1.240 . S
O753 Co726 2.096 1_655 S
O753 C734 1.247 . S
C754 O751 1.244 . S
C754 O752 1.240 . S
H755 C729 0.931 . S
H756 C738 0.931 . S
H757 C742 0.929 . S
H758 C744 0.930 . S
Co759 N763 2.148 1_655 S
Co759 N769 2.128 . S
Co759 N779 2.194 . S
Co759 O784 2.351 . S
Co759 O785 2.155 . S
Co759 O786 2.096 1_655 S
C760 N763 1.301 . S
C760 N764 1.328 . S
C760 H765 0.930 1_455 S
C761 C762 1.333 . S
C761 N763 1.317 . S
C761 H766 0.930 . S
C762 C761 1.333 . S
C762 N764 1.350 . S
C762 H788 0.931 . S
N763 Co759 2.148 1_455 S
N763 C760 1.301 . S
N763 C761 1.317 . S
N764 C760 1.328 . S
N764 C762 1.350 . S
H765 C760 0.930 1_655 S
H766 C761 0.930 . S
C767 O768 1.224 . S
C767 O786 1.247 . S
O768 C767 1.224 . S
N769 Co759 2.128 . S
N769 C770 1.355 . S
N769 C772 1.311 . S
C770 N769 1.355 . S
C770 C771 1.363 . S
C770 H782 0.929 . S
C771 C770 1.363 . S
C771 N773 1.375 . S
C771 H789 0.931 . S
C772 N769 1.311 . S
C772 N773 1.347 . S
C772 H783 0.929 . S
N773 C771 1.375 . S
N773 C772 1.347 . S
C774 C777 1.365 . S
C774 N779 1.328 . S
C774 H780 0.929 . S
C775 C776 1.362 . S
C775 C778 1.378 . S
C775 H790 0.929 . S
C776 C775 1.362 . S
C776 C777 1.366 . S
C777 C774 1.365 . S
C777 C776 1.366 . S
C777 H791 0.930 . S
C778 C775 1.378 . S
C778 N779 1.315 . S
C778 H781 0.933 . S
N779 Co759 2.194 . S
N779 C774 1.328 . S
N779 C778 1.315 . S
H780 C774 0.929 . S
H781 C778 0.933 . S
H782 C770 0.929 . S
H783 C772 0.929 . S
O784 Co759 2.351 . S
O784 C787 1.244 . S
O785 Co759 2.155 . S
O785 C787 1.240 . S
O786 Co759 2.096 1_455 S
O786 C767 1.247 . S
C787 O784 1.244 . S
C787 O785 1.240 . S
H788 C762 0.931 . S
H789 C771 0.931 . S
H790 C775 0.929 . S
H791 C777 0.930 . S
Co792 N796 2.148 . S
Co792 N802 2.128 . S
Co792 N812 2.194 . S
Co792 O817 2.351 . S
Co792 O818 2.155 . S
Co792 O819 2.096 . S
C793 N796 1.301 . S
C793 N797 1.328 . S
C793 H798 0.930 . S
C794 C795 1.333 . S
C794 N796 1.317 . S
C794 H799 0.930 . S
C795 C794 1.333 . S
C795 N797 1.350 . S
C795 H821 0.931 . S
N796 Co792 2.148 . S
N796 C793 1.301 . S
N796 C794 1.317 . S
N797 C793 1.328 . S
N797 C795 1.350 . S
H798 C793 0.930 . S
H799 C794 0.930 . S
C800 O801 1.224 . S
C800 O819 1.247 . S
O801 C800 1.224 . S
N802 Co792 2.128 . S
N802 C803 1.355 . S
N802 C805 1.311 . S
C803 N802 1.355 . S
C803 C804 1.363 . S
C803 H815 0.929 . S
C804 C803 1.363 . S
C804 N806 1.375 . S
C804 H822 0.931 . S
C805 N802 1.311 . S
C805 N806 1.347 . S
C805 H816 0.929 . S
N806 C804 1.375 . S
N806 C805 1.347 . S
C807 C810 1.365 . S
C807 N812 1.328 . S
C807 H813 0.929 . S
C808 C809 1.362 . S
C808 C811 1.378 . S
C808 H823 0.929 . S
C809 C808 1.362 . S
C809 C810 1.366 . S
C810 C807 1.365 . S
C810 C809 1.366 . S
C810 H824 0.930 . S
C811 C808 1.378 . S
C811 N812 1.315 . S
C811 H814 0.930 . S
N812 Co792 2.194 . S
N812 C807 1.328 . S
N812 C811 1.315 . S
H813 C807 0.929 . S
H814 C811 0.930 . S
H815 C803 0.929 . S
H816 C805 0.929 . S
O817 Co792 2.351 . S
O817 C820 1.244 . S
O818 Co792 2.155 . S
O818 C820 1.240 . S
O819 Co792 2.096 . S
O819 C800 1.247 . S
C820 O817 1.244 . S
C820 O818 1.240 . S
H821 C795 0.931 . S
H822 C804 0.931 . S
H823 C808 0.929 . S
H824 C810 0.930 . S
Co825 N829 2.148 . S
Co825 N835 2.128 . S
Co825 N845 2.194 . S
Co825 O850 2.351 . S
Co825 O851 2.155 . S
Co825 O852 2.096 . S
C826 N829 1.301 . S
C826 N830 1.328 . S
C826 H831 0.930 . S
C827 C828 1.333 . S
C827 N829 1.317 . S
C827 H832 0.930 . S
C828 C827 1.333 . S
C828 N830 1.350 . S
C828 H854 0.931 . S
N829 Co825 2.148 . S
N829 C826 1.301 . S
N829 C827 1.317 . S
N830 C826 1.328 . S
N830 C828 1.350 . S
H831 C826 0.930 . S
H832 C827 0.930 . S
C833 O834 1.224 . S
C833 O852 1.247 . S
O834 C833 1.224 . S
N835 Co825 2.128 . S
N835 C836 1.355 . S
N835 C838 1.311 . S
C836 N835 1.355 . S
C836 C837 1.363 . S
C836 H848 0.929 . S
C837 C836 1.363 . S
C837 N839 1.375 . S
C837 H855 0.931 . S
C838 N835 1.311 . S
C838 N839 1.347 . S
C838 H849 0.929 . S
N839 C837 1.375 . S
N839 C838 1.347 . S
C840 C843 1.365 . S
C840 N845 1.328 . S
C840 H846 0.929 . S
C841 C842 1.362 . S
C841 C844 1.378 . S
C841 H856 0.929 . S
C842 C841 1.362 . S
C842 C843 1.366 . S
C843 C840 1.365 . S
C843 C842 1.366 . S
C843 H857 0.930 . S
C844 C841 1.378 . S
C844 N845 1.315 . S
C844 H847 0.930 . S
N845 Co825 2.194 . S
N845 C840 1.328 . S
N845 C844 1.315 . S
H846 C840 0.929 . S
H847 C844 0.930 . S
H848 C836 0.929 . S
H849 C838 0.929 . S
O850 Co825 2.351 . S
O850 C853 1.244 . S
O851 Co825 2.155 . S
O851 C853 1.240 . S
O852 Co825 2.096 . S
O852 C833 1.247 . S
C853 O850 1.244 . S
C853 O851 1.240 . S
H854 C828 0.931 . S
H855 C837 0.931 . S
H856 C841 0.929 . S
H857 C843 0.930 . S
Co858 N862 2.148 . S
Co858 N868 2.128 . S
Co858 N878 2.194 . S
Co858 O883 2.351 . S
Co858 O884 2.155 . S
Co858 O885 2.096 . S
C859 N862 1.301 . S
C859 N863 1.328 . S
C859 H864 0.930 . S
C860 C861 1.333 . S
C860 N862 1.317 . S
C860 H865 0.930 . S
C861 C860 1.333 . S
C861 N863 1.350 . S
C861 H887 0.931 . S
N862 Co858 2.148 . S
N862 C859 1.301 . S
N862 C860 1.317 . S
N863 C859 1.328 . S
N863 C861 1.350 . S
H864 C859 0.930 . S
H865 C860 0.930 . S
C866 O867 1.224 . S
C866 O885 1.247 . S
O867 C866 1.224 . S
N868 Co858 2.128 . S
N868 C869 1.355 . S
N868 C871 1.311 . S
C869 N868 1.355 . S
C869 C870 1.363 . S
C869 H881 0.929 . S
C870 C869 1.363 . S
C870 N872 1.375 . S
C870 H888 0.931 . S
C871 N868 1.311 . S
C871 N872 1.347 . S
C871 H882 0.929 . S
N872 C870 1.375 . S
N872 C871 1.347 . S
C873 C876 1.365 . S
C873 N878 1.328 . S
C873 H879 0.929 . S
C874 C875 1.362 . S
C874 C877 1.378 . S
C874 H889 0.929 . S
C875 C874 1.362 . S
C875 C876 1.366 . S
C876 C873 1.365 . S
C876 C875 1.366 . S
C876 H890 0.930 . S
C877 C874 1.378 . S
C877 N878 1.315 . S
C877 H880 0.930 . S
N878 Co858 2.194 . S
N878 C873 1.328 . S
N878 C877 1.315 . S
H879 C873 0.929 . S
H880 C877 0.930 . S
H881 C869 0.929 . S
H882 C871 0.929 . S
O883 Co858 2.351 . S
O883 C886 1.244 . S
O884 Co858 2.155 . S
O884 C886 1.240 . S
O885 Co858 2.096 . S
O885 C866 1.247 . S
C886 O883 1.244 . S
C886 O884 1.240 . S
H887 C861 0.931 . S
H888 C870 0.931 . S
H889 C874 0.929 . S
H890 C876 0.930 . S
Co891 N895 2.148 . S
Co891 N901 2.128 . S
Co891 N911 2.194 . S
Co891 O916 2.351 . S
Co891 O917 2.155 . S
Co891 O918 2.096 . S
C892 N895 1.301 . S
C892 N896 1.328 . S
C892 H897 0.930 . S
C893 C894 1.333 . S
C893 N895 1.317 . S
C893 H898 0.930 . S
C894 C893 1.333 . S
C894 N896 1.350 . S
C894 H920 0.931 . S
N895 Co891 2.148 . S
N895 C892 1.301 . S
N895 C893 1.317 . S
N896 C892 1.328 . S
N896 C894 1.350 . S
H897 C892 0.930 . S
H898 C893 0.930 . S
C899 O900 1.224 . S
C899 O918 1.247 . S
O900 C899 1.224 . S
N901 Co891 2.128 . S
N901 C902 1.355 . S
N901 C904 1.311 . S
C902 N901 1.355 . S
C902 C903 1.363 . S
C902 H914 0.929 . S
C903 C902 1.363 . S
C903 N905 1.375 . S
C903 H921 0.931 . S
C904 N901 1.311 . S
C904 N905 1.347 . S
C904 H915 0.929 . S
N905 C903 1.375 . S
N905 C904 1.347 . S
C906 C909 1.365 . S
C906 N911 1.328 . S
C906 H912 0.929 . S
C907 C908 1.362 . S
C907 C910 1.378 . S
C907 H922 0.929 . S
C908 C907 1.362 . S
C908 C909 1.366 . S
C909 C906 1.365 . S
C909 C908 1.366 . S
C909 H923 0.930 . S
C910 C907 1.378 . S
C910 N911 1.315 . S
C910 H913 0.930 . S
N911 Co891 2.194 . S
N911 C906 1.328 . S
N911 C910 1.315 . S
H912 C906 0.929 . S
H913 C910 0.930 . S
H914 C902 0.929 . S
H915 C904 0.929 . S
O916 Co891 2.351 . S
O916 C919 1.244 . S
O917 Co891 2.155 . S
O917 C919 1.240 . S
O918 Co891 2.096 . S
O918 C899 1.247 . S
C919 O916 1.244 . S
C919 O917 1.240 . S
H920 C894 0.931 . S
H921 C903 0.931 . S
H922 C907 0.929 . S
H923 C909 0.930 . S
Co924 N928 2.148 . S
Co924 N934 2.128 . S
Co924 N944 2.194 . S
Co924 O949 2.351 . S
Co924 O950 2.155 . S
Co924 O951 2.096 . S
C925 N928 1.301 . S
C925 N929 1.328 . S
C925 H930 0.930 . S
C926 C927 1.333 . S
C926 N928 1.317 . S
C926 H931 0.930 . S
C927 C926 1.333 . S
C927 N929 1.350 . S
C927 H953 0.931 . S
N928 Co924 2.148 . S
N928 C925 1.301 . S
N928 C926 1.317 . S
N929 C925 1.328 . S
N929 C927 1.350 . S
H930 C925 0.930 . S
H931 C926 0.930 . S
C932 O933 1.224 . S
C932 O951 1.247 . S
O933 C932 1.224 . S
N934 Co924 2.128 . S
N934 C935 1.355 . S
N934 C937 1.311 . S
C935 N934 1.355 . S
C935 C936 1.363 . S
C935 H947 0.929 . S
C936 C935 1.363 . S
C936 N938 1.375 . S
C936 H954 0.931 . S
C937 N934 1.311 . S
C937 N938 1.347 . S
C937 H948 0.929 . S
N938 C936 1.375 . S
N938 C937 1.347 . S
C939 C942 1.365 . S
C939 N944 1.328 . S
C939 H945 0.929 . S
C940 C941 1.362 . S
C940 C943 1.378 . S
C940 H955 0.929 . S
C941 C940 1.362 . S
C941 C942 1.366 . S
C942 C939 1.365 . S
C942 C941 1.366 . S
C942 H956 0.930 . S
C943 C940 1.378 . S
C943 N944 1.315 . S
C943 H946 0.930 . S
N944 Co924 2.194 . S
N944 C939 1.328 . S
N944 C943 1.315 . S
H945 C939 0.929 . S
H946 C943 0.930 . S
H947 C935 0.929 . S
H948 C937 0.929 . S
O949 Co924 2.351 . S
O949 C952 1.244 . S
O950 Co924 2.155 . S
O950 C952 1.240 . S
O951 Co924 2.096 . S
O951 C932 1.247 . S
C952 O949 1.244 . S
C952 O950 1.240 . S
H953 C927 0.931 . S
H954 C936 0.931 . S
H955 C940 0.929 . S
H956 C942 0.930 . S
Co957 N961 2.148 . S
Co957 N967 2.128 . S
Co957 N977 2.194 . S
Co957 O982 2.351 . S
Co957 O983 2.155 . S
Co957 O984 2.096 . S
C958 N961 1.301 . S
C958 N962 1.328 . S
C958 H963 0.930 . S
C959 C960 1.333 . S
C959 N961 1.317 . S
C959 H964 0.930 . S
C960 C959 1.333 . S
C960 N962 1.350 . S
C960 H986 0.931 . S
N961 Co957 2.148 . S
N961 C958 1.301 . S
N961 C959 1.317 . S
N962 C958 1.328 . S
N962 C960 1.350 . S
H963 C958 0.930 . S
H964 C959 0.930 . S
C965 O966 1.224 . S
C965 O984 1.247 . S
O966 C965 1.224 . S
N967 Co957 2.128 . S
N967 C968 1.355 . S
N967 C970 1.311 . S
C968 N967 1.355 . S
C968 C969 1.363 . S
C968 H980 0.929 . S
C969 C968 1.363 . S
C969 N971 1.375 . S
C969 H987 0.931 . S
C970 N967 1.311 . S
C970 N971 1.347 . S
C970 H981 0.929 . S
N971 C969 1.375 . S
N971 C970 1.347 . S
C972 C975 1.365 . S
C972 N977 1.328 . S
C972 H978 0.929 . S
C973 C974 1.362 . S
C973 C976 1.378 . S
C973 H988 0.929 . S
C974 C973 1.362 . S
C974 C975 1.366 . S
C975 C972 1.365 . S
C975 C974 1.366 . S
C975 H989 0.930 . S
C976 C973 1.378 . S
C976 N977 1.315 . S
C976 H979 0.930 . S
N977 Co957 2.194 . S
N977 C972 1.328 . S
N977 C976 1.315 . S
H978 C972 0.929 . S
H979 C976 0.930 . S
H980 C968 0.929 . S
H981 C970 0.929 . S
O982 Co957 2.351 . S
O982 C985 1.244 . S
O983 Co957 2.155 . S
O983 C985 1.240 . S
O984 Co957 2.096 . S
O984 C965 1.247 . S
C985 O982 1.244 . S
C985 O983 1.240 . S
H986 C960 0.931 . S
H987 C969 0.931 . S
H988 C973 0.929 . S
H989 C975 0.930 . S
Co990 N994 2.148 . S
Co990 N1000 2.128 . S
Co990 N1010 2.194 . S
Co990 O1015 2.351 . S
Co990 O1016 2.155 . S
Co990 O1017 2.096 . S
C991 N994 1.301 . S
C991 N995 1.328 . S
C991 H996 0.930 . S
C992 C993 1.333 . S
C992 N994 1.317 . S
C992 H997 0.930 . S
C993 C992 1.333 . S
C993 N995 1.350 . S
C993 H1019 0.931 . S
N994 Co990 2.148 . S
N994 C991 1.301 . S
N994 C992 1.317 . S
N995 C991 1.328 . S
N995 C993 1.350 . S
H996 C991 0.930 . S
H997 C992 0.930 . S
C998 O999 1.224 . S
C998 O1017 1.247 . S
O999 C998 1.224 . S
N1000 Co990 2.128 . S
N1000 C1001 1.355 . S
N1000 C1003 1.311 . S
C1001 N1000 1.355 . S
C1001 C1002 1.363 . S
C1001 H1013 0.929 . S
C1002 C1001 1.363 . S
C1002 N1004 1.375 . S
C1002 H1020 0.931 . S
C1003 N1000 1.311 . S
C1003 N1004 1.347 . S
C1003 H1014 0.929 . S
N1004 C1002 1.375 . S
N1004 C1003 1.347 . S
C1005 C1008 1.365 . S
C1005 N1010 1.328 . S
C1005 H1011 0.929 . S
C1006 C1007 1.362 . S
C1006 C1009 1.378 . S
C1006 H1021 0.929 . S
C1007 C1006 1.362 . S
C1007 C1008 1.366 . S
C1008 C1005 1.365 . S
C1008 C1007 1.366 . S
C1008 H1022 0.930 . S
C1009 C1006 1.378 . S
C1009 N1010 1.315 . S
C1009 H1012 0.930 . S
N1010 Co990 2.194 . S
N1010 C1005 1.328 . S
N1010 C1009 1.315 . S
H1011 C1005 0.929 . S
H1012 C1009 0.930 . S
H1013 C1001 0.929 . S
H1014 C1003 0.929 . S
O1015 Co990 2.351 . S
O1015 C1018 1.244 . S
O1016 Co990 2.155 . S
O1016 C1018 1.240 . S
O1017 Co990 2.096 . S
O1017 C998 1.247 . S
C1018 O1015 1.244 . S
C1018 O1016 1.240 . S
H1019 C993 0.931 . S
H1020 C1002 0.931 . S
H1021 C1006 0.929 . S
H1022 C1008 0.930 . S
Co1023 N1027 2.148 . S
Co1023 N1033 2.128 . S
Co1023 N1043 2.194 . S
Co1023 O1048 2.351 . S
Co1023 O1049 2.155 . S
Co1023 O1050 2.096 . S
C1024 N1027 1.301 . S
C1024 N1028 1.328 . S
C1024 H1029 0.930 . S
C1025 C1026 1.333 . S
C1025 N1027 1.317 . S
C1025 H1030 0.930 . S
C1026 C1025 1.333 . S
C1026 N1028 1.350 . S
C1026 H1052 0.931 . S
N1027 Co1023 2.148 . S
N1027 C1024 1.301 . S
N1027 C1025 1.317 . S
N1028 C1024 1.328 . S
N1028 C1026 1.350 . S
H1029 C1024 0.930 . S
H1030 C1025 0.930 . S
C1031 O1032 1.224 . S
C1031 O1050 1.247 . S
O1032 C1031 1.224 . S
N1033 Co1023 2.128 . S
N1033 C1034 1.355 . S
N1033 C1036 1.311 . S
C1034 N1033 1.355 . S
C1034 C1035 1.363 . S
C1034 H1046 0.929 . S
C1035 C1034 1.363 . S
C1035 N1037 1.375 . S
C1035 H1053 0.931 . S
C1036 N1033 1.311 . S
C1036 N1037 1.347 . S
C1036 H1047 0.929 . S
N1037 C1035 1.375 . S
N1037 C1036 1.347 . S
C1038 C1041 1.365 . S
C1038 N1043 1.328 . S
C1038 H1044 0.929 . S
C1039 C1040 1.362 . S
C1039 C1042 1.378 . S
C1039 H1054 0.929 . S
C1040 C1039 1.362 . S
C1040 C1041 1.366 . S
C1041 C1038 1.365 . S
C1041 C1040 1.366 . S
C1041 H1055 0.930 . S
C1042 C1039 1.378 . S
C1042 N1043 1.315 . S
C1042 H1045 0.930 . S
N1043 Co1023 2.194 . S
N1043 C1038 1.328 . S
N1043 C1042 1.315 . S
H1044 C1038 0.929 . S
H1045 C1042 0.930 . S
H1046 C1034 0.929 . S
H1047 C1036 0.929 . S
O1048 Co1023 2.351 . S
O1048 C1051 1.244 . S
O1049 Co1023 2.155 . S
O1049 C1051 1.240 . S
O1050 Co1023 2.096 . S
O1050 C1031 1.247 . S
C1051 O1048 1.244 . S
C1051 O1049 1.240 . S
H1052 C1026 0.931 . S
H1053 C1035 0.931 . S
H1054 C1039 0.929 . S
H1055 C1041 0.930 . S
Co1056 N1060 2.148 . S
Co1056 N1066 2.128 . S
Co1056 N1076 2.194 . S
Co1056 O1081 2.351 . S
Co1056 O1082 2.155 . S
Co1056 O1083 2.096 . S
C1057 N1060 1.301 . S
C1057 N1061 1.328 . S
C1057 H1062 0.930 . S
C1058 C1059 1.333 . S
C1058 N1060 1.317 . S
C1058 H1063 0.930 . S
C1059 C1058 1.333 . S
C1059 N1061 1.350 . S
C1059 H1085 0.931 . S
N1060 Co1056 2.148 . S
N1060 C1057 1.301 . S
N1060 C1058 1.317 . S
N1061 C1057 1.328 . S
N1061 C1059 1.350 . S
H1062 C1057 0.930 . S
H1063 C1058 0.930 . S
C1064 O1065 1.224 . S
C1064 O1083 1.247 . S
O1065 C1064 1.224 . S
N1066 Co1056 2.128 . S
N1066 C1067 1.355 . S
N1066 C1069 1.311 . S
C1067 N1066 1.355 . S
C1067 C1068 1.363 . S
C1067 H1079 0.929 . S
C1068 C1067 1.363 . S
C1068 N1070 1.375 . S
C1068 H1086 0.931 . S
C1069 N1066 1.311 . S
C1069 N1070 1.347 . S
C1069 H1080 0.929 . S
N1070 C1068 1.375 . S
N1070 C1069 1.347 . S
C1071 C1074 1.365 . S
C1071 N1076 1.328 . S
C1071 H1077 0.929 . S
C1072 C1073 1.362 . S
C1072 C1075 1.378 . S
C1072 H1087 0.929 . S
C1073 C1072 1.362 . S
C1073 C1074 1.366 . S
C1074 C1071 1.365 . S
C1074 C1073 1.366 . S
C1074 H1088 0.930 . S
C1075 C1072 1.378 . S
C1075 N1076 1.315 . S
C1075 H1078 0.930 . S
N1076 Co1056 2.194 . S
N1076 C1071 1.328 . S
N1076 C1075 1.315 . S
H1077 C1071 0.929 . S
H1078 C1075 0.930 . S
H1079 C1067 0.929 . S
H1080 C1069 0.929 . S
O1081 Co1056 2.351 . S
O1081 C1084 1.244 . S
O1082 Co1056 2.155 . S
O1082 C1084 1.240 . S
O1083 Co1056 2.096 . S
O1083 C1064 1.247 . S
C1084 O1081 1.244 . S
C1084 O1082 1.240 . S
H1085 C1059 0.931 . S
H1086 C1068 0.931 . S
H1087 C1072 0.929 . S
H1088 C1074 0.930 . S
Co1089 N1093 2.148 1_545 S
Co1089 N1099 2.128 . S
Co1089 N1109 2.194 . S
Co1089 O1114 2.351 . S
Co1089 O1115 2.155 . S
Co1089 O1116 2.096 1_545 S
C1090 N1093 1.301 . S
C1090 N1094 1.328 . S
C1090 H1095 0.930 1_565 S
C1091 C1092 1.333 . S
C1091 N1093 1.317 . S
C1091 H1096 0.930 . S
C1092 C1091 1.333 . S
C1092 N1094 1.350 . S
C1092 H1118 0.931 . S
N1093 Co1089 2.148 1_565 S
N1093 C1090 1.301 . S
N1093 C1091 1.317 . S
N1094 C1090 1.328 . S
N1094 C1092 1.350 . S
H1095 C1090 0.930 1_545 S
H1096 C1091 0.930 . S
C1097 O1098 1.224 . S
C1097 O1116 1.247 . S
O1098 C1097 1.224 . S
N1099 Co1089 2.128 . S
N1099 C1100 1.355 . S
N1099 C1102 1.311 . S
C1100 N1099 1.355 . S
C1100 C1101 1.363 . S
C1100 H1112 0.929 . S
C1101 C1100 1.363 . S
C1101 N1103 1.375 . S
C1101 H1119 0.931 . S
C1102 N1099 1.311 . S
C1102 N1103 1.347 . S
C1102 H1113 0.929 . S
N1103 C1101 1.375 . S
N1103 C1102 1.347 . S
C1104 C1107 1.365 . S
C1104 N1109 1.328 . S
C1104 H1110 0.929 . S
C1105 C1106 1.362 . S
C1105 C1108 1.378 . S
C1105 H1120 0.929 . S
C1106 C1105 1.362 . S
C1106 C1107 1.366 . S
C1107 C1104 1.365 . S
C1107 C1106 1.366 . S
C1107 H1121 0.930 . S
C1108 C1105 1.378 . S
C1108 N1109 1.315 . S
C1108 H1111 0.933 . S
N1109 Co1089 2.194 . S
N1109 C1104 1.328 . S
N1109 C1108 1.315 . S
H1110 C1104 0.929 . S
H1111 C1108 0.933 . S
H1112 C1100 0.929 . S
H1113 C1102 0.929 . S
O1114 Co1089 2.351 . S
O1114 C1117 1.244 . S
O1115 Co1089 2.155 . S
O1115 C1117 1.240 . S
O1116 Co1089 2.096 1_565 S
O1116 C1097 1.247 . S
C1117 O1114 1.244 . S
C1117 O1115 1.240 . S
H1118 C1092 0.931 . S
H1119 C1101 0.931 . S
H1120 C1105 0.929 . S
H1121 C1107 0.930 . S
Co1122 N1126 2.148 . S
Co1122 N1132 2.128 . S
Co1122 N1142 2.194 . S
Co1122 O1147 2.351 . S
Co1122 O1148 2.155 . S
Co1122 O1149 2.096 . S
C1123 N1126 1.301 . S
C1123 N1127 1.328 . S
C1123 H1128 0.930 . S
C1124 C1125 1.333 . S
C1124 N1126 1.317 . S
C1124 H1129 0.930 . S
C1125 C1124 1.333 . S
C1125 N1127 1.350 . S
C1125 H1151 0.931 . S
N1126 Co1122 2.148 . S
N1126 C1123 1.301 . S
N1126 C1124 1.317 . S
N1127 C1123 1.328 . S
N1127 C1125 1.350 . S
H1128 C1123 0.930 . S
H1129 C1124 0.930 . S
C1130 O1131 1.224 . S
C1130 O1149 1.247 . S
O1131 C1130 1.224 . S
N1132 Co1122 2.128 . S
N1132 C1133 1.355 . S
N1132 C1135 1.311 . S
C1133 N1132 1.355 . S
C1133 C1134 1.363 . S
C1133 H1145 0.929 . S
C1134 C1133 1.363 . S
C1134 N1136 1.375 . S
C1134 H1152 0.931 . S
C1135 N1132 1.311 . S
C1135 N1136 1.347 . S
C1135 H1146 0.929 . S
N1136 C1134 1.375 . S
N1136 C1135 1.347 . S
C1137 C1140 1.365 . S
C1137 N1142 1.328 . S
C1137 H1143 0.929 . S
C1138 C1139 1.362 . S
C1138 C1141 1.378 . S
C1138 H1153 0.929 . S
C1139 C1138 1.362 . S
C1139 C1140 1.366 . S
C1140 C1137 1.365 . S
C1140 C1139 1.366 . S
C1140 H1154 0.930 . S
C1141 C1138 1.378 . S
C1141 N1142 1.315 . S
C1141 H1144 0.930 . S
N1142 Co1122 2.194 . S
N1142 C1137 1.328 . S
N1142 C1141 1.315 . S
H1143 C1137 0.929 . S
H1144 C1141 0.930 . S
H1145 C1133 0.929 . S
H1146 C1135 0.929 . S
O1147 Co1122 2.351 . S
O1147 C1150 1.244 . S
O1148 Co1122 2.155 . S
O1148 C1150 1.240 . S
O1149 Co1122 2.096 . S
O1149 C1130 1.247 . S
C1150 O1147 1.244 . S
C1150 O1148 1.240 . S
H1151 C1125 0.931 . S
H1152 C1134 0.931 . S
H1153 C1138 0.929 . S
H1154 C1140 0.930 . S
Co1155 N1159 2.148 . S
Co1155 N1165 2.128 . S
Co1155 N1175 2.194 . S
Co1155 O1180 2.351 . S
Co1155 O1181 2.155 . S
Co1155 O1182 2.096 . S
C1156 N1159 1.301 . S
C1156 N1160 1.328 . S
C1156 H1161 0.930 . S
C1157 C1158 1.333 . S
C1157 N1159 1.317 . S
C1157 H1162 0.930 . S
C1158 C1157 1.333 . S
C1158 N1160 1.350 . S
C1158 H1184 0.931 . S
N1159 Co1155 2.148 . S
N1159 C1156 1.301 . S
N1159 C1157 1.317 . S
N1160 C1156 1.328 . S
N1160 C1158 1.350 . S
H1161 C1156 0.930 . S
H1162 C1157 0.930 . S
C1163 O1164 1.224 . S
C1163 O1182 1.247 . S
O1164 C1163 1.224 . S
N1165 Co1155 2.128 . S
N1165 C1166 1.355 . S
N1165 C1168 1.311 . S
C1166 N1165 1.355 . S
C1166 C1167 1.363 . S
C1166 H1178 0.929 . S
C1167 C1166 1.363 . S
C1167 N1169 1.375 . S
C1167 H1185 0.931 . S
C1168 N1165 1.311 . S
C1168 N1169 1.347 . S
C1168 H1179 0.929 . S
N1169 C1167 1.375 . S
N1169 C1168 1.347 . S
C1170 C1173 1.365 . S
C1170 N1175 1.328 . S
C1170 H1176 0.929 . S
C1171 C1172 1.362 . S
C1171 C1174 1.378 . S
C1171 H1186 0.929 . S
C1172 C1171 1.362 . S
C1172 C1173 1.366 . S
C1173 C1170 1.365 . S
C1173 C1172 1.366 . S
C1173 H1187 0.930 . S
C1174 C1171 1.378 . S
C1174 N1175 1.315 . S
C1174 H1177 0.930 . S
N1175 Co1155 2.194 . S
N1175 C1170 1.328 . S
N1175 C1174 1.315 . S
H1176 C1170 0.929 . S
H1177 C1174 0.930 . S
H1178 C1166 0.929 . S
H1179 C1168 0.929 . S
O1180 Co1155 2.351 . S
O1180 C1183 1.244 . S
O1181 Co1155 2.155 . S
O1181 C1183 1.240 . S
O1182 Co1155 2.096 . S
O1182 C1163 1.247 . S
C1183 O1180 1.244 . S
C1183 O1181 1.240 . S
H1184 C1158 0.931 . S
H1185 C1167 0.931 . S
H1186 C1171 0.929 . S
H1187 C1173 0.930 . S
Co1188 N1192 2.148 . S
Co1188 N1198 2.128 . S
Co1188 N1208 2.194 . S
Co1188 O1213 2.351 . S
Co1188 O1214 2.155 . S
Co1188 O1215 2.096 . S
C1189 N1192 1.301 . S
C1189 N1193 1.328 . S
C1189 H1194 0.930 . S
C1190 C1191 1.333 . S
C1190 N1192 1.317 . S
C1190 H1195 0.930 . S
C1191 C1190 1.333 . S
C1191 N1193 1.350 . S
C1191 H1217 0.931 . S
N1192 Co1188 2.148 . S
N1192 C1189 1.301 . S
N1192 C1190 1.317 . S
N1193 C1189 1.328 . S
N1193 C1191 1.350 . S
H1194 C1189 0.930 . S
H1195 C1190 0.930 . S
C1196 O1197 1.224 . S
C1196 O1215 1.247 . S
O1197 C1196 1.224 . S
N1198 Co1188 2.128 . S
N1198 C1199 1.355 . S
N1198 C1201 1.311 . S
C1199 N1198 1.355 . S
C1199 C1200 1.363 . S
C1199 H1211 0.929 . S
C1200 C1199 1.363 . S
C1200 N1202 1.375 . S
C1200 H1218 0.931 . S
C1201 N1198 1.311 . S
C1201 N1202 1.347 . S
C1201 H1212 0.929 . S
N1202 C1200 1.375 . S
N1202 C1201 1.347 . S
C1203 C1206 1.365 . S
C1203 N1208 1.328 . S
C1203 H1209 0.929 . S
C1204 C1205 1.362 . S
C1204 C1207 1.378 . S
C1204 H1219 0.929 . S
C1205 C1204 1.362 . S
C1205 C1206 1.366 . S
C1206 C1203 1.365 . S
C1206 C1205 1.366 . S
C1206 H1220 0.930 . S
C1207 C1204 1.378 . S
C1207 N1208 1.315 . S
C1207 H1210 0.930 . S
N1208 Co1188 2.194 . S
N1208 C1203 1.328 . S
N1208 C1207 1.315 . S
H1209 C1203 0.929 . S
H1210 C1207 0.930 . S
H1211 C1199 0.929 . S
H1212 C1201 0.929 . S
O1213 Co1188 2.351 . S
O1213 C1216 1.244 . S
O1214 Co1188 2.155 . S
O1214 C1216 1.240 . S
O1215 Co1188 2.096 . S
O1215 C1196 1.247 . S
C1216 O1213 1.244 . S
C1216 O1214 1.240 . S
H1217 C1191 0.931 . S
H1218 C1200 0.931 . S
H1219 C1204 0.929 . S
H1220 C1206 0.930 . S
Co1221 N1225 2.148 1_545 S
Co1221 N1231 2.128 . S
Co1221 N1241 2.194 . S
Co1221 O1246 2.351 . S
Co1221 O1247 2.155 . S
Co1221 O1248 2.096 1_545 S
C1222 N1225 1.301 . S
C1222 N1226 1.328 . S
C1222 H1227 0.930 1_565 S
C1223 C1224 1.333 . S
C1223 N1225 1.317 . S
C1223 H1228 0.930 . S
C1224 C1223 1.333 . S
C1224 N1226 1.350 . S
C1224 H1250 0.931 . S
N1225 Co1221 2.148 1_565 S
N1225 C1222 1.301 . S
N1225 C1223 1.317 . S
N1226 C1222 1.328 . S
N1226 C1224 1.350 . S
H1227 C1222 0.930 1_545 S
H1228 C1223 0.930 . S
C1229 O1230 1.224 . S
C1229 O1248 1.247 . S
O1230 C1229 1.224 . S
N1231 Co1221 2.128 . S
N1231 C1232 1.355 . S
N1231 C1234 1.311 . S
C1232 N1231 1.355 . S
C1232 C1233 1.363 . S
C1232 H1244 0.929 . S
C1233 C1232 1.363 . S
C1233 N1235 1.375 . S
C1233 H1251 0.931 . S
C1234 N1231 1.311 . S
C1234 N1235 1.347 . S
C1234 H1245 0.929 . S
N1235 C1233 1.375 . S
N1235 C1234 1.347 . S
C1236 C1239 1.365 . S
C1236 N1241 1.328 . S
C1236 H1242 0.929 . S
C1237 C1238 1.362 . S
C1237 C1240 1.378 . S
C1237 H1252 0.929 . S
C1238 C1237 1.362 . S
C1238 C1239 1.366 . S
C1239 C1236 1.365 . S
C1239 C1238 1.366 . S
C1239 H1253 0.930 . S
C1240 C1237 1.378 . S
C1240 N1241 1.315 . S
C1240 H1243 0.933 . S
N1241 Co1221 2.194 . S
N1241 C1236 1.328 . S
N1241 C1240 1.315 . S
H1242 C1236 0.929 . S
H1243 C1240 0.933 . S
H1244 C1232 0.929 . S
H1245 C1234 0.929 . S
O1246 Co1221 2.351 . S
O1246 C1249 1.244 . S
O1247 Co1221 2.155 . S
O1247 C1249 1.240 . S
O1248 Co1221 2.096 1_565 S
O1248 C1229 1.247 . S
C1249 O1246 1.244 . S
C1249 O1247 1.240 . S
H1250 C1224 0.931 . S
H1251 C1233 0.931 . S
H1252 C1237 0.929 . S
H1253 C1239 0.930 . S
Co1254 N1258 2.148 . S
Co1254 N1264 2.128 . S
Co1254 N1274 2.194 . S
Co1254 O1279 2.351 . S
Co1254 O1280 2.155 . S
Co1254 O1281 2.096 . S
C1255 N1258 1.301 . S
C1255 N1259 1.328 . S
C1255 H1260 0.930 . S
C1256 C1257 1.333 . S
C1256 N1258 1.317 . S
C1256 H1261 0.930 . S
C1257 C1256 1.333 . S
C1257 N1259 1.350 . S
C1257 H1283 0.931 . S
N1258 Co1254 2.148 . S
N1258 C1255 1.301 . S
N1258 C1256 1.317 . S
N1259 C1255 1.328 . S
N1259 C1257 1.350 . S
H1260 C1255 0.930 . S
H1261 C1256 0.930 . S
C1262 O1263 1.224 . S
C1262 O1281 1.247 . S
O1263 C1262 1.224 . S
N1264 Co1254 2.128 . S
N1264 C1265 1.355 . S
N1264 C1267 1.311 . S
C1265 N1264 1.355 . S
C1265 C1266 1.363 . S
C1265 H1277 0.929 . S
C1266 C1265 1.363 . S
C1266 N1268 1.375 . S
C1266 H1284 0.931 . S
C1267 N1264 1.311 . S
C1267 N1268 1.347 . S
C1267 H1278 0.929 . S
N1268 C1266 1.375 . S
N1268 C1267 1.347 . S
C1269 C1272 1.365 . S
C1269 N1274 1.328 . S
C1269 H1275 0.929 . S
C1270 C1271 1.362 . S
C1270 C1273 1.378 . S
C1270 H1285 0.929 . S
C1271 C1270 1.362 . S
C1271 C1272 1.366 . S
C1272 C1269 1.365 . S
C1272 C1271 1.366 . S
C1272 H1286 0.930 . S
C1273 C1270 1.378 . S
C1273 N1274 1.315 . S
C1273 H1276 0.930 . S
N1274 Co1254 2.194 . S
N1274 C1269 1.328 . S
N1274 C1273 1.315 . S
H1275 C1269 0.929 . S
H1276 C1273 0.930 . S
H1277 C1265 0.929 . S
H1278 C1267 0.929 . S
O1279 Co1254 2.351 . S
O1279 C1282 1.244 . S
O1280 Co1254 2.155 . S
O1280 C1282 1.240 . S
O1281 Co1254 2.096 . S
O1281 C1262 1.247 . S
C1282 O1279 1.244 . S
C1282 O1280 1.240 . S
H1283 C1257 0.931 . S
H1284 C1266 0.931 . S
H1285 C1270 0.929 . S
H1286 C1272 0.930 . S
Co1287 N1291 2.148 . S
Co1287 N1297 2.128 . S
Co1287 N1307 2.194 . S
Co1287 O1312 2.351 . S
Co1287 O1313 2.155 . S
Co1287 O1314 2.096 . S
C1288 N1291 1.301 . S
C1288 N1292 1.328 . S
C1288 H1293 0.930 . S
C1289 C1290 1.333 . S
C1289 N1291 1.317 . S
C1289 H1294 0.930 . S
C1290 C1289 1.333 . S
C1290 N1292 1.350 . S
C1290 H1316 0.931 . S
N1291 Co1287 2.148 . S
N1291 C1288 1.301 . S
N1291 C1289 1.317 . S
N1292 C1288 1.328 . S
N1292 C1290 1.350 . S
H1293 C1288 0.930 . S
H1294 C1289 0.930 . S
C1295 O1296 1.224 . S
C1295 O1314 1.247 . S
O1296 C1295 1.224 . S
N1297 Co1287 2.128 . S
N1297 C1298 1.355 . S
N1297 C1300 1.311 . S
C1298 N1297 1.355 . S
C1298 C1299 1.363 . S
C1298 H1310 0.929 . S
C1299 C1298 1.363 . S
C1299 N1301 1.375 . S
C1299 H1317 0.931 . S
C1300 N1297 1.311 . S
C1300 N1301 1.347 . S
C1300 H1311 0.929 . S
N1301 C1299 1.375 . S
N1301 C1300 1.347 . S
C1302 C1305 1.365 . S
C1302 N1307 1.328 . S
C1302 H1308 0.929 . S
C1303 C1304 1.362 . S
C1303 C1306 1.378 . S
C1303 H1318 0.929 . S
C1304 C1303 1.362 . S
C1304 C1305 1.366 . S
C1305 C1302 1.365 . S
C1305 C1304 1.366 . S
C1305 H1319 0.930 . S
C1306 C1303 1.378 . S
C1306 N1307 1.315 . S
C1306 H1309 0.930 . S
N1307 Co1287 2.194 . S
N1307 C1302 1.328 . S
N1307 C1306 1.315 . S
H1308 C1302 0.929 . S
H1309 C1306 0.930 . S
H1310 C1298 0.929 . S
H1311 C1300 0.929 . S
O1312 Co1287 2.351 . S
O1312 C1315 1.244 . S
O1313 Co1287 2.155 . S
O1313 C1315 1.240 . S
O1314 Co1287 2.096 . S
O1314 C1295 1.247 . S
C1315 O1312 1.244 . S
C1315 O1313 1.240 . S
H1316 C1290 0.931 . S
H1317 C1299 0.931 . S
H1318 C1303 0.929 . S
H1319 C1305 0.930 . S
Co1320 N1324 2.148 . S
Co1320 N1330 2.128 . S
Co1320 N1340 2.194 . S
Co1320 O1345 2.351 . S
Co1320 O1346 2.155 . S
Co1320 O1347 2.096 . S
C1321 N1324 1.301 . S
C1321 N1325 1.328 . S
C1321 H1326 0.930 . S
C1322 C1323 1.333 . S
C1322 N1324 1.317 . S
C1322 H1327 0.930 . S
C1323 C1322 1.333 . S
C1323 N1325 1.350 . S
C1323 H1349 0.931 . S
N1324 Co1320 2.148 . S
N1324 C1321 1.301 . S
N1324 C1322 1.317 . S
N1325 C1321 1.328 . S
N1325 C1323 1.350 . S
H1326 C1321 0.930 . S
H1327 C1322 0.930 . S
C1328 O1329 1.224 . S
C1328 O1347 1.247 . S
O1329 C1328 1.224 . S
N1330 Co1320 2.128 . S
N1330 C1331 1.355 . S
N1330 C1333 1.311 . S
C1331 N1330 1.355 . S
C1331 C1332 1.363 . S
C1331 H1343 0.929 . S
C1332 C1331 1.363 . S
C1332 N1334 1.375 . S
C1332 H1350 0.931 . S
C1333 N1330 1.311 . S
C1333 N1334 1.347 . S
C1333 H1344 0.929 . S
N1334 C1332 1.375 . S
N1334 C1333 1.347 . S
C1335 C1338 1.365 . S
C1335 N1340 1.328 . S
C1335 H1341 0.929 . S
C1336 C1337 1.362 . S
C1336 C1339 1.378 . S
C1336 H1351 0.929 . S
C1337 C1336 1.362 . S
C1337 C1338 1.366 . S
C1338 C1335 1.365 . S
C1338 C1337 1.366 . S
C1338 H1352 0.930 . S
C1339 C1336 1.378 . S
C1339 N1340 1.315 . S
C1339 H1342 0.930 . S
N1340 Co1320 2.194 . S
N1340 C1335 1.328 . S
N1340 C1339 1.315 . S
H1341 C1335 0.929 . S
H1342 C1339 0.930 . S
H1343 C1331 0.929 . S
H1344 C1333 0.929 . S
O1345 Co1320 2.351 . S
O1345 C1348 1.244 . S
O1346 Co1320 2.155 . S
O1346 C1348 1.240 . S
O1347 Co1320 2.096 . S
O1347 C1328 1.247 . S
C1348 O1345 1.244 . S
C1348 O1346 1.240 . S
H1349 C1323 0.931 . S
H1350 C1332 0.931 . S
H1351 C1336 0.929 . S
H1352 C1338 0.930 . S
Co1353 N1357 2.148 . S
Co1353 N1363 2.128 . S
Co1353 N1373 2.194 . S
Co1353 O1378 2.351 . S
Co1353 O1379 2.155 . S
Co1353 O1380 2.096 . S
C1354 N1357 1.301 . S
C1354 N1358 1.328 . S
C1354 H1359 0.930 . S
C1355 C1356 1.333 . S
C1355 N1357 1.317 . S
C1355 H1360 0.930 . S
C1356 C1355 1.333 . S
C1356 N1358 1.350 . S
C1356 H1382 0.931 . S
N1357 Co1353 2.148 . S
N1357 C1354 1.301 . S
N1357 C1355 1.317 . S
N1358 C1354 1.328 . S
N1358 C1356 1.350 . S
H1359 C1354 0.930 . S
H1360 C1355 0.930 . S
C1361 O1362 1.224 . S
C1361 O1380 1.247 . S
O1362 C1361 1.224 . S
N1363 Co1353 2.128 . S
N1363 C1364 1.355 . S
N1363 C1366 1.311 . S
C1364 N1363 1.355 . S
C1364 C1365 1.363 . S
C1364 H1376 0.929 . S
C1365 C1364 1.363 . S
C1365 N1367 1.375 . S
C1365 H1383 0.931 . S
C1366 N1363 1.311 . S
C1366 N1367 1.347 . S
C1366 H1377 0.929 . S
N1367 C1365 1.375 . S
N1367 C1366 1.347 . S
C1368 C1371 1.365 . S
C1368 N1373 1.328 . S
C1368 H1374 0.929 . S
C1369 C1370 1.362 . S
C1369 C1372 1.378 . S
C1369 H1384 0.929 . S
C1370 C1369 1.362 . S
C1370 C1371 1.366 . S
C1371 C1368 1.365 . S
C1371 C1370 1.366 . S
C1371 H1385 0.930 . S
C1372 C1369 1.378 . S
C1372 N1373 1.315 . S
C1372 H1375 0.930 . S
N1373 Co1353 2.194 . S
N1373 C1368 1.328 . S
N1373 C1372 1.315 . S
H1374 C1368 0.929 . S
H1375 C1372 0.930 . S
H1376 C1364 0.929 . S
H1377 C1366 0.929 . S
O1378 Co1353 2.351 . S
O1378 C1381 1.244 . S
O1379 Co1353 2.155 . S
O1379 C1381 1.240 . S
O1380 Co1353 2.096 . S
O1380 C1361 1.247 . S
C1381 O1378 1.244 . S
C1381 O1379 1.240 . S
H1382 C1356 0.931 . S
H1383 C1365 0.931 . S
H1384 C1369 0.929 . S
H1385 C1371 0.930 . S
Co1386 N1390 2.148 . S
Co1386 N1396 2.128 . S
Co1386 N1406 2.194 . S
Co1386 O1411 2.351 . S
Co1386 O1412 2.155 . S
Co1386 O1413 2.096 . S
C1387 N1390 1.301 . S
C1387 N1391 1.328 . S
C1387 H1392 0.930 . S
C1388 C1389 1.333 . S
C1388 N1390 1.317 . S
C1388 H1393 0.930 . S
C1389 C1388 1.333 . S
C1389 N1391 1.350 . S
C1389 H1415 0.931 . S
N1390 Co1386 2.148 . S
N1390 C1387 1.301 . S
N1390 C1388 1.317 . S
N1391 C1387 1.328 . S
N1391 C1389 1.350 . S
H1392 C1387 0.930 . S
H1393 C1388 0.930 . S
C1394 O1395 1.224 . S
C1394 O1413 1.247 . S
O1395 C1394 1.224 . S
N1396 Co1386 2.128 . S
N1396 C1397 1.355 . S
N1396 C1399 1.311 . S
C1397 N1396 1.355 . S
C1397 C1398 1.363 . S
C1397 H1409 0.929 . S
C1398 C1397 1.363 . S
C1398 N1400 1.375 . S
C1398 H1416 0.931 . S
C1399 N1396 1.311 . S
C1399 N1400 1.347 . S
C1399 H1410 0.929 . S
N1400 C1398 1.375 . S
N1400 C1399 1.347 . S
C1401 C1404 1.365 . S
C1401 N1406 1.328 . S
C1401 H1407 0.929 . S
C1402 C1403 1.362 . S
C1402 C1405 1.378 . S
C1402 H1417 0.929 . S
C1403 C1402 1.362 . S
C1403 C1404 1.366 . S
C1404 C1401 1.365 . S
C1404 C1403 1.366 . S
C1404 H1418 0.930 . S
C1405 C1402 1.378 . S
C1405 N1406 1.315 . S
C1405 H1408 0.930 . S
N1406 Co1386 2.194 . S
N1406 C1401 1.328 . S
N1406 C1405 1.315 . S
H1407 C1401 0.929 . S
H1408 C1405 0.930 . S
H1409 C1397 0.929 . S
H1410 C1399 0.929 . S
O1411 Co1386 2.351 . S
O1411 C1414 1.244 . S
O1412 Co1386 2.155 . S
O1412 C1414 1.240 . S
O1413 Co1386 2.096 . S
O1413 C1394 1.247 . S
C1414 O1411 1.244 . S
C1414 O1412 1.240 . S
H1415 C1389 0.931 . S
H1416 C1398 0.931 . S
H1417 C1402 0.929 . S
H1418 C1404 0.930 . S
Co1419 N1423 2.148 . S
Co1419 N1429 2.128 . S
Co1419 N1439 2.194 . S
Co1419 O1444 2.351 . S
Co1419 O1445 2.155 . S
Co1419 O1446 2.096 . S
C1420 N1423 1.301 . S
C1420 N1424 1.328 . S
C1420 H1425 0.930 . S
C1421 C1422 1.333 . S
C1421 N1423 1.317 . S
C1421 H1426 0.930 . S
C1422 C1421 1.333 . S
C1422 N1424 1.350 . S
C1422 H1448 0.931 . S
N1423 Co1419 2.148 . S
N1423 C1420 1.301 . S
N1423 C1421 1.317 . S
N1424 C1420 1.328 . S
N1424 C1422 1.350 . S
H1425 C1420 0.930 . S
H1426 C1421 0.930 . S
C1427 O1428 1.224 . S
C1427 O1446 1.247 . S
O1428 C1427 1.224 . S
N1429 Co1419 2.128 . S
N1429 C1430 1.355 . S
N1429 C1432 1.311 . S
C1430 N1429 1.355 . S
C1430 C1431 1.363 . S
C1430 H1442 0.929 . S
C1431 C1430 1.363 . S
C1431 N1433 1.375 . S
C1431 H1449 0.931 . S
C1432 N1429 1.311 . S
C1432 N1433 1.347 . S
C1432 H1443 0.929 . S
N1433 C1431 1.375 . S
N1433 C1432 1.347 . S
C1434 C1437 1.365 . S
C1434 N1439 1.328 . S
C1434 H1440 0.929 . S
C1435 C1436 1.362 . S
C1435 C1438 1.378 . S
C1435 H1450 0.929 . S
C1436 C1435 1.362 . S
C1436 C1437 1.366 . S
C1437 C1434 1.365 . S
C1437 C1436 1.366 . S
C1437 H1451 0.930 . S
C1438 C1435 1.378 . S
C1438 N1439 1.315 . S
C1438 H1441 0.930 . S
N1439 Co1419 2.194 . S
N1439 C1434 1.328 . S
N1439 C1438 1.315 . S
H1440 C1434 0.929 . S
H1441 C1438 0.930 . S
H1442 C1430 0.929 . S
H1443 C1432 0.929 . S
O1444 Co1419 2.351 . S
O1444 C1447 1.244 . S
O1445 Co1419 2.155 . S
O1445 C1447 1.240 . S
O1446 Co1419 2.096 . S
O1446 C1427 1.247 . S
C1447 O1444 1.244 . S
C1447 O1445 1.240 . S
H1448 C1422 0.931 . S
H1449 C1431 0.931 . S
H1450 C1435 0.929 . S
H1451 C1437 0.930 . S
Co1452 N1456 2.148 1_655 S
Co1452 N1462 2.128 . S
Co1452 N1472 2.194 . S
Co1452 O1477 2.351 . S
Co1452 O1478 2.155 . S
Co1452 O1479 2.096 1_655 S
C1453 N1456 1.301 . S
C1453 N1457 1.328 . S
C1453 H1458 0.930 1_455 S
C1454 C1455 1.333 . S
C1454 N1456 1.317 . S
C1454 H1459 0.930 . S
C1455 C1454 1.333 . S
C1455 N1457 1.350 . S
C1455 H1481 0.931 . S
N1456 Co1452 2.148 1_455 S
N1456 C1453 1.301 . S
N1456 C1454 1.317 . S
N1457 C1453 1.328 . S
N1457 C1455 1.350 . S
H1458 C1453 0.930 1_655 S
H1459 C1454 0.930 . S
C1460 O1461 1.224 . S
C1460 O1479 1.247 . S
O1461 C1460 1.224 . S
N1462 Co1452 2.128 . S
N1462 C1463 1.355 . S
N1462 C1465 1.311 . S
C1463 N1462 1.355 . S
C1463 C1464 1.363 . S
C1463 H1475 0.929 . S
C1464 C1463 1.363 . S
C1464 N1466 1.375 . S
C1464 H1482 0.931 . S
C1465 N1462 1.311 . S
C1465 N1466 1.347 . S
C1465 H1476 0.929 . S
N1466 C1464 1.375 . S
N1466 C1465 1.347 . S
C1467 C1470 1.365 . S
C1467 N1472 1.328 . S
C1467 H1473 0.929 . S
C1468 C1469 1.362 . S
C1468 C1471 1.378 . S
C1468 H1483 0.929 . S
C1469 C1468 1.362 . S
C1469 C1470 1.366 . S
C1470 C1467 1.365 . S
C1470 C1469 1.366 . S
C1470 H1484 0.930 . S
C1471 C1468 1.378 . S
C1471 N1472 1.315 . S
C1471 H1474 0.933 . S
N1472 Co1452 2.194 . S
N1472 C1467 1.328 . S
N1472 C1471 1.315 . S
H1473 C1467 0.929 . S
H1474 C1471 0.933 . S
H1475 C1463 0.929 . S
H1476 C1465 0.929 . S
O1477 Co1452 2.351 . S
O1477 C1480 1.244 . S
O1478 Co1452 2.155 . S
O1478 C1480 1.240 . S
O1479 Co1452 2.096 1_455 S
O1479 C1460 1.247 . S
C1480 O1477 1.244 . S
C1480 O1478 1.240 . S
H1481 C1455 0.931 . S
H1482 C1464 0.931 . S
H1483 C1468 0.929 . S
H1484 C1470 0.930 . S
Co1485 N1489 2.148 . S
Co1485 N1495 2.128 . S
Co1485 N1505 2.194 . S
Co1485 O1510 2.351 . S
Co1485 O1511 2.155 . S
Co1485 O1512 2.096 . S
C1486 N1489 1.301 . S
C1486 N1490 1.328 . S
C1486 H1491 0.930 . S
C1487 C1488 1.333 . S
C1487 N1489 1.317 . S
C1487 H1492 0.930 . S
C1488 C1487 1.333 . S
C1488 N1490 1.350 . S
C1488 H1514 0.931 . S
N1489 Co1485 2.148 . S
N1489 C1486 1.301 . S
N1489 C1487 1.317 . S
N1490 C1486 1.328 . S
N1490 C1488 1.350 . S
H1491 C1486 0.930 . S
H1492 C1487 0.930 . S
C1493 O1494 1.224 . S
C1493 O1512 1.247 . S
O1494 C1493 1.224 . S
N1495 Co1485 2.128 . S
N1495 C1496 1.355 . S
N1495 C1498 1.311 . S
C1496 N1495 1.355 . S
C1496 C1497 1.363 . S
C1496 H1508 0.929 . S
C1497 C1496 1.363 . S
C1497 N1499 1.375 . S
C1497 H1515 0.931 . S
C1498 N1495 1.311 . S
C1498 N1499 1.347 . S
C1498 H1509 0.929 . S
N1499 C1497 1.375 . S
N1499 C1498 1.347 . S
C1500 C1503 1.365 . S
C1500 N1505 1.328 . S
C1500 H1506 0.929 . S
C1501 C1502 1.362 . S
C1501 C1504 1.378 . S
C1501 H1516 0.929 . S
C1502 C1501 1.362 . S
C1502 C1503 1.366 . S
C1503 C1500 1.365 . S
C1503 C1502 1.366 . S
C1503 H1517 0.930 . S
C1504 C1501 1.378 . S
C1504 N1505 1.315 . S
C1504 H1507 0.930 . S
N1505 Co1485 2.194 . S
N1505 C1500 1.328 . S
N1505 C1504 1.315 . S
H1506 C1500 0.929 . S
H1507 C1504 0.930 . S
H1508 C1496 0.929 . S
H1509 C1498 0.929 . S
O1510 Co1485 2.351 . S
O1510 C1513 1.244 . S
O1511 Co1485 2.155 . S
O1511 C1513 1.240 . S
O1512 Co1485 2.096 . S
O1512 C1493 1.247 . S
C1513 O1510 1.244 . S
C1513 O1511 1.240 . S
H1514 C1488 0.931 . S
H1515 C1497 0.931 . S
H1516 C1501 0.929 . S
H1517 C1503 0.930 . S
Co1518 N1522 2.148 . S
Co1518 N1528 2.128 . S
Co1518 N1538 2.194 . S
Co1518 O1543 2.351 . S
Co1518 O1544 2.155 . S
Co1518 O1545 2.096 . S
C1519 N1522 1.301 . S
C1519 N1523 1.328 . S
C1519 H1524 0.930 . S
C1520 C1521 1.333 . S
C1520 N1522 1.317 . S
C1520 H1525 0.930 . S
C1521 C1520 1.333 . S
C1521 N1523 1.350 . S
C1521 H1547 0.931 . S
N1522 Co1518 2.148 . S
N1522 C1519 1.301 . S
N1522 C1520 1.317 . S
N1523 C1519 1.328 . S
N1523 C1521 1.350 . S
H1524 C1519 0.930 . S
H1525 C1520 0.930 . S
C1526 O1527 1.224 . S
C1526 O1545 1.247 . S
O1527 C1526 1.224 . S
N1528 Co1518 2.128 . S
N1528 C1529 1.355 . S
N1528 C1531 1.311 . S
C1529 N1528 1.355 . S
C1529 C1530 1.363 . S
C1529 H1541 0.929 . S
C1530 C1529 1.363 . S
C1530 N1532 1.375 . S
C1530 H1548 0.931 . S
C1531 N1528 1.311 . S
C1531 N1532 1.347 . S
C1531 H1542 0.929 . S
N1532 C1530 1.375 . S
N1532 C1531 1.347 . S
C1533 C1536 1.365 . S
C1533 N1538 1.328 . S
C1533 H1539 0.929 . S
C1534 C1535 1.362 . S
C1534 C1537 1.378 . S
C1534 H1549 0.929 . S
C1535 C1534 1.362 . S
C1535 C1536 1.366 . S
C1536 C1533 1.365 . S
C1536 C1535 1.366 . S
C1536 H1550 0.930 . S
C1537 C1534 1.378 . S
C1537 N1538 1.315 . S
C1537 H1540 0.930 . S
N1538 Co1518 2.194 . S
N1538 C1533 1.328 . S
N1538 C1537 1.315 . S
H1539 C1533 0.929 . S
H1540 C1537 0.930 . S
H1541 C1529 0.929 . S
H1542 C1531 0.929 . S
O1543 Co1518 2.351 . S
O1543 C1546 1.244 . S
O1544 Co1518 2.155 . S
O1544 C1546 1.240 . S
O1545 Co1518 2.096 . S
O1545 C1526 1.247 . S
C1546 O1543 1.244 . S
C1546 O1544 1.240 . S
H1547 C1521 0.931 . S
H1548 C1530 0.931 . S
H1549 C1534 0.929 . S
H1550 C1536 0.930 . S
Co1551 N1555 2.148 . S
Co1551 N1561 2.128 . S
Co1551 N1571 2.194 . S
Co1551 O1576 2.351 . S
Co1551 O1577 2.155 . S
Co1551 O1578 2.096 . S
C1552 N1555 1.301 . S
C1552 N1556 1.328 . S
C1552 H1557 0.930 . S
C1553 C1554 1.333 . S
C1553 N1555 1.317 . S
C1553 H1558 0.930 . S
C1554 C1553 1.333 . S
C1554 N1556 1.350 . S
C1554 H1580 0.931 . S
N1555 Co1551 2.148 . S
N1555 C1552 1.301 . S
N1555 C1553 1.317 . S
N1556 C1552 1.328 . S
N1556 C1554 1.350 . S
H1557 C1552 0.930 . S
H1558 C1553 0.930 . S
C1559 O1560 1.224 . S
C1559 O1578 1.247 . S
O1560 C1559 1.224 . S
N1561 Co1551 2.128 . S
N1561 C1562 1.355 . S
N1561 C1564 1.311 . S
C1562 N1561 1.355 . S
C1562 C1563 1.363 . S
C1562 H1574 0.929 . S
C1563 C1562 1.363 . S
C1563 N1565 1.375 . S
C1563 H1581 0.931 . S
C1564 N1561 1.311 . S
C1564 N1565 1.347 . S
C1564 H1575 0.929 . S
N1565 C1563 1.375 . S
N1565 C1564 1.347 . S
C1566 C1569 1.365 . S
C1566 N1571 1.328 . S
C1566 H1572 0.929 . S
C1567 C1568 1.362 . S
C1567 C1570 1.378 . S
C1567 H1582 0.929 . S
C1568 C1567 1.362 . S
C1568 C1569 1.366 . S
C1569 C1566 1.365 . S
C1569 C1568 1.366 . S
C1569 H1583 0.930 . S
C1570 C1567 1.378 . S
C1570 N1571 1.315 . S
C1570 H1573 0.930 . S
N1571 Co1551 2.194 . S
N1571 C1566 1.328 . S
N1571 C1570 1.315 . S
H1572 C1566 0.929 . S
H1573 C1570 0.930 . S
H1574 C1562 0.929 . S
H1575 C1564 0.929 . S
O1576 Co1551 2.351 . S
O1576 C1579 1.244 . S
O1577 Co1551 2.155 . S
O1577 C1579 1.240 . S
O1578 Co1551 2.096 . S
O1578 C1559 1.247 . S
C1579 O1576 1.244 . S
C1579 O1577 1.240 . S
H1580 C1554 0.931 . S
H1581 C1563 0.931 . S
H1582 C1567 0.929 . S
H1583 C1569 0.930 . S
C1584 C1585 1.369 . S
C1584 C1586 1.419 . S
C1584 H1588 0.930 . S
C1585 C1584 1.369 . S
C1585 C1594 1.429 . S
C1586 C1584 1.419 . S
C1586 C1587 1.363 . S
C1586 H1589 0.929 . S
C1587 C1586 1.363 . S
C1587 C1593 1.428 . S
H1588 C1584 0.930 . S
H1589 C1586 0.929 . S
S1590 N1591 1.613 . S
S1590 N1592 1.610 . S
N1591 S1590 1.613 . S
N1591 C1594 1.350 . S
N1592 S1590 1.610 . S
N1592 C1593 1.351 . S
C1593 C1587 1.428 . S
C1593 N1592 1.351 . S
C1593 C1594 1.434 . S
C1594 C1585 1.429 . S
C1594 N1591 1.350 . S
C1594 C1593 1.434 . S
C1595 C1596 1.369 . S
C1595 C1597 1.419 . S
C1595 H1599 0.930 . S
C1596 C1595 1.369 . S
C1596 C1605 1.429 . S
C1597 C1595 1.419 . S
C1597 C1598 1.363 . S
C1597 H1600 0.929 . S
C1598 C1597 1.363 . S
C1598 C1604 1.428 . S
H1599 C1595 0.930 . S
H1600 C1597 0.929 . S
S1601 N1602 1.613 . S
S1601 N1603 1.610 . S
N1602 S1601 1.613 . S
N1602 C1605 1.350 . S
N1603 S1601 1.610 . S
N1603 C1604 1.351 . S
C1604 C1598 1.428 . S
C1604 N1603 1.351 . S
C1604 C1605 1.434 . S
C1605 C1596 1.429 . S
C1605 N1602 1.350 . S
C1605 C1604 1.434 . S
C1606 C1607 1.369 . S
C1606 C1608 1.419 . S
C1606 H1610 0.930 . S
C1607 C1606 1.369 . S
C1607 C1616 1.429 . S
C1608 C1606 1.419 . S
C1608 C1609 1.363 . S
C1608 H1611 0.929 . S
C1609 C1608 1.363 . S
C1609 C1615 1.428 . S
H1610 C1606 0.930 . S
H1611 C1608 0.929 . S
S1612 N1613 1.613 . S
S1612 N1614 1.610 . S
N1613 S1612 1.613 . S
N1613 C1616 1.350 . S
N1614 S1612 1.610 . S
N1614 C1615 1.351 . S
C1615 C1609 1.428 . S
C1615 N1614 1.351 . S
C1615 C1616 1.434 . S
C1616 C1607 1.429 . S
C1616 N1613 1.350 . S
C1616 C1615 1.434 . S
C1617 C1618 1.369 . S
C1617 C1619 1.419 . S
C1617 H1621 0.930 . S
C1618 C1617 1.369 . S
C1618 C1627 1.429 . S
C1619 C1617 1.419 . S
C1619 C1620 1.363 . S
C1619 H1622 0.929 . S
C1620 C1619 1.363 . S
C1620 C1626 1.428 . S
H1621 C1617 0.930 . S
H1622 C1619 0.929 . S
S1623 N1624 1.613 . S
S1623 N1625 1.610 . S
N1624 S1623 1.613 . S
N1624 C1627 1.350 . S
N1625 S1623 1.610 . S
N1625 C1626 1.351 . S
C1626 C1620 1.428 . S
C1626 N1625 1.351 . S
C1626 C1627 1.434 . S
C1627 C1618 1.429 . S
C1627 N1624 1.350 . S
C1627 C1626 1.434 . S
C1628 C1629 1.369 . S
C1628 C1630 1.419 . S
C1628 H1632 0.930 . S
C1629 C1628 1.369 . S
C1629 C1638 1.429 . S
C1630 C1628 1.419 . S
C1630 C1631 1.363 . S
C1630 H1633 0.929 . S
C1631 C1630 1.363 . S
C1631 C1637 1.428 . S
H1632 C1628 0.930 . S
H1633 C1630 0.929 . S
S1634 N1635 1.613 . S
S1634 N1636 1.610 . S
N1635 S1634 1.613 . S
N1635 C1638 1.350 . S
N1636 S1634 1.610 . S
N1636 C1637 1.351 . S
C1637 C1631 1.428 . S
C1637 N1636 1.351 . S
C1637 C1638 1.434 . S
C1638 C1629 1.429 . S
C1638 N1635 1.350 . S
C1638 C1637 1.434 . S
C1639 C1640 1.369 . S
C1639 C1641 1.419 . S
C1639 H1643 0.930 . S
C1640 C1639 1.369 . S
C1640 C1649 1.429 . S
C1641 C1639 1.419 . S
C1641 C1642 1.363 . S
C1641 H1644 0.929 . S
C1642 C1641 1.363 . S
C1642 C1648 1.428 . S
H1643 C1639 0.930 . S
H1644 C1641 0.929 . S
S1645 N1646 1.613 . S
S1645 N1647 1.610 1_455 S
N1646 S1645 1.613 . S
N1646 C1649 1.350 . S
N1647 S1645 1.610 1_655 S
N1647 C1648 1.351 1_655 S
C1648 C1642 1.428 . S
C1648 N1647 1.351 1_455 S
C1648 C1649 1.434 . S
C1649 C1640 1.429 . S
C1649 N1646 1.350 . S
C1649 C1648 1.434 . S
C1650 C1651 1.369 . S
C1650 C1652 1.419 . S
C1650 H1654 0.930 . S
C1651 C1650 1.369 . S
C1651 C1660 1.429 . S
C1652 C1650 1.419 . S
C1652 C1653 1.363 . S
C1652 H1655 0.929 . S
C1653 C1652 1.363 . S
C1653 C1659 1.428 . S
H1654 C1650 0.930 . S
H1655 C1652 0.929 . S
S1656 N1657 1.613 . S
S1656 N1658 1.610 . S
N1657 S1656 1.613 . S
N1657 C1660 1.350 . S
N1658 S1656 1.610 . S
N1658 C1659 1.351 . S
C1659 C1653 1.428 . S
C1659 N1658 1.351 . S
C1659 C1660 1.434 . S
C1660 C1651 1.429 . S
C1660 N1657 1.350 . S
C1660 C1659 1.434 . S
C1661 C1662 1.369 . S
C1661 C1663 1.419 . S
C1661 H1665 0.930 . S
C1662 C1661 1.369 . S
C1662 C1671 1.429 . S
C1663 C1661 1.419 . S
C1663 C1664 1.363 . S
C1663 H1666 0.929 . S
C1664 C1663 1.363 . S
C1664 C1670 1.428 . S
H1665 C1661 0.930 . S
H1666 C1663 0.929 . S
S1667 N1668 1.613 . S
S1667 N1669 1.610 1_556 S
N1668 S1667 1.613 . S
N1668 C1671 1.350 1_556 S
N1669 S1667 1.610 1_554 S
N1669 C1670 1.351 . S
C1670 C1664 1.428 . S
C1670 N1669 1.351 . S
C1670 C1671 1.434 . S
C1671 C1662 1.429 . S
C1671 N1668 1.350 1_554 S
C1671 C1670 1.434 . S
C1672 C1673 1.369 . S
C1672 C1674 1.419 . S
C1672 H1676 0.930 . S
C1673 C1672 1.369 . S
C1673 C1682 1.429 . S
C1674 C1672 1.419 . S
C1674 C1675 1.363 . S
C1674 H1677 0.929 . S
C1675 C1674 1.363 . S
C1675 C1681 1.428 . S
H1676 C1672 0.930 . S
H1677 C1674 0.929 . S
S1678 N1679 1.613 . S
S1678 N1680 1.610 . S
N1679 S1678 1.613 . S
N1679 C1682 1.350 . S
N1680 S1678 1.610 . S
N1680 C1681 1.351 . S
C1681 C1675 1.428 . S
C1681 N1680 1.351 . S
C1681 C1682 1.434 . S
C1682 C1673 1.429 . S
C1682 N1679 1.350 . S
C1682 C1681 1.434 . S
C1683 C1684 1.369 . S
C1683 C1685 1.419 . S
C1683 H1687 0.930 . S
C1684 C1683 1.369 . S
C1684 C1693 1.429 . S
C1685 C1683 1.419 . S
C1685 C1686 1.363 . S
C1685 H1688 0.929 . S
C1686 C1685 1.363 . S
C1686 C1692 1.428 . S
H1687 C1683 0.930 . S
H1688 C1685 0.929 . S
S1689 N1690 1.613 . S
S1689 N1691 1.610 . S
N1690 S1689 1.613 . S
N1690 C1693 1.350 . S
N1691 S1689 1.610 . S
N1691 C1692 1.351 . S
C1692 C1686 1.428 . S
C1692 N1691 1.351 . S
C1692 C1693 1.434 . S
C1693 C1684 1.429 . S
C1693 N1690 1.350 . S
C1693 C1692 1.434 . S
C1694 C1695 1.369 . S
C1694 C1696 1.419 . S
C1694 H1698 0.930 . S
C1695 C1694 1.369 . S
C1695 C1704 1.429 . S
C1696 C1694 1.419 . S
C1696 C1697 1.363 . S
C1696 H1699 0.929 . S
C1697 C1696 1.363 . S
C1697 C1703 1.428 . S
H1698 C1694 0.930 . S
H1699 C1696 0.929 . S
S1700 N1701 1.613 . S
S1700 N1702 1.610 . S
N1701 S1700 1.613 . S
N1701 C1704 1.350 . S
N1702 S1700 1.610 . S
N1702 C1703 1.351 . S
C1703 C1697 1.428 . S
C1703 N1702 1.351 . S
C1703 C1704 1.434 . S
C1704 C1695 1.429 . S
C1704 N1701 1.350 . S
C1704 C1703 1.434 . S
C1705 C1706 1.369 . S
C1705 C1707 1.419 . S
C1705 H1709 0.941 . S
C1706 C1705 1.369 . S
C1706 C1715 1.429 . S
C1707 C1705 1.419 . S
C1707 C1708 1.363 . S
C1707 H1710 0.929 . S
C1708 C1707 1.363 . S
C1708 C1714 1.428 . S
H1709 C1705 0.941 . S
H1710 C1707 0.929 . S
S1711 N1712 1.613 . S
S1711 N1713 1.610 1_565 S
N1712 S1711 1.613 . S
N1712 C1715 1.350 1_565 S
N1713 S1711 1.610 1_545 S
N1713 C1714 1.351 . S
C1714 C1708 1.428 . S
C1714 N1713 1.351 . S
C1714 C1715 1.434 . S
C1715 C1706 1.429 . S
C1715 N1712 1.350 1_545 S
C1715 C1714 1.434 . S
C1716 C1717 1.369 . S
C1716 C1718 1.419 . S
C1716 H1720 0.930 . S
C1717 C1716 1.369 . S
C1717 C1726 1.429 . S
C1718 C1716 1.419 . S
C1718 C1719 1.363 . S
C1718 H1721 0.929 . S
C1719 C1718 1.363 . S
C1719 C1725 1.428 . S
H1720 C1716 0.930 . S
H1721 C1718 0.929 . S
S1722 N1723 1.613 . S
S1722 N1724 1.610 . S
N1723 S1722 1.613 . S
N1723 C1726 1.350 . S
N1724 S1722 1.610 . S
N1724 C1725 1.351 . S
C1725 C1719 1.428 . S
C1725 N1724 1.351 . S
C1725 C1726 1.434 . S
C1726 C1717 1.429 . S
C1726 N1723 1.350 . S
C1726 C1725 1.434 . S
C1727 C1728 1.369 . S
C1727 C1729 1.419 . S
C1727 H1731 0.930 . S
C1728 C1727 1.369 . S
C1728 C1737 1.429 . S
C1729 C1727 1.419 . S
C1729 C1730 1.363 . S
C1729 H1732 0.929 . S
C1730 C1729 1.363 . S
C1730 C1736 1.428 . S
H1731 C1727 0.930 . S
H1732 C1729 0.929 . S
S1733 N1734 1.613 . S
S1733 N1735 1.610 . S
N1734 S1733 1.613 . S
N1734 C1737 1.350 . S
N1735 S1733 1.610 . S
N1735 C1736 1.351 . S
C1736 C1730 1.428 . S
C1736 N1735 1.351 . S
C1736 C1737 1.434 . S
C1737 C1728 1.429 . S
C1737 N1734 1.350 . S
C1737 C1736 1.434 . S
C1738 C1739 1.369 . S
C1738 C1740 1.419 . S
C1738 H1742 0.930 . S
C1739 C1738 1.369 . S
C1739 C1748 1.429 . S
C1740 C1738 1.419 . S
C1740 C1741 1.363 . S
C1740 H1743 0.929 . S
C1741 C1740 1.363 . S
C1741 C1747 1.428 . S
H1742 C1738 0.930 . S
H1743 C1740 0.929 . S
S1744 N1745 1.613 . S
S1744 N1746 1.610 . S
N1745 S1744 1.613 . S
N1745 C1748 1.350 . S
N1746 S1744 1.610 . S
N1746 C1747 1.351 . S
C1747 C1741 1.428 . S
C1747 N1746 1.351 . S
C1747 C1748 1.434 . S
C1748 C1739 1.429 . S
C1748 N1745 1.350 . S
C1748 C1747 1.434 . S
C1749 C1750 1.369 . S
C1749 C1751 1.419 . S
C1749 H1753 0.930 . S
C1750 C1749 1.369 . S
C1750 C1759 1.429 . S
C1751 C1749 1.419 . S
C1751 C1752 1.363 . S
C1751 H1754 0.929 . S
C1752 C1751 1.363 . S
C1752 C1758 1.428 . S
H1753 C1749 0.930 . S
H1754 C1751 0.929 . S
S1755 N1756 1.613 . S
S1755 N1757 1.610 1_565 S
N1756 S1755 1.613 . S
N1756 C1759 1.350 1_565 S
N1757 S1755 1.610 1_545 S
N1757 C1758 1.351 . S
C1758 C1752 1.428 . S
C1758 N1757 1.351 . S
C1758 C1759 1.434 . S
C1759 C1750 1.429 . S
C1759 N1756 1.350 1_545 S
C1759 C1758 1.434 . S
C1760 C1761 1.369 . S
C1760 C1762 1.419 . S
C1760 H1764 0.930 . S
C1761 C1760 1.369 . S
C1761 C1770 1.429 . S
C1762 C1760 1.419 . S
C1762 C1763 1.363 . S
C1762 H1765 0.929 . S
C1763 C1762 1.363 . S
C1763 C1769 1.428 . S
H1764 C1760 0.930 . S
H1765 C1762 0.929 . S
S1766 N1767 1.613 . S
S1766 N1768 1.610 . S
N1767 S1766 1.613 . S
N1767 C1770 1.350 . S
N1768 S1766 1.610 . S
N1768 C1769 1.351 . S
C1769 C1763 1.428 . S
C1769 N1768 1.351 . S
C1769 C1770 1.434 . S
C1770 C1761 1.429 . S
C1770 N1767 1.350 . S
C1770 C1769 1.434 . S
C1771 C1772 1.369 . S
C1771 C1773 1.419 . S
C1771 H1775 0.930 . S
C1772 C1771 1.369 . S
C1772 C1781 1.429 . S
C1773 C1771 1.419 . S
C1773 C1774 1.363 . S
C1773 H1776 0.929 . S
C1774 C1773 1.363 . S
C1774 C1780 1.428 . S
H1775 C1771 0.930 . S
H1776 C1773 0.929 . S
S1777 N1778 1.613 . S
S1777 N1779 1.610 . S
N1778 S1777 1.613 . S
N1778 C1781 1.350 . S
N1779 S1777 1.610 . S
N1779 C1780 1.351 . S
C1780 C1774 1.428 . S
C1780 N1779 1.351 . S
C1780 C1781 1.434 . S
C1781 C1772 1.429 . S
C1781 N1778 1.350 . S
C1781 C1780 1.434 . S
C1782 C1783 1.369 . S
C1782 C1784 1.419 . S
C1782 H1786 0.930 . S
C1783 C1782 1.369 . S
C1783 C1792 1.429 . S
C1784 C1782 1.419 . S
C1784 C1785 1.363 . S
C1784 H1787 0.929 . S
C1785 C1784 1.363 . S
C1785 C1791 1.428 . S
H1786 C1782 0.930 . S
H1787 C1784 0.929 . S
S1788 N1789 1.613 . S
S1788 N1790 1.610 . S
N1789 S1788 1.613 . S
N1789 C1792 1.350 . S
N1790 S1788 1.610 . S
N1790 C1791 1.351 . S
C1791 C1785 1.428 . S
C1791 N1790 1.351 . S
C1791 C1792 1.434 . S
C1792 C1783 1.429 . S
C1792 N1789 1.350 . S
C1792 C1791 1.434 . S
C1793 C1794 1.369 . S
C1793 C1795 1.419 . S
C1793 H1797 0.930 . S
C1794 C1793 1.369 . S
C1794 C1803 1.429 . S
C1795 C1793 1.419 . S
C1795 C1796 1.363 . S
C1795 H1798 0.929 . S
C1796 C1795 1.363 . S
C1796 C1802 1.428 . S
H1797 C1793 0.930 . S
H1798 C1795 0.929 . S
S1799 N1800 1.613 . S
S1799 N1801 1.610 . S
N1800 S1799 1.613 . S
N1800 C1803 1.350 . S
N1801 S1799 1.610 . S
N1801 C1802 1.351 . S
C1802 C1796 1.428 . S
C1802 N1801 1.351 . S
C1802 C1803 1.434 . S
C1803 C1794 1.429 . S
C1803 N1800 1.350 . S
C1803 C1802 1.434 . S
C1804 C1805 1.369 . S
C1804 C1806 1.419 . S
C1804 H1808 0.930 . S
C1805 C1804 1.369 . S
C1805 C1814 1.429 . S
C1806 C1804 1.419 . S
C1806 C1807 1.363 . S
C1806 H1809 0.929 . S
C1807 C1806 1.363 . S
C1807 C1813 1.428 . S
H1808 C1804 0.930 . S
H1809 C1806 0.929 . S
S1810 N1811 1.613 . S
S1810 N1812 1.610 . S
N1811 S1810 1.613 . S
N1811 C1814 1.350 . S
N1812 S1810 1.610 . S
N1812 C1813 1.351 . S
C1813 C1807 1.428 . S
C1813 N1812 1.351 . S
C1813 C1814 1.434 . S
C1814 C1805 1.429 . S
C1814 N1811 1.350 . S
C1814 C1813 1.434 . S
C1815 C1816 1.369 . S
C1815 C1817 1.419 . S
C1815 H1819 0.930 . S
C1816 C1815 1.369 . S
C1816 C1825 1.429 . S
C1817 C1815 1.419 . S
C1817 C1818 1.363 . S
C1817 H1820 0.929 . S
C1818 C1817 1.363 . S
C1818 C1824 1.428 . S
H1819 C1815 0.930 . S
H1820 C1817 0.929 . S
S1821 N1822 1.613 . S
S1821 N1823 1.610 . S
N1822 S1821 1.613 . S
N1822 C1825 1.350 . S
N1823 S1821 1.610 . S
N1823 C1824 1.351 . S
C1824 C1818 1.428 . S
C1824 N1823 1.351 . S
C1824 C1825 1.434 . S
C1825 C1816 1.429 . S
C1825 N1822 1.350 . S
C1825 C1824 1.434 . S
C1826 C1827 1.369 . S
C1826 C1828 1.419 . S
C1826 H1830 0.896 1_655 S
C1827 C1826 1.369 . S
C1827 C1836 1.429 . S
C1828 C1826 1.419 . S
C1828 C1829 1.363 . S
C1828 H1831 0.929 . S
C1829 C1828 1.363 . S
C1829 C1835 1.428 . S
H1830 C1826 0.896 1_455 S
H1831 C1828 0.929 . S
S1832 N1833 1.613 . S
S1832 N1834 1.610 . S
N1833 S1832 1.613 . S
N1833 C1836 1.350 . S
N1834 S1832 1.610 . S
N1834 C1835 1.351 . S
C1835 C1829 1.428 . S
C1835 N1834 1.351 . S
C1835 C1836 1.434 . S
C1836 C1827 1.429 . S
C1836 N1833 1.350 . S
C1836 C1835 1.434 . S
C1837 C1838 1.369 . S
C1837 C1839 1.419 . S
C1837 H1841 0.930 . S
C1838 C1837 1.369 . S
C1838 C1847 1.429 . S
C1839 C1837 1.419 . S
C1839 C1840 1.363 . S
C1839 H1842 0.929 . S
C1840 C1839 1.363 . S
C1840 C1846 1.428 . S
H1841 C1837 0.930 . S
H1842 C1839 0.929 . S
S1843 N1844 1.613 . S
S1843 N1845 1.610 . S
N1844 S1843 1.613 . S
N1844 C1847 1.350 . S
N1845 S1843 1.610 . S
N1845 C1846 1.351 . S
C1846 C1840 1.428 . S
C1846 N1845 1.351 . S
C1846 C1847 1.434 . S
C1847 C1838 1.429 . S
C1847 N1844 1.350 . S
C1847 C1846 1.434 . S
C1848 C1849 1.369 . S
C1848 C1850 1.419 . S
C1848 H1852 0.930 . S
C1849 C1848 1.369 . S
C1849 C1858 1.429 . S
C1850 C1848 1.419 . S
C1850 C1851 1.363 . S
C1850 H1853 0.929 . S
C1851 C1850 1.363 . S
C1851 C1857 1.428 . S
H1852 C1848 0.930 . S
H1853 C1850 0.929 . S
S1854 N1855 1.613 . S
S1854 N1856 1.610 . S
N1855 S1854 1.613 . S
N1855 C1858 1.350 . S
N1856 S1854 1.610 . S
N1856 C1857 1.351 . S
C1857 C1851 1.428 . S
C1857 N1856 1.351 . S
C1857 C1858 1.434 . S
C1858 C1849 1.429 . S
C1858 N1855 1.350 . S
C1858 C1857 1.434 . S
C1859 C1860 1.369 . S
C1859 C1861 1.419 . S
C1859 H1863 0.930 . S
C1860 C1859 1.369 . S
C1860 C1869 1.429 . S
C1861 C1859 1.419 . S
C1861 C1862 1.363 . S
C1861 H1864 0.929 . S
C1862 C1861 1.363 . S
C1862 C1868 1.428 . S
H1863 C1859 0.930 . S
H1864 C1861 0.929 . S
S1865 N1866 1.613 . S
S1865 N1867 1.610 1_655 S
N1866 S1865 1.613 . S
N1866 C1869 1.350 . S
N1867 S1865 1.610 1_455 S
N1867 C1868 1.351 1_455 S
C1868 C1862 1.428 . S
C1868 N1867 1.351 1_655 S
C1868 C1869 1.434 . S
C1869 C1860 1.429 . S
C1869 N1866 1.350 . S
C1869 C1868 1.434 . S
C1870 C1871 1.369 . S
C1870 C1872 1.419 . S
C1870 H1874 0.930 . S
C1871 C1870 1.369 . S
C1871 C1880 1.429 . S
C1872 C1870 1.419 . S
C1872 C1873 1.363 . S
C1872 H1875 0.929 . S
C1873 C1872 1.363 . S
C1873 C1879 1.428 . S
H1874 C1870 0.930 . S
H1875 C1872 0.929 . S
S1876 N1877 1.613 . S
S1876 N1878 1.610 . S
N1877 S1876 1.613 . S
N1877 C1880 1.350 . S
N1878 S1876 1.610 . S
N1878 C1879 1.351 . S
C1879 C1873 1.428 . S
C1879 N1878 1.351 . S
C1879 C1880 1.434 . S
C1880 C1871 1.429 . S
C1880 N1877 1.350 . S
C1880 C1879 1.434 . S
C1881 C1882 1.369 . S
C1881 C1883 1.419 . S
C1881 H1885 0.930 . S
C1882 C1881 1.369 . S
C1882 C1891 1.429 . S
C1883 C1881 1.419 . S
C1883 C1884 1.363 . S
C1883 H1886 0.929 . S
C1884 C1883 1.363 . S
C1884 C1890 1.428 . S
H1885 C1881 0.930 . S
H1886 C1883 0.929 . S
S1887 N1888 1.613 1_455 S
S1887 N1889 1.610 . S
N1888 S1887 1.613 1_655 S
N1888 C1891 1.350 1_655 S
N1889 S1887 1.610 . S
N1889 C1890 1.351 . S
C1890 C1884 1.428 . S
C1890 N1889 1.351 . S
C1890 C1891 1.434 . S
C1891 C1882 1.429 . S
C1891 N1888 1.350 1_455 S
C1891 C1890 1.434 . S
C1892 C1893 1.369 . S
C1892 C1894 1.419 . S
C1892 H1896 0.930 . S
C1893 C1892 1.369 . S
C1893 C1902 1.429 . S
C1894 C1892 1.419 . S
C1894 C1895 1.363 . S
C1894 H1897 0.929 . S
C1895 C1894 1.363 . S
C1895 C1901 1.428 . S
H1896 C1892 0.930 . S
H1897 C1894 0.929 . S
S1898 N1899 1.613 . S
S1898 N1900 1.610 . S
N1899 S1898 1.613 . S
N1899 C1902 1.350 . S
N1900 S1898 1.610 . S
N1900 C1901 1.351 . S
C1901 C1895 1.428 . S
C1901 N1900 1.351 . S
C1901 C1902 1.434 . S
C1902 C1893 1.429 . S
C1902 N1899 1.350 . S
C1902 C1901 1.434 . S
C1903 C1904 1.369 . S
C1903 C1905 1.419 . S
C1903 H1907 0.930 . S
C1904 C1903 1.369 . S
C1904 C1913 1.429 . S
C1905 C1903 1.419 . S
C1905 C1906 1.363 . S
C1905 H1908 0.929 . S
C1906 C1905 1.363 . S
C1906 C1912 1.428 . S
H1907 C1903 0.930 . S
H1908 C1905 0.929 . S
S1909 N1910 1.613 . S
S1909 N1911 1.610 . S
N1910 S1909 1.613 . S
N1910 C1913 1.350 . S
N1911 S1909 1.610 . S
N1911 C1912 1.351 . S
C1912 C1906 1.428 . S
C1912 N1911 1.351 . S
C1912 C1913 1.434 . S
C1913 C1904 1.429 . S
C1913 N1910 1.350 . S
C1913 C1912 1.434 . S
C1914 C1915 1.369 . S
C1914 C1916 1.419 . S
C1914 H1918 0.930 . S
C1915 C1914 1.369 . S
C1915 C1924 1.429 . S
C1916 C1914 1.419 . S
C1916 C1917 1.363 . S
C1916 H1919 0.929 . S
C1917 C1916 1.363 . S
C1917 C1923 1.428 . S
H1918 C1914 0.930 . S
H1919 C1916 0.929 . S
S1920 N1921 1.613 . S
S1920 N1922 1.610 . S
N1921 S1920 1.613 . S
N1921 C1924 1.350 . S
N1922 S1920 1.610 . S
N1922 C1923 1.351 . S
C1923 C1917 1.428 . S
C1923 N1922 1.351 . S
C1923 C1924 1.434 . S
C1924 C1915 1.429 . S
C1924 N1921 1.350 . S
C1924 C1923 1.434 . S
C1925 C1926 1.369 . S
C1925 C1927 1.419 . S
C1925 H1929 0.930 . S
C1926 C1925 1.369 . S
C1926 C1935 1.429 . S
C1927 C1925 1.419 . S
C1927 C1928 1.363 . S
C1927 H1930 0.929 . S
C1928 C1927 1.363 . S
C1928 C1934 1.428 . S
H1929 C1925 0.930 . S
H1930 C1927 0.929 . S
S1931 N1932 1.613 . S
S1931 N1933 1.610 . S
N1932 S1931 1.613 . S
N1932 C1935 1.350 . S
N1933 S1931 1.610 . S
N1933 C1934 1.351 . S
C1934 C1928 1.428 . S
C1934 N1933 1.351 . S
C1934 C1935 1.434 . S
C1935 C1926 1.429 . S
C1935 N1932 1.350 . S
C1935 C1934 1.434 . S
C1936 C1937 1.369 . S
C1936 C1938 1.419 . S
C1936 H1940 0.930 . S
C1937 C1936 1.369 . S
C1937 C1946 1.429 . S
C1938 C1936 1.419 . S
C1938 C1939 1.363 . S
C1938 H1941 0.929 . S
C1939 C1938 1.363 . S
C1939 C1945 1.428 . S
H1940 C1936 0.930 . S
H1941 C1938 0.929 . S
S1942 N1943 1.613 . S
S1942 N1944 1.610 . S
N1943 S1942 1.613 . S
N1943 C1946 1.350 . S
N1944 S1942 1.610 . S
N1944 C1945 1.351 . S
C1945 C1939 1.428 . S
C1945 N1944 1.351 . S
C1945 C1946 1.434 . S
C1946 C1937 1.429 . S
C1946 N1943 1.350 . S
C1946 C1945 1.434 . S
C1947 C1948 1.369 . S
C1947 C1949 1.419 . S
C1947 H1951 0.930 . S
C1948 C1947 1.369 . S
C1948 C1957 1.429 . S
C1949 C1947 1.419 . S
C1949 C1950 1.363 . S
C1949 H1952 0.929 . S
C1950 C1949 1.363 . S
C1950 C1956 1.428 . S
H1951 C1947 0.930 . S
H1952 C1949 0.929 . S
S1953 N1954 1.613 . S
S1953 N1955 1.610 . S
N1954 S1953 1.613 . S
N1954 C1957 1.350 . S
N1955 S1953 1.610 . S
N1955 C1956 1.351 . S
C1956 C1950 1.428 . S
C1956 N1955 1.351 . S
C1956 C1957 1.434 . S
C1957 C1948 1.429 . S
C1957 N1954 1.350 . S
C1957 C1956 1.434 . S
C1958 C1959 1.369 . S
C1958 C1960 1.419 . S
C1958 H1962 0.930 . S
C1959 C1958 1.369 . S
C1959 C1968 1.429 . S
C1960 C1958 1.419 . S
C1960 C1961 1.363 . S
C1960 H1963 0.929 . S
C1961 C1960 1.363 . S
C1961 C1967 1.428 . S
H1962 C1958 0.930 . S
H1963 C1960 0.929 . S
S1964 N1965 1.613 . S
S1964 N1966 1.610 . S
N1965 S1964 1.613 . S
N1965 C1968 1.350 . S
N1966 S1964 1.610 . S
N1966 C1967 1.351 . S
C1967 C1961 1.428 . S
C1967 N1966 1.351 . S
C1967 C1968 1.434 . S
C1968 C1959 1.429 . S
C1968 N1965 1.350 . S
C1968 C1967 1.434 . S
C1969 C1970 1.369 . S
C1969 C1971 1.419 . S
C1969 H1973 0.930 . S
C1970 C1969 1.369 . S
C1970 C1979 1.429 . S
C1971 C1969 1.419 . S
C1971 C1972 1.363 . S
C1971 H1974 0.929 . S
C1972 C1971 1.363 . S
C1972 C1978 1.428 . S
H1973 C1969 0.930 . S
H1974 C1971 0.929 . S
S1975 N1976 1.613 . S
S1975 N1977 1.610 . S
N1976 S1975 1.613 . S
N1976 C1979 1.350 . S
N1977 S1975 1.610 . S
N1977 C1978 1.351 . S
C1978 C1972 1.428 . S
C1978 N1977 1.351 . S
C1978 C1979 1.434 . S
C1979 C1970 1.429 . S
C1979 N1976 1.350 . S
C1979 C1978 1.434 . S
C1980 C1981 1.369 . S
C1980 C1982 1.419 . S
C1980 H1984 0.930 . S
C1981 C1980 1.369 . S
C1981 C1990 1.429 . S
C1982 C1980 1.419 . S
C1982 C1983 1.363 . S
C1982 H1985 0.929 . S
C1983 C1982 1.363 . S
C1983 C1989 1.428 . S
H1984 C1980 0.930 . S
H1985 C1982 0.929 . S
S1986 N1987 1.613 . S
S1986 N1988 1.610 . S
N1987 S1986 1.613 . S
N1987 C1990 1.350 . S
N1988 S1986 1.610 . S
N1988 C1989 1.351 . S
C1989 C1983 1.428 . S
C1989 N1988 1.351 . S
C1989 C1990 1.434 . S
C1990 C1981 1.429 . S
C1990 N1987 1.350 . S
C1990 C1989 1.434 . S
C1991 C1992 1.369 . S
C1991 C1993 1.419 . S
C1991 H1995 0.930 . S
C1992 C1991 1.369 . S
C1992 C2001 1.429 . S
C1993 C1991 1.419 . S
C1993 C1994 1.363 . S
C1993 H1996 0.929 . S
C1994 C1993 1.363 . S
C1994 C2000 1.428 . S
H1995 C1991 0.930 . S
H1996 C1993 0.929 . S
S1997 N1998 1.613 . S
S1997 N1999 1.610 . S
N1998 S1997 1.613 . S
N1998 C2001 1.350 . S
N1999 S1997 1.610 . S
N1999 C2000 1.351 . S
C2000 C1994 1.428 . S
C2000 N1999 1.351 . S
C2000 C2001 1.434 . S
C2001 C1992 1.429 . S
C2001 N1998 1.350 . S
C2001 C2000 1.434 . S
C2002 C2003 1.369 . S
C2002 C2004 1.419 . S
C2002 H2006 0.930 . S
C2003 C2002 1.369 . S
C2003 C2012 1.429 . S
C2004 C2002 1.419 . S
C2004 C2005 1.363 . S
C2004 H2007 0.929 . S
C2005 C2004 1.363 . S
C2005 C2011 1.428 . S
H2006 C2002 0.930 . S
H2007 C2004 0.929 . S
S2008 N2009 1.613 . S
S2008 N2010 1.610 . S
N2009 S2008 1.613 . S
N2009 C2012 1.350 . S
N2010 S2008 1.610 . S
N2010 C2011 1.351 . S
C2011 C2005 1.428 . S
C2011 N2010 1.351 . S
C2011 C2012 1.434 . S
C2012 C2003 1.429 . S
C2012 N2009 1.350 . S
C2012 C2011 1.434 . S
C2013 C2014 1.369 . S
C2013 C2015 1.419 . S
C2013 H2017 0.930 . S
C2014 C2013 1.369 . S
C2014 C2023 1.429 . S
C2015 C2013 1.419 . S
C2015 C2016 1.363 . S
C2015 H2018 0.929 . S
C2016 C2015 1.363 . S
C2016 C2022 1.428 . S
H2017 C2013 0.930 . S
H2018 C2015 0.929 . S
S2019 N2020 1.613 . S
S2019 N2021 1.610 . S
N2020 S2019 1.613 . S
N2020 C2023 1.350 . S
N2021 S2019 1.610 . S
N2021 C2022 1.351 . S
C2022 C2016 1.428 . S
C2022 N2021 1.351 . S
C2022 C2023 1.434 . S
C2023 C2014 1.429 . S
C2023 N2020 1.350 . S
C2023 C2022 1.434 . S
C2024 C2025 1.369 . S
C2024 C2026 1.419 . S
C2024 H2028 0.930 . S
C2025 C2024 1.369 . S
C2025 C2034 1.429 . S
C2026 C2024 1.419 . S
C2026 C2027 1.363 . S
C2026 H2029 0.929 . S
C2027 C2026 1.363 . S
C2027 C2033 1.428 . S
H2028 C2024 0.930 . S
H2029 C2026 0.929 . S
S2030 N2031 1.613 . S
S2030 N2032 1.610 . S
N2031 S2030 1.613 . S
N2031 C2034 1.350 . S
N2032 S2030 1.610 . S
N2032 C2033 1.351 . S
C2033 C2027 1.428 . S
C2033 N2032 1.351 . S
C2033 C2034 1.434 . S
C2034 C2025 1.429 . S
C2034 N2031 1.350 . S
C2034 C2033 1.434 . S
C2035 C2036 1.369 . S
C2035 C2037 1.419 . S
C2035 H2039 0.930 . S
C2036 C2035 1.369 . S
C2036 C2045 1.429 . S
C2037 C2035 1.419 . S
C2037 C2038 1.363 . S
C2037 H2040 0.929 . S
C2038 C2037 1.363 . S
C2038 C2044 1.428 . S
H2039 C2035 0.930 . S
H2040 C2037 0.929 . S
S2041 N2042 1.613 . S
S2041 N2043 1.610 . S
N2042 S2041 1.613 . S
N2042 C2045 1.350 . S
N2043 S2041 1.610 . S
N2043 C2044 1.351 . S
C2044 C2038 1.428 . S
C2044 N2043 1.351 . S
C2044 C2045 1.434 . S
C2045 C2036 1.429 . S
C2045 N2042 1.350 . S
C2045 C2044 1.434 . S
C2046 C2047 1.369 . S
C2046 C2048 1.419 . S
C2046 H2050 0.930 . S
C2047 C2046 1.369 . S
C2047 C2056 1.429 . S
C2048 C2046 1.419 . S
C2048 C2049 1.363 . S
C2048 H2051 0.929 . S
C2049 C2048 1.363 . S
C2049 C2055 1.428 . S
H2050 C2046 0.930 . S
H2051 C2048 0.929 . S
S2052 N2053 1.613 . S
S2052 N2054 1.610 . S
N2053 S2052 1.613 . S
N2053 C2056 1.350 . S
N2054 S2052 1.610 . S
N2054 C2055 1.351 . S
C2055 C2049 1.428 . S
C2055 N2054 1.351 . S
C2055 C2056 1.434 . S
C2056 C2047 1.429 . S
C2056 N2053 1.350 . S
C2056 C2055 1.434 . S
C2057 C2058 1.369 . S
C2057 C2059 1.419 . S
C2057 H2061 0.930 . S
C2058 C2057 1.369 . S
C2058 C2067 1.429 . S
C2059 C2057 1.419 . S
C2059 C2060 1.363 . S
C2059 H2062 0.929 . S
C2060 C2059 1.363 . S
C2060 C2066 1.428 . S
H2061 C2057 0.930 . S
H2062 C2059 0.929 . S
S2063 N2064 1.613 . S
S2063 N2065 1.610 . S
N2064 S2063 1.613 . S
N2064 C2067 1.350 . S
N2065 S2063 1.610 . S
N2065 C2066 1.351 . S
C2066 C2060 1.428 . S
C2066 N2065 1.351 . S
C2066 C2067 1.434 . S
C2067 C2058 1.429 . S
C2067 N2064 1.350 . S
C2067 C2066 1.434 . S
C2068 C2069 1.369 . S
C2068 C2070 1.419 . S
C2068 H2072 0.922 1_455 S
C2069 C2068 1.369 . S
C2069 C2078 1.429 . S
C2070 C2068 1.419 . S
C2070 C2071 1.363 . S
C2070 H2073 0.929 . S
C2071 C2070 1.363 . S
C2071 C2077 1.428 . S
H2072 C2068 0.922 1_655 S
H2073 C2070 0.929 . S
S2074 N2075 1.613 . S
S2074 N2076 1.610 . S
N2075 S2074 1.613 . S
N2075 C2078 1.350 . S
N2076 S2074 1.610 . S
N2076 C2077 1.351 . S
C2077 C2071 1.428 . S
C2077 N2076 1.351 . S
C2077 C2078 1.434 . S
C2078 C2069 1.429 . S
C2078 N2075 1.350 . S
C2078 C2077 1.434 . S
C2079 C2080 1.369 . S
C2079 C2081 1.419 . S
C2079 H2083 0.930 . S
C2080 C2079 1.369 . S
C2080 C2089 1.429 . S
C2081 C2079 1.419 . S
C2081 C2082 1.363 . S
C2081 H2084 0.929 . S
C2082 C2081 1.363 . S
C2082 C2088 1.428 . S
H2083 C2079 0.930 . S
H2084 C2081 0.929 . S
S2085 N2086 1.613 . S
S2085 N2087 1.610 . S
N2086 S2085 1.613 . S
N2086 C2089 1.350 . S
N2087 S2085 1.610 . S
N2087 C2088 1.351 . S
C2088 C2082 1.428 . S
C2088 N2087 1.351 . S
C2088 C2089 1.434 . S
C2089 C2080 1.429 . S
C2089 N2086 1.350 . S
C2089 C2088 1.434 . S
C2090 C2091 1.369 . S
C2090 C2092 1.419 . S
C2090 H2094 0.930 . S
C2091 C2090 1.369 . S
C2091 C2100 1.429 . S
C2092 C2090 1.419 . S
C2092 C2093 1.363 . S
C2092 H2095 0.929 . S
C2093 C2092 1.363 . S
C2093 C2099 1.428 . S
H2094 C2090 0.930 . S
H2095 C2092 0.929 . S
S2096 N2097 1.613 . S
S2096 N2098 1.610 . S
N2097 S2096 1.613 . S
N2097 C2100 1.350 . S
N2098 S2096 1.610 . S
N2098 C2099 1.351 . S
C2099 C2093 1.428 . S
C2099 N2098 1.351 . S
C2099 C2100 1.434 . S
C2100 C2091 1.429 . S
C2100 N2097 1.350 . S
C2100 C2099 1.434 . S
C2101 C2102 1.369 . S
C2101 C2103 1.419 . S
C2101 H2105 0.930 . S
C2102 C2101 1.369 . S
C2102 C2111 1.429 . S
C2103 C2101 1.419 . S
C2103 C2104 1.363 . S
C2103 H2106 0.929 . S
C2104 C2103 1.363 . S
C2104 C2110 1.428 . S
H2105 C2101 0.930 . S
H2106 C2103 0.929 . S
S2107 N2108 1.613 . S
S2107 N2109 1.610 . S
N2108 S2107 1.613 . S
N2108 C2111 1.350 . S
N2109 S2107 1.610 . S
N2109 C2110 1.351 . S
C2110 C2104 1.428 . S
C2110 N2109 1.351 . S
C2110 C2111 1.434 . S
C2111 C2102 1.429 . S
C2111 N2108 1.350 . S
C2111 C2110 1.434 . S
C2112 C2113 1.369 1_655 S
C2112 C2114 1.419 . S
C2112 H2116 0.930 . S
C2113 C2112 1.369 1_455 S
C2113 C2122 1.429 . S
C2114 C2112 1.419 . S
C2114 C2115 1.363 . S
C2114 H2117 0.929 . S
C2115 C2114 1.363 . S
C2115 C2121 1.428 1_655 S
H2116 C2112 0.930 . S
H2117 C2114 0.929 . S
S2118 N2119 1.613 . S
S2118 N2120 1.610 . S
N2119 S2118 1.613 . S
N2119 C2122 1.350 . S
N2120 S2118 1.610 . S
N2120 C2121 1.351 . S
C2121 C2115 1.428 1_455 S
C2121 N2120 1.351 . S
C2121 C2122 1.434 . S
C2122 C2113 1.429 . S
C2122 N2119 1.350 . S
C2122 C2121 1.434 . S
C2123 C2124 1.369 . S
C2123 C2125 1.419 . S
C2123 H2127 0.930 . S
C2124 C2123 1.369 . S
C2124 C2133 1.429 . S
C2125 C2123 1.419 . S
C2125 C2126 1.363 . S
C2125 H2128 0.929 . S
C2126 C2125 1.363 . S
C2126 C2132 1.428 . S
H2127 C2123 0.930 . S
H2128 C2125 0.929 . S
S2129 N2130 1.613 . S
S2129 N2131 1.610 . S
N2130 S2129 1.613 . S
N2130 C2133 1.350 . S
N2131 S2129 1.610 . S
N2131 C2132 1.351 . S
C2132 C2126 1.428 . S
C2132 N2131 1.351 . S
C2132 C2133 1.434 . S
C2133 C2124 1.429 . S
C2133 N2130 1.350 . S
C2133 C2132 1.434 . S
C2134 C2135 1.369 . S
C2134 C2136 1.419 1_655 S
C2134 H2138 0.930 . S
C2135 C2134 1.369 . S
C2135 C2144 1.429 . S
C2136 C2134 1.419 1_455 S
C2136 C2137 1.363 . S
C2136 H2139 0.929 . S
C2137 C2136 1.363 . S
C2137 C2143 1.428 . S
H2138 C2134 0.930 . S
H2139 C2136 0.929 . S
S2140 N2141 1.613 1_455 S
S2140 N2142 1.610 . S
N2141 S2140 1.613 1_655 S
N2141 C2144 1.350 . S
N2142 S2140 1.610 . S
N2142 C2143 1.351 . S
C2143 C2137 1.428 . S
C2143 N2142 1.351 . S
C2143 C2144 1.434 1_455 S
C2144 C2135 1.429 . S
C2144 N2141 1.350 . S
C2144 C2143 1.434 1_655 S
C2145 C2146 1.369 1_455 S
C2145 C2147 1.419 . S
C2145 H2149 0.930 . S
C2146 C2145 1.369 1_655 S
C2146 C2155 1.429 . S
C2147 C2145 1.419 . S
C2147 C2148 1.363 . S
C2147 H2150 0.929 . S
C2148 C2147 1.363 . S
C2148 C2154 1.428 1_455 S
H2149 C2145 0.930 . S
H2150 C2147 0.929 . S
S2151 N2152 1.613 . S
S2151 N2153 1.610 . S
N2152 S2151 1.613 . S
N2152 C2155 1.350 . S
N2153 S2151 1.610 . S
N2153 C2154 1.351 . S
C2154 C2148 1.428 1_655 S
C2154 N2153 1.351 . S
C2154 C2155 1.434 . S
C2155 C2146 1.429 . S
C2155 N2152 1.350 . S
C2155 C2154 1.434 . S
C2156 C2157 1.369 . S
C2156 C2158 1.419 . S
C2156 H2160 0.930 . S
C2157 C2156 1.369 . S
C2157 C2166 1.429 1_565 S
C2158 C2156 1.419 . S
C2158 C2159 1.363 1_565 S
C2158 H2161 0.929 . S
C2159 C2158 1.363 1_545 S
C2159 C2165 1.428 . S
H2160 C2156 0.930 . S
H2161 C2158 0.929 . S
S2162 N2163 1.613 . S
S2162 N2164 1.610 . S
N2163 S2162 1.613 . S
N2163 C2166 1.350 . S
N2164 S2162 1.610 . S
N2164 C2165 1.351 . S
C2165 C2159 1.428 . S
C2165 N2164 1.351 . S
C2165 C2166 1.434 . S
C2166 C2157 1.429 1_545 S
C2166 N2163 1.350 . S
C2166 C2165 1.434 . S
C2167 C2168 1.369 1_554 S
C2167 C2169 1.419 . S
C2167 H2171 0.930 . S
C2168 C2167 1.369 1_556 S
C2168 C2177 1.429 . S
C2169 C2167 1.419 . S
C2169 C2170 1.363 . S
C2169 H2172 0.929 . S
C2170 C2169 1.363 . S
C2170 C2176 1.428 1_554 S
H2171 C2167 0.930 . S
H2172 C2169 0.929 . S
S2173 N2174 1.613 . S
S2173 N2175 1.610 . S
N2174 S2173 1.613 . S
N2174 C2177 1.350 . S
N2175 S2173 1.610 . S
N2175 C2176 1.351 . S
C2176 C2170 1.428 1_556 S
C2176 N2175 1.351 . S
C2176 C2177 1.434 . S
C2177 C2168 1.429 . S
C2177 N2174 1.350 . S
C2177 C2176 1.434 . S
C2178 C2179 1.369 . S
C2178 C2180 1.419 . S
C2178 H2182 0.930 . S
C2179 C2178 1.369 . S
C2179 C2188 1.429 . S
C2180 C2178 1.419 . S
C2180 C2181 1.363 . S
C2180 H2183 0.929 . S
C2181 C2180 1.363 . S
C2181 C2187 1.428 . S
H2182 C2178 0.930 . S
H2183 C2180 0.929 . S
S2184 N2185 1.613 . S
S2184 N2186 1.610 . S
N2185 S2184 1.613 . S
N2185 C2188 1.350 . S
N2186 S2184 1.610 . S
N2186 C2187 1.351 . S
C2187 C2181 1.428 . S
C2187 N2186 1.351 . S
C2187 C2188 1.434 . S
C2188 C2179 1.429 . S
C2188 N2185 1.350 . S
C2188 C2187 1.434 . S
C2189 C2190 1.369 . S
C2189 C2191 1.419 1_554 S
C2189 H2193 0.930 1_565 S
C2190 C2189 1.369 . S
C2190 C2199 1.429 . S
C2191 C2189 1.419 1_556 S
C2191 C2192 1.363 . S
C2191 H2194 0.929 1_565 S
C2192 C2191 1.363 . S
C2192 C2198 1.428 . S
H2193 C2189 0.930 1_545 S
H2194 C2191 0.929 1_545 S
S2195 N2196 1.613 . S
S2195 N2197 1.610 1_554 S
N2196 S2195 1.613 . S
N2196 C2199 1.350 . S
N2197 S2195 1.610 1_556 S
N2197 C2198 1.351 . S
C2198 C2192 1.428 . S
C2198 N2197 1.351 . S
C2198 C2199 1.434 1_556 S
C2199 C2190 1.429 . S
C2199 N2196 1.350 . S
C2199 C2198 1.434 1_554 S
C2200 C2201 1.369 . S
C2200 C2202 1.419 1_556 S
C2200 H2204 0.931 . S
C2201 C2200 1.369 . S
C2201 C2210 1.429 . S
C2202 C2200 1.419 1_554 S
C2202 C2203 1.363 . S
C2202 H2205 0.929 . S
C2203 C2202 1.363 . S
C2203 C2209 1.430 . S
H2204 C2200 0.931 . S
H2205 C2202 0.929 . S
S2206 N2207 1.613 . S
S2206 N2208 1.610 . S
N2207 S2206 1.613 . S
N2207 C2210 1.350 . S
N2208 S2206 1.610 . S
N2208 C2209 1.351 1_556 S
C2209 C2203 1.430 . S
C2209 N2208 1.351 1_554 S
C2209 C2210 1.433 1_554 S
C2210 C2201 1.429 . S
C2210 N2207 1.350 . S
C2210 C2209 1.433 1_556 S
C2211 C2212 1.369 . S
C2211 C2213 1.419 . S
C2211 H2215 0.930 . S
C2212 C2211 1.369 . S
C2212 C2221 1.429 . S
C2213 C2211 1.419 . S
C2213 C2214 1.363 . S
C2213 H2216 0.929 . S
C2214 C2213 1.363 . S
C2214 C2220 1.428 . S
H2215 C2211 0.930 . S
H2216 C2213 0.929 . S
S2217 N2218 1.613 . S
S2217 N2219 1.610 . S
N2218 S2217 1.613 . S
N2218 C2221 1.350 . S
N2219 S2217 1.610 . S
N2219 C2220 1.351 . S
C2220 C2214 1.428 . S
C2220 N2219 1.351 . S
C2220 C2221 1.434 . S
C2221 C2212 1.429 . S
C2221 N2218 1.350 . S
C2221 C2220 1.434 . S
C2222 C2223 1.369 . S
C2222 C2224 1.419 . S
C2222 H2226 0.930 . S
C2223 C2222 1.369 . S
C2223 C2232 1.429 . S
C2224 C2222 1.419 . S
C2224 C2225 1.363 . S
C2224 H2227 0.929 . S
C2225 C2224 1.363 . S
C2225 C2231 1.428 . S
H2226 C2222 0.930 . S
H2227 C2224 0.929 . S
S2228 N2229 1.613 . S
S2228 N2230 1.610 . S
N2229 S2228 1.613 . S
N2229 C2232 1.350 . S
N2230 S2228 1.610 . S
N2230 C2231 1.351 . S
C2231 C2225 1.428 . S
C2231 N2230 1.351 . S
C2231 C2232 1.434 . S
C2232 C2223 1.429 . S
C2232 N2229 1.350 . S
C2232 C2231 1.434 . S
C2233 C2234 1.369 . S
C2233 C2235 1.419 . S
C2233 H2237 0.930 . S
C2234 C2233 1.369 . S
C2234 C2243 1.429 . S
C2235 C2233 1.419 . S
C2235 C2236 1.363 . S
C2235 H2238 0.929 . S
C2236 C2235 1.363 . S
C2236 C2242 1.428 . S
H2237 C2233 0.930 . S
H2238 C2235 0.929 . S
S2239 N2240 1.613 . S
S2239 N2241 1.610 . S
N2240 S2239 1.613 . S
N2240 C2243 1.350 . S
N2241 S2239 1.610 . S
N2241 C2242 1.351 . S
C2242 C2236 1.428 . S
C2242 N2241 1.351 . S
C2242 C2243 1.434 . S
C2243 C2234 1.429 . S
C2243 N2240 1.350 . S
C2243 C2242 1.434 . S
C2244 C2245 1.369 . S
C2244 C2246 1.419 . S
C2244 H2248 0.930 . S
C2245 C2244 1.369 . S
C2245 C2254 1.429 . S
C2246 C2244 1.419 . S
C2246 C2247 1.363 . S
C2246 H2249 0.929 . S
C2247 C2246 1.363 . S
C2247 C2253 1.428 . S
H2248 C2244 0.930 . S
H2249 C2246 0.929 . S
S2250 N2251 1.613 . S
S2250 N2252 1.610 . S
N2251 S2250 1.613 . S
N2251 C2254 1.350 . S
N2252 S2250 1.610 . S
N2252 C2253 1.351 . S
C2253 C2247 1.428 . S
C2253 N2252 1.351 . S
C2253 C2254 1.434 . S
C2254 C2245 1.429 . S
C2254 N2251 1.350 . S
C2254 C2253 1.434 . S
C2255 C2256 1.369 1_565 S
C2255 C2257 1.419 . S
C2255 H2259 0.930 . S
C2256 C2255 1.369 1_545 S
C2256 C2265 1.429 . S
C2257 C2255 1.419 . S
C2257 C2258 1.363 . S
C2257 H2260 0.929 . S
C2258 C2257 1.363 . S
C2258 C2264 1.428 1_565 S
H2259 C2255 0.930 . S
H2260 C2257 0.929 . S
S2261 N2262 1.613 . S
S2261 N2263 1.610 . S
N2262 S2261 1.613 . S
N2262 C2265 1.350 . S
N2263 S2261 1.610 . S
N2263 C2264 1.351 . S
C2264 C2258 1.428 1_545 S
C2264 N2263 1.351 . S
C2264 C2265 1.434 . S
C2265 C2256 1.429 . S
C2265 N2262 1.350 . S
C2265 C2264 1.434 . S
C2266 C2267 1.369 . S
C2266 C2268 1.419 . S
C2266 H2270 0.930 . S
C2267 C2266 1.369 . S
C2267 C2276 1.429 . S
C2268 C2266 1.419 . S
C2268 C2269 1.363 . S
C2268 H2271 0.929 . S
C2269 C2268 1.363 . S
C2269 C2275 1.428 . S
H2270 C2266 0.930 . S
H2271 C2268 0.929 . S
S2272 N2273 1.613 . S
S2272 N2274 1.610 . S
N2273 S2272 1.613 . S
N2273 C2276 1.350 . S
N2274 S2272 1.610 . S
N2274 C2275 1.351 . S
C2275 C2269 1.428 . S
C2275 N2274 1.351 . S
C2275 C2276 1.434 . S
C2276 C2267 1.429 . S
C2276 N2273 1.350 . S
C2276 C2275 1.434 . S
C2277 C2278 1.369 1_455 S
C2277 C2279 1.419 . S
C2277 H2281 0.930 . S
C2278 C2277 1.369 1_655 S
C2278 C2287 1.429 . S
C2279 C2277 1.419 . S
C2279 C2280 1.363 . S
C2279 H2282 0.929 . S
C2280 C2279 1.363 . S
C2280 C2286 1.428 1_455 S
H2281 C2277 0.930 . S
H2282 C2279 0.929 . S
S2283 N2284 1.613 . S
S2283 N2285 1.610 . S
N2284 S2283 1.613 . S
N2284 C2287 1.350 . S
N2285 S2283 1.610 . S
N2285 C2286 1.351 . S
C2286 C2280 1.428 1_655 S
C2286 N2285 1.351 . S
C2286 C2287 1.434 . S
C2287 C2278 1.429 . S
C2287 N2284 1.350 . S
C2287 C2286 1.434 . S
C2288 C2289 1.369 . S
C2288 C2290 1.419 . S
C2288 H2292 0.930 . S
C2289 C2288 1.369 . S
C2289 C2298 1.429 . S
C2290 C2288 1.419 . S
C2290 C2291 1.363 . S
C2290 H2293 0.929 . S
C2291 C2290 1.363 . S
C2291 C2297 1.428 . S
H2292 C2288 0.930 . S
H2293 C2290 0.929 . S
S2294 N2295 1.613 . S
S2294 N2296 1.610 . S
N2295 S2294 1.613 . S
N2295 C2298 1.350 . S
N2296 S2294 1.610 . S
N2296 C2297 1.351 . S
C2297 C2291 1.428 . S
C2297 N2296 1.351 . S
C2297 C2298 1.434 . S
C2298 C2289 1.429 . S
C2298 N2295 1.350 . S
C2298 C2297 1.434 . S
C2299 C2300 1.369 . S
C2299 C2301 1.419 . S
C2299 H2303 0.930 . S
C2300 C2299 1.369 . S
C2300 C2309 1.429 . S
C2301 C2299 1.419 . S
C2301 C2302 1.363 . S
C2301 H2304 0.929 . S
C2302 C2301 1.363 . S
C2302 C2308 1.428 . S
H2303 C2299 0.930 . S
H2304 C2301 0.929 . S
S2305 N2306 1.613 . S
S2305 N2307 1.610 . S
N2306 S2305 1.613 . S
N2306 C2309 1.350 . S
N2307 S2305 1.610 . S
N2307 C2308 1.351 . S
C2308 C2302 1.428 . S
C2308 N2307 1.351 . S
C2308 C2309 1.434 . S
C2309 C2300 1.429 . S
C2309 N2306 1.350 . S
C2309 C2308 1.434 . S
C2310 C2311 1.369 . S
C2310 C2312 1.419 . S
C2310 H2314 0.930 . S
C2311 C2310 1.369 . S
C2311 C2320 1.429 . S
C2312 C2310 1.419 . S
C2312 C2313 1.363 . S
C2312 H2315 0.929 . S
C2313 C2312 1.363 . S
C2313 C2319 1.428 . S
H2314 C2310 0.930 . S
H2315 C2312 0.929 . S
S2316 N2317 1.613 . S
S2316 N2318 1.610 . S
N2317 S2316 1.613 . S
N2317 C2320 1.350 . S
N2318 S2316 1.610 . S
N2318 C2319 1.351 . S
C2319 C2313 1.428 . S
C2319 N2318 1.351 . S
C2319 C2320 1.434 . S
C2320 C2311 1.429 . S
C2320 N2317 1.350 . S
C2320 C2319 1.434 . S
C2321 C2322 1.369 . S
C2321 C2323 1.419 . S
C2321 H2325 0.930 . S
C2322 C2321 1.369 . S
C2322 C2331 1.429 . S
C2323 C2321 1.419 . S
C2323 C2324 1.363 . S
C2323 H2326 0.929 . S
C2324 C2323 1.363 . S
C2324 C2330 1.428 . S
H2325 C2321 0.930 . S
H2326 C2323 0.929 . S
S2327 N2328 1.613 . S
S2327 N2329 1.610 . S
N2328 S2327 1.613 . S
N2328 C2331 1.350 . S
N2329 S2327 1.610 . S
N2329 C2330 1.351 . S
C2330 C2324 1.428 . S
C2330 N2329 1.351 . S
C2330 C2331 1.434 . S
C2331 C2322 1.429 . S
C2331 N2328 1.350 . S
C2331 C2330 1.434 . S
C2332 C2333 1.347 1_545 S
C2332 C2334 1.439 . S
C2332 H2336 0.933 . S
C2333 C2332 1.347 1_565 S
C2333 C2342 1.429 . S
C2334 C2332 1.439 . S
C2334 C2335 1.363 . S
C2334 H2337 0.929 . S
C2335 C2334 1.363 . S
C2335 C2341 1.428 1_545 S
H2336 C2332 0.933 . S
H2337 C2334 0.929 . S
S2338 N2339 1.613 . S
S2338 N2340 1.610 . S
N2339 S2338 1.613 . S
N2339 C2342 1.350 . S
N2340 S2338 1.610 . S
N2340 C2341 1.351 . S
C2341 C2335 1.428 1_565 S
C2341 N2340 1.351 . S
C2341 C2342 1.434 . S
C2342 C2333 1.429 . S
C2342 N2339 1.350 . S
C2342 C2341 1.434 . S
C2343 C2344 1.369 . S
C2343 C2345 1.419 . S
C2343 H2347 0.930 . S
C2344 C2343 1.369 . S
C2344 C2353 1.429 . S
C2345 C2343 1.419 . S
C2345 C2346 1.363 . S
C2345 H2348 0.929 . S
C2346 C2345 1.363 . S
C2346 C2352 1.428 . S
H2347 C2343 0.930 . S
H2348 C2345 0.929 . S
S2349 N2350 1.613 . S
S2349 N2351 1.610 . S
N2350 S2349 1.613 . S
N2350 C2353 1.350 . S
N2351 S2349 1.610 . S
N2351 C2352 1.351 . S
C2352 C2346 1.428 . S
C2352 N2351 1.351 . S
C2352 C2353 1.434 . S
C2353 C2344 1.429 . S
C2353 N2350 1.350 . S
C2353 C2352 1.434 . S
C2354 C2355 1.369 . S
C2354 C2356 1.419 1_554 S
C2354 H2358 0.930 . S
C2355 C2354 1.369 . S
C2355 C2364 1.429 . S
C2356 C2354 1.419 1_556 S
C2356 C2357 1.363 . S
C2356 H2359 0.929 . S
C2357 C2356 1.363 . S
C2357 C2363 1.428 . S
H2358 C2354 0.930 . S
H2359 C2356 0.929 . S
S2360 N2361 1.613 . S
S2360 N2362 1.610 1_554 S
N2361 S2360 1.613 . S
N2361 C2364 1.350 . S
N2362 S2360 1.610 1_556 S
N2362 C2363 1.351 . S
C2363 C2357 1.428 . S
C2363 N2362 1.351 . S
C2363 C2364 1.434 1_556 S
C2364 C2355 1.429 . S
C2364 N2361 1.350 . S
C2364 C2363 1.434 1_554 S
C2365 C2366 1.369 1_545 S
C2365 C2367 1.419 . S
C2365 H2369 0.930 . S
C2366 C2365 1.369 1_565 S
C2366 C2375 1.429 . S
C2367 C2365 1.419 . S
C2367 C2368 1.363 . S
C2367 H2370 0.929 . S
C2368 C2367 1.363 . S
C2368 C2374 1.428 1_545 S
H2369 C2365 0.930 . S
H2370 C2367 0.929 . S
S2371 N2372 1.613 . S
S2371 N2373 1.610 . S
N2372 S2371 1.613 . S
N2372 C2375 1.350 . S
N2373 S2371 1.610 . S
N2373 C2374 1.351 . S
C2374 C2368 1.428 1_565 S
C2374 N2373 1.351 . S
C2374 C2375 1.434 . S
C2375 C2366 1.429 . S
C2375 N2372 1.350 . S
C2375 C2374 1.434 . S
C2376 C2377 1.369 . S
C2376 C2378 1.419 . S
C2376 H2380 0.930 . S
C2377 C2376 1.369 . S
C2377 C2386 1.429 . S
C2378 C2376 1.419 . S
C2378 C2379 1.363 . S
C2378 H2381 0.929 . S
C2379 C2378 1.363 . S
C2379 C2385 1.428 . S
H2380 C2376 0.930 . S
H2381 C2378 0.929 . S
S2382 N2383 1.613 . S
S2382 N2384 1.610 . S
N2383 S2382 1.613 . S
N2383 C2386 1.350 . S
N2384 S2382 1.610 . S
N2384 C2385 1.351 . S
C2385 C2379 1.428 . S
C2385 N2384 1.351 . S
C2385 C2386 1.434 . S
C2386 C2377 1.429 . S
C2386 N2383 1.350 . S
C2386 C2385 1.434 . S
C2387 C2388 1.369 . S
C2387 C2389 1.419 . S
C2387 H2391 0.930 . S
C2388 C2387 1.369 . S
C2388 C2397 1.429 . S
C2389 C2387 1.419 . S
C2389 C2390 1.363 . S
C2389 H2392 0.929 . S
C2390 C2389 1.363 . S
C2390 C2396 1.428 . S
H2391 C2387 0.930 . S
H2392 C2389 0.929 . S
S2393 N2394 1.613 . S
S2393 N2395 1.610 . S
N2394 S2393 1.613 . S
N2394 C2397 1.350 . S
N2395 S2393 1.610 . S
N2395 C2396 1.351 . S
C2396 C2390 1.428 . S
C2396 N2395 1.351 . S
C2396 C2397 1.434 . S
C2397 C2388 1.429 . S
C2397 N2394 1.350 . S
C2397 C2396 1.434 . S
C2398 C2399 1.369 . S
C2398 C2400 1.419 . S
C2398 H2402 0.930 . S
C2399 C2398 1.369 . S
C2399 C2408 1.429 . S
C2400 C2398 1.419 . S
C2400 C2401 1.363 . S
C2400 H2403 0.929 . S
C2401 C2400 1.363 . S
C2401 C2407 1.428 . S
H2402 C2398 0.930 . S
H2403 C2400 0.929 . S
S2404 N2405 1.613 . S
S2404 N2406 1.610 . S
N2405 S2404 1.613 . S
N2405 C2408 1.350 . S
N2406 S2404 1.610 . S
N2406 C2407 1.351 . S
C2407 C2401 1.428 . S
C2407 N2406 1.351 . S
C2407 C2408 1.434 . S
C2408 C2399 1.429 . S
C2408 N2405 1.350 . S
C2408 C2407 1.434 . S
C2409 C2410 1.369 . S
C2409 C2411 1.419 . S
C2409 H2413 0.930 . S
C2410 C2409 1.369 . S
C2410 C2419 1.429 . S
C2411 C2409 1.419 . S
C2411 C2412 1.363 . S
C2411 H2414 0.929 . S
C2412 C2411 1.363 . S
C2412 C2418 1.428 . S
H2413 C2409 0.930 . S
H2414 C2411 0.929 . S
S2415 N2416 1.613 . S
S2415 N2417 1.610 . S
N2416 S2415 1.613 . S
N2416 C2419 1.350 . S
N2417 S2415 1.610 . S
N2417 C2418 1.351 . S
C2418 C2412 1.428 . S
C2418 N2417 1.351 . S
C2418 C2419 1.434 . S
C2419 C2410 1.429 . S
C2419 N2416 1.350 . S
C2419 C2418 1.434 . S
C2420 C2421 1.369 . S
C2420 C2422 1.419 . S
C2420 H2424 0.930 . S
C2421 C2420 1.369 . S
C2421 C2430 1.429 . S
C2422 C2420 1.419 . S
C2422 C2423 1.363 . S
C2422 H2425 0.929 . S
C2423 C2422 1.363 . S
C2423 C2429 1.428 . S
H2424 C2420 0.930 . S
H2425 C2422 0.929 . S
S2426 N2427 1.613 . S
S2426 N2428 1.610 . S
N2427 S2426 1.613 . S
N2427 C2430 1.350 . S
N2428 S2426 1.610 . S
N2428 C2429 1.351 . S
C2429 C2423 1.428 . S
C2429 N2428 1.351 . S
C2429 C2430 1.434 . S
C2430 C2421 1.429 . S
C2430 N2427 1.350 . S
C2430 C2429 1.434 . S
C2431 C2432 1.369 . S
C2431 C2433 1.419 . S
C2431 H2435 0.930 . S
C2432 C2431 1.369 . S
C2432 C2441 1.429 . S
C2433 C2431 1.419 . S
C2433 C2434 1.363 . S
C2433 H2436 0.929 . S
C2434 C2433 1.363 . S
C2434 C2440 1.428 . S
H2435 C2431 0.930 . S
H2436 C2433 0.929 . S
S2437 N2438 1.613 . S
S2437 N2439 1.610 . S
N2438 S2437 1.613 . S
N2438 C2441 1.350 . S
N2439 S2437 1.610 . S
N2439 C2440 1.351 . S
C2440 C2434 1.428 . S
C2440 N2439 1.351 . S
C2440 C2441 1.434 . S
C2441 C2432 1.429 . S
C2441 N2438 1.350 . S
C2441 C2440 1.434 . S
C2442 C2443 1.369 . S
C2442 C2444 1.419 . S
C2442 H2446 0.930 . S
C2443 C2442 1.369 . S
C2443 C2452 1.429 . S
C2444 C2442 1.419 . S
C2444 C2445 1.363 . S
C2444 H2447 0.929 . S
C2445 C2444 1.363 . S
C2445 C2451 1.428 . S
H2446 C2442 0.930 . S
H2447 C2444 0.929 . S
S2448 N2449 1.613 . S
S2448 N2450 1.610 . S
N2449 S2448 1.613 . S
N2449 C2452 1.350 . S
N2450 S2448 1.610 . S
N2450 C2451 1.351 . S
C2451 C2445 1.428 . S
C2451 N2450 1.351 . S
C2451 C2452 1.434 . S
C2452 C2443 1.429 . S
C2452 N2449 1.350 . S
C2452 C2451 1.434 . S
C2453 C2454 1.369 . S
C2453 C2455 1.419 . S
C2453 H2457 0.930 . S
C2454 C2453 1.369 . S
C2454 C2463 1.429 . S
C2455 C2453 1.419 . S
C2455 C2456 1.363 . S
C2455 H2458 0.929 . S
C2456 C2455 1.363 . S
C2456 C2462 1.428 . S
H2457 C2453 0.930 . S
H2458 C2455 0.929 . S
S2459 N2460 1.613 . S
S2459 N2461 1.610 . S
N2460 S2459 1.613 . S
N2460 C2463 1.350 . S
N2461 S2459 1.610 . S
N2461 C2462 1.351 . S
C2462 C2456 1.428 . S
C2462 N2461 1.351 . S
C2462 C2463 1.434 . S
C2463 C2454 1.429 . S
C2463 N2460 1.350 . S
C2463 C2462 1.434 . S
C2464 C2465 1.369 . S
C2464 C2466 1.419 . S
C2464 H2468 0.930 . S
C2465 C2464 1.369 . S
C2465 C2474 1.429 . S
C2466 C2464 1.419 . S
C2466 C2467 1.363 . S
C2466 H2469 0.929 . S
C2467 C2466 1.363 . S
C2467 C2473 1.428 . S
H2468 C2464 0.930 . S
H2469 C2466 0.929 . S
S2470 N2471 1.613 . S
S2470 N2472 1.610 . S
N2471 S2470 1.613 . S
N2471 C2474 1.350 . S
N2472 S2470 1.610 . S
N2472 C2473 1.351 . S
C2473 C2467 1.428 . S
C2473 N2472 1.351 . S
C2473 C2474 1.434 . S
C2474 C2465 1.429 . S
C2474 N2471 1.350 . S
C2474 C2473 1.434 . S
C2475 C2476 1.369 . S
C2475 C2477 1.419 . S
C2475 H2479 0.930 . S
C2476 C2475 1.369 . S
C2476 C2485 1.429 . S
C2477 C2475 1.419 . S
C2477 C2478 1.363 . S
C2477 H2480 0.929 . S
C2478 C2477 1.363 . S
C2478 C2484 1.428 . S
H2479 C2475 0.930 . S
H2480 C2477 0.929 . S
S2481 N2482 1.613 . S
S2481 N2483 1.610 . S
N2482 S2481 1.613 . S
N2482 C2485 1.350 . S
N2483 S2481 1.610 . S
N2483 C2484 1.351 . S
C2484 C2478 1.428 . S
C2484 N2483 1.351 . S
C2484 C2485 1.434 . S
C2485 C2476 1.429 . S
C2485 N2482 1.350 . S
C2485 C2484 1.434 . S
C2486 C2487 1.369 . S
C2486 C2488 1.419 . S
C2486 H2490 0.930 . S
C2487 C2486 1.369 . S
C2487 C2496 1.429 . S
C2488 C2486 1.419 . S
C2488 C2489 1.363 . S
C2488 H2491 0.929 . S
C2489 C2488 1.363 . S
C2489 C2495 1.428 . S
H2490 C2486 0.930 . S
H2491 C2488 0.929 . S
S2492 N2493 1.613 . S
S2492 N2494 1.610 . S
N2493 S2492 1.613 . S
N2493 C2496 1.350 . S
N2494 S2492 1.610 . S
N2494 C2495 1.351 . S
C2495 C2489 1.428 . S
C2495 N2494 1.351 . S
C2495 C2496 1.434 . S
C2496 C2487 1.429 . S
C2496 N2493 1.350 . S
C2496 C2495 1.434 . S
C2497 C2498 1.369 . S
C2497 C2499 1.419 . S
C2497 H2501 0.930 . S
C2498 C2497 1.369 . S
C2498 C2507 1.429 . S
C2499 C2497 1.419 . S
C2499 C2500 1.363 . S
C2499 H2502 0.929 . S
C2500 C2499 1.363 . S
C2500 C2506 1.428 . S
H2501 C2497 0.930 . S
H2502 C2499 0.929 . S
S2503 N2504 1.613 . S
S2503 N2505 1.610 . S
N2504 S2503 1.613 . S
N2504 C2507 1.350 . S
N2505 S2503 1.610 . S
N2505 C2506 1.351 . S
C2506 C2500 1.428 . S
C2506 N2505 1.351 . S
C2506 C2507 1.434 . S
C2507 C2498 1.429 . S
C2507 N2504 1.350 . S
C2507 C2506 1.434 . S
C2508 C2509 1.369 . S
C2508 C2510 1.419 . S
C2508 H2512 0.930 . S
C2509 C2508 1.369 . S
C2509 C2518 1.429 . S
C2510 C2508 1.419 . S
C2510 C2511 1.363 . S
C2510 H2513 0.929 . S
C2511 C2510 1.363 . S
C2511 C2517 1.428 . S
H2512 C2508 0.930 . S
H2513 C2510 0.929 . S
S2514 N2515 1.613 . S
S2514 N2516 1.610 . S
N2515 S2514 1.613 . S
N2515 C2518 1.350 . S
N2516 S2514 1.610 . S
N2516 C2517 1.351 . S
C2517 C2511 1.428 . S
C2517 N2516 1.351 . S
C2517 C2518 1.434 . S
C2518 C2509 1.429 . S
C2518 N2515 1.350 . S
C2518 C2517 1.434 . S
C2519 C2520 1.369 . S
C2519 C2521 1.419 . S
C2519 H2523 0.930 . S
C2520 C2519 1.369 . S
C2520 C2529 1.429 . S
C2521 C2519 1.419 . S
C2521 C2522 1.363 . S
C2521 H2524 0.929 . S
C2522 C2521 1.363 . S
C2522 C2528 1.428 . S
H2523 C2519 0.930 . S
H2524 C2521 0.929 . S
S2525 N2526 1.613 . S
S2525 N2527 1.610 . S
N2526 S2525 1.613 . S
N2526 C2529 1.350 . S
N2527 S2525 1.610 . S
N2527 C2528 1.351 . S
C2528 C2522 1.428 . S
C2528 N2527 1.351 . S
C2528 C2529 1.434 . S
C2529 C2520 1.429 . S
C2529 N2526 1.350 . S
C2529 C2528 1.434 . S
C2530 C2531 1.369 . S
C2530 C2532 1.419 . S
C2530 H2534 0.930 . S
C2531 C2530 1.369 . S
C2531 C2540 1.429 . S
C2532 C2530 1.419 . S
C2532 C2533 1.363 . S
C2532 H2535 0.929 . S
C2533 C2532 1.363 . S
C2533 C2539 1.428 . S
H2534 C2530 0.930 . S
H2535 C2532 0.929 . S
S2536 N2537 1.613 . S
S2536 N2538 1.610 . S
N2537 S2536 1.613 . S
N2537 C2540 1.350 . S
N2538 S2536 1.610 . S
N2538 C2539 1.351 . S
C2539 C2533 1.428 . S
C2539 N2538 1.351 . S
C2539 C2540 1.434 . S
C2540 C2531 1.429 . S
C2540 N2537 1.350 . S
C2540 C2539 1.434 . S
C2541 C2542 1.369 . S
C2541 C2543 1.419 . S
C2541 H2545 0.930 . S
C2542 C2541 1.369 . S
C2542 C2551 1.429 . S
C2543 C2541 1.419 . S
C2543 C2544 1.363 . S
C2543 H2546 0.929 . S
C2544 C2543 1.363 . S
C2544 C2550 1.428 . S
H2545 C2541 0.930 . S
H2546 C2543 0.929 . S
S2547 N2548 1.613 . S
S2547 N2549 1.610 . S
N2548 S2547 1.613 . S
N2548 C2551 1.350 . S
N2549 S2547 1.610 . S
N2549 C2550 1.351 . S
C2550 C2544 1.428 . S
C2550 N2549 1.351 . S
C2550 C2551 1.434 . S
C2551 C2542 1.429 . S
C2551 N2548 1.350 . S
C2551 C2550 1.434 . S
C2552 C2553 1.369 . S
C2552 C2554 1.419 . S
C2552 H2556 0.930 . S
C2553 C2552 1.369 . S
C2553 C2562 1.429 . S
C2554 C2552 1.419 . S
C2554 C2555 1.363 . S
C2554 H2557 0.929 . S
C2555 C2554 1.363 . S
C2555 C2561 1.428 . S
H2556 C2552 0.930 . S
H2557 C2554 0.929 . S
S2558 N2559 1.613 . S
S2558 N2560 1.610 . S
N2559 S2558 1.613 . S
N2559 C2562 1.350 . S
N2560 S2558 1.610 . S
N2560 C2561 1.351 . S
C2561 C2555 1.428 . S
C2561 N2560 1.351 . S
C2561 C2562 1.434 . S
C2562 C2553 1.429 . S
C2562 N2559 1.350 . S
C2562 C2561 1.434 . S
C2563 C2564 1.369 . S
C2563 C2565 1.419 . S
C2563 H2567 0.930 . S
C2564 C2563 1.369 . S
C2564 C2573 1.429 . S
C2565 C2563 1.419 . S
C2565 C2566 1.363 . S
C2565 H2568 0.929 . S
C2566 C2565 1.363 . S
C2566 C2572 1.428 . S
H2567 C2563 0.930 . S
H2568 C2565 0.929 . S
S2569 N2570 1.613 . S
S2569 N2571 1.610 . S
N2570 S2569 1.613 . S
N2570 C2573 1.350 . S
N2571 S2569 1.610 . S
N2571 C2572 1.351 . S
C2572 C2566 1.428 . S
C2572 N2571 1.351 . S
C2572 C2573 1.434 . S
C2573 C2564 1.429 . S
C2573 N2570 1.350 . S
C2573 C2572 1.434 . S
C2574 C2575 1.369 . S
C2574 C2576 1.419 . S
C2574 H2578 0.930 . S
C2575 C2574 1.369 . S
C2575 C2584 1.429 . S
C2576 C2574 1.419 . S
C2576 C2577 1.363 . S
C2576 H2579 0.929 . S
C2577 C2576 1.363 . S
C2577 C2583 1.428 . S
H2578 C2574 0.930 . S
H2579 C2576 0.929 . S
S2580 N2581 1.613 . S
S2580 N2582 1.610 . S
N2581 S2580 1.613 . S
N2581 C2584 1.350 . S
N2582 S2580 1.610 . S
N2582 C2583 1.351 . S
C2583 C2577 1.428 . S
C2583 N2582 1.351 . S
C2583 C2584 1.434 . S
C2584 C2575 1.429 . S
C2584 N2581 1.350 . S
C2584 C2583 1.434 . S
C2585 C2586 1.369 . S
C2585 C2587 1.419 . S
C2585 H2589 0.930 . S
C2586 C2585 1.369 . S
C2586 C2595 1.429 . S
C2587 C2585 1.419 . S
C2587 C2588 1.363 . S
C2587 H2590 0.929 . S
C2588 C2587 1.363 . S
C2588 C2594 1.428 . S
H2589 C2585 0.930 . S
H2590 C2587 0.929 . S
S2591 N2592 1.613 . S
S2591 N2593 1.610 . S
N2592 S2591 1.613 . S
N2592 C2595 1.350 . S
N2593 S2591 1.610 . S
N2593 C2594 1.351 . S
C2594 C2588 1.428 . S
C2594 N2593 1.351 . S
C2594 C2595 1.434 . S
C2595 C2586 1.429 . S
C2595 N2592 1.350 . S
C2595 C2594 1.434 . S
C2596 C2597 1.369 . S
C2596 C2598 1.419 . S
C2596 H2600 0.930 . S
C2597 C2596 1.369 . S
C2597 C2606 1.429 . S
C2598 C2596 1.419 . S
C2598 C2599 1.363 . S
C2598 H2601 0.929 . S
C2599 C2598 1.363 . S
C2599 C2605 1.428 . S
H2600 C2596 0.930 . S
H2601 C2598 0.929 . S
S2602 N2603 1.613 . S
S2602 N2604 1.610 . S
N2603 S2602 1.613 . S
N2603 C2606 1.350 . S
N2604 S2602 1.610 . S
N2604 C2605 1.351 . S
C2605 C2599 1.428 . S
C2605 N2604 1.351 . S
C2605 C2606 1.434 . S
C2606 C2597 1.429 . S
C2606 N2603 1.350 . S
C2606 C2605 1.434 . S
C2607 C2608 1.369 . S
C2607 C2609 1.419 . S
C2607 H2611 0.930 . S
C2608 C2607 1.369 . S
C2608 C2617 1.429 . S
C2609 C2607 1.419 . S
C2609 C2610 1.363 . S
C2609 H2612 0.929 . S
C2610 C2609 1.363 . S
C2610 C2616 1.428 . S
H2611 C2607 0.930 . S
H2612 C2609 0.929 . S
S2613 N2614 1.613 . S
S2613 N2615 1.610 . S
N2614 S2613 1.613 . S
N2614 C2617 1.350 . S
N2615 S2613 1.610 . S
N2615 C2616 1.351 . S
C2616 C2610 1.428 . S
C2616 N2615 1.351 . S
C2616 C2617 1.434 . S
C2617 C2608 1.429 . S
C2617 N2614 1.350 . S
C2617 C2616 1.434 . S
C2618 C2619 1.369 . S
C2618 C2620 1.419 . S
C2618 H2622 0.930 . S
C2619 C2618 1.369 . S
C2619 C2628 1.429 . S
C2620 C2618 1.419 . S
C2620 C2621 1.363 . S
C2620 H2623 0.929 . S
C2621 C2620 1.363 . S
C2621 C2627 1.428 . S
H2622 C2618 0.930 . S
H2623 C2620 0.929 . S
S2624 N2625 1.613 . S
S2624 N2626 1.610 . S
N2625 S2624 1.613 . S
N2625 C2628 1.350 . S
N2626 S2624 1.610 . S
N2626 C2627 1.351 . S
C2627 C2621 1.428 . S
C2627 N2626 1.351 . S
C2627 C2628 1.434 . S
C2628 C2619 1.429 . S
C2628 N2625 1.350 . S
C2628 C2627 1.434 . S
C2629 C2630 1.369 . S
C2629 C2631 1.419 . S
C2629 H2633 0.930 . S
C2630 C2629 1.369 . S
C2630 C2639 1.429 . S
C2631 C2629 1.419 . S
C2631 C2632 1.363 . S
C2631 H2634 0.929 . S
C2632 C2631 1.363 . S
C2632 C2638 1.428 . S
H2633 C2629 0.930 . S
H2634 C2631 0.929 . S
S2635 N2636 1.613 . S
S2635 N2637 1.610 . S
N2636 S2635 1.613 . S
N2636 C2639 1.350 . S
N2637 S2635 1.610 . S
N2637 C2638 1.351 . S
C2638 C2632 1.428 . S
C2638 N2637 1.351 . S
C2638 C2639 1.434 . S
C2639 C2630 1.429 . S
C2639 N2636 1.350 . S
C2639 C2638 1.434 . S
C2640 C2641 1.369 . S
C2640 C2642 1.419 . S
C2640 H2644 0.930 . S
C2641 C2640 1.369 . S
C2641 C2650 1.429 . S
C2642 C2640 1.419 . S
C2642 C2643 1.363 . S
C2642 H2645 0.929 . S
C2643 C2642 1.363 . S
C2643 C2649 1.428 . S
H2644 C2640 0.930 . S
H2645 C2642 0.929 . S
S2646 N2647 1.613 . S
S2646 N2648 1.610 . S
N2647 S2646 1.613 . S
N2647 C2650 1.350 . S
N2648 S2646 1.610 . S
N2648 C2649 1.351 . S
C2649 C2643 1.428 . S
C2649 N2648 1.351 . S
C2649 C2650 1.434 . S
C2650 C2641 1.429 . S
C2650 N2647 1.350 . S
C2650 C2649 1.434 . S
C2651 C2652 1.369 . S
C2651 C2653 1.419 . S
C2651 H2655 0.930 . S
C2652 C2651 1.369 . S
C2652 C2661 1.429 . S
C2653 C2651 1.419 . S
C2653 C2654 1.363 . S
C2653 H2656 0.929 . S
C2654 C2653 1.363 . S
C2654 C2660 1.428 . S
H2655 C2651 0.930 . S
H2656 C2653 0.929 . S
S2657 N2658 1.613 . S
S2657 N2659 1.610 . S
N2658 S2657 1.613 . S
N2658 C2661 1.350 . S
N2659 S2657 1.610 . S
N2659 C2660 1.351 . S
C2660 C2654 1.428 . S
C2660 N2659 1.351 . S
C2660 C2661 1.434 . S
C2661 C2652 1.429 . S
C2661 N2658 1.350 . S
C2661 C2660 1.434 . S
C2662 C2663 1.369 . S
C2662 C2664 1.419 . S
C2662 H2666 0.930 . S
C2663 C2662 1.369 . S
C2663 C2672 1.429 . S
C2664 C2662 1.419 . S
C2664 C2665 1.363 . S
C2664 H2667 0.929 . S
C2665 C2664 1.363 . S
C2665 C2671 1.428 . S
H2666 C2662 0.930 . S
H2667 C2664 0.929 . S
S2668 N2669 1.613 . S
S2668 N2670 1.610 . S
N2669 S2668 1.613 . S
N2669 C2672 1.350 . S
N2670 S2668 1.610 . S
N2670 C2671 1.351 . S
C2671 C2665 1.428 . S
C2671 N2670 1.351 . S
C2671 C2672 1.434 . S
C2672 C2663 1.429 . S
C2672 N2669 1.350 . S
C2672 C2671 1.434 . S
C2673 C2674 1.369 . S
C2673 C2675 1.419 . S
C2673 H2677 0.930 . S
C2674 C2673 1.369 . S
C2674 C2683 1.429 . S
C2675 C2673 1.419 . S
C2675 C2676 1.363 . S
C2675 H2678 0.929 . S
C2676 C2675 1.363 . S
C2676 C2682 1.428 . S
H2677 C2673 0.930 . S
H2678 C2675 0.929 . S
S2679 N2680 1.613 . S
S2679 N2681 1.610 . S
N2680 S2679 1.613 . S
N2680 C2683 1.350 . S
N2681 S2679 1.610 . S
N2681 C2682 1.351 . S
C2682 C2676 1.428 . S
C2682 N2681 1.351 . S
C2682 C2683 1.434 . S
C2683 C2674 1.429 . S
C2683 N2680 1.350 . S
C2683 C2682 1.434 . S
C2684 C2685 1.369 . S
C2684 C2686 1.419 . S
C2684 H2688 0.930 . S
C2685 C2684 1.369 . S
C2685 C2694 1.429 . S
C2686 C2684 1.419 . S
C2686 C2687 1.363 . S
C2686 H2689 0.929 . S
C2687 C2686 1.363 . S
C2687 C2693 1.428 . S
H2688 C2684 0.930 . S
H2689 C2686 0.929 . S
S2690 N2691 1.613 . S
S2690 N2692 1.610 . S
N2691 S2690 1.613 . S
N2691 C2694 1.350 . S
N2692 S2690 1.610 . S
N2692 C2693 1.351 . S
C2693 C2687 1.428 . S
C2693 N2692 1.351 . S
C2693 C2694 1.434 . S
C2694 C2685 1.429 . S
C2694 N2691 1.350 . S
C2694 C2693 1.434 . S
C2695 C2696 1.369 . S
C2695 C2697 1.419 . S
C2695 H2699 0.930 . S
C2696 C2695 1.369 . S
C2696 C2705 1.429 . S
C2697 C2695 1.419 . S
C2697 C2698 1.363 . S
C2697 H2700 0.929 . S
C2698 C2697 1.363 . S
C2698 C2704 1.428 . S
H2699 C2695 0.930 . S
H2700 C2697 0.929 . S
S2701 N2702 1.613 . S
S2701 N2703 1.610 . S
N2702 S2701 1.613 . S
N2702 C2705 1.350 . S
N2703 S2701 1.610 . S
N2703 C2704 1.351 . S
C2704 C2698 1.428 . S
C2704 N2703 1.351 . S
C2704 C2705 1.434 . S
C2705 C2696 1.429 . S
C2705 N2702 1.350 . S
C2705 C2704 1.434 . S
C2706 C2707 1.369 . S
C2706 C2708 1.419 . S
C2706 H2710 0.930 . S
C2707 C2706 1.369 . S
C2707 C2716 1.429 . S
C2708 C2706 1.419 . S
C2708 C2709 1.363 . S
C2708 H2711 0.929 . S
C2709 C2708 1.363 . S
C2709 C2715 1.428 . S
H2710 C2706 0.930 . S
H2711 C2708 0.929 . S
S2712 N2713 1.613 . S
S2712 N2714 1.610 . S
N2713 S2712 1.613 . S
N2713 C2716 1.350 . S
N2714 S2712 1.610 . S
N2714 C2715 1.351 . S
C2715 C2709 1.428 . S
C2715 N2714 1.351 . S
C2715 C2716 1.434 . S
C2716 C2707 1.429 . S
C2716 N2713 1.350 . S
C2716 C2715 1.434 . S
C2717 C2718 1.369 . S
C2717 C2719 1.419 . S
C2717 H2721 0.930 . S
C2718 C2717 1.369 . S
C2718 C2727 1.429 . S
C2719 C2717 1.419 . S
C2719 C2720 1.363 . S
C2719 H2722 0.929 . S
C2720 C2719 1.363 . S
C2720 C2726 1.428 . S
H2721 C2717 0.930 . S
H2722 C2719 0.929 . S
S2723 N2724 1.613 . S
S2723 N2725 1.610 . S
N2724 S2723 1.613 . S
N2724 C2727 1.350 . S
N2725 S2723 1.610 . S
N2725 C2726 1.351 . S
C2726 C2720 1.428 . S
C2726 N2725 1.351 . S
C2726 C2727 1.434 . S
C2727 C2718 1.429 . S
C2727 N2724 1.350 . S
C2727 C2726 1.434 . S
C2728 C2729 1.369 . S
C2728 C2730 1.419 . S
C2728 H2732 0.930 . S
C2729 C2728 1.369 . S
C2729 C2738 1.429 . S
C2730 C2728 1.419 . S
C2730 C2731 1.363 . S
C2730 H2733 0.929 . S
C2731 C2730 1.363 . S
C2731 C2737 1.428 . S
H2732 C2728 0.930 . S
H2733 C2730 0.929 . S
S2734 N2735 1.613 . S
S2734 N2736 1.610 . S
N2735 S2734 1.613 . S
N2735 C2738 1.350 . S
N2736 S2734 1.610 . S
N2736 C2737 1.351 . S
C2737 C2731 1.428 . S
C2737 N2736 1.351 . S
C2737 C2738 1.434 . S
C2738 C2729 1.429 . S
C2738 N2735 1.350 . S
C2738 C2737 1.434 . S
C2739 C2740 1.369 . S
C2739 C2741 1.419 . S
C2739 H2743 0.930 . S
C2740 C2739 1.369 . S
C2740 C2749 1.429 . S
C2741 C2739 1.419 . S
C2741 C2742 1.363 . S
C2741 H2744 0.929 . S
C2742 C2741 1.363 . S
C2742 C2748 1.428 . S
H2743 C2739 0.930 . S
H2744 C2741 0.929 . S
S2745 N2746 1.613 . S
S2745 N2747 1.610 . S
N2746 S2745 1.613 . S
N2746 C2749 1.350 . S
N2747 S2745 1.610 . S
N2747 C2748 1.351 . S
C2748 C2742 1.428 . S
C2748 N2747 1.351 . S
C2748 C2749 1.434 . S
C2749 C2740 1.429 . S
C2749 N2746 1.350 . S
C2749 C2748 1.434 . S
C2750 C2751 1.369 . S
C2750 C2752 1.419 . S
C2750 H2754 0.930 . S
C2751 C2750 1.369 . S
C2751 C2760 1.429 . S
C2752 C2750 1.419 . S
C2752 C2753 1.363 . S
C2752 H2755 0.929 . S
C2753 C2752 1.363 . S
C2753 C2759 1.428 . S
H2754 C2750 0.930 . S
H2755 C2752 0.929 . S
S2756 N2757 1.613 . S
S2756 N2758 1.610 . S
N2757 S2756 1.613 . S
N2757 C2760 1.350 . S
N2758 S2756 1.610 . S
N2758 C2759 1.351 . S
C2759 C2753 1.428 . S
C2759 N2758 1.351 . S
C2759 C2760 1.434 . S
C2760 C2751 1.429 . S
C2760 N2757 1.350 . S
C2760 C2759 1.434 . S
C2761 C2762 1.369 . S
C2761 C2763 1.419 . S
C2761 H2765 0.930 . S
C2762 C2761 1.369 . S
C2762 C2771 1.429 . S
C2763 C2761 1.419 . S
C2763 C2764 1.363 . S
C2763 H2766 0.929 . S
C2764 C2763 1.363 . S
C2764 C2770 1.428 . S
H2765 C2761 0.930 . S
H2766 C2763 0.929 . S
S2767 N2768 1.613 . S
S2767 N2769 1.610 . S
N2768 S2767 1.613 . S
N2768 C2771 1.350 . S
N2769 S2767 1.610 . S
N2769 C2770 1.351 . S
C2770 C2764 1.428 . S
C2770 N2769 1.351 . S
C2770 C2771 1.434 . S
C2771 C2762 1.429 . S
C2771 N2768 1.350 . S
C2771 C2770 1.434 . S
C2772 C2773 1.369 . S
C2772 C2774 1.419 . S
C2772 H2776 0.930 . S
C2773 C2772 1.369 . S
C2773 C2782 1.429 . S
C2774 C2772 1.419 . S
C2774 C2775 1.363 . S
C2774 H2777 0.929 . S
C2775 C2774 1.363 . S
C2775 C2781 1.428 . S
H2776 C2772 0.930 . S
H2777 C2774 0.929 . S
S2778 N2779 1.613 . S
S2778 N2780 1.610 . S
N2779 S2778 1.613 . S
N2779 C2782 1.350 . S
N2780 S2778 1.610 . S
N2780 C2781 1.351 . S
C2781 C2775 1.428 . S
C2781 N2780 1.351 . S
C2781 C2782 1.434 . S
C2782 C2773 1.429 . S
C2782 N2779 1.350 . S
C2782 C2781 1.434 . S
C2783 C2784 1.369 . S
C2783 C2785 1.419 . S
C2783 H2787 0.930 . S
C2784 C2783 1.369 . S
C2784 C2793 1.429 . S
C2785 C2783 1.419 . S
C2785 C2786 1.363 . S
C2785 H2788 0.929 . S
C2786 C2785 1.363 . S
C2786 C2792 1.428 . S
H2787 C2783 0.930 . S
H2788 C2785 0.929 . S
S2789 N2790 1.613 . S
S2789 N2791 1.610 . S
N2790 S2789 1.613 . S
N2790 C2793 1.350 . S
N2791 S2789 1.610 . S
N2791 C2792 1.351 . S
C2792 C2786 1.428 . S
C2792 N2791 1.351 . S
C2792 C2793 1.434 . S
C2793 C2784 1.429 . S
C2793 N2790 1.350 . S
C2793 C2792 1.434 . S
C2794 C2795 1.369 . S
C2794 C2796 1.419 . S
C2794 H2798 0.930 . S
C2795 C2794 1.369 . S
C2795 C2804 1.429 . S
C2796 C2794 1.419 . S
C2796 C2797 1.363 . S
C2796 H2799 0.929 . S
C2797 C2796 1.363 . S
C2797 C2803 1.428 . S
H2798 C2794 0.930 . S
H2799 C2796 0.929 . S
S2800 N2801 1.613 . S
S2800 N2802 1.610 . S
N2801 S2800 1.613 . S
N2801 C2804 1.350 . S
N2802 S2800 1.610 . S
N2802 C2803 1.351 . S
C2803 C2797 1.428 . S
C2803 N2802 1.351 . S
C2803 C2804 1.434 . S
C2804 C2795 1.429 . S
C2804 N2801 1.350 . S
C2804 C2803 1.434 . S
C2805 C2806 1.369 . S
C2805 C2807 1.419 . S
C2805 H2809 0.930 . S
C2806 C2805 1.369 . S
C2806 C2815 1.429 . S
C2807 C2805 1.419 . S
C2807 C2808 1.363 . S
C2807 H2810 0.929 . S
C2808 C2807 1.363 . S
C2808 C2814 1.428 . S
H2809 C2805 0.930 . S
H2810 C2807 0.929 . S
S2811 N2812 1.613 . S
S2811 N2813 1.610 . S
N2812 S2811 1.613 . S
N2812 C2815 1.350 . S
N2813 S2811 1.610 . S
N2813 C2814 1.351 . S
C2814 C2808 1.428 . S
C2814 N2813 1.351 . S
C2814 C2815 1.434 . S
C2815 C2806 1.429 . S
C2815 N2812 1.350 . S
C2815 C2814 1.434 . S
C2816 C2817 1.369 . S
C2816 C2818 1.419 . S
C2816 H2820 0.930 . S
C2817 C2816 1.369 . S
C2817 C2826 1.429 . S
C2818 C2816 1.419 . S
C2818 C2819 1.363 . S
C2818 H2821 0.929 . S
C2819 C2818 1.363 . S
C2819 C2825 1.428 . S
H2820 C2816 0.930 . S
H2821 C2818 0.929 . S
S2822 N2823 1.613 . S
S2822 N2824 1.610 . S
N2823 S2822 1.613 . S
N2823 C2826 1.350 . S
N2824 S2822 1.610 . S
N2824 C2825 1.351 . S
C2825 C2819 1.428 . S
C2825 N2824 1.351 . S
C2825 C2826 1.434 . S
C2826 C2817 1.429 . S
C2826 N2823 1.350 . S
C2826 C2825 1.434 . S
C2827 C2828 1.369 . S
C2827 C2829 1.419 . S
C2827 H2831 0.930 . S
C2828 C2827 1.369 . S
C2828 C2837 1.429 . S
C2829 C2827 1.419 . S
C2829 C2830 1.363 . S
C2829 H2832 0.929 . S
C2830 C2829 1.363 . S
C2830 C2836 1.428 . S
H2831 C2827 0.930 . S
H2832 C2829 0.929 . S
S2833 N2834 1.613 . S
S2833 N2835 1.610 . S
N2834 S2833 1.613 . S
N2834 C2837 1.350 . S
N2835 S2833 1.610 . S
N2835 C2836 1.351 . S
C2836 C2830 1.428 . S
C2836 N2835 1.351 . S
C2836 C2837 1.434 . S
C2837 C2828 1.429 . S
C2837 N2834 1.350 . S
C2837 C2836 1.434 . S
C2838 C2839 1.369 . S
C2838 C2840 1.419 . S
C2838 H2842 0.930 . S
C2839 C2838 1.369 . S
C2839 C2848 1.429 . S
C2840 C2838 1.419 . S
C2840 C2841 1.363 . S
C2840 H2843 0.929 . S
C2841 C2840 1.363 . S
C2841 C2847 1.428 . S
H2842 C2838 0.930 . S
H2843 C2840 0.929 . S
S2844 N2845 1.613 . S
S2844 N2846 1.610 . S
N2845 S2844 1.613 . S
N2845 C2848 1.350 . S
N2846 S2844 1.610 . S
N2846 C2847 1.351 . S
C2847 C2841 1.428 . S
C2847 N2846 1.351 . S
C2847 C2848 1.434 . S
C2848 C2839 1.429 . S
C2848 N2845 1.350 . S
C2848 C2847 1.434 . S
C2849 C2850 1.369 . S
C2849 C2851 1.419 . S
C2849 H2853 0.930 . S
C2850 C2849 1.369 . S
C2850 C2859 1.429 . S
C2851 C2849 1.419 . S
C2851 C2852 1.363 . S
C2851 H2854 0.929 . S
C2852 C2851 1.363 . S
C2852 C2858 1.428 . S
H2853 C2849 0.930 . S
H2854 C2851 0.929 . S
S2855 N2856 1.613 . S
S2855 N2857 1.610 . S
N2856 S2855 1.613 . S
N2856 C2859 1.350 . S
N2857 S2855 1.610 . S
N2857 C2858 1.351 . S
C2858 C2852 1.428 . S
C2858 N2857 1.351 . S
C2858 C2859 1.434 . S
C2859 C2850 1.429 . S
C2859 N2856 1.350 . S
C2859 C2858 1.434 . S
C2860 C2861 1.369 . S
C2860 C2862 1.419 . S
C2860 H2864 0.930 . S
C2861 C2860 1.369 . S
C2861 C2870 1.429 . S
C2862 C2860 1.419 . S
C2862 C2863 1.363 . S
C2862 H2865 0.929 . S
C2863 C2862 1.363 . S
C2863 C2869 1.428 . S
H2864 C2860 0.930 . S
H2865 C2862 0.929 . S
S2866 N2867 1.613 . S
S2866 N2868 1.610 . S
N2867 S2866 1.613 . S
N2867 C2870 1.350 . S
N2868 S2866 1.610 . S
N2868 C2869 1.351 . S
C2869 C2863 1.428 . S
C2869 N2868 1.351 . S
C2869 C2870 1.434 . S
C2870 C2861 1.429 . S
C2870 N2867 1.350 . S
C2870 C2869 1.434 . S
C2871 C2872 1.369 . S
C2871 C2873 1.419 . S
C2871 H2875 0.930 . S
C2872 C2871 1.369 . S
C2872 C2881 1.429 . S
C2873 C2871 1.419 . S
C2873 C2874 1.363 . S
C2873 H2876 0.929 . S
C2874 C2873 1.363 . S
C2874 C2880 1.428 . S
H2875 C2871 0.930 . S
H2876 C2873 0.929 . S
S2877 N2878 1.613 . S
S2877 N2879 1.610 . S
N2878 S2877 1.613 . S
N2878 C2881 1.350 . S
N2879 S2877 1.610 . S
N2879 C2880 1.351 . S
C2880 C2874 1.428 . S
C2880 N2879 1.351 . S
C2880 C2881 1.434 . S
C2881 C2872 1.429 . S
C2881 N2878 1.350 . S
C2881 C2880 1.434 . S
C2882 C2883 1.369 . S
C2882 C2884 1.419 . S
C2882 H2886 0.930 . S
C2883 C2882 1.369 . S
C2883 C2892 1.429 . S
C2884 C2882 1.419 . S
C2884 C2885 1.363 . S
C2884 H2887 0.929 . S
C2885 C2884 1.363 . S
C2885 C2891 1.428 . S
H2886 C2882 0.930 . S
H2887 C2884 0.929 . S
S2888 N2889 1.613 . S
S2888 N2890 1.610 . S
N2889 S2888 1.613 . S
N2889 C2892 1.350 . S
N2890 S2888 1.610 . S
N2890 C2891 1.351 . S
C2891 C2885 1.428 . S
C2891 N2890 1.351 . S
C2891 C2892 1.434 . S
C2892 C2883 1.429 . S
C2892 N2889 1.350 . S
C2892 C2891 1.434 . S
C2893 C2894 1.369 . S
C2893 C2895 1.419 . S
C2893 H2897 0.930 . S
C2894 C2893 1.369 . S
C2894 C2903 1.429 . S
C2895 C2893 1.419 . S
C2895 C2896 1.363 . S
C2895 H2898 0.929 . S
C2896 C2895 1.363 . S
C2896 C2902 1.428 . S
H2897 C2893 0.930 . S
H2898 C2895 0.929 . S
S2899 N2900 1.613 . S
S2899 N2901 1.610 . S
N2900 S2899 1.613 . S
N2900 C2903 1.350 . S
N2901 S2899 1.610 . S
N2901 C2902 1.351 . S
C2902 C2896 1.428 . S
C2902 N2901 1.351 . S
C2902 C2903 1.434 . S
C2903 C2894 1.429 . S
C2903 N2900 1.350 . S
C2903 C2902 1.434 . S
C1585 C292 1.222 . S
C1587 N5 1.212 . S
C1596 C325 1.222 . S
C1598 N38 1.212 . S
C1607 N71 1.211 . S
C1609 C358 1.222 . S
C1618 N104 1.217 . S
C1620 C391 1.224 . S
C1629 N137 1.212 . S
C1631 C424 1.222 . S
C1640 C457 1.221 . S
C1642 N170 1.212 1_455 S
C1651 C490 1.224 . S
C1653 N203 1.216 . S
C1662 N236 1.213 1_655 S
C1664 C523 1.223 . S
C1673 N269 1.211 . S
C1675 C556 1.222 . S
C1684 N302 1.217 1_554 S
C1686 C1579 1.224 . S
C1695 N335 1.217 . S
C1697 C1513 1.224 . S
C1706 N368 1.215 1_554 S
C1708 C1546 1.224 . S
C1717 C589 1.224 . S
C1719 N401 1.214 . S
C1728 C622 1.223 . S
C1730 N434 1.215 1_556 S
C1739 N467 1.211 . S
C1741 C655 1.222 . S
C1750 N500 1.213 1_556 S
C1752 C1480 1.223 . S
C1761 N533 1.213 . S
C1763 C28 1.222 . S
C1772 C160 1.224 . S
C1774 N566 1.215 . S
C1783 N599 1.217 . S
C1785 C193 1.224 . S
C1794 C226 1.224 . S
C1796 N632 1.215 . S
C1805 N665 1.211 . S
C1807 C1051 1.222 . S
C1816 N698 1.215 . S
C1818 C886 1.223 . S
C1827 N731 1.215 . S
C1829 C919 1.223 . S
C1838 N764 1.215 1_545 S
C1840 C853 1.223 . S
C1849 C1084 1.221 . S
C1851 N797 1.212 . S
C1860 C1117 1.221 . S
C1862 N830 1.212 1_655 S
C1871 C1150 1.223 . S
C1873 N863 1.214 . S
C1882 N896 1.213 1_455 S
C1884 C1183 1.222 . S
C1893 C1216 1.225 . S
C1895 N929 1.217 . S
C1904 C1249 1.224 . S
C1906 N962 1.215 . S
C1915 N995 1.211 . S
C1917 C1282 1.222 . S
C1926 N1028 1.214 . S
C1928 C1315 1.223 . S
C1937 N1061 1.217 . S
C1939 C1348 1.224 . S
C1948 C787 1.222 . S
C1950 N1094 1.212 . S
C1959 C721 1.224 . S
C1961 N1127 1.216 . S
C1970 N1160 1.217 . S
C1972 C754 1.224 . S
C1981 N1193 1.211 . S
C1983 C1381 1.222 . S
C1992 N1226 1.212 . S
C1994 C1414 1.222 . S
C2003 C1447 1.225 . S
C2005 N1259 1.217 . S
C2014 N1292 1.212 . S
C2016 C688 1.223 . S
C2025 C820 1.222 . S
C2027 N1325 1.214 . S
C2036 N1358 1.212 . S
C2038 C952 1.222 . S
C2047 N1391 1.216 1_545 S
C2049 C985 1.223 . S
C2058 C1018 1.222 . S
C2060 N1424 1.212 . S
C2069 N1457 1.215 1_565 S
C2071 C259 1.223 . S
C2080 N1490 1.214 . S
C2082 C94 1.223 . S
C2091 C127 1.223 . S
C2093 N1523 1.215 1_565 S
C2102 C61 1.225 . S
C2104 N1556 1.216 . S
C2113 C17 1.691 . S
C2115 C83 1.695 . S
C2124 C50 1.696 . S
C2126 C116 1.691 . S
C2135 C215 1.696 . S
C2137 C149 1.693 . S
C2146 C182 1.696 . S
C2148 C248 1.692 . S
C2157 C413 1.695 . S
C2159 C281 1.691 . S
C2168 C314 1.695 . S
C2170 C446 1.691 . S
C2179 C479 1.692 . S
C2181 C347 1.692 . S
C2190 C512 1.694 . S
C2192 C380 1.695 . S
C2201 C1436 1.690 . S
C2203 C545 1.694 . S
C2212 C578 1.690 . S
C2214 C710 1.693 . S
C2223 C611 1.690 . S
C2225 C743 1.695 . S
C2234 C644 1.690 . S
C2236 C1337 1.693 . S
C2245 C1568 1.690 . S
C2247 C677 1.695 . S
C2256 C1469 1.696 . S
C2258 C776 1.691 . S
C2267 C875 1.694 . S
C2269 C809 1.695 . S
C2278 C908 1.696 . S
C2280 C842 1.691 . S
C2289 C1007 1.694 . S
C2291 C941 1.695 . S
C2300 C1040 1.696 . S
C2302 C974 1.691 . S
C2311 C1073 1.691 . S
C2313 C1205 1.695 . S
C2322 C1238 1.696 . S
C2324 C1106 1.691 . S
C2333 C1139 1.690 . S
C2335 C1271 1.695 . S
C2344 C1304 1.695 . S
C2346 C1172 1.694 . S
C2355 C1502 1.694 . S
C2357 C1370 1.695 . S
C2366 C1403 1.696 . S
C2368 C1535 1.691 . S
C2377 C437 1.689 . S
C2379 N14 1.612 . S
C2388 C470 1.689 . S
C2390 N47 1.612 . S
C2399 N80 1.606 . S
C2401 C503 1.688 . S
C2410 N113 1.608 . S
C2412 C404 1.689 . S
C2421 N146 1.612 . S
C2423 C1163 1.689 . S
C2432 C1064 1.689 . S
C2434 N179 1.609 . S
C2443 C1097 1.688 . S
C2445 N212 1.606 . S
C2454 N245 1.611 . S
C2456 C1130 1.689 . S
C2465 N278 1.604 . S
C2467 C833 1.688 . S
C2476 C866 1.688 . S
C2478 N311 1.606 . S
C2487 C899 1.689 . S
C2489 N344 1.612 . S
C2498 N377 1.604 . S
C2500 C800 1.688 . S
C2509 N410 1.604 . S
C2511 C239 1.688 . S
C2520 N443 1.604 . S
C2522 C140 1.688 . S
C2531 C173 1.688 . S
C2533 N476 1.607 . S
C2542 N509 1.606 . S
C2544 C206 1.688 . S
C2553 C1526 1.689 . S
C2555 N542 1.609 . S
C2564 N575 1.606 . S
C2566 C1394 1.688 . S
C2575 C1427 1.689 . S
C2577 N608 1.608 . S
C2586 N641 1.607 . S
C2588 C668 1.688 . S
C2597 C569 1.689 . S
C2599 N674 1.612 . S
C2608 N707 1.604 . S
C2610 C767 1.688 . S
C2619 N740 1.607 . S
C2621 C701 1.688 . S
C2630 C1328 1.689 . S
C2632 N773 1.608 . S
C2641 C1229 1.689 . S
C2643 N806 1.609 . S
C2652 C1262 1.689 . S
C2654 N839 1.611 . S
C2663 N872 1.607 . S
C2665 C1295 1.689 . S
C2674 N905 1.604 . S
C2676 C1196 1.688 . S
C2685 C371 1.689 . S
C2687 N938 1.612 . S
C2696 N971 1.613 . S
C2698 C272 1.689 . S
C2707 N1004 1.610 . S
C2709 C305 1.689 . S
C2718 N1037 1.611 . S
C2720 C338 1.689 . S
C2729 N1070 1.611 . S
C2731 C41 1.689 . S
C2740 N1103 1.604 . S
C2742 C74 1.688 . S
C2751 N1136 1.612 . S
C2753 C107 1.689 . S
C2762 N1169 1.613 . S
C2764 C8 1.689 . S
C2773 C1031 1.689 . S
C2775 N1202 1.612 . S
C2784 C932 1.689 . S
C2786 N1235 1.611 . S
C2795 N1268 1.613 . S
C2797 C965 1.689 . S
C2806 N1301 1.607 . S
C2808 C998 1.688 . S
C2817 C734 1.689 . S
C2819 N1334 1.609 . S
C2828 N1367 1.605 . S
C2830 C602 1.688 . S
C2839 C635 1.689 . S
C2841 N1400 1.608 . S
C2850 N1433 1.606 . S
C2852 C1460 1.688 . S
C2861 C1361 1.688 . S
C2863 N1466 1.605 . S
C2872 C1559 1.689 . S
C2874 N1499 1.612 . S
C2883 C1493 1.688 . S
C2885 N1532 1.605 . S
C2894 N1565 1.604 . S
C2896 C536 1.688 . S
