# Generated by pormake.
# Topology wjf, (4)-cn, num edge types: 1
# Building blocks:
#     Node 0, Type 0, BuildingBlock: ICAMEG_clean_sbu_1, # of connection points: 4
#     Node 1, Type 0, BuildingBlock: ICAMEG_clean_sbu_1, # of connection points: 4
#     Node 2, Type 0, BuildingBlock: ICAMEG_clean_sbu_1, # of connection points: 4
#     Node 3, Type 0, BuildingBlock: ICAMEG_clean_sbu_1, # of connection points: 4
#     Node 4, Type 0, BuildingBlock: ICAMEG_clean_sbu_1, # of connection points: 4
#     Node 5, Type 0, BuildingBlock: ICAMEG_clean_sbu_1, # of connection points: 4
#     Node 6, Type 0, BuildingBlock: ICAMEG_clean_sbu_1, # of connection points: 4
#     Node 7, Type 0, BuildingBlock: ICAMEG_clean_sbu_1, # of connection points: 4
#     Node 8, Type 0, BuildingBlock: ICAMEG_clean_sbu_1, # of connection points: 4
#     Node 9, Type 0, BuildingBlock: ICAMEG_clean_sbu_1, # of connection points: 4
#     Node 10, Type 0, BuildingBlock: ICAMEG_clean_sbu_1, # of connection points: 4
#     Node 11, Type 0, BuildingBlock: ICAMEG_clean_sbu_1, # of connection points: 4
#     Edge 12, Type (0, 0), None
#     Edge 13, Type (0, 0), None
#     Edge 14, Type (0, 0), None
#     Edge 15, Type (0, 0), None
#     Edge 16, Type (0, 0), None
#     Edge 17, Type (0, 0), None
#     Edge 18, Type (0, 0), None
#     Edge 19, Type (0, 0), None
#     Edge 20, Type (0, 0), None
#     Edge 21, Type (0, 0), None
#     Edge 22, Type (0, 0), None
#     Edge 23, Type (0, 0), None
#     Edge 24, Type (0, 0), None
#     Edge 25, Type (0, 0), None
#     Edge 26, Type (0, 0), None
#     Edge 27, Type (0, 0), None
#     Edge 28, Type (0, 0), None
#     Edge 29, Type (0, 0), None
#     Edge 30, Type (0, 0), None
#     Edge 31, Type (0, 0), None
#     Edge 32, Type (0, 0), None
#     Edge 33, Type (0, 0), None
#     Edge 34, Type (0, 0), None
#     Edge 35, Type (0, 0), None
# Relax obj value: 0.039
# Max RMSD: 0.066
# Mean RMSD: 0.066
data_MOF--net-wjf--node1-ICAMEG_clean_sbu_1--edge1-none
_symmetry_space_group_name_H-M    P1
_symmetry_Int_Tables_number       1
_symmetry_cell_setting            triclinic
loop_
_symmetry_equiv_pos_as_xyz
'x, y, z'
_cell_length_a     27.444248
_cell_length_b     27.658528
_cell_length_c     14.499681
_cell_angle_alpha  90.067154
_cell_angle_beta   89.986856
_cell_angle_gamma 120.38249
loop_
_atom_site_label
_atom_site_type_symbol
_atom_site_fract_x
_atom_site_fract_y
_atom_site_fract_z
_atom_type_partial_charge
Co0 Co 0.36509 0.33196 0.05957 0.0
Co1 Co 0.31558 0.41818 0.99096 0.0
O2 O 0.3158 0.36292 0.07344 0.0
C3 C 0.37189 0.36364 0.26063 0.0
O4 O 0.38294 0.41378 0.23599 0.0
C5 C 0.19138 0.36282 0.93333 0.0
O6 O 0.20646 0.35771 0.84964 0.0
O7 O 0.31108 0.37283 0.87942 0.0
O8 O 0.36135 0.33346 0.92122 0.0
H9 H 0.35818 0.51349 0.68681 0.0
H10 H 0.3332 0.22772 0.16435 0.0
O11 O 0.36897 0.32874 0.19964 0.0
H12 H 0.16584 0.18333 0.97682 0.0
H13 H 0.41181 0.19593 0.91598 0.0
H14 H 0.46985 0.34539 0.1494 0.0
H15 H 0.25096 0.27686 0.96936 0.0
H16 H 0.35747 0.24335 0.93883 0.0
O17 O 0.22824 0.37996 -0.00138 0.0
H18 H 0.37449 0.46599 0.81543 0.0
H19 H 0.25744 0.48268 0.98052 0.0
H20 H 0.52431 0.29581 0.12952 0.0
H21 H 0.24828 0.13446 0.17646 0.0
H22 H 0.49564 0.22249 0.0131 0.0
H23 H 0.16395 0.11115 0.08102 0.0
O24 O 0.4357 0.41009 0.05451 0.0
H25 H 0.28023 0.43446 0.32433 0.0
H26 H 0.36424 0.5402 0.04026 0.0
H27 H 0.36357 0.58957 0.17998 0.0
H28 H 0.32828 0.53858 0.32531 0.0
H29 H 0.26548 0.38548 0.17759 0.0
H30 H 0.24345 0.53627 0.85487 0.0
H31 H 0.29112 0.54853 0.70661 0.0
O32 O 0.40348 0.46273 0.98931 0.0
C33 C 0.3368 0.34669 0.85995 0.0
C34 C 0.33491 0.50634 0.75033 0.0
C35 C 0.27016 0.51869 0.84514 0.0
N36 N 0.31584 0.47137 0.90501 0.0
C37 C 0.34463 0.48021 0.82406 0.0
C38 C 0.27957 0.49064 0.91639 0.0
C39 C 0.29693 0.52528 0.76109 0.0
C40 C 0.29669 0.21832 0.12296 0.0
N41 N 0.29779 0.25772 0.06458 0.0
C42 C 0.24871 0.16518 0.12982 0.0
C43 C 0.20143 0.15224 0.07647 0.0
C44 C 0.20254 0.19268 0.01786 0.0
C45 C 0.2512 0.24558 0.01323 0.0
C46 C 0.42521 0.229 0.96656 0.0
C47 C 0.45744 0.31297 0.09786 0.0
C48 C 0.39502 0.25647 0.9794 0.0
N49 N 0.41118 0.29786 0.04428 0.0
C50 C 0.48881 0.28623 0.08625 0.0
C51 C 0.47237 0.24408 0.02062 0.0
C52 C 0.44456 0.45698 0.02041 0.0
C53 C 0.29768 0.45813 0.26165 0.0
C54 C 0.34585 0.51691 0.10157 0.0
C55 C 0.34749 0.54545 0.1815 0.0
C56 C 0.32515 0.51615 0.26259 0.0
N57 N 0.3177 0.45996 0.10007 0.0
C58 C 0.29095 0.43063 0.17813 0.0
Co59 Co 0.00049 0.36489 0.4134 0.0
Co60 Co 0.86806 0.3296 0.34185 0.0
O61 O 0.91997 0.32156 0.41938 0.0
C62 C 0.96776 0.34399 0.61429 0.0
O63 O 0.9316 0.29173 0.59237 0.0
C64 C 0.79515 0.2138 0.26925 0.0
O65 O 0.81746 0.23472 0.1889 0.0
O66 O 0.90945 0.32705 0.22808 0.0
O67 O -0.00121 0.35671 0.27463 0.0
H68 H 0.791 0.35486 0.04571 0.0
H69 H 0.06294 0.32949 0.53784 0.0
O70 O 0.00181 0.37749 0.55295 0.0
H71 H 0.94086 0.16369 0.3473 0.0
H72 H 0.18617 0.40414 0.29118 0.0
H73 H 0.0882 0.46483 0.50326 0.0
H74 H 0.9392 0.25143 0.32788 0.0
H75 H 0.0839 0.34934 0.30877 0.0
O76 O 0.81492 0.24454 0.34128 0.0
H77 H 0.86698 0.3697 0.14968 0.0
H78 H 0.7498 0.30494 0.37192 0.0
H79 H 0.19118 0.52598 0.48176 0.0
H80 H 0.0661 0.24263 0.55944 0.0
H81 H 0.24052 0.4943 0.37826 0.0
H82 H 0.00486 0.15901 0.46352 0.0
O83 O 0.00162 0.43797 0.396 0.0
H84 H 0.833 0.28084 0.66677 0.0
H85 H 0.84688 0.41527 0.43256 0.0
H86 H 0.86625 0.44362 0.59742 0.0
H87 H 0.86142 0.37755 0.71168 0.0
H88 H 0.81937 0.25469 0.50411 0.0
H89 H 0.67683 0.29968 0.2729 0.0
H90 H 0.69264 0.31163 0.10244 0.0
O91 O 0.91668 0.41456 0.33901 0.0
C92 C 0.9614 0.34278 0.21131 0.0
C93 C 0.78126 0.341 0.11584 0.0
C94 C 0.71674 0.30947 0.24295 0.0
N95 N 0.81295 0.33495 0.26673 0.0
C96 C 0.82451 0.35025 0.17627 0.0
C97 C 0.75993 0.31606 0.30059 0.0
C98 C 0.72633 0.31777 0.14853 0.0
C99 C 0.03604 0.29317 0.49607 0.0
N100 N 0.00117 0.29561 0.43121 0.0
C101 C 0.03806 0.24415 0.50854 0.0
C102 C 0.00372 0.19727 0.45464 0.0
C103 C 0.96786 0.1999 0.38932 0.0
C104 C 0.96716 0.24973 0.37849 0.0
C105 C 0.16574 0.41831 0.33858 0.0
C106 C 0.11033 0.45266 0.45711 0.0
C107 C 0.10761 0.38744 0.34835 0.0
N108 N 0.08093 0.40527 0.40668 0.0
C109 C 0.16818 0.4863 0.44594 0.0
C110 C 0.19595 0.46829 0.38743 0.0
C111 C 0.96646 0.45135 0.36484 0.0
C112 C 0.8331 0.30942 0.61609 0.0
C113 C 0.84218 0.38505 0.48372 0.0
C114 C 0.85246 0.40136 0.5761 0.0
C115 C 0.84929 0.36371 0.64179 0.0
N116 N 0.83461 0.33434 0.45738 0.0
C117 C 0.82482 0.29486 0.52301 0.0
Co118 Co 0.61609 0.00303 0.76197 0.0
Co119 Co 0.51849 0.87487 0.67027 0.0
O120 O 0.57284 0.92085 0.76553 0.0
C121 C 0.59024 0.97125 0.96515 0.0
O122 O 0.56523 0.91764 0.94554 0.0
C123 C 0.57765 0.80874 0.71911 0.0
O124 O 0.60549 0.84316 0.787 0.0
O125 O 0.57462 0.91706 0.56986 0.0
O126 O 0.62451 0.00397 0.62643 0.0
H127 H 0.43735 0.84735 0.3526 0.0
H128 H 0.71456 0.05978 0.88955 0.0
O129 O 0.60954 0.00803 0.90109 0.0
H130 H 0.75024 0.93235 0.70137 0.0
H131 H 0.77539 0.1847 0.64353 0.0
H132 H 0.61215 0.09536 0.85191 0.0
H133 H 0.6646 0.93809 0.67671 0.0
H134 H 0.71991 0.08264 0.65869 0.0
O135 O 0.54407 0.81706 0.66965 0.0
H136 H 0.49088 0.90151 0.48792 0.0
H137 H 0.43438 0.74989 0.63559 0.0
H138 H 0.6635 0.19871 0.83316 0.0
H139 H 0.80019 0.05452 0.91767 0.0
H140 H 0.74598 0.24372 0.73159 0.0
H141 H 0.81879 -0.00926 0.82285 0.0
O142 O 0.54397 0.00678 0.74151 0.0
H143 H 0.38374 0.71539 0.887 0.0
H144 H 0.48016 0.91452 0.82807 0.0
H145 H 0.40462 0.87459 0.93773 0.0
H146 H 0.34918 0.77111 0.95803 0.0
H147 H 0.46199 0.75789 0.77164 0.0
H148 H 0.37337 0.69627 0.50963 0.0
H149 H 0.3776 0.74334 0.36387 0.0
O150 O 0.48721 0.92799 0.66183 0.0
C151 C 0.60916 0.96958 0.56024 0.0
C152 C 0.4355 0.826 0.41596 0.0
C153 C 0.3994 0.74138 0.50419 0.0
N154 N 0.46529 0.82986 0.57333 0.0
C155 C 0.46627 0.85641 0.49305 0.0
C156 C 0.43337 0.77271 0.57767 0.0
C157 C 0.40149 0.76809 0.42226 0.0
C158 C 0.7219 0.03148 0.84837 0.0
N159 N 0.68437 -0.00065 0.78112 0.0
C160 C 0.7707 0.02891 0.86443 0.0
C161 C 0.78113 -0.00683 0.81117 0.0
C162 C 0.74275 0.9605 0.74289 0.0
C163 C 0.69435 0.96416 0.72883 0.0
C164 C 0.73955 0.16594 0.6896 0.0
C165 C 0.6472 0.11542 0.80605 0.0
C166 C 0.70758 0.10794 0.69804 0.0
N167 N 0.66156 0.0835 0.75508 0.0
C168 C 0.67703 0.17342 0.79735 0.0
C169 C 0.72372 0.19882 0.73942 0.0
C170 C 0.49803 0.97523 0.69593 0.0
C171 C 0.40195 0.75797 0.86536 0.0
C172 C 0.45502 0.86996 0.82979 0.0
C173 C 0.41356 0.84742 0.89688 0.0
C174 C 0.38379 0.79017 0.90959 0.0
N175 N 0.46555 0.8368 0.77272 0.0
C176 C 0.4449 0.78236 0.79899 0.0
Co177 Co 0.58483 0.63277 0.05998 0.0
Co178 Co 0.63416 0.54642 0.99081 0.0
O179 O 0.63404 0.60171 0.07364 0.0
C180 C 0.57795 0.60104 0.26089 0.0
O181 O 0.56686 0.55089 0.23602 0.0
C182 C 0.75829 0.60143 0.93329 0.0
O183 O 0.74325 0.60653 0.8496 0.0
O184 O 0.63872 0.59185 0.87952 0.0
O185 O 0.58856 0.63132 0.92161 0.0
H186 H 0.59102 0.45118 0.68619 0.0
H187 H 0.61687 0.737 0.16535 0.0
O188 O 0.58091 0.63596 0.20005 0.0
H189 H 0.78421 0.78118 0.97798 0.0
H190 H 0.53837 0.76903 0.91721 0.0
H191 H 0.47965 0.61888 0.14891 0.0
H192 H 0.69895 0.68776 0.96993 0.0
H193 H 0.59288 0.72181 0.94028 0.0
O194 O 0.72146 0.5845 -0.00145 0.0
H195 H 0.57496 0.49864 0.81539 0.0
H196 H 0.69237 0.48193 0.97935 0.0
H197 H 0.42481 0.66801 0.12844 0.0
H198 H 0.70194 0.83014 0.17807 0.0
H199 H 0.45391 0.74177 0.01298 0.0
H200 H 0.78626 0.85335 0.08272 0.0
O201 O 0.51415 0.55467 0.05463 0.0
H202 H 0.66926 0.52984 0.32413 0.0
H203 H 0.58562 0.42443 0.03927 0.0
H204 H 0.58589 0.37488 0.17872 0.0
H205 H 0.62104 0.42573 0.32443 0.0
H206 H 0.68418 0.57898 0.17768 0.0
H207 H 0.70609 0.42839 0.85306 0.0
H208 H 0.65803 0.41604 0.70519 0.0
O209 O 0.54626 0.50196 0.98914 0.0
C210 C 0.61306 0.61804 0.86023 0.0
C211 C 0.61438 0.45827 0.74962 0.0
C212 C 0.67933 0.44592 0.84377 0.0
N213 N 0.63377 0.49322 0.90446 0.0
C214 C 0.60482 0.48439 0.82367 0.0
C215 C 0.67007 0.47395 0.91536 0.0
C216 C 0.65235 0.43931 0.75991 0.0
C217 C 0.65338 0.74636 0.12401 0.0
N218 N 0.65219 0.70696 0.06534 0.0
C219 C 0.70144 0.79943 0.13121 0.0
C220 C 0.74871 0.81231 0.07791 0.0
C221 C 0.74752 0.77188 0.01899 0.0
C222 C 0.69878 0.71904 0.01402 0.0
C223 C 0.52483 0.73582 0.96742 0.0
C224 C 0.49222 0.65148 0.09777 0.0
C225 C 0.55515 0.7085 0.98044 0.0
N226 N 0.5388 0.66694 0.04486 0.0
C227 C 0.46068 0.67799 0.08586 0.0
C228 C 0.47732 0.72035 0.02074 0.0
C229 C 0.50523 0.50776 0.02038 0.0
C230 C 0.65183 0.50624 0.26128 0.0
C231 C 0.60388 0.44764 0.10075 0.0
C232 C 0.60206 0.419 0.18054 0.0
C233 C 0.6243 0.44823 0.26184 0.0
N234 N 0.63201 0.50458 0.09965 0.0
C235 C 0.65868 0.53383 0.17793 0.0
Co236 Co 0.94856 0.59849 0.41353 0.0
Co237 Co 0.0811 0.63398 0.34205 0.0
O238 O 0.02909 0.64196 0.41958 0.0
C239 C -0.01869 0.61937 0.61451 0.0
O240 O 0.01737 0.67166 0.59285 0.0
C241 C 0.15379 0.7497 0.26935 0.0
O242 O 0.13147 0.72859 0.18903 0.0
O243 O 0.03957 0.63624 0.22826 0.0
O244 O 0.95026 0.6067 0.2748 0.0
H245 H 0.15854 0.60886 0.04595 0.0
H246 H 0.88595 0.63364 0.53824 0.0
O247 O 0.94728 0.58586 0.55302 0.0
H248 H 0.00757 0.79953 0.34819 0.0
H249 H 0.76294 0.55881 0.29059 0.0
H250 H 0.86079 0.49865 0.50348 0.0
H251 H 0.0096 0.71196 0.32846 0.0
H252 H 0.86513 0.61377 0.30871 0.0
O253 O 0.13409 0.71909 0.34143 0.0
H254 H 0.08244 0.59405 0.1496 0.0
H255 H 0.19941 0.65875 0.37238 0.0
H256 H 0.75786 0.43734 0.48154 0.0
H257 H 0.88242 0.72031 0.56016 0.0
H258 H 0.70855 0.46876 0.37765 0.0
H259 H 0.94343 0.80398 0.46448 0.0
O260 O 0.94758 0.5255 0.39579 0.0
H261 H 0.11604 0.68307 0.66703 0.0
H262 H 0.10288 0.54876 0.43261 0.0
H263 H 0.0842 0.52071 0.59747 0.0
H264 H 0.08863 0.58669 0.71188 0.0
H265 H 0.12931 0.70901 0.50439 0.0
H266 H 0.27242 0.66388 0.27367 0.0
H267 H 0.25676 0.6518 0.10314 0.0
O268 O 0.03266 0.54898 0.3393 0.0
C269 C -0.01237 0.62057 0.21149 0.0
C270 C 0.16818 0.62263 0.11616 0.0
C271 C 0.23254 0.65407 0.24356 0.0
N272 N 0.13632 0.6287 0.26697 0.0
C273 C 0.12487 0.61344 0.17642 0.0
C274 C 0.18931 0.64757 0.30102 0.0
C275 C 0.22305 0.64574 0.14911 0.0
C276 C 0.91276 0.66998 0.4966 0.0
N277 N 0.9477 0.66767 0.43169 0.0
C278 C 0.91053 0.71889 0.50924 0.0
C279 C 0.94474 0.7658 0.45547 0.0
C280 C -0.01932 0.7633 0.39012 0.0
C281 C -0.01841 0.71357 0.37912 0.0
C282 C 0.78332 0.54474 0.33817 0.0
C283 C 0.8387 0.51068 0.45709 0.0
C284 C 0.84143 0.57571 0.34821 0.0
N285 N 0.86811 0.55799 0.40667 0.0
C286 C 0.78086 0.47695 0.44567 0.0
C287 C 0.75311 0.49481 0.38696 0.0
C288 C -0.01715 0.51217 0.36489 0.0
C289 C 0.11618 0.65457 0.61631 0.0
C290 C 0.1075 0.57899 0.48381 0.0
C291 C 0.09759 0.56284 0.57621 0.0
C292 C 0.10054 0.60045 0.64197 0.0
N293 N 0.11465 0.62953 0.45757 0.0
C294 C 0.12424 0.66901 0.52325 0.0
Co295 Co 0.33288 0.96116 0.76184 0.0
Co296 Co 0.4305 0.08927 0.67025 0.0
O297 O 0.37615 0.04341 0.76558 0.0
C298 C 0.35881 -0.00718 0.96522 0.0
O299 O 0.38424 0.04648 0.946 0.0
C300 C 0.37146 0.15569 0.71862 0.0
O301 O 0.34338 0.12136 0.78634 0.0
O302 O 0.37429 0.04698 0.56989 0.0
O303 O 0.32451 0.96011 0.62631 0.0
H304 H 0.51137 0.11604 0.35255 0.0
H305 H 0.23427 0.90441 0.88904 0.0
O306 O 0.33928 0.95614 0.90091 0.0
H307 H 0.19874 0.03176 0.70094 0.0
H308 H 0.17345 0.77919 0.64371 0.0
H309 H 0.3369 0.86904 0.85183 0.0
H310 H 0.28444 0.02609 0.67662 0.0
H311 H 0.22912 0.88131 0.65826 0.0
O312 O 0.40507 0.14719 0.66951 0.0
H313 H 0.45798 0.06219 0.48802 0.0
H314 H 0.51455 0.21418 0.63524 0.0
H315 H 0.28541 0.76565 0.83369 0.0
H316 H 0.14856 0.90959 0.9168 0.0
H317 H 0.20278 0.72037 0.73239 0.0
H318 H 0.13004 0.97333 0.82202 0.0
O319 O 0.40502 0.95742 0.74154 0.0
H320 H 0.56565 0.24913 0.88656 0.0
H321 H 0.46886 0.04984 0.82808 0.0
H322 H 0.54443 0.08992 0.93779 0.0
H323 H 0.59997 0.19343 0.95802 0.0
H324 H 0.48729 0.20649 0.77134 0.0
H325 H 0.57548 0.26748 0.5092 0.0
H326 H 0.57107 0.22007 0.36354 0.0
O327 O 0.46172 0.03609 0.66182 0.0
C328 C 0.33981 -0.00556 0.5602 0.0
C329 C 0.51326 0.13753 0.41586 0.0
C330 C 0.54942 0.22235 0.50385 0.0
N331 N 0.48363 0.13405 0.57324 0.0
C332 C 0.48258 0.10731 0.49303 0.0
C333 C 0.51552 0.19121 0.5774 0.0
C334 C 0.54725 0.19545 0.422 0.0
C335 C 0.22696 0.93268 0.84787 0.0
N336 N 0.26457 0.96482 0.78082 0.0
C337 C 0.17811 0.93521 0.86373 0.0
C338 C 0.16773 0.97094 0.81049 0.0
C339 C 0.20619 0.00362 0.74244 0.0
C340 C 0.25463 0.0 0.72857 0.0
C341 C 0.20935 0.79806 0.68972 0.0
C342 C 0.30181 0.84887 0.80603 0.0
C343 C 0.24142 0.8561 0.69779 0.0
N344 N 0.28747 0.88067 0.75484 0.0
C345 C 0.27188 0.79085 0.7977 0.0
C346 C 0.22513 0.7653 0.73987 0.0
C347 C 0.45092 -0.0111 0.69593 0.0
C348 C 0.54733 0.2065 0.86506 0.0
C349 C 0.49404 0.0944 0.82977 0.0
C350 C 0.53552 0.11704 0.89688 0.0
C351 C 0.56538 0.17431 0.9095 0.0
N352 N 0.48354 0.1275 0.77263 0.0
C353 C 0.50432 0.18202 0.79873 0.0
Co354 Co 0.613 0.60235 0.55756 0.0
Co355 Co 0.51567 0.63284 0.64376 0.0
O356 O 0.57349 0.6438 0.55751 0.0
C357 C 0.5904 0.61876 0.35917 0.0
O358 O 0.59853 0.66812 0.38291 0.0
C359 C 0.57851 0.75533 0.70945 0.0
O360 O 0.60737 0.74455 0.76954 0.0
O361 O 0.56485 0.63861 0.74863 0.0
O362 O 0.6254 0.61233 0.69662 0.0
H363 H 0.43227 0.58886 0.95343 0.0
H364 H 0.70611 0.63897 0.4212 0.0
O365 O 0.59681 0.58813 0.41901 0.0
H366 H 0.7559 0.80576 0.61105 0.0
H367 H 0.76472 0.56674 0.66122 0.0
H368 H 0.59298 0.49726 0.47187 0.0
H369 H 0.66782 0.7164 0.64005 0.0
H370 H 0.71892 0.62241 0.64381 0.0
O371 O 0.54665 0.71794 0.65026 0.0
H372 H 0.48272 0.58041 0.82622 0.0
H373 H 0.41826 0.65711 0.64894 0.0
H374 H 0.63456 0.43728 0.49402 0.0
H375 H 0.7947 0.72745 0.38968 0.0
H376 H 0.72004 0.47158 0.58964 0.0
H377 H 0.82013 0.81158 0.4852 0.0
O378 O 0.5433 0.52865 0.58294 0.0
H379 H 0.45372 0.71094 0.38606 0.0
H380 H 0.45781 0.54611 0.49426 0.0
H381 H 0.43156 0.54904 0.33805 0.0
H382 H 0.43085 0.63339 0.28122 0.0
H383 H 0.48411 0.70978 0.54154 0.0
H384 H 0.35678 0.65465 0.77044 0.0
H385 H 0.36605 0.62487 0.9294 0.0
O386 O 0.481 0.54793 0.64668 0.0
C387 C 0.60268 0.62561 0.76206 0.0
C388 C 0.42802 0.6038 0.88756 0.0
C389 C 0.3875 0.64218 0.78528 0.0
N390 N 0.45803 0.6228 0.73056 0.0
C391 C 0.45855 0.60071 0.81441 0.0
C392 C 0.42189 0.64217 0.71494 0.0
C393 C 0.39203 0.62464 0.87341 0.0
C394 C 0.71683 0.67553 0.46273 0.0
N395 N 0.68201 0.67254 0.53272 0.0
C396 C 0.76706 0.72545 0.44469 0.0
C397 C 0.78133 0.77262 0.49838 0.0
C398 C 0.74535 0.76935 0.56908 0.0
C399 C 0.69557 0.71864 0.58535 0.0
C400 C 0.72747 0.55111 0.61861 0.0
C401 C 0.63082 0.51245 0.51279 0.0
C402 C 0.70148 0.58265 0.6084 0.0
N403 N 0.65353 0.56281 0.55687 0.0
C404 C 0.65436 0.47871 0.52435 0.0
C405 C 0.70297 0.49842 0.57751 0.0
C406 C 0.49613 0.51299 0.62178 0.0
C407 C 0.4536 0.67437 0.4111 0.0
C408 C 0.45514 0.58194 0.47551 0.0
C409 C 0.44055 0.58338 0.38414 0.0
C410 C 0.44003 0.63019 0.35206 0.0
N411 N 0.47091 0.62662 0.53391 0.0
C412 C 0.47042 0.67275 0.50079 0.0
Co413 Co 0.00841 0.63078 0.91213 0.0
Co414 Co 0.87356 0.53541 0.98314 0.0
O415 O 0.92643 0.59368 0.90055 0.0
C416 C -0.02089 0.60048 0.71151 0.0
O417 O 0.94103 0.54941 0.73567 0.0
C418 C 0.81515 0.60608 0.94537 0.0
O419 O 0.85678 0.64141 0.8925 0.0
O420 O 0.91591 0.58159 0.09494 0.0
O421 O 0.00629 0.62926 0.05058 0.0
H422 H 0.81977 0.44749 0.29275 0.0
H423 H 0.07018 0.73539 0.79995 0.0
O424 O 0.01353 0.63465 0.77175 0.0
H425 H 0.94945 0.76898 0.01073 0.0
H426 H 0.1906 0.78678 0.03796 0.0
H427 H 0.10388 0.61324 0.8548 0.0
H428 H 0.94789 0.6794 0.01415 0.0
H429 H 0.08912 0.73408 0.01246 0.0
O430 O 0.81904 0.56725 0.98783 0.0
H431 H 0.88628 0.49173 0.16479 0.0
H432 H 0.75162 0.45472 0.98443 0.0
H433 H 0.20712 0.66224 0.89248 0.0
H434 H 0.07165 0.8249 0.79244 0.0
H435 H 0.24922 0.74735 0.98739 0.0
H436 H 0.01162 0.84266 0.89916 0.0
O437 O 0.00543 0.55466 0.91532 0.0
H438 H 0.80747 0.51523 0.65591 0.0
H439 H 0.81987 0.41445 0.92458 0.0
H440 H 0.76984 0.36172 0.78194 0.0
H441 H 0.76159 0.41174 0.64969 0.0
H442 H 0.84662 0.56433 0.79975 0.0
H443 H 0.68276 0.40776 0.1077 0.0
H444 H 0.71663 0.40893 0.26636 0.0
O445 O 0.92052 0.49646 0.9793 0.0
C446 C 0.96863 0.61145 0.11318 0.0
C447 C 0.80424 0.45058 0.22599 0.0
C448 C 0.72727 0.42868 0.12258 0.0
N449 N 0.82236 0.47889 0.06802 0.0
C450 C 0.84167 0.47466 0.15265 0.0
C451 C 0.76607 0.45365 0.05183 0.0
C452 C 0.74667 0.42922 0.21118 0.0
C453 C 0.04293 0.74202 0.84555 0.0
N454 N 0.00921 0.70181 0.90815 0.0
C455 C 0.04443 0.79319 0.84149 0.0
C456 C 0.01083 0.80315 0.90147 0.0
C457 C -0.02389 0.76192 0.96427 0.0
C458 C -0.02426 0.71123 0.96644 0.0
C459 C 0.17211 0.74847 -0.00159 0.0
C460 C 0.12301 0.65154 0.89342 0.0
C461 C 0.11443 0.71902 0.98047 0.0
N462 N 0.09032 0.6716 0.92684 0.0
C463 C 0.18087 0.67872 0.9144 0.0
C464 C 0.20502 0.72678 0.96868 0.0
C465 C 0.96825 0.50586 0.94683 0.0
C466 C 0.80571 0.49192 0.71651 0.0
C467 C 0.81432 0.43603 0.8675 0.0
C468 C 0.78646 0.40609 0.78776 0.0
C469 C 0.78184 0.43429 0.71231 0.0
N470 N 0.8335 0.49212 0.87377 0.0
C471 C 0.82909 0.51979 0.79895 0.0
Co472 Co 0.35492 0.00383 0.26565 0.0
Co473 Co 0.32171 0.87648 0.35748 0.0
O474 O 0.31707 0.92287 0.26133 0.0
C475 C 0.34599 0.97424 0.06242 0.0
O476 O 0.30468 0.9234 0.08055 0.0
C477 C 0.2091 0.80308 0.27081 0.0
O478 O 0.2339 0.8249 0.19206 0.0
O479 O 0.30688 0.91794 0.45651 0.0
O480 O 0.34538 0.00474 0.40049 0.0
H481 H 0.38281 0.84937 0.66898 0.0
H482 H 0.31226 0.05581 0.13113 0.0
O483 O 0.37065 0.00953 0.12763 0.0
H484 H 0.14544 0.92109 0.30959 0.0
H485 H 0.35172 0.17736 0.34839 0.0
H486 H 0.45475 0.1005 0.18452 0.0
H487 H 0.23927 0.93465 0.34451 0.0
H488 H 0.3229 0.07799 0.36187 0.0
O489 O 0.23704 0.82203 0.34551 0.0
H490 H 0.38582 0.9017 0.5303 0.0
H491 H 0.24846 0.75359 0.41857 0.0
H492 H 0.49075 0.20279 0.17999 0.0
H493 H 0.21872 0.04177 0.09149 0.0
H494 H 0.43314 0.23936 0.25045 0.0
H495 H 0.13456 0.97463 0.18178 0.0
O496 O 0.43104 0.0084 0.29086 0.0
H497 H 0.34388 0.72376 0.19473 0.0
H498 H 0.38956 0.91873 0.18944 0.0
H499 H 0.43366 0.88755 0.08213 0.0
H500 H 0.41053 0.78868 0.0833 0.0
H501 H 0.29886 0.75631 0.30691 0.0
H502 H 0.24941 0.69933 0.54932 0.0
H503 H 0.31876 0.74652 0.6751 0.0
O504 O 0.40679 0.92843 0.3691 0.0
C505 C 0.32648 0.97047 0.46666 0.0
C506 C 0.35546 0.82771 0.61141 0.0
C507 C 0.28063 0.74348 0.54444 0.0
N508 N 0.3231 0.82986 0.45802 0.0
C509 C 0.3573 0.85694 0.53177 0.0
C510 C 0.28184 0.77463 0.46805 0.0
C511 C 0.3188 0.77012 0.61558 0.0
C512 C 0.27587 0.02613 0.17048 0.0
N513 N 0.28164 -0.00349 0.24096 0.0
C514 C 0.223 0.01859 0.14792 0.0
C515 C 0.17579 0.98084 0.19848 0.0
C516 C 0.1819 0.9509 0.2703 0.0
C517 C 0.23536 0.95914 0.29036 0.0
C518 C 0.37543 0.16126 0.31339 0.0
C519 C 0.43394 0.11817 0.2222 0.0
C520 C 0.35982 0.10515 0.3213 0.0
N521 N 0.38769 0.08392 0.27269 0.0
C522 C 0.45274 0.17523 0.21689 0.0
C523 C 0.42131 0.19605 0.25844 0.0
C524 C 0.44413 0.97531 0.33382 0.0
C525 C 0.35103 0.76579 0.1929 0.0
C526 C 0.37667 0.87514 0.19196 0.0
C527 C 0.40159 0.85743 0.1278 0.0
C528 C 0.38891 0.80237 0.12895 0.0
N529 N 0.3409 0.84 0.25893 0.0
C530 C 0.32654 0.78507 0.25718 0.0
Co531 Co 0.3368 0.36231 0.55734 0.0
Co532 Co 0.43405 0.33168 0.64338 0.0
O533 O 0.37623 0.32075 0.55712 0.0
C534 C 0.35943 0.34591 0.35885 0.0
O535 O 0.35133 0.29656 0.38237 0.0
C536 C 0.37077 0.20917 0.7087 0.0
O537 O 0.34166 0.22001 0.76825 0.0
O538 O 0.38495 0.32607 0.74824 0.0
O539 O 0.32442 0.35236 0.69637 0.0
H540 H 0.51729 0.37542 0.95326 0.0
H541 H 0.24375 0.32581 0.42084 0.0
O542 O 0.353 0.37652 0.41883 0.0
H543 H 0.19358 0.15902 0.61023 0.0
H544 H 0.18526 0.39796 0.66159 0.0
H545 H 0.35685 0.46745 0.47205 0.0
H546 H 0.2818 0.24827 0.63945 0.0
H547 H 0.23101 0.34233 0.64371 0.0
O548 O 0.40294 0.24654 0.64983 0.0
H549 H 0.46702 0.38409 0.82609 0.0
H550 H 0.53139 0.30732 0.64836 0.0
H551 H 0.31521 0.52742 0.49454 0.0
H552 H 0.15504 0.23745 0.3891 0.0
H553 H 0.22975 0.49308 0.59021 0.0
H554 H 0.1294 0.15331 0.4844 0.0
O555 O 0.40655 0.43595 0.58293 0.0
H556 H 0.49593 0.25339 0.3854 0.0
H557 H 0.49199 0.41832 0.49413 0.0
H558 H 0.5183 0.41535 0.33798 0.0
H559 H 0.51911 0.33102 0.28094 0.0
H560 H 0.46531 0.25453 0.54083 0.0
H561 H 0.5929 0.30979 0.76983 0.0
H562 H 0.58367 0.33964 0.92891 0.0
O563 O 0.46884 0.41663 0.64648 0.0
C564 C 0.34714 0.3391 0.76175 0.0
C565 C 0.52166 0.36063 0.88725 0.0
C566 C 0.56222 0.32231 0.78473 0.0
N567 N 0.49169 0.3417 0.73017 0.0
C568 C 0.49117 0.36377 0.81413 0.0
C569 C 0.52781 0.3223 0.71443 0.0
C570 C 0.5577 0.33987 0.87295 0.0
C571 C 0.23296 0.28925 0.46225 0.0
N572 N 0.26774 0.29217 0.53224 0.0
C573 C 0.18265 0.23939 0.4441 0.0
C574 C 0.16827 0.19222 0.49766 0.0
C575 C 0.20422 0.19542 0.56836 0.0
C576 C 0.25408 0.24607 0.58474 0.0
C577 C 0.22246 0.41361 0.61892 0.0
C578 C 0.31904 0.45228 0.51301 0.0
C579 C 0.24844 0.38209 0.60845 0.0
N580 N 0.29635 0.40192 0.55689 0.0
C581 C 0.29548 0.48601 0.52479 0.0
C582 C 0.24689 0.4663 0.57799 0.0
C583 C 0.45373 0.45159 0.62171 0.0
C584 C 0.49605 0.28996 0.41058 0.0
C585 C 0.49461 0.38246 0.47528 0.0
C586 C 0.50924 0.38099 0.38394 0.0
C587 C 0.50977 0.33418 0.35172 0.0
N588 N 0.47874 0.33777 0.53351 0.0
C589 C 0.47913 0.29158 0.50022 0.0
Co590 Co 0.94068 0.33263 0.91188 0.0
Co591 Co 0.07547 0.42805 0.98339 0.0
O592 O 0.0227 0.36972 0.9005 0.0
C593 C 0.97001 0.36284 0.71139 0.0
O594 O 0.0081 0.41391 0.73575 0.0
C595 C 0.13434 0.35779 0.9454 0.0
O596 O 0.09283 0.32235 0.89232 0.0
O597 O 0.0331 0.3818 0.09491 0.0
O598 O 0.94275 0.3342 0.05036 0.0
H599 H 0.12846 0.5157 0.29353 0.0
H600 H 0.87871 0.22789 0.79972 0.0
O601 O 0.93559 0.32867 0.77151 0.0
H602 H -0.00026 0.19452 0.00994 0.0
H603 H 0.75837 0.17713 0.03783 0.0
H604 H 0.84533 0.35017 0.85405 0.0
H605 H 0.00135 0.28414 0.01355 0.0
H606 H 0.85985 0.2295 0.01212 0.0
O607 O 0.13016 0.39642 0.98811 0.0
H608 H 0.06229 0.4717 0.16493 0.0
H609 H 0.19732 0.50866 0.9856 0.0
H610 H 0.74218 0.30154 0.89176 0.0
H611 H 0.87718 0.13832 0.79204 0.0
H612 H 0.69993 0.21665 0.98698 0.0
H613 H 0.93735 0.12069 0.8985 0.0
O614 O 0.94365 0.40873 0.91513 0.0
H615 H 0.14182 0.44844 0.65625 0.0
H616 H 0.12917 0.54902 0.92543 0.0
H617 H 0.17938 0.60183 0.7831 0.0
H618 H 0.18781 0.55191 0.65072 0.0
H619 H 0.10251 0.39922 0.79983 0.0
H620 H 0.26592 0.5554 0.10956 0.0
H621 H 0.23165 0.55423 0.26794 0.0
O622 O 0.02844 0.46692 0.97956 0.0
C623 C -0.01962 0.35193 0.11302 0.0
C624 C 0.14416 0.5127 0.22684 0.0
C625 C 0.22138 0.53456 0.12404 0.0
N626 N 0.12645 0.48457 0.06865 0.0
C627 C 0.10693 0.48875 0.15315 0.0
C628 C 0.18276 0.50973 0.05292 0.0
C629 C 0.20175 0.53401 0.2125 0.0
C630 C 0.906 0.22128 0.84524 0.0
N631 N 0.93983 0.26158 0.9078 0.0
C632 C 0.90448 0.1701 0.84106 0.0
C633 C 0.93816 0.1602 0.90089 0.0
C634 C 0.973 0.20153 0.96362 0.0
C635 C 0.9734 0.25223 0.9659 0.0
C636 C 0.77692 0.21532 -0.00188 0.0
C637 C 0.82616 0.31198 0.89282 0.0
C638 C 0.83459 0.24458 0.98011 0.0
N639 N 0.85877 0.29189 0.92639 0.0
C640 C 0.76833 0.28499 0.91383 0.0
C641 C 0.74411 0.23706 0.96826 0.0
C642 C -0.01923 0.45753 0.94684 0.0
C643 C 0.14354 0.47169 0.71703 0.0
C644 C 0.1348 0.52748 0.86828 0.0
C645 C 0.16275 0.55746 0.78873 0.0
C646 C 0.16746 0.52931 0.71318 0.0
N647 N 0.11561 0.47139 0.87426 0.0
C648 C 0.12007 0.44376 0.79929 0.0
Co649 Co 0.59414 0.95999 0.26558 0.0
Co650 Co 0.62723 0.08733 0.35756 0.0
O651 O 0.63189 0.04089 0.26145 0.0
C652 C 0.60293 -0.01031 0.0625 0.0
O653 O 0.644 0.04063 0.08093 0.0
C654 C 0.73979 0.16051 0.2708 0.0
O655 O 0.71494 0.13855 0.19207 0.0
O656 O 0.64211 0.04601 0.45662 0.0
O657 O 0.60367 0.95915 0.40046 0.0
H658 H 0.56621 0.11492 0.66898 0.0
H659 H 0.63694 0.90813 0.1308 0.0
O660 O 0.57845 0.95426 0.12748 0.0
H661 H 0.80364 0.04292 0.30988 0.0
H662 H 0.59772 0.78671 0.34783 0.0
H663 H 0.49416 0.86315 0.18482 0.0
H664 H 0.70977 0.02926 0.34475 0.0
H665 H 0.62651 0.88609 0.3613 0.0
O666 O 0.71189 0.14178 0.34553 0.0
H667 H 0.56323 0.06235 0.5304 0.0
H668 H 0.70045 0.21031 0.41859 0.0
H669 H 0.45809 0.7608 0.18061 0.0
H670 H 0.73052 0.92228 0.09123 0.0
H671 H 0.51601 0.72448 0.25048 0.0
H672 H 0.81463 -0.01054 0.18182 0.0
O673 O 0.51797 0.95533 0.2908 0.0
H674 H 0.6051 0.2398 0.19439 0.0
H675 H 0.55925 0.04476 0.18961 0.0
H676 H 0.51518 0.07575 0.08208 0.0
H677 H 0.5383 0.17461 0.08313 0.0
H678 H 0.65012 0.20744 0.30676 0.0
H679 H 0.69947 0.2648 0.54921 0.0
H680 H 0.63017 0.21781 0.67497 0.0
O681 O 0.54217 0.03535 0.36918 0.0
C682 C 0.62252 -0.00652 0.46672 0.0
C683 C 0.59354 0.13649 0.6114 0.0
C684 C 0.66828 0.22064 0.54437 0.0
N685 N 0.62586 0.1341 0.45807 0.0
C686 C 0.59171 0.10713 0.53182 0.0
C687 C 0.66709 0.18936 0.46805 0.0
C688 C 0.63013 0.1941 0.6155 0.0
C689 C 0.6733 0.93784 0.17027 0.0
N690 N 0.66748 0.96742 0.24091 0.0
C691 C 0.7262 0.94543 0.14775 0.0
C692 C 0.77339 -0.0168 0.19849 0.0
C693 C 0.76722 0.0131 0.27045 0.0
C694 C 0.71372 0.00481 0.29048 0.0
C695 C 0.5739 0.80272 0.31301 0.0
C696 C 0.51508 0.84556 0.22229 0.0
C697 C 0.58951 0.85884 0.32089 0.0
N698 N 0.5615 0.87994 0.27246 0.0
C699 C 0.49625 0.78849 0.21716 0.0
C700 C 0.52784 0.7678 0.25841 0.0
C701 C 0.50486 -0.01158 0.33387 0.0
C702 C 0.5979 0.19775 0.19268 0.0
C703 C 0.57216 0.08836 0.19205 0.0
C704 C 0.54725 0.10596 0.12777 0.0
C705 C 0.55997 0.16102 0.12879 0.0
N706 N 0.60797 0.12363 0.25898 0.0
C707 C 0.62239 0.17857 0.25707 0.0
loop_
_geom_bond_atom_site_label_1
_geom_bond_atom_site_label_2
_geom_bond_distance
_geom_bond_site_symmetry_2
_ccdc_geom_bond_type
Co0 O2 2.143 . S
Co0 O8 2.074 1_554 S
Co0 O11 2.093 . S
Co0 O24 2.097 . S
Co0 N41 2.151 . S
Co0 N49 2.214 . S
Co1 O2 2.160 1_556 S
Co1 O7 2.058 . S
Co1 O17 2.057 . S
Co1 O32 2.037 . S
Co1 N36 2.145 . S
Co1 N57 2.257 1_556 S
O2 Co0 2.143 . S
O2 Co1 2.160 1_554 S
C3 O4 1.278 . S
C3 O11 1.224 . S
O4 C3 1.278 . S
C5 O6 1.245 . S
C5 O17 1.232 1_554 S
O6 C5 1.245 . S
O7 Co1 2.058 . S
O7 C33 1.269 . S
O8 Co0 2.074 1_556 S
O8 C33 1.257 . S
H9 C34 0.930 . S
H10 C40 0.930 . S
O11 Co0 2.093 . S
O11 C3 1.224 . S
H12 C44 0.929 1_556 S
H13 C46 0.930 . S
H14 C47 0.930 1_556 S
H15 C45 0.929 1_556 S
H16 C48 0.928 . S
O17 Co1 2.057 . S
O17 C5 1.232 1_556 S
H18 C37 0.929 . S
H19 C38 0.929 . S
H20 C50 0.925 1_556 S
H21 C42 0.929 . S
H22 C51 0.930 . S
H23 C43 0.931 . S
O24 Co0 2.097 . S
O24 C52 1.214 . S
H25 C53 0.929 . S
H26 C54 0.929 . S
H27 C55 0.930 . S
H28 C56 0.929 . S
H29 C58 0.930 . S
H30 C35 0.930 . S
H31 C39 0.930 . S
O32 Co1 2.037 . S
O32 C52 1.234 1_556 S
C33 O7 1.269 . S
C33 O8 1.257 . S
C34 H9 0.930 . S
C34 C37 1.388 . S
C34 C39 1.418 . S
C35 H30 0.930 . S
C35 C38 1.404 . S
C35 C39 1.353 . S
N36 Co1 2.145 . S
N36 C37 1.397 . S
N36 C38 1.334 . S
C37 H18 0.929 . S
C37 C34 1.388 . S
C37 N36 1.397 . S
C38 H19 0.929 . S
C38 C35 1.404 . S
C38 N36 1.334 . S
C39 H31 0.930 . S
C39 C34 1.418 . S
C39 C35 1.353 . S
C40 H10 0.930 . S
C40 N41 1.330 . S
C40 C42 1.446 . S
N41 Co0 2.151 . S
N41 C40 1.330 . S
N41 C45 1.418 . S
C42 H21 0.929 . S
C42 C40 1.446 . S
C42 C43 1.332 . S
C43 H23 0.931 . S
C43 C42 1.332 . S
C43 C44 1.267 . S
C44 H12 0.929 1_554 S
C44 C43 1.267 . S
C44 C45 1.251 . S
C45 H15 0.929 1_554 S
C45 N41 1.418 . S
C45 C44 1.251 . S
C46 H13 0.930 . S
C46 C48 1.406 . S
C46 C51 1.261 . S
C47 H14 0.930 1_554 S
C47 N49 1.325 . S
C47 C50 1.359 . S
C48 H16 0.928 . S
C48 C46 1.406 . S
C48 N49 1.261 . S
N49 Co0 2.214 . S
N49 C47 1.325 . S
N49 C48 1.261 . S
C50 H20 0.925 1_554 S
C50 C47 1.359 . S
C50 C51 1.317 . S
C51 H22 0.930 . S
C51 C46 1.261 . S
C51 C50 1.317 . S
C52 O24 1.214 . S
C52 O32 1.234 1_554 S
C53 H25 0.929 . S
C53 C56 1.391 . S
C53 C58 1.391 . S
C54 H26 0.929 . S
C54 C55 1.390 . S
C54 N57 1.391 . S
C55 H27 0.930 . S
C55 C54 1.390 . S
C55 C56 1.392 . S
C56 H28 0.929 . S
C56 C53 1.391 . S
C56 C55 1.392 . S
N57 Co1 2.257 1_554 S
N57 C54 1.391 . S
N57 C58 1.388 . S
C58 H29 0.930 . S
C58 C53 1.391 . S
C58 N57 1.388 . S
Co59 O61 2.143 1_455 S
Co59 O67 2.074 . S
Co59 O70 2.093 . S
Co59 O83 2.097 . S
Co59 N100 2.151 . S
Co59 N108 2.214 . S
Co60 O61 2.160 . S
Co60 O66 2.058 . S
Co60 O76 2.057 . S
Co60 O91 2.037 . S
Co60 N95 2.145 . S
Co60 N116 2.257 . S
O61 Co59 2.143 1_655 S
O61 Co60 2.160 . S
C62 O63 1.278 1_455 S
C62 O70 1.224 . S
O63 C62 1.278 1_655 S
C64 O65 1.245 . S
C64 O76 1.232 . S
O65 C64 1.245 . S
O66 Co60 2.058 . S
O66 C92 1.269 1_655 S
O67 Co59 2.074 . S
O67 C92 1.257 . S
H68 C93 0.930 . S
H69 C99 0.930 . S
O70 Co59 2.093 . S
O70 C62 1.224 . S
H71 C103 0.929 . S
H72 C105 0.930 . S
H73 C106 0.930 . S
H74 C104 0.929 . S
H75 C107 0.928 . S
O76 Co60 2.057 . S
O76 C64 1.232 . S
H77 C96 0.929 . S
H78 C97 0.929 . S
H79 C109 0.931 . S
H80 C101 0.929 . S
H81 C110 0.930 . S
H82 C102 0.931 . S
O83 Co59 2.097 . S
O83 C111 1.214 1_455 S
H84 C112 0.929 . S
H85 C113 0.929 . S
H86 C114 0.930 . S
H87 C115 0.929 . S
H88 C117 0.930 . S
H89 C94 0.930 . S
H90 C98 0.930 . S
O91 Co60 2.037 . S
O91 C111 1.234 . S
C92 O66 1.269 1_455 S
C92 O67 1.257 . S
C93 H68 0.930 . S
C93 C96 1.388 . S
C93 C98 1.418 . S
C94 H89 0.930 . S
C94 C97 1.404 . S
C94 C98 1.353 . S
N95 Co60 2.145 . S
N95 C96 1.397 . S
N95 C97 1.334 . S
C96 H77 0.929 . S
C96 C93 1.388 . S
C96 N95 1.397 . S
C97 H78 0.929 . S
C97 C94 1.404 . S
C97 N95 1.334 . S
C98 H90 0.930 . S
C98 C93 1.418 . S
C98 C94 1.353 . S
C99 H69 0.930 . S
C99 N100 1.330 . S
C99 C101 1.446 . S
N100 Co59 2.151 . S
N100 C99 1.330 . S
N100 C104 1.418 . S
C101 H80 0.929 . S
C101 C99 1.446 . S
C101 C102 1.332 . S
C102 H82 0.931 . S
C102 C101 1.332 . S
C102 C103 1.267 . S
C103 H71 0.929 . S
C103 C102 1.267 . S
C103 C104 1.251 . S
C104 H74 0.929 . S
C104 N100 1.418 . S
C104 C103 1.251 . S
C105 H72 0.930 . S
C105 C107 1.406 . S
C105 C110 1.261 . S
C106 H73 0.930 . S
C106 N108 1.325 . S
C106 C109 1.357 . S
C107 H75 0.928 . S
C107 C105 1.406 . S
C107 N108 1.261 . S
N108 Co59 2.214 . S
N108 C106 1.325 . S
N108 C107 1.261 . S
C109 H79 0.931 . S
C109 C106 1.357 . S
C109 C110 1.312 . S
C110 H81 0.930 . S
C110 C105 1.261 . S
C110 C109 1.312 . S
C111 O83 1.214 1_655 S
C111 O91 1.234 . S
C112 H84 0.929 . S
C112 C115 1.391 . S
C112 C117 1.391 . S
C113 H85 0.929 . S
C113 C114 1.390 . S
C113 N116 1.391 . S
C114 H86 0.930 . S
C114 C113 1.390 . S
C114 C115 1.392 . S
C115 H87 0.929 . S
C115 C112 1.391 . S
C115 C114 1.392 . S
N116 Co60 2.257 . S
N116 C113 1.391 . S
N116 C117 1.388 . S
C117 H88 0.930 . S
C117 C112 1.391 . S
C117 N116 1.388 . S
Co118 O120 2.143 1_545 S
Co118 O126 2.074 . S
Co118 O129 2.093 . S
Co118 O142 2.097 . S
Co118 N159 2.151 . S
Co118 N167 2.214 . S
Co119 O120 2.160 . S
Co119 O125 2.058 . S
Co119 O135 2.057 . S
Co119 O150 2.037 . S
Co119 N154 2.145 . S
Co119 N175 2.257 . S
O120 Co118 2.143 1_565 S
O120 Co119 2.160 . S
C121 O122 1.278 1_545 S
C121 O129 1.224 . S
O122 C121 1.278 1_565 S
C123 O124 1.245 . S
C123 O135 1.232 . S
O124 C123 1.245 . S
O125 Co119 2.058 . S
O125 C151 1.269 1_565 S
O126 Co118 2.074 . S
O126 C151 1.257 . S
H127 C152 0.930 . S
H128 C158 0.930 . S
O129 Co118 2.093 . S
O129 C121 1.224 . S
H130 C162 0.929 . S
H131 C164 0.930 . S
H132 C165 0.930 . S
H133 C163 0.929 . S
H134 C166 0.928 . S
O135 Co119 2.057 . S
O135 C123 1.232 . S
H136 C155 0.929 . S
H137 C156 0.929 . S
H138 C168 0.931 . S
H139 C160 0.929 . S
H140 C169 0.930 . S
H141 C161 0.931 . S
O142 Co118 2.097 . S
O142 C170 1.214 1_545 S
H143 C171 0.929 . S
H144 C172 0.929 . S
H145 C173 0.930 . S
H146 C174 0.929 . S
H147 C176 0.930 . S
H148 C153 0.930 . S
H149 C157 0.930 . S
O150 Co119 2.037 . S
O150 C170 1.234 . S
C151 O125 1.269 1_545 S
C151 O126 1.257 . S
C152 H127 0.930 . S
C152 C155 1.388 . S
C152 C157 1.418 . S
C153 H148 0.930 . S
C153 C156 1.404 . S
C153 C157 1.353 . S
N154 Co119 2.145 . S
N154 C155 1.397 . S
N154 C156 1.334 . S
C155 H136 0.929 . S
C155 C152 1.388 . S
C155 N154 1.397 . S
C156 H137 0.929 . S
C156 C153 1.404 . S
C156 N154 1.334 . S
C157 H149 0.930 . S
C157 C152 1.418 . S
C157 C153 1.353 . S
C158 H128 0.930 . S
C158 N159 1.330 . S
C158 C160 1.446 . S
N159 Co118 2.151 . S
N159 C158 1.330 . S
N159 C163 1.418 . S
C160 H139 0.929 . S
C160 C158 1.446 . S
C160 C161 1.332 . S
C161 H141 0.931 . S
C161 C160 1.332 . S
C161 C162 1.267 . S
C162 H130 0.929 . S
C162 C161 1.267 . S
C162 C163 1.251 . S
C163 H133 0.929 . S
C163 N159 1.418 . S
C163 C162 1.251 . S
C164 H131 0.930 . S
C164 C166 1.406 . S
C164 C169 1.261 . S
C165 H132 0.930 . S
C165 N167 1.325 . S
C165 C168 1.357 . S
C166 H134 0.928 . S
C166 C164 1.406 . S
C166 N167 1.261 . S
N167 Co118 2.214 . S
N167 C165 1.325 . S
N167 C166 1.261 . S
C168 H138 0.931 . S
C168 C165 1.357 . S
C168 C169 1.312 . S
C169 H140 0.930 . S
C169 C164 1.261 . S
C169 C168 1.312 . S
C170 O142 1.214 1_565 S
C170 O150 1.234 . S
C171 H143 0.929 . S
C171 C174 1.391 . S
C171 C176 1.391 . S
C172 H144 0.929 . S
C172 C173 1.390 . S
C172 N175 1.391 . S
C173 H145 0.930 . S
C173 C172 1.390 . S
C173 C174 1.392 . S
C174 H146 0.929 . S
C174 C171 1.391 . S
C174 C173 1.392 . S
N175 Co119 2.257 . S
N175 C172 1.391 . S
N175 C176 1.388 . S
C176 H147 0.930 . S
C176 C171 1.391 . S
C176 N175 1.388 . S
Co177 O179 2.143 . S
Co177 O185 2.074 1_554 S
Co177 O188 2.093 . S
Co177 O201 2.097 . S
Co177 N218 2.151 . S
Co177 N226 2.214 . S
Co178 O179 2.160 1_556 S
Co178 O184 2.058 . S
Co178 O194 2.057 . S
Co178 O209 2.037 . S
Co178 N213 2.145 . S
Co178 N234 2.257 1_556 S
O179 Co177 2.143 . S
O179 Co178 2.160 1_554 S
C180 O181 1.278 . S
C180 O188 1.224 . S
O181 C180 1.278 . S
C182 O183 1.245 . S
C182 O194 1.232 1_554 S
O183 C182 1.245 . S
O184 Co178 2.058 . S
O184 C210 1.269 . S
O185 Co177 2.074 1_556 S
O185 C210 1.257 . S
H186 C211 0.930 . S
H187 C217 0.930 . S
O188 Co177 2.093 . S
O188 C180 1.224 . S
H189 C221 0.929 1_556 S
H190 C223 0.930 . S
H191 C224 0.930 1_556 S
H192 C222 0.929 1_556 S
H193 C225 0.928 . S
O194 Co178 2.057 . S
O194 C182 1.232 1_556 S
H195 C214 0.929 . S
H196 C215 0.929 . S
H197 C227 0.925 1_556 S
H198 C219 0.929 . S
H199 C228 0.930 . S
H200 C220 0.931 . S
O201 Co177 2.097 . S
O201 C229 1.214 . S
H202 C230 0.929 . S
H203 C231 0.929 . S
H204 C232 0.930 . S
H205 C233 0.929 . S
H206 C235 0.930 . S
H207 C212 0.930 . S
H208 C216 0.930 . S
O209 Co178 2.037 . S
O209 C229 1.234 1_556 S
C210 O184 1.269 . S
C210 O185 1.257 . S
C211 H186 0.930 . S
C211 C214 1.388 . S
C211 C216 1.418 . S
C212 H207 0.930 . S
C212 C215 1.404 . S
C212 C216 1.353 . S
N213 Co178 2.145 . S
N213 C214 1.397 . S
N213 C215 1.334 . S
C214 H195 0.929 . S
C214 C211 1.388 . S
C214 N213 1.397 . S
C215 H196 0.929 . S
C215 C212 1.404 . S
C215 N213 1.334 . S
C216 H208 0.930 . S
C216 C211 1.418 . S
C216 C212 1.353 . S
C217 H187 0.930 . S
C217 N218 1.330 . S
C217 C219 1.446 . S
N218 Co177 2.151 . S
N218 C217 1.330 . S
N218 C222 1.418 . S
C219 H198 0.929 . S
C219 C217 1.446 . S
C219 C220 1.332 . S
C220 H200 0.931 . S
C220 C219 1.332 . S
C220 C221 1.267 . S
C221 H189 0.929 1_554 S
C221 C220 1.267 . S
C221 C222 1.251 . S
C222 H192 0.929 1_554 S
C222 N218 1.418 . S
C222 C221 1.251 . S
C223 H190 0.930 . S
C223 C225 1.406 . S
C223 C228 1.261 . S
C224 H191 0.930 1_554 S
C224 N226 1.325 . S
C224 C227 1.359 . S
C225 H193 0.928 . S
C225 C223 1.406 . S
C225 N226 1.261 . S
N226 Co177 2.214 . S
N226 C224 1.325 . S
N226 C225 1.261 . S
C227 H197 0.925 1_554 S
C227 C224 1.359 . S
C227 C228 1.317 . S
C228 H199 0.930 . S
C228 C223 1.261 . S
C228 C227 1.317 . S
C229 O201 1.214 . S
C229 O209 1.234 1_554 S
C230 H202 0.929 . S
C230 C233 1.391 . S
C230 C235 1.391 . S
C231 H203 0.929 . S
C231 C232 1.390 . S
C231 N234 1.391 . S
C232 H204 0.930 . S
C232 C231 1.390 . S
C232 C233 1.392 . S
C233 H205 0.929 . S
C233 C230 1.391 . S
C233 C232 1.392 . S
N234 Co178 2.257 1_554 S
N234 C231 1.391 . S
N234 C235 1.388 . S
C235 H206 0.930 . S
C235 C230 1.391 . S
C235 N234 1.388 . S
Co236 O238 2.143 1_655 S
Co236 O244 2.074 . S
Co236 O247 2.093 . S
Co236 O260 2.097 . S
Co236 N277 2.151 . S
Co236 N285 2.214 . S
Co237 O238 2.160 . S
Co237 O243 2.058 . S
Co237 O253 2.057 . S
Co237 O268 2.037 . S
Co237 N272 2.145 . S
Co237 N293 2.257 . S
O238 Co236 2.143 1_455 S
O238 Co237 2.160 . S
C239 O240 1.278 1_655 S
C239 O247 1.224 . S
O240 C239 1.278 1_455 S
C241 O242 1.245 . S
C241 O253 1.232 . S
O242 C241 1.245 . S
O243 Co237 2.058 . S
O243 C269 1.269 1_455 S
O244 Co236 2.074 . S
O244 C269 1.257 . S
H245 C270 0.930 . S
H246 C276 0.930 . S
O247 Co236 2.093 . S
O247 C239 1.224 . S
H248 C280 0.929 . S
H249 C282 0.930 . S
H250 C283 0.930 . S
H251 C281 0.929 . S
H252 C284 0.928 . S
O253 Co237 2.057 . S
O253 C241 1.232 . S
H254 C273 0.929 . S
H255 C274 0.929 . S
H256 C286 0.931 . S
H257 C278 0.929 . S
H258 C287 0.930 . S
H259 C279 0.931 . S
O260 Co236 2.097 . S
O260 C288 1.214 1_655 S
H261 C289 0.929 . S
H262 C290 0.929 . S
H263 C291 0.930 . S
H264 C292 0.929 . S
H265 C294 0.930 . S
H266 C271 0.930 . S
H267 C275 0.930 . S
O268 Co237 2.037 . S
O268 C288 1.234 . S
C269 O243 1.269 1_655 S
C269 O244 1.257 . S
C270 H245 0.930 . S
C270 C273 1.388 . S
C270 C275 1.418 . S
C271 H266 0.930 . S
C271 C274 1.404 . S
C271 C275 1.353 . S
N272 Co237 2.145 . S
N272 C273 1.397 . S
N272 C274 1.334 . S
C273 H254 0.929 . S
C273 C270 1.388 . S
C273 N272 1.397 . S
C274 H255 0.929 . S
C274 C271 1.404 . S
C274 N272 1.334 . S
C275 H267 0.930 . S
C275 C270 1.418 . S
C275 C271 1.353 . S
C276 H246 0.930 . S
C276 N277 1.330 . S
C276 C278 1.446 . S
N277 Co236 2.151 . S
N277 C276 1.330 . S
N277 C281 1.418 . S
C278 H257 0.929 . S
C278 C276 1.446 . S
C278 C279 1.332 . S
C279 H259 0.931 . S
C279 C278 1.332 . S
C279 C280 1.267 . S
C280 H248 0.929 . S
C280 C279 1.267 . S
C280 C281 1.251 . S
C281 H251 0.929 . S
C281 N277 1.418 . S
C281 C280 1.251 . S
C282 H249 0.930 . S
C282 C284 1.406 . S
C282 C287 1.261 . S
C283 H250 0.930 . S
C283 N285 1.325 . S
C283 C286 1.357 . S
C284 H252 0.928 . S
C284 C282 1.406 . S
C284 N285 1.261 . S
N285 Co236 2.214 . S
N285 C283 1.325 . S
N285 C284 1.261 . S
C286 H256 0.931 . S
C286 C283 1.357 . S
C286 C287 1.312 . S
C287 H258 0.930 . S
C287 C282 1.261 . S
C287 C286 1.312 . S
C288 O260 1.214 1_455 S
C288 O268 1.234 . S
C289 H261 0.929 . S
C289 C292 1.391 . S
C289 C294 1.391 . S
C290 H262 0.929 . S
C290 C291 1.390 . S
C290 N293 1.391 . S
C291 H263 0.930 . S
C291 C290 1.390 . S
C291 C292 1.392 . S
C292 H264 0.929 . S
C292 C289 1.391 . S
C292 C291 1.392 . S
N293 Co237 2.257 . S
N293 C290 1.391 . S
N293 C294 1.388 . S
C294 H265 0.930 . S
C294 C289 1.391 . S
C294 N293 1.388 . S
Co295 O297 2.143 1_565 S
Co295 O303 2.074 . S
Co295 O306 2.093 . S
Co295 O319 2.097 . S
Co295 N336 2.151 . S
Co295 N344 2.214 . S
Co296 O297 2.160 . S
Co296 O302 2.058 . S
Co296 O312 2.057 . S
Co296 O327 2.037 . S
Co296 N331 2.145 . S
Co296 N352 2.257 . S
O297 Co295 2.143 1_545 S
O297 Co296 2.160 . S
C298 O299 1.278 1_565 S
C298 O306 1.224 . S
O299 C298 1.278 1_545 S
C300 O301 1.245 . S
C300 O312 1.232 . S
O301 C300 1.245 . S
O302 Co296 2.058 . S
O302 C328 1.269 1_545 S
O303 Co295 2.074 . S
O303 C328 1.257 . S
H304 C329 0.930 . S
H305 C335 0.930 . S
O306 Co295 2.093 . S
O306 C298 1.224 . S
H307 C339 0.929 . S
H308 C341 0.930 . S
H309 C342 0.930 . S
H310 C340 0.929 . S
H311 C343 0.928 . S
O312 Co296 2.057 . S
O312 C300 1.232 . S
H313 C332 0.929 . S
H314 C333 0.929 . S
H315 C345 0.931 . S
H316 C337 0.929 . S
H317 C346 0.930 . S
H318 C338 0.931 . S
O319 Co295 2.097 . S
O319 C347 1.214 1_565 S
H320 C348 0.929 . S
H321 C349 0.929 . S
H322 C350 0.930 . S
H323 C351 0.929 . S
H324 C353 0.930 . S
H325 C330 0.930 . S
H326 C334 0.930 . S
O327 Co296 2.037 . S
O327 C347 1.234 . S
C328 O302 1.269 1_565 S
C328 O303 1.257 . S
C329 H304 0.930 . S
C329 C332 1.388 . S
C329 C334 1.418 . S
C330 H325 0.930 . S
C330 C333 1.404 . S
C330 C334 1.353 . S
N331 Co296 2.145 . S
N331 C332 1.397 . S
N331 C333 1.334 . S
C332 H313 0.929 . S
C332 C329 1.388 . S
C332 N331 1.397 . S
C333 H314 0.929 . S
C333 C330 1.404 . S
C333 N331 1.334 . S
C334 H326 0.930 . S
C334 C329 1.418 . S
C334 C330 1.353 . S
C335 H305 0.930 . S
C335 N336 1.330 . S
C335 C337 1.446 . S
N336 Co295 2.151 . S
N336 C335 1.330 . S
N336 C340 1.418 . S
C337 H316 0.929 . S
C337 C335 1.446 . S
C337 C338 1.332 . S
C338 H318 0.931 . S
C338 C337 1.332 . S
C338 C339 1.267 . S
C339 H307 0.929 . S
C339 C338 1.267 . S
C339 C340 1.251 . S
C340 H310 0.929 . S
C340 N336 1.418 . S
C340 C339 1.251 . S
C341 H308 0.930 . S
C341 C343 1.406 . S
C341 C346 1.261 . S
C342 H309 0.930 . S
C342 N344 1.325 . S
C342 C345 1.357 . S
C343 H311 0.928 . S
C343 C341 1.406 . S
C343 N344 1.261 . S
N344 Co295 2.214 . S
N344 C342 1.325 . S
N344 C343 1.261 . S
C345 H315 0.931 . S
C345 C342 1.357 . S
C345 C346 1.312 . S
C346 H317 0.930 . S
C346 C341 1.261 . S
C346 C345 1.312 . S
C347 O319 1.214 1_545 S
C347 O327 1.234 . S
C348 H320 0.929 . S
C348 C351 1.391 . S
C348 C353 1.391 . S
C349 H321 0.929 . S
C349 C350 1.390 . S
C349 N352 1.391 . S
C350 H322 0.930 . S
C350 C349 1.390 . S
C350 C351 1.392 . S
C351 H323 0.929 . S
C351 C348 1.391 . S
C351 C350 1.392 . S
N352 Co296 2.257 . S
N352 C349 1.391 . S
N352 C353 1.388 . S
C353 H324 0.930 . S
C353 C348 1.391 . S
C353 N352 1.388 . S
Co354 O356 2.143 . S
Co354 O362 2.074 . S
Co354 O365 2.093 . S
Co354 O378 2.097 . S
Co354 N395 2.151 . S
Co354 N403 2.214 . S
Co355 O356 2.160 . S
Co355 O361 2.058 . S
Co355 O371 2.057 . S
Co355 O386 2.037 . S
Co355 N390 2.145 . S
Co355 N411 2.257 . S
O356 Co354 2.143 . S
O356 Co355 2.160 . S
C357 O358 1.278 . S
C357 O365 1.224 . S
O358 C357 1.278 . S
C359 O360 1.245 . S
C359 O371 1.232 . S
O360 C359 1.245 . S
O361 Co355 2.058 . S
O361 C387 1.269 . S
O362 Co354 2.074 . S
O362 C387 1.257 . S
H363 C388 0.930 . S
H364 C394 0.930 . S
O365 Co354 2.093 . S
O365 C357 1.224 . S
H366 C398 0.929 . S
H367 C400 0.930 . S
H368 C401 0.930 . S
H369 C399 0.929 . S
H370 C402 0.928 . S
O371 Co355 2.057 . S
O371 C359 1.232 . S
H372 C391 0.929 . S
H373 C392 0.929 . S
H374 C404 0.931 . S
H375 C396 0.929 . S
H376 C405 0.930 . S
H377 C397 0.931 . S
O378 Co354 2.097 . S
O378 C406 1.214 . S
H379 C407 0.929 . S
H380 C408 0.929 . S
H381 C409 0.930 . S
H382 C410 0.929 . S
H383 C412 0.930 . S
H384 C389 0.930 . S
H385 C393 0.930 . S
O386 Co355 2.037 . S
O386 C406 1.234 . S
C387 O361 1.269 . S
C387 O362 1.257 . S
C388 H363 0.930 . S
C388 C391 1.388 . S
C388 C393 1.418 . S
C389 H384 0.930 . S
C389 C392 1.404 . S
C389 C393 1.353 . S
N390 Co355 2.145 . S
N390 C391 1.397 . S
N390 C392 1.334 . S
C391 H372 0.929 . S
C391 C388 1.388 . S
C391 N390 1.397 . S
C392 H373 0.929 . S
C392 C389 1.404 . S
C392 N390 1.334 . S
C393 H385 0.930 . S
C393 C388 1.418 . S
C393 C389 1.353 . S
C394 H364 0.930 . S
C394 N395 1.330 . S
C394 C396 1.446 . S
N395 Co354 2.151 . S
N395 C394 1.330 . S
N395 C399 1.418 . S
C396 H375 0.929 . S
C396 C394 1.446 . S
C396 C397 1.332 . S
C397 H377 0.931 . S
C397 C396 1.332 . S
C397 C398 1.267 . S
C398 H366 0.929 . S
C398 C397 1.267 . S
C398 C399 1.251 . S
C399 H369 0.929 . S
C399 N395 1.418 . S
C399 C398 1.251 . S
C400 H367 0.930 . S
C400 C402 1.406 . S
C400 C405 1.261 . S
C401 H368 0.930 . S
C401 N403 1.325 . S
C401 C404 1.357 . S
C402 H370 0.928 . S
C402 C400 1.406 . S
C402 N403 1.261 . S
N403 Co354 2.214 . S
N403 C401 1.325 . S
N403 C402 1.261 . S
C404 H374 0.931 . S
C404 C401 1.357 . S
C404 C405 1.312 . S
C405 H376 0.930 . S
C405 C400 1.261 . S
C405 C404 1.312 . S
C406 O378 1.214 . S
C406 O386 1.234 . S
C407 H379 0.929 . S
C407 C410 1.391 . S
C407 C412 1.391 . S
C408 H380 0.929 . S
C408 C409 1.390 . S
C408 N411 1.391 . S
C409 H381 0.930 . S
C409 C408 1.390 . S
C409 C410 1.392 . S
C410 H382 0.929 . S
C410 C407 1.391 . S
C410 C409 1.392 . S
N411 Co355 2.257 . S
N411 C408 1.391 . S
N411 C412 1.388 . S
C412 H383 0.930 . S
C412 C407 1.391 . S
C412 N411 1.388 . S
Co413 O415 2.143 1_455 S
Co413 O421 2.074 1_556 S
Co413 O424 2.093 . S
Co413 O437 2.097 . S
Co413 N454 2.151 . S
Co413 N462 2.214 . S
Co414 O415 2.160 1_554 S
Co414 O420 2.058 . S
Co414 O430 2.057 . S
Co414 O445 2.037 . S
Co414 N449 2.145 . S
Co414 N470 2.257 1_554 S
O415 Co413 2.143 1_655 S
O415 Co414 2.160 1_556 S
C416 O417 1.278 1_455 S
C416 O424 1.224 . S
O417 C416 1.278 1_655 S
C418 O419 1.245 . S
C418 O430 1.232 1_556 S
O419 C418 1.245 . S
O420 Co414 2.058 . S
O420 C446 1.269 1_655 S
O421 Co413 2.074 1_554 S
O421 C446 1.257 . S
H422 C447 0.930 . S
H423 C453 0.930 . S
O424 Co413 2.093 . S
O424 C416 1.224 . S
H425 C457 0.929 1_554 S
H426 C459 0.930 . S
H427 C460 0.930 1_554 S
H428 C458 0.929 1_554 S
H429 C461 0.928 . S
O430 Co414 2.057 . S
O430 C418 1.232 1_554 S
H431 C450 0.929 . S
H432 C451 0.929 . S
H433 C463 0.925 1_554 S
H434 C455 0.929 . S
H435 C464 0.930 . S
H436 C456 0.931 . S
O437 Co413 2.097 . S
O437 C465 1.214 1_455 S
H438 C466 0.929 . S
H439 C467 0.929 . S
H440 C468 0.930 . S
H441 C469 0.929 . S
H442 C471 0.930 . S
H443 C448 0.930 . S
H444 C452 0.930 . S
O445 Co414 2.037 . S
O445 C465 1.234 1_554 S
C446 O420 1.269 1_455 S
C446 O421 1.257 . S
C447 H422 0.930 . S
C447 C450 1.388 . S
C447 C452 1.418 . S
C448 H443 0.930 . S
C448 C451 1.404 . S
C448 C452 1.353 . S
N449 Co414 2.145 . S
N449 C450 1.397 . S
N449 C451 1.334 . S
C450 H431 0.929 . S
C450 C447 1.388 . S
C450 N449 1.397 . S
C451 H432 0.929 . S
C451 C448 1.404 . S
C451 N449 1.334 . S
C452 H444 0.930 . S
C452 C447 1.418 . S
C452 C448 1.353 . S
C453 H423 0.930 . S
C453 N454 1.330 . S
C453 C455 1.446 . S
N454 Co413 2.151 . S
N454 C453 1.330 . S
N454 C458 1.418 . S
C455 H434 0.929 . S
C455 C453 1.446 . S
C455 C456 1.332 . S
C456 H436 0.931 . S
C456 C455 1.332 . S
C456 C457 1.267 . S
C457 H425 0.929 1_556 S
C457 C456 1.267 . S
C457 C458 1.251 . S
C458 H428 0.929 1_556 S
C458 N454 1.418 . S
C458 C457 1.251 . S
C459 H426 0.930 . S
C459 C461 1.406 . S
C459 C464 1.261 . S
C460 H427 0.930 1_556 S
C460 N462 1.325 . S
C460 C463 1.359 . S
C461 H429 0.928 . S
C461 C459 1.406 . S
C461 N462 1.261 . S
N462 Co413 2.214 . S
N462 C460 1.325 . S
N462 C461 1.261 . S
C463 H433 0.925 1_556 S
C463 C460 1.359 . S
C463 C464 1.317 . S
C464 H435 0.930 . S
C464 C459 1.261 . S
C464 C463 1.317 . S
C465 O437 1.214 1_655 S
C465 O445 1.234 1_556 S
C466 H438 0.929 . S
C466 C469 1.391 . S
C466 C471 1.391 . S
C467 H439 0.929 . S
C467 C468 1.390 . S
C467 N470 1.391 . S
C468 H440 0.930 . S
C468 C467 1.390 . S
C468 C469 1.392 . S
C469 H441 0.929 . S
C469 C466 1.391 . S
C469 C468 1.392 . S
N470 Co414 2.257 1_556 S
N470 C467 1.391 . S
N470 C471 1.388 . S
C471 H442 0.930 . S
C471 C466 1.391 . S
C471 N470 1.388 . S
Co472 O474 2.143 1_545 S
Co472 O480 2.074 . S
Co472 O483 2.093 . S
Co472 O496 2.097 . S
Co472 N513 2.151 . S
Co472 N521 2.214 . S
Co473 O474 2.160 . S
Co473 O479 2.058 . S
Co473 O489 2.057 . S
Co473 O504 2.037 . S
Co473 N508 2.145 . S
Co473 N529 2.257 . S
O474 Co472 2.143 1_565 S
O474 Co473 2.160 . S
C475 O476 1.278 1_545 S
C475 O483 1.224 . S
O476 C475 1.278 1_565 S
C477 O478 1.245 . S
C477 O489 1.232 . S
O478 C477 1.245 . S
O479 Co473 2.058 . S
O479 C505 1.269 1_565 S
O480 Co472 2.074 . S
O480 C505 1.257 . S
H481 C506 0.930 . S
H482 C512 0.930 . S
O483 Co472 2.093 . S
O483 C475 1.224 . S
H484 C516 0.929 . S
H485 C518 0.930 . S
H486 C519 0.930 . S
H487 C517 0.929 . S
H488 C520 0.928 . S
O489 Co473 2.057 . S
O489 C477 1.232 . S
H490 C509 0.929 . S
H491 C510 0.929 . S
H492 C522 0.931 . S
H493 C514 0.929 . S
H494 C523 0.930 . S
H495 C515 0.931 . S
O496 Co472 2.097 . S
O496 C524 1.214 1_545 S
H497 C525 0.929 . S
H498 C526 0.929 . S
H499 C527 0.930 . S
H500 C528 0.929 . S
H501 C530 0.930 . S
H502 C507 0.930 . S
H503 C511 0.930 . S
O504 Co473 2.037 . S
O504 C524 1.234 . S
C505 O479 1.269 1_545 S
C505 O480 1.257 . S
C506 H481 0.930 . S
C506 C509 1.388 . S
C506 C511 1.418 . S
C507 H502 0.930 . S
C507 C510 1.404 . S
C507 C511 1.353 . S
N508 Co473 2.145 . S
N508 C509 1.397 . S
N508 C510 1.334 . S
C509 H490 0.929 . S
C509 C506 1.388 . S
C509 N508 1.397 . S
C510 H491 0.929 . S
C510 C507 1.404 . S
C510 N508 1.334 . S
C511 H503 0.930 . S
C511 C506 1.418 . S
C511 C507 1.353 . S
C512 H482 0.930 . S
C512 N513 1.330 . S
C512 C514 1.446 . S
N513 Co472 2.151 . S
N513 C512 1.330 . S
N513 C517 1.418 . S
C514 H493 0.929 . S
C514 C512 1.446 . S
C514 C515 1.332 . S
C515 H495 0.931 . S
C515 C514 1.332 . S
C515 C516 1.267 . S
C516 H484 0.929 . S
C516 C515 1.267 . S
C516 C517 1.251 . S
C517 H487 0.929 . S
C517 N513 1.418 . S
C517 C516 1.251 . S
C518 H485 0.930 . S
C518 C520 1.406 . S
C518 C523 1.261 . S
C519 H486 0.930 . S
C519 N521 1.325 . S
C519 C522 1.357 . S
C520 H488 0.928 . S
C520 C518 1.406 . S
C520 N521 1.261 . S
N521 Co472 2.214 . S
N521 C519 1.325 . S
N521 C520 1.261 . S
C522 H492 0.931 . S
C522 C519 1.357 . S
C522 C523 1.312 . S
C523 H494 0.930 . S
C523 C518 1.261 . S
C523 C522 1.312 . S
C524 O496 1.214 1_565 S
C524 O504 1.234 . S
C525 H497 0.929 . S
C525 C528 1.391 . S
C525 C530 1.391 . S
C526 H498 0.929 . S
C526 C527 1.390 . S
C526 N529 1.391 . S
C527 H499 0.930 . S
C527 C526 1.390 . S
C527 C528 1.392 . S
C528 H500 0.929 . S
C528 C525 1.391 . S
C528 C527 1.392 . S
N529 Co473 2.257 . S
N529 C526 1.391 . S
N529 C530 1.388 . S
C530 H501 0.930 . S
C530 C525 1.391 . S
C530 N529 1.388 . S
Co531 O533 2.143 . S
Co531 O539 2.074 . S
Co531 O542 2.093 . S
Co531 O555 2.097 . S
Co531 N572 2.151 . S
Co531 N580 2.214 . S
Co532 O533 2.160 . S
Co532 O538 2.058 . S
Co532 O548 2.057 . S
Co532 O563 2.037 . S
Co532 N567 2.145 . S
Co532 N588 2.257 . S
O533 Co531 2.143 . S
O533 Co532 2.160 . S
C534 O535 1.278 . S
C534 O542 1.224 . S
O535 C534 1.278 . S
C536 O537 1.245 . S
C536 O548 1.232 . S
O537 C536 1.245 . S
O538 Co532 2.058 . S
O538 C564 1.269 . S
O539 Co531 2.074 . S
O539 C564 1.257 . S
H540 C565 0.930 . S
H541 C571 0.930 . S
O542 Co531 2.093 . S
O542 C534 1.224 . S
H543 C575 0.929 . S
H544 C577 0.930 . S
H545 C578 0.930 . S
H546 C576 0.929 . S
H547 C579 0.928 . S
O548 Co532 2.057 . S
O548 C536 1.232 . S
H549 C568 0.929 . S
H550 C569 0.929 . S
H551 C581 0.931 . S
H552 C573 0.929 . S
H553 C582 0.930 . S
H554 C574 0.931 . S
O555 Co531 2.097 . S
O555 C583 1.214 . S
H556 C584 0.929 . S
H557 C585 0.929 . S
H558 C586 0.930 . S
H559 C587 0.929 . S
H560 C589 0.930 . S
H561 C566 0.930 . S
H562 C570 0.930 . S
O563 Co532 2.037 . S
O563 C583 1.234 . S
C564 O538 1.269 . S
C564 O539 1.257 . S
C565 H540 0.930 . S
C565 C568 1.388 . S
C565 C570 1.418 . S
C566 H561 0.930 . S
C566 C569 1.404 . S
C566 C570 1.353 . S
N567 Co532 2.145 . S
N567 C568 1.397 . S
N567 C569 1.334 . S
C568 H549 0.929 . S
C568 C565 1.388 . S
C568 N567 1.397 . S
C569 H550 0.929 . S
C569 C566 1.404 . S
C569 N567 1.334 . S
C570 H562 0.930 . S
C570 C565 1.418 . S
C570 C566 1.353 . S
C571 H541 0.930 . S
C571 N572 1.330 . S
C571 C573 1.446 . S
N572 Co531 2.151 . S
N572 C571 1.330 . S
N572 C576 1.418 . S
C573 H552 0.929 . S
C573 C571 1.446 . S
C573 C574 1.332 . S
C574 H554 0.931 . S
C574 C573 1.332 . S
C574 C575 1.267 . S
C575 H543 0.929 . S
C575 C574 1.267 . S
C575 C576 1.251 . S
C576 H546 0.929 . S
C576 N572 1.418 . S
C576 C575 1.251 . S
C577 H544 0.930 . S
C577 C579 1.406 . S
C577 C582 1.261 . S
C578 H545 0.930 . S
C578 N580 1.325 . S
C578 C581 1.357 . S
C579 H547 0.928 . S
C579 C577 1.406 . S
C579 N580 1.261 . S
N580 Co531 2.214 . S
N580 C578 1.325 . S
N580 C579 1.261 . S
C581 H551 0.931 . S
C581 C578 1.357 . S
C581 C582 1.312 . S
C582 H553 0.930 . S
C582 C577 1.261 . S
C582 C581 1.312 . S
C583 O555 1.214 . S
C583 O563 1.234 . S
C584 H556 0.929 . S
C584 C587 1.391 . S
C584 C589 1.391 . S
C585 H557 0.929 . S
C585 C586 1.390 . S
C585 N588 1.391 . S
C586 H558 0.930 . S
C586 C585 1.390 . S
C586 C587 1.392 . S
C587 H559 0.929 . S
C587 C584 1.391 . S
C587 C586 1.392 . S
N588 Co532 2.257 . S
N588 C585 1.391 . S
N588 C589 1.388 . S
C589 H560 0.930 . S
C589 C584 1.391 . S
C589 N588 1.388 . S
Co590 O592 2.143 1_655 S
Co590 O598 2.074 1_556 S
Co590 O601 2.093 . S
Co590 O614 2.097 . S
Co590 N631 2.151 . S
Co590 N639 2.214 . S
Co591 O592 2.160 1_554 S
Co591 O597 2.058 . S
Co591 O607 2.057 . S
Co591 O622 2.037 . S
Co591 N626 2.145 . S
Co591 N647 2.257 1_554 S
O592 Co590 2.143 1_455 S
O592 Co591 2.160 1_556 S
C593 O594 1.278 1_655 S
C593 O601 1.224 . S
O594 C593 1.278 1_455 S
C595 O596 1.245 . S
C595 O607 1.232 1_556 S
O596 C595 1.245 . S
O597 Co591 2.058 . S
O597 C623 1.269 1_455 S
O598 Co590 2.074 1_554 S
O598 C623 1.257 . S
H599 C624 0.930 . S
H600 C630 0.930 . S
O601 Co590 2.093 . S
O601 C593 1.224 . S
H602 C634 0.929 1_554 S
H603 C636 0.930 . S
H604 C637 0.930 1_554 S
H605 C635 0.929 1_554 S
H606 C638 0.928 . S
O607 Co591 2.057 . S
O607 C595 1.232 1_554 S
H608 C627 0.929 . S
H609 C628 0.929 . S
H610 C640 0.925 1_554 S
H611 C632 0.929 . S
H612 C641 0.930 . S
H613 C633 0.931 . S
O614 Co590 2.097 . S
O614 C642 1.214 1_655 S
H615 C643 0.929 . S
H616 C644 0.929 . S
H617 C645 0.930 . S
H618 C646 0.929 . S
H619 C648 0.930 . S
H620 C625 0.930 . S
H621 C629 0.930 . S
O622 Co591 2.037 . S
O622 C642 1.234 1_554 S
C623 O597 1.269 1_655 S
C623 O598 1.257 . S
C624 H599 0.930 . S
C624 C627 1.388 . S
C624 C629 1.418 . S
C625 H620 0.930 . S
C625 C628 1.404 . S
C625 C629 1.353 . S
N626 Co591 2.145 . S
N626 C627 1.397 . S
N626 C628 1.334 . S
C627 H608 0.929 . S
C627 C624 1.388 . S
C627 N626 1.397 . S
C628 H609 0.929 . S
C628 C625 1.404 . S
C628 N626 1.334 . S
C629 H621 0.930 . S
C629 C624 1.418 . S
C629 C625 1.353 . S
C630 H600 0.930 . S
C630 N631 1.330 . S
C630 C632 1.446 . S
N631 Co590 2.151 . S
N631 C630 1.330 . S
N631 C635 1.418 . S
C632 H611 0.929 . S
C632 C630 1.446 . S
C632 C633 1.332 . S
C633 H613 0.931 . S
C633 C632 1.332 . S
C633 C634 1.267 . S
C634 H602 0.929 1_556 S
C634 C633 1.267 . S
C634 C635 1.251 . S
C635 H605 0.929 1_556 S
C635 N631 1.418 . S
C635 C634 1.251 . S
C636 H603 0.930 . S
C636 C638 1.406 . S
C636 C641 1.261 . S
C637 H604 0.930 1_556 S
C637 N639 1.325 . S
C637 C640 1.359 . S
C638 H606 0.928 . S
C638 C636 1.406 . S
C638 N639 1.261 . S
N639 Co590 2.214 . S
N639 C637 1.325 . S
N639 C638 1.261 . S
C640 H610 0.925 1_556 S
C640 C637 1.359 . S
C640 C641 1.317 . S
C641 H612 0.930 . S
C641 C636 1.261 . S
C641 C640 1.317 . S
C642 O614 1.214 1_455 S
C642 O622 1.234 1_556 S
C643 H615 0.929 . S
C643 C646 1.391 . S
C643 C648 1.391 . S
C644 H616 0.929 . S
C644 C645 1.390 . S
C644 N647 1.391 . S
C645 H617 0.930 . S
C645 C644 1.390 . S
C645 C646 1.392 . S
C646 H618 0.929 . S
C646 C643 1.391 . S
C646 C645 1.392 . S
N647 Co591 2.257 1_556 S
N647 C644 1.391 . S
N647 C648 1.388 . S
C648 H619 0.930 . S
C648 C643 1.391 . S
C648 N647 1.388 . S
Co649 O651 2.143 1_565 S
Co649 O657 2.074 . S
Co649 O660 2.093 . S
Co649 O673 2.097 . S
Co649 N690 2.151 . S
Co649 N698 2.214 . S
Co650 O651 2.160 . S
Co650 O656 2.058 . S
Co650 O666 2.057 . S
Co650 O681 2.037 . S
Co650 N685 2.145 . S
Co650 N706 2.257 . S
O651 Co649 2.143 1_545 S
O651 Co650 2.160 . S
C652 O653 1.278 1_565 S
C652 O660 1.224 . S
O653 C652 1.278 1_545 S
C654 O655 1.245 . S
C654 O666 1.232 . S
O655 C654 1.245 . S
O656 Co650 2.058 . S
O656 C682 1.269 1_545 S
O657 Co649 2.074 . S
O657 C682 1.257 . S
H658 C683 0.930 . S
H659 C689 0.930 . S
O660 Co649 2.093 . S
O660 C652 1.224 . S
H661 C693 0.929 . S
H662 C695 0.930 . S
H663 C696 0.930 . S
H664 C694 0.929 . S
H665 C697 0.928 . S
O666 Co650 2.057 . S
O666 C654 1.232 . S
H667 C686 0.929 . S
H668 C687 0.929 . S
H669 C699 0.931 . S
H670 C691 0.929 . S
H671 C700 0.930 . S
H672 C692 0.931 . S
O673 Co649 2.097 . S
O673 C701 1.214 1_565 S
H674 C702 0.929 . S
H675 C703 0.929 . S
H676 C704 0.930 . S
H677 C705 0.929 . S
H678 C707 0.930 . S
H679 C684 0.930 . S
H680 C688 0.930 . S
O681 Co650 2.037 . S
O681 C701 1.234 . S
C682 O656 1.269 1_565 S
C682 O657 1.257 . S
C683 H658 0.930 . S
C683 C686 1.388 . S
C683 C688 1.418 . S
C684 H679 0.930 . S
C684 C687 1.404 . S
C684 C688 1.353 . S
N685 Co650 2.145 . S
N685 C686 1.397 . S
N685 C687 1.334 . S
C686 H667 0.929 . S
C686 C683 1.388 . S
C686 N685 1.397 . S
C687 H668 0.929 . S
C687 C684 1.404 . S
C687 N685 1.334 . S
C688 H680 0.930 . S
C688 C683 1.418 . S
C688 C684 1.353 . S
C689 H659 0.930 . S
C689 N690 1.330 . S
C689 C691 1.446 . S
N690 Co649 2.151 . S
N690 C689 1.330 . S
N690 C694 1.418 . S
C691 H670 0.929 . S
C691 C689 1.446 . S
C691 C692 1.332 . S
C692 H672 0.931 . S
C692 C691 1.332 . S
C692 C693 1.267 . S
C693 H661 0.929 . S
C693 C692 1.267 . S
C693 C694 1.251 . S
C694 H664 0.929 . S
C694 N690 1.418 . S
C694 C693 1.251 . S
C695 H662 0.930 . S
C695 C697 1.406 . S
C695 C700 1.261 . S
C696 H663 0.930 . S
C696 N698 1.325 . S
C696 C699 1.357 . S
C697 H665 0.928 . S
C697 C695 1.406 . S
C697 N698 1.261 . S
N698 Co649 2.214 . S
N698 C696 1.325 . S
N698 C697 1.261 . S
C699 H669 0.931 . S
C699 C696 1.357 . S
C699 C700 1.312 . S
C700 H671 0.930 . S
C700 C695 1.261 . S
C700 C699 1.312 . S
C701 O673 1.214 1_545 S
C701 O681 1.234 . S
C702 H674 0.929 . S
C702 C705 1.391 . S
C702 C707 1.391 . S
C703 H675 0.929 . S
C703 C704 1.390 . S
C703 N706 1.391 . S
C704 H676 0.930 . S
C704 C703 1.390 . S
C704 C705 1.392 . S
C705 H677 0.929 . S
C705 C702 1.391 . S
C705 C704 1.392 . S
N706 Co650 2.257 . S
N706 C703 1.391 . S
N706 C707 1.388 . S
C707 H678 0.930 . S
C707 C702 1.391 . S
C707 N706 1.388 . S
C3 C534 1.588 . S
C62 C593 1.588 1_455 S
C121 C652 1.588 1_546 S
C180 C357 1.588 . S
C416 C239 1.588 1_455 S
C475 C298 1.588 1_544 S
C595 C5 1.581 1_556 S
C64 C654 1.581 . S
C123 C359 1.581 . S
C182 C418 1.581 1_554 S
C241 C477 1.581 . S
C300 C536 1.581 . S
C564 C33 1.157 . S
C92 C623 1.157 1_455 S
C151 C682 1.157 1_545 S
C387 C210 1.157 . S
C269 C446 1.157 1_655 S
C505 C328 1.157 1_545 S
C52 C229 1.630 . S
C288 C111 1.630 1_455 S
C170 C347 1.630 1_565 S
C406 C583 1.630 . S
C465 C642 1.630 1_655 S
C701 C524 1.630 1_545 S
