# Generated by pormake.
# Topology ske, (6)-cn, num edge types: 1
# Building blocks:
#     Node 0, Type 0, BuildingBlock: FUNLAD_clean_sbu_0, # of connection points: 6
#     Node 1, Type 0, BuildingBlock: FUNLAD_clean_sbu_0, # of connection points: 6
#     Node 2, Type 0, BuildingBlock: FUNLAD_clean_sbu_0, # of connection points: 6
#     Node 3, Type 0, BuildingBlock: FUNLAD_clean_sbu_0, # of connection points: 6
#     Node 4, Type 0, BuildingBlock: FUNLAD_clean_sbu_0, # of connection points: 6
#     Node 5, Type 0, BuildingBlock: FUNLAD_clean_sbu_0, # of connection points: 6
#     Node 6, Type 0, BuildingBlock: FUNLAD_clean_sbu_0, # of connection points: 6
#     Node 7, Type 0, BuildingBlock: FUNLAD_clean_sbu_0, # of connection points: 6
#     Edge 8, Type (0, 0), BuildingBlock: AJUNOK_clean_linker_0, # of connection points: 2
#     Edge 9, Type (0, 0), BuildingBlock: AJUNOK_clean_linker_0, # of connection points: 2
#     Edge 10, Type (0, 0), BuildingBlock: AJUNOK_clean_linker_0, # of connection points: 2
#     Edge 11, Type (0, 0), BuildingBlock: AJUNOK_clean_linker_0, # of connection points: 2
#     Edge 12, Type (0, 0), BuildingBlock: AJUNOK_clean_linker_0, # of connection points: 2
#     Edge 13, Type (0, 0), BuildingBlock: AJUNOK_clean_linker_0, # of connection points: 2
#     Edge 14, Type (0, 0), BuildingBlock: AJUNOK_clean_linker_0, # of connection points: 2
#     Edge 15, Type (0, 0), BuildingBlock: AJUNOK_clean_linker_0, # of connection points: 2
#     Edge 16, Type (0, 0), BuildingBlock: AJUNOK_clean_linker_0, # of connection points: 2
#     Edge 17, Type (0, 0), BuildingBlock: AJUNOK_clean_linker_0, # of connection points: 2
#     Edge 18, Type (0, 0), BuildingBlock: AJUNOK_clean_linker_0, # of connection points: 2
#     Edge 19, Type (0, 0), BuildingBlock: AJUNOK_clean_linker_0, # of connection points: 2
#     Edge 20, Type (0, 0), BuildingBlock: AJUNOK_clean_linker_0, # of connection points: 2
#     Edge 21, Type (0, 0), BuildingBlock: AJUNOK_clean_linker_0, # of connection points: 2
#     Edge 22, Type (0, 0), BuildingBlock: AJUNOK_clean_linker_0, # of connection points: 2
#     Edge 23, Type (0, 0), BuildingBlock: AJUNOK_clean_linker_0, # of connection points: 2
#     Edge 24, Type (0, 0), BuildingBlock: AJUNOK_clean_linker_0, # of connection points: 2
#     Edge 25, Type (0, 0), BuildingBlock: AJUNOK_clean_linker_0, # of connection points: 2
#     Edge 26, Type (0, 0), BuildingBlock: AJUNOK_clean_linker_0, # of connection points: 2
#     Edge 27, Type (0, 0), BuildingBlock: AJUNOK_clean_linker_0, # of connection points: 2
#     Edge 28, Type (0, 0), BuildingBlock: AJUNOK_clean_linker_0, # of connection points: 2
#     Edge 29, Type (0, 0), BuildingBlock: AJUNOK_clean_linker_0, # of connection points: 2
#     Edge 30, Type (0, 0), BuildingBlock: AJUNOK_clean_linker_0, # of connection points: 2
#     Edge 31, Type (0, 0), BuildingBlock: AJUNOK_clean_linker_0, # of connection points: 2
# Relax obj value: 0.042
# Max RMSD: 0.117
# Mean RMSD: 0.112
data_MOF--net-ske--node1-FUNLAD_clean_sbu_0--edge1-AJUNOK_clean_linker_0
_symmetry_space_group_name_H-M    P1
_symmetry_Int_Tables_number       1
_symmetry_cell_setting            triclinic
loop_
_symmetry_equiv_pos_as_xyz
'x, y, z'
_cell_length_a     43.301124
_cell_length_b     35.206786
_cell_length_c     11.263533
_cell_angle_alpha  89.845458
_cell_angle_beta   90.00265
_cell_angle_gamma 91.626316
loop_
_atom_site_label
_atom_site_type_symbol
_atom_site_fract_x
_atom_site_fract_y
_atom_site_fract_z
_atom_type_partial_charge
C0 C 0.19289 0.27298 0.58576 0.0
N1 N 0.12975 0.1817 0.537 0.0
C2 C 0.15143 0.1659 0.46651 0.0
C3 C 0.15135 0.12674 0.44834 0.0
C4 C 0.12872 0.10342 0.50306 0.0
C5 C 0.10719 0.12017 0.57857 0.0
C6 C 0.10801 0.15968 0.5939 0.0
Zn7 Zn 0.12977 0.24001 0.54364 0.0
C8 C 0.12475 0.27144 0.78558 0.0
N9 N 0.13174 0.36153 0.5395 0.0
C10 C 0.15297 0.37984 0.4691 0.0
C11 C 0.11002 0.38109 0.5994 0.0
C12 C 0.10879 0.42059 0.58788 0.0
C13 C 0.13007 0.44002 0.51388 0.0
C14 C 0.15247 0.41919 0.45464 0.0
Zn15 Zn 0.13114 0.30332 0.54248 0.0
O16 O 0.17822 0.24155 0.57106 0.0
C17 C 0.13582 0.27269 0.29997 0.0
O18 O 0.17894 0.30379 0.56963 0.0
H19 H 0.09319 0.36597 0.65405 0.0
H20 H 0.16857 0.18381 0.42219 0.0
H21 H 0.16999 0.36379 0.42196 0.0
O22 O 0.13448 0.24136 0.35602 0.0
O23 O 0.13606 0.30345 0.358 0.0
H24 H 0.09093 0.17281 0.64926 0.0
O25 O 0.08325 0.30213 0.52012 0.0
O26 O 0.08115 0.23982 0.52208 0.0
O27 O 0.12603 0.30233 0.72692 0.0
O28 O 0.12492 0.23988 0.73056 0.0
C29 C 0.0675 0.27126 0.51427 0.0
H30 H 0.16876 0.11481 0.39153 0.0
H31 H 0.08946 0.10301 0.62268 0.0
H32 H 0.0909 0.43564 0.63382 0.0
H33 H 0.16937 0.43321 0.39734 0.0
C34 C 0.93353 0.27277 0.51448 0.0
N35 N 0.87032 0.36098 0.53555 0.0
C36 C 0.88987 0.38352 0.60088 0.0
C37 C 0.88926 0.42315 0.5895 0.0
C38 C 0.86851 0.43958 0.5095 0.0
C39 C 0.84899 0.41545 0.44247 0.0
C40 C 0.84992 0.37629 0.45832 0.0
Zn41 Zn 0.87092 0.30278 0.5421 0.0
C42 C 0.86545 0.27107 0.29882 0.0
N43 N 0.86973 0.18143 0.53832 0.0
C44 C 0.89181 0.16162 0.59559 0.0
C45 C 0.84822 0.16351 0.46852 0.0
C46 C 0.84902 0.12436 0.45078 0.0
C47 C 0.87219 0.10341 0.50522 0.0
C48 C 0.89338 0.12228 0.58061 0.0
Zn49 Zn 0.87014 0.23955 0.54185 0.0
O50 O 0.91921 0.30371 0.52131 0.0
C51 C 0.876 0.27184 0.78442 0.0
O52 O 0.91842 0.24137 0.52056 0.0
H53 H 0.83084 0.17975 0.42387 0.0
H54 H 0.90604 0.37079 0.66132 0.0
H55 H 0.90873 0.17645 0.65034 0.0
O56 O 0.87562 0.30283 0.72641 0.0
O57 O 0.87497 0.24039 0.72878 0.0
H58 H 0.8345 0.35804 0.40719 0.0
O59 O 0.82202 0.23882 0.56861 0.0
O60 O 0.82273 0.30104 0.56839 0.0
O61 O 0.86543 0.23967 0.35436 0.0
O62 O 0.86652 0.30169 0.3574 0.0
C63 C 0.80805 0.26967 0.58382 0.0
H64 H 0.90476 0.44072 0.64284 0.0
H65 H 0.83339 0.42661 0.37675 0.0
H66 H 0.83186 0.11066 0.39415 0.0
H67 H 0.91149 0.10695 0.6245 0.0
C68 C 0.06841 0.77009 0.42226 0.0
N69 N 0.13248 0.86154 0.39729 0.0
C70 C 0.11076 0.88113 0.33712 0.0
C71 C 0.10938 0.9206 0.34871 0.0
C72 C 0.1305 0.94002 0.42313 0.0
C73 C 0.15289 0.91917 0.48276 0.0
C74 C 0.15356 0.87983 0.46812 0.0
Zn75 Zn 0.13206 0.80323 0.39372 0.0
C76 C 0.13704 0.77202 0.63687 0.0
N77 N 0.13077 0.6817 0.3999 0.0
C78 C 0.10888 0.65997 0.34315 0.0
C79 C 0.15245 0.6656 0.46999 0.0
C80 C 0.15218 0.62641 0.48798 0.0
C81 C 0.12935 0.60341 0.4336 0.0
C82 C 0.10784 0.62046 0.35843 0.0
Zn83 Zn 0.13073 0.73992 0.39395 0.0
O84 O 0.08358 0.8015 0.41685 0.0
C85 C 0.12612 0.77184 0.15124 0.0
O86 O 0.08268 0.7392 0.41431 0.0
H87 H 0.16968 0.68329 0.51431 0.0
H88 H 0.09405 0.86602 0.28216 0.0
H89 H 0.09181 0.67334 0.28814 0.0
O90 O 0.12688 0.8027 0.20955 0.0
O91 O 0.12625 0.74026 0.20667 0.0
H92 H 0.1706 0.86379 0.51542 0.0
O93 O 0.17866 0.7415 0.3686 0.0
O94 O 0.18038 0.80376 0.36496 0.0
O95 O 0.1352 0.74076 0.58118 0.0
O96 O 0.1373 0.80286 0.57859 0.0
C97 C 0.19384 0.77241 0.35171 0.0
H98 H 0.0915 0.93564 0.30247 0.0
H99 H 0.16967 0.93316 0.54043 0.0
H100 H 0.16956 0.61421 0.54452 0.0
H101 H 0.08996 0.60354 0.31465 0.0
C102 C 0.93442 0.77115 0.42404 0.0
N103 N 0.86817 0.68225 0.40263 0.0
C104 C 0.88781 0.66101 0.33792 0.0
C105 C 0.88749 0.62143 0.3508 0.0
C106 C 0.86699 0.60365 0.43187 0.0
C107 C 0.84717 0.62644 0.49759 0.0
C108 C 0.84781 0.66564 0.48021 0.0
Zn109 Zn 0.87012 0.74046 0.39683 0.0
C110 C 0.86645 0.77189 0.64009 0.0
N111 N 0.87371 0.86181 0.40095 0.0
C112 C 0.89543 0.88302 0.3412 0.0
C113 C 0.85239 0.87847 0.47105 0.0
C114 C 0.85267 0.91778 0.48505 0.0
C115 C 0.87497 0.94035 0.42577 0.0
C116 C 0.89645 0.92264 0.35227 0.0
Zn117 Zn 0.87281 0.80367 0.39701 0.0
O118 O 0.91835 0.74047 0.41801 0.0
C119 C 0.87689 0.77164 0.15444 0.0
O120 O 0.92108 0.80279 0.41743 0.0
H121 H 0.83531 0.86116 0.51786 0.0
H122 H 0.90402 0.67479 0.27749 0.0
H123 H 0.91227 0.86918 0.28653 0.0
O124 O 0.87496 0.74067 0.21255 0.0
O125 O 0.87741 0.8031 0.20998 0.0
H126 H 0.83241 0.68293 0.53112 0.0
O127 O 0.82476 0.80349 0.37102 0.0
O128 O 0.82193 0.7413 0.37011 0.0
O129 O 0.86835 0.80324 0.58448 0.0
O130 O 0.86557 0.74123 0.58161 0.0
C131 C 0.80905 0.77293 0.35519 0.0
H132 H 0.90317 0.60495 0.29824 0.0
H133 H 0.83171 0.61429 0.56397 0.0
H134 H 0.83561 0.93044 0.54181 0.0
H135 H 0.91421 0.93916 0.30613 0.0
C136 C 0.69367 0.77389 0.0908 0.0
N137 N 0.63069 0.6824 0.0425 0.0
C138 C 0.65206 0.66614 -0.02838 0.0
C139 C 0.65206 0.62681 0.9567 0.0
C140 C 0.63005 0.60378 0.01599 0.0
C141 C 0.60853 0.62113 0.09028 0.0
C142 C 0.60922 0.66075 0.10213 0.0
Zn143 Zn 0.63071 0.74076 0.04743 0.0
C144 C 0.62548 0.77256 0.28958 0.0
N145 N 0.63247 0.86228 0.04194 0.0
C146 C 0.65387 0.88021 -0.0286 0.0
C147 C 0.6105 0.88213 0.09947 0.0
C148 C 0.60898 0.92149 0.08418 0.0
C149 C 0.63008 0.94037 0.00817 0.0
C150 C 0.65309 0.91937 0.95321 0.0
Zn151 Zn 0.63191 0.80408 0.04668 0.0
O152 O 0.67913 0.7424 0.07521 0.0
C153 C 0.63683 0.77315 0.80398 0.0
O154 O 0.67966 0.80465 0.07476 0.0
H155 H 0.59363 0.86732 0.15477 0.0
H156 H 0.66892 0.68378 0.92484 0.0
H157 H 0.67117 0.86396 0.92658 0.0
O158 O 0.63549 0.74178 0.85979 0.0
O159 O 0.63703 0.80386 0.86226 0.0
H160 H 0.5923 0.67424 0.15729 0.0
O161 O 0.58407 0.80278 0.02343 0.0
O162 O 0.58211 0.74047 0.02543 0.0
O163 O 0.62662 0.80348 0.23105 0.0
O164 O 0.62579 0.74104 0.23441 0.0
C165 C 0.56841 0.77186 0.01726 0.0
H166 H 0.66914 0.61449 0.89922 0.0
H167 H 0.59094 0.60433 0.13639 0.0
H168 H 0.59098 0.93684 0.12843 0.0
H169 H 0.67017 0.93306 0.89598 0.0
C170 C 0.43448 0.77311 0.01536 0.0
N171 N 0.37213 0.86209 0.03893 0.0
C172 C 0.39391 0.88337 0.09786 0.0
C173 C 0.39496 0.92299 0.08585 0.0
C174 C 0.37346 0.94073 0.01217 0.0
C175 C 0.35113 0.91808 0.95353 0.0
C176 C 0.35079 0.87873 -0.03141 0.0
Zn177 Zn 0.37185 0.80375 0.04416 0.0
C178 C 0.36614 0.77239 0.80103 0.0
N179 N 0.37051 0.68214 0.04039 0.0
C180 C 0.39202 0.66229 0.1008 0.0
C181 C 0.34938 0.66413 -0.03088 0.0
C182 C 0.3498 0.6248 0.95422 0.0
C183 C 0.372 0.60368 0.01389 0.0
C184 C 0.39315 0.6228 0.08886 0.0
Zn185 Zn 0.37123 0.74042 0.04404 0.0
O186 O 0.42013 0.80405 0.02092 0.0
C187 C 0.37727 0.77257 0.28663 0.0
O188 O 0.41942 0.74173 0.02317 0.0
H189 H 0.33253 0.6804 0.92162 0.0
H190 H 0.41082 0.86957 0.15256 0.0
H191 H 0.40877 0.67718 0.15616 0.0
O192 O 0.37715 0.80354 0.22842 0.0
O193 O 0.37594 0.7411 0.23115 0.0
H194 H 0.33369 0.86138 0.92231 0.0
O195 O 0.32321 0.74004 0.07034 0.0
O196 O 0.32368 0.8023 0.073 0.0
O197 O 0.36666 0.74099 0.85656 0.0
O198 O 0.36671 0.80308 0.85955 0.0
C199 C 0.30919 0.77074 0.08776 0.0
H200 H 0.41279 0.93948 0.13139 0.0
H201 H 0.33406 0.93072 0.89651 0.0
H202 H 0.33299 0.61102 0.89619 0.0
H203 H 0.41089 0.60754 0.1352 0.0
C204 C 0.56807 0.27185 0.92553 0.0
N205 N 0.6333 0.36222 0.89959 0.0
C206 C 0.61156 0.38268 0.84255 0.0
C207 C 0.61061 0.42209 0.858 0.0
C208 C 0.63203 0.44043 0.93372 0.0
C209 C 0.6548 0.4188 -0.01192 0.0
C210 C 0.65502 0.37961 -0.03023 0.0
Zn211 Zn 0.63194 0.30385 0.89525 0.0
C212 C 0.63695 0.27208 0.13962 0.0
N213 N 0.62938 0.18229 0.90292 0.0
C214 C 0.60754 0.16118 0.84376 0.0
C215 C 0.65071 0.16549 -0.02704 0.0
C216 C 0.65031 0.12615 -0.01259 0.0
C217 C 0.62792 0.10368 0.92857 0.0
C218 C 0.60642 0.12155 0.85527 0.0
Zn219 Zn 0.63012 0.24051 0.89767 0.0
O220 O 0.58339 0.30311 0.91776 0.0
C221 C 0.62567 0.27163 0.65377 0.0
O222 O 0.58217 0.24079 0.91979 0.0
H223 H 0.66788 0.18271 0.01932 0.0
H224 H 0.59443 0.36832 0.78759 0.0
H225 H 0.59068 0.17511 0.78919 0.0
O226 O 0.6269 0.30324 0.70853 0.0
O227 O 0.62523 0.24077 0.71271 0.0
H228 H 0.67212 0.36289 0.01429 0.0
O229 O 0.67778 0.24091 0.87033 0.0
O230 O 0.68038 0.30313 0.86642 0.0
O231 O 0.63515 0.24116 0.08246 0.0
O232 O 0.63696 0.30329 0.0829 0.0
C233 C 0.6933 0.27145 0.85197 0.0
H234 H 0.59275 0.43788 0.81419 0.0
H235 H 0.67214 0.43202 0.04504 0.0
H236 H 0.66739 0.11338 0.04411 0.0
H237 H 0.58855 0.10517 0.80957 0.0
C238 C 0.43409 0.2727 0.9207 0.0
N239 N 0.3693 0.18227 0.89578 0.0
C240 C 0.39124 0.16226 0.83859 0.0
C241 C 0.39265 0.12288 0.85424 0.0
C242 C 0.37151 0.10413 0.93038 0.0
C243 C 0.34856 0.12529 -0.01491 0.0
C244 C 0.34785 0.16446 0.96644 0.0
Zn245 Zn 0.37 0.24059 0.89091 0.0
C246 C 0.36563 0.27153 0.13389 0.0
N247 N 0.37234 0.36222 0.89668 0.0
C248 C 0.39419 0.38425 0.84042 0.0
C249 C 0.35049 0.37801 0.96644 0.0
C250 C 0.35053 0.41715 -0.01533 0.0
C251 C 0.37331 0.44046 0.93093 0.0
C252 C 0.39499 0.42375 0.85597 0.0
Zn253 Zn 0.37232 0.30393 0.89068 0.0
O254 O 0.41822 0.24185 0.91516 0.0
C255 C 0.37704 0.27219 0.64825 0.0
O256 O 0.42059 0.30416 0.91191 0.0
H257 H 0.33328 0.3601 0.01032 0.0
H258 H 0.40817 0.17697 0.7833 0.0
H259 H 0.41138 0.37114 0.78558 0.0
O260 O 0.37554 0.24125 0.70669 0.0
O261 O 0.37706 0.30372 0.7035 0.0
H262 H 0.33058 0.18081 0.01105 0.0
O263 O 0.32428 0.30267 0.86406 0.0
O264 O 0.32185 0.24045 0.86135 0.0
O265 O 0.36772 0.30286 0.07813 0.0
O266 O 0.36466 0.24081 0.07556 0.0
C267 C 0.30879 0.27202 0.84697 0.0
H268 H 0.41063 0.10743 0.8102 0.0
H269 H 0.33144 0.11172 0.04247 0.0
H270 H 0.333 0.42906 0.04096 0.0
H271 H 0.41283 0.44092 0.8126 0.0
C272 C 0.23647 0.23934 0.682 0.0
C273 C 0.22363 0.27363 0.64418 0.0
C274 C 0.26316 0.23914 0.75227 0.0
C275 C 0.27818 0.2732 0.78797 0.0
H276 H 0.22559 0.21228 0.65886 0.0
H277 H 0.27228 0.21192 0.7773 0.0
S278 S 0.25412 0.37091 0.71237 0.0
N279 N 0.22824 0.34274 0.64715 0.0
N280 N 0.27812 0.34238 0.77978 0.0
C281 C 0.26557 0.30777 0.75098 0.0
C282 C 0.23849 0.30797 0.67866 0.0
C283 C 0.73934 0.30387 0.75816 0.0
C284 C 0.72358 0.26993 0.79061 0.0
C285 C 0.76568 0.30358 0.68608 0.0
C286 C 0.77745 0.26932 0.64315 0.0
H287 H 0.73109 0.33106 0.78742 0.0
H288 H 0.77722 0.33053 0.66591 0.0
S289 S 0.74433 0.17243 0.699 0.0
N290 N 0.72151 0.20089 0.77219 0.0
N291 N 0.77083 0.20049 0.63641 0.0
C292 C 0.76176 0.23514 0.67381 0.0
C293 C 0.73501 0.23539 0.74788 0.0
C294 C 0.26391 0.80416 0.17147 0.0
C295 C 0.27872 0.76989 0.14808 0.0
C296 C 0.23737 0.80498 0.24247 0.0
C297 C 0.22452 0.77157 0.29342 0.0
H298 H 0.27303 0.83077 0.13564 0.0
H299 H 0.22654 0.83203 0.25534 0.0
S300 S 0.25491 0.67439 0.26328 0.0
N301 N 0.27873 0.70158 0.18381 0.0
N302 N 0.22912 0.70322 0.31773 0.0
C303 C 0.23926 0.7371 0.27185 0.0
C304 C 0.26616 0.73621 0.19879 0.0
C305 C 0.73717 0.74032 0.18762 0.0
C306 C 0.72425 0.77462 0.15042 0.0
C307 C 0.76367 0.74009 0.25886 0.0
C308 C 0.77846 0.77415 0.29611 0.0
H309 H 0.7265 0.71326 0.16316 0.0
H310 H 0.77289 0.71286 0.28317 0.0
S311 S 0.75397 0.87188 0.22355 0.0
N312 N 0.72841 0.84375 0.1563 0.0
N313 N 0.778 0.84331 0.29065 0.0
C314 C 0.76572 0.80872 0.26002 0.0
C315 C 0.73882 0.80896 0.18677 0.0
C316 C 0.12856 0.99674 0.55685 0.0
C317 C 0.12896 0.98173 0.44108 0.0
C318 C 0.12774 0.03607 0.57631 0.0
C319 C 0.12774 0.06183 0.48071 0.0
H320 H 0.12881 0.9779 0.63304 0.0
H321 H 0.1278 0.04642 0.6668 0.0
S322 S 0.12805 0.03711 0.16065 0.0
N323 N 0.1289 0.99572 0.22971 0.0
N324 N 0.12727 0.06956 0.26614 0.0
C325 C 0.12779 0.04718 0.36459 0.0
C326 C 0.12838 1.00717 0.34481 0.0
C327 C 0.89518 0.50333 0.48221 0.0
C328 C 0.86756 0.48154 0.49338 0.0
C329 C 0.8948 0.54263 0.46127 0.0
C330 C 0.86678 0.56173 0.45044 0.0
H331 H 0.9173 0.48984 0.48791 0.0
H332 H 0.91666 0.55823 0.45474 0.0
S333 S 0.788 0.51781 0.4735 0.0
N334 N 0.81138 0.4823 0.49611 0.0
N335 N 0.81067 0.55555 0.45007 0.0
C336 C 0.839 0.54023 0.46114 0.0
C337 C 0.83939 0.50036 0.4841 0.0
C338 C 0.87589 0.99713 0.55895 0.0
C339 C 0.87583 0.9821 0.44323 0.0
C340 C 0.87534 0.03643 0.57832 0.0
C341 C 0.87428 0.06208 0.48265 0.0
H342 H 0.87631 0.97832 0.63518 0.0
H343 H 0.87506 0.04678 0.66881 0.0
S344 S 0.87446 0.03731 0.16264 0.0
N345 N 0.87516 0.99592 0.23182 0.0
N346 N 0.87423 0.06983 0.26803 0.0
C347 C 0.87462 0.04746 0.36651 0.0
C348 C 0.87543 1.00747 0.34684 0.0
C349 C 0.12786 0.53623 0.36052 0.0
C350 C 0.12808 0.56184 0.45608 0.0
C351 C 0.12838 0.49688 0.38008 0.0
C352 C 0.12871 0.48172 0.49589 0.0
H353 H 0.12797 0.54673 0.27 0.0
H354 H 0.12849 0.47813 0.30395 0.0
S355 S 0.12826 0.53668 0.77621 0.0
N356 N 0.1277 0.5693 0.67063 0.0
N357 N 0.12879 0.49536 0.70724 0.0
C358 C 0.12833 0.507 0.59213 0.0
C359 C 0.12804 0.54704 0.57225 0.0
C360 C 0.62932 0.54708 0.88177 0.0
C361 C 0.62942 0.56197 -0.00229 0.0
C362 C 0.62963 0.50776 0.86176 0.0
C363 C 0.63051 0.48188 0.95694 0.0
H364 H 0.62895 0.56602 0.80583 0.0
H365 H 0.62978 0.49757 0.7711 0.0
S366 S 0.63058 0.50621 0.27735 0.0
N367 N 0.63009 0.54773 0.20885 0.0
N368 N 0.63061 0.47386 0.17145 0.0
C369 C 0.63034 0.49638 0.07329 0.0
C370 C 0.62975 0.53638 0.09362 0.0
C371 C 0.37421 0.99766 0.87804 0.0
C372 C 0.37438 0.98256 -0.00603 0.0
C373 C 0.37393 0.03701 0.85812 0.0
C374 C 0.37337 0.06269 0.9534 0.0
H375 H 0.37428 0.97885 0.80205 0.0
H376 H 0.37348 0.04738 0.7675 0.0
S377 S 0.37433 0.03786 0.27373 0.0
N378 N 0.37448 0.99645 0.20519 0.0
N379 N 0.37402 0.07039 0.16785 0.0
C380 C 0.37393 0.04802 0.0697 0.0
C381 C 0.37448 1.00798 0.08996 0.0
C382 C 0.37468 0.50794 0.85896 0.0
C383 C 0.37436 0.48199 0.95407 0.0
C384 C 0.37398 0.54724 0.87916 0.0
C385 C 0.37336 0.56201 -0.00479 0.0
H386 H 0.37482 0.49777 0.76828 0.0
H387 H 0.37399 0.56624 0.80334 0.0
S388 S 0.37333 0.50606 0.2746 0.0
N389 N 0.37425 0.47382 0.16852 0.0
N390 N 0.37282 0.5476 0.20629 0.0
C391 C 0.37359 0.53638 0.09101 0.0
C392 C 0.37406 0.4964 0.07048 0.0
C393 C 0.62712 0.04665 0.0619 0.0
C394 C 0.62696 0.06187 0.94616 0.0
C395 C 0.62748 1.0073 0.0813 0.0
C396 C 0.62812 0.98177 -0.01435 0.0
H397 H 0.62701 0.06536 0.13812 0.0
H398 H 0.62794 0.99681 0.17179 0.0
S399 S 0.62719 1.007 0.66563 0.0
N400 N 0.62695 0.04832 0.73473 0.0
N401 N 0.62752 0.97433 0.77109 0.0
C402 C 0.62755 0.99657 0.86952 0.0
C403 C 0.62693 0.03661 0.8498 0.0
C404 C 0.13423 0.23909 0.10465 0.0
C405 C 0.13398 0.27334 0.16872 0.0
C406 C 0.13043 0.23863 -0.01878 0.0
C407 C 0.12616 0.2724 0.91687 0.0
H408 H 0.1373 0.21229 0.15006 0.0
H409 H 0.13121 0.21156 0.93598 0.0
S410 S 0.1228 0.3697 0.04273 0.0
N411 N 0.12861 0.34199 0.15844 0.0
N412 N 0.1213 0.3411 0.92703 0.0
C413 C 0.12562 0.30687 -0.02008 0.0
C414 C 0.12963 0.30736 0.10553 0.0
C415 C 0.86612 0.23809 0.10254 0.0
C416 C 0.86722 0.27215 0.16762 0.0
C417 C 0.86974 0.23819 -0.02097 0.0
C418 C 0.87465 0.27235 0.91569 0.0
H419 H 0.86254 0.21103 0.14718 0.0
H420 H 0.86832 0.21123 0.93297 0.0
S421 S 0.8802 0.3694 0.0444 0.0
N422 N 0.87399 0.34108 0.15933 0.0
N423 N 0.88096 0.34121 0.92779 0.0
C424 C 0.87602 0.30664 -0.02027 0.0
C425 C 0.8722 0.30657 0.1054 0.0
C426 C 0.1256 0.73887 0.95486 0.0
C427 C 0.12818 0.77283 0.02006 0.0
C428 C 0.12931 0.73875 0.83139 0.0
C429 C 0.13581 0.77258 0.76817 0.0
H430 H 0.12068 0.71206 -0.00064 0.0
H431 H 0.12664 0.71191 0.78519 0.0
S432 S 0.14635 0.86907 0.89738 0.0
N433 N 0.13859 0.84122 0.01216 0.0
N434 N 0.14565 0.8409 0.78061 0.0
C435 C 0.13886 0.80673 0.83237 0.0
C436 C 0.13497 0.80689 0.95804 0.0
C437 C 0.86818 0.80499 0.83614 0.0
C438 C 0.8682 0.77091 0.77126 0.0
C439 C 0.87177 0.80505 0.95966 0.0
C440 C 0.87558 0.77102 0.02319 0.0
H441 H 0.86543 0.83196 0.79134 0.0
H442 H 0.87117 0.83201 0.00559 0.0
S443 S 0.87828 0.67402 0.89495 0.0
N444 N 0.87292 0.70213 0.77985 0.0
N445 N 0.87983 0.70229 0.01144 0.0
C446 C 0.87591 0.73671 0.95932 0.0
C447 C 0.87212 0.73663 0.83364 0.0
C448 C 0.63098 0.73951 0.4849 0.0
C449 C 0.62698 0.77341 0.4209 0.0
C450 C 0.63487 0.73978 0.6083 0.0
C451 C 0.63498 0.77397 0.67272 0.0
H452 H 0.63146 0.71246 0.43941 0.0
H453 H 0.6377 0.71288 0.6534 0.0
S454 S 0.62473 0.87067 0.54776 0.0
N455 N 0.62284 0.84219 0.43178 0.0
N456 N 0.63032 0.84274 0.66312 0.0
C457 C 0.63093 0.80814 0.60988 0.0
C458 C 0.62683 0.80784 0.48429 0.0
C459 C 0.36648 0.7393 0.60488 0.0
C460 C 0.36801 0.77339 0.66979 0.0
C461 C 0.37028 0.73922 0.48144 0.0
C462 C 0.37584 0.77322 0.41794 0.0
H463 H 0.36239 0.71234 0.64962 0.0
H464 H 0.36847 0.71225 0.43553 0.0
S465 S 0.38285 0.87024 0.54621 0.0
N466 N 0.37598 0.84216 0.66121 0.0
N467 N 0.38328 0.84195 0.42978 0.0
C468 C 0.37766 0.80753 0.48182 0.0
C469 C 0.37365 0.80764 0.60744 0.0
C470 C 0.62872 0.30485 0.33318 0.0
C471 C 0.63583 0.27161 0.27092 0.0
C472 C 0.62487 0.30444 0.45664 0.0
C473 C 0.62794 0.27078 0.52268 0.0
H474 H 0.62555 0.33134 0.28617 0.0
H475 H 0.61937 0.33075 0.50047 0.0
S476 S 0.64854 0.17651 0.40285 0.0
N477 N 0.64723 0.20444 0.28523 0.0
N478 N 0.63999 0.2036 0.51684 0.0
C479 C 0.63553 0.23742 0.46167 0.0
C480 C 0.63953 0.23787 0.33603 0.0
C481 C 0.3675 0.30491 0.32954 0.0
C482 C 0.36752 0.27072 0.26513 0.0
C483 C 0.37141 0.30521 0.45294 0.0
C484 C 0.37556 0.27135 0.51692 0.0
H485 H 0.36454 0.33177 0.28443 0.0
H486 H 0.37079 0.33225 0.49845 0.0
S487 S 0.37836 0.17413 0.38994 0.0
N488 N 0.37258 0.20201 0.27461 0.0
N489 N 0.38009 0.20261 0.50595 0.0
C490 C 0.37588 0.23692 0.45349 0.0
C491 C 0.37175 0.23659 0.32791 0.0
C492 C 0.01564 0.23843 0.51852 0.0
C493 C 0.03346 0.27213 0.50426 0.0
C494 C 0.98335 0.23886 0.51879 0.0
C495 C 0.96759 0.27302 0.50488 0.0
H496 H 0.02664 0.21152 0.53249 0.0
H497 H 0.97072 0.21222 0.53286 0.0
S498 S 0.00345 0.36869 0.45287 0.0
N499 N 0.03293 0.34036 0.46737 0.0
N500 N 0.97225 0.34112 0.46817 0.0
C501 C 0.9851 0.30677 0.48614 0.0
C502 C 0.01801 0.30634 0.48572 0.0
C503 C 0.98622 0.80406 0.42198 0.0
C504 C 0.96846 0.77016 0.43313 0.0
C505 C 0.0185 0.80381 0.42155 0.0
C506 C 0.03435 0.76964 0.43222 0.0
H507 H 0.97517 0.83107 0.41075 0.0
H508 H 0.03106 0.83062 0.40999 0.0
S509 S 0.99871 0.6733 0.4747 0.0
N510 N 0.96914 0.70163 0.46305 0.0
N511 N 0.02984 0.70115 0.46222 0.0
C512 C 0.01691 0.73561 0.44773 0.0
C513 C 0.98399 0.73587 0.4482 0.0
C514 C 0.51661 0.73893 0.02165 0.0
C515 C 0.5344 0.77261 0.00638 0.0
C516 C 0.48433 0.7393 0.02131 0.0
C517 C 0.46854 0.77337 0.00575 0.0
H518 H 0.52763 0.71211 0.037 0.0
H519 H 0.47172 0.7127 0.03636 0.0
S520 S 0.50433 0.86887 0.9501 0.0
N521 N 0.53383 0.84067 0.96639 0.0
N522 N 0.47314 0.8413 0.96607 0.0
C523 C 0.48601 0.80707 -0.01422 0.0
C524 C 0.51893 0.8067 -0.014 0.0
C525 C 0.48586 0.30578 0.91754 0.0
C526 C 0.4681 0.27199 0.93202 0.0
C527 C 0.51815 0.30559 0.91892 0.0
C528 C 0.53399 0.27161 0.93482 0.0
H529 H 0.4748 0.33257 0.90208 0.0
H530 H 0.53074 0.33223 0.90437 0.0
S531 S 0.49829 0.17588 -0.01135 0.0
N532 N 0.46874 0.20395 -0.02855 0.0
N533 N 0.52943 0.20359 -0.02596 0.0
C534 C 0.51653 0.23779 0.95407 0.0
C535 C 0.48361 0.23799 0.95266 0.0
loop_
_geom_bond_atom_site_label_1
_geom_bond_atom_site_label_2
_geom_bond_distance
_geom_bond_site_symmetry_2
_ccdc_geom_bond_type
C0 O16 1.251 . S
C0 O18 1.254 . S
N1 C2 1.333 . S
N1 C6 1.307 . S
N1 Zn7 2.020 . S
C2 N1 1.333 . S
C2 C3 1.379 . S
C2 H20 0.952 . S
C3 C2 1.379 . S
C3 C4 1.390 . S
C3 H30 0.949 . S
C4 C3 1.390 . S
C4 C5 1.357 . S
C5 C4 1.357 . S
C5 C6 1.370 . S
C5 H31 0.950 . S
C6 N1 1.307 . S
C6 C5 1.370 . S
C6 H24 0.948 . S
Zn7 N1 2.020 . S
Zn7 O16 2.039 . S
Zn7 O22 2.034 . S
Zn7 O26 2.025 . S
Zn7 O28 2.024 . S
C8 O27 1.246 . S
C8 O28 1.249 . S
N9 C10 1.307 . S
N9 C11 1.333 . S
N9 Zn15 2.020 . S
C10 N9 1.307 . S
C10 C14 1.370 . S
C10 H21 0.948 . S
C11 N9 1.333 . S
C11 C12 1.379 . S
C11 H19 0.952 . S
C12 C11 1.379 . S
C12 C13 1.390 . S
C12 H32 0.949 . S
C13 C12 1.390 . S
C13 C14 1.357 . S
C14 C10 1.370 . S
C14 C13 1.357 . S
C14 H33 0.950 . S
Zn15 N9 2.020 . S
Zn15 O18 2.025 . S
Zn15 O23 2.024 . S
Zn15 O25 2.039 . S
Zn15 O27 2.034 . S
O16 C0 1.251 . S
O16 Zn7 2.039 . S
C17 O22 1.246 . S
C17 O23 1.249 . S
O18 C0 1.254 . S
O18 Zn15 2.025 . S
H19 C11 0.952 . S
H20 C2 0.952 . S
H21 C10 0.948 . S
O22 Zn7 2.034 . S
O22 C17 1.246 . S
O23 Zn15 2.024 . S
O23 C17 1.249 . S
H24 C6 0.948 . S
O25 Zn15 2.039 . S
O25 C29 1.251 . S
O26 Zn7 2.025 . S
O26 C29 1.254 . S
O27 C8 1.246 . S
O27 Zn15 2.034 . S
O28 Zn7 2.024 . S
O28 C8 1.249 . S
C29 O25 1.251 . S
C29 O26 1.254 . S
H30 C3 0.949 . S
H31 C5 0.950 . S
H32 C12 0.949 . S
H33 C14 0.950 . S
C34 O50 1.251 . S
C34 O52 1.254 . S
N35 C36 1.333 . S
N35 C40 1.307 . S
N35 Zn41 2.020 . S
C36 N35 1.333 . S
C36 C37 1.379 . S
C36 H54 0.952 . S
C37 C36 1.379 . S
C37 C38 1.390 . S
C37 H64 0.949 . S
C38 C37 1.390 . S
C38 C39 1.357 . S
C39 C38 1.357 . S
C39 C40 1.370 . S
C39 H65 0.950 . S
C40 N35 1.307 . S
C40 C39 1.370 . S
C40 H58 0.948 . S
Zn41 N35 2.020 . S
Zn41 O50 2.039 . S
Zn41 O56 2.034 . S
Zn41 O60 2.025 . S
Zn41 O62 2.024 . S
C42 O61 1.246 . S
C42 O62 1.249 . S
N43 C44 1.307 . S
N43 C45 1.333 . S
N43 Zn49 2.020 . S
C44 N43 1.307 . S
C44 C48 1.370 . S
C44 H55 0.948 . S
C45 N43 1.333 . S
C45 C46 1.379 . S
C45 H53 0.952 . S
C46 C45 1.379 . S
C46 C47 1.390 . S
C46 H66 0.949 . S
C47 C46 1.390 . S
C47 C48 1.357 . S
C48 C44 1.370 . S
C48 C47 1.357 . S
C48 H67 0.950 . S
Zn49 N43 2.020 . S
Zn49 O52 2.025 . S
Zn49 O57 2.024 . S
Zn49 O59 2.039 . S
Zn49 O61 2.034 . S
O50 C34 1.251 . S
O50 Zn41 2.039 . S
C51 O56 1.246 . S
C51 O57 1.249 . S
O52 C34 1.254 . S
O52 Zn49 2.025 . S
H53 C45 0.952 . S
H54 C36 0.952 . S
H55 C44 0.948 . S
O56 Zn41 2.034 . S
O56 C51 1.246 . S
O57 Zn49 2.024 . S
O57 C51 1.249 . S
H58 C40 0.948 . S
O59 Zn49 2.039 . S
O59 C63 1.251 . S
O60 Zn41 2.025 . S
O60 C63 1.254 . S
O61 C42 1.246 . S
O61 Zn49 2.034 . S
O62 Zn41 2.024 . S
O62 C42 1.249 . S
C63 O59 1.251 . S
C63 O60 1.254 . S
H64 C37 0.949 . S
H65 C39 0.950 . S
H66 C46 0.949 . S
H67 C48 0.950 . S
C68 O84 1.251 . S
C68 O86 1.254 . S
N69 C70 1.333 . S
N69 C74 1.307 . S
N69 Zn75 2.020 . S
C70 N69 1.333 . S
C70 C71 1.379 . S
C70 H88 0.952 . S
C71 C70 1.379 . S
C71 C72 1.390 . S
C71 H98 0.949 . S
C72 C71 1.390 . S
C72 C73 1.357 . S
C73 C72 1.357 . S
C73 C74 1.370 . S
C73 H99 0.950 . S
C74 N69 1.307 . S
C74 C73 1.370 . S
C74 H92 0.948 . S
Zn75 N69 2.020 . S
Zn75 O84 2.039 . S
Zn75 O90 2.034 . S
Zn75 O94 2.025 . S
Zn75 O96 2.024 . S
C76 O95 1.246 . S
C76 O96 1.249 . S
N77 C78 1.307 . S
N77 C79 1.333 . S
N77 Zn83 2.020 . S
C78 N77 1.307 . S
C78 C82 1.370 . S
C78 H89 0.948 . S
C79 N77 1.333 . S
C79 C80 1.379 . S
C79 H87 0.952 . S
C80 C79 1.379 . S
C80 C81 1.390 . S
C80 H100 0.949 . S
C81 C80 1.390 . S
C81 C82 1.357 . S
C82 C78 1.370 . S
C82 C81 1.357 . S
C82 H101 0.950 . S
Zn83 N77 2.020 . S
Zn83 O86 2.025 . S
Zn83 O91 2.024 . S
Zn83 O93 2.039 . S
Zn83 O95 2.034 . S
O84 C68 1.251 . S
O84 Zn75 2.039 . S
C85 O90 1.246 . S
C85 O91 1.249 . S
O86 C68 1.254 . S
O86 Zn83 2.025 . S
H87 C79 0.952 . S
H88 C70 0.952 . S
H89 C78 0.948 . S
O90 Zn75 2.034 . S
O90 C85 1.246 . S
O91 Zn83 2.024 . S
O91 C85 1.249 . S
H92 C74 0.948 . S
O93 Zn83 2.039 . S
O93 C97 1.251 . S
O94 Zn75 2.025 . S
O94 C97 1.254 . S
O95 C76 1.246 . S
O95 Zn83 2.034 . S
O96 Zn75 2.024 . S
O96 C76 1.249 . S
C97 O93 1.251 . S
C97 O94 1.254 . S
H98 C71 0.949 . S
H99 C73 0.950 . S
H100 C80 0.949 . S
H101 C82 0.950 . S
C102 O118 1.251 . S
C102 O120 1.254 . S
N103 C104 1.333 . S
N103 C108 1.307 . S
N103 Zn109 2.020 . S
C104 N103 1.333 . S
C104 C105 1.379 . S
C104 H122 0.952 . S
C105 C104 1.379 . S
C105 C106 1.390 . S
C105 H132 0.949 . S
C106 C105 1.390 . S
C106 C107 1.357 . S
C107 C106 1.357 . S
C107 C108 1.370 . S
C107 H133 0.950 . S
C108 N103 1.307 . S
C108 C107 1.370 . S
C108 H126 0.948 . S
Zn109 N103 2.020 . S
Zn109 O118 2.039 . S
Zn109 O124 2.034 . S
Zn109 O128 2.025 . S
Zn109 O130 2.024 . S
C110 O129 1.246 . S
C110 O130 1.249 . S
N111 C112 1.307 . S
N111 C113 1.333 . S
N111 Zn117 2.020 . S
C112 N111 1.307 . S
C112 C116 1.370 . S
C112 H123 0.948 . S
C113 N111 1.333 . S
C113 C114 1.379 . S
C113 H121 0.952 . S
C114 C113 1.379 . S
C114 C115 1.390 . S
C114 H134 0.949 . S
C115 C114 1.390 . S
C115 C116 1.357 . S
C116 C112 1.370 . S
C116 C115 1.357 . S
C116 H135 0.950 . S
Zn117 N111 2.020 . S
Zn117 O120 2.025 . S
Zn117 O125 2.024 . S
Zn117 O127 2.039 . S
Zn117 O129 2.034 . S
O118 C102 1.251 . S
O118 Zn109 2.039 . S
C119 O124 1.246 . S
C119 O125 1.249 . S
O120 C102 1.254 . S
O120 Zn117 2.025 . S
H121 C113 0.952 . S
H122 C104 0.952 . S
H123 C112 0.948 . S
O124 Zn109 2.034 . S
O124 C119 1.246 . S
O125 Zn117 2.024 . S
O125 C119 1.249 . S
H126 C108 0.948 . S
O127 Zn117 2.039 . S
O127 C131 1.251 . S
O128 Zn109 2.025 . S
O128 C131 1.254 . S
O129 C110 1.246 . S
O129 Zn117 2.034 . S
O130 Zn109 2.024 . S
O130 C110 1.249 . S
C131 O127 1.251 . S
C131 O128 1.254 . S
H132 C105 0.949 . S
H133 C107 0.950 . S
H134 C114 0.949 . S
H135 C116 0.950 . S
C136 O152 1.251 . S
C136 O154 1.254 . S
N137 C138 1.333 . S
N137 C142 1.307 . S
N137 Zn143 2.020 . S
C138 N137 1.333 . S
C138 C139 1.379 . S
C138 H156 0.952 . S
C139 C138 1.379 . S
C139 C140 1.390 . S
C139 H166 0.949 1_554 S
C140 C139 1.390 . S
C140 C141 1.357 . S
C141 C140 1.357 . S
C141 C142 1.370 . S
C141 H167 0.950 . S
C142 N137 1.307 . S
C142 C141 1.370 . S
C142 H160 0.948 . S
Zn143 N137 2.020 . S
Zn143 O152 2.039 . S
Zn143 O158 2.034 1_554 S
Zn143 O162 2.025 . S
Zn143 O164 2.024 . S
C144 O163 1.246 . S
C144 O164 1.249 . S
N145 C146 1.307 . S
N145 C147 1.333 . S
N145 Zn151 2.020 . S
C146 N145 1.307 . S
C146 C150 1.370 . S
C146 H157 0.948 1_554 S
C147 N145 1.333 . S
C147 C148 1.379 . S
C147 H155 0.952 . S
C148 C147 1.379 . S
C148 C149 1.390 . S
C148 H168 0.949 . S
C149 C148 1.390 . S
C149 C150 1.357 . S
C150 C146 1.370 . S
C150 C149 1.357 . S
C150 H169 0.950 1_554 S
Zn151 N145 2.020 . S
Zn151 O154 2.025 . S
Zn151 O159 2.024 1_554 S
Zn151 O161 2.039 . S
Zn151 O163 2.034 . S
O152 C136 1.251 . S
O152 Zn143 2.039 . S
C153 O158 1.246 . S
C153 O159 1.249 . S
O154 C136 1.254 . S
O154 Zn151 2.025 . S
H155 C147 0.952 . S
H156 C138 0.952 . S
H157 C146 0.948 1_556 S
O158 Zn143 2.034 1_556 S
O158 C153 1.246 . S
O159 Zn151 2.024 1_556 S
O159 C153 1.249 . S
H160 C142 0.948 . S
O161 Zn151 2.039 . S
O161 C165 1.251 . S
O162 Zn143 2.025 . S
O162 C165 1.254 . S
O163 C144 1.246 . S
O163 Zn151 2.034 . S
O164 Zn143 2.024 . S
O164 C144 1.249 . S
C165 O161 1.251 . S
C165 O162 1.254 . S
H166 C139 0.949 1_556 S
H167 C141 0.950 . S
H168 C148 0.949 . S
H169 C150 0.950 1_556 S
C170 O186 1.251 . S
C170 O188 1.254 . S
N171 C172 1.333 . S
N171 C176 1.307 . S
N171 Zn177 2.020 . S
C172 N171 1.333 . S
C172 C173 1.379 . S
C172 H190 0.952 . S
C173 C172 1.379 . S
C173 C174 1.390 . S
C173 H200 0.949 . S
C174 C173 1.390 . S
C174 C175 1.357 . S
C175 C174 1.357 . S
C175 C176 1.370 . S
C175 H201 0.950 1_554 S
C176 N171 1.307 . S
C176 C175 1.370 . S
C176 H194 0.948 1_554 S
Zn177 N171 2.020 . S
Zn177 O186 2.039 . S
Zn177 O192 2.034 . S
Zn177 O196 2.025 . S
Zn177 O198 2.024 1_554 S
C178 O197 1.246 . S
C178 O198 1.249 . S
N179 C180 1.307 . S
N179 C181 1.333 . S
N179 Zn185 2.020 . S
C180 N179 1.307 . S
C180 C184 1.370 . S
C180 H191 0.948 . S
C181 N179 1.333 . S
C181 C182 1.379 . S
C181 H189 0.952 . S
C182 C181 1.379 . S
C182 C183 1.390 . S
C182 H202 0.949 1_554 S
C183 C182 1.390 . S
C183 C184 1.357 . S
C184 C180 1.370 . S
C184 C183 1.357 . S
C184 H203 0.950 . S
Zn185 N179 2.020 . S
Zn185 O188 2.025 . S
Zn185 O193 2.024 . S
Zn185 O195 2.039 . S
Zn185 O197 2.034 1_554 S
O186 C170 1.251 . S
O186 Zn177 2.039 . S
C187 O192 1.246 . S
C187 O193 1.249 . S
O188 C170 1.254 . S
O188 Zn185 2.025 . S
H189 C181 0.952 . S
H190 C172 0.952 . S
H191 C180 0.948 . S
O192 Zn177 2.034 . S
O192 C187 1.246 . S
O193 Zn185 2.024 . S
O193 C187 1.249 . S
H194 C176 0.948 1_556 S
O195 Zn185 2.039 . S
O195 C199 1.251 . S
O196 Zn177 2.025 . S
O196 C199 1.254 . S
O197 C178 1.246 . S
O197 Zn185 2.034 1_556 S
O198 Zn177 2.024 1_556 S
O198 C178 1.249 . S
C199 O195 1.251 . S
C199 O196 1.254 . S
H200 C173 0.949 . S
H201 C175 0.950 1_556 S
H202 C182 0.949 1_556 S
H203 C184 0.950 . S
C204 O220 1.251 . S
C204 O222 1.254 . S
N205 C206 1.333 . S
N205 C210 1.307 . S
N205 Zn211 2.020 . S
C206 N205 1.333 . S
C206 C207 1.379 . S
C206 H224 0.952 . S
C207 C206 1.379 . S
C207 C208 1.390 . S
C207 H234 0.949 . S
C208 C207 1.390 . S
C208 C209 1.357 . S
C209 C208 1.357 . S
C209 C210 1.370 . S
C209 H235 0.950 1_556 S
C210 N205 1.307 . S
C210 C209 1.370 . S
C210 H228 0.948 1_556 S
Zn211 N205 2.020 . S
Zn211 O220 2.039 . S
Zn211 O226 2.034 . S
Zn211 O230 2.025 . S
Zn211 O232 2.024 1_556 S
C212 O231 1.246 . S
C212 O232 1.249 . S
N213 C214 1.307 . S
N213 C215 1.333 . S
N213 Zn219 2.020 . S
C214 N213 1.307 . S
C214 C218 1.370 . S
C214 H225 0.948 . S
C215 N213 1.333 . S
C215 C216 1.379 . S
C215 H223 0.952 . S
C216 C215 1.379 . S
C216 C217 1.390 . S
C216 H236 0.949 1_556 S
C217 C216 1.390 . S
C217 C218 1.357 . S
C218 C214 1.370 . S
C218 C217 1.357 . S
C218 H237 0.950 . S
Zn219 N213 2.020 . S
Zn219 O222 2.025 . S
Zn219 O227 2.024 . S
Zn219 O229 2.039 . S
Zn219 O231 2.034 1_556 S
O220 C204 1.251 . S
O220 Zn211 2.039 . S
C221 O226 1.246 . S
C221 O227 1.249 . S
O222 C204 1.254 . S
O222 Zn219 2.025 . S
H223 C215 0.952 . S
H224 C206 0.952 . S
H225 C214 0.948 . S
O226 Zn211 2.034 . S
O226 C221 1.246 . S
O227 Zn219 2.024 . S
O227 C221 1.249 . S
H228 C210 0.948 1_554 S
O229 Zn219 2.039 . S
O229 C233 1.251 . S
O230 Zn211 2.025 . S
O230 C233 1.254 . S
O231 C212 1.246 . S
O231 Zn219 2.034 1_554 S
O232 Zn211 2.024 1_554 S
O232 C212 1.249 . S
C233 O229 1.251 . S
C233 O230 1.254 . S
H234 C207 0.949 . S
H235 C209 0.950 1_554 S
H236 C216 0.949 1_554 S
H237 C218 0.950 . S
C238 O254 1.251 . S
C238 O256 1.254 . S
N239 C240 1.333 . S
N239 C244 1.307 . S
N239 Zn245 2.020 . S
C240 N239 1.333 . S
C240 C241 1.379 . S
C240 H258 0.952 . S
C241 C240 1.379 . S
C241 C242 1.390 . S
C241 H268 0.949 . S
C242 C241 1.390 . S
C242 C243 1.357 . S
C243 C242 1.357 . S
C243 C244 1.370 . S
C243 H269 0.950 1_556 S
C244 N239 1.307 . S
C244 C243 1.370 . S
C244 H262 0.948 1_556 S
Zn245 N239 2.020 . S
Zn245 O254 2.039 . S
Zn245 O260 2.034 . S
Zn245 O264 2.025 . S
Zn245 O266 2.024 1_556 S
C246 O265 1.246 . S
C246 O266 1.249 . S
N247 C248 1.307 . S
N247 C249 1.333 . S
N247 Zn253 2.020 . S
C248 N247 1.307 . S
C248 C252 1.370 . S
C248 H259 0.948 . S
C249 N247 1.333 . S
C249 C250 1.379 . S
C249 H257 0.952 . S
C250 C249 1.379 . S
C250 C251 1.390 . S
C250 H270 0.949 1_556 S
C251 C250 1.390 . S
C251 C252 1.357 . S
C252 C248 1.370 . S
C252 C251 1.357 . S
C252 H271 0.950 . S
Zn253 N247 2.020 . S
Zn253 O256 2.025 . S
Zn253 O261 2.024 . S
Zn253 O263 2.039 . S
Zn253 O265 2.034 1_556 S
O254 C238 1.251 . S
O254 Zn245 2.039 . S
C255 O260 1.246 . S
C255 O261 1.249 . S
O256 C238 1.254 . S
O256 Zn253 2.025 . S
H257 C249 0.952 . S
H258 C240 0.952 . S
H259 C248 0.948 . S
O260 Zn245 2.034 . S
O260 C255 1.246 . S
O261 Zn253 2.024 . S
O261 C255 1.249 . S
H262 C244 0.948 1_554 S
O263 Zn253 2.039 . S
O263 C267 1.251 . S
O264 Zn245 2.025 . S
O264 C267 1.254 . S
O265 C246 1.246 . S
O265 Zn253 2.034 1_554 S
O266 Zn245 2.024 1_554 S
O266 C246 1.249 . S
C267 O263 1.251 . S
C267 O264 1.254 . S
H268 C241 0.949 . S
H269 C243 0.950 1_554 S
H270 C250 0.949 1_554 S
H271 C252 0.950 . S
C272 C273 1.369 . S
C272 C274 1.419 . S
C272 H276 0.930 . S
C273 C272 1.369 . S
C273 C282 1.429 . S
C274 C272 1.419 . S
C274 C275 1.363 . S
C274 H277 0.929 . S
C275 C274 1.363 . S
C275 C281 1.428 . S
H276 C272 0.930 . S
H277 C274 0.929 . S
S278 N279 1.613 . S
S278 N280 1.610 . S
N279 S278 1.613 . S
N279 C282 1.350 . S
N280 S278 1.610 . S
N280 C281 1.351 . S
C281 C275 1.428 . S
C281 N280 1.351 . S
C281 C282 1.434 . S
C282 C273 1.429 . S
C282 N279 1.350 . S
C282 C281 1.434 . S
C283 C284 1.369 . S
C283 C285 1.419 . S
C283 H287 0.930 . S
C284 C283 1.369 . S
C284 C293 1.429 . S
C285 C283 1.419 . S
C285 C286 1.363 . S
C285 H288 0.929 . S
C286 C285 1.363 . S
C286 C292 1.428 . S
H287 C283 0.930 . S
H288 C285 0.929 . S
S289 N290 1.613 . S
S289 N291 1.610 . S
N290 S289 1.613 . S
N290 C293 1.350 . S
N291 S289 1.610 . S
N291 C292 1.351 . S
C292 C286 1.428 . S
C292 N291 1.351 . S
C292 C293 1.434 . S
C293 C284 1.429 . S
C293 N290 1.350 . S
C293 C292 1.434 . S
C294 C295 1.369 . S
C294 C296 1.419 . S
C294 H298 0.930 . S
C295 C294 1.369 . S
C295 C304 1.429 . S
C296 C294 1.419 . S
C296 C297 1.363 . S
C296 H299 0.929 . S
C297 C296 1.363 . S
C297 C303 1.428 . S
H298 C294 0.930 . S
H299 C296 0.929 . S
S300 N301 1.613 . S
S300 N302 1.610 . S
N301 S300 1.613 . S
N301 C304 1.350 . S
N302 S300 1.610 . S
N302 C303 1.351 . S
C303 C297 1.428 . S
C303 N302 1.351 . S
C303 C304 1.434 . S
C304 C295 1.429 . S
C304 N301 1.350 . S
C304 C303 1.434 . S
C305 C306 1.369 . S
C305 C307 1.419 . S
C305 H309 0.930 . S
C306 C305 1.369 . S
C306 C315 1.429 . S
C307 C305 1.419 . S
C307 C308 1.363 . S
C307 H310 0.929 . S
C308 C307 1.363 . S
C308 C314 1.428 . S
H309 C305 0.930 . S
H310 C307 0.929 . S
S311 N312 1.613 . S
S311 N313 1.610 . S
N312 S311 1.613 . S
N312 C315 1.350 . S
N313 S311 1.610 . S
N313 C314 1.351 . S
C314 C308 1.428 . S
C314 N313 1.351 . S
C314 C315 1.434 . S
C315 C306 1.429 . S
C315 N312 1.350 . S
C315 C314 1.434 . S
C316 C317 1.369 . S
C316 C318 1.419 1_565 S
C316 H320 0.930 . S
C317 C316 1.369 . S
C317 C326 1.429 . S
C318 C316 1.419 1_545 S
C318 C319 1.363 . S
C318 H321 0.929 . S
C319 C318 1.363 . S
C319 C325 1.428 . S
H320 C316 0.930 . S
H321 C318 0.929 . S
S322 N323 1.613 1_545 S
S322 N324 1.610 . S
N323 S322 1.613 1_565 S
N323 C326 1.350 . S
N324 S322 1.610 . S
N324 C325 1.351 . S
C325 C319 1.428 . S
C325 N324 1.351 . S
C325 C326 1.434 1_545 S
C326 C317 1.429 . S
C326 N323 1.350 . S
C326 C325 1.434 1_565 S
C327 C328 1.369 . S
C327 C329 1.419 . S
C327 H331 0.930 . S
C328 C327 1.369 . S
C328 C337 1.429 . S
C329 C327 1.419 . S
C329 C330 1.363 . S
C329 H332 0.929 . S
C330 C329 1.363 . S
C330 C336 1.428 . S
H331 C327 0.930 . S
H332 C329 0.929 . S
S333 N334 1.613 . S
S333 N335 1.610 . S
N334 S333 1.613 . S
N334 C337 1.350 . S
N335 S333 1.610 . S
N335 C336 1.351 . S
C336 C330 1.428 . S
C336 N335 1.351 . S
C336 C337 1.434 . S
C337 C328 1.429 . S
C337 N334 1.350 . S
C337 C336 1.434 . S
C338 C339 1.369 . S
C338 C340 1.419 1_565 S
C338 H342 0.930 . S
C339 C338 1.369 . S
C339 C348 1.429 . S
C340 C338 1.419 1_545 S
C340 C341 1.363 . S
C340 H343 0.929 . S
C341 C340 1.363 . S
C341 C347 1.428 . S
H342 C338 0.930 . S
H343 C340 0.929 . S
S344 N345 1.613 1_545 S
S344 N346 1.610 . S
N345 S344 1.613 1_565 S
N345 C348 1.350 . S
N346 S344 1.610 . S
N346 C347 1.351 . S
C347 C341 1.428 . S
C347 N346 1.351 . S
C347 C348 1.434 1_545 S
C348 C339 1.429 . S
C348 N345 1.350 . S
C348 C347 1.434 1_565 S
C349 C350 1.369 . S
C349 C351 1.419 . S
C349 H353 0.930 . S
C350 C349 1.369 . S
C350 C359 1.429 . S
C351 C349 1.419 . S
C351 C352 1.363 . S
C351 H354 0.929 . S
C352 C351 1.363 . S
C352 C358 1.428 . S
H353 C349 0.930 . S
H354 C351 0.929 . S
S355 N356 1.613 . S
S355 N357 1.610 . S
N356 S355 1.613 . S
N356 C359 1.350 . S
N357 S355 1.610 . S
N357 C358 1.351 . S
C358 C352 1.428 . S
C358 N357 1.351 . S
C358 C359 1.434 . S
C359 C350 1.429 . S
C359 N356 1.350 . S
C359 C358 1.434 . S
C360 C361 1.369 1_556 S
C360 C362 1.419 . S
C360 H364 0.930 . S
C361 C360 1.369 1_554 S
C361 C370 1.429 . S
C362 C360 1.419 . S
C362 C363 1.363 . S
C362 H365 0.929 . S
C363 C362 1.363 . S
C363 C369 1.428 1_556 S
H364 C360 0.930 . S
H365 C362 0.929 . S
S366 N367 1.613 . S
S366 N368 1.610 . S
N367 S366 1.613 . S
N367 C370 1.350 . S
N368 S366 1.610 . S
N368 C369 1.351 . S
C369 C363 1.428 1_554 S
C369 N368 1.351 . S
C369 C370 1.434 . S
C370 C361 1.429 . S
C370 N367 1.350 . S
C370 C369 1.434 . S
C371 C372 1.369 1_556 S
C371 C373 1.419 1_565 S
C371 H375 0.930 . S
C372 C371 1.369 1_554 S
C372 C381 1.429 . S
C373 C371 1.419 1_545 S
C373 C374 1.363 . S
C373 H376 0.929 . S
C374 C373 1.363 . S
C374 C380 1.428 1_556 S
H375 C371 0.930 . S
H376 C373 0.929 . S
S377 N378 1.613 1_545 S
S377 N379 1.610 . S
N378 S377 1.613 1_565 S
N378 C381 1.350 . S
N379 S377 1.610 . S
N379 C380 1.351 . S
C380 C374 1.428 1_554 S
C380 N379 1.351 . S
C380 C381 1.434 1_545 S
C381 C372 1.429 . S
C381 N378 1.350 . S
C381 C380 1.434 1_565 S
C382 C383 1.369 . S
C382 C384 1.419 . S
C382 H386 0.930 . S
C383 C382 1.369 . S
C383 C392 1.429 1_556 S
C384 C382 1.419 . S
C384 C385 1.363 1_556 S
C384 H387 0.929 . S
C385 C384 1.363 1_554 S
C385 C391 1.428 . S
H386 C382 0.930 . S
H387 C384 0.929 . S
S388 N389 1.613 . S
S388 N390 1.610 . S
N389 S388 1.613 . S
N389 C392 1.350 . S
N390 S388 1.610 . S
N390 C391 1.351 . S
C391 C385 1.428 . S
C391 N390 1.351 . S
C391 C392 1.434 . S
C392 C383 1.429 1_554 S
C392 N389 1.350 . S
C392 C391 1.434 . S
C393 C394 1.369 1_554 S
C393 C395 1.419 1_545 S
C393 H397 0.930 . S
C394 C393 1.369 1_556 S
C394 C403 1.429 . S
C395 C393 1.419 1_565 S
C395 C396 1.363 . S
C395 H398 0.929 . S
C396 C395 1.363 . S
C396 C402 1.428 1_554 S
H397 C393 0.930 . S
H398 C395 0.929 . S
S399 N400 1.613 1_565 S
S399 N401 1.610 . S
N400 S399 1.613 1_545 S
N400 C403 1.350 . S
N401 S399 1.610 . S
N401 C402 1.351 . S
C402 C396 1.428 1_556 S
C402 N401 1.351 . S
C402 C403 1.434 1_565 S
C403 C394 1.429 . S
C403 N400 1.350 . S
C403 C402 1.434 1_545 S
C404 C405 1.369 . S
C404 C406 1.419 1_554 S
C404 H408 0.930 . S
C405 C404 1.369 . S
C405 C414 1.429 . S
C406 C404 1.419 1_556 S
C406 C407 1.363 . S
C406 H409 0.929 . S
C407 C406 1.363 . S
C407 C413 1.428 1_556 S
H408 C404 0.930 . S
H409 C406 0.929 . S
S410 N411 1.613 . S
S410 N412 1.610 1_554 S
N411 S410 1.613 . S
N411 C414 1.350 . S
N412 S410 1.610 1_556 S
N412 C413 1.351 1_556 S
C413 C407 1.428 1_554 S
C413 N412 1.351 1_554 S
C413 C414 1.434 . S
C414 C405 1.429 . S
C414 N411 1.350 . S
C414 C413 1.434 . S
C415 C416 1.369 . S
C415 C417 1.419 1_554 S
C415 H419 0.930 . S
C416 C415 1.369 . S
C416 C425 1.429 . S
C417 C415 1.419 1_556 S
C417 C418 1.363 . S
C417 H420 0.929 . S
C418 C417 1.363 . S
C418 C424 1.428 1_556 S
H419 C415 0.930 . S
H420 C417 0.929 . S
S421 N422 1.613 . S
S421 N423 1.610 1_554 S
N422 S421 1.613 . S
N422 C425 1.350 . S
N423 S421 1.610 1_556 S
N423 C424 1.351 1_556 S
C424 C418 1.428 1_554 S
C424 N423 1.351 1_554 S
C424 C425 1.434 . S
C425 C416 1.429 . S
C425 N422 1.350 . S
C425 C424 1.434 . S
C426 C427 1.368 1_556 S
C426 C428 1.420 . S
C426 H430 0.929 1_556 S
C427 C426 1.368 1_554 S
C427 C436 1.429 . S
C428 C426 1.420 . S
C428 C429 1.363 . S
C428 H431 0.929 . S
C429 C428 1.363 . S
C429 C435 1.428 . S
H430 C426 0.929 1_554 S
H431 C428 0.929 . S
S432 N433 1.613 1_556 S
S432 N434 1.610 . S
N433 S432 1.613 1_554 S
N433 C436 1.350 . S
N434 S432 1.610 . S
N434 C435 1.351 . S
C435 C429 1.428 . S
C435 N434 1.351 . S
C435 C436 1.434 1_556 S
C436 C427 1.429 . S
C436 N433 1.350 . S
C436 C435 1.434 1_554 S
C437 C438 1.369 . S
C437 C439 1.419 1_556 S
C437 H441 0.930 . S
C438 C437 1.369 . S
C438 C447 1.429 . S
C439 C437 1.419 1_554 S
C439 C440 1.363 . S
C439 H442 0.929 . S
C440 C439 1.363 . S
C440 C446 1.428 1_554 S
H441 C437 0.930 . S
H442 C439 0.929 . S
S443 N444 1.613 . S
S443 N445 1.610 1_556 S
N444 S443 1.613 . S
N444 C447 1.350 . S
N445 S443 1.610 1_554 S
N445 C446 1.351 1_554 S
C446 C440 1.428 1_556 S
C446 N445 1.351 1_556 S
C446 C447 1.434 . S
C447 C438 1.429 . S
C447 N444 1.350 . S
C447 C446 1.434 . S
C448 C449 1.369 . S
C448 C450 1.419 . S
C448 H452 0.930 . S
C449 C448 1.369 . S
C449 C458 1.429 . S
C450 C448 1.419 . S
C450 C451 1.363 . S
C450 H453 0.929 . S
C451 C450 1.363 . S
C451 C457 1.428 . S
H452 C448 0.930 . S
H453 C450 0.929 . S
S454 N455 1.613 . S
S454 N456 1.610 . S
N455 S454 1.613 . S
N455 C458 1.350 . S
N456 S454 1.610 . S
N456 C457 1.351 . S
C457 C451 1.428 . S
C457 N456 1.351 . S
C457 C458 1.434 . S
C458 C449 1.429 . S
C458 N455 1.350 . S
C458 C457 1.434 . S
C459 C460 1.369 . S
C459 C461 1.419 . S
C459 H463 0.930 . S
C460 C459 1.369 . S
C460 C469 1.429 . S
C461 C459 1.419 . S
C461 C462 1.363 . S
C461 H464 0.929 . S
C462 C461 1.363 . S
C462 C468 1.428 . S
H463 C459 0.930 . S
H464 C461 0.929 . S
S465 N466 1.613 . S
S465 N467 1.610 . S
N466 S465 1.613 . S
N466 C469 1.350 . S
N467 S465 1.610 . S
N467 C468 1.351 . S
C468 C462 1.428 . S
C468 N467 1.351 . S
C468 C469 1.434 . S
C469 C460 1.429 . S
C469 N466 1.350 . S
C469 C468 1.434 . S
C470 C471 1.369 . S
C470 C472 1.419 . S
C470 H474 0.930 . S
C471 C470 1.369 . S
C471 C480 1.429 . S
C472 C470 1.419 . S
C472 C473 1.363 . S
C472 H475 0.929 . S
C473 C472 1.363 . S
C473 C479 1.428 . S
H474 C470 0.930 . S
H475 C472 0.929 . S
S476 N477 1.613 . S
S476 N478 1.610 . S
N477 S476 1.613 . S
N477 C480 1.350 . S
N478 S476 1.610 . S
N478 C479 1.351 . S
C479 C473 1.428 . S
C479 N478 1.351 . S
C479 C480 1.434 . S
C480 C471 1.429 . S
C480 N477 1.350 . S
C480 C479 1.434 . S
C481 C482 1.369 . S
C481 C483 1.419 . S
C481 H485 0.930 . S
C482 C481 1.369 . S
C482 C491 1.429 . S
C483 C481 1.419 . S
C483 C484 1.363 . S
C483 H486 0.929 . S
C484 C483 1.363 . S
C484 C490 1.428 . S
H485 C481 0.930 . S
H486 C483 0.929 . S
S487 N488 1.613 . S
S487 N489 1.610 . S
N488 S487 1.613 . S
N488 C491 1.350 . S
N489 S487 1.610 . S
N489 C490 1.351 . S
C490 C484 1.428 . S
C490 N489 1.351 . S
C490 C491 1.434 . S
C491 C482 1.429 . S
C491 N488 1.350 . S
C491 C490 1.434 . S
C492 C493 1.369 . S
C492 C494 1.419 1_455 S
C492 H496 0.930 . S
C493 C492 1.369 . S
C493 C502 1.429 . S
C494 C492 1.419 1_655 S
C494 C495 1.363 . S
C494 H497 0.929 . S
C495 C494 1.363 . S
C495 C501 1.428 . S
H496 C492 0.930 . S
H497 C494 0.929 . S
S498 N499 1.615 1_655 S
S498 N500 1.609 . S
N499 S498 1.615 1_455 S
N499 C502 1.350 . S
N500 S498 1.609 . S
N500 C501 1.351 . S
C501 C495 1.428 . S
C501 N500 1.351 . S
C501 C502 1.434 1_655 S
C502 C493 1.429 . S
C502 N499 1.350 . S
C502 C501 1.434 1_455 S
C503 C504 1.369 . S
C503 C505 1.419 1_655 S
C503 H507 0.930 . S
C504 C503 1.369 . S
C504 C513 1.429 . S
C505 C503 1.419 1_455 S
C505 C506 1.363 . S
C505 H508 0.929 . S
C506 C505 1.363 . S
C506 C512 1.428 . S
H507 C503 0.930 . S
H508 C505 0.929 . S
S509 N510 1.628 . S
S509 N511 1.596 1_655 S
N510 S509 1.628 . S
N510 C513 1.350 . S
N511 S509 1.596 1_455 S
N511 C512 1.351 . S
C512 C506 1.428 . S
C512 N511 1.351 . S
C512 C513 1.434 1_455 S
C513 C504 1.429 . S
C513 N510 1.350 . S
C513 C512 1.434 1_655 S
C514 C515 1.369 . S
C514 C516 1.419 . S
C514 H518 0.930 . S
C515 C514 1.369 . S
C515 C524 1.429 . S
C516 C514 1.419 . S
C516 C517 1.363 . S
C516 H519 0.929 . S
C517 C516 1.363 . S
C517 C523 1.428 . S
H518 C514 0.930 . S
H519 C516 0.929 . S
S520 N521 1.613 . S
S520 N522 1.610 . S
N521 S520 1.613 . S
N521 C524 1.350 . S
N522 S520 1.610 . S
N522 C523 1.351 . S
C523 C517 1.428 . S
C523 N522 1.351 . S
C523 C524 1.434 . S
C524 C515 1.429 . S
C524 N521 1.350 . S
C524 C523 1.434 . S
C525 C526 1.369 1_554 S
C525 C527 1.419 . S
C525 H529 0.930 . S
C526 C525 1.369 1_556 S
C526 C535 1.429 . S
C527 C525 1.419 . S
C527 C528 1.363 1_554 S
C527 H530 0.929 . S
C528 C527 1.363 1_556 S
C528 C534 1.428 . S
H529 C525 0.930 . S
H530 C527 0.929 . S
S531 N532 1.613 . S
S531 N533 1.610 . S
N532 S531 1.613 . S
N532 C535 1.350 . S
N533 S531 1.610 . S
N533 C534 1.351 . S
C534 C528 1.428 . S
C534 N533 1.351 . S
C534 C535 1.434 . S
C535 C526 1.429 . S
C535 N532 1.350 . S
C535 C534 1.434 . S
C273 C0 1.706 . S
C275 C267 1.699 . S
C284 C233 1.708 . S
C286 C63 1.701 . S
C295 C199 1.702 . S
C297 C97 1.706 . S
C306 C136 1.705 . S
C308 C131 1.700 . S
C317 C72 1.655 . S
C319 C4 1.647 . S
C328 C38 1.584 . S
C330 C106 1.593 . S
C339 C115 1.578 . S
C341 C47 1.568 . S
C350 C81 1.498 . S
C352 C13 1.505 . S
C361 C140 1.651 . S
C363 C208 1.651 . S
C372 C174 1.587 . S
C374 C242 1.591 . S
C383 C251 1.575 . S
C385 C183 1.571 . S
C394 C217 1.503 . S
C396 C149 1.502 . S
C405 C17 1.271 . S
C407 C8 1.271 . S
C416 C42 1.270 . S
C418 C51 1.271 . S
C427 C85 1.272 . S
C429 C76 1.270 . S
C438 C110 1.270 . S
C440 C119 1.271 . S
C449 C144 1.271 . S
C451 C153 1.270 . S
C460 C178 1.270 . S
C462 C187 1.271 . S
C471 C212 1.272 . S
C473 C221 1.270 . S
C482 C246 1.270 . S
C484 C255 1.271 . S
C493 C29 1.581 . S
C495 C34 1.580 . S
C504 C102 1.582 . S
C506 C68 1.581 . S
C515 C165 1.582 . S
C517 C170 1.582 . S
C526 C238 1.579 . S
C528 C204 1.579 . S
