# Generated by pormake.
# Topology yfj, (5)-cn, num edge types: 1
# Building blocks:
#     Node 0, Type 0, BuildingBlock: XOMCOT_clean_sbu_0, # of connection points: 5
#     Node 1, Type 0, BuildingBlock: XOMCOT_clean_sbu_0, # of connection points: 5
#     Node 2, Type 0, BuildingBlock: XOMCOT_clean_sbu_0, # of connection points: 5
#     Node 3, Type 0, BuildingBlock: XOMCOT_clean_sbu_0, # of connection points: 5
#     Node 4, Type 0, BuildingBlock: XOMCOT_clean_sbu_0, # of connection points: 5
#     Node 5, Type 0, BuildingBlock: XOMCOT_clean_sbu_0, # of connection points: 5
#     Node 6, Type 0, BuildingBlock: XOMCOT_clean_sbu_0, # of connection points: 5
#     Node 7, Type 0, BuildingBlock: XOMCOT_clean_sbu_0, # of connection points: 5
#     Node 8, Type 0, BuildingBlock: XOMCOT_clean_sbu_0, # of connection points: 5
#     Node 9, Type 0, BuildingBlock: XOMCOT_clean_sbu_0, # of connection points: 5
#     Node 10, Type 0, BuildingBlock: XOMCOT_clean_sbu_0, # of connection points: 5
#     Node 11, Type 0, BuildingBlock: XOMCOT_clean_sbu_0, # of connection points: 5
#     Node 12, Type 0, BuildingBlock: XOMCOT_clean_sbu_0, # of connection points: 5
#     Node 13, Type 0, BuildingBlock: XOMCOT_clean_sbu_0, # of connection points: 5
#     Node 14, Type 0, BuildingBlock: XOMCOT_clean_sbu_0, # of connection points: 5
#     Node 15, Type 0, BuildingBlock: XOMCOT_clean_sbu_0, # of connection points: 5
#     Edge 16, Type (0, 0), BuildingBlock: UVAHIK_clean_linker_0, # of connection points: 2
#     Edge 17, Type (0, 0), BuildingBlock: UVAHIK_clean_linker_0, # of connection points: 2
#     Edge 18, Type (0, 0), BuildingBlock: UVAHIK_clean_linker_0, # of connection points: 2
#     Edge 19, Type (0, 0), BuildingBlock: UVAHIK_clean_linker_0, # of connection points: 2
#     Edge 20, Type (0, 0), BuildingBlock: UVAHIK_clean_linker_0, # of connection points: 2
#     Edge 21, Type (0, 0), BuildingBlock: UVAHIK_clean_linker_0, # of connection points: 2
#     Edge 22, Type (0, 0), BuildingBlock: UVAHIK_clean_linker_0, # of connection points: 2
#     Edge 23, Type (0, 0), BuildingBlock: UVAHIK_clean_linker_0, # of connection points: 2
#     Edge 24, Type (0, 0), BuildingBlock: UVAHIK_clean_linker_0, # of connection points: 2
#     Edge 25, Type (0, 0), BuildingBlock: UVAHIK_clean_linker_0, # of connection points: 2
#     Edge 26, Type (0, 0), BuildingBlock: UVAHIK_clean_linker_0, # of connection points: 2
#     Edge 27, Type (0, 0), BuildingBlock: UVAHIK_clean_linker_0, # of connection points: 2
#     Edge 28, Type (0, 0), BuildingBlock: UVAHIK_clean_linker_0, # of connection points: 2
#     Edge 29, Type (0, 0), BuildingBlock: UVAHIK_clean_linker_0, # of connection points: 2
#     Edge 30, Type (0, 0), BuildingBlock: UVAHIK_clean_linker_0, # of connection points: 2
#     Edge 31, Type (0, 0), BuildingBlock: UVAHIK_clean_linker_0, # of connection points: 2
#     Edge 32, Type (0, 0), BuildingBlock: UVAHIK_clean_linker_0, # of connection points: 2
#     Edge 33, Type (0, 0), BuildingBlock: UVAHIK_clean_linker_0, # of connection points: 2
#     Edge 34, Type (0, 0), BuildingBlock: UVAHIK_clean_linker_0, # of connection points: 2
#     Edge 35, Type (0, 0), BuildingBlock: UVAHIK_clean_linker_0, # of connection points: 2
#     Edge 36, Type (0, 0), BuildingBlock: UVAHIK_clean_linker_0, # of connection points: 2
#     Edge 37, Type (0, 0), BuildingBlock: UVAHIK_clean_linker_0, # of connection points: 2
#     Edge 38, Type (0, 0), BuildingBlock: UVAHIK_clean_linker_0, # of connection points: 2
#     Edge 39, Type (0, 0), BuildingBlock: UVAHIK_clean_linker_0, # of connection points: 2
#     Edge 40, Type (0, 0), BuildingBlock: UVAHIK_clean_linker_0, # of connection points: 2
#     Edge 41, Type (0, 0), BuildingBlock: UVAHIK_clean_linker_0, # of connection points: 2
#     Edge 42, Type (0, 0), BuildingBlock: UVAHIK_clean_linker_0, # of connection points: 2
#     Edge 43, Type (0, 0), BuildingBlock: UVAHIK_clean_linker_0, # of connection points: 2
#     Edge 44, Type (0, 0), BuildingBlock: UVAHIK_clean_linker_0, # of connection points: 2
#     Edge 45, Type (0, 0), BuildingBlock: UVAHIK_clean_linker_0, # of connection points: 2
#     Edge 46, Type (0, 0), BuildingBlock: UVAHIK_clean_linker_0, # of connection points: 2
#     Edge 47, Type (0, 0), BuildingBlock: UVAHIK_clean_linker_0, # of connection points: 2
#     Edge 48, Type (0, 0), BuildingBlock: UVAHIK_clean_linker_0, # of connection points: 2
#     Edge 49, Type (0, 0), BuildingBlock: UVAHIK_clean_linker_0, # of connection points: 2
#     Edge 50, Type (0, 0), BuildingBlock: UVAHIK_clean_linker_0, # of connection points: 2
#     Edge 51, Type (0, 0), BuildingBlock: UVAHIK_clean_linker_0, # of connection points: 2
#     Edge 52, Type (0, 0), BuildingBlock: UVAHIK_clean_linker_0, # of connection points: 2
#     Edge 53, Type (0, 0), BuildingBlock: UVAHIK_clean_linker_0, # of connection points: 2
#     Edge 54, Type (0, 0), BuildingBlock: UVAHIK_clean_linker_0, # of connection points: 2
#     Edge 55, Type (0, 0), BuildingBlock: UVAHIK_clean_linker_0, # of connection points: 2
# Relax obj value: 0.404
# Max RMSD: 0.236
# Mean RMSD: 0.236
data_MOF--net-yfj--node1-XOMCOT_clean_sbu_0--edge1-UVAHIK_clean_linker_0
_symmetry_space_group_name_H-M    P1
_symmetry_Int_Tables_number       1
_symmetry_cell_setting            triclinic
loop_
_symmetry_equiv_pos_as_xyz
'x, y, z'
_cell_length_a     59.986425
_cell_length_b     59.961118
_cell_length_c     60.147927
_cell_angle_alpha  90.060864
_cell_angle_beta   90.062508
_cell_angle_gamma 90.060362
loop_
_atom_site_label
_atom_site_type_symbol
_atom_site_fract_x
_atom_site_fract_y
_atom_site_fract_z
_atom_type_partial_charge
Co0 Co 0.13647 0.14725 0.32234 0.0
C1 C 0.15361 0.15433 0.27661 0.0
C2 C 0.15215 0.18512 0.29443 0.0
C3 C 0.16392 0.18843 0.27497 0.0
N4 N 0.14552 0.16364 0.29555 0.0
N5 N 0.16512 0.16892 0.26382 0.0
H6 H 0.15256 0.13675 0.27301 0.0
H7 H 0.1506 0.19719 0.30766 0.0
C8 C 0.1183 0.19257 0.33906 0.0
O9 O 0.10332 0.19472 0.32327 0.0
N10 N 0.1285 0.13078 0.34883 0.0
C11 C 0.1174 0.11125 0.34973 0.0
C12 C 0.11408 0.10574 0.37171 0.0
C13 C 0.13232 0.13662 0.37018 0.0
N14 N 0.12351 0.12167 0.38447 0.0
C15 C 0.10258 0.13343 0.29233 0.0
C16 C 0.06776 0.1371 0.32208 0.0
C17 C 0.065 0.12356 0.30317 0.0
C18 C 0.08238 0.1229 0.28763 0.0
C19 C 0.08835 0.14738 0.32617 0.0
N20 N 0.10583 0.14449 0.31189 0.0
H21 H 0.1163 0.13042 0.28126 0.0
H22 H 0.0909 0.15549 0.34203 0.0
H23 H 0.1117 0.10194 0.3354 0.0
H24 H 0.14089 0.15171 0.37517 0.0
O25 O 0.14827 0.11991 0.30972 0.0
O26 O 0.16717 0.14453 0.33017 0.0
O27 O 0.13124 0.17571 0.33955 0.0
C28 C 0.16692 0.12599 0.31899 0.0
H29 H 0.17256 0.20361 0.27048 0.0
H30 H 0.10545 0.09113 0.37786 0.0
H31 H 0.05471 0.13846 0.33443 0.0
H32 H 0.08134 0.11254 0.27292 0.0
Co33 Co 0.87058 0.63428 0.58915 0.0
C34 C 0.8681 0.6644 0.54942 0.0
C35 C 0.84023 0.64206 0.55136 0.0
C36 C 0.83812 0.65476 0.53239 0.0
N37 N 0.85894 0.64814 0.56218 0.0
N38 N 0.85566 0.66882 0.5311 0.0
H39 H 0.88362 0.67273 0.55327 0.0
H40 H 0.8291 0.62885 0.55651 0.0
C41 C 0.83195 0.61156 0.61302 0.0
O42 O 0.84553 0.59728 0.62249 0.0
N43 N 0.88267 0.62102 0.61609 0.0
C44 C 0.89895 0.60561 0.61803 0.0
C45 C 0.9032 0.6021 0.6403 0.0
C46 C 0.8781 0.62745 0.63715 0.0
N47 N 0.8901 0.6159 0.65219 0.0
C48 C 0.89395 0.61073 0.5561 0.0
C49 C 0.88425 0.56814 0.57045 0.0
C50 C 0.90293 0.57152 0.5568 0.0
C51 C 0.90671 0.59293 0.54839 0.0
C52 C 0.87153 0.58649 0.57738 0.0
N53 N 0.87784 0.60767 0.57183 0.0
H54 H 0.89853 0.62736 0.55096 0.0
H55 H 0.85792 0.58355 0.58845 0.0
H56 H 0.90757 0.59778 0.60434 0.0
H57 H 0.86583 0.63997 0.6414 0.0
O58 O 0.89887 0.64934 0.58585 0.0
O59 O 0.86971 0.6625 0.60432 0.0
O60 O 0.83895 0.62468 0.59762 0.0
C61 C 0.89055 0.66468 0.59868 0.0
H62 H 0.82501 0.6532 0.52012 0.0
H63 H 0.91534 0.5907 0.64721 0.0
H64 H 0.88036 0.55169 0.57679 0.0
H65 H 0.92078 0.59634 0.53763 0.0
Co66 Co 0.38164 0.36011 0.82066 0.0
C67 C 0.35403 0.35719 0.77957 0.0
C68 C 0.37722 0.33013 0.78147 0.0
C69 C 0.36518 0.32823 0.76193 0.0
N70 N 0.37011 0.34825 0.79265 0.0
N71 N 0.35057 0.34533 0.76072 0.0
H72 H 0.34493 0.37214 0.78369 0.0
H73 H 0.3905 0.31922 0.78688 0.0
C74 C 0.40767 0.3243 0.84461 0.0
O75 O 0.42151 0.33922 0.85272 0.0
N76 N 0.39257 0.37274 0.84836 0.0
C77 C 0.40644 0.39028 0.85081 0.0
C78 C 0.40936 0.39435 0.87314 0.0
C79 C 0.38662 0.3669 0.86924 0.0
N80 N 0.39698 0.3796 0.88471 0.0
C81 C 0.4046 0.38897 0.79155 0.0
C82 C 0.44758 0.37517 0.80021 0.0
C83 C 0.44428 0.3955 0.78907 0.0
C84 C 0.4224 0.40168 0.78382 0.0
C85 C 0.42912 0.36277 0.80752 0.0
N86 N 0.40797 0.37074 0.80471 0.0
H87 H 0.38796 0.39467 0.78789 0.0
H88 H 0.43212 0.34722 0.81575 0.0
H89 H 0.41381 0.3997 0.83739 0.0
H90 H 0.37549 0.35321 0.87301 0.0
O91 O 0.36344 0.38655 0.81764 0.0
O92 O 0.35309 0.35512 0.83419 0.0
O93 O 0.39414 0.32954 0.82888 0.0
C94 C 0.34822 0.37535 0.82819 0.0
H95 H 0.36745 0.31548 0.7494 0.0
H96 H 0.41957 0.40742 0.88028 0.0
H97 H 0.46423 0.36918 0.80376 0.0
H98 H 0.41882 0.41703 0.77506 0.0
Co99 Co 0.6395 0.87678 0.08936 0.0
C100 C 0.64387 0.85069 0.04722 0.0
C101 C 0.67199 0.87217 0.05227 0.0
C102 C 0.67489 0.86067 0.03258 0.0
N103 N 0.65255 0.86586 0.06159 0.0
N104 N 0.65715 0.8472 0.02939 0.0
H105 H 0.62814 0.84226 0.04963 0.0
H106 H 0.68322 0.88452 0.05898 0.0
C107 C 0.68537 0.89667 0.10328 0.0
O108 O 0.68399 0.91477 0.09111 0.0
N109 N 0.62646 0.88688 0.11708 0.0
C110 C 0.60603 0.89568 0.1198 0.0
C111 C 0.60244 0.899 0.14213 0.0
C112 C 0.63492 0.88467 0.13774 0.0
N113 N 0.62063 0.89208 0.15353 0.0
C114 C 0.62472 0.9077 0.05719 0.0
C115 C 0.62404 0.94389 0.08562 0.0
C116 C 0.61004 0.944 0.06689 0.0
C117 C 0.61173 0.92623 0.05182 0.0
C118 C 0.63695 0.92502 0.09031 0.0
N119 N 0.63591 0.90658 0.07694 0.0
H120 H 0.62329 0.89311 0.04675 0.0
H121 H 0.6454 0.92426 0.10618 0.0
H122 H 0.59444 0.8992 0.10647 0.0
H123 H 0.65108 0.87743 0.141 0.0
O124 O 0.61055 0.86529 0.08088 0.0
O125 O 0.63647 0.84687 0.09995 0.0
O126 O 0.67011 0.88181 0.10259 0.0
C127 C 0.61627 0.84758 0.09202 0.0
H128 H 0.68878 0.86251 0.02125 0.0
H129 H 0.5873 0.90566 0.14921 0.0
H130 H 0.6236 0.95743 0.09754 0.0
H131 H 0.60122 0.92542 0.03719 0.0
Co132 Co 0.11601 0.36086 0.94532 0.0
C133 C 0.14811 0.35837 0.98316 0.0
C134 C 0.12443 0.33154 0.98341 0.0
C135 C 0.13793 0.32971 1.00191 0.0
N136 N 0.13083 0.34947 0.97164 0.0
N137 N 0.15286 0.34663 1.00184 0.0
H138 H 0.15689 0.37326 0.9781 0.0
H139 H 0.11051 0.32088 0.97915 0.0
C140 C 0.11832 0.31735 0.92352 0.0
O141 O 0.09912 0.31545 0.93386 0.0
N142 N 0.10148 0.37291 0.91894 0.0
C143 C 0.09528 0.39438 0.91641 0.0
C144 C 0.08995 0.39815 0.89454 0.0
C145 C 0.10007 0.36402 0.89826 0.0
N146 N 0.09313 0.37911 0.88304 0.0
C147 C 0.1063 0.39782 0.97438 0.0
C148 C 0.06065 0.3941 0.96868 0.0
C149 C 0.06948 0.41411 0.97713 0.0
C150 C 0.0925 0.4153 0.9812 0.0
C151 C 0.07504 0.37694 0.96226 0.0
N152 N 0.09753 0.3797 0.96376 0.0
H153 H 0.12412 0.39977 0.97595 0.0
H154 H 0.06838 0.36238 0.95394 0.0
H155 H 0.09606 0.40701 0.9292 0.0
H156 H 0.10503 0.34727 0.89408 0.0
O157 O 0.13952 0.38402 0.94116 0.0
O158 O 0.14215 0.352 0.92632 0.0
O159 O 0.12979 0.33549 0.92641 0.0
C160 C 0.15081 0.37155 0.92857 0.0
H161 H 0.1363 0.31722 0.01477 0.0
H162 H 0.08572 0.41417 0.88743 0.0
H163 H 0.04293 0.39231 0.96569 0.0
H164 H 0.10002 0.43035 0.98779 0.0
Co165 Co 0.63117 0.63913 0.18828 0.0
C166 C 0.63303 0.66902 0.22837 0.0
C167 C 0.6623 0.64875 0.22514 0.0
C168 C 0.66447 0.66181 0.24387 0.0
N169 N 0.64268 0.65335 0.21521 0.0
N170 N 0.64607 0.67453 0.24596 0.0
H171 H 0.61685 0.67631 0.22523 0.0
H172 H 0.67419 0.63648 0.21947 0.0
C173 C 0.67068 0.6174 0.16459 0.0
O174 O 0.65771 0.6031 0.15429 0.0
N175 N 0.61911 0.62549 0.16146 0.0
C176 C 0.60156 0.61148 0.16006 0.0
C177 C 0.59647 0.60807 0.13801 0.0
C178 C 0.62372 0.63121 0.14021 0.0
N179 N 0.61045 0.62045 0.12552 0.0
C180 C 0.60808 0.61519 0.22126 0.0
C181 C 0.61693 0.57305 0.20507 0.0
C182 C 0.59809 0.57624 0.21855 0.0
C183 C 0.59477 0.59734 0.22797 0.0
C184 C 0.63011 0.59141 0.19907 0.0
N185 N 0.62422 0.61244 0.20551 0.0
H186 H 0.60369 0.63171 0.2269 0.0
H187 H 0.64354 0.58875 0.18769 0.0
H188 H 0.5924 0.60489 0.17406 0.0
H189 H 0.63667 0.64293 0.13567 0.0
O190 O 0.60272 0.65392 0.19157 0.0
O191 O 0.6318 0.66716 0.17296 0.0
O192 O 0.66294 0.63 0.18004 0.0
C193 C 0.61098 0.66922 0.17866 0.0
H194 H 0.67835 0.66156 0.25539 0.0
H195 H 0.58292 0.59792 0.13172 0.0
H196 H 0.6205 0.55684 0.19797 0.0
H197 H 0.5806 0.60062 0.23862 0.0
Co198 Co 0.39087 0.15092 0.44393 0.0
C199 C 0.36288 0.1471 0.48462 0.0
C200 C 0.37944 0.17876 0.48215 0.0
C201 C 0.36649 0.1787 0.50105 0.0
N202 N 0.3771 0.15902 0.47184 0.0
N203 N 0.356 0.15878 0.50272 0.0
H204 H 0.35773 0.13027 0.48066 0.0
H205 H 0.38958 0.19239 0.47613 0.0
C206 C 0.39563 0.19591 0.42444 0.0
O207 O 0.41647 0.19308 0.43055 0.0
N208 N 0.40527 0.1433 0.41611 0.0
C209 C 0.42742 0.14083 0.41344 0.0
C210 C 0.43193 0.13813 0.39114 0.0
C211 C 0.39662 0.14217 0.39538 0.0
N212 N 0.41252 0.13904 0.37982 0.0
C213 C 0.40145 0.10507 0.44962 0.0
C214 C 0.43646 0.1113 0.47898 0.0
C215 C 0.4329 0.09012 0.46962 0.0
C216 C 0.41475 0.08704 0.45537 0.0
C217 C 0.4226 0.12916 0.47269 0.0
N218 N 0.40571 0.12588 0.45782 0.0
H219 H 0.38876 0.10243 0.43718 0.0
H220 H 0.42611 0.1458 0.4787 0.0
H221 H 0.43953 0.1416 0.42675 0.0
H222 H 0.37929 0.14463 0.39147 0.0
O223 O 0.36398 0.13276 0.43612 0.0
O224 O 0.36594 0.16677 0.42761 0.0
O225 O 0.38113 0.18061 0.42935 0.0
C226 C 0.35419 0.14885 0.42693 0.0
H227 H 0.36462 0.19262 0.51234 0.0
H228 H 0.44826 0.13595 0.38385 0.0
H229 H 0.45049 0.11428 0.48994 0.0
H230 H 0.41152 0.07094 0.4478 0.0
Co231 Co 0.88245 0.87112 0.69125 0.0
C232 C 0.87783 0.84503 0.73332 0.0
C233 C 0.8478 0.86282 0.72587 0.0
C234 C 0.84467 0.85091 0.74522 0.0
N235 N 0.86859 0.85909 0.7182 0.0
N236 N 0.86359 0.83975 0.74992 0.0
H237 H 0.89457 0.83853 0.73224 0.0
H238 H 0.83558 0.87347 0.71822 0.0
C239 C 0.83572 0.88818 0.67627 0.0
O240 O 0.83493 0.90526 0.68993 0.0
N241 N 0.89658 0.88241 0.66458 0.0
C242 C 0.91651 0.89272 0.66357 0.0
C243 C 0.92159 0.89669 0.64167 0.0
C244 C 0.88992 0.87992 0.64329 0.0
N245 N 0.90488 0.88865 0.62888 0.0
C246 C 0.89513 0.90248 0.72387 0.0
C247 C 0.89409 0.93856 0.69537 0.0
C248 C 0.90859 0.93914 0.71372 0.0
C249 C 0.90764 0.92148 0.72895 0.0
C250 C 0.88171 0.91925 0.69096 0.0
N251 N 0.88386 0.90085 0.7042 0.0
H252 H 0.89718 0.88796 0.73427 0.0
H253 H 0.87316 0.91805 0.67518 0.0
H254 H 0.92678 0.89678 0.67781 0.0
H255 H 0.87459 0.8717 0.6385 0.0
O256 O 0.91148 0.86074 0.70102 0.0
O257 O 0.88731 0.84162 0.68028 0.0
O258 O 0.85237 0.8749 0.67639 0.0
C259 C 0.90695 0.84299 0.68937 0.0
H260 H 0.82969 0.85075 0.75522 0.0
H261 H 0.93679 0.9043 0.63566 0.0
H262 H 0.89393 0.95202 0.68338 0.0
H263 H 0.91848 0.9211 0.74335 0.0
Co264 Co 0.62018 0.65127 0.82603 0.0
C265 C 0.65242 0.65076 0.78821 0.0
C266 C 0.63127 0.67963 0.78839 0.0
C267 C 0.64494 0.68067 0.77005 0.0
N268 N 0.63598 0.66097 0.79978 0.0
N269 N 0.65833 0.66253 0.76985 0.0
H270 H 0.65982 0.63509 0.79311 0.0
H271 H 0.61846 0.69146 0.79294 0.0
C272 C 0.614 0.69583 0.84689 0.0
O273 O 0.59382 0.6939 0.83862 0.0
N274 N 0.60358 0.64217 0.85219 0.0
C275 C 0.58144 0.64483 0.85476 0.0
C276 C 0.57591 0.64088 0.87659 0.0
C277 C 0.61119 0.63663 0.87264 0.0
N278 N 0.59469 0.63592 0.8879 0.0
C279 C 0.61748 0.60733 0.80651 0.0
C280 C 0.57292 0.61059 0.79513 0.0
C281 C 0.58328 0.58961 0.79453 0.0
C282 C 0.6061 0.58838 0.79932 0.0
C283 C 0.58502 0.62927 0.80242 0.0
N284 N 0.60661 0.62716 0.8092 0.0
H285 H 0.63484 0.60555 0.81069 0.0
H286 H 0.57675 0.64522 0.8039 0.0
H287 H 0.57019 0.6507 0.84202 0.0
H288 H 0.62853 0.63453 0.87678 0.0
O289 O 0.64635 0.63287 0.83554 0.0
O290 O 0.64342 0.66647 0.84525 0.0
O291 O 0.62852 0.68029 0.84287 0.0
C292 C 0.65522 0.64863 0.84618 0.0
H293 H 0.64454 0.6936 0.75754 0.0
H294 H 0.55942 0.64244 0.88369 0.0
H295 H 0.55536 0.61234 0.79129 0.0
H296 H 0.61494 0.57267 0.79832 0.0
Co297 Co 0.37538 0.13677 0.07882 0.0
C298 C 0.37217 0.16363 0.03709 0.0
C299 C 0.34536 0.14016 0.03992 0.0
C300 C 0.34339 0.1512 0.01988 0.0
N301 N 0.36338 0.14799 0.0508 0.0
N302 N 0.36033 0.16595 0.01804 0.0
H303 H 0.38711 0.17297 0.04077 0.0
H304 H 0.33473 0.12684 0.04581 0.0
C305 C 0.33664 0.11738 0.10545 0.0
O306 O 0.35015 0.10395 0.11616 0.0
N307 N 0.3881 0.12606 0.10657 0.0
C308 C 0.40532 0.11178 0.10877 0.0
C309 C 0.41059 0.10988 0.13093 0.0
C310 C 0.38394 0.13354 0.12739 0.0
N311 N 0.39707 0.12346 0.14264 0.0
C312 C 0.39727 0.10938 0.04787 0.0
C313 C 0.38831 0.06891 0.0677 0.0
C314 C 0.40685 0.07068 0.05355 0.0
C315 C 0.41018 0.09087 0.04236 0.0
C316 C 0.37556 0.08791 0.07253 0.0
N317 N 0.38158 0.10826 0.06427 0.0
H318 H 0.40159 0.12524 0.04057 0.0
H319 H 0.36217 0.08629 0.08411 0.0
H320 H 0.41394 0.10372 0.0952 0.0
H321 H 0.37119 0.14568 0.13128 0.0
O322 O 0.40394 0.15047 0.07313 0.0
O323 O 0.37559 0.1666 0.09069 0.0
O324 O 0.34368 0.12902 0.08894 0.0
C325 C 0.39613 0.16762 0.08378 0.0
H326 H 0.33083 0.14801 1.00735 0.0
H327 H 0.42375 0.09966 0.13784 0.0
H328 H 0.38455 0.05336 0.07605 0.0
H329 H 0.42405 0.09311 0.03107 0.0
Co330 Co 0.88967 0.86539 0.3285 0.0
C331 C 0.85957 0.86717 0.28927 0.0
C332 C 0.87651 0.83574 0.29208 0.0
C333 C 0.86246 0.83491 0.27394 0.0
N334 N 0.87457 0.85587 0.30173 0.0
N335 N 0.85177 0.85466 0.27217 0.0
H336 H 0.85409 0.88396 0.29297 0.0
H337 H 0.88723 0.8225 0.29797 0.0
C338 C 0.89903 0.82152 0.34975 0.0
O339 O 0.91954 0.82596 0.34349 0.0
N340 N 0.90529 0.87475 0.35515 0.0
C341 C 0.92701 0.88041 0.35634 0.0
C342 C 0.93252 0.88435 0.37825 0.0
C343 C 0.898 0.87504 0.37638 0.0
N344 N 0.91425 0.88083 0.39079 0.0
C345 C 0.895 0.91191 0.31955 0.0
C346 C 0.93229 0.90734 0.29291 0.0
C347 C 0.92639 0.92858 0.30083 0.0
C348 C 0.90699 0.93076 0.31348 0.0
C349 C 0.91964 0.88867 0.29937 0.0
N350 N 0.90175 0.89112 0.31315 0.0
H351 H 0.88133 0.9142 0.3309 0.0
H352 H 0.92508 0.87211 0.29475 0.0
H353 H 0.93826 0.88105 0.34233 0.0
H354 H 0.88133 0.87086 0.38145 0.0
O355 O 0.86206 0.88153 0.33809 0.0
O356 O 0.86718 0.84792 0.34656 0.0
O357 O 0.88321 0.83529 0.34431 0.0
C358 C 0.8542 0.86488 0.3481 0.0
H359 H 0.86037 0.82084 0.26284 0.0
H360 H 0.94889 0.88867 0.38452 0.0
H361 H 0.94728 0.90504 0.28316 0.0
H362 H 0.90184 0.94689 0.31978 0.0
Co363 Co 0.13335 0.37546 0.58355 0.0
C364 C 0.13641 0.34747 0.54245 0.0
C365 C 0.16657 0.36578 0.54837 0.0
C366 C 0.16912 0.35331 0.52926 0.0
N367 N 0.14609 0.36203 0.55682 0.0
N368 N 0.15013 0.34185 0.52551 0.0
H369 H 0.11969 0.34098 0.54429 0.0
H370 H 0.17883 0.377 0.55535 0.0
C371 C 0.17166 0.39615 0.61014 0.0
O372 O 0.1581 0.40977 0.62054 0.0
N373 N 0.11986 0.38818 0.61008 0.0
C374 C 0.10187 0.40161 0.61076 0.0
C375 C 0.09497 0.40367 0.63246 0.0
C376 C 0.12302 0.38153 0.63133 0.0
N377 N 0.10831 0.39108 0.64546 0.0
C378 C 0.1123 0.40082 0.55017 0.0
C379 C 0.12065 0.44221 0.56849 0.0
C380 C 0.10266 0.43974 0.55373 0.0
C381 C 0.09965 0.41907 0.54332 0.0
C382 C 0.13322 0.42349 0.57458 0.0
N383 N 0.12753 0.40279 0.56695 0.0
H384 H 0.10802 0.38458 0.54368 0.0
H385 H 0.14593 0.42556 0.58691 0.0
H386 H 0.09355 0.40854 0.5964 0.0
H387 H 0.13584 0.36984 0.63621 0.0
O388 O 0.10505 0.36096 0.57809 0.0
O389 O 0.13304 0.34694 0.59788 0.0
O390 O 0.1647 0.38419 0.5938 0.0
C391 C 0.11263 0.3451 0.59073 0.0
H392 H 0.18371 0.35308 0.51868 0.0
H393 H 0.08058 0.41301 0.63798 0.0
H394 H 0.12393 0.45809 0.57645 0.0
H395 H 0.0861 0.41639 0.53169 0.0
Co396 Co 0.64207 0.86539 0.4537 0.0
C397 C 0.65544 0.85536 0.49999 0.0
C398 C 0.65161 0.82542 0.48109 0.0
C399 C 0.66278 0.82048 0.50056 0.0
N400 N 0.64702 0.84744 0.48053 0.0
N401 N 0.66552 0.83946 0.51231 0.0
H402 H 0.65662 0.87289 0.50398 0.0
H403 H 0.64939 0.81397 0.46742 0.0
C404 C 0.62033 0.82297 0.43388 0.0
O405 O 0.60407 0.82223 0.44847 0.0
N406 N 0.63829 0.88331 0.42725 0.0
C407 C 0.63215 0.9049 0.4264 0.0
C408 C 0.63167 0.91152 0.40449 0.0
C409 C 0.64158 0.87709 0.40594 0.0
N410 N 0.63754 0.89399 0.39168 0.0
C411 C 0.6072 0.88139 0.48135 0.0
C412 C 0.57499 0.88259 0.44854 0.0
C413 C 0.57167 0.89513 0.46801 0.0
C414 C 0.58765 0.89344 0.48497 0.0
C415 C 0.5949 0.87081 0.44554 0.0
N416 N 0.61113 0.87111 0.4615 0.0
H417 H 0.62012 0.88235 0.49376 0.0
H418 H 0.59809 0.86331 0.42952 0.0
H419 H 0.62808 0.91503 0.44072 0.0
H420 H 0.64704 0.86064 0.40097 0.0
O421 O 0.65539 0.89102 0.46825 0.0
O422 O 0.67352 0.86511 0.44878 0.0
O423 O 0.63529 0.83808 0.43508 0.0
C424 C 0.67411 0.88327 0.4606 0.0
H425 H 0.66985 0.80445 0.5048 0.0
H426 H 0.6269 0.92782 0.39843 0.0
H427 H 0.56298 0.88301 0.43509 0.0
H428 H 0.58612 0.90296 0.50019 0.0
Co429 Co 0.14324 0.1307 0.68402 0.0
C430 C 0.14734 0.15958 0.72448 0.0
C431 C 0.17704 0.14059 0.71869 0.0
C432 C 0.1802 0.15367 0.73732 0.0
N433 N 0.15647 0.14437 0.71047 0.0
N434 N 0.1615 0.1656 0.74099 0.0
H435 H 0.13073 0.16632 0.72264 0.0
H436 H 0.189 0.12902 0.71182 0.0
C437 C 0.18008 0.10775 0.6577 0.0
O438 O 0.16558 0.09386 0.64897 0.0
N439 N 0.12951 0.11788 0.6576 0.0
C440 C 0.11312 0.10249 0.65626 0.0
C441 C 0.10768 0.09933 0.63418 0.0
C442 C 0.13295 0.12464 0.63644 0.0
N443 N 0.12016 0.11332 0.62185 0.0
C444 C 0.12095 0.10665 0.71743 0.0
C445 C 0.13005 0.06436 0.70188 0.0
C446 C 0.11142 0.06754 0.71567 0.0
C447 C 0.10802 0.08878 0.72473 0.0
C448 C 0.14286 0.08279 0.69526 0.0
N449 N 0.13673 0.10388 0.70132 0.0
H450 H 0.11662 0.12315 0.72314 0.0
H451 H 0.15643 0.08002 0.68408 0.0
H452 H 0.10526 0.0944 0.67025 0.0
H453 H 0.14507 0.13717 0.63175 0.0
O454 O 0.11533 0.14579 0.68923 0.0
O455 O 0.1434 0.15913 0.66924 0.0
O456 O 0.17427 0.12093 0.67357 0.0
C457 C 0.12302 0.16135 0.67633 0.0
H458 H 0.19501 0.15404 0.74761 0.0
H459 H 0.0952 0.08798 0.62772 0.0
H460 H 0.13385 0.04802 0.69518 0.0
H461 H 0.0941 0.09211 0.73568 0.0
Co462 Co 0.87143 0.64472 0.95206 0.0
C463 C 0.85672 0.65228 0.99846 0.0
C464 C 0.85886 0.68307 0.98077 0.0
C465 C 0.84777 0.68672 1.00056 0.0
N466 N 0.86462 0.66137 0.97934 0.0
N467 N 0.8461 0.6672 0.01159 0.0
H468 H 0.85713 0.63464 1.00193 0.0
H469 H 0.86039 0.69511 0.96753 0.0
C470 C 0.89154 0.68899 0.93517 0.0
O471 O 0.9072 0.68999 0.95042 0.0
N472 N 0.87712 0.628 0.92511 0.0
C473 C 0.88657 0.60766 0.9237 0.0
C474 C 0.88925 0.60232 0.9016 0.0
C475 C 0.87362 0.63453 0.90392 0.0
N476 N 0.88107 0.6192 0.88926 0.0
C477 C 0.90622 0.62939 0.98046 0.0
C478 C 0.9391 0.6303 0.94834 0.0
C479 C 0.94226 0.61709 0.96733 0.0
C480 C 0.92609 0.61787 0.98409 0.0
C481 C 0.91906 0.64191 0.94551 0.0
N482 N 0.90237 0.64025 0.9609 0.0
H483 H 0.89309 0.62741 0.99244 0.0
H484 H 0.91602 0.64998 0.92974 0.0
H485 H 0.89178 0.59774 0.93779 0.0
H486 H 0.86644 0.65042 0.8993 0.0
O487 O 0.85864 0.61797 0.965 0.0
O488 O 0.84028 0.64385 0.94573 0.0
O489 O 0.87755 0.67296 0.93492 0.0
C490 C 0.83994 0.62523 0.95674 0.0
H491 H 0.83974 0.70214 1.00535 0.0
H492 H 0.89674 0.58726 0.89506 0.0
H493 H 0.95125 0.63029 0.93503 0.0
H494 H 0.92767 0.60777 0.99892 0.0
Co495 Co 0.36689 0.37808 0.18566 0.0
C496 C 0.36217 0.35314 0.22834 0.0
C497 C 0.33378 0.37388 0.22208 0.0
C498 C 0.33059 0.36278 0.24196 0.0
N499 N 0.35356 0.36774 0.21343 0.0
N500 N 0.34852 0.34978 0.24589 0.0
H501 H 0.37811 0.34499 0.22647 0.0
H502 H 0.32248 0.38577 0.21465 0.0
C503 C 0.32942 0.39666 0.1565 0.0
O504 O 0.34357 0.40928 0.14565 0.0
N505 N 0.38082 0.38758 0.15811 0.0
C506 C 0.39854 0.40123 0.1558 0.0
C507 C 0.40476 0.40155 0.13378 0.0
C508 C 0.37723 0.37898 0.13763 0.0
N509 N 0.39127 0.38762 0.12233 0.0
C510 C 0.38661 0.40653 0.21729 0.0
C511 C 0.38061 0.44619 0.19492 0.0
C512 C 0.39739 0.44484 0.21116 0.0
C513 C 0.39919 0.42511 0.22342 0.0
C514 C 0.36801 0.42719 0.18959 0.0
N515 N 0.37255 0.40715 0.19941 0.0
H516 H 0.39001 0.39092 0.22555 0.0
H517 H 0.35614 0.42847 0.17642 0.0
H518 H 0.40679 0.40995 0.16923 0.0
H519 H 0.36459 0.36657 0.13411 0.0
O520 O 0.39512 0.3648 0.19333 0.0
O521 O 0.36774 0.34774 0.17505 0.0
O522 O 0.3357 0.38556 0.17371 0.0
C523 C 0.38792 0.34714 0.18306 0.0
H524 H 0.31635 0.36451 0.25286 0.0
H525 H 0.41816 0.41138 0.12679 0.0
H526 H 0.3782 0.46137 0.18549 0.0
H527 H 0.41177 0.42327 0.23622 0.0
C528 C 0.14249 0.12985 0.42005 0.0
C529 C 0.12347 0.12274 0.40838 0.0
C530 C 0.14264 0.13003 0.44333 0.0
C531 C 0.10746 0.13499 0.49203 0.0
H532 H 0.1514 0.09925 0.52316 0.0
C533 C 0.12224 0.13637 0.58792 0.0
C534 C 0.12036 0.11533 0.59802 0.0
C535 C 0.12273 0.13827 0.56473 0.0
C536 C 0.13912 0.10935 0.51464 0.0
H537 H 0.08951 0.11098 0.41174 0.0
H538 H 0.08953 0.11196 0.45249 0.0
H539 H 0.15234 0.1015 0.48243 0.0
H540 H 0.1179 0.07984 0.59199 0.0
H541 H 0.11944 0.08308 0.55135 0.0
H542 H 0.09443 0.14309 0.52428 0.0
C543 C 0.10439 0.11704 0.44361 0.0
C544 C 0.13972 0.11072 0.49143 0.0
C545 C 0.10443 0.11635 0.42038 0.0
C546 C 0.11916 0.09623 0.58455 0.0
C547 C 0.12019 0.09807 0.5614 0.0
C548 C 0.10718 0.13404 0.51528 0.0
C549 C 0.12357 0.12366 0.4553 0.0
C550 C 0.12374 0.12334 0.47992 0.0
C551 C 0.12191 0.11911 0.55129 0.0
C552 C 0.12283 0.12098 0.52676 0.0
H553 H 0.15739 0.13475 0.41114 0.0
H554 H 0.15761 0.13523 0.45201 0.0
H555 H 0.09499 0.14485 0.48349 0.0
H556 H 0.12308 0.15133 0.59799 0.0
H557 H 0.12408 0.15465 0.55728 0.0
C558 C 0.90018 0.6137 0.85342 0.0
C559 C 0.88145 0.62094 0.86541 0.0
C560 C 0.90058 0.61512 0.83023 0.0
C561 C 0.86599 0.61206 0.78186 0.0
H562 H 0.91317 0.64348 0.75074 0.0
C563 C 0.88917 0.59836 0.68921 0.0
C564 C 0.88879 0.61764 0.67599 0.0
C565 C 0.88731 0.59995 0.71233 0.0
C566 C 0.89989 0.63473 0.75926 0.0
H567 H 0.84846 0.63523 0.86271 0.0
H568 H 0.8488 0.63698 0.82185 0.0
H569 H 0.91183 0.64433 0.79155 0.0
H570 H 0.88661 0.65366 0.67641 0.0
H571 H 0.88416 0.65653 0.71712 0.0
H572 H 0.85459 0.60168 0.74961 0.0
C573 C 0.86327 0.63056 0.83053 0.0
C574 C 0.89916 0.63516 0.78251 0.0
C575 C 0.8631 0.62964 0.85379 0.0
C576 C 0.88682 0.63858 0.6863 0.0
C577 C 0.8855 0.64021 0.70948 0.0
C578 C 0.86703 0.61118 0.75863 0.0
C579 C 0.88205 0.62335 0.81858 0.0
C580 C 0.88222 0.6238 0.79398 0.0
C581 C 0.88556 0.62089 0.72266 0.0
C582 C 0.88402 0.62247 0.74716 0.0
H583 H 0.91459 0.60712 0.86204 0.0
H584 H 0.91519 0.60939 0.82135 0.0
H585 H 0.85287 0.60307 0.79038 0.0
H586 H 0.89051 0.58205 0.68159 0.0
H587 H 0.8875 0.58484 0.72218 0.0
C588 C 0.37205 0.37629 0.08757 0.0
C589 C 0.39145 0.38343 0.09866 0.0
C590 C 0.37199 0.37325 0.06449 0.0
C591 C 0.40978 0.36644 0.01592 0.0
H592 H 0.35902 0.38796 0.98224 0.0
C593 C 0.41398 0.3838 0.92189 0.0
C594 C 0.39574 0.37758 0.90858 0.0
C595 C 0.41284 0.38223 0.94503 0.0
C596 C 0.37319 0.38158 0.99142 0.0
H597 H 0.4262 0.39234 0.09407 0.0
H598 H 0.42597 0.38761 0.05395 0.0
H599 H 0.35822 0.38932 0.02278 0.0
H600 H 0.36196 0.36474 0.90917 0.0
H601 H 0.35993 0.362 0.94974 0.0
H602 H 0.42495 0.35922 0.98451 0.0
C603 C 0.41082 0.38409 0.06307 0.0
C604 C 0.37274 0.38233 0.01467 0.0
C605 C 0.41088 0.38709 0.08612 0.0
C606 C 0.37634 0.36955 0.91896 0.0
C607 C 0.37512 0.36815 0.94219 0.0
C608 C 0.41027 0.3658 0.99269 0.0
C609 C 0.39134 0.37727 0.05192 0.0
C610 C 0.39116 0.37505 0.02722 0.0
C611 C 0.39337 0.3745 0.95547 0.0
C612 C 0.39211 0.37364 0.98016 0.0
H613 H 0.35671 0.37351 0.09662 0.0
H614 H 0.35676 0.36776 0.0565 0.0
H615 H 0.42408 0.36025 0.02502 0.0
H616 H 0.42927 0.38978 0.91443 0.0
H617 H 0.42711 0.38748 0.95477 0.0
C618 C 0.63353 0.87359 0.35612 0.0
C619 C 0.63845 0.89334 0.36774 0.0
C620 C 0.63327 0.87331 0.33286 0.0
C621 C 0.62803 0.91143 0.28463 0.0
H622 H 0.64655 0.85941 0.25111 0.0
C623 C 0.60782 0.90202 0.19158 0.0
C624 C 0.62378 0.89221 0.17746 0.0
C625 C 0.61069 0.90207 0.21462 0.0
C626 C 0.64154 0.87418 0.26018 0.0
H627 H 0.64794 0.928 0.36408 0.0
H628 H 0.64794 0.92748 0.32358 0.0
H629 H 0.65059 0.85972 0.29145 0.0
H630 H 0.6556 0.87475 0.17732 0.0
H631 H 0.66071 0.87537 0.21727 0.0
H632 H 0.61949 0.92613 0.25342 0.0
C633 C 0.64363 0.91233 0.33237 0.0
C634 C 0.64358 0.87424 0.28337 0.0
C635 C 0.64369 0.91264 0.3556 0.0
C636 C 0.64282 0.88253 0.18729 0.0
C637 C 0.64572 0.8827 0.21039 0.0
C638 C 0.62611 0.91141 0.26149 0.0
C639 C 0.63811 0.89275 0.32067 0.0
C640 C 0.63671 0.89283 0.29592 0.0
C641 C 0.62969 0.89248 0.22435 0.0
C642 C 0.63263 0.89272 0.24896 0.0
H643 H 0.62918 0.85851 0.36501 0.0
H644 H 0.62863 0.858 0.32447 0.0
H645 H 0.62229 0.92594 0.29369 0.0
H646 H 0.59296 0.90978 0.18505 0.0
H647 H 0.5978 0.90945 0.22483 0.0
C648 C 0.09515 0.4039 0.68234 0.0
C649 C 0.10675 0.38826 0.66931 0.0
C650 C 0.09363 0.4014 0.70536 0.0
C651 C 0.10006 0.36021 0.75111 0.0
H652 H 0.10203 0.41372 0.78732 0.0
C653 C 0.10632 0.36125 0.84813 0.0
C654 C 0.0927 0.37689 0.85911 0.0
C655 C 0.10763 0.36097 0.82486 0.0
C656 C 0.10126 0.39863 0.77742 0.0
H657 H 0.12567 0.35743 0.67068 0.0
H658 H 0.12367 0.35351 0.71092 0.0
H659 H 0.10597 0.41667 0.74721 0.0
H660 H 0.06872 0.40344 0.85404 0.0
H661 H 0.07128 0.40315 0.81366 0.0
H662 H 0.09577 0.34223 0.78168 0.0
C663 C 0.11541 0.36757 0.70319 0.0
C664 C 0.10346 0.4003 0.75439 0.0
C665 C 0.11681 0.36999 0.68006 0.0
C666 C 0.07975 0.39154 0.84621 0.0
C667 C 0.0812 0.39136 0.82305 0.0
C668 C 0.09807 0.35852 0.77427 0.0
C669 C 0.10388 0.38331 0.71616 0.0
C670 C 0.10258 0.38117 0.74085 0.0
C671 C 0.09549 0.3764 0.81213 0.0
C672 C 0.09835 0.37777 0.78763 0.0
H673 H 0.08736 0.41831 0.67486 0.0
H674 H 0.08425 0.41367 0.71468 0.0
H675 H 0.0991 0.34513 0.74123 0.0
H676 H 0.11668 0.34983 0.85744 0.0
H677 H 0.11884 0.34929 0.81689 0.0
C678 C 0.58151 0.64325 0.92626 0.0
C679 C 0.59717 0.63367 0.91171 0.0
C680 C 0.58436 0.64194 0.94928 0.0
C681 C 0.61318 0.61002 0.99318 0.0
H682 H 0.59839 0.66137 0.02954 0.0
C683 C 0.60282 0.60431 0.08842 0.0
C684 C 0.61074 0.62204 0.10156 0.0
C685 C 0.60271 0.60586 0.06524 0.0
C686 C 0.60282 0.64694 0.01964 0.0
H687 H 0.62803 0.61489 0.91023 0.0
H688 H 0.63314 0.61287 0.95042 0.0
H689 H 0.5956 0.66392 0.9892 0.0
H690 H 0.62478 0.65536 0.10049 0.0
H691 H 0.62489 0.65795 0.06 0.0
H692 H 0.62059 0.5931 0.02364 0.0
C693 C 0.61854 0.62126 0.94394 0.0
C694 C 0.60095 0.64832 0.9965 0.0
C695 C 0.61571 0.62259 0.92087 0.0
C696 C 0.61874 0.64132 0.09091 0.0
C697 C 0.61859 0.64289 0.06768 0.0
C698 C 0.61501 0.60863 0.01633 0.0
C699 C 0.60295 0.63103 0.95843 0.0
C700 C 0.6059 0.62981 0.98299 0.0
C701 C 0.6105 0.62519 0.05456 0.0
C702 C 0.60965 0.62701 0.02987 0.0
H703 H 0.5672 0.65218 0.91993 0.0
H704 H 0.57186 0.64939 0.95993 0.0
H705 H 0.61699 0.5954 0.9833 0.0
H706 H 0.59679 0.58912 0.09603 0.0
H707 H 0.59613 0.59201 0.05569 0.0
C708 C 0.38913 0.1311 0.34676 0.0
C709 C 0.40943 0.13837 0.35601 0.0
C710 C 0.38612 0.13054 0.3237 0.0
C711 C 0.40805 0.15366 0.27107 0.0
H712 H 0.38117 0.10117 0.2445 0.0
C713 C 0.39009 0.14624 0.17637 0.0
C714 C 0.39656 0.12599 0.16649 0.0
C715 C 0.39009 0.14861 0.19955 0.0
C716 C 0.38872 0.11594 0.25167 0.0
H717 H 0.4423 0.15119 0.34814 0.0
H718 H 0.43715 0.14995 0.30796 0.0
H719 H 0.38445 0.1038 0.28486 0.0
H720 H 0.40746 0.09221 0.17325 0.0
H721 H 0.40758 0.09636 0.21351 0.0
H722 H 0.41272 0.16558 0.23781 0.0
C723 C 0.42351 0.14479 0.31857 0.0
C724 C 0.39041 0.11754 0.2748 0.0
C725 C 0.42657 0.14523 0.34161 0.0
C726 C 0.40267 0.10811 0.18031 0.0
C727 C 0.40249 0.11041 0.20341 0.0
C728 C 0.40621 0.15213 0.24792 0.0
C729 C 0.40328 0.13737 0.30932 0.0
C730 C 0.40035 0.13629 0.28477 0.0
C731 C 0.3963 0.1307 0.21333 0.0
C732 C 0.3968 0.13311 0.23794 0.0
H733 H 0.37562 0.12557 0.35734 0.0
H734 H 0.37027 0.12489 0.31711 0.0
H735 H 0.41556 0.16844 0.27826 0.0
H736 H 0.38542 0.16034 0.16618 0.0
H737 H 0.38511 0.16442 0.20671 0.0
C738 C 0.92616 0.89645 0.42694 0.0
C739 C 0.91258 0.88184 0.41467 0.0
C740 C 0.92454 0.89741 0.4501 0.0
C741 C 0.88735 0.88255 0.49719 0.0
H742 H 0.94148 0.88956 0.53179 0.0
C743 C 0.89106 0.87284 0.59327 0.0
C744 C 0.90401 0.88861 0.60488 0.0
C745 C 0.89121 0.87223 0.57 0.0
C746 C 0.92619 0.8878 0.52235 0.0
H747 H 0.88691 0.85644 0.41718 0.0
H748 H 0.88428 0.85791 0.45753 0.0
H749 H 0.94367 0.8879 0.49141 0.0
H750 H 0.92644 0.91675 0.60089 0.0
H751 H 0.9269 0.91545 0.56052 0.0
H752 H 0.86996 0.88215 0.52832 0.0
C753 C 0.89583 0.86902 0.44926 0.0
C754 C 0.92743 0.8869 0.49918 0.0
C755 C 0.89736 0.86816 0.42609 0.0
C756 C 0.91668 0.90404 0.59261 0.0
C757 C 0.91692 0.90334 0.56942 0.0
C758 C 0.88613 0.88331 0.52041 0.0
C759 C 0.90942 0.88364 0.46158 0.0
C760 C 0.90802 0.88439 0.48628 0.0
C761 C 0.90439 0.88729 0.55785 0.0
C762 C 0.90554 0.88607 0.53322 0.0
H763 H 0.93781 0.90739 0.4186 0.0
H764 H 0.93499 0.90916 0.459 0.0
H765 H 0.87203 0.8809 0.48779 0.0
H766 H 0.88126 0.86056 0.6021 0.0
H767 H 0.88149 0.85956 0.56153 0.0
C768 C 0.30464 0.14294 0.11492 0.0
C769 C 0.31439 0.12162 0.11552 0.0
C770 C 0.28639 0.1481 0.12869 0.0
C771 C 0.26032 0.12825 0.1814 0.0
H772 H 0.21366 0.17056 0.16712 0.0
C773 C 0.18583 0.14169 0.24023 0.0
C774 C 0.17921 0.1638 0.24479 0.0
C775 C 0.20089 0.13692 0.22312 0.0
C776 C 0.22668 0.15883 0.17141 0.0
H777 H 0.31157 0.0886 0.12979 0.0
H778 H 0.27943 0.09717 0.15285 0.0
H779 H 0.24177 0.16117 0.13913 0.0
H780 H 0.18272 0.19801 0.23356 0.0
H781 H 0.20907 0.18961 0.20376 0.0
H782 H 0.24532 0.12582 0.21356 0.0
C783 C 0.28625 0.11027 0.1425 0.0
C784 C 0.24284 0.15343 0.15535 0.0
C785 C 0.30456 0.10523 0.12902 0.0
C786 C 0.18757 0.18084 0.23095 0.0
C787 C 0.20258 0.17601 0.21366 0.0
C788 C 0.24416 0.13352 0.19731 0.0
C789 C 0.27738 0.132 0.14323 0.0
C790 C 0.25986 0.13793 0.16006 0.0
C791 C 0.20977 0.15401 0.20979 0.0
C792 C 0.22703 0.14878 0.19257 0.0
H793 H 0.31197 0.15604 0.10492 0.0
H794 H 0.28016 0.16504 0.12875 0.0
H795 H 0.27344 0.11678 0.18604 0.0
H796 H 0.17998 0.12791 0.25019 0.0
H797 H 0.20571 0.11973 0.22041 0.0
C798 C 0.84288 0.69319 0.50027 0.0
C799 C 0.86032 0.68445 0.51329 0.0
C800 C 0.84727 0.70762 0.48248 0.0
C801 C 0.89106 0.74481 0.45849 0.0
H802 H 0.85503 0.73981 0.40514 0.0
C803 C 0.91248 0.79368 0.37806 0.0
C804 C 0.89471 0.80367 0.36648 0.0
C805 C 0.90846 0.77863 0.39544 0.0
C806 C 0.86514 0.74161 0.41997 0.0
H807 H 0.89619 0.68427 0.51756 0.0
H808 H 0.90389 0.70926 0.48648 0.0
H809 H 0.84793 0.71506 0.43646 0.0
H810 H 0.8587 0.8048 0.36366 0.0
H811 H 0.85168 0.77868 0.39397 0.0
H812 H 0.90832 0.77131 0.44189 0.0
C813 C 0.88671 0.70522 0.49024 0.0
C814 C 0.86103 0.72739 0.43802 0.0
C815 C 0.8823 0.69083 0.50813 0.0
C816 C 0.87281 0.7976 0.37229 0.0
C817 C 0.86878 0.78247 0.38962 0.0
C818 C 0.89521 0.75897 0.44039 0.0
C819 C 0.86926 0.71374 0.47703 0.0
C820 C 0.87387 0.7288 0.45762 0.0
C821 C 0.88655 0.77299 0.40167 0.0
C822 C 0.88228 0.75762 0.42087 0.0
H823 H 0.82572 0.68904 0.50393 0.0
H824 H 0.8333 0.71415 0.47311 0.0
H825 H 0.9011 0.74673 0.47334 0.0
H826 H 0.92957 0.79792 0.37411 0.0
H827 H 0.92259 0.77142 0.40405 0.0
C828 C 0.32786 0.33355 0.72798 0.0
C829 C 0.33472 0.35018 0.74308 0.0
C830 C 0.31222 0.33823 0.71123 0.0
C831 C 0.28513 0.38576 0.68111 0.0
H832 H 0.24015 0.34167 0.6664 0.0
C833 C 0.20298 0.40744 0.63544 0.0
C834 C 0.19409 0.39214 0.62004 0.0
C835 C 0.2221 0.40228 0.64777 0.0
C836 C 0.25279 0.35407 0.67004 0.0
H837 H 0.33046 0.38512 0.75169 0.0
H838 H 0.30295 0.39296 0.72328 0.0
H839 H 0.26919 0.3326 0.69333 0.0
H840 H 0.19892 0.3596 0.60508 0.0
H841 H 0.23236 0.35056 0.62668 0.0
H842 H 0.26829 0.40742 0.65827 0.0
C843 C 0.30988 0.37631 0.72409 0.0
C844 C 0.26951 0.34886 0.68553 0.0
C845 C 0.32554 0.37168 0.74074 0.0
C846 C 0.20538 0.37186 0.61666 0.0
C847 C 0.22442 0.36657 0.62923 0.0
C848 C 0.26834 0.391 0.66576 0.0
C849 C 0.30292 0.35968 0.70906 0.0
C850 C 0.28579 0.36473 0.69154 0.0
C851 C 0.23279 0.38156 0.64526 0.0
C852 C 0.25177 0.37533 0.66019 0.0
H853 H 0.33433 0.31676 0.72921 0.0
H854 H 0.30754 0.32499 0.69988 0.0
H855 H 0.2976 0.39829 0.68482 0.0
H856 H 0.19472 0.4232 0.63854 0.0
H857 H 0.22792 0.41418 0.66004 0.0
C858 C 0.63114 0.82738 1.00398 0.0
C859 C 0.65303 0.83251 1.01068 0.0
C860 C 0.62716 0.81327 0.98579 0.0
C861 C 0.6548 0.78831 0.93581 0.0
H862 H 0.60399 0.74836 0.93723 0.0
C863 C 0.64094 0.71703 0.87127 0.0
C864 C 0.61903 0.71347 0.86365 0.0
C865 C 0.64532 0.73224 0.88849 0.0
C866 C 0.61813 0.75957 0.93644 0.0
H867 H 0.68789 0.82642 1.00355 0.0
H868 H 0.68102 0.80154 0.97219 0.0
H869 H 0.6112 0.7729 0.9687 0.0
H870 H 0.58461 0.72362 0.86796 0.0
H871 H 0.59225 0.75008 0.89787 0.0
H872 H 0.66188 0.77454 0.90363 0.0
C873 C 0.66685 0.80883 0.98062 0.0
C874 C 0.62227 0.77375 0.95452 0.0
C875 C 0.67083 0.82309 0.9987 0.0
C876 C 0.6017 0.72591 0.87334 0.0
C877 C 0.60605 0.74097 0.89066 0.0
C878 C 0.65075 0.77399 0.91779 0.0
C879 C 0.64494 0.8037 0.97384 0.0
C880 C 0.64063 0.78842 0.9545 0.0
C881 C 0.62788 0.74417 0.89865 0.0
C882 C 0.6323 0.75948 0.91782 0.0
H883 H 0.61703 0.8346 0.01254 0.0
H884 H 0.61005 0.81017 0.98092 0.0
H885 H 0.6689 0.79957 0.93489 0.0
H886 H 0.65473 0.70785 0.86415 0.0
H887 H 0.66232 0.73418 0.89426 0.0
C888 C 0.17905 0.37296 0.02062 0.0
C889 C 0.16956 0.35154 0.01871 0.0
C890 C 0.19483 0.37774 0.03722 0.0
C891 C 0.23438 0.35048 0.07692 0.0
H892 H 0.23487 0.40891 0.10454 0.0
C893 C 0.29579 0.37249 0.14865 0.0
C894 C 0.30718 0.39284 0.14611 0.0
C895 C 0.27723 0.36741 0.13523 0.0
C896 C 0.23505 0.39252 0.09695 0.0
H897 H 0.1699 0.3183 0.03297 0.0
H898 H 0.19675 0.32675 0.06204 0.0
H899 H 0.20672 0.40008 0.07662 0.0
H900 H 0.30721 0.42424 0.12827 0.0
H901 H 0.27492 0.4156 0.10532 0.0
H902 H 0.26278 0.343 0.09729 0.0
C903 C 0.19222 0.33986 0.05053 0.0
C904 C 0.21892 0.38747 0.0808 0.0
C905 C 0.1765 0.33506 0.0339 0.0
C906 C 0.29883 0.40842 0.13074 0.0
C907 C 0.28022 0.40347 0.11756 0.0
C908 C 0.25044 0.35551 0.09317 0.0
C909 C 0.20162 0.36129 0.05251 0.0
C910 C 0.21845 0.36644 0.07033 0.0
C911 C 0.26947 0.38268 0.11917 0.0
C912 C 0.25117 0.37669 0.10325 0.0
H913 H 0.17415 0.38624 1.0095 0.0
H914 H 0.20187 0.39436 0.03788 0.0
H915 H 0.23487 0.33422 0.0691 0.0
H916 H 0.30189 0.36001 0.16016 0.0
H917 H 0.26922 0.35133 0.13712 0.0
C918 C 0.6031 0.7934 0.40902 0.0
C919 C 0.62146 0.80673 0.41508 0.0
C920 C 0.60416 0.77931 0.39031 0.0
C921 C 0.63769 0.7702 0.33835 0.0
H922 H 0.60816 0.71269 0.33717 0.0
C923 C 0.65915 0.7022 0.27365 0.0
C924 C 0.64157 0.69033 0.26363 0.0
C925 C 0.65518 0.71687 0.29134 0.0
C926 C 0.61631 0.72881 0.33715 0.0
H927 H 0.65559 0.81499 0.40645 0.0
H928 H 0.65768 0.79022 0.37469 0.0
H929 H 0.60429 0.73678 0.36978 0.0
H930 H 0.60594 0.68461 0.26451 0.0
H931 H 0.59897 0.71014 0.29573 0.0
H932 H 0.65022 0.76193 0.30602 0.0
C933 C 0.64214 0.79103 0.38378 0.0
C934 C 0.61407 0.7427 0.35586 0.0
C935 C 0.64101 0.80518 0.40225 0.0
C936 C 0.61981 0.69362 0.27174 0.0
C937 C 0.61587 0.70809 0.28974 0.0
C938 C 0.64013 0.75624 0.31982 0.0
C939 C 0.62367 0.77806 0.37725 0.0
C940 C 0.62497 0.76353 0.35689 0.0
C941 C 0.63353 0.71991 0.29976 0.0
C942 C 0.62968 0.73525 0.31904 0.0
H943 H 0.58773 0.79424 0.41841 0.0
H944 H 0.58949 0.76979 0.38582 0.0
H945 H 0.64585 0.78631 0.33806 0.0
H946 H 0.67607 0.70021 0.26773 0.0
H947 H 0.66921 0.72554 0.29873 0.0
C948 C 0.21558 0.12923 0.64975 0.0
C949 C 0.20195 0.11043 0.64621 0.0
C950 C 0.23396 0.13344 0.63584 0.0
C951 C 0.253 0.12146 0.57864 0.0
H952 H 0.31034 0.14359 0.59856 0.0
C953 C 0.32598 0.13362 0.51675 0.0
C954 C 0.34021 0.15207 0.51981 0.0
C955 C 0.3102 0.12778 0.53296 0.0
C956 C 0.29435 0.13768 0.59261 0.0
H957 H 0.19797 0.08063 0.62603 0.0
H958 H 0.22976 0.08791 0.60214 0.0
H959 H 0.28134 0.13517 0.6258 0.0
H960 H 0.34905 0.17833 0.54317 0.0
H961 H 0.32126 0.16874 0.57069 0.0
H962 H 0.26556 0.12441 0.54552 0.0
C963 C 0.22609 0.09964 0.61534 0.0
C964 C 0.27772 0.1328 0.60831 0.0
C965 C 0.20789 0.0954 0.62922 0.0
C966 C 0.33833 0.16423 0.53981 0.0
C967 C 0.32246 0.1585 0.55591 0.0
C968 C 0.2695 0.12651 0.56296 0.0
C969 C 0.23902 0.11902 0.61803 0.0
C970 C 0.25686 0.1245 0.60153 0.0
C971 C 0.30802 0.14027 0.55272 0.0
C972 C 0.29049 0.13464 0.56965 0.0
H973 H 0.21147 0.14123 0.66257 0.0
H974 H 0.24356 0.14853 0.63839 0.0
H975 H 0.23699 0.11552 0.57274 0.0
H976 H 0.32669 0.12379 0.50169 0.0
H977 H 0.29971 0.11338 0.52995 0.0
C978 C 0.87007 0.70774 0.90478 0.0
C979 C 0.88978 0.70619 0.91738 0.0
C980 C 0.86836 0.72267 0.88704 0.0
C981 C 0.89462 0.7728 0.86106 0.0
H982 H 0.85973 0.75358 0.81019 0.0
C983 C 0.88907 0.8227 0.77774 0.0
C984 C 0.86758 0.82507 0.7686 0.0
C985 C 0.8928 0.80854 0.79594 0.0
C986 C 0.86941 0.75929 0.82431 0.0
H987 H 0.92312 0.71955 0.92127 0.0
H988 H 0.92036 0.74542 0.88986 0.0
H989 H 0.86476 0.7285 0.84153 0.0
H990 H 0.83328 0.81411 0.77138 0.0
H991 H 0.83977 0.78937 0.80291 0.0
H992 H 0.89952 0.80353 0.84336 0.0
C993 C 0.90603 0.73526 0.89398 0.0
C994 C 0.87224 0.74492 0.84241 0.0
C995 C 0.90766 0.72038 0.91199 0.0
C996 C 0.84998 0.81284 0.77808 0.0
C997 C 0.85375 0.7985 0.79605 0.0
C998 C 0.89197 0.78713 0.84278 0.0
C999 C 0.88641 0.73642 0.88105 0.0
C1000 C 0.88458 0.75154 0.86126 0.0
C1001 C 0.8752 0.79615 0.80524 0.0
C1002 C 0.87905 0.78066 0.82431 0.0
H1003 H 0.85583 0.6973 0.90855 0.0
H1004 H 0.85274 0.72342 0.87804 0.0
H1005 H 0.90407 0.77865 0.87526 0.0
H1006 H 0.90297 0.83201 0.77099 0.0
H1007 H 0.90954 0.80703 0.80253 0.0
C1008 C 0.68288 0.63505 0.75059 0.0
C1009 C 0.67492 0.65699 0.75314 0.0
C1010 C 0.69852 0.6298 0.73402 0.0
C1011 C 0.74019 0.65621 0.69593 0.0
H1012 H 0.73715 0.59942 0.66522 0.0
C1013 C 0.79907 0.63598 0.62238 0.0
C1014 C 0.80982 0.61518 0.62361 0.0
C1015 C 0.78085 0.6408 0.63623 0.0
C1016 C 0.73829 0.61533 0.67369 0.0
H1017 H 0.67789 0.69065 0.74013 0.0
H1018 H 0.70427 0.68144 0.71114 0.0
H1019 H 0.70967 0.60829 0.69379 0.0
H1020 H 0.80888 0.58269 0.6394 0.0
H1021 H 0.77709 0.59094 0.66315 0.0
H1022 H 0.76879 0.66324 0.6758 0.0
C1023 C 0.69873 0.66824 0.7221 0.0
C1024 C 0.72257 0.62039 0.6902 0.0
C1025 C 0.68323 0.6735 0.73868 0.0
C1026 C 0.80101 0.59889 0.63798 0.0
C1027 C 0.78271 0.60361 0.65161 0.0
C1028 C 0.75579 0.65121 0.67934 0.0
C1029 C 0.70665 0.64633 0.71947 0.0
C1030 C 0.72333 0.64088 0.70168 0.0
C1031 C 0.77278 0.62484 0.65143 0.0
C1032 C 0.75516 0.63066 0.66806 0.0
H1033 H 0.67689 0.62179 0.7612 0.0
H1034 H 0.70439 0.61278 0.73279 0.0
H1035 H 0.74169 0.67197 0.70459 0.0
H1036 H 0.80549 0.64898 0.61165 0.0
H1037 H 0.77341 0.65722 0.63541 0.0
C1038 C 0.34863 0.18621 0.98381 0.0
C1039 C 0.36527 0.18045 0.99934 0.0
C1040 C 0.35343 0.20022 0.96575 0.0
C1041 C 0.394 0.243 0.947 0.0
H1042 H 0.36946 0.23146 0.88843 0.0
C1043 C 0.42114 0.29624 0.87233 0.0
C1044 C 0.40454 0.30327 0.85738 0.0
C1045 C 0.41682 0.27951 0.88796 0.0
C1046 C 0.3763 0.23507 0.90471 0.0
H1047 H 0.40032 0.18478 1.00732 0.0
H1048 H 0.40854 0.20919 0.97617 0.0
H1049 H 0.36068 0.20633 0.9192 0.0
H1050 H 0.37056 0.29736 0.84658 0.0
H1051 H 0.36291 0.26827 0.87397 0.0
H1052 H 0.40933 0.27184 0.9328 0.0
C1053 C 0.39165 0.20312 0.97814 0.0
C1054 C 0.37126 0.22064 0.92239 0.0
C1055 C 0.38688 0.18907 0.99613 0.0
C1056 C 0.38384 0.29221 0.85766 0.0
C1057 C 0.37943 0.27553 0.87346 0.0
C1058 C 0.39897 0.25743 0.9294 0.0
C1059 C 0.375 0.20896 0.96271 0.0
C1060 C 0.38012 0.22435 0.94378 0.0
C1061 C 0.39566 0.26943 0.88931 0.0
C1062 C 0.39032 0.25367 0.90793 0.0
H1063 H 0.33174 0.1802 0.98575 0.0
H1064 H 0.3401 0.20455 0.9544 0.0
H1065 H 0.40078 0.2467 0.96328 0.0
H1066 H 0.43731 0.3043 0.87254 0.0
H1067 H 0.42998 0.2749 0.89939 0.0
C1068 C 0.82127 0.84396 0.24645 0.0
C1069 C 0.83503 0.86052 0.2558 0.0
C1070 C 0.80529 0.84933 0.23037 0.0
C1071 C 0.79058 0.89102 0.18769 0.0
H1072 H 0.73223 0.86346 0.19135 0.0
C1073 C 0.71844 0.91117 0.12521 0.0
C1074 C 0.70408 0.89354 0.11936 0.0
C1075 C 0.73471 0.90835 0.14185 0.0
C1076 C 0.74851 0.8711 0.18981 0.0
H1077 H 0.8427 0.89582 0.25535 0.0
H1078 H 0.81475 0.90525 0.22706 0.0
H1079 H 0.75962 0.85649 0.22035 0.0
H1080 H 0.69625 0.85883 0.12599 0.0
H1081 H 0.72468 0.85379 0.15421 0.0
H1082 H 0.77958 0.90529 0.15687 0.0
C1083 C 0.81642 0.88805 0.23226 0.0
C1084 C 0.76424 0.86715 0.20656 0.0
C1085 C 0.8323 0.88269 0.24861 0.0
C1086 C 0.70684 0.87289 0.13011 0.0
C1087 C 0.7231 0.87004 0.14654 0.0
C1088 C 0.77486 0.89486 0.17077 0.0
C1089 C 0.80265 0.87142 0.22297 0.0
C1090 C 0.78557 0.87683 0.20564 0.0
C1091 C 0.73706 0.88779 0.15298 0.0
C1092 C 0.75366 0.88471 0.17143 0.0
H1093 H 0.82271 0.82677 0.25172 0.0
H1094 H 0.79515 0.83605 0.22347 0.0
H1095 H 0.8069 0.89863 0.18635 0.0
H1096 H 0.71674 0.92734 0.1174 0.0
H1097 H 0.745 0.92248 0.14638 0.0
C1098 C 0.10323 0.22441 0.36237 0.0
C1099 C 0.12051 0.20947 0.35715 0.0
C1100 C 0.10519 0.23902 0.38061 0.0
C1101 C 0.1387 0.24702 0.43284 0.0
H1102 H 0.11321 0.30638 0.4323 0.0
C1103 C 0.16285 0.31434 0.49748 0.0
C1104 C 0.14558 0.32692 0.5071 0.0
C1105 C 0.15863 0.30003 0.47954 0.0
C1106 C 0.12026 0.28977 0.43278 0.0
H1107 H 0.15379 0.19891 0.36657 0.0
H1108 H 0.15752 0.22461 0.39743 0.0
H1109 H 0.1082 0.28193 0.4001 0.0
H1110 H 0.11032 0.33445 0.50509 0.0
H1111 H 0.10299 0.30957 0.4735 0.0
H1112 H 0.15125 0.25511 0.46524 0.0
C1113 C 0.14205 0.22467 0.38814 0.0
C1114 C 0.11734 0.27567 0.41431 0.0
C1115 C 0.13999 0.20997 0.3702 0.0
C1116 C 0.12395 0.32486 0.4982 0.0
C1117 C 0.11979 0.31076 0.47998 0.0
C1118 C 0.14184 0.26118 0.45111 0.0
C1119 C 0.12457 0.23919 0.39395 0.0
C1120 C 0.12672 0.25412 0.41395 0.0
C1121 C 0.13708 0.29809 0.47049 0.0
C1122 C 0.13283 0.2828 0.45128 0.0
H1123 H 0.08795 0.2244 0.35276 0.0
H1124 H 0.09125 0.24977 0.38455 0.0
H1125 H 0.14566 0.23039 0.43365 0.0
H1126 H 0.17964 0.31539 0.50401 0.0
H1127 H 0.17237 0.29065 0.47255 0.0
C1128 C 0.69934 0.8295 0.53412 0.0
C1129 C 0.68068 0.84332 0.53076 0.0
C1130 C 0.71522 0.83455 0.55048 0.0
C1131 C 0.72511 0.86805 0.60182 0.0
H1132 H 0.78723 0.85976 0.58624 0.0
C1133 C 0.79832 0.89767 0.65901 0.0
C1134 C 0.8171 0.88368 0.66035 0.0
C1135 C 0.78119 0.89329 0.6436 0.0
C1136 C 0.76998 0.86195 0.59104 0.0
H1137 H 0.6639 0.87296 0.54278 0.0
H1138 H 0.69166 0.88187 0.57119 0.0
H1139 H 0.75833 0.85069 0.5593 0.0
H1140 H 0.83227 0.85389 0.64648 0.0
H1141 H 0.8026 0.84621 0.62014 0.0
H1142 H 0.73685 0.87929 0.63364 0.0
C1143 C 0.69397 0.86703 0.56117 0.0
C1144 C 0.75334 0.85671 0.57553 0.0
C1145 C 0.6781 0.86201 0.54473 0.0
C1146 C 0.81818 0.86516 0.64597 0.0
C1147 C 0.80115 0.86081 0.63065 0.0
C1148 C 0.7418 0.87327 0.6174 0.0
C1149 C 0.71296 0.85356 0.56406 0.0
C1150 C 0.73064 0.85951 0.5807 0.0
C1151 C 0.78243 0.87484 0.62909 0.0
C1152 C 0.76449 0.87013 0.61231 0.0
H1153 H 0.70215 0.81512 0.52362 0.0
H1154 H 0.72941 0.82356 0.55239 0.0
H1155 H 0.70783 0.87028 0.60651 0.0
H1156 H 0.79689 0.91211 0.66974 0.0
H1157 H 0.76716 0.90461 0.6428 0.0
C1158 C 0.14539 0.30114 0.89554 0.0
C1159 C 0.1244 0.30085 0.90593 0.0
C1160 C 0.15026 0.28633 0.87806 0.0
C1161 C 0.1295 0.23378 0.85065 0.0
H1162 H 0.16657 0.25338 0.80168 0.0
C1163 C 0.13609 0.1842 0.76785 0.0
C1164 C 0.15758 0.18122 0.75899 0.0
C1165 C 0.1325 0.19876 0.78579 0.0
C1166 C 0.15631 0.24758 0.8153 0.0
H1167 H 0.09209 0.28459 0.90593 0.0
H1168 H 0.10025 0.2594 0.87547 0.0
H1169 H 0.15984 0.27844 0.83296 0.0
H1170 H 0.19202 0.19179 0.76178 0.0
H1171 H 0.18575 0.2173 0.79289 0.0
H1172 H 0.12559 0.20312 0.83266 0.0
C1173 C 0.11329 0.2706 0.88101 0.0
C1174 C 0.15251 0.26194 0.83337 0.0
C1175 C 0.10853 0.28522 0.89853 0.0
C1176 C 0.1753 0.1935 0.76831 0.0
C1177 C 0.17167 0.20828 0.78604 0.0
C1178 C 0.13309 0.21956 0.83248 0.0
C1179 C 0.13421 0.27088 0.8704 0.0
C1180 C 0.13895 0.25532 0.85134 0.0
C1181 C 0.15025 0.21099 0.79516 0.0
C1182 C 0.14649 0.22625 0.81452 0.0
H1183 H 0.15808 0.3128 0.90091 0.0
H1184 H 0.16669 0.28692 0.87067 0.0
H1185 H 0.1194 0.22772 0.86427 0.0
H1186 H 0.12209 0.17492 0.76121 0.0
H1187 H 0.11576 0.20056 0.79226 0.0
C1188 C 0.82388 0.64074 0.03459 0.0
C1189 C 0.83209 0.66244 0.03072 0.0
C1190 C 0.80903 0.63642 0.052 0.0
C1191 C 0.76843 0.66449 0.08947 0.0
H1192 H 0.76878 0.60715 0.11922 0.0
C1193 C 0.70398 0.64228 0.1581 0.0
C1194 C 0.6933 0.62156 0.15524 0.0
C1195 C 0.72316 0.64763 0.14581 0.0
C1196 C 0.7684 0.62323 0.11105 0.0
H1197 H 0.83151 0.69637 0.04321 0.0
H1198 H 0.80585 0.68877 0.07375 0.0
H1199 H 0.79799 0.61608 0.09251 0.0
H1200 H 0.69519 0.58983 0.13803 0.0
H1201 H 0.72864 0.59896 0.11701 0.0
H1202 H 0.73871 0.67151 0.108 0.0
C1203 C 0.81055 0.67517 0.06288 0.0
C1204 C 0.78514 0.62836 0.09562 0.0
C1205 C 0.82537 0.67953 0.04533 0.0
C1206 C 0.70297 0.60592 0.14072 0.0
C1207 C 0.72224 0.61115 0.12866 0.0
C1208 C 0.75176 0.6594 0.10503 0.0
C1209 C 0.80197 0.65356 0.06634 0.0
C1210 C 0.78519 0.6489 0.08426 0.0
C1211 C 0.73228 0.63228 0.13059 0.0
C1212 C 0.7513 0.63855 0.11575 0.0
H1213 H 0.82824 0.62703 0.02378 0.0
H1214 H 0.80257 0.61965 0.05374 0.0
H1215 H 0.76764 0.68035 0.08094 0.0
H1216 H 0.69693 0.6548 0.169 0.0
H1217 H 0.7306 0.66396 0.14789 0.0
C1218 C 0.33457 0.32582 0.27659 0.0
C1219 C 0.35246 0.33544 0.26487 0.0
C1220 C 0.33844 0.31165 0.29474 0.0
C1221 C 0.3812 0.29665 0.3368 0.0
H1222 H 0.34729 0.24189 0.34242 0.0
C1223 C 0.40642 0.22709 0.39867 0.0
C1224 C 0.38966 0.21416 0.40871 0.0
C1225 C 0.40117 0.24276 0.38221 0.0
C1226 C 0.3567 0.25727 0.34138 0.0
H1227 H 0.38849 0.33792 0.26354 0.0
H1228 H 0.39523 0.31322 0.295 0.0
H1229 H 0.33945 0.26733 0.31179 0.0
H1230 H 0.354 0.20833 0.40981 0.0
H1231 H 0.34477 0.23589 0.38145 0.0
H1232 H 0.39839 0.28674 0.36639 0.0
C1233 C 0.37817 0.31665 0.2902 0.0
C1234 C 0.35222 0.27187 0.32372 0.0
C1235 C 0.37431 0.33066 0.27196 0.0
C1236 C 0.36739 0.21781 0.40232 0.0
C1237 C 0.36211 0.23356 0.3859 0.0
C1238 C 0.38559 0.28214 0.35453 0.0
C1239 C 0.36031 0.30688 0.30181 0.0
C1240 C 0.36453 0.29167 0.32107 0.0
C1241 C 0.37895 0.24609 0.37538 0.0
C1242 C 0.37355 0.26211 0.357 0.0
H1243 H 0.31755 0.32897 0.27153 0.0
H1244 H 0.32427 0.30458 0.30338 0.0
H1245 H 0.39077 0.31192 0.33553 0.0
H1246 H 0.42378 0.22467 0.40302 0.0
H1247 H 0.41469 0.25177 0.37438 0.0
C1248 C 0.03802 0.09639 0.32022 0.0
C1249 C 0.04599 0.10753 0.30122 0.0
C1250 C 0.02297 0.07868 0.31826 0.0
C1251 C 0.00663 0.03442 0.27962 0.0
H1252 H 0.95801 0.02562 0.32107 0.0
C1253 C 0.94803 0.95634 0.27779 0.0
C1254 C 0.94132 0.94818 0.29861 0.0
C1255 C 0.96007 0.97642 0.27631 0.0
C1256 C 0.97166 0.02767 0.30948 0.0
H1257 H 0.0431 0.10941 0.26529 0.0
H1258 H 0.01713 0.07817 0.26191 0.0
H1259 H 0.97906 0.06034 0.32189 0.0
H1260 H 0.94308 0.95364 0.33417 0.0
H1261 H 0.96442 0.98799 0.33172 0.0
H1262 H 0.99964 1.00143 0.26766 0.0
C1263 C 0.02278 0.08312 0.2783 0.0
C1264 C 0.98365 0.04765 0.30991 0.0
C1265 C 0.03766 0.10104 0.28027 0.0
C1266 C 0.94772 0.95979 0.31788 0.0
C1267 C 0.9598 0.97959 0.31644 0.0
C1268 C 0.99471 0.0143 0.2793 0.0
C1269 C 0.01562 0.07147 0.29725 0.0
C1270 C 1.0015 0.05114 0.29525 0.0
C1271 C 0.96569 0.98852 0.29566 0.0
C1272 C 0.97735 0.01049 0.29454 0.0
H1273 H 0.04431 0.10047 0.33661 0.0
H1274 H 0.01795 0.06991 0.33317 0.0
H1275 H 0.02044 0.03653 0.26823 0.0
H1276 H 0.94326 0.94768 0.26271 0.0
H1277 H 0.96434 0.98279 0.26003 0.0
C1278 C 0.07578 0.46598 0.57165 0.0
C1279 C 0.08489 0.45695 0.55211 0.0
C1280 C 0.05641 0.4789 0.5709 0.0
C1281 C 0.00722 0.48993 0.5346 0.0
H1282 H 0.99563 0.53586 0.57848 0.0
C1283 C 0.93109 0.55071 0.53373 0.0
C1284 C 0.92047 0.5542 0.55428 0.0
C1285 C 0.95047 0.53774 0.53242 0.0
C1286 C 0.99857 0.52295 0.56622 0.0
H1287 H 0.08143 0.45532 0.51631 0.0
H1288 H 0.04813 0.47872 0.5148 0.0
H1289 H 0.03193 0.5178 0.57754 0.0
H1290 H 0.92148 0.54626 0.58942 0.0
H1291 H 0.9553 0.52372 0.58712 0.0
H1292 H 0.97385 0.49575 0.52298 0.0
C1293 C 0.05552 0.47524 0.53085 0.0
C1294 C 0.0194 0.51251 0.56569 0.0
C1295 C 0.07476 0.46203 0.53165 0.0
C1296 C 0.92907 0.54363 0.57329 0.0
C1297 C 0.9486 0.53097 0.57204 0.0
C1298 C 0.98647 0.50065 0.53493 0.0
C1299 C 0.04573 0.48341 0.55053 0.0
C1300 C 0.02398 0.49563 0.55006 0.0
C1301 C 0.9598 0.52834 0.5517 0.0
C1302 C 0.98185 0.51706 0.55094 0.0
H1303 H 0.08286 0.46196 0.58773 0.0
H1304 H 0.0493 0.48446 0.58647 0.0
H1305 H 0.00986 0.47679 0.52254 0.0
H1306 H 0.92487 0.5587 0.51882 0.0
H1307 H 0.95877 0.536 0.51652 0.0
C1308 C 0.47947 0.41498 0.80104 0.0
C1309 C 0.46295 0.41138 0.78479 0.0
C1310 C 0.49454 0.43271 0.79902 0.0
C1311 C 0.49759 0.48856 0.77499 0.0
H1312 H 0.56011 0.48554 0.79093 0.0
C1313 C 0.55438 0.56702 0.7738 0.0
C1314 C 0.57031 0.56876 0.79085 0.0
C1315 C 0.54237 0.54716 0.77074 0.0
C1316 C 0.54262 0.48677 0.78665 0.0
H1317 H 0.45064 0.42258 0.75274 0.0
H1318 H 0.4767 0.45367 0.74946 0.0
H1319 H 0.53797 0.45142 0.78963 0.0
H1320 H 0.58554 0.55134 0.81854 0.0
H1321 H 0.56442 0.51717 0.81362 0.0
H1322 H 0.50187 0.52391 0.77283 0.0
C1323 C 0.47772 0.44296 0.76392 0.0
C1324 C 0.52998 0.46716 0.78581 0.0
C1325 C 0.4628 0.42513 0.76582 0.0
C1326 C 0.57374 0.55038 0.80492 0.0
C1327 C 0.56165 0.53069 0.80203 0.0
C1328 C 0.51015 0.50821 0.77607 0.0
C1329 C 0.49335 0.44731 0.78078 0.0
C1330 C 0.50727 0.46785 0.78016 0.0
C1331 C 0.54586 0.5287 0.78484 0.0
C1332 C 0.53279 0.50763 0.78217 0.0
H1333 H 0.47995 0.40494 0.81599 0.0
H1334 H 0.50632 0.4357 0.81235 0.0
H1335 H 0.48004 0.48968 0.77088 0.0
H1336 H 0.55144 0.58089 0.76266 0.0
H1337 H 0.53053 0.54622 0.75718 0.0
C1338 C 0.43634 0.04865 0.03332 0.0
C1339 C 0.42456 0.05326 0.05301 0.0
C1340 C 0.45575 0.0357 0.03379 0.0
C1341 C 0.48908 0.99708 0.0692 0.0
H1342 H 0.53882 0.01957 0.03466 0.0
C1343 C 0.57839 0.96535 0.0839 0.0
C1344 C 0.59115 0.96008 0.065 0.0
C1345 C 0.5584 0.97717 0.0819 0.0
C1346 C 0.52506 0.01294 0.04424 0.0
H1347 H 0.42365 0.04711 0.08852 0.0
H1348 H 0.45727 0.02453 0.08933 0.0
H1349 H 0.50242 0.03742 0.03159 0.0
H1350 H 0.59333 0.96419 0.02926 0.0
H1351 H 0.55837 0.98478 0.02576 0.0
H1352 H 0.51177 0.97275 0.08202 0.0
C1353 C 0.45144 0.03069 0.07344 0.0
C1354 C 0.50412 0.02312 0.04243 0.0
C1355 C 0.43202 0.04359 0.07297 0.0
C1356 C 0.58388 0.96786 0.04415 0.0
C1357 C 0.56388 0.97976 0.04216 0.0
C1358 C 0.51 0.98695 0.07105 0.0
C1359 C 0.4639 0.02706 0.05396 0.0
C1360 C 0.48587 0.0154 0.05498 0.0
C1361 C 0.5506 0.98405 0.06096 0.0
C1362 C 0.52831 0.99484 0.05873 0.0
H1363 H 0.43093 0.05564 0.01762 0.0
H1364 H 0.46463 0.03285 0.01838 0.0
H1365 H 0.47537 0.99045 0.07886 0.0
H1366 H 0.58321 0.95938 0.1002 0.0
H1367 H 0.54881 0.98052 0.09678 0.0
C1368 C 0.05766 0.44963 0.99637 0.0
C1369 C 0.05545 0.43452 0.97861 0.0
C1370 C 0.04591 0.46984 0.99633 0.0
C1371 C 0.99861 0.49895 0.96813 0.0
H1372 H 0.0276 0.55253 0.98997 0.0
C1373 C 0.96309 0.58566 0.94956 0.0
C1374 C 0.95986 0.59962 0.96808 0.0
C1375 C 0.97622 0.56651 0.95125 0.0
C1376 C 0.01928 0.53767 0.98392 0.0
H1377 H 0.03944 0.429 0.94674 0.0
H1378 H 0.01935 0.46406 0.94648 0.0
H1379 H 0.04668 0.51661 0.99286 0.0
H1380 H 0.96901 0.60508 1.00253 0.0
H1381 H 0.99232 0.57165 1.00538 0.0
H1382 H 0.97148 0.52009 0.95872 0.0
C1383 C 0.02955 0.46018 0.96082 0.0
C1384 C 0.03013 0.51704 0.98569 0.0
C1385 C 0.04109 0.43997 0.96097 0.0
C1386 C 0.97115 0.59464 0.98798 0.0
C1387 C 0.98452 0.57555 0.9896 0.0
C1388 C 0.98794 0.51954 0.96613 0.0
C1389 C 0.03186 0.4755 0.97842 0.0
C1390 C 0.02 0.49739 0.97765 0.0
C1391 C 0.9866 0.56092 0.97144 0.0
C1392 C 0.9982 0.53915 0.97384 0.0
H1393 H 0.06858 0.44589 1.01022 0.0
H1394 H 0.04787 0.48102 1.01034 0.0
H1395 H 0.98999 0.48421 0.96224 0.0
H1396 H 0.95441 0.5888 0.93407 0.0
H1397 H 0.97775 0.55569 0.9369 0.0
C1398 C 0.42371 0.46842 0.23393 0.0
C1399 C 0.41512 0.46215 0.21308 0.0
C1400 C 0.44294 0.48162 0.23546 0.0
C1401 C 0.48171 0.51718 0.20187 0.0
H1402 H 0.52405 0.50192 0.2482 0.0
C1403 C 0.5722 0.54918 0.20009 0.0
C1404 C 0.57999 0.55927 0.21974 0.0
C1405 C 0.55251 0.53668 0.20007 0.0
C1406 C 0.51233 0.50645 0.23525 0.0
H1407 H 0.41981 0.46521 0.17749 0.0
H1408 H 0.45332 0.48785 0.18008 0.0
H1409 H 0.48804 0.48298 0.24669 0.0
H1410 H 0.57379 0.56308 0.25502 0.0
H1411 H 0.53952 0.54083 0.25506 0.0
H1412 H 0.50632 0.54024 0.19015 0.0
C1413 C 0.44504 0.48309 0.19534 0.0
C1414 C 0.49158 0.49571 0.23444 0.0
C1415 C 0.42571 0.47011 0.19382 0.0
C1416 C 0.56823 0.55552 0.23962 0.0
C1417 C 0.54863 0.54277 0.23965 0.0
C1418 C 0.50253 0.5277 0.20254 0.0
C1419 C 0.45423 0.48867 0.21618 0.0
C1420 C 0.47597 0.50086 0.21768 0.0
C1421 C 0.54021 0.53376 0.21973 0.0
C1422 C 0.51813 0.5224 0.21917 0.0
H1423 H 0.41586 0.46263 0.24907 0.0
H1424 H 0.44915 0.48597 0.25181 0.0
H1425 H 0.47006 0.52198 0.18897 0.0
H1426 H 0.58063 0.552 0.18442 0.0
H1427 H 0.5466 0.52971 0.18451 0.0
C1428 C 0.54793 0.92493 0.45063 0.0
C1429 C 0.55363 0.91224 0.46947 0.0
C1430 C 0.53333 0.94299 0.45236 0.0
C1431 C 0.51324 0.98476 0.4922 0.0
H1432 H 0.46985 0.99708 0.44605 0.0
C1433 C 0.45311 0.06172 0.49303 0.0
C1434 C 0.44897 0.07157 0.47227 0.0
C1435 C 0.46565 0.04198 0.49443 0.0
C1436 C 0.48205 0.99403 0.45899 0.0
H1437 H 0.54743 0.90821 0.50479 0.0
H1438 H 0.52214 0.94001 0.50779 0.0
H1439 H 0.49075 0.96234 0.44513 0.0
H1440 H 0.45572 0.06954 0.43698 0.0
H1441 H 0.47794 0.03573 0.43938 0.0
H1442 H 0.50477 0.01676 0.5058 0.0
C1443 C 0.52922 0.93599 0.49173 0.0
C1444 C 0.49397 0.97405 0.45848 0.0
C1445 C 0.54371 0.91775 0.48997 0.0
C1446 C 0.4585 0.06211 0.45316 0.0
C1447 C 0.47104 0.04261 0.45454 0.0
C1448 C 0.50133 1.00487 0.49267 0.0
C1449 C 0.52412 0.949 0.47298 0.0
C1450 C 0.50998 0.96932 0.47484 0.0
C1451 C 0.47425 0.03189 0.47507 0.0
C1452 C 0.4859 0.00994 0.47579 0.0
H1453 H 0.55555 0.92165 0.43465 0.0
H1454 H 0.53 0.95284 0.43764 0.0
H1455 H 0.5256 0.98168 0.50497 0.0
H1456 H 0.44582 0.06869 0.50797 0.0
H1457 H 0.46783 0.03417 0.5105 0.0
C1458 C 0.08607 0.03879 0.69895 0.0
C1459 C 0.09372 0.05022 0.71791 0.0
C1460 C 0.06667 0.02584 0.6998 0.0
C1461 C 0.01446 0.02025 0.73237 0.0
H1462 H 0.00637 0.96741 0.69607 0.0
C1463 C 0.93517 0.96386 0.73517 0.0
C1464 C 0.9274 0.95541 0.71474 0.0
C1465 C 0.95514 0.976 0.73629 0.0
C1466 C 0.00828 0.98228 0.70614 0.0
H1467 H 0.08768 0.05582 0.75299 0.0
H1468 H 0.0541 0.03281 0.75462 0.0
H1469 H 0.04272 0.9855 0.69747 0.0
H1470 H 0.93446 0.95366 0.67938 0.0
H1471 H 0.96885 0.97509 0.68132 0.0
H1472 H 0.97996 0.01684 0.7411 0.0
C1473 C 0.06277 0.03434 0.73891 0.0
C1474 C 0.02917 0.99266 0.70696 0.0
C1475 C 0.08213 0.04739 0.73804 0.0
C1476 C 0.93966 0.96018 0.69537 0.0
C1477 C 0.95963 0.97217 0.69651 0.0
C1478 C 0.99358 0.00976 0.73165 0.0
C1479 C 0.05443 0.02386 0.71966 0.0
C1480 C 0.03253 0.01193 0.71991 0.0
C1481 C 0.9679 0.97979 0.71704 0.0
C1482 C 0.99017 0.99079 0.71833 0.0
H1483 H 0.09429 0.04093 0.68307 0.0
H1484 H 0.0607 0.0183 0.68455 0.0
H1485 H 0.01624 0.03525 0.74224 0.0
H1486 H 0.92614 0.96053 0.75039 0.0
H1487 H 0.96105 0.98162 0.75237 0.0
C1488 C 0.33361 0.15804 0.39232 0.0
C1489 C 0.33539 0.14533 0.4118 0.0
C1490 C 0.31911 0.15141 0.37541 0.0
C1491 C 0.28545 0.10237 0.3566 0.0
H1492 H 0.25184 0.14766 0.32534 0.0
C1493 C 0.19489 0.09971 0.33308 0.0
C1494 C 0.18763 0.11375 0.31601 0.0
C1495 C 0.21765 0.09606 0.33613 0.0
C1496 C 0.26154 0.13471 0.33334 0.0
H1497 H 0.32281 0.11662 0.42961 0.0
H1498 H 0.29621 0.10598 0.40091 0.0
H1499 H 0.28165 0.15879 0.34994 0.0
H1500 H 0.19752 0.13288 0.28724 0.0
H1501 H 0.23728 0.12623 0.29224 0.0
H1502 H 0.26362 0.07846 0.34133 0.0
C1503 C 0.30676 0.12035 0.39804 0.0
C1504 C 0.27864 0.14114 0.3476 0.0
C1505 C 0.32162 0.12669 0.4147 0.0
C1506 C 0.20287 0.12163 0.30024 0.0
C1507 C 0.2256 0.11795 0.30322 0.0
C1508 C 0.26802 0.09595 0.34256 0.0
C1509 C 0.30575 0.13226 0.37793 0.0
C1510 C 0.2902 0.12512 0.3601 0.0
C1511 C 0.23319 0.1068 0.32229 0.0
C1512 C 0.25539 0.11216 0.33147 0.0
H1513 H 0.34445 0.17221 0.38952 0.0
H1514 H 0.31893 0.1609 0.36011 0.0
H1515 H 0.29453 0.08954 0.36544 0.0
H1516 H 0.18328 0.0938 0.34557 0.0
H1517 H 0.22302 0.08744 0.35102 0.0
C1518 C 0.89622 0.69449 0.62674 0.0
C1519 C 0.90492 0.68137 0.60953 0.0
C1520 C 0.91014 0.70822 0.63919 0.0
C1521 C 0.95988 0.7411 0.63556 0.0
H1522 H 0.94214 0.75206 0.69654 0.0
C1523 C 0.93658 0.81573 0.70032 0.0
C1524 C 0.92396 0.82646 0.6839 0.0
C1525 C 0.94966 0.79722 0.69464 0.0
C1526 C 0.94823 0.74903 0.67987 0.0
H1527 H 0.93501 0.67246 0.59161 0.0
H1528 H 0.95942 0.69727 0.61314 0.0
H1529 H 0.93402 0.71634 0.67951 0.0
H1530 H 0.91694 0.82863 0.6487 0.0
H1531 H 0.93941 0.79681 0.63872 0.0
H1532 H 0.97272 0.77438 0.63547 0.0
C1533 C 0.94183 0.69654 0.61712 0.0
C1534 C 0.94326 0.72859 0.66999 0.0
C1535 C 0.92784 0.68257 0.60471 0.0
C1536 C 0.92629 0.8202 0.66164 0.0
C1537 C 0.93955 0.80215 0.65592 0.0
C1538 C 0.96516 0.76147 0.64556 0.0
C1539 C 0.93312 0.70924 0.63471 0.0
C1540 C 0.94698 0.72542 0.64715 0.0
C1541 C 0.95043 0.78964 0.67246 0.0
C1542 C 0.95704 0.76645 0.66695 0.0
H1543 H 0.87867 0.69385 0.63095 0.0
H1544 H 0.90277 0.71836 0.65215 0.0
H1545 H 0.96341 0.73891 0.61804 0.0
H1546 H 0.93509 0.82061 0.7176 0.0
H1547 H 0.95791 0.78796 0.70773 0.0
C1548 C 0.17773 0.40152 0.91862 0.0
C1549 C 0.16955 0.3798 0.9153 0.0
C1550 C 0.1943 0.41008 0.90476 0.0
C1551 C 0.2404 0.41439 0.88369 0.0
H1552 H 0.24262 0.3954 0.82207 0.0
C1553 C 0.30766 0.37001 0.83211 0.0
C1554 C 0.32596 0.38449 0.83187 0.0
C1555 C 0.28647 0.37816 0.83654 0.0
C1556 C 0.24201 0.40141 0.83906 0.0
H1557 H 0.17193 0.35009 0.89496 0.0
H1558 H 0.20121 0.3647 0.87115 0.0
H1559 H 0.20744 0.39343 0.84235 0.0
H1560 H 0.33679 0.41882 0.83524 0.0
H1561 H 0.29939 0.43306 0.84431 0.0
H1562 H 0.27537 0.42079 0.88079 0.0
C1563 C 0.19458 0.37532 0.88413 0.0
C1564 C 0.22201 0.4001 0.8507 0.0
C1565 C 0.17812 0.36677 0.898 0.0
C1566 C 0.32277 0.40741 0.83544 0.0
C1567 C 0.30152 0.41554 0.84048 0.0
C1568 C 0.2604 0.41583 0.87197 0.0
C1569 C 0.20277 0.39708 0.88731 0.0
C1570 C 0.22146 0.40509 0.87352 0.0
C1571 C 0.2833 0.40088 0.84121 0.0
C1572 C 0.26159 0.4079 0.85006 0.0
H1573 H 0.17119 0.41197 0.93179 0.0
H1574 H 0.2004 0.42685 0.90762 0.0
H1575 H 0.24042 0.41843 0.90125 0.0
H1576 H 0.30976 0.3523 0.82914 0.0
H1577 H 0.27271 0.36647 0.83744 0.0
C1578 C 0.60252 0.81956 0.11855 0.0
C1579 C 0.5999 0.83051 0.09819 0.0
C1580 C 0.58714 0.80369 0.12532 0.0
C1581 C 0.55718 0.75955 0.10319 0.0
H1582 H 0.54929 0.75112 0.1666 0.0
C1583 C 0.57495 0.69024 0.17578 0.0
C1584 C 0.59666 0.68601 0.16805 0.0
C1585 C 0.56123 0.70546 0.16462 0.0
C1586 C 0.55041 0.75301 0.14872 0.0
H1587 H 0.5789 0.83418 0.06909 0.0
H1588 H 0.55233 0.80488 0.08045 0.0
H1589 H 0.54849 0.78852 0.15113 0.0
H1590 H 0.62067 0.69347 0.14216 0.0
H1591 H 0.59713 0.71995 0.12304 0.0
H1592 H 0.5615 0.72422 0.10115 0.0
C1593 C 0.56603 0.80923 0.09138 0.0
C1594 C 0.54997 0.7745 0.13986 0.0
C1595 C 0.58128 0.8257 0.08481 0.0
C1596 C 0.60417 0.69666 0.14874 0.0
C1597 C 0.59044 0.71148 0.13747 0.0
C1598 C 0.55739 0.73804 0.11202 0.0
C1599 C 0.56891 0.79809 0.11173 0.0
C1600 C 0.55601 0.77796 0.11755 0.0
C1601 C 0.56888 0.7162 0.14533 0.0
C1602 C 0.55659 0.73498 0.13518 0.0
H1603 H 0.61652 0.82326 0.12936 0.0
H1604 H 0.59019 0.79498 0.1408 0.0
H1605 H 0.56147 0.76174 0.08583 0.0
H1606 H 0.56871 0.68199 0.19053 0.0
H1607 H 0.54481 0.70907 0.17119 0.0
C1608 C 0.67313 0.65714 0.88247 0.0
C1609 C 0.67272 0.6447 0.86272 0.0
C1610 C 0.68682 0.6506 0.90006 0.0
C1611 C 0.72063 0.60243 0.92027 0.0
H1612 H 0.75384 0.64872 0.95069 0.0
C1613 C 0.811 0.59902 0.94432 0.0
C1614 C 0.81873 0.61405 0.96037 0.0
C1615 C 0.78813 0.5959 0.94145 0.0
C1616 C 0.74427 0.63548 0.94297 0.0
H1617 H 0.68649 0.61622 0.84539 0.0
H1618 H 0.71149 0.60559 0.87548 0.0
H1619 H 0.72393 0.659 0.92592 0.0
H1620 H 0.80946 0.63556 0.98767 0.0
H1621 H 0.76952 0.62954 0.98328 0.0
H1622 H 0.74249 0.57904 0.93612 0.0
C1623 C 0.70064 0.61981 0.87788 0.0
C1624 C 0.7271 0.64143 0.92861 0.0
C1625 C 0.68669 0.62613 0.86047 0.0
C1626 C 0.80374 0.62356 0.97547 0.0
C1627 C 0.7809 0.62028 0.97279 0.0
C1628 C 0.73804 0.59647 0.93452 0.0
C1629 C 0.70058 0.63171 0.89804 0.0
C1630 C 0.71575 0.62506 0.91633 0.0
C1631 C 0.7729 0.60801 0.95453 0.0
C1632 C 0.75063 0.61303 0.94526 0.0
H1633 H 0.66203 0.67118 0.88478 0.0
H1634 H 0.68621 0.66004 0.91541 0.0
H1635 H 0.71172 0.58937 0.91155 0.0
H1636 H 0.82242 0.59184 0.93233 0.0
H1637 H 0.78251 0.58637 0.9272 0.0
C1638 C 0.43206 0.18311 0.09726 0.0
C1639 C 0.41033 0.18664 0.08929 0.0
C1640 C 0.44403 0.20074 0.10672 0.0
C1641 C 0.44609 0.26129 0.11456 0.0
H1642 H 0.43846 0.24991 0.17757 0.0
C1643 C 0.42535 0.33141 0.17502 0.0
C1644 C 0.40255 0.32802 0.17922 0.0
C1645 C 0.43857 0.31378 0.16753 0.0
C1646 C 0.44162 0.25327 0.16015 0.0
H1647 H 0.38468 0.21115 0.08298 0.0
H1648 H 0.40586 0.24216 0.09873 0.0
H1649 H 0.4413 0.21863 0.15173 0.0
H1650 H 0.37601 0.30363 0.18086 0.0
H1651 H 0.39925 0.27261 0.16849 0.0
H1652 H 0.44411 0.29593 0.12277 0.0
C1653 C 0.41362 0.22587 0.09787 0.0
C1654 C 0.44331 0.23542 0.14537 0.0
C1655 C 0.40142 0.20818 0.08909 0.0
C1656 C 0.39353 0.30656 0.17761 0.0
C1657 C 0.40687 0.28885 0.17079 0.0
C1658 C 0.44484 0.27914 0.12939 0.0
C1659 C 0.43462 0.22212 0.10755 0.0
C1660 C 0.44369 0.23939 0.12238 0.0
C1661 C 0.42926 0.29249 0.16493 0.0
C1662 C 0.44077 0.27516 0.15202 0.0
H1663 H 0.43908 0.16647 0.09768 0.0
H1664 H 0.46003 0.19749 0.11443 0.0
H1665 H 0.44634 0.26464 0.09687 0.0
H1666 H 0.43255 0.34796 0.17606 0.0
H1667 H 0.4557 0.31695 0.16277 0.0
C1668 C 0.82302 0.88594 0.36496 0.0
C1669 C 0.83699 0.86724 0.36522 0.0
C1670 C 0.81009 0.89114 0.38347 0.0
C1671 C 0.78605 0.86673 0.43388 0.0
H1672 H 0.77282 0.92886 0.44621 0.0
C1673 C 0.70972 0.88292 0.48072 0.0
C1674 C 0.69547 0.89358 0.46566 0.0
C1675 C 0.73268 0.88611 0.47921 0.0
C1676 C 0.77673 0.91146 0.44332 0.0
H1677 H 0.84832 0.8391 0.38478 0.0
H1678 H 0.82584 0.84818 0.41721 0.0
H1679 H 0.80241 0.91939 0.41999 0.0
H1680 H 0.69302 0.91788 0.4393 0.0
H1681 H 0.73308 0.92325 0.4362 0.0
H1682 H 0.75977 0.85867 0.45615 0.0
C1683 C 0.82458 0.8587 0.40264 0.0
C1684 C 0.79343 0.90601 0.42812 0.0
C1685 C 0.83725 0.85331 0.38396 0.0
C1686 C 0.7039 0.90968 0.45114 0.0
C1687 C 0.72688 0.91277 0.44949 0.0
C1688 C 0.76954 0.87215 0.44918 0.0
C1689 C 0.81114 0.8779 0.40273 0.0
C1690 C 0.79732 0.88361 0.4223 0.0
C1691 C 0.74148 0.89952 0.46218 0.0
C1692 C 0.76381 0.89457 0.45305 0.0
H1693 H 0.82264 0.89697 0.3507 0.0
H1694 H 0.79936 0.90563 0.3827 0.0
H1695 H 0.78858 0.84931 0.42983 0.0
H1696 H 0.70335 0.87036 0.492 0.0
H1697 H 0.74357 0.876 0.48945 0.0
C1698 C 0.08719 0.18266 0.67694 0.0
C1699 C 0.10828 0.17877 0.66753 0.0
C1700 C 0.07272 0.19825 0.66742 0.0
C1701 C 0.06444 0.23192 0.61628 0.0
H1702 H 0.05576 0.28124 0.65693 0.0
C1703 C 0.10259 0.31799 0.61983 0.0
C1704 C 0.09804 0.32737 0.59902 0.0
C1705 C 0.08917 0.3011 0.62816 0.0
C1706 C 0.05726 0.26749 0.64533 0.0
H1707 H 0.13054 0.18747 0.64051 0.0
H1708 H 0.10564 0.2147 0.62415 0.0
H1709 H 0.06025 0.24373 0.67159 0.0
H1710 H 0.07536 0.32749 0.57096 0.0
H1711 H 0.05229 0.29666 0.58516 0.0
H1712 H 0.06462 0.25607 0.59026 0.0
C1713 C 0.10003 0.2056 0.63866 0.0
C1714 C 0.05979 0.24597 0.65373 0.0
C1715 C 0.11452 0.19034 0.6483 0.0
C1716 C 0.07928 0.32021 0.58697 0.0
C1717 C 0.066 0.30284 0.59515 0.0
C1718 C 0.06211 0.25346 0.6079 0.0
C1719 C 0.07901 0.20978 0.64811 0.0
C1720 C 0.06567 0.22849 0.63936 0.0
C1721 C 0.07104 0.29296 0.61574 0.0
C1722 C 0.06092 0.2716 0.62262 0.0
H1723 H 0.08193 0.17375 0.69169 0.0
H1724 H 0.05675 0.20143 0.67518 0.0
H1725 H 0.06832 0.21849 0.60485 0.0
H1726 H 0.11669 0.32356 0.62966 0.0
H1727 H 0.09387 0.29352 0.64383 0.0
loop_
_geom_bond_atom_site_label_1
_geom_bond_atom_site_label_2
_geom_bond_distance
_geom_bond_site_symmetry_2
_ccdc_geom_bond_type
Co0 N4 2.148 . S
Co0 N10 2.128 . S
Co0 N20 2.194 . S
Co0 O25 2.351 . S
Co0 O26 2.155 . S
Co0 O27 2.096 . S
C1 N4 1.301 . S
C1 N5 1.328 . S
C1 H6 0.930 . S
C2 C3 1.333 . S
C2 N4 1.317 . S
C2 H7 0.930 . S
C3 C2 1.333 . S
C3 N5 1.350 . S
C3 H29 0.931 . S
N4 Co0 2.148 . S
N4 C1 1.301 . S
N4 C2 1.317 . S
N5 C1 1.328 . S
N5 C3 1.350 . S
H6 C1 0.930 . S
H7 C2 0.930 . S
C8 O9 1.224 . S
C8 O27 1.247 . S
O9 C8 1.224 . S
N10 Co0 2.128 . S
N10 C11 1.355 . S
N10 C13 1.311 . S
C11 N10 1.355 . S
C11 C12 1.363 . S
C11 H23 0.929 . S
C12 C11 1.363 . S
C12 N14 1.375 . S
C12 H30 0.931 . S
C13 N10 1.311 . S
C13 N14 1.347 . S
C13 H24 0.929 . S
N14 C12 1.375 . S
N14 C13 1.347 . S
C15 C18 1.365 . S
C15 N20 1.328 . S
C15 H21 0.929 . S
C16 C17 1.362 . S
C16 C19 1.378 . S
C16 H31 0.929 . S
C17 C16 1.362 . S
C17 C18 1.366 . S
C18 C15 1.365 . S
C18 C17 1.366 . S
C18 H32 0.930 . S
C19 C16 1.378 . S
C19 N20 1.315 . S
C19 H22 0.930 . S
N20 Co0 2.194 . S
N20 C15 1.328 . S
N20 C19 1.315 . S
H21 C15 0.929 . S
H22 C19 0.930 . S
H23 C11 0.929 . S
H24 C13 0.929 . S
O25 Co0 2.351 . S
O25 C28 1.244 . S
O26 Co0 2.155 . S
O26 C28 1.240 . S
O27 Co0 2.096 . S
O27 C8 1.247 . S
C28 O25 1.244 . S
C28 O26 1.240 . S
H29 C3 0.931 . S
H30 C12 0.931 . S
H31 C16 0.929 . S
H32 C18 0.930 . S
Co33 N37 2.148 . S
Co33 N43 2.128 . S
Co33 N53 2.194 . S
Co33 O58 2.351 . S
Co33 O59 2.155 . S
Co33 O60 2.096 . S
C34 N37 1.301 . S
C34 N38 1.328 . S
C34 H39 0.930 . S
C35 C36 1.333 . S
C35 N37 1.317 . S
C35 H40 0.930 . S
C36 C35 1.333 . S
C36 N38 1.350 . S
C36 H62 0.931 . S
N37 Co33 2.148 . S
N37 C34 1.301 . S
N37 C35 1.317 . S
N38 C34 1.328 . S
N38 C36 1.350 . S
H39 C34 0.930 . S
H40 C35 0.930 . S
C41 O42 1.224 . S
C41 O60 1.247 . S
O42 C41 1.224 . S
N43 Co33 2.128 . S
N43 C44 1.355 . S
N43 C46 1.311 . S
C44 N43 1.355 . S
C44 C45 1.363 . S
C44 H56 0.929 . S
C45 C44 1.363 . S
C45 N47 1.375 . S
C45 H63 0.931 . S
C46 N43 1.311 . S
C46 N47 1.347 . S
C46 H57 0.929 . S
N47 C45 1.375 . S
N47 C46 1.347 . S
C48 C51 1.365 . S
C48 N53 1.328 . S
C48 H54 0.929 . S
C49 C50 1.362 . S
C49 C52 1.378 . S
C49 H64 0.929 . S
C50 C49 1.362 . S
C50 C51 1.366 . S
C51 C48 1.365 . S
C51 C50 1.366 . S
C51 H65 0.930 . S
C52 C49 1.378 . S
C52 N53 1.315 . S
C52 H55 0.930 . S
N53 Co33 2.194 . S
N53 C48 1.328 . S
N53 C52 1.315 . S
H54 C48 0.929 . S
H55 C52 0.930 . S
H56 C44 0.929 . S
H57 C46 0.929 . S
O58 Co33 2.351 . S
O58 C61 1.244 . S
O59 Co33 2.155 . S
O59 C61 1.240 . S
O60 Co33 2.096 . S
O60 C41 1.247 . S
C61 O58 1.244 . S
C61 O59 1.240 . S
H62 C36 0.931 . S
H63 C45 0.931 . S
H64 C49 0.929 . S
H65 C51 0.930 . S
Co66 N70 2.148 . S
Co66 N76 2.128 . S
Co66 N86 2.194 . S
Co66 O91 2.351 . S
Co66 O92 2.155 . S
Co66 O93 2.096 . S
C67 N70 1.301 . S
C67 N71 1.328 . S
C67 H72 0.930 . S
C68 C69 1.333 . S
C68 N70 1.317 . S
C68 H73 0.930 . S
C69 C68 1.333 . S
C69 N71 1.350 . S
C69 H95 0.931 . S
N70 Co66 2.148 . S
N70 C67 1.301 . S
N70 C68 1.317 . S
N71 C67 1.328 . S
N71 C69 1.350 . S
H72 C67 0.930 . S
H73 C68 0.930 . S
C74 O75 1.224 . S
C74 O93 1.247 . S
O75 C74 1.224 . S
N76 Co66 2.128 . S
N76 C77 1.355 . S
N76 C79 1.311 . S
C77 N76 1.355 . S
C77 C78 1.363 . S
C77 H89 0.929 . S
C78 C77 1.363 . S
C78 N80 1.375 . S
C78 H96 0.931 . S
C79 N76 1.311 . S
C79 N80 1.347 . S
C79 H90 0.929 . S
N80 C78 1.375 . S
N80 C79 1.347 . S
C81 C84 1.365 . S
C81 N86 1.328 . S
C81 H87 0.929 . S
C82 C83 1.362 . S
C82 C85 1.378 . S
C82 H97 0.929 . S
C83 C82 1.362 . S
C83 C84 1.366 . S
C84 C81 1.365 . S
C84 C83 1.366 . S
C84 H98 0.930 . S
C85 C82 1.378 . S
C85 N86 1.315 . S
C85 H88 0.930 . S
N86 Co66 2.194 . S
N86 C81 1.328 . S
N86 C85 1.315 . S
H87 C81 0.929 . S
H88 C85 0.930 . S
H89 C77 0.929 . S
H90 C79 0.929 . S
O91 Co66 2.351 . S
O91 C94 1.244 . S
O92 Co66 2.155 . S
O92 C94 1.240 . S
O93 Co66 2.096 . S
O93 C74 1.247 . S
C94 O91 1.244 . S
C94 O92 1.240 . S
H95 C69 0.931 . S
H96 C78 0.931 . S
H97 C82 0.929 . S
H98 C84 0.930 . S
Co99 N103 2.148 . S
Co99 N109 2.128 . S
Co99 N119 2.194 . S
Co99 O124 2.351 . S
Co99 O125 2.155 . S
Co99 O126 2.096 . S
C100 N103 1.301 . S
C100 N104 1.328 . S
C100 H105 0.930 . S
C101 C102 1.333 . S
C101 N103 1.317 . S
C101 H106 0.930 . S
C102 C101 1.333 . S
C102 N104 1.350 . S
C102 H128 0.931 . S
N103 Co99 2.148 . S
N103 C100 1.301 . S
N103 C101 1.317 . S
N104 C100 1.328 . S
N104 C102 1.350 . S
H105 C100 0.930 . S
H106 C101 0.930 . S
C107 O108 1.224 . S
C107 O126 1.247 . S
O108 C107 1.224 . S
N109 Co99 2.128 . S
N109 C110 1.355 . S
N109 C112 1.311 . S
C110 N109 1.355 . S
C110 C111 1.363 . S
C110 H122 0.929 . S
C111 C110 1.363 . S
C111 N113 1.375 . S
C111 H129 0.931 . S
C112 N109 1.311 . S
C112 N113 1.347 . S
C112 H123 0.929 . S
N113 C111 1.375 . S
N113 C112 1.347 . S
C114 C117 1.365 . S
C114 N119 1.328 . S
C114 H120 0.929 . S
C115 C116 1.362 . S
C115 C118 1.378 . S
C115 H130 0.929 . S
C116 C115 1.362 . S
C116 C117 1.366 . S
C117 C114 1.365 . S
C117 C116 1.366 . S
C117 H131 0.930 . S
C118 C115 1.378 . S
C118 N119 1.315 . S
C118 H121 0.930 . S
N119 Co99 2.194 . S
N119 C114 1.328 . S
N119 C118 1.315 . S
H120 C114 0.929 . S
H121 C118 0.930 . S
H122 C110 0.929 . S
H123 C112 0.929 . S
O124 Co99 2.351 . S
O124 C127 1.244 . S
O125 Co99 2.155 . S
O125 C127 1.240 . S
O126 Co99 2.096 . S
O126 C107 1.247 . S
C127 O124 1.244 . S
C127 O125 1.240 . S
H128 C102 0.931 . S
H129 C111 0.931 . S
H130 C115 0.929 . S
H131 C117 0.930 . S
Co132 N136 2.148 . S
Co132 N142 2.128 . S
Co132 N152 2.194 . S
Co132 O157 2.351 . S
Co132 O158 2.155 . S
Co132 O159 2.096 . S
C133 N136 1.301 . S
C133 N137 1.328 . S
C133 H138 0.930 . S
C134 C135 1.333 . S
C134 N136 1.317 . S
C134 H139 0.930 . S
C135 C134 1.333 . S
C135 N137 1.350 . S
C135 H161 0.931 . S
N136 Co132 2.148 . S
N136 C133 1.301 . S
N136 C134 1.317 . S
N137 C133 1.328 . S
N137 C135 1.350 . S
H138 C133 0.930 . S
H139 C134 0.930 . S
C140 O141 1.224 . S
C140 O159 1.247 . S
O141 C140 1.224 . S
N142 Co132 2.128 . S
N142 C143 1.355 . S
N142 C145 1.311 . S
C143 N142 1.355 . S
C143 C144 1.363 . S
C143 H155 0.929 . S
C144 C143 1.363 . S
C144 N146 1.375 . S
C144 H162 0.931 . S
C145 N142 1.311 . S
C145 N146 1.347 . S
C145 H156 0.929 . S
N146 C144 1.375 . S
N146 C145 1.347 . S
C147 C150 1.365 . S
C147 N152 1.328 . S
C147 H153 0.929 . S
C148 C149 1.362 . S
C148 C151 1.378 . S
C148 H163 0.929 . S
C149 C148 1.362 . S
C149 C150 1.366 . S
C150 C147 1.365 . S
C150 C149 1.366 . S
C150 H164 0.930 . S
C151 C148 1.378 . S
C151 N152 1.315 . S
C151 H154 0.930 . S
N152 Co132 2.194 . S
N152 C147 1.328 . S
N152 C151 1.315 . S
H153 C147 0.929 . S
H154 C151 0.930 . S
H155 C143 0.929 . S
H156 C145 0.929 . S
O157 Co132 2.351 . S
O157 C160 1.244 . S
O158 Co132 2.155 . S
O158 C160 1.240 . S
O159 Co132 2.096 . S
O159 C140 1.247 . S
C160 O157 1.244 . S
C160 O158 1.240 . S
H161 C135 0.931 . S
H162 C144 0.931 . S
H163 C148 0.929 . S
H164 C150 0.930 . S
Co165 N169 2.148 . S
Co165 N175 2.128 . S
Co165 N185 2.194 . S
Co165 O190 2.351 . S
Co165 O191 2.155 . S
Co165 O192 2.096 . S
C166 N169 1.301 . S
C166 N170 1.328 . S
C166 H171 0.930 . S
C167 C168 1.333 . S
C167 N169 1.317 . S
C167 H172 0.930 . S
C168 C167 1.333 . S
C168 N170 1.350 . S
C168 H194 0.931 . S
N169 Co165 2.148 . S
N169 C166 1.301 . S
N169 C167 1.317 . S
N170 C166 1.328 . S
N170 C168 1.350 . S
H171 C166 0.930 . S
H172 C167 0.930 . S
C173 O174 1.224 . S
C173 O192 1.247 . S
O174 C173 1.224 . S
N175 Co165 2.128 . S
N175 C176 1.355 . S
N175 C178 1.311 . S
C176 N175 1.355 . S
C176 C177 1.363 . S
C176 H188 0.929 . S
C177 C176 1.363 . S
C177 N179 1.375 . S
C177 H195 0.931 . S
C178 N175 1.311 . S
C178 N179 1.347 . S
C178 H189 0.929 . S
N179 C177 1.375 . S
N179 C178 1.347 . S
C180 C183 1.365 . S
C180 N185 1.328 . S
C180 H186 0.929 . S
C181 C182 1.362 . S
C181 C184 1.378 . S
C181 H196 0.929 . S
C182 C181 1.362 . S
C182 C183 1.366 . S
C183 C180 1.365 . S
C183 C182 1.366 . S
C183 H197 0.930 . S
C184 C181 1.378 . S
C184 N185 1.315 . S
C184 H187 0.930 . S
N185 Co165 2.194 . S
N185 C180 1.328 . S
N185 C184 1.315 . S
H186 C180 0.929 . S
H187 C184 0.930 . S
H188 C176 0.929 . S
H189 C178 0.929 . S
O190 Co165 2.351 . S
O190 C193 1.244 . S
O191 Co165 2.155 . S
O191 C193 1.240 . S
O192 Co165 2.096 . S
O192 C173 1.247 . S
C193 O190 1.244 . S
C193 O191 1.240 . S
H194 C168 0.931 . S
H195 C177 0.931 . S
H196 C181 0.929 . S
H197 C183 0.930 . S
Co198 N202 2.148 . S
Co198 N208 2.128 . S
Co198 N218 2.194 . S
Co198 O223 2.351 . S
Co198 O224 2.155 . S
Co198 O225 2.096 . S
C199 N202 1.301 . S
C199 N203 1.328 . S
C199 H204 0.930 . S
C200 C201 1.333 . S
C200 N202 1.317 . S
C200 H205 0.930 . S
C201 C200 1.333 . S
C201 N203 1.350 . S
C201 H227 0.931 . S
N202 Co198 2.148 . S
N202 C199 1.301 . S
N202 C200 1.317 . S
N203 C199 1.328 . S
N203 C201 1.350 . S
H204 C199 0.930 . S
H205 C200 0.930 . S
C206 O207 1.224 . S
C206 O225 1.247 . S
O207 C206 1.224 . S
N208 Co198 2.128 . S
N208 C209 1.355 . S
N208 C211 1.311 . S
C209 N208 1.355 . S
C209 C210 1.363 . S
C209 H221 0.929 . S
C210 C209 1.363 . S
C210 N212 1.375 . S
C210 H228 0.931 . S
C211 N208 1.311 . S
C211 N212 1.347 . S
C211 H222 0.929 . S
N212 C210 1.375 . S
N212 C211 1.347 . S
C213 C216 1.365 . S
C213 N218 1.328 . S
C213 H219 0.929 . S
C214 C215 1.362 . S
C214 C217 1.378 . S
C214 H229 0.929 . S
C215 C214 1.362 . S
C215 C216 1.366 . S
C216 C213 1.365 . S
C216 C215 1.366 . S
C216 H230 0.930 . S
C217 C214 1.378 . S
C217 N218 1.315 . S
C217 H220 0.930 . S
N218 Co198 2.194 . S
N218 C213 1.328 . S
N218 C217 1.315 . S
H219 C213 0.929 . S
H220 C217 0.930 . S
H221 C209 0.929 . S
H222 C211 0.929 . S
O223 Co198 2.351 . S
O223 C226 1.244 . S
O224 Co198 2.155 . S
O224 C226 1.240 . S
O225 Co198 2.096 . S
O225 C206 1.247 . S
C226 O223 1.244 . S
C226 O224 1.240 . S
H227 C201 0.931 . S
H228 C210 0.931 . S
H229 C214 0.929 . S
H230 C216 0.930 . S
Co231 N235 2.148 . S
Co231 N241 2.128 . S
Co231 N251 2.194 . S
Co231 O256 2.351 . S
Co231 O257 2.155 . S
Co231 O258 2.096 . S
C232 N235 1.301 . S
C232 N236 1.328 . S
C232 H237 0.930 . S
C233 C234 1.333 . S
C233 N235 1.317 . S
C233 H238 0.930 . S
C234 C233 1.333 . S
C234 N236 1.350 . S
C234 H260 0.931 . S
N235 Co231 2.148 . S
N235 C232 1.301 . S
N235 C233 1.317 . S
N236 C232 1.328 . S
N236 C234 1.350 . S
H237 C232 0.930 . S
H238 C233 0.930 . S
C239 O240 1.224 . S
C239 O258 1.247 . S
O240 C239 1.224 . S
N241 Co231 2.128 . S
N241 C242 1.355 . S
N241 C244 1.311 . S
C242 N241 1.355 . S
C242 C243 1.363 . S
C242 H254 0.929 . S
C243 C242 1.363 . S
C243 N245 1.375 . S
C243 H261 0.931 . S
C244 N241 1.311 . S
C244 N245 1.347 . S
C244 H255 0.929 . S
N245 C243 1.375 . S
N245 C244 1.347 . S
C246 C249 1.365 . S
C246 N251 1.328 . S
C246 H252 0.929 . S
C247 C248 1.362 . S
C247 C250 1.378 . S
C247 H262 0.929 . S
C248 C247 1.362 . S
C248 C249 1.366 . S
C249 C246 1.365 . S
C249 C248 1.366 . S
C249 H263 0.930 . S
C250 C247 1.378 . S
C250 N251 1.315 . S
C250 H253 0.930 . S
N251 Co231 2.194 . S
N251 C246 1.328 . S
N251 C250 1.315 . S
H252 C246 0.929 . S
H253 C250 0.930 . S
H254 C242 0.929 . S
H255 C244 0.929 . S
O256 Co231 2.351 . S
O256 C259 1.244 . S
O257 Co231 2.155 . S
O257 C259 1.240 . S
O258 Co231 2.096 . S
O258 C239 1.247 . S
C259 O256 1.244 . S
C259 O257 1.240 . S
H260 C234 0.931 . S
H261 C243 0.931 . S
H262 C247 0.929 . S
H263 C249 0.930 . S
Co264 N268 2.148 . S
Co264 N274 2.128 . S
Co264 N284 2.194 . S
Co264 O289 2.351 . S
Co264 O290 2.155 . S
Co264 O291 2.096 . S
C265 N268 1.301 . S
C265 N269 1.328 . S
C265 H270 0.930 . S
C266 C267 1.333 . S
C266 N268 1.317 . S
C266 H271 0.930 . S
C267 C266 1.333 . S
C267 N269 1.350 . S
C267 H293 0.931 . S
N268 Co264 2.148 . S
N268 C265 1.301 . S
N268 C266 1.317 . S
N269 C265 1.328 . S
N269 C267 1.350 . S
H270 C265 0.930 . S
H271 C266 0.930 . S
C272 O273 1.224 . S
C272 O291 1.247 . S
O273 C272 1.224 . S
N274 Co264 2.128 . S
N274 C275 1.355 . S
N274 C277 1.311 . S
C275 N274 1.355 . S
C275 C276 1.363 . S
C275 H287 0.929 . S
C276 C275 1.363 . S
C276 N278 1.375 . S
C276 H294 0.931 . S
C277 N274 1.311 . S
C277 N278 1.347 . S
C277 H288 0.929 . S
N278 C276 1.375 . S
N278 C277 1.347 . S
C279 C282 1.365 . S
C279 N284 1.328 . S
C279 H285 0.929 . S
C280 C281 1.362 . S
C280 C283 1.378 . S
C280 H295 0.929 . S
C281 C280 1.362 . S
C281 C282 1.366 . S
C282 C279 1.365 . S
C282 C281 1.366 . S
C282 H296 0.930 . S
C283 C280 1.378 . S
C283 N284 1.315 . S
C283 H286 0.930 . S
N284 Co264 2.194 . S
N284 C279 1.328 . S
N284 C283 1.315 . S
H285 C279 0.929 . S
H286 C283 0.930 . S
H287 C275 0.929 . S
H288 C277 0.929 . S
O289 Co264 2.351 . S
O289 C292 1.244 . S
O290 Co264 2.155 . S
O290 C292 1.240 . S
O291 Co264 2.096 . S
O291 C272 1.247 . S
C292 O289 1.244 . S
C292 O290 1.240 . S
H293 C267 0.931 . S
H294 C276 0.931 . S
H295 C280 0.929 . S
H296 C282 0.930 . S
Co297 N301 2.148 . S
Co297 N307 2.128 . S
Co297 N317 2.194 . S
Co297 O322 2.351 . S
Co297 O323 2.155 . S
Co297 O324 2.096 . S
C298 N301 1.301 . S
C298 N302 1.328 . S
C298 H303 0.930 . S
C299 C300 1.333 . S
C299 N301 1.317 . S
C299 H304 0.930 . S
C300 C299 1.333 . S
C300 N302 1.350 . S
C300 H326 0.931 . S
N301 Co297 2.148 . S
N301 C298 1.301 . S
N301 C299 1.317 . S
N302 C298 1.328 . S
N302 C300 1.350 . S
H303 C298 0.930 . S
H304 C299 0.930 . S
C305 O306 1.224 . S
C305 O324 1.247 . S
O306 C305 1.224 . S
N307 Co297 2.128 . S
N307 C308 1.355 . S
N307 C310 1.311 . S
C308 N307 1.355 . S
C308 C309 1.363 . S
C308 H320 0.929 . S
C309 C308 1.363 . S
C309 N311 1.375 . S
C309 H327 0.931 . S
C310 N307 1.311 . S
C310 N311 1.347 . S
C310 H321 0.929 . S
N311 C309 1.375 . S
N311 C310 1.347 . S
C312 C315 1.365 . S
C312 N317 1.328 . S
C312 H318 0.929 . S
C313 C314 1.362 . S
C313 C316 1.378 . S
C313 H328 0.929 . S
C314 C313 1.362 . S
C314 C315 1.366 . S
C315 C312 1.365 . S
C315 C314 1.366 . S
C315 H329 0.930 . S
C316 C313 1.378 . S
C316 N317 1.315 . S
C316 H319 0.930 . S
N317 Co297 2.194 . S
N317 C312 1.328 . S
N317 C316 1.315 . S
H318 C312 0.929 . S
H319 C316 0.930 . S
H320 C308 0.929 . S
H321 C310 0.929 . S
O322 Co297 2.351 . S
O322 C325 1.244 . S
O323 Co297 2.155 . S
O323 C325 1.240 . S
O324 Co297 2.096 . S
O324 C305 1.247 . S
C325 O322 1.244 . S
C325 O323 1.240 . S
H326 C300 0.931 . S
H327 C309 0.931 . S
H328 C313 0.929 . S
H329 C315 0.930 . S
Co330 N334 2.148 . S
Co330 N340 2.128 . S
Co330 N350 2.194 . S
Co330 O355 2.351 . S
Co330 O356 2.155 . S
Co330 O357 2.096 . S
C331 N334 1.301 . S
C331 N335 1.328 . S
C331 H336 0.930 . S
C332 C333 1.333 . S
C332 N334 1.317 . S
C332 H337 0.930 . S
C333 C332 1.333 . S
C333 N335 1.350 . S
C333 H359 0.931 . S
N334 Co330 2.148 . S
N334 C331 1.301 . S
N334 C332 1.317 . S
N335 C331 1.328 . S
N335 C333 1.350 . S
H336 C331 0.930 . S
H337 C332 0.930 . S
C338 O339 1.224 . S
C338 O357 1.247 . S
O339 C338 1.224 . S
N340 Co330 2.128 . S
N340 C341 1.355 . S
N340 C343 1.311 . S
C341 N340 1.355 . S
C341 C342 1.363 . S
C341 H353 0.929 . S
C342 C341 1.363 . S
C342 N344 1.375 . S
C342 H360 0.931 . S
C343 N340 1.311 . S
C343 N344 1.347 . S
C343 H354 0.929 . S
N344 C342 1.375 . S
N344 C343 1.347 . S
C345 C348 1.365 . S
C345 N350 1.328 . S
C345 H351 0.929 . S
C346 C347 1.362 . S
C346 C349 1.378 . S
C346 H361 0.929 . S
C347 C346 1.362 . S
C347 C348 1.366 . S
C348 C345 1.365 . S
C348 C347 1.366 . S
C348 H362 0.930 . S
C349 C346 1.378 . S
C349 N350 1.315 . S
C349 H352 0.930 . S
N350 Co330 2.194 . S
N350 C345 1.328 . S
N350 C349 1.315 . S
H351 C345 0.929 . S
H352 C349 0.930 . S
H353 C341 0.929 . S
H354 C343 0.929 . S
O355 Co330 2.351 . S
O355 C358 1.244 . S
O356 Co330 2.155 . S
O356 C358 1.240 . S
O357 Co330 2.096 . S
O357 C338 1.247 . S
C358 O355 1.244 . S
C358 O356 1.240 . S
H359 C333 0.931 . S
H360 C342 0.931 . S
H361 C346 0.929 . S
H362 C348 0.930 . S
Co363 N367 2.148 . S
Co363 N373 2.128 . S
Co363 N383 2.194 . S
Co363 O388 2.351 . S
Co363 O389 2.155 . S
Co363 O390 2.096 . S
C364 N367 1.301 . S
C364 N368 1.328 . S
C364 H369 0.930 . S
C365 C366 1.333 . S
C365 N367 1.317 . S
C365 H370 0.930 . S
C366 C365 1.333 . S
C366 N368 1.350 . S
C366 H392 0.931 . S
N367 Co363 2.148 . S
N367 C364 1.301 . S
N367 C365 1.317 . S
N368 C364 1.328 . S
N368 C366 1.350 . S
H369 C364 0.930 . S
H370 C365 0.930 . S
C371 O372 1.224 . S
C371 O390 1.247 . S
O372 C371 1.224 . S
N373 Co363 2.128 . S
N373 C374 1.355 . S
N373 C376 1.311 . S
C374 N373 1.355 . S
C374 C375 1.363 . S
C374 H386 0.929 . S
C375 C374 1.363 . S
C375 N377 1.375 . S
C375 H393 0.931 . S
C376 N373 1.311 . S
C376 N377 1.347 . S
C376 H387 0.929 . S
N377 C375 1.375 . S
N377 C376 1.347 . S
C378 C381 1.365 . S
C378 N383 1.328 . S
C378 H384 0.929 . S
C379 C380 1.362 . S
C379 C382 1.378 . S
C379 H394 0.929 . S
C380 C379 1.362 . S
C380 C381 1.366 . S
C381 C378 1.365 . S
C381 C380 1.366 . S
C381 H395 0.930 . S
C382 C379 1.378 . S
C382 N383 1.315 . S
C382 H385 0.930 . S
N383 Co363 2.194 . S
N383 C378 1.328 . S
N383 C382 1.315 . S
H384 C378 0.929 . S
H385 C382 0.930 . S
H386 C374 0.929 . S
H387 C376 0.929 . S
O388 Co363 2.351 . S
O388 C391 1.244 . S
O389 Co363 2.155 . S
O389 C391 1.240 . S
O390 Co363 2.096 . S
O390 C371 1.247 . S
C391 O388 1.244 . S
C391 O389 1.240 . S
H392 C366 0.931 . S
H393 C375 0.931 . S
H394 C379 0.929 . S
H395 C381 0.930 . S
Co396 N400 2.148 . S
Co396 N406 2.128 . S
Co396 N416 2.194 . S
Co396 O421 2.351 . S
Co396 O422 2.155 . S
Co396 O423 2.096 . S
C397 N400 1.301 . S
C397 N401 1.328 . S
C397 H402 0.930 . S
C398 C399 1.333 . S
C398 N400 1.317 . S
C398 H403 0.930 . S
C399 C398 1.333 . S
C399 N401 1.350 . S
C399 H425 0.931 . S
N400 Co396 2.148 . S
N400 C397 1.301 . S
N400 C398 1.317 . S
N401 C397 1.328 . S
N401 C399 1.350 . S
H402 C397 0.930 . S
H403 C398 0.930 . S
C404 O405 1.224 . S
C404 O423 1.247 . S
O405 C404 1.224 . S
N406 Co396 2.128 . S
N406 C407 1.355 . S
N406 C409 1.311 . S
C407 N406 1.355 . S
C407 C408 1.363 . S
C407 H419 0.929 . S
C408 C407 1.363 . S
C408 N410 1.375 . S
C408 H426 0.931 . S
C409 N406 1.311 . S
C409 N410 1.347 . S
C409 H420 0.929 . S
N410 C408 1.375 . S
N410 C409 1.347 . S
C411 C414 1.365 . S
C411 N416 1.328 . S
C411 H417 0.929 . S
C412 C413 1.362 . S
C412 C415 1.378 . S
C412 H427 0.929 . S
C413 C412 1.362 . S
C413 C414 1.366 . S
C414 C411 1.365 . S
C414 C413 1.366 . S
C414 H428 0.930 . S
C415 C412 1.378 . S
C415 N416 1.315 . S
C415 H418 0.930 . S
N416 Co396 2.194 . S
N416 C411 1.328 . S
N416 C415 1.315 . S
H417 C411 0.929 . S
H418 C415 0.930 . S
H419 C407 0.929 . S
H420 C409 0.929 . S
O421 Co396 2.351 . S
O421 C424 1.244 . S
O422 Co396 2.155 . S
O422 C424 1.240 . S
O423 Co396 2.096 . S
O423 C404 1.247 . S
C424 O421 1.244 . S
C424 O422 1.240 . S
H425 C399 0.931 . S
H426 C408 0.931 . S
H427 C412 0.929 . S
H428 C414 0.930 . S
Co429 N433 2.148 . S
Co429 N439 2.128 . S
Co429 N449 2.194 . S
Co429 O454 2.351 . S
Co429 O455 2.155 . S
Co429 O456 2.096 . S
C430 N433 1.301 . S
C430 N434 1.328 . S
C430 H435 0.930 . S
C431 C432 1.333 . S
C431 N433 1.317 . S
C431 H436 0.930 . S
C432 C431 1.333 . S
C432 N434 1.350 . S
C432 H458 0.931 . S
N433 Co429 2.148 . S
N433 C430 1.301 . S
N433 C431 1.317 . S
N434 C430 1.328 . S
N434 C432 1.350 . S
H435 C430 0.930 . S
H436 C431 0.930 . S
C437 O438 1.224 . S
C437 O456 1.247 . S
O438 C437 1.224 . S
N439 Co429 2.128 . S
N439 C440 1.355 . S
N439 C442 1.311 . S
C440 N439 1.355 . S
C440 C441 1.363 . S
C440 H452 0.929 . S
C441 C440 1.363 . S
C441 N443 1.375 . S
C441 H459 0.931 . S
C442 N439 1.311 . S
C442 N443 1.347 . S
C442 H453 0.929 . S
N443 C441 1.375 . S
N443 C442 1.347 . S
C444 C447 1.365 . S
C444 N449 1.328 . S
C444 H450 0.929 . S
C445 C446 1.362 . S
C445 C448 1.378 . S
C445 H460 0.929 . S
C446 C445 1.362 . S
C446 C447 1.366 . S
C447 C444 1.365 . S
C447 C446 1.366 . S
C447 H461 0.930 . S
C448 C445 1.378 . S
C448 N449 1.315 . S
C448 H451 0.930 . S
N449 Co429 2.194 . S
N449 C444 1.328 . S
N449 C448 1.315 . S
H450 C444 0.929 . S
H451 C448 0.930 . S
H452 C440 0.929 . S
H453 C442 0.929 . S
O454 Co429 2.351 . S
O454 C457 1.244 . S
O455 Co429 2.155 . S
O455 C457 1.240 . S
O456 Co429 2.096 . S
O456 C437 1.247 . S
C457 O454 1.244 . S
C457 O455 1.240 . S
H458 C432 0.931 . S
H459 C441 0.931 . S
H460 C445 0.929 . S
H461 C447 0.930 . S
Co462 N466 2.148 . S
Co462 N472 2.128 . S
Co462 N482 2.194 . S
Co462 O487 2.351 . S
Co462 O488 2.155 . S
Co462 O489 2.096 . S
C463 N466 1.301 . S
C463 N467 1.328 . S
C463 H468 0.930 . S
C464 C465 1.333 . S
C464 N466 1.317 . S
C464 H469 0.930 . S
C465 C464 1.333 . S
C465 N467 1.350 . S
C465 H491 0.931 . S
N466 Co462 2.148 . S
N466 C463 1.301 . S
N466 C464 1.317 . S
N467 C463 1.328 . S
N467 C465 1.350 . S
H468 C463 0.930 . S
H469 C464 0.930 . S
C470 O471 1.224 . S
C470 O489 1.247 . S
O471 C470 1.224 . S
N472 Co462 2.128 . S
N472 C473 1.355 . S
N472 C475 1.311 . S
C473 N472 1.355 . S
C473 C474 1.363 . S
C473 H485 0.929 . S
C474 C473 1.363 . S
C474 N476 1.375 . S
C474 H492 0.931 . S
C475 N472 1.311 . S
C475 N476 1.347 . S
C475 H486 0.929 . S
N476 C474 1.375 . S
N476 C475 1.347 . S
C477 C480 1.365 . S
C477 N482 1.328 . S
C477 H483 0.929 . S
C478 C479 1.362 . S
C478 C481 1.378 . S
C478 H493 0.929 . S
C479 C478 1.362 . S
C479 C480 1.366 . S
C480 C477 1.365 . S
C480 C479 1.366 . S
C480 H494 0.930 . S
C481 C478 1.378 . S
C481 N482 1.315 . S
C481 H484 0.930 . S
N482 Co462 2.194 . S
N482 C477 1.328 . S
N482 C481 1.315 . S
H483 C477 0.929 . S
H484 C481 0.930 . S
H485 C473 0.929 . S
H486 C475 0.929 . S
O487 Co462 2.351 . S
O487 C490 1.244 . S
O488 Co462 2.155 . S
O488 C490 1.240 . S
O489 Co462 2.096 . S
O489 C470 1.247 . S
C490 O487 1.244 . S
C490 O488 1.240 . S
H491 C465 0.931 . S
H492 C474 0.931 . S
H493 C478 0.929 . S
H494 C480 0.930 . S
Co495 N499 2.148 . S
Co495 N505 2.128 . S
Co495 N515 2.194 . S
Co495 O520 2.351 . S
Co495 O521 2.155 . S
Co495 O522 2.096 . S
C496 N499 1.301 . S
C496 N500 1.328 . S
C496 H501 0.930 . S
C497 C498 1.333 . S
C497 N499 1.317 . S
C497 H502 0.930 . S
C498 C497 1.333 . S
C498 N500 1.350 . S
C498 H524 0.931 . S
N499 Co495 2.148 . S
N499 C496 1.301 . S
N499 C497 1.317 . S
N500 C496 1.328 . S
N500 C498 1.350 . S
H501 C496 0.930 . S
H502 C497 0.930 . S
C503 O504 1.224 . S
C503 O522 1.247 . S
O504 C503 1.224 . S
N505 Co495 2.128 . S
N505 C506 1.355 . S
N505 C508 1.311 . S
C506 N505 1.355 . S
C506 C507 1.363 . S
C506 H518 0.929 . S
C507 C506 1.363 . S
C507 N509 1.375 . S
C507 H525 0.931 . S
C508 N505 1.311 . S
C508 N509 1.347 . S
C508 H519 0.929 . S
N509 C507 1.375 . S
N509 C508 1.347 . S
C510 C513 1.365 . S
C510 N515 1.328 . S
C510 H516 0.929 . S
C511 C512 1.362 . S
C511 C514 1.378 . S
C511 H526 0.929 . S
C512 C511 1.362 . S
C512 C513 1.366 . S
C513 C510 1.365 . S
C513 C512 1.366 . S
C513 H527 0.930 . S
C514 C511 1.378 . S
C514 N515 1.315 . S
C514 H517 0.930 . S
N515 Co495 2.194 . S
N515 C510 1.328 . S
N515 C514 1.315 . S
H516 C510 0.929 . S
H517 C514 0.930 . S
H518 C506 0.929 . S
H519 C508 0.929 . S
O520 Co495 2.351 . S
O520 C523 1.244 . S
O521 Co495 2.155 . S
O521 C523 1.240 . S
O522 Co495 2.096 . S
O522 C503 1.247 . S
C523 O520 1.244 . S
C523 O521 1.240 . S
H524 C498 0.931 . S
H525 C507 0.931 . S
H526 C511 0.929 . S
H527 C513 0.930 . S
C528 C529 1.349 . S
C528 C530 1.327 . S
C528 H553 0.950 . S
C529 C528 1.349 . S
C529 C545 1.349 . S
C530 C528 1.327 . S
C530 C549 1.429 . S
C530 H554 0.950 . S
C531 C548 1.574 . S
C531 C550 1.368 . S
C531 H555 0.949 . S
H532 C536 0.949 . S
C533 C534 1.349 . S
C533 C535 1.327 . S
C533 H556 0.950 . S
C534 C533 1.349 . S
C534 C546 1.349 . S
C535 C533 1.327 . S
C535 C551 1.429 . S
C535 H557 0.950 . S
C536 H532 0.949 . S
C536 C544 1.574 . S
C536 C552 1.368 . S
H537 C545 0.950 . S
H538 C543 0.950 . S
H539 C544 0.949 . S
H540 C546 0.950 . S
H541 C547 0.950 . S
H542 C548 0.949 . S
C543 H538 0.950 . S
C543 C545 1.327 . S
C543 C549 1.429 . S
C544 C536 1.574 . S
C544 H539 0.949 . S
C544 C550 1.368 . S
C545 C529 1.349 . S
C545 H537 0.950 . S
C545 C543 1.327 . S
C546 C534 1.349 . S
C546 H540 0.950 . S
C546 C547 1.327 . S
C547 H541 0.950 . S
C547 C546 1.327 . S
C547 C551 1.429 . S
C548 C531 1.574 . S
C548 H542 0.949 . S
C548 C552 1.368 . S
C549 C530 1.429 . S
C549 C543 1.429 . S
C549 C550 1.523 . S
C550 C531 1.368 . S
C550 C544 1.368 . S
C550 C549 1.523 . S
C551 C535 1.429 . S
C551 C547 1.429 . S
C551 C552 1.523 . S
C552 C536 1.368 . S
C552 C548 1.368 . S
C552 C551 1.523 . S
H553 C528 0.950 . S
H554 C530 0.950 . S
H555 C531 0.949 . S
H556 C533 0.950 . S
H557 C535 0.950 . S
C558 C559 1.349 . S
C558 C560 1.327 . S
C558 H583 0.950 . S
C559 C558 1.349 . S
C559 C575 1.349 . S
C560 C558 1.327 . S
C560 C579 1.429 . S
C560 H584 0.950 . S
C561 C578 1.574 . S
C561 C580 1.368 . S
C561 H585 0.949 . S
H562 C566 0.949 . S
C563 C564 1.349 . S
C563 C565 1.327 . S
C563 H586 0.950 . S
C564 C563 1.349 . S
C564 C576 1.349 . S
C565 C563 1.327 . S
C565 C581 1.429 . S
C565 H587 0.950 . S
C566 H562 0.949 . S
C566 C574 1.574 . S
C566 C582 1.368 . S
H567 C575 0.950 . S
H568 C573 0.950 . S
H569 C574 0.949 . S
H570 C576 0.950 . S
H571 C577 0.950 . S
H572 C578 0.949 . S
C573 H568 0.950 . S
C573 C575 1.327 . S
C573 C579 1.429 . S
C574 C566 1.574 . S
C574 H569 0.949 . S
C574 C580 1.368 . S
C575 C559 1.349 . S
C575 H567 0.950 . S
C575 C573 1.327 . S
C576 C564 1.349 . S
C576 H570 0.950 . S
C576 C577 1.327 . S
C577 H571 0.950 . S
C577 C576 1.327 . S
C577 C581 1.429 . S
C578 C561 1.574 . S
C578 H572 0.949 . S
C578 C582 1.368 . S
C579 C560 1.429 . S
C579 C573 1.429 . S
C579 C580 1.523 . S
C580 C561 1.368 . S
C580 C574 1.368 . S
C580 C579 1.523 . S
C581 C565 1.429 . S
C581 C577 1.429 . S
C581 C582 1.523 . S
C582 C566 1.368 . S
C582 C578 1.368 . S
C582 C581 1.523 . S
H583 C558 0.950 . S
H584 C560 0.950 . S
H585 C561 0.949 . S
H586 C563 0.950 . S
H587 C565 0.950 . S
C588 C589 1.349 . S
C588 C590 1.327 . S
C588 H613 0.950 . S
C589 C588 1.349 . S
C589 C605 1.349 . S
C590 C588 1.327 . S
C590 C609 1.429 . S
C590 H614 0.950 . S
C591 C608 1.574 1_554 S
C591 C610 1.368 . S
C591 H615 0.949 . S
H592 C596 0.949 . S
C593 C594 1.349 . S
C593 C595 1.327 . S
C593 H616 0.950 . S
C594 C593 1.349 . S
C594 C606 1.349 . S
C595 C593 1.327 . S
C595 C611 1.429 . S
C595 H617 0.950 . S
C596 H592 0.949 . S
C596 C604 1.574 1_556 S
C596 C612 1.368 . S
H597 C605 0.950 . S
H598 C603 0.950 . S
H599 C604 0.949 . S
H600 C606 0.950 . S
H601 C607 0.950 . S
H602 C608 0.949 . S
C603 H598 0.950 . S
C603 C605 1.327 . S
C603 C609 1.429 . S
C604 C596 1.574 1_554 S
C604 H599 0.949 . S
C604 C610 1.368 . S
C605 C589 1.349 . S
C605 H597 0.950 . S
C605 C603 1.327 . S
C606 C594 1.349 . S
C606 H600 0.950 . S
C606 C607 1.327 . S
C607 H601 0.950 . S
C607 C606 1.327 . S
C607 C611 1.429 . S
C608 C591 1.574 1_556 S
C608 H602 0.949 . S
C608 C612 1.368 . S
C609 C590 1.429 . S
C609 C603 1.429 . S
C609 C610 1.523 . S
C610 C591 1.368 . S
C610 C604 1.368 . S
C610 C609 1.523 . S
C611 C595 1.429 . S
C611 C607 1.429 . S
C611 C612 1.523 . S
C612 C596 1.368 . S
C612 C608 1.368 . S
C612 C611 1.523 . S
H613 C588 0.950 . S
H614 C590 0.950 . S
H615 C591 0.949 . S
H616 C593 0.950 . S
H617 C595 0.950 . S
C618 C619 1.349 . S
C618 C620 1.327 . S
C618 H643 0.950 . S
C619 C618 1.349 . S
C619 C635 1.349 . S
C620 C618 1.327 . S
C620 C639 1.429 . S
C620 H644 0.950 . S
C621 C638 1.574 . S
C621 C640 1.368 . S
C621 H645 0.949 . S
H622 C626 0.949 . S
C623 C624 1.349 . S
C623 C625 1.327 . S
C623 H646 0.950 . S
C624 C623 1.349 . S
C624 C636 1.349 . S
C625 C623 1.327 . S
C625 C641 1.429 . S
C625 H647 0.950 . S
C626 H622 0.949 . S
C626 C634 1.574 . S
C626 C642 1.368 . S
H627 C635 0.950 . S
H628 C633 0.950 . S
H629 C634 0.949 . S
H630 C636 0.950 . S
H631 C637 0.950 . S
H632 C638 0.949 . S
C633 H628 0.950 . S
C633 C635 1.327 . S
C633 C639 1.429 . S
C634 C626 1.574 . S
C634 H629 0.949 . S
C634 C640 1.368 . S
C635 C619 1.349 . S
C635 H627 0.950 . S
C635 C633 1.327 . S
C636 C624 1.349 . S
C636 H630 0.950 . S
C636 C637 1.327 . S
C637 H631 0.950 . S
C637 C636 1.327 . S
C637 C641 1.429 . S
C638 C621 1.574 . S
C638 H632 0.949 . S
C638 C642 1.368 . S
C639 C620 1.429 . S
C639 C633 1.429 . S
C639 C640 1.523 . S
C640 C621 1.368 . S
C640 C634 1.368 . S
C640 C639 1.523 . S
C641 C625 1.429 . S
C641 C637 1.429 . S
C641 C642 1.523 . S
C642 C626 1.368 . S
C642 C638 1.368 . S
C642 C641 1.523 . S
H643 C618 0.950 . S
H644 C620 0.950 . S
H645 C621 0.949 . S
H646 C623 0.950 . S
H647 C625 0.950 . S
C648 C649 1.349 . S
C648 C650 1.327 . S
C648 H673 0.950 . S
C649 C648 1.349 . S
C649 C665 1.349 . S
C650 C648 1.327 . S
C650 C669 1.429 . S
C650 H674 0.950 . S
C651 C668 1.574 . S
C651 C670 1.368 . S
C651 H675 0.949 . S
H652 C656 0.949 . S
C653 C654 1.349 . S
C653 C655 1.327 . S
C653 H676 0.950 . S
C654 C653 1.349 . S
C654 C666 1.349 . S
C655 C653 1.327 . S
C655 C671 1.429 . S
C655 H677 0.950 . S
C656 H652 0.949 . S
C656 C664 1.574 . S
C656 C672 1.368 . S
H657 C665 0.950 . S
H658 C663 0.950 . S
H659 C664 0.949 . S
H660 C666 0.950 . S
H661 C667 0.950 . S
H662 C668 0.949 . S
C663 H658 0.950 . S
C663 C665 1.327 . S
C663 C669 1.429 . S
C664 C656 1.574 . S
C664 H659 0.949 . S
C664 C670 1.368 . S
C665 C649 1.349 . S
C665 H657 0.950 . S
C665 C663 1.327 . S
C666 C654 1.349 . S
C666 H660 0.950 . S
C666 C667 1.327 . S
C667 H661 0.950 . S
C667 C666 1.327 . S
C667 C671 1.429 . S
C668 C651 1.574 . S
C668 H662 0.949 . S
C668 C672 1.368 . S
C669 C650 1.429 . S
C669 C663 1.429 . S
C669 C670 1.523 . S
C670 C651 1.368 . S
C670 C664 1.368 . S
C670 C669 1.523 . S
C671 C655 1.429 . S
C671 C667 1.429 . S
C671 C672 1.523 . S
C672 C656 1.368 . S
C672 C668 1.368 . S
C672 C671 1.523 . S
H673 C648 0.950 . S
H674 C650 0.950 . S
H675 C651 0.949 . S
H676 C653 0.950 . S
H677 C655 0.950 . S
C678 C679 1.349 . S
C678 C680 1.327 . S
C678 H703 0.950 . S
C679 C678 1.349 . S
C679 C695 1.349 . S
C680 C678 1.327 . S
C680 C699 1.429 . S
C680 H704 0.950 . S
C681 C698 1.574 1_556 S
C681 C700 1.368 . S
C681 H705 0.949 . S
H682 C686 0.949 . S
C683 C684 1.349 . S
C683 C685 1.327 . S
C683 H706 0.950 . S
C684 C683 1.349 . S
C684 C696 1.349 . S
C685 C683 1.327 . S
C685 C701 1.429 . S
C685 H707 0.950 . S
C686 H682 0.949 . S
C686 C694 1.574 1_554 S
C686 C702 1.368 . S
H687 C695 0.950 . S
H688 C693 0.950 . S
H689 C694 0.949 . S
H690 C696 0.950 . S
H691 C697 0.950 . S
H692 C698 0.949 . S
C693 H688 0.950 . S
C693 C695 1.327 . S
C693 C699 1.429 . S
C694 C686 1.574 1_556 S
C694 H689 0.949 . S
C694 C700 1.368 . S
C695 C679 1.349 . S
C695 H687 0.950 . S
C695 C693 1.327 . S
C696 C684 1.349 . S
C696 H690 0.950 . S
C696 C697 1.327 . S
C697 H691 0.950 . S
C697 C696 1.327 . S
C697 C701 1.429 . S
C698 C681 1.574 1_554 S
C698 H692 0.949 . S
C698 C702 1.368 . S
C699 C680 1.429 . S
C699 C693 1.429 . S
C699 C700 1.523 . S
C700 C681 1.368 . S
C700 C694 1.368 . S
C700 C699 1.523 . S
C701 C685 1.429 . S
C701 C697 1.429 . S
C701 C702 1.523 . S
C702 C686 1.368 . S
C702 C698 1.368 . S
C702 C701 1.523 . S
H703 C678 0.950 . S
H704 C680 0.950 . S
H705 C681 0.949 . S
H706 C683 0.950 . S
H707 C685 0.950 . S
C708 C709 1.349 . S
C708 C710 1.327 . S
C708 H733 0.950 . S
C709 C708 1.349 . S
C709 C725 1.349 . S
C710 C708 1.327 . S
C710 C729 1.429 . S
C710 H734 0.950 . S
C711 C728 1.574 . S
C711 C730 1.368 . S
C711 H735 0.949 . S
H712 C716 0.949 . S
C713 C714 1.349 . S
C713 C715 1.327 . S
C713 H736 0.950 . S
C714 C713 1.349 . S
C714 C726 1.349 . S
C715 C713 1.327 . S
C715 C731 1.429 . S
C715 H737 0.950 . S
C716 H712 0.949 . S
C716 C724 1.574 . S
C716 C732 1.368 . S
H717 C725 0.950 . S
H718 C723 0.950 . S
H719 C724 0.949 . S
H720 C726 0.950 . S
H721 C727 0.950 . S
H722 C728 0.949 . S
C723 H718 0.950 . S
C723 C725 1.327 . S
C723 C729 1.429 . S
C724 C716 1.574 . S
C724 H719 0.949 . S
C724 C730 1.368 . S
C725 C709 1.349 . S
C725 H717 0.950 . S
C725 C723 1.327 . S
C726 C714 1.349 . S
C726 H720 0.950 . S
C726 C727 1.327 . S
C727 H721 0.950 . S
C727 C726 1.327 . S
C727 C731 1.429 . S
C728 C711 1.574 . S
C728 H722 0.949 . S
C728 C732 1.368 . S
C729 C710 1.429 . S
C729 C723 1.429 . S
C729 C730 1.523 . S
C730 C711 1.368 . S
C730 C724 1.368 . S
C730 C729 1.523 . S
C731 C715 1.429 . S
C731 C727 1.429 . S
C731 C732 1.523 . S
C732 C716 1.368 . S
C732 C728 1.368 . S
C732 C731 1.523 . S
H733 C708 0.950 . S
H734 C710 0.950 . S
H735 C711 0.949 . S
H736 C713 0.950 . S
H737 C715 0.950 . S
C738 C739 1.349 . S
C738 C740 1.327 . S
C738 H763 0.950 . S
C739 C738 1.349 . S
C739 C755 1.349 . S
C740 C738 1.327 . S
C740 C759 1.429 . S
C740 H764 0.950 . S
C741 C758 1.574 . S
C741 C760 1.368 . S
C741 H765 0.949 . S
H742 C746 0.949 . S
C743 C744 1.349 . S
C743 C745 1.327 . S
C743 H766 0.950 . S
C744 C743 1.349 . S
C744 C756 1.349 . S
C745 C743 1.327 . S
C745 C761 1.429 . S
C745 H767 0.950 . S
C746 H742 0.949 . S
C746 C754 1.574 . S
C746 C762 1.368 . S
H747 C755 0.950 . S
H748 C753 0.950 . S
H749 C754 0.949 . S
H750 C756 0.950 . S
H751 C757 0.950 . S
H752 C758 0.949 . S
C753 H748 0.950 . S
C753 C755 1.327 . S
C753 C759 1.429 . S
C754 C746 1.574 . S
C754 H749 0.949 . S
C754 C760 1.368 . S
C755 C739 1.349 . S
C755 H747 0.950 . S
C755 C753 1.327 . S
C756 C744 1.349 . S
C756 H750 0.950 . S
C756 C757 1.327 . S
C757 H751 0.950 . S
C757 C756 1.327 . S
C757 C761 1.429 . S
C758 C741 1.574 . S
C758 H752 0.949 . S
C758 C762 1.368 . S
C759 C740 1.429 . S
C759 C753 1.429 . S
C759 C760 1.523 . S
C760 C741 1.368 . S
C760 C754 1.368 . S
C760 C759 1.523 . S
C761 C745 1.429 . S
C761 C757 1.429 . S
C761 C762 1.523 . S
C762 C746 1.368 . S
C762 C758 1.368 . S
C762 C761 1.523 . S
H763 C738 0.950 . S
H764 C740 0.950 . S
H765 C741 0.949 . S
H766 C743 0.950 . S
H767 C745 0.950 . S
C768 C769 1.349 . S
C768 C770 1.327 . S
C768 H793 0.950 . S
C769 C768 1.349 . S
C769 C785 1.349 . S
C770 C768 1.327 . S
C770 C789 1.429 . S
C770 H794 0.950 . S
C771 C788 1.574 . S
C771 C790 1.368 . S
C771 H795 0.949 . S
H772 C776 0.949 . S
C773 C774 1.349 . S
C773 C775 1.327 . S
C773 H796 0.950 . S
C774 C773 1.349 . S
C774 C786 1.349 . S
C775 C773 1.327 . S
C775 C791 1.429 . S
C775 H797 0.950 . S
C776 H772 0.949 . S
C776 C784 1.574 . S
C776 C792 1.368 . S
H777 C785 0.950 . S
H778 C783 0.950 . S
H779 C784 0.949 . S
H780 C786 0.950 . S
H781 C787 0.950 . S
H782 C788 0.949 . S
C783 H778 0.950 . S
C783 C785 1.327 . S
C783 C789 1.429 . S
C784 C776 1.574 . S
C784 H779 0.949 . S
C784 C790 1.368 . S
C785 C769 1.349 . S
C785 H777 0.950 . S
C785 C783 1.327 . S
C786 C774 1.349 . S
C786 H780 0.950 . S
C786 C787 1.327 . S
C787 H781 0.950 . S
C787 C786 1.327 . S
C787 C791 1.429 . S
C788 C771 1.574 . S
C788 H782 0.949 . S
C788 C792 1.368 . S
C789 C770 1.429 . S
C789 C783 1.429 . S
C789 C790 1.523 . S
C790 C771 1.368 . S
C790 C784 1.368 . S
C790 C789 1.523 . S
C791 C775 1.429 . S
C791 C787 1.429 . S
C791 C792 1.523 . S
C792 C776 1.368 . S
C792 C788 1.368 . S
C792 C791 1.523 . S
H793 C768 0.950 . S
H794 C770 0.950 . S
H795 C771 0.949 . S
H796 C773 0.950 . S
H797 C775 0.950 . S
C798 C799 1.349 . S
C798 C800 1.327 . S
C798 H823 0.950 . S
C799 C798 1.349 . S
C799 C815 1.349 . S
C800 C798 1.327 . S
C800 C819 1.429 . S
C800 H824 0.950 . S
C801 C818 1.574 . S
C801 C820 1.368 . S
C801 H825 0.949 . S
H802 C806 0.949 . S
C803 C804 1.349 . S
C803 C805 1.327 . S
C803 H826 0.950 . S
C804 C803 1.349 . S
C804 C816 1.349 . S
C805 C803 1.327 . S
C805 C821 1.429 . S
C805 H827 0.950 . S
C806 H802 0.949 . S
C806 C814 1.574 . S
C806 C822 1.368 . S
H807 C815 0.950 . S
H808 C813 0.950 . S
H809 C814 0.949 . S
H810 C816 0.950 . S
H811 C817 0.950 . S
H812 C818 0.949 . S
C813 H808 0.950 . S
C813 C815 1.327 . S
C813 C819 1.429 . S
C814 C806 1.574 . S
C814 H809 0.949 . S
C814 C820 1.368 . S
C815 C799 1.349 . S
C815 H807 0.950 . S
C815 C813 1.327 . S
C816 C804 1.349 . S
C816 H810 0.950 . S
C816 C817 1.327 . S
C817 H811 0.950 . S
C817 C816 1.327 . S
C817 C821 1.429 . S
C818 C801 1.574 . S
C818 H812 0.949 . S
C818 C822 1.368 . S
C819 C800 1.429 . S
C819 C813 1.429 . S
C819 C820 1.523 . S
C820 C801 1.368 . S
C820 C814 1.368 . S
C820 C819 1.523 . S
C821 C805 1.429 . S
C821 C817 1.429 . S
C821 C822 1.523 . S
C822 C806 1.368 . S
C822 C818 1.368 . S
C822 C821 1.523 . S
H823 C798 0.950 . S
H824 C800 0.950 . S
H825 C801 0.949 . S
H826 C803 0.950 . S
H827 C805 0.950 . S
C828 C829 1.349 . S
C828 C830 1.327 . S
C828 H853 0.950 . S
C829 C828 1.349 . S
C829 C845 1.349 . S
C830 C828 1.327 . S
C830 C849 1.429 . S
C830 H854 0.950 . S
C831 C848 1.574 . S
C831 C850 1.368 . S
C831 H855 0.949 . S
H832 C836 0.949 . S
C833 C834 1.349 . S
C833 C835 1.327 . S
C833 H856 0.950 . S
C834 C833 1.349 . S
C834 C846 1.349 . S
C835 C833 1.327 . S
C835 C851 1.429 . S
C835 H857 0.950 . S
C836 H832 0.949 . S
C836 C844 1.574 . S
C836 C852 1.368 . S
H837 C845 0.950 . S
H838 C843 0.950 . S
H839 C844 0.949 . S
H840 C846 0.950 . S
H841 C847 0.950 . S
H842 C848 0.949 . S
C843 H838 0.950 . S
C843 C845 1.327 . S
C843 C849 1.429 . S
C844 C836 1.574 . S
C844 H839 0.949 . S
C844 C850 1.368 . S
C845 C829 1.349 . S
C845 H837 0.950 . S
C845 C843 1.327 . S
C846 C834 1.349 . S
C846 H840 0.950 . S
C846 C847 1.327 . S
C847 H841 0.950 . S
C847 C846 1.327 . S
C847 C851 1.429 . S
C848 C831 1.574 . S
C848 H842 0.949 . S
C848 C852 1.368 . S
C849 C830 1.429 . S
C849 C843 1.429 . S
C849 C850 1.523 . S
C850 C831 1.368 . S
C850 C844 1.368 . S
C850 C849 1.523 . S
C851 C835 1.429 . S
C851 C847 1.429 . S
C851 C852 1.523 . S
C852 C836 1.368 . S
C852 C848 1.368 . S
C852 C851 1.523 . S
H853 C828 0.950 . S
H854 C830 0.950 . S
H855 C831 0.949 . S
H856 C833 0.950 . S
H857 C835 0.950 . S
C858 C859 1.349 . S
C858 C860 1.327 . S
C858 H883 0.950 1_556 S
C859 C858 1.349 . S
C859 C875 1.349 . S
C860 C858 1.327 . S
C860 C879 1.429 . S
C860 H884 0.950 . S
C861 C878 1.574 . S
C861 C880 1.368 . S
C861 H885 0.949 . S
H862 C866 0.949 . S
C863 C864 1.349 . S
C863 C865 1.327 . S
C863 H886 0.950 . S
C864 C863 1.349 . S
C864 C876 1.349 . S
C865 C863 1.327 . S
C865 C881 1.429 . S
C865 H887 0.950 . S
C866 H862 0.949 . S
C866 C874 1.574 . S
C866 C882 1.368 . S
H867 C875 0.950 . S
H868 C873 0.950 . S
H869 C874 0.949 . S
H870 C876 0.950 . S
H871 C877 0.950 . S
H872 C878 0.949 . S
C873 H868 0.950 . S
C873 C875 1.327 . S
C873 C879 1.429 . S
C874 C866 1.574 . S
C874 H869 0.949 . S
C874 C880 1.368 . S
C875 C859 1.349 . S
C875 H867 0.950 . S
C875 C873 1.327 . S
C876 C864 1.349 . S
C876 H870 0.950 . S
C876 C877 1.327 . S
C877 H871 0.950 . S
C877 C876 1.327 . S
C877 C881 1.429 . S
C878 C861 1.574 . S
C878 H872 0.949 . S
C878 C882 1.368 . S
C879 C860 1.429 . S
C879 C873 1.429 . S
C879 C880 1.523 . S
C880 C861 1.368 . S
C880 C874 1.368 . S
C880 C879 1.523 . S
C881 C865 1.429 . S
C881 C877 1.429 . S
C881 C882 1.523 . S
C882 C866 1.368 . S
C882 C878 1.368 . S
C882 C881 1.523 . S
H883 C858 0.950 1_554 S
H884 C860 0.950 . S
H885 C861 0.949 . S
H886 C863 0.950 . S
H887 C865 0.950 . S
C888 C889 1.349 . S
C888 C890 1.327 . S
C888 H913 0.950 1_554 S
C889 C888 1.349 . S
C889 C905 1.349 . S
C890 C888 1.327 . S
C890 C909 1.429 . S
C890 H914 0.950 . S
C891 C908 1.574 . S
C891 C910 1.368 . S
C891 H915 0.949 . S
H892 C896 0.949 . S
C893 C894 1.349 . S
C893 C895 1.327 . S
C893 H916 0.950 . S
C894 C893 1.349 . S
C894 C906 1.349 . S
C895 C893 1.327 . S
C895 C911 1.429 . S
C895 H917 0.950 . S
C896 H892 0.949 . S
C896 C904 1.574 . S
C896 C912 1.368 . S
H897 C905 0.950 . S
H898 C903 0.950 . S
H899 C904 0.949 . S
H900 C906 0.950 . S
H901 C907 0.950 . S
H902 C908 0.949 . S
C903 H898 0.950 . S
C903 C905 1.327 . S
C903 C909 1.429 . S
C904 C896 1.574 . S
C904 H899 0.949 . S
C904 C910 1.368 . S
C905 C889 1.349 . S
C905 H897 0.950 . S
C905 C903 1.327 . S
C906 C894 1.349 . S
C906 H900 0.950 . S
C906 C907 1.327 . S
C907 H901 0.950 . S
C907 C906 1.327 . S
C907 C911 1.429 . S
C908 C891 1.574 . S
C908 H902 0.949 . S
C908 C912 1.368 . S
C909 C890 1.429 . S
C909 C903 1.429 . S
C909 C910 1.523 . S
C910 C891 1.368 . S
C910 C904 1.368 . S
C910 C909 1.523 . S
C911 C895 1.429 . S
C911 C907 1.429 . S
C911 C912 1.523 . S
C912 C896 1.368 . S
C912 C908 1.368 . S
C912 C911 1.523 . S
H913 C888 0.950 1_556 S
H914 C890 0.950 . S
H915 C891 0.949 . S
H916 C893 0.950 . S
H917 C895 0.950 . S
C918 C919 1.349 . S
C918 C920 1.327 . S
C918 H943 0.950 . S
C919 C918 1.349 . S
C919 C935 1.349 . S
C920 C918 1.327 . S
C920 C939 1.429 . S
C920 H944 0.950 . S
C921 C938 1.574 . S
C921 C940 1.368 . S
C921 H945 0.949 . S
H922 C926 0.949 . S
C923 C924 1.349 . S
C923 C925 1.327 . S
C923 H946 0.950 . S
C924 C923 1.349 . S
C924 C936 1.349 . S
C925 C923 1.327 . S
C925 C941 1.429 . S
C925 H947 0.950 . S
C926 H922 0.949 . S
C926 C934 1.574 . S
C926 C942 1.368 . S
H927 C935 0.950 . S
H928 C933 0.950 . S
H929 C934 0.949 . S
H930 C936 0.950 . S
H931 C937 0.950 . S
H932 C938 0.949 . S
C933 H928 0.950 . S
C933 C935 1.327 . S
C933 C939 1.429 . S
C934 C926 1.574 . S
C934 H929 0.949 . S
C934 C940 1.368 . S
C935 C919 1.349 . S
C935 H927 0.950 . S
C935 C933 1.327 . S
C936 C924 1.349 . S
C936 H930 0.950 . S
C936 C937 1.327 . S
C937 H931 0.950 . S
C937 C936 1.327 . S
C937 C941 1.429 . S
C938 C921 1.574 . S
C938 H932 0.949 . S
C938 C942 1.368 . S
C939 C920 1.429 . S
C939 C933 1.429 . S
C939 C940 1.523 . S
C940 C921 1.368 . S
C940 C934 1.368 . S
C940 C939 1.523 . S
C941 C925 1.429 . S
C941 C937 1.429 . S
C941 C942 1.523 . S
C942 C926 1.368 . S
C942 C938 1.368 . S
C942 C941 1.523 . S
H943 C918 0.950 . S
H944 C920 0.950 . S
H945 C921 0.949 . S
H946 C923 0.950 . S
H947 C925 0.950 . S
C948 C949 1.349 . S
C948 C950 1.327 . S
C948 H973 0.950 . S
C949 C948 1.349 . S
C949 C965 1.349 . S
C950 C948 1.327 . S
C950 C969 1.429 . S
C950 H974 0.950 . S
C951 C968 1.574 . S
C951 C970 1.368 . S
C951 H975 0.949 . S
H952 C956 0.949 . S
C953 C954 1.349 . S
C953 C955 1.327 . S
C953 H976 0.950 . S
C954 C953 1.349 . S
C954 C966 1.349 . S
C955 C953 1.327 . S
C955 C971 1.429 . S
C955 H977 0.950 . S
C956 H952 0.949 . S
C956 C964 1.574 . S
C956 C972 1.368 . S
H957 C965 0.950 . S
H958 C963 0.950 . S
H959 C964 0.949 . S
H960 C966 0.950 . S
H961 C967 0.950 . S
H962 C968 0.949 . S
C963 H958 0.950 . S
C963 C965 1.327 . S
C963 C969 1.429 . S
C964 C956 1.574 . S
C964 H959 0.949 . S
C964 C970 1.368 . S
C965 C949 1.349 . S
C965 H957 0.950 . S
C965 C963 1.327 . S
C966 C954 1.349 . S
C966 H960 0.950 . S
C966 C967 1.327 . S
C967 H961 0.950 . S
C967 C966 1.327 . S
C967 C971 1.429 . S
C968 C951 1.574 . S
C968 H962 0.949 . S
C968 C972 1.368 . S
C969 C950 1.429 . S
C969 C963 1.429 . S
C969 C970 1.523 . S
C970 C951 1.368 . S
C970 C964 1.368 . S
C970 C969 1.523 . S
C971 C955 1.429 . S
C971 C967 1.429 . S
C971 C972 1.523 . S
C972 C956 1.368 . S
C972 C968 1.368 . S
C972 C971 1.523 . S
H973 C948 0.950 . S
H974 C950 0.950 . S
H975 C951 0.949 . S
H976 C953 0.950 . S
H977 C955 0.950 . S
C978 C979 1.349 . S
C978 C980 1.327 . S
C978 H1003 0.950 . S
C979 C978 1.349 . S
C979 C995 1.349 . S
C980 C978 1.327 . S
C980 C999 1.429 . S
C980 H1004 0.950 . S
C981 C998 1.574 . S
C981 C1000 1.368 . S
C981 H1005 0.949 . S
H982 C986 0.949 . S
C983 C984 1.349 . S
C983 C985 1.327 . S
C983 H1006 0.950 . S
C984 C983 1.349 . S
C984 C996 1.349 . S
C985 C983 1.327 . S
C985 C1001 1.429 . S
C985 H1007 0.950 . S
C986 H982 0.949 . S
C986 C994 1.574 . S
C986 C1002 1.368 . S
H987 C995 0.950 . S
H988 C993 0.950 . S
H989 C994 0.949 . S
H990 C996 0.950 . S
H991 C997 0.950 . S
H992 C998 0.949 . S
C993 H988 0.950 . S
C993 C995 1.327 . S
C993 C999 1.429 . S
C994 C986 1.574 . S
C994 H989 0.949 . S
C994 C1000 1.368 . S
C995 C979 1.349 . S
C995 H987 0.950 . S
C995 C993 1.327 . S
C996 C984 1.349 . S
C996 H990 0.950 . S
C996 C997 1.327 . S
C997 H991 0.950 . S
C997 C996 1.327 . S
C997 C1001 1.429 . S
C998 C981 1.574 . S
C998 H992 0.949 . S
C998 C1002 1.368 . S
C999 C980 1.429 . S
C999 C993 1.429 . S
C999 C1000 1.523 . S
C1000 C981 1.368 . S
C1000 C994 1.368 . S
C1000 C999 1.523 . S
C1001 C985 1.429 . S
C1001 C997 1.429 . S
C1001 C1002 1.523 . S
C1002 C986 1.368 . S
C1002 C998 1.368 . S
C1002 C1001 1.523 . S
H1003 C978 0.950 . S
H1004 C980 0.950 . S
H1005 C981 0.949 . S
H1006 C983 0.950 . S
H1007 C985 0.950 . S
C1008 C1009 1.349 . S
C1008 C1010 1.327 . S
C1008 H1033 0.950 . S
C1009 C1008 1.349 . S
C1009 C1025 1.349 . S
C1010 C1008 1.327 . S
C1010 C1029 1.429 . S
C1010 H1034 0.950 . S
C1011 C1028 1.574 . S
C1011 C1030 1.368 . S
C1011 H1035 0.949 . S
H1012 C1016 0.949 . S
C1013 C1014 1.349 . S
C1013 C1015 1.327 . S
C1013 H1036 0.950 . S
C1014 C1013 1.349 . S
C1014 C1026 1.349 . S
C1015 C1013 1.327 . S
C1015 C1031 1.429 . S
C1015 H1037 0.950 . S
C1016 H1012 0.949 . S
C1016 C1024 1.574 . S
C1016 C1032 1.368 . S
H1017 C1025 0.950 . S
H1018 C1023 0.950 . S
H1019 C1024 0.949 . S
H1020 C1026 0.950 . S
H1021 C1027 0.950 . S
H1022 C1028 0.949 . S
C1023 H1018 0.950 . S
C1023 C1025 1.327 . S
C1023 C1029 1.429 . S
C1024 C1016 1.574 . S
C1024 H1019 0.949 . S
C1024 C1030 1.368 . S
C1025 C1009 1.349 . S
C1025 H1017 0.950 . S
C1025 C1023 1.327 . S
C1026 C1014 1.349 . S
C1026 H1020 0.950 . S
C1026 C1027 1.327 . S
C1027 H1021 0.950 . S
C1027 C1026 1.327 . S
C1027 C1031 1.429 . S
C1028 C1011 1.574 . S
C1028 H1022 0.949 . S
C1028 C1032 1.368 . S
C1029 C1010 1.429 . S
C1029 C1023 1.429 . S
C1029 C1030 1.523 . S
C1030 C1011 1.368 . S
C1030 C1024 1.368 . S
C1030 C1029 1.523 . S
C1031 C1015 1.429 . S
C1031 C1027 1.429 . S
C1031 C1032 1.523 . S
C1032 C1016 1.368 . S
C1032 C1028 1.368 . S
C1032 C1031 1.523 . S
H1033 C1008 0.950 . S
H1034 C1010 0.950 . S
H1035 C1011 0.949 . S
H1036 C1013 0.950 . S
H1037 C1015 0.950 . S
C1038 C1039 1.349 . S
C1038 C1040 1.327 . S
C1038 H1063 0.950 . S
C1039 C1038 1.349 . S
C1039 C1055 1.349 . S
C1040 C1038 1.327 . S
C1040 C1059 1.429 . S
C1040 H1064 0.950 . S
C1041 C1058 1.574 . S
C1041 C1060 1.368 . S
C1041 H1065 0.949 . S
H1042 C1046 0.949 . S
C1043 C1044 1.349 . S
C1043 C1045 1.327 . S
C1043 H1066 0.950 . S
C1044 C1043 1.349 . S
C1044 C1056 1.349 . S
C1045 C1043 1.327 . S
C1045 C1061 1.429 . S
C1045 H1067 0.950 . S
C1046 H1042 0.949 . S
C1046 C1054 1.574 . S
C1046 C1062 1.368 . S
H1047 C1055 0.950 1_554 S
H1048 C1053 0.950 . S
H1049 C1054 0.949 . S
H1050 C1056 0.950 . S
H1051 C1057 0.950 . S
H1052 C1058 0.949 . S
C1053 H1048 0.950 . S
C1053 C1055 1.327 . S
C1053 C1059 1.429 . S
C1054 C1046 1.574 . S
C1054 H1049 0.949 . S
C1054 C1060 1.368 . S
C1055 C1039 1.349 . S
C1055 H1047 0.950 1_556 S
C1055 C1053 1.327 . S
C1056 C1044 1.349 . S
C1056 H1050 0.950 . S
C1056 C1057 1.327 . S
C1057 H1051 0.950 . S
C1057 C1056 1.327 . S
C1057 C1061 1.429 . S
C1058 C1041 1.574 . S
C1058 H1052 0.949 . S
C1058 C1062 1.368 . S
C1059 C1040 1.429 . S
C1059 C1053 1.429 . S
C1059 C1060 1.523 . S
C1060 C1041 1.368 . S
C1060 C1054 1.368 . S
C1060 C1059 1.523 . S
C1061 C1045 1.429 . S
C1061 C1057 1.429 . S
C1061 C1062 1.523 . S
C1062 C1046 1.368 . S
C1062 C1058 1.368 . S
C1062 C1061 1.523 . S
H1063 C1038 0.950 . S
H1064 C1040 0.950 . S
H1065 C1041 0.949 . S
H1066 C1043 0.950 . S
H1067 C1045 0.950 . S
C1068 C1069 1.349 . S
C1068 C1070 1.327 . S
C1068 H1093 0.950 . S
C1069 C1068 1.349 . S
C1069 C1085 1.349 . S
C1070 C1068 1.327 . S
C1070 C1089 1.429 . S
C1070 H1094 0.950 . S
C1071 C1088 1.574 . S
C1071 C1090 1.368 . S
C1071 H1095 0.949 . S
H1072 C1076 0.949 . S
C1073 C1074 1.349 . S
C1073 C1075 1.327 . S
C1073 H1096 0.950 . S
C1074 C1073 1.349 . S
C1074 C1086 1.349 . S
C1075 C1073 1.327 . S
C1075 C1091 1.429 . S
C1075 H1097 0.950 . S
C1076 H1072 0.949 . S
C1076 C1084 1.574 . S
C1076 C1092 1.368 . S
H1077 C1085 0.950 . S
H1078 C1083 0.950 . S
H1079 C1084 0.949 . S
H1080 C1086 0.950 . S
H1081 C1087 0.950 . S
H1082 C1088 0.949 . S
C1083 H1078 0.950 . S
C1083 C1085 1.327 . S
C1083 C1089 1.429 . S
C1084 C1076 1.574 . S
C1084 H1079 0.949 . S
C1084 C1090 1.368 . S
C1085 C1069 1.349 . S
C1085 H1077 0.950 . S
C1085 C1083 1.327 . S
C1086 C1074 1.349 . S
C1086 H1080 0.950 . S
C1086 C1087 1.327 . S
C1087 H1081 0.950 . S
C1087 C1086 1.327 . S
C1087 C1091 1.429 . S
C1088 C1071 1.574 . S
C1088 H1082 0.949 . S
C1088 C1092 1.368 . S
C1089 C1070 1.429 . S
C1089 C1083 1.429 . S
C1089 C1090 1.523 . S
C1090 C1071 1.368 . S
C1090 C1084 1.368 . S
C1090 C1089 1.523 . S
C1091 C1075 1.429 . S
C1091 C1087 1.429 . S
C1091 C1092 1.523 . S
C1092 C1076 1.368 . S
C1092 C1088 1.368 . S
C1092 C1091 1.523 . S
H1093 C1068 0.950 . S
H1094 C1070 0.950 . S
H1095 C1071 0.949 . S
H1096 C1073 0.950 . S
H1097 C1075 0.950 . S
C1098 C1099 1.349 . S
C1098 C1100 1.327 . S
C1098 H1123 0.950 . S
C1099 C1098 1.349 . S
C1099 C1115 1.349 . S
C1100 C1098 1.327 . S
C1100 C1119 1.429 . S
C1100 H1124 0.950 . S
C1101 C1118 1.574 . S
C1101 C1120 1.368 . S
C1101 H1125 0.949 . S
H1102 C1106 0.949 . S
C1103 C1104 1.349 . S
C1103 C1105 1.327 . S
C1103 H1126 0.950 . S
C1104 C1103 1.349 . S
C1104 C1116 1.349 . S
C1105 C1103 1.327 . S
C1105 C1121 1.429 . S
C1105 H1127 0.950 . S
C1106 H1102 0.949 . S
C1106 C1114 1.574 . S
C1106 C1122 1.368 . S
H1107 C1115 0.950 . S
H1108 C1113 0.950 . S
H1109 C1114 0.949 . S
H1110 C1116 0.950 . S
H1111 C1117 0.950 . S
H1112 C1118 0.949 . S
C1113 H1108 0.950 . S
C1113 C1115 1.327 . S
C1113 C1119 1.429 . S
C1114 C1106 1.574 . S
C1114 H1109 0.949 . S
C1114 C1120 1.368 . S
C1115 C1099 1.349 . S
C1115 H1107 0.950 . S
C1115 C1113 1.327 . S
C1116 C1104 1.349 . S
C1116 H1110 0.950 . S
C1116 C1117 1.327 . S
C1117 H1111 0.950 . S
C1117 C1116 1.327 . S
C1117 C1121 1.429 . S
C1118 C1101 1.574 . S
C1118 H1112 0.949 . S
C1118 C1122 1.368 . S
C1119 C1100 1.429 . S
C1119 C1113 1.429 . S
C1119 C1120 1.523 . S
C1120 C1101 1.368 . S
C1120 C1114 1.368 . S
C1120 C1119 1.523 . S
C1121 C1105 1.429 . S
C1121 C1117 1.429 . S
C1121 C1122 1.523 . S
C1122 C1106 1.368 . S
C1122 C1118 1.368 . S
C1122 C1121 1.523 . S
H1123 C1098 0.950 . S
H1124 C1100 0.950 . S
H1125 C1101 0.949 . S
H1126 C1103 0.950 . S
H1127 C1105 0.950 . S
C1128 C1129 1.349 . S
C1128 C1130 1.327 . S
C1128 H1153 0.950 . S
C1129 C1128 1.349 . S
C1129 C1145 1.349 . S
C1130 C1128 1.327 . S
C1130 C1149 1.429 . S
C1130 H1154 0.950 . S
C1131 C1148 1.574 . S
C1131 C1150 1.368 . S
C1131 H1155 0.949 . S
H1132 C1136 0.949 . S
C1133 C1134 1.349 . S
C1133 C1135 1.327 . S
C1133 H1156 0.950 . S
C1134 C1133 1.349 . S
C1134 C1146 1.349 . S
C1135 C1133 1.327 . S
C1135 C1151 1.429 . S
C1135 H1157 0.950 . S
C1136 H1132 0.949 . S
C1136 C1144 1.574 . S
C1136 C1152 1.368 . S
H1137 C1145 0.950 . S
H1138 C1143 0.950 . S
H1139 C1144 0.949 . S
H1140 C1146 0.950 . S
H1141 C1147 0.950 . S
H1142 C1148 0.949 . S
C1143 H1138 0.950 . S
C1143 C1145 1.327 . S
C1143 C1149 1.429 . S
C1144 C1136 1.574 . S
C1144 H1139 0.949 . S
C1144 C1150 1.368 . S
C1145 C1129 1.349 . S
C1145 H1137 0.950 . S
C1145 C1143 1.327 . S
C1146 C1134 1.349 . S
C1146 H1140 0.950 . S
C1146 C1147 1.327 . S
C1147 H1141 0.950 . S
C1147 C1146 1.327 . S
C1147 C1151 1.429 . S
C1148 C1131 1.574 . S
C1148 H1142 0.949 . S
C1148 C1152 1.368 . S
C1149 C1130 1.429 . S
C1149 C1143 1.429 . S
C1149 C1150 1.523 . S
C1150 C1131 1.368 . S
C1150 C1144 1.368 . S
C1150 C1149 1.523 . S
C1151 C1135 1.429 . S
C1151 C1147 1.429 . S
C1151 C1152 1.523 . S
C1152 C1136 1.368 . S
C1152 C1148 1.368 . S
C1152 C1151 1.523 . S
H1153 C1128 0.950 . S
H1154 C1130 0.950 . S
H1155 C1131 0.949 . S
H1156 C1133 0.950 . S
H1157 C1135 0.950 . S
C1158 C1159 1.349 . S
C1158 C1160 1.327 . S
C1158 H1183 0.950 . S
C1159 C1158 1.349 . S
C1159 C1175 1.349 . S
C1160 C1158 1.327 . S
C1160 C1179 1.429 . S
C1160 H1184 0.950 . S
C1161 C1178 1.574 . S
C1161 C1180 1.368 . S
C1161 H1185 0.949 . S
H1162 C1166 0.949 . S
C1163 C1164 1.349 . S
C1163 C1165 1.327 . S
C1163 H1186 0.950 . S
C1164 C1163 1.349 . S
C1164 C1176 1.349 . S
C1165 C1163 1.327 . S
C1165 C1181 1.429 . S
C1165 H1187 0.950 . S
C1166 H1162 0.949 . S
C1166 C1174 1.574 . S
C1166 C1182 1.368 . S
H1167 C1175 0.950 . S
H1168 C1173 0.950 . S
H1169 C1174 0.949 . S
H1170 C1176 0.950 . S
H1171 C1177 0.950 . S
H1172 C1178 0.949 . S
C1173 H1168 0.950 . S
C1173 C1175 1.327 . S
C1173 C1179 1.429 . S
C1174 C1166 1.574 . S
C1174 H1169 0.949 . S
C1174 C1180 1.368 . S
C1175 C1159 1.349 . S
C1175 H1167 0.950 . S
C1175 C1173 1.327 . S
C1176 C1164 1.349 . S
C1176 H1170 0.950 . S
C1176 C1177 1.327 . S
C1177 H1171 0.950 . S
C1177 C1176 1.327 . S
C1177 C1181 1.429 . S
C1178 C1161 1.574 . S
C1178 H1172 0.949 . S
C1178 C1182 1.368 . S
C1179 C1160 1.429 . S
C1179 C1173 1.429 . S
C1179 C1180 1.523 . S
C1180 C1161 1.368 . S
C1180 C1174 1.368 . S
C1180 C1179 1.523 . S
C1181 C1165 1.429 . S
C1181 C1177 1.429 . S
C1181 C1182 1.523 . S
C1182 C1166 1.368 . S
C1182 C1178 1.368 . S
C1182 C1181 1.523 . S
H1183 C1158 0.950 . S
H1184 C1160 0.950 . S
H1185 C1161 0.949 . S
H1186 C1163 0.950 . S
H1187 C1165 0.950 . S
C1188 C1189 1.349 . S
C1188 C1190 1.327 . S
C1188 H1213 0.950 . S
C1189 C1188 1.349 . S
C1189 C1205 1.349 . S
C1190 C1188 1.327 . S
C1190 C1209 1.429 . S
C1190 H1214 0.950 . S
C1191 C1208 1.574 . S
C1191 C1210 1.368 . S
C1191 H1215 0.949 . S
H1192 C1196 0.949 . S
C1193 C1194 1.349 . S
C1193 C1195 1.327 . S
C1193 H1216 0.950 . S
C1194 C1193 1.349 . S
C1194 C1206 1.349 . S
C1195 C1193 1.327 . S
C1195 C1211 1.429 . S
C1195 H1217 0.950 . S
C1196 H1192 0.949 . S
C1196 C1204 1.574 . S
C1196 C1212 1.368 . S
H1197 C1205 0.950 . S
H1198 C1203 0.950 . S
H1199 C1204 0.949 . S
H1200 C1206 0.950 . S
H1201 C1207 0.950 . S
H1202 C1208 0.949 . S
C1203 H1198 0.950 . S
C1203 C1205 1.327 . S
C1203 C1209 1.429 . S
C1204 C1196 1.574 . S
C1204 H1199 0.949 . S
C1204 C1210 1.368 . S
C1205 C1189 1.349 . S
C1205 H1197 0.950 . S
C1205 C1203 1.327 . S
C1206 C1194 1.349 . S
C1206 H1200 0.950 . S
C1206 C1207 1.327 . S
C1207 H1201 0.950 . S
C1207 C1206 1.327 . S
C1207 C1211 1.429 . S
C1208 C1191 1.574 . S
C1208 H1202 0.949 . S
C1208 C1212 1.368 . S
C1209 C1190 1.429 . S
C1209 C1203 1.429 . S
C1209 C1210 1.523 . S
C1210 C1191 1.368 . S
C1210 C1204 1.368 . S
C1210 C1209 1.523 . S
C1211 C1195 1.429 . S
C1211 C1207 1.429 . S
C1211 C1212 1.523 . S
C1212 C1196 1.368 . S
C1212 C1208 1.368 . S
C1212 C1211 1.523 . S
H1213 C1188 0.950 . S
H1214 C1190 0.950 . S
H1215 C1191 0.949 . S
H1216 C1193 0.950 . S
H1217 C1195 0.950 . S
C1218 C1219 1.349 . S
C1218 C1220 1.327 . S
C1218 H1243 0.950 . S
C1219 C1218 1.349 . S
C1219 C1235 1.349 . S
C1220 C1218 1.327 . S
C1220 C1239 1.429 . S
C1220 H1244 0.950 . S
C1221 C1238 1.574 . S
C1221 C1240 1.368 . S
C1221 H1245 0.949 . S
H1222 C1226 0.949 . S
C1223 C1224 1.349 . S
C1223 C1225 1.327 . S
C1223 H1246 0.950 . S
C1224 C1223 1.349 . S
C1224 C1236 1.349 . S
C1225 C1223 1.327 . S
C1225 C1241 1.429 . S
C1225 H1247 0.950 . S
C1226 H1222 0.949 . S
C1226 C1234 1.574 . S
C1226 C1242 1.368 . S
H1227 C1235 0.950 . S
H1228 C1233 0.950 . S
H1229 C1234 0.949 . S
H1230 C1236 0.950 . S
H1231 C1237 0.950 . S
H1232 C1238 0.949 . S
C1233 H1228 0.950 . S
C1233 C1235 1.327 . S
C1233 C1239 1.429 . S
C1234 C1226 1.574 . S
C1234 H1229 0.949 . S
C1234 C1240 1.368 . S
C1235 C1219 1.349 . S
C1235 H1227 0.950 . S
C1235 C1233 1.327 . S
C1236 C1224 1.349 . S
C1236 H1230 0.950 . S
C1236 C1237 1.327 . S
C1237 H1231 0.950 . S
C1237 C1236 1.327 . S
C1237 C1241 1.429 . S
C1238 C1221 1.574 . S
C1238 H1232 0.949 . S
C1238 C1242 1.368 . S
C1239 C1220 1.429 . S
C1239 C1233 1.429 . S
C1239 C1240 1.523 . S
C1240 C1221 1.368 . S
C1240 C1234 1.368 . S
C1240 C1239 1.523 . S
C1241 C1225 1.429 . S
C1241 C1237 1.429 . S
C1241 C1242 1.523 . S
C1242 C1226 1.368 . S
C1242 C1238 1.368 . S
C1242 C1241 1.523 . S
H1243 C1218 0.950 . S
H1244 C1220 0.950 . S
H1245 C1221 0.949 . S
H1246 C1223 0.950 . S
H1247 C1225 0.950 . S
C1248 C1249 1.349 . S
C1248 C1250 1.327 . S
C1248 H1273 0.950 . S
C1249 C1248 1.349 . S
C1249 C1265 1.349 . S
C1250 C1248 1.327 . S
C1250 C1269 1.429 . S
C1250 H1274 0.950 . S
C1251 C1268 1.574 1_545 S
C1251 C1270 1.368 . S
C1251 H1275 0.949 . S
H1252 C1256 0.949 . S
C1253 C1254 1.349 . S
C1253 C1255 1.327 . S
C1253 H1276 0.950 . S
C1254 C1253 1.349 . S
C1254 C1266 1.349 . S
C1255 C1253 1.327 . S
C1255 C1271 1.429 . S
C1255 H1277 0.950 . S
C1256 H1252 0.949 . S
C1256 C1264 1.574 1_565 S
C1256 C1272 1.368 . S
H1257 C1265 0.950 . S
H1258 C1263 0.950 . S
H1259 C1264 0.949 . S
H1260 C1266 0.950 . S
H1261 C1267 0.950 . S
H1262 C1268 0.949 . S
C1263 H1258 0.950 . S
C1263 C1265 1.327 . S
C1263 C1269 1.429 . S
C1264 C1256 1.574 1_545 S
C1264 H1259 0.949 . S
C1264 C1270 1.368 1_655 S
C1265 C1249 1.349 . S
C1265 H1257 0.950 . S
C1265 C1263 1.327 . S
C1266 C1254 1.349 . S
C1266 H1260 0.950 . S
C1266 C1267 1.327 . S
C1267 H1261 0.950 . S
C1267 C1266 1.327 . S
C1267 C1271 1.429 . S
C1268 C1251 1.574 1_565 S
C1268 H1262 0.949 . S
C1268 C1272 1.368 1_455 S
C1269 C1250 1.429 . S
C1269 C1263 1.429 . S
C1269 C1270 1.523 . S
C1270 C1251 1.368 . S
C1270 C1264 1.368 1_455 S
C1270 C1269 1.523 . S
C1271 C1255 1.429 . S
C1271 C1267 1.429 . S
C1271 C1272 1.523 . S
C1272 C1256 1.368 . S
C1272 C1268 1.368 1_655 S
C1272 C1271 1.523 . S
H1273 C1248 0.950 . S
H1274 C1250 0.950 . S
H1275 C1251 0.949 . S
H1276 C1253 0.950 . S
H1277 C1255 0.950 . S
C1278 C1279 1.349 . S
C1278 C1280 1.327 . S
C1278 H1303 0.950 . S
C1279 C1278 1.349 . S
C1279 C1295 1.349 . S
C1280 C1278 1.327 . S
C1280 C1299 1.429 . S
C1280 H1304 0.950 . S
C1281 C1298 1.574 1_455 S
C1281 C1300 1.368 . S
C1281 H1305 0.949 . S
H1282 C1286 0.949 . S
C1283 C1284 1.349 . S
C1283 C1285 1.327 . S
C1283 H1306 0.950 . S
C1284 C1283 1.349 . S
C1284 C1296 1.349 . S
C1285 C1283 1.327 . S
C1285 C1301 1.429 . S
C1285 H1307 0.950 . S
C1286 H1282 0.949 . S
C1286 C1294 1.574 1_655 S
C1286 C1302 1.368 . S
H1287 C1295 0.950 . S
H1288 C1293 0.950 . S
H1289 C1294 0.949 . S
H1290 C1296 0.950 . S
H1291 C1297 0.950 . S
H1292 C1298 0.949 . S
C1293 H1288 0.950 . S
C1293 C1295 1.327 . S
C1293 C1299 1.429 . S
C1294 C1286 1.574 1_455 S
C1294 H1289 0.949 . S
C1294 C1300 1.368 . S
C1295 C1279 1.349 . S
C1295 H1287 0.950 . S
C1295 C1293 1.327 . S
C1296 C1284 1.349 . S
C1296 H1290 0.950 . S
C1296 C1297 1.327 . S
C1297 H1291 0.950 . S
C1297 C1296 1.327 . S
C1297 C1301 1.429 . S
C1298 C1281 1.574 1_655 S
C1298 H1292 0.949 . S
C1298 C1302 1.368 . S
C1299 C1280 1.429 . S
C1299 C1293 1.429 . S
C1299 C1300 1.523 . S
C1300 C1281 1.368 . S
C1300 C1294 1.368 . S
C1300 C1299 1.523 . S
C1301 C1285 1.429 . S
C1301 C1297 1.429 . S
C1301 C1302 1.523 . S
C1302 C1286 1.368 . S
C1302 C1298 1.368 . S
C1302 C1301 1.523 . S
H1303 C1278 0.950 . S
H1304 C1280 0.950 . S
H1305 C1281 0.949 . S
H1306 C1283 0.950 . S
H1307 C1285 0.950 . S
C1308 C1309 1.349 . S
C1308 C1310 1.327 . S
C1308 H1333 0.950 . S
C1309 C1308 1.349 . S
C1309 C1325 1.349 . S
C1310 C1308 1.327 . S
C1310 C1329 1.429 . S
C1310 H1334 0.950 . S
C1311 C1328 1.574 . S
C1311 C1330 1.368 . S
C1311 H1335 0.949 . S
H1312 C1316 0.949 . S
C1313 C1314 1.349 . S
C1313 C1315 1.327 . S
C1313 H1336 0.950 . S
C1314 C1313 1.349 . S
C1314 C1326 1.349 . S
C1315 C1313 1.327 . S
C1315 C1331 1.429 . S
C1315 H1337 0.950 . S
C1316 H1312 0.949 . S
C1316 C1324 1.574 . S
C1316 C1332 1.368 . S
H1317 C1325 0.950 . S
H1318 C1323 0.950 . S
H1319 C1324 0.949 . S
H1320 C1326 0.950 . S
H1321 C1327 0.950 . S
H1322 C1328 0.949 . S
C1323 H1318 0.950 . S
C1323 C1325 1.327 . S
C1323 C1329 1.429 . S
C1324 C1316 1.574 . S
C1324 H1319 0.949 . S
C1324 C1330 1.368 . S
C1325 C1309 1.349 . S
C1325 H1317 0.950 . S
C1325 C1323 1.327 . S
C1326 C1314 1.349 . S
C1326 H1320 0.950 . S
C1326 C1327 1.327 . S
C1327 H1321 0.950 . S
C1327 C1326 1.327 . S
C1327 C1331 1.429 . S
C1328 C1311 1.574 . S
C1328 H1322 0.949 . S
C1328 C1332 1.368 . S
C1329 C1310 1.429 . S
C1329 C1323 1.429 . S
C1329 C1330 1.523 . S
C1330 C1311 1.368 . S
C1330 C1324 1.368 . S
C1330 C1329 1.523 . S
C1331 C1315 1.429 . S
C1331 C1327 1.429 . S
C1331 C1332 1.523 . S
C1332 C1316 1.368 . S
C1332 C1328 1.368 . S
C1332 C1331 1.523 . S
H1333 C1308 0.950 . S
H1334 C1310 0.950 . S
H1335 C1311 0.949 . S
H1336 C1313 0.950 . S
H1337 C1315 0.950 . S
C1338 C1339 1.349 . S
C1338 C1340 1.327 . S
C1338 H1363 0.950 . S
C1339 C1338 1.349 . S
C1339 C1355 1.349 . S
C1340 C1338 1.327 . S
C1340 C1359 1.429 . S
C1340 H1364 0.950 . S
C1341 C1358 1.574 . S
C1341 C1360 1.368 1_565 S
C1341 H1365 0.949 . S
H1342 C1346 0.949 . S
C1343 C1344 1.349 . S
C1343 C1345 1.327 . S
C1343 H1366 0.950 . S
C1344 C1343 1.349 . S
C1344 C1356 1.349 . S
C1345 C1343 1.327 . S
C1345 C1361 1.429 . S
C1345 H1367 0.950 . S
C1346 H1342 0.949 . S
C1346 C1354 1.574 . S
C1346 C1362 1.368 1_545 S
H1347 C1355 0.950 . S
H1348 C1353 0.950 . S
H1349 C1354 0.949 . S
H1350 C1356 0.950 . S
H1351 C1357 0.950 . S
H1352 C1358 0.949 . S
C1353 H1348 0.950 . S
C1353 C1355 1.327 . S
C1353 C1359 1.429 . S
C1354 C1346 1.574 . S
C1354 H1349 0.949 . S
C1354 C1360 1.368 . S
C1355 C1339 1.349 . S
C1355 H1347 0.950 . S
C1355 C1353 1.327 . S
C1356 C1344 1.349 . S
C1356 H1350 0.950 . S
C1356 C1357 1.327 . S
C1357 H1351 0.950 . S
C1357 C1356 1.327 . S
C1357 C1361 1.429 . S
C1358 C1341 1.574 . S
C1358 H1352 0.949 . S
C1358 C1362 1.368 . S
C1359 C1340 1.429 . S
C1359 C1353 1.429 . S
C1359 C1360 1.523 . S
C1360 C1341 1.368 1_545 S
C1360 C1354 1.368 . S
C1360 C1359 1.523 . S
C1361 C1345 1.429 . S
C1361 C1357 1.429 . S
C1361 C1362 1.523 . S
C1362 C1346 1.368 1_565 S
C1362 C1358 1.368 . S
C1362 C1361 1.523 . S
H1363 C1338 0.950 . S
H1364 C1340 0.950 . S
H1365 C1341 0.949 . S
H1366 C1343 0.950 . S
H1367 C1345 0.950 . S
C1368 C1369 1.349 . S
C1368 C1370 1.327 . S
C1368 H1393 0.950 . S
C1369 C1368 1.349 . S
C1369 C1385 1.349 . S
C1370 C1368 1.327 . S
C1370 C1389 1.429 . S
C1370 H1394 0.950 . S
C1371 C1388 1.574 . S
C1371 C1390 1.368 1_655 S
C1371 H1395 0.949 . S
H1372 C1376 0.949 . S
C1373 C1374 1.349 . S
C1373 C1375 1.327 . S
C1373 H1396 0.950 . S
C1374 C1373 1.349 . S
C1374 C1386 1.349 . S
C1375 C1373 1.327 . S
C1375 C1391 1.429 . S
C1375 H1397 0.950 . S
C1376 H1372 0.949 . S
C1376 C1384 1.574 . S
C1376 C1392 1.368 1_455 S
H1377 C1385 0.950 . S
H1378 C1383 0.950 . S
H1379 C1384 0.949 . S
H1380 C1386 0.950 . S
H1381 C1387 0.950 . S
H1382 C1388 0.949 . S
C1383 H1378 0.950 . S
C1383 C1385 1.327 . S
C1383 C1389 1.429 . S
C1384 C1376 1.574 . S
C1384 H1379 0.949 . S
C1384 C1390 1.368 . S
C1385 C1369 1.349 . S
C1385 H1377 0.950 . S
C1385 C1383 1.327 . S
C1386 C1374 1.349 . S
C1386 H1380 0.950 . S
C1386 C1387 1.327 . S
C1387 H1381 0.950 . S
C1387 C1386 1.327 . S
C1387 C1391 1.429 . S
C1388 C1371 1.574 . S
C1388 H1382 0.949 . S
C1388 C1392 1.368 . S
C1389 C1370 1.429 . S
C1389 C1383 1.429 . S
C1389 C1390 1.523 . S
C1390 C1371 1.368 1_455 S
C1390 C1384 1.368 . S
C1390 C1389 1.523 . S
C1391 C1375 1.429 . S
C1391 C1387 1.429 . S
C1391 C1392 1.523 . S
C1392 C1376 1.368 1_655 S
C1392 C1388 1.368 . S
C1392 C1391 1.523 . S
H1393 C1368 0.950 . S
H1394 C1370 0.950 . S
H1395 C1371 0.949 . S
H1396 C1373 0.950 . S
H1397 C1375 0.950 . S
C1398 C1399 1.349 . S
C1398 C1400 1.327 . S
C1398 H1423 0.950 . S
C1399 C1398 1.349 . S
C1399 C1415 1.349 . S
C1400 C1398 1.327 . S
C1400 C1419 1.429 . S
C1400 H1424 0.950 . S
C1401 C1418 1.574 . S
C1401 C1420 1.368 . S
C1401 H1425 0.949 . S
H1402 C1406 0.949 . S
C1403 C1404 1.349 . S
C1403 C1405 1.327 . S
C1403 H1426 0.950 . S
C1404 C1403 1.349 . S
C1404 C1416 1.349 . S
C1405 C1403 1.327 . S
C1405 C1421 1.429 . S
C1405 H1427 0.950 . S
C1406 H1402 0.949 . S
C1406 C1414 1.574 . S
C1406 C1422 1.368 . S
H1407 C1415 0.950 . S
H1408 C1413 0.950 . S
H1409 C1414 0.949 . S
H1410 C1416 0.950 . S
H1411 C1417 0.950 . S
H1412 C1418 0.949 . S
C1413 H1408 0.950 . S
C1413 C1415 1.327 . S
C1413 C1419 1.429 . S
C1414 C1406 1.574 . S
C1414 H1409 0.949 . S
C1414 C1420 1.368 . S
C1415 C1399 1.349 . S
C1415 H1407 0.950 . S
C1415 C1413 1.327 . S
C1416 C1404 1.349 . S
C1416 H1410 0.950 . S
C1416 C1417 1.327 . S
C1417 H1411 0.950 . S
C1417 C1416 1.327 . S
C1417 C1421 1.429 . S
C1418 C1401 1.574 . S
C1418 H1412 0.949 . S
C1418 C1422 1.368 . S
C1419 C1400 1.429 . S
C1419 C1413 1.429 . S
C1419 C1420 1.523 . S
C1420 C1401 1.368 . S
C1420 C1414 1.368 . S
C1420 C1419 1.523 . S
C1421 C1405 1.429 . S
C1421 C1417 1.429 . S
C1421 C1422 1.523 . S
C1422 C1406 1.368 . S
C1422 C1418 1.368 . S
C1422 C1421 1.523 . S
H1423 C1398 0.950 . S
H1424 C1400 0.950 . S
H1425 C1401 0.949 . S
H1426 C1403 0.950 . S
H1427 C1405 0.950 . S
C1428 C1429 1.349 . S
C1428 C1430 1.327 . S
C1428 H1453 0.950 . S
C1429 C1428 1.349 . S
C1429 C1445 1.349 . S
C1430 C1428 1.327 . S
C1430 C1449 1.429 . S
C1430 H1454 0.950 . S
C1431 C1448 1.574 1_565 S
C1431 C1450 1.368 . S
C1431 H1455 0.949 . S
H1432 C1436 0.949 . S
C1433 C1434 1.349 . S
C1433 C1435 1.327 . S
C1433 H1456 0.950 . S
C1434 C1433 1.349 . S
C1434 C1446 1.349 . S
C1435 C1433 1.327 . S
C1435 C1451 1.429 . S
C1435 H1457 0.950 . S
C1436 H1432 0.949 . S
C1436 C1444 1.574 1_545 S
C1436 C1452 1.368 . S
H1437 C1445 0.950 . S
H1438 C1443 0.950 . S
H1439 C1444 0.949 . S
H1440 C1446 0.950 . S
H1441 C1447 0.950 . S
H1442 C1448 0.949 . S
C1443 H1438 0.950 . S
C1443 C1445 1.327 . S
C1443 C1449 1.429 . S
C1444 C1436 1.574 1_565 S
C1444 H1439 0.949 . S
C1444 C1450 1.368 . S
C1445 C1429 1.349 . S
C1445 H1437 0.950 . S
C1445 C1443 1.327 . S
C1446 C1434 1.349 . S
C1446 H1440 0.950 . S
C1446 C1447 1.327 . S
C1447 H1441 0.950 . S
C1447 C1446 1.327 . S
C1447 C1451 1.429 . S
C1448 C1431 1.574 1_545 S
C1448 H1442 0.949 . S
C1448 C1452 1.368 . S
C1449 C1430 1.429 . S
C1449 C1443 1.429 . S
C1449 C1450 1.523 . S
C1450 C1431 1.368 . S
C1450 C1444 1.368 . S
C1450 C1449 1.523 . S
C1451 C1435 1.429 . S
C1451 C1447 1.429 . S
C1451 C1452 1.523 . S
C1452 C1436 1.368 . S
C1452 C1448 1.368 . S
C1452 C1451 1.523 . S
H1453 C1428 0.950 . S
H1454 C1430 0.950 . S
H1455 C1431 0.949 . S
H1456 C1433 0.950 . S
H1457 C1435 0.950 . S
C1458 C1459 1.349 . S
C1458 C1460 1.327 . S
C1458 H1483 0.950 . S
C1459 C1458 1.349 . S
C1459 C1475 1.349 . S
C1460 C1458 1.327 . S
C1460 C1479 1.429 . S
C1460 H1484 0.950 . S
C1461 C1478 1.574 1_455 S
C1461 C1480 1.368 . S
C1461 H1485 0.949 . S
H1462 C1466 0.949 . S
C1463 C1464 1.349 . S
C1463 C1465 1.327 . S
C1463 H1486 0.950 . S
C1464 C1463 1.349 . S
C1464 C1476 1.349 . S
C1465 C1463 1.327 . S
C1465 C1481 1.429 . S
C1465 H1487 0.950 . S
C1466 H1462 0.949 . S
C1466 C1474 1.574 1_655 S
C1466 C1482 1.368 . S
H1467 C1475 0.950 . S
H1468 C1473 0.950 . S
H1469 C1474 0.949 . S
H1470 C1476 0.950 . S
H1471 C1477 0.950 . S
H1472 C1478 0.949 . S
C1473 H1468 0.950 . S
C1473 C1475 1.327 . S
C1473 C1479 1.429 . S
C1474 C1466 1.574 1_455 S
C1474 H1469 0.949 . S
C1474 C1480 1.368 1_565 S
C1475 C1459 1.349 . S
C1475 H1467 0.950 . S
C1475 C1473 1.327 . S
C1476 C1464 1.349 . S
C1476 H1470 0.950 . S
C1476 C1477 1.327 . S
C1477 H1471 0.950 . S
C1477 C1476 1.327 . S
C1477 C1481 1.429 . S
C1478 C1461 1.574 1_655 S
C1478 H1472 0.949 . S
C1478 C1482 1.368 1_545 S
C1479 C1460 1.429 . S
C1479 C1473 1.429 . S
C1479 C1480 1.523 . S
C1480 C1461 1.368 . S
C1480 C1474 1.368 1_545 S
C1480 C1479 1.523 . S
C1481 C1465 1.429 . S
C1481 C1477 1.429 . S
C1481 C1482 1.523 . S
C1482 C1466 1.368 . S
C1482 C1478 1.368 1_565 S
C1482 C1481 1.523 . S
H1483 C1458 0.950 . S
H1484 C1460 0.950 . S
H1485 C1461 0.949 . S
H1486 C1463 0.950 . S
H1487 C1465 0.950 . S
C1488 C1489 1.349 . S
C1488 C1490 1.327 . S
C1488 H1513 0.950 . S
C1489 C1488 1.349 . S
C1489 C1505 1.349 . S
C1490 C1488 1.327 . S
C1490 C1509 1.429 . S
C1490 H1514 0.950 . S
C1491 C1508 1.574 . S
C1491 C1510 1.368 . S
C1491 H1515 0.949 . S
H1492 C1496 0.949 . S
C1493 C1494 1.349 . S
C1493 C1495 1.327 . S
C1493 H1516 0.950 . S
C1494 C1493 1.349 . S
C1494 C1506 1.349 . S
C1495 C1493 1.327 . S
C1495 C1511 1.429 . S
C1495 H1517 0.950 . S
C1496 H1492 0.949 . S
C1496 C1504 1.574 . S
C1496 C1512 1.368 . S
H1497 C1505 0.950 . S
H1498 C1503 0.950 . S
H1499 C1504 0.949 . S
H1500 C1506 0.950 . S
H1501 C1507 0.950 . S
H1502 C1508 0.949 . S
C1503 H1498 0.950 . S
C1503 C1505 1.327 . S
C1503 C1509 1.429 . S
C1504 C1496 1.574 . S
C1504 H1499 0.949 . S
C1504 C1510 1.368 . S
C1505 C1489 1.349 . S
C1505 H1497 0.950 . S
C1505 C1503 1.327 . S
C1506 C1494 1.349 . S
C1506 H1500 0.950 . S
C1506 C1507 1.327 . S
C1507 H1501 0.950 . S
C1507 C1506 1.327 . S
C1507 C1511 1.429 . S
C1508 C1491 1.574 . S
C1508 H1502 0.949 . S
C1508 C1512 1.368 . S
C1509 C1490 1.429 . S
C1509 C1503 1.429 . S
C1509 C1510 1.523 . S
C1510 C1491 1.368 . S
C1510 C1504 1.368 . S
C1510 C1509 1.523 . S
C1511 C1495 1.429 . S
C1511 C1507 1.429 . S
C1511 C1512 1.523 . S
C1512 C1496 1.368 . S
C1512 C1508 1.368 . S
C1512 C1511 1.523 . S
H1513 C1488 0.950 . S
H1514 C1490 0.950 . S
H1515 C1491 0.949 . S
H1516 C1493 0.950 . S
H1517 C1495 0.950 . S
C1518 C1519 1.349 . S
C1518 C1520 1.327 . S
C1518 H1543 0.950 . S
C1519 C1518 1.349 . S
C1519 C1535 1.349 . S
C1520 C1518 1.327 . S
C1520 C1539 1.429 . S
C1520 H1544 0.950 . S
C1521 C1538 1.574 . S
C1521 C1540 1.368 . S
C1521 H1545 0.949 . S
H1522 C1526 0.949 . S
C1523 C1524 1.349 . S
C1523 C1525 1.327 . S
C1523 H1546 0.950 . S
C1524 C1523 1.349 . S
C1524 C1536 1.349 . S
C1525 C1523 1.327 . S
C1525 C1541 1.429 . S
C1525 H1547 0.950 . S
C1526 H1522 0.949 . S
C1526 C1534 1.574 . S
C1526 C1542 1.368 . S
H1527 C1535 0.950 . S
H1528 C1533 0.950 . S
H1529 C1534 0.949 . S
H1530 C1536 0.950 . S
H1531 C1537 0.950 . S
H1532 C1538 0.949 . S
C1533 H1528 0.950 . S
C1533 C1535 1.327 . S
C1533 C1539 1.429 . S
C1534 C1526 1.574 . S
C1534 H1529 0.949 . S
C1534 C1540 1.368 . S
C1535 C1519 1.349 . S
C1535 H1527 0.950 . S
C1535 C1533 1.327 . S
C1536 C1524 1.349 . S
C1536 H1530 0.950 . S
C1536 C1537 1.327 . S
C1537 H1531 0.950 . S
C1537 C1536 1.327 . S
C1537 C1541 1.429 . S
C1538 C1521 1.574 . S
C1538 H1532 0.949 . S
C1538 C1542 1.368 . S
C1539 C1520 1.429 . S
C1539 C1533 1.429 . S
C1539 C1540 1.523 . S
C1540 C1521 1.368 . S
C1540 C1534 1.368 . S
C1540 C1539 1.523 . S
C1541 C1525 1.429 . S
C1541 C1537 1.429 . S
C1541 C1542 1.523 . S
C1542 C1526 1.368 . S
C1542 C1538 1.368 . S
C1542 C1541 1.523 . S
H1543 C1518 0.950 . S
H1544 C1520 0.950 . S
H1545 C1521 0.949 . S
H1546 C1523 0.950 . S
H1547 C1525 0.950 . S
C1548 C1549 1.349 . S
C1548 C1550 1.327 . S
C1548 H1573 0.950 . S
C1549 C1548 1.349 . S
C1549 C1565 1.349 . S
C1550 C1548 1.327 . S
C1550 C1569 1.429 . S
C1550 H1574 0.950 . S
C1551 C1568 1.574 . S
C1551 C1570 1.368 . S
C1551 H1575 0.949 . S
H1552 C1556 0.949 . S
C1553 C1554 1.349 . S
C1553 C1555 1.327 . S
C1553 H1576 0.950 . S
C1554 C1553 1.349 . S
C1554 C1566 1.349 . S
C1555 C1553 1.327 . S
C1555 C1571 1.429 . S
C1555 H1577 0.950 . S
C1556 H1552 0.949 . S
C1556 C1564 1.574 . S
C1556 C1572 1.368 . S
H1557 C1565 0.950 . S
H1558 C1563 0.950 . S
H1559 C1564 0.949 . S
H1560 C1566 0.950 . S
H1561 C1567 0.950 . S
H1562 C1568 0.949 . S
C1563 H1558 0.950 . S
C1563 C1565 1.327 . S
C1563 C1569 1.429 . S
C1564 C1556 1.574 . S
C1564 H1559 0.949 . S
C1564 C1570 1.368 . S
C1565 C1549 1.349 . S
C1565 H1557 0.950 . S
C1565 C1563 1.327 . S
C1566 C1554 1.349 . S
C1566 H1560 0.950 . S
C1566 C1567 1.327 . S
C1567 H1561 0.950 . S
C1567 C1566 1.327 . S
C1567 C1571 1.429 . S
C1568 C1551 1.574 . S
C1568 H1562 0.949 . S
C1568 C1572 1.368 . S
C1569 C1550 1.429 . S
C1569 C1563 1.429 . S
C1569 C1570 1.523 . S
C1570 C1551 1.368 . S
C1570 C1564 1.368 . S
C1570 C1569 1.523 . S
C1571 C1555 1.429 . S
C1571 C1567 1.429 . S
C1571 C1572 1.523 . S
C1572 C1556 1.368 . S
C1572 C1568 1.368 . S
C1572 C1571 1.523 . S
H1573 C1548 0.950 . S
H1574 C1550 0.950 . S
H1575 C1551 0.949 . S
H1576 C1553 0.950 . S
H1577 C1555 0.950 . S
C1578 C1579 1.349 . S
C1578 C1580 1.327 . S
C1578 H1603 0.950 . S
C1579 C1578 1.349 . S
C1579 C1595 1.349 . S
C1580 C1578 1.327 . S
C1580 C1599 1.429 . S
C1580 H1604 0.950 . S
C1581 C1598 1.574 . S
C1581 C1600 1.368 . S
C1581 H1605 0.949 . S
H1582 C1586 0.949 . S
C1583 C1584 1.349 . S
C1583 C1585 1.327 . S
C1583 H1606 0.950 . S
C1584 C1583 1.349 . S
C1584 C1596 1.349 . S
C1585 C1583 1.327 . S
C1585 C1601 1.429 . S
C1585 H1607 0.950 . S
C1586 H1582 0.949 . S
C1586 C1594 1.574 . S
C1586 C1602 1.368 . S
H1587 C1595 0.950 . S
H1588 C1593 0.950 . S
H1589 C1594 0.949 . S
H1590 C1596 0.950 . S
H1591 C1597 0.950 . S
H1592 C1598 0.949 . S
C1593 H1588 0.950 . S
C1593 C1595 1.327 . S
C1593 C1599 1.429 . S
C1594 C1586 1.574 . S
C1594 H1589 0.949 . S
C1594 C1600 1.368 . S
C1595 C1579 1.349 . S
C1595 H1587 0.950 . S
C1595 C1593 1.327 . S
C1596 C1584 1.349 . S
C1596 H1590 0.950 . S
C1596 C1597 1.327 . S
C1597 H1591 0.950 . S
C1597 C1596 1.327 . S
C1597 C1601 1.429 . S
C1598 C1581 1.574 . S
C1598 H1592 0.949 . S
C1598 C1602 1.368 . S
C1599 C1580 1.429 . S
C1599 C1593 1.429 . S
C1599 C1600 1.523 . S
C1600 C1581 1.368 . S
C1600 C1594 1.368 . S
C1600 C1599 1.523 . S
C1601 C1585 1.429 . S
C1601 C1597 1.429 . S
C1601 C1602 1.523 . S
C1602 C1586 1.368 . S
C1602 C1598 1.368 . S
C1602 C1601 1.523 . S
H1603 C1578 0.950 . S
H1604 C1580 0.950 . S
H1605 C1581 0.949 . S
H1606 C1583 0.950 . S
H1607 C1585 0.950 . S
C1608 C1609 1.349 . S
C1608 C1610 1.327 . S
C1608 H1633 0.950 . S
C1609 C1608 1.349 . S
C1609 C1625 1.349 . S
C1610 C1608 1.327 . S
C1610 C1629 1.429 . S
C1610 H1634 0.950 . S
C1611 C1628 1.574 . S
C1611 C1630 1.368 . S
C1611 H1635 0.949 . S
H1612 C1616 0.949 . S
C1613 C1614 1.349 . S
C1613 C1615 1.327 . S
C1613 H1636 0.950 . S
C1614 C1613 1.349 . S
C1614 C1626 1.349 . S
C1615 C1613 1.327 . S
C1615 C1631 1.429 . S
C1615 H1637 0.950 . S
C1616 H1612 0.949 . S
C1616 C1624 1.574 . S
C1616 C1632 1.368 . S
H1617 C1625 0.950 . S
H1618 C1623 0.950 . S
H1619 C1624 0.949 . S
H1620 C1626 0.950 . S
H1621 C1627 0.950 . S
H1622 C1628 0.949 . S
C1623 H1618 0.950 . S
C1623 C1625 1.327 . S
C1623 C1629 1.429 . S
C1624 C1616 1.574 . S
C1624 H1619 0.949 . S
C1624 C1630 1.368 . S
C1625 C1609 1.349 . S
C1625 H1617 0.950 . S
C1625 C1623 1.327 . S
C1626 C1614 1.349 . S
C1626 H1620 0.950 . S
C1626 C1627 1.327 . S
C1627 H1621 0.950 . S
C1627 C1626 1.327 . S
C1627 C1631 1.429 . S
C1628 C1611 1.574 . S
C1628 H1622 0.949 . S
C1628 C1632 1.368 . S
C1629 C1610 1.429 . S
C1629 C1623 1.429 . S
C1629 C1630 1.523 . S
C1630 C1611 1.368 . S
C1630 C1624 1.368 . S
C1630 C1629 1.523 . S
C1631 C1615 1.429 . S
C1631 C1627 1.429 . S
C1631 C1632 1.523 . S
C1632 C1616 1.368 . S
C1632 C1628 1.368 . S
C1632 C1631 1.523 . S
H1633 C1608 0.950 . S
H1634 C1610 0.950 . S
H1635 C1611 0.949 . S
H1636 C1613 0.950 . S
H1637 C1615 0.950 . S
C1638 C1639 1.349 . S
C1638 C1640 1.327 . S
C1638 H1663 0.950 . S
C1639 C1638 1.349 . S
C1639 C1655 1.349 . S
C1640 C1638 1.327 . S
C1640 C1659 1.429 . S
C1640 H1664 0.950 . S
C1641 C1658 1.574 . S
C1641 C1660 1.368 . S
C1641 H1665 0.949 . S
H1642 C1646 0.949 . S
C1643 C1644 1.349 . S
C1643 C1645 1.327 . S
C1643 H1666 0.950 . S
C1644 C1643 1.349 . S
C1644 C1656 1.349 . S
C1645 C1643 1.327 . S
C1645 C1661 1.429 . S
C1645 H1667 0.950 . S
C1646 H1642 0.949 . S
C1646 C1654 1.574 . S
C1646 C1662 1.368 . S
H1647 C1655 0.950 . S
H1648 C1653 0.950 . S
H1649 C1654 0.949 . S
H1650 C1656 0.950 . S
H1651 C1657 0.950 . S
H1652 C1658 0.949 . S
C1653 H1648 0.950 . S
C1653 C1655 1.327 . S
C1653 C1659 1.429 . S
C1654 C1646 1.574 . S
C1654 H1649 0.949 . S
C1654 C1660 1.368 . S
C1655 C1639 1.349 . S
C1655 H1647 0.950 . S
C1655 C1653 1.327 . S
C1656 C1644 1.349 . S
C1656 H1650 0.950 . S
C1656 C1657 1.327 . S
C1657 H1651 0.950 . S
C1657 C1656 1.327 . S
C1657 C1661 1.429 . S
C1658 C1641 1.574 . S
C1658 H1652 0.949 . S
C1658 C1662 1.368 . S
C1659 C1640 1.429 . S
C1659 C1653 1.429 . S
C1659 C1660 1.523 . S
C1660 C1641 1.368 . S
C1660 C1654 1.368 . S
C1660 C1659 1.523 . S
C1661 C1645 1.429 . S
C1661 C1657 1.429 . S
C1661 C1662 1.523 . S
C1662 C1646 1.368 . S
C1662 C1658 1.368 . S
C1662 C1661 1.523 . S
H1663 C1638 0.950 . S
H1664 C1640 0.950 . S
H1665 C1641 0.949 . S
H1666 C1643 0.950 . S
H1667 C1645 0.950 . S
C1668 C1669 1.349 . S
C1668 C1670 1.327 . S
C1668 H1693 0.950 . S
C1669 C1668 1.349 . S
C1669 C1685 1.349 . S
C1670 C1668 1.327 . S
C1670 C1689 1.429 . S
C1670 H1694 0.950 . S
C1671 C1688 1.574 . S
C1671 C1690 1.368 . S
C1671 H1695 0.949 . S
H1672 C1676 0.949 . S
C1673 C1674 1.349 . S
C1673 C1675 1.327 . S
C1673 H1696 0.950 . S
C1674 C1673 1.349 . S
C1674 C1686 1.349 . S
C1675 C1673 1.327 . S
C1675 C1691 1.429 . S
C1675 H1697 0.950 . S
C1676 H1672 0.949 . S
C1676 C1684 1.574 . S
C1676 C1692 1.368 . S
H1677 C1685 0.950 . S
H1678 C1683 0.950 . S
H1679 C1684 0.949 . S
H1680 C1686 0.950 . S
H1681 C1687 0.950 . S
H1682 C1688 0.949 . S
C1683 H1678 0.950 . S
C1683 C1685 1.327 . S
C1683 C1689 1.429 . S
C1684 C1676 1.574 . S
C1684 H1679 0.949 . S
C1684 C1690 1.368 . S
C1685 C1669 1.349 . S
C1685 H1677 0.950 . S
C1685 C1683 1.327 . S
C1686 C1674 1.349 . S
C1686 H1680 0.950 . S
C1686 C1687 1.327 . S
C1687 H1681 0.950 . S
C1687 C1686 1.327 . S
C1687 C1691 1.429 . S
C1688 C1671 1.574 . S
C1688 H1682 0.949 . S
C1688 C1692 1.368 . S
C1689 C1670 1.429 . S
C1689 C1683 1.429 . S
C1689 C1690 1.523 . S
C1690 C1671 1.368 . S
C1690 C1684 1.368 . S
C1690 C1689 1.523 . S
C1691 C1675 1.429 . S
C1691 C1687 1.429 . S
C1691 C1692 1.523 . S
C1692 C1676 1.368 . S
C1692 C1688 1.368 . S
C1692 C1691 1.523 . S
H1693 C1668 0.950 . S
H1694 C1670 0.950 . S
H1695 C1671 0.949 . S
H1696 C1673 0.950 . S
H1697 C1675 0.950 . S
C1698 C1699 1.349 . S
C1698 C1700 1.327 . S
C1698 H1723 0.950 . S
C1699 C1698 1.349 . S
C1699 C1715 1.349 . S
C1700 C1698 1.327 . S
C1700 C1719 1.429 . S
C1700 H1724 0.950 . S
C1701 C1718 1.574 . S
C1701 C1720 1.368 . S
C1701 H1725 0.949 . S
H1702 C1706 0.949 . S
C1703 C1704 1.349 . S
C1703 C1705 1.327 . S
C1703 H1726 0.950 . S
C1704 C1703 1.349 . S
C1704 C1716 1.349 . S
C1705 C1703 1.327 . S
C1705 C1721 1.429 . S
C1705 H1727 0.950 . S
C1706 H1702 0.949 . S
C1706 C1714 1.574 . S
C1706 C1722 1.368 . S
H1707 C1715 0.950 . S
H1708 C1713 0.950 . S
H1709 C1714 0.949 . S
H1710 C1716 0.950 . S
H1711 C1717 0.950 . S
H1712 C1718 0.949 . S
C1713 H1708 0.950 . S
C1713 C1715 1.327 . S
C1713 C1719 1.429 . S
C1714 C1706 1.574 . S
C1714 H1709 0.949 . S
C1714 C1720 1.368 . S
C1715 C1699 1.349 . S
C1715 H1707 0.950 . S
C1715 C1713 1.327 . S
C1716 C1704 1.349 . S
C1716 H1710 0.950 . S
C1716 C1717 1.327 . S
C1717 H1711 0.950 . S
C1717 C1716 1.327 . S
C1717 C1721 1.429 . S
C1718 C1701 1.574 . S
C1718 H1712 0.949 . S
C1718 C1722 1.368 . S
C1719 C1700 1.429 . S
C1719 C1713 1.429 . S
C1719 C1720 1.523 . S
C1720 C1701 1.368 . S
C1720 C1714 1.368 . S
C1720 C1719 1.523 . S
C1721 C1705 1.429 . S
C1721 C1717 1.429 . S
C1721 C1722 1.523 . S
C1722 C1706 1.368 . S
C1722 C1718 1.368 . S
C1722 C1721 1.523 . S
H1723 C1698 0.950 . S
H1724 C1700 0.950 . S
H1725 C1701 0.949 . S
H1726 C1703 0.950 . S
H1727 C1705 0.950 . S
C529 N14 0.436 . S
C534 N443 0.436 . S
C559 N476 0.436 . S
C564 N47 0.436 . S
C589 N509 0.436 . S
C594 N80 0.436 . S
C619 N410 0.436 . S
C624 N113 0.436 . S
C649 N377 0.436 . S
C654 N146 0.436 . S
C679 N278 0.436 . S
C684 N179 0.436 . S
C709 N212 0.436 . S
C714 N311 0.436 . S
C739 N344 0.436 . S
C744 N245 0.436 . S
C769 C305 2.100 . S
C774 N5 2.166 . S
C799 N38 2.166 . S
C804 C338 2.100 . S
C829 N71 2.166 . S
C834 C371 2.100 . S
C859 N104 2.166 1_556 S
C864 C272 2.100 . S
C889 N137 2.166 1_554 S
C894 C503 2.100 . S
C919 C404 2.100 . S
C924 N170 2.166 . S
C949 C437 2.100 . S
C954 N203 2.166 . S
C979 C470 2.100 . S
C984 N236 2.166 . S
C1009 N269 2.166 . S
C1014 C41 2.100 . S
C1039 N302 2.166 1_556 S
C1044 C74 2.100 . S
C1069 N335 2.166 . S
C1074 C107 2.100 . S
C1099 C8 2.100 . S
C1104 N368 2.166 . S
C1129 N401 2.166 . S
C1134 C239 2.100 . S
C1159 C140 2.100 . S
C1164 N434 2.166 . S
C1189 N467 2.166 1_554 S
C1194 C173 2.100 . S
C1219 N500 2.166 . S
C1224 C206 2.100 . S
C1249 C17 1.360 . S
C1254 C347 1.360 . S
C1279 C380 1.361 . S
C1284 C50 1.361 . S
C1309 C83 1.361 . S
C1314 C281 1.361 . S
C1339 C314 1.361 . S
C1344 C116 1.361 . S
C1369 C149 1.361 . S
C1374 C479 1.361 . S
C1399 C512 1.361 . S
C1404 C182 1.361 . S
C1429 C413 1.361 . S
C1434 C215 1.361 . S
C1459 C446 1.360 . S
C1464 C248 1.360 . S
C1489 C226 0.504 . S
C1494 C28 0.504 . S
C1519 C61 0.504 . S
C1524 C259 0.504 . S
C1549 C160 0.504 . S
C1554 C94 0.504 . S
C1579 C127 0.504 . S
C1584 C193 0.504 . S
C1609 C292 0.504 . S
C1614 C490 0.504 . S
C1639 C325 0.504 . S
C1644 C523 0.504 . S
C1669 C358 0.504 . S
C1674 C424 0.504 . S
C1699 C457 0.504 . S
C1704 C391 0.504 . S
