# Generated by pormake.
# Topology zfd, (5)-cn, num edge types: 1
# Building blocks:
#     Node 0, Type 0, BuildingBlock: XOMCOT_clean_sbu_1, # of connection points: 5
#     Node 1, Type 0, BuildingBlock: XOMCOT_clean_sbu_1, # of connection points: 5
#     Node 2, Type 0, BuildingBlock: XOMCOT_clean_sbu_1, # of connection points: 5
#     Node 3, Type 0, BuildingBlock: XOMCOT_clean_sbu_1, # of connection points: 5
#     Node 4, Type 0, BuildingBlock: XOMCOT_clean_sbu_1, # of connection points: 5
#     Node 5, Type 0, BuildingBlock: XOMCOT_clean_sbu_1, # of connection points: 5
#     Node 6, Type 0, BuildingBlock: XOMCOT_clean_sbu_1, # of connection points: 5
#     Node 7, Type 0, BuildingBlock: XOMCOT_clean_sbu_1, # of connection points: 5
#     Node 8, Type 0, BuildingBlock: XOMCOT_clean_sbu_1, # of connection points: 5
#     Node 9, Type 0, BuildingBlock: XOMCOT_clean_sbu_1, # of connection points: 5
#     Node 10, Type 0, BuildingBlock: XOMCOT_clean_sbu_1, # of connection points: 5
#     Node 11, Type 0, BuildingBlock: XOMCOT_clean_sbu_1, # of connection points: 5
#     Node 12, Type 0, BuildingBlock: XOMCOT_clean_sbu_1, # of connection points: 5
#     Node 13, Type 0, BuildingBlock: XOMCOT_clean_sbu_1, # of connection points: 5
#     Node 14, Type 0, BuildingBlock: XOMCOT_clean_sbu_1, # of connection points: 5
#     Node 15, Type 0, BuildingBlock: XOMCOT_clean_sbu_1, # of connection points: 5
#     Edge 16, Type (0, 0), BuildingBlock: MIFKUJ_clean_linker_0, # of connection points: 2
#     Edge 17, Type (0, 0), BuildingBlock: MIFKUJ_clean_linker_0, # of connection points: 2
#     Edge 18, Type (0, 0), BuildingBlock: MIFKUJ_clean_linker_0, # of connection points: 2
#     Edge 19, Type (0, 0), BuildingBlock: MIFKUJ_clean_linker_0, # of connection points: 2
#     Edge 20, Type (0, 0), BuildingBlock: MIFKUJ_clean_linker_0, # of connection points: 2
#     Edge 21, Type (0, 0), BuildingBlock: MIFKUJ_clean_linker_0, # of connection points: 2
#     Edge 22, Type (0, 0), BuildingBlock: MIFKUJ_clean_linker_0, # of connection points: 2
#     Edge 23, Type (0, 0), BuildingBlock: MIFKUJ_clean_linker_0, # of connection points: 2
#     Edge 24, Type (0, 0), BuildingBlock: MIFKUJ_clean_linker_0, # of connection points: 2
#     Edge 25, Type (0, 0), BuildingBlock: MIFKUJ_clean_linker_0, # of connection points: 2
#     Edge 26, Type (0, 0), BuildingBlock: MIFKUJ_clean_linker_0, # of connection points: 2
#     Edge 27, Type (0, 0), BuildingBlock: MIFKUJ_clean_linker_0, # of connection points: 2
#     Edge 28, Type (0, 0), BuildingBlock: MIFKUJ_clean_linker_0, # of connection points: 2
#     Edge 29, Type (0, 0), BuildingBlock: MIFKUJ_clean_linker_0, # of connection points: 2
#     Edge 30, Type (0, 0), BuildingBlock: MIFKUJ_clean_linker_0, # of connection points: 2
#     Edge 31, Type (0, 0), BuildingBlock: MIFKUJ_clean_linker_0, # of connection points: 2
#     Edge 32, Type (0, 0), BuildingBlock: MIFKUJ_clean_linker_0, # of connection points: 2
#     Edge 33, Type (0, 0), BuildingBlock: MIFKUJ_clean_linker_0, # of connection points: 2
#     Edge 34, Type (0, 0), BuildingBlock: MIFKUJ_clean_linker_0, # of connection points: 2
#     Edge 35, Type (0, 0), BuildingBlock: MIFKUJ_clean_linker_0, # of connection points: 2
#     Edge 36, Type (0, 0), BuildingBlock: MIFKUJ_clean_linker_0, # of connection points: 2
#     Edge 37, Type (0, 0), BuildingBlock: MIFKUJ_clean_linker_0, # of connection points: 2
#     Edge 38, Type (0, 0), BuildingBlock: MIFKUJ_clean_linker_0, # of connection points: 2
#     Edge 39, Type (0, 0), BuildingBlock: MIFKUJ_clean_linker_0, # of connection points: 2
#     Edge 40, Type (0, 0), BuildingBlock: MIFKUJ_clean_linker_0, # of connection points: 2
#     Edge 41, Type (0, 0), BuildingBlock: MIFKUJ_clean_linker_0, # of connection points: 2
#     Edge 42, Type (0, 0), BuildingBlock: MIFKUJ_clean_linker_0, # of connection points: 2
#     Edge 43, Type (0, 0), BuildingBlock: MIFKUJ_clean_linker_0, # of connection points: 2
#     Edge 44, Type (0, 0), BuildingBlock: MIFKUJ_clean_linker_0, # of connection points: 2
#     Edge 45, Type (0, 0), BuildingBlock: MIFKUJ_clean_linker_0, # of connection points: 2
#     Edge 46, Type (0, 0), BuildingBlock: MIFKUJ_clean_linker_0, # of connection points: 2
#     Edge 47, Type (0, 0), BuildingBlock: MIFKUJ_clean_linker_0, # of connection points: 2
#     Edge 48, Type (0, 0), BuildingBlock: MIFKUJ_clean_linker_0, # of connection points: 2
#     Edge 49, Type (0, 0), BuildingBlock: MIFKUJ_clean_linker_0, # of connection points: 2
#     Edge 50, Type (0, 0), BuildingBlock: MIFKUJ_clean_linker_0, # of connection points: 2
#     Edge 51, Type (0, 0), BuildingBlock: MIFKUJ_clean_linker_0, # of connection points: 2
#     Edge 52, Type (0, 0), BuildingBlock: MIFKUJ_clean_linker_0, # of connection points: 2
#     Edge 53, Type (0, 0), BuildingBlock: MIFKUJ_clean_linker_0, # of connection points: 2
#     Edge 54, Type (0, 0), BuildingBlock: MIFKUJ_clean_linker_0, # of connection points: 2
#     Edge 55, Type (0, 0), BuildingBlock: MIFKUJ_clean_linker_0, # of connection points: 2
# Relax obj value: 0.203
# Max RMSD: 0.192
# Mean RMSD: 0.192
data_MOF--net-zfd--node1-XOMCOT_clean_sbu_1--edge1-MIFKUJ_clean_linker_0
_symmetry_space_group_name_H-M    P1
_symmetry_Int_Tables_number       1
_symmetry_cell_setting            triclinic
loop_
_symmetry_equiv_pos_as_xyz
'x, y, z'
_cell_length_a     85.634919
_cell_length_b     85.575333
_cell_length_c     25.749865
_cell_angle_alpha  90.105225
_cell_angle_beta   90.013506
_cell_angle_gamma 90.001588
loop_
_atom_site_label
_atom_site_type_symbol
_atom_site_fract_x
_atom_site_fract_y
_atom_site_fract_z
_atom_type_partial_charge
C0 C 0.10326 0.23596 0.11336 0.0
C1 C 0.11452 0.23331 0.15001 0.0
N2 N 0.12402 0.22203 0.13186 0.0
N3 N 0.10562 0.22632 0.07274 0.0
C4 C 0.11833 0.21789 0.085 0.0
H5 H 0.0942 0.24474 0.11527 0.0
Co6 Co 0.094 0.22829 1.01424 0.0
C7 C 0.10728 0.20768 0.93049 0.0
O8 O 0.10467 0.21971 0.90009 0.0
N9 N 0.08127 0.23099 0.95644 0.0
C10 C 0.06181 0.22611 0.90177 0.0
C11 C 0.07237 0.21959 0.9354 0.0
C12 C 0.07584 0.24434 0.93522 0.0
N13 N 0.06403 0.24166 0.90196 0.0
O14 O 0.07691 0.21636 0.04896 0.0
H15 H 0.07285 0.20741 0.94646 0.0
H16 H 0.07926 0.25591 0.94729 0.0
O17 O 0.10385 0.20882 0.97947 0.0
C18 C 0.06643 0.22558 0.06771 0.0
O19 O 0.06773 0.24055 0.05724 0.0
N20 N 0.11013 0.24153 0.98744 0.0
C21 C 0.13472 0.26335 0.98094 0.0
C22 C 0.13738 0.24736 0.97274 0.0
C23 C 0.12506 0.23666 0.97699 0.0
C24 C 0.10741 0.25706 0.99571 0.0
C25 C 0.11938 0.26816 0.99153 0.0
H26 H 0.12804 0.22445 0.97622 0.0
H27 H 0.09618 0.2608 1.01021 0.0
H28 H 0.12343 0.20912 0.05989 0.0
H29 H 0.1159 0.23949 0.18644 0.0
H30 H 0.05257 0.22004 0.88127 0.0
H31 H 0.14905 0.24302 0.96541 0.0
H32 H 0.11683 0.28028 1.00023 0.0
C33 C 0.78848 0.10582 0.10749 0.0
C34 C 0.79232 0.11798 0.13972 0.0
N35 N 0.80326 0.12669 0.11574 0.0
N36 N 0.79699 0.10687 0.0637 0.0
C37 C 0.80601 0.11959 0.0699 0.0
H38 H 0.77941 0.09727 0.11416 0.0
Co39 Co 0.79293 0.09484 1.00701 0.0
C40 C 0.81053 0.10841 0.9165 0.0
O41 O 0.7974 0.10598 0.8913 0.0
N42 N 0.78838 0.08187 0.95066 0.0
C43 C 0.79192 0.06422 0.88845 0.0
C44 C 0.79922 0.07362 0.92415 0.0
C45 C 0.77456 0.07687 0.93154 0.0
N46 N 0.77641 0.06627 0.89332 0.0
O47 O 0.8056 0.0777 0.03843 0.0
H48 H 0.81165 0.07411 0.93138 0.0
H49 H 0.7633 0.08037 0.94617 0.0
O50 O 0.81121 0.10454 0.96518 0.0
C51 C 0.79622 0.06824 0.06171 0.0
O52 O 0.78118 0.07086 0.05633 0.0
N53 N 0.77885 0.11084 0.98438 0.0
C54 C 0.75612 0.13465 0.98193 0.0
C55 C 0.77178 0.13782 0.96985 0.0
C56 C 0.78297 0.12587 0.97209 0.0
C57 C 0.7637 0.10771 0.99724 0.0
C58 C 0.75214 0.11926 0.99505 0.0
H59 H 0.79504 0.12916 0.96768 0.0
H60 H 0.76072 0.09644 1.01328 0.0
H61 H 0.81395 0.1239 0.0406 0.0
H62 H 0.78688 0.12065 0.17661 0.0
H63 H 0.79753 0.05586 0.86293 0.0
H64 H 0.77551 0.14958 0.96063 0.0
H65 H 0.74036 0.11636 1.00691 0.0
C66 C 0.91702 0.78715 0.1131 0.0
C67 C 0.90458 0.78834 0.1462 0.0
N68 N 0.89398 0.7979 0.12435 0.0
N69 N 0.91433 0.796 0.07086 0.0
C70 C 0.90025 0.80256 0.07884 0.0
H71 H 0.927 0.77957 0.118 0.0
Co72 Co 0.92672 0.79397 1.01376 0.0
C73 C 0.91436 0.81416 0.9275 0.0
O74 O 0.91783 0.80218 0.89771 0.0
N75 N 0.94016 0.79121 0.95749 0.0
C76 C 0.95989 0.7959 0.90371 0.0
C77 C 0.94991 0.80237 0.93943 0.0
C78 C 0.94443 0.77806 0.93207 0.0
N79 N 0.95637 0.78064 0.89928 0.0
O80 O 0.94324 0.80633 0.05035 0.0
H81 H 0.9501 0.81435 0.95291 0.0
H82 H 0.93969 0.7666 0.93939 0.0
O83 O 0.91693 0.81312 0.97707 0.0
C84 C 0.95373 0.79728 0.06989 0.0
O85 O 0.95279 0.78231 0.05879 0.0
N86 N 0.9112 0.78027 0.98549 0.0
C87 C 0.88719 0.75781 0.97968 0.0
C88 C 0.88436 0.77351 0.96725 0.0
C89 C 0.8964 0.78455 0.97096 0.0
C90 C 0.91413 0.76498 0.99713 0.0
C91 C 0.90245 0.75356 0.99352 0.0
H92 H 0.89322 0.79664 0.96659 0.0
H93 H 0.92534 0.76178 1.01328 0.0
H94 H 0.89448 0.81007 0.05107 0.0
H95 H 0.90314 0.78205 0.1823 0.0
H96 H 0.96933 0.80179 0.88373 0.0
H97 H 0.87272 0.77741 0.95703 0.0
H98 H 0.90513 0.74169 1.00504 0.0
C99 C 0.23037 0.90753 0.13965 0.0
C100 C 0.22126 0.90481 0.18271 0.0
N101 N 0.20622 0.90691 0.16905 0.0
N102 N 0.221 0.91098 0.09922 0.0
C103 C 0.20641 0.91048 0.11816 0.0
H104 H 0.24299 0.90781 0.13846 0.0
Co105 Co 0.22689 0.91971 0.03762 0.0
C106 C 0.20948 0.89998 0.95843 0.0
O107 O 0.22319 0.89763 0.93691 0.0
N108 N 0.23308 0.9296 0.97581 0.0
C109 C 0.23402 0.94037 0.89713 0.0
C110 C 0.22523 0.93155 0.93063 0.0
C111 C 0.24604 0.93846 0.96992 0.0
N112 N 0.24711 0.94457 0.92202 0.0
O113 O 0.2148 0.9386 0.05775 0.0
H114 H 0.21343 0.92779 0.92297 0.0
H115 H 0.25422 0.94104 1.00075 0.0
O116 O 0.20853 0.90897 0.99897 0.0
C117 C 0.22355 0.9475 0.08583 0.0
O118 O 0.23831 0.94361 0.09078 0.0
N119 N 0.24038 0.90206 0.02539 0.0
C120 C 0.26251 0.87766 0.0287 0.0
C121 C 0.24644 0.87453 0.03251 0.0
C122 C 0.23562 0.88689 0.03182 0.0
C123 C 0.25598 0.9052 0.02246 0.0
C124 C 0.26712 0.89327 0.02287 0.0
H125 H 0.22344 0.88429 0.03871 0.0
H126 H 0.26013 0.91702 0.02336 0.0
H127 H 0.19617 0.9133 0.09538 0.0
H128 H 0.22541 0.90217 0.22143 0.0
H129 H 0.23058 0.94434 0.8589 0.0
H130 H 0.24228 0.86272 0.03864 0.0
H131 H 0.27935 0.8964 0.02024 0.0
C132 C 0.11224 0.78698 0.42122 0.0
C133 C 0.11528 0.79601 0.37825 0.0
N134 N 0.11268 0.81105 0.39113 0.0
N135 N 0.10807 0.7964 0.46087 0.0
C136 C 0.10853 0.81096 0.44156 0.0
H137 H 0.11207 0.77435 0.42258 0.0
Co138 Co 0.09813 0.79053 0.52058 0.0
C139 C 0.11608 0.8066 0.60579 0.0
O140 O 0.11623 0.79262 0.62682 0.0
N141 N 0.08695 0.78449 0.58007 0.0
C142 C 0.07289 0.78567 0.65269 0.0
C143 C 0.08271 0.79372 0.62036 0.0
C144 C 0.07851 0.77128 0.58706 0.0
N145 N 0.07029 0.77153 0.63164 0.0
O146 O 0.07974 0.80295 0.49756 0.0
H147 H 0.08567 0.80592 0.62467 0.0
H148 H 0.07747 0.76208 0.55858 0.0
O149 O 0.10871 0.80849 0.56219 0.0
C150 C 0.07207 0.79379 0.46703 0.0
O151 O 0.077 0.77927 0.46379 0.0
N152 N 0.1153 0.77667 0.53534 0.0
C153 C 0.13956 0.75432 0.53289 0.0
C154 C 0.14285 0.77042 0.53296 0.0
C155 C 0.1306 0.78136 0.53331 0.0
C156 C 0.112 0.76107 0.53444 0.0
C157 C 0.12382 0.74981 0.53464 0.0
H158 H 0.13345 0.79359 0.52898 0.0
H159 H 0.10023 0.75711 0.52942 0.0
H160 H 0.10511 0.8212 0.4635 0.0
H161 H 0.11834 0.79178 0.33994 0.0
H162 H 0.0672 0.79027 0.68702 0.0
H163 H 0.15475 0.77458 0.52988 0.0
H164 H 0.12052 0.7376 0.53423 0.0
C165 C 0.23876 0.10573 0.44126 0.0
C166 C 0.23492 0.11598 0.40268 0.0
N167 N 0.22099 0.12229 0.41459 0.0
N168 N 0.22733 0.10566 0.47723 0.0
C169 C 0.21653 0.11578 0.45987 0.0
H170 H 0.24943 0.09903 0.44383 0.0
Co171 Co 0.22964 0.09427 0.53627 0.0
C172 C 0.21102 0.10917 0.62137 0.0
O173 O 0.22407 0.10718 0.64742 0.0
N174 N 0.23258 0.08181 0.59496 0.0
C175 C 0.22716 0.06566 0.66007 0.0
C176 C 0.22099 0.07413 0.61975 0.0
C177 C 0.24575 0.07731 0.6197 0.0
N178 N 0.24272 0.06774 0.65983 0.0
O179 O 0.21719 0.07718 0.50337 0.0
H180 H 0.20881 0.07454 0.60875 0.0
H181 H 0.25741 0.08052 0.60836 0.0
O182 O 0.21065 0.10469 0.57311 0.0
C183 C 0.22638 0.06842 0.47639 0.0
O184 O 0.24146 0.07092 0.48091 0.0
N185 N 0.24336 0.11049 0.56065 0.0
C186 C 0.26547 0.13497 0.5654 0.0
C187 C 0.2494 0.13797 0.56946 0.0
C188 C 0.2386 0.12571 0.56593 0.0
C189 C 0.25893 0.10743 0.55538 0.0
C190 C 0.27013 0.11933 0.55905 0.0
H191 H 0.22642 0.12879 0.56315 0.0
H192 H 0.26271 0.09592 0.54372 0.0
H193 H 0.20598 0.11877 0.4808 0.0
H194 H 0.24184 0.11868 0.36868 0.0
H195 H 0.22083 0.05798 0.68597 0.0
H196 H 0.24504 0.14983 0.57173 0.0
H197 H 0.28233 0.1163 0.55467 0.0
C198 C 0.91136 0.24477 0.42985 0.0
C199 C 0.90208 0.24225 0.38766 0.0
N200 N 0.89507 0.22829 0.39354 0.0
N201 N 0.9102 0.23255 0.4625 0.0
C202 C 0.90018 0.22259 0.43951 0.0
H203 H 0.9184 0.25504 0.43686 0.0
Co204 Co 0.92143 0.23352 0.52243 0.0
C205 C 0.90649 0.21358 0.60413 0.0
O206 O 0.90856 0.22601 0.63338 0.0
N207 N 0.93389 0.23545 0.58149 0.0
C208 C 0.95099 0.22981 0.64369 0.0
C209 C 0.94151 0.2237 0.60566 0.0
C210 C 0.93936 0.24856 0.60428 0.0
N211 N 0.94961 0.24547 0.64242 0.0
O212 O 0.93817 0.221 0.48829 0.0
H213 H 0.94061 0.21149 0.59511 0.0
H214 H 0.93651 0.26025 0.59227 0.0
O215 O 0.91062 0.21424 0.5556 0.0
C216 C 0.94763 0.23015 0.46423 0.0
O217 O 0.94598 0.24524 0.47197 0.0
N218 N 0.90559 0.2473 0.54872 0.0
C219 C 0.88176 0.27001 0.55463 0.0
C220 C 0.87833 0.25402 0.55874 0.0
C221 C 0.89029 0.2429 0.55461 0.0
C222 C 0.90901 0.26282 0.54379 0.0
C223 C 0.89743 0.27432 0.54789 0.0
H224 H 0.88691 0.23079 0.55183 0.0
H225 H 0.92049 0.26635 0.53118 0.0
H226 H 0.89679 0.21146 0.45591 0.0
H227 H 0.90038 0.25026 0.3557 0.0
H228 H 0.95893 0.22333 0.66827 0.0
H229 H 0.86638 0.25005 0.56271 0.0
H230 H 0.90061 0.28642 0.54179 0.0
C231 C 0.78319 0.91257 0.42404 0.0
C232 C 0.78544 0.90127 0.38728 0.0
N233 N 0.79802 0.89287 0.40119 0.0
N234 N 0.79429 0.91131 0.4609 0.0
C235 C 0.80333 0.89925 0.44585 0.0
H236 H 0.77367 0.92085 0.425 0.0
Co237 Co 0.79258 0.92344 0.51892 0.0
C238 C 0.81112 0.90937 0.60551 0.0
O239 O 0.79822 0.91215 0.63152 0.0
N240 N 0.79017 0.93666 0.57636 0.0
C241 C 0.79611 0.95431 0.63658 0.0
C242 C 0.80179 0.94548 0.59625 0.0
C243 C 0.77748 0.94052 0.60481 0.0
N244 N 0.78079 0.95115 0.6419 0.0
O245 O 0.80526 0.93987 0.48336 0.0
H246 H 0.81367 0.94557 0.58197 0.0
H247 H 0.76599 0.93576 0.59893 0.0
O248 O 0.81144 0.91298 0.55647 0.0
C249 C 0.79584 0.94921 0.45972 0.0
O250 O 0.78087 0.94758 0.46953 0.0
N251 N 0.7785 0.90799 0.54542 0.0
C252 C 0.75542 0.88447 0.55065 0.0
C253 C 0.77132 0.88091 0.55713 0.0
C254 C 0.78262 0.89271 0.55345 0.0
C255 C 0.76311 0.91158 0.53826 0.0
C256 C 0.75143 0.90019 0.54214 0.0
H257 H 0.7947 0.88916 0.55263 0.0
H258 H 0.7599 0.92319 0.52564 0.0
H259 H 0.81306 0.89479 0.46818 0.0
H260 H 0.77833 0.89929 0.35312 0.0
H261 H 0.80266 0.96277 0.65902 0.0
H262 H 0.77518 0.86894 0.56138 0.0
H263 H 0.7394 0.90365 0.5363 0.0
C264 C 0.61444 0.7284 0.62462 0.0
C265 C 0.6189 0.7186 0.66423 0.0
N266 N 0.61644 0.70375 0.64862 0.0
N267 N 0.60944 0.71968 0.58433 0.0
C268 C 0.61086 0.70478 0.59987 0.0
H269 H 0.61393 0.74102 0.62626 0.0
Co270 Co 0.59816 0.72614 0.52818 0.0
C271 C 0.61191 0.70941 0.43602 0.0
O272 O 0.61088 0.72304 0.41281 0.0
N273 N 0.58583 0.73258 0.47206 0.0
C274 C 0.56902 0.73044 0.40659 0.0
C275 C 0.57826 0.7224 0.44071 0.0
C276 C 0.58027 0.74675 0.45789 0.0
N277 N 0.57031 0.74574 0.41752 0.0
O278 O 0.5801 0.71405 0.55526 0.0
H279 H 0.57898 0.70982 0.44369 0.0
H280 H 0.58272 0.75756 0.47779 0.0
O281 O 0.60717 0.70822 0.48361 0.0
C282 C 0.57326 0.72325 0.58766 0.0
O283 O 0.57853 0.73766 0.5905 0.0
N284 N 0.61505 0.73959 0.50956 0.0
C285 C 0.63935 0.76169 0.50532 0.0
C286 C 0.64232 0.74573 0.4971 0.0
C287 C 0.63006 0.73484 0.50018 0.0
C288 C 0.61222 0.75495 0.52023 0.0
C289 C 0.62401 0.7662 0.51687 0.0
H290 H 0.6329 0.72257 0.49792 0.0
H291 H 0.60101 0.75842 0.53546 0.0
H292 H 0.60717 0.69493 0.57652 0.0
H293 H 0.62288 0.72217 0.70234 0.0
H294 H 0.56117 0.72539 0.37816 0.0
H295 H 0.65407 0.74162 0.48968 0.0
H296 H 0.62128 0.77823 0.52638 0.0
C297 C 0.28514 0.60696 0.60895 0.0
C298 C 0.28861 0.61929 0.64087 0.0
N299 N 0.3008 0.627 0.62017 0.0
N300 N 0.29516 0.60687 0.56865 0.0
C301 C 0.30463 0.61918 0.57647 0.0
H302 H 0.2755 0.59893 0.61362 0.0
Co303 Co 0.29264 0.59345 0.51415 0.0
C304 C 0.31185 0.60497 0.42485 0.0
O305 O 0.29941 0.60141 0.39738 0.0
N306 N 0.28959 0.57908 0.46042 0.0
C307 C 0.29472 0.55866 0.40976 0.0
C308 C 0.30098 0.56943 0.4433 0.0
C309 C 0.27648 0.57395 0.43652 0.0
N310 N 0.27936 0.56158 0.40564 0.0
O311 O 0.30504 0.57745 0.55247 0.0
H312 H 0.31301 0.56985 0.45601 0.0
H313 H 0.2649 0.57841 0.44355 0.0
O314 O 0.31152 0.60254 0.47453 0.0
C315 C 0.29545 0.56887 0.57823 0.0
O316 O 0.28047 0.57132 0.57052 0.0
N317 N 0.27887 0.60859 0.48443 0.0
C318 C 0.25646 0.6326 0.47724 0.0
C319 C 0.27227 0.63548 0.46652 0.0
C320 C 0.28328 0.62345 0.47112 0.0
C321 C 0.26351 0.60561 0.49464 0.0
C322 C 0.25212 0.61729 0.49023 0.0
H323 H 0.29542 0.62665 0.46855 0.0
H324 H 0.2602 0.59446 0.51093 0.0
H325 H 0.3139 0.62255 0.55021 0.0
H326 H 0.2823 0.62265 0.67557 0.0
H327 H 0.30085 0.54912 0.39108 0.0
H328 H 0.27625 0.64715 0.45715 0.0
H329 H 0.24018 0.61458 0.50076 0.0
C330 C 0.40921 0.29553 0.63088 0.0
C331 C 0.4064 0.30659 0.66853 0.0
N332 N 0.40886 0.32085 0.6477 0.0
N333 N 0.41325 0.30285 0.58668 0.0
C334 C 0.41291 0.31818 0.59792 0.0
H335 H 0.40905 0.28298 0.63594 0.0
Co336 Co 0.42159 0.29403 0.52837 0.0
C337 C 0.41788 0.31893 0.44568 0.0
O338 O 0.43266 0.31712 0.43347 0.0
N339 N 0.43019 0.28484 0.46952 0.0
C340 C 0.43319 0.27425 0.39136 0.0
C341 C 0.42304 0.28199 0.42373 0.0
C342 C 0.44456 0.27862 0.46431 0.0
N343 N 0.44673 0.27216 0.41708 0.0
O344 O 0.44141 0.30531 0.544 0.0
H345 H 0.41118 0.28535 0.41449 0.0
H346 H 0.45326 0.27863 0.49468 0.0
O347 O 0.41231 0.31111 0.484 0.0
C348 C 0.44876 0.29726 0.57854 0.0
O349 O 0.44264 0.28378 0.59211 0.0
N350 N 0.40346 0.28174 0.51987 0.0
C351 C 0.37871 0.26026 0.51904 0.0
C352 C 0.37597 0.27636 0.51211 0.0
C353 C 0.38854 0.28695 0.51263 0.0
C354 C 0.40628 0.26623 0.52739 0.0
C355 C 0.39417 0.25533 0.52659 0.0
H356 H 0.38625 0.29931 0.50852 0.0
H357 H 0.41808 0.26232 0.5349 0.0
H358 H 0.41602 0.32714 0.57025 0.0
H359 H 0.40333 0.30424 0.7085 0.0
H360 H 0.43093 0.27079 0.35161 0.0
H361 H 0.36422 0.28072 0.50641 0.0
H362 H 0.39687 0.24314 0.53338 0.0
C363 C 0.73354 0.41955 0.6142 0.0
C364 C 0.73283 0.40706 0.64749 0.0
N365 N 0.72397 0.39593 0.62515 0.0
N366 N 0.72507 0.41631 0.57143 0.0
C367 C 0.71919 0.40193 0.57944 0.0
H368 H 0.74055 0.42995 0.61933 0.0
Co369 Co 0.72627 0.42824 0.51264 0.0
C370 C 0.7063 0.41354 0.42948 0.0
O371 O 0.71783 0.41673 0.39767 0.0
N372 N 0.72789 0.44101 0.45393 0.0
C373 C 0.72116 0.45804 0.39294 0.0
C374 C 0.71619 0.45011 0.4361 0.0
C375 C 0.7399 0.44373 0.42108 0.0
N376 N 0.73609 0.45397 0.38333 0.0
O377 O 0.71315 0.44429 0.54778 0.0
H378 H 0.70469 0.45086 0.45328 0.0
H379 H 0.75116 0.43819 0.42396 0.0
O380 O 0.70763 0.41705 0.47831 0.0
C381 C 0.72148 0.45566 0.56535 0.0
O382 O 0.73635 0.45594 0.55284 0.0
N383 N 0.74078 0.41333 0.48589 0.0
C384 C 0.76496 0.39096 0.48374 0.0
C385 C 0.74944 0.3868 0.47235 0.0
C386 C 0.73757 0.39807 0.47392 0.0
C387 C 0.75581 0.41761 0.49614 0.0
C388 C 0.76806 0.4068 0.49401 0.0
H389 H 0.72574 0.394 0.47039 0.0
H390 H 0.75823 0.42941 0.50906 0.0
H391 H 0.7121 0.39573 0.55141 0.0
H392 H 0.73905 0.40594 0.6839 0.0
H393 H 0.71434 0.46639 0.37109 0.0
H394 H 0.7462 0.37473 0.46589 0.0
H395 H 0.77977 0.41081 0.50252 0.0
C396 C 0.61162 0.2825 0.90734 0.0
C397 C 0.62297 0.28307 0.87009 0.0
N398 N 0.6323 0.2954 0.88017 0.0
N399 N 0.6137 0.29437 0.94098 0.0
C400 C 0.6263 0.30215 0.92343 0.0
H401 H 0.60286 0.27349 0.91135 0.0
Co402 Co 0.60212 0.29502 1.00079 0.0
C403 C 0.61885 0.31456 0.07929 0.0
O404 O 0.61597 0.30268 0.11009 0.0
N405 N 0.5896 0.29521 0.06022 0.0
C406 C 0.57392 0.30439 0.12197 0.0
C407 C 0.58292 0.30825 0.07983 0.0
C408 C 0.58409 0.28351 0.0902 0.0
N409 N 0.57469 0.28882 0.12825 0.0
O410 O 0.58619 0.30787 0.96396 0.0
H411 H 0.58436 0.31986 0.06395 0.0
H412 H 0.58654 0.2713 0.08423 0.0
O413 O 0.61421 0.31387 0.03128 0.0
C414 C 0.57606 0.29842 0.94443 0.0
O415 O 0.57711 0.28365 0.95794 0.0
N416 N 0.61687 0.28056 0.02955 0.0
C417 C 0.63875 0.25598 0.03714 0.0
C418 C 0.64352 0.27168 0.03848 0.0
C419 C 0.63251 0.28371 0.03376 0.0
C420 C 0.61207 0.26536 0.02782 0.0
C421 C 0.62266 0.25298 0.03295 0.0
H422 H 0.6369 0.29542 0.02877 0.0
H423 H 0.60012 0.26268 0.01773 0.0
H424 H 0.63122 0.31218 0.94306 0.0
H425 H 0.62454 0.27458 0.83938 0.0
H426 H 0.56681 0.3123 0.14477 0.0
H427 H 0.65579 0.27474 0.03925 0.0
H428 H 0.61827 0.24114 0.0311 0.0
C429 C 0.7344 0.61441 0.92288 0.0
C430 C 0.72598 0.61704 0.87826 0.0
N431 N 0.71088 0.61383 0.88831 0.0
N432 N 0.72454 0.60986 0.96076 0.0
C433 C 0.71031 0.60979 0.93881 0.0
H434 H 0.74699 0.61453 0.92628 0.0
Co435 Co 0.72993 0.59923 0.0198 0.0
C436 C 0.7128 0.61561 0.10607 0.0
O437 O 0.72648 0.61574 0.12924 0.0
N438 N 0.7355 0.58734 0.07814 0.0
C439 C 0.7335 0.57175 0.14688 0.0
C440 C 0.72586 0.58234 0.11625 0.0
C441 C 0.74855 0.57863 0.0845 0.0
N442 N 0.7478 0.56941 0.12682 0.0
O443 O 0.71756 0.58117 0.99388 0.0
H444 H 0.71362 0.58517 0.11959 0.0
H445 H 0.75792 0.57804 0.05657 0.0
O446 O 0.7117 0.60924 0.0605 0.0
C447 C 0.72617 0.57393 0.96066 0.0
O448 O 0.74071 0.57866 0.9559 0.0
N449 N 0.74361 0.61621 0.03819 0.0
C450 C 0.76583 0.64061 0.03772 0.0
C451 C 0.74972 0.64382 0.03843 0.0
C452 C 0.73884 0.63151 0.03795 0.0
C453 C 0.75921 0.61299 0.03751 0.0
C454 C 0.77041 0.62487 0.03859 0.0
H455 H 0.72661 0.63434 0.03382 0.0
H456 H 0.76323 0.60125 0.03172 0.0
H457 H 0.69993 0.60579 0.95868 0.0
H458 H 0.73073 0.62003 0.84063 0.0
H459 H 0.72843 0.56527 0.17878 0.0
H460 H 0.7455 0.65573 0.03622 0.0
H461 H 0.78263 0.62163 0.03794 0.0
C462 C 0.41789 0.73696 0.93907 0.0
C463 C 0.40866 0.73464 0.89655 0.0
N464 N 0.40035 0.7215 0.90419 0.0
N465 N 0.41542 0.72541 0.97348 0.0
C466 C 0.40465 0.71607 0.95139 0.0
H467 H 0.42585 0.74661 0.94512 0.0
Co468 Co 0.42637 0.72624 0.0338 0.0
C469 C 0.41149 0.70622 0.11449 0.0
O470 O 0.41369 0.71858 0.14392 0.0
N471 N 0.43867 0.72786 0.09363 0.0
C472 C 0.45698 0.72149 0.1511 0.0
C473 C 0.44725 0.71594 0.11292 0.0
C474 C 0.44342 0.74053 0.12082 0.0
N475 N 0.45447 0.73692 0.15592 0.0
O476 O 0.4431 0.71381 0.99959 0.0
H477 H 0.44696 0.70408 0.09836 0.0
H478 H 0.43987 0.75236 0.11299 0.0
O479 O 0.41552 0.70691 0.06591 0.0
C480 C 0.45416 0.72247 0.98189 0.0
O481 O 0.45387 0.7374 0.99389 0.0
N482 N 0.41045 0.73985 0.06009 0.0
C483 C 0.38645 0.76235 0.06722 0.0
C484 C 0.38313 0.74631 0.06991 0.0
C485 C 0.39517 0.73531 0.06512 0.0
C486 C 0.41382 0.7554 0.05666 0.0
C487 C 0.40214 0.7668 0.06133 0.0
H488 H 0.39186 0.72322 0.06112 0.0
H489 H 0.42545 0.75906 0.0459 0.0
H490 H 0.40014 0.70557 0.96935 0.0
H491 H 0.40788 0.74225 0.86312 0.0
H492 H 0.46571 0.71487 0.17208 0.0
H493 H 0.3712 0.74219 0.07197 0.0
H494 H 0.40537 0.77899 0.05811 0.0
C495 C 0.29072 0.40418 0.91765 0.0
C496 C 0.29933 0.40157 0.87342 0.0
N497 N 0.31422 0.40563 0.88339 0.0
N498 N 0.30027 0.40955 0.95533 0.0
C499 C 0.31451 0.41018 0.93347 0.0
H500 H 0.27815 0.40338 0.92078 0.0
Co501 Co 0.2945 0.41979 1.0149 0.0
C502 C 0.31108 0.40383 0.10267 0.0
O503 O 0.29721 0.40427 0.12449 0.0
N504 N 0.28868 0.43116 0.07434 0.0
C505 C 0.29142 0.44668 0.14318 0.0
C506 C 0.29911 0.43772 0.10723 0.0
C507 C 0.27475 0.43706 0.08968 0.0
N508 N 0.2761 0.44625 0.13196 0.0
O509 O 0.30675 0.43814 0.99099 0.0
H510 H 0.31165 0.43662 0.10397 0.0
H511 H 0.2639 0.43552 0.0692 0.0
O512 O 0.31259 0.40965 0.05645 0.0
C513 C 0.29725 0.44673 0.96484 0.0
O514 O 0.28249 0.44252 0.96428 0.0
N515 N 0.28076 0.4028 0.03074 0.0
C516 C 0.25802 0.37893 0.02873 0.0
C517 C 0.27397 0.37542 0.0353 0.0
C518 C 0.28515 0.38747 0.03525 0.0
C519 C 0.26542 0.40627 0.02259 0.0
C520 C 0.2539 0.39472 0.0232 0.0
H521 H 0.29736 0.38431 0.03554 0.0
H522 H 0.26212 0.41789 1.01093 0.0
H523 H 0.32469 0.41485 0.95303 0.0
H524 H 0.29481 0.398 0.83597 0.0
H525 H 0.29676 0.45382 0.17308 0.0
H526 H 0.27792 0.36343 0.03753 0.0
H527 H 0.24189 0.3982 0.01729 0.0
H528 H 0.16327 0.25938 0.02741 0.0
H529 H 0.18466 0.2782 0.03461 0.0
H530 H 0.15769 0.31197 0.94884 0.0
H531 H 0.13624 0.2931 0.94101 0.0
H532 H 0.18869 0.31054 0.91621 0.0
H533 H 0.16065 0.31511 0.07797 0.0
H534 H 0.14886 0.30509 0.15869 0.0
H535 H 0.19367 0.28847 0.20917 0.0
H536 H 0.20569 0.2982 0.12837 0.0
H537 H 0.2317 0.37874 0.96711 0.0
H538 H 0.21164 0.35885 0.9603 0.0
H539 H 0.23691 0.32975 0.06798 0.0
H540 H 0.25664 0.35024 0.07808 0.0
H541 H 0.20751 0.32768 0.08944 0.0
H542 H 0.23607 0.32298 0.93133 0.0
H543 H 0.24856 0.33186 0.85031 0.0
H544 H 0.20411 0.34708 0.79205 0.0
H545 H 0.19138 0.33847 0.87304 0.0
C546 C 0.16193 0.27073 1.00945 0.0
C547 C 0.14801 0.27468 0.9834 0.0
C548 C 0.17415 0.28155 1.01404 0.0
C549 C 0.17278 0.29658 0.99267 0.0
C550 C 0.15903 0.30047 0.96577 0.0
C551 C 0.14674 0.28969 0.96154 0.0
C552 C 0.18562 0.30827 0.99874 0.0
C553 C 0.19268 0.31444 0.95407 0.0
C554 C 0.19122 0.31299 0.04812 0.0
C555 C 0.18404 0.30725 0.09689 0.0
C556 C 0.16797 0.30921 0.1061 0.0
C557 C 0.16125 0.3036 0.1519 0.0
C558 C 0.1705 0.29611 0.18897 0.0
C559 C 0.18651 0.29426 0.18039 0.0
C560 C 0.19328 0.29983 0.13462 0.0
C561 C 0.23297 0.36829 0.9903 0.0
C562 C 0.24589 0.36631 0.02365 0.0
C563 C 0.22153 0.35671 0.98553 0.0
C564 C 0.22279 0.34256 1.01278 0.0
C565 C 0.23563 0.34049 0.04621 0.0
C566 C 0.24703 0.35221 0.05158 0.0
C567 C 0.21058 0.33011 1.00678 0.0
C568 C 0.20362 0.32377 0.05148 0.0
C569 C 0.2052 0.32507 0.95735 0.0
C570 C 0.2128 0.3302 0.90846 0.0
C571 C 0.22897 0.32831 0.90139 0.0
C572 C 0.23609 0.33329 0.85545 0.0
C573 C 0.22714 0.34006 0.81611 0.0
C574 C 0.21103 0.34184 0.82258 0.0
C575 C 0.20386 0.3369 0.86847 0.0
H576 H 0.23267 0.34391 0.78057 0.0
H577 H 0.16528 0.29177 0.2244 0.0
H578 H 0.66757 0.25423 0.08522 0.0
H579 H 0.68745 0.2339 0.07589 0.0
H580 H 0.65671 0.20768 0.97595 0.0
H581 H 0.63702 0.22814 0.98316 0.0
H582 H 0.67165 0.189 0.05046 0.0
H583 H 0.6852 0.22787 0.92319 0.0
H584 H 0.69149 0.25449 0.89327 0.0
H585 H 0.73129 0.25571 0.99467 0.0
H586 H 0.72509 0.22917 0.0258 0.0
H587 H 0.72573 0.13442 0.94783 0.0
H588 H 0.70601 0.15491 0.95758 0.0
H589 H 0.73976 0.18422 0.03509 0.0
H590 H 0.75958 0.16389 0.02448 0.0
H591 H 0.72325 0.20159 0.97363 0.0
H592 H 0.71037 0.16338 0.10184 0.0
H593 H 0.70422 0.13714 0.1356 0.0
H594 H 0.66356 0.13501 0.03819 0.0
H595 H 0.6696 0.16116 1.0033 0.0
C596 C 0.665 0.24422 0.06092 0.0
C597 C 0.65055 0.24298 0.03498 0.0
C598 C 0.67641 0.23254 0.05583 0.0
C599 C 0.67364 0.21927 0.02494 0.0
C600 C 0.65912 0.21776 1.00017 0.0
C601 C 0.64778 0.22949 1.00475 0.0
C602 C 0.68596 0.20711 0.01755 0.0
C603 C 0.68287 0.1917 0.0331 0.0
C604 C 0.70077 0.21069 0.99616 0.0
C605 C 0.70458 0.2266 0.97722 0.0
C606 C 0.69521 0.23387 0.93943 0.0
C607 C 0.69878 0.24893 0.9222 0.0
C608 C 0.71176 0.25681 0.94216 0.0
C609 C 0.72123 0.24961 0.9793 0.0
C610 C 0.7177 0.23455 0.99673 0.0
C611 C 0.72896 0.14523 0.96692 0.0
C612 C 0.74427 0.14746 0.98536 0.0
C613 C 0.71764 0.15695 0.97269 0.0
C614 C 0.72123 0.1711 0.99798 0.0
C615 C 0.73661 0.17347 1.01545 0.0
C616 C 0.74798 0.16182 1.0092 0.0
C617 C 0.70899 0.18336 1.00647 0.0
C618 C 0.71207 0.19883 0.99112 0.0
C619 C 0.69422 0.17987 0.02861 0.0
C620 C 0.69053 0.16416 0.04959 0.0
C621 C 0.70019 0.15726 0.08734 0.0
C622 C 0.69671 0.14242 0.10672 0.0
C623 C 0.68353 0.1344 0.08895 0.0
C624 C 0.67378 0.14123 0.05186 0.0
C625 C 0.67722 0.15606 0.03229 0.0
H626 H 0.68086 0.1229 0.10401 0.0
H627 H 0.7145 0.26847 0.92876 0.0
H628 H 0.79312 0.63999 0.98151 0.0
H629 H 0.81291 0.66026 0.97344 0.0
H630 H 0.78548 0.69091 0.07007 0.0
H631 H 0.76565 0.67042 0.0797 0.0
H632 H 0.79762 0.70603 0.98282 0.0
H633 H 0.81687 0.67362 0.1204 0.0
H634 H 0.82443 0.6488 0.1619 0.0
H635 H 0.85905 0.64114 0.04395 0.0
H636 H 0.85153 0.66581 1.00129 0.0
H637 H 0.85811 0.76207 0.02189 0.0
H638 H 0.83717 0.74292 0.03171 0.0
H639 H 0.86558 0.70816 0.95535 0.0
H640 H 0.88672 0.72725 0.94647 0.0
H641 H 0.85237 0.69542 0.03497 0.0
H642 H 0.83309 0.72706 0.89555 0.0
H643 H 0.82558 0.75156 0.85189 0.0
H644 H 0.79117 0.76036 0.96962 0.0
H645 H 0.79862 0.736 1.0144 0.0
C646 C 0.79132 0.6509 1.00197 0.0
C647 C 0.77778 0.65335 0.03212 0.0
C648 C 0.80266 0.66257 0.99692 0.0
C649 C 0.80083 0.67709 0.02163 0.0
C650 C 0.78719 0.6798 0.05067 0.0
C651 C 0.77583 0.66805 0.05605 0.0
C652 C 0.81326 0.68929 0.01713 0.0
C653 C 0.80955 0.70381 0.99495 0.0
C654 C 0.82894 0.6863 0.03165 0.0
C655 C 0.83354 0.6715 0.05739 0.0
C656 C 0.82602 0.66659 0.10308 0.0
C657 C 0.83031 0.65255 0.12685 0.0
C658 C 0.84219 0.64338 0.10551 0.0
C659 C 0.84983 0.64824 0.06041 0.0
C660 C 0.84557 0.66226 0.03644 0.0
C661 C 0.85983 0.75041 1.00645 0.0
C662 C 0.87409 0.74627 0.98292 0.0
C663 C 0.84781 0.73943 1.01211 0.0
C664 C 0.84959 0.72405 0.99362 0.0
C665 C 0.86382 0.7199 0.97001 0.0
C666 C 0.87593 0.73084 0.96486 0.0
C667 C 0.83683 0.7122 1.00013 0.0
C668 C 0.84047 0.69772 0.0228 0.0
C669 C 0.82111 0.7152 0.98566 0.0
C670 C 0.81652 0.72978 0.9586 0.0
C671 C 0.82399 0.73427 0.91232 0.0
C672 C 0.81974 0.74812 0.88735 0.0
C673 C 0.80793 0.75753 0.90805 0.0
C674 C 0.80032 0.75307 0.95367 0.0
C675 C 0.80455 0.73924 0.97884 0.0
H676 H 0.80466 0.76825 0.88867 0.0
H677 H 0.84549 0.63252 0.12397 0.0
H678 H 0.38459 0.78917 1.00864 0.0
H679 H 0.3633 0.80806 1.00444 0.0
H680 H 0.33706 0.78089 0.11501 0.0
H681 H 0.35864 0.76229 0.12133 0.0
H682 H 0.33445 0.8062 0.97273 0.0
H683 H 0.31324 0.80458 0.18578 0.0
H684 H 0.32382 0.79983 0.2735 0.0
H685 H 0.36932 0.81426 0.22247 0.0
H686 H 0.35897 0.81928 0.13468 0.0
H687 H 0.26197 0.84762 0.98924 0.0
H688 H 0.28212 0.82739 0.99731 0.0
H689 H 0.3105 0.85895 0.08774 0.0
H690 H 0.29031 0.8789 0.08146 0.0
H691 H 0.31182 0.83121 0.12947 0.0
H692 H 0.31771 0.85159 0.95698 0.0
H693 H 0.30922 0.85861 0.86851 0.0
H694 H 0.29797 0.8106 0.83718 0.0
H695 H 0.30621 0.80333 0.92576 0.0
C696 C 0.37446 0.78732 0.03298 0.0
C697 C 0.37352 0.77419 0.06581 0.0
C698 C 0.36215 0.79807 0.02995 0.0
C699 C 0.34853 0.79605 0.05962 0.0
C700 C 0.34748 0.78291 0.09218 0.0
C701 C 0.35983 0.77217 0.09543 0.0
C702 C 0.33548 0.80766 0.0562 0.0
C703 C 0.32948 0.8116 1.0071 0.0
C704 C 0.32903 0.81496 0.10078 0.0
C705 C 0.33535 0.81213 0.15355 0.0
C706 C 0.32549 0.80678 0.19335 0.0
C707 C 0.33145 0.80404 0.24307 0.0
C708 C 0.34724 0.80669 0.2535 0.0
C709 C 0.3571 0.81215 0.21429 0.0
C710 C 0.3512 0.81493 0.16453 0.0
C711 C 0.27244 0.85021 1.01123 0.0
C712 C 0.27453 0.86502 0.0341 0.0
C713 C 0.28404 0.83865 1.01547 0.0
C714 C 0.298 0.84165 0.04261 0.0
C715 C 0.29992 0.85629 0.06643 0.0
C716 C 0.28838 0.8678 0.06225 0.0
C717 C 0.31074 0.8297 0.04604 0.0
C718 C 0.31669 0.82569 0.09514 0.0
C719 C 0.31737 0.82261 1.00139 0.0
C720 C 0.3124 0.82695 0.94817 0.0
C721 C 0.3133 0.84255 0.93136 0.0
C722 C 0.30856 0.84657 0.88118 0.0
C723 C 0.30301 0.83507 0.8473 0.0
C724 C 0.30224 0.81951 0.8635 0.0
C725 C 0.30695 0.81543 0.91367 0.0
H726 H 0.29935 0.8382 0.80846 0.0
H727 H 0.35184 0.80454 0.29199 0.0
H728 H 0.1387 0.72681 0.47757 0.0
H729 H 0.15884 0.70687 0.46985 0.0
H730 H 0.18973 0.73452 0.56494 0.0
H731 H 0.16938 0.75452 0.5742 0.0
H732 H 0.20465 0.72212 0.47818 0.0
H733 H 0.17233 0.70326 0.61638 0.0
H734 H 0.14759 0.6958 0.65856 0.0
H735 H 0.1398 0.66081 0.54164 0.0
H736 H 0.1644 0.66822 0.49831 0.0
H737 H 0.2605 0.66173 0.51973 0.0
H738 H 0.24132 0.68266 0.52873 0.0
H739 H 0.2069 0.65416 0.45118 0.0
H740 H 0.22604 0.63303 0.44277 0.0
H741 H 0.19401 0.66746 0.53137 0.0
H742 H 0.22565 0.68641 0.39153 0.0
H743 H 0.25008 0.6939 0.34742 0.0
H744 H 0.25885 0.72864 0.46439 0.0
H745 H 0.23457 0.72121 0.50961 0.0
C746 C 0.14964 0.72864 0.49774 0.0
C747 C 0.15221 0.74229 0.52732 0.0
C748 C 0.16123 0.71719 0.49293 0.0
C749 C 0.17577 0.71905 0.51732 0.0
C750 C 0.17859 0.73279 0.54582 0.0
C751 C 0.16693 0.74425 0.55095 0.0
C752 C 0.18792 0.70657 0.5129 0.0
C753 C 0.20242 0.71022 0.49054 0.0
C754 C 0.18491 0.69092 0.52775 0.0
C755 C 0.17014 0.6864 0.55383 0.0
C756 C 0.16528 0.69406 0.59942 0.0
C757 C 0.15129 0.68982 0.62358 0.0
C758 C 0.14211 0.67787 0.60272 0.0
C759 C 0.14692 0.67009 0.55772 0.0
C760 C 0.16089 0.67429 0.53337 0.0
C761 C 0.24893 0.65998 0.50377 0.0
C762 C 0.2449 0.64569 0.48002 0.0
C763 C 0.23792 0.672 0.50902 0.0
C764 C 0.22263 0.67018 0.49001 0.0
C765 C 0.21858 0.65593 0.46622 0.0
C766 C 0.22956 0.64383 0.46136 0.0
C767 C 0.21078 0.68293 0.49618 0.0
C768 C 0.1963 0.67935 0.51898 0.0
C769 C 0.21379 0.69862 0.48142 0.0
C770 C 0.22837 0.70315 0.45422 0.0
C771 C 0.23285 0.69557 0.40806 0.0
C772 C 0.24666 0.69982 0.38282 0.0
C773 C 0.25603 0.71171 0.40316 0.0
C774 C 0.25159 0.71941 0.44872 0.0
C775 C 0.2378 0.7152 0.47414 0.0
H776 H 0.26672 0.71498 0.38357 0.0
H777 H 0.13128 0.6746 0.62149 0.0
H778 H 0.37795 0.23126 0.47391 0.0
H779 H 0.35783 0.21118 0.48178 0.0
H780 H 0.32984 0.24244 0.57454 0.0
H781 H 0.35014 0.26258 0.56752 0.0
H782 H 0.33147 0.21332 0.61787 0.0
H783 H 0.3196 0.2342 0.44996 0.0
H784 H 0.32529 0.24262 0.36042 0.0
H785 H 0.3397 0.19604 0.32094 0.0
H786 H 0.33431 0.18738 0.41048 0.0
H787 H 0.26483 0.16323 0.61735 0.0
H788 H 0.28275 0.18525 0.60861 0.0
H789 H 0.3107 0.15865 0.5008 0.0
H790 H 0.29235 0.13698 0.50677 0.0
H791 H 0.30803 0.18667 0.46548 0.0
H792 H 0.32155 0.16586 0.63262 0.0
H793 H 0.31674 0.15702 0.72232 0.0
H794 H 0.30024 0.20279 0.76347 0.0
H795 H 0.30477 0.21184 0.67379 0.0
C796 C 0.36751 0.23391 0.49592 0.0
C797 C 0.36571 0.24857 0.52015 0.0
C798 C 0.35593 0.22242 0.5001 0.0
C799 C 0.34221 0.22526 0.52851 0.0
C800 C 0.34029 0.23994 0.55233 0.0
C801 C 0.35185 0.25151 0.54789 0.0
C802 C 0.33018 0.21272 0.53442 0.0
C803 C 0.32614 0.20767 0.58455 0.0
C804 C 0.32349 0.20501 0.49104 0.0
C805 C 0.32667 0.21017 0.43708 0.0
C806 C 0.32409 0.22578 0.4223 0.0
C807 C 0.32725 0.23059 0.37152 0.0
C808 C 0.33289 0.21988 0.33505 0.0
C809 C 0.33535 0.20432 0.34925 0.0
C810 C 0.33222 0.19945 0.4 0.0
C811 C 0.27472 0.16204 0.59149 0.0
C812 C 0.27706 0.14815 0.56303 0.0
C813 C 0.28512 0.17465 0.58699 0.0
C814 C 0.2983 0.17365 0.55454 0.0
C815 C 0.30069 0.15979 0.52627 0.0
C816 C 0.29024 0.14725 0.53035 0.0
C817 C 0.30941 0.18709 0.54902 0.0
C818 C 0.31328 0.19233 0.4989 0.0
C819 C 0.31605 0.19488 0.59243 0.0
C820 C 0.31334 0.18948 0.64637 0.0
C821 C 0.31678 0.174 0.6607 0.0
C822 C 0.31413 0.16896 0.71155 0.0
C823 C 0.30814 0.17932 0.74853 0.0
C824 C 0.30485 0.19476 0.73476 0.0
C825 C 0.30747 0.19986 0.68395 0.0
H826 H 0.3061 0.1754 0.78788 0.0
H827 H 0.33532 0.22363 0.29576 0.0
H828 H 0.7681 0.36287 0.43108 0.0
H829 H 0.78744 0.34231 0.44541 0.0
H830 H 0.81002 0.37068 0.56157 0.0
H831 H 0.79035 0.39092 0.54997 0.0
H832 H 0.831 0.3563 0.48857 0.0
H833 H 0.78849 0.34339 0.60151 0.0
H834 H 0.76093 0.33806 0.62244 0.0
H835 H 0.76141 0.29814 0.52122 0.0
H836 H 0.78886 0.30353 0.49829 0.0
H837 H 0.88119 0.29939 0.59803 0.0
H838 H 0.86127 0.31965 0.58773 0.0
H839 H 0.83376 0.2883 0.49357 0.0
H840 H 0.85356 0.26798 0.50402 0.0
H841 H 0.81502 0.30436 0.55553 0.0
H842 H 0.85677 0.31752 0.43955 0.0
H843 H 0.88398 0.32319 0.41463 0.0
H844 H 0.88471 0.36244 0.51874 0.0
H845 H 0.85756 0.35687 0.54484 0.0
C846 C 0.77705 0.36477 0.4601 0.0
C847 C 0.77748 0.37874 0.48926 0.0
C848 C 0.78819 0.35298 0.46797 0.0
C849 C 0.80017 0.35493 0.50467 0.0
C850 C 0.80094 0.36895 0.53281 0.0
C851 C 0.78967 0.38062 0.52567 0.0
C852 C 0.81172 0.34223 0.51457 0.0
C853 C 0.82754 0.345 0.5038 0.0
C854 C 0.80716 0.32738 0.53344 0.0
C855 C 0.79071 0.32398 0.54767 0.0
C856 C 0.78269 0.33357 0.58324 0.0
C857 C 0.76708 0.33053 0.59554 0.0
C858 C 0.75942 0.31777 0.57322 0.0
C859 C 0.76735 0.30803 0.53846 0.0
C860 C 0.78293 0.3111 0.52571 0.0
C861 C 0.87089 0.29679 0.57521 0.0
C862 C 0.86905 0.28201 0.55182 0.0
C863 C 0.85948 0.30841 0.56925 0.0
C864 C 0.84605 0.30566 0.53912 0.0
C865 C 0.84397 0.29077 0.51703 0.0
C866 C 0.85532 0.27911 0.52323 0.0
C867 C 0.83439 0.31838 0.52947 0.0
C868 C 0.81852 0.31564 0.54028 0.0
C869 C 0.83888 0.33326 0.51031 0.0
C870 C 0.85518 0.33668 0.49453 0.0
C871 C 0.86277 0.32729 0.45741 0.0
C872 C 0.87818 0.3305 0.44303 0.0
C873 C 0.88609 0.34314 0.46519 0.0
C874 C 0.87858 0.35263 0.50167 0.0
C875 C 0.86318 0.34946 0.51625 0.0
H876 H 0.89802 0.3456 0.45401 0.0
H877 H 0.74735 0.31541 0.58291 0.0
H878 H 0.72905 0.88299 0.48932 0.0
H879 H 0.70985 0.86204 0.48347 0.0
H880 H 0.73534 0.83553 0.59755 0.0
H881 H 0.7544 0.85672 0.6053 0.0
H882 H 0.72661 0.81767 0.51049 0.0
H883 H 0.7024 0.85263 0.63259 0.0
H884 H 0.69259 0.87804 0.66386 0.0
H885 H 0.66079 0.88031 0.53514 0.0
H886 H 0.67058 0.855 0.50268 0.0
H887 H 0.66811 0.75949 0.55195 0.0
H888 H 0.68811 0.77978 0.55969 0.0
H889 H 0.65965 0.81101 0.46847 0.0
H890 H 0.63947 0.79088 0.46189 0.0
H891 H 0.67036 0.82643 0.54596 0.0
H892 H 0.69428 0.79246 0.42145 0.0
H893 H 0.7042 0.76756 0.38613 0.0
H894 H 0.7365 0.7639 0.5131 0.0
H895 H 0.72662 0.78868 0.54958 0.0
C896 C 0.73049 0.8729 0.51417 0.0
C897 C 0.74334 0.87175 0.54822 0.0
C898 C 0.7195 0.86083 0.51036 0.0
C899 C 0.72107 0.8472 0.54021 0.0
C900 C 0.73389 0.8459 0.57398 0.0
C901 C 0.74482 0.85805 0.57822 0.0
C902 C 0.70938 0.83432 0.53578 0.0
C903 C 0.71434 0.8195 0.51896 0.0
C904 C 0.69329 0.83679 0.54537 0.0
C905 C 0.68733 0.85198 0.56494 0.0
C906 C 0.69341 0.8586 0.61072 0.0
C907 C 0.68783 0.87298 0.6287 0.0
C908 C 0.6761 0.88081 0.60143 0.0
C909 C 0.66989 0.87424 0.55619 0.0
C910 C 0.67544 0.85988 0.53801 0.0
C911 C 0.66623 0.7706 0.53284 0.0
C912 C 0.65219 0.77352 0.50613 0.0
C913 C 0.6777 0.78224 0.53728 0.0
C914 C 0.67557 0.79699 0.51425 0.0
C915 C 0.66165 0.79981 0.48683 0.0
C916 C 0.6501 0.78826 0.48295 0.0
C917 C 0.68751 0.80969 0.5202 0.0
C918 C 0.68262 0.82451 0.53741 0.0
C919 C 0.70364 0.80725 0.51034 0.0
C920 C 0.70959 0.79234 0.48853 0.0
C921 C 0.70341 0.78628 0.44206 0.0
C922 C 0.70904 0.7722 0.4218 0.0
C923 C 0.72094 0.76413 0.44744 0.0
C924 C 0.72726 0.77015 0.49333 0.0
C925 C 0.72166 0.78422 0.5138 0.0
H926 H 0.72528 0.75323 0.43168 0.0
H927 H 0.6718 0.89194 0.61542 0.0
H928 H 0.95711 0.24691 0.38106 0.0
H929 H 0.97646 0.24067 0.31524 0.0
H930 H 0.98438 0.19588 0.38654 0.0
H931 H 0.96446 0.20206 0.4534 0.0
H932 H 0.01322 0.21337 0.35722 0.0
H933 H 0.96628 0.19518 0.27841 0.0
H934 H 0.93866 0.19659 0.25184 0.0
H935 H 0.9487 0.23649 0.15671 0.0
H936 H 0.97635 0.23551 0.18345 0.0
H937 H 0.06447 0.20026 0.13637 0.0
H938 H 0.04418 0.19571 0.20283 0.0
H939 H 0.0189 0.23597 0.14778 0.0
H940 H 0.03873 0.24032 0.08187 0.0
H941 H 0.99851 0.21496 0.17103 0.0
H942 H 0.04374 0.23583 0.25981 0.0
H943 H 0.07124 0.23588 0.28834 0.0
H944 H 0.06435 0.19193 0.36522 0.0
H945 H 0.03684 0.19153 0.33651 0.0
C946 C 0.96285 0.23565 0.38311 0.0
C947 C 0.95909 0.22502 0.42306 0.0
C948 C 0.974 0.23209 0.345 0.0
C949 C 0.98204 0.2178 0.34533 0.0
C950 C 0.97842 0.20703 0.38517 0.0
C951 C 0.96692 0.21052 0.42326 0.0
C952 C 0.99402 0.21453 0.30348 0.0
C953 C 1.00995 0.21331 0.31653 0.0
C954 C 0.98999 0.21479 0.25002 0.0
C955 C 0.9734 0.21533 0.23324 0.0
C956 C 0.96259 0.20433 0.25211 0.0
C957 C 0.94692 0.20504 0.23698 0.0
C958 C 0.94192 0.21663 0.20266 0.0
C959 C 0.95259 0.22752 0.18331 0.0
C960 C 0.96827 0.22688 0.1984 0.0
C961 C 0.05442 0.20792 0.1378 0.0
C962 C 0.05335 0.22066 0.10335 0.0
C963 C 0.04285 0.20544 0.17639 0.0
C964 C 0.02989 0.21562 0.18149 0.0
C965 C 0.0286 0.22788 0.14546 0.0
C966 C 0.04009 0.23038 0.10747 0.0
C967 C 0.01783 0.21413 0.2245 0.0
C968 C 1.00183 0.21462 0.21165 0.0
C969 C 0.02183 0.21329 0.27806 0.0
C970 C 0.03831 0.21355 0.29546 0.0
C971 C 0.04813 0.22612 0.28246 0.0
C972 C 0.06371 0.22622 0.29871 0.0
C973 C 0.06955 0.21389 0.32842 0.0
C974 C 0.05981 0.20145 0.34209 0.0
C975 C 0.04423 0.20128 0.32584 0.0
H976 H 0.08161 0.21399 0.34098 0.0
H977 H 0.92979 0.21717 0.19103 0.0
H978 H 0.82431 0.96485 0.44036 0.0
H979 H 0.82953 0.9844 0.37159 0.0
H980 H 0.78261 0.97857 0.31435 0.0
H981 H 0.77741 0.95953 0.38169 0.0
H982 H 0.80249 0.97911 0.23443 0.0
H983 H 0.79371 1.01034 0.38904 0.0
H984 H 0.79953 0.01937 0.47797 0.0
H985 H 0.84539 0.03356 0.42985 0.0
H986 H 0.8399 0.02442 0.34071 0.0
H987 H 0.77846 0.04347 0.08974 0.0
H988 H 0.78337 0.02344 0.15393 0.0
H989 H 0.82947 0.04202 0.18029 0.0
H990 H 0.82434 0.0628 0.11565 0.0
H991 H 0.81615 0.03424 0.27289 0.0
H992 H 0.82355 1.00634 0.1151 0.0
H993 H 0.81756 0.99757 0.02603 0.0
H994 H 0.77492 0.97666 0.07933 0.0
H995 H 0.78053 0.98549 0.16865 0.0
C996 C 0.81518 0.96769 0.4129 0.0
C997 C 0.80039 0.96053 0.41727 0.0
C998 C 0.81812 0.97898 0.3736 0.0
C999 C 0.80644 0.98319 0.33725 0.0
C1000 C 0.7919 0.97571 0.34126 0.0
C1001 C 0.78892 0.96475 0.38043 0.0
C1002 C 0.80883 0.99529 0.29488 0.0
C1003 C 0.80547 0.99116 0.24309 0.0
C1004 C 0.81318 0.01103 0.30498 0.0
C1005 C 0.81648 0.01651 0.35844 0.0
C1006 C 0.80509 0.01526 0.39755 0.0
C1007 C 0.80832 0.02042 0.44796 0.0
C1008 C 0.82285 0.02699 0.4596 0.0
C1009 C 0.83416 0.02844 0.42081 0.0
C1010 C 0.831 0.02327 0.37034 0.0
C1011 C 0.78978 0.04335 0.10849 0.0
C1012 C 0.80101 0.05489 0.09665 0.0
C1013 C 0.79261 0.03169 0.14549 0.0
C1014 C 0.8069 0.03081 0.1722 0.0
C1015 C 0.81833 0.04223 0.1604 0.0
C1016 C 0.81546 0.05406 0.12287 0.0
C1017 C 0.80934 0.01812 0.21265 0.0
C1018 C 0.81351 0.02213 0.26399 0.0
C1019 C 0.80579 1.00218 0.20219 0.0
C1020 C 0.80244 0.99666 0.1486 0.0
C1021 C 0.81286 0.99994 0.10781 0.0
C1022 C 0.80953 0.99495 0.05727 0.0
C1023 C 0.79586 0.98658 0.04702 0.0
C1024 C 0.78551 0.98314 0.08734 0.0
C1025 C 0.78877 0.98812 0.13796 0.0
H1026 H 0.7933 0.98275 1.00786 0.0
H1027 H 0.82532 0.03099 0.49864 0.0
H1028 H 0.05642 0.7752 0.39921 0.0
H1029 H 0.03676 0.78178 0.33539 0.0
H1030 H 0.03733 0.82967 0.38675 0.0
H1031 H 0.05776 0.82317 0.45152 0.0
H1032 H 1.00439 0.81234 0.36415 0.0
H1033 H 0.05298 0.82737 0.28624 0.0
H1034 H 0.08077 0.82359 0.26458 0.0
H1035 H 0.06932 0.78222 0.178 0.0
H1036 H 0.04149 0.78554 0.20014 0.0
H1037 H 0.95538 0.82338 0.13604 0.0
H1038 H 0.97509 0.82844 0.20416 0.0
H1039 H 1.00007 0.78699 0.1575 0.0
H1040 H 0.98091 0.78219 0.08987 0.0
H1041 H 0.02068 0.80742 0.18004 0.0
H1042 H 0.97391 0.78961 0.26763 0.0
H1043 H 0.94621 0.79101 0.29353 0.0
H1044 H 0.9541 0.83593 0.36335 0.0
H1045 H 0.98182 0.83488 0.33724 0.0
C1046 C 0.05246 0.7872 0.39778 0.0
C1047 C 0.05893 0.79863 0.43121 0.0
C1048 C 0.04106 0.79093 0.36082 0.0
C1049 C 0.03542 0.80621 0.35574 0.0
C1050 C 0.04139 0.81773 0.38984 0.0
C1051 C 0.05312 0.81401 0.42693 0.0
C1052 C 0.02397 0.80974 0.31261 0.0
C1053 C 1.00801 0.81173 0.32384 0.0
C1054 C 0.02846 0.80849 0.25976 0.0
C1055 C 0.04514 0.80665 0.24516 0.0
C1056 C 0.05639 0.8174 0.26289 0.0
C1057 C 0.07215 0.81535 0.25051 0.0
C1058 C 0.07681 0.80266 0.21998 0.0
C1059 C 0.0657 0.79203 0.20166 0.0
C1060 C 0.04992 0.794 0.21409 0.0
C1061 C 0.96525 0.81554 0.13971 0.0
C1062 C 0.96643 0.80235 0.10702 0.0
C1063 C 0.97648 0.81832 0.17926 0.0
C1064 C 0.98918 0.80799 0.1872 0.0
C1065 C 0.99057 0.79523 0.15302 0.0
C1066 C 0.97945 0.79247 0.11401 0.0
C1067 C 1.0009 0.80983 0.2312 0.0
C1068 C 0.01699 0.80856 0.22016 0.0
C1069 C 0.99648 0.81164 0.28416 0.0
C1070 C 0.97986 0.81226 0.2999 0.0
C1071 C 0.9697 0.79984 0.28816 0.0
C1072 C 0.95401 0.80056 0.30292 0.0
C1073 C 0.94839 0.81358 0.32991 0.0
C1074 C 0.95846 0.82588 0.34232 0.0
C1075 C 0.97416 0.82523 0.32756 0.0
H1076 H 0.93623 0.81411 0.34132 0.0
H1077 H 0.08902 0.80109 0.21046 0.0
H1078 H 0.20128 0.04719 0.4746 0.0
H1079 H 0.19599 0.027 0.40785 0.0
H1080 H 0.23491 0.04381 0.31783 0.0
H1081 H 0.2402 0.06358 0.38354 0.0
H1082 H 0.21137 0.03755 0.25401 0.0
H1083 H 0.23777 1.01028 0.39191 0.0
H1084 H 0.24152 1.00092 0.48151 0.0
H1085 H 0.1974 0.97713 0.47519 0.0
H1086 H 0.19338 0.98642 0.38541 0.0
H1087 H 0.23765 0.97568 0.09375 0.0
H1088 H 0.23326 0.99621 0.15797 0.0
H1089 H 0.19368 0.97089 0.21779 0.0
H1090 H 0.19814 0.9501 0.15266 0.0
H1091 H 0.21255 0.98116 0.29779 0.0
H1092 H 0.18872 1.00579 0.15192 0.0
H1093 H 0.18661 0.01486 0.06136 0.0
H1094 H 0.22701 0.04392 0.08235 0.0
H1095 H 0.22949 0.03486 0.17285 0.0
C1096 C 0.20853 0.0467 0.4402 0.0
C1097 C 0.22118 0.05711 0.43478 0.0
C1098 C 0.2056 0.03502 0.40209 0.0
C1099 C 0.2151 0.03363 0.35727 0.0
C1100 C 0.22733 0.04444 0.35144 0.0
C1101 C 0.23037 0.05581 0.38948 0.0
C1102 C 0.21284 0.02096 0.31651 0.0
C1103 C 0.21166 0.02523 0.26383 0.0
C1104 C 0.21287 1.00475 0.32841 0.0
C1105 C 0.21519 0.99921 0.38229 0.0
C1106 C 0.22881 1.00316 0.4098 0.0
C1107 C 0.231 0.99785 0.46057 0.0
C1108 C 0.21966 0.98851 0.48418 0.0
C1109 C 0.20615 0.98441 0.45691 0.0
C1110 C 0.20392 0.98967 0.40605 0.0
C1111 C 0.22767 0.97467 0.11943 0.0
C1112 C 0.21801 0.96136 0.11678 0.0
C1113 C 0.2252 0.98646 0.15661 0.0
C1114 C 0.21304 0.98539 0.1932 0.0
C1115 C 0.20312 0.9722 0.19018 0.0
C1116 C 0.20551 0.96039 0.15225 0.0
C1117 C 0.21134 0.99778 0.2352 0.0
C1118 C 0.2119 0.99347 0.28802 0.0
C1119 C 0.21085 0.01399 0.22345 0.0
C1120 C 0.20934 0.01956 0.16912 0.0
C1121 C 0.19721 0.01404 0.13714 0.0
C1122 C 0.19594 0.01919 0.08582 0.0
C1123 C 0.20668 0.02994 0.06609 0.0
C1124 C 0.2187 0.03559 0.09768 0.0
C1125 C 0.22003 0.03047 0.14903 0.0
H1126 H 0.20568 0.03391 0.02634 0.0
H1127 H 0.22137 0.98442 0.52352 0.0
H1128 H 0.06412 0.76472 0.73108 0.0
H1129 H 0.04212 0.74977 0.76338 0.0
H1130 H 0.02937 0.73738 0.60629 0.0
H1131 H 0.05135 0.7529 0.57374 0.0
H1132 H 1.00621 0.75084 0.65052 0.0
H1133 H 0.03463 0.70741 0.69994 0.0
H1134 H 0.05665 0.69152 0.73155 0.0
H1135 H 0.05202 0.71193 0.88318 0.0
H1136 H 0.03017 0.72814 0.85246 0.0
H1137 H 0.94479 0.75782 0.8378 0.0
H1138 H 0.96012 0.74005 0.782 0.0
H1139 H 1.00266 0.75982 0.84351 0.0
H1140 H 0.98745 0.77761 0.89775 0.0
H1141 H 1.00358 0.72579 0.82375 0.0
H1142 H 0.98854 0.77772 0.73878 0.0
H1143 H 0.96736 0.79498 0.70803 0.0
H1144 H 0.947 0.7567 0.62376 0.0
H1145 H 0.96804 0.73923 0.65444 0.0
C1146 C 0.05683 0.75851 0.70354 0.0
C1147 C 0.05925 0.76018 0.65004 0.0
C1148 C 0.04438 0.74969 0.722 0.0
C1149 C 0.03411 0.74223 0.68732 0.0
C1150 C 0.03721 0.7429 0.63379 0.0
C1151 C 0.04976 0.75177 0.61525 0.0
C1152 C 0.0187 0.73704 0.7071 0.0
C1153 C 1.00546 0.74464 0.68714 0.0
C1154 C 0.01748 0.72872 0.75442 0.0
C1155 C 0.03061 0.71894 0.77381 0.0
C1156 C 0.03831 0.70855 0.74001 0.0
C1157 C 0.05079 0.69949 0.75779 0.0
C1158 C 0.0557 0.70069 0.80937 0.0
C1159 C 0.04816 0.71096 0.84328 0.0
C1160 C 0.03567 0.72006 0.82572 0.0
C1161 C 0.95741 0.75805 0.83978 0.0
C1162 C 0.96506 0.76914 0.87106 0.0
C1163 C 0.96611 0.74789 0.80838 0.0
C1164 C 0.98249 0.74856 0.80911 0.0
C1165 C 0.99003 0.75898 0.84295 0.0
C1166 C 0.98139 0.76928 0.87329 0.0
C1167 C 0.99208 0.74083 0.76906 0.0
C1168 C 1.0041 0.73083 0.7852 0.0
C1169 C 0.99219 0.74673 0.71794 0.0
C1170 C 0.97974 0.75722 0.69893 0.0
C1171 C 0.97952 0.77303 0.71368 0.0
C1172 C 0.96755 0.78283 0.69635 0.0
C1173 C 0.95583 0.77694 0.66399 0.0
C1174 C 0.95607 0.76124 0.64885 0.0
C1175 C 0.96801 0.75139 0.66619 0.0
H1176 H 0.94657 0.78454 0.65061 0.0
H1177 H 0.06538 0.69367 0.82304 0.0
H1178 H 0.26554 0.94163 0.83866 0.0
H1179 H 0.28002 0.96279 0.7963 0.0
H1180 H 0.26632 0.99413 0.92004 0.0
H1181 H 0.25293 0.97265 0.96349 0.0
H1182 H 0.26492 0.98427 0.75721 0.0
H1183 H 0.28396 0.02762 0.92342 0.0
H1184 H 0.2989 0.02664 1.00511 0.0
H1185 H 0.32234 0.98511 0.95313 0.0
H1186 H 0.30773 0.98595 0.87072 0.0
H1187 H 0.24057 0.06197 0.76205 0.0
H1188 H 0.25593 0.04271 0.81023 0.0
H1189 H 0.28486 0.03516 0.67544 0.0
H1190 H 0.26964 0.0546 0.62744 0.0
H1191 H 0.28947 0.03204 0.82997 0.0
H1192 H 0.2775 0.99811 0.64927 0.0
H1193 H 0.2615 0.99953 0.56945 0.0
H1194 H 0.2243 0.02111 0.6554 0.0
H1195 H 0.23998 0.01954 0.73565 0.0
C1196 C 0.26632 0.95292 0.85752 0.0
C1197 C 0.25822 0.95572 0.90382 0.0
C1198 C 0.27454 0.96498 0.83353 0.0
C1199 C 0.2743 0.98014 0.85475 0.0
C1200 C 0.26712 0.98255 0.90327 0.0
C1201 C 0.2593 0.97034 0.92795 0.0
C1202 C 0.27809 0.9938 0.82162 0.0
C1203 C 0.27096 0.99443 0.77252 0.0
C1204 C 0.28571 1.00727 0.84138 0.0
C1205 C 0.29471 1.00685 0.89073 0.0
C1206 C 0.2924 0.01835 0.9291 0.0
C1207 C 0.30079 0.0178 0.97566 0.0
C1208 C 0.31155 1.00582 0.98432 0.0
C1209 C 0.31397 0.99437 0.94642 0.0
C1210 C 0.30562 0.99487 0.8998 0.0
C1211 C 0.25058 0.05659 0.74354 0.0
C1212 C 0.25381 0.05946 0.69104 0.0
C1213 C 0.25948 0.04581 0.77119 0.0
C1214 C 0.27146 0.03754 0.74621 0.0
C1215 C 0.27574 0.04157 0.6954 0.0
C1216 C 0.26698 0.05256 0.66797 0.0
C1217 C 0.27596 0.02224 0.76758 0.0
C1218 C 0.28439 0.02145 0.81413 0.0
C1219 C 0.26965 1.00849 0.74569 0.0
C1220 C 0.25994 1.00885 0.6981 0.0
C1221 C 0.26587 1.00307 0.65104 0.0
C1222 C 0.25687 1.0039 0.60578 0.0
C1223 C 0.24192 1.01045 0.60734 0.0
C1224 C 0.23588 0.01606 0.65421 0.0
C1225 C 0.24481 0.01518 0.69956 0.0
H1226 H 0.23499 0.01117 0.5723 0.0
H1227 H 0.31803 1.0054 0.0204 0.0
H1228 H 0.96069 0.27322 0.60766 0.0
H1229 H 0.97956 0.2901 0.6521 0.0
H1230 H 0.97834 0.25951 0.7851 0.0
H1231 H 0.95942 0.24277 0.7411 0.0
H1232 H 0.98295 0.29156 0.81196 0.0
H1233 H 1.00362 0.25064 0.68619 0.0
H1234 H 1.00524 0.24076 0.59616 0.0
H1235 H 0.01931 0.28622 0.5434 0.0
H1236 H 0.01763 0.29635 0.6332 0.0
H1237 H 0.03285 0.24119 0.90702 0.0
H1238 H 0.01486 0.25953 0.86682 0.0
H1239 H 0.05375 0.28663 0.80962 0.0
H1240 H 0.07195 0.26808 0.85115 0.0
H1241 H 0.03364 0.27669 0.73297 0.0
H1242 H 0.02796 0.30709 0.88045 0.0
H1243 H 0.02675 0.31378 0.97347 0.0
H1244 H 0.9845 0.28723 0.98931 0.0
H1245 H 0.98554 0.28014 0.89672 0.0
C1246 C 0.96408 0.2704 0.64703 0.0
C1247 C 0.95881 0.25658 0.67088 0.0
C1248 C 0.97481 0.28008 0.67233 0.0
C1249 C 0.98032 0.27604 0.72177 0.0
C1250 C 0.97412 0.26291 0.74709 0.0
C1251 C 0.96351 0.25322 0.72174 0.0
C1252 C 0.99461 0.28313 0.74351 0.0
C1253 C 0.99415 0.28877 0.79464 0.0
C1254 C 1.0092 0.28033 0.71962 0.0
C1255 C 0.01041 0.27425 0.66601 0.0
C1256 C 1.00704 0.2585 0.65527 0.0
C1257 C 1.00795 0.25287 0.60437 0.0
C1258 C 0.01235 0.26286 0.56407 0.0
C1259 C 0.01588 0.2785 0.57464 0.0
C1260 C 0.01494 0.2842 0.62549 0.0
C1261 C 0.03753 0.25116 0.88642 0.0
C1262 C 0.05367 0.25316 0.88113 0.0
C1263 C 0.02729 0.26182 0.86429 0.0
C1264 C 0.03298 0.27463 0.83605 0.0
C1265 C 0.04916 0.27697 0.83204 0.0
C1266 C 0.05948 0.26637 0.85523 0.0
C1267 C 0.0218 0.28335 0.80346 0.0
C1268 C 0.02276 0.28079 0.7498 0.0
C1269 C 1.0077 0.28893 0.82526 0.0
C1270 C 1.00677 0.29321 0.88121 0.0
C1271 C 0.01841 0.30265 0.90373 0.0
C1272 C 0.01776 0.3065 0.95646 0.0
C1273 C 1.00553 0.30098 0.98724 0.0
C1274 C 0.99392 0.29157 0.96535 0.0
C1275 C 0.99451 0.28768 0.91263 0.0
H1276 H 1.00506 0.30396 0.02808 0.0
H1277 H 0.01304 0.25849 0.52467 0.0
H1278 H 0.77685 0.05589 0.79506 0.0
H1279 H 0.76015 0.0358 0.75839 0.0
H1280 H 0.7322 0.03579 0.89803 0.0
H1281 H 0.74936 0.05579 0.93542 0.0
H1282 H 0.74211 1.00823 0.88212 0.0
H1283 H 0.71332 0.04017 0.77655 0.0
H1284 H 0.70621 0.06234 0.72041 0.0
H1285 H 0.7372 0.04548 0.60191 0.0
H1286 H 0.74473 0.02336 0.65746 0.0
H1287 H 0.74951 0.95523 0.62873 0.0
H1288 H 0.7322 0.97091 0.6833 0.0
H1289 H 0.77063 0.98021 0.78751 0.0
H1290 H 0.78758 0.96396 0.73503 0.0
H1291 H 0.73424 0.99989 0.69346 0.0
H1292 H 0.76266 0.99026 0.90116 0.0
H1293 H 0.76834 0.96801 0.95848 0.0
H1294 H 0.73506 0.93984 0.87594 0.0
H1295 H 0.7289 0.96202 0.81859 0.0
C1296 C 0.7669 0.05189 0.81732 0.0
C1297 C 0.76454 0.05716 0.86822 0.0
C1298 C 0.75715 0.04057 0.79607 0.0
C1299 C 0.74476 0.03431 0.82524 0.0
C1300 C 0.7416 0.04051 0.87466 0.0
C1301 C 0.75139 0.05194 0.89595 0.0
C1302 C 0.73791 0.01925 0.80825 0.0
C1303 C 0.74002 1.00634 0.84107 0.0
C1304 C 0.73396 0.01672 0.75561 0.0
C1305 C 0.72949 0.02996 0.72125 0.0
C1306 C 0.71866 0.04118 0.73857 0.0
C1307 C 0.71456 0.05377 0.70682 0.0
C1308 C 0.72121 0.05529 0.65757 0.0
C1309 C 0.73199 0.04424 0.63998 0.0
C1310 C 0.73614 0.03162 0.67155 0.0
C1311 C 0.75412 0.96016 0.66428 0.0
C1312 C 0.77002 0.95855 0.67715 0.0
C1313 C 0.74419 0.96915 0.6954 0.0
C1314 C 0.74999 0.97666 0.73991 0.0
C1315 C 0.76565 0.97426 0.75424 0.0
C1316 C 0.7755 0.96522 0.72348 0.0
C1317 C 0.74105 0.98929 0.76591 0.0
C1318 C 0.73562 1.00164 0.7349 0.0
C1319 C 0.74164 0.99124 0.82045 0.0
C1320 C 0.74522 0.97791 0.85558 0.0
C1321 C 0.75636 0.97942 0.89553 0.0
C1322 C 0.75973 0.96677 0.92796 0.0
C1323 C 0.75205 0.95252 0.92089 0.0
C1324 C 0.74099 0.95089 0.88136 0.0
C1325 C 0.73757 0.96349 0.84884 0.0
H1326 H 0.75469 0.94275 0.94601 0.0
H1327 H 0.71804 0.06505 0.63308 0.0
H1328 H 0.56566 0.73821 0.67677 0.0
H1329 H 0.54537 0.73256 0.73942 0.0
H1330 H 0.53146 0.69219 0.65065 0.0
H1331 H 0.55227 0.69784 0.58635 0.0
H1332 H 0.50524 0.71151 0.68853 0.0
H1333 H 0.54962 0.68561 0.75843 0.0
H1334 H 0.57725 0.68283 0.78361 0.0
H1335 H 0.57239 0.72064 0.89224 0.0
H1336 H 0.5448 0.72386 0.86701 0.0
H1337 H 0.45347 0.69845 0.90827 0.0
H1338 H 0.473 0.6932 0.83984 0.0
H1339 H 0.50236 0.72957 0.90241 0.0
H1340 H 0.48316 0.73468 0.97006 0.0
H1341 H 0.52025 0.7062 0.87372 0.0
H1342 H 0.47767 0.73465 0.79398 0.0
H1343 H 0.45026 0.73856 0.76746 0.0
H1344 H 0.45186 0.69633 0.67728 0.0
H1345 H 0.47922 0.69205 0.70392 0.0
C1346 C 0.55838 0.72806 0.66995 0.0
C1347 C 0.56077 0.71851 0.62587 0.0
C1348 C 0.54669 0.72483 0.70636 0.0
C1349 C 0.53676 0.71191 0.70048 0.0
C1350 C 0.53891 0.70227 0.65638 0.0
C1351 C 0.5509 0.70543 0.61971 0.0
C1352 C 0.52449 0.70883 0.74147 0.0
C1353 C 0.50852 0.70993 0.72886 0.0
C1354 C 0.52859 0.70707 0.79457 0.0
C1355 C 0.54513 0.70503 0.81059 0.0
C1356 C 0.55446 0.6934 0.78746 0.0
C1357 C 0.57012 0.69174 0.80176 0.0
C1358 C 0.57657 0.70156 0.83947 0.0
C1359 C 0.56737 0.71304 0.86304 0.0
C1360 C 0.55171 0.71478 0.84879 0.0
C1361 C 0.46425 0.70506 0.90805 0.0
C1362 C 0.46668 0.71696 0.94511 0.0
C1363 C 0.47538 0.70219 0.8684 0.0
C1364 C 0.48926 0.7111 0.86497 0.0
C1365 C 0.49189 0.72247 0.9035 0.0
C1366 C 0.48081 0.7254 0.94248 0.0
C1367 C 0.50095 0.70923 0.82113 0.0
C1368 C 0.51688 0.70737 0.83331 0.0
C1369 C 0.49679 0.7103 0.76777 0.0
C1370 C 0.48041 0.71292 0.75147 0.0
C1371 C 0.47213 0.72613 0.76882 0.0
C1372 C 0.45662 0.72842 0.75373 0.0
C1373 C 0.44931 0.71767 0.72086 0.0
C1374 C 0.45752 0.70463 0.70285 0.0
C1375 C 0.47303 0.70226 0.71793 0.0
H1376 H 0.43729 0.71946 0.70923 0.0
H1377 H 0.5887 0.70026 0.85047 0.0
H1378 H 0.32566 0.45375 0.91549 0.0
H1379 H 0.33009 0.47422 0.84923 0.0
H1380 H 0.28305 0.49079 0.87144 0.0
H1381 H 0.27871 0.47085 0.93688 0.0
H1382 H 0.28896 0.48553 0.76922 0.0
H1383 H 0.31453 0.51171 0.91305 0.0
H1384 H 0.33438 0.51426 0.98194 0.0
H1385 H 0.37088 0.51097 0.86811 0.0
H1386 H 0.35123 0.50819 0.79857 0.0
H1387 H 0.27684 0.55706 0.65349 0.0
H1388 H 0.28192 0.53668 0.71621 0.0
H1389 H 0.32909 0.53231 0.65996 0.0
H1390 H 0.32406 0.55338 0.59608 0.0
H1391 H 0.32753 0.52876 0.76939 0.0
H1392 H 0.30233 0.50531 0.62455 0.0
H1393 H 0.28274 0.50268 0.55488 0.0
H1394 H 0.2462 0.49966 0.66855 0.0
H1395 H 0.26553 0.50252 0.73893 0.0
C1396 C 0.31643 0.46203 0.90715 0.0
C1397 C 0.3018 0.46053 0.93183 0.0
C1398 C 0.31893 0.4737 0.86889 0.0
C1399 C 0.30684 0.48411 0.85444 0.0
C1400 C 0.29256 0.48294 0.88091 0.0
C1401 C 0.29011 0.47146 0.9188 0.0
C1402 C 0.30833 0.49571 0.81034 0.0
C1403 C 0.2974 0.49498 0.76958 0.0
C1404 C 0.31964 0.50784 0.80899 0.0
C1405 C 0.33142 0.50955 0.85071 0.0
C1406 C 0.32679 0.51138 0.90276 0.0
C1407 C 0.33801 0.5129 0.94192 0.0
C1408 C 0.35388 0.51272 0.92943 0.0
C1409 C 0.35858 0.51107 0.87774 0.0
C1410 C 0.34741 0.50954 0.83844 0.0
C1411 C 0.28839 0.5519 0.65394 0.0
C1412 C 0.29995 0.55689 0.61859 0.0
C1413 C 0.29127 0.54009 0.69028 0.0
C1414 C 0.30579 0.53252 0.69271 0.0
C1415 C 0.31771 0.53781 0.659 0.0
C1416 C 0.31483 0.54987 0.62231 0.0
C1417 C 0.3078 0.51881 0.72935 0.0
C1418 C 0.3193 0.51914 0.76857 0.0
C1419 C 0.29708 0.50614 0.72922 0.0
C1420 C 0.2854 0.50421 0.68704 0.0
C1421 C 0.29011 0.50417 0.63471 0.0
C1422 C 0.27905 0.50263 0.59508 0.0
C1423 C 0.26324 0.50102 0.60728 0.0
C1424 C 0.25845 0.50091 0.65916 0.0
C1425 C 0.26946 0.50247 0.69894 0.0
H1426 H 0.25469 0.49984 0.57654 0.0
H1427 H 0.36255 0.5139 0.9598 0.0
H1428 H 0.56267 0.32747 0.91768 0.0
H1429 H 0.54229 0.3323 0.85125 0.0
H1430 H 0.54237 0.28336 0.81176 0.0
H1431 H 0.56221 0.27854 0.8768 0.0
H1432 H 0.54222 0.30036 0.72497 0.0
H1433 H 0.51352 0.29986 0.88683 0.0
H1434 H 0.50689 0.30929 0.97465 0.0
H1435 H 0.49606 0.3546 0.91295 0.0
H1436 H 0.50284 0.34548 0.82478 0.0
H1437 H 0.47221 0.27799 0.60636 0.0
H1438 H 0.49439 0.28308 0.66273 0.0
H1439 H 0.48179 0.33179 0.67022 0.0
H1440 H 0.45901 0.32655 0.61348 0.0
H1441 H 0.48958 0.32082 0.7676 0.0
H1442 H 0.51472 0.31946 0.60254 0.0
H1443 H 0.52078 0.30908 0.51544 0.0
H1444 H 0.53843 0.26686 0.58354 0.0
H1445 H 0.53225 0.27685 0.67088 0.0
C1446 C 0.55837 0.31779 0.89464 0.0
C1447 C 0.56418 0.30259 0.90328 0.0
C1448 C 0.54662 0.32053 0.8567 0.0
C1449 C 0.54059 0.30818 0.82601 0.0
C1450 C 0.54668 0.29316 0.83427 0.0
C1451 C 0.5581 0.29042 0.87213 0.0
C1452 C 0.52798 0.31036 0.78527 0.0
C1453 C 0.53073 0.30485 0.73452 0.0
C1454 C 0.51297 0.31658 0.79649 0.0
C1455 C 0.50889 0.32205 0.84936 0.0
C1456 C 0.50987 0.31187 0.89207 0.0
C1457 C 0.50605 0.31715 0.94189 0.0
C1458 C 0.50111 0.33255 0.9494 0.0
C1459 C 0.49993 0.34269 0.90708 0.0
C1460 C 0.50375 0.33747 0.85719 0.0
C1461 C 0.47425 0.2899 0.61898 0.0
C1462 C 0.46384 0.30187 0.6044 0.0
C1463 C 0.48706 0.29282 0.65152 0.0
C1464 C 0.49011 0.30788 0.67094 0.0
C1465 C 0.47988 0.32004 0.65589 0.0
C1466 C 0.46694 0.3171 0.62272 0.0
C1467 C 0.50374 0.3104 0.7077 0.0
C1468 C 0.50118 0.31668 0.75766 0.0
C1469 C 0.51898 0.30486 0.69588 0.0
C1470 C 0.52296 0.2989 0.64332 0.0
C1471 C 0.51983 0.30793 0.59892 0.0
C1472 C 0.52328 0.30211 0.54946 0.0
C1473 C 0.52996 0.28731 0.54389 0.0
C1474 C 0.53325 0.27831 0.58779 0.0
C1475 C 0.5298 0.28406 0.63732 0.0
H1476 H 0.53262 0.28283 0.50556 0.0
H1477 H 0.49816 0.33662 0.988 0.0
H1478 H 0.73639 0.56996 0.86246 0.0
H1479 H 0.73005 0.54969 0.79983 0.0
H1480 H 0.6969 0.52985 0.90688 0.0
H1481 H 0.7033 0.55055 0.97094 0.0
H1482 H 0.71646 0.50676 0.85838 0.0
H1483 H 0.68311 0.54763 0.80279 0.0
H1484 H 0.67614 0.5748 0.78136 0.0
H1485 H 0.70957 0.57474 0.65714 0.0
H1486 H 0.71691 0.5476 0.67823 0.0
H1487 H 0.69994 0.45336 0.64624 0.0
H1488 H 0.69523 0.47278 0.71559 0.0
H1489 H 0.72622 0.50503 0.63893 0.0
H1490 H 0.73088 0.48586 0.5705 0.0
H1491 H 0.70215 0.5209 0.67779 0.0
H1492 H 0.73783 0.48159 0.74276 0.0
H1493 H 0.74568 0.45482 0.76667 0.0
H1494 H 0.7076 0.45218 0.87478 0.0
H1495 H 0.69939 0.47887 0.8509 0.0
C1496 C 0.72763 0.5614 0.87301 0.0
C1497 C 0.72038 0.56201 0.92215 0.0
C1498 C 0.72398 0.54974 0.83674 0.0
C1499 C 0.71293 0.53811 0.84795 0.0
C1500 C 0.70548 0.53864 0.89693 0.0
C1501 C 0.70903 0.55058 0.93347 0.0
C1502 C 0.70964 0.52556 0.80791 0.0
C1503 C 0.71292 0.50982 0.81925 0.0
C1504 C 0.70527 0.52939 0.75625 0.0
C1505 C 0.70062 0.54558 0.7423 0.0
C1506 C 0.68904 0.55342 0.77103 0.0
C1507 C 0.68502 0.56883 0.75897 0.0
C1508 C 0.69244 0.57652 0.71803 0.0
C1509 C 0.70384 0.56877 0.68887 0.0
C1510 C 0.70791 0.55335 0.7008 0.0
C1511 C 0.7054 0.46475 0.64353 0.0
C1512 C 0.71571 0.46802 0.60231 0.0
C1513 C 0.70286 0.47583 0.68366 0.0
C1514 C 0.7105 0.49049 0.6834 0.0
C1515 C 0.72013 0.49394 0.64072 0.0
C1516 C 0.72278 0.4829 0.60128 0.0
C1517 C 0.70927 0.50207 0.72788 0.0
C1518 C 0.70528 0.51772 0.71719 0.0
C1519 C 0.71293 0.49813 0.78011 0.0
C1520 C 0.71788 0.48213 0.79455 0.0
C1521 C 0.73105 0.47524 0.77131 0.0
C1522 C 0.73558 0.4601 0.7849 0.0
C1523 C 0.72711 0.45178 0.82209 0.0
C1524 C 0.71412 0.45862 0.84588 0.0
C1525 C 0.70953 0.47375 0.83233 0.0
H1526 H 0.73063 0.44006 0.83258 0.0
H1527 H 0.68934 0.58846 0.70887 0.0
H1528 H 0.56143 0.26069 0.11004 0.0
H1529 H 0.5424 0.24746 0.16573 0.0
H1530 H 0.54844 0.28323 0.2823 0.0
H1531 H 0.56746 0.29646 0.22675 0.0
H1532 H 0.54267 0.25201 0.323 0.0
H1533 H 0.52258 0.29005 0.19635 0.0
H1534 H 0.51958 0.29989 0.10689 0.0
H1535 H 0.49943 0.25612 0.06016 0.0
H1536 H 0.50253 0.24596 0.14932 0.0
H1537 H 0.47611 0.28021 0.4444 0.0
H1538 H 0.50009 0.27233 0.40139 0.0
H1539 H 0.47387 0.2418 0.30011 0.0
H1540 H 0.44967 0.24985 0.34306 0.0
H1541 H 0.49033 0.2609 0.24586 0.0
H1542 H 0.50201 0.22753 0.38493 0.0
H1543 H 0.5051 0.21844 0.47505 0.0
H1544 H 0.54112 0.25248 0.50054 0.0
H1545 H 0.53787 0.26221 0.41135 0.0
C1546 C 0.55905 0.26543 0.14823 0.0
C1547 C 0.56569 0.27969 0.16401 0.0
C1548 C 0.54823 0.25787 0.17993 0.0
C1549 C 0.54403 0.26444 0.22784 0.0
C1550 C 0.55162 0.27796 0.2455 0.0
C1551 C 0.56231 0.2856 0.21361 0.0
C1552 C 0.5299 0.25913 0.25522 0.0
C1553 C 0.53116 0.2538 0.30646 0.0
C1554 C 0.51501 0.26103 0.23253 0.0
C1555 C 0.51297 0.26719 0.17918 0.0
C1556 C 0.51762 0.2825 0.16687 0.0
C1557 C 0.51589 0.28813 0.11627 0.0
C1558 C 0.50937 0.27862 0.07782 0.0
C1559 C 0.50451 0.26346 0.08995 0.0
C1560 C 0.50626 0.25775 0.14049 0.0
C1561 C 0.47546 0.27147 0.41404 0.0
C1562 C 0.46099 0.26578 0.39667 0.0
C1563 C 0.48923 0.26688 0.3896 0.0
C1564 C 0.48882 0.25636 0.34775 0.0
C1565 C 0.47446 0.24992 0.33237 0.0
C1566 C 0.46064 0.25461 0.35661 0.0
C1567 C 0.5029 0.25431 0.31514 0.0
C1568 C 0.50169 0.25838 0.26252 0.0
C1569 C 0.51779 0.25125 0.33688 0.0
C1570 C 0.51964 0.24565 0.3912 0.0
C1571 C 0.51046 0.23323 0.40989 0.0
C1572 C 0.51223 0.22797 0.46093 0.0
C1573 C 0.52324 0.23493 0.49362 0.0
C1574 C 0.53251 0.24717 0.47533 0.0
C1575 C 0.53071 0.25256 0.42449 0.0
H1576 H 0.52463 0.23081 0.53307 0.0
H1577 H 0.50803 0.283 0.03866 0.0
H1578 H 0.75255 0.55945 0.22424 0.0
H1579 H 0.76617 0.53597 0.25017 0.0
H1580 H 0.78191 0.52901 0.09239 0.0
H1581 H 0.76741 0.55231 0.06581 0.0
H1582 H 0.76956 0.50425 0.11965 0.0
H1583 H 0.80959 0.53014 0.19835 0.0
H1584 H 0.82452 0.55042 0.24476 0.0
H1585 H 0.79948 0.5403 0.38512 0.0
H1586 H 0.78419 0.52016 0.33957 0.0
H1587 H 0.76796 0.4542 0.38033 0.0
H1588 H 0.78435 0.46696 0.31558 0.0
H1589 H 0.74301 0.48082 0.23133 0.0
H1590 H 0.72683 0.46718 0.29304 0.0
H1591 H 0.78703 0.49508 0.30051 0.0
H1592 H 0.74596 0.4895 0.11495 0.0
H1593 H 0.73393 0.46812 0.065 0.0
H1594 H 0.76656 0.43551 0.13012 0.0
H1595 H 0.77903 0.45673 0.17987 0.0
C1596 C 0.75915 0.55308 0.19526 0.0
C1597 C 0.75864 0.55754 0.14296 0.0
C1598 C 0.76725 0.53976 0.21024 0.0
C1599 C 0.77529 0.53067 0.17338 0.0
C1600 C 0.77587 0.53582 0.12162 0.0
C1601 C 0.76761 0.54918 0.10649 0.0
C1602 C 0.77998 0.51454 0.18784 0.0
C1603 C 0.7737 0.50214 0.15878 0.0
C1604 C 0.78663 0.51139 0.23702 0.0
C1605 C 0.79579 0.52348 0.2654 0.0
C1606 C 0.80721 0.53224 0.23909 0.0
C1607 C 0.81574 0.54374 0.26528 0.0
C1608 C 0.81298 0.54662 0.31789 0.0
C1609 C 0.80166 0.53801 0.34442 0.0
C1610 C 0.79309 0.52649 0.31843 0.0
C1611 C 0.76238 0.45949 0.34705 0.0
C1612 C 0.74599 0.45987 0.34252 0.0
C1613 C 0.77181 0.46685 0.31005 0.0
C1614 C 0.76503 0.47477 0.26799 0.0
C1615 C 0.74871 0.47446 0.26229 0.0
C1616 C 0.73935 0.46694 0.29862 0.0
C1617 C 0.77427 0.48569 0.23533 0.0
C1618 C 0.7835 0.49695 0.2606 0.0
C1619 C 0.77092 0.48756 0.18187 0.0
C1620 C 0.76354 0.4748 0.15107 0.0
C1621 C 0.75075 0.47784 0.11818 0.0
C1622 C 0.74379 0.46571 0.09002 0.0
C1623 C 0.74949 0.45048 0.09432 0.0
C1624 C 0.76216 0.44733 0.12682 0.0
C1625 C 0.76917 0.4594 0.15506 0.0
H1626 H 0.74407 0.44111 0.07253 0.0
H1627 H 0.81959 0.55554 0.33808 0.0
H1628 H 0.55543 0.76898 0.46916 0.0
H1629 H 0.53374 0.78457 0.43445 0.0
H1630 H 0.54179 0.76467 0.28259 0.0
H1631 H 0.56339 0.74941 0.31706 0.0
H1632 H 0.52863 0.79366 0.27472 0.0
H1633 H 0.5201 0.74389 0.37538 0.0
H1634 H 0.52207 0.72933 0.45785 0.0
H1635 H 0.49748 0.76609 0.53688 0.0
H1636 H 0.49554 0.78091 0.45481 0.0
H1637 H 0.48566 0.73812 0.15758 0.0
H1638 H 0.50192 0.75573 0.20919 0.0
H1639 H 0.46062 0.77763 0.27195 0.0
H1640 H 0.44422 0.76011 0.21839 0.0
H1641 H 0.48362 0.76416 0.34579 0.0
H1642 H 0.48117 0.80229 0.2161 0.0
H1643 H 0.47999 0.81281 0.12715 0.0
H1644 H 0.52602 0.79522 0.09638 0.0
H1645 H 0.52741 0.78437 0.18477 0.0
C1646 C 0.55295 0.76853 0.42796 0.0
C1647 C 0.56077 0.75782 0.39571 0.0
C1648 C 0.54058 0.77742 0.40821 0.0
C1649 C 0.53598 0.77558 0.35617 0.0
C1650 C 0.54509 0.76631 0.32287 0.0
C1651 C 0.55733 0.75745 0.34257 0.0
C1652 C 0.52011 0.77984 0.33838 0.0
C1653 C 0.5186 0.78762 0.29072 0.0
C1654 C 0.50687 0.77246 0.36036 0.0
C1655 C 0.50779 0.76352 0.40934 0.0
C1656 C 0.51514 0.74883 0.41043 0.0
C1657 C 0.51627 0.74056 0.45705 0.0
C1658 C 0.50993 0.7468 0.50261 0.0
C1659 C 0.50241 0.7613 0.50159 0.0
C1660 C 0.50131 0.76964 0.45508 0.0
C1661 C 0.4801 0.74681 0.18198 0.0
C1662 C 0.4638 0.74775 0.18479 0.0
C1663 C 0.48933 0.75697 0.21088 0.0
C1664 C 0.48243 0.76811 0.24372 0.0
C1665 C 0.4661 0.76926 0.24618 0.0
C1666 C 0.45681 0.75927 0.21604 0.0
C1667 C 0.49266 0.77669 0.27995 0.0
C1668 C 0.49313 0.7713 0.33123 0.0
C1669 C 0.50501 0.78597 0.26071 0.0
C1670 C 0.50442 0.79259 0.20741 0.0
C1671 C 0.49103 0.80062 0.19036 0.0
C1672 C 0.49033 0.80664 0.13998 0.0
C1673 C 0.50294 0.80471 0.10618 0.0
C1674 C 0.51629 0.79676 0.12268 0.0
C1675 C 0.51706 0.79071 0.17302 0.0
H1676 H 0.50236 0.80937 0.06717 0.0
H1677 H 0.51082 0.74038 0.53868 0.0
H1678 H 0.25689 0.57116 0.33943 0.0
H1679 H 0.24011 0.5541 0.28574 0.0
H1680 H 0.26003 0.51365 0.36068 0.0
H1681 H 0.27678 0.53056 0.4128 0.0
H1682 H 0.25375 0.53266 0.21803 0.0
H1683 H 0.23513 0.48569 0.372 0.0
H1684 H 0.22312 0.48542 0.45887 0.0
H1685 H 0.2027 0.53042 0.43059 0.0
H1686 H 0.21438 0.5309 0.34316 0.0
H1687 H 0.27317 0.45266 0.23333 0.0
H1688 H 0.25748 0.47351 0.27124 0.0
H1689 H 0.23673 0.48263 0.12153 0.0
H1690 H 0.25269 0.46175 0.08332 0.0
H1691 H 0.22728 0.48472 0.28078 0.0
H1692 H 0.23886 0.52154 0.10732 0.0
H1693 H 0.25408 0.52162 0.02577 0.0
H1694 H 0.29159 0.49746 0.10194 0.0
H1695 H 0.27663 0.49741 0.18392 0.0
C1696 C 0.25731 0.55862 0.34486 0.0
C1697 C 0.26813 0.55202 0.37941 0.0
C1698 C 0.24775 0.54895 0.31455 0.0
C1699 C 0.24866 0.53264 0.31984 0.0
C1700 C 0.25887 0.5262 0.35671 0.0
C1701 C 0.26858 0.5358 0.38598 0.0
C1702 C 0.2414 0.52198 0.28163 0.0
C1703 C 0.24726 0.52247 0.23084 0.0
C1704 C 0.23293 0.50873 0.29838 0.0
C1705 C 0.22559 0.50829 0.35069 0.0
C1706 C 0.22792 0.49546 0.38392 0.0
C1707 C 0.22122 0.4953 0.43342 0.0
C1708 C 0.21214 0.50789 0.45022 0.0
C1709 C 0.20974 0.52068 0.41754 0.0
C1710 C 0.21642 0.52091 0.36801 0.0
C1711 C 0.26494 0.45884 0.20892 0.0
C1712 C 0.26432 0.45586 0.15545 0.0
C1713 C 0.25583 0.47062 0.23061 0.0
C1714 C 0.24605 0.47973 0.19905 0.0
C1715 C 0.24423 0.47574 0.14647 0.0
C1716 C 0.25334 0.46384 0.12473 0.0
C1717 C 0.24087 0.49502 0.21954 0.0
C1718 C 0.23268 0.49536 0.26671 0.0
C1719 C 0.24738 0.50902 0.19992 0.0
C1720 C 0.25659 0.50935 0.15133 0.0
C1721 C 0.25037 0.5163 0.10656 0.0
C1722 C 0.25895 0.51634 0.06033 0.0
C1723 C 0.27377 0.50951 0.05863 0.0
C1724 C 0.2801 0.50272 0.10326 0.0
C1725 C 0.2716 0.50271 0.1496 0.0
H1726 H 0.28037 0.5095 0.02276 0.0
H1727 H 0.20697 0.50774 0.48857 0.0
H1728 H 0.23415 0.1461 0.36242 0.0
H1729 H 0.22059 0.16563 0.3097 0.0
H1730 H 0.17638 0.1445 0.34881 0.0
H1731 H 0.18994 0.12489 0.40156 0.0
H1732 H 0.18119 0.15039 0.24051 0.0
H1733 H 0.18515 0.17559 0.40847 0.0
H1734 H 0.19945 0.18533 0.48507 0.0
H1735 H 0.22631 0.21592 0.38782 0.0
H1736 H 0.21236 0.20612 0.31044 0.0
H1737 H 0.12786 0.21897 0.23498 0.0
H1738 H 0.14902 0.2053 0.27878 0.0
H1739 H 0.17155 0.19708 0.13129 0.0
H1740 H 0.15026 0.21078 0.08704 0.0
H1741 H 0.18074 0.20675 0.28699 0.0
H1742 H 0.18307 0.15917 0.1322 0.0
H1743 H 0.1674 0.14943 0.05839 0.0
H1744 H 0.12525 0.16309 0.13655 0.0
H1745 H 0.14067 0.17274 0.21098 0.0
C1746 C 0.22155 0.14562 0.35951 0.0
C1747 C 0.213 0.13404 0.38561 0.0
C1748 C 0.21387 0.15677 0.32972 0.0
C1749 C 0.19759 0.15636 0.32557 0.0
C1750 C 0.189 0.14486 0.35169 0.0
C1751 C 0.19668 0.13381 0.38197 0.0
C1752 C 0.18942 0.16797 0.29393 0.0
C1753 C 0.18118 0.16274 0.2503 0.0
C1754 C 0.18956 0.184 0.30705 0.0
C1755 C 0.19785 0.18998 0.35359 0.0
C1756 C 0.19421 0.18428 0.40335 0.0
C1757 C 0.20223 0.18984 0.44693 0.0
C1758 C 0.21381 0.20121 0.44131 0.0
C1759 C 0.21736 0.20708 0.3921 0.0
C1760 C 0.20941 0.20153 0.34837 0.0
C1761 C 0.1375 0.21458 0.21202 0.0
C1762 C 0.13733 0.21562 0.15767 0.0
C1763 C 0.1496 0.20685 0.23707 0.0
C1764 C 0.16168 0.20009 0.20806 0.0
C1765 C 0.16217 0.20211 0.15407 0.0
C1766 C 0.14998 0.20976 0.12892 0.0
C1767 C 0.17231 0.18915 0.23394 0.0
C1768 C 0.18107 0.19447 0.27645 0.0
C1769 C 0.17246 0.17313 0.22034 0.0
C1770 C 0.16303 0.16681 0.1768 0.0
C1771 C 0.17045 0.16 0.13368 0.0
C1772 C 0.16162 0.15452 0.09175 0.0
C1773 C 0.14534 0.15569 0.09271 0.0
C1774 C 0.13786 0.16224 0.13579 0.0
C1775 C 0.14664 0.16771 0.17784 0.0
H1776 H 0.13853 0.15153 0.06011 0.0
H1777 H 0.22 0.2055 0.47509 0.0
H1778 H 0.80633 0.13584 0.21538 0.0
H1779 H 0.81822 0.15984 0.24673 0.0
H1780 H 0.82705 0.17435 0.08902 0.0
H1781 H 0.81475 0.1504 0.05704 0.0
H1782 H 0.85307 0.17459 0.14973 0.0
H1783 H 0.80255 0.19588 0.15832 0.0
H1784 H 0.77427 0.19678 0.17586 0.0
H1785 H 0.78298 0.19149 0.33909 0.0
H1786 H 0.8113 0.1903 0.32255 0.0
H1787 H 0.89345 0.23343 0.29011 0.0
H1788 H 0.87463 0.22238 0.22953 0.0
H1789 H 0.8538 0.19593 0.35412 0.0
H1790 H 0.87215 0.20759 0.41575 0.0
H1791 H 0.83187 0.20868 0.28901 0.0
H1792 H 0.88112 0.17995 0.27439 0.0
H1793 H 0.9094 0.17794 0.25721 0.0
H1794 H 0.90257 0.19667 0.10429 0.0
H1795 H 0.87427 0.19899 0.12087 0.0
C1796 C 0.81046 0.14427 0.18728 0.0
C1797 C 0.80971 0.14116 0.13383 0.0
C1798 C 0.81719 0.15801 0.20522 0.0
C1799 C 0.82327 0.16891 0.17005 0.0
C1800 C 0.82229 0.16607 0.11658 0.0
C1801 C 0.81545 0.15231 0.09852 0.0
C1802 C 0.83237 0.18213 0.1903 0.0
C1803 C 0.84837 0.18244 0.17898 0.0
C1804 C 0.82616 0.19218 0.22866 0.0
C1805 C 0.8091 0.19298 0.23911 0.0
C1806 C 0.79845 0.19482 0.19795 0.0
C1807 C 0.7824 0.19539 0.20773 0.0
C1808 C 0.77684 0.19419 0.25856 0.0
C1809 C 0.78731 0.19244 0.29974 0.0
C1810 C 0.80338 0.19185 0.29018 0.0
C1811 C 0.8847 0.22548 0.30491 0.0
C1812 C 0.88426 0.22137 0.35779 0.0
C1813 C 0.87403 0.21913 0.27013 0.0
C1814 C 0.86293 0.20835 0.28747 0.0
C1815 C 0.8623 0.20432 0.34023 0.0
C1816 C 0.87291 0.21079 0.37519 0.0
C1817 C 0.85259 0.20041 0.25034 0.0
C1818 C 0.83642 0.20122 0.25845 0.0
C1819 C 0.85863 0.19133 0.20907 0.0
C1820 C 0.87563 0.18983 0.1991 0.0
C1821 C 0.88567 0.18375 0.23726 0.0
C1822 C 0.9017 0.18254 0.22761 0.0
C1823 C 0.90778 0.1872 0.17973 0.0
C1824 C 0.89784 0.19308 0.14138 0.0
C1825 C 0.88182 0.19435 0.15088 0.0
H1826 H 0.92017 0.18622 0.17228 0.0
H1827 H 0.76441 0.19463 0.26604 0.0
H1828 H 0.78153 0.87096 0.34967 0.0
H1829 H 0.79212 0.85035 0.29362 0.0
H1830 H 0.83889 0.86471 0.33387 0.0
H1831 H 0.82833 0.88537 0.38981 0.0
H1832 H 0.83217 0.86285 0.22438 0.0
H1833 H 0.82579 0.83333 0.3856 0.0
H1834 H 0.81012 0.82263 0.45759 0.0
H1835 H 0.78121 0.79797 0.34856 0.0
H1836 H 0.79661 0.80871 0.27585 0.0
H1837 H 0.88595 0.79877 0.22544 0.0
H1838 H 0.86188 0.80902 0.26166 0.0
H1839 H 0.84374 0.81636 0.10726 0.0
H1840 H 0.86794 0.80587 0.07038 0.0
H1841 H 0.82944 0.80577 0.25739 0.0
H1842 H 0.83072 0.85288 0.10759 0.0
H1843 H 0.84773 0.86304 0.03786 0.0
H1844 H 0.88833 0.85251 0.12935 0.0
H1845 H 0.87152 0.84243 0.19965 0.0
C1846 C 0.79407 0.86962 0.34664 0.0
C1847 C 0.80419 0.87976 0.37343 0.0
C1848 C 0.80005 0.85787 0.31493 0.0
C1849 C 0.81622 0.85621 0.30955 0.0
C1850 C 0.82635 0.86598 0.33756 0.0
C1851 C 0.82036 0.87762 0.36969 0.0
C1852 C 0.82275 0.84472 0.27323 0.0
C1853 C 0.83135 0.85035 0.231 0.0
C1854 C 0.82137 0.82848 0.28158 0.0
C1855 C 0.81221 0.82198 0.32531 0.0
C1856 C 0.816 0.82575 0.37697 0.0
C1857 C 0.80719 0.81965 0.4179 0.0
C1858 C 0.79464 0.80967 0.40765 0.0
C1859 C 0.79091 0.80573 0.35644 0.0
C1860 C 0.79968 0.81181 0.31536 0.0
C1861 C 0.87669 0.8021 0.19909 0.0
C1862 C 0.87898 0.80192 0.14512 0.0
C1863 C 0.86287 0.80783 0.21987 0.0
C1864 C 0.85115 0.81354 0.18705 0.0
C1865 C 0.85275 0.81206 0.13307 0.0
C1866 C 0.86665 0.80633 0.11216 0.0
C1867 C 0.83931 0.82394 0.20971 0.0
C1868 C 0.82966 0.81821 0.24937 0.0
C1869 C 0.83975 0.84015 0.19931 0.0
C1870 C 0.8499 0.84685 0.15852 0.0
C1871 C 0.84328 0.85285 0.11285 0.0
C1872 C 0.85287 0.85856 0.07324 0.0
C1873 C 0.8691 0.85839 0.07913 0.0
C1874 C 0.87576 0.85262 0.1248 0.0
C1875 C 0.86621 0.84693 0.16454 0.0
H1876 H 0.87651 0.86274 0.04832 0.0
H1877 H 0.78784 0.80496 0.43939 0.0
H1878 H 0.2029 0.88826 0.25255 0.0
H1879 H 0.17841 0.88166 0.29511 0.0
H1880 H 0.1542 0.91564 0.20124 0.0
H1881 H 0.17882 0.92246 0.1588 0.0
H1882 H 0.15271 0.89444 0.34598 0.0
H1883 H 0.12411 0.89594 0.14994 0.0
H1884 H 0.1311 0.89881 0.0573 0.0
H1885 H 0.17383 0.87378 0.08341 0.0
H1886 H 0.16699 0.87062 0.17597 0.0
H1887 H 0.096 0.8379 0.39832 0.0
H1888 H 0.10217 0.86251 0.35476 0.0
H1889 H 0.13779 0.83908 0.26529 0.0
H1890 H 0.13184 0.8146 0.30901 0.0
H1891 H 0.12443 0.86381 0.2116 0.0
H1892 H 0.1472 0.8518 0.38471 0.0
H1893 H 0.14355 0.8456 0.47756 0.0
H1894 H 0.11699 0.88773 0.49804 0.0
H1895 H 0.12034 0.89405 0.40506 0.0
C1896 C 0.19249 0.89472 0.24226 0.0
C1897 C 0.19264 0.90548 0.20128 0.0
C1898 C 0.17851 0.89103 0.26682 0.0
C1899 C 0.16451 0.89803 0.25064 0.0
C1900 C 0.1649 0.91003 0.21379 0.0
C1901 C 0.1789 0.91373 0.18914 0.0
C1902 C 0.14973 0.89025 0.26408 0.0
C1903 C 0.14608 0.88819 0.31664 0.0
C1904 C 0.14124 0.88199 0.22564 0.0
C1905 C 0.14511 0.8832 0.16973 0.0
C1906 C 0.13495 0.891 0.13574 0.0
C1907 C 0.1389 0.89269 0.08333 0.0
C1908 C 0.15295 0.88658 0.06457 0.0
C1909 C 0.163 0.87858 0.09804 0.0
C1910 C 0.15908 0.87681 0.15041 0.0
C1911 C 0.10498 0.83798 0.36875 0.0
C1912 C 0.11387 0.8245 0.35824 0.0
C1913 C 0.1083 0.85197 0.34343 0.0
C1914 C 0.12056 0.8526 0.30753 0.0
C1915 C 0.12823 0.83879 0.29287 0.0
C1916 C 0.12491 0.82482 0.3181 0.0
C1917 C 0.12781 0.86761 0.29354 0.0
C1918 C 0.13015 0.87094 0.24087 0.0
C1919 C 0.13538 0.87676 0.33192 0.0
C1920 C 0.13387 0.8733 0.38804 0.0
C1921 C 0.14057 0.85972 0.40908 0.0
C1922 C 0.13852 0.85616 0.46163 0.0
C1923 C 0.12995 0.86621 0.49357 0.0
C1924 C 0.12355 0.87991 0.47315 0.0
C1925 C 0.12551 0.88349 0.42055 0.0
H1926 H 0.12833 0.86341 0.5342 0.0
H1927 H 0.15601 0.88795 0.02404 0.0
H1928 H 0.88976 0.83304 0.9625 0.0
H1929 H 0.87366 0.85079 0.90924 0.0
H1930 H 0.90367 0.84227 0.77779 0.0
H1931 H 0.91972 0.82502 0.83062 0.0
H1932 H 0.89508 0.87108 0.77188 0.0
H1933 H 0.86726 0.82298 0.7972 0.0
H1934 H 0.85512 0.80195 0.84866 0.0
H1935 H 0.82392 0.83516 0.91862 0.0
H1936 H 0.83603 0.85643 0.86804 0.0
H1937 H 0.83903 0.89486 0.57104 0.0
H1938 H 0.85798 0.88011 0.62469 0.0
H1939 H 0.83095 0.89044 0.76155 0.0
H1940 H 0.81251 0.90499 0.70974 0.0
H1941 H 0.83826 0.86047 0.76297 0.0
H1942 H 0.86622 0.90856 0.73566 0.0
H1943 H 0.87866 0.9293 0.68375 0.0
H1944 H 0.90967 0.89558 0.61565 0.0
H1945 H 0.89726 0.87459 0.6667 0.0
C1946 C 0.89316 0.83533 0.92272 0.0
C1947 C 0.90616 0.82757 0.90118 0.0
C1948 C 0.88379 0.84533 0.89178 0.0
C1949 C 0.88712 0.8478 0.83848 0.0
C1950 C 0.90062 0.84071 0.81827 0.0
C1951 C 0.90987 0.83077 0.84885 0.0
C1952 C 0.87639 0.85702 0.80274 0.0
C1953 C 0.88268 0.8686 0.76978 0.0
C1954 C 0.8601 0.85408 0.79931 0.0
C1955 C 0.85265 0.84131 0.82923 0.0
C1956 C 0.85786 0.8258 0.82377 0.0
C1957 C 0.85099 0.81384 0.85276 0.0
C1958 C 0.83878 0.81722 0.88698 0.0
C1959 C 0.83339 0.83256 0.89215 0.0
C1960 C 0.84025 0.84457 0.86331 0.0
C1961 C 0.83724 0.89412 0.61258 0.0
C1962 C 0.82402 0.90119 0.63535 0.0
C1963 C 0.8481 0.88562 0.64346 0.0
C1964 C 0.84598 0.88394 0.69781 0.0
C1965 C 0.83295 0.89124 0.7201 0.0
C1966 C 0.82232 0.8997 0.68981 0.0
C1967 C 0.85692 0.8746 0.73235 0.0
C1968 C 0.85067 0.86295 0.76505 0.0
C1969 C 0.87324 0.87742 0.73526 0.0
C1970 C 0.88068 0.88998 0.7045 0.0
C1971 C 0.87559 0.90555 0.70926 0.0
C1972 C 0.88266 0.91735 0.68007 0.0
C1973 C 0.89492 0.91375 0.64629 0.0
C1974 C 0.90016 0.89834 0.64174 0.0
C1975 C 0.89311 0.88649 0.67081 0.0
H1976 H 0.90038 0.9229 0.62375 0.0
H1977 H 0.83347 0.80795 0.9094 0.0
H1978 H 0.11101 0.83916 0.61191 0.0
H1979 H 0.12393 0.85769 0.67207 0.0
H1980 H 0.15405 0.82071 0.7256 0.0
H1981 H 0.14132 0.80252 0.6671 0.0
H1982 H 0.14323 0.8346 0.80643 0.0
H1983 H 0.16619 0.8528 0.64618 0.0
H1984 H 0.16604 0.86384 0.55775 0.0
H1985 H 0.14272 0.90492 0.61407 0.0
H1986 H 0.14255 0.89403 0.70278 0.0
H1987 H 0.20743 0.86943 0.93352 0.0
H1988 H 0.18898 0.85652 0.87537 0.0
H1989 H 0.16285 0.89934 0.86181 0.0
H1990 H 0.18156 0.9124 0.92089 0.0
H1991 H 0.16758 0.88557 0.76456 0.0
H1992 H 0.14672 0.86795 0.92647 0.0
H1993 H 0.14724 0.85666 1.01455 0.0
H1994 H 0.16708 0.81431 0.95421 0.0
H1995 H 0.16665 0.82529 0.86571 0.0
C1996 C 0.12057 0.8351 0.63586 0.0
C1997 C 0.12495 0.8192 0.63456 0.0
C1998 C 0.12798 0.84571 0.67059 0.0
C1999 C 0.14003 0.84073 0.70452 0.0
C2000 C 0.14473 0.82503 0.70108 0.0
C2001 C 0.13739 0.81455 0.66703 0.0
C2002 C 0.14752 0.85121 0.74532 0.0
C2003 C 0.14861 0.8457 0.79678 0.0
C2004 C 0.15422 0.86604 0.73432 0.0
C2005 C 0.1542 0.87253 0.681 0.0
C2006 C 0.16091 0.86413 0.63963 0.0
C2007 C 0.16093 0.87038 0.5895 0.0
C2008 C 0.15438 0.88507 0.58032 0.0
C2009 C 0.14779 0.89354 0.62125 0.0
C2010 C 0.14773 0.88734 0.67146 0.0
C2011 C 0.1975 0.87603 0.9195 0.0
C2012 C 0.19585 0.8919 0.93318 0.0
C2013 C 0.18692 0.86861 0.88577 0.0
C2014 C 0.17429 0.87679 0.86374 0.0
C2015 C 0.17239 0.89264 0.87802 0.0
C2016 C 0.18297 0.90008 0.91259 0.0
C2017 C 0.16365 0.86866 0.82497 0.0
C2018 C 0.16199 0.87458 0.77413 0.0
C2019 C 0.15643 0.85413 0.8363 0.0
C2020 C 0.15674 0.84749 0.88949 0.0
C2021 C 0.15128 0.85626 0.93202 0.0
C2022 C 0.15155 0.84992 0.98201 0.0
C2023 C 0.15728 0.83483 0.99001 0.0
C2024 C 0.16267 0.82601 0.94797 0.0
C2025 C 0.16236 0.83226 0.89785 0.0
H2026 H 0.15749 0.82995 0.02876 0.0
H2027 H 0.15442 0.88989 0.54149 0.0
H2028 H 0.18235 0.12149 0.58523 0.0
H2029 H 0.16275 0.13611 0.63639 0.0
H2030 H 0.1911 0.13068 0.77355 0.0
H2031 H 0.20993 0.11587 0.72435 0.0
H2032 H 0.16378 0.12764 0.80446 0.0
H2033 H 0.18789 0.16625 0.69385 0.0
H2034 H 0.19551 0.17809 0.61029 0.0
H2035 H 0.14731 0.18112 0.5655 0.0
H2036 H 0.13942 0.16911 0.64853 0.0
H2037 H 0.13219 0.18958 0.96632 0.0
H2038 H 0.14826 0.17147 0.91438 0.0
H2039 H 0.11691 0.17725 0.78474 0.0
H2040 H 0.10129 0.19548 0.83576 0.0
H2041 H 0.14443 0.17944 0.74818 0.0
H2042 H 0.12064 0.14176 0.86276 0.0
H2043 H 0.11367 0.13052 0.94782 0.0
H2044 H 0.16224 0.12648 0.98692 0.0
H2045 H 0.1695 0.13786 0.90231 0.0
C2046 C 0.18429 0.12329 0.62636 0.0
C2047 C 0.19793 0.11742 0.64998 0.0
C2048 C 0.1731 0.13183 0.65579 0.0
C2049 C 0.17534 0.13486 0.7095 0.0
C2050 C 0.1888 0.12866 0.73272 0.0
C2051 C 0.19976 0.12015 0.70384 0.0
C2052 C 0.16411 0.14452 0.74236 0.0
C2053 C 0.15971 0.13903 0.79199 0.0
C2054 C 0.15835 0.15937 0.72692 0.0
C2055 C 0.16308 0.16662 0.67711 0.0
C2056 C 0.17893 0.16935 0.66601 0.0
C2057 C 0.18329 0.1761 0.61877 0.0
C2058 C 0.1719 0.18031 0.58255 0.0
C2059 C 0.15612 0.17782 0.59355 0.0
C2060 C 0.15169 0.17105 0.64068 0.0
C2061 C 0.12849 0.1866 0.92732 0.0
C2062 C 0.11526 0.19389 0.90567 0.0
C2063 C 0.13777 0.17626 0.89721 0.0
C2064 C 0.13396 0.17278 0.84487 0.0
C2065 C 0.12038 0.17965 0.82441 0.0
C2066 C 0.11128 0.19001 0.85407 0.0
C2067 C 0.14423 0.16261 0.81035 0.0
C2068 C 0.14845 0.16802 0.76049 0.0
C2069 C 0.14994 0.14775 0.82576 0.0
C2070 C 0.1456 0.14077 0.87638 0.0
C2071 C 0.12983 0.13854 0.88962 0.0
C2072 C 0.12583 0.13213 0.93772 0.0
C2073 C 0.13751 0.1278 0.97276 0.0
C2074 C 0.15321 0.12984 0.95973 0.0
C2075 C 0.15728 0.13625 0.91169 0.0
H2076 H 0.13439 0.12286 1.01001 0.0
H2077 H 0.17529 0.18554 0.54602 0.0
H2078 H 0.8366 0.12522 0.95306 0.0
H2079 H 0.85487 0.14112 0.9011 0.0
H2080 H 0.83081 0.12734 0.76125 0.0
H2081 H 0.81324 0.11126 0.81192 0.0
H2082 H 0.8593 0.12858 0.73705 0.0
H2083 H 0.82586 0.16469 0.82902 0.0
H2084 H 0.81409 0.17638 0.90743 0.0
H2085 H 0.85961 0.18903 0.9634 0.0
H2086 H 0.87167 0.17724 0.88558 0.0
H2087 H 0.8851 0.19135 0.56651 0.0
H2088 H 0.87039 0.17209 0.61853 0.0
H2089 H 0.89642 0.18558 0.75472 0.0
H2090 H 0.91076 0.20467 0.70366 0.0
H2091 H 0.86768 0.18425 0.78202 0.0
H2092 H 0.90098 0.14895 0.68787 0.0
H2093 H 0.91264 0.13684 0.61001 0.0
H2094 H 0.86716 0.12264 0.55784 0.0
H2095 H 0.85521 0.13484 0.63511 0.0
C2096 C 0.8354 0.12538 0.9112 0.0
C2097 C 0.82327 0.11689 0.88718 0.0
C2098 C 0.84577 0.13467 0.88127 0.0
C2099 C 0.84423 0.13585 0.82656 0.0
C2100 C 0.83247 0.12687 0.80292 0.0
C2101 C 0.82227 0.11763 0.83245 0.0
C2102 C 0.85432 0.14656 0.79335 0.0
C2103 C 0.86095 0.14079 0.7469 0.0
C2104 C 0.85692 0.16255 0.80558 0.0
C2105 C 0.84967 0.16994 0.85177 0.0
C2106 C 0.83336 0.16991 0.85817 0.0
C2107 C 0.82664 0.17655 0.90249 0.0
C2108 C 0.8361 0.1834 0.94045 0.0
C2109 C 0.8523 0.1837 0.93402 0.0
C2110 C 0.85909 0.17705 0.8898 0.0
C2111 C 0.88793 0.18992 0.60721 0.0
C2112 C 0.89924 0.19962 0.63052 0.0
C2113 C 0.87942 0.17891 0.63729 0.0
C2114 C 0.8821 0.17722 0.69136 0.0
C2115 C 0.89381 0.18657 0.71369 0.0
C2116 C 0.90216 0.19749 0.68402 0.0
C2117 C 0.8726 0.16628 0.72558 0.0
C2118 C 0.86605 0.17203 0.77219 0.0
C2119 C 0.87004 0.15029 0.7134 0.0
C2120 C 0.87719 0.14295 0.66698 0.0
C2121 C 0.89346 0.14334 0.65959 0.0
C2122 C 0.90012 0.13645 0.61561 0.0
C2123 C 0.89064 0.12901 0.57893 0.0
C2124 C 0.87448 0.12843 0.58624 0.0
C2125 C 0.86776 0.13532 0.63013 0.0
H2126 H 0.89582 0.12368 0.54491 0.0
H2127 H 0.83088 0.1885 0.9748 0.0
H2128 H 0.708 0.63163 0.80261 0.0
H2129 H 0.68428 0.63549 0.75228 0.0
H2130 H 0.66099 0.59984 0.84164 0.0
H2131 H 0.68489 0.59566 0.89165 0.0
H2132 H 0.66067 0.62024 0.69586 0.0
H2133 H 0.62856 0.6173 0.88401 0.0
H2134 H 0.63345 0.61534 0.9784 0.0
H2135 H 0.67444 0.64384 0.96247 0.0
H2136 H 0.66965 0.6461 0.86819 0.0
H2137 H 0.60181 0.6758 0.63533 0.0
H2138 H 0.60912 0.65103 0.67555 0.0
H2139 H 0.64323 0.67504 0.76964 0.0
H2140 H 0.63638 0.69969 0.72876 0.0
H2141 H 0.62853 0.65026 0.82178 0.0
H2142 H 0.65398 0.66249 0.65276 0.0
H2143 H 0.65214 0.66772 0.55868 0.0
H2144 H 0.62812 0.62418 0.53617 0.0
H2145 H 0.62965 0.61883 0.63032 0.0
C2146 C 0.69803 0.62422 0.81036 0.0
C2147 C 0.69808 0.61381 0.85231 0.0
C2148 C 0.6845 0.62633 0.78127 0.0
C2149 C 0.67085 0.6181 0.79393 0.0
C2150 C 0.67139 0.60638 0.83177 0.0
C2151 C 0.68496 0.60424 0.86085 0.0
C2152 C 0.65583 0.62464 0.77665 0.0
C2153 C 0.65318 0.62631 0.72325 0.0
C2154 C 0.64615 0.6326 0.81256 0.0
C2155 C 0.64881 0.63175 0.86927 0.0
C2156 C 0.63856 0.62319 0.90082 0.0
C2157 C 0.64132 0.62203 0.95422 0.0
C2158 C 0.65427 0.62943 0.9764 0.0
C2159 C 0.66443 0.6381 0.94526 0.0
C2160 C 0.66168 0.63935 0.8919 0.0
C2161 C 0.61081 0.67584 0.66478 0.0
C2162 C 0.61886 0.68967 0.67784 0.0
C2163 C 0.61477 0.6617 0.6882 0.0
C2164 C 0.62674 0.66126 0.72518 0.0
C2165 C 0.63386 0.67521 0.74135 0.0
C2166 C 0.62998 0.6893 0.71779 0.0
C2167 C 0.63387 0.64638 0.74106 0.0
C2168 C 0.63508 0.64323 0.79424 0.0
C2169 C 0.64241 0.63729 0.70496 0.0
C2170 C 0.64178 0.64034 0.64842 0.0
C2171 C 0.64826 0.65408 0.6277 0.0
C2172 C 0.64727 0.65707 0.57443 0.0
C2173 C 0.63998 0.64631 0.54148 0.0
C2174 C 0.63373 0.63252 0.56175 0.0
C2175 C 0.63464 0.6295 0.61504 0.0
H2176 H 0.63921 0.64864 0.50026 0.0
H2177 H 0.65642 0.62846 0.0177 0.0
H2178 H 0.31491 0.65001 0.56544 0.0
H2179 H 0.32911 0.6724 0.60147 0.0
H2180 H 0.31698 0.65755 0.7564 0.0
H2181 H 0.30288 0.63528 0.72082 0.0
H2182 H 0.31643 0.68949 0.74669 0.0
H2183 H 0.3507 0.64537 0.70081 0.0
H2184 H 0.36177 0.6267 0.63761 0.0
H2185 H 0.37844 0.66479 0.5445 0.0
H2186 H 0.3673 0.68368 0.60697 0.0
H2187 H 0.37519 0.70384 0.92863 0.0
H2188 H 0.35589 0.69327 0.86812 0.0
H2189 H 0.38032 0.71463 0.73999 0.0
H2190 H 0.39999 0.7246 0.79982 0.0
H2191 H 0.37365 0.68543 0.71911 0.0
H2192 H 0.34529 0.72931 0.7796 0.0
H2193 H 0.33435 0.74773 0.8437 0.0
H2194 H 0.30652 0.71096 0.90906 0.0
H2195 H 0.31746 0.69226 0.84588 0.0
C2196 C 0.31524 0.65161 0.60713 0.0
C2197 C 0.30803 0.64081 0.64048 0.0
C2198 C 0.32319 0.66444 0.62754 0.0
C2199 C 0.32414 0.66649 0.68149 0.0
C2200 C 0.31626 0.6562 0.71461 0.0
C2201 C 0.30827 0.64345 0.69427 0.0
C2202 C 0.33485 0.67802 0.70439 0.0
C2203 C 0.32895 0.68873 0.74064 0.0
C2204 C 0.3511 0.67725 0.69506 0.0
C2205 C 0.35804 0.6659 0.65816 0.0
C2206 C 0.35667 0.64974 0.66673 0.0
C2207 C 0.36295 0.63913 0.63107 0.0
C2208 C 0.37076 0.64455 0.58698 0.0
C2209 C 0.37236 0.66061 0.57861 0.0
C2210 C 0.36607 0.67127 0.61412 0.0
C2211 C 0.37649 0.70617 0.88757 0.0
C2212 C 0.38906 0.71507 0.86899 0.0
C2213 C 0.36535 0.70036 0.85316 0.0
C2214 C 0.36654 0.70348 0.79979 0.0
C2215 C 0.37912 0.71228 0.78113 0.0
C2216 C 0.39029 0.71801 0.81542 0.0
C2217 C 0.3553 0.69653 0.76318 0.0
C2218 C 0.36113 0.68666 0.72424 0.0
C2219 C 0.339 0.69813 0.77009 0.0
C2220 C 0.33227 0.70935 0.80806 0.0
C2221 C 0.33692 0.72512 0.80784 0.0
C2222 C 0.3307 0.73562 0.844 0.0
C2223 C 0.31976 0.73052 0.88046 0.0
C2224 C 0.31499 0.7149 0.88077 0.0
C2225 C 0.32118 0.70435 0.84472 0.0
H2226 H 0.31497 0.73866 0.90843 0.0
H2227 H 0.3756 0.63632 0.55938 0.0
H2228 H 0.31886 0.38645 0.80205 0.0
H2229 H 0.34231 0.38478 0.74894 0.0
H2230 H 0.36172 0.42471 0.82877 0.0
H2231 H 0.33816 0.42637 0.88239 0.0
H2232 H 0.36127 0.40174 0.6847 0.0
H2233 H 0.39812 0.41496 0.85686 0.0
H2234 H 0.39628 0.41878 0.95185 0.0
H2235 H 0.36066 0.38353 0.96037 0.0
H2236 H 0.36244 0.37944 0.86555 0.0
H2237 H 0.42161 0.34862 0.61754 0.0
H2238 H 0.41482 0.37443 0.65124 0.0
H2239 H 0.38614 0.35293 0.76881 0.0
H2240 H 0.39236 0.32728 0.73473 0.0
H2241 H 0.40124 0.38001 0.804 0.0
H2242 H 0.36997 0.36041 0.65162 0.0
H2243 H 0.369 0.3523 0.55955 0.0
H2244 H 0.3901 0.39573 0.51442 0.0
H2245 H 0.39134 0.40398 0.60639 0.0
C2246 C 0.32793 0.39512 0.80731 0.0
C2247 C 0.32693 0.40622 0.84722 0.0
C2248 C 0.34128 0.39427 0.77666 0.0
C2249 C 0.35381 0.40455 0.78534 0.0
C2250 C 0.35222 0.41661 0.82185 0.0
C2251 C 0.33888 0.41738 0.85287 0.0
C2252 C 0.36921 0.40028 0.76396 0.0
C2253 C 0.37041 0.39757 0.71037 0.0
C2254 C 0.38118 0.39494 0.79744 0.0
C2255 C 0.38034 0.39701 0.85439 0.0
C2256 C 0.38996 0.408 0.87916 0.0
C2257 C 0.38891 0.41021 0.93288 0.0
C2258 C 0.37833 0.40142 0.9621 0.0
C2259 C 0.36884 0.39034 0.9377 0.0
C2260 C 0.36987 0.38805 0.88404 0.0
C2261 C 0.41394 0.34934 0.65079 0.0
C2262 C 0.40716 0.33583 0.67252 0.0
C2263 C 0.4103 0.36412 0.67041 0.0
C2264 C 0.39997 0.36553 0.71227 0.0
C2265 C 0.39428 0.35205 0.7367 0.0
C2266 C 0.39779 0.33734 0.71695 0.0
C2267 C 0.39261 0.38056 0.7255 0.0
C2268 C 0.39295 0.38535 0.77752 0.0
C2269 C 0.38188 0.38753 0.69078 0.0
C2270 C 0.38087 0.38274 0.63564 0.0
C2271 C 0.37442 0.36819 0.62198 0.0
C2272 C 0.37384 0.36357 0.56989 0.0
C2273 C 0.37951 0.37348 0.53116 0.0
C2274 C 0.38574 0.38806 0.54446 0.0
C2275 C 0.3864 0.3927 0.59654 0.0
H2276 H 0.37906 0.36988 0.49086 0.0
H2277 H 0.37751 0.40319 1.00365 0.0
H2278 H 0.72276 0.38709 0.72555 0.0
H2279 H 0.71475 0.3617 0.75858 0.0
H2280 H 0.71071 0.34425 0.60178 0.0
H2281 H 0.71892 0.36969 0.56843 0.0
H2282 H 0.68391 0.34259 0.65308 0.0
H2283 H 0.73524 0.32551 0.68521 0.0
H2284 H 0.76267 0.32674 0.7141 0.0
H2285 H 0.74772 0.33432 0.87121 0.0
H2286 H 0.7202 0.33325 0.84342 0.0
H2287 H 0.64054 0.28597 0.78291 0.0
H2288 H 0.66271 0.29482 0.73244 0.0
H2289 H 0.67731 0.32433 0.8594 0.0
H2290 H 0.65567 0.31484 0.91182 0.0
H2291 H 0.7024 0.31261 0.80592 0.0
H2292 H 0.6527 0.33813 0.76684 0.0
H2293 H 0.62508 0.33833 0.73958 0.0
H2294 H 0.63753 0.31638 0.59529 0.0
H2295 H 0.66522 0.31589 0.62208 0.0
C2296 C 0.7206 0.37774 0.69815 0.0
C2297 C 0.72109 0.38047 0.64447 0.0
C2298 C 0.71616 0.36317 0.71706 0.0
C2299 C 0.71223 0.35107 0.68258 0.0
C2300 C 0.71373 0.35345 0.62895 0.0
C2301 C 0.71818 0.36804 0.61001 0.0
C2302 C 0.70358 0.33744 0.70247 0.0
C2303 C 0.68816 0.33561 0.68529 0.0
C2304 C 0.70905 0.32859 0.74505 0.0
C2305 C 0.72561 0.32933 0.76214 0.0
C2306 C 0.73778 0.32755 0.72589 0.0
C2307 C 0.75336 0.3282 0.74207 0.0
C2308 C 0.75693 0.33065 0.79439 0.0
C2309 C 0.74493 0.33241 0.83069 0.0
C2310 C 0.72934 0.33173 0.81477 0.0
C2311 C 0.64861 0.29402 0.80101 0.0
C2312 C 0.64603 0.29988 0.85146 0.0
C2313 C 0.66131 0.29908 0.77181 0.0
C2314 C 0.67148 0.31038 0.79194 0.0
C2315 C 0.66954 0.3156 0.84318 0.0
C2316 C 0.65695 0.31037 0.87277 0.0
C2317 C 0.6827 0.3184 0.75771 0.0
C2318 C 0.69847 0.31914 0.77233 0.0
C2319 C 0.67757 0.32643 0.71287 0.0
C2320 C 0.66096 0.32677 0.69672 0.0
C2321 C 0.64951 0.33324 0.72947 0.0
C2322 C 0.63386 0.33342 0.71409 0.0
C2323 C 0.62954 0.32732 0.66581 0.0
C2324 C 0.64088 0.32106 0.63274 0.0
C2325 C 0.65655 0.32083 0.64799 0.0
H2326 H 0.61742 0.32747 0.65396 0.0
H2327 H 0.76899 0.33115 0.80682 0.0
H2328 H 0.31045 0.39657 0.20522 0.0
H2329 H 0.32958 0.38334 0.25826 0.0
H2330 H 0.36089 0.38064 0.12762 0.0
H2331 H 0.34122 0.39392 0.07267 0.0
H2332 H 0.36132 0.35321 0.18113 0.0
H2333 H 0.36742 0.40623 0.23143 0.0
H2334 H 0.35944 0.43261 0.25941 0.0
H2335 H 0.3402 0.41366 0.3998 0.0
H2336 H 0.34785 0.38712 0.37231 0.0
H2337 H 0.42425 0.32956 0.34754 0.0
H2338 H 0.40754 0.34427 0.28828 0.0
H2339 H 0.37116 0.34526 0.40371 0.0
H2340 H 0.38785 0.3302 0.46339 0.0
H2341 H 0.37502 0.37433 0.35484 0.0
H2342 H 0.36825 0.32108 0.30126 0.0
H2343 H 0.37688 0.29493 0.27303 0.0
H2344 H 0.39848 0.31491 0.13812 0.0
H2345 H 0.39019 0.34124 0.16599 0.0
C2346 C 0.32139 0.39331 0.18708 0.0
C2347 C 0.32411 0.39649 0.134 0.0
C2348 C 0.33248 0.38573 0.21811 0.0
C2349 C 0.34698 0.38106 0.19792 0.0
C2350 C 0.34988 0.38413 0.14475 0.0
C2351 C 0.33864 0.39184 0.11324 0.0
C2352 C 0.35863 0.37279 0.23289 0.0
C2353 C 0.36453 0.35803 0.21861 0.0
C2354 C 0.36273 0.3787 0.2828 0.0
C2355 C 0.35809 0.39465 0.29955 0.0
C2356 C 0.36137 0.40766 0.26807 0.0
C2357 C 0.35693 0.42265 0.28388 0.0
C2358 C 0.34929 0.42481 0.33129 0.0
C2359 C 0.34611 0.41197 0.36305 0.0
C2360 C 0.35051 0.39695 0.34739 0.0
C2361 C 0.41272 0.3329 0.36072 0.0
C2362 C 0.40751 0.32858 0.41071 0.0
C2363 C 0.40308 0.3413 0.32636 0.0
C2364 C 0.3879 0.34587 0.34077 0.0
C2365 C 0.38275 0.3419 0.39114 0.0
C2366 C 0.39233 0.33323 0.42538 0.0
C2367 C 0.37754 0.35474 0.30324 0.0
C2368 C 0.37188 0.36959 0.31718 0.0
C2369 C 0.37378 0.34896 0.25294 0.0
C2370 C 0.37875 0.33316 0.23602 0.0
C2371 C 0.37496 0.31992 0.26581 0.0
C2372 C 0.37977 0.30506 0.24984 0.0
C2373 C 0.38826 0.30326 0.20389 0.0
C2374 C 0.39193 0.31632 0.17376 0.0
C2375 C 0.38717 0.33122 0.18961 0.0
H2376 H 0.39197 0.29175 0.19157 0.0
H2377 H 0.34586 0.43642 0.34347 0.0
H2378 H 0.70306 0.38176 0.42775 0.0
H2379 H 0.6872 0.3665 0.36662 0.0
H2380 H 0.66531 0.40879 0.31275 0.0
H2381 H 0.68139 0.42408 0.37353 0.0
H2382 H 0.64399 0.38316 0.31561 0.0
H2383 H 0.69483 0.39459 0.24642 0.0
H2384 H 0.72362 0.39524 0.24802 0.0
H2385 H 0.72494 0.3452 0.25931 0.0
H2386 H 0.69614 0.34427 0.25864 0.0
H2387 H 0.61398 0.34678 0.08373 0.0
H2388 H 0.62765 0.36543 0.14123 0.0
H2389 H 0.65918 0.32884 0.18863 0.0
H2390 H 0.64592 0.3106 0.13084 0.0
H2391 H 0.67525 0.35363 0.18644 0.0
H2392 H 0.62528 0.34155 0.2613 0.0
H2393 H 0.59653 0.33999 0.2641 0.0
H2394 H 0.59342 0.38978 0.24626 0.0
H2395 H 0.62216 0.3916 0.24263 0.0
C2396 C 0.6944 0.38776 0.40456 0.0
C2397 C 0.69317 0.40416 0.40704 0.0
C2398 C 0.68544 0.37902 0.36885 0.0
C2399 C 0.67503 0.3864 0.33423 0.0
C2400 C 0.67312 0.40269 0.33885 0.0
C2401 C 0.68222 0.41145 0.37419 0.0
C2402 C 0.66724 0.37735 0.29072 0.0
C2403 C 0.65084 0.37688 0.287 0.0
C2404 C 0.67602 0.36887 0.25333 0.0
C2405 C 0.69333 0.36937 0.25296 0.0
C2406 C 0.70126 0.38373 0.2496 0.0
C2407 C 0.71758 0.38415 0.25031 0.0
C2408 C 0.7261 0.37027 0.25389 0.0
C2409 C 0.71832 0.35594 0.25661 0.0
C2410 C 0.702 0.35546 0.25604 0.0
C2411 C 0.62418 0.34292 0.105 0.0
C2412 C 0.62896 0.3272 0.10184 0.0
C2413 C 0.63185 0.35352 0.13886 0.0
C2414 C 0.64441 0.34863 0.1708 0.0
C2415 C 0.64962 0.33314 0.1651 0.0
C2416 C 0.64201 0.32265 0.13157 0.0
C2417 C 0.65188 0.35914 0.21152 0.0
C2418 C 0.6683 0.35994 0.21477 0.0
C2419 C 0.6431 0.36775 0.24878 0.0
C2420 C 0.62585 0.36669 0.25105 0.0
C2421 C 0.61845 0.35215 0.25759 0.0
C2422 C 0.60216 0.35122 0.25938 0.0
C2423 C 0.59315 0.36477 0.2552 0.0
C2424 C 0.60041 0.37929 0.24937 0.0
C2425 C 0.6167 0.38028 0.24745 0.0
H2426 H 0.58054 0.36403 0.25661 0.0
H2427 H 0.73874 0.37062 0.25445 0.0
H2428 H 0.70906 0.6152 0.21041 0.0
H2429 H 0.68995 0.62877 0.26384 0.0
H2430 H 0.66675 0.64535 0.12602 0.0
H2431 H 0.68619 0.63158 0.07156 0.0
H2432 H 0.6712 0.66914 0.197 0.0
H2433 H 0.64978 0.61765 0.2059 0.0
H2434 H 0.6501 0.58915 0.21981 0.0
H2435 H 0.6646 0.59611 0.3778 0.0
H2436 H 0.66459 0.62465 0.36465 0.0
H2437 H 0.60961 0.7046 0.33244 0.0
H2438 H 0.62438 0.68683 0.2773 0.0
H2439 H 0.64648 0.6671 0.41256 0.0
H2440 H 0.63118 0.68487 0.46871 0.0
H2441 H 0.64197 0.64446 0.34159 0.0
H2442 H 0.66496 0.69512 0.33353 0.0
H2443 H 0.66565 0.7237 0.32177 0.0
H2444 H 0.64962 0.71842 0.1647 0.0
H2445 H 0.64862 0.6898 0.17575 0.0
C2446 C 0.69977 0.62152 0.19107 0.0
C2447 C 0.69924 0.62217 0.13632 0.0
C2448 C 0.68873 0.62929 0.22201 0.0
C2449 C 0.67667 0.63813 0.19961 0.0
C2450 C 0.67585 0.63862 0.14472 0.0
C2451 C 0.68691 0.63061 0.11342 0.0
C2452 C 0.66562 0.64735 0.234 0.0
C2453 C 0.66457 0.66364 0.22785 0.0
C2454 C 0.65733 0.64046 0.27603 0.0
C2455 C 0.65731 0.6233 0.28413 0.0
C2456 C 0.65316 0.6131 0.2435 0.0
C2457 C 0.65326 0.59694 0.25127 0.0
C2458 C 0.6574 0.59082 0.29962 0.0
C2459 C 0.66141 0.60086 0.34035 0.0
C2460 C 0.66134 0.61704 0.33278 0.0
C2461 C 0.61743 0.69634 0.35084 0.0
C2462 C 0.61917 0.6963 0.4053 0.0
C2463 C 0.62604 0.6862 0.31894 0.0
C2464 C 0.63704 0.67579 0.34 0.0
C2465 C 0.63823 0.67506 0.39477 0.0
C2466 C 0.6294 0.68519 0.42708 0.0
C2467 C 0.64748 0.66624 0.30437 0.0
C2468 C 0.6485 0.64993 0.31047 0.0
C2469 C 0.6559 0.67313 0.26256 0.0
C2470 C 0.65657 0.69032 0.25564 0.0
C2471 C 0.66148 0.70006 0.29659 0.0
C2472 C 0.66194 0.71627 0.29004 0.0
C2473 C 0.65764 0.72287 0.24256 0.0
C2474 C 0.65292 0.71328 0.20148 0.0
C2475 C 0.65242 0.69707 0.20785 0.0
H2476 H 0.65801 0.73542 0.23756 0.0
H2477 H 0.65747 0.57831 0.30556 0.0
H2478 H 0.31726 0.6045 0.32115 0.0
H2479 H 0.3353 0.61987 0.26999 0.0
H2480 H 0.3545 0.63983 0.40995 0.0
H2481 H 0.33571 0.62457 0.46225 0.0
H2482 H 0.35109 0.66226 0.34075 0.0
H2483 H 0.37489 0.61208 0.32937 0.0
H2484 H 0.37631 0.58365 0.31443 0.0
H2485 H 0.36184 0.59009 0.15624 0.0
H2486 H 0.36012 0.61855 0.17042 0.0
H2487 H 0.41464 0.69772 0.21476 0.0
H2488 H 0.39929 0.67929 0.26514 0.0
H2489 H 0.37493 0.66504 0.12655 0.0
H2490 H 0.39048 0.68387 0.07505 0.0
H2491 H 0.38154 0.63954 0.19508 0.0
H2492 H 0.35773 0.69005 0.20839 0.0
H2493 H 0.35715 0.71846 0.22438 0.0
H2494 H 0.37263 0.71114 0.38108 0.0
H2495 H 0.37355 0.68268 0.36577 0.0
C2496 C 0.32539 0.612 0.34163 0.0
C2497 C 0.32492 0.61312 0.39635 0.0
C2498 C 0.3359 0.6208 0.31189 0.0
C2499 C 0.34665 0.631 0.33539 0.0
C2500 C 0.34646 0.63204 0.3903 0.0
C2501 C 0.33579 0.62317 0.42044 0.0
C2502 C 0.35742 0.64088 0.302 0.0
C2503 C 0.35793 0.65716 0.3096 0.0
C2504 C 0.36618 0.63455 0.25987 0.0
C2505 C 0.36725 0.61745 0.25111 0.0
C2506 C 0.3719 0.60742 0.2915 0.0
C2507 C 0.37278 0.5913 0.28315 0.0
C2508 C 0.36914 0.58506 0.23445 0.0
C2509 C 0.36465 0.59494 0.19396 0.0
C2510 C 0.36374 0.61107 0.20211 0.0
C2511 C 0.40617 0.69056 0.19443 0.0
C2512 C 0.40385 0.69244 0.14051 0.0
C2513 C 0.39729 0.68001 0.22367 0.0
C2514 C 0.3856 0.67088 0.20038 0.0
C2515 C 0.38378 0.67197 0.14587 0.0
C2516 C 0.39277 0.68268 0.11622 0.0
C2517 C 0.37513 0.66083 0.23394 0.0
C2518 C 0.37468 0.64456 0.22634 0.0
C2519 C 0.36651 0.66714 0.2763 0.0
C2520 C 0.36584 0.68424 0.28577 0.0
C2521 C 0.36112 0.6945 0.24615 0.0
C2522 C 0.36072 0.71061 0.2551 0.0
C2523 C 0.36488 0.7166 0.30368 0.0
C2524 C 0.36942 0.70648 0.34345 0.0
C2525 C 0.36988 0.69036 0.33467 0.0
H2526 H 0.36456 0.72908 0.31054 0.0
H2527 H 0.36982 0.57258 0.22807 0.0
loop_
_geom_bond_atom_site_label_1
_geom_bond_atom_site_label_2
_geom_bond_distance
_geom_bond_site_symmetry_2
_ccdc_geom_bond_type
C0 C1 1.351 . S
C0 N3 1.368 . S
C0 H5 0.931 . S
C1 C0 1.351 . S
C1 N2 1.373 . S
C1 H29 0.930 . S
N2 C1 1.373 . S
N2 C4 1.340 . S
N3 C0 1.368 . S
N3 C4 1.321 . S
N3 Co6 2.135 . S
C4 N2 1.340 . S
C4 N3 1.321 . S
C4 H28 0.930 . S
H5 C0 0.931 . S
Co6 N3 2.135 . S
Co6 N9 2.121 1_554 S
Co6 O14 2.055 . S
Co6 O17 2.039 1_554 S
Co6 N20 2.140 . S
C7 O8 1.227 . S
C7 O17 1.265 . S
O8 C7 1.227 . S
N9 Co6 2.121 1_556 S
N9 C11 1.375 . S
N9 C12 1.313 . S
C10 C11 1.338 . S
C10 N13 1.377 . S
C10 H30 0.930 . S
C11 N9 1.375 . S
C11 C10 1.338 . S
C11 H15 0.931 . S
C12 N9 1.313 . S
C12 N13 1.344 . S
C12 H16 0.930 . S
N13 C10 1.377 . S
N13 C12 1.344 . S
O14 Co6 2.055 . S
O14 C18 1.253 . S
H15 C11 0.931 . S
H16 C12 0.930 . S
O17 Co6 2.039 1_556 S
O17 C7 1.265 . S
C18 O14 1.253 . S
C18 O19 1.227 . S
O19 C18 1.227 . S
N20 Co6 2.140 . S
N20 C23 1.346 . S
N20 C24 1.345 1_554 S
C21 C22 1.387 1_556 S
C21 C25 1.391 . S
C22 C21 1.387 1_554 S
C22 C23 1.369 . S
C22 H31 0.929 . S
C23 N20 1.346 . S
C23 C22 1.369 . S
C23 H26 0.928 . S
C24 N20 1.345 1_556 S
C24 C25 1.371 . S
C24 H27 0.931 . S
C25 C21 1.391 . S
C25 C24 1.371 . S
C25 H32 0.930 . S
H26 C23 0.928 . S
H27 C24 0.931 . S
H28 C4 0.930 . S
H29 C1 0.930 . S
H30 C10 0.930 . S
H31 C22 0.929 . S
H32 C25 0.930 . S
C33 C34 1.351 . S
C33 N36 1.368 . S
C33 H38 0.931 . S
C34 C33 1.351 . S
C34 N35 1.373 . S
C34 H62 0.930 . S
N35 C34 1.373 . S
N35 C37 1.340 . S
N36 C33 1.368 . S
N36 C37 1.321 . S
N36 Co39 2.135 . S
C37 N35 1.340 . S
C37 N36 1.321 . S
C37 H61 0.930 . S
H38 C33 0.931 . S
Co39 N36 2.135 . S
Co39 N42 2.121 1_554 S
Co39 O47 2.055 . S
Co39 O50 2.039 1_554 S
Co39 N53 2.140 . S
C40 O41 1.227 . S
C40 O50 1.265 . S
O41 C40 1.227 . S
N42 Co39 2.121 1_556 S
N42 C44 1.375 . S
N42 C45 1.313 . S
C43 C44 1.338 . S
C43 N46 1.377 . S
C43 H63 0.930 . S
C44 N42 1.375 . S
C44 C43 1.338 . S
C44 H48 0.931 . S
C45 N42 1.313 . S
C45 N46 1.344 . S
C45 H49 0.930 . S
N46 C43 1.377 . S
N46 C45 1.344 . S
O47 Co39 2.055 . S
O47 C51 1.253 . S
H48 C44 0.931 . S
H49 C45 0.930 . S
O50 Co39 2.039 1_556 S
O50 C40 1.265 . S
C51 O47 1.253 . S
C51 O52 1.227 . S
O52 C51 1.227 . S
N53 Co39 2.140 . S
N53 C56 1.346 . S
N53 C57 1.345 1_554 S
C54 C55 1.387 1_556 S
C54 C58 1.391 . S
C55 C54 1.387 1_554 S
C55 C56 1.369 . S
C55 H64 0.929 . S
C56 N53 1.346 . S
C56 C55 1.369 . S
C56 H59 0.928 . S
C57 N53 1.345 1_556 S
C57 C58 1.371 . S
C57 H60 0.931 . S
C58 C54 1.391 . S
C58 C57 1.371 . S
C58 H65 0.930 . S
H59 C56 0.928 . S
H60 C57 0.931 . S
H61 C37 0.930 . S
H62 C34 0.930 . S
H63 C43 0.930 . S
H64 C55 0.929 . S
H65 C58 0.930 . S
C66 C67 1.351 . S
C66 N69 1.368 . S
C66 H71 0.931 . S
C67 C66 1.351 . S
C67 N68 1.373 . S
C67 H95 0.930 . S
N68 C67 1.373 . S
N68 C70 1.340 . S
N69 C66 1.368 . S
N69 C70 1.321 . S
N69 Co72 2.135 . S
C70 N68 1.340 . S
C70 N69 1.321 . S
C70 H94 0.930 . S
H71 C66 0.931 . S
Co72 N69 2.135 . S
Co72 N75 2.121 1_554 S
Co72 O80 2.055 . S
Co72 O83 2.039 1_554 S
Co72 N86 2.140 . S
C73 O74 1.227 . S
C73 O83 1.265 . S
O74 C73 1.227 . S
N75 Co72 2.121 1_556 S
N75 C77 1.375 . S
N75 C78 1.313 . S
C76 C77 1.338 . S
C76 N79 1.377 . S
C76 H96 0.930 . S
C77 N75 1.375 . S
C77 C76 1.338 . S
C77 H81 0.931 . S
C78 N75 1.313 . S
C78 N79 1.344 . S
C78 H82 0.930 . S
N79 C76 1.377 . S
N79 C78 1.344 . S
O80 Co72 2.055 . S
O80 C84 1.253 . S
H81 C77 0.931 . S
H82 C78 0.930 . S
O83 Co72 2.039 1_556 S
O83 C73 1.265 . S
C84 O80 1.253 . S
C84 O85 1.227 . S
O85 C84 1.227 . S
N86 Co72 2.140 . S
N86 C89 1.346 . S
N86 C90 1.345 1_554 S
C87 C88 1.387 1_556 S
C87 C91 1.391 . S
C88 C87 1.387 1_554 S
C88 C89 1.369 . S
C88 H97 0.929 . S
C89 N86 1.346 . S
C89 C88 1.369 . S
C89 H92 0.928 . S
C90 N86 1.345 1_556 S
C90 C91 1.371 . S
C90 H93 0.931 . S
C91 C87 1.391 . S
C91 C90 1.371 . S
C91 H98 0.930 . S
H92 C89 0.928 . S
H93 C90 0.931 . S
H94 C70 0.930 . S
H95 C67 0.930 . S
H96 C76 0.930 . S
H97 C88 0.929 . S
H98 C91 0.930 . S
C99 C100 1.351 . S
C99 N102 1.368 . S
C99 H104 0.931 . S
C100 C99 1.351 . S
C100 N101 1.373 . S
C100 H128 0.930 . S
N101 C100 1.373 . S
N101 C103 1.340 . S
N102 C99 1.368 . S
N102 C103 1.321 . S
N102 Co105 2.135 . S
C103 N101 1.340 . S
C103 N102 1.321 . S
C103 H127 0.930 . S
H104 C99 0.931 . S
Co105 N102 2.135 . S
Co105 N108 2.121 1_554 S
Co105 O113 2.055 . S
Co105 O116 2.039 1_554 S
Co105 N119 2.140 . S
C106 O107 1.227 . S
C106 O116 1.265 . S
O107 C106 1.227 . S
N108 Co105 2.121 1_556 S
N108 C110 1.375 . S
N108 C111 1.313 . S
C109 C110 1.338 . S
C109 N112 1.377 . S
C109 H129 0.930 . S
C110 N108 1.375 . S
C110 C109 1.338 . S
C110 H114 0.931 . S
C111 N108 1.313 . S
C111 N112 1.344 . S
C111 H115 0.930 . S
N112 C109 1.377 . S
N112 C111 1.344 . S
O113 Co105 2.055 . S
O113 C117 1.253 . S
H114 C110 0.931 . S
H115 C111 0.930 . S
O116 Co105 2.039 1_556 S
O116 C106 1.265 . S
C117 O113 1.253 . S
C117 O118 1.227 . S
O118 C117 1.227 . S
N119 Co105 2.140 . S
N119 C122 1.346 . S
N119 C123 1.345 1_554 S
C120 C121 1.387 1_556 S
C120 C124 1.391 . S
C121 C120 1.387 1_554 S
C121 C122 1.369 . S
C121 H130 0.929 . S
C122 N119 1.346 . S
C122 C121 1.369 . S
C122 H125 0.928 . S
C123 N119 1.345 1_556 S
C123 C124 1.371 . S
C123 H126 0.931 . S
C124 C120 1.391 . S
C124 C123 1.371 . S
C124 H131 0.930 . S
H125 C122 0.928 . S
H126 C123 0.931 . S
H127 C103 0.930 . S
H128 C100 0.930 . S
H129 C109 0.930 . S
H130 C121 0.929 . S
H131 C124 0.930 . S
C132 C133 1.351 . S
C132 N135 1.368 . S
C132 H137 0.931 . S
C133 C132 1.351 . S
C133 N134 1.373 . S
C133 H161 0.930 . S
N134 C133 1.373 . S
N134 C136 1.340 . S
N135 C132 1.368 . S
N135 C136 1.321 . S
N135 Co138 2.135 . S
C136 N134 1.340 . S
C136 N135 1.321 . S
C136 H160 0.930 . S
H137 C132 0.931 . S
Co138 N135 2.135 . S
Co138 N141 2.121 . S
Co138 O146 2.055 . S
Co138 O149 2.039 . S
Co138 N152 2.140 . S
C139 O140 1.227 . S
C139 O149 1.265 . S
O140 C139 1.227 . S
N141 Co138 2.121 . S
N141 C143 1.375 . S
N141 C144 1.313 . S
C142 C143 1.338 . S
C142 N145 1.377 . S
C142 H162 0.930 . S
C143 N141 1.375 . S
C143 C142 1.338 . S
C143 H147 0.931 . S
C144 N141 1.313 . S
C144 N145 1.344 . S
C144 H148 0.930 . S
N145 C142 1.377 . S
N145 C144 1.344 . S
O146 Co138 2.055 . S
O146 C150 1.253 . S
H147 C143 0.931 . S
H148 C144 0.930 . S
O149 Co138 2.039 . S
O149 C139 1.265 . S
C150 O146 1.253 . S
C150 O151 1.227 . S
O151 C150 1.227 . S
N152 Co138 2.140 . S
N152 C155 1.346 . S
N152 C156 1.345 . S
C153 C154 1.387 . S
C153 C157 1.391 . S
C154 C153 1.387 . S
C154 C155 1.369 . S
C154 H163 0.929 . S
C155 N152 1.346 . S
C155 C154 1.369 . S
C155 H158 0.928 . S
C156 N152 1.345 . S
C156 C157 1.371 . S
C156 H159 0.931 . S
C157 C153 1.391 . S
C157 C156 1.371 . S
C157 H164 0.930 . S
H158 C155 0.928 . S
H159 C156 0.931 . S
H160 C136 0.930 . S
H161 C133 0.930 . S
H162 C142 0.930 . S
H163 C154 0.929 . S
H164 C157 0.930 . S
C165 C166 1.351 . S
C165 N168 1.368 . S
C165 H170 0.931 . S
C166 C165 1.351 . S
C166 N167 1.373 . S
C166 H194 0.930 . S
N167 C166 1.373 . S
N167 C169 1.340 . S
N168 C165 1.368 . S
N168 C169 1.321 . S
N168 Co171 2.135 . S
C169 N167 1.340 . S
C169 N168 1.321 . S
C169 H193 0.930 . S
H170 C165 0.931 . S
Co171 N168 2.135 . S
Co171 N174 2.121 . S
Co171 O179 2.055 . S
Co171 O182 2.039 . S
Co171 N185 2.140 . S
C172 O173 1.227 . S
C172 O182 1.265 . S
O173 C172 1.227 . S
N174 Co171 2.121 . S
N174 C176 1.375 . S
N174 C177 1.313 . S
C175 C176 1.338 . S
C175 N178 1.377 . S
C175 H195 0.930 . S
C176 N174 1.375 . S
C176 C175 1.338 . S
C176 H180 0.931 . S
C177 N174 1.313 . S
C177 N178 1.344 . S
C177 H181 0.930 . S
N178 C175 1.377 . S
N178 C177 1.344 . S
O179 Co171 2.055 . S
O179 C183 1.253 . S
H180 C176 0.931 . S
H181 C177 0.930 . S
O182 Co171 2.039 . S
O182 C172 1.265 . S
C183 O179 1.253 . S
C183 O184 1.227 . S
O184 C183 1.227 . S
N185 Co171 2.140 . S
N185 C188 1.346 . S
N185 C189 1.345 . S
C186 C187 1.387 . S
C186 C190 1.391 . S
C187 C186 1.387 . S
C187 C188 1.369 . S
C187 H196 0.929 . S
C188 N185 1.346 . S
C188 C187 1.369 . S
C188 H191 0.928 . S
C189 N185 1.345 . S
C189 C190 1.371 . S
C189 H192 0.931 . S
C190 C186 1.391 . S
C190 C189 1.371 . S
C190 H197 0.930 . S
H191 C188 0.928 . S
H192 C189 0.931 . S
H193 C169 0.930 . S
H194 C166 0.930 . S
H195 C175 0.930 . S
H196 C187 0.929 . S
H197 C190 0.930 . S
C198 C199 1.351 . S
C198 N201 1.368 . S
C198 H203 0.931 . S
C199 C198 1.351 . S
C199 N200 1.373 . S
C199 H227 0.930 . S
N200 C199 1.373 . S
N200 C202 1.340 . S
N201 C198 1.368 . S
N201 C202 1.321 . S
N201 Co204 2.135 . S
C202 N200 1.340 . S
C202 N201 1.321 . S
C202 H226 0.930 . S
H203 C198 0.931 . S
Co204 N201 2.135 . S
Co204 N207 2.121 . S
Co204 O212 2.055 . S
Co204 O215 2.039 . S
Co204 N218 2.140 . S
C205 O206 1.227 . S
C205 O215 1.265 . S
O206 C205 1.227 . S
N207 Co204 2.121 . S
N207 C209 1.375 . S
N207 C210 1.313 . S
C208 C209 1.338 . S
C208 N211 1.377 . S
C208 H228 0.930 . S
C209 N207 1.375 . S
C209 C208 1.338 . S
C209 H213 0.931 . S
C210 N207 1.313 . S
C210 N211 1.344 . S
C210 H214 0.930 . S
N211 C208 1.377 . S
N211 C210 1.344 . S
O212 Co204 2.055 . S
O212 C216 1.253 . S
H213 C209 0.931 . S
H214 C210 0.930 . S
O215 Co204 2.039 . S
O215 C205 1.265 . S
C216 O212 1.253 . S
C216 O217 1.227 . S
O217 C216 1.227 . S
N218 Co204 2.140 . S
N218 C221 1.346 . S
N218 C222 1.345 . S
C219 C220 1.387 . S
C219 C223 1.391 . S
C220 C219 1.387 . S
C220 C221 1.369 . S
C220 H229 0.929 . S
C221 N218 1.346 . S
C221 C220 1.369 . S
C221 H224 0.928 . S
C222 N218 1.345 . S
C222 C223 1.371 . S
C222 H225 0.931 . S
C223 C219 1.391 . S
C223 C222 1.371 . S
C223 H230 0.930 . S
H224 C221 0.928 . S
H225 C222 0.931 . S
H226 C202 0.930 . S
H227 C199 0.930 . S
H228 C208 0.930 . S
H229 C220 0.929 . S
H230 C223 0.930 . S
C231 C232 1.351 . S
C231 N234 1.368 . S
C231 H236 0.931 . S
C232 C231 1.351 . S
C232 N233 1.373 . S
C232 H260 0.930 . S
N233 C232 1.373 . S
N233 C235 1.340 . S
N234 C231 1.368 . S
N234 C235 1.321 . S
N234 Co237 2.135 . S
C235 N233 1.340 . S
C235 N234 1.321 . S
C235 H259 0.930 . S
H236 C231 0.931 . S
Co237 N234 2.135 . S
Co237 N240 2.121 . S
Co237 O245 2.055 . S
Co237 O248 2.039 . S
Co237 N251 2.140 . S
C238 O239 1.227 . S
C238 O248 1.265 . S
O239 C238 1.227 . S
N240 Co237 2.121 . S
N240 C242 1.375 . S
N240 C243 1.313 . S
C241 C242 1.338 . S
C241 N244 1.377 . S
C241 H261 0.930 . S
C242 N240 1.375 . S
C242 C241 1.338 . S
C242 H246 0.931 . S
C243 N240 1.313 . S
C243 N244 1.344 . S
C243 H247 0.930 . S
N244 C241 1.377 . S
N244 C243 1.344 . S
O245 Co237 2.055 . S
O245 C249 1.253 . S
H246 C242 0.931 . S
H247 C243 0.930 . S
O248 Co237 2.039 . S
O248 C238 1.265 . S
C249 O245 1.253 . S
C249 O250 1.227 . S
O250 C249 1.227 . S
N251 Co237 2.140 . S
N251 C254 1.346 . S
N251 C255 1.345 . S
C252 C253 1.387 . S
C252 C256 1.391 . S
C253 C252 1.387 . S
C253 C254 1.369 . S
C253 H262 0.929 . S
C254 N251 1.346 . S
C254 C253 1.369 . S
C254 H257 0.928 . S
C255 N251 1.345 . S
C255 C256 1.371 . S
C255 H258 0.931 . S
C256 C252 1.391 . S
C256 C255 1.371 . S
C256 H263 0.930 . S
H257 C254 0.928 . S
H258 C255 0.931 . S
H259 C235 0.930 . S
H260 C232 0.930 . S
H261 C241 0.930 . S
H262 C253 0.929 . S
H263 C256 0.930 . S
C264 C265 1.351 . S
C264 N267 1.368 . S
C264 H269 0.931 . S
C265 C264 1.351 . S
C265 N266 1.373 . S
C265 H293 0.930 . S
N266 C265 1.373 . S
N266 C268 1.340 . S
N267 C264 1.368 . S
N267 C268 1.321 . S
N267 Co270 2.135 . S
C268 N266 1.340 . S
C268 N267 1.321 . S
C268 H292 0.930 . S
H269 C264 0.931 . S
Co270 N267 2.135 . S
Co270 N273 2.121 . S
Co270 O278 2.055 . S
Co270 O281 2.039 . S
Co270 N284 2.140 . S
C271 O272 1.227 . S
C271 O281 1.265 . S
O272 C271 1.227 . S
N273 Co270 2.121 . S
N273 C275 1.375 . S
N273 C276 1.313 . S
C274 C275 1.338 . S
C274 N277 1.377 . S
C274 H294 0.930 . S
C275 N273 1.375 . S
C275 C274 1.338 . S
C275 H279 0.931 . S
C276 N273 1.313 . S
C276 N277 1.344 . S
C276 H280 0.930 . S
N277 C274 1.377 . S
N277 C276 1.344 . S
O278 Co270 2.055 . S
O278 C282 1.253 . S
H279 C275 0.931 . S
H280 C276 0.930 . S
O281 Co270 2.039 . S
O281 C271 1.265 . S
C282 O278 1.253 . S
C282 O283 1.227 . S
O283 C282 1.227 . S
N284 Co270 2.140 . S
N284 C287 1.346 . S
N284 C288 1.345 . S
C285 C286 1.387 . S
C285 C289 1.391 . S
C286 C285 1.387 . S
C286 C287 1.369 . S
C286 H295 0.929 . S
C287 N284 1.346 . S
C287 C286 1.369 . S
C287 H290 0.928 . S
C288 N284 1.345 . S
C288 C289 1.371 . S
C288 H291 0.931 . S
C289 C285 1.391 . S
C289 C288 1.371 . S
C289 H296 0.930 . S
H290 C287 0.928 . S
H291 C288 0.931 . S
H292 C268 0.930 . S
H293 C265 0.930 . S
H294 C274 0.930 . S
H295 C286 0.929 . S
H296 C289 0.930 . S
C297 C298 1.351 . S
C297 N300 1.368 . S
C297 H302 0.931 . S
C298 C297 1.351 . S
C298 N299 1.373 . S
C298 H326 0.930 . S
N299 C298 1.373 . S
N299 C301 1.340 . S
N300 C297 1.368 . S
N300 C301 1.321 . S
N300 Co303 2.135 . S
C301 N299 1.340 . S
C301 N300 1.321 . S
C301 H325 0.930 . S
H302 C297 0.931 . S
Co303 N300 2.135 . S
Co303 N306 2.121 . S
Co303 O311 2.055 . S
Co303 O314 2.039 . S
Co303 N317 2.140 . S
C304 O305 1.227 . S
C304 O314 1.265 . S
O305 C304 1.227 . S
N306 Co303 2.121 . S
N306 C308 1.375 . S
N306 C309 1.313 . S
C307 C308 1.338 . S
C307 N310 1.377 . S
C307 H327 0.930 . S
C308 N306 1.375 . S
C308 C307 1.338 . S
C308 H312 0.931 . S
C309 N306 1.313 . S
C309 N310 1.344 . S
C309 H313 0.930 . S
N310 C307 1.377 . S
N310 C309 1.344 . S
O311 Co303 2.055 . S
O311 C315 1.253 . S
H312 C308 0.931 . S
H313 C309 0.930 . S
O314 Co303 2.039 . S
O314 C304 1.265 . S
C315 O311 1.253 . S
C315 O316 1.227 . S
O316 C315 1.227 . S
N317 Co303 2.140 . S
N317 C320 1.346 . S
N317 C321 1.345 . S
C318 C319 1.387 . S
C318 C322 1.391 . S
C319 C318 1.387 . S
C319 C320 1.369 . S
C319 H328 0.929 . S
C320 N317 1.346 . S
C320 C319 1.369 . S
C320 H323 0.928 . S
C321 N317 1.345 . S
C321 C322 1.371 . S
C321 H324 0.931 . S
C322 C318 1.391 . S
C322 C321 1.371 . S
C322 H329 0.930 . S
H323 C320 0.928 . S
H324 C321 0.931 . S
H325 C301 0.930 . S
H326 C298 0.930 . S
H327 C307 0.930 . S
H328 C319 0.929 . S
H329 C322 0.930 . S
C330 C331 1.351 . S
C330 N333 1.368 . S
C330 H335 0.931 . S
C331 C330 1.351 . S
C331 N332 1.373 . S
C331 H359 0.930 . S
N332 C331 1.373 . S
N332 C334 1.340 . S
N333 C330 1.368 . S
N333 C334 1.321 . S
N333 Co336 2.135 . S
C334 N332 1.340 . S
C334 N333 1.321 . S
C334 H358 0.930 . S
H335 C330 0.931 . S
Co336 N333 2.135 . S
Co336 N339 2.121 . S
Co336 O344 2.055 . S
Co336 O347 2.039 . S
Co336 N350 2.140 . S
C337 O338 1.227 . S
C337 O347 1.265 . S
O338 C337 1.227 . S
N339 Co336 2.121 . S
N339 C341 1.375 . S
N339 C342 1.313 . S
C340 C341 1.338 . S
C340 N343 1.377 . S
C340 H360 0.930 . S
C341 N339 1.375 . S
C341 C340 1.338 . S
C341 H345 0.931 . S
C342 N339 1.313 . S
C342 N343 1.344 . S
C342 H346 0.930 . S
N343 C340 1.377 . S
N343 C342 1.344 . S
O344 Co336 2.055 . S
O344 C348 1.253 . S
H345 C341 0.931 . S
H346 C342 0.930 . S
O347 Co336 2.039 . S
O347 C337 1.265 . S
C348 O344 1.253 . S
C348 O349 1.227 . S
O349 C348 1.227 . S
N350 Co336 2.140 . S
N350 C353 1.346 . S
N350 C354 1.345 . S
C351 C352 1.387 . S
C351 C355 1.391 . S
C352 C351 1.387 . S
C352 C353 1.369 . S
C352 H361 0.929 . S
C353 N350 1.346 . S
C353 C352 1.369 . S
C353 H356 0.928 . S
C354 N350 1.345 . S
C354 C355 1.371 . S
C354 H357 0.931 . S
C355 C351 1.391 . S
C355 C354 1.371 . S
C355 H362 0.930 . S
H356 C353 0.928 . S
H357 C354 0.931 . S
H358 C334 0.930 . S
H359 C331 0.930 . S
H360 C340 0.930 . S
H361 C352 0.929 . S
H362 C355 0.930 . S
C363 C364 1.351 . S
C363 N366 1.368 . S
C363 H368 0.931 . S
C364 C363 1.351 . S
C364 N365 1.373 . S
C364 H392 0.930 . S
N365 C364 1.373 . S
N365 C367 1.340 . S
N366 C363 1.368 . S
N366 C367 1.321 . S
N366 Co369 2.135 . S
C367 N365 1.340 . S
C367 N366 1.321 . S
C367 H391 0.930 . S
H368 C363 0.931 . S
Co369 N366 2.135 . S
Co369 N372 2.121 . S
Co369 O377 2.055 . S
Co369 O380 2.039 . S
Co369 N383 2.140 . S
C370 O371 1.227 . S
C370 O380 1.265 . S
O371 C370 1.227 . S
N372 Co369 2.121 . S
N372 C374 1.375 . S
N372 C375 1.313 . S
C373 C374 1.338 . S
C373 N376 1.377 . S
C373 H393 0.930 . S
C374 N372 1.375 . S
C374 C373 1.338 . S
C374 H378 0.931 . S
C375 N372 1.313 . S
C375 N376 1.344 . S
C375 H379 0.930 . S
N376 C373 1.377 . S
N376 C375 1.344 . S
O377 Co369 2.055 . S
O377 C381 1.253 . S
H378 C374 0.931 . S
H379 C375 0.930 . S
O380 Co369 2.039 . S
O380 C370 1.265 . S
C381 O377 1.253 . S
C381 O382 1.227 . S
O382 C381 1.227 . S
N383 Co369 2.140 . S
N383 C386 1.346 . S
N383 C387 1.345 . S
C384 C385 1.387 . S
C384 C388 1.391 . S
C385 C384 1.387 . S
C385 C386 1.369 . S
C385 H394 0.929 . S
C386 N383 1.346 . S
C386 C385 1.369 . S
C386 H389 0.928 . S
C387 N383 1.345 . S
C387 C388 1.371 . S
C387 H390 0.931 . S
C388 C384 1.391 . S
C388 C387 1.371 . S
C388 H395 0.930 . S
H389 C386 0.928 . S
H390 C387 0.931 . S
H391 C367 0.930 . S
H392 C364 0.930 . S
H393 C373 0.930 . S
H394 C385 0.929 . S
H395 C388 0.930 . S
C396 C397 1.351 . S
C396 N399 1.368 . S
C396 H401 0.931 . S
C397 C396 1.351 . S
C397 N398 1.373 . S
C397 H425 0.930 . S
N398 C397 1.373 . S
N398 C400 1.340 . S
N399 C396 1.368 . S
N399 C400 1.321 . S
N399 Co402 2.135 . S
C400 N398 1.340 . S
C400 N399 1.321 . S
C400 H424 0.930 . S
H401 C396 0.931 . S
Co402 N399 2.135 . S
Co402 N405 2.121 1_556 S
Co402 O410 2.055 . S
Co402 O413 2.039 1_556 S
Co402 N416 2.140 . S
C403 O404 1.227 . S
C403 O413 1.265 . S
O404 C403 1.227 . S
N405 Co402 2.121 1_554 S
N405 C407 1.375 . S
N405 C408 1.313 . S
C406 C407 1.338 . S
C406 N409 1.377 . S
C406 H426 0.930 . S
C407 N405 1.375 . S
C407 C406 1.338 . S
C407 H411 0.931 . S
C408 N405 1.313 . S
C408 N409 1.344 . S
C408 H412 0.930 . S
N409 C406 1.377 . S
N409 C408 1.344 . S
O410 Co402 2.055 . S
O410 C414 1.253 . S
H411 C407 0.931 . S
H412 C408 0.930 . S
O413 Co402 2.039 1_554 S
O413 C403 1.265 . S
C414 O410 1.253 . S
C414 O415 1.227 . S
O415 C414 1.227 . S
N416 Co402 2.140 . S
N416 C419 1.346 . S
N416 C420 1.345 1_556 S
C417 C418 1.385 1_554 S
C417 C421 1.393 . S
C418 C417 1.385 1_556 S
C418 C419 1.369 . S
C418 H427 0.929 . S
C419 N416 1.346 . S
C419 C418 1.369 . S
C419 H422 0.928 . S
C420 N416 1.345 1_554 S
C420 C421 1.371 . S
C420 H423 0.931 . S
C421 C417 1.393 . S
C421 C420 1.371 . S
C421 H428 0.930 . S
H422 C419 0.928 . S
H423 C420 0.931 . S
H424 C400 0.930 . S
H425 C397 0.930 . S
H426 C406 0.930 . S
H427 C418 0.929 . S
H428 C421 0.930 . S
C429 C430 1.351 . S
C429 N432 1.368 . S
C429 H434 0.931 . S
C430 C429 1.351 . S
C430 N431 1.373 . S
C430 H458 0.930 . S
N431 C430 1.373 . S
N431 C433 1.340 . S
N432 C429 1.368 . S
N432 C433 1.321 . S
N432 Co435 2.135 . S
C433 N431 1.340 . S
C433 N432 1.321 . S
C433 H457 0.930 . S
H434 C429 0.931 . S
Co435 N432 2.135 . S
Co435 N438 2.121 1_556 S
Co435 O443 2.055 . S
Co435 O446 2.039 1_556 S
Co435 N449 2.140 . S
C436 O437 1.227 . S
C436 O446 1.265 . S
O437 C436 1.227 . S
N438 Co435 2.121 1_554 S
N438 C440 1.375 . S
N438 C441 1.313 . S
C439 C440 1.338 . S
C439 N442 1.377 . S
C439 H459 0.930 . S
C440 N438 1.375 . S
C440 C439 1.338 . S
C440 H444 0.931 . S
C441 N438 1.313 . S
C441 N442 1.344 . S
C441 H445 0.930 . S
N442 C439 1.377 . S
N442 C441 1.344 . S
O443 Co435 2.055 . S
O443 C447 1.253 . S
H444 C440 0.931 . S
H445 C441 0.930 . S
O446 Co435 2.039 1_554 S
O446 C436 1.265 . S
C447 O443 1.253 . S
C447 O448 1.227 . S
O448 C447 1.227 . S
N449 Co435 2.140 . S
N449 C452 1.346 . S
N449 C453 1.345 1_556 S
C450 C451 1.385 1_554 S
C450 C454 1.393 . S
C451 C450 1.385 1_556 S
C451 C452 1.369 . S
C451 H460 0.929 . S
C452 N449 1.346 . S
C452 C451 1.369 . S
C452 H455 0.928 . S
C453 N449 1.345 1_554 S
C453 C454 1.371 . S
C453 H456 0.931 . S
C454 C450 1.393 . S
C454 C453 1.371 . S
C454 H461 0.930 . S
H455 C452 0.928 . S
H456 C453 0.931 . S
H457 C433 0.930 . S
H458 C430 0.930 . S
H459 C439 0.930 . S
H460 C451 0.929 . S
H461 C454 0.930 . S
C462 C463 1.351 . S
C462 N465 1.368 . S
C462 H467 0.931 . S
C463 C462 1.351 . S
C463 N464 1.373 . S
C463 H491 0.930 . S
N464 C463 1.373 . S
N464 C466 1.340 . S
N465 C462 1.368 . S
N465 C466 1.321 . S
N465 Co468 2.135 . S
C466 N464 1.340 . S
C466 N465 1.321 . S
C466 H490 0.930 . S
H467 C462 0.931 . S
Co468 N465 2.135 . S
Co468 N471 2.121 1_556 S
Co468 O476 2.055 . S
Co468 O479 2.039 1_556 S
Co468 N482 2.140 . S
C469 O470 1.227 . S
C469 O479 1.265 . S
O470 C469 1.227 . S
N471 Co468 2.121 1_554 S
N471 C473 1.375 . S
N471 C474 1.313 . S
C472 C473 1.338 . S
C472 N475 1.377 . S
C472 H492 0.930 . S
C473 N471 1.375 . S
C473 C472 1.338 . S
C473 H477 0.931 . S
C474 N471 1.313 . S
C474 N475 1.344 . S
C474 H478 0.930 . S
N475 C472 1.377 . S
N475 C474 1.344 . S
O476 Co468 2.055 . S
O476 C480 1.253 . S
H477 C473 0.931 . S
H478 C474 0.930 . S
O479 Co468 2.039 1_554 S
O479 C469 1.265 . S
C480 O476 1.253 . S
C480 O481 1.227 . S
O481 C480 1.227 . S
N482 Co468 2.140 . S
N482 C485 1.346 . S
N482 C486 1.345 1_556 S
C483 C484 1.385 1_554 S
C483 C487 1.393 . S
C484 C483 1.385 1_556 S
C484 C485 1.369 . S
C484 H493 0.929 . S
C485 N482 1.346 . S
C485 C484 1.369 . S
C485 H488 0.928 . S
C486 N482 1.345 1_554 S
C486 C487 1.371 . S
C486 H489 0.931 . S
C487 C483 1.393 . S
C487 C486 1.371 . S
C487 H494 0.930 . S
H488 C485 0.928 . S
H489 C486 0.931 . S
H490 C466 0.930 . S
H491 C463 0.930 . S
H492 C472 0.930 . S
H493 C484 0.929 . S
H494 C487 0.930 . S
C495 C496 1.351 . S
C495 N498 1.368 . S
C495 H500 0.931 . S
C496 C495 1.351 . S
C496 N497 1.373 . S
C496 H524 0.930 . S
N497 C496 1.373 . S
N497 C499 1.340 . S
N498 C495 1.368 . S
N498 C499 1.321 . S
N498 Co501 2.135 . S
C499 N497 1.340 . S
C499 N498 1.321 . S
C499 H523 0.930 . S
H500 C495 0.931 . S
Co501 N498 2.135 . S
Co501 N504 2.121 1_556 S
Co501 O509 2.055 . S
Co501 O512 2.039 1_556 S
Co501 N515 2.140 . S
C502 O503 1.227 . S
C502 O512 1.265 . S
O503 C502 1.227 . S
N504 Co501 2.121 1_554 S
N504 C506 1.375 . S
N504 C507 1.313 . S
C505 C506 1.338 . S
C505 N508 1.377 . S
C505 H525 0.930 . S
C506 N504 1.375 . S
C506 C505 1.338 . S
C506 H510 0.931 . S
C507 N504 1.313 . S
C507 N508 1.344 . S
C507 H511 0.930 . S
N508 C505 1.377 . S
N508 C507 1.344 . S
O509 Co501 2.055 . S
O509 C513 1.253 . S
H510 C506 0.931 . S
H511 C507 0.930 . S
O512 Co501 2.039 1_554 S
O512 C502 1.265 . S
C513 O509 1.253 . S
C513 O514 1.227 . S
O514 C513 1.227 . S
N515 Co501 2.140 . S
N515 C518 1.346 . S
N515 C519 1.345 1_556 S
C516 C517 1.385 1_554 S
C516 C520 1.393 . S
C517 C516 1.385 1_556 S
C517 C518 1.369 . S
C517 H526 0.929 . S
C518 N515 1.346 . S
C518 C517 1.369 . S
C518 H521 0.928 . S
C519 N515 1.345 1_554 S
C519 C520 1.371 . S
C519 H522 0.931 . S
C520 C516 1.393 . S
C520 C519 1.371 . S
C520 H527 0.930 . S
H521 C518 0.928 . S
H522 C519 0.931 . S
H523 C499 0.930 . S
H524 C496 0.930 . S
H525 C505 0.930 . S
H526 C517 0.929 . S
H527 C520 0.930 . S
H528 C546 0.951 . S
H529 C548 0.951 . S
H530 C550 0.950 . S
H531 C551 0.950 . S
H532 C553 0.950 . S
H533 C556 0.950 . S
H534 C557 0.950 . S
H535 C559 0.950 . S
H536 C560 0.950 . S
H537 C561 0.951 . S
H538 C563 0.951 . S
H539 C565 0.950 . S
H540 C566 0.950 . S
H541 C568 0.950 . S
H542 C571 0.950 . S
H543 C572 0.950 . S
H544 C574 0.950 . S
H545 C575 0.950 . S
C546 H528 0.951 . S
C546 C547 1.362 1_554 S
C546 C548 1.388 . S
C547 C546 1.362 1_556 S
C547 C551 1.388 . S
C548 H529 0.951 . S
C548 C546 1.388 . S
C548 C549 1.366 . S
C549 C548 1.366 . S
C549 C550 1.414 1_554 S
C549 C552 1.499 . S
C550 H530 0.950 . S
C550 C549 1.414 1_556 S
C550 C551 1.374 . S
C551 H531 0.950 . S
C551 C547 1.388 . S
C551 C550 1.374 . S
C552 C549 1.499 . S
C552 C553 1.373 1_554 S
C552 C554 1.389 . S
C553 H532 0.950 . S
C553 C552 1.373 1_556 S
C553 C569 1.377 . S
C554 C552 1.389 . S
C554 C555 1.524 . S
C554 C568 1.377 . S
C555 C554 1.524 . S
C555 C556 1.397 . S
C555 C560 1.363 . S
C556 H533 0.950 . S
C556 C555 1.397 . S
C556 C557 1.334 . S
C557 H534 0.950 . S
C557 C556 1.334 . S
C557 C558 1.287 . S
C558 C557 1.287 . S
C558 C559 1.524 . S
C558 H577 0.913 . S
C559 H535 0.950 . S
C559 C558 1.524 . S
C559 C560 1.415 . S
C560 H536 0.950 . S
C560 C555 1.363 . S
C560 C559 1.415 . S
C561 H537 0.951 . S
C561 C562 1.356 1_556 S
C561 C563 1.388 . S
C562 C561 1.356 1_554 S
C562 C566 1.394 . S
C563 H538 0.951 . S
C563 C561 1.388 . S
C563 C564 1.366 . S
C564 C563 1.366 . S
C564 C565 1.414 1_556 S
C564 C567 1.499 . S
C565 H539 0.950 . S
C565 C564 1.414 1_554 S
C565 C566 1.374 . S
C566 H540 0.950 . S
C566 C562 1.394 . S
C566 C565 1.374 . S
C567 C564 1.499 . S
C567 C568 1.373 1_556 S
C567 C569 1.389 . S
C568 H541 0.950 . S
C568 C554 1.377 . S
C568 C567 1.373 1_554 S
C569 C553 1.377 . S
C569 C567 1.389 . S
C569 C570 1.524 . S
C570 C569 1.524 . S
C570 C571 1.397 . S
C570 C575 1.363 . S
C571 H542 0.950 . S
C571 C570 1.397 . S
C571 C572 1.334 . S
C572 H543 0.950 . S
C572 C571 1.334 . S
C572 C573 1.287 . S
C573 C572 1.287 . S
C573 C574 1.524 . S
C573 H576 0.999 . S
C574 H544 0.950 . S
C574 C573 1.524 . S
C574 C575 1.415 . S
C575 H545 0.950 . S
C575 C570 1.363 . S
C575 C574 1.415 . S
H576 C573 0.999 . S
H577 C558 0.913 . S
H578 C596 0.951 . S
H579 C598 0.951 . S
H580 C600 0.950 . S
H581 C601 0.950 . S
H582 C603 0.950 . S
H583 C606 0.950 . S
H584 C607 0.950 . S
H585 C609 0.950 1_554 S
H586 C610 0.959 . S
H587 C611 0.951 . S
H588 C613 0.951 . S
H589 C615 0.950 . S
H590 C616 0.950 . S
H591 C618 0.950 . S
H592 C621 0.950 . S
H593 C622 0.950 . S
H594 C624 0.950 1_556 S
H595 C625 0.949 . S
C596 H578 0.951 . S
C596 C597 1.377 . S
C596 C598 1.388 . S
C597 C596 1.377 . S
C597 C601 1.373 1_554 S
C598 H579 0.951 . S
C598 C596 1.388 . S
C598 C599 1.366 1_554 S
C599 C598 1.366 1_556 S
C599 C600 1.414 . S
C599 C602 1.499 . S
C600 H580 0.950 . S
C600 C599 1.414 . S
C600 C601 1.374 . S
C601 H581 0.950 . S
C601 C597 1.373 1_556 S
C601 C600 1.374 . S
C602 C599 1.499 . S
C602 C603 1.373 1_556 S
C602 C604 1.389 . S
C603 H582 0.950 . S
C603 C602 1.373 1_554 S
C603 C619 1.377 . S
C604 C602 1.389 . S
C604 C605 1.524 . S
C604 C618 1.377 . S
C605 C604 1.524 . S
C605 C606 1.397 . S
C605 C610 1.358 1_556 S
C606 H583 0.950 . S
C606 C605 1.397 . S
C606 C607 1.334 . S
C607 H584 0.950 . S
C607 C606 1.334 . S
C607 C608 1.287 . S
C608 C607 1.287 . S
C608 C609 1.524 . S
C608 H627 0.913 . S
C609 H585 0.950 1_556 S
C609 C608 1.524 . S
C609 C610 1.412 1_556 S
C610 H586 0.959 . S
C610 C605 1.358 1_554 S
C610 C609 1.412 1_554 S
C611 H587 0.951 . S
C611 C612 1.370 . S
C611 C613 1.388 . S
C612 C611 1.370 . S
C612 C616 1.381 1_556 S
C613 H588 0.951 . S
C613 C611 1.388 . S
C613 C614 1.366 1_556 S
C614 C613 1.366 1_554 S
C614 C615 1.414 . S
C614 C617 1.499 . S
C615 H589 0.950 . S
C615 C614 1.414 . S
C615 C616 1.374 . S
C616 H590 0.950 . S
C616 C612 1.381 1_554 S
C616 C615 1.374 . S
C617 C614 1.499 . S
C617 C618 1.373 1_554 S
C617 C619 1.389 . S
C618 H591 0.950 . S
C618 C604 1.377 . S
C618 C617 1.373 1_556 S
C619 C603 1.377 . S
C619 C617 1.389 . S
C619 C620 1.524 . S
C620 C619 1.524 . S
C620 C621 1.397 . S
C620 C625 1.364 1_554 S
C621 H592 0.950 . S
C621 C620 1.397 . S
C621 C622 1.334 . S
C622 H593 0.950 . S
C622 C621 1.334 . S
C622 C623 1.287 . S
C623 C622 1.287 . S
C623 C624 1.524 . S
C623 H626 0.999 . S
C624 H594 0.950 1_554 S
C624 C623 1.524 . S
C624 C625 1.416 1_554 S
C625 H595 0.949 . S
C625 C620 1.364 1_556 S
C625 C624 1.416 1_556 S
H626 C623 0.999 . S
H627 C608 0.913 . S
H628 C646 0.951 . S
H629 C648 0.951 . S
H630 C650 0.950 . S
H631 C651 0.950 . S
H632 C653 0.950 . S
H633 C656 0.950 . S
H634 C657 0.950 . S
H635 C659 0.950 . S
H636 C660 0.950 . S
H637 C661 0.951 . S
H638 C663 0.951 . S
H639 C665 0.950 . S
H640 C666 0.950 . S
H641 C668 0.950 . S
H642 C671 0.950 . S
H643 C672 0.950 . S
H644 C674 0.950 . S
H645 C675 0.950 . S
C646 H628 0.951 . S
C646 C647 1.362 1_556 S
C646 C648 1.388 . S
C647 C646 1.362 1_554 S
C647 C651 1.389 . S
C648 H629 0.951 . S
C648 C646 1.388 . S
C648 C649 1.366 1_556 S
C649 C648 1.366 1_554 S
C649 C650 1.414 . S
C649 C652 1.499 . S
C650 H630 0.950 . S
C650 C649 1.414 . S
C650 C651 1.374 . S
C651 H631 0.950 . S
C651 C647 1.389 . S
C651 C650 1.374 . S
C652 C649 1.499 . S
C652 C653 1.373 1_554 S
C652 C654 1.389 . S
C653 H632 0.950 . S
C653 C652 1.373 1_556 S
C653 C669 1.377 . S
C654 C652 1.389 . S
C654 C655 1.524 . S
C654 C668 1.377 . S
C655 C654 1.524 . S
C655 C656 1.397 . S
C655 C660 1.363 . S
C656 H633 0.950 . S
C656 C655 1.397 . S
C656 C657 1.334 . S
C657 H634 0.950 . S
C657 C656 1.334 . S
C657 C658 1.287 . S
C658 C657 1.287 . S
C658 C659 1.524 . S
C658 H677 0.913 . S
C659 H635 0.950 . S
C659 C658 1.524 . S
C659 C660 1.415 . S
C660 H636 0.950 . S
C660 C655 1.363 . S
C660 C659 1.415 . S
C661 H637 0.951 . S
C661 C662 1.365 1_554 S
C661 C663 1.388 . S
C662 C661 1.365 1_556 S
C662 C666 1.386 . S
C663 H638 0.951 . S
C663 C661 1.388 . S
C663 C664 1.366 1_554 S
C664 C663 1.366 1_556 S
C664 C665 1.414 . S
C664 C667 1.499 . S
C665 H639 0.950 . S
C665 C664 1.414 . S
C665 C666 1.374 . S
C666 H640 0.950 . S
C666 C662 1.386 . S
C666 C665 1.374 . S
C667 C664 1.499 . S
C667 C668 1.373 1_556 S
C667 C669 1.389 . S
C668 H641 0.950 . S
C668 C654 1.377 . S
C668 C667 1.373 1_554 S
C669 C653 1.377 . S
C669 C667 1.389 . S
C669 C670 1.524 . S
C670 C669 1.524 . S
C670 C671 1.397 . S
C670 C675 1.363 . S
C671 H642 0.950 . S
C671 C670 1.397 . S
C671 C672 1.334 . S
C672 H643 0.950 . S
C672 C671 1.334 . S
C672 C673 1.287 . S
C673 C672 1.287 . S
C673 C674 1.524 . S
C673 H676 0.999 . S
C674 H644 0.950 . S
C674 C673 1.524 . S
C674 C675 1.415 . S
C675 H645 0.950 . S
C675 C670 1.363 . S
C675 C674 1.415 . S
H676 C673 0.999 . S
H677 C658 0.913 . S
H678 C696 0.951 . S
H679 C698 0.951 . S
H680 C700 0.950 . S
H681 C701 0.950 . S
H682 C703 0.950 . S
H683 C706 0.950 . S
H684 C707 0.950 . S
H685 C709 0.950 . S
H686 C710 0.950 . S
H687 C711 0.951 . S
H688 C713 0.951 . S
H689 C715 0.950 . S
H690 C716 0.950 . S
H691 C718 0.950 . S
H692 C721 0.950 . S
H693 C722 0.950 . S
H694 C724 0.950 . S
H695 C725 0.950 . S
C696 H678 0.951 . S
C696 C697 1.365 1_556 S
C696 C698 1.388 . S
C697 C696 1.365 1_554 S
C697 C701 1.386 . S
C698 H679 0.951 . S
C698 C696 1.388 . S
C698 C699 1.366 1_556 S
C699 C698 1.366 1_554 S
C699 C700 1.414 . S
C699 C702 1.499 . S
C700 H680 0.950 . S
C700 C699 1.414 . S
C700 C701 1.374 . S
C701 H681 0.950 . S
C701 C697 1.386 . S
C701 C700 1.374 . S
C702 C699 1.499 . S
C702 C703 1.373 1_554 S
C702 C704 1.389 . S
C703 H682 0.950 . S
C703 C702 1.373 1_556 S
C703 C719 1.377 . S
C704 C702 1.389 . S
C704 C705 1.524 . S
C704 C718 1.377 . S
C705 C704 1.524 . S
C705 C706 1.397 . S
C705 C710 1.363 . S
C706 H683 0.950 . S
C706 C705 1.397 . S
C706 C707 1.334 . S
C707 H684 0.950 . S
C707 C706 1.334 . S
C707 C708 1.287 . S
C708 C707 1.287 . S
C708 C709 1.524 . S
C708 H727 0.913 . S
C709 H685 0.950 . S
C709 C708 1.524 . S
C709 C710 1.415 . S
C710 H686 0.950 . S
C710 C705 1.363 . S
C710 C709 1.415 . S
C711 H687 0.951 . S
C711 C712 1.366 1_554 S
C711 C713 1.388 . S
C712 C711 1.366 1_556 S
C712 C716 1.385 . S
C713 H688 0.951 . S
C713 C711 1.388 . S
C713 C714 1.366 1_554 S
C714 C713 1.366 1_556 S
C714 C715 1.414 . S
C714 C717 1.499 . S
C715 H689 0.950 . S
C715 C714 1.414 . S
C715 C716 1.374 . S
C716 H690 0.950 . S
C716 C712 1.385 . S
C716 C715 1.374 . S
C717 C714 1.499 . S
C717 C718 1.373 1_556 S
C717 C719 1.389 . S
C718 H691 0.950 . S
C718 C704 1.377 . S
C718 C717 1.373 1_554 S
C719 C703 1.377 . S
C719 C717 1.389 . S
C719 C720 1.524 . S
C720 C719 1.524 . S
C720 C721 1.397 . S
C720 C725 1.363 . S
C721 H692 0.950 . S
C721 C720 1.397 . S
C721 C722 1.334 . S
C722 H693 0.950 . S
C722 C721 1.334 . S
C722 C723 1.287 . S
C723 C722 1.287 . S
C723 C724 1.524 . S
C723 H726 0.999 . S
C724 H694 0.950 . S
C724 C723 1.524 . S
C724 C725 1.415 . S
C725 H695 0.950 . S
C725 C720 1.363 . S
C725 C724 1.415 . S
H726 C723 0.999 . S
H727 C708 0.913 . S
H728 C746 0.951 . S
H729 C748 0.951 . S
H730 C750 0.950 . S
H731 C751 0.950 . S
H732 C753 0.950 . S
H733 C756 0.950 . S
H734 C757 0.950 . S
H735 C759 0.950 . S
H736 C760 0.950 . S
H737 C761 0.951 . S
H738 C763 0.951 . S
H739 C765 0.950 . S
H740 C766 0.950 . S
H741 C768 0.950 . S
H742 C771 0.950 . S
H743 C772 0.950 . S
H744 C774 0.950 . S
H745 C775 0.950 . S
C746 H728 0.951 . S
C746 C747 1.366 . S
C746 C748 1.388 . S
C747 C746 1.366 . S
C747 C751 1.385 . S
C748 H729 0.951 . S
C748 C746 1.388 . S
C748 C749 1.366 . S
C749 C748 1.366 . S
C749 C750 1.414 . S
C749 C752 1.499 . S
C750 H730 0.950 . S
C750 C749 1.414 . S
C750 C751 1.374 . S
C751 H731 0.950 . S
C751 C747 1.385 . S
C751 C750 1.374 . S
C752 C749 1.499 . S
C752 C753 1.373 . S
C752 C754 1.389 . S
C753 H732 0.950 . S
C753 C752 1.373 . S
C753 C769 1.377 . S
C754 C752 1.389 . S
C754 C755 1.524 . S
C754 C768 1.377 . S
C755 C754 1.524 . S
C755 C756 1.397 . S
C755 C760 1.363 . S
C756 H733 0.950 . S
C756 C755 1.397 . S
C756 C757 1.334 . S
C757 H734 0.950 . S
C757 C756 1.334 . S
C757 C758 1.287 . S
C758 C757 1.287 . S
C758 C759 1.524 . S
C758 H777 0.913 . S
C759 H735 0.950 . S
C759 C758 1.524 . S
C759 C760 1.415 . S
C760 H736 0.950 . S
C760 C755 1.363 . S
C760 C759 1.415 . S
C761 H737 0.951 . S
C761 C762 1.366 . S
C761 C763 1.388 . S
C762 C761 1.366 . S
C762 C766 1.385 . S
C763 H738 0.951 . S
C763 C761 1.388 . S
C763 C764 1.366 . S
C764 C763 1.366 . S
C764 C765 1.414 . S
C764 C767 1.499 . S
C765 H739 0.950 . S
C765 C764 1.414 . S
C765 C766 1.374 . S
C766 H740 0.950 . S
C766 C762 1.385 . S
C766 C765 1.374 . S
C767 C764 1.499 . S
C767 C768 1.373 . S
C767 C769 1.389 . S
C768 H741 0.950 . S
C768 C754 1.377 . S
C768 C767 1.373 . S
C769 C753 1.377 . S
C769 C767 1.389 . S
C769 C770 1.524 . S
C770 C769 1.524 . S
C770 C771 1.397 . S
C770 C775 1.363 . S
C771 H742 0.950 . S
C771 C770 1.397 . S
C771 C772 1.334 . S
C772 H743 0.950 . S
C772 C771 1.334 . S
C772 C773 1.287 . S
C773 C772 1.287 . S
C773 C774 1.524 . S
C773 H776 0.999 . S
C774 H744 0.950 . S
C774 C773 1.524 . S
C774 C775 1.415 . S
C775 H745 0.950 . S
C775 C770 1.363 . S
C775 C774 1.415 . S
H776 C773 0.999 . S
H777 C758 0.913 . S
H778 C796 0.951 . S
H779 C798 0.951 . S
H780 C800 0.950 . S
H781 C801 0.950 . S
H782 C803 0.950 . S
H783 C806 0.950 . S
H784 C807 0.950 . S
H785 C809 0.950 . S
H786 C810 0.950 . S
H787 C811 0.951 . S
H788 C813 0.951 . S
H789 C815 0.950 . S
H790 C816 0.950 . S
H791 C818 0.950 . S
H792 C821 0.950 . S
H793 C822 0.950 . S
H794 C824 0.950 . S
H795 C825 0.950 . S
C796 H778 0.951 . S
C796 C797 1.366 . S
C796 C798 1.388 . S
C797 C796 1.366 . S
C797 C801 1.385 . S
C798 H779 0.951 . S
C798 C796 1.388 . S
C798 C799 1.366 . S
C799 C798 1.366 . S
C799 C800 1.414 . S
C799 C802 1.499 . S
C800 H780 0.950 . S
C800 C799 1.414 . S
C800 C801 1.374 . S
C801 H781 0.950 . S
C801 C797 1.385 . S
C801 C800 1.374 . S
C802 C799 1.499 . S
C802 C803 1.373 . S
C802 C804 1.389 . S
C803 H782 0.950 . S
C803 C802 1.373 . S
C803 C819 1.377 . S
C804 C802 1.389 . S
C804 C805 1.524 . S
C804 C818 1.377 . S
C805 C804 1.524 . S
C805 C806 1.397 . S
C805 C810 1.363 . S
C806 H783 0.950 . S
C806 C805 1.397 . S
C806 C807 1.334 . S
C807 H784 0.950 . S
C807 C806 1.334 . S
C807 C808 1.287 . S
C808 C807 1.287 . S
C808 C809 1.524 . S
C808 H827 0.913 . S
C809 H785 0.950 . S
C809 C808 1.524 . S
C809 C810 1.415 . S
C810 H786 0.950 . S
C810 C805 1.363 . S
C810 C809 1.415 . S
C811 H787 0.951 . S
C811 C812 1.366 . S
C811 C813 1.388 . S
C812 C811 1.366 . S
C812 C816 1.385 . S
C813 H788 0.951 . S
C813 C811 1.388 . S
C813 C814 1.366 . S
C814 C813 1.366 . S
C814 C815 1.414 . S
C814 C817 1.499 . S
C815 H789 0.950 . S
C815 C814 1.414 . S
C815 C816 1.374 . S
C816 H790 0.950 . S
C816 C812 1.385 . S
C816 C815 1.374 . S
C817 C814 1.499 . S
C817 C818 1.373 . S
C817 C819 1.389 . S
C818 H791 0.950 . S
C818 C804 1.377 . S
C818 C817 1.373 . S
C819 C803 1.377 . S
C819 C817 1.389 . S
C819 C820 1.524 . S
C820 C819 1.524 . S
C820 C821 1.397 . S
C820 C825 1.363 . S
C821 H792 0.950 . S
C821 C820 1.397 . S
C821 C822 1.334 . S
C822 H793 0.950 . S
C822 C821 1.334 . S
C822 C823 1.287 . S
C823 C822 1.287 . S
C823 C824 1.524 . S
C823 H826 0.999 . S
C824 H794 0.950 . S
C824 C823 1.524 . S
C824 C825 1.415 . S
C825 H795 0.950 . S
C825 C820 1.363 . S
C825 C824 1.415 . S
H826 C823 0.999 . S
H827 C808 0.913 . S
H828 C846 0.951 . S
H829 C848 0.951 . S
H830 C850 0.950 . S
H831 C851 0.950 . S
H832 C853 0.950 . S
H833 C856 0.950 . S
H834 C857 0.950 . S
H835 C859 0.950 . S
H836 C860 0.950 . S
H837 C861 0.951 . S
H838 C863 0.951 . S
H839 C865 0.950 . S
H840 C866 0.950 . S
H841 C868 0.950 . S
H842 C871 0.950 . S
H843 C872 0.950 . S
H844 C874 0.950 . S
H845 C875 0.950 . S
C846 H828 0.951 . S
C846 C847 1.366 . S
C846 C848 1.388 . S
C847 C846 1.366 . S
C847 C851 1.385 . S
C848 H829 0.951 . S
C848 C846 1.388 . S
C848 C849 1.366 . S
C849 C848 1.366 . S
C849 C850 1.414 . S
C849 C852 1.499 . S
C850 H830 0.950 . S
C850 C849 1.414 . S
C850 C851 1.374 . S
C851 H831 0.950 . S
C851 C847 1.385 . S
C851 C850 1.374 . S
C852 C849 1.499 . S
C852 C853 1.373 . S
C852 C854 1.389 . S
C853 H832 0.950 . S
C853 C852 1.373 . S
C853 C869 1.377 . S
C854 C852 1.389 . S
C854 C855 1.524 . S
C854 C868 1.377 . S
C855 C854 1.524 . S
C855 C856 1.397 . S
C855 C860 1.363 . S
C856 H833 0.950 . S
C856 C855 1.397 . S
C856 C857 1.334 . S
C857 H834 0.950 . S
C857 C856 1.334 . S
C857 C858 1.287 . S
C858 C857 1.287 . S
C858 C859 1.524 . S
C858 H877 0.913 . S
C859 H835 0.950 . S
C859 C858 1.524 . S
C859 C860 1.415 . S
C860 H836 0.950 . S
C860 C855 1.363 . S
C860 C859 1.415 . S
C861 H837 0.951 . S
C861 C862 1.366 . S
C861 C863 1.388 . S
C862 C861 1.366 . S
C862 C866 1.385 . S
C863 H838 0.951 . S
C863 C861 1.388 . S
C863 C864 1.366 . S
C864 C863 1.366 . S
C864 C865 1.414 . S
C864 C867 1.499 . S
C865 H839 0.950 . S
C865 C864 1.414 . S
C865 C866 1.374 . S
C866 H840 0.950 . S
C866 C862 1.385 . S
C866 C865 1.374 . S
C867 C864 1.499 . S
C867 C868 1.373 . S
C867 C869 1.389 . S
C868 H841 0.950 . S
C868 C854 1.377 . S
C868 C867 1.373 . S
C869 C853 1.377 . S
C869 C867 1.389 . S
C869 C870 1.524 . S
C870 C869 1.524 . S
C870 C871 1.397 . S
C870 C875 1.363 . S
C871 H842 0.950 . S
C871 C870 1.397 . S
C871 C872 1.334 . S
C872 H843 0.950 . S
C872 C871 1.334 . S
C872 C873 1.287 . S
C873 C872 1.287 . S
C873 C874 1.524 . S
C873 H876 0.999 . S
C874 H844 0.950 . S
C874 C873 1.524 . S
C874 C875 1.415 . S
C875 H845 0.950 . S
C875 C870 1.363 . S
C875 C874 1.415 . S
H876 C873 0.999 . S
H877 C858 0.913 . S
H878 C896 0.951 . S
H879 C898 0.951 . S
H880 C900 0.950 . S
H881 C901 0.950 . S
H882 C903 0.950 . S
H883 C906 0.950 . S
H884 C907 0.950 . S
H885 C909 0.950 . S
H886 C910 0.950 . S
H887 C911 0.951 . S
H888 C913 0.951 . S
H889 C915 0.950 . S
H890 C916 0.950 . S
H891 C918 0.950 . S
H892 C921 0.950 . S
H893 C922 0.950 . S
H894 C924 0.950 . S
H895 C925 0.950 . S
C896 H878 0.951 . S
C896 C897 1.366 . S
C896 C898 1.388 . S
C897 C896 1.366 . S
C897 C901 1.385 . S
C898 H879 0.951 . S
C898 C896 1.388 . S
C898 C899 1.366 . S
C899 C898 1.366 . S
C899 C900 1.414 . S
C899 C902 1.499 . S
C900 H880 0.950 . S
C900 C899 1.414 . S
C900 C901 1.374 . S
C901 H881 0.950 . S
C901 C897 1.385 . S
C901 C900 1.374 . S
C902 C899 1.499 . S
C902 C903 1.373 . S
C902 C904 1.389 . S
C903 H882 0.950 . S
C903 C902 1.373 . S
C903 C919 1.377 . S
C904 C902 1.389 . S
C904 C905 1.524 . S
C904 C918 1.377 . S
C905 C904 1.524 . S
C905 C906 1.397 . S
C905 C910 1.363 . S
C906 H883 0.950 . S
C906 C905 1.397 . S
C906 C907 1.334 . S
C907 H884 0.950 . S
C907 C906 1.334 . S
C907 C908 1.287 . S
C908 C907 1.287 . S
C908 C909 1.524 . S
C908 H927 0.913 . S
C909 H885 0.950 . S
C909 C908 1.524 . S
C909 C910 1.415 . S
C910 H886 0.950 . S
C910 C905 1.363 . S
C910 C909 1.415 . S
C911 H887 0.951 . S
C911 C912 1.366 . S
C911 C913 1.388 . S
C912 C911 1.366 . S
C912 C916 1.385 . S
C913 H888 0.951 . S
C913 C911 1.388 . S
C913 C914 1.366 . S
C914 C913 1.366 . S
C914 C915 1.414 . S
C914 C917 1.499 . S
C915 H889 0.950 . S
C915 C914 1.414 . S
C915 C916 1.374 . S
C916 H890 0.950 . S
C916 C912 1.385 . S
C916 C915 1.374 . S
C917 C914 1.499 . S
C917 C918 1.373 . S
C917 C919 1.389 . S
C918 H891 0.950 . S
C918 C904 1.377 . S
C918 C917 1.373 . S
C919 C903 1.377 . S
C919 C917 1.389 . S
C919 C920 1.524 . S
C920 C919 1.524 . S
C920 C921 1.397 . S
C920 C925 1.363 . S
C921 H892 0.950 . S
C921 C920 1.397 . S
C921 C922 1.334 . S
C922 H893 0.950 . S
C922 C921 1.334 . S
C922 C923 1.287 . S
C923 C922 1.287 . S
C923 C924 1.524 . S
C923 H926 0.999 . S
C924 H894 0.950 . S
C924 C923 1.524 . S
C924 C925 1.415 . S
C925 H895 0.950 . S
C925 C920 1.363 . S
C925 C924 1.415 . S
H926 C923 0.999 . S
H927 C908 0.913 . S
H928 C946 0.951 . S
H929 C948 0.951 . S
H930 C950 0.950 . S
H931 C951 0.950 . S
H932 C953 0.950 . S
H933 C956 0.950 . S
H934 C957 0.950 . S
H935 C959 0.950 . S
H936 C960 0.950 . S
H937 C961 0.951 . S
H938 C963 0.951 . S
H939 C965 0.950 . S
H940 C966 0.950 . S
H941 C968 0.950 . S
H942 C971 0.950 . S
H943 C972 0.950 . S
H944 C974 0.950 . S
H945 C975 0.950 . S
C946 H928 0.951 . S
C946 C947 1.366 . S
C946 C948 1.388 . S
C947 C946 1.366 . S
C947 C951 1.385 . S
C948 H929 0.951 . S
C948 C946 1.388 . S
C948 C949 1.366 . S
C949 C948 1.366 . S
C949 C950 1.414 . S
C949 C952 1.499 . S
C950 H930 0.950 . S
C950 C949 1.414 . S
C950 C951 1.374 . S
C951 H931 0.950 . S
C951 C947 1.385 . S
C951 C950 1.374 . S
C952 C949 1.499 . S
C952 C953 1.373 1_655 S
C952 C954 1.389 . S
C953 H932 0.950 . S
C953 C952 1.373 1_455 S
C953 C969 1.377 . S
C954 C952 1.389 . S
C954 C955 1.524 . S
C954 C968 1.377 . S
C955 C954 1.524 . S
C955 C956 1.397 . S
C955 C960 1.363 . S
C956 H933 0.950 . S
C956 C955 1.397 . S
C956 C957 1.334 . S
C957 H934 0.950 . S
C957 C956 1.334 . S
C957 C958 1.287 . S
C958 C957 1.287 . S
C958 C959 1.524 . S
C958 H977 0.913 . S
C959 H935 0.950 . S
C959 C958 1.524 . S
C959 C960 1.415 . S
C960 H936 0.950 . S
C960 C955 1.363 . S
C960 C959 1.415 . S
C961 H937 0.951 . S
C961 C962 1.366 . S
C961 C963 1.388 . S
C962 C961 1.366 . S
C962 C966 1.385 . S
C963 H938 0.951 . S
C963 C961 1.388 . S
C963 C964 1.366 . S
C964 C963 1.366 . S
C964 C965 1.414 . S
C964 C967 1.499 . S
C965 H939 0.950 . S
C965 C964 1.414 . S
C965 C966 1.374 . S
C966 H940 0.950 . S
C966 C962 1.385 . S
C966 C965 1.374 . S
C967 C964 1.499 . S
C967 C968 1.373 1_455 S
C967 C969 1.389 . S
C968 H941 0.950 . S
C968 C954 1.377 . S
C968 C967 1.373 1_655 S
C969 C953 1.377 . S
C969 C967 1.389 . S
C969 C970 1.524 . S
C970 C969 1.524 . S
C970 C971 1.397 . S
C970 C975 1.363 . S
C971 H942 0.950 . S
C971 C970 1.397 . S
C971 C972 1.334 . S
C972 H943 0.950 . S
C972 C971 1.334 . S
C972 C973 1.287 . S
C973 C972 1.287 . S
C973 C974 1.524 . S
C973 H976 0.999 . S
C974 H944 0.950 . S
C974 C973 1.524 . S
C974 C975 1.415 . S
C975 H945 0.950 . S
C975 C970 1.363 . S
C975 C974 1.415 . S
H976 C973 0.999 . S
H977 C958 0.913 . S
H978 C996 0.951 . S
H979 C998 0.951 . S
H980 C1000 0.950 . S
H981 C1001 0.950 . S
H982 C1003 0.950 . S
H983 C1006 0.950 1_565 S
H984 C1007 0.950 . S
H985 C1009 0.950 . S
H986 C1010 0.950 . S
H987 C1011 0.951 . S
H988 C1013 0.951 . S
H989 C1015 0.950 . S
H990 C1016 0.950 . S
H991 C1018 0.950 . S
H992 C1021 0.950 1_545 S
H993 C1022 0.950 . S
H994 C1024 0.950 . S
H995 C1025 0.950 . S
C996 H978 0.951 . S
C996 C997 1.366 . S
C996 C998 1.388 . S
C997 C996 1.366 . S
C997 C1001 1.385 . S
C998 H979 0.951 . S
C998 C996 1.388 . S
C998 C999 1.366 . S
C999 C998 1.366 . S
C999 C1000 1.414 . S
C999 C1002 1.499 . S
C1000 H980 0.950 . S
C1000 C999 1.414 . S
C1000 C1001 1.374 . S
C1001 H981 0.950 . S
C1001 C997 1.385 . S
C1001 C1000 1.374 . S
C1002 C999 1.499 . S
C1002 C1003 1.373 . S
C1002 C1004 1.389 1_565 S
C1003 H982 0.950 . S
C1003 C1002 1.373 . S
C1003 C1019 1.377 . S
C1004 C1002 1.389 1_545 S
C1004 C1005 1.524 . S
C1004 C1018 1.377 . S
C1005 C1004 1.524 . S
C1005 C1006 1.397 . S
C1005 C1010 1.363 . S
C1006 H983 0.950 1_545 S
C1006 C1005 1.397 . S
C1006 C1007 1.334 . S
C1007 H984 0.950 . S
C1007 C1006 1.334 . S
C1007 C1008 1.287 . S
C1008 C1007 1.287 . S
C1008 C1009 1.524 . S
C1008 H1027 0.913 . S
C1009 H985 0.950 . S
C1009 C1008 1.524 . S
C1009 C1010 1.415 . S
C1010 H986 0.950 . S
C1010 C1005 1.363 . S
C1010 C1009 1.415 . S
C1011 H987 0.951 . S
C1011 C1012 1.366 . S
C1011 C1013 1.388 . S
C1012 C1011 1.366 . S
C1012 C1016 1.385 . S
C1013 H988 0.951 . S
C1013 C1011 1.388 . S
C1013 C1014 1.366 . S
C1014 C1013 1.366 . S
C1014 C1015 1.414 . S
C1014 C1017 1.499 . S
C1015 H989 0.950 . S
C1015 C1014 1.414 . S
C1015 C1016 1.374 . S
C1016 H990 0.950 . S
C1016 C1012 1.385 . S
C1016 C1015 1.374 . S
C1017 C1014 1.499 . S
C1017 C1018 1.373 . S
C1017 C1019 1.389 1_545 S
C1018 H991 0.950 . S
C1018 C1004 1.377 . S
C1018 C1017 1.373 . S
C1019 C1003 1.377 . S
C1019 C1017 1.389 1_565 S
C1019 C1020 1.524 . S
C1020 C1019 1.524 . S
C1020 C1021 1.397 . S
C1020 C1025 1.363 . S
C1021 H992 0.950 1_565 S
C1021 C1020 1.397 . S
C1021 C1022 1.334 . S
C1022 H993 0.950 . S
C1022 C1021 1.334 . S
C1022 C1023 1.287 . S
C1023 C1022 1.287 . S
C1023 C1024 1.524 . S
C1023 H1026 0.999 . S
C1024 H994 0.950 . S
C1024 C1023 1.524 . S
C1024 C1025 1.415 . S
C1025 H995 0.950 . S
C1025 C1020 1.363 . S
C1025 C1024 1.415 . S
H1026 C1023 0.999 . S
H1027 C1008 0.913 . S
H1028 C1046 0.951 . S
H1029 C1048 0.951 . S
H1030 C1050 0.950 . S
H1031 C1051 0.950 . S
H1032 C1053 0.950 . S
H1033 C1056 0.950 . S
H1034 C1057 0.950 . S
H1035 C1059 0.950 . S
H1036 C1060 0.950 . S
H1037 C1061 0.951 . S
H1038 C1063 0.951 . S
H1039 C1065 0.950 . S
H1040 C1066 0.950 . S
H1041 C1068 0.950 . S
H1042 C1071 0.950 . S
H1043 C1072 0.950 . S
H1044 C1074 0.950 . S
H1045 C1075 0.950 . S
C1046 H1028 0.951 . S
C1046 C1047 1.366 . S
C1046 C1048 1.388 . S
C1047 C1046 1.366 . S
C1047 C1051 1.385 . S
C1048 H1029 0.951 . S
C1048 C1046 1.388 . S
C1048 C1049 1.366 . S
C1049 C1048 1.366 . S
C1049 C1050 1.414 . S
C1049 C1052 1.499 . S
C1050 H1030 0.950 . S
C1050 C1049 1.414 . S
C1050 C1051 1.374 . S
C1051 H1031 0.950 . S
C1051 C1047 1.385 . S
C1051 C1050 1.374 . S
C1052 C1049 1.499 . S
C1052 C1053 1.410 . S
C1052 C1054 1.389 . S
C1053 H1032 0.950 . S
C1053 C1052 1.410 . S
C1053 C1069 1.339 1_455 S
C1054 C1052 1.389 . S
C1054 C1055 1.524 . S
C1054 C1068 1.339 1_455 S
C1055 C1054 1.524 . S
C1055 C1056 1.397 . S
C1055 C1060 1.363 . S
C1056 H1033 0.950 . S
C1056 C1055 1.397 . S
C1056 C1057 1.334 . S
C1057 H1034 0.950 . S
C1057 C1056 1.334 . S
C1057 C1058 1.287 . S
C1058 C1057 1.287 . S
C1058 C1059 1.524 . S
C1058 H1077 0.913 . S
C1059 H1035 0.950 . S
C1059 C1058 1.524 . S
C1059 C1060 1.415 . S
C1060 H1036 0.950 . S
C1060 C1055 1.363 . S
C1060 C1059 1.415 . S
C1061 H1037 0.951 . S
C1061 C1062 1.366 . S
C1061 C1063 1.388 . S
C1062 C1061 1.366 . S
C1062 C1066 1.385 . S
C1063 H1038 0.951 . S
C1063 C1061 1.388 . S
C1063 C1064 1.366 . S
C1064 C1063 1.366 . S
C1064 C1065 1.414 . S
C1064 C1067 1.499 . S
C1065 H1039 0.950 . S
C1065 C1064 1.414 . S
C1065 C1066 1.374 . S
C1066 H1040 0.950 . S
C1066 C1062 1.385 . S
C1066 C1065 1.374 . S
C1067 C1064 1.499 . S
C1067 C1068 1.410 . S
C1067 C1069 1.389 . S
C1068 H1041 0.950 . S
C1068 C1054 1.339 1_655 S
C1068 C1067 1.410 . S
C1069 C1053 1.339 1_655 S
C1069 C1067 1.389 . S
C1069 C1070 1.524 . S
C1070 C1069 1.524 . S
C1070 C1071 1.397 . S
C1070 C1075 1.363 . S
C1071 H1042 0.950 . S
C1071 C1070 1.397 . S
C1071 C1072 1.334 . S
C1072 H1043 0.950 . S
C1072 C1071 1.334 . S
C1072 C1073 1.287 . S
C1073 C1072 1.287 . S
C1073 C1074 1.524 . S
C1073 H1076 0.999 . S
C1074 H1044 0.950 . S
C1074 C1073 1.524 . S
C1074 C1075 1.415 . S
C1075 H1045 0.950 . S
C1075 C1070 1.363 . S
C1075 C1074 1.415 . S
H1076 C1073 0.999 . S
H1077 C1058 0.913 . S
H1078 C1096 0.951 . S
H1079 C1098 0.951 . S
H1080 C1100 0.950 . S
H1081 C1101 0.950 . S
H1082 C1103 0.950 . S
H1083 C1106 0.961 . S
H1084 C1107 0.950 . S
H1085 C1109 0.950 . S
H1086 C1110 0.950 . S
H1087 C1111 0.951 . S
H1088 C1113 0.951 . S
H1089 C1115 0.950 . S
H1090 C1116 0.950 . S
H1091 C1118 0.950 . S
H1092 C1121 0.961 . S
H1093 C1122 0.950 . S
H1094 C1124 0.950 . S
H1095 C1125 0.950 . S
C1096 H1078 0.951 . S
C1096 C1097 1.366 . S
C1096 C1098 1.388 . S
C1097 C1096 1.366 . S
C1097 C1101 1.385 . S
C1098 H1079 0.951 . S
C1098 C1096 1.388 . S
C1098 C1099 1.366 . S
C1099 C1098 1.366 . S
C1099 C1100 1.414 . S
C1099 C1102 1.499 . S
C1100 H1080 0.950 . S
C1100 C1099 1.414 . S
C1100 C1101 1.374 . S
C1101 H1081 0.950 . S
C1101 C1097 1.385 . S
C1101 C1100 1.374 . S
C1102 C1099 1.499 . S
C1102 C1103 1.373 . S
C1102 C1104 1.389 1_545 S
C1103 H1082 0.950 . S
C1103 C1102 1.373 . S
C1103 C1119 1.377 . S
C1104 C1102 1.389 1_565 S
C1104 C1105 1.524 . S
C1104 C1118 1.377 . S
C1105 C1104 1.524 . S
C1105 C1106 1.397 . S
C1105 C1110 1.363 . S
C1106 H1083 0.961 . S
C1106 C1105 1.397 . S
C1106 C1107 1.334 . S
C1107 H1084 0.950 . S
C1107 C1106 1.334 . S
C1107 C1108 1.287 . S
C1108 C1107 1.287 . S
C1108 C1109 1.524 . S
C1108 H1127 0.913 . S
C1109 H1085 0.950 . S
C1109 C1108 1.524 . S
C1109 C1110 1.415 . S
C1110 H1086 0.950 . S
C1110 C1105 1.363 . S
C1110 C1109 1.415 . S
C1111 H1087 0.951 . S
C1111 C1112 1.366 . S
C1111 C1113 1.388 . S
C1112 C1111 1.366 . S
C1112 C1116 1.385 . S
C1113 H1088 0.951 . S
C1113 C1111 1.388 . S
C1113 C1114 1.366 . S
C1114 C1113 1.366 . S
C1114 C1115 1.414 . S
C1114 C1117 1.499 . S
C1115 H1089 0.950 . S
C1115 C1114 1.414 . S
C1115 C1116 1.374 . S
C1116 H1090 0.950 . S
C1116 C1112 1.385 . S
C1116 C1115 1.374 . S
C1117 C1114 1.499 . S
C1117 C1118 1.373 . S
C1117 C1119 1.389 1_565 S
C1118 H1091 0.950 . S
C1118 C1104 1.377 . S
C1118 C1117 1.373 . S
C1119 C1103 1.377 . S
C1119 C1117 1.389 1_545 S
C1119 C1120 1.524 . S
C1120 C1119 1.524 . S
C1120 C1121 1.397 . S
C1120 C1125 1.363 . S
C1121 H1092 0.961 . S
C1121 C1120 1.397 . S
C1121 C1122 1.334 . S
C1122 H1093 0.950 . S
C1122 C1121 1.334 . S
C1122 C1123 1.287 . S
C1123 C1122 1.287 . S
C1123 C1124 1.524 . S
C1123 H1126 0.999 . S
C1124 H1094 0.950 . S
C1124 C1123 1.524 . S
C1124 C1125 1.415 . S
C1125 H1095 0.950 . S
C1125 C1120 1.363 . S
C1125 C1124 1.415 . S
H1126 C1123 0.999 . S
H1127 C1108 0.913 . S
H1128 C1146 0.951 . S
H1129 C1148 0.951 . S
H1130 C1150 0.950 . S
H1131 C1151 0.950 . S
H1132 C1153 0.950 . S
H1133 C1156 0.950 . S
H1134 C1157 0.950 . S
H1135 C1159 0.950 . S
H1136 C1160 0.950 . S
H1137 C1161 0.951 . S
H1138 C1163 0.951 . S
H1139 C1165 0.950 . S
H1140 C1166 0.950 . S
H1141 C1168 0.950 . S
H1142 C1171 0.950 . S
H1143 C1172 0.950 . S
H1144 C1174 0.950 . S
H1145 C1175 0.950 . S
C1146 H1128 0.951 . S
C1146 C1147 1.366 . S
C1146 C1148 1.388 . S
C1147 C1146 1.366 . S
C1147 C1151 1.385 . S
C1148 H1129 0.951 . S
C1148 C1146 1.388 . S
C1148 C1149 1.366 . S
C1149 C1148 1.366 . S
C1149 C1150 1.414 . S
C1149 C1152 1.499 . S
C1150 H1130 0.950 . S
C1150 C1149 1.414 . S
C1150 C1151 1.374 . S
C1151 H1131 0.950 . S
C1151 C1147 1.385 . S
C1151 C1150 1.374 . S
C1152 C1149 1.499 . S
C1152 C1153 1.373 1_455 S
C1152 C1154 1.389 . S
C1153 H1132 0.950 . S
C1153 C1152 1.373 1_655 S
C1153 C1169 1.377 . S
C1154 C1152 1.389 . S
C1154 C1155 1.524 . S
C1154 C1168 1.377 . S
C1155 C1154 1.524 . S
C1155 C1156 1.397 . S
C1155 C1160 1.363 . S
C1156 H1133 0.950 . S
C1156 C1155 1.397 . S
C1156 C1157 1.334 . S
C1157 H1134 0.950 . S
C1157 C1156 1.334 . S
C1157 C1158 1.287 . S
C1158 C1157 1.287 . S
C1158 C1159 1.524 . S
C1158 H1177 0.913 . S
C1159 H1135 0.950 . S
C1159 C1158 1.524 . S
C1159 C1160 1.415 . S
C1160 H1136 0.950 . S
C1160 C1155 1.363 . S
C1160 C1159 1.415 . S
C1161 H1137 0.951 . S
C1161 C1162 1.366 . S
C1161 C1163 1.388 . S
C1162 C1161 1.366 . S
C1162 C1166 1.385 . S
C1163 H1138 0.951 . S
C1163 C1161 1.388 . S
C1163 C1164 1.366 . S
C1164 C1163 1.366 . S
C1164 C1165 1.414 . S
C1164 C1167 1.499 . S
C1165 H1139 0.950 . S
C1165 C1164 1.414 . S
C1165 C1166 1.374 . S
C1166 H1140 0.950 . S
C1166 C1162 1.385 . S
C1166 C1165 1.374 . S
C1167 C1164 1.499 . S
C1167 C1168 1.373 1_655 S
C1167 C1169 1.389 . S
C1168 H1141 0.950 . S
C1168 C1154 1.377 . S
C1168 C1167 1.373 1_455 S
C1169 C1153 1.377 . S
C1169 C1167 1.389 . S
C1169 C1170 1.524 . S
C1170 C1169 1.524 . S
C1170 C1171 1.397 . S
C1170 C1175 1.363 . S
C1171 H1142 0.950 . S
C1171 C1170 1.397 . S
C1171 C1172 1.334 . S
C1172 H1143 0.950 . S
C1172 C1171 1.334 . S
C1172 C1173 1.287 . S
C1173 C1172 1.287 . S
C1173 C1174 1.524 . S
C1173 H1176 0.999 . S
C1174 H1144 0.950 . S
C1174 C1173 1.524 . S
C1174 C1175 1.415 . S
C1175 H1145 0.950 . S
C1175 C1170 1.363 . S
C1175 C1174 1.415 . S
H1176 C1173 0.999 . S
H1177 C1158 0.913 . S
H1178 C1196 0.951 . S
H1179 C1198 0.951 . S
H1180 C1200 0.950 . S
H1181 C1201 0.950 . S
H1182 C1203 0.950 . S
H1183 C1206 0.952 . S
H1184 C1207 0.948 1_565 S
H1185 C1209 0.950 . S
H1186 C1210 0.950 . S
H1187 C1211 0.951 . S
H1188 C1213 0.951 . S
H1189 C1215 0.950 . S
H1190 C1216 0.950 . S
H1191 C1218 0.950 . S
H1192 C1221 0.952 . S
H1193 C1222 0.948 1_545 S
H1194 C1224 0.950 . S
H1195 C1225 0.950 . S
C1196 H1178 0.951 . S
C1196 C1197 1.366 . S
C1196 C1198 1.388 . S
C1197 C1196 1.366 . S
C1197 C1201 1.385 . S
C1198 H1179 0.951 . S
C1198 C1196 1.388 . S
C1198 C1199 1.366 . S
C1199 C1198 1.366 . S
C1199 C1200 1.414 . S
C1199 C1202 1.499 . S
C1200 H1180 0.950 . S
C1200 C1199 1.414 . S
C1200 C1201 1.374 . S
C1201 H1181 0.950 . S
C1201 C1197 1.385 . S
C1201 C1200 1.374 . S
C1202 C1199 1.499 . S
C1202 C1203 1.373 . S
C1202 C1204 1.389 . S
C1203 H1182 0.950 . S
C1203 C1202 1.373 . S
C1203 C1219 1.377 1_565 S
C1204 C1202 1.389 . S
C1204 C1205 1.526 . S
C1204 C1218 1.377 1_565 S
C1205 C1204 1.526 . S
C1205 C1206 1.397 . S
C1205 C1210 1.359 1_565 S
C1206 H1183 0.952 . S
C1206 C1205 1.397 . S
C1206 C1207 1.332 1_565 S
C1207 H1184 0.948 1_545 S
C1207 C1206 1.332 1_545 S
C1207 C1208 1.291 . S
C1208 C1207 1.291 . S
C1208 C1209 1.524 . S
C1208 H1227 0.913 . S
C1209 H1185 0.950 . S
C1209 C1208 1.524 . S
C1209 C1210 1.415 . S
C1210 H1186 0.950 . S
C1210 C1205 1.359 1_545 S
C1210 C1209 1.415 . S
C1211 H1187 0.951 . S
C1211 C1212 1.366 . S
C1211 C1213 1.388 . S
C1212 C1211 1.366 . S
C1212 C1216 1.385 . S
C1213 H1188 0.951 . S
C1213 C1211 1.388 . S
C1213 C1214 1.366 . S
C1214 C1213 1.366 . S
C1214 C1215 1.414 . S
C1214 C1217 1.499 . S
C1215 H1189 0.950 . S
C1215 C1214 1.414 . S
C1215 C1216 1.374 . S
C1216 H1190 0.950 . S
C1216 C1212 1.385 . S
C1216 C1215 1.374 . S
C1217 C1214 1.499 . S
C1217 C1218 1.373 . S
C1217 C1219 1.389 . S
C1218 H1191 0.950 . S
C1218 C1204 1.377 1_545 S
C1218 C1217 1.373 . S
C1219 C1203 1.377 1_545 S
C1219 C1217 1.389 . S
C1219 C1220 1.526 . S
C1220 C1219 1.526 . S
C1220 C1221 1.397 . S
C1220 C1225 1.359 1_545 S
C1221 H1192 0.952 . S
C1221 C1220 1.397 . S
C1221 C1222 1.332 1_545 S
C1222 H1193 0.948 1_565 S
C1222 C1221 1.332 1_565 S
C1222 C1223 1.291 . S
C1223 C1222 1.291 . S
C1223 C1224 1.524 . S
C1223 H1226 0.999 . S
C1224 H1194 0.950 . S
C1224 C1223 1.524 . S
C1224 C1225 1.415 . S
C1225 H1195 0.950 . S
C1225 C1220 1.359 1_565 S
C1225 C1224 1.415 . S
H1226 C1223 0.999 . S
H1227 C1208 0.913 . S
H1228 C1246 0.951 . S
H1229 C1248 0.951 . S
H1230 C1250 0.950 . S
H1231 C1251 0.950 . S
H1232 C1253 0.950 . S
H1233 C1256 0.950 . S
H1234 C1257 0.950 . S
H1235 C1259 0.950 . S
H1236 C1260 0.950 . S
H1237 C1261 0.951 . S
H1238 C1263 0.951 . S
H1239 C1265 0.950 . S
H1240 C1266 0.950 . S
H1241 C1268 0.950 . S
H1242 C1271 0.950 . S
H1243 C1272 0.950 . S
H1244 C1274 0.950 . S
H1245 C1275 0.950 . S
C1246 H1228 0.951 . S
C1246 C1247 1.366 . S
C1246 C1248 1.388 . S
C1247 C1246 1.366 . S
C1247 C1251 1.385 . S
C1248 H1229 0.951 . S
C1248 C1246 1.388 . S
C1248 C1249 1.366 . S
C1249 C1248 1.366 . S
C1249 C1250 1.414 . S
C1249 C1252 1.499 . S
C1250 H1230 0.950 . S
C1250 C1249 1.414 . S
C1250 C1251 1.374 . S
C1251 H1231 0.950 . S
C1251 C1247 1.385 . S
C1251 C1250 1.374 . S
C1252 C1249 1.499 . S
C1252 C1253 1.373 . S
C1252 C1254 1.389 . S
C1253 H1232 0.950 . S
C1253 C1252 1.373 . S
C1253 C1269 1.377 1_655 S
C1254 C1252 1.389 . S
C1254 C1255 1.524 . S
C1254 C1268 1.377 1_655 S
C1255 C1254 1.524 . S
C1255 C1256 1.397 . S
C1255 C1260 1.363 1_655 S
C1256 H1233 0.950 . S
C1256 C1255 1.397 . S
C1256 C1257 1.334 . S
C1257 H1234 0.950 . S
C1257 C1256 1.334 . S
C1257 C1258 1.287 . S
C1258 C1257 1.287 . S
C1258 C1259 1.524 1_655 S
C1258 H1277 0.913 . S
C1259 H1235 0.950 . S
C1259 C1258 1.524 1_455 S
C1259 C1260 1.415 . S
C1260 H1236 0.950 . S
C1260 C1255 1.363 1_455 S
C1260 C1259 1.415 . S
C1261 H1237 0.951 . S
C1261 C1262 1.366 . S
C1261 C1263 1.388 . S
C1262 C1261 1.366 . S
C1262 C1266 1.385 . S
C1263 H1238 0.951 . S
C1263 C1261 1.388 . S
C1263 C1264 1.366 . S
C1264 C1263 1.366 . S
C1264 C1265 1.414 . S
C1264 C1267 1.499 . S
C1265 H1239 0.950 . S
C1265 C1264 1.414 . S
C1265 C1266 1.374 . S
C1266 H1240 0.950 . S
C1266 C1262 1.385 . S
C1266 C1265 1.374 . S
C1267 C1264 1.499 . S
C1267 C1268 1.373 . S
C1267 C1269 1.389 . S
C1268 H1241 0.950 . S
C1268 C1254 1.377 1_455 S
C1268 C1267 1.373 . S
C1269 C1253 1.377 1_455 S
C1269 C1267 1.389 . S
C1269 C1270 1.524 . S
C1270 C1269 1.524 . S
C1270 C1271 1.397 . S
C1270 C1275 1.363 1_455 S
C1271 H1242 0.950 . S
C1271 C1270 1.397 . S
C1271 C1272 1.334 . S
C1272 H1243 0.950 . S
C1272 C1271 1.334 . S
C1272 C1273 1.287 . S
C1273 C1272 1.287 . S
C1273 C1274 1.524 1_455 S
C1273 H1276 0.999 . S
C1274 H1244 0.950 . S
C1274 C1273 1.524 1_655 S
C1274 C1275 1.415 . S
C1275 H1245 0.950 . S
C1275 C1270 1.363 1_655 S
C1275 C1274 1.415 . S
H1276 C1273 0.999 . S
H1277 C1258 0.913 . S
H1278 C1296 0.951 . S
H1279 C1298 0.951 . S
H1280 C1300 0.950 . S
H1281 C1301 0.950 . S
H1282 C1303 0.950 . S
H1283 C1306 0.950 . S
H1284 C1307 0.950 . S
H1285 C1309 0.950 . S
H1286 C1310 0.950 . S
H1287 C1311 0.951 . S
H1288 C1313 0.951 . S
H1289 C1315 0.950 . S
H1290 C1316 0.950 . S
H1291 C1318 0.950 . S
H1292 C1321 0.950 . S
H1293 C1322 0.950 . S
H1294 C1324 0.950 . S
H1295 C1325 0.950 . S
C1296 H1278 0.951 . S
C1296 C1297 1.366 . S
C1296 C1298 1.388 . S
C1297 C1296 1.366 . S
C1297 C1301 1.385 . S
C1298 H1279 0.951 . S
C1298 C1296 1.388 . S
C1298 C1299 1.366 . S
C1299 C1298 1.366 . S
C1299 C1300 1.414 . S
C1299 C1302 1.499 . S
C1300 H1280 0.950 . S
C1300 C1299 1.414 . S
C1300 C1301 1.374 . S
C1301 H1281 0.950 . S
C1301 C1297 1.385 . S
C1301 C1300 1.374 . S
C1302 C1299 1.499 . S
C1302 C1303 1.373 1_545 S
C1302 C1304 1.389 . S
C1303 H1282 0.950 . S
C1303 C1302 1.373 1_565 S
C1303 C1319 1.377 . S
C1304 C1302 1.389 . S
C1304 C1305 1.524 . S
C1304 C1318 1.377 . S
C1305 C1304 1.524 . S
C1305 C1306 1.397 . S
C1305 C1310 1.363 . S
C1306 H1283 0.950 . S
C1306 C1305 1.397 . S
C1306 C1307 1.334 . S
C1307 H1284 0.950 . S
C1307 C1306 1.334 . S
C1307 C1308 1.287 . S
C1308 C1307 1.287 . S
C1308 C1309 1.524 . S
C1308 H1327 0.913 . S
C1309 H1285 0.950 . S
C1309 C1308 1.524 . S
C1309 C1310 1.415 . S
C1310 H1286 0.950 . S
C1310 C1305 1.363 . S
C1310 C1309 1.415 . S
C1311 H1287 0.951 . S
C1311 C1312 1.366 . S
C1311 C1313 1.388 . S
C1312 C1311 1.366 . S
C1312 C1316 1.385 . S
C1313 H1288 0.951 . S
C1313 C1311 1.388 . S
C1313 C1314 1.366 . S
C1314 C1313 1.366 . S
C1314 C1315 1.414 . S
C1314 C1317 1.499 . S
C1315 H1289 0.950 . S
C1315 C1314 1.414 . S
C1315 C1316 1.374 . S
C1316 H1290 0.950 . S
C1316 C1312 1.385 . S
C1316 C1315 1.374 . S
C1317 C1314 1.499 . S
C1317 C1318 1.373 1_565 S
C1317 C1319 1.389 . S
C1318 H1291 0.950 . S
C1318 C1304 1.377 . S
C1318 C1317 1.373 1_545 S
C1319 C1303 1.377 . S
C1319 C1317 1.389 . S
C1319 C1320 1.524 . S
C1320 C1319 1.524 . S
C1320 C1321 1.397 . S
C1320 C1325 1.363 . S
C1321 H1292 0.950 . S
C1321 C1320 1.397 . S
C1321 C1322 1.334 . S
C1322 H1293 0.950 . S
C1322 C1321 1.334 . S
C1322 C1323 1.287 . S
C1323 C1322 1.287 . S
C1323 C1324 1.524 . S
C1323 H1326 0.999 . S
C1324 H1294 0.950 . S
C1324 C1323 1.524 . S
C1324 C1325 1.415 . S
C1325 H1295 0.950 . S
C1325 C1320 1.363 . S
C1325 C1324 1.415 . S
H1326 C1323 0.999 . S
H1327 C1308 0.913 . S
H1328 C1346 0.951 . S
H1329 C1348 0.951 . S
H1330 C1350 0.950 . S
H1331 C1351 0.950 . S
H1332 C1353 0.950 . S
H1333 C1356 0.950 . S
H1334 C1357 0.950 . S
H1335 C1359 0.950 . S
H1336 C1360 0.950 . S
H1337 C1361 0.951 . S
H1338 C1363 0.951 . S
H1339 C1365 0.950 . S
H1340 C1366 0.950 . S
H1341 C1368 0.950 . S
H1342 C1371 0.950 . S
H1343 C1372 0.950 . S
H1344 C1374 0.950 . S
H1345 C1375 0.950 . S
C1346 H1328 0.951 . S
C1346 C1347 1.366 . S
C1346 C1348 1.388 . S
C1347 C1346 1.366 . S
C1347 C1351 1.385 . S
C1348 H1329 0.951 . S
C1348 C1346 1.388 . S
C1348 C1349 1.366 . S
C1349 C1348 1.366 . S
C1349 C1350 1.414 . S
C1349 C1352 1.499 . S
C1350 H1330 0.950 . S
C1350 C1349 1.414 . S
C1350 C1351 1.374 . S
C1351 H1331 0.950 . S
C1351 C1347 1.385 . S
C1351 C1350 1.374 . S
C1352 C1349 1.499 . S
C1352 C1353 1.373 . S
C1352 C1354 1.389 . S
C1353 H1332 0.950 . S
C1353 C1352 1.373 . S
C1353 C1369 1.377 . S
C1354 C1352 1.389 . S
C1354 C1355 1.524 . S
C1354 C1368 1.377 . S
C1355 C1354 1.524 . S
C1355 C1356 1.397 . S
C1355 C1360 1.363 . S
C1356 H1333 0.950 . S
C1356 C1355 1.397 . S
C1356 C1357 1.334 . S
C1357 H1334 0.950 . S
C1357 C1356 1.334 . S
C1357 C1358 1.287 . S
C1358 C1357 1.287 . S
C1358 C1359 1.524 . S
C1358 H1377 0.913 . S
C1359 H1335 0.950 . S
C1359 C1358 1.524 . S
C1359 C1360 1.415 . S
C1360 H1336 0.950 . S
C1360 C1355 1.363 . S
C1360 C1359 1.415 . S
C1361 H1337 0.951 . S
C1361 C1362 1.366 . S
C1361 C1363 1.388 . S
C1362 C1361 1.366 . S
C1362 C1366 1.385 . S
C1363 H1338 0.951 . S
C1363 C1361 1.388 . S
C1363 C1364 1.366 . S
C1364 C1363 1.366 . S
C1364 C1365 1.414 . S
C1364 C1367 1.499 . S
C1365 H1339 0.950 . S
C1365 C1364 1.414 . S
C1365 C1366 1.374 . S
C1366 H1340 0.950 . S
C1366 C1362 1.385 . S
C1366 C1365 1.374 . S
C1367 C1364 1.499 . S
C1367 C1368 1.373 . S
C1367 C1369 1.389 . S
C1368 H1341 0.950 . S
C1368 C1354 1.377 . S
C1368 C1367 1.373 . S
C1369 C1353 1.377 . S
C1369 C1367 1.389 . S
C1369 C1370 1.524 . S
C1370 C1369 1.524 . S
C1370 C1371 1.397 . S
C1370 C1375 1.363 . S
C1371 H1342 0.950 . S
C1371 C1370 1.397 . S
C1371 C1372 1.334 . S
C1372 H1343 0.950 . S
C1372 C1371 1.334 . S
C1372 C1373 1.287 . S
C1373 C1372 1.287 . S
C1373 C1374 1.524 . S
C1373 H1376 0.999 . S
C1374 H1344 0.950 . S
C1374 C1373 1.524 . S
C1374 C1375 1.415 . S
C1375 H1345 0.950 . S
C1375 C1370 1.363 . S
C1375 C1374 1.415 . S
H1376 C1373 0.999 . S
H1377 C1358 0.913 . S
H1378 C1396 0.951 . S
H1379 C1398 0.951 . S
H1380 C1400 0.950 . S
H1381 C1401 0.950 . S
H1382 C1403 0.950 . S
H1383 C1406 0.950 . S
H1384 C1407 0.950 . S
H1385 C1409 0.950 . S
H1386 C1410 0.950 . S
H1387 C1411 0.951 . S
H1388 C1413 0.951 . S
H1389 C1415 0.950 . S
H1390 C1416 0.950 . S
H1391 C1418 0.950 . S
H1392 C1421 0.950 . S
H1393 C1422 0.950 . S
H1394 C1424 0.950 . S
H1395 C1425 0.950 . S
C1396 H1378 0.951 . S
C1396 C1397 1.366 . S
C1396 C1398 1.388 . S
C1397 C1396 1.366 . S
C1397 C1401 1.385 . S
C1398 H1379 0.951 . S
C1398 C1396 1.388 . S
C1398 C1399 1.366 . S
C1399 C1398 1.366 . S
C1399 C1400 1.414 . S
C1399 C1402 1.499 . S
C1400 H1380 0.950 . S
C1400 C1399 1.414 . S
C1400 C1401 1.374 . S
C1401 H1381 0.950 . S
C1401 C1397 1.385 . S
C1401 C1400 1.374 . S
C1402 C1399 1.499 . S
C1402 C1403 1.373 . S
C1402 C1404 1.389 . S
C1403 H1382 0.950 . S
C1403 C1402 1.373 . S
C1403 C1419 1.377 . S
C1404 C1402 1.389 . S
C1404 C1405 1.524 . S
C1404 C1418 1.377 . S
C1405 C1404 1.524 . S
C1405 C1406 1.397 . S
C1405 C1410 1.363 . S
C1406 H1383 0.950 . S
C1406 C1405 1.397 . S
C1406 C1407 1.334 . S
C1407 H1384 0.950 . S
C1407 C1406 1.334 . S
C1407 C1408 1.287 . S
C1408 C1407 1.287 . S
C1408 C1409 1.524 . S
C1408 H1427 0.913 . S
C1409 H1385 0.950 . S
C1409 C1408 1.524 . S
C1409 C1410 1.415 . S
C1410 H1386 0.950 . S
C1410 C1405 1.363 . S
C1410 C1409 1.415 . S
C1411 H1387 0.951 . S
C1411 C1412 1.366 . S
C1411 C1413 1.388 . S
C1412 C1411 1.366 . S
C1412 C1416 1.385 . S
C1413 H1388 0.951 . S
C1413 C1411 1.388 . S
C1413 C1414 1.366 . S
C1414 C1413 1.366 . S
C1414 C1415 1.414 . S
C1414 C1417 1.499 . S
C1415 H1389 0.950 . S
C1415 C1414 1.414 . S
C1415 C1416 1.374 . S
C1416 H1390 0.950 . S
C1416 C1412 1.385 . S
C1416 C1415 1.374 . S
C1417 C1414 1.499 . S
C1417 C1418 1.373 . S
C1417 C1419 1.389 . S
C1418 H1391 0.950 . S
C1418 C1404 1.377 . S
C1418 C1417 1.373 . S
C1419 C1403 1.377 . S
C1419 C1417 1.389 . S
C1419 C1420 1.524 . S
C1420 C1419 1.524 . S
C1420 C1421 1.397 . S
C1420 C1425 1.363 . S
C1421 H1392 0.950 . S
C1421 C1420 1.397 . S
C1421 C1422 1.334 . S
C1422 H1393 0.950 . S
C1422 C1421 1.334 . S
C1422 C1423 1.287 . S
C1423 C1422 1.287 . S
C1423 C1424 1.524 . S
C1423 H1426 0.999 . S
C1424 H1394 0.950 . S
C1424 C1423 1.524 . S
C1424 C1425 1.415 . S
C1425 H1395 0.950 . S
C1425 C1420 1.363 . S
C1425 C1424 1.415 . S
H1426 C1423 0.999 . S
H1427 C1408 0.913 . S
H1428 C1446 0.951 . S
H1429 C1448 0.951 . S
H1430 C1450 0.950 . S
H1431 C1451 0.950 . S
H1432 C1453 0.950 . S
H1433 C1456 0.950 . S
H1434 C1457 0.950 . S
H1435 C1459 0.950 . S
H1436 C1460 0.950 . S
H1437 C1461 0.951 . S
H1438 C1463 0.951 . S
H1439 C1465 0.950 . S
H1440 C1466 0.950 . S
H1441 C1468 0.950 . S
H1442 C1471 0.950 . S
H1443 C1472 0.950 . S
H1444 C1474 0.950 . S
H1445 C1475 0.950 . S
C1446 H1428 0.951 . S
C1446 C1447 1.366 . S
C1446 C1448 1.388 . S
C1447 C1446 1.366 . S
C1447 C1451 1.385 . S
C1448 H1429 0.951 . S
C1448 C1446 1.388 . S
C1448 C1449 1.366 . S
C1449 C1448 1.366 . S
C1449 C1450 1.414 . S
C1449 C1452 1.499 . S
C1450 H1430 0.950 . S
C1450 C1449 1.414 . S
C1450 C1451 1.374 . S
C1451 H1431 0.950 . S
C1451 C1447 1.385 . S
C1451 C1450 1.374 . S
C1452 C1449 1.499 . S
C1452 C1453 1.373 . S
C1452 C1454 1.389 . S
C1453 H1432 0.950 . S
C1453 C1452 1.373 . S
C1453 C1469 1.377 . S
C1454 C1452 1.389 . S
C1454 C1455 1.524 . S
C1454 C1468 1.377 . S
C1455 C1454 1.524 . S
C1455 C1456 1.397 . S
C1455 C1460 1.363 . S
C1456 H1433 0.950 . S
C1456 C1455 1.397 . S
C1456 C1457 1.334 . S
C1457 H1434 0.950 . S
C1457 C1456 1.334 . S
C1457 C1458 1.287 . S
C1458 C1457 1.287 . S
C1458 C1459 1.524 . S
C1458 H1477 0.913 . S
C1459 H1435 0.950 . S
C1459 C1458 1.524 . S
C1459 C1460 1.415 . S
C1460 H1436 0.950 . S
C1460 C1455 1.363 . S
C1460 C1459 1.415 . S
C1461 H1437 0.951 . S
C1461 C1462 1.366 . S
C1461 C1463 1.388 . S
C1462 C1461 1.366 . S
C1462 C1466 1.385 . S
C1463 H1438 0.951 . S
C1463 C1461 1.388 . S
C1463 C1464 1.366 . S
C1464 C1463 1.366 . S
C1464 C1465 1.414 . S
C1464 C1467 1.499 . S
C1465 H1439 0.950 . S
C1465 C1464 1.414 . S
C1465 C1466 1.374 . S
C1466 H1440 0.950 . S
C1466 C1462 1.385 . S
C1466 C1465 1.374 . S
C1467 C1464 1.499 . S
C1467 C1468 1.373 . S
C1467 C1469 1.389 . S
C1468 H1441 0.950 . S
C1468 C1454 1.377 . S
C1468 C1467 1.373 . S
C1469 C1453 1.377 . S
C1469 C1467 1.389 . S
C1469 C1470 1.524 . S
C1470 C1469 1.524 . S
C1470 C1471 1.397 . S
C1470 C1475 1.363 . S
C1471 H1442 0.950 . S
C1471 C1470 1.397 . S
C1471 C1472 1.334 . S
C1472 H1443 0.950 . S
C1472 C1471 1.334 . S
C1472 C1473 1.287 . S
C1473 C1472 1.287 . S
C1473 C1474 1.524 . S
C1473 H1476 0.999 . S
C1474 H1444 0.950 . S
C1474 C1473 1.524 . S
C1474 C1475 1.415 . S
C1475 H1445 0.950 . S
C1475 C1470 1.363 . S
C1475 C1474 1.415 . S
H1476 C1473 0.999 . S
H1477 C1458 0.913 . S
H1478 C1496 0.951 . S
H1479 C1498 0.951 . S
H1480 C1500 0.950 . S
H1481 C1501 0.950 . S
H1482 C1503 0.950 . S
H1483 C1506 0.950 . S
H1484 C1507 0.950 . S
H1485 C1509 0.950 . S
H1486 C1510 0.950 . S
H1487 C1511 0.951 . S
H1488 C1513 0.951 . S
H1489 C1515 0.950 . S
H1490 C1516 0.950 . S
H1491 C1518 0.950 . S
H1492 C1521 0.950 . S
H1493 C1522 0.950 . S
H1494 C1524 0.950 . S
H1495 C1525 0.950 . S
C1496 H1478 0.951 . S
C1496 C1497 1.366 . S
C1496 C1498 1.388 . S
C1497 C1496 1.366 . S
C1497 C1501 1.385 . S
C1498 H1479 0.951 . S
C1498 C1496 1.388 . S
C1498 C1499 1.366 . S
C1499 C1498 1.366 . S
C1499 C1500 1.414 . S
C1499 C1502 1.499 . S
C1500 H1480 0.950 . S
C1500 C1499 1.414 . S
C1500 C1501 1.374 . S
C1501 H1481 0.950 . S
C1501 C1497 1.385 . S
C1501 C1500 1.374 . S
C1502 C1499 1.499 . S
C1502 C1503 1.373 . S
C1502 C1504 1.389 . S
C1503 H1482 0.950 . S
C1503 C1502 1.373 . S
C1503 C1519 1.377 . S
C1504 C1502 1.389 . S
C1504 C1505 1.524 . S
C1504 C1518 1.377 . S
C1505 C1504 1.524 . S
C1505 C1506 1.397 . S
C1505 C1510 1.363 . S
C1506 H1483 0.950 . S
C1506 C1505 1.397 . S
C1506 C1507 1.334 . S
C1507 H1484 0.950 . S
C1507 C1506 1.334 . S
C1507 C1508 1.287 . S
C1508 C1507 1.287 . S
C1508 C1509 1.524 . S
C1508 H1527 0.913 . S
C1509 H1485 0.950 . S
C1509 C1508 1.524 . S
C1509 C1510 1.415 . S
C1510 H1486 0.950 . S
C1510 C1505 1.363 . S
C1510 C1509 1.415 . S
C1511 H1487 0.951 . S
C1511 C1512 1.366 . S
C1511 C1513 1.388 . S
C1512 C1511 1.366 . S
C1512 C1516 1.385 . S
C1513 H1488 0.951 . S
C1513 C1511 1.388 . S
C1513 C1514 1.366 . S
C1514 C1513 1.366 . S
C1514 C1515 1.414 . S
C1514 C1517 1.499 . S
C1515 H1489 0.950 . S
C1515 C1514 1.414 . S
C1515 C1516 1.374 . S
C1516 H1490 0.950 . S
C1516 C1512 1.385 . S
C1516 C1515 1.374 . S
C1517 C1514 1.499 . S
C1517 C1518 1.373 . S
C1517 C1519 1.389 . S
C1518 H1491 0.950 . S
C1518 C1504 1.377 . S
C1518 C1517 1.373 . S
C1519 C1503 1.377 . S
C1519 C1517 1.389 . S
C1519 C1520 1.524 . S
C1520 C1519 1.524 . S
C1520 C1521 1.397 . S
C1520 C1525 1.363 . S
C1521 H1492 0.950 . S
C1521 C1520 1.397 . S
C1521 C1522 1.334 . S
C1522 H1493 0.950 . S
C1522 C1521 1.334 . S
C1522 C1523 1.287 . S
C1523 C1522 1.287 . S
C1523 C1524 1.524 . S
C1523 H1526 0.999 . S
C1524 H1494 0.950 . S
C1524 C1523 1.524 . S
C1524 C1525 1.415 . S
C1525 H1495 0.950 . S
C1525 C1520 1.363 . S
C1525 C1524 1.415 . S
H1526 C1523 0.999 . S
H1527 C1508 0.913 . S
H1528 C1546 0.951 . S
H1529 C1548 0.951 . S
H1530 C1550 0.950 . S
H1531 C1551 0.950 . S
H1532 C1553 0.950 . S
H1533 C1556 0.950 . S
H1534 C1557 0.950 . S
H1535 C1559 0.950 . S
H1536 C1560 0.950 . S
H1537 C1561 0.951 . S
H1538 C1563 0.951 . S
H1539 C1565 0.950 . S
H1540 C1566 0.950 . S
H1541 C1568 0.950 . S
H1542 C1571 0.950 . S
H1543 C1572 0.950 . S
H1544 C1574 0.950 . S
H1545 C1575 0.950 . S
C1546 H1528 0.951 . S
C1546 C1547 1.366 . S
C1546 C1548 1.388 . S
C1547 C1546 1.366 . S
C1547 C1551 1.385 . S
C1548 H1529 0.951 . S
C1548 C1546 1.388 . S
C1548 C1549 1.366 . S
C1549 C1548 1.366 . S
C1549 C1550 1.414 . S
C1549 C1552 1.499 . S
C1550 H1530 0.950 . S
C1550 C1549 1.414 . S
C1550 C1551 1.374 . S
C1551 H1531 0.950 . S
C1551 C1547 1.385 . S
C1551 C1550 1.374 . S
C1552 C1549 1.499 . S
C1552 C1553 1.373 . S
C1552 C1554 1.389 . S
C1553 H1532 0.950 . S
C1553 C1552 1.373 . S
C1553 C1569 1.377 . S
C1554 C1552 1.389 . S
C1554 C1555 1.524 . S
C1554 C1568 1.377 . S
C1555 C1554 1.524 . S
C1555 C1556 1.397 . S
C1555 C1560 1.363 . S
C1556 H1533 0.950 . S
C1556 C1555 1.397 . S
C1556 C1557 1.334 . S
C1557 H1534 0.950 . S
C1557 C1556 1.334 . S
C1557 C1558 1.287 . S
C1558 C1557 1.287 . S
C1558 C1559 1.524 . S
C1558 H1577 0.913 . S
C1559 H1535 0.950 . S
C1559 C1558 1.524 . S
C1559 C1560 1.415 . S
C1560 H1536 0.950 . S
C1560 C1555 1.363 . S
C1560 C1559 1.415 . S
C1561 H1537 0.951 . S
C1561 C1562 1.366 . S
C1561 C1563 1.388 . S
C1562 C1561 1.366 . S
C1562 C1566 1.385 . S
C1563 H1538 0.951 . S
C1563 C1561 1.388 . S
C1563 C1564 1.366 . S
C1564 C1563 1.366 . S
C1564 C1565 1.414 . S
C1564 C1567 1.499 . S
C1565 H1539 0.950 . S
C1565 C1564 1.414 . S
C1565 C1566 1.374 . S
C1566 H1540 0.950 . S
C1566 C1562 1.385 . S
C1566 C1565 1.374 . S
C1567 C1564 1.499 . S
C1567 C1568 1.373 . S
C1567 C1569 1.389 . S
C1568 H1541 0.950 . S
C1568 C1554 1.377 . S
C1568 C1567 1.373 . S
C1569 C1553 1.377 . S
C1569 C1567 1.389 . S
C1569 C1570 1.524 . S
C1570 C1569 1.524 . S
C1570 C1571 1.397 . S
C1570 C1575 1.363 . S
C1571 H1542 0.950 . S
C1571 C1570 1.397 . S
C1571 C1572 1.334 . S
C1572 H1543 0.950 . S
C1572 C1571 1.334 . S
C1572 C1573 1.287 . S
C1573 C1572 1.287 . S
C1573 C1574 1.524 . S
C1573 H1576 0.999 . S
C1574 H1544 0.950 . S
C1574 C1573 1.524 . S
C1574 C1575 1.415 . S
C1575 H1545 0.950 . S
C1575 C1570 1.363 . S
C1575 C1574 1.415 . S
H1576 C1573 0.999 . S
H1577 C1558 0.913 . S
H1578 C1596 0.951 . S
H1579 C1598 0.951 . S
H1580 C1600 0.950 . S
H1581 C1601 0.950 . S
H1582 C1603 0.950 . S
H1583 C1606 0.950 . S
H1584 C1607 0.950 . S
H1585 C1609 0.950 . S
H1586 C1610 0.950 . S
H1587 C1611 0.951 . S
H1588 C1613 0.951 . S
H1589 C1615 0.950 . S
H1590 C1616 0.950 . S
H1591 C1618 0.950 . S
H1592 C1621 0.950 . S
H1593 C1622 0.950 . S
H1594 C1624 0.950 . S
H1595 C1625 0.950 . S
C1596 H1578 0.951 . S
C1596 C1597 1.366 . S
C1596 C1598 1.388 . S
C1597 C1596 1.366 . S
C1597 C1601 1.385 . S
C1598 H1579 0.951 . S
C1598 C1596 1.388 . S
C1598 C1599 1.366 . S
C1599 C1598 1.366 . S
C1599 C1600 1.414 . S
C1599 C1602 1.499 . S
C1600 H1580 0.950 . S
C1600 C1599 1.414 . S
C1600 C1601 1.374 . S
C1601 H1581 0.950 . S
C1601 C1597 1.385 . S
C1601 C1600 1.374 . S
C1602 C1599 1.499 . S
C1602 C1603 1.373 . S
C1602 C1604 1.389 . S
C1603 H1582 0.950 . S
C1603 C1602 1.373 . S
C1603 C1619 1.377 . S
C1604 C1602 1.389 . S
C1604 C1605 1.524 . S
C1604 C1618 1.377 . S
C1605 C1604 1.524 . S
C1605 C1606 1.397 . S
C1605 C1610 1.363 . S
C1606 H1583 0.950 . S
C1606 C1605 1.397 . S
C1606 C1607 1.334 . S
C1607 H1584 0.950 . S
C1607 C1606 1.334 . S
C1607 C1608 1.287 . S
C1608 C1607 1.287 . S
C1608 C1609 1.524 . S
C1608 H1627 0.913 . S
C1609 H1585 0.950 . S
C1609 C1608 1.524 . S
C1609 C1610 1.415 . S
C1610 H1586 0.950 . S
C1610 C1605 1.363 . S
C1610 C1609 1.415 . S
C1611 H1587 0.951 . S
C1611 C1612 1.366 . S
C1611 C1613 1.388 . S
C1612 C1611 1.366 . S
C1612 C1616 1.385 . S
C1613 H1588 0.951 . S
C1613 C1611 1.388 . S
C1613 C1614 1.366 . S
C1614 C1613 1.366 . S
C1614 C1615 1.414 . S
C1614 C1617 1.499 . S
C1615 H1589 0.950 . S
C1615 C1614 1.414 . S
C1615 C1616 1.374 . S
C1616 H1590 0.950 . S
C1616 C1612 1.385 . S
C1616 C1615 1.374 . S
C1617 C1614 1.499 . S
C1617 C1618 1.373 . S
C1617 C1619 1.389 . S
C1618 H1591 0.950 . S
C1618 C1604 1.377 . S
C1618 C1617 1.373 . S
C1619 C1603 1.377 . S
C1619 C1617 1.389 . S
C1619 C1620 1.524 . S
C1620 C1619 1.524 . S
C1620 C1621 1.397 . S
C1620 C1625 1.363 . S
C1621 H1592 0.950 . S
C1621 C1620 1.397 . S
C1621 C1622 1.334 . S
C1622 H1593 0.950 . S
C1622 C1621 1.334 . S
C1622 C1623 1.287 . S
C1623 C1622 1.287 . S
C1623 C1624 1.524 . S
C1623 H1626 0.999 . S
C1624 H1594 0.950 . S
C1624 C1623 1.524 . S
C1624 C1625 1.415 . S
C1625 H1595 0.950 . S
C1625 C1620 1.363 . S
C1625 C1624 1.415 . S
H1626 C1623 0.999 . S
H1627 C1608 0.913 . S
H1628 C1646 0.951 . S
H1629 C1648 0.951 . S
H1630 C1650 0.950 . S
H1631 C1651 0.950 . S
H1632 C1653 0.950 . S
H1633 C1656 0.950 . S
H1634 C1657 0.950 . S
H1635 C1659 0.950 . S
H1636 C1660 0.950 . S
H1637 C1661 0.951 . S
H1638 C1663 0.951 . S
H1639 C1665 0.950 . S
H1640 C1666 0.950 . S
H1641 C1668 0.950 . S
H1642 C1671 0.950 . S
H1643 C1672 0.950 . S
H1644 C1674 0.950 . S
H1645 C1675 0.950 . S
C1646 H1628 0.951 . S
C1646 C1647 1.366 . S
C1646 C1648 1.388 . S
C1647 C1646 1.366 . S
C1647 C1651 1.385 . S
C1648 H1629 0.951 . S
C1648 C1646 1.388 . S
C1648 C1649 1.366 . S
C1649 C1648 1.366 . S
C1649 C1650 1.414 . S
C1649 C1652 1.499 . S
C1650 H1630 0.950 . S
C1650 C1649 1.414 . S
C1650 C1651 1.374 . S
C1651 H1631 0.950 . S
C1651 C1647 1.385 . S
C1651 C1650 1.374 . S
C1652 C1649 1.499 . S
C1652 C1653 1.373 . S
C1652 C1654 1.389 . S
C1653 H1632 0.950 . S
C1653 C1652 1.373 . S
C1653 C1669 1.377 . S
C1654 C1652 1.389 . S
C1654 C1655 1.524 . S
C1654 C1668 1.377 . S
C1655 C1654 1.524 . S
C1655 C1656 1.397 . S
C1655 C1660 1.363 . S
C1656 H1633 0.950 . S
C1656 C1655 1.397 . S
C1656 C1657 1.334 . S
C1657 H1634 0.950 . S
C1657 C1656 1.334 . S
C1657 C1658 1.287 . S
C1658 C1657 1.287 . S
C1658 C1659 1.524 . S
C1658 H1677 0.913 . S
C1659 H1635 0.950 . S
C1659 C1658 1.524 . S
C1659 C1660 1.415 . S
C1660 H1636 0.950 . S
C1660 C1655 1.363 . S
C1660 C1659 1.415 . S
C1661 H1637 0.951 . S
C1661 C1662 1.366 . S
C1661 C1663 1.388 . S
C1662 C1661 1.366 . S
C1662 C1666 1.385 . S
C1663 H1638 0.951 . S
C1663 C1661 1.388 . S
C1663 C1664 1.366 . S
C1664 C1663 1.366 . S
C1664 C1665 1.414 . S
C1664 C1667 1.499 . S
C1665 H1639 0.950 . S
C1665 C1664 1.414 . S
C1665 C1666 1.374 . S
C1666 H1640 0.950 . S
C1666 C1662 1.385 . S
C1666 C1665 1.374 . S
C1667 C1664 1.499 . S
C1667 C1668 1.373 . S
C1667 C1669 1.389 . S
C1668 H1641 0.950 . S
C1668 C1654 1.377 . S
C1668 C1667 1.373 . S
C1669 C1653 1.377 . S
C1669 C1667 1.389 . S
C1669 C1670 1.524 . S
C1670 C1669 1.524 . S
C1670 C1671 1.397 . S
C1670 C1675 1.363 . S
C1671 H1642 0.950 . S
C1671 C1670 1.397 . S
C1671 C1672 1.334 . S
C1672 H1643 0.950 . S
C1672 C1671 1.334 . S
C1672 C1673 1.287 . S
C1673 C1672 1.287 . S
C1673 C1674 1.524 . S
C1673 H1676 0.999 . S
C1674 H1644 0.950 . S
C1674 C1673 1.524 . S
C1674 C1675 1.415 . S
C1675 H1645 0.950 . S
C1675 C1670 1.363 . S
C1675 C1674 1.415 . S
H1676 C1673 0.999 . S
H1677 C1658 0.913 . S
H1678 C1696 0.951 . S
H1679 C1698 0.951 . S
H1680 C1700 0.950 . S
H1681 C1701 0.950 . S
H1682 C1703 0.950 . S
H1683 C1706 0.950 . S
H1684 C1707 0.950 . S
H1685 C1709 0.950 . S
H1686 C1710 0.950 . S
H1687 C1711 0.951 . S
H1688 C1713 0.951 . S
H1689 C1715 0.950 . S
H1690 C1716 0.950 . S
H1691 C1718 0.950 . S
H1692 C1721 0.950 . S
H1693 C1722 0.950 . S
H1694 C1724 0.950 . S
H1695 C1725 0.950 . S
C1696 H1678 0.951 . S
C1696 C1697 1.366 . S
C1696 C1698 1.388 . S
C1697 C1696 1.366 . S
C1697 C1701 1.385 . S
C1698 H1679 0.951 . S
C1698 C1696 1.388 . S
C1698 C1699 1.366 . S
C1699 C1698 1.366 . S
C1699 C1700 1.414 . S
C1699 C1702 1.499 . S
C1700 H1680 0.950 . S
C1700 C1699 1.414 . S
C1700 C1701 1.374 . S
C1701 H1681 0.950 . S
C1701 C1697 1.385 . S
C1701 C1700 1.374 . S
C1702 C1699 1.499 . S
C1702 C1703 1.373 . S
C1702 C1704 1.389 . S
C1703 H1682 0.950 . S
C1703 C1702 1.373 . S
C1703 C1719 1.377 . S
C1704 C1702 1.389 . S
C1704 C1705 1.524 . S
C1704 C1718 1.377 . S
C1705 C1704 1.524 . S
C1705 C1706 1.397 . S
C1705 C1710 1.363 . S
C1706 H1683 0.950 . S
C1706 C1705 1.397 . S
C1706 C1707 1.334 . S
C1707 H1684 0.950 . S
C1707 C1706 1.334 . S
C1707 C1708 1.287 . S
C1708 C1707 1.287 . S
C1708 C1709 1.524 . S
C1708 H1727 0.913 . S
C1709 H1685 0.950 . S
C1709 C1708 1.524 . S
C1709 C1710 1.415 . S
C1710 H1686 0.950 . S
C1710 C1705 1.363 . S
C1710 C1709 1.415 . S
C1711 H1687 0.951 . S
C1711 C1712 1.366 . S
C1711 C1713 1.388 . S
C1712 C1711 1.366 . S
C1712 C1716 1.385 . S
C1713 H1688 0.951 . S
C1713 C1711 1.388 . S
C1713 C1714 1.366 . S
C1714 C1713 1.366 . S
C1714 C1715 1.414 . S
C1714 C1717 1.499 . S
C1715 H1689 0.950 . S
C1715 C1714 1.414 . S
C1715 C1716 1.374 . S
C1716 H1690 0.950 . S
C1716 C1712 1.385 . S
C1716 C1715 1.374 . S
C1717 C1714 1.499 . S
C1717 C1718 1.373 . S
C1717 C1719 1.389 . S
C1718 H1691 0.950 . S
C1718 C1704 1.377 . S
C1718 C1717 1.373 . S
C1719 C1703 1.377 . S
C1719 C1717 1.389 . S
C1719 C1720 1.524 . S
C1720 C1719 1.524 . S
C1720 C1721 1.397 . S
C1720 C1725 1.363 . S
C1721 H1692 0.950 . S
C1721 C1720 1.397 . S
C1721 C1722 1.334 . S
C1722 H1693 0.950 . S
C1722 C1721 1.334 . S
C1722 C1723 1.287 . S
C1723 C1722 1.287 . S
C1723 C1724 1.524 . S
C1723 H1726 0.999 . S
C1724 H1694 0.950 . S
C1724 C1723 1.524 . S
C1724 C1725 1.415 . S
C1725 H1695 0.950 . S
C1725 C1720 1.363 . S
C1725 C1724 1.415 . S
H1726 C1723 0.999 . S
H1727 C1708 0.913 . S
H1728 C1746 0.951 . S
H1729 C1748 0.951 . S
H1730 C1750 0.950 . S
H1731 C1751 0.950 . S
H1732 C1753 0.950 . S
H1733 C1756 0.950 . S
H1734 C1757 0.950 . S
H1735 C1759 0.950 . S
H1736 C1760 0.950 . S
H1737 C1761 0.951 . S
H1738 C1763 0.951 . S
H1739 C1765 0.950 . S
H1740 C1766 0.950 . S
H1741 C1768 0.950 . S
H1742 C1771 0.950 . S
H1743 C1772 0.950 . S
H1744 C1774 0.950 . S
H1745 C1775 0.950 . S
C1746 H1728 0.951 . S
C1746 C1747 1.366 . S
C1746 C1748 1.388 . S
C1747 C1746 1.366 . S
C1747 C1751 1.385 . S
C1748 H1729 0.951 . S
C1748 C1746 1.388 . S
C1748 C1749 1.366 . S
C1749 C1748 1.366 . S
C1749 C1750 1.414 . S
C1749 C1752 1.499 . S
C1750 H1730 0.950 . S
C1750 C1749 1.414 . S
C1750 C1751 1.374 . S
C1751 H1731 0.950 . S
C1751 C1747 1.385 . S
C1751 C1750 1.374 . S
C1752 C1749 1.499 . S
C1752 C1753 1.373 . S
C1752 C1754 1.389 . S
C1753 H1732 0.950 . S
C1753 C1752 1.373 . S
C1753 C1769 1.377 . S
C1754 C1752 1.389 . S
C1754 C1755 1.524 . S
C1754 C1768 1.377 . S
C1755 C1754 1.524 . S
C1755 C1756 1.397 . S
C1755 C1760 1.363 . S
C1756 H1733 0.950 . S
C1756 C1755 1.397 . S
C1756 C1757 1.334 . S
C1757 H1734 0.950 . S
C1757 C1756 1.334 . S
C1757 C1758 1.287 . S
C1758 C1757 1.287 . S
C1758 C1759 1.524 . S
C1758 H1777 0.913 . S
C1759 H1735 0.950 . S
C1759 C1758 1.524 . S
C1759 C1760 1.415 . S
C1760 H1736 0.950 . S
C1760 C1755 1.363 . S
C1760 C1759 1.415 . S
C1761 H1737 0.951 . S
C1761 C1762 1.366 . S
C1761 C1763 1.388 . S
C1762 C1761 1.366 . S
C1762 C1766 1.385 . S
C1763 H1738 0.951 . S
C1763 C1761 1.388 . S
C1763 C1764 1.366 . S
C1764 C1763 1.366 . S
C1764 C1765 1.414 . S
C1764 C1767 1.499 . S
C1765 H1739 0.950 . S
C1765 C1764 1.414 . S
C1765 C1766 1.374 . S
C1766 H1740 0.950 . S
C1766 C1762 1.385 . S
C1766 C1765 1.374 . S
C1767 C1764 1.499 . S
C1767 C1768 1.373 . S
C1767 C1769 1.389 . S
C1768 H1741 0.950 . S
C1768 C1754 1.377 . S
C1768 C1767 1.373 . S
C1769 C1753 1.377 . S
C1769 C1767 1.389 . S
C1769 C1770 1.524 . S
C1770 C1769 1.524 . S
C1770 C1771 1.397 . S
C1770 C1775 1.363 . S
C1771 H1742 0.950 . S
C1771 C1770 1.397 . S
C1771 C1772 1.334 . S
C1772 H1743 0.950 . S
C1772 C1771 1.334 . S
C1772 C1773 1.287 . S
C1773 C1772 1.287 . S
C1773 C1774 1.524 . S
C1773 H1776 0.999 . S
C1774 H1744 0.950 . S
C1774 C1773 1.524 . S
C1774 C1775 1.415 . S
C1775 H1745 0.950 . S
C1775 C1770 1.363 . S
C1775 C1774 1.415 . S
H1776 C1773 0.999 . S
H1777 C1758 0.913 . S
H1778 C1796 0.951 . S
H1779 C1798 0.951 . S
H1780 C1800 0.950 . S
H1781 C1801 0.950 . S
H1782 C1803 0.950 . S
H1783 C1806 0.950 . S
H1784 C1807 0.950 . S
H1785 C1809 0.950 . S
H1786 C1810 0.950 . S
H1787 C1811 0.951 . S
H1788 C1813 0.951 . S
H1789 C1815 0.950 . S
H1790 C1816 0.950 . S
H1791 C1818 0.950 . S
H1792 C1821 0.950 . S
H1793 C1822 0.950 . S
H1794 C1824 0.950 . S
H1795 C1825 0.950 . S
C1796 H1778 0.951 . S
C1796 C1797 1.366 . S
C1796 C1798 1.388 . S
C1797 C1796 1.366 . S
C1797 C1801 1.385 . S
C1798 H1779 0.951 . S
C1798 C1796 1.388 . S
C1798 C1799 1.366 . S
C1799 C1798 1.366 . S
C1799 C1800 1.414 . S
C1799 C1802 1.499 . S
C1800 H1780 0.950 . S
C1800 C1799 1.414 . S
C1800 C1801 1.374 . S
C1801 H1781 0.950 . S
C1801 C1797 1.385 . S
C1801 C1800 1.374 . S
C1802 C1799 1.499 . S
C1802 C1803 1.373 . S
C1802 C1804 1.389 . S
C1803 H1782 0.950 . S
C1803 C1802 1.373 . S
C1803 C1819 1.377 . S
C1804 C1802 1.389 . S
C1804 C1805 1.524 . S
C1804 C1818 1.377 . S
C1805 C1804 1.524 . S
C1805 C1806 1.397 . S
C1805 C1810 1.363 . S
C1806 H1783 0.950 . S
C1806 C1805 1.397 . S
C1806 C1807 1.334 . S
C1807 H1784 0.950 . S
C1807 C1806 1.334 . S
C1807 C1808 1.287 . S
C1808 C1807 1.287 . S
C1808 C1809 1.524 . S
C1808 H1827 0.913 . S
C1809 H1785 0.950 . S
C1809 C1808 1.524 . S
C1809 C1810 1.415 . S
C1810 H1786 0.950 . S
C1810 C1805 1.363 . S
C1810 C1809 1.415 . S
C1811 H1787 0.951 . S
C1811 C1812 1.366 . S
C1811 C1813 1.388 . S
C1812 C1811 1.366 . S
C1812 C1816 1.385 . S
C1813 H1788 0.951 . S
C1813 C1811 1.388 . S
C1813 C1814 1.366 . S
C1814 C1813 1.366 . S
C1814 C1815 1.414 . S
C1814 C1817 1.499 . S
C1815 H1789 0.950 . S
C1815 C1814 1.414 . S
C1815 C1816 1.374 . S
C1816 H1790 0.950 . S
C1816 C1812 1.385 . S
C1816 C1815 1.374 . S
C1817 C1814 1.499 . S
C1817 C1818 1.373 . S
C1817 C1819 1.389 . S
C1818 H1791 0.950 . S
C1818 C1804 1.377 . S
C1818 C1817 1.373 . S
C1819 C1803 1.377 . S
C1819 C1817 1.389 . S
C1819 C1820 1.524 . S
C1820 C1819 1.524 . S
C1820 C1821 1.397 . S
C1820 C1825 1.363 . S
C1821 H1792 0.950 . S
C1821 C1820 1.397 . S
C1821 C1822 1.334 . S
C1822 H1793 0.950 . S
C1822 C1821 1.334 . S
C1822 C1823 1.287 . S
C1823 C1822 1.287 . S
C1823 C1824 1.524 . S
C1823 H1826 0.999 . S
C1824 H1794 0.950 . S
C1824 C1823 1.524 . S
C1824 C1825 1.415 . S
C1825 H1795 0.950 . S
C1825 C1820 1.363 . S
C1825 C1824 1.415 . S
H1826 C1823 0.999 . S
H1827 C1808 0.913 . S
H1828 C1846 0.951 . S
H1829 C1848 0.951 . S
H1830 C1850 0.950 . S
H1831 C1851 0.950 . S
H1832 C1853 0.950 . S
H1833 C1856 0.950 . S
H1834 C1857 0.950 . S
H1835 C1859 0.950 . S
H1836 C1860 0.950 . S
H1837 C1861 0.951 . S
H1838 C1863 0.951 . S
H1839 C1865 0.950 . S
H1840 C1866 0.950 . S
H1841 C1868 0.950 . S
H1842 C1871 0.950 . S
H1843 C1872 0.950 . S
H1844 C1874 0.950 . S
H1845 C1875 0.950 . S
C1846 H1828 0.951 . S
C1846 C1847 1.366 . S
C1846 C1848 1.388 . S
C1847 C1846 1.366 . S
C1847 C1851 1.385 . S
C1848 H1829 0.951 . S
C1848 C1846 1.388 . S
C1848 C1849 1.366 . S
C1849 C1848 1.366 . S
C1849 C1850 1.414 . S
C1849 C1852 1.499 . S
C1850 H1830 0.950 . S
C1850 C1849 1.414 . S
C1850 C1851 1.374 . S
C1851 H1831 0.950 . S
C1851 C1847 1.385 . S
C1851 C1850 1.374 . S
C1852 C1849 1.499 . S
C1852 C1853 1.373 . S
C1852 C1854 1.389 . S
C1853 H1832 0.950 . S
C1853 C1852 1.373 . S
C1853 C1869 1.377 . S
C1854 C1852 1.389 . S
C1854 C1855 1.524 . S
C1854 C1868 1.377 . S
C1855 C1854 1.524 . S
C1855 C1856 1.397 . S
C1855 C1860 1.363 . S
C1856 H1833 0.950 . S
C1856 C1855 1.397 . S
C1856 C1857 1.334 . S
C1857 H1834 0.950 . S
C1857 C1856 1.334 . S
C1857 C1858 1.287 . S
C1858 C1857 1.287 . S
C1858 C1859 1.524 . S
C1858 H1877 0.913 . S
C1859 H1835 0.950 . S
C1859 C1858 1.524 . S
C1859 C1860 1.415 . S
C1860 H1836 0.950 . S
C1860 C1855 1.363 . S
C1860 C1859 1.415 . S
C1861 H1837 0.951 . S
C1861 C1862 1.366 . S
C1861 C1863 1.388 . S
C1862 C1861 1.366 . S
C1862 C1866 1.385 . S
C1863 H1838 0.951 . S
C1863 C1861 1.388 . S
C1863 C1864 1.366 . S
C1864 C1863 1.366 . S
C1864 C1865 1.414 . S
C1864 C1867 1.499 . S
C1865 H1839 0.950 . S
C1865 C1864 1.414 . S
C1865 C1866 1.374 . S
C1866 H1840 0.950 . S
C1866 C1862 1.385 . S
C1866 C1865 1.374 . S
C1867 C1864 1.499 . S
C1867 C1868 1.373 . S
C1867 C1869 1.389 . S
C1868 H1841 0.950 . S
C1868 C1854 1.377 . S
C1868 C1867 1.373 . S
C1869 C1853 1.377 . S
C1869 C1867 1.389 . S
C1869 C1870 1.524 . S
C1870 C1869 1.524 . S
C1870 C1871 1.397 . S
C1870 C1875 1.363 . S
C1871 H1842 0.950 . S
C1871 C1870 1.397 . S
C1871 C1872 1.334 . S
C1872 H1843 0.950 . S
C1872 C1871 1.334 . S
C1872 C1873 1.287 . S
C1873 C1872 1.287 . S
C1873 C1874 1.524 . S
C1873 H1876 0.999 . S
C1874 H1844 0.950 . S
C1874 C1873 1.524 . S
C1874 C1875 1.415 . S
C1875 H1845 0.950 . S
C1875 C1870 1.363 . S
C1875 C1874 1.415 . S
H1876 C1873 0.999 . S
H1877 C1858 0.913 . S
H1878 C1896 0.951 . S
H1879 C1898 0.951 . S
H1880 C1900 0.950 . S
H1881 C1901 0.950 . S
H1882 C1903 0.950 . S
H1883 C1906 0.950 . S
H1884 C1907 0.950 . S
H1885 C1909 0.950 . S
H1886 C1910 0.950 . S
H1887 C1911 0.951 . S
H1888 C1913 0.951 . S
H1889 C1915 0.950 . S
H1890 C1916 0.950 . S
H1891 C1918 0.950 . S
H1892 C1921 0.950 . S
H1893 C1922 0.950 . S
H1894 C1924 0.950 . S
H1895 C1925 0.950 . S
C1896 H1878 0.951 . S
C1896 C1897 1.366 . S
C1896 C1898 1.388 . S
C1897 C1896 1.366 . S
C1897 C1901 1.385 . S
C1898 H1879 0.951 . S
C1898 C1896 1.388 . S
C1898 C1899 1.366 . S
C1899 C1898 1.366 . S
C1899 C1900 1.414 . S
C1899 C1902 1.499 . S
C1900 H1880 0.950 . S
C1900 C1899 1.414 . S
C1900 C1901 1.374 . S
C1901 H1881 0.950 . S
C1901 C1897 1.385 . S
C1901 C1900 1.374 . S
C1902 C1899 1.499 . S
C1902 C1903 1.373 . S
C1902 C1904 1.389 . S
C1903 H1882 0.950 . S
C1903 C1902 1.373 . S
C1903 C1919 1.377 . S
C1904 C1902 1.389 . S
C1904 C1905 1.524 . S
C1904 C1918 1.377 . S
C1905 C1904 1.524 . S
C1905 C1906 1.397 . S
C1905 C1910 1.363 . S
C1906 H1883 0.950 . S
C1906 C1905 1.397 . S
C1906 C1907 1.334 . S
C1907 H1884 0.950 . S
C1907 C1906 1.334 . S
C1907 C1908 1.287 . S
C1908 C1907 1.287 . S
C1908 C1909 1.524 . S
C1908 H1927 0.913 . S
C1909 H1885 0.950 . S
C1909 C1908 1.524 . S
C1909 C1910 1.415 . S
C1910 H1886 0.950 . S
C1910 C1905 1.363 . S
C1910 C1909 1.415 . S
C1911 H1887 0.951 . S
C1911 C1912 1.366 . S
C1911 C1913 1.388 . S
C1912 C1911 1.366 . S
C1912 C1916 1.385 . S
C1913 H1888 0.951 . S
C1913 C1911 1.388 . S
C1913 C1914 1.366 . S
C1914 C1913 1.366 . S
C1914 C1915 1.414 . S
C1914 C1917 1.499 . S
C1915 H1889 0.950 . S
C1915 C1914 1.414 . S
C1915 C1916 1.374 . S
C1916 H1890 0.950 . S
C1916 C1912 1.385 . S
C1916 C1915 1.374 . S
C1917 C1914 1.499 . S
C1917 C1918 1.373 . S
C1917 C1919 1.389 . S
C1918 H1891 0.950 . S
C1918 C1904 1.377 . S
C1918 C1917 1.373 . S
C1919 C1903 1.377 . S
C1919 C1917 1.389 . S
C1919 C1920 1.524 . S
C1920 C1919 1.524 . S
C1920 C1921 1.397 . S
C1920 C1925 1.363 . S
C1921 H1892 0.950 . S
C1921 C1920 1.397 . S
C1921 C1922 1.334 . S
C1922 H1893 0.950 . S
C1922 C1921 1.334 . S
C1922 C1923 1.287 . S
C1923 C1922 1.287 . S
C1923 C1924 1.524 . S
C1923 H1926 0.999 . S
C1924 H1894 0.950 . S
C1924 C1923 1.524 . S
C1924 C1925 1.415 . S
C1925 H1895 0.950 . S
C1925 C1920 1.363 . S
C1925 C1924 1.415 . S
H1926 C1923 0.999 . S
H1927 C1908 0.913 . S
H1928 C1946 0.951 . S
H1929 C1948 0.951 . S
H1930 C1950 0.950 . S
H1931 C1951 0.950 . S
H1932 C1953 0.950 . S
H1933 C1956 0.950 . S
H1934 C1957 0.950 . S
H1935 C1959 0.950 . S
H1936 C1960 0.950 . S
H1937 C1961 0.951 . S
H1938 C1963 0.951 . S
H1939 C1965 0.950 . S
H1940 C1966 0.950 . S
H1941 C1968 0.950 . S
H1942 C1971 0.950 . S
H1943 C1972 0.950 . S
H1944 C1974 0.950 . S
H1945 C1975 0.950 . S
C1946 H1928 0.951 . S
C1946 C1947 1.366 . S
C1946 C1948 1.388 . S
C1947 C1946 1.366 . S
C1947 C1951 1.385 . S
C1948 H1929 0.951 . S
C1948 C1946 1.388 . S
C1948 C1949 1.366 . S
C1949 C1948 1.366 . S
C1949 C1950 1.414 . S
C1949 C1952 1.499 . S
C1950 H1930 0.950 . S
C1950 C1949 1.414 . S
C1950 C1951 1.374 . S
C1951 H1931 0.950 . S
C1951 C1947 1.385 . S
C1951 C1950 1.374 . S
C1952 C1949 1.499 . S
C1952 C1953 1.373 . S
C1952 C1954 1.389 . S
C1953 H1932 0.950 . S
C1953 C1952 1.373 . S
C1953 C1969 1.377 . S
C1954 C1952 1.389 . S
C1954 C1955 1.524 . S
C1954 C1968 1.377 . S
C1955 C1954 1.524 . S
C1955 C1956 1.397 . S
C1955 C1960 1.363 . S
C1956 H1933 0.950 . S
C1956 C1955 1.397 . S
C1956 C1957 1.334 . S
C1957 H1934 0.950 . S
C1957 C1956 1.334 . S
C1957 C1958 1.287 . S
C1958 C1957 1.287 . S
C1958 C1959 1.524 . S
C1958 H1977 0.913 . S
C1959 H1935 0.950 . S
C1959 C1958 1.524 . S
C1959 C1960 1.415 . S
C1960 H1936 0.950 . S
C1960 C1955 1.363 . S
C1960 C1959 1.415 . S
C1961 H1937 0.951 . S
C1961 C1962 1.366 . S
C1961 C1963 1.388 . S
C1962 C1961 1.366 . S
C1962 C1966 1.385 . S
C1963 H1938 0.951 . S
C1963 C1961 1.388 . S
C1963 C1964 1.366 . S
C1964 C1963 1.366 . S
C1964 C1965 1.414 . S
C1964 C1967 1.499 . S
C1965 H1939 0.950 . S
C1965 C1964 1.414 . S
C1965 C1966 1.374 . S
C1966 H1940 0.950 . S
C1966 C1962 1.385 . S
C1966 C1965 1.374 . S
C1967 C1964 1.499 . S
C1967 C1968 1.373 . S
C1967 C1969 1.389 . S
C1968 H1941 0.950 . S
C1968 C1954 1.377 . S
C1968 C1967 1.373 . S
C1969 C1953 1.377 . S
C1969 C1967 1.389 . S
C1969 C1970 1.524 . S
C1970 C1969 1.524 . S
C1970 C1971 1.397 . S
C1970 C1975 1.363 . S
C1971 H1942 0.950 . S
C1971 C1970 1.397 . S
C1971 C1972 1.334 . S
C1972 H1943 0.950 . S
C1972 C1971 1.334 . S
C1972 C1973 1.287 . S
C1973 C1972 1.287 . S
C1973 C1974 1.524 . S
C1973 H1976 0.999 . S
C1974 H1944 0.950 . S
C1974 C1973 1.524 . S
C1974 C1975 1.415 . S
C1975 H1945 0.950 . S
C1975 C1970 1.363 . S
C1975 C1974 1.415 . S
H1976 C1973 0.999 . S
H1977 C1958 0.913 . S
H1978 C1996 0.951 . S
H1979 C1998 0.951 . S
H1980 C2000 0.950 . S
H1981 C2001 0.950 . S
H1982 C2003 0.950 . S
H1983 C2006 0.950 . S
H1984 C2007 0.950 . S
H1985 C2009 0.950 . S
H1986 C2010 0.950 . S
H1987 C2011 0.951 . S
H1988 C2013 0.951 . S
H1989 C2015 0.950 . S
H1990 C2016 0.950 . S
H1991 C2018 0.950 . S
H1992 C2021 0.950 . S
H1993 C2022 0.950 . S
H1994 C2024 0.950 . S
H1995 C2025 0.950 . S
C1996 H1978 0.951 . S
C1996 C1997 1.366 . S
C1996 C1998 1.388 . S
C1997 C1996 1.366 . S
C1997 C2001 1.385 . S
C1998 H1979 0.951 . S
C1998 C1996 1.388 . S
C1998 C1999 1.366 . S
C1999 C1998 1.366 . S
C1999 C2000 1.414 . S
C1999 C2002 1.499 . S
C2000 H1980 0.950 . S
C2000 C1999 1.414 . S
C2000 C2001 1.374 . S
C2001 H1981 0.950 . S
C2001 C1997 1.385 . S
C2001 C2000 1.374 . S
C2002 C1999 1.499 . S
C2002 C2003 1.373 . S
C2002 C2004 1.389 . S
C2003 H1982 0.950 . S
C2003 C2002 1.373 . S
C2003 C2019 1.377 . S
C2004 C2002 1.389 . S
C2004 C2005 1.524 . S
C2004 C2018 1.377 . S
C2005 C2004 1.524 . S
C2005 C2006 1.397 . S
C2005 C2010 1.363 . S
C2006 H1983 0.950 . S
C2006 C2005 1.397 . S
C2006 C2007 1.334 . S
C2007 H1984 0.950 . S
C2007 C2006 1.334 . S
C2007 C2008 1.287 . S
C2008 C2007 1.287 . S
C2008 C2009 1.524 . S
C2008 H2027 0.913 . S
C2009 H1985 0.950 . S
C2009 C2008 1.524 . S
C2009 C2010 1.415 . S
C2010 H1986 0.950 . S
C2010 C2005 1.363 . S
C2010 C2009 1.415 . S
C2011 H1987 0.951 . S
C2011 C2012 1.366 . S
C2011 C2013 1.388 . S
C2012 C2011 1.366 . S
C2012 C2016 1.385 . S
C2013 H1988 0.951 . S
C2013 C2011 1.388 . S
C2013 C2014 1.366 . S
C2014 C2013 1.366 . S
C2014 C2015 1.414 . S
C2014 C2017 1.499 . S
C2015 H1989 0.950 . S
C2015 C2014 1.414 . S
C2015 C2016 1.374 . S
C2016 H1990 0.950 . S
C2016 C2012 1.385 . S
C2016 C2015 1.374 . S
C2017 C2014 1.499 . S
C2017 C2018 1.373 . S
C2017 C2019 1.389 . S
C2018 H1991 0.950 . S
C2018 C2004 1.377 . S
C2018 C2017 1.373 . S
C2019 C2003 1.377 . S
C2019 C2017 1.389 . S
C2019 C2020 1.524 . S
C2020 C2019 1.524 . S
C2020 C2021 1.397 . S
C2020 C2025 1.363 . S
C2021 H1992 0.950 . S
C2021 C2020 1.397 . S
C2021 C2022 1.334 . S
C2022 H1993 0.950 . S
C2022 C2021 1.334 . S
C2022 C2023 1.287 . S
C2023 C2022 1.287 . S
C2023 C2024 1.524 . S
C2023 H2026 0.999 . S
C2024 H1994 0.950 . S
C2024 C2023 1.524 . S
C2024 C2025 1.415 . S
C2025 H1995 0.950 . S
C2025 C2020 1.363 . S
C2025 C2024 1.415 . S
H2026 C2023 0.999 . S
H2027 C2008 0.913 . S
H2028 C2046 0.951 . S
H2029 C2048 0.951 . S
H2030 C2050 0.950 . S
H2031 C2051 0.950 . S
H2032 C2053 0.950 . S
H2033 C2056 0.950 . S
H2034 C2057 0.950 . S
H2035 C2059 0.950 . S
H2036 C2060 0.950 . S
H2037 C2061 0.951 . S
H2038 C2063 0.951 . S
H2039 C2065 0.950 . S
H2040 C2066 0.950 . S
H2041 C2068 0.950 . S
H2042 C2071 0.950 . S
H2043 C2072 0.950 . S
H2044 C2074 0.950 . S
H2045 C2075 0.950 . S
C2046 H2028 0.951 . S
C2046 C2047 1.366 . S
C2046 C2048 1.388 . S
C2047 C2046 1.366 . S
C2047 C2051 1.385 . S
C2048 H2029 0.951 . S
C2048 C2046 1.388 . S
C2048 C2049 1.366 . S
C2049 C2048 1.366 . S
C2049 C2050 1.414 . S
C2049 C2052 1.499 . S
C2050 H2030 0.950 . S
C2050 C2049 1.414 . S
C2050 C2051 1.374 . S
C2051 H2031 0.950 . S
C2051 C2047 1.385 . S
C2051 C2050 1.374 . S
C2052 C2049 1.499 . S
C2052 C2053 1.373 . S
C2052 C2054 1.389 . S
C2053 H2032 0.950 . S
C2053 C2052 1.373 . S
C2053 C2069 1.377 . S
C2054 C2052 1.389 . S
C2054 C2055 1.524 . S
C2054 C2068 1.377 . S
C2055 C2054 1.524 . S
C2055 C2056 1.397 . S
C2055 C2060 1.363 . S
C2056 H2033 0.950 . S
C2056 C2055 1.397 . S
C2056 C2057 1.334 . S
C2057 H2034 0.950 . S
C2057 C2056 1.334 . S
C2057 C2058 1.287 . S
C2058 C2057 1.287 . S
C2058 C2059 1.524 . S
C2058 H2077 0.913 . S
C2059 H2035 0.950 . S
C2059 C2058 1.524 . S
C2059 C2060 1.415 . S
C2060 H2036 0.950 . S
C2060 C2055 1.363 . S
C2060 C2059 1.415 . S
C2061 H2037 0.951 . S
C2061 C2062 1.366 . S
C2061 C2063 1.388 . S
C2062 C2061 1.366 . S
C2062 C2066 1.385 . S
C2063 H2038 0.951 . S
C2063 C2061 1.388 . S
C2063 C2064 1.366 . S
C2064 C2063 1.366 . S
C2064 C2065 1.414 . S
C2064 C2067 1.499 . S
C2065 H2039 0.950 . S
C2065 C2064 1.414 . S
C2065 C2066 1.374 . S
C2066 H2040 0.950 . S
C2066 C2062 1.385 . S
C2066 C2065 1.374 . S
C2067 C2064 1.499 . S
C2067 C2068 1.373 . S
C2067 C2069 1.389 . S
C2068 H2041 0.950 . S
C2068 C2054 1.377 . S
C2068 C2067 1.373 . S
C2069 C2053 1.377 . S
C2069 C2067 1.389 . S
C2069 C2070 1.524 . S
C2070 C2069 1.524 . S
C2070 C2071 1.397 . S
C2070 C2075 1.363 . S
C2071 H2042 0.950 . S
C2071 C2070 1.397 . S
C2071 C2072 1.334 . S
C2072 H2043 0.950 . S
C2072 C2071 1.334 . S
C2072 C2073 1.287 . S
C2073 C2072 1.287 . S
C2073 C2074 1.524 . S
C2073 H2076 0.999 . S
C2074 H2044 0.950 . S
C2074 C2073 1.524 . S
C2074 C2075 1.415 . S
C2075 H2045 0.950 . S
C2075 C2070 1.363 . S
C2075 C2074 1.415 . S
H2076 C2073 0.999 . S
H2077 C2058 0.913 . S
H2078 C2096 0.951 . S
H2079 C2098 0.951 . S
H2080 C2100 0.950 . S
H2081 C2101 0.950 . S
H2082 C2103 0.950 . S
H2083 C2106 0.950 . S
H2084 C2107 0.950 . S
H2085 C2109 0.950 . S
H2086 C2110 0.950 . S
H2087 C2111 0.951 . S
H2088 C2113 0.951 . S
H2089 C2115 0.950 . S
H2090 C2116 0.950 . S
H2091 C2118 0.950 . S
H2092 C2121 0.950 . S
H2093 C2122 0.950 . S
H2094 C2124 0.950 . S
H2095 C2125 0.950 . S
C2096 H2078 0.951 . S
C2096 C2097 1.366 . S
C2096 C2098 1.388 . S
C2097 C2096 1.366 . S
C2097 C2101 1.385 . S
C2098 H2079 0.951 . S
C2098 C2096 1.388 . S
C2098 C2099 1.366 . S
C2099 C2098 1.366 . S
C2099 C2100 1.414 . S
C2099 C2102 1.499 . S
C2100 H2080 0.950 . S
C2100 C2099 1.414 . S
C2100 C2101 1.374 . S
C2101 H2081 0.950 . S
C2101 C2097 1.385 . S
C2101 C2100 1.374 . S
C2102 C2099 1.499 . S
C2102 C2103 1.373 . S
C2102 C2104 1.389 . S
C2103 H2082 0.950 . S
C2103 C2102 1.373 . S
C2103 C2119 1.377 . S
C2104 C2102 1.389 . S
C2104 C2105 1.524 . S
C2104 C2118 1.377 . S
C2105 C2104 1.524 . S
C2105 C2106 1.397 . S
C2105 C2110 1.363 . S
C2106 H2083 0.950 . S
C2106 C2105 1.397 . S
C2106 C2107 1.334 . S
C2107 H2084 0.950 . S
C2107 C2106 1.334 . S
C2107 C2108 1.287 . S
C2108 C2107 1.287 . S
C2108 C2109 1.524 . S
C2108 H2127 0.913 . S
C2109 H2085 0.950 . S
C2109 C2108 1.524 . S
C2109 C2110 1.415 . S
C2110 H2086 0.950 . S
C2110 C2105 1.363 . S
C2110 C2109 1.415 . S
C2111 H2087 0.951 . S
C2111 C2112 1.366 . S
C2111 C2113 1.388 . S
C2112 C2111 1.366 . S
C2112 C2116 1.385 . S
C2113 H2088 0.951 . S
C2113 C2111 1.388 . S
C2113 C2114 1.366 . S
C2114 C2113 1.366 . S
C2114 C2115 1.414 . S
C2114 C2117 1.499 . S
C2115 H2089 0.950 . S
C2115 C2114 1.414 . S
C2115 C2116 1.374 . S
C2116 H2090 0.950 . S
C2116 C2112 1.385 . S
C2116 C2115 1.374 . S
C2117 C2114 1.499 . S
C2117 C2118 1.373 . S
C2117 C2119 1.389 . S
C2118 H2091 0.950 . S
C2118 C2104 1.377 . S
C2118 C2117 1.373 . S
C2119 C2103 1.377 . S
C2119 C2117 1.389 . S
C2119 C2120 1.524 . S
C2120 C2119 1.524 . S
C2120 C2121 1.397 . S
C2120 C2125 1.363 . S
C2121 H2092 0.950 . S
C2121 C2120 1.397 . S
C2121 C2122 1.334 . S
C2122 H2093 0.950 . S
C2122 C2121 1.334 . S
C2122 C2123 1.287 . S
C2123 C2122 1.287 . S
C2123 C2124 1.524 . S
C2123 H2126 0.999 . S
C2124 H2094 0.950 . S
C2124 C2123 1.524 . S
C2124 C2125 1.415 . S
C2125 H2095 0.950 . S
C2125 C2120 1.363 . S
C2125 C2124 1.415 . S
H2126 C2123 0.999 . S
H2127 C2108 0.913 . S
H2128 C2146 0.951 . S
H2129 C2148 0.951 . S
H2130 C2150 0.950 . S
H2131 C2151 0.950 . S
H2132 C2153 0.950 . S
H2133 C2156 0.950 . S
H2134 C2157 0.950 . S
H2135 C2159 0.950 . S
H2136 C2160 0.950 . S
H2137 C2161 0.951 . S
H2138 C2163 0.951 . S
H2139 C2165 0.950 . S
H2140 C2166 0.950 . S
H2141 C2168 0.950 . S
H2142 C2171 0.950 . S
H2143 C2172 0.950 . S
H2144 C2174 0.950 . S
H2145 C2175 0.950 . S
C2146 H2128 0.951 . S
C2146 C2147 1.366 . S
C2146 C2148 1.388 . S
C2147 C2146 1.366 . S
C2147 C2151 1.385 . S
C2148 H2129 0.951 . S
C2148 C2146 1.388 . S
C2148 C2149 1.366 . S
C2149 C2148 1.366 . S
C2149 C2150 1.414 . S
C2149 C2152 1.499 . S
C2150 H2130 0.950 . S
C2150 C2149 1.414 . S
C2150 C2151 1.374 . S
C2151 H2131 0.950 . S
C2151 C2147 1.385 . S
C2151 C2150 1.374 . S
C2152 C2149 1.499 . S
C2152 C2153 1.373 . S
C2152 C2154 1.389 . S
C2153 H2132 0.950 . S
C2153 C2152 1.373 . S
C2153 C2169 1.377 . S
C2154 C2152 1.389 . S
C2154 C2155 1.524 . S
C2154 C2168 1.377 . S
C2155 C2154 1.524 . S
C2155 C2156 1.397 . S
C2155 C2160 1.363 . S
C2156 H2133 0.950 . S
C2156 C2155 1.397 . S
C2156 C2157 1.334 . S
C2157 H2134 0.950 . S
C2157 C2156 1.334 . S
C2157 C2158 1.287 . S
C2158 C2157 1.287 . S
C2158 C2159 1.524 . S
C2158 H2177 0.913 . S
C2159 H2135 0.950 . S
C2159 C2158 1.524 . S
C2159 C2160 1.415 . S
C2160 H2136 0.950 . S
C2160 C2155 1.363 . S
C2160 C2159 1.415 . S
C2161 H2137 0.951 . S
C2161 C2162 1.366 . S
C2161 C2163 1.388 . S
C2162 C2161 1.366 . S
C2162 C2166 1.385 . S
C2163 H2138 0.951 . S
C2163 C2161 1.388 . S
C2163 C2164 1.366 . S
C2164 C2163 1.366 . S
C2164 C2165 1.414 . S
C2164 C2167 1.499 . S
C2165 H2139 0.950 . S
C2165 C2164 1.414 . S
C2165 C2166 1.374 . S
C2166 H2140 0.950 . S
C2166 C2162 1.385 . S
C2166 C2165 1.374 . S
C2167 C2164 1.499 . S
C2167 C2168 1.373 . S
C2167 C2169 1.389 . S
C2168 H2141 0.950 . S
C2168 C2154 1.377 . S
C2168 C2167 1.373 . S
C2169 C2153 1.377 . S
C2169 C2167 1.389 . S
C2169 C2170 1.524 . S
C2170 C2169 1.524 . S
C2170 C2171 1.397 . S
C2170 C2175 1.363 . S
C2171 H2142 0.950 . S
C2171 C2170 1.397 . S
C2171 C2172 1.334 . S
C2172 H2143 0.950 . S
C2172 C2171 1.334 . S
C2172 C2173 1.287 . S
C2173 C2172 1.287 . S
C2173 C2174 1.524 . S
C2173 H2176 0.999 . S
C2174 H2144 0.950 . S
C2174 C2173 1.524 . S
C2174 C2175 1.415 . S
C2175 H2145 0.950 . S
C2175 C2170 1.363 . S
C2175 C2174 1.415 . S
H2176 C2173 0.999 . S
H2177 C2158 0.913 . S
H2178 C2196 0.951 . S
H2179 C2198 0.951 . S
H2180 C2200 0.950 . S
H2181 C2201 0.950 . S
H2182 C2203 0.950 . S
H2183 C2206 0.950 . S
H2184 C2207 0.950 . S
H2185 C2209 0.950 . S
H2186 C2210 0.950 . S
H2187 C2211 0.951 . S
H2188 C2213 0.951 . S
H2189 C2215 0.950 . S
H2190 C2216 0.950 . S
H2191 C2218 0.950 . S
H2192 C2221 0.950 . S
H2193 C2222 0.950 . S
H2194 C2224 0.950 . S
H2195 C2225 0.950 . S
C2196 H2178 0.951 . S
C2196 C2197 1.366 . S
C2196 C2198 1.388 . S
C2197 C2196 1.366 . S
C2197 C2201 1.385 . S
C2198 H2179 0.951 . S
C2198 C2196 1.388 . S
C2198 C2199 1.366 . S
C2199 C2198 1.366 . S
C2199 C2200 1.414 . S
C2199 C2202 1.499 . S
C2200 H2180 0.950 . S
C2200 C2199 1.414 . S
C2200 C2201 1.374 . S
C2201 H2181 0.950 . S
C2201 C2197 1.385 . S
C2201 C2200 1.374 . S
C2202 C2199 1.499 . S
C2202 C2203 1.373 . S
C2202 C2204 1.389 . S
C2203 H2182 0.950 . S
C2203 C2202 1.373 . S
C2203 C2219 1.377 . S
C2204 C2202 1.389 . S
C2204 C2205 1.524 . S
C2204 C2218 1.377 . S
C2205 C2204 1.524 . S
C2205 C2206 1.397 . S
C2205 C2210 1.363 . S
C2206 H2183 0.950 . S
C2206 C2205 1.397 . S
C2206 C2207 1.334 . S
C2207 H2184 0.950 . S
C2207 C2206 1.334 . S
C2207 C2208 1.287 . S
C2208 C2207 1.287 . S
C2208 C2209 1.524 . S
C2208 H2227 0.913 . S
C2209 H2185 0.950 . S
C2209 C2208 1.524 . S
C2209 C2210 1.415 . S
C2210 H2186 0.950 . S
C2210 C2205 1.363 . S
C2210 C2209 1.415 . S
C2211 H2187 0.951 . S
C2211 C2212 1.366 . S
C2211 C2213 1.388 . S
C2212 C2211 1.366 . S
C2212 C2216 1.385 . S
C2213 H2188 0.951 . S
C2213 C2211 1.388 . S
C2213 C2214 1.366 . S
C2214 C2213 1.366 . S
C2214 C2215 1.414 . S
C2214 C2217 1.499 . S
C2215 H2189 0.950 . S
C2215 C2214 1.414 . S
C2215 C2216 1.374 . S
C2216 H2190 0.950 . S
C2216 C2212 1.385 . S
C2216 C2215 1.374 . S
C2217 C2214 1.499 . S
C2217 C2218 1.373 . S
C2217 C2219 1.389 . S
C2218 H2191 0.950 . S
C2218 C2204 1.377 . S
C2218 C2217 1.373 . S
C2219 C2203 1.377 . S
C2219 C2217 1.389 . S
C2219 C2220 1.524 . S
C2220 C2219 1.524 . S
C2220 C2221 1.397 . S
C2220 C2225 1.363 . S
C2221 H2192 0.950 . S
C2221 C2220 1.397 . S
C2221 C2222 1.334 . S
C2222 H2193 0.950 . S
C2222 C2221 1.334 . S
C2222 C2223 1.287 . S
C2223 C2222 1.287 . S
C2223 C2224 1.524 . S
C2223 H2226 0.999 . S
C2224 H2194 0.950 . S
C2224 C2223 1.524 . S
C2224 C2225 1.415 . S
C2225 H2195 0.950 . S
C2225 C2220 1.363 . S
C2225 C2224 1.415 . S
H2226 C2223 0.999 . S
H2227 C2208 0.913 . S
H2228 C2246 0.951 . S
H2229 C2248 0.951 . S
H2230 C2250 0.950 . S
H2231 C2251 0.950 . S
H2232 C2253 0.950 . S
H2233 C2256 0.950 . S
H2234 C2257 0.950 . S
H2235 C2259 0.950 . S
H2236 C2260 0.950 . S
H2237 C2261 0.951 . S
H2238 C2263 0.951 . S
H2239 C2265 0.950 . S
H2240 C2266 0.950 . S
H2241 C2268 0.950 . S
H2242 C2271 0.950 . S
H2243 C2272 0.950 . S
H2244 C2274 0.950 . S
H2245 C2275 0.950 . S
C2246 H2228 0.951 . S
C2246 C2247 1.366 . S
C2246 C2248 1.388 . S
C2247 C2246 1.366 . S
C2247 C2251 1.385 . S
C2248 H2229 0.951 . S
C2248 C2246 1.388 . S
C2248 C2249 1.366 . S
C2249 C2248 1.366 . S
C2249 C2250 1.414 . S
C2249 C2252 1.499 . S
C2250 H2230 0.950 . S
C2250 C2249 1.414 . S
C2250 C2251 1.374 . S
C2251 H2231 0.950 . S
C2251 C2247 1.385 . S
C2251 C2250 1.374 . S
C2252 C2249 1.499 . S
C2252 C2253 1.373 . S
C2252 C2254 1.389 . S
C2253 H2232 0.950 . S
C2253 C2252 1.373 . S
C2253 C2269 1.377 . S
C2254 C2252 1.389 . S
C2254 C2255 1.524 . S
C2254 C2268 1.377 . S
C2255 C2254 1.524 . S
C2255 C2256 1.397 . S
C2255 C2260 1.363 . S
C2256 H2233 0.950 . S
C2256 C2255 1.397 . S
C2256 C2257 1.334 . S
C2257 H2234 0.950 . S
C2257 C2256 1.334 . S
C2257 C2258 1.287 . S
C2258 C2257 1.287 . S
C2258 C2259 1.524 . S
C2258 H2277 0.913 . S
C2259 H2235 0.950 . S
C2259 C2258 1.524 . S
C2259 C2260 1.415 . S
C2260 H2236 0.950 . S
C2260 C2255 1.363 . S
C2260 C2259 1.415 . S
C2261 H2237 0.951 . S
C2261 C2262 1.366 . S
C2261 C2263 1.388 . S
C2262 C2261 1.366 . S
C2262 C2266 1.385 . S
C2263 H2238 0.951 . S
C2263 C2261 1.388 . S
C2263 C2264 1.366 . S
C2264 C2263 1.366 . S
C2264 C2265 1.414 . S
C2264 C2267 1.499 . S
C2265 H2239 0.950 . S
C2265 C2264 1.414 . S
C2265 C2266 1.374 . S
C2266 H2240 0.950 . S
C2266 C2262 1.385 . S
C2266 C2265 1.374 . S
C2267 C2264 1.499 . S
C2267 C2268 1.373 . S
C2267 C2269 1.389 . S
C2268 H2241 0.950 . S
C2268 C2254 1.377 . S
C2268 C2267 1.373 . S
C2269 C2253 1.377 . S
C2269 C2267 1.389 . S
C2269 C2270 1.524 . S
C2270 C2269 1.524 . S
C2270 C2271 1.397 . S
C2270 C2275 1.363 . S
C2271 H2242 0.950 . S
C2271 C2270 1.397 . S
C2271 C2272 1.334 . S
C2272 H2243 0.950 . S
C2272 C2271 1.334 . S
C2272 C2273 1.287 . S
C2273 C2272 1.287 . S
C2273 C2274 1.524 . S
C2273 H2276 0.999 . S
C2274 H2244 0.950 . S
C2274 C2273 1.524 . S
C2274 C2275 1.415 . S
C2275 H2245 0.950 . S
C2275 C2270 1.363 . S
C2275 C2274 1.415 . S
H2276 C2273 0.999 . S
H2277 C2258 0.913 . S
H2278 C2296 0.951 . S
H2279 C2298 0.951 . S
H2280 C2300 0.950 . S
H2281 C2301 0.950 . S
H2282 C2303 0.950 . S
H2283 C2306 0.950 . S
H2284 C2307 0.950 . S
H2285 C2309 0.950 . S
H2286 C2310 0.950 . S
H2287 C2311 0.951 . S
H2288 C2313 0.951 . S
H2289 C2315 0.950 . S
H2290 C2316 0.950 . S
H2291 C2318 0.950 . S
H2292 C2321 0.950 . S
H2293 C2322 0.950 . S
H2294 C2324 0.950 . S
H2295 C2325 0.950 . S
C2296 H2278 0.951 . S
C2296 C2297 1.366 . S
C2296 C2298 1.388 . S
C2297 C2296 1.366 . S
C2297 C2301 1.385 . S
C2298 H2279 0.951 . S
C2298 C2296 1.388 . S
C2298 C2299 1.366 . S
C2299 C2298 1.366 . S
C2299 C2300 1.414 . S
C2299 C2302 1.499 . S
C2300 H2280 0.950 . S
C2300 C2299 1.414 . S
C2300 C2301 1.374 . S
C2301 H2281 0.950 . S
C2301 C2297 1.385 . S
C2301 C2300 1.374 . S
C2302 C2299 1.499 . S
C2302 C2303 1.373 . S
C2302 C2304 1.389 . S
C2303 H2282 0.950 . S
C2303 C2302 1.373 . S
C2303 C2319 1.377 . S
C2304 C2302 1.389 . S
C2304 C2305 1.524 . S
C2304 C2318 1.377 . S
C2305 C2304 1.524 . S
C2305 C2306 1.397 . S
C2305 C2310 1.363 . S
C2306 H2283 0.950 . S
C2306 C2305 1.397 . S
C2306 C2307 1.334 . S
C2307 H2284 0.950 . S
C2307 C2306 1.334 . S
C2307 C2308 1.287 . S
C2308 C2307 1.287 . S
C2308 C2309 1.524 . S
C2308 H2327 0.913 . S
C2309 H2285 0.950 . S
C2309 C2308 1.524 . S
C2309 C2310 1.415 . S
C2310 H2286 0.950 . S
C2310 C2305 1.363 . S
C2310 C2309 1.415 . S
C2311 H2287 0.951 . S
C2311 C2312 1.366 . S
C2311 C2313 1.388 . S
C2312 C2311 1.366 . S
C2312 C2316 1.385 . S
C2313 H2288 0.951 . S
C2313 C2311 1.388 . S
C2313 C2314 1.366 . S
C2314 C2313 1.366 . S
C2314 C2315 1.414 . S
C2314 C2317 1.499 . S
C2315 H2289 0.950 . S
C2315 C2314 1.414 . S
C2315 C2316 1.374 . S
C2316 H2290 0.950 . S
C2316 C2312 1.385 . S
C2316 C2315 1.374 . S
C2317 C2314 1.499 . S
C2317 C2318 1.373 . S
C2317 C2319 1.389 . S
C2318 H2291 0.950 . S
C2318 C2304 1.377 . S
C2318 C2317 1.373 . S
C2319 C2303 1.377 . S
C2319 C2317 1.389 . S
C2319 C2320 1.524 . S
C2320 C2319 1.524 . S
C2320 C2321 1.397 . S
C2320 C2325 1.363 . S
C2321 H2292 0.950 . S
C2321 C2320 1.397 . S
C2321 C2322 1.334 . S
C2322 H2293 0.950 . S
C2322 C2321 1.334 . S
C2322 C2323 1.287 . S
C2323 C2322 1.287 . S
C2323 C2324 1.524 . S
C2323 H2326 0.999 . S
C2324 H2294 0.950 . S
C2324 C2323 1.524 . S
C2324 C2325 1.415 . S
C2325 H2295 0.950 . S
C2325 C2320 1.363 . S
C2325 C2324 1.415 . S
H2326 C2323 0.999 . S
H2327 C2308 0.913 . S
H2328 C2346 0.951 . S
H2329 C2348 0.951 . S
H2330 C2350 0.950 . S
H2331 C2351 0.950 . S
H2332 C2353 0.950 . S
H2333 C2356 0.950 . S
H2334 C2357 0.950 . S
H2335 C2359 0.950 . S
H2336 C2360 0.950 . S
H2337 C2361 0.951 . S
H2338 C2363 0.951 . S
H2339 C2365 0.950 . S
H2340 C2366 0.950 . S
H2341 C2368 0.950 . S
H2342 C2371 0.950 . S
H2343 C2372 0.950 . S
H2344 C2374 0.950 . S
H2345 C2375 0.950 . S
C2346 H2328 0.951 . S
C2346 C2347 1.366 . S
C2346 C2348 1.388 . S
C2347 C2346 1.366 . S
C2347 C2351 1.385 . S
C2348 H2329 0.951 . S
C2348 C2346 1.388 . S
C2348 C2349 1.366 . S
C2349 C2348 1.366 . S
C2349 C2350 1.414 . S
C2349 C2352 1.499 . S
C2350 H2330 0.950 . S
C2350 C2349 1.414 . S
C2350 C2351 1.374 . S
C2351 H2331 0.950 . S
C2351 C2347 1.385 . S
C2351 C2350 1.374 . S
C2352 C2349 1.499 . S
C2352 C2353 1.373 . S
C2352 C2354 1.389 . S
C2353 H2332 0.950 . S
C2353 C2352 1.373 . S
C2353 C2369 1.377 . S
C2354 C2352 1.389 . S
C2354 C2355 1.524 . S
C2354 C2368 1.377 . S
C2355 C2354 1.524 . S
C2355 C2356 1.397 . S
C2355 C2360 1.363 . S
C2356 H2333 0.950 . S
C2356 C2355 1.397 . S
C2356 C2357 1.334 . S
C2357 H2334 0.950 . S
C2357 C2356 1.334 . S
C2357 C2358 1.287 . S
C2358 C2357 1.287 . S
C2358 C2359 1.524 . S
C2358 H2377 0.913 . S
C2359 H2335 0.950 . S
C2359 C2358 1.524 . S
C2359 C2360 1.415 . S
C2360 H2336 0.950 . S
C2360 C2355 1.363 . S
C2360 C2359 1.415 . S
C2361 H2337 0.951 . S
C2361 C2362 1.366 . S
C2361 C2363 1.388 . S
C2362 C2361 1.366 . S
C2362 C2366 1.385 . S
C2363 H2338 0.951 . S
C2363 C2361 1.388 . S
C2363 C2364 1.366 . S
C2364 C2363 1.366 . S
C2364 C2365 1.414 . S
C2364 C2367 1.499 . S
C2365 H2339 0.950 . S
C2365 C2364 1.414 . S
C2365 C2366 1.374 . S
C2366 H2340 0.950 . S
C2366 C2362 1.385 . S
C2366 C2365 1.374 . S
C2367 C2364 1.499 . S
C2367 C2368 1.373 . S
C2367 C2369 1.389 . S
C2368 H2341 0.950 . S
C2368 C2354 1.377 . S
C2368 C2367 1.373 . S
C2369 C2353 1.377 . S
C2369 C2367 1.389 . S
C2369 C2370 1.524 . S
C2370 C2369 1.524 . S
C2370 C2371 1.397 . S
C2370 C2375 1.363 . S
C2371 H2342 0.950 . S
C2371 C2370 1.397 . S
C2371 C2372 1.334 . S
C2372 H2343 0.950 . S
C2372 C2371 1.334 . S
C2372 C2373 1.287 . S
C2373 C2372 1.287 . S
C2373 C2374 1.524 . S
C2373 H2376 0.999 . S
C2374 H2344 0.950 . S
C2374 C2373 1.524 . S
C2374 C2375 1.415 . S
C2375 H2345 0.950 . S
C2375 C2370 1.363 . S
C2375 C2374 1.415 . S
H2376 C2373 0.999 . S
H2377 C2358 0.913 . S
H2378 C2396 0.951 . S
H2379 C2398 0.951 . S
H2380 C2400 0.950 . S
H2381 C2401 0.950 . S
H2382 C2403 0.950 . S
H2383 C2406 0.950 . S
H2384 C2407 0.950 . S
H2385 C2409 0.950 . S
H2386 C2410 0.950 . S
H2387 C2411 0.951 . S
H2388 C2413 0.951 . S
H2389 C2415 0.950 . S
H2390 C2416 0.950 . S
H2391 C2418 0.950 . S
H2392 C2421 0.950 . S
H2393 C2422 0.950 . S
H2394 C2424 0.950 . S
H2395 C2425 0.950 . S
C2396 H2378 0.951 . S
C2396 C2397 1.366 . S
C2396 C2398 1.388 . S
C2397 C2396 1.366 . S
C2397 C2401 1.385 . S
C2398 H2379 0.951 . S
C2398 C2396 1.388 . S
C2398 C2399 1.366 . S
C2399 C2398 1.366 . S
C2399 C2400 1.414 . S
C2399 C2402 1.499 . S
C2400 H2380 0.950 . S
C2400 C2399 1.414 . S
C2400 C2401 1.374 . S
C2401 H2381 0.950 . S
C2401 C2397 1.385 . S
C2401 C2400 1.374 . S
C2402 C2399 1.499 . S
C2402 C2403 1.373 . S
C2402 C2404 1.389 . S
C2403 H2382 0.950 . S
C2403 C2402 1.373 . S
C2403 C2419 1.377 . S
C2404 C2402 1.389 . S
C2404 C2405 1.524 . S
C2404 C2418 1.377 . S
C2405 C2404 1.524 . S
C2405 C2406 1.397 . S
C2405 C2410 1.363 . S
C2406 H2383 0.950 . S
C2406 C2405 1.397 . S
C2406 C2407 1.334 . S
C2407 H2384 0.950 . S
C2407 C2406 1.334 . S
C2407 C2408 1.287 . S
C2408 C2407 1.287 . S
C2408 C2409 1.524 . S
C2408 H2427 0.913 . S
C2409 H2385 0.950 . S
C2409 C2408 1.524 . S
C2409 C2410 1.415 . S
C2410 H2386 0.950 . S
C2410 C2405 1.363 . S
C2410 C2409 1.415 . S
C2411 H2387 0.951 . S
C2411 C2412 1.366 . S
C2411 C2413 1.388 . S
C2412 C2411 1.366 . S
C2412 C2416 1.385 . S
C2413 H2388 0.951 . S
C2413 C2411 1.388 . S
C2413 C2414 1.366 . S
C2414 C2413 1.366 . S
C2414 C2415 1.414 . S
C2414 C2417 1.499 . S
C2415 H2389 0.950 . S
C2415 C2414 1.414 . S
C2415 C2416 1.374 . S
C2416 H2390 0.950 . S
C2416 C2412 1.385 . S
C2416 C2415 1.374 . S
C2417 C2414 1.499 . S
C2417 C2418 1.373 . S
C2417 C2419 1.389 . S
C2418 H2391 0.950 . S
C2418 C2404 1.377 . S
C2418 C2417 1.373 . S
C2419 C2403 1.377 . S
C2419 C2417 1.389 . S
C2419 C2420 1.524 . S
C2420 C2419 1.524 . S
C2420 C2421 1.397 . S
C2420 C2425 1.363 . S
C2421 H2392 0.950 . S
C2421 C2420 1.397 . S
C2421 C2422 1.334 . S
C2422 H2393 0.950 . S
C2422 C2421 1.334 . S
C2422 C2423 1.287 . S
C2423 C2422 1.287 . S
C2423 C2424 1.524 . S
C2423 H2426 0.999 . S
C2424 H2394 0.950 . S
C2424 C2423 1.524 . S
C2424 C2425 1.415 . S
C2425 H2395 0.950 . S
C2425 C2420 1.363 . S
C2425 C2424 1.415 . S
H2426 C2423 0.999 . S
H2427 C2408 0.913 . S
H2428 C2446 0.951 . S
H2429 C2448 0.951 . S
H2430 C2450 0.950 . S
H2431 C2451 0.950 . S
H2432 C2453 0.950 . S
H2433 C2456 0.950 . S
H2434 C2457 0.950 . S
H2435 C2459 0.950 . S
H2436 C2460 0.950 . S
H2437 C2461 0.951 . S
H2438 C2463 0.951 . S
H2439 C2465 0.950 . S
H2440 C2466 0.950 . S
H2441 C2468 0.950 . S
H2442 C2471 0.950 . S
H2443 C2472 0.950 . S
H2444 C2474 0.950 . S
H2445 C2475 0.950 . S
C2446 H2428 0.951 . S
C2446 C2447 1.366 . S
C2446 C2448 1.388 . S
C2447 C2446 1.366 . S
C2447 C2451 1.385 . S
C2448 H2429 0.951 . S
C2448 C2446 1.388 . S
C2448 C2449 1.366 . S
C2449 C2448 1.366 . S
C2449 C2450 1.414 . S
C2449 C2452 1.499 . S
C2450 H2430 0.950 . S
C2450 C2449 1.414 . S
C2450 C2451 1.374 . S
C2451 H2431 0.950 . S
C2451 C2447 1.385 . S
C2451 C2450 1.374 . S
C2452 C2449 1.499 . S
C2452 C2453 1.373 . S
C2452 C2454 1.389 . S
C2453 H2432 0.950 . S
C2453 C2452 1.373 . S
C2453 C2469 1.377 . S
C2454 C2452 1.389 . S
C2454 C2455 1.524 . S
C2454 C2468 1.377 . S
C2455 C2454 1.524 . S
C2455 C2456 1.397 . S
C2455 C2460 1.363 . S
C2456 H2433 0.950 . S
C2456 C2455 1.397 . S
C2456 C2457 1.334 . S
C2457 H2434 0.950 . S
C2457 C2456 1.334 . S
C2457 C2458 1.287 . S
C2458 C2457 1.287 . S
C2458 C2459 1.524 . S
C2458 H2477 0.913 . S
C2459 H2435 0.950 . S
C2459 C2458 1.524 . S
C2459 C2460 1.415 . S
C2460 H2436 0.950 . S
C2460 C2455 1.363 . S
C2460 C2459 1.415 . S
C2461 H2437 0.951 . S
C2461 C2462 1.366 . S
C2461 C2463 1.388 . S
C2462 C2461 1.366 . S
C2462 C2466 1.385 . S
C2463 H2438 0.951 . S
C2463 C2461 1.388 . S
C2463 C2464 1.366 . S
C2464 C2463 1.366 . S
C2464 C2465 1.414 . S
C2464 C2467 1.499 . S
C2465 H2439 0.950 . S
C2465 C2464 1.414 . S
C2465 C2466 1.374 . S
C2466 H2440 0.950 . S
C2466 C2462 1.385 . S
C2466 C2465 1.374 . S
C2467 C2464 1.499 . S
C2467 C2468 1.373 . S
C2467 C2469 1.389 . S
C2468 H2441 0.950 . S
C2468 C2454 1.377 . S
C2468 C2467 1.373 . S
C2469 C2453 1.377 . S
C2469 C2467 1.389 . S
C2469 C2470 1.524 . S
C2470 C2469 1.524 . S
C2470 C2471 1.397 . S
C2470 C2475 1.363 . S
C2471 H2442 0.950 . S
C2471 C2470 1.397 . S
C2471 C2472 1.334 . S
C2472 H2443 0.950 . S
C2472 C2471 1.334 . S
C2472 C2473 1.287 . S
C2473 C2472 1.287 . S
C2473 C2474 1.524 . S
C2473 H2476 0.999 . S
C2474 H2444 0.950 . S
C2474 C2473 1.524 . S
C2474 C2475 1.415 . S
C2475 H2445 0.950 . S
C2475 C2470 1.363 . S
C2475 C2474 1.415 . S
H2476 C2473 0.999 . S
H2477 C2458 0.913 . S
H2478 C2496 0.951 . S
H2479 C2498 0.951 . S
H2480 C2500 0.950 . S
H2481 C2501 0.950 . S
H2482 C2503 0.950 . S
H2483 C2506 0.950 . S
H2484 C2507 0.950 . S
H2485 C2509 0.950 . S
H2486 C2510 0.950 . S
H2487 C2511 0.951 . S
H2488 C2513 0.951 . S
H2489 C2515 0.950 . S
H2490 C2516 0.950 . S
H2491 C2518 0.950 . S
H2492 C2521 0.950 . S
H2493 C2522 0.950 . S
H2494 C2524 0.950 . S
H2495 C2525 0.950 . S
C2496 H2478 0.951 . S
C2496 C2497 1.366 . S
C2496 C2498 1.388 . S
C2497 C2496 1.366 . S
C2497 C2501 1.385 . S
C2498 H2479 0.951 . S
C2498 C2496 1.388 . S
C2498 C2499 1.366 . S
C2499 C2498 1.366 . S
C2499 C2500 1.414 . S
C2499 C2502 1.499 . S
C2500 H2480 0.950 . S
C2500 C2499 1.414 . S
C2500 C2501 1.374 . S
C2501 H2481 0.950 . S
C2501 C2497 1.385 . S
C2501 C2500 1.374 . S
C2502 C2499 1.499 . S
C2502 C2503 1.373 . S
C2502 C2504 1.389 . S
C2503 H2482 0.950 . S
C2503 C2502 1.373 . S
C2503 C2519 1.377 . S
C2504 C2502 1.389 . S
C2504 C2505 1.524 . S
C2504 C2518 1.377 . S
C2505 C2504 1.524 . S
C2505 C2506 1.397 . S
C2505 C2510 1.363 . S
C2506 H2483 0.950 . S
C2506 C2505 1.397 . S
C2506 C2507 1.334 . S
C2507 H2484 0.950 . S
C2507 C2506 1.334 . S
C2507 C2508 1.287 . S
C2508 C2507 1.287 . S
C2508 C2509 1.524 . S
C2508 H2527 0.913 . S
C2509 H2485 0.950 . S
C2509 C2508 1.524 . S
C2509 C2510 1.415 . S
C2510 H2486 0.950 . S
C2510 C2505 1.363 . S
C2510 C2509 1.415 . S
C2511 H2487 0.951 . S
C2511 C2512 1.366 . S
C2511 C2513 1.388 . S
C2512 C2511 1.366 . S
C2512 C2516 1.385 . S
C2513 H2488 0.951 . S
C2513 C2511 1.388 . S
C2513 C2514 1.366 . S
C2514 C2513 1.366 . S
C2514 C2515 1.414 . S
C2514 C2517 1.499 . S
C2515 H2489 0.950 . S
C2515 C2514 1.414 . S
C2515 C2516 1.374 . S
C2516 H2490 0.950 . S
C2516 C2512 1.385 . S
C2516 C2515 1.374 . S
C2517 C2514 1.499 . S
C2517 C2518 1.373 . S
C2517 C2519 1.389 . S
C2518 H2491 0.950 . S
C2518 C2504 1.377 . S
C2518 C2517 1.373 . S
C2519 C2503 1.377 . S
C2519 C2517 1.389 . S
C2519 C2520 1.524 . S
C2520 C2519 1.524 . S
C2520 C2521 1.397 . S
C2520 C2525 1.363 . S
C2521 H2492 0.950 . S
C2521 C2520 1.397 . S
C2521 C2522 1.334 . S
C2522 H2493 0.950 . S
C2522 C2521 1.334 . S
C2522 C2523 1.287 . S
C2523 C2522 1.287 . S
C2523 C2524 1.524 . S
C2523 H2526 0.999 . S
C2524 H2494 0.950 . S
C2524 C2523 1.524 . S
C2524 C2525 1.415 . S
C2525 H2495 0.950 . S
C2525 C2520 1.363 . S
C2525 C2524 1.415 . S
H2526 C2523 0.999 . S
H2527 C2508 0.913 . S
C547 C21 1.113 . S
C562 C516 1.114 . S
C597 C417 1.114 . S
C612 C54 1.113 . S
C647 C450 1.113 . S
C662 C87 1.114 . S
C697 C483 1.113 . S
C712 C120 1.114 . S
C747 C153 1.113 . S
C762 C318 1.114 . S
C797 C351 1.114 . S
C812 C186 1.113 . S
C847 C384 1.114 . S
C862 C219 1.113 . S
C897 C252 1.113 . S
C912 C285 1.114 . S
C947 C216 1.886 . S
C962 C18 1.886 . S
C997 C249 1.886 . S
C1012 C51 1.886 . S
C1047 C150 1.886 . S
C1062 C84 1.886 . S
C1097 C183 1.886 . S
C1112 C117 1.886 . S
C1147 N145 0.788 . S
C1162 N79 0.789 . S
C1197 N112 0.787 . S
C1212 N178 0.788 . S
C1247 N211 0.789 . S
C1262 N13 0.787 . S
C1297 N46 0.788 . S
C1312 N244 0.789 . S
C1347 C282 1.886 . S
C1362 C480 1.886 . S
C1397 C513 1.886 . S
C1412 C315 1.886 . S
C1447 C414 1.886 . S
C1462 C348 1.886 . S
C1497 C447 1.886 . S
C1512 C381 1.886 . S
C1547 N409 0.789 . S
C1562 N343 0.787 . S
C1597 N442 0.788 . S
C1612 N376 0.789 . S
C1647 N277 0.788 . S
C1662 N475 0.787 . S
C1697 N310 0.787 . S
C1712 N508 0.788 . S
C1747 N167 0.816 . S
C1762 N2 0.817 . S
C1797 N35 0.817 . S
C1812 N200 0.818 . S
C1847 N233 0.816 . S
C1862 N68 0.818 . S
C1897 N101 0.816 . S
C1912 N134 0.817 . S
C1947 C73 2.178 . S
C1962 C238 2.178 . S
C1997 C139 2.178 . S
C2012 C106 2.179 . S
C2047 C172 2.179 . S
C2062 C7 2.178 . S
C2097 C40 2.179 . S
C2112 C205 2.178 . S
C2147 N431 0.816 . S
C2162 N266 0.817 . S
C2197 N299 0.818 . S
C2212 N464 0.817 . S
C2247 N497 0.816 . S
C2262 N332 0.817 . S
C2297 N365 0.816 . S
C2312 N398 0.818 . S
C2347 C502 2.178 . S
C2362 C337 2.178 . S
C2397 C370 2.178 . S
C2412 C403 2.178 . S
C2447 C436 2.178 . S
C2462 C271 2.178 . S
C2497 C304 2.178 . S
C2512 C469 2.178 . S
