# Generated by pormake.
# Topology vbh, (5)-cn, num edge types: 1
# Building blocks:
#     Node 0, Type 0, BuildingBlock: BEQFEK_clean_sbu_0, # of connection points: 5
#     Node 1, Type 0, BuildingBlock: BEQFEK_clean_sbu_0, # of connection points: 5
#     Node 2, Type 0, BuildingBlock: BEQFEK_clean_sbu_0, # of connection points: 5
#     Node 3, Type 0, BuildingBlock: BEQFEK_clean_sbu_0, # of connection points: 5
#     Node 4, Type 0, BuildingBlock: BEQFEK_clean_sbu_0, # of connection points: 5
#     Node 5, Type 0, BuildingBlock: BEQFEK_clean_sbu_0, # of connection points: 5
#     Node 6, Type 0, BuildingBlock: BEQFEK_clean_sbu_0, # of connection points: 5
#     Node 7, Type 0, BuildingBlock: BEQFEK_clean_sbu_0, # of connection points: 5
#     Node 8, Type 0, BuildingBlock: BEQFEK_clean_sbu_0, # of connection points: 5
#     Node 9, Type 0, BuildingBlock: BEQFEK_clean_sbu_0, # of connection points: 5
#     Node 10, Type 0, BuildingBlock: BEQFEK_clean_sbu_0, # of connection points: 5
#     Node 11, Type 0, BuildingBlock: BEQFEK_clean_sbu_0, # of connection points: 5
#     Node 12, Type 0, BuildingBlock: BEQFEK_clean_sbu_0, # of connection points: 5
#     Node 13, Type 0, BuildingBlock: BEQFEK_clean_sbu_0, # of connection points: 5
#     Node 14, Type 0, BuildingBlock: BEQFEK_clean_sbu_0, # of connection points: 5
#     Node 15, Type 0, BuildingBlock: BEQFEK_clean_sbu_0, # of connection points: 5
#     Node 16, Type 0, BuildingBlock: BEQFEK_clean_sbu_0, # of connection points: 5
#     Node 17, Type 0, BuildingBlock: BEQFEK_clean_sbu_0, # of connection points: 5
#     Node 18, Type 0, BuildingBlock: BEQFEK_clean_sbu_0, # of connection points: 5
#     Node 19, Type 0, BuildingBlock: BEQFEK_clean_sbu_0, # of connection points: 5
#     Node 20, Type 0, BuildingBlock: BEQFEK_clean_sbu_0, # of connection points: 5
#     Node 21, Type 0, BuildingBlock: BEQFEK_clean_sbu_0, # of connection points: 5
#     Node 22, Type 0, BuildingBlock: BEQFEK_clean_sbu_0, # of connection points: 5
#     Node 23, Type 0, BuildingBlock: BEQFEK_clean_sbu_0, # of connection points: 5
#     Node 24, Type 0, BuildingBlock: BEQFEK_clean_sbu_0, # of connection points: 5
#     Node 25, Type 0, BuildingBlock: BEQFEK_clean_sbu_0, # of connection points: 5
#     Node 26, Type 0, BuildingBlock: BEQFEK_clean_sbu_0, # of connection points: 5
#     Node 27, Type 0, BuildingBlock: BEQFEK_clean_sbu_0, # of connection points: 5
#     Node 28, Type 0, BuildingBlock: BEQFEK_clean_sbu_0, # of connection points: 5
#     Node 29, Type 0, BuildingBlock: BEQFEK_clean_sbu_0, # of connection points: 5
#     Node 30, Type 0, BuildingBlock: BEQFEK_clean_sbu_0, # of connection points: 5
#     Node 31, Type 0, BuildingBlock: BEQFEK_clean_sbu_0, # of connection points: 5
#     Edge 32, Type (0, 0), BuildingBlock: AJUNOK_clean_linker_0, # of connection points: 2
#     Edge 33, Type (0, 0), BuildingBlock: AJUNOK_clean_linker_0, # of connection points: 2
#     Edge 34, Type (0, 0), BuildingBlock: AJUNOK_clean_linker_0, # of connection points: 2
#     Edge 35, Type (0, 0), BuildingBlock: AJUNOK_clean_linker_0, # of connection points: 2
#     Edge 36, Type (0, 0), BuildingBlock: AJUNOK_clean_linker_0, # of connection points: 2
#     Edge 37, Type (0, 0), BuildingBlock: AJUNOK_clean_linker_0, # of connection points: 2
#     Edge 38, Type (0, 0), BuildingBlock: AJUNOK_clean_linker_0, # of connection points: 2
#     Edge 39, Type (0, 0), BuildingBlock: AJUNOK_clean_linker_0, # of connection points: 2
#     Edge 40, Type (0, 0), BuildingBlock: AJUNOK_clean_linker_0, # of connection points: 2
#     Edge 41, Type (0, 0), BuildingBlock: AJUNOK_clean_linker_0, # of connection points: 2
#     Edge 42, Type (0, 0), BuildingBlock: AJUNOK_clean_linker_0, # of connection points: 2
#     Edge 43, Type (0, 0), BuildingBlock: AJUNOK_clean_linker_0, # of connection points: 2
#     Edge 44, Type (0, 0), BuildingBlock: AJUNOK_clean_linker_0, # of connection points: 2
#     Edge 45, Type (0, 0), BuildingBlock: AJUNOK_clean_linker_0, # of connection points: 2
#     Edge 46, Type (0, 0), BuildingBlock: AJUNOK_clean_linker_0, # of connection points: 2
#     Edge 47, Type (0, 0), BuildingBlock: AJUNOK_clean_linker_0, # of connection points: 2
#     Edge 48, Type (0, 0), BuildingBlock: AJUNOK_clean_linker_0, # of connection points: 2
#     Edge 49, Type (0, 0), BuildingBlock: AJUNOK_clean_linker_0, # of connection points: 2
#     Edge 50, Type (0, 0), BuildingBlock: AJUNOK_clean_linker_0, # of connection points: 2
#     Edge 51, Type (0, 0), BuildingBlock: AJUNOK_clean_linker_0, # of connection points: 2
#     Edge 52, Type (0, 0), BuildingBlock: AJUNOK_clean_linker_0, # of connection points: 2
#     Edge 53, Type (0, 0), BuildingBlock: AJUNOK_clean_linker_0, # of connection points: 2
#     Edge 54, Type (0, 0), BuildingBlock: AJUNOK_clean_linker_0, # of connection points: 2
#     Edge 55, Type (0, 0), BuildingBlock: AJUNOK_clean_linker_0, # of connection points: 2
#     Edge 56, Type (0, 0), BuildingBlock: AJUNOK_clean_linker_0, # of connection points: 2
#     Edge 57, Type (0, 0), BuildingBlock: AJUNOK_clean_linker_0, # of connection points: 2
#     Edge 58, Type (0, 0), BuildingBlock: AJUNOK_clean_linker_0, # of connection points: 2
#     Edge 59, Type (0, 0), BuildingBlock: AJUNOK_clean_linker_0, # of connection points: 2
#     Edge 60, Type (0, 0), BuildingBlock: AJUNOK_clean_linker_0, # of connection points: 2
#     Edge 61, Type (0, 0), BuildingBlock: AJUNOK_clean_linker_0, # of connection points: 2
#     Edge 62, Type (0, 0), BuildingBlock: AJUNOK_clean_linker_0, # of connection points: 2
#     Edge 63, Type (0, 0), BuildingBlock: AJUNOK_clean_linker_0, # of connection points: 2
#     Edge 64, Type (0, 0), BuildingBlock: AJUNOK_clean_linker_0, # of connection points: 2
#     Edge 65, Type (0, 0), BuildingBlock: AJUNOK_clean_linker_0, # of connection points: 2
#     Edge 66, Type (0, 0), BuildingBlock: AJUNOK_clean_linker_0, # of connection points: 2
#     Edge 67, Type (0, 0), BuildingBlock: AJUNOK_clean_linker_0, # of connection points: 2
#     Edge 68, Type (0, 0), BuildingBlock: AJUNOK_clean_linker_0, # of connection points: 2
#     Edge 69, Type (0, 0), BuildingBlock: AJUNOK_clean_linker_0, # of connection points: 2
#     Edge 70, Type (0, 0), BuildingBlock: AJUNOK_clean_linker_0, # of connection points: 2
#     Edge 71, Type (0, 0), BuildingBlock: AJUNOK_clean_linker_0, # of connection points: 2
#     Edge 72, Type (0, 0), BuildingBlock: AJUNOK_clean_linker_0, # of connection points: 2
#     Edge 73, Type (0, 0), BuildingBlock: AJUNOK_clean_linker_0, # of connection points: 2
#     Edge 74, Type (0, 0), BuildingBlock: AJUNOK_clean_linker_0, # of connection points: 2
#     Edge 75, Type (0, 0), BuildingBlock: AJUNOK_clean_linker_0, # of connection points: 2
#     Edge 76, Type (0, 0), BuildingBlock: AJUNOK_clean_linker_0, # of connection points: 2
#     Edge 77, Type (0, 0), BuildingBlock: AJUNOK_clean_linker_0, # of connection points: 2
#     Edge 78, Type (0, 0), BuildingBlock: AJUNOK_clean_linker_0, # of connection points: 2
#     Edge 79, Type (0, 0), BuildingBlock: AJUNOK_clean_linker_0, # of connection points: 2
#     Edge 80, Type (0, 0), BuildingBlock: AJUNOK_clean_linker_0, # of connection points: 2
#     Edge 81, Type (0, 0), BuildingBlock: AJUNOK_clean_linker_0, # of connection points: 2
#     Edge 82, Type (0, 0), BuildingBlock: AJUNOK_clean_linker_0, # of connection points: 2
#     Edge 83, Type (0, 0), BuildingBlock: AJUNOK_clean_linker_0, # of connection points: 2
#     Edge 84, Type (0, 0), BuildingBlock: AJUNOK_clean_linker_0, # of connection points: 2
#     Edge 85, Type (0, 0), BuildingBlock: AJUNOK_clean_linker_0, # of connection points: 2
#     Edge 86, Type (0, 0), BuildingBlock: AJUNOK_clean_linker_0, # of connection points: 2
#     Edge 87, Type (0, 0), BuildingBlock: AJUNOK_clean_linker_0, # of connection points: 2
#     Edge 88, Type (0, 0), BuildingBlock: AJUNOK_clean_linker_0, # of connection points: 2
#     Edge 89, Type (0, 0), BuildingBlock: AJUNOK_clean_linker_0, # of connection points: 2
#     Edge 90, Type (0, 0), BuildingBlock: AJUNOK_clean_linker_0, # of connection points: 2
#     Edge 91, Type (0, 0), BuildingBlock: AJUNOK_clean_linker_0, # of connection points: 2
#     Edge 92, Type (0, 0), BuildingBlock: AJUNOK_clean_linker_0, # of connection points: 2
#     Edge 93, Type (0, 0), BuildingBlock: AJUNOK_clean_linker_0, # of connection points: 2
#     Edge 94, Type (0, 0), BuildingBlock: AJUNOK_clean_linker_0, # of connection points: 2
#     Edge 95, Type (0, 0), BuildingBlock: AJUNOK_clean_linker_0, # of connection points: 2
#     Edge 96, Type (0, 0), BuildingBlock: AJUNOK_clean_linker_0, # of connection points: 2
#     Edge 97, Type (0, 0), BuildingBlock: AJUNOK_clean_linker_0, # of connection points: 2
#     Edge 98, Type (0, 0), BuildingBlock: AJUNOK_clean_linker_0, # of connection points: 2
#     Edge 99, Type (0, 0), BuildingBlock: AJUNOK_clean_linker_0, # of connection points: 2
#     Edge 100, Type (0, 0), BuildingBlock: AJUNOK_clean_linker_0, # of connection points: 2
#     Edge 101, Type (0, 0), BuildingBlock: AJUNOK_clean_linker_0, # of connection points: 2
#     Edge 102, Type (0, 0), BuildingBlock: AJUNOK_clean_linker_0, # of connection points: 2
#     Edge 103, Type (0, 0), BuildingBlock: AJUNOK_clean_linker_0, # of connection points: 2
#     Edge 104, Type (0, 0), BuildingBlock: AJUNOK_clean_linker_0, # of connection points: 2
#     Edge 105, Type (0, 0), BuildingBlock: AJUNOK_clean_linker_0, # of connection points: 2
#     Edge 106, Type (0, 0), BuildingBlock: AJUNOK_clean_linker_0, # of connection points: 2
#     Edge 107, Type (0, 0), BuildingBlock: AJUNOK_clean_linker_0, # of connection points: 2
#     Edge 108, Type (0, 0), BuildingBlock: AJUNOK_clean_linker_0, # of connection points: 2
#     Edge 109, Type (0, 0), BuildingBlock: AJUNOK_clean_linker_0, # of connection points: 2
#     Edge 110, Type (0, 0), BuildingBlock: AJUNOK_clean_linker_0, # of connection points: 2
#     Edge 111, Type (0, 0), BuildingBlock: AJUNOK_clean_linker_0, # of connection points: 2
# Relax obj value: 0.691
# Max RMSD: 0.254
# Mean RMSD: 0.254
data_MOF--net-vbh--node1-BEQFEK_clean_sbu_0--edge1-AJUNOK_clean_linker_0
_symmetry_space_group_name_H-M    P1
_symmetry_Int_Tables_number       1
_symmetry_cell_setting            triclinic
loop_
_symmetry_equiv_pos_as_xyz
'x, y, z'
_cell_length_a     38.671898
_cell_length_b     60.950517
_cell_length_c     28.890725
_cell_angle_alpha  89.894002
_cell_angle_beta   89.946687
_cell_angle_gamma 89.884827
loop_
_atom_site_label
_atom_site_type_symbol
_atom_site_fract_x
_atom_site_fract_y
_atom_site_fract_z
_atom_type_partial_charge
Co0 Co 0.43436 0.04669 0.19347 0.0
Co1 Co 0.41856 0.03411 0.09113 0.0
C2 C 0.42821 0.08161 0.12454 0.0
O3 O 0.43441 0.07472 0.16484 0.0
O4 O 0.42126 0.06819 0.09165 0.0
C5 C 0.44459 0.07055 0.27719 0.0
O6 O 0.45564 0.08696 0.25177 0.0
C7 C 0.36917 0.03196 0.01211 0.0
C8 C 0.38526 1.00183 0.97612 0.0
C9 C 0.35926 0.01759 0.97672 0.0
N10 N 0.39871 0.02464 0.03188 0.0
N11 N 0.40852 0.00685 0.00929 0.0
C12 C 0.35106 0.05246 0.02714 0.0
H13 H 0.37046 0.06521 0.03481 0.0
H14 H 0.33634 0.04934 0.05942 0.0
H15 H 0.33333 0.05864 -0.00013 0.0
C16 C 0.36685 0.02639 0.20959 0.0
N17 N 0.39304 0.0318 0.18118 0.0
N18 N 0.38646 0.02477 0.13908 0.0
C19 C 0.356 0.0137 0.14038 0.0
C20 C 0.3428 0.01447 0.18518 0.0
C21 C 0.36337 0.03394 0.2585 0.0
H22 H 0.37306 0.05094 0.26178 0.0
H23 H 0.33607 0.03356 0.27035 0.0
H24 H 0.37862 0.02275 0.28082 0.0
O25 O 0.47446 0.03006 0.17705 0.0
O26 O 0.46759 0.02027 0.10353 0.0
H27 H 0.32425 0.98769 0.11363 0.0
H28 H 0.3233 0.01264 0.08091 0.0
C29 C 0.34036 1.00148 0.10079 0.0
H30 H 0.36083 0.99497 0.07777 0.0
H31 H 0.42994 0.99734 0.01828 0.0
O32 O 0.43763 0.05227 0.25845 0.0
C33 C 0.48538 0.02042 0.14119 0.0
Co34 Co 0.86715 0.20858 0.20194 0.0
Co35 Co 0.8861 0.22572 0.10227 0.0
C36 C 0.87317 0.17825 0.12217 0.0
O37 O 0.86684 0.18335 0.16344 0.0
O38 O 0.88093 0.19275 0.092 0.0
C39 C 0.88417 0.17873 0.26916 0.0
O40 O 0.90612 0.17308 0.23657 0.0
C41 C 0.93279 0.23022 0.02027 0.0
C42 C 0.92459 0.26473 0.00031 0.0
C43 C 0.94541 0.24669 0.9909 0.0
N44 N 0.90692 0.2385 0.04657 0.0
N45 N 0.9017 0.25902 0.03347 0.0
C46 C 0.94406 0.20674 0.02251 0.0
H47 H 0.95715 0.20356 0.05604 0.0
H48 H 0.96143 0.20246 -0.00671 0.0
H49 H 0.92102 0.19598 0.02097 0.0
C50 C 0.93183 0.23044 0.22663 0.0
N51 N 0.90817 0.22433 0.19508 0.0
N52 N 0.91758 0.23109 0.1536 0.0
C53 C 0.94842 0.24142 0.15784 0.0
C54 C 0.95826 0.24125 0.20411 0.0
C55 C 0.92981 0.22524 0.27723 0.0
H56 H 0.90268 0.22632 0.28943 0.0
H57 H 0.93954 0.20836 0.28284 0.0
H58 H 0.94604 0.23639 0.29818 0.0
O59 O 0.82827 0.22748 0.18935 0.0
O60 O 0.83855 0.24027 0.11811 0.0
H61 H 0.95067 0.26335 0.10011 0.0
H62 H 0.99078 0.26101 0.13164 0.0
C63 C 0.96788 0.25188 0.11898 0.0
H64 H 0.97663 0.23896 0.09483 0.0
H65 H 0.88385 0.26953 0.04896 0.0
O66 O 0.86432 0.19513 0.26286 0.0
C67 C 0.81973 0.23925 0.15485 0.0
Co68 Co 0.42702 0.21046 0.04285 0.0
Co69 Co 0.41652 0.22499 0.14442 0.0
C70 C 0.42419 0.17674 0.11202 0.0
O71 O 0.42846 0.18273 0.07069 0.0
O72 O 0.42032 0.19076 0.14482 0.0
C73 C 0.4286 0.1885 0.95551 0.0
O74 O 0.43357 0.1699 0.97759 0.0
C75 C 0.36783 0.22805 0.22336 0.0
C76 C 0.38648 0.25704 0.26114 0.0
C77 C 0.35912 0.24232 0.25954 0.0
N78 N 0.39804 0.2345 0.20417 0.0
N79 N 0.40938 0.25157 0.22775 0.0
C80 C 0.34782 0.20861 0.20666 0.0
H81 H 0.33261 0.21319 0.17558 0.0
H82 H 0.3301 0.20241 0.23393 0.0
H83 H 0.36583 0.19532 0.19642 0.0
C84 C 0.3579 0.22901 0.03165 0.0
N85 N 0.38572 0.22448 0.05781 0.0
N86 N 0.38224 0.23358 0.09876 0.0
C87 C 0.35269 0.24566 0.09831 0.0
C88 C 0.33655 0.24295 0.05569 0.0
C89 C 0.34998 0.21886 0.98585 0.0
H90 H 0.3629 0.20274 0.98243 0.0
H91 H 0.32169 0.21651 0.98173 0.0
H92 H 0.35848 0.23015 0.95818 0.0
O93 O 0.46658 0.22837 0.05556 0.0
O94 O 0.46336 0.24025 0.12795 0.0
H95 H 0.363 0.26594 0.15756 0.0
H96 H 0.32746 0.27509 0.12151 0.0
C97 C 0.34082 0.26053 0.13623 0.0
H98 H 0.32195 0.25176 0.15832 0.0
H99 H 0.43163 0.26036 0.21934 0.0
O100 O 0.42775 0.20632 0.97782 0.0
C101 C 0.4788 0.2395 0.08857 0.0
Co102 Co 0.86622 0.05132 0.03642 0.0
Co103 Co 0.87926 0.03645 0.13752 0.0
C104 C 0.86305 0.08422 0.10644 0.0
O105 O 0.8579 0.0783 0.06525 0.0
O106 O 0.87231 0.07039 0.13777 0.0
C107 C 0.86696 0.07352 0.94932 0.0
O108 O 0.86288 0.09201 0.972 0.0
C109 C 0.92957 0.03464 0.21516 0.0
C110 C 0.91291 1.00548 0.25425 0.0
C111 C 0.93939 0.02082 0.25175 0.0
N112 N 0.89954 0.02742 0.19675 0.0
N113 N 0.88947 0.01019 0.22104 0.0
C114 C 0.94826 0.05447 0.19753 0.0
H115 H 0.96477 0.04988 0.16768 0.0
H116 H 0.96466 0.06174 0.225 0.0
H117 H 0.92943 0.0669 0.18521 0.0
C118 C 0.9395 0.03913 0.02746 0.0
N119 N 0.91015 0.04065 0.05224 0.0
N120 N 0.91365 0.02974 0.09117 0.0
C121 C 0.94447 0.01906 0.08996 0.0
C122 C 0.96166 0.02493 0.0495 0.0
C123 C 0.94924 0.05365 0.98785 0.0
H124 H 0.95331 0.04365 0.95642 0.0
H125 H 0.92986 0.06668 0.98238 0.0
H126 H 0.97441 0.06161 -0.00464 0.0
O127 O 0.82981 0.03063 0.04872 0.0
O128 O 0.83331 0.02007 0.12212 0.0
H129 H 0.93533 0.99696 0.14687 0.0
H130 H 0.97063 0.9893 0.10878 0.0
C131 C 0.95711 1.00322 0.12572 0.0
H132 H 0.97612 0.01149 0.14844 0.0
H133 H 0.86762 1.00088 0.21339 0.0
O134 O 0.86532 0.05551 0.97093 0.0
C135 C 0.8183 0.01959 0.08247 0.0
Co136 Co 0.61845 0.96411 0.77264 0.0
Co137 Co 0.63735 0.9766 0.8746 0.0
C138 C 0.62413 0.93031 0.8478 0.0
O139 O 0.61644 0.93793 0.80871 0.0
O140 O 0.63453 0.94313 0.87983 0.0
C141 C 0.64188 0.93603 0.70768 0.0
O142 O 0.66269 0.93177 0.74247 0.0
C143 C 0.68086 0.97965 0.96071 0.0
C144 C 0.67378 0.01432 0.97991 0.0
C145 C 0.69291 0.99579 0.99124 0.0
N146 N 0.65681 0.98854 0.93219 0.0
N147 N 0.65233 0.00919 0.94475 0.0
C148 C 0.69088 0.95592 0.95959 0.0
H149 H 0.66718 0.94571 0.95948 0.0
H150 H 0.70519 0.95234 0.92718 0.0
H151 H 0.70679 0.95134 0.99007 0.0
C152 C 0.68323 0.98621 0.7519 0.0
N153 N 0.65902 0.97977 0.78241 0.0
N154 N 0.66918 0.98414 0.82483 0.0
C155 C 0.70125 0.99306 0.82225 0.0
C156 C 0.71111 0.9944 0.77587 0.0
C157 C 0.67927 0.98554 0.70038 0.0
H158 H 0.65158 0.98619 0.69057 0.0
H159 H 0.69095 0.97024 0.68694 0.0
H160 H 0.6931 0.99953 0.6841 0.0
O161 O 0.57852 0.98157 0.78536 0.0
O162 O 0.58775 0.98975 0.8598 0.0
H163 H 0.70954 0.01152 0.88405 0.0
H164 H 0.74874 1.00512 0.85263 0.0
C165 C 0.72298 0.99887 0.86316 0.0
H166 H 0.7266 0.9841 0.88493 0.0
H167 H 0.63595 0.02015 0.92775 0.0
O168 O 0.61929 0.95115 0.71149 0.0
C169 C 0.56894 0.99053 0.82287 0.0
Co170 Co 0.17892 0.80303 0.77812 0.0
Co171 Co 0.16257 0.78755 0.8792 0.0
C172 C 0.17028 0.83544 0.85251 0.0
O173 O 0.17619 0.82986 0.81132 0.0
O174 O 0.16535 0.82104 0.88413 0.0
C175 C 0.19491 0.83073 0.70266 0.0
O176 O 0.214 0.84191 0.73179 0.0
C177 C 0.11555 0.78383 0.9609 0.0
C178 C 0.12997 0.75162 0.98976 0.0
C179 C 0.10587 0.76839 -0.00556 0.0
N180 N 0.14324 0.7762 0.93719 0.0
N181 N 0.15209 0.75712 0.9555 0.0
C182 C 0.09931 0.80575 0.95181 0.0
H183 H 0.11974 0.81849 0.95117 0.0
H184 H 0.08685 0.8058 0.91728 0.0
H185 H 0.08013 0.81012 0.97884 0.0
C186 C 0.11365 0.78174 0.75795 0.0
N187 N 0.13889 0.78688 0.78787 0.0
N188 N 0.13078 0.77998 0.8297 0.0
C189 C 0.0997 0.76978 0.82707 0.0
C190 C 0.08777 0.77108 0.78173 0.0
C191 C 0.1143 0.78702 0.70733 0.0
H192 H 0.13958 0.78213 0.69237 0.0
H193 H 0.11104 0.80495 0.70273 0.0
H194 H 0.09337 0.77846 0.68835 0.0
O195 O 0.21959 0.78598 0.79259 0.0
O196 O 0.21091 0.77381 0.86451 0.0
H197 H 0.09983 0.75066 0.88948 0.0
H198 H 0.06147 0.74747 0.85458 0.0
C199 C 0.08117 0.75932 0.86683 0.0
H200 H 0.06769 0.77212 0.88714 0.0
H201 H 0.17205 0.74726 0.94299 0.0
O202 O 0.18042 0.81299 0.71491 0.0
C203 C 0.22944 0.77504 0.82757 0.0
Co204 Co 0.61504 0.8033 0.94096 0.0
Co205 Co 0.62999 0.78609 0.84261 0.0
C206 C 0.62293 0.83522 0.869 0.0
O207 O 0.61615 0.8303 0.91037 0.0
O208 O 0.62806 0.82033 0.83826 0.0
C209 C 0.6083 0.82695 0.02672 0.0
O210 O 0.60437 0.84548 0.004 0.0
C211 C 0.68083 0.77803 0.76582 0.0
C212 C 0.65404 0.75289 0.72486 0.0
C213 C 0.68545 0.76386 0.72795 0.0
N214 N 0.64898 0.77487 0.78425 0.0
N215 N 0.63298 0.76011 0.75879 0.0
C216 C 0.70661 0.79357 0.78609 0.0
H217 H 0.69793 0.79944 0.82053 0.0
H218 H 0.73234 0.78564 0.78911 0.0
H219 H 0.70916 0.80801 0.76293 0.0
C220 C 0.68243 0.78422 0.96072 0.0
N221 N 0.65628 0.78821 0.93136 0.0
N222 N 0.66185 0.77817 0.89182 0.0
C223 C 0.69117 0.76608 0.8964 0.0
C224 C 0.70499 0.7697 0.94022 0.0
C225 C 0.6877 0.79579 0.00578 0.0
H226 H 0.6772 0.81269 0.00399 0.0
H227 H 0.71555 0.79661 0.01488 0.0
H228 H 0.67429 0.78655 0.03337 0.0
O229 O 0.5753 0.7857 0.92807 0.0
O230 O 0.58186 0.77189 0.85769 0.0
H231 H 0.71307 0.73475 0.8797 0.0
H232 H 0.72741 0.75683 0.84399 0.0
C233 C 0.70447 0.74993 0.86175 0.0
H234 H 0.68426 0.74575 0.83611 0.0
H235 H 0.60819 0.75423 0.76568 0.0
O236 O 0.61145 0.80913 0.00484 0.0
C237 C 0.56447 0.77384 0.89542 0.0
Co238 Co 0.17485 0.96232 0.95663 0.0
Co239 Co 0.15865 0.97748 0.85536 0.0
C240 C 0.17089 0.93033 0.87922 0.0
O241 O 0.17778 0.93702 0.91916 0.0
O242 O 0.16122 0.94394 0.84814 0.0
C243 C 0.15146 0.9329 0.02049 0.0
O244 O 0.13071 0.92871 0.98566 0.0
C245 C 0.11285 0.98422 0.77192 0.0
C246 C 0.14132 0.00954 0.73318 0.0
C247 C 0.11105 0.99727 0.73169 0.0
N248 N 0.1423 0.98891 0.79533 0.0
N249 N 0.15933 1.00384 0.77131 0.0
C250 C 0.0864 0.9685 0.78992 0.0
H251 H 0.09072 0.96513 0.82723 0.0
H252 H 0.05991 0.97503 0.7845 0.0
H253 H 0.08901 0.95268 0.77131 0.0
C254 C 0.11202 0.98617 0.97819 0.0
N255 N 0.13476 0.97865 0.94679 0.0
N256 N 0.12609 0.98533 0.90494 0.0
C257 C 0.09641 0.99718 0.90907 0.0
C258 C 0.08665 0.99782 0.95553 0.0
C259 C 0.11479 0.9824 0.02933 0.0
H260 H 0.14225 0.98257 0.04019 0.0
H261 H 0.10339 0.96627 0.03781 0.0
H262 H 0.10049 0.99491 0.04946 0.0
O263 O 0.21437 0.98053 0.94706 0.0
O264 O 0.20762 0.99057 0.87312 0.0
H265 H 0.09754 0.01374 0.84326 0.0
H266 H 0.0661 0.0243 0.88401 0.0
C267 C 0.07879 0.00923 0.87063 0.0
H268 H 0.05831 0.99868 0.85581 0.0
H269 H 0.18288 0.01057 0.78148 0.0
O270 O 0.17353 0.94829 0.01704 0.0
C271 C 0.22493 0.9907 0.91135 0.0
Co272 Co 0.43569 0.55399 0.69922 0.0
Co273 Co 0.41781 0.53832 0.59907 0.0
C274 C 0.43229 0.58575 0.62256 0.0
O275 O 0.43958 0.57993 0.66325 0.0
O276 O 0.42231 0.57177 0.59237 0.0
C277 C 0.42567 0.58254 0.77564 0.0
O278 O 0.41433 0.59679 0.74505 0.0
C279 C 0.37398 0.53445 0.51334 0.0
C280 C 0.38229 0.49984 0.49448 0.0
C281 C 0.36242 0.51805 0.48305 0.0
N282 N 0.39839 0.52597 0.54186 0.0
N283 N 0.40362 0.50537 0.52947 0.0
C284 C 0.36339 0.55807 0.51412 0.0
H285 H 0.34828 0.56146 0.546 0.0
H286 H 0.34808 0.56253 0.48303 0.0
H287 H 0.38684 0.56849 0.51518 0.0
C288 C 0.36842 0.53444 0.72023 0.0
N289 N 0.39349 0.53955 0.68984 0.0
N290 N 0.38469 0.53283 0.64823 0.0
C291 C 0.35292 0.52348 0.65126 0.0
C292 C 0.34159 0.52459 0.69701 0.0
C293 C 0.37129 0.53711 0.77141 0.0
H294 H 0.39766 0.53237 0.78245 0.0
H295 H 0.36623 0.55448 0.78034 0.0
H296 H 0.35239 0.52671 0.79023 0.0
O297 O 0.47336 0.53451 0.68886 0.0
O298 O 0.46539 0.52312 0.61642 0.0
H299 H 0.34949 0.50195 0.59311 0.0
H300 H 0.30878 0.50647 0.62259 0.0
C301 C 0.3333 0.51424 0.61128 0.0
H302 H 0.32716 0.52764 0.58672 0.0
H303 H 0.4205 0.49471 0.54646 0.0
O304 O 0.43796 0.5643 0.76202 0.0
C305 C 0.48288 0.52322 0.65443 0.0
Co306 Co 0.87236 0.70872 0.7018 0.0
Co307 Co 0.88581 0.72535 0.60049 0.0
C308 C 0.88017 0.67753 0.62339 0.0
O309 O 0.87396 0.68299 0.66449 0.0
O310 O 0.88563 0.69201 0.59226 0.0
C311 C 0.90419 0.68261 0.76442 0.0
O312 O 0.92431 0.68067 0.72801 0.0
C313 C 0.93166 0.7338 0.51876 0.0
C314 C 0.90635 0.76232 0.48644 0.0
C315 C 0.93591 0.74937 0.48338 0.0
N316 N 0.90176 0.73791 0.54168 0.0
N317 N 0.88641 0.75466 0.52116 0.0
C318 C 0.95682 0.71647 0.53355 0.0
H319 H 0.95165 0.71129 0.56974 0.0
H320 H 0.98382 0.72238 0.53019 0.0
H321 H 0.95367 0.70192 0.51094 0.0
C322 C 0.93278 0.73529 0.72187 0.0
N323 N 0.90977 0.72738 0.69137 0.0
N324 N 0.91771 0.73402 0.64926 0.0
C325 C 0.94694 0.74627 0.65229 0.0
C326 C 0.95753 0.74689 0.69825 0.0
C327 C 0.93013 0.7334 0.77344 0.0
H328 H 0.90287 0.73129 0.78437 0.0
H329 H 0.94583 0.71929 0.78539 0.0
H330 H 0.94077 0.74831 0.79021 0.0
O331 O 0.82926 0.72433 0.69199 0.0
O332 O 0.8363 0.73654 0.61938 0.0
H333 H 0.94506 0.76358 0.5875 0.0
H334 H 0.9796 0.77194 0.62525 0.0
C335 C 0.96439 0.75772 0.61289 0.0
H336 H 0.98273 0.74629 0.59606 0.0
H337 H 0.86329 0.76166 0.53244 0.0
O338 O 0.8778 0.69515 0.7623 0.0
C339 C 0.81827 0.73486 0.65686 0.0
Co340 Co 0.42919 0.71181 0.53266 0.0
Co341 Co 0.41429 0.72742 0.63442 0.0
C342 C 0.42344 0.6801 0.61123 0.0
O343 O 0.42882 0.68583 0.56997 0.0
O344 O 0.41762 0.69423 0.64286 0.0
C345 C 0.40177 0.68556 0.46777 0.0
O346 O 0.3794 0.68387 0.50178 0.0
C347 C 0.3716 0.73218 0.72033 0.0
C348 C 0.37797 0.7673 0.73581 0.0
C349 C 0.35875 0.74904 0.74854 0.0
N350 N 0.39588 0.74045 0.69142 0.0
N351 N 0.4001 0.76136 0.70193 0.0
C352 C 0.36198 0.70841 0.72147 0.0
H353 H 0.38584 0.69831 0.72253 0.0
H354 H 0.34791 0.70406 0.68933 0.0
H355 H 0.34603 0.70443 0.75231 0.0
C356 C 0.36598 0.73591 0.51311 0.0
N357 N 0.39017 0.7289 0.54303 0.0
N358 N 0.38123 0.73407 0.5856 0.0
C359 C 0.34974 0.74387 0.58375 0.0
C360 C 0.33911 0.74498 0.53782 0.0
C361 C 0.36961 0.73565 0.46149 0.0
H362 H 0.39727 0.73531 0.45136 0.0
H363 H 0.35649 0.72103 0.44728 0.0
H364 H 0.35702 0.75034 0.44614 0.0
O365 O 0.46978 0.72911 0.54298 0.0
O366 O 0.46246 0.74087 0.61563 0.0
H367 H 0.34361 0.76384 0.64383 0.0
H368 H 0.30349 0.75746 0.61499 0.0
C369 C 0.32925 0.75096 0.62491 0.0
H370 H 0.32563 0.73671 0.64806 0.0
H371 H 0.41645 0.77196 0.68394 0.0
O372 O 0.427 0.69879 0.47148 0.0
C373 C 0.48009 0.74005 0.57771 0.0
Co374 Co 0.87631 0.55125 0.52224 0.0
Co375 Co 0.89302 0.53584 0.62315 0.0
C376 C 0.87689 0.58272 0.60047 0.0
O377 O 0.87091 0.57622 0.56012 0.0
O378 O 0.88747 0.56919 0.6312 0.0
C379 C 0.89272 0.5827 0.45788 0.0
O380 O 0.91296 0.58903 0.4918 0.0
C381 C 0.93882 0.53141 0.7067 0.0
C382 C 0.92374 0.49907 0.73405 0.0
C383 C 0.94744 0.51587 0.74066 0.0
N384 N 0.91204 0.52386 0.68112 0.0
N385 N 0.90288 0.50464 0.69844 0.0
C386 C 0.95519 0.55339 0.6992 0.0
H387 H 0.97308 0.55262 0.66924 0.0
H388 H 0.9696 0.55878 0.73035 0.0
H389 H 0.93505 0.56574 0.69111 0.0
C390 C 0.943 0.53106 0.50169 0.0
N391 N 0.91827 0.53686 0.53207 0.0
N392 N 0.92628 0.52983 0.57383 0.0
C393 C 0.9571 0.51922 0.57092 0.0
C394 C 0.96869 0.51986 0.52517 0.0
C395 C 0.94237 0.53696 0.45133 0.0
H396 H 0.91595 0.53476 0.43726 0.0
H397 H 0.9498 0.55439 0.44761 0.0
H398 H 0.96074 0.52714 0.43055 0.0
O399 O 0.83859 0.53143 0.53147 0.0
O400 O 0.84527 0.52135 0.60534 0.0
H401 H 0.99364 0.49537 0.59696 0.0
H402 H 0.98733 0.51911 0.63282 0.0
C403 C 0.9741 0.50722 0.60999 0.0
H404 H 0.95444 0.49829 0.63056 0.0
H405 H 0.88336 0.49486 0.68473 0.0
O406 O 0.87501 0.56524 0.46204 0.0
C407 C 0.82838 0.52088 0.56682 0.0
Co408 Co 0.62186 0.45822 0.28196 0.0
Co409 Co 0.63824 0.47499 0.38222 0.0
C410 C 0.62577 0.42739 0.36087 0.0
O411 O 0.61967 0.43259 0.31956 0.0
O412 O 0.63375 0.44178 0.39101 0.0
C413 C 0.6376 0.42831 0.21364 0.0
O414 O 0.65807 0.42098 0.24643 0.0
C415 C 0.68613 0.47922 0.46238 0.0
C416 C 0.67168 0.51126 0.49176 0.0
C417 C 0.69609 0.49461 0.4957 0.0
N418 N 0.65804 0.48676 0.43943 0.0
N419 N 0.64916 0.50574 0.45805 0.0
C420 C 0.70273 0.45749 0.45255 0.0
H421 H 0.68253 0.44469 0.44992 0.0
H422 H 0.71637 0.45814 0.4188 0.0
H423 H 0.72108 0.45268 0.48027 0.0
C424 C 0.6877 0.47967 0.26038 0.0
N425 N 0.66317 0.47357 0.29084 0.0
N426 N 0.67076 0.48112 0.33233 0.0
C427 C 0.70092 0.49234 0.32907 0.0
C428 C 0.71253 0.4916 0.28354 0.0
C429 C 0.68779 0.47364 0.21017 0.0
H430 H 0.69538 0.4562 0.20696 0.0
H431 H 0.7065 0.48349 0.1899 0.0
H432 H 0.66156 0.47582 0.19538 0.0
O433 O 0.58307 0.4775 0.29298 0.0
O434 O 0.59056 0.4894 0.36533 0.0
H435 H 0.69733 0.51339 0.38831 0.0
H436 H 0.73576 0.51735 0.35375 0.0
C437 C 0.71739 0.50497 0.3675 0.0
H438 H 0.732 0.49357 0.3901 0.0
H439 H 0.62885 0.5155 0.44618 0.0
O440 O 0.61971 0.44554 0.22041 0.0
C441 C 0.57313 0.48887 0.32732 0.0
Co442 Co 0.17684 0.3028 0.28208 0.0
Co443 Co 0.16228 0.28685 0.38361 0.0
C444 C 0.17388 0.3342 0.36017 0.0
O445 O 0.17859 0.32853 0.31889 0.0
O446 O 0.1674 0.32008 0.39167 0.0
C447 C 0.15534 0.33171 0.21613 0.0
O448 O 0.13353 0.33627 0.24965 0.0
C449 C 0.11574 0.28249 0.46543 0.0
C450 C 0.12998 0.25003 0.49311 0.0
C451 C 0.10585 0.26676 0.49828 0.0
N452 N 0.14346 0.27503 0.44154 0.0
N453 N 0.15225 0.2558 0.4592 0.0
C454 C 0.09941 0.30443 0.45686 0.0
H455 H 0.11984 0.31709 0.45411 0.0
H456 H 0.08531 0.30424 0.42347 0.0
H457 H 0.08151 0.30906 0.48525 0.0
C458 C 0.11215 0.28003 0.26277 0.0
N459 N 0.13652 0.28689 0.29257 0.0
N460 N 0.12895 0.28029 0.33484 0.0
C461 C 0.09861 0.26919 0.33283 0.0
C462 C 0.08708 0.26894 0.28727 0.0
C463 C 0.1127 0.2842 0.21167 0.0
H464 H 0.13963 0.28412 0.19857 0.0
H465 H 0.10081 0.30041 0.20468 0.0
H466 H 0.09764 0.27175 0.19248 0.0
O467 O 0.21648 0.28422 0.29254 0.0
O468 O 0.20985 0.27259 0.36543 0.0
H469 H 0.10151 0.24887 0.39334 0.0
H470 H 0.06238 0.24554 0.36011 0.0
C471 C 0.08177 0.25758 0.3725 0.0
H472 H 0.06829 0.26967 0.39465 0.0
H473 H 0.17218 0.246 0.44636 0.0
O474 O 0.17677 0.31602 0.22098 0.0
C475 C 0.22695 0.27311 0.3271 0.0
Co476 Co 0.61477 0.30023 0.44091 0.0
Co477 Co 0.62986 0.28579 0.33921 0.0
C478 C 0.61744 0.33326 0.36763 0.0
O479 O 0.61074 0.32708 0.40824 0.0
O480 O 0.62634 0.31954 0.33626 0.0
C481 C 0.61155 0.32745 0.52174 0.0
O482 O 0.60621 0.34422 0.49406 0.0
C483 C 0.67665 0.28349 0.2575 0.0
C484 C 0.66636 0.2503 0.23103 0.0
C485 C 0.68899 0.26782 0.22604 0.0
N486 N 0.64937 0.27512 0.28088 0.0
N487 N 0.64286 0.25547 0.2638 0.0
C488 C 0.68953 0.30636 0.26469 0.0
H489 H 0.66726 0.31783 0.26522 0.0
H490 H 0.70253 0.30749 0.29884 0.0
H491 H 0.70737 0.31148 0.2366 0.0
C492 C 0.68351 0.28105 0.45667 0.0
N493 N 0.65703 0.2862 0.4285 0.0
N494 N 0.66305 0.27832 0.38689 0.0
C495 C 0.6935 0.26722 0.38822 0.0
C496 C 0.70722 0.26873 0.43249 0.0
C497 C 0.68672 0.28816 0.50582 0.0
H498 H 0.67844 0.30547 0.50906 0.0
H499 H 0.71369 0.28667 0.51855 0.0
H500 H 0.67004 0.27744 0.52726 0.0
O501 O 0.57684 0.28106 0.42862 0.0
O502 O 0.58228 0.27094 0.35499 0.0
H503 H 0.68784 0.24484 0.33175 0.0
H504 H 0.72886 0.24285 0.36157 0.0
C505 C 0.70847 0.25429 0.3492 0.0
H506 H 0.7202 0.26571 0.32405 0.0
H507 H 0.62388 0.24496 0.27667 0.0
O508 O 0.61293 0.30812 0.50535 0.0
C509 C 0.56593 0.27055 0.39384 0.0
Co510 Co 0.191 0.46094 0.44329 0.0
Co511 Co 0.1729 0.47591 0.34286 0.0
C512 C 0.18774 0.42833 0.36971 0.0
O513 O 0.1947 0.43444 0.4102 0.0
O514 O 0.17785 0.44212 0.33886 0.0
C515 C 0.19346 0.43363 0.52426 0.0
O516 O 0.19281 0.41654 0.49671 0.0
C517 C 0.12423 0.47864 0.26277 0.0
C518 C 0.13466 0.5118 0.23586 0.0
C519 C 0.1118 0.49439 0.23137 0.0
N520 N 0.15188 0.48686 0.28551 0.0
N521 N 0.15839 0.5065 0.26823 0.0
C522 C 0.11113 0.45583 0.27042 0.0
H523 H 0.13327 0.44427 0.27165 0.0
H524 H 0.0978 0.4549 0.3044 0.0
H525 H 0.09344 0.45068 0.24225 0.0
C526 C 0.12195 0.47909 0.46294 0.0
N527 N 0.14794 0.47454 0.43344 0.0
N528 N 0.14055 0.48251 0.39225 0.0
C529 C 0.10972 0.4931 0.39519 0.0
C530 C 0.09714 0.49118 0.44009 0.0
C531 C 0.11993 0.47121 0.51176 0.0
H532 H 0.13679 0.48172 0.53325 0.0
H533 H 0.12868 0.45394 0.51363 0.0
H534 H 0.09319 0.47219 0.52559 0.0
O535 O 0.22825 0.4805 0.4297 0.0
O536 O 0.22007 0.49163 0.35714 0.0
H537 H 0.0733 0.51732 0.3705 0.0
H538 H 0.08068 0.49438 0.33287 0.0
C539 C 0.09327 0.5059 0.35697 0.0
H540 H 0.11316 0.51536 0.33793 0.0
H541 H 0.17769 0.51688 0.28052 0.0
O542 O 0.19531 0.45283 0.50724 0.0
C543 C 0.23766 0.49166 0.39496 0.0
Co544 Co 0.93385 0.04858 0.69416 0.0
Co545 Co 0.91674 0.03536 0.59298 0.0
C546 C 0.92095 0.08288 0.62496 0.0
O547 O 0.92765 0.07647 0.6655 0.0
O548 O 0.91755 0.06918 0.59164 0.0
C549 C 0.94157 0.07278 0.77811 0.0
O550 O 0.94679 0.09053 0.75325 0.0
C551 C 0.87168 0.03338 0.50863 0.0
C552 C 0.87884 0.99903 0.48707 0.0
C553 C 0.85867 0.01744 0.4783 0.0
N554 N 0.89699 0.02439 0.5349 0.0
N555 N 0.90163 1.00399 0.52076 0.0
C556 C 0.86147 0.05704 0.51167 0.0
H557 H 0.88508 0.06734 0.51183 0.0
H558 H 0.84766 0.06006 0.54474 0.0
H559 H 0.84508 0.06202 0.48193 0.0
C560 C 0.86984 0.02566 0.71469 0.0
N561 N 0.8948 0.03135 0.68462 0.0
N562 N 0.88538 0.02635 0.64223 0.0
C563 C 0.85331 0.01735 0.64444 0.0
C564 C 0.8424 0.01697 0.69047 0.0
C565 C 0.87227 0.02857 0.76593 0.0
H566 H 0.87144 0.04632 0.77437 0.0
H567 H 0.85106 0.02005 0.78452 0.0
H568 H 0.89723 0.0217 0.77782 0.0
O569 O 0.97551 0.03431 0.67651 0.0
O570 O 0.96657 0.02219 0.60508 0.0
H571 H 0.84664 0.99958 0.58142 0.0
H572 H 0.80706 1.00377 0.61352 0.0
C573 C 0.83205 0.01126 0.60334 0.0
H574 H 0.82671 0.02624 0.58293 0.0
H575 H 0.91883 0.99299 0.53612 0.0
O576 O 0.93792 0.05439 0.75845 0.0
C577 C 0.98581 0.024 0.64125 0.0
Co578 Co 0.36672 0.21316 0.69456 0.0
Co579 Co 0.38168 0.2279 0.59394 0.0
C580 C 0.3729 0.17972 0.62546 0.0
O581 O 0.36694 0.18562 0.66641 0.0
O582 O 0.37772 0.19379 0.59295 0.0
C583 C 0.35873 0.19052 0.78069 0.0
O584 O 0.35196 0.17248 0.75764 0.0
C585 C 0.4291 0.23025 0.51216 0.0
C586 C 0.4115 0.2604 0.47722 0.0
C587 C 0.43717 0.24446 0.47546 0.0
N588 N 0.40075 0.2378 0.53456 0.0
N589 N 0.3901 0.25564 0.51276 0.0
C590 C 0.44751 0.20956 0.52555 0.0
H591 H 0.42869 0.19719 0.53789 0.0
H592 H 0.46561 0.21295 0.5544 0.0
H593 H 0.46211 0.20268 0.49583 0.0
C594 C 0.43472 0.23155 0.71164 0.0
N595 N 0.40837 0.22735 0.68284 0.0
N596 N 0.41476 0.23573 0.64176 0.0
C597 C 0.44519 0.24676 0.64436 0.0
C598 C 0.45844 0.24455 0.68908 0.0
C599 C 0.43913 0.22133 0.75838 0.0
H600 H 0.42853 0.20445 0.75857 0.0
H601 H 0.46678 0.22059 0.76853 0.0
H602 H 0.42526 0.23144 0.78406 0.0
O603 O 0.32749 0.23083 0.67994 0.0
O604 O 0.3345 0.24347 0.60855 0.0
H605 H 0.44026 0.26674 0.58337 0.0
H606 H 0.47703 0.27327 0.61974 0.0
C607 C 0.4608 0.25981 0.60581 0.0
H608 H 0.4776 0.249 0.58468 0.0
H609 H 0.36913 0.26516 0.52334 0.0
O610 O 0.3634 0.20835 0.75915 0.0
C611 C 0.31705 0.24232 0.64636 0.0
Co612 Co 0.92686 0.20889 0.52291 0.0
Co613 Co 0.90691 0.22537 0.62214 0.0
C614 C 0.92105 0.178 0.60287 0.0
O615 O 0.92904 0.184 0.5626 0.0
O616 O 0.91056 0.19208 0.63247 0.0
C617 C 0.90781 0.1783 0.45849 0.0
O618 O 0.88722 0.17282 0.49277 0.0
C619 C 0.86045 0.23112 0.70485 0.0
C620 C 0.87101 0.2653 0.7248 0.0
C621 C 0.84939 0.24777 0.73486 0.0
N622 N 0.88642 0.23876 0.67783 0.0
N623 N 0.89291 0.25913 0.69079 0.0
C624 C 0.8479 0.20794 0.70318 0.0
H625 H 0.83447 0.20495 0.66987 0.0
H626 H 0.83052 0.20411 0.73266 0.0
H627 H 0.87045 0.19674 0.70468 0.0
C628 C 0.86253 0.23094 0.4973 0.0
N629 N 0.88569 0.22463 0.52941 0.0
N630 N 0.87556 0.23103 0.57074 0.0
C631 C 0.8445 0.24114 0.56595 0.0
C632 C 0.83526 0.24124 0.5193 0.0
C633 C 0.8662 0.22669 0.44648 0.0
H634 H 0.89383 0.22678 0.43632 0.0
H635 H 0.8549 0.21049 0.43853 0.0
H636 H 0.85233 0.23903 0.42538 0.0
O637 O 0.96531 0.22795 0.5332 0.0
O638 O 0.95547 0.23933 0.60558 0.0
H639 H 0.84146 0.26229 0.62481 0.0
H640 H 0.80203 0.26086 0.59161 0.0
C641 C 0.82444 0.25129 0.60466 0.0
H642 H 0.8149 0.23816 0.62786 0.0
H643 H 0.9112 0.2692 0.67496 0.0
O644 O 0.92821 0.19452 0.46306 0.0
C645 C 0.97406 0.23905 0.5684 0.0
Co646 Co 0.3711 0.05206 0.53457 0.0
Co647 Co 0.38435 0.03734 0.6359 0.0
C648 C 0.3721 0.08483 0.60811 0.0
O649 O 0.3665 0.07855 0.56739 0.0
O650 O 0.38036 0.07103 0.63969 0.0
C651 C 0.38204 0.07937 0.45637 0.0
O652 O 0.39204 0.09439 0.48596 0.0
C653 C 0.43118 0.03235 0.71766 0.0
C654 C 0.40599 1.00577 0.75671 0.0
C655 C 0.43565 0.01865 0.75636 0.0
N656 N 0.40105 0.02727 0.69637 0.0
N657 N 0.38582 0.01172 0.72076 0.0
C658 C 0.45599 0.0489 0.69865 0.0
H659 H 0.44993 0.0527 0.66198 0.0
H660 H 0.48304 0.04299 0.70165 0.0
H661 H 0.45342 0.06435 0.71861 0.0
C662 C 0.43877 0.03187 0.51876 0.0
N663 N 0.41276 0.03744 0.54733 0.0
N664 N 0.41873 0.02959 0.58907 0.0
C665 C 0.44898 0.01817 0.58745 0.0
C666 C 0.46282 0.01984 0.54301 0.0
C667 C 0.43926 0.03625 0.46792 0.0
H668 H 0.41439 0.0308 0.45304 0.0
H669 H 0.44262 0.05408 0.46203 0.0
H670 H 0.46044 0.02736 0.45004 0.0
O671 O 0.33253 0.03313 0.5443 0.0
O672 O 0.33664 0.02282 0.61805 0.0
H673 H 0.44368 1.00035 0.6515 0.0
H674 H 0.477 0.99019 0.61345 0.0
C675 C 0.46403 1.00517 0.62653 0.0
H676 H 0.48409 0.01505 0.64411 0.0
H677 H 0.3625 1.00437 0.71162 0.0
O678 O 0.37033 0.06121 0.47118 0.0
C679 C 0.3209 0.02262 0.57873 0.0
Co680 Co 0.11815 0.96099 0.27536 0.0
Co681 Co 0.13864 0.97858 0.37337 0.0
C682 C 0.12245 0.93121 0.35593 0.0
O683 O 0.1135 0.93637 0.3155 0.0
O684 O 0.13448 0.94553 0.38375 0.0
C685 C 0.12909 0.9287 0.20918 0.0
O686 O 0.14856 0.92041 0.24211 0.0
C687 C 0.18494 0.98343 0.45645 0.0
C688 C 0.1722 0.01677 0.48033 0.0
C689 C 0.19432 0.9993 0.48917 0.0
N690 N 0.15912 0.99139 0.42953 0.0
N691 N 0.1514 0.01125 0.44472 0.0
C692 C 0.19916 0.96068 0.45189 0.0
H693 H 0.17746 0.94886 0.45091 0.0
H694 H 0.21355 0.95914 0.41883 0.0
H695 H 0.21618 0.95626 0.48134 0.0
C696 C 0.18544 0.97955 0.24963 0.0
N697 N 0.16092 0.97522 0.28144 0.0
N698 N 0.17032 0.98308 0.32196 0.0
C699 C 0.20183 0.99248 0.31692 0.0
C700 C 0.21242 0.99041 0.27094 0.0
C701 C 0.18374 0.97221 0.20027 0.0
H702 H 0.15744 0.97505 0.18625 0.0
H703 H 0.18952 0.95444 0.19902 0.0
H704 H 0.20279 0.98069 0.17797 0.0
O705 O 0.08125 0.98141 0.28501 0.0
O706 O 0.09052 0.99319 0.35702 0.0
H707 H 0.24208 0.01435 0.34035 0.0
H708 H 0.23252 0.9917 0.37835 0.0
C709 C 0.22101 1.00401 0.35464 0.0
H710 H 0.20296 0.01444 0.37475 0.0
H711 H 0.13275 0.02138 0.42974 0.0
O712 O 0.11398 0.94702 0.21532 0.0
C713 C 0.07241 0.99296 0.31952 0.0
Co714 Co 0.67579 0.8004 0.28813 0.0
Co715 Co 0.66728 0.78581 0.39009 0.0
C716 C 0.67555 0.83395 0.3578 0.0
O717 O 0.67833 0.82805 0.31623 0.0
O718 O 0.67202 0.81985 0.39058 0.0
C719 C 0.67717 0.82321 0.20198 0.0
O720 O 0.68462 0.84118 0.22487 0.0
C721 C 0.62054 0.78326 0.47108 0.0
C722 C 0.63855 0.75353 0.50721 0.0
C723 C 0.61193 0.76888 0.5072 0.0
N724 N 0.64993 0.77629 0.45043 0.0
N725 N 0.66092 0.75876 0.47301 0.0
C726 C 0.60115 0.80326 0.45567 0.0
H727 H 0.58503 0.79923 0.42513 0.0
H728 H 0.58441 0.80968 0.48381 0.0
H729 H 0.61957 0.81623 0.44502 0.0
C730 C 0.60629 0.78269 0.27943 0.0
N731 N 0.63465 0.78683 0.30465 0.0
N732 N 0.63182 0.77765 0.34565 0.0
C733 C 0.60199 0.76589 0.34616 0.0
C734 C 0.58513 0.76882 0.30398 0.0
C735 C 0.59764 0.79332 0.23422 0.0
H736 H 0.61061 0.80941 0.23093 0.0
H737 H 0.56929 0.79581 0.23105 0.0
H738 H 0.60566 0.7823 0.2059 0.0
O739 O 0.7155 0.78206 0.29924 0.0
O740 O 0.71407 0.77079 0.37227 0.0
H741 H 0.61317 0.74509 0.40445 0.0
H742 H 0.57593 0.73696 0.37054 0.0
C743 C 0.59058 0.75111 0.38455 0.0
H744 H 0.57307 0.76027 0.40796 0.0
H745 H 0.68247 0.74953 0.46335 0.0
O746 O 0.67506 0.8051 0.22321 0.0
C747 C 0.72862 0.77124 0.33226 0.0
Co748 Co 0.12158 0.80809 0.45651 0.0
Co749 Co 0.13581 0.78917 0.35658 0.0
C750 C 0.12891 0.8373 0.37442 0.0
O751 O 0.12339 0.833 0.41639 0.0
O752 O 0.13401 0.82215 0.34477 0.0
C753 C 0.15018 0.83566 0.51985 0.0
O754 O 0.1697 0.8392 0.48344 0.0
C755 C 0.17881 0.78271 0.2713 0.0
C756 C 0.17214 0.74743 0.25796 0.0
C757 C 0.19154 0.76544 0.24416 0.0
N758 N 0.15435 0.77495 0.30065 0.0
N759 N 0.15001 0.75391 0.29144 0.0
C760 C 0.18905 0.80636 0.26898 0.0
H761 H 0.16547 0.81665 0.26616 0.0
H762 H 0.20247 0.81106 0.3014 0.0
H763 H 0.20581 0.80973 0.23861 0.0
C764 C 0.18343 0.78291 0.47884 0.0
N765 N 0.15954 0.78965 0.44814 0.0
N766 N 0.16816 0.78309 0.40631 0.0
C767 C 0.19904 0.77262 0.40931 0.0
C768 C 0.20959 0.77238 0.45534 0.0
C769 C 0.18037 0.78504 0.5303 0.0
H770 H 0.1529 0.78641 0.5409 0.0
H771 H 0.19474 0.79972 0.54185 0.0
H772 H 0.19214 0.77058 0.5477 0.0
O773 O 0.07912 0.79226 0.44662 0.0
O774 O 0.08654 0.77744 0.37646 0.0
H775 H 0.20514 0.75099 0.35178 0.0
H776 H 0.24537 0.7585 0.37918 0.0
C777 C 0.2194 0.76448 0.36885 0.0
H778 H 0.22269 0.77806 0.34391 0.0
H779 H 0.1335 0.74362 0.30999 0.0
O780 O 0.1253 0.82207 0.5169 0.0
C781 C 0.06822 0.78052 0.41334 0.0
Co782 Co 0.68177 0.96152 0.45139 0.0
Co783 Co 0.66295 0.97575 0.35072 0.0
C784 C 0.67967 0.92905 0.37563 0.0
O785 O 0.68702 0.93603 0.4152 0.0
O786 O 0.66797 0.94221 0.34484 0.0
C787 C 0.66676 0.93143 0.51928 0.0
O788 O 0.64632 0.92411 0.4865 0.0
C789 C 0.61547 0.9813 0.26838 0.0
C790 C 0.64241 0.00703 0.22888 0.0
C791 C 0.61254 0.99437 0.22829 0.0
N792 N 0.64511 0.98642 0.29092 0.0
N793 N 0.66124 1.00157 0.26641 0.0
C794 C 0.58994 0.96514 0.28704 0.0
H795 H 0.59516 0.96165 0.32408 0.0
H796 H 0.56314 0.97134 0.28275 0.0
H797 H 0.59266 0.94945 0.26797 0.0
C798 C 0.61474 0.98074 0.4733 0.0
N799 N 0.63919 0.97538 0.4422 0.0
N800 N 0.63033 0.98254 0.40075 0.0
C801 C 0.59949 0.9931 0.40508 0.0
C802 C 0.58848 0.99165 0.45092 0.0
C803 C 0.61736 0.97698 0.52439 0.0
H804 H 0.64443 0.97901 0.53612 0.0
H805 H 0.6086 0.96011 0.53232 0.0
H806 H 0.60061 0.98857 0.54382 0.0
O807 O 0.71897 0.98141 0.4403 0.0
O808 O 0.71078 0.99065 0.36632 0.0
H809 H 0.59974 0.01016 0.33977 0.0
H810 H 0.56879 0.02031 0.38146 0.0
C811 C 0.58137 1.00536 0.36736 0.0
H812 H 0.56066 0.99491 0.35277 0.0
H813 H 0.68465 0.00866 0.27595 0.0
O814 O 0.6844 0.94874 0.51254 0.0
C815 C 0.72832 0.99166 0.4042 0.0
Co816 Co 0.93332 0.5533 0.20463 0.0
Co817 Co 0.91605 0.538 0.10402 0.0
C818 C 0.93048 0.58503 0.12641 0.0
O819 O 0.93698 0.57863 0.1668 0.0
O820 O 0.92078 0.57128 0.09576 0.0
C821 C 0.91405 0.58353 0.2696 0.0
O822 O 0.89366 0.58936 0.23538 0.0
C823 C 0.87061 0.5344 0.02085 0.0
C824 C 0.87899 0.50011 -0.00029 0.0
C825 C 0.85811 0.5182 0.99085 0.0
N826 N 0.89636 0.52588 0.04704 0.0
N827 N 0.90173 0.50551 0.03318 0.0
C828 C 0.85939 0.55787 0.0238 0.0
H829 H 0.88249 0.56859 0.02302 0.0
H830 H 0.84599 0.56073 0.05725 0.0
H831 H 0.84236 0.56247 -0.00554 0.0
C832 C 0.86761 0.53186 0.22615 0.0
N833 N 0.8919 0.53824 0.1956 0.0
N834 N 0.88327 0.53197 0.15361 0.0
C835 C 0.85229 0.52169 0.15642 0.0
C836 C 0.84138 0.52149 0.20235 0.0
C837 C 0.86933 0.53605 0.27716 0.0
H838 H 0.89644 0.53499 0.28937 0.0
H839 H 0.85924 0.5527 0.28417 0.0
H840 H 0.8534 0.5243 0.29713 0.0
O841 O 0.97169 0.53393 0.19448 0.0
O842 O 0.96355 0.52313 0.12139 0.0
H843 H 0.81125 0.50163 0.12835 0.0
H844 H 0.82513 0.52424 0.09274 0.0
C845 C 0.83398 0.51125 0.11669 0.0
H846 H 0.85197 0.50023 0.09801 0.0
H847 H 0.91947 0.49484 0.04849 0.0
O848 O 0.93387 0.56697 0.26508 0.0
C849 C 0.98112 0.52295 0.15934 0.0
Co850 Co 0.36728 0.70756 0.20902 0.0
Co851 Co 0.38729 0.72666 0.1108 0.0
C852 C 0.37539 0.67841 0.12858 0.0
O853 O 0.36825 0.68268 0.17003 0.0
O854 O 0.38293 0.69353 0.09963 0.0
C855 C 0.37412 0.67589 0.27975 0.0
O856 O 0.39014 0.6646 0.24757 0.0
C857 C 0.43498 0.7329 0.02841 0.0
C858 C 0.41771 0.76494 0.00169 0.0
C859 C 0.44218 0.74863 -0.00584 0.0
N860 N 0.40801 0.73983 0.0547 0.0
N861 N 0.39774 0.75894 0.0379 0.0
C862 C 0.45271 0.71126 0.03509 0.0
H863 H 0.43455 0.69901 0.0494 0.0
H864 H 0.47426 0.71312 0.06003 0.0
H865 H 0.46329 0.70512 0.0018 0.0
C866 C 0.43246 0.72801 0.23598 0.0
N867 N 0.40859 0.72333 0.20367 0.0
N868 N 0.41787 0.73168 0.16343 0.0
C869 C 0.44837 0.74221 0.16948 0.0
C870 C 0.45864 0.74004 0.21561 0.0
C871 C 0.43125 0.71951 0.2846 0.0
H872 H 0.40608 0.72381 0.30065 0.0
H873 H 0.43356 0.70144 0.28355 0.0
H874 H 0.45251 0.72585 0.30638 0.0
O875 O 0.32822 0.7263 0.19594 0.0
O876 O 0.33907 0.74068 0.12633 0.0
H877 H 0.48534 0.76675 0.14815 0.0
H878 H 0.48071 0.74379 0.1096 0.0
C879 C 0.46652 0.75514 0.13275 0.0
H880 H 0.44742 0.76439 0.11178 0.0
H881 H 0.37758 0.76819 0.0518 0.0
O882 O 0.36223 0.69489 0.27063 0.0
C883 C 0.3197 0.73862 0.16238 0.0
Co884 Co 0.92506 0.71138 0.02331 0.0
Co885 Co 0.91021 0.72765 0.124 0.0
C886 C 0.92157 0.67961 0.09911 0.0
O887 O 0.92599 0.68495 0.05744 0.0
O888 O 0.91596 0.69412 0.13024 0.0
C889 C 0.94405 0.68446 0.94835 0.0
O890 O 0.96518 0.67462 0.97726 0.0
C891 C 0.86343 0.73149 0.20649 0.0
C892 C 0.88081 0.76238 0.23823 0.0
C893 C 0.85568 0.74625 0.24224 0.0
N894 N 0.89117 0.73885 0.18249 0.0
N895 N 0.90167 0.75718 0.20235 0.0
C896 C 0.8453 0.71042 0.19577 0.0
H897 H 0.82705 0.71296 0.16668 0.0
H898 H 0.83086 0.70427 0.22635 0.0
H899 H 0.86431 0.69783 0.18485 0.0
C900 C 0.85769 0.73013 0.0047 0.0
N901 N 0.88373 0.72591 0.03402 0.0
N902 N 0.87693 0.73411 0.07512 0.0
C903 C 0.84615 0.74476 0.07235 0.0
C904 C 0.83298 0.74238 0.0276 0.0
C905 C 0.85547 0.72084 0.95683 0.0
H906 H 0.87509 0.72882 0.93442 0.0
H907 H 0.8612 0.70304 0.95828 0.0
H908 H 0.8295 0.72298 0.94128 0.0
O909 O 0.96416 0.73018 0.03508 0.0
O910 O 0.95752 0.74226 0.10728 0.0
H911 H 0.81332 0.77111 0.09591 0.0
H912 H 0.81555 0.74775 0.13373 0.0
C913 C 0.83083 0.75836 0.11028 0.0
H914 H 0.85161 0.76631 0.1306 0.0
H915 H 0.92223 0.76664 0.19034 0.0
O916 O 0.92693 0.70126 0.96048 0.0
C917 C 0.97462 0.7415 0.06906 0.0
Co918 Co 0.37027 0.55098 0.04066 0.0
Co919 Co 0.38397 0.5369 0.14318 0.0
C920 C 0.37021 0.58426 0.1129 0.0
O921 O 0.36525 0.57795 0.07197 0.0
O922 O 0.3787 0.57068 0.1449 0.0
C923 C 0.36614 0.57696 0.95763 0.0
O924 O 0.35939 0.59398 0.98391 0.0
C925 C 0.43248 0.53384 0.22285 0.0
C926 C 0.41487 0.50394 0.25862 0.0
C927 C 0.44143 0.51926 0.25848 0.0
N928 N 0.40291 0.52701 0.20254 0.0
N929 N 0.39219 0.50938 0.22496 0.0
C930 C 0.45155 0.55402 0.20799 0.0
H931 H 0.46695 0.55049 0.1765 0.0
H932 H 0.46896 0.55994 0.2358 0.0
H933 H 0.43286 0.56717 0.19902 0.0
C934 C 0.44003 0.53307 0.02765 0.0
N935 N 0.41277 0.53769 0.05486 0.0
N936 N 0.41791 0.52939 0.09639 0.0
C937 C 0.44827 0.51814 0.09561 0.0
C938 C 0.46306 0.52037 0.05204 0.0
C939 C 0.44462 0.54085 0.97909 0.0
H940 H 0.4338 0.55756 0.97517 0.0
H941 H 0.47234 0.5412 0.96914 0.0
H942 H 0.43127 0.52917 0.9559 0.0
O943 O 0.33229 0.53164 0.05341 0.0
O944 O 0.33707 0.52159 0.12724 0.0
H945 H 0.4402 0.49765 0.15533 0.0
H946 H 0.47649 0.48985 0.11935 0.0
C947 C 0.46173 0.50391 0.13378 0.0
H948 H 0.47971 0.5135 0.15557 0.0
H949 H 0.37052 0.50027 0.2156 0.0
O950 O 0.3689 0.55798 0.97556 0.0
C951 C 0.32111 0.52115 0.08819 0.0
Co952 Co 0.12596 0.46228 0.78293 0.0
Co953 Co 0.13975 0.47798 0.8844 0.0
C954 C 0.13129 0.43013 0.85845 0.0
O955 O 0.1271 0.43562 0.8168 0.0
O956 O 0.13536 0.44451 0.89022 0.0
C957 C 0.12888 0.43408 0.70331 0.0
O958 O 0.1287 0.41724 0.73168 0.0
C959 C 0.18222 0.48083 0.97088 0.0
C960 C 0.1749 0.5154 0.99065 0.0
C961 C 0.19431 0.49691 0.0015 0.0
N962 N 0.15805 0.48975 0.94264 0.0
N963 N 0.15333 0.51032 0.95562 0.0
C964 C 0.19249 0.45716 0.969 0.0
H965 H 0.20728 0.454 0.93674 0.0
H966 H 0.208 0.45234 -0.00032 0.0
H967 H 0.16893 0.44684 0.9679 0.0
C968 C 0.19123 0.4844 0.76495 0.0
N969 N 0.16596 0.47844 0.79424 0.0
N970 N 0.17362 0.48477 0.8365 0.0
C971 C 0.2049 0.49488 0.83491 0.0
C972 C 0.217 0.49468 0.78941 0.0
C973 C 0.1896 0.48163 0.71375 0.0
H974 H 0.16397 0.48738 0.7017 0.0
H975 H 0.19295 0.46401 0.70542 0.0
H976 H 0.2098 0.49122 0.6955 0.0
O977 O 0.08558 0.47964 0.79464 0.0
O978 O 0.09201 0.49235 0.86635 0.0
H979 H 0.2073 0.51611 0.89358 0.0
H980 H 0.24871 0.51118 0.86621 0.0
C981 C 0.22363 0.50368 0.87604 0.0
H982 H 0.22861 0.4901 0.90056 0.0
H983 H 0.13688 0.52129 0.93877 0.0
O984 O 0.12522 0.45341 0.71905 0.0
C985 C 0.07477 0.49104 0.82829 0.0
Co986 Co 0.67511 0.30566 0.78161 0.0
Co987 Co 0.65927 0.28717 0.8803 0.0
C988 C 0.66913 0.33593 0.85856 0.0
O989 O 0.67424 0.33155 0.81658 0.0
O990 O 0.66416 0.32077 0.88864 0.0
C991 C 0.67349 0.33391 0.70181 0.0
O992 O 0.66831 0.35056 0.72974 0.0
C993 C 0.6131 0.28245 0.96326 0.0
C994 C 0.62575 0.2491 0.98748 0.0
C995 C 0.60301 0.26635 -0.00469 0.0
N996 N 0.63957 0.27469 0.9373 0.0
N997 N 0.64732 0.25486 0.95278 0.0
C998 C 0.59899 0.3052 0.95825 0.0
H999 H 0.58409 0.30646 0.92553 0.0
H1000 H 0.58241 0.30975 0.9881 0.0
H1001 H 0.62065 0.31703 0.95597 0.0
C1002 C 0.60835 0.28574 0.75973 0.0
N1003 N 0.63384 0.29019 0.78988 0.0
N1004 N 0.6266 0.2815 0.83047 0.0
C1005 C 0.59613 0.27064 0.82658 0.0
C1006 C 0.58378 0.27301 0.78145 0.0
C1007 C 0.60627 0.29489 0.71182 0.0
H1008 H 0.62559 0.28637 0.68996 0.0
H1009 H 0.61197 0.31266 0.71274 0.0
H1010 H 0.58031 0.29278 0.69623 0.0
O1011 O 0.71458 0.28729 0.79366 0.0
O1012 O 0.70648 0.27234 0.86308 0.0
H1013 H 0.59965 0.24773 0.88268 0.0
H1014 H 0.55948 0.24646 0.85066 0.0
C1015 C 0.57972 0.25755 0.86444 0.0
H1016 H 0.56765 0.26891 0.88961 0.0
H1017 H 0.66627 0.24482 0.93827 0.0
O1018 O 0.67905 0.31493 0.71846 0.0
C1019 C 0.72444 0.27466 0.82588 0.0
Co1020 Co 0.11982 0.30467 0.96049 0.0
Co1021 Co 0.14052 0.28856 0.86109 0.0
C1022 C 0.12393 0.33557 0.88106 0.0
O1023 O 0.11661 0.32941 0.92135 0.0
O1024 O 0.13525 0.3218 0.85135 0.0
C1025 C 0.13316 0.33616 0.027 0.0
O1026 O 0.15241 0.3441 -0.00651 0.0
C1027 C 0.18515 0.28392 0.77595 0.0
C1028 C 0.17617 0.24939 0.75715 0.0
C1029 C 0.19598 0.26749 0.74518 0.0
N1030 N 0.16101 0.2756 0.80506 0.0
N1031 N 0.15548 0.25501 0.79285 0.0
C1032 C 0.19604 0.30746 0.77643 0.0
H1033 H 0.17282 0.31811 0.77842 0.0
H1034 H 0.21188 0.31065 0.8077 0.0
H1035 H 0.21077 0.31185 0.74478 0.0
C1036 C 0.18505 0.28398 0.98601 0.0
N1037 N 0.16181 0.28992 0.95377 0.0
N1038 N 0.172 0.2833 0.91259 0.0
C1039 C 0.20306 0.27321 0.91767 0.0
C1040 C 0.2121 0.27325 0.96445 0.0
C1041 C 0.18189 0.28945 0.03636 0.0
H1042 H 0.15517 0.28619 0.0485 0.0
H1043 H 0.18745 0.30708 0.04086 0.0
H1044 H 0.20044 0.28027 0.05819 0.0
O1045 O 0.0824 0.28504 0.94932 0.0
O1046 O 0.09285 0.27366 0.87714 0.0
H1047 H 0.20667 0.25113 0.86049 0.0
H1048 H 0.24673 0.25462 0.89178 0.0
C1049 C 0.22318 0.26309 0.87896 0.0
H1050 H 0.2308 0.27606 0.85402 0.0
H1051 H 0.13852 0.24451 0.81003 0.0
O1052 O 0.11662 0.31836 0.02093 0.0
C1053 C 0.0742 0.27375 0.91419 0.0
Co1054 Co 0.68203 0.46146 0.96086 0.0
Co1055 Co 0.66242 0.47714 0.86086 0.0
C1056 C 0.67782 0.43018 0.88241 0.0
O1057 O 0.68543 0.43645 0.92244 0.0
O1058 O 0.66678 0.44391 0.85242 0.0
C1059 C 0.66189 0.43102 0.0246 0.0
O1060 O 0.64153 0.42598 0.98986 0.0
C1061 C 0.6169 0.48186 0.77668 0.0
C1062 C 0.63085 0.51487 0.75189 0.0
C1063 C 0.60822 0.49769 0.74335 0.0
N1064 N 0.64279 0.48959 0.80367 0.0
N1065 N 0.65124 0.50923 0.78791 0.0
C1066 C 0.60173 0.45941 0.78186 0.0
H1067 H 0.58415 0.45902 0.81217 0.0
H1068 H 0.58733 0.45448 0.75037 0.0
H1069 H 0.62261 0.44731 0.78813 0.0
C1070 C 0.61757 0.48345 0.98501 0.0
N1071 N 0.6407 0.47692 0.9531 0.0
N1072 N 0.6306 0.48306 0.91154 0.0
C1073 C 0.59953 0.49321 0.91601 0.0
C1074 C 0.59031 0.49359 0.96272 0.0
C1075 C 0.62148 0.47974 0.03602 0.0
H1076 H 0.64916 0.47992 0.04585 0.0
H1077 H 0.61017 0.46365 0.04508 0.0
H1078 H 0.6078 0.49234 0.05661 0.0
O1079 O 0.72025 0.48052 0.9503 0.0
O1080 O 0.71043 0.49162 0.8776 0.0
H1081 H 0.55868 0.51414 0.89017 0.0
H1082 H 0.56822 0.49036 0.85546 0.0
C1083 C 0.57975 0.50343 0.87705 0.0
H1084 H 0.59742 0.51325 0.8551 0.0
H1085 H 0.67006 0.51917 0.80281 0.0
O1086 O 0.68263 0.44712 0.02086 0.0
C1087 C 0.72889 0.49154 0.91483 0.0
C1088 C 0.26159 0.01501 0.95915 0.0
C1089 C 0.25783 1.00301 0.91783 0.0
C1090 C 0.29417 0.02088 0.97638 0.0
C1091 C 0.32487 0.01533 0.95287 0.0
H1092 H 0.23912 0.01843 0.98043 0.0
H1093 H 0.29496 0.02829 0.01028 0.0
S1094 S 0.32929 0.98612 0.84014 0.0
N1095 N 0.28746 0.98721 0.85179 0.0
N1096 N 0.34894 0.99874 0.88331 0.0
C1097 C 0.32137 1.00467 0.90967 0.0
C1098 C 0.2879 0.99853 0.89221 0.0
C1099 C 1.011 0.2672 0.90198 0.0
C1100 C 0.04277 0.2601 0.92034 0.0
C1101 C 0.97935 0.26116 0.92284 0.0
C1102 C 0.97818 0.24789 0.96301 0.0
H1103 H 1.01066 0.27911 0.8741 0.0
H1104 H 0.95568 0.26816 0.9092 0.0
S1105 S 0.05488 0.22457 0.02329 0.0
N1106 N 0.07123 0.23809 0.97889 0.0
N1107 N 1.01259 0.22753 0.01909 0.0
C1108 C 1.00989 0.23964 0.97978 0.0
C1109 C 0.04189 0.24553 0.95811 0.0
C1110 C 0.26185 0.24868 0.27691 0.0
C1111 C 0.25909 0.26015 0.31902 0.0
C1112 C 0.29386 0.24168 0.25946 0.0
C1113 C 0.32493 0.24566 0.28338 0.0
H1114 H 0.23915 0.24641 0.25547 0.0
H1115 H 0.29405 0.23462 0.22524 0.0
S1116 S 0.33172 0.27313 0.39781 0.0
N1117 N 0.2899 0.27383 0.38608 0.0
N1118 N 0.3503 0.26036 0.35388 0.0
C1119 C 0.32232 0.2559 0.32715 0.0
C1120 C 0.28943 0.2631 0.34494 0.0
C1121 C 1.00462 0.02371 0.25263 0.0
C1122 C 0.97367 0.01869 0.27608 0.0
C1123 C 0.03701 0.01769 0.27057 0.0
C1124 C 0.0403 1.00612 0.31263 0.0
H1125 H 1.00416 0.03071 0.2183 0.0
H1126 H 0.05966 0.02051 0.24925 0.0
S1127 S 0.96808 0.99086 0.39052 0.0
N1128 N 0.94894 1.00321 0.34643 0.0
N1129 N 1.00998 0.99139 0.37922 0.0
C1130 C 1.01 1.00228 0.33817 0.0
C1131 C 0.97675 0.00855 0.32 0.0
C1132 C 0.72355 0.00873 0.06341 0.0
C1133 C 0.72409 0.99613 0.02235 0.0
C1134 C 0.75419 0.01386 0.08778 0.0
C1135 C 0.78669 0.00658 0.07206 0.0
H1136 H 0.69944 0.01589 0.07519 0.0
H1137 H 0.75271 0.02526 0.11642 0.0
S1138 S 0.80295 0.97262 0.96789 0.0
N1139 N 0.76065 0.97617 0.96831 0.0
N1140 N 0.81738 0.98514 0.01461 0.0
C1141 C 0.7873 0.99271 0.03314 0.0
C1142 C 0.75632 0.98768 0.00809 0.0
C1143 C 1.00918 0.76646 0.01953 0.0
C1144 C 1.00702 0.75403 0.06062 0.0
C1145 C 0.04113 0.77246 0.00014 0.0
C1146 C 0.07262 0.76637 0.021 0.0
H1147 H 0.98589 0.77014 0.00015 0.0
H1148 H 0.04088 0.78036 0.9666 0.0
S1149 S 0.08138 0.73545 0.13135 0.0
N1150 N 0.03914 0.73708 0.12324 0.0
N1151 N 0.09936 0.74856 0.08739 0.0
C1152 C 0.0708 0.75513 0.06375 0.0
C1153 C 0.03805 0.74901 0.08354 0.0
C1154 C 0.77774 0.76569 0.67684 0.0
C1155 C 0.7828 0.74407 0.66117 0.0
C1156 C 0.74579 0.7725 0.69592 0.0
C1157 C 0.71783 0.7578 0.70138 0.0
H1158 H 0.7992 0.77708 0.67675 0.0
H1159 H 0.74358 0.78929 0.70736 0.0
S1160 S 0.7175 0.69973 0.66128 0.0
N1161 N 0.75672 0.70855 0.64871 0.0
N1162 N 0.69724 0.72084 0.68467 0.0
C1163 C 0.72221 0.73648 0.68285 0.0
C1164 C 0.75453 0.72973 0.66311 0.0
C1165 C 0.07728 0.02341 0.68167 0.0
C1166 C 0.08158 1.00183 0.69858 0.0
C1167 C 0.04794 0.02971 0.65617 0.0
C1168 C 1.02132 0.0148 0.64581 0.0
H1169 H 0.09563 0.03609 0.69076 0.0
H1170 H 0.04458 0.04697 0.64814 0.0
S1171 S 1.02299 0.95525 0.67163 0.0
N1172 N 0.0594 0.96449 0.69418 0.0
N1173 N 1.00329 0.97679 0.64889 0.0
C1174 C 0.02662 0.99276 0.65847 0.0
C1175 C 0.05687 0.98618 0.68418 0.0
C1176 C 0.33203 0.50364 0.41201 0.0
C1177 C 0.3313 0.51711 0.45183 0.0
C1178 C 0.30148 0.4978 0.38819 0.0
C1179 C 0.2689 0.50535 0.40296 0.0
H1180 H 0.35621 0.49629 0.40102 0.0
H1181 H 0.30312 0.48568 0.36089 0.0
S1182 S 0.25203 0.54157 0.50344 0.0
N1183 N 0.29435 0.53811 0.50367 0.0
N1184 N 0.23789 0.52802 0.45786 0.0
C1185 C 0.2681 0.52017 0.44027 0.0
C1186 C 0.29895 0.5258 0.46503 0.0
C1187 C 1.00712 0.78627 0.43642 0.0
C1188 C 0.03247 0.77179 0.41934 0.0
C1189 C 0.9758 0.7787 0.45489 0.0
C1190 C 0.96815 0.75615 0.45786 0.0
H1191 H 1.0123 0.80373 0.43772 0.0
H1192 H 0.95817 0.79075 0.46919 0.0
S1193 S 1.02362 0.71138 0.4116 0.0
N1194 N 0.04656 0.73383 0.40243 0.0
N1195 N 0.98707 0.71947 0.43597 0.0
C1196 C 0.99225 0.74146 0.43794 0.0
C1197 C 1.02446 0.74929 0.41893 0.0
C1198 C 0.32519 0.76477 0.81569 0.0
C1199 C 0.32644 0.75031 0.7775 0.0
C1200 C 0.29358 0.77075 0.83683 0.0
C1201 C 0.26193 0.76238 0.82083 0.0
H1202 H 0.34865 0.77268 0.82743 0.0
H1203 H 0.29371 0.78341 0.8631 0.0
S1204 S 0.25007 0.72358 0.72359 0.0
N1205 N 0.29222 0.72751 0.72584 0.0
N1206 N 0.23373 0.73814 0.76644 0.0
C1207 C 0.26297 0.74681 0.78502 0.0
C1208 C 0.29492 0.74092 0.76311 0.0
C1209 C 1.01111 0.52213 0.75565 0.0
C1210 C 0.97888 0.5143 0.77125 0.0
C1211 C 0.04199 0.51695 0.77894 0.0
C1212 C 0.0424 0.5035 0.8187 0.0
H1213 H 1.01317 0.53076 0.72306 0.0
H1214 H 0.0662 0.52188 0.76315 0.0
S1215 S 0.96519 0.48032 0.87667 0.0
N1216 N 0.94926 0.49391 0.83194 0.0
N1217 N 1.00756 0.48369 0.87452 0.0
C1218 C 1.01036 0.49671 0.83651 0.0
C1219 C 0.97868 0.50212 0.81298 0.0
C1220 C 0.7608 0.48993 0.50071 0.0
C1221 C 0.7296 0.49655 0.52166 0.0
C1222 C 0.79302 0.49558 0.51957 0.0
C1223 C 0.7958 0.50833 0.56004 0.0
H1224 H 0.76072 0.48188 0.4674 0.0
H1225 H 0.81608 0.49148 0.50002 0.0
S1226 S 0.72238 0.52832 0.63092 0.0
N1227 N 0.70376 0.5151 0.58773 0.0
N1228 N 0.76452 0.52613 0.62235 0.0
C1229 C 0.76504 0.51388 0.58313 0.0
C1230 C 0.73199 0.50803 0.564 0.0
C1231 C 0.04113 0.27156 0.50442 0.0
C1232 C 0.07244 0.26454 0.52454 0.0
C1233 C 1.00897 0.26548 0.52309 0.0
C1234 C 1.00638 0.25197 0.56257 0.0
H1235 H 0.04108 0.28025 0.47179 0.0
H1236 H 0.98583 0.26985 0.50401 0.0
S1237 S 0.08006 0.23073 0.63123 0.0
N1238 N 0.09851 0.24479 0.58896 0.0
N1239 N 0.0379 0.23303 0.62316 0.0
C1240 C 0.03723 0.24602 0.58493 0.0
C1241 C 0.0702 0.25229 0.56601 0.0
C1242 C 0.72483 0.25364 0.15949 0.0
C1243 C 0.72285 0.26623 0.20052 0.0
C1244 C 0.75685 0.24701 0.14047 0.0
C1245 C 0.78821 0.25282 0.16163 0.0
H1246 H 0.70133 0.24764 0.14357 0.0
H1247 H 0.75691 0.23576 0.11149 0.0
S1248 S 0.79859 0.28636 0.26751 0.0
N1249 N 0.7564 0.28475 0.26015 0.0
N1250 N 0.81574 0.27295 0.22357 0.0
C1251 C 0.78679 0.26668 0.20041 0.0
C1252 C 0.75439 0.27322 0.22011 0.0
C1253 C 0.04412 0.51511 0.14519 0.0
C1254 C 1.01266 0.50934 0.16631 0.0
C1255 C 0.0761 0.50854 0.16449 0.0
C1256 C 0.07797 0.49602 0.20575 0.0
H1257 H 0.04416 0.52631 0.11604 0.0
H1258 H 0.09964 0.51452 0.14855 0.0
S1259 S 1.00205 0.47596 0.27272 0.0
N1260 N 0.98502 0.48923 0.22846 0.0
N1261 N 0.04427 0.47764 0.26556 0.0
C1262 C 0.04637 0.48907 0.22531 0.0
C1263 C 1.01402 0.49553 0.20533 0.0
C1264 C 0.79175 0.99748 0.39083 0.0
C1265 C 0.76031 1.00491 0.40968 0.0
C1266 C 0.82375 1.00333 0.4109 0.0
C1267 C 0.82566 0.01674 0.45073 0.0
H1268 H 0.79154 0.98547 0.36324 0.0
H1269 H 0.8471 0.99602 0.39699 0.0
S1270 S 0.75008 0.04128 0.51146 0.0
N1271 N 0.73299 0.0276 0.46794 0.0
N1272 N 0.79224 0.03785 0.50659 0.0
C1273 C 0.79429 0.02541 0.46776 0.0
C1274 C 0.76193 0.0197 0.44694 0.0
C1275 C 0.50164 0.23956 0.46518 0.0
C1276 C 0.46954 0.24608 0.44667 0.0
C1277 C 0.53293 0.245 0.44339 0.0
C1278 C 0.53394 0.25763 0.4025 0.0
H1279 H 0.50322 0.23187 0.4988 0.0
H1280 H 0.5568 0.24103 0.46123 0.0
S1281 S 0.45759 0.27693 0.33664 0.0
N1282 N 0.4409 0.26396 0.38168 0.0
N1283 N 0.50003 0.27495 0.3421 0.0
C1284 C 0.50225 0.26298 0.38167 0.0
C1285 C 0.47009 0.25716 0.40357 0.0
C1286 C 0.7884 0.26771 0.83057 0.0
C1287 C 0.75558 0.26129 0.81464 0.0
C1288 C 0.81885 0.26181 0.80638 0.0
C1289 C 0.81777 0.24939 0.76511 0.0
H1290 H 0.7904 0.27887 0.85958 0.0
H1291 H 0.84333 0.26815 0.81864 0.0
S1292 S 0.73776 0.22879 0.70895 0.0
N1293 N 0.72388 0.2413 0.75606 0.0
N1294 N 0.78025 0.23107 0.70989 0.0
C1295 C 0.78508 0.24209 0.75017 0.0
C1296 C 0.75431 0.24781 0.77514 0.0
C1297 C 0.50642 0.98422 0.81269 0.0
C1298 C 0.53303 0.99924 0.82218 0.0
C1299 C 0.47466 0.99101 0.79403 0.0
C1300 C 0.46788 0.01321 0.78344 0.0
H1301 H 0.51119 0.96677 0.81636 0.0
H1302 H 0.45614 0.97841 0.78507 0.0
S1303 S 0.52658 0.05964 0.81077 0.0
N1304 N 0.5492 0.0376 0.82501 0.0
N1305 N 0.4887 0.05067 0.79241 0.0
C1306 C 0.4931 0.02868 0.79694 0.0
C1307 C 0.52582 0.02163 0.81563 0.0
C1308 C 0.28812 0.99668 0.52985 0.0
C1309 C 0.28846 0.01028 0.5693 0.0
C1310 C 0.25739 0.99192 0.50593 0.0
C1311 C 0.22526 1.00029 0.52065 0.0
H1312 H 0.31237 0.99138 0.51464 0.0
H1313 H 0.25951 0.9832 0.47347 0.0
S1314 S 0.2112 0.0346 0.62525 0.0
N1315 N 0.25349 0.03062 0.62413 0.0
N1316 N 0.19545 0.02118 0.58032 0.0
C1317 C 0.22487 0.01252 0.56219 0.0
C1318 C 0.2564 0.0175 0.58638 0.0
C1319 C 0.5148 0.76493 0.5286 0.0
C1320 C 0.51237 0.75276 0.56994 0.0
C1321 C 0.54678 0.77133 0.51015 0.0
C1322 C 0.57815 0.76612 0.53238 0.0
H1323 H 0.49176 0.76808 0.50827 0.0
H1324 H 0.54654 0.77884 0.47631 0.0
S1325 S 0.58593 0.7364 0.64443 0.0
N1326 N 0.54386 0.73702 0.6345 0.0
N1327 N 0.60424 0.74953 0.60072 0.0
C1328 C 0.57594 0.75523 0.57558 0.0
C1329 C 0.54309 0.74856 0.59427 0.0
C1330 C 0.22432 0.74953 0.17641 0.0
C1331 C 0.22367 0.76383 0.21487 0.0
C1332 C 0.25562 0.7435 0.15448 0.0
C1333 C 0.28762 0.75163 0.16992 0.0
H1334 H 0.20061 0.74183 0.16494 0.0
H1335 H 0.255 0.73098 0.12794 0.0
S1336 S 0.30103 0.78963 0.26822 0.0
N1337 N 0.25878 0.78603 0.26658 0.0
N1338 N 0.31673 0.77525 0.22464 0.0
C1339 C 0.28718 0.76693 0.20628 0.0
C1340 C 0.25552 0.77289 0.22895 0.0
C1341 C 0.54748 0.02648 0.15524 0.0
C1342 C 0.52097 0.0114 0.14567 0.0
C1343 C 0.57735 0.02034 0.17975 0.0
C1344 C 0.58231 0.99876 0.19637 0.0
H1345 H 0.54374 0.04371 0.14726 0.0
H1346 H 0.59566 0.03313 0.18824 0.0
S1347 S 0.52386 0.95186 0.17136 0.0
N1348 N 0.50343 0.97331 0.14938 0.0
N1349 N 0.56057 0.9613 0.19267 0.0
C1350 C 0.55754 0.98298 0.18285 0.0
C1351 C 0.52671 0.98941 0.15825 0.0
C1352 C 0.79223 0.49785 0.9024 0.0
C1353 C 0.76052 0.50502 0.92086 0.0
C1354 C 0.82394 0.50385 0.92303 0.0
C1355 C 0.82526 0.51712 0.9631 0.0
H1356 H 0.79246 0.48594 0.87461 0.0
H1357 H 0.84755 0.49679 0.90932 0.0
S1358 S 0.7487 0.54066 0.02346 0.0
N1359 N 0.73225 0.52713 0.9793 0.0
N1360 N 0.79096 0.53762 0.01907 0.0
C1361 C 0.79358 0.52545 0.97992 0.0
C1362 C 0.76153 0.51962 0.95847 0.0
C1363 C 0.50492 0.74203 0.9722 0.0
C1364 C 0.472 0.75033 0.96057 0.0
C1365 C 0.53444 0.74717 0.94581 0.0
C1366 C 0.5328 0.76105 0.90676 0.0
H1367 H 0.50878 0.73304 0.00402 0.0
H1368 H 0.55942 0.74193 0.95881 0.0
S1369 S 0.45281 0.78528 0.85802 0.0
N1370 N 0.43931 0.7714 0.90378 0.0
N1371 N 0.49513 0.78163 0.85567 0.0
C1372 C 0.49993 0.76826 0.89278 0.0
C1373 C 0.46961 0.76286 0.91938 0.0
C1374 C 0.79146 0.74172 0.25498 0.0
C1375 C 0.824 0.7479 0.27237 0.0
C1376 C 0.76072 0.74702 0.27841 0.0
C1377 C 0.76076 0.75896 0.32018 0.0
H1378 H 0.7892 0.7343 0.22117 0.0
H1379 H 0.7364 0.74328 0.26157 0.0
S1380 S 0.83884 0.7773 0.38324 0.0
N1381 N 0.85433 0.76499 0.33667 0.0
N1382 N 0.79628 0.7754 0.3798 0.0
C1383 C 0.793 0.76403 0.33968 0.0
C1384 C 0.82457 0.75852 0.31588 0.0
C1385 C 0.53862 0.51388 0.27772 0.0
C1386 C 0.54113 0.502 0.31945 0.0
C1387 C 0.50665 0.52082 0.25992 0.0
C1388 C 0.4754 0.51626 0.28304 0.0
H1389 H 0.56152 0.51649 0.25676 0.0
H1390 H 0.50662 0.52826 0.22598 0.0
S1391 S 0.46786 0.48765 0.39636 0.0
N1392 N 0.50983 0.48742 0.3854 0.0
N1393 N 0.44953 0.50068 0.35253 0.0
C1394 C 0.47773 0.50565 0.32651 0.0
C1395 C 0.51056 0.49857 0.34468 0.0
C1396 C 0.25702 0.5159 0.09544 0.0
C1397 C 0.28919 0.50823 0.07946 0.0
C1398 C 0.22602 0.51055 0.07217 0.0
C1399 C 0.22591 0.4974 0.03186 0.0
H1400 H 0.25605 0.52773 0.12336 0.0
H1401 H 0.20216 0.51799 0.08407 0.0
S1402 S 0.3039 0.47267 0.97735 0.0
N1403 N 0.31897 0.48575 0.02299 0.0
N1404 N 0.26168 0.4765 0.97833 0.0
C1405 C 0.25788 0.48858 0.01745 0.0
C1406 C 0.28918 0.49376 0.04156 0.0
C1407 C 0.54277 0.24712 0.09268 0.0
C1408 C 0.50974 0.25282 0.07617 0.0
C1409 C 0.57299 0.25304 0.06799 0.0
C1410 C 0.57145 0.26476 0.02568 0.0
H1411 H 0.54518 0.23649 0.12259 0.0
H1412 H 0.59772 0.24726 0.08078 0.0
S1413 S 0.49065 0.28349 0.96807 0.0
N1414 N 0.47732 0.27168 0.01628 0.0
N1415 N 0.5332 0.28161 0.96901 0.0
C1416 C 0.53849 0.27137 0.01019 0.0
C1417 C 0.50799 0.26574 0.03572 0.0
C1418 C 0.22349 0.25369 0.67137 0.0
C1419 C 0.22582 0.26671 0.71173 0.0
C1420 C 0.25299 0.24828 0.64472 0.0
C1421 C 0.28604 0.25589 0.657 0.0
H1422 H 0.19897 0.24637 0.66201 0.0
H1423 H 0.25034 0.23643 0.61706 0.0
S1424 S 0.3069 0.29069 0.75832 0.0
N1425 N 0.26473 0.28701 0.7619 0.0
N1426 N 0.31911 0.27799 0.71062 0.0
C1427 C 0.28828 0.27027 0.69503 0.0
C1428 C 0.25856 0.27533 0.72277 0.0
C1429 C 0.54521 0.49065 0.72535 0.0
C1430 C 0.57752 0.49903 0.71145 0.0
C1431 C 0.51466 0.49591 0.70131 0.0
C1432 C 0.51471 0.51003 0.66258 0.0
H1433 H 0.54275 0.48157 0.75737 0.0
H1434 H 0.49025 0.49068 0.71611 0.0
S1435 S 0.59257 0.5344 0.60846 0.0
N1436 N 0.60791 0.52032 0.6529 0.0
N1437 N 0.55024 0.53074 0.60905 0.0
C1438 C 0.54696 0.51718 0.64615 0.0
C1439 C 0.57829 0.51167 0.67038 0.0
C1440 C 0.41294 0.05683 0.34466 0.0
C1441 C 0.43096 0.07419 0.32398 0.0
C1442 C 0.39329 0.05994 0.38383 0.0
C1443 C 0.39471 0.07971 0.40847 0.0
H1444 H 0.41328 0.04052 0.33014 0.0
H1445 H 0.37873 0.04597 0.39633 0.0
S1446 S 0.4397 0.13047 0.37119 0.0
N1447 N 0.44812 0.11253 0.32984 0.0
N1448 N 0.41563 0.11738 0.4096 0.0
C1449 C 0.4134 0.09733 0.38939 0.0
C1450 C 0.43115 0.09467 0.34638 0.0
C1451 C 0.92302 0.16866 0.33321 0.0
C1452 C 0.88919 0.17059 0.31611 0.0
C1453 C 0.92906 0.16881 0.38075 0.0
C1454 C 0.90135 0.17 0.412 0.0
H1455 H 0.94505 0.16952 0.31007 0.0
H1456 H 0.95549 0.16984 0.39301 0.0
S1457 S 0.80793 0.16872 0.38366 0.0
N1458 N 0.82771 0.16949 0.33299 0.0
N1459 N 0.83895 0.16815 0.42291 0.0
C1460 C 0.86739 0.16831 0.39522 0.0
C1461 C 0.86129 0.16905 0.34683 0.0
C1462 C 0.40279 0.16922 0.88782 0.0
C1463 C 0.41334 0.18885 0.909 0.0
C1464 C 0.38285 0.16963 0.84744 0.0
C1465 C 0.3719 0.18966 0.82821 0.0
H1466 H 0.40975 0.15347 0.90257 0.0
H1467 H 0.37677 0.15422 0.8307 0.0
S1468 S 0.39138 0.24566 0.87159 0.0
N1469 N 0.41326 0.22892 0.90554 0.0
N1470 N 0.37007 0.2295 0.83603 0.0
C1471 C 0.38072 0.20932 0.85068 0.0
C1472 C 0.40335 0.20898 0.889 0.0
C1473 C 0.89124 0.09305 0.88062 0.0
C1474 C 0.88514 0.07332 0.90457 0.0
C1475 C 0.91222 0.09342 0.84113 0.0
C1476 C 0.92866 0.0742 0.82563 0.0
H1477 H 0.87942 0.10823 0.89207 0.0
H1478 H 0.91439 0.10858 0.82172 0.0
S1479 S 0.92414 0.01874 0.8784 0.0
N1480 N 0.89713 0.0339 0.90883 0.0
N1481 N 0.94132 0.03571 0.84042 0.0
C1482 C 0.92486 0.0548 0.85132 0.0
C1483 C 0.90146 0.05397 0.88885 0.0
C1484 C 0.62185 0.92377 0.63111 0.0
C1485 C 0.64925 0.927 0.66211 0.0
C1486 C 0.62824 0.92184 0.5838 0.0
C1487 C 0.66203 0.92399 0.56669 0.0
H1488 H 0.5953 0.92444 0.64306 0.0
H1489 H 0.60637 0.92127 0.56042 0.0
S1490 S 0.74286 0.92738 0.63464 0.0
N1491 N 0.71163 0.92757 0.67366 0.0
N1492 N 0.7234 0.92534 0.58396 0.0
C1493 C 0.6898 0.92444 0.5977 0.0
C1494 C 0.68342 0.92563 0.64593 0.0
C1495 C 0.13835 0.84252 0.60236 0.0
C1496 C 0.16219 0.84232 0.56579 0.0
C1497 C 0.14969 0.84142 0.64799 0.0
C1498 C 0.18508 0.8399 0.65812 0.0
H1499 H 0.11082 0.84171 0.59563 0.0
H1500 H 0.13063 0.83994 0.67531 0.0
S1501 S 0.25791 0.84323 0.57565 0.0
N1502 N 0.2229 0.84441 0.54301 0.0
N1503 N 0.24396 0.84168 0.62961 0.0
C1504 C 0.20924 0.84242 0.62258 0.0
C1505 C 0.19777 0.84385 0.57591 0.0
C1506 C 0.65295 0.84468 0.13592 0.0
C1507 C 0.66138 0.8243 0.15587 0.0
C1508 C 0.63326 0.84581 0.09538 0.0
C1509 C 0.62044 0.82661 0.07477 0.0
H1510 H 0.66159 0.85984 0.15158 0.0
H1511 H 0.62899 0.86169 0.07946 0.0
S1512 S 0.63389 0.7692 0.1147 0.0
N1513 N 0.6572 0.78441 0.14989 0.0
N1514 N 0.61438 0.78683 0.08018 0.0
C1515 C 0.62685 0.80627 0.0963 0.0
C1516 C 0.64927 0.80499 0.13472 0.0
C1517 C 0.17208 0.91991 0.09644 0.0
C1518 C 0.1444 0.92358 0.06603 0.0
C1519 C 0.16626 0.91809 0.14394 0.0
C1520 C 0.13282 0.92088 0.16188 0.0
H1521 H 0.19848 0.9202 0.08385 0.0
H1522 H 0.18842 0.91715 0.16679 0.0
S1523 S 0.05125 0.92549 0.09582 0.0
N1524 N 0.08192 0.92504 0.056 0.0
N1525 N 0.07132 0.92329 0.14606 0.0
C1526 C 0.10467 0.92177 0.13152 0.0
C1527 C 0.11043 0.92273 0.08308 0.0
C1528 C 0.41592 0.5644 0.85028 0.0
C1529 C 0.41414 0.58374 0.82407 0.0
C1530 C 0.39709 0.56208 0.89047 0.0
C1531 C 0.37977 0.5799 0.91051 0.0
H1532 H 0.43 0.55012 0.8383 0.0
H1533 H 0.39667 0.54599 0.90609 0.0
S1534 S 0.37067 0.63543 0.85919 0.0
N1535 N 0.39367 0.62155 0.82087 0.0
N1536 N 0.36305 0.61826 0.90234 0.0
C1537 C 0.37949 0.60002 0.88659 0.0
C1538 C 0.39619 0.60183 0.8426 0.0
C1539 C 0.90209 0.67207 0.89112 0.0
C1540 C 0.93685 0.67538 0.90298 0.0
C1541 C 0.89187 0.67203 0.84498 0.0
C1542 C 0.91628 0.67506 0.80968 0.0
H1543 H 0.88234 0.67152 0.9177 0.0
H1544 H 0.86448 0.67149 0.83713 0.0
S1545 S 1.01142 0.67945 0.82348 0.0
N1546 N 0.99627 0.67818 0.8769 0.0
N1547 N 0.97741 0.67736 0.78924 0.0
C1548 C 0.9517 0.6752 0.82104 0.0
C1549 C 0.96199 0.67556 0.86826 0.0
C1550 C 0.35219 0.67505 0.3596 0.0
C1551 C 0.37887 0.67021 0.32831 0.0
C1552 C 0.35928 0.67762 0.40657 0.0
C1553 C 0.39344 0.67629 0.42274 0.0
H1554 H 0.32633 0.67858 0.34719 0.0
H1555 H 0.33853 0.6828 0.4293 0.0
S1556 S 0.47082 0.65939 0.3563 0.0
N1557 N 0.43924 0.65994 0.31786 0.0
N1558 N 0.45297 0.66629 0.40617 0.0
C1559 C 0.41958 0.66916 0.39277 0.0
C1560 C 0.41212 0.66567 0.3453 0.0
C1561 C 0.93106 0.59347 0.39409 0.0
C1562 C 0.89741 0.59184 0.41184 0.0
C1563 C 0.93652 0.59328 0.34641 0.0
C1564 C 0.90839 0.59228 0.31587 0.0
H1565 H 0.95328 0.59223 0.41677 0.0
H1566 H 0.96276 0.5919 0.33352 0.0
S1567 S 0.81541 0.59477 0.34639 0.0
N1568 N 0.83578 0.59377 0.39658 0.0
N1569 N 0.84594 0.59495 0.30637 0.0
C1570 C 0.8747 0.59449 0.33338 0.0
C1571 C 0.86918 0.59385 0.38187 0.0
C1572 C 0.68258 0.41995 0.10172 0.0
C1573 C 0.65501 0.42214 0.07054 0.0
C1574 C 0.67637 0.41886 0.14919 0.0
C1575 C 0.64254 0.42084 0.16629 0.0
H1576 H 0.70908 0.42085 0.0896 0.0
H1577 H 0.69831 0.41894 0.17249 0.0
S1578 S 0.56148 0.42165 0.09845 0.0
N1579 N 0.59261 0.42144 0.05928 0.0
N1580 N 0.5811 0.42104 0.1492 0.0
C1581 C 0.6147 0.42037 0.13541 0.0
C1582 C 0.62095 0.42058 0.08704 0.0
C1583 C 0.11567 0.34131 0.15269 0.0
C1584 C 0.14951 0.3407 0.1701 0.0
C1585 C 0.11001 0.34242 0.10511 0.0
C1586 C 0.138 0.34374 0.07433 0.0
H1587 H 0.09372 0.33855 0.17527 0.0
H1588 H 0.08392 0.34031 0.09217 0.0
S1589 S 0.23068 0.349 0.1046 0.0
N1590 N 0.21073 0.34557 0.15467 0.0
N1591 N 0.19997 0.34918 0.0649 0.0
C1592 C 0.17148 0.34668 0.09196 0.0
C1593 C 0.17732 0.34469 0.14024 0.0
C1594 C 0.64014 0.31242 0.59055 0.0
C1595 C 0.62554 0.3307 0.56849 0.0
C1596 C 0.65985 0.31462 0.62991 0.0
C1597 C 0.66164 0.33468 0.6535 0.0
H1598 H 0.63704 0.29605 0.57703 0.0
H1599 H 0.67171 0.29984 0.64352 0.0
S1600 S 0.62564 0.38778 0.61281 0.0
N1601 N 0.61484 0.37006 0.5721 0.0
N1602 N 0.64704 0.37358 0.65231 0.0
C1603 C 0.64629 0.35327 0.63307 0.0
C1604 C 0.62868 0.35135 0.58979 0.0
C1605 C 0.15045 0.45153 0.63258 0.0
C1606 C 0.14298 0.43203 0.65627 0.0
C1607 C 0.17126 0.45157 0.59394 0.0
C1608 C 0.18066 0.43195 0.57202 0.0
H1609 H 0.14134 0.46726 0.64472 0.0
H1610 H 0.17826 0.46741 0.57983 0.0
S1611 S 0.16493 0.37579 0.61688 0.0
N1612 N 0.1473 0.39213 0.65596 0.0
N1613 N 0.18079 0.39203 0.57623 0.0
C1614 C 0.17212 0.41198 0.59366 0.0
C1615 C 0.15381 0.41204 0.63665 0.0
C1616 C 0.2469 0.01039 0.2106 0.0
C1617 C 0.24596 0.99642 0.24947 0.0
C1618 C 0.27819 0.01517 0.18798 0.0
C1619 C 0.30955 1.00628 0.20383 0.0
H1620 H 0.22326 0.01777 0.19777 0.0
H1621 H 0.27802 0.02646 0.15898 0.0
S1622 S 0.32093 0.96837 0.30317 0.0
N1623 N 0.27892 0.9733 0.30183 0.0
N1624 N 0.33779 0.98259 0.25998 0.0
C1625 C 0.30889 0.99216 0.24234 0.0
C1626 C 0.27709 0.98723 0.26515 0.0
C1627 C 0.0531 0.24421 0.23568 0.0
C1628 C 0.05378 0.26108 0.26879 0.0
C1629 C 1.0221 0.23821 0.21399 0.0
C1630 C 0.99093 0.24887 0.22491 0.0
H1631 H 0.07677 0.23581 0.22617 0.0
H1632 H 1.02242 0.22503 0.18888 0.0
S1633 S 0.97928 0.29438 0.30832 0.0
N1634 N 1.02095 0.2885 0.31101 0.0
N1635 N 0.96262 0.27728 0.27006 0.0
C1636 C 0.99131 0.26575 0.25788 0.0
C1637 C 1.02279 0.27178 0.28004 0.0
C1638 C 0.27606 0.27419 0.97678 0.0
C1639 C 0.24379 0.2649 0.98727 0.0
C1640 C 0.30588 0.26788 0.00114 0.0
C1641 C 0.30421 0.2524 0.03728 0.0
H1642 H 0.2782 0.28647 0.94978 0.0
H1643 H 0.33056 0.27483 0.99114 0.0
S1644 S 0.22643 0.22226 0.07598 0.0
N1645 N 0.21226 0.23856 0.03431 0.0
N1646 N 0.26825 0.22723 0.08088 0.0
C1647 C 0.27221 0.24294 0.0479 0.0
C1648 C 0.242 0.24904 0.02263 0.0
C1649 C 0.99372 1.00028 -0.00388 0.0
C1650 C 0.9945 0.01698 0.02962 0.0
C1651 C 1.02337 0.99487 0.97043 0.0
C1652 C 0.05453 1.00623 0.977 0.0
H1653 H 0.96986 0.99158 0.98931 0.0
H1654 H 1.0221 0.98147 0.9459 0.0
S1655 S 0.06915 0.05235 0.05799 0.0
N1656 N 0.0283 0.04548 0.06644 0.0
N1657 N 0.08404 0.03551 0.01783 0.0
C1658 C 0.05536 0.0233 0.00959 0.0
C1659 C 0.02531 0.02863 0.03602 0.0
C1660 C 0.76324 0.98495 0.7288 0.0
C1661 C 0.74485 1.00045 0.75532 0.0
C1662 C 0.79435 0.99051 0.70662 0.0
C1663 C 0.80782 0.01181 0.70986 0.0
H1664 H 0.75359 0.96835 0.72549 0.0
H1665 H 0.80825 0.97799 0.68757 0.0
S1666 S 0.76793 0.0588 0.77169 0.0
N1667 N 0.74131 0.03815 0.78156 0.0
N1668 N 0.79941 0.04881 0.73924 0.0
C1669 C 0.78915 0.02759 0.73525 0.0
C1670 C 0.75775 0.02185 0.7582 0.0
C1671 C 0.04412 0.7432 0.75826 0.0
C1672 C 0.05359 0.76527 0.76292 0.0
C1673 C 1.0132 0.73748 0.73617 0.0
C1674 C 0.99103 0.75364 0.71783 0.0
H1675 H 0.06097 0.73032 0.77103 0.0
H1676 H 1.00654 0.72027 0.73335 0.0
S1677 S 1.00333 0.81374 0.72392 0.0
N1678 N 0.03805 0.80338 0.74919 0.0
N1679 N 0.97963 0.79252 0.70803 0.0
C1680 C 0.99994 0.77574 0.72296 0.0
C1681 C 0.03138 0.78158 0.74544 0.0
C1682 C 0.80016 0.76133 0.96464 0.0
C1683 C 0.79995 0.75023 0.00748 0.0
C1684 C 0.76928 0.76664 0.94175 0.0
C1685 C 0.73718 0.76128 0.96129 0.0
H1686 H 0.82447 0.76572 0.94846 0.0
H1687 H 0.77049 0.77547 0.90921 0.0
S1688 S 0.72235 0.73223 0.0724 0.0
N1689 N 0.76487 0.7338 0.06801 0.0
N1690 N 0.70675 0.74437 0.02568 0.0
C1691 C 0.73655 0.75038 0.00421 0.0
C1692 C 0.76797 0.7448 0.02728 0.0
C1693 C 0.30005 0.49503 0.71962 0.0
C1694 C 0.30868 0.51736 0.71836 0.0
C1695 C 0.27116 0.48773 0.74472 0.0
C1696 C 0.25004 0.50251 0.76943 0.0
H1697 H 0.31604 0.48312 0.70181 0.0
H1698 H 0.26495 0.4704 0.74432 0.0
S1699 S 0.2613 0.56271 0.77597 0.0
N1700 N 0.29381 0.55424 0.74339 0.0
N1701 N 0.2393 0.54047 0.79011 0.0
C1702 C 0.25843 0.52485 0.7684 0.0
C1703 C 0.28778 0.53229 0.74287 0.0
C1704 C 0.26283 0.77991 0.50117 0.0
C1705 C 0.24272 0.76503 0.47551 0.0
C1706 C 0.2937 0.77325 0.52243 0.0
C1707 C 0.30526 0.75151 0.51867 0.0
H1708 H 0.25478 0.79687 0.50448 0.0
H1709 H 0.30889 0.78522 0.54117 0.0
S1710 S 0.26081 0.70595 0.45829 0.0
N1711 N 0.23561 0.72748 0.44951 0.0
N1712 N 0.29367 0.71488 0.48946 0.0
C1713 C 0.28512 0.73642 0.49379 0.0
C1714 C 0.25378 0.7432 0.47214 0.0
C1715 C 0.03262 0.49136 0.44524 0.0
C1716 C 0.06455 0.49956 0.4604 0.0
C1717 C 1.00176 0.49729 0.46765 0.0
C1718 C 1.00179 0.51189 0.50539 0.0
H1719 H 0.03161 0.47993 0.41659 0.0
H1720 H 0.97761 0.49055 0.45515 0.0
S1721 S 0.07876 0.53795 0.55786 0.0
N1722 N 0.09455 0.52275 0.51549 0.0
N1723 N 0.03643 0.53436 0.55673 0.0
C1724 C 0.03359 0.5201 0.52087 0.0
C1725 C 0.06499 0.51391 0.4984 0.0
C1726 C 0.7768 0.49079 0.27722 0.0
C1727 C 0.74513 0.50017 0.26398 0.0
C1728 C 0.80785 0.49735 0.25623 0.0
C1729 C 0.80818 0.51367 0.22175 0.0
H1730 H 0.77746 0.478 0.30332 0.0
H1731 H 0.83177 0.48962 0.267 0.0
S1732 S 0.73213 0.54365 0.17589 0.0
N1733 N 0.71585 0.52671 0.2149 0.0
N1734 N 0.7743 0.53924 0.1758 0.0
C1735 C 0.77668 0.52322 0.2084 0.0
C1736 C 0.74511 0.51649 0.22962 0.0
C1737 C 0.80221 0.26388 0.4618 0.0
C1738 C 0.8023 0.24821 0.49767 0.0
C1739 C 0.77151 0.26954 0.43873 0.0
C1740 C 0.73993 0.25991 0.45129 0.0
H1741 H 0.82601 0.27194 0.45177 0.0
H1742 H 0.77227 0.28203 0.41201 0.0
S1743 S 0.72621 0.21815 0.54277 0.0
N1744 N 0.76822 0.22297 0.54403 0.0
N1745 N 0.71034 0.23416 0.50173 0.0
C1746 C 0.73964 0.24431 0.48709 0.0
C1747 C 0.77087 0.23838 0.51017 0.0
C1748 C 0.55304 0.25309 0.71802 0.0
C1749 C 0.55145 0.26493 0.75988 0.0
C1750 C 0.5229 0.24752 0.69363 0.0
C1751 C 0.4902 0.25355 0.71043 0.0
H1752 H 0.57787 0.24827 0.70387 0.0
H1753 H 0.52513 0.23794 0.6622 0.0
S1754 S 0.47204 0.28531 0.81724 0.0
N1755 N 0.5146 0.28302 0.81612 0.0
N1756 N 0.45793 0.27244 0.77068 0.0
C1757 C 0.48831 0.26553 0.75199 0.0
C1758 C 0.51893 0.27117 0.77675 0.0
C1759 C 0.54933 0.02094 0.48159 0.0
C1760 C 0.55563 0.99869 0.47256 0.0
C1761 C 0.52001 0.02749 0.50677 0.0
C1762 C 0.49616 0.012 0.52388 0.0
H1763 H 0.56736 0.0333 0.46963 0.0
H1764 H 0.51554 0.04485 0.51221 0.0
S1765 S 0.50083 0.95179 0.50827 0.0
N1766 N 0.536 0.96116 0.48249 0.0
N1767 N 0.4803 0.97356 0.5285 0.0
C1768 C 0.50223 0.98972 0.51498 0.0
C1769 C 0.53216 0.98306 0.48965 0.0
C1770 C 0.49022 0.75991 0.27871 0.0
C1771 C 0.49122 0.74712 0.23812 0.0
C1772 C 0.52071 0.76567 0.30217 0.0
C1773 C 0.55312 0.75891 0.28554 0.0
H1774 H 0.46566 0.76562 0.29219 0.0
H1775 H 0.51903 0.77615 0.33234 0.0
S1776 S 0.56979 0.7248 0.18174 0.0
N1777 N 0.52727 0.72737 0.18337 0.0
N1778 N 0.58454 0.73855 0.22678 0.0
C1779 C 0.55442 0.74595 0.24538 0.0
C1780 C 0.52348 0.74003 0.2217 0.0
C1781 C 0.55748 0.5165 0.01978 0.0
C1782 C 0.55743 0.5006 0.98449 0.0
C1783 C 0.52711 0.52179 0.04399 0.0
C1784 C 0.49571 0.51149 0.0333 0.0
H1785 H 0.58118 0.52497 0.02857 0.0
H1786 H 0.52792 0.53454 0.07006 0.0
S1787 S 0.48158 0.46919 0.94342 0.0
N1788 N 0.52335 0.47465 0.94025 0.0
N1789 N 0.46601 0.48513 0.98472 0.0
C1790 C 0.49524 0.49575 -0.00209 0.0
C1791 C 0.52616 0.49022 0.97361 0.0
C1792 C 0.44252 0.14204 0.15161 0.0
C1793 C 0.42189 0.15276 0.1189 0.0
C1794 C 0.44531 0.11907 0.15155 0.0
C1795 C 0.42743 0.10589 0.11906 0.0
H1796 H 0.45762 0.15144 0.17611 0.0
H1797 H 0.46202 0.11158 0.17713 0.0
S1798 S 0.36852 0.12641 0.02763 0.0
N1799 N 0.38226 0.14876 0.05402 0.0
N1800 N 0.38751 0.10568 0.05435 0.0
C1801 C 0.4064 0.11653 0.08656 0.0
C1802 C 0.40351 0.1399 0.08659 0.0
C1803 C 0.88887 0.11796 0.14088 0.0
C1804 C 0.86306 0.10821 0.11384 0.0
C1805 C 0.89364 0.14077 0.14026 0.0
C1806 C 0.87298 0.15461 0.11247 0.0
H1807 H 0.90614 0.10791 0.16149 0.0
H1808 H 0.91346 0.14771 0.16223 0.0
S1809 S 0.80079 0.13742 0.03723 0.0
N1810 N 0.81575 0.1143 0.0595 0.0
N1811 N 0.82507 0.15714 0.0589 0.0
C1812 C 0.84705 0.14516 0.08556 0.0
C1813 C 0.84195 0.12199 0.08626 0.0
C1814 C 0.63819 0.87278 0.89562 0.0
C1815 C 0.62611 0.85903 0.85971 0.0
C1816 C 0.63715 0.89571 0.89203 0.0
C1817 C 0.62378 0.90592 0.8524 0.0
H1818 H 0.64821 0.86572 0.92735 0.0
H1819 H 0.64685 0.90544 0.92053 0.0
S1820 S 0.58937 0.87717 0.74799 0.0
N1821 N 0.60118 0.85714 0.78311 0.0
N1822 N 0.59846 0.90012 0.77561 0.0
C1823 C 0.61206 0.89224 0.81573 0.0
C1824 C 0.61355 0.86885 0.81946 0.0
C1825 C 0.16107 0.89668 0.83045 0.0
C1826 C 0.17141 0.90606 0.87248 0.0
C1827 C 0.16006 0.87382 0.82501 0.0
C1828 C 0.1689 0.85934 0.86151 0.0
H1829 H 0.15366 0.90702 0.80157 0.0
H1830 H 0.15224 0.86741 0.79167 0.0
S1831 S 0.19787 0.87513 0.97869 0.0
N1832 N 0.19135 0.89861 0.95156 0.0
N1833 N 0.18813 0.85589 0.94084 0.0
C1834 C 0.17878 0.86836 0.90381 0.0
C1835 C 0.18049 0.89161 0.90934 0.0
C1836 C 0.45433 0.62314 0.64014 0.0
C1837 C 0.43121 0.60975 0.61499 0.0
C1838 C 0.45027 0.64601 0.64207 0.0
C1839 C 0.42265 0.65628 0.61944 0.0
H1840 H 0.47567 0.61582 0.65896 0.0
H1841 H 0.46942 0.65572 0.66012 0.0
S1842 S 0.35388 0.62896 0.55111 0.0
N1843 N 0.37909 0.60863 0.56834 0.0
N1844 N 0.37128 0.65157 0.57217 0.0
C1845 C 0.39915 0.64315 0.59464 0.0
C1846 C 0.40349 0.61991 0.59224 0.0
C1847 C 0.89243 0.61665 0.64517 0.0
C1848 C 0.87573 0.60692 0.60741 0.0
C1849 C 0.89491 0.63954 0.64869 0.0
C1850 C 0.88124 0.65367 0.61437 0.0
H1851 H 0.90413 0.60656 0.67182 0.0
H1852 H 0.90763 0.64625 0.67882 0.0
S1853 S 0.83361 0.63684 0.5095 0.0
N1854 N 0.84375 0.61358 0.53556 0.0
N1855 N 0.84975 0.65644 0.54232 0.0
C1856 C 0.86459 0.6443 0.57647 0.0
C1857 C 0.86137 0.62101 0.5731 0.0
C1858 C 0.59684 0.39318 0.3864 0.0
C1859 C 0.62664 0.40368 0.37004 0.0
C1860 C 0.59322 0.37034 0.38265 0.0
C1861 C 0.61879 0.35727 0.36121 0.0
H1862 H 0.57577 0.40272 0.40082 0.0
H1863 H 0.57022 0.36276 0.39695 0.0
S1864 S 0.70206 0.37706 0.31373 0.0
N1865 N 0.68251 0.39948 0.33254 0.0
N1866 N 0.67542 0.35657 0.325 0.0
C1867 C 0.64869 0.36763 0.34475 0.0
C1868 C 0.65266 0.39082 0.34934 0.0
C1869 C 0.15362 0.37177 0.34171 0.0
C1870 C 0.17514 0.35798 0.36849 0.0
C1871 C 0.1591 0.39452 0.33929 0.0
C1872 C 0.18663 0.40425 0.36319 0.0
H1873 H 0.13257 0.36482 0.32192 0.0
H1874 H 0.14111 0.40457 0.31982 0.0
S1875 S 0.25202 0.37508 0.43508 0.0
N1876 N 0.22582 0.35547 0.41728 0.0
N1877 N 0.2367 0.39811 0.41283 0.0
C1878 C 0.20875 0.39049 0.38935 0.0
C1879 C 0.20283 0.36742 0.39213 0.0
C1880 C 0.93138 0.11691 0.57864 0.0
C1881 C 0.91798 0.10692 0.61832 0.0
C1882 C 0.93307 0.13981 0.57516 0.0
C1883 C 0.92099 0.15381 0.61095 0.0
H1884 H 0.94169 0.107 0.55072 0.0
H1885 H 0.94406 0.14651 0.54369 0.0
S1886 S 0.88098 0.13541 0.72093 0.0
N1887 N 0.89067 0.11247 0.69349 0.0
N1888 N 0.89376 0.15552 0.6866 0.0
C1889 C 0.90682 0.14392 0.65047 0.0
C1890 C 0.90524 0.12053 0.65414 0.0
C1891 C 0.35839 0.14543 0.58236 0.0
C1892 C 0.37571 0.15579 0.61861 0.0
C1893 C 0.35628 0.12249 0.58077 0.0
C1894 C 0.37172 0.10897 0.61509 0.0
H1895 H 0.34538 0.15507 0.55604 0.0
H1896 H 0.34232 0.11529 0.55208 0.0
S1897 S 0.42208 0.12848 0.71582 0.0
N1898 N 0.40985 0.15111 0.68886 0.0
N1899 N 0.40608 0.108 0.68531 0.0
C1900 C 0.38957 0.11923 0.65115 0.0
C1901 C 0.39165 0.1426 0.65288 0.0
C1902 C 0.10103 0.87104 0.34444 0.0
C1903 C 0.13034 0.86074 0.36291 0.0
C1904 C 0.0978 0.89395 0.34522 0.0
C1905 C 0.12343 0.90738 0.36532 0.0
H1906 H 0.07999 0.86131 0.33073 0.0
H1907 H 0.07508 0.90129 0.32958 0.0
S1908 S 0.20561 0.88811 0.41727 0.0
N1909 N 0.18575 0.86541 0.40111 0.0
N1910 N 0.17962 0.90852 0.40264 0.0
C1911 C 0.15287 0.89721 0.38386 0.0
C1912 C 0.15633 0.87389 0.38256 0.0
C1913 C 0.66091 0.87169 0.33091 0.0
C1914 C 0.67535 0.85794 0.36539 0.0
C1915 C 0.66339 0.89461 0.33321 0.0
C1916 C 0.68074 0.90476 0.36992 0.0
H1917 H 0.64745 0.86462 0.30164 0.0
H1918 H 0.65115 0.90439 0.30648 0.0
S1919 S 0.72445 0.87595 0.46811 0.0
N1920 N 0.70794 0.85598 0.43667 0.0
N1921 N 0.71386 0.89891 0.4412 0.0
C1922 C 0.69574 0.89106 0.40447 0.0
C1923 C 0.6926 0.86773 0.4023 0.0
C1924 C 0.91185 0.64104 0.07383 0.0
C1925 C 0.92246 0.65577 0.10882 0.0
C1926 C 0.91542 0.61827 0.07886 0.0
C1927 C 0.93012 0.60923 0.11893 0.0
H1928 H 0.90061 0.6472 0.042 0.0
H1929 H 0.9062 0.60772 0.05139 0.0
S1930 S 0.9634 0.6409 0.22011 0.0
N1931 N 0.94856 0.65985 0.18436 0.0
N1932 N 0.95652 0.61723 0.19411 0.0
C1933 C 0.94125 0.62392 0.15411 0.0
C1934 C 0.93697 0.6471 0.1491 0.0
C1935 C 0.39596 0.61863 0.14483 0.0
C1936 C 0.3697 0.6083 0.11957 0.0
C1937 C 0.39945 0.64155 0.14391 0.0
C1938 C 0.37701 0.65491 0.11755 0.0
H1939 H 0.41437 0.60897 0.16448 0.0
H1940 H 0.41939 0.649 0.16498 0.0
S1941 S 0.30314 0.63601 0.04718 0.0
N1942 N 0.32022 0.61326 0.0684 0.0
N1943 N 0.32709 0.6563 0.06717 0.0
C1944 C 0.35073 0.64484 0.09226 0.0
C1945 C 0.34698 0.62156 0.09327 0.0
C1946 C 0.1473 0.39213 0.83545 0.0
C1947 C 0.13125 0.40632 0.86763 0.0
C1948 C 0.14371 0.36926 0.83837 0.0
C1949 C 0.12356 0.35971 0.87337 0.0
H1950 H 0.16282 0.39882 0.80757 0.0
H1951 H 0.15735 0.35905 0.8137 0.0
S1952 S 0.07446 0.38996 0.96455 0.0
N1953 N 0.09393 0.4094 0.93452 0.0
N1954 N 0.08592 0.36662 0.93999 0.0
C1955 C 0.10685 0.3739 0.90538 0.0
C1956 C 0.11114 0.39712 0.9027 0.0
C1957 C 0.65211 0.37396 0.83815 0.0
C1958 C 0.66846 0.35952 0.86962 0.0
C1959 C 0.65629 0.39676 0.841 0.0
C1960 C 0.67719 0.40603 0.87538 0.0
H1961 H 0.63628 0.36749 0.81044 0.0
H1962 H 0.64266 0.40713 0.81658 0.0
S1963 S 0.72638 0.37515 0.96559 0.0
N1964 N 0.70639 0.35593 0.93571 0.0
N1965 N 0.71502 0.39867 0.94153 0.0
C1966 C 0.69371 0.39164 0.90722 0.0
C1967 C 0.68903 0.36844 0.90441 0.0
loop_
_geom_bond_atom_site_label_1
_geom_bond_atom_site_label_2
_geom_bond_distance
_geom_bond_site_symmetry_2
_ccdc_geom_bond_type
Co0 O3 1.970 . S
Co0 N17 1.989 . S
Co0 O25 1.967 . S
Co0 O32 1.920 . S
Co1 O4 1.966 . S
Co1 N10 2.022 . S
Co1 N18 1.993 . S
Co1 O26 1.941 . S
C2 O3 1.258 . S
C2 O4 1.263 . S
O3 Co0 1.970 . S
O3 C2 1.258 . S
O4 Co1 1.966 . S
O4 C2 1.263 . S
C5 O6 1.235 . S
C5 O32 1.289 . S
O6 C5 1.235 . S
C7 C9 1.400 . S
C7 N10 1.351 1_556 S
C7 C12 1.501 . S
C8 C9 1.387 1_565 S
C8 N11 1.341 1_556 S
C9 C7 1.400 . S
C9 C8 1.387 1_545 S
N10 Co1 2.022 . S
N10 C7 1.351 1_554 S
N10 N11 1.365 1_545 S
N11 C8 1.341 1_554 S
N11 N10 1.365 1_565 S
N11 H31 0.862 . S
C12 C7 1.501 . S
C12 H13 0.961 1_556 S
C12 H14 0.962 1_556 S
C12 H15 0.960 . S
H13 C12 0.961 1_554 S
H14 C12 0.962 1_554 S
H15 C12 0.960 . S
C16 N17 1.342 . S
C16 C20 1.401 . S
C16 C21 1.499 . S
N17 Co0 1.989 . S
N17 C16 1.342 . S
N17 N18 1.388 . S
N18 Co1 1.993 . S
N18 N17 1.388 . S
N18 C19 1.346 . S
C19 N18 1.346 . S
C19 C20 1.396 . S
C19 C29 1.510 . S
C20 C16 1.401 . S
C20 C19 1.396 . S
C21 C16 1.499 . S
C21 H22 0.959 . S
C21 H23 0.960 . S
C21 H24 0.961 . S
H22 C21 0.959 . S
H23 C21 0.960 . S
H24 C21 0.961 . S
O25 Co0 1.967 . S
O25 C33 1.258 . S
O26 Co1 1.941 . S
O26 C33 1.266 . S
H27 C29 0.959 1_565 S
H28 C29 0.961 . S
C29 C19 1.510 . S
C29 H27 0.959 1_545 S
C29 H28 0.961 . S
C29 H30 0.960 . S
H30 C29 0.960 . S
H31 N11 0.862 . S
O32 Co0 1.920 . S
O32 C5 1.289 . S
C33 O25 1.258 . S
C33 O26 1.266 . S
Co34 O37 1.970 . S
Co34 N51 1.989 . S
Co34 O59 1.967 . S
Co34 O66 1.920 . S
Co35 O38 1.966 . S
Co35 N44 2.022 . S
Co35 N52 1.993 . S
Co35 O60 1.941 . S
C36 O37 1.258 . S
C36 O38 1.263 . S
O37 Co34 1.970 . S
O37 C36 1.258 . S
O38 Co35 1.966 . S
O38 C36 1.263 . S
C39 O40 1.235 . S
C39 O66 1.289 . S
O40 C39 1.235 . S
C41 C43 1.400 . S
C41 N44 1.351 1_556 S
C41 C46 1.501 . S
C42 C43 1.387 . S
C42 N45 1.341 1_556 S
C43 C41 1.400 . S
C43 C42 1.387 . S
N44 Co35 2.022 . S
N44 C41 1.351 1_554 S
N44 N45 1.365 . S
N45 C42 1.341 1_554 S
N45 N44 1.365 . S
N45 H65 0.862 . S
C46 C41 1.501 . S
C46 H47 0.961 1_556 S
C46 H48 0.962 1_556 S
C46 H49 0.960 . S
H47 C46 0.961 1_554 S
H48 C46 0.962 1_554 S
H49 C46 0.960 . S
C50 N51 1.342 . S
C50 C54 1.401 . S
C50 C55 1.499 . S
N51 Co34 1.989 . S
N51 C50 1.342 . S
N51 N52 1.388 . S
N52 Co35 1.993 . S
N52 N51 1.388 . S
N52 C53 1.346 . S
C53 N52 1.346 . S
C53 C54 1.396 . S
C53 C63 1.510 . S
C54 C50 1.401 . S
C54 C53 1.396 . S
C55 C50 1.499 . S
C55 H56 0.959 . S
C55 H57 0.960 . S
C55 H58 0.961 . S
H56 C55 0.959 . S
H57 C55 0.960 . S
H58 C55 0.961 . S
O59 Co34 1.967 . S
O59 C67 1.258 . S
O60 Co35 1.941 . S
O60 C67 1.266 . S
H61 C63 0.959 . S
H62 C63 0.961 . S
C63 C53 1.510 . S
C63 H61 0.959 . S
C63 H62 0.961 . S
C63 H64 0.960 . S
H64 C63 0.960 . S
H65 N45 0.862 . S
O66 Co34 1.920 . S
O66 C39 1.289 . S
C67 O59 1.258 . S
C67 O60 1.266 . S
Co68 O71 1.970 . S
Co68 N85 1.989 . S
Co68 O93 1.967 . S
Co68 O100 1.920 1_554 S
Co69 O72 1.966 . S
Co69 N78 2.022 . S
Co69 N86 1.993 . S
Co69 O94 1.941 . S
C70 O71 1.258 . S
C70 O72 1.263 . S
O71 Co68 1.970 . S
O71 C70 1.258 . S
O72 Co69 1.966 . S
O72 C70 1.263 . S
C73 O74 1.235 . S
C73 O100 1.289 . S
O74 C73 1.235 . S
C75 C77 1.400 . S
C75 N78 1.351 . S
C75 C80 1.501 . S
C76 C77 1.387 . S
C76 N79 1.341 . S
C77 C75 1.400 . S
C77 C76 1.387 . S
N78 Co69 2.022 . S
N78 C75 1.351 . S
N78 N79 1.365 . S
N79 C76 1.341 . S
N79 N78 1.365 . S
N79 H99 0.862 . S
C80 C75 1.501 . S
C80 H81 0.961 . S
C80 H82 0.961 . S
C80 H83 0.960 . S
H81 C80 0.961 . S
H82 C80 0.961 . S
H83 C80 0.960 . S
C84 N85 1.342 . S
C84 C88 1.401 . S
C84 C89 1.499 1_554 S
N85 Co68 1.989 . S
N85 C84 1.342 . S
N85 N86 1.388 . S
N86 Co69 1.993 . S
N86 N85 1.388 . S
N86 C87 1.346 . S
C87 N86 1.346 . S
C87 C88 1.396 . S
C87 C97 1.510 . S
C88 C84 1.401 . S
C88 C87 1.396 . S
C89 C84 1.499 1_556 S
C89 H90 0.959 . S
C89 H91 0.960 . S
C89 H92 0.961 . S
H90 C89 0.959 . S
H91 C89 0.960 . S
H92 C89 0.961 . S
O93 Co68 1.967 . S
O93 C101 1.258 . S
O94 Co69 1.941 . S
O94 C101 1.266 . S
H95 C97 0.959 . S
H96 C97 0.961 . S
C97 C87 1.510 . S
C97 H95 0.959 . S
C97 H96 0.961 . S
C97 H98 0.960 . S
H98 C97 0.960 . S
H99 N79 0.862 . S
O100 Co68 1.920 1_556 S
O100 C73 1.289 . S
C101 O93 1.258 . S
C101 O94 1.266 . S
Co102 O105 1.970 . S
Co102 N119 1.989 . S
Co102 O127 1.967 . S
Co102 O134 1.920 1_554 S
Co103 O106 1.966 . S
Co103 N112 2.022 . S
Co103 N120 1.993 . S
Co103 O128 1.941 . S
C104 O105 1.258 . S
C104 O106 1.263 . S
O105 Co102 1.970 . S
O105 C104 1.258 . S
O106 Co103 1.966 . S
O106 C104 1.263 . S
C107 O108 1.235 . S
C107 O134 1.289 . S
O108 C107 1.235 . S
C109 C111 1.400 . S
C109 N112 1.351 . S
C109 C114 1.501 . S
C110 C111 1.387 1_565 S
C110 N113 1.341 . S
C111 C109 1.400 . S
C111 C110 1.387 1_545 S
N112 Co103 2.022 . S
N112 C109 1.351 . S
N112 N113 1.365 1_545 S
N113 C110 1.341 . S
N113 N112 1.365 1_565 S
N113 H133 0.862 . S
C114 C109 1.501 . S
C114 H115 0.961 . S
C114 H116 0.961 . S
C114 H117 0.960 . S
H115 C114 0.961 . S
H116 C114 0.961 . S
H117 C114 0.960 . S
C118 N119 1.342 . S
C118 C122 1.401 . S
C118 C123 1.499 1_554 S
N119 Co102 1.989 . S
N119 C118 1.342 . S
N119 N120 1.388 . S
N120 Co103 1.993 . S
N120 N119 1.388 . S
N120 C121 1.346 . S
C121 N120 1.346 . S
C121 C122 1.396 . S
C121 C131 1.510 . S
C122 C118 1.401 . S
C122 C121 1.396 . S
C123 C118 1.499 1_556 S
C123 H124 0.959 . S
C123 H125 0.960 . S
C123 H126 0.961 . S
H124 C123 0.959 . S
H125 C123 0.960 . S
H126 C123 0.961 . S
O127 Co102 1.967 . S
O127 C135 1.258 . S
O128 Co103 1.941 . S
O128 C135 1.266 . S
H129 C131 0.959 1_565 S
H130 C131 0.961 . S
C131 C121 1.510 . S
C131 H129 0.959 1_545 S
C131 H130 0.961 . S
C131 H132 0.960 . S
H132 C131 0.960 . S
H133 N113 0.862 . S
O134 Co102 1.920 1_556 S
O134 C107 1.289 . S
C135 O127 1.258 . S
C135 O128 1.266 . S
Co136 O139 1.970 . S
Co136 N153 1.989 . S
Co136 O161 1.967 . S
Co136 O168 1.920 . S
Co137 O140 1.966 . S
Co137 N146 2.022 . S
Co137 N154 1.993 . S
Co137 O162 1.941 . S
C138 O139 1.258 . S
C138 O140 1.263 . S
O139 Co136 1.970 . S
O139 C138 1.258 . S
O140 Co137 1.966 . S
O140 C138 1.263 . S
C141 O142 1.235 . S
C141 O168 1.289 . S
O142 C141 1.235 . S
C143 C145 1.400 . S
C143 N146 1.351 1_554 S
C143 C148 1.501 . S
C144 C145 1.387 1_545 S
C144 N147 1.341 1_554 S
C145 C143 1.400 . S
C145 C144 1.387 1_565 S
N146 Co137 2.022 . S
N146 C143 1.351 1_556 S
N146 N147 1.365 1_565 S
N147 C144 1.341 1_556 S
N147 N146 1.365 1_545 S
N147 H167 0.862 . S
C148 C143 1.501 . S
C148 H149 0.961 1_554 S
C148 H150 0.962 1_554 S
C148 H151 0.960 . S
H149 C148 0.961 1_556 S
H150 C148 0.962 1_556 S
H151 C148 0.960 . S
C152 N153 1.342 . S
C152 C156 1.401 . S
C152 C157 1.499 . S
N153 Co136 1.989 . S
N153 C152 1.342 . S
N153 N154 1.388 . S
N154 Co137 1.993 . S
N154 N153 1.388 . S
N154 C155 1.346 . S
C155 N154 1.346 . S
C155 C156 1.396 . S
C155 C165 1.510 . S
C156 C152 1.401 . S
C156 C155 1.396 . S
C157 C152 1.499 . S
C157 H158 0.959 . S
C157 H159 0.960 . S
C157 H160 0.961 . S
H158 C157 0.959 . S
H159 C157 0.960 . S
H160 C157 0.961 . S
O161 Co136 1.967 . S
O161 C169 1.258 . S
O162 Co137 1.941 . S
O162 C169 1.266 . S
H163 C165 0.959 1_545 S
H164 C165 0.961 . S
C165 C155 1.510 . S
C165 H163 0.959 1_565 S
C165 H164 0.961 . S
C165 H166 0.960 . S
H166 C165 0.960 . S
H167 N147 0.862 . S
O168 Co136 1.920 . S
O168 C141 1.289 . S
C169 O161 1.258 . S
C169 O162 1.266 . S
Co170 O173 1.970 . S
Co170 N187 1.989 . S
Co170 O195 1.967 . S
Co170 O202 1.920 . S
Co171 O174 1.966 . S
Co171 N180 2.022 . S
Co171 N188 1.993 . S
Co171 O196 1.941 . S
C172 O173 1.258 . S
C172 O174 1.263 . S
O173 Co170 1.970 . S
O173 C172 1.258 . S
O174 Co171 1.966 . S
O174 C172 1.263 . S
C175 O176 1.235 . S
C175 O202 1.289 . S
O176 C175 1.235 . S
C177 C179 1.400 . S
C177 N180 1.351 1_554 S
C177 C182 1.501 . S
C178 C179 1.387 . S
C178 N181 1.341 1_554 S
C179 C177 1.400 . S
C179 C178 1.387 . S
N180 Co171 2.022 . S
N180 C177 1.351 1_556 S
N180 N181 1.365 . S
N181 C178 1.341 1_556 S
N181 N180 1.365 . S
N181 H201 0.862 . S
C182 C177 1.501 . S
C182 H183 0.961 1_554 S
C182 H184 0.962 1_554 S
C182 H185 0.960 . S
H183 C182 0.961 1_556 S
H184 C182 0.962 1_556 S
H185 C182 0.960 . S
C186 N187 1.342 . S
C186 C190 1.401 . S
C186 C191 1.499 . S
N187 Co170 1.989 . S
N187 C186 1.342 . S
N187 N188 1.388 . S
N188 Co171 1.993 . S
N188 N187 1.388 . S
N188 C189 1.346 . S
C189 N188 1.346 . S
C189 C190 1.396 . S
C189 C199 1.510 . S
C190 C186 1.401 . S
C190 C189 1.396 . S
C191 C186 1.499 . S
C191 H192 0.959 . S
C191 H193 0.960 . S
C191 H194 0.961 . S
H192 C191 0.959 . S
H193 C191 0.960 . S
H194 C191 0.961 . S
O195 Co170 1.967 . S
O195 C203 1.258 . S
O196 Co171 1.941 . S
O196 C203 1.266 . S
H197 C199 0.959 . S
H198 C199 0.961 . S
C199 C189 1.510 . S
C199 H197 0.959 . S
C199 H198 0.961 . S
C199 H200 0.960 . S
H200 C199 0.960 . S
H201 N181 0.862 . S
O202 Co170 1.920 . S
O202 C175 1.289 . S
C203 O195 1.258 . S
C203 O196 1.266 . S
Co204 O207 1.970 . S
Co204 N221 1.989 . S
Co204 O229 1.967 . S
Co204 O236 1.920 1_556 S
Co205 O208 1.966 . S
Co205 N214 2.022 . S
Co205 N222 1.993 . S
Co205 O230 1.941 . S
C206 O207 1.258 . S
C206 O208 1.263 . S
O207 Co204 1.970 . S
O207 C206 1.258 . S
O208 Co205 1.966 . S
O208 C206 1.263 . S
C209 O210 1.235 . S
C209 O236 1.289 . S
O210 C209 1.235 . S
C211 C213 1.400 . S
C211 N214 1.351 . S
C211 C216 1.501 . S
C212 C213 1.387 . S
C212 N215 1.341 . S
C213 C211 1.400 . S
C213 C212 1.387 . S
N214 Co205 2.022 . S
N214 C211 1.351 . S
N214 N215 1.365 . S
N215 C212 1.341 . S
N215 N214 1.365 . S
N215 H235 0.862 . S
C216 C211 1.501 . S
C216 H217 0.961 . S
C216 H218 0.961 . S
C216 H219 0.960 . S
H217 C216 0.961 . S
H218 C216 0.961 . S
H219 C216 0.960 . S
C220 N221 1.342 . S
C220 C224 1.401 . S
C220 C225 1.499 1_556 S
N221 Co204 1.989 . S
N221 C220 1.342 . S
N221 N222 1.388 . S
N222 Co205 1.993 . S
N222 N221 1.388 . S
N222 C223 1.346 . S
C223 N222 1.346 . S
C223 C224 1.396 . S
C223 C233 1.510 . S
C224 C220 1.401 . S
C224 C223 1.396 . S
C225 C220 1.499 1_554 S
C225 H226 0.959 . S
C225 H227 0.960 . S
C225 H228 0.961 . S
H226 C225 0.959 . S
H227 C225 0.960 . S
H228 C225 0.961 . S
O229 Co204 1.967 . S
O229 C237 1.258 . S
O230 Co205 1.941 . S
O230 C237 1.266 . S
H231 C233 0.959 . S
H232 C233 0.961 . S
C233 C223 1.510 . S
C233 H231 0.959 . S
C233 H232 0.961 . S
C233 H234 0.960 . S
H234 C233 0.960 . S
H235 N215 0.862 . S
O236 Co204 1.920 1_554 S
O236 C209 1.289 . S
C237 O229 1.258 . S
C237 O230 1.266 . S
Co238 O241 1.970 . S
Co238 N255 1.989 . S
Co238 O263 1.967 . S
Co238 O270 1.920 1_556 S
Co239 O242 1.966 . S
Co239 N248 2.022 . S
Co239 N256 1.993 . S
Co239 O264 1.941 . S
C240 O241 1.258 . S
C240 O242 1.263 . S
O241 Co238 1.970 . S
O241 C240 1.258 . S
O242 Co239 1.966 . S
O242 C240 1.263 . S
C243 O244 1.235 . S
C243 O270 1.289 . S
O244 C243 1.235 . S
C245 C247 1.400 . S
C245 N248 1.351 . S
C245 C250 1.501 . S
C246 C247 1.387 1_545 S
C246 N249 1.341 . S
C247 C245 1.400 . S
C247 C246 1.387 1_565 S
N248 Co239 2.022 . S
N248 C245 1.351 . S
N248 N249 1.365 1_565 S
N249 C246 1.341 . S
N249 N248 1.365 1_545 S
N249 H269 0.862 . S
C250 C245 1.501 . S
C250 H251 0.961 . S
C250 H252 0.961 . S
C250 H253 0.960 . S
H251 C250 0.961 . S
H252 C250 0.961 . S
H253 C250 0.960 . S
C254 N255 1.342 . S
C254 C258 1.401 . S
C254 C259 1.499 1_556 S
N255 Co238 1.989 . S
N255 C254 1.342 . S
N255 N256 1.388 . S
N256 Co239 1.993 . S
N256 N255 1.388 . S
N256 C257 1.346 . S
C257 N256 1.346 . S
C257 C258 1.396 . S
C257 C267 1.510 . S
C258 C254 1.401 . S
C258 C257 1.396 . S
C259 C254 1.499 1_554 S
C259 H260 0.959 . S
C259 H261 0.960 . S
C259 H262 0.961 . S
H260 C259 0.959 . S
H261 C259 0.960 . S
H262 C259 0.961 . S
O263 Co238 1.967 . S
O263 C271 1.258 . S
O264 Co239 1.941 . S
O264 C271 1.266 . S
H265 C267 0.959 1_545 S
H266 C267 0.961 . S
C267 C257 1.510 . S
C267 H265 0.959 1_565 S
C267 H266 0.961 . S
C267 H268 0.960 . S
H268 C267 0.960 . S
H269 N249 0.862 . S
O270 Co238 1.920 1_554 S
O270 C243 1.289 . S
C271 O263 1.258 . S
C271 O264 1.266 . S
Co272 O275 1.970 . S
Co272 N289 1.989 . S
Co272 O297 1.967 . S
Co272 O304 1.920 . S
Co273 O276 1.966 . S
Co273 N282 2.022 . S
Co273 N290 1.993 . S
Co273 O298 1.941 . S
C274 O275 1.258 . S
C274 O276 1.263 . S
O275 Co272 1.970 . S
O275 C274 1.258 . S
O276 Co273 1.966 . S
O276 C274 1.263 . S
C277 O278 1.235 . S
C277 O304 1.289 . S
O278 C277 1.235 . S
C279 C281 1.400 . S
C279 N282 1.351 . S
C279 C284 1.501 . S
C280 C281 1.387 . S
C280 N283 1.341 . S
C281 C279 1.400 . S
C281 C280 1.387 . S
N282 Co273 2.022 . S
N282 C279 1.351 . S
N282 N283 1.365 . S
N283 C280 1.341 . S
N283 N282 1.365 . S
N283 H303 0.862 . S
C284 C279 1.501 . S
C284 H285 0.961 . S
C284 H286 0.961 . S
C284 H287 0.960 . S
H285 C284 0.961 . S
H286 C284 0.961 . S
H287 C284 0.960 . S
C288 N289 1.342 . S
C288 C292 1.401 . S
C288 C293 1.499 . S
N289 Co272 1.989 . S
N289 C288 1.342 . S
N289 N290 1.388 . S
N290 Co273 1.993 . S
N290 N289 1.388 . S
N290 C291 1.346 . S
C291 N290 1.346 . S
C291 C292 1.396 . S
C291 C301 1.510 . S
C292 C288 1.401 . S
C292 C291 1.396 . S
C293 C288 1.499 . S
C293 H294 0.959 . S
C293 H295 0.960 . S
C293 H296 0.961 . S
H294 C293 0.959 . S
H295 C293 0.960 . S
H296 C293 0.961 . S
O297 Co272 1.967 . S
O297 C305 1.258 . S
O298 Co273 1.941 . S
O298 C305 1.266 . S
H299 C301 0.959 . S
H300 C301 0.961 . S
C301 C291 1.510 . S
C301 H299 0.959 . S
C301 H300 0.961 . S
C301 H302 0.960 . S
H302 C301 0.960 . S
H303 N283 0.862 . S
O304 Co272 1.920 . S
O304 C277 1.289 . S
C305 O297 1.258 . S
C305 O298 1.266 . S
Co306 O309 1.970 . S
Co306 N323 1.989 . S
Co306 O331 1.967 . S
Co306 O338 1.920 . S
Co307 O310 1.966 . S
Co307 N316 2.022 . S
Co307 N324 1.993 . S
Co307 O332 1.941 . S
C308 O309 1.258 . S
C308 O310 1.263 . S
O309 Co306 1.970 . S
O309 C308 1.258 . S
O310 Co307 1.966 . S
O310 C308 1.263 . S
C311 O312 1.235 . S
C311 O338 1.289 . S
O312 C311 1.235 . S
C313 C315 1.400 . S
C313 N316 1.351 . S
C313 C318 1.501 . S
C314 C315 1.387 . S
C314 N317 1.341 . S
C315 C313 1.400 . S
C315 C314 1.387 . S
N316 Co307 2.022 . S
N316 C313 1.351 . S
N316 N317 1.365 . S
N317 C314 1.341 . S
N317 N316 1.365 . S
N317 H337 0.862 . S
C318 C313 1.501 . S
C318 H319 0.961 . S
C318 H320 0.961 . S
C318 H321 0.960 . S
H319 C318 0.961 . S
H320 C318 0.961 . S
H321 C318 0.960 . S
C322 N323 1.342 . S
C322 C326 1.401 . S
C322 C327 1.499 . S
N323 Co306 1.989 . S
N323 C322 1.342 . S
N323 N324 1.388 . S
N324 Co307 1.993 . S
N324 N323 1.388 . S
N324 C325 1.346 . S
C325 N324 1.346 . S
C325 C326 1.396 . S
C325 C335 1.510 . S
C326 C322 1.401 . S
C326 C325 1.396 . S
C327 C322 1.499 . S
C327 H328 0.959 . S
C327 H329 0.960 . S
C327 H330 0.961 . S
H328 C327 0.959 . S
H329 C327 0.960 . S
H330 C327 0.961 . S
O331 Co306 1.967 . S
O331 C339 1.258 . S
O332 Co307 1.941 . S
O332 C339 1.266 . S
H333 C335 0.959 . S
H334 C335 0.961 . S
C335 C325 1.510 . S
C335 H333 0.959 . S
C335 H334 0.961 . S
C335 H336 0.960 . S
H336 C335 0.960 . S
H337 N317 0.862 . S
O338 Co306 1.920 . S
O338 C311 1.289 . S
C339 O331 1.258 . S
C339 O332 1.266 . S
Co340 O343 1.970 . S
Co340 N357 1.989 . S
Co340 O365 1.967 . S
Co340 O372 1.920 . S
Co341 O344 1.966 . S
Co341 N350 2.022 . S
Co341 N358 1.993 . S
Co341 O366 1.941 . S
C342 O343 1.258 . S
C342 O344 1.263 . S
O343 Co340 1.970 . S
O343 C342 1.258 . S
O344 Co341 1.966 . S
O344 C342 1.263 . S
C345 O346 1.235 . S
C345 O372 1.289 . S
O346 C345 1.235 . S
C347 C349 1.400 . S
C347 N350 1.351 . S
C347 C352 1.501 . S
C348 C349 1.387 . S
C348 N351 1.341 . S
C349 C347 1.400 . S
C349 C348 1.387 . S
N350 Co341 2.022 . S
N350 C347 1.351 . S
N350 N351 1.365 . S
N351 C348 1.341 . S
N351 N350 1.365 . S
N351 H371 0.862 . S
C352 C347 1.501 . S
C352 H353 0.961 . S
C352 H354 0.961 . S
C352 H355 0.960 . S
H353 C352 0.961 . S
H354 C352 0.961 . S
H355 C352 0.960 . S
C356 N357 1.342 . S
C356 C360 1.401 . S
C356 C361 1.499 . S
N357 Co340 1.989 . S
N357 C356 1.342 . S
N357 N358 1.388 . S
N358 Co341 1.993 . S
N358 N357 1.388 . S
N358 C359 1.346 . S
C359 N358 1.346 . S
C359 C360 1.396 . S
C359 C369 1.510 . S
C360 C356 1.401 . S
C360 C359 1.396 . S
C361 C356 1.499 . S
C361 H362 0.959 . S
C361 H363 0.960 . S
C361 H364 0.961 . S
H362 C361 0.959 . S
H363 C361 0.960 . S
H364 C361 0.961 . S
O365 Co340 1.967 . S
O365 C373 1.258 . S
O366 Co341 1.941 . S
O366 C373 1.266 . S
H367 C369 0.959 . S
H368 C369 0.961 . S
C369 C359 1.510 . S
C369 H367 0.959 . S
C369 H368 0.961 . S
C369 H370 0.960 . S
H370 C369 0.960 . S
H371 N351 0.862 . S
O372 Co340 1.920 . S
O372 C345 1.289 . S
C373 O365 1.258 . S
C373 O366 1.266 . S
Co374 O377 1.970 . S
Co374 N391 1.989 . S
Co374 O399 1.967 . S
Co374 O406 1.920 . S
Co375 O378 1.966 . S
Co375 N384 2.022 . S
Co375 N392 1.993 . S
Co375 O400 1.941 . S
C376 O377 1.258 . S
C376 O378 1.263 . S
O377 Co374 1.970 . S
O377 C376 1.258 . S
O378 Co375 1.966 . S
O378 C376 1.263 . S
C379 O380 1.235 . S
C379 O406 1.289 . S
O380 C379 1.235 . S
C381 C383 1.400 . S
C381 N384 1.351 . S
C381 C386 1.501 . S
C382 C383 1.387 . S
C382 N385 1.341 . S
C383 C381 1.400 . S
C383 C382 1.387 . S
N384 Co375 2.022 . S
N384 C381 1.351 . S
N384 N385 1.365 . S
N385 C382 1.341 . S
N385 N384 1.365 . S
N385 H405 0.862 . S
C386 C381 1.501 . S
C386 H387 0.961 . S
C386 H388 0.961 . S
C386 H389 0.960 . S
H387 C386 0.961 . S
H388 C386 0.961 . S
H389 C386 0.960 . S
C390 N391 1.342 . S
C390 C394 1.401 . S
C390 C395 1.499 . S
N391 Co374 1.989 . S
N391 C390 1.342 . S
N391 N392 1.388 . S
N392 Co375 1.993 . S
N392 N391 1.388 . S
N392 C393 1.346 . S
C393 N392 1.346 . S
C393 C394 1.396 . S
C393 C403 1.510 . S
C394 C390 1.401 . S
C394 C393 1.396 . S
C395 C390 1.499 . S
C395 H396 0.959 . S
C395 H397 0.960 . S
C395 H398 0.961 . S
H396 C395 0.959 . S
H397 C395 0.960 . S
H398 C395 0.961 . S
O399 Co374 1.967 . S
O399 C407 1.258 . S
O400 Co375 1.941 . S
O400 C407 1.266 . S
H401 C403 0.959 . S
H402 C403 0.961 . S
C403 C393 1.510 . S
C403 H401 0.959 . S
C403 H402 0.961 . S
C403 H404 0.960 . S
H404 C403 0.960 . S
H405 N385 0.862 . S
O406 Co374 1.920 . S
O406 C379 1.289 . S
C407 O399 1.258 . S
C407 O400 1.266 . S
Co408 O411 1.970 . S
Co408 N425 1.989 . S
Co408 O433 1.967 . S
Co408 O440 1.920 . S
Co409 O412 1.966 . S
Co409 N418 2.022 . S
Co409 N426 1.993 . S
Co409 O434 1.941 . S
C410 O411 1.258 . S
C410 O412 1.263 . S
O411 Co408 1.970 . S
O411 C410 1.258 . S
O412 Co409 1.966 . S
O412 C410 1.263 . S
C413 O414 1.235 . S
C413 O440 1.289 . S
O414 C413 1.235 . S
C415 C417 1.400 . S
C415 N418 1.351 . S
C415 C420 1.501 . S
C416 C417 1.387 . S
C416 N419 1.341 . S
C417 C415 1.400 . S
C417 C416 1.387 . S
N418 Co409 2.022 . S
N418 C415 1.351 . S
N418 N419 1.365 . S
N419 C416 1.341 . S
N419 N418 1.365 . S
N419 H439 0.862 . S
C420 C415 1.501 . S
C420 H421 0.961 . S
C420 H422 0.961 . S
C420 H423 0.960 . S
H421 C420 0.961 . S
H422 C420 0.961 . S
H423 C420 0.960 . S
C424 N425 1.342 . S
C424 C428 1.401 . S
C424 C429 1.499 . S
N425 Co408 1.989 . S
N425 C424 1.342 . S
N425 N426 1.388 . S
N426 Co409 1.993 . S
N426 N425 1.388 . S
N426 C427 1.346 . S
C427 N426 1.346 . S
C427 C428 1.396 . S
C427 C437 1.510 . S
C428 C424 1.401 . S
C428 C427 1.396 . S
C429 C424 1.499 . S
C429 H430 0.959 . S
C429 H431 0.960 . S
C429 H432 0.961 . S
H430 C429 0.959 . S
H431 C429 0.960 . S
H432 C429 0.961 . S
O433 Co408 1.967 . S
O433 C441 1.258 . S
O434 Co409 1.941 . S
O434 C441 1.266 . S
H435 C437 0.959 . S
H436 C437 0.961 . S
C437 C427 1.510 . S
C437 H435 0.959 . S
C437 H436 0.961 . S
C437 H438 0.960 . S
H438 C437 0.960 . S
H439 N419 0.862 . S
O440 Co408 1.920 . S
O440 C413 1.289 . S
C441 O433 1.258 . S
C441 O434 1.266 . S
Co442 O445 1.970 . S
Co442 N459 1.989 . S
Co442 O467 1.967 . S
Co442 O474 1.920 . S
Co443 O446 1.966 . S
Co443 N452 2.022 . S
Co443 N460 1.993 . S
Co443 O468 1.941 . S
C444 O445 1.258 . S
C444 O446 1.263 . S
O445 Co442 1.970 . S
O445 C444 1.258 . S
O446 Co443 1.966 . S
O446 C444 1.263 . S
C447 O448 1.235 . S
C447 O474 1.289 . S
O448 C447 1.235 . S
C449 C451 1.400 . S
C449 N452 1.351 . S
C449 C454 1.501 . S
C450 C451 1.387 . S
C450 N453 1.341 . S
C451 C449 1.400 . S
C451 C450 1.387 . S
N452 Co443 2.022 . S
N452 C449 1.351 . S
N452 N453 1.365 . S
N453 C450 1.341 . S
N453 N452 1.365 . S
N453 H473 0.862 . S
C454 C449 1.501 . S
C454 H455 0.961 . S
C454 H456 0.961 . S
C454 H457 0.960 . S
H455 C454 0.961 . S
H456 C454 0.961 . S
H457 C454 0.960 . S
C458 N459 1.342 . S
C458 C462 1.401 . S
C458 C463 1.499 . S
N459 Co442 1.989 . S
N459 C458 1.342 . S
N459 N460 1.388 . S
N460 Co443 1.993 . S
N460 N459 1.388 . S
N460 C461 1.346 . S
C461 N460 1.346 . S
C461 C462 1.396 . S
C461 C471 1.510 . S
C462 C458 1.401 . S
C462 C461 1.396 . S
C463 C458 1.499 . S
C463 H464 0.959 . S
C463 H465 0.960 . S
C463 H466 0.961 . S
H464 C463 0.959 . S
H465 C463 0.960 . S
H466 C463 0.961 . S
O467 Co442 1.967 . S
O467 C475 1.258 . S
O468 Co443 1.941 . S
O468 C475 1.266 . S
H469 C471 0.959 . S
H470 C471 0.961 . S
C471 C461 1.510 . S
C471 H469 0.959 . S
C471 H470 0.961 . S
C471 H472 0.960 . S
H472 C471 0.960 . S
H473 N453 0.862 . S
O474 Co442 1.920 . S
O474 C447 1.289 . S
C475 O467 1.258 . S
C475 O468 1.266 . S
Co476 O479 1.970 . S
Co476 N493 1.989 . S
Co476 O501 1.967 . S
Co476 O508 1.920 . S
Co477 O480 1.966 . S
Co477 N486 2.022 . S
Co477 N494 1.993 . S
Co477 O502 1.941 . S
C478 O479 1.258 . S
C478 O480 1.263 . S
O479 Co476 1.970 . S
O479 C478 1.258 . S
O480 Co477 1.966 . S
O480 C478 1.263 . S
C481 O482 1.235 . S
C481 O508 1.289 . S
O482 C481 1.235 . S
C483 C485 1.400 . S
C483 N486 1.351 . S
C483 C488 1.501 . S
C484 C485 1.387 . S
C484 N487 1.341 . S
C485 C483 1.400 . S
C485 C484 1.387 . S
N486 Co477 2.022 . S
N486 C483 1.351 . S
N486 N487 1.365 . S
N487 C484 1.341 . S
N487 N486 1.365 . S
N487 H507 0.862 . S
C488 C483 1.501 . S
C488 H489 0.961 . S
C488 H490 0.961 . S
C488 H491 0.960 . S
H489 C488 0.961 . S
H490 C488 0.961 . S
H491 C488 0.960 . S
C492 N493 1.342 . S
C492 C496 1.401 . S
C492 C497 1.499 . S
N493 Co476 1.989 . S
N493 C492 1.342 . S
N493 N494 1.388 . S
N494 Co477 1.993 . S
N494 N493 1.388 . S
N494 C495 1.346 . S
C495 N494 1.346 . S
C495 C496 1.396 . S
C495 C505 1.510 . S
C496 C492 1.401 . S
C496 C495 1.396 . S
C497 C492 1.499 . S
C497 H498 0.959 . S
C497 H499 0.960 . S
C497 H500 0.961 . S
H498 C497 0.959 . S
H499 C497 0.960 . S
H500 C497 0.961 . S
O501 Co476 1.967 . S
O501 C509 1.258 . S
O502 Co477 1.941 . S
O502 C509 1.266 . S
H503 C505 0.959 . S
H504 C505 0.961 . S
C505 C495 1.510 . S
C505 H503 0.959 . S
C505 H504 0.961 . S
C505 H506 0.960 . S
H506 C505 0.960 . S
H507 N487 0.862 . S
O508 Co476 1.920 . S
O508 C481 1.289 . S
C509 O501 1.258 . S
C509 O502 1.266 . S
Co510 O513 1.970 . S
Co510 N527 1.989 . S
Co510 O535 1.967 . S
Co510 O542 1.920 . S
Co511 O514 1.966 . S
Co511 N520 2.022 . S
Co511 N528 1.993 . S
Co511 O536 1.941 . S
C512 O513 1.258 . S
C512 O514 1.263 . S
O513 Co510 1.970 . S
O513 C512 1.258 . S
O514 Co511 1.966 . S
O514 C512 1.263 . S
C515 O516 1.235 . S
C515 O542 1.289 . S
O516 C515 1.235 . S
C517 C519 1.400 . S
C517 N520 1.351 . S
C517 C522 1.501 . S
C518 C519 1.387 . S
C518 N521 1.341 . S
C519 C517 1.400 . S
C519 C518 1.387 . S
N520 Co511 2.022 . S
N520 C517 1.351 . S
N520 N521 1.365 . S
N521 C518 1.341 . S
N521 N520 1.365 . S
N521 H541 0.862 . S
C522 C517 1.501 . S
C522 H523 0.961 . S
C522 H524 0.961 . S
C522 H525 0.960 . S
H523 C522 0.961 . S
H524 C522 0.961 . S
H525 C522 0.960 . S
C526 N527 1.342 . S
C526 C530 1.401 . S
C526 C531 1.499 . S
N527 Co510 1.989 . S
N527 C526 1.342 . S
N527 N528 1.388 . S
N528 Co511 1.993 . S
N528 N527 1.388 . S
N528 C529 1.346 . S
C529 N528 1.346 . S
C529 C530 1.396 . S
C529 C539 1.510 . S
C530 C526 1.401 . S
C530 C529 1.396 . S
C531 C526 1.499 . S
C531 H532 0.959 . S
C531 H533 0.960 . S
C531 H534 0.961 . S
H532 C531 0.959 . S
H533 C531 0.960 . S
H534 C531 0.961 . S
O535 Co510 1.967 . S
O535 C543 1.258 . S
O536 Co511 1.941 . S
O536 C543 1.266 . S
H537 C539 0.959 . S
H538 C539 0.961 . S
C539 C529 1.510 . S
C539 H537 0.959 . S
C539 H538 0.961 . S
C539 H540 0.960 . S
H540 C539 0.960 . S
H541 N521 0.862 . S
O542 Co510 1.920 . S
O542 C515 1.289 . S
C543 O535 1.258 . S
C543 O536 1.266 . S
Co544 O547 1.970 . S
Co544 N561 1.989 . S
Co544 O569 1.967 . S
Co544 O576 1.920 . S
Co545 O548 1.966 . S
Co545 N554 2.022 . S
Co545 N562 1.993 . S
Co545 O570 1.941 . S
C546 O547 1.258 . S
C546 O548 1.263 . S
O547 Co544 1.970 . S
O547 C546 1.258 . S
O548 Co545 1.966 . S
O548 C546 1.263 . S
C549 O550 1.235 . S
C549 O576 1.289 . S
O550 C549 1.235 . S
C551 C553 1.400 . S
C551 N554 1.351 . S
C551 C556 1.501 . S
C552 C553 1.387 1_565 S
C552 N555 1.341 . S
C553 C551 1.400 . S
C553 C552 1.387 1_545 S
N554 Co545 2.022 . S
N554 C551 1.351 . S
N554 N555 1.365 1_545 S
N555 C552 1.341 . S
N555 N554 1.365 1_565 S
N555 H575 0.862 . S
C556 C551 1.501 . S
C556 H557 0.961 . S
C556 H558 0.961 . S
C556 H559 0.960 . S
H557 C556 0.961 . S
H558 C556 0.961 . S
H559 C556 0.960 . S
C560 N561 1.342 . S
C560 C564 1.401 . S
C560 C565 1.499 . S
N561 Co544 1.989 . S
N561 C560 1.342 . S
N561 N562 1.388 . S
N562 Co545 1.993 . S
N562 N561 1.388 . S
N562 C563 1.346 . S
C563 N562 1.346 . S
C563 C564 1.396 . S
C563 C573 1.510 . S
C564 C560 1.401 . S
C564 C563 1.396 . S
C565 C560 1.499 . S
C565 H566 0.959 . S
C565 H567 0.960 . S
C565 H568 0.961 . S
H566 C565 0.959 . S
H567 C565 0.960 . S
H568 C565 0.961 . S
O569 Co544 1.967 . S
O569 C577 1.258 . S
O570 Co545 1.941 . S
O570 C577 1.266 . S
H571 C573 0.959 1_565 S
H572 C573 0.961 . S
C573 C563 1.510 . S
C573 H571 0.959 1_545 S
C573 H572 0.961 . S
C573 H574 0.960 . S
H574 C573 0.960 . S
H575 N555 0.862 . S
O576 Co544 1.920 . S
O576 C549 1.289 . S
C577 O569 1.258 . S
C577 O570 1.266 . S
Co578 O581 1.970 . S
Co578 N595 1.989 . S
Co578 O603 1.967 . S
Co578 O610 1.920 . S
Co579 O582 1.966 . S
Co579 N588 2.022 . S
Co579 N596 1.993 . S
Co579 O604 1.941 . S
C580 O581 1.258 . S
C580 O582 1.263 . S
O581 Co578 1.970 . S
O581 C580 1.258 . S
O582 Co579 1.966 . S
O582 C580 1.263 . S
C583 O584 1.235 . S
C583 O610 1.289 . S
O584 C583 1.235 . S
C585 C587 1.400 . S
C585 N588 1.351 . S
C585 C590 1.501 . S
C586 C587 1.387 . S
C586 N589 1.341 . S
C587 C585 1.400 . S
C587 C586 1.387 . S
N588 Co579 2.022 . S
N588 C585 1.351 . S
N588 N589 1.365 . S
N589 C586 1.341 . S
N589 N588 1.365 . S
N589 H609 0.862 . S
C590 C585 1.501 . S
C590 H591 0.961 . S
C590 H592 0.961 . S
C590 H593 0.960 . S
H591 C590 0.961 . S
H592 C590 0.961 . S
H593 C590 0.960 . S
C594 N595 1.342 . S
C594 C598 1.401 . S
C594 C599 1.499 . S
N595 Co578 1.989 . S
N595 C594 1.342 . S
N595 N596 1.388 . S
N596 Co579 1.993 . S
N596 N595 1.388 . S
N596 C597 1.346 . S
C597 N596 1.346 . S
C597 C598 1.396 . S
C597 C607 1.510 . S
C598 C594 1.401 . S
C598 C597 1.396 . S
C599 C594 1.499 . S
C599 H600 0.959 . S
C599 H601 0.960 . S
C599 H602 0.961 . S
H600 C599 0.959 . S
H601 C599 0.960 . S
H602 C599 0.961 . S
O603 Co578 1.967 . S
O603 C611 1.258 . S
O604 Co579 1.941 . S
O604 C611 1.266 . S
H605 C607 0.959 . S
H606 C607 0.961 . S
C607 C597 1.510 . S
C607 H605 0.959 . S
C607 H606 0.961 . S
C607 H608 0.960 . S
H608 C607 0.960 . S
H609 N589 0.862 . S
O610 Co578 1.920 . S
O610 C583 1.289 . S
C611 O603 1.258 . S
C611 O604 1.266 . S
Co612 O615 1.970 . S
Co612 N629 1.989 . S
Co612 O637 1.967 . S
Co612 O644 1.920 . S
Co613 O616 1.966 . S
Co613 N622 2.022 . S
Co613 N630 1.993 . S
Co613 O638 1.941 . S
C614 O615 1.258 . S
C614 O616 1.263 . S
O615 Co612 1.970 . S
O615 C614 1.258 . S
O616 Co613 1.966 . S
O616 C614 1.263 . S
C617 O618 1.235 . S
C617 O644 1.289 . S
O618 C617 1.235 . S
C619 C621 1.400 . S
C619 N622 1.351 . S
C619 C624 1.501 . S
C620 C621 1.387 . S
C620 N623 1.341 . S
C621 C619 1.400 . S
C621 C620 1.387 . S
N622 Co613 2.022 . S
N622 C619 1.351 . S
N622 N623 1.365 . S
N623 C620 1.341 . S
N623 N622 1.365 . S
N623 H643 0.862 . S
C624 C619 1.501 . S
C624 H625 0.961 . S
C624 H626 0.961 . S
C624 H627 0.960 . S
H625 C624 0.961 . S
H626 C624 0.961 . S
H627 C624 0.960 . S
C628 N629 1.342 . S
C628 C632 1.401 . S
C628 C633 1.499 . S
N629 Co612 1.989 . S
N629 C628 1.342 . S
N629 N630 1.388 . S
N630 Co613 1.993 . S
N630 N629 1.388 . S
N630 C631 1.346 . S
C631 N630 1.346 . S
C631 C632 1.396 . S
C631 C641 1.510 . S
C632 C628 1.401 . S
C632 C631 1.396 . S
C633 C628 1.499 . S
C633 H634 0.959 . S
C633 H635 0.960 . S
C633 H636 0.961 . S
H634 C633 0.959 . S
H635 C633 0.960 . S
H636 C633 0.961 . S
O637 Co612 1.967 . S
O637 C645 1.258 . S
O638 Co613 1.941 . S
O638 C645 1.266 . S
H639 C641 0.959 . S
H640 C641 0.961 . S
C641 C631 1.510 . S
C641 H639 0.959 . S
C641 H640 0.961 . S
C641 H642 0.960 . S
H642 C641 0.960 . S
H643 N623 0.862 . S
O644 Co612 1.920 . S
O644 C617 1.289 . S
C645 O637 1.258 . S
C645 O638 1.266 . S
Co646 O649 1.970 . S
Co646 N663 1.989 . S
Co646 O671 1.967 . S
Co646 O678 1.920 . S
Co647 O650 1.966 . S
Co647 N656 2.022 . S
Co647 N664 1.993 . S
Co647 O672 1.941 . S
C648 O649 1.258 . S
C648 O650 1.263 . S
O649 Co646 1.970 . S
O649 C648 1.258 . S
O650 Co647 1.966 . S
O650 C648 1.263 . S
C651 O652 1.235 . S
C651 O678 1.289 . S
O652 C651 1.235 . S
C653 C655 1.400 . S
C653 N656 1.351 . S
C653 C658 1.501 . S
C654 C655 1.387 1_565 S
C654 N657 1.341 . S
C655 C653 1.400 . S
C655 C654 1.387 1_545 S
N656 Co647 2.022 . S
N656 C653 1.351 . S
N656 N657 1.365 1_545 S
N657 C654 1.341 . S
N657 N656 1.365 1_565 S
N657 H677 0.862 . S
C658 C653 1.501 . S
C658 H659 0.961 . S
C658 H660 0.961 . S
C658 H661 0.960 . S
H659 C658 0.961 . S
H660 C658 0.961 . S
H661 C658 0.960 . S
C662 N663 1.342 . S
C662 C666 1.401 . S
C662 C667 1.499 . S
N663 Co646 1.989 . S
N663 C662 1.342 . S
N663 N664 1.388 . S
N664 Co647 1.993 . S
N664 N663 1.388 . S
N664 C665 1.346 . S
C665 N664 1.346 . S
C665 C666 1.396 . S
C665 C675 1.510 . S
C666 C662 1.401 . S
C666 C665 1.396 . S
C667 C662 1.499 . S
C667 H668 0.959 . S
C667 H669 0.960 . S
C667 H670 0.961 . S
H668 C667 0.959 . S
H669 C667 0.960 . S
H670 C667 0.961 . S
O671 Co646 1.967 . S
O671 C679 1.258 . S
O672 Co647 1.941 . S
O672 C679 1.266 . S
H673 C675 0.959 1_565 S
H674 C675 0.961 . S
C675 C665 1.510 . S
C675 H673 0.959 1_545 S
C675 H674 0.961 . S
C675 H676 0.960 . S
H676 C675 0.960 . S
H677 N657 0.862 . S
O678 Co646 1.920 . S
O678 C651 1.289 . S
C679 O671 1.258 . S
C679 O672 1.266 . S
Co680 O683 1.970 . S
Co680 N697 1.989 . S
Co680 O705 1.967 . S
Co680 O712 1.920 . S
Co681 O684 1.966 . S
Co681 N690 2.022 . S
Co681 N698 1.993 . S
Co681 O706 1.941 . S
C682 O683 1.258 . S
C682 O684 1.263 . S
O683 Co680 1.970 . S
O683 C682 1.258 . S
O684 Co681 1.966 . S
O684 C682 1.263 . S
C685 O686 1.235 . S
C685 O712 1.289 . S
O686 C685 1.235 . S
C687 C689 1.400 . S
C687 N690 1.351 . S
C687 C692 1.501 . S
C688 C689 1.387 1_545 S
C688 N691 1.341 . S
C689 C687 1.400 . S
C689 C688 1.387 1_565 S
N690 Co681 2.022 . S
N690 C687 1.351 . S
N690 N691 1.365 1_565 S
N691 C688 1.341 . S
N691 N690 1.365 1_545 S
N691 H711 0.862 . S
C692 C687 1.501 . S
C692 H693 0.961 . S
C692 H694 0.961 . S
C692 H695 0.960 . S
H693 C692 0.961 . S
H694 C692 0.961 . S
H695 C692 0.960 . S
C696 N697 1.342 . S
C696 C700 1.401 . S
C696 C701 1.499 . S
N697 Co680 1.989 . S
N697 C696 1.342 . S
N697 N698 1.388 . S
N698 Co681 1.993 . S
N698 N697 1.388 . S
N698 C699 1.346 . S
C699 N698 1.346 . S
C699 C700 1.396 . S
C699 C709 1.510 . S
C700 C696 1.401 . S
C700 C699 1.396 . S
C701 C696 1.499 . S
C701 H702 0.959 . S
C701 H703 0.960 . S
C701 H704 0.961 . S
H702 C701 0.959 . S
H703 C701 0.960 . S
H704 C701 0.961 . S
O705 Co680 1.967 . S
O705 C713 1.258 . S
O706 Co681 1.941 . S
O706 C713 1.266 . S
H707 C709 0.959 1_545 S
H708 C709 0.961 . S
C709 C699 1.510 . S
C709 H707 0.959 1_565 S
C709 H708 0.961 . S
C709 H710 0.960 . S
H710 C709 0.960 . S
H711 N691 0.862 . S
O712 Co680 1.920 . S
O712 C685 1.289 . S
C713 O705 1.258 . S
C713 O706 1.266 . S
Co714 O717 1.970 . S
Co714 N731 1.989 . S
Co714 O739 1.967 . S
Co714 O746 1.920 . S
Co715 O718 1.966 . S
Co715 N724 2.022 . S
Co715 N732 1.993 . S
Co715 O740 1.941 . S
C716 O717 1.258 . S
C716 O718 1.263 . S
O717 Co714 1.970 . S
O717 C716 1.258 . S
O718 Co715 1.966 . S
O718 C716 1.263 . S
C719 O720 1.235 . S
C719 O746 1.289 . S
O720 C719 1.235 . S
C721 C723 1.400 . S
C721 N724 1.351 . S
C721 C726 1.501 . S
C722 C723 1.387 . S
C722 N725 1.341 . S
C723 C721 1.400 . S
C723 C722 1.387 . S
N724 Co715 2.022 . S
N724 C721 1.351 . S
N724 N725 1.365 . S
N725 C722 1.341 . S
N725 N724 1.365 . S
N725 H745 0.862 . S
C726 C721 1.501 . S
C726 H727 0.961 . S
C726 H728 0.961 . S
C726 H729 0.960 . S
H727 C726 0.961 . S
H728 C726 0.961 . S
H729 C726 0.960 . S
C730 N731 1.342 . S
C730 C734 1.401 . S
C730 C735 1.499 . S
N731 Co714 1.989 . S
N731 C730 1.342 . S
N731 N732 1.388 . S
N732 Co715 1.993 . S
N732 N731 1.388 . S
N732 C733 1.346 . S
C733 N732 1.346 . S
C733 C734 1.396 . S
C733 C743 1.510 . S
C734 C730 1.401 . S
C734 C733 1.396 . S
C735 C730 1.499 . S
C735 H736 0.959 . S
C735 H737 0.960 . S
C735 H738 0.961 . S
H736 C735 0.959 . S
H737 C735 0.960 . S
H738 C735 0.961 . S
O739 Co714 1.967 . S
O739 C747 1.258 . S
O740 Co715 1.941 . S
O740 C747 1.266 . S
H741 C743 0.959 . S
H742 C743 0.961 . S
C743 C733 1.510 . S
C743 H741 0.959 . S
C743 H742 0.961 . S
C743 H744 0.960 . S
H744 C743 0.960 . S
H745 N725 0.862 . S
O746 Co714 1.920 . S
O746 C719 1.289 . S
C747 O739 1.258 . S
C747 O740 1.266 . S
Co748 O751 1.970 . S
Co748 N765 1.989 . S
Co748 O773 1.967 . S
Co748 O780 1.920 . S
Co749 O752 1.966 . S
Co749 N758 2.022 . S
Co749 N766 1.993 . S
Co749 O774 1.941 . S
C750 O751 1.258 . S
C750 O752 1.263 . S
O751 Co748 1.970 . S
O751 C750 1.258 . S
O752 Co749 1.966 . S
O752 C750 1.263 . S
C753 O754 1.235 . S
C753 O780 1.289 . S
O754 C753 1.235 . S
C755 C757 1.400 . S
C755 N758 1.351 . S
C755 C760 1.501 . S
C756 C757 1.387 . S
C756 N759 1.341 . S
C757 C755 1.400 . S
C757 C756 1.387 . S
N758 Co749 2.022 . S
N758 C755 1.351 . S
N758 N759 1.365 . S
N759 C756 1.341 . S
N759 N758 1.365 . S
N759 H779 0.862 . S
C760 C755 1.501 . S
C760 H761 0.961 . S
C760 H762 0.961 . S
C760 H763 0.960 . S
H761 C760 0.961 . S
H762 C760 0.961 . S
H763 C760 0.960 . S
C764 N765 1.342 . S
C764 C768 1.401 . S
C764 C769 1.499 . S
N765 Co748 1.989 . S
N765 C764 1.342 . S
N765 N766 1.388 . S
N766 Co749 1.993 . S
N766 N765 1.388 . S
N766 C767 1.346 . S
C767 N766 1.346 . S
C767 C768 1.396 . S
C767 C777 1.510 . S
C768 C764 1.401 . S
C768 C767 1.396 . S
C769 C764 1.499 . S
C769 H770 0.959 . S
C769 H771 0.960 . S
C769 H772 0.961 . S
H770 C769 0.959 . S
H771 C769 0.960 . S
H772 C769 0.961 . S
O773 Co748 1.967 . S
O773 C781 1.258 . S
O774 Co749 1.941 . S
O774 C781 1.266 . S
H775 C777 0.959 . S
H776 C777 0.961 . S
C777 C767 1.510 . S
C777 H775 0.959 . S
C777 H776 0.961 . S
C777 H778 0.960 . S
H778 C777 0.960 . S
H779 N759 0.862 . S
O780 Co748 1.920 . S
O780 C753 1.289 . S
C781 O773 1.258 . S
C781 O774 1.266 . S
Co782 O785 1.970 . S
Co782 N799 1.989 . S
Co782 O807 1.967 . S
Co782 O814 1.920 . S
Co783 O786 1.966 . S
Co783 N792 2.022 . S
Co783 N800 1.993 . S
Co783 O808 1.941 . S
C784 O785 1.258 . S
C784 O786 1.263 . S
O785 Co782 1.970 . S
O785 C784 1.258 . S
O786 Co783 1.966 . S
O786 C784 1.263 . S
C787 O788 1.235 . S
C787 O814 1.289 . S
O788 C787 1.235 . S
C789 C791 1.400 . S
C789 N792 1.351 . S
C789 C794 1.501 . S
C790 C791 1.387 1_545 S
C790 N793 1.341 . S
C791 C789 1.400 . S
C791 C790 1.387 1_565 S
N792 Co783 2.022 . S
N792 C789 1.351 . S
N792 N793 1.365 1_565 S
N793 C790 1.341 . S
N793 N792 1.365 1_545 S
N793 H813 0.862 . S
C794 C789 1.501 . S
C794 H795 0.961 . S
C794 H796 0.961 . S
C794 H797 0.960 . S
H795 C794 0.961 . S
H796 C794 0.961 . S
H797 C794 0.960 . S
C798 N799 1.342 . S
C798 C802 1.401 . S
C798 C803 1.499 . S
N799 Co782 1.989 . S
N799 C798 1.342 . S
N799 N800 1.388 . S
N800 Co783 1.993 . S
N800 N799 1.388 . S
N800 C801 1.346 . S
C801 N800 1.346 . S
C801 C802 1.396 . S
C801 C811 1.510 . S
C802 C798 1.401 . S
C802 C801 1.396 . S
C803 C798 1.499 . S
C803 H804 0.959 . S
C803 H805 0.960 . S
C803 H806 0.961 . S
H804 C803 0.959 . S
H805 C803 0.960 . S
H806 C803 0.961 . S
O807 Co782 1.967 . S
O807 C815 1.258 . S
O808 Co783 1.941 . S
O808 C815 1.266 . S
H809 C811 0.959 1_545 S
H810 C811 0.961 . S
C811 C801 1.510 . S
C811 H809 0.959 1_565 S
C811 H810 0.961 . S
C811 H812 0.960 . S
H812 C811 0.960 . S
H813 N793 0.862 . S
O814 Co782 1.920 . S
O814 C787 1.289 . S
C815 O807 1.258 . S
C815 O808 1.266 . S
Co816 O819 1.970 . S
Co816 N833 1.989 . S
Co816 O841 1.967 . S
Co816 O848 1.920 . S
Co817 O820 1.966 . S
Co817 N826 2.022 . S
Co817 N834 1.993 . S
Co817 O842 1.941 . S
C818 O819 1.258 . S
C818 O820 1.263 . S
O819 Co816 1.970 . S
O819 C818 1.258 . S
O820 Co817 1.966 . S
O820 C818 1.263 . S
C821 O822 1.235 . S
C821 O848 1.289 . S
O822 C821 1.235 . S
C823 C825 1.400 . S
C823 N826 1.351 1_556 S
C823 C828 1.501 . S
C824 C825 1.387 . S
C824 N827 1.341 1_556 S
C825 C823 1.400 . S
C825 C824 1.387 . S
N826 Co817 2.022 . S
N826 C823 1.351 1_554 S
N826 N827 1.365 . S
N827 C824 1.341 1_554 S
N827 N826 1.365 . S
N827 H847 0.862 . S
C828 C823 1.501 . S
C828 H829 0.961 1_556 S
C828 H830 0.962 1_556 S
C828 H831 0.960 . S
H829 C828 0.961 1_554 S
H830 C828 0.962 1_554 S
H831 C828 0.960 . S
C832 N833 1.342 . S
C832 C836 1.401 . S
C832 C837 1.499 . S
N833 Co816 1.989 . S
N833 C832 1.342 . S
N833 N834 1.388 . S
N834 Co817 1.993 . S
N834 N833 1.388 . S
N834 C835 1.346 . S
C835 N834 1.346 . S
C835 C836 1.396 . S
C835 C845 1.510 . S
C836 C832 1.401 . S
C836 C835 1.396 . S
C837 C832 1.499 . S
C837 H838 0.959 . S
C837 H839 0.960 . S
C837 H840 0.961 . S
H838 C837 0.959 . S
H839 C837 0.960 . S
H840 C837 0.961 . S
O841 Co816 1.967 . S
O841 C849 1.258 . S
O842 Co817 1.941 . S
O842 C849 1.266 . S
H843 C845 0.959 . S
H844 C845 0.961 . S
C845 C835 1.510 . S
C845 H843 0.959 . S
C845 H844 0.961 . S
C845 H846 0.960 . S
H846 C845 0.960 . S
H847 N827 0.862 . S
O848 Co816 1.920 . S
O848 C821 1.289 . S
C849 O841 1.258 . S
C849 O842 1.266 . S
Co850 O853 1.970 . S
Co850 N867 1.989 . S
Co850 O875 1.967 . S
Co850 O882 1.920 . S
Co851 O854 1.966 . S
Co851 N860 2.022 . S
Co851 N868 1.993 . S
Co851 O876 1.941 . S
C852 O853 1.258 . S
C852 O854 1.263 . S
O853 Co850 1.970 . S
O853 C852 1.258 . S
O854 Co851 1.966 . S
O854 C852 1.263 . S
C855 O856 1.235 . S
C855 O882 1.289 . S
O856 C855 1.235 . S
C857 C859 1.400 . S
C857 N860 1.351 1_556 S
C857 C862 1.501 . S
C858 C859 1.387 . S
C858 N861 1.341 1_556 S
C859 C857 1.400 . S
C859 C858 1.387 . S
N860 Co851 2.022 . S
N860 C857 1.351 1_554 S
N860 N861 1.365 . S
N861 C858 1.341 1_554 S
N861 N860 1.365 . S
N861 H881 0.862 . S
C862 C857 1.501 . S
C862 H863 0.961 1_556 S
C862 H864 0.962 1_556 S
C862 H865 0.960 . S
H863 C862 0.961 1_554 S
H864 C862 0.962 1_554 S
H865 C862 0.960 . S
C866 N867 1.342 . S
C866 C870 1.401 . S
C866 C871 1.499 . S
N867 Co850 1.989 . S
N867 C866 1.342 . S
N867 N868 1.388 . S
N868 Co851 1.993 . S
N868 N867 1.388 . S
N868 C869 1.346 . S
C869 N868 1.346 . S
C869 C870 1.396 . S
C869 C879 1.510 . S
C870 C866 1.401 . S
C870 C869 1.396 . S
C871 C866 1.499 . S
C871 H872 0.959 . S
C871 H873 0.960 . S
C871 H874 0.961 . S
H872 C871 0.959 . S
H873 C871 0.960 . S
H874 C871 0.961 . S
O875 Co850 1.967 . S
O875 C883 1.258 . S
O876 Co851 1.941 . S
O876 C883 1.266 . S
H877 C879 0.959 . S
H878 C879 0.961 . S
C879 C869 1.510 . S
C879 H877 0.959 . S
C879 H878 0.961 . S
C879 H880 0.960 . S
H880 C879 0.960 . S
H881 N861 0.862 . S
O882 Co850 1.920 . S
O882 C855 1.289 . S
C883 O875 1.258 . S
C883 O876 1.266 . S
Co884 O887 1.970 . S
Co884 N901 1.989 . S
Co884 O909 1.967 . S
Co884 O916 1.920 1_554 S
Co885 O888 1.966 . S
Co885 N894 2.022 . S
Co885 N902 1.993 . S
Co885 O910 1.941 . S
C886 O887 1.258 . S
C886 O888 1.263 . S
O887 Co884 1.970 . S
O887 C886 1.258 . S
O888 Co885 1.966 . S
O888 C886 1.263 . S
C889 O890 1.235 . S
C889 O916 1.289 . S
O890 C889 1.235 . S
C891 C893 1.400 . S
C891 N894 1.351 . S
C891 C896 1.501 . S
C892 C893 1.387 . S
C892 N895 1.341 . S
C893 C891 1.400 . S
C893 C892 1.387 . S
N894 Co885 2.022 . S
N894 C891 1.351 . S
N894 N895 1.365 . S
N895 C892 1.341 . S
N895 N894 1.365 . S
N895 H915 0.862 . S
C896 C891 1.501 . S
C896 H897 0.961 . S
C896 H898 0.961 . S
C896 H899 0.960 . S
H897 C896 0.961 . S
H898 C896 0.961 . S
H899 C896 0.960 . S
C900 N901 1.342 . S
C900 C904 1.401 . S
C900 C905 1.499 1_554 S
N901 Co884 1.989 . S
N901 C900 1.342 . S
N901 N902 1.388 . S
N902 Co885 1.993 . S
N902 N901 1.388 . S
N902 C903 1.346 . S
C903 N902 1.346 . S
C903 C904 1.396 . S
C903 C913 1.510 . S
C904 C900 1.401 . S
C904 C903 1.396 . S
C905 C900 1.499 1_556 S
C905 H906 0.959 . S
C905 H907 0.960 . S
C905 H908 0.961 . S
H906 C905 0.959 . S
H907 C905 0.960 . S
H908 C905 0.961 . S
O909 Co884 1.967 . S
O909 C917 1.258 . S
O910 Co885 1.941 . S
O910 C917 1.266 . S
H911 C913 0.959 . S
H912 C913 0.961 . S
C913 C903 1.510 . S
C913 H911 0.959 . S
C913 H912 0.961 . S
C913 H914 0.960 . S
H914 C913 0.960 . S
H915 N895 0.862 . S
O916 Co884 1.920 1_556 S
O916 C889 1.289 . S
C917 O909 1.258 . S
C917 O910 1.266 . S
Co918 O921 1.970 . S
Co918 N935 1.989 . S
Co918 O943 1.967 . S
Co918 O950 1.920 1_554 S
Co919 O922 1.966 . S
Co919 N928 2.022 . S
Co919 N936 1.993 . S
Co919 O944 1.941 . S
C920 O921 1.258 . S
C920 O922 1.263 . S
O921 Co918 1.970 . S
O921 C920 1.258 . S
O922 Co919 1.966 . S
O922 C920 1.263 . S
C923 O924 1.235 . S
C923 O950 1.289 . S
O924 C923 1.235 . S
C925 C927 1.400 . S
C925 N928 1.351 . S
C925 C930 1.501 . S
C926 C927 1.387 . S
C926 N929 1.341 . S
C927 C925 1.400 . S
C927 C926 1.387 . S
N928 Co919 2.022 . S
N928 C925 1.351 . S
N928 N929 1.365 . S
N929 C926 1.341 . S
N929 N928 1.365 . S
N929 H949 0.862 . S
C930 C925 1.501 . S
C930 H931 0.961 . S
C930 H932 0.961 . S
C930 H933 0.960 . S
H931 C930 0.961 . S
H932 C930 0.961 . S
H933 C930 0.960 . S
C934 N935 1.342 . S
C934 C938 1.401 . S
C934 C939 1.499 1_554 S
N935 Co918 1.989 . S
N935 C934 1.342 . S
N935 N936 1.388 . S
N936 Co919 1.993 . S
N936 N935 1.388 . S
N936 C937 1.346 . S
C937 N936 1.346 . S
C937 C938 1.396 . S
C937 C947 1.510 . S
C938 C934 1.401 . S
C938 C937 1.396 . S
C939 C934 1.499 1_556 S
C939 H940 0.959 . S
C939 H941 0.960 . S
C939 H942 0.961 . S
H940 C939 0.959 . S
H941 C939 0.960 . S
H942 C939 0.961 . S
O943 Co918 1.967 . S
O943 C951 1.258 . S
O944 Co919 1.941 . S
O944 C951 1.266 . S
H945 C947 0.959 . S
H946 C947 0.961 . S
C947 C937 1.510 . S
C947 H945 0.959 . S
C947 H946 0.961 . S
C947 H948 0.960 . S
H948 C947 0.960 . S
H949 N929 0.862 . S
O950 Co918 1.920 1_556 S
O950 C923 1.289 . S
C951 O943 1.258 . S
C951 O944 1.266 . S
Co952 O955 1.970 . S
Co952 N969 1.989 . S
Co952 O977 1.967 . S
Co952 O984 1.920 . S
Co953 O956 1.966 . S
Co953 N962 2.022 . S
Co953 N970 1.993 . S
Co953 O978 1.941 . S
C954 O955 1.258 . S
C954 O956 1.263 . S
O955 Co952 1.970 . S
O955 C954 1.258 . S
O956 Co953 1.966 . S
O956 C954 1.263 . S
C957 O958 1.235 . S
C957 O984 1.289 . S
O958 C957 1.235 . S
C959 C961 1.400 . S
C959 N962 1.351 1_554 S
C959 C964 1.501 . S
C960 C961 1.387 . S
C960 N963 1.341 1_554 S
C961 C959 1.400 . S
C961 C960 1.387 . S
N962 Co953 2.022 . S
N962 C959 1.351 1_556 S
N962 N963 1.365 . S
N963 C960 1.341 1_556 S
N963 N962 1.365 . S
N963 H983 0.862 . S
C964 C959 1.501 . S
C964 H965 0.961 1_554 S
C964 H966 0.962 1_554 S
C964 H967 0.960 . S
H965 C964 0.961 1_556 S
H966 C964 0.962 1_556 S
H967 C964 0.960 . S
C968 N969 1.342 . S
C968 C972 1.401 . S
C968 C973 1.499 . S
N969 Co952 1.989 . S
N969 C968 1.342 . S
N969 N970 1.388 . S
N970 Co953 1.993 . S
N970 N969 1.388 . S
N970 C971 1.346 . S
C971 N970 1.346 . S
C971 C972 1.396 . S
C971 C981 1.510 . S
C972 C968 1.401 . S
C972 C971 1.396 . S
C973 C968 1.499 . S
C973 H974 0.959 . S
C973 H975 0.960 . S
C973 H976 0.961 . S
H974 C973 0.959 . S
H975 C973 0.960 . S
H976 C973 0.961 . S
O977 Co952 1.967 . S
O977 C985 1.258 . S
O978 Co953 1.941 . S
O978 C985 1.266 . S
H979 C981 0.959 . S
H980 C981 0.961 . S
C981 C971 1.510 . S
C981 H979 0.959 . S
C981 H980 0.961 . S
C981 H982 0.960 . S
H982 C981 0.960 . S
H983 N963 0.862 . S
O984 Co952 1.920 . S
O984 C957 1.289 . S
C985 O977 1.258 . S
C985 O978 1.266 . S
Co986 O989 1.970 . S
Co986 N1003 1.989 . S
Co986 O1011 1.967 . S
Co986 O1018 1.920 . S
Co987 O990 1.966 . S
Co987 N996 2.022 . S
Co987 N1004 1.993 . S
Co987 O1012 1.941 . S
C988 O989 1.258 . S
C988 O990 1.263 . S
O989 Co986 1.970 . S
O989 C988 1.258 . S
O990 Co987 1.966 . S
O990 C988 1.263 . S
C991 O992 1.235 . S
C991 O1018 1.289 . S
O992 C991 1.235 . S
C993 C995 1.400 . S
C993 N996 1.351 1_554 S
C993 C998 1.501 . S
C994 C995 1.387 . S
C994 N997 1.341 1_554 S
C995 C993 1.400 . S
C995 C994 1.387 . S
N996 Co987 2.022 . S
N996 C993 1.351 1_556 S
N996 N997 1.365 . S
N997 C994 1.341 1_556 S
N997 N996 1.365 . S
N997 H1017 0.862 . S
C998 C993 1.501 . S
C998 H999 0.961 1_554 S
C998 H1000 0.962 1_554 S
C998 H1001 0.960 . S
H999 C998 0.961 1_556 S
H1000 C998 0.962 1_556 S
H1001 C998 0.960 . S
C1002 N1003 1.342 . S
C1002 C1006 1.401 . S
C1002 C1007 1.499 . S
N1003 Co986 1.989 . S
N1003 C1002 1.342 . S
N1003 N1004 1.388 . S
N1004 Co987 1.993 . S
N1004 N1003 1.388 . S
N1004 C1005 1.346 . S
C1005 N1004 1.346 . S
C1005 C1006 1.396 . S
C1005 C1015 1.510 . S
C1006 C1002 1.401 . S
C1006 C1005 1.396 . S
C1007 C1002 1.499 . S
C1007 H1008 0.959 . S
C1007 H1009 0.960 . S
C1007 H1010 0.961 . S
H1008 C1007 0.959 . S
H1009 C1007 0.960 . S
H1010 C1007 0.961 . S
O1011 Co986 1.967 . S
O1011 C1019 1.258 . S
O1012 Co987 1.941 . S
O1012 C1019 1.266 . S
H1013 C1015 0.959 . S
H1014 C1015 0.961 . S
C1015 C1005 1.510 . S
C1015 H1013 0.959 . S
C1015 H1014 0.961 . S
C1015 H1016 0.960 . S
H1016 C1015 0.960 . S
H1017 N997 0.862 . S
O1018 Co986 1.920 . S
O1018 C991 1.289 . S
C1019 O1011 1.258 . S
C1019 O1012 1.266 . S
Co1020 O1023 1.970 . S
Co1020 N1037 1.989 . S
Co1020 O1045 1.967 . S
Co1020 O1052 1.920 1_556 S
Co1021 O1024 1.966 . S
Co1021 N1030 2.022 . S
Co1021 N1038 1.993 . S
Co1021 O1046 1.941 . S
C1022 O1023 1.258 . S
C1022 O1024 1.263 . S
O1023 Co1020 1.970 . S
O1023 C1022 1.258 . S
O1024 Co1021 1.966 . S
O1024 C1022 1.263 . S
C1025 O1026 1.235 . S
C1025 O1052 1.289 . S
O1026 C1025 1.235 . S
C1027 C1029 1.400 . S
C1027 N1030 1.351 . S
C1027 C1032 1.501 . S
C1028 C1029 1.387 . S
C1028 N1031 1.341 . S
C1029 C1027 1.400 . S
C1029 C1028 1.387 . S
N1030 Co1021 2.022 . S
N1030 C1027 1.351 . S
N1030 N1031 1.365 . S
N1031 C1028 1.341 . S
N1031 N1030 1.365 . S
N1031 H1051 0.862 . S
C1032 C1027 1.501 . S
C1032 H1033 0.961 . S
C1032 H1034 0.961 . S
C1032 H1035 0.960 . S
H1033 C1032 0.961 . S
H1034 C1032 0.961 . S
H1035 C1032 0.960 . S
C1036 N1037 1.342 . S
C1036 C1040 1.401 . S
C1036 C1041 1.499 1_556 S
N1037 Co1020 1.989 . S
N1037 C1036 1.342 . S
N1037 N1038 1.388 . S
N1038 Co1021 1.993 . S
N1038 N1037 1.388 . S
N1038 C1039 1.346 . S
C1039 N1038 1.346 . S
C1039 C1040 1.396 . S
C1039 C1049 1.510 . S
C1040 C1036 1.401 . S
C1040 C1039 1.396 . S
C1041 C1036 1.499 1_554 S
C1041 H1042 0.959 . S
C1041 H1043 0.960 . S
C1041 H1044 0.961 . S
H1042 C1041 0.959 . S
H1043 C1041 0.960 . S
H1044 C1041 0.961 . S
O1045 Co1020 1.967 . S
O1045 C1053 1.258 . S
O1046 Co1021 1.941 . S
O1046 C1053 1.266 . S
H1047 C1049 0.959 . S
H1048 C1049 0.961 . S
C1049 C1039 1.510 . S
C1049 H1047 0.959 . S
C1049 H1048 0.961 . S
C1049 H1050 0.960 . S
H1050 C1049 0.960 . S
H1051 N1031 0.862 . S
O1052 Co1020 1.920 1_554 S
O1052 C1025 1.289 . S
C1053 O1045 1.258 . S
C1053 O1046 1.266 . S
Co1054 O1057 1.970 . S
Co1054 N1071 1.989 . S
Co1054 O1079 1.967 . S
Co1054 O1086 1.920 1_556 S
Co1055 O1058 1.966 . S
Co1055 N1064 2.022 . S
Co1055 N1072 1.993 . S
Co1055 O1080 1.941 . S
C1056 O1057 1.258 . S
C1056 O1058 1.263 . S
O1057 Co1054 1.970 . S
O1057 C1056 1.258 . S
O1058 Co1055 1.966 . S
O1058 C1056 1.263 . S
C1059 O1060 1.235 . S
C1059 O1086 1.289 . S
O1060 C1059 1.235 . S
C1061 C1063 1.400 . S
C1061 N1064 1.351 . S
C1061 C1066 1.501 . S
C1062 C1063 1.387 . S
C1062 N1065 1.341 . S
C1063 C1061 1.400 . S
C1063 C1062 1.387 . S
N1064 Co1055 2.022 . S
N1064 C1061 1.351 . S
N1064 N1065 1.365 . S
N1065 C1062 1.341 . S
N1065 N1064 1.365 . S
N1065 H1085 0.862 . S
C1066 C1061 1.501 . S
C1066 H1067 0.961 . S
C1066 H1068 0.961 . S
C1066 H1069 0.960 . S
H1067 C1066 0.961 . S
H1068 C1066 0.961 . S
H1069 C1066 0.960 . S
C1070 N1071 1.342 . S
C1070 C1074 1.401 . S
C1070 C1075 1.499 1_556 S
N1071 Co1054 1.989 . S
N1071 C1070 1.342 . S
N1071 N1072 1.388 . S
N1072 Co1055 1.993 . S
N1072 N1071 1.388 . S
N1072 C1073 1.346 . S
C1073 N1072 1.346 . S
C1073 C1074 1.396 . S
C1073 C1083 1.510 . S
C1074 C1070 1.401 . S
C1074 C1073 1.396 . S
C1075 C1070 1.499 1_554 S
C1075 H1076 0.959 . S
C1075 H1077 0.960 . S
C1075 H1078 0.961 . S
H1076 C1075 0.959 . S
H1077 C1075 0.960 . S
H1078 C1075 0.961 . S
O1079 Co1054 1.967 . S
O1079 C1087 1.258 . S
O1080 Co1055 1.941 . S
O1080 C1087 1.266 . S
H1081 C1083 0.959 . S
H1082 C1083 0.961 . S
C1083 C1073 1.510 . S
C1083 H1081 0.959 . S
C1083 H1082 0.961 . S
C1083 H1084 0.960 . S
H1084 C1083 0.960 . S
H1085 N1065 0.862 . S
O1086 Co1054 1.920 1_554 S
O1086 C1059 1.289 . S
C1087 O1079 1.258 . S
C1087 O1080 1.266 . S
C1088 C1089 1.369 . S
C1088 C1090 1.419 1_565 S
C1088 H1092 0.930 . S
C1089 C1088 1.369 . S
C1089 C1098 1.429 . S
C1090 C1088 1.419 1_545 S
C1090 C1091 1.363 . S
C1090 H1093 0.929 . S
C1091 C1090 1.363 . S
C1091 C1097 1.428 . S
H1092 C1088 0.930 . S
H1093 C1090 0.929 . S
S1094 N1095 1.613 . S
S1094 N1096 1.610 1_565 S
N1095 S1094 1.613 . S
N1095 C1098 1.350 . S
N1096 S1094 1.610 1_545 S
N1096 C1097 1.351 . S
C1097 C1091 1.428 . S
C1097 N1096 1.351 . S
C1097 C1098 1.434 1_545 S
C1098 C1089 1.429 . S
C1098 N1095 1.350 . S
C1098 C1097 1.434 1_565 S
C1099 C1100 1.369 . S
C1099 C1101 1.419 1_455 S
C1099 H1103 0.930 . S
C1100 C1099 1.369 . S
C1100 C1109 1.429 . S
C1101 C1099 1.419 1_655 S
C1101 C1102 1.363 . S
C1101 H1104 0.929 . S
C1102 C1101 1.363 . S
C1102 C1108 1.428 . S
H1103 C1099 0.930 . S
H1104 C1101 0.929 . S
S1105 N1106 1.613 1_554 S
S1105 N1107 1.610 1_455 S
N1106 S1105 1.613 1_556 S
N1106 C1109 1.350 . S
N1107 S1105 1.610 1_655 S
N1107 C1108 1.351 1_554 S
C1108 C1102 1.428 . S
C1108 N1107 1.351 1_556 S
C1108 C1109 1.434 1_655 S
C1109 C1100 1.429 . S
C1109 N1106 1.350 . S
C1109 C1108 1.434 1_455 S
C1110 C1111 1.369 . S
C1110 C1112 1.419 . S
C1110 H1114 0.930 . S
C1111 C1110 1.369 . S
C1111 C1120 1.429 . S
C1112 C1110 1.419 . S
C1112 C1113 1.363 . S
C1112 H1115 0.929 . S
C1113 C1112 1.363 . S
C1113 C1119 1.428 . S
H1114 C1110 0.930 . S
H1115 C1112 0.929 . S
S1116 N1117 1.613 . S
S1116 N1118 1.610 . S
N1117 S1116 1.613 . S
N1117 C1120 1.350 . S
N1118 S1116 1.610 . S
N1118 C1119 1.351 . S
C1119 C1113 1.428 . S
C1119 N1118 1.351 . S
C1119 C1120 1.434 . S
C1120 C1111 1.429 . S
C1120 N1117 1.350 . S
C1120 C1119 1.434 . S
C1121 C1122 1.338 1_565 S
C1121 C1123 1.441 1_655 S
C1121 H1125 0.942 . S
C1122 C1121 1.338 1_545 S
C1122 C1131 1.429 . S
C1123 C1121 1.441 1_455 S
C1123 C1124 1.363 . S
C1123 H1126 0.929 . S
C1124 C1123 1.363 . S
C1124 C1130 1.428 1_565 S
H1125 C1121 0.942 . S
H1126 C1123 0.929 . S
S1127 N1128 1.613 . S
S1127 N1129 1.610 1_655 S
N1128 S1127 1.613 . S
N1128 C1131 1.350 . S
N1129 S1127 1.610 1_455 S
N1129 C1130 1.351 . S
C1130 C1124 1.428 1_545 S
C1130 N1129 1.351 . S
C1130 C1131 1.434 1_455 S
C1131 C1122 1.429 . S
C1131 N1128 1.350 . S
C1131 C1130 1.434 1_655 S
C1132 C1133 1.369 1_545 S
C1132 C1134 1.419 . S
C1132 H1136 0.930 . S
C1133 C1132 1.369 1_565 S
C1133 C1142 1.429 . S
C1134 C1132 1.419 . S
C1134 C1135 1.363 . S
C1134 H1137 0.929 . S
C1135 C1134 1.363 . S
C1135 C1141 1.428 1_545 S
H1136 C1132 0.930 . S
H1137 C1134 0.929 . S
S1138 N1139 1.613 . S
S1138 N1140 1.610 . S
N1139 S1138 1.613 . S
N1139 C1142 1.350 . S
N1140 S1138 1.610 . S
N1140 C1141 1.351 . S
C1141 C1135 1.428 1_565 S
C1141 N1140 1.351 . S
C1141 C1142 1.434 . S
C1142 C1133 1.429 . S
C1142 N1139 1.350 . S
C1142 C1141 1.434 . S
C1143 C1144 1.369 . S
C1143 C1145 1.449 . S
C1143 H1147 0.930 . S
C1144 C1143 1.369 . S
C1144 C1153 1.429 . S
C1145 C1143 1.449 . S
C1145 C1146 1.333 1_655 S
C1145 H1148 0.929 . S
C1146 C1145 1.333 1_455 S
C1146 C1152 1.428 . S
H1147 C1143 0.930 . S
H1148 C1145 0.929 . S
S1149 N1150 1.590 1_455 S
S1149 N1151 1.610 . S
N1150 S1149 1.590 1_655 S
N1150 C1153 1.353 . S
N1151 S1149 1.610 . S
N1151 C1152 1.351 . S
C1152 C1146 1.428 . S
C1152 N1151 1.351 . S
C1152 C1153 1.434 1_455 S
C1153 C1144 1.429 . S
C1153 N1150 1.353 . S
C1153 C1152 1.434 1_655 S
C1154 C1155 1.369 . S
C1154 C1156 1.419 . S
C1154 H1158 0.930 . S
C1155 C1154 1.369 . S
C1155 C1164 1.429 . S
C1156 C1154 1.419 . S
C1156 C1157 1.363 . S
C1156 H1159 0.929 . S
C1157 C1156 1.363 . S
C1157 C1163 1.428 . S
H1158 C1154 0.930 . S
H1159 C1156 0.929 . S
S1160 N1161 1.613 . S
S1160 N1162 1.610 . S
N1161 S1160 1.613 . S
N1161 C1164 1.350 . S
N1162 S1160 1.610 . S
N1162 C1163 1.351 . S
C1163 C1157 1.428 . S
C1163 N1162 1.351 . S
C1163 C1164 1.434 . S
C1164 C1155 1.429 . S
C1164 N1161 1.350 . S
C1164 C1163 1.434 . S
C1165 C1166 1.369 1_545 S
C1165 C1167 1.419 1_455 S
C1165 H1169 0.930 . S
C1166 C1165 1.369 1_565 S
C1166 C1175 1.429 . S
C1167 C1165 1.419 1_655 S
C1167 C1168 1.363 . S
C1167 H1170 0.929 . S
C1168 C1167 1.363 . S
C1168 C1174 1.428 1_545 S
H1169 C1165 0.930 . S
H1170 C1167 0.929 . S
S1171 N1172 1.613 1_655 S
S1171 N1173 1.610 . S
N1172 S1171 1.613 1_455 S
N1172 C1175 1.350 . S
N1173 S1171 1.610 . S
N1173 C1174 1.351 . S
C1174 C1168 1.428 1_565 S
C1174 N1173 1.351 . S
C1174 C1175 1.434 1_655 S
C1175 C1166 1.429 . S
C1175 N1172 1.350 . S
C1175 C1174 1.434 1_455 S
C1176 C1177 1.369 . S
C1176 C1178 1.419 . S
C1176 H1180 0.930 . S
C1177 C1176 1.369 . S
C1177 C1186 1.429 . S
C1178 C1176 1.419 . S
C1178 C1179 1.363 . S
C1178 H1181 0.929 . S
C1179 C1178 1.363 . S
C1179 C1185 1.428 . S
H1180 C1176 0.930 . S
H1181 C1178 0.929 . S
S1182 N1183 1.613 . S
S1182 N1184 1.610 . S
N1183 S1182 1.613 . S
N1183 C1186 1.350 . S
N1184 S1182 1.610 . S
N1184 C1185 1.351 . S
C1185 C1179 1.428 . S
C1185 N1184 1.351 . S
C1185 C1186 1.434 . S
C1186 C1177 1.429 . S
C1186 N1183 1.350 . S
C1186 C1185 1.434 . S
C1187 C1188 1.369 . S
C1187 C1189 1.419 1_455 S
C1187 H1191 0.930 . S
C1188 C1187 1.369 . S
C1188 C1197 1.429 . S
C1189 C1187 1.419 1_655 S
C1189 C1190 1.363 . S
C1189 H1192 0.929 . S
C1190 C1189 1.363 . S
C1190 C1196 1.428 . S
H1191 C1187 0.930 . S
H1192 C1189 0.929 . S
S1193 N1194 1.613 . S
S1193 N1195 1.610 1_455 S
N1194 S1193 1.613 . S
N1194 C1197 1.350 . S
N1195 S1193 1.610 1_655 S
N1195 C1196 1.351 . S
C1196 C1190 1.428 . S
C1196 N1195 1.351 . S
C1196 C1197 1.434 1_655 S
C1197 C1188 1.429 . S
C1197 N1194 1.350 . S
C1197 C1196 1.434 1_455 S
C1198 C1199 1.369 . S
C1198 C1200 1.419 . S
C1198 H1202 0.930 . S
C1199 C1198 1.369 . S
C1199 C1208 1.429 . S
C1200 C1198 1.419 . S
C1200 C1201 1.363 . S
C1200 H1203 0.929 . S
C1201 C1200 1.363 . S
C1201 C1207 1.428 . S
H1202 C1198 0.930 . S
H1203 C1200 0.929 . S
S1204 N1205 1.613 . S
S1204 N1206 1.610 . S
N1205 S1204 1.613 . S
N1205 C1208 1.350 . S
N1206 S1204 1.610 . S
N1206 C1207 1.351 . S
C1207 C1201 1.428 . S
C1207 N1206 1.351 . S
C1207 C1208 1.434 . S
C1208 C1199 1.429 . S
C1208 N1205 1.350 . S
C1208 C1207 1.434 . S
C1209 C1210 1.369 . S
C1209 C1211 1.419 1_655 S
C1209 H1213 0.930 . S
C1210 C1209 1.369 . S
C1210 C1219 1.429 . S
C1211 C1209 1.419 1_455 S
C1211 C1212 1.363 . S
C1211 H1214 0.929 . S
C1212 C1211 1.363 . S
C1212 C1218 1.428 . S
H1213 C1209 0.930 . S
H1214 C1211 0.929 . S
S1215 N1216 1.613 . S
S1215 N1217 1.610 1_655 S
N1216 S1215 1.613 . S
N1216 C1219 1.350 . S
N1217 S1215 1.610 1_455 S
N1217 C1218 1.351 . S
C1218 C1212 1.428 . S
C1218 N1217 1.351 . S
C1218 C1219 1.434 1_455 S
C1219 C1210 1.429 . S
C1219 N1216 1.350 . S
C1219 C1218 1.434 1_655 S
C1220 C1221 1.369 . S
C1220 C1222 1.419 . S
C1220 H1224 0.930 . S
C1221 C1220 1.369 . S
C1221 C1230 1.429 . S
C1222 C1220 1.419 . S
C1222 C1223 1.363 . S
C1222 H1225 0.929 . S
C1223 C1222 1.363 . S
C1223 C1229 1.428 . S
H1224 C1220 0.930 . S
H1225 C1222 0.929 . S
S1226 N1227 1.613 . S
S1226 N1228 1.610 . S
N1227 S1226 1.613 . S
N1227 C1230 1.350 . S
N1228 S1226 1.610 . S
N1228 C1229 1.351 . S
C1229 C1223 1.428 . S
C1229 N1228 1.351 . S
C1229 C1230 1.434 . S
C1230 C1221 1.429 . S
C1230 N1227 1.350 . S
C1230 C1229 1.434 . S
C1231 C1232 1.369 1_655 S
C1231 C1233 1.419 . S
C1231 H1235 0.930 . S
C1232 C1231 1.369 1_455 S
C1232 C1241 1.429 . S
C1233 C1231 1.419 . S
C1233 C1234 1.363 . S
C1233 H1236 0.929 . S
C1234 C1233 1.363 . S
C1234 C1240 1.428 . S
H1235 C1231 0.930 . S
H1236 C1233 0.929 . S
S1237 N1238 1.613 . S
S1237 N1239 1.610 . S
N1238 S1237 1.613 . S
N1238 C1241 1.350 . S
N1239 S1237 1.610 . S
N1239 C1240 1.351 1_455 S
C1240 C1234 1.428 . S
C1240 N1239 1.351 1_655 S
C1240 C1241 1.434 1_655 S
C1241 C1232 1.429 . S
C1241 N1238 1.350 . S
C1241 C1240 1.434 1_455 S
C1242 C1243 1.369 . S
C1242 C1244 1.419 . S
C1242 H1246 0.930 . S
C1243 C1242 1.369 . S
C1243 C1252 1.429 . S
C1244 C1242 1.419 . S
C1244 C1245 1.363 . S
C1244 H1247 0.929 . S
C1245 C1244 1.363 . S
C1245 C1251 1.428 . S
H1246 C1242 0.930 . S
H1247 C1244 0.929 . S
S1248 N1249 1.613 . S
S1248 N1250 1.610 . S
N1249 S1248 1.613 . S
N1249 C1252 1.350 . S
N1250 S1248 1.610 . S
N1250 C1251 1.351 . S
C1251 C1245 1.428 . S
C1251 N1250 1.351 . S
C1251 C1252 1.434 . S
C1252 C1243 1.429 . S
C1252 N1249 1.350 . S
C1252 C1251 1.434 . S
C1253 C1254 1.369 . S
C1253 C1255 1.419 1_655 S
C1253 H1257 0.930 . S
C1254 C1253 1.369 . S
C1254 C1263 1.429 . S
C1255 C1253 1.419 1_455 S
C1255 C1256 1.363 . S
C1255 H1258 0.929 . S
C1256 C1255 1.363 . S
C1256 C1262 1.428 1_455 S
H1257 C1253 0.930 . S
H1258 C1255 0.929 . S
S1259 N1260 1.613 . S
S1259 N1261 1.610 . S
N1260 S1259 1.613 . S
N1260 C1263 1.350 . S
N1261 S1259 1.610 . S
N1261 C1262 1.351 . S
C1262 C1256 1.428 1_655 S
C1262 N1261 1.351 . S
C1262 C1263 1.434 . S
C1263 C1254 1.429 . S
C1263 N1260 1.350 . S
C1263 C1262 1.434 . S
C1264 C1265 1.369 . S
C1264 C1266 1.419 . S
C1264 H1268 0.930 . S
C1265 C1264 1.369 . S
C1265 C1274 1.429 1_565 S
C1266 C1264 1.419 . S
C1266 C1267 1.363 1_565 S
C1266 H1269 0.929 . S
C1267 C1266 1.363 1_545 S
C1267 C1273 1.428 . S
H1268 C1264 0.930 . S
H1269 C1266 0.929 . S
S1270 N1271 1.613 . S
S1270 N1272 1.610 . S
N1271 S1270 1.613 . S
N1271 C1274 1.350 . S
N1272 S1270 1.610 . S
N1272 C1273 1.351 . S
C1273 C1267 1.428 . S
C1273 N1272 1.351 . S
C1273 C1274 1.434 . S
C1274 C1265 1.429 1_545 S
C1274 N1271 1.350 . S
C1274 C1273 1.434 . S
C1275 C1276 1.369 . S
C1275 C1277 1.419 . S
C1275 H1279 0.930 . S
C1276 C1275 1.369 . S
C1276 C1285 1.429 . S
C1277 C1275 1.419 . S
C1277 C1278 1.363 . S
C1277 H1280 0.929 . S
C1278 C1277 1.363 . S
C1278 C1284 1.428 . S
H1279 C1275 0.930 . S
H1280 C1277 0.929 . S
S1281 N1282 1.613 . S
S1281 N1283 1.610 . S
N1282 S1281 1.613 . S
N1282 C1285 1.350 . S
N1283 S1281 1.610 . S
N1283 C1284 1.351 . S
C1284 C1278 1.428 . S
C1284 N1283 1.351 . S
C1284 C1285 1.434 . S
C1285 C1276 1.429 . S
C1285 N1282 1.350 . S
C1285 C1284 1.434 . S
C1286 C1287 1.369 . S
C1286 C1288 1.419 . S
C1286 H1290 0.930 . S
C1287 C1286 1.369 . S
C1287 C1296 1.429 . S
C1288 C1286 1.419 . S
C1288 C1289 1.363 . S
C1288 H1291 0.929 . S
C1289 C1288 1.363 . S
C1289 C1295 1.428 . S
H1290 C1286 0.930 . S
H1291 C1288 0.929 . S
S1292 N1293 1.613 . S
S1292 N1294 1.610 . S
N1293 S1292 1.613 . S
N1293 C1296 1.350 . S
N1294 S1292 1.610 . S
N1294 C1295 1.351 . S
C1295 C1289 1.428 . S
C1295 N1294 1.351 . S
C1295 C1296 1.434 . S
C1296 C1287 1.429 . S
C1296 N1293 1.350 . S
C1296 C1295 1.434 . S
C1297 C1298 1.369 . S
C1297 C1299 1.419 . S
C1297 H1301 0.930 . S
C1298 C1297 1.369 . S
C1298 C1307 1.429 1_565 S
C1299 C1297 1.419 . S
C1299 C1300 1.363 1_565 S
C1299 H1302 0.929 . S
C1300 C1299 1.363 1_545 S
C1300 C1306 1.428 . S
H1301 C1297 0.930 . S
H1302 C1299 0.929 . S
S1303 N1304 1.613 . S
S1303 N1305 1.610 . S
N1304 S1303 1.613 . S
N1304 C1307 1.350 . S
N1305 S1303 1.610 . S
N1305 C1306 1.351 . S
C1306 C1300 1.428 . S
C1306 N1305 1.351 . S
C1306 C1307 1.434 . S
C1307 C1298 1.429 1_545 S
C1307 N1304 1.350 . S
C1307 C1306 1.434 . S
C1308 C1309 1.369 1_565 S
C1308 C1310 1.419 . S
C1308 H1312 0.930 . S
C1309 C1308 1.369 1_545 S
C1309 C1318 1.429 . S
C1310 C1308 1.419 . S
C1310 C1311 1.363 . S
C1310 H1313 0.929 . S
C1311 C1310 1.363 . S
C1311 C1317 1.428 1_565 S
H1312 C1308 0.930 . S
H1313 C1310 0.929 . S
S1314 N1315 1.613 . S
S1314 N1316 1.610 . S
N1315 S1314 1.613 . S
N1315 C1318 1.350 . S
N1316 S1314 1.610 . S
N1316 C1317 1.351 . S
C1317 C1311 1.428 1_545 S
C1317 N1316 1.351 . S
C1317 C1318 1.434 . S
C1318 C1309 1.429 . S
C1318 N1315 1.350 . S
C1318 C1317 1.434 . S
C1319 C1320 1.369 . S
C1319 C1321 1.419 . S
C1319 H1323 0.930 . S
C1320 C1319 1.369 . S
C1320 C1329 1.429 . S
C1321 C1319 1.419 . S
C1321 C1322 1.363 . S
C1321 H1324 0.929 . S
C1322 C1321 1.363 . S
C1322 C1328 1.428 . S
H1323 C1319 0.930 . S
H1324 C1321 0.929 . S
S1325 N1326 1.613 . S
S1325 N1327 1.610 . S
N1326 S1325 1.613 . S
N1326 C1329 1.350 . S
N1327 S1325 1.610 . S
N1327 C1328 1.351 . S
C1328 C1322 1.428 . S
C1328 N1327 1.351 . S
C1328 C1329 1.434 . S
C1329 C1320 1.429 . S
C1329 N1326 1.350 . S
C1329 C1328 1.434 . S
C1330 C1331 1.369 . S
C1330 C1332 1.419 . S
C1330 H1334 0.930 . S
C1331 C1330 1.369 . S
C1331 C1340 1.429 . S
C1332 C1330 1.419 . S
C1332 C1333 1.363 . S
C1332 H1335 0.929 . S
C1333 C1332 1.363 . S
C1333 C1339 1.428 . S
H1334 C1330 0.930 . S
H1335 C1332 0.929 . S
S1336 N1337 1.613 . S
S1336 N1338 1.610 . S
N1337 S1336 1.613 . S
N1337 C1340 1.350 . S
N1338 S1336 1.610 . S
N1338 C1339 1.351 . S
C1339 C1333 1.428 . S
C1339 N1338 1.351 . S
C1339 C1340 1.434 . S
C1340 C1331 1.429 . S
C1340 N1337 1.350 . S
C1340 C1339 1.434 . S
C1341 C1342 1.369 . S
C1341 C1343 1.419 . S
C1341 H1345 0.930 . S
C1342 C1341 1.369 . S
C1342 C1351 1.429 1_545 S
C1343 C1341 1.419 . S
C1343 C1344 1.363 1_545 S
C1343 H1346 0.929 . S
C1344 C1343 1.363 1_565 S
C1344 C1350 1.428 . S
H1345 C1341 0.930 . S
H1346 C1343 0.929 . S
S1347 N1348 1.613 . S
S1347 N1349 1.610 . S
N1348 S1347 1.613 . S
N1348 C1351 1.350 . S
N1349 S1347 1.610 . S
N1349 C1350 1.351 . S
C1350 C1344 1.428 . S
C1350 N1349 1.351 . S
C1350 C1351 1.434 . S
C1351 C1342 1.429 1_565 S
C1351 N1348 1.350 . S
C1351 C1350 1.434 . S
C1352 C1353 1.369 . S
C1352 C1354 1.419 . S
C1352 H1356 0.930 . S
C1353 C1352 1.369 . S
C1353 C1362 1.429 . S
C1354 C1352 1.419 . S
C1354 C1355 1.363 . S
C1354 H1357 0.929 . S
C1355 C1354 1.363 . S
C1355 C1361 1.428 . S
H1356 C1352 0.930 . S
H1357 C1354 0.929 . S
S1358 N1359 1.613 . S
S1358 N1360 1.610 . S
N1359 S1358 1.613 . S
N1359 C1362 1.350 . S
N1360 S1358 1.610 . S
N1360 C1361 1.351 . S
C1361 C1355 1.428 . S
C1361 N1360 1.351 . S
C1361 C1362 1.434 . S
C1362 C1353 1.429 . S
C1362 N1359 1.350 . S
C1362 C1361 1.434 . S
C1363 C1364 1.369 . S
C1363 C1365 1.419 . S
C1363 H1367 0.930 . S
C1364 C1363 1.369 . S
C1364 C1373 1.429 . S
C1365 C1363 1.419 . S
C1365 C1366 1.363 . S
C1365 H1368 0.929 . S
C1366 C1365 1.363 . S
C1366 C1372 1.428 . S
H1367 C1363 0.930 . S
H1368 C1365 0.929 . S
S1369 N1370 1.613 . S
S1369 N1371 1.610 . S
N1370 S1369 1.613 . S
N1370 C1373 1.350 . S
N1371 S1369 1.610 . S
N1371 C1372 1.351 . S
C1372 C1366 1.428 . S
C1372 N1371 1.351 . S
C1372 C1373 1.434 . S
C1373 C1364 1.429 . S
C1373 N1370 1.350 . S
C1373 C1372 1.434 . S
C1374 C1375 1.369 . S
C1374 C1376 1.419 . S
C1374 H1378 0.930 . S
C1375 C1374 1.369 . S
C1375 C1384 1.429 . S
C1376 C1374 1.419 . S
C1376 C1377 1.363 . S
C1376 H1379 0.929 . S
C1377 C1376 1.363 . S
C1377 C1383 1.428 . S
H1378 C1374 0.930 . S
H1379 C1376 0.929 . S
S1380 N1381 1.613 . S
S1380 N1382 1.610 . S
N1381 S1380 1.613 . S
N1381 C1384 1.350 . S
N1382 S1380 1.610 . S
N1382 C1383 1.351 . S
C1383 C1377 1.428 . S
C1383 N1382 1.351 . S
C1383 C1384 1.434 . S
C1384 C1375 1.429 . S
C1384 N1381 1.350 . S
C1384 C1383 1.434 . S
C1385 C1386 1.369 . S
C1385 C1387 1.419 . S
C1385 H1389 0.930 . S
C1386 C1385 1.369 . S
C1386 C1395 1.429 . S
C1387 C1385 1.419 . S
C1387 C1388 1.363 . S
C1387 H1390 0.929 . S
C1388 C1387 1.363 . S
C1388 C1394 1.428 . S
H1389 C1385 0.930 . S
H1390 C1387 0.929 . S
S1391 N1392 1.613 . S
S1391 N1393 1.610 . S
N1392 S1391 1.613 . S
N1392 C1395 1.350 . S
N1393 S1391 1.610 . S
N1393 C1394 1.351 . S
C1394 C1388 1.428 . S
C1394 N1393 1.351 . S
C1394 C1395 1.434 . S
C1395 C1386 1.429 . S
C1395 N1392 1.350 . S
C1395 C1394 1.434 . S
C1396 C1397 1.369 . S
C1396 C1398 1.419 . S
C1396 H1400 0.930 . S
C1397 C1396 1.369 . S
C1397 C1406 1.429 . S
C1398 C1396 1.419 . S
C1398 C1399 1.363 . S
C1398 H1401 0.929 . S
C1399 C1398 1.363 . S
C1399 C1405 1.428 . S
H1400 C1396 0.930 . S
H1401 C1398 0.929 . S
S1402 N1403 1.613 1_556 S
S1402 N1404 1.610 . S
N1403 S1402 1.613 1_554 S
N1403 C1406 1.350 . S
N1404 S1402 1.610 . S
N1404 C1405 1.351 1_556 S
C1405 C1399 1.428 . S
C1405 N1404 1.351 1_554 S
C1405 C1406 1.434 . S
C1406 C1397 1.429 . S
C1406 N1403 1.350 . S
C1406 C1405 1.434 . S
C1407 C1408 1.369 . S
C1407 C1409 1.419 . S
C1407 H1411 0.930 . S
C1408 C1407 1.369 . S
C1408 C1417 1.429 . S
C1409 C1407 1.419 . S
C1409 C1410 1.363 . S
C1409 H1412 0.929 . S
C1410 C1409 1.363 . S
C1410 C1416 1.428 . S
H1411 C1407 0.930 . S
H1412 C1409 0.929 . S
S1413 N1414 1.613 1_556 S
S1413 N1415 1.610 . S
N1414 S1413 1.613 1_554 S
N1414 C1417 1.350 . S
N1415 S1413 1.610 . S
N1415 C1416 1.351 1_556 S
C1416 C1410 1.428 . S
C1416 N1415 1.351 1_554 S
C1416 C1417 1.434 . S
C1417 C1408 1.429 . S
C1417 N1414 1.350 . S
C1417 C1416 1.434 . S
C1418 C1419 1.369 . S
C1418 C1420 1.419 . S
C1418 H1422 0.930 . S
C1419 C1418 1.369 . S
C1419 C1428 1.429 . S
C1420 C1418 1.419 . S
C1420 C1421 1.363 . S
C1420 H1423 0.929 . S
C1421 C1420 1.363 . S
C1421 C1427 1.428 . S
H1422 C1418 0.930 . S
H1423 C1420 0.929 . S
S1424 N1425 1.613 . S
S1424 N1426 1.610 . S
N1425 S1424 1.613 . S
N1425 C1428 1.350 . S
N1426 S1424 1.610 . S
N1426 C1427 1.351 . S
C1427 C1421 1.428 . S
C1427 N1426 1.351 . S
C1427 C1428 1.434 . S
C1428 C1419 1.429 . S
C1428 N1425 1.350 . S
C1428 C1427 1.434 . S
C1429 C1430 1.369 . S
C1429 C1431 1.419 . S
C1429 H1433 0.930 . S
C1430 C1429 1.369 . S
C1430 C1439 1.429 . S
C1431 C1429 1.419 . S
C1431 C1432 1.363 . S
C1431 H1434 0.929 . S
C1432 C1431 1.363 . S
C1432 C1438 1.428 . S
H1433 C1429 0.930 . S
H1434 C1431 0.929 . S
S1435 N1436 1.613 . S
S1435 N1437 1.610 . S
N1436 S1435 1.613 . S
N1436 C1439 1.350 . S
N1437 S1435 1.610 . S
N1437 C1438 1.351 . S
C1438 C1432 1.428 . S
C1438 N1437 1.351 . S
C1438 C1439 1.434 . S
C1439 C1430 1.429 . S
C1439 N1436 1.350 . S
C1439 C1438 1.434 . S
C1440 C1441 1.369 . S
C1440 C1442 1.419 . S
C1440 H1444 0.930 . S
C1441 C1440 1.369 . S
C1441 C1450 1.429 . S
C1442 C1440 1.419 . S
C1442 C1443 1.363 . S
C1442 H1445 0.929 . S
C1443 C1442 1.363 . S
C1443 C1449 1.428 . S
H1444 C1440 0.930 . S
H1445 C1442 0.929 . S
S1446 N1447 1.613 . S
S1446 N1448 1.610 . S
N1447 S1446 1.613 . S
N1447 C1450 1.350 . S
N1448 S1446 1.610 . S
N1448 C1449 1.351 . S
C1449 C1443 1.428 . S
C1449 N1448 1.351 . S
C1449 C1450 1.434 . S
C1450 C1441 1.429 . S
C1450 N1447 1.350 . S
C1450 C1449 1.434 . S
C1451 C1452 1.369 . S
C1451 C1453 1.419 . S
C1451 H1455 0.930 . S
C1452 C1451 1.369 . S
C1452 C1461 1.429 . S
C1453 C1451 1.419 . S
C1453 C1454 1.363 . S
C1453 H1456 0.929 . S
C1454 C1453 1.363 . S
C1454 C1460 1.428 . S
H1455 C1451 0.930 . S
H1456 C1453 0.929 . S
S1457 N1458 1.613 . S
S1457 N1459 1.610 . S
N1458 S1457 1.613 . S
N1458 C1461 1.350 . S
N1459 S1457 1.610 . S
N1459 C1460 1.351 . S
C1460 C1454 1.428 . S
C1460 N1459 1.351 . S
C1460 C1461 1.434 . S
C1461 C1452 1.429 . S
C1461 N1458 1.350 . S
C1461 C1460 1.434 . S
C1462 C1463 1.369 . S
C1462 C1464 1.419 . S
C1462 H1466 0.930 . S
C1463 C1462 1.369 . S
C1463 C1472 1.429 . S
C1464 C1462 1.419 . S
C1464 C1465 1.363 . S
C1464 H1467 0.929 . S
C1465 C1464 1.363 . S
C1465 C1471 1.428 . S
H1466 C1462 0.930 . S
H1467 C1464 0.929 . S
S1468 N1469 1.613 . S
S1468 N1470 1.610 . S
N1469 S1468 1.613 . S
N1469 C1472 1.350 . S
N1470 S1468 1.610 . S
N1470 C1471 1.351 . S
C1471 C1465 1.428 . S
C1471 N1470 1.351 . S
C1471 C1472 1.434 . S
C1472 C1463 1.429 . S
C1472 N1469 1.350 . S
C1472 C1471 1.434 . S
C1473 C1474 1.369 . S
C1473 C1475 1.419 . S
C1473 H1477 0.930 . S
C1474 C1473 1.369 . S
C1474 C1483 1.429 . S
C1475 C1473 1.419 . S
C1475 C1476 1.363 . S
C1475 H1478 0.929 . S
C1476 C1475 1.363 . S
C1476 C1482 1.428 . S
H1477 C1473 0.930 . S
H1478 C1475 0.929 . S
S1479 N1480 1.613 . S
S1479 N1481 1.610 . S
N1480 S1479 1.613 . S
N1480 C1483 1.350 . S
N1481 S1479 1.610 . S
N1481 C1482 1.351 . S
C1482 C1476 1.428 . S
C1482 N1481 1.351 . S
C1482 C1483 1.434 . S
C1483 C1474 1.429 . S
C1483 N1480 1.350 . S
C1483 C1482 1.434 . S
C1484 C1485 1.369 . S
C1484 C1486 1.419 . S
C1484 H1488 0.930 . S
C1485 C1484 1.369 . S
C1485 C1494 1.429 . S
C1486 C1484 1.419 . S
C1486 C1487 1.363 . S
C1486 H1489 0.929 . S
C1487 C1486 1.363 . S
C1487 C1493 1.428 . S
H1488 C1484 0.930 . S
H1489 C1486 0.929 . S
S1490 N1491 1.613 . S
S1490 N1492 1.610 . S
N1491 S1490 1.613 . S
N1491 C1494 1.350 . S
N1492 S1490 1.610 . S
N1492 C1493 1.351 . S
C1493 C1487 1.428 . S
C1493 N1492 1.351 . S
C1493 C1494 1.434 . S
C1494 C1485 1.429 . S
C1494 N1491 1.350 . S
C1494 C1493 1.434 . S
C1495 C1496 1.369 . S
C1495 C1497 1.419 . S
C1495 H1499 0.930 . S
C1496 C1495 1.369 . S
C1496 C1505 1.429 . S
C1497 C1495 1.419 . S
C1497 C1498 1.363 . S
C1497 H1500 0.929 . S
C1498 C1497 1.363 . S
C1498 C1504 1.428 . S
H1499 C1495 0.930 . S
H1500 C1497 0.929 . S
S1501 N1502 1.613 . S
S1501 N1503 1.610 . S
N1502 S1501 1.613 . S
N1502 C1505 1.350 . S
N1503 S1501 1.610 . S
N1503 C1504 1.351 . S
C1504 C1498 1.428 . S
C1504 N1503 1.351 . S
C1504 C1505 1.434 . S
C1505 C1496 1.429 . S
C1505 N1502 1.350 . S
C1505 C1504 1.434 . S
C1506 C1507 1.369 . S
C1506 C1508 1.419 . S
C1506 H1510 0.930 . S
C1507 C1506 1.369 . S
C1507 C1516 1.429 . S
C1508 C1506 1.419 . S
C1508 C1509 1.363 . S
C1508 H1511 0.929 . S
C1509 C1508 1.363 . S
C1509 C1515 1.428 . S
H1510 C1506 0.930 . S
H1511 C1508 0.929 . S
S1512 N1513 1.613 . S
S1512 N1514 1.610 . S
N1513 S1512 1.613 . S
N1513 C1516 1.350 . S
N1514 S1512 1.610 . S
N1514 C1515 1.351 . S
C1515 C1509 1.428 . S
C1515 N1514 1.351 . S
C1515 C1516 1.434 . S
C1516 C1507 1.429 . S
C1516 N1513 1.350 . S
C1516 C1515 1.434 . S
C1517 C1518 1.369 . S
C1517 C1519 1.419 . S
C1517 H1521 0.930 . S
C1518 C1517 1.369 . S
C1518 C1527 1.429 . S
C1519 C1517 1.419 . S
C1519 C1520 1.363 . S
C1519 H1522 0.929 . S
C1520 C1519 1.363 . S
C1520 C1526 1.428 . S
H1521 C1517 0.930 . S
H1522 C1519 0.929 . S
S1523 N1524 1.613 . S
S1523 N1525 1.610 . S
N1524 S1523 1.613 . S
N1524 C1527 1.350 . S
N1525 S1523 1.610 . S
N1525 C1526 1.351 . S
C1526 C1520 1.428 . S
C1526 N1525 1.351 . S
C1526 C1527 1.434 . S
C1527 C1518 1.429 . S
C1527 N1524 1.350 . S
C1527 C1526 1.434 . S
C1528 C1529 1.369 . S
C1528 C1530 1.419 . S
C1528 H1532 0.930 . S
C1529 C1528 1.369 . S
C1529 C1538 1.429 . S
C1530 C1528 1.419 . S
C1530 C1531 1.363 . S
C1530 H1533 0.929 . S
C1531 C1530 1.363 . S
C1531 C1537 1.428 . S
H1532 C1528 0.930 . S
H1533 C1530 0.929 . S
S1534 N1535 1.613 . S
S1534 N1536 1.610 . S
N1535 S1534 1.613 . S
N1535 C1538 1.350 . S
N1536 S1534 1.610 . S
N1536 C1537 1.351 . S
C1537 C1531 1.428 . S
C1537 N1536 1.351 . S
C1537 C1538 1.434 . S
C1538 C1529 1.429 . S
C1538 N1535 1.350 . S
C1538 C1537 1.434 . S
C1539 C1540 1.369 . S
C1539 C1541 1.419 . S
C1539 H1543 0.930 . S
C1540 C1539 1.369 . S
C1540 C1549 1.429 . S
C1541 C1539 1.419 . S
C1541 C1542 1.363 . S
C1541 H1544 0.929 . S
C1542 C1541 1.363 . S
C1542 C1548 1.428 . S
H1543 C1539 0.930 . S
H1544 C1541 0.929 . S
S1545 N1546 1.613 . S
S1545 N1547 1.610 . S
N1546 S1545 1.613 . S
N1546 C1549 1.350 . S
N1547 S1545 1.610 . S
N1547 C1548 1.351 . S
C1548 C1542 1.428 . S
C1548 N1547 1.351 . S
C1548 C1549 1.434 . S
C1549 C1540 1.429 . S
C1549 N1546 1.350 . S
C1549 C1548 1.434 . S
C1550 C1551 1.369 . S
C1550 C1552 1.419 . S
C1550 H1554 0.930 . S
C1551 C1550 1.369 . S
C1551 C1560 1.429 . S
C1552 C1550 1.419 . S
C1552 C1553 1.363 . S
C1552 H1555 0.929 . S
C1553 C1552 1.363 . S
C1553 C1559 1.428 . S
H1554 C1550 0.930 . S
H1555 C1552 0.929 . S
S1556 N1557 1.613 . S
S1556 N1558 1.610 . S
N1557 S1556 1.613 . S
N1557 C1560 1.350 . S
N1558 S1556 1.610 . S
N1558 C1559 1.351 . S
C1559 C1553 1.428 . S
C1559 N1558 1.351 . S
C1559 C1560 1.434 . S
C1560 C1551 1.429 . S
C1560 N1557 1.350 . S
C1560 C1559 1.434 . S
C1561 C1562 1.369 . S
C1561 C1563 1.419 . S
C1561 H1565 0.930 . S
C1562 C1561 1.369 . S
C1562 C1571 1.429 . S
C1563 C1561 1.419 . S
C1563 C1564 1.363 . S
C1563 H1566 0.929 . S
C1564 C1563 1.363 . S
C1564 C1570 1.428 . S
H1565 C1561 0.930 . S
H1566 C1563 0.929 . S
S1567 N1568 1.613 . S
S1567 N1569 1.610 . S
N1568 S1567 1.613 . S
N1568 C1571 1.350 . S
N1569 S1567 1.610 . S
N1569 C1570 1.351 . S
C1570 C1564 1.428 . S
C1570 N1569 1.351 . S
C1570 C1571 1.434 . S
C1571 C1562 1.429 . S
C1571 N1568 1.350 . S
C1571 C1570 1.434 . S
C1572 C1573 1.369 . S
C1572 C1574 1.419 . S
C1572 H1576 0.930 . S
C1573 C1572 1.369 . S
C1573 C1582 1.429 . S
C1574 C1572 1.419 . S
C1574 C1575 1.363 . S
C1574 H1577 0.929 . S
C1575 C1574 1.363 . S
C1575 C1581 1.428 . S
H1576 C1572 0.930 . S
H1577 C1574 0.929 . S
S1578 N1579 1.613 . S
S1578 N1580 1.610 . S
N1579 S1578 1.613 . S
N1579 C1582 1.350 . S
N1580 S1578 1.610 . S
N1580 C1581 1.351 . S
C1581 C1575 1.428 . S
C1581 N1580 1.351 . S
C1581 C1582 1.434 . S
C1582 C1573 1.429 . S
C1582 N1579 1.350 . S
C1582 C1581 1.434 . S
C1583 C1584 1.369 . S
C1583 C1585 1.419 . S
C1583 H1587 0.930 . S
C1584 C1583 1.369 . S
C1584 C1593 1.429 . S
C1585 C1583 1.419 . S
C1585 C1586 1.363 . S
C1585 H1588 0.929 . S
C1586 C1585 1.363 . S
C1586 C1592 1.428 . S
H1587 C1583 0.930 . S
H1588 C1585 0.929 . S
S1589 N1590 1.613 . S
S1589 N1591 1.610 . S
N1590 S1589 1.613 . S
N1590 C1593 1.350 . S
N1591 S1589 1.610 . S
N1591 C1592 1.351 . S
C1592 C1586 1.428 . S
C1592 N1591 1.351 . S
C1592 C1593 1.434 . S
C1593 C1584 1.429 . S
C1593 N1590 1.350 . S
C1593 C1592 1.434 . S
C1594 C1595 1.369 . S
C1594 C1596 1.419 . S
C1594 H1598 0.930 . S
C1595 C1594 1.369 . S
C1595 C1604 1.429 . S
C1596 C1594 1.419 . S
C1596 C1597 1.363 . S
C1596 H1599 0.929 . S
C1597 C1596 1.363 . S
C1597 C1603 1.428 . S
H1598 C1594 0.930 . S
H1599 C1596 0.929 . S
S1600 N1601 1.613 . S
S1600 N1602 1.610 . S
N1601 S1600 1.613 . S
N1601 C1604 1.350 . S
N1602 S1600 1.610 . S
N1602 C1603 1.351 . S
C1603 C1597 1.428 . S
C1603 N1602 1.351 . S
C1603 C1604 1.434 . S
C1604 C1595 1.429 . S
C1604 N1601 1.350 . S
C1604 C1603 1.434 . S
C1605 C1606 1.369 . S
C1605 C1607 1.419 . S
C1605 H1609 0.930 . S
C1606 C1605 1.369 . S
C1606 C1615 1.429 . S
C1607 C1605 1.419 . S
C1607 C1608 1.363 . S
C1607 H1610 0.929 . S
C1608 C1607 1.363 . S
C1608 C1614 1.428 . S
H1609 C1605 0.930 . S
H1610 C1607 0.929 . S
S1611 N1612 1.613 . S
S1611 N1613 1.610 . S
N1612 S1611 1.613 . S
N1612 C1615 1.350 . S
N1613 S1611 1.610 . S
N1613 C1614 1.351 . S
C1614 C1608 1.428 . S
C1614 N1613 1.351 . S
C1614 C1615 1.434 . S
C1615 C1606 1.429 . S
C1615 N1612 1.350 . S
C1615 C1614 1.434 . S
C1616 C1617 1.362 1_565 S
C1616 C1618 1.419 . S
C1616 H1620 0.930 . S
C1617 C1616 1.362 1_545 S
C1617 C1626 1.437 . S
C1618 C1616 1.419 . S
C1618 C1619 1.367 . S
C1618 H1621 0.929 . S
C1619 C1618 1.367 . S
C1619 C1625 1.423 1_565 S
H1620 C1616 0.930 . S
H1621 C1618 0.929 . S
S1622 N1623 1.613 . S
S1622 N1624 1.610 . S
N1623 S1622 1.613 . S
N1623 C1626 1.350 . S
N1624 S1622 1.610 . S
N1624 C1625 1.351 . S
C1625 C1619 1.423 1_545 S
C1625 N1624 1.351 . S
C1625 C1626 1.434 . S
C1626 C1617 1.437 . S
C1626 N1623 1.350 . S
C1626 C1625 1.434 . S
C1627 C1628 1.369 . S
C1627 C1629 1.419 . S
C1627 H1631 0.930 . S
C1628 C1627 1.369 . S
C1628 C1637 1.429 1_455 S
C1629 C1627 1.419 . S
C1629 C1630 1.363 1_455 S
C1629 H1632 0.929 . S
C1630 C1629 1.363 1_655 S
C1630 C1636 1.428 . S
H1631 C1627 0.930 . S
H1632 C1629 0.929 . S
S1633 N1634 1.613 . S
S1633 N1635 1.610 . S
N1634 S1633 1.613 . S
N1634 C1637 1.350 . S
N1635 S1633 1.610 . S
N1635 C1636 1.351 . S
C1636 C1630 1.428 . S
C1636 N1635 1.351 . S
C1636 C1637 1.434 . S
C1637 C1628 1.429 1_655 S
C1637 N1634 1.350 . S
C1637 C1636 1.434 . S
C1638 C1639 1.369 . S
C1638 C1640 1.419 1_556 S
C1638 H1642 0.930 . S
C1639 C1638 1.369 . S
C1639 C1648 1.438 . S
C1640 C1638 1.419 1_554 S
C1640 C1641 1.363 . S
C1640 H1643 0.929 . S
C1641 C1640 1.363 . S
C1641 C1647 1.428 . S
H1642 C1638 0.930 . S
H1643 C1640 0.929 . S
S1644 N1645 1.613 . S
S1644 N1646 1.610 . S
N1645 S1644 1.613 . S
N1645 C1648 1.349 1_554 S
N1646 S1644 1.610 . S
N1646 C1647 1.351 . S
C1647 C1641 1.428 . S
C1647 N1646 1.351 . S
C1647 C1648 1.425 1_554 S
C1648 C1639 1.438 . S
C1648 N1645 1.349 1_556 S
C1648 C1647 1.425 1_556 S
C1649 C1650 1.381 . S
C1649 C1651 1.429 1_554 S
C1649 H1653 0.930 . S
C1650 C1649 1.381 . S
C1650 C1659 1.392 1_665 S
C1651 C1649 1.429 1_556 S
C1651 C1652 1.320 1_665 S
C1651 H1654 0.930 . S
C1652 C1651 1.320 1_445 S
C1652 C1658 1.461 . S
H1653 C1649 0.930 . S
H1654 C1651 0.930 . S
S1655 N1656 1.613 . S
S1655 N1657 1.610 . S
N1656 S1655 1.613 . S
N1656 C1659 1.354 . S
N1657 S1655 1.610 . S
N1657 C1658 1.351 1_554 S
C1658 C1652 1.461 . S
C1658 N1657 1.351 1_556 S
C1658 C1659 1.457 1_556 S
C1659 C1650 1.392 1_445 S
C1659 N1656 1.354 . S
C1659 C1658 1.457 1_554 S
C1660 C1661 1.330 1_565 S
C1660 C1662 1.419 . S
C1660 H1664 0.930 . S
C1661 C1660 1.330 1_545 S
C1661 C1670 1.468 . S
C1662 C1660 1.419 . S
C1662 C1663 1.379 . S
C1662 H1665 0.929 . S
C1663 C1662 1.379 . S
C1663 C1669 1.412 1_565 S
H1664 C1660 0.930 . S
H1665 C1662 0.929 . S
S1666 N1667 1.613 . S
S1666 N1668 1.610 . S
N1667 S1666 1.613 . S
N1667 C1670 1.350 . S
N1668 S1666 1.610 . S
N1668 C1669 1.351 . S
C1669 C1663 1.412 1_545 S
C1669 N1668 1.351 . S
C1669 C1670 1.434 . S
C1670 C1661 1.468 . S
C1670 N1667 1.350 . S
C1670 C1669 1.434 . S
C1671 C1672 1.369 1_655 S
C1671 C1673 1.419 . S
C1671 H1675 0.930 . S
C1672 C1671 1.369 1_455 S
C1672 C1681 1.429 . S
C1673 C1671 1.419 . S
C1673 C1674 1.363 . S
C1673 H1676 0.929 . S
C1674 C1673 1.363 . S
C1674 C1680 1.428 1_655 S
H1675 C1671 0.930 . S
H1676 C1673 0.929 . S
S1677 N1678 1.613 . S
S1677 N1679 1.610 . S
N1678 S1677 1.613 . S
N1678 C1681 1.350 . S
N1679 S1677 1.610 . S
N1679 C1680 1.351 . S
C1680 C1674 1.428 1_455 S
C1680 N1679 1.351 . S
C1680 C1681 1.434 . S
C1681 C1672 1.429 . S
C1681 N1678 1.350 . S
C1681 C1680 1.434 . S
C1682 C1683 1.369 1_556 S
C1682 C1684 1.419 . S
C1682 H1686 0.930 . S
C1683 C1682 1.369 1_554 S
C1683 C1692 1.429 . S
C1684 C1682 1.419 . S
C1684 C1685 1.363 . S
C1684 H1687 0.929 . S
C1685 C1684 1.363 . S
C1685 C1691 1.428 1_556 S
H1686 C1682 0.930 . S
H1687 C1684 0.929 . S
S1688 N1689 1.613 . S
S1688 N1690 1.610 . S
N1689 S1688 1.613 . S
N1689 C1692 1.350 . S
N1690 S1688 1.610 . S
N1690 C1691 1.351 . S
C1691 C1685 1.428 1_554 S
C1691 N1690 1.351 . S
C1691 C1692 1.434 . S
C1692 C1683 1.429 . S
C1692 N1689 1.350 . S
C1692 C1691 1.434 . S
C1693 C1694 1.369 . S
C1693 C1695 1.419 . S
C1693 H1697 0.930 . S
C1694 C1693 1.369 . S
C1694 C1703 1.429 . S
C1695 C1693 1.419 . S
C1695 C1696 1.363 . S
C1695 H1698 0.929 . S
C1696 C1695 1.363 . S
C1696 C1702 1.428 . S
H1697 C1693 0.930 . S
H1698 C1695 0.929 . S
S1699 N1700 1.613 . S
S1699 N1701 1.610 . S
N1700 S1699 1.613 . S
N1700 C1703 1.350 . S
N1701 S1699 1.610 . S
N1701 C1702 1.351 . S
C1702 C1696 1.428 . S
C1702 N1701 1.351 . S
C1702 C1703 1.434 . S
C1703 C1694 1.429 . S
C1703 N1700 1.350 . S
C1703 C1702 1.434 . S
C1704 C1705 1.369 . S
C1704 C1706 1.419 . S
C1704 H1708 0.930 . S
C1705 C1704 1.369 . S
C1705 C1714 1.429 . S
C1706 C1704 1.419 . S
C1706 C1707 1.363 . S
C1706 H1709 0.929 . S
C1707 C1706 1.363 . S
C1707 C1713 1.428 . S
H1708 C1704 0.930 . S
H1709 C1706 0.929 . S
S1710 N1711 1.613 . S
S1710 N1712 1.610 . S
N1711 S1710 1.613 . S
N1711 C1714 1.350 . S
N1712 S1710 1.610 . S
N1712 C1713 1.351 . S
C1713 C1707 1.428 . S
C1713 N1712 1.351 . S
C1713 C1714 1.434 . S
C1714 C1705 1.429 . S
C1714 N1711 1.350 . S
C1714 C1713 1.434 . S
C1715 C1716 1.369 1_655 S
C1715 C1717 1.419 . S
C1715 H1719 0.930 . S
C1716 C1715 1.369 1_455 S
C1716 C1725 1.429 . S
C1717 C1715 1.419 . S
C1717 C1718 1.363 . S
C1717 H1720 0.929 . S
C1718 C1717 1.363 . S
C1718 C1724 1.428 1_655 S
H1719 C1715 0.930 . S
H1720 C1717 0.929 . S
S1721 N1722 1.613 . S
S1721 N1723 1.610 . S
N1722 S1721 1.613 . S
N1722 C1725 1.350 . S
N1723 S1721 1.610 . S
N1723 C1724 1.351 . S
C1724 C1718 1.428 1_455 S
C1724 N1723 1.351 . S
C1724 C1725 1.434 . S
C1725 C1716 1.429 . S
C1725 N1722 1.350 . S
C1725 C1724 1.434 . S
C1726 C1727 1.369 . S
C1726 C1728 1.419 . S
C1726 H1730 0.930 . S
C1727 C1726 1.369 . S
C1727 C1736 1.429 . S
C1728 C1726 1.419 . S
C1728 C1729 1.363 . S
C1728 H1731 0.929 . S
C1729 C1728 1.363 . S
C1729 C1735 1.428 . S
H1730 C1726 0.930 . S
H1731 C1728 0.929 . S
S1732 N1733 1.613 . S
S1732 N1734 1.610 . S
N1733 S1732 1.613 . S
N1733 C1736 1.350 . S
N1734 S1732 1.610 . S
N1734 C1735 1.351 . S
C1735 C1729 1.428 . S
C1735 N1734 1.351 . S
C1735 C1736 1.434 . S
C1736 C1727 1.429 . S
C1736 N1733 1.350 . S
C1736 C1735 1.434 . S
C1737 C1738 1.369 . S
C1737 C1739 1.419 . S
C1737 H1741 0.930 . S
C1738 C1737 1.369 . S
C1738 C1747 1.429 . S
C1739 C1737 1.419 . S
C1739 C1740 1.363 . S
C1739 H1742 0.929 . S
C1740 C1739 1.363 . S
C1740 C1746 1.428 . S
H1741 C1737 0.930 . S
H1742 C1739 0.929 . S
S1743 N1744 1.613 . S
S1743 N1745 1.610 . S
N1744 S1743 1.613 . S
N1744 C1747 1.350 . S
N1745 S1743 1.610 . S
N1745 C1746 1.351 . S
C1746 C1740 1.428 . S
C1746 N1745 1.351 . S
C1746 C1747 1.434 . S
C1747 C1738 1.429 . S
C1747 N1744 1.350 . S
C1747 C1746 1.434 . S
C1748 C1749 1.369 . S
C1748 C1750 1.419 . S
C1748 H1752 0.930 . S
C1749 C1748 1.369 . S
C1749 C1758 1.429 . S
C1750 C1748 1.419 . S
C1750 C1751 1.363 . S
C1750 H1753 0.929 . S
C1751 C1750 1.363 . S
C1751 C1757 1.428 . S
H1752 C1748 0.930 . S
H1753 C1750 0.929 . S
S1754 N1755 1.613 . S
S1754 N1756 1.610 . S
N1755 S1754 1.613 . S
N1755 C1758 1.350 . S
N1756 S1754 1.610 . S
N1756 C1757 1.351 . S
C1757 C1751 1.428 . S
C1757 N1756 1.351 . S
C1757 C1758 1.434 . S
C1758 C1749 1.429 . S
C1758 N1755 1.350 . S
C1758 C1757 1.434 . S
C1759 C1760 1.380 . S
C1759 C1761 1.419 . S
C1759 H1763 0.930 . S
C1760 C1759 1.380 . S
C1760 C1769 1.417 1_545 S
C1761 C1759 1.419 . S
C1761 C1762 1.334 1_545 S
C1761 H1764 0.929 . S
C1762 C1761 1.334 1_565 S
C1762 C1768 1.458 . S
H1763 C1759 0.930 . S
H1764 C1761 0.929 . S
S1765 N1766 1.613 . S
S1765 N1767 1.610 . S
N1766 S1765 1.613 . S
N1766 C1769 1.350 . S
N1767 S1765 1.610 . S
N1767 C1768 1.351 . S
C1768 C1762 1.458 . S
C1768 N1767 1.351 . S
C1768 C1769 1.434 . S
C1769 C1760 1.417 1_565 S
C1769 N1766 1.350 . S
C1769 C1768 1.434 . S
C1770 C1771 1.369 . S
C1770 C1772 1.419 . S
C1770 H1774 0.930 . S
C1771 C1770 1.369 . S
C1771 C1780 1.429 . S
C1772 C1770 1.419 . S
C1772 C1773 1.363 . S
C1772 H1775 0.929 . S
C1773 C1772 1.363 . S
C1773 C1779 1.428 . S
H1774 C1770 0.930 . S
H1775 C1772 0.929 . S
S1776 N1777 1.613 . S
S1776 N1778 1.610 . S
N1777 S1776 1.613 . S
N1777 C1780 1.350 . S
N1778 S1776 1.610 . S
N1778 C1779 1.351 . S
C1779 C1773 1.428 . S
C1779 N1778 1.351 . S
C1779 C1780 1.434 . S
C1780 C1771 1.429 . S
C1780 N1777 1.350 . S
C1780 C1779 1.434 . S
C1781 C1782 1.369 1_554 S
C1781 C1783 1.419 . S
C1781 H1785 0.930 . S
C1782 C1781 1.369 1_556 S
C1782 C1791 1.429 . S
C1783 C1781 1.419 . S
C1783 C1784 1.363 . S
C1783 H1786 0.929 . S
C1784 C1783 1.363 . S
C1784 C1790 1.428 1_554 S
H1785 C1781 0.930 . S
H1786 C1783 0.929 . S
S1787 N1788 1.613 . S
S1787 N1789 1.610 . S
N1788 S1787 1.613 . S
N1788 C1791 1.350 . S
N1789 S1787 1.610 . S
N1789 C1790 1.351 . S
C1790 C1784 1.428 1_556 S
C1790 N1789 1.351 . S
C1790 C1791 1.434 . S
C1791 C1782 1.429 . S
C1791 N1788 1.350 . S
C1791 C1790 1.434 . S
C1792 C1793 1.369 . S
C1792 C1794 1.419 . S
C1792 H1796 0.930 . S
C1793 C1792 1.369 . S
C1793 C1802 1.429 . S
C1794 C1792 1.419 . S
C1794 C1795 1.363 . S
C1794 H1797 0.929 . S
C1795 C1794 1.363 . S
C1795 C1801 1.428 . S
H1796 C1792 0.930 . S
H1797 C1794 0.929 . S
S1798 N1799 1.613 . S
S1798 N1800 1.610 . S
N1799 S1798 1.613 . S
N1799 C1802 1.350 . S
N1800 S1798 1.610 . S
N1800 C1801 1.351 . S
C1801 C1795 1.428 . S
C1801 N1800 1.351 . S
C1801 C1802 1.434 . S
C1802 C1793 1.429 . S
C1802 N1799 1.350 . S
C1802 C1801 1.434 . S
C1803 C1804 1.369 . S
C1803 C1805 1.419 . S
C1803 H1807 0.930 . S
C1804 C1803 1.369 . S
C1804 C1813 1.429 . S
C1805 C1803 1.419 . S
C1805 C1806 1.363 . S
C1805 H1808 0.929 . S
C1806 C1805 1.363 . S
C1806 C1812 1.428 . S
H1807 C1803 0.930 . S
H1808 C1805 0.929 . S
S1809 N1810 1.613 . S
S1809 N1811 1.610 . S
N1810 S1809 1.613 . S
N1810 C1813 1.350 . S
N1811 S1809 1.610 . S
N1811 C1812 1.351 . S
C1812 C1806 1.428 . S
C1812 N1811 1.351 . S
C1812 C1813 1.434 . S
C1813 C1804 1.429 . S
C1813 N1810 1.350 . S
C1813 C1812 1.434 . S
C1814 C1815 1.369 . S
C1814 C1816 1.419 . S
C1814 H1818 0.930 . S
C1815 C1814 1.369 . S
C1815 C1824 1.429 . S
C1816 C1814 1.419 . S
C1816 C1817 1.363 . S
C1816 H1819 0.929 . S
C1817 C1816 1.363 . S
C1817 C1823 1.428 . S
H1818 C1814 0.930 . S
H1819 C1816 0.929 . S
S1820 N1821 1.613 . S
S1820 N1822 1.610 . S
N1821 S1820 1.613 . S
N1821 C1824 1.350 . S
N1822 S1820 1.610 . S
N1822 C1823 1.351 . S
C1823 C1817 1.428 . S
C1823 N1822 1.351 . S
C1823 C1824 1.434 . S
C1824 C1815 1.429 . S
C1824 N1821 1.350 . S
C1824 C1823 1.434 . S
C1825 C1826 1.369 . S
C1825 C1827 1.419 . S
C1825 H1829 0.930 . S
C1826 C1825 1.369 . S
C1826 C1835 1.429 . S
C1827 C1825 1.419 . S
C1827 C1828 1.363 . S
C1827 H1830 0.929 . S
C1828 C1827 1.363 . S
C1828 C1834 1.428 . S
H1829 C1825 0.930 . S
H1830 C1827 0.929 . S
S1831 N1832 1.613 . S
S1831 N1833 1.610 . S
N1832 S1831 1.613 . S
N1832 C1835 1.350 . S
N1833 S1831 1.610 . S
N1833 C1834 1.351 . S
C1834 C1828 1.428 . S
C1834 N1833 1.351 . S
C1834 C1835 1.434 . S
C1835 C1826 1.429 . S
C1835 N1832 1.350 . S
C1835 C1834 1.434 . S
C1836 C1837 1.369 . S
C1836 C1838 1.419 . S
C1836 H1840 0.930 . S
C1837 C1836 1.369 . S
C1837 C1846 1.429 . S
C1838 C1836 1.419 . S
C1838 C1839 1.363 . S
C1838 H1841 0.929 . S
C1839 C1838 1.363 . S
C1839 C1845 1.428 . S
H1840 C1836 0.930 . S
H1841 C1838 0.929 . S
S1842 N1843 1.613 . S
S1842 N1844 1.610 . S
N1843 S1842 1.613 . S
N1843 C1846 1.350 . S
N1844 S1842 1.610 . S
N1844 C1845 1.351 . S
C1845 C1839 1.428 . S
C1845 N1844 1.351 . S
C1845 C1846 1.434 . S
C1846 C1837 1.429 . S
C1846 N1843 1.350 . S
C1846 C1845 1.434 . S
C1847 C1848 1.369 . S
C1847 C1849 1.419 . S
C1847 H1851 0.930 . S
C1848 C1847 1.369 . S
C1848 C1857 1.429 . S
C1849 C1847 1.419 . S
C1849 C1850 1.363 . S
C1849 H1852 0.929 . S
C1850 C1849 1.363 . S
C1850 C1856 1.428 . S
H1851 C1847 0.930 . S
H1852 C1849 0.929 . S
S1853 N1854 1.613 . S
S1853 N1855 1.610 . S
N1854 S1853 1.613 . S
N1854 C1857 1.350 . S
N1855 S1853 1.610 . S
N1855 C1856 1.351 . S
C1856 C1850 1.428 . S
C1856 N1855 1.351 . S
C1856 C1857 1.434 . S
C1857 C1848 1.429 . S
C1857 N1854 1.350 . S
C1857 C1856 1.434 . S
C1858 C1859 1.369 . S
C1858 C1860 1.419 . S
C1858 H1862 0.930 . S
C1859 C1858 1.369 . S
C1859 C1868 1.429 . S
C1860 C1858 1.419 . S
C1860 C1861 1.363 . S
C1860 H1863 0.929 . S
C1861 C1860 1.363 . S
C1861 C1867 1.428 . S
H1862 C1858 0.930 . S
H1863 C1860 0.929 . S
S1864 N1865 1.613 . S
S1864 N1866 1.610 . S
N1865 S1864 1.613 . S
N1865 C1868 1.350 . S
N1866 S1864 1.610 . S
N1866 C1867 1.351 . S
C1867 C1861 1.428 . S
C1867 N1866 1.351 . S
C1867 C1868 1.434 . S
C1868 C1859 1.429 . S
C1868 N1865 1.350 . S
C1868 C1867 1.434 . S
C1869 C1870 1.369 . S
C1869 C1871 1.419 . S
C1869 H1873 0.930 . S
C1870 C1869 1.369 . S
C1870 C1879 1.429 . S
C1871 C1869 1.419 . S
C1871 C1872 1.363 . S
C1871 H1874 0.929 . S
C1872 C1871 1.363 . S
C1872 C1878 1.428 . S
H1873 C1869 0.930 . S
H1874 C1871 0.929 . S
S1875 N1876 1.613 . S
S1875 N1877 1.610 . S
N1876 S1875 1.613 . S
N1876 C1879 1.350 . S
N1877 S1875 1.610 . S
N1877 C1878 1.351 . S
C1878 C1872 1.428 . S
C1878 N1877 1.351 . S
C1878 C1879 1.434 . S
C1879 C1870 1.429 . S
C1879 N1876 1.350 . S
C1879 C1878 1.434 . S
C1880 C1881 1.369 . S
C1880 C1882 1.419 . S
C1880 H1884 0.930 . S
C1881 C1880 1.369 . S
C1881 C1890 1.429 . S
C1882 C1880 1.419 . S
C1882 C1883 1.363 . S
C1882 H1885 0.929 . S
C1883 C1882 1.363 . S
C1883 C1889 1.428 . S
H1884 C1880 0.930 . S
H1885 C1882 0.929 . S
S1886 N1887 1.613 . S
S1886 N1888 1.610 . S
N1887 S1886 1.613 . S
N1887 C1890 1.350 . S
N1888 S1886 1.610 . S
N1888 C1889 1.351 . S
C1889 C1883 1.428 . S
C1889 N1888 1.351 . S
C1889 C1890 1.434 . S
C1890 C1881 1.429 . S
C1890 N1887 1.350 . S
C1890 C1889 1.434 . S
C1891 C1892 1.369 . S
C1891 C1893 1.419 . S
C1891 H1895 0.930 . S
C1892 C1891 1.369 . S
C1892 C1901 1.429 . S
C1893 C1891 1.419 . S
C1893 C1894 1.363 . S
C1893 H1896 0.929 . S
C1894 C1893 1.363 . S
C1894 C1900 1.428 . S
H1895 C1891 0.930 . S
H1896 C1893 0.929 . S
S1897 N1898 1.613 . S
S1897 N1899 1.610 . S
N1898 S1897 1.613 . S
N1898 C1901 1.350 . S
N1899 S1897 1.610 . S
N1899 C1900 1.351 . S
C1900 C1894 1.428 . S
C1900 N1899 1.351 . S
C1900 C1901 1.434 . S
C1901 C1892 1.429 . S
C1901 N1898 1.350 . S
C1901 C1900 1.434 . S
C1902 C1903 1.369 . S
C1902 C1904 1.419 . S
C1902 H1906 0.930 . S
C1903 C1902 1.369 . S
C1903 C1912 1.429 . S
C1904 C1902 1.419 . S
C1904 C1905 1.363 . S
C1904 H1907 0.929 . S
C1905 C1904 1.363 . S
C1905 C1911 1.428 . S
H1906 C1902 0.930 . S
H1907 C1904 0.929 . S
S1908 N1909 1.613 . S
S1908 N1910 1.610 . S
N1909 S1908 1.613 . S
N1909 C1912 1.350 . S
N1910 S1908 1.610 . S
N1910 C1911 1.351 . S
C1911 C1905 1.428 . S
C1911 N1910 1.351 . S
C1911 C1912 1.434 . S
C1912 C1903 1.429 . S
C1912 N1909 1.350 . S
C1912 C1911 1.434 . S
C1913 C1914 1.369 . S
C1913 C1915 1.419 . S
C1913 H1917 0.930 . S
C1914 C1913 1.369 . S
C1914 C1923 1.429 . S
C1915 C1913 1.419 . S
C1915 C1916 1.363 . S
C1915 H1918 0.929 . S
C1916 C1915 1.363 . S
C1916 C1922 1.428 . S
H1917 C1913 0.930 . S
H1918 C1915 0.929 . S
S1919 N1920 1.613 . S
S1919 N1921 1.610 . S
N1920 S1919 1.613 . S
N1920 C1923 1.350 . S
N1921 S1919 1.610 . S
N1921 C1922 1.351 . S
C1922 C1916 1.428 . S
C1922 N1921 1.351 . S
C1922 C1923 1.434 . S
C1923 C1914 1.429 . S
C1923 N1920 1.350 . S
C1923 C1922 1.434 . S
C1924 C1925 1.369 . S
C1924 C1926 1.419 . S
C1924 H1928 0.930 . S
C1925 C1924 1.369 . S
C1925 C1934 1.429 . S
C1926 C1924 1.419 . S
C1926 C1927 1.363 . S
C1926 H1929 0.929 . S
C1927 C1926 1.363 . S
C1927 C1933 1.428 . S
H1928 C1924 0.930 . S
H1929 C1926 0.929 . S
S1930 N1931 1.613 . S
S1930 N1932 1.610 . S
N1931 S1930 1.613 . S
N1931 C1934 1.350 . S
N1932 S1930 1.610 . S
N1932 C1933 1.351 . S
C1933 C1927 1.428 . S
C1933 N1932 1.351 . S
C1933 C1934 1.434 . S
C1934 C1925 1.429 . S
C1934 N1931 1.350 . S
C1934 C1933 1.434 . S
C1935 C1936 1.369 . S
C1935 C1937 1.419 . S
C1935 H1939 0.930 . S
C1936 C1935 1.369 . S
C1936 C1945 1.429 . S
C1937 C1935 1.419 . S
C1937 C1938 1.363 . S
C1937 H1940 0.929 . S
C1938 C1937 1.363 . S
C1938 C1944 1.428 . S
H1939 C1935 0.930 . S
H1940 C1937 0.929 . S
S1941 N1942 1.613 . S
S1941 N1943 1.610 . S
N1942 S1941 1.613 . S
N1942 C1945 1.350 . S
N1943 S1941 1.610 . S
N1943 C1944 1.351 . S
C1944 C1938 1.428 . S
C1944 N1943 1.351 . S
C1944 C1945 1.434 . S
C1945 C1936 1.429 . S
C1945 N1942 1.350 . S
C1945 C1944 1.434 . S
C1946 C1947 1.369 . S
C1946 C1948 1.419 . S
C1946 H1950 0.930 . S
C1947 C1946 1.369 . S
C1947 C1956 1.429 . S
C1948 C1946 1.419 . S
C1948 C1949 1.363 . S
C1948 H1951 0.929 . S
C1949 C1948 1.363 . S
C1949 C1955 1.428 . S
H1950 C1946 0.930 . S
H1951 C1948 0.929 . S
S1952 N1953 1.613 . S
S1952 N1954 1.610 . S
N1953 S1952 1.613 . S
N1953 C1956 1.350 . S
N1954 S1952 1.610 . S
N1954 C1955 1.351 . S
C1955 C1949 1.428 . S
C1955 N1954 1.351 . S
C1955 C1956 1.434 . S
C1956 C1947 1.429 . S
C1956 N1953 1.350 . S
C1956 C1955 1.434 . S
C1957 C1958 1.369 . S
C1957 C1959 1.419 . S
C1957 H1961 0.930 . S
C1958 C1957 1.369 . S
C1958 C1967 1.429 . S
C1959 C1957 1.419 . S
C1959 C1960 1.363 . S
C1959 H1962 0.929 . S
C1960 C1959 1.363 . S
C1960 C1966 1.428 . S
H1961 C1957 0.930 . S
H1962 C1959 0.929 . S
S1963 N1964 1.613 . S
S1963 N1965 1.610 . S
N1964 S1963 1.613 . S
N1964 C1967 1.350 . S
N1965 S1963 1.610 . S
N1965 C1966 1.351 . S
C1966 C1960 1.428 . S
C1966 N1965 1.351 . S
C1966 C1967 1.434 . S
C1967 C1958 1.429 . S
C1967 N1964 1.350 . S
C1967 C1966 1.434 . S
C1089 C271 1.869 . S
C1091 C9 1.736 . S
C1100 C1053 1.865 . S
C1102 C43 1.733 . S
C1111 C475 1.869 . S
C1113 C77 1.737 . S
C1122 C111 1.741 . S
C1124 C713 1.868 . S
C1133 C145 1.740 . S
C1135 C135 1.867 . S
C1144 C917 1.868 . S
C1146 C179 1.733 . S
C1155 C339 1.868 . S
C1157 C213 1.732 . S
C1166 C247 1.741 . S
C1168 C577 1.868 . S
C1177 C281 1.731 . S
C1179 C543 1.865 . S
C1188 C781 1.869 . S
C1190 C315 1.739 . S
C1199 C349 1.731 . S
C1201 C203 1.865 . S
C1210 C383 1.741 . S
C1212 C985 1.868 . S
C1221 C417 1.735 . S
C1223 C407 1.869 . S
C1232 C451 1.731 . S
C1234 C645 1.867 . S
C1243 C485 1.740 . S
C1245 C67 1.867 . S
C1254 C849 1.866 . S
C1256 C519 1.737 . S
C1265 C815 1.868 . S
C1267 C553 1.739 . S
C1276 C587 1.734 . S
C1278 C509 1.868 . S
C1287 C1019 1.865 . S
C1289 C621 1.733 . S
C1298 C169 1.869 . S
C1300 C655 1.739 . S
C1309 C679 1.869 . S
C1311 C689 1.736 . S
C1320 C373 1.869 . S
C1322 C723 1.739 . S
C1331 C757 1.739 . S
C1333 C883 1.867 . S
C1342 C33 1.867 . S
C1344 C791 1.739 . S
C1353 C1087 1.866 . S
C1355 C825 1.737 . S
C1364 C859 1.731 . S
C1366 C237 1.867 . S
C1375 C893 1.741 . S
C1377 C747 1.869 . S
C1386 C441 1.869 . S
C1388 C927 1.738 . S
C1397 C951 1.865 . S
C1399 C961 1.731 . S
C1408 C101 1.865 . S
C1410 C995 1.732 . S
C1419 C1029 1.739 . S
C1421 C611 1.867 . S
C1430 C1063 1.739 . S
C1432 C305 1.869 . S
C1441 C5 1.168 . S
C1443 C651 1.164 . S
C1452 C39 1.169 . S
C1454 C617 1.160 . S
C1463 C73 1.161 . S
C1465 C583 1.164 . S
C1474 C107 1.163 . S
C1476 C549 1.163 . S
C1485 C141 1.160 . S
C1487 C787 1.166 . S
C1496 C753 1.160 . S
C1498 C175 1.168 . S
C1507 C719 1.166 . S
C1509 C209 1.161 . S
C1518 C243 1.160 . S
C1520 C685 1.165 . S
C1529 C277 1.165 . S
C1531 C923 1.166 . S
C1540 C889 1.170 . S
C1542 C311 1.161 . S
C1551 C855 1.165 . S
C1553 C345 1.166 . S
C1562 C379 1.166 . S
C1564 C821 1.161 . S
C1573 C1059 1.159 . S
C1575 C413 1.167 . S
C1584 C447 1.168 . S
C1586 C1025 1.163 . S
C1595 C481 1.164 . S
C1597 C991 1.166 . S
C1606 C957 1.162 . S
C1608 C515 1.168 . S
C1617 C700 1.189 1_545 S
C1619 C20 1.183 1_565 S
C1628 C462 1.198 . S
C1630 C54 1.199 . S
C1639 C1040 1.199 . S
C1641 C88 1.197 . S
C1650 C122 1.186 1_565 S
C1652 C258 1.185 1_545 S
C1661 C156 1.186 1_545 S
C1663 C564 1.185 1_565 S
C1672 C190 1.191 . S
C1674 C326 1.204 . S
C1683 C904 1.202 . S
C1685 C224 1.195 . S
C1694 C292 1.190 . S
C1696 C972 1.204 . S
C1705 C768 1.206 . S
C1707 C360 1.193 . S
C1716 C530 1.191 . S
C1718 C394 1.204 . S
C1727 C428 1.193 . S
C1729 C836 1.202 . S
C1738 C632 1.194 . S
C1740 C496 1.202 . S
C1749 C1006 1.196 . S
C1751 C598 1.200 . S
C1760 C802 1.184 1_545 S
C1762 C666 1.187 1_565 S
C1771 C870 1.196 . S
C1773 C734 1.200 . S
C1782 C1074 1.202 . S
C1784 C938 1.196 . S
C1793 C70 1.650 . S
C1795 C2 1.649 . S
C1804 C104 1.646 . S
C1806 C36 1.654 . S
C1815 C206 1.655 . S
C1817 C138 1.650 . S
C1826 C240 1.650 . S
C1828 C172 1.654 . S
C1837 C274 1.656 . S
C1839 C342 1.648 . S
C1848 C376 1.646 . S
C1850 C308 1.655 . S
C1859 C410 1.646 . S
C1861 C478 1.654 . S
C1870 C444 1.656 . S
C1872 C512 1.650 . S
C1881 C546 1.649 . S
C1883 C614 1.650 . S
C1892 C580 1.646 . S
C1894 C648 1.654 . S
C1903 C750 1.647 . S
C1905 C682 1.652 . S
C1914 C716 1.656 . S
C1916 C784 1.648 . S
C1925 C886 1.652 . S
C1927 C818 1.653 . S
C1936 C920 1.649 . S
C1938 C852 1.654 . S
C1947 C954 1.655 . S
C1949 C1022 1.647 . S
C1958 C988 1.655 . S
C1960 C1056 1.647 . S
