# Generated by pormake.
# Topology uke, (4)-cn, num edge types: 1
# Building blocks:
#     Node 0, Type 0, BuildingBlock: KUFVIS_clean_sbu_0, # of connection points: 4
#     Node 1, Type 0, BuildingBlock: KUFVIS_clean_sbu_0, # of connection points: 4
#     Node 2, Type 0, BuildingBlock: KUFVIS_clean_sbu_0, # of connection points: 4
#     Node 3, Type 0, BuildingBlock: KUFVIS_clean_sbu_0, # of connection points: 4
#     Node 4, Type 0, BuildingBlock: KUFVIS_clean_sbu_0, # of connection points: 4
#     Node 5, Type 0, BuildingBlock: KUFVIS_clean_sbu_0, # of connection points: 4
#     Node 6, Type 0, BuildingBlock: KUFVIS_clean_sbu_0, # of connection points: 4
#     Node 7, Type 0, BuildingBlock: KUFVIS_clean_sbu_0, # of connection points: 4
#     Node 8, Type 0, BuildingBlock: KUFVIS_clean_sbu_0, # of connection points: 4
#     Node 9, Type 0, BuildingBlock: KUFVIS_clean_sbu_0, # of connection points: 4
#     Node 10, Type 0, BuildingBlock: KUFVIS_clean_sbu_0, # of connection points: 4
#     Node 11, Type 0, BuildingBlock: KUFVIS_clean_sbu_0, # of connection points: 4
#     Node 12, Type 0, BuildingBlock: KUFVIS_clean_sbu_0, # of connection points: 4
#     Node 13, Type 0, BuildingBlock: KUFVIS_clean_sbu_0, # of connection points: 4
#     Node 14, Type 0, BuildingBlock: KUFVIS_clean_sbu_0, # of connection points: 4
#     Node 15, Type 0, BuildingBlock: KUFVIS_clean_sbu_0, # of connection points: 4
#     Node 16, Type 0, BuildingBlock: KUFVIS_clean_sbu_0, # of connection points: 4
#     Node 17, Type 0, BuildingBlock: KUFVIS_clean_sbu_0, # of connection points: 4
#     Node 18, Type 0, BuildingBlock: KUFVIS_clean_sbu_0, # of connection points: 4
#     Node 19, Type 0, BuildingBlock: KUFVIS_clean_sbu_0, # of connection points: 4
#     Node 20, Type 0, BuildingBlock: KUFVIS_clean_sbu_0, # of connection points: 4
#     Node 21, Type 0, BuildingBlock: KUFVIS_clean_sbu_0, # of connection points: 4
#     Node 22, Type 0, BuildingBlock: KUFVIS_clean_sbu_0, # of connection points: 4
#     Node 23, Type 0, BuildingBlock: KUFVIS_clean_sbu_0, # of connection points: 4
#     Node 24, Type 0, BuildingBlock: KUFVIS_clean_sbu_0, # of connection points: 4
#     Node 25, Type 0, BuildingBlock: KUFVIS_clean_sbu_0, # of connection points: 4
#     Node 26, Type 0, BuildingBlock: KUFVIS_clean_sbu_0, # of connection points: 4
#     Node 27, Type 0, BuildingBlock: KUFVIS_clean_sbu_0, # of connection points: 4
#     Node 28, Type 0, BuildingBlock: KUFVIS_clean_sbu_0, # of connection points: 4
#     Node 29, Type 0, BuildingBlock: KUFVIS_clean_sbu_0, # of connection points: 4
#     Node 30, Type 0, BuildingBlock: KUFVIS_clean_sbu_0, # of connection points: 4
#     Node 31, Type 0, BuildingBlock: KUFVIS_clean_sbu_0, # of connection points: 4
#     Edge 32, Type (0, 0), BuildingBlock: KIFKEQ_clean_linker_1, # of connection points: 2
#     Edge 33, Type (0, 0), BuildingBlock: KIFKEQ_clean_linker_1, # of connection points: 2
#     Edge 34, Type (0, 0), BuildingBlock: KIFKEQ_clean_linker_1, # of connection points: 2
#     Edge 35, Type (0, 0), BuildingBlock: KIFKEQ_clean_linker_1, # of connection points: 2
#     Edge 36, Type (0, 0), BuildingBlock: KIFKEQ_clean_linker_1, # of connection points: 2
#     Edge 37, Type (0, 0), BuildingBlock: KIFKEQ_clean_linker_1, # of connection points: 2
#     Edge 38, Type (0, 0), BuildingBlock: KIFKEQ_clean_linker_1, # of connection points: 2
#     Edge 39, Type (0, 0), BuildingBlock: KIFKEQ_clean_linker_1, # of connection points: 2
#     Edge 40, Type (0, 0), BuildingBlock: KIFKEQ_clean_linker_1, # of connection points: 2
#     Edge 41, Type (0, 0), BuildingBlock: KIFKEQ_clean_linker_1, # of connection points: 2
#     Edge 42, Type (0, 0), BuildingBlock: KIFKEQ_clean_linker_1, # of connection points: 2
#     Edge 43, Type (0, 0), BuildingBlock: KIFKEQ_clean_linker_1, # of connection points: 2
#     Edge 44, Type (0, 0), BuildingBlock: KIFKEQ_clean_linker_1, # of connection points: 2
#     Edge 45, Type (0, 0), BuildingBlock: KIFKEQ_clean_linker_1, # of connection points: 2
#     Edge 46, Type (0, 0), BuildingBlock: KIFKEQ_clean_linker_1, # of connection points: 2
#     Edge 47, Type (0, 0), BuildingBlock: KIFKEQ_clean_linker_1, # of connection points: 2
#     Edge 48, Type (0, 0), BuildingBlock: KIFKEQ_clean_linker_1, # of connection points: 2
#     Edge 49, Type (0, 0), BuildingBlock: KIFKEQ_clean_linker_1, # of connection points: 2
#     Edge 50, Type (0, 0), BuildingBlock: KIFKEQ_clean_linker_1, # of connection points: 2
#     Edge 51, Type (0, 0), BuildingBlock: KIFKEQ_clean_linker_1, # of connection points: 2
#     Edge 52, Type (0, 0), BuildingBlock: KIFKEQ_clean_linker_1, # of connection points: 2
#     Edge 53, Type (0, 0), BuildingBlock: KIFKEQ_clean_linker_1, # of connection points: 2
#     Edge 54, Type (0, 0), BuildingBlock: KIFKEQ_clean_linker_1, # of connection points: 2
#     Edge 55, Type (0, 0), BuildingBlock: KIFKEQ_clean_linker_1, # of connection points: 2
#     Edge 56, Type (0, 0), BuildingBlock: KIFKEQ_clean_linker_1, # of connection points: 2
#     Edge 57, Type (0, 0), BuildingBlock: KIFKEQ_clean_linker_1, # of connection points: 2
#     Edge 58, Type (0, 0), BuildingBlock: KIFKEQ_clean_linker_1, # of connection points: 2
#     Edge 59, Type (0, 0), BuildingBlock: KIFKEQ_clean_linker_1, # of connection points: 2
#     Edge 60, Type (0, 0), BuildingBlock: KIFKEQ_clean_linker_1, # of connection points: 2
#     Edge 61, Type (0, 0), BuildingBlock: KIFKEQ_clean_linker_1, # of connection points: 2
#     Edge 62, Type (0, 0), BuildingBlock: KIFKEQ_clean_linker_1, # of connection points: 2
#     Edge 63, Type (0, 0), BuildingBlock: KIFKEQ_clean_linker_1, # of connection points: 2
#     Edge 64, Type (0, 0), BuildingBlock: KIFKEQ_clean_linker_1, # of connection points: 2
#     Edge 65, Type (0, 0), BuildingBlock: KIFKEQ_clean_linker_1, # of connection points: 2
#     Edge 66, Type (0, 0), BuildingBlock: KIFKEQ_clean_linker_1, # of connection points: 2
#     Edge 67, Type (0, 0), BuildingBlock: KIFKEQ_clean_linker_1, # of connection points: 2
#     Edge 68, Type (0, 0), BuildingBlock: KIFKEQ_clean_linker_1, # of connection points: 2
#     Edge 69, Type (0, 0), BuildingBlock: KIFKEQ_clean_linker_1, # of connection points: 2
#     Edge 70, Type (0, 0), BuildingBlock: KIFKEQ_clean_linker_1, # of connection points: 2
#     Edge 71, Type (0, 0), BuildingBlock: KIFKEQ_clean_linker_1, # of connection points: 2
#     Edge 72, Type (0, 0), BuildingBlock: KIFKEQ_clean_linker_1, # of connection points: 2
#     Edge 73, Type (0, 0), BuildingBlock: KIFKEQ_clean_linker_1, # of connection points: 2
#     Edge 74, Type (0, 0), BuildingBlock: KIFKEQ_clean_linker_1, # of connection points: 2
#     Edge 75, Type (0, 0), BuildingBlock: KIFKEQ_clean_linker_1, # of connection points: 2
#     Edge 76, Type (0, 0), BuildingBlock: KIFKEQ_clean_linker_1, # of connection points: 2
#     Edge 77, Type (0, 0), BuildingBlock: KIFKEQ_clean_linker_1, # of connection points: 2
#     Edge 78, Type (0, 0), BuildingBlock: KIFKEQ_clean_linker_1, # of connection points: 2
#     Edge 79, Type (0, 0), BuildingBlock: KIFKEQ_clean_linker_1, # of connection points: 2
#     Edge 80, Type (0, 0), BuildingBlock: KIFKEQ_clean_linker_1, # of connection points: 2
#     Edge 81, Type (0, 0), BuildingBlock: KIFKEQ_clean_linker_1, # of connection points: 2
#     Edge 82, Type (0, 0), BuildingBlock: KIFKEQ_clean_linker_1, # of connection points: 2
#     Edge 83, Type (0, 0), BuildingBlock: KIFKEQ_clean_linker_1, # of connection points: 2
#     Edge 84, Type (0, 0), BuildingBlock: KIFKEQ_clean_linker_1, # of connection points: 2
#     Edge 85, Type (0, 0), BuildingBlock: KIFKEQ_clean_linker_1, # of connection points: 2
#     Edge 86, Type (0, 0), BuildingBlock: KIFKEQ_clean_linker_1, # of connection points: 2
#     Edge 87, Type (0, 0), BuildingBlock: KIFKEQ_clean_linker_1, # of connection points: 2
#     Edge 88, Type (0, 0), BuildingBlock: KIFKEQ_clean_linker_1, # of connection points: 2
#     Edge 89, Type (0, 0), BuildingBlock: KIFKEQ_clean_linker_1, # of connection points: 2
#     Edge 90, Type (0, 0), BuildingBlock: KIFKEQ_clean_linker_1, # of connection points: 2
#     Edge 91, Type (0, 0), BuildingBlock: KIFKEQ_clean_linker_1, # of connection points: 2
#     Edge 92, Type (0, 0), BuildingBlock: KIFKEQ_clean_linker_1, # of connection points: 2
#     Edge 93, Type (0, 0), BuildingBlock: KIFKEQ_clean_linker_1, # of connection points: 2
#     Edge 94, Type (0, 0), BuildingBlock: KIFKEQ_clean_linker_1, # of connection points: 2
#     Edge 95, Type (0, 0), BuildingBlock: KIFKEQ_clean_linker_1, # of connection points: 2
# Relax obj value: 0.130
# Max RMSD: 0.213
# Mean RMSD: 0.212
data_MOF--net-uke--node1-KUFVIS_clean_sbu_0--edge1-KIFKEQ_clean_linker_1
_symmetry_space_group_name_H-M    P1
_symmetry_Int_Tables_number       1
_symmetry_cell_setting            triclinic
loop_
_symmetry_equiv_pos_as_xyz
'x, y, z'
_cell_length_a     21.33178
_cell_length_b     111.67038
_cell_length_c     52.645506
_cell_angle_alpha  89.995908
_cell_angle_beta   90.005546
_cell_angle_gamma 89.99809
loop_
_atom_site_label
_atom_site_type_symbol
_atom_site_fract_x
_atom_site_fract_y
_atom_site_fract_z
_atom_type_partial_charge
Mn0 Mn 0.0895 0.06779 0.26211 0.0
Mn1 Mn 0.95538 0.08119 0.24463 0.0
C2 C 0.08162 0.07561 0.22201 0.0
C3 C 0.1435 0.04977 0.26487 0.0
C4 C 0.05512 0.09367 0.27581 0.0
O5 O 0.03005 0.06316 0.29031 0.0
O6 O 0.94156 0.07208 0.27702 0.0
C7 C 0.88578 0.05905 0.23212 0.0
N8 N 0.90947 0.06984 0.22484 0.0
C9 C 0.87357 0.06698 0.18194 0.0
C10 C 0.84835 0.05587 0.18901 0.0
C11 C 0.85451 0.05189 0.21421 0.0
C12 C 0.90388 0.07375 0.20064 0.0
H13 H 0.89097 0.05591 0.25141 0.0
C14 C 0.97268 0.06592 0.29331 0.0
O15 O 0.16049 0.05887 0.27872 0.0
O16 O 0.09506 0.05106 0.25051 0.0
N17 N 0.96117 0.09032 0.21398 0.0
C18 C 0.98836 0.10122 0.21027 0.0
C19 C 0.98695 0.10643 0.18599 0.0
C20 C 0.95716 0.10044 0.16588 0.0
C21 C 0.92832 0.08935 0.17031 0.0
C22 C 0.93082 0.08464 0.19494 0.0
H23 H 0.01163 0.10583 0.22565 0.0
O24 O 0.1358 0.0731 0.23165 0.0
O25 O 0.03283 0.07285 0.23584 0.0
O26 O 0.09439 0.08495 0.2768 0.0
O27 O 0.00231 0.09318 0.26428 0.0
C28 C 0.8978 0.08271 0.15119 0.0
C29 C 0.87047 0.07153 0.157 0.0
H30 H 0.82449 0.05029 0.17523 0.0
H31 H 0.83546 0.0433 0.21978 0.0
H32 H 0.00913 0.11502 0.18275 0.0
H33 H 0.95671 0.10443 0.14713 0.0
H34 H 0.89535 0.08609 0.13193 0.0
H35 H 0.84744 0.06649 0.14211 0.0
Mn36 Mn 0.16075 0.20387 0.2597 0.0
Mn37 Mn 0.28276 0.18618 0.24462 0.0
C38 C 0.16313 0.19517 0.22028 0.0
C39 C 0.12312 0.22347 0.26118 0.0
C40 C 0.17256 0.17766 0.27604 0.0
O41 O 0.22197 0.20691 0.28822 0.0
O42 O 0.30357 0.19561 0.27594 0.0
C43 C 0.37047 0.20548 0.22993 0.0
N44 N 0.33848 0.19533 0.22388 0.0
C45 C 0.38016 0.19541 0.18142 0.0
C46 C 0.41396 0.20583 0.18724 0.0
C47 C 0.40903 0.21089 0.21159 0.0
C48 C 0.3428 0.19039 0.20051 0.0
H49 H 0.36638 0.20944 0.24857 0.0
C50 C 0.27673 0.20273 0.29169 0.0
O51 O 0.09818 0.21515 0.27527 0.0
O52 O 0.1703 0.22042 0.24726 0.0
N53 N 0.27025 0.17645 0.21515 0.0
C54 C 0.23354 0.16654 0.21248 0.0
C55 C 0.23209 0.16053 0.18906 0.0
C56 C 0.26893 0.16467 0.16876 0.0
C57 C 0.30735 0.17474 0.17214 0.0
C58 C 0.30708 0.18033 0.19595 0.0
H59 H 0.205 0.16335 0.22801 0.0
O60 O 0.11183 0.1997 0.22918 0.0
O61 O 0.21332 0.19656 0.23429 0.0
O62 O 0.14005 0.18733 0.27539 0.0
O63 O 0.22601 0.17638 0.26535 0.0
C64 C 0.34504 0.17957 0.1527 0.0
C65 C 0.38139 0.18991 0.15733 0.0
H66 H 0.4435 0.21006 0.17311 0.0
H67 H 0.43471 0.21896 0.21619 0.0
H68 H 0.20244 0.15275 0.18662 0.0
H69 H 0.26725 0.16008 0.15065 0.0
H70 H 0.346 0.17548 0.13406 0.0
H71 H 0.40979 0.19359 0.14218 0.0
Mn72 Mn 0.068 0.20169 0.99892 0.0
Mn73 Mn 0.94841 0.1839 0.01635 0.0
C74 C 0.06984 0.19302 0.03842 0.0
C75 C 0.1065 0.22125 0.99726 0.0
C76 C 0.05518 0.17527 0.98346 0.0
O77 O 0.00327 0.20503 0.97178 0.0
O78 O 0.9259 0.19277 0.98451 0.0
C79 C 0.8611 0.20336 0.03048 0.0
N80 N 0.8936 0.19332 0.03693 0.0
C81 C 0.85452 0.19407 0.07977 0.0
C82 C 0.82019 0.20437 0.07354 0.0
C83 C 0.82356 0.20904 0.04878 0.0
C84 C 0.89076 0.18876 0.06068 0.0
H85 H 0.86403 0.20703 0.01153 0.0
C86 C 0.94961 0.20028 0.96876 0.0
O87 O 0.12944 0.21297 0.98251 0.0
O88 O 0.06064 0.2182 0.01186 0.0
N89 N 0.96279 0.17465 0.04637 0.0
C90 C 0.00011 0.16485 0.04942 0.0
C91 C 0.00324 0.15924 0.07327 0.0
C92 C 0.96747 0.16368 0.0936 0.0
C93 C 0.92845 0.17363 0.08985 0.0
C94 C 0.927 0.17881 0.06563 0.0
H95 H 0.02789 0.16145 0.03386 0.0
O96 O 0.12035 0.19733 0.02839 0.0
O97 O 0.01815 0.19447 0.02536 0.0
O98 O 0.08626 0.18513 0.98259 0.0
O99 O 0.0041 0.17386 0.99581 0.0
C100 C 0.89186 0.17876 0.10929 0.0
C101 C 0.85495 0.18897 0.10426 0.0
H102 H 0.79148 0.20882 0.08764 0.0
H103 H 0.79749 0.21703 0.04387 0.0
H104 H 0.03338 0.15155 0.076 0.0
H105 H 0.97047 0.1594 0.11203 0.0
H106 H 0.89223 0.17498 0.12825 0.0
H107 H 0.82744 0.1929 0.11942 0.0
Mn108 Mn 0.16454 0.06605 0.9994 0.0
Mn109 Mn 0.29093 0.0823 0.01532 0.0
C110 C 0.16872 0.07455 0.03896 0.0
C111 C 0.12304 0.04668 0.99815 0.0
C112 C 0.18427 0.09218 0.98355 0.0
O113 O 0.22542 0.06243 0.97109 0.0
O114 O 0.30982 0.07284 0.9838 0.0
C115 C 0.37206 0.06195 0.02988 0.0
N116 N 0.3427 0.07236 0.03612 0.0
C117 C 0.37982 0.07116 0.07921 0.0
C118 C 0.41091 0.06046 0.07319 0.0
C119 C 0.40697 0.05584 0.04842 0.0
C120 C 0.34608 0.07688 0.0599 0.0
H121 H 0.36858 0.05831 0.01092 0.0
C122 C 0.28135 0.06605 0.96786 0.0
O123 O 0.09946 0.05512 0.98395 0.0
O124 O 0.1706 0.0495 0.01199 0.0
N125 N 0.28007 0.09192 0.04506 0.0
C126 C 0.24705 0.10229 0.04774 0.0
C127 C 0.24558 0.10802 0.07148 0.0
C128 C 0.27844 0.10309 0.09211 0.0
C129 C 0.31319 0.09255 0.08873 0.0
C130 C 0.31333 0.08729 0.06458 0.0
H131 H 0.22143 0.10607 0.03197 0.0
O132 O 0.11621 0.07066 0.02988 0.0
O133 O 0.21839 0.07269 0.02497 0.0
O134 O 0.14899 0.08283 0.98376 0.0
O135 O 0.23768 0.09282 0.99459 0.0
C136 C 0.3471 0.08698 0.10842 0.0
C137 C 0.38035 0.07628 0.10367 0.0
H138 H 0.4376 0.05569 0.08747 0.0
H139 H 0.43054 0.04755 0.04366 0.0
H140 H 0.21883 0.11618 0.07391 0.0
H141 H 0.27667 0.10747 0.11045 0.0
H142 H 0.34762 0.0908 0.12733 0.0
H143 H 0.40594 0.07204 0.119 0.0
Mn144 Mn 0.88431 0.94936 0.74393 0.0
Mn145 Mn 0.79658 0.95119 0.69104 0.0
C146 C 0.8352 0.96706 0.73462 0.0
C147 C 0.88587 0.94398 0.78676 0.0
C148 C 0.93872 0.9527 0.69065 0.0
O149 O 0.87547 0.9322 0.73305 0.0
O150 O 0.81146 0.93384 0.69926 0.0
C151 C 0.67906 0.94117 0.71197 0.0
N152 N 0.7103 0.95035 0.70061 0.0
C153 C 0.61716 0.96251 0.6998 0.0
C154 C 0.58384 0.95314 0.71131 0.0
C155 C 0.61496 0.94243 0.71745 0.0
C156 C 0.68085 0.9607 0.69464 0.0
H157 H 0.70295 0.93296 0.71686 0.0
C158 C 0.84471 0.92764 0.71478 0.0
O159 O 0.93767 0.94443 0.77368 0.0
O160 O 0.83457 0.94637 0.77478 0.0
N161 N 0.77852 0.96726 0.68076 0.0
C162 C 0.81792 0.97555 0.67048 0.0
C163 C 0.79447 0.98687 0.66378 0.0
C164 C 0.73075 0.98951 0.66755 0.0
C165 C 0.69095 0.98077 0.67783 0.0
C166 C 0.71689 0.96962 0.68398 0.0
H167 H 0.86698 0.97358 0.66763 0.0
O168 O 0.8813 0.96677 0.75063 0.0
O169 O 0.81765 0.95678 0.72518 0.0
O170 O 0.94738 0.952 0.71473 0.0
O171 O 0.88464 0.9524 0.68014 0.0
C172 C 0.62679 0.98275 0.6826 0.0
C173 C 0.58992 0.97363 0.69358 0.0
H174 H 0.53448 0.9541 0.7157 0.0
H175 H 0.58964 0.93519 0.72646 0.0
H176 H 0.82548 0.99356 0.65584 0.0
H177 H 0.71296 0.99829 0.66256 0.0
H178 H 0.60545 0.9913 0.67811 0.0
H179 H 0.54077 0.97529 0.69736 0.0
Mn180 Mn 0.85358 0.81709 0.74605 0.0
Mn181 Mn 0.94678 0.81458 0.69487 0.0
C182 C 0.90624 0.79948 0.73963 0.0
C183 C 0.8475 0.82387 0.78784 0.0
C184 C 0.80472 0.8124 0.6925 0.0
O185 O 0.85992 0.83395 0.73296 0.0
O186 O 0.93079 0.83204 0.70157 0.0
C187 C 0.06203 0.82508 0.71677 0.0
N188 N 0.03213 0.81568 0.70562 0.0
C189 C 0.12561 0.80364 0.70711 0.0
C190 C 0.15758 0.81323 0.71843 0.0
C191 C 0.12561 0.82399 0.7233 0.0
C192 C 0.0624 0.80529 0.70086 0.0
H193 H 0.03745 0.83333 0.72072 0.0
C194 C 0.89372 0.83833 0.7154 0.0
O195 O 0.79682 0.82242 0.77437 0.0
O196 O 0.90027 0.82149 0.77695 0.0
N197 N 0.96621 0.79837 0.68608 0.0
C198 C 0.92805 0.78986 0.6758 0.0
C199 C 0.95245 0.77848 0.67028 0.0
C200 C 0.01584 0.77598 0.67521 0.0
C201 C 0.05442 0.78493 0.68542 0.0
C202 C 0.02761 0.79614 0.69034 0.0
H203 H 0.87924 0.79172 0.67206 0.0
O204 O 0.85928 0.79995 0.75519 0.0
O205 O 0.92286 0.80959 0.72912 0.0
O206 O 0.79372 0.81318 0.71641 0.0
O207 O 0.85967 0.81306 0.6828 0.0
C208 C 0.11814 0.78311 0.69132 0.0
C209 C 0.15371 0.79246 0.70216 0.0
H210 H 0.20652 0.8124 0.72363 0.0
H211 H 0.14987 0.83141 0.73215 0.0
H212 H 0.9224 0.77162 0.66237 0.0
H213 H 0.03433 0.76715 0.67116 0.0
H214 H 0.1401 0.77452 0.68782 0.0
H215 H 0.2025 0.79092 0.70683 0.0
Mn216 Mn 0.87711 0.81789 0.01858 0.0
Mn217 Mn 0.78977 0.81584 0.07157 0.0
C218 C 0.82453 0.80042 0.0266 0.0
C219 C 0.87967 0.8243 0.97646 0.0
C220 C 0.93163 0.81326 0.07134 0.0
O221 O 0.87309 0.83485 0.03118 0.0
O222 O 0.80703 0.83321 0.06432 0.0
C223 C 0.67343 0.82677 0.05161 0.0
N224 N 0.70346 0.81728 0.06239 0.0
C225 C 0.60823 0.80574 0.06338 0.0
C226 C 0.57615 0.81542 0.05246 0.0
C227 C 0.60894 0.82597 0.0465 0.0
C228 C 0.67245 0.80707 0.06808 0.0
H229 H 0.69857 0.83486 0.0469 0.0
C230 C 0.8424 0.83936 0.04951 0.0
O231 O 0.9314 0.82288 0.98926 0.0
O232 O 0.82776 0.82213 0.98822 0.0
N233 N 0.76942 0.79976 0.08106 0.0
C234 C 0.80762 0.79116 0.09094 0.0
C235 C 0.78234 0.77996 0.09748 0.0
C236 C 0.71805 0.77777 0.09405 0.0
C237 C 0.67951 0.78683 0.08423 0.0
C238 C 0.70729 0.79783 0.07815 0.0
H239 H 0.85706 0.7928 0.09363 0.0
O240 O 0.86973 0.80071 0.01018 0.0
O241 O 0.80926 0.81063 0.037 0.0
O242 O 0.93986 0.81407 0.04726 0.0
O243 O 0.87791 0.81399 0.08208 0.0
C244 C 0.61478 0.78534 0.07996 0.0
C245 C 0.57918 0.79478 0.06951 0.0
H246 H 0.52645 0.81483 0.04843 0.0
H247 H 0.58457 0.83345 0.03796 0.0
H248 H 0.81237 0.77303 0.1051 0.0
H249 H 0.6988 0.7691 0.09898 0.0
H250 H 0.592 0.77693 0.08446 0.0
H251 H 0.52955 0.79349 0.06612 0.0
Mn252 Mn 0.8666 0.95005 0.01985 0.0
Mn253 Mn 0.95138 0.95184 0.07354 0.0
C254 C 0.91471 0.96777 0.02978 0.0
C255 C 0.86665 0.94472 0.97701 0.0
C256 C 0.80934 0.95328 0.0727 0.0
O257 O 0.87526 0.93288 0.03061 0.0
O258 O 0.93661 0.9345 0.06521 0.0
C259 C 0.06985 0.94176 0.05364 0.0
N260 N 0.03815 0.95096 0.06474 0.0
C261 C 0.13173 0.96294 0.067 0.0
C262 C 0.16551 0.95357 0.05575 0.0
C263 C 0.13439 0.94294 0.04899 0.0
C264 C 0.06756 0.96124 0.07122 0.0
H265 H 0.046 0.9336 0.04835 0.0
C266 C 0.90447 0.92832 0.04928 0.0
O267 O 0.81444 0.94511 0.98982 0.0
O268 O 0.91754 0.94717 0.98923 0.0
N269 N 0.96919 0.96789 0.08404 0.0
C270 C 0.92943 0.97619 0.09406 0.0
C271 C 0.9529 0.98743 0.10135 0.0
C272 C 0.01702 0.98997 0.0985 0.0
C273 C 0.05714 0.98123 0.08843 0.0
C274 C 0.03111 0.97018 0.08159 0.0
H275 H 0.88012 0.97428 0.0963 0.0
O276 O 0.86941 0.96746 0.0134 0.0
O277 O 0.93221 0.95748 0.03922 0.0
O278 O 0.80212 0.95254 0.04856 0.0
O279 O 0.86281 0.95308 0.08372 0.0
C280 C 0.12181 0.98309 0.08468 0.0
C281 C 0.15907 0.97396 0.07393 0.0
H282 H 0.21526 0.95445 0.05206 0.0
H283 H 0.16008 0.93569 0.0402 0.0
H284 H 0.92165 0.99412 0.10913 0.0
H285 H 0.0349 0.99866 0.10405 0.0
H286 H 0.14328 0.99154 0.08981 0.0
H287 H 0.20863 0.97553 0.07095 0.0
Mn288 Mn 0.07249 0.56482 0.76156 0.0
Mn289 Mn 0.95388 0.58289 0.74414 0.0
C290 C 0.07541 0.57366 0.72229 0.0
C291 C 0.10986 0.54518 0.76323 0.0
C292 C 0.06069 0.59126 0.77721 0.0
O293 O 0.00741 0.56155 0.78855 0.0
O294 O 0.9311 0.57407 0.776 0.0
C295 C 0.866 0.56351 0.73003 0.0
N296 N 0.89878 0.57352 0.72357 0.0
C297 C 0.85946 0.57283 0.68076 0.0
C298 C 0.82485 0.56257 0.687 0.0
C299 C 0.82821 0.55788 0.71174 0.0
C300 C 0.89601 0.57809 0.69982 0.0
H301 H 0.86887 0.55984 0.74898 0.0
C302 C 0.95429 0.56648 0.79168 0.0
O303 O 0.13298 0.5534 0.77809 0.0
O304 O 0.06456 0.54834 0.74845 0.0
N305 N 0.96834 0.59214 0.71414 0.0
C306 C 0.0054 0.60198 0.71116 0.0
C307 C 0.00833 0.60764 0.68736 0.0
C308 C 0.9725 0.60322 0.66702 0.0
C309 C 0.93359 0.59325 0.67072 0.0
C310 C 0.9324 0.58802 0.69489 0.0
H311 H 0.03313 0.60537 0.72675 0.0
O312 O 0.12548 0.56915 0.7323 0.0
O313 O 0.02338 0.57225 0.73514 0.0
O314 O 0.09118 0.58133 0.77813 0.0
O315 O 0.00997 0.59282 0.76468 0.0
C316 C 0.89675 0.58817 0.65129 0.0
C317 C 0.85975 0.57797 0.6563 0.0
H318 H 0.79588 0.55816 0.67291 0.0
H319 H 0.8019 0.54993 0.71666 0.0
H320 H 0.03832 0.61535 0.68468 0.0
H321 H 0.97532 0.60754 0.64863 0.0
H322 H 0.89693 0.59199 0.63237 0.0
H323 H 0.83199 0.57409 0.64116 0.0
Mn324 Mn 0.15857 0.70077 0.76145 0.0
Mn325 Mn 0.28539 0.68498 0.74397 0.0
C326 C 0.16147 0.69266 0.72148 0.0
C327 C 0.11598 0.71999 0.76435 0.0
C328 C 0.18117 0.67462 0.77636 0.0
O329 O 0.22062 0.70427 0.78935 0.0
O330 O 0.30548 0.69432 0.77554 0.0
C331 C 0.36471 0.70554 0.72914 0.0
N332 N 0.3357 0.69508 0.72296 0.0
C333 C 0.37194 0.69636 0.67976 0.0
C334 C 0.40267 0.7071 0.68571 0.0
C335 C 0.39899 0.71171 0.71051 0.0
C336 C 0.33888 0.69057 0.69916 0.0
H337 H 0.36147 0.70915 0.74812 0.0
C338 C 0.27708 0.70086 0.79197 0.0
O339 O 0.09379 0.71129 0.77818 0.0
O340 O 0.16257 0.71748 0.74969 0.0
N341 N 0.27347 0.67546 0.71413 0.0
C342 C 0.24008 0.66514 0.71143 0.0
C343 C 0.23794 0.65947 0.68763 0.0
C344 C 0.27055 0.66442 0.66695 0.0
C345 C 0.30557 0.67493 0.67034 0.0
C346 C 0.30632 0.68013 0.69454 0.0
H347 H 0.21468 0.66134 0.72724 0.0
O348 O 0.10912 0.69633 0.73116 0.0
O349 O 0.21171 0.6945 0.73517 0.0
O350 O 0.14494 0.68382 0.77655 0.0
O351 O 0.2341 0.67422 0.76494 0.0
C352 C 0.33892 0.68056 0.65056 0.0
C353 C 0.37207 0.69127 0.65527 0.0
H354 H 0.42884 0.71193 0.67136 0.0
H355 H 0.42228 0.72003 0.71521 0.0
H356 H 0.21092 0.65135 0.68518 0.0
H357 H 0.26826 0.6601 0.64856 0.0
H358 H 0.33898 0.67678 0.63161 0.0
H359 H 0.39714 0.69556 0.63987 0.0
Mn360 Mn 0.0814 0.70173 0.49858 0.0
Mn361 Mn 0.95376 0.68583 0.51471 0.0
C362 C 0.07619 0.69357 0.53845 0.0
C363 C 0.12463 0.72089 0.49608 0.0
C364 C 0.06051 0.67551 0.48368 0.0
O365 O 0.02112 0.70521 0.47001 0.0
O366 O 0.93585 0.69511 0.48285 0.0
C367 C 0.8732 0.7064 0.52836 0.0
N368 N 0.90185 0.69597 0.535 0.0
C369 C 0.8625 0.69735 0.57773 0.0
C370 C 0.83213 0.70807 0.5713 0.0
C371 C 0.83756 0.71262 0.54651 0.0
C372 C 0.89703 0.69152 0.5588 0.0
H373 H 0.87776 0.70997 0.50938 0.0
C374 C 0.96499 0.70172 0.46677 0.0
O375 O 0.14731 0.71216 0.48246 0.0
O376 O 0.07694 0.71846 0.51023 0.0
N377 N 0.96345 0.67638 0.54476 0.0
C378 C 0.9963 0.66602 0.54793 0.0
C379 C 0.99658 0.66039 0.57179 0.0
C380 C 0.96261 0.6654 0.59203 0.0
C381 C 0.92806 0.67593 0.58815 0.0
C382 C 0.92922 0.68109 0.56391 0.0
H383 H 0.02271 0.66217 0.53245 0.0
O384 O 0.12901 0.69731 0.52933 0.0
O385 O 0.02668 0.69541 0.52431 0.0
O386 O 0.0962 0.68479 0.48372 0.0
O387 O 0.0068 0.67505 0.4945 0.0
C388 C 0.89326 0.68159 0.60746 0.0
C389 C 0.86053 0.6923 0.60226 0.0
H390 H 0.80487 0.71292 0.58528 0.0
H391 H 0.81455 0.72092 0.54144 0.0
H392 H 0.0232 0.65225 0.57461 0.0
H393 H 0.96343 0.66109 0.61046 0.0
H394 H 0.8917 0.67784 0.62642 0.0
H395 H 0.83428 0.69662 0.6173 0.0
Mn396 Mn 0.17154 0.56602 0.50178 0.0
Mn397 Mn 0.29587 0.58292 0.51755 0.0
C398 C 0.1739 0.5748 0.54111 0.0
C399 C 0.1307 0.54664 0.50059 0.0
C400 C 0.18867 0.59211 0.48523 0.0
O401 O 0.23351 0.5624 0.47386 0.0
O402 O 0.31631 0.5733 0.48642 0.0
C403 C 0.37963 0.56311 0.53295 0.0
N404 N 0.34909 0.57346 0.53872 0.0
C405 C 0.38839 0.5731 0.58156 0.0
C406 C 0.42071 0.56248 0.57602 0.0
C407 C 0.41625 0.55746 0.55161 0.0
C408 C 0.353 0.57837 0.56214 0.0
H409 H 0.37585 0.55917 0.51427 0.0
C410 C 0.28908 0.56622 0.47069 0.0
O411 O 0.10759 0.55501 0.48611 0.0
O412 O 0.1778 0.54951 0.5147 0.0
N413 N 0.28363 0.59275 0.5469 0.0
C414 C 0.24817 0.60283 0.54931 0.0
C415 C 0.24632 0.60882 0.57276 0.0
C416 C 0.28139 0.60446 0.59336 0.0
C417 C 0.31844 0.59418 0.59027 0.0
C418 C 0.31872 0.58863 0.56641 0.0
H419 H 0.22092 0.60619 0.53356 0.0
O420 O 0.12208 0.57066 0.53184 0.0
O421 O 0.22433 0.57302 0.52746 0.0
O422 O 0.15461 0.58262 0.48562 0.0
O423 O 0.24173 0.59306 0.49639 0.0
C424 C 0.35419 0.58911 0.61003 0.0
C425 C 0.38912 0.57857 0.60568 0.0
H426 H 0.44869 0.55806 0.5904 0.0
H427 H 0.44076 0.54923 0.54723 0.0
H428 H 0.21768 0.61676 0.57498 0.0
H429 H 0.27936 0.60903 0.61148 0.0
H430 H 0.3547 0.59317 0.62871 0.0
H431 H 0.416 0.5747 0.62108 0.0
Mn432 Mn 0.88503 0.4515 0.24243 0.0
Mn433 Mn 0.80098 0.45478 0.18882 0.0
C434 C 0.84055 0.4697 0.23376 0.0
C435 C 0.88453 0.44567 0.28496 0.0
C436 C 0.94282 0.45586 0.18983 0.0
O437 O 0.87323 0.43458 0.23073 0.0
O438 O 0.81623 0.43725 0.19525 0.0
C439 C 0.68309 0.44406 0.20776 0.0
N440 N 0.71432 0.45355 0.1976 0.0
C441 C 0.62014 0.4654 0.19662 0.0
C442 C 0.58686 0.45572 0.20691 0.0
C443 C 0.61852 0.44501 0.21255 0.0
C444 C 0.68438 0.46391 0.19219 0.0
H445 H 0.70731 0.43583 0.21221 0.0
C446 C 0.84561 0.43058 0.21115 0.0
O447 O 0.93662 0.44586 0.27205 0.0
O448 O 0.83394 0.44855 0.27295 0.0
N449 N 0.78233 0.47102 0.17992 0.0
C450 C 0.82157 0.4796 0.17065 0.0
C451 C 0.79752 0.49094 0.16455 0.0
C452 C 0.73333 0.49331 0.16776 0.0
C453 C 0.6937 0.48428 0.17696 0.0
C454 C 0.72031 0.47313 0.18266 0.0
H455 H 0.87097 0.47784 0.16823 0.0
O456 O 0.88583 0.46877 0.25004 0.0
O457 O 0.8205 0.45971 0.22364 0.0
O458 O 0.94979 0.45396 0.21371 0.0
O459 O 0.88942 0.45646 0.17882 0.0
C460 C 0.62899 0.48594 0.18099 0.0
C461 C 0.59224 0.47651 0.19083 0.0
H462 H 0.53708 0.45643 0.2107 0.0
H463 H 0.59321 0.43752 0.2206 0.0
H464 H 0.82841 0.49786 0.15745 0.0
H465 H 0.71502 0.50209 0.16317 0.0
H466 H 0.60709 0.49446 0.17677 0.0
H467 H 0.54263 0.47793 0.19403 0.0
Mn468 Mn 0.86 0.31971 0.24041 0.0
Mn469 Mn 0.94814 0.31801 0.18757 0.0
C470 C 0.91311 0.30233 0.23197 0.0
C471 C 0.85614 0.32556 0.28289 0.0
C472 C 0.80626 0.31548 0.18739 0.0
O473 O 0.8646 0.33681 0.22847 0.0
O474 O 0.931 0.3353 0.19539 0.0
C475 C 0.06444 0.32873 0.20804 0.0
N476 N 0.03439 0.31934 0.19693 0.0
C477 C 0.12937 0.30772 0.19592 0.0
C478 C 0.16148 0.31731 0.20718 0.0
C479 C 0.12883 0.32785 0.2133 0.0
C480 C 0.06529 0.30914 0.19103 0.0
H481 H 0.03939 0.33682 0.2129 0.0
C482 C 0.89579 0.34141 0.21034 0.0
O483 O 0.80485 0.32433 0.26972 0.0
O484 O 0.90847 0.32365 0.27123 0.0
N485 N 0.96834 0.30197 0.17766 0.0
C486 C 0.93008 0.29344 0.16757 0.0
C487 C 0.95519 0.28225 0.16087 0.0
C488 C 0.01939 0.27999 0.16439 0.0
C489 C 0.058 0.28897 0.17446 0.0
C490 C 0.0304 0.29997 0.18066 0.0
H491 H 0.88069 0.29512 0.16485 0.0
O492 O 0.86733 0.30245 0.24813 0.0
O493 O 0.92836 0.31262 0.22198 0.0
O494 O 0.79777 0.31613 0.21146 0.0
O495 O 0.8601 0.31627 0.17677 0.0
C496 C 0.1226 0.28739 0.17892 0.0
C497 C 0.15825 0.29676 0.18967 0.0
H498 H 0.21107 0.31664 0.21136 0.0
H499 H 0.15321 0.33526 0.22211 0.0
H500 H 0.9251 0.27537 0.15307 0.0
H501 H 0.0385 0.27132 0.15935 0.0
H502 H 0.14523 0.27898 0.17436 0.0
H503 H 0.20776 0.2954 0.19322 0.0
Mn504 Mn 0.88661 0.31656 0.51506 0.0
Mn505 Mn 0.8 0.31575 0.56837 0.0
C506 C 0.83549 0.29923 0.52532 0.0
C507 C 0.88861 0.32192 0.47226 0.0
C508 C 0.9419 0.31358 0.56831 0.0
O509 O 0.87967 0.33383 0.52518 0.0
O510 O 0.81631 0.33296 0.55922 0.0
C511 C 0.6829 0.32596 0.54746 0.0
N512 N 0.71355 0.31679 0.55914 0.0
C513 C 0.61919 0.30501 0.56107 0.0
C514 C 0.58648 0.31437 0.54923 0.0
C515 C 0.61852 0.32488 0.54237 0.0
C516 C 0.68323 0.30663 0.56579 0.0
H517 H 0.70747 0.33402 0.54202 0.0
C518 C 0.84934 0.33882 0.54304 0.0
O519 O 0.94046 0.321 0.48519 0.0
O520 O 0.83696 0.3197 0.48416 0.0
N521 N 0.78063 0.29986 0.57954 0.0
C522 C 0.81947 0.29154 0.59006 0.0
C523 C 0.79504 0.2804 0.59749 0.0
C524 C 0.73094 0.27796 0.5942 0.0
C525 C 0.69175 0.28673 0.58363 0.0
C526 C 0.71867 0.29769 0.57673 0.0
H527 H 0.8688 0.29335 0.59258 0.0
O528 O 0.88113 0.29914 0.50907 0.0
O529 O 0.81942 0.30968 0.53438 0.0
O530 O 0.94995 0.31388 0.54417 0.0
O531 O 0.88818 0.31433 0.579 0.0
C532 C 0.62722 0.28495 0.57933 0.0
C533 C 0.59098 0.29408 0.56804 0.0
H534 H 0.53689 0.31355 0.54516 0.0
H535 H 0.59367 0.33211 0.5331 0.0
H536 H 0.82558 0.27368 0.60566 0.0
H537 H 0.71237 0.26933 0.59978 0.0
H538 H 0.60511 0.27655 0.58443 0.0
H539 H 0.54153 0.29258 0.56463 0.0
Mn540 Mn 0.8658 0.45106 0.51841 0.0
Mn541 Mn 0.94938 0.45174 0.57251 0.0
C542 C 0.91386 0.46849 0.53017 0.0
C543 C 0.86511 0.4467 0.47512 0.0
C544 C 0.80796 0.4538 0.57149 0.0
O545 O 0.8762 0.43371 0.52689 0.0
O546 O 0.93128 0.43458 0.5632 0.0
C547 C 0.06579 0.44098 0.55216 0.0
N548 N 0.03597 0.45028 0.56372 0.0
C549 C 0.13196 0.46154 0.56645 0.0
C550 C 0.16377 0.45204 0.55473 0.0
C551 C 0.1305 0.44172 0.54752 0.0
C552 C 0.0675 0.46026 0.57067 0.0
H553 H 0.04035 0.43306 0.54648 0.0
C554 C 0.9028 0.42871 0.54567 0.0
O555 O 0.81318 0.44675 0.48813 0.0
O556 O 0.91619 0.44905 0.48732 0.0
N557 N 0.9706 0.46752 0.58387 0.0
C558 C 0.93259 0.47604 0.59417 0.0
C559 C 0.95837 0.48702 0.60192 0.0
C560 C 0.02296 0.48909 0.59917 0.0
C561 C 0.06124 0.48015 0.58875 0.0
C562 C 0.03295 0.46936 0.58149 0.0
H563 H 0.88288 0.47452 0.5962 0.0
O564 O 0.86791 0.46859 0.51405 0.0
O565 O 0.93161 0.458 0.53848 0.0
O566 O 0.80118 0.45274 0.54739 0.0
O567 O 0.86121 0.45365 0.58266 0.0
C568 C 0.1262 0.48157 0.58498 0.0
C569 C 0.16152 0.47228 0.57382 0.0
H570 H 0.21364 0.4526 0.55104 0.0
H571 H 0.15467 0.43438 0.53836 0.0
H572 H 0.9285 0.49389 0.60991 0.0
H573 H 0.04261 0.4976 0.60502 0.0
H574 H 0.14938 0.48981 0.59041 0.0
H575 H 0.21134 0.47351 0.57082 0.0
Mn576 Mn 0.58461 0.0656 0.76089 0.0
Mn577 Mn 0.45946 0.08228 0.74507 0.0
C578 C 0.58108 0.0741 0.72128 0.0
C579 C 0.62537 0.04621 0.76258 0.0
C580 C 0.56704 0.09177 0.77681 0.0
O581 O 0.52344 0.06218 0.7892 0.0
O582 O 0.43982 0.07282 0.77652 0.0
C583 C 0.37599 0.06229 0.73043 0.0
N584 N 0.40622 0.07263 0.72428 0.0
C585 C 0.36647 0.07196 0.68154 0.0
C586 C 0.33448 0.06134 0.68746 0.0
C587 C 0.33932 0.05649 0.71201 0.0
C588 C 0.40195 0.07738 0.70073 0.0
H589 H 0.38006 0.05849 0.74922 0.0
C590 C 0.46778 0.06594 0.79243 0.0
O591 O 0.64896 0.05469 0.77665 0.0
O592 O 0.57806 0.049 0.74853 0.0
N593 N 0.47093 0.09195 0.71543 0.0
C594 C 0.50584 0.10208 0.71269 0.0
C595 C 0.50715 0.10794 0.68909 0.0
C596 C 0.47211 0.10338 0.66866 0.0
C597 C 0.43559 0.09307 0.6721 0.0
C598 C 0.43583 0.08766 0.6961 0.0
H599 H 0.53306 0.10559 0.72832 0.0
O600 O 0.63322 0.07005 0.73042 0.0
O601 O 0.53111 0.0724 0.73523 0.0
O602 O 0.60157 0.08233 0.77646 0.0
O603 O 0.51366 0.09259 0.76584 0.0
C604 C 0.39979 0.08782 0.65255 0.0
C605 C 0.36527 0.07727 0.65726 0.0
H606 H 0.30643 0.05681 0.67326 0.0
H607 H 0.31504 0.04827 0.71668 0.0
H608 H 0.53536 0.11591 0.6866 0.0
H609 H 0.47372 0.10786 0.65042 0.0
H610 H 0.39889 0.09177 0.63376 0.0
H611 H 0.33832 0.07327 0.64202 0.0
Mn612 Mn 0.66791 0.20138 0.76034 0.0
Mn613 Mn 0.79072 0.18472 0.74201 0.0
C614 C 0.66567 0.19229 0.72129 0.0
C615 C 0.62268 0.22038 0.76098 0.0
C616 C 0.6889 0.17509 0.77589 0.0
O617 O 0.73364 0.20585 0.78637 0.0
O618 O 0.81093 0.19348 0.7742 0.0
C619 C 0.8717 0.20527 0.72857 0.0
N620 N 0.84205 0.19497 0.72171 0.0
C621 C 0.87854 0.19679 0.67864 0.0
C622 C 0.90989 0.20737 0.68528 0.0
C623 C 0.90641 0.21163 0.71036 0.0
C624 C 0.84502 0.1908 0.69764 0.0
H625 H 0.86864 0.20863 0.74777 0.0
C626 C 0.78715 0.20109 0.7897 0.0
O627 O 0.6045 0.21223 0.77708 0.0
O628 O 0.66816 0.21765 0.74596 0.0
N629 N 0.77868 0.17563 0.71161 0.0
C630 C 0.74501 0.16538 0.70828 0.0
C631 C 0.74273 0.16005 0.68414 0.0
C632 C 0.77563 0.16522 0.6638 0.0
C633 C 0.81111 0.17562 0.66784 0.0
C634 C 0.8119 0.1805 0.69234 0.0
H635 H 0.7194 0.16142 0.72386 0.0
O636 O 0.61455 0.19597 0.73193 0.0
O637 O 0.71773 0.19451 0.73356 0.0
O638 O 0.65683 0.18481 0.77779 0.0
O639 O 0.73825 0.17397 0.76227 0.0
C640 C 0.84488 0.18146 0.64845 0.0
C641 C 0.87854 0.19203 0.65384 0.0
H642 H 0.93641 0.21235 0.67126 0.0
H643 H 0.93018 0.21983 0.7156 0.0
H644 H 0.71539 0.152 0.68119 0.0
H645 H 0.77325 0.16115 0.64515 0.0
H646 H 0.84489 0.17793 0.62928 0.0
H647 H 0.90395 0.19648 0.63873 0.0
Mn648 Mn 0.57765 0.20141 0.49948 0.0
Mn649 Mn 0.45071 0.18515 0.51483 0.0
C650 C 0.57242 0.19295 0.53906 0.0
C651 C 0.61997 0.22069 0.49796 0.0
C652 C 0.55838 0.17526 0.48368 0.0
O653 O 0.51754 0.205 0.47088 0.0
O654 O 0.43272 0.19462 0.48324 0.0
C655 C 0.36889 0.20546 0.52899 0.0
N656 N 0.39797 0.19503 0.53534 0.0
C657 C 0.35794 0.196 0.57801 0.0
C658 C 0.32712 0.20672 0.57188 0.0
C659 C 0.33267 0.21146 0.54727 0.0
C660 C 0.39302 0.19038 0.55897 0.0
H661 H 0.37354 0.20919 0.51015 0.0
C662 C 0.46164 0.20141 0.46743 0.0
O663 O 0.6433 0.21214 0.48401 0.0
O664 O 0.57204 0.21803 0.51178 0.0
N665 N 0.46054 0.1755 0.54459 0.0
C666 C 0.4941 0.1652 0.5475 0.0
C667 C 0.49443 0.1594 0.57118 0.0
C668 C 0.45981 0.16418 0.59149 0.0
C669 C 0.42461 0.17465 0.58787 0.0
C670 C 0.42575 0.17999 0.5638 0.0
H671 H 0.52101 0.16153 0.53197 0.0
O672 O 0.62511 0.19685 0.53016 0.0
O673 O 0.52297 0.1948 0.5249 0.0
O674 O 0.5936 0.1846 0.48407 0.0
O675 O 0.50459 0.17463 0.49438 0.0
C676 C 0.38922 0.1801 0.60728 0.0
C677 C 0.35594 0.19077 0.60237 0.0
H678 H 0.29943 0.21141 0.58597 0.0
H679 H 0.30931 0.21976 0.54243 0.0
H680 H 0.52158 0.15131 0.5738 0.0
H681 H 0.46068 0.15975 0.60979 0.0
H682 H 0.38767 0.17621 0.62612 0.0
H683 H 0.32928 0.19493 0.6175 0.0
Mn684 Mn 0.66605 0.06548 0.49905 0.0
Mn685 Mn 0.79108 0.08201 0.51572 0.0
C686 C 0.66844 0.07389 0.53875 0.0
C687 C 0.62477 0.04614 0.49693 0.0
C688 C 0.68474 0.09168 0.48353 0.0
O689 O 0.72815 0.06204 0.47106 0.0
O690 O 0.81159 0.07258 0.48433 0.0
C691 C 0.87341 0.0619 0.53071 0.0
N692 N 0.84333 0.07227 0.53674 0.0
C693 C 0.88153 0.07149 0.57971 0.0
C694 C 0.91337 0.06084 0.57391 0.0
C695 C 0.90924 0.05603 0.54931 0.0
C696 C 0.84693 0.07698 0.56035 0.0
H697 H 0.86986 0.05813 0.51188 0.0
C698 C 0.78409 0.06573 0.46822 0.0
O699 O 0.6019 0.05468 0.48283 0.0
O700 O 0.67171 0.04884 0.51127 0.0
N701 N 0.77885 0.09164 0.54535 0.0
C702 C 0.74412 0.10181 0.54797 0.0
C703 C 0.74215 0.10763 0.5716 0.0
C704 C 0.77635 0.103 0.59219 0.0
C705 C 0.81273 0.09266 0.58889 0.0
C706 C 0.81318 0.08729 0.56486 0.0
H707 H 0.71753 0.10536 0.53222 0.0
O708 O 0.61651 0.06991 0.52928 0.0
O709 O 0.71884 0.07217 0.52507 0.0
O710 O 0.65002 0.08227 0.48357 0.0
O711 O 0.73785 0.09241 0.49474 0.0
C712 C 0.84767 0.08735 0.60861 0.0
C713 C 0.88202 0.07676 0.60403 0.0
H714 H 0.94075 0.05625 0.58824 0.0
H715 H 0.93338 0.04778 0.54473 0.0
H716 H 0.71406 0.11562 0.57398 0.0
H717 H 0.77421 0.10745 0.61046 0.0
H718 H 0.848 0.09126 0.62744 0.0
H719 H 0.90829 0.07271 0.6194 0.0
Mn720 Mn 0.3697 0.95197 0.24016 0.0
Mn721 Mn 0.28736 0.95369 0.18581 0.0
C722 C 0.32954 0.97005 0.22802 0.0
C723 C 0.36865 0.94759 0.28344 0.0
C724 C 0.42903 0.95351 0.18712 0.0
O725 O 0.35254 0.93479 0.23179 0.0
O726 O 0.29799 0.93636 0.19544 0.0
C727 C 0.16635 0.94492 0.20604 0.0
N728 N 0.20031 0.95366 0.19438 0.0
C729 C 0.10937 0.96628 0.19059 0.0
C730 C 0.0733 0.95738 0.2024 0.0
C731 C 0.10197 0.94667 0.21022 0.0
C732 C 0.17329 0.96402 0.18692 0.0
H733 H 0.18825 0.93668 0.21211 0.0
C734 C 0.32414 0.93016 0.21303 0.0
O735 O 0.42038 0.9469 0.27039 0.0
O736 O 0.31859 0.95073 0.2713 0.0
N737 N 0.27331 0.96967 0.174 0.0
C738 C 0.31505 0.97746 0.16348 0.0
C739 C 0.29418 0.98872 0.15514 0.0
C740 C 0.23057 0.9918 0.15744 0.0
C741 C 0.18836 0.98357 0.16803 0.0
C742 C 0.21188 0.97248 0.17599 0.0
H743 H 0.36396 0.97512 0.16163 0.0
O744 O 0.37481 0.96945 0.24442 0.0
O745 O 0.30725 0.95986 0.21979 0.0
O746 O 0.43512 0.95271 0.21129 0.0
O747 O 0.37608 0.95404 0.1758 0.0
C748 C 0.12399 0.98597 0.17121 0.0
C749 C 0.08454 0.97734 0.18251 0.0
H750 H 0.02365 0.9587 0.20569 0.0
H751 H 0.0745 0.93978 0.21944 0.0
H752 H 0.32703 0.99502 0.14696 0.0
H753 H 0.21468 1.0005 0.15104 0.0
H754 H 0.10442 0.99446 0.16518 0.0
H755 H 0.03523 0.97933 0.18502 0.0
Mn756 Mn 0.36637 0.81789 0.23979 0.0
Mn757 Mn 0.44958 0.8186 0.1856 0.0
C758 C 0.42063 0.80119 0.22783 0.0
C759 C 0.36598 0.82256 0.28296 0.0
C760 C 0.30862 0.81496 0.18694 0.0
O761 O 0.36792 0.83531 0.23068 0.0
O762 O 0.42875 0.83551 0.19587 0.0
C763 C 0.56468 0.82974 0.20618 0.0
N764 N 0.53608 0.82043 0.19417 0.0
C765 C 0.63356 0.80971 0.19064 0.0
C766 C 0.66418 0.81923 0.20281 0.0
C767 C 0.62955 0.82928 0.21066 0.0
C768 C 0.56888 0.8107 0.18666 0.0
H769 H 0.53813 0.83745 0.21235 0.0
C770 C 0.39506 0.84082 0.21268 0.0
O771 O 0.31356 0.82139 0.27051 0.0
O772 O 0.41727 0.82105 0.27034 0.0
N773 N 0.47286 0.80311 0.17326 0.0
C774 C 0.436 0.79459 0.16228 0.0
C775 C 0.46326 0.78387 0.15372 0.0
C776 C 0.52813 0.78208 0.1563 0.0
C777 C 0.56522 0.79105 0.16733 0.0
C778 C 0.53548 0.80156 0.17541 0.0
H779 H 0.38612 0.79592 0.16024 0.0
O780 O 0.37643 0.8005 0.24465 0.0
O781 O 0.43386 0.81188 0.21933 0.0
O782 O 0.30195 0.81497 0.21117 0.0
O783 O 0.36137 0.81637 0.17575 0.0
C784 C 0.63043 0.78992 0.17085 0.0
C785 C 0.66456 0.79924 0.18254 0.0
H786 H 0.71417 0.81889 0.20636 0.0
H787 H 0.6528 0.83663 0.22017 0.0
H788 H 0.43432 0.77701 0.14518 0.0
H789 H 0.54894 0.77379 0.14976 0.0
H790 H 0.65473 0.7819 0.1648 0.0
H791 H 0.71459 0.79823 0.18533 0.0
Mn792 Mn 0.39497 0.81696 0.51461 0.0
Mn793 Mn 0.30212 0.81509 0.56602 0.0
C794 C 0.34169 0.7995 0.522 0.0
C795 C 0.40098 0.82313 0.47239 0.0
C796 C 0.44412 0.81279 0.56831 0.0
O797 O 0.38894 0.834 0.52677 0.0
O798 O 0.31849 0.83244 0.55841 0.0
C799 C 0.18687 0.82547 0.54386 0.0
N800 N 0.21669 0.81616 0.55538 0.0
C801 C 0.12294 0.80418 0.55456 0.0
C802 C 0.09106 0.81368 0.54287 0.0
C803 C 0.1232 0.82437 0.53748 0.0
C804 C 0.18623 0.80584 0.56065 0.0
H805 H 0.21158 0.83366 0.53951 0.0
C806 C 0.3553 0.83858 0.54417 0.0
O807 O 0.45169 0.82183 0.4859 0.0
O808 O 0.34822 0.821 0.4835 0.0
N809 N 0.28243 0.79898 0.57558 0.0
C810 C 0.32056 0.79054 0.58609 0.0
C811 C 0.29601 0.77922 0.5921 0.0
C812 C 0.2325 0.77673 0.58741 0.0
C813 C 0.19398 0.78562 0.57691 0.0
C814 C 0.22095 0.79677 0.5715 0.0
H815 H 0.36946 0.79239 0.58964 0.0
O816 O 0.38873 0.79972 0.50646 0.0
O817 O 0.3255 0.80975 0.53197 0.0
O818 O 0.45496 0.81333 0.54436 0.0
O819 O 0.38929 0.81361 0.57805 0.0
C820 C 0.13017 0.78379 0.57119 0.0
C821 C 0.09468 0.79307 0.56002 0.0
H822 H 0.04206 0.81284 0.53778 0.0
H823 H 0.09901 0.83172 0.52834 0.0
H824 H 0.32603 0.77241 0.60022 0.0
H825 H 0.21389 0.76795 0.59184 0.0
H826 H 0.10809 0.77525 0.57507 0.0
H827 H 0.04581 0.79152 0.55549 0.0
Mn828 Mn 0.35928 0.95 0.51664 0.0
Mn829 Mn 0.44985 0.95152 0.56878 0.0
C830 C 0.40983 0.96758 0.52574 0.0
C831 C 0.35488 0.9448 0.47376 0.0
C832 C 0.30776 0.95318 0.5704 0.0
O833 O 0.36807 0.93277 0.5272 0.0
O834 O 0.43447 0.93422 0.56028 0.0
C835 C 0.56628 0.94156 0.54677 0.0
N836 N 0.53566 0.9507 0.55853 0.0
C837 C 0.62892 0.96282 0.55884 0.0
C838 C 0.6616 0.9535 0.54689 0.0
C839 C 0.63011 0.94282 0.54081 0.0
C840 C 0.56548 0.96101 0.56447 0.0
H841 H 0.5421 0.93337 0.5419 0.0
C842 C 0.40016 0.92811 0.54498 0.0
O843 O 0.30391 0.94531 0.48735 0.0
O844 O 0.40703 0.94702 0.48528 0.0
N845 N 0.46852 0.96755 0.5792 0.0
C846 C 0.42964 0.97583 0.58984 0.0
C847 C 0.45348 0.98712 0.59652 0.0
C848 C 0.51704 0.98975 0.59233 0.0
C849 C 0.55631 0.98103 0.58164 0.0
C850 C 0.53001 0.96991 0.57555 0.0
H851 H 0.38069 0.97386 0.59301 0.0
O852 O 0.36278 0.96743 0.51019 0.0
O853 O 0.42731 0.95724 0.53489 0.0
O854 O 0.29798 0.95264 0.54639 0.0
O855 O 0.36231 0.95271 0.58048 0.0
C856 C 0.62024 0.98301 0.57641 0.0
C857 C 0.65652 0.97392 0.56501 0.0
H858 H 0.71074 0.95447 0.54213 0.0
H859 H 0.65494 0.93561 0.53147 0.0
H860 H 0.42288 0.9938 0.60476 0.0
H861 H 0.53513 0.99851 0.5973 0.0
H862 H 0.64184 0.99154 0.58084 0.0
H863 H 0.70548 0.97558 0.56086 0.0
Mn864 Mn 0.59199 0.56726 0.26407 0.0
Mn865 Mn 0.4572 0.58033 0.2462 0.0
C866 C 0.58352 0.57466 0.22363 0.0
C867 C 0.64665 0.54935 0.26784 0.0
C868 C 0.55679 0.59322 0.27671 0.0
O869 O 0.53291 0.56286 0.29252 0.0
O870 O 0.44388 0.57147 0.27894 0.0
C871 C 0.38817 0.55801 0.23459 0.0
N872 N 0.41146 0.56877 0.22689 0.0
C873 C 0.37486 0.56556 0.1842 0.0
C874 C 0.35004 0.55449 0.19171 0.0
C875 C 0.35676 0.5507 0.21702 0.0
C876 C 0.40534 0.5725 0.20259 0.0
H877 H 0.39376 0.55503 0.25397 0.0
C878 C 0.47541 0.56552 0.29545 0.0
O879 O 0.66331 0.55866 0.28112 0.0
O880 O 0.59822 0.55039 0.25336 0.0
N881 N 0.46242 0.58922 0.21521 0.0
C882 C 0.48921 0.60012 0.21107 0.0
C883 C 0.48725 0.60516 0.18663 0.0
C884 C 0.45726 0.59898 0.16681 0.0
C885 C 0.42879 0.5879 0.17168 0.0
C886 C 0.43189 0.58337 0.19645 0.0
H887 H 0.51259 0.60487 0.22623 0.0
O888 O 0.63786 0.57228 0.23329 0.0
O889 O 0.5349 0.57199 0.23765 0.0
O890 O 0.59641 0.58457 0.27793 0.0
O891 O 0.50384 0.59254 0.26534 0.0
C892 C 0.39808 0.5811 0.15288 0.0
C893 C 0.37116 0.56994 0.15913 0.0
H894 H 0.32606 0.54879 0.17818 0.0
H895 H 0.33801 0.54213 0.22293 0.0
H896 H 0.50912 0.61373 0.18305 0.0
H897 H 0.45637 0.60284 0.14793 0.0
H898 H 0.39518 0.58434 0.13352 0.0
H899 H 0.34797 0.56477 0.14448 0.0
Mn900 Mn 0.66657 0.70323 0.25835 0.0
Mn901 Mn 0.78777 0.68515 0.24439 0.0
C902 C 0.66922 0.69416 0.21933 0.0
C903 C 0.6302 0.72292 0.25872 0.0
C904 C 0.67632 0.67713 0.27569 0.0
O905 O 0.7273 0.7064 0.28696 0.0
O906 O 0.80835 0.69477 0.27547 0.0
C907 C 0.87689 0.70416 0.2294 0.0
N908 N 0.84449 0.69402 0.22357 0.0
C909 C 0.8869 0.69374 0.18123 0.0
C910 C 0.92115 0.70413 0.18683 0.0
C911 C 0.91605 0.70937 0.21102 0.0
C912 C 0.84895 0.68892 0.20037 0.0
H913 H 0.87266 0.70826 0.2479 0.0
C914 C 0.78166 0.7021 0.29081 0.0
O915 O 0.60433 0.71481 0.2731 0.0
O916 O 0.67761 0.71962 0.24521 0.0
N917 N 0.7754 0.67522 0.21521 0.0
C918 C 0.73821 0.66537 0.21274 0.0
C919 C 0.73687 0.6592 0.1895 0.0
C920 C 0.77429 0.66313 0.16918 0.0
C921 C 0.81316 0.67315 0.17237 0.0
C922 C 0.81278 0.6789 0.19601 0.0
H923 H 0.70922 0.66233 0.22828 0.0
O924 O 0.61803 0.69889 0.22785 0.0
O925 O 0.71921 0.69557 0.23344 0.0
O926 O 0.64448 0.68688 0.27461 0.0
O927 O 0.7299 0.67563 0.26522 0.0
C928 C 0.85144 0.67778 0.1529 0.0
C929 C 0.88826 0.68807 0.15732 0.0
H930 H 0.95114 0.70821 0.17266 0.0
H931 H 0.94206 0.71742 0.21544 0.0
H932 H 0.70687 0.65146 0.18721 0.0
H933 H 0.77268 0.65842 0.15121 0.0
H934 H 0.85251 0.67356 0.13438 0.0
H935 H 0.91711 0.6916 0.14214 0.0
Mn936 Mn 0.58296 0.70133 0.99845 0.0
Mn937 Mn 0.45944 0.68416 0.01402 0.0
C938 C 0.58047 0.69268 0.0379 0.0
C939 C 0.62138 0.7209 0.99704 0.0
C940 C 0.56798 0.67515 0.98221 0.0
O941 O 0.52156 0.70459 0.97017 0.0
O942 O 0.43886 0.69366 0.98274 0.0
C943 C 0.37423 0.70382 0.02901 0.0
N944 N 0.40524 0.69354 0.03496 0.0
C945 C 0.365 0.69386 0.07764 0.0
C946 C 0.33217 0.7044 0.07192 0.0
C947 C 0.33688 0.70941 0.04751 0.0
C948 C 0.40111 0.68865 0.05838 0.0
H949 H 0.3782 0.70774 0.01032 0.0
C950 C 0.46624 0.70066 0.9669 0.0
O951 O 0.64604 0.71257 0.98287 0.0
O952 O 0.57443 0.71786 0.01104 0.0
N953 N 0.47176 0.67442 0.04349 0.0
C954 C 0.5078 0.66442 0.04609 0.0
C955 C 0.50951 0.65846 0.06957 0.0
C956 C 0.4737 0.66277 0.09002 0.0
C957 C 0.43604 0.67294 0.08673 0.0
C958 C 0.43595 0.67847 0.06284 0.0
H959 H 0.53561 0.6611 0.03046 0.0
O960 O 0.63209 0.697 0.02882 0.0
O961 O 0.53023 0.69424 0.02402 0.0
O962 O 0.60171 0.68469 0.98269 0.0
O963 O 0.51463 0.67413 0.99312 0.0
C964 C 0.39955 0.67796 0.10633 0.0
C965 C 0.36407 0.68841 0.10179 0.0
H966 H 0.30362 0.70878 0.08618 0.0
H967 H 0.31198 0.71758 0.04299 0.0
H968 H 0.53861 0.6506 0.07195 0.0
H969 H 0.47562 0.65822 0.10817 0.0
H970 H 0.39889 0.67392 0.12503 0.0
H971 H 0.33663 0.69225 0.11708 0.0
Mn972 Mn 0.67599 0.56555 1.00076 0.0
Mn973 Mn 0.79779 0.58249 0.0193 0.0
C974 C 0.67461 0.57395 0.04048 0.0
C975 C 0.6357 0.54614 0.99828 0.0
C976 C 0.69357 0.59198 0.98608 0.0
O977 O 0.74082 0.56209 0.97379 0.0
O978 O 0.81995 0.57376 0.98726 0.0
C979 C 0.88117 0.56238 0.03325 0.0
N980 N 0.84982 0.57253 0.03992 0.0
C981 C 0.88492 0.5709 0.08322 0.0
C982 C 0.91802 0.56048 0.07678 0.0
C983 C 0.91609 0.5562 0.05168 0.0
C984 C 0.85125 0.57671 0.06401 0.0
H985 H 0.87928 0.55902 0.01403 0.0
C986 C 0.79527 0.56654 0.97114 0.0
O987 O 0.6137 0.55461 0.98376 0.0
O988 O 0.68123 0.54896 0.01324 0.0
N989 N 0.78365 0.59157 0.04958 0.0
C990 C 0.74894 0.60171 0.05263 0.0
C991 C 0.74529 0.60708 0.07671 0.0
C992 C 0.77785 0.60203 0.0973 0.0
C993 C 0.81444 0.59175 0.09354 0.0
C994 C 0.81663 0.58685 0.06907 0.0
H995 H 0.72359 0.60557 0.03687 0.0
O996 O 0.62358 0.56998 0.03023 0.0
O997 O 0.72614 0.57232 0.02749 0.0
O998 O 0.66079 0.58233 0.98484 0.0
O999 O 0.74451 0.59301 0.99873 0.0
C1000 C 0.84823 0.58609 0.11315 0.0
C1001 C 0.88341 0.57566 0.108 0.0
H1002 H 0.94474 0.55565 0.09097 0.0
H1003 H 0.94123 0.54813 0.0466 0.0
H1004 H 0.71715 0.61504 0.07943 0.0
H1005 H 0.77442 0.60613 0.1159 0.0
H1006 H 0.8472 0.58964 0.1323 0.0
H1007 H 0.90891 0.57135 0.12327 0.0
Mn1008 Mn 0.37836 0.4496 0.74122 0.0
Mn1009 Mn 0.29208 0.45129 0.68784 0.0
C1010 C 0.32503 0.46693 0.73248 0.0
C1011 C 0.38218 0.44384 0.78369 0.0
C1012 C 0.43343 0.45424 0.68842 0.0
O1013 O 0.37418 0.43249 0.7296 0.0
O1014 O 0.31219 0.43403 0.69515 0.0
C1015 C 0.17739 0.43961 0.70746 0.0
N1016 N 0.20591 0.44929 0.6968 0.0
C1017 C 0.10872 0.46022 0.69561 0.0
C1018 C 0.07819 0.45033 0.7064 0.0
C1019 C 0.11271 0.43999 0.71239 0.0
C1020 C 0.1732 0.4593 0.69105 0.0
H1021 H 0.20383 0.43167 0.71219 0.0
C1022 C 0.34574 0.42792 0.71074 0.0
O1023 O 0.43346 0.44507 0.77052 0.0
O1024 O 0.32978 0.44575 0.77204 0.0
N1025 N 0.26902 0.46724 0.67834 0.0
C1026 C 0.30585 0.47611 0.6687 0.0
C1027 C 0.27873 0.48715 0.66217 0.0
C1028 C 0.21402 0.48892 0.66541 0.0
C1029 C 0.17694 0.4796 0.67505 0.0
C1030 C 0.20654 0.46877 0.68111 0.0
H1031 H 0.35563 0.47482 0.66623 0.0
O1032 O 0.37081 0.46687 0.74864 0.0
O1033 O 0.31003 0.45661 0.72251 0.0
O1034 O 0.44113 0.45305 0.71243 0.0
O1035 O 0.37995 0.45374 0.67745 0.0
C1036 C 0.11193 0.48068 0.67918 0.0
C1037 C 0.07786 0.471 0.68948 0.0
H1038 H 0.02836 0.4506 0.71031 0.0
H1039 H 0.08954 0.43234 0.72083 0.0
H1040 H 0.30766 0.4943 0.65473 0.0
H1041 H 0.19334 0.49747 0.66049 0.0
H1042 H 0.08776 0.48894 0.67469 0.0
H1043 H 0.02799 0.47197 0.69277 0.0
Mn1044 Mn 0.3665 0.31699 0.74071 0.0
Mn1045 Mn 0.45605 0.31543 0.6883 0.0
C1046 C 0.41692 0.29942 0.73152 0.0
C1047 C 0.36315 0.32227 0.78356 0.0
C1048 C 0.314 0.31361 0.6871 0.0
O1049 O 0.37444 0.33419 0.72991 0.0
O1050 O 0.44013 0.33274 0.69661 0.0
C1051 C 0.5722 0.32556 0.71025 0.0
N1052 N 0.54178 0.31634 0.69865 0.0
C1053 C 0.63494 0.30419 0.6991 0.0
C1054 C 0.66742 0.31358 0.71088 0.0
C1055 C 0.63588 0.32431 0.71651 0.0
C1056 C 0.5716 0.30597 0.69324 0.0
H1057 H 0.54798 0.33378 0.71475 0.0
C1058 C 0.40579 0.33883 0.71191 0.0
O1059 O 0.31183 0.32172 0.77019 0.0
O1060 O 0.41503 0.32007 0.77184 0.0
N1061 N 0.4752 0.29942 0.67795 0.0
C1062 C 0.43705 0.29123 0.66657 0.0
C1063 C 0.46127 0.27997 0.65986 0.0
C1064 C 0.52449 0.27729 0.66472 0.0
C1065 C 0.56311 0.28594 0.67599 0.0
C1066 C 0.53648 0.29704 0.68209 0.0
H1067 H 0.3884 0.29324 0.66284 0.0
O1068 O 0.37053 0.29957 0.74739 0.0
O1069 O 0.43399 0.30975 0.72222 0.0
O1070 O 0.3047 0.31422 0.71115 0.0
O1071 O 0.36833 0.31411 0.6768 0.0
C1072 C 0.62689 0.28398 0.68156 0.0
C1073 C 0.66276 0.29309 0.69313 0.0
H1074 H 0.71648 0.31264 0.71581 0.0
H1075 H 0.66055 0.33158 0.7257 0.0
H1076 H 0.43121 0.27335 0.65108 0.0
H1077 H 0.54287 0.26856 0.6597 0.0
H1078 H 0.64875 0.27548 0.67712 0.0
H1079 H 0.71167 0.29145 0.69744 0.0
Mn1080 Mn 0.37379 0.31634 0.01746 0.0
Mn1081 Mn 0.28849 0.31594 0.07112 0.0
C1082 C 0.32488 0.29898 0.02921 0.0
C1083 C 0.37547 0.32061 0.97412 0.0
C1084 C 0.43024 0.31425 0.07082 0.0
O1085 O 0.3637 0.33375 0.02586 0.0
O1086 O 0.30464 0.33307 0.06119 0.0
C1087 C 0.17104 0.32592 0.05001 0.0
N1088 N 0.20192 0.31687 0.06201 0.0
C1089 C 0.10766 0.3051 0.06468 0.0
C1090 C 0.07473 0.31433 0.05251 0.0
C1091 C 0.1066 0.32478 0.04511 0.0
C1092 C 0.17175 0.30677 0.06917 0.0
H1093 H 0.19547 0.33393 0.04416 0.0
C1094 C 0.335 0.33884 0.04404 0.0
O1095 O 0.42712 0.32054 0.98732 0.0
O1096 O 0.32407 0.31834 0.98617 0.0
N1097 N 0.26939 0.30015 0.08297 0.0
C1098 C 0.3085 0.29192 0.09363 0.0
C1099 C 0.28428 0.28083 0.10154 0.0
C1100 C 0.22012 0.27837 0.09857 0.0
C1101 C 0.18069 0.28703 0.08779 0.0
C1102 C 0.20742 0.29794 0.08039 0.0
H1103 H 0.35789 0.29376 0.09589 0.0
O1104 O 0.37116 0.29879 0.01324 0.0
O1105 O 0.3075 0.30951 0.03736 0.0
O1106 O 0.43769 0.31464 0.04667 0.0
O1107 O 0.37669 0.31465 0.08171 0.0
C1108 C 0.11609 0.28521 0.08376 0.0
C1109 C 0.07961 0.29423 0.0722 0.0
H1110 H 0.02509 0.31346 0.04859 0.0
H1111 H 0.08157 0.33191 0.03559 0.0
H1112 H 0.31502 0.27419 0.10984 0.0
H1113 H 0.20169 0.26978 0.10455 0.0
H1114 H 0.0941 0.27686 0.08927 0.0
H1115 H 0.03011 0.29268 0.06898 0.0
Mn1116 Mn 0.36387 0.45099 0.01611 0.0
Mn1117 Mn 0.45258 0.45128 0.06889 0.0
C1118 C 0.41729 0.46806 0.02635 0.0
C1119 C 0.35873 0.44595 0.97326 0.0
C1120 C 0.31143 0.45439 0.06984 0.0
O1121 O 0.36963 0.43367 0.02557 0.0
O1122 O 0.43158 0.43418 0.06004 0.0
C1123 C 0.56581 0.43997 0.04704 0.0
N1124 N 0.53815 0.44942 0.0589 0.0
C1125 C 0.6354 0.46034 0.05978 0.0
C1126 C 0.66506 0.45067 0.04775 0.0
C1127 C 0.63007 0.44045 0.04132 0.0
C1128 C 0.57133 0.45931 0.06513 0.0
H1129 H 0.539 0.43213 0.04192 0.0
C1130 C 0.39848 0.42851 0.04357 0.0
O1131 O 0.30778 0.44697 0.98671 0.0
O1132 O 0.41136 0.4479 0.98468 0.0
N1133 N 0.47658 0.46699 0.07975 0.0
C1134 C 0.44052 0.47567 0.09058 0.0
C1135 C 0.46816 0.48658 0.0977 0.0
C1136 C 0.53257 0.48842 0.09376 0.0
C1137 C 0.56886 0.4793 0.08287 0.0
C1138 C 0.53882 0.46858 0.07632 0.0
H1139 H 0.39094 0.47433 0.09353 0.0
O1140 O 0.37065 0.46841 0.01058 0.0
O1141 O 0.43289 0.45751 0.03502 0.0
O1142 O 0.30236 0.45369 0.0458 0.0
O1143 O 0.36547 0.45359 0.08024 0.0
C1144 C 0.63348 0.48048 0.07793 0.0
C1145 C 0.66671 0.47101 0.06638 0.0
H1146 H 0.71454 0.45104 0.0432 0.0
H1147 H 0.65255 0.43298 0.03191 0.0
H1148 H 0.43983 0.49358 0.10609 0.0
H1149 H 0.55362 0.49688 0.0991 0.0
H1150 H 0.65795 0.48867 0.08274 0.0
H1151 H 0.71626 0.47206 0.06247 0.0
H1152 H 0.10269 0.09276 0.05933 0.0
H1153 H 0.22845 0.06389 0.07838 0.0
H1154 H 0.07578 0.09516 0.10441 0.0
H1155 H 0.20087 0.06619 0.12342 0.0
H1156 H 0.02865 0.06303 0.18355 0.0
H1157 H 0.05547 0.06493 0.13835 0.0
H1158 H 0.16445 0.09651 0.15471 0.0
H1159 H 0.13834 0.09453 0.19997 0.0
C1160 C 0.12636 0.08727 0.07333 0.0
C1161 C 0.16905 0.07839 0.06562 0.0
C1162 C 0.11055 0.08857 0.09895 0.0
C1163 C 0.136 0.08079 0.11708 0.0
C1164 C 0.18082 0.07227 0.1096 0.0
C1165 C 0.19725 0.07108 0.084 0.0
C1166 C 0.05603 0.07065 0.17729 0.0
C1167 C 0.07998 0.07884 0.19499 0.0
C1168 C 0.07208 0.07164 0.15161 0.0
C1169 C 0.11226 0.08081 0.14337 0.0
C1170 C 0.13328 0.0894 0.16076 0.0
C1171 C 0.1179 0.08832 0.18648 0.0
H1172 H 0.00198 0.20103 0.07881 0.0
H1173 H 0.15275 0.1773 0.0578 0.0
H1174 H 0.02875 0.1983 0.1238 0.0
H1175 H 0.18147 0.17506 0.10269 0.0
H1176 H 0.23248 0.20242 0.17961 0.0
H1177 H 0.20727 0.19866 0.13478 0.0
H1178 H 0.05621 0.17534 0.15739 0.0
H1179 H 0.08325 0.17864 0.20213 0.0
C1180 C 0.03891 0.19483 0.0839 0.0
C1181 C 0.07373 0.189 0.06499 0.0
C1182 C 0.05482 0.1934 0.10952 0.0
C1183 C 0.10707 0.18647 0.11645 0.0
C1184 C 0.14077 0.18037 0.09768 0.0
C1185 C 0.12408 0.1816 0.07214 0.0
C1186 C 0.19631 0.19598 0.17493 0.0
C1187 C 0.16132 0.19046 0.19421 0.0
C1188 C 0.18133 0.19396 0.14939 0.0
C1189 C 0.12989 0.18672 0.14289 0.0
C1190 C 0.09631 0.18088 0.16207 0.0
C1191 C 0.11204 0.18271 0.18753 0.0
H1192 H 0.77425 0.93585 0.94573 0.0
H1193 H 0.96623 0.94814 0.94597 0.0
H1194 H 0.78021 0.93297 0.89974 0.0
H1195 H 0.97135 0.94592 0.90037 0.0
H1196 H 0.98068 0.93622 0.8183 0.0
H1197 H 0.97566 0.93376 0.86445 0.0
H1198 H 0.78122 0.94477 0.86336 0.0
H1199 H 0.78555 0.94656 0.81773 0.0
C1200 C 0.81759 0.93793 0.93597 0.0
C1201 C 0.86952 0.94228 0.94944 0.0
C1202 C 0.82109 0.93634 0.9096 0.0
C1203 C 0.87625 0.93928 0.89615 0.0
C1204 C 0.92849 0.94334 0.90992 0.0
C1205 C 0.92528 0.94473 0.93618 0.0
C1206 C 0.93683 0.93794 0.828 0.0
C1207 C 0.88375 0.94165 0.81439 0.0
C1208 C 0.93387 0.93661 0.85446 0.0
C1209 C 0.87803 0.93914 0.86782 0.0
C1210 C 0.82471 0.94251 0.85391 0.0
C1211 C 0.82744 0.94367 0.8276 0.0
H1212 H 0.97333 0.82198 0.94118 0.0
H1213 H 0.78149 0.83352 0.9503 0.0
H1214 H 0.96311 0.82407 0.89519 0.0
H1215 H 0.77171 0.83603 0.90459 0.0
H1216 H 0.75339 0.82093 0.82273 0.0
H1217 H 0.76238 0.82318 0.86876 0.0
H1218 H 0.95047 0.83698 0.85969 0.0
H1219 H 0.94202 0.8343 0.81399 0.0
C1220 C 0.92957 0.82525 0.93338 0.0
C1221 C 0.87811 0.82747 0.94925 0.0
C1222 C 0.92358 0.82649 0.90703 0.0
C1223 C 0.8662 0.8301 0.8961 0.0
C1224 C 0.81603 0.83297 0.91224 0.0
C1225 C 0.82183 0.83161 0.93848 0.0
C1226 C 0.79603 0.82467 0.83062 0.0
C1227 C 0.84715 0.82732 0.81488 0.0
C1228 C 0.80133 0.82598 0.857 0.0
C1229 C 0.85763 0.83011 0.86802 0.0
C1230 C 0.9071 0.83349 0.85197 0.0
C1231 C 0.90203 0.83205 0.82574 0.0
H1232 H 0.15863 0.58979 0.70483 0.0
H1233 H 0.0095 0.56631 0.6808 0.0
H1234 H 0.18905 0.59291 0.66036 0.0
H1235 H 0.03817 0.56989 0.63626 0.0
H1236 H 0.09644 0.59151 0.56025 0.0
H1237 H 0.06826 0.59402 0.6051 0.0
H1238 H 0.21493 0.56942 0.62632 0.0
H1239 H 0.24125 0.56647 0.58134 0.0
C1240 C 0.13072 0.58573 0.68993 0.0
C1241 C 0.08033 0.57814 0.6961 0.0
C1242 C 0.14836 0.58747 0.66464 0.0
C1243 C 0.11567 0.58168 0.64515 0.0
C1244 C 0.06345 0.57454 0.65113 0.0
C1245 C 0.0465 0.57263 0.67649 0.0
C1246 C 0.12415 0.587 0.57461 0.0
C1247 C 0.1724 0.5791 0.56748 0.0
C1248 C 0.10774 0.58838 0.60013 0.0
C1249 C 0.13964 0.58194 0.6189 0.0
C1250 C 0.19029 0.57458 0.61202 0.0
C1251 C 0.20596 0.57302 0.58641 0.0
H1252 H 0.09099 0.67518 0.70079 0.0
H1253 H 0.22338 0.70299 0.68208 0.0
H1254 H 0.0645 0.67297 0.65563 0.0
H1255 H 0.19748 0.70065 0.63688 0.0
H1256 H 0.14535 0.67579 0.55862 0.0
H1257 H 0.17083 0.67314 0.60375 0.0
H1258 H 0.03797 0.70074 0.6232 0.0
H1259 H 0.01301 0.70351 0.57801 0.0
C1260 C 0.1162 0.68045 0.68686 0.0
C1261 C 0.16072 0.68897 0.69471 0.0
C1262 C 0.10071 0.67925 0.66119 0.0
C1263 C 0.12899 0.68666 0.64308 0.0
C1264 C 0.17549 0.69481 0.65069 0.0
C1265 C 0.19094 0.69602 0.67639 0.0
C1266 C 0.11987 0.68094 0.57267 0.0
C1267 C 0.07576 0.68958 0.56503 0.0
C1268 C 0.13478 0.67948 0.59834 0.0
C1269 C 0.1063 0.68675 0.61665 0.0
C1270 C 0.06007 0.695 0.60924 0.0
C1271 C 0.04519 0.69647 0.58353 0.0
H1272 H 0.77312 0.43755 0.44408 0.0
H1273 H 0.96324 0.45084 0.44373 0.0
H1274 H 0.77883 0.43455 0.39811 0.0
H1275 H 0.9681 0.44847 0.39812 0.0
H1276 H 0.97902 0.43802 0.31669 0.0
H1277 H 0.97374 0.43577 0.36286 0.0
H1278 H 0.77847 0.44619 0.36127 0.0
H1279 H 0.7831 0.44781 0.31557 0.0
C1280 C 0.81596 0.43985 0.43418 0.0
C1281 C 0.8675 0.44448 0.44747 0.0
C1282 C 0.81932 0.43818 0.40783 0.0
C1283 C 0.87397 0.44129 0.39425 0.0
C1284 C 0.92572 0.44572 0.40781 0.0
C1285 C 0.92264 0.44721 0.43405 0.0
C1286 C 0.93489 0.43963 0.32627 0.0
C1287 C 0.88174 0.44318 0.31251 0.0
C1288 C 0.93181 0.43843 0.35274 0.0
C1289 C 0.87573 0.44091 0.36596 0.0
C1290 C 0.8222 0.44402 0.35191 0.0
C1291 C 0.82508 0.44506 0.32557 0.0
H1292 H 0.7624 0.32167 0.31743 0.0
H1293 H 0.95213 0.3347 0.3105 0.0
H1294 H 0.77156 0.32239 0.36362 0.0
H1295 H 0.96072 0.33592 0.3565 0.0
H1296 H 0.98218 0.31979 0.43679 0.0
H1297 H 0.97238 0.32249 0.3909 0.0
H1298 H 0.78046 0.33408 0.40073 0.0
H1299 H 0.78975 0.33089 0.44623 0.0
C1300 C 0.80539 0.325 0.3258 0.0
C1301 C 0.85663 0.32804 0.31043 0.0
C1302 C 0.81079 0.32544 0.35229 0.0
C1303 C 0.8673 0.32908 0.36389 0.0
C1304 C 0.91713 0.33278 0.34832 0.0
C1305 C 0.91198 0.33219 0.32193 0.0
C1306 C 0.9383 0.32305 0.42909 0.0
C1307 C 0.88664 0.32501 0.445 0.0
C1308 C 0.93257 0.32465 0.40279 0.0
C1309 C 0.87528 0.3284 0.39199 0.0
C1310 C 0.82474 0.33091 0.40822 0.0
C1311 C 0.83024 0.32916 0.43436 0.0
H1312 H 0.51444 0.06519 0.68147 0.0
H1313 H 0.65582 0.09112 0.70148 0.0
H1314 H 0.53942 0.06805 0.63633 0.0
H1315 H 0.68211 0.09368 0.65642 0.0
H1316 H 0.73355 0.06489 0.57888 0.0
H1317 H 0.70795 0.06788 0.62393 0.0
H1318 H 0.5665 0.09366 0.60321 0.0
H1319 H 0.59343 0.09097 0.55823 0.0
C1320 C 0.5487 0.07189 0.67612 0.0
C1321 C 0.58168 0.07826 0.69479 0.0
C1322 C 0.5636 0.0734 0.65043 0.0
C1323 C 0.61263 0.08107 0.64318 0.0
C1324 C 0.64387 0.0878 0.66169 0.0
C1325 C 0.62853 0.08639 0.68732 0.0
C1326 C 0.69939 0.07164 0.58407 0.0
C1327 C 0.66705 0.07803 0.56525 0.0
C1328 C 0.68413 0.07322 0.60971 0.0
C1329 C 0.63533 0.08099 0.61675 0.0
C1330 C 0.60455 0.0877 0.59809 0.0
C1331 C 0.62027 0.08622 0.57252 0.0
H1332 H 0.5893 0.17534 0.70195 0.0
H1333 H 0.72635 0.20191 0.68075 0.0
H1334 H 0.55962 0.17294 0.65714 0.0
H1335 H 0.69772 0.19928 0.63592 0.0
H1336 H 0.50741 0.20232 0.57879 0.0
H1337 H 0.53263 0.19945 0.62392 0.0
H1338 H 0.66959 0.17269 0.60388 0.0
H1339 H 0.64344 0.17535 0.55883 0.0
C1340 C 0.61472 0.1803 0.68756 0.0
C1341 C 0.66158 0.18851 0.6946 0.0
C1342 C 0.59745 0.17898 0.66209 0.0
C1343 C 0.62654 0.18593 0.64337 0.0
C1344 C 0.67514 0.19378 0.65019 0.0
C1345 C 0.69212 0.19516 0.67569 0.0
C1346 C 0.54042 0.19539 0.58416 0.0
C1347 C 0.57201 0.18876 0.56551 0.0
C1348 C 0.55543 0.19387 0.60984 0.0
C1349 C 0.60297 0.18586 0.61708 0.0
C1350 C 0.63247 0.17883 0.59861 0.0
C1351 C 0.61721 0.1803 0.57299 0.0
H1352 H 0.25558 0.93934 0.44231 0.0
H1353 H 0.45546 0.94559 0.44245 0.0
H1354 H 0.25785 0.93767 0.39595 0.0
H1355 H 0.4574 0.94454 0.39669 0.0
H1356 H 0.45615 0.93657 0.31371 0.0
H1357 H 0.45004 0.93326 0.35954 0.0
H1358 H 0.26867 0.95058 0.36102 0.0
H1359 H 0.27365 0.95329 0.31542 0.0
C1360 C 0.2999 0.94029 0.43248 0.0
C1361 C 0.35513 0.94267 0.44604 0.0
C1362 C 0.30129 0.93942 0.40592 0.0
C1363 C 0.35782 0.94106 0.39242 0.0
C1364 C 0.41317 0.94302 0.40624 0.0
C1365 C 0.41188 0.94374 0.43263 0.0
C1366 C 0.41492 0.93957 0.3239 0.0
C1367 C 0.36566 0.94525 0.31102 0.0
C1368 C 0.41135 0.93772 0.35017 0.0
C1369 C 0.35888 0.94169 0.36414 0.0
C1370 C 0.30925 0.94717 0.351 0.0
C1371 C 0.31244 0.94885 0.32479 0.0
H1372 H 0.30673 0.8332 0.44548 0.0
H1373 H 0.49458 0.81932 0.43763 0.0
H1374 H 0.29806 0.83506 0.3996 0.0
H1375 H 0.48534 0.82074 0.39144 0.0
H1376 H 0.46623 0.83082 0.30929 0.0
H1377 H 0.47692 0.83316 0.35497 0.0
H1378 H 0.28463 0.82181 0.36474 0.0
H1379 H 0.27346 0.81989 0.31873 0.0
C1380 C 0.3465 0.83065 0.43387 0.0
C1381 C 0.40127 0.82605 0.44506 0.0
C1382 C 0.34127 0.83161 0.40755 0.0
C1383 C 0.39046 0.82786 0.39173 0.0
C1384 C 0.4466 0.82381 0.40302 0.0
C1385 C 0.45207 0.82299 0.42949 0.0
C1386 C 0.42596 0.82895 0.32118 0.0
C1387 C 0.36902 0.8251 0.31047 0.0
C1388 C 0.43229 0.83022 0.34742 0.0
C1389 C 0.38199 0.82756 0.36365 0.0
C1390 C 0.32425 0.82408 0.35283 0.0
C1391 C 0.31774 0.82293 0.32647 0.0
H1392 H 0.60226 0.59136 0.06053 0.0
H1393 H 0.73359 0.56354 0.08044 0.0
H1394 H 0.57334 0.59358 0.10546 0.0
H1395 H 0.70425 0.56571 0.12534 0.0
H1396 H 0.6401 0.59352 0.20137 0.0
H1397 H 0.6655 0.59547 0.15606 0.0
H1398 H 0.55597 0.56393 0.14001 0.0
H1399 H 0.53007 0.56202 0.18531 0.0
C1400 C 0.62648 0.58605 0.07468 0.0
C1401 C 0.67156 0.57755 0.06727 0.0
C1402 C 0.60958 0.58725 0.10021 0.0
C1403 C 0.63642 0.57976 0.11855 0.0
C1404 C 0.68314 0.57157 0.11135 0.0
C1405 C 0.70052 0.57045 0.08584 0.0
C1406 C 0.61941 0.58731 0.18795 0.0
C1407 C 0.5816 0.57784 0.19658 0.0
C1408 C 0.63434 0.58838 0.1622 0.0
C1409 C 0.61286 0.57981 0.14485 0.0
C1410 C 0.57282 0.57063 0.15321 0.0
C1411 C 0.55733 0.56964 0.17896 0.0
H1412 H 0.73971 0.70103 0.17873 0.0
H1413 H 0.5889 0.67766 0.20142 0.0
H1414 H 0.71451 0.69721 0.13395 0.0
H1415 H 0.56189 0.67429 0.1567 0.0
H1416 H 0.65907 0.67616 0.05707 0.0
H1417 H 0.68623 0.67351 0.102 0.0
H1418 H 0.53693 0.69756 0.12305 0.0
H1419 H 0.51173 0.70068 0.07803 0.0
C1420 C 0.70322 0.69465 0.17411 0.0
C1421 C 0.66771 0.68928 0.19341 0.0
C1422 C 0.68824 0.69259 0.14859 0.0
C1423 C 0.63635 0.68546 0.14214 0.0
C1424 C 0.60235 0.67973 0.16134 0.0
C1425 C 0.61807 0.68161 0.18679 0.0
C1426 C 0.63064 0.68052 0.0714 0.0
C1427 C 0.58188 0.6883 0.06423 0.0
C1428 C 0.64645 0.67906 0.09696 0.0
C1429 C 0.61342 0.6853 0.11573 0.0
C1430 C 0.56242 0.69255 0.10877 0.0
C1431 C 0.5474 0.6942 0.08312 0.0
H1432 H 0.47741 0.44703 0.81783 0.0
H1433 H 0.28545 0.43515 0.81157 0.0
H1434 H 0.46996 0.44589 0.86401 0.0
H1435 H 0.2785 0.43352 0.85756 0.0
H1436 H 0.2637 0.44896 0.93878 0.0
H1437 H 0.27068 0.44666 0.89271 0.0
H1438 H 0.46082 0.43371 0.90042 0.0
H1439 H 0.45442 0.43651 0.94612 0.0
C1440 C 0.4342 0.44388 0.82633 0.0
C1441 C 0.38194 0.44128 0.81117 0.0
C1442 C 0.42981 0.4432 0.85281 0.0
C1443 C 0.37327 0.43973 0.8646 0.0
C1444 C 0.3222 0.4365 0.84922 0.0
C1445 C 0.32639 0.43733 0.82283 0.0
C1446 C 0.30654 0.44548 0.93057 0.0
C1447 C 0.35865 0.44304 0.94593 0.0
C1448 C 0.31064 0.44411 0.90418 0.0
C1449 C 0.36669 0.44011 0.89275 0.0
C1450 C 0.41753 0.43709 0.90843 0.0
C1451 C 0.41369 0.43861 0.93466 0.0
H1452 H 0.4633 0.32035 0.81488 0.0
H1453 H 0.2658 0.32891 0.81495 0.0
H1454 H 0.46582 0.32163 0.86063 0.0
H1455 H 0.26884 0.33084 0.86124 0.0
H1456 H 0.27903 0.3159 0.94222 0.0
H1457 H 0.27529 0.31823 0.89656 0.0
H1458 H 0.4626 0.33308 0.89753 0.0
H1459 H 0.46728 0.33012 0.94352 0.0
C1460 C 0.42045 0.32275 0.82468 0.0
C1461 C 0.36408 0.32442 0.81127 0.0
C1462 C 0.4221 0.3236 0.85106 0.0
C1463 C 0.36757 0.3263 0.86485 0.0
C1464 C 0.31158 0.3285 0.85133 0.0
C1465 C 0.30976 0.32748 0.82479 0.0
C1466 C 0.31943 0.31972 0.93273 0.0
C1467 C 0.37375 0.32273 0.94643 0.0
C1468 C 0.31699 0.32118 0.90646 0.0
C1469 C 0.36853 0.32586 0.89316 0.0
C1470 C 0.42233 0.32924 0.90703 0.0
C1471 C 0.42509 0.32759 0.93339 0.0
H1472 H 0.3848 0.99109 0.21762 0.0
H1473 H 0.206 0.97517 0.2352 0.0
H1474 H 0.34307 0.01084 0.22717 0.0
H1475 H 0.16231 0.99504 0.24342 0.0
H1476 H 0.1283 0.02869 0.28978 0.0
H1477 H 0.17097 0.00928 0.27676 0.0
H1478 H 0.27659 0.02683 0.21729 0.0
H1479 H 0.23596 0.04614 0.23131 0.0
C1480 C 0.33558 0.99193 0.22241 0.0
C1481 C 0.29819 0.98168 0.22515 0.0
C1482 C 0.31158 0.00324 0.228 0.0
C1483 C 0.2495 0.00457 0.23653 0.0
C1484 C 0.21078 0.99434 0.23751 0.0
C1485 C 0.23516 0.98298 0.23214 0.0
C1486 C 0.16262 0.02835 0.27462 0.0
C1487 C 0.18084 0.03885 0.2621 0.0
C1488 C 0.18587 0.01724 0.26668 0.0
C1489 C 0.22668 0.01643 0.24568 0.0
C1490 C 0.246 0.02707 0.23369 0.0
C1491 C 0.2233 0.03815 0.24184 0.0
H1492 H 0.87029 0.2803 0.22096 0.0
H1493 H 0.03741 0.29963 0.24183 0.0
H1494 H 0.92409 0.26133 0.2286 0.0
H1495 H 0.09189 0.28065 0.24945 0.0
H1496 H 0.17792 0.24273 0.23887 0.0
H1497 H 0.13049 0.26201 0.22905 0.0
H1498 H 0.96125 0.25114 0.26774 0.0
H1499 H 0.00859 0.23168 0.27731 0.0
C1500 C 0.91924 0.28043 0.22646 0.0
C1501 C 0.95047 0.29134 0.23008 0.0
C1502 C 0.94972 0.26961 0.2312 0.0
C1503 C 0.01186 0.26951 0.24001 0.0
C1504 C 0.04405 0.28044 0.24257 0.0
C1505 C 0.01329 0.29129 0.23792 0.0
C1506 C 0.13079 0.24448 0.24555 0.0
C1507 C 0.0968 0.23566 0.2588 0.0
C1508 C 0.10374 0.25555 0.23994 0.0
C1509 C 0.04195 0.25803 0.24732 0.0
C1510 C 0.00866 0.24938 0.26139 0.0
C1511 C 0.03592 0.2383 0.26715 0.0
H1512 H 0.05328 0.2406 0.01967 0.0
H1513 H 0.22222 0.22908 0.98159 0.0
H1514 H 0.10288 0.25955 0.03048 0.0
H1515 H 0.27183 0.24823 0.99218 0.0
H1516 H 0.36516 0.2767 0.04017 0.0
H1517 H 0.3094 0.25799 0.03179 0.0
H1518 H 0.14406 0.27813 0.0112 0.0
H1519 H 0.20042 0.29681 0.01946 0.0
C1520 C 0.1008 0.2422 0.01324 0.0
C1521 C 0.13401 0.23333 0.99982 0.0
C1522 C 0.12912 0.25307 0.01945 0.0
C1523 C 0.19147 0.25532 0.01251 0.0
C1524 C 0.22401 0.24664 0.99821 0.0
C1525 C 0.19544 0.23576 0.99184 0.0
C1526 C 0.31628 0.27706 0.03462 0.0
C1527 C 0.28637 0.28813 0.03116 0.0
C1528 C 0.2847 0.26639 0.02943 0.0
C1529 C 0.22272 0.2666 0.02042 0.0
C1530 C 0.19173 0.27768 0.01821 0.0
C1531 C 0.22358 0.28836 0.02328 0.0
H1532 H 0.1777 0.02734 0.01982 0.0
H1533 H 0.00645 0.03873 0.98326 0.0
H1534 H 0.12996 0.00828 0.0305 0.0
H1535 H 0.95871 0.01934 0.99349 0.0
H1536 H 0.86979 0.98978 0.04002 0.0
H1537 H 0.92213 0.00884 0.03168 0.0
H1538 H 0.09168 0.98979 0.01201 0.0
H1539 H 0.03888 0.97077 0.02051 0.0
C1540 C 0.12998 0.0257 0.0137 0.0
C1541 C 0.09567 0.03457 1.00075 0.0
C1542 C 0.10273 0.01473 0.0198 0.0
C1543 C 0.04038 0.01232 0.01312 0.0
C1544 C 0.00658 0.02102 0.99933 0.0
C1545 C 0.03405 0.03206 0.99315 0.0
C1546 C 0.91885 0.98975 0.03468 0.0
C1547 C 0.95103 0.97889 0.03162 0.0
C1548 C 0.94848 0.00062 0.02948 0.0
C1549 C 0.01071 0.00083 0.02076 0.0
C1550 C 0.04379 0.98995 0.01882 0.0
C1551 C 0.01398 0.97906 0.024 0.0
H1552 H 0.74107 0.03838 0.77854 0.0
H1553 H 0.57155 0.0267 0.74107 0.0
H1554 H 0.78917 0.0189 0.76954 0.0
H1555 H 0.61965 0.00746 0.73178 0.0
H1556 H 0.71154 0.97007 0.74502 0.0
H1557 H 0.65808 0.98914 0.75254 0.0
H1558 H 0.82652 0.00815 0.73125 0.0
H1559 H 0.8794 0.98905 0.72372 0.0
C1560 C 0.7139 0.03162 0.76871 0.0
C1561 C 0.6527 0.03408 0.76049 0.0
C1562 C 0.74158 0.02053 0.76327 0.0
C1563 C 0.70836 0.0117 0.74967 0.0
C1564 C 0.64637 0.01404 0.74235 0.0
C1565 C 0.61893 0.02509 0.74766 0.0
C1566 C 0.73605 0.97835 0.74101 0.0
C1567 C 0.79872 0.97817 0.733 0.0
C1568 C 0.70587 0.98926 0.74561 0.0
C1569 C 0.73843 1.00015 0.74282 0.0
C1570 C 0.80057 0.99991 0.734 0.0
C1571 C 0.83051 0.98903 0.72932 0.0
H1572 H 0.0002 0.72746 0.78111 0.0
H1573 H 0.16946 0.73991 0.7446 0.0
H1574 H 0.95186 0.74709 0.77379 0.0
H1575 H 0.1212 0.75929 0.73699 0.0
H1576 H 0.02907 0.79638 0.75159 0.0
H1577 H 0.08219 0.77725 0.75907 0.0
H1578 H 0.91468 0.75838 0.73609 0.0
H1579 H 0.86219 0.77752 0.72864 0.0
C1580 C 0.02727 0.73441 0.77187 0.0
C1581 C 0.08842 0.73213 0.76338 0.0
C1582 C -0.00051 0.74559 0.76741 0.0
C1583 C 0.03261 0.75469 0.75456 0.0
C1584 C 0.09459 0.75251 0.74703 0.0
C1585 C 0.12209 0.74137 0.75135 0.0
C1586 C 0.00469 0.78812 0.7473 0.0
C1587 C 0.94254 0.78834 0.73867 0.0
C1588 C 0.03464 0.77718 0.75186 0.0
C1589 C 0.00231 0.7663 0.74844 0.0
C1590 C 0.94047 0.76659 0.7393 0.0
C1591 C 0.91077 0.77751 0.73466 0.0
H1592 H 0.56508 0.74009 0.01881 0.0
H1593 H 0.73614 0.72931 0.9813 0.0
H1594 H 0.61099 0.75945 0.02873 0.0
H1595 H 0.782 0.74892 0.99089 0.0
H1596 H 0.86972 0.77855 0.03739 0.0
H1597 H 0.81803 0.7594 0.0295 0.0
H1598 H 0.648 0.77812 0.00914 0.0
H1599 H 0.7003 0.79729 0.01713 0.0
C1600 C 0.61232 0.74192 0.01234 0.0
C1601 C 0.6472 0.73314 0.99935 0.0
C1602 C 0.63849 0.75305 0.018 0.0
C1603 C 0.7003 0.75567 0.01089 0.0
C1604 C 0.73454 0.74706 0.99704 0.0
C1605 C 0.70814 0.7359 0.99126 0.0
C1606 C 0.82071 0.77851 0.03197 0.0
C1607 C 0.78825 0.78931 0.02859 0.0
C1608 C 0.79144 0.76758 0.02705 0.0
C1609 C 0.7293 0.76725 0.01827 0.0
C1610 C 0.69587 0.77808 0.01598 0.0
C1611 C 0.72539 0.78903 0.02085 0.0
H1612 H 0.22361 0.53695 0.78027 0.0
H1613 H 0.05661 0.52598 0.7401 0.0
H1614 H 0.27216 0.51763 0.77038 0.0
H1615 H 0.10521 0.50684 0.73001 0.0
H1616 H 0.20003 0.46925 0.74154 0.0
H1617 H 0.14409 0.48803 0.74974 0.0
H1618 H 0.31148 0.50793 0.73098 0.0
H1619 H 0.36671 0.48918 0.72272 0.0
C1620 C 0.197 0.53036 0.76969 0.0
C1621 C 0.13649 0.533 0.76091 0.0
C1622 C 0.22496 0.51937 0.76375 0.0
C1623 C 0.19274 0.51079 0.74908 0.0
C1624 C 0.13117 0.51324 0.74134 0.0
C1625 C 0.10345 0.52423 0.74712 0.0
C1626 C 0.22379 0.47768 0.7382 0.0
C1627 C 0.28694 0.47785 0.7308 0.0
C1628 C 0.19218 0.48841 0.74319 0.0
C1629 C 0.2238 0.49945 0.74143 0.0
C1630 C 0.28626 0.49957 0.733 0.0
C1631 C 0.31757 0.48887 0.7279 0.0
H1632 H 0.21865 0.79688 0.51002 0.0
H1633 H 0.38321 0.7774 0.53344 0.0
H1634 H 0.16355 0.77796 0.50259 0.0
H1635 H 0.32873 0.75846 0.52601 0.0
H1636 H 0.24135 0.72805 0.47998 0.0
H1637 H 0.29134 0.74746 0.48793 0.0
H1638 H 0.12238 0.76006 0.52442 0.0
H1639 H 0.07246 0.74088 0.51618 0.0
C1640 C 0.24207 0.78853 0.51445 0.0
C1641 C 0.30417 0.78852 0.52314 0.0
C1642 C 0.21098 0.77771 0.50991 0.0
C1643 C 0.24213 0.76672 0.51344 0.0
C1644 C 0.30386 0.76677 0.52273 0.0
C1645 C 0.33469 0.77757 0.52734 0.0
C1646 C 0.21473 0.73504 0.4893 0.0
C1647 C 0.15317 0.73293 0.4975 0.0
C1648 C 0.24345 0.74609 0.49412 0.0
C1649 C 0.21091 0.75523 0.50706 0.0
C1650 C 0.14856 0.75324 0.51433 0.0
C1651 C 0.1201 0.74222 0.50964 0.0
H1652 H 0.03859 0.47099 0.52141 0.0
H1653 H 0.87141 0.49064 0.54084 0.0
H1654 H 0.09408 0.48983 0.51385 0.0
H1655 H 0.92638 0.50951 0.53326 0.0
H1656 H 0.01499 0.53888 0.4846 0.0
H1657 H 0.96537 0.51966 0.49458 0.0
H1658 H 0.13333 0.50829 0.53358 0.0
H1659 H 0.18297 0.52727 0.52329 0.0
C1660 C 0.01464 0.47937 0.52508 0.0
C1661 C 0.95145 0.47944 0.53239 0.0
C1662 C 0.04602 0.49015 0.52044 0.0
C1663 C 0.01422 0.50115 0.52255 0.0
C1664 C 0.95174 0.50118 0.53098 0.0
C1665 C 0.92059 0.49042 0.5357 0.0
C1666 C 0.04151 0.53219 0.49491 0.0
C1667 C 0.10272 0.5346 0.50319 0.0
C1668 C 0.01295 0.52125 0.50092 0.0
C1669 C 0.04525 0.51253 0.51518 0.0
C1670 C 0.10729 0.5148 0.52254 0.0
C1671 C 0.13562 0.5257 0.51665 0.0
H1672 H 0.7431 0.54561 0.23619 0.0
H1673 H 0.6286 0.52836 0.29274 0.0
H1674 H 0.78621 0.52629 0.22362 0.0
H1675 H 0.67389 0.50895 0.28133 0.0
H1676 H 0.71664 0.47458 0.24114 0.0
H1677 H 0.67105 0.49433 0.24897 0.0
H1678 H 0.85191 0.51057 0.23491 0.0
H1679 H 0.8954 0.49096 0.22556 0.0
C1680 C 0.72936 0.53768 0.24666 0.0
C1681 C 0.68429 0.53843 0.26593 0.0
C1682 C 0.75357 0.52658 0.23935 0.0
C1683 C 0.73333 0.51598 0.25129 0.0
C1684 C 0.68969 0.51686 0.27131 0.0
C1685 C 0.66483 0.52798 0.27834 0.0
C1686 C 0.74551 0.48246 0.23857 0.0
C1687 C 0.80886 0.48134 0.23195 0.0
C1688 C 0.72 0.49376 0.2437 0.0
C1689 C 0.75797 0.5041 0.24301 0.0
C1690 C 0.82084 0.50291 0.23537 0.0
C1691 C 0.8459 0.49167 0.22996 0.0
H1692 H 0.71126 0.29658 0.51561 0.0
H1693 H 0.87769 0.27721 0.53718 0.0
H1694 H 0.65631 0.27764 0.50847 0.0
H1695 H 0.82331 0.25824 0.53008 0.0
H1696 H 0.73667 0.22822 0.48255 0.0
H1697 H 0.78594 0.24756 0.49182 0.0
H1698 H 0.61632 0.25942 0.52891 0.0
H1699 H 0.56706 0.24033 0.51932 0.0
C1700 C 0.73511 0.28825 0.51981 0.0
C1701 C 0.79789 0.28829 0.52768 0.0
C1702 C 0.70407 0.27741 0.51543 0.0
C1703 C 0.73586 0.26644 0.51833 0.0
C1704 C 0.79796 0.26654 0.5272 0.0
C1705 C 0.82876 0.27736 0.53166 0.0
C1706 C 0.70975 0.23504 0.49229 0.0
C1707 C 0.64816 0.23274 0.50022 0.0
C1708 C 0.73809 0.24605 0.4979 0.0
C1709 C 0.70517 0.25496 0.51139 0.0
C1710 C 0.64283 0.25278 0.51843 0.0
C1711 C 0.61473 0.24181 0.51295 0.0
H1712 H 0.53702 0.29598 0.74679 0.0
H1713 H 0.37627 0.27795 0.71515 0.0
H1714 H 0.58746 0.27651 0.75455 0.0
H1715 H 0.42716 0.25856 0.72213 0.0
H1716 H 0.58238 0.22859 0.71616 0.0
H1717 H 0.53648 0.24811 0.7065 0.0
H1718 H 0.54549 0.2576 0.78587 0.0
H1719 H 0.5903 0.23774 0.79573 0.0
C1720 C 0.51369 0.28786 0.74066 0.0
C1721 C 0.45376 0.28838 0.72971 0.0
C1722 C 0.54193 0.27677 0.74546 0.0
C1723 C 0.51069 0.2661 0.73915 0.0
C1724 C 0.45204 0.26668 0.72715 0.0
C1725 C 0.4233 0.27772 0.72292 0.0
C1726 C 0.57382 0.2348 0.7316 0.0
C1727 C 0.5892 0.2317 0.7567 0.0
C1728 C 0.54788 0.24594 0.72603 0.0
C1729 C 0.5382 0.25433 0.7454 0.0
C1730 C 0.55321 0.25126 0.77063 0.0
C1731 C 0.57797 0.23992 0.77631 0.0
H1732 H 0.50833 0.03863 0.48123 0.0
H1733 H 0.67805 0.02642 0.51776 0.0
H1734 H 0.45906 0.01926 0.49027 0.0
H1735 H 0.62884 0.00728 0.52707 0.0
H1736 H 0.53314 0.97019 0.51426 0.0
H1737 H 0.58795 0.98909 0.50633 0.0
H1738 H 0.42231 0.00864 0.52895 0.0
H1739 H 0.36811 0.98972 0.53693 0.0
C1740 C 0.53531 0.03177 0.49083 0.0
C1741 C 0.59689 0.03406 0.49881 0.0
C1742 C 0.50697 0.02075 0.4963 0.0
C1743 C 0.53992 0.01181 0.50968 0.0
C1744 C 0.60232 0.01395 0.51668 0.0
C1745 C 0.63039 0.02495 0.51136 0.0
C1746 C 0.50958 0.97855 0.51847 0.0
C1747 C 0.44732 0.97858 0.52701 0.0
C1748 C 0.54051 0.98936 0.51363 0.0
C1749 C 0.50909 1.00035 0.51669 0.0
C1750 C 0.44737 1.00032 0.52599 0.0
C1751 C 0.41669 0.98953 0.53093 0.0
H1752 H 0.68739 0.74188 0.23624 0.0
H1753 H 0.51471 0.7314 0.27291 0.0
H1754 H 0.6411 0.76106 0.22466 0.0
H1755 H 0.46851 0.75074 0.26154 0.0
H1756 H 0.38034 0.77937 0.21396 0.0
H1757 H 0.43489 0.76047 0.22129 0.0
H1758 H 0.6009 0.77996 0.24366 0.0
H1759 H 0.54574 0.79888 0.23629 0.0
C1760 C 0.63973 0.74375 0.24216 0.0
C1761 C 0.6045 0.73511 0.25543 0.0
C1762 C 0.61334 0.75474 0.2355 0.0
C1763 C 0.55096 0.75733 0.24183 0.0
C1764 C 0.5164 0.74888 0.25595 0.0
C1765 C 0.543 0.73788 0.26277 0.0
C1766 C 0.42924 0.77957 0.21955 0.0
C1767 C 0.45947 0.79051 0.22401 0.0
C1768 C 0.4601 0.76878 0.22415 0.0
C1769 C 0.52165 0.76874 0.2336 0.0
C1770 C 0.55344 0.77971 0.23638 0.0
C1771 C 0.5223 0.79053 0.23185 0.0
H1772 H 0.54155 0.47025 0.0159 0.0
H1773 H 0.37783 0.49022 0.03844 0.0
H1774 H 0.59791 0.48901 0.00822 0.0
H1775 H 0.43353 0.50898 0.03069 0.0
H1776 H 0.68909 0.52644 0.01914 0.0
H1777 H 0.63969 0.50733 0.02864 0.0
H1778 H 0.47028 0.51925 0.99148 0.0
H1779 H 0.51974 0.53857 0.98222 0.0
C1780 C 0.51863 0.47867 0.02019 0.0
C1781 C 0.45617 0.47885 0.02847 0.0
C1782 C 0.55045 0.4894 0.01547 0.0
C1783 C 0.5197 0.50047 0.01842 0.0
C1784 C 0.45803 0.5006 0.02775 0.0
C1785 C 0.4265 0.48989 0.03258 0.0
C1786 C 0.6415 0.52495 0.01268 0.0
C1787 C 0.6081 0.53403 1.0 0.0
C1788 C 0.61333 0.51397 0.01812 0.0
C1789 C 0.55092 0.51184 0.01112 0.0
C1790 C 0.51819 0.52074 0.99752 0.0
C1791 C 0.54663 0.53173 0.99191 0.0
H1792 H 0.05508 0.1685 0.2705 0.0
H1793 H 0.23354 0.162 0.30643 0.0
H1794 H 0.02475 0.14778 0.27843 0.0
H1795 H 0.20272 0.14142 0.31542 0.0
H1796 H 0.97626 0.11037 0.29548 0.0
H1797 H -4e-05 0.13124 0.30481 0.0
H1798 H 0.19543 0.12461 0.28817 0.0
H1799 H 0.17172 0.10364 0.27978 0.0
C1800 C 0.08655 0.16277 0.28116 0.0
C1801 C 0.14662 0.16677 0.28774 0.0
C1802 C 0.06939 0.15087 0.28569 0.0
C1803 C 0.11186 0.14282 0.29716 0.0
C1804 C 0.16953 0.14725 0.30597 0.0
C1805 C 0.18692 0.15907 0.3011 0.0
C1806 C 0.02456 0.11333 0.29444 0.0
C1807 C 0.07214 0.10542 0.28665 0.0
C1808 C 0.03806 0.12531 0.29963 0.0
C1809 C 0.09936 0.1297 0.29684 0.0
C1810 C 0.14769 0.12156 0.2908 0.0
C1811 C 0.13424 0.10951 0.28591 0.0
H1812 H 0.17466 0.16658 0.98494 0.0
H1813 H 0.98957 0.15912 0.95603 0.0
H1814 H 0.20533 0.1459 0.97652 0.0
H1815 H 0.02035 0.13856 0.94675 0.0
H1816 H 0.25418 0.10865 0.95858 0.0
H1817 H 0.22521 0.12928 0.94913 0.0
H1818 H 0.03637 0.122 0.97466 0.0
H1819 H 0.06527 0.10126 0.98332 0.0
C1820 C 0.14153 0.16065 0.97571 0.0
C1821 C 0.07981 0.16438 0.97127 0.0
C1822 C 0.15887 0.14877 0.97091 0.0
C1823 C 0.11483 0.14047 0.96137 0.0
C1824 C 0.05492 0.14461 0.95466 0.0
C1825 C 0.0375 0.15641 0.95972 0.0
C1826 C 0.20597 0.1114 0.96144 0.0
C1827 C 0.16198 0.10341 0.97187 0.0
C1828 C 0.18953 0.12324 0.95622 0.0
C1829 C 0.12885 0.1274 0.96157 0.0
C1830 C 0.08349 0.11912 0.97008 0.0
C1831 C 0.09987 0.1072 0.97506 0.0
H1832 H 0.9422 0.91371 0.72969 0.0
H1833 H 0.76418 0.91203 0.69065 0.0
H1834 H 0.95478 0.89221 0.7249 0.0
H1835 H 0.77686 0.89027 0.68604 0.0
H1836 H 0.79043 0.85188 0.72377 0.0
H1837 H 0.77859 0.87341 0.71898 0.0
H1838 H 0.9686 0.87589 0.69125 0.0
H1839 H 0.98053 0.85411 0.69587 0.0
C1840 C 0.90565 0.90875 0.72003 0.0
C1841 C 0.85168 0.91457 0.71083 0.0
C1842 C 0.91338 0.89643 0.71702 0.0
C1843 C 0.867 0.88957 0.70503 0.0
C1844 C 0.81336 0.89537 0.6954 0.0
C1845 C 0.80606 0.90779 0.69803 0.0
C1846 C 0.82969 0.85698 0.71647 0.0
C1847 C 0.8868 0.85132 0.71052 0.0
C1848 C 0.82255 0.86931 0.71346 0.0
C1849 C 0.87258 0.87633 0.70475 0.0
C1850 C 0.92929 0.87067 0.69809 0.0
C1851 C 0.93614 0.85823 0.70069 0.0
H1852 H 0.98389 0.91238 0.07308 0.0
H1853 H 0.80481 0.91487 0.03508 0.0
H1854 H 0.96849 0.89066 0.07788 0.0
H1855 H 0.78943 0.89345 0.04014 0.0
H1856 H 0.75969 0.85558 0.07024 0.0
H1857 H 0.77526 0.8773 0.0747 0.0
H1858 H 0.96231 0.8738 0.04431 0.0
H1859 H 0.94676 0.85234 0.03958 0.0
C1860 C 0.94122 0.90833 0.06598 0.0
C1861 C 0.89608 0.9153 0.05339 0.0
C1862 C 0.93235 0.89594 0.06873 0.0
C1863 C 0.87755 0.89041 0.05949 0.0
C1864 C 0.83169 0.89747 0.04772 0.0
C1865 C 0.84101 0.90974 0.04455 0.0
C1866 C 0.80422 0.85947 0.06479 0.0
C1867 C 0.85159 0.8523 0.05423 0.0
C1868 C 0.81315 0.87186 0.06731 0.0
C1869 C 0.87009 0.8772 0.05988 0.0
C1870 C 0.91826 0.86993 0.05043 0.0
C1871 C 0.90897 0.85765 0.04746 0.0
H1872 H 0.99584 0.60693 0.80604 0.0
H1873 H 0.17931 0.60027 0.77471 0.0
H1874 H 0.02516 0.62758 0.81522 0.0
H1875 H 0.20851 0.62104 0.78308 0.0
H1876 H 0.06324 0.66502 0.77774 0.0
H1877 H 0.03724 0.64418 0.78685 0.0
H1878 H 0.22839 0.63772 0.81047 0.0
H1879 H 0.25441 0.65845 0.80064 0.0
C1880 C 0.04322 0.60983 0.80187 0.0
C1881 C 0.08542 0.60207 0.78965 0.0
C1882 C 0.05977 0.62168 0.80685 0.0
C1883 C 0.11865 0.62607 0.79941 0.0
C1884 C 0.16284 0.61797 0.78925 0.0
C1885 C 0.14638 0.60604 0.7845 0.0
C1886 C 0.09901 0.65924 0.78567 0.0
C1887 C 0.16086 0.66329 0.78821 0.0
C1888 C 0.08429 0.64727 0.79091 0.0
C1889 C 0.13111 0.63919 0.79902 0.0
C1890 C 0.19162 0.6436 0.80372 0.0
C1891 C 0.20637 0.6555 0.79826 0.0
H1892 H 0.17935 0.6664 0.48415 0.0
H1893 H 0.9908 0.65883 0.45919 0.0
H1894 H 0.20846 0.64562 0.47617 0.0
H1895 H 0.02005 0.63816 0.45032 0.0
H1896 H 0.06955 0.601 0.48642 0.0
H1897 H 0.03937 0.62167 0.47781 0.0
H1898 H 0.22534 0.62893 0.44897 0.0
H1899 H 0.25571 0.60838 0.4585 0.0
C1900 C 0.14488 0.6604 0.476 0.0
C1901 C 0.08279 0.66416 0.47254 0.0
C1902 C 0.16139 0.64847 0.4714 0.0
C1903 C 0.11622 0.64013 0.46298 0.0
C1904 C 0.05557 0.64424 0.45737 0.0
C1905 C 0.03897 0.65611 0.46225 0.0
C1906 C 0.10313 0.60692 0.47742 0.0
C1907 C 0.16497 0.60316 0.47333 0.0
C1908 C 0.08602 0.61879 0.47248 0.0
C1909 C 0.13036 0.62706 0.4631 0.0
C1910 C 0.19051 0.62291 0.45678 0.0
C1911 C 0.20773 0.61111 0.46201 0.0
H1912 H 0.79511 0.35507 0.22285 0.0
H1913 H 0.97793 0.35715 0.18779 0.0
H1914 H 0.78206 0.37659 0.21786 0.0
H1915 H 0.96487 0.37889 0.18307 0.0
H1916 H 0.94595 0.41683 0.22241 0.0
H1917 H 0.95793 0.39531 0.21733 0.0
H1918 H 0.77368 0.39329 0.18368 0.0
H1919 H 0.76184 0.4151 0.18846 0.0
C1920 C 0.83252 0.36013 0.21399 0.0
C1921 C 0.888 0.35443 0.20601 0.0
C1922 C 0.82459 0.37244 0.21086 0.0
C1923 C 0.8723 0.3794 0.20002 0.0
C1924 C 0.92734 0.37371 0.1915 0.0
C1925 C 0.93485 0.3613 0.19422 0.0
C1926 C 0.90804 0.41183 0.21373 0.0
C1927 C 0.85255 0.41762 0.20611 0.0
C1928 C 0.91529 0.39952 0.21058 0.0
C1929 C 0.86685 0.39264 0.20008 0.0
C1930 C 0.81174 0.39842 0.19186 0.0
C1931 C 0.80495 0.41086 0.19456 0.0
H1932 H 0.90461 0.35379 0.50906 0.0
H1933 H 0.80949 0.35388 0.58164 0.0
H1934 H 0.92048 0.37512 0.51211 0.0
H1935 H 0.82471 0.37569 0.58434 0.0
H1936 H 0.92764 0.41361 0.58621 0.0
H1937 H 0.91313 0.39175 0.58754 0.0
H1938 H 0.84995 0.39235 0.50964 0.0
H1939 H 0.86526 0.41374 0.50803 0.0
C1940 C 0.88664 0.35835 0.5257 0.0
C1941 C 0.85529 0.35204 0.54506 0.0
C1942 C 0.89576 0.37064 0.52738 0.0
C1943 C 0.87356 0.37711 0.54838 0.0
C1944 C 0.84266 0.3709 0.56799 0.0
C1945 C 0.83337 0.35846 0.5663 0.0
C1946 C 0.91122 0.40902 0.56936 0.0
C1947 C 0.89801 0.41546 0.547 0.0
C1948 C 0.90226 0.39655 0.57022 0.0
C1949 C 0.88059 0.39034 0.54866 0.0
C1950 C 0.86745 0.39682 0.52647 0.0
C1951 C 0.87614 0.40915 0.52562 0.0
H1952 H 0.68531 0.10105 0.77497 0.0
H1953 H 0.49953 0.1078 0.80398 0.0
H1954 H 0.71395 0.12181 0.78354 0.0
H1955 H 0.52838 0.12843 0.81347 0.0
H1956 H 0.57027 0.166 0.77742 0.0
H1957 H 0.54277 0.14521 0.78628 0.0
H1958 H 0.73283 0.13835 0.81089 0.0
H1959 H 0.76034 0.15902 0.80108 0.0
C1960 C 0.65154 0.10685 0.78419 0.0
C1961 C 0.59019 0.10289 0.78861 0.0
C1962 C 0.66776 0.11878 0.78912 0.0
C1963 C 0.62303 0.12689 0.79882 0.0
C1964 C 0.56347 0.12254 0.80543 0.0
C1965 C 0.54713 0.11069 0.80022 0.0
C1966 C 0.60535 0.16014 0.78561 0.0
C1967 C 0.66736 0.16404 0.78841 0.0
C1968 C 0.58982 0.1482 0.79068 0.0
C1969 C 0.63599 0.14 0.79888 0.0
C1970 C 0.69654 0.14431 0.80401 0.0
C1971 C 0.71214 0.15617 0.79864 0.0
H1972 H 0.67713 0.16611 0.48485 0.0
H1973 H 0.48992 0.15883 0.45794 0.0
H1974 H 0.70628 0.14535 0.47659 0.0
H1975 H 0.51922 0.13819 0.44883 0.0
H1976 H 0.75345 0.10813 0.45799 0.0
H1977 H 0.72419 0.12879 0.44901 0.0
H1978 H 0.53672 0.12153 0.47618 0.0
H1979 H 0.56586 0.10075 0.4843 0.0
C1980 C 0.64303 0.16019 0.47619 0.0
C1981 C 0.58124 0.16402 0.47226 0.0
C1982 C 0.65956 0.14826 0.47145 0.0
C1983 C 0.61469 0.14 0.46242 0.0
C1984 C 0.55448 0.1442 0.45635 0.0
C1985 C 0.53786 0.15605 0.46135 0.0
C1986 C 0.70542 0.11089 0.46127 0.0
C1987 C 0.66192 0.10289 0.47198 0.0
C1988 C 0.68883 0.12275 0.45636 0.0
C1989 C 0.62852 0.12693 0.46234 0.0
C1990 C 0.58353 0.11864 0.47113 0.0
C1991 C 0.60003 0.1067 0.47578 0.0
H1992 H 0.31307 0.91574 0.17065 0.0
H1993 H 0.34107 0.91463 0.25192 0.0
H1994 H 0.32939 0.89394 0.16867 0.0
H1995 H 0.35848 0.89326 0.24986 0.0
H1996 H 0.32195 0.85424 0.24399 0.0
H1997 H 0.29868 0.87533 0.24165 0.0
H1998 H 0.41737 0.87873 0.17562 0.0
H1999 H 0.44008 0.85716 0.17746 0.0
C2000 C 0.32176 0.91085 0.18807 0.0
C2001 C 0.32554 0.91691 0.21144 0.0
C2002 C 0.33196 0.89842 0.18689 0.0
C2003 C 0.34531 0.89188 0.2091 0.0
C2004 C 0.34759 0.89797 0.23242 0.0
C2005 C 0.33774 0.91027 0.23358 0.0
C2006 C 0.34354 0.85937 0.22888 0.0
C2007 C 0.38365 0.85393 0.21104 0.0
C2008 C 0.33003 0.87154 0.2276 0.0
C2009 C 0.35652 0.87874 0.2086 0.0
C2010 C 0.39591 0.87337 0.1904 0.0
C2011 C 0.40942 0.86106 0.19162 0.0
H2012 H 0.30193 0.91416 0.531 0.0
H2013 H 0.48343 0.91245 0.5673 0.0
H2014 H 0.29076 0.89258 0.53517 0.0
H2015 H 0.47218 0.89063 0.57125 0.0
H2016 H 0.45658 0.85236 0.53331 0.0
H2017 H 0.46776 0.87394 0.53774 0.0
H2018 H 0.28091 0.8761 0.56888 0.0
H2019 H 0.26964 0.8543 0.56465 0.0
C2020 C 0.33953 0.90917 0.53992 0.0
C2021 C 0.394 0.91501 0.54856 0.0
C2022 C 0.33267 0.89681 0.54256 0.0
C2023 C 0.38043 0.88994 0.55359 0.0
C2024 C 0.43465 0.89575 0.56263 0.0
C2025 C 0.44109 0.9082 0.56038 0.0
C2026 C 0.41784 0.8574 0.54124 0.0
C2027 C 0.36183 0.85164 0.54835 0.0
C2028 C 0.42464 0.86975 0.54403 0.0
C2029 C 0.37531 0.87669 0.55367 0.0
C2030 C 0.31965 0.87094 0.56132 0.0
C2031 C 0.3132 0.85849 0.55893 0.0
H2032 H 0.55874 0.66812 0.26953 0.0
H2033 H 0.7352 0.66161 0.30704 0.0
H2034 H 0.52743 0.64747 0.27763 0.0
H2035 H 0.70335 0.64109 0.31617 0.0
H2036 H 0.67334 0.60321 0.281 0.0
H2037 H 0.69702 0.6242 0.28904 0.0
H2038 H 0.50099 0.63104 0.30414 0.0
H2039 H 0.47733 0.61013 0.29518 0.0
C2040 C 0.58949 0.66241 0.28058 0.0
C2041 C 0.64934 0.66638 0.28756 0.0
C2042 C 0.57178 0.65054 0.2852 0.0
C2043 C 0.61347 0.64251 0.29714 0.0
C2044 C 0.6708 0.64692 0.30636 0.0
C2045 C 0.68875 0.6587 0.30141 0.0
C2046 C 0.63567 0.60913 0.28669 0.0
C2047 C 0.57349 0.60508 0.28712 0.0
C2048 C 0.64912 0.62119 0.29139 0.0
C2049 C 0.60069 0.62939 0.29692 0.0
C2050 C 0.53919 0.62506 0.29936 0.0
C2051 C 0.52571 0.61306 0.29437 0.0
H2052 H 0.5022 0.65889 0.95498 0.0
H2053 H 0.68687 0.66617 0.9846 0.0
H2054 H 0.53207 0.6382 0.94657 0.0
H2055 H 0.71658 0.64538 0.97696 0.0
H2056 H 0.76431 0.60802 0.9605 0.0
H2057 H 0.73624 0.62858 0.95001 0.0
H2058 H 0.54662 0.62179 0.9752 0.0
H2059 H 0.57471 0.60109 0.98488 0.0
C2060 C 0.54985 0.65611 0.95903 0.0
C2061 C 0.59224 0.66408 0.97056 0.0
C2062 C 0.56673 0.64424 0.95445 0.0
C2063 C 0.62622 0.64003 0.96156 0.0
C2064 C 0.67043 0.6483 0.97106 0.0
C2065 C 0.65363 0.66025 0.97541 0.0
C2066 C 0.71612 0.61085 0.96301 0.0
C2067 C 0.67164 0.60303 0.97363 0.0
C2068 C 0.7002 0.62266 0.95721 0.0
C2069 C 0.63958 0.62694 0.96221 0.0
C2070 C 0.59372 0.6188 0.97089 0.0
C2071 C 0.60959 0.60691 0.97644 0.0
H2072 H 0.26557 0.41174 0.68835 0.0
H2073 H 0.44817 0.41484 0.72323 0.0
H2074 H 0.28108 0.39 0.68441 0.0
H2075 H 0.46371 0.39334 0.71899 0.0
H2076 H 0.48825 0.3548 0.69004 0.0
H2077 H 0.47393 0.37654 0.6853 0.0
H2078 H 0.29038 0.37378 0.71929 0.0
H2079 H 0.30468 0.35231 0.72433 0.0
C2080 C 0.30915 0.40781 0.69486 0.0
C2081 C 0.35522 0.41495 0.70641 0.0
C2082 C 0.31803 0.39541 0.69263 0.0
C2083 C 0.3737 0.39002 0.70136 0.0
C2084 C 0.42068 0.39726 0.71188 0.0
C2085 C 0.41137 0.40955 0.71454 0.0
C2086 C 0.44483 0.35886 0.69634 0.0
C2087 C 0.39803 0.35188 0.70787 0.0
C2088 C 0.4366 0.37126 0.69362 0.0
C2089 C 0.38086 0.37681 0.70182 0.0
C2090 C 0.33344 0.36974 0.71253 0.0
C2091 C 0.34209 0.35745 0.71569 0.0
H2092 H 0.43444 0.41306 0.08219 0.0
H2093 H 0.34333 0.41396 0.00878 0.0
H2094 H 0.41649 0.3913 0.08416 0.0
H2095 H 0.32475 0.39271 0.01112 0.0
H2096 H 0.37453 0.35378 0.00666 0.0
H2097 H 0.39229 0.37512 0.00874 0.0
H2098 H 0.32638 0.37568 0.08627 0.0
H2099 H 0.30945 0.35391 0.08446 0.0
C2100 C 0.41086 0.40867 0.06653 0.0
C2101 C 0.39082 0.4153 0.04527 0.0
C2102 C 0.40002 0.39626 0.06778 0.0
C2103 C 0.36945 0.3903 0.04773 0.0
C2104 C 0.34919 0.39698 0.02672 0.0
C2105 C 0.35983 0.40924 0.02546 0.0
C2106 C 0.36347 0.35837 0.02423 0.0
C2107 C 0.34022 0.35208 0.04539 0.0
C2108 C 0.3736 0.37066 0.02537 0.0
C2109 C 0.36056 0.3771 0.04763 0.0
C2110 C 0.33726 0.37091 0.06891 0.0
C2111 C 0.32686 0.35849 0.06776 0.0
H2112 H 0.02905 0.05652 0.33562 0.0
H2113 H 0.84989 0.06907 0.3079 0.0
H2114 H 0.98548 0.05465 0.37818 0.0
H2115 H 0.8065 0.06715 0.35064 0.0
H2116 H 0.73504 0.05409 0.42694 0.0
H2117 H 0.78013 0.05227 0.38468 0.0
H2118 H 0.94924 0.06953 0.41083 0.0
H2119 H 0.90426 0.07142 0.45332 0.0
C2120 C 0.98007 0.0587 0.33843 0.0
C2121 C 0.94313 0.06302 0.3182 0.0
C2122 C 0.95531 0.05771 0.36294 0.0
C2123 C 0.89276 0.06085 0.36785 0.0
C2124 C 0.85485 0.06459 0.34745 0.0
C2125 C 0.87978 0.06572 0.32294 0.0
C2126 C 0.78226 0.05736 0.42392 0.0
C2127 C 0.81578 0.06299 0.44367 0.0
C2128 C 0.80786 0.05637 0.39955 0.0
C2129 C 0.86795 0.06085 0.39431 0.0
C2130 C 0.90287 0.06593 0.41429 0.0
C2131 C 0.87701 0.06703 0.43866 0.0
H2132 H 0.22503 0.21343 0.33352 0.0
H2133 H 0.39689 0.19721 0.30681 0.0
H2134 H 0.26858 0.21472 0.37617 0.0
H2135 H 0.44042 0.19861 0.34967 0.0
H2136 H 0.51614 0.21176 0.4258 0.0
H2137 H 0.47298 0.21371 0.38321 0.0
H2138 H 0.29713 0.19912 0.40933 0.0
H2139 H 0.34025 0.19705 0.45215 0.0
C2140 C 0.27252 0.21032 0.33656 0.0
C2141 C 0.30732 0.20516 0.31659 0.0
C2142 C 0.29719 0.21098 0.36113 0.0
C2143 C 0.35763 0.20668 0.36634 0.0
C2144 C 0.39372 0.20205 0.34622 0.0
C2145 C 0.36873 0.20124 0.32165 0.0
C2146 C 0.4679 0.20911 0.42269 0.0
C2147 C 0.4318 0.20418 0.44254 0.0
C2148 C 0.44342 0.21016 0.39815 0.0
C2149 C 0.38192 0.20648 0.39285 0.0
C2150 C 0.34468 0.20208 0.41286 0.0
C2151 C 0.36943 0.20088 0.4374 0.0
H2152 H 0.87032 0.18629 0.81343 0.0
H2153 H 0.77209 0.21983 0.82304 0.0
H2154 H 0.90522 0.18723 0.85753 0.0
H2155 H 0.80872 0.22085 0.86719 0.0
H2156 H 0.96068 0.21955 0.9367 0.0
H2157 H 0.92299 0.22102 0.89277 0.0
H2158 H 0.8327 0.18666 0.90036 0.0
H2159 H 0.86874 0.18527 0.94432 0.0
C2160 C 0.85752 0.19403 0.82469 0.0
C2161 C 0.81837 0.20299 0.81463 0.0
C2162 C 0.87699 0.19448 0.85004 0.0
C2163 C 0.85894 0.20403 0.86579 0.0
C2164 C 0.82305 0.21338 0.85543 0.0
C2165 C 0.80233 0.2128 0.83016 0.0
C2166 C 0.93156 0.21244 0.92917 0.0
C2167 C 0.91762 0.2023 0.94406 0.0
C2168 C 0.91018 0.21328 0.90405 0.0
C2169 C 0.87573 0.20388 0.89315 0.0
C2170 C 0.85973 0.19398 0.90828 0.0
C2171 C 0.87984 0.19325 0.93353 0.0
H2172 H 0.22807 0.05561 0.92606 0.0
H2173 H 0.40263 0.07072 0.95285 0.0
H2174 H 0.27171 0.05392 0.8835 0.0
H2175 H 0.44621 0.06892 0.91008 0.0
H2176 H 0.52016 0.05526 0.83415 0.0
H2177 H 0.47637 0.05362 0.87669 0.0
H2178 H 0.30313 0.06919 0.85023 0.0
H2179 H 0.34689 0.07094 0.80747 0.0
C2180 C 0.27613 0.05839 0.92305 0.0
C2181 C 0.31169 0.06336 0.94302 0.0
C2182 C 0.30088 0.0575 0.89853 0.0
C2183 C 0.36212 0.06138 0.89336 0.0
C2184 C 0.39887 0.0658 0.9135 0.0
C2185 C 0.37386 0.06684 0.93802 0.0
C2186 C 0.47234 0.05819 0.83717 0.0
C2187 C 0.4372 0.0633 0.81724 0.0
C2188 C 0.44751 0.05731 0.86168 0.0
C2189 C 0.38659 0.06137 0.86688 0.0
C2190 C 0.35021 0.06594 0.84678 0.0
C2191 C 0.37533 0.06696 0.82227 0.0
H2192 H 0.18697 0.96011 0.55968 0.0
H2193 H 0.30637 0.94826 0.62106 0.0
H2194 H 0.09876 0.96127 0.58909 0.0
H2195 H 0.21826 0.9489 0.65004 0.0
H2196 H 0.94184 0.94777 0.64009 0.0
H2197 H 0.03035 0.94867 0.61144 0.0
H2198 H 0.14818 0.96103 0.67293 0.0
H2199 H 0.05934 0.95962 0.70207 0.0
C2200 C 0.19432 0.95769 0.57939 0.0
C2201 C 0.25369 0.95408 0.58796 0.0
C2202 C 0.14372 0.95831 0.59627 0.0
C2203 C 0.15115 0.95514 0.62203 0.0
C2204 C 0.21078 0.95162 0.63054 0.0
C2205 C 0.26137 0.95117 0.61378 0.0
C2206 C 0.98654 0.95074 0.64758 0.0
C2207 C 0.99349 0.9536 0.67345 0.0
C2208 C 0.03738 0.95134 0.63101 0.0
C2209 C 0.09661 0.95499 0.63972 0.0
C2210 C 0.10349 0.95802 0.66558 0.0
C2211 C 0.05256 0.95725 0.68231 0.0
H2212 H 0.8063 0.81647 0.64152 0.0
H2213 H 0.68328 0.8055 0.70247 0.0
H2214 H 0.72001 0.81551 0.61182 0.0
H2215 H 0.59672 0.804 0.67228 0.0
H2216 H 0.4438 0.81763 0.61896 0.0
H2217 H 0.53002 0.81643 0.64868 0.0
H2218 H 0.65074 0.80336 0.5888 0.0
H2219 H 0.56434 0.8051 0.55858 0.0
C2220 C 0.76091 0.81366 0.64857 0.0
C2221 C 0.7517 0.81112 0.67449 0.0
C2222 C 0.71132 0.81301 0.63138 0.0
C2223 C 0.65113 0.80966 0.6395 0.0
C2224 C 0.64217 0.80682 0.66536 0.0
C2225 C 0.69181 0.80763 0.6827 0.0
C2226 C 0.48862 0.81444 0.61206 0.0
C2227 C 0.49718 0.81152 0.58629 0.0
C2228 C 0.53814 0.81365 0.62926 0.0
C2229 C 0.59759 0.80977 0.62129 0.0
C2230 C 0.6059 0.80659 0.59558 0.0
C2231 C 0.55636 0.80753 0.57823 0.0
H2232 H 0.29942 0.8206 0.13683 0.0
H2233 H 0.19199 0.80615 0.19933 0.0
H2234 H 0.20919 0.81892 0.10929 0.0
H2235 H 0.10148 0.80398 0.17124 0.0
H2236 H 0.93548 0.81644 0.12264 0.0
H2237 H 0.02571 0.81574 0.15044 0.0
H2238 H 0.14304 0.80589 0.08681 0.0
H2239 H 0.0525 0.80711 0.05858 0.0
C2240 C 0.25664 0.8169 0.14466 0.0
C2241 C 0.25294 0.81354 0.17039 0.0
C2242 C 0.20484 0.81584 0.12871 0.0
C2243 C 0.14789 0.81125 0.13789 0.0
C2244 C 0.14433 0.80771 0.16356 0.0
C2245 C 0.19621 0.80892 0.17969 0.0
C2246 C 0.98039 0.81404 0.1145 0.0
C2247 C 0.98675 0.81192 0.08826 0.0
C2248 C 0.03226 0.81355 0.13058 0.0
C2249 C 0.09193 0.81079 0.12097 0.0
C2250 C 0.09801 0.80828 0.09484 0.0
C2251 C 0.04608 0.80892 0.07863 0.0
H2252 H 0.80337 0.94842 0.12329 0.0
H2253 H 0.68897 0.95971 0.0599 0.0
H2254 H 0.71253 0.94881 0.15082 0.0
H2255 H 0.59785 0.96063 0.08789 0.0
H2256 H 0.4366 0.94763 0.1371 0.0
H2257 H 0.52783 0.94809 0.1097 0.0
H2258 H 0.64039 0.961 0.1723 0.0
H2259 H 0.54897 0.96001 0.20013 0.0
C2260 C 0.75886 0.95115 0.11526 0.0
C2261 C 0.75345 0.95401 0.08932 0.0
C2262 C 0.70666 0.95146 0.13118 0.0
C2263 C 0.64762 0.95478 0.1217 0.0
C2264 C 0.64234 0.95783 0.0958 0.0
C2265 C 0.6946 0.95736 0.07974 0.0
C2266 C 0.48082 0.95058 0.14507 0.0
C2267 C 0.48557 0.95377 0.17085 0.0
C2268 C 0.53317 0.95094 0.12924 0.0
C2269 C 0.59165 0.95465 0.13864 0.0
C2270 C 0.59636 0.95791 0.16444 0.0
C2271 C 0.54397 0.95739 0.18043 0.0
H2272 H 0.87586 0.5819 0.81627 0.0
H2273 H 0.96443 0.54729 0.82397 0.0
H2274 H 0.84155 0.58084 0.86048 0.0
H2275 H 0.9286 0.54618 0.86816 0.0
H2276 H 0.78213 0.54761 0.93842 0.0
H2277 H 0.81829 0.54648 0.89427 0.0
H2278 H 0.91187 0.58047 0.903 0.0
H2279 H 0.87719 0.58152 0.94719 0.0
C2280 C 0.88657 0.57392 0.82714 0.0
C2281 C 0.92285 0.56467 0.81654 0.0
C2282 C 0.86755 0.57339 0.85255 0.0
C2283 C 0.88322 0.5635 0.86777 0.0
C2284 C 0.91614 0.55392 0.85683 0.0
C2285 C 0.9364 0.55455 0.83154 0.0
C2286 C 0.81168 0.5547 0.93109 0.0
C2287 C 0.82693 0.56464 0.94636 0.0
C2288 C 0.83213 0.55406 0.90583 0.0
C2289 C 0.86699 0.56347 0.89519 0.0
C2290 C 0.8844 0.57316 0.9107 0.0
C2291 C 0.86515 0.57368 0.93608 0.0
H2292 H 0.22531 0.71138 0.83397 0.0
H2293 H 0.39863 0.69601 0.80648 0.0
H2294 H 0.26981 0.71292 0.87637 0.0
H2295 H 0.44314 0.69769 0.84915 0.0
H2296 H 0.51832 0.71133 0.92513 0.0
H2297 H 0.47417 0.713 0.88265 0.0
H2298 H 0.3012 0.6974 0.90929 0.0
H2299 H 0.34533 0.6956 0.95199 0.0
C2300 C 0.27329 0.7085 0.83678 0.0
C2301 C 0.30822 0.70349 0.81666 0.0
C2302 C 0.29853 0.70932 0.86122 0.0
C2303 C 0.35966 0.70532 0.86616 0.0
C2304 C 0.39587 0.70088 0.84589 0.0
C2305 C 0.37034 0.69992 0.82143 0.0
C2306 C 0.47048 0.7084 0.92216 0.0
C2307 C 0.4355 0.70327 0.94212 0.0
C2308 C 0.44546 0.70929 0.89769 0.0
C2309 C 0.3845 0.70524 0.89257 0.0
C2310 C 0.34831 0.70064 0.91269 0.0
C2311 C 0.37363 0.6996 0.93716 0.0
H2312 H 0.84367 0.69723 0.45152 0.0
H2313 H 0.01935 0.71198 0.42502 0.0
H2314 H 0.80073 0.69908 0.40861 0.0
H2315 H 0.9764 0.7137 0.38237 0.0
H2316 H 0.90157 0.69667 0.30634 0.0
H2317 H 0.94451 0.69832 0.34925 0.0
H2318 H 0.77221 0.71453 0.37498 0.0
H2319 H 0.72924 0.713 0.33226 0.0
C2320 C 0.87283 0.70103 0.43673 0.0
C2321 C 0.93512 0.70439 0.44184 0.0
C2322 C 0.84819 0.7021 0.41214 0.0
C2323 C 0.88547 0.70643 0.39207 0.0
C2324 C 0.94683 0.71019 0.39736 0.0
C2325 C 0.9712 0.70927 0.42193 0.0
C2326 C 0.87318 0.70077 0.32101 0.0
C2327 C 0.81183 0.70466 0.31573 0.0
C2328 C 0.89783 0.70173 0.34561 0.0
C2329 C 0.86145 0.70646 0.36554 0.0
C2330 C 0.80105 0.71072 0.3601 0.0
C2331 C 0.77671 0.70991 0.33549 0.0
H2332 H 0.53238 0.5564 0.33789 0.0
H2333 H 0.35272 0.5687 0.31018 0.0
H2334 H 0.48933 0.55475 0.38056 0.0
H2335 H 0.30984 0.567 0.35305 0.0
H2336 H 0.2398 0.55426 0.42989 0.0
H2337 H 0.28432 0.55224 0.38756 0.0
H2338 H 0.45321 0.56987 0.41281 0.0
H2339 H 0.4088 0.57197 0.45536 0.0
C2340 C 0.4834 0.55858 0.34073 0.0
C2341 C 0.44616 0.56277 0.32046 0.0
C2342 C 0.45895 0.55771 0.36531 0.0
C2343 C 0.39642 0.56085 0.37025 0.0
C2344 C 0.35819 0.56445 0.34983 0.0
C2345 C 0.38282 0.56545 0.32525 0.0
C2346 C 0.28687 0.55757 0.42666 0.0
C2347 C 0.3205 0.56336 0.44616 0.0
C2348 C 0.31212 0.55647 0.40226 0.0
C2349 C 0.37197 0.56099 0.39675 0.0
C2350 C 0.40702 0.56624 0.41649 0.0
C2351 C 0.38149 0.56746 0.44089 0.0
H2352 H 0.94792 0.46521 0.14204 0.0
H2353 H 0.06419 0.44916 0.20005 0.0
H2354 H 0.03677 0.46584 0.11334 0.0
H2355 H 0.15315 0.44947 0.17088 0.0
H2356 H 0.31335 0.46085 0.11985 0.0
H2357 H 0.22574 0.46222 0.14911 0.0
H2358 H 0.09872 0.45232 0.0887 0.0
H2359 H 0.18649 0.45127 0.0591 0.0
C2360 C 0.99253 0.46181 0.14873 0.0
C2361 C 0.99882 0.45708 0.17338 0.0
C2362 C 0.04344 0.4621 0.13213 0.0
C2363 C 0.10199 0.45759 0.13964 0.0
C2364 C 0.10884 0.45313 0.16453 0.0
C2365 C 0.05784 0.45293 0.18127 0.0
C2366 C 0.26672 0.45902 0.11269 0.0
C2367 C 0.25703 0.45591 0.08706 0.0
C2368 C 0.21647 0.45974 0.12958 0.0
C2369 C 0.15518 0.4573 0.12137 0.0
C2370 C 0.14525 0.4544 0.09563 0.0
C2371 C 0.19559 0.45376 0.07864 0.0
H2372 H 0.68669 0.30832 0.19963 0.0
H2373 H 0.80159 0.31969 0.13645 0.0
H2374 H 0.59671 0.30669 0.1712 0.0
H2375 H 0.71175 0.31859 0.10846 0.0
H2376 H 0.55015 0.30727 0.0586 0.0
H2377 H 0.64067 0.30615 0.08691 0.0
H2378 H 0.52639 0.31902 0.14901 0.0
H2379 H 0.43613 0.31963 0.12118 0.0
C2380 C 0.6927 0.31052 0.17973 0.0
C2381 C 0.75133 0.31415 0.17038 0.0
C2382 C 0.64107 0.30964 0.16342 0.0
C2383 C 0.64671 0.31255 0.13746 0.0
C2384 C 0.70563 0.31606 0.12816 0.0
C2385 C 0.75724 0.31677 0.14434 0.0
C2386 C 0.5445 0.30981 0.07832 0.0
C2387 C 0.48592 0.31353 0.08758 0.0
C2388 C 0.5964 0.30922 0.09457 0.0
C2389 C 0.59103 0.31249 0.12035 0.0
C2390 C 0.53227 0.31618 0.12949 0.0
C2391 C 0.48043 0.31662 0.1134 0.0
H2392 H 0.94648 0.31874 0.61878 0.0
H2393 H 0.06196 0.30637 0.55664 0.0
H2394 H 0.03569 0.31792 0.64706 0.0
H2395 H 0.15152 0.30504 0.58545 0.0
H2396 H 0.31137 0.31813 0.63624 0.0
H2397 H 0.22251 0.3173 0.60765 0.0
H2398 H 0.1045 0.30542 0.66949 0.0
H2399 H 0.19345 0.30677 0.69849 0.0
C2400 C 0.99086 0.31568 0.61118 0.0
C2401 C 0.99702 0.31264 0.58535 0.0
C2402 C 0.04212 0.31511 0.62755 0.0
C2403 C 0.10102 0.31136 0.61869 0.0
C2404 C 0.10711 0.30814 0.5929 0.0
C2405 C 0.05575 0.30886 0.57637 0.0
C2406 C 0.26655 0.31529 0.6438 0.0
C2407 C 0.25951 0.31258 0.66976 0.0
C2408 C 0.21552 0.31472 0.62727 0.0
C2409 C 0.15607 0.31129 0.63614 0.0
C2410 C 0.14929 0.30831 0.66203 0.0
C2411 C 0.20033 0.30904 0.67868 0.0
H2412 H 0.43632 0.46208 0.63928 0.0
H2413 H 0.55636 0.44959 0.6999 0.0
H2414 H 0.52596 0.46301 0.61085 0.0
H2415 H 0.64582 0.45015 0.67118 0.0
H2416 H 0.80419 0.46169 0.62046 0.0
H2417 H 0.71431 0.46303 0.64847 0.0
H2418 H 0.59476 0.44989 0.58831 0.0
H2419 H 0.68493 0.44896 0.55981 0.0
C2420 C 0.4819 0.45955 0.64659 0.0
C2421 C 0.48912 0.45574 0.67191 0.0
C2422 C 0.53326 0.46 0.63018 0.0
C2423 C 0.59311 0.45657 0.6386 0.0
C2424 C 0.60058 0.45301 0.6641 0.0
C2425 C 0.54923 0.45266 0.68059 0.0
C2426 C 0.75873 0.45915 0.61307 0.0
C2427 C 0.75188 0.45516 0.58785 0.0
C2428 C 0.70715 0.45984 0.62926 0.0
C2429 C 0.6473 0.45646 0.62079 0.0
C2430 C 0.64008 0.4527 0.59541 0.0
C2431 C 0.69179 0.45211 0.57907 0.0
loop_
_geom_bond_atom_site_label_1
_geom_bond_atom_site_label_2
_geom_bond_distance
_geom_bond_site_symmetry_2
_ccdc_geom_bond_type
Mn0 O5 2.095 . S
Mn0 O15 2.162 . S
Mn0 O16 2.297 . S
Mn0 O24 2.385 . S
Mn0 O25 2.209 . S
Mn0 O26 2.094 . S
Mn1 O6 2.121 . S
Mn1 N8 2.257 . S
Mn1 N17 2.282 . S
Mn1 O25 2.215 1_655 S
Mn1 O27 2.117 1_655 S
C2 O24 1.234 . S
C2 O25 1.283 . S
C3 O15 1.281 . S
C3 O16 1.236 . S
C4 O26 1.240 . S
C4 O27 1.264 . S
O5 Mn0 2.095 . S
O5 C14 1.250 1_455 S
O6 Mn1 2.121 . S
O6 C14 1.258 . S
C7 N8 1.326 . S
C7 C11 1.460 . S
C7 H13 0.929 . S
N8 Mn1 2.257 . S
N8 C7 1.326 . S
N8 C12 1.362 . S
C9 C10 1.258 . S
C9 C12 1.431 . S
C9 C29 1.449 . S
C10 C9 1.258 . S
C10 C11 1.477 . S
C10 H30 0.931 . S
C11 C7 1.460 . S
C11 C10 1.477 . S
C11 H31 0.930 . S
C12 N8 1.362 . S
C12 C9 1.431 . S
C12 C22 1.476 . S
H13 C7 0.929 . S
C14 O5 1.250 1_655 S
C14 O6 1.258 . S
O15 Mn0 2.162 . S
O15 C3 1.281 . S
O16 Mn0 2.297 . S
O16 C3 1.236 . S
N17 Mn1 2.282 . S
N17 C18 1.328 1_655 S
N17 C22 1.318 . S
C18 N17 1.328 1_455 S
C18 C19 1.457 . S
C18 H23 0.929 . S
C19 C18 1.457 . S
C19 C20 1.294 . S
C19 H32 0.931 . S
C20 C19 1.294 . S
C20 C21 1.369 1_455 S
C20 H33 0.930 . S
C21 C20 1.369 1_655 S
C21 C22 1.396 . S
C21 C28 1.403 . S
C22 C12 1.476 . S
C22 N17 1.318 . S
C22 C21 1.396 . S
H23 C18 0.929 . S
O24 Mn0 2.385 . S
O24 C2 1.234 . S
O25 Mn0 2.209 . S
O25 Mn1 2.215 1_455 S
O25 C2 1.283 . S
O26 Mn0 2.094 . S
O26 C4 1.240 . S
O27 Mn1 2.117 1_455 S
O27 C4 1.264 . S
C28 C21 1.403 . S
C28 C29 1.399 . S
C28 H34 0.929 . S
C29 C9 1.449 . S
C29 C28 1.399 . S
C29 H35 0.930 . S
H30 C10 0.931 . S
H31 C11 0.930 . S
H32 C19 0.931 . S
H33 C20 0.930 . S
H34 C28 0.929 . S
H35 C29 0.930 . S
Mn36 O41 2.095 . S
Mn36 O51 2.162 . S
Mn36 O52 2.297 . S
Mn36 O60 2.385 . S
Mn36 O61 2.209 . S
Mn36 O62 2.094 . S
Mn37 O42 2.121 . S
Mn37 N44 2.257 . S
Mn37 N53 2.282 . S
Mn37 O61 2.215 . S
Mn37 O63 2.117 . S
C38 O60 1.234 . S
C38 O61 1.283 . S
C39 O51 1.281 . S
C39 O52 1.236 . S
C40 O62 1.240 . S
C40 O63 1.264 . S
O41 Mn36 2.095 . S
O41 C50 1.250 . S
O42 Mn37 2.121 . S
O42 C50 1.258 . S
C43 N44 1.326 . S
C43 C47 1.460 . S
C43 H49 0.929 . S
N44 Mn37 2.257 . S
N44 C43 1.326 . S
N44 C48 1.362 . S
C45 C46 1.258 . S
C45 C48 1.431 . S
C45 C65 1.449 . S
C46 C45 1.258 . S
C46 C47 1.477 . S
C46 H66 0.931 . S
C47 C43 1.460 . S
C47 C46 1.477 . S
C47 H67 0.930 . S
C48 N44 1.362 . S
C48 C45 1.431 . S
C48 C58 1.476 . S
H49 C43 0.929 . S
C50 O41 1.250 . S
C50 O42 1.258 . S
O51 Mn36 2.162 . S
O51 C39 1.281 . S
O52 Mn36 2.297 . S
O52 C39 1.236 . S
N53 Mn37 2.282 . S
N53 C54 1.328 . S
N53 C58 1.318 . S
C54 N53 1.328 . S
C54 C55 1.457 . S
C54 H59 0.929 . S
C55 C54 1.457 . S
C55 C56 1.291 . S
C55 H68 0.931 . S
C56 C55 1.291 . S
C56 C57 1.373 . S
C56 H69 0.929 . S
C57 C56 1.373 . S
C57 C58 1.396 . S
C57 C64 1.403 . S
C58 C48 1.476 . S
C58 N53 1.318 . S
C58 C57 1.396 . S
H59 C54 0.929 . S
O60 Mn36 2.385 . S
O60 C38 1.234 . S
O61 Mn36 2.209 . S
O61 Mn37 2.215 . S
O61 C38 1.283 . S
O62 Mn36 2.094 . S
O62 C40 1.240 . S
O63 Mn37 2.117 . S
O63 C40 1.264 . S
C64 C57 1.403 . S
C64 C65 1.399 . S
C64 H70 0.929 . S
C65 C45 1.449 . S
C65 C64 1.399 . S
C65 H71 0.930 . S
H66 C46 0.931 . S
H67 C47 0.930 . S
H68 C55 0.931 . S
H69 C56 0.929 . S
H70 C64 0.929 . S
H71 C65 0.930 . S
Mn72 O77 2.095 . S
Mn72 O87 2.162 . S
Mn72 O88 2.297 . S
Mn72 O96 2.385 1_556 S
Mn72 O97 2.209 1_556 S
Mn72 O98 2.094 . S
Mn73 O78 2.121 1_554 S
Mn73 N80 2.257 . S
Mn73 N89 2.282 . S
Mn73 O97 2.215 1_655 S
Mn73 O99 2.110 1_654 S
C74 O96 1.234 . S
C74 O97 1.283 . S
C75 O87 1.281 . S
C75 O88 1.236 . S
C76 O98 1.240 . S
C76 O99 1.273 . S
O77 Mn72 2.095 . S
O77 C86 1.250 1_455 S
O78 Mn73 2.121 1_556 S
O78 C86 1.258 . S
C79 N80 1.326 . S
C79 C83 1.460 . S
C79 H85 0.929 . S
N80 Mn73 2.257 . S
N80 C79 1.326 . S
N80 C84 1.362 . S
C81 C82 1.258 . S
C81 C84 1.431 . S
C81 C101 1.449 . S
C82 C81 1.258 . S
C82 C83 1.477 . S
C82 H102 0.931 . S
C83 C79 1.460 . S
C83 C82 1.477 . S
C83 H103 0.930 . S
C84 N80 1.362 . S
C84 C81 1.431 . S
C84 C94 1.476 . S
H85 C79 0.929 . S
C86 O77 1.250 1_655 S
C86 O78 1.258 . S
O87 Mn72 2.162 . S
O87 C75 1.281 . S
O88 Mn72 2.297 . S
O88 C75 1.236 . S
N89 Mn73 2.282 . S
N89 C90 1.328 1_655 S
N89 C94 1.318 . S
C90 N89 1.328 1_455 S
C90 C91 1.457 . S
C90 H95 0.929 . S
C91 C90 1.457 . S
C91 C92 1.297 . S
C91 H104 0.931 . S
C92 C91 1.297 . S
C92 C93 1.366 1_455 S
C92 H105 0.930 . S
C93 C92 1.366 1_655 S
C93 C94 1.396 . S
C93 C100 1.403 . S
C94 C84 1.476 . S
C94 N89 1.318 . S
C94 C93 1.396 . S
H95 C90 0.929 . S
O96 Mn72 2.385 1_554 S
O96 C74 1.234 . S
O97 Mn72 2.209 1_554 S
O97 Mn73 2.215 1_455 S
O97 C74 1.283 . S
O98 Mn72 2.094 . S
O98 C76 1.240 . S
O99 Mn73 2.110 1_456 S
O99 C76 1.273 . S
C100 C93 1.403 . S
C100 C101 1.399 . S
C100 H106 0.929 . S
C101 C81 1.449 . S
C101 C100 1.399 . S
C101 H107 0.930 . S
H102 C82 0.931 . S
H103 C83 0.930 . S
H104 C91 0.931 . S
H105 C92 0.930 . S
H106 C100 0.929 . S
H107 C101 0.930 . S
Mn108 O113 2.095 . S
Mn108 O123 2.162 . S
Mn108 O124 2.297 . S
Mn108 O132 2.385 1_556 S
Mn108 O133 2.209 1_556 S
Mn108 O134 2.094 . S
Mn109 O114 2.121 1_554 S
Mn109 N116 2.257 . S
Mn109 N125 2.282 . S
Mn109 O133 2.215 . S
Mn109 O135 2.110 1_554 S
C110 O132 1.234 . S
C110 O133 1.283 . S
C111 O123 1.281 . S
C111 O124 1.236 . S
C112 O134 1.240 . S
C112 O135 1.273 . S
O113 Mn108 2.095 . S
O113 C122 1.250 . S
O114 Mn109 2.121 1_556 S
O114 C122 1.258 . S
C115 N116 1.326 . S
C115 C119 1.460 . S
C115 H121 0.929 . S
N116 Mn109 2.257 . S
N116 C115 1.326 . S
N116 C120 1.362 . S
C117 C118 1.258 . S
C117 C120 1.431 . S
C117 C137 1.449 . S
C118 C117 1.258 . S
C118 C119 1.477 . S
C118 H138 0.931 . S
C119 C115 1.460 . S
C119 C118 1.477 . S
C119 H139 0.930 . S
C120 N116 1.362 . S
C120 C117 1.431 . S
C120 C130 1.476 . S
H121 C115 0.929 . S
C122 O113 1.250 . S
C122 O114 1.258 . S
O123 Mn108 2.162 . S
O123 C111 1.281 . S
O124 Mn108 2.297 . S
O124 C111 1.236 . S
N125 Mn109 2.282 . S
N125 C126 1.328 . S
N125 C130 1.318 . S
C126 N125 1.328 . S
C126 C127 1.457 . S
C126 H131 0.929 . S
C127 C126 1.457 . S
C127 C128 1.291 . S
C127 H140 0.931 . S
C128 C127 1.291 . S
C128 C129 1.373 . S
C128 H141 0.929 . S
C129 C128 1.373 . S
C129 C130 1.396 . S
C129 C136 1.403 . S
C130 C120 1.476 . S
C130 N125 1.318 . S
C130 C129 1.396 . S
H131 C126 0.929 . S
O132 Mn108 2.385 1_554 S
O132 C110 1.234 . S
O133 Mn108 2.209 1_554 S
O133 Mn109 2.215 . S
O133 C110 1.283 . S
O134 Mn108 2.094 . S
O134 C112 1.240 . S
O135 Mn109 2.110 1_556 S
O135 C112 1.273 . S
C136 C129 1.403 . S
C136 C137 1.399 . S
C136 H142 0.929 . S
C137 C117 1.449 . S
C137 C136 1.399 . S
C137 H143 0.930 . S
H138 C118 0.931 . S
H139 C119 0.930 . S
H140 C127 0.931 . S
H141 C128 0.929 . S
H142 C136 0.929 . S
H143 C137 0.930 . S
Mn144 O149 2.095 . S
Mn144 O159 2.162 . S
Mn144 O160 2.297 . S
Mn144 O168 2.385 . S
Mn144 O169 2.209 . S
Mn144 O170 2.089 1_655 S
Mn145 O150 2.121 . S
Mn145 N152 2.257 . S
Mn145 N161 2.282 . S
Mn145 O169 2.215 . S
Mn145 O171 2.117 . S
C146 O168 1.234 . S
C146 O169 1.283 . S
C147 O159 1.281 . S
C147 O160 1.236 . S
C148 O170 1.240 1_655 S
C148 O171 1.264 . S
O149 Mn144 2.095 . S
O149 C158 1.250 . S
O150 Mn145 2.121 . S
O150 C158 1.258 . S
C151 N152 1.326 . S
C151 C155 1.460 . S
C151 H157 0.929 . S
N152 Mn145 2.257 . S
N152 C151 1.326 . S
N152 C156 1.362 . S
C153 C154 1.258 . S
C153 C156 1.431 . S
C153 C173 1.449 . S
C154 C153 1.258 . S
C154 C155 1.477 . S
C154 H174 0.931 . S
C155 C151 1.460 . S
C155 C154 1.477 . S
C155 H175 0.930 . S
C156 N152 1.362 . S
C156 C153 1.431 . S
C156 C166 1.476 . S
H157 C151 0.929 . S
C158 O149 1.250 . S
C158 O150 1.258 . S
O159 Mn144 2.162 . S
O159 C147 1.281 . S
O160 Mn144 2.297 . S
O160 C147 1.236 . S
N161 Mn145 2.282 . S
N161 C162 1.328 . S
N161 C166 1.318 . S
C162 N161 1.328 . S
C162 C163 1.457 . S
C162 H167 0.929 . S
C163 C162 1.457 . S
C163 C164 1.291 . S
C163 H176 0.931 . S
C164 C163 1.291 . S
C164 C165 1.373 . S
C164 H177 0.929 . S
C165 C164 1.373 . S
C165 C166 1.396 . S
C165 C172 1.403 . S
C166 C156 1.476 . S
C166 N161 1.318 . S
C166 C165 1.396 . S
H167 C162 0.929 . S
O168 Mn144 2.385 . S
O168 C146 1.234 . S
O169 Mn144 2.209 . S
O169 Mn145 2.215 . S
O169 C146 1.283 . S
O170 Mn144 2.089 1_455 S
O170 C148 1.240 1_455 S
O171 Mn145 2.117 . S
O171 C148 1.264 . S
C172 C165 1.403 . S
C172 C173 1.399 . S
C172 H178 0.929 . S
C173 C153 1.449 . S
C173 C172 1.399 . S
C173 H179 0.930 . S
H174 C154 0.931 . S
H175 C155 0.930 . S
H176 C163 0.931 . S
H177 C164 0.929 . S
H178 C172 0.929 . S
H179 C173 0.930 . S
Mn180 O185 2.095 . S
Mn180 O195 2.162 . S
Mn180 O196 2.297 . S
Mn180 O204 2.385 . S
Mn180 O205 2.209 . S
Mn180 O206 2.094 . S
Mn181 O186 2.121 . S
Mn181 N188 2.257 1_655 S
Mn181 N197 2.282 . S
Mn181 O205 2.215 . S
Mn181 O207 2.117 . S
C182 O204 1.234 . S
C182 O205 1.283 . S
C183 O195 1.281 . S
C183 O196 1.236 . S
C184 O206 1.240 . S
C184 O207 1.264 . S
O185 Mn180 2.095 . S
O185 C194 1.250 . S
O186 Mn181 2.121 . S
O186 C194 1.258 . S
C187 N188 1.326 . S
C187 C191 1.460 . S
C187 H193 0.929 . S
N188 Mn181 2.257 1_455 S
N188 C187 1.326 . S
N188 C192 1.362 . S
C189 C190 1.258 . S
C189 C192 1.431 . S
C189 C209 1.449 . S
C190 C189 1.258 . S
C190 C191 1.477 . S
C190 H210 0.931 . S
C191 C187 1.460 . S
C191 C190 1.477 . S
C191 H211 0.930 . S
C192 N188 1.362 . S
C192 C189 1.431 . S
C192 C202 1.476 1_455 S
H193 C187 0.929 . S
C194 O185 1.250 . S
C194 O186 1.258 . S
O195 Mn180 2.162 . S
O195 C183 1.281 . S
O196 Mn180 2.297 . S
O196 C183 1.236 . S
N197 Mn181 2.282 . S
N197 C198 1.328 . S
N197 C202 1.318 . S
C198 N197 1.328 . S
C198 C199 1.457 . S
C198 H203 0.929 . S
C199 C198 1.457 . S
C199 C200 1.291 . S
C199 H212 0.931 . S
C200 C199 1.291 . S
C200 C201 1.373 . S
C200 H213 0.929 . S
C201 C200 1.373 . S
C201 C202 1.396 . S
C201 C208 1.403 1_655 S
C202 C192 1.476 1_655 S
C202 N197 1.318 . S
C202 C201 1.396 . S
H203 C198 0.929 . S
O204 Mn180 2.385 . S
O204 C182 1.234 . S
O205 Mn180 2.209 . S
O205 Mn181 2.215 . S
O205 C182 1.283 . S
O206 Mn180 2.094 . S
O206 C184 1.240 . S
O207 Mn181 2.117 . S
O207 C184 1.264 . S
C208 C201 1.403 1_455 S
C208 C209 1.399 . S
C208 H214 0.929 . S
C209 C189 1.449 . S
C209 C208 1.399 . S
C209 H215 0.930 . S
H210 C190 0.931 . S
H211 C191 0.930 . S
H212 C199 0.931 . S
H213 C200 0.929 . S
H214 C208 0.929 . S
H215 C209 0.930 . S
Mn216 O221 2.095 . S
Mn216 O231 2.162 1_554 S
Mn216 O232 2.297 1_554 S
Mn216 O240 2.385 . S
Mn216 O241 2.209 . S
Mn216 O242 2.088 1_655 S
Mn217 O222 2.121 . S
Mn217 N224 2.257 . S
Mn217 N233 2.282 . S
Mn217 O241 2.215 . S
Mn217 O243 2.117 . S
C218 O240 1.234 . S
C218 O241 1.283 . S
C219 O231 1.281 . S
C219 O232 1.236 . S
C220 O242 1.239 1_655 S
C220 O243 1.264 . S
O221 Mn216 2.095 . S
O221 C230 1.250 . S
O222 Mn217 2.121 . S
O222 C230 1.258 . S
C223 N224 1.326 . S
C223 C227 1.460 . S
C223 H229 0.929 . S
N224 Mn217 2.257 . S
N224 C223 1.326 . S
N224 C228 1.362 . S
C225 C226 1.258 . S
C225 C228 1.431 . S
C225 C245 1.449 . S
C226 C225 1.258 . S
C226 C227 1.477 . S
C226 H246 0.931 . S
C227 C223 1.460 . S
C227 C226 1.477 . S
C227 H247 0.930 . S
C228 N224 1.362 . S
C228 C225 1.431 . S
C228 C238 1.476 . S
H229 C223 0.929 . S
C230 O221 1.250 . S
C230 O222 1.258 . S
O231 Mn216 2.162 1_556 S
O231 C219 1.281 . S
O232 Mn216 2.297 1_556 S
O232 C219 1.236 . S
N233 Mn217 2.282 . S
N233 C234 1.328 . S
N233 C238 1.318 . S
C234 N233 1.328 . S
C234 C235 1.457 . S
C234 H239 0.929 . S
C235 C234 1.457 . S
C235 C236 1.291 . S
C235 H248 0.931 . S
C236 C235 1.291 . S
C236 C237 1.373 . S
C236 H249 0.929 . S
C237 C236 1.373 . S
C237 C238 1.396 . S
C237 C244 1.403 . S
C238 C228 1.476 . S
C238 N233 1.318 . S
C238 C237 1.396 . S
H239 C234 0.929 . S
O240 Mn216 2.385 . S
O240 C218 1.234 . S
O241 Mn216 2.209 . S
O241 Mn217 2.215 . S
O241 C218 1.283 . S
O242 Mn216 2.088 1_455 S
O242 C220 1.239 1_455 S
O243 Mn217 2.117 . S
O243 C220 1.264 . S
C244 C237 1.403 . S
C244 C245 1.399 . S
C244 H250 0.929 . S
C245 C225 1.449 . S
C245 C244 1.399 . S
C245 H251 0.930 . S
H246 C226 0.931 . S
H247 C227 0.930 . S
H248 C235 0.931 . S
H249 C236 0.929 . S
H250 C244 0.929 . S
H251 C245 0.930 . S
Mn252 O257 2.095 . S
Mn252 O267 2.162 1_554 S
Mn252 O268 2.297 1_554 S
Mn252 O276 2.385 . S
Mn252 O277 2.209 . S
Mn252 O278 2.094 . S
Mn253 O258 2.121 . S
Mn253 N260 2.257 1_655 S
Mn253 N269 2.282 . S
Mn253 O277 2.215 . S
Mn253 O279 2.117 . S
C254 O276 1.234 . S
C254 O277 1.283 . S
C255 O267 1.281 . S
C255 O268 1.236 . S
C256 O278 1.240 . S
C256 O279 1.264 . S
O257 Mn252 2.095 . S
O257 C266 1.250 . S
O258 Mn253 2.121 . S
O258 C266 1.258 . S
C259 N260 1.326 . S
C259 C263 1.460 . S
C259 H265 0.929 . S
N260 Mn253 2.257 1_455 S
N260 C259 1.326 . S
N260 C264 1.362 . S
C261 C262 1.258 . S
C261 C264 1.431 . S
C261 C281 1.449 . S
C262 C261 1.258 . S
C262 C263 1.477 . S
C262 H282 0.931 . S
C263 C259 1.460 . S
C263 C262 1.477 . S
C263 H283 0.930 . S
C264 N260 1.362 . S
C264 C261 1.431 . S
C264 C274 1.476 1_455 S
H265 C259 0.929 . S
C266 O257 1.250 . S
C266 O258 1.258 . S
O267 Mn252 2.162 1_556 S
O267 C255 1.281 . S
O268 Mn252 2.297 1_556 S
O268 C255 1.236 . S
N269 Mn253 2.282 . S
N269 C270 1.328 . S
N269 C274 1.318 . S
C270 N269 1.328 . S
C270 C271 1.457 . S
C270 H275 0.929 . S
C271 C270 1.457 . S
C271 C272 1.291 . S
C271 H284 0.931 . S
C272 C271 1.291 . S
C272 C273 1.373 . S
C272 H285 0.929 . S
C273 C272 1.373 . S
C273 C274 1.396 . S
C273 C280 1.403 1_655 S
C274 C264 1.476 1_655 S
C274 N269 1.318 . S
C274 C273 1.396 . S
H275 C270 0.929 . S
O276 Mn252 2.385 . S
O276 C254 1.234 . S
O277 Mn252 2.209 . S
O277 Mn253 2.215 . S
O277 C254 1.283 . S
O278 Mn252 2.094 . S
O278 C256 1.240 . S
O279 Mn253 2.117 . S
O279 C256 1.264 . S
C280 C273 1.403 1_455 S
C280 C281 1.399 . S
C280 H286 0.929 . S
C281 C261 1.449 . S
C281 C280 1.399 . S
C281 H287 0.930 . S
H282 C262 0.931 . S
H283 C263 0.930 . S
H284 C271 0.931 . S
H285 C272 0.929 . S
H286 C280 0.929 . S
H287 C281 0.930 . S
Mn288 O293 2.095 . S
Mn288 O303 2.162 . S
Mn288 O304 2.297 . S
Mn288 O312 2.385 . S
Mn288 O313 2.209 . S
Mn288 O314 2.094 . S
Mn289 O294 2.121 . S
Mn289 N296 2.257 . S
Mn289 N305 2.282 . S
Mn289 O313 2.215 1_655 S
Mn289 O315 2.117 1_655 S
C290 O312 1.234 . S
C290 O313 1.283 . S
C291 O303 1.281 . S
C291 O304 1.236 . S
C292 O314 1.240 . S
C292 O315 1.264 . S
O293 Mn288 2.095 . S
O293 C302 1.250 1_455 S
O294 Mn289 2.121 . S
O294 C302 1.258 . S
C295 N296 1.326 . S
C295 C299 1.460 . S
C295 H301 0.929 . S
N296 Mn289 2.257 . S
N296 C295 1.326 . S
N296 C300 1.362 . S
C297 C298 1.258 . S
C297 C300 1.431 . S
C297 C317 1.449 . S
C298 C297 1.258 . S
C298 C299 1.477 . S
C298 H318 0.931 . S
C299 C295 1.460 . S
C299 C298 1.477 . S
C299 H319 0.930 . S
C300 N296 1.362 . S
C300 C297 1.431 . S
C300 C310 1.476 . S
H301 C295 0.929 . S
C302 O293 1.250 1_655 S
C302 O294 1.258 . S
O303 Mn288 2.162 . S
O303 C291 1.281 . S
O304 Mn288 2.297 . S
O304 C291 1.236 . S
N305 Mn289 2.282 . S
N305 C306 1.328 1_655 S
N305 C310 1.318 . S
C306 N305 1.328 1_455 S
C306 C307 1.457 . S
C306 H311 0.929 . S
C307 C306 1.457 . S
C307 C308 1.299 . S
C307 H320 0.931 . S
C308 C307 1.299 . S
C308 C309 1.364 1_455 S
C308 H321 0.930 . S
C309 C308 1.364 1_655 S
C309 C310 1.396 . S
C309 C316 1.403 . S
C310 C300 1.476 . S
C310 N305 1.318 . S
C310 C309 1.396 . S
H311 C306 0.929 . S
O312 Mn288 2.385 . S
O312 C290 1.234 . S
O313 Mn288 2.209 . S
O313 Mn289 2.215 1_455 S
O313 C290 1.283 . S
O314 Mn288 2.094 . S
O314 C292 1.240 . S
O315 Mn289 2.117 1_455 S
O315 C292 1.264 . S
C316 C309 1.403 . S
C316 C317 1.399 . S
C316 H322 0.929 . S
C317 C297 1.449 . S
C317 C316 1.399 . S
C317 H323 0.930 . S
H318 C298 0.931 . S
H319 C299 0.930 . S
H320 C307 0.931 . S
H321 C308 0.930 . S
H322 C316 0.929 . S
H323 C317 0.930 . S
Mn324 O329 2.095 . S
Mn324 O339 2.162 . S
Mn324 O340 2.297 . S
Mn324 O348 2.385 . S
Mn324 O349 2.209 . S
Mn324 O350 2.094 . S
Mn325 O330 2.121 . S
Mn325 N332 2.257 . S
Mn325 N341 2.282 . S
Mn325 O349 2.215 . S
Mn325 O351 2.117 . S
C326 O348 1.234 . S
C326 O349 1.283 . S
C327 O339 1.281 . S
C327 O340 1.236 . S
C328 O350 1.240 . S
C328 O351 1.264 . S
O329 Mn324 2.095 . S
O329 C338 1.250 . S
O330 Mn325 2.121 . S
O330 C338 1.258 . S
C331 N332 1.326 . S
C331 C335 1.460 . S
C331 H337 0.929 . S
N332 Mn325 2.257 . S
N332 C331 1.326 . S
N332 C336 1.362 . S
C333 C334 1.258 . S
C333 C336 1.431 . S
C333 C353 1.449 . S
C334 C333 1.258 . S
C334 C335 1.477 . S
C334 H354 0.931 . S
C335 C331 1.460 . S
C335 C334 1.477 . S
C335 H355 0.930 . S
C336 N332 1.362 . S
C336 C333 1.431 . S
C336 C346 1.476 . S
H337 C331 0.929 . S
C338 O329 1.250 . S
C338 O330 1.258 . S
O339 Mn324 2.162 . S
O339 C327 1.281 . S
O340 Mn324 2.297 . S
O340 C327 1.236 . S
N341 Mn325 2.282 . S
N341 C342 1.328 . S
N341 C346 1.318 . S
C342 N341 1.328 . S
C342 C343 1.457 . S
C342 H347 0.929 . S
C343 C342 1.457 . S
C343 C344 1.291 . S
C343 H356 0.931 . S
C344 C343 1.291 . S
C344 C345 1.373 . S
C344 H357 0.929 . S
C345 C344 1.373 . S
C345 C346 1.396 . S
C345 C352 1.403 . S
C346 C336 1.476 . S
C346 N341 1.318 . S
C346 C345 1.396 . S
H347 C342 0.929 . S
O348 Mn324 2.385 . S
O348 C326 1.234 . S
O349 Mn324 2.209 . S
O349 Mn325 2.215 . S
O349 C326 1.283 . S
O350 Mn324 2.094 . S
O350 C328 1.240 . S
O351 Mn325 2.117 . S
O351 C328 1.264 . S
C352 C345 1.403 . S
C352 C353 1.399 . S
C352 H358 0.929 . S
C353 C333 1.449 . S
C353 C352 1.399 . S
C353 H359 0.930 . S
H354 C334 0.931 . S
H355 C335 0.930 . S
H356 C343 0.931 . S
H357 C344 0.929 . S
H358 C352 0.929 . S
H359 C353 0.930 . S
Mn360 O365 2.095 . S
Mn360 O375 2.162 . S
Mn360 O376 2.297 . S
Mn360 O384 2.385 . S
Mn360 O385 2.209 . S
Mn360 O386 2.094 . S
Mn361 O366 2.121 . S
Mn361 N368 2.257 . S
Mn361 N377 2.282 . S
Mn361 O385 2.215 1_655 S
Mn361 O387 2.117 1_655 S
C362 O384 1.234 . S
C362 O385 1.283 . S
C363 O375 1.281 . S
C363 O376 1.236 . S
C364 O386 1.240 . S
C364 O387 1.264 . S
O365 Mn360 2.095 . S
O365 C374 1.250 1_455 S
O366 Mn361 2.121 . S
O366 C374 1.258 . S
C367 N368 1.326 . S
C367 C371 1.460 . S
C367 H373 0.929 . S
N368 Mn361 2.257 . S
N368 C367 1.326 . S
N368 C372 1.362 . S
C369 C370 1.258 . S
C369 C372 1.431 . S
C369 C389 1.449 . S
C370 C369 1.258 . S
C370 C371 1.477 . S
C370 H390 0.931 . S
C371 C367 1.460 . S
C371 C370 1.477 . S
C371 H391 0.930 . S
C372 N368 1.362 . S
C372 C369 1.431 . S
C372 C382 1.476 . S
H373 C367 0.929 . S
C374 O365 1.250 1_655 S
C374 O366 1.258 . S
O375 Mn360 2.162 . S
O375 C363 1.281 . S
O376 Mn360 2.297 . S
O376 C363 1.236 . S
N377 Mn361 2.282 . S
N377 C378 1.328 1_655 S
N377 C382 1.318 . S
C378 N377 1.328 1_455 S
C378 C379 1.457 . S
C378 H383 0.929 . S
C379 C378 1.457 . S
C379 C380 1.296 . S
C379 H392 0.931 . S
C380 C379 1.296 . S
C380 C381 1.367 1_455 S
C380 H393 0.930 . S
C381 C380 1.367 1_655 S
C381 C382 1.396 . S
C381 C388 1.403 . S
C382 C372 1.476 . S
C382 N377 1.318 . S
C382 C381 1.396 . S
H383 C378 0.929 . S
O384 Mn360 2.385 . S
O384 C362 1.234 . S
O385 Mn360 2.209 . S
O385 Mn361 2.215 1_455 S
O385 C362 1.283 . S
O386 Mn360 2.094 . S
O386 C364 1.240 . S
O387 Mn361 2.117 1_455 S
O387 C364 1.264 . S
C388 C381 1.403 . S
C388 C389 1.399 . S
C388 H394 0.929 . S
C389 C369 1.449 . S
C389 C388 1.399 . S
C389 H395 0.930 . S
H390 C370 0.931 . S
H391 C371 0.930 . S
H392 C379 0.931 . S
H393 C380 0.930 . S
H394 C388 0.929 . S
H395 C389 0.930 . S
Mn396 O401 2.095 . S
Mn396 O411 2.162 . S
Mn396 O412 2.297 . S
Mn396 O420 2.385 . S
Mn396 O421 2.209 . S
Mn396 O422 2.094 . S
Mn397 O402 2.121 . S
Mn397 N404 2.257 . S
Mn397 N413 2.282 . S
Mn397 O421 2.215 . S
Mn397 O423 2.117 . S
C398 O420 1.234 . S
C398 O421 1.283 . S
C399 O411 1.281 . S
C399 O412 1.236 . S
C400 O422 1.240 . S
C400 O423 1.264 . S
O401 Mn396 2.095 . S
O401 C410 1.250 . S
O402 Mn397 2.121 . S
O402 C410 1.258 . S
C403 N404 1.326 . S
C403 C407 1.460 . S
C403 H409 0.929 . S
N404 Mn397 2.257 . S
N404 C403 1.326 . S
N404 C408 1.362 . S
C405 C406 1.258 . S
C405 C408 1.431 . S
C405 C425 1.449 . S
C406 C405 1.258 . S
C406 C407 1.477 . S
C406 H426 0.931 . S
C407 C403 1.460 . S
C407 C406 1.477 . S
C407 H427 0.930 . S
C408 N404 1.362 . S
C408 C405 1.431 . S
C408 C418 1.476 . S
H409 C403 0.929 . S
C410 O401 1.250 . S
C410 O402 1.258 . S
O411 Mn396 2.162 . S
O411 C399 1.281 . S
O412 Mn396 2.297 . S
O412 C399 1.236 . S
N413 Mn397 2.282 . S
N413 C414 1.328 . S
N413 C418 1.318 . S
C414 N413 1.328 . S
C414 C415 1.457 . S
C414 H419 0.929 . S
C415 C414 1.457 . S
C415 C416 1.291 . S
C415 H428 0.931 . S
C416 C415 1.291 . S
C416 C417 1.373 . S
C416 H429 0.929 . S
C417 C416 1.373 . S
C417 C418 1.396 . S
C417 C424 1.403 . S
C418 C408 1.476 . S
C418 N413 1.318 . S
C418 C417 1.396 . S
H419 C414 0.929 . S
O420 Mn396 2.385 . S
O420 C398 1.234 . S
O421 Mn396 2.209 . S
O421 Mn397 2.215 . S
O421 C398 1.283 . S
O422 Mn396 2.094 . S
O422 C400 1.240 . S
O423 Mn397 2.117 . S
O423 C400 1.264 . S
C424 C417 1.403 . S
C424 C425 1.399 . S
C424 H430 0.929 . S
C425 C405 1.449 . S
C425 C424 1.399 . S
C425 H431 0.930 . S
H426 C406 0.931 . S
H427 C407 0.930 . S
H428 C415 0.931 . S
H429 C416 0.929 . S
H430 C424 0.929 . S
H431 C425 0.930 . S
Mn432 O437 2.095 . S
Mn432 O447 2.162 . S
Mn432 O448 2.297 . S
Mn432 O456 2.385 . S
Mn432 O457 2.209 . S
Mn432 O458 2.094 1_655 S
Mn433 O438 2.121 . S
Mn433 N440 2.257 . S
Mn433 N449 2.282 . S
Mn433 O457 2.215 . S
Mn433 O459 2.117 . S
C434 O456 1.234 . S
C434 O457 1.283 . S
C435 O447 1.281 . S
C435 O448 1.236 . S
C436 O458 1.240 1_655 S
C436 O459 1.264 . S
O437 Mn432 2.095 . S
O437 C446 1.250 . S
O438 Mn433 2.121 . S
O438 C446 1.258 . S
C439 N440 1.326 . S
C439 C443 1.460 . S
C439 H445 0.929 . S
N440 Mn433 2.257 . S
N440 C439 1.326 . S
N440 C444 1.362 . S
C441 C442 1.258 . S
C441 C444 1.431 . S
C441 C461 1.449 . S
C442 C441 1.258 . S
C442 C443 1.477 . S
C442 H462 0.931 . S
C443 C439 1.460 . S
C443 C442 1.477 . S
C443 H463 0.930 . S
C444 N440 1.362 . S
C444 C441 1.431 . S
C444 C454 1.476 . S
H445 C439 0.929 . S
C446 O437 1.250 . S
C446 O438 1.258 . S
O447 Mn432 2.162 . S
O447 C435 1.281 . S
O448 Mn432 2.297 . S
O448 C435 1.236 . S
N449 Mn433 2.282 . S
N449 C450 1.328 . S
N449 C454 1.318 . S
C450 N449 1.328 . S
C450 C451 1.457 . S
C450 H455 0.929 . S
C451 C450 1.457 . S
C451 C452 1.291 . S
C451 H464 0.931 . S
C452 C451 1.291 . S
C452 C453 1.373 . S
C452 H465 0.929 . S
C453 C452 1.373 . S
C453 C454 1.396 . S
C453 C460 1.403 . S
C454 C444 1.476 . S
C454 N449 1.318 . S
C454 C453 1.396 . S
H455 C450 0.929 . S
O456 Mn432 2.385 . S
O456 C434 1.234 . S
O457 Mn432 2.209 . S
O457 Mn433 2.215 . S
O457 C434 1.283 . S
O458 Mn432 2.094 1_455 S
O458 C436 1.240 1_455 S
O459 Mn433 2.117 . S
O459 C436 1.264 . S
C460 C453 1.403 . S
C460 C461 1.399 . S
C460 H466 0.929 . S
C461 C441 1.449 . S
C461 C460 1.399 . S
C461 H467 0.930 . S
H462 C442 0.931 . S
H463 C443 0.930 . S
H464 C451 0.931 . S
H465 C452 0.929 . S
H466 C460 0.929 . S
H467 C461 0.930 . S
Mn468 O473 2.095 . S
Mn468 O483 2.162 . S
Mn468 O484 2.297 . S
Mn468 O492 2.385 . S
Mn468 O493 2.209 . S
Mn468 O494 2.094 . S
Mn469 O474 2.121 . S
Mn469 N476 2.257 1_655 S
Mn469 N485 2.282 . S
Mn469 O493 2.215 . S
Mn469 O495 2.117 . S
C470 O492 1.234 . S
C470 O493 1.283 . S
C471 O483 1.281 . S
C471 O484 1.236 . S
C472 O494 1.240 . S
C472 O495 1.264 . S
O473 Mn468 2.095 . S
O473 C482 1.250 . S
O474 Mn469 2.121 . S
O474 C482 1.258 . S
C475 N476 1.326 . S
C475 C479 1.460 . S
C475 H481 0.929 . S
N476 Mn469 2.257 1_455 S
N476 C475 1.326 . S
N476 C480 1.362 . S
C477 C478 1.258 . S
C477 C480 1.431 . S
C477 C497 1.449 . S
C478 C477 1.258 . S
C478 C479 1.477 . S
C478 H498 0.931 . S
C479 C475 1.460 . S
C479 C478 1.477 . S
C479 H499 0.930 . S
C480 N476 1.362 . S
C480 C477 1.431 . S
C480 C490 1.476 1_455 S
H481 C475 0.929 . S
C482 O473 1.250 . S
C482 O474 1.258 . S
O483 Mn468 2.162 . S
O483 C471 1.281 . S
O484 Mn468 2.297 . S
O484 C471 1.236 . S
N485 Mn469 2.282 . S
N485 C486 1.328 . S
N485 C490 1.318 . S
C486 N485 1.328 . S
C486 C487 1.457 . S
C486 H491 0.929 . S
C487 C486 1.457 . S
C487 C488 1.291 . S
C487 H500 0.931 . S
C488 C487 1.291 . S
C488 C489 1.373 . S
C488 H501 0.929 . S
C489 C488 1.373 . S
C489 C490 1.396 . S
C489 C496 1.403 1_655 S
C490 C480 1.476 1_655 S
C490 N485 1.318 . S
C490 C489 1.396 . S
H491 C486 0.929 . S
O492 Mn468 2.385 . S
O492 C470 1.234 . S
O493 Mn468 2.209 . S
O493 Mn469 2.215 . S
O493 C470 1.283 . S
O494 Mn468 2.094 . S
O494 C472 1.240 . S
O495 Mn469 2.117 . S
O495 C472 1.264 . S
C496 C489 1.403 1_455 S
C496 C497 1.399 . S
C496 H502 0.929 . S
C497 C477 1.449 . S
C497 C496 1.399 . S
C497 H503 0.930 . S
H498 C478 0.931 . S
H499 C479 0.930 . S
H500 C487 0.931 . S
H501 C488 0.929 . S
H502 C496 0.929 . S
H503 C497 0.930 . S
Mn504 O509 2.095 . S
Mn504 O519 2.162 . S
Mn504 O520 2.297 . S
Mn504 O528 2.385 . S
Mn504 O529 2.209 . S
Mn504 O530 2.094 1_655 S
Mn505 O510 2.121 . S
Mn505 N512 2.257 . S
Mn505 N521 2.282 . S
Mn505 O529 2.215 . S
Mn505 O531 2.117 . S
C506 O528 1.234 . S
C506 O529 1.283 . S
C507 O519 1.281 . S
C507 O520 1.236 . S
C508 O530 1.240 1_655 S
C508 O531 1.264 . S
O509 Mn504 2.095 . S
O509 C518 1.250 . S
O510 Mn505 2.121 . S
O510 C518 1.258 . S
C511 N512 1.326 . S
C511 C515 1.460 . S
C511 H517 0.929 . S
N512 Mn505 2.257 . S
N512 C511 1.326 . S
N512 C516 1.362 . S
C513 C514 1.258 . S
C513 C516 1.431 . S
C513 C533 1.449 . S
C514 C513 1.258 . S
C514 C515 1.477 . S
C514 H534 0.931 . S
C515 C511 1.460 . S
C515 C514 1.477 . S
C515 H535 0.930 . S
C516 N512 1.362 . S
C516 C513 1.431 . S
C516 C526 1.476 . S
H517 C511 0.929 . S
C518 O509 1.250 . S
C518 O510 1.258 . S
O519 Mn504 2.162 . S
O519 C507 1.281 . S
O520 Mn504 2.297 . S
O520 C507 1.236 . S
N521 Mn505 2.282 . S
N521 C522 1.328 . S
N521 C526 1.318 . S
C522 N521 1.328 . S
C522 C523 1.457 . S
C522 H527 0.929 . S
C523 C522 1.457 . S
C523 C524 1.291 . S
C523 H536 0.931 . S
C524 C523 1.291 . S
C524 C525 1.373 . S
C524 H537 0.929 . S
C525 C524 1.373 . S
C525 C526 1.396 . S
C525 C532 1.403 . S
C526 C516 1.476 . S
C526 N521 1.318 . S
C526 C525 1.396 . S
H527 C522 0.929 . S
O528 Mn504 2.385 . S
O528 C506 1.234 . S
O529 Mn504 2.209 . S
O529 Mn505 2.215 . S
O529 C506 1.283 . S
O530 Mn504 2.094 1_455 S
O530 C508 1.240 1_455 S
O531 Mn505 2.117 . S
O531 C508 1.264 . S
C532 C525 1.403 . S
C532 C533 1.399 . S
C532 H538 0.929 . S
C533 C513 1.449 . S
C533 C532 1.399 . S
C533 H539 0.930 . S
H534 C514 0.931 . S
H535 C515 0.930 . S
H536 C523 0.931 . S
H537 C524 0.929 . S
H538 C532 0.929 . S
H539 C533 0.930 . S
Mn540 O545 2.095 . S
Mn540 O555 2.162 . S
Mn540 O556 2.297 . S
Mn540 O564 2.385 . S
Mn540 O565 2.209 . S
Mn540 O566 2.094 . S
Mn541 O546 2.121 . S
Mn541 N548 2.257 1_655 S
Mn541 N557 2.282 . S
Mn541 O565 2.215 . S
Mn541 O567 2.117 . S
C542 O564 1.234 . S
C542 O565 1.283 . S
C543 O555 1.281 . S
C543 O556 1.236 . S
C544 O566 1.240 . S
C544 O567 1.264 . S
O545 Mn540 2.095 . S
O545 C554 1.250 . S
O546 Mn541 2.121 . S
O546 C554 1.258 . S
C547 N548 1.326 . S
C547 C551 1.460 . S
C547 H553 0.929 . S
N548 Mn541 2.257 1_455 S
N548 C547 1.326 . S
N548 C552 1.362 . S
C549 C550 1.258 . S
C549 C552 1.431 . S
C549 C569 1.449 . S
C550 C549 1.258 . S
C550 C551 1.477 . S
C550 H570 0.931 . S
C551 C547 1.460 . S
C551 C550 1.477 . S
C551 H571 0.930 . S
C552 N548 1.362 . S
C552 C549 1.431 . S
C552 C562 1.476 1_455 S
H553 C547 0.929 . S
C554 O545 1.250 . S
C554 O546 1.258 . S
O555 Mn540 2.162 . S
O555 C543 1.281 . S
O556 Mn540 2.297 . S
O556 C543 1.236 . S
N557 Mn541 2.282 . S
N557 C558 1.328 . S
N557 C562 1.318 . S
C558 N557 1.328 . S
C558 C559 1.457 . S
C558 H563 0.929 . S
C559 C558 1.457 . S
C559 C560 1.291 . S
C559 H572 0.931 . S
C560 C559 1.291 . S
C560 C561 1.373 . S
C560 H573 0.929 . S
C561 C560 1.373 . S
C561 C562 1.396 . S
C561 C568 1.403 1_655 S
C562 C552 1.476 1_655 S
C562 N557 1.318 . S
C562 C561 1.396 . S
H563 C558 0.929 . S
O564 Mn540 2.385 . S
O564 C542 1.234 . S
O565 Mn540 2.209 . S
O565 Mn541 2.215 . S
O565 C542 1.283 . S
O566 Mn540 2.094 . S
O566 C544 1.240 . S
O567 Mn541 2.117 . S
O567 C544 1.264 . S
C568 C561 1.403 1_455 S
C568 C569 1.399 . S
C568 H574 0.929 . S
C569 C549 1.449 . S
C569 C568 1.399 . S
C569 H575 0.930 . S
H570 C550 0.931 . S
H571 C551 0.930 . S
H572 C559 0.931 . S
H573 C560 0.929 . S
H574 C568 0.929 . S
H575 C569 0.930 . S
Mn576 O581 2.095 . S
Mn576 O591 2.162 . S
Mn576 O592 2.297 . S
Mn576 O600 2.385 . S
Mn576 O601 2.209 . S
Mn576 O602 2.094 . S
Mn577 O582 2.121 . S
Mn577 N584 2.257 . S
Mn577 N593 2.282 . S
Mn577 O601 2.215 . S
Mn577 O603 2.117 . S
C578 O600 1.234 . S
C578 O601 1.283 . S
C579 O591 1.281 . S
C579 O592 1.236 . S
C580 O602 1.240 . S
C580 O603 1.264 . S
O581 Mn576 2.095 . S
O581 C590 1.250 . S
O582 Mn577 2.121 . S
O582 C590 1.258 . S
C583 N584 1.326 . S
C583 C587 1.460 . S
C583 H589 0.929 . S
N584 Mn577 2.257 . S
N584 C583 1.326 . S
N584 C588 1.362 . S
C585 C586 1.258 . S
C585 C588 1.431 . S
C585 C605 1.449 . S
C586 C585 1.258 . S
C586 C587 1.477 . S
C586 H606 0.931 . S
C587 C583 1.460 . S
C587 C586 1.477 . S
C587 H607 0.930 . S
C588 N584 1.362 . S
C588 C585 1.431 . S
C588 C598 1.476 . S
H589 C583 0.929 . S
C590 O581 1.250 . S
C590 O582 1.258 . S
O591 Mn576 2.162 . S
O591 C579 1.281 . S
O592 Mn576 2.297 . S
O592 C579 1.236 . S
N593 Mn577 2.282 . S
N593 C594 1.328 . S
N593 C598 1.318 . S
C594 N593 1.328 . S
C594 C595 1.457 . S
C594 H599 0.929 . S
C595 C594 1.457 . S
C595 C596 1.291 . S
C595 H608 0.931 . S
C596 C595 1.291 . S
C596 C597 1.373 . S
C596 H609 0.929 . S
C597 C596 1.373 . S
C597 C598 1.396 . S
C597 C604 1.403 . S
C598 C588 1.476 . S
C598 N593 1.318 . S
C598 C597 1.396 . S
H599 C594 0.929 . S
O600 Mn576 2.385 . S
O600 C578 1.234 . S
O601 Mn576 2.209 . S
O601 Mn577 2.215 . S
O601 C578 1.283 . S
O602 Mn576 2.094 . S
O602 C580 1.240 . S
O603 Mn577 2.117 . S
O603 C580 1.264 . S
C604 C597 1.403 . S
C604 C605 1.399 . S
C604 H610 0.929 . S
C605 C585 1.449 . S
C605 C604 1.399 . S
C605 H611 0.930 . S
H606 C586 0.931 . S
H607 C587 0.930 . S
H608 C595 0.931 . S
H609 C596 0.929 . S
H610 C604 0.929 . S
H611 C605 0.930 . S
Mn612 O617 2.095 . S
Mn612 O627 2.162 . S
Mn612 O628 2.297 . S
Mn612 O636 2.385 . S
Mn612 O637 2.209 . S
Mn612 O638 2.094 . S
Mn613 O618 2.121 . S
Mn613 N620 2.257 . S
Mn613 N629 2.282 . S
Mn613 O637 2.215 . S
Mn613 O639 2.117 . S
C614 O636 1.234 . S
C614 O637 1.283 . S
C615 O627 1.281 . S
C615 O628 1.236 . S
C616 O638 1.240 . S
C616 O639 1.264 . S
O617 Mn612 2.095 . S
O617 C626 1.250 . S
O618 Mn613 2.121 . S
O618 C626 1.258 . S
C619 N620 1.326 . S
C619 C623 1.460 . S
C619 H625 0.929 . S
N620 Mn613 2.257 . S
N620 C619 1.326 . S
N620 C624 1.362 . S
C621 C622 1.258 . S
C621 C624 1.431 . S
C621 C641 1.449 . S
C622 C621 1.258 . S
C622 C623 1.477 . S
C622 H642 0.931 . S
C623 C619 1.460 . S
C623 C622 1.477 . S
C623 H643 0.930 . S
C624 N620 1.362 . S
C624 C621 1.431 . S
C624 C634 1.476 . S
H625 C619 0.929 . S
C626 O617 1.250 . S
C626 O618 1.258 . S
O627 Mn612 2.162 . S
O627 C615 1.281 . S
O628 Mn612 2.297 . S
O628 C615 1.236 . S
N629 Mn613 2.282 . S
N629 C630 1.328 . S
N629 C634 1.318 . S
C630 N629 1.328 . S
C630 C631 1.457 . S
C630 H635 0.929 . S
C631 C630 1.457 . S
C631 C632 1.291 . S
C631 H644 0.931 . S
C632 C631 1.291 . S
C632 C633 1.373 . S
C632 H645 0.929 . S
C633 C632 1.373 . S
C633 C634 1.396 . S
C633 C640 1.403 . S
C634 C624 1.476 . S
C634 N629 1.318 . S
C634 C633 1.396 . S
H635 C630 0.929 . S
O636 Mn612 2.385 . S
O636 C614 1.234 . S
O637 Mn612 2.209 . S
O637 Mn613 2.215 . S
O637 C614 1.283 . S
O638 Mn612 2.094 . S
O638 C616 1.240 . S
O639 Mn613 2.117 . S
O639 C616 1.264 . S
C640 C633 1.403 . S
C640 C641 1.399 . S
C640 H646 0.929 . S
C641 C621 1.449 . S
C641 C640 1.399 . S
C641 H647 0.930 . S
H642 C622 0.931 . S
H643 C623 0.930 . S
H644 C631 0.931 . S
H645 C632 0.929 . S
H646 C640 0.929 . S
H647 C641 0.930 . S
Mn648 O653 2.095 . S
Mn648 O663 2.162 . S
Mn648 O664 2.297 . S
Mn648 O672 2.385 . S
Mn648 O673 2.209 . S
Mn648 O674 2.094 . S
Mn649 O654 2.121 . S
Mn649 N656 2.257 . S
Mn649 N665 2.282 . S
Mn649 O673 2.215 . S
Mn649 O675 2.117 . S
C650 O672 1.234 . S
C650 O673 1.283 . S
C651 O663 1.281 . S
C651 O664 1.236 . S
C652 O674 1.240 . S
C652 O675 1.264 . S
O653 Mn648 2.095 . S
O653 C662 1.250 . S
O654 Mn649 2.121 . S
O654 C662 1.258 . S
C655 N656 1.326 . S
C655 C659 1.460 . S
C655 H661 0.929 . S
N656 Mn649 2.257 . S
N656 C655 1.326 . S
N656 C660 1.362 . S
C657 C658 1.258 . S
C657 C660 1.431 . S
C657 C677 1.449 . S
C658 C657 1.258 . S
C658 C659 1.477 . S
C658 H678 0.931 . S
C659 C655 1.460 . S
C659 C658 1.477 . S
C659 H679 0.930 . S
C660 N656 1.362 . S
C660 C657 1.431 . S
C660 C670 1.476 . S
H661 C655 0.929 . S
C662 O653 1.250 . S
C662 O654 1.258 . S
O663 Mn648 2.162 . S
O663 C651 1.281 . S
O664 Mn648 2.297 . S
O664 C651 1.236 . S
N665 Mn649 2.282 . S
N665 C666 1.328 . S
N665 C670 1.318 . S
C666 N665 1.328 . S
C666 C667 1.457 . S
C666 H671 0.929 . S
C667 C666 1.457 . S
C667 C668 1.291 . S
C667 H680 0.931 . S
C668 C667 1.291 . S
C668 C669 1.373 . S
C668 H681 0.929 . S
C669 C668 1.373 . S
C669 C670 1.396 . S
C669 C676 1.403 . S
C670 C660 1.476 . S
C670 N665 1.318 . S
C670 C669 1.396 . S
H671 C666 0.929 . S
O672 Mn648 2.385 . S
O672 C650 1.234 . S
O673 Mn648 2.209 . S
O673 Mn649 2.215 . S
O673 C650 1.283 . S
O674 Mn648 2.094 . S
O674 C652 1.240 . S
O675 Mn649 2.117 . S
O675 C652 1.264 . S
C676 C669 1.403 . S
C676 C677 1.399 . S
C676 H682 0.929 . S
C677 C657 1.449 . S
C677 C676 1.399 . S
C677 H683 0.930 . S
H678 C658 0.931 . S
H679 C659 0.930 . S
H680 C667 0.931 . S
H681 C668 0.929 . S
H682 C676 0.929 . S
H683 C677 0.930 . S
Mn684 O689 2.095 . S
Mn684 O699 2.162 . S
Mn684 O700 2.297 . S
Mn684 O708 2.385 . S
Mn684 O709 2.209 . S
Mn684 O710 2.094 . S
Mn685 O690 2.121 . S
Mn685 N692 2.257 . S
Mn685 N701 2.282 . S
Mn685 O709 2.215 . S
Mn685 O711 2.117 . S
C686 O708 1.234 . S
C686 O709 1.283 . S
C687 O699 1.281 . S
C687 O700 1.236 . S
C688 O710 1.240 . S
C688 O711 1.264 . S
O689 Mn684 2.095 . S
O689 C698 1.250 . S
O690 Mn685 2.121 . S
O690 C698 1.258 . S
C691 N692 1.326 . S
C691 C695 1.460 . S
C691 H697 0.929 . S
N692 Mn685 2.257 . S
N692 C691 1.326 . S
N692 C696 1.362 . S
C693 C694 1.258 . S
C693 C696 1.431 . S
C693 C713 1.449 . S
C694 C693 1.258 . S
C694 C695 1.477 . S
C694 H714 0.931 . S
C695 C691 1.460 . S
C695 C694 1.477 . S
C695 H715 0.930 . S
C696 N692 1.362 . S
C696 C693 1.431 . S
C696 C706 1.476 . S
H697 C691 0.929 . S
C698 O689 1.250 . S
C698 O690 1.258 . S
O699 Mn684 2.162 . S
O699 C687 1.281 . S
O700 Mn684 2.297 . S
O700 C687 1.236 . S
N701 Mn685 2.282 . S
N701 C702 1.328 . S
N701 C706 1.318 . S
C702 N701 1.328 . S
C702 C703 1.457 . S
C702 H707 0.929 . S
C703 C702 1.457 . S
C703 C704 1.291 . S
C703 H716 0.931 . S
C704 C703 1.291 . S
C704 C705 1.373 . S
C704 H717 0.929 . S
C705 C704 1.373 . S
C705 C706 1.396 . S
C705 C712 1.403 . S
C706 C696 1.476 . S
C706 N701 1.318 . S
C706 C705 1.396 . S
H707 C702 0.929 . S
O708 Mn684 2.385 . S
O708 C686 1.234 . S
O709 Mn684 2.209 . S
O709 Mn685 2.215 . S
O709 C686 1.283 . S
O710 Mn684 2.094 . S
O710 C688 1.240 . S
O711 Mn685 2.117 . S
O711 C688 1.264 . S
C712 C705 1.403 . S
C712 C713 1.399 . S
C712 H718 0.929 . S
C713 C693 1.449 . S
C713 C712 1.399 . S
C713 H719 0.930 . S
H714 C694 0.931 . S
H715 C695 0.930 . S
H716 C703 0.931 . S
H717 C704 0.929 . S
H718 C712 0.929 . S
H719 C713 0.930 . S
Mn720 O725 2.095 . S
Mn720 O735 2.162 . S
Mn720 O736 2.297 . S
Mn720 O744 2.385 . S
Mn720 O745 2.209 . S
Mn720 O746 2.094 . S
Mn721 O726 2.121 . S
Mn721 N728 2.257 . S
Mn721 N737 2.282 . S
Mn721 O745 2.215 . S
Mn721 O747 2.117 . S
C722 O744 1.234 . S
C722 O745 1.283 . S
C723 O735 1.281 . S
C723 O736 1.236 . S
C724 O746 1.240 . S
C724 O747 1.264 . S
O725 Mn720 2.095 . S
O725 C734 1.250 . S
O726 Mn721 2.121 . S
O726 C734 1.258 . S
C727 N728 1.326 . S
C727 C731 1.460 . S
C727 H733 0.929 . S
N728 Mn721 2.257 . S
N728 C727 1.326 . S
N728 C732 1.362 . S
C729 C730 1.258 . S
C729 C732 1.431 . S
C729 C749 1.449 . S
C730 C729 1.258 . S
C730 C731 1.477 . S
C730 H750 0.931 . S
C731 C727 1.460 . S
C731 C730 1.477 . S
C731 H751 0.930 . S
C732 N728 1.362 . S
C732 C729 1.431 . S
C732 C742 1.476 . S
H733 C727 0.929 . S
C734 O725 1.250 . S
C734 O726 1.258 . S
O735 Mn720 2.162 . S
O735 C723 1.281 . S
O736 Mn720 2.297 . S
O736 C723 1.236 . S
N737 Mn721 2.282 . S
N737 C738 1.328 . S
N737 C742 1.318 . S
C738 N737 1.328 . S
C738 C739 1.457 . S
C738 H743 0.929 . S
C739 C738 1.457 . S
C739 C740 1.291 . S
C739 H752 0.931 . S
C740 C739 1.291 . S
C740 C741 1.373 . S
C740 H753 0.929 . S
C741 C740 1.373 . S
C741 C742 1.396 . S
C741 C748 1.403 . S
C742 C732 1.476 . S
C742 N737 1.318 . S
C742 C741 1.396 . S
H743 C738 0.929 . S
O744 Mn720 2.385 . S
O744 C722 1.234 . S
O745 Mn720 2.209 . S
O745 Mn721 2.215 . S
O745 C722 1.283 . S
O746 Mn720 2.094 . S
O746 C724 1.240 . S
O747 Mn721 2.117 . S
O747 C724 1.264 . S
C748 C741 1.403 . S
C748 C749 1.399 . S
C748 H754 0.929 . S
C749 C729 1.449 . S
C749 C748 1.399 . S
C749 H755 0.930 . S
H750 C730 0.931 . S
H751 C731 0.930 . S
H752 C739 0.931 . S
H753 C740 0.929 . S
H754 C748 0.929 . S
H755 C749 0.930 . S
Mn756 O761 2.095 . S
Mn756 O771 2.162 . S
Mn756 O772 2.297 . S
Mn756 O780 2.385 . S
Mn756 O781 2.209 . S
Mn756 O782 2.094 . S
Mn757 O762 2.121 . S
Mn757 N764 2.257 . S
Mn757 N773 2.282 . S
Mn757 O781 2.215 . S
Mn757 O783 2.117 . S
C758 O780 1.234 . S
C758 O781 1.283 . S
C759 O771 1.281 . S
C759 O772 1.236 . S
C760 O782 1.240 . S
C760 O783 1.264 . S
O761 Mn756 2.095 . S
O761 C770 1.250 . S
O762 Mn757 2.121 . S
O762 C770 1.258 . S
C763 N764 1.326 . S
C763 C767 1.460 . S
C763 H769 0.929 . S
N764 Mn757 2.257 . S
N764 C763 1.326 . S
N764 C768 1.362 . S
C765 C766 1.258 . S
C765 C768 1.431 . S
C765 C785 1.449 . S
C766 C765 1.258 . S
C766 C767 1.477 . S
C766 H786 0.931 . S
C767 C763 1.460 . S
C767 C766 1.477 . S
C767 H787 0.930 . S
C768 N764 1.362 . S
C768 C765 1.431 . S
C768 C778 1.476 . S
H769 C763 0.929 . S
C770 O761 1.250 . S
C770 O762 1.258 . S
O771 Mn756 2.162 . S
O771 C759 1.281 . S
O772 Mn756 2.297 . S
O772 C759 1.236 . S
N773 Mn757 2.282 . S
N773 C774 1.328 . S
N773 C778 1.318 . S
C774 N773 1.328 . S
C774 C775 1.457 . S
C774 H779 0.929 . S
C775 C774 1.457 . S
C775 C776 1.291 . S
C775 H788 0.931 . S
C776 C775 1.291 . S
C776 C777 1.373 . S
C776 H789 0.929 . S
C777 C776 1.373 . S
C777 C778 1.396 . S
C777 C784 1.403 . S
C778 C768 1.476 . S
C778 N773 1.318 . S
C778 C777 1.396 . S
H779 C774 0.929 . S
O780 Mn756 2.385 . S
O780 C758 1.234 . S
O781 Mn756 2.209 . S
O781 Mn757 2.215 . S
O781 C758 1.283 . S
O782 Mn756 2.094 . S
O782 C760 1.240 . S
O783 Mn757 2.117 . S
O783 C760 1.264 . S
C784 C777 1.403 . S
C784 C785 1.399 . S
C784 H790 0.929 . S
C785 C765 1.449 . S
C785 C784 1.399 . S
C785 H791 0.930 . S
H786 C766 0.931 . S
H787 C767 0.930 . S
H788 C775 0.931 . S
H789 C776 0.929 . S
H790 C784 0.929 . S
H791 C785 0.930 . S
Mn792 O797 2.095 . S
Mn792 O807 2.162 . S
Mn792 O808 2.297 . S
Mn792 O816 2.385 . S
Mn792 O817 2.209 . S
Mn792 O818 2.094 . S
Mn793 O798 2.121 . S
Mn793 N800 2.257 . S
Mn793 N809 2.282 . S
Mn793 O817 2.215 . S
Mn793 O819 2.117 . S
C794 O816 1.234 . S
C794 O817 1.283 . S
C795 O807 1.281 . S
C795 O808 1.236 . S
C796 O818 1.240 . S
C796 O819 1.264 . S
O797 Mn792 2.095 . S
O797 C806 1.250 . S
O798 Mn793 2.121 . S
O798 C806 1.258 . S
C799 N800 1.326 . S
C799 C803 1.460 . S
C799 H805 0.929 . S
N800 Mn793 2.257 . S
N800 C799 1.326 . S
N800 C804 1.362 . S
C801 C802 1.258 . S
C801 C804 1.431 . S
C801 C821 1.449 . S
C802 C801 1.258 . S
C802 C803 1.477 . S
C802 H822 0.931 . S
C803 C799 1.460 . S
C803 C802 1.477 . S
C803 H823 0.930 . S
C804 N800 1.362 . S
C804 C801 1.431 . S
C804 C814 1.476 . S
H805 C799 0.929 . S
C806 O797 1.250 . S
C806 O798 1.258 . S
O807 Mn792 2.162 . S
O807 C795 1.281 . S
O808 Mn792 2.297 . S
O808 C795 1.236 . S
N809 Mn793 2.282 . S
N809 C810 1.328 . S
N809 C814 1.318 . S
C810 N809 1.328 . S
C810 C811 1.457 . S
C810 H815 0.929 . S
C811 C810 1.457 . S
C811 C812 1.291 . S
C811 H824 0.931 . S
C812 C811 1.291 . S
C812 C813 1.373 . S
C812 H825 0.929 . S
C813 C812 1.373 . S
C813 C814 1.396 . S
C813 C820 1.403 . S
C814 C804 1.476 . S
C814 N809 1.318 . S
C814 C813 1.396 . S
H815 C810 0.929 . S
O816 Mn792 2.385 . S
O816 C794 1.234 . S
O817 Mn792 2.209 . S
O817 Mn793 2.215 . S
O817 C794 1.283 . S
O818 Mn792 2.094 . S
O818 C796 1.240 . S
O819 Mn793 2.117 . S
O819 C796 1.264 . S
C820 C813 1.403 . S
C820 C821 1.399 . S
C820 H826 0.929 . S
C821 C801 1.449 . S
C821 C820 1.399 . S
C821 H827 0.930 . S
H822 C802 0.931 . S
H823 C803 0.930 . S
H824 C811 0.931 . S
H825 C812 0.929 . S
H826 C820 0.929 . S
H827 C821 0.930 . S
Mn828 O833 2.095 . S
Mn828 O843 2.162 . S
Mn828 O844 2.297 . S
Mn828 O852 2.385 . S
Mn828 O853 2.209 . S
Mn828 O854 2.094 . S
Mn829 O834 2.121 . S
Mn829 N836 2.257 . S
Mn829 N845 2.282 . S
Mn829 O853 2.215 . S
Mn829 O855 2.117 . S
C830 O852 1.234 . S
C830 O853 1.283 . S
C831 O843 1.281 . S
C831 O844 1.236 . S
C832 O854 1.240 . S
C832 O855 1.264 . S
O833 Mn828 2.095 . S
O833 C842 1.250 . S
O834 Mn829 2.121 . S
O834 C842 1.258 . S
C835 N836 1.326 . S
C835 C839 1.460 . S
C835 H841 0.929 . S
N836 Mn829 2.257 . S
N836 C835 1.326 . S
N836 C840 1.362 . S
C837 C838 1.258 . S
C837 C840 1.431 . S
C837 C857 1.449 . S
C838 C837 1.258 . S
C838 C839 1.477 . S
C838 H858 0.931 . S
C839 C835 1.460 . S
C839 C838 1.477 . S
C839 H859 0.930 . S
C840 N836 1.362 . S
C840 C837 1.431 . S
C840 C850 1.476 . S
H841 C835 0.929 . S
C842 O833 1.250 . S
C842 O834 1.258 . S
O843 Mn828 2.162 . S
O843 C831 1.281 . S
O844 Mn828 2.297 . S
O844 C831 1.236 . S
N845 Mn829 2.282 . S
N845 C846 1.328 . S
N845 C850 1.318 . S
C846 N845 1.328 . S
C846 C847 1.457 . S
C846 H851 0.929 . S
C847 C846 1.457 . S
C847 C848 1.291 . S
C847 H860 0.931 . S
C848 C847 1.291 . S
C848 C849 1.373 . S
C848 H861 0.929 . S
C849 C848 1.373 . S
C849 C850 1.396 . S
C849 C856 1.403 . S
C850 C840 1.476 . S
C850 N845 1.318 . S
C850 C849 1.396 . S
H851 C846 0.929 . S
O852 Mn828 2.385 . S
O852 C830 1.234 . S
O853 Mn828 2.209 . S
O853 Mn829 2.215 . S
O853 C830 1.283 . S
O854 Mn828 2.094 . S
O854 C832 1.240 . S
O855 Mn829 2.117 . S
O855 C832 1.264 . S
C856 C849 1.403 . S
C856 C857 1.399 . S
C856 H862 0.929 . S
C857 C837 1.449 . S
C857 C856 1.399 . S
C857 H863 0.930 . S
H858 C838 0.931 . S
H859 C839 0.930 . S
H860 C847 0.931 . S
H861 C848 0.929 . S
H862 C856 0.929 . S
H863 C857 0.930 . S
Mn864 O869 2.095 . S
Mn864 O879 2.162 . S
Mn864 O880 2.297 . S
Mn864 O888 2.385 . S
Mn864 O889 2.209 . S
Mn864 O890 2.094 . S
Mn865 O870 2.121 . S
Mn865 N872 2.257 . S
Mn865 N881 2.282 . S
Mn865 O889 2.215 . S
Mn865 O891 2.117 . S
C866 O888 1.234 . S
C866 O889 1.283 . S
C867 O879 1.281 . S
C867 O880 1.236 . S
C868 O890 1.240 . S
C868 O891 1.264 . S
O869 Mn864 2.095 . S
O869 C878 1.250 . S
O870 Mn865 2.121 . S
O870 C878 1.258 . S
C871 N872 1.326 . S
C871 C875 1.460 . S
C871 H877 0.929 . S
N872 Mn865 2.257 . S
N872 C871 1.326 . S
N872 C876 1.362 . S
C873 C874 1.258 . S
C873 C876 1.431 . S
C873 C893 1.449 . S
C874 C873 1.258 . S
C874 C875 1.477 . S
C874 H894 0.931 . S
C875 C871 1.460 . S
C875 C874 1.477 . S
C875 H895 0.930 . S
C876 N872 1.362 . S
C876 C873 1.431 . S
C876 C886 1.476 . S
H877 C871 0.929 . S
C878 O869 1.250 . S
C878 O870 1.258 . S
O879 Mn864 2.162 . S
O879 C867 1.281 . S
O880 Mn864 2.297 . S
O880 C867 1.236 . S
N881 Mn865 2.282 . S
N881 C882 1.328 . S
N881 C886 1.318 . S
C882 N881 1.328 . S
C882 C883 1.457 . S
C882 H887 0.929 . S
C883 C882 1.457 . S
C883 C884 1.291 . S
C883 H896 0.931 . S
C884 C883 1.291 . S
C884 C885 1.373 . S
C884 H897 0.929 . S
C885 C884 1.373 . S
C885 C886 1.396 . S
C885 C892 1.403 . S
C886 C876 1.476 . S
C886 N881 1.318 . S
C886 C885 1.396 . S
H887 C882 0.929 . S
O888 Mn864 2.385 . S
O888 C866 1.234 . S
O889 Mn864 2.209 . S
O889 Mn865 2.215 . S
O889 C866 1.283 . S
O890 Mn864 2.094 . S
O890 C868 1.240 . S
O891 Mn865 2.117 . S
O891 C868 1.264 . S
C892 C885 1.403 . S
C892 C893 1.399 . S
C892 H898 0.929 . S
C893 C873 1.449 . S
C893 C892 1.399 . S
C893 H899 0.930 . S
H894 C874 0.931 . S
H895 C875 0.930 . S
H896 C883 0.931 . S
H897 C884 0.929 . S
H898 C892 0.929 . S
H899 C893 0.930 . S
Mn900 O905 2.095 . S
Mn900 O915 2.162 . S
Mn900 O916 2.297 . S
Mn900 O924 2.385 . S
Mn900 O925 2.209 . S
Mn900 O926 2.094 . S
Mn901 O906 2.121 . S
Mn901 N908 2.257 . S
Mn901 N917 2.282 . S
Mn901 O925 2.215 . S
Mn901 O927 2.117 . S
C902 O924 1.234 . S
C902 O925 1.283 . S
C903 O915 1.281 . S
C903 O916 1.236 . S
C904 O926 1.240 . S
C904 O927 1.264 . S
O905 Mn900 2.095 . S
O905 C914 1.250 . S
O906 Mn901 2.121 . S
O906 C914 1.258 . S
C907 N908 1.326 . S
C907 C911 1.460 . S
C907 H913 0.929 . S
N908 Mn901 2.257 . S
N908 C907 1.326 . S
N908 C912 1.362 . S
C909 C910 1.258 . S
C909 C912 1.431 . S
C909 C929 1.449 . S
C910 C909 1.258 . S
C910 C911 1.477 . S
C910 H930 0.931 . S
C911 C907 1.460 . S
C911 C910 1.477 . S
C911 H931 0.930 . S
C912 N908 1.362 . S
C912 C909 1.431 . S
C912 C922 1.476 . S
H913 C907 0.929 . S
C914 O905 1.250 . S
C914 O906 1.258 . S
O915 Mn900 2.162 . S
O915 C903 1.281 . S
O916 Mn900 2.297 . S
O916 C903 1.236 . S
N917 Mn901 2.282 . S
N917 C918 1.328 . S
N917 C922 1.318 . S
C918 N917 1.328 . S
C918 C919 1.457 . S
C918 H923 0.929 . S
C919 C918 1.457 . S
C919 C920 1.291 . S
C919 H932 0.931 . S
C920 C919 1.291 . S
C920 C921 1.373 . S
C920 H933 0.929 . S
C921 C920 1.373 . S
C921 C922 1.396 . S
C921 C928 1.403 . S
C922 C912 1.476 . S
C922 N917 1.318 . S
C922 C921 1.396 . S
H923 C918 0.929 . S
O924 Mn900 2.385 . S
O924 C902 1.234 . S
O925 Mn900 2.209 . S
O925 Mn901 2.215 . S
O925 C902 1.283 . S
O926 Mn900 2.094 . S
O926 C904 1.240 . S
O927 Mn901 2.117 . S
O927 C904 1.264 . S
C928 C921 1.403 . S
C928 C929 1.399 . S
C928 H934 0.929 . S
C929 C909 1.449 . S
C929 C928 1.399 . S
C929 H935 0.930 . S
H930 C910 0.931 . S
H931 C911 0.930 . S
H932 C919 0.931 . S
H933 C920 0.929 . S
H934 C928 0.929 . S
H935 C929 0.930 . S
Mn936 O941 2.095 . S
Mn936 O951 2.162 . S
Mn936 O952 2.297 . S
Mn936 O960 2.385 1_556 S
Mn936 O961 2.209 1_556 S
Mn936 O962 2.094 . S
Mn937 O942 2.121 1_554 S
Mn937 N944 2.257 . S
Mn937 N953 2.282 . S
Mn937 O961 2.215 . S
Mn937 O963 2.109 1_554 S
C938 O960 1.234 . S
C938 O961 1.283 . S
C939 O951 1.281 . S
C939 O952 1.236 . S
C940 O962 1.240 . S
C940 O963 1.274 . S
O941 Mn936 2.095 . S
O941 C950 1.250 . S
O942 Mn937 2.121 1_556 S
O942 C950 1.258 . S
C943 N944 1.326 . S
C943 C947 1.460 . S
C943 H949 0.929 . S
N944 Mn937 2.257 . S
N944 C943 1.326 . S
N944 C948 1.362 . S
C945 C946 1.258 . S
C945 C948 1.431 . S
C945 C965 1.449 . S
C946 C945 1.258 . S
C946 C947 1.477 . S
C946 H966 0.931 . S
C947 C943 1.460 . S
C947 C946 1.477 . S
C947 H967 0.930 . S
C948 N944 1.362 . S
C948 C945 1.431 . S
C948 C958 1.476 . S
H949 C943 0.929 . S
C950 O941 1.250 . S
C950 O942 1.258 . S
O951 Mn936 2.162 . S
O951 C939 1.281 . S
O952 Mn936 2.297 . S
O952 C939 1.236 . S
N953 Mn937 2.282 . S
N953 C954 1.328 . S
N953 C958 1.318 . S
C954 N953 1.328 . S
C954 C955 1.457 . S
C954 H959 0.929 . S
C955 C954 1.457 . S
C955 C956 1.291 . S
C955 H968 0.931 . S
C956 C955 1.291 . S
C956 C957 1.373 . S
C956 H969 0.929 . S
C957 C956 1.373 . S
C957 C958 1.396 . S
C957 C964 1.403 . S
C958 C948 1.476 . S
C958 N953 1.318 . S
C958 C957 1.396 . S
H959 C954 0.929 . S
O960 Mn936 2.385 1_554 S
O960 C938 1.234 . S
O961 Mn936 2.209 1_554 S
O961 Mn937 2.215 . S
O961 C938 1.283 . S
O962 Mn936 2.094 . S
O962 C940 1.240 . S
O963 Mn937 2.109 1_556 S
O963 C940 1.274 . S
C964 C957 1.403 . S
C964 C965 1.399 . S
C964 H970 0.929 . S
C965 C945 1.449 . S
C965 C964 1.399 . S
C965 H971 0.930 . S
H966 C946 0.931 . S
H967 C947 0.930 . S
H968 C955 0.931 . S
H969 C956 0.929 . S
H970 C964 0.929 . S
H971 C965 0.930 . S
Mn972 O977 2.095 . S
Mn972 O987 2.162 . S
Mn972 O988 2.297 . S
Mn972 O996 2.385 1_556 S
Mn972 O997 2.209 1_556 S
Mn972 O998 2.094 . S
Mn973 O978 2.121 1_554 S
Mn973 N980 2.257 . S
Mn973 N989 2.282 . S
Mn973 O997 2.215 . S
Mn973 O999 2.109 1_554 S
C974 O996 1.234 . S
C974 O997 1.283 . S
C975 O987 1.281 . S
C975 O988 1.236 . S
C976 O998 1.240 . S
C976 O999 1.274 . S
O977 Mn972 2.095 . S
O977 C986 1.250 . S
O978 Mn973 2.121 1_556 S
O978 C986 1.258 . S
C979 N980 1.326 . S
C979 C983 1.460 . S
C979 H985 0.929 . S
N980 Mn973 2.257 . S
N980 C979 1.326 . S
N980 C984 1.362 . S
C981 C982 1.258 . S
C981 C984 1.431 . S
C981 C1001 1.449 . S
C982 C981 1.258 . S
C982 C983 1.477 . S
C982 H1002 0.931 . S
C983 C979 1.460 . S
C983 C982 1.477 . S
C983 H1003 0.930 . S
C984 N980 1.362 . S
C984 C981 1.431 . S
C984 C994 1.476 . S
H985 C979 0.929 . S
C986 O977 1.250 . S
C986 O978 1.258 . S
O987 Mn972 2.162 . S
O987 C975 1.281 . S
O988 Mn972 2.297 . S
O988 C975 1.236 . S
N989 Mn973 2.282 . S
N989 C990 1.328 . S
N989 C994 1.318 . S
C990 N989 1.328 . S
C990 C991 1.457 . S
C990 H995 0.929 . S
C991 C990 1.457 . S
C991 C992 1.291 . S
C991 H1004 0.931 . S
C992 C991 1.291 . S
C992 C993 1.373 . S
C992 H1005 0.929 . S
C993 C992 1.373 . S
C993 C994 1.396 . S
C993 C1000 1.403 . S
C994 C984 1.476 . S
C994 N989 1.318 . S
C994 C993 1.396 . S
H995 C990 0.929 . S
O996 Mn972 2.385 1_554 S
O996 C974 1.234 . S
O997 Mn972 2.209 1_554 S
O997 Mn973 2.215 . S
O997 C974 1.283 . S
O998 Mn972 2.094 . S
O998 C976 1.240 . S
O999 Mn973 2.109 1_556 S
O999 C976 1.274 . S
C1000 C993 1.403 . S
C1000 C1001 1.399 . S
C1000 H1006 0.929 . S
C1001 C981 1.449 . S
C1001 C1000 1.399 . S
C1001 H1007 0.930 . S
H1002 C982 0.931 . S
H1003 C983 0.930 . S
H1004 C991 0.931 . S
H1005 C992 0.929 . S
H1006 C1000 0.929 . S
H1007 C1001 0.930 . S
Mn1008 O1013 2.095 . S
Mn1008 O1023 2.162 . S
Mn1008 O1024 2.297 . S
Mn1008 O1032 2.385 . S
Mn1008 O1033 2.209 . S
Mn1008 O1034 2.094 . S
Mn1009 O1014 2.121 . S
Mn1009 N1016 2.257 . S
Mn1009 N1025 2.282 . S
Mn1009 O1033 2.215 . S
Mn1009 O1035 2.117 . S
C1010 O1032 1.234 . S
C1010 O1033 1.283 . S
C1011 O1023 1.281 . S
C1011 O1024 1.236 . S
C1012 O1034 1.240 . S
C1012 O1035 1.264 . S
O1013 Mn1008 2.095 . S
O1013 C1022 1.250 . S
O1014 Mn1009 2.121 . S
O1014 C1022 1.258 . S
C1015 N1016 1.326 . S
C1015 C1019 1.460 . S
C1015 H1021 0.929 . S
N1016 Mn1009 2.257 . S
N1016 C1015 1.326 . S
N1016 C1020 1.362 . S
C1017 C1018 1.258 . S
C1017 C1020 1.431 . S
C1017 C1037 1.449 . S
C1018 C1017 1.258 . S
C1018 C1019 1.477 . S
C1018 H1038 0.931 . S
C1019 C1015 1.460 . S
C1019 C1018 1.477 . S
C1019 H1039 0.930 . S
C1020 N1016 1.362 . S
C1020 C1017 1.431 . S
C1020 C1030 1.476 . S
H1021 C1015 0.929 . S
C1022 O1013 1.250 . S
C1022 O1014 1.258 . S
O1023 Mn1008 2.162 . S
O1023 C1011 1.281 . S
O1024 Mn1008 2.297 . S
O1024 C1011 1.236 . S
N1025 Mn1009 2.282 . S
N1025 C1026 1.328 . S
N1025 C1030 1.318 . S
C1026 N1025 1.328 . S
C1026 C1027 1.457 . S
C1026 H1031 0.929 . S
C1027 C1026 1.457 . S
C1027 C1028 1.291 . S
C1027 H1040 0.931 . S
C1028 C1027 1.291 . S
C1028 C1029 1.373 . S
C1028 H1041 0.929 . S
C1029 C1028 1.373 . S
C1029 C1030 1.396 . S
C1029 C1036 1.403 . S
C1030 C1020 1.476 . S
C1030 N1025 1.318 . S
C1030 C1029 1.396 . S
H1031 C1026 0.929 . S
O1032 Mn1008 2.385 . S
O1032 C1010 1.234 . S
O1033 Mn1008 2.209 . S
O1033 Mn1009 2.215 . S
O1033 C1010 1.283 . S
O1034 Mn1008 2.094 . S
O1034 C1012 1.240 . S
O1035 Mn1009 2.117 . S
O1035 C1012 1.264 . S
C1036 C1029 1.403 . S
C1036 C1037 1.399 . S
C1036 H1042 0.929 . S
C1037 C1017 1.449 . S
C1037 C1036 1.399 . S
C1037 H1043 0.930 . S
H1038 C1018 0.931 . S
H1039 C1019 0.930 . S
H1040 C1027 0.931 . S
H1041 C1028 0.929 . S
H1042 C1036 0.929 . S
H1043 C1037 0.930 . S
Mn1044 O1049 2.095 . S
Mn1044 O1059 2.162 . S
Mn1044 O1060 2.297 . S
Mn1044 O1068 2.385 . S
Mn1044 O1069 2.209 . S
Mn1044 O1070 2.094 . S
Mn1045 O1050 2.121 . S
Mn1045 N1052 2.257 . S
Mn1045 N1061 2.282 . S
Mn1045 O1069 2.215 . S
Mn1045 O1071 2.117 . S
C1046 O1068 1.234 . S
C1046 O1069 1.283 . S
C1047 O1059 1.281 . S
C1047 O1060 1.236 . S
C1048 O1070 1.240 . S
C1048 O1071 1.264 . S
O1049 Mn1044 2.095 . S
O1049 C1058 1.250 . S
O1050 Mn1045 2.121 . S
O1050 C1058 1.258 . S
C1051 N1052 1.326 . S
C1051 C1055 1.460 . S
C1051 H1057 0.929 . S
N1052 Mn1045 2.257 . S
N1052 C1051 1.326 . S
N1052 C1056 1.362 . S
C1053 C1054 1.258 . S
C1053 C1056 1.431 . S
C1053 C1073 1.449 . S
C1054 C1053 1.258 . S
C1054 C1055 1.477 . S
C1054 H1074 0.931 . S
C1055 C1051 1.460 . S
C1055 C1054 1.477 . S
C1055 H1075 0.930 . S
C1056 N1052 1.362 . S
C1056 C1053 1.431 . S
C1056 C1066 1.476 . S
H1057 C1051 0.929 . S
C1058 O1049 1.250 . S
C1058 O1050 1.258 . S
O1059 Mn1044 2.162 . S
O1059 C1047 1.281 . S
O1060 Mn1044 2.297 . S
O1060 C1047 1.236 . S
N1061 Mn1045 2.282 . S
N1061 C1062 1.328 . S
N1061 C1066 1.318 . S
C1062 N1061 1.328 . S
C1062 C1063 1.457 . S
C1062 H1067 0.929 . S
C1063 C1062 1.457 . S
C1063 C1064 1.291 . S
C1063 H1076 0.931 . S
C1064 C1063 1.291 . S
C1064 C1065 1.373 . S
C1064 H1077 0.929 . S
C1065 C1064 1.373 . S
C1065 C1066 1.396 . S
C1065 C1072 1.403 . S
C1066 C1056 1.476 . S
C1066 N1061 1.318 . S
C1066 C1065 1.396 . S
H1067 C1062 0.929 . S
O1068 Mn1044 2.385 . S
O1068 C1046 1.234 . S
O1069 Mn1044 2.209 . S
O1069 Mn1045 2.215 . S
O1069 C1046 1.283 . S
O1070 Mn1044 2.094 . S
O1070 C1048 1.240 . S
O1071 Mn1045 2.117 . S
O1071 C1048 1.264 . S
C1072 C1065 1.403 . S
C1072 C1073 1.399 . S
C1072 H1078 0.929 . S
C1073 C1053 1.449 . S
C1073 C1072 1.399 . S
C1073 H1079 0.930 . S
H1074 C1054 0.931 . S
H1075 C1055 0.930 . S
H1076 C1063 0.931 . S
H1077 C1064 0.929 . S
H1078 C1072 0.929 . S
H1079 C1073 0.930 . S
Mn1080 O1085 2.095 . S
Mn1080 O1095 2.162 1_554 S
Mn1080 O1096 2.297 1_554 S
Mn1080 O1104 2.385 . S
Mn1080 O1105 2.209 . S
Mn1080 O1106 2.094 . S
Mn1081 O1086 2.121 . S
Mn1081 N1088 2.257 . S
Mn1081 N1097 2.282 . S
Mn1081 O1105 2.215 . S
Mn1081 O1107 2.117 . S
C1082 O1104 1.234 . S
C1082 O1105 1.283 . S
C1083 O1095 1.281 . S
C1083 O1096 1.236 . S
C1084 O1106 1.240 . S
C1084 O1107 1.264 . S
O1085 Mn1080 2.095 . S
O1085 C1094 1.250 . S
O1086 Mn1081 2.121 . S
O1086 C1094 1.258 . S
C1087 N1088 1.326 . S
C1087 C1091 1.460 . S
C1087 H1093 0.929 . S
N1088 Mn1081 2.257 . S
N1088 C1087 1.326 . S
N1088 C1092 1.362 . S
C1089 C1090 1.258 . S
C1089 C1092 1.431 . S
C1089 C1109 1.449 . S
C1090 C1089 1.258 . S
C1090 C1091 1.477 . S
C1090 H1110 0.931 . S
C1091 C1087 1.460 . S
C1091 C1090 1.477 . S
C1091 H1111 0.930 . S
C1092 N1088 1.362 . S
C1092 C1089 1.431 . S
C1092 C1102 1.476 . S
H1093 C1087 0.929 . S
C1094 O1085 1.250 . S
C1094 O1086 1.258 . S
O1095 Mn1080 2.162 1_556 S
O1095 C1083 1.281 . S
O1096 Mn1080 2.297 1_556 S
O1096 C1083 1.236 . S
N1097 Mn1081 2.282 . S
N1097 C1098 1.328 . S
N1097 C1102 1.318 . S
C1098 N1097 1.328 . S
C1098 C1099 1.457 . S
C1098 H1103 0.929 . S
C1099 C1098 1.457 . S
C1099 C1100 1.291 . S
C1099 H1112 0.931 . S
C1100 C1099 1.291 . S
C1100 C1101 1.373 . S
C1100 H1113 0.929 . S
C1101 C1100 1.373 . S
C1101 C1102 1.396 . S
C1101 C1108 1.403 . S
C1102 C1092 1.476 . S
C1102 N1097 1.318 . S
C1102 C1101 1.396 . S
H1103 C1098 0.929 . S
O1104 Mn1080 2.385 . S
O1104 C1082 1.234 . S
O1105 Mn1080 2.209 . S
O1105 Mn1081 2.215 . S
O1105 C1082 1.283 . S
O1106 Mn1080 2.094 . S
O1106 C1084 1.240 . S
O1107 Mn1081 2.117 . S
O1107 C1084 1.264 . S
C1108 C1101 1.403 . S
C1108 C1109 1.399 . S
C1108 H1114 0.929 . S
C1109 C1089 1.449 . S
C1109 C1108 1.399 . S
C1109 H1115 0.930 . S
H1110 C1090 0.931 . S
H1111 C1091 0.930 . S
H1112 C1099 0.931 . S
H1113 C1100 0.929 . S
H1114 C1108 0.929 . S
H1115 C1109 0.930 . S
Mn1116 O1121 2.095 . S
Mn1116 O1131 2.162 1_554 S
Mn1116 O1132 2.297 1_554 S
Mn1116 O1140 2.385 . S
Mn1116 O1141 2.209 . S
Mn1116 O1142 2.094 . S
Mn1117 O1122 2.121 . S
Mn1117 N1124 2.257 . S
Mn1117 N1133 2.282 . S
Mn1117 O1141 2.215 . S
Mn1117 O1143 2.117 . S
C1118 O1140 1.234 . S
C1118 O1141 1.283 . S
C1119 O1131 1.281 . S
C1119 O1132 1.236 . S
C1120 O1142 1.240 . S
C1120 O1143 1.264 . S
O1121 Mn1116 2.095 . S
O1121 C1130 1.250 . S
O1122 Mn1117 2.121 . S
O1122 C1130 1.258 . S
C1123 N1124 1.326 . S
C1123 C1127 1.460 . S
C1123 H1129 0.929 . S
N1124 Mn1117 2.257 . S
N1124 C1123 1.326 . S
N1124 C1128 1.362 . S
C1125 C1126 1.258 . S
C1125 C1128 1.431 . S
C1125 C1145 1.449 . S
C1126 C1125 1.258 . S
C1126 C1127 1.477 . S
C1126 H1146 0.931 . S
C1127 C1123 1.460 . S
C1127 C1126 1.477 . S
C1127 H1147 0.930 . S
C1128 N1124 1.362 . S
C1128 C1125 1.431 . S
C1128 C1138 1.476 . S
H1129 C1123 0.929 . S
C1130 O1121 1.250 . S
C1130 O1122 1.258 . S
O1131 Mn1116 2.162 1_556 S
O1131 C1119 1.281 . S
O1132 Mn1116 2.297 1_556 S
O1132 C1119 1.236 . S
N1133 Mn1117 2.282 . S
N1133 C1134 1.328 . S
N1133 C1138 1.318 . S
C1134 N1133 1.328 . S
C1134 C1135 1.457 . S
C1134 H1139 0.929 . S
C1135 C1134 1.457 . S
C1135 C1136 1.291 . S
C1135 H1148 0.931 . S
C1136 C1135 1.291 . S
C1136 C1137 1.373 . S
C1136 H1149 0.929 . S
C1137 C1136 1.373 . S
C1137 C1138 1.396 . S
C1137 C1144 1.403 . S
C1138 C1128 1.476 . S
C1138 N1133 1.318 . S
C1138 C1137 1.396 . S
H1139 C1134 0.929 . S
O1140 Mn1116 2.385 . S
O1140 C1118 1.234 . S
O1141 Mn1116 2.209 . S
O1141 Mn1117 2.215 . S
O1141 C1118 1.283 . S
O1142 Mn1116 2.094 . S
O1142 C1120 1.240 . S
O1143 Mn1117 2.117 . S
O1143 C1120 1.264 . S
C1144 C1137 1.403 . S
C1144 C1145 1.399 . S
C1144 H1150 0.929 . S
C1145 C1125 1.449 . S
C1145 C1144 1.399 . S
C1145 H1151 0.930 . S
H1146 C1126 0.931 . S
H1147 C1127 0.930 . S
H1148 C1135 0.931 . S
H1149 C1136 0.929 . S
H1150 C1144 0.929 . S
H1151 C1145 0.930 . S
H1152 C1160 0.950 . S
H1153 C1165 0.950 . S
H1154 C1162 0.950 . S
H1155 C1164 0.950 . S
H1156 C1166 0.950 . S
H1157 C1168 0.950 . S
H1158 C1170 0.950 . S
H1159 C1171 0.950 . S
C1160 H1152 0.950 . S
C1160 C1161 1.386 . S
C1160 C1162 1.391 . S
C1161 C1160 1.386 . S
C1161 C1165 1.393 . S
C1162 H1154 0.950 . S
C1162 C1160 1.391 . S
C1162 C1163 1.400 . S
C1163 C1162 1.400 . S
C1163 C1164 1.398 . S
C1163 C1169 1.491 . S
C1164 H1155 0.950 . S
C1164 C1163 1.398 . S
C1164 C1165 1.391 . S
C1165 H1153 0.950 . S
C1165 C1161 1.393 . S
C1165 C1164 1.391 . S
C1166 H1156 0.950 . S
C1166 C1167 1.386 . S
C1166 C1168 1.391 . S
C1167 C1166 1.386 . S
C1167 C1171 1.393 . S
C1168 H1157 0.950 . S
C1168 C1166 1.391 . S
C1168 C1169 1.400 . S
C1169 C1163 1.491 . S
C1169 C1168 1.400 . S
C1169 C1170 1.398 . S
C1170 H1158 0.950 . S
C1170 C1169 1.398 . S
C1170 C1171 1.391 . S
C1171 H1159 0.950 . S
C1171 C1167 1.393 . S
C1171 C1170 1.391 . S
H1172 C1180 0.950 1_655 S
H1173 C1185 0.950 . S
H1174 C1182 0.950 . S
H1175 C1184 0.950 . S
H1176 C1186 0.950 . S
H1177 C1188 0.950 . S
H1178 C1190 0.950 . S
H1179 C1191 0.950 . S
C1180 H1172 0.950 1_455 S
C1180 C1181 1.386 . S
C1180 C1182 1.391 . S
C1181 C1180 1.386 . S
C1181 C1185 1.393 . S
C1182 H1174 0.950 . S
C1182 C1180 1.391 . S
C1182 C1183 1.400 . S
C1183 C1182 1.400 . S
C1183 C1184 1.398 . S
C1183 C1189 1.491 . S
C1184 H1175 0.950 . S
C1184 C1183 1.398 . S
C1184 C1185 1.391 . S
C1185 H1173 0.950 . S
C1185 C1181 1.393 . S
C1185 C1184 1.391 . S
C1186 H1176 0.950 . S
C1186 C1187 1.386 . S
C1186 C1188 1.391 . S
C1187 C1186 1.386 . S
C1187 C1191 1.393 . S
C1188 H1177 0.950 . S
C1188 C1186 1.391 . S
C1188 C1189 1.400 . S
C1189 C1183 1.491 . S
C1189 C1188 1.400 . S
C1189 C1190 1.398 . S
C1190 H1178 0.950 . S
C1190 C1189 1.398 . S
C1190 C1191 1.391 . S
C1191 H1179 0.950 . S
C1191 C1187 1.393 . S
C1191 C1190 1.391 . S
H1192 C1200 0.950 . S
H1193 C1205 0.950 . S
H1194 C1202 0.950 . S
H1195 C1204 0.950 . S
H1196 C1206 0.950 1_455 S
H1197 C1208 0.950 . S
H1198 C1210 0.950 . S
H1199 C1211 0.950 . S
C1200 H1192 0.950 . S
C1200 C1201 1.386 . S
C1200 C1202 1.391 . S
C1201 C1200 1.386 . S
C1201 C1205 1.393 . S
C1202 H1194 0.950 . S
C1202 C1200 1.391 . S
C1202 C1203 1.400 . S
C1203 C1202 1.400 . S
C1203 C1204 1.398 . S
C1203 C1209 1.491 . S
C1204 H1195 0.950 . S
C1204 C1203 1.398 . S
C1204 C1205 1.391 . S
C1205 H1193 0.950 . S
C1205 C1201 1.393 . S
C1205 C1204 1.391 . S
C1206 H1196 0.950 1_655 S
C1206 C1207 1.386 . S
C1206 C1208 1.391 . S
C1207 C1206 1.386 . S
C1207 C1211 1.393 . S
C1208 H1197 0.950 . S
C1208 C1206 1.391 . S
C1208 C1209 1.400 . S
C1209 C1203 1.491 . S
C1209 C1208 1.400 . S
C1209 C1210 1.398 . S
C1210 H1198 0.950 . S
C1210 C1209 1.398 . S
C1210 C1211 1.391 . S
C1211 H1199 0.950 . S
C1211 C1207 1.393 . S
C1211 C1210 1.391 . S
H1212 C1220 0.950 . S
H1213 C1225 0.950 . S
H1214 C1222 0.950 . S
H1215 C1224 0.950 . S
H1216 C1226 0.950 . S
H1217 C1228 0.950 . S
H1218 C1230 0.950 . S
H1219 C1231 0.950 . S
C1220 H1212 0.950 . S
C1220 C1221 1.386 . S
C1220 C1222 1.391 . S
C1221 C1220 1.386 . S
C1221 C1225 1.393 . S
C1222 H1214 0.950 . S
C1222 C1220 1.391 . S
C1222 C1223 1.400 . S
C1223 C1222 1.400 . S
C1223 C1224 1.398 . S
C1223 C1229 1.491 . S
C1224 H1215 0.950 . S
C1224 C1223 1.398 . S
C1224 C1225 1.391 . S
C1225 H1213 0.950 . S
C1225 C1221 1.393 . S
C1225 C1224 1.391 . S
C1226 H1216 0.950 . S
C1226 C1227 1.386 . S
C1226 C1228 1.391 . S
C1227 C1226 1.386 . S
C1227 C1231 1.393 . S
C1228 H1217 0.950 . S
C1228 C1226 1.391 . S
C1228 C1229 1.400 . S
C1229 C1223 1.491 . S
C1229 C1228 1.400 . S
C1229 C1230 1.398 . S
C1230 H1218 0.950 . S
C1230 C1229 1.398 . S
C1230 C1231 1.391 . S
C1231 H1219 0.950 . S
C1231 C1227 1.393 . S
C1231 C1230 1.391 . S
H1232 C1240 0.950 . S
H1233 C1245 0.950 . S
H1234 C1242 0.950 . S
H1235 C1244 0.950 . S
H1236 C1246 0.950 . S
H1237 C1248 0.950 . S
H1238 C1250 0.950 . S
H1239 C1251 0.950 . S
C1240 H1232 0.950 . S
C1240 C1241 1.386 . S
C1240 C1242 1.391 . S
C1241 C1240 1.386 . S
C1241 C1245 1.393 . S
C1242 H1234 0.950 . S
C1242 C1240 1.391 . S
C1242 C1243 1.400 . S
C1243 C1242 1.400 . S
C1243 C1244 1.398 . S
C1243 C1249 1.491 . S
C1244 H1235 0.950 . S
C1244 C1243 1.398 . S
C1244 C1245 1.391 . S
C1245 H1233 0.950 . S
C1245 C1241 1.393 . S
C1245 C1244 1.391 . S
C1246 H1236 0.950 . S
C1246 C1247 1.386 . S
C1246 C1248 1.391 . S
C1247 C1246 1.386 . S
C1247 C1251 1.393 . S
C1248 H1237 0.950 . S
C1248 C1246 1.391 . S
C1248 C1249 1.400 . S
C1249 C1243 1.491 . S
C1249 C1248 1.400 . S
C1249 C1250 1.398 . S
C1250 H1238 0.950 . S
C1250 C1249 1.398 . S
C1250 C1251 1.391 . S
C1251 H1239 0.950 . S
C1251 C1247 1.393 . S
C1251 C1250 1.391 . S
H1252 C1260 0.950 . S
H1253 C1265 0.950 . S
H1254 C1262 0.950 . S
H1255 C1264 0.950 . S
H1256 C1266 0.950 . S
H1257 C1268 0.950 . S
H1258 C1270 0.950 . S
H1259 C1271 0.950 1_655 S
C1260 H1252 0.950 . S
C1260 C1261 1.386 . S
C1260 C1262 1.391 . S
C1261 C1260 1.386 . S
C1261 C1265 1.393 . S
C1262 H1254 0.950 . S
C1262 C1260 1.391 . S
C1262 C1263 1.400 . S
C1263 C1262 1.400 . S
C1263 C1264 1.398 . S
C1263 C1269 1.491 . S
C1264 H1255 0.950 . S
C1264 C1263 1.398 . S
C1264 C1265 1.391 . S
C1265 H1253 0.950 . S
C1265 C1261 1.393 . S
C1265 C1264 1.391 . S
C1266 H1256 0.950 . S
C1266 C1267 1.386 . S
C1266 C1268 1.391 . S
C1267 C1266 1.386 . S
C1267 C1271 1.393 . S
C1268 H1257 0.950 . S
C1268 C1266 1.391 . S
C1268 C1269 1.400 . S
C1269 C1263 1.491 . S
C1269 C1268 1.400 . S
C1269 C1270 1.398 . S
C1270 H1258 0.950 . S
C1270 C1269 1.398 . S
C1270 C1271 1.391 . S
C1271 H1259 0.950 1_455 S
C1271 C1267 1.393 . S
C1271 C1270 1.391 . S
H1272 C1280 0.950 . S
H1273 C1285 0.950 . S
H1274 C1282 0.950 . S
H1275 C1284 0.950 . S
H1276 C1286 0.950 1_455 S
H1277 C1288 0.950 . S
H1278 C1290 0.950 . S
H1279 C1291 0.950 . S
C1280 H1272 0.950 . S
C1280 C1281 1.386 . S
C1280 C1282 1.391 . S
C1281 C1280 1.386 . S
C1281 C1285 1.393 . S
C1282 H1274 0.950 . S
C1282 C1280 1.391 . S
C1282 C1283 1.400 . S
C1283 C1282 1.400 . S
C1283 C1284 1.398 . S
C1283 C1289 1.491 . S
C1284 H1275 0.950 . S
C1284 C1283 1.398 . S
C1284 C1285 1.391 . S
C1285 H1273 0.950 . S
C1285 C1281 1.393 . S
C1285 C1284 1.391 . S
C1286 H1276 0.950 1_655 S
C1286 C1287 1.386 . S
C1286 C1288 1.391 . S
C1287 C1286 1.386 . S
C1287 C1291 1.393 . S
C1288 H1277 0.950 . S
C1288 C1286 1.391 . S
C1288 C1289 1.400 . S
C1289 C1283 1.491 . S
C1289 C1288 1.400 . S
C1289 C1290 1.398 . S
C1290 H1278 0.950 . S
C1290 C1289 1.398 . S
C1290 C1291 1.391 . S
C1291 H1279 0.950 . S
C1291 C1287 1.393 . S
C1291 C1290 1.391 . S
H1292 C1300 0.950 . S
H1293 C1305 0.950 . S
H1294 C1302 0.950 . S
H1295 C1304 0.950 . S
H1296 C1306 0.950 . S
H1297 C1308 0.950 . S
H1298 C1310 0.950 . S
H1299 C1311 0.950 . S
C1300 H1292 0.950 . S
C1300 C1301 1.386 . S
C1300 C1302 1.391 . S
C1301 C1300 1.386 . S
C1301 C1305 1.393 . S
C1302 H1294 0.950 . S
C1302 C1300 1.391 . S
C1302 C1303 1.400 . S
C1303 C1302 1.400 . S
C1303 C1304 1.398 . S
C1303 C1309 1.491 . S
C1304 H1295 0.950 . S
C1304 C1303 1.398 . S
C1304 C1305 1.391 . S
C1305 H1293 0.950 . S
C1305 C1301 1.393 . S
C1305 C1304 1.391 . S
C1306 H1296 0.950 . S
C1306 C1307 1.386 . S
C1306 C1308 1.391 . S
C1307 C1306 1.386 . S
C1307 C1311 1.393 . S
C1308 H1297 0.950 . S
C1308 C1306 1.391 . S
C1308 C1309 1.400 . S
C1309 C1303 1.491 . S
C1309 C1308 1.400 . S
C1309 C1310 1.398 . S
C1310 H1298 0.950 . S
C1310 C1309 1.398 . S
C1310 C1311 1.391 . S
C1311 H1299 0.950 . S
C1311 C1307 1.393 . S
C1311 C1310 1.391 . S
H1312 C1320 0.950 . S
H1313 C1325 0.950 . S
H1314 C1322 0.950 . S
H1315 C1324 0.950 . S
H1316 C1326 0.950 . S
H1317 C1328 0.950 . S
H1318 C1330 0.950 . S
H1319 C1331 0.950 . S
C1320 H1312 0.950 . S
C1320 C1321 1.386 . S
C1320 C1322 1.391 . S
C1321 C1320 1.386 . S
C1321 C1325 1.393 . S
C1322 H1314 0.950 . S
C1322 C1320 1.391 . S
C1322 C1323 1.400 . S
C1323 C1322 1.400 . S
C1323 C1324 1.398 . S
C1323 C1329 1.491 . S
C1324 H1315 0.950 . S
C1324 C1323 1.398 . S
C1324 C1325 1.391 . S
C1325 H1313 0.950 . S
C1325 C1321 1.393 . S
C1325 C1324 1.391 . S
C1326 H1316 0.950 . S
C1326 C1327 1.386 . S
C1326 C1328 1.391 . S
C1327 C1326 1.386 . S
C1327 C1331 1.393 . S
C1328 H1317 0.950 . S
C1328 C1326 1.391 . S
C1328 C1329 1.400 . S
C1329 C1323 1.491 . S
C1329 C1328 1.400 . S
C1329 C1330 1.398 . S
C1330 H1318 0.950 . S
C1330 C1329 1.398 . S
C1330 C1331 1.391 . S
C1331 H1319 0.950 . S
C1331 C1327 1.393 . S
C1331 C1330 1.391 . S
H1332 C1340 0.950 . S
H1333 C1345 0.950 . S
H1334 C1342 0.950 . S
H1335 C1344 0.950 . S
H1336 C1346 0.950 . S
H1337 C1348 0.950 . S
H1338 C1350 0.950 . S
H1339 C1351 0.950 . S
C1340 H1332 0.950 . S
C1340 C1341 1.386 . S
C1340 C1342 1.391 . S
C1341 C1340 1.386 . S
C1341 C1345 1.393 . S
C1342 H1334 0.950 . S
C1342 C1340 1.391 . S
C1342 C1343 1.400 . S
C1343 C1342 1.400 . S
C1343 C1344 1.398 . S
C1343 C1349 1.491 . S
C1344 H1335 0.950 . S
C1344 C1343 1.398 . S
C1344 C1345 1.391 . S
C1345 H1333 0.950 . S
C1345 C1341 1.393 . S
C1345 C1344 1.391 . S
C1346 H1336 0.950 . S
C1346 C1347 1.386 . S
C1346 C1348 1.391 . S
C1347 C1346 1.386 . S
C1347 C1351 1.393 . S
C1348 H1337 0.950 . S
C1348 C1346 1.391 . S
C1348 C1349 1.400 . S
C1349 C1343 1.491 . S
C1349 C1348 1.400 . S
C1349 C1350 1.398 . S
C1350 H1338 0.950 . S
C1350 C1349 1.398 . S
C1350 C1351 1.391 . S
C1351 H1339 0.950 . S
C1351 C1347 1.393 . S
C1351 C1350 1.391 . S
H1352 C1360 0.950 . S
H1353 C1365 0.950 . S
H1354 C1362 0.950 . S
H1355 C1364 0.950 . S
H1356 C1366 0.950 . S
H1357 C1368 0.950 . S
H1358 C1370 0.950 . S
H1359 C1371 0.950 . S
C1360 H1352 0.950 . S
C1360 C1361 1.386 . S
C1360 C1362 1.391 . S
C1361 C1360 1.386 . S
C1361 C1365 1.393 . S
C1362 H1354 0.950 . S
C1362 C1360 1.391 . S
C1362 C1363 1.400 . S
C1363 C1362 1.400 . S
C1363 C1364 1.398 . S
C1363 C1369 1.491 . S
C1364 H1355 0.950 . S
C1364 C1363 1.398 . S
C1364 C1365 1.391 . S
C1365 H1353 0.950 . S
C1365 C1361 1.393 . S
C1365 C1364 1.391 . S
C1366 H1356 0.950 . S
C1366 C1367 1.386 . S
C1366 C1368 1.391 . S
C1367 C1366 1.386 . S
C1367 C1371 1.393 . S
C1368 H1357 0.950 . S
C1368 C1366 1.391 . S
C1368 C1369 1.400 . S
C1369 C1363 1.491 . S
C1369 C1368 1.400 . S
C1369 C1370 1.398 . S
C1370 H1358 0.950 . S
C1370 C1369 1.398 . S
C1370 C1371 1.391 . S
C1371 H1359 0.950 . S
C1371 C1367 1.393 . S
C1371 C1370 1.391 . S
H1372 C1380 0.950 . S
H1373 C1385 0.950 . S
H1374 C1382 0.950 . S
H1375 C1384 0.950 . S
H1376 C1386 0.950 . S
H1377 C1388 0.950 . S
H1378 C1390 0.950 . S
H1379 C1391 0.950 . S
C1380 H1372 0.950 . S
C1380 C1381 1.386 . S
C1380 C1382 1.391 . S
C1381 C1380 1.386 . S
C1381 C1385 1.393 . S
C1382 H1374 0.950 . S
C1382 C1380 1.391 . S
C1382 C1383 1.400 . S
C1383 C1382 1.400 . S
C1383 C1384 1.398 . S
C1383 C1389 1.491 . S
C1384 H1375 0.950 . S
C1384 C1383 1.398 . S
C1384 C1385 1.391 . S
C1385 H1373 0.950 . S
C1385 C1381 1.393 . S
C1385 C1384 1.391 . S
C1386 H1376 0.950 . S
C1386 C1387 1.386 . S
C1386 C1388 1.391 . S
C1387 C1386 1.386 . S
C1387 C1391 1.393 . S
C1388 H1377 0.950 . S
C1388 C1386 1.391 . S
C1388 C1389 1.400 . S
C1389 C1383 1.491 . S
C1389 C1388 1.400 . S
C1389 C1390 1.398 . S
C1390 H1378 0.950 . S
C1390 C1389 1.398 . S
C1390 C1391 1.391 . S
C1391 H1379 0.950 . S
C1391 C1387 1.393 . S
C1391 C1390 1.391 . S
H1392 C1400 0.950 . S
H1393 C1405 0.950 . S
H1394 C1402 0.950 . S
H1395 C1404 0.950 . S
H1396 C1406 0.950 . S
H1397 C1408 0.950 . S
H1398 C1410 0.950 . S
H1399 C1411 0.950 . S
C1400 H1392 0.950 . S
C1400 C1401 1.386 . S
C1400 C1402 1.391 . S
C1401 C1400 1.386 . S
C1401 C1405 1.393 . S
C1402 H1394 0.950 . S
C1402 C1400 1.391 . S
C1402 C1403 1.400 . S
C1403 C1402 1.400 . S
C1403 C1404 1.398 . S
C1403 C1409 1.491 . S
C1404 H1395 0.950 . S
C1404 C1403 1.398 . S
C1404 C1405 1.391 . S
C1405 H1393 0.950 . S
C1405 C1401 1.393 . S
C1405 C1404 1.391 . S
C1406 H1396 0.950 . S
C1406 C1407 1.386 . S
C1406 C1408 1.391 . S
C1407 C1406 1.386 . S
C1407 C1411 1.393 . S
C1408 H1397 0.950 . S
C1408 C1406 1.391 . S
C1408 C1409 1.400 . S
C1409 C1403 1.491 . S
C1409 C1408 1.400 . S
C1409 C1410 1.398 . S
C1410 H1398 0.950 . S
C1410 C1409 1.398 . S
C1410 C1411 1.391 . S
C1411 H1399 0.950 . S
C1411 C1407 1.393 . S
C1411 C1410 1.391 . S
H1412 C1420 0.950 . S
H1413 C1425 0.950 . S
H1414 C1422 0.950 . S
H1415 C1424 0.950 . S
H1416 C1426 0.950 . S
H1417 C1428 0.950 . S
H1418 C1430 0.950 . S
H1419 C1431 0.950 . S
C1420 H1412 0.950 . S
C1420 C1421 1.386 . S
C1420 C1422 1.391 . S
C1421 C1420 1.386 . S
C1421 C1425 1.393 . S
C1422 H1414 0.950 . S
C1422 C1420 1.391 . S
C1422 C1423 1.400 . S
C1423 C1422 1.400 . S
C1423 C1424 1.398 . S
C1423 C1429 1.491 . S
C1424 H1415 0.950 . S
C1424 C1423 1.398 . S
C1424 C1425 1.391 . S
C1425 H1413 0.950 . S
C1425 C1421 1.393 . S
C1425 C1424 1.391 . S
C1426 H1416 0.950 . S
C1426 C1427 1.386 . S
C1426 C1428 1.391 . S
C1427 C1426 1.386 . S
C1427 C1431 1.393 . S
C1428 H1417 0.950 . S
C1428 C1426 1.391 . S
C1428 C1429 1.400 . S
C1429 C1423 1.491 . S
C1429 C1428 1.400 . S
C1429 C1430 1.398 . S
C1430 H1418 0.950 . S
C1430 C1429 1.398 . S
C1430 C1431 1.391 . S
C1431 H1419 0.950 . S
C1431 C1427 1.393 . S
C1431 C1430 1.391 . S
H1432 C1440 0.950 . S
H1433 C1445 0.950 . S
H1434 C1442 0.950 . S
H1435 C1444 0.950 . S
H1436 C1446 0.950 . S
H1437 C1448 0.950 . S
H1438 C1450 0.950 . S
H1439 C1451 0.950 . S
C1440 H1432 0.950 . S
C1440 C1441 1.386 . S
C1440 C1442 1.391 . S
C1441 C1440 1.386 . S
C1441 C1445 1.393 . S
C1442 H1434 0.950 . S
C1442 C1440 1.391 . S
C1442 C1443 1.400 . S
C1443 C1442 1.400 . S
C1443 C1444 1.398 . S
C1443 C1449 1.491 . S
C1444 H1435 0.950 . S
C1444 C1443 1.398 . S
C1444 C1445 1.391 . S
C1445 H1433 0.950 . S
C1445 C1441 1.393 . S
C1445 C1444 1.391 . S
C1446 H1436 0.950 . S
C1446 C1447 1.386 . S
C1446 C1448 1.391 . S
C1447 C1446 1.386 . S
C1447 C1451 1.393 . S
C1448 H1437 0.950 . S
C1448 C1446 1.391 . S
C1448 C1449 1.400 . S
C1449 C1443 1.491 . S
C1449 C1448 1.400 . S
C1449 C1450 1.398 . S
C1450 H1438 0.950 . S
C1450 C1449 1.398 . S
C1450 C1451 1.391 . S
C1451 H1439 0.950 . S
C1451 C1447 1.393 . S
C1451 C1450 1.391 . S
H1452 C1460 0.950 . S
H1453 C1465 0.950 . S
H1454 C1462 0.950 . S
H1455 C1464 0.950 . S
H1456 C1466 0.950 . S
H1457 C1468 0.950 . S
H1458 C1470 0.950 . S
H1459 C1471 0.950 . S
C1460 H1452 0.950 . S
C1460 C1461 1.386 . S
C1460 C1462 1.391 . S
C1461 C1460 1.386 . S
C1461 C1465 1.393 . S
C1462 H1454 0.950 . S
C1462 C1460 1.391 . S
C1462 C1463 1.400 . S
C1463 C1462 1.400 . S
C1463 C1464 1.398 . S
C1463 C1469 1.491 . S
C1464 H1455 0.950 . S
C1464 C1463 1.398 . S
C1464 C1465 1.391 . S
C1465 H1453 0.950 . S
C1465 C1461 1.393 . S
C1465 C1464 1.391 . S
C1466 H1456 0.950 . S
C1466 C1467 1.386 . S
C1466 C1468 1.391 . S
C1467 C1466 1.386 . S
C1467 C1471 1.393 . S
C1468 H1457 0.950 . S
C1468 C1466 1.391 . S
C1468 C1469 1.400 . S
C1469 C1463 1.491 . S
C1469 C1468 1.400 . S
C1469 C1470 1.398 . S
C1470 H1458 0.950 . S
C1470 C1469 1.398 . S
C1470 C1471 1.391 . S
C1471 H1459 0.950 . S
C1471 C1467 1.393 . S
C1471 C1470 1.391 . S
H1472 C1480 0.950 . S
H1473 C1485 0.950 . S
H1474 C1482 0.950 1_545 S
H1475 C1484 0.950 . S
H1476 C1486 0.950 . S
H1477 C1488 0.950 . S
H1478 C1490 0.950 . S
H1479 C1491 0.950 . S
C1480 H1472 0.950 . S
C1480 C1481 1.386 . S
C1480 C1482 1.391 . S
C1481 C1480 1.386 . S
C1481 C1485 1.393 . S
C1482 H1474 0.950 1_565 S
C1482 C1480 1.391 . S
C1482 C1483 1.400 . S
C1483 C1482 1.400 . S
C1483 C1484 1.398 . S
C1483 C1489 1.491 1_565 S
C1484 H1475 0.950 . S
C1484 C1483 1.398 . S
C1484 C1485 1.391 . S
C1485 H1473 0.950 . S
C1485 C1481 1.393 . S
C1485 C1484 1.391 . S
C1486 H1476 0.950 . S
C1486 C1487 1.386 . S
C1486 C1488 1.391 . S
C1487 C1486 1.386 . S
C1487 C1491 1.393 . S
C1488 H1477 0.950 . S
C1488 C1486 1.391 . S
C1488 C1489 1.400 . S
C1489 C1483 1.491 1_545 S
C1489 C1488 1.400 . S
C1489 C1490 1.398 . S
C1490 H1478 0.950 . S
C1490 C1489 1.398 . S
C1490 C1491 1.391 . S
C1491 H1479 0.950 . S
C1491 C1487 1.393 . S
C1491 C1490 1.391 . S
H1492 C1500 0.950 . S
H1493 C1505 0.950 . S
H1494 C1502 0.950 . S
H1495 C1504 0.950 . S
H1496 C1506 0.950 . S
H1497 C1508 0.950 . S
H1498 C1510 0.950 . S
H1499 C1511 0.950 . S
C1500 H1492 0.950 . S
C1500 C1501 1.386 . S
C1500 C1502 1.391 . S
C1501 C1500 1.386 . S
C1501 C1505 1.393 1_655 S
C1502 H1494 0.950 . S
C1502 C1500 1.391 . S
C1502 C1503 1.400 . S
C1503 C1502 1.400 . S
C1503 C1504 1.398 1_655 S
C1503 C1509 1.491 1_655 S
C1504 H1495 0.950 . S
C1504 C1503 1.398 1_455 S
C1504 C1505 1.391 . S
C1505 H1493 0.950 . S
C1505 C1501 1.393 1_455 S
C1505 C1504 1.391 . S
C1506 H1496 0.950 . S
C1506 C1507 1.386 . S
C1506 C1508 1.391 . S
C1507 C1506 1.386 . S
C1507 C1511 1.393 1_455 S
C1508 H1497 0.950 . S
C1508 C1506 1.391 . S
C1508 C1509 1.400 . S
C1509 C1503 1.491 1_455 S
C1509 C1508 1.400 . S
C1509 C1510 1.398 1_455 S
C1510 H1498 0.950 . S
C1510 C1509 1.398 1_655 S
C1510 C1511 1.391 . S
C1511 H1499 0.950 . S
C1511 C1507 1.393 1_655 S
C1511 C1510 1.391 . S
H1512 C1520 0.950 . S
H1513 C1525 0.950 . S
H1514 C1522 0.950 . S
H1515 C1524 0.950 . S
H1516 C1526 0.950 . S
H1517 C1528 0.950 . S
H1518 C1530 0.950 . S
H1519 C1531 0.950 . S
C1520 H1512 0.950 . S
C1520 C1521 1.386 1_554 S
C1520 C1522 1.391 . S
C1521 C1520 1.386 1_556 S
C1521 C1525 1.393 . S
C1522 H1514 0.950 . S
C1522 C1520 1.391 . S
C1522 C1523 1.400 . S
C1523 C1522 1.400 . S
C1523 C1524 1.398 1_554 S
C1523 C1529 1.491 . S
C1524 H1515 0.950 . S
C1524 C1523 1.398 1_556 S
C1524 C1525 1.391 . S
C1525 H1513 0.950 . S
C1525 C1521 1.393 . S
C1525 C1524 1.391 . S
C1526 H1516 0.950 . S
C1526 C1527 1.386 1_556 S
C1526 C1528 1.391 . S
C1527 C1526 1.386 1_554 S
C1527 C1531 1.393 . S
C1528 H1517 0.950 . S
C1528 C1526 1.391 . S
C1528 C1529 1.400 1_556 S
C1529 C1523 1.491 . S
C1529 C1528 1.400 1_554 S
C1529 C1530 1.398 . S
C1530 H1518 0.950 . S
C1530 C1529 1.398 . S
C1530 C1531 1.391 . S
C1531 H1519 0.950 . S
C1531 C1527 1.393 . S
C1531 C1530 1.391 . S
H1532 C1540 0.950 . S
H1533 C1545 0.950 . S
H1534 C1542 0.950 . S
H1535 C1544 0.950 . S
H1536 C1546 0.950 . S
H1537 C1548 0.937 1_546 S
H1538 C1550 0.950 . S
H1539 C1551 0.950 . S
C1540 H1532 0.950 . S
C1540 C1541 1.386 1_554 S
C1540 C1542 1.391 . S
C1541 C1540 1.386 1_556 S
C1541 C1545 1.393 1_455 S
C1542 H1534 0.950 . S
C1542 C1540 1.391 . S
C1542 C1543 1.400 . S
C1543 C1542 1.400 . S
C1543 C1544 1.398 1_454 S
C1543 C1549 1.491 1_445 S
C1544 H1535 0.950 . S
C1544 C1543 1.398 1_656 S
C1544 C1545 1.391 . S
C1545 H1533 0.950 . S
C1545 C1541 1.393 1_655 S
C1545 C1544 1.391 . S
C1546 H1536 0.950 . S
C1546 C1547 1.386 . S
C1546 C1548 1.391 . S
C1547 C1546 1.386 . S
C1547 C1551 1.393 1_655 S
C1548 H1537 0.937 1_564 S
C1548 C1546 1.391 . S
C1548 C1549 1.400 . S
C1549 C1543 1.491 1_665 S
C1549 C1548 1.400 . S
C1549 C1550 1.398 1_655 S
C1550 H1538 0.950 . S
C1550 C1549 1.398 1_455 S
C1550 C1551 1.391 . S
C1551 H1539 0.950 . S
C1551 C1547 1.393 1_455 S
C1551 C1550 1.391 . S
H1552 C1560 0.950 . S
H1553 C1565 0.950 . S
H1554 C1562 0.950 . S
H1555 C1564 0.950 . S
H1556 C1566 0.950 . S
H1557 C1568 0.950 . S
H1558 C1570 0.950 1_545 S
H1559 C1571 0.950 . S
C1560 H1552 0.950 . S
C1560 C1561 1.386 . S
C1560 C1562 1.391 . S
C1561 C1560 1.386 . S
C1561 C1565 1.393 . S
C1562 H1554 0.950 . S
C1562 C1560 1.391 . S
C1562 C1563 1.400 . S
C1563 C1562 1.400 . S
C1563 C1564 1.398 . S
C1563 C1569 1.491 1_545 S
C1564 H1555 0.950 . S
C1564 C1563 1.398 . S
C1564 C1565 1.391 . S
C1565 H1553 0.950 . S
C1565 C1561 1.393 . S
C1565 C1564 1.391 . S
C1566 H1556 0.950 . S
C1566 C1567 1.386 . S
C1566 C1568 1.391 . S
C1567 C1566 1.386 . S
C1567 C1571 1.393 . S
C1568 H1557 0.950 . S
C1568 C1566 1.391 . S
C1568 C1569 1.400 . S
C1569 C1563 1.491 1_565 S
C1569 C1568 1.400 . S
C1569 C1570 1.398 . S
C1570 H1558 0.950 1_565 S
C1570 C1569 1.398 . S
C1570 C1571 1.391 . S
C1571 H1559 0.950 . S
C1571 C1567 1.393 . S
C1571 C1570 1.391 . S
H1572 C1580 0.950 . S
H1573 C1585 0.950 . S
H1574 C1582 0.950 . S
H1575 C1584 0.950 1_655 S
H1576 C1586 0.950 . S
H1577 C1588 0.950 . S
H1578 C1590 0.950 . S
H1579 C1591 0.950 . S
C1580 H1572 0.950 . S
C1580 C1581 1.386 . S
C1580 C1582 1.391 . S
C1581 C1580 1.386 . S
C1581 C1585 1.393 . S
C1582 H1574 0.950 . S
C1582 C1580 1.391 . S
C1582 C1583 1.400 . S
C1583 C1582 1.400 . S
C1583 C1584 1.398 . S
C1583 C1589 1.491 1_455 S
C1584 H1575 0.950 1_455 S
C1584 C1583 1.398 . S
C1584 C1585 1.391 . S
C1585 H1573 0.950 . S
C1585 C1581 1.393 . S
C1585 C1584 1.391 . S
C1586 H1576 0.950 . S
C1586 C1587 1.386 . S
C1586 C1588 1.391 . S
C1587 C1586 1.386 . S
C1587 C1591 1.393 . S
C1588 H1577 0.950 . S
C1588 C1586 1.391 . S
C1588 C1589 1.400 . S
C1589 C1583 1.491 1_655 S
C1589 C1588 1.400 . S
C1589 C1590 1.398 . S
C1590 H1578 0.950 . S
C1590 C1589 1.398 . S
C1590 C1591 1.391 . S
C1591 H1579 0.950 . S
C1591 C1587 1.393 . S
C1591 C1590 1.391 . S
H1592 C1600 0.950 1_554 S
H1593 C1605 0.950 . S
H1594 C1602 0.950 . S
H1595 C1604 0.950 . S
H1596 C1606 0.950 . S
H1597 C1608 0.938 1_556 S
H1598 C1610 0.950 . S
H1599 C1611 0.950 . S
C1600 H1592 0.950 1_556 S
C1600 C1601 1.386 . S
C1600 C1602 1.391 1_556 S
C1601 C1600 1.386 . S
C1601 C1605 1.393 . S
C1602 H1594 0.950 . S
C1602 C1600 1.391 1_554 S
C1602 C1603 1.400 . S
C1603 C1602 1.400 . S
C1603 C1604 1.398 1_554 S
C1603 C1609 1.491 . S
C1604 H1595 0.950 . S
C1604 C1603 1.398 1_556 S
C1604 C1605 1.391 . S
C1605 H1593 0.950 . S
C1605 C1601 1.393 . S
C1605 C1604 1.391 . S
C1606 H1596 0.950 . S
C1606 C1607 1.386 . S
C1606 C1608 1.391 . S
C1607 C1606 1.386 . S
C1607 C1611 1.393 . S
C1608 H1597 0.938 1_554 S
C1608 C1606 1.391 . S
C1608 C1609 1.400 . S
C1609 C1603 1.491 . S
C1609 C1608 1.400 . S
C1609 C1610 1.398 . S
C1610 H1598 0.950 . S
C1610 C1609 1.398 . S
C1610 C1611 1.391 . S
C1611 H1599 0.950 . S
C1611 C1607 1.393 . S
C1611 C1610 1.391 . S
H1612 C1620 0.950 . S
H1613 C1625 0.950 . S
H1614 C1622 0.950 . S
H1615 C1624 0.950 . S
H1616 C1626 0.950 . S
H1617 C1628 0.950 . S
H1618 C1630 0.950 . S
H1619 C1631 0.950 . S
C1620 H1612 0.950 . S
C1620 C1621 1.386 . S
C1620 C1622 1.391 . S
C1621 C1620 1.386 . S
C1621 C1625 1.393 . S
C1622 H1614 0.950 . S
C1622 C1620 1.391 . S
C1622 C1623 1.400 . S
C1623 C1622 1.400 . S
C1623 C1624 1.398 . S
C1623 C1629 1.491 . S
C1624 H1615 0.950 . S
C1624 C1623 1.398 . S
C1624 C1625 1.391 . S
C1625 H1613 0.950 . S
C1625 C1621 1.393 . S
C1625 C1624 1.391 . S
C1626 H1616 0.950 . S
C1626 C1627 1.386 . S
C1626 C1628 1.391 . S
C1627 C1626 1.386 . S
C1627 C1631 1.393 . S
C1628 H1617 0.950 . S
C1628 C1626 1.391 . S
C1628 C1629 1.400 . S
C1629 C1623 1.491 . S
C1629 C1628 1.400 . S
C1629 C1630 1.398 . S
C1630 H1618 0.950 . S
C1630 C1629 1.398 . S
C1630 C1631 1.391 . S
C1631 H1619 0.950 . S
C1631 C1627 1.393 . S
C1631 C1630 1.391 . S
H1632 C1640 0.950 . S
H1633 C1645 0.950 . S
H1634 C1642 0.950 . S
H1635 C1644 0.950 . S
H1636 C1646 0.950 . S
H1637 C1648 0.950 . S
H1638 C1650 0.950 . S
H1639 C1651 0.950 . S
C1640 H1632 0.950 . S
C1640 C1641 1.386 . S
C1640 C1642 1.391 . S
C1641 C1640 1.386 . S
C1641 C1645 1.393 . S
C1642 H1634 0.950 . S
C1642 C1640 1.391 . S
C1642 C1643 1.400 . S
C1643 C1642 1.400 . S
C1643 C1644 1.398 . S
C1643 C1649 1.491 . S
C1644 H1635 0.950 . S
C1644 C1643 1.398 . S
C1644 C1645 1.391 . S
C1645 H1633 0.950 . S
C1645 C1641 1.393 . S
C1645 C1644 1.391 . S
C1646 H1636 0.950 . S
C1646 C1647 1.386 . S
C1646 C1648 1.391 . S
C1647 C1646 1.386 . S
C1647 C1651 1.393 . S
C1648 H1637 0.950 . S
C1648 C1646 1.391 . S
C1648 C1649 1.400 . S
C1649 C1643 1.491 . S
C1649 C1648 1.400 . S
C1649 C1650 1.398 . S
C1650 H1638 0.950 . S
C1650 C1649 1.398 . S
C1650 C1651 1.391 . S
C1651 H1639 0.950 . S
C1651 C1647 1.393 . S
C1651 C1650 1.391 . S
H1652 C1660 0.950 . S
H1653 C1665 0.950 . S
H1654 C1662 0.950 . S
H1655 C1664 0.950 . S
H1656 C1666 0.950 . S
H1657 C1668 0.950 . S
H1658 C1670 0.950 . S
H1659 C1671 0.950 . S
C1660 H1652 0.950 . S
C1660 C1661 1.386 1_455 S
C1660 C1662 1.391 . S
C1661 C1660 1.386 1_655 S
C1661 C1665 1.393 . S
C1662 H1654 0.950 . S
C1662 C1660 1.391 . S
C1662 C1663 1.400 1_455 S
C1663 C1662 1.400 1_655 S
C1663 C1664 1.398 . S
C1663 C1669 1.491 1_655 S
C1664 H1655 0.950 . S
C1664 C1663 1.398 . S
C1664 C1665 1.391 . S
C1665 H1653 0.950 . S
C1665 C1661 1.393 . S
C1665 C1664 1.391 . S
C1666 H1656 0.950 . S
C1666 C1667 1.386 1_655 S
C1666 C1668 1.391 . S
C1667 C1666 1.386 1_455 S
C1667 C1671 1.393 . S
C1668 H1657 0.950 . S
C1668 C1666 1.391 . S
C1668 C1669 1.400 1_655 S
C1669 C1663 1.491 1_455 S
C1669 C1668 1.400 1_455 S
C1669 C1670 1.398 . S
C1670 H1658 0.950 . S
C1670 C1669 1.398 . S
C1670 C1671 1.391 . S
C1671 H1659 0.950 . S
C1671 C1667 1.393 . S
C1671 C1670 1.391 . S
H1672 C1680 0.950 . S
H1673 C1685 0.950 . S
H1674 C1682 0.950 . S
H1675 C1684 0.950 . S
H1676 C1686 0.950 . S
H1677 C1688 0.950 . S
H1678 C1690 0.950 . S
H1679 C1691 0.950 . S
C1680 H1672 0.950 . S
C1680 C1681 1.386 . S
C1680 C1682 1.391 . S
C1681 C1680 1.386 . S
C1681 C1685 1.393 . S
C1682 H1674 0.950 . S
C1682 C1680 1.391 . S
C1682 C1683 1.400 . S
C1683 C1682 1.400 . S
C1683 C1684 1.398 . S
C1683 C1689 1.491 . S
C1684 H1675 0.950 . S
C1684 C1683 1.398 . S
C1684 C1685 1.391 . S
C1685 H1673 0.950 . S
C1685 C1681 1.393 . S
C1685 C1684 1.391 . S
C1686 H1676 0.950 . S
C1686 C1687 1.386 . S
C1686 C1688 1.391 . S
C1687 C1686 1.386 . S
C1687 C1691 1.393 . S
C1688 H1677 0.950 . S
C1688 C1686 1.391 . S
C1688 C1689 1.400 . S
C1689 C1683 1.491 . S
C1689 C1688 1.400 . S
C1689 C1690 1.398 . S
C1690 H1678 0.950 . S
C1690 C1689 1.398 . S
C1690 C1691 1.391 . S
C1691 H1679 0.950 . S
C1691 C1687 1.393 . S
C1691 C1690 1.391 . S
H1692 C1700 0.950 . S
H1693 C1705 0.950 . S
H1694 C1702 0.950 . S
H1695 C1704 0.950 . S
H1696 C1706 0.950 . S
H1697 C1708 0.950 . S
H1698 C1710 0.950 . S
H1699 C1711 0.950 . S
C1700 H1692 0.950 . S
C1700 C1701 1.386 . S
C1700 C1702 1.391 . S
C1701 C1700 1.386 . S
C1701 C1705 1.393 . S
C1702 H1694 0.950 . S
C1702 C1700 1.391 . S
C1702 C1703 1.400 . S
C1703 C1702 1.400 . S
C1703 C1704 1.398 . S
C1703 C1709 1.491 . S
C1704 H1695 0.950 . S
C1704 C1703 1.398 . S
C1704 C1705 1.391 . S
C1705 H1693 0.950 . S
C1705 C1701 1.393 . S
C1705 C1704 1.391 . S
C1706 H1696 0.950 . S
C1706 C1707 1.386 . S
C1706 C1708 1.391 . S
C1707 C1706 1.386 . S
C1707 C1711 1.393 . S
C1708 H1697 0.950 . S
C1708 C1706 1.391 . S
C1708 C1709 1.400 . S
C1709 C1703 1.491 . S
C1709 C1708 1.400 . S
C1709 C1710 1.398 . S
C1710 H1698 0.950 . S
C1710 C1709 1.398 . S
C1710 C1711 1.391 . S
C1711 H1699 0.950 . S
C1711 C1707 1.393 . S
C1711 C1710 1.391 . S
H1712 C1720 0.950 . S
H1713 C1725 0.950 . S
H1714 C1722 0.950 . S
H1715 C1724 0.950 . S
H1716 C1726 0.950 . S
H1717 C1728 0.950 . S
H1718 C1730 0.950 . S
H1719 C1731 0.950 . S
C1720 H1712 0.950 . S
C1720 C1721 1.386 . S
C1720 C1722 1.391 . S
C1721 C1720 1.386 . S
C1721 C1725 1.393 . S
C1722 H1714 0.950 . S
C1722 C1720 1.391 . S
C1722 C1723 1.400 . S
C1723 C1722 1.400 . S
C1723 C1724 1.398 . S
C1723 C1729 1.491 . S
C1724 H1715 0.950 . S
C1724 C1723 1.398 . S
C1724 C1725 1.391 . S
C1725 H1713 0.950 . S
C1725 C1721 1.393 . S
C1725 C1724 1.391 . S
C1726 H1716 0.950 . S
C1726 C1727 1.386 . S
C1726 C1728 1.391 . S
C1727 C1726 1.386 . S
C1727 C1731 1.393 . S
C1728 H1717 0.950 . S
C1728 C1726 1.391 . S
C1728 C1729 1.400 . S
C1729 C1723 1.491 . S
C1729 C1728 1.400 . S
C1729 C1730 1.398 . S
C1730 H1718 0.950 . S
C1730 C1729 1.398 . S
C1730 C1731 1.391 . S
C1731 H1719 0.950 . S
C1731 C1727 1.393 . S
C1731 C1730 1.391 . S
H1732 C1740 0.950 . S
H1733 C1745 0.950 . S
H1734 C1742 0.950 . S
H1735 C1744 0.950 . S
H1736 C1746 0.950 . S
H1737 C1748 0.950 . S
H1738 C1750 0.950 1_545 S
H1739 C1751 0.950 . S
C1740 H1732 0.950 . S
C1740 C1741 1.386 . S
C1740 C1742 1.391 . S
C1741 C1740 1.386 . S
C1741 C1745 1.393 . S
C1742 H1734 0.950 . S
C1742 C1740 1.391 . S
C1742 C1743 1.400 . S
C1743 C1742 1.400 . S
C1743 C1744 1.398 . S
C1743 C1749 1.491 1_545 S
C1744 H1735 0.950 . S
C1744 C1743 1.398 . S
C1744 C1745 1.391 . S
C1745 H1733 0.950 . S
C1745 C1741 1.393 . S
C1745 C1744 1.391 . S
C1746 H1736 0.950 . S
C1746 C1747 1.386 . S
C1746 C1748 1.391 . S
C1747 C1746 1.386 . S
C1747 C1751 1.393 . S
C1748 H1737 0.950 . S
C1748 C1746 1.391 . S
C1748 C1749 1.400 . S
C1749 C1743 1.491 1_565 S
C1749 C1748 1.400 . S
C1749 C1750 1.398 . S
C1750 H1738 0.950 1_565 S
C1750 C1749 1.398 . S
C1750 C1751 1.391 . S
C1751 H1739 0.950 . S
C1751 C1747 1.393 . S
C1751 C1750 1.391 . S
H1752 C1760 0.950 . S
H1753 C1765 0.950 . S
H1754 C1762 0.950 . S
H1755 C1764 0.950 . S
H1756 C1766 0.950 . S
H1757 C1768 0.950 . S
H1758 C1770 0.950 . S
H1759 C1771 0.950 . S
C1760 H1752 0.950 . S
C1760 C1761 1.386 . S
C1760 C1762 1.391 . S
C1761 C1760 1.386 . S
C1761 C1765 1.393 . S
C1762 H1754 0.950 . S
C1762 C1760 1.391 . S
C1762 C1763 1.400 . S
C1763 C1762 1.400 . S
C1763 C1764 1.398 . S
C1763 C1769 1.491 . S
C1764 H1755 0.950 . S
C1764 C1763 1.398 . S
C1764 C1765 1.391 . S
C1765 H1753 0.950 . S
C1765 C1761 1.393 . S
C1765 C1764 1.391 . S
C1766 H1756 0.950 . S
C1766 C1767 1.386 . S
C1766 C1768 1.391 . S
C1767 C1766 1.386 . S
C1767 C1771 1.393 . S
C1768 H1757 0.950 . S
C1768 C1766 1.391 . S
C1768 C1769 1.400 . S
C1769 C1763 1.491 . S
C1769 C1768 1.400 . S
C1769 C1770 1.398 . S
C1770 H1758 0.950 . S
C1770 C1769 1.398 . S
C1770 C1771 1.391 . S
C1771 H1759 0.950 . S
C1771 C1767 1.393 . S
C1771 C1770 1.391 . S
H1772 C1780 0.950 . S
H1773 C1785 0.950 . S
H1774 C1782 0.950 . S
H1775 C1784 0.950 . S
H1776 C1786 0.950 . S
H1777 C1788 0.950 . S
H1778 C1790 0.950 . S
H1779 C1791 0.950 . S
C1780 H1772 0.950 . S
C1780 C1781 1.386 1_556 S
C1780 C1782 1.391 . S
C1781 C1780 1.386 1_554 S
C1781 C1785 1.393 . S
C1782 H1774 0.950 . S
C1782 C1780 1.391 . S
C1782 C1783 1.400 1_556 S
C1783 C1782 1.400 1_554 S
C1783 C1784 1.398 . S
C1783 C1789 1.491 . S
C1784 H1775 0.950 . S
C1784 C1783 1.398 . S
C1784 C1785 1.391 . S
C1785 H1773 0.950 . S
C1785 C1781 1.393 . S
C1785 C1784 1.391 . S
C1786 H1776 0.950 . S
C1786 C1787 1.386 1_554 S
C1786 C1788 1.391 . S
C1787 C1786 1.386 1_556 S
C1787 C1791 1.393 . S
C1788 H1777 0.950 . S
C1788 C1786 1.391 . S
C1788 C1789 1.400 . S
C1789 C1783 1.491 . S
C1789 C1788 1.400 . S
C1789 C1790 1.398 1_554 S
C1790 H1778 0.950 . S
C1790 C1789 1.398 1_556 S
C1790 C1791 1.391 . S
C1791 H1779 0.950 . S
C1791 C1787 1.393 . S
C1791 C1790 1.391 . S
H1792 C1800 0.950 . S
H1793 C1805 0.950 . S
H1794 C1802 0.950 . S
H1795 C1804 0.950 . S
H1796 C1806 0.950 . S
H1797 C1808 0.950 . S
H1798 C1810 0.950 . S
H1799 C1811 0.950 . S
C1800 H1792 0.950 . S
C1800 C1801 1.386 . S
C1800 C1802 1.391 . S
C1801 C1800 1.386 . S
C1801 C1805 1.393 . S
C1802 H1794 0.950 . S
C1802 C1800 1.391 . S
C1802 C1803 1.400 . S
C1803 C1802 1.400 . S
C1803 C1804 1.398 . S
C1803 C1809 1.491 . S
C1804 H1795 0.950 . S
C1804 C1803 1.398 . S
C1804 C1805 1.391 . S
C1805 H1793 0.950 . S
C1805 C1801 1.393 . S
C1805 C1804 1.391 . S
C1806 H1796 0.950 . S
C1806 C1807 1.386 . S
C1806 C1808 1.391 . S
C1807 C1806 1.386 . S
C1807 C1811 1.393 . S
C1808 H1797 0.950 . S
C1808 C1806 1.391 . S
C1808 C1809 1.400 . S
C1809 C1803 1.491 . S
C1809 C1808 1.400 . S
C1809 C1810 1.398 . S
C1810 H1798 0.950 . S
C1810 C1809 1.398 . S
C1810 C1811 1.391 . S
C1811 H1799 0.950 . S
C1811 C1807 1.393 . S
C1811 C1810 1.391 . S
H1812 C1820 0.950 . S
H1813 C1825 0.950 . S
H1814 C1822 0.950 . S
H1815 C1824 0.950 . S
H1816 C1826 0.950 . S
H1817 C1828 0.950 . S
H1818 C1830 0.950 . S
H1819 C1831 0.950 . S
C1820 H1812 0.950 . S
C1820 C1821 1.386 1_554 S
C1820 C1822 1.391 . S
C1821 C1820 1.386 1_556 S
C1821 C1825 1.393 . S
C1822 H1814 0.950 . S
C1822 C1820 1.391 . S
C1822 C1823 1.400 1_554 S
C1823 C1822 1.400 1_556 S
C1823 C1824 1.398 . S
C1823 C1829 1.491 . S
C1824 H1815 0.950 . S
C1824 C1823 1.398 . S
C1824 C1825 1.391 . S
C1825 H1813 0.950 . S
C1825 C1821 1.393 . S
C1825 C1824 1.391 . S
C1826 H1816 0.950 . S
C1826 C1827 1.386 . S
C1826 C1828 1.391 . S
C1827 C1826 1.386 . S
C1827 C1831 1.393 1_556 S
C1828 H1817 0.950 . S
C1828 C1826 1.391 . S
C1828 C1829 1.400 . S
C1829 C1823 1.491 . S
C1829 C1828 1.400 . S
C1829 C1830 1.398 1_556 S
C1830 H1818 0.950 . S
C1830 C1829 1.398 1_554 S
C1830 C1831 1.391 . S
C1831 H1819 0.950 . S
C1831 C1827 1.393 1_554 S
C1831 C1830 1.391 . S
H1832 C1840 0.950 . S
H1833 C1845 0.950 . S
H1834 C1842 0.950 . S
H1835 C1844 0.950 . S
H1836 C1846 0.950 . S
H1837 C1848 0.950 . S
H1838 C1850 0.950 . S
H1839 C1851 0.950 . S
C1840 H1832 0.950 . S
C1840 C1841 1.386 . S
C1840 C1842 1.391 . S
C1841 C1840 1.386 . S
C1841 C1845 1.393 . S
C1842 H1834 0.950 . S
C1842 C1840 1.391 . S
C1842 C1843 1.400 . S
C1843 C1842 1.400 . S
C1843 C1844 1.398 . S
C1843 C1849 1.491 . S
C1844 H1835 0.950 . S
C1844 C1843 1.398 . S
C1844 C1845 1.391 . S
C1845 H1833 0.950 . S
C1845 C1841 1.393 . S
C1845 C1844 1.391 . S
C1846 H1836 0.950 . S
C1846 C1847 1.386 . S
C1846 C1848 1.391 . S
C1847 C1846 1.386 . S
C1847 C1851 1.393 . S
C1848 H1837 0.950 . S
C1848 C1846 1.391 . S
C1848 C1849 1.400 . S
C1849 C1843 1.491 . S
C1849 C1848 1.400 . S
C1849 C1850 1.398 . S
C1850 H1838 0.950 . S
C1850 C1849 1.398 . S
C1850 C1851 1.391 . S
C1851 H1839 0.950 . S
C1851 C1847 1.393 . S
C1851 C1850 1.391 . S
H1852 C1860 0.950 . S
H1853 C1865 0.950 . S
H1854 C1862 0.950 . S
H1855 C1864 0.950 . S
H1856 C1866 0.950 . S
H1857 C1868 0.950 . S
H1858 C1870 0.950 . S
H1859 C1871 0.950 . S
C1860 H1852 0.950 . S
C1860 C1861 1.386 . S
C1860 C1862 1.391 . S
C1861 C1860 1.386 . S
C1861 C1865 1.393 . S
C1862 H1854 0.950 . S
C1862 C1860 1.391 . S
C1862 C1863 1.400 . S
C1863 C1862 1.400 . S
C1863 C1864 1.398 . S
C1863 C1869 1.491 . S
C1864 H1855 0.950 . S
C1864 C1863 1.398 . S
C1864 C1865 1.391 . S
C1865 H1853 0.950 . S
C1865 C1861 1.393 . S
C1865 C1864 1.391 . S
C1866 H1856 0.950 . S
C1866 C1867 1.386 . S
C1866 C1868 1.391 . S
C1867 C1866 1.386 . S
C1867 C1871 1.393 . S
C1868 H1857 0.950 . S
C1868 C1866 1.391 . S
C1868 C1869 1.400 . S
C1869 C1863 1.491 . S
C1869 C1868 1.400 . S
C1869 C1870 1.398 . S
C1870 H1858 0.950 . S
C1870 C1869 1.398 . S
C1870 C1871 1.391 . S
C1871 H1859 0.950 . S
C1871 C1867 1.393 . S
C1871 C1870 1.391 . S
H1872 C1880 0.950 . S
H1873 C1885 0.950 . S
H1874 C1882 0.950 . S
H1875 C1884 0.950 . S
H1876 C1886 0.950 . S
H1877 C1888 0.950 . S
H1878 C1890 0.950 . S
H1879 C1891 0.950 . S
C1880 H1872 0.950 . S
C1880 C1881 1.386 . S
C1880 C1882 1.391 . S
C1881 C1880 1.386 . S
C1881 C1885 1.393 . S
C1882 H1874 0.950 . S
C1882 C1880 1.391 . S
C1882 C1883 1.400 . S
C1883 C1882 1.400 . S
C1883 C1884 1.398 . S
C1883 C1889 1.491 . S
C1884 H1875 0.950 . S
C1884 C1883 1.398 . S
C1884 C1885 1.391 . S
C1885 H1873 0.950 . S
C1885 C1881 1.393 . S
C1885 C1884 1.391 . S
C1886 H1876 0.950 . S
C1886 C1887 1.386 . S
C1886 C1888 1.391 . S
C1887 C1886 1.386 . S
C1887 C1891 1.393 . S
C1888 H1877 0.950 . S
C1888 C1886 1.391 . S
C1888 C1889 1.400 . S
C1889 C1883 1.491 . S
C1889 C1888 1.400 . S
C1889 C1890 1.398 . S
C1890 H1878 0.950 . S
C1890 C1889 1.398 . S
C1890 C1891 1.391 . S
C1891 H1879 0.950 . S
C1891 C1887 1.393 . S
C1891 C1890 1.391 . S
H1892 C1900 0.950 . S
H1893 C1905 0.950 . S
H1894 C1902 0.950 . S
H1895 C1904 0.950 . S
H1896 C1906 0.950 . S
H1897 C1908 0.950 . S
H1898 C1910 0.950 . S
H1899 C1911 0.950 . S
C1900 H1892 0.950 . S
C1900 C1901 1.386 . S
C1900 C1902 1.391 . S
C1901 C1900 1.386 . S
C1901 C1905 1.393 . S
C1902 H1894 0.950 . S
C1902 C1900 1.391 . S
C1902 C1903 1.400 . S
C1903 C1902 1.400 . S
C1903 C1904 1.398 . S
C1903 C1909 1.491 . S
C1904 H1895 0.950 . S
C1904 C1903 1.398 . S
C1904 C1905 1.391 . S
C1905 H1893 0.950 . S
C1905 C1901 1.393 . S
C1905 C1904 1.391 . S
C1906 H1896 0.950 . S
C1906 C1907 1.386 . S
C1906 C1908 1.391 . S
C1907 C1906 1.386 . S
C1907 C1911 1.393 . S
C1908 H1897 0.950 . S
C1908 C1906 1.391 . S
C1908 C1909 1.400 . S
C1909 C1903 1.491 . S
C1909 C1908 1.400 . S
C1909 C1910 1.398 . S
C1910 H1898 0.950 . S
C1910 C1909 1.398 . S
C1910 C1911 1.391 . S
C1911 H1899 0.950 . S
C1911 C1907 1.393 . S
C1911 C1910 1.391 . S
H1912 C1920 0.950 . S
H1913 C1925 0.950 . S
H1914 C1922 0.950 . S
H1915 C1924 0.950 . S
H1916 C1926 0.950 . S
H1917 C1928 0.950 . S
H1918 C1930 0.950 . S
H1919 C1931 0.950 . S
C1920 H1912 0.950 . S
C1920 C1921 1.386 . S
C1920 C1922 1.391 . S
C1921 C1920 1.386 . S
C1921 C1925 1.393 . S
C1922 H1914 0.950 . S
C1922 C1920 1.391 . S
C1922 C1923 1.400 . S
C1923 C1922 1.400 . S
C1923 C1924 1.398 . S
C1923 C1929 1.491 . S
C1924 H1915 0.950 . S
C1924 C1923 1.398 . S
C1924 C1925 1.391 . S
C1925 H1913 0.950 . S
C1925 C1921 1.393 . S
C1925 C1924 1.391 . S
C1926 H1916 0.950 . S
C1926 C1927 1.386 . S
C1926 C1928 1.391 . S
C1927 C1926 1.386 . S
C1927 C1931 1.393 . S
C1928 H1917 0.950 . S
C1928 C1926 1.391 . S
C1928 C1929 1.400 . S
C1929 C1923 1.491 . S
C1929 C1928 1.400 . S
C1929 C1930 1.398 . S
C1930 H1918 0.950 . S
C1930 C1929 1.398 . S
C1930 C1931 1.391 . S
C1931 H1919 0.950 . S
C1931 C1927 1.393 . S
C1931 C1930 1.391 . S
H1932 C1940 0.950 . S
H1933 C1945 0.950 . S
H1934 C1942 0.950 . S
H1935 C1944 0.950 . S
H1936 C1946 0.950 . S
H1937 C1948 0.950 . S
H1938 C1950 0.950 . S
H1939 C1951 0.950 . S
C1940 H1932 0.950 . S
C1940 C1941 1.386 . S
C1940 C1942 1.391 . S
C1941 C1940 1.386 . S
C1941 C1945 1.393 . S
C1942 H1934 0.950 . S
C1942 C1940 1.391 . S
C1942 C1943 1.400 . S
C1943 C1942 1.400 . S
C1943 C1944 1.398 . S
C1943 C1949 1.491 . S
C1944 H1935 0.950 . S
C1944 C1943 1.398 . S
C1944 C1945 1.391 . S
C1945 H1933 0.950 . S
C1945 C1941 1.393 . S
C1945 C1944 1.391 . S
C1946 H1936 0.950 . S
C1946 C1947 1.386 . S
C1946 C1948 1.391 . S
C1947 C1946 1.386 . S
C1947 C1951 1.393 . S
C1948 H1937 0.950 . S
C1948 C1946 1.391 . S
C1948 C1949 1.400 . S
C1949 C1943 1.491 . S
C1949 C1948 1.400 . S
C1949 C1950 1.398 . S
C1950 H1938 0.950 . S
C1950 C1949 1.398 . S
C1950 C1951 1.391 . S
C1951 H1939 0.950 . S
C1951 C1947 1.393 . S
C1951 C1950 1.391 . S
H1952 C1960 0.950 . S
H1953 C1965 0.950 . S
H1954 C1962 0.950 . S
H1955 C1964 0.950 . S
H1956 C1966 0.950 . S
H1957 C1968 0.950 . S
H1958 C1970 0.950 . S
H1959 C1971 0.950 . S
C1960 H1952 0.950 . S
C1960 C1961 1.386 . S
C1960 C1962 1.391 . S
C1961 C1960 1.386 . S
C1961 C1965 1.393 . S
C1962 H1954 0.950 . S
C1962 C1960 1.391 . S
C1962 C1963 1.400 . S
C1963 C1962 1.400 . S
C1963 C1964 1.398 . S
C1963 C1969 1.491 . S
C1964 H1955 0.950 . S
C1964 C1963 1.398 . S
C1964 C1965 1.391 . S
C1965 H1953 0.950 . S
C1965 C1961 1.393 . S
C1965 C1964 1.391 . S
C1966 H1956 0.950 . S
C1966 C1967 1.386 . S
C1966 C1968 1.391 . S
C1967 C1966 1.386 . S
C1967 C1971 1.393 . S
C1968 H1957 0.950 . S
C1968 C1966 1.391 . S
C1968 C1969 1.400 . S
C1969 C1963 1.491 . S
C1969 C1968 1.400 . S
C1969 C1970 1.398 . S
C1970 H1958 0.950 . S
C1970 C1969 1.398 . S
C1970 C1971 1.391 . S
C1971 H1959 0.950 . S
C1971 C1967 1.393 . S
C1971 C1970 1.391 . S
H1972 C1980 0.950 . S
H1973 C1985 0.950 . S
H1974 C1982 0.950 . S
H1975 C1984 0.950 . S
H1976 C1986 0.950 . S
H1977 C1988 0.950 . S
H1978 C1990 0.950 . S
H1979 C1991 0.950 . S
C1980 H1972 0.950 . S
C1980 C1981 1.386 . S
C1980 C1982 1.391 . S
C1981 C1980 1.386 . S
C1981 C1985 1.393 . S
C1982 H1974 0.950 . S
C1982 C1980 1.391 . S
C1982 C1983 1.400 . S
C1983 C1982 1.400 . S
C1983 C1984 1.398 . S
C1983 C1989 1.491 . S
C1984 H1975 0.950 . S
C1984 C1983 1.398 . S
C1984 C1985 1.391 . S
C1985 H1973 0.950 . S
C1985 C1981 1.393 . S
C1985 C1984 1.391 . S
C1986 H1976 0.950 . S
C1986 C1987 1.386 . S
C1986 C1988 1.391 . S
C1987 C1986 1.386 . S
C1987 C1991 1.393 . S
C1988 H1977 0.950 . S
C1988 C1986 1.391 . S
C1988 C1989 1.400 . S
C1989 C1983 1.491 . S
C1989 C1988 1.400 . S
C1989 C1990 1.398 . S
C1990 H1978 0.950 . S
C1990 C1989 1.398 . S
C1990 C1991 1.391 . S
C1991 H1979 0.950 . S
C1991 C1987 1.393 . S
C1991 C1990 1.391 . S
H1992 C2000 0.950 . S
H1993 C2005 0.950 . S
H1994 C2002 0.950 . S
H1995 C2004 0.950 . S
H1996 C2006 0.950 . S
H1997 C2008 0.950 . S
H1998 C2010 0.950 . S
H1999 C2011 0.950 . S
C2000 H1992 0.950 . S
C2000 C2001 1.386 . S
C2000 C2002 1.391 . S
C2001 C2000 1.386 . S
C2001 C2005 1.393 . S
C2002 H1994 0.950 . S
C2002 C2000 1.391 . S
C2002 C2003 1.400 . S
C2003 C2002 1.400 . S
C2003 C2004 1.398 . S
C2003 C2009 1.491 . S
C2004 H1995 0.950 . S
C2004 C2003 1.398 . S
C2004 C2005 1.391 . S
C2005 H1993 0.950 . S
C2005 C2001 1.393 . S
C2005 C2004 1.391 . S
C2006 H1996 0.950 . S
C2006 C2007 1.386 . S
C2006 C2008 1.391 . S
C2007 C2006 1.386 . S
C2007 C2011 1.393 . S
C2008 H1997 0.950 . S
C2008 C2006 1.391 . S
C2008 C2009 1.400 . S
C2009 C2003 1.491 . S
C2009 C2008 1.400 . S
C2009 C2010 1.398 . S
C2010 H1998 0.950 . S
C2010 C2009 1.398 . S
C2010 C2011 1.391 . S
C2011 H1999 0.950 . S
C2011 C2007 1.393 . S
C2011 C2010 1.391 . S
H2012 C2020 0.950 . S
H2013 C2025 0.950 . S
H2014 C2022 0.950 . S
H2015 C2024 0.950 . S
H2016 C2026 0.950 . S
H2017 C2028 0.950 . S
H2018 C2030 0.950 . S
H2019 C2031 0.950 . S
C2020 H2012 0.950 . S
C2020 C2021 1.386 . S
C2020 C2022 1.391 . S
C2021 C2020 1.386 . S
C2021 C2025 1.393 . S
C2022 H2014 0.950 . S
C2022 C2020 1.391 . S
C2022 C2023 1.400 . S
C2023 C2022 1.400 . S
C2023 C2024 1.398 . S
C2023 C2029 1.491 . S
C2024 H2015 0.950 . S
C2024 C2023 1.398 . S
C2024 C2025 1.391 . S
C2025 H2013 0.950 . S
C2025 C2021 1.393 . S
C2025 C2024 1.391 . S
C2026 H2016 0.950 . S
C2026 C2027 1.386 . S
C2026 C2028 1.391 . S
C2027 C2026 1.386 . S
C2027 C2031 1.393 . S
C2028 H2017 0.950 . S
C2028 C2026 1.391 . S
C2028 C2029 1.400 . S
C2029 C2023 1.491 . S
C2029 C2028 1.400 . S
C2029 C2030 1.398 . S
C2030 H2018 0.950 . S
C2030 C2029 1.398 . S
C2030 C2031 1.391 . S
C2031 H2019 0.950 . S
C2031 C2027 1.393 . S
C2031 C2030 1.391 . S
H2032 C2040 0.950 . S
H2033 C2045 0.950 . S
H2034 C2042 0.950 . S
H2035 C2044 0.950 . S
H2036 C2046 0.950 . S
H2037 C2048 0.950 . S
H2038 C2050 0.950 . S
H2039 C2051 0.950 . S
C2040 H2032 0.950 . S
C2040 C2041 1.386 . S
C2040 C2042 1.391 . S
C2041 C2040 1.386 . S
C2041 C2045 1.393 . S
C2042 H2034 0.950 . S
C2042 C2040 1.391 . S
C2042 C2043 1.400 . S
C2043 C2042 1.400 . S
C2043 C2044 1.398 . S
C2043 C2049 1.491 . S
C2044 H2035 0.950 . S
C2044 C2043 1.398 . S
C2044 C2045 1.391 . S
C2045 H2033 0.950 . S
C2045 C2041 1.393 . S
C2045 C2044 1.391 . S
C2046 H2036 0.950 . S
C2046 C2047 1.386 . S
C2046 C2048 1.391 . S
C2047 C2046 1.386 . S
C2047 C2051 1.393 . S
C2048 H2037 0.950 . S
C2048 C2046 1.391 . S
C2048 C2049 1.400 . S
C2049 C2043 1.491 . S
C2049 C2048 1.400 . S
C2049 C2050 1.398 . S
C2050 H2038 0.950 . S
C2050 C2049 1.398 . S
C2050 C2051 1.391 . S
C2051 H2039 0.950 . S
C2051 C2047 1.393 . S
C2051 C2050 1.391 . S
H2052 C2060 0.950 . S
H2053 C2065 0.950 . S
H2054 C2062 0.950 . S
H2055 C2064 0.950 . S
H2056 C2066 0.950 . S
H2057 C2068 0.950 . S
H2058 C2070 0.950 . S
H2059 C2071 0.950 . S
C2060 H2052 0.950 . S
C2060 C2061 1.386 . S
C2060 C2062 1.391 . S
C2061 C2060 1.386 . S
C2061 C2065 1.393 . S
C2062 H2054 0.950 . S
C2062 C2060 1.391 . S
C2062 C2063 1.400 . S
C2063 C2062 1.400 . S
C2063 C2064 1.398 . S
C2063 C2069 1.491 . S
C2064 H2055 0.950 . S
C2064 C2063 1.398 . S
C2064 C2065 1.391 . S
C2065 H2053 0.950 . S
C2065 C2061 1.393 . S
C2065 C2064 1.391 . S
C2066 H2056 0.950 . S
C2066 C2067 1.386 . S
C2066 C2068 1.391 . S
C2067 C2066 1.386 . S
C2067 C2071 1.393 . S
C2068 H2057 0.950 . S
C2068 C2066 1.391 . S
C2068 C2069 1.400 . S
C2069 C2063 1.491 . S
C2069 C2068 1.400 . S
C2069 C2070 1.398 . S
C2070 H2058 0.950 . S
C2070 C2069 1.398 . S
C2070 C2071 1.391 . S
C2071 H2059 0.950 . S
C2071 C2067 1.393 . S
C2071 C2070 1.391 . S
H2072 C2080 0.950 . S
H2073 C2085 0.950 . S
H2074 C2082 0.950 . S
H2075 C2084 0.950 . S
H2076 C2086 0.950 . S
H2077 C2088 0.950 . S
H2078 C2090 0.950 . S
H2079 C2091 0.950 . S
C2080 H2072 0.950 . S
C2080 C2081 1.386 . S
C2080 C2082 1.391 . S
C2081 C2080 1.386 . S
C2081 C2085 1.393 . S
C2082 H2074 0.950 . S
C2082 C2080 1.391 . S
C2082 C2083 1.400 . S
C2083 C2082 1.400 . S
C2083 C2084 1.398 . S
C2083 C2089 1.491 . S
C2084 H2075 0.950 . S
C2084 C2083 1.398 . S
C2084 C2085 1.391 . S
C2085 H2073 0.950 . S
C2085 C2081 1.393 . S
C2085 C2084 1.391 . S
C2086 H2076 0.950 . S
C2086 C2087 1.386 . S
C2086 C2088 1.391 . S
C2087 C2086 1.386 . S
C2087 C2091 1.393 . S
C2088 H2077 0.950 . S
C2088 C2086 1.391 . S
C2088 C2089 1.400 . S
C2089 C2083 1.491 . S
C2089 C2088 1.400 . S
C2089 C2090 1.398 . S
C2090 H2078 0.950 . S
C2090 C2089 1.398 . S
C2090 C2091 1.391 . S
C2091 H2079 0.950 . S
C2091 C2087 1.393 . S
C2091 C2090 1.391 . S
H2092 C2100 0.950 . S
H2093 C2105 0.950 1_556 S
H2094 C2102 0.950 . S
H2095 C2104 0.950 1_556 S
H2096 C2106 0.950 1_556 S
H2097 C2108 0.950 1_556 S
H2098 C2110 0.950 . S
H2099 C2111 0.950 . S
C2100 H2092 0.950 . S
C2100 C2101 1.386 . S
C2100 C2102 1.391 . S
C2101 C2100 1.386 . S
C2101 C2105 1.393 . S
C2102 H2094 0.950 . S
C2102 C2100 1.391 . S
C2102 C2103 1.400 . S
C2103 C2102 1.400 . S
C2103 C2104 1.398 . S
C2103 C2109 1.491 . S
C2104 H2095 0.950 1_554 S
C2104 C2103 1.398 . S
C2104 C2105 1.391 . S
C2105 H2093 0.950 1_554 S
C2105 C2101 1.393 . S
C2105 C2104 1.391 . S
C2106 H2096 0.950 1_554 S
C2106 C2107 1.386 . S
C2106 C2108 1.391 . S
C2107 C2106 1.386 . S
C2107 C2111 1.393 . S
C2108 H2097 0.950 1_554 S
C2108 C2106 1.391 . S
C2108 C2109 1.400 . S
C2109 C2103 1.491 . S
C2109 C2108 1.400 . S
C2109 C2110 1.398 . S
C2110 H2098 0.950 . S
C2110 C2109 1.398 . S
C2110 C2111 1.391 . S
C2111 H2099 0.950 . S
C2111 C2107 1.393 . S
C2111 C2110 1.391 . S
H2112 C2120 0.950 1_455 S
H2113 C2125 0.950 . S
H2114 C2122 0.950 . S
H2115 C2124 0.950 . S
H2116 C2126 0.950 . S
H2117 C2128 0.950 . S
H2118 C2130 0.950 . S
H2119 C2131 0.950 . S
C2120 H2112 0.950 1_655 S
C2120 C2121 1.386 . S
C2120 C2122 1.391 . S
C2121 C2120 1.386 . S
C2121 C2125 1.393 . S
C2122 H2114 0.950 . S
C2122 C2120 1.391 . S
C2122 C2123 1.400 . S
C2123 C2122 1.400 . S
C2123 C2124 1.398 . S
C2123 C2129 1.491 . S
C2124 H2115 0.950 . S
C2124 C2123 1.398 . S
C2124 C2125 1.391 . S
C2125 H2113 0.950 . S
C2125 C2121 1.393 . S
C2125 C2124 1.391 . S
C2126 H2116 0.950 . S
C2126 C2127 1.386 . S
C2126 C2128 1.391 . S
C2127 C2126 1.386 . S
C2127 C2131 1.393 . S
C2128 H2117 0.950 . S
C2128 C2126 1.391 . S
C2128 C2129 1.400 . S
C2129 C2123 1.491 . S
C2129 C2128 1.400 . S
C2129 C2130 1.398 . S
C2130 H2118 0.950 . S
C2130 C2129 1.398 . S
C2130 C2131 1.391 . S
C2131 H2119 0.950 . S
C2131 C2127 1.393 . S
C2131 C2130 1.391 . S
H2132 C2140 0.950 . S
H2133 C2145 0.950 . S
H2134 C2142 0.950 . S
H2135 C2144 0.950 . S
H2136 C2146 0.950 . S
H2137 C2148 0.950 . S
H2138 C2150 0.950 . S
H2139 C2151 0.950 . S
C2140 H2132 0.950 . S
C2140 C2141 1.386 . S
C2140 C2142 1.391 . S
C2141 C2140 1.386 . S
C2141 C2145 1.393 . S
C2142 H2134 0.950 . S
C2142 C2140 1.391 . S
C2142 C2143 1.400 . S
C2143 C2142 1.400 . S
C2143 C2144 1.398 . S
C2143 C2149 1.491 . S
C2144 H2135 0.950 . S
C2144 C2143 1.398 . S
C2144 C2145 1.391 . S
C2145 H2133 0.950 . S
C2145 C2141 1.393 . S
C2145 C2144 1.391 . S
C2146 H2136 0.950 . S
C2146 C2147 1.386 . S
C2146 C2148 1.391 . S
C2147 C2146 1.386 . S
C2147 C2151 1.393 . S
C2148 H2137 0.950 . S
C2148 C2146 1.391 . S
C2148 C2149 1.400 . S
C2149 C2143 1.491 . S
C2149 C2148 1.400 . S
C2149 C2150 1.398 . S
C2150 H2138 0.950 . S
C2150 C2149 1.398 . S
C2150 C2151 1.391 . S
C2151 H2139 0.950 . S
C2151 C2147 1.393 . S
C2151 C2150 1.391 . S
H2152 C2160 0.950 . S
H2153 C2165 0.950 . S
H2154 C2162 0.950 . S
H2155 C2164 0.950 . S
H2156 C2166 0.950 . S
H2157 C2168 0.950 . S
H2158 C2170 0.950 . S
H2159 C2171 0.950 . S
C2160 H2152 0.950 . S
C2160 C2161 1.386 . S
C2160 C2162 1.391 . S
C2161 C2160 1.386 . S
C2161 C2165 1.393 . S
C2162 H2154 0.950 . S
C2162 C2160 1.391 . S
C2162 C2163 1.400 . S
C2163 C2162 1.400 . S
C2163 C2164 1.398 . S
C2163 C2169 1.491 . S
C2164 H2155 0.950 . S
C2164 C2163 1.398 . S
C2164 C2165 1.391 . S
C2165 H2153 0.950 . S
C2165 C2161 1.393 . S
C2165 C2164 1.391 . S
C2166 H2156 0.950 . S
C2166 C2167 1.386 . S
C2166 C2168 1.391 . S
C2167 C2166 1.386 . S
C2167 C2171 1.393 . S
C2168 H2157 0.950 . S
C2168 C2166 1.391 . S
C2168 C2169 1.400 . S
C2169 C2163 1.491 . S
C2169 C2168 1.400 . S
C2169 C2170 1.398 . S
C2170 H2158 0.950 . S
C2170 C2169 1.398 . S
C2170 C2171 1.391 . S
C2171 H2159 0.950 . S
C2171 C2167 1.393 . S
C2171 C2170 1.391 . S
H2172 C2180 0.950 . S
H2173 C2185 0.950 . S
H2174 C2182 0.950 . S
H2175 C2184 0.950 . S
H2176 C2186 0.950 . S
H2177 C2188 0.950 . S
H2178 C2190 0.950 . S
H2179 C2191 0.950 . S
C2180 H2172 0.950 . S
C2180 C2181 1.386 . S
C2180 C2182 1.391 . S
C2181 C2180 1.386 . S
C2181 C2185 1.393 . S
C2182 H2174 0.950 . S
C2182 C2180 1.391 . S
C2182 C2183 1.400 . S
C2183 C2182 1.400 . S
C2183 C2184 1.398 . S
C2183 C2189 1.491 . S
C2184 H2175 0.950 . S
C2184 C2183 1.398 . S
C2184 C2185 1.391 . S
C2185 H2173 0.950 . S
C2185 C2181 1.393 . S
C2185 C2184 1.391 . S
C2186 H2176 0.950 . S
C2186 C2187 1.386 . S
C2186 C2188 1.391 . S
C2187 C2186 1.386 . S
C2187 C2191 1.393 . S
C2188 H2177 0.950 . S
C2188 C2186 1.391 . S
C2188 C2189 1.400 . S
C2189 C2183 1.491 . S
C2189 C2188 1.400 . S
C2189 C2190 1.398 . S
C2190 H2178 0.950 . S
C2190 C2189 1.398 . S
C2190 C2191 1.391 . S
C2191 H2179 0.950 . S
C2191 C2187 1.393 . S
C2191 C2190 1.391 . S
H2192 C2200 0.950 . S
H2193 C2205 0.950 . S
H2194 C2202 0.950 . S
H2195 C2204 0.950 . S
H2196 C2206 0.950 . S
H2197 C2208 0.950 . S
H2198 C2210 0.950 . S
H2199 C2211 0.950 . S
C2200 H2192 0.950 . S
C2200 C2201 1.386 . S
C2200 C2202 1.391 . S
C2201 C2200 1.386 . S
C2201 C2205 1.393 . S
C2202 H2194 0.950 . S
C2202 C2200 1.391 . S
C2202 C2203 1.400 . S
C2203 C2202 1.400 . S
C2203 C2204 1.398 . S
C2203 C2209 1.491 . S
C2204 H2195 0.950 . S
C2204 C2203 1.398 . S
C2204 C2205 1.391 . S
C2205 H2193 0.950 . S
C2205 C2201 1.393 . S
C2205 C2204 1.391 . S
C2206 H2196 0.950 . S
C2206 C2207 1.386 . S
C2206 C2208 1.391 . S
C2207 C2206 1.386 . S
C2207 C2211 1.393 . S
C2208 H2197 0.950 . S
C2208 C2206 1.391 . S
C2208 C2209 1.400 . S
C2209 C2203 1.491 . S
C2209 C2208 1.400 . S
C2209 C2210 1.398 . S
C2210 H2198 0.950 . S
C2210 C2209 1.398 . S
C2210 C2211 1.391 . S
C2211 H2199 0.950 . S
C2211 C2207 1.393 . S
C2211 C2210 1.391 . S
H2212 C2220 0.950 . S
H2213 C2225 0.950 . S
H2214 C2222 0.950 . S
H2215 C2224 0.950 . S
H2216 C2226 0.950 . S
H2217 C2228 0.950 . S
H2218 C2230 0.950 . S
H2219 C2231 0.950 . S
C2220 H2212 0.950 . S
C2220 C2221 1.386 . S
C2220 C2222 1.391 . S
C2221 C2220 1.386 . S
C2221 C2225 1.393 . S
C2222 H2214 0.950 . S
C2222 C2220 1.391 . S
C2222 C2223 1.400 . S
C2223 C2222 1.400 . S
C2223 C2224 1.398 . S
C2223 C2229 1.491 . S
C2224 H2215 0.950 . S
C2224 C2223 1.398 . S
C2224 C2225 1.391 . S
C2225 H2213 0.950 . S
C2225 C2221 1.393 . S
C2225 C2224 1.391 . S
C2226 H2216 0.950 . S
C2226 C2227 1.386 . S
C2226 C2228 1.391 . S
C2227 C2226 1.386 . S
C2227 C2231 1.393 . S
C2228 H2217 0.950 . S
C2228 C2226 1.391 . S
C2228 C2229 1.400 . S
C2229 C2223 1.491 . S
C2229 C2228 1.400 . S
C2229 C2230 1.398 . S
C2230 H2218 0.950 . S
C2230 C2229 1.398 . S
C2230 C2231 1.391 . S
C2231 H2219 0.950 . S
C2231 C2227 1.393 . S
C2231 C2230 1.391 . S
H2232 C2240 0.950 . S
H2233 C2245 0.950 . S
H2234 C2242 0.950 . S
H2235 C2244 0.950 . S
H2236 C2246 0.950 1_655 S
H2237 C2248 0.950 . S
H2238 C2250 0.950 . S
H2239 C2251 0.950 . S
C2240 H2232 0.950 . S
C2240 C2241 1.386 . S
C2240 C2242 1.391 . S
C2241 C2240 1.386 . S
C2241 C2245 1.393 . S
C2242 H2234 0.950 . S
C2242 C2240 1.391 . S
C2242 C2243 1.400 . S
C2243 C2242 1.400 . S
C2243 C2244 1.398 . S
C2243 C2249 1.491 . S
C2244 H2235 0.950 . S
C2244 C2243 1.398 . S
C2244 C2245 1.391 . S
C2245 H2233 0.950 . S
C2245 C2241 1.393 . S
C2245 C2244 1.391 . S
C2246 H2236 0.950 1_455 S
C2246 C2247 1.386 . S
C2246 C2248 1.391 . S
C2247 C2246 1.386 . S
C2247 C2251 1.393 . S
C2248 H2237 0.950 . S
C2248 C2246 1.391 . S
C2248 C2249 1.400 . S
C2249 C2243 1.491 . S
C2249 C2248 1.400 . S
C2249 C2250 1.398 . S
C2250 H2238 0.950 . S
C2250 C2249 1.398 . S
C2250 C2251 1.391 . S
C2251 H2239 0.950 . S
C2251 C2247 1.393 . S
C2251 C2250 1.391 . S
H2252 C2260 0.950 . S
H2253 C2265 0.950 . S
H2254 C2262 0.950 . S
H2255 C2264 0.950 . S
H2256 C2266 0.950 . S
H2257 C2268 0.950 . S
H2258 C2270 0.950 . S
H2259 C2271 0.950 . S
C2260 H2252 0.950 . S
C2260 C2261 1.386 . S
C2260 C2262 1.391 . S
C2261 C2260 1.386 . S
C2261 C2265 1.393 . S
C2262 H2254 0.950 . S
C2262 C2260 1.391 . S
C2262 C2263 1.400 . S
C2263 C2262 1.400 . S
C2263 C2264 1.398 . S
C2263 C2269 1.491 . S
C2264 H2255 0.950 . S
C2264 C2263 1.398 . S
C2264 C2265 1.391 . S
C2265 H2253 0.950 . S
C2265 C2261 1.393 . S
C2265 C2264 1.391 . S
C2266 H2256 0.950 . S
C2266 C2267 1.386 . S
C2266 C2268 1.391 . S
C2267 C2266 1.386 . S
C2267 C2271 1.393 . S
C2268 H2257 0.950 . S
C2268 C2266 1.391 . S
C2268 C2269 1.400 . S
C2269 C2263 1.491 . S
C2269 C2268 1.400 . S
C2269 C2270 1.398 . S
C2270 H2258 0.950 . S
C2270 C2269 1.398 . S
C2270 C2271 1.391 . S
C2271 H2259 0.950 . S
C2271 C2267 1.393 . S
C2271 C2270 1.391 . S
H2272 C2280 0.950 . S
H2273 C2285 0.950 . S
H2274 C2282 0.950 . S
H2275 C2284 0.950 . S
H2276 C2286 0.950 . S
H2277 C2288 0.950 . S
H2278 C2290 0.950 . S
H2279 C2291 0.950 . S
C2280 H2272 0.950 . S
C2280 C2281 1.386 . S
C2280 C2282 1.391 . S
C2281 C2280 1.386 . S
C2281 C2285 1.393 . S
C2282 H2274 0.950 . S
C2282 C2280 1.391 . S
C2282 C2283 1.400 . S
C2283 C2282 1.400 . S
C2283 C2284 1.398 . S
C2283 C2289 1.491 . S
C2284 H2275 0.950 . S
C2284 C2283 1.398 . S
C2284 C2285 1.391 . S
C2285 H2273 0.950 . S
C2285 C2281 1.393 . S
C2285 C2284 1.391 . S
C2286 H2276 0.950 . S
C2286 C2287 1.386 . S
C2286 C2288 1.391 . S
C2287 C2286 1.386 . S
C2287 C2291 1.393 . S
C2288 H2277 0.950 . S
C2288 C2286 1.391 . S
C2288 C2289 1.400 . S
C2289 C2283 1.491 . S
C2289 C2288 1.400 . S
C2289 C2290 1.398 . S
C2290 H2278 0.950 . S
C2290 C2289 1.398 . S
C2290 C2291 1.391 . S
C2291 H2279 0.950 . S
C2291 C2287 1.393 . S
C2291 C2290 1.391 . S
H2292 C2300 0.950 . S
H2293 C2305 0.950 . S
H2294 C2302 0.950 . S
H2295 C2304 0.950 . S
H2296 C2306 0.950 . S
H2297 C2308 0.950 . S
H2298 C2310 0.950 . S
H2299 C2311 0.950 . S
C2300 H2292 0.950 . S
C2300 C2301 1.386 . S
C2300 C2302 1.391 . S
C2301 C2300 1.386 . S
C2301 C2305 1.393 . S
C2302 H2294 0.950 . S
C2302 C2300 1.391 . S
C2302 C2303 1.400 . S
C2303 C2302 1.400 . S
C2303 C2304 1.398 . S
C2303 C2309 1.491 . S
C2304 H2295 0.950 . S
C2304 C2303 1.398 . S
C2304 C2305 1.391 . S
C2305 H2293 0.950 . S
C2305 C2301 1.393 . S
C2305 C2304 1.391 . S
C2306 H2296 0.950 . S
C2306 C2307 1.386 . S
C2306 C2308 1.391 . S
C2307 C2306 1.386 . S
C2307 C2311 1.393 . S
C2308 H2297 0.950 . S
C2308 C2306 1.391 . S
C2308 C2309 1.400 . S
C2309 C2303 1.491 . S
C2309 C2308 1.400 . S
C2309 C2310 1.398 . S
C2310 H2298 0.950 . S
C2310 C2309 1.398 . S
C2310 C2311 1.391 . S
C2311 H2299 0.950 . S
C2311 C2307 1.393 . S
C2311 C2310 1.391 . S
H2312 C2320 0.950 . S
H2313 C2325 0.950 1_455 S
H2314 C2322 0.950 . S
H2315 C2324 0.950 . S
H2316 C2326 0.950 . S
H2317 C2328 0.950 . S
H2318 C2330 0.950 . S
H2319 C2331 0.950 . S
C2320 H2312 0.950 . S
C2320 C2321 1.386 . S
C2320 C2322 1.391 . S
C2321 C2320 1.386 . S
C2321 C2325 1.393 . S
C2322 H2314 0.950 . S
C2322 C2320 1.391 . S
C2322 C2323 1.400 . S
C2323 C2322 1.400 . S
C2323 C2324 1.398 . S
C2323 C2329 1.491 . S
C2324 H2315 0.950 . S
C2324 C2323 1.398 . S
C2324 C2325 1.391 . S
C2325 H2313 0.950 1_655 S
C2325 C2321 1.393 . S
C2325 C2324 1.391 . S
C2326 H2316 0.950 . S
C2326 C2327 1.386 . S
C2326 C2328 1.391 . S
C2327 C2326 1.386 . S
C2327 C2331 1.393 . S
C2328 H2317 0.950 . S
C2328 C2326 1.391 . S
C2328 C2329 1.400 . S
C2329 C2323 1.491 . S
C2329 C2328 1.400 . S
C2329 C2330 1.398 . S
C2330 H2318 0.950 . S
C2330 C2329 1.398 . S
C2330 C2331 1.391 . S
C2331 H2319 0.950 . S
C2331 C2327 1.393 . S
C2331 C2330 1.391 . S
H2332 C2340 0.950 . S
H2333 C2345 0.950 . S
H2334 C2342 0.950 . S
H2335 C2344 0.950 . S
H2336 C2346 0.950 . S
H2337 C2348 0.950 . S
H2338 C2350 0.950 . S
H2339 C2351 0.950 . S
C2340 H2332 0.950 . S
C2340 C2341 1.386 . S
C2340 C2342 1.391 . S
C2341 C2340 1.386 . S
C2341 C2345 1.393 . S
C2342 H2334 0.950 . S
C2342 C2340 1.391 . S
C2342 C2343 1.400 . S
C2343 C2342 1.400 . S
C2343 C2344 1.398 . S
C2343 C2349 1.491 . S
C2344 H2335 0.950 . S
C2344 C2343 1.398 . S
C2344 C2345 1.391 . S
C2345 H2333 0.950 . S
C2345 C2341 1.393 . S
C2345 C2344 1.391 . S
C2346 H2336 0.950 . S
C2346 C2347 1.386 . S
C2346 C2348 1.391 . S
C2347 C2346 1.386 . S
C2347 C2351 1.393 . S
C2348 H2337 0.950 . S
C2348 C2346 1.391 . S
C2348 C2349 1.400 . S
C2349 C2343 1.491 . S
C2349 C2348 1.400 . S
C2349 C2350 1.398 . S
C2350 H2338 0.950 . S
C2350 C2349 1.398 . S
C2350 C2351 1.391 . S
C2351 H2339 0.950 . S
C2351 C2347 1.393 . S
C2351 C2350 1.391 . S
H2352 C2360 0.950 1_655 S
H2353 C2365 0.950 . S
H2354 C2362 0.950 . S
H2355 C2364 0.950 . S
H2356 C2366 0.950 . S
H2357 C2368 0.950 . S
H2358 C2370 0.950 . S
H2359 C2371 0.950 . S
C2360 H2352 0.950 1_455 S
C2360 C2361 1.386 . S
C2360 C2362 1.391 . S
C2361 C2360 1.386 . S
C2361 C2365 1.393 . S
C2362 H2354 0.950 . S
C2362 C2360 1.391 . S
C2362 C2363 1.400 . S
C2363 C2362 1.400 . S
C2363 C2364 1.398 . S
C2363 C2369 1.491 . S
C2364 H2355 0.950 . S
C2364 C2363 1.398 . S
C2364 C2365 1.391 . S
C2365 H2353 0.950 . S
C2365 C2361 1.393 . S
C2365 C2364 1.391 . S
C2366 H2356 0.950 . S
C2366 C2367 1.386 . S
C2366 C2368 1.391 . S
C2367 C2366 1.386 . S
C2367 C2371 1.393 . S
C2368 H2357 0.950 . S
C2368 C2366 1.391 . S
C2368 C2369 1.400 . S
C2369 C2363 1.491 . S
C2369 C2368 1.400 . S
C2369 C2370 1.398 . S
C2370 H2358 0.950 . S
C2370 C2369 1.398 . S
C2370 C2371 1.391 . S
C2371 H2359 0.950 . S
C2371 C2367 1.393 . S
C2371 C2370 1.391 . S
H2372 C2380 0.950 . S
H2373 C2385 0.950 . S
H2374 C2382 0.950 . S
H2375 C2384 0.950 . S
H2376 C2386 0.950 . S
H2377 C2388 0.950 . S
H2378 C2390 0.950 . S
H2379 C2391 0.950 . S
C2380 H2372 0.950 . S
C2380 C2381 1.386 . S
C2380 C2382 1.391 . S
C2381 C2380 1.386 . S
C2381 C2385 1.393 . S
C2382 H2374 0.950 . S
C2382 C2380 1.391 . S
C2382 C2383 1.400 . S
C2383 C2382 1.400 . S
C2383 C2384 1.398 . S
C2383 C2389 1.491 . S
C2384 H2375 0.950 . S
C2384 C2383 1.398 . S
C2384 C2385 1.391 . S
C2385 H2373 0.950 . S
C2385 C2381 1.393 . S
C2385 C2384 1.391 . S
C2386 H2376 0.950 . S
C2386 C2387 1.386 . S
C2386 C2388 1.391 . S
C2387 C2386 1.386 . S
C2387 C2391 1.393 . S
C2388 H2377 0.950 . S
C2388 C2386 1.391 . S
C2388 C2389 1.400 . S
C2389 C2383 1.491 . S
C2389 C2388 1.400 . S
C2389 C2390 1.398 . S
C2390 H2378 0.950 . S
C2390 C2389 1.398 . S
C2390 C2391 1.391 . S
C2391 H2379 0.950 . S
C2391 C2387 1.393 . S
C2391 C2390 1.391 . S
H2392 C2400 0.950 1_655 S
H2393 C2405 0.950 . S
H2394 C2402 0.950 . S
H2395 C2404 0.950 . S
H2396 C2406 0.950 . S
H2397 C2408 0.950 . S
H2398 C2410 0.950 . S
H2399 C2411 0.950 . S
C2400 H2392 0.950 1_455 S
C2400 C2401 1.386 . S
C2400 C2402 1.391 . S
C2401 C2400 1.386 . S
C2401 C2405 1.393 . S
C2402 H2394 0.950 . S
C2402 C2400 1.391 . S
C2402 C2403 1.400 . S
C2403 C2402 1.400 . S
C2403 C2404 1.398 . S
C2403 C2409 1.491 . S
C2404 H2395 0.950 . S
C2404 C2403 1.398 . S
C2404 C2405 1.391 . S
C2405 H2393 0.950 . S
C2405 C2401 1.393 . S
C2405 C2404 1.391 . S
C2406 H2396 0.950 . S
C2406 C2407 1.386 . S
C2406 C2408 1.391 . S
C2407 C2406 1.386 . S
C2407 C2411 1.393 . S
C2408 H2397 0.950 . S
C2408 C2406 1.391 . S
C2408 C2409 1.400 . S
C2409 C2403 1.491 . S
C2409 C2408 1.400 . S
C2409 C2410 1.398 . S
C2410 H2398 0.950 . S
C2410 C2409 1.398 . S
C2410 C2411 1.391 . S
C2411 H2399 0.950 . S
C2411 C2407 1.393 . S
C2411 C2410 1.391 . S
H2412 C2420 0.950 . S
H2413 C2425 0.950 . S
H2414 C2422 0.950 . S
H2415 C2424 0.950 . S
H2416 C2426 0.950 . S
H2417 C2428 0.950 . S
H2418 C2430 0.950 . S
H2419 C2431 0.950 . S
C2420 H2412 0.950 . S
C2420 C2421 1.386 . S
C2420 C2422 1.391 . S
C2421 C2420 1.386 . S
C2421 C2425 1.393 . S
C2422 H2414 0.950 . S
C2422 C2420 1.391 . S
C2422 C2423 1.400 . S
C2423 C2422 1.400 . S
C2423 C2424 1.398 . S
C2423 C2429 1.491 . S
C2424 H2415 0.950 . S
C2424 C2423 1.398 . S
C2424 C2425 1.391 . S
C2425 H2413 0.950 . S
C2425 C2421 1.393 . S
C2425 C2424 1.391 . S
C2426 H2416 0.950 . S
C2426 C2427 1.386 . S
C2426 C2428 1.391 . S
C2427 C2426 1.386 . S
C2427 C2431 1.393 . S
C2428 H2417 0.950 . S
C2428 C2426 1.391 . S
C2428 C2429 1.400 . S
C2429 C2423 1.491 . S
C2429 C2428 1.400 . S
C2429 C2430 1.398 . S
C2430 H2418 0.950 . S
C2430 C2429 1.398 . S
C2430 C2431 1.391 . S
C2431 H2419 0.950 . S
C2431 C2427 1.393 . S
C2431 C2430 1.391 . S
C1161 C110 1.134 . S
C1167 C2 1.136 . S
C1181 C74 1.147 . S
C1187 C38 1.153 . S
C1201 C255 0.810 . S
C1207 C147 0.801 . S
C1221 C219 0.823 . S
C1227 C183 0.814 . S
C1241 C290 1.171 . S
C1247 C398 1.167 . S
C1261 C326 1.165 . S
C1267 C362 1.160 . S
C1281 C543 0.807 . S
C1287 C435 0.799 . S
C1301 C471 0.826 . S
C1307 C507 0.820 . S
C1321 C578 1.148 . S
C1327 C686 1.155 . S
C1341 C614 1.138 . S
C1347 C650 1.135 . S
C1361 C831 0.798 . S
C1367 C723 0.795 . S
C1381 C795 0.819 . S
C1387 C759 0.825 . S
C1401 C974 1.145 . S
C1407 C866 1.140 . S
C1421 C902 1.173 . S
C1427 C938 1.174 . S
C1441 C1011 0.823 . S
C1447 C1119 0.815 . S
C1461 C1047 0.806 . S
C1467 C1083 0.815 . S
C1481 C722 1.231 . S
C1487 C3 1.269 . S
C1501 C470 1.227 . S
C1507 C39 1.269 . S
C1521 C75 1.264 . S
C1527 C1082 1.223 . S
C1541 C111 1.257 . S
C1547 C254 1.211 . S
C1561 C579 1.270 . S
C1567 C146 1.230 . S
C1581 C327 1.268 . S
C1587 C182 1.229 . S
C1601 C939 1.255 . S
C1607 C218 1.207 . S
C1621 C291 1.257 . S
C1627 C1010 1.203 . S
C1641 C794 1.205 . S
C1647 C363 1.254 . S
C1661 C542 1.199 . S
C1667 C399 1.251 . S
C1681 C867 1.271 . S
C1687 C434 1.232 . S
C1701 C506 1.196 . S
C1707 C651 1.251 . S
C1721 C1046 1.194 . S
C1727 C615 1.251 . S
C1741 C687 1.270 . S
C1747 C830 1.227 . S
C1761 C903 1.264 . S
C1767 C758 1.224 . S
C1781 C1118 1.197 . S
C1787 C975 1.253 . S
C1801 C40 1.331 . S
C1807 C4 1.324 . S
C1821 C76 1.329 . S
C1827 C112 1.323 . S
C1841 C158 1.278 . S
C1847 C194 1.260 . S
C1861 C266 1.253 . S
C1867 C230 1.270 . S
C1881 C292 1.348 . S
C1887 C328 1.350 . S
C1901 C364 1.335 . S
C1907 C400 1.347 . S
C1921 C482 1.273 . S
C1927 C446 1.254 . S
C1941 C518 1.272 . S
C1947 C554 1.275 . S
C1961 C580 1.334 . S
C1967 C616 1.346 . S
C1981 C652 1.324 . S
C1987 C688 1.326 . S
C2001 C734 1.255 . S
C2007 C770 1.260 . S
C2021 C842 1.270 . S
C2027 C806 1.253 . S
C2041 C904 1.335 . S
C2047 C868 1.347 . S
C2061 C940 1.347 . S
C2067 C976 1.336 . S
C2081 C1022 1.252 . S
C2087 C1058 1.265 . S
C2101 C1130 1.253 . S
C2107 C1094 1.265 . S
C2121 C14 1.680 . S
C2127 C698 1.695 . S
C2141 C50 1.677 . S
C2147 C662 1.698 . S
C2161 C626 1.690 . S
C2167 C86 1.684 . S
C2181 C122 1.677 . S
C2187 C590 1.699 . S
C2201 C832 1.275 . S
C2207 C148 1.277 1_455 S
C2221 C184 1.275 . S
C2227 C796 1.272 . S
C2241 C760 1.262 . S
C2247 C220 1.258 1_455 S
C2261 C256 1.275 . S
C2267 C724 1.272 . S
C2281 C302 1.686 . S
C2287 C986 1.690 . S
C2301 C338 1.682 . S
C2307 C950 1.694 . S
C2321 C374 1.694 . S
C2327 C914 1.681 . S
C2341 C878 1.681 . S
C2347 C410 1.695 . S
C2361 C436 1.276 1_455 S
C2367 C1120 1.275 . S
C2381 C472 1.269 . S
C2387 C1084 1.272 . S
C2401 C508 1.271 1_455 S
C2407 C1048 1.267 . S
C2421 C1012 1.258 . S
C2427 C544 1.256 . S
