# Generated by pormake.
# Topology ukh, (4)-cn, num edge types: 1
# Building blocks:
#     Node 0, Type 0, BuildingBlock: UXUYUI_clean_sbu_0, # of connection points: 4
#     Node 1, Type 0, BuildingBlock: UXUYUI_clean_sbu_0, # of connection points: 4
#     Node 2, Type 0, BuildingBlock: UXUYUI_clean_sbu_0, # of connection points: 4
#     Node 3, Type 0, BuildingBlock: UXUYUI_clean_sbu_0, # of connection points: 4
#     Node 4, Type 0, BuildingBlock: UXUYUI_clean_sbu_0, # of connection points: 4
#     Node 5, Type 0, BuildingBlock: UXUYUI_clean_sbu_0, # of connection points: 4
#     Node 6, Type 0, BuildingBlock: UXUYUI_clean_sbu_0, # of connection points: 4
#     Node 7, Type 0, BuildingBlock: UXUYUI_clean_sbu_0, # of connection points: 4
#     Node 8, Type 0, BuildingBlock: UXUYUI_clean_sbu_0, # of connection points: 4
#     Node 9, Type 0, BuildingBlock: UXUYUI_clean_sbu_0, # of connection points: 4
#     Node 10, Type 0, BuildingBlock: UXUYUI_clean_sbu_0, # of connection points: 4
#     Node 11, Type 0, BuildingBlock: UXUYUI_clean_sbu_0, # of connection points: 4
#     Edge 12, Type (0, 0), BuildingBlock: CIFDUS_clean_linker_0, # of connection points: 2
#     Edge 13, Type (0, 0), BuildingBlock: CIFDUS_clean_linker_0, # of connection points: 2
#     Edge 14, Type (0, 0), BuildingBlock: CIFDUS_clean_linker_0, # of connection points: 2
#     Edge 15, Type (0, 0), BuildingBlock: CIFDUS_clean_linker_0, # of connection points: 2
#     Edge 16, Type (0, 0), BuildingBlock: CIFDUS_clean_linker_0, # of connection points: 2
#     Edge 17, Type (0, 0), BuildingBlock: CIFDUS_clean_linker_0, # of connection points: 2
#     Edge 18, Type (0, 0), BuildingBlock: CIFDUS_clean_linker_0, # of connection points: 2
#     Edge 19, Type (0, 0), BuildingBlock: CIFDUS_clean_linker_0, # of connection points: 2
#     Edge 20, Type (0, 0), BuildingBlock: CIFDUS_clean_linker_0, # of connection points: 2
#     Edge 21, Type (0, 0), BuildingBlock: CIFDUS_clean_linker_0, # of connection points: 2
#     Edge 22, Type (0, 0), BuildingBlock: CIFDUS_clean_linker_0, # of connection points: 2
#     Edge 23, Type (0, 0), BuildingBlock: CIFDUS_clean_linker_0, # of connection points: 2
#     Edge 24, Type (0, 0), BuildingBlock: CIFDUS_clean_linker_0, # of connection points: 2
#     Edge 25, Type (0, 0), BuildingBlock: CIFDUS_clean_linker_0, # of connection points: 2
#     Edge 26, Type (0, 0), BuildingBlock: CIFDUS_clean_linker_0, # of connection points: 2
#     Edge 27, Type (0, 0), BuildingBlock: CIFDUS_clean_linker_0, # of connection points: 2
#     Edge 28, Type (0, 0), BuildingBlock: CIFDUS_clean_linker_0, # of connection points: 2
#     Edge 29, Type (0, 0), BuildingBlock: CIFDUS_clean_linker_0, # of connection points: 2
#     Edge 30, Type (0, 0), BuildingBlock: CIFDUS_clean_linker_0, # of connection points: 2
#     Edge 31, Type (0, 0), BuildingBlock: CIFDUS_clean_linker_0, # of connection points: 2
#     Edge 32, Type (0, 0), BuildingBlock: CIFDUS_clean_linker_0, # of connection points: 2
#     Edge 33, Type (0, 0), BuildingBlock: CIFDUS_clean_linker_0, # of connection points: 2
#     Edge 34, Type (0, 0), BuildingBlock: CIFDUS_clean_linker_0, # of connection points: 2
#     Edge 35, Type (0, 0), BuildingBlock: CIFDUS_clean_linker_0, # of connection points: 2
# Relax obj value: 0.278
# Max RMSD: 0.251
# Mean RMSD: 0.251
data_MOF--net-ukh--node1-UXUYUI_clean_sbu_0--edge1-CIFDUS_clean_linker_0
_symmetry_space_group_name_H-M    P1
_symmetry_Int_Tables_number       1
_symmetry_cell_setting            triclinic
loop_
_symmetry_equiv_pos_as_xyz
'x, y, z'
_cell_length_a     42.197782
_cell_length_b     42.185151
_cell_length_c     82.01411
_cell_angle_alpha  89.99871
_cell_angle_beta   89.998545
_cell_angle_gamma 119.98458
loop_
_atom_site_label
_atom_site_type_symbol
_atom_site_fract_x
_atom_site_fract_y
_atom_site_fract_z
_atom_type_partial_charge
Li0 Li 0.36718 0.26496 0.04351 0.0
Li1 Li 0.33469 0.21872 0.06526 0.0
Li2 Li 0.34853 0.20211 0.03941 0.0
Li3 Li 0.30148 0.22086 0.04042 0.0
C4 C 0.40786 0.22286 0.05537 0.0
N5 N 0.45384 0.19405 0.05329 0.0
C6 C 0.40149 0.19295 0.06503 0.0
C7 C 0.4378 0.23838 0.04479 0.0
C8 C 0.425 0.17871 0.06377 0.0
C9 C 0.46069 0.22335 0.04388 0.0
C10 C 0.32208 0.28055 0.06805 0.0
C11 C 0.28442 0.29791 0.08345 0.0
N12 N 0.31508 0.3269 0.0897 0.0
C13 C 0.35321 0.31065 0.07455 0.0
C14 C 0.28739 0.27424 0.07245 0.0
C15 C 0.34909 0.3337 0.0855 0.0
C16 C 0.38255 0.33306 0.03279 0.0
N17 N 0.39905 0.31572 0.03963 0.0
C18 C 0.45406 0.37283 0.04371 0.0
C19 C 0.43426 0.33459 0.04492 0.0
C20 C 0.43739 0.39161 0.03695 0.0
C21 C 0.40141 0.37096 0.03108 0.0
H22 H 0.3542 0.31743 0.0291 0.0
H23 H 0.44639 0.32014 0.0507 0.0
C24 C 0.31594 0.17258 0.0927 0.0
N25 N 0.33096 0.20818 0.08806 0.0
C26 C 0.31366 0.16342 0.10918 0.0
C27 C 0.34307 0.22776 0.11584 0.0
C28 C 0.34481 0.23566 0.09922 0.0
C29 C 0.32733 0.19121 0.12101 0.0
H30 H 0.30608 0.15124 0.08359 0.0
H31 H 0.35789 0.26375 0.09526 0.0
C32 C 0.35622 0.25709 0.01129 0.0
N33 N 0.38762 0.30547 0.98567 0.0
C34 C 0.33536 0.26802 0.00216 0.0
C35 C 0.3929 0.27038 0.00725 0.0
C36 C 0.35177 0.2926 0.98929 0.0
C37 C 0.40832 0.29494 0.9943 0.0
C38 C 0.26625 0.15521 0.05702 0.0
C39 C 0.24635 0.11886 0.0518 0.0
C40 C 0.2506 0.1685 0.06814 0.0
C41 C 0.21104 0.09636 0.05782 0.0
C42 C 0.21524 0.14513 0.07389 0.0
N43 N 0.19634 0.10985 0.06865 0.0
C44 C 0.33984 0.13304 0.0378 0.0
C45 C 0.37272 0.16943 0.01512 0.0
C46 C 0.33637 0.10178 0.03037 0.0
N47 N 0.35656 0.16565 0.02987 0.0
C48 C 0.37035 0.13883 0.0073 0.0
C49 C 0.35051 0.10403 0.01461 0.0
H50 H 0.32716 0.13086 0.04952 0.0
H51 H 0.3857 0.19567 0.00904 0.0
C52 C 0.25689 0.2482 0.03094 0.0
N53 N 0.25797 0.21661 0.03182 0.0
C54 C 0.22728 0.24857 0.02364 0.0
C55 C 0.20001 0.18366 0.0185 0.0
C56 C 0.23039 0.1846 0.02583 0.0
C57 C 0.19851 0.21609 0.01716 0.0
H58 H 0.27954 0.27333 0.03559 0.0
H59 H 0.23235 0.16004 0.02639 0.0
O60 O 0.38459 0.23654 0.05613 0.0
O61 O 0.3255 0.25794 0.0571 0.0
O62 O 0.34076 0.23345 0.02409 0.0
O63 O 0.30061 0.17771 0.05099 0.0
H64 H 0.37839 0.18059 0.07326 0.0
H65 H 0.4433 0.26175 0.03735 0.0
H66 H 0.42026 0.15539 0.07108 0.0
H67 H 0.48388 0.23498 0.03569 0.0
H68 H 0.25774 0.29328 0.087 0.0
H69 H 0.38027 0.31587 0.07138 0.0
H70 H 0.26297 0.25139 0.0674 0.0
H71 H 0.37296 0.35696 0.09069 0.0
H72 H 0.48152 0.3875 0.04864 0.0
H73 H 0.38754 0.38392 0.02549 0.0
H74 H 0.3012 0.13488 0.11261 0.0
H75 H 0.35468 0.25008 0.12453 0.0
H76 H 0.30685 0.25774 0.00501 0.0
H77 H 0.40938 0.26211 0.01415 0.0
H78 H 0.336 0.30144 0.98218 0.0
H79 H 0.43676 0.30565 0.99112 0.0
H80 H 0.25798 0.10822 0.0431 0.0
H81 H 0.26567 0.19647 0.07235 0.0
H82 H 0.19529 0.06818 0.05386 0.0
H83 H 0.20282 0.15505 0.08252 0.0
H84 H 0.32036 0.07578 0.0365 0.0
H85 H 0.38234 0.14215 0.9953 0.0
H86 H 0.227 0.27407 0.02299 0.0
H87 H 0.17854 0.15816 0.0135 0.0
Li88 Li 0.0974 0.36246 0.37477 0.0
Li89 Li 0.10872 0.33219 0.39816 0.0
Li90 Li 0.14314 0.34449 0.37258 0.0
Li91 Li 0.0774 0.29699 0.3735 0.0
C92 C 0.17813 0.40681 0.38932 0.0
N93 N 0.25149 0.45868 0.39135 0.0
C94 C 0.19846 0.40801 0.40299 0.0
C95 C 0.19493 0.43227 0.37678 0.0
C96 C 0.23557 0.43437 0.40376 0.0
C97 C 0.2321 0.4582 0.37801 0.0
C98 C 0.0372 0.31593 0.40089 0.0
C99 C 0.99486 0.27638 0.42135 0.0
N100 N 0.98888 0.30389 0.42602 0.0
C101 C 0.03051 0.34377 0.40582 0.0
C102 C 0.01912 0.2819 0.40864 0.0
C103 C 0.00602 0.33716 0.41858 0.0
C104 C 0.0457 0.37827 0.36272 0.0
N105 N 0.07964 0.39458 0.36946 0.0
C106 C 0.0791 0.45065 0.37263 0.0
C107 C 0.0968 0.43021 0.37421 0.0
C108 C 0.04345 0.43411 0.36613 0.0
C109 C 0.0273 0.39771 0.36071 0.0
H110 H 0.03221 0.34956 0.35959 0.0
H111 H 0.12342 0.44219 0.37994 0.0
C112 C 0.13261 0.31335 0.42617 0.0
N113 N 0.11367 0.32979 0.42108 0.0
C114 C 0.13968 0.31224 0.44269 0.0
C115 C 0.10762 0.34502 0.44854 0.0
C116 C 0.1014 0.34575 0.43184 0.0
C117 C 0.12729 0.32835 0.45411 0.0
H118 H 0.14295 0.30176 0.41734 0.0
H119 H 0.08755 0.35977 0.42747 0.0
C120 C 0.09645 0.34771 0.34292 0.0
N121 N 0.0795 0.37473 0.31565 0.0
C122 C 0.0628 0.3268 0.3351 0.0
C123 C 0.1217 0.38209 0.33674 0.0
C124 C 0.05468 0.34102 0.32136 0.0
C125 C 0.11255 0.39535 0.32297 0.0
C126 C 0.11389 0.2645 0.3866 0.0
C127 C 0.13398 0.25414 0.37659 0.0
C128 C 0.08853 0.23933 0.39761 0.0
C129 C 0.12811 0.21856 0.37768 0.0
C130 C 0.08342 0.20399 0.39832 0.0
N131 N 0.10315 0.19442 0.38843 0.0
C132 C 0.21071 0.34981 0.37651 0.0
C133 C 0.19425 0.34866 0.34879 0.0
C134 C 0.23895 0.34344 0.37214 0.0
N135 N 0.1885 0.35129 0.36491 0.0
C136 C 0.22216 0.34201 0.34385 0.0
C137 C 0.24386 0.3377 0.35568 0.0
H138 H 0.20456 0.35042 0.38926 0.0
H139 H 0.17538 0.3487 0.33987 0.0
C140 C 0.00497 0.24436 0.36718 0.0
N141 N 0.03995 0.25163 0.36528 0.0
C142 C 0.97603 0.21288 0.36041 0.0
C143 C 0.01961 0.19672 0.34989 0.0
C144 C 0.04778 0.22877 0.35675 0.0
C145 C 0.98312 0.18855 0.35157 0.0
H146 H 0.99961 0.26359 0.37357 0.0
H147 H 0.0759 0.23575 0.35498 0.0
O148 O 0.14186 0.38105 0.38828 0.0
O149 O 0.06097 0.32183 0.3884 0.0
O150 O 0.10474 0.33443 0.35647 0.0
O151 O 0.1193 0.29924 0.38574 0.0
H152 H 0.18579 0.38863 0.41285 0.0
H153 H 0.17943 0.432 0.36624 0.0
H154 H 0.25171 0.43548 0.41422 0.0
H155 H 0.24552 0.47798 0.36836 0.0
H156 H 0.98073 0.2502 0.42749 0.0
H157 H 0.04427 0.37029 0.39996 0.0
H158 H 0.02368 0.25996 0.40483 0.0
H159 H 0.00068 0.35848 0.42257 0.0
H160 H 0.09247 0.47844 0.3772 0.0
H161 H 0.0002 0.38391 0.35539 0.0
H162 H 0.15481 0.29899 0.44648 0.0
H163 H 0.09814 0.35829 0.45695 0.0
H164 H 0.04303 0.30003 0.33968 0.0
H165 H 0.14803 0.39836 0.34252 0.0
H166 H 0.02864 0.32527 0.31526 0.0
H167 H 0.13175 0.42202 0.3181 0.0
H168 H 0.15368 0.27325 0.36797 0.0
H169 H 0.07305 0.24706 0.40554 0.0
H170 H 0.14338 0.21011 0.36998 0.0
H171 H 0.06383 0.1842 0.40676 0.0
H172 H 0.25518 0.34056 0.38163 0.0
H173 H 0.22466 0.33727 0.33106 0.0
H174 H 0.94851 0.2083 0.36168 0.0
H175 H 0.0264 0.17872 0.34325 0.0
Li176 Li 0.78087 0.11364 0.73355 0.0
Li177 Li 0.73472 0.09694 0.7102 0.0
Li178 Li 0.78133 0.07877 0.70987 0.0
Li179 Li 0.79905 0.14125 0.70711 0.0
C180 C 0.73463 0.0306 0.73017 0.0
N181 N 0.72299 0.96159 0.73725 0.0
C182 C 0.70692 1.0 0.7222 0.0
C183 C 0.75634 0.02616 0.74178 0.0
C184 C 0.7015 0.96532 0.72594 0.0
C185 C 0.75002 0.99102 0.74519 0.0
C186 C 0.77497 0.18066 0.72101 0.0
C187 C 0.774 0.2309 0.70747 0.0
N188 N 0.80022 0.2547 0.71787 0.0
C189 C 0.80162 0.20556 0.73168 0.0
C190 C 0.76077 0.19334 0.7089 0.0
C191 C 0.81414 0.24291 0.72985 0.0
C192 C 0.82284 0.14482 0.76152 0.0
N193 N 0.78844 0.12123 0.7562 0.0
C194 C 0.76543 0.11077 0.78343 0.0
C195 C 0.7599 0.10409 0.7667 0.0
C196 C 0.80065 0.13536 0.78933 0.0
C197 C 0.82961 0.15234 0.77812 0.0
H198 H 0.84489 0.15824 0.75281 0.0
H199 H 0.73285 0.08541 0.76205 0.0
C200 C 0.66945 0.05083 0.69436 0.0
N201 N 0.685 0.07903 0.70512 0.0
C202 C 0.63184 0.03288 0.69154 0.0
C203 C 0.62715 0.07415 0.71057 0.0
C204 C 0.66494 0.09131 0.71305 0.0
C205 C 0.61005 0.04402 0.69994 0.0
H206 H 0.6862 0.0416 0.68834 0.0
H207 H 0.67811 0.11354 0.72169 0.0
C208 C 0.85528 0.12506 0.71466 0.0
N209 N 0.92054 0.13507 0.70227 0.0
C210 C 0.86045 0.12548 0.69782 0.0
C211 C 0.88327 0.12965 0.72521 0.0
C212 C 0.89364 0.13064 0.69179 0.0
C213 C 0.91607 0.13467 0.71871 0.0
C214 C 0.76423 0.10888 0.67655 0.0
C215 C 0.78313 0.10224 0.66424 0.0
C216 C 0.74175 0.12325 0.67248 0.0
C217 C 0.77987 0.1109 0.64812 0.0
C218 C 0.73916 0.13149 0.65621 0.0
N219 N 0.75816 0.12526 0.64447 0.0
C220 C 0.76618 0.02046 0.68966 0.0
C221 C 0.81174 0.03108 0.70927 0.0
C222 C 0.76826 0.99102 0.68322 0.0
N223 N 0.78775 0.03978 0.7024 0.0
C224 C 0.81484 0.00179 0.70316 0.0
C225 C 0.7928 0.9813 0.68998 0.0
H226 H 0.74718 0.02792 0.68454 0.0
H227 H 0.82825 0.04667 0.71954 0.0
C228 C 0.86531 0.20617 0.70752 0.0
N229 N 0.83575 0.1867 0.69774 0.0
C230 C 0.89713 0.23569 0.70132 0.0
C231 C 0.86664 0.22671 0.67539 0.0
C232 C 0.83533 0.19727 0.68212 0.0
C233 C 0.89855 0.24538 0.68485 0.0
H234 H 0.86492 0.19738 0.71994 0.0
H235 H 0.81152 0.18207 0.67459 0.0
O236 O 0.7412 0.06488 0.72632 0.0
O237 O 0.76306 0.14409 0.72236 0.0
O238 O 0.82306 0.12018 0.7209 0.0
O239 O 0.76678 0.1001 0.69237 0.0
H240 H 0.69003 0.00304 0.71312 0.0
H241 H 0.77813 0.04964 0.74794 0.0
H242 H 0.68029 0.94139 0.71981 0.0
H243 H 0.76672 0.98716 0.75409 0.0
H244 H 0.7634 0.24112 0.69809 0.0
H245 H 0.81283 0.19618 0.74114 0.0
H246 H 0.73979 0.17442 0.7007 0.0
H247 H 0.83499 0.26252 0.73794 0.0
H248 H 0.74243 0.09677 0.79165 0.0
H249 H 0.85706 0.17188 0.78209 0.0
H250 H 0.61986 0.0101 0.6831 0.0
H251 H 0.61133 0.08336 0.71744 0.0
H252 H 0.83917 0.12213 0.68952 0.0
H253 H 0.87965 0.12929 0.73829 0.0
H254 H 0.89803 0.13114 0.67877 0.0
H255 H 0.93797 0.13825 0.72673 0.0
H256 H 0.80005 0.09038 0.66709 0.0
H257 H 0.72649 0.12805 0.68176 0.0
H258 H 0.7945 0.10608 0.6385 0.0
H259 H 0.72201 0.14281 0.65291 0.0
H260 H 0.75111 0.97628 0.67293 0.0
H261 H 0.83381 0.99493 0.70882 0.0
H262 H 0.9211 0.24904 0.70905 0.0
H263 H 0.8664 0.23371 0.6627 0.0
Li264 Li 0.66407 0.78274 0.06413 0.0
Li265 Li 0.63701 0.73621 0.04247 0.0
Li266 Li 0.70073 0.78073 0.04075 0.0
Li267 Li 0.65544 0.7981 0.03723 0.0
C268 C 0.66325 0.71037 0.06499 0.0
N269 N 0.63394 0.64039 0.07745 0.0
C270 C 0.63365 0.69676 0.07576 0.0
C271 C 0.67807 0.68844 0.06062 0.0
C272 C 0.61923 0.66133 0.08193 0.0
C273 C 0.66281 0.6531 0.06702 0.0
C274 C 0.5893 0.76989 0.04719 0.0
C275 C 0.54255 0.7583 0.02736 0.0
N276 N 0.53594 0.78303 0.03501 0.0
C277 C 0.58199 0.79508 0.05489 0.0
C278 C 0.56942 0.75124 0.03334 0.0
C279 C 0.55492 0.80139 0.04853 0.0
C280 C 0.66175 0.82628 0.08873 0.0
N281 N 0.66524 0.79634 0.08626 0.0
C282 C 0.67123 0.79035 0.11489 0.0
C283 C 0.67057 0.77867 0.09889 0.0
C284 C 0.66713 0.82097 0.11788 0.0
C285 C 0.66271 0.83919 0.10448 0.0
H286 H 0.6586 0.84037 0.07839 0.0
H287 H 0.67441 0.75561 0.09659 0.0
C288 C 0.6163 0.66953 0.02728 0.0
N289 N 0.60473 0.6858 0.03817 0.0
C290 C 0.59713 0.63158 0.02539 0.0
C291 C 0.55403 0.62796 0.04576 0.0
C292 C 0.57376 0.66608 0.04706 0.0
C293 C 0.56601 0.61006 0.03501 0.0
H294 H 0.64125 0.686 0.02047 0.0
H295 H 0.56551 0.6798 0.0558 0.0
C296 C 0.73124 0.8449 0.05928 0.0
N297 N 0.79405 0.8879 0.07708 0.0
C298 C 0.74901 0.88301 0.05802 0.0
C299 C 0.74543 0.82865 0.06962 0.0
C300 C 0.78074 0.90428 0.0671 0.0
C301 C 0.7772 0.85087 0.07851 0.0
C302 C 0.68046 0.78183 0.00896 0.0
C303 C 0.70748 0.81883 0.00896 0.0
C304 C 0.67074 0.76228 0.99432 0.0
C305 C 0.72424 0.83564 0.99428 0.0
C306 C 0.68816 0.78007 0.97989 0.0
N307 N 0.71432 0.81608 0.98017 0.0
C308 C 0.74497 0.75649 0.02719 0.0
C309 C 0.77707 0.82046 0.03195 0.0
C310 C 0.77599 0.75833 0.02023 0.0
N311 N 0.74613 0.78718 0.03304 0.0
C312 C 0.80875 0.8236 0.02503 0.0
C313 C 0.80844 0.79224 0.01906 0.0
H314 H 0.71956 0.7307 0.02755 0.0
H315 H 0.77707 0.84476 0.03606 0.0
C316 C 0.65932 0.86491 0.03457 0.0
N317 N 0.64678 0.83292 0.02635 0.0
C318 C 0.66163 0.89538 0.02685 0.0
C319 C 0.63522 0.85862 0.00269 0.0
C320 C 0.63362 0.82877 0.0109 0.0
C321 C 0.65068 0.89292 0.01049 0.0
H322 H 0.66942 0.86729 0.04688 0.0
H323 H 0.62365 0.8029 0.00467 0.0
O324 O 0.67707 0.74467 0.05849 0.0
O325 O 0.61636 0.76404 0.05293 0.0
O326 O 0.69997 0.82393 0.05051 0.0
O327 O 0.66349 0.76451 0.02313 0.0
H328 H 0.62143 0.71313 0.07906 0.0
H329 H 0.70109 0.69852 0.05239 0.0
H330 H 0.59615 0.65037 0.09018 0.0
H331 H 0.67392 0.63579 0.06369 0.0
H332 H 0.52705 0.74421 0.01661 0.0
H333 H 0.59719 0.80977 0.0656 0.0
H334 H 0.57498 0.73186 0.02718 0.0
H335 H 0.54905 0.82093 0.05431 0.0
H336 H 0.67446 0.77523 0.12479 0.0
H337 H 0.66038 0.86341 0.10609 0.0
H338 H 0.60704 0.61926 0.01669 0.0
H339 H 0.53062 0.61271 0.05364 0.0
H340 H 0.73846 0.89605 0.05006 0.0
H341 H 0.73222 0.79927 0.0708 0.0
H342 H 0.79477 0.93381 0.06623 0.0
H343 H 0.78846 0.83866 0.08654 0.0
H344 H 0.71543 0.83453 0.02011 0.0
H345 H 0.64992 0.73362 0.99412 0.0
H346 H 0.74513 0.86424 0.99411 0.0
H347 H 0.68089 0.76526 0.96848 0.0
H348 H 0.7743 0.73362 0.01542 0.0
H349 H 0.83318 0.85028 0.02432 0.0
H350 H 0.67422 0.92115 0.03336 0.0
H351 H 0.62591 0.85525 0.99018 0.0
Li352 Li 0.90417 0.63808 0.37554 0.0
Li353 Li 0.88746 0.66453 0.39823 0.0
Li354 Li 0.86001 0.65648 0.37195 0.0
Li355 Li 0.92348 0.70167 0.37418 0.0
C356 C 0.82505 0.58881 0.38091 0.0
N357 N 0.76066 0.5328 0.36823 0.0
C358 C 0.7922 0.57619 0.38942 0.0
C359 C 0.82518 0.5729 0.36598 0.0
C360 C 0.75993 0.54785 0.38279 0.0
C361 C 0.79233 0.54462 0.35977 0.0
C362 C 0.96089 0.66574 0.39559 0.0
C363 C 0.01726 0.66504 0.39202 0.0
N364 N 0.00682 0.63926 0.40392 0.0
C365 C 0.95077 0.63936 0.40783 0.0
C366 C 0.99447 0.67886 0.38767 0.0
C367 C 0.97437 0.62631 0.41186 0.0
C368 C 0.94628 0.61486 0.35825 0.0
N369 N 0.92128 0.60529 0.37041 0.0
C370 C 0.92961 0.55534 0.37807 0.0
C371 C 0.91207 0.57573 0.38003 0.0
C372 C 0.95664 0.5653 0.36598 0.0
C373 C 0.96427 0.59506 0.35576 0.0
H374 H 0.95327 0.63877 0.3509 0.0
H375 H 0.89245 0.56916 0.38977 0.0
C376 C 0.84182 0.65281 0.42434 0.0
N377 N 0.8773 0.66407 0.42076 0.0
C378 C 0.83075 0.65088 0.44049 0.0
C379 C 0.89335 0.67365 0.44899 0.0
C380 C 0.90317 0.67482 0.43262 0.0
C381 C 0.85661 0.66116 0.45307 0.0
H382 H 0.82215 0.6455 0.41459 0.0
H383 H 0.93136 0.68434 0.42939 0.0
C384 C 0.89735 0.68127 0.34286 0.0
N385 N 0.8926 0.71504 0.31484 0.0
C386 C 0.88927 0.70959 0.34386 0.0
C387 C 0.90311 0.67023 0.32762 0.0
C388 C 0.88695 0.72627 0.32955 0.0
C389 C 0.90057 0.68763 0.31359 0.0
C390 C 0.89138 0.73202 0.39432 0.0
C391 C 0.87172 0.75048 0.39299 0.0
C392 C 0.92133 0.74529 0.4049 0.0
C393 C 0.88243 0.78205 0.40224 0.0
C394 C 0.93112 0.77691 0.41396 0.0
N395 N 0.91165 0.79449 0.41245 0.0
C396 C 0.79551 0.65783 0.37255 0.0
C397 C 0.80459 0.63686 0.34711 0.0
C398 C 0.76561 0.65951 0.3664 0.0
N399 N 0.81499 0.64787 0.36275 0.0
C400 C 0.77484 0.63828 0.34041 0.0
C401 C 0.75571 0.65095 0.34996 0.0
H402 H 0.80446 0.66637 0.38494 0.0
H403 H 0.82042 0.62877 0.33961 0.0
C404 C 0.98443 0.7415 0.35522 0.0
N405 N 0.96223 0.74647 0.36563 0.0
C406 C 0.01262 0.77119 0.34706 0.0
C407 C 0.99506 0.81096 0.36062 0.0
C408 C 0.96676 0.78033 0.36834 0.0
C409 C 0.01818 0.80645 0.34974 0.0
H410 H 0.97974 0.7142 0.35303 0.0
H411 H 0.9482 0.78374 0.37619 0.0
O412 O 0.8568 0.61728 0.3869 0.0
O413 O 0.9377 0.6781 0.39117 0.0
O414 O 0.89985 0.66432 0.35664 0.0
O415 O 0.8807 0.70078 0.38549 0.0
H416 H 0.79156 0.58817 0.40097 0.0
H417 H 0.85029 0.58263 0.35915 0.0
H418 H 0.73428 0.53786 0.38921 0.0
H419 H 0.792 0.53218 0.34819 0.0
H420 H 0.04323 0.67477 0.38591 0.0
H421 H 0.92464 0.62853 0.41392 0.0
H422 H 0.00274 0.69928 0.37818 0.0
H423 H 0.96676 0.60568 0.42122 0.0
H424 H 0.92316 0.53304 0.38642 0.0
H425 H 0.9844 0.60341 0.34611 0.0
H426 H 0.80232 0.64182 0.44311 0.0
H427 H 0.91408 0.68185 0.45836 0.0
H428 H 0.88475 0.71863 0.3555 0.0
H429 H 0.90945 0.64841 0.32665 0.0
H430 H 0.88066 0.74816 0.33015 0.0
H431 H 0.90493 0.67933 0.30171 0.0
H432 H 0.84843 0.74051 0.38488 0.0
H433 H 0.93702 0.73155 0.40606 0.0
H434 H 0.86749 0.79664 0.40132 0.0
H435 H 0.95425 0.7875 0.42218 0.0
H436 H 0.75201 0.66981 0.37417 0.0
H437 H 0.76783 0.63103 0.32773 0.0
H438 H 0.02999 0.76667 0.3388 0.0
H439 H 0.99827 0.83773 0.3628 0.0
Li440 Li 0.26918 0.90821 0.70959 0.0
Li441 Li 0.22627 0.89342 0.73351 0.0
Li442 Li 0.20379 0.86439 0.70709 0.0
Li443 Li 0.22186 0.92886 0.7104 0.0
C444 C 0.23489 0.82715 0.71878 0.0
N445 N 0.22144 0.75711 0.71273 0.0
C446 C 0.21748 0.79982 0.73054 0.0
C447 C 0.24578 0.81904 0.70402 0.0
C448 C 0.21083 0.76452 0.72722 0.0
C449 C 0.23864 0.78341 0.70117 0.0
C450 C 0.28099 0.96812 0.73676 0.0
C451 C 0.2808 0.01114 0.75604 0.0
N452 N 0.31535 0.02048 0.76066 0.0
C453 C 0.31659 0.97832 0.74159 0.0
C454 C 0.263 0.9848 0.74392 0.0
C455 C 0.33346 0.00478 0.75374 0.0
C456 C 0.33375 0.95214 0.69255 0.0
N457 N 0.31817 0.92488 0.70377 0.0
C458 C 0.37589 0.92996 0.70972 0.0
C459 C 0.33814 0.91314 0.71214 0.0
C460 C 0.3931 0.95921 0.69864 0.0
C461 C 0.37138 0.9697 0.68973 0.0
H462 H 0.3171 0.96114 0.68626 0.0
H463 H 0.32497 0.89184 0.72121 0.0
C464 C 0.18484 0.85804 0.76064 0.0
N465 N 0.21906 0.88432 0.75621 0.0
C466 C 0.17656 0.84817 0.77696 0.0
C467 C 0.23908 0.89233 0.78392 0.0
C468 C 0.24618 0.90132 0.76741 0.0
C469 C 0.20385 0.86537 0.78887 0.0
H470 H 0.16405 0.84438 0.75141 0.0
H471 H 0.27337 0.92151 0.76357 0.0
C472 C 0.22854 0.89979 0.67618 0.0
N473 N 0.21535 0.88744 0.64316 0.0
C474 C 0.20236 0.90591 0.66866 0.0
C475 C 0.24828 0.88776 0.66691 0.0
C476 C 0.19602 0.89941 0.65195 0.0
C477 C 0.24112 0.88155 0.65024 0.0
C478 C 0.15278 0.88812 0.72575 0.0
C479 C 0.12053 0.86892 0.71674 0.0
C480 C 0.15391 0.90928 0.73908 0.0
C481 C 0.08993 0.87154 0.72114 0.0
C482 C 0.12274 0.9112 0.74308 0.0
N483 N 0.09167 0.89247 0.7341 0.0
C484 C 0.14391 0.7962 0.71101 0.0
C485 C 0.15402 0.8126 0.68311 0.0
C486 C 0.10965 0.76629 0.70752 0.0
N487 N 0.16487 0.81923 0.69895 0.0
C488 C 0.11946 0.78349 0.6791 0.0
C489 C 0.09606 0.76069 0.6915 0.0
H490 H 0.15278 0.80251 0.72355 0.0
H491 H 0.17085 0.83107 0.67367 0.0
C492 C 0.24544 0.0012 0.70233 0.0
N493 N 0.21472 0.96794 0.70377 0.0
C494 C 0.24342 0.03088 0.69605 0.0
C495 C 0.17804 0.99168 0.69311 0.0
C496 C 0.18135 0.96269 0.69939 0.0
C497 C 0.20945 0.02619 0.69115 0.0
H498 H 0.27167 0.00444 0.70571 0.0
H499 H 0.15748 0.9358 0.70022 0.0
O500 O 0.24116 0.8617 0.72169 0.0
O501 O 0.26412 0.94232 0.72488 0.0
O502 O 0.23546 0.9064 0.69247 0.0
O503 O 0.18288 0.88565 0.72168 0.0
H504 H 0.20897 0.80578 0.74204 0.0
H505 H 0.25943 0.84 0.69485 0.0
H506 H 0.19721 0.74301 0.73616 0.0
H507 H 0.24676 0.77666 0.68977 0.0
H508 H 0.26718 0.02423 0.76173 0.0
H509 H 0.33095 0.96578 0.73607 0.0
H510 H 0.23568 0.97762 0.74011 0.0
H511 H 0.36094 0.01284 0.75767 0.0
H512 H 0.39162 0.92133 0.71702 0.0
H513 H 0.38345 0.99183 0.68096 0.0
H514 H 0.14926 0.82672 0.78016 0.0
H515 H 0.2609 0.90638 0.79271 0.0
H516 H 0.18689 0.91526 0.67567 0.0
H517 H 0.26897 0.88335 0.67253 0.0
H518 H 0.17571 0.90383 0.64597 0.0
H519 H 0.25611 0.87213 0.64291 0.0
H520 H 0.1192 0.85237 0.70639 0.0
H521 H 0.17851 0.92386 0.74631 0.0
H522 H 0.06481 0.85695 0.71424 0.0
H523 H 0.12322 0.9275 0.75336 0.0
H524 H 0.09319 0.74905 0.71747 0.0
H525 H 0.11036 0.78071 0.66658 0.0
H526 H 0.26825 0.05713 0.6949 0.0
H527 H 0.15141 0.98679 0.68926 0.0
Li528 Li 0.77095 0.69886 0.62524 0.0
Li529 Li 0.79606 0.65842 0.62893 0.0
Li530 Li 0.77703 0.66797 0.60114 0.0
Li531 Li 0.73102 0.6312 0.62189 0.0
C532 C 0.83901 0.7408 0.61399 0.0
N533 N 0.88409 0.81557 0.61085 0.0
C534 C 0.86669 0.76019 0.6254 0.0
C535 C 0.83459 0.75937 0.60088 0.0
C536 C 0.8891 0.798 0.62364 0.0
C537 C 0.85756 0.79718 0.59952 0.0
C538 C 0.75567 0.64509 0.65675 0.0
C539 C 0.74033 0.593 0.67394 0.0
N540 N 0.75367 0.61561 0.68707 0.0
C541 C 0.76893 0.66779 0.67043 0.0
C542 C 0.74101 0.60738 0.65852 0.0
C543 C 0.76781 0.65238 0.68564 0.0
C544 C 0.74823 0.75124 0.62832 0.0
N545 N 0.77245 0.74136 0.63377 0.0
C546 C 0.79626 0.7897 0.6534 0.0
C547 C 0.79625 0.75984 0.64605 0.0
C548 C 0.77132 0.80042 0.64812 0.0
C549 C 0.74733 0.78096 0.63528 0.0
H550 H 0.72905 0.73559 0.6188 0.0
H551 H 0.81467 0.75085 0.65037 0.0
C552 C 0.8461 0.63292 0.6348 0.0
N553 N 0.83318 0.65478 0.64023 0.0
C554 C 0.87789 0.63586 0.64157 0.0
C555 C 0.88167 0.68303 0.65957 0.0
C556 C 0.84982 0.679 0.65255 0.0
C557 C 0.89668 0.6619 0.65386 0.0
H558 H 0.83276 0.61447 0.62472 0.0
H559 H 0.83955 0.69678 0.65626 0.0
C560 C 0.71597 0.67446 0.59489 0.0
N561 N 0.68009 0.68036 0.56787 0.0
C562 C 0.68415 0.64391 0.58916 0.0
C563 C 0.72928 0.7081 0.58697 0.0
C564 C 0.66645 0.64743 0.57546 0.0
C565 C 0.71084 0.71049 0.5733 0.0
C566 C 0.75478 0.5858 0.60781 0.0
C567 C 0.74257 0.57351 0.59198 0.0
C568 C 0.75357 0.56119 0.61955 0.0
C569 C 0.72869 0.53659 0.58822 0.0
C570 C 0.73947 0.52448 0.61532 0.0
N571 N 0.72739 0.51304 0.59988 0.0
C572 C 0.82729 0.68886 0.57567 0.0
C573 C 0.76595 0.65939 0.56639 0.0
C574 C 0.84012 0.69244 0.55971 0.0
N575 N 0.79081 0.67272 0.57871 0.0
C576 C 0.77755 0.66248 0.55023 0.0
C577 C 0.8151 0.67903 0.54671 0.0
H578 H 0.84648 0.69855 0.5857 0.0
H579 H 0.73708 0.64567 0.56905 0.0
C580 C 0.66436 0.60043 0.6378 0.0
N581 N 0.68203 0.59303 0.62584 0.0
C582 C 0.62713 0.57694 0.64058 0.0
C583 C 0.62694 0.53808 0.61889 0.0
C584 C 0.66426 0.56233 0.61656 0.0
C585 C 0.60773 0.54562 0.63085 0.0
H586 H 0.67903 0.62527 0.64487 0.0
H587 H 0.67842 0.55741 0.60683 0.0
O588 O 0.81642 0.70383 0.61563 0.0
O589 O 0.75688 0.65977 0.64173 0.0
O590 O 0.73357 0.67152 0.60832 0.0
O591 O 0.76876 0.62191 0.61165 0.0
H592 H 0.87071 0.74627 0.63556 0.0
H593 H 0.81375 0.74473 0.59179 0.0
H594 H 0.91047 0.81338 0.63243 0.0
H595 H 0.85435 0.8119 0.58945 0.0
H596 H 0.72913 0.56385 0.67547 0.0
H597 H 0.78014 0.69702 0.66929 0.0
H598 H 0.73013 0.58938 0.64811 0.0
H599 H 0.77816 0.66964 0.69632 0.0
H600 H 0.81483 0.80351 0.66342 0.0
H601 H 0.72789 0.78845 0.63072 0.0
H602 H 0.88829 0.61885 0.63686 0.0
H603 H 0.8955 0.70412 0.66868 0.0
H604 H 0.67332 0.61772 0.59514 0.0
H605 H 0.75348 0.73217 0.59137 0.0
H606 H 0.64191 0.62397 0.57086 0.0
H607 H 0.72093 0.73634 0.56703 0.0
H608 H 0.7435 0.59219 0.58272 0.0
H609 H 0.76366 0.57036 0.63176 0.0
H610 H 0.71893 0.52666 0.57604 0.0
H611 H 0.73825 0.50512 0.6243 0.0
H612 H 0.86926 0.70478 0.55762 0.0
H613 H 0.75727 0.65195 0.54061 0.0
H614 H 0.61356 0.5836 0.65006 0.0
H615 H 0.61299 0.51459 0.61092 0.0
Li616 Li 0.13741 0.79608 0.9608 0.0
Li617 Li 0.07352 0.77169 0.95896 0.0
Li618 Li 0.10064 0.73099 0.95788 0.0
Li619 Li 0.1096 0.77359 0.93515 0.0
C620 C 0.11684 0.77447 0.9905 0.0
N621 N 0.15386 0.80353 0.01934 0.0
C622 C 0.11674 0.80455 0.99759 0.0
C623 C 0.13537 0.75888 0.99815 0.0
C624 C 0.13576 0.81894 0.01214 0.0
C625 C 0.154 0.77403 0.01272 0.0
C626 C 0.09468 0.82912 0.93779 0.0
C627 C 0.04324 0.82123 0.92174 0.0
N628 N 0.06155 0.85757 0.91818 0.0
C629 C 0.11305 0.86636 0.93385 0.0
C630 C 0.05953 0.80631 0.93157 0.0
C631 C 0.09582 0.88023 0.92397 0.0
C632 C 0.20688 0.83513 0.97901 0.0
N633 N 0.1796 0.83666 0.97081 0.0
C634 C 0.20833 0.90108 0.97538 0.0
C635 C 0.17967 0.86874 0.96922 0.0
C636 C 0.23746 0.90074 0.98345 0.0
C637 C 0.23633 0.86709 0.98545 0.0
H638 H 0.20583 0.80925 0.98067 0.0
H639 H 0.15711 0.86926 0.96335 0.0
C640 C 0.00125 0.74114 0.96937 0.0
N641 N 0.0327 0.77349 0.96729 0.0
C642 C 0.97098 0.74023 0.97668 0.0
C643 C 0.00607 0.80607 0.97953 0.0
C644 C 0.03568 0.80569 0.97211 0.0
C645 C 0.97327 0.77294 0.98205 0.0
H646 H 1.0 0.71596 0.96564 0.0
H647 H 0.06132 0.83095 0.97053 0.0
C648 C 0.18022 0.76971 0.95004 0.0
N649 N 0.24886 0.78175 0.9584 0.0
C650 C 0.21153 0.79884 0.94312 0.0
C651 C 0.18388 0.74668 0.9612 0.0
C652 C 0.24597 0.8045 0.94752 0.0
C653 C 0.21879 0.75319 0.96526 0.0
C654 C 0.04849 0.70149 0.93329 0.0
C655 C 0.07169 0.69437 0.92375 0.0
C656 C 0.01078 0.67728 0.93291 0.0
C657 C 0.05672 0.66305 0.91399 0.0
C658 C 0.99687 0.64623 0.923 0.0
N659 N 0.01994 0.63981 0.91383 0.0
C660 C 0.06155 0.66631 0.97506 0.0
C661 C 0.09719 0.66184 0.9538 0.0
C662 C 0.04377 0.62858 0.97756 0.0
N663 N 0.0871 0.68196 0.96313 0.0
C664 C 0.0799 0.6239 0.95581 0.0
C665 C 0.05204 0.60666 0.96753 0.0
H666 H 0.05371 0.68298 0.9821 0.0
H667 H 0.11718 0.67495 0.94421 0.0
C668 C 0.14974 0.80955 0.90781 0.0
N669 N 0.1158 0.78295 0.91234 0.0
C670 C 0.1575 0.81989 0.89152 0.0
C671 C 0.09478 0.77591 0.88479 0.0
C672 C 0.08822 0.76648 0.90129 0.0
C673 C 0.12991 0.80285 0.87972 0.0
H674 H 0.17062 0.82327 0.91695 0.0
H675 H 0.06106 0.74633 0.90526 0.0
O676 O 0.09917 0.76058 0.97606 0.0
O677 O 0.11177 0.81519 0.94718 0.0
O678 O 0.14619 0.76342 0.94575 0.0
O679 O 0.06256 0.73166 0.94317 0.0
H680 H 0.10255 0.81693 0.99177 0.0
H681 H 0.13552 0.73547 0.99284 0.0
H682 H 0.13622 0.84243 0.0177 0.0
H683 H 0.16865 0.76239 0.01874 0.0
H684 H 0.01605 0.80387 0.9169 0.0
H685 H 0.14051 0.88442 0.93823 0.0
H686 H 0.04484 0.77738 0.93419 0.0
H687 H 0.10976 0.90899 0.92086 0.0
H688 H 0.20726 0.92609 0.97409 0.0
H689 H 0.25801 0.86553 0.9918 0.0
H690 H 0.94613 0.71414 0.97819 0.0
H691 H 0.00919 0.83185 0.98368 0.0
H692 H 0.2094 0.81711 0.93455 0.0
H693 H 0.16013 0.72419 0.96679 0.0
H694 H 0.27041 0.82704 0.94231 0.0
H695 H 0.22198 0.73562 0.97391 0.0
H696 H 0.10096 0.71273 0.92392 0.0
H697 H 0.99242 0.68236 0.9402 0.0
H698 H 0.07437 0.65717 0.90658 0.0
H699 H 0.96773 0.62723 0.92261 0.0
H700 H 0.02294 0.61659 0.98692 0.0
H701 H 0.0869 0.60812 0.94768 0.0
H702 H 0.18466 0.84153 0.88825 0.0
H703 H 0.07268 0.76211 0.87612 0.0
Li704 Li 0.3021 0.07799 0.29274 0.0
Li705 Li 0.34753 0.14347 0.2931 0.0
Li706 Li 0.33398 0.10825 0.26802 0.0
Li707 Li 0.36738 0.09921 0.29032 0.0
C708 C 0.26547 0.10981 0.28325 0.0
N709 N 0.19357 0.09087 0.28897 0.0
C710 C 0.25718 0.12886 0.29486 0.0
C711 C 0.23717 0.08116 0.27455 0.0
C712 C 0.22067 0.11889 0.29756 0.0
C713 C 0.20101 0.07197 0.27763 0.0
C714 C 0.35539 0.09761 0.32208 0.0
C715 C 0.40567 0.11289 0.34042 0.0
N716 N 0.38568 0.07991 0.34791 0.0
C717 C 0.33524 0.06396 0.33001 0.0
C718 C 0.3908 0.12239 0.32738 0.0
C719 C 0.35107 0.0555 0.34302 0.0
C720 C 0.24374 0.00582 0.29707 0.0
N721 N 0.25786 0.04096 0.30215 0.0
C722 C 0.21036 0.02291 0.32194 0.0
C723 C 0.24211 0.0499 0.31441 0.0
C724 C 0.19514 0.98619 0.31706 0.0
C725 C 0.21233 0.97786 0.30441 0.0
H726 H 0.25734 0.99937 0.28755 0.0
H727 H 0.25446 0.07798 0.31847 0.0
C728 C 0.34668 0.20877 0.29109 0.0
N729 N 0.35561 0.18907 0.30129 0.0
C730 C 0.34346 0.238 0.29703 0.0
C731 C 0.36118 0.22774 0.32367 0.0
C732 C 0.36382 0.19846 0.31721 0.0
C733 C 0.34941 0.24702 0.31368 0.0
H734 H 0.33942 0.20007 0.27857 0.0
H735 H 0.37033 0.18198 0.3251 0.0
C736 C 0.32398 0.04258 0.26343 0.0
N737 N 0.32034 0.00703 0.23461 0.0
C738 C 0.35463 0.04146 0.25775 0.0
C739 C 0.29142 0.02545 0.25451 0.0
C740 C 0.35224 0.02335 0.24315 0.0
C741 C 0.29016 0.00769 0.23994 0.0
C742 C 0.40628 0.18005 0.27558 0.0
C743 C 0.40188 0.19959 0.26287 0.0
C744 C 0.4339 0.19848 0.28711 0.0
C745 C 0.4251 0.23745 0.262 0.0
C746 C 0.45654 0.23636 0.28582 0.0
N747 N 0.45169 0.2549 0.2734 0.0
C748 C 0.30326 0.11515 0.23855 0.0
C749 C 0.35831 0.11355 0.23553 0.0
C750 C 0.30214 0.12063 0.22184 0.0
N751 N 0.33106 0.11178 0.24503 0.0
C752 C 0.35822 0.11889 0.21873 0.0
C753 C 0.33005 0.12291 0.21171 0.0
H754 H 0.28239 0.11444 0.2464 0.0
H755 H 0.38057 0.11168 0.24108 0.0
C756 C 0.38859 0.05057 0.30178 0.0
N757 N 0.4022 0.08439 0.29511 0.0
C758 C 0.41103 0.03543 0.30401 0.0
C759 C 0.46122 0.09009 0.29232 0.0
C760 C 0.43783 0.10444 0.29052 0.0
C761 C 0.44774 0.05481 0.29892 0.0
H762 H 0.35991 0.03485 0.30491 0.0
H763 H 0.44771 0.13092 0.28489 0.0
O764 O 0.30103 0.11882 0.28056 0.0
O765 O 0.34057 0.10621 0.30918 0.0
O766 O 0.32594 0.06078 0.27754 0.0
O767 O 0.38338 0.1431 0.27683 0.0
H768 H 0.27858 0.15077 0.30189 0.0
H769 H 0.24303 0.0659 0.26563 0.0
H770 H 0.21386 0.13331 0.30654 0.0
H771 H 0.17885 0.04974 0.27103 0.0
H772 H 0.43313 0.13171 0.34459 0.0
H773 H 0.30781 0.04444 0.32606 0.0
H774 H 0.40671 0.14855 0.32139 0.0
H775 H 0.33588 0.02948 0.34922 0.0
H776 H 0.19799 0.03079 0.33151 0.0
H777 H 0.20224 0.94994 0.30047 0.0
H778 H 0.33375 0.25152 0.28889 0.0
H779 H 0.36656 0.23403 0.33652 0.0
H780 H 0.38012 0.05472 0.26444 0.0
H781 H 0.26747 0.02612 0.25871 0.0
H782 H 0.3758 0.0224 0.23857 0.0
H783 H 0.2652 0.99449 0.23286 0.0
H784 H 0.38053 0.18574 0.25388 0.0
H785 H 0.43769 0.1837 0.29699 0.0
H786 H 0.4219 0.25297 0.25228 0.0
H787 H 0.47794 0.25102 0.2947 0.0
H788 H 0.27978 0.12332 0.21691 0.0
H789 H 0.38057 0.12104 0.21141 0.0
H790 H 0.39945 0.00848 0.30942 0.0
H791 H 0.48911 0.10588 0.28798 0.0
Li792 Li 0.22745 0.3026 0.62287 0.0
Li793 Li 0.20243 0.34214 0.62537 0.0
Li794 Li 0.22763 0.33937 0.59989 0.0
Li795 Li 0.26725 0.36834 0.62353 0.0
C796 C 0.16913 0.26905 0.60114 0.0
N797 N 0.13675 0.20836 0.58109 0.0
C798 C 0.13134 0.25064 0.5986 0.0
C799 C 0.19049 0.25663 0.59347 0.0
C800 C 0.11547 0.21999 0.58842 0.0
C801 C 0.17359 0.22589 0.58338 0.0
C802 C 0.21611 0.31693 0.6546 0.0
C803 C 0.21272 0.30525 0.68352 0.0
N804 N 0.17816 0.2766 0.6816 0.0
C805 C 0.18058 0.28732 0.65291 0.0
C806 C 0.23236 0.32594 0.67002 0.0
C807 C 0.16185 0.2673 0.66671 0.0
C808 C 0.25784 0.26176 0.6341 0.0
N809 N 0.22532 0.25867 0.62985 0.0
C810 C 0.19332 0.19577 0.63781 0.0
C811 C 0.19332 0.22655 0.63153 0.0
C812 C 0.22655 0.1982 0.64242 0.0
C813 C 0.25913 0.23172 0.6404 0.0
H814 H 0.28274 0.28787 0.63289 0.0
H815 H 0.16774 0.22493 0.62824 0.0
C816 C 0.13722 0.3399 0.62119 0.0
N817 N 0.16156 0.34511 0.63317 0.0
C818 C 0.10248 0.33374 0.62509 0.0
C819 C 0.11915 0.34057 0.6536 0.0
C820 C 0.15396 0.34731 0.6491 0.0
C821 C 0.09236 0.33212 0.64152 0.0
H822 H 0.14423 0.33861 0.60862 0.0
H823 H 0.174 0.352 0.6584 0.0
C824 C 0.29937 0.3495 0.59877 0.0
N825 N 0.36325 0.38491 0.58086 0.0
C826 C 0.3079 0.38136 0.59013 0.0
C827 C 0.32333 0.3357 0.59834 0.0
C828 C 0.34032 0.39884 0.58113 0.0
C829 C 0.35548 0.35398 0.5892 0.0
C830 C 0.23112 0.41114 0.61772 0.0
C831 C 0.21324 0.42512 0.60835 0.0
C832 C 0.24199 0.42381 0.63364 0.0
C833 C 0.20643 0.45156 0.6151 0.0
C834 C 0.23467 0.45025 0.63994 0.0
N835 N 0.21718 0.46345 0.63062 0.0
C836 C 0.19796 0.35201 0.57219 0.0
C837 C 0.23565 0.32666 0.56616 0.0
C838 C 0.18981 0.352 0.55572 0.0
N839 N 0.2207 0.33975 0.57705 0.0
C840 C 0.22807 0.32593 0.54954 0.0
C841 C 0.2048 0.3387 0.54412 0.0
H842 H 0.18577 0.36136 0.58118 0.0
H843 H 0.25294 0.31621 0.5704 0.0
C844 C 0.3338 0.39269 0.63919 0.0
N845 N 0.31521 0.40412 0.62961 0.0
C846 C 0.37125 0.41534 0.64179 0.0
C847 C 0.36936 0.46154 0.62503 0.0
C848 C 0.3319 0.43797 0.62276 0.0
C849 C 0.3897 0.44996 0.63435 0.0
H850 H 0.31977 0.36533 0.64424 0.0
H851 H 0.31651 0.44593 0.61488 0.0
O852 O 0.18487 0.29926 0.61099 0.0
O853 O 0.23535 0.33683 0.6413 0.0
O854 O 0.26827 0.33238 0.60802 0.0
O855 O 0.23725 0.38455 0.61156 0.0
H856 H 0.11446 0.25999 0.60444 0.0
H857 H 0.21976 0.27046 0.59527 0.0
H858 H 0.08624 0.20547 0.58635 0.0
H859 H 0.18978 0.21598 0.57737 0.0
H860 H 0.22496 0.31194 0.69553 0.0
H861 H 0.16744 0.27996 0.64112 0.0
H862 H 0.2599 0.3487 0.67151 0.0
H863 H 0.13432 0.24438 0.66557 0.0
H864 H 0.16762 0.17037 0.63904 0.0
H865 H 0.28527 0.235 0.64404 0.0
H866 H 0.08314 0.32841 0.61533 0.0
H867 H 0.11266 0.33956 0.66643 0.0
H868 H 0.28985 0.39263 0.59043 0.0
H869 H 0.31719 0.31117 0.60504 0.0
H870 H 0.3473 0.42354 0.57441 0.0
H871 H 0.3743 0.34361 0.58875 0.0
H872 H 0.20468 0.41572 0.59602 0.0
H873 H 0.25557 0.41304 0.64111 0.0
H874 H 0.19257 0.46259 0.608 0.0
H875 H 0.24279 0.4602 0.65225 0.0
H876 H 0.17206 0.36245 0.55213 0.0
H877 H 0.2397 0.31481 0.54108 0.0
H878 H 0.38577 0.40549 0.64921 0.0
H879 H 0.38255 0.48776 0.61887 0.0
Li880 Li 0.85338 0.1989 0.96278 0.0
Li881 Li 0.92092 0.21736 0.9617 0.0
Li882 Li 0.90083 0.26153 0.95908 0.0
Li883 Li 0.88534 0.21743 0.93725 0.0
C884 C 0.89661 0.24782 0.99227 0.0
N885 N 0.90206 0.28486 0.02089 0.0
C886 C 0.92906 0.26364 0.00129 0.0
C887 C 0.86661 0.24996 0.99809 0.0
C888 C 0.93139 0.28252 0.01564 0.0
C889 C 0.86997 0.26903 0.0125 0.0
C890 C 0.87782 0.15135 0.94014 0.0
C891 C 0.90998 0.13494 0.92065 0.0
N892 N 0.87807 0.10405 0.91693 0.0
C893 C 0.84538 0.1194 0.93617 0.0
C894 C 0.91043 0.15918 0.93238 0.0
C895 C 0.84607 0.09585 0.92439 0.0
C896 C 0.78099 0.14123 0.96105 0.0
N897 N 0.808 0.1628 0.97166 0.0
C898 C 0.77498 0.12329 0.99383 0.0
C899 C 0.80533 0.15483 0.98783 0.0
C900 C 0.74758 0.09941 0.98301 0.0
C901 C 0.75029 0.10928 0.9665 0.0
H902 H 0.78442 0.14751 0.94818 0.0
H903 H 0.8278 0.17159 0.9959 0.0
C904 C 0.98942 0.23919 0.97489 0.0
N905 N 0.95802 0.2092 0.96999 0.0
C906 C 0.01793 0.23554 0.98138 0.0
C907 C 0.98131 0.17004 0.97764 0.0
C908 C 0.95334 0.17499 0.97129 0.0
C909 C 0.01421 0.20062 0.98277 0.0
H910 H 0.99205 0.26596 0.97395 0.0
H911 H 0.9279 0.15157 0.96741 0.0
C912 C 0.82212 0.23548 0.94921 0.0
N913 N 0.75737 0.23569 0.95409 0.0
C914 C 0.79246 0.21597 0.93872 0.0
C915 C 0.81901 0.25569 0.96198 0.0
C916 C 0.75991 0.21622 0.94144 0.0
C917 C 0.78603 0.25531 0.9643 0.0
C918 C 0.95565 0.28788 0.93732 0.0
C919 C 0.93918 0.30137 0.92674 0.0
C920 C 0.99286 0.30937 0.94096 0.0
C921 C 0.96017 0.33634 0.9201 0.0
C922 C 0.01291 0.34422 0.93409 0.0
N923 N 0.99628 0.35689 0.9239 0.0
C924 C 0.95258 0.32889 0.97202 0.0
C925 C 0.90706 0.33253 0.95657 0.0
C926 C 0.97244 0.36682 0.97368 0.0
N927 N 0.92058 0.31252 0.96358 0.0
C928 C 0.92612 0.37069 0.95791 0.0
C929 C 0.95962 0.38834 0.96634 0.0
H930 H 0.96376 0.31261 0.9767 0.0
H931 H 0.88252 0.31911 0.94924 0.0
C932 C 0.84421 0.1814 0.90967 0.0
N933 N 0.87852 0.20637 0.9146 0.0
C934 C 0.83721 0.17114 0.89333 0.0
C935 C 0.9012 0.21204 0.88744 0.0
C936 C 0.90698 0.22142 0.90394 0.0
C937 C 0.86587 0.18668 0.88193 0.0
H938 H 0.82241 0.1689 0.91853 0.0
H939 H 0.93419 0.24052 0.90825 0.0
O940 O 0.89384 0.22913 0.97818 0.0
O941 O 0.8776 0.17533 0.9513 0.0
O942 O 0.85417 0.23533 0.94678 0.0
O943 O 0.93513 0.25426 0.94443 0.0
H944 H 0.95231 0.26157 0.99722 0.0
H945 H 0.84079 0.2366 0.99168 0.0
H946 H 0.95649 0.29522 0.02263 0.0
H947 H 0.84699 0.27103 0.01707 0.0
H948 H 0.93496 0.14075 0.91447 0.0
H949 H 0.81991 0.11295 0.94206 0.0
H950 H 0.93572 0.18398 0.93523 0.0
H951 H 0.82115 0.07108 0.92115 0.0
H952 H 0.77437 0.11632 0.00658 0.0
H953 H 0.72982 0.09155 0.95776 0.0
H954 H 0.04241 0.25981 0.9855 0.0
H955 H 0.97735 0.14266 0.97839 0.0
H956 H 0.79445 0.2007 0.92859 0.0
H957 H 0.8419 0.27179 0.96994 0.0
H958 H 0.73669 0.20101 0.93348 0.0
H959 H 0.78327 0.27073 0.97419 0.0
H960 H 0.91032 0.28522 0.92391 0.0
H961 H 0.0061 0.29937 0.94907 0.0
H962 H 0.94771 0.34723 0.91201 0.0
H963 H 0.04167 0.36124 0.93687 0.0
H964 H 0.99806 0.3792 0.98031 0.0
H965 H 0.91562 0.38626 0.95176 0.0
H966 H 0.80975 0.15082 0.88971 0.0
H967 H 0.92407 0.22478 0.87907 0.0
Li968 Li 0.69613 0.92344 0.29244 0.0
Li969 Li 0.65523 0.85613 0.29294 0.0
Li970 Li 0.66523 0.88862 0.26734 0.0
Li971 Li 0.6318 0.89646 0.2887 0.0
C972 C 0.7308 0.89225 0.27147 0.0
N973 N 0.78876 0.90678 0.25118 0.0
C974 C 0.74176 0.86625 0.26944 0.0
C975 C 0.74925 0.92561 0.26318 0.0
C976 C 0.77117 0.87413 0.25913 0.0
C977 C 0.77849 0.93244 0.25297 0.0
C978 C 0.67278 0.89236 0.32293 0.0
C979 C 0.67421 0.89333 0.35233 0.0
N980 N 0.70493 0.89049 0.352 0.0
C981 C 0.70442 0.88951 0.32289 0.0
C982 C 0.65759 0.89436 0.33776 0.0
C983 C 0.72023 0.88859 0.33771 0.0
C984 C 0.73392 0.98794 0.31042 0.0
N985 N 0.73861 0.96285 0.302 0.0
C986 C 0.80173 0.99253 0.3095 0.0
C987 C 0.77156 0.96439 0.30153 0.0
C988 C 0.79779 0.01902 0.31821 0.0
C989 C 0.76332 0.01648 0.31861 0.0
H990 H 0.70713 0.98536 0.311 0.0
H991 H 0.77432 0.94332 0.29534 0.0
C992 C 0.65437 0.79161 0.28834 0.0
N993 N 0.65075 0.81134 0.30053 0.0
C994 C 0.66075 0.76299 0.29191 0.0
C995 C 0.65653 0.77346 0.32059 0.0
C996 C 0.64974 0.80169 0.31643 0.0
C997 C 0.66388 0.75485 0.30823 0.0
H998 H 0.65467 0.79969 0.27582 0.0
H999 H 0.64598 0.81721 0.32594 0.0
C1000 C 0.65525 0.95469 0.26985 0.0
N1001 N 0.61999 0.99177 0.26002 0.0
C1002 C 0.62947 0.94075 0.25727 0.0
C1003 C 0.66328 0.98762 0.27735 0.0
C1004 C 0.61194 0.9599 0.25248 0.0
C1005 C 0.64507 0.0059 0.27224 0.0
C1006 C 0.58446 0.82332 0.28154 0.0
C1007 C 0.55912 0.79984 0.27006 0.0
C1008 C 0.57521 0.81878 0.29808 0.0
C1009 C 0.52484 0.77221 0.27532 0.0
C1010 C 0.54066 0.79081 0.30285 0.0
N1011 N 0.5164 0.7683 0.29147 0.0
C1012 C 0.66768 0.85003 0.24063 0.0
C1013 C 0.68022 0.90976 0.23362 0.0
C1014 C 0.67269 0.84301 0.22452 0.0
N1015 N 0.67143 0.88288 0.24484 0.0
C1016 C 0.68474 0.90362 0.21725 0.0
C1017 C 0.68107 0.8699 0.21261 0.0
H1018 H 0.66097 0.82935 0.24986 0.0
H1019 H 0.68385 0.93594 0.23737 0.0
C1020 C 0.59908 0.93091 0.3052 0.0
N1021 N 0.59347 0.9068 0.29303 0.0
C1022 C 0.57536 0.94474 0.30716 0.0
C1023 C 0.53985 0.90762 0.28438 0.0
C1024 C 0.56415 0.89438 0.28291 0.0
C1025 C 0.5457 0.93377 0.29642 0.0
H1026 H 0.62292 0.94061 0.31294 0.0
H1027 H 0.56078 0.87579 0.27312 0.0
O1028 O 0.70173 0.88485 0.28131 0.0
O1029 O 0.65688 0.89389 0.30863 0.0
O1030 O 0.67206 0.93586 0.27495 0.0
O1031 O 0.61799 0.85057 0.27644 0.0
H1032 H 0.7278 0.84031 0.27577 0.0
H1033 H 0.74096 0.94595 0.26457 0.0
H1034 H 0.78 0.8543 0.25745 0.0
H1035 H 0.79298 0.95811 0.24646 0.0
H1036 H 0.66271 0.89483 0.3639 0.0
H1037 H 0.71655 0.88771 0.31159 0.0
H1038 H 0.6332 0.89673 0.338 0.0
H1039 H 0.74464 0.88629 0.33785 0.0
H1040 H 0.82765 0.99305 0.30918 0.0
H1041 H 0.75912 0.0364 0.32515 0.0
H1042 H 0.66525 0.74878 0.28198 0.0
H1043 H 0.65859 0.76815 0.33335 0.0
H1044 H 0.6225 0.915 0.2515 0.0
H1045 H 0.68319 0.99886 0.28707 0.0
H1046 H 0.59172 0.94926 0.24285 0.0
H1047 H 0.65085 0.0313 0.27801 0.0
H1048 H 0.56588 0.80303 0.2572 0.0
H1049 H 0.59434 0.83657 0.30718 0.0
H1050 H 0.50495 0.75387 0.26656 0.0
H1051 H 0.53313 0.787 0.31561 0.0
H1052 H 0.66943 0.81661 0.22134 0.0
H1053 H 0.69146 0.92504 0.20835 0.0
H1054 H 0.58066 0.96437 0.31677 0.0
H1055 H 0.51775 0.89874 0.27566 0.0
H1056 H 0.49286 0.56128 0.03808 0.0
H1057 H 0.59679 0.56666 0.03066 0.0
H1058 H 0.56629 0.50011 0.0299 0.0
H1059 H 0.5102 0.44011 0.03181 0.0
H1060 H 0.40741 0.4353 0.04195 0.0
H1061 H 0.43752 0.50169 0.04126 0.0
C1062 C 0.50902 0.54803 0.03648 0.0
C1063 C 0.54714 0.56929 0.03433 0.0
C1064 C 0.49148 0.50965 0.03653 0.0
C1065 C 0.56733 0.55128 0.03199 0.0
C1066 C 0.54995 0.51309 0.03171 0.0
C1067 C 0.49439 0.45351 0.03404 0.0
C1068 C 0.45641 0.4324 0.03672 0.0
C1069 C 0.51204 0.49197 0.03404 0.0
C1070 C 0.43646 0.45053 0.03941 0.0
C1071 C 0.45372 0.48865 0.03917 0.0
H1072 H 0.06804 0.50659 0.35985 0.0
H1073 H 0.97058 0.40543 0.37253 0.0
H1074 H 0.93512 0.43645 0.37264 0.0
H1075 H 0.9316 0.49228 0.36971 0.0
H1076 H 0.02966 0.59459 0.35919 0.0
H1077 H 0.06475 0.56307 0.35759 0.0
C1078 C 0.03911 0.49135 0.36275 0.0
C1079 C 0.02211 0.45357 0.366 0.0
C1080 C 0.01882 0.50954 0.36314 0.0
C1081 C 0.98441 0.43431 0.36957 0.0
C1082 C 0.96405 0.45209 0.36979 0.0
C1083 C 0.96071 0.50782 0.36721 0.0
C1084 C 0.97778 0.5458 0.36454 0.0
C1085 C 0.98097 0.4897 0.36666 0.0
C1086 C 0.01549 0.56524 0.36101 0.0
C1087 C 0.03574 0.54728 0.36024 0.0
H1088 H 0.44004 0.9325 0.69771 0.0
H1089 H 0.43727 0.03338 0.69672 0.0
H1090 H 0.50397 0.06846 0.69621 0.0
H1091 H 0.56324 0.07067 0.69733 0.0
H1092 H 0.56591 0.9698 0.69926 0.0
H1093 H 0.49927 0.93467 0.6981 0.0
C1094 C 0.45404 0.96216 0.6974 0.0
C1095 C 0.43363 0.98022 0.69726 0.0
C1096 C 0.49245 0.98223 0.69732 0.0
C1097 C 0.45223 0.0187 0.69662 0.0
C1098 C 0.49042 0.03884 0.69646 0.0
C1099 C 0.54921 0.04101 0.69752 0.0
C1100 C 0.56957 0.02295 0.69839 0.0
C1101 C 0.51081 0.02092 0.69701 0.0
C1102 C 0.55098 0.98445 0.69839 0.0
C1103 C 0.51282 0.9643 0.69784 0.0
H1104 H 0.55797 0.56781 0.63553 0.0
H1105 H 0.56675 0.47083 0.62954 0.0
H1106 H 0.50017 0.43273 0.63056 0.0
H1107 H 0.43954 0.42723 0.63212 0.0
H1108 H 0.43082 0.52412 0.63859 0.0
H1109 H 0.49747 0.56204 0.63851 0.0
C1110 C 0.5454 0.53829 0.63473 0.0
C1111 C 0.56739 0.52223 0.63246 0.0
C1112 C 0.50714 0.51657 0.63534 0.0
C1113 C 0.5505 0.48395 0.63111 0.0
C1114 C 0.51243 0.46214 0.63176 0.0
C1115 C 0.45219 0.45657 0.63381 0.0
C1116 C 0.43018 0.47279 0.63538 0.0
C1117 C 0.49049 0.47819 0.63374 0.0
C1118 C 0.44709 0.51097 0.6372 0.0
C1119 C 0.4852 0.53265 0.63721 0.0
H1120 H 0.93636 0.4375 0.97085 0.0
H1121 H 0.03362 0.43045 0.96246 0.0
H1122 H 0.0709 0.49703 0.96277 0.0
H1123 H 0.0759 0.55742 0.96495 0.0
H1124 H 0.9782 0.56442 0.97206 0.0
H1125 H 0.9413 0.4979 0.97281 0.0
C1126 C 0.96568 0.45054 0.969 0.0
C1127 C 0.98212 0.42894 0.96672 0.0
C1128 C 0.98699 0.48891 0.96902 0.0
C1129 C 0.02026 0.44633 0.96452 0.0
C1130 C 0.04162 0.48445 0.96459 0.0
C1131 C 0.04652 0.54442 0.96659 0.0
C1132 C 0.03 0.56604 0.96853 0.0
C1133 C 0.02528 0.50603 0.96677 0.0
C1134 C 0.99187 0.5486 0.97084 0.0
C1135 C 0.97062 0.51048 0.97113 0.0
H1136 H 0.42714 0.98325 0.29354 0.0
H1137 H 0.52113 0.08737 0.30599 0.0
H1138 H 0.55949 0.05916 0.30635 0.0
H1139 H 0.56655 0.00519 0.30263 0.0
H1140 H 0.4716 0.90053 0.29182 0.0
H1141 H 0.4334 0.92882 0.29149 0.0
C1142 C 0.45586 0.99978 0.29665 0.0
C1143 C 0.47107 0.03749 0.29975 0.0
C1144 C 0.47766 0.9833 0.29709 0.0
C1145 C 0.50864 0.05844 0.30332 0.0
C1146 C 0.5306 0.04227 0.30364 0.0
C1147 C 0.53739 0.98837 0.30049 0.0
C1148 C 0.52208 0.95071 0.29722 0.0
C1149 C 0.51542 0.00474 0.30049 0.0
C1150 C 0.48431 0.92963 0.29413 0.0
C1151 C 0.46236 0.94576 0.29402 0.0
H1152 H 0.31538 0.17238 0.19755 0.0
H1153 H 0.34621 0.09154 0.18623 0.0
H1154 H 0.34814 0.10555 0.1572 0.0
H1155 H 0.34152 0.14114 0.13509 0.0
H1156 H 0.30968 0.22123 0.14647 0.0
H1157 H 0.3077 0.20711 0.17545 0.0
C1158 C 0.32209 0.1575 0.18872 0.0
C1159 C 0.33051 0.13086 0.19405 0.0
C1160 C 0.32311 0.16566 0.17208 0.0
C1161 C 0.33991 0.11238 0.18246 0.0
C1162 C 0.34087 0.12027 0.16586 0.0
C1163 C 0.33375 0.15522 0.14389 0.0
C1164 C 0.32573 0.18218 0.13861 0.0
C1165 C 0.33256 0.14689 0.16054 0.0
C1166 C 0.31638 0.20065 0.15022 0.0
C1167 C 0.31505 0.19246 0.16678 0.0
H1168 H 0.1924 0.34429 0.46749 0.0
H1169 H 0.08133 0.31325 0.48007 0.0
H1170 H 0.09542 0.31334 0.50901 0.0
H1171 H 0.13906 0.32143 0.53061 0.0
H1172 H 0.25067 0.35426 0.51801 0.0
H1173 H 0.23627 0.35324 0.48913 0.0
C1174 C 0.17121 0.33725 0.47657 0.0
C1175 C 0.13584 0.32863 0.47166 0.0
C1176 C 0.17951 0.33743 0.49314 0.0
C1177 C 0.10883 0.32024 0.48356 0.0
C1178 C 0.11682 0.32012 0.50009 0.0
C1179 C 0.16039 0.32878 0.52158 0.0
C1180 C 0.19592 0.33791 0.52652 0.0
C1181 C 0.15208 0.3287 0.50501 0.0
C1182 C 0.22297 0.34662 0.51458 0.0
C1183 C 0.21483 0.34631 0.49806 0.0
H1184 H 0.85811 0.1435 0.80764 0.0
H1185 H 0.75765 0.14675 0.81069 0.0
H1186 H 0.76873 0.16233 0.83958 0.0
H1187 H 0.80773 0.17678 0.86375 0.0
H1188 H 0.90824 0.17362 0.86078 0.0
H1189 H 0.89684 0.15728 0.83195 0.0
C1190 C 0.83876 0.14786 0.8146 0.0
C1191 C 0.8071 0.14395 0.807 0.0
C1192 C 0.84546 0.15715 0.83117 0.0
C1193 C 0.782 0.1491 0.81627 0.0
C1194 C 0.78844 0.15827 0.83277 0.0
C1195 C 0.82697 0.17213 0.85685 0.0
C1196 C 0.85881 0.17647 0.86443 0.0
C1197 C 0.82012 0.16249 0.84032 0.0
C1198 C 0.88376 0.17096 0.85521 0.0
C1199 C 0.87714 0.16138 0.83875 0.0
H1200 H 0.70843 0.82187 0.14373 0.0
H1201 H 0.62555 0.84859 0.13025 0.0
H1202 H 0.62489 0.86888 0.15798 0.0
H1203 H 0.64565 0.87641 0.18647 0.0
H1204 H 0.72488 0.84539 0.20042 0.0
H1205 H 0.72877 0.82887 0.17217 0.0
C1206 C 0.68991 0.83175 0.14685 0.0
C1207 C 0.66712 0.83366 0.13482 0.0
C1208 C 0.68894 0.84253 0.16295 0.0
C1209 C 0.64388 0.84731 0.13912 0.0
C1210 C 0.64324 0.8587 0.15504 0.0
C1211 C 0.66403 0.86641 0.18323 0.0
C1212 C 0.68504 0.86219 0.19539 0.0
C1213 C 0.66547 0.85622 0.16707 0.0
C1214 C 0.70839 0.84871 0.19119 0.0
C1215 C 0.71061 0.83929 0.17508 0.0
H1216 H 0.78478 0.62733 0.52297 0.0
H1217 H 0.87482 0.73611 0.53214 0.0
H1218 H 0.89649 0.73964 0.50422 0.0
H1219 H 0.88905 0.71228 0.47694 0.0
H1220 H 0.79788 0.60428 0.46773 0.0
H1221 H 0.7771 0.60028 0.49584 0.0
C1222 C 0.80889 0.65202 0.51883 0.0
C1223 C 0.82805 0.68142 0.52965 0.0
C1224 C 0.82097 0.65404 0.50272 0.0
C1225 C 0.85973 0.71288 0.52414 0.0
C1226 C 0.87206 0.71501 0.50814 0.0
C1227 C 0.86483 0.68778 0.48116 0.0
C1228 C 0.845 0.65865 0.4703 0.0
C1229 C 0.85288 0.68577 0.49732 0.0
C1230 C 0.8134 0.62722 0.47584 0.0
C1231 C 0.80157 0.62486 0.49191 0.0
H1232 H 0.19089 0.81737 0.86261 0.0
H1233 H 0.0868 0.8127 0.8577 0.0
H1234 H 0.10052 0.83163 0.82922 0.0
H1235 H 0.1426 0.85071 0.8059 0.0
H1236 H 0.24673 0.85546 0.81091 0.0
H1237 H 0.23293 0.83647 0.83936 0.0
C1238 C 0.17132 0.8208 0.85536 0.0
C1239 C 0.13787 0.81363 0.86231 0.0
C1240 C 0.17954 0.83207 0.83907 0.0
C1241 C 0.11254 0.81756 0.85263 0.0
C1242 C 0.12048 0.82866 0.83637 0.0
C1243 C 0.16217 0.84732 0.81318 0.0
C1244 C 0.19567 0.85455 0.80627 0.0
C1245 C 0.15392 0.83605 0.82948 0.0
C1246 C 0.22096 0.85059 0.81596 0.0
C1247 C 0.21298 0.83946 0.8322 0.0
H1248 H 0.27177 0.96726 0.96885 0.0
H1249 H 0.27062 0.91218 0.01334 0.0
H1250 H 0.3118 0.97115 0.02613 0.0
H1251 H 0.3406 0.03828 0.02582 0.0
H1252 H 0.33498 0.09223 0.982 0.0
H1253 H 0.30508 0.03406 0.96776 0.0
C1254 C 0.28075 0.96814 0.98132 0.0
C1255 C 0.26757 0.93544 0.99023 0.0
C1256 C 0.30325 0.00207 0.98875 0.0
C1257 C 0.28029 0.93693 0.00621 0.0
C1258 C 0.30361 0.97069 0.01357 0.0
C1259 C 0.33303 0.03743 0.01313 0.0
C1260 C 0.33969 0.06985 0.00517 0.0
C1261 C 0.31408 0.00346 0.00515 0.0
C1262 C 0.33067 0.0681 0.98854 0.0
C1263 C 0.31304 0.03463 0.98037 0.0
H1264 H 0.29085 0.35519 0.3298 0.0
H1265 H 0.24804 0.28325 0.37141 0.0
H1266 H 0.28023 0.25165 0.363 0.0
H1267 H 0.31496 0.2401 0.34252 0.0
H1268 H 0.35831 0.31116 0.30067 0.0
H1269 H 0.3312 0.3471 0.31041 0.0
C1270 C 0.28891 0.33283 0.33708 0.0
C1271 C 0.26714 0.32177 0.35124 0.0
C1272 C 0.30723 0.3143 0.33206 0.0
C1273 C 0.26505 0.29283 0.36061 0.0
C1274 C 0.28321 0.27446 0.35574 0.0
C1275 C 0.31949 0.26405 0.33571 0.0
C1276 C 0.33854 0.27268 0.32081 0.0
C1277 C 0.30376 0.28448 0.34133 0.0
C1278 C 0.34333 0.30349 0.31206 0.0
C1279 C 0.32787 0.32411 0.31763 0.0
H1280 H 0.92403 0.23686 0.65593 0.0
H1281 H 0.95391 0.31044 0.69691 0.0
H1282 H 0.01634 0.34612 0.68634 0.0
H1283 H 0.06365 0.35281 0.66668 0.0
H1284 H 0.0328 0.2764 0.62664 0.0
H1285 H 0.96942 0.2464 0.63534 0.0
C1286 C 0.94384 0.2613 0.66234 0.0
C1287 C 0.93431 0.27091 0.6772 0.0
C1288 C 0.97968 0.2812 0.65637 0.0
C1289 C 0.96065 0.30226 0.6855 0.0
C1290 C 0.99635 0.32265 0.67947 0.0
C1291 C 0.04303 0.32973 0.65981 0.0
C1292 C 0.05324 0.31707 0.646 0.0
C1293 C 0.00643 0.31174 0.66514 0.0
C1294 C 0.02593 0.28735 0.63714 0.0
C1295 C 0.98957 0.26981 0.64219 0.0
H1296 H 0.64866 0.9534 0.02115 0.0
H1297 H 0.67498 0.90948 0.97901 0.0
H1298 H 0.70216 0.96891 0.96575 0.0
H1299 H 0.72736 0.03506 0.96788 0.0
H1300 H 0.70612 0.08051 0.01082 0.0
H1301 H 0.66874 0.01898 0.02212 0.0
C1302 C 0.6601 0.95672 0.00901 0.0
C1303 C 0.6601 0.92692 0.00124 0.0
C1304 C 0.67724 0.99148 0.0017 0.0
C1305 C 0.67419 0.93163 0.98531 0.0
C1306 C 0.69022 0.96583 0.97776 0.0
C1307 C 0.7137 0.03147 0.9795 0.0
C1308 C 0.71961 0.0623 0.98854 0.0
C1309 C 0.69313 0.99619 0.98608 0.0
C1310 C 0.70223 0.05719 0.00371 0.0
C1311 C 0.68089 0.02204 0.01017 0.0
H1312 H 0.64499 0.70534 0.33323 0.0
H1313 H 0.71908 0.75173 0.29247 0.0
H1314 H 0.75055 0.71931 0.30059 0.0
H1315 H 0.76213 0.68426 0.32096 0.0
H1316 H 0.69039 0.6394 0.36247 0.0
H1317 H 0.65326 0.66498 0.35244 0.0
C1318 C 0.66784 0.70812 0.32607 0.0
C1319 C 0.67952 0.73103 0.31226 0.0
C1320 C 0.68659 0.69 0.33103 0.0
C1321 C 0.70895 0.7339 0.303 0.0
C1322 C 0.72731 0.71562 0.30772 0.0
C1323 C 0.73777 0.67911 0.3276 0.0
C1324 C 0.7292 0.6601 0.34249 0.0
C1325 C 0.71697 0.69436 0.32192 0.0
C1326 C 0.69785 0.65432 0.35106 0.0
C1327 C 0.67662 0.66896 0.34534 0.0
H1328 H 0.06469 0.72003 0.66389 0.0
H1329 H 0.03771 0.744 0.71147 0.0
H1330 H 0.97318 0.7097 0.70485 0.0
H1331 H 0.9248 0.67999 0.68456 0.0
H1332 H 0.95196 0.66294 0.63581 0.0
H1333 H 0.01545 0.68685 0.64396 0.0
C1334 C 0.04477 0.71774 0.67285 0.0
C1335 C 0.05653 0.73496 0.68814 0.0
C1336 C 0.00744 0.69929 0.66872 0.0
C1337 C 0.02994 0.73073 0.69968 0.0
C1338 C 0.99279 0.71141 0.69586 0.0
C1339 C 0.94454 0.68136 0.6757 0.0
C1340 C 0.93354 0.67012 0.65954 0.0
C1341 C 0.98135 0.69666 0.68025 0.0
C1342 C 0.95939 0.67113 0.64838 0.0
C1343 C 0.99591 0.68522 0.65298 0.0
H1344 H 0.08708 0.24409 0.97739 0.0
H1345 H 0.00935 0.14764 0.0037 0.0
H1346 H 0.05945 0.14272 0.01602 0.0
H1347 H 0.12558 0.16782 0.02042 0.0
H1348 H 0.20275 0.26551 0.99471 0.0
H1349 H 0.1526 0.26839 0.98135 0.0
C1350 C 0.08104 0.22212 0.98592 0.0
C1351 C 0.04448 0.19644 0.98968 0.0
C1352 C 0.1099 0.21986 0.99318 0.0
C1353 C 0.03721 0.16763 0.00046 0.0
C1354 C 0.06585 0.16494 0.00761 0.0
C1355 C 0.13134 0.1895 0.01177 0.0
C1356 C 0.16777 0.21656 0.00865 0.0
C1357 C 0.10232 0.19113 0.00419 0.0
C1358 C 0.1749 0.24468 0.99751 0.0
C1359 C 0.14627 0.24626 0.9898 0.0
H1360 H 0.86762 0.06003 0.30727 0.0
H1361 H 0.79871 0.04502 0.3488 0.0
H1362 H 0.85027 0.09516 0.36301 0.0
H1363 H 0.91463 0.14357 0.36351 0.0
H1364 H 0.98304 0.15997 0.32156 0.0
H1365 H 0.93228 0.10811 0.3079 0.0
C1366 C 0.864 0.06751 0.31949 0.0
C1367 C 0.82937 0.04893 0.32694 0.0
C1368 C 0.89373 0.09639 0.32758 0.0
C1369 C 0.82497 0.05923 0.34271 0.0
C1370 C 0.85448 0.08774 0.35088 0.0
C1371 C 0.91843 0.13601 0.35133 0.0
C1372 C 0.95268 0.15579 0.3436 0.0
C1373 C 0.88891 0.10666 0.34338 0.0
C1374 C 0.9572 0.14501 0.32794 0.0
C1375 C 0.92807 0.11553 0.32003 0.0
H1376 H 0.82809 0.86563 0.65856 0.0
H1377 H 0.71013 0.80346 0.6562 0.0
H1378 H 0.70652 0.85353 0.66917 0.0
H1379 H 0.73663 0.91495 0.68106 0.0
H1380 H 0.85444 0.97741 0.68365 0.0
H1381 H 0.85828 0.92674 0.67119 0.0
C1382 C 0.80158 0.86289 0.66103 0.0
C1383 C 0.76946 0.83091 0.65627 0.0
C1384 C 0.79965 0.89171 0.66864 0.0
C1385 C 0.73534 0.82801 0.65942 0.0
C1386 C 0.7332 0.85653 0.66696 0.0
C1387 C 0.76317 0.91756 0.67882 0.0
C1388 C 0.7952 0.94996 0.68319 0.0
C1389 C 0.76516 0.88854 0.67154 0.0
C1390 C 0.82936 0.95263 0.68052 0.0
C1391 C 0.83158 0.92378 0.6733 0.0
H1392 H 0.83587 0.74675 0.0233 0.0
H1393 H 0.85484 0.84358 0.99728 0.0
H1394 H 0.90793 0.84664 0.98376 0.0
H1395 H 0.94767 0.82052 0.97865 0.0
H1396 H 0.92862 0.72386 0.00492 0.0
H1397 H 0.87634 0.72155 0.01871 0.0
C1398 C 0.85152 0.76841 0.0146 0.0
C1399 C 0.84138 0.79482 0.01127 0.0
C1400 C 0.88179 0.76985 0.00681 0.0
C1401 C 0.8623 0.82311 0.00018 0.0
C1402 C 0.89251 0.82474 0.99237 0.0
C1403 C 0.93231 0.79917 0.98751 0.0
C1404 C 0.94193 0.77226 0.99063 0.0
C1405 C 0.90239 0.79815 0.99552 0.0
C1406 C 0.92144 0.74453 0.00203 0.0
C1407 C 0.89167 0.74332 0.01003 0.0
H1408 H 0.06955 0.87091 0.36284 0.0
H1409 H 0.03329 0.81273 0.31726 0.0
H1410 H 0.0838 0.86396 0.30297 0.0
H1411 H 0.13886 0.92454 0.30358 0.0
H1412 H 0.1776 0.98099 0.34954 0.0
H1413 H 0.125 0.9317 0.36343 0.0
C1414 C 0.0726 0.8697 0.34976 0.0
C1415 C 0.04788 0.8382 0.34109 0.0
C1416 C 0.10202 0.89897 0.34169 0.0
C1417 C 0.05225 0.83665 0.32418 0.0
C1418 C 0.08102 0.86593 0.31602 0.0
C1419 C 0.13608 0.926 0.31666 0.0
C1420 C 0.16234 0.95659 0.32543 0.0
C1421 C 0.10629 0.89706 0.32468 0.0
C1422 C 0.15764 0.95818 0.34235 0.0
C1423 C 0.12769 0.9298 0.35037 0.0
H1424 H 0.25432 0.073 0.668 0.0
H1425 H 0.15894 0.04754 0.6968 0.0
H1426 H 0.15514 0.09786 0.68393 0.0
H1427 H 0.17996 0.15003 0.66497 0.0
H1428 H 0.27515 0.17491 0.6361 0.0
H1429 H 0.27836 0.12422 0.64875 0.0
C1430 C 0.2329 0.07869 0.67158 0.0
C1431 C 0.2071 0.05675 0.68342 0.0
C1432 C 0.23092 0.10759 0.66415 0.0
C1433 C 0.17902 0.06393 0.68766 0.0
C1434 C 0.17692 0.09276 0.68034 0.0
C1435 C 0.20113 0.14408 0.6613 0.0
C1436 C 0.22734 0.16631 0.64964 0.0
C1437 C 0.20277 0.1148 0.66859 0.0
C1438 C 0.25493 0.15854 0.6452 0.0
C1439 C 0.2567 0.12947 0.65237 0.0
loop_
_geom_bond_atom_site_label_1
_geom_bond_atom_site_label_2
_geom_bond_distance
_geom_bond_site_symmetry_2
_ccdc_geom_bond_type
Li0 N17 1.990 . S
Li0 O60 1.956 . S
Li0 O61 1.970 . S
Li0 O62 1.961 . S
Li1 N25 1.990 . S
Li1 O60 1.970 . S
Li1 O61 1.956 . S
Li1 O63 1.961 . S
Li2 N47 1.990 . S
Li2 O60 1.961 . S
Li2 O62 1.956 . S
Li2 O63 1.970 . S
Li3 N53 1.990 . S
Li3 O61 1.961 . S
Li3 O62 1.970 . S
Li3 O63 1.956 . S
C4 C6 1.348 . S
C4 C7 1.356 . S
C4 O60 1.325 . S
N5 C8 1.314 . S
N5 C9 1.279 . S
C6 C4 1.348 . S
C6 C8 1.353 . S
C6 H64 0.929 . S
C7 C4 1.356 . S
C7 C9 1.358 . S
C7 H65 0.930 . S
C8 N5 1.314 . S
C8 C6 1.353 . S
C8 H66 0.930 . S
C9 N5 1.279 . S
C9 C7 1.358 . S
C9 H67 0.930 . S
C10 C13 1.348 . S
C10 C14 1.356 . S
C10 O61 1.325 . S
C11 N12 1.279 . S
C11 C14 1.358 . S
C11 H68 0.930 . S
N12 C11 1.279 . S
N12 C15 1.314 . S
C13 C10 1.348 . S
C13 C15 1.353 . S
C13 H69 0.929 . S
C14 C10 1.356 . S
C14 C11 1.358 . S
C14 H70 0.930 . S
C15 N12 1.314 . S
C15 C13 1.353 . S
C15 H71 0.930 . S
C16 N17 1.314 . S
C16 C21 1.353 . S
C16 H22 0.930 . S
N17 Li0 1.990 . S
N17 C16 1.314 . S
N17 C19 1.279 . S
C18 C19 1.358 . S
C18 C20 1.356 . S
C18 H72 0.930 . S
C19 N17 1.279 . S
C19 C18 1.358 . S
C19 H23 0.930 . S
C20 C18 1.356 . S
C20 C21 1.348 . S
C21 C16 1.353 . S
C21 C20 1.348 . S
C21 H73 0.929 . S
H22 C16 0.930 . S
H23 C19 0.930 . S
C24 N25 1.314 . S
C24 C26 1.353 . S
C24 H30 0.930 . S
N25 Li1 1.990 . S
N25 C24 1.314 . S
N25 C28 1.279 . S
C26 C24 1.353 . S
C26 C29 1.348 . S
C26 H74 0.929 . S
C27 C28 1.358 . S
C27 C29 1.356 . S
C27 H75 0.930 . S
C28 N25 1.279 . S
C28 C27 1.358 . S
C28 H31 0.930 . S
C29 C26 1.348 . S
C29 C27 1.356 . S
H30 C24 0.930 . S
H31 C28 0.930 . S
C32 C34 1.348 1_554 S
C32 C35 1.356 1_554 S
C32 O62 1.325 . S
N33 C36 1.314 . S
N33 C37 1.279 . S
C34 C32 1.348 1_556 S
C34 C36 1.353 . S
C34 H76 0.929 1_556 S
C35 C32 1.356 1_556 S
C35 C37 1.358 . S
C35 H77 0.930 1_556 S
C36 N33 1.314 . S
C36 C34 1.353 . S
C36 H78 0.930 . S
C37 N33 1.279 . S
C37 C35 1.358 . S
C37 H79 0.930 . S
C38 C39 1.348 . S
C38 C40 1.356 . S
C38 O63 1.325 . S
C39 C38 1.348 . S
C39 C41 1.353 . S
C39 H80 0.929 . S
C40 C38 1.356 . S
C40 C42 1.358 . S
C40 H81 0.930 . S
C41 C39 1.353 . S
C41 N43 1.314 . S
C41 H82 0.930 . S
C42 C40 1.358 . S
C42 N43 1.279 . S
C42 H83 0.930 . S
N43 C41 1.314 . S
N43 C42 1.279 . S
C44 C46 1.353 . S
C44 N47 1.314 . S
C44 H50 0.930 . S
C45 N47 1.279 . S
C45 C48 1.358 1_554 S
C45 H51 0.930 1_554 S
C46 C44 1.353 . S
C46 C49 1.392 . S
C46 H84 0.929 . S
N47 Li2 1.990 . S
N47 C44 1.314 . S
N47 C45 1.279 . S
C48 C45 1.358 1_556 S
C48 C49 1.337 1_556 S
C48 H85 0.930 . S
C49 C46 1.392 . S
C49 C48 1.337 1_554 S
H50 C44 0.930 . S
H51 C45 0.930 1_556 S
C52 N53 1.314 . S
C52 C54 1.353 . S
C52 H58 0.930 . S
N53 Li3 1.990 . S
N53 C52 1.314 . S
N53 C56 1.279 . S
C54 C52 1.353 . S
C54 C57 1.348 . S
C54 H86 0.929 . S
C55 C56 1.358 . S
C55 C57 1.356 . S
C55 H87 0.930 . S
C56 N53 1.279 . S
C56 C55 1.358 . S
C56 H59 0.930 . S
C57 C54 1.348 . S
C57 C55 1.356 . S
H58 C52 0.930 . S
H59 C56 0.930 . S
O60 Li0 1.956 . S
O60 Li1 1.970 . S
O60 Li2 1.961 . S
O60 C4 1.325 . S
O61 Li0 1.970 . S
O61 Li1 1.956 . S
O61 Li3 1.961 . S
O61 C10 1.325 . S
O62 Li0 1.961 . S
O62 Li2 1.956 . S
O62 Li3 1.970 . S
O62 C32 1.325 . S
O63 Li1 1.961 . S
O63 Li2 1.970 . S
O63 Li3 1.956 . S
O63 C38 1.325 . S
H64 C6 0.929 . S
H65 C7 0.930 . S
H66 C8 0.930 . S
H67 C9 0.930 . S
H68 C11 0.930 . S
H69 C13 0.929 . S
H70 C14 0.930 . S
H71 C15 0.930 . S
H72 C18 0.930 . S
H73 C21 0.929 . S
H74 C26 0.929 . S
H75 C27 0.930 . S
H76 C34 0.929 1_554 S
H77 C35 0.930 1_554 S
H78 C36 0.930 . S
H79 C37 0.930 . S
H80 C39 0.929 . S
H81 C40 0.930 . S
H82 C41 0.930 . S
H83 C42 0.930 . S
H84 C46 0.929 . S
H85 C48 0.930 . S
H86 C54 0.929 . S
H87 C55 0.930 . S
Li88 N105 1.990 . S
Li88 O148 1.956 . S
Li88 O149 1.970 . S
Li88 O150 1.961 . S
Li89 N113 1.990 . S
Li89 O148 1.970 . S
Li89 O149 1.956 . S
Li89 O151 1.961 . S
Li90 N135 1.990 . S
Li90 O148 1.961 . S
Li90 O150 1.956 . S
Li90 O151 1.970 . S
Li91 N141 1.990 . S
Li91 O149 1.961 . S
Li91 O150 1.970 . S
Li91 O151 1.956 . S
C92 C94 1.348 . S
C92 C95 1.356 . S
C92 O148 1.325 . S
N93 C96 1.314 . S
N93 C97 1.279 . S
C94 C92 1.348 . S
C94 C96 1.353 . S
C94 H152 0.929 . S
C95 C92 1.356 . S
C95 C97 1.358 . S
C95 H153 0.930 . S
C96 N93 1.314 . S
C96 C94 1.353 . S
C96 H154 0.930 . S
C97 N93 1.279 . S
C97 C95 1.358 . S
C97 H155 0.930 . S
C98 C101 1.348 . S
C98 C102 1.356 . S
C98 O149 1.325 . S
C99 N100 1.279 . S
C99 C102 1.358 1_655 S
C99 H156 0.930 . S
N100 C99 1.279 . S
N100 C103 1.314 1_655 S
C101 C98 1.348 . S
C101 C103 1.353 . S
C101 H157 0.929 . S
C102 C98 1.356 . S
C102 C99 1.358 1_455 S
C102 H158 0.930 . S
C103 N100 1.314 1_455 S
C103 C101 1.353 . S
C103 H159 0.930 . S
C104 N105 1.314 . S
C104 C109 1.353 . S
C104 H110 0.930 . S
N105 Li88 1.990 . S
N105 C104 1.314 . S
N105 C107 1.279 . S
C106 C107 1.358 . S
C106 C108 1.356 . S
C106 H160 0.930 . S
C107 N105 1.279 . S
C107 C106 1.358 . S
C107 H111 0.930 . S
C108 C106 1.356 . S
C108 C109 1.348 . S
C109 C104 1.353 . S
C109 C108 1.348 . S
C109 H161 0.929 . S
H110 C104 0.930 . S
H111 C107 0.930 . S
C112 N113 1.314 . S
C112 C114 1.353 . S
C112 H118 0.930 . S
N113 Li89 1.990 . S
N113 C112 1.314 . S
N113 C116 1.279 . S
C114 C112 1.353 . S
C114 C117 1.348 . S
C114 H162 0.929 . S
C115 C116 1.358 . S
C115 C117 1.356 . S
C115 H163 0.930 . S
C116 N113 1.279 . S
C116 C115 1.358 . S
C116 H119 0.930 . S
C117 C114 1.348 . S
C117 C115 1.356 . S
H118 C112 0.930 . S
H119 C116 0.930 . S
C120 C122 1.348 . S
C120 C123 1.356 . S
C120 O150 1.325 . S
N121 C124 1.314 . S
N121 C125 1.279 . S
C122 C120 1.348 . S
C122 C124 1.353 . S
C122 H164 0.929 . S
C123 C120 1.356 . S
C123 C125 1.358 . S
C123 H165 0.930 . S
C124 N121 1.314 . S
C124 C122 1.353 . S
C124 H166 0.930 . S
C125 N121 1.279 . S
C125 C123 1.358 . S
C125 H167 0.930 . S
C126 C127 1.348 . S
C126 C128 1.356 . S
C126 O151 1.325 . S
C127 C126 1.348 . S
C127 C129 1.353 . S
C127 H168 0.929 . S
C128 C126 1.356 . S
C128 C130 1.358 . S
C128 H169 0.930 . S
C129 C127 1.353 . S
C129 N131 1.314 . S
C129 H170 0.930 . S
C130 C128 1.358 . S
C130 N131 1.279 . S
C130 H171 0.930 . S
N131 C129 1.314 . S
N131 C130 1.279 . S
C132 C134 1.353 . S
C132 N135 1.314 . S
C132 H138 0.930 . S
C133 N135 1.279 . S
C133 C136 1.358 . S
C133 H139 0.930 . S
C134 C132 1.353 . S
C134 C137 1.348 . S
C134 H172 0.929 . S
N135 Li90 1.990 . S
N135 C132 1.314 . S
N135 C133 1.279 . S
C136 C133 1.358 . S
C136 C137 1.356 . S
C136 H173 0.930 . S
C137 C134 1.348 . S
C137 C136 1.356 . S
H138 C132 0.930 . S
H139 C133 0.930 . S
C140 N141 1.314 1_655 S
C140 C142 1.353 . S
C140 H146 0.930 . S
N141 Li91 1.990 . S
N141 C140 1.314 1_455 S
N141 C144 1.279 . S
C142 C140 1.353 . S
C142 C145 1.348 . S
C142 H174 0.929 . S
C143 C144 1.358 1_655 S
C143 C145 1.356 . S
C143 H175 0.930 . S
C144 N141 1.279 . S
C144 C143 1.358 1_455 S
C144 H147 0.930 . S
C145 C142 1.348 . S
C145 C143 1.356 . S
H146 C140 0.930 . S
H147 C144 0.930 . S
O148 Li88 1.956 . S
O148 Li89 1.970 . S
O148 Li90 1.961 . S
O148 C92 1.325 . S
O149 Li88 1.970 . S
O149 Li89 1.956 . S
O149 Li91 1.961 . S
O149 C98 1.325 . S
O150 Li88 1.961 . S
O150 Li90 1.956 . S
O150 Li91 1.970 . S
O150 C120 1.325 . S
O151 Li89 1.961 . S
O151 Li90 1.970 . S
O151 Li91 1.956 . S
O151 C126 1.325 . S
H152 C94 0.929 . S
H153 C95 0.930 . S
H154 C96 0.930 . S
H155 C97 0.930 . S
H156 C99 0.930 . S
H157 C101 0.929 . S
H158 C102 0.930 . S
H159 C103 0.930 . S
H160 C106 0.930 . S
H161 C109 0.929 . S
H162 C114 0.929 . S
H163 C115 0.930 . S
H164 C122 0.929 . S
H165 C123 0.930 . S
H166 C124 0.930 . S
H167 C125 0.930 . S
H168 C127 0.929 . S
H169 C128 0.930 . S
H170 C129 0.930 . S
H171 C130 0.930 . S
H172 C134 0.929 . S
H173 C136 0.930 . S
H174 C142 0.929 . S
H175 C143 0.930 . S
Li176 N193 1.990 . S
Li176 O236 1.956 . S
Li176 O237 1.970 . S
Li176 O238 1.961 . S
Li177 N201 1.990 . S
Li177 O236 1.970 . S
Li177 O237 1.956 . S
Li177 O239 1.961 . S
Li178 N223 1.990 . S
Li178 O236 1.961 . S
Li178 O238 1.956 . S
Li178 O239 1.970 . S
Li179 N229 1.990 . S
Li179 O237 1.961 . S
Li179 O238 1.970 . S
Li179 O239 1.956 . S
C180 C182 1.348 . S
C180 C183 1.356 . S
C180 O236 1.325 . S
N181 C184 1.314 1_565 S
N181 C185 1.279 . S
C182 C180 1.348 . S
C182 C184 1.353 . S
C182 H240 0.929 . S
C183 C180 1.356 . S
C183 C185 1.358 1_545 S
C183 H241 0.930 . S
C184 N181 1.314 1_545 S
C184 C182 1.353 . S
C184 H242 0.930 . S
C185 N181 1.279 . S
C185 C183 1.358 1_565 S
C185 H243 0.930 . S
C186 C189 1.348 . S
C186 C190 1.356 . S
C186 O237 1.325 . S
C187 N188 1.279 . S
C187 C190 1.358 . S
C187 H244 0.930 . S
N188 C187 1.279 . S
N188 C191 1.314 . S
C189 C186 1.348 . S
C189 C191 1.353 . S
C189 H245 0.929 . S
C190 C186 1.356 . S
C190 C187 1.358 . S
C190 H246 0.930 . S
C191 N188 1.314 . S
C191 C189 1.353 . S
C191 H247 0.930 . S
C192 N193 1.314 . S
C192 C197 1.353 . S
C192 H198 0.930 . S
N193 Li176 1.990 . S
N193 C192 1.314 . S
N193 C195 1.279 . S
C194 C195 1.358 . S
C194 C196 1.356 . S
C194 H248 0.930 . S
C195 N193 1.279 . S
C195 C194 1.358 . S
C195 H199 0.930 . S
C196 C194 1.356 . S
C196 C197 1.348 . S
C197 C192 1.353 . S
C197 C196 1.348 . S
C197 H249 0.929 . S
H198 C192 0.930 . S
H199 C195 0.930 . S
C200 N201 1.314 . S
C200 C202 1.353 . S
C200 H206 0.930 . S
N201 Li177 1.990 . S
N201 C200 1.314 . S
N201 C204 1.279 . S
C202 C200 1.353 . S
C202 C205 1.348 . S
C202 H250 0.929 . S
C203 C204 1.358 . S
C203 C205 1.356 . S
C203 H251 0.930 . S
C204 N201 1.279 . S
C204 C203 1.358 . S
C204 H207 0.930 . S
C205 C202 1.348 . S
C205 C203 1.356 . S
H206 C200 0.930 . S
H207 C204 0.930 . S
C208 C210 1.348 . S
C208 C211 1.356 . S
C208 O238 1.325 . S
N209 C212 1.314 . S
N209 C213 1.279 . S
C210 C208 1.348 . S
C210 C212 1.353 . S
C210 H252 0.929 . S
C211 C208 1.356 . S
C211 C213 1.358 . S
C211 H253 0.930 . S
C212 N209 1.314 . S
C212 C210 1.353 . S
C212 H254 0.930 . S
C213 N209 1.279 . S
C213 C211 1.358 . S
C213 H255 0.930 . S
C214 C215 1.348 . S
C214 C216 1.356 . S
C214 O239 1.325 . S
C215 C214 1.348 . S
C215 C217 1.353 . S
C215 H256 0.929 . S
C216 C214 1.356 . S
C216 C218 1.358 . S
C216 H257 0.930 . S
C217 C215 1.353 . S
C217 N219 1.314 . S
C217 H258 0.930 . S
C218 C216 1.358 . S
C218 N219 1.279 . S
C218 H259 0.930 . S
N219 C217 1.314 . S
N219 C218 1.279 . S
C220 C222 1.353 . S
C220 N223 1.314 1_565 S
C220 H226 0.930 . S
C221 N223 1.279 . S
C221 C224 1.358 1_545 S
C221 H227 0.930 . S
C222 C220 1.353 . S
C222 C225 1.348 . S
C222 H260 0.929 . S
N223 Li178 1.990 . S
N223 C220 1.314 1_545 S
N223 C221 1.279 . S
C224 C221 1.358 1_565 S
C224 C225 1.356 . S
C224 H261 0.930 . S
C225 C222 1.348 . S
C225 C224 1.356 . S
H226 C220 0.930 . S
H227 C221 0.930 . S
C228 N229 1.314 . S
C228 C230 1.353 . S
C228 H234 0.930 . S
N229 Li179 1.990 . S
N229 C228 1.314 . S
N229 C232 1.279 . S
C230 C228 1.353 . S
C230 C233 1.348 . S
C230 H262 0.929 . S
C231 C232 1.358 . S
C231 C233 1.356 . S
C231 H263 0.930 . S
C232 N229 1.279 . S
C232 C231 1.358 . S
C232 H235 0.930 . S
C233 C230 1.348 . S
C233 C231 1.356 . S
H234 C228 0.930 . S
H235 C232 0.930 . S
O236 Li176 1.956 . S
O236 Li177 1.970 . S
O236 Li178 1.961 . S
O236 C180 1.325 . S
O237 Li176 1.970 . S
O237 Li177 1.956 . S
O237 Li179 1.961 . S
O237 C186 1.325 . S
O238 Li176 1.961 . S
O238 Li178 1.956 . S
O238 Li179 1.970 . S
O238 C208 1.325 . S
O239 Li177 1.961 . S
O239 Li178 1.970 . S
O239 Li179 1.956 . S
O239 C214 1.325 . S
H240 C182 0.929 . S
H241 C183 0.930 . S
H242 C184 0.930 . S
H243 C185 0.930 . S
H244 C187 0.930 . S
H245 C189 0.929 . S
H246 C190 0.930 . S
H247 C191 0.930 . S
H248 C194 0.930 . S
H249 C197 0.929 . S
H250 C202 0.929 . S
H251 C203 0.930 . S
H252 C210 0.929 . S
H253 C211 0.930 . S
H254 C212 0.930 . S
H255 C213 0.930 . S
H256 C215 0.929 . S
H257 C216 0.930 . S
H258 C217 0.930 . S
H259 C218 0.930 . S
H260 C222 0.929 . S
H261 C224 0.930 . S
H262 C230 0.929 . S
H263 C231 0.930 . S
Li264 N281 1.990 . S
Li264 O324 1.956 . S
Li264 O325 1.970 . S
Li264 O326 1.961 . S
Li265 N289 1.990 . S
Li265 O324 1.970 . S
Li265 O325 1.956 . S
Li265 O327 1.961 . S
Li266 N311 1.990 . S
Li266 O324 1.961 . S
Li266 O326 1.956 . S
Li266 O327 1.970 . S
Li267 N317 1.990 . S
Li267 O325 1.961 . S
Li267 O326 1.970 . S
Li267 O327 1.956 . S
C268 C270 1.348 . S
C268 C271 1.356 . S
C268 O324 1.325 . S
N269 C272 1.314 . S
N269 C273 1.279 . S
C270 C268 1.348 . S
C270 C272 1.353 . S
C270 H328 0.929 . S
C271 C268 1.356 . S
C271 C273 1.358 . S
C271 H329 0.930 . S
C272 N269 1.314 . S
C272 C270 1.353 . S
C272 H330 0.930 . S
C273 N269 1.279 . S
C273 C271 1.358 . S
C273 H331 0.930 . S
C274 C277 1.348 . S
C274 C278 1.356 . S
C274 O325 1.325 . S
C275 N276 1.279 . S
C275 C278 1.358 . S
C275 H332 0.930 . S
N276 C275 1.279 . S
N276 C279 1.314 . S
C277 C274 1.348 . S
C277 C279 1.353 . S
C277 H333 0.929 . S
C278 C274 1.356 . S
C278 C275 1.358 . S
C278 H334 0.930 . S
C279 N276 1.314 . S
C279 C277 1.353 . S
C279 H335 0.930 . S
C280 N281 1.314 . S
C280 C285 1.353 . S
C280 H286 0.930 . S
N281 Li264 1.990 . S
N281 C280 1.314 . S
N281 C283 1.279 . S
C282 C283 1.358 . S
C282 C284 1.356 . S
C282 H336 0.930 . S
C283 N281 1.279 . S
C283 C282 1.358 . S
C283 H287 0.930 . S
C284 C282 1.356 . S
C284 C285 1.348 . S
C285 C280 1.353 . S
C285 C284 1.348 . S
C285 H337 0.929 . S
H286 C280 0.930 . S
H287 C283 0.930 . S
C288 N289 1.314 . S
C288 C290 1.353 . S
C288 H294 0.930 . S
N289 Li265 1.990 . S
N289 C288 1.314 . S
N289 C292 1.279 . S
C290 C288 1.353 . S
C290 C293 1.348 . S
C290 H338 0.929 . S
C291 C292 1.358 . S
C291 C293 1.356 . S
C291 H339 0.930 . S
C292 N289 1.279 . S
C292 C291 1.358 . S
C292 H295 0.930 . S
C293 C290 1.348 . S
C293 C291 1.356 . S
H294 C288 0.930 . S
H295 C292 0.930 . S
C296 C298 1.348 . S
C296 C299 1.356 . S
C296 O326 1.325 . S
N297 C300 1.314 . S
N297 C301 1.279 . S
C298 C296 1.348 . S
C298 C300 1.353 . S
C298 H340 0.929 . S
C299 C296 1.356 . S
C299 C301 1.358 . S
C299 H341 0.930 . S
C300 N297 1.314 . S
C300 C298 1.353 . S
C300 H342 0.930 . S
C301 N297 1.279 . S
C301 C299 1.358 . S
C301 H343 0.930 . S
C302 C303 1.348 1_554 S
C302 C304 1.356 1_554 S
C302 O327 1.325 . S
C303 C302 1.348 1_556 S
C303 C305 1.353 . S
C303 H344 0.929 1_556 S
C304 C302 1.356 1_556 S
C304 C306 1.358 . S
C304 H345 0.930 1_556 S
C305 C303 1.353 . S
C305 N307 1.314 . S
C305 H346 0.930 . S
C306 C304 1.358 . S
C306 N307 1.279 . S
C306 H347 0.930 . S
N307 C305 1.314 . S
N307 C306 1.279 . S
C308 C310 1.353 . S
C308 N311 1.314 . S
C308 H314 0.930 . S
C309 N311 1.279 . S
C309 C312 1.358 . S
C309 H315 0.930 . S
C310 C308 1.353 . S
C310 C313 1.348 . S
C310 H348 0.929 . S
N311 Li266 1.990 . S
N311 C308 1.314 . S
N311 C309 1.279 . S
C312 C309 1.358 . S
C312 C313 1.356 . S
C312 H349 0.930 . S
C313 C310 1.348 . S
C313 C312 1.356 . S
H314 C308 0.930 . S
H315 C309 0.930 . S
C316 N317 1.314 . S
C316 C318 1.353 . S
C316 H322 0.930 . S
N317 Li267 1.990 . S
N317 C316 1.314 . S
N317 C320 1.279 . S
C318 C316 1.353 . S
C318 C321 1.392 . S
C318 H350 0.929 . S
C319 C320 1.358 1_556 S
C319 C321 1.337 1_556 S
C319 H351 0.930 . S
C320 N317 1.279 . S
C320 C319 1.358 1_554 S
C320 H323 0.930 1_554 S
C321 C318 1.392 . S
C321 C319 1.337 1_554 S
H322 C316 0.930 . S
H323 C320 0.930 1_556 S
O324 Li264 1.956 . S
O324 Li265 1.970 . S
O324 Li266 1.961 . S
O324 C268 1.325 . S
O325 Li264 1.970 . S
O325 Li265 1.956 . S
O325 Li267 1.961 . S
O325 C274 1.325 . S
O326 Li264 1.961 . S
O326 Li266 1.956 . S
O326 Li267 1.970 . S
O326 C296 1.325 . S
O327 Li265 1.961 . S
O327 Li266 1.970 . S
O327 Li267 1.956 . S
O327 C302 1.325 . S
H328 C270 0.929 . S
H329 C271 0.930 . S
H330 C272 0.930 . S
H331 C273 0.930 . S
H332 C275 0.930 . S
H333 C277 0.929 . S
H334 C278 0.930 . S
H335 C279 0.930 . S
H336 C282 0.930 . S
H337 C285 0.929 . S
H338 C290 0.929 . S
H339 C291 0.930 . S
H340 C298 0.929 . S
H341 C299 0.930 . S
H342 C300 0.930 . S
H343 C301 0.930 . S
H344 C303 0.929 1_554 S
H345 C304 0.930 1_554 S
H346 C305 0.930 . S
H347 C306 0.930 . S
H348 C310 0.929 . S
H349 C312 0.930 . S
H350 C318 0.929 . S
H351 C319 0.930 . S
Li352 N369 1.990 . S
Li352 O412 1.956 . S
Li352 O413 1.970 . S
Li352 O414 1.961 . S
Li353 N377 1.990 . S
Li353 O412 1.970 . S
Li353 O413 1.956 . S
Li353 O415 1.961 . S
Li354 N399 1.990 . S
Li354 O412 1.961 . S
Li354 O414 1.956 . S
Li354 O415 1.970 . S
Li355 N405 1.990 . S
Li355 O413 1.961 . S
Li355 O414 1.970 . S
Li355 O415 1.956 . S
C356 C358 1.348 . S
C356 C359 1.356 . S
C356 O412 1.325 . S
N357 C360 1.314 . S
N357 C361 1.279 . S
C358 C356 1.348 . S
C358 C360 1.353 . S
C358 H416 0.929 . S
C359 C356 1.356 . S
C359 C361 1.358 . S
C359 H417 0.930 . S
C360 N357 1.314 . S
C360 C358 1.353 . S
C360 H418 0.930 . S
C361 N357 1.279 . S
C361 C359 1.358 . S
C361 H419 0.930 . S
C362 C365 1.348 . S
C362 C366 1.356 . S
C362 O413 1.325 . S
C363 N364 1.279 . S
C363 C366 1.358 1_455 S
C363 H420 0.930 . S
N364 C363 1.279 . S
N364 C367 1.314 1_455 S
C365 C362 1.348 . S
C365 C367 1.353 . S
C365 H421 0.929 . S
C366 C362 1.356 . S
C366 C363 1.358 1_655 S
C366 H422 0.930 . S
C367 N364 1.314 1_655 S
C367 C365 1.353 . S
C367 H423 0.930 . S
C368 N369 1.314 . S
C368 C373 1.353 . S
C368 H374 0.930 . S
N369 Li352 1.990 . S
N369 C368 1.314 . S
N369 C371 1.279 . S
C370 C371 1.358 . S
C370 C372 1.356 . S
C370 H424 0.930 . S
C371 N369 1.279 . S
C371 C370 1.358 . S
C371 H375 0.930 . S
C372 C370 1.356 . S
C372 C373 1.348 . S
C373 C368 1.353 . S
C373 C372 1.348 . S
C373 H425 0.929 . S
H374 C368 0.930 . S
H375 C371 0.930 . S
C376 N377 1.314 . S
C376 C378 1.353 . S
C376 H382 0.930 . S
N377 Li353 1.990 . S
N377 C376 1.314 . S
N377 C380 1.279 . S
C378 C376 1.353 . S
C378 C381 1.348 . S
C378 H426 0.929 . S
C379 C380 1.358 . S
C379 C381 1.356 . S
C379 H427 0.930 . S
C380 N377 1.279 . S
C380 C379 1.358 . S
C380 H383 0.930 . S
C381 C378 1.348 . S
C381 C379 1.356 . S
H382 C376 0.930 . S
H383 C380 0.930 . S
C384 C386 1.348 . S
C384 C387 1.356 . S
C384 O414 1.325 . S
N385 C388 1.314 . S
N385 C389 1.279 . S
C386 C384 1.348 . S
C386 C388 1.353 . S
C386 H428 0.929 . S
C387 C384 1.356 . S
C387 C389 1.358 . S
C387 H429 0.930 . S
C388 N385 1.314 . S
C388 C386 1.353 . S
C388 H430 0.930 . S
C389 N385 1.279 . S
C389 C387 1.358 . S
C389 H431 0.930 . S
C390 C391 1.348 . S
C390 C392 1.356 . S
C390 O415 1.325 . S
C391 C390 1.348 . S
C391 C393 1.353 . S
C391 H432 0.929 . S
C392 C390 1.356 . S
C392 C394 1.358 . S
C392 H433 0.930 . S
C393 C391 1.353 . S
C393 N395 1.314 . S
C393 H434 0.930 . S
C394 C392 1.358 . S
C394 N395 1.279 . S
C394 H435 0.930 . S
N395 C393 1.314 . S
N395 C394 1.279 . S
C396 C398 1.353 . S
C396 N399 1.314 . S
C396 H402 0.930 . S
C397 N399 1.279 . S
C397 C400 1.358 . S
C397 H403 0.930 . S
C398 C396 1.353 . S
C398 C401 1.348 . S
C398 H436 0.929 . S
N399 Li354 1.990 . S
N399 C396 1.314 . S
N399 C397 1.279 . S
C400 C397 1.358 . S
C400 C401 1.356 . S
C400 H437 0.930 . S
C401 C398 1.348 . S
C401 C400 1.356 . S
H402 C396 0.930 . S
H403 C397 0.930 . S
C404 N405 1.314 1_455 S
C404 C406 1.353 . S
C404 H410 0.930 . S
N405 Li355 1.990 . S
N405 C404 1.314 1_655 S
N405 C408 1.279 . S
C406 C404 1.353 . S
C406 C409 1.348 . S
C406 H438 0.929 . S
C407 C408 1.358 1_455 S
C407 C409 1.356 . S
C407 H439 0.930 . S
C408 N405 1.279 . S
C408 C407 1.358 1_655 S
C408 H411 0.930 . S
C409 C406 1.348 . S
C409 C407 1.356 . S
H410 C404 0.930 . S
H411 C408 0.930 . S
O412 Li352 1.956 . S
O412 Li353 1.970 . S
O412 Li354 1.961 . S
O412 C356 1.325 . S
O413 Li352 1.970 . S
O413 Li353 1.956 . S
O413 Li355 1.961 . S
O413 C362 1.325 . S
O414 Li352 1.961 . S
O414 Li354 1.956 . S
O414 Li355 1.970 . S
O414 C384 1.325 . S
O415 Li353 1.961 . S
O415 Li354 1.970 . S
O415 Li355 1.956 . S
O415 C390 1.325 . S
H416 C358 0.929 . S
H417 C359 0.930 . S
H418 C360 0.930 . S
H419 C361 0.930 . S
H420 C363 0.930 . S
H421 C365 0.929 . S
H422 C366 0.930 . S
H423 C367 0.930 . S
H424 C370 0.930 . S
H425 C373 0.929 . S
H426 C378 0.929 . S
H427 C379 0.930 . S
H428 C386 0.929 . S
H429 C387 0.930 . S
H430 C388 0.930 . S
H431 C389 0.930 . S
H432 C391 0.929 . S
H433 C392 0.930 . S
H434 C393 0.930 . S
H435 C394 0.930 . S
H436 C398 0.929 . S
H437 C400 0.930 . S
H438 C406 0.929 . S
H439 C407 0.930 . S
Li440 N457 1.990 . S
Li440 O500 1.956 . S
Li440 O501 1.970 . S
Li440 O502 1.961 . S
Li441 N465 1.990 . S
Li441 O500 1.970 . S
Li441 O501 1.956 . S
Li441 O503 1.961 . S
Li442 N487 1.990 . S
Li442 O500 1.961 . S
Li442 O502 1.956 . S
Li442 O503 1.970 . S
Li443 N493 1.990 . S
Li443 O501 1.961 . S
Li443 O502 1.970 . S
Li443 O503 1.956 . S
C444 C446 1.348 . S
C444 C447 1.356 . S
C444 O500 1.325 . S
N445 C448 1.314 . S
N445 C449 1.279 . S
C446 C444 1.348 . S
C446 C448 1.353 . S
C446 H504 0.929 . S
C447 C444 1.356 . S
C447 C449 1.358 . S
C447 H505 0.930 . S
C448 N445 1.314 . S
C448 C446 1.353 . S
C448 H506 0.930 . S
C449 N445 1.279 . S
C449 C447 1.358 . S
C449 H507 0.930 . S
C450 C453 1.348 . S
C450 C454 1.356 . S
C450 O501 1.325 . S
C451 N452 1.279 . S
C451 C454 1.358 1_545 S
C451 H508 0.930 . S
N452 C451 1.279 . S
N452 C455 1.314 1_545 S
C453 C450 1.348 . S
C453 C455 1.353 . S
C453 H509 0.929 . S
C454 C450 1.356 . S
C454 C451 1.358 1_565 S
C454 H510 0.930 . S
C455 N452 1.314 1_565 S
C455 C453 1.353 . S
C455 H511 0.930 . S
C456 N457 1.314 . S
C456 C461 1.353 . S
C456 H462 0.930 . S
N457 Li440 1.990 . S
N457 C456 1.314 . S
N457 C459 1.279 . S
C458 C459 1.358 . S
C458 C460 1.356 . S
C458 H512 0.930 . S
C459 N457 1.279 . S
C459 C458 1.358 . S
C459 H463 0.930 . S
C460 C458 1.356 . S
C460 C461 1.348 . S
C461 C456 1.353 . S
C461 C460 1.348 . S
C461 H513 0.929 . S
H462 C456 0.930 . S
H463 C459 0.930 . S
C464 N465 1.314 . S
C464 C466 1.353 . S
C464 H470 0.930 . S
N465 Li441 1.990 . S
N465 C464 1.314 . S
N465 C468 1.279 . S
C466 C464 1.353 . S
C466 C469 1.348 . S
C466 H514 0.929 . S
C467 C468 1.358 . S
C467 C469 1.356 . S
C467 H515 0.930 . S
C468 N465 1.279 . S
C468 C467 1.358 . S
C468 H471 0.930 . S
C469 C466 1.348 . S
C469 C467 1.356 . S
H470 C464 0.930 . S
H471 C468 0.930 . S
C472 C474 1.348 . S
C472 C475 1.356 . S
C472 O502 1.325 . S
N473 C476 1.314 . S
N473 C477 1.279 . S
C474 C472 1.348 . S
C474 C476 1.353 . S
C474 H516 0.929 . S
C475 C472 1.356 . S
C475 C477 1.358 . S
C475 H517 0.930 . S
C476 N473 1.314 . S
C476 C474 1.353 . S
C476 H518 0.930 . S
C477 N473 1.279 . S
C477 C475 1.358 . S
C477 H519 0.930 . S
C478 C479 1.348 . S
C478 C480 1.356 . S
C478 O503 1.325 . S
C479 C478 1.348 . S
C479 C481 1.353 . S
C479 H520 0.929 . S
C480 C478 1.356 . S
C480 C482 1.358 . S
C480 H521 0.930 . S
C481 C479 1.353 . S
C481 N483 1.314 . S
C481 H522 0.930 . S
C482 C480 1.358 . S
C482 N483 1.279 . S
C482 H523 0.930 . S
N483 C481 1.314 . S
N483 C482 1.279 . S
C484 C486 1.353 . S
C484 N487 1.314 . S
C484 H490 0.930 . S
C485 N487 1.279 . S
C485 C488 1.358 . S
C485 H491 0.930 . S
C486 C484 1.353 . S
C486 C489 1.348 . S
C486 H524 0.929 . S
N487 Li442 1.990 . S
N487 C484 1.314 . S
N487 C485 1.279 . S
C488 C485 1.358 . S
C488 C489 1.356 . S
C488 H525 0.930 . S
C489 C486 1.348 . S
C489 C488 1.356 . S
H490 C484 0.930 . S
H491 C485 0.930 . S
C492 N493 1.314 1_545 S
C492 C494 1.353 . S
C492 H498 0.930 . S
N493 Li443 1.990 . S
N493 C492 1.314 1_565 S
N493 C496 1.279 . S
C494 C492 1.353 . S
C494 C497 1.348 . S
C494 H526 0.929 . S
C495 C496 1.358 1_545 S
C495 C497 1.356 . S
C495 H527 0.930 . S
C496 N493 1.279 . S
C496 C495 1.358 1_565 S
C496 H499 0.930 . S
C497 C494 1.348 . S
C497 C495 1.356 . S
H498 C492 0.930 . S
H499 C496 0.930 . S
O500 Li440 1.956 . S
O500 Li441 1.970 . S
O500 Li442 1.961 . S
O500 C444 1.325 . S
O501 Li440 1.970 . S
O501 Li441 1.956 . S
O501 Li443 1.961 . S
O501 C450 1.325 . S
O502 Li440 1.961 . S
O502 Li442 1.956 . S
O502 Li443 1.970 . S
O502 C472 1.325 . S
O503 Li441 1.961 . S
O503 Li442 1.970 . S
O503 Li443 1.956 . S
O503 C478 1.325 . S
H504 C446 0.929 . S
H505 C447 0.930 . S
H506 C448 0.930 . S
H507 C449 0.930 . S
H508 C451 0.930 . S
H509 C453 0.929 . S
H510 C454 0.930 . S
H511 C455 0.930 . S
H512 C458 0.930 . S
H513 C461 0.929 . S
H514 C466 0.929 . S
H515 C467 0.930 . S
H516 C474 0.929 . S
H517 C475 0.930 . S
H518 C476 0.930 . S
H519 C477 0.930 . S
H520 C479 0.929 . S
H521 C480 0.930 . S
H522 C481 0.930 . S
H523 C482 0.930 . S
H524 C486 0.929 . S
H525 C488 0.930 . S
H526 C494 0.929 . S
H527 C495 0.930 . S
Li528 N545 1.990 . S
Li528 O588 1.956 . S
Li528 O589 1.970 . S
Li528 O590 1.961 . S
Li529 N553 1.990 . S
Li529 O588 1.970 . S
Li529 O589 1.956 . S
Li529 O591 1.961 . S
Li530 N575 1.990 . S
Li530 O588 1.961 . S
Li530 O590 1.956 . S
Li530 O591 1.970 . S
Li531 N581 1.990 . S
Li531 O589 1.961 . S
Li531 O590 1.970 . S
Li531 O591 1.956 . S
C532 C534 1.348 . S
C532 C535 1.356 . S
C532 O588 1.325 . S
N533 C536 1.314 . S
N533 C537 1.279 . S
C534 C532 1.348 . S
C534 C536 1.353 . S
C534 H592 0.929 . S
C535 C532 1.356 . S
C535 C537 1.358 . S
C535 H593 0.930 . S
C536 N533 1.314 . S
C536 C534 1.353 . S
C536 H594 0.930 . S
C537 N533 1.279 . S
C537 C535 1.358 . S
C537 H595 0.930 . S
C538 C541 1.348 . S
C538 C542 1.356 . S
C538 O589 1.325 . S
C539 N540 1.279 . S
C539 C542 1.358 . S
C539 H596 0.930 . S
N540 C539 1.279 . S
N540 C543 1.314 . S
C541 C538 1.348 . S
C541 C543 1.353 . S
C541 H597 0.929 . S
C542 C538 1.356 . S
C542 C539 1.358 . S
C542 H598 0.930 . S
C543 N540 1.314 . S
C543 C541 1.353 . S
C543 H599 0.930 . S
C544 N545 1.314 . S
C544 C549 1.353 . S
C544 H550 0.930 . S
N545 Li528 1.990 . S
N545 C544 1.314 . S
N545 C547 1.279 . S
C546 C547 1.358 . S
C546 C548 1.356 . S
C546 H600 0.930 . S
C547 N545 1.279 . S
C547 C546 1.358 . S
C547 H551 0.930 . S
C548 C546 1.356 . S
C548 C549 1.348 . S
C549 C544 1.353 . S
C549 C548 1.348 . S
C549 H601 0.929 . S
H550 C544 0.930 . S
H551 C547 0.930 . S
C552 N553 1.314 . S
C552 C554 1.353 . S
C552 H558 0.930 . S
N553 Li529 1.990 . S
N553 C552 1.314 . S
N553 C556 1.279 . S
C554 C552 1.353 . S
C554 C557 1.348 . S
C554 H602 0.929 . S
C555 C556 1.358 . S
C555 C557 1.356 . S
C555 H603 0.930 . S
C556 N553 1.279 . S
C556 C555 1.358 . S
C556 H559 0.930 . S
C557 C554 1.348 . S
C557 C555 1.356 . S
H558 C552 0.930 . S
H559 C556 0.930 . S
C560 C562 1.348 . S
C560 C563 1.356 . S
C560 O590 1.325 . S
N561 C564 1.314 . S
N561 C565 1.279 . S
C562 C560 1.348 . S
C562 C564 1.353 . S
C562 H604 0.929 . S
C563 C560 1.356 . S
C563 C565 1.358 . S
C563 H605 0.930 . S
C564 N561 1.314 . S
C564 C562 1.353 . S
C564 H606 0.930 . S
C565 N561 1.279 . S
C565 C563 1.358 . S
C565 H607 0.930 . S
C566 C567 1.348 . S
C566 C568 1.356 . S
C566 O591 1.325 . S
C567 C566 1.348 . S
C567 C569 1.353 . S
C567 H608 0.929 . S
C568 C566 1.356 . S
C568 C570 1.358 . S
C568 H609 0.930 . S
C569 C567 1.353 . S
C569 N571 1.314 . S
C569 H610 0.930 . S
C570 C568 1.358 . S
C570 N571 1.279 . S
C570 H611 0.930 . S
N571 C569 1.314 . S
N571 C570 1.279 . S
C572 C574 1.353 . S
C572 N575 1.314 . S
C572 H578 0.930 . S
C573 N575 1.279 . S
C573 C576 1.358 . S
C573 H579 0.930 . S
C574 C572 1.353 . S
C574 C577 1.348 . S
C574 H612 0.929 . S
N575 Li530 1.990 . S
N575 C572 1.314 . S
N575 C573 1.279 . S
C576 C573 1.358 . S
C576 C577 1.356 . S
C576 H613 0.930 . S
C577 C574 1.348 . S
C577 C576 1.356 . S
H578 C572 0.930 . S
H579 C573 0.930 . S
C580 N581 1.314 . S
C580 C582 1.353 . S
C580 H586 0.930 . S
N581 Li531 1.990 . S
N581 C580 1.314 . S
N581 C584 1.279 . S
C582 C580 1.353 . S
C582 C585 1.348 . S
C582 H614 0.929 . S
C583 C584 1.358 . S
C583 C585 1.356 . S
C583 H615 0.930 . S
C584 N581 1.279 . S
C584 C583 1.358 . S
C584 H587 0.930 . S
C585 C582 1.348 . S
C585 C583 1.356 . S
H586 C580 0.930 . S
H587 C584 0.930 . S
O588 Li528 1.956 . S
O588 Li529 1.970 . S
O588 Li530 1.961 . S
O588 C532 1.325 . S
O589 Li528 1.970 . S
O589 Li529 1.956 . S
O589 Li531 1.961 . S
O589 C538 1.325 . S
O590 Li528 1.961 . S
O590 Li530 1.956 . S
O590 Li531 1.970 . S
O590 C560 1.325 . S
O591 Li529 1.961 . S
O591 Li530 1.970 . S
O591 Li531 1.956 . S
O591 C566 1.325 . S
H592 C534 0.929 . S
H593 C535 0.930 . S
H594 C536 0.930 . S
H595 C537 0.930 . S
H596 C539 0.930 . S
H597 C541 0.929 . S
H598 C542 0.930 . S
H599 C543 0.930 . S
H600 C546 0.930 . S
H601 C549 0.929 . S
H602 C554 0.929 . S
H603 C555 0.930 . S
H604 C562 0.929 . S
H605 C563 0.930 . S
H606 C564 0.930 . S
H607 C565 0.930 . S
H608 C567 0.929 . S
H609 C568 0.930 . S
H610 C569 0.930 . S
H611 C570 0.930 . S
H612 C574 0.929 . S
H613 C576 0.930 . S
H614 C582 0.929 . S
H615 C583 0.930 . S
Li616 N633 1.990 . S
Li616 O676 1.956 . S
Li616 O677 1.970 . S
Li616 O678 1.961 . S
Li617 N641 1.990 . S
Li617 O676 1.970 . S
Li617 O677 1.956 . S
Li617 O679 1.961 . S
Li618 N663 1.990 . S
Li618 O676 1.961 . S
Li618 O678 1.956 . S
Li618 O679 1.970 . S
Li619 N669 1.990 . S
Li619 O677 1.961 . S
Li619 O678 1.970 . S
Li619 O679 1.956 . S
C620 C622 1.348 1_556 S
C620 C623 1.356 1_556 S
C620 O676 1.325 . S
N621 C624 1.314 . S
N621 C625 1.279 . S
C622 C620 1.348 1_554 S
C622 C624 1.353 . S
C622 H680 0.929 1_554 S
C623 C620 1.356 1_554 S
C623 C625 1.358 . S
C623 H681 0.930 1_554 S
C624 N621 1.314 . S
C624 C622 1.353 . S
C624 H682 0.930 . S
C625 N621 1.279 . S
C625 C623 1.358 . S
C625 H683 0.930 . S
C626 C629 1.348 . S
C626 C630 1.356 . S
C626 O677 1.325 . S
C627 N628 1.279 . S
C627 C630 1.358 . S
C627 H684 0.930 . S
N628 C627 1.279 . S
N628 C631 1.314 . S
C629 C626 1.348 . S
C629 C631 1.353 . S
C629 H685 0.929 . S
C630 C626 1.356 . S
C630 C627 1.358 . S
C630 H686 0.930 . S
C631 N628 1.314 . S
C631 C629 1.353 . S
C631 H687 0.930 . S
C632 N633 1.314 . S
C632 C637 1.353 . S
C632 H638 0.930 . S
N633 Li616 1.990 . S
N633 C632 1.314 . S
N633 C635 1.279 . S
C634 C635 1.358 1_554 S
C634 C636 1.337 1_554 S
C634 H688 0.930 . S
C635 N633 1.279 . S
C635 C634 1.358 1_556 S
C635 H639 0.930 1_556 S
C636 C634 1.337 1_556 S
C636 C637 1.392 . S
C637 C632 1.353 . S
C637 C636 1.392 . S
C637 H689 0.929 . S
H638 C632 0.930 . S
H639 C635 0.930 1_554 S
C640 N641 1.314 1_655 S
C640 C642 1.353 . S
C640 H646 0.930 . S
N641 Li617 1.990 . S
N641 C640 1.314 1_455 S
N641 C644 1.279 . S
C642 C640 1.353 . S
C642 C645 1.348 . S
C642 H690 0.929 . S
C643 C644 1.358 1_655 S
C643 C645 1.356 . S
C643 H691 0.930 . S
C644 N641 1.279 . S
C644 C643 1.358 1_455 S
C644 H647 0.930 . S
C645 C642 1.348 . S
C645 C643 1.356 . S
H646 C640 0.930 . S
H647 C644 0.930 . S
C648 C650 1.348 . S
C648 C651 1.356 . S
C648 O678 1.325 . S
N649 C652 1.314 . S
N649 C653 1.279 . S
C650 C648 1.348 . S
C650 C652 1.353 . S
C650 H692 0.929 . S
C651 C648 1.356 . S
C651 C653 1.358 . S
C651 H693 0.930 . S
C652 N649 1.314 . S
C652 C650 1.353 . S
C652 H694 0.930 . S
C653 N649 1.279 . S
C653 C651 1.358 . S
C653 H695 0.930 . S
C654 C655 1.348 . S
C654 C656 1.356 . S
C654 O679 1.325 . S
C655 C654 1.348 . S
C655 C657 1.353 . S
C655 H696 0.929 . S
C656 C654 1.356 . S
C656 C658 1.358 1_455 S
C656 H697 0.930 . S
C657 C655 1.353 . S
C657 N659 1.314 1_455 S
C657 H698 0.930 . S
C658 C656 1.358 1_655 S
C658 N659 1.279 . S
C658 H699 0.930 . S
N659 C657 1.314 1_655 S
N659 C658 1.279 . S
C660 C662 1.353 . S
C660 N663 1.314 . S
C660 H666 0.930 . S
C661 N663 1.279 . S
C661 C664 1.358 . S
C661 H667 0.930 . S
C662 C660 1.353 . S
C662 C665 1.348 . S
C662 H700 0.929 . S
N663 Li618 1.990 . S
N663 C660 1.314 . S
N663 C661 1.279 . S
C664 C661 1.358 . S
C664 C665 1.356 . S
C664 H701 0.930 . S
C665 C662 1.348 . S
C665 C664 1.356 . S
H666 C660 0.930 . S
H667 C661 0.930 . S
C668 N669 1.314 . S
C668 C670 1.353 . S
C668 H674 0.930 . S
N669 Li619 1.990 . S
N669 C668 1.314 . S
N669 C672 1.279 . S
C670 C668 1.353 . S
C670 C673 1.348 . S
C670 H702 0.929 . S
C671 C672 1.358 . S
C671 C673 1.356 . S
C671 H703 0.930 . S
C672 N669 1.279 . S
C672 C671 1.358 . S
C672 H675 0.930 . S
C673 C670 1.348 . S
C673 C671 1.356 . S
H674 C668 0.930 . S
H675 C672 0.930 . S
O676 Li616 1.956 . S
O676 Li617 1.970 . S
O676 Li618 1.961 . S
O676 C620 1.325 . S
O677 Li616 1.970 . S
O677 Li617 1.956 . S
O677 Li619 1.961 . S
O677 C626 1.325 . S
O678 Li616 1.961 . S
O678 Li618 1.956 . S
O678 Li619 1.970 . S
O678 C648 1.325 . S
O679 Li617 1.961 . S
O679 Li618 1.970 . S
O679 Li619 1.956 . S
O679 C654 1.325 . S
H680 C622 0.929 1_556 S
H681 C623 0.930 1_556 S
H682 C624 0.930 . S
H683 C625 0.930 . S
H684 C627 0.930 . S
H685 C629 0.929 . S
H686 C630 0.930 . S
H687 C631 0.930 . S
H688 C634 0.930 . S
H689 C637 0.929 . S
H690 C642 0.929 . S
H691 C643 0.930 . S
H692 C650 0.929 . S
H693 C651 0.930 . S
H694 C652 0.930 . S
H695 C653 0.930 . S
H696 C655 0.929 . S
H697 C656 0.930 . S
H698 C657 0.930 . S
H699 C658 0.930 . S
H700 C662 0.929 . S
H701 C664 0.930 . S
H702 C670 0.929 . S
H703 C671 0.930 . S
Li704 N721 1.990 . S
Li704 O764 1.956 . S
Li704 O765 1.970 . S
Li704 O766 1.961 . S
Li705 N729 1.990 . S
Li705 O764 1.970 . S
Li705 O765 1.956 . S
Li705 O767 1.961 . S
Li706 N751 1.990 . S
Li706 O764 1.961 . S
Li706 O766 1.956 . S
Li706 O767 1.970 . S
Li707 N757 1.990 . S
Li707 O765 1.961 . S
Li707 O766 1.970 . S
Li707 O767 1.956 . S
C708 C710 1.348 . S
C708 C711 1.356 . S
C708 O764 1.325 . S
N709 C712 1.314 . S
N709 C713 1.279 . S
C710 C708 1.348 . S
C710 C712 1.353 . S
C710 H768 0.929 . S
C711 C708 1.356 . S
C711 C713 1.358 . S
C711 H769 0.930 . S
C712 N709 1.314 . S
C712 C710 1.353 . S
C712 H770 0.930 . S
C713 N709 1.279 . S
C713 C711 1.358 . S
C713 H771 0.930 . S
C714 C717 1.348 . S
C714 C718 1.356 . S
C714 O765 1.325 . S
C715 N716 1.279 . S
C715 C718 1.358 . S
C715 H772 0.930 . S
N716 C715 1.279 . S
N716 C719 1.314 . S
C717 C714 1.348 . S
C717 C719 1.353 . S
C717 H773 0.929 . S
C718 C714 1.356 . S
C718 C715 1.358 . S
C718 H774 0.930 . S
C719 N716 1.314 . S
C719 C717 1.353 . S
C719 H775 0.930 . S
C720 N721 1.314 1_565 S
C720 C725 1.353 . S
C720 H726 0.930 . S
N721 Li704 1.990 . S
N721 C720 1.314 1_545 S
N721 C723 1.279 . S
C722 C723 1.358 1_565 S
C722 C724 1.356 . S
C722 H776 0.930 . S
C723 N721 1.279 . S
C723 C722 1.358 1_545 S
C723 H727 0.930 . S
C724 C722 1.356 . S
C724 C725 1.348 . S
C725 C720 1.353 . S
C725 C724 1.348 . S
C725 H777 0.929 . S
H726 C720 0.930 . S
H727 C723 0.930 . S
C728 N729 1.314 . S
C728 C730 1.353 . S
C728 H734 0.930 . S
N729 Li705 1.990 . S
N729 C728 1.314 . S
N729 C732 1.279 . S
C730 C728 1.353 . S
C730 C733 1.348 . S
C730 H778 0.929 . S
C731 C732 1.358 . S
C731 C733 1.356 . S
C731 H779 0.930 . S
C732 N729 1.279 . S
C732 C731 1.358 . S
C732 H735 0.930 . S
C733 C730 1.348 . S
C733 C731 1.356 . S
H734 C728 0.930 . S
H735 C732 0.930 . S
C736 C738 1.348 . S
C736 C739 1.356 . S
C736 O766 1.325 . S
N737 C740 1.314 1_565 S
N737 C741 1.279 . S
C738 C736 1.348 . S
C738 C740 1.353 . S
C738 H780 0.929 . S
C739 C736 1.356 . S
C739 C741 1.358 1_545 S
C739 H781 0.930 . S
C740 N737 1.314 1_545 S
C740 C738 1.353 . S
C740 H782 0.930 . S
C741 N737 1.279 . S
C741 C739 1.358 1_565 S
C741 H783 0.930 . S
C742 C743 1.348 . S
C742 C744 1.356 . S
C742 O767 1.325 . S
C743 C742 1.348 . S
C743 C745 1.353 . S
C743 H784 0.929 . S
C744 C742 1.356 . S
C744 C746 1.358 . S
C744 H785 0.930 . S
C745 C743 1.353 . S
C745 N747 1.314 . S
C745 H786 0.930 . S
C746 C744 1.358 . S
C746 N747 1.279 . S
C746 H787 0.930 . S
N747 C745 1.314 . S
N747 C746 1.279 . S
C748 C750 1.353 . S
C748 N751 1.314 . S
C748 H754 0.930 . S
C749 N751 1.279 . S
C749 C752 1.358 . S
C749 H755 0.930 . S
C750 C748 1.353 . S
C750 C753 1.348 . S
C750 H788 0.929 . S
N751 Li706 1.990 . S
N751 C748 1.314 . S
N751 C749 1.279 . S
C752 C749 1.358 . S
C752 C753 1.356 . S
C752 H789 0.930 . S
C753 C750 1.348 . S
C753 C752 1.356 . S
H754 C748 0.930 . S
H755 C749 0.930 . S
C756 N757 1.314 . S
C756 C758 1.353 . S
C756 H762 0.930 . S
N757 Li707 1.990 . S
N757 C756 1.314 . S
N757 C760 1.279 . S
C758 C756 1.353 . S
C758 C761 1.348 . S
C758 H790 0.929 . S
C759 C760 1.358 . S
C759 C761 1.356 . S
C759 H791 0.930 . S
C760 N757 1.279 . S
C760 C759 1.358 . S
C760 H763 0.930 . S
C761 C758 1.348 . S
C761 C759 1.356 . S
H762 C756 0.930 . S
H763 C760 0.930 . S
O764 Li704 1.956 . S
O764 Li705 1.970 . S
O764 Li706 1.961 . S
O764 C708 1.325 . S
O765 Li704 1.970 . S
O765 Li705 1.956 . S
O765 Li707 1.961 . S
O765 C714 1.325 . S
O766 Li704 1.961 . S
O766 Li706 1.956 . S
O766 Li707 1.970 . S
O766 C736 1.325 . S
O767 Li705 1.961 . S
O767 Li706 1.970 . S
O767 Li707 1.956 . S
O767 C742 1.325 . S
H768 C710 0.929 . S
H769 C711 0.930 . S
H770 C712 0.930 . S
H771 C713 0.930 . S
H772 C715 0.930 . S
H773 C717 0.929 . S
H774 C718 0.930 . S
H775 C719 0.930 . S
H776 C722 0.930 . S
H777 C725 0.929 . S
H778 C730 0.929 . S
H779 C731 0.930 . S
H780 C738 0.929 . S
H781 C739 0.930 . S
H782 C740 0.930 . S
H783 C741 0.930 . S
H784 C743 0.929 . S
H785 C744 0.930 . S
H786 C745 0.930 . S
H787 C746 0.930 . S
H788 C750 0.929 . S
H789 C752 0.930 . S
H790 C758 0.929 . S
H791 C759 0.930 . S
Li792 N809 1.990 . S
Li792 O852 1.956 . S
Li792 O853 1.970 . S
Li792 O854 1.961 . S
Li793 N817 1.990 . S
Li793 O852 1.970 . S
Li793 O853 1.956 . S
Li793 O855 1.961 . S
Li794 N839 1.990 . S
Li794 O852 1.961 . S
Li794 O854 1.956 . S
Li794 O855 1.970 . S
Li795 N845 1.990 . S
Li795 O853 1.961 . S
Li795 O854 1.970 . S
Li795 O855 1.956 . S
C796 C798 1.348 . S
C796 C799 1.356 . S
C796 O852 1.325 . S
N797 C800 1.314 . S
N797 C801 1.279 . S
C798 C796 1.348 . S
C798 C800 1.353 . S
C798 H856 0.929 . S
C799 C796 1.356 . S
C799 C801 1.358 . S
C799 H857 0.930 . S
C800 N797 1.314 . S
C800 C798 1.353 . S
C800 H858 0.930 . S
C801 N797 1.279 . S
C801 C799 1.358 . S
C801 H859 0.930 . S
C802 C805 1.348 . S
C802 C806 1.356 . S
C802 O853 1.325 . S
C803 N804 1.279 . S
C803 C806 1.358 . S
C803 H860 0.930 . S
N804 C803 1.279 . S
N804 C807 1.314 . S
C805 C802 1.348 . S
C805 C807 1.353 . S
C805 H861 0.929 . S
C806 C802 1.356 . S
C806 C803 1.358 . S
C806 H862 0.930 . S
C807 N804 1.314 . S
C807 C805 1.353 . S
C807 H863 0.930 . S
C808 N809 1.314 . S
C808 C813 1.353 . S
C808 H814 0.930 . S
N809 Li792 1.990 . S
N809 C808 1.314 . S
N809 C811 1.279 . S
C810 C811 1.358 . S
C810 C812 1.356 . S
C810 H864 0.930 . S
C811 N809 1.279 . S
C811 C810 1.358 . S
C811 H815 0.930 . S
C812 C810 1.356 . S
C812 C813 1.348 . S
C813 C808 1.353 . S
C813 C812 1.348 . S
C813 H865 0.929 . S
H814 C808 0.930 . S
H815 C811 0.930 . S
C816 N817 1.314 . S
C816 C818 1.353 . S
C816 H822 0.930 . S
N817 Li793 1.990 . S
N817 C816 1.314 . S
N817 C820 1.279 . S
C818 C816 1.353 . S
C818 C821 1.348 . S
C818 H866 0.929 . S
C819 C820 1.358 . S
C819 C821 1.356 . S
C819 H867 0.930 . S
C820 N817 1.279 . S
C820 C819 1.358 . S
C820 H823 0.930 . S
C821 C818 1.348 . S
C821 C819 1.356 . S
H822 C816 0.930 . S
H823 C820 0.930 . S
C824 C826 1.348 . S
C824 C827 1.356 . S
C824 O854 1.325 . S
N825 C828 1.314 . S
N825 C829 1.279 . S
C826 C824 1.348 . S
C826 C828 1.353 . S
C826 H868 0.929 . S
C827 C824 1.356 . S
C827 C829 1.358 . S
C827 H869 0.930 . S
C828 N825 1.314 . S
C828 C826 1.353 . S
C828 H870 0.930 . S
C829 N825 1.279 . S
C829 C827 1.358 . S
C829 H871 0.930 . S
C830 C831 1.348 . S
C830 C832 1.356 . S
C830 O855 1.325 . S
C831 C830 1.348 . S
C831 C833 1.353 . S
C831 H872 0.929 . S
C832 C830 1.356 . S
C832 C834 1.358 . S
C832 H873 0.930 . S
C833 C831 1.353 . S
C833 N835 1.314 . S
C833 H874 0.930 . S
C834 C832 1.358 . S
C834 N835 1.279 . S
C834 H875 0.930 . S
N835 C833 1.314 . S
N835 C834 1.279 . S
C836 C838 1.353 . S
C836 N839 1.314 . S
C836 H842 0.930 . S
C837 N839 1.279 . S
C837 C840 1.358 . S
C837 H843 0.930 . S
C838 C836 1.353 . S
C838 C841 1.348 . S
C838 H876 0.929 . S
N839 Li794 1.990 . S
N839 C836 1.314 . S
N839 C837 1.279 . S
C840 C837 1.358 . S
C840 C841 1.356 . S
C840 H877 0.930 . S
C841 C838 1.348 . S
C841 C840 1.356 . S
H842 C836 0.930 . S
H843 C837 0.930 . S
C844 N845 1.314 . S
C844 C846 1.353 . S
C844 H850 0.930 . S
N845 Li795 1.990 . S
N845 C844 1.314 . S
N845 C848 1.279 . S
C846 C844 1.353 . S
C846 C849 1.348 . S
C846 H878 0.929 . S
C847 C848 1.358 . S
C847 C849 1.356 . S
C847 H879 0.930 . S
C848 N845 1.279 . S
C848 C847 1.358 . S
C848 H851 0.930 . S
C849 C846 1.348 . S
C849 C847 1.356 . S
H850 C844 0.930 . S
H851 C848 0.930 . S
O852 Li792 1.956 . S
O852 Li793 1.970 . S
O852 Li794 1.961 . S
O852 C796 1.325 . S
O853 Li792 1.970 . S
O853 Li793 1.956 . S
O853 Li795 1.961 . S
O853 C802 1.325 . S
O854 Li792 1.961 . S
O854 Li794 1.956 . S
O854 Li795 1.970 . S
O854 C824 1.325 . S
O855 Li793 1.961 . S
O855 Li794 1.970 . S
O855 Li795 1.956 . S
O855 C830 1.325 . S
H856 C798 0.929 . S
H857 C799 0.930 . S
H858 C800 0.930 . S
H859 C801 0.930 . S
H860 C803 0.930 . S
H861 C805 0.929 . S
H862 C806 0.930 . S
H863 C807 0.930 . S
H864 C810 0.930 . S
H865 C813 0.929 . S
H866 C818 0.929 . S
H867 C819 0.930 . S
H868 C826 0.929 . S
H869 C827 0.930 . S
H870 C828 0.930 . S
H871 C829 0.930 . S
H872 C831 0.929 . S
H873 C832 0.930 . S
H874 C833 0.930 . S
H875 C834 0.930 . S
H876 C838 0.929 . S
H877 C840 0.930 . S
H878 C846 0.929 . S
H879 C847 0.930 . S
Li880 N897 1.990 . S
Li880 O940 1.956 . S
Li880 O941 1.970 . S
Li880 O942 1.961 . S
Li881 N905 1.990 . S
Li881 O940 1.970 . S
Li881 O941 1.956 . S
Li881 O943 1.961 . S
Li882 N927 1.990 . S
Li882 O940 1.961 . S
Li882 O942 1.956 . S
Li882 O943 1.970 . S
Li883 N933 1.990 . S
Li883 O941 1.961 . S
Li883 O942 1.970 . S
Li883 O943 1.956 . S
C884 C886 1.348 1_556 S
C884 C887 1.356 1_556 S
C884 O940 1.325 . S
N885 C888 1.314 . S
N885 C889 1.279 . S
C886 C884 1.348 1_554 S
C886 C888 1.353 . S
C886 H944 0.929 1_554 S
C887 C884 1.356 1_554 S
C887 C889 1.358 . S
C887 H945 0.930 1_554 S
C888 N885 1.314 . S
C888 C886 1.353 . S
C888 H946 0.930 . S
C889 N885 1.279 . S
C889 C887 1.358 . S
C889 H947 0.930 . S
C890 C893 1.348 . S
C890 C894 1.356 . S
C890 O941 1.325 . S
C891 N892 1.279 . S
C891 C894 1.358 . S
C891 H948 0.930 . S
N892 C891 1.279 . S
N892 C895 1.314 . S
C893 C890 1.348 . S
C893 C895 1.353 . S
C893 H949 0.929 . S
C894 C890 1.356 . S
C894 C891 1.358 . S
C894 H950 0.930 . S
C895 N892 1.314 . S
C895 C893 1.353 . S
C895 H951 0.930 . S
C896 N897 1.314 . S
C896 C901 1.353 . S
C896 H902 0.930 . S
N897 Li880 1.990 . S
N897 C896 1.314 . S
N897 C899 1.279 . S
C898 C899 1.358 1_554 S
C898 C900 1.337 1_554 S
C898 H952 0.930 . S
C899 N897 1.279 . S
C899 C898 1.358 1_556 S
C899 H903 0.930 1_556 S
C900 C898 1.337 1_556 S
C900 C901 1.392 . S
C901 C896 1.353 . S
C901 C900 1.392 . S
C901 H953 0.929 . S
H902 C896 0.930 . S
H903 C899 0.930 1_554 S
C904 N905 1.314 1_455 S
C904 C906 1.353 . S
C904 H910 0.930 . S
N905 Li881 1.990 . S
N905 C904 1.314 1_655 S
N905 C908 1.279 . S
C906 C904 1.353 . S
C906 C909 1.348 . S
C906 H954 0.929 . S
C907 C908 1.358 1_455 S
C907 C909 1.356 . S
C907 H955 0.930 . S
C908 N905 1.279 . S
C908 C907 1.358 1_655 S
C908 H911 0.930 . S
C909 C906 1.348 . S
C909 C907 1.356 . S
H910 C904 0.930 . S
H911 C908 0.930 . S
C912 C914 1.348 . S
C912 C915 1.356 . S
C912 O942 1.325 . S
N913 C916 1.314 . S
N913 C917 1.279 . S
C914 C912 1.348 . S
C914 C916 1.353 . S
C914 H956 0.929 . S
C915 C912 1.356 . S
C915 C917 1.358 . S
C915 H957 0.930 . S
C916 N913 1.314 . S
C916 C914 1.353 . S
C916 H958 0.930 . S
C917 N913 1.279 . S
C917 C915 1.358 . S
C917 H959 0.930 . S
C918 C919 1.348 . S
C918 C920 1.356 . S
C918 O943 1.325 . S
C919 C918 1.348 . S
C919 C921 1.353 . S
C919 H960 0.929 . S
C920 C918 1.356 . S
C920 C922 1.358 1_655 S
C920 H961 0.930 . S
C921 C919 1.353 . S
C921 N923 1.314 1_655 S
C921 H962 0.930 . S
C922 C920 1.358 1_455 S
C922 N923 1.279 . S
C922 H963 0.930 . S
N923 C921 1.314 1_455 S
N923 C922 1.279 . S
C924 C926 1.353 . S
C924 N927 1.314 . S
C924 H930 0.930 . S
C925 N927 1.279 . S
C925 C928 1.358 . S
C925 H931 0.930 . S
C926 C924 1.353 . S
C926 C929 1.348 . S
C926 H964 0.929 . S
N927 Li882 1.990 . S
N927 C924 1.314 . S
N927 C925 1.279 . S
C928 C925 1.358 . S
C928 C929 1.356 . S
C928 H965 0.930 . S
C929 C926 1.348 . S
C929 C928 1.356 . S
H930 C924 0.930 . S
H931 C925 0.930 . S
C932 N933 1.314 . S
C932 C934 1.353 . S
C932 H938 0.930 . S
N933 Li883 1.990 . S
N933 C932 1.314 . S
N933 C936 1.279 . S
C934 C932 1.353 . S
C934 C937 1.348 . S
C934 H966 0.929 . S
C935 C936 1.358 . S
C935 C937 1.356 . S
C935 H967 0.930 . S
C936 N933 1.279 . S
C936 C935 1.358 . S
C936 H939 0.930 . S
C937 C934 1.348 . S
C937 C935 1.356 . S
H938 C932 0.930 . S
H939 C936 0.930 . S
O940 Li880 1.956 . S
O940 Li881 1.970 . S
O940 Li882 1.961 . S
O940 C884 1.325 . S
O941 Li880 1.970 . S
O941 Li881 1.956 . S
O941 Li883 1.961 . S
O941 C890 1.325 . S
O942 Li880 1.961 . S
O942 Li882 1.956 . S
O942 Li883 1.970 . S
O942 C912 1.325 . S
O943 Li881 1.961 . S
O943 Li882 1.970 . S
O943 Li883 1.956 . S
O943 C918 1.325 . S
H944 C886 0.929 1_556 S
H945 C887 0.930 1_556 S
H946 C888 0.930 . S
H947 C889 0.930 . S
H948 C891 0.930 . S
H949 C893 0.929 . S
H950 C894 0.930 . S
H951 C895 0.930 . S
H952 C898 0.930 . S
H953 C901 0.929 . S
H954 C906 0.929 . S
H955 C907 0.930 . S
H956 C914 0.929 . S
H957 C915 0.930 . S
H958 C916 0.930 . S
H959 C917 0.930 . S
H960 C919 0.929 . S
H961 C920 0.930 . S
H962 C921 0.930 . S
H963 C922 0.930 . S
H964 C926 0.929 . S
H965 C928 0.930 . S
H966 C934 0.929 . S
H967 C935 0.930 . S
Li968 N985 1.990 . S
Li968 O1028 1.956 . S
Li968 O1029 1.970 . S
Li968 O1030 1.961 . S
Li969 N993 1.990 . S
Li969 O1028 1.970 . S
Li969 O1029 1.956 . S
Li969 O1031 1.961 . S
Li970 N1015 1.990 . S
Li970 O1028 1.961 . S
Li970 O1030 1.956 . S
Li970 O1031 1.970 . S
Li971 N1021 1.990 . S
Li971 O1029 1.961 . S
Li971 O1030 1.970 . S
Li971 O1031 1.956 . S
C972 C974 1.348 . S
C972 C975 1.356 . S
C972 O1028 1.325 . S
N973 C976 1.314 . S
N973 C977 1.279 . S
C974 C972 1.348 . S
C974 C976 1.353 . S
C974 H1032 0.929 . S
C975 C972 1.356 . S
C975 C977 1.358 . S
C975 H1033 0.930 . S
C976 N973 1.314 . S
C976 C974 1.353 . S
C976 H1034 0.930 . S
C977 N973 1.279 . S
C977 C975 1.358 . S
C977 H1035 0.930 . S
C978 C981 1.348 . S
C978 C982 1.356 . S
C978 O1029 1.325 . S
C979 N980 1.279 . S
C979 C982 1.358 . S
C979 H1036 0.930 . S
N980 C979 1.279 . S
N980 C983 1.314 . S
C981 C978 1.348 . S
C981 C983 1.353 . S
C981 H1037 0.929 . S
C982 C978 1.356 . S
C982 C979 1.358 . S
C982 H1038 0.930 . S
C983 N980 1.314 . S
C983 C981 1.353 . S
C983 H1039 0.930 . S
C984 N985 1.314 1_545 S
C984 C989 1.353 . S
C984 H990 0.930 . S
N985 Li968 1.990 . S
N985 C984 1.314 1_565 S
N985 C987 1.279 . S
C986 C987 1.358 1_545 S
C986 C988 1.356 . S
C986 H1040 0.930 . S
C987 N985 1.279 . S
C987 C986 1.358 1_565 S
C987 H991 0.930 . S
C988 C986 1.356 . S
C988 C989 1.348 . S
C989 C984 1.353 . S
C989 C988 1.348 . S
C989 H1041 0.929 . S
H990 C984 0.930 . S
H991 C987 0.930 . S
C992 N993 1.314 . S
C992 C994 1.353 . S
C992 H998 0.930 . S
N993 Li969 1.990 . S
N993 C992 1.314 . S
N993 C996 1.279 . S
C994 C992 1.353 . S
C994 C997 1.348 . S
C994 H1042 0.929 . S
C995 C996 1.358 . S
C995 C997 1.356 . S
C995 H1043 0.930 . S
C996 N993 1.279 . S
C996 C995 1.358 . S
C996 H999 0.930 . S
C997 C994 1.348 . S
C997 C995 1.356 . S
H998 C992 0.930 . S
H999 C996 0.930 . S
C1000 C1002 1.348 . S
C1000 C1003 1.356 . S
C1000 O1030 1.325 . S
N1001 C1004 1.314 1_545 S
N1001 C1005 1.279 . S
C1002 C1000 1.348 . S
C1002 C1004 1.353 . S
C1002 H1044 0.929 . S
C1003 C1000 1.356 . S
C1003 C1005 1.358 1_565 S
C1003 H1045 0.930 . S
C1004 N1001 1.314 1_565 S
C1004 C1002 1.353 . S
C1004 H1046 0.930 . S
C1005 N1001 1.279 . S
C1005 C1003 1.358 1_545 S
C1005 H1047 0.930 . S
C1006 C1007 1.348 . S
C1006 C1008 1.356 . S
C1006 O1031 1.325 . S
C1007 C1006 1.348 . S
C1007 C1009 1.353 . S
C1007 H1048 0.929 . S
C1008 C1006 1.356 . S
C1008 C1010 1.358 . S
C1008 H1049 0.930 . S
C1009 C1007 1.353 . S
C1009 N1011 1.314 . S
C1009 H1050 0.930 . S
C1010 C1008 1.358 . S
C1010 N1011 1.279 . S
C1010 H1051 0.930 . S
N1011 C1009 1.314 . S
N1011 C1010 1.279 . S
C1012 C1014 1.353 . S
C1012 N1015 1.314 . S
C1012 H1018 0.930 . S
C1013 N1015 1.279 . S
C1013 C1016 1.358 . S
C1013 H1019 0.930 . S
C1014 C1012 1.353 . S
C1014 C1017 1.348 . S
C1014 H1052 0.929 . S
N1015 Li970 1.990 . S
N1015 C1012 1.314 . S
N1015 C1013 1.279 . S
C1016 C1013 1.358 . S
C1016 C1017 1.356 . S
C1016 H1053 0.930 . S
C1017 C1014 1.348 . S
C1017 C1016 1.356 . S
H1018 C1012 0.930 . S
H1019 C1013 0.930 . S
C1020 N1021 1.314 . S
C1020 C1022 1.353 . S
C1020 H1026 0.930 . S
N1021 Li971 1.990 . S
N1021 C1020 1.314 . S
N1021 C1024 1.279 . S
C1022 C1020 1.353 . S
C1022 C1025 1.348 . S
C1022 H1054 0.929 . S
C1023 C1024 1.358 . S
C1023 C1025 1.356 . S
C1023 H1055 0.930 . S
C1024 N1021 1.279 . S
C1024 C1023 1.358 . S
C1024 H1027 0.930 . S
C1025 C1022 1.348 . S
C1025 C1023 1.356 . S
H1026 C1020 0.930 . S
H1027 C1024 0.930 . S
O1028 Li968 1.956 . S
O1028 Li969 1.970 . S
O1028 Li970 1.961 . S
O1028 C972 1.325 . S
O1029 Li968 1.970 . S
O1029 Li969 1.956 . S
O1029 Li971 1.961 . S
O1029 C978 1.325 . S
O1030 Li968 1.961 . S
O1030 Li970 1.956 . S
O1030 Li971 1.970 . S
O1030 C1000 1.325 . S
O1031 Li969 1.961 . S
O1031 Li970 1.970 . S
O1031 Li971 1.956 . S
O1031 C1006 1.325 . S
H1032 C974 0.929 . S
H1033 C975 0.930 . S
H1034 C976 0.930 . S
H1035 C977 0.930 . S
H1036 C979 0.930 . S
H1037 C981 0.929 . S
H1038 C982 0.930 . S
H1039 C983 0.930 . S
H1040 C986 0.930 . S
H1041 C989 0.929 . S
H1042 C994 0.929 . S
H1043 C995 0.930 . S
H1044 C1002 0.929 . S
H1045 C1003 0.930 . S
H1046 C1004 0.930 . S
H1047 C1005 0.930 . S
H1048 C1007 0.929 . S
H1049 C1008 0.930 . S
H1050 C1009 0.930 . S
H1051 C1010 0.930 . S
H1052 C1014 0.929 . S
H1053 C1016 0.930 . S
H1054 C1022 0.929 . S
H1055 C1023 0.930 . S
H1056 C1062 0.930 . S
H1057 C1065 0.930 . S
H1058 C1066 0.930 . S
H1059 C1067 0.930 . S
H1060 C1070 0.930 . S
H1061 C1071 0.930 . S
C1062 H1056 0.930 . S
C1062 C1063 1.355 . S
C1062 C1064 1.415 . S
C1063 C1062 1.355 . S
C1063 C1065 1.419 . S
C1064 C1062 1.415 . S
C1064 C1069 1.425 . S
C1064 C1071 1.409 . S
C1065 H1057 0.930 . S
C1065 C1063 1.419 . S
C1065 C1066 1.362 . S
C1066 H1058 0.930 . S
C1066 C1065 1.362 . S
C1066 C1069 1.409 . S
C1067 H1059 0.930 . S
C1067 C1068 1.355 . S
C1067 C1069 1.415 . S
C1068 C1067 1.355 . S
C1068 C1070 1.419 . S
C1069 C1064 1.425 . S
C1069 C1066 1.409 . S
C1069 C1067 1.415 . S
C1070 H1060 0.930 . S
C1070 C1068 1.419 . S
C1070 C1071 1.362 . S
C1071 H1061 0.930 . S
C1071 C1064 1.409 . S
C1071 C1070 1.362 . S
H1072 C1078 0.930 . S
H1073 C1081 0.930 . S
H1074 C1082 0.930 . S
H1075 C1083 0.930 . S
H1076 C1086 0.930 . S
H1077 C1087 0.930 . S
C1078 H1072 0.930 . S
C1078 C1079 1.355 . S
C1078 C1080 1.415 . S
C1079 C1078 1.355 . S
C1079 C1081 1.419 . S
C1080 C1078 1.415 . S
C1080 C1085 1.425 1_455 S
C1080 C1087 1.409 . S
C1081 H1073 0.930 . S
C1081 C1079 1.419 . S
C1081 C1082 1.362 1_455 S
C1082 H1074 0.930 . S
C1082 C1081 1.362 1_655 S
C1082 C1085 1.409 . S
C1083 H1075 0.930 . S
C1083 C1084 1.355 . S
C1083 C1085 1.415 . S
C1084 C1083 1.355 . S
C1084 C1086 1.419 . S
C1085 C1080 1.425 1_655 S
C1085 C1082 1.409 . S
C1085 C1083 1.415 . S
C1086 H1076 0.930 . S
C1086 C1084 1.419 . S
C1086 C1087 1.362 1_655 S
C1087 H1077 0.930 . S
C1087 C1080 1.409 . S
C1087 C1086 1.362 1_455 S
H1088 C1094 0.930 . S
H1089 C1097 0.930 . S
H1090 C1098 0.930 . S
H1091 C1099 0.930 . S
H1092 C1102 0.930 . S
H1093 C1103 0.930 . S
C1094 H1088 0.930 . S
C1094 C1095 1.355 . S
C1094 C1096 1.415 . S
C1095 C1094 1.355 . S
C1095 C1097 1.419 . S
C1096 C1094 1.415 . S
C1096 C1101 1.425 1_565 S
C1096 C1103 1.409 . S
C1097 H1089 0.930 . S
C1097 C1095 1.419 . S
C1097 C1098 1.362 1_565 S
C1098 H1090 0.930 . S
C1098 C1097 1.362 1_545 S
C1098 C1101 1.409 . S
C1099 H1091 0.930 . S
C1099 C1100 1.355 . S
C1099 C1101 1.415 . S
C1100 C1099 1.355 . S
C1100 C1102 1.419 . S
C1101 C1096 1.425 1_545 S
C1101 C1098 1.409 . S
C1101 C1099 1.415 . S
C1102 H1092 0.930 . S
C1102 C1100 1.419 . S
C1102 C1103 1.362 1_545 S
C1103 H1093 0.930 . S
C1103 C1096 1.409 . S
C1103 C1102 1.362 1_565 S
H1104 C1110 0.930 . S
H1105 C1113 0.930 . S
H1106 C1114 0.930 . S
H1107 C1115 0.930 . S
H1108 C1118 0.930 . S
H1109 C1119 0.930 . S
C1110 H1104 0.930 . S
C1110 C1111 1.355 . S
C1110 C1112 1.415 . S
C1111 C1110 1.355 . S
C1111 C1113 1.419 . S
C1112 C1110 1.415 . S
C1112 C1117 1.425 . S
C1112 C1119 1.409 . S
C1113 H1105 0.930 . S
C1113 C1111 1.419 . S
C1113 C1114 1.362 . S
C1114 H1106 0.930 . S
C1114 C1113 1.362 . S
C1114 C1117 1.409 . S
C1115 H1107 0.930 . S
C1115 C1116 1.355 . S
C1115 C1117 1.415 . S
C1116 C1115 1.355 . S
C1116 C1118 1.419 . S
C1117 C1112 1.425 . S
C1117 C1114 1.409 . S
C1117 C1115 1.415 . S
C1118 H1108 0.930 . S
C1118 C1116 1.419 . S
C1118 C1119 1.362 . S
C1119 H1109 0.930 . S
C1119 C1112 1.409 . S
C1119 C1118 1.362 . S
H1120 C1126 0.930 . S
H1121 C1129 0.930 . S
H1122 C1130 0.930 . S
H1123 C1131 0.930 . S
H1124 C1134 0.930 . S
H1125 C1135 0.930 . S
C1126 H1120 0.930 . S
C1126 C1127 1.355 . S
C1126 C1128 1.415 . S
C1127 C1126 1.355 . S
C1127 C1129 1.419 . S
C1128 C1126 1.415 . S
C1128 C1133 1.425 1_655 S
C1128 C1135 1.409 . S
C1129 H1121 0.930 . S
C1129 C1127 1.419 . S
C1129 C1130 1.362 1_655 S
C1130 H1122 0.930 . S
C1130 C1129 1.362 1_455 S
C1130 C1133 1.409 . S
C1131 H1123 0.930 . S
C1131 C1132 1.355 . S
C1131 C1133 1.415 . S
C1132 C1131 1.355 . S
C1132 C1134 1.419 . S
C1133 C1128 1.425 1_455 S
C1133 C1130 1.409 . S
C1133 C1131 1.415 . S
C1134 H1124 0.930 . S
C1134 C1132 1.419 . S
C1134 C1135 1.362 1_455 S
C1135 H1125 0.930 . S
C1135 C1128 1.409 . S
C1135 C1134 1.362 1_655 S
H1136 C1142 0.930 . S
H1137 C1145 0.930 . S
H1138 C1146 0.930 . S
H1139 C1147 0.930 . S
H1140 C1150 0.930 . S
H1141 C1151 0.930 . S
C1142 H1136 0.930 . S
C1142 C1143 1.355 . S
C1142 C1144 1.415 1_545 S
C1143 C1142 1.355 . S
C1143 C1145 1.419 . S
C1144 C1142 1.415 1_565 S
C1144 C1149 1.425 1_565 S
C1144 C1151 1.409 . S
C1145 H1137 0.930 . S
C1145 C1143 1.419 . S
C1145 C1146 1.362 . S
C1146 H1138 0.930 . S
C1146 C1145 1.362 . S
C1146 C1149 1.409 . S
C1147 H1139 0.930 . S
C1147 C1148 1.355 . S
C1147 C1149 1.415 1_565 S
C1148 C1147 1.355 . S
C1148 C1150 1.419 . S
C1149 C1144 1.425 1_545 S
C1149 C1146 1.409 . S
C1149 C1147 1.415 1_545 S
C1150 H1140 0.930 . S
C1150 C1148 1.419 . S
C1150 C1151 1.362 . S
C1151 H1141 0.930 . S
C1151 C1144 1.409 . S
C1151 C1150 1.362 . S
H1152 C1158 0.930 . S
H1153 C1161 0.930 . S
H1154 C1162 0.930 . S
H1155 C1163 0.930 . S
H1156 C1166 0.930 . S
H1157 C1167 0.930 . S
C1158 H1152 0.930 . S
C1158 C1159 1.355 . S
C1158 C1160 1.415 . S
C1159 C1158 1.355 . S
C1159 C1161 1.419 . S
C1160 C1158 1.415 . S
C1160 C1165 1.425 . S
C1160 C1167 1.409 . S
C1161 H1153 0.930 . S
C1161 C1159 1.419 . S
C1161 C1162 1.362 . S
C1162 H1154 0.930 . S
C1162 C1161 1.362 . S
C1162 C1165 1.409 . S
C1163 H1155 0.930 . S
C1163 C1164 1.355 . S
C1163 C1165 1.415 . S
C1164 C1163 1.355 . S
C1164 C1166 1.419 . S
C1165 C1160 1.425 . S
C1165 C1162 1.409 . S
C1165 C1163 1.415 . S
C1166 H1156 0.930 . S
C1166 C1164 1.419 . S
C1166 C1167 1.362 . S
C1167 H1157 0.930 . S
C1167 C1160 1.409 . S
C1167 C1166 1.362 . S
H1168 C1174 0.930 . S
H1169 C1177 0.930 . S
H1170 C1178 0.930 . S
H1171 C1179 0.930 . S
H1172 C1182 0.930 . S
H1173 C1183 0.930 . S
C1174 H1168 0.930 . S
C1174 C1175 1.355 . S
C1174 C1176 1.415 . S
C1175 C1174 1.355 . S
C1175 C1177 1.419 . S
C1176 C1174 1.415 . S
C1176 C1181 1.425 . S
C1176 C1183 1.409 . S
C1177 H1169 0.930 . S
C1177 C1175 1.419 . S
C1177 C1178 1.362 . S
C1178 H1170 0.930 . S
C1178 C1177 1.362 . S
C1178 C1181 1.409 . S
C1179 H1171 0.930 . S
C1179 C1180 1.355 . S
C1179 C1181 1.415 . S
C1180 C1179 1.355 . S
C1180 C1182 1.419 . S
C1181 C1176 1.425 . S
C1181 C1178 1.409 . S
C1181 C1179 1.415 . S
C1182 H1172 0.930 . S
C1182 C1180 1.419 . S
C1182 C1183 1.362 . S
C1183 H1173 0.930 . S
C1183 C1176 1.409 . S
C1183 C1182 1.362 . S
H1184 C1190 0.930 . S
H1185 C1193 0.930 . S
H1186 C1194 0.930 . S
H1187 C1195 0.930 . S
H1188 C1198 0.930 . S
H1189 C1199 0.930 . S
C1190 H1184 0.930 . S
C1190 C1191 1.355 . S
C1190 C1192 1.415 . S
C1191 C1190 1.355 . S
C1191 C1193 1.419 . S
C1192 C1190 1.415 . S
C1192 C1197 1.425 . S
C1192 C1199 1.409 . S
C1193 H1185 0.930 . S
C1193 C1191 1.419 . S
C1193 C1194 1.362 . S
C1194 H1186 0.930 . S
C1194 C1193 1.362 . S
C1194 C1197 1.409 . S
C1195 H1187 0.930 . S
C1195 C1196 1.355 . S
C1195 C1197 1.415 . S
C1196 C1195 1.355 . S
C1196 C1198 1.419 . S
C1197 C1192 1.425 . S
C1197 C1194 1.409 . S
C1197 C1195 1.415 . S
C1198 H1188 0.930 . S
C1198 C1196 1.419 . S
C1198 C1199 1.362 . S
C1199 H1189 0.930 . S
C1199 C1192 1.409 . S
C1199 C1198 1.362 . S
H1200 C1206 0.930 . S
H1201 C1209 0.930 . S
H1202 C1210 0.930 . S
H1203 C1211 0.930 . S
H1204 C1214 0.930 . S
H1205 C1215 0.930 . S
C1206 H1200 0.930 . S
C1206 C1207 1.355 . S
C1206 C1208 1.415 . S
C1207 C1206 1.355 . S
C1207 C1209 1.419 . S
C1208 C1206 1.415 . S
C1208 C1213 1.425 . S
C1208 C1215 1.409 . S
C1209 H1201 0.930 . S
C1209 C1207 1.419 . S
C1209 C1210 1.362 . S
C1210 H1202 0.930 . S
C1210 C1209 1.362 . S
C1210 C1213 1.409 . S
C1211 H1203 0.930 . S
C1211 C1212 1.355 . S
C1211 C1213 1.415 . S
C1212 C1211 1.355 . S
C1212 C1214 1.419 . S
C1213 C1208 1.425 . S
C1213 C1210 1.409 . S
C1213 C1211 1.415 . S
C1214 H1204 0.930 . S
C1214 C1212 1.419 . S
C1214 C1215 1.362 . S
C1215 H1205 0.930 . S
C1215 C1208 1.409 . S
C1215 C1214 1.362 . S
H1216 C1222 0.930 . S
H1217 C1225 0.930 . S
H1218 C1226 0.930 . S
H1219 C1227 0.930 . S
H1220 C1230 0.930 . S
H1221 C1231 0.930 . S
C1222 H1216 0.930 . S
C1222 C1223 1.355 . S
C1222 C1224 1.415 . S
C1223 C1222 1.355 . S
C1223 C1225 1.419 . S
C1224 C1222 1.415 . S
C1224 C1229 1.425 . S
C1224 C1231 1.409 . S
C1225 H1217 0.930 . S
C1225 C1223 1.419 . S
C1225 C1226 1.362 . S
C1226 H1218 0.930 . S
C1226 C1225 1.362 . S
C1226 C1229 1.409 . S
C1227 H1219 0.930 . S
C1227 C1228 1.355 . S
C1227 C1229 1.415 . S
C1228 C1227 1.355 . S
C1228 C1230 1.419 . S
C1229 C1224 1.425 . S
C1229 C1226 1.409 . S
C1229 C1227 1.415 . S
C1230 H1220 0.930 . S
C1230 C1228 1.419 . S
C1230 C1231 1.362 . S
C1231 H1221 0.930 . S
C1231 C1224 1.409 . S
C1231 C1230 1.362 . S
H1232 C1238 0.930 . S
H1233 C1241 0.930 . S
H1234 C1242 0.930 . S
H1235 C1243 0.930 . S
H1236 C1246 0.930 . S
H1237 C1247 0.930 . S
C1238 H1232 0.930 . S
C1238 C1239 1.355 . S
C1238 C1240 1.415 . S
C1239 C1238 1.355 . S
C1239 C1241 1.419 . S
C1240 C1238 1.415 . S
C1240 C1245 1.425 . S
C1240 C1247 1.409 . S
C1241 H1233 0.930 . S
C1241 C1239 1.419 . S
C1241 C1242 1.362 . S
C1242 H1234 0.930 . S
C1242 C1241 1.362 . S
C1242 C1245 1.409 . S
C1243 H1235 0.930 . S
C1243 C1244 1.355 . S
C1243 C1245 1.415 . S
C1244 C1243 1.355 . S
C1244 C1246 1.419 . S
C1245 C1240 1.425 . S
C1245 C1242 1.409 . S
C1245 C1243 1.415 . S
C1246 H1236 0.930 . S
C1246 C1244 1.419 . S
C1246 C1247 1.362 . S
C1247 H1237 0.930 . S
C1247 C1240 1.409 . S
C1247 C1246 1.362 . S
H1248 C1254 0.931 . S
H1249 C1257 0.930 . S
H1250 C1258 0.930 . S
H1251 C1259 0.931 . S
H1252 C1262 0.930 . S
H1253 C1263 0.930 . S
C1254 H1248 0.931 . S
C1254 C1255 1.353 1_556 S
C1254 C1256 1.413 . S
C1255 C1254 1.353 1_554 S
C1255 C1257 1.419 . S
C1256 C1254 1.413 . S
C1256 C1261 1.417 1_566 S
C1256 C1263 1.422 1_565 S
C1257 H1249 0.930 . S
C1257 C1255 1.419 . S
C1257 C1258 1.362 . S
C1258 H1250 0.930 . S
C1258 C1257 1.362 . S
C1258 C1261 1.422 1_565 S
C1259 H1251 0.931 . S
C1259 C1260 1.353 1_554 S
C1259 C1261 1.413 . S
C1260 C1259 1.353 1_556 S
C1260 C1262 1.419 . S
C1261 C1256 1.417 1_544 S
C1261 C1258 1.422 1_545 S
C1261 C1259 1.413 . S
C1262 H1252 0.930 . S
C1262 C1260 1.419 . S
C1262 C1263 1.362 . S
C1263 H1253 0.930 . S
C1263 C1256 1.422 1_545 S
C1263 C1262 1.362 . S
H1264 C1270 0.930 . S
H1265 C1273 0.930 . S
H1266 C1274 0.930 . S
H1267 C1275 0.930 . S
H1268 C1278 0.930 . S
H1269 C1279 0.930 . S
C1270 H1264 0.930 . S
C1270 C1271 1.355 . S
C1270 C1272 1.415 . S
C1271 C1270 1.355 . S
C1271 C1273 1.419 . S
C1272 C1270 1.415 . S
C1272 C1277 1.425 . S
C1272 C1279 1.409 . S
C1273 H1265 0.930 . S
C1273 C1271 1.419 . S
C1273 C1274 1.362 . S
C1274 H1266 0.930 . S
C1274 C1273 1.362 . S
C1274 C1277 1.409 . S
C1275 H1267 0.930 . S
C1275 C1276 1.355 . S
C1275 C1277 1.415 . S
C1276 C1275 1.355 . S
C1276 C1278 1.419 . S
C1277 C1272 1.425 . S
C1277 C1274 1.409 . S
C1277 C1275 1.415 . S
C1278 H1268 0.930 . S
C1278 C1276 1.419 . S
C1278 C1279 1.362 . S
C1279 H1269 0.930 . S
C1279 C1272 1.409 . S
C1279 C1278 1.362 . S
H1280 C1286 0.930 . S
H1281 C1289 0.930 . S
H1282 C1290 0.930 . S
H1283 C1291 0.930 . S
H1284 C1294 0.930 . S
H1285 C1295 0.930 . S
C1286 H1280 0.930 . S
C1286 C1287 1.355 . S
C1286 C1288 1.415 . S
C1287 C1286 1.355 . S
C1287 C1289 1.419 . S
C1288 C1286 1.415 . S
C1288 C1293 1.425 1_655 S
C1288 C1295 1.409 1_655 S
C1289 H1281 0.930 . S
C1289 C1287 1.419 . S
C1289 C1290 1.362 . S
C1290 H1282 0.930 . S
C1290 C1289 1.362 . S
C1290 C1293 1.409 1_655 S
C1291 H1283 0.930 . S
C1291 C1292 1.355 . S
C1291 C1293 1.415 . S
C1292 C1291 1.355 . S
C1292 C1294 1.419 . S
C1293 C1288 1.425 1_455 S
C1293 C1290 1.409 1_455 S
C1293 C1291 1.415 . S
C1294 H1284 0.930 . S
C1294 C1292 1.419 . S
C1294 C1295 1.362 . S
C1295 H1285 0.930 . S
C1295 C1288 1.409 1_455 S
C1295 C1294 1.362 . S
H1296 C1302 0.931 . S
H1297 C1305 0.930 . S
H1298 C1306 0.930 . S
H1299 C1307 0.931 . S
H1300 C1310 0.930 . S
H1301 C1311 0.930 . S
C1302 H1296 0.931 . S
C1302 C1303 1.353 1_554 S
C1302 C1304 1.415 . S
C1303 C1302 1.353 1_556 S
C1303 C1305 1.419 . S
C1304 C1302 1.415 . S
C1304 C1309 1.425 1_564 S
C1304 C1311 1.409 1_565 S
C1305 H1297 0.930 . S
C1305 C1303 1.419 . S
C1305 C1306 1.362 . S
C1306 H1298 0.930 . S
C1306 C1305 1.362 . S
C1306 C1309 1.409 1_565 S
C1307 H1299 0.931 . S
C1307 C1308 1.353 1_556 S
C1307 C1309 1.415 . S
C1308 C1307 1.353 1_554 S
C1308 C1310 1.419 . S
C1309 C1304 1.425 1_546 S
C1309 C1306 1.409 1_545 S
C1309 C1307 1.415 . S
C1310 H1300 0.930 . S
C1310 C1308 1.419 . S
C1310 C1311 1.362 . S
C1311 H1301 0.930 . S
C1311 C1304 1.409 1_545 S
C1311 C1310 1.362 . S
H1312 C1318 0.930 . S
H1313 C1321 0.930 . S
H1314 C1322 0.930 . S
H1315 C1323 0.930 . S
H1316 C1326 0.930 . S
H1317 C1327 0.930 . S
C1318 H1312 0.930 . S
C1318 C1319 1.355 . S
C1318 C1320 1.415 . S
C1319 C1318 1.355 . S
C1319 C1321 1.419 . S
C1320 C1318 1.415 . S
C1320 C1325 1.425 . S
C1320 C1327 1.409 . S
C1321 H1313 0.930 . S
C1321 C1319 1.419 . S
C1321 C1322 1.362 . S
C1322 H1314 0.930 . S
C1322 C1321 1.362 . S
C1322 C1325 1.409 . S
C1323 H1315 0.930 . S
C1323 C1324 1.355 . S
C1323 C1325 1.415 . S
C1324 C1323 1.355 . S
C1324 C1326 1.419 . S
C1325 C1320 1.425 . S
C1325 C1322 1.409 . S
C1325 C1323 1.415 . S
C1326 H1316 0.930 . S
C1326 C1324 1.419 . S
C1326 C1327 1.362 . S
C1327 H1317 0.930 . S
C1327 C1320 1.409 . S
C1327 C1326 1.362 . S
H1328 C1334 0.930 . S
H1329 C1337 0.930 . S
H1330 C1338 0.930 . S
H1331 C1339 0.930 . S
H1332 C1342 0.930 . S
H1333 C1343 0.930 . S
C1334 H1328 0.930 . S
C1334 C1335 1.355 . S
C1334 C1336 1.415 . S
C1335 C1334 1.355 . S
C1335 C1337 1.419 . S
C1336 C1334 1.415 . S
C1336 C1341 1.425 1_455 S
C1336 C1343 1.409 1_455 S
C1337 H1329 0.930 . S
C1337 C1335 1.419 . S
C1337 C1338 1.362 . S
C1338 H1330 0.930 . S
C1338 C1337 1.362 . S
C1338 C1341 1.409 1_455 S
C1339 H1331 0.930 . S
C1339 C1340 1.355 . S
C1339 C1341 1.415 . S
C1340 C1339 1.355 . S
C1340 C1342 1.419 . S
C1341 C1336 1.425 1_655 S
C1341 C1338 1.409 1_655 S
C1341 C1339 1.415 . S
C1342 H1332 0.930 . S
C1342 C1340 1.419 . S
C1342 C1343 1.362 . S
C1343 H1333 0.930 . S
C1343 C1336 1.409 1_655 S
C1343 C1342 1.362 . S
H1344 C1350 0.930 . S
H1345 C1353 0.921 1_554 S
H1346 C1354 0.930 . S
H1347 C1355 0.930 . S
H1348 C1358 0.921 1_556 S
H1349 C1359 0.930 . S
C1350 H1344 0.930 . S
C1350 C1351 1.355 . S
C1350 C1352 1.415 . S
C1351 C1350 1.355 . S
C1351 C1353 1.419 . S
C1352 C1350 1.415 . S
C1352 C1357 1.425 1_556 S
C1352 C1359 1.409 . S
C1353 H1345 0.921 1_556 S
C1353 C1351 1.419 . S
C1353 C1354 1.362 1_556 S
C1354 H1346 0.930 . S
C1354 C1353 1.362 1_554 S
C1354 C1357 1.409 . S
C1355 H1347 0.930 . S
C1355 C1356 1.355 . S
C1355 C1357 1.415 . S
C1356 C1355 1.355 . S
C1356 C1358 1.419 . S
C1357 C1352 1.425 1_554 S
C1357 C1354 1.409 . S
C1357 C1355 1.415 . S
C1358 H1348 0.921 1_554 S
C1358 C1356 1.419 . S
C1358 C1359 1.362 1_554 S
C1359 H1349 0.930 . S
C1359 C1352 1.409 . S
C1359 C1358 1.362 1_556 S
H1360 C1366 0.930 . S
H1361 C1369 0.930 . S
H1362 C1370 0.930 . S
H1363 C1371 0.930 . S
H1364 C1374 0.930 . S
H1365 C1375 0.930 . S
C1366 H1360 0.930 . S
C1366 C1367 1.355 . S
C1366 C1368 1.415 . S
C1367 C1366 1.355 . S
C1367 C1369 1.419 . S
C1368 C1366 1.415 . S
C1368 C1373 1.425 . S
C1368 C1375 1.409 . S
C1369 H1361 0.930 . S
C1369 C1367 1.419 . S
C1369 C1370 1.362 . S
C1370 H1362 0.930 . S
C1370 C1369 1.362 . S
C1370 C1373 1.409 . S
C1371 H1363 0.930 . S
C1371 C1372 1.355 . S
C1371 C1373 1.415 . S
C1372 C1371 1.355 . S
C1372 C1374 1.419 . S
C1373 C1368 1.425 . S
C1373 C1370 1.409 . S
C1373 C1371 1.415 . S
C1374 H1364 0.930 . S
C1374 C1372 1.419 . S
C1374 C1375 1.362 . S
C1375 H1365 0.930 . S
C1375 C1368 1.409 . S
C1375 C1374 1.362 . S
H1376 C1382 0.930 . S
H1377 C1385 0.930 . S
H1378 C1386 0.930 . S
H1379 C1387 0.930 . S
H1380 C1390 0.930 . S
H1381 C1391 0.930 . S
C1382 H1376 0.930 . S
C1382 C1383 1.355 . S
C1382 C1384 1.415 . S
C1383 C1382 1.355 . S
C1383 C1385 1.419 . S
C1384 C1382 1.415 . S
C1384 C1389 1.425 . S
C1384 C1391 1.409 . S
C1385 H1377 0.930 . S
C1385 C1383 1.419 . S
C1385 C1386 1.362 . S
C1386 H1378 0.930 . S
C1386 C1385 1.362 . S
C1386 C1389 1.409 . S
C1387 H1379 0.930 . S
C1387 C1388 1.355 . S
C1387 C1389 1.415 . S
C1388 C1387 1.355 . S
C1388 C1390 1.419 . S
C1389 C1384 1.425 . S
C1389 C1386 1.409 . S
C1389 C1387 1.415 . S
C1390 H1380 0.930 . S
C1390 C1388 1.419 . S
C1390 C1391 1.362 . S
C1391 H1381 0.930 . S
C1391 C1384 1.409 . S
C1391 C1390 1.362 . S
H1392 C1398 0.930 . S
H1393 C1401 0.930 . S
H1394 C1402 0.930 1_556 S
H1395 C1403 0.930 . S
H1396 C1406 0.930 . S
H1397 C1407 0.930 1_554 S
C1398 H1392 0.930 . S
C1398 C1399 1.355 . S
C1398 C1400 1.415 . S
C1399 C1398 1.355 . S
C1399 C1401 1.419 . S
C1400 C1398 1.415 . S
C1400 C1405 1.425 1_554 S
C1400 C1407 1.409 1_554 S
C1401 H1393 0.930 . S
C1401 C1399 1.419 . S
C1401 C1402 1.362 . S
C1402 H1394 0.930 1_554 S
C1402 C1401 1.362 . S
C1402 C1405 1.409 1_554 S
C1403 H1395 0.930 . S
C1403 C1404 1.355 . S
C1403 C1405 1.415 . S
C1404 C1403 1.355 . S
C1404 C1406 1.419 . S
C1405 C1400 1.425 1_556 S
C1405 C1402 1.409 1_556 S
C1405 C1403 1.415 . S
C1406 H1396 0.930 . S
C1406 C1404 1.419 . S
C1406 C1407 1.362 . S
C1407 H1397 0.930 1_556 S
C1407 C1400 1.409 1_556 S
C1407 C1406 1.362 . S
H1408 C1414 0.930 . S
H1409 C1417 0.930 . S
H1410 C1418 0.930 . S
H1411 C1419 0.930 . S
H1412 C1422 0.930 . S
H1413 C1423 0.930 . S
C1414 H1408 0.930 . S
C1414 C1415 1.355 . S
C1414 C1416 1.415 . S
C1415 C1414 1.355 . S
C1415 C1417 1.419 . S
C1416 C1414 1.415 . S
C1416 C1421 1.425 . S
C1416 C1423 1.409 . S
C1417 H1409 0.930 . S
C1417 C1415 1.419 . S
C1417 C1418 1.362 . S
C1418 H1410 0.930 . S
C1418 C1417 1.362 . S
C1418 C1421 1.409 . S
C1419 H1411 0.930 . S
C1419 C1420 1.355 . S
C1419 C1421 1.415 . S
C1420 C1419 1.355 . S
C1420 C1422 1.419 . S
C1421 C1416 1.425 . S
C1421 C1418 1.409 . S
C1421 C1419 1.415 . S
C1422 H1412 0.930 . S
C1422 C1420 1.419 . S
C1422 C1423 1.362 . S
C1423 H1413 0.930 . S
C1423 C1416 1.409 . S
C1423 C1422 1.362 . S
H1424 C1430 0.930 . S
H1425 C1433 0.930 . S
H1426 C1434 0.930 . S
H1427 C1435 0.930 . S
H1428 C1438 0.930 . S
H1429 C1439 0.930 . S
C1430 H1424 0.930 . S
C1430 C1431 1.355 . S
C1430 C1432 1.415 . S
C1431 C1430 1.355 . S
C1431 C1433 1.419 . S
C1432 C1430 1.415 . S
C1432 C1437 1.425 . S
C1432 C1439 1.409 . S
C1433 H1425 0.930 . S
C1433 C1431 1.419 . S
C1433 C1434 1.362 . S
C1434 H1426 0.930 . S
C1434 C1433 1.362 . S
C1434 C1437 1.409 . S
C1435 H1427 0.930 . S
C1435 C1436 1.355 . S
C1435 C1437 1.415 . S
C1436 C1435 1.355 . S
C1436 C1438 1.419 . S
C1437 C1432 1.425 . S
C1437 C1434 1.409 . S
C1437 C1435 1.415 . S
C1438 H1428 0.930 . S
C1438 C1436 1.419 . S
C1438 C1439 1.362 . S
C1439 H1429 0.930 . S
C1439 C1432 1.409 . S
C1439 C1438 1.362 . S
C1063 C293 2.024 . S
C1068 C20 2.029 . S
C1079 C108 2.024 . S
C1084 C372 2.028 . S
C1095 C460 2.024 . S
C1100 C205 2.031 . S
C1111 C585 2.103 . S
C1116 C849 2.102 . S
C1127 C929 2.029 . S
C1132 C665 2.042 . S
C1143 C761 2.103 . S
C1148 C1025 2.096 . S
C1159 C753 1.581 . S
C1164 C29 1.581 . S
C1175 C117 1.579 . S
C1180 C841 1.581 . S
C1191 C196 1.580 . S
C1196 C937 1.579 . S
C1207 C284 1.576 . S
C1212 C1017 1.574 . S
C1223 C577 1.573 . S
C1228 C381 1.574 . S
C1239 C673 1.576 . S
C1244 C469 1.577 . S
C1255 C636 1.345 1_554 S
C1260 C49 1.282 1_556 S
C1271 C137 1.304 . S
C1276 C733 1.367 . S
C1287 C233 1.298 . S
C1292 C821 1.279 . S
C1303 C321 1.317 1_556 S
C1308 C900 1.369 1_554 S
C1319 C997 1.281 . S
C1324 C401 1.337 . S
C1335 C489 1.278 . S
C1340 C557 1.301 . S
C1351 C909 1.164 . S
C1356 C57 1.171 . S
C1367 C988 1.174 . S
C1372 C145 1.165 . S
C1383 C548 1.183 . S
C1388 C225 1.172 . S
C1399 C313 1.187 . S
C1404 C645 1.200 . S
C1415 C409 1.162 . S
C1420 C724 1.162 . S
C1431 C497 1.211 . S
C1436 C812 1.220 . S
