# Generated by pormake.
# Topology uop, (4)-cn, num edge types: 1
# Building blocks:
#     Node 0, Type 0, BuildingBlock: ICAMEG_clean_sbu_1, # of connection points: 4
#     Node 1, Type 0, BuildingBlock: ICAMEG_clean_sbu_1, # of connection points: 4
#     Node 2, Type 0, BuildingBlock: ICAMEG_clean_sbu_1, # of connection points: 4
#     Node 3, Type 0, BuildingBlock: ICAMEG_clean_sbu_1, # of connection points: 4
#     Node 4, Type 0, BuildingBlock: ICAMEG_clean_sbu_1, # of connection points: 4
#     Node 5, Type 0, BuildingBlock: ICAMEG_clean_sbu_1, # of connection points: 4
#     Node 6, Type 0, BuildingBlock: ICAMEG_clean_sbu_1, # of connection points: 4
#     Node 7, Type 0, BuildingBlock: ICAMEG_clean_sbu_1, # of connection points: 4
#     Node 8, Type 0, BuildingBlock: ICAMEG_clean_sbu_1, # of connection points: 4
#     Node 9, Type 0, BuildingBlock: ICAMEG_clean_sbu_1, # of connection points: 4
#     Node 10, Type 0, BuildingBlock: ICAMEG_clean_sbu_1, # of connection points: 4
#     Node 11, Type 0, BuildingBlock: ICAMEG_clean_sbu_1, # of connection points: 4
#     Edge 12, Type (0, 0), BuildingBlock: MIFKUJ_clean_linker_0, # of connection points: 2
#     Edge 13, Type (0, 0), BuildingBlock: MIFKUJ_clean_linker_0, # of connection points: 2
#     Edge 14, Type (0, 0), BuildingBlock: MIFKUJ_clean_linker_0, # of connection points: 2
#     Edge 15, Type (0, 0), BuildingBlock: MIFKUJ_clean_linker_0, # of connection points: 2
#     Edge 16, Type (0, 0), BuildingBlock: MIFKUJ_clean_linker_0, # of connection points: 2
#     Edge 17, Type (0, 0), BuildingBlock: MIFKUJ_clean_linker_0, # of connection points: 2
#     Edge 18, Type (0, 0), BuildingBlock: MIFKUJ_clean_linker_0, # of connection points: 2
#     Edge 19, Type (0, 0), BuildingBlock: MIFKUJ_clean_linker_0, # of connection points: 2
#     Edge 20, Type (0, 0), BuildingBlock: MIFKUJ_clean_linker_0, # of connection points: 2
#     Edge 21, Type (0, 0), BuildingBlock: MIFKUJ_clean_linker_0, # of connection points: 2
#     Edge 22, Type (0, 0), BuildingBlock: MIFKUJ_clean_linker_0, # of connection points: 2
#     Edge 23, Type (0, 0), BuildingBlock: MIFKUJ_clean_linker_0, # of connection points: 2
#     Edge 24, Type (0, 0), BuildingBlock: MIFKUJ_clean_linker_0, # of connection points: 2
#     Edge 25, Type (0, 0), BuildingBlock: MIFKUJ_clean_linker_0, # of connection points: 2
#     Edge 26, Type (0, 0), BuildingBlock: MIFKUJ_clean_linker_0, # of connection points: 2
#     Edge 27, Type (0, 0), BuildingBlock: MIFKUJ_clean_linker_0, # of connection points: 2
#     Edge 28, Type (0, 0), BuildingBlock: MIFKUJ_clean_linker_0, # of connection points: 2
#     Edge 29, Type (0, 0), BuildingBlock: MIFKUJ_clean_linker_0, # of connection points: 2
#     Edge 30, Type (0, 0), BuildingBlock: MIFKUJ_clean_linker_0, # of connection points: 2
#     Edge 31, Type (0, 0), BuildingBlock: MIFKUJ_clean_linker_0, # of connection points: 2
#     Edge 32, Type (0, 0), BuildingBlock: MIFKUJ_clean_linker_0, # of connection points: 2
#     Edge 33, Type (0, 0), BuildingBlock: MIFKUJ_clean_linker_0, # of connection points: 2
#     Edge 34, Type (0, 0), BuildingBlock: MIFKUJ_clean_linker_0, # of connection points: 2
#     Edge 35, Type (0, 0), BuildingBlock: MIFKUJ_clean_linker_0, # of connection points: 2
# Relax obj value: 0.105
# Max RMSD: 0.103
# Mean RMSD: 0.103
data_MOF--net-uop--node1-ICAMEG_clean_sbu_1--edge1-MIFKUJ_clean_linker_0
_symmetry_space_group_name_H-M    P1
_symmetry_Int_Tables_number       1
_symmetry_cell_setting            triclinic
loop_
_symmetry_equiv_pos_as_xyz
'x, y, z'
_cell_length_a     45.382702
_cell_length_b     45.382206
_cell_length_c     56.246345
_cell_angle_alpha  89.981554
_cell_angle_beta   89.990948
_cell_angle_gamma 119.95353
loop_
_atom_site_label
_atom_site_type_symbol
_atom_site_fract_x
_atom_site_fract_y
_atom_site_fract_z
_atom_type_partial_charge
Co0 Co 0.26289 0.44015 0.23706 0.0
Co1 Co 0.25299 0.38951 0.18832 0.0
O2 O 0.24241 0.41967 0.20663 0.0
C3 C 0.27938 0.49909 0.20641 0.0
O4 O 0.28898 0.48503 0.19003 0.0
C5 C 0.18001 0.34878 0.19854 0.0
O6 O 0.18807 0.3585 0.2207 0.0
O7 O 0.25053 0.36269 0.21713 0.0
O8 O 0.25775 0.39641 0.24851 0.0
H9 H 0.3137 0.32494 0.17046 0.0
H10 H 0.20409 0.44445 0.21838 0.0
O11 O 0.26808 0.48433 0.22628 0.0
H12 H 0.16678 0.38735 0.29614 0.0
H13 H 0.28363 0.51601 0.30785 0.0
H14 H 0.31358 0.43727 0.26869 0.0
H15 H 0.22487 0.40676 0.28149 0.0
H16 H 0.25671 0.48843 0.26992 0.0
O17 O 0.20317 0.35858 0.18275 0.0
H18 H 0.30093 0.36339 0.1936 0.0
H19 H 0.22557 0.35058 0.14336 0.0
H20 H 0.34095 0.4641 0.30669 0.0
H21 H 0.14586 0.42576 0.23242 0.0
H22 H 0.326 0.50379 0.32653 0.0
H23 H 0.12682 0.39684 0.27152 0.0
O24 O 0.30927 0.45415 0.22481 0.0
H25 H 0.21258 0.44804 0.13215 0.0
H26 H 0.30323 0.42115 0.14898 0.0
H27 H 0.30783 0.45541 0.11364 0.0
H28 H 0.26225 0.46902 0.10503 0.0
H29 H 0.20914 0.41409 0.16739 0.0
H30 H 0.23732 0.31176 0.11977 0.0
H31 H 0.28177 0.29883 0.13326 0.0
O32 O 0.30263 0.41999 0.19384 0.0
C33 C 0.25311 0.36871 0.2394 0.0
C34 C 0.29435 0.33046 0.16436 0.0
C35 C 0.25145 0.32302 0.13593 0.0
N36 N 0.26271 0.35939 0.16974 0.0
C37 C 0.28707 0.35228 0.17735 0.0
C38 C 0.24485 0.34496 0.14938 0.0
C39 C 0.2764 0.31579 0.1435 0.0
C40 C 0.19606 0.4321 0.23549 0.0
N41 N 0.2178 0.42659 0.24908 0.0
C42 C 0.16303 0.42149 0.24332 0.0
C43 C 0.15236 0.40522 0.26524 0.0
C44 C 0.17475 0.39986 0.27905 0.0
C45 C 0.20756 0.41077 0.27063 0.0
C46 C 0.29029 0.49869 0.29942 0.0
C47 C 0.30676 0.45432 0.27731 0.0
C48 C 0.27518 0.48305 0.27792 0.0
N49 N 0.28336 0.46104 0.26722 0.0
C50 C 0.32242 0.46951 0.29879 0.0
C51 C 0.31405 0.49182 0.30989 0.0
C52 C 0.32118 0.44389 0.20822 0.0
C53 C 0.23256 0.44219 0.13568 0.0
C54 C 0.28333 0.42703 0.14537 0.0
C55 C 0.28604 0.44639 0.12532 0.0
C56 C 0.26045 0.454 0.12048 0.0
N57 N 0.25585 0.41548 0.16016 0.0
C58 C 0.23068 0.42287 0.15555 0.0
Co59 Co 0.8297 0.25401 0.5612 0.0
Co60 Co 0.87435 0.2386 0.51779 0.0
O61 O 0.83218 0.23048 0.53299 0.0
C62 C 0.7908 0.26793 0.52532 0.0
O63 O 0.81501 0.27417 0.50996 0.0
C64 C 0.83913 0.1664 0.53114 0.0
O65 O 0.83582 0.1765 0.55232 0.0
O66 O 0.89495 0.23765 0.54886 0.0
O67 O 0.86668 0.2495 0.5767 0.0
H68 H 0.00093 0.2944 0.50697 0.0
H69 H 0.76789 0.19402 0.5424 0.0
O70 O 0.79245 0.25888 0.54646 0.0
H71 H 0.77968 0.16388 0.62471 0.0
H72 H 0.76865 0.28255 0.62381 0.0
H73 H 0.88049 0.30941 0.59171 0.0
H74 H 0.8204 0.22028 0.60834 0.0
H75 H 0.77268 0.25029 0.5899 0.0
O76 O 0.8545 0.18815 0.51471 0.0
H77 H 0.94802 0.28486 0.52621 0.0
H78 H 0.88913 0.20705 0.47645 0.0
H79 H 0.87749 0.3433 0.62499 0.0
H80 H 0.72637 0.13745 0.5581 0.0
H81 H 0.82138 0.32952 0.64153 0.0
H82 H 0.73224 0.12203 0.59951 0.0
O83 O 0.8635 0.29873 0.54758 0.0
H84 H 0.78192 0.19611 0.45618 0.0
H85 H 0.89839 0.28589 0.47634 0.0
H86 H 0.8731 0.28868 0.43818 0.0
H87 H 0.81447 0.24354 0.42788 0.0
H88 H 0.80806 0.19446 0.49422 0.0
H89 H 0.9414 0.21553 0.45675 0.0
H90 H 0.9978 0.25958 0.47196 0.0
O91 O 0.89465 0.28897 0.52091 0.0
C92 C 0.88966 0.2428 0.57032 0.0
C93 C 0.9765 0.27522 0.50011 0.0
C94 C 0.94309 0.23092 0.47195 0.0
N95 N 0.91556 0.24567 0.50231 0.0
C96 C 0.94647 0.26979 0.51089 0.0
C97 C 0.9136 0.22619 0.4832 0.0
C98 C 0.97473 0.25564 0.48049 0.0
C99 C 0.77044 0.18757 0.56049 0.0
N100 N 0.79657 0.21036 0.57443 0.0
C101 C 0.74692 0.15547 0.56926 0.0
C102 C 0.75025 0.14682 0.59248 0.0
C103 C 0.77688 0.17028 0.60663 0.0
C104 C 0.79995 0.20211 0.59724 0.0
C105 C 0.7933 0.28858 0.61691 0.0
C106 C 0.85594 0.30331 0.59879 0.0
C107 C 0.79575 0.27032 0.59777 0.0
N108 N 0.82681 0.27771 0.58902 0.0
C109 C 0.85442 0.32253 0.61765 0.0
C110 C 0.82289 0.31491 0.62684 0.0
C111 C 0.88777 0.30889 0.53261 0.0
C112 C 0.80752 0.21588 0.46043 0.0
C113 C 0.87283 0.26619 0.472 0.0
C114 C 0.85868 0.26787 0.45035 0.0
C115 C 0.82578 0.24252 0.44458 0.0
N116 N 0.85478 0.23994 0.48743 0.0
C117 C 0.82252 0.215 0.4819 0.0
Co118 Co 0.56453 0.83377 0.89731 0.0
Co119 Co 0.62598 0.88104 0.85562 0.0
O120 O 0.59103 0.83782 0.86898 0.0
C121 C 0.51217 0.79473 0.86126 0.0
O122 O 0.5292 0.81972 0.84621 0.0
C123 C 0.66157 0.84362 0.86575 0.0
O124 O 0.64863 0.83951 0.88717 0.0
O125 O 0.64766 0.89762 0.8872 0.0
O126 O 0.60494 0.87119 0.9133 0.0
H127 H 0.6998 0.00813 0.85196 0.0
H128 H 0.56401 0.77288 0.87786 0.0
O129 O 0.52325 0.79608 0.88222 0.0
H130 H 0.60924 0.78579 0.95924 0.0
H131 H 0.47713 0.76915 0.96053 0.0
H132 H 0.55916 0.8827 0.92935 0.0
H133 H 0.59149 0.82544 0.94381 0.0
H134 H 0.51177 0.77511 0.92511 0.0
O135 O 0.65538 0.86023 0.85016 0.0
H136 H 0.65517 0.95366 0.86856 0.0
H137 H 0.67241 0.89945 0.81392 0.0
H138 H 0.52526 0.87793 0.96495 0.0
H139 H 0.58129 0.73255 0.89263 0.0
H140 H 0.48388 0.82083 0.98075 0.0
H141 H 0.60426 0.73899 0.93354 0.0
O142 O 0.5523 0.86692 0.8841 0.0
H143 H 0.5743 0.79621 0.78923 0.0
H144 H 0.60432 0.91097 0.8169 0.0
H145 H 0.57617 0.89073 0.77805 0.0
H146 H 0.56101 0.83297 0.76397 0.0
H147 H 0.6022 0.81735 0.82807 0.0
H148 H 0.71738 0.95336 0.79675 0.0
H149 H 0.73122 0.0082 0.81577 0.0
O150 O 0.59691 0.90212 0.86115 0.0
C151 C 0.63566 0.89272 0.90821 0.0
C152 C 0.69389 0.98442 0.84344 0.0
C153 C 0.70379 0.95367 0.81248 0.0
N154 N 0.66098 0.92347 0.84206 0.0
C155 C 0.66858 0.95351 0.85272 0.0
C156 C 0.67835 0.92323 0.82229 0.0
C157 C 0.71154 0.98443 0.82316 0.0
C158 C 0.5736 0.7756 0.89579 0.0
N159 N 0.57657 0.80138 0.90999 0.0
C160 C 0.58349 0.75278 0.90401 0.0
C161 C 0.59642 0.75644 0.92697 0.0
C162 C 0.59924 0.78271 0.94138 0.0
C163 C 0.58918 0.80511 0.93254 0.0
C164 C 0.49512 0.79418 0.95384 0.0
C165 C 0.54134 0.85777 0.93622 0.0
C166 C 0.51475 0.79771 0.93377 0.0
N167 N 0.53764 0.82923 0.92531 0.0
C168 C 0.52216 0.85523 0.95634 0.0
C169 C 0.49893 0.82318 0.96518 0.0
C170 C 0.56849 0.89343 0.87123 0.0
C171 C 0.58088 0.82146 0.79514 0.0
C172 C 0.59773 0.88577 0.81092 0.0
C173 C 0.58186 0.87448 0.78888 0.0
C174 C 0.57338 0.84208 0.78099 0.0
N175 N 0.60503 0.86541 0.82469 0.0
C176 C 0.5968 0.83362 0.81707 0.0
Co177 Co 0.74089 0.58586 0.22991 0.0
Co178 Co 0.75331 0.64286 0.185 0.0
O179 O 0.76243 0.60974 0.2006 0.0
C180 C 0.72706 0.53063 0.19637 0.0
O181 O 0.71741 0.54581 0.1809 0.0
C182 C 0.82619 0.67889 0.19487 0.0
O183 O 0.81749 0.6666 0.21646 0.0
O184 O 0.75795 0.66745 0.21537 0.0
O185 O 0.74356 0.62738 0.24358 0.0
H186 H 0.69695 0.71322 0.17439 0.0
H187 H 0.8006 0.58309 0.21155 0.0
O188 O 0.73742 0.54345 0.21688 0.0
H189 H 0.83529 0.63684 0.29044 0.0
H190 H 0.7205 0.50488 0.29737 0.0
H191 H 0.68731 0.5832 0.26151 0.0
H192 H 0.77756 0.61807 0.27507 0.0
H193 H 0.74799 0.53608 0.26053 0.0
O194 O 0.80336 0.67261 0.17933 0.0
H195 H 0.70819 0.67142 0.19438 0.0
H196 H 0.78101 0.68554 0.14157 0.0
H197 H 0.65925 0.5526 0.29837 0.0
H198 H 0.85821 0.60096 0.22641 0.0
H199 H 0.67585 0.51314 0.31657 0.0
H200 H 0.8759 0.62819 0.26609 0.0
O201 O 0.69524 0.57241 0.21698 0.0
H202 H 0.7884 0.5866 0.12304 0.0
H203 H 0.70173 0.61648 0.14616 0.0
H204 H 0.69458 0.58489 0.10893 0.0
H205 H 0.73815 0.56979 0.09714 0.0
H206 H 0.79439 0.6179 0.16023 0.0
H207 H 0.77082 0.72776 0.12113 0.0
H208 H 0.7284 0.74171 0.13749 0.0
O209 O 0.70321 0.61343 0.19088 0.0
C210 C 0.75135 0.65712 0.23679 0.0
C211 C 0.71542 0.70728 0.16705 0.0
C212 C 0.75691 0.71547 0.13717 0.0
N213 N 0.74501 0.67587 0.16902 0.0
C214 C 0.72181 0.68356 0.17824 0.0
C215 C 0.76263 0.69162 0.14884 0.0
C216 C 0.7331 0.72328 0.14636 0.0
C217 C 0.80792 0.59447 0.22899 0.0
N218 N 0.78565 0.59928 0.24251 0.0
C219 C 0.84064 0.60469 0.23725 0.0
C220 C 0.85057 0.62002 0.2595 0.0
C221 C 0.82775 0.62489 0.27318 0.0
C222 C 0.79518 0.6143 0.26436 0.0
C223 C 0.71308 0.52203 0.28963 0.0
C224 C 0.69478 0.56618 0.26937 0.0
C225 C 0.72853 0.53974 0.26876 0.0
N226 N 0.71943 0.56162 0.25898 0.0
C227 C 0.67871 0.54883 0.29019 0.0
C228 C 0.68801 0.52666 0.30038 0.0
C229 C 0.68404 0.58655 0.20283 0.0
C230 C 0.7693 0.59313 0.12795 0.0
C231 C 0.72076 0.60994 0.14118 0.0
C232 C 0.71661 0.59211 0.12005 0.0
C233 C 0.74107 0.58366 0.11344 0.0
N234 N 0.74854 0.61918 0.15529 0.0
C235 C 0.77263 0.61098 0.14894 0.0
Co236 Co 0.16038 0.72599 0.56254 0.0
Co237 Co 0.11351 0.74104 0.52139 0.0
O238 O 0.15666 0.75064 0.53549 0.0
C239 C 0.2056 0.72217 0.52671 0.0
O240 O 0.1811 0.71365 0.51114 0.0
C241 C 0.14778 0.81376 0.53298 0.0
O242 O 0.15053 0.80481 0.5547 0.0
O243 O 0.09501 0.74347 0.55294 0.0
O244 O 0.11925 0.72283 0.57763 0.0
H245 H 0.98628 0.68346 0.51463 0.0
H246 H 0.21988 0.79161 0.54812 0.0
O247 O 0.20164 0.72843 0.54815 0.0
H248 H 0.19431 0.809 0.63044 0.0
H249 H 0.22421 0.70195 0.62566 0.0
H250 H 0.11179 0.66529 0.59014 0.0
H251 H 0.16052 0.75333 0.61085 0.0
H252 H 0.21837 0.73344 0.59194 0.0
O253 O 0.13267 0.79114 0.51705 0.0
H254 H 0.04063 0.69475 0.53242 0.0
H255 H 0.0955 0.7698 0.47996 0.0
H256 H 0.1164 0.63323 0.62398 0.0
H257 H 0.25451 0.84763 0.5671 0.0
H258 H 0.17294 0.65153 0.64197 0.0
H259 H 0.2417 0.85662 0.60852 0.0
O260 O 0.13142 0.68191 0.54629 0.0
H261 H 0.20161 0.78133 0.45669 0.0
H262 H 0.08741 0.69135 0.48136 0.0
H263 H 0.11034 0.68685 0.44263 0.0
H264 H 0.16782 0.7321 0.43005 0.0
H265 H 0.17788 0.78463 0.49538 0.0
H266 H 0.04174 0.75955 0.4617 0.0
H267 H 0.98663 0.71599 0.479 0.0
O268 O 0.09394 0.69074 0.52575 0.0
C269 C 0.09779 0.73241 0.57314 0.0
C270 C 0.01012 0.7024 0.50687 0.0
C271 C 0.04125 0.74514 0.47718 0.0
N272 N 0.07115 0.73262 0.50707 0.0
C273 C 0.04097 0.70881 0.51681 0.0
C274 C 0.0716 0.75087 0.48761 0.0
C275 C 0.01034 0.72069 0.48689 0.0
C276 C 0.21444 0.79521 0.56625 0.0
N277 N 0.18836 0.76917 0.5784 0.0
C278 C 0.23402 0.82703 0.57687 0.0
C279 C 0.22678 0.83208 0.6001 0.0
C280 C 0.20019 0.80537 0.6124 0.0
C281 C 0.18111 0.77392 0.6012 0.0
C282 C 0.19942 0.69379 0.61803 0.0
C283 C 0.13643 0.67357 0.59801 0.0
C284 C 0.19596 0.71149 0.59892 0.0
N285 N 0.16471 0.70143 0.58928 0.0
C286 C 0.1389 0.65524 0.6171 0.0
C287 C 0.17064 0.6655 0.62717 0.0
C288 C 0.10424 0.67126 0.53415 0.0
C289 C 0.1765 0.76151 0.46193 0.0
C290 C 0.11249 0.71108 0.47605 0.0
C291 C 0.1253 0.70844 0.45407 0.0
C292 C 0.15754 0.73385 0.44702 0.0
N293 N 0.13123 0.73829 0.49058 0.0
C294 C 0.16285 0.76331 0.48378 0.0
Co295 Co 0.41988 0.15662 0.88038 0.0
Co296 Co 0.361 0.11313 0.83608 0.0
O297 O 0.39226 0.15473 0.85327 0.0
C298 C 0.47065 0.20457 0.84623 0.0
O299 O 0.45547 0.18169 0.8295 0.0
C300 C 0.31953 0.14152 0.85366 0.0
O301 O 0.33486 0.14515 0.87412 0.0
O302 O 0.34141 0.08747 0.86615 0.0
O303 O 0.38128 0.11491 0.89422 0.0
H304 H 0.30176 0.98814 0.81772 0.0
H305 H 0.41461 0.21725 0.86788 0.0
O306 O 0.45926 0.19865 0.86738 0.0
H307 H 0.37129 0.18812 0.94995 0.0
H308 H 0.50693 0.21564 0.94481 0.0
H309 H 0.43093 0.10587 0.906 0.0
H310 H 0.39225 0.15448 0.92892 0.0
H311 H 0.4697 0.2123 0.91173 0.0
O312 O 0.32614 0.12804 0.83609 0.0
H313 H 0.34146 0.04038 0.83935 0.0
H314 H 0.31291 0.09852 0.79586 0.0
H315 H 0.46832 0.10823 0.93868 0.0
H316 H 0.39438 0.2519 0.88838 0.0
H317 H 0.50634 0.1633 0.95849 0.0
H318 H 0.37235 0.23727 0.92967 0.0
O319 O 0.43554 0.12866 0.86316 0.0
H320 H 0.40145 0.21273 0.78054 0.0
H321 H 0.3873 0.09857 0.79168 0.0
H322 H 0.41299 0.13009 0.75461 0.0
H323 H 0.42017 0.18758 0.74886 0.0
H324 H 0.3761 0.18044 0.8174 0.0
H325 H 0.27267 0.04686 0.77387 0.0
H326 H 0.26702 0.99119 0.78471 0.0
O327 O 0.3953 0.09777 0.83606 0.0
C328 C 0.35265 0.09074 0.88731 0.0
C329 C 0.30408 0.01226 0.81277 0.0
C330 C 0.28772 0.04521 0.78818 0.0
N331 N 0.32971 0.07248 0.81872 0.0
C332 C 0.32659 0.04193 0.8249 0.0
C333 C 0.31049 0.07436 0.80072 0.0
C334 C 0.28457 0.01399 0.79427 0.0
C335 C 0.40541 0.21097 0.88594 0.0
N336 N 0.40467 0.18393 0.89721 0.0
C337 C 0.39388 0.2306 0.89743 0.0
C338 C 0.38146 0.22234 0.92058 0.0
C339 C 0.38082 0.19474 0.93196 0.0
C340 C 0.3926 0.17571 0.91993 0.0
C341 C 0.49028 0.19143 0.93643 0.0
C342 C 0.4474 0.12995 0.91457 0.0
C343 C 0.46912 0.18938 0.91771 0.0
N344 N 0.44793 0.15887 0.90711 0.0
C345 C 0.46846 0.1311 0.93307 0.0
C346 C 0.48992 0.16206 0.94411 0.0
C347 C 0.42314 0.10614 0.84686 0.0
C348 C 0.39836 0.18766 0.78281 0.0
C349 C 0.39038 0.1236 0.78932 0.0
C350 C 0.40489 0.1413 0.76828 0.0
C351 C 0.4089 0.17355 0.76505 0.0
N352 N 0.38002 0.13757 0.80662 0.0
C353 C 0.38389 0.16919 0.8036 0.0
Co354 Co 0.56623 0.72397 0.44201 0.0
Co355 Co 0.62038 0.73663 0.48876 0.0
O356 O 0.58937 0.74665 0.47121 0.0
C357 C 0.51136 0.71575 0.47385 0.0
O358 O 0.52552 0.70645 0.49035 0.0
C359 C 0.66008 0.80933 0.47783 0.0
O360 O 0.65027 0.80024 0.45579 0.0
O361 O 0.64628 0.73978 0.45944 0.0
O362 O 0.6073 0.72333 0.43027 0.0
H363 H 0.68799 0.67844 0.50439 0.0
H364 H 0.56728 0.78721 0.45674 0.0
O365 O 0.52449 0.72388 0.45321 0.0
H366 H 0.62395 0.81306 0.37854 0.0
H367 H 0.48909 0.70367 0.37215 0.0
H368 H 0.56148 0.66703 0.41311 0.0
H369 H 0.6011 0.7561 0.39637 0.0
H370 H 0.5194 0.73206 0.40902 0.0
O371 O 0.65078 0.78676 0.49405 0.0
H372 H 0.64813 0.69026 0.48218 0.0
H373 H 0.6604 0.76447 0.53323 0.0
H374 H 0.53249 0.6387 0.37586 0.0
H375 H 0.58958 0.84444 0.43948 0.0
H376 H 0.49571 0.65672 0.35528 0.0
H377 H 0.6183 0.8577 0.40015 0.0
O378 O 0.54979 0.67876 0.4568 0.0
H379 H 0.56264 0.77556 0.54677 0.0
H380 H 0.59049 0.68607 0.52808 0.0
H381 H 0.55707 0.68075 0.56406 0.0
H382 H 0.54297 0.72573 0.5736 0.0
H383 H 0.59576 0.77973 0.51088 0.0
H384 H 0.70065 0.75372 0.55589 0.0
H385 H 0.71455 0.71031 0.54153 0.0
O386 O 0.59032 0.68638 0.48324 0.0
C387 C 0.63678 0.7314 0.438 0.0
C388 C 0.68202 0.69731 0.51088 0.0
C389 C 0.68917 0.73959 0.53977 0.0
N390 N 0.65168 0.72773 0.50656 0.0
C391 C 0.65938 0.704 0.49843 0.0
C392 C 0.66641 0.74561 0.52685 0.0
C393 C 0.69695 0.71523 0.53171 0.0
C394 C 0.57939 0.79267 0.43949 0.0
N395 N 0.58269 0.76828 0.42752 0.0
C396 C 0.59211 0.82517 0.42986 0.0
C397 C 0.60828 0.83261 0.40781 0.0
C398 C 0.61149 0.80758 0.39569 0.0
C399 C 0.59852 0.77538 0.40588 0.0
C400 C 0.50503 0.69555 0.38097 0.0
C401 C 0.54591 0.67536 0.40406 0.0
C402 C 0.52218 0.71146 0.40188 0.0
N403 N 0.54251 0.70146 0.41304 0.0
C404 C 0.52934 0.65903 0.38309 0.0
C405 C 0.50875 0.66921 0.37151 0.0
C406 C 0.56317 0.66742 0.47147 0.0
C407 C 0.56872 0.75585 0.54284 0.0
C408 C 0.58439 0.70571 0.53209 0.0
C409 C 0.56552 0.7026 0.55251 0.0
C410 C 0.55764 0.72786 0.55786 0.0
N411 N 0.59518 0.73325 0.51746 0.0
C412 C 0.58759 0.75814 0.5226 0.0
Co413 Co 0.83672 0.569 0.78096 0.0
Co414 Co 0.87402 0.62633 0.82655 0.0
O415 O 0.83424 0.59322 0.80874 0.0
C416 C 0.78683 0.51448 0.81186 0.0
O417 O 0.80761 0.52936 0.82976 0.0
C418 C 0.83859 0.663 0.81316 0.0
O419 O 0.83923 0.65301 0.79137 0.0
O420 O 0.89711 0.65157 0.79702 0.0
O421 O 0.87916 0.60963 0.76999 0.0
H422 H 0.99872 0.69918 0.84407 0.0
H423 H 0.77267 0.56894 0.7909 0.0
O424 O 0.79441 0.52733 0.79114 0.0
H425 H 0.8113 0.6255 0.71313 0.0
H426 H 0.78762 0.48858 0.71173 0.0
H427 H 0.89198 0.56365 0.75667 0.0
H428 H 0.84374 0.60289 0.73404 0.0
H429 H 0.78567 0.52108 0.74625 0.0
O430 O 0.85207 0.65501 0.83002 0.0
H431 H 0.94872 0.65693 0.82155 0.0
H432 H 0.88275 0.66762 0.86987 0.0
H433 H 0.89505 0.53178 0.72211 0.0
H434 H 0.73914 0.59038 0.77033 0.0
H435 H 0.84264 0.49382 0.6995 0.0
H436 H 0.75859 0.61908 0.73121 0.0
O437 O 0.86425 0.55372 0.7989 0.0
H438 H 0.77596 0.56766 0.88336 0.0
H439 H 0.89528 0.5999 0.86774 0.0
H440 H 0.86696 0.5675 0.904 0.0
H441 H 0.80688 0.55121 0.91201 0.0
H442 H 0.80515 0.59978 0.84721 0.0
H443 H 0.93204 0.71024 0.8928 0.0
H444 H 0.99052 0.72615 0.87998 0.0
O445 O 0.89649 0.59795 0.823 0.0
C446 C 0.89857 0.64016 0.77665 0.0
C447 C 0.97337 0.69236 0.84989 0.0
C448 C 0.93594 0.6986 0.87722 0.0
N449 N 0.91289 0.65958 0.84455 0.0
C450 C 0.94496 0.66837 0.83726 0.0
C451 C 0.90814 0.67451 0.86415 0.0
C452 C 0.96875 0.70751 0.87002 0.0
C453 C 0.78095 0.58082 0.77367 0.0
N454 N 0.80997 0.58439 0.76359 0.0
C455 C 0.76198 0.59311 0.76219 0.0
C456 C 0.77294 0.60926 0.74026 0.0
C457 C 0.80254 0.61281 0.73008 0.0
C458 C 0.82082 0.60008 0.74204 0.0
C459 C 0.81065 0.50502 0.72148 0.0
C460 C 0.86907 0.54738 0.74678 0.0
C461 C 0.8097 0.52348 0.74104 0.0
N462 N 0.8387 0.54437 0.75339 0.0
C463 C 0.87097 0.5293 0.72732 0.0
C464 C 0.84151 0.50794 0.71464 0.0
C465 C 0.88902 0.56957 0.81327 0.0
C466 C 0.80218 0.57471 0.8801 0.0
C467 C 0.8691 0.59281 0.87106 0.0
C468 C 0.85322 0.57454 0.89165 0.0
C469 C 0.81952 0.56543 0.89615 0.0
N470 N 0.85192 0.60183 0.85542 0.0
C471 C 0.81889 0.59303 0.85972 0.0
Co472 Co 0.27083 0.83158 0.11223 0.0
Co473 Co 0.25222 0.88587 0.14366 0.0
O474 O 0.24736 0.84118 0.13753 0.0
C475 C 0.29088 0.80994 0.15618 0.0
O476 O 0.29138 0.83509 0.168 0.0
C477 C 0.17998 0.84095 0.13274 0.0
O478 O 0.1902 0.82907 0.11528 0.0
O479 O 0.249 0.89418 0.10925 0.0
O480 O 0.26084 0.8586 0.08921 0.0
H481 H 0.30025 0.01132 0.13141 0.0
H482 H 0.21724 0.7746 0.14006 0.0
O483 O 0.28198 0.80454 0.13447 0.0
H484 H 0.1775 0.75209 0.05694 0.0
H485 H 0.30317 0.75696 0.06607 0.0
H486 H 0.31894 0.87223 0.07387 0.0
H487 H 0.23244 0.80251 0.06712 0.0
H488 H 0.27318 0.76973 0.09737 0.0
O489 O 0.20159 0.8643 0.14623 0.0
H490 H 0.29432 0.95511 0.12364 0.0
H491 H 0.21882 0.91074 0.17738 0.0
H492 H 0.34921 0.86048 0.04212 0.0
H493 H 0.16223 0.72376 0.13066 0.0
H494 H 0.34141 0.8025 0.03809 0.0
H495 H 0.14201 0.71227 0.08885 0.0
O496 O 0.31475 0.8724 0.12069 0.0
H497 H 0.21535 0.81811 0.2194 0.0
H498 H 0.2999 0.92643 0.1826 0.0
H499 H 0.30484 0.91653 0.22517 0.0
H500 H 0.2623 0.86208 0.24385 0.0
H501 H 0.21161 0.8289 0.17683 0.0
H502 H 0.22371 0.96641 0.18561 0.0
H503 H 0.26477 0.01722 0.16259 0.0
O504 O 0.30275 0.90799 0.14087 0.0
C505 C 0.25309 0.88194 0.08996 0.0
C506 C 0.28236 0.9894 0.14162 0.0
C507 C 0.23937 0.96419 0.17202 0.0
N508 N 0.25651 0.92978 0.15021 0.0
C509 C 0.27899 0.95754 0.13736 0.0
C510 C 0.23667 0.93273 0.16726 0.0
C511 C 0.26242 0.99268 0.1591 0.0
C512 C 0.20871 0.76964 0.1218 0.0
N513 N 0.22805 0.79144 0.10415 0.0
C514 C 0.17749 0.74088 0.1166 0.0
C515 C 0.16615 0.73448 0.09314 0.0
C516 C 0.18604 0.75682 0.07523 0.0
C517 C 0.21708 0.78538 0.0811 0.0
C518 C 0.30672 0.78231 0.0676 0.0
C519 C 0.31524 0.84688 0.0721 0.0
C520 C 0.28985 0.78971 0.08532 0.0
N521 N 0.29409 0.82164 0.0873 0.0
C522 C 0.33252 0.8404 0.05415 0.0
C523 C 0.32816 0.80787 0.05191 0.0
C524 C 0.32368 0.90015 0.13173 0.0
C525 C 0.23399 0.84198 0.21148 0.0
C526 C 0.28138 0.90261 0.19058 0.0
C527 C 0.28425 0.89719 0.21471 0.0
C528 C 0.26036 0.86664 0.22518 0.0
N529 N 0.2554 0.87832 0.17728 0.0
C530 C 0.23191 0.84829 0.18741 0.0
Co531 Co 0.43309 0.25174 0.42554 0.0
Co532 Co 0.37422 0.23784 0.46942 0.0
O533 O 0.40964 0.23096 0.45521 0.0
C534 C 0.4882 0.27239 0.4605 0.0
O535 O 0.47025 0.27982 0.47507 0.0
C536 C 0.34168 0.16403 0.46268 0.0
O537 O 0.35333 0.17097 0.44083 0.0
O538 O 0.34971 0.22905 0.43863 0.0
O539 O 0.3898 0.24319 0.41055 0.0
H540 H 0.29492 0.28484 0.47416 0.0
H541 H 0.4406 0.19658 0.44762 0.0
O542 O 0.47696 0.26068 0.43987 0.0
H543 H 0.3928 0.15412 0.36798 0.0
H544 H 0.51828 0.27591 0.36035 0.0
H545 H 0.43008 0.29929 0.39082 0.0
H546 H 0.40604 0.21136 0.38094 0.0
H547 H 0.48753 0.24914 0.39748 0.0
O548 O 0.34763 0.18809 0.47704 0.0
H549 H 0.34012 0.27684 0.45641 0.0
H550 H 0.33182 0.21128 0.51312 0.0
H551 H 0.45996 0.32633 0.3535 0.0
H552 H 0.42804 0.13928 0.43532 0.0
H553 H 0.50443 0.3147 0.33805 0.0
H554 H 0.40383 0.11766 0.39527 0.0
O555 O 0.44242 0.29736 0.43637 0.0
H556 H 0.4356 0.21486 0.53477 0.0
H557 H 0.39654 0.2923 0.50607 0.0
H558 H 0.42882 0.30527 0.54356 0.0
H559 H 0.44854 0.26635 0.55816 0.0
H560 H 0.40359 0.20307 0.49721 0.0
H561 H 0.28628 0.21834 0.5314 0.0
H562 H 0.26765 0.25545 0.51194 0.0
O563 O 0.40014 0.28748 0.46183 0.0
C564 C 0.35941 0.23364 0.41701 0.0
C565 C 0.3029 0.26872 0.48287 0.0
C566 C 0.29803 0.23135 0.51498 0.0
N567 N 0.33881 0.24389 0.48385 0.0
C568 C 0.32857 0.26419 0.47295 0.0
C569 C 0.32377 0.22741 0.50453 0.0
C570 C 0.28759 0.25218 0.50405 0.0
C571 C 0.43035 0.18746 0.43009 0.0
N572 N 0.4241 0.20731 0.415 0.0
C573 C 0.42317 0.15495 0.42326 0.0
C574 C 0.40955 0.14282 0.4008 0.0
C575 C 0.40333 0.16325 0.38548 0.0
C576 C 0.41077 0.1956 0.39294 0.0
C577 C 0.49891 0.28113 0.36688 0.0
C578 C 0.44925 0.29393 0.38411 0.0
C579 C 0.48148 0.26612 0.38792 0.0
N580 N 0.45687 0.27247 0.39619 0.0
C581 C 0.46615 0.30939 0.36302 0.0
C582 C 0.49112 0.30288 0.35437 0.0
C583 C 0.42644 0.30741 0.44971 0.0
C584 C 0.42704 0.23193 0.52863 0.0
C585 C 0.40508 0.27527 0.51228 0.0
C586 C 0.42329 0.28271 0.53355 0.0
C587 C 0.43434 0.26086 0.54173 0.0
N588 N 0.39806 0.24686 0.49952 0.0
C589 C 0.40876 0.2253 0.50744 0.0
Co590 Co 0.16876 0.43176 0.76851 0.0
Co591 Co 0.12326 0.37497 0.81353 0.0
O592 O 0.16582 0.40849 0.79839 0.0
C593 C 0.20619 0.48736 0.80273 0.0
O594 O 0.1817 0.47025 0.8181 0.0
C595 C 0.16107 0.3392 0.805 0.0
O596 O 0.16804 0.35367 0.78399 0.0
O597 O 0.10454 0.35071 0.78301 0.0
O598 O 0.1326 0.38875 0.75412 0.0
H599 H 0.99636 0.30356 0.82177 0.0
H600 H 0.23093 0.43725 0.78994 0.0
O601 O 0.20514 0.47537 0.78212 0.0
H602 H 0.22156 0.38662 0.71078 0.0
H603 H 0.23054 0.51449 0.70217 0.0
H604 H 0.11843 0.43039 0.73431 0.0
H605 H 0.17959 0.40261 0.72396 0.0
H606 H 0.22618 0.48404 0.73951 0.0
O607 O 0.14315 0.3449 0.81973 0.0
H608 H 0.04997 0.34578 0.80268 0.0
H609 H 0.10698 0.33223 0.85709 0.0
H610 H 0.12162 0.46001 0.69678 0.0
H611 H 0.27371 0.42201 0.7774 0.0
H612 H 0.178 0.50242 0.68048 0.0
H613 H 0.26905 0.39631 0.73761 0.0
O614 O 0.1341 0.44335 0.77966 0.0
H615 H 0.21254 0.43125 0.87672 0.0
H616 H 0.09656 0.4008 0.85178 0.0
H617 H 0.11974 0.43233 0.88919 0.0
H618 H 0.17813 0.44774 0.90189 0.0
H619 H 0.18845 0.39996 0.83932 0.0
H620 H 0.054 0.28961 0.87669 0.0
H621 H 0.99819 0.27516 0.85906 0.0
O622 O 0.1026 0.40412 0.80725 0.0
C623 C 0.11004 0.35934 0.7612 0.0
C624 C 0.02052 0.30974 0.82968 0.0
C625 C 0.05287 0.30188 0.86048 0.0
N626 N 0.08152 0.3417 0.8289 0.0
C627 C 0.05094 0.33372 0.819 0.0
C628 C 0.08278 0.32598 0.84929 0.0
C629 C 0.02157 0.29379 0.85059 0.0
C630 C 0.22894 0.42641 0.77251 0.0
N631 N 0.20276 0.42079 0.7577 0.0
C632 C 0.25316 0.4177 0.76554 0.0
C633 C 0.2505 0.40324 0.74323 0.0
C634 C 0.22383 0.39775 0.72818 0.0
C635 C 0.20006 0.40673 0.73576 0.0
C636 C 0.20583 0.49603 0.70906 0.0
C637 C 0.14306 0.44865 0.72724 0.0
C638 C 0.2032 0.47877 0.73023 0.0
N639 N 0.17209 0.45529 0.73897 0.0
C640 C 0.1447 0.46541 0.70602 0.0
C641 C 0.17634 0.48923 0.6969 0.0
C642 C 0.10939 0.42991 0.79435 0.0
C643 C 0.18703 0.42458 0.87142 0.0
C644 C 0.122 0.40744 0.85717 0.0
C645 C 0.13497 0.42525 0.8784 0.0
C646 C 0.16772 0.43387 0.88551 0.0
N647 N 0.14109 0.3984 0.84345 0.0
C648 C 0.17321 0.40674 0.85032 0.0
Co649 Co 0.73814 0.18053 0.10538 0.0
Co650 Co 0.75445 0.13502 0.14728 0.0
O651 O 0.76296 0.17781 0.13283 0.0
C652 C 0.73095 0.22392 0.14118 0.0
O653 O 0.72521 0.20057 0.15716 0.0
C654 C 0.82699 0.17019 0.13513 0.0
O655 O 0.81778 0.17392 0.11373 0.0
O656 O 0.75691 0.11629 0.11588 0.0
O657 O 0.73811 0.14101 0.09014 0.0
H658 H 0.69955 0.00801 0.15424 0.0
H659 H 0.80148 0.24171 0.1209 0.0
O660 O 0.73737 0.22023 0.11973 0.0
H661 H 0.82328 0.22069 0.03849 0.0
H662 H 0.71038 0.24159 0.04223 0.0
H663 H 0.67966 0.13006 0.07693 0.0
H664 H 0.76766 0.18366 0.05736 0.0
H665 H 0.74269 0.23753 0.07613 0.0
O666 O 0.80462 0.15472 0.15116 0.0
H667 H 0.70915 0.06189 0.13662 0.0
H668 H 0.78431 0.11811 0.18868 0.0
H669 H 0.64691 0.13294 0.04289 0.0
H670 H 0.85742 0.2795 0.10267 0.0
H671 H 0.66215 0.18901 0.02537 0.0
H672 H 0.86863 0.269 0.0612 0.0
O673 O 0.69414 0.14978 0.12102 0.0
H674 H 0.79487 0.22408 0.21124 0.0
H675 H 0.7057 0.10882 0.18792 0.0
H676 H 0.70171 0.13206 0.22666 0.0
H677 H 0.74654 0.19006 0.23855 0.0
H678 H 0.7977 0.20001 0.17257 0.0
H679 H 0.7756 0.06483 0.20685 0.0
H680 H 0.73289 0.00928 0.18964 0.0
O681 O 0.70406 0.11464 0.14353 0.0
C682 C 0.74762 0.11967 0.09518 0.0
C683 C 0.71811 0.03205 0.16198 0.0
C684 C 0.76084 0.06395 0.19148 0.0
N685 N 0.74698 0.09307 0.16178 0.0
C686 C 0.72358 0.06263 0.15213 0.0
C687 C 0.76567 0.09402 0.18112 0.0
C688 C 0.73686 0.03279 0.18182 0.0
C689 C 0.80607 0.23722 0.10276 0.0
N690 N 0.78129 0.21065 0.09017 0.0
C691 C 0.83783 0.2586 0.09257 0.0
C692 C 0.84412 0.25266 0.06931 0.0
C693 C 0.81869 0.22555 0.05656 0.0
C694 C 0.78726 0.20464 0.06735 0.0
C695 C 0.70354 0.217 0.04969 0.0
C696 C 0.68665 0.15453 0.06925 0.0
C697 C 0.72172 0.21454 0.06888 0.0
N698 N 0.71329 0.18356 0.07832 0.0
C699 C 0.66792 0.15601 0.05005 0.0
C700 C 0.67648 0.18749 0.04023 0.0
C701 C 0.68413 0.12375 0.13431 0.0
C702 C 0.77523 0.19874 0.20629 0.0
C703 C 0.72525 0.13414 0.19293 0.0
C704 C 0.72289 0.14712 0.21491 0.0
C705 C 0.74807 0.17966 0.22158 0.0
N706 N 0.75197 0.153 0.17803 0.0
C707 C 0.77677 0.18492 0.18446 0.0
H708 H 0.33115 0.78814 0.13775 0.0
H709 H 0.33578 0.73945 0.15106 0.0
H710 H 0.27428 0.72896 0.21248 0.0
H711 H 0.27054 0.77882 0.19948 0.0
H712 H 0.32523 0.70919 0.22023 0.0
H713 H 0.23381 0.68727 0.16627 0.0
H714 H 0.2114 0.69989 0.13012 0.0
H715 H 0.27605 0.67801 0.08682 0.0
H716 H 0.29922 0.6657 0.12279 0.0
H717 H 0.25712 0.53214 0.2353 0.0
H718 H 0.26341 0.58819 0.22948 0.0
H719 H 0.31491 0.59836 0.1629 0.0
H720 H 0.30815 0.54176 0.16836 0.0
H721 H 0.26901 0.619 0.15904 0.0
H722 H 0.35927 0.63908 0.21292 0.0
H723 H 0.38404 0.62946 0.24907 0.0
H724 H 0.32285 0.6558 0.29256 0.0
H725 H 0.29734 0.6651 0.25665 0.0
C726 C 0.31961 0.77613 0.15452 0.0
C727 C 0.30019 0.78671 0.16754 0.0
C728 C 0.32227 0.7484 0.16208 0.0
C729 C 0.30473 0.73028 0.18242 0.0
C730 C 0.28789 0.74268 0.19669 0.0
C731 C 0.28574 0.77102 0.18929 0.0
C732 C 0.29977 0.69594 0.18639 0.0
C733 C 0.31258 0.68926 0.20707 0.0
C734 C 0.28366 0.67027 0.16895 0.0
C735 C 0.26838 0.67574 0.14722 0.0
C736 C 0.24326 0.68517 0.14904 0.0
C737 C 0.23046 0.69233 0.12859 0.0
C738 C 0.24234 0.68983 0.10619 0.0
C739 C 0.26687 0.67993 0.10419 0.0
C740 C 0.2798 0.67279 0.1246 0.0
C741 C 0.26979 0.54623 0.21938 0.0
C742 C 0.28237 0.53261 0.20234 0.0
C743 C 0.27349 0.57835 0.21616 0.0
C744 C 0.29015 0.59765 0.19598 0.0
C745 C 0.30212 0.58389 0.17867 0.0
C746 C 0.29828 0.5516 0.18182 0.0
C747 C 0.29475 0.63208 0.19288 0.0
C748 C 0.28168 0.63879 0.1723 0.0
C749 C 0.31056 0.65766 0.21047 0.0
C750 C 0.32617 0.65249 0.23209 0.0
C751 C 0.35093 0.6426 0.23019 0.0
C752 C 0.36513 0.63723 0.25064 0.0
C753 C 0.35497 0.64193 0.2731 0.0
C754 C 0.33067 0.65213 0.27515 0.0
C755 C 0.31636 0.65748 0.25475 0.0
H756 H 0.36597 0.63775 0.28892 0.0
H757 H 0.23253 0.69557 0.09038 0.0
H758 H 0.74478 0.27046 0.55492 0.0
H759 H 0.69538 0.27523 0.5442 0.0
H760 H 0.72037 0.27819 0.46989 0.0
H761 H 0.7707 0.27424 0.48055 0.0
H762 H 0.70026 0.32348 0.47981 0.0
H763 H 0.65837 0.20531 0.49525 0.0
H764 H 0.65102 0.15592 0.51837 0.0
H765 H 0.60308 0.18077 0.57454 0.0
H766 H 0.61061 0.23066 0.5519 0.0
H767 H 0.53709 0.27309 0.43217 0.0
H768 H 0.5905 0.27703 0.44437 0.0
H769 H 0.56745 0.28465 0.51774 0.0
H770 H 0.51369 0.28081 0.50565 0.0
H771 H 0.58679 0.23558 0.50919 0.0
H772 H 0.62696 0.35298 0.49198 0.0
H773 H 0.63391 0.40136 0.46779 0.0
H774 H 0.68415 0.37628 0.41343 0.0
H775 H 0.67705 0.3274 0.43714 0.0
C776 C 0.73985 0.27213 0.53627 0.0
C777 C 0.76144 0.27164 0.51853 0.0
C778 C 0.71154 0.27481 0.53019 0.0
C779 C 0.70388 0.27645 0.50625 0.0
C780 C 0.72582 0.27683 0.48848 0.0
C781 C 0.75446 0.27448 0.49457 0.0
C782 C 0.67258 0.27712 0.4999 0.0
C783 C 0.67539 0.30405 0.48597 0.0
C784 C 0.64025 0.25212 0.50841 0.0
C785 C 0.63534 0.22191 0.52197 0.0
C786 C 0.64647 0.20039 0.5126 0.0
C787 C 0.64225 0.17228 0.52561 0.0
C788 C 0.62667 0.16526 0.54794 0.0
C789 C 0.61518 0.18627 0.55726 0.0
C790 C 0.6194 0.21445 0.54434 0.0
C791 C 0.54342 0.27581 0.45091 0.0
C792 C 0.5212 0.27659 0.46799 0.0
C793 C 0.57403 0.27823 0.45781 0.0
C794 C 0.58293 0.28135 0.48191 0.0
C795 C 0.56097 0.28237 0.49904 0.0
C796 C 0.5304 0.28029 0.49211 0.0
C797 C 0.6145 0.28191 0.48911 0.0
C798 C 0.61169 0.25512 0.50315 0.0
C799 C 0.64673 0.30685 0.48052 0.0
C800 C 0.6512 0.33633 0.46626 0.0
C801 C 0.63924 0.3576 0.47478 0.0
C802 C 0.64325 0.38515 0.46117 0.0
C803 C 0.65939 0.39184 0.43906 0.0
C804 C 0.67162 0.37104 0.43055 0.0
C805 C 0.66764 0.34343 0.44408 0.0
H806 H 0.66247 0.41319 0.42855 0.0
H807 H 0.62344 0.1435 0.55799 0.0
H808 H 0.46534 0.74683 0.8907 0.0
H809 H 0.41223 0.69638 0.87998 0.0
H810 H 0.43188 0.72369 0.80582 0.0
H811 H 0.48522 0.77515 0.81652 0.0
H812 H 0.36595 0.70058 0.81703 0.0
H813 H 0.44613 0.66294 0.82858 0.0
H814 H 0.49073 0.65741 0.8497 0.0
H815 H 0.42186 0.60644 0.90743 0.0
H816 H 0.37697 0.61215 0.88683 0.0
H817 H 0.25184 0.53515 0.77256 0.0
H818 H 0.302 0.58914 0.78278 0.0
H819 H 0.27768 0.56872 0.85727 0.0
H820 H 0.22703 0.51439 0.84718 0.0
H821 H 0.34576 0.58835 0.84531 0.0
H822 H 0.26518 0.62602 0.8323 0.0
H823 H 0.22135 0.63135 0.80995 0.0
H824 H 0.29209 0.68135 0.75299 0.0
H825 H 0.33623 0.67586 0.77486 0.0
C826 C 0.45848 0.74221 0.87207 0.0
C827 C 0.47964 0.76478 0.85439 0.0
C828 C 0.4281 0.71329 0.86599 0.0
C829 C 0.41847 0.70598 0.8421 0.0
C830 C 0.43902 0.72886 0.82438 0.0
C831 C 0.46944 0.75813 0.83049 0.0
C832 C 0.38713 0.67409 0.83583 0.0
C833 C 0.36171 0.67598 0.8229 0.0
C834 C 0.38145 0.6421 0.84391 0.0
C835 C 0.40826 0.63824 0.85624 0.0
C836 C 0.44055 0.65076 0.84586 0.0
C837 C 0.46588 0.64757 0.85773 0.0
C838 C 0.45916 0.63165 0.87992 0.0
C839 C 0.42704 0.6188 0.89025 0.0
C840 C 0.40163 0.62197 0.87847 0.0
C841 C 0.25702 0.54216 0.79113 0.0
C842 C 0.23556 0.52055 0.80911 0.0
C843 C 0.28559 0.57308 0.7969 0.0
C844 C 0.29332 0.58289 0.82073 0.0
C845 C 0.27195 0.5615 0.83876 0.0
C846 C 0.24305 0.53063 0.83298 0.0
C847 C 0.32456 0.6149 0.8267 0.0
C848 C 0.35002 0.61297 0.8395 0.0
C849 C 0.33037 0.64674 0.81827 0.0
C850 C 0.30392 0.65023 0.80513 0.0
C851 C 0.27131 0.63789 0.81492 0.0
C852 C 0.24642 0.64099 0.80235 0.0
C853 C 0.2539 0.6566 0.78004 0.0
C854 C 0.28632 0.66923 0.77027 0.0
C855 C 0.31129 0.66616 0.78275 0.0
H856 H 0.2346 0.65898 0.77034 0.0
H857 H 0.4788 0.62922 0.88908 0.0
H858 H 0.74359 0.49271 0.22505 0.0
H859 H 0.74254 0.43991 0.21537 0.0
H860 H 0.70676 0.44237 0.14475 0.0
H861 H 0.70809 0.49573 0.15418 0.0
H862 H 0.69043 0.37819 0.20211 0.0
H863 H 0.74203 0.40933 0.10654 0.0
H864 H 0.7779 0.45942 0.08158 0.0
H865 H 0.83174 0.51586 0.14355 0.0
H866 H 0.79652 0.46597 0.16882 0.0
H867 H 0.71771 0.26292 0.11149 0.0
H868 H 0.71442 0.31346 0.12128 0.0
H869 H 0.73783 0.30521 0.19455 0.0
H870 H 0.73959 0.25343 0.18496 0.0
H871 H 0.75926 0.37227 0.13573 0.0
H872 H 0.70461 0.33997 0.23122 0.0
H873 H 0.66704 0.28966 0.25545 0.0
H874 H 0.61631 0.23441 0.19233 0.0
H875 H 0.65328 0.28451 0.16775 0.0
C876 C 0.73548 0.48211 0.20742 0.0
C877 C 0.72601 0.49848 0.19033 0.0
C878 C 0.73478 0.45183 0.20199 0.0
C879 C 0.72478 0.43739 0.17934 0.0
C880 C 0.71491 0.45337 0.16227 0.0
C881 C 0.71561 0.48377 0.16769 0.0
C882 C 0.72517 0.40579 0.17367 0.0
C883 C 0.70569 0.37689 0.18773 0.0
C884 C 0.74452 0.40404 0.15461 0.0
C885 C 0.76639 0.43402 0.13957 0.0
C886 C 0.76162 0.43239 0.11481 0.0
C887 C 0.78183 0.46075 0.10062 0.0
C888 C 0.807 0.49084 0.11098 0.0
C889 C 0.81214 0.49258 0.13555 0.0
C890 C 0.79205 0.46428 0.14982 0.0
C891 C 0.72201 0.27178 0.12972 0.0
C892 C 0.72886 0.25429 0.14751 0.0
C893 C 0.72017 0.30071 0.13528 0.0
C894 C 0.72557 0.31302 0.15867 0.0
C895 C 0.73281 0.29577 0.17647 0.0
C896 C 0.73398 0.26632 0.17098 0.0
C897 C 0.72435 0.34437 0.16411 0.0
C898 C 0.74379 0.37335 0.15004 0.0
C899 C 0.70468 0.34606 0.18304 0.0
C900 C 0.68196 0.3159 0.19765 0.0
C901 C 0.68535 0.31713 0.22253 0.0
C902 C 0.66417 0.28864 0.23632 0.0
C903 C 0.63938 0.25882 0.22543 0.0
C904 C 0.63561 0.25748 0.20073 0.0
C905 C 0.6567 0.2859 0.18686 0.0
H906 H 0.62304 0.23679 0.23613 0.0
H907 H 0.82257 0.51278 0.09997 0.0
H908 H 0.46977 0.72233 0.44203 0.0
H909 H 0.41792 0.72402 0.45027 0.0
H910 H 0.43053 0.71411 0.52537 0.0
H911 H 0.48215 0.71148 0.51719 0.0
H912 H 0.36665 0.67399 0.51284 0.0
H913 H 0.4494 0.79094 0.50025 0.0
H914 H 0.49499 0.84008 0.47896 0.0
H915 H 0.4276 0.82217 0.42026 0.0
H916 H 0.38171 0.77258 0.44106 0.0
H917 H 0.25551 0.72762 0.55629 0.0
H918 H 0.30723 0.727 0.54567 0.0
H919 H 0.28013 0.71852 0.47149 0.0
H920 H 0.22781 0.71896 0.48196 0.0
H921 H 0.35026 0.76754 0.48246 0.0
H922 H 0.26702 0.65029 0.49693 0.0
H923 H 0.22216 0.60293 0.52003 0.0
H924 H 0.29218 0.62403 0.57752 0.0
H925 H 0.33734 0.67188 0.5549 0.0
C926 C 0.46158 0.72057 0.46032 0.0
C927 C 0.48007 0.71686 0.47899 0.0
C928 C 0.432 0.72169 0.465 0.0
C929 C 0.42065 0.71972 0.48845 0.0
C930 C 0.4389 0.71574 0.50713 0.0
C931 C 0.46838 0.71428 0.50245 0.0
C932 C 0.3894 0.72125 0.49342 0.0
C933 C 0.36328 0.69468 0.50645 0.0
C934 C 0.38473 0.7479 0.48463 0.0
C935 C 0.41221 0.77783 0.47212 0.0
C936 C 0.44437 0.79732 0.48272 0.0
C937 C 0.47026 0.82528 0.47075 0.0
C938 C 0.46422 0.83419 0.44824 0.0
C939 C 0.43225 0.81521 0.43768 0.0
C940 C 0.40628 0.78718 0.44956 0.0
C941 C 0.2605 0.72577 0.53767 0.0
C942 C 0.23746 0.72313 0.51994 0.0
C943 C 0.29005 0.72535 0.53168 0.0
C944 C 0.2972 0.72241 0.50786 0.0
C945 C 0.27485 0.72071 0.48999 0.0
C946 C 0.24499 0.72083 0.496 0.0
C947 C 0.32781 0.7204 0.50189 0.0
C948 C 0.35373 0.74685 0.48872 0.0
C949 C 0.3325 0.69388 0.51076 0.0
C950 C 0.30548 0.66485 0.52429 0.0
C951 C 0.27278 0.645 0.51457 0.0
C952 C 0.24731 0.61804 0.52756 0.0
C953 C 0.25429 0.61052 0.55025 0.0
C954 C 0.2868 0.6299 0.55995 0.0
C955 C 0.31235 0.65692 0.54704 0.0
H956 H 0.23454 0.58965 0.56028 0.0
H957 H 0.4843 0.85585 0.439 0.0
H958 H 0.50769 0.25574 0.87741 0.0
H959 H 0.56102 0.30798 0.87017 0.0
H960 H 0.55895 0.27921 0.79683 0.0
H961 H 0.50503 0.22651 0.80388 0.0
H962 H 0.62155 0.31487 0.85593 0.0
H963 H 0.59754 0.35412 0.76397 0.0
H964 H 0.54959 0.34734 0.73929 0.0
H965 H 0.49187 0.33793 0.80219 0.0
H966 H 0.53963 0.34512 0.82722 0.0
H967 H 0.74818 0.46917 0.77779 0.0
H968 H 0.69496 0.41588 0.78294 0.0
H969 H 0.69857 0.43437 0.85847 0.0
H970 H 0.75273 0.48735 0.8535 0.0
H971 H 0.63544 0.40236 0.7971 0.0
H972 H 0.66034 0.36047 0.88877 0.0
H973 H 0.70858 0.3659 0.91244 0.0
H974 H 0.76546 0.37866 0.84849 0.0
H975 H 0.71741 0.37285 0.82444 0.0
C976 C 0.51837 0.26045 0.85967 0.0
C977 C 0.50214 0.23689 0.8412 0.0
C978 C 0.54895 0.29032 0.85562 0.0
C979 C 0.56386 0.29742 0.83301 0.0
C980 C 0.54763 0.27424 0.81439 0.0
C981 C 0.51692 0.24417 0.81844 0.0
C982 C 0.59673 0.32893 0.82928 0.0
C983 C 0.62457 0.33421 0.84323 0.0
C984 C 0.60075 0.35358 0.81227 0.0
C985 C 0.57203 0.34977 0.79744 0.0
C986 C 0.57465 0.35072 0.77252 0.0
C987 C 0.54751 0.34679 0.75847 0.0
C988 C 0.51766 0.34208 0.76916 0.0
C989 C 0.51495 0.34144 0.79393 0.0
C990 C 0.54204 0.34539 0.80805 0.0
C991 C 0.73772 0.46186 0.79553 0.0
C992 C 0.75465 0.48233 0.81529 0.0
C993 C 0.70724 0.43141 0.79843 0.0
C994 C 0.69291 0.42092 0.82109 0.0
C995 C 0.70952 0.44159 0.84085 0.0
C996 C 0.74038 0.47189 0.83801 0.0
C997 C 0.66039 0.38854 0.82388 0.0
C998 C 0.63257 0.38304 0.80974 0.0
C999 C 0.65648 0.36348 0.84056 0.0
C1000 C 0.68539 0.36657 0.85484 0.0
C1001 C 0.68309 0.3643 0.87977 0.0
C1002 C 0.71041 0.36747 0.89325 0.0
C1003 C 0.7401 0.37273 0.88198 0.0
C1004 C 0.74249 0.37471 0.8572 0.0
C1005 C 0.71524 0.37152 0.84364 0.0
H1006 H 0.76123 0.37521 0.89245 0.0
H1007 H 0.49666 0.33901 0.75825 0.0
H1008 H 0.63482 0.52492 0.21969 0.0
H1009 H 0.57339 0.50103 0.21826 0.0
H1010 H 0.58696 0.5901 0.181 0.0
H1011 H 0.64856 0.61388 0.18175 0.0
H1012 H 0.53503 0.52184 0.23754 0.0
H1013 H 0.51853 0.56899 0.14542 0.0
H1014 H 0.54613 0.5828 0.10601 0.0
H1015 H 0.5844 0.51468 0.11863 0.0
H1016 H 0.55664 0.5001 0.15795 0.0
H1017 H 0.37019 0.5001 0.23157 0.0
H1018 H 0.43181 0.52548 0.22836 0.0
H1019 H 0.41859 0.45009 0.17625 0.0
H1020 H 0.35703 0.42504 0.17884 0.0
H1021 H 0.46994 0.5101 0.16386 0.0
H1022 H 0.43468 0.44191 0.23456 0.0
H1023 H 0.40586 0.42269 0.27331 0.0
H1024 H 0.46977 0.52228 0.30245 0.0
H1025 H 0.49864 0.54224 0.26373 0.0
C1026 C 0.62481 0.53939 0.211 0.0
C1027 C 0.6467 0.57136 0.20081 0.0
C1028 C 0.58963 0.5257 0.21028 0.0
C1029 C 0.57551 0.54366 0.19945 0.0
C1030 C 0.59723 0.57551 0.18914 0.0
C1031 C 0.63248 0.58912 0.18964 0.0
C1032 C 0.53809 0.52933 0.19957 0.0
C1033 C 0.52085 0.51933 0.22141 0.0
C1034 C 0.51944 0.52558 0.17851 0.0
C1035 C 0.53579 0.53375 0.15473 0.0
C1036 C 0.53272 0.55686 0.13974 0.0
C1037 C 0.54841 0.56483 0.11742 0.0
C1038 C 0.5671 0.54972 0.10986 0.0
C1039 C 0.57002 0.52647 0.12455 0.0
C1040 C 0.55434 0.51837 0.14686 0.0
C1041 C 0.38034 0.48899 0.21932 0.0
C1042 C 0.35858 0.46032 0.20562 0.0
C1043 C 0.4156 0.50351 0.21754 0.0
C1044 C 0.42979 0.48938 0.20232 0.0
C1045 C 0.4082 0.4614 0.18813 0.0
C1046 C 0.37296 0.44702 0.18973 0.0
C1047 C 0.46705 0.50288 0.20183 0.0
C1048 C 0.48422 0.51277 0.17996 0.0
C1049 C 0.48556 0.50571 0.22278 0.0
C1050 C 0.4686 0.49365 0.24619 0.0
C1051 C 0.44245 0.45977 0.24919 0.0
C1052 C 0.42611 0.44874 0.27115 0.0
C1053 C 0.43592 0.47128 0.29031 0.0
C1054 C 0.46217 0.50486 0.28757 0.0
C1055 C 0.47855 0.51605 0.26563 0.0
H1056 H 0.42322 0.4627 0.30729 0.0
H1057 H 0.57926 0.55596 0.09259 0.0
H1058 H 0.12355 0.62303 0.53488 0.0
H1059 H 0.08672 0.56118 0.53176 0.0
H1060 H -0.00082 0.57378 0.52384 0.0
H1061 H 0.03578 0.6356 0.52626 0.0
H1062 H -0.00039 0.52453 0.56238 0.0
H1063 H 0.01617 0.55436 0.47833 0.0
H1064 H 0.05197 0.58169 0.44314 0.0
H1065 H 0.10007 0.52145 0.45187 0.0
H1066 H 0.06492 0.49416 0.48737 0.0
H1067 H 0.87083 0.35791 0.54001 0.0
H1068 H 0.90779 0.41939 0.53711 0.0
H1069 H 0.99125 0.40529 0.51562 0.0
H1070 H 0.95383 0.34358 0.51736 0.0
H1071 H 0.995 0.45606 0.49219 0.0
H1072 H 0.9811 0.42493 0.57393 0.0
H1073 H 0.9491 0.39697 0.61039 0.0
H1074 H 0.90237 0.45913 0.60909 0.0
H1075 H 0.93358 0.48702 0.57234 0.0
C1076 C 0.09649 0.61263 0.53226 0.0
C1077 C 0.08255 0.63416 0.53078 0.0
C1078 C 0.07556 0.57738 0.53048 0.0
C1079 C 0.04035 0.56312 0.52763 0.0
C1080 C 0.02635 0.58446 0.52605 0.0
C1081 C 0.04731 0.61973 0.5273 0.0
C1082 C 0.01798 0.52583 0.52691 0.0
C1083 C 0.99817 0.50949 0.54696 0.0
C1084 C 0.01732 0.50637 0.50712 0.0
C1085 C 0.0382 0.52252 0.48566 0.0
C1086 C 0.03462 0.54719 0.47289 0.0
C1087 C 0.05474 0.56262 0.45286 0.0
C1088 C 0.07835 0.55338 0.44531 0.0
C1089 C 0.08181 0.52862 0.45775 0.0
C1090 C 0.06178 0.51315 0.47782 0.0
C1091 C 0.897 0.3679 0.53449 0.0
C1092 C 0.90955 0.34594 0.52918 0.0
C1093 C 0.91816 0.40307 0.53294 0.0
C1094 C 0.95258 0.41705 0.52676 0.0
C1095 C 0.96484 0.39513 0.52056 0.0
C1096 C 0.94346 0.35987 0.52162 0.0
C1097 C 0.97592 0.45444 0.52759 0.0
C1098 C 0.99621 0.4709 0.50766 0.0
C1099 C 0.97766 0.47397 0.54778 0.0
C1100 C 0.95947 0.45787 0.57024 0.0
C1101 C 0.96387 0.43253 0.58135 0.0
C1102 C 0.94586 0.41667 0.60206 0.0
C1103 C 0.92366 0.42621 0.61202 0.0
C1104 C 0.91954 0.45173 0.60133 0.0
C1105 C 0.93739 0.46758 0.58056 0.0
H1106 H 0.90971 0.41388 0.62804 0.0
H1107 H 0.09391 0.56535 0.4298 0.0
H1108 H 0.39783 0.04513 0.82377 0.0
H1109 H 0.42372 0.00917 0.82156 0.0
H1110 H 0.5144 0.08782 0.85515 0.0
H1111 H 0.48863 0.12386 0.85781 0.0
H1112 H 0.52334 0.04626 0.81664 0.0
H1113 H 0.45745 0.03757 0.8881 0.0
H1114 H 0.4031 0.02841 0.9043 0.0
H1115 H 0.35187 0.92689 0.87628 0.0
H1116 H 0.40549 0.93638 0.85825 0.0
H1117 H 0.60116 0.96239 0.86835 0.0
H1118 H 0.57617 0.99824 0.86072 0.0
H1119 H 0.47662 0.90874 0.85578 0.0
H1120 H 0.50146 0.87302 0.86515 0.0
H1121 H 0.46871 0.95324 0.87602 0.0
H1122 H 0.52663 0.95562 0.80535 0.0
H1123 H 0.57431 0.96205 0.78058 0.0
H1124 H 0.63319 0.06713 0.80067 0.0
H1125 H 0.58607 0.06119 0.82592 0.0
C1126 C 0.42357 0.05515 0.8302 0.0
C1127 C 0.44092 0.08709 0.84142 0.0
C1128 C 0.43835 0.0346 0.8288 0.0
C1129 C 0.47078 0.04582 0.83838 0.0
C1130 C 0.48934 0.07881 0.84765 0.0
C1131 C 0.47443 0.09921 0.84935 0.0
C1132 C 0.48314 0.02162 0.84226 0.0
C1133 C 0.51168 0.02602 0.8297 0.0
C1134 C 0.46693 0.99457 0.85872 0.0
C1135 C 0.43548 0.98788 0.87149 0.0
C1136 C 0.43457 0.0134 0.88516 0.0
C1137 C 0.40384 0.00823 0.89455 0.0
C1138 C 0.37406 0.97707 0.89137 0.0
C1139 C 0.37495 0.95106 0.87869 0.0
C1140 C 0.40547 0.95643 0.86869 0.0
C1141 C 0.57393 0.95046 0.86574 0.0
C1142 C 0.55321 0.91501 0.8672 0.0
C1143 C 0.55965 0.97091 0.86118 0.0
C1144 C 0.52454 0.95625 0.85697 0.0
C1145 C 0.50375 0.92076 0.85886 0.0
C1146 C 0.51793 0.90035 0.86416 0.0
C1147 C 0.50964 0.97796 0.85062 0.0
C1148 C 0.4805 0.9732 0.86279 0.0
C1149 C 0.52463 0.00398 0.83318 0.0
C1150 C 0.55288 0.00788 0.81769 0.0
C1151 C 0.54981 0.98006 0.80459 0.0
C1152 C 0.57674 0.98362 0.79047 0.0
C1153 C 0.60678 0.01497 0.78909 0.0
C1154 C 0.60991 0.04286 0.80178 0.0
C1155 C 0.58308 0.03942 0.81599 0.0
H1156 H 0.62762 0.01767 0.77815 0.0
H1157 H 0.35033 0.97304 0.89881 0.0
H1158 H 0.5934 0.63075 0.48485 0.0
H1159 H 0.56908 0.56907 0.4825 0.0
H1160 H 0.47267 0.558 0.46129 0.0
H1161 H 0.49723 0.61961 0.46257 0.0
H1162 H 0.52119 0.51473 0.50211 0.0
H1163 H 0.43302 0.49622 0.42158 0.0
H1164 H 0.43149 0.52834 0.38664 0.0
H1165 H 0.5404 0.58962 0.38805 0.0
H1166 H 0.54257 0.55776 0.42284 0.0
H1167 H 0.38988 0.33947 0.45646 0.0
H1168 H 0.41188 0.40066 0.46135 0.0
H1169 H 0.51437 0.41945 0.4536 0.0
H1170 H 0.49251 0.35837 0.44793 0.0
H1171 H 0.46246 0.45771 0.42725 0.0
H1172 H 0.55425 0.47777 0.50315 0.0
H1173 H 0.56108 0.44478 0.53542 0.0
H1174 H 0.45267 0.38045 0.5397 0.0
H1175 H 0.4452 0.41347 0.50784 0.0
C1176 C 0.56692 0.61512 0.47993 0.0
C1177 C 0.54736 0.63006 0.47358 0.0
C1178 C 0.55303 0.57984 0.4786 0.0
C1179 C 0.51926 0.55888 0.47113 0.0
C1180 C 0.49908 0.57366 0.46637 0.0
C1181 C 0.51309 0.60889 0.46726 0.0
C1182 C 0.5055 0.52183 0.46738 0.0
C1183 C 0.50864 0.50243 0.48564 0.0
C1184 C 0.48899 0.50551 0.44592 0.0
C1185 C 0.4879 0.52483 0.42497 0.0
C1186 C 0.45663 0.51653 0.4144 0.0
C1187 C 0.45564 0.53472 0.39464 0.0
C1188 C 0.4858 0.56111 0.38519 0.0
C1189 C 0.51702 0.56932 0.39545 0.0
C1190 C 0.51814 0.55125 0.41522 0.0
C1191 C 0.41708 0.35668 0.45568 0.0
C1192 C 0.43954 0.34427 0.45185 0.0
C1193 C 0.42955 0.39154 0.45839 0.0
C1194 C 0.46468 0.41434 0.45798 0.0
C1195 C 0.48717 0.40209 0.45403 0.0
C1196 C 0.47467 0.36732 0.45073 0.0
C1197 C 0.47794 0.451 0.46199 0.0
C1198 C 0.47484 0.47021 0.44372 0.0
C1199 C 0.49513 0.4672 0.48317 0.0
C1200 C 0.49922 0.44785 0.5029 0.0
C1201 C 0.53188 0.4567 0.51107 0.0
C1202 C 0.53586 0.43799 0.52929 0.0
C1203 C 0.50733 0.41046 0.53954 0.0
C1204 C 0.47476 0.4017 0.53169 0.0
C1205 C 0.47064 0.42038 0.51353 0.0
H1206 H 0.51047 0.39596 0.55359 0.0
H1207 H 0.48497 0.57511 0.36986 0.0
H1208 H 0.95633 0.6042 0.82529 0.0
H1209 H 0.9958 0.58214 0.82574 0.0
H1210 H 0.91298 0.48149 0.81051 0.0
H1211 H 0.87343 0.5034 0.80948 0.0
H1212 H 0.96555 0.4888 0.84742 0.0
H1213 H 0.95197 0.52079 0.76655 0.0
H1214 H 0.95345 0.56288 0.73809 0.0
H1215 H 0.05871 0.6304 0.75424 0.0
H1216 H 0.05767 0.58905 0.78323 0.0
H1217 H 0.04201 0.39806 0.80534 0.0
H1218 H 0.00638 0.42374 0.81078 0.0
H1219 H 0.09275 0.52291 0.79642 0.0
H1220 H 0.12799 0.49685 0.78949 0.0
H1221 H 0.04172 0.52108 0.77716 0.0
H1222 H 0.06046 0.49278 0.85468 0.0
H1223 H 0.06289 0.45659 0.88644 0.0
H1224 H 0.95495 0.38992 0.88127 0.0
H1225 H 0.95194 0.42538 0.84917 0.0
C1226 C 0.9464 0.57726 0.8225 0.0
C1227 C 0.91182 0.55555 0.81719 0.0
C1228 C 0.96898 0.56475 0.82272 0.0
C1229 C 0.95722 0.53028 0.81806 0.0
C1230 C 0.92244 0.50817 0.81419 0.0
C1231 C 0.89995 0.52075 0.81351 0.0
C1232 C 0.98145 0.51778 0.81504 0.0
C1233 C 0.98208 0.49553 0.83202 0.0
C1234 C 0.00377 0.52775 0.79536 0.0
C1235 C 0.00465 0.55197 0.77725 0.0
C1236 C 0.97537 0.54471 0.76416 0.0
C1237 C 0.97611 0.56842 0.74793 0.0
C1238 C 0.0061 0.59931 0.7444 0.0
C1239 C 0.03547 0.60648 0.75702 0.0
C1240 C 0.03482 0.58292 0.77336 0.0
C1241 C 0.05335 0.42532 0.80327 0.0
C1242 C 0.08778 0.44549 0.79711 0.0
C1243 C 0.03303 0.44006 0.80656 0.0
C1244 C 0.04699 0.47546 0.80466 0.0
C1245 C 0.08133 0.49559 0.7981 0.0
C1246 C 0.10147 0.4807 0.79417 0.0
C1247 C 0.02567 0.4913 0.80942 0.0
C1248 C 0.02552 0.51431 0.79274 0.0
C1249 C 0.00446 0.48276 0.82978 0.0
C1250 C 0.00602 0.46162 0.84937 0.0
C1251 C 0.03726 0.4703 0.86022 0.0
C1252 C 0.03875 0.44992 0.87829 0.0
C1253 C 0.0091 0.42095 0.88584 0.0
C1254 C 0.97789 0.41236 0.87538 0.0
C1255 C 0.97628 0.43261 0.85726 0.0
H1256 H 0.0103 0.40519 0.89982 0.0
H1257 H 0.0066 0.61764 0.73185 0.0
H1258 H 0.37558 0.8863 0.12959 0.0
H1259 H 0.43652 0.9264 0.13351 0.0
H1260 H 0.41608 0.00877 0.14301 0.0
H1261 H 0.35488 0.96873 0.13962 0.0
H1262 H 0.46862 0.01778 0.1069 0.0
H1263 H 0.43639 0.98737 0.18897 0.0
H1264 H 0.40926 0.94669 0.22189 0.0
H1265 H 0.47473 0.90534 0.20904 0.0
H1266 H 0.50187 0.94542 0.17577 0.0
H1267 H 0.63616 0.14306 0.13236 0.0
H1268 H 0.57462 0.10681 0.13589 0.0
H1269 H 0.587 0.0197 0.1481 0.0
H1270 H 0.64876 0.05618 0.14567 0.0
H1271 H 0.53727 0.01408 0.17433 0.0
H1272 H 0.56715 0.0384 0.0923 0.0
H1273 H 0.59466 0.07526 0.0576 0.0
H1274 H 0.53406 0.12278 0.06736 0.0
H1275 H 0.5065 0.08648 0.10237 0.0
C1276 C 0.38401 0.91294 0.13253 0.0
C1277 C 0.36045 0.9244 0.13424 0.0
C1278 C 0.41878 0.93574 0.13484 0.0
C1279 C 0.4306 0.9704 0.13859 0.0
C1280 C 0.40728 0.98204 0.14014 0.0
C1281 C 0.3724 0.95915 0.13827 0.0
C1282 C 0.46748 0.99449 0.14047 0.0
C1283 C 0.48363 0.01748 0.12181 0.0
C1284 C 0.48696 0.99304 0.15955 0.0
C1285 C 0.47094 0.96919 0.17973 0.0
C1286 C 0.4448 0.96941 0.19303 0.0
C1287 C 0.42946 0.94649 0.21178 0.0
C1288 C 0.44021 0.92339 0.21752 0.0
C1289 C 0.4664 0.92323 0.20456 0.0
C1290 C 0.48179 0.94606 0.18577 0.0
C1291 C 0.62578 0.11622 0.13601 0.0
C1292 C 0.64722 0.10235 0.13844 0.0
C1293 C 0.5906 0.09551 0.13796 0.0
C1294 C 0.57612 0.06036 0.14166 0.0
C1295 C 0.59757 0.04671 0.14512 0.0
C1296 C 0.63286 0.06756 0.14366 0.0
C1297 C 0.53867 0.03767 0.14074 0.0
C1298 C 0.52235 0.01474 0.15949 0.0
C1299 C 0.51906 0.03861 0.12144 0.0
C1300 C 0.53501 0.05996 0.10009 0.0
C1301 C 0.55981 0.05683 0.08711 0.0
C1302 C 0.57542 0.07762 0.0674 0.0
C1303 C 0.56621 0.10144 0.06033 0.0
C1304 C 0.54122 0.10437 0.07289 0.0
C1305 C 0.52557 0.08367 0.09266 0.0
H1306 H 0.57837 0.11756 0.04508 0.0
H1307 H 0.4283 0.90567 0.23204 0.0
H1308 H 0.27621 0.32416 0.2325 0.0
H1309 H 0.28057 0.2874 0.2625 0.0
H1310 H 0.22867 0.31706 0.31317 0.0
H1311 H 0.22545 0.35458 0.28358 0.0
H1312 H 0.28436 0.32626 0.3315 0.0
H1313 H 0.19285 0.23402 0.2902 0.0
H1314 H 0.16197 0.19883 0.25556 0.0
H1315 H 0.24222 0.17658 0.24323 0.0
H1316 H 0.27384 0.21204 0.2776 0.0
H1317 H 0.29817 0.23088 0.42273 0.0
H1318 H 0.26477 0.23817 0.39161 0.0
H1319 H 0.33193 0.23623 0.3382 0.0
H1320 H 0.36561 0.22921 0.36903 0.0
H1321 H 0.2609 0.20758 0.32322 0.0
H1322 H 0.35552 0.30806 0.35949 0.0
H1323 H 0.38654 0.34168 0.39469 0.0
H1324 H 0.29883 0.34755 0.41621 0.0
H1325 H 0.26706 0.31332 0.38136 0.0
C1326 C 0.26517 0.32224 0.24991 0.0
C1327 C 0.25094 0.34252 0.25589 0.0
C1328 C 0.26749 0.30112 0.26701 0.0
C1329 C 0.25486 0.29941 0.29011 0.0
C1330 C 0.23879 0.31814 0.29554 0.0
C1331 C 0.23704 0.33964 0.27864 0.0
C1332 C 0.26182 0.28139 0.30935 0.0
C1333 C 0.27838 0.30003 0.32983 0.0
C1334 C 0.25485 0.24742 0.30703 0.0
C1335 C 0.23583 0.22591 0.2864 0.0
C1336 C 0.20404 0.22183 0.28001 0.0
C1337 C 0.18638 0.2018 0.26043 0.0
C1338 C 0.20015 0.18553 0.24718 0.0
C1339 C 0.23158 0.1892 0.25351 0.0
C1340 C 0.24936 0.20923 0.27306 0.0
C1341 C 0.30527 0.23097 0.40433 0.0
C1342 C 0.33501 0.23026 0.39838 0.0
C1343 C 0.28604 0.23495 0.38659 0.0
C1344 C 0.2962 0.23804 0.36273 0.0
C1345 C 0.32371 0.23378 0.35655 0.0
C1346 C 0.34313 0.23012 0.37425 0.0
C1347 C 0.28295 0.25248 0.34505 0.0
C1348 C 0.26583 0.23346 0.3249 0.0
C1349 C 0.28932 0.28613 0.34756 0.0
C1350 C 0.30882 0.30786 0.36798 0.0
C1351 C 0.34281 0.31638 0.3718 0.0
C1352 C 0.36052 0.33552 0.39168 0.0
C1353 C 0.34464 0.34668 0.4077 0.0
C1354 C 0.31107 0.33884 0.40381 0.0
C1355 C 0.2932 0.31957 0.384 0.0
H1356 H 0.35837 0.36147 0.4231 0.0
H1357 H 0.18645 0.17004 0.23203 0.0
H1358 H 0.86924 0.21325 0.61357 0.0
H1359 H 0.90526 0.21716 0.64703 0.0
H1360 H 0.99445 0.27278 0.60316 0.0
H1361 H 0.95814 0.26766 0.56926 0.0
H1362 H 0.00468 0.2347 0.6352 0.0
H1363 H 0.9665 0.3161 0.63691 0.0
H1364 H 0.92498 0.33592 0.63593 0.0
H1365 H 0.87474 0.27517 0.69738 0.0
H1366 H 0.91618 0.25498 0.69867 0.0
H1367 H 0.12226 0.36116 0.71356 0.0
H1368 H 0.08334 0.32458 0.68291 0.0
H1369 H 0.00948 0.2651 0.73661 0.0
H1370 H 0.04858 0.30144 0.76762 0.0
H1371 H 0.98753 0.29507 0.70264 0.0
H1372 H 0.04002 0.22673 0.70438 0.0
H1373 H 0.08811 0.2159 0.70447 0.0
H1374 H 0.11786 0.26048 0.63504 0.0
H1375 H 0.07031 0.27214 0.63467 0.0
C1376 C 0.89648 0.22585 0.611 0.0
C1377 C 0.91108 0.24084 0.5891 0.0
C1378 C 0.91702 0.22795 0.63006 0.0
C1379 C 0.95255 0.24598 0.62773 0.0
C1380 C 0.96708 0.25884 0.60535 0.0
C1381 C 0.9464 0.25608 0.58607 0.0
C1382 C 0.97432 0.25508 0.64914 0.0
C1383 C 0.00103 0.24791 0.64997 0.0
C1384 C 0.96928 0.272 0.66851 0.0
C1385 C 0.94413 0.28374 0.66771 0.0
C1386 C 0.94643 0.30678 0.65009 0.0
C1387 C 0.92293 0.31811 0.64951 0.0
C1388 C 0.89706 0.30667 0.66651 0.0
C1389 C 0.89474 0.28394 0.68418 0.0
C1390 C 0.91826 0.2726 0.68488 0.0
C1391 C 0.09808 0.33989 0.71897 0.0
C1392 C 0.08838 0.33445 0.74303 0.0
C1393 C 0.07598 0.31881 0.70141 0.0
C1394 C 0.0437 0.29206 0.70756 0.0
C1395 C 0.03447 0.2855 0.7316 0.0
C1396 C 0.05679 0.30634 0.74925 0.0
C1397 C 0.01806 0.27491 0.68874 0.0
C1398 C 0.99066 0.28091 0.68827 0.0
C1399 C 0.02319 0.25782 0.66956 0.0
C1400 C 0.05163 0.25048 0.66956 0.0
C1401 C 0.05695 0.23446 0.68919 0.0
C1402 C 0.0841 0.22813 0.68928 0.0
C1403 C 0.10605 0.23753 0.66979 0.0
C1404 C 0.10083 0.2532 0.65013 0.0
C1405 C 0.07374 0.25963 0.64995 0.0
H1406 H 0.12707 0.23263 0.6699 0.0
H1407 H 0.87891 0.31552 0.6661 0.0
H1408 H 0.61726 0.89573 0.95382 0.0
H1409 H 0.6525 0.93317 0.98528 0.0
H1410 H 0.74055 0.97251 0.93956 0.0
H1411 H 0.7049 0.93567 0.90733 0.0
H1412 H 0.70526 0.94495 0.01071 0.0
H1413 H 0.78893 0.05743 0.95062 0.0
H1414 H 0.78989 0.07722 0.90956 0.0
H1415 H 0.68071 0.02521 0.90871 0.0
H1416 H 0.67919 0.00561 0.94986 0.0
H1417 H 0.78033 0.08255 0.09354 0.0
H1418 H 0.77894 0.04584 0.06105 0.0
H1419 H 0.71303 0.07063 0.02101 0.0
H1420 H 0.71535 0.10797 0.05264 0.0
H1421 H 0.75566 0.06764 0.99207 0.0
H1422 H 0.68318 0.99768 0.05733 0.0
H1423 H 0.67321 0.97681 0.09872 0.0
H1424 H 0.74468 0.94179 0.08982 0.0
H1425 H 0.75541 0.96293 0.04846 0.0
C1426 C 0.64416 0.91207 0.95038 0.0
C1427 C 0.65813 0.91318 0.92787 0.0
C1428 C 0.66439 0.93327 0.96855 0.0
C1429 C 0.6991 0.95587 0.96473 0.0
C1430 C 0.7137 0.95555 0.94277 0.0
C1431 C 0.69328 0.93458 0.92437 0.0
C1432 C 0.7183 0.98215 0.98291 0.0
C1433 C 0.71692 0.97185 0.00662 0.0
C1434 C 0.73337 0.01721 0.97758 0.0
C1435 C 0.73399 0.02973 0.95314 0.0
C1436 C 0.76517 0.05037 0.94167 0.0
C1437 C 0.7658 0.06154 0.9184 0.0
C1438 C 0.73538 0.05235 0.9065 0.0
C1439 C 0.70425 0.03222 0.91791 0.0
C1440 C 0.7035 0.02111 0.94121 0.0
C1441 C 0.76575 0.08027 0.07771 0.0
C1442 C 0.74771 0.09791 0.07574 0.0
C1443 C 0.76505 0.05939 0.05916 0.0
C1444 C 0.74571 0.05534 0.03866 0.0
C1445 C 0.72839 0.07358 0.03654 0.0
C1446 C 0.72952 0.09475 0.05479 0.0
C1447 C 0.7408 0.03029 0.01999 0.0
C1448 C 0.74525 0.04087 0.99615 0.0
C1449 C 0.72722 0.99537 0.02527 0.0
C1450 C 0.72041 0.98224 0.04996 0.0
C1451 C 0.69688 0.98568 0.06426 0.0
C1452 C 0.6911 0.97382 0.0877 0.0
C1453 C 0.70839 0.95809 0.09691 0.0
C1454 C 0.73139 0.95407 0.08268 0.0
C1455 C 0.73734 0.966 0.05925 0.0
H1456 H 0.70389 0.94894 0.11507 0.0
H1457 H 0.73592 0.0609 0.88845 0.0
H1458 H 0.70564 0.77441 0.4355 0.0
H1459 H 0.74426 0.77537 0.40425 0.0
H1460 H 0.66032 0.68793 0.37126 0.0
H1461 H 0.62192 0.68731 0.40175 0.0
H1462 H 0.72356 0.68585 0.37656 0.0
H1463 H 0.67693 0.7583 0.34978 0.0
H1464 H 0.66977 0.80836 0.35473 0.0
H1465 H 0.77822 0.87376 0.35513 0.0
H1466 H 0.78595 0.82391 0.35045 0.0
H1467 H 0.69677 0.64689 0.26137 0.0
H1468 H 0.69634 0.67516 0.29816 0.0
H1469 H 0.80421 0.74433 0.29141 0.0
H1470 H 0.80455 0.716 0.25398 0.0
H1471 H 0.75402 0.76999 0.31134 0.0
H1472 H 0.79744 0.69405 0.32658 0.0
H1473 H 0.79987 0.64153 0.32047 0.0
H1474 H 0.6953 0.58149 0.34142 0.0
H1475 H 0.69221 0.63368 0.34768 0.0
C1476 C 0.69571 0.75524 0.42167 0.0
C1477 C 0.66089 0.73088 0.42084 0.0
C1478 C 0.71767 0.75587 0.40392 0.0
C1479 C 0.70499 0.73166 0.38562 0.0
C1480 C 0.67051 0.70668 0.38536 0.0
C1481 C 0.64859 0.70648 0.40267 0.0
C1482 C 0.72643 0.73267 0.36564 0.0
C1483 C 0.73111 0.70468 0.36253 0.0
C1484 C 0.73669 0.75758 0.3476 0.0
C1485 C 0.73202 0.78744 0.35008 0.0
C1486 C 0.69923 0.78334 0.35111 0.0
C1487 C 0.69506 0.81166 0.35384 0.0
C1488 C 0.72352 0.84422 0.35535 0.0
C1489 C 0.7562 0.84852 0.35403 0.0
C1490 C 0.76049 0.82025 0.35133 0.0
C1491 C 0.72012 0.66887 0.26733 0.0
C1492 C 0.75063 0.67957 0.25505 0.0
C1493 C 0.7199 0.68493 0.28828 0.0
C1494 C 0.75029 0.71155 0.29745 0.0
C1495 C 0.78055 0.72391 0.28441 0.0
C1496 C 0.78072 0.70787 0.26315 0.0
C1497 C 0.75001 0.72254 0.32204 0.0
C1498 C 0.74874 0.75238 0.32592 0.0
C1499 C 0.74284 0.69931 0.34089 0.0
C1500 C 0.74463 0.66779 0.33758 0.0
C1501 C 0.77493 0.66964 0.32979 0.0
C1502 C 0.77642 0.63992 0.32629 0.0
C1503 C 0.74772 0.60818 0.33039 0.0
C1504 C 0.71751 0.60609 0.33821 0.0
C1505 C 0.71592 0.63574 0.34185 0.0
H1506 H 0.74894 0.58522 0.32758 0.0
H1507 H 0.72025 0.86612 0.35747 0.0
H1508 H 0.06504 0.76903 0.57943 0.0
H1509 H 0.02849 0.76483 0.6132 0.0
H1510 H 0.04265 0.68568 0.64391 0.0
H1511 H 0.07914 0.68997 0.61093 0.0
H1512 H 0.97248 0.67188 0.63963 0.0
H1513 H 0.08709 0.75752 0.66545 0.0
H1514 H 0.13966 0.81295 0.66137 0.0
H1515 H 0.08186 0.86415 0.66638 0.0
H1516 H 0.02882 0.80887 0.67006 0.0
H1517 H 0.94485 0.62911 0.75528 0.0
H1518 H 0.97756 0.65743 0.71971 0.0
H1519 H 0.94016 0.72811 0.72215 0.0
H1520 H 0.90767 0.69994 0.75845 0.0
H1521 H 0.01262 0.75583 0.70557 0.0
H1522 H 0.89819 0.6696 0.68463 0.0
H1523 H 0.84594 0.61355 0.68714 0.0
H1524 H 0.90357 0.56391 0.6733 0.0
H1525 H 0.95611 0.6197 0.67013 0.0
C1526 C 0.06016 0.7507 0.5934 0.0
C1527 C 0.07494 0.72986 0.59261 0.0
C1528 C 0.0395 0.74846 0.61262 0.0
C1529 C 0.03306 0.72497 0.6309 0.0
C1530 C 0.04739 0.70393 0.6299 0.0
C1531 C 0.06832 0.70651 0.61107 0.0
C1532 C 0.01126 0.7214 0.65134 0.0
C1533 C 0.98096 0.69043 0.65391 0.0
C1534 C 0.0221 0.74598 0.66964 0.0
C1535 C 0.05398 0.7791 0.66767 0.0
C1536 C 0.08556 0.78057 0.66543 0.0
C1537 C 0.11544 0.81196 0.66324 0.0
C1538 C 0.11409 0.84205 0.66353 0.0
C1539 C 0.08286 0.84081 0.66609 0.0
C1540 C 0.05288 0.80947 0.66822 0.0
C1541 C 0.94454 0.65139 0.74866 0.0
C1542 C 0.92398 0.66254 0.75939 0.0
C1543 C 0.96306 0.66744 0.72836 0.0
C1544 C 0.96071 0.69442 0.71819 0.0
C1545 C 0.94218 0.7073 0.72983 0.0
C1546 C 0.92383 0.69137 0.7505 0.0
C1547 C 0.97456 0.70578 0.69409 0.0
C1548 C 0.00334 0.73797 0.69088 0.0
C1549 C 0.96237 0.68238 0.67503 0.0
C1550 C 0.931 0.64877 0.67714 0.0
C1551 C 0.89971 0.64672 0.68219 0.0
C1552 C 0.87006 0.61503 0.68369 0.0
C1553 C 0.87145 0.58524 0.6805 0.0
C1554 C 0.90252 0.58703 0.67571 0.0
C1555 C 0.93221 0.61867 0.67389 0.0
H1556 H 0.84841 0.56079 0.68161 0.0
H1557 H 0.13726 0.86633 0.66185 0.0
H1558 H 0.24707 0.93852 0.0828 0.0
H1559 H 0.25182 0.96714 0.04501 0.0
H1560 H 0.25807 0.8874 0.00771 0.0
H1561 H 0.25379 0.85884 0.04525 0.0
H1562 H 0.3116 0.94912 0.99897 0.0
H1563 H 0.19041 0.89898 0.99962 0.0
H1564 H 0.13471 0.88433 0.01672 0.0
H1565 H 0.16628 0.99034 0.02282 0.0
H1566 H 0.22238 0.00567 0.00608 0.0
H1567 H 0.32703 0.02252 0.88443 0.0
H1568 H 0.3002 0.98096 0.91676 0.0
H1569 H 0.30565 0.06 0.9623 0.0
H1570 H 0.33327 0.10165 0.93031 0.0
H1571 H 0.24181 0.99471 0.96455 0.0
H1572 H 0.36238 0.04547 0.97118 0.0
H1573 H 0.42183 0.06365 0.9612 0.0
H1574 H 0.39429 0.96027 0.94621 0.0
H1575 H 0.3344 0.94147 0.95585 0.0
C1576 C 0.24873 0.92668 0.06653 0.0
C1577 C 0.25052 0.89662 0.06711 0.0
C1578 C 0.25122 0.94298 0.04492 0.0
C1579 C 0.25523 0.92932 0.02359 0.0
C1580 C 0.255 0.89833 0.02401 0.0
C1581 C 0.25263 0.8821 0.04553 0.0
C1582 C 0.26443 0.9495 0.00141 0.0
C1583 C 0.29586 0.95828 0.99104 0.0
C1584 C 0.24452 0.96261 0.99179 0.0
C1585 C 0.21072 0.95348 0.00175 0.0
C1586 C 0.18559 0.91919 0.00478 0.0
C1587 C 0.15391 0.91075 0.01438 0.0
C1588 C 0.14698 0.93639 0.0209 0.0
C1589 C 0.17169 0.97051 0.01777 0.0
C1590 C 0.20342 0.97909 0.0082 0.0
C1591 C 0.32178 0.03071 0.9012 0.0
C1592 C 0.33198 0.06503 0.90506 0.0
C1593 C 0.30669 0.00713 0.91961 0.0
C1594 C 0.30109 0.01758 0.94182 0.0
C1595 C 0.30969 0.05154 0.94522 0.0
C1596 C 0.32549 0.07523 0.92705 0.0
C1597 C 0.28869 0.99377 0.96208 0.0
C1598 C 0.25697 0.98467 0.97216 0.0
C1599 C 0.30851 0.98066 0.97177 0.0
C1600 C 0.34377 0.99215 0.9638 0.0
C1601 C 0.36882 0.02669 0.96523 0.0
C1602 C 0.40267 0.03709 0.95981 0.0
C1603 C 0.41188 0.01315 0.95308 0.0
C1604 C 0.38715 0.97877 0.95153 0.0
C1605 C 0.35322 0.96825 0.95688 0.0
H1606 H 0.43814 0.02126 0.94895 0.0
H1607 H 0.12245 0.92981 0.02833 0.0
H1608 H 0.85496 0.17278 0.1786 0.0
H1609 H 0.91529 0.20036 0.18869 0.0
H1610 H 0.94173 0.22929 0.11536 0.0
H1611 H 0.88134 0.20177 0.10501 0.0
H1612 H 0.98098 0.20415 0.13751 0.0
H1613 H 0.94504 0.28627 0.15152 0.0
H1614 H 0.90781 0.30589 0.16865 0.0
H1615 H 0.93337 0.28956 0.23906 0.0
H1616 H 0.97036 0.2693 0.22232 0.0
H1617 H 0.1533 0.33242 0.15374 0.0
H1618 H 0.09334 0.2993 0.14273 0.0
H1619 H 0.06534 0.28357 0.21693 0.0
H1620 H 0.12515 0.31751 0.22808 0.0
H1621 H 0.02634 0.3009 0.19409 0.0
H1622 H 0.06255 0.21956 0.18122 0.0
H1623 H 0.09852 0.19782 0.16499 0.0
H1624 H 0.0719 0.21036 0.09394 0.0
H1625 H 0.03612 0.23263 0.10975 0.0
C1626 C 0.87356 0.18479 0.16456 0.0
C1627 C 0.86339 0.18527 0.14101 0.0
C1628 C 0.908 0.20055 0.17038 0.0
C1629 C 0.93283 0.21703 0.15278 0.0
C1630 C 0.92284 0.21666 0.12915 0.0
C1631 C 0.88837 0.20106 0.12331 0.0
C1632 C 0.96922 0.23591 0.15928 0.0
C1633 C 0.9911 0.22557 0.14965 0.0
C1634 C 0.98201 0.26327 0.17556 0.0
C1635 C 0.96021 0.27597 0.18566 0.0
C1636 C 0.94253 0.28663 0.17065 0.0
C1637 C 0.9215 0.2979 0.18029 0.0
C1638 C 0.91816 0.2989 0.20493 0.0
C1639 C 0.93595 0.28873 0.21998 0.0
C1640 C 0.95697 0.27738 0.21043 0.0
C1641 C 0.13438 0.32173 0.16772 0.0
C1642 C 0.14394 0.32752 0.19178 0.0
C1643 C 0.10012 0.30266 0.16139 0.0
C1644 C 0.07486 0.28859 0.17901 0.0
C1645 C 0.0844 0.29417 0.20304 0.0
C1646 C 0.11861 0.31351 0.20938 0.0
C1647 C 0.03839 0.26914 0.17242 0.0
C1648 C 0.01639 0.27943 0.18199 0.0
C1649 C 0.0255 0.24156 0.15624 0.0
C1650 C 0.04692 0.22808 0.14667 0.0
C1651 C 0.06458 0.21794 0.16213 0.0
C1652 C 0.0849 0.20547 0.15301 0.0
C1653 C 0.08757 0.2028 0.12845 0.0
C1654 C 0.06985 0.21249 0.11296 0.0
C1655 C 0.04952 0.22501 0.12199 0.0
H1656 H 0.10331 0.19314 0.12142 0.0
H1657 H 0.90184 0.30761 0.21236 0.0
H1658 H 0.83241 0.13585 0.48802 0.0
H1659 H 0.80405 0.07485 0.47963 0.0
H1660 H 0.78241 0.05296 0.55427 0.0
H1661 H 0.81058 0.11388 0.56287 0.0
H1662 H 0.80598 0.01286 0.53178 0.0
H1663 H 0.72176 0.0465 0.52066 0.0
H1664 H 0.69957 0.08184 0.50399 0.0
H1665 H 0.7091 0.05163 0.43337 0.0
H1666 H 0.7319 0.01652 0.44962 0.0
H1667 H 0.67869 0.83837 0.52197 0.0
H1668 H 0.71118 0.89902 0.53145 0.0
H1669 H 0.72112 0.92327 0.45663 0.0
H1670 H 0.688 0.86288 0.44705 0.0
H1671 H 0.70409 0.96261 0.47975 0.0
H1672 H 0.7881 0.92906 0.49002 0.0
H1673 H 0.81201 0.89481 0.50596 0.0
H1674 H 0.8046 0.92527 0.57696 0.0
H1675 H 0.78019 0.95935 0.56146 0.0
C1676 C 0.82183 0.11808 0.50268 0.0
C1677 C 0.82361 0.12968 0.5261 0.0
C1678 C 0.8056 0.08327 0.49785 0.0
C1679 C 0.79099 0.0595 0.51634 0.0
C1680 C 0.79357 0.07097 0.53979 0.0
C1681 C 0.80955 0.10577 0.54463 0.0
C1682 C 0.7719 0.02266 0.51108 0.0
C1683 C 0.78347 0.00171 0.52064 0.0
C1684 C 0.74299 0.00842 0.49614 0.0
C1685 C 0.72885 0.02915 0.48635 0.0
C1686 C 0.71937 0.0476 0.50157 0.0
C1687 C 0.70665 0.06756 0.4922 0.0
C1688 C 0.703 0.06905 0.46763 0.0
C1689 C 0.71198 0.05048 0.45239 0.0
C1690 C 0.72478 0.03053 0.46168 0.0
C1691 C 0.68796 0.85663 0.50754 0.0
C1692 C 0.68084 0.84582 0.48376 0.0
C1693 C 0.70664 0.89128 0.51298 0.0
C1694 C 0.71891 0.9157 0.49473 0.0
C1695 C 0.71192 0.9049 0.471 0.0
C1696 C 0.69306 0.87034 0.46556 0.0
C1697 C 0.73823 0.95257 0.50031 0.0
C1698 C 0.72664 0.97362 0.49086 0.0
C1699 C 0.76724 0.96688 0.51522 0.0
C1700 C 0.782 0.94648 0.52459 0.0
C1701 C 0.79132 0.92824 0.50905 0.0
C1702 C 0.805 0.90889 0.518 0.0
C1703 C 0.80973 0.90779 0.54246 0.0
C1704 C 0.80087 0.92611 0.55802 0.0
C1705 C 0.78714 0.94547 0.54916 0.0
H1706 H 0.82033 0.8928 0.54936 0.0
H1707 H 0.69316 0.08452 0.4604 0.0
H1708 H 0.81111 0.68782 0.78118 0.0
H1709 H 0.78204 0.71977 0.78957 0.0
H1710 H 0.79762 0.71432 0.86472 0.0
H1711 H 0.82677 0.68233 0.85654 0.0
H1712 H 0.73162 0.69833 0.85358 0.0
H1713 H 0.8462 0.7864 0.83604 0.0
H1714 H 0.89838 0.81532 0.81182 0.0
H1715 H 0.84216 0.82748 0.75499 0.0
H1716 H 0.78951 0.79818 0.77876 0.0
H1717 H 0.68877 0.81706 0.89625 0.0
H1718 H 0.72044 0.78836 0.88636 0.0
H1719 H 0.71173 0.80451 0.81168 0.0
H1720 H 0.68087 0.83438 0.82151 0.0
H1721 H 0.77342 0.81441 0.82139 0.0
H1722 H 0.65923 0.72768 0.83821 0.0
H1723 H 0.60663 0.69978 0.86207 0.0
H1724 H 0.66048 0.68413 0.91892 0.0
H1725 H 0.71356 0.71247 0.89556 0.0
C1726 C 0.80847 0.6935 0.7995 0.0
C1727 C 0.8214 0.6827 0.8182 0.0
C1728 C 0.7919 0.7118 0.80424 0.0
C1729 C 0.78793 0.71959 0.82774 0.0
C1730 C 0.80049 0.70857 0.84646 0.0
C1731 C 0.81725 0.69043 0.84174 0.0
C1732 C 0.77049 0.7391 0.83282 0.0
C1733 C 0.74094 0.72386 0.84679 0.0
C1734 C 0.78219 0.772 0.82335 0.0
C1735 C 0.81386 0.78979 0.80909 0.0
C1736 C 0.84491 0.79499 0.8183 0.0
C1737 C 0.87458 0.81149 0.80467 0.0
C1738 C 0.87357 0.82314 0.78185 0.0
C1739 C 0.84289 0.81839 0.77265 0.0
C1740 C 0.81314 0.80187 0.7862 0.0
C1741 C 0.69372 0.81469 0.87771 0.0
C1742 C 0.68211 0.82774 0.85964 0.0
C1743 C 0.71173 0.79816 0.87208 0.0
C1744 C 0.71784 0.79368 0.84826 0.0
C1745 C 0.70716 0.80757 0.83018 0.0
C1746 C 0.68948 0.82454 0.83582 0.0
C1747 C 0.73464 0.77376 0.84232 0.0
C1748 C 0.764 0.78884 0.82813 0.0
C1749 C 0.72258 0.74056 0.8514 0.0
C1750 C 0.69045 0.72244 0.86519 0.0
C1751 C 0.65989 0.7184 0.85584 0.0
C1752 C 0.62999 0.70253 0.86928 0.0
C1753 C 0.63023 0.69027 0.89202 0.0
C1754 C 0.66034 0.69368 0.90131 0.0
C1755 C 0.69034 0.70962 0.88797 0.0
H1756 H 0.60708 0.67808 0.90242 0.0
H1757 H 0.89656 0.83592 0.77132 0.0
H1758 H 0.85567 0.72326 0.15791 0.0
H1759 H 0.91589 0.75353 0.14683 0.0
H1760 H 0.93801 0.70573 0.20518 0.0
H1761 H 0.87843 0.67711 0.21703 0.0
H1762 H 0.98543 0.76636 0.20309 0.0
H1763 H 0.93025 0.67857 0.14507 0.0
H1764 H 0.88807 0.6454 0.11414 0.0
H1765 H 0.92685 0.7343 0.07 0.0
H1766 H 0.96896 0.76814 0.10084 0.0
H1767 H 0.129 0.7779 0.12051 0.0
H1768 H 0.0687 0.75203 0.13044 0.0
H1769 H 0.08789 0.84541 0.16423 0.0
H1770 H 0.14851 0.87072 0.15544 0.0
H1771 H 0.01982 0.76187 0.12005 0.0
H1772 H 0.03582 0.83033 0.21038 0.0
H1773 H 0.07795 0.85529 0.24274 0.0
H1774 H 0.11753 0.78969 0.22486 0.0
H1775 H 0.07532 0.764 0.19265 0.0
C1776 C 0.8735 0.71943 0.1684 0.0
C1777 C 0.86243 0.69782 0.18828 0.0
C1778 C 0.90785 0.73656 0.162 0.0
C1779 C 0.93148 0.7315 0.17493 0.0
C1780 C 0.92037 0.71017 0.19495 0.0
C1781 C 0.88625 0.69371 0.20167 0.0
C1782 C 0.96773 0.74809 0.16762 0.0
C1783 C 0.9929 0.76539 0.18491 0.0
C1784 C 0.97762 0.74628 0.14402 0.0
C1785 C 0.95252 0.72596 0.12536 0.0
C1786 C 0.92963 0.6911 0.12883 0.0
C1787 C 0.90575 0.67217 0.11131 0.0
C1788 C 0.90472 0.68776 0.09015 0.0
C1789 C 0.92764 0.72228 0.08643 0.0
C1790 C 0.95154 0.74134 0.10391 0.0
C1791 C 0.12029 0.79289 0.13002 0.0
C1792 C 0.14337 0.82616 0.13743 0.0
C1793 C 0.08582 0.77814 0.13561 0.0
C1794 C 0.07377 0.79656 0.14842 0.0
C1795 C 0.09667 0.83037 0.15489 0.0
C1796 C 0.13127 0.84486 0.14979 0.0
C1797 C 0.03745 0.78003 0.15553 0.0
C1798 C 0.01231 0.76289 0.1382 0.0
C1799 C 0.02755 0.78066 0.17933 0.0
C1800 C 0.05265 0.79553 0.19894 0.0
C1801 C 0.05342 0.82114 0.21343 0.0
C1802 C 0.07732 0.83542 0.23173 0.0
C1803 C 0.10047 0.82417 0.2358 0.0
C1804 C 0.09966 0.79848 0.22164 0.0
C1805 C 0.07577 0.78406 0.20335 0.0
H1806 H 0.11899 0.8353 0.24994 0.0
H1807 H 0.88621 0.67306 0.0766 0.0
H1808 H 0.1572 0.84121 0.48851 0.0
H1809 H 0.18891 0.90139 0.4777 0.0
H1810 H 0.20822 0.92878 0.55179 0.0
H1811 H 0.17672 0.86856 0.56285 0.0
H1812 H 0.18908 0.96992 0.52416 0.0
H1813 H 0.26826 0.92855 0.52275 0.0
H1814 H 0.28762 0.88865 0.51099 0.0
H1815 H 0.28505 0.9129 0.43749 0.0
H1816 H 0.26508 0.95254 0.44881 0.0
H1817 H 0.32133 0.14032 0.50787 0.0
H1818 H 0.28758 0.08111 0.52065 0.0
H1819 H 0.2818 0.04789 0.44804 0.0
H1820 H 0.31644 0.10693 0.43525 0.0
H1821 H 0.2939 0.00939 0.47607 0.0
H1822 H 0.21417 0.04961 0.4763 0.0
H1823 H 0.19252 0.08806 0.48693 0.0
H1824 H 0.19386 0.06519 0.56087 0.0
H1825 H 0.21598 0.02694 0.5507 0.0
C1826 C 0.16788 0.86001 0.50255 0.0
C1827 C 0.16458 0.85013 0.52654 0.0
C1828 C 0.18603 0.89435 0.49632 0.0
C1829 C 0.20104 0.91938 0.51396 0.0
C1830 C 0.19677 0.90974 0.53796 0.0
C1831 C 0.17888 0.87536 0.54421 0.0
C1832 C 0.22252 0.9555 0.50723 0.0
C1833 C 0.21224 0.97875 0.51391 0.0
C1834 C 0.25227 0.96663 0.49344 0.0
C1835 C 0.26487 0.94327 0.48662 0.0
C1836 C 0.27158 0.92519 0.50407 0.0
C1837 C 0.28269 0.90264 0.49749 0.0
C1838 C 0.28749 0.89818 0.4735 0.0
C1839 C 0.28129 0.91635 0.45606 0.0
C1840 C 0.27009 0.93888 0.46255 0.0
C1841 C 0.31286 0.12039 0.49462 0.0
C1842 C 0.32139 0.12829 0.47052 0.0
C1843 C 0.29343 0.08657 0.50194 0.0
C1844 C 0.28169 0.06006 0.48525 0.0
C1845 C 0.29053 0.06791 0.46123 0.0
C1846 C 0.31026 0.10169 0.45393 0.0
C1847 C 0.26042 0.02409 0.4928 0.0
C1848 C 0.27076 0.00075 0.48632 0.0
C1849 C 0.23056 0.01286 0.5066 0.0
C1850 C 0.21706 0.03568 0.51275 0.0
C1851 C 0.21008 0.05297 0.49484 0.0
C1852 C 0.19769 0.0747 0.50078 0.0
C1853 C 0.1919 0.07914 0.52457 0.0
C1854 C 0.1984 0.06177 0.54246 0.0
C1855 C 0.21084 0.04004 0.53662 0.0
H1856 H 0.18231 0.09598 0.52913 0.0
H1857 H 0.29608 0.8807 0.46844 0.0
H1858 H 0.21752 0.34016 0.788 0.0
H1859 H 0.23813 0.30117 0.79761 0.0
H1860 H 0.15268 0.24564 0.84476 0.0
H1861 H 0.13315 0.28605 0.83623 0.0
H1862 H 0.20309 0.24781 0.86431 0.0
H1863 H 0.15776 0.21578 0.78716 0.0
H1864 H 0.14766 0.22294 0.74502 0.0
H1865 H 0.25296 0.25976 0.72928 0.0
H1866 H 0.26381 0.25329 0.7714 0.0
H1867 H 0.26613 0.12073 0.82301 0.0
H1868 H 0.23095 0.147 0.81664 0.0
H1869 H 0.2905 0.2239 0.86877 0.0
H1870 H 0.32371 0.1962 0.87636 0.0
H1871 H 0.24212 0.20136 0.7995 0.0
H1872 H 0.25114 0.25962 0.89395 0.0
H1873 H 0.25166 0.24401 0.93589 0.0
H1874 H 0.2009 0.13829 0.91686 0.0
H1875 H 0.19965 0.15322 0.87486 0.0
C1876 C 0.2032 0.31966 0.80045 0.0
C1877 C 0.17367 0.31594 0.81128 0.0
C1878 C 0.21483 0.29719 0.8058 0.0
C1879 C 0.19651 0.26982 0.82145 0.0
C1880 C 0.16722 0.26642 0.83256 0.0
C1881 C 0.15604 0.28947 0.82767 0.0
C1882 C 0.20836 0.24522 0.82641 0.0
C1883 C 0.21142 0.23747 0.85013 0.0
C1884 C 0.21802 0.23054 0.80793 0.0
C1885 C 0.21164 0.23425 0.78249 0.0
C1886 C 0.17881 0.22559 0.77474 0.0
C1887 C 0.17294 0.22951 0.75086 0.0
C1888 C 0.19966 0.24185 0.7345 0.0
C1889 C 0.23229 0.25021 0.74198 0.0
C1890 C 0.2383 0.24638 0.76585 0.0
C1891 C 0.2712 0.14291 0.83336 0.0
C1892 C 0.29736 0.15629 0.85033 0.0
C1893 C 0.25122 0.15802 0.82966 0.0
C1894 C 0.25756 0.18723 0.84248 0.0
C1895 C 0.28411 0.20076 0.85922 0.0
C1896 C 0.30334 0.18506 0.86343 0.0
C1897 C 0.23787 0.20475 0.83748 0.0
C1898 C 0.23335 0.21122 0.81372 0.0
C1899 C 0.22529 0.2168 0.8559 0.0
C1900 C 0.22554 0.20759 0.88121 0.0
C1901 C 0.23991 0.23303 0.89873 0.0
C1902 C 0.24038 0.2243 0.92251 0.0
C1903 C 0.2264 0.19019 0.92902 0.0
C1904 C 0.21182 0.16472 0.91178 0.0
C1905 C 0.21126 0.1733 0.88798 0.0
H1906 H 0.22682 0.18349 0.94744 0.0
H1907 H 0.19507 0.24488 0.71602 0.0
loop_
_geom_bond_atom_site_label_1
_geom_bond_atom_site_label_2
_geom_bond_distance
_geom_bond_site_symmetry_2
_ccdc_geom_bond_type
Co0 O2 2.143 . S
Co0 O8 2.074 . S
Co0 O11 2.093 . S
Co0 O24 2.097 . S
Co0 N41 2.151 . S
Co0 N49 2.214 . S
Co1 O2 2.160 . S
Co1 O7 2.058 . S
Co1 O17 2.057 . S
Co1 O32 2.037 . S
Co1 N36 2.145 . S
Co1 N57 2.257 . S
O2 Co0 2.143 . S
O2 Co1 2.160 . S
C3 O4 1.278 . S
C3 O11 1.224 . S
O4 C3 1.278 . S
C5 O6 1.245 . S
C5 O17 1.232 . S
O6 C5 1.245 . S
O7 Co1 2.058 . S
O7 C33 1.269 . S
O8 Co0 2.074 . S
O8 C33 1.257 . S
H9 C34 0.930 . S
H10 C40 0.930 . S
O11 Co0 2.093 . S
O11 C3 1.224 . S
H12 C44 0.929 . S
H13 C46 0.930 . S
H14 C47 0.930 . S
H15 C45 0.929 . S
H16 C48 0.928 . S
O17 Co1 2.057 . S
O17 C5 1.232 . S
H18 C37 0.929 . S
H19 C38 0.929 . S
H20 C50 0.931 . S
H21 C42 0.929 . S
H22 C51 0.930 . S
H23 C43 0.931 . S
O24 Co0 2.097 . S
O24 C52 1.214 . S
H25 C53 0.929 . S
H26 C54 0.929 . S
H27 C55 0.930 . S
H28 C56 0.929 . S
H29 C58 0.930 . S
H30 C35 0.930 . S
H31 C39 0.930 . S
O32 Co1 2.037 . S
O32 C52 1.234 . S
C33 O7 1.269 . S
C33 O8 1.257 . S
C34 H9 0.930 . S
C34 C37 1.388 . S
C34 C39 1.418 . S
C35 H30 0.930 . S
C35 C38 1.404 . S
C35 C39 1.353 . S
N36 Co1 2.145 . S
N36 C37 1.397 . S
N36 C38 1.334 . S
C37 H18 0.929 . S
C37 C34 1.388 . S
C37 N36 1.397 . S
C38 H19 0.929 . S
C38 C35 1.404 . S
C38 N36 1.334 . S
C39 H31 0.930 . S
C39 C34 1.418 . S
C39 C35 1.353 . S
C40 H10 0.930 . S
C40 N41 1.330 . S
C40 C42 1.446 . S
N41 Co0 2.151 . S
N41 C40 1.330 . S
N41 C45 1.418 . S
C42 H21 0.929 . S
C42 C40 1.446 . S
C42 C43 1.332 . S
C43 H23 0.931 . S
C43 C42 1.332 . S
C43 C44 1.267 . S
C44 H12 0.929 . S
C44 C43 1.267 . S
C44 C45 1.251 . S
C45 H15 0.929 . S
C45 N41 1.418 . S
C45 C44 1.251 . S
C46 H13 0.930 . S
C46 C48 1.406 . S
C46 C51 1.261 . S
C47 H14 0.930 . S
C47 N49 1.325 . S
C47 C50 1.357 . S
C48 H16 0.928 . S
C48 C46 1.406 . S
C48 N49 1.261 . S
N49 Co0 2.214 . S
N49 C47 1.325 . S
N49 C48 1.261 . S
C50 H20 0.931 . S
C50 C47 1.357 . S
C50 C51 1.312 . S
C51 H22 0.930 . S
C51 C46 1.261 . S
C51 C50 1.312 . S
C52 O24 1.214 . S
C52 O32 1.234 . S
C53 H25 0.929 . S
C53 C56 1.391 . S
C53 C58 1.391 . S
C54 H26 0.929 . S
C54 C55 1.390 . S
C54 N57 1.391 . S
C55 H27 0.930 . S
C55 C54 1.390 . S
C55 C56 1.392 . S
C56 H28 0.929 . S
C56 C53 1.391 . S
C56 C55 1.392 . S
N57 Co1 2.257 . S
N57 C54 1.391 . S
N57 C58 1.388 . S
C58 H29 0.930 . S
C58 C53 1.391 . S
C58 N57 1.388 . S
Co59 O61 2.143 . S
Co59 O67 2.074 . S
Co59 O70 2.093 . S
Co59 O83 2.097 . S
Co59 N100 2.151 . S
Co59 N108 2.214 . S
Co60 O61 2.160 . S
Co60 O66 2.058 . S
Co60 O76 2.057 . S
Co60 O91 2.037 . S
Co60 N95 2.145 . S
Co60 N116 2.257 . S
O61 Co59 2.143 . S
O61 Co60 2.160 . S
C62 O63 1.278 . S
C62 O70 1.224 . S
O63 C62 1.278 . S
C64 O65 1.245 . S
C64 O76 1.232 . S
O65 C64 1.245 . S
O66 Co60 2.058 . S
O66 C92 1.269 . S
O67 Co59 2.074 . S
O67 C92 1.257 . S
H68 C93 0.930 . S
H69 C99 0.930 . S
O70 Co59 2.093 . S
O70 C62 1.224 . S
H71 C103 0.929 . S
H72 C105 0.930 . S
H73 C106 0.930 . S
H74 C104 0.929 . S
H75 C107 0.928 . S
O76 Co60 2.057 . S
O76 C64 1.232 . S
H77 C96 0.929 . S
H78 C97 0.929 . S
H79 C109 0.931 . S
H80 C101 0.929 . S
H81 C110 0.930 . S
H82 C102 0.931 . S
O83 Co59 2.097 . S
O83 C111 1.214 . S
H84 C112 0.929 . S
H85 C113 0.929 . S
H86 C114 0.930 . S
H87 C115 0.929 . S
H88 C117 0.930 . S
H89 C94 0.930 . S
H90 C98 0.930 . S
O91 Co60 2.037 . S
O91 C111 1.234 . S
C92 O66 1.269 . S
C92 O67 1.257 . S
C93 H68 0.930 . S
C93 C96 1.388 1_455 S
C93 C98 1.418 . S
C94 H89 0.930 . S
C94 C97 1.404 . S
C94 C98 1.353 1_655 S
N95 Co60 2.145 . S
N95 C96 1.397 . S
N95 C97 1.334 . S
C96 H77 0.929 . S
C96 C93 1.388 1_655 S
C96 N95 1.397 . S
C97 H78 0.929 . S
C97 C94 1.404 . S
C97 N95 1.334 . S
C98 H90 0.930 . S
C98 C93 1.418 . S
C98 C94 1.353 1_455 S
C99 H69 0.930 . S
C99 N100 1.330 . S
C99 C101 1.446 . S
N100 Co59 2.151 . S
N100 C99 1.330 . S
N100 C104 1.418 . S
C101 H80 0.929 . S
C101 C99 1.446 . S
C101 C102 1.332 . S
C102 H82 0.931 . S
C102 C101 1.332 . S
C102 C103 1.267 . S
C103 H71 0.929 . S
C103 C102 1.267 . S
C103 C104 1.251 . S
C104 H74 0.929 . S
C104 N100 1.418 . S
C104 C103 1.251 . S
C105 H72 0.930 . S
C105 C107 1.406 . S
C105 C110 1.261 . S
C106 H73 0.930 . S
C106 N108 1.325 . S
C106 C109 1.357 . S
C107 H75 0.928 . S
C107 C105 1.406 . S
C107 N108 1.261 . S
N108 Co59 2.214 . S
N108 C106 1.325 . S
N108 C107 1.261 . S
C109 H79 0.931 . S
C109 C106 1.357 . S
C109 C110 1.312 . S
C110 H81 0.930 . S
C110 C105 1.261 . S
C110 C109 1.312 . S
C111 O83 1.214 . S
C111 O91 1.234 . S
C112 H84 0.929 . S
C112 C115 1.391 . S
C112 C117 1.391 . S
C113 H85 0.929 . S
C113 C114 1.390 . S
C113 N116 1.391 . S
C114 H86 0.930 . S
C114 C113 1.390 . S
C114 C115 1.392 . S
C115 H87 0.929 . S
C115 C112 1.391 . S
C115 C114 1.392 . S
N116 Co60 2.257 . S
N116 C113 1.391 . S
N116 C117 1.388 . S
C117 H88 0.930 . S
C117 C112 1.391 . S
C117 N116 1.388 . S
Co118 O120 2.143 . S
Co118 O126 2.074 . S
Co118 O129 2.093 . S
Co118 O142 2.097 . S
Co118 N159 2.151 . S
Co118 N167 2.214 . S
Co119 O120 2.160 . S
Co119 O125 2.058 . S
Co119 O135 2.057 . S
Co119 O150 2.037 . S
Co119 N154 2.145 . S
Co119 N175 2.257 . S
O120 Co118 2.143 . S
O120 Co119 2.160 . S
C121 O122 1.278 . S
C121 O129 1.224 . S
O122 C121 1.278 . S
C123 O124 1.245 . S
C123 O135 1.232 . S
O124 C123 1.245 . S
O125 Co119 2.058 . S
O125 C151 1.269 . S
O126 Co118 2.074 . S
O126 C151 1.257 . S
H127 C152 0.930 . S
H128 C158 0.930 . S
O129 Co118 2.093 . S
O129 C121 1.224 . S
H130 C162 0.929 . S
H131 C164 0.930 . S
H132 C165 0.930 . S
H133 C163 0.929 . S
H134 C166 0.928 . S
O135 Co119 2.057 . S
O135 C123 1.232 . S
H136 C155 0.929 . S
H137 C156 0.929 . S
H138 C168 0.931 . S
H139 C160 0.929 . S
H140 C169 0.930 . S
H141 C161 0.931 . S
O142 Co118 2.097 . S
O142 C170 1.214 . S
H143 C171 0.929 . S
H144 C172 0.929 . S
H145 C173 0.930 . S
H146 C174 0.929 . S
H147 C176 0.930 . S
H148 C153 0.930 . S
H149 C157 0.930 . S
O150 Co119 2.037 . S
O150 C170 1.234 . S
C151 O125 1.269 . S
C151 O126 1.257 . S
C152 H127 0.930 . S
C152 C155 1.388 1_545 S
C152 C157 1.418 . S
C153 H148 0.930 . S
C153 C156 1.404 . S
C153 C157 1.353 1_565 S
N154 Co119 2.145 . S
N154 C155 1.397 . S
N154 C156 1.334 . S
C155 H136 0.929 . S
C155 C152 1.388 1_565 S
C155 N154 1.397 . S
C156 H137 0.929 . S
C156 C153 1.404 . S
C156 N154 1.334 . S
C157 H149 0.930 . S
C157 C152 1.418 . S
C157 C153 1.353 1_545 S
C158 H128 0.930 . S
C158 N159 1.330 . S
C158 C160 1.446 . S
N159 Co118 2.151 . S
N159 C158 1.330 . S
N159 C163 1.418 . S
C160 H139 0.929 . S
C160 C158 1.446 . S
C160 C161 1.332 . S
C161 H141 0.931 . S
C161 C160 1.332 . S
C161 C162 1.267 . S
C162 H130 0.929 . S
C162 C161 1.267 . S
C162 C163 1.251 . S
C163 H133 0.929 . S
C163 N159 1.418 . S
C163 C162 1.251 . S
C164 H131 0.930 . S
C164 C166 1.406 . S
C164 C169 1.261 . S
C165 H132 0.930 . S
C165 N167 1.325 . S
C165 C168 1.357 . S
C166 H134 0.928 . S
C166 C164 1.406 . S
C166 N167 1.261 . S
N167 Co118 2.214 . S
N167 C165 1.325 . S
N167 C166 1.261 . S
C168 H138 0.931 . S
C168 C165 1.357 . S
C168 C169 1.312 . S
C169 H140 0.930 . S
C169 C164 1.261 . S
C169 C168 1.312 . S
C170 O142 1.214 . S
C170 O150 1.234 . S
C171 H143 0.929 . S
C171 C174 1.391 . S
C171 C176 1.391 . S
C172 H144 0.929 . S
C172 C173 1.390 . S
C172 N175 1.391 . S
C173 H145 0.930 . S
C173 C172 1.390 . S
C173 C174 1.392 . S
C174 H146 0.929 . S
C174 C171 1.391 . S
C174 C173 1.392 . S
N175 Co119 2.257 . S
N175 C172 1.391 . S
N175 C176 1.388 . S
C176 H147 0.930 . S
C176 C171 1.391 . S
C176 N175 1.388 . S
Co177 O179 2.143 . S
Co177 O185 2.074 . S
Co177 O188 2.093 . S
Co177 O201 2.097 . S
Co177 N218 2.151 . S
Co177 N226 2.214 . S
Co178 O179 2.160 . S
Co178 O184 2.058 . S
Co178 O194 2.057 . S
Co178 O209 2.037 . S
Co178 N213 2.145 . S
Co178 N234 2.257 . S
O179 Co177 2.143 . S
O179 Co178 2.160 . S
C180 O181 1.278 . S
C180 O188 1.224 . S
O181 C180 1.278 . S
C182 O183 1.245 . S
C182 O194 1.232 . S
O183 C182 1.245 . S
O184 Co178 2.058 . S
O184 C210 1.269 . S
O185 Co177 2.074 . S
O185 C210 1.257 . S
H186 C211 0.930 . S
H187 C217 0.930 . S
O188 Co177 2.093 . S
O188 C180 1.224 . S
H189 C221 0.929 . S
H190 C223 0.930 . S
H191 C224 0.930 . S
H192 C222 0.929 . S
H193 C225 0.928 . S
O194 Co178 2.057 . S
O194 C182 1.232 . S
H195 C214 0.929 . S
H196 C215 0.929 . S
H197 C227 0.931 . S
H198 C219 0.929 . S
H199 C228 0.930 . S
H200 C220 0.931 . S
O201 Co177 2.097 . S
O201 C229 1.214 . S
H202 C230 0.929 . S
H203 C231 0.929 . S
H204 C232 0.930 . S
H205 C233 0.929 . S
H206 C235 0.930 . S
H207 C212 0.930 . S
H208 C216 0.930 . S
O209 Co178 2.037 . S
O209 C229 1.234 . S
C210 O184 1.269 . S
C210 O185 1.257 . S
C211 H186 0.930 . S
C211 C214 1.388 . S
C211 C216 1.418 . S
C212 H207 0.930 . S
C212 C215 1.404 . S
C212 C216 1.353 . S
N213 Co178 2.145 . S
N213 C214 1.397 . S
N213 C215 1.334 . S
C214 H195 0.929 . S
C214 C211 1.388 . S
C214 N213 1.397 . S
C215 H196 0.929 . S
C215 C212 1.404 . S
C215 N213 1.334 . S
C216 H208 0.930 . S
C216 C211 1.418 . S
C216 C212 1.353 . S
C217 H187 0.930 . S
C217 N218 1.330 . S
C217 C219 1.446 . S
N218 Co177 2.151 . S
N218 C217 1.330 . S
N218 C222 1.418 . S
C219 H198 0.929 . S
C219 C217 1.446 . S
C219 C220 1.332 . S
C220 H200 0.931 . S
C220 C219 1.332 . S
C220 C221 1.267 . S
C221 H189 0.929 . S
C221 C220 1.267 . S
C221 C222 1.251 . S
C222 H192 0.929 . S
C222 N218 1.418 . S
C222 C221 1.251 . S
C223 H190 0.930 . S
C223 C225 1.406 . S
C223 C228 1.261 . S
C224 H191 0.930 . S
C224 N226 1.325 . S
C224 C227 1.357 . S
C225 H193 0.928 . S
C225 C223 1.406 . S
C225 N226 1.261 . S
N226 Co177 2.214 . S
N226 C224 1.325 . S
N226 C225 1.261 . S
C227 H197 0.931 . S
C227 C224 1.357 . S
C227 C228 1.312 . S
C228 H199 0.930 . S
C228 C223 1.261 . S
C228 C227 1.312 . S
C229 O201 1.214 . S
C229 O209 1.234 . S
C230 H202 0.929 . S
C230 C233 1.391 . S
C230 C235 1.391 . S
C231 H203 0.929 . S
C231 C232 1.390 . S
C231 N234 1.391 . S
C232 H204 0.930 . S
C232 C231 1.390 . S
C232 C233 1.392 . S
C233 H205 0.929 . S
C233 C230 1.391 . S
C233 C232 1.392 . S
N234 Co178 2.257 . S
N234 C231 1.391 . S
N234 C235 1.388 . S
C235 H206 0.930 . S
C235 C230 1.391 . S
C235 N234 1.388 . S
Co236 O238 2.143 . S
Co236 O244 2.074 . S
Co236 O247 2.093 . S
Co236 O260 2.097 . S
Co236 N277 2.151 . S
Co236 N285 2.214 . S
Co237 O238 2.160 . S
Co237 O243 2.058 . S
Co237 O253 2.057 . S
Co237 O268 2.037 . S
Co237 N272 2.145 . S
Co237 N293 2.257 . S
O238 Co236 2.143 . S
O238 Co237 2.160 . S
C239 O240 1.278 . S
C239 O247 1.224 . S
O240 C239 1.278 . S
C241 O242 1.245 . S
C241 O253 1.232 . S
O242 C241 1.245 . S
O243 Co237 2.058 . S
O243 C269 1.269 . S
O244 Co236 2.074 . S
O244 C269 1.257 . S
H245 C270 0.930 . S
H246 C276 0.930 . S
O247 Co236 2.093 . S
O247 C239 1.224 . S
H248 C280 0.929 . S
H249 C282 0.930 . S
H250 C283 0.930 . S
H251 C281 0.929 . S
H252 C284 0.928 . S
O253 Co237 2.057 . S
O253 C241 1.232 . S
H254 C273 0.929 . S
H255 C274 0.929 . S
H256 C286 0.931 . S
H257 C278 0.929 . S
H258 C287 0.930 . S
H259 C279 0.931 . S
O260 Co236 2.097 . S
O260 C288 1.214 . S
H261 C289 0.929 . S
H262 C290 0.929 . S
H263 C291 0.930 . S
H264 C292 0.929 . S
H265 C294 0.930 . S
H266 C271 0.930 . S
H267 C275 0.930 . S
O268 Co237 2.037 . S
O268 C288 1.234 . S
C269 O243 1.269 . S
C269 O244 1.257 . S
C270 H245 0.930 . S
C270 C273 1.388 1_655 S
C270 C275 1.418 . S
C271 H266 0.930 . S
C271 C274 1.404 . S
C271 C275 1.353 1_455 S
N272 Co237 2.145 . S
N272 C273 1.397 . S
N272 C274 1.334 . S
C273 H254 0.929 . S
C273 C270 1.388 1_455 S
C273 N272 1.397 . S
C274 H255 0.929 . S
C274 C271 1.404 . S
C274 N272 1.334 . S
C275 H267 0.930 . S
C275 C270 1.418 . S
C275 C271 1.353 1_655 S
C276 H246 0.930 . S
C276 N277 1.330 . S
C276 C278 1.446 . S
N277 Co236 2.151 . S
N277 C276 1.330 . S
N277 C281 1.418 . S
C278 H257 0.929 . S
C278 C276 1.446 . S
C278 C279 1.332 . S
C279 H259 0.931 . S
C279 C278 1.332 . S
C279 C280 1.267 . S
C280 H248 0.929 . S
C280 C279 1.267 . S
C280 C281 1.251 . S
C281 H251 0.929 . S
C281 N277 1.418 . S
C281 C280 1.251 . S
C282 H249 0.930 . S
C282 C284 1.406 . S
C282 C287 1.261 . S
C283 H250 0.930 . S
C283 N285 1.325 . S
C283 C286 1.357 . S
C284 H252 0.928 . S
C284 C282 1.406 . S
C284 N285 1.261 . S
N285 Co236 2.214 . S
N285 C283 1.325 . S
N285 C284 1.261 . S
C286 H256 0.931 . S
C286 C283 1.357 . S
C286 C287 1.312 . S
C287 H258 0.930 . S
C287 C282 1.261 . S
C287 C286 1.312 . S
C288 O260 1.214 . S
C288 O268 1.234 . S
C289 H261 0.929 . S
C289 C292 1.391 . S
C289 C294 1.391 . S
C290 H262 0.929 . S
C290 C291 1.390 . S
C290 N293 1.391 . S
C291 H263 0.930 . S
C291 C290 1.390 . S
C291 C292 1.392 . S
C292 H264 0.929 . S
C292 C289 1.391 . S
C292 C291 1.392 . S
N293 Co237 2.257 . S
N293 C290 1.391 . S
N293 C294 1.388 . S
C294 H265 0.930 . S
C294 C289 1.391 . S
C294 N293 1.388 . S
Co295 O297 2.143 . S
Co295 O303 2.074 . S
Co295 O306 2.093 . S
Co295 O319 2.097 . S
Co295 N336 2.151 . S
Co295 N344 2.214 . S
Co296 O297 2.160 . S
Co296 O302 2.058 . S
Co296 O312 2.057 . S
Co296 O327 2.037 . S
Co296 N331 2.145 . S
Co296 N352 2.257 . S
O297 Co295 2.143 . S
O297 Co296 2.160 . S
C298 O299 1.278 . S
C298 O306 1.224 . S
O299 C298 1.278 . S
C300 O301 1.245 . S
C300 O312 1.232 . S
O301 C300 1.245 . S
O302 Co296 2.058 . S
O302 C328 1.269 . S
O303 Co295 2.074 . S
O303 C328 1.257 . S
H304 C329 0.930 . S
H305 C335 0.930 . S
O306 Co295 2.093 . S
O306 C298 1.224 . S
H307 C339 0.929 . S
H308 C341 0.930 . S
H309 C342 0.930 . S
H310 C340 0.929 . S
H311 C343 0.928 . S
O312 Co296 2.057 . S
O312 C300 1.232 . S
H313 C332 0.929 . S
H314 C333 0.929 . S
H315 C345 0.931 . S
H316 C337 0.929 . S
H317 C346 0.930 . S
H318 C338 0.931 . S
O319 Co295 2.097 . S
O319 C347 1.214 . S
H320 C348 0.929 . S
H321 C349 0.929 . S
H322 C350 0.930 . S
H323 C351 0.929 . S
H324 C353 0.930 . S
H325 C330 0.930 . S
H326 C334 0.930 . S
O327 Co296 2.037 . S
O327 C347 1.234 . S
C328 O302 1.269 . S
C328 O303 1.257 . S
C329 H304 0.930 . S
C329 C332 1.388 1_565 S
C329 C334 1.418 . S
C330 H325 0.930 . S
C330 C333 1.404 . S
C330 C334 1.353 1_545 S
N331 Co296 2.145 . S
N331 C332 1.397 . S
N331 C333 1.334 . S
C332 H313 0.929 . S
C332 C329 1.388 1_545 S
C332 N331 1.397 . S
C333 H314 0.929 . S
C333 C330 1.404 . S
C333 N331 1.334 . S
C334 H326 0.930 . S
C334 C329 1.418 . S
C334 C330 1.353 1_565 S
C335 H305 0.930 . S
C335 N336 1.330 . S
C335 C337 1.446 . S
N336 Co295 2.151 . S
N336 C335 1.330 . S
N336 C340 1.418 . S
C337 H316 0.929 . S
C337 C335 1.446 . S
C337 C338 1.332 . S
C338 H318 0.931 . S
C338 C337 1.332 . S
C338 C339 1.267 . S
C339 H307 0.929 . S
C339 C338 1.267 . S
C339 C340 1.251 . S
C340 H310 0.929 . S
C340 N336 1.418 . S
C340 C339 1.251 . S
C341 H308 0.930 . S
C341 C343 1.406 . S
C341 C346 1.261 . S
C342 H309 0.930 . S
C342 N344 1.325 . S
C342 C345 1.357 . S
C343 H311 0.928 . S
C343 C341 1.406 . S
C343 N344 1.261 . S
N344 Co295 2.214 . S
N344 C342 1.325 . S
N344 C343 1.261 . S
C345 H315 0.931 . S
C345 C342 1.357 . S
C345 C346 1.312 . S
C346 H317 0.930 . S
C346 C341 1.261 . S
C346 C345 1.312 . S
C347 O319 1.214 . S
C347 O327 1.234 . S
C348 H320 0.929 . S
C348 C351 1.391 . S
C348 C353 1.391 . S
C349 H321 0.929 . S
C349 C350 1.390 . S
C349 N352 1.391 . S
C350 H322 0.930 . S
C350 C349 1.390 . S
C350 C351 1.392 . S
C351 H323 0.929 . S
C351 C348 1.391 . S
C351 C350 1.392 . S
N352 Co296 2.257 . S
N352 C349 1.391 . S
N352 C353 1.388 . S
C353 H324 0.930 . S
C353 C348 1.391 . S
C353 N352 1.388 . S
Co354 O356 2.143 . S
Co354 O362 2.074 . S
Co354 O365 2.093 . S
Co354 O378 2.097 . S
Co354 N395 2.151 . S
Co354 N403 2.214 . S
Co355 O356 2.160 . S
Co355 O361 2.058 . S
Co355 O371 2.057 . S
Co355 O386 2.037 . S
Co355 N390 2.145 . S
Co355 N411 2.257 . S
O356 Co354 2.143 . S
O356 Co355 2.160 . S
C357 O358 1.278 . S
C357 O365 1.224 . S
O358 C357 1.278 . S
C359 O360 1.245 . S
C359 O371 1.232 . S
O360 C359 1.245 . S
O361 Co355 2.058 . S
O361 C387 1.269 . S
O362 Co354 2.074 . S
O362 C387 1.257 . S
H363 C388 0.930 . S
H364 C394 0.930 . S
O365 Co354 2.093 . S
O365 C357 1.224 . S
H366 C398 0.929 . S
H367 C400 0.930 . S
H368 C401 0.930 . S
H369 C399 0.929 . S
H370 C402 0.928 . S
O371 Co355 2.057 . S
O371 C359 1.232 . S
H372 C391 0.929 . S
H373 C392 0.929 . S
H374 C404 0.931 . S
H375 C396 0.929 . S
H376 C405 0.930 . S
H377 C397 0.931 . S
O378 Co354 2.097 . S
O378 C406 1.214 . S
H379 C407 0.929 . S
H380 C408 0.929 . S
H381 C409 0.930 . S
H382 C410 0.929 . S
H383 C412 0.930 . S
H384 C389 0.930 . S
H385 C393 0.930 . S
O386 Co355 2.037 . S
O386 C406 1.234 . S
C387 O361 1.269 . S
C387 O362 1.257 . S
C388 H363 0.930 . S
C388 C391 1.388 . S
C388 C393 1.418 . S
C389 H384 0.930 . S
C389 C392 1.404 . S
C389 C393 1.353 . S
N390 Co355 2.145 . S
N390 C391 1.397 . S
N390 C392 1.334 . S
C391 H372 0.929 . S
C391 C388 1.388 . S
C391 N390 1.397 . S
C392 H373 0.929 . S
C392 C389 1.404 . S
C392 N390 1.334 . S
C393 H385 0.930 . S
C393 C388 1.418 . S
C393 C389 1.353 . S
C394 H364 0.930 . S
C394 N395 1.330 . S
C394 C396 1.446 . S
N395 Co354 2.151 . S
N395 C394 1.330 . S
N395 C399 1.418 . S
C396 H375 0.929 . S
C396 C394 1.446 . S
C396 C397 1.332 . S
C397 H377 0.931 . S
C397 C396 1.332 . S
C397 C398 1.267 . S
C398 H366 0.929 . S
C398 C397 1.267 . S
C398 C399 1.251 . S
C399 H369 0.929 . S
C399 N395 1.418 . S
C399 C398 1.251 . S
C400 H367 0.930 . S
C400 C402 1.406 . S
C400 C405 1.261 . S
C401 H368 0.930 . S
C401 N403 1.325 . S
C401 C404 1.357 . S
C402 H370 0.928 . S
C402 C400 1.406 . S
C402 N403 1.261 . S
N403 Co354 2.214 . S
N403 C401 1.325 . S
N403 C402 1.261 . S
C404 H374 0.931 . S
C404 C401 1.357 . S
C404 C405 1.312 . S
C405 H376 0.930 . S
C405 C400 1.261 . S
C405 C404 1.312 . S
C406 O378 1.214 . S
C406 O386 1.234 . S
C407 H379 0.929 . S
C407 C410 1.391 . S
C407 C412 1.391 . S
C408 H380 0.929 . S
C408 C409 1.390 . S
C408 N411 1.391 . S
C409 H381 0.930 . S
C409 C408 1.390 . S
C409 C410 1.392 . S
C410 H382 0.929 . S
C410 C407 1.391 . S
C410 C409 1.392 . S
N411 Co355 2.257 . S
N411 C408 1.391 . S
N411 C412 1.388 . S
C412 H383 0.930 . S
C412 C407 1.391 . S
C412 N411 1.388 . S
Co413 O415 2.143 . S
Co413 O421 2.074 . S
Co413 O424 2.093 . S
Co413 O437 2.097 . S
Co413 N454 2.151 . S
Co413 N462 2.214 . S
Co414 O415 2.160 . S
Co414 O420 2.058 . S
Co414 O430 2.057 . S
Co414 O445 2.037 . S
Co414 N449 2.145 . S
Co414 N470 2.257 . S
O415 Co413 2.143 . S
O415 Co414 2.160 . S
C416 O417 1.278 . S
C416 O424 1.224 . S
O417 C416 1.278 . S
C418 O419 1.245 . S
C418 O430 1.232 . S
O419 C418 1.245 . S
O420 Co414 2.058 . S
O420 C446 1.269 . S
O421 Co413 2.074 . S
O421 C446 1.257 . S
H422 C447 0.930 . S
H423 C453 0.930 . S
O424 Co413 2.093 . S
O424 C416 1.224 . S
H425 C457 0.929 . S
H426 C459 0.930 . S
H427 C460 0.930 . S
H428 C458 0.929 . S
H429 C461 0.928 . S
O430 Co414 2.057 . S
O430 C418 1.232 . S
H431 C450 0.929 . S
H432 C451 0.929 . S
H433 C463 0.931 . S
H434 C455 0.929 . S
H435 C464 0.930 . S
H436 C456 0.931 . S
O437 Co413 2.097 . S
O437 C465 1.214 . S
H438 C466 0.929 . S
H439 C467 0.929 . S
H440 C468 0.930 . S
H441 C469 0.929 . S
H442 C471 0.930 . S
H443 C448 0.930 . S
H444 C452 0.930 . S
O445 Co414 2.037 . S
O445 C465 1.234 . S
C446 O420 1.269 . S
C446 O421 1.257 . S
C447 H422 0.930 . S
C447 C450 1.388 1_455 S
C447 C452 1.418 . S
C448 H443 0.930 . S
C448 C451 1.404 . S
C448 C452 1.353 1_655 S
N449 Co414 2.145 . S
N449 C450 1.397 . S
N449 C451 1.334 . S
C450 H431 0.929 . S
C450 C447 1.388 1_655 S
C450 N449 1.397 . S
C451 H432 0.929 . S
C451 C448 1.404 . S
C451 N449 1.334 . S
C452 H444 0.930 . S
C452 C447 1.418 . S
C452 C448 1.353 1_455 S
C453 H423 0.930 . S
C453 N454 1.330 . S
C453 C455 1.446 . S
N454 Co413 2.151 . S
N454 C453 1.330 . S
N454 C458 1.418 . S
C455 H434 0.929 . S
C455 C453 1.446 . S
C455 C456 1.332 . S
C456 H436 0.931 . S
C456 C455 1.332 . S
C456 C457 1.267 . S
C457 H425 0.929 . S
C457 C456 1.267 . S
C457 C458 1.251 . S
C458 H428 0.929 . S
C458 N454 1.418 . S
C458 C457 1.251 . S
C459 H426 0.930 . S
C459 C461 1.406 . S
C459 C464 1.261 . S
C460 H427 0.930 . S
C460 N462 1.325 . S
C460 C463 1.357 . S
C461 H429 0.928 . S
C461 C459 1.406 . S
C461 N462 1.261 . S
N462 Co413 2.214 . S
N462 C460 1.325 . S
N462 C461 1.261 . S
C463 H433 0.931 . S
C463 C460 1.357 . S
C463 C464 1.312 . S
C464 H435 0.930 . S
C464 C459 1.261 . S
C464 C463 1.312 . S
C465 O437 1.214 . S
C465 O445 1.234 . S
C466 H438 0.929 . S
C466 C469 1.391 . S
C466 C471 1.391 . S
C467 H439 0.929 . S
C467 C468 1.390 . S
C467 N470 1.391 . S
C468 H440 0.930 . S
C468 C467 1.390 . S
C468 C469 1.392 . S
C469 H441 0.929 . S
C469 C466 1.391 . S
C469 C468 1.392 . S
N470 Co414 2.257 . S
N470 C467 1.391 . S
N470 C471 1.388 . S
C471 H442 0.930 . S
C471 C466 1.391 . S
C471 N470 1.388 . S
Co472 O474 2.143 . S
Co472 O480 2.074 . S
Co472 O483 2.093 . S
Co472 O496 2.097 . S
Co472 N513 2.151 . S
Co472 N521 2.214 . S
Co473 O474 2.160 . S
Co473 O479 2.058 . S
Co473 O489 2.057 . S
Co473 O504 2.037 . S
Co473 N508 2.145 . S
Co473 N529 2.257 . S
O474 Co472 2.143 . S
O474 Co473 2.160 . S
C475 O476 1.278 . S
C475 O483 1.224 . S
O476 C475 1.278 . S
C477 O478 1.245 . S
C477 O489 1.232 . S
O478 C477 1.245 . S
O479 Co473 2.058 . S
O479 C505 1.269 . S
O480 Co472 2.074 . S
O480 C505 1.257 . S
H481 C506 0.930 . S
H482 C512 0.930 . S
O483 Co472 2.093 . S
O483 C475 1.224 . S
H484 C516 0.929 . S
H485 C518 0.930 . S
H486 C519 0.930 . S
H487 C517 0.929 . S
H488 C520 0.928 . S
O489 Co473 2.057 . S
O489 C477 1.232 . S
H490 C509 0.929 . S
H491 C510 0.929 . S
H492 C522 0.931 . S
H493 C514 0.929 . S
H494 C523 0.930 . S
H495 C515 0.931 . S
O496 Co472 2.097 . S
O496 C524 1.214 . S
H497 C525 0.929 . S
H498 C526 0.929 . S
H499 C527 0.930 . S
H500 C528 0.929 . S
H501 C530 0.930 . S
H502 C507 0.930 . S
H503 C511 0.930 . S
O504 Co473 2.037 . S
O504 C524 1.234 . S
C505 O479 1.269 . S
C505 O480 1.257 . S
C506 H481 0.930 . S
C506 C509 1.388 1_545 S
C506 C511 1.418 . S
C507 H502 0.930 . S
C507 C510 1.404 . S
C507 C511 1.353 1_565 S
N508 Co473 2.145 . S
N508 C509 1.397 . S
N508 C510 1.334 . S
C509 H490 0.929 . S
C509 C506 1.388 1_565 S
C509 N508 1.397 . S
C510 H491 0.929 . S
C510 C507 1.404 . S
C510 N508 1.334 . S
C511 H503 0.930 . S
C511 C506 1.418 . S
C511 C507 1.353 1_545 S
C512 H482 0.930 . S
C512 N513 1.330 . S
C512 C514 1.446 . S
N513 Co472 2.151 . S
N513 C512 1.330 . S
N513 C517 1.418 . S
C514 H493 0.929 . S
C514 C512 1.446 . S
C514 C515 1.332 . S
C515 H495 0.931 . S
C515 C514 1.332 . S
C515 C516 1.267 . S
C516 H484 0.929 . S
C516 C515 1.267 . S
C516 C517 1.251 . S
C517 H487 0.929 . S
C517 N513 1.418 . S
C517 C516 1.251 . S
C518 H485 0.930 . S
C518 C520 1.406 . S
C518 C523 1.261 . S
C519 H486 0.930 . S
C519 N521 1.325 . S
C519 C522 1.357 . S
C520 H488 0.928 . S
C520 C518 1.406 . S
C520 N521 1.261 . S
N521 Co472 2.214 . S
N521 C519 1.325 . S
N521 C520 1.261 . S
C522 H492 0.931 . S
C522 C519 1.357 . S
C522 C523 1.312 . S
C523 H494 0.930 . S
C523 C518 1.261 . S
C523 C522 1.312 . S
C524 O496 1.214 . S
C524 O504 1.234 . S
C525 H497 0.929 . S
C525 C528 1.391 . S
C525 C530 1.391 . S
C526 H498 0.929 . S
C526 C527 1.390 . S
C526 N529 1.391 . S
C527 H499 0.930 . S
C527 C526 1.390 . S
C527 C528 1.392 . S
C528 H500 0.929 . S
C528 C525 1.391 . S
C528 C527 1.392 . S
N529 Co473 2.257 . S
N529 C526 1.391 . S
N529 C530 1.388 . S
C530 H501 0.930 . S
C530 C525 1.391 . S
C530 N529 1.388 . S
Co531 O533 2.143 . S
Co531 O539 2.074 . S
Co531 O542 2.093 . S
Co531 O555 2.097 . S
Co531 N572 2.151 . S
Co531 N580 2.214 . S
Co532 O533 2.160 . S
Co532 O538 2.058 . S
Co532 O548 2.057 . S
Co532 O563 2.037 . S
Co532 N567 2.145 . S
Co532 N588 2.257 . S
O533 Co531 2.143 . S
O533 Co532 2.160 . S
C534 O535 1.278 . S
C534 O542 1.224 . S
O535 C534 1.278 . S
C536 O537 1.245 . S
C536 O548 1.232 . S
O537 C536 1.245 . S
O538 Co532 2.058 . S
O538 C564 1.269 . S
O539 Co531 2.074 . S
O539 C564 1.257 . S
H540 C565 0.930 . S
H541 C571 0.930 . S
O542 Co531 2.093 . S
O542 C534 1.224 . S
H543 C575 0.929 . S
H544 C577 0.930 . S
H545 C578 0.930 . S
H546 C576 0.929 . S
H547 C579 0.928 . S
O548 Co532 2.057 . S
O548 C536 1.232 . S
H549 C568 0.929 . S
H550 C569 0.929 . S
H551 C581 0.931 . S
H552 C573 0.929 . S
H553 C582 0.930 . S
H554 C574 0.931 . S
O555 Co531 2.097 . S
O555 C583 1.214 . S
H556 C584 0.929 . S
H557 C585 0.929 . S
H558 C586 0.930 . S
H559 C587 0.929 . S
H560 C589 0.930 . S
H561 C566 0.930 . S
H562 C570 0.930 . S
O563 Co532 2.037 . S
O563 C583 1.234 . S
C564 O538 1.269 . S
C564 O539 1.257 . S
C565 H540 0.930 . S
C565 C568 1.388 . S
C565 C570 1.418 . S
C566 H561 0.930 . S
C566 C569 1.404 . S
C566 C570 1.353 . S
N567 Co532 2.145 . S
N567 C568 1.397 . S
N567 C569 1.334 . S
C568 H549 0.929 . S
C568 C565 1.388 . S
C568 N567 1.397 . S
C569 H550 0.929 . S
C569 C566 1.404 . S
C569 N567 1.334 . S
C570 H562 0.930 . S
C570 C565 1.418 . S
C570 C566 1.353 . S
C571 H541 0.930 . S
C571 N572 1.330 . S
C571 C573 1.446 . S
N572 Co531 2.151 . S
N572 C571 1.330 . S
N572 C576 1.418 . S
C573 H552 0.929 . S
C573 C571 1.446 . S
C573 C574 1.332 . S
C574 H554 0.931 . S
C574 C573 1.332 . S
C574 C575 1.267 . S
C575 H543 0.929 . S
C575 C574 1.267 . S
C575 C576 1.251 . S
C576 H546 0.929 . S
C576 N572 1.418 . S
C576 C575 1.251 . S
C577 H544 0.930 . S
C577 C579 1.406 . S
C577 C582 1.261 . S
C578 H545 0.930 . S
C578 N580 1.325 . S
C578 C581 1.357 . S
C579 H547 0.928 . S
C579 C577 1.406 . S
C579 N580 1.261 . S
N580 Co531 2.214 . S
N580 C578 1.325 . S
N580 C579 1.261 . S
C581 H551 0.931 . S
C581 C578 1.357 . S
C581 C582 1.312 . S
C582 H553 0.930 . S
C582 C577 1.261 . S
C582 C581 1.312 . S
C583 O555 1.214 . S
C583 O563 1.234 . S
C584 H556 0.929 . S
C584 C587 1.391 . S
C584 C589 1.391 . S
C585 H557 0.929 . S
C585 C586 1.390 . S
C585 N588 1.391 . S
C586 H558 0.930 . S
C586 C585 1.390 . S
C586 C587 1.392 . S
C587 H559 0.929 . S
C587 C584 1.391 . S
C587 C586 1.392 . S
N588 Co532 2.257 . S
N588 C585 1.391 . S
N588 C589 1.388 . S
C589 H560 0.930 . S
C589 C584 1.391 . S
C589 N588 1.388 . S
Co590 O592 2.143 . S
Co590 O598 2.074 . S
Co590 O601 2.093 . S
Co590 O614 2.097 . S
Co590 N631 2.151 . S
Co590 N639 2.214 . S
Co591 O592 2.160 . S
Co591 O597 2.058 . S
Co591 O607 2.057 . S
Co591 O622 2.037 . S
Co591 N626 2.145 . S
Co591 N647 2.257 . S
O592 Co590 2.143 . S
O592 Co591 2.160 . S
C593 O594 1.278 . S
C593 O601 1.224 . S
O594 C593 1.278 . S
C595 O596 1.245 . S
C595 O607 1.232 . S
O596 C595 1.245 . S
O597 Co591 2.058 . S
O597 C623 1.269 . S
O598 Co590 2.074 . S
O598 C623 1.257 . S
H599 C624 0.930 . S
H600 C630 0.930 . S
O601 Co590 2.093 . S
O601 C593 1.224 . S
H602 C634 0.929 . S
H603 C636 0.930 . S
H604 C637 0.930 . S
H605 C635 0.929 . S
H606 C638 0.928 . S
O607 Co591 2.057 . S
O607 C595 1.232 . S
H608 C627 0.929 . S
H609 C628 0.929 . S
H610 C640 0.931 . S
H611 C632 0.929 . S
H612 C641 0.930 . S
H613 C633 0.931 . S
O614 Co590 2.097 . S
O614 C642 1.214 . S
H615 C643 0.929 . S
H616 C644 0.929 . S
H617 C645 0.930 . S
H618 C646 0.929 . S
H619 C648 0.930 . S
H620 C625 0.930 . S
H621 C629 0.930 . S
O622 Co591 2.037 . S
O622 C642 1.234 . S
C623 O597 1.269 . S
C623 O598 1.257 . S
C624 H599 0.930 . S
C624 C627 1.388 1_655 S
C624 C629 1.418 . S
C625 H620 0.930 . S
C625 C628 1.404 . S
C625 C629 1.353 1_455 S
N626 Co591 2.145 . S
N626 C627 1.397 . S
N626 C628 1.334 . S
C627 H608 0.929 . S
C627 C624 1.388 1_455 S
C627 N626 1.397 . S
C628 H609 0.929 . S
C628 C625 1.404 . S
C628 N626 1.334 . S
C629 H621 0.930 . S
C629 C624 1.418 . S
C629 C625 1.353 1_655 S
C630 H600 0.930 . S
C630 N631 1.330 . S
C630 C632 1.446 . S
N631 Co590 2.151 . S
N631 C630 1.330 . S
N631 C635 1.418 . S
C632 H611 0.929 . S
C632 C630 1.446 . S
C632 C633 1.332 . S
C633 H613 0.931 . S
C633 C632 1.332 . S
C633 C634 1.267 . S
C634 H602 0.929 . S
C634 C633 1.267 . S
C634 C635 1.251 . S
C635 H605 0.929 . S
C635 N631 1.418 . S
C635 C634 1.251 . S
C636 H603 0.930 . S
C636 C638 1.406 . S
C636 C641 1.261 . S
C637 H604 0.930 . S
C637 N639 1.325 . S
C637 C640 1.357 . S
C638 H606 0.928 . S
C638 C636 1.406 . S
C638 N639 1.261 . S
N639 Co590 2.214 . S
N639 C637 1.325 . S
N639 C638 1.261 . S
C640 H610 0.931 . S
C640 C637 1.357 . S
C640 C641 1.312 . S
C641 H612 0.930 . S
C641 C636 1.261 . S
C641 C640 1.312 . S
C642 O614 1.214 . S
C642 O622 1.234 . S
C643 H615 0.929 . S
C643 C646 1.391 . S
C643 C648 1.391 . S
C644 H616 0.929 . S
C644 C645 1.390 . S
C644 N647 1.391 . S
C645 H617 0.930 . S
C645 C644 1.390 . S
C645 C646 1.392 . S
C646 H618 0.929 . S
C646 C643 1.391 . S
C646 C645 1.392 . S
N647 Co591 2.257 . S
N647 C644 1.391 . S
N647 C648 1.388 . S
C648 H619 0.930 . S
C648 C643 1.391 . S
C648 N647 1.388 . S
Co649 O651 2.143 . S
Co649 O657 2.074 . S
Co649 O660 2.093 . S
Co649 O673 2.097 . S
Co649 N690 2.151 . S
Co649 N698 2.214 . S
Co650 O651 2.160 . S
Co650 O656 2.058 . S
Co650 O666 2.057 . S
Co650 O681 2.037 . S
Co650 N685 2.145 . S
Co650 N706 2.257 . S
O651 Co649 2.143 . S
O651 Co650 2.160 . S
C652 O653 1.278 . S
C652 O660 1.224 . S
O653 C652 1.278 . S
C654 O655 1.245 . S
C654 O666 1.232 . S
O655 C654 1.245 . S
O656 Co650 2.058 . S
O656 C682 1.269 . S
O657 Co649 2.074 . S
O657 C682 1.257 . S
H658 C683 0.930 . S
H659 C689 0.930 . S
O660 Co649 2.093 . S
O660 C652 1.224 . S
H661 C693 0.929 . S
H662 C695 0.930 . S
H663 C696 0.930 . S
H664 C694 0.929 . S
H665 C697 0.928 . S
O666 Co650 2.057 . S
O666 C654 1.232 . S
H667 C686 0.929 . S
H668 C687 0.929 . S
H669 C699 0.931 . S
H670 C691 0.929 . S
H671 C700 0.930 . S
H672 C692 0.931 . S
O673 Co649 2.097 . S
O673 C701 1.214 . S
H674 C702 0.929 . S
H675 C703 0.929 . S
H676 C704 0.930 . S
H677 C705 0.929 . S
H678 C707 0.930 . S
H679 C684 0.930 . S
H680 C688 0.930 . S
O681 Co650 2.037 . S
O681 C701 1.234 . S
C682 O656 1.269 . S
C682 O657 1.257 . S
C683 H658 0.930 . S
C683 C686 1.388 1_565 S
C683 C688 1.418 . S
C684 H679 0.930 . S
C684 C687 1.404 . S
C684 C688 1.353 1_545 S
N685 Co650 2.145 . S
N685 C686 1.397 . S
N685 C687 1.334 . S
C686 H667 0.929 . S
C686 C683 1.388 1_545 S
C686 N685 1.397 . S
C687 H668 0.929 . S
C687 C684 1.404 . S
C687 N685 1.334 . S
C688 H680 0.930 . S
C688 C683 1.418 . S
C688 C684 1.353 1_565 S
C689 H659 0.930 . S
C689 N690 1.330 . S
C689 C691 1.446 . S
N690 Co649 2.151 . S
N690 C689 1.330 . S
N690 C694 1.418 . S
C691 H670 0.929 . S
C691 C689 1.446 . S
C691 C692 1.332 . S
C692 H672 0.931 . S
C692 C691 1.332 . S
C692 C693 1.267 . S
C693 H661 0.929 . S
C693 C692 1.267 . S
C693 C694 1.251 . S
C694 H664 0.929 . S
C694 N690 1.418 . S
C694 C693 1.251 . S
C695 H662 0.930 . S
C695 C697 1.406 . S
C695 C700 1.261 . S
C696 H663 0.930 . S
C696 N698 1.325 . S
C696 C699 1.357 . S
C697 H665 0.928 . S
C697 C695 1.406 . S
C697 N698 1.261 . S
N698 Co649 2.214 . S
N698 C696 1.325 . S
N698 C697 1.261 . S
C699 H669 0.931 . S
C699 C696 1.357 . S
C699 C700 1.312 . S
C700 H671 0.930 . S
C700 C695 1.261 . S
C700 C699 1.312 . S
C701 O673 1.214 . S
C701 O681 1.234 . S
C702 H674 0.929 . S
C702 C705 1.391 . S
C702 C707 1.391 . S
C703 H675 0.929 . S
C703 C704 1.390 . S
C703 N706 1.391 . S
C704 H676 0.930 . S
C704 C703 1.390 . S
C704 C705 1.392 . S
C705 H677 0.929 . S
C705 C702 1.391 . S
C705 C704 1.392 . S
N706 Co650 2.257 . S
N706 C703 1.391 . S
N706 C707 1.388 . S
C707 H678 0.930 . S
C707 C702 1.391 . S
C707 N706 1.388 . S
H708 C726 0.951 . S
H709 C728 0.951 . S
H710 C730 0.950 . S
H711 C731 0.950 . S
H712 C733 0.950 . S
H713 C736 0.950 . S
H714 C737 0.950 . S
H715 C739 0.950 . S
H716 C740 0.950 . S
H717 C741 0.951 . S
H718 C743 0.951 . S
H719 C745 0.950 . S
H720 C746 0.950 . S
H721 C748 0.950 . S
H722 C751 0.950 . S
H723 C752 0.950 . S
H724 C754 0.950 . S
H725 C755 0.950 . S
C726 H708 0.951 . S
C726 C727 1.366 . S
C726 C728 1.388 . S
C727 C726 1.366 . S
C727 C731 1.385 . S
C728 H709 0.951 . S
C728 C726 1.388 . S
C728 C729 1.366 . S
C729 C728 1.366 . S
C729 C730 1.414 . S
C729 C732 1.499 . S
C730 H710 0.950 . S
C730 C729 1.414 . S
C730 C731 1.374 . S
C731 H711 0.950 . S
C731 C727 1.385 . S
C731 C730 1.374 . S
C732 C729 1.499 . S
C732 C733 1.373 . S
C732 C734 1.389 . S
C733 H712 0.950 . S
C733 C732 1.373 . S
C733 C749 1.377 . S
C734 C732 1.389 . S
C734 C735 1.524 . S
C734 C748 1.377 . S
C735 C734 1.524 . S
C735 C736 1.397 . S
C735 C740 1.363 . S
C736 H713 0.950 . S
C736 C735 1.397 . S
C736 C737 1.334 . S
C737 H714 0.950 . S
C737 C736 1.334 . S
C737 C738 1.287 . S
C738 C737 1.287 . S
C738 C739 1.524 . S
C738 H757 0.913 . S
C739 H715 0.950 . S
C739 C738 1.524 . S
C739 C740 1.415 . S
C740 H716 0.950 . S
C740 C735 1.363 . S
C740 C739 1.415 . S
C741 H717 0.951 . S
C741 C742 1.366 . S
C741 C743 1.388 . S
C742 C741 1.366 . S
C742 C746 1.385 . S
C743 H718 0.951 . S
C743 C741 1.388 . S
C743 C744 1.366 . S
C744 C743 1.366 . S
C744 C745 1.414 . S
C744 C747 1.499 . S
C745 H719 0.950 . S
C745 C744 1.414 . S
C745 C746 1.374 . S
C746 H720 0.950 . S
C746 C742 1.385 . S
C746 C745 1.374 . S
C747 C744 1.499 . S
C747 C748 1.373 . S
C747 C749 1.389 . S
C748 H721 0.950 . S
C748 C734 1.377 . S
C748 C747 1.373 . S
C749 C733 1.377 . S
C749 C747 1.389 . S
C749 C750 1.524 . S
C750 C749 1.524 . S
C750 C751 1.397 . S
C750 C755 1.363 . S
C751 H722 0.950 . S
C751 C750 1.397 . S
C751 C752 1.334 . S
C752 H723 0.950 . S
C752 C751 1.334 . S
C752 C753 1.287 . S
C753 C752 1.287 . S
C753 C754 1.524 . S
C753 H756 0.999 . S
C754 H724 0.950 . S
C754 C753 1.524 . S
C754 C755 1.415 . S
C755 H725 0.950 . S
C755 C750 1.363 . S
C755 C754 1.415 . S
H756 C753 0.999 . S
H757 C738 0.913 . S
H758 C776 0.951 . S
H759 C778 0.951 . S
H760 C780 0.950 . S
H761 C781 0.950 . S
H762 C783 0.950 . S
H763 C786 0.950 . S
H764 C787 0.950 . S
H765 C789 0.950 . S
H766 C790 0.950 . S
H767 C791 0.951 . S
H768 C793 0.951 . S
H769 C795 0.950 . S
H770 C796 0.950 . S
H771 C798 0.950 . S
H772 C801 0.950 . S
H773 C802 0.950 . S
H774 C804 0.950 . S
H775 C805 0.950 . S
C776 H758 0.951 . S
C776 C777 1.366 . S
C776 C778 1.388 . S
C777 C776 1.366 . S
C777 C781 1.385 . S
C778 H759 0.951 . S
C778 C776 1.388 . S
C778 C779 1.366 . S
C779 C778 1.366 . S
C779 C780 1.414 . S
C779 C782 1.499 . S
C780 H760 0.950 . S
C780 C779 1.414 . S
C780 C781 1.374 . S
C781 H761 0.950 . S
C781 C777 1.385 . S
C781 C780 1.374 . S
C782 C779 1.499 . S
C782 C783 1.373 . S
C782 C784 1.389 . S
C783 H762 0.950 . S
C783 C782 1.373 . S
C783 C799 1.377 . S
C784 C782 1.389 . S
C784 C785 1.524 . S
C784 C798 1.377 . S
C785 C784 1.524 . S
C785 C786 1.397 . S
C785 C790 1.363 . S
C786 H763 0.950 . S
C786 C785 1.397 . S
C786 C787 1.334 . S
C787 H764 0.950 . S
C787 C786 1.334 . S
C787 C788 1.287 . S
C788 C787 1.287 . S
C788 C789 1.524 . S
C788 H807 0.913 . S
C789 H765 0.950 . S
C789 C788 1.524 . S
C789 C790 1.415 . S
C790 H766 0.950 . S
C790 C785 1.363 . S
C790 C789 1.415 . S
C791 H767 0.951 . S
C791 C792 1.366 . S
C791 C793 1.388 . S
C792 C791 1.366 . S
C792 C796 1.385 . S
C793 H768 0.951 . S
C793 C791 1.388 . S
C793 C794 1.366 . S
C794 C793 1.366 . S
C794 C795 1.414 . S
C794 C797 1.499 . S
C795 H769 0.950 . S
C795 C794 1.414 . S
C795 C796 1.374 . S
C796 H770 0.950 . S
C796 C792 1.385 . S
C796 C795 1.374 . S
C797 C794 1.499 . S
C797 C798 1.373 . S
C797 C799 1.389 . S
C798 H771 0.950 . S
C798 C784 1.377 . S
C798 C797 1.373 . S
C799 C783 1.377 . S
C799 C797 1.389 . S
C799 C800 1.524 . S
C800 C799 1.524 . S
C800 C801 1.397 . S
C800 C805 1.363 . S
C801 H772 0.950 . S
C801 C800 1.397 . S
C801 C802 1.334 . S
C802 H773 0.950 . S
C802 C801 1.334 . S
C802 C803 1.287 . S
C803 C802 1.287 . S
C803 C804 1.524 . S
C803 H806 0.999 . S
C804 H774 0.950 . S
C804 C803 1.524 . S
C804 C805 1.415 . S
C805 H775 0.950 . S
C805 C800 1.363 . S
C805 C804 1.415 . S
H806 C803 0.999 . S
H807 C788 0.913 . S
H808 C826 0.951 . S
H809 C828 0.951 . S
H810 C830 0.950 . S
H811 C831 0.950 . S
H812 C833 0.950 . S
H813 C836 0.950 . S
H814 C837 0.950 . S
H815 C839 0.950 . S
H816 C840 0.950 . S
H817 C841 0.951 . S
H818 C843 0.951 . S
H819 C845 0.950 . S
H820 C846 0.950 . S
H821 C848 0.950 . S
H822 C851 0.950 . S
H823 C852 0.950 . S
H824 C854 0.950 . S
H825 C855 0.950 . S
C826 H808 0.951 . S
C826 C827 1.366 . S
C826 C828 1.388 . S
C827 C826 1.366 . S
C827 C831 1.385 . S
C828 H809 0.951 . S
C828 C826 1.388 . S
C828 C829 1.366 . S
C829 C828 1.366 . S
C829 C830 1.414 . S
C829 C832 1.499 . S
C830 H810 0.950 . S
C830 C829 1.414 . S
C830 C831 1.374 . S
C831 H811 0.950 . S
C831 C827 1.385 . S
C831 C830 1.374 . S
C832 C829 1.499 . S
C832 C833 1.373 . S
C832 C834 1.389 . S
C833 H812 0.950 . S
C833 C832 1.373 . S
C833 C849 1.377 . S
C834 C832 1.389 . S
C834 C835 1.524 . S
C834 C848 1.377 . S
C835 C834 1.524 . S
C835 C836 1.397 . S
C835 C840 1.363 . S
C836 H813 0.950 . S
C836 C835 1.397 . S
C836 C837 1.334 . S
C837 H814 0.950 . S
C837 C836 1.334 . S
C837 C838 1.287 . S
C838 C837 1.287 . S
C838 C839 1.524 . S
C838 H857 0.913 . S
C839 H815 0.950 . S
C839 C838 1.524 . S
C839 C840 1.415 . S
C840 H816 0.950 . S
C840 C835 1.363 . S
C840 C839 1.415 . S
C841 H817 0.951 . S
C841 C842 1.366 . S
C841 C843 1.388 . S
C842 C841 1.366 . S
C842 C846 1.385 . S
C843 H818 0.951 . S
C843 C841 1.388 . S
C843 C844 1.366 . S
C844 C843 1.366 . S
C844 C845 1.414 . S
C844 C847 1.499 . S
C845 H819 0.950 . S
C845 C844 1.414 . S
C845 C846 1.374 . S
C846 H820 0.950 . S
C846 C842 1.385 . S
C846 C845 1.374 . S
C847 C844 1.499 . S
C847 C848 1.373 . S
C847 C849 1.389 . S
C848 H821 0.950 . S
C848 C834 1.377 . S
C848 C847 1.373 . S
C849 C833 1.377 . S
C849 C847 1.389 . S
C849 C850 1.524 . S
C850 C849 1.524 . S
C850 C851 1.397 . S
C850 C855 1.363 . S
C851 H822 0.950 . S
C851 C850 1.397 . S
C851 C852 1.334 . S
C852 H823 0.950 . S
C852 C851 1.334 . S
C852 C853 1.287 . S
C853 C852 1.287 . S
C853 C854 1.524 . S
C853 H856 0.999 . S
C854 H824 0.950 . S
C854 C853 1.524 . S
C854 C855 1.415 . S
C855 H825 0.950 . S
C855 C850 1.363 . S
C855 C854 1.415 . S
H856 C853 0.999 . S
H857 C838 0.913 . S
H858 C876 0.951 . S
H859 C878 0.951 . S
H860 C880 0.950 . S
H861 C881 0.950 . S
H862 C883 0.950 . S
H863 C886 0.950 . S
H864 C887 0.950 . S
H865 C889 0.950 . S
H866 C890 0.950 . S
H867 C891 0.951 . S
H868 C893 0.951 . S
H869 C895 0.950 . S
H870 C896 0.950 . S
H871 C898 0.950 . S
H872 C901 0.950 . S
H873 C902 0.950 . S
H874 C904 0.950 . S
H875 C905 0.950 . S
C876 H858 0.951 . S
C876 C877 1.366 . S
C876 C878 1.388 . S
C877 C876 1.366 . S
C877 C881 1.385 . S
C878 H859 0.951 . S
C878 C876 1.388 . S
C878 C879 1.366 . S
C879 C878 1.366 . S
C879 C880 1.414 . S
C879 C882 1.499 . S
C880 H860 0.950 . S
C880 C879 1.414 . S
C880 C881 1.374 . S
C881 H861 0.950 . S
C881 C877 1.385 . S
C881 C880 1.374 . S
C882 C879 1.499 . S
C882 C883 1.373 . S
C882 C884 1.389 . S
C883 H862 0.950 . S
C883 C882 1.373 . S
C883 C899 1.377 . S
C884 C882 1.389 . S
C884 C885 1.524 . S
C884 C898 1.377 . S
C885 C884 1.524 . S
C885 C886 1.397 . S
C885 C890 1.363 . S
C886 H863 0.950 . S
C886 C885 1.397 . S
C886 C887 1.334 . S
C887 H864 0.950 . S
C887 C886 1.334 . S
C887 C888 1.287 . S
C888 C887 1.287 . S
C888 C889 1.524 . S
C888 H907 0.913 . S
C889 H865 0.950 . S
C889 C888 1.524 . S
C889 C890 1.415 . S
C890 H866 0.950 . S
C890 C885 1.363 . S
C890 C889 1.415 . S
C891 H867 0.951 . S
C891 C892 1.366 . S
C891 C893 1.388 . S
C892 C891 1.366 . S
C892 C896 1.385 . S
C893 H868 0.951 . S
C893 C891 1.388 . S
C893 C894 1.366 . S
C894 C893 1.366 . S
C894 C895 1.414 . S
C894 C897 1.499 . S
C895 H869 0.950 . S
C895 C894 1.414 . S
C895 C896 1.374 . S
C896 H870 0.950 . S
C896 C892 1.385 . S
C896 C895 1.374 . S
C897 C894 1.499 . S
C897 C898 1.373 . S
C897 C899 1.389 . S
C898 H871 0.950 . S
C898 C884 1.377 . S
C898 C897 1.373 . S
C899 C883 1.377 . S
C899 C897 1.389 . S
C899 C900 1.524 . S
C900 C899 1.524 . S
C900 C901 1.397 . S
C900 C905 1.363 . S
C901 H872 0.950 . S
C901 C900 1.397 . S
C901 C902 1.334 . S
C902 H873 0.950 . S
C902 C901 1.334 . S
C902 C903 1.287 . S
C903 C902 1.287 . S
C903 C904 1.524 . S
C903 H906 0.999 . S
C904 H874 0.950 . S
C904 C903 1.524 . S
C904 C905 1.415 . S
C905 H875 0.950 . S
C905 C900 1.363 . S
C905 C904 1.415 . S
H906 C903 0.999 . S
H907 C888 0.913 . S
H908 C926 0.951 . S
H909 C928 0.951 . S
H910 C930 0.950 . S
H911 C931 0.950 . S
H912 C933 0.950 . S
H913 C936 0.950 . S
H914 C937 0.950 . S
H915 C939 0.950 . S
H916 C940 0.950 . S
H917 C941 0.951 . S
H918 C943 0.951 . S
H919 C945 0.950 . S
H920 C946 0.950 . S
H921 C948 0.950 . S
H922 C951 0.950 . S
H923 C952 0.950 . S
H924 C954 0.950 . S
H925 C955 0.950 . S
C926 H908 0.951 . S
C926 C927 1.366 . S
C926 C928 1.388 . S
C927 C926 1.366 . S
C927 C931 1.385 . S
C928 H909 0.951 . S
C928 C926 1.388 . S
C928 C929 1.366 . S
C929 C928 1.366 . S
C929 C930 1.414 . S
C929 C932 1.499 . S
C930 H910 0.950 . S
C930 C929 1.414 . S
C930 C931 1.374 . S
C931 H911 0.950 . S
C931 C927 1.385 . S
C931 C930 1.374 . S
C932 C929 1.499 . S
C932 C933 1.373 . S
C932 C934 1.389 . S
C933 H912 0.950 . S
C933 C932 1.373 . S
C933 C949 1.377 . S
C934 C932 1.389 . S
C934 C935 1.524 . S
C934 C948 1.377 . S
C935 C934 1.524 . S
C935 C936 1.397 . S
C935 C940 1.363 . S
C936 H913 0.950 . S
C936 C935 1.397 . S
C936 C937 1.334 . S
C937 H914 0.950 . S
C937 C936 1.334 . S
C937 C938 1.287 . S
C938 C937 1.287 . S
C938 C939 1.524 . S
C938 H957 0.913 . S
C939 H915 0.950 . S
C939 C938 1.524 . S
C939 C940 1.415 . S
C940 H916 0.950 . S
C940 C935 1.363 . S
C940 C939 1.415 . S
C941 H917 0.951 . S
C941 C942 1.366 . S
C941 C943 1.388 . S
C942 C941 1.366 . S
C942 C946 1.385 . S
C943 H918 0.951 . S
C943 C941 1.388 . S
C943 C944 1.366 . S
C944 C943 1.366 . S
C944 C945 1.414 . S
C944 C947 1.499 . S
C945 H919 0.950 . S
C945 C944 1.414 . S
C945 C946 1.374 . S
C946 H920 0.950 . S
C946 C942 1.385 . S
C946 C945 1.374 . S
C947 C944 1.499 . S
C947 C948 1.373 . S
C947 C949 1.389 . S
C948 H921 0.950 . S
C948 C934 1.377 . S
C948 C947 1.373 . S
C949 C933 1.377 . S
C949 C947 1.389 . S
C949 C950 1.524 . S
C950 C949 1.524 . S
C950 C951 1.397 . S
C950 C955 1.363 . S
C951 H922 0.950 . S
C951 C950 1.397 . S
C951 C952 1.334 . S
C952 H923 0.950 . S
C952 C951 1.334 . S
C952 C953 1.287 . S
C953 C952 1.287 . S
C953 C954 1.524 . S
C953 H956 0.999 . S
C954 H924 0.950 . S
C954 C953 1.524 . S
C954 C955 1.415 . S
C955 H925 0.950 . S
C955 C950 1.363 . S
C955 C954 1.415 . S
H956 C953 0.999 . S
H957 C938 0.913 . S
H958 C976 0.951 . S
H959 C978 0.951 . S
H960 C980 0.950 . S
H961 C981 0.950 . S
H962 C983 0.950 . S
H963 C986 0.950 . S
H964 C987 0.950 . S
H965 C989 0.950 . S
H966 C990 0.950 . S
H967 C991 0.951 . S
H968 C993 0.951 . S
H969 C995 0.950 . S
H970 C996 0.950 . S
H971 C998 0.950 . S
H972 C1001 0.950 . S
H973 C1002 0.950 . S
H974 C1004 0.950 . S
H975 C1005 0.950 . S
C976 H958 0.951 . S
C976 C977 1.366 . S
C976 C978 1.388 . S
C977 C976 1.366 . S
C977 C981 1.385 . S
C978 H959 0.951 . S
C978 C976 1.388 . S
C978 C979 1.366 . S
C979 C978 1.366 . S
C979 C980 1.414 . S
C979 C982 1.499 . S
C980 H960 0.950 . S
C980 C979 1.414 . S
C980 C981 1.374 . S
C981 H961 0.950 . S
C981 C977 1.385 . S
C981 C980 1.374 . S
C982 C979 1.499 . S
C982 C983 1.373 . S
C982 C984 1.389 . S
C983 H962 0.950 . S
C983 C982 1.373 . S
C983 C999 1.377 . S
C984 C982 1.389 . S
C984 C985 1.524 . S
C984 C998 1.377 . S
C985 C984 1.524 . S
C985 C986 1.397 . S
C985 C990 1.363 . S
C986 H963 0.950 . S
C986 C985 1.397 . S
C986 C987 1.334 . S
C987 H964 0.950 . S
C987 C986 1.334 . S
C987 C988 1.287 . S
C988 C987 1.287 . S
C988 C989 1.524 . S
C988 H1007 0.913 . S
C989 H965 0.950 . S
C989 C988 1.524 . S
C989 C990 1.415 . S
C990 H966 0.950 . S
C990 C985 1.363 . S
C990 C989 1.415 . S
C991 H967 0.951 . S
C991 C992 1.366 . S
C991 C993 1.388 . S
C992 C991 1.366 . S
C992 C996 1.385 . S
C993 H968 0.951 . S
C993 C991 1.388 . S
C993 C994 1.366 . S
C994 C993 1.366 . S
C994 C995 1.414 . S
C994 C997 1.499 . S
C995 H969 0.950 . S
C995 C994 1.414 . S
C995 C996 1.374 . S
C996 H970 0.950 . S
C996 C992 1.385 . S
C996 C995 1.374 . S
C997 C994 1.499 . S
C997 C998 1.373 . S
C997 C999 1.389 . S
C998 H971 0.950 . S
C998 C984 1.377 . S
C998 C997 1.373 . S
C999 C983 1.377 . S
C999 C997 1.389 . S
C999 C1000 1.524 . S
C1000 C999 1.524 . S
C1000 C1001 1.397 . S
C1000 C1005 1.363 . S
C1001 H972 0.950 . S
C1001 C1000 1.397 . S
C1001 C1002 1.334 . S
C1002 H973 0.950 . S
C1002 C1001 1.334 . S
C1002 C1003 1.287 . S
C1003 C1002 1.287 . S
C1003 C1004 1.524 . S
C1003 H1006 0.999 . S
C1004 H974 0.950 . S
C1004 C1003 1.524 . S
C1004 C1005 1.415 . S
C1005 H975 0.950 . S
C1005 C1000 1.363 . S
C1005 C1004 1.415 . S
H1006 C1003 0.999 . S
H1007 C988 0.913 . S
H1008 C1026 0.951 . S
H1009 C1028 0.951 . S
H1010 C1030 0.950 . S
H1011 C1031 0.950 . S
H1012 C1033 0.950 . S
H1013 C1036 0.950 . S
H1014 C1037 0.950 . S
H1015 C1039 0.950 . S
H1016 C1040 0.950 . S
H1017 C1041 0.951 . S
H1018 C1043 0.951 . S
H1019 C1045 0.950 . S
H1020 C1046 0.950 . S
H1021 C1048 0.950 . S
H1022 C1051 0.950 . S
H1023 C1052 0.950 . S
H1024 C1054 0.950 . S
H1025 C1055 0.950 . S
C1026 H1008 0.951 . S
C1026 C1027 1.366 . S
C1026 C1028 1.388 . S
C1027 C1026 1.366 . S
C1027 C1031 1.385 . S
C1028 H1009 0.951 . S
C1028 C1026 1.388 . S
C1028 C1029 1.366 . S
C1029 C1028 1.366 . S
C1029 C1030 1.414 . S
C1029 C1032 1.499 . S
C1030 H1010 0.950 . S
C1030 C1029 1.414 . S
C1030 C1031 1.374 . S
C1031 H1011 0.950 . S
C1031 C1027 1.385 . S
C1031 C1030 1.374 . S
C1032 C1029 1.499 . S
C1032 C1033 1.373 . S
C1032 C1034 1.389 . S
C1033 H1012 0.950 . S
C1033 C1032 1.373 . S
C1033 C1049 1.377 . S
C1034 C1032 1.389 . S
C1034 C1035 1.524 . S
C1034 C1048 1.377 . S
C1035 C1034 1.524 . S
C1035 C1036 1.397 . S
C1035 C1040 1.363 . S
C1036 H1013 0.950 . S
C1036 C1035 1.397 . S
C1036 C1037 1.334 . S
C1037 H1014 0.950 . S
C1037 C1036 1.334 . S
C1037 C1038 1.287 . S
C1038 C1037 1.287 . S
C1038 C1039 1.524 . S
C1038 H1057 0.913 . S
C1039 H1015 0.950 . S
C1039 C1038 1.524 . S
C1039 C1040 1.415 . S
C1040 H1016 0.950 . S
C1040 C1035 1.363 . S
C1040 C1039 1.415 . S
C1041 H1017 0.951 . S
C1041 C1042 1.366 . S
C1041 C1043 1.388 . S
C1042 C1041 1.366 . S
C1042 C1046 1.385 . S
C1043 H1018 0.951 . S
C1043 C1041 1.388 . S
C1043 C1044 1.366 . S
C1044 C1043 1.366 . S
C1044 C1045 1.414 . S
C1044 C1047 1.499 . S
C1045 H1019 0.950 . S
C1045 C1044 1.414 . S
C1045 C1046 1.374 . S
C1046 H1020 0.950 . S
C1046 C1042 1.385 . S
C1046 C1045 1.374 . S
C1047 C1044 1.499 . S
C1047 C1048 1.373 . S
C1047 C1049 1.389 . S
C1048 H1021 0.950 . S
C1048 C1034 1.377 . S
C1048 C1047 1.373 . S
C1049 C1033 1.377 . S
C1049 C1047 1.389 . S
C1049 C1050 1.524 . S
C1050 C1049 1.524 . S
C1050 C1051 1.397 . S
C1050 C1055 1.363 . S
C1051 H1022 0.950 . S
C1051 C1050 1.397 . S
C1051 C1052 1.334 . S
C1052 H1023 0.950 . S
C1052 C1051 1.334 . S
C1052 C1053 1.287 . S
C1053 C1052 1.287 . S
C1053 C1054 1.524 . S
C1053 H1056 0.999 . S
C1054 H1024 0.950 . S
C1054 C1053 1.524 . S
C1054 C1055 1.415 . S
C1055 H1025 0.950 . S
C1055 C1050 1.363 . S
C1055 C1054 1.415 . S
H1056 C1053 0.999 . S
H1057 C1038 0.913 . S
H1058 C1076 0.951 . S
H1059 C1078 0.951 . S
H1060 C1080 0.950 1_655 S
H1061 C1081 0.950 . S
H1062 C1083 0.950 . S
H1063 C1086 0.950 . S
H1064 C1087 0.950 . S
H1065 C1089 0.950 . S
H1066 C1090 0.950 . S
H1067 C1091 0.951 . S
H1068 C1093 0.951 . S
H1069 C1095 0.950 1_455 S
H1070 C1096 0.950 . S
H1071 C1098 0.950 . S
H1072 C1101 0.950 . S
H1073 C1102 0.950 . S
H1074 C1104 0.950 . S
H1075 C1105 0.950 . S
C1076 H1058 0.951 . S
C1076 C1077 1.366 . S
C1076 C1078 1.388 . S
C1077 C1076 1.366 . S
C1077 C1081 1.385 . S
C1078 H1059 0.951 . S
C1078 C1076 1.388 . S
C1078 C1079 1.366 . S
C1079 C1078 1.366 . S
C1079 C1080 1.414 . S
C1079 C1082 1.499 . S
C1080 H1060 0.950 1_455 S
C1080 C1079 1.414 . S
C1080 C1081 1.374 . S
C1081 H1061 0.950 . S
C1081 C1077 1.385 . S
C1081 C1080 1.374 . S
C1082 C1079 1.499 . S
C1082 C1083 1.373 1_455 S
C1082 C1084 1.389 . S
C1083 H1062 0.950 . S
C1083 C1082 1.373 1_655 S
C1083 C1099 1.377 . S
C1084 C1082 1.389 . S
C1084 C1085 1.524 . S
C1084 C1098 1.377 . S
C1085 C1084 1.524 . S
C1085 C1086 1.397 . S
C1085 C1090 1.363 . S
C1086 H1063 0.950 . S
C1086 C1085 1.397 . S
C1086 C1087 1.334 . S
C1087 H1064 0.950 . S
C1087 C1086 1.334 . S
C1087 C1088 1.287 . S
C1088 C1087 1.287 . S
C1088 C1089 1.524 . S
C1088 H1107 0.913 . S
C1089 H1065 0.950 . S
C1089 C1088 1.524 . S
C1089 C1090 1.415 . S
C1090 H1066 0.950 . S
C1090 C1085 1.363 . S
C1090 C1089 1.415 . S
C1091 H1067 0.951 . S
C1091 C1092 1.366 . S
C1091 C1093 1.388 . S
C1092 C1091 1.366 . S
C1092 C1096 1.385 . S
C1093 H1068 0.951 . S
C1093 C1091 1.388 . S
C1093 C1094 1.366 . S
C1094 C1093 1.366 . S
C1094 C1095 1.414 . S
C1094 C1097 1.499 . S
C1095 H1069 0.950 1_655 S
C1095 C1094 1.414 . S
C1095 C1096 1.374 . S
C1096 H1070 0.950 . S
C1096 C1092 1.385 . S
C1096 C1095 1.374 . S
C1097 C1094 1.499 . S
C1097 C1098 1.373 1_655 S
C1097 C1099 1.389 . S
C1098 H1071 0.950 . S
C1098 C1084 1.377 . S
C1098 C1097 1.373 1_455 S
C1099 C1083 1.377 . S
C1099 C1097 1.389 . S
C1099 C1100 1.524 . S
C1100 C1099 1.524 . S
C1100 C1101 1.397 . S
C1100 C1105 1.363 . S
C1101 H1072 0.950 . S
C1101 C1100 1.397 . S
C1101 C1102 1.334 . S
C1102 H1073 0.950 . S
C1102 C1101 1.334 . S
C1102 C1103 1.287 . S
C1103 C1102 1.287 . S
C1103 C1104 1.524 . S
C1103 H1106 0.999 . S
C1104 H1074 0.950 . S
C1104 C1103 1.524 . S
C1104 C1105 1.415 . S
C1105 H1075 0.950 . S
C1105 C1100 1.363 . S
C1105 C1104 1.415 . S
H1106 C1103 0.999 . S
H1107 C1088 0.913 . S
H1108 C1126 0.951 . S
H1109 C1128 0.951 1_565 S
H1110 C1130 0.950 . S
H1111 C1131 0.950 . S
H1112 C1133 0.950 . S
H1113 C1136 0.950 1_545 S
H1114 C1137 0.950 1_545 S
H1115 C1139 0.950 . S
H1116 C1140 0.950 . S
H1117 C1141 0.951 . S
H1118 C1143 0.951 1_545 S
H1119 C1145 0.950 . S
H1120 C1146 0.950 . S
H1121 C1148 0.950 . S
H1122 C1151 0.950 1_565 S
H1123 C1152 0.950 1_565 S
H1124 C1154 0.950 . S
H1125 C1155 0.950 . S
C1126 H1108 0.951 . S
C1126 C1127 1.366 . S
C1126 C1128 1.388 . S
C1127 C1126 1.366 . S
C1127 C1131 1.385 . S
C1128 H1109 0.951 1_545 S
C1128 C1126 1.388 . S
C1128 C1129 1.366 . S
C1129 C1128 1.366 . S
C1129 C1130 1.414 . S
C1129 C1132 1.499 . S
C1130 H1110 0.950 . S
C1130 C1129 1.414 . S
C1130 C1131 1.374 . S
C1131 H1111 0.950 . S
C1131 C1127 1.385 . S
C1131 C1130 1.374 . S
C1132 C1129 1.499 . S
C1132 C1133 1.373 . S
C1132 C1134 1.389 1_545 S
C1133 H1112 0.950 . S
C1133 C1132 1.373 . S
C1133 C1149 1.377 . S
C1134 C1132 1.389 1_565 S
C1134 C1135 1.524 . S
C1134 C1148 1.377 . S
C1135 C1134 1.524 . S
C1135 C1136 1.397 . S
C1135 C1140 1.363 . S
C1136 H1113 0.950 1_565 S
C1136 C1135 1.397 . S
C1136 C1137 1.334 . S
C1137 H1114 0.950 1_565 S
C1137 C1136 1.334 . S
C1137 C1138 1.287 . S
C1138 C1137 1.287 . S
C1138 C1139 1.524 . S
C1138 H1157 0.913 . S
C1139 H1115 0.950 . S
C1139 C1138 1.524 . S
C1139 C1140 1.415 . S
C1140 H1116 0.950 . S
C1140 C1135 1.363 . S
C1140 C1139 1.415 . S
C1141 H1117 0.951 . S
C1141 C1142 1.366 . S
C1141 C1143 1.388 . S
C1142 C1141 1.366 . S
C1142 C1146 1.385 . S
C1143 H1118 0.951 1_565 S
C1143 C1141 1.388 . S
C1143 C1144 1.366 . S
C1144 C1143 1.366 . S
C1144 C1145 1.414 . S
C1144 C1147 1.499 . S
C1145 H1119 0.950 . S
C1145 C1144 1.414 . S
C1145 C1146 1.374 . S
C1146 H1120 0.950 . S
C1146 C1142 1.385 . S
C1146 C1145 1.374 . S
C1147 C1144 1.499 . S
C1147 C1148 1.373 . S
C1147 C1149 1.389 1_565 S
C1148 H1121 0.950 . S
C1148 C1134 1.377 . S
C1148 C1147 1.373 . S
C1149 C1133 1.377 . S
C1149 C1147 1.389 1_545 S
C1149 C1150 1.524 . S
C1150 C1149 1.524 . S
C1150 C1151 1.397 . S
C1150 C1155 1.363 . S
C1151 H1122 0.950 1_545 S
C1151 C1150 1.397 . S
C1151 C1152 1.334 . S
C1152 H1123 0.950 1_545 S
C1152 C1151 1.334 . S
C1152 C1153 1.287 . S
C1153 C1152 1.287 . S
C1153 C1154 1.524 . S
C1153 H1156 0.999 . S
C1154 H1124 0.950 . S
C1154 C1153 1.524 . S
C1154 C1155 1.415 . S
C1155 H1125 0.950 . S
C1155 C1150 1.363 . S
C1155 C1154 1.415 . S
H1156 C1153 0.999 . S
H1157 C1138 0.913 . S
H1158 C1176 0.951 . S
H1159 C1178 0.951 . S
H1160 C1180 0.950 . S
H1161 C1181 0.950 . S
H1162 C1183 0.950 . S
H1163 C1186 0.950 . S
H1164 C1187 0.950 . S
H1165 C1189 0.950 . S
H1166 C1190 0.950 . S
H1167 C1191 0.951 . S
H1168 C1193 0.951 . S
H1169 C1195 0.950 . S
H1170 C1196 0.950 . S
H1171 C1198 0.950 . S
H1172 C1201 0.950 . S
H1173 C1202 0.950 . S
H1174 C1204 0.950 . S
H1175 C1205 0.950 . S
C1176 H1158 0.951 . S
C1176 C1177 1.366 . S
C1176 C1178 1.388 . S
C1177 C1176 1.366 . S
C1177 C1181 1.385 . S
C1178 H1159 0.951 . S
C1178 C1176 1.388 . S
C1178 C1179 1.366 . S
C1179 C1178 1.366 . S
C1179 C1180 1.414 . S
C1179 C1182 1.499 . S
C1180 H1160 0.950 . S
C1180 C1179 1.414 . S
C1180 C1181 1.374 . S
C1181 H1161 0.950 . S
C1181 C1177 1.385 . S
C1181 C1180 1.374 . S
C1182 C1179 1.499 . S
C1182 C1183 1.373 . S
C1182 C1184 1.389 . S
C1183 H1162 0.950 . S
C1183 C1182 1.373 . S
C1183 C1199 1.377 . S
C1184 C1182 1.389 . S
C1184 C1185 1.524 . S
C1184 C1198 1.377 . S
C1185 C1184 1.524 . S
C1185 C1186 1.397 . S
C1185 C1190 1.363 . S
C1186 H1163 0.950 . S
C1186 C1185 1.397 . S
C1186 C1187 1.334 . S
C1187 H1164 0.950 . S
C1187 C1186 1.334 . S
C1187 C1188 1.287 . S
C1188 C1187 1.287 . S
C1188 C1189 1.524 . S
C1188 H1207 0.913 . S
C1189 H1165 0.950 . S
C1189 C1188 1.524 . S
C1189 C1190 1.415 . S
C1190 H1166 0.950 . S
C1190 C1185 1.363 . S
C1190 C1189 1.415 . S
C1191 H1167 0.951 . S
C1191 C1192 1.366 . S
C1191 C1193 1.388 . S
C1192 C1191 1.366 . S
C1192 C1196 1.385 . S
C1193 H1168 0.951 . S
C1193 C1191 1.388 . S
C1193 C1194 1.366 . S
C1194 C1193 1.366 . S
C1194 C1195 1.414 . S
C1194 C1197 1.499 . S
C1195 H1169 0.950 . S
C1195 C1194 1.414 . S
C1195 C1196 1.374 . S
C1196 H1170 0.950 . S
C1196 C1192 1.385 . S
C1196 C1195 1.374 . S
C1197 C1194 1.499 . S
C1197 C1198 1.373 . S
C1197 C1199 1.389 . S
C1198 H1171 0.950 . S
C1198 C1184 1.377 . S
C1198 C1197 1.373 . S
C1199 C1183 1.377 . S
C1199 C1197 1.389 . S
C1199 C1200 1.524 . S
C1200 C1199 1.524 . S
C1200 C1201 1.397 . S
C1200 C1205 1.363 . S
C1201 H1172 0.950 . S
C1201 C1200 1.397 . S
C1201 C1202 1.334 . S
C1202 H1173 0.950 . S
C1202 C1201 1.334 . S
C1202 C1203 1.287 . S
C1203 C1202 1.287 . S
C1203 C1204 1.524 . S
C1203 H1206 0.999 . S
C1204 H1174 0.950 . S
C1204 C1203 1.524 . S
C1204 C1205 1.415 . S
C1205 H1175 0.950 . S
C1205 C1200 1.363 . S
C1205 C1204 1.415 . S
H1206 C1203 0.999 . S
H1207 C1188 0.913 . S
H1208 C1226 0.951 . S
H1209 C1228 0.951 1_455 S
H1210 C1230 0.950 . S
H1211 C1231 0.950 . S
H1212 C1233 0.950 . S
H1213 C1236 0.950 1_655 S
H1214 C1237 0.950 . S
H1215 C1239 0.950 . S
H1216 C1240 0.950 . S
H1217 C1241 0.951 . S
H1218 C1243 0.951 1_655 S
H1219 C1245 0.950 . S
H1220 C1246 0.950 . S
H1221 C1248 0.950 . S
H1222 C1251 0.950 1_455 S
H1223 C1252 0.950 . S
H1224 C1254 0.950 . S
H1225 C1255 0.950 . S
C1226 H1208 0.951 . S
C1226 C1227 1.366 . S
C1226 C1228 1.388 . S
C1227 C1226 1.366 . S
C1227 C1231 1.385 . S
C1228 H1209 0.951 1_655 S
C1228 C1226 1.388 . S
C1228 C1229 1.366 . S
C1229 C1228 1.366 . S
C1229 C1230 1.414 . S
C1229 C1232 1.499 . S
C1230 H1210 0.950 . S
C1230 C1229 1.414 . S
C1230 C1231 1.374 . S
C1231 H1211 0.950 . S
C1231 C1227 1.385 . S
C1231 C1230 1.374 . S
C1232 C1229 1.499 . S
C1232 C1233 1.373 . S
C1232 C1234 1.389 1_655 S
C1233 H1212 0.950 . S
C1233 C1232 1.373 . S
C1233 C1249 1.377 . S
C1234 C1232 1.389 1_455 S
C1234 C1235 1.524 . S
C1234 C1248 1.377 . S
C1235 C1234 1.524 . S
C1235 C1236 1.397 . S
C1235 C1240 1.363 . S
C1236 H1213 0.950 1_455 S
C1236 C1235 1.397 . S
C1236 C1237 1.334 . S
C1237 H1214 0.950 . S
C1237 C1236 1.334 . S
C1237 C1238 1.287 . S
C1238 C1237 1.287 . S
C1238 C1239 1.524 . S
C1238 H1257 0.913 . S
C1239 H1215 0.950 . S
C1239 C1238 1.524 . S
C1239 C1240 1.415 . S
C1240 H1216 0.950 . S
C1240 C1235 1.363 . S
C1240 C1239 1.415 . S
C1241 H1217 0.951 . S
C1241 C1242 1.366 . S
C1241 C1243 1.388 . S
C1242 C1241 1.366 . S
C1242 C1246 1.385 . S
C1243 H1218 0.951 1_455 S
C1243 C1241 1.388 . S
C1243 C1244 1.366 . S
C1244 C1243 1.366 . S
C1244 C1245 1.414 . S
C1244 C1247 1.499 . S
C1245 H1219 0.950 . S
C1245 C1244 1.414 . S
C1245 C1246 1.374 . S
C1246 H1220 0.950 . S
C1246 C1242 1.385 . S
C1246 C1245 1.374 . S
C1247 C1244 1.499 . S
C1247 C1248 1.373 . S
C1247 C1249 1.389 1_455 S
C1248 H1221 0.950 . S
C1248 C1234 1.377 . S
C1248 C1247 1.373 . S
C1249 C1233 1.377 . S
C1249 C1247 1.389 1_655 S
C1249 C1250 1.524 . S
C1250 C1249 1.524 . S
C1250 C1251 1.397 . S
C1250 C1255 1.363 . S
C1251 H1222 0.950 1_655 S
C1251 C1250 1.397 . S
C1251 C1252 1.334 . S
C1252 H1223 0.950 . S
C1252 C1251 1.334 . S
C1252 C1253 1.287 . S
C1253 C1252 1.287 . S
C1253 C1254 1.524 . S
C1253 H1256 0.999 . S
C1254 H1224 0.950 . S
C1254 C1253 1.524 . S
C1254 C1255 1.415 . S
C1255 H1225 0.950 . S
C1255 C1250 1.363 . S
C1255 C1254 1.415 . S
H1256 C1253 0.999 . S
H1257 C1238 0.913 . S
H1258 C1276 0.951 . S
H1259 C1278 0.951 . S
H1260 C1280 0.950 1_545 S
H1261 C1281 0.950 . S
H1262 C1283 0.950 . S
H1263 C1286 0.950 . S
H1264 C1287 0.950 . S
H1265 C1289 0.950 . S
H1266 C1290 0.950 . S
H1267 C1291 0.951 . S
H1268 C1293 0.951 . S
H1269 C1295 0.950 1_565 S
H1270 C1296 0.950 . S
H1271 C1298 0.950 . S
H1272 C1301 0.950 . S
H1273 C1302 0.950 . S
H1274 C1304 0.950 . S
H1275 C1305 0.950 . S
C1276 H1258 0.951 . S
C1276 C1277 1.366 . S
C1276 C1278 1.388 . S
C1277 C1276 1.366 . S
C1277 C1281 1.385 . S
C1278 H1259 0.951 . S
C1278 C1276 1.388 . S
C1278 C1279 1.366 . S
C1279 C1278 1.366 . S
C1279 C1280 1.414 . S
C1279 C1282 1.499 . S
C1280 H1260 0.950 1_565 S
C1280 C1279 1.414 . S
C1280 C1281 1.374 . S
C1281 H1261 0.950 . S
C1281 C1277 1.385 . S
C1281 C1280 1.374 . S
C1282 C1279 1.499 . S
C1282 C1283 1.373 1_565 S
C1282 C1284 1.389 . S
C1283 H1262 0.950 . S
C1283 C1282 1.373 1_545 S
C1283 C1299 1.377 . S
C1284 C1282 1.389 . S
C1284 C1285 1.524 . S
C1284 C1298 1.377 . S
C1285 C1284 1.524 . S
C1285 C1286 1.397 . S
C1285 C1290 1.363 . S
C1286 H1263 0.950 . S
C1286 C1285 1.397 . S
C1286 C1287 1.334 . S
C1287 H1264 0.950 . S
C1287 C1286 1.334 . S
C1287 C1288 1.287 . S
C1288 C1287 1.287 . S
C1288 C1289 1.524 . S
C1288 H1307 0.913 . S
C1289 H1265 0.950 . S
C1289 C1288 1.524 . S
C1289 C1290 1.415 . S
C1290 H1266 0.950 . S
C1290 C1285 1.363 . S
C1290 C1289 1.415 . S
C1291 H1267 0.951 . S
C1291 C1292 1.366 . S
C1291 C1293 1.388 . S
C1292 C1291 1.366 . S
C1292 C1296 1.385 . S
C1293 H1268 0.951 . S
C1293 C1291 1.388 . S
C1293 C1294 1.366 . S
C1294 C1293 1.366 . S
C1294 C1295 1.414 . S
C1294 C1297 1.499 . S
C1295 H1269 0.950 1_545 S
C1295 C1294 1.414 . S
C1295 C1296 1.374 . S
C1296 H1270 0.950 . S
C1296 C1292 1.385 . S
C1296 C1295 1.374 . S
C1297 C1294 1.499 . S
C1297 C1298 1.373 1_545 S
C1297 C1299 1.389 . S
C1298 H1271 0.950 . S
C1298 C1284 1.377 . S
C1298 C1297 1.373 1_565 S
C1299 C1283 1.377 . S
C1299 C1297 1.389 . S
C1299 C1300 1.524 . S
C1300 C1299 1.524 . S
C1300 C1301 1.397 . S
C1300 C1305 1.363 . S
C1301 H1272 0.950 . S
C1301 C1300 1.397 . S
C1301 C1302 1.334 . S
C1302 H1273 0.950 . S
C1302 C1301 1.334 . S
C1302 C1303 1.287 . S
C1303 C1302 1.287 . S
C1303 C1304 1.524 . S
C1303 H1306 0.999 . S
C1304 H1274 0.950 . S
C1304 C1303 1.524 . S
C1304 C1305 1.415 . S
C1305 H1275 0.950 . S
C1305 C1300 1.363 . S
C1305 C1304 1.415 . S
H1306 C1303 0.999 . S
H1307 C1288 0.913 . S
H1308 C1326 0.951 . S
H1309 C1328 0.951 . S
H1310 C1330 0.950 . S
H1311 C1331 0.950 . S
H1312 C1333 0.950 . S
H1313 C1336 0.950 . S
H1314 C1337 0.950 . S
H1315 C1339 0.950 . S
H1316 C1340 0.950 . S
H1317 C1341 0.951 . S
H1318 C1343 0.951 . S
H1319 C1345 0.950 . S
H1320 C1346 0.950 . S
H1321 C1348 0.950 . S
H1322 C1351 0.950 . S
H1323 C1352 0.950 . S
H1324 C1354 0.950 . S
H1325 C1355 0.950 . S
C1326 H1308 0.951 . S
C1326 C1327 1.366 . S
C1326 C1328 1.388 . S
C1327 C1326 1.366 . S
C1327 C1331 1.385 . S
C1328 H1309 0.951 . S
C1328 C1326 1.388 . S
C1328 C1329 1.366 . S
C1329 C1328 1.366 . S
C1329 C1330 1.414 . S
C1329 C1332 1.499 . S
C1330 H1310 0.950 . S
C1330 C1329 1.414 . S
C1330 C1331 1.374 . S
C1331 H1311 0.950 . S
C1331 C1327 1.385 . S
C1331 C1330 1.374 . S
C1332 C1329 1.499 . S
C1332 C1333 1.373 . S
C1332 C1334 1.389 . S
C1333 H1312 0.950 . S
C1333 C1332 1.373 . S
C1333 C1349 1.377 . S
C1334 C1332 1.389 . S
C1334 C1335 1.524 . S
C1334 C1348 1.377 . S
C1335 C1334 1.524 . S
C1335 C1336 1.397 . S
C1335 C1340 1.363 . S
C1336 H1313 0.950 . S
C1336 C1335 1.397 . S
C1336 C1337 1.334 . S
C1337 H1314 0.950 . S
C1337 C1336 1.334 . S
C1337 C1338 1.287 . S
C1338 C1337 1.287 . S
C1338 C1339 1.524 . S
C1338 H1357 0.913 . S
C1339 H1315 0.950 . S
C1339 C1338 1.524 . S
C1339 C1340 1.415 . S
C1340 H1316 0.950 . S
C1340 C1335 1.363 . S
C1340 C1339 1.415 . S
C1341 H1317 0.951 . S
C1341 C1342 1.366 . S
C1341 C1343 1.388 . S
C1342 C1341 1.366 . S
C1342 C1346 1.385 . S
C1343 H1318 0.951 . S
C1343 C1341 1.388 . S
C1343 C1344 1.366 . S
C1344 C1343 1.366 . S
C1344 C1345 1.414 . S
C1344 C1347 1.499 . S
C1345 H1319 0.950 . S
C1345 C1344 1.414 . S
C1345 C1346 1.374 . S
C1346 H1320 0.950 . S
C1346 C1342 1.385 . S
C1346 C1345 1.374 . S
C1347 C1344 1.499 . S
C1347 C1348 1.373 . S
C1347 C1349 1.389 . S
C1348 H1321 0.950 . S
C1348 C1334 1.377 . S
C1348 C1347 1.373 . S
C1349 C1333 1.377 . S
C1349 C1347 1.389 . S
C1349 C1350 1.524 . S
C1350 C1349 1.524 . S
C1350 C1351 1.397 . S
C1350 C1355 1.363 . S
C1351 H1322 0.950 . S
C1351 C1350 1.397 . S
C1351 C1352 1.334 . S
C1352 H1323 0.950 . S
C1352 C1351 1.334 . S
C1352 C1353 1.287 . S
C1353 C1352 1.287 . S
C1353 C1354 1.524 . S
C1353 H1356 0.999 . S
C1354 H1324 0.950 . S
C1354 C1353 1.524 . S
C1354 C1355 1.415 . S
C1355 H1325 0.950 . S
C1355 C1350 1.363 . S
C1355 C1354 1.415 . S
H1356 C1353 0.999 . S
H1357 C1338 0.913 . S
H1358 C1376 0.951 . S
H1359 C1378 0.951 . S
H1360 C1380 0.950 1_455 S
H1361 C1381 0.950 . S
H1362 C1383 0.950 . S
H1363 C1386 0.950 . S
H1364 C1387 0.950 . S
H1365 C1389 0.950 . S
H1366 C1390 0.950 . S
H1367 C1391 0.951 . S
H1368 C1393 0.951 . S
H1369 C1395 0.950 1_655 S
H1370 C1396 0.950 . S
H1371 C1398 0.950 . S
H1372 C1401 0.950 . S
H1373 C1402 0.950 . S
H1374 C1404 0.950 . S
H1375 C1405 0.950 . S
C1376 H1358 0.951 . S
C1376 C1377 1.366 . S
C1376 C1378 1.388 . S
C1377 C1376 1.366 . S
C1377 C1381 1.385 . S
C1378 H1359 0.951 . S
C1378 C1376 1.388 . S
C1378 C1379 1.366 . S
C1379 C1378 1.366 . S
C1379 C1380 1.414 . S
C1379 C1382 1.499 . S
C1380 H1360 0.950 1_655 S
C1380 C1379 1.414 . S
C1380 C1381 1.374 . S
C1381 H1361 0.950 . S
C1381 C1377 1.385 . S
C1381 C1380 1.374 . S
C1382 C1379 1.499 . S
C1382 C1383 1.373 1_655 S
C1382 C1384 1.389 . S
C1383 H1362 0.950 . S
C1383 C1382 1.373 1_455 S
C1383 C1399 1.377 . S
C1384 C1382 1.389 . S
C1384 C1385 1.524 . S
C1384 C1398 1.377 . S
C1385 C1384 1.524 . S
C1385 C1386 1.397 . S
C1385 C1390 1.363 . S
C1386 H1363 0.950 . S
C1386 C1385 1.397 . S
C1386 C1387 1.334 . S
C1387 H1364 0.950 . S
C1387 C1386 1.334 . S
C1387 C1388 1.287 . S
C1388 C1387 1.287 . S
C1388 C1389 1.524 . S
C1388 H1407 0.913 . S
C1389 H1365 0.950 . S
C1389 C1388 1.524 . S
C1389 C1390 1.415 . S
C1390 H1366 0.950 . S
C1390 C1385 1.363 . S
C1390 C1389 1.415 . S
C1391 H1367 0.951 . S
C1391 C1392 1.366 . S
C1391 C1393 1.388 . S
C1392 C1391 1.366 . S
C1392 C1396 1.385 . S
C1393 H1368 0.951 . S
C1393 C1391 1.388 . S
C1393 C1394 1.366 . S
C1394 C1393 1.366 . S
C1394 C1395 1.414 . S
C1394 C1397 1.499 . S
C1395 H1369 0.950 1_455 S
C1395 C1394 1.414 . S
C1395 C1396 1.374 . S
C1396 H1370 0.950 . S
C1396 C1392 1.385 . S
C1396 C1395 1.374 . S
C1397 C1394 1.499 . S
C1397 C1398 1.373 1_455 S
C1397 C1399 1.389 . S
C1398 H1371 0.950 . S
C1398 C1384 1.377 . S
C1398 C1397 1.373 1_655 S
C1399 C1383 1.377 . S
C1399 C1397 1.389 . S
C1399 C1400 1.524 . S
C1400 C1399 1.524 . S
C1400 C1401 1.397 . S
C1400 C1405 1.363 . S
C1401 H1372 0.950 . S
C1401 C1400 1.397 . S
C1401 C1402 1.334 . S
C1402 H1373 0.950 . S
C1402 C1401 1.334 . S
C1402 C1403 1.287 . S
C1403 C1402 1.287 . S
C1403 C1404 1.524 . S
C1403 H1406 0.999 . S
C1404 H1374 0.950 . S
C1404 C1403 1.524 . S
C1404 C1405 1.415 . S
C1405 H1375 0.950 . S
C1405 C1400 1.363 . S
C1405 C1404 1.415 . S
H1406 C1403 0.999 . S
H1407 C1388 0.913 . S
H1408 C1426 0.951 . S
H1409 C1428 0.951 . S
H1410 C1430 0.950 . S
H1411 C1431 0.950 . S
H1412 C1433 0.950 . S
H1413 C1436 0.950 . S
H1414 C1437 0.950 . S
H1415 C1439 0.950 . S
H1416 C1440 0.950 . S
H1417 C1441 0.951 . S
H1418 C1443 0.951 . S
H1419 C1445 0.950 . S
H1420 C1446 0.950 . S
H1421 C1448 0.950 . S
H1422 C1451 0.950 . S
H1423 C1452 0.950 . S
H1424 C1454 0.950 . S
H1425 C1455 0.950 . S
C1426 H1408 0.951 . S
C1426 C1427 1.366 . S
C1426 C1428 1.388 . S
C1427 C1426 1.366 . S
C1427 C1431 1.385 . S
C1428 H1409 0.951 . S
C1428 C1426 1.388 . S
C1428 C1429 1.366 . S
C1429 C1428 1.366 . S
C1429 C1430 1.414 . S
C1429 C1432 1.499 . S
C1430 H1410 0.950 . S
C1430 C1429 1.414 . S
C1430 C1431 1.374 . S
C1431 H1411 0.950 . S
C1431 C1427 1.385 . S
C1431 C1430 1.374 . S
C1432 C1429 1.499 . S
C1432 C1433 1.373 . S
C1432 C1434 1.389 1_565 S
C1433 H1412 0.950 . S
C1433 C1432 1.373 . S
C1433 C1449 1.377 1_556 S
C1434 C1432 1.389 1_545 S
C1434 C1435 1.524 . S
C1434 C1448 1.377 1_556 S
C1435 C1434 1.524 . S
C1435 C1436 1.397 . S
C1435 C1440 1.363 . S
C1436 H1413 0.950 . S
C1436 C1435 1.397 . S
C1436 C1437 1.334 . S
C1437 H1414 0.950 . S
C1437 C1436 1.334 . S
C1437 C1438 1.287 . S
C1438 C1437 1.287 . S
C1438 C1439 1.524 . S
C1438 H1457 0.913 . S
C1439 H1415 0.950 . S
C1439 C1438 1.524 . S
C1439 C1440 1.415 . S
C1440 H1416 0.950 . S
C1440 C1435 1.363 . S
C1440 C1439 1.415 . S
C1441 H1417 0.951 . S
C1441 C1442 1.366 . S
C1441 C1443 1.388 . S
C1442 C1441 1.366 . S
C1442 C1446 1.385 . S
C1443 H1418 0.951 . S
C1443 C1441 1.388 . S
C1443 C1444 1.366 . S
C1444 C1443 1.366 . S
C1444 C1445 1.414 . S
C1444 C1447 1.499 . S
C1445 H1419 0.950 . S
C1445 C1444 1.414 . S
C1445 C1446 1.374 . S
C1446 H1420 0.950 . S
C1446 C1442 1.385 . S
C1446 C1445 1.374 . S
C1447 C1444 1.499 . S
C1447 C1448 1.373 . S
C1447 C1449 1.389 1_545 S
C1448 H1421 0.950 . S
C1448 C1434 1.377 1_554 S
C1448 C1447 1.373 . S
C1449 C1433 1.377 1_554 S
C1449 C1447 1.389 1_565 S
C1449 C1450 1.524 . S
C1450 C1449 1.524 . S
C1450 C1451 1.397 . S
C1450 C1455 1.363 . S
C1451 H1422 0.950 . S
C1451 C1450 1.397 . S
C1451 C1452 1.334 . S
C1452 H1423 0.950 . S
C1452 C1451 1.334 . S
C1452 C1453 1.287 . S
C1453 C1452 1.287 . S
C1453 C1454 1.524 . S
C1453 H1456 0.999 . S
C1454 H1424 0.950 . S
C1454 C1453 1.524 . S
C1454 C1455 1.415 . S
C1455 H1425 0.950 . S
C1455 C1450 1.363 . S
C1455 C1454 1.415 . S
H1456 C1453 0.999 . S
H1457 C1438 0.913 . S
H1458 C1476 0.951 . S
H1459 C1478 0.951 . S
H1460 C1480 0.950 . S
H1461 C1481 0.950 . S
H1462 C1483 0.950 . S
H1463 C1486 0.950 . S
H1464 C1487 0.950 . S
H1465 C1489 0.950 . S
H1466 C1490 0.950 . S
H1467 C1491 0.951 . S
H1468 C1493 0.951 . S
H1469 C1495 0.950 . S
H1470 C1496 0.950 . S
H1471 C1498 0.950 . S
H1472 C1501 0.950 . S
H1473 C1502 0.950 . S
H1474 C1504 0.950 . S
H1475 C1505 0.950 . S
C1476 H1458 0.951 . S
C1476 C1477 1.366 . S
C1476 C1478 1.388 . S
C1477 C1476 1.366 . S
C1477 C1481 1.385 . S
C1478 H1459 0.951 . S
C1478 C1476 1.388 . S
C1478 C1479 1.366 . S
C1479 C1478 1.366 . S
C1479 C1480 1.414 . S
C1479 C1482 1.499 . S
C1480 H1460 0.950 . S
C1480 C1479 1.414 . S
C1480 C1481 1.374 . S
C1481 H1461 0.950 . S
C1481 C1477 1.385 . S
C1481 C1480 1.374 . S
C1482 C1479 1.499 . S
C1482 C1483 1.373 . S
C1482 C1484 1.389 . S
C1483 H1462 0.950 . S
C1483 C1482 1.373 . S
C1483 C1499 1.377 . S
C1484 C1482 1.389 . S
C1484 C1485 1.524 . S
C1484 C1498 1.377 . S
C1485 C1484 1.524 . S
C1485 C1486 1.397 . S
C1485 C1490 1.363 . S
C1486 H1463 0.950 . S
C1486 C1485 1.397 . S
C1486 C1487 1.334 . S
C1487 H1464 0.950 . S
C1487 C1486 1.334 . S
C1487 C1488 1.287 . S
C1488 C1487 1.287 . S
C1488 C1489 1.524 . S
C1488 H1507 0.913 . S
C1489 H1465 0.950 . S
C1489 C1488 1.524 . S
C1489 C1490 1.415 . S
C1490 H1466 0.950 . S
C1490 C1485 1.363 . S
C1490 C1489 1.415 . S
C1491 H1467 0.951 . S
C1491 C1492 1.366 . S
C1491 C1493 1.388 . S
C1492 C1491 1.366 . S
C1492 C1496 1.385 . S
C1493 H1468 0.951 . S
C1493 C1491 1.388 . S
C1493 C1494 1.366 . S
C1494 C1493 1.366 . S
C1494 C1495 1.414 . S
C1494 C1497 1.499 . S
C1495 H1469 0.950 . S
C1495 C1494 1.414 . S
C1495 C1496 1.374 . S
C1496 H1470 0.950 . S
C1496 C1492 1.385 . S
C1496 C1495 1.374 . S
C1497 C1494 1.499 . S
C1497 C1498 1.373 . S
C1497 C1499 1.389 . S
C1498 H1471 0.950 . S
C1498 C1484 1.377 . S
C1498 C1497 1.373 . S
C1499 C1483 1.377 . S
C1499 C1497 1.389 . S
C1499 C1500 1.524 . S
C1500 C1499 1.524 . S
C1500 C1501 1.397 . S
C1500 C1505 1.363 . S
C1501 H1472 0.950 . S
C1501 C1500 1.397 . S
C1501 C1502 1.334 . S
C1502 H1473 0.950 . S
C1502 C1501 1.334 . S
C1502 C1503 1.287 . S
C1503 C1502 1.287 . S
C1503 C1504 1.524 . S
C1503 H1506 0.999 . S
C1504 H1474 0.950 . S
C1504 C1503 1.524 . S
C1504 C1505 1.415 . S
C1505 H1475 0.950 . S
C1505 C1500 1.363 . S
C1505 C1504 1.415 . S
H1506 C1503 0.999 . S
H1507 C1488 0.913 . S
H1508 C1526 0.951 . S
H1509 C1528 0.951 . S
H1510 C1530 0.950 . S
H1511 C1531 0.950 . S
H1512 C1533 0.950 . S
H1513 C1536 0.950 . S
H1514 C1537 0.950 . S
H1515 C1539 0.950 . S
H1516 C1540 0.950 . S
H1517 C1541 0.951 . S
H1518 C1543 0.951 . S
H1519 C1545 0.950 . S
H1520 C1546 0.950 . S
H1521 C1548 0.950 . S
H1522 C1551 0.950 . S
H1523 C1552 0.950 . S
H1524 C1554 0.950 . S
H1525 C1555 0.950 . S
C1526 H1508 0.951 . S
C1526 C1527 1.366 . S
C1526 C1528 1.388 . S
C1527 C1526 1.366 . S
C1527 C1531 1.385 . S
C1528 H1509 0.951 . S
C1528 C1526 1.388 . S
C1528 C1529 1.366 . S
C1529 C1528 1.366 . S
C1529 C1530 1.414 . S
C1529 C1532 1.499 . S
C1530 H1510 0.950 . S
C1530 C1529 1.414 . S
C1530 C1531 1.374 . S
C1531 H1511 0.950 . S
C1531 C1527 1.385 . S
C1531 C1530 1.374 . S
C1532 C1529 1.499 . S
C1532 C1533 1.373 1_455 S
C1532 C1534 1.389 . S
C1533 H1512 0.950 . S
C1533 C1532 1.373 1_655 S
C1533 C1549 1.377 . S
C1534 C1532 1.389 . S
C1534 C1535 1.524 . S
C1534 C1548 1.377 . S
C1535 C1534 1.524 . S
C1535 C1536 1.397 . S
C1535 C1540 1.363 . S
C1536 H1513 0.950 . S
C1536 C1535 1.397 . S
C1536 C1537 1.334 . S
C1537 H1514 0.950 . S
C1537 C1536 1.334 . S
C1537 C1538 1.287 . S
C1538 C1537 1.287 . S
C1538 C1539 1.524 . S
C1538 H1557 0.913 . S
C1539 H1515 0.950 . S
C1539 C1538 1.524 . S
C1539 C1540 1.415 . S
C1540 H1516 0.950 . S
C1540 C1535 1.363 . S
C1540 C1539 1.415 . S
C1541 H1517 0.951 . S
C1541 C1542 1.366 . S
C1541 C1543 1.388 . S
C1542 C1541 1.366 . S
C1542 C1546 1.385 . S
C1543 H1518 0.951 . S
C1543 C1541 1.388 . S
C1543 C1544 1.366 . S
C1544 C1543 1.366 . S
C1544 C1545 1.414 . S
C1544 C1547 1.499 . S
C1545 H1519 0.950 . S
C1545 C1544 1.414 . S
C1545 C1546 1.374 . S
C1546 H1520 0.950 . S
C1546 C1542 1.385 . S
C1546 C1545 1.374 . S
C1547 C1544 1.499 . S
C1547 C1548 1.373 1_655 S
C1547 C1549 1.389 . S
C1548 H1521 0.950 . S
C1548 C1534 1.377 . S
C1548 C1547 1.373 1_455 S
C1549 C1533 1.377 . S
C1549 C1547 1.389 . S
C1549 C1550 1.524 . S
C1550 C1549 1.524 . S
C1550 C1551 1.397 . S
C1550 C1555 1.363 . S
C1551 H1522 0.950 . S
C1551 C1550 1.397 . S
C1551 C1552 1.334 . S
C1552 H1523 0.950 . S
C1552 C1551 1.334 . S
C1552 C1553 1.287 . S
C1553 C1552 1.287 . S
C1553 C1554 1.524 . S
C1553 H1556 0.999 . S
C1554 H1524 0.950 . S
C1554 C1553 1.524 . S
C1554 C1555 1.415 . S
C1555 H1525 0.950 . S
C1555 C1550 1.363 . S
C1555 C1554 1.415 . S
H1556 C1553 0.999 . S
H1557 C1538 0.913 . S
H1558 C1576 0.951 . S
H1559 C1578 0.951 1_545 S
H1560 C1580 0.950 . S
H1561 C1581 0.950 . S
H1562 C1583 0.950 . S
H1563 C1586 0.950 . S
H1564 C1587 0.950 . S
H1565 C1589 0.950 . S
H1566 C1590 0.950 . S
H1567 C1591 0.951 . S
H1568 C1593 0.951 1_565 S
H1569 C1595 0.950 . S
H1570 C1596 0.950 . S
H1571 C1598 0.950 . S
H1572 C1601 0.950 . S
H1573 C1602 0.950 . S
H1574 C1604 0.950 . S
H1575 C1605 0.950 . S
C1576 H1558 0.951 . S
C1576 C1577 1.366 . S
C1576 C1578 1.388 . S
C1577 C1576 1.366 . S
C1577 C1581 1.385 . S
C1578 H1559 0.951 1_565 S
C1578 C1576 1.388 . S
C1578 C1579 1.366 . S
C1579 C1578 1.366 . S
C1579 C1580 1.414 . S
C1579 C1582 1.499 . S
C1580 H1560 0.950 . S
C1580 C1579 1.414 . S
C1580 C1581 1.374 . S
C1581 H1561 0.950 . S
C1581 C1577 1.385 . S
C1581 C1580 1.374 . S
C1582 C1579 1.499 . S
C1582 C1583 1.373 . S
C1582 C1584 1.389 1_565 S
C1583 H1562 0.950 . S
C1583 C1582 1.373 . S
C1583 C1599 1.377 1_554 S
C1584 C1582 1.389 1_545 S
C1584 C1585 1.524 . S
C1584 C1598 1.377 1_554 S
C1585 C1584 1.524 . S
C1585 C1586 1.397 1_545 S
C1585 C1590 1.363 . S
C1586 H1563 0.950 . S
C1586 C1585 1.397 1_565 S
C1586 C1587 1.334 . S
C1587 H1564 0.950 . S
C1587 C1586 1.334 . S
C1587 C1588 1.287 1_565 S
C1588 C1587 1.287 1_545 S
C1588 C1589 1.524 . S
C1588 H1607 0.913 . S
C1589 H1565 0.950 . S
C1589 C1588 1.524 . S
C1589 C1590 1.415 . S
C1590 H1566 0.950 . S
C1590 C1585 1.363 . S
C1590 C1589 1.415 . S
C1591 H1567 0.951 . S
C1591 C1592 1.366 . S
C1591 C1593 1.388 . S
C1592 C1591 1.366 . S
C1592 C1596 1.385 . S
C1593 H1568 0.951 1_545 S
C1593 C1591 1.388 . S
C1593 C1594 1.366 . S
C1594 C1593 1.366 . S
C1594 C1595 1.414 . S
C1594 C1597 1.499 . S
C1595 H1569 0.950 . S
C1595 C1594 1.414 . S
C1595 C1596 1.374 . S
C1596 H1570 0.950 . S
C1596 C1592 1.385 . S
C1596 C1595 1.374 . S
C1597 C1594 1.499 . S
C1597 C1598 1.373 . S
C1597 C1599 1.389 1_545 S
C1598 H1571 0.950 . S
C1598 C1584 1.377 1_556 S
C1598 C1597 1.373 . S
C1599 C1583 1.377 1_556 S
C1599 C1597 1.389 1_565 S
C1599 C1600 1.524 . S
C1600 C1599 1.524 . S
C1600 C1601 1.397 1_565 S
C1600 C1605 1.363 . S
C1601 H1572 0.950 . S
C1601 C1600 1.397 1_545 S
C1601 C1602 1.334 . S
C1602 H1573 0.950 . S
C1602 C1601 1.334 . S
C1602 C1603 1.287 1_545 S
C1603 C1602 1.287 1_565 S
C1603 C1604 1.524 . S
C1603 H1606 0.999 . S
C1604 H1574 0.950 . S
C1604 C1603 1.524 . S
C1604 C1605 1.415 . S
C1605 H1575 0.950 . S
C1605 C1600 1.363 . S
C1605 C1604 1.415 . S
H1606 C1603 0.999 . S
H1607 C1588 0.913 . S
H1608 C1626 0.951 . S
H1609 C1628 0.951 . S
H1610 C1630 0.950 . S
H1611 C1631 0.950 . S
H1612 C1633 0.950 . S
H1613 C1636 0.950 . S
H1614 C1637 0.950 . S
H1615 C1639 0.950 . S
H1616 C1640 0.950 . S
H1617 C1641 0.951 . S
H1618 C1643 0.951 . S
H1619 C1645 0.950 . S
H1620 C1646 0.950 . S
H1621 C1648 0.950 . S
H1622 C1651 0.950 . S
H1623 C1652 0.950 . S
H1624 C1654 0.950 . S
H1625 C1655 0.950 . S
C1626 H1608 0.951 . S
C1626 C1627 1.366 . S
C1626 C1628 1.388 . S
C1627 C1626 1.366 . S
C1627 C1631 1.385 . S
C1628 H1609 0.951 . S
C1628 C1626 1.388 . S
C1628 C1629 1.366 . S
C1629 C1628 1.366 . S
C1629 C1630 1.414 . S
C1629 C1632 1.499 . S
C1630 H1610 0.950 . S
C1630 C1629 1.414 . S
C1630 C1631 1.374 . S
C1631 H1611 0.950 . S
C1631 C1627 1.385 . S
C1631 C1630 1.374 . S
C1632 C1629 1.499 . S
C1632 C1633 1.373 . S
C1632 C1634 1.389 . S
C1633 H1612 0.950 . S
C1633 C1632 1.373 . S
C1633 C1649 1.377 1_655 S
C1634 C1632 1.389 . S
C1634 C1635 1.524 . S
C1634 C1648 1.377 1_655 S
C1635 C1634 1.524 . S
C1635 C1636 1.397 . S
C1635 C1640 1.363 . S
C1636 H1613 0.950 . S
C1636 C1635 1.397 . S
C1636 C1637 1.334 . S
C1637 H1614 0.950 . S
C1637 C1636 1.334 . S
C1637 C1638 1.287 . S
C1638 C1637 1.287 . S
C1638 C1639 1.524 . S
C1638 H1657 0.913 . S
C1639 H1615 0.950 . S
C1639 C1638 1.524 . S
C1639 C1640 1.415 . S
C1640 H1616 0.950 . S
C1640 C1635 1.363 . S
C1640 C1639 1.415 . S
C1641 H1617 0.951 . S
C1641 C1642 1.366 . S
C1641 C1643 1.388 . S
C1642 C1641 1.366 . S
C1642 C1646 1.385 . S
C1643 H1618 0.951 . S
C1643 C1641 1.388 . S
C1643 C1644 1.366 . S
C1644 C1643 1.366 . S
C1644 C1645 1.414 . S
C1644 C1647 1.499 . S
C1645 H1619 0.950 . S
C1645 C1644 1.414 . S
C1645 C1646 1.374 . S
C1646 H1620 0.950 . S
C1646 C1642 1.385 . S
C1646 C1645 1.374 . S
C1647 C1644 1.499 . S
C1647 C1648 1.373 . S
C1647 C1649 1.389 . S
C1648 H1621 0.950 . S
C1648 C1634 1.377 1_455 S
C1648 C1647 1.373 . S
C1649 C1633 1.377 1_455 S
C1649 C1647 1.389 . S
C1649 C1650 1.524 . S
C1650 C1649 1.524 . S
C1650 C1651 1.397 . S
C1650 C1655 1.363 . S
C1651 H1622 0.950 . S
C1651 C1650 1.397 . S
C1651 C1652 1.334 . S
C1652 H1623 0.950 . S
C1652 C1651 1.334 . S
C1652 C1653 1.287 . S
C1653 C1652 1.287 . S
C1653 C1654 1.524 . S
C1653 H1656 0.999 . S
C1654 H1624 0.950 . S
C1654 C1653 1.524 . S
C1654 C1655 1.415 . S
C1655 H1625 0.950 . S
C1655 C1650 1.363 . S
C1655 C1654 1.415 . S
H1656 C1653 0.999 . S
H1657 C1638 0.913 . S
H1658 C1676 0.951 . S
H1659 C1678 0.951 . S
H1660 C1680 0.950 . S
H1661 C1681 0.950 . S
H1662 C1683 0.950 . S
H1663 C1686 0.950 . S
H1664 C1687 0.950 . S
H1665 C1689 0.950 . S
H1666 C1690 0.950 . S
H1667 C1691 0.951 . S
H1668 C1693 0.951 . S
H1669 C1695 0.950 . S
H1670 C1696 0.950 . S
H1671 C1698 0.950 . S
H1672 C1701 0.950 . S
H1673 C1702 0.950 . S
H1674 C1704 0.950 . S
H1675 C1705 0.950 . S
C1676 H1658 0.951 . S
C1676 C1677 1.366 . S
C1676 C1678 1.388 . S
C1677 C1676 1.366 . S
C1677 C1681 1.385 . S
C1678 H1659 0.951 . S
C1678 C1676 1.388 . S
C1678 C1679 1.366 . S
C1679 C1678 1.366 . S
C1679 C1680 1.414 . S
C1679 C1682 1.499 . S
C1680 H1660 0.950 . S
C1680 C1679 1.414 . S
C1680 C1681 1.374 . S
C1681 H1661 0.950 . S
C1681 C1677 1.385 . S
C1681 C1680 1.374 . S
C1682 C1679 1.499 . S
C1682 C1683 1.373 . S
C1682 C1684 1.389 . S
C1683 H1662 0.950 . S
C1683 C1682 1.373 . S
C1683 C1699 1.377 1_545 S
C1684 C1682 1.389 . S
C1684 C1685 1.524 . S
C1684 C1698 1.377 1_545 S
C1685 C1684 1.524 . S
C1685 C1686 1.397 . S
C1685 C1690 1.363 . S
C1686 H1663 0.950 . S
C1686 C1685 1.397 . S
C1686 C1687 1.334 . S
C1687 H1664 0.950 . S
C1687 C1686 1.334 . S
C1687 C1688 1.287 . S
C1688 C1687 1.287 . S
C1688 C1689 1.524 . S
C1688 H1707 0.913 . S
C1689 H1665 0.950 . S
C1689 C1688 1.524 . S
C1689 C1690 1.415 . S
C1690 H1666 0.950 . S
C1690 C1685 1.363 . S
C1690 C1689 1.415 . S
C1691 H1667 0.951 . S
C1691 C1692 1.366 . S
C1691 C1693 1.388 . S
C1692 C1691 1.366 . S
C1692 C1696 1.385 . S
C1693 H1668 0.951 . S
C1693 C1691 1.388 . S
C1693 C1694 1.366 . S
C1694 C1693 1.366 . S
C1694 C1695 1.414 . S
C1694 C1697 1.499 . S
C1695 H1669 0.950 . S
C1695 C1694 1.414 . S
C1695 C1696 1.374 . S
C1696 H1670 0.950 . S
C1696 C1692 1.385 . S
C1696 C1695 1.374 . S
C1697 C1694 1.499 . S
C1697 C1698 1.373 . S
C1697 C1699 1.389 . S
C1698 H1671 0.950 . S
C1698 C1684 1.377 1_565 S
C1698 C1697 1.373 . S
C1699 C1683 1.377 1_565 S
C1699 C1697 1.389 . S
C1699 C1700 1.524 . S
C1700 C1699 1.524 . S
C1700 C1701 1.397 . S
C1700 C1705 1.363 . S
C1701 H1672 0.950 . S
C1701 C1700 1.397 . S
C1701 C1702 1.334 . S
C1702 H1673 0.950 . S
C1702 C1701 1.334 . S
C1702 C1703 1.287 . S
C1703 C1702 1.287 . S
C1703 C1704 1.524 . S
C1703 H1706 0.999 . S
C1704 H1674 0.950 . S
C1704 C1703 1.524 . S
C1704 C1705 1.415 . S
C1705 H1675 0.950 . S
C1705 C1700 1.363 . S
C1705 C1704 1.415 . S
H1706 C1703 0.999 . S
H1707 C1688 0.913 . S
H1708 C1726 0.951 . S
H1709 C1728 0.951 . S
H1710 C1730 0.950 . S
H1711 C1731 0.950 . S
H1712 C1733 0.950 . S
H1713 C1736 0.950 . S
H1714 C1737 0.950 . S
H1715 C1739 0.950 . S
H1716 C1740 0.950 . S
H1717 C1741 0.951 . S
H1718 C1743 0.951 . S
H1719 C1745 0.950 . S
H1720 C1746 0.950 . S
H1721 C1748 0.950 . S
H1722 C1751 0.950 . S
H1723 C1752 0.950 . S
H1724 C1754 0.950 . S
H1725 C1755 0.950 . S
C1726 H1708 0.951 . S
C1726 C1727 1.366 . S
C1726 C1728 1.388 . S
C1727 C1726 1.366 . S
C1727 C1731 1.385 . S
C1728 H1709 0.951 . S
C1728 C1726 1.388 . S
C1728 C1729 1.366 . S
C1729 C1728 1.366 . S
C1729 C1730 1.414 . S
C1729 C1732 1.499 . S
C1730 H1710 0.950 . S
C1730 C1729 1.414 . S
C1730 C1731 1.374 . S
C1731 H1711 0.950 . S
C1731 C1727 1.385 . S
C1731 C1730 1.374 . S
C1732 C1729 1.499 . S
C1732 C1733 1.373 . S
C1732 C1734 1.389 . S
C1733 H1712 0.950 . S
C1733 C1732 1.373 . S
C1733 C1749 1.377 . S
C1734 C1732 1.389 . S
C1734 C1735 1.524 . S
C1734 C1748 1.377 . S
C1735 C1734 1.524 . S
C1735 C1736 1.397 . S
C1735 C1740 1.363 . S
C1736 H1713 0.950 . S
C1736 C1735 1.397 . S
C1736 C1737 1.334 . S
C1737 H1714 0.950 . S
C1737 C1736 1.334 . S
C1737 C1738 1.287 . S
C1738 C1737 1.287 . S
C1738 C1739 1.524 . S
C1738 H1757 0.913 . S
C1739 H1715 0.950 . S
C1739 C1738 1.524 . S
C1739 C1740 1.415 . S
C1740 H1716 0.950 . S
C1740 C1735 1.363 . S
C1740 C1739 1.415 . S
C1741 H1717 0.951 . S
C1741 C1742 1.366 . S
C1741 C1743 1.388 . S
C1742 C1741 1.366 . S
C1742 C1746 1.385 . S
C1743 H1718 0.951 . S
C1743 C1741 1.388 . S
C1743 C1744 1.366 . S
C1744 C1743 1.366 . S
C1744 C1745 1.414 . S
C1744 C1747 1.499 . S
C1745 H1719 0.950 . S
C1745 C1744 1.414 . S
C1745 C1746 1.374 . S
C1746 H1720 0.950 . S
C1746 C1742 1.385 . S
C1746 C1745 1.374 . S
C1747 C1744 1.499 . S
C1747 C1748 1.373 . S
C1747 C1749 1.389 . S
C1748 H1721 0.950 . S
C1748 C1734 1.377 . S
C1748 C1747 1.373 . S
C1749 C1733 1.377 . S
C1749 C1747 1.389 . S
C1749 C1750 1.524 . S
C1750 C1749 1.524 . S
C1750 C1751 1.397 . S
C1750 C1755 1.363 . S
C1751 H1722 0.950 . S
C1751 C1750 1.397 . S
C1751 C1752 1.334 . S
C1752 H1723 0.950 . S
C1752 C1751 1.334 . S
C1752 C1753 1.287 . S
C1753 C1752 1.287 . S
C1753 C1754 1.524 . S
C1753 H1756 0.999 . S
C1754 H1724 0.950 . S
C1754 C1753 1.524 . S
C1754 C1755 1.415 . S
C1755 H1725 0.950 . S
C1755 C1750 1.363 . S
C1755 C1754 1.415 . S
H1756 C1753 0.999 . S
H1757 C1738 0.913 . S
H1758 C1776 0.951 . S
H1759 C1778 0.951 . S
H1760 C1780 0.950 . S
H1761 C1781 0.950 . S
H1762 C1783 0.950 . S
H1763 C1786 0.950 . S
H1764 C1787 0.950 . S
H1765 C1789 0.950 . S
H1766 C1790 0.950 . S
H1767 C1791 0.951 . S
H1768 C1793 0.951 . S
H1769 C1795 0.950 . S
H1770 C1796 0.950 . S
H1771 C1798 0.950 . S
H1772 C1801 0.950 . S
H1773 C1802 0.950 . S
H1774 C1804 0.950 . S
H1775 C1805 0.950 . S
C1776 H1758 0.951 . S
C1776 C1777 1.366 . S
C1776 C1778 1.388 . S
C1777 C1776 1.366 . S
C1777 C1781 1.385 . S
C1778 H1759 0.951 . S
C1778 C1776 1.388 . S
C1778 C1779 1.366 . S
C1779 C1778 1.366 . S
C1779 C1780 1.414 . S
C1779 C1782 1.499 . S
C1780 H1760 0.950 . S
C1780 C1779 1.414 . S
C1780 C1781 1.374 . S
C1781 H1761 0.950 . S
C1781 C1777 1.385 . S
C1781 C1780 1.374 . S
C1782 C1779 1.499 . S
C1782 C1783 1.373 . S
C1782 C1784 1.389 . S
C1783 H1762 0.950 . S
C1783 C1782 1.373 . S
C1783 C1799 1.377 1_655 S
C1784 C1782 1.389 . S
C1784 C1785 1.524 . S
C1784 C1798 1.377 1_655 S
C1785 C1784 1.524 . S
C1785 C1786 1.397 . S
C1785 C1790 1.363 . S
C1786 H1763 0.950 . S
C1786 C1785 1.397 . S
C1786 C1787 1.334 . S
C1787 H1764 0.950 . S
C1787 C1786 1.334 . S
C1787 C1788 1.287 . S
C1788 C1787 1.287 . S
C1788 C1789 1.524 . S
C1788 H1807 0.913 . S
C1789 H1765 0.950 . S
C1789 C1788 1.524 . S
C1789 C1790 1.415 . S
C1790 H1766 0.950 . S
C1790 C1785 1.363 . S
C1790 C1789 1.415 . S
C1791 H1767 0.951 . S
C1791 C1792 1.366 . S
C1791 C1793 1.388 . S
C1792 C1791 1.366 . S
C1792 C1796 1.385 . S
C1793 H1768 0.951 . S
C1793 C1791 1.388 . S
C1793 C1794 1.366 . S
C1794 C1793 1.366 . S
C1794 C1795 1.414 . S
C1794 C1797 1.499 . S
C1795 H1769 0.950 . S
C1795 C1794 1.414 . S
C1795 C1796 1.374 . S
C1796 H1770 0.950 . S
C1796 C1792 1.385 . S
C1796 C1795 1.374 . S
C1797 C1794 1.499 . S
C1797 C1798 1.373 . S
C1797 C1799 1.389 . S
C1798 H1771 0.950 . S
C1798 C1784 1.377 1_455 S
C1798 C1797 1.373 . S
C1799 C1783 1.377 1_455 S
C1799 C1797 1.389 . S
C1799 C1800 1.524 . S
C1800 C1799 1.524 . S
C1800 C1801 1.397 . S
C1800 C1805 1.363 . S
C1801 H1772 0.950 . S
C1801 C1800 1.397 . S
C1801 C1802 1.334 . S
C1802 H1773 0.950 . S
C1802 C1801 1.334 . S
C1802 C1803 1.287 . S
C1803 C1802 1.287 . S
C1803 C1804 1.524 . S
C1803 H1806 0.999 . S
C1804 H1774 0.950 . S
C1804 C1803 1.524 . S
C1804 C1805 1.415 . S
C1805 H1775 0.950 . S
C1805 C1800 1.363 . S
C1805 C1804 1.415 . S
H1806 C1803 0.999 . S
H1807 C1788 0.913 . S
H1808 C1826 0.951 . S
H1809 C1828 0.951 . S
H1810 C1830 0.950 . S
H1811 C1831 0.950 . S
H1812 C1833 0.950 . S
H1813 C1836 0.950 . S
H1814 C1837 0.950 . S
H1815 C1839 0.950 . S
H1816 C1840 0.950 . S
H1817 C1841 0.951 . S
H1818 C1843 0.951 . S
H1819 C1845 0.950 . S
H1820 C1846 0.950 . S
H1821 C1848 0.950 . S
H1822 C1851 0.950 . S
H1823 C1852 0.950 . S
H1824 C1854 0.950 . S
H1825 C1855 0.950 . S
C1826 H1808 0.951 . S
C1826 C1827 1.366 . S
C1826 C1828 1.388 . S
C1827 C1826 1.366 . S
C1827 C1831 1.385 . S
C1828 H1809 0.951 . S
C1828 C1826 1.388 . S
C1828 C1829 1.366 . S
C1829 C1828 1.366 . S
C1829 C1830 1.414 . S
C1829 C1832 1.499 . S
C1830 H1810 0.950 . S
C1830 C1829 1.414 . S
C1830 C1831 1.374 . S
C1831 H1811 0.950 . S
C1831 C1827 1.385 . S
C1831 C1830 1.374 . S
C1832 C1829 1.499 . S
C1832 C1833 1.373 . S
C1832 C1834 1.389 . S
C1833 H1812 0.950 . S
C1833 C1832 1.373 . S
C1833 C1849 1.377 1_565 S
C1834 C1832 1.389 . S
C1834 C1835 1.524 . S
C1834 C1848 1.377 1_565 S
C1835 C1834 1.524 . S
C1835 C1836 1.397 . S
C1835 C1840 1.363 . S
C1836 H1813 0.950 . S
C1836 C1835 1.397 . S
C1836 C1837 1.334 . S
C1837 H1814 0.950 . S
C1837 C1836 1.334 . S
C1837 C1838 1.287 . S
C1838 C1837 1.287 . S
C1838 C1839 1.524 . S
C1838 H1857 0.913 . S
C1839 H1815 0.950 . S
C1839 C1838 1.524 . S
C1839 C1840 1.415 . S
C1840 H1816 0.950 . S
C1840 C1835 1.363 . S
C1840 C1839 1.415 . S
C1841 H1817 0.951 . S
C1841 C1842 1.366 . S
C1841 C1843 1.388 . S
C1842 C1841 1.366 . S
C1842 C1846 1.385 . S
C1843 H1818 0.951 . S
C1843 C1841 1.388 . S
C1843 C1844 1.366 . S
C1844 C1843 1.366 . S
C1844 C1845 1.414 . S
C1844 C1847 1.499 . S
C1845 H1819 0.950 . S
C1845 C1844 1.414 . S
C1845 C1846 1.374 . S
C1846 H1820 0.950 . S
C1846 C1842 1.385 . S
C1846 C1845 1.374 . S
C1847 C1844 1.499 . S
C1847 C1848 1.373 . S
C1847 C1849 1.389 . S
C1848 H1821 0.950 . S
C1848 C1834 1.377 1_545 S
C1848 C1847 1.373 . S
C1849 C1833 1.377 1_545 S
C1849 C1847 1.389 . S
C1849 C1850 1.524 . S
C1850 C1849 1.524 . S
C1850 C1851 1.397 . S
C1850 C1855 1.363 . S
C1851 H1822 0.950 . S
C1851 C1850 1.397 . S
C1851 C1852 1.334 . S
C1852 H1823 0.950 . S
C1852 C1851 1.334 . S
C1852 C1853 1.287 . S
C1853 C1852 1.287 . S
C1853 C1854 1.524 . S
C1853 H1856 0.999 . S
C1854 H1824 0.950 . S
C1854 C1853 1.524 . S
C1854 C1855 1.415 . S
C1855 H1825 0.950 . S
C1855 C1850 1.363 . S
C1855 C1854 1.415 . S
H1856 C1853 0.999 . S
H1857 C1838 0.913 . S
H1858 C1876 0.951 . S
H1859 C1878 0.951 . S
H1860 C1880 0.950 . S
H1861 C1881 0.950 . S
H1862 C1883 0.950 . S
H1863 C1886 0.950 . S
H1864 C1887 0.950 . S
H1865 C1889 0.950 . S
H1866 C1890 0.950 . S
H1867 C1891 0.951 . S
H1868 C1893 0.951 . S
H1869 C1895 0.950 . S
H1870 C1896 0.950 . S
H1871 C1898 0.950 . S
H1872 C1901 0.950 . S
H1873 C1902 0.950 . S
H1874 C1904 0.950 . S
H1875 C1905 0.950 . S
C1876 H1858 0.951 . S
C1876 C1877 1.366 . S
C1876 C1878 1.388 . S
C1877 C1876 1.366 . S
C1877 C1881 1.385 . S
C1878 H1859 0.951 . S
C1878 C1876 1.388 . S
C1878 C1879 1.366 . S
C1879 C1878 1.366 . S
C1879 C1880 1.414 . S
C1879 C1882 1.499 . S
C1880 H1860 0.950 . S
C1880 C1879 1.414 . S
C1880 C1881 1.374 . S
C1881 H1861 0.950 . S
C1881 C1877 1.385 . S
C1881 C1880 1.374 . S
C1882 C1879 1.499 . S
C1882 C1883 1.373 . S
C1882 C1884 1.389 . S
C1883 H1862 0.950 . S
C1883 C1882 1.373 . S
C1883 C1899 1.377 . S
C1884 C1882 1.389 . S
C1884 C1885 1.524 . S
C1884 C1898 1.377 . S
C1885 C1884 1.524 . S
C1885 C1886 1.397 . S
C1885 C1890 1.363 . S
C1886 H1863 0.950 . S
C1886 C1885 1.397 . S
C1886 C1887 1.334 . S
C1887 H1864 0.950 . S
C1887 C1886 1.334 . S
C1887 C1888 1.287 . S
C1888 C1887 1.287 . S
C1888 C1889 1.524 . S
C1888 H1907 0.913 . S
C1889 H1865 0.950 . S
C1889 C1888 1.524 . S
C1889 C1890 1.415 . S
C1890 H1866 0.950 . S
C1890 C1885 1.363 . S
C1890 C1889 1.415 . S
C1891 H1867 0.951 . S
C1891 C1892 1.366 . S
C1891 C1893 1.388 . S
C1892 C1891 1.366 . S
C1892 C1896 1.385 . S
C1893 H1868 0.951 . S
C1893 C1891 1.388 . S
C1893 C1894 1.366 . S
C1894 C1893 1.366 . S
C1894 C1895 1.414 . S
C1894 C1897 1.499 . S
C1895 H1869 0.950 . S
C1895 C1894 1.414 . S
C1895 C1896 1.374 . S
C1896 H1870 0.950 . S
C1896 C1892 1.385 . S
C1896 C1895 1.374 . S
C1897 C1894 1.499 . S
C1897 C1898 1.373 . S
C1897 C1899 1.389 . S
C1898 H1871 0.950 . S
C1898 C1884 1.377 . S
C1898 C1897 1.373 . S
C1899 C1883 1.377 . S
C1899 C1897 1.389 . S
C1899 C1900 1.524 . S
C1900 C1899 1.524 . S
C1900 C1901 1.397 . S
C1900 C1905 1.363 . S
C1901 H1872 0.950 . S
C1901 C1900 1.397 . S
C1901 C1902 1.334 . S
C1902 H1873 0.950 . S
C1902 C1901 1.334 . S
C1902 C1903 1.287 . S
C1903 C1902 1.287 . S
C1903 C1904 1.524 . S
C1903 H1906 0.999 . S
C1904 H1874 0.950 . S
C1904 C1903 1.524 . S
C1904 C1905 1.415 . S
C1905 H1875 0.950 . S
C1905 C1900 1.363 . S
C1905 C1904 1.415 . S
H1906 C1903 0.999 . S
H1907 C1888 0.913 . S
C727 C475 1.712 . S
C742 C3 1.712 . S
C777 C62 1.712 . S
C792 C534 1.712 . S
C827 C121 1.712 . S
C842 C593 1.712 . S
C877 C180 1.712 . S
C892 C652 1.712 . S
C927 C357 1.712 . S
C942 C239 1.712 . S
C977 C298 1.712 . S
C992 C416 1.712 . S
C1027 C229 1.209 . S
C1042 C52 1.209 . S
C1077 C288 1.209 . S
C1092 C111 1.209 . S
C1127 C347 1.209 . S
C1142 C170 1.209 . S
C1177 C406 1.210 . S
C1192 C583 1.209 . S
C1227 C465 1.209 . S
C1242 C642 1.209 . S
C1277 C524 1.209 . S
C1292 C701 1.210 . S
C1327 C33 1.599 . S
C1342 C564 1.599 . S
C1377 C92 1.599 . S
C1392 C623 1.599 . S
C1427 C151 1.599 . S
C1442 C682 1.599 . S
C1477 C387 1.599 . S
C1492 C210 1.599 . S
C1527 C269 1.599 . S
C1542 C446 1.599 . S
C1577 C505 1.599 . S
C1592 C328 1.599 . S
C1627 C654 1.285 . S
C1642 C5 1.285 . S
C1677 C64 1.285 . S
C1692 C359 1.285 . S
C1727 C418 1.285 . S
C1742 C123 1.286 . S
C1777 C182 1.285 . S
C1792 C477 1.285 . S
C1827 C241 1.285 . S
C1842 C536 1.285 . S
C1877 C595 1.286 . S
C1892 C300 1.286 . S
