# Generated by pormake.
# Topology wft, (7)-cn, num edge types: 1
# Building blocks:
#     Node 0, Type 0, BuildingBlock: HICVOG_clean_sbu_0, # of connection points: 7
#     Node 1, Type 0, BuildingBlock: HICVOG_clean_sbu_0, # of connection points: 7
#     Node 2, Type 0, BuildingBlock: HICVOG_clean_sbu_0, # of connection points: 7
#     Node 3, Type 0, BuildingBlock: HICVOG_clean_sbu_0, # of connection points: 7
#     Node 4, Type 0, BuildingBlock: HICVOG_clean_sbu_0, # of connection points: 7
#     Node 5, Type 0, BuildingBlock: HICVOG_clean_sbu_0, # of connection points: 7
#     Node 6, Type 0, BuildingBlock: HICVOG_clean_sbu_0, # of connection points: 7
#     Node 7, Type 0, BuildingBlock: HICVOG_clean_sbu_0, # of connection points: 7
#     Edge 8, Type (0, 0), BuildingBlock: XIVTED_clean_linker_0, # of connection points: 2
#     Edge 9, Type (0, 0), BuildingBlock: XIVTED_clean_linker_0, # of connection points: 2
#     Edge 10, Type (0, 0), BuildingBlock: XIVTED_clean_linker_0, # of connection points: 2
#     Edge 11, Type (0, 0), BuildingBlock: XIVTED_clean_linker_0, # of connection points: 2
#     Edge 12, Type (0, 0), BuildingBlock: XIVTED_clean_linker_0, # of connection points: 2
#     Edge 13, Type (0, 0), BuildingBlock: XIVTED_clean_linker_0, # of connection points: 2
#     Edge 14, Type (0, 0), BuildingBlock: XIVTED_clean_linker_0, # of connection points: 2
#     Edge 15, Type (0, 0), BuildingBlock: XIVTED_clean_linker_0, # of connection points: 2
#     Edge 16, Type (0, 0), BuildingBlock: XIVTED_clean_linker_0, # of connection points: 2
#     Edge 17, Type (0, 0), BuildingBlock: XIVTED_clean_linker_0, # of connection points: 2
#     Edge 18, Type (0, 0), BuildingBlock: XIVTED_clean_linker_0, # of connection points: 2
#     Edge 19, Type (0, 0), BuildingBlock: XIVTED_clean_linker_0, # of connection points: 2
#     Edge 20, Type (0, 0), BuildingBlock: XIVTED_clean_linker_0, # of connection points: 2
#     Edge 21, Type (0, 0), BuildingBlock: XIVTED_clean_linker_0, # of connection points: 2
#     Edge 22, Type (0, 0), BuildingBlock: XIVTED_clean_linker_0, # of connection points: 2
#     Edge 23, Type (0, 0), BuildingBlock: XIVTED_clean_linker_0, # of connection points: 2
#     Edge 24, Type (0, 0), BuildingBlock: XIVTED_clean_linker_0, # of connection points: 2
#     Edge 25, Type (0, 0), BuildingBlock: XIVTED_clean_linker_0, # of connection points: 2
#     Edge 26, Type (0, 0), BuildingBlock: XIVTED_clean_linker_0, # of connection points: 2
#     Edge 27, Type (0, 0), BuildingBlock: XIVTED_clean_linker_0, # of connection points: 2
#     Edge 28, Type (0, 0), BuildingBlock: XIVTED_clean_linker_0, # of connection points: 2
#     Edge 29, Type (0, 0), BuildingBlock: XIVTED_clean_linker_0, # of connection points: 2
#     Edge 30, Type (0, 0), BuildingBlock: XIVTED_clean_linker_0, # of connection points: 2
#     Edge 31, Type (0, 0), BuildingBlock: XIVTED_clean_linker_0, # of connection points: 2
#     Edge 32, Type (0, 0), BuildingBlock: XIVTED_clean_linker_0, # of connection points: 2
#     Edge 33, Type (0, 0), BuildingBlock: XIVTED_clean_linker_0, # of connection points: 2
#     Edge 34, Type (0, 0), BuildingBlock: XIVTED_clean_linker_0, # of connection points: 2
#     Edge 35, Type (0, 0), BuildingBlock: XIVTED_clean_linker_0, # of connection points: 2
# Relax obj value: 0.197
# Max RMSD: 0.212
# Mean RMSD: 0.212
data_MOF--net-wft--node1-HICVOG_clean_sbu_0--edge1-XIVTED_clean_linker_0
_symmetry_space_group_name_H-M    P1
_symmetry_Int_Tables_number       1
_symmetry_cell_setting            triclinic
loop_
_symmetry_equiv_pos_as_xyz
'x, y, z'
_cell_length_a     32.06395
_cell_length_b     31.977862
_cell_length_c     30.490833
_cell_angle_alpha  89.867394
_cell_angle_beta   90.146667
_cell_angle_gamma 89.820483
loop_
_atom_site_label
_atom_site_type_symbol
_atom_site_fract_x
_atom_site_fract_y
_atom_site_fract_z
_atom_type_partial_charge
Zn0 Zn 0.32581 0.30978 0.3548 0.0
C1 C 0.3315 0.29007 0.22421 0.0
N2 N 0.28971 0.2928 0.22674 0.0
C3 C 0.28281 0.29319 0.27013 0.0
N4 N 0.31902 0.29273 0.29319 0.0
N5 N 0.34977 0.28924 0.26414 0.0
C6 C 0.47872 0.29603 0.22874 0.0
O7 O 0.47157 0.33127 0.2495 0.0
O8 O 0.3046 0.26744 0.39905 0.0
Zn9 Zn 0.40597 0.2682 0.27834 0.0
N10 N 0.30214 0.36566 0.36337 0.0
C11 C 0.27072 0.42682 0.33291 0.0
C12 C 0.28313 0.38532 0.32909 0.0
C13 C 0.31067 0.38684 0.40116 0.0
N14 N 0.27983 0.448 0.37009 0.0
C15 C 0.29991 0.4295 0.40442 0.0
O16 O 0.43439 0.29627 0.32864 0.0
C17 C 0.42345 0.31279 0.36456 0.0
O18 O 0.38525 0.31716 0.37441 0.0
H19 H 0.27927 0.36991 0.29815 0.0
H20 H 0.32788 0.37131 0.42711 0.0
C21 C 0.42775 0.18217 0.28395 0.0
C22 C 0.42375 0.14035 0.29745 0.0
C23 C 0.3613 0.15829 0.33483 0.0
C24 C 0.36591 0.19984 0.32193 0.0
N25 N 0.39886 0.21086 0.29651 0.0
N26 N 0.39023 0.12961 0.32238 0.0
H27 H 0.45331 0.19201 0.26343 0.0
C28 C 0.27288 0.27061 0.42377 0.0
O29 O 0.24645 0.30153 0.41744 0.0
O30 O 0.45127 0.26725 0.23054 0.0
H31 H 0.34348 0.22305 0.33216 0.0
H32 H 0.25546 0.44264 0.30585 0.0
H33 H 0.33513 0.14893 0.35486 0.0
Zn34 Zn 0.26958 0.65227 0.73268 0.0
C35 C 0.29605 0.7748 0.73998 0.0
N36 N 0.29502 0.76847 0.78348 0.0
C37 C 0.29165 0.72667 0.78677 0.0
N38 N 0.291 0.70793 0.74711 0.0
N39 N 0.29538 0.73828 0.71757 0.0
C40 C 0.27133 0.78114 0.58582 0.0
O41 O 0.30048 0.80945 0.59124 0.0
O42 O 0.26737 0.6075 0.78089 0.0
Zn43 Zn 0.31314 0.73055 0.65633 0.0
N44 N 0.21316 0.66029 0.71186 0.0
C45 C 0.1625 0.7002 0.67278 0.0
C46 C 0.20313 0.6949 0.68805 0.0
C47 C 0.1843 0.63038 0.72047 0.0
N48 N 0.13368 0.67031 0.68129 0.0
C49 C 0.14337 0.63515 0.70453 0.0
O50 O 0.32284 0.67063 0.63792 0.0
C51 C 0.31769 0.63263 0.64886 0.0
O52 O 0.2993 0.62292 0.68416 0.0
H53 H 0.22638 0.71814 0.68078 0.0
H54 H 0.19336 0.60342 0.73972 0.0
C55 C 0.3881 0.75261 0.60907 0.0
C56 C 0.43005 0.7653 0.60592 0.0
C57 C 0.4283 0.78673 0.68032 0.0
C58 C 0.3877 0.77215 0.68391 0.0
N59 N 0.36778 0.75637 0.64816 0.0
N60 N 0.44863 0.78248 0.64175 0.0
H61 H 0.37259 0.73751 0.58183 0.0
C62 C 0.29784 0.58212 0.7855 0.0
O63 O 0.33375 0.59161 0.76744 0.0
O64 O 0.27033 0.74963 0.61131 0.0
H65 H 0.37325 0.77177 0.71563 0.0
H66 H 0.15398 0.72766 0.65396 0.0
H67 H 0.44423 0.79965 0.7085 0.0
Zn68 Zn 0.65231 0.78809 0.26757 0.0
C69 C 0.77258 0.75171 0.26301 0.0
N70 N 0.76655 0.75241 0.21944 0.0
C71 C 0.72514 0.75865 0.21595 0.0
N72 N 0.70642 0.76164 0.25549 0.0
N73 N 0.73636 0.75583 0.2852 0.0
C74 C 0.73944 0.80767 0.40596 0.0
O75 O 0.70291 0.81712 0.38901 0.0
O76 O 0.60486 0.7779 0.22278 0.0
Zn77 Zn 0.72964 0.73934 0.34669 0.0
N78 N 0.66377 0.84767 0.27332 0.0
C79 C 0.70913 0.90091 0.29964 0.0
C80 C 0.70059 0.85884 0.29211 0.0
C81 C 0.63548 0.87725 0.26099 0.0
N82 N 0.67987 0.93013 0.28952 0.0
C83 C 0.64278 0.91954 0.27083 0.0
O84 O 0.6708 0.73824 0.36865 0.0
C85 C 0.63397 0.75004 0.3596 0.0
O86 O 0.62562 0.7689 0.32399 0.0
H87 H 0.72303 0.83531 0.30171 0.0
H88 H 0.60751 0.86802 0.24407 0.0
C89 C 0.74224 0.66213 0.3933 0.0
C90 C 0.75028 0.61895 0.39727 0.0
C91 C 0.77161 0.61738 0.32282 0.0
C92 C 0.7623 0.6597 0.31864 0.0
N93 N 0.74825 0.68154 0.35393 0.0
N94 N 0.76499 0.59798 0.3617 0.0
H95 H 0.72931 0.67972 0.42036 0.0
C96 C 0.5695 0.79111 0.23643 0.0
O97 O 0.5674 0.80966 0.27471 0.0
O98 O 0.75971 0.77686 0.39016 0.0
H99 H 0.76499 0.67427 0.28697 0.0
H100 H 0.73829 0.91017 0.31459 0.0
H101 H 0.78284 0.59973 0.29499 0.0
Zn102 Zn 0.79141 0.40504 0.7377 0.0
C103 C 0.75926 0.28335 0.744 0.0
N104 N 0.762 0.28888 0.78752 0.0
C105 C 0.76691 0.33054 0.79114 0.0
N106 N 0.76769 0.34987 0.75172 0.0
N107 N 0.76149 0.32014 0.722 0.0
C108 C 0.80908 0.28916 0.60196 0.0
O109 O 0.83161 0.27113 0.63259 0.0
O110 O 0.79462 0.44939 0.78592 0.0
Zn111 Zn 0.7407 0.3299 0.66227 0.0
N112 N 0.84788 0.39506 0.7185 0.0
C113 C 0.89898 0.35217 0.68429 0.0
C114 C 0.85815 0.35867 0.69821 0.0
C115 C 0.87668 0.4255 0.72496 0.0
N116 N 0.92776 0.3826 0.69064 0.0
C117 C 0.91782 0.41945 0.71041 0.0
O118 O 0.73481 0.39007 0.64495 0.0
C119 C 0.74317 0.42771 0.65442 0.0
O120 O 0.76375 0.43667 0.68864 0.0
H121 H 0.83495 0.33493 0.69276 0.0
H122 H 0.86738 0.45384 0.74154 0.0
C123 C 0.66248 0.31405 0.61959 0.0
C124 C 0.61938 0.30569 0.61833 0.0
C125 C 0.62169 0.28735 0.69379 0.0
C126 C 0.66384 0.29733 0.69527 0.0
N127 N 0.68375 0.30962 0.6581 0.0
N128 N 0.60044 0.29218 0.65566 0.0
H129 H 0.67854 0.32633 0.5912 0.0
C130 C 0.76527 0.47616 0.78948 0.0
O131 O 0.72903 0.46784 0.77134 0.0
O132 O 0.77609 0.30917 0.61183 0.0
H133 H 0.67991 0.29675 0.72631 0.0
H134 H 0.9077 0.3233 0.66825 0.0
H135 H 0.60559 0.27729 0.72309 0.0
Zn136 Zn 0.90242 0.28919 0.23389 0.0
C137 C 0.78244 0.25514 0.24186 0.0
N138 N 0.78849 0.2616 0.28487 0.0
C139 C 0.83011 0.26633 0.2876 0.0
N140 N 0.84894 0.26327 0.24822 0.0
N141 N 0.81879 0.25548 0.21939 0.0
C142 C 0.81265 0.3065 0.10195 0.0
O143 O 0.84724 0.31798 0.12164 0.0
O144 O 0.95028 0.28618 0.27901 0.0
Zn145 Zn 0.82524 0.23709 0.15894 0.0
N146 N 0.8901 0.34774 0.22632 0.0
C147 C 0.84202 0.40335 0.21408 0.0
C148 C 0.85051 0.36075 0.21764 0.0
C149 C 0.92163 0.37555 0.23134 0.0
N150 N 0.87351 0.43119 0.21908 0.0
C151 C 0.91336 0.41856 0.22745 0.0
O152 O 0.8839 0.23663 0.13556 0.0
C153 C 0.92062 0.24943 0.14337 0.0
O154 O 0.9293 0.26921 0.17825 0.0
H155 H 0.82564 0.33841 0.21371 0.0
H156 H 0.95253 0.36401 0.23901 0.0
C157 C 0.8102 0.15828 0.11641 0.0
C158 C 0.80112 0.11524 0.11506 0.0
C159 C 0.78386 0.11715 0.19068 0.0
C160 C 0.79405 0.15935 0.19215 0.0
N161 N 0.80657 0.17935 0.15503 0.0
N162 N 0.78799 0.09608 0.15245 0.0
H163 H 0.8219 0.17451 0.08781 0.0
C164 C 0.978 0.25748 0.27744 0.0
O165 O 0.97073 0.22421 0.25345 0.0
O166 O 0.79421 0.27359 0.11524 0.0
H167 H 0.7931 0.17542 0.22311 0.0
H168 H 0.81067 0.41425 0.20735 0.0
H169 H 0.7738 0.10095 0.21997 0.0
Zn170 Zn 0.28326 0.14946 0.78717 0.0
C171 C 0.27216 0.27534 0.77651 0.0
N172 N 0.27857 0.26819 0.73368 0.0
C173 C 0.27883 0.22615 0.73146 0.0
N174 N 0.27236 0.2081 0.77098 0.0
N175 N 0.26773 0.2393 0.79936 0.0
C176 C 0.31434 0.27016 0.91092 0.0
O177 O 0.33942 0.25311 0.88213 0.0
O178 O 0.28387 0.10494 0.73866 0.0
Zn179 Zn 0.24433 0.23531 0.85823 0.0
N180 N 0.33873 0.1482 0.81124 0.0
C181 C 0.38377 0.16385 0.87096 0.0
C182 C 0.34449 0.1652 0.8515 0.0
C183 C 0.37039 0.12848 0.79002 0.0
N184 N 0.41537 0.14407 0.85 0.0
C185 C 0.40979 0.12579 0.81014 0.0
O186 O 0.23967 0.17708 0.8836 0.0
C187 C 0.23862 0.13843 0.87393 0.0
O188 O 0.24847 0.12543 0.83596 0.0
H189 H 0.31859 0.17931 0.86841 0.0
H190 H 0.36465 0.11461 0.75828 0.0
C191 C 0.16352 0.25153 0.89304 0.0
C192 C 0.1205 0.26033 0.89121 0.0
C193 C 0.12686 0.27475 0.81505 0.0
C194 C 0.16916 0.26492 0.81688 0.0
N195 N 0.18681 0.25403 0.85585 0.0
N196 N 0.10356 0.27188 0.85199 0.0
H197 H 0.17817 0.24083 0.92305 0.0
C198 C 0.2546 0.07826 0.73483 0.0
O199 O 0.21915 0.08532 0.75504 0.0
O200 O 0.27509 0.26917 0.9046 0.0
H201 H 0.18733 0.26483 0.78718 0.0
H202 H 0.38893 0.17752 0.90291 0.0
H203 H 0.1124 0.28356 0.78428 0.0
Zn204 Zn 0.229 0.80994 0.15486 0.0
C205 C 0.22173 0.7634 0.27805 0.0
N206 N 0.26283 0.75646 0.27308 0.0
C207 C 0.26991 0.76865 0.23154 0.0
N208 N 0.23461 0.78309 0.21212 0.0
N209 N 0.20409 0.77907 0.24126 0.0
C210 C 0.07461 0.79431 0.27901 0.0
O211 O 0.08091 0.83106 0.26091 0.0
O212 O 0.26381 0.78263 0.10692 0.0
Zn213 Zn 0.1457 0.76992 0.22513 0.0
N214 N 0.24353 0.86849 0.15949 0.0
C215 C 0.26089 0.92876 0.2011 0.0
C216 C 0.25385 0.88584 0.19866 0.0
C217 C 0.2392 0.89237 0.12277 0.0
N218 N 0.25651 0.95264 0.16448 0.0
C219 C 0.24578 0.93581 0.12502 0.0
O220 O 0.12098 0.80831 0.17969 0.0
C221 C 0.13278 0.81608 0.1408 0.0
O222 O 0.17085 0.81307 0.12961 0.0
H223 H 0.25625 0.86657 0.22776 0.0
H224 H 0.22917 0.87754 0.09272 0.0
C225 C 0.12263 0.68393 0.21506 0.0
C226 C 0.12124 0.64528 0.1933 0.0
C227 C 0.16561 0.6725 0.13809 0.0
C228 C 0.16603 0.711 0.15929 0.0
N229 N 0.1449 0.71587 0.19743 0.0
N230 N 0.14319 0.64066 0.15545 0.0
H231 H 0.10621 0.68874 0.24554 0.0
C232 C 0.26961 0.74363 0.10104 0.0
O233 O 0.25722 0.71685 0.13091 0.0
O234 O 0.10206 0.7658 0.27395 0.0
H235 H 0.18289 0.7369 0.14549 0.0
H236 H 0.26925 0.9431 0.23198 0.0
H237 H 0.18238 0.66809 0.10775 0.0
Zn238 Zn 0.76208 0.90237 0.76994 0.0
C239 C 0.79466 0.78139 0.76195 0.0
N240 N 0.79095 0.7879 0.71857 0.0
C241 C 0.78626 0.82968 0.71601 0.0
N242 N 0.78716 0.84815 0.75575 0.0
N243 N 0.79349 0.81764 0.78471 0.0
C244 C 0.74467 0.81404 0.90586 0.0
O245 O 0.73441 0.85028 0.88848 0.0
O246 O 0.76594 0.95005 0.72496 0.0
Zn247 Zn 0.81199 0.82385 0.8454 0.0
N248 N 0.70354 0.89164 0.77775 0.0
C249 C 0.64734 0.84547 0.79276 0.0
C250 C 0.68997 0.85284 0.78901 0.0
C251 C 0.6763 0.92349 0.77047 0.0
N252 N 0.62007 0.87729 0.78551 0.0
C253 C 0.63329 0.9164 0.77465 0.0
O254 O 0.81426 0.88275 0.86776 0.0
C255 C 0.80284 0.92004 0.85987 0.0
O256 O 0.78298 0.92942 0.82518 0.0
H257 H 0.71192 0.82776 0.79481 0.0
H258 H 0.68827 0.95373 0.76094 0.0
C259 C 0.8906 0.81089 0.88825 0.0
C260 C 0.93351 0.80156 0.89056 0.0
C261 C 0.93133 0.77826 0.81672 0.0
C262 C 0.8893 0.78881 0.8142 0.0
N263 N 0.86945 0.80434 0.85006 0.0
N264 N 0.95244 0.78519 0.85453 0.0
H265 H 0.87449 0.82512 0.91558 0.0
C266 C 0.79508 0.9769 0.72862 0.0
O267 O 0.82747 0.96763 0.7533 0.0
O268 O 0.77553 0.794 0.88996 0.0
H269 H 0.87336 0.78583 0.78332 0.0
H270 H 0.63599 0.81474 0.80147 0.0
H271 H 0.9474 0.76576 0.78846 0.0
H272 H 0.37178 0.22903 0.17729 0.0
H273 H 0.28328 0.32947 0.96621 0.0
H274 H 0.33409 0.35832 0.17353 0.0
H275 H 0.38086 0.23701 0.95536 0.0
H276 H 0.30307 0.34065 0.04284 0.0
H277 H 0.37981 0.23048 0.09693 0.0
C278 C 0.36717 0.25818 0.15972 0.0
C279 C 0.35262 0.29372 0.18172 0.0
C280 C 0.32073 0.31848 0.02347 0.0
C281 C 0.35961 0.29513 0.09049 0.0
C282 C 0.30935 0.31207 0.97981 0.0
C283 C 0.33042 0.28229 0.95452 0.0
C284 C 0.35254 0.29397 0.04242 0.0
C285 C 0.36392 0.26042 0.97376 0.0
C286 C 0.37129 0.25894 0.11393 0.0
C287 C 0.34572 0.33041 0.15754 0.0
N288 N 0.37338 0.26597 0.01692 0.0
N289 N 0.34833 0.32996 0.11315 0.0
H290 H 0.32416 0.77997 0.04422 0.0
H291 H 0.23098 0.68593 0.83379 0.0
H292 H 0.24165 0.67452 0.05736 0.0
H293 H 0.35906 0.72571 0.83839 0.0
H294 H 0.2318 0.67882 0.91438 0.0
H295 H 0.33575 0.76104 0.96742 0.0
C296 C 0.30904 0.75245 0.03107 0.0
C297 C 0.28199 0.72876 0.05709 0.0
C298 C 0.26014 0.6876 0.8975 0.0
C299 C 0.29403 0.70762 0.96905 0.0
C300 C 0.25976 0.69119 0.8516 0.0
C301 C 0.29514 0.70603 0.82973 0.0
C302 C 0.29573 0.70015 0.92112 0.0
C303 C 0.33131 0.71383 0.85425 0.0
C304 C 0.31568 0.74158 0.98733 0.0
C305 C 0.26292 0.69347 0.03839 0.0
N306 N 0.33043 0.71178 0.89868 0.0
N307 N 0.26853 0.68445 0.99515 0.0
H308 H 0.6941 0.86014 0.95971 0.0
H309 H 0.71895 0.69731 0.15662 0.0
H310 H 0.75353 0.73928 0.94951 0.0
H311 H 0.6905 0.82757 0.17614 0.0
H312 H 0.71054 0.70681 0.07757 0.0
H313 H 0.67374 0.84329 0.03498 0.0
C314 C 0.7022 0.8297 0.97293 0.0
C315 C 0.7261 0.80125 0.94835 0.0
C316 C 0.70501 0.73316 0.09906 0.0
C317 C 0.70266 0.78186 0.03457 0.0
C318 C 0.70925 0.72761 0.1442 0.0
C319 C 0.70502 0.76163 0.1727 0.0
C320 C 0.6972 0.77329 0.08219 0.0
C321 C 0.69341 0.80048 0.1551 0.0
C322 C 0.69063 0.82023 0.016 0.0
C323 C 0.73556 0.76234 0.96732 0.0
N324 N 0.69058 0.80548 0.11075 0.0
N325 N 0.72412 0.75396 0.00937 0.0
H326 H 0.83435 0.36814 0.82963 0.0
H327 H 0.85396 0.3679 0.05671 0.0
H328 H 0.70656 0.33327 0.85157 0.0
H329 H 0.74452 0.2899 0.05022 0.0
H330 H 0.84077 0.39092 0.98153 0.0
H331 H 0.84383 0.37603 0.90897 0.0
C332 C 0.8078 0.36421 0.85115 0.0
C333 C 0.76957 0.35047 0.83438 0.0
C334 C 0.81962 0.3688 0.99642 0.0
C335 C 0.78 0.35836 0.92505 0.0
C336 C 0.82686 0.35592 0.03966 0.0
C337 C 0.80074 0.32621 0.05962 0.0
C338 C 0.78601 0.35178 0.97292 0.0
C339 C 0.76585 0.31232 0.03604 0.0
C340 C 0.81316 0.36844 0.89659 0.0
C341 C 0.73641 0.34431 0.86347 0.0
N342 N 0.75977 0.32492 0.99389 0.0
N343 N 0.74257 0.34754 0.90736 0.0
H344 H 0.87779 0.21747 0.34103 0.0
H345 H 0.78894 0.34693 0.53999 0.0
H346 H 0.82292 0.34 0.32955 0.0
H347 H 0.86302 0.23548 0.55936 0.0
H348 H 0.80964 0.34839 0.46352 0.0
H349 H 0.88394 0.22748 0.42066 0.0
C350 C 0.86894 0.24726 0.35514 0.0
C351 C 0.85003 0.27811 0.32906 0.0
C352 C 0.82179 0.3237 0.48435 0.0
C353 C 0.85517 0.28913 0.4197 0.0
C354 C 0.80964 0.32265 0.5281 0.0
C355 C 0.82369 0.29058 0.55597 0.0
C356 C 0.84765 0.29199 0.46772 0.0
C357 C 0.85118 0.26053 0.53884 0.0
C358 C 0.87188 0.25277 0.4006 0.0
C359 C 0.83793 0.31566 0.34874 0.0
N360 N 0.86174 0.26154 0.49554 0.0
N361 N 0.84002 0.31985 0.39296 0.0
H362 H 0.2125 0.1963 0.68682 0.0
H363 H 0.33484 0.22276 0.46066 0.0
H364 H 0.34517 0.21404 0.67781 0.0
H365 H 0.2074 0.26185 0.48104 0.0
H366 H 0.33608 0.19335 0.53481 0.0
H367 H 0.20859 0.19247 0.60648 0.0
C368 C 0.24109 0.19705 0.66797 0.0
C369 C 0.27929 0.20497 0.68876 0.0
C370 C 0.30761 0.20759 0.52265 0.0
C371 C 0.27497 0.20191 0.59723 0.0
C372 C 0.30675 0.22433 0.48026 0.0
C373 C 0.2711 0.24548 0.46477 0.0
C374 C 0.2724 0.21141 0.54959 0.0
C375 C 0.23571 0.24635 0.49179 0.0
C376 C 0.23876 0.1956 0.62217 0.0
C377 C 0.31527 0.20728 0.66289 0.0
N378 N 0.23737 0.22995 0.53302 0.0
N379 N 0.31221 0.20629 0.61838 0.0
H380 H 0.18767 0.82923 0.32131 0.0
H381 H 0.22593 0.71623 0.55206 0.0
H382 H 0.21829 0.69873 0.33563 0.0
H383 H 0.25927 0.84454 0.52586 0.0
H384 H 0.19598 0.71144 0.47841 0.0
H385 H 0.18563 0.83573 0.40165 0.0
C386 C 0.19175 0.80149 0.34136 0.0
C387 C 0.20292 0.76331 0.32205 0.0
C388 C 0.20907 0.74087 0.4892 0.0
C389 C 0.20134 0.77062 0.4134 0.0
C390 C 0.22613 0.74375 0.53129 0.0
C391 C 0.24585 0.78072 0.54502 0.0
C392 C 0.21107 0.77534 0.46075 0.0
C393 C 0.24492 0.81529 0.5165 0.0
C394 C 0.19126 0.80537 0.38711 0.0
C395 C 0.20922 0.72858 0.34941 0.0
N396 N 0.22821 0.81165 0.47556 0.0
N397 N 0.20877 0.73312 0.39373 0.0
H398 H 0.84716 0.85817 0.66305 0.0
H399 H 0.81456 0.80058 0.44897 0.0
H400 H 0.71402 0.84373 0.67145 0.0
H401 H 0.69259 0.85699 0.46005 0.0
H402 H 0.82973 0.8219 0.52423 0.0
H403 H 0.84101 0.86639 0.58333 0.0
C404 C 0.81645 0.85844 0.64813 0.0
C405 C 0.78097 0.8507 0.67355 0.0
C406 C 0.80013 0.83082 0.50982 0.0
C407 C 0.77383 0.85749 0.58253 0.0
C408 C 0.79135 0.81831 0.46686 0.0
C409 C 0.75218 0.82672 0.44821 0.0
C410 C 0.76929 0.85146 0.53452 0.0
C411 C 0.72321 0.84971 0.47306 0.0
C412 C 0.81302 0.8622 0.6026 0.0
C413 C 0.74198 0.8502 0.6528 0.0
N414 N 0.732 0.86044 0.51521 0.0
N415 N 0.73945 0.85302 0.60833 0.0
H416 H 0.41146 0.05654 0.28797 0.0
H417 H 0.65371 1.00355 0.25944 0.0
H418 H 0.50818 0.15016 0.28209 0.0
H419 H 0.55704 0.91028 0.27075 0.0
H420 H 0.60005 0.05795 0.25925 0.0
H421 H 0.46382 1.00271 0.27382 0.0
C422 C 0.44361 0.06586 0.28338 0.0
C423 C 0.45519 0.10807 0.28598 0.0
C424 C 0.59063 1.02551 0.26116 0.0
C425 C 0.51544 0.04649 0.2699 0.0
C426 C 0.62126 0.9944 0.26125 0.0
C427 C 0.61013 0.95211 0.26484 0.0
C428 C 0.54849 1.01432 0.26508 0.0
C429 C 0.56746 0.94221 0.26705 0.0
C430 C 0.47349 0.0351 0.27516 0.0
C431 C 0.49739 0.11825 0.27957 0.0
N432 N 0.53832 0.97309 0.26747 0.0
N433 N 0.52596 0.08765 0.27209 0.0
H434 H 0.90811 0.50546 0.71404 0.0
H435 H 0.15313 0.54967 0.71524 0.0
H436 H 1.00194 0.40814 0.7165 0.0
H437 H 0.05922 0.64672 0.70819 0.0
H438 H 0.09821 0.49779 0.72231 0.0
H439 H 0.96296 0.55762 0.71844 0.0
C440 C 0.94012 0.49485 0.71628 0.0
C441 C 0.95029 0.45207 0.71531 0.0
C442 C 0.08963 0.53048 0.71959 0.0
C443 C 1.01348 0.51211 0.71926 0.0
C444 C 0.12107 0.56032 0.71596 0.0
C445 C 0.1109 0.60291 0.71148 0.0
C446 C 0.04768 0.54316 0.71852 0.0
C447 C 0.06857 0.61429 0.71136 0.0
C448 C 0.97154 0.52484 0.71838 0.0
C449 C 0.9926 0.4407 0.71697 0.0
N450 N 0.03855 0.58461 0.71471 0.0
N451 N 1.02261 0.47051 0.71876 0.0
H452 H 0.90567 0.49879 0.2562 0.0
H453 H 0.13575 0.56191 0.18396 0.0
H454 H 0.99685 0.41108 0.20687 0.0
H455 H 0.04586 0.64924 0.23633 0.0
H456 H 0.08803 0.50473 0.20046 0.0
H457 H 0.95915 0.55291 0.25697 0.0
C458 C 0.937 0.49079 0.2459 0.0
C459 C 0.94667 0.45026 0.23152 0.0
C460 C 0.07899 0.53635 0.20893 0.0
C461 C 1.00804 0.51212 0.23214 0.0
C462 C 0.10621 0.569 0.19947 0.0
C463 C 0.09488 0.61043 0.20879 0.0
C464 C 0.03985 0.54523 0.22729 0.0
C465 C 0.0563 0.61782 0.22911 0.0
C466 C 0.96757 0.52167 0.24652 0.0
C467 C 0.9879 0.44161 0.21886 0.0
N468 N 0.02999 0.58555 0.23723 0.0
N469 N 1.01694 0.4724 0.21911 0.0
H470 H 0.493 0.14064 0.81688 0.0
H471 H 0.55306 0.90932 0.74597 0.0
H472 H 0.40491 0.05287 0.76261 0.0
H473 H 0.64232 1.00077 0.79081 0.0
H474 H 0.49983 0.96404 0.74315 0.0
H475 H 0.54969 0.09294 0.798 0.0
C476 C 0.48567 0.11165 0.80028 0.0
C477 C 0.44418 0.10072 0.79144 0.0
C478 C 0.53124 0.97223 0.75296 0.0
C479 C 0.50877 0.04559 0.77044 0.0
C480 C 0.5616 0.94097 0.75476 0.0
C481 C 0.60226 0.95033 0.76865 0.0
C482 C 0.54145 1.01311 0.76573 0.0
C483 C 0.61164 0.99198 0.77934 0.0
C484 C 0.51803 0.08441 0.78951 0.0
C485 C 0.43642 0.06286 0.76969 0.0
N486 N 0.58134 1.02168 0.77809 0.0
N487 N 0.4684 0.03637 0.76052 0.0
H488 H 0.53941 0.3511 0.20329 0.0
H489 H 0.72278 0.19794 0.26108 0.0
H490 H 0.51784 0.21944 0.22342 0.0
H491 H 0.74434 0.30879 0.18421 0.0
H492 H 0.6479 0.20404 0.24591 0.0
H493 H 0.61401 0.33649 0.1942 0.0
C494 C 0.5502 0.319 0.2049 0.0
C495 C 0.52212 0.2865 0.21417 0.0
C496 C 0.669 0.22646 0.23132 0.0
C497 C 0.60795 0.26967 0.20501 0.0
C498 C 0.71179 0.2228 0.23974 0.0
C499 C 0.73986 0.25234 0.22301 0.0
C500 C 0.65379 0.26092 0.2074 0.0
C501 C 0.72384 0.28475 0.19675 0.0
C502 C 0.59286 0.31068 0.19973 0.0
C503 C 0.53811 0.24551 0.21611 0.0
N504 N 0.68181 0.28867 0.19045 0.0
N505 N 0.57995 0.2384 0.21248 0.0
H506 H 0.211 0.33228 0.75962 0.0
H507 H 0.35558 0.52452 0.81332 0.0
H508 H 0.32792 0.31759 0.82752 0.0
H509 H 0.22379 0.53889 0.78874 0.0
H510 H 0.34534 0.44917 0.8227 0.0
H511 H 0.21337 0.40758 0.77361 0.0
C512 C 0.23638 0.34473 0.77904 0.0
C513 C 0.26849 0.31838 0.794 0.0
C514 C 0.31851 0.46885 0.81608 0.0
C515 C 0.2728 0.40515 0.80793 0.0
C516 C 0.32433 0.51197 0.81077 0.0
C517 C 0.29055 0.53823 0.80014 0.0
C518 C 0.27872 0.45151 0.80977 0.0
C519 C 0.25077 0.52002 0.7971 0.0
C520 C 0.23796 0.38785 0.78667 0.0
C521 C 0.30173 0.33653 0.81704 0.0
N522 N 0.24611 0.4778 0.80108 0.0
N523 N 0.30334 0.37881 0.82277 0.0
H524 H 0.53286 0.71678 0.21524 0.0
H525 H 0.30996 0.82526 0.17678 0.0
H526 H 0.51477 0.85011 0.20843 0.0
H527 H 0.32785 0.70817 0.24426 0.0
H528 H 0.38508 0.82795 0.16212 0.0
H529 H 0.45825 0.70706 0.19901 0.0
C530 C 0.51356 0.74389 0.20836 0.0
C531 C 0.52992 0.78427 0.21265 0.0
C532 C 0.37231 0.80126 0.17932 0.0
C533 C 0.44478 0.77354 0.1949 0.0
C534 C 0.3293 0.79968 0.18758 0.0
C535 C 0.31254 0.7669 0.21248 0.0
C536 C 0.39854 0.76931 0.19532 0.0
C537 C 0.33951 0.73438 0.22543 0.0
C538 C 0.47095 0.73839 0.19967 0.0
C539 C 0.50332 0.81846 0.20488 0.0
N540 N 0.38109 0.73652 0.21703 0.0
N541 N 0.46202 0.81238 0.19671 0.0
H542 H 0.74542 0.7455 0.82486 0.0
H543 H 0.84106 0.51602 0.78831 0.0
H544 H 0.84829 0.71947 0.73854 0.0
H545 H 0.71087 0.53746 0.81593 0.0
H546 H 0.85305 0.59161 0.79197 0.0
H547 H 0.74179 0.67047 0.84322 0.0
C548 C 0.76823 0.72423 0.81112 0.0
C549 C 0.79768 0.7387 0.78078 0.0
C550 C 0.82203 0.57964 0.7981 0.0
C551 C 0.79339 0.6531 0.80099 0.0
C552 C 0.81519 0.53642 0.79639 0.0
C553 C 0.77478 0.52024 0.80161 0.0
C554 C 0.78845 0.60696 0.80584 0.0
C555 C 0.74247 0.54851 0.8115 0.0
C556 C 0.76579 0.68142 0.8211 0.0
C557 C 0.82542 0.70958 0.76245 0.0
N558 N 0.74992 0.59044 0.81308 0.0
N559 N 0.82265 0.66826 0.77283 0.0
H560 H 1.0165 0.33328 0.28896 0.0
H561 H 0.24608 0.23954 0.32913 0.0
H562 H 0.03937 0.20058 0.29823 0.0
H563 H 0.22076 0.34694 0.24777 0.0
H564 H 0.17039 0.23239 0.34234 0.0
H565 H 0.09143 0.34569 0.29872 0.0
C566 C 0.03702 0.30677 0.2943 0.0
C567 C 1.02149 0.26575 0.2926 0.0
C568 C 0.18166 0.25814 0.32257 0.0
C569 C 0.10745 0.2799 0.30404 0.0
C570 C 0.22478 0.26253 0.3155 0.0
C571 C 0.23972 0.29432 0.28795 0.0
C572 C 0.15353 0.28625 0.30257 0.0
C573 C 0.21061 0.32237 0.26975 0.0
C574 C 0.07986 0.31391 0.29955 0.0
C575 C 0.04993 0.23268 0.29915 0.0
N576 N 0.16909 0.31778 0.27742 0.0
N577 N 0.09149 0.24043 0.30441 0.0
H578 H 0.19893 1.01823 0.70848 0.0
H579 H 0.3521 0.83496 0.76005 0.0
H580 H 0.33072 0.03961 0.72536 0.0
H581 H 0.24235 0.81297 0.68191 0.0
H582 H 0.34569 0.90987 0.7455 0.0
H583 H 0.21342 0.94379 0.6962 0.0
C584 C 0.231 1.00748 0.70868 0.0
C585 C 0.26361 0.03536 0.71818 0.0
C586 C 0.32356 0.88873 0.73049 0.0
C587 C 0.28029 0.94981 0.7052 0.0
C588 C 0.32737 0.84588 0.73857 0.0
C589 C 0.29824 0.81763 0.72137 0.0
C590 C 0.28921 0.90392 0.70659 0.0
C591 C 0.266 0.83364 0.69494 0.0
C592 C 0.23923 0.96493 0.70164 0.0
C593 C 0.30455 1.01946 0.7181 0.0
N594 N 0.26178 0.87584 0.68912 0.0
N595 N 0.3116 0.97772 0.71269 0.0
H596 H 0.80734 0.80521 0.32257 0.0
H597 H 0.03865 0.71653 0.28357 0.0
H598 H 0.83495 0.69708 0.2438 0.0
H599 H 1.01205 0.84704 0.30593 0.0
H600 H 0.96423 0.70109 0.29154 0.0
H601 H 0.88224 0.81229 0.33905 0.0
C602 C 0.82897 0.78198 0.31027 0.0
C603 C 0.81498 0.75013 0.28236 0.0
C604 C 0.97485 0.73298 0.29556 0.0
C605 C 0.90048 0.7584 0.3003 0.0
C606 C 1.01741 0.74182 0.29132 0.0
C607 C 0.03172 0.78326 0.29368 0.0
C608 C 0.94633 0.76566 0.30296 0.0
C609 C 1.00245 0.8147 0.30353 0.0
C610 C 0.87171 0.78638 0.31912 0.0
C611 C 0.8445 0.72183 0.26579 0.0
N612 N 0.96118 0.80532 0.30752 0.0
N613 N 0.88578 0.72665 0.2749 0.0
H614 H 0.82721 0.24433 0.71183 0.0
H615 H 0.72085 1.0174 0.71105 0.0
H616 H 0.69744 0.22421 0.73979 0.0
H617 H 0.85353 0.03827 0.71807 0.0
H618 H 0.71 0.09316 0.70398 0.0
H619 H 0.83524 0.1696 0.69611 0.0
C620 C 0.7999 0.22449 0.71234 0.0
C621 C 0.76111 0.24098 0.72453 0.0
C622 C 0.74151 0.08107 0.70634 0.0
C623 C 0.77044 0.15469 0.70945 0.0
C624 C 0.74779 0.03774 0.71 0.0
C625 C 0.78823 1.0213 0.7153 0.0
C626 C 0.77591 0.10825 0.70751 0.0
C627 C 0.82181 0.04943 0.71424 0.0
C628 C 0.80465 0.18165 0.70432 0.0
C629 C 0.72744 0.21322 0.72842 0.0
N630 N 0.8149 0.09136 0.71072 0.0
N631 N 0.73286 0.1715 0.72095 0.0
H632 H 0.32538 0.51002 0.40155 0.0
H633 H 0.3075 0.54769 0.65825 0.0
H634 H 0.30211 0.40965 0.49298 0.0
H635 H 0.34936 0.64104 0.56584 0.0
H636 H 0.31148 0.49502 0.60037 0.0
H637 H 0.33953 0.55662 0.46267 0.0
C638 C 0.32346 0.49771 0.43462 0.0
C639 C 0.31221 0.45595 0.44214 0.0
C640 C 0.32039 0.52689 0.59297 0.0
C641 C 0.32816 0.5095 0.51274 0.0
C642 C 0.31822 0.55706 0.62603 0.0
C643 C 0.32752 0.59914 0.61683 0.0
C644 C 0.33168 0.53889 0.55031 0.0
C645 C 0.34145 0.60918 0.5745 0.0
C646 C 0.33176 0.52435 0.46958 0.0
C647 C 0.31079 0.4416 0.48568 0.0
N648 N 0.34255 0.57944 0.54276 0.0
N649 N 0.31811 0.46853 0.51944 0.0
H650 H 0.64164 0.71583 0.4415 0.0
H651 H 0.40851 0.76946 0.51777 0.0
H652 H 0.55089 0.7722 0.35449 0.0
H653 H 0.51129 0.7427 0.6052 0.0
H654 H 0.45577 0.75973 0.45502 0.0
H655 H 0.58929 0.71378 0.49906 0.0
C656 C 0.61061 0.7275 0.43428 0.0
C657 C 0.60092 0.74473 0.39311 0.0
C658 C 0.46773 0.75576 0.48802 0.0
C659 C 0.54061 0.74263 0.45935 0.0
C660 C 0.44078 0.76108 0.52375 0.0
C661 C 0.45609 0.75714 0.56677 0.0
C662 C 0.50995 0.74592 0.49556 0.0
C663 C 0.49825 0.74659 0.57265 0.0
C664 C 0.5807 0.72642 0.46731 0.0
C665 C 0.55994 0.75904 0.38583 0.0
N666 N 0.52358 0.7414 0.53758 0.0
N667 N 0.53133 0.75795 0.41875 0.0
H668 H 0.7639 0.51125 0.65713 0.0
H669 H 0.72001 0.54018 0.4022 0.0
H670 H 0.70193 0.41965 0.57623 0.0
H671 H 0.75991 0.6424 0.48416 0.0
H672 H 0.70997 0.49736 0.4673 0.0
H673 H 0.75865 0.56172 0.59677 0.0
C674 C 0.74858 0.50191 0.62702 0.0
C675 C 0.73386 0.46085 0.62163 0.0
C676 C 0.72053 0.52927 0.4713 0.0
C677 C 0.72821 0.51838 0.55233 0.0
C678 C 0.72646 0.55371 0.43404 0.0
C679 C 0.74102 0.59487 0.43768 0.0
C680 C 0.72987 0.54568 0.51283 0.0
C681 C 0.74843 0.61088 0.47986 0.0
C682 C 0.74569 0.53076 0.59254 0.0
C683 C 0.71418 0.4507 0.58187 0.0
N684 N 0.74328 0.58604 0.51584 0.0
N685 N 0.71243 0.47904 0.5487 0.0
H686 H 0.50826 0.30061 0.3594 0.0
H687 H 0.53872 0.33133 0.61673 0.0
H688 H 0.41214 0.34534 0.4467 0.0
H689 H 0.64009 0.29848 0.53035 0.0
H690 H 0.49362 0.34117 0.55333 0.0
H691 H 0.55872 0.30533 0.41947 0.0
C692 C 0.49783 0.31203 0.39096 0.0
C693 C 0.45566 0.32206 0.3981 0.0
C694 C 0.52579 0.33214 0.54805 0.0
C695 C 0.51329 0.3271 0.46707 0.0
C696 C 0.55158 0.32627 0.58434 0.0
C697 C 0.59327 0.31385 0.57897 0.0
C698 C 0.54145 0.32505 0.50578 0.0
C699 C 0.60826 0.30833 0.5361 0.0
C700 C 0.5267 0.31459 0.42528 0.0
C701 C 0.44414 0.33683 0.43967 0.0
N702 N 0.58222 0.31356 0.50112 0.0
N703 N 0.47266 0.33844 0.47261 0.0
H704 H 0.78146 1.00349 0.85725 0.0
H705 H 0.82699 0.03462 0.11206 0.0
H706 H 0.8393 0.91031 0.94046 0.0
H707 H 0.78931 0.13662 0.02774 0.0
H708 H 0.83329 0.9897 0.0482 0.0
H709 H 0.78625 0.0539 0.91742 0.0
C710 C 0.79553 0.9937 0.88795 0.0
C711 C 0.80959 0.95238 0.89389 0.0
C712 C 0.82397 1.02197 0.04343 0.0
C713 C 0.81488 1.00986 0.96285 0.0
C714 C 0.82018 0.04764 0.07998 0.0
C715 C 0.80751 0.08943 0.07531 0.0
C716 C 0.81445 0.03786 1.00163 0.0
C717 C 0.79951 0.10468 0.03285 0.0
C718 C 0.79825 1.02253 0.92227 0.0
C719 C 0.82772 0.94163 0.93434 0.0
N720 N 0.80271 0.07874 0.99761 0.0
N721 N 0.82947 0.97003 0.96729 0.0
H722 H 1.00358 0.2708 0.14758 0.0
H723 H 0.03876 0.23804 0.89078 0.0
H724 H 0.91129 0.21857 0.0602 0.0
H725 H 0.13842 0.2712 0.97951 0.0
H726 H 0.99199 0.23083 0.95311 0.0
H727 H 0.05403 0.27015 0.08748 0.0
C728 C 0.99399 0.25883 0.11593 0.0
C729 C 0.95294 0.24497 0.10895 0.0
C730 C 1.02415 0.2394 0.95907 0.0
C731 C 1.01052 0.24455 0.03992 0.0
C732 C 0.05088 0.24377 0.9234 0.0
C733 C 0.09272 0.2551 0.92975 0.0
C734 C 0.03904 0.2469 1.00166 0.0
C735 C 0.10663 0.26182 0.97294 0.0
C736 C 1.02284 0.25851 0.08162 0.0
C737 C 0.94245 0.22969 0.06721 0.0
N738 N 0.07977 0.25786 0.00722 0.0
N739 N 0.9709 0.23024 0.03429 0.0
H740 H 0.25411 0.91733 0.03649 0.0
H741 H 0.21536 0.15352 0.95896 0.0
H742 H 0.22533 1.01874 0.12489 0.0
H743 H 0.24496 0.05276 0.87013 0.0
H744 H 0.21262 0.10324 0.01917 0.0
H745 H 0.24546 0.96509 0.97471 0.0
C746 C 0.24538 0.94941 0.0431 0.0
C747 C 0.2401 0.96378 0.0863 0.0
C748 C 0.21937 0.09204 0.98646 0.0
C749 C 0.23087 1.01901 0.0152 0.0
C750 C 0.2208 0.12077 0.95194 0.0
C751 C 0.23076 0.10751 0.90933 0.0
C752 C 0.22811 0.04965 0.97851 0.0
C753 C 0.23731 0.06454 0.90239 0.0
C754 C 0.24072 0.97681 0.00762 0.0
C755 C 0.22994 1.00616 0.09233 0.0
N756 N 0.23624 0.03725 0.93666 0.0
N757 N 0.22573 0.0322 0.05728 0.0
H758 H 0.91137 0.80084 0.97854 0.0
H759 H 0.14595 0.84299 0.05686 0.0
H760 H 1.01513 0.82344 0.89172 0.0
H761 H 0.04756 0.80776 0.14595 0.0
H762 H 0.09515 0.84643 0.99748 0.0
H763 H 0.95768 0.81275 0.04139 0.0
C764 C 0.94365 0.80886 0.9726 0.0
C765 C 0.9594 0.81099 0.92969 0.0
C766 C 0.08451 0.83828 0.03007 0.0
C767 C 1.01247 0.82438 1.0014 0.0
C768 C 0.11355 0.83641 0.06408 0.0
C769 C 0.10115 0.82454 0.1064 0.0
C770 C 0.04267 0.82798 0.03818 0.0
C771 C 0.05859 0.81683 0.11379 0.0
C772 C 0.97011 0.81544 0.00852 0.0
C773 C 1.00167 0.82093 0.92415 0.0
N774 N 0.03092 0.8182 0.07988 0.0
N775 N 1.02665 0.82711 0.95948 0.0
loop_
_geom_bond_atom_site_label_1
_geom_bond_atom_site_label_2
_geom_bond_distance
_geom_bond_site_symmetry_2
_ccdc_geom_bond_type
Zn0 N4 2.020 . S
Zn0 O8 2.019 . S
Zn0 N10 2.119 . S
Zn0 O18 1.975 . S
C1 N2 1.334 . S
C1 N5 1.336 . S
N2 C1 1.334 . S
N2 C3 1.334 . S
C3 N2 1.334 . S
C3 N4 1.336 . S
N4 Zn0 2.020 . S
N4 C3 1.336 . S
N4 N5 1.354 . S
N5 C1 1.336 . S
N5 N4 1.354 . S
N5 Zn9 2.020 . S
C6 O7 1.244 . S
C6 O30 1.257 . S
O7 C6 1.244 . S
O8 Zn0 2.019 . S
O8 C28 1.257 . S
Zn9 N5 2.020 . S
Zn9 O16 1.975 . S
Zn9 N25 2.119 . S
Zn9 O30 2.019 . S
N10 Zn0 2.119 . S
N10 C12 1.334 . S
N10 C13 1.328 . S
C11 C12 1.391 . S
C11 N14 1.329 . S
C11 H32 0.930 . S
C12 N10 1.334 . S
C12 C11 1.391 . S
C12 H19 0.930 . S
C13 N10 1.328 . S
C13 C15 1.392 . S
C13 H20 0.930 . S
N14 C11 1.329 . S
N14 C15 1.331 . S
C15 C13 1.392 . S
C15 N14 1.331 . S
O16 Zn9 1.975 . S
O16 C17 1.252 . S
C17 O16 1.252 . S
C17 O18 1.252 . S
O18 Zn0 1.975 . S
O18 C17 1.252 . S
H19 C12 0.930 . S
H20 C13 0.930 . S
C21 C22 1.392 . S
C21 N25 1.328 . S
C21 H27 0.930 . S
C22 C21 1.392 . S
C22 N26 1.331 . S
C23 C24 1.391 . S
C23 N26 1.329 . S
C23 H33 0.930 . S
C24 C23 1.391 . S
C24 N25 1.334 . S
C24 H31 0.930 . S
N25 Zn9 2.119 . S
N25 C21 1.328 . S
N25 C24 1.334 . S
N26 C22 1.331 . S
N26 C23 1.329 . S
H27 C21 0.930 . S
C28 O8 1.257 . S
C28 O29 1.244 . S
O29 C28 1.244 . S
O30 C6 1.257 . S
O30 Zn9 2.019 . S
H31 C24 0.930 . S
H32 C11 0.930 . S
H33 C23 0.930 . S
Zn34 N38 2.020 . S
Zn34 O42 2.019 . S
Zn34 N44 2.119 . S
Zn34 O52 1.975 . S
C35 N36 1.334 . S
C35 N39 1.336 . S
N36 C35 1.334 . S
N36 C37 1.334 . S
C37 N36 1.334 . S
C37 N38 1.336 . S
N38 Zn34 2.020 . S
N38 C37 1.336 . S
N38 N39 1.354 . S
N39 C35 1.336 . S
N39 N38 1.354 . S
N39 Zn43 2.020 . S
C40 O41 1.244 . S
C40 O64 1.257 . S
O41 C40 1.244 . S
O42 Zn34 2.019 . S
O42 C62 1.257 . S
Zn43 N39 2.020 . S
Zn43 O50 1.975 . S
Zn43 N59 2.119 . S
Zn43 O64 2.019 . S
N44 Zn34 2.119 . S
N44 C46 1.334 . S
N44 C47 1.328 . S
C45 C46 1.391 . S
C45 N48 1.329 . S
C45 H66 0.930 . S
C46 N44 1.334 . S
C46 C45 1.391 . S
C46 H53 0.930 . S
C47 N44 1.328 . S
C47 C49 1.392 . S
C47 H54 0.930 . S
N48 C45 1.329 . S
N48 C49 1.331 . S
C49 C47 1.392 . S
C49 N48 1.331 . S
O50 Zn43 1.975 . S
O50 C51 1.252 . S
C51 O50 1.252 . S
C51 O52 1.252 . S
O52 Zn34 1.975 . S
O52 C51 1.252 . S
H53 C46 0.930 . S
H54 C47 0.930 . S
C55 C56 1.392 . S
C55 N59 1.328 . S
C55 H61 0.930 . S
C56 C55 1.392 . S
C56 N60 1.331 . S
C57 C58 1.391 . S
C57 N60 1.329 . S
C57 H67 0.930 . S
C58 C57 1.391 . S
C58 N59 1.334 . S
C58 H65 0.930 . S
N59 Zn43 2.119 . S
N59 C55 1.328 . S
N59 C58 1.334 . S
N60 C56 1.331 . S
N60 C57 1.329 . S
H61 C55 0.930 . S
C62 O42 1.257 . S
C62 O63 1.244 . S
O63 C62 1.244 . S
O64 C40 1.257 . S
O64 Zn43 2.019 . S
H65 C58 0.930 . S
H66 C45 0.930 . S
H67 C57 0.930 . S
Zn68 N72 2.020 . S
Zn68 O76 2.019 . S
Zn68 N78 2.119 . S
Zn68 O86 1.975 . S
C69 N70 1.334 . S
C69 N73 1.336 . S
N70 C69 1.334 . S
N70 C71 1.334 . S
C71 N70 1.334 . S
C71 N72 1.336 . S
N72 Zn68 2.020 . S
N72 C71 1.336 . S
N72 N73 1.354 . S
N73 C69 1.336 . S
N73 N72 1.354 . S
N73 Zn77 2.020 . S
C74 O75 1.244 . S
C74 O98 1.257 . S
O75 C74 1.244 . S
O76 Zn68 2.019 . S
O76 C96 1.257 . S
Zn77 N73 2.020 . S
Zn77 O84 1.975 . S
Zn77 N93 2.119 . S
Zn77 O98 2.019 . S
N78 Zn68 2.119 . S
N78 C80 1.334 . S
N78 C81 1.328 . S
C79 C80 1.391 . S
C79 N82 1.329 . S
C79 H100 0.930 . S
C80 N78 1.334 . S
C80 C79 1.391 . S
C80 H87 0.930 . S
C81 N78 1.328 . S
C81 C83 1.392 . S
C81 H88 0.930 . S
N82 C79 1.329 . S
N82 C83 1.331 . S
C83 C81 1.392 . S
C83 N82 1.331 . S
O84 Zn77 1.975 . S
O84 C85 1.252 . S
C85 O84 1.252 . S
C85 O86 1.252 . S
O86 Zn68 1.975 . S
O86 C85 1.252 . S
H87 C80 0.930 . S
H88 C81 0.930 . S
C89 C90 1.392 . S
C89 N93 1.328 . S
C89 H95 0.930 . S
C90 C89 1.392 . S
C90 N94 1.331 . S
C91 C92 1.391 . S
C91 N94 1.329 . S
C91 H101 0.930 . S
C92 C91 1.391 . S
C92 N93 1.334 . S
C92 H99 0.930 . S
N93 Zn77 2.119 . S
N93 C89 1.328 . S
N93 C92 1.334 . S
N94 C90 1.331 . S
N94 C91 1.329 . S
H95 C89 0.930 . S
C96 O76 1.257 . S
C96 O97 1.244 . S
O97 C96 1.244 . S
O98 C74 1.257 . S
O98 Zn77 2.019 . S
H99 C92 0.930 . S
H100 C79 0.930 . S
H101 C91 0.930 . S
Zn102 N106 2.020 . S
Zn102 O110 2.019 . S
Zn102 N112 2.119 . S
Zn102 O120 1.975 . S
C103 N104 1.334 . S
C103 N107 1.336 . S
N104 C103 1.334 . S
N104 C105 1.334 . S
C105 N104 1.334 . S
C105 N106 1.336 . S
N106 Zn102 2.020 . S
N106 C105 1.336 . S
N106 N107 1.354 . S
N107 C103 1.336 . S
N107 N106 1.354 . S
N107 Zn111 2.020 . S
C108 O109 1.244 . S
C108 O132 1.257 . S
O109 C108 1.244 . S
O110 Zn102 2.019 . S
O110 C130 1.257 . S
Zn111 N107 2.020 . S
Zn111 O118 1.975 . S
Zn111 N127 2.119 . S
Zn111 O132 2.019 . S
N112 Zn102 2.119 . S
N112 C114 1.334 . S
N112 C115 1.328 . S
C113 C114 1.391 . S
C113 N116 1.329 . S
C113 H134 0.930 . S
C114 N112 1.334 . S
C114 C113 1.391 . S
C114 H121 0.930 . S
C115 N112 1.328 . S
C115 C117 1.392 . S
C115 H122 0.930 . S
N116 C113 1.329 . S
N116 C117 1.331 . S
C117 C115 1.392 . S
C117 N116 1.331 . S
O118 Zn111 1.975 . S
O118 C119 1.252 . S
C119 O118 1.252 . S
C119 O120 1.252 . S
O120 Zn102 1.975 . S
O120 C119 1.252 . S
H121 C114 0.930 . S
H122 C115 0.930 . S
C123 C124 1.392 . S
C123 N127 1.328 . S
C123 H129 0.930 . S
C124 C123 1.392 . S
C124 N128 1.331 . S
C125 C126 1.391 . S
C125 N128 1.329 . S
C125 H135 0.930 . S
C126 C125 1.391 . S
C126 N127 1.334 . S
C126 H133 0.930 . S
N127 Zn111 2.119 . S
N127 C123 1.328 . S
N127 C126 1.334 . S
N128 C124 1.331 . S
N128 C125 1.329 . S
H129 C123 0.930 . S
C130 O110 1.257 . S
C130 O131 1.244 . S
O131 C130 1.244 . S
O132 C108 1.257 . S
O132 Zn111 2.019 . S
H133 C126 0.930 . S
H134 C113 0.930 . S
H135 C125 0.930 . S
Zn136 N140 2.020 . S
Zn136 O144 2.019 . S
Zn136 N146 2.119 . S
Zn136 O154 1.975 . S
C137 N138 1.334 . S
C137 N141 1.336 . S
N138 C137 1.334 . S
N138 C139 1.334 . S
C139 N138 1.334 . S
C139 N140 1.336 . S
N140 Zn136 2.020 . S
N140 C139 1.336 . S
N140 N141 1.354 . S
N141 C137 1.336 . S
N141 N140 1.354 . S
N141 Zn145 2.020 . S
C142 O143 1.244 . S
C142 O166 1.257 . S
O143 C142 1.244 . S
O144 Zn136 2.019 . S
O144 C164 1.257 . S
Zn145 N141 2.020 . S
Zn145 O152 1.975 . S
Zn145 N161 2.119 . S
Zn145 O166 2.019 . S
N146 Zn136 2.119 . S
N146 C148 1.334 . S
N146 C149 1.328 . S
C147 C148 1.391 . S
C147 N150 1.329 . S
C147 H168 0.930 . S
C148 N146 1.334 . S
C148 C147 1.391 . S
C148 H155 0.930 . S
C149 N146 1.328 . S
C149 C151 1.392 . S
C149 H156 0.930 . S
N150 C147 1.329 . S
N150 C151 1.331 . S
C151 C149 1.392 . S
C151 N150 1.331 . S
O152 Zn145 1.975 . S
O152 C153 1.252 . S
C153 O152 1.252 . S
C153 O154 1.252 . S
O154 Zn136 1.975 . S
O154 C153 1.252 . S
H155 C148 0.930 . S
H156 C149 0.930 . S
C157 C158 1.392 . S
C157 N161 1.328 . S
C157 H163 0.930 . S
C158 C157 1.392 . S
C158 N162 1.331 . S
C159 C160 1.391 . S
C159 N162 1.329 . S
C159 H169 0.930 . S
C160 C159 1.391 . S
C160 N161 1.334 . S
C160 H167 0.930 . S
N161 Zn145 2.119 . S
N161 C157 1.328 . S
N161 C160 1.334 . S
N162 C158 1.331 . S
N162 C159 1.329 . S
H163 C157 0.930 . S
C164 O144 1.257 . S
C164 O165 1.244 . S
O165 C164 1.244 . S
O166 C142 1.257 . S
O166 Zn145 2.019 . S
H167 C160 0.930 . S
H168 C147 0.930 . S
H169 C159 0.930 . S
Zn170 N174 2.020 . S
Zn170 O178 2.019 . S
Zn170 N180 2.119 . S
Zn170 O188 1.975 . S
C171 N172 1.334 . S
C171 N175 1.336 . S
N172 C171 1.334 . S
N172 C173 1.334 . S
C173 N172 1.334 . S
C173 N174 1.336 . S
N174 Zn170 2.020 . S
N174 C173 1.336 . S
N174 N175 1.354 . S
N175 C171 1.336 . S
N175 N174 1.354 . S
N175 Zn179 2.020 . S
C176 O177 1.244 . S
C176 O200 1.257 . S
O177 C176 1.244 . S
O178 Zn170 2.019 . S
O178 C198 1.257 . S
Zn179 N175 2.020 . S
Zn179 O186 1.975 . S
Zn179 N195 2.119 . S
Zn179 O200 2.019 . S
N180 Zn170 2.119 . S
N180 C182 1.334 . S
N180 C183 1.328 . S
C181 C182 1.391 . S
C181 N184 1.329 . S
C181 H202 0.930 . S
C182 N180 1.334 . S
C182 C181 1.391 . S
C182 H189 0.930 . S
C183 N180 1.328 . S
C183 C185 1.392 . S
C183 H190 0.930 . S
N184 C181 1.329 . S
N184 C185 1.331 . S
C185 C183 1.392 . S
C185 N184 1.331 . S
O186 Zn179 1.975 . S
O186 C187 1.252 . S
C187 O186 1.252 . S
C187 O188 1.252 . S
O188 Zn170 1.975 . S
O188 C187 1.252 . S
H189 C182 0.930 . S
H190 C183 0.930 . S
C191 C192 1.392 . S
C191 N195 1.328 . S
C191 H197 0.930 . S
C192 C191 1.392 . S
C192 N196 1.331 . S
C193 C194 1.391 . S
C193 N196 1.329 . S
C193 H203 0.930 . S
C194 C193 1.391 . S
C194 N195 1.334 . S
C194 H201 0.930 . S
N195 Zn179 2.119 . S
N195 C191 1.328 . S
N195 C194 1.334 . S
N196 C192 1.331 . S
N196 C193 1.329 . S
H197 C191 0.930 . S
C198 O178 1.257 . S
C198 O199 1.244 . S
O199 C198 1.244 . S
O200 C176 1.257 . S
O200 Zn179 2.019 . S
H201 C194 0.930 . S
H202 C181 0.930 . S
H203 C193 0.930 . S
Zn204 N208 2.020 . S
Zn204 O212 2.019 . S
Zn204 N214 2.119 . S
Zn204 O222 1.975 . S
C205 N206 1.334 . S
C205 N209 1.336 . S
N206 C205 1.334 . S
N206 C207 1.334 . S
C207 N206 1.334 . S
C207 N208 1.336 . S
N208 Zn204 2.020 . S
N208 C207 1.336 . S
N208 N209 1.354 . S
N209 C205 1.336 . S
N209 N208 1.354 . S
N209 Zn213 2.020 . S
C210 O211 1.244 . S
C210 O234 1.257 . S
O211 C210 1.244 . S
O212 Zn204 2.019 . S
O212 C232 1.257 . S
Zn213 N209 2.020 . S
Zn213 O220 1.975 . S
Zn213 N229 2.119 . S
Zn213 O234 2.019 . S
N214 Zn204 2.119 . S
N214 C216 1.334 . S
N214 C217 1.328 . S
C215 C216 1.391 . S
C215 N218 1.329 . S
C215 H236 0.930 . S
C216 N214 1.334 . S
C216 C215 1.391 . S
C216 H223 0.930 . S
C217 N214 1.328 . S
C217 C219 1.392 . S
C217 H224 0.930 . S
N218 C215 1.329 . S
N218 C219 1.331 . S
C219 C217 1.392 . S
C219 N218 1.331 . S
O220 Zn213 1.975 . S
O220 C221 1.252 . S
C221 O220 1.252 . S
C221 O222 1.252 . S
O222 Zn204 1.975 . S
O222 C221 1.252 . S
H223 C216 0.930 . S
H224 C217 0.930 . S
C225 C226 1.392 . S
C225 N229 1.328 . S
C225 H231 0.930 . S
C226 C225 1.392 . S
C226 N230 1.331 . S
C227 C228 1.391 . S
C227 N230 1.329 . S
C227 H237 0.930 . S
C228 C227 1.391 . S
C228 N229 1.334 . S
C228 H235 0.930 . S
N229 Zn213 2.119 . S
N229 C225 1.328 . S
N229 C228 1.334 . S
N230 C226 1.331 . S
N230 C227 1.329 . S
H231 C225 0.930 . S
C232 O212 1.257 . S
C232 O233 1.244 . S
O233 C232 1.244 . S
O234 C210 1.257 . S
O234 Zn213 2.019 . S
H235 C228 0.930 . S
H236 C215 0.930 . S
H237 C227 0.930 . S
Zn238 N242 2.020 . S
Zn238 O246 2.019 . S
Zn238 N248 2.119 . S
Zn238 O256 1.975 . S
C239 N240 1.334 . S
C239 N243 1.336 . S
N240 C239 1.334 . S
N240 C241 1.334 . S
C241 N240 1.334 . S
C241 N242 1.336 . S
N242 Zn238 2.020 . S
N242 C241 1.336 . S
N242 N243 1.354 . S
N243 C239 1.336 . S
N243 N242 1.354 . S
N243 Zn247 2.020 . S
C244 O245 1.244 . S
C244 O268 1.257 . S
O245 C244 1.244 . S
O246 Zn238 2.019 . S
O246 C266 1.257 . S
Zn247 N243 2.020 . S
Zn247 O254 1.975 . S
Zn247 N263 2.119 . S
Zn247 O268 2.019 . S
N248 Zn238 2.119 . S
N248 C250 1.334 . S
N248 C251 1.328 . S
C249 C250 1.391 . S
C249 N252 1.329 . S
C249 H270 0.930 . S
C250 N248 1.334 . S
C250 C249 1.391 . S
C250 H257 0.930 . S
C251 N248 1.328 . S
C251 C253 1.392 . S
C251 H258 0.930 . S
N252 C249 1.329 . S
N252 C253 1.331 . S
C253 C251 1.392 . S
C253 N252 1.331 . S
O254 Zn247 1.975 . S
O254 C255 1.252 . S
C255 O254 1.252 . S
C255 O256 1.252 . S
O256 Zn238 1.975 . S
O256 C255 1.252 . S
H257 C250 0.930 . S
H258 C251 0.930 . S
C259 C260 1.392 . S
C259 N263 1.328 . S
C259 H265 0.930 . S
C260 C259 1.392 . S
C260 N264 1.331 . S
C261 C262 1.391 . S
C261 N264 1.329 . S
C261 H271 0.930 . S
C262 C261 1.391 . S
C262 N263 1.334 . S
C262 H269 0.930 . S
N263 Zn247 2.119 . S
N263 C259 1.328 . S
N263 C262 1.334 . S
N264 C260 1.331 . S
N264 C261 1.329 . S
H265 C259 0.930 . S
C266 O246 1.257 . S
C266 O267 1.244 . S
O267 C266 1.244 . S
O268 C244 1.257 . S
O268 Zn247 2.019 . S
H269 C262 0.930 . S
H270 C249 0.930 . S
H271 C261 0.930 . S
H272 C278 0.930 . S
H273 C282 0.930 . S
H274 C287 0.929 . S
H275 C285 0.929 1_556 S
H276 C280 0.929 . S
H277 C286 0.929 . S
C278 H272 0.930 . S
C278 C279 1.367 . S
C278 C286 1.378 . S
C279 C278 1.367 . S
C279 C287 1.433 . S
C280 H276 0.929 . S
C280 C282 1.378 . S
C280 C284 1.350 . S
C281 C284 1.463 . S
C281 C286 1.350 . S
C281 N289 1.427 . S
C282 H273 0.930 . S
C282 C280 1.378 . S
C282 C283 1.367 . S
C283 C282 1.367 . S
C283 C285 1.433 . S
C284 C280 1.350 . S
C284 C281 1.463 . S
C284 N288 1.427 . S
C285 H275 0.929 1_554 S
C285 C283 1.433 . S
C285 N288 1.384 . S
C286 H277 0.929 . S
C286 C278 1.378 . S
C286 C281 1.350 . S
C287 H274 0.929 . S
C287 C279 1.433 . S
C287 N289 1.384 . S
N288 C284 1.427 . S
N288 C285 1.384 . S
N289 C281 1.427 . S
N289 C287 1.384 . S
H290 C296 0.930 . S
H291 C300 0.930 . S
H292 C305 0.929 1_554 S
H293 C303 0.929 . S
H294 C298 0.929 . S
H295 C304 0.929 . S
C296 H290 0.930 . S
C296 C297 1.367 . S
C296 C304 1.378 . S
C297 C296 1.367 . S
C297 C305 1.433 . S
C298 H294 0.929 . S
C298 C300 1.378 . S
C298 C302 1.350 . S
C299 C302 1.463 . S
C299 C304 1.350 . S
C299 N307 1.427 . S
C300 H291 0.930 . S
C300 C298 1.378 . S
C300 C301 1.367 . S
C301 C300 1.367 . S
C301 C303 1.433 . S
C302 C298 1.350 . S
C302 C299 1.463 . S
C302 N306 1.427 . S
C303 H293 0.929 . S
C303 C301 1.433 . S
C303 N306 1.384 . S
C304 H295 0.929 . S
C304 C296 1.378 . S
C304 C299 1.350 . S
C305 H292 0.929 1_556 S
C305 C297 1.433 . S
C305 N307 1.384 . S
N306 C302 1.427 . S
N306 C303 1.384 . S
N307 C299 1.427 . S
N307 C305 1.384 . S
H308 C314 0.930 . S
H309 C318 0.930 . S
H310 C323 0.929 . S
H311 C321 0.929 . S
H312 C316 0.929 . S
H313 C322 0.929 . S
C314 H308 0.930 . S
C314 C315 1.367 . S
C314 C322 1.378 . S
C315 C314 1.367 . S
C315 C323 1.433 . S
C316 H312 0.929 . S
C316 C318 1.378 . S
C316 C320 1.350 . S
C317 C320 1.463 . S
C317 C322 1.350 . S
C317 N325 1.427 . S
C318 H309 0.930 . S
C318 C316 1.378 . S
C318 C319 1.367 . S
C319 C318 1.367 . S
C319 C321 1.433 . S
C320 C316 1.350 . S
C320 C317 1.463 . S
C320 N324 1.427 . S
C321 H311 0.929 . S
C321 C319 1.433 . S
C321 N324 1.384 . S
C322 H313 0.929 . S
C322 C314 1.378 . S
C322 C317 1.350 . S
C323 H310 0.929 . S
C323 C315 1.433 . S
C323 N325 1.384 . S
N324 C320 1.427 . S
N324 C321 1.384 . S
N325 C317 1.427 . S
N325 C323 1.384 . S
H326 C332 0.930 . S
H327 C336 0.930 1_554 S
H328 C341 0.929 . S
H329 C339 0.929 . S
H330 C334 0.929 . S
H331 C340 0.929 . S
C332 H326 0.930 . S
C332 C333 1.367 . S
C332 C340 1.378 . S
C333 C332 1.367 . S
C333 C341 1.433 . S
C334 H330 0.929 . S
C334 C336 1.378 . S
C334 C338 1.350 . S
C335 C338 1.463 . S
C335 C340 1.350 . S
C335 N343 1.427 . S
C336 H327 0.930 1_556 S
C336 C334 1.378 . S
C336 C337 1.367 . S
C337 C336 1.367 . S
C337 C339 1.433 . S
C338 C334 1.350 . S
C338 C335 1.463 . S
C338 N342 1.427 . S
C339 H329 0.929 . S
C339 C337 1.433 . S
C339 N342 1.384 . S
C340 H331 0.929 . S
C340 C332 1.378 . S
C340 C335 1.350 . S
C341 H328 0.929 . S
C341 C333 1.433 . S
C341 N343 1.384 . S
N342 C338 1.427 . S
N342 C339 1.384 . S
N343 C335 1.427 . S
N343 C341 1.384 . S
H344 C350 0.930 . S
H345 C354 0.930 . S
H346 C359 0.929 . S
H347 C357 0.929 . S
H348 C352 0.929 . S
H349 C358 0.929 . S
C350 H344 0.930 . S
C350 C351 1.367 . S
C350 C358 1.378 . S
C351 C350 1.367 . S
C351 C359 1.433 . S
C352 H348 0.929 . S
C352 C354 1.378 . S
C352 C356 1.350 . S
C353 C356 1.463 . S
C353 C358 1.350 . S
C353 N361 1.427 . S
C354 H345 0.930 . S
C354 C352 1.378 . S
C354 C355 1.367 . S
C355 C354 1.367 . S
C355 C357 1.433 . S
C356 C352 1.350 . S
C356 C353 1.463 . S
C356 N360 1.427 . S
C357 H347 0.929 . S
C357 C355 1.433 . S
C357 N360 1.384 . S
C358 H349 0.929 . S
C358 C350 1.378 . S
C358 C353 1.350 . S
C359 H346 0.929 . S
C359 C351 1.433 . S
C359 N361 1.384 . S
N360 C356 1.427 . S
N360 C357 1.384 . S
N361 C353 1.427 . S
N361 C359 1.384 . S
H362 C368 0.930 . S
H363 C372 0.930 . S
H364 C377 0.929 . S
H365 C375 0.929 . S
H366 C370 0.929 . S
H367 C376 0.929 . S
C368 H362 0.930 . S
C368 C369 1.367 . S
C368 C376 1.378 . S
C369 C368 1.367 . S
C369 C377 1.433 . S
C370 H366 0.929 . S
C370 C372 1.378 . S
C370 C374 1.350 . S
C371 C374 1.463 . S
C371 C376 1.350 . S
C371 N379 1.427 . S
C372 H363 0.930 . S
C372 C370 1.378 . S
C372 C373 1.367 . S
C373 C372 1.367 . S
C373 C375 1.433 . S
C374 C370 1.350 . S
C374 C371 1.463 . S
C374 N378 1.427 . S
C375 H365 0.929 . S
C375 C373 1.433 . S
C375 N378 1.384 . S
C376 H367 0.929 . S
C376 C368 1.378 . S
C376 C371 1.350 . S
C377 H364 0.929 . S
C377 C369 1.433 . S
C377 N379 1.384 . S
N378 C374 1.427 . S
N378 C375 1.384 . S
N379 C371 1.427 . S
N379 C377 1.384 . S
H380 C386 0.930 . S
H381 C390 0.930 . S
H382 C395 0.929 . S
H383 C393 0.929 . S
H384 C388 0.929 . S
H385 C394 0.929 . S
C386 H380 0.930 . S
C386 C387 1.367 . S
C386 C394 1.378 . S
C387 C386 1.367 . S
C387 C395 1.433 . S
C388 H384 0.929 . S
C388 C390 1.378 . S
C388 C392 1.350 . S
C389 C392 1.463 . S
C389 C394 1.350 . S
C389 N397 1.427 . S
C390 H381 0.930 . S
C390 C388 1.378 . S
C390 C391 1.367 . S
C391 C390 1.367 . S
C391 C393 1.433 . S
C392 C388 1.350 . S
C392 C389 1.463 . S
C392 N396 1.427 . S
C393 H383 0.929 . S
C393 C391 1.433 . S
C393 N396 1.384 . S
C394 H385 0.929 . S
C394 C386 1.378 . S
C394 C389 1.350 . S
C395 H382 0.929 . S
C395 C387 1.433 . S
C395 N397 1.384 . S
N396 C392 1.427 . S
N396 C393 1.384 . S
N397 C389 1.427 . S
N397 C395 1.384 . S
H398 C404 0.930 . S
H399 C408 0.930 . S
H400 C413 0.929 . S
H401 C411 0.929 . S
H402 C406 0.929 . S
H403 C412 0.929 . S
C404 H398 0.930 . S
C404 C405 1.367 . S
C404 C412 1.378 . S
C405 C404 1.367 . S
C405 C413 1.433 . S
C406 H402 0.929 . S
C406 C408 1.378 . S
C406 C410 1.350 . S
C407 C410 1.463 . S
C407 C412 1.350 . S
C407 N415 1.427 . S
C408 H399 0.930 . S
C408 C406 1.378 . S
C408 C409 1.367 . S
C409 C408 1.367 . S
C409 C411 1.433 . S
C410 C406 1.350 . S
C410 C407 1.463 . S
C410 N414 1.427 . S
C411 H401 0.929 . S
C411 C409 1.433 . S
C411 N414 1.384 . S
C412 H403 0.929 . S
C412 C404 1.378 . S
C412 C407 1.350 . S
C413 H400 0.929 . S
C413 C405 1.433 . S
C413 N415 1.384 . S
N414 C410 1.427 . S
N414 C411 1.384 . S
N415 C407 1.427 . S
N415 C413 1.384 . S
H416 C422 0.930 . S
H417 C426 0.930 . S
H418 C431 0.929 . S
H419 C429 0.929 . S
H420 C424 0.929 . S
H421 C430 0.929 . S
C422 H416 0.930 . S
C422 C423 1.367 . S
C422 C430 1.378 . S
C423 C422 1.367 . S
C423 C431 1.433 . S
C424 H420 0.929 . S
C424 C426 1.378 . S
C424 C428 1.350 . S
C425 C428 1.463 1_545 S
C425 C430 1.350 . S
C425 N433 1.427 . S
C426 H417 0.930 . S
C426 C424 1.378 . S
C426 C427 1.367 . S
C427 C426 1.367 . S
C427 C429 1.433 . S
C428 C424 1.350 . S
C428 C425 1.463 1_565 S
C428 N432 1.427 . S
C429 H419 0.929 . S
C429 C427 1.433 . S
C429 N432 1.384 . S
C430 H421 0.929 . S
C430 C422 1.378 . S
C430 C425 1.350 . S
C431 H418 0.929 . S
C431 C423 1.433 . S
C431 N433 1.384 . S
N432 C428 1.427 . S
N432 C429 1.384 . S
N433 C425 1.427 . S
N433 C431 1.384 . S
H434 C440 0.930 . S
H435 C444 0.930 . S
H436 C449 0.929 . S
H437 C447 0.929 . S
H438 C442 0.929 . S
H439 C448 0.929 . S
C440 H434 0.930 . S
C440 C441 1.367 . S
C440 C448 1.378 . S
C441 C440 1.367 . S
C441 C449 1.433 . S
C442 H438 0.929 . S
C442 C444 1.378 . S
C442 C446 1.350 . S
C443 C446 1.463 1_655 S
C443 C448 1.350 . S
C443 N451 1.427 . S
C444 H435 0.930 . S
C444 C442 1.378 . S
C444 C445 1.367 . S
C445 C444 1.367 . S
C445 C447 1.433 . S
C446 C442 1.350 . S
C446 C443 1.463 1_455 S
C446 N450 1.427 . S
C447 H437 0.929 . S
C447 C445 1.433 . S
C447 N450 1.384 . S
C448 H439 0.929 . S
C448 C440 1.378 . S
C448 C443 1.350 . S
C449 H436 0.929 . S
C449 C441 1.433 . S
C449 N451 1.384 . S
N450 C446 1.427 . S
N450 C447 1.384 . S
N451 C443 1.427 . S
N451 C449 1.384 . S
H452 C458 0.930 . S
H453 C462 0.930 . S
H454 C467 0.929 . S
H455 C465 0.929 . S
H456 C460 0.929 . S
H457 C466 0.929 . S
C458 H452 0.930 . S
C458 C459 1.367 . S
C458 C466 1.378 . S
C459 C458 1.367 . S
C459 C467 1.433 1_655 S
C460 H456 0.929 . S
C460 C462 1.378 . S
C460 C464 1.350 . S
C461 C464 1.463 1_655 S
C461 C466 1.350 . S
C461 N469 1.427 1_655 S
C462 H453 0.930 . S
C462 C460 1.378 . S
C462 C463 1.367 . S
C463 C462 1.367 . S
C463 C465 1.433 1_455 S
C464 C460 1.350 . S
C464 C461 1.463 1_455 S
C464 N468 1.427 1_455 S
C465 H455 0.929 . S
C465 C463 1.433 1_655 S
C465 N468 1.384 . S
C466 H457 0.929 . S
C466 C458 1.378 . S
C466 C461 1.350 . S
C467 H454 0.929 . S
C467 C459 1.433 1_455 S
C467 N469 1.384 . S
N468 C464 1.427 1_655 S
N468 C465 1.384 . S
N469 C461 1.427 1_455 S
N469 C467 1.384 . S
H470 C476 0.930 . S
H471 C480 0.930 . S
H472 C485 0.929 1_565 S
H473 C483 0.929 1_545 S
H474 C478 0.929 . S
H475 C484 0.929 . S
C476 H470 0.930 . S
C476 C477 1.367 . S
C476 C484 1.378 . S
C477 C476 1.367 . S
C477 C485 1.433 . S
C478 H474 0.929 . S
C478 C480 1.378 . S
C478 C482 1.350 . S
C479 C482 1.463 1_545 S
C479 C484 1.350 . S
C479 N487 1.427 1_545 S
C480 H471 0.930 . S
C480 C478 1.378 . S
C480 C481 1.367 . S
C481 C480 1.367 . S
C481 C483 1.433 . S
C482 C478 1.350 . S
C482 C479 1.463 1_565 S
C482 N486 1.427 1_565 S
C483 H473 0.929 1_565 S
C483 C481 1.433 . S
C483 N486 1.384 1_565 S
C484 H475 0.929 . S
C484 C476 1.378 . S
C484 C479 1.350 . S
C485 H472 0.929 1_545 S
C485 C477 1.433 . S
C485 N487 1.384 1_545 S
N486 C482 1.427 1_545 S
N486 C483 1.384 1_545 S
N487 C479 1.427 1_565 S
N487 C485 1.384 1_565 S
H488 C494 0.930 . S
H489 C498 0.930 . S
H490 C503 0.929 . S
H491 C501 0.929 . S
H492 C496 0.929 . S
H493 C502 0.929 . S
C494 H488 0.930 . S
C494 C495 1.367 . S
C494 C502 1.378 . S
C495 C494 1.367 . S
C495 C503 1.433 . S
C496 H492 0.929 . S
C496 C498 1.378 . S
C496 C500 1.350 . S
C497 C500 1.463 . S
C497 C502 1.350 . S
C497 N505 1.427 . S
C498 H489 0.930 . S
C498 C496 1.378 . S
C498 C499 1.367 . S
C499 C498 1.367 . S
C499 C501 1.433 . S
C500 C496 1.350 . S
C500 C497 1.463 . S
C500 N504 1.427 . S
C501 H491 0.929 . S
C501 C499 1.433 . S
C501 N504 1.384 . S
C502 H493 0.929 . S
C502 C494 1.378 . S
C502 C497 1.350 . S
C503 H490 0.929 . S
C503 C495 1.433 . S
C503 N505 1.384 . S
N504 C500 1.427 . S
N504 C501 1.384 . S
N505 C497 1.427 . S
N505 C503 1.384 . S
H506 C512 0.930 . S
H507 C516 0.930 . S
H508 C521 0.929 . S
H509 C519 0.929 . S
H510 C514 0.929 . S
H511 C520 0.929 . S
C512 H506 0.930 . S
C512 C513 1.367 . S
C512 C520 1.378 . S
C513 C512 1.367 . S
C513 C521 1.433 . S
C514 H510 0.929 . S
C514 C516 1.378 . S
C514 C518 1.350 . S
C515 C518 1.463 . S
C515 C520 1.350 . S
C515 N523 1.427 . S
C516 H507 0.930 . S
C516 C514 1.378 . S
C516 C517 1.367 . S
C517 C516 1.367 . S
C517 C519 1.433 . S
C518 C514 1.350 . S
C518 C515 1.463 . S
C518 N522 1.427 . S
C519 H509 0.929 . S
C519 C517 1.433 . S
C519 N522 1.384 . S
C520 H511 0.929 . S
C520 C512 1.378 . S
C520 C515 1.350 . S
C521 H508 0.929 . S
C521 C513 1.433 . S
C521 N523 1.384 . S
N522 C518 1.427 . S
N522 C519 1.384 . S
N523 C515 1.427 . S
N523 C521 1.384 . S
H524 C530 0.930 . S
H525 C534 0.930 . S
H526 C539 0.929 . S
H527 C537 0.929 . S
H528 C532 0.929 . S
H529 C538 0.929 . S
C530 H524 0.930 . S
C530 C531 1.367 . S
C530 C538 1.378 . S
C531 C530 1.367 . S
C531 C539 1.433 . S
C532 H528 0.929 . S
C532 C534 1.378 . S
C532 C536 1.350 . S
C533 C536 1.463 . S
C533 C538 1.350 . S
C533 N541 1.427 . S
C534 H525 0.930 . S
C534 C532 1.378 . S
C534 C535 1.367 . S
C535 C534 1.367 . S
C535 C537 1.433 . S
C536 C532 1.350 . S
C536 C533 1.463 . S
C536 N540 1.427 . S
C537 H527 0.929 . S
C537 C535 1.433 . S
C537 N540 1.384 . S
C538 H529 0.929 . S
C538 C530 1.378 . S
C538 C533 1.350 . S
C539 H526 0.929 . S
C539 C531 1.433 . S
C539 N541 1.384 . S
N540 C536 1.427 . S
N540 C537 1.384 . S
N541 C533 1.427 . S
N541 C539 1.384 . S
H542 C548 0.930 . S
H543 C552 0.930 . S
H544 C557 0.929 . S
H545 C555 0.929 . S
H546 C550 0.929 . S
H547 C556 0.929 . S
C548 H542 0.930 . S
C548 C549 1.367 . S
C548 C556 1.378 . S
C549 C548 1.367 . S
C549 C557 1.433 . S
C550 H546 0.929 . S
C550 C552 1.378 . S
C550 C554 1.350 . S
C551 C554 1.463 . S
C551 C556 1.350 . S
C551 N559 1.427 . S
C552 H543 0.930 . S
C552 C550 1.378 . S
C552 C553 1.367 . S
C553 C552 1.367 . S
C553 C555 1.433 . S
C554 C550 1.350 . S
C554 C551 1.463 . S
C554 N558 1.427 . S
C555 H545 0.929 . S
C555 C553 1.433 . S
C555 N558 1.384 . S
C556 H547 0.929 . S
C556 C548 1.378 . S
C556 C551 1.350 . S
C557 H544 0.929 . S
C557 C549 1.433 . S
C557 N559 1.384 . S
N558 C554 1.427 . S
N558 C555 1.384 . S
N559 C551 1.427 . S
N559 C557 1.384 . S
H560 C566 0.930 . S
H561 C570 0.930 . S
H562 C575 0.929 . S
H563 C573 0.929 . S
H564 C568 0.929 . S
H565 C574 0.929 . S
C566 H560 0.930 . S
C566 C567 1.367 . S
C566 C574 1.378 . S
C567 C566 1.367 . S
C567 C575 1.433 . S
C568 H564 0.929 . S
C568 C570 1.378 . S
C568 C572 1.350 . S
C569 C572 1.463 . S
C569 C574 1.350 . S
C569 N577 1.427 . S
C570 H561 0.930 . S
C570 C568 1.378 . S
C570 C571 1.367 . S
C571 C570 1.367 . S
C571 C573 1.433 . S
C572 C568 1.350 . S
C572 C569 1.463 . S
C572 N576 1.427 . S
C573 H563 0.929 . S
C573 C571 1.433 . S
C573 N576 1.384 . S
C574 H565 0.929 . S
C574 C566 1.378 . S
C574 C569 1.350 . S
C575 H562 0.929 . S
C575 C567 1.433 . S
C575 N577 1.384 . S
N576 C572 1.427 . S
N576 C573 1.384 . S
N577 C569 1.427 . S
N577 C575 1.384 . S
H578 C584 0.930 . S
H579 C588 0.930 . S
H580 C593 0.929 . S
H581 C591 0.929 . S
H582 C586 0.929 . S
H583 C592 0.929 . S
C584 H578 0.930 . S
C584 C585 1.367 . S
C584 C592 1.378 . S
C585 C584 1.367 . S
C585 C593 1.433 . S
C586 H582 0.929 . S
C586 C588 1.378 . S
C586 C590 1.350 . S
C587 C590 1.463 . S
C587 C592 1.350 . S
C587 N595 1.427 . S
C588 H579 0.930 . S
C588 C586 1.378 . S
C588 C589 1.367 . S
C589 C588 1.367 . S
C589 C591 1.433 . S
C590 C586 1.350 . S
C590 C587 1.463 . S
C590 N594 1.427 . S
C591 H581 0.929 . S
C591 C589 1.433 . S
C591 N594 1.384 . S
C592 H583 0.929 . S
C592 C584 1.378 . S
C592 C587 1.350 . S
C593 H580 0.929 . S
C593 C585 1.433 . S
C593 N595 1.384 . S
N594 C590 1.427 . S
N594 C591 1.384 . S
N595 C587 1.427 . S
N595 C593 1.384 . S
H596 C602 0.930 . S
H597 C606 0.930 . S
H598 C611 0.929 . S
H599 C609 0.929 . S
H600 C604 0.929 . S
H601 C610 0.929 . S
C602 H596 0.930 . S
C602 C603 1.367 . S
C602 C610 1.378 . S
C603 C602 1.367 . S
C603 C611 1.433 . S
C604 H600 0.929 . S
C604 C606 1.378 . S
C604 C608 1.350 . S
C605 C608 1.463 . S
C605 C610 1.350 . S
C605 N613 1.427 . S
C606 H597 0.930 . S
C606 C604 1.378 . S
C606 C607 1.367 . S
C607 C606 1.367 . S
C607 C609 1.433 . S
C608 C604 1.350 . S
C608 C605 1.463 . S
C608 N612 1.427 . S
C609 H599 0.929 . S
C609 C607 1.433 . S
C609 N612 1.384 . S
C610 H601 0.929 . S
C610 C602 1.378 . S
C610 C605 1.350 . S
C611 H598 0.929 . S
C611 C603 1.433 . S
C611 N613 1.384 . S
N612 C608 1.427 . S
N612 C609 1.384 . S
N613 C605 1.427 . S
N613 C611 1.384 . S
H614 C620 0.930 . S
H615 C624 0.930 . S
H616 C629 0.929 . S
H617 C627 0.929 . S
H618 C622 0.929 . S
H619 C628 0.929 . S
C620 H614 0.930 . S
C620 C621 1.367 . S
C620 C628 1.378 . S
C621 C620 1.367 . S
C621 C629 1.433 . S
C622 H618 0.929 . S
C622 C624 1.378 . S
C622 C626 1.350 . S
C623 C626 1.463 . S
C623 C628 1.350 . S
C623 N631 1.427 . S
C624 H615 0.930 . S
C624 C622 1.378 . S
C624 C625 1.367 . S
C625 C624 1.367 . S
C625 C627 1.433 . S
C626 C622 1.350 . S
C626 C623 1.463 . S
C626 N630 1.427 . S
C627 H617 0.929 . S
C627 C625 1.433 . S
C627 N630 1.384 . S
C628 H619 0.929 . S
C628 C620 1.378 . S
C628 C623 1.350 . S
C629 H616 0.929 . S
C629 C621 1.433 . S
C629 N631 1.384 . S
N630 C626 1.427 . S
N630 C627 1.384 . S
N631 C623 1.427 . S
N631 C629 1.384 . S
H632 C638 0.930 . S
H633 C642 0.930 . S
H634 C647 0.929 . S
H635 C645 0.929 . S
H636 C640 0.929 . S
H637 C646 0.929 . S
C638 H632 0.930 . S
C638 C639 1.367 . S
C638 C646 1.378 . S
C639 C638 1.367 . S
C639 C647 1.433 . S
C640 H636 0.929 . S
C640 C642 1.378 . S
C640 C644 1.350 . S
C641 C644 1.463 . S
C641 C646 1.350 . S
C641 N649 1.427 . S
C642 H633 0.930 . S
C642 C640 1.378 . S
C642 C643 1.367 . S
C643 C642 1.367 . S
C643 C645 1.433 . S
C644 C640 1.350 . S
C644 C641 1.463 . S
C644 N648 1.427 . S
C645 H635 0.929 . S
C645 C643 1.433 . S
C645 N648 1.384 . S
C646 H637 0.929 . S
C646 C638 1.378 . S
C646 C641 1.350 . S
C647 H634 0.929 . S
C647 C639 1.433 . S
C647 N649 1.384 . S
N648 C644 1.427 . S
N648 C645 1.384 . S
N649 C641 1.427 . S
N649 C647 1.384 . S
H650 C656 0.930 . S
H651 C660 0.930 . S
H652 C665 0.929 . S
H653 C663 0.929 . S
H654 C658 0.929 . S
H655 C664 0.929 . S
C656 H650 0.930 . S
C656 C657 1.367 . S
C656 C664 1.378 . S
C657 C656 1.367 . S
C657 C665 1.433 . S
C658 H654 0.929 . S
C658 C660 1.378 . S
C658 C662 1.350 . S
C659 C662 1.463 . S
C659 C664 1.350 . S
C659 N667 1.427 . S
C660 H651 0.930 . S
C660 C658 1.378 . S
C660 C661 1.367 . S
C661 C660 1.367 . S
C661 C663 1.433 . S
C662 C658 1.350 . S
C662 C659 1.463 . S
C662 N666 1.427 . S
C663 H653 0.929 . S
C663 C661 1.433 . S
C663 N666 1.384 . S
C664 H655 0.929 . S
C664 C656 1.378 . S
C664 C659 1.350 . S
C665 H652 0.929 . S
C665 C657 1.433 . S
C665 N667 1.384 . S
N666 C662 1.427 . S
N666 C663 1.384 . S
N667 C659 1.427 . S
N667 C665 1.384 . S
H668 C674 0.930 . S
H669 C678 0.930 . S
H670 C683 0.929 . S
H671 C681 0.929 . S
H672 C676 0.929 . S
H673 C682 0.929 . S
C674 H668 0.930 . S
C674 C675 1.367 . S
C674 C682 1.378 . S
C675 C674 1.367 . S
C675 C683 1.433 . S
C676 H672 0.929 . S
C676 C678 1.378 . S
C676 C680 1.350 . S
C677 C680 1.463 . S
C677 C682 1.350 . S
C677 N685 1.427 . S
C678 H669 0.930 . S
C678 C676 1.378 . S
C678 C679 1.367 . S
C679 C678 1.367 . S
C679 C681 1.433 . S
C680 C676 1.350 . S
C680 C677 1.463 . S
C680 N684 1.427 . S
C681 H671 0.929 . S
C681 C679 1.433 . S
C681 N684 1.384 . S
C682 H673 0.929 . S
C682 C674 1.378 . S
C682 C677 1.350 . S
C683 H670 0.929 . S
C683 C675 1.433 . S
C683 N685 1.384 . S
N684 C680 1.427 . S
N684 C681 1.384 . S
N685 C677 1.427 . S
N685 C683 1.384 . S
H686 C692 0.930 . S
H687 C696 0.930 . S
H688 C701 0.929 . S
H689 C699 0.929 . S
H690 C694 0.929 . S
H691 C700 0.929 . S
C692 H686 0.930 . S
C692 C693 1.367 . S
C692 C700 1.378 . S
C693 C692 1.367 . S
C693 C701 1.433 . S
C694 H690 0.929 . S
C694 C696 1.378 . S
C694 C698 1.350 . S
C695 C698 1.463 . S
C695 C700 1.350 . S
C695 N703 1.427 . S
C696 H687 0.930 . S
C696 C694 1.378 . S
C696 C697 1.367 . S
C697 C696 1.367 . S
C697 C699 1.433 . S
C698 C694 1.350 . S
C698 C695 1.463 . S
C698 N702 1.427 . S
C699 H689 0.929 . S
C699 C697 1.433 . S
C699 N702 1.384 . S
C700 H691 0.929 . S
C700 C692 1.378 . S
C700 C695 1.350 . S
C701 H688 0.929 . S
C701 C693 1.433 . S
C701 N703 1.384 . S
N702 C698 1.427 . S
N702 C699 1.384 . S
N703 C695 1.427 . S
N703 C701 1.384 . S
H704 C710 0.930 . S
H705 C714 0.930 . S
H706 C719 0.929 . S
H707 C717 0.929 . S
H708 C712 0.929 1_565 S
H709 C718 0.929 . S
C710 H704 0.930 . S
C710 C711 1.367 . S
C710 C718 1.378 1_565 S
C711 C710 1.367 . S
C711 C719 1.433 . S
C712 H708 0.929 1_545 S
C712 C714 1.378 . S
C712 C716 1.350 . S
C713 C716 1.463 1_566 S
C713 C718 1.350 1_565 S
C713 N721 1.427 . S
C714 H705 0.930 . S
C714 C712 1.378 . S
C714 C715 1.367 . S
C715 C714 1.367 . S
C715 C717 1.433 . S
C716 C712 1.350 . S
C716 C713 1.463 1_544 S
C716 N720 1.427 . S
C717 H707 0.929 . S
C717 C715 1.433 . S
C717 N720 1.384 . S
C718 H709 0.929 . S
C718 C710 1.378 1_545 S
C718 C713 1.350 1_545 S
C719 H706 0.929 . S
C719 C711 1.433 . S
C719 N721 1.384 . S
N720 C716 1.427 . S
N720 C717 1.384 . S
N721 C713 1.427 . S
N721 C719 1.384 . S
H722 C728 0.930 . S
H723 C732 0.930 . S
H724 C737 0.929 . S
H725 C735 0.929 . S
H726 C730 0.929 . S
H727 C736 0.929 1_455 S
C728 H722 0.930 . S
C728 C729 1.367 . S
C728 C736 1.378 . S
C729 C728 1.367 . S
C729 C737 1.433 . S
C730 H726 0.929 . S
C730 C732 1.378 . S
C730 C734 1.350 . S
C731 C734 1.463 1_654 S
C731 C736 1.350 . S
C731 N739 1.427 . S
C732 H723 0.930 . S
C732 C730 1.378 . S
C732 C733 1.367 . S
C733 C732 1.367 . S
C733 C735 1.433 . S
C734 C730 1.350 . S
C734 C731 1.463 1_456 S
C734 N738 1.427 . S
C735 H725 0.929 . S
C735 C733 1.433 . S
C735 N738 1.384 . S
C736 H727 0.929 1_655 S
C736 C728 1.378 . S
C736 C731 1.350 . S
C737 H724 0.929 . S
C737 C729 1.433 . S
C737 N739 1.384 . S
N738 C734 1.427 . S
N738 C735 1.384 . S
N739 C731 1.427 . S
N739 C737 1.384 . S
H740 C746 0.930 . S
H741 C750 0.930 . S
H742 C755 0.929 . S
H743 C753 0.929 . S
H744 C748 0.929 . S
H745 C754 0.929 . S
C746 H740 0.930 . S
C746 C747 1.367 . S
C746 C754 1.378 . S
C747 C746 1.367 . S
C747 C755 1.433 . S
C748 H744 0.929 . S
C748 C750 1.378 . S
C748 C752 1.350 . S
C749 C752 1.463 1_564 S
C749 C754 1.350 . S
C749 N757 1.427 . S
C750 H741 0.930 . S
C750 C748 1.378 . S
C750 C751 1.367 . S
C751 C750 1.367 . S
C751 C753 1.433 . S
C752 C748 1.350 . S
C752 C749 1.463 1_546 S
C752 N756 1.427 . S
C753 H743 0.929 . S
C753 C751 1.433 . S
C753 N756 1.384 . S
C754 H745 0.929 . S
C754 C746 1.378 . S
C754 C749 1.350 . S
C755 H742 0.929 . S
C755 C747 1.433 . S
C755 N757 1.384 . S
N756 C752 1.427 . S
N756 C753 1.384 . S
N757 C749 1.427 . S
N757 C755 1.384 . S
H758 C764 0.930 . S
H759 C768 0.930 . S
H760 C773 0.929 . S
H761 C771 0.929 . S
H762 C766 0.929 . S
H763 C772 0.929 . S
C764 H758 0.930 . S
C764 C765 1.367 . S
C764 C772 1.378 . S
C765 C764 1.367 . S
C765 C773 1.433 . S
C766 H762 0.929 . S
C766 C768 1.378 . S
C766 C770 1.350 . S
C767 C770 1.463 1_656 S
C767 C772 1.350 . S
C767 N775 1.427 . S
C768 H759 0.930 . S
C768 C766 1.378 . S
C768 C769 1.367 . S
C769 C768 1.367 . S
C769 C771 1.433 . S
C770 C766 1.350 . S
C770 C767 1.463 1_454 S
C770 N774 1.430 . S
C771 H761 0.929 . S
C771 C769 1.433 . S
C771 N774 1.400 . S
C772 H763 0.929 . S
C772 C764 1.378 . S
C772 C767 1.350 . S
C773 H760 0.929 . S
C773 C765 1.433 . S
C773 N775 1.384 . S
N774 C770 1.430 . S
N774 C771 1.400 . S
N775 C767 1.427 . S
N775 C773 1.384 . S
C279 C1 1.545 . S
C283 C176 1.629 1_554 S
C297 C232 1.628 1_556 S
C301 C37 1.545 . S
C315 C244 1.616 1_554 S
C319 C71 1.527 . S
C333 C105 1.530 . S
C337 C142 1.626 1_556 S
C351 C139 1.534 . S
C355 C108 1.617 . S
C369 C173 1.541 . S
C373 C28 1.621 . S
C387 C205 1.537 . S
C391 C40 1.618 . S
C405 C241 1.545 . S
C409 C74 1.625 . S
C423 C22 0.967 . S
C427 C83 0.985 . S
C441 C117 0.987 . S
C445 C49 0.991 . S
C459 C151 0.973 . S
C463 C226 0.971 . S
C477 C185 0.967 . S
C481 C253 0.981 . S
C495 C6 2.284 . S
C499 C137 2.234 . S
C513 C171 2.232 . S
C517 C62 2.285 . S
C531 C96 2.277 . S
C535 C207 2.240 . S
C549 C239 2.227 . S
C553 C130 2.283 . S
C567 C164 2.277 1_455 S
C571 C3 2.229 . S
C585 C198 2.280 1_565 S
C589 C35 2.238 . S
C603 C69 2.237 . S
C607 C210 2.274 1_655 S
C621 C103 2.237 . S
C625 C266 2.274 1_545 S
C639 C15 0.898 . S
C643 C51 0.905 . S
C657 C85 0.904 . S
C661 C56 0.903 . S
C675 C119 0.905 . S
C679 C90 0.899 . S
C693 C17 0.907 . S
C697 C124 0.888 . S
C711 C255 0.907 . S
C715 C158 0.886 . S
C729 C153 0.907 . S
C733 C192 0.883 . S
C747 C219 0.902 . S
C751 C187 0.904 . S
C765 C260 0.901 . S
C769 C221 0.904 . S
