# Generated by pormake.
# Topology qtz-x, (6)-cn, num edge types: 1
# Building blocks:
#     Node 0, Type 0, BuildingBlock: KUMBOL_clean_sbu_0, # of connection points: 6
#     Node 1, Type 0, BuildingBlock: KUMBOL_clean_sbu_0, # of connection points: 6
#     Node 2, Type 0, BuildingBlock: KUMBOL_clean_sbu_0, # of connection points: 6
#     Edge 3, Type (0, 0), BuildingBlock: UVAHIK_clean_linker_0, # of connection points: 2
#     Edge 4, Type (0, 0), BuildingBlock: UVAHIK_clean_linker_0, # of connection points: 2
#     Edge 5, Type (0, 0), BuildingBlock: UVAHIK_clean_linker_0, # of connection points: 2
#     Edge 6, Type (0, 0), BuildingBlock: UVAHIK_clean_linker_0, # of connection points: 2
#     Edge 7, Type (0, 0), BuildingBlock: UVAHIK_clean_linker_0, # of connection points: 2
#     Edge 8, Type (0, 0), BuildingBlock: UVAHIK_clean_linker_0, # of connection points: 2
#     Edge 9, Type (0, 0), BuildingBlock: UVAHIK_clean_linker_0, # of connection points: 2
#     Edge 10, Type (0, 0), BuildingBlock: UVAHIK_clean_linker_0, # of connection points: 2
#     Edge 11, Type (0, 0), BuildingBlock: UVAHIK_clean_linker_0, # of connection points: 2
# Relax obj value: 0.169
# Max RMSD: 0.277
# Mean RMSD: 0.277
data_MOF--net-qtz-x--node1-KUMBOL_clean_sbu_0--edge1-UVAHIK_clean_linker_0
_symmetry_space_group_name_H-M    P1
_symmetry_Int_Tables_number       1
_symmetry_cell_setting            triclinic
loop_
_symmetry_equiv_pos_as_xyz
'x, y, z'
_cell_length_a     19.365573
_cell_length_b     19.405191
_cell_length_c     61.003833
_cell_angle_alpha  90.0283
_cell_angle_beta   90.072284
_cell_angle_gamma 120.00026
loop_
_atom_site_label
_atom_site_type_symbol
_atom_site_fract_x
_atom_site_fract_y
_atom_site_fract_z
_atom_type_partial_charge
Gd0 Gd 0.03948 0.39453 0.17601 0.0
Gd1 Gd 0.24846 0.49983 0.19557 0.0
C2 C 0.45082 0.6851 0.15276 0.0
C3 C 0.47903 0.60255 0.12869 0.0
C4 C 0.37671 0.54192 0.15681 0.0
C5 C 0.39081 0.61597 0.16313 0.0
C6 C 0.42141 0.53432 0.13966 0.0
C7 C 0.49371 0.67787 0.13523 0.0
C8 C 0.46739 0.75944 0.16071 0.0
C9 C 0.42698 0.76345 0.17914 0.0
N10 N 0.34803 0.62065 0.18002 0.0
C11 C 0.36859 0.69317 0.18892 0.0
H12 H 0.33963 0.6968 0.2036 0.0
C13 C 0.30592 0.40298 0.16219 0.0
N14 N 0.31924 0.47722 0.16744 0.0
C15 C 0.34941 0.39252 0.14552 0.0
C16 C 0.40701 0.4584 0.13408 0.0
H17 H 0.26123 0.35081 0.17043 0.0
H18 H 0.53935 0.73019 0.12691 0.0
H19 H 0.97684 0.26184 0.21726 0.0
H20 H 0.513 0.81392 0.15322 0.0
H21 H 0.44133 0.82059 0.18598 0.0
H22 H 0.51317 0.59777 0.11532 0.0
H23 H 0.98212 0.48826 0.1409 0.0
H24 H 0.78812 0.27062 0.25095 0.0
H25 H 0.877 0.21419 0.2467 0.0
H26 H 0.7422 0.44846 0.20703 0.0
H27 H 0.33782 0.33343 0.14138 0.0
H28 H 0.44003 0.45004 0.12103 0.0
H29 H 0.73955 0.36001 0.23634 0.0
H30 H 0.88619 0.53677 0.13927 0.0
N31 N 0.94598 0.34548 0.2048 0.0
C32 C 0.83167 0.29158 0.23786 0.0
C33 C 0.88152 0.25939 0.23545 0.0
C34 C 0.83666 0.34828 0.22282 0.0
C35 C 0.8945 0.37353 0.20609 0.0
C36 C 0.93825 0.28673 0.21866 0.0
N37 N 0.9488 0.44131 0.17312 0.0
C38 C 0.89599 0.42318 0.1897 0.0
C39 C 0.88886 0.50563 0.15367 0.0
C40 C 0.83794 0.49246 0.17134 0.0
C41 C 0.94332 0.47828 0.15468 0.0
C42 C 0.8398 0.44919 0.18945 0.0
H43 H 0.79556 0.51337 0.17048 0.0
O44 O 0.01258 0.35032 0.14252 0.0
O45 O 0.16788 0.44212 0.16729 0.0
O46 O 0.21025 0.58966 0.18653 0.0
O47 O 0.06982 0.52005 0.18332 0.0
O48 O 0.1003 0.4729 0.1472 0.0
O49 O 0.94607 0.2732 0.16922 0.0
O50 O 0.32356 0.56689 0.22319 0.0
O51 O 0.12017 0.43121 0.20496 0.0
O52 O 0.07044 0.30344 0.18751 0.0
O53 O 0.19998 0.36964 0.20147 0.0
O54 O 0.19356 0.5347 0.22266 0.0
O55 O 0.3134 0.45483 0.21416 0.0
C56 C 0.16955 0.48056 0.1503 0.0
C57 C 0.78523 0.42828 0.20678 0.0
C58 C 0.7837 0.3779 0.22346 0.0
C59 C 0.95145 0.28283 0.14807 0.0
C60 C 0.87704 0.25815 0.13567 0.0
C61 C 0.80228 0.22036 0.14607 0.0
C62 C 0.88083 0.2723 0.11298 0.0
C63 C 0.81117 0.2499 0.10073 0.0
C64 C 0.73283 0.19727 0.13396 0.0
C65 C 0.73704 0.21183 0.11144 0.0
C66 C 0.13996 0.58615 0.18504 0.0
C67 C 0.12242 0.47519 0.2206 0.0
C68 C 0.33607 0.50981 0.22916 0.0
C69 C 0.31475 0.4827 0.25211 0.0
C70 C 0.24944 0.40703 0.25667 0.0
C71 C 0.35534 0.53476 0.26964 0.0
C72 C 0.3301 0.51168 0.29144 0.0
C73 C 0.22534 0.38347 0.2782 0.0
C74 C 0.26507 0.43535 0.29548 0.0
C75 C 0.13235 0.30437 0.19682 0.0
H76 H 0.7973 0.20866 0.16352 0.0
H77 H 0.93819 0.30053 0.1048 0.0
H78 H 0.67551 0.16839 0.14208 0.0
H79 H 0.68243 0.19462 0.10249 0.0
H80 H 0.21563 0.36639 0.24364 0.0
H81 H 0.40456 0.59392 0.26627 0.0
H82 H 0.17485 0.32511 0.28148 0.0
H83 H 0.24495 0.41572 0.31207 0.0
Gd84 Gd 0.73182 0.13256 0.50716 0.0
Gd85 Gd 0.6076 0.92576 0.52799 0.0
C86 C 0.47029 0.70982 0.48345 0.0
C87 C 0.33262 0.67053 0.49164 0.0
C88 C 0.44118 0.78361 0.51032 0.0
C89 C 0.49608 0.77288 0.49862 0.0
C90 C 0.35877 0.73157 0.50733 0.0
C91 C 0.38831 0.65973 0.4797 0.0
C92 C 0.52762 0.69795 0.47289 0.0
C93 C 0.60809 0.74675 0.47809 0.0
N94 N 0.57474 0.82205 0.50276 0.0
C95 C 0.63064 0.80819 0.49336 0.0
H96 H 0.69303 0.8457 0.49713 0.0
C97 C 0.4168 0.84997 0.53918 0.0
N98 N 0.46853 0.84277 0.52544 0.0
C99 C 0.33447 0.80013 0.53676 0.0
C100 C 0.30525 0.74124 0.52058 0.0
H101 H 0.43888 0.89557 0.55166 0.0
H102 H 0.36735 0.61142 0.46797 0.0
H103 H 0.65027 0.214 0.53886 0.0
H104 H 0.51031 0.65044 0.46105 0.0
H105 H 0.65285 0.73735 0.47027 0.0
H106 H 0.26954 0.63033 0.48896 0.0
H107 H 0.89836 0.15754 0.48327 0.0
H108 H 0.83686 0.4091 0.57408 0.0
H109 H 0.69345 0.32303 0.56568 0.0
H110 H 0.0743 0.42582 0.54467 0.0
H111 H 0.29364 0.80727 0.54734 0.0
H112 H 0.24146 0.70253 0.51878 0.0
H113 H 0.97891 0.44681 0.5662 0.0
H114 H 0.04407 0.24415 0.48698 0.0
N115 N 0.76767 0.23635 0.53254 0.0
C116 C 0.81821 0.36124 0.56228 0.0
C117 C 0.73725 0.31291 0.55756 0.0
C118 C 0.87426 0.34857 0.55128 0.0
C119 C 0.84673 0.28519 0.53616 0.0
C120 C 0.71299 0.25113 0.54232 0.0
N121 N 0.87127 0.21369 0.50915 0.0
C122 C 0.90028 0.27361 0.52405 0.0
C123 C 0.0043 0.25299 0.49755 0.0
C124 C 0.03518 0.31308 0.51338 0.0
C125 C 0.9217 0.20416 0.49545 0.0
C126 C 0.98304 0.32466 0.52671 0.0
H127 H 0.09918 0.35093 0.51494 0.0
O128 O 0.75424 0.17417 0.47355 0.0
O129 O 0.65609 0.00498 0.49914 0.0
O130 O 0.73629 0.96038 0.52153 0.0
O131 O 0.81063 0.09856 0.52521 0.0
O132 O 0.75233 0.06867 0.47895 0.0
O133 O 0.68745 0.20849 0.49524 0.0
O134 O 0.58994 0.89322 0.56236 0.0
O135 O 0.68358 0.05349 0.53599 0.0
O136 O 0.60341 0.09855 0.51362 0.0
O137 O 0.52776 0.96006 0.51052 0.0
O138 O 0.58431 0.99071 0.55526 0.0
O139 O 0.64484 0.84507 0.54105 0.0
C140 C 0.69077 -0.00025 0.48231 0.0
C141 C 0.01093 0.38626 0.54227 0.0
C142 C 0.95662 0.39817 0.55454 0.0
C143 C 0.72133 0.21809 0.47612 0.0
C144 C 0.76637 0.29943 0.46737 0.0
C145 C 0.79804 0.36675 0.48101 0.0
C146 C 0.7787 0.30923 0.4447 0.0
C147 C 0.82303 0.38543 0.43545 0.0
C148 C 0.841 0.44286 0.47191 0.0
C149 C 0.85351 0.45237 0.44927 0.0
C150 C 0.80377 0.02732 0.52561 0.0
C151 C 0.64708 0.05921 0.55231 0.0
C152 C 0.61713 0.84427 0.5606 0.0
C153 C 0.5679 0.76644 0.57102 0.0
C154 C 0.50303 0.70475 0.55993 0.0
C155 C 0.58274 0.75592 0.59295 0.0
C156 C 0.53209 0.68455 0.60413 0.0
C157 C 0.45279 0.63368 0.57074 0.0
C158 C 0.46661 0.6237 0.59269 0.0
C159 C 0.53524 0.03162 0.51018 0.0
H160 H 0.78982 0.36066 0.49861 0.0
H161 H 0.75359 0.25702 0.43423 0.0
H162 H 0.86537 0.49465 0.48247 0.0
H163 H 0.88844 0.51183 0.44265 0.0
H164 H 0.49062 0.71188 0.54306 0.0
H165 H 0.63379 0.80375 0.60122 0.0
H166 H 0.40221 0.58651 0.56218 0.0
H167 H 0.42499 0.56868 0.60073 0.0
Gd168 Gd 0.78156 0.4512 0.84196 0.0
Gd169 Gd 0.68832 0.56686 0.86241 0.0
C170 C 0.60417 0.70112 0.81854 0.0
C171 C 0.69688 0.83887 0.82816 0.0
C172 C 0.70612 0.73159 0.8459 0.0
C173 C 0.6429 0.67631 0.83352 0.0
C174 C 0.73293 0.81347 0.84372 0.0
C175 C 0.63261 0.78276 0.81558 0.0
C176 C 0.53669 0.64308 0.80746 0.0
C177 C 0.5079 0.56279 0.81204 0.0
N178 N 0.61655 0.598 0.83699 0.0
C179 C 0.54806 0.54124 0.82719 0.0
H180 H 0.5252 0.47899 0.83054 0.0
C181 C 0.79541 0.75644 0.87525 0.0
N182 N 0.73889 0.7049 0.8609 0.0
C183 C 0.82439 0.8383 0.87366 0.0
C184 C 0.79367 0.86708 0.85764 0.0
H185 H 0.81968 0.73452 0.88758 0.0
H186 H 0.6041 0.80302 0.80401 0.0
H187 H 0.93825 0.53098 0.87614 0.0
H188 H 0.50538 0.65963 0.79576 0.0
H189 H 0.45489 0.51742 0.80388 0.0
H190 H 0.717 0.90157 0.82611 0.0
H191 H 0.64707 0.28634 0.81527 0.0
H192 H 0.94935 0.3425 0.9092 0.0
H193 H 0.0027 0.48633 0.903 0.0
H194 H 0.73948 0.10763 0.87544 0.0
H195 H 0.87047 0.8791 0.88474 0.0
H196 H 0.81598 0.93048 0.85648 0.0
H197 H 0.8506 0.20132 0.89888 0.0
H198 H 0.59259 0.14153 0.8171 0.0
N199 N 0.84795 0.41387 0.86752 0.0
C200 C 0.92082 0.36181 0.89736 0.0
C201 C 0.95119 0.443 0.89387 0.0
C202 C 0.85515 0.3065 0.88513 0.0
C203 C 0.81998 0.33482 0.87 0.0
C204 C 0.91447 0.4681 0.8786 0.0
N205 N 0.72728 0.31208 0.84201 0.0
C206 C 0.75775 0.28224 0.85682 0.0
C207 C 0.63889 0.18041 0.82842 0.0
C208 C 0.66764 0.14862 0.8441 0.0
C209 C 0.67016 0.26274 0.82741 0.0
C210 C 0.72842 0.19967 0.85839 0.0
H211 H 0.64343 0.08482 0.8448 0.0
O212 O 0.80847 0.4459 0.8078 0.0
O213 O 0.72646 0.5245 0.83357 0.0
O214 O 0.59948 0.43795 0.85464 0.0
O215 O 0.66707 0.36698 0.85833 0.0
O216 O 0.69825 0.42828 0.81348 0.0
O217 O 0.90406 0.49402 0.83178 0.0
O218 O 0.66595 0.58948 0.89578 0.0
O219 O 0.74432 0.49509 0.87051 0.0
O220 O 0.87025 0.57824 0.85099 0.0
O221 O 0.80474 0.65074 0.84646 0.0
O222 O 0.76918 0.58689 0.89165 0.0
O223 O 0.56704 0.51231 0.8745 0.0
C224 C 0.68785 0.48808 0.81666 0.0
C225 C 0.7615 0.17089 0.87389 0.0
C226 C 0.82474 0.22422 0.88725 0.0
C227 C 0.88374 0.4718 0.81148 0.0
C228 C 0.91707 0.42719 0.80052 0.0
C229 C 0.96301 0.40089 0.81173 0.0
C230 C 0.9012 0.40992 0.77814 0.0
C231 C 0.92843 0.36481 0.76695 0.0
C232 C -0.00775 0.3578 0.80058 0.0
C233 C 0.97503 0.3396 0.77833 0.0
C234 C 0.60137 0.37177 0.85866 0.0
C235 C 0.78015 0.52767 0.88803 0.0
C236 C 0.58875 0.54805 0.89347 0.0
C237 C 0.54374 0.58501 0.90177 0.0
C238 C 0.5222 0.62904 0.88798 0.0
C239 C 0.52194 0.57573 0.92395 0.0
C240 C 0.47792 0.60937 0.93244 0.0
C241 C 0.47865 0.66278 0.8963 0.0
C242 C 0.45632 0.65288 0.91836 0.0
C243 C 0.87024 0.64565 0.84764 0.0
H244 H 0.97602 0.41319 0.82904 0.0
H245 H 0.86676 0.43135 0.76944 0.0
H246 H 0.02752 0.3375 0.80928 0.0
H247 H -0.00352 0.30429 0.77021 0.0
H248 H 0.53866 0.63706 0.87085 0.0
H249 H 0.53813 0.54106 0.93451 0.0
H250 H 0.46206 0.69665 0.88561 0.0
H251 H 0.4229 0.67994 0.92447 0.0
C252 C 0.18878 0.71214 0.20542 0.0
C253 C 0.13884 0.65966 0.18918 0.0
C254 C 0.18423 0.77929 0.21082 0.0
C255 C 0.05386 0.8633 0.20987 0.0
H256 H 0.24935 0.06634 0.2049 0.0
C257 C 0.05972 0.15641 0.19509 0.0
C258 C 0.12523 0.22761 0.20254 0.0
C259 C 0.05653 0.08415 0.19874 0.0
C260 C 0.19453 0.01026 0.20699 0.0
H261 H 0.04427 0.63471 0.16608 0.0
H262 H 0.03531 0.75234 0.17571 0.0
H263 H 0.2534 0.94408 0.20071 0.0
H264 H 0.23634 0.27852 0.22087 0.0
H265 H 0.22887 0.15212 0.22805 0.0
H266 H -0.00529 0.92942 0.21599 0.0
C267 C 0.07791 0.74119 0.18422 0.0
C268 C 0.19693 0.94039 0.20442 0.0
C269 C 0.08316 0.67436 0.17866 0.0
C270 C 0.18517 0.22481 0.21481 0.0
C271 C 0.1812 0.1524 0.21882 0.0
C272 C 0.05153 0.93331 0.21276 0.0
C273 C 0.12867 0.79407 0.20028 0.0
C274 C 0.12641 0.86671 0.2053 0.0
C275 C 0.11825 0.08171 0.21018 0.0
C276 C 0.1216 0.00749 0.21076 0.0
H277 H 0.22933 0.69992 0.21455 0.0
H278 H 0.22322 0.81906 0.22345 0.0
H279 H -0.00101 0.80661 0.21087 0.0
H280 H 0.01239 0.15653 0.18563 0.0
H281 H 0.00774 0.03089 0.1916 0.0
C282 C 0.462 0.10494 0.51559 0.0
C283 C 0.46209 0.03594 0.50873 0.0
C284 C 0.39053 0.10506 0.51734 0.0
C285 C 0.18088 0.96775 0.52722 0.0
H286 H 0.15311 0.14406 0.50921 0.0
C287 C 0.87893 0.95493 0.52257 0.0
C288 C 0.87683 0.02366 0.52855 0.0
C289 C 0.95097 0.95547 0.52249 0.0
C290 C 0.16066 0.09505 0.51463 0.0
H291 H 0.38909 0.91557 0.49637 0.0
H292 H 0.26389 0.91586 0.49952 0.0
H293 H 0.27886 0.14839 0.50172 0.0
H294 H 0.94637 0.14421 0.54116 0.0
H295 H 0.07241 0.14504 0.5409 0.0
H296 H 0.06244 0.9142 0.54001 0.0
C297 C 0.3189 0.96897 0.50404 0.0
C298 C 0.23217 0.09736 0.51023 0.0
C299 C 0.39038 0.96891 0.50223 0.0
C300 C 0.9467 0.09102 0.53594 0.0
C301 C 0.01869 0.09157 0.53582 0.0
C302 C 0.10934 0.96545 0.53163 0.0
C303 C 0.31839 0.03632 0.51216 0.0
C304 C 0.24253 0.03353 0.51639 0.0
C305 C 0.02161 0.02461 0.52848 0.0
C306 C 0.0987 0.02894 0.52528 0.0
H307 H 0.51647 0.15767 0.52059 0.0
H308 H 0.3914 0.15764 0.52369 0.0
H309 H 0.18833 0.91855 0.53249 0.0
H310 H 0.82583 0.90197 0.51696 0.0
H311 H 0.95197 0.90322 0.51667 0.0
C312 C 0.95245 0.7923 0.84282 0.0
C313 C 0.94708 0.71953 0.84824 0.0
C314 C 0.02393 0.86308 0.84579 0.0
C315 C 0.23776 0.9437 0.85046 0.0
H316 H 0.23494 0.11818 0.88078 0.0
C317 C 0.52554 0.2297 0.86962 0.0
C318 C 0.52584 0.29847 0.86235 0.0
C319 C 0.45406 0.1584 0.87139 0.0
C320 C 0.23627 0.06979 0.8723 0.0
H321 H 0.01303 0.66309 0.85988 0.0
H322 H 0.13753 0.78652 0.86489 0.0
H323 H 0.11013 -0.00665 0.87501 0.0
H324 H 0.45189 0.34822 0.85253 0.0
H325 H 0.32716 0.22316 0.85526 0.0
H326 H 0.3633 0.02017 0.8473 0.0
C327 C 0.08645 0.78879 0.85851 0.0
C328 C 0.16524 -0.00105 0.86892 0.0
C329 C 0.0151 0.71824 0.85565 0.0
C330 C 0.45344 0.29594 0.85802 0.0
C331 C 0.382 0.2246 0.85976 0.0
C332 C 0.30862 0.01444 0.8538 0.0
C333 C 0.09095 0.86161 0.85393 0.0
C334 C 0.16564 0.93588 0.85779 0.0
C335 C 0.38209 0.15505 0.86593 0.0
C336 C 0.30824 0.07817 0.86455 0.0
H337 H 0.90132 0.79476 0.8366 0.0
H338 H 0.02686 0.91886 0.84177 0.0
H339 H 0.23907 0.89583 0.84168 0.0
H340 H 0.58047 0.23041 0.87354 0.0
H341 H 0.45517 0.10549 0.87649 0.0
C342 C 0.50809 0.60676 0.97242 0.0
C343 C 0.45369 0.598 0.95585 0.0
C344 C 0.48474 0.59482 0.99443 0.0
C345 C 0.42835 0.61113 0.0402 0.0
H346 H 0.22307 0.42902 0.05471 0.0
C347 C 0.26173 0.57322 0.12221 0.0
C348 C 0.22203 0.49686 0.1314 0.0
C349 C 0.30006 0.58596 0.10196 0.0
C350 C 0.28095 0.47967 0.05098 0.0
H351 H 0.33212 0.56938 0.94936 0.0
H352 H 0.29139 0.54867 0.98776 0.0
H353 H 0.26917 0.45027 1.01686 0.0
H354 H 0.18742 0.37332 0.12656 0.0
H355 H 0.25462 0.39522 0.09118 0.0
H356 H 0.4395 0.6407 0.07443 0.0
C357 C 0.35204 0.5646 0.98372 0.0
C358 C 0.30691 0.49233 0.02925 0.0
C359 C 0.37555 0.57721 0.96176 0.0
C360 C 0.22033 0.43322 0.12006 0.0
C361 C 0.25783 0.44564 0.09975 0.0
C362 C 0.40202 0.59879 0.06197 0.0
C363 C 0.40629 0.57308 1.0003 0.0
C364 C 0.38055 0.55852 0.02357 0.0
C365 C 0.29687 0.52188 0.09029 0.0
C366 C 0.3278 0.53313 0.06754 0.0
H367 H 0.5689 0.62336 0.96837 0.0
H368 H 0.52772 0.60133 1.00682 0.0
H369 H 0.48524 0.66286 0.03629 0.0
H370 H 0.26144 0.62254 0.13046 0.0
H371 H 0.32867 0.64512 0.09495 0.0
C372 C 0.83434 0.45283 0.39926 0.0
C373 C 0.83914 0.39401 0.41152 0.0
C374 C 0.84877 0.45941 0.37666 0.0
C375 C 0.8608 0.34668 0.32901 0.0
H376 H 0.00163 0.55519 0.30447 0.0
C377 C 0.05442 0.39651 0.25342 0.0
C378 C 0.06408 0.45446 0.23815 0.0
C379 C 0.0109 0.38592 0.27254 0.0
C380 C 0.96089 0.49668 0.31095 0.0
H381 H 0.86509 0.29757 0.40976 0.0
H382 H 0.89039 0.30914 0.37059 0.0
H383 H 0.95613 0.54391 0.34228 0.0
H384 H 0.03991 0.54954 0.23099 0.0
H385 H 0.96212 0.53043 0.26451 0.0
H386 H 0.86834 0.2994 0.29794 0.0
C387 C 0.87349 0.34892 0.37824 0.0
C388 C 0.93487 0.49019 0.33262 0.0
C389 C 0.85919 0.34241 0.40073 0.0
C390 C 0.03063 0.50266 0.24231 0.0
C391 C 0.98695 0.49218 0.26149 0.0
C392 C 0.88702 0.35316 0.30741 0.0
C393 C 0.86826 0.40727 0.3659 0.0
C394 C 0.8865 0.41498 0.34208 0.0
C395 C 0.97751 0.43426 0.27691 0.0
C396 C 0.93918 0.42808 0.29838 0.0
H397 H 0.81834 0.49301 0.40708 0.0
H398 H 0.84395 0.50477 0.36758 0.0
H399 H 0.82205 0.28795 0.33568 0.0
H400 H 0.08188 0.36044 0.25074 0.0
H401 H 0.00614 0.34199 0.28431 0.0
C402 C 0.70234 0.60216 0.79377 0.0
C403 C 0.66234 0.52049 0.79857 0.0
C404 C 0.68323 0.6299 0.77479 0.0
C405 C 0.53256 0.56375 0.72927 0.0
H406 H 0.70863 0.72822 0.69613 0.0
C407 C 0.52731 0.59822 0.63566 0.0
C408 C 0.54657 0.67382 0.62765 0.0
C409 C 0.53862 0.58742 0.65774 0.0
C410 C 0.65884 0.68285 0.70534 0.0
H411 H 0.57296 0.40375 0.78729 0.0
H412 H 0.54126 0.45095 0.75406 0.0
H413 H 0.73203 0.69588 0.73311 0.0
H414 H 0.59327 0.79745 0.63707 0.0
H415 H 0.61658 0.77864 0.6754 0.0
H416 H 0.46071 0.54777 0.70086 0.0
C417 C 0.5849 0.49456 0.76516 0.0
C418 C 0.67197 0.66454 0.7266 0.0
C419 C 0.60344 0.46719 0.78414 0.0
C420 C 0.57898 0.73858 0.64239 0.0
C421 C 0.59183 0.72792 0.66442 0.0
C422 C 0.5199 0.58104 0.70791 0.0
C423 C 0.62498 0.57621 0.76004 0.0
C424 C 0.60931 0.60339 0.73867 0.0
C425 C 0.57098 0.65208 0.6723 0.0
C426 C 0.58318 0.63966 0.69562 0.0
H427 H 0.74948 0.64426 0.80438 0.0
H428 H 0.71488 0.69321 0.77155 0.0
H429 H 0.48231 0.51793 0.73822 0.0
H430 H 0.50417 0.54715 0.62486 0.0
H431 H 0.52317 0.5285 0.66339 0.0
C432 C 0.85476 0.53473 0.92189 0.0
C433 C 0.79742 0.48831 0.90611 0.0
C434 C 0.86434 0.49953 0.94076 0.0
C435 C 0.74665 0.33042 0.97667 0.0
H436 H 0.94944 0.39624 1.00511 0.0
C437 C 0.87397 0.34312 0.06908 0.0
C438 C 0.81612 0.26814 0.07695 0.0
C439 C 0.8766 0.36185 0.04687 0.0
C440 C 0.8923 0.37756 0.99743 0.0
H441 H 0.70446 0.36884 0.8978 0.0
H442 H 0.72191 0.30711 0.93048 0.0
H443 H 0.94691 0.44344 0.96815 0.0
H444 H 0.7176 0.15293 0.06757 0.0
H445 H 0.72254 0.18524 0.02873 0.0
H446 H 0.69174 0.26699 1.00608 0.0
C447 C 0.75987 0.37064 0.92824 0.0
C448 C 0.89093 0.40442 0.97625 0.0
C449 C 0.75048 0.40587 0.90936 0.0
C450 C 0.76208 0.21163 0.06204 0.0
C451 C 0.76495 0.2302 0.03979 0.0
C452 C 0.74798 0.3039 0.99785 0.0
C453 C 0.8157 0.41734 0.94437 0.0
C454 C 0.81804 0.38218 0.96578 0.0
C455 C 0.82163 0.30591 0.03197 0.0
C456 C 0.82078 0.32821 1.00866 0.0
H457 H 0.8908 0.5986 0.91986 0.0
H458 H 0.90713 0.53731 0.953 0.0
H459 H 0.68947 0.31316 0.9692 0.0
H460 H 0.9158 0.3883 0.08021 0.0
H461 H 0.92015 0.42118 0.04154 0.0
C462 C 0.32321 0.57537 0.32645 0.0
C463 C 0.36955 0.56692 0.3101 0.0
C464 C 0.35926 0.62332 0.34477 0.0
C465 C 0.54069 0.70646 0.37842 0.0
H466 H 0.46687 0.84566 0.4006 0.0
C467 C 0.70014 0.93073 0.44903 0.0
C468 C 0.65265 0.94301 0.4641 0.0
C469 C 0.66595 0.88315 0.43049 0.0
C470 C 0.48745 0.80623 0.39485 0.0
H471 H 0.4901 0.60308 0.29996 0.0
H472 H 0.5535 0.68732 0.33212 0.0
H473 H 0.40809 0.76884 0.36733 0.0
H474 H 0.53268 0.91785 0.47115 0.0
H475 H 0.47231 0.83251 0.43935 0.0
H476 H 0.61929 0.74294 0.40611 0.0
C477 C 0.48912 0.65629 0.33075 0.0
C478 C 0.45397 0.76248 0.37569 0.0
C479 C 0.45297 0.60877 0.31226 0.0
C480 C 0.57044 0.90761 0.46018 0.0
C481 C 0.53609 0.85972 0.44172 0.0
C482 C 0.57388 0.74987 0.39768 0.0
C483 C 0.44255 0.66368 0.34727 0.0
C484 C 0.4801 0.71202 0.36726 0.0
C485 C 0.58351 0.84753 0.42649 0.0
C486 C 0.54762 0.80028 0.40616 0.0
H487 H 0.2588 0.54443 0.32512 0.0
H488 H 0.32167 0.6273 0.35725 0.0
H489 H 0.56128 0.66721 0.37251 0.0
H490 H 0.76399 0.95881 0.45149 0.0
H491 H 0.70456 0.87628 0.41897 0.0
C492 C 0.95924 0.34357 0.7282 0.0
C493 C 0.90476 0.34172 0.74373 0.0
C494 C 0.93579 0.32201 0.70637 0.0
C495 C 0.75491 0.20503 0.67297 0.0
H496 H 0.88992 0.32088 0.62377 0.0
C497 C 0.63547 0.12495 0.58576 0.0
C498 C 0.68421 0.11374 0.57094 0.0
C499 C 0.66655 0.16449 0.60556 0.0
C500 C 0.8518 0.28789 0.63738 0.0
H501 H 0.78268 0.31465 0.74856 0.0
H502 H 0.74265 0.27912 0.71065 0.0
H503 H 0.93708 0.36464 0.66129 0.0
H504 H 0.80404 0.13627 0.56494 0.0
H505 H 0.85856 0.20555 0.59952 0.0
H506 H 0.67002 0.12796 0.64933 0.0
C507 C 0.80325 0.29651 0.71527 0.0
C508 C 0.87885 0.3127 0.65882 0.0
C509 C 0.82653 0.31782 0.73698 0.0
C510 C 0.76544 0.14547 0.57584 0.0
C511 C 0.79665 0.18509 0.59569 0.0
C512 C 0.72795 0.18049 0.65165 0.0
C513 C 0.85731 0.29779 0.69971 0.0
C514 C 0.83042 0.27162 0.67685 0.0
C515 C 0.74681 0.19256 0.61108 0.0
C516 C 0.7758 0.22171 0.6336 0.0
H517 H 0.0201 0.36229 0.73287 0.0
H518 H 0.97865 0.32298 0.6948 0.0
H519 H 0.71682 0.17093 0.68646 0.0
H520 H 0.57259 0.10073 0.58233 0.0
H521 H 0.62699 0.17059 0.61693 0.0
loop_
_geom_bond_atom_site_label_1
_geom_bond_atom_site_label_2
_geom_bond_distance
_geom_bond_site_symmetry_2
_ccdc_geom_bond_type
Gd0 N31 2.661 . S
Gd0 N37 2.601 . S
Gd0 O44 2.545 . S
Gd0 O45 2.606 1_655 S
Gd0 O47 2.429 . S
Gd0 O48 2.545 . S
Gd0 O49 2.412 . S
Gd0 O51 2.362 . S
Gd0 O52 2.324 . S
Gd0 C59 2.828 . S
Gd1 N10 2.661 . S
Gd1 N14 2.601 . S
Gd1 O45 2.362 . S
Gd1 O46 2.324 . S
Gd1 O50 2.545 . S
Gd1 O51 2.606 1_455 S
Gd1 O53 2.429 . S
Gd1 O54 2.545 . S
Gd1 O55 2.412 . S
Gd1 C68 2.828 . S
C2 C5 1.417 . S
C2 C7 1.431 . S
C2 C8 1.412 . S
C3 C6 1.437 . S
C3 C7 1.317 . S
C3 H22 0.929 . S
C4 C5 1.426 . S
C4 C6 1.413 . S
C4 N14 1.359 . S
C5 C2 1.417 . S
C5 C4 1.426 . S
C5 N10 1.350 . S
C6 C3 1.437 . S
C6 C4 1.413 . S
C6 C16 1.391 . S
C7 C2 1.431 . S
C7 C3 1.317 . S
C7 H18 0.930 . S
C8 C2 1.412 . S
C8 C9 1.355 . S
C8 H20 0.930 . S
C9 C8 1.355 . S
C9 C11 1.402 . S
C9 H21 0.930 . S
N10 Gd1 2.661 . S
N10 C5 1.350 . S
N10 C11 1.307 . S
C11 C9 1.402 . S
C11 N10 1.307 . S
C11 H12 0.930 . S
H12 C11 0.930 . S
C13 N14 1.334 . S
C13 C15 1.394 . S
C13 H17 0.930 . S
N14 Gd1 2.601 . S
N14 C4 1.359 . S
N14 C13 1.334 . S
C15 C13 1.394 . S
C15 C16 1.359 . S
C15 H27 0.930 . S
C16 C6 1.391 . S
C16 C15 1.359 . S
C16 H28 0.929 . S
H17 C13 0.930 . S
H18 C7 0.930 . S
H19 C36 0.930 . S
H20 C8 0.930 . S
H21 C9 0.930 . S
H22 C3 0.929 . S
H23 C41 0.930 . S
H24 C32 0.930 . S
H25 C33 0.930 . S
H26 C57 0.929 . S
H27 C15 0.930 . S
H28 C16 0.929 . S
H29 C58 0.930 . S
H30 C39 0.930 . S
N31 Gd0 2.661 . S
N31 C35 1.350 . S
N31 C36 1.307 . S
C32 H24 0.930 . S
C32 C33 1.355 . S
C32 C34 1.412 . S
C33 H25 0.930 . S
C33 C32 1.355 . S
C33 C36 1.402 . S
C34 C32 1.412 . S
C34 C35 1.417 . S
C34 C58 1.431 . S
C35 N31 1.350 . S
C35 C34 1.417 . S
C35 C38 1.426 . S
C36 H19 0.930 . S
C36 N31 1.307 . S
C36 C33 1.402 . S
N37 Gd0 2.601 . S
N37 C38 1.359 . S
N37 C41 1.334 . S
C38 C35 1.426 . S
C38 N37 1.359 . S
C38 C42 1.413 . S
C39 H30 0.930 . S
C39 C40 1.359 . S
C39 C41 1.394 . S
C40 C39 1.359 . S
C40 C42 1.391 . S
C40 H43 0.929 . S
C41 H23 0.930 . S
C41 N37 1.334 . S
C41 C39 1.394 . S
C42 C38 1.413 . S
C42 C40 1.391 . S
C42 C57 1.437 . S
H43 C40 0.929 . S
O44 Gd0 2.545 . S
O44 C59 1.258 . S
O45 Gd0 2.606 1_455 S
O45 Gd1 2.362 . S
O45 C56 1.284 . S
O46 Gd1 2.324 . S
O46 C66 1.254 . S
O47 Gd0 2.429 . S
O47 C66 1.268 1_655 S
O48 Gd0 2.545 . S
O48 C56 1.250 1_655 S
O49 Gd0 2.412 . S
O49 C59 1.252 . S
O50 Gd1 2.545 . S
O50 C68 1.258 . S
O51 Gd0 2.362 . S
O51 Gd1 2.606 1_655 S
O51 C67 1.284 . S
O52 Gd0 2.324 . S
O52 C75 1.254 . S
O53 Gd1 2.429 . S
O53 C75 1.268 1_455 S
O54 Gd1 2.545 . S
O54 C67 1.250 1_455 S
O55 Gd1 2.412 . S
O55 C68 1.252 . S
C56 O45 1.284 . S
C56 O48 1.250 1_455 S
C57 H26 0.929 . S
C57 C42 1.437 . S
C57 C58 1.317 . S
C58 H29 0.930 . S
C58 C34 1.431 . S
C58 C57 1.317 . S
C59 Gd0 2.828 . S
C59 O44 1.258 . S
C59 O49 1.252 . S
C59 C60 1.497 . S
C60 C59 1.497 . S
C60 C61 1.395 . S
C60 C62 1.380 . S
C61 C60 1.395 . S
C61 C64 1.398 . S
C61 H76 0.930 . S
C62 C60 1.380 . S
C62 C63 1.391 . S
C62 H77 0.930 . S
C63 C62 1.391 . S
C63 C65 1.387 . S
C64 C61 1.398 . S
C64 C65 1.380 . S
C64 H78 0.930 . S
C65 C63 1.387 . S
C65 C64 1.380 . S
C65 H79 0.930 . S
C66 O46 1.254 . S
C66 O47 1.268 1_455 S
C67 O51 1.284 . S
C67 O54 1.250 1_655 S
C68 Gd1 2.828 . S
C68 O50 1.258 . S
C68 O55 1.252 . S
C68 C69 1.497 . S
C69 C68 1.497 . S
C69 C70 1.395 . S
C69 C71 1.380 . S
C70 C69 1.395 . S
C70 C73 1.398 . S
C70 H80 0.930 . S
C71 C69 1.380 . S
C71 C72 1.391 . S
C71 H81 0.930 . S
C72 C71 1.391 . S
C72 C74 1.387 . S
C73 C70 1.398 . S
C73 C74 1.380 . S
C73 H82 0.930 . S
C74 C72 1.387 . S
C74 C73 1.380 . S
C74 H83 0.930 . S
C75 O52 1.254 . S
C75 O53 1.268 1_655 S
H76 C61 0.930 . S
H77 C62 0.930 . S
H78 C64 0.930 . S
H79 C65 0.930 . S
H80 C70 0.930 . S
H81 C71 0.930 . S
H82 C73 0.930 . S
H83 C74 0.930 . S
Gd84 N115 2.661 . S
Gd84 N121 2.601 . S
Gd84 O128 2.545 . S
Gd84 O129 2.606 . S
Gd84 O131 2.429 . S
Gd84 O132 2.545 . S
Gd84 O133 2.412 . S
Gd84 O135 2.362 . S
Gd84 O136 2.324 . S
Gd84 C143 2.828 . S
Gd85 N94 2.661 1_545 S
Gd85 N98 2.601 1_545 S
Gd85 O129 2.362 . S
Gd85 O130 2.324 . S
Gd85 O134 2.545 . S
Gd85 O135 2.606 . S
Gd85 O137 2.429 . S
Gd85 O138 2.545 . S
Gd85 O139 2.412 . S
Gd85 C152 2.828 1_545 S
C86 C89 1.417 . S
C86 C91 1.431 . S
C86 C92 1.412 . S
C87 C90 1.437 . S
C87 C91 1.317 . S
C87 H106 0.929 . S
C88 C89 1.426 . S
C88 C90 1.413 . S
C88 N98 1.359 . S
C89 C86 1.417 . S
C89 C88 1.426 . S
C89 N94 1.350 . S
C90 C87 1.437 . S
C90 C88 1.413 . S
C90 C100 1.391 . S
C91 C86 1.431 . S
C91 C87 1.317 . S
C91 H102 0.930 . S
C92 C86 1.412 . S
C92 C93 1.355 . S
C92 H104 0.930 . S
C93 C92 1.355 . S
C93 C95 1.402 . S
C93 H105 0.930 . S
N94 Gd85 2.661 1_565 S
N94 C89 1.350 . S
N94 C95 1.307 . S
C95 C93 1.402 . S
C95 N94 1.307 . S
C95 H96 0.930 1_565 S
H96 C95 0.930 1_545 S
C97 N98 1.334 . S
C97 C99 1.394 . S
C97 H101 0.930 1_565 S
N98 Gd85 2.601 1_565 S
N98 C88 1.359 . S
N98 C97 1.334 . S
C99 C97 1.394 . S
C99 C100 1.359 . S
C99 H111 0.930 . S
C100 C90 1.391 . S
C100 C99 1.359 . S
C100 H112 0.929 . S
H101 C97 0.930 1_545 S
H102 C91 0.930 . S
H103 C120 0.930 . S
H104 C92 0.930 . S
H105 C93 0.930 . S
H106 C87 0.929 . S
H107 C125 0.930 . S
H108 C116 0.930 . S
H109 C117 0.930 . S
H110 C141 0.929 . S
H111 C99 0.930 . S
H112 C100 0.929 . S
H113 C142 0.930 . S
H114 C123 0.930 . S
N115 Gd84 2.661 . S
N115 C119 1.350 . S
N115 C120 1.307 . S
C116 H108 0.930 . S
C116 C117 1.355 . S
C116 C118 1.412 . S
C117 H109 0.930 . S
C117 C116 1.355 . S
C117 C120 1.402 . S
C118 C116 1.412 . S
C118 C119 1.417 . S
C118 C142 1.431 1_655 S
C119 N115 1.350 . S
C119 C118 1.417 . S
C119 C122 1.426 . S
C120 H103 0.930 . S
C120 N115 1.307 . S
C120 C117 1.402 . S
N121 Gd84 2.601 . S
N121 C122 1.359 . S
N121 C125 1.334 1_655 S
C122 C119 1.426 . S
C122 N121 1.359 . S
C122 C126 1.413 1_655 S
C123 H114 0.930 . S
C123 C124 1.359 . S
C123 C125 1.394 . S
C124 C123 1.359 . S
C124 C126 1.391 . S
C124 H127 0.929 . S
C125 H107 0.930 . S
C125 N121 1.334 1_455 S
C125 C123 1.394 . S
C126 C122 1.413 1_455 S
C126 C124 1.391 . S
C126 C141 1.437 . S
H127 C124 0.929 . S
O128 Gd84 2.545 . S
O128 C143 1.258 . S
O129 Gd84 2.606 . S
O129 Gd85 2.362 . S
O129 C140 1.284 . S
O130 Gd85 2.324 . S
O130 C150 1.254 . S
O131 Gd84 2.429 . S
O131 C150 1.268 . S
O132 Gd84 2.545 . S
O132 C140 1.250 . S
O133 Gd84 2.412 . S
O133 C143 1.252 . S
O134 Gd85 2.545 . S
O134 C152 1.258 1_545 S
O135 Gd84 2.362 . S
O135 Gd85 2.606 . S
O135 C151 1.284 . S
O136 Gd84 2.324 . S
O136 C159 1.254 . S
O137 Gd85 2.429 . S
O137 C159 1.268 . S
O138 Gd85 2.545 . S
O138 C151 1.250 . S
O139 Gd85 2.412 . S
O139 C152 1.252 1_545 S
C140 O129 1.284 . S
C140 O132 1.250 . S
C141 H110 0.929 . S
C141 C126 1.437 . S
C141 C142 1.317 . S
C142 H113 0.930 . S
C142 C118 1.431 1_455 S
C142 C141 1.317 . S
C143 Gd84 2.828 . S
C143 O128 1.258 . S
C143 O133 1.252 . S
C143 C144 1.497 . S
C144 C143 1.497 . S
C144 C145 1.395 . S
C144 C146 1.380 . S
C145 C144 1.395 . S
C145 C148 1.398 . S
C145 H160 0.930 1_655 S
C146 C144 1.380 . S
C146 C147 1.391 . S
C146 H161 0.930 . S
C147 C146 1.391 . S
C147 C149 1.387 . S
C148 C145 1.398 . S
C148 C149 1.380 . S
C148 H162 0.930 1_655 S
C149 C147 1.387 . S
C149 C148 1.380 . S
C149 H163 0.930 . S
C150 O130 1.254 . S
C150 O131 1.268 . S
C151 O135 1.284 . S
C151 O138 1.250 . S
C152 Gd85 2.828 1_565 S
C152 O134 1.258 1_565 S
C152 O139 1.252 1_565 S
C152 C153 1.497 . S
C153 C152 1.497 . S
C153 C154 1.395 . S
C153 C155 1.380 . S
C154 C153 1.395 . S
C154 C157 1.398 . S
C154 H164 0.930 . S
C155 C153 1.380 . S
C155 C156 1.391 . S
C155 H165 0.930 . S
C156 C155 1.391 . S
C156 C158 1.387 . S
C157 C154 1.398 . S
C157 C158 1.380 . S
C157 H166 0.930 . S
C158 C156 1.387 . S
C158 C157 1.380 . S
C158 H167 0.930 . S
C159 O136 1.254 . S
C159 O137 1.268 . S
H160 C145 0.930 1_455 S
H161 C146 0.930 . S
H162 C148 0.930 1_455 S
H163 C149 0.930 . S
H164 C154 0.930 . S
H165 C155 0.930 . S
H166 C157 0.930 . S
H167 C158 0.930 . S
Gd168 N199 2.661 . S
Gd168 N205 2.601 . S
Gd168 O212 2.545 . S
Gd168 O213 2.606 . S
Gd168 O215 2.429 . S
Gd168 O216 2.545 . S
Gd168 O217 2.412 . S
Gd168 O219 2.362 . S
Gd168 O220 2.324 . S
Gd168 C227 2.828 . S
Gd169 N178 2.661 . S
Gd169 N182 2.601 . S
Gd169 O213 2.362 . S
Gd169 O214 2.324 . S
Gd169 O218 2.545 . S
Gd169 O219 2.606 . S
Gd169 O221 2.429 . S
Gd169 O222 2.545 . S
Gd169 O223 2.412 . S
Gd169 C236 2.828 . S
C170 C173 1.417 . S
C170 C175 1.431 . S
C170 C176 1.412 . S
C171 C174 1.437 . S
C171 C175 1.317 . S
C171 H190 0.929 . S
C172 C173 1.426 . S
C172 C174 1.413 . S
C172 N182 1.359 . S
C173 C170 1.417 . S
C173 C172 1.426 . S
C173 N178 1.350 . S
C174 C171 1.437 . S
C174 C172 1.413 . S
C174 C184 1.391 . S
C175 C170 1.431 . S
C175 C171 1.317 . S
C175 H186 0.930 . S
C176 C170 1.412 . S
C176 C177 1.355 . S
C176 H188 0.930 . S
C177 C176 1.355 . S
C177 C179 1.402 . S
C177 H189 0.930 . S
N178 Gd169 2.661 . S
N178 C173 1.350 . S
N178 C179 1.307 . S
C179 C177 1.402 . S
C179 N178 1.307 . S
C179 H180 0.930 . S
H180 C179 0.930 . S
C181 N182 1.334 . S
C181 C183 1.394 . S
C181 H185 0.930 . S
N182 Gd169 2.601 . S
N182 C172 1.359 . S
N182 C181 1.334 . S
C183 C181 1.394 . S
C183 C184 1.359 . S
C183 H195 0.930 . S
C184 C174 1.391 . S
C184 C183 1.359 . S
C184 H196 0.929 . S
H185 C181 0.930 . S
H186 C175 0.930 . S
H187 C204 0.930 . S
H188 C176 0.930 . S
H189 C177 0.930 . S
H190 C171 0.929 . S
H191 C209 0.930 . S
H192 C200 0.930 . S
H193 C201 0.930 . S
H194 C225 0.929 . S
H195 C183 0.930 . S
H196 C184 0.929 . S
H197 C226 0.930 . S
H198 C207 0.930 . S
N199 Gd168 2.661 . S
N199 C203 1.350 . S
N199 C204 1.307 . S
C200 H192 0.930 . S
C200 C201 1.355 . S
C200 C202 1.412 1_455 S
C201 H193 0.930 . S
C201 C200 1.355 . S
C201 C204 1.402 1_455 S
C202 C200 1.412 1_655 S
C202 C203 1.417 . S
C202 C226 1.431 . S
C203 N199 1.350 . S
C203 C202 1.417 . S
C203 C206 1.426 . S
C204 H187 0.930 . S
C204 N199 1.307 . S
C204 C201 1.402 1_655 S
N205 Gd168 2.601 . S
N205 C206 1.359 . S
N205 C209 1.334 . S
C206 C203 1.426 . S
C206 N205 1.359 . S
C206 C210 1.413 . S
C207 H198 0.930 . S
C207 C208 1.359 . S
C207 C209 1.394 . S
C208 C207 1.359 . S
C208 C210 1.391 . S
C208 H211 0.929 1_545 S
C209 H191 0.930 . S
C209 N205 1.334 . S
C209 C207 1.394 . S
C210 C206 1.413 . S
C210 C208 1.391 . S
C210 C225 1.437 . S
H211 C208 0.929 1_565 S
O212 Gd168 2.545 . S
O212 C227 1.258 . S
O213 Gd168 2.606 . S
O213 Gd169 2.362 . S
O213 C224 1.284 . S
O214 Gd169 2.324 . S
O214 C234 1.254 . S
O215 Gd168 2.429 . S
O215 C234 1.268 . S
O216 Gd168 2.545 . S
O216 C224 1.250 . S
O217 Gd168 2.412 . S
O217 C227 1.252 . S
O218 Gd169 2.545 . S
O218 C236 1.258 . S
O219 Gd168 2.362 . S
O219 Gd169 2.606 . S
O219 C235 1.284 . S
O220 Gd168 2.324 . S
O220 C243 1.254 . S
O221 Gd169 2.429 . S
O221 C243 1.268 . S
O222 Gd169 2.545 . S
O222 C235 1.250 . S
O223 Gd169 2.412 . S
O223 C236 1.252 . S
C224 O213 1.284 . S
C224 O216 1.250 . S
C225 H194 0.929 . S
C225 C210 1.437 . S
C225 C226 1.317 . S
C226 H197 0.930 . S
C226 C202 1.431 . S
C226 C225 1.317 . S
C227 Gd168 2.828 . S
C227 O212 1.258 . S
C227 O217 1.252 . S
C227 C228 1.497 . S
C228 C227 1.497 . S
C228 C229 1.395 . S
C228 C230 1.380 . S
C229 C228 1.395 . S
C229 C232 1.398 . S
C229 H244 0.930 . S
C230 C228 1.380 . S
C230 C231 1.391 . S
C230 H245 0.930 . S
C231 C230 1.391 . S
C231 C233 1.387 . S
C232 C229 1.398 . S
C232 C233 1.380 . S
C232 H246 0.930 . S
C233 C231 1.387 . S
C233 C232 1.380 . S
C233 H247 0.930 . S
C234 O214 1.254 . S
C234 O215 1.268 . S
C235 O219 1.284 . S
C235 O222 1.250 . S
C236 Gd169 2.828 . S
C236 O218 1.258 . S
C236 O223 1.252 . S
C236 C237 1.497 . S
C237 C236 1.497 . S
C237 C238 1.395 . S
C237 C239 1.380 . S
C238 C237 1.395 . S
C238 C241 1.398 . S
C238 H248 0.930 . S
C239 C237 1.380 . S
C239 C240 1.391 . S
C239 H249 0.930 . S
C240 C239 1.391 . S
C240 C242 1.387 . S
C241 C238 1.398 . S
C241 C242 1.380 . S
C241 H250 0.930 . S
C242 C240 1.387 . S
C242 C241 1.380 . S
C242 H251 0.930 . S
C243 O220 1.254 . S
C243 O221 1.268 . S
H244 C229 0.930 . S
H245 C230 0.930 . S
H246 C232 0.930 . S
H247 C233 0.930 . S
H248 C238 0.930 . S
H249 C239 0.930 . S
H250 C241 0.930 . S
H251 C242 0.930 . S
C252 C253 1.349 . S
C252 C254 1.327 . S
C252 H277 0.950 . S
C253 C252 1.349 . S
C253 C269 1.349 1_455 S
C254 C252 1.327 . S
C254 C273 1.429 . S
C254 H278 0.950 . S
C255 C272 1.574 . S
C255 C274 1.368 1_655 S
C255 H279 0.949 . S
H256 C260 0.949 1_545 S
C257 C258 1.349 . S
C257 C259 1.327 . S
C257 H280 0.950 . S
C258 C257 1.349 . S
C258 C270 1.349 1_655 S
C259 C257 1.327 . S
C259 C275 1.429 . S
C259 H281 0.950 . S
C260 H256 0.949 1_565 S
C260 C268 1.574 . S
C260 C276 1.368 1_455 S
H261 C269 0.950 . S
H262 C267 0.950 . S
H263 C268 0.949 . S
H264 C270 0.950 . S
H265 C271 0.950 . S
H266 C272 0.949 . S
C267 H262 0.950 . S
C267 C269 1.327 . S
C267 C273 1.429 1_655 S
C268 C260 1.574 . S
C268 H263 0.949 . S
C268 C274 1.368 . S
C269 C253 1.349 1_655 S
C269 H261 0.950 . S
C269 C267 1.327 . S
C270 C258 1.349 1_455 S
C270 H264 0.950 . S
C270 C271 1.327 . S
C271 H265 0.950 . S
C271 C270 1.327 . S
C271 C275 1.429 1_455 S
C272 C255 1.574 . S
C272 H266 0.949 . S
C272 C276 1.368 . S
C273 C254 1.429 . S
C273 C267 1.429 1_455 S
C273 C274 1.523 . S
C274 C255 1.368 1_455 S
C274 C268 1.368 . S
C274 C273 1.523 . S
C275 C259 1.429 . S
C275 C271 1.429 1_655 S
C275 C276 1.523 1_545 S
C276 C260 1.368 1_655 S
C276 C272 1.368 . S
C276 C275 1.523 1_565 S
H277 C252 0.950 . S
H278 C254 0.950 . S
H279 C255 0.949 . S
H280 C257 0.950 . S
H281 C259 0.950 . S
C282 C283 1.349 . S
C282 C284 1.327 . S
C282 H307 0.950 . S
C283 C282 1.349 . S
C283 C299 1.349 . S
C284 C282 1.327 . S
C284 C303 1.429 . S
C284 H308 0.950 . S
C285 C302 1.574 . S
C285 C304 1.368 . S
C285 H309 0.949 . S
H286 C290 0.949 . S
C287 C288 1.349 . S
C287 C289 1.327 1_655 S
C287 H310 0.950 . S
C288 C287 1.349 . S
C288 C300 1.349 1_655 S
C289 C287 1.327 1_455 S
C289 C305 1.429 . S
C289 H311 0.950 . S
C290 H286 0.949 . S
C290 C298 1.574 . S
C290 C306 1.368 . S
H291 C299 0.950 . S
H292 C297 0.950 . S
H293 C298 0.949 . S
H294 C300 0.950 . S
H295 C301 0.950 . S
H296 C302 0.949 . S
C297 H292 0.950 . S
C297 C299 1.327 . S
C297 C303 1.429 . S
C298 C290 1.574 . S
C298 H293 0.949 . S
C298 C304 1.368 . S
C299 C283 1.349 . S
C299 H291 0.950 . S
C299 C297 1.327 . S
C300 C288 1.349 1_455 S
C300 H294 0.950 . S
C300 C301 1.327 . S
C301 H295 0.950 . S
C301 C300 1.327 . S
C301 C305 1.429 . S
C302 C285 1.574 . S
C302 H296 0.949 . S
C302 C306 1.368 . S
C303 C284 1.429 . S
C303 C297 1.429 . S
C303 C304 1.523 . S
C304 C285 1.368 . S
C304 C298 1.368 . S
C304 C303 1.523 . S
C305 C289 1.429 . S
C305 C301 1.429 . S
C305 C306 1.523 . S
C306 C290 1.368 . S
C306 C302 1.368 . S
C306 C305 1.523 . S
H307 C282 0.950 . S
H308 C284 0.950 . S
H309 C285 0.949 . S
H310 C287 0.950 . S
H311 C289 0.950 . S
C312 C313 1.349 1_455 S
C312 C314 1.327 . S
C312 H337 0.950 . S
C313 C312 1.349 1_655 S
C313 C329 1.352 1_655 S
C314 C312 1.327 . S
C314 C333 1.429 . S
C314 H338 0.950 . S
C315 C332 1.574 . S
C315 C334 1.368 . S
C315 H339 0.949 . S
H316 C320 0.949 . S
C317 C318 1.349 . S
C317 C319 1.327 . S
C317 H340 0.950 . S
C318 C317 1.349 . S
C318 C330 1.349 . S
C319 C317 1.327 . S
C319 C335 1.429 . S
C319 H341 0.950 . S
C320 H316 0.949 . S
C320 C328 1.574 . S
C320 C336 1.368 . S
H321 C329 0.940 1_655 S
H322 C327 0.950 . S
H323 C328 0.949 . S
H324 C330 0.950 . S
H325 C331 0.950 . S
H326 C332 0.949 1_545 S
C327 H322 0.950 . S
C327 C329 1.334 . S
C327 C333 1.429 . S
C328 C320 1.574 . S
C328 H323 0.949 . S
C328 C334 1.368 . S
C329 C313 1.352 1_455 S
C329 H321 0.940 1_455 S
C329 C327 1.334 . S
C330 C318 1.349 . S
C330 H324 0.950 . S
C330 C331 1.327 . S
C331 H325 0.950 . S
C331 C330 1.327 . S
C331 C335 1.429 . S
C332 C315 1.574 . S
C332 H326 0.949 1_565 S
C332 C336 1.368 . S
C333 C314 1.429 . S
C333 C327 1.429 . S
C333 C334 1.523 . S
C334 C315 1.368 . S
C334 C328 1.368 . S
C334 C333 1.523 . S
C335 C319 1.429 . S
C335 C331 1.429 . S
C335 C336 1.523 1_545 S
C336 C320 1.368 . S
C336 C332 1.368 . S
C336 C335 1.523 1_565 S
H337 C312 0.950 . S
H338 C314 0.950 . S
H339 C315 0.949 . S
H340 C317 0.950 . S
H341 C319 0.950 . S
C342 C343 1.349 . S
C342 C344 1.327 . S
C342 H367 0.950 . S
C343 C342 1.349 . S
C343 C359 1.349 . S
C344 C342 1.327 . S
C344 C363 1.429 . S
C344 H368 0.950 1_556 S
C345 C362 1.574 . S
C345 C364 1.368 . S
C345 H369 0.949 . S
H346 C350 0.949 . S
C347 C348 1.349 . S
C347 C349 1.327 . S
C347 H370 0.950 . S
C348 C347 1.349 . S
C348 C360 1.349 . S
C349 C347 1.327 . S
C349 C365 1.429 . S
C349 H371 0.950 . S
C350 H346 0.949 . S
C350 C358 1.574 . S
C350 C366 1.368 . S
H351 C359 0.950 . S
H352 C357 0.950 . S
H353 C358 0.949 . S
H354 C360 0.950 . S
H355 C361 0.950 . S
H356 C362 0.949 . S
C357 H352 0.950 . S
C357 C359 1.327 . S
C357 C363 1.429 . S
C358 C350 1.574 . S
C358 H353 0.949 . S
C358 C364 1.368 . S
C359 C343 1.349 . S
C359 H351 0.950 . S
C359 C357 1.327 . S
C360 C348 1.349 . S
C360 H354 0.950 . S
C360 C361 1.327 . S
C361 H355 0.950 . S
C361 C360 1.327 . S
C361 C365 1.429 . S
C362 C345 1.574 . S
C362 H356 0.949 . S
C362 C366 1.368 . S
C363 C344 1.429 . S
C363 C357 1.429 . S
C363 C364 1.523 1_556 S
C364 C345 1.368 . S
C364 C358 1.368 . S
C364 C363 1.523 1_554 S
C365 C349 1.429 . S
C365 C361 1.429 . S
C365 C366 1.523 . S
C366 C350 1.368 . S
C366 C362 1.368 . S
C366 C365 1.523 . S
H367 C342 0.950 . S
H368 C344 0.950 1_554 S
H369 C345 0.949 . S
H370 C347 0.950 . S
H371 C349 0.950 . S
C372 C373 1.349 . S
C372 C374 1.327 . S
C372 H397 0.950 . S
C373 C372 1.349 . S
C373 C389 1.349 . S
C374 C372 1.327 . S
C374 C393 1.429 . S
C374 H398 0.950 . S
C375 C392 1.574 . S
C375 C394 1.368 . S
C375 H399 0.949 . S
H376 C380 0.949 . S
C377 C378 1.349 . S
C377 C379 1.327 . S
C377 H400 0.950 . S
C378 C377 1.349 . S
C378 C390 1.349 . S
C379 C377 1.327 . S
C379 C395 1.429 . S
C379 H401 0.950 . S
C380 H376 0.949 . S
C380 C388 1.574 . S
C380 C396 1.368 . S
H381 C389 0.950 . S
H382 C387 0.950 . S
H383 C388 0.949 . S
H384 C390 0.950 1_455 S
H385 C391 0.950 . S
H386 C392 0.949 . S
C387 H382 0.950 . S
C387 C389 1.327 . S
C387 C393 1.429 . S
C388 C380 1.574 . S
C388 H383 0.949 . S
C388 C394 1.368 . S
C389 C373 1.349 . S
C389 H381 0.950 . S
C389 C387 1.327 . S
C390 C378 1.349 . S
C390 H384 0.950 1_655 S
C390 C391 1.327 . S
C391 H385 0.950 . S
C391 C390 1.327 . S
C391 C395 1.429 . S
C392 C375 1.574 . S
C392 H386 0.949 . S
C392 C396 1.368 . S
C393 C374 1.429 . S
C393 C387 1.429 . S
C393 C394 1.523 . S
C394 C375 1.368 . S
C394 C388 1.368 . S
C394 C393 1.523 . S
C395 C379 1.429 . S
C395 C391 1.429 . S
C395 C396 1.523 . S
C396 C380 1.368 . S
C396 C392 1.368 . S
C396 C395 1.523 . S
H397 C372 0.950 . S
H398 C374 0.950 . S
H399 C375 0.949 . S
H400 C377 0.950 . S
H401 C379 0.950 . S
C402 C403 1.349 . S
C402 C404 1.327 . S
C402 H427 0.950 . S
C403 C402 1.349 . S
C403 C419 1.349 . S
C404 C402 1.327 . S
C404 C423 1.429 . S
C404 H428 0.950 . S
C405 C422 1.574 . S
C405 C424 1.368 . S
C405 H429 0.949 . S
H406 C410 0.949 . S
C407 C408 1.349 . S
C407 C409 1.327 . S
C407 H430 0.950 . S
C408 C407 1.349 . S
C408 C420 1.349 . S
C409 C407 1.327 . S
C409 C425 1.429 . S
C409 H431 0.950 . S
C410 H406 0.949 . S
C410 C418 1.574 . S
C410 C426 1.368 . S
H411 C419 0.950 . S
H412 C417 0.950 . S
H413 C418 0.949 . S
H414 C420 0.950 . S
H415 C421 0.950 . S
H416 C422 0.949 . S
C417 H412 0.950 . S
C417 C419 1.327 . S
C417 C423 1.429 . S
C418 C410 1.574 . S
C418 H413 0.949 . S
C418 C424 1.368 . S
C419 C403 1.349 . S
C419 H411 0.950 . S
C419 C417 1.327 . S
C420 C408 1.349 . S
C420 H414 0.950 . S
C420 C421 1.327 . S
C421 H415 0.950 . S
C421 C420 1.327 . S
C421 C425 1.429 . S
C422 C405 1.574 . S
C422 H416 0.949 . S
C422 C426 1.368 . S
C423 C404 1.429 . S
C423 C417 1.429 . S
C423 C424 1.523 . S
C424 C405 1.368 . S
C424 C418 1.368 . S
C424 C423 1.523 . S
C425 C409 1.429 . S
C425 C421 1.429 . S
C425 C426 1.523 . S
C426 C410 1.368 . S
C426 C422 1.368 . S
C426 C425 1.523 . S
H427 C402 0.950 . S
H428 C404 0.950 . S
H429 C405 0.949 . S
H430 C407 0.950 . S
H431 C409 0.950 . S
C432 C433 1.349 . S
C432 C434 1.327 . S
C432 H457 0.950 . S
C433 C432 1.349 . S
C433 C449 1.349 . S
C434 C432 1.327 . S
C434 C453 1.429 . S
C434 H458 0.950 . S
C435 C452 1.574 . S
C435 C454 1.368 . S
C435 H459 0.949 . S
H436 C440 0.949 . S
C437 C438 1.349 . S
C437 C439 1.327 . S
C437 H460 0.950 . S
C438 C437 1.349 . S
C438 C450 1.349 . S
C439 C437 1.327 . S
C439 C455 1.429 . S
C439 H461 0.950 . S
C440 H436 0.949 . S
C440 C448 1.574 . S
C440 C456 1.368 . S
H441 C449 0.950 . S
H442 C447 0.950 . S
H443 C448 0.949 . S
H444 C450 0.950 . S
H445 C451 0.950 . S
H446 C452 0.949 . S
C447 H442 0.950 . S
C447 C449 1.327 . S
C447 C453 1.429 . S
C448 C440 1.574 . S
C448 H443 0.949 . S
C448 C454 1.368 . S
C449 C433 1.349 . S
C449 H441 0.950 . S
C449 C447 1.327 . S
C450 C438 1.349 . S
C450 H444 0.950 . S
C450 C451 1.327 . S
C451 H445 0.950 . S
C451 C450 1.327 . S
C451 C455 1.429 . S
C452 C435 1.574 . S
C452 H446 0.949 . S
C452 C456 1.368 . S
C453 C434 1.429 . S
C453 C447 1.429 . S
C453 C454 1.523 . S
C454 C435 1.368 . S
C454 C448 1.368 . S
C454 C453 1.523 . S
C455 C439 1.429 . S
C455 C451 1.429 . S
C455 C456 1.523 1_554 S
C456 C440 1.368 . S
C456 C452 1.368 . S
C456 C455 1.523 1_556 S
H457 C432 0.950 . S
H458 C434 0.950 . S
H459 C435 0.949 . S
H460 C437 0.950 . S
H461 C439 0.950 . S
C462 C463 1.349 . S
C462 C464 1.327 . S
C462 H487 0.950 . S
C463 C462 1.349 . S
C463 C479 1.349 . S
C464 C462 1.327 . S
C464 C483 1.429 . S
C464 H488 0.950 . S
C465 C482 1.574 . S
C465 C484 1.368 . S
C465 H489 0.949 . S
H466 C470 0.949 . S
C467 C468 1.349 1_565 S
C467 C469 1.327 . S
C467 H490 0.950 . S
C468 C467 1.349 1_545 S
C468 C480 1.349 . S
C469 C467 1.327 . S
C469 C485 1.429 . S
C469 H491 0.950 . S
C470 H466 0.949 . S
C470 C478 1.574 . S
C470 C486 1.368 . S
H471 C479 0.950 . S
H472 C477 0.950 . S
H473 C478 0.949 . S
H474 C480 0.950 . S
H475 C481 0.950 . S
H476 C482 0.949 . S
C477 H472 0.950 . S
C477 C479 1.327 . S
C477 C483 1.429 . S
C478 C470 1.574 . S
C478 H473 0.949 . S
C478 C484 1.368 . S
C479 C463 1.349 . S
C479 H471 0.950 . S
C479 C477 1.327 . S
C480 C468 1.349 . S
C480 H474 0.950 . S
C480 C481 1.327 . S
C481 H475 0.950 . S
C481 C480 1.327 . S
C481 C485 1.429 1_545 S
C482 C465 1.574 . S
C482 H476 0.949 . S
C482 C486 1.368 . S
C483 C464 1.429 . S
C483 C477 1.429 . S
C483 C484 1.523 . S
C484 C465 1.368 . S
C484 C478 1.368 . S
C484 C483 1.523 . S
C485 C469 1.429 . S
C485 C481 1.429 1_565 S
C485 C486 1.523 . S
C486 C470 1.368 . S
C486 C482 1.368 . S
C486 C485 1.523 . S
H487 C462 0.950 . S
H488 C464 0.950 . S
H489 C465 0.949 . S
H490 C467 0.950 . S
H491 C469 0.950 . S
C492 C493 1.349 . S
C492 C494 1.327 . S
C492 H517 0.950 . S
C493 C492 1.349 . S
C493 C509 1.349 1_455 S
C494 C492 1.327 . S
C494 C513 1.429 1_455 S
C494 H518 0.950 . S
C495 C512 1.574 . S
C495 C514 1.368 . S
C495 H519 0.949 . S
H496 C500 0.949 1_455 S
C497 C498 1.349 . S
C497 C499 1.327 . S
C497 H520 0.950 . S
C498 C497 1.349 . S
C498 C510 1.349 . S
C499 C497 1.327 . S
C499 C515 1.429 . S
C499 H521 0.950 . S
C500 H496 0.949 1_655 S
C500 C508 1.574 1_655 S
C500 C516 1.368 . S
H501 C509 0.950 . S
H502 C507 0.950 . S
H503 C508 0.949 . S
H504 C510 0.950 . S
H505 C511 0.950 . S
H506 C512 0.949 . S
C507 H502 0.950 . S
C507 C509 1.327 . S
C507 C513 1.429 . S
C508 C500 1.574 1_455 S
C508 H503 0.949 . S
C508 C514 1.368 1_455 S
C509 C493 1.349 1_655 S
C509 H501 0.950 . S
C509 C507 1.327 . S
C510 C498 1.349 . S
C510 H504 0.950 . S
C510 C511 1.327 . S
C511 H505 0.950 . S
C511 C510 1.327 . S
C511 C515 1.429 . S
C512 C495 1.574 . S
C512 H506 0.949 . S
C512 C516 1.368 . S
C513 C494 1.429 1_655 S
C513 C507 1.429 . S
C513 C514 1.523 . S
C514 C495 1.368 . S
C514 C508 1.368 1_655 S
C514 C513 1.523 . S
C515 C499 1.429 . S
C515 C511 1.429 . S
C515 C516 1.523 . S
C516 C500 1.368 . S
C516 C512 1.368 . S
C516 C515 1.523 . S
H517 C492 0.950 . S
H518 C494 0.950 . S
H519 C495 0.949 . S
H520 C497 0.950 . S
H521 C499 0.950 . S
C253 C66 1.317 . S
C258 C75 1.317 . S
C283 C159 1.316 . S
C288 C150 1.316 . S
C313 C243 1.316 . S
C318 C234 1.316 . S
C343 C240 1.978 . S
C348 C56 2.134 . S
C373 C147 0.856 . S
C378 C67 0.921 . S
C403 C224 2.135 . S
C408 C156 1.977 . S
C433 C235 0.920 . S
C438 C63 0.855 . S
C463 C72 1.978 . S
C468 C140 2.135 . S
C493 C231 0.856 1_455 S
C498 C151 0.919 . S
