# Generated by pormake.
# Topology und, (4)-cn, num edge types: 1
# Building blocks:
#     Node 0, Type 0, BuildingBlock: KUFVIS_clean_sbu_0, # of connection points: 4
#     Node 1, Type 0, BuildingBlock: KUFVIS_clean_sbu_0, # of connection points: 4
#     Node 2, Type 0, BuildingBlock: KUFVIS_clean_sbu_0, # of connection points: 4
#     Node 3, Type 0, BuildingBlock: KUFVIS_clean_sbu_0, # of connection points: 4
#     Node 4, Type 0, BuildingBlock: KUFVIS_clean_sbu_0, # of connection points: 4
#     Node 5, Type 0, BuildingBlock: KUFVIS_clean_sbu_0, # of connection points: 4
#     Node 6, Type 0, BuildingBlock: KUFVIS_clean_sbu_0, # of connection points: 4
#     Node 7, Type 0, BuildingBlock: KUFVIS_clean_sbu_0, # of connection points: 4
#     Node 8, Type 0, BuildingBlock: KUFVIS_clean_sbu_0, # of connection points: 4
#     Node 9, Type 0, BuildingBlock: KUFVIS_clean_sbu_0, # of connection points: 4
#     Node 10, Type 0, BuildingBlock: KUFVIS_clean_sbu_0, # of connection points: 4
#     Node 11, Type 0, BuildingBlock: KUFVIS_clean_sbu_0, # of connection points: 4
#     Node 12, Type 0, BuildingBlock: KUFVIS_clean_sbu_0, # of connection points: 4
#     Node 13, Type 0, BuildingBlock: KUFVIS_clean_sbu_0, # of connection points: 4
#     Node 14, Type 0, BuildingBlock: KUFVIS_clean_sbu_0, # of connection points: 4
#     Node 15, Type 0, BuildingBlock: KUFVIS_clean_sbu_0, # of connection points: 4
#     Edge 16, Type (0, 0), BuildingBlock: TEMPAE_clean_linker_10, # of connection points: 2
#     Edge 17, Type (0, 0), BuildingBlock: TEMPAE_clean_linker_10, # of connection points: 2
#     Edge 18, Type (0, 0), BuildingBlock: TEMPAE_clean_linker_10, # of connection points: 2
#     Edge 19, Type (0, 0), BuildingBlock: TEMPAE_clean_linker_10, # of connection points: 2
#     Edge 20, Type (0, 0), BuildingBlock: TEMPAE_clean_linker_10, # of connection points: 2
#     Edge 21, Type (0, 0), BuildingBlock: TEMPAE_clean_linker_10, # of connection points: 2
#     Edge 22, Type (0, 0), BuildingBlock: TEMPAE_clean_linker_10, # of connection points: 2
#     Edge 23, Type (0, 0), BuildingBlock: TEMPAE_clean_linker_10, # of connection points: 2
#     Edge 24, Type (0, 0), BuildingBlock: TEMPAE_clean_linker_10, # of connection points: 2
#     Edge 25, Type (0, 0), BuildingBlock: TEMPAE_clean_linker_10, # of connection points: 2
#     Edge 26, Type (0, 0), BuildingBlock: TEMPAE_clean_linker_10, # of connection points: 2
#     Edge 27, Type (0, 0), BuildingBlock: TEMPAE_clean_linker_10, # of connection points: 2
#     Edge 28, Type (0, 0), BuildingBlock: TEMPAE_clean_linker_10, # of connection points: 2
#     Edge 29, Type (0, 0), BuildingBlock: TEMPAE_clean_linker_10, # of connection points: 2
#     Edge 30, Type (0, 0), BuildingBlock: TEMPAE_clean_linker_10, # of connection points: 2
#     Edge 31, Type (0, 0), BuildingBlock: TEMPAE_clean_linker_10, # of connection points: 2
#     Edge 32, Type (0, 0), BuildingBlock: TEMPAE_clean_linker_10, # of connection points: 2
#     Edge 33, Type (0, 0), BuildingBlock: TEMPAE_clean_linker_10, # of connection points: 2
#     Edge 34, Type (0, 0), BuildingBlock: TEMPAE_clean_linker_10, # of connection points: 2
#     Edge 35, Type (0, 0), BuildingBlock: TEMPAE_clean_linker_10, # of connection points: 2
#     Edge 36, Type (0, 0), BuildingBlock: TEMPAE_clean_linker_10, # of connection points: 2
#     Edge 37, Type (0, 0), BuildingBlock: TEMPAE_clean_linker_10, # of connection points: 2
#     Edge 38, Type (0, 0), BuildingBlock: TEMPAE_clean_linker_10, # of connection points: 2
#     Edge 39, Type (0, 0), BuildingBlock: TEMPAE_clean_linker_10, # of connection points: 2
#     Edge 40, Type (0, 0), BuildingBlock: TEMPAE_clean_linker_10, # of connection points: 2
#     Edge 41, Type (0, 0), BuildingBlock: TEMPAE_clean_linker_10, # of connection points: 2
#     Edge 42, Type (0, 0), BuildingBlock: TEMPAE_clean_linker_10, # of connection points: 2
#     Edge 43, Type (0, 0), BuildingBlock: TEMPAE_clean_linker_10, # of connection points: 2
#     Edge 44, Type (0, 0), BuildingBlock: TEMPAE_clean_linker_10, # of connection points: 2
#     Edge 45, Type (0, 0), BuildingBlock: TEMPAE_clean_linker_10, # of connection points: 2
#     Edge 46, Type (0, 0), BuildingBlock: TEMPAE_clean_linker_10, # of connection points: 2
#     Edge 47, Type (0, 0), BuildingBlock: TEMPAE_clean_linker_10, # of connection points: 2
# Relax obj value: 0.020
# Max RMSD: 0.089
# Mean RMSD: 0.079
data_MOF--net-und--node1-KUFVIS_clean_sbu_0--edge1-TEMPAE_clean_linker_10
_symmetry_space_group_name_H-M    P1
_symmetry_Int_Tables_number       1
_symmetry_cell_setting            triclinic
loop_
_symmetry_equiv_pos_as_xyz
'x, y, z'
_cell_length_a     60.316444
_cell_length_b     60.314053
_cell_length_c     22.298817
_cell_angle_alpha  92.094664
_cell_angle_beta   92.133001
_cell_angle_gamma 90.145662
loop_
_atom_site_label
_atom_site_type_symbol
_atom_site_fract_x
_atom_site_fract_y
_atom_site_fract_z
_atom_type_partial_charge
Mn0 Mn 0.25946 0.3404 0.01305 0.0
Mn1 Mn 0.22791 0.35975 0.89845 0.0
C2 C 0.25946 0.32211 0.91954 0.0
C3 C 0.2614 0.31814 0.09705 0.0
C4 C 0.27284 0.37966 0.93792 0.0
O5 O 0.2389 0.36224 0.05566 0.0
O6 O 0.21737 0.37145 0.9764 0.0
C7 C 0.18685 0.33584 0.92654 0.0
N8 N 0.20271 0.34057 0.88695 0.0
C9 C 0.18517 0.31676 0.81025 0.0
C10 C 0.1686 0.31169 0.8501 0.0
C11 C 0.16951 0.3212 0.9086 0.0
C12 C 0.20233 0.33104 0.83115 0.0
H13 H 0.18744 0.34315 0.9715 0.0
C14 C 0.22223 0.37226 0.03271 0.0
O15 O 0.27572 0.33397 0.09081 0.0
O16 O 0.24602 0.31553 0.05538 0.0
N17 N 0.23534 0.35018 0.81903 0.0
C18 C 0.25089 0.35905 0.78397 0.0
C19 C 0.25132 0.35261 0.72289 0.0
C20 C 0.23543 0.33755 0.69804 0.0
C21 C 0.21905 0.32931 0.7343 0.0
C22 C 0.21931 0.33652 0.79475 0.0
H23 H 0.26283 0.37106 0.80232 0.0
O24 O 0.27507 0.31878 0.95962 0.0
O25 O 0.24379 0.33545 0.93636 0.0
O26 O 0.2774 0.36615 0.97975 0.0
O27 O 0.25441 0.37931 0.90727 0.0
C28 C 0.20196 0.31492 0.71223 0.0
C29 C 0.18515 0.30846 0.75037 0.0
H30 H 0.15504 0.30062 0.83617 0.0
H31 H 0.1568 0.31736 0.93966 0.0
H32 H 0.26379 0.35935 0.69494 0.0
H33 H 0.23578 0.33267 0.65084 0.0
H34 H 0.20148 0.30888 0.66584 0.0
H35 H 0.17209 0.2974 0.73289 0.0
Mn36 Mn 0.92474 0.01281 0.23974 0.0
Mn37 Mn 0.90015 0.03392 0.36346 0.0
C38 C 0.94372 0.01323 0.33183 0.0
C39 C 0.94646 0.01756 0.156 0.0
C40 C 0.89074 0.98764 0.31109 0.0
O41 O 0.89888 0.03008 0.20349 0.0
O42 O 0.88476 0.04387 0.28888 0.0
C43 C 0.91016 0.08148 0.34867 0.0
N44 N 0.91073 0.06327 0.38303 0.0
C45 C 0.92448 0.08484 0.46949 0.0
C46 C 0.92393 0.10386 0.43514 0.0
C47 C 0.91689 0.10214 0.37435 0.0
C48 C 0.91781 0.06468 0.44126 0.0
H49 H 0.9045 0.08027 0.30215 0.0
C50 C 0.88498 0.04209 0.2315 0.0
O51 O 0.93326 1.00062 0.1591 0.0
O52 O 0.94638 0.0321 0.20022 0.0
N53 N 0.91306 0.02637 0.43965 0.0
C54 C 0.91411 0.00622 0.46525 0.0
C55 C 0.92175 0.00486 0.52525 0.0
C56 C 0.92774 0.02429 0.55869 0.0
C57 C 0.92645 0.04485 0.53148 0.0
C58 C 0.91891 0.04514 0.47139 0.0
H59 H 0.90907 0.99133 0.44015 0.0
O60 O 0.94929 0.99991 0.28804 0.0
O61 O 0.9273 0.02668 0.32047 0.0
O62 O 0.90352 0.98834 0.26671 0.0
O63 O 0.88825 0.00371 0.34891 0.0
C64 C 0.93249 0.06506 0.56148 0.0
C65 C 0.93157 0.08504 0.53045 0.0
H66 H 0.929 0.11984 0.45485 0.0
H67 H 0.91648 0.11673 0.34749 0.0
H68 H 0.92277 0.98892 0.54589 0.0
H69 H 0.93342 0.02321 0.60514 0.0
H70 H 0.93828 0.06537 0.60807 0.0
H71 H 0.93668 0.10041 0.55364 0.0
Mn72 Mn 0.25016 0.68362 0.50551 0.0
Mn73 Mn 0.23506 0.65975 0.63298 0.0
C74 C 0.25575 0.7024 0.59702 0.0
C75 C 0.24231 0.70559 0.42309 0.0
C76 C 0.27584 0.6463 0.56573 0.0
O77 O 0.22877 0.65932 0.4749 0.0
O78 O 0.2187 0.64557 0.56288 0.0
C79 C 0.18789 0.67277 0.63818 0.0
N80 N 0.20869 0.67241 0.66399 0.0
C81 C 0.19567 0.68725 0.75787 0.0
C82 C 0.17408 0.68779 0.73234 0.0
C83 C 0.17021 0.68065 0.67213 0.0
C84 C 0.21263 0.67939 0.72173 0.0
H85 H 0.18483 0.66691 0.59226 0.0
C86 C 0.21763 0.64601 0.50545 0.0
O87 O 0.25787 0.69077 0.42198 0.0
O88 O 0.23082 0.70713 0.47107 0.0
N89 N 0.24968 0.67188 0.70431 0.0
C90 C 0.27171 0.67195 0.72021 0.0
C91 C 0.27867 0.67998 0.77776 0.0
C92 C 0.2629 0.68751 0.81854 0.0
C93 C 0.24031 0.68727 0.80105 0.0
C94 C 0.2344 0.67928 0.74294 0.0
H95 H 0.28383 0.66588 0.68922 0.0
O96 O 0.26749 0.70704 0.55142 0.0
O97 O 0.24114 0.68655 0.5881 0.0
O98 O 0.27426 0.66042 0.52462 0.0
O99 O 0.26209 0.64494 0.60731 0.0
C100 C 0.22345 0.6948 0.83876 0.0
C101 C 0.20113 0.69468 0.81729 0.0
H102 H 0.16039 0.69384 0.75837 0.0
H103 H 0.1536 0.68105 0.65211 0.0
H104 H 0.29613 0.68019 0.79086 0.0
H105 H 0.26833 0.69353 0.86305 0.0
H106 H 0.22749 0.70099 0.88407 0.0
H107 H 0.18835 0.70084 0.84638 0.0
Mn108 Mn 0.5805 0.99346 0.77547 0.0
Mn109 Mn 0.60029 0.02331 0.66436 0.0
C110 C 0.56479 0.98904 0.67872 0.0
C111 C 0.55638 0.99162 0.85499 0.0
C112 C 0.62394 0.98334 0.71578 0.0
O113 O 0.59938 0.0175 0.81954 0.0
O114 O 0.60621 0.03924 0.74223 0.0
C115 C 0.56987 0.06164 0.67288 0.0
N116 N 0.57892 0.04478 0.6398 0.0
C117 C 0.55999 0.05643 0.5496 0.0
C118 C 0.55055 0.07402 0.58255 0.0
C119 C 0.55536 0.07651 0.64459 0.0
C120 C 0.5738 0.04178 0.58059 0.0
H121 H 0.57374 0.06372 0.72042 0.0
C122 C 0.60685 0.03526 0.79813 0.0
O123 O 0.57414 0.97948 0.85334 0.0
O124 O 0.553 0.00504 0.8116 0.0
N125 N 0.59593 0.01027 0.58532 0.0
C126 C 0.60701 0.99291 0.55962 0.0
C127 C 0.60431 0.98834 0.49758 0.0
C128 C 0.59072 1.00199 0.4623 0.0
C129 C 0.57989 0.02007 0.48943 0.0
C130 C 0.58312 0.02374 0.55151 0.0
H131 H 0.618 0.98271 0.58604 0.0
O132 O 0.56192 0.97418 0.71839 0.0
O133 O 0.57649 0.00612 0.69771 0.0
O134 O 0.60861 0.97735 0.74978 0.0
O135 O 0.62307 1.00103 0.6858 0.0
C136 C 0.56636 0.03482 0.45709 0.0
C137 C 0.55637 0.05296 0.48718 0.0
H138 H 0.53958 0.08568 0.56071 0.0
H139 H 0.54808 0.08999 0.67039 0.0
H140 H 0.6129 0.97448 0.47689 0.0
H141 H 0.58878 0.9985 0.4144 0.0
H142 H 0.56354 0.03239 0.40904 0.0
H143 H 0.54599 0.06418 0.46185 0.0
Mn144 Mn 0.75057 0.68191 0.00838 0.0
Mn145 Mn 0.78158 0.66316 0.12471 0.0
C146 C 0.75112 0.70146 0.10031 0.0
C147 C 0.74964 0.70316 0.92231 0.0
C148 C 0.73657 0.64347 0.08473 0.0
O149 O 0.77016 0.65847 0.96847 0.0
O150 O 0.79249 0.65087 0.04791 0.0
C151 C 0.82313 0.68646 0.09814 0.0
N152 N 0.80695 0.68204 0.13704 0.0
C153 C 0.82486 0.70494 0.2151 0.0
C154 C 0.84179 0.70966 0.17603 0.0
C155 C 0.84083 0.7005 0.11714 0.0
C156 C 0.80732 0.69134 0.19308 0.0
H157 H 0.82252 0.67933 0.05297 0.0
C158 C 0.78696 0.64884 0.9921 0.0
O159 O 0.73471 0.688 0.92968 0.0
O160 O 0.76505 0.70563 0.96389 0.0
N161 N 0.7736 0.67323 0.20327 0.0
C162 C 0.75733 0.66503 0.23719 0.0
C163 C 0.75658 0.67151 0.29819 0.0
C164 C 0.77291 0.68585 0.32419 0.0
C165 C 0.78998 0.69341 0.28908 0.0
C166 C 0.78991 0.68631 0.22857 0.0
H167 H 0.74507 0.65352 0.21803 0.0
O168 O 0.73572 0.70487 0.05971 0.0
O169 O 0.76625 0.68731 0.08481 0.0
O170 O 0.73183 0.6572 0.04358 0.0
O171 O 0.75506 0.64372 0.11503 0.0
C172 C 0.80751 0.707 0.31238 0.0
C173 C 0.82487 0.71289 0.27529 0.0
H174 H 0.85564 0.72022 0.19082 0.0
H175 H 0.85381 0.70409 0.08665 0.0
H176 H 0.74356 0.66531 0.32525 0.0
H177 H 0.77235 0.69071 0.37136 0.0
H178 H 0.80791 0.71287 0.35891 0.0
H179 H 0.83826 0.72336 0.29369 0.0
Mn180 Mn 0.08164 0.02186 0.74889 0.0
Mn181 Mn 0.09951 0.99093 0.63134 0.0
C182 C 0.06362 0.02403 0.65534 0.0
C183 C 0.05875 0.02394 0.83169 0.0
C184 C 0.12175 0.03416 0.67564 0.0
O185 O 0.10211 0.99952 0.78939 0.0
O186 O 0.11086 0.9789 0.70792 0.0
C187 C 0.07411 0.95033 0.65525 0.0
N188 N 0.07945 0.96657 0.61736 0.0
C189 C 0.05646 0.94994 0.53747 0.0
C190 C 0.05078 0.93298 0.5755 0.0
C191 C 0.05952 0.93328 0.63481 0.0
C192 C 0.07054 0.96686 0.56092 0.0
H193 H 0.08096 0.95038 0.70069 0.0
C194 C 0.1117 0.98296 0.76461 0.0
O195 O 0.0759 0.03694 0.82904 0.0
O196 O 0.05545 0.0096 0.78779 0.0
N197 N 0.09019 0.99984 0.55296 0.0
C198 C 0.09913 0.01607 0.52026 0.0
C199 C 0.09296 0.01751 0.4592 0.0
C200 C 0.07816 1.00187 0.43188 0.0
C201 C 0.06979 0.98484 0.46576 0.0
C202 C 0.07653 0.98425 0.52647 0.0
H203 H 0.11097 0.0278 0.54045 0.0
O204 O 0.06129 0.03947 0.69655 0.0
O205 O 0.07602 0.00747 0.67086 0.0
O206 O 0.10869 0.03872 0.71851 0.0
O207 O 0.12016 0.01638 0.6425 0.0
C208 C 0.05574 0.96791 0.44103 0.0
C209 C 0.049 0.95052 0.47694 0.0
H210 H 0.0398 0.91961 0.55957 0.0
H211 H 0.05519 0.92027 0.66448 0.0
H212 H 0.09976 0.03051 0.43312 0.0
H213 H 0.07357 0.00294 0.38465 0.0
H214 H 0.05016 0.96801 0.3943 0.0
H215 H 0.03819 0.9376 0.45742 0.0
Mn216 Mn 0.74413 0.33714 0.51782 0.0
Mn217 Mn 0.77166 0.35824 0.40375 0.0
C218 C 0.74147 0.31968 0.42263 0.0
C219 C 0.74382 0.3144 0.60072 0.0
C220 C 0.72934 0.37826 0.45247 0.0
O221 O 0.76619 0.35907 0.56004 0.0
O222 O 0.78667 0.36686 0.48096 0.0
C223 C 0.81266 0.33172 0.41718 0.0
N224 N 0.79525 0.33879 0.38233 0.0
C225 C 0.80863 0.31908 0.29533 0.0
C226 C 0.82684 0.31176 0.33008 0.0
C227 C 0.82876 0.31796 0.39142 0.0
C228 C 0.79282 0.33226 0.32389 0.0
H229 H 0.8142 0.33652 0.46428 0.0
C230 C 0.78305 0.36789 0.53703 0.0
O231 O 0.72987 0.3306 0.59476 0.0
O232 O 0.75834 0.31178 0.55961 0.0
N233 N 0.75943 0.35154 0.32481 0.0
C234 C 0.74157 0.36108 0.29682 0.0
C235 C 0.73769 0.35729 0.23482 0.0
C236 C 0.75253 0.34423 0.20186 0.0
C237 C 0.77109 0.33504 0.23122 0.0
C238 C 0.77413 0.33945 0.29308 0.0
H239 H 0.73044 0.37169 0.32139 0.0
O240 O 0.72707 0.31572 0.46268 0.0
O241 O 0.75728 0.33326 0.44027 0.0
O242 O 0.72523 0.36288 0.4883 0.0
O243 O 0.74696 0.37884 0.42217 0.0
C244 C 0.78696 0.32208 0.20128 0.0
C245 C 0.80564 0.31399 0.2334 0.0
H246 H 0.83943 0.30138 0.31016 0.0
H247 H 0.8427 0.31228 0.41865 0.0
H248 H 0.72345 0.36462 0.21236 0.0
H249 H 0.74953 0.34142 0.15398 0.0
H250 H 0.78497 0.31827 0.15353 0.0
H251 H 0.81769 0.30399 0.20995 0.0
Mn252 Mn 0.42448 1.00095 0.26843 0.0
Mn253 Mn 0.40127 0.98315 0.39409 0.0
C254 C 0.44446 0.0026 0.359 0.0
C255 C 0.4451 0.99501 0.1825 0.0
C256 C 0.38958 0.02679 0.33796 0.0
O257 O 0.39829 0.9822 0.2353 0.0
O258 O 0.38578 0.96961 0.32212 0.0
C259 C 0.41255 0.93543 0.38699 0.0
N260 N 0.41306 0.95534 0.41775 0.0
C261 C 0.42815 0.93877 0.50682 0.0
C262 C 0.4278 0.91804 0.47614 0.0
C263 C 0.4201 0.9164 0.41583 0.0
C264 C 0.42068 0.95716 0.4755 0.0
H265 H 0.40625 0.93408 0.34099 0.0
C266 C 0.38504 0.97054 0.26483 0.0
O267 O 0.43152 0.01156 0.18768 0.0
O268 O 0.44596 0.98125 0.22594 0.0
N269 N 0.41457 0.99501 0.46748 0.0
C270 C 0.41522 0.01644 0.48897 0.0
C271 C 0.4233 0.02116 0.54792 0.0
C272 C 0.43023 0.00378 0.58435 0.0
C273 C 0.42954 0.98186 0.56104 0.0
C274 C 0.42147 0.9782 0.50188 0.0
H275 H 0.40946 0.02979 0.46148 0.0
O276 O 0.44954 0.01525 0.31568 0.0
O277 O 0.42777 0.98914 0.34828 0.0
O278 O 0.40335 0.02577 0.29595 0.0
O279 O 0.38759 0.01166 0.37573 0.0
C280 C 0.43656 0.9635 0.59406 0.0
C281 C 0.43588 0.94197 0.56696 0.0
H282 H 0.43352 0.90332 0.4983 0.0
H283 H 0.4198 0.90046 0.39186 0.0
H284 H 0.42389 0.03812 0.56552 0.0
H285 H 0.43611 0.00748 0.6301 0.0
H286 H 0.4428 0.96579 0.64006 0.0
H287 H 0.44168 0.92804 0.59247 0.0
Mn288 Mn 0.76119 0.83906 0.51839 0.0
Mn289 Mn 0.74072 0.86404 0.39459 0.0
C290 C 0.76276 0.82096 0.42541 0.0
C291 C 0.75589 0.81619 0.59968 0.0
C292 C 0.78588 0.8749 0.45212 0.0
O293 O 0.74235 0.86368 0.55414 0.0
O294 O 0.72944 0.87868 0.46891 0.0
C295 C 0.69325 0.8525 0.40436 0.0
N296 N 0.71191 0.85272 0.37181 0.0
C297 C 0.69175 0.83914 0.28275 0.0
C298 C 0.67228 0.83888 0.31521 0.0
C299 C 0.67308 0.84544 0.37639 0.0
C300 C 0.71139 0.84614 0.31318 0.0
H301 H 0.69376 0.85778 0.45118 0.0
C302 C 0.73058 0.8778 0.52627 0.0
O303 O 0.77209 0.83047 0.60057 0.0
O304 O 0.74246 0.81584 0.55301 0.0
N305 N 0.74957 0.85191 0.31877 0.0
C306 C 0.77012 0.85134 0.29544 0.0
C307 C 0.77247 0.84392 0.23559 0.0
C308 C 0.75362 0.83766 0.20001 0.0
C309 C 0.73263 0.83849 0.22492 0.0
C310 C 0.73135 0.84577 0.28501 0.0
H311 H 0.78457 0.85653 0.32228 0.0
O312 O 0.77591 0.81569 0.46994 0.0
O313 O 0.74852 0.83673 0.43642 0.0
O314 O 0.78504 0.86187 0.49601 0.0
O315 O 0.77033 0.87681 0.41243 0.0
C316 C 0.71294 0.83216 0.19271 0.0
C317 C 0.69251 0.83245 0.22164 0.0
H318 H 0.65667 0.83352 0.29376 0.0
H319 H 0.65814 0.84522 0.4018 0.0
H320 H 0.78874 0.84326 0.21674 0.0
H321 H 0.75548 0.8321 0.15373 0.0
H322 H 0.71338 0.82658 0.14605 0.0
H323 H 0.67756 0.82709 0.19677 0.0
Mn324 Mn 0.42441 0.51394 0.75891 0.0
Mn325 Mn 0.40212 0.53987 0.87923 0.0
C326 C 0.44311 0.51335 0.85146 0.0
C327 C 0.4468 0.51577 0.67539 0.0
C328 C 0.38626 0.49478 0.8286 0.0
O329 O 0.40099 0.53374 0.72076 0.0
O330 O 0.38935 0.5519 0.8036 0.0
C331 C 0.41901 0.58557 0.8673 0.0
N332 N 0.41668 0.56731 0.90068 0.0
C333 C 0.43191 0.58658 0.98927 0.0
C334 C 0.43446 0.60562 0.95589 0.0
C335 C 0.42811 0.60506 0.89455 0.0
C336 C 0.42294 0.5676 0.95955 0.0
H337 H 0.41379 0.58529 0.82041 0.0
C338 C 0.38931 0.54863 0.74647 0.0
O339 O 0.43198 0.50022 0.67887 0.0
O340 O 0.44819 0.53039 0.71933 0.0
N341 N 0.4129 0.53029 0.95568 0.0
C342 C 0.41124 0.50995 0.97977 0.0
C343 C 0.41822 0.50723 0.03983 0.0
C344 C 0.42639 0.52554 0.07474 0.0
C345 C 0.42791 0.54632 0.04895 0.0
C346 C 0.42097 0.54795 0.9887 0.0
H347 H 0.40461 0.49593 0.95336 0.0
O348 O 0.44709 0.49883 0.80896 0.0
O349 O 0.42836 0.52842 0.83842 0.0
O350 O 0.4001 0.49247 0.78664 0.0
O351 O 0.38573 0.51203 0.86323 0.0
C352 C 0.43624 0.56544 0.08042 0.0
C353 C 0.43824 0.58556 0.05061 0.0
H354 H 0.44141 0.62071 0.97678 0.0
H355 H 0.43005 0.61968 0.86848 0.0
H356 H 0.41709 0.49113 0.05937 0.0
H357 H 0.4316 0.52342 0.12119 0.0
H358 H 0.4416 0.56474 0.12722 0.0
H359 H 0.44511 0.60002 0.07494 0.0
Mn360 Mn 0.74511 0.18033 0.00958 0.0
Mn361 Mn 0.7285 0.15785 0.13739 0.0
C362 C 0.75125 0.19935 0.10093 0.0
C363 C 0.73882 0.2024 0.9264 0.0
C364 C 0.76821 0.14155 0.0688 0.0
O365 O 0.72269 0.15656 0.97977 0.0
O366 O 0.71012 0.1457 0.06845 0.0
C367 C 0.68273 0.17471 0.14811 0.0
N368 N 0.70373 0.17253 0.17161 0.0
C369 C 0.69312 0.18746 0.26786 0.0
C370 C 0.67131 0.1897 0.24485 0.0
C371 C 0.66615 0.18349 0.18457 0.0
C372 C 0.70894 0.17872 0.22932 0.0
H373 H 0.67866 0.16965 0.10207 0.0
C374 C 0.70959 0.1453 0.01092 0.0
O375 O 0.75349 0.18672 0.92603 0.0
O376 O 0.72705 0.20459 0.97377 0.0
N377 N 0.74498 0.16854 0.20744 0.0
C378 C 0.76714 0.16703 0.22073 0.0
C379 C 0.77548 0.17433 0.27771 0.0
C380 C 0.76091 0.18275 0.32062 0.0
C381 C 0.73816 0.18414 0.30579 0.0
C382 C 0.73088 0.1769 0.24806 0.0
H383 H 0.77833 0.16028 0.18812 0.0
O384 O 0.76328 0.20331 0.05538 0.0
O385 O 0.73608 0.18408 0.09205 0.0
O386 O 0.76812 0.15637 0.02959 0.0
O387 O 0.75386 0.14059 0.109 0.0
C388 C 0.72245 0.19258 0.34582 0.0
C389 C 0.69991 0.19408 0.32701 0.0
H390 H 0.65848 0.19648 0.2728 0.0
H391 H 0.64939 0.1853 0.1664 0.0
H392 H 0.79306 0.17328 0.28874 0.0
H393 H 0.76739 0.18823 0.36466 0.0
H394 H 0.72756 0.19821 0.39092 0.0
H395 H 0.68804 0.20089 0.3579 0.0
Mn396 Mn 0.07961 0.50219 0.27582 0.0
Mn397 Mn 0.10477 0.52097 0.15408 0.0
C398 C 0.0622 0.49825 0.18178 0.0
C399 C 0.05623 0.50715 0.35671 0.0
C400 C 0.11876 0.4792 0.21617 0.0
O401 O 0.10262 0.52389 0.31244 0.0
O402 O 0.11751 0.53608 0.22801 0.0
C403 C 0.09077 0.56795 0.15502 0.0
N404 N 0.09192 0.54774 0.12613 0.0
C405 C 0.07831 0.56259 0.03312 0.0
C406 C 0.07697 0.5836 0.06185 0.0
C407 C 0.08308 0.58626 0.12315 0.0
C408 C 0.08594 0.54497 0.06727 0.0
H409 H 0.09587 0.57011 0.20182 0.0
C410 C 0.11609 0.53603 0.28518 0.0
O411 O 0.07166 0.49219 0.3568 0.0
O412 O 0.05481 0.51969 0.31071 0.0
N413 N 0.09395 0.50769 0.07954 0.0
C414 C 0.09444 0.486 0.06034 0.0
C415 C 0.08723 0.48014 1.00126 0.0
C416 C 0.07998 0.49668 0.96237 0.0
C417 C 0.07968 0.5189 0.98323 0.0
C418 C 0.08678 0.52368 0.04275 0.0
H419 H 0.10029 0.47331 0.08995 0.0
O420 O 0.05747 0.48511 0.22444 0.0
O421 O 0.0775 0.51313 0.19486 0.0
O422 O 0.10409 0.47946 0.25592 0.0
O423 O 0.12002 0.49378 0.17669 0.0
C424 C 0.07244 0.53647 0.94752 0.0
C425 C 0.07189 0.55833 0.97234 0.0
H426 H 0.07106 0.59776 0.03744 0.0
H427 H 0.08207 0.60241 0.14563 0.0
H428 H 0.08745 0.46296 0.98555 0.0
H429 H 0.07457 0.49211 0.91672 0.0
H430 H 0.06695 0.53331 0.90118 0.0
H431 H 0.06595 0.57164 0.94472 0.0
Mn432 Mn 0.26005 0.18304 0.50513 0.0
Mn433 Mn 0.28371 0.16188 0.63036 0.0
C434 C 0.25629 0.20161 0.59678 0.0
C435 C 0.26275 0.20578 0.42258 0.0
C436 C 0.24049 0.14435 0.57212 0.0
O437 O 0.2819 0.16069 0.47129 0.0
O438 O 0.29764 0.14903 0.5575 0.0
C439 C 0.32927 0.17988 0.62493 0.0
N440 N 0.31038 0.17721 0.65545 0.0
C441 C 0.32755 0.19297 0.74641 0.0
C442 C 0.34724 0.19587 0.71601 0.0
C443 C 0.34804 0.18944 0.6549 0.0
C444 C 0.30934 0.18356 0.71404 0.0
H445 H 0.33005 0.17459 0.57826 0.0
C446 C 0.29603 0.14907 0.50004 0.0
O447 O 0.24834 0.18971 0.42214 0.0
O448 O 0.27595 0.20802 0.46951 0.0
N449 N 0.27231 0.1727 0.70467 0.0
C450 C 0.25149 0.17064 0.72555 0.0
C451 C 0.24739 0.17772 0.78479 0.0
C452 C 0.26482 0.18637 0.82223 0.0
C453 C 0.28612 0.18825 0.79974 0.0
C454 C 0.28913 0.18123 0.7401 0.0
H455 H 0.23815 0.16362 0.69721 0.0
O456 O 0.24253 0.20479 0.55186 0.0
O457 O 0.27234 0.18761 0.58688 0.0
O458 O 0.23909 0.15766 0.5287 0.0
O459 O 0.25661 0.14474 0.61071 0.0
C460 C 0.30444 0.19703 0.83389 0.0
C461 C 0.32515 0.19937 0.80726 0.0
H462 H 0.36177 0.20318 0.73901 0.0
H463 H 0.36316 0.19166 0.63112 0.0
H464 H 0.23089 0.17628 0.80179 0.0
H465 H 0.26163 0.19165 0.86804 0.0
H466 H 0.30267 0.20246 0.8803 0.0
H467 H 0.33899 0.20658 0.8336 0.0
Mn468 Mn 0.5821 0.5166 0.26738 0.0
Mn469 Mn 0.60049 0.48648 0.14906 0.0
C470 C 0.56423 0.51937 0.17366 0.0
C471 C 0.55907 0.51797 0.34993 0.0
C472 C 0.6224 0.52956 0.19574 0.0
O473 O 0.60281 0.49435 0.30727 0.0
O474 O 0.61198 0.47428 0.22532 0.0
C475 C 0.57512 0.44579 0.17215 0.0
N476 N 0.58047 0.46211 0.13453 0.0
C477 C 0.55667 0.44623 0.05526 0.0
C478 C 0.55095 0.4292 0.09303 0.0
C479 C 0.56013 0.42906 0.15186 0.0
C480 C 0.57122 0.46278 0.07854 0.0
H481 H 0.58222 0.44555 0.21729 0.0
C482 C 0.61285 0.47818 0.28205 0.0
O483 O 0.57614 0.53113 0.34803 0.0
O484 O 0.55592 0.50388 0.30537 0.0
N485 N 0.5913 0.49551 0.07075 0.0
C486 C 0.60078 0.51137 0.03784 0.0
C487 C 0.59469 0.51286 0.97675 0.0
C488 C 0.57939 0.49767 0.94963 0.0
C489 C 0.5705 0.48095 0.9837 0.0
C490 C 0.57734 0.48018 0.0443 0.0
H491 H 0.61302 0.52272 0.0579 0.0
O492 O 0.56172 0.53443 0.21575 0.0
O493 O 0.57673 0.50275 0.18846 0.0
O494 O 0.60911 0.53377 0.2383 0.0
O495 O 0.62097 0.51206 0.16137 0.0
C496 C 0.55584 0.4645 0.95925 0.0
C497 C 0.54879 0.44724 0.99516 0.0
H498 H 0.53964 0.41609 0.07724 0.0
H499 H 0.55578 0.41599 0.18132 0.0
H500 H 0.60191 0.52558 0.95049 0.0
H501 H 0.57481 0.49881 0.90241 0.0
H502 H 0.55007 0.46482 0.9127 0.0
H503 H 0.53755 0.43464 0.97585 0.0
Mn504 Mn 0.23846 0.8389 0.01134 0.0
Mn505 Mn 0.26859 0.86231 0.90546 0.0
C506 C 0.23965 0.82227 0.91589 0.0
C507 C 0.23724 0.81552 0.09255 0.0
C508 C 0.22344 0.87938 0.94149 0.0
O509 O 0.25799 0.86109 0.06006 0.0
O510 O 0.27872 0.87347 0.98608 0.0
C511 C 0.31108 0.84045 0.93711 0.0
N512 N 0.29472 0.84493 0.89561 0.0
C513 C 0.31322 0.824 0.81854 0.0
C514 C 0.33032 0.81922 0.86034 0.0
C515 C 0.32918 0.82738 0.91998 0.0
C516 C 0.29535 0.83666 0.83861 0.0
H517 H 0.3103 0.84678 0.98292 0.0
C518 C 0.27356 0.87294 0.04097 0.0
O519 O 0.22237 0.83078 0.08445 0.0
O520 O 0.25277 0.81398 0.05404 0.0
N521 N 0.26104 0.85361 0.82398 0.0
C522 C 0.24439 0.8617 0.78806 0.0
C523 C 0.24379 0.85632 0.72623 0.0
C524 C 0.26059 0.84313 0.70169 0.0
C525 C 0.27795 0.83561 0.73914 0.0
C526 C 0.27777 0.84168 0.80033 0.0
H527 H 0.23174 0.87233 0.80634 0.0
O528 O 0.22404 0.8174 0.95166 0.0
O529 O 0.25441 0.83635 0.93784 0.0
O530 O 0.21946 0.8644 0.9789 0.0
O531 O 0.24143 0.88031 0.91289 0.0
C532 C 0.29579 0.82293 0.71781 0.0
C533 C 0.31333 0.81698 0.7576 0.0
H534 H 0.34444 0.80937 0.8471 0.0
H535 H 0.3423 0.82373 0.95255 0.0
H536 H 0.2305 0.86245 0.69747 0.0
H537 H 0.2601 0.83907 0.65394 0.0
H538 H 0.29627 0.81783 0.6708 0.0
H539 H 0.32695 0.80722 0.74069 0.0
Mn540 Mn 0.92302 0.51028 0.76907 0.0
Mn541 Mn 0.90213 0.48513 0.88738 0.0
C542 C 0.94137 0.51391 0.86305 0.0
C543 C 0.94507 0.5087 0.68488 0.0
C544 C 0.88276 0.52712 0.83484 0.0
O545 O 0.90026 0.4883 0.73035 0.0
O546 O 0.89237 0.46938 0.81212 0.0
C547 C 0.92715 0.44311 0.87648 0.0
N548 N 0.92099 0.46122 0.91002 0.0
C549 C 0.94071 0.44825 0.99752 0.0
C550 C 0.94718 0.42936 0.96411 0.0
C551 C 0.94051 0.42688 0.90316 0.0
C552 C 0.92796 0.46416 0.96801 0.0
H553 H 0.92191 0.44109 0.82976 0.0
C554 C 0.89101 0.4722 0.75566 0.0
O555 O 0.92928 0.52315 0.69011 0.0
O556 O 0.94767 0.49478 0.72754 0.0
N557 N 0.90978 0.49814 0.96485 0.0
C558 C 0.90095 0.51661 0.99167 0.0
C559 C 0.90518 0.52109 0.05327 0.0
C560 C 0.9179 0.50622 0.0871 0.0
C561 C 0.92634 0.48703 0.05898 0.0
C562 C 0.92156 0.48344 0.99746 0.0
H563 H 0.89058 0.52778 0.96648 0.0
O564 O 0.94521 0.52758 0.82109 0.0
O565 O 0.92724 0.49823 0.84803 0.0
O566 O 0.89793 0.53025 0.79763 0.0
O567 O 0.88214 0.51015 0.86762 0.0
C568 C 0.93889 0.47109 0.0899 0.0
C569 C 0.94621 0.45179 0.05908 0.0
H570 H 0.95722 0.41666 0.98478 0.0
H571 H 0.94549 0.41239 0.87699 0.0
H572 H 0.89842 0.53582 0.07479 0.0
H573 H 0.92104 0.50967 0.13468 0.0
H574 H 0.94297 0.4735 0.13741 0.0
H575 H 0.95591 0.43969 0.08327 0.0
C576 C 0.24289 0.29654 0.17412 0.0
C577 C 0.2625 0.30312 0.14798 0.0
C578 C 0.24319 0.281 0.21955 0.0
C579 C 0.2635 0.27103 0.23751 0.0
C580 C 0.28339 0.27757 0.21089 0.0
C581 C 0.2827 0.29388 0.16721 0.0
C582 C 0.22174 0.27524 0.2483 0.0
C583 C 0.30527 0.26687 0.22729 0.0
C584 C 0.26831 0.24431 0.38951 0.0
C585 C 0.26325 0.22205 0.37447 0.0
C586 C 0.26826 0.26041 0.34555 0.0
C587 C 0.26389 0.25397 0.28455 0.0
C588 C 0.25928 0.23135 0.26891 0.0
C589 C 0.25856 0.21572 0.31427 0.0
C590 C 0.27236 0.2844 0.36464 0.0
C591 C 0.25523 0.22366 0.20426 0.0
H592 H 0.22725 0.30371 0.15917 0.0
H593 H 0.29782 0.29871 0.14625 0.0
H594 H 0.2176 0.25751 0.23869 0.0
H595 H 0.2236 0.27768 0.29781 0.0
H596 H 0.20764 0.28548 0.2319 0.0
H597 H 0.31911 0.27337 0.20142 0.0
H598 H 0.30935 0.26971 0.27586 0.0
H599 H 0.30405 0.24865 0.2187 0.0
H600 H 0.27171 0.24929 0.43617 0.0
H601 H 0.25477 0.19849 0.30256 0.0
H602 H 0.258 0.29463 0.35012 0.0
H603 H 0.28714 0.2908 0.34262 0.0
H604 H 0.275 0.28673 0.41404 0.0
H605 H 0.23994 0.23142 0.18565 0.0
H606 H 0.25342 0.20535 0.19917 0.0
H607 H 0.26917 0.22898 0.17692 0.0
C608 C 0.964 0.03526 0.41378 0.0
C609 C 0.95832 0.01475 0.38621 0.0
C610 C 0.97971 0.03673 0.46185 0.0
C611 C 0.99166 0.01752 0.47823 0.0
C612 C 0.98613 0.99676 0.44964 0.0
C613 C 0.96922 0.99562 0.40497 0.0
C614 C 0.98307 0.05867 0.49598 0.0
C615 C 0.99796 0.97549 0.46411 0.0
C616 C 0.04802 0.03102 0.5525 0.0
C617 C 0.04612 0.02152 0.60823 0.0
C618 C 0.0308 0.02883 0.50855 0.0
C619 C 0.01028 0.01937 0.52374 0.0
C620 C 0.00785 0.01121 0.58192 0.0
C621 C 0.02609 0.01169 0.62268 0.0
C622 C 0.03497 0.03563 0.44533 0.0
C623 C 0.98624 1.00165 0.60133 0.0
H624 H 0.95647 0.0502 0.39712 0.0
H625 H 0.9651 0.97972 0.38297 0.0
H626 H 0.9789 0.05665 0.54354 0.0
H627 H 1.00058 0.06417 0.49647 0.0
H628 H 0.97265 0.072 0.47685 0.0
H629 H 0.00359 0.96723 0.42204 0.0
H630 H 0.01246 0.97784 0.49556 0.0
H631 H 0.98612 0.96397 0.48397 0.0
H632 H 0.06304 0.03984 0.543 0.0
H633 H 0.02445 0.00504 0.66687 0.0
H634 H 0.02266 0.04789 0.42965 0.0
H635 H 0.0332 0.02086 0.41429 0.0
H636 H 0.05175 0.0429 0.44134 0.0
H637 H 0.97183 0.00992 0.57969 0.0
H638 H 0.98482 0.00325 0.65084 0.0
H639 H 0.98548 0.98373 0.58832 0.0
C640 C 0.27406 0.73107 0.66508 0.0
C641 C 0.25515 0.71853 0.64821 0.0
C642 C 0.27309 0.7487 0.70771 0.0
C643 C 0.25278 0.75336 0.73565 0.0
C644 C 0.23377 0.74029 0.71976 0.0
C645 C 0.23499 0.7238 0.67415 0.0
C646 C 0.29371 0.76264 0.71963 0.0
C647 C 0.21216 0.74359 0.75118 0.0
C648 C 0.25656 0.78712 0.88257 0.0
C649 C 0.24471 0.80615 0.86759 0.0
C650 C 0.25913 0.76966 0.84026 0.0
C651 C 0.251 0.77205 0.78048 0.0
C652 C 0.23984 0.79177 0.7646 0.0
C653 C 0.23561 0.80798 0.80948 0.0
C654 C 0.26964 0.74834 0.86015 0.0
C655 C 0.23274 0.7959 0.70023 0.0
H656 H 0.28954 0.72761 0.64336 0.0
H657 H 0.22 0.71536 0.65782 0.0
H658 H 0.29303 0.77363 0.76036 0.0
H659 H 0.30851 0.75182 0.72401 0.0
H660 H 0.29611 0.77312 0.68048 0.0
H661 H 0.1989 0.73225 0.7327 0.0
H662 H 0.21491 0.74085 0.79982 0.0
H663 H 0.206 0.76076 0.74736 0.0
H664 H 0.26284 0.78544 0.9284 0.0
H665 H 0.22531 0.82208 0.79908 0.0
H666 H 0.28487 0.74491 0.83512 0.0
H667 H 0.25793 0.73439 0.84995 0.0
H668 H 0.27406 0.74879 0.90899 0.0
H669 H 0.2477 0.79635 0.67273 0.0
H670 H 0.22359 0.81174 0.69585 0.0
H671 H 0.22208 0.78234 0.68059 0.0
C672 C 0.46781 0.9725 0.11075 0.0
C673 C 0.46049 0.99322 0.13238 0.0
C674 C 0.48316 0.97088 0.06473 0.0
C675 C 0.49207 0.99047 0.04167 0.0
C676 C 0.4849 0.01143 0.06412 0.0
C677 C 0.46889 0.01253 0.10831 0.0
C678 C 0.4897 0.94824 0.04045 0.0
C679 C 0.49444 0.03273 0.04229 0.0
C680 C 0.54713 0.98751 0.96271 0.0
C681 C 0.54016 0.98997 0.90273 0.0
C682 C 0.53167 0.98756 0.00852 0.0
C683 C 0.50867 0.98921 0.99355 0.0
C684 C 0.50159 0.99075 0.93257 0.0
C685 C 0.51743 0.99158 0.88812 0.0
C686 C 0.53999 0.98668 0.07307 0.0
C687 C 0.47726 0.99175 0.91427 0.0
H688 H 0.4613 0.95755 0.1293 0.0
H689 H 0.46351 0.02858 0.1256 0.0
H690 H 0.48642 0.94707 0.99113 0.0
H691 H 0.50773 0.94565 0.04863 0.0
H692 H 0.48055 0.93468 0.0613 0.0
H693 H 0.48793 0.04763 0.06647 0.0
H694 H 0.51279 0.03263 0.04832 0.0
H695 H 0.49048 0.03416 0.99363 0.0
H696 H 0.56473 0.98643 0.97401 0.0
H697 H 0.51202 0.99327 0.84158 0.0
H698 H 0.53247 0.97239 0.09483 0.0
H699 H 0.53489 1.00193 0.09825 0.0
H700 H 0.55833 0.98524 0.0772 0.0
H701 H 0.46814 0.97793 0.93394 0.0
H702 H 0.47445 0.99078 0.86472 0.0
H703 H 0.47003 0.00746 0.93181 0.0
C704 C 0.21651 0.79118 0.15983 0.0
C705 C 0.23662 0.80028 0.14284 0.0
C706 C 0.21607 0.77532 0.20458 0.0
C707 C 0.23614 0.76916 0.2346 0.0
C708 C 0.25639 0.77892 0.21875 0.0
C709 C 0.25643 0.79399 0.17218 0.0
C710 C 0.19425 0.76473 0.21855 0.0
C711 C 0.27805 0.77349 0.25101 0.0
C712 C 0.23355 0.74342 0.38767 0.0
C713 C 0.23906 0.72128 0.37412 0.0
C714 C 0.23245 0.75917 0.34272 0.0
C715 C 0.23609 0.75242 0.28236 0.0
C716 C 0.24072 0.72983 0.26817 0.0
C717 C 0.24263 0.71462 0.31444 0.0
C718 C 0.22831 0.78318 0.36024 0.0
C719 C 0.24393 0.72177 0.2042 0.0
H720 H 0.20123 0.79586 0.13656 0.0
H721 H 0.27198 0.80112 0.15916 0.0
H722 H 0.19529 0.74648 0.21099 0.0
H723 H 0.19063 0.76789 0.26649 0.0
H724 H 0.18021 0.77104 0.19046 0.0
H725 H 0.29207 0.78365 0.23609 0.0
H726 H 0.27657 0.7763 0.30017 0.0
H727 H 0.28207 0.75573 0.24297 0.0
H728 H 0.23106 0.74865 0.43396 0.0
H729 H 0.24679 0.69748 0.30392 0.0
H730 H 0.21362 0.78942 0.3348 0.0
H731 H 0.24274 0.79342 0.34857 0.0
H732 H 0.22558 0.78568 0.40901 0.0
H733 H 0.22989 0.72722 0.17475 0.0
H734 H 0.24521 0.70341 0.19998 0.0
H735 H 0.25928 0.72911 0.18741 0.0
C736 C 0.46567 0.97996 0.43256 0.0
C737 C 0.46014 1.00075 0.4107 0.0
C738 C 0.48184 0.97789 0.47885 0.0
C739 C 0.49407 0.99686 0.49998 0.0
C740 C 0.48888 0.01788 0.4767 0.0
C741 C 0.47175 0.01956 0.43296 0.0
C742 C 0.48558 0.95548 0.50564 0.0
C743 C 0.5011 0.03889 0.49666 0.0
C744 C 0.52703 0.99992 0.64804 0.0
C745 C 0.54746 0.99121 0.63153 0.0
C746 C 0.50928 1.00111 0.60616 0.0
C747 C 0.51244 0.99455 0.54552 0.0
C748 C 0.53324 0.98591 0.52851 0.0
C749 C 0.55018 0.98331 0.57264 0.0
C750 C 0.48697 0.00859 0.62732 0.0
C751 C 0.53793 0.98025 0.46362 0.0
H752 H 0.4576 0.96525 0.41282 0.0
H753 H 0.46781 0.03563 0.41509 0.0
H754 H 0.50293 0.94997 0.50085 0.0
H755 H 0.48271 0.95672 0.55451 0.0
H756 H 0.47452 0.94248 0.48437 0.0
H757 H 0.50681 0.04744 0.45673 0.0
H758 H 0.48949 0.05034 0.5196 0.0
H759 H 0.51556 0.03614 0.52744 0.0
H760 H 0.52479 0.00523 0.69443 0.0
H761 H 0.56558 0.97545 0.56092 0.0
H762 H 0.47498 0.99477 0.6192 0.0
H763 H 0.48084 0.02287 0.60163 0.0
H764 H 0.48738 0.0134 0.67592 0.0
H765 H 0.55418 0.9719 0.45873 0.0
H766 H 0.53788 0.99573 0.43825 0.0
H767 H 0.52493 0.96938 0.442 0.0
C768 C 0.27558 0.22488 0.6779 0.0
C769 C 0.25589 0.21724 0.64919 0.0
C770 C 0.27531 0.24111 0.72457 0.0
C771 C 0.25508 0.25179 0.73796 0.0
C772 C 0.23517 0.24473 0.70715 0.0
C773 C 0.23579 0.22716 0.6644 0.0
C774 C 0.29658 0.24637 0.76037 0.0
C775 C 0.21306 0.25571 0.71692 0.0
C776 C 0.24651 0.28522 0.88277 0.0
C777 C 0.25627 0.30551 0.87031 0.0
C778 C 0.24653 0.26735 0.8408 0.0
C779 C 0.25504 0.27046 0.78333 0.0
C780 C 0.26402 0.29137 0.76972 0.0
C781 C 0.26588 0.30814 0.81498 0.0
C782 C 0.23769 0.24518 0.85849 0.0
C783 C 0.27106 0.29623 0.70712 0.0
H784 H 0.29126 0.21852 0.66307 0.0
H785 H 0.22051 0.22178 0.641 0.0
H786 H 0.30056 0.26429 0.76152 0.0
H787 H 0.29452 0.24188 0.80765 0.0
H788 H 0.311 0.23734 0.74217 0.0
H789 H 0.20126 0.24334 0.73326 0.0
H790 H 0.21391 0.27009 0.74919 0.0
H791 H 0.20604 0.26139 0.67339 0.0
H792 H 0.23985 0.28299 0.92669 0.0
H793 H 0.27476 0.32328 0.80704 0.0
H794 H 0.24804 0.23143 0.84084 0.0
H795 H 0.22058 0.24284 0.83932 0.0
H796 H 0.2371 0.24406 0.90803 0.0
H797 H 0.28361 0.28431 0.69106 0.0
H798 H 0.27802 0.3132 0.70442 0.0
H799 H 0.25646 0.29441 0.67546 0.0
C800 C 0.04968 0.02803 0.94068 0.0
C801 C 0.04269 0.02567 0.8802 0.0
C802 C 0.03422 0.02729 0.98654 0.0
C803 C 0.01124 0.02495 0.97127 0.0
C804 C 0.00416 0.02356 0.90999 0.0
C805 C 0.01998 0.02349 0.86538 0.0
C806 C 0.04254 0.02815 0.05125 0.0
C807 C 0.97985 0.02184 0.89144 0.0
C808 C 0.97121 1.00042 0.07973 0.0
C809 C 0.96218 0.0195 0.1069 0.0
C810 C 0.9876 1.00198 0.0368 0.0
C811 C 0.99459 0.02314 0.01897 0.0
C812 C 0.98511 0.04246 0.04533 0.0
C813 C 0.96933 0.04041 0.08978 0.0
C814 C 0.99767 0.98097 0.01113 0.0
C815 C 0.99143 0.0653 0.02612 0.0
H816 H 0.06726 0.02948 0.95212 0.0
H817 H 0.01455 0.0218 0.8185 0.0
H818 H 0.03459 0.04201 0.07633 0.0
H819 H 0.03793 0.01258 0.07282 0.0
H820 H 0.06083 0.03029 0.05572 0.0
H821 H 0.977 0.02283 0.8421 0.0
H822 H 0.973 0.00587 0.90566 0.0
H823 H 0.97042 0.03533 0.91399 0.0
H824 H 0.96597 0.98423 0.09352 0.0
H825 H 0.96237 0.05519 0.11072 0.0
H826 H 0.016 0.98159 0.01771 0.0
H827 H 0.99392 0.97944 0.96209 0.0
H828 H 0.99138 0.9659 0.0322 0.0
H829 H 0.00944 0.06819 0.03492 0.0
H830 H 0.98214 0.07862 0.04988 0.0
H831 H 0.98815 0.06657 0.97706 0.0
C832 C 0.76875 0.72248 0.84196 0.0
C833 C 0.74907 0.71781 0.87054 0.0
C834 C 0.76922 0.738 0.79653 0.0
C835 C 0.74974 0.74994 0.78115 0.0
C836 C 0.72977 0.74526 0.81003 0.0
C837 C 0.72959 0.72892 0.85363 0.0
C838 C 0.79064 0.74176 0.76537 0.0
C839 C 0.70883 0.75808 0.79653 0.0
C840 C 0.75953 0.80509 0.70713 0.0
C841 C 0.75365 0.79976 0.64695 0.0
C842 C 0.75754 0.78928 0.75165 0.0
C843 C 0.75041 0.76737 0.73515 0.0
C844 C 0.74469 0.76193 0.67419 0.0
C845 C 0.74597 0.77829 0.63113 0.0
C846 C 0.76308 0.79601 0.81634 0.0
C847 C 0.73787 0.73864 0.65409 0.0
H848 H 0.78384 0.71391 0.85522 0.0
H849 H 0.71446 0.7256 0.87658 0.0
H850 H 0.78779 0.74004 0.71596 0.0
H851 H 0.79677 0.75887 0.77579 0.0
H852 H 0.80378 0.72992 0.77919 0.0
H853 H 0.69473 0.75254 0.82302 0.0
H854 H 0.71182 0.77602 0.80672 0.0
H855 H 0.70405 0.75624 0.74812 0.0
H856 H 0.76535 0.82171 0.7195 0.0
H857 H 0.74164 0.77405 0.58448 0.0
H858 H 0.77783 0.78676 0.83271 0.0
H859 H 0.74912 0.7917 0.84488 0.0
H860 H 0.76658 0.81406 0.82241 0.0
H861 H 0.75135 0.72689 0.66579 0.0
H862 H 0.73414 0.73707 0.60495 0.0
H863 H 0.72298 0.73351 0.67785 0.0
C864 C 0.75547 0.28333 0.38793 0.0
C865 C 0.74449 0.30299 0.3741 0.0
C866 C 0.75693 0.2659 0.34504 0.0
C867 C 0.74852 0.26885 0.28573 0.0
C868 C 0.73802 0.28907 0.27113 0.0
C869 C 0.73498 0.30537 0.31666 0.0
C870 C 0.76706 0.24424 0.36361 0.0
C871 C 0.73064 0.29381 0.2073 0.0
C872 C 0.7704 0.22738 0.16955 0.0
C873 C 0.75107 0.21564 0.15188 0.0
C874 C 0.76993 0.24498 0.21243 0.0
C875 C 0.7497 0.2504 0.23989 0.0
C876 C 0.73024 0.23815 0.22313 0.0
C877 C 0.731 0.22173 0.1772 0.0
C878 C 0.79119 0.25776 0.2259 0.0
C879 C 0.70866 0.24213 0.25425 0.0
H880 H 0.76221 0.28131 0.43319 0.0
H881 H 0.72541 0.32003 0.30714 0.0
H882 H 0.75631 0.23018 0.34727 0.0
H883 H 0.78344 0.24208 0.34324 0.0
H884 H 0.76945 0.24346 0.41313 0.0
H885 H 0.72083 0.30931 0.20465 0.0
H886 H 0.74552 0.29532 0.17993 0.0
H887 H 0.72058 0.28014 0.1859 0.0
H888 H 0.78586 0.22325 0.14851 0.0
H889 H 0.71575 0.21395 0.16027 0.0
H890 H 0.78978 0.27111 0.2609 0.0
H891 H 0.79663 0.26525 0.18411 0.0
H892 H 0.80445 0.24617 0.24037 0.0
H893 H 0.71111 0.23883 0.30267 0.0
H894 H 0.69498 0.23154 0.23467 0.0
H895 H 0.70324 0.25957 0.25167 0.0
C896 C 0.73449 0.24115 0.89251 0.0
C897 C 0.73731 0.21855 0.878 0.0
C898 C 0.73539 0.25714 0.84829 0.0
C899 C 0.73826 0.25028 0.78761 0.0
C900 C 0.74024 0.22734 0.77246 0.0
C901 C 0.74027 0.21179 0.81807 0.0
C902 C 0.73408 0.28141 0.86689 0.0
C903 C 0.74245 0.21922 0.70814 0.0
C904 C 0.72174 0.29152 0.66827 0.0
C905 C 0.74245 0.29877 0.65011 0.0
C906 C 0.72012 0.27545 0.7121 0.0
C907 C 0.73968 0.26713 0.74028 0.0
C908 C 0.76064 0.27495 0.72319 0.0
C909 C 0.76177 0.29029 0.67733 0.0
C910 C 0.69749 0.26696 0.72716 0.0
C911 C 0.78188 0.26723 0.75359 0.0
H912 H 0.73256 0.24643 0.93902 0.0
H913 H 0.74244 0.19431 0.80683 0.0
H914 H 0.74935 0.2901 0.85408 0.0
H915 H 0.71987 0.28928 0.84306 0.0
H916 H 0.73219 0.28401 0.91601 0.0
H917 H 0.74188 0.20082 0.70325 0.0
H918 H 0.72893 0.22614 0.6794 0.0
H919 H 0.75838 0.22506 0.691 0.0
H920 H 0.70678 0.29785 0.64661 0.0
H921 H 0.77779 0.29595 0.66337 0.0
H922 H 0.69445 0.27052 0.77528 0.0
H923 H 0.69676 0.24868 0.71961 0.0
H924 H 0.68397 0.27454 0.69973 0.0
H925 H 0.78112 0.27 0.80296 0.0
H926 H 0.79669 0.27597 0.73786 0.0
H927 H 0.784 0.24916 0.74476 0.0
C928 C 0.74499 0.71668 0.20393 0.0
C929 C 0.7548 0.71841 0.14854 0.0
C930 C 0.74764 0.73363 0.24848 0.0
C931 C 0.75785 0.75389 0.2342 0.0
C932 C 0.76643 0.75621 0.17646 0.0
C933 C 0.76549 0.73813 0.13513 0.0
C934 C 0.74023 0.72956 0.3112 0.0
C935 C 0.77654 0.77772 0.158 0.0
C936 C 0.74143 0.80054 0.34229 0.0
C937 C 0.76172 0.80614 0.37129 0.0
C938 C 0.74028 0.78477 0.29438 0.0
C939 C 0.75951 0.77255 0.2797 0.0
C940 C 0.78003 0.77783 0.31005 0.0
C941 C 0.78091 0.79489 0.35439 0.0
C942 C 0.71863 0.78159 0.25871 0.0
C943 C 0.80123 0.76546 0.29822 0.0
H944 H 0.73541 0.70203 0.21256 0.0
H945 H 0.7723 0.73972 0.09112 0.0
H946 H 0.7548 0.73089 0.34307 0.0
H947 H 0.72819 0.74217 0.32637 0.0
H948 H 0.73244 0.71297 0.31456 0.0
H949 H 0.77686 0.77867 0.10838 0.0
H950 H 0.76722 0.79215 0.17604 0.0
H951 H 0.79388 0.77899 0.1762 0.0
H952 H 0.72638 0.80815 0.35781 0.0
H953 H 0.79663 0.79881 0.37769 0.0
H954 H 0.71305 0.76409 0.25719 0.0
H955 H 0.72109 0.78598 0.21152 0.0
H956 H 0.70513 0.79192 0.27725 0.0
H957 H 0.80804 0.75878 0.34084 0.0
H958 H 0.81379 0.7772 0.2825 0.0
H959 H 0.79922 0.75159 0.26463 0.0
C960 C 0.52614 0.50889 0.14053 0.0
C961 C 0.54681 0.51732 0.12598 0.0
C962 C 0.50798 0.5093 0.0995 0.0
C963 C 0.51104 0.51684 0.04095 0.0
C964 C 0.53212 0.52497 0.02574 0.0
C965 C 0.54934 0.52641 0.06992 0.0
C966 C 0.48562 0.50166 0.11906 0.0
C967 C 0.5368 0.53124 0.96237 0.0
C968 C 0.46823 0.49481 0.92418 0.0
C969 C 0.45825 0.5144 0.90505 0.0
C970 C 0.48559 0.49528 0.96769 0.0
C971 C 0.49238 0.51585 0.99537 0.0
C972 C 0.48155 0.53561 0.9783 0.0
C973 C 0.46551 0.53472 0.93094 0.0
C974 C 0.49662 0.47353 0.98172 0.0
C975 C 0.48647 0.55759 0.01087 0.0
H976 H 0.52396 0.50275 0.18507 0.0
H977 H 0.56477 0.53448 0.06048 0.0
H978 H 0.47221 0.51232 0.1008 0.0
H979 H 0.48248 0.48442 0.10181 0.0
H980 H 0.48477 0.50187 0.16876 0.0
H981 H 0.55369 0.5383 0.95885 0.0
H982 H 0.53507 0.51625 0.93216 0.0
H983 H 0.52474 0.54347 0.94515 0.0
H984 H 0.46309 0.47902 0.90318 0.0
H985 H 0.45905 0.54995 0.91331 0.0
H986 H 0.48444 0.46248 0.002 0.0
H987 H 0.51139 0.47527 0.01252 0.0
H988 H 0.50171 0.46505 0.93939 0.0
H989 H 0.48155 0.55658 0.05814 0.0
H990 H 0.47754 0.57153 0.98974 0.0
H991 H 0.50439 0.56158 0.01267 0.0
C992 C 0.04669 0.50595 0.4648 0.0
C993 C 0.04 0.50876 0.40476 0.0
C994 C 0.03118 0.50681 0.51046 0.0
C995 C 0.00833 0.50951 0.49527 0.0
C996 C 1.00152 0.51209 0.4344 0.0
C997 C 0.01751 0.51217 0.39008 0.0
C998 C 0.03927 0.50489 0.57494 0.0
C999 C 0.9773 0.51414 0.41585 0.0
C1000 C 0.96785 0.48893 0.60845 0.0
C1001 C 0.96033 0.50887 0.63451 0.0
C1002 C 0.98296 0.48892 0.56187 0.0
C1003 C 0.99152 0.50932 0.54288 0.0
C1004 C 0.98413 0.5295 0.56978 0.0
C1005 C 0.96826 0.52904 0.61437 0.0
C1006 C 0.98968 0.46707 0.53285 0.0
C1007 C 0.99345 0.55156 0.55267 0.0
H1008 H 0.06411 0.5034 0.47614 0.0
H1009 H 0.0123 0.51405 0.34348 0.0
H1010 H 0.03309 0.51906 0.60266 0.0
H1011 H 0.03263 0.48951 0.59342 0.0
H1012 H 0.05767 0.50455 0.57963 0.0
H1013 H 0.97471 0.51543 0.36651 0.0
H1014 H 0.96802 0.49948 0.43035 0.0
H1015 H 0.97006 0.52899 0.43827 0.0
H1016 H 0.96165 0.47334 0.62397 0.0
H1017 H 0.96266 0.54446 0.63516 0.0
H1018 H 0.00764 0.46423 0.54163 0.0
H1019 H 0.98685 0.46746 0.48343 0.0
H1020 H 0.98032 0.45285 0.54977 0.0
H1021 H 0.01175 0.55165 0.55997 0.0
H1022 H 0.98644 0.56568 0.57904 0.0
H1023 H 0.98994 0.55417 0.50429 0.0
C1024 C 0.0341 0.48129 0.10928 0.0
C1025 C 0.04643 0.49992 0.1299 0.0
C1026 C 0.0167 0.48314 0.06625 0.0
C1027 C 0.01219 0.50402 0.04118 0.0
C1028 C 0.02521 0.52272 0.06034 0.0
C1029 C 0.04129 0.52062 0.10676 0.0
C1030 C 0.00324 0.46254 0.04961 0.0
C1031 C 0.02245 0.54485 0.03118 0.0
C1032 C 0.97831 0.50028 0.89432 0.0
C1033 C 0.95873 0.51101 0.91007 0.0
C1034 C 0.99618 0.49865 0.93589 0.0
C1035 C 0.99377 0.50659 0.99581 0.0
C1036 C 0.97382 0.51727 0.01206 0.0
C1037 C 0.95704 0.52046 0.96783 0.0
C1038 C 0.01767 0.48867 0.91542 0.0
C1039 C 0.96979 0.5246 0.07634 0.0
H1040 H 0.03754 0.46532 0.12834 0.0
H1041 H 0.04953 0.53531 0.12582 0.0
H1042 H 0.98869 0.46554 0.0193 0.0
H1043 H 0.01404 0.45005 0.02759 0.0
H1044 H 0.99736 0.45509 0.09101 0.0
H1045 H 0.03306 0.55796 0.05358 0.0
H1046 H 0.02667 0.54295 0.98328 0.0
H1047 H 0.0051 0.55071 0.03155 0.0
H1048 H 0.97989 0.49374 0.84871 0.0
H1049 H 0.94256 0.53008 0.97863 0.0
H1050 H 0.01971 0.47189 0.93353 0.0
H1051 H 0.03194 0.499 0.93258 0.0
H1052 H 0.01816 0.48712 0.86569 0.0
H1053 H 0.96816 0.5097 0.10358 0.0
H1054 H 0.95457 0.53479 0.08009 0.0
H1055 H 0.98382 0.5343 0.0971 0.0
C1056 C 0.46984 0.53688 0.60605 0.0
C1057 C 0.46232 0.51644 0.62555 0.0
C1058 C 0.48552 0.53794 0.56112 0.0
C1059 C 0.4946 0.51807 0.53675 0.0
C1060 C 0.48719 0.49737 0.55685 0.0
C1061 C 0.47083 0.4968 0.6002 0.0
C1062 C 0.49224 0.56031 0.53938 0.0
C1063 C 0.49687 0.47583 0.53341 0.0
C1064 C 0.52026 0.51682 0.38331 0.0
C1065 C 0.54293 0.51935 0.39829 0.0
C1066 C 0.50437 0.51703 0.42777 0.0
C1067 C 0.51136 0.51893 0.48908 0.0
C1068 C 0.53431 0.52141 0.50451 0.0
C1069 C 0.54982 0.52202 0.45878 0.0
C1070 C 0.4801 0.5152 0.40903 0.0
C1071 C 0.54253 0.52278 0.56929 0.0
H1072 H 0.46324 0.55209 0.62559 0.0
H1073 H 0.46528 0.48098 0.61589 0.0
H1074 H 0.51024 0.56309 0.54849 0.0
H1075 H 0.4892 0.56083 0.49006 0.0
H1076 H 0.48301 0.57412 0.56126 0.0
H1077 H 0.49016 0.46121 0.55575 0.0
H1078 H 0.49327 0.47374 0.4844 0.0
H1079 H 0.51518 0.47612 0.54044 0.0
H1080 H 0.51491 0.51489 0.33643 0.0
H1081 H 0.56737 0.52375 0.47035 0.0
H1082 H 0.47075 0.52915 0.42972 0.0
H1083 H 0.47306 0.49961 0.42523 0.0
H1084 H 0.47734 0.51535 0.3595 0.0
H1085 H 0.53503 0.53725 0.59294 0.0
H1086 H 0.56088 0.52431 0.57385 0.0
H1087 H 0.53731 0.50772 0.59229 0.0
C1088 C 0.12953 0.439 0.21658 0.0
C1089 C 0.13548 0.46138 0.21354 0.0
C1090 C 0.14439 0.42216 0.19916 0.0
C1091 C 0.16555 0.428 0.17863 0.0
C1092 C 0.17227 0.45052 0.18143 0.0
C1093 C 0.15713 0.46689 0.19858 0.0
C1094 C 0.13671 0.39833 0.19762 0.0
C1095 C 0.19466 0.4576 0.1605 0.0
C1096 C 0.21067 0.38688 0.13465 0.0
C1097 C 0.20728 0.3854 0.07194 0.0
C1098 C 0.19658 0.39983 0.1708 0.0
C1099 C 0.17885 0.41165 0.14353 0.0
C1100 C 0.17501 0.40965 0.08057 0.0
C1101 C 0.18916 0.39658 0.04581 0.0
C1102 C 0.20105 0.40136 0.23784 0.0
C1103 C 0.15638 0.42202 0.04934 0.0
H1104 H 0.11279 0.43471 0.22813 0.0
H1105 H 0.16185 0.48423 0.19702 0.0
H1106 H 0.13181 0.39309 0.15077 0.0
H1107 H 0.15027 0.38725 0.21291 0.0
H1108 H 0.12219 0.39608 0.22607 0.0
H1109 H 0.19856 0.47515 0.17379 0.0
H1110 H 0.20798 0.44691 0.17902 0.0
H1111 H 0.19481 0.4558 0.1108 0.0
H1112 H 0.22444 0.37815 0.15548 0.0
H1113 H 0.18612 0.39549 0.99758 0.0
H1114 H 0.18546 0.39909 0.26181 0.0
H1115 H 0.20762 0.4181 0.25106 0.0
H1116 H 0.2133 0.38882 0.25294 0.0
H1117 H 0.14034 0.4183 0.06965 0.0
H1118 H 0.15488 0.41771 1.00049 0.0
H1119 H 0.15929 0.44016 0.05514 0.0
C1120 C 0.80832 0.90947 0.46673 0.0
C1121 C 0.80615 0.8878 0.44269 0.0
C1122 C 0.82426 0.92406 0.4455 0.0
C1123 C 0.83799 0.91688 0.39829 0.0
C1124 C 0.83649 0.89461 0.376 0.0
C1125 C 0.82062 0.88033 0.39863 0.0
C1126 C 0.82552 0.94754 0.47126 0.0
C1127 C 0.85064 0.88625 0.3256 0.0
C1128 C 0.8575 0.96303 0.30018 0.0
C1129 C 0.87906 0.9669 0.32347 0.0
C1130 C 0.84429 0.94611 0.32232 0.0
C1131 C 0.85275 0.93309 0.3697 0.0
C1132 C 0.8749 0.93644 0.39159 0.0
C1133 C 0.8878 0.95327 0.368 0.0
C1134 C 0.8209 0.94287 0.29697 0.0
C1135 C 0.88457 0.92311 0.44216 0.0
H1136 H 0.79679 0.91535 0.49986 0.0
H1137 H 0.8187 0.86362 0.37955 0.0
H1138 H 0.84296 0.95208 0.48386 0.0
H1139 H 0.81958 0.95917 0.43679 0.0
H1140 H 0.81531 0.9499 0.51143 0.0
H1141 H 0.84897 0.86804 0.31725 0.0
H1142 H 0.84566 0.89463 0.28373 0.0
H1143 H 0.86836 0.89031 0.33576 0.0
H1144 H 0.85064 0.97388 0.26653 0.0
H1145 H 0.90445 0.95643 0.38632 0.0
H1146 H 0.80893 0.94757 0.33179 0.0
H1147 H 0.81791 0.92515 0.28401 0.0
H1148 H 0.81746 0.95301 0.2571 0.0
H1149 H 0.87571 0.92717 0.48387 0.0
H1150 H 0.90253 0.92652 0.45083 0.0
H1151 H 0.88225 0.9051 0.43192 0.0
C1152 C 0.29029 0.60875 0.5836 0.0
C1153 C 0.29453 0.63062 0.56817 0.0
C1154 C 0.30752 0.59471 0.60167 0.0
C1155 C 0.32957 0.60285 0.60503 0.0
C1156 C 0.33416 0.6243 0.58436 0.0
C1157 C 0.31649 0.638 0.56592 0.0
C1158 C 0.30182 0.57192 0.62261 0.0
C1159 C 0.35747 0.6335 0.5867 0.0
C1160 C 0.36284 0.58027 0.73639 0.0
C1161 C 0.37508 0.5632 0.70895 0.0
C1162 C 0.34875 0.59384 0.70256 0.0
C1163 C 0.34678 0.59038 0.63944 0.0
C1164 C 0.35961 0.57373 0.611 0.0
C1165 C 0.3736 0.56029 0.64609 0.0
C1166 C 0.33535 0.61141 0.73484 0.0
C1167 C 0.35805 0.56966 0.5438 0.0
H1168 H 0.27325 0.60301 0.58489 0.0
H1169 H 0.31975 0.65497 0.55431 0.0
H1170 H 0.31327 0.55929 0.60407 0.0
H1171 H 0.30369 0.57181 0.67231 0.0
H1172 H 0.28451 0.56699 0.60932 0.0
H1173 H 0.35887 0.64829 0.5588 0.0
H1174 H 0.36231 0.63844 0.63381 0.0
H1175 H 0.36942 0.62076 0.57126 0.0
H1176 H 0.36397 0.58291 0.78475 0.0
H1177 H 0.38311 0.54731 0.62426 0.0
H1178 H 0.31742 0.60732 0.72943 0.0
H1179 H 0.33787 0.62778 0.71501 0.0
H1180 H 0.33982 0.61289 0.7836 0.0
H1181 H 0.34157 0.56247 0.53054 0.0
H1182 H 0.37105 0.55808 0.52788 0.0
H1183 H 0.35957 0.58551 0.52054 0.0
C1184 C 0.69699 0.12046 0.9239 0.0
C1185 C 0.69294 0.13051 0.98 0.0
C1186 C 0.682 0.1049 0.89709 0.0
C1187 C 0.6623 0.09975 0.92655 0.0
C1188 C 0.65784 0.11036 0.98231 0.0
C1189 C 0.67333 0.12542 0.00868 0.0
C1190 C 0.68742 0.09363 0.83787 0.0
C1191 C 0.63676 0.10575 0.01426 0.0
C1192 C 0.61626 0.07438 0.8264 0.0
C1193 C 0.61835 0.05181 0.83822 0.0
C1194 C 0.62985 0.09029 0.85676 0.0
C1195 C 0.64631 0.08334 0.89876 0.0
C1196 C 0.64796 0.06063 0.9125 0.0
C1197 C 0.63372 0.0451 0.88244 0.0
C1198 C 0.62715 0.11442 0.84222 0.0
C1199 C 0.66552 0.0526 0.95651 0.0
H1200 H 0.71222 0.12421 0.90193 0.0
H1201 H 0.67006 0.13323 0.05196 0.0
H1202 H 0.68795 0.07539 0.84265 0.0
H1203 H 0.67425 0.09707 0.80344 0.0
H1204 H 0.70359 0.09921 0.82136 0.0
H1205 H 0.63544 0.11604 0.05631 0.0
H1206 H 0.62211 0.10903 0.98435 0.0
H1207 H 0.63605 0.08801 0.02553 0.0
H1208 H 0.60431 0.07954 0.79219 0.0
H1209 H 0.63551 0.02759 0.89088 0.0
H1210 H 0.64201 0.12023 0.81937 0.0
H1211 H 0.62576 0.12476 0.88409 0.0
H1212 H 0.61228 0.11725 0.8126 0.0
H1213 H 0.68221 0.05583 0.93929 0.0
H1214 H 0.66396 0.03457 0.96414 0.0
H1215 H 0.66451 0.06183 1.00024 0.0
C1216 C 0.12328 0.56352 0.36988 0.0
C1217 C 0.13102 0.5511 0.32077 0.0
C1218 C 0.13702 0.57931 0.40064 0.0
C1219 C 0.15913 0.5821 0.38277 0.0
C1220 C 0.16717 0.56902 0.33437 0.0
C1221 C 0.15288 0.55391 0.30332 0.0
C1222 C 0.12776 0.59335 0.45119 0.0
C1223 C 0.19084 0.57103 0.31527 0.0
C1224 C 0.19064 0.63554 0.42163 0.0
C1225 C 0.20281 0.6298 0.47341 0.0
C1226 C 0.1759 0.6203 0.39239 0.0
C1227 C 0.17392 0.5987 0.41457 0.0
C1228 C 0.18649 0.59275 0.46628 0.0
C1229 C 0.20056 0.60851 0.49562 0.0
C1230 C 0.16235 0.62735 0.33811 0.0
C1231 C 0.18534 0.56966 0.49009 0.0
H1232 H 0.10627 0.56144 0.38281 0.0
H1233 H 0.15885 0.54414 0.26547 0.0
H1234 H 0.13768 0.59101 0.49335 0.0
H1235 H 0.12894 0.61116 0.4408 0.0
H1236 H 0.11016 0.58928 0.45901 0.0
H1237 H 0.19476 0.55883 0.27868 0.0
H1238 H 0.19389 0.58795 0.29947 0.0
H1239 H 0.20248 0.56848 0.35411 0.0
H1240 H 0.19228 0.65209 0.40487 0.0
H1241 H 0.21015 0.60404 0.53544 0.0
H1242 H 0.14443 0.62474 0.34525 0.0
H1243 H 0.16666 0.61701 0.2981 0.0
H1244 H 0.16509 0.64506 0.32833 0.0
H1245 H 0.16813 0.5658 0.50222 0.0
H1246 H 0.19652 0.56764 0.53025 0.0
H1247 H 0.18998 0.55728 0.45473 0.0
C1248 C 0.63966 0.94503 0.70913 0.0
C1249 C 0.64259 0.96798 0.70455 0.0
C1250 C 0.65543 0.93 0.68718 0.0
C1251 C 0.67474 0.93815 0.66103 0.0
C1252 C 0.67858 0.9613 0.66067 0.0
C1253 C 0.66236 0.97594 0.6819 0.0
C1254 C 0.65058 0.90544 0.68782 0.0
C1255 C 0.69916 0.97067 0.63435 0.0
C1256 C 0.721 0.89766 0.62303 0.0
C1257 C 0.71672 0.89347 0.56132 0.0
C1258 C 0.70764 0.91232 0.65622 0.0
C1259 C 0.68936 0.9227 0.62721 0.0
C1260 C 0.6849 0.91841 0.56508 0.0
C1261 C 0.69871 0.90403 0.5329 0.0
C1262 C 0.71312 0.9168 0.72216 0.0
C1263 C 0.66539 0.92889 0.53253 0.0
H1264 H 0.62437 0.93874 0.72626 0.0
H1265 H 0.66483 0.99367 0.67875 0.0
H1266 H 0.64666 0.89908 0.64129 0.0
H1267 H 0.6653 0.89628 0.70477 0.0
H1268 H 0.63632 0.90171 0.71598 0.0
H1269 H 0.70124 0.98868 0.64547 0.0
H1270 H 0.71416 0.96182 0.65089 0.0
H1271 H 0.69811 0.96827 0.58475 0.0
H1272 H 0.73493 0.88964 0.64531 0.0
H1273 H 0.69512 0.90079 0.48539 0.0
H1274 H 0.6989 0.91201 0.74912 0.0
H1275 H 0.71603 0.93482 0.73101 0.0
H1276 H 0.72804 0.90762 0.7379 0.0
H1277 H 0.64977 0.92466 0.55433 0.0
H1278 H 0.66389 0.92339 0.48446 0.0
H1279 H 0.66709 0.94723 0.53517 0.0
C1280 C 0.35505 0.4801 0.8869 0.0
C1281 C 0.37015 0.47673 0.84076 0.0
C1282 C 0.34 0.46359 0.90158 0.0
C1283 C 0.33978 0.44294 0.8695 0.0
C1284 C 0.35487 0.43926 0.82281 0.0
C1285 C 0.3699 0.45619 0.80896 0.0
C1286 C 0.32424 0.46835 0.95156 0.0
C1287 C 0.35512 0.41745 0.78753 0.0
C1288 C 0.31158 0.3958 0.94789 0.0
C1289 C 0.29013 0.39587 0.92103 0.0
C1290 C 0.32814 0.41047 0.93014 0.0
C1291 C 0.32322 0.42563 0.88443 0.0
C1292 C 0.30172 0.42561 0.85671 0.0
C1293 C 0.28551 0.41084 0.87533 0.0
C1294 C 0.35081 0.41 0.96106 0.0
C1295 C 0.29567 0.44155 0.8081 0.0
H1296 H 0.35493 0.49578 0.91219 0.0
H1297 H 0.38146 0.4533 0.7735 0.0
H1298 H 0.30684 0.46699 0.93381 0.0
H1299 H 0.32644 0.45591 0.98671 0.0
H1300 H 0.32676 0.48515 0.97284 0.0
H1301 H 0.368 0.41703 0.75319 0.0
H1302 H 0.3582 0.40367 0.81837 0.0
H1303 H 0.33868 0.41436 0.76472 0.0
H1304 H 0.3155 0.38425 0.9828 0.0
H1305 H 0.2691 0.4111 0.85384 0.0
H1306 H 0.35403 0.42597 0.98621 0.0
H1307 H 0.3638 0.40809 0.92733 0.0
H1308 H 0.35248 0.39632 0.99292 0.0
H1309 H 0.29646 0.45883 0.82693 0.0
H1310 H 0.27874 0.43845 0.78818 0.0
H1311 H 0.30773 0.44026 0.77179 0.0
C1312 C 0.78139 0.10352 0.08905 0.0
C1313 C 0.7862 0.12501 0.07127 0.0
C1314 C 0.79837 0.0887 0.10404 0.0
C1315 C 0.82075 0.09568 0.10231 0.0
C1316 C 0.82573 0.11677 0.07994 0.0
C1317 C 0.80832 0.13119 0.06422 0.0
C1318 C 0.79227 0.06627 0.12667 0.0
C1319 C 0.84935 0.12486 0.07758 0.0
C1320 C 0.85724 0.0727 0.22693 0.0
C1321 C 0.86889 0.05576 0.19696 0.0
C1322 C 0.84215 0.08615 0.19608 0.0
C1323 C 0.83829 0.08256 0.13349 0.0
C1324 C 0.85012 0.06571 0.10254 0.0
C1325 C 0.86538 0.05255 0.13462 0.0
C1326 C 0.83002 0.10403 0.23093 0.0
C1327 C 0.84632 0.06131 0.0359 0.0
H1328 H 0.76425 0.09863 0.09386 0.0
H1329 H 0.81206 0.14783 0.05069 0.0
H1330 H 0.80276 0.05309 0.10662 0.0
H1331 H 0.79522 0.06628 0.17609 0.0
H1332 H 0.77456 0.06205 0.11638 0.0
H1333 H 0.85066 0.1397 0.04981 0.0
H1334 H 0.85572 0.12934 0.12378 0.0
H1335 H 0.8602 0.11163 0.05926 0.0
H1336 H 0.85996 0.0756 0.2749 0.0
H1337 H 0.87435 0.03958 0.11098 0.0
H1338 H 0.81197 0.10035 0.22921 0.0
H1339 H 0.8323 0.12033 0.21041 0.0
H1340 H 0.83583 0.10548 0.27878 0.0
H1341 H 0.82905 0.05542 0.02653 0.0
H1342 H 0.85788 0.04865 0.01774 0.0
H1343 H 0.84834 0.07685 0.01154 0.0
C1344 C 0.79172 0.62254 0.90322 0.0
C1345 C 0.80059 0.63362 0.95514 0.0
C1346 C 0.80375 0.60565 0.87382 0.0
C1347 C 0.8251 0.59988 0.89688 0.0
C1348 C 0.83458 0.61194 0.94712 0.0
C1349 C 0.82223 0.62859 0.97554 0.0
C1350 C 0.79319 0.59326 0.8201 0.0
C1351 C 0.85738 0.60653 0.97288 0.0
C1352 C 0.84891 0.54196 0.88428 0.0
C1353 C 0.86583 0.54471 0.8436 0.0
C1354 C 0.83453 0.55941 0.89893 0.0
C1355 C 0.83707 0.58019 0.87234 0.0
C1356 C 0.85316 0.58269 0.82845 0.0
C1357 C 0.86735 0.56493 0.81459 0.0
C1358 C 0.81751 0.55601 0.94577 0.0
C1359 C 0.85631 0.60452 0.79883 0.0
H1360 H 0.77501 0.62633 0.88722 0.0
H1361 H 0.82936 0.63729 0.01511 0.0
H1362 H 0.80505 0.59156 0.78337 0.0
H1363 H 0.78864 0.57627 0.83282 0.0
H1364 H 0.77798 0.60162 0.80286 0.0
H1365 H 0.86292 0.61846 0.00958 0.0
H1366 H 0.85726 0.58963 0.99098 0.0
H1367 H 0.86972 0.60659 0.93725 0.0
H1368 H 0.84737 0.52639 0.90655 0.0
H1369 H 0.88021 0.56726 0.78271 0.0
H1370 H 0.80103 0.56204 0.92995 0.0
H1371 H 0.82236 0.56576 0.98738 0.0
H1372 H 0.81594 0.5383 0.95711 0.0
H1373 H 0.84009 0.61148 0.78406 0.0
H1374 H 0.86701 0.60284 0.75943 0.0
H1375 H 0.86419 0.61665 0.8317 0.0
C1376 C 0.20157 0.12918 0.55207 0.0
C1377 C 0.22245 0.12803 0.58174 0.0
C1378 C 0.18426 0.1146 0.56564 0.0
C1379 C 0.18792 0.0985 0.6098 0.0
C1380 C 0.20903 0.0971 0.63911 0.0
C1381 C 0.22592 0.11174 0.62472 0.0
C1382 C 0.16198 0.11652 0.53322 0.0
C1383 C 0.21379 0.08015 0.68616 0.0
C1384 C 0.14046 0.07163 0.68987 0.0
C1385 C 0.13885 0.05073 0.66009 0.0
C1386 C 0.15589 0.0876 0.67288 0.0
C1387 C 0.17006 0.08263 0.62489 0.0
C1388 C 0.1684 0.06168 0.59441 0.0
C1389 C 0.15295 0.04604 0.61242 0.0
C1390 C 0.15725 0.10971 0.7068 0.0
C1391 C 0.18322 0.05561 0.54325 0.0
H1392 H 0.19862 0.14172 0.51912 0.0
H1393 H 0.24195 0.11048 0.64794 0.0
H1394 H 0.15748 0.10051 0.50975 0.0
H1395 H 0.149 0.12018 0.56609 0.0
H1396 H 0.16179 0.12974 0.49982 0.0
H1397 H 0.23105 0.08135 0.70521 0.0
H1398 H 0.2022 0.0824 0.72336 0.0
H1399 H 0.2111 0.06316 0.66641 0.0
H1400 H 0.12961 0.07558 0.72638 0.0
H1401 H 0.15194 0.03004 0.58868 0.0
H1402 H 0.15538 0.12341 0.67513 0.0
H1403 H 0.17379 0.11165 0.72987 0.0
H1404 H 0.14433 0.11149 0.74087 0.0
H1405 H 0.18202 0.06833 0.50859 0.0
H1406 H 0.17894 0.03917 0.52173 0.0
H1407 H 0.20077 0.05521 0.56001 0.0
C1408 C 0.69058 0.39276 0.46232 0.0
C1409 C 0.71213 0.39542 0.44172 0.0
C1410 C 0.67338 0.40718 0.44536 0.0
C1411 C 0.67783 0.42475 0.40715 0.0
C1412 C 0.69981 0.42837 0.38939 0.0
C1413 C 0.71665 0.41365 0.40669 0.0
C1414 C 0.65019 0.40274 0.46528 0.0
C1415 C 0.70531 0.44705 0.34909 0.0
C1416 C 0.63384 0.44294 0.2939 0.0
C1417 C 0.62729 0.46354 0.31855 0.0
C1418 C 0.64964 0.42987 0.3235 0.0
C1419 C 0.65926 0.43752 0.37933 0.0
C1420 C 0.65202 0.4578 0.40598 0.0
C1421 C 0.63604 0.47058 0.3753 0.0
C1422 C 0.65668 0.40824 0.2937 0.0
C1423 C 0.66184 0.46645 0.46554 0.0
H1424 H 0.68685 0.3788 0.48956 0.0
H1425 H 0.73325 0.41605 0.39101 0.0
H1426 H 0.64236 0.41832 0.48173 0.0
H1427 H 0.63984 0.39614 0.42644 0.0
H1428 H 0.64999 0.39051 0.50131 0.0
H1429 H 0.72349 0.44919 0.34502 0.0
H1430 H 0.69776 0.44358 0.30357 0.0
H1431 H 0.69828 0.4629 0.36641 0.0
H1432 H 0.62697 0.43719 0.25044 0.0
H1433 H 0.6311 0.48648 0.39465 0.0
H1434 H 0.65516 0.39448 0.32499 0.0
H1435 H 0.67438 0.4093 0.28208 0.0
H1436 H 0.64665 0.40403 0.25203 0.0
H1437 H 0.66165 0.45334 0.49915 0.0
H1438 H 0.65279 0.48116 0.48326 0.0
H1439 H 0.67942 0.4712 0.46025 0.0
C1440 C 0.37105 0.94761 0.17553 0.0
C1441 C 0.36757 0.95727 0.23241 0.0
C1442 C 0.35493 0.93361 0.14706 0.0
C1443 C 0.33478 0.92969 0.17576 0.0
C1444 C 0.331 0.93988 0.23249 0.0
C1445 C 0.34754 0.95338 0.26038 0.0
C1446 C 0.35958 0.92276 0.08676 0.0
C1447 C 0.3095 0.93656 0.2637 0.0
C1448 C 0.28662 0.9103 0.0735 0.0
C1449 C 0.28646 0.88751 0.08294 0.0
C1450 C 0.30175 0.92438 0.10519 0.0
C1451 C 0.31744 0.91522 0.14592 0.0
C1452 C 0.31691 0.89222 0.15682 0.0
C1453 C 0.3012 0.87858 0.12536 0.0
C1454 C 0.30145 0.94889 0.09347 0.0
C1455 C 0.33359 0.88188 0.19942 0.0
H1456 H 0.3866 0.95048 0.15415 0.0
H1457 H 0.34473 0.96102 0.3042 0.0
H1458 H 0.35842 0.90445 0.08936 0.0
H1459 H 0.34694 0.92787 0.05266 0.0
H1460 H 0.37627 0.92711 0.07121 0.0
H1461 H 0.30904 0.94608 0.30723 0.0
H1462 H 0.29531 0.94179 0.23447 0.0
H1463 H 0.30709 0.91872 0.27209 0.0
H1464 H 0.27525 0.917 0.03999 0.0
H1465 H 0.30123 0.86082 0.13139 0.0
H1466 H 0.31689 0.95361 0.07157 0.0
H1467 H 0.30087 0.95871 0.13644 0.0
H1468 H 0.28705 0.95354 0.06411 0.0
H1469 H 0.35053 0.88389 0.18253 0.0
H1470 H 0.33036 0.86392 0.20464 0.0
H1471 H 0.33336 0.89044 0.24426 0.0
C1472 C 0.79287 0.39417 0.62371 0.0
C1473 C 0.7994 0.38074 0.575 0.0
C1474 C 0.80798 0.40908 0.65317 0.0
C1475 C 0.83008 0.41023 0.63382 0.0
C1476 C 0.83692 0.39599 0.58637 0.0
C1477 C 0.82148 0.38153 0.55741 0.0
C1478 C 0.80015 0.42408 0.70369 0.0
C1479 C 0.86044 0.39634 0.56527 0.0
C1480 C 0.86475 0.46221 0.66897 0.0
C1481 C 0.87709 0.45599 0.72002 0.0
C1482 C 0.84919 0.44751 0.64056 0.0
C1483 C 0.84625 0.4261 0.66342 0.0
C1484 C 0.85925 0.41954 0.71365 0.0
C1485 C 0.87442 0.43457 0.74143 0.0
C1486 C 0.83556 0.45502 0.58696 0.0
C1487 C 0.85697 0.39671 0.73856 0.0
H1488 H 0.77576 0.39375 0.63691 0.0
H1489 H 0.82664 0.37109 0.51991 0.0
H1490 H 0.81065 0.42181 0.7449 0.0
H1491 H 0.80186 0.44167 0.69155 0.0
H1492 H 0.78258 0.42089 0.714 0.0
H1493 H 0.86324 0.3836 0.52912 0.0
H1494 H 0.86429 0.41289 0.54811 0.0
H1495 H 0.87231 0.39344 0.60336 0.0
H1496 H 0.86662 0.4788 0.65271 0.0
H1497 H 0.88403 0.42962 0.78072 0.0
H1498 H 0.81766 0.45429 0.59655 0.0
H1499 H 0.83821 0.44371 0.54756 0.0
H1500 H 0.83977 0.4722 0.57492 0.0
H1501 H 0.83979 0.39419 0.75314 0.0
H1502 H 0.86863 0.39411 0.77739 0.0
H1503 H 0.86011 0.38382 0.70315 0.0
C1504 C 0.32971 0.12509 0.49551 0.0
C1505 C 0.31123 0.13443 0.46595 0.0
C1506 C 0.34321 0.10966 0.46596 0.0
C1507 C 0.33811 0.10326 0.4053 0.0
C1508 C 0.32023 0.11347 0.37413 0.0
C1509 C 0.307 0.129 0.40481 0.0
C1510 C 0.36224 0.09931 0.50081 0.0
C1511 C 0.3143 0.10712 0.30942 0.0
C1512 C 0.38237 0.06771 0.33193 0.0
C1513 C 0.37517 0.04642 0.34547 0.0
C1514 C 0.36987 0.08655 0.34812 0.0
C1515 C 0.34972 0.08386 0.3779 0.0
C1516 C 0.34173 0.06228 0.38777 0.0
C1517 C 0.35458 0.04388 0.3717 0.0
C1518 C 0.37886 0.10931 0.33667 0.0
C1519 C 0.32022 0.05859 0.41868 0.0
H1520 H 0.33339 0.12944 0.54243 0.0
H1521 H 0.29285 0.13622 0.38142 0.0
H1522 H 0.35846 0.08157 0.50757 0.0
H1523 H 0.37765 0.09995 0.47529 0.0
H1524 H 0.36538 0.10769 0.54553 0.0
H1525 H 0.30223 0.11882 0.28912 0.0
H1526 H 0.32937 0.10659 0.28234 0.0
H1527 H 0.30686 0.09025 0.30673 0.0
H1528 H 0.39827 0.06974 0.31165 0.0
H1529 H 0.34876 0.02741 0.38136 0.0
H1530 H 0.38504 0.11727 0.37976 0.0
H1531 H 0.3656 0.12005 0.31798 0.0
H1532 H 0.39274 0.10858 0.30527 0.0
H1533 H 0.322 0.06458 0.46627 0.0
H1534 H 0.31532 0.0408 0.41768 0.0
H1535 H 0.30663 0.06817 0.39716 0.0
C1536 C 0.65461 0.54175 0.13663 0.0
C1537 C 0.6397 0.54624 0.18252 0.0
C1538 C 0.67009 0.55766 0.12037 0.0
C1539 C 0.67087 0.57869 0.15069 0.0
C1540 C 0.65611 0.58331 0.1975 0.0
C1541 C 0.64071 0.56706 0.21286 0.0
C1542 C 0.68557 0.55199 0.07039 0.0
C1543 C 0.65648 0.60551 0.23108 0.0
C1544 C 0.72464 0.61153 0.14528 0.0
C1545 C 0.71968 0.62672 0.10035 0.0
C1546 C 0.70886 0.59605 0.16244 0.0
C1547 C 0.68749 0.59559 0.13405 0.0
C1548 C 0.6823 0.6108 0.08866 0.0
C1549 C 0.69843 0.62617 0.07235 0.0
C1550 C 0.71513 0.58012 0.2109 0.0
C1551 C 0.6597 0.61079 0.05722 0.0
H1552 H 0.65409 0.52578 0.1127 0.0
H1553 H 0.62928 0.57081 0.24815 0.0
H1554 H 0.68333 0.56393 0.034 0.0
H1555 H 0.70305 0.55339 0.08743 0.0
H1556 H 0.68276 0.53494 0.05096 0.0
H1557 H 0.64395 0.60653 0.26633 0.0
H1558 H 0.67314 0.60862 0.25252 0.0
H1559 H 0.65325 0.61895 0.19927 0.0
H1560 H 0.74093 0.6117 0.16749 0.0
H1561 H 0.69431 0.63781 0.03782 0.0
H1562 H 0.71378 0.56279 0.19261 0.0
H1563 H 0.7035 0.58181 0.24815 0.0
H1564 H 0.7323 0.58293 0.22949 0.0
H1565 H 0.65645 0.59444 0.0341 0.0
H1566 H 0.65812 0.6239 0.02361 0.0
H1567 H 0.64667 0.61336 0.09058 0.0
C1568 C 0.21114 0.91432 0.89326 0.0
C1569 C 0.20615 0.89621 0.92831 0.0
C1570 C 0.19469 0.9293 0.87527 0.0
C1571 C 0.17259 0.92615 0.89251 0.0
C1572 C 0.16758 0.90861 0.93038 0.0
C1573 C 0.18443 0.89384 0.9479 0.0
C1574 C 0.20078 0.94783 0.83509 0.0
C1575 C 0.14423 0.90476 0.94984 0.0
C1576 C 0.13352 0.97406 0.85925 0.0
C1577 C 0.12503 0.9676 0.80179 0.0
C1578 C 0.14828 0.96029 0.891 0.0
C1579 C 0.15454 0.9396 0.86468 0.0
C1580 C 0.14503 0.93252 0.80824 0.0
C1581 C 0.13047 0.94658 0.77757 0.0
C1582 C 0.158 0.96834 0.95124 0.0
C1583 C 0.15108 0.91052 0.77868 0.0
H1584 H 0.22789 0.91654 0.87842 0.0
H1585 H 0.18038 0.88 0.97521 0.0
H1586 H 0.19293 0.94477 0.78973 0.0
H1587 H 0.19444 0.96391 0.85295 0.0
H1588 H 0.21899 0.94929 0.83046 0.0
H1589 H 0.14361 0.89245 0.9856 0.0
H1590 H 0.13681 0.92052 0.96648 0.0
H1591 H 0.13379 0.89855 0.91075 0.0
H1592 H 0.12935 0.99023 0.87837 0.0
H1593 H 0.12373 0.94123 0.73364 0.0
H1594 H 0.17577 0.97253 0.94688 0.0
H1595 H 0.15713 0.9551 0.98435 0.0
H1596 H 0.14934 0.98328 0.96901 0.0
H1597 H 0.16881 0.91077 0.76703 0.0
H1598 H 0.14089 0.90671 0.73703 0.0
H1599 H 0.14892 0.8969 0.81005 0.0
loop_
_geom_bond_atom_site_label_1
_geom_bond_atom_site_label_2
_geom_bond_distance
_geom_bond_site_symmetry_2
_ccdc_geom_bond_type
Mn0 O5 2.095 . S
Mn0 O15 2.162 . S
Mn0 O16 2.297 . S
Mn0 O24 2.385 1_554 S
Mn0 O25 2.209 1_554 S
Mn0 O26 2.094 . S
Mn1 O6 2.121 . S
Mn1 N8 2.257 . S
Mn1 N17 2.282 . S
Mn1 O25 2.215 . S
Mn1 O27 2.117 . S
C2 O24 1.234 . S
C2 O25 1.283 . S
C3 O15 1.281 . S
C3 O16 1.236 . S
C4 O26 1.240 1_556 S
C4 O27 1.264 . S
O5 Mn0 2.095 . S
O5 C14 1.250 . S
O6 Mn1 2.121 . S
O6 C14 1.258 1_556 S
C7 N8 1.326 . S
C7 C11 1.460 . S
C7 H13 0.929 . S
N8 Mn1 2.257 . S
N8 C7 1.326 . S
N8 C12 1.362 . S
C9 C10 1.258 . S
C9 C12 1.431 . S
C9 C29 1.449 . S
C10 C9 1.258 . S
C10 C11 1.477 . S
C10 H30 0.931 . S
C11 C7 1.460 . S
C11 C10 1.477 . S
C11 H31 0.930 . S
C12 N8 1.362 . S
C12 C9 1.431 . S
C12 C22 1.476 . S
H13 C7 0.929 . S
C14 O5 1.250 . S
C14 O6 1.258 1_554 S
O15 Mn0 2.162 . S
O15 C3 1.281 . S
O16 Mn0 2.297 . S
O16 C3 1.236 . S
N17 Mn1 2.282 . S
N17 C18 1.328 . S
N17 C22 1.318 . S
C18 N17 1.328 . S
C18 C19 1.457 . S
C18 H23 0.929 . S
C19 C18 1.457 . S
C19 C20 1.291 . S
C19 H32 0.931 . S
C20 C19 1.291 . S
C20 C21 1.373 . S
C20 H33 0.929 . S
C21 C20 1.373 . S
C21 C22 1.396 . S
C21 C28 1.403 . S
C22 C12 1.476 . S
C22 N17 1.318 . S
C22 C21 1.396 . S
H23 C18 0.929 . S
O24 Mn0 2.385 1_556 S
O24 C2 1.234 . S
O25 Mn0 2.209 1_556 S
O25 Mn1 2.215 . S
O25 C2 1.283 . S
O26 Mn0 2.094 . S
O26 C4 1.240 1_554 S
O27 Mn1 2.117 . S
O27 C4 1.264 . S
C28 C21 1.403 . S
C28 C29 1.399 . S
C28 H34 0.929 . S
C29 C9 1.449 . S
C29 C28 1.399 . S
C29 H35 0.930 . S
H30 C10 0.931 . S
H31 C11 0.930 . S
H32 C19 0.931 . S
H33 C20 0.929 . S
H34 C28 0.929 . S
H35 C29 0.930 . S
Mn36 O41 2.120 . S
Mn36 O51 2.148 1_545 S
Mn36 O52 2.320 . S
Mn36 O60 2.374 1_545 S
Mn36 O61 2.230 . S
Mn36 O62 2.061 1_545 S
Mn37 O42 2.121 . S
Mn37 N44 2.257 . S
Mn37 N53 2.282 . S
Mn37 O61 2.215 . S
Mn37 O63 2.117 1_545 S
C38 O60 1.234 1_545 S
C38 O61 1.283 . S
C39 O51 1.281 1_545 S
C39 O52 1.236 . S
C40 O62 1.240 . S
C40 O63 1.264 . S
O41 Mn36 2.120 . S
O41 C50 1.250 . S
O42 Mn37 2.121 . S
O42 C50 1.258 . S
C43 N44 1.326 . S
C43 C47 1.460 . S
C43 H49 0.929 . S
N44 Mn37 2.257 . S
N44 C43 1.326 . S
N44 C48 1.362 . S
C45 C46 1.258 . S
C45 C48 1.431 . S
C45 C65 1.449 . S
C46 C45 1.258 . S
C46 C47 1.477 . S
C46 H66 0.931 . S
C47 C43 1.460 . S
C47 C46 1.477 . S
C47 H67 0.930 . S
C48 N44 1.362 . S
C48 C45 1.431 . S
C48 C58 1.476 . S
H49 C43 0.929 . S
C50 O41 1.250 . S
C50 O42 1.258 . S
O51 Mn36 2.148 1_565 S
O51 C39 1.281 1_565 S
O52 Mn36 2.320 . S
O52 C39 1.236 . S
N53 Mn37 2.282 . S
N53 C54 1.328 1_545 S
N53 C58 1.318 . S
C54 N53 1.328 1_565 S
C54 C55 1.457 . S
C54 H59 0.929 . S
C55 C54 1.457 . S
C55 C56 1.310 . S
C55 H68 0.931 . S
C56 C55 1.310 . S
C56 C57 1.346 1_565 S
C56 H69 0.939 . S
C57 C56 1.346 1_545 S
C57 C58 1.396 . S
C57 C64 1.403 . S
C58 C48 1.476 . S
C58 N53 1.318 . S
C58 C57 1.396 . S
H59 C54 0.929 . S
O60 Mn36 2.374 1_565 S
O60 C38 1.234 1_565 S
O61 Mn36 2.230 . S
O61 Mn37 2.215 . S
O61 C38 1.283 . S
O62 Mn36 2.061 1_565 S
O62 C40 1.240 . S
O63 Mn37 2.117 1_565 S
O63 C40 1.264 . S
C64 C57 1.403 . S
C64 C65 1.399 . S
C64 H70 0.929 . S
C65 C45 1.449 . S
C65 C64 1.399 . S
C65 H71 0.930 . S
H66 C46 0.931 . S
H67 C47 0.930 . S
H68 C55 0.931 . S
H69 C56 0.939 . S
H70 C64 0.929 . S
H71 C65 0.930 . S
Mn72 O77 2.095 . S
Mn72 O87 2.162 . S
Mn72 O88 2.297 . S
Mn72 O96 2.385 . S
Mn72 O97 2.209 . S
Mn72 O98 2.094 . S
Mn73 O78 2.121 . S
Mn73 N80 2.257 . S
Mn73 N89 2.282 . S
Mn73 O97 2.215 . S
Mn73 O99 2.117 . S
C74 O96 1.234 . S
C74 O97 1.283 . S
C75 O87 1.281 . S
C75 O88 1.236 . S
C76 O98 1.240 . S
C76 O99 1.264 . S
O77 Mn72 2.095 . S
O77 C86 1.250 . S
O78 Mn73 2.121 . S
O78 C86 1.258 . S
C79 N80 1.326 . S
C79 C83 1.460 . S
C79 H85 0.929 . S
N80 Mn73 2.257 . S
N80 C79 1.326 . S
N80 C84 1.362 . S
C81 C82 1.258 . S
C81 C84 1.431 . S
C81 C101 1.449 . S
C82 C81 1.258 . S
C82 C83 1.477 . S
C82 H102 0.931 . S
C83 C79 1.460 . S
C83 C82 1.477 . S
C83 H103 0.930 . S
C84 N80 1.362 . S
C84 C81 1.431 . S
C84 C94 1.476 . S
H85 C79 0.929 . S
C86 O77 1.250 . S
C86 O78 1.258 . S
O87 Mn72 2.162 . S
O87 C75 1.281 . S
O88 Mn72 2.297 . S
O88 C75 1.236 . S
N89 Mn73 2.282 . S
N89 C90 1.328 . S
N89 C94 1.318 . S
C90 N89 1.328 . S
C90 C91 1.457 . S
C90 H95 0.929 . S
C91 C90 1.457 . S
C91 C92 1.291 . S
C91 H104 0.931 . S
C92 C91 1.291 . S
C92 C93 1.373 . S
C92 H105 0.929 . S
C93 C92 1.373 . S
C93 C94 1.396 . S
C93 C100 1.403 . S
C94 C84 1.476 . S
C94 N89 1.318 . S
C94 C93 1.396 . S
H95 C90 0.929 . S
O96 Mn72 2.385 . S
O96 C74 1.234 . S
O97 Mn72 2.209 . S
O97 Mn73 2.215 . S
O97 C74 1.283 . S
O98 Mn72 2.094 . S
O98 C76 1.240 . S
O99 Mn73 2.117 . S
O99 C76 1.264 . S
C100 C93 1.403 . S
C100 C101 1.399 . S
C100 H106 0.929 . S
C101 C81 1.449 . S
C101 C100 1.399 . S
C101 H107 0.930 . S
H102 C82 0.931 . S
H103 C83 0.930 . S
H104 C91 0.931 . S
H105 C92 0.929 . S
H106 C100 0.929 . S
H107 C101 0.930 . S
Mn108 O113 2.124 . S
Mn108 O123 2.142 1_545 S
Mn108 O124 2.323 . S
Mn108 O132 2.374 1_545 S
Mn108 O133 2.238 . S
Mn108 O134 2.055 1_545 S
Mn109 O114 2.121 . S
Mn109 N116 2.257 . S
Mn109 N125 2.282 . S
Mn109 O133 2.215 . S
Mn109 O135 2.117 1_545 S
C110 O132 1.234 1_545 S
C110 O133 1.283 . S
C111 O123 1.281 1_545 S
C111 O124 1.236 . S
C112 O134 1.240 . S
C112 O135 1.264 . S
O113 Mn108 2.124 . S
O113 C122 1.250 . S
O114 Mn109 2.121 . S
O114 C122 1.258 . S
C115 N116 1.326 . S
C115 C119 1.460 . S
C115 H121 0.929 . S
N116 Mn109 2.257 . S
N116 C115 1.326 . S
N116 C120 1.362 . S
C117 C118 1.258 . S
C117 C120 1.431 . S
C117 C137 1.449 . S
C118 C117 1.258 . S
C118 C119 1.477 . S
C118 H138 0.931 . S
C119 C115 1.460 . S
C119 C118 1.477 . S
C119 H139 0.930 . S
C120 N116 1.362 . S
C120 C117 1.431 . S
C120 C130 1.476 . S
H121 C115 0.929 . S
C122 O113 1.250 . S
C122 O114 1.258 . S
O123 Mn108 2.142 1_565 S
O123 C111 1.281 1_565 S
O124 Mn108 2.323 . S
O124 C111 1.236 . S
N125 Mn109 2.282 . S
N125 C126 1.328 1_545 S
N125 C130 1.318 . S
C126 N125 1.328 1_565 S
C126 C127 1.457 . S
C126 H131 0.929 . S
C127 C126 1.457 . S
C127 C128 1.291 . S
C127 H140 0.931 . S
C128 C127 1.291 . S
C128 C129 1.373 1_565 S
C128 H141 0.929 . S
C129 C128 1.373 1_545 S
C129 C130 1.396 . S
C129 C136 1.403 . S
C130 C120 1.476 . S
C130 N125 1.318 . S
C130 C129 1.396 . S
H131 C126 0.929 . S
O132 Mn108 2.374 1_565 S
O132 C110 1.234 1_565 S
O133 Mn108 2.238 . S
O133 Mn109 2.215 . S
O133 C110 1.283 . S
O134 Mn108 2.055 1_565 S
O134 C112 1.240 . S
O135 Mn109 2.117 1_565 S
O135 C112 1.264 . S
C136 C129 1.403 . S
C136 C137 1.399 . S
C136 H142 0.929 . S
C137 C117 1.449 . S
C137 C136 1.399 . S
C137 H143 0.930 . S
H138 C118 0.931 . S
H139 C119 0.930 . S
H140 C127 0.931 . S
H141 C128 0.929 . S
H142 C136 0.929 . S
H143 C137 0.930 . S
Mn144 O149 2.095 1_554 S
Mn144 O159 2.162 1_554 S
Mn144 O160 2.297 1_554 S
Mn144 O168 2.385 . S
Mn144 O169 2.209 . S
Mn144 O170 2.094 . S
Mn145 O150 2.121 . S
Mn145 N152 2.257 . S
Mn145 N161 2.282 . S
Mn145 O169 2.215 . S
Mn145 O171 2.117 . S
C146 O168 1.234 . S
C146 O169 1.283 . S
C147 O159 1.281 . S
C147 O160 1.236 . S
C148 O170 1.240 . S
C148 O171 1.264 . S
O149 Mn144 2.095 1_556 S
O149 C158 1.250 . S
O150 Mn145 2.121 . S
O150 C158 1.258 1_554 S
C151 N152 1.326 . S
C151 C155 1.460 . S
C151 H157 0.929 . S
N152 Mn145 2.257 . S
N152 C151 1.326 . S
N152 C156 1.362 . S
C153 C154 1.258 . S
C153 C156 1.431 . S
C153 C173 1.449 . S
C154 C153 1.258 . S
C154 C155 1.477 . S
C154 H174 0.931 . S
C155 C151 1.460 . S
C155 C154 1.477 . S
C155 H175 0.930 . S
C156 N152 1.362 . S
C156 C153 1.431 . S
C156 C166 1.476 . S
H157 C151 0.929 . S
C158 O149 1.250 . S
C158 O150 1.258 1_556 S
O159 Mn144 2.162 1_556 S
O159 C147 1.281 . S
O160 Mn144 2.297 1_556 S
O160 C147 1.236 . S
N161 Mn145 2.282 . S
N161 C162 1.328 . S
N161 C166 1.318 . S
C162 N161 1.328 . S
C162 C163 1.457 . S
C162 H167 0.929 . S
C163 C162 1.457 . S
C163 C164 1.291 . S
C163 H176 0.931 . S
C164 C163 1.291 . S
C164 C165 1.373 . S
C164 H177 0.929 . S
C165 C164 1.373 . S
C165 C166 1.396 . S
C165 C172 1.403 . S
C166 C156 1.476 . S
C166 N161 1.318 . S
C166 C165 1.396 . S
H167 C162 0.929 . S
O168 Mn144 2.385 . S
O168 C146 1.234 . S
O169 Mn144 2.209 . S
O169 Mn145 2.215 . S
O169 C146 1.283 . S
O170 Mn144 2.094 . S
O170 C148 1.240 . S
O171 Mn145 2.117 . S
O171 C148 1.264 . S
C172 C165 1.403 . S
C172 C173 1.399 . S
C172 H178 0.929 . S
C173 C153 1.449 . S
C173 C172 1.399 . S
C173 H179 0.930 . S
H174 C154 0.931 . S
H175 C155 0.930 . S
H176 C163 0.931 . S
H177 C164 0.929 . S
H178 C172 0.929 . S
H179 C173 0.930 . S
Mn180 O185 2.095 1_545 S
Mn180 O195 2.162 . S
Mn180 O196 2.297 1_545 S
Mn180 O204 2.385 . S
Mn180 O205 2.209 1_545 S
Mn180 O206 2.094 . S
Mn181 O186 2.121 . S
Mn181 N188 2.257 . S
Mn181 N197 2.282 1_565 S
Mn181 O205 2.215 . S
Mn181 O207 2.117 1_565 S
C182 O204 1.234 . S
C182 O205 1.283 1_545 S
C183 O195 1.281 . S
C183 O196 1.236 1_545 S
C184 O206 1.240 . S
C184 O207 1.264 . S
O185 Mn180 2.095 1_565 S
O185 C194 1.250 . S
O186 Mn181 2.121 . S
O186 C194 1.258 . S
C187 N188 1.326 . S
C187 C191 1.460 . S
C187 H193 0.929 . S
N188 Mn181 2.257 . S
N188 C187 1.326 . S
N188 C192 1.362 . S
C189 C190 1.258 . S
C189 C192 1.431 . S
C189 C209 1.449 . S
C190 C189 1.258 . S
C190 C191 1.477 . S
C190 H210 0.931 . S
C191 C187 1.460 . S
C191 C190 1.477 . S
C191 H211 0.930 . S
C192 N188 1.362 . S
C192 C189 1.431 . S
C192 C202 1.476 . S
H193 C187 0.929 . S
C194 O185 1.250 . S
C194 O186 1.258 . S
O195 Mn180 2.162 . S
O195 C183 1.281 . S
O196 Mn180 2.297 1_565 S
O196 C183 1.236 1_565 S
N197 Mn181 2.282 1_545 S
N197 C198 1.328 . S
N197 C202 1.318 1_545 S
C198 N197 1.328 . S
C198 C199 1.457 . S
C198 H203 0.929 . S
C199 C198 1.457 . S
C199 C200 1.291 . S
C199 H212 0.931 . S
C200 C199 1.291 . S
C200 C201 1.373 1_545 S
C200 H213 0.929 . S
C201 C200 1.373 1_565 S
C201 C202 1.396 . S
C201 C208 1.403 . S
C202 C192 1.476 . S
C202 N197 1.318 1_565 S
C202 C201 1.396 . S
H203 C198 0.929 . S
O204 Mn180 2.385 . S
O204 C182 1.234 . S
O205 Mn180 2.209 1_565 S
O205 Mn181 2.215 . S
O205 C182 1.283 1_565 S
O206 Mn180 2.094 . S
O206 C184 1.240 . S
O207 Mn181 2.117 1_545 S
O207 C184 1.264 . S
C208 C201 1.403 . S
C208 C209 1.399 . S
C208 H214 0.929 . S
C209 C189 1.449 . S
C209 C208 1.399 . S
C209 H215 0.930 . S
H210 C190 0.931 . S
H211 C191 0.930 . S
H212 C199 0.931 . S
H213 C200 0.929 . S
H214 C208 0.929 . S
H215 C209 0.930 . S
Mn216 O221 2.095 . S
Mn216 O231 2.162 . S
Mn216 O232 2.297 . S
Mn216 O240 2.385 . S
Mn216 O241 2.209 . S
Mn216 O242 2.094 . S
Mn217 O222 2.121 . S
Mn217 N224 2.257 . S
Mn217 N233 2.282 . S
Mn217 O241 2.215 . S
Mn217 O243 2.117 . S
C218 O240 1.234 . S
C218 O241 1.283 . S
C219 O231 1.281 . S
C219 O232 1.236 . S
C220 O242 1.240 . S
C220 O243 1.264 . S
O221 Mn216 2.095 . S
O221 C230 1.250 . S
O222 Mn217 2.121 . S
O222 C230 1.258 . S
C223 N224 1.326 . S
C223 C227 1.460 . S
C223 H229 0.929 . S
N224 Mn217 2.257 . S
N224 C223 1.326 . S
N224 C228 1.362 . S
C225 C226 1.258 . S
C225 C228 1.431 . S
C225 C245 1.449 . S
C226 C225 1.258 . S
C226 C227 1.477 . S
C226 H246 0.931 . S
C227 C223 1.460 . S
C227 C226 1.477 . S
C227 H247 0.930 . S
C228 N224 1.362 . S
C228 C225 1.431 . S
C228 C238 1.476 . S
H229 C223 0.929 . S
C230 O221 1.250 . S
C230 O222 1.258 . S
O231 Mn216 2.162 . S
O231 C219 1.281 . S
O232 Mn216 2.297 . S
O232 C219 1.236 . S
N233 Mn217 2.282 . S
N233 C234 1.328 . S
N233 C238 1.318 . S
C234 N233 1.328 . S
C234 C235 1.457 . S
C234 H239 0.929 . S
C235 C234 1.457 . S
C235 C236 1.291 . S
C235 H248 0.931 . S
C236 C235 1.291 . S
C236 C237 1.373 . S
C236 H249 0.929 . S
C237 C236 1.373 . S
C237 C238 1.396 . S
C237 C244 1.403 . S
C238 C228 1.476 . S
C238 N233 1.318 . S
C238 C237 1.396 . S
H239 C234 0.929 . S
O240 Mn216 2.385 . S
O240 C218 1.234 . S
O241 Mn216 2.209 . S
O241 Mn217 2.215 . S
O241 C218 1.283 . S
O242 Mn216 2.094 . S
O242 C220 1.240 . S
O243 Mn217 2.117 . S
O243 C220 1.264 . S
C244 C237 1.403 . S
C244 C245 1.399 . S
C244 H250 0.929 . S
C245 C225 1.449 . S
C245 C244 1.399 . S
C245 H251 0.930 . S
H246 C226 0.931 . S
H247 C227 0.930 . S
H248 C235 0.931 . S
H249 C236 0.929 . S
H250 C244 0.929 . S
H251 C245 0.930 . S
Mn252 O257 2.095 1_545 S
Mn252 O267 2.162 . S
Mn252 O268 2.297 1_545 S
Mn252 O276 2.385 . S
Mn252 O277 2.209 1_545 S
Mn252 O278 2.094 . S
Mn253 O258 2.121 . S
Mn253 N260 2.257 . S
Mn253 N269 2.282 1_565 S
Mn253 O277 2.215 . S
Mn253 O279 2.117 1_565 S
C254 O276 1.234 . S
C254 O277 1.283 1_545 S
C255 O267 1.281 . S
C255 O268 1.236 1_545 S
C256 O278 1.240 . S
C256 O279 1.264 . S
O257 Mn252 2.095 1_565 S
O257 C266 1.250 . S
O258 Mn253 2.121 . S
O258 C266 1.258 . S
C259 N260 1.326 . S
C259 C263 1.460 . S
C259 H265 0.929 . S
N260 Mn253 2.257 . S
N260 C259 1.326 . S
N260 C264 1.362 . S
C261 C262 1.258 . S
C261 C264 1.431 . S
C261 C281 1.449 . S
C262 C261 1.258 . S
C262 C263 1.477 . S
C262 H282 0.931 . S
C263 C259 1.460 . S
C263 C262 1.477 . S
C263 H283 0.930 . S
C264 N260 1.362 . S
C264 C261 1.431 . S
C264 C274 1.476 . S
H265 C259 0.929 . S
C266 O257 1.250 . S
C266 O258 1.258 . S
O267 Mn252 2.162 . S
O267 C255 1.281 . S
O268 Mn252 2.297 1_565 S
O268 C255 1.236 1_565 S
N269 Mn253 2.282 1_545 S
N269 C270 1.328 . S
N269 C274 1.318 1_545 S
C270 N269 1.328 . S
C270 C271 1.457 . S
C270 H275 0.929 . S
C271 C270 1.457 . S
C271 C272 1.291 . S
C271 H284 0.931 . S
C272 C271 1.291 . S
C272 C273 1.373 1_545 S
C272 H285 0.929 . S
C273 C272 1.373 1_565 S
C273 C274 1.396 . S
C273 C280 1.403 . S
C274 C264 1.476 . S
C274 N269 1.318 1_565 S
C274 C273 1.396 . S
H275 C270 0.929 . S
O276 Mn252 2.385 . S
O276 C254 1.234 . S
O277 Mn252 2.209 1_565 S
O277 Mn253 2.215 . S
O277 C254 1.283 1_565 S
O278 Mn252 2.094 . S
O278 C256 1.240 . S
O279 Mn253 2.117 1_545 S
O279 C256 1.264 . S
C280 C273 1.403 . S
C280 C281 1.399 . S
C280 H286 0.929 . S
C281 C261 1.449 . S
C281 C280 1.399 . S
C281 H287 0.930 . S
H282 C262 0.931 . S
H283 C263 0.930 . S
H284 C271 0.931 . S
H285 C272 0.929 . S
H286 C280 0.929 . S
H287 C281 0.930 . S
Mn288 O293 2.095 . S
Mn288 O303 2.162 . S
Mn288 O304 2.297 . S
Mn288 O312 2.385 . S
Mn288 O313 2.209 . S
Mn288 O314 2.094 . S
Mn289 O294 2.121 . S
Mn289 N296 2.257 . S
Mn289 N305 2.282 . S
Mn289 O313 2.215 . S
Mn289 O315 2.117 . S
C290 O312 1.234 . S
C290 O313 1.283 . S
C291 O303 1.281 . S
C291 O304 1.236 . S
C292 O314 1.240 . S
C292 O315 1.264 . S
O293 Mn288 2.095 . S
O293 C302 1.250 . S
O294 Mn289 2.121 . S
O294 C302 1.258 . S
C295 N296 1.326 . S
C295 C299 1.460 . S
C295 H301 0.929 . S
N296 Mn289 2.257 . S
N296 C295 1.326 . S
N296 C300 1.362 . S
C297 C298 1.258 . S
C297 C300 1.431 . S
C297 C317 1.449 . S
C298 C297 1.258 . S
C298 C299 1.477 . S
C298 H318 0.931 . S
C299 C295 1.460 . S
C299 C298 1.477 . S
C299 H319 0.930 . S
C300 N296 1.362 . S
C300 C297 1.431 . S
C300 C310 1.476 . S
H301 C295 0.929 . S
C302 O293 1.250 . S
C302 O294 1.258 . S
O303 Mn288 2.162 . S
O303 C291 1.281 . S
O304 Mn288 2.297 . S
O304 C291 1.236 . S
N305 Mn289 2.282 . S
N305 C306 1.328 . S
N305 C310 1.318 . S
C306 N305 1.328 . S
C306 C307 1.457 . S
C306 H311 0.929 . S
C307 C306 1.457 . S
C307 C308 1.291 . S
C307 H320 0.931 . S
C308 C307 1.291 . S
C308 C309 1.373 . S
C308 H321 0.929 . S
C309 C308 1.373 . S
C309 C310 1.396 . S
C309 C316 1.403 . S
C310 C300 1.476 . S
C310 N305 1.318 . S
C310 C309 1.396 . S
H311 C306 0.929 . S
O312 Mn288 2.385 . S
O312 C290 1.234 . S
O313 Mn288 2.209 . S
O313 Mn289 2.215 . S
O313 C290 1.283 . S
O314 Mn288 2.094 . S
O314 C292 1.240 . S
O315 Mn289 2.117 . S
O315 C292 1.264 . S
C316 C309 1.403 . S
C316 C317 1.399 . S
C316 H322 0.929 . S
C317 C297 1.449 . S
C317 C316 1.399 . S
C317 H323 0.930 . S
H318 C298 0.931 . S
H319 C299 0.930 . S
H320 C307 0.931 . S
H321 C308 0.929 . S
H322 C316 0.929 . S
H323 C317 0.930 . S
Mn324 O329 2.095 . S
Mn324 O339 2.162 . S
Mn324 O340 2.297 . S
Mn324 O348 2.385 . S
Mn324 O349 2.209 . S
Mn324 O350 2.094 . S
Mn325 O330 2.121 . S
Mn325 N332 2.257 . S
Mn325 N341 2.282 . S
Mn325 O349 2.215 . S
Mn325 O351 2.117 . S
C326 O348 1.234 . S
C326 O349 1.283 . S
C327 O339 1.281 . S
C327 O340 1.236 . S
C328 O350 1.240 . S
C328 O351 1.264 . S
O329 Mn324 2.095 . S
O329 C338 1.250 . S
O330 Mn325 2.121 . S
O330 C338 1.258 . S
C331 N332 1.326 . S
C331 C335 1.460 . S
C331 H337 0.929 . S
N332 Mn325 2.257 . S
N332 C331 1.326 . S
N332 C336 1.362 . S
C333 C334 1.258 . S
C333 C336 1.431 1_554 S
C333 C353 1.449 . S
C334 C333 1.258 . S
C334 C335 1.477 1_554 S
C334 H354 0.931 . S
C335 C331 1.460 . S
C335 C334 1.477 1_556 S
C335 H355 0.930 . S
C336 N332 1.362 . S
C336 C333 1.431 1_556 S
C336 C346 1.476 1_556 S
H337 C331 0.929 . S
C338 O329 1.250 . S
C338 O330 1.258 . S
O339 Mn324 2.162 . S
O339 C327 1.281 . S
O340 Mn324 2.297 . S
O340 C327 1.236 . S
N341 Mn325 2.282 . S
N341 C342 1.328 . S
N341 C346 1.318 1_556 S
C342 N341 1.328 . S
C342 C343 1.457 1_556 S
C342 H347 0.929 . S
C343 C342 1.457 1_554 S
C343 C344 1.291 . S
C343 H356 0.931 . S
C344 C343 1.291 . S
C344 C345 1.373 . S
C344 H357 0.929 . S
C345 C344 1.373 . S
C345 C346 1.396 . S
C345 C352 1.403 . S
C346 C336 1.476 1_554 S
C346 N341 1.318 1_554 S
C346 C345 1.396 . S
H347 C342 0.929 . S
O348 Mn324 2.385 . S
O348 C326 1.234 . S
O349 Mn324 2.209 . S
O349 Mn325 2.215 . S
O349 C326 1.283 . S
O350 Mn324 2.094 . S
O350 C328 1.240 . S
O351 Mn325 2.117 . S
O351 C328 1.264 . S
C352 C345 1.403 . S
C352 C353 1.399 . S
C352 H358 0.929 . S
C353 C333 1.449 . S
C353 C352 1.399 . S
C353 H359 0.930 . S
H354 C334 0.931 . S
H355 C335 0.930 . S
H356 C343 0.931 . S
H357 C344 0.929 . S
H358 C352 0.929 . S
H359 C353 0.930 . S
Mn360 O365 2.095 1_554 S
Mn360 O375 2.162 1_554 S
Mn360 O376 2.297 1_554 S
Mn360 O384 2.385 . S
Mn360 O385 2.209 . S
Mn360 O386 2.094 . S
Mn361 O366 2.121 . S
Mn361 N368 2.257 . S
Mn361 N377 2.282 . S
Mn361 O385 2.215 . S
Mn361 O387 2.117 . S
C362 O384 1.234 . S
C362 O385 1.283 . S
C363 O375 1.281 . S
C363 O376 1.236 . S
C364 O386 1.240 . S
C364 O387 1.264 . S
O365 Mn360 2.095 1_556 S
O365 C374 1.250 . S
O366 Mn361 2.121 . S
O366 C374 1.258 1_554 S
C367 N368 1.326 . S
C367 C371 1.460 . S
C367 H373 0.929 . S
N368 Mn361 2.257 . S
N368 C367 1.326 . S
N368 C372 1.362 . S
C369 C370 1.258 . S
C369 C372 1.431 . S
C369 C389 1.449 . S
C370 C369 1.258 . S
C370 C371 1.477 . S
C370 H390 0.931 . S
C371 C367 1.460 . S
C371 C370 1.477 . S
C371 H391 0.930 . S
C372 N368 1.362 . S
C372 C369 1.431 . S
C372 C382 1.476 . S
H373 C367 0.929 . S
C374 O365 1.250 . S
C374 O366 1.258 1_556 S
O375 Mn360 2.162 1_556 S
O375 C363 1.281 . S
O376 Mn360 2.297 1_556 S
O376 C363 1.236 . S
N377 Mn361 2.282 . S
N377 C378 1.328 . S
N377 C382 1.318 . S
C378 N377 1.328 . S
C378 C379 1.457 . S
C378 H383 0.929 . S
C379 C378 1.457 . S
C379 C380 1.291 . S
C379 H392 0.931 . S
C380 C379 1.291 . S
C380 C381 1.373 . S
C380 H393 0.929 . S
C381 C380 1.373 . S
C381 C382 1.396 . S
C381 C388 1.403 . S
C382 C372 1.476 . S
C382 N377 1.318 . S
C382 C381 1.396 . S
H383 C378 0.929 . S
O384 Mn360 2.385 . S
O384 C362 1.234 . S
O385 Mn360 2.209 . S
O385 Mn361 2.215 . S
O385 C362 1.283 . S
O386 Mn360 2.094 . S
O386 C364 1.240 . S
O387 Mn361 2.117 . S
O387 C364 1.264 . S
C388 C381 1.403 . S
C388 C389 1.399 . S
C388 H394 0.929 . S
C389 C369 1.449 . S
C389 C388 1.399 . S
C389 H395 0.930 . S
H390 C370 0.931 . S
H391 C371 0.930 . S
H392 C379 0.931 . S
H393 C380 0.929 . S
H394 C388 0.929 . S
H395 C389 0.930 . S
Mn396 O401 2.095 . S
Mn396 O411 2.162 . S
Mn396 O412 2.297 . S
Mn396 O420 2.385 . S
Mn396 O421 2.209 . S
Mn396 O422 2.094 . S
Mn397 O402 2.121 . S
Mn397 N404 2.257 . S
Mn397 N413 2.282 . S
Mn397 O421 2.215 . S
Mn397 O423 2.117 . S
C398 O420 1.234 . S
C398 O421 1.283 . S
C399 O411 1.281 . S
C399 O412 1.236 . S
C400 O422 1.240 . S
C400 O423 1.264 . S
O401 Mn396 2.095 . S
O401 C410 1.250 . S
O402 Mn397 2.121 . S
O402 C410 1.258 . S
C403 N404 1.326 . S
C403 C407 1.460 . S
C403 H409 0.929 . S
N404 Mn397 2.257 . S
N404 C403 1.326 . S
N404 C408 1.362 . S
C405 C406 1.258 . S
C405 C408 1.431 . S
C405 C425 1.449 1_554 S
C406 C405 1.258 . S
C406 C407 1.477 . S
C406 H426 0.931 1_554 S
C407 C403 1.460 . S
C407 C406 1.477 . S
C407 H427 0.930 . S
C408 N404 1.362 . S
C408 C405 1.431 . S
C408 C418 1.476 . S
H409 C403 0.929 . S
C410 O401 1.250 . S
C410 O402 1.258 . S
O411 Mn396 2.162 . S
O411 C399 1.281 . S
O412 Mn396 2.297 . S
O412 C399 1.236 . S
N413 Mn397 2.282 . S
N413 C414 1.328 . S
N413 C418 1.318 . S
C414 N413 1.328 . S
C414 C415 1.457 1_554 S
C414 H419 0.929 . S
C415 C414 1.457 1_556 S
C415 C416 1.291 . S
C415 H428 0.931 . S
C416 C415 1.291 . S
C416 C417 1.373 . S
C416 H429 0.929 . S
C417 C416 1.373 . S
C417 C418 1.396 1_556 S
C417 C424 1.403 . S
C418 C408 1.476 . S
C418 N413 1.318 . S
C418 C417 1.396 1_554 S
H419 C414 0.929 . S
O420 Mn396 2.385 . S
O420 C398 1.234 . S
O421 Mn396 2.209 . S
O421 Mn397 2.215 . S
O421 C398 1.283 . S
O422 Mn396 2.094 . S
O422 C400 1.240 . S
O423 Mn397 2.117 . S
O423 C400 1.264 . S
C424 C417 1.403 . S
C424 C425 1.399 . S
C424 H430 0.929 . S
C425 C405 1.449 1_556 S
C425 C424 1.399 . S
C425 H431 0.930 . S
H426 C406 0.931 1_556 S
H427 C407 0.930 . S
H428 C415 0.931 . S
H429 C416 0.929 . S
H430 C424 0.929 . S
H431 C425 0.930 . S
Mn432 O437 2.095 . S
Mn432 O447 2.162 . S
Mn432 O448 2.297 . S
Mn432 O456 2.385 . S
Mn432 O457 2.209 . S
Mn432 O458 2.094 . S
Mn433 O438 2.121 . S
Mn433 N440 2.257 . S
Mn433 N449 2.282 . S
Mn433 O457 2.215 . S
Mn433 O459 2.117 . S
C434 O456 1.234 . S
C434 O457 1.283 . S
C435 O447 1.281 . S
C435 O448 1.236 . S
C436 O458 1.240 . S
C436 O459 1.264 . S
O437 Mn432 2.095 . S
O437 C446 1.250 . S
O438 Mn433 2.121 . S
O438 C446 1.258 . S
C439 N440 1.326 . S
C439 C443 1.460 . S
C439 H445 0.929 . S
N440 Mn433 2.257 . S
N440 C439 1.326 . S
N440 C444 1.362 . S
C441 C442 1.258 . S
C441 C444 1.431 . S
C441 C461 1.449 . S
C442 C441 1.258 . S
C442 C443 1.477 . S
C442 H462 0.931 . S
C443 C439 1.460 . S
C443 C442 1.477 . S
C443 H463 0.930 . S
C444 N440 1.362 . S
C444 C441 1.431 . S
C444 C454 1.476 . S
H445 C439 0.929 . S
C446 O437 1.250 . S
C446 O438 1.258 . S
O447 Mn432 2.162 . S
O447 C435 1.281 . S
O448 Mn432 2.297 . S
O448 C435 1.236 . S
N449 Mn433 2.282 . S
N449 C450 1.328 . S
N449 C454 1.318 . S
C450 N449 1.328 . S
C450 C451 1.457 . S
C450 H455 0.929 . S
C451 C450 1.457 . S
C451 C452 1.291 . S
C451 H464 0.931 . S
C452 C451 1.291 . S
C452 C453 1.373 . S
C452 H465 0.929 . S
C453 C452 1.373 . S
C453 C454 1.396 . S
C453 C460 1.403 . S
C454 C444 1.476 . S
C454 N449 1.318 . S
C454 C453 1.396 . S
H455 C450 0.929 . S
O456 Mn432 2.385 . S
O456 C434 1.234 . S
O457 Mn432 2.209 . S
O457 Mn433 2.215 . S
O457 C434 1.283 . S
O458 Mn432 2.094 . S
O458 C436 1.240 . S
O459 Mn433 2.117 . S
O459 C436 1.264 . S
C460 C453 1.403 . S
C460 C461 1.399 . S
C460 H466 0.929 . S
C461 C441 1.449 . S
C461 C460 1.399 . S
C461 H467 0.930 . S
H462 C442 0.931 . S
H463 C443 0.930 . S
H464 C451 0.931 . S
H465 C452 0.929 . S
H466 C460 0.929 . S
H467 C461 0.930 . S
Mn468 O473 2.095 . S
Mn468 O483 2.162 . S
Mn468 O484 2.297 . S
Mn468 O492 2.385 . S
Mn468 O493 2.209 . S
Mn468 O494 2.094 . S
Mn469 O474 2.121 . S
Mn469 N476 2.257 . S
Mn469 N485 2.282 . S
Mn469 O493 2.215 . S
Mn469 O495 2.117 . S
C470 O492 1.234 . S
C470 O493 1.283 . S
C471 O483 1.281 . S
C471 O484 1.236 . S
C472 O494 1.240 . S
C472 O495 1.264 . S
O473 Mn468 2.095 . S
O473 C482 1.250 . S
O474 Mn469 2.121 . S
O474 C482 1.258 . S
C475 N476 1.326 . S
C475 C479 1.460 . S
C475 H481 0.929 . S
N476 Mn469 2.257 . S
N476 C475 1.326 . S
N476 C480 1.362 . S
C477 C478 1.258 1_556 S
C477 C480 1.431 1_556 S
C477 C497 1.449 . S
C478 C477 1.258 1_554 S
C478 C479 1.477 . S
C478 H498 0.931 1_554 S
C479 C475 1.460 . S
C479 C478 1.477 . S
C479 H499 0.930 . S
C480 N476 1.362 . S
C480 C477 1.431 1_554 S
C480 C490 1.476 . S
H481 C475 0.929 . S
C482 O473 1.250 . S
C482 O474 1.258 . S
O483 Mn468 2.162 . S
O483 C471 1.281 . S
O484 Mn468 2.297 . S
O484 C471 1.236 . S
N485 Mn469 2.282 . S
N485 C486 1.328 . S
N485 C490 1.318 . S
C486 N485 1.328 . S
C486 C487 1.457 1_554 S
C486 H491 0.929 . S
C487 C486 1.457 1_556 S
C487 C488 1.291 . S
C487 H500 0.931 . S
C488 C487 1.291 . S
C488 C489 1.373 . S
C488 H501 0.929 . S
C489 C488 1.373 . S
C489 C490 1.396 1_556 S
C489 C496 1.403 . S
C490 C480 1.476 . S
C490 N485 1.318 . S
C490 C489 1.396 1_554 S
H491 C486 0.929 . S
O492 Mn468 2.385 . S
O492 C470 1.234 . S
O493 Mn468 2.209 . S
O493 Mn469 2.215 . S
O493 C470 1.283 . S
O494 Mn468 2.094 . S
O494 C472 1.240 . S
O495 Mn469 2.117 . S
O495 C472 1.264 . S
C496 C489 1.403 . S
C496 C497 1.399 . S
C496 H502 0.929 . S
C497 C477 1.449 . S
C497 C496 1.399 . S
C497 H503 0.930 . S
H498 C478 0.931 1_556 S
H499 C479 0.930 . S
H500 C487 0.931 . S
H501 C488 0.929 . S
H502 C496 0.929 . S
H503 C497 0.930 . S
Mn504 O509 2.095 . S
Mn504 O519 2.162 . S
Mn504 O520 2.297 . S
Mn504 O528 2.385 1_554 S
Mn504 O529 2.209 1_554 S
Mn504 O530 2.090 1_554 S
Mn505 O510 2.121 . S
Mn505 N512 2.257 . S
Mn505 N521 2.282 . S
Mn505 O529 2.215 . S
Mn505 O531 2.117 . S
C506 O528 1.234 . S
C506 O529 1.283 . S
C507 O519 1.281 . S
C507 O520 1.236 . S
C508 O530 1.254 . S
C508 O531 1.264 . S
O509 Mn504 2.095 . S
O509 C518 1.250 . S
O510 Mn505 2.121 . S
O510 C518 1.258 1_556 S
C511 N512 1.326 . S
C511 C515 1.460 . S
C511 H517 0.929 . S
N512 Mn505 2.257 . S
N512 C511 1.326 . S
N512 C516 1.362 . S
C513 C514 1.258 . S
C513 C516 1.431 . S
C513 C533 1.449 . S
C514 C513 1.258 . S
C514 C515 1.477 . S
C514 H534 0.931 . S
C515 C511 1.460 . S
C515 C514 1.477 . S
C515 H535 0.930 . S
C516 N512 1.362 . S
C516 C513 1.431 . S
C516 C526 1.476 . S
H517 C511 0.929 . S
C518 O509 1.250 . S
C518 O510 1.258 1_554 S
O519 Mn504 2.162 . S
O519 C507 1.281 . S
O520 Mn504 2.297 . S
O520 C507 1.236 . S
N521 Mn505 2.282 . S
N521 C522 1.328 . S
N521 C526 1.318 . S
C522 N521 1.328 . S
C522 C523 1.457 . S
C522 H527 0.929 . S
C523 C522 1.457 . S
C523 C524 1.291 . S
C523 H536 0.931 . S
C524 C523 1.291 . S
C524 C525 1.373 . S
C524 H537 0.929 . S
C525 C524 1.373 . S
C525 C526 1.396 . S
C525 C532 1.403 . S
C526 C516 1.476 . S
C526 N521 1.318 . S
C526 C525 1.396 . S
H527 C522 0.929 . S
O528 Mn504 2.385 1_556 S
O528 C506 1.234 . S
O529 Mn504 2.209 1_556 S
O529 Mn505 2.215 . S
O529 C506 1.283 . S
O530 Mn504 2.090 1_556 S
O530 C508 1.254 . S
O531 Mn505 2.117 . S
O531 C508 1.264 . S
C532 C525 1.403 . S
C532 C533 1.399 . S
C532 H538 0.929 . S
C533 C513 1.449 . S
C533 C532 1.399 . S
C533 H539 0.930 . S
H534 C514 0.931 . S
H535 C515 0.930 . S
H536 C523 0.931 . S
H537 C524 0.929 . S
H538 C532 0.929 . S
H539 C533 0.930 . S
Mn540 O545 2.095 . S
Mn540 O555 2.162 . S
Mn540 O556 2.297 . S
Mn540 O564 2.385 . S
Mn540 O565 2.209 . S
Mn540 O566 2.094 . S
Mn541 O546 2.121 . S
Mn541 N548 2.257 . S
Mn541 N557 2.282 . S
Mn541 O565 2.215 . S
Mn541 O567 2.117 . S
C542 O564 1.234 . S
C542 O565 1.283 . S
C543 O555 1.281 . S
C543 O556 1.236 . S
C544 O566 1.240 . S
C544 O567 1.264 . S
O545 Mn540 2.095 . S
O545 C554 1.250 . S
O546 Mn541 2.121 . S
O546 C554 1.258 . S
C547 N548 1.326 . S
C547 C551 1.460 . S
C547 H553 0.929 . S
N548 Mn541 2.257 . S
N548 C547 1.326 . S
N548 C552 1.362 . S
C549 C550 1.258 . S
C549 C552 1.431 1_554 S
C549 C569 1.449 . S
C550 C549 1.258 . S
C550 C551 1.477 1_554 S
C550 H570 0.931 . S
C551 C547 1.460 . S
C551 C550 1.477 1_556 S
C551 H571 0.930 . S
C552 N548 1.362 . S
C552 C549 1.431 1_556 S
C552 C562 1.476 1_556 S
H553 C547 0.929 . S
C554 O545 1.250 . S
C554 O546 1.258 . S
O555 Mn540 2.162 . S
O555 C543 1.281 . S
O556 Mn540 2.297 . S
O556 C543 1.236 . S
N557 Mn541 2.282 . S
N557 C558 1.328 . S
N557 C562 1.318 1_556 S
C558 N557 1.328 . S
C558 C559 1.457 1_556 S
C558 H563 0.929 . S
C559 C558 1.457 1_554 S
C559 C560 1.291 . S
C559 H572 0.931 . S
C560 C559 1.291 . S
C560 C561 1.373 . S
C560 H573 0.929 . S
C561 C560 1.373 . S
C561 C562 1.396 . S
C561 C568 1.403 . S
C562 C552 1.476 1_554 S
C562 N557 1.318 1_554 S
C562 C561 1.396 . S
H563 C558 0.929 . S
O564 Mn540 2.385 . S
O564 C542 1.234 . S
O565 Mn540 2.209 . S
O565 Mn541 2.215 . S
O565 C542 1.283 . S
O566 Mn540 2.094 . S
O566 C544 1.240 . S
O567 Mn541 2.117 . S
O567 C544 1.264 . S
C568 C561 1.403 . S
C568 C569 1.399 . S
C568 H574 0.929 . S
C569 C549 1.449 . S
C569 C568 1.399 . S
C569 H575 0.930 . S
H570 C550 0.931 . S
H571 C551 0.930 . S
H572 C559 0.931 . S
H573 C560 0.929 . S
H574 C568 0.929 . S
H575 C569 0.930 . S
C576 C577 1.391 . S
C576 C578 1.394 . S
C576 H592 0.931 . S
C577 C576 1.391 . S
C577 C581 1.376 . S
C578 C576 1.394 . S
C578 C579 1.369 . S
C578 C582 1.531 . S
C579 C578 1.369 . S
C579 C580 1.410 . S
C579 C587 1.503 . S
C580 C579 1.410 . S
C580 C581 1.392 . S
C580 C583 1.511 . S
C581 C577 1.376 . S
C581 C580 1.392 . S
C581 H593 0.929 . S
C582 C578 1.531 . S
C582 H594 0.960 . S
C582 H595 0.962 . S
C582 H596 0.960 . S
C583 C580 1.511 . S
C583 H597 0.961 . S
C583 H598 0.961 . S
C583 H599 0.961 . S
C584 C585 1.370 . S
C584 C586 1.363 . S
C584 H600 0.931 . S
C585 C584 1.370 . S
C585 C589 1.408 . S
C586 C584 1.363 . S
C586 C587 1.370 . S
C586 C590 1.524 . S
C587 C579 1.503 . S
C587 C586 1.370 . S
C587 C588 1.403 . S
C588 C587 1.403 . S
C588 C589 1.404 . S
C588 C591 1.539 . S
C589 C585 1.408 . S
C589 C588 1.404 . S
C589 H601 0.930 . S
C590 C586 1.524 . S
C590 H602 0.956 . S
C590 H603 0.961 . S
C590 H604 0.961 . S
C591 C588 1.539 . S
C591 H605 0.958 . S
C591 H606 0.961 . S
C591 H607 0.960 . S
H592 C576 0.931 . S
H593 C581 0.929 . S
H594 C582 0.960 . S
H595 C582 0.962 . S
H596 C582 0.960 . S
H597 C583 0.961 . S
H598 C583 0.961 . S
H599 C583 0.961 . S
H600 C584 0.931 . S
H601 C589 0.930 . S
H602 C590 0.956 . S
H603 C590 0.961 . S
H604 C590 0.961 . S
H605 C591 0.958 . S
H606 C591 0.961 . S
H607 C591 0.960 . S
C608 C609 1.391 . S
C608 C610 1.394 . S
C608 H624 0.931 . S
C609 C608 1.391 . S
C609 C613 1.376 1_545 S
C610 C608 1.394 . S
C610 C611 1.369 . S
C610 C614 1.531 . S
C611 C610 1.369 . S
C611 C612 1.410 1_545 S
C611 C619 1.503 1_655 S
C612 C611 1.410 1_565 S
C612 C613 1.392 . S
C612 C615 1.511 1_655 S
C613 C609 1.376 1_565 S
C613 C612 1.392 . S
C613 H625 0.929 . S
C614 C610 1.531 . S
C614 H626 0.960 . S
C614 H627 0.962 . S
C614 H628 0.960 . S
C615 C612 1.511 1_455 S
C615 H629 0.961 . S
C615 H630 0.961 . S
C615 H631 0.961 . S
C616 C617 1.370 . S
C616 C618 1.363 . S
C616 H632 0.931 . S
C617 C616 1.370 . S
C617 C621 1.408 1_545 S
C618 C616 1.363 . S
C618 C619 1.370 . S
C618 C622 1.524 . S
C619 C611 1.503 1_455 S
C619 C618 1.370 . S
C619 C620 1.403 1_545 S
C620 C619 1.403 1_565 S
C620 C621 1.404 . S
C620 C623 1.539 1_455 S
C621 C617 1.408 1_565 S
C621 C620 1.404 . S
C621 H633 0.930 . S
C622 C618 1.524 . S
C622 H634 0.956 . S
C622 H635 0.961 . S
C622 H636 0.961 . S
C623 C620 1.539 1_655 S
C623 H637 0.958 . S
C623 H638 0.961 . S
C623 H639 0.960 . S
H624 C608 0.931 . S
H625 C613 0.929 . S
H626 C614 0.960 . S
H627 C614 0.962 . S
H628 C614 0.960 . S
H629 C615 0.961 . S
H630 C615 0.961 . S
H631 C615 0.961 . S
H632 C616 0.931 . S
H633 C621 0.930 . S
H634 C622 0.956 . S
H635 C622 0.961 . S
H636 C622 0.961 . S
H637 C623 0.958 . S
H638 C623 0.961 . S
H639 C623 0.960 . S
C640 C641 1.391 . S
C640 C642 1.394 . S
C640 H656 0.931 . S
C641 C640 1.391 . S
C641 C645 1.376 . S
C642 C640 1.394 . S
C642 C643 1.369 . S
C642 C646 1.531 . S
C643 C642 1.369 . S
C643 C644 1.410 . S
C643 C651 1.503 . S
C644 C643 1.410 . S
C644 C645 1.392 . S
C644 C647 1.511 . S
C645 C641 1.376 . S
C645 C644 1.392 . S
C645 H657 0.929 . S
C646 C642 1.531 . S
C646 H658 0.960 . S
C646 H659 0.962 . S
C646 H660 0.960 . S
C647 C644 1.511 . S
C647 H661 0.961 . S
C647 H662 0.961 . S
C647 H663 0.961 . S
C648 C649 1.370 . S
C648 C650 1.363 . S
C648 H664 0.931 . S
C649 C648 1.370 . S
C649 C653 1.408 . S
C650 C648 1.363 . S
C650 C651 1.370 . S
C650 C654 1.524 . S
C651 C643 1.503 . S
C651 C650 1.370 . S
C651 C652 1.403 . S
C652 C651 1.403 . S
C652 C653 1.404 . S
C652 C655 1.539 . S
C653 C649 1.408 . S
C653 C652 1.404 . S
C653 H665 0.930 . S
C654 C650 1.524 . S
C654 H666 0.956 . S
C654 H667 0.961 . S
C654 H668 0.961 . S
C655 C652 1.539 . S
C655 H669 0.958 . S
C655 H670 0.961 . S
C655 H671 0.960 . S
H656 C640 0.931 . S
H657 C645 0.929 . S
H658 C646 0.960 . S
H659 C646 0.962 . S
H660 C646 0.960 . S
H661 C647 0.961 . S
H662 C647 0.961 . S
H663 C647 0.961 . S
H664 C648 0.931 . S
H665 C653 0.930 . S
H666 C654 0.956 . S
H667 C654 0.961 . S
H668 C654 0.961 . S
H669 C655 0.958 . S
H670 C655 0.961 . S
H671 C655 0.960 . S
C672 C673 1.391 1_565 S
C672 C674 1.394 . S
C672 H688 0.931 . S
C673 C672 1.391 1_545 S
C673 C677 1.376 . S
C674 C672 1.394 . S
C674 C675 1.369 1_565 S
C674 C678 1.531 1_554 S
C675 C674 1.369 1_545 S
C675 C676 1.410 . S
C675 C683 1.503 1_554 S
C676 C675 1.410 . S
C676 C677 1.392 . S
C676 C679 1.511 . S
C677 C673 1.376 . S
C677 C676 1.392 . S
C677 H689 0.929 . S
C678 C674 1.531 1_556 S
C678 H690 0.960 . S
C678 H691 0.962 1_556 S
C678 H692 0.960 . S
C679 C676 1.511 . S
C679 H693 0.961 . S
C679 H694 0.961 . S
C679 H695 0.961 . S
C680 C681 1.369 1_565 S
C680 C682 1.363 1_565 S
C680 H696 0.933 . S
C681 C680 1.369 1_545 S
C681 C685 1.408 . S
C682 C680 1.363 1_545 S
C682 C683 1.370 . S
C682 C686 1.524 1_546 S
C683 C675 1.503 1_556 S
C683 C682 1.370 . S
C683 C684 1.403 . S
C684 C683 1.403 . S
C684 C685 1.404 . S
C684 C687 1.539 . S
C685 C681 1.408 . S
C685 C684 1.404 . S
C685 H697 0.930 . S
C686 C682 1.524 1_564 S
C686 H698 0.956 . S
C686 H699 0.961 1_565 S
C686 H700 0.961 . S
C687 C684 1.539 . S
C687 H701 0.958 . S
C687 H702 0.961 . S
C687 H703 0.960 . S
H688 C672 0.931 . S
H689 C677 0.929 . S
H690 C678 0.960 . S
H691 C678 0.962 1_554 S
H692 C678 0.960 . S
H693 C679 0.961 . S
H694 C679 0.961 . S
H695 C679 0.961 . S
H696 C680 0.933 . S
H697 C685 0.930 . S
H698 C686 0.956 . S
H699 C686 0.961 1_545 S
H700 C686 0.961 . S
H701 C687 0.958 . S
H702 C687 0.961 . S
H703 C687 0.960 . S
C704 C705 1.391 . S
C704 C706 1.394 . S
C704 H720 0.931 . S
C705 C704 1.391 . S
C705 C709 1.376 . S
C706 C704 1.394 . S
C706 C707 1.369 . S
C706 C710 1.531 . S
C707 C706 1.369 . S
C707 C708 1.410 . S
C707 C715 1.503 . S
C708 C707 1.410 . S
C708 C709 1.392 . S
C708 C711 1.511 . S
C709 C705 1.376 . S
C709 C708 1.392 . S
C709 H721 0.929 . S
C710 C706 1.531 . S
C710 H722 0.960 . S
C710 H723 0.962 . S
C710 H724 0.960 . S
C711 C708 1.511 . S
C711 H725 0.961 . S
C711 H726 0.961 . S
C711 H727 0.961 . S
C712 C713 1.370 . S
C712 C714 1.363 . S
C712 H728 0.931 . S
C713 C712 1.370 . S
C713 C717 1.408 . S
C714 C712 1.363 . S
C714 C715 1.370 . S
C714 C718 1.524 . S
C715 C707 1.503 . S
C715 C714 1.370 . S
C715 C716 1.403 . S
C716 C715 1.403 . S
C716 C717 1.404 . S
C716 C719 1.539 . S
C717 C713 1.408 . S
C717 C716 1.404 . S
C717 H729 0.930 . S
C718 C714 1.524 . S
C718 H730 0.956 . S
C718 H731 0.961 . S
C718 H732 0.961 . S
C719 C716 1.539 . S
C719 H733 0.958 . S
C719 H734 0.961 . S
C719 H735 0.960 . S
H720 C704 0.931 . S
H721 C709 0.929 . S
H722 C710 0.960 . S
H723 C710 0.962 . S
H724 C710 0.960 . S
H725 C711 0.961 . S
H726 C711 0.961 . S
H727 C711 0.961 . S
H728 C712 0.931 . S
H729 C717 0.930 . S
H730 C718 0.956 . S
H731 C718 0.961 . S
H732 C718 0.961 . S
H733 C719 0.958 . S
H734 C719 0.961 . S
H735 C719 0.960 . S
C736 C737 1.391 1_565 S
C736 C738 1.394 . S
C736 H752 0.931 . S
C737 C736 1.391 1_545 S
C737 C741 1.376 . S
C738 C736 1.394 . S
C738 C739 1.369 1_565 S
C738 C742 1.531 . S
C739 C738 1.369 1_545 S
C739 C740 1.410 . S
C739 C747 1.503 . S
C740 C739 1.410 . S
C740 C741 1.392 . S
C740 C743 1.511 . S
C741 C737 1.376 . S
C741 C740 1.392 . S
C741 H753 0.929 . S
C742 C738 1.531 . S
C742 H754 0.960 . S
C742 H755 0.962 . S
C742 H756 0.960 . S
C743 C740 1.511 . S
C743 H757 0.961 . S
C743 H758 0.961 . S
C743 H759 0.961 . S
C744 C745 1.370 . S
C744 C746 1.363 . S
C744 H760 0.931 . S
C745 C744 1.370 . S
C745 C749 1.408 . S
C746 C744 1.363 . S
C746 C747 1.370 . S
C746 C750 1.524 . S
C747 C739 1.503 . S
C747 C746 1.370 . S
C747 C748 1.403 . S
C748 C747 1.403 . S
C748 C749 1.404 . S
C748 C751 1.539 . S
C749 C745 1.408 . S
C749 C748 1.404 . S
C749 H761 0.930 . S
C750 C746 1.524 . S
C750 H762 0.956 1_545 S
C750 H763 0.961 . S
C750 H764 0.961 . S
C751 C748 1.539 . S
C751 H765 0.958 1_545 S
C751 H766 0.961 . S
C751 H767 0.960 . S
H752 C736 0.931 . S
H753 C741 0.929 . S
H754 C742 0.960 . S
H755 C742 0.962 . S
H756 C742 0.960 . S
H757 C743 0.961 . S
H758 C743 0.961 . S
H759 C743 0.961 . S
H760 C744 0.931 . S
H761 C749 0.930 . S
H762 C750 0.956 1_565 S
H763 C750 0.961 . S
H764 C750 0.961 . S
H765 C751 0.958 1_565 S
H766 C751 0.961 . S
H767 C751 0.960 . S
C768 C769 1.391 . S
C768 C770 1.394 . S
C768 H784 0.931 . S
C769 C768 1.391 . S
C769 C773 1.376 . S
C770 C768 1.394 . S
C770 C771 1.369 . S
C770 C774 1.531 . S
C771 C770 1.369 . S
C771 C772 1.410 . S
C771 C779 1.503 . S
C772 C771 1.410 . S
C772 C773 1.392 . S
C772 C775 1.511 . S
C773 C769 1.376 . S
C773 C772 1.392 . S
C773 H785 0.929 . S
C774 C770 1.531 . S
C774 H786 0.960 . S
C774 H787 0.962 . S
C774 H788 0.960 . S
C775 C772 1.511 . S
C775 H789 0.961 . S
C775 H790 0.961 . S
C775 H791 0.961 . S
C776 C777 1.370 . S
C776 C778 1.363 . S
C776 H792 0.931 . S
C777 C776 1.370 . S
C777 C781 1.408 . S
C778 C776 1.363 . S
C778 C779 1.370 . S
C778 C782 1.524 . S
C779 C771 1.503 . S
C779 C778 1.370 . S
C779 C780 1.403 . S
C780 C779 1.403 . S
C780 C781 1.404 . S
C780 C783 1.539 . S
C781 C777 1.408 . S
C781 C780 1.404 . S
C781 H793 0.930 . S
C782 C778 1.524 . S
C782 H794 0.956 . S
C782 H795 0.961 . S
C782 H796 0.961 . S
C783 C780 1.539 . S
C783 H797 0.958 . S
C783 H798 0.961 . S
C783 H799 0.960 . S
H784 C768 0.931 . S
H785 C773 0.929 . S
H786 C774 0.960 . S
H787 C774 0.962 . S
H788 C774 0.960 . S
H789 C775 0.961 . S
H790 C775 0.961 . S
H791 C775 0.961 . S
H792 C776 0.931 . S
H793 C781 0.930 . S
H794 C782 0.956 . S
H795 C782 0.961 . S
H796 C782 0.961 . S
H797 C783 0.958 . S
H798 C783 0.961 . S
H799 C783 0.960 . S
C800 C801 1.391 . S
C800 C802 1.404 . S
C800 H816 0.931 . S
C801 C800 1.391 . S
C801 C805 1.376 . S
C802 C800 1.404 . S
C802 C803 1.371 . S
C802 C806 1.519 1_556 S
C803 C802 1.371 . S
C803 C804 1.410 1_455 S
C803 C811 1.503 1_456 S
C804 C803 1.410 1_655 S
C804 C805 1.392 1_655 S
C804 C807 1.511 1_545 S
C805 C801 1.376 . S
C805 C804 1.392 1_455 S
C805 H817 0.938 . S
C806 C802 1.519 1_554 S
C806 H818 0.960 . S
C806 H819 0.962 . S
C806 H820 0.960 . S
C807 C804 1.511 1_565 S
C807 H821 0.961 . S
C807 H822 0.961 . S
C807 H823 0.961 1_565 S
C808 C809 1.370 1_565 S
C808 C810 1.363 . S
C808 H824 0.931 . S
C809 C808 1.370 1_545 S
C809 C813 1.408 . S
C810 C808 1.363 . S
C810 C811 1.370 1_565 S
C810 C814 1.524 1_655 S
C811 C803 1.503 1_654 S
C811 C810 1.370 1_545 S
C811 C812 1.403 . S
C812 C811 1.403 . S
C812 C813 1.404 . S
C812 C815 1.539 . S
C813 C809 1.408 . S
C813 C812 1.404 . S
C813 H825 0.930 . S
C814 C810 1.524 1_455 S
C814 H826 0.956 . S
C814 H827 0.961 . S
C814 H828 0.961 . S
C815 C812 1.539 . S
C815 H829 0.958 . S
C815 H830 0.961 . S
C815 H831 0.960 1_554 S
H816 C800 0.931 . S
H817 C805 0.938 . S
H818 C806 0.960 . S
H819 C806 0.962 . S
H820 C806 0.960 . S
H821 C807 0.961 . S
H822 C807 0.961 . S
H823 C807 0.961 1_545 S
H824 C808 0.931 . S
H825 C813 0.930 . S
H826 C814 0.956 . S
H827 C814 0.961 . S
H828 C814 0.961 . S
H829 C815 0.958 . S
H830 C815 0.961 . S
H831 C815 0.960 1_556 S
C832 C833 1.391 . S
C832 C834 1.394 . S
C832 H848 0.931 . S
C833 C832 1.391 . S
C833 C837 1.376 . S
C834 C832 1.394 . S
C834 C835 1.369 . S
C834 C838 1.531 . S
C835 C834 1.369 . S
C835 C836 1.410 . S
C835 C843 1.503 . S
C836 C835 1.410 . S
C836 C837 1.392 . S
C836 C839 1.511 . S
C837 C833 1.376 . S
C837 C836 1.392 . S
C837 H849 0.929 . S
C838 C834 1.531 . S
C838 H850 0.960 . S
C838 H851 0.962 . S
C838 H852 0.960 . S
C839 C836 1.511 . S
C839 H853 0.961 . S
C839 H854 0.961 . S
C839 H855 0.961 . S
C840 C841 1.370 . S
C840 C842 1.363 . S
C840 H856 0.931 . S
C841 C840 1.370 . S
C841 C845 1.408 . S
C842 C840 1.363 . S
C842 C843 1.370 . S
C842 C846 1.524 . S
C843 C835 1.503 . S
C843 C842 1.370 . S
C843 C844 1.403 . S
C844 C843 1.403 . S
C844 C845 1.404 . S
C844 C847 1.539 . S
C845 C841 1.408 . S
C845 C844 1.404 . S
C845 H857 0.930 . S
C846 C842 1.524 . S
C846 H858 0.956 . S
C846 H859 0.961 . S
C846 H860 0.961 . S
C847 C844 1.539 . S
C847 H861 0.958 . S
C847 H862 0.961 . S
C847 H863 0.960 . S
H848 C832 0.931 . S
H849 C837 0.929 . S
H850 C838 0.960 . S
H851 C838 0.962 . S
H852 C838 0.960 . S
H853 C839 0.961 . S
H854 C839 0.961 . S
H855 C839 0.961 . S
H856 C840 0.931 . S
H857 C845 0.930 . S
H858 C846 0.956 . S
H859 C846 0.961 . S
H860 C846 0.961 . S
H861 C847 0.958 . S
H862 C847 0.961 . S
H863 C847 0.960 . S
C864 C865 1.391 . S
C864 C866 1.394 . S
C864 H880 0.931 . S
C865 C864 1.391 . S
C865 C869 1.376 . S
C866 C864 1.394 . S
C866 C867 1.369 . S
C866 C870 1.531 . S
C867 C866 1.369 . S
C867 C868 1.410 . S
C867 C875 1.503 . S
C868 C867 1.410 . S
C868 C869 1.392 . S
C868 C871 1.511 . S
C869 C865 1.376 . S
C869 C868 1.392 . S
C869 H881 0.929 . S
C870 C866 1.531 . S
C870 H882 0.960 . S
C870 H883 0.962 . S
C870 H884 0.960 . S
C871 C868 1.511 . S
C871 H885 0.961 . S
C871 H886 0.961 . S
C871 H887 0.961 . S
C872 C873 1.370 . S
C872 C874 1.363 . S
C872 H888 0.931 . S
C873 C872 1.370 . S
C873 C877 1.408 . S
C874 C872 1.363 . S
C874 C875 1.370 . S
C874 C878 1.524 . S
C875 C867 1.503 . S
C875 C874 1.370 . S
C875 C876 1.403 . S
C876 C875 1.403 . S
C876 C877 1.404 . S
C876 C879 1.539 . S
C877 C873 1.408 . S
C877 C876 1.404 . S
C877 H889 0.930 . S
C878 C874 1.524 . S
C878 H890 0.956 . S
C878 H891 0.961 . S
C878 H892 0.961 . S
C879 C876 1.539 . S
C879 H893 0.958 . S
C879 H894 0.961 . S
C879 H895 0.960 . S
H880 C864 0.931 . S
H881 C869 0.929 . S
H882 C870 0.960 . S
H883 C870 0.962 . S
H884 C870 0.960 . S
H885 C871 0.961 . S
H886 C871 0.961 . S
H887 C871 0.961 . S
H888 C872 0.931 . S
H889 C877 0.930 . S
H890 C878 0.956 . S
H891 C878 0.961 . S
H892 C878 0.961 . S
H893 C879 0.958 . S
H894 C879 0.961 . S
H895 C879 0.960 . S
C896 C897 1.391 . S
C896 C898 1.394 . S
C896 H912 0.931 . S
C897 C896 1.391 . S
C897 C901 1.376 . S
C898 C896 1.394 . S
C898 C899 1.369 . S
C898 C902 1.531 . S
C899 C898 1.369 . S
C899 C900 1.410 . S
C899 C907 1.503 . S
C900 C899 1.410 . S
C900 C901 1.392 . S
C900 C903 1.511 . S
C901 C897 1.376 . S
C901 C900 1.392 . S
C901 H913 0.929 . S
C902 C898 1.531 . S
C902 H914 0.960 . S
C902 H915 0.962 . S
C902 H916 0.960 . S
C903 C900 1.511 . S
C903 H917 0.961 . S
C903 H918 0.961 . S
C903 H919 0.961 . S
C904 C905 1.370 . S
C904 C906 1.363 . S
C904 H920 0.931 . S
C905 C904 1.370 . S
C905 C909 1.408 . S
C906 C904 1.363 . S
C906 C907 1.370 . S
C906 C910 1.524 . S
C907 C899 1.503 . S
C907 C906 1.370 . S
C907 C908 1.403 . S
C908 C907 1.403 . S
C908 C909 1.404 . S
C908 C911 1.539 . S
C909 C905 1.408 . S
C909 C908 1.404 . S
C909 H921 0.930 . S
C910 C906 1.524 . S
C910 H922 0.956 . S
C910 H923 0.961 . S
C910 H924 0.961 . S
C911 C908 1.539 . S
C911 H925 0.958 . S
C911 H926 0.961 . S
C911 H927 0.960 . S
H912 C896 0.931 . S
H913 C901 0.929 . S
H914 C902 0.960 . S
H915 C902 0.962 . S
H916 C902 0.960 . S
H917 C903 0.961 . S
H918 C903 0.961 . S
H919 C903 0.961 . S
H920 C904 0.931 . S
H921 C909 0.930 . S
H922 C910 0.956 . S
H923 C910 0.961 . S
H924 C910 0.961 . S
H925 C911 0.958 . S
H926 C911 0.961 . S
H927 C911 0.960 . S
C928 C929 1.391 . S
C928 C930 1.394 . S
C928 H944 0.931 . S
C929 C928 1.391 . S
C929 C933 1.376 . S
C930 C928 1.394 . S
C930 C931 1.369 . S
C930 C934 1.531 . S
C931 C930 1.369 . S
C931 C932 1.410 . S
C931 C939 1.503 . S
C932 C931 1.410 . S
C932 C933 1.392 . S
C932 C935 1.511 . S
C933 C929 1.376 . S
C933 C932 1.392 . S
C933 H945 0.929 . S
C934 C930 1.531 . S
C934 H946 0.960 . S
C934 H947 0.962 . S
C934 H948 0.960 . S
C935 C932 1.511 . S
C935 H949 0.961 . S
C935 H950 0.961 . S
C935 H951 0.961 . S
C936 C937 1.370 . S
C936 C938 1.363 . S
C936 H952 0.931 . S
C937 C936 1.370 . S
C937 C941 1.408 . S
C938 C936 1.363 . S
C938 C939 1.370 . S
C938 C942 1.524 . S
C939 C931 1.503 . S
C939 C938 1.370 . S
C939 C940 1.403 . S
C940 C939 1.403 . S
C940 C941 1.404 . S
C940 C943 1.539 . S
C941 C937 1.408 . S
C941 C940 1.404 . S
C941 H953 0.930 . S
C942 C938 1.524 . S
C942 H954 0.956 . S
C942 H955 0.961 . S
C942 H956 0.961 . S
C943 C940 1.539 . S
C943 H957 0.958 . S
C943 H958 0.961 . S
C943 H959 0.960 . S
H944 C928 0.931 . S
H945 C933 0.929 . S
H946 C934 0.960 . S
H947 C934 0.962 . S
H948 C934 0.960 . S
H949 C935 0.961 . S
H950 C935 0.961 . S
H951 C935 0.961 . S
H952 C936 0.931 . S
H953 C941 0.930 . S
H954 C942 0.956 . S
H955 C942 0.961 . S
H956 C942 0.961 . S
H957 C943 0.958 . S
H958 C943 0.961 . S
H959 C943 0.960 . S
C960 C961 1.391 . S
C960 C962 1.394 . S
C960 H976 0.931 . S
C961 C960 1.391 . S
C961 C965 1.376 . S
C962 C960 1.394 . S
C962 C963 1.369 . S
C962 C966 1.531 . S
C963 C962 1.369 . S
C963 C964 1.410 . S
C963 C971 1.503 1_554 S
C964 C963 1.410 . S
C964 C965 1.392 . S
C964 C967 1.511 1_554 S
C965 C961 1.376 . S
C965 C964 1.392 . S
C965 H977 0.929 . S
C966 C962 1.531 . S
C966 H978 0.960 . S
C966 H979 0.962 . S
C966 H980 0.960 . S
C967 C964 1.511 1_556 S
C967 H981 0.961 . S
C967 H982 0.961 . S
C967 H983 0.961 1_556 S
C968 C969 1.370 . S
C968 C970 1.363 . S
C968 H984 0.931 . S
C969 C968 1.370 . S
C969 C973 1.408 . S
C970 C968 1.363 . S
C970 C971 1.370 . S
C970 C974 1.524 . S
C971 C963 1.503 1_556 S
C971 C970 1.370 . S
C971 C972 1.403 . S
C972 C971 1.403 . S
C972 C973 1.404 . S
C972 C975 1.539 1_556 S
C973 C969 1.408 . S
C973 C972 1.404 . S
C973 H985 0.930 . S
C974 C970 1.524 . S
C974 H986 0.956 . S
C974 H987 0.961 . S
C974 H988 0.961 . S
C975 C972 1.539 1_554 S
C975 H989 0.958 . S
C975 H990 0.961 . S
C975 H991 0.960 . S
H976 C960 0.931 . S
H977 C965 0.929 . S
H978 C966 0.960 . S
H979 C966 0.962 . S
H980 C966 0.960 . S
H981 C967 0.961 . S
H982 C967 0.961 . S
H983 C967 0.961 1_554 S
H984 C968 0.931 . S
H985 C973 0.930 . S
H986 C974 0.956 . S
H987 C974 0.961 . S
H988 C974 0.961 . S
H989 C975 0.958 . S
H990 C975 0.961 . S
H991 C975 0.960 . S
C992 C993 1.391 . S
C992 C994 1.394 . S
C992 H1008 0.931 . S
C993 C992 1.391 . S
C993 C997 1.376 . S
C994 C992 1.394 . S
C994 C995 1.369 . S
C994 C998 1.531 . S
C995 C994 1.369 . S
C995 C996 1.410 . S
C995 C1003 1.503 1_455 S
C996 C995 1.410 . S
C996 C997 1.392 . S
C996 C999 1.511 1_455 S
C997 C993 1.376 . S
C997 C996 1.392 . S
C997 H1009 0.929 . S
C998 C994 1.531 . S
C998 H1010 0.960 . S
C998 H1011 0.962 . S
C998 H1012 0.960 . S
C999 C996 1.511 1_655 S
C999 H1013 0.961 . S
C999 H1014 0.961 . S
C999 H1015 0.961 . S
C1000 C1001 1.370 . S
C1000 C1002 1.363 . S
C1000 H1016 0.931 . S
C1001 C1000 1.370 . S
C1001 C1005 1.408 . S
C1002 C1000 1.363 . S
C1002 C1003 1.370 . S
C1002 C1006 1.524 . S
C1003 C995 1.503 1_655 S
C1003 C1002 1.370 . S
C1003 C1004 1.403 . S
C1004 C1003 1.403 . S
C1004 C1005 1.404 . S
C1004 C1007 1.539 1_655 S
C1005 C1001 1.408 . S
C1005 C1004 1.404 . S
C1005 H1017 0.930 . S
C1006 C1002 1.524 . S
C1006 H1018 0.956 . S
C1006 H1019 0.961 . S
C1006 H1020 0.961 . S
C1007 C1004 1.539 1_455 S
C1007 H1021 0.958 . S
C1007 H1022 0.961 1_455 S
C1007 H1023 0.960 . S
H1008 C992 0.931 . S
H1009 C997 0.929 . S
H1010 C998 0.960 . S
H1011 C998 0.962 . S
H1012 C998 0.960 . S
H1013 C999 0.961 . S
H1014 C999 0.961 . S
H1015 C999 0.961 . S
H1016 C1000 0.931 . S
H1017 C1005 0.930 . S
H1018 C1006 0.956 . S
H1019 C1006 0.961 . S
H1020 C1006 0.961 . S
H1021 C1007 0.958 . S
H1022 C1007 0.961 1_655 S
H1023 C1007 0.960 . S
C1024 C1025 1.391 . S
C1024 C1026 1.394 . S
C1024 H1040 0.931 . S
C1025 C1024 1.391 . S
C1025 C1029 1.376 . S
C1026 C1024 1.394 . S
C1026 C1027 1.369 . S
C1026 C1030 1.531 1_455 S
C1027 C1026 1.369 . S
C1027 C1028 1.410 . S
C1027 C1035 1.503 1_454 S
C1028 C1027 1.410 . S
C1028 C1029 1.392 . S
C1028 C1031 1.511 1_554 S
C1029 C1025 1.376 . S
C1029 C1028 1.392 . S
C1029 H1041 0.929 . S
C1030 C1026 1.531 1_655 S
C1030 H1042 0.960 . S
C1030 H1043 0.962 . S
C1030 H1044 0.960 . S
C1031 C1028 1.511 1_556 S
C1031 H1045 0.961 . S
C1031 H1046 0.961 . S
C1031 H1047 0.961 . S
C1032 C1033 1.370 . S
C1032 C1034 1.363 . S
C1032 H1048 0.931 . S
C1033 C1032 1.370 . S
C1033 C1037 1.408 . S
C1034 C1032 1.363 . S
C1034 C1035 1.370 . S
C1034 C1038 1.524 1_655 S
C1035 C1027 1.503 1_656 S
C1035 C1034 1.370 . S
C1035 C1036 1.403 . S
C1036 C1035 1.403 . S
C1036 C1037 1.404 . S
C1036 C1039 1.539 1_556 S
C1037 C1033 1.408 . S
C1037 C1036 1.404 . S
C1037 H1049 0.930 . S
C1038 C1034 1.524 1_455 S
C1038 H1050 0.956 . S
C1038 H1051 0.961 . S
C1038 H1052 0.961 . S
C1039 C1036 1.539 1_554 S
C1039 H1053 0.958 . S
C1039 H1054 0.961 . S
C1039 H1055 0.960 . S
H1040 C1024 0.931 . S
H1041 C1029 0.929 . S
H1042 C1030 0.960 . S
H1043 C1030 0.962 . S
H1044 C1030 0.960 . S
H1045 C1031 0.961 . S
H1046 C1031 0.961 . S
H1047 C1031 0.961 . S
H1048 C1032 0.931 . S
H1049 C1037 0.930 . S
H1050 C1038 0.956 . S
H1051 C1038 0.961 . S
H1052 C1038 0.961 . S
H1053 C1039 0.958 . S
H1054 C1039 0.961 . S
H1055 C1039 0.960 . S
C1056 C1057 1.391 . S
C1056 C1058 1.394 . S
C1056 H1072 0.931 . S
C1057 C1056 1.391 . S
C1057 C1061 1.376 . S
C1058 C1056 1.394 . S
C1058 C1059 1.369 . S
C1058 C1062 1.531 . S
C1059 C1058 1.369 . S
C1059 C1060 1.410 . S
C1059 C1067 1.503 . S
C1060 C1059 1.410 . S
C1060 C1061 1.392 . S
C1060 C1063 1.511 . S
C1061 C1057 1.376 . S
C1061 C1060 1.392 . S
C1061 H1073 0.929 . S
C1062 C1058 1.531 . S
C1062 H1074 0.960 . S
C1062 H1075 0.962 . S
C1062 H1076 0.960 . S
C1063 C1060 1.511 . S
C1063 H1077 0.961 . S
C1063 H1078 0.961 . S
C1063 H1079 0.961 . S
C1064 C1065 1.370 . S
C1064 C1066 1.363 . S
C1064 H1080 0.931 . S
C1065 C1064 1.370 . S
C1065 C1069 1.408 . S
C1066 C1064 1.363 . S
C1066 C1067 1.370 . S
C1066 C1070 1.524 . S
C1067 C1059 1.503 . S
C1067 C1066 1.370 . S
C1067 C1068 1.403 . S
C1068 C1067 1.403 . S
C1068 C1069 1.404 . S
C1068 C1071 1.539 . S
C1069 C1065 1.408 . S
C1069 C1068 1.404 . S
C1069 H1081 0.930 . S
C1070 C1066 1.524 . S
C1070 H1082 0.956 . S
C1070 H1083 0.961 . S
C1070 H1084 0.961 . S
C1071 C1068 1.539 . S
C1071 H1085 0.958 . S
C1071 H1086 0.961 . S
C1071 H1087 0.960 . S
H1072 C1056 0.931 . S
H1073 C1061 0.929 . S
H1074 C1062 0.960 . S
H1075 C1062 0.962 . S
H1076 C1062 0.960 . S
H1077 C1063 0.961 . S
H1078 C1063 0.961 . S
H1079 C1063 0.961 . S
H1080 C1064 0.931 . S
H1081 C1069 0.930 . S
H1082 C1070 0.956 . S
H1083 C1070 0.961 . S
H1084 C1070 0.961 . S
H1085 C1071 0.958 . S
H1086 C1071 0.961 . S
H1087 C1071 0.960 . S
C1088 C1089 1.391 . S
C1088 C1090 1.394 . S
C1088 H1104 0.931 . S
C1089 C1088 1.391 . S
C1089 C1093 1.376 . S
C1090 C1088 1.394 . S
C1090 C1091 1.369 . S
C1090 C1094 1.531 . S
C1091 C1090 1.369 . S
C1091 C1092 1.410 . S
C1091 C1099 1.503 . S
C1092 C1091 1.410 . S
C1092 C1093 1.392 . S
C1092 C1095 1.511 . S
C1093 C1089 1.376 . S
C1093 C1092 1.392 . S
C1093 H1105 0.929 . S
C1094 C1090 1.531 . S
C1094 H1106 0.960 . S
C1094 H1107 0.962 . S
C1094 H1108 0.960 . S
C1095 C1092 1.511 . S
C1095 H1109 0.961 . S
C1095 H1110 0.961 . S
C1095 H1111 0.961 . S
C1096 C1097 1.370 . S
C1096 C1098 1.363 . S
C1096 H1112 0.931 . S
C1097 C1096 1.370 . S
C1097 C1101 1.408 . S
C1098 C1096 1.363 . S
C1098 C1099 1.370 . S
C1098 C1102 1.524 . S
C1099 C1091 1.503 . S
C1099 C1098 1.370 . S
C1099 C1100 1.403 . S
C1100 C1099 1.403 . S
C1100 C1101 1.404 . S
C1100 C1103 1.539 . S
C1101 C1097 1.408 . S
C1101 C1100 1.404 . S
C1101 H1113 0.930 1_554 S
C1102 C1098 1.524 . S
C1102 H1114 0.956 . S
C1102 H1115 0.961 . S
C1102 H1116 0.961 . S
C1103 C1100 1.539 . S
C1103 H1117 0.958 1_554 S
C1103 H1118 0.961 1_554 S
C1103 H1119 0.960 . S
H1104 C1088 0.931 . S
H1105 C1093 0.929 . S
H1106 C1094 0.960 . S
H1107 C1094 0.962 . S
H1108 C1094 0.960 . S
H1109 C1095 0.961 . S
H1110 C1095 0.961 . S
H1111 C1095 0.961 . S
H1112 C1096 0.931 . S
H1113 C1101 0.930 1_556 S
H1114 C1102 0.956 . S
H1115 C1102 0.961 . S
H1116 C1102 0.961 . S
H1117 C1103 0.958 1_556 S
H1118 C1103 0.961 1_556 S
H1119 C1103 0.960 . S
C1120 C1121 1.391 . S
C1120 C1122 1.394 . S
C1120 H1136 0.931 . S
C1121 C1120 1.391 . S
C1121 C1125 1.376 . S
C1122 C1120 1.394 . S
C1122 C1123 1.369 . S
C1122 C1126 1.531 . S
C1123 C1122 1.369 . S
C1123 C1124 1.410 . S
C1123 C1131 1.503 . S
C1124 C1123 1.410 . S
C1124 C1125 1.392 . S
C1124 C1127 1.511 . S
C1125 C1121 1.376 . S
C1125 C1124 1.392 . S
C1125 H1137 0.929 . S
C1126 C1122 1.531 . S
C1126 H1138 0.960 . S
C1126 H1139 0.962 . S
C1126 H1140 0.960 . S
C1127 C1124 1.511 . S
C1127 H1141 0.961 . S
C1127 H1142 0.961 . S
C1127 H1143 0.961 . S
C1128 C1129 1.370 . S
C1128 C1130 1.363 . S
C1128 H1144 0.931 . S
C1129 C1128 1.370 . S
C1129 C1133 1.408 . S
C1130 C1128 1.363 . S
C1130 C1131 1.370 . S
C1130 C1134 1.524 . S
C1131 C1123 1.503 . S
C1131 C1130 1.370 . S
C1131 C1132 1.403 . S
C1132 C1131 1.403 . S
C1132 C1133 1.404 . S
C1132 C1135 1.539 . S
C1133 C1129 1.408 . S
C1133 C1132 1.404 . S
C1133 H1145 0.930 . S
C1134 C1130 1.524 . S
C1134 H1146 0.956 . S
C1134 H1147 0.961 . S
C1134 H1148 0.961 . S
C1135 C1132 1.539 . S
C1135 H1149 0.958 . S
C1135 H1150 0.961 . S
C1135 H1151 0.960 . S
H1136 C1120 0.931 . S
H1137 C1125 0.929 . S
H1138 C1126 0.960 . S
H1139 C1126 0.962 . S
H1140 C1126 0.960 . S
H1141 C1127 0.961 . S
H1142 C1127 0.961 . S
H1143 C1127 0.961 . S
H1144 C1128 0.931 . S
H1145 C1133 0.930 . S
H1146 C1134 0.956 . S
H1147 C1134 0.961 . S
H1148 C1134 0.961 . S
H1149 C1135 0.958 . S
H1150 C1135 0.961 . S
H1151 C1135 0.960 . S
C1152 C1153 1.391 . S
C1152 C1154 1.394 . S
C1152 H1168 0.931 . S
C1153 C1152 1.391 . S
C1153 C1157 1.376 . S
C1154 C1152 1.394 . S
C1154 C1155 1.369 . S
C1154 C1158 1.531 . S
C1155 C1154 1.369 . S
C1155 C1156 1.410 . S
C1155 C1163 1.503 . S
C1156 C1155 1.410 . S
C1156 C1157 1.392 . S
C1156 C1159 1.511 . S
C1157 C1153 1.376 . S
C1157 C1156 1.392 . S
C1157 H1169 0.929 . S
C1158 C1154 1.531 . S
C1158 H1170 0.960 . S
C1158 H1171 0.962 . S
C1158 H1172 0.960 . S
C1159 C1156 1.511 . S
C1159 H1173 0.961 . S
C1159 H1174 0.961 . S
C1159 H1175 0.961 . S
C1160 C1161 1.370 . S
C1160 C1162 1.363 . S
C1160 H1176 0.931 . S
C1161 C1160 1.370 . S
C1161 C1165 1.408 . S
C1162 C1160 1.363 . S
C1162 C1163 1.370 . S
C1162 C1166 1.524 . S
C1163 C1155 1.503 . S
C1163 C1162 1.370 . S
C1163 C1164 1.403 . S
C1164 C1163 1.403 . S
C1164 C1165 1.404 . S
C1164 C1167 1.539 . S
C1165 C1161 1.408 . S
C1165 C1164 1.404 . S
C1165 H1177 0.930 . S
C1166 C1162 1.524 . S
C1166 H1178 0.956 . S
C1166 H1179 0.961 . S
C1166 H1180 0.961 . S
C1167 C1164 1.539 . S
C1167 H1181 0.958 . S
C1167 H1182 0.961 . S
C1167 H1183 0.960 . S
H1168 C1152 0.931 . S
H1169 C1157 0.929 . S
H1170 C1158 0.960 . S
H1171 C1158 0.962 . S
H1172 C1158 0.960 . S
H1173 C1159 0.961 . S
H1174 C1159 0.961 . S
H1175 C1159 0.961 . S
H1176 C1160 0.931 . S
H1177 C1165 0.930 . S
H1178 C1166 0.956 . S
H1179 C1166 0.961 . S
H1180 C1166 0.961 . S
H1181 C1167 0.958 . S
H1182 C1167 0.961 . S
H1183 C1167 0.960 . S
C1184 C1185 1.391 . S
C1184 C1186 1.394 . S
C1184 H1200 0.931 . S
C1185 C1184 1.391 . S
C1185 C1189 1.376 . S
C1186 C1184 1.394 . S
C1186 C1187 1.369 . S
C1186 C1190 1.531 . S
C1187 C1186 1.369 . S
C1187 C1188 1.410 . S
C1187 C1195 1.503 . S
C1188 C1187 1.410 . S
C1188 C1189 1.392 . S
C1188 C1191 1.511 1_556 S
C1189 C1185 1.376 . S
C1189 C1188 1.392 . S
C1189 H1201 0.929 1_556 S
C1190 C1186 1.531 . S
C1190 H1202 0.960 . S
C1190 H1203 0.962 . S
C1190 H1204 0.960 . S
C1191 C1188 1.511 1_554 S
C1191 H1205 0.961 . S
C1191 H1206 0.961 1_554 S
C1191 H1207 0.961 . S
C1192 C1193 1.370 . S
C1192 C1194 1.363 . S
C1192 H1208 0.931 . S
C1193 C1192 1.370 . S
C1193 C1197 1.408 . S
C1194 C1192 1.363 . S
C1194 C1195 1.370 . S
C1194 C1198 1.524 . S
C1195 C1187 1.503 . S
C1195 C1194 1.370 . S
C1195 C1196 1.403 . S
C1196 C1195 1.403 . S
C1196 C1197 1.404 . S
C1196 C1199 1.539 . S
C1197 C1193 1.408 . S
C1197 C1196 1.404 . S
C1197 H1209 0.930 . S
C1198 C1194 1.524 . S
C1198 H1210 0.956 . S
C1198 H1211 0.961 . S
C1198 H1212 0.961 . S
C1199 C1196 1.539 . S
C1199 H1213 0.958 . S
C1199 H1214 0.961 . S
C1199 H1215 0.960 . S
H1200 C1184 0.931 . S
H1201 C1189 0.929 1_554 S
H1202 C1190 0.960 . S
H1203 C1190 0.962 . S
H1204 C1190 0.960 . S
H1205 C1191 0.961 . S
H1206 C1191 0.961 1_556 S
H1207 C1191 0.961 . S
H1208 C1192 0.931 . S
H1209 C1197 0.930 . S
H1210 C1198 0.956 . S
H1211 C1198 0.961 . S
H1212 C1198 0.961 . S
H1213 C1199 0.958 . S
H1214 C1199 0.961 . S
H1215 C1199 0.960 . S
C1216 C1217 1.391 . S
C1216 C1218 1.394 . S
C1216 H1232 0.931 . S
C1217 C1216 1.391 . S
C1217 C1221 1.376 . S
C1218 C1216 1.394 . S
C1218 C1219 1.369 . S
C1218 C1222 1.531 . S
C1219 C1218 1.369 . S
C1219 C1220 1.410 . S
C1219 C1227 1.503 . S
C1220 C1219 1.410 . S
C1220 C1221 1.392 . S
C1220 C1223 1.511 . S
C1221 C1217 1.376 . S
C1221 C1220 1.392 . S
C1221 H1233 0.929 . S
C1222 C1218 1.531 . S
C1222 H1234 0.960 . S
C1222 H1235 0.962 . S
C1222 H1236 0.960 . S
C1223 C1220 1.511 . S
C1223 H1237 0.961 . S
C1223 H1238 0.961 . S
C1223 H1239 0.961 . S
C1224 C1225 1.370 . S
C1224 C1226 1.363 . S
C1224 H1240 0.931 . S
C1225 C1224 1.370 . S
C1225 C1229 1.408 . S
C1226 C1224 1.363 . S
C1226 C1227 1.370 . S
C1226 C1230 1.524 . S
C1227 C1219 1.503 . S
C1227 C1226 1.370 . S
C1227 C1228 1.403 . S
C1228 C1227 1.403 . S
C1228 C1229 1.404 . S
C1228 C1231 1.539 . S
C1229 C1225 1.408 . S
C1229 C1228 1.404 . S
C1229 H1241 0.930 . S
C1230 C1226 1.524 . S
C1230 H1242 0.956 . S
C1230 H1243 0.961 . S
C1230 H1244 0.961 . S
C1231 C1228 1.539 . S
C1231 H1245 0.958 . S
C1231 H1246 0.961 . S
C1231 H1247 0.960 . S
H1232 C1216 0.931 . S
H1233 C1221 0.929 . S
H1234 C1222 0.960 . S
H1235 C1222 0.962 . S
H1236 C1222 0.960 . S
H1237 C1223 0.961 . S
H1238 C1223 0.961 . S
H1239 C1223 0.961 . S
H1240 C1224 0.931 . S
H1241 C1229 0.930 . S
H1242 C1230 0.956 . S
H1243 C1230 0.961 . S
H1244 C1230 0.961 . S
H1245 C1231 0.958 . S
H1246 C1231 0.961 . S
H1247 C1231 0.960 . S
C1248 C1249 1.391 . S
C1248 C1250 1.394 . S
C1248 H1264 0.931 . S
C1249 C1248 1.391 . S
C1249 C1253 1.376 . S
C1250 C1248 1.394 . S
C1250 C1251 1.369 . S
C1250 C1254 1.531 . S
C1251 C1250 1.369 . S
C1251 C1252 1.410 . S
C1251 C1259 1.503 . S
C1252 C1251 1.410 . S
C1252 C1253 1.392 . S
C1252 C1255 1.511 . S
C1253 C1249 1.376 . S
C1253 C1252 1.392 . S
C1253 H1265 0.929 . S
C1254 C1250 1.531 . S
C1254 H1266 0.960 . S
C1254 H1267 0.962 . S
C1254 H1268 0.960 . S
C1255 C1252 1.511 . S
C1255 H1269 0.961 . S
C1255 H1270 0.961 . S
C1255 H1271 0.961 . S
C1256 C1257 1.370 . S
C1256 C1258 1.363 . S
C1256 H1272 0.931 . S
C1257 C1256 1.370 . S
C1257 C1261 1.408 . S
C1258 C1256 1.363 . S
C1258 C1259 1.370 . S
C1258 C1262 1.524 . S
C1259 C1251 1.503 . S
C1259 C1258 1.370 . S
C1259 C1260 1.403 . S
C1260 C1259 1.403 . S
C1260 C1261 1.404 . S
C1260 C1263 1.539 . S
C1261 C1257 1.408 . S
C1261 C1260 1.404 . S
C1261 H1273 0.930 . S
C1262 C1258 1.524 . S
C1262 H1274 0.956 . S
C1262 H1275 0.961 . S
C1262 H1276 0.961 . S
C1263 C1260 1.539 . S
C1263 H1277 0.958 . S
C1263 H1278 0.961 . S
C1263 H1279 0.960 . S
H1264 C1248 0.931 . S
H1265 C1253 0.929 . S
H1266 C1254 0.960 . S
H1267 C1254 0.962 . S
H1268 C1254 0.960 . S
H1269 C1255 0.961 . S
H1270 C1255 0.961 . S
H1271 C1255 0.961 . S
H1272 C1256 0.931 . S
H1273 C1261 0.930 . S
H1274 C1262 0.956 . S
H1275 C1262 0.961 . S
H1276 C1262 0.961 . S
H1277 C1263 0.958 . S
H1278 C1263 0.961 . S
H1279 C1263 0.960 . S
C1280 C1281 1.391 . S
C1280 C1282 1.394 . S
C1280 H1296 0.931 . S
C1281 C1280 1.391 . S
C1281 C1285 1.376 . S
C1282 C1280 1.394 . S
C1282 C1283 1.369 . S
C1282 C1286 1.531 . S
C1283 C1282 1.369 . S
C1283 C1284 1.410 . S
C1283 C1291 1.503 . S
C1284 C1283 1.410 . S
C1284 C1285 1.392 . S
C1284 C1287 1.511 . S
C1285 C1281 1.376 . S
C1285 C1284 1.392 . S
C1285 H1297 0.929 . S
C1286 C1282 1.531 . S
C1286 H1298 0.960 . S
C1286 H1299 0.962 . S
C1286 H1300 0.960 . S
C1287 C1284 1.511 . S
C1287 H1301 0.961 . S
C1287 H1302 0.961 . S
C1287 H1303 0.961 . S
C1288 C1289 1.370 . S
C1288 C1290 1.363 . S
C1288 H1304 0.931 1_556 S
C1289 C1288 1.370 . S
C1289 C1293 1.408 . S
C1290 C1288 1.363 . S
C1290 C1291 1.370 . S
C1290 C1294 1.524 . S
C1291 C1283 1.503 . S
C1291 C1290 1.370 . S
C1291 C1292 1.403 . S
C1292 C1291 1.403 . S
C1292 C1293 1.404 . S
C1292 C1295 1.539 . S
C1293 C1289 1.408 . S
C1293 C1292 1.404 . S
C1293 H1305 0.930 . S
C1294 C1290 1.524 . S
C1294 H1306 0.956 . S
C1294 H1307 0.961 . S
C1294 H1308 0.961 1_556 S
C1295 C1292 1.539 . S
C1295 H1309 0.958 . S
C1295 H1310 0.961 . S
C1295 H1311 0.960 . S
H1296 C1280 0.931 . S
H1297 C1285 0.929 . S
H1298 C1286 0.960 . S
H1299 C1286 0.962 . S
H1300 C1286 0.960 . S
H1301 C1287 0.961 . S
H1302 C1287 0.961 . S
H1303 C1287 0.961 . S
H1304 C1288 0.931 1_554 S
H1305 C1293 0.930 . S
H1306 C1294 0.956 . S
H1307 C1294 0.961 . S
H1308 C1294 0.961 1_554 S
H1309 C1295 0.958 . S
H1310 C1295 0.961 . S
H1311 C1295 0.960 . S
C1312 C1313 1.391 . S
C1312 C1314 1.394 . S
C1312 H1328 0.931 . S
C1313 C1312 1.391 . S
C1313 C1317 1.376 . S
C1314 C1312 1.394 . S
C1314 C1315 1.369 . S
C1314 C1318 1.531 . S
C1315 C1314 1.369 . S
C1315 C1316 1.410 . S
C1315 C1323 1.503 . S
C1316 C1315 1.410 . S
C1316 C1317 1.392 . S
C1316 C1319 1.511 . S
C1317 C1313 1.376 . S
C1317 C1316 1.392 . S
C1317 H1329 0.929 . S
C1318 C1314 1.531 . S
C1318 H1330 0.960 . S
C1318 H1331 0.962 . S
C1318 H1332 0.960 . S
C1319 C1316 1.511 . S
C1319 H1333 0.961 . S
C1319 H1334 0.961 . S
C1319 H1335 0.961 . S
C1320 C1321 1.370 . S
C1320 C1322 1.363 . S
C1320 H1336 0.931 . S
C1321 C1320 1.370 . S
C1321 C1325 1.408 . S
C1322 C1320 1.363 . S
C1322 C1323 1.370 . S
C1322 C1326 1.524 . S
C1323 C1315 1.503 . S
C1323 C1322 1.370 . S
C1323 C1324 1.403 . S
C1324 C1323 1.403 . S
C1324 C1325 1.404 . S
C1324 C1327 1.539 . S
C1325 C1321 1.408 . S
C1325 C1324 1.404 . S
C1325 H1337 0.930 . S
C1326 C1322 1.524 . S
C1326 H1338 0.956 . S
C1326 H1339 0.961 . S
C1326 H1340 0.961 . S
C1327 C1324 1.539 . S
C1327 H1341 0.958 . S
C1327 H1342 0.961 . S
C1327 H1343 0.960 . S
H1328 C1312 0.931 . S
H1329 C1317 0.929 . S
H1330 C1318 0.960 . S
H1331 C1318 0.962 . S
H1332 C1318 0.960 . S
H1333 C1319 0.961 . S
H1334 C1319 0.961 . S
H1335 C1319 0.961 . S
H1336 C1320 0.931 . S
H1337 C1325 0.930 . S
H1338 C1326 0.956 . S
H1339 C1326 0.961 . S
H1340 C1326 0.961 . S
H1341 C1327 0.958 . S
H1342 C1327 0.961 . S
H1343 C1327 0.960 . S
C1344 C1345 1.391 . S
C1344 C1346 1.394 . S
C1344 H1360 0.931 . S
C1345 C1344 1.391 . S
C1345 C1349 1.381 . S
C1346 C1344 1.394 . S
C1346 C1347 1.369 . S
C1346 C1350 1.531 . S
C1347 C1346 1.369 . S
C1347 C1348 1.410 . S
C1347 C1355 1.503 . S
C1348 C1347 1.410 . S
C1348 C1349 1.396 . S
C1348 C1351 1.511 1_556 S
C1349 C1345 1.381 . S
C1349 C1348 1.396 . S
C1349 H1361 0.920 1_556 S
C1350 C1346 1.531 . S
C1350 H1362 0.960 . S
C1350 H1363 0.962 . S
C1350 H1364 0.960 . S
C1351 C1348 1.511 1_554 S
C1351 H1365 0.961 . S
C1351 H1366 0.961 1_554 S
C1351 H1367 0.961 . S
C1352 C1353 1.370 . S
C1352 C1354 1.363 . S
C1352 H1368 0.931 . S
C1353 C1352 1.370 . S
C1353 C1357 1.408 . S
C1354 C1352 1.363 . S
C1354 C1355 1.370 . S
C1354 C1358 1.524 . S
C1355 C1347 1.503 . S
C1355 C1354 1.370 . S
C1355 C1356 1.403 . S
C1356 C1355 1.403 . S
C1356 C1357 1.404 . S
C1356 C1359 1.539 . S
C1357 C1353 1.408 . S
C1357 C1356 1.404 . S
C1357 H1369 0.930 . S
C1358 C1354 1.524 . S
C1358 H1370 0.956 . S
C1358 H1371 0.961 . S
C1358 H1372 0.961 . S
C1359 C1356 1.539 . S
C1359 H1373 0.958 . S
C1359 H1374 0.961 . S
C1359 H1375 0.960 . S
H1360 C1344 0.931 . S
H1361 C1349 0.920 1_554 S
H1362 C1350 0.960 . S
H1363 C1350 0.962 . S
H1364 C1350 0.960 . S
H1365 C1351 0.961 . S
H1366 C1351 0.961 1_556 S
H1367 C1351 0.961 . S
H1368 C1352 0.931 . S
H1369 C1357 0.930 . S
H1370 C1358 0.956 . S
H1371 C1358 0.961 . S
H1372 C1358 0.961 . S
H1373 C1359 0.958 . S
H1374 C1359 0.961 . S
H1375 C1359 0.960 . S
C1376 C1377 1.391 . S
C1376 C1378 1.394 . S
C1376 H1392 0.931 . S
C1377 C1376 1.391 . S
C1377 C1381 1.376 . S
C1378 C1376 1.394 . S
C1378 C1379 1.369 . S
C1378 C1382 1.531 . S
C1379 C1378 1.369 . S
C1379 C1380 1.410 . S
C1379 C1387 1.503 . S
C1380 C1379 1.410 . S
C1380 C1381 1.392 . S
C1380 C1383 1.511 . S
C1381 C1377 1.376 . S
C1381 C1380 1.392 . S
C1381 H1393 0.929 . S
C1382 C1378 1.531 . S
C1382 H1394 0.960 . S
C1382 H1395 0.962 . S
C1382 H1396 0.960 . S
C1383 C1380 1.511 . S
C1383 H1397 0.961 . S
C1383 H1398 0.961 . S
C1383 H1399 0.961 . S
C1384 C1385 1.370 . S
C1384 C1386 1.363 . S
C1384 H1400 0.931 . S
C1385 C1384 1.370 . S
C1385 C1389 1.408 . S
C1386 C1384 1.363 . S
C1386 C1387 1.370 . S
C1386 C1390 1.524 . S
C1387 C1379 1.503 . S
C1387 C1386 1.370 . S
C1387 C1388 1.403 . S
C1388 C1387 1.403 . S
C1388 C1389 1.404 . S
C1388 C1391 1.539 . S
C1389 C1385 1.408 . S
C1389 C1388 1.404 . S
C1389 H1401 0.930 . S
C1390 C1386 1.524 . S
C1390 H1402 0.956 . S
C1390 H1403 0.961 . S
C1390 H1404 0.961 . S
C1391 C1388 1.539 . S
C1391 H1405 0.958 . S
C1391 H1406 0.961 . S
C1391 H1407 0.960 . S
H1392 C1376 0.931 . S
H1393 C1381 0.929 . S
H1394 C1382 0.960 . S
H1395 C1382 0.962 . S
H1396 C1382 0.960 . S
H1397 C1383 0.961 . S
H1398 C1383 0.961 . S
H1399 C1383 0.961 . S
H1400 C1384 0.931 . S
H1401 C1389 0.930 . S
H1402 C1390 0.956 . S
H1403 C1390 0.961 . S
H1404 C1390 0.961 . S
H1405 C1391 0.958 . S
H1406 C1391 0.961 . S
H1407 C1391 0.960 . S
C1408 C1409 1.391 . S
C1408 C1410 1.394 . S
C1408 H1424 0.931 . S
C1409 C1408 1.391 . S
C1409 C1413 1.376 . S
C1410 C1408 1.394 . S
C1410 C1411 1.369 . S
C1410 C1414 1.531 . S
C1411 C1410 1.369 . S
C1411 C1412 1.410 . S
C1411 C1419 1.503 . S
C1412 C1411 1.410 . S
C1412 C1413 1.392 . S
C1412 C1415 1.511 . S
C1413 C1409 1.376 . S
C1413 C1412 1.392 . S
C1413 H1425 0.929 . S
C1414 C1410 1.531 . S
C1414 H1426 0.960 . S
C1414 H1427 0.962 . S
C1414 H1428 0.960 . S
C1415 C1412 1.511 . S
C1415 H1429 0.961 . S
C1415 H1430 0.961 . S
C1415 H1431 0.961 . S
C1416 C1417 1.370 . S
C1416 C1418 1.363 . S
C1416 H1432 0.931 . S
C1417 C1416 1.370 . S
C1417 C1421 1.408 . S
C1418 C1416 1.363 . S
C1418 C1419 1.370 . S
C1418 C1422 1.524 . S
C1419 C1411 1.503 . S
C1419 C1418 1.370 . S
C1419 C1420 1.403 . S
C1420 C1419 1.403 . S
C1420 C1421 1.404 . S
C1420 C1423 1.539 . S
C1421 C1417 1.408 . S
C1421 C1420 1.404 . S
C1421 H1433 0.930 . S
C1422 C1418 1.524 . S
C1422 H1434 0.956 . S
C1422 H1435 0.961 . S
C1422 H1436 0.961 . S
C1423 C1420 1.539 . S
C1423 H1437 0.958 . S
C1423 H1438 0.961 . S
C1423 H1439 0.960 . S
H1424 C1408 0.931 . S
H1425 C1413 0.929 . S
H1426 C1414 0.960 . S
H1427 C1414 0.962 . S
H1428 C1414 0.960 . S
H1429 C1415 0.961 . S
H1430 C1415 0.961 . S
H1431 C1415 0.961 . S
H1432 C1416 0.931 . S
H1433 C1421 0.930 . S
H1434 C1422 0.956 . S
H1435 C1422 0.961 . S
H1436 C1422 0.961 . S
H1437 C1423 0.958 . S
H1438 C1423 0.961 . S
H1439 C1423 0.960 . S
C1440 C1441 1.391 . S
C1440 C1442 1.394 . S
C1440 H1456 0.931 . S
C1441 C1440 1.391 . S
C1441 C1445 1.376 . S
C1442 C1440 1.394 . S
C1442 C1443 1.369 . S
C1442 C1446 1.531 . S
C1443 C1442 1.369 . S
C1443 C1444 1.410 . S
C1443 C1451 1.503 . S
C1444 C1443 1.410 . S
C1444 C1445 1.392 . S
C1444 C1447 1.511 . S
C1445 C1441 1.376 . S
C1445 C1444 1.392 . S
C1445 H1457 0.929 . S
C1446 C1442 1.531 . S
C1446 H1458 0.960 . S
C1446 H1459 0.962 . S
C1446 H1460 0.960 . S
C1447 C1444 1.511 . S
C1447 H1461 0.961 . S
C1447 H1462 0.961 . S
C1447 H1463 0.961 . S
C1448 C1449 1.370 . S
C1448 C1450 1.363 . S
C1448 H1464 0.931 . S
C1449 C1448 1.370 . S
C1449 C1453 1.408 . S
C1450 C1448 1.363 . S
C1450 C1451 1.370 . S
C1450 C1454 1.524 . S
C1451 C1443 1.503 . S
C1451 C1450 1.370 . S
C1451 C1452 1.403 . S
C1452 C1451 1.403 . S
C1452 C1453 1.404 . S
C1452 C1455 1.539 . S
C1453 C1449 1.408 . S
C1453 C1452 1.404 . S
C1453 H1465 0.930 . S
C1454 C1450 1.524 . S
C1454 H1466 0.956 . S
C1454 H1467 0.961 . S
C1454 H1468 0.961 . S
C1455 C1452 1.539 . S
C1455 H1469 0.958 . S
C1455 H1470 0.961 . S
C1455 H1471 0.960 . S
H1456 C1440 0.931 . S
H1457 C1445 0.929 . S
H1458 C1446 0.960 . S
H1459 C1446 0.962 . S
H1460 C1446 0.960 . S
H1461 C1447 0.961 . S
H1462 C1447 0.961 . S
H1463 C1447 0.961 . S
H1464 C1448 0.931 . S
H1465 C1453 0.930 . S
H1466 C1454 0.956 . S
H1467 C1454 0.961 . S
H1468 C1454 0.961 . S
H1469 C1455 0.958 . S
H1470 C1455 0.961 . S
H1471 C1455 0.960 . S
C1472 C1473 1.391 . S
C1472 C1474 1.394 . S
C1472 H1488 0.931 . S
C1473 C1472 1.391 . S
C1473 C1477 1.376 . S
C1474 C1472 1.394 . S
C1474 C1475 1.369 . S
C1474 C1478 1.531 . S
C1475 C1474 1.369 . S
C1475 C1476 1.410 . S
C1475 C1483 1.503 . S
C1476 C1475 1.410 . S
C1476 C1477 1.392 . S
C1476 C1479 1.511 . S
C1477 C1473 1.376 . S
C1477 C1476 1.392 . S
C1477 H1489 0.929 . S
C1478 C1474 1.531 . S
C1478 H1490 0.960 . S
C1478 H1491 0.962 . S
C1478 H1492 0.960 . S
C1479 C1476 1.511 . S
C1479 H1493 0.961 . S
C1479 H1494 0.961 . S
C1479 H1495 0.961 . S
C1480 C1481 1.370 . S
C1480 C1482 1.363 . S
C1480 H1496 0.931 . S
C1481 C1480 1.370 . S
C1481 C1485 1.408 . S
C1482 C1480 1.363 . S
C1482 C1483 1.370 . S
C1482 C1486 1.524 . S
C1483 C1475 1.503 . S
C1483 C1482 1.370 . S
C1483 C1484 1.403 . S
C1484 C1483 1.403 . S
C1484 C1485 1.404 . S
C1484 C1487 1.539 . S
C1485 C1481 1.408 . S
C1485 C1484 1.404 . S
C1485 H1497 0.930 . S
C1486 C1482 1.524 . S
C1486 H1498 0.956 . S
C1486 H1499 0.961 . S
C1486 H1500 0.961 . S
C1487 C1484 1.539 . S
C1487 H1501 0.958 . S
C1487 H1502 0.961 . S
C1487 H1503 0.960 . S
H1488 C1472 0.931 . S
H1489 C1477 0.929 . S
H1490 C1478 0.960 . S
H1491 C1478 0.962 . S
H1492 C1478 0.960 . S
H1493 C1479 0.961 . S
H1494 C1479 0.961 . S
H1495 C1479 0.961 . S
H1496 C1480 0.931 . S
H1497 C1485 0.930 . S
H1498 C1486 0.956 . S
H1499 C1486 0.961 . S
H1500 C1486 0.961 . S
H1501 C1487 0.958 . S
H1502 C1487 0.961 . S
H1503 C1487 0.960 . S
C1504 C1505 1.391 . S
C1504 C1506 1.394 . S
C1504 H1520 0.931 . S
C1505 C1504 1.391 . S
C1505 C1509 1.376 . S
C1506 C1504 1.394 . S
C1506 C1507 1.369 . S
C1506 C1510 1.531 . S
C1507 C1506 1.369 . S
C1507 C1508 1.410 . S
C1507 C1515 1.503 . S
C1508 C1507 1.410 . S
C1508 C1509 1.392 . S
C1508 C1511 1.511 . S
C1509 C1505 1.376 . S
C1509 C1508 1.392 . S
C1509 H1521 0.929 . S
C1510 C1506 1.531 . S
C1510 H1522 0.960 . S
C1510 H1523 0.962 . S
C1510 H1524 0.960 . S
C1511 C1508 1.511 . S
C1511 H1525 0.961 . S
C1511 H1526 0.961 . S
C1511 H1527 0.961 . S
C1512 C1513 1.370 . S
C1512 C1514 1.363 . S
C1512 H1528 0.931 . S
C1513 C1512 1.370 . S
C1513 C1517 1.408 . S
C1514 C1512 1.363 . S
C1514 C1515 1.370 . S
C1514 C1518 1.524 . S
C1515 C1507 1.503 . S
C1515 C1514 1.370 . S
C1515 C1516 1.403 . S
C1516 C1515 1.403 . S
C1516 C1517 1.404 . S
C1516 C1519 1.539 . S
C1517 C1513 1.408 . S
C1517 C1516 1.404 . S
C1517 H1529 0.930 . S
C1518 C1514 1.524 . S
C1518 H1530 0.956 . S
C1518 H1531 0.961 . S
C1518 H1532 0.961 . S
C1519 C1516 1.539 . S
C1519 H1533 0.958 . S
C1519 H1534 0.961 . S
C1519 H1535 0.960 . S
H1520 C1504 0.931 . S
H1521 C1509 0.929 . S
H1522 C1510 0.960 . S
H1523 C1510 0.962 . S
H1524 C1510 0.960 . S
H1525 C1511 0.961 . S
H1526 C1511 0.961 . S
H1527 C1511 0.961 . S
H1528 C1512 0.931 . S
H1529 C1517 0.930 . S
H1530 C1518 0.956 . S
H1531 C1518 0.961 . S
H1532 C1518 0.961 . S
H1533 C1519 0.958 . S
H1534 C1519 0.961 . S
H1535 C1519 0.960 . S
C1536 C1537 1.391 . S
C1536 C1538 1.394 . S
C1536 H1552 0.931 . S
C1537 C1536 1.391 . S
C1537 C1541 1.376 . S
C1538 C1536 1.394 . S
C1538 C1539 1.369 . S
C1538 C1542 1.531 . S
C1539 C1538 1.369 . S
C1539 C1540 1.410 . S
C1539 C1547 1.503 . S
C1540 C1539 1.410 . S
C1540 C1541 1.392 . S
C1540 C1543 1.511 . S
C1541 C1537 1.376 . S
C1541 C1540 1.392 . S
C1541 H1553 0.929 . S
C1542 C1538 1.531 . S
C1542 H1554 0.960 . S
C1542 H1555 0.962 . S
C1542 H1556 0.960 . S
C1543 C1540 1.511 . S
C1543 H1557 0.961 . S
C1543 H1558 0.961 . S
C1543 H1559 0.961 . S
C1544 C1545 1.370 . S
C1544 C1546 1.363 . S
C1544 H1560 0.931 . S
C1545 C1544 1.370 . S
C1545 C1549 1.408 . S
C1546 C1544 1.363 . S
C1546 C1547 1.370 . S
C1546 C1550 1.524 . S
C1547 C1539 1.503 . S
C1547 C1546 1.370 . S
C1547 C1548 1.403 . S
C1548 C1547 1.403 . S
C1548 C1549 1.404 . S
C1548 C1551 1.539 . S
C1549 C1545 1.408 . S
C1549 C1548 1.404 . S
C1549 H1561 0.930 . S
C1550 C1546 1.524 . S
C1550 H1562 0.956 . S
C1550 H1563 0.961 . S
C1550 H1564 0.961 . S
C1551 C1548 1.539 . S
C1551 H1565 0.958 . S
C1551 H1566 0.961 . S
C1551 H1567 0.960 . S
H1552 C1536 0.931 . S
H1553 C1541 0.929 . S
H1554 C1542 0.960 . S
H1555 C1542 0.962 . S
H1556 C1542 0.960 . S
H1557 C1543 0.961 . S
H1558 C1543 0.961 . S
H1559 C1543 0.961 . S
H1560 C1544 0.931 . S
H1561 C1549 0.930 . S
H1562 C1550 0.956 . S
H1563 C1550 0.961 . S
H1564 C1550 0.961 . S
H1565 C1551 0.958 . S
H1566 C1551 0.961 . S
H1567 C1551 0.960 . S
C1568 C1569 1.391 . S
C1568 C1570 1.394 . S
C1568 H1584 0.931 . S
C1569 C1568 1.391 . S
C1569 C1573 1.376 . S
C1570 C1568 1.394 . S
C1570 C1571 1.369 . S
C1570 C1574 1.531 . S
C1571 C1570 1.369 . S
C1571 C1572 1.410 . S
C1571 C1579 1.503 . S
C1572 C1571 1.410 . S
C1572 C1573 1.392 . S
C1572 C1575 1.511 . S
C1573 C1569 1.376 . S
C1573 C1572 1.392 . S
C1573 H1585 0.929 . S
C1574 C1570 1.531 . S
C1574 H1586 0.960 . S
C1574 H1587 0.962 . S
C1574 H1588 0.960 . S
C1575 C1572 1.511 . S
C1575 H1589 0.961 . S
C1575 H1590 0.961 . S
C1575 H1591 0.961 . S
C1576 C1577 1.370 . S
C1576 C1578 1.363 . S
C1576 H1592 0.931 . S
C1577 C1576 1.370 . S
C1577 C1581 1.408 . S
C1578 C1576 1.363 . S
C1578 C1579 1.370 . S
C1578 C1582 1.524 . S
C1579 C1571 1.503 . S
C1579 C1578 1.370 . S
C1579 C1580 1.403 . S
C1580 C1579 1.403 . S
C1580 C1581 1.404 . S
C1580 C1583 1.539 . S
C1581 C1577 1.408 . S
C1581 C1580 1.404 . S
C1581 H1593 0.930 . S
C1582 C1578 1.524 . S
C1582 H1594 0.956 . S
C1582 H1595 0.961 . S
C1582 H1596 0.961 . S
C1583 C1580 1.539 . S
C1583 H1597 0.958 . S
C1583 H1598 0.961 . S
C1583 H1599 0.960 . S
H1584 C1568 0.931 . S
H1585 C1573 0.929 . S
H1586 C1574 0.960 . S
H1587 C1574 0.962 . S
H1588 C1574 0.960 . S
H1589 C1575 0.961 . S
H1590 C1575 0.961 . S
H1591 C1575 0.961 . S
H1592 C1576 0.931 . S
H1593 C1581 0.930 . S
H1594 C1582 0.956 . S
H1595 C1582 0.961 . S
H1596 C1582 0.961 . S
H1597 C1583 0.958 . S
H1598 C1583 0.961 . S
H1599 C1583 0.960 . S
C577 C3 1.360 . S
C585 C435 1.358 . S
C609 C38 1.289 . S
C617 C182 1.316 . S
C641 C74 1.304 . S
C649 C506 1.311 . S
C673 C255 1.360 . S
C681 C111 1.366 . S
C705 C507 1.363 . S
C713 C75 1.366 . S
C737 C254 1.298 . S
C745 C110 1.316 . S
C769 C434 1.325 . S
C777 C2 1.301 . S
C801 C183 1.364 . S
C809 C39 1.357 . S
C833 C147 1.356 . S
C841 C291 1.359 . S
C865 C218 1.293 . S
C873 C362 1.318 . S
C897 C363 1.367 . S
C905 C219 1.364 . S
C929 C146 1.328 . S
C937 C290 1.298 . S
C961 C470 1.279 . S
C969 C326 1.319 . S
C993 C399 1.358 . S
C1001 C543 1.368 . S
C1025 C398 1.318 . S
C1033 C542 1.305 . S
C1057 C327 1.357 . S
C1065 C471 1.359 . S
C1089 C400 1.450 . S
C1097 C14 1.441 . S
C1121 C292 1.473 . S
C1129 C40 1.455 . S
C1153 C76 1.483 . S
C1161 C338 1.462 . S
C1185 C374 1.436 . S
C1193 C122 1.449 . S
C1217 C410 1.467 . S
C1225 C86 1.443 . S
C1249 C112 1.464 . S
C1257 C302 1.450 . S
C1281 C328 1.469 . S
C1289 C4 1.452 . S
C1313 C364 1.478 . S
C1321 C50 1.459 . S
C1345 C158 1.463 . S
C1353 C544 1.473 . S
C1377 C436 1.466 . S
C1385 C184 1.452 . S
C1409 C220 1.479 . S
C1417 C482 1.461 . S
C1441 C266 1.436 . S
C1449 C518 1.464 . S
C1473 C230 1.473 . S
C1481 C554 1.458 . S
C1505 C446 1.423 . S
C1513 C256 1.464 . S
C1537 C472 1.448 . S
C1545 C148 1.465 . S
C1569 C508 1.463 . S
C1577 C194 1.453 . S
