# Generated by pormake.
# Topology wjs, (5)-cn, num edge types: 1
# Building blocks:
#     Node 0, Type 0, BuildingBlock: XOMCOT_clean_sbu_1, # of connection points: 5
#     Node 1, Type 0, BuildingBlock: XOMCOT_clean_sbu_1, # of connection points: 5
#     Node 2, Type 0, BuildingBlock: XOMCOT_clean_sbu_1, # of connection points: 5
#     Node 3, Type 0, BuildingBlock: XOMCOT_clean_sbu_1, # of connection points: 5
#     Node 4, Type 0, BuildingBlock: XOMCOT_clean_sbu_1, # of connection points: 5
#     Node 5, Type 0, BuildingBlock: XOMCOT_clean_sbu_1, # of connection points: 5
#     Node 6, Type 0, BuildingBlock: XOMCOT_clean_sbu_1, # of connection points: 5
#     Node 7, Type 0, BuildingBlock: XOMCOT_clean_sbu_1, # of connection points: 5
#     Node 8, Type 0, BuildingBlock: XOMCOT_clean_sbu_1, # of connection points: 5
#     Node 9, Type 0, BuildingBlock: XOMCOT_clean_sbu_1, # of connection points: 5
#     Node 10, Type 0, BuildingBlock: XOMCOT_clean_sbu_1, # of connection points: 5
#     Node 11, Type 0, BuildingBlock: XOMCOT_clean_sbu_1, # of connection points: 5
#     Edge 12, Type (0, 0), None
#     Edge 13, Type (0, 0), None
#     Edge 14, Type (0, 0), None
#     Edge 15, Type (0, 0), None
#     Edge 16, Type (0, 0), None
#     Edge 17, Type (0, 0), None
#     Edge 18, Type (0, 0), None
#     Edge 19, Type (0, 0), None
#     Edge 20, Type (0, 0), None
#     Edge 21, Type (0, 0), None
#     Edge 22, Type (0, 0), None
#     Edge 23, Type (0, 0), None
#     Edge 24, Type (0, 0), None
#     Edge 25, Type (0, 0), None
#     Edge 26, Type (0, 0), None
#     Edge 27, Type (0, 0), None
#     Edge 28, Type (0, 0), None
#     Edge 29, Type (0, 0), None
#     Edge 30, Type (0, 0), None
#     Edge 31, Type (0, 0), None
#     Edge 32, Type (0, 0), None
#     Edge 33, Type (0, 0), None
#     Edge 34, Type (0, 0), None
#     Edge 35, Type (0, 0), None
#     Edge 36, Type (0, 0), None
#     Edge 37, Type (0, 0), None
#     Edge 38, Type (0, 0), None
#     Edge 39, Type (0, 0), None
#     Edge 40, Type (0, 0), None
#     Edge 41, Type (0, 0), None
# Relax obj value: 0.381
# Max RMSD: 0.277
# Mean RMSD: 0.277
data_MOF--net-wjs--node1-XOMCOT_clean_sbu_1--edge1-none
_symmetry_space_group_name_H-M    P1
_symmetry_Int_Tables_number       1
_symmetry_cell_setting            triclinic
loop_
_symmetry_equiv_pos_as_xyz
'x, y, z'
_cell_length_a     16.470761
_cell_length_b     16.470718
_cell_length_c     30.190777
_cell_angle_alpha  90.00145
_cell_angle_beta   89.999816
_cell_angle_gamma 119.99998
loop_
_atom_site_label
_atom_site_type_symbol
_atom_site_fract_x
_atom_site_fract_y
_atom_site_fract_z
_atom_type_partial_charge
C0 C 0.27813 0.31197 0.12112 0.0
C1 C 0.3081 0.25331 0.13715 0.0
N2 N 0.28816 0.18722 0.10645 0.0
N3 N 0.23839 0.28136 0.0809 0.0
C4 C 0.24518 0.20443 0.07301 0.0
H5 H 0.28076 0.37032 0.13871 0.0
Co6 Co 0.17631 0.32905 0.04826 0.0
C7 C 0.1598 0.21507 0.96056 0.0
O8 O 0.07891 0.18849 0.94125 0.0
N9 N 0.11295 0.37729 1.01659 0.0
C10 C 0.04895 0.42422 0.96509 0.0
C11 C 0.11119 0.39282 0.97282 0.0
C12 C 0.053 0.40133 0.03479 0.0
N13 N 0.01226 0.42927 1.00419 0.0
O14 O 0.05804 0.22297 0.06621 0.0
H15 H 0.15303 0.38314 0.94809 0.0
H16 H 0.03935 0.39821 0.06996 0.0
O17 O 0.18155 0.26207 0.99649 0.0
C18 C 0.03626 0.22966 0.10607 0.0
O19 O 0.09128 0.30619 0.12848 0.0
N20 N 0.29388 0.43411 0.03402 0.0
C21 C 0.4884 0.54105 0.04092 0.0
C22 C 0.44631 0.48758 1.00297 0.0
C23 C 0.34878 0.43603 0.99963 0.0
C24 C 0.33305 0.49605 0.06813 0.0
C25 C 0.43069 0.54923 0.07269 0.0
H26 H 0.31908 0.39238 0.97091 0.0
H27 H 0.28884 0.49586 0.09468 0.0
H28 H 0.21312 0.15765 0.04524 0.0
H29 H 0.3381 0.25598 0.1693 0.0
H30 H 0.03441 0.44495 0.93338 0.0
H31 H 0.48803 0.47882 0.97797 0.0
H32 H 0.46052 0.59182 0.102 0.0
C33 C 0.97061 0.27591 0.28778 0.0
C34 C 0.05923 0.30589 0.30382 0.0
N35 N 0.10538 0.28594 0.27312 0.0
N36 N 0.96147 0.23616 0.24756 0.0
C37 C 0.04519 0.24295 0.23968 0.0
H38 H 0.91488 0.27854 0.30537 0.0
Co39 Co 0.8517 0.17408 0.21492 0.0
C40 C 0.94918 0.15757 0.12722 0.0
O41 O 0.89486 0.07669 0.10791 0.0
N42 N 0.7401 0.11072 0.18326 0.0
C43 C 0.62917 0.04671 0.13175 0.0
C44 C 0.7228 0.10895 0.13948 0.0
C45 C 0.65612 0.05077 0.20145 0.0
N46 N 0.58743 0.01003 0.17085 0.0
O47 O 0.83951 0.05581 0.23288 0.0
H48 H 0.77432 0.15079 0.11475 0.0
H49 H 0.64558 0.03713 0.23662 0.0
O50 O 0.92392 0.17931 0.16315 0.0
C51 C 0.81104 0.03403 0.27274 0.0
O52 O 0.78953 0.08906 0.29514 0.0
N53 N 0.86422 0.29166 0.20068 0.0
C54 C 0.9518 0.48617 0.20759 0.0
C55 C 0.96318 0.44408 0.16963 0.0
C56 C 0.9172 0.34655 0.16629 0.0
C57 C 0.84144 0.33082 0.23479 0.0
C58 C 0.88589 0.42846 0.23935 0.0
H59 H 0.93115 0.31685 0.13758 0.0
H60 H 0.79742 0.28661 0.26133 0.0
H61 H 0.05991 0.21089 0.2119 0.0
H62 H 0.08656 0.33588 0.33597 0.0
H63 H 0.5939 0.03216 0.10005 0.0
H64 H 0.01367 0.4858 0.14463 0.0
H65 H 0.87313 0.45829 0.26866 0.0
C66 C 0.69914 0.9684 0.45445 0.0
C67 C 0.75779 0.05702 0.47048 0.0
N68 N 0.82388 0.10317 0.43978 0.0
N69 N 0.72974 0.95925 0.41423 0.0
C70 C 0.80668 0.04298 0.40635 0.0
H71 H 0.64079 0.91267 0.47204 0.0
Co72 Co 0.68206 0.84948 0.38159 0.0
C73 C 0.79604 0.94696 0.29389 0.0
O74 O 0.8226 0.89263 0.27457 0.0
N75 N 0.63382 0.73788 0.34992 0.0
C76 C 0.58689 0.62695 0.29842 0.0
C77 C 0.61829 0.72058 0.30615 0.0
C78 C 0.60978 0.6539 0.36812 0.0
N79 N 0.58183 0.58521 0.33752 0.0
O80 O 0.78813 0.83729 0.39954 0.0
H81 H 0.62797 0.7721 0.28141 0.0
H82 H 0.61289 0.64337 0.40329 0.0
O83 O 0.74904 0.9217 0.32982 0.0
C84 C 0.78145 0.80883 0.4394 0.0
O85 O 0.70491 0.78732 0.46181 0.0
N86 N 0.577 0.862 0.36734 0.0
C87 C 0.47006 0.94958 0.37425 0.0
C88 C 0.52353 0.96096 0.3363 0.0
C89 C 0.57508 0.91498 0.33296 0.0
C90 C 0.51506 0.83922 0.40145 0.0
C91 C 0.46187 0.88367 0.40601 0.0
H92 H 0.61873 0.92893 0.30424 0.0
H93 H 0.51525 0.79519 0.428 0.0
H94 H 0.85346 0.0577 0.37857 0.0
H95 H 0.75512 0.08435 0.50263 0.0
H96 H 0.56617 0.59167 0.26671 0.0
H97 H 0.5323 0.01145 0.3113 0.0
H98 H 0.41929 0.87091 0.43532 0.0
C99 C 0.73519 0.69693 0.62111 0.0
C100 C 0.70521 0.75558 0.63715 0.0
N101 N 0.72516 0.82167 0.60645 0.0
N102 N 0.77494 0.72753 0.58089 0.0
C103 C 0.76814 0.80447 0.57301 0.0
H104 H 0.73256 0.63858 0.6387 0.0
Co105 Co 0.83702 0.67985 0.54825 0.0
C106 C 0.85352 0.79383 0.46055 0.0
O107 O 0.93441 0.82038 0.44124 0.0
N108 N 0.90038 0.63161 0.51659 0.0
C109 C 0.96438 0.58467 0.46509 0.0
C110 C 0.90214 0.61607 0.47282 0.0
C111 C 0.96032 0.60757 0.53478 0.0
N112 N 1.00107 0.57962 0.50419 0.0
O113 O 0.95528 0.78592 0.56621 0.0
H114 H 0.8603 0.62575 0.44808 0.0
H115 H 0.97397 0.61069 0.56995 0.0
O116 O 0.83178 0.74683 0.49649 0.0
C117 C 0.97707 0.77924 0.60607 0.0
O118 O 0.92204 0.7027 0.62847 0.0
N119 N 0.71944 0.57479 0.53401 0.0
C120 C 0.52492 0.46785 0.54092 0.0
C121 C 0.56702 0.52132 0.50297 0.0
C122 C 0.66454 0.57287 0.49963 0.0
C123 C 0.68028 0.51285 0.56812 0.0
C124 C 0.58264 0.45966 0.57268 0.0
H125 H 0.69424 0.61652 0.47091 0.0
H126 H 0.72449 0.51304 0.59466 0.0
H127 H 0.8002 0.85125 0.54524 0.0
H128 H 0.67522 0.75291 0.6693 0.0
H129 H 0.97892 0.56394 0.43338 0.0
H130 H 0.52529 0.53009 0.47797 0.0
H131 H 0.55282 0.41708 0.60199 0.0
C132 C 0.04272 0.73298 0.78778 0.0
C133 C 0.95409 0.703 0.80381 0.0
N134 N 0.90794 0.72295 0.77312 0.0
N135 N 0.05186 0.77273 0.74756 0.0
C136 C 0.96813 0.76594 0.73968 0.0
H137 H 0.09844 0.73035 0.80537 0.0
Co138 Co 0.16162 0.83481 0.71492 0.0
C139 C 0.06415 0.85132 0.62722 0.0
O140 O 0.11847 0.9322 0.60791 0.0
N141 N 0.27322 0.89817 0.68326 0.0
C142 C 0.38416 0.96218 0.63176 0.0
C143 C 0.29052 0.89994 0.63948 0.0
C144 C 0.35721 0.95812 0.70145 0.0
N145 N 0.4259 0.99886 0.67086 0.0
O146 O 0.17382 0.95308 0.73288 0.0
H147 H 0.239 0.8581 0.61475 0.0
H148 H 0.36774 0.97177 0.73662 0.0
O149 O 0.08941 0.82958 0.66315 0.0
C150 C 0.20228 0.97486 0.77274 0.0
O151 O 0.22379 0.91983 0.79514 0.0
N152 N 0.14911 0.71724 0.70067 0.0
C153 C 0.06153 0.52272 0.70759 0.0
C154 C 0.05014 0.56481 0.66963 0.0
C155 C 0.09612 0.66234 0.66629 0.0
C156 C 0.17189 0.67808 0.73479 0.0
C157 C 0.12744 0.58044 0.73935 0.0
H158 H 0.08217 0.69203 0.63758 0.0
H159 H 0.21592 0.72229 0.76133 0.0
H160 H 0.95341 0.798 0.7119 0.0
H161 H 0.92676 0.67301 0.83596 0.0
H162 H 0.41943 0.97672 0.60005 0.0
H163 H 0.99964 0.52308 0.64464 0.0
H164 H 0.14021 0.55062 0.76866 0.0
C165 C 0.31419 0.0405 0.95445 0.0
C166 C 0.25554 0.95188 0.97048 0.0
N167 N 0.18944 0.90573 0.93978 0.0
N168 N 0.28358 0.04965 0.91423 0.0
C169 C 0.20665 0.96592 0.90635 0.0
H170 H 0.37254 0.09623 0.97204 0.0
Co171 Co 0.33127 0.15941 0.88159 0.0
C172 C 0.21728 0.06194 0.79389 0.0
O173 O 0.19073 0.11626 0.77458 0.0
N174 N 0.3795 0.27101 0.84993 0.0
C175 C 0.42644 0.38194 0.79842 0.0
C176 C 0.39504 0.2883 0.80615 0.0
C177 C 0.40355 0.355 0.86812 0.0
N178 N 0.43149 0.42369 0.83752 0.0
O179 O 0.22519 0.1716 0.89954 0.0
H180 H 0.38536 0.23678 0.78142 0.0
H181 H 0.40043 0.36553 0.90329 0.0
O182 O 0.26429 0.08719 0.82982 0.0
C183 C 0.23189 0.20008 0.93941 0.0
O184 O 0.30842 0.22159 0.96181 0.0
N185 N 0.43633 0.1469 0.86734 0.0
C186 C 0.54326 0.05932 0.87426 0.0
C187 C 0.48979 0.04794 0.8363 0.0
C188 C 0.43824 0.09391 0.83296 0.0
C189 C 0.49827 0.16968 0.90146 0.0
C190 C 0.55146 0.12523 0.90602 0.0
H191 H 0.39459 0.07996 0.80425 0.0
H192 H 0.49808 0.2137 0.928 0.0
H193 H 0.15986 0.9512 0.87857 0.0
H194 H 0.25821 0.92455 1.00263 0.0
H195 H 0.44717 0.41721 0.76672 0.0
H196 H 0.48103 0.99744 0.8113 0.0
H197 H 0.59404 0.13799 0.93533 0.0
C198 C 0.69889 0.73263 0.7652 0.0
C199 C 0.75756 0.7027 0.74913 0.0
N200 N 0.82397 0.72315 0.77971 0.0
N201 N 0.72973 0.77272 0.80534 0.0
C202 C 0.80685 0.7662 0.81315 0.0
H203 H 0.64033 0.7297 0.74767 0.0
Co204 Co 0.68205 0.83479 0.83798 0.0
C205 C 0.7961 0.85133 0.92567 0.0
O206 O 0.82261 0.93218 0.945 0.0
N207 N 0.6338 0.89814 0.86965 0.0
C208 C 0.5868 0.96207 0.92115 0.0
C209 C 0.61827 0.89989 0.91342 0.0
C210 C 0.60969 0.95803 0.85145 0.0
N211 N 0.58165 0.99869 0.88205 0.0
O212 O 0.7881 0.95306 0.82001 0.0
H213 H 0.62801 0.85809 0.93816 0.0
H214 H 0.61283 0.9717 0.81628 0.0
O215 O 0.74908 0.8296 0.88974 0.0
C216 C 0.78148 0.97479 0.78013 0.0
O217 O 0.70501 0.9197 0.7577 0.0
N218 N 0.57701 0.71721 0.85225 0.0
C219 C 0.47 0.5227 0.84533 0.0
C220 C 0.52362 0.56476 0.88325 0.0
C221 C 0.5752 0.66228 0.8866 0.0
C222 C 0.51494 0.67808 0.81819 0.0
C223 C 0.46171 0.58045 0.81362 0.0
H224 H 0.61895 0.69194 0.91528 0.0
H225 H 0.51505 0.72232 0.79167 0.0
H226 H 0.85375 0.79844 0.84088 0.0
H227 H 0.75464 0.67234 0.71705 0.0
H228 H 0.56611 0.97663 0.95287 0.0
H229 H 0.53246 0.52301 0.9082 0.0
H230 H 0.41901 0.55064 0.78434 0.0
C231 C 0.97071 0.69668 0.93186 0.0
C232 C 0.05931 0.75535 0.9158 0.0
N233 N 0.10527 0.82176 0.94638 0.0
N234 N 0.96147 0.72752 0.97201 0.0
C235 C 0.0451 0.80463 0.97982 0.0
H236 H 0.91508 0.63812 0.91433 0.0
Co237 Co 0.85171 0.67983 1.00465 0.0
C238 C 0.94922 0.79387 0.09233 0.0
O239 O 0.89487 0.82038 0.11167 0.0
N240 N 0.74012 0.63158 0.03631 0.0
C241 C 0.62919 0.58458 0.08782 0.0
C242 C 0.72284 0.61605 0.08009 0.0
C243 C 0.65611 0.60748 1.01812 0.0
N244 N 0.58741 0.57943 0.04872 0.0
O245 O 0.83949 0.78588 0.98668 0.0
H246 H 0.77438 0.62578 0.10482 0.0
H247 H 0.64558 0.61062 0.98295 0.0
O248 O 0.92394 0.74686 0.0564 0.0
C249 C 0.81113 0.77926 0.9468 0.0
O250 O 0.78976 0.70279 0.92436 0.0
N251 N 0.86426 0.57479 1.01892 0.0
C252 C 0.95175 0.46778 1.01199 0.0
C253 C 0.96331 0.5214 0.04991 0.0
C254 C 0.91737 0.57298 0.05326 0.0
C255 C 0.84131 0.51272 0.98485 0.0
C256 C 0.88572 0.45949 0.98028 0.0
H257 H 0.93145 0.61672 0.08195 0.0
H258 H 0.79719 0.51283 0.95833 0.0
H259 H 0.05976 0.85153 1.00754 0.0
H260 H 0.08674 0.75243 0.88372 0.0
H261 H 0.59394 0.56387 0.11953 0.0
H262 H 0.0139 0.53024 0.07487 0.0
H263 H 0.87283 0.41679 0.951 0.0
C264 C 0.27848 0.96849 0.09853 0.0
C265 C 0.30841 0.05708 0.08247 0.0
N266 N 0.28796 0.10304 0.11305 0.0
N267 N 0.2384 0.95924 0.13868 0.0
C268 C 0.24491 0.04287 0.14649 0.0
H269 H 0.28141 0.91286 0.081 0.0
Co270 Co 0.17633 0.84949 0.17132 0.0
C271 C 0.15978 0.94699 0.259 0.0
O272 O 0.07893 0.89264 0.27833 0.0
N273 N 0.11297 0.73789 0.20298 0.0
C274 C 0.04905 0.62696 0.25448 0.0
C275 C 0.11123 0.72061 0.24675 0.0
C276 C 0.05308 0.65388 0.18478 0.0
N277 N 0.01242 0.58518 0.21538 0.0
O278 O 0.05806 0.83727 0.15335 0.0
H279 H 0.15303 0.77215 0.27149 0.0
H280 H 0.0394 0.64335 0.14962 0.0
O281 O 0.18152 0.92171 0.22307 0.0
C282 C 0.03632 0.80891 0.11347 0.0
O283 O 0.09141 0.78754 0.09103 0.0
N284 N 0.29391 0.86203 0.18558 0.0
C285 C 0.48841 0.94952 0.17866 0.0
C286 C 0.44636 0.96108 0.21658 0.0
C287 C 0.34883 0.91515 0.21993 0.0
C288 C 0.33303 0.83908 0.15152 0.0
C289 C 0.43066 0.88348 0.14695 0.0
H290 H 0.31918 0.92924 0.24862 0.0
H291 H 0.28879 0.79495 0.12501 0.0
H292 H 0.21267 0.05753 0.17421 0.0
H293 H 0.33877 0.08452 0.05039 0.0
H294 H 0.0345 0.59171 0.2862 0.0
H295 H 0.48811 0.01168 0.24154 0.0
H296 H 0.46047 0.87059 0.11767 0.0
C297 C 0.31443 0.27626 0.2652 0.0
C298 C 0.25577 0.30619 0.24914 0.0
N299 N 0.18935 0.28574 0.27972 0.0
N300 N 0.28359 0.23618 0.30534 0.0
C301 C 0.20647 0.24269 0.31315 0.0
H302 H 0.373 0.27919 0.24767 0.0
Co303 Co 0.33128 0.17411 0.33799 0.0
C304 C 0.21723 0.15757 0.42567 0.0
O305 O 0.19072 0.07671 0.445 0.0
N306 N 0.37952 0.11075 0.36965 0.0
C307 C 0.42652 0.04682 0.42115 0.0
C308 C 0.39505 0.109 0.41342 0.0
C309 C 0.40363 0.05086 0.35145 0.0
N310 N 0.43168 0.0102 0.38205 0.0
O311 O 0.22523 0.05583 0.32002 0.0
H312 H 0.38531 0.1508 0.43816 0.0
H313 H 0.40049 0.03719 0.31628 0.0
O314 O 0.26424 0.1793 0.38974 0.0
C315 C 0.23185 0.0341 0.28014 0.0
O316 O 0.30832 0.08919 0.2577 0.0
N317 N 0.43631 0.29169 0.35226 0.0
C318 C 0.54333 0.48619 0.34533 0.0
C319 C 0.48971 0.44414 0.38325 0.0
C320 C 0.43812 0.34662 0.3866 0.0
C321 C 0.49839 0.33081 0.31819 0.0
C322 C 0.55162 0.42844 0.31362 0.0
H323 H 0.39438 0.31696 0.41529 0.0
H324 H 0.49828 0.28656 0.29168 0.0
H325 H 0.15958 0.21045 0.34088 0.0
H326 H 0.25869 0.33655 0.21706 0.0
H327 H 0.44722 0.03227 0.45287 0.0
H328 H 0.48086 0.4859 0.4082 0.0
H329 H 0.59432 0.45824 0.28434 0.0
C330 C 0.04261 0.31222 0.43186 0.0
C331 C 0.95401 0.25355 0.4158 0.0
N332 N 0.90805 0.18714 0.44638 0.0
N333 N 0.05185 0.28138 0.47201 0.0
C334 C 0.96822 0.20427 0.47982 0.0
H335 H 0.09824 0.37078 0.41434 0.0
Co336 Co 0.16161 0.32907 0.50465 0.0
C337 C 0.06411 0.21502 0.59234 0.0
O338 O 0.11846 0.18852 0.61167 0.0
N339 N 0.27321 0.37731 0.53632 0.0
C340 C 0.38414 0.42432 0.58782 0.0
C341 C 0.29049 0.39285 0.58009 0.0
C342 C 0.35721 0.40142 0.51812 0.0
N343 N 0.42592 0.42947 0.54872 0.0
O344 O 0.17383 0.22302 0.48668 0.0
H345 H 0.23895 0.38311 0.60482 0.0
H346 H 0.36774 0.39828 0.48295 0.0
O347 O 0.08939 0.26204 0.55641 0.0
C348 C 0.20219 0.22964 0.4468 0.0
O349 O 0.22356 0.3061 0.42437 0.0
N350 N 0.14907 0.43411 0.51892 0.0
C351 C 0.06158 0.54112 0.51199 0.0
C352 C 0.05001 0.4875 0.54991 0.0
C353 C 0.09595 0.43591 0.55326 0.0
C354 C 0.17202 0.49617 0.48485 0.0
C355 C 0.12761 0.5494 0.48028 0.0
H356 H 0.08187 0.39217 0.58195 0.0
H357 H 0.21614 0.49606 0.45834 0.0
H358 H 0.95357 0.15737 0.50754 0.0
H359 H 0.92658 0.25647 0.38372 0.0
H360 H 0.4194 0.44502 0.61953 0.0
H361 H 0.99941 0.47866 0.57487 0.0
H362 H 0.14051 0.5921 0.451 0.0
C363 C 0.73484 0.04041 0.59853 0.0
C364 C 0.70491 0.95181 0.58247 0.0
N365 N 0.72536 0.90585 0.61305 0.0
N366 N 0.77493 0.04965 0.63868 0.0
C367 C 0.76841 0.96602 0.64649 0.0
H368 H 0.73191 0.09604 0.58101 0.0
Co369 Co 0.837 0.15941 0.67132 0.0
C370 C 0.85354 0.0619 0.75901 0.0
O371 O 0.93439 0.11626 0.77834 0.0
N372 N 0.90035 0.271 0.70298 0.0
C373 C 0.96429 0.38194 0.75449 0.0
C374 C 0.90211 0.28829 0.74676 0.0
C375 C 0.96024 0.355 0.68479 0.0
N376 N 1.0009 0.42371 0.71539 0.0
O377 O 0.95527 0.17163 0.65335 0.0
H378 H 0.86031 0.23675 0.77149 0.0
H379 H 0.97391 0.36553 0.64962 0.0
O380 O 0.83181 0.08718 0.72307 0.0
C381 C 0.977 0.19998 0.61347 0.0
O382 O 0.92191 0.22136 0.59104 0.0
N383 N 0.71942 0.14686 0.68559 0.0
C384 C 0.52492 0.05937 0.67866 0.0
C385 C 0.56697 0.0478 0.71658 0.0
C386 C 0.66449 0.09374 0.71993 0.0
C387 C 0.6803 0.16981 0.65152 0.0
C388 C 0.58266 0.12541 0.64695 0.0
H389 H 0.69415 0.07965 0.74862 0.0
H390 H 0.72453 0.21394 0.62501 0.0
H391 H 0.80065 0.95136 0.67421 0.0
H392 H 0.67455 0.92437 0.55039 0.0
H393 H 0.97884 0.4172 0.7862 0.0
H394 H 0.52521 0.9972 0.74154 0.0
H395 H 0.55286 0.1383 0.61768 0.0
loop_
_geom_bond_atom_site_label_1
_geom_bond_atom_site_label_2
_geom_bond_distance
_geom_bond_site_symmetry_2
_ccdc_geom_bond_type
C0 C1 1.351 . S
C0 N3 1.368 . S
C0 H5 0.931 . S
C1 C0 1.351 . S
C1 N2 1.373 . S
C1 H29 0.930 . S
N2 C1 1.373 . S
N2 C4 1.340 . S
N3 C0 1.368 . S
N3 C4 1.321 . S
N3 Co6 2.135 . S
C4 N2 1.340 . S
C4 N3 1.321 . S
C4 H28 0.930 . S
H5 C0 0.931 . S
Co6 N3 2.135 . S
Co6 N9 2.121 1_554 S
Co6 O14 2.055 1_455 S
Co6 O17 2.039 1_554 S
Co6 N20 2.140 . S
C7 O8 1.227 . S
C7 O17 1.265 . S
O8 C7 1.227 . S
N9 Co6 2.121 1_556 S
N9 C11 1.375 . S
N9 C12 1.313 . S
C10 C11 1.338 . S
C10 N13 1.377 . S
C10 H30 0.930 . S
C11 N9 1.375 . S
C11 C10 1.338 . S
C11 H15 0.931 . S
C12 N9 1.313 . S
C12 N13 1.344 . S
C12 H16 0.930 1_556 S
N13 C10 1.377 . S
N13 C12 1.344 . S
O14 Co6 2.055 1_655 S
O14 C18 1.253 1_655 S
H15 C11 0.931 . S
H16 C12 0.930 1_554 S
O17 Co6 2.039 1_556 S
O17 C7 1.265 . S
C18 O14 1.253 1_455 S
C18 O19 1.227 . S
O19 C18 1.227 . S
N20 Co6 2.140 . S
N20 C23 1.346 . S
N20 C24 1.345 . S
C21 C22 1.387 . S
C21 C25 1.391 . S
C22 C21 1.387 . S
C22 C23 1.369 . S
C22 H31 0.929 . S
C23 N20 1.346 . S
C23 C22 1.369 . S
C23 H26 0.928 . S
C24 N20 1.345 . S
C24 C25 1.371 . S
C24 H27 0.931 . S
C25 C21 1.391 . S
C25 C24 1.371 . S
C25 H32 0.930 . S
H26 C23 0.928 . S
H27 C24 0.931 . S
H28 C4 0.930 . S
H29 C1 0.930 . S
H30 C10 0.930 . S
H31 C22 0.929 . S
H32 C25 0.930 . S
C33 C34 1.351 1_655 S
C33 N36 1.368 . S
C33 H38 0.931 . S
C34 C33 1.351 1_455 S
C34 N35 1.373 . S
C34 H62 0.930 . S
N35 C34 1.373 . S
N35 C37 1.340 . S
N36 C33 1.368 . S
N36 C37 1.321 1_655 S
N36 Co39 2.135 . S
C37 N35 1.340 . S
C37 N36 1.321 1_455 S
C37 H61 0.930 . S
H38 C33 0.931 . S
Co39 N36 2.135 . S
Co39 N42 2.121 . S
Co39 O47 2.055 1_545 S
Co39 O50 2.039 . S
Co39 N53 2.140 . S
C40 O41 1.227 . S
C40 O50 1.265 . S
O41 C40 1.227 . S
N42 Co39 2.121 . S
N42 C44 1.375 . S
N42 C45 1.313 . S
C43 C44 1.338 . S
C43 N46 1.377 . S
C43 H63 0.930 . S
C44 N42 1.375 . S
C44 C43 1.338 . S
C44 H48 0.931 . S
C45 N42 1.313 . S
C45 N46 1.344 . S
C45 H49 0.930 . S
N46 C43 1.377 . S
N46 C45 1.344 . S
O47 Co39 2.055 1_565 S
O47 C51 1.253 1_565 S
H48 C44 0.931 . S
H49 C45 0.930 . S
O50 Co39 2.039 . S
O50 C40 1.265 . S
C51 O47 1.253 1_545 S
C51 O52 1.227 . S
O52 C51 1.227 . S
N53 Co39 2.140 . S
N53 C56 1.346 . S
N53 C57 1.345 . S
C54 C55 1.387 1_655 S
C54 C58 1.391 . S
C55 C54 1.387 1_455 S
C55 C56 1.369 1_455 S
C55 H64 0.929 . S
C56 N53 1.346 . S
C56 C55 1.369 1_655 S
C56 H59 0.928 1_655 S
C57 N53 1.345 . S
C57 C58 1.371 . S
C57 H60 0.931 . S
C58 C54 1.391 . S
C58 C57 1.371 . S
C58 H65 0.930 . S
H59 C56 0.928 1_455 S
H60 C57 0.931 . S
H61 C37 0.930 . S
H62 C34 0.930 . S
H63 C43 0.930 . S
H64 C55 0.929 . S
H65 C58 0.930 . S
C66 C67 1.351 1_565 S
C66 N69 1.368 . S
C66 H71 0.931 . S
C67 C66 1.351 1_545 S
C67 N68 1.373 . S
C67 H95 0.930 . S
N68 C67 1.373 . S
N68 C70 1.340 . S
N69 C66 1.368 . S
N69 C70 1.321 1_565 S
N69 Co72 2.135 . S
C70 N68 1.340 . S
C70 N69 1.321 1_545 S
C70 H94 0.930 . S
H71 C66 0.931 . S
Co72 N69 2.135 . S
Co72 N75 2.121 . S
Co72 O80 2.055 . S
Co72 O83 2.039 . S
Co72 N86 2.140 . S
C73 O74 1.227 . S
C73 O83 1.265 . S
O74 C73 1.227 . S
N75 Co72 2.121 . S
N75 C77 1.375 . S
N75 C78 1.313 . S
C76 C77 1.338 . S
C76 N79 1.377 . S
C76 H96 0.930 . S
C77 N75 1.375 . S
C77 C76 1.338 . S
C77 H81 0.931 . S
C78 N75 1.313 . S
C78 N79 1.344 . S
C78 H82 0.930 . S
N79 C76 1.377 . S
N79 C78 1.344 . S
O80 Co72 2.055 . S
O80 C84 1.253 . S
H81 C77 0.931 . S
H82 C78 0.930 . S
O83 Co72 2.039 . S
O83 C73 1.265 . S
C84 O80 1.253 . S
C84 O85 1.227 . S
O85 C84 1.227 . S
N86 Co72 2.140 . S
N86 C89 1.346 . S
N86 C90 1.345 . S
C87 C88 1.387 1_565 S
C87 C91 1.391 . S
C88 C87 1.387 1_545 S
C88 C89 1.369 1_545 S
C88 H97 0.929 . S
C89 N86 1.346 . S
C89 C88 1.369 1_565 S
C89 H92 0.928 1_565 S
C90 N86 1.345 . S
C90 C91 1.371 . S
C90 H93 0.931 . S
C91 C87 1.391 . S
C91 C90 1.371 . S
C91 H98 0.930 . S
H92 C89 0.928 1_545 S
H93 C90 0.931 . S
H94 C70 0.930 . S
H95 C67 0.930 . S
H96 C76 0.930 . S
H97 C88 0.929 . S
H98 C91 0.930 . S
C99 C100 1.351 . S
C99 N102 1.368 . S
C99 H104 0.931 . S
C100 C99 1.351 . S
C100 N101 1.373 . S
C100 H128 0.930 . S
N101 C100 1.373 . S
N101 C103 1.340 . S
N102 C99 1.368 . S
N102 C103 1.321 . S
N102 Co105 2.135 . S
C103 N101 1.340 . S
C103 N102 1.321 . S
C103 H127 0.930 . S
H104 C99 0.931 . S
Co105 N102 2.135 . S
Co105 N108 2.121 . S
Co105 O113 2.055 1_655 S
Co105 O116 2.039 . S
Co105 N119 2.140 . S
C106 O107 1.227 . S
C106 O116 1.265 . S
O107 C106 1.227 . S
N108 Co105 2.121 . S
N108 C110 1.375 . S
N108 C111 1.313 . S
C109 C110 1.338 . S
C109 N112 1.377 . S
C109 H129 0.930 . S
C110 N108 1.375 . S
C110 C109 1.338 . S
C110 H114 0.931 . S
C111 N108 1.313 . S
C111 N112 1.344 . S
C111 H115 0.930 . S
N112 C109 1.377 . S
N112 C111 1.344 . S
O113 Co105 2.055 1_455 S
O113 C117 1.253 1_455 S
H114 C110 0.931 . S
H115 C111 0.930 . S
O116 Co105 2.039 . S
O116 C106 1.265 . S
C117 O113 1.253 1_655 S
C117 O118 1.227 . S
O118 C117 1.227 . S
N119 Co105 2.140 . S
N119 C122 1.346 . S
N119 C123 1.345 . S
C120 C121 1.387 . S
C120 C124 1.391 . S
C121 C120 1.387 . S
C121 C122 1.369 . S
C121 H130 0.929 . S
C122 N119 1.346 . S
C122 C121 1.369 . S
C122 H125 0.928 . S
C123 N119 1.345 . S
C123 C124 1.371 . S
C123 H126 0.931 . S
C124 C120 1.391 . S
C124 C123 1.371 . S
C124 H131 0.930 . S
H125 C122 0.928 . S
H126 C123 0.931 . S
H127 C103 0.930 . S
H128 C100 0.930 . S
H129 C109 0.930 . S
H130 C121 0.929 . S
H131 C124 0.930 . S
C132 C133 1.351 1_455 S
C132 N135 1.368 . S
C132 H137 0.931 . S
C133 C132 1.351 1_655 S
C133 N134 1.373 . S
C133 H161 0.930 . S
N134 C133 1.373 . S
N134 C136 1.340 . S
N135 C132 1.368 . S
N135 C136 1.321 1_455 S
N135 Co138 2.135 . S
C136 N134 1.340 . S
C136 N135 1.321 1_655 S
C136 H160 0.930 . S
H137 C132 0.931 . S
Co138 N135 2.135 . S
Co138 N141 2.121 . S
Co138 O146 2.055 1_565 S
Co138 O149 2.039 . S
Co138 N152 2.140 . S
C139 O140 1.227 . S
C139 O149 1.265 . S
O140 C139 1.227 . S
N141 Co138 2.121 . S
N141 C143 1.375 . S
N141 C144 1.313 . S
C142 C143 1.338 . S
C142 N145 1.377 . S
C142 H162 0.930 . S
C143 N141 1.375 . S
C143 C142 1.338 . S
C143 H147 0.931 . S
C144 N141 1.313 . S
C144 N145 1.344 . S
C144 H148 0.930 . S
N145 C142 1.377 . S
N145 C144 1.344 . S
O146 Co138 2.055 1_545 S
O146 C150 1.253 1_545 S
H147 C143 0.931 . S
H148 C144 0.930 . S
O149 Co138 2.039 . S
O149 C139 1.265 . S
C150 O146 1.253 1_565 S
C150 O151 1.227 . S
O151 C150 1.227 . S
N152 Co138 2.140 . S
N152 C155 1.346 . S
N152 C156 1.345 . S
C153 C154 1.387 1_455 S
C153 C157 1.391 . S
C154 C153 1.387 1_655 S
C154 C155 1.369 1_655 S
C154 H163 0.929 . S
C155 N152 1.346 . S
C155 C154 1.369 1_455 S
C155 H158 0.928 1_455 S
C156 N152 1.345 . S
C156 C157 1.371 . S
C156 H159 0.931 . S
C157 C153 1.391 . S
C157 C156 1.371 . S
C157 H164 0.930 . S
H158 C155 0.928 1_655 S
H159 C156 0.931 . S
H160 C136 0.930 . S
H161 C133 0.930 . S
H162 C142 0.930 . S
H163 C154 0.929 . S
H164 C157 0.930 . S
C165 C166 1.351 1_545 S
C165 N168 1.368 . S
C165 H170 0.931 . S
C166 C165 1.351 1_565 S
C166 N167 1.373 . S
C166 H194 0.930 . S
N167 C166 1.373 . S
N167 C169 1.340 . S
N168 C165 1.368 . S
N168 C169 1.321 1_545 S
N168 Co171 2.135 . S
C169 N167 1.340 . S
C169 N168 1.321 1_565 S
C169 H193 0.930 . S
H170 C165 0.931 . S
Co171 N168 2.135 . S
Co171 N174 2.121 . S
Co171 O179 2.055 . S
Co171 O182 2.039 . S
Co171 N185 2.140 . S
C172 O173 1.227 . S
C172 O182 1.265 . S
O173 C172 1.227 . S
N174 Co171 2.121 . S
N174 C176 1.375 . S
N174 C177 1.313 . S
C175 C176 1.338 . S
C175 N178 1.377 . S
C175 H195 0.930 . S
C176 N174 1.375 . S
C176 C175 1.338 . S
C176 H180 0.931 . S
C177 N174 1.313 . S
C177 N178 1.344 . S
C177 H181 0.930 . S
N178 C175 1.377 . S
N178 C177 1.344 . S
O179 Co171 2.055 . S
O179 C183 1.253 . S
H180 C176 0.931 . S
H181 C177 0.930 . S
O182 Co171 2.039 . S
O182 C172 1.265 . S
C183 O179 1.253 . S
C183 O184 1.227 . S
O184 C183 1.227 . S
N185 Co171 2.140 . S
N185 C188 1.346 . S
N185 C189 1.345 . S
C186 C187 1.387 1_545 S
C186 C190 1.391 . S
C187 C186 1.387 1_565 S
C187 C188 1.369 1_565 S
C187 H196 0.929 . S
C188 N185 1.346 . S
C188 C187 1.369 1_545 S
C188 H191 0.928 1_545 S
C189 N185 1.345 . S
C189 C190 1.371 . S
C189 H192 0.931 . S
C190 C186 1.391 . S
C190 C189 1.371 . S
C190 H197 0.930 . S
H191 C188 0.928 1_565 S
H192 C189 0.931 . S
H193 C169 0.930 . S
H194 C166 0.930 . S
H195 C175 0.930 . S
H196 C187 0.929 . S
H197 C190 0.930 . S
C198 C199 1.351 . S
C198 N201 1.368 . S
C198 H203 0.931 . S
C199 C198 1.351 . S
C199 N200 1.373 . S
C199 H227 0.930 . S
N200 C199 1.373 . S
N200 C202 1.340 . S
N201 C198 1.368 . S
N201 C202 1.321 . S
N201 Co204 2.135 . S
C202 N200 1.340 . S
C202 N201 1.321 . S
C202 H226 0.930 . S
H203 C198 0.931 . S
Co204 N201 2.135 . S
Co204 N207 2.121 . S
Co204 O212 2.055 1_565 S
Co204 O215 2.039 . S
Co204 N218 2.140 . S
C205 O206 1.227 . S
C205 O215 1.265 . S
O206 C205 1.227 . S
N207 Co204 2.121 . S
N207 C209 1.375 . S
N207 C210 1.313 . S
C208 C209 1.338 . S
C208 N211 1.377 . S
C208 H228 0.930 . S
C209 N207 1.375 . S
C209 C208 1.338 . S
C209 H213 0.931 . S
C210 N207 1.313 . S
C210 N211 1.344 . S
C210 H214 0.930 . S
N211 C208 1.377 . S
N211 C210 1.344 . S
O212 Co204 2.055 1_545 S
O212 C216 1.253 1_545 S
H213 C209 0.931 . S
H214 C210 0.930 . S
O215 Co204 2.039 . S
O215 C205 1.265 . S
C216 O212 1.253 1_565 S
C216 O217 1.227 . S
O217 C216 1.227 . S
N218 Co204 2.140 . S
N218 C221 1.346 . S
N218 C222 1.345 . S
C219 C220 1.387 . S
C219 C223 1.391 . S
C220 C219 1.387 . S
C220 C221 1.369 . S
C220 H229 0.929 . S
C221 N218 1.346 . S
C221 C220 1.369 . S
C221 H224 0.928 . S
C222 N218 1.345 . S
C222 C223 1.371 . S
C222 H225 0.931 . S
C223 C219 1.391 . S
C223 C222 1.371 . S
C223 H230 0.930 . S
H224 C221 0.928 . S
H225 C222 0.931 . S
H226 C202 0.930 . S
H227 C199 0.930 . S
H228 C208 0.930 . S
H229 C220 0.929 . S
H230 C223 0.930 . S
C231 C232 1.351 1_655 S
C231 N234 1.368 . S
C231 H236 0.931 . S
C232 C231 1.351 1_455 S
C232 N233 1.373 . S
C232 H260 0.930 . S
N233 C232 1.373 . S
N233 C235 1.340 . S
N234 C231 1.368 . S
N234 C235 1.321 1_655 S
N234 Co237 2.135 1_556 S
C235 N233 1.340 . S
C235 N234 1.321 1_455 S
C235 H259 0.930 1_556 S
H236 C231 0.931 . S
Co237 N234 2.135 1_554 S
Co237 N240 2.121 . S
Co237 O245 2.055 1_554 S
Co237 O248 2.039 . S
Co237 N251 2.140 1_554 S
C238 O239 1.227 . S
C238 O248 1.265 . S
O239 C238 1.227 . S
N240 Co237 2.121 . S
N240 C242 1.375 . S
N240 C243 1.313 . S
C241 C242 1.338 . S
C241 N244 1.377 . S
C241 H261 0.930 . S
C242 N240 1.375 . S
C242 C241 1.338 . S
C242 H246 0.931 . S
C243 N240 1.313 . S
C243 N244 1.344 . S
C243 H247 0.931 1_554 S
N244 C241 1.377 . S
N244 C243 1.344 . S
O245 Co237 2.055 1_556 S
O245 C249 1.253 . S
H246 C242 0.931 . S
H247 C243 0.931 1_556 S
O248 Co237 2.039 . S
O248 C238 1.265 . S
C249 O245 1.253 . S
C249 O250 1.227 . S
O250 C249 1.227 . S
N251 Co237 2.140 1_556 S
N251 C254 1.346 . S
N251 C255 1.345 . S
C252 C253 1.387 1_655 S
C252 C256 1.391 . S
C253 C252 1.387 1_455 S
C253 C254 1.369 1_455 S
C253 H262 0.929 . S
C254 N251 1.346 . S
C254 C253 1.369 1_655 S
C254 H257 0.928 1_656 S
C255 N251 1.345 . S
C255 C256 1.371 . S
C255 H258 0.931 . S
C256 C252 1.391 . S
C256 C255 1.371 . S
C256 H263 0.930 . S
H257 C254 0.928 1_454 S
H258 C255 0.931 . S
H259 C235 0.930 1_554 S
H260 C232 0.930 . S
H261 C241 0.930 . S
H262 C253 0.929 . S
H263 C256 0.930 . S
C264 C265 1.351 1_565 S
C264 N267 1.368 . S
C264 H269 0.931 . S
C265 C264 1.351 1_545 S
C265 N266 1.373 . S
C265 H293 0.930 . S
N266 C265 1.373 . S
N266 C268 1.340 . S
N267 C264 1.368 . S
N267 C268 1.321 1_565 S
N267 Co270 2.135 . S
C268 N266 1.340 . S
C268 N267 1.321 1_545 S
C268 H292 0.930 . S
H269 C264 0.931 . S
Co270 N267 2.135 . S
Co270 N273 2.121 . S
Co270 O278 2.055 1_455 S
Co270 O281 2.039 . S
Co270 N284 2.140 . S
C271 O272 1.227 . S
C271 O281 1.265 . S
O272 C271 1.227 . S
N273 Co270 2.121 . S
N273 C275 1.375 . S
N273 C276 1.313 . S
C274 C275 1.338 . S
C274 N277 1.377 . S
C274 H294 0.930 . S
C275 N273 1.375 . S
C275 C274 1.338 . S
C275 H279 0.931 . S
C276 N273 1.313 . S
C276 N277 1.344 . S
C276 H280 0.930 . S
N277 C274 1.377 . S
N277 C276 1.344 . S
O278 Co270 2.055 1_655 S
O278 C282 1.253 1_655 S
H279 C275 0.931 . S
H280 C276 0.930 . S
O281 Co270 2.039 . S
O281 C271 1.265 . S
C282 O278 1.253 1_455 S
C282 O283 1.227 . S
O283 C282 1.227 . S
N284 Co270 2.140 . S
N284 C287 1.346 . S
N284 C288 1.345 . S
C285 C286 1.387 1_565 S
C285 C289 1.391 . S
C286 C285 1.387 1_545 S
C286 C287 1.369 1_545 S
C286 H295 0.929 . S
C287 N284 1.346 . S
C287 C286 1.369 1_565 S
C287 H290 0.928 1_565 S
C288 N284 1.345 . S
C288 C289 1.371 . S
C288 H291 0.931 . S
C289 C285 1.391 . S
C289 C288 1.371 . S
C289 H296 0.930 . S
H290 C287 0.928 1_545 S
H291 C288 0.931 . S
H292 C268 0.930 . S
H293 C265 0.930 . S
H294 C274 0.930 . S
H295 C286 0.929 . S
H296 C289 0.930 . S
C297 C298 1.351 . S
C297 N300 1.368 . S
C297 H302 0.931 . S
C298 C297 1.351 . S
C298 N299 1.373 . S
C298 H326 0.930 . S
N299 C298 1.373 . S
N299 C301 1.340 . S
N300 C297 1.368 . S
N300 C301 1.321 . S
N300 Co303 2.135 . S
C301 N299 1.340 . S
C301 N300 1.321 . S
C301 H325 0.930 . S
H302 C297 0.931 . S
Co303 N300 2.135 . S
Co303 N306 2.121 . S
Co303 O311 2.055 1_545 S
Co303 O314 2.039 . S
Co303 N317 2.140 . S
C304 O305 1.227 . S
C304 O314 1.265 . S
O305 C304 1.227 . S
N306 Co303 2.121 . S
N306 C308 1.375 . S
N306 C309 1.313 . S
C307 C308 1.338 . S
C307 N310 1.377 . S
C307 H327 0.930 . S
C308 N306 1.375 . S
C308 C307 1.338 . S
C308 H312 0.931 . S
C309 N306 1.313 . S
C309 N310 1.344 . S
C309 H313 0.930 . S
N310 C307 1.377 . S
N310 C309 1.344 . S
O311 Co303 2.055 1_565 S
O311 C315 1.253 1_565 S
H312 C308 0.931 . S
H313 C309 0.930 . S
O314 Co303 2.039 . S
O314 C304 1.265 . S
C315 O311 1.253 1_545 S
C315 O316 1.227 . S
O316 C315 1.227 . S
N317 Co303 2.140 . S
N317 C320 1.346 . S
N317 C321 1.345 . S
C318 C319 1.387 . S
C318 C322 1.391 . S
C319 C318 1.387 . S
C319 C320 1.369 . S
C319 H328 0.929 . S
C320 N317 1.346 . S
C320 C319 1.369 . S
C320 H323 0.928 . S
C321 N317 1.345 . S
C321 C322 1.371 . S
C321 H324 0.931 . S
C322 C318 1.391 . S
C322 C321 1.371 . S
C322 H329 0.930 . S
H323 C320 0.928 . S
H324 C321 0.931 . S
H325 C301 0.930 . S
H326 C298 0.930 . S
H327 C307 0.930 . S
H328 C319 0.929 . S
H329 C322 0.930 . S
C330 C331 1.351 1_455 S
C330 N333 1.368 . S
C330 H335 0.931 . S
C331 C330 1.351 1_655 S
C331 N332 1.373 . S
C331 H359 0.930 . S
N332 C331 1.373 . S
N332 C334 1.340 . S
N333 C330 1.368 . S
N333 C334 1.321 1_455 S
N333 Co336 2.135 . S
C334 N332 1.340 . S
C334 N333 1.321 1_655 S
C334 H358 0.930 . S
H335 C330 0.931 . S
Co336 N333 2.135 . S
Co336 N339 2.121 . S
Co336 O344 2.055 . S
Co336 O347 2.039 . S
Co336 N350 2.140 . S
C337 O338 1.227 . S
C337 O347 1.265 . S
O338 C337 1.227 . S
N339 Co336 2.121 . S
N339 C341 1.375 . S
N339 C342 1.313 . S
C340 C341 1.338 . S
C340 N343 1.377 . S
C340 H360 0.930 . S
C341 N339 1.375 . S
C341 C340 1.338 . S
C341 H345 0.931 . S
C342 N339 1.313 . S
C342 N343 1.344 . S
C342 H346 0.930 . S
N343 C340 1.377 . S
N343 C342 1.344 . S
O344 Co336 2.055 . S
O344 C348 1.253 . S
H345 C341 0.931 . S
H346 C342 0.930 . S
O347 Co336 2.039 . S
O347 C337 1.265 . S
C348 O344 1.253 . S
C348 O349 1.227 . S
O349 C348 1.227 . S
N350 Co336 2.140 . S
N350 C353 1.346 . S
N350 C354 1.345 . S
C351 C352 1.387 1_455 S
C351 C355 1.391 . S
C352 C351 1.387 1_655 S
C352 C353 1.369 1_655 S
C352 H361 0.929 . S
C353 N350 1.346 . S
C353 C352 1.369 1_455 S
C353 H356 0.928 1_455 S
C354 N350 1.345 . S
C354 C355 1.371 . S
C354 H357 0.931 . S
C355 C351 1.391 . S
C355 C354 1.371 . S
C355 H362 0.930 . S
H356 C353 0.928 1_655 S
H357 C354 0.931 . S
H358 C334 0.930 . S
H359 C331 0.930 . S
H360 C340 0.930 . S
H361 C352 0.929 . S
H362 C355 0.930 . S
C363 C364 1.351 1_545 S
C363 N366 1.368 . S
C363 H368 0.931 . S
C364 C363 1.351 1_565 S
C364 N365 1.373 . S
C364 H392 0.930 . S
N365 C364 1.373 . S
N365 C367 1.340 . S
N366 C363 1.368 . S
N366 C367 1.321 1_545 S
N366 Co369 2.135 . S
C367 N365 1.340 . S
C367 N366 1.321 1_565 S
C367 H391 0.930 . S
H368 C363 0.931 . S
Co369 N366 2.135 . S
Co369 N372 2.121 . S
Co369 O377 2.055 1_655 S
Co369 O380 2.039 . S
Co369 N383 2.140 . S
C370 O371 1.227 . S
C370 O380 1.265 . S
O371 C370 1.227 . S
N372 Co369 2.121 . S
N372 C374 1.375 . S
N372 C375 1.313 . S
C373 C374 1.338 . S
C373 N376 1.377 . S
C373 H393 0.930 . S
C374 N372 1.375 . S
C374 C373 1.338 . S
C374 H378 0.931 . S
C375 N372 1.313 . S
C375 N376 1.344 . S
C375 H379 0.930 . S
N376 C373 1.377 . S
N376 C375 1.344 . S
O377 Co369 2.055 1_455 S
O377 C381 1.253 1_455 S
H378 C374 0.931 . S
H379 C375 0.930 . S
O380 Co369 2.039 . S
O380 C370 1.265 . S
C381 O377 1.253 1_655 S
C381 O382 1.227 . S
O382 C381 1.227 . S
N383 Co369 2.140 . S
N383 C386 1.346 . S
N383 C387 1.345 . S
C384 C385 1.387 1_545 S
C384 C388 1.391 . S
C385 C384 1.387 1_565 S
C385 C386 1.369 1_565 S
C385 H394 0.929 . S
C386 N383 1.346 . S
C386 C385 1.369 1_545 S
C386 H389 0.928 1_545 S
C387 N383 1.345 . S
C387 C388 1.371 . S
C387 H390 0.931 . S
C388 C384 1.391 . S
C388 C387 1.371 . S
C388 H395 0.930 . S
H389 C386 0.928 1_565 S
H390 C387 0.931 . S
H391 C367 0.930 . S
H392 C364 0.930 . S
H393 C373 0.930 . S
H394 C385 0.929 . S
H395 C388 0.930 . S
N2 N266 1.778 . S
N299 N35 1.778 . S
N332 N68 1.779 . S
N101 N365 1.778 . S
N134 N200 1.779 . S
N167 N233 1.779 . S
N244 C21 2.338 . S
C54 N277 2.338 1_655 S
N310 C87 2.338 1_545 S
N343 C120 2.338 . S
N376 C153 2.338 1_655 S
N211 C186 2.338 1_565 S
N178 C219 2.338 . S
C252 N13 2.338 1_655 S
C285 N46 2.338 1_565 S
N79 C318 2.338 . S
N112 C351 2.338 1_655 S
N145 C384 2.338 1_565 S
C183 C7 1.949 . S
C18 C40 1.950 1_455 S
C73 C51 1.950 1_565 S
C84 C106 1.949 . S
C117 C139 1.950 1_655 S
C150 C172 1.950 1_565 S
C205 C249 1.950 . S
C238 C282 1.950 1_655 S
C271 C315 1.949 1_565 S
C348 C304 1.949 . S
C381 C337 1.950 1_655 S
C370 C216 1.950 1_545 S
