# Generated by pormake.
# Topology wme, (6)-cn, num edge types: 1
# Building blocks:
#     Node 0, Type 0, BuildingBlock: KUMBOL_clean_sbu_0, # of connection points: 6
#     Node 1, Type 0, BuildingBlock: KUMBOL_clean_sbu_0, # of connection points: 6
#     Node 2, Type 0, BuildingBlock: KUMBOL_clean_sbu_0, # of connection points: 6
#     Node 3, Type 0, BuildingBlock: KUMBOL_clean_sbu_0, # of connection points: 6
#     Node 4, Type 0, BuildingBlock: KUMBOL_clean_sbu_0, # of connection points: 6
#     Node 5, Type 0, BuildingBlock: KUMBOL_clean_sbu_0, # of connection points: 6
#     Node 6, Type 0, BuildingBlock: KUMBOL_clean_sbu_0, # of connection points: 6
#     Node 7, Type 0, BuildingBlock: KUMBOL_clean_sbu_0, # of connection points: 6
#     Node 8, Type 0, BuildingBlock: KUMBOL_clean_sbu_0, # of connection points: 6
#     Node 9, Type 0, BuildingBlock: KUMBOL_clean_sbu_0, # of connection points: 6
#     Node 10, Type 0, BuildingBlock: KUMBOL_clean_sbu_0, # of connection points: 6
#     Node 11, Type 0, BuildingBlock: KUMBOL_clean_sbu_0, # of connection points: 6
#     Edge 12, Type (0, 0), BuildingBlock: TEMPAE_clean_linker_10, # of connection points: 2
#     Edge 13, Type (0, 0), BuildingBlock: TEMPAE_clean_linker_10, # of connection points: 2
#     Edge 14, Type (0, 0), BuildingBlock: TEMPAE_clean_linker_10, # of connection points: 2
#     Edge 15, Type (0, 0), BuildingBlock: TEMPAE_clean_linker_10, # of connection points: 2
#     Edge 16, Type (0, 0), BuildingBlock: TEMPAE_clean_linker_10, # of connection points: 2
#     Edge 17, Type (0, 0), BuildingBlock: TEMPAE_clean_linker_10, # of connection points: 2
#     Edge 18, Type (0, 0), BuildingBlock: TEMPAE_clean_linker_10, # of connection points: 2
#     Edge 19, Type (0, 0), BuildingBlock: TEMPAE_clean_linker_10, # of connection points: 2
#     Edge 20, Type (0, 0), BuildingBlock: TEMPAE_clean_linker_10, # of connection points: 2
#     Edge 21, Type (0, 0), BuildingBlock: TEMPAE_clean_linker_10, # of connection points: 2
#     Edge 22, Type (0, 0), BuildingBlock: TEMPAE_clean_linker_10, # of connection points: 2
#     Edge 23, Type (0, 0), BuildingBlock: TEMPAE_clean_linker_10, # of connection points: 2
#     Edge 24, Type (0, 0), BuildingBlock: TEMPAE_clean_linker_10, # of connection points: 2
#     Edge 25, Type (0, 0), BuildingBlock: TEMPAE_clean_linker_10, # of connection points: 2
#     Edge 26, Type (0, 0), BuildingBlock: TEMPAE_clean_linker_10, # of connection points: 2
#     Edge 27, Type (0, 0), BuildingBlock: TEMPAE_clean_linker_10, # of connection points: 2
#     Edge 28, Type (0, 0), BuildingBlock: TEMPAE_clean_linker_10, # of connection points: 2
#     Edge 29, Type (0, 0), BuildingBlock: TEMPAE_clean_linker_10, # of connection points: 2
#     Edge 30, Type (0, 0), BuildingBlock: TEMPAE_clean_linker_10, # of connection points: 2
#     Edge 31, Type (0, 0), BuildingBlock: TEMPAE_clean_linker_10, # of connection points: 2
#     Edge 32, Type (0, 0), BuildingBlock: TEMPAE_clean_linker_10, # of connection points: 2
#     Edge 33, Type (0, 0), BuildingBlock: TEMPAE_clean_linker_10, # of connection points: 2
#     Edge 34, Type (0, 0), BuildingBlock: TEMPAE_clean_linker_10, # of connection points: 2
#     Edge 35, Type (0, 0), BuildingBlock: TEMPAE_clean_linker_10, # of connection points: 2
#     Edge 36, Type (0, 0), BuildingBlock: TEMPAE_clean_linker_10, # of connection points: 2
#     Edge 37, Type (0, 0), BuildingBlock: TEMPAE_clean_linker_10, # of connection points: 2
#     Edge 38, Type (0, 0), BuildingBlock: TEMPAE_clean_linker_10, # of connection points: 2
#     Edge 39, Type (0, 0), BuildingBlock: TEMPAE_clean_linker_10, # of connection points: 2
#     Edge 40, Type (0, 0), BuildingBlock: TEMPAE_clean_linker_10, # of connection points: 2
#     Edge 41, Type (0, 0), BuildingBlock: TEMPAE_clean_linker_10, # of connection points: 2
#     Edge 42, Type (0, 0), BuildingBlock: TEMPAE_clean_linker_10, # of connection points: 2
#     Edge 43, Type (0, 0), BuildingBlock: TEMPAE_clean_linker_10, # of connection points: 2
#     Edge 44, Type (0, 0), BuildingBlock: TEMPAE_clean_linker_10, # of connection points: 2
#     Edge 45, Type (0, 0), BuildingBlock: TEMPAE_clean_linker_10, # of connection points: 2
#     Edge 46, Type (0, 0), BuildingBlock: TEMPAE_clean_linker_10, # of connection points: 2
#     Edge 47, Type (0, 0), BuildingBlock: TEMPAE_clean_linker_10, # of connection points: 2
# Relax obj value: 0.094
# Max RMSD: 0.208
# Mean RMSD: 0.208
data_MOF--net-wme--node1-KUMBOL_clean_sbu_0--edge1-TEMPAE_clean_linker_10
_symmetry_space_group_name_H-M    P1
_symmetry_Int_Tables_number       1
_symmetry_cell_setting            triclinic
loop_
_symmetry_equiv_pos_as_xyz
'x, y, z'
_cell_length_a     39.121152
_cell_length_b     39.108158
_cell_length_c     55.359957
_cell_angle_alpha  89.987185
_cell_angle_beta   90.056277
_cell_angle_gamma 119.98693
loop_
_atom_site_label
_atom_site_type_symbol
_atom_site_fract_x
_atom_site_fract_y
_atom_site_fract_z
_atom_type_partial_charge
Gd0 Gd 0.24757 0.32181 0.1307 0.0
Gd1 Gd 0.19677 0.37011 0.10234 0.0
C2 C 0.06826 0.30981 0.07785 0.0
C3 C 0.074 0.30874 0.03421 0.0
C4 C 0.13268 0.33671 0.05956 0.0
C5 C 0.10948 0.32654 0.08002 0.0
C6 C 0.11528 0.32875 0.03639 0.0
C7 C 0.05052 0.29966 0.05493 0.0
C8 C 0.04642 0.30624 0.09858 0.0
C9 C 0.06565 0.31897 0.12078 0.0
N10 N 0.12753 0.33705 0.1019 0.0
C11 C 0.10635 0.33407 0.12216 0.0
H12 H 0.12089 0.34397 0.13942 0.0
C13 C 0.19623 0.37538 0.04273 0.0
N14 N 0.17237 0.35837 0.06236 0.0
C15 C 0.18051 0.36713 0.01937 0.0
C16 C 0.13987 0.34322 0.01616 0.0
H17 H 0.22766 0.39425 0.04505 0.0
H18 H 0.01881 0.28615 0.05297 0.0
H19 H 0.32447 0.3613 0.09192 0.0
H20 H 1.015 0.29527 0.0974 0.0
H21 H 0.04936 0.31792 0.13679 0.0
H22 H 0.06006 0.30205 0.01659 0.0
H23 H 0.22027 0.2893 0.18734 0.0
H24 H 0.4306 0.42692 0.13268 0.0
H25 H 0.39646 0.40448 0.09336 0.0
H26 H 0.3867 0.39604 0.21473 0.0
H27 H 0.19972 0.37957 0.00389 0.0
H28 H 0.12766 0.33756 0.99806 0.0
H29 H 0.42659 0.42419 0.17802 0.0
H30 H 0.24995 0.30122 0.22786 0.0
N31 N 0.31713 0.35977 0.13013 0.0
C32 C 0.39883 0.40793 0.13219 0.0
C33 C 0.37969 0.39518 0.10997 0.0
C34 C 0.37689 0.39495 0.15352 0.0
C35 C 0.3356 0.3703 0.15185 0.0
C36 C 0.33868 0.37054 0.10928 0.0
N37 N 0.27395 0.32991 0.1699 0.0
C38 C 0.3133 0.35469 0.17243 0.0
C39 C 0.26801 0.317 0.2125 0.0
C40 C 0.30808 0.34416 0.21558 0.0
C41 C 0.25133 0.31007 0.18942 0.0
C42 C 0.33142 0.36301 0.19536 0.0
H43 H 0.32086 0.34956 0.23351 0.0
O44 O 0.21941 0.25901 0.13866 0.0
O45 O 0.18989 0.3141 0.11711 0.0
O46 O 0.19331 0.36834 0.14431 0.0
O47 O 0.24805 0.36455 0.15773 0.0
O48 O 0.18846 0.28527 0.14874 0.0
O49 O 0.26894 0.28525 0.11432 0.0
O50 O 0.21463 0.42971 0.08978 0.0
O51 O 0.25326 0.37828 0.11702 0.0
O52 O 0.254 0.32407 0.09023 0.0
O53 O 0.19979 0.32677 0.07523 0.0
O54 O 0.25702 0.40933 0.08633 0.0
O55 O 0.18006 0.40799 0.1221 0.0
C56 C 0.16714 0.291 0.13336 0.0
C57 C 0.37227 0.38893 0.19726 0.0
C58 C 0.39497 0.40494 0.17636 0.0
C59 C 0.24345 0.25312 0.12548 0.0
C60 C 0.25836 0.2288 0.13668 0.0
C61 C 0.28889 0.24573 0.15372 0.0
C62 C 0.24122 0.18817 0.13102 0.0
C63 C 0.25505 0.16481 0.1422 0.0
C64 C 0.30226 0.22278 0.16505 0.0
C65 C 0.28557 0.1828 0.15941 0.0
C66 C 0.21912 0.37207 0.16146 0.0
C67 C 0.27747 0.40329 0.10218 0.0
C68 C 0.19505 0.43649 0.10634 0.0
C69 C 0.16877 0.45164 0.0979 0.0
C70 C 0.14184 0.43157 0.07925 0.0
C71 C 0.16966 0.4854 0.10828 0.0
C72 C 0.14293 0.49779 0.10028 0.0
C73 C 0.11563 0.44351 0.07139 0.0
C74 C 0.11601 0.47609 0.08181 0.0
C75 C 0.22823 0.3176 0.07299 0.0
H76 H 0.30224 0.27668 0.15837 0.0
H77 H 0.2177 0.17503 0.11778 0.0
H78 H 0.32569 0.23604 0.17831 0.0
H79 H 0.2965 0.16579 0.16871 0.0
H80 H 0.14116 0.40667 0.07055 0.0
H81 H 0.19056 0.50155 0.12254 0.0
H82 H 0.09502 0.42751 0.05699 0.0
H83 H 0.09562 0.48492 0.07496 0.0
Gd84 Gd 0.93647 0.23415 0.62633 0.0
Gd85 Gd 0.83749 0.18681 0.59837 0.0
C86 C 0.76227 0.0585 0.57492 0.0
C87 C 0.76814 0.06306 0.53122 0.0
C88 C 0.80317 0.12197 0.55609 0.0
C89 C 0.78936 0.09928 0.57675 0.0
C90 C 0.79212 0.10422 0.53306 0.0
C91 C 0.75277 0.04029 0.55212 0.0
C92 C 0.74343 0.03779 0.59587 0.0
C93 C 0.75286 0.0573 0.61806 0.0
N94 N 0.79889 0.11772 0.59853 0.0
C95 C 0.78103 0.09736 0.6191 0.0
H96 H 0.78752 0.11217 0.63633 0.0
C97 C 0.83167 0.18562 0.53874 0.0
N98 N 0.82357 0.16179 0.55856 0.0
C99 C 0.82285 0.16944 0.51552 0.0
C100 C 0.8034 0.12852 0.51263 0.0
H101 H 0.84617 0.21728 0.54085 0.0
H102 H 0.73251 1.00885 0.55044 0.0
H103 H 0.9753 0.31144 0.58769 0.0
H104 H 0.72044 1.00713 0.59495 0.0
H105 H 0.73787 0.04172 0.63434 0.0
H106 H 0.75956 0.04884 0.51371 0.0
H107 H 0.94143 0.20576 0.68263 0.0
H108 H 0.02014 0.41773 0.62876 0.0
H109 H 1.00644 0.38364 0.58934 0.0
H110 H 1.00799 0.37304 0.71058 0.0
H111 H 0.83054 0.18851 0.49989 0.0
H112 H 0.7957 0.116 0.49465 0.0
H113 H 0.01989 0.41343 0.67406 0.0
H114 H 0.96154 0.23525 0.72322 0.0
N115 N 0.96988 0.30385 0.62591 0.0
C116 C 1.00623 0.38585 0.62819 0.0
C117 C 0.99872 0.36673 0.60591 0.0
C118 C 0.99699 0.36368 0.64946 0.0
C119 C 0.97885 0.32224 0.64768 0.0
C120 C 0.98101 0.32557 0.6051 0.0
N121 N 0.95597 0.2601 0.66552 0.0
C122 C 0.97193 0.29965 0.66817 0.0
C123 C 0.96415 0.2536 0.70793 0.0
C124 C 0.97871 0.29397 0.71113 0.0
C125 C 0.95299 0.23705 0.68487 0.0
C126 C 0.98319 0.31764 0.69108 0.0
H127 H 0.9872 0.30667 0.72903 0.0
O128 O 0.97082 0.20592 0.63495 0.0
O129 O 0.88562 0.17781 0.61218 0.0
O130 O 0.83563 0.18295 0.64029 0.0
O131 O 0.89545 0.23577 0.65364 0.0
O132 O 0.91182 0.1738 0.64357 0.0
O133 O 0.99317 0.25325 0.60893 0.0
O134 O 0.79733 0.2064 0.58548 0.0
O135 O 0.88685 0.24244 0.6133 0.0
O136 O 0.94038 0.24113 0.58591 0.0
O137 O 0.88257 0.18765 0.57131 0.0
O138 O 0.86061 0.24744 0.5824 0.0
O139 O 0.78374 0.17255 0.61828 0.0
C140 C 0.88471 0.15384 0.62791 0.0
C141 C 0.99958 0.3587 0.69311 0.0
C142 C 1.00636 0.38169 0.67232 0.0
C143 C 1.00027 0.22885 0.62106 0.0
C144 C 0.03985 0.24515 0.63197 0.0
C145 C 0.05355 0.27708 0.64798 0.0
C146 C 0.06375 0.22828 0.62697 0.0
C147 C 0.10139 0.24372 0.6378 0.0
C148 C 0.09028 0.29198 0.65903 0.0
C149 C 0.11395 0.2755 0.65407 0.0
C150 C 0.85857 0.20793 0.6575 0.0
C151 C 0.88704 0.26718 0.59845 0.0
C152 C 0.7709 0.18775 0.6022 0.0
C153 C 0.72936 0.16215 0.59394 0.0
C154 C 0.72178 0.13659 0.57436 0.0
C155 C 0.69702 0.1623 0.60552 0.0
C156 C 0.6577 0.13614 0.5978 0.0
C157 C 0.68333 0.11072 0.56687 0.0
C158 C 0.6516 0.11031 0.5785 0.0
C159 C 0.92014 0.21571 0.56873 0.0
H160 H 0.03579 0.29043 0.65201 0.0
H161 H 0.05336 0.20376 0.61445 0.0
H162 H 0.10048 0.31646 0.67152 0.0
H163 H 0.14222 0.28764 0.66311 0.0
H164 H 0.74562 0.13676 0.56465 0.0
H165 H 0.70235 0.18228 0.62044 0.0
H166 H 0.67813 0.0911 0.55178 0.0
H167 H 0.62208 0.09033 0.57191 0.0
Gd168 Gd 0.71826 0.93727 0.13538 0.0
Gd169 Gd 0.65428 0.84263 0.10699 0.0
C170 C 0.70993 0.76616 0.09322 0.0
C171 C 0.71403 0.76639 0.04944 0.0
C172 C 0.68978 0.80534 0.06976 0.0
C173 C 0.69624 0.79334 0.09194 0.0
C174 C 0.69786 0.79129 0.04822 0.0
C175 C 0.7193 0.75323 0.07187 0.0
C176 C 0.71163 0.75102 0.1158 0.0
C177 C 0.70011 0.76313 0.13639 0.0
N178 N 0.68538 0.80505 0.11217 0.0
C179 C 0.68658 0.78994 0.13419 0.0
H180 H 0.67625 0.79772 0.15011 0.0
C181 C 0.65539 0.83053 0.04789 0.0
N182 N 0.67069 0.82628 0.06924 0.0
C183 C 0.66441 0.81902 0.02603 0.0
C184 C 0.68641 0.79991 0.02616 0.0
H185 H 0.63669 0.84363 0.04776 0.0
H186 H 0.72959 0.73216 0.07248 0.0
H187 H 0.6845 0.99143 0.1051 0.0
H188 H 0.72035 0.72889 0.11746 0.0
H189 H 0.70081 0.75116 0.15389 0.0
H190 H 0.72037 0.7553 0.03312 0.0
H191 H 0.75682 0.93829 0.19072 0.0
H192 H 0.61107 1.01105 0.15307 0.0
H193 H 0.63971 0.01663 0.11253 0.0
H194 H 0.63961 0.97631 0.23005 0.0
H195 H 0.65352 0.82398 0.00918 0.0
H196 H 0.69228 0.78982 0.00926 0.0
H197 H 0.61025 0.9947 0.19684 0.0
H198 H 0.74424 0.94648 0.23325 0.0
N199 N 0.68026 0.96871 0.14087 0.0
C200 C 0.6307 0.99945 0.14992 0.0
C201 C 0.64691 1.00278 0.12706 0.0
C202 C 0.642 0.98347 0.16878 0.0
C203 C 0.66751 0.96854 0.1637 0.0
C204 C 0.67235 0.98795 0.12293 0.0
N205 N 0.71054 0.94673 0.17695 0.0
C206 C 0.68336 0.95742 0.18236 0.0
C207 C 0.72654 0.94916 0.21914 0.0
C208 C 0.69659 0.95713 0.225 0.0
C209 C 0.73366 0.94475 0.19494 0.0
C210 C 0.67495 0.96194 0.20656 0.0
H211 H 0.69172 0.96154 0.2437 0.0
O212 O 0.77827 0.96714 0.14947 0.0
O213 O 0.7131 0.87937 0.12389 0.0
O214 O 0.64412 0.84088 0.14824 0.0
O215 O 0.70548 0.88877 0.16171 0.0
O216 O 0.76144 0.92966 0.11183 0.0
O217 O 0.75914 0.99837 0.12584 0.0
O218 O 0.59657 0.80396 0.09067 0.0
O219 O 0.65438 0.89326 0.12579 0.0
O220 O 0.7088 0.94962 0.09771 0.0
O221 O 0.68725 0.89069 0.07715 0.0
O222 O 0.62268 0.87294 0.09362 0.0
O223 O 0.6111 0.78722 0.12419 0.0
C224 C 0.74508 0.89193 0.11242 0.0
C225 C 0.64706 0.97356 0.21158 0.0
C226 C 0.6304 0.98407 0.19268 0.0
C227 C 0.7881 1.00035 0.13864 0.0
C228 C 0.81226 0.03696 0.15243 0.0
C229 C 0.79587 0.04718 0.17165 0.0
C230 C 0.85209 0.06237 0.14597 0.0
C231 C 0.87534 0.09816 0.15851 0.0
C232 C 0.81884 0.08214 0.1844 0.0
C233 C 0.85815 0.10744 0.17792 0.0
C234 C 0.67033 0.85819 0.16589 0.0
C235 C 0.63085 0.89705 0.11147 0.0
C236 C 0.58581 0.77597 0.10661 0.0
C237 C 0.57087 0.73499 0.09736 0.0
C238 C 0.58941 0.72909 0.07741 0.0
C239 C 0.5388 0.70144 0.10841 0.0
C240 C 0.52672 0.66275 0.0998 0.0
C241 C 0.57787 0.69131 0.06905 0.0
C242 C 0.54703 0.65847 0.08016 0.0
C243 C 0.7026 0.92989 0.07751 0.0
H244 H 0.76532 0.02827 0.17672 0.0
H245 H 0.86462 0.05473 0.13087 0.0
H246 H 0.80606 0.08979 0.19931 0.0
H247 H 0.87522 0.13432 0.18821 0.0
H248 H 0.61275 0.7537 0.06803 0.0
H249 H 0.5237 0.70535 0.12363 0.0
H250 H 0.59275 0.68748 0.0537 0.0
H251 H 0.53833 0.6295 0.07292 0.0
Gd252 Gd 0.79208 0.70399 0.63222 0.0
Gd253 Gd 0.83886 0.65306 0.60268 0.0
C254 C 0.96691 0.7066 0.57867 0.0
C255 C 0.96189 0.70891 0.53504 0.0
C256 C 0.9033 0.68467 0.56018 0.0
C257 C 0.92619 0.69305 0.58072 0.0
C258 C 0.92078 0.69172 0.53707 0.0
C259 C 0.98487 0.7158 0.55582 0.0
C260 C 0.98778 0.70782 0.59943 0.0
C261 C 0.96858 0.69749 0.62169 0.0
N262 N 0.90799 0.68368 0.60256 0.0
C263 C 0.9286 0.68579 0.62297 0.0
H264 H 0.91405 0.6772 0.64026 0.0
C265 C 0.83953 0.64915 0.54307 0.0
N266 N 0.86353 0.66505 0.56281 0.0
C267 C 0.8554 0.65691 0.51977 0.0
C268 C 0.89624 0.67881 0.51673 0.0
H269 H 0.80795 0.63149 0.54532 0.0
H270 H 1.01627 0.72691 0.55397 0.0
H271 H 0.71298 0.66537 0.59504 0.0
H272 H 0.01834 0.71521 0.59829 0.0
H273 H 0.98434 0.69775 0.63782 0.0
H274 H 0.9759 0.71483 0.51747 0.0
H275 H 0.82337 0.73735 0.68818 0.0
H276 H 0.6089 0.60341 0.63796 0.0
H277 H 0.64089 0.62398 0.59796 0.0
H278 H 0.65782 0.63581 0.71905 0.0
H279 H 0.83615 0.64546 0.50421 0.0
H280 H 0.90853 0.68389 0.49869 0.0
H281 H 0.61556 0.60743 0.68319 0.0
H282 H 0.79614 0.72782 0.72929 0.0
N283 N 0.72247 0.66753 0.63307 0.0
C284 C 0.64071 0.62156 0.63681 0.0
C285 C 0.65865 0.63327 0.61422 0.0
C286 C 0.66395 0.63456 0.65769 0.0
C287 C 0.70523 0.65806 0.65516 0.0
C288 C 0.69971 0.65687 0.61268 0.0
N289 N 0.76822 0.69748 0.67193 0.0
C290 C 0.72887 0.67376 0.67527 0.0
C291 C 0.77698 0.71186 0.71434 0.0
C292 C 0.73686 0.68579 0.71825 0.0
C293 C 0.79226 0.71745 0.69095 0.0
C294 C 0.71213 0.66673 0.69855 0.0
H295 H 0.72515 0.68143 0.73643 0.0
O296 O 0.82019 0.76657 0.64079 0.0
O297 O 0.84799 0.70996 0.61698 0.0
O298 O 0.84405 0.65506 0.64466 0.0
O299 O 0.7912 0.661 0.65916 0.0
O300 O 0.85309 0.74001 0.64859 0.0
O301 O 0.7717 0.74109 0.61551 0.0
O302 O 0.81833 0.59334 0.58938 0.0
O303 O 0.78365 0.64636 0.61854 0.0
O304 O 0.7835 0.70151 0.59188 0.0
O305 O 0.83592 0.6967 0.57584 0.0
O306 O 0.77792 0.61591 0.58715 0.0
O307 O 0.85384 0.61309 0.62152 0.0
C308 C 0.87253 0.73312 0.63245 0.0
C309 C 0.67123 0.64193 0.70129 0.0
C310 C 0.64717 0.62578 0.68088 0.0
C311 C 0.7967 0.77284 0.62722 0.0
C312 C 0.78112 0.79668 0.63816 0.0
C313 C 0.75092 0.77969 0.65537 0.0
C314 C 0.79696 0.83685 0.63183 0.0
C315 C 0.78222 0.85973 0.64253 0.0
C316 C 0.73666 0.8022 0.66624 0.0
C317 C 0.7521 0.84178 0.65995 0.0
C318 C 0.8195 0.65243 0.6623 0.0
C319 C 0.7586 0.62217 0.60368 0.0
C320 C 0.83773 0.58521 0.6054 0.0
C321 C 0.86274 0.56918 0.59609 0.0
C322 C 0.88752 0.58766 0.57628 0.0
C323 C 0.86269 0.53605 0.60674 0.0
C324 C 0.88821 0.5228 0.59786 0.0
C325 C 0.91271 0.57498 0.56766 0.0
C326 C 0.91324 0.54305 0.57836 0.0
C327 C 0.80803 0.7067 0.57412 0.0
H328 H 0.73846 0.74903 0.66046 0.0
H329 H 0.82014 0.84998 0.61839 0.0
H330 H 0.71349 0.78891 0.67964 0.0
H331 H 0.74053 0.8585 0.66889 0.0
H332 H 0.88723 0.6118 0.56724 0.0
H333 H 0.84331 0.52099 0.62182 0.0
H334 H 0.93171 0.5898 0.55241 0.0
H335 H 0.93269 0.53349 0.57091 0.0
Gd336 Gd 0.09515 0.78829 0.13169 0.0
Gd337 Gd 0.19377 0.83381 0.10397 0.0
C338 C 0.27196 0.96257 0.0822 0.0
C339 C 0.26743 0.95952 0.03844 0.0
C340 C 0.2304 0.90002 0.06253 0.0
C341 C 0.2439 0.92198 0.08347 0.0
C342 C 0.24263 0.91842 0.03975 0.0
C343 C 0.28258 0.98149 0.05965 0.0
C344 C 0.29061 0.98228 0.10347 0.0
C345 C 0.27976 0.9622 0.12544 0.0
N346 N 0.23327 0.90287 0.10501 0.0
C347 C 0.25074 0.9224 0.12591 0.0
H348 H 0.24337 0.90716 0.14299 0.0
C349 C 0.20214 0.8369 0.04451 0.0
N350 N 0.20945 0.86016 0.06453 0.0
C351 C 0.21199 0.85373 0.02149 0.0
C352 C 0.23187 0.89472 0.01905 0.0
H353 H 0.18752 0.80518 0.04632 0.0
H354 H 0.30356 0.01282 0.0584 0.0
H355 H 0.05506 0.7098 0.09395 0.0
H356 H 0.31441 0.01262 0.103 0.0
H357 H 0.2943 0.97714 0.14199 0.0
H358 H 0.27691 0.97423 0.02112 0.0
H359 H 0.09244 0.8191 0.18772 0.0
H360 H 1.0094 0.60476 0.13634 0.0
H361 H 0.02324 0.63759 0.09649 0.0
H362 H 0.02332 0.65239 0.21762 0.0
H363 H 0.20484 0.83509 0.00568 0.0
H364 H 0.24047 0.90774 1.00124 0.0
H365 H 1.00987 0.61059 0.18159 0.0
H366 H 0.07362 0.79133 0.22866 0.0
N367 N 0.06045 0.71858 0.13208 0.0
C368 C 0.02342 0.63663 0.13537 0.0
C369 C 0.03106 0.65505 0.11286 0.0
C370 C 0.03287 0.65951 0.15636 0.0
C371 C 0.05132 0.7009 0.15406 0.0
C372 C 0.04915 0.69621 0.11153 0.0
N373 N 0.07555 0.76378 0.17114 0.0
C374 C 0.05885 0.72425 0.17426 0.0
C375 C 0.06976 0.77216 0.21358 0.0
C376 C 0.05438 0.73176 0.21725 0.0
C377 C 0.08012 0.78777 0.19028 0.0
C378 C 0.04829 0.70714 0.19742 0.0
H379 H 0.04655 0.71979 0.23535 0.0
O380 O 0.06089 0.81658 0.14044 0.0
O381 O 0.14627 0.84415 0.11713 0.0
O382 O 0.19493 0.83763 0.14597 0.0
O383 O 0.13521 0.78473 0.15907 0.0
O384 O 0.12099 0.84917 0.14853 0.0
O385 O 0.03964 0.7709 0.11324 0.0
O386 O 0.23414 0.81458 0.091 0.0
O387 O 0.14394 0.77845 0.1188 0.0
O388 O 0.09032 0.78012 0.09135 0.0
O389 O 0.14886 0.83172 0.07606 0.0
O390 O 0.16983 0.77328 0.0878 0.0
O391 O 0.24611 0.8457 0.12477 0.0
C392 C 0.1478 0.86865 0.13266 0.0
C393 C 0.03132 0.66609 0.19995 0.0
C394 C 0.02368 0.6423 0.17944 0.0
C395 C 0.03262 0.79539 0.12532 0.0
C396 C 0.992 0.78027 0.13418 0.0
C397 C 0.97431 0.74691 0.14912 0.0
C398 C 0.97062 0.79925 0.12763 0.0
C399 C 0.93138 0.78426 0.13557 0.0
C400 C 0.9357 0.73226 0.15723 0.0
C401 C 0.91432 0.75058 0.15044 0.0
C402 C 0.17201 0.81242 0.16306 0.0
C403 C 0.14328 0.75363 0.10377 0.0
C404 C 0.25971 0.83176 0.10838 0.0
C405 C 0.30166 0.85797 0.10117 0.0
C406 C 0.3103 0.88434 0.0819 0.0
C407 C 0.3334 0.85784 0.11358 0.0
C408 C 0.37307 0.8849 0.10705 0.0
C409 C 0.34913 0.9112 0.07566 0.0
C410 C 0.38025 0.91172 0.08819 0.0
C411 C 0.1109 0.80438 0.07376 0.0
H412 H 0.9903 0.73213 0.15442 0.0
H413 H 0.98413 0.82498 0.116 0.0
H414 H 0.92219 0.70644 0.16874 0.0
H415 H 0.88434 0.73847 0.15691 0.0
H416 H 0.28699 0.8841 0.07148 0.0
H417 H 0.32736 0.83719 0.12821 0.0
H418 H 0.35514 0.93153 0.06086 0.0
H419 H 0.41018 0.9325 0.08267 0.0
Gd420 Gd 0.32274 0.08967 0.63281 0.0
Gd421 Gd 0.37452 0.188 0.60428 0.0
C422 C 0.32346 0.26562 0.58222 0.0
C423 C 0.32136 0.26036 0.53848 0.0
C424 C 0.34399 0.22356 0.56271 0.0
C425 C 0.33599 0.23756 0.58361 0.0
C426 C 0.33747 0.2354 0.53988 0.0
C427 C 0.31494 0.27595 0.55963 0.0
C428 C 0.32237 0.28438 0.60342 0.0
C429 C 0.33129 0.27345 0.62547 0.0
N430 N 0.34456 0.22713 0.6052 0.0
C431 C 0.34215 0.24448 0.62606 0.0
H432 H 0.34987 0.23711 0.6432 0.0
C433 C 0.37797 0.19436 0.54469 0.0
N434 N 0.36268 0.20238 0.56475 0.0
C435 C 0.37061 0.20383 0.52165 0.0
C436 C 0.34979 0.22401 0.5192 0.0
H437 H 0.39482 0.17948 0.54649 0.0
H438 H 0.30462 0.29694 0.55829 0.0
H439 H 0.36072 0.04902 0.59531 0.0
H440 H 0.31565 0.30807 0.60288 0.0
H441 H 0.33053 0.28785 0.64199 0.0
H442 H 0.31589 0.26956 0.52113 0.0
H443 H 0.28952 0.08726 0.6888 0.0
H444 H 0.42205 1.00559 0.63788 0.0
H445 H 0.40166 0.01775 0.59798 0.0
H446 H 0.38984 0.02137 0.71912 0.0
H447 H 0.38159 0.19615 0.50583 0.0
H448 H 0.34507 0.23229 0.50135 0.0
H449 H 0.41797 1.00761 0.68314 0.0
H450 H 0.29889 0.06892 0.72982 0.0
N451 N 0.35865 0.05592 0.63338 0.0
C452 C 0.40408 0.01948 0.63684 0.0
C453 C 0.39248 0.02613 0.6143 0.0
C454 C 0.3912 0.02959 0.6578 0.0
C455 C 0.36798 0.04773 0.65542 0.0
C456 C 0.36913 0.04391 0.6129 0.0
N457 N 0.329 0.07163 0.67241 0.0
C458 C 0.35241 0.05558 0.67561 0.0
C459 C 0.31467 0.06564 0.71481 0.0
C460 C 0.34043 0.05115 0.71859 0.0
C461 C 0.30916 0.07569 0.69148 0.0
C462 C 0.35931 0.04545 0.69882 0.0
H463 H 0.34473 0.04352 0.73672 0.0
O464 O 0.26025 0.05545 0.64147 0.0
O465 O 0.31732 0.14002 0.61776 0.0
O466 O 0.37237 0.18996 0.64633 0.0
O467 O 0.36606 0.13065 0.66002 0.0
O468 O 0.28699 0.11507 0.64921 0.0
O469 O 0.28529 0.03248 0.61588 0.0
O470 O 0.43428 0.22706 0.5911 0.0
O471 O 0.38074 0.13877 0.61948 0.0
O472 O 0.32528 0.08423 0.59239 0.0
O473 O 0.33104 0.14232 0.57701 0.0
O474 O 0.41104 0.16408 0.58811 0.0
O475 O 0.41492 0.2422 0.62364 0.0
C476 C 0.29416 0.14155 0.63309 0.0
C477 C 0.38383 0.02898 0.70142 0.0
C478 C 0.39983 0.02115 0.68093 0.0
C479 C 0.25374 0.02575 0.62779 0.0
C480 C 0.23008 0.98631 0.63875 0.0
C481 C 0.24751 0.97285 0.65552 0.0
C482 C 0.18965 0.96226 0.63292 0.0
C483 C 0.16699 0.92467 0.64369 0.0
C484 C 0.2252 0.93612 0.66648 0.0
C485 C 0.18537 0.91226 0.66069 0.0
C486 C 0.37479 0.16743 0.66367 0.0
C487 C 0.40458 0.13796 0.60433 0.0
C488 C 0.44267 0.25419 0.60744 0.0
C489 C 0.45895 0.29551 0.59859 0.0
C490 C 0.4413 0.3025 0.57857 0.0
C491 C 0.49151 0.32824 0.60991 0.0
C492 C 0.50496 0.36729 0.60151 0.0
C493 C 0.45411 0.34067 0.57044 0.0
C494 C 0.48543 0.37277 0.58183 0.0
C495 C 0.3211 0.10452 0.57477 0.0
H496 H 0.27836 0.99079 0.66021 0.0
H497 H 0.17617 0.97249 0.61982 0.0
H498 H 0.23884 0.92606 0.67955 0.0
H499 H 0.16882 0.88399 0.66966 0.0
H500 H 0.41773 0.27837 0.56896 0.0
H501 H 0.50602 0.32342 0.62513 0.0
H502 H 0.43989 0.34538 0.55504 0.0
H503 H 0.49518 0.40206 0.57476 0.0
Gd504 Gd 0.71115 0.78583 0.37552 0.0
Gd505 Gd 0.6594 0.83242 0.40403 0.0
C506 C 0.71273 0.96167 0.42536 0.0
C507 C 0.7154 0.95908 0.46911 0.0
C508 C 0.69118 0.89912 0.44521 0.0
C509 C 0.69925 0.92087 0.42419 0.0
C510 C 0.69841 0.91788 0.46794 0.0
C511 C 0.72203 0.98089 0.44784 0.0
C512 C 0.71388 0.98141 0.40408 0.0
C513 C 0.70358 0.96102 0.38219 0.0
N514 N 0.68981 0.90149 0.40272 0.0
C515 C 0.69174 0.92094 0.38182 0.0
H516 H 0.68311 0.90542 0.36483 0.0
C517 C 0.65643 0.83627 0.46359 0.0
N518 N 0.67181 0.85921 0.4434 0.0
C519 C 0.66437 0.85346 0.48654 0.0
C520 C 0.68594 0.89448 0.48876 0.0
H521 H 0.63908 0.80454 0.46196 0.0
H522 H 0.73307 0.01236 0.44901 0.0
H523 H 0.67396 0.70872 0.4144 0.0
H524 H 0.72132 0.01203 0.40449 0.0
H525 H 0.704 0.97596 0.36565 0.0
H526 H 0.72145 0.97406 0.48638 0.0
H527 H 0.74338 0.81392 0.31902 0.0
H528 H 0.61221 0.60215 0.37364 0.0
H529 H 0.63323 0.63652 0.41295 0.0
H530 H 0.64291 0.64633 0.29164 0.0
H531 H 0.65331 0.83508 0.50248 0.0
H532 H 0.69117 0.90778 0.50653 0.0
H533 H 0.6154 0.60614 0.32832 0.0
H534 H 0.7334 0.78414 0.27848 0.0
N535 N 0.67544 0.71609 0.37616 0.0
C536 C 0.63011 0.63404 0.37412 0.0
C537 C 0.64207 0.65333 0.39633 0.0
C538 C 0.64256 0.65607 0.35279 0.0
C539 C 0.66574 0.69754 0.35444 0.0
C540 C 0.66534 0.6945 0.39702 0.0
N541 N 0.70426 0.75961 0.33637 0.0
C542 C 0.68088 0.72001 0.33386 0.0
C543 C 0.71798 0.76588 0.29386 0.0
C544 C 0.69228 0.72546 0.29081 0.0
C545 C 0.72377 0.78258 0.3169 0.0
C546 C 0.67369 0.70187 0.31098 0.0
H547 H 0.68772 0.71265 0.27292 0.0
O548 O 0.77348 0.81438 0.36628 0.0
O549 O 0.71659 0.8421 0.38992 0.0
O550 O 0.65898 0.83457 0.36199 0.0
O551 O 0.66747 0.78277 0.34842 0.0
O552 O 0.74529 0.84607 0.35794 0.0
O553 O 0.74965 0.76765 0.39273 0.0
O554 O 0.60015 0.81277 0.41778 0.0
O555 O 0.65336 0.777 0.38908 0.0
O556 O 0.70954 0.77885 0.41593 0.0
O557 O 0.70323 0.83083 0.43127 0.0
O558 O 0.62292 0.77193 0.42033 0.0
O559 O 0.61887 0.84602 0.38472 0.0
C560 C 0.73869 0.86603 0.37388 0.0
C561 C 0.64917 0.66078 0.30909 0.0
C562 C 0.63353 0.63791 0.32997 0.0
C563 C 0.78074 0.79211 0.38035 0.0
C564 C 0.80439 0.77614 0.36962 0.0
C565 C 0.78681 0.7447 0.35323 0.0
C566 C 0.84488 0.79273 0.37534 0.0
C567 C 0.86745 0.77749 0.36484 0.0
C568 C 0.80903 0.72999 0.34251 0.0
C569 C 0.84892 0.74617 0.3482 0.0
C570 C 0.65687 0.80953 0.34479 0.0
C571 C 0.6294 0.75225 0.40413 0.0
C572 C 0.59153 0.83102 0.4012 0.0
C573 C 0.57572 0.85663 0.40969 0.0
C574 C 0.59395 0.8821 0.42928 0.0
C575 C 0.54312 0.85659 0.39831 0.0
C576 C 0.53012 0.88279 0.40623 0.0
C577 C 0.58154 0.90802 0.43695 0.0
C578 C 0.55012 0.90855 0.42551 0.0
C579 C 0.71371 0.80338 0.43346 0.0
H580 H 0.7559 0.73158 0.34866 0.0
H581 H 0.85849 0.81685 0.38817 0.0
H582 H 0.79526 0.70586 0.32974 0.0
H583 H 0.86539 0.73418 0.33943 0.0
H584 H 0.6177 0.88185 0.43888 0.0
H585 H 0.52826 0.83668 0.38339 0.0
H586 H 0.59616 0.92758 0.45204 0.0
H587 H 0.54071 0.92856 0.43222 0.0
Gd588 Gd 0.94027 0.7032 0.8733 0.0
Gd589 Gd 0.84113 0.65477 0.90128 0.0
C590 C 0.76906 0.71261 0.9223 0.0
C591 C 0.77505 0.71611 0.96601 0.0
C592 C 0.80826 0.689 0.94226 0.0
C593 C 0.79494 0.69736 0.92121 0.0
C594 C 0.79778 0.6975 0.96494 0.0
C595 C 0.76028 0.7232 0.9447 0.0
C596 C 0.75065 0.7142 0.90104 0.0
C597 C 0.75896 0.7018 0.87932 0.0
N598 N 0.80369 0.68652 0.89983 0.0
C599 C 0.78592 0.6883 0.879 0.0
H600 H 0.79165 0.67835 0.86212 0.0
C601 C 0.8347 0.6529 0.96089 0.0
N602 N 0.82751 0.66834 0.94057 0.0
C603 C 0.82637 0.66192 0.98378 0.0
C604 C 0.80829 0.68481 0.98585 0.0
H605 H 0.84814 0.63468 0.95944 0.0
H606 H 0.74096 0.73557 0.94581 0.0
H607 H 0.97894 0.66597 0.91287 0.0
H608 H 0.72868 0.72327 0.90146 0.0
H609 H 0.74402 0.7018 0.86287 0.0
H610 H 0.76695 0.72316 0.98324 0.0
H611 H 0.94455 0.73379 0.81625 0.0
H612 H 0.02082 0.60043 0.87332 0.0
H613 H 1.00878 0.62362 0.91224 0.0
H614 H 1.0069 0.62852 0.79075 0.0
H615 H 0.8334 0.65076 0.9998 0.0
H616 H 0.80097 0.69096 0.00359 0.0
H617 H 0.01944 0.60192 0.82793 0.0
H618 H 0.96237 0.721 0.77598 0.0
N619 N 0.97284 0.66618 0.87461 0.0
C620 C 1.00761 0.61905 0.87346 0.0
C621 C 1.00101 0.63222 0.89545 0.0
C622 C 0.99827 0.63116 0.85188 0.0
C623 C 0.98101 0.6553 0.85309 0.0
C624 C 0.98406 0.65637 0.89568 0.0
N625 N 0.95873 0.69442 0.83434 0.0
C626 C 0.97391 0.67008 0.83225 0.0
C627 C 0.96519 0.70599 0.79159 0.0
C628 C 0.97878 0.67928 0.78899 0.0
C629 C 0.95541 0.71341 0.81452 0.0
C630 C 0.98385 0.66135 0.80951 0.0
H631 H 0.98622 0.67351 0.77118 0.0
O632 O 0.97477 0.76563 0.8644 0.0
O633 O 0.89006 0.71056 0.88652 0.0
O634 O 0.83981 0.65549 0.85926 0.0
O635 O 0.89855 0.65938 0.84647 0.0
O636 O 0.91698 0.73905 0.85481 0.0
O637 O 0.99768 0.74071 0.89008 0.0
O638 O 0.80058 0.59554 0.91478 0.0
O639 O 0.88997 0.64665 0.8874 0.0
O640 O 0.94441 0.70218 0.91387 0.0
O641 O 0.88697 0.69918 0.92811 0.0
O642 O 0.86313 0.61746 0.91876 0.0
O643 O 0.7869 0.61496 0.88173 0.0
C644 C 0.88995 0.73324 0.87019 0.0
C645 C 0.99944 0.63593 0.80807 0.0
C646 C 1.00658 0.62079 0.82924 0.0
C647 C 1.00439 0.77227 0.87817 0.0
C648 C 0.04388 0.79626 0.8673 0.0
C649 C 0.05754 0.77909 0.8505 0.0
C650 C 0.06759 0.83682 0.87305 0.0
C651 C 0.10505 0.85989 0.86218 0.0
C652 C 0.09413 0.80175 0.83947 0.0
C653 C 0.11762 0.84169 0.84517 0.0
C654 C 0.86217 0.65174 0.84236 0.0
C655 C 0.88965 0.62292 0.9031 0.0
C656 C 0.77399 0.58739 0.8981 0.0
C657 C 0.73259 0.57208 0.90651 0.0
C658 C 0.72555 0.59202 0.92515 0.0
C659 C 0.69991 0.5382 0.89614 0.0
C660 C 0.66079 0.52558 0.90412 0.0
C661 C 0.68738 0.5799 0.93295 0.0
C662 C 0.65533 0.54719 0.92253 0.0
C663 C 0.92448 0.70835 0.93081 0.0
H664 H 0.0398 0.74818 0.84581 0.0
H665 H 0.05715 0.85012 0.88613 0.0
H666 H 0.10434 0.78832 0.82637 0.0
H667 H 0.14574 0.85847 0.83608 0.0
H668 H 0.74965 0.61693 0.93391 0.0
H669 H 0.7048 0.5221 0.88192 0.0
H670 H 0.68263 0.59582 0.94733 0.0
H671 H 0.62608 0.53816 0.92935 0.0
Gd672 Gd 0.2422 0.93088 0.37359 0.0
Gd673 Gd 0.1958 0.83293 0.40275 0.0
C674 C 0.06741 0.75702 0.42587 0.0
C675 C 0.07168 0.76285 0.46957 0.0
C676 C 0.13063 0.79841 0.44484 0.0
C677 C 0.10808 0.78454 0.42414 0.0
C678 C 0.1128 0.78705 0.46783 0.0
C679 C 0.04907 0.74734 0.4486 0.0
C680 C 0.04696 0.73794 0.40488 0.0
C681 C 0.06645 0.74788 0.38271 0.0
N682 N 0.12664 0.79425 0.40242 0.0
C683 C 0.10638 0.7764 0.38178 0.0
H684 H 0.12113 0.78304 0.36455 0.0
C685 C 0.19412 0.82613 0.46226 0.0
N686 N 0.17042 0.81876 0.44245 0.0
C687 C 0.17792 0.81714 0.48546 0.0
C688 C 0.13703 0.798 0.48829 0.0
H689 H 0.22574 0.84013 0.46015 0.0
H690 H 0.0177 0.7268 0.4502 0.0
H691 H 0.32115 0.97149 0.41092 0.0
H692 H 1.01647 0.71454 0.40571 0.0
H693 H 0.05092 0.73302 0.36637 0.0
H694 H 0.05741 0.75405 0.48704 0.0
H695 H 0.21114 0.93347 0.31771 0.0
H696 H 0.42544 0.01397 0.36817 0.0
H697 H 0.39328 1.0024 0.40811 0.0
H698 H 0.37687 0.998 0.28702 0.0
H699 H 0.19694 0.82438 0.5011 0.0
H700 H 0.12447 0.79007 0.50625 0.0
H701 H 0.41898 1.01158 0.32292 0.0
H702 H 0.23862 0.95204 0.27669 0.0
N703 N 0.31182 0.96415 0.37289 0.0
C704 C 0.39362 1.00021 0.36926 0.0
C705 C 0.37558 0.99389 0.39183 0.0
C706 C 0.37046 0.98997 0.34836 0.0
C707 C 0.32915 0.97202 0.35081 0.0
C708 C 0.3345 0.97632 0.39331 0.0
N709 N 0.26621 0.94841 0.33394 0.0
C710 C 0.30559 0.96417 0.33066 0.0
C711 C 0.25768 0.95485 0.29161 0.0
C712 C 0.29781 0.96891 0.28773 0.0
C713 C 0.24226 0.94469 0.31495 0.0
C714 C 0.32245 0.97424 0.30743 0.0
H715 H 0.30963 0.97662 0.26959 0.0
O716 O 0.21379 0.96501 0.36487 0.0
O717 O 0.18649 0.88091 0.38905 0.0
O718 O 0.19062 0.83039 0.36078 0.0
O719 O 0.24351 0.88923 0.34649 0.0
O720 O 0.18103 0.90554 0.35738 0.0
O721 O 0.26269 0.98866 0.38986 0.0
O722 O 0.21614 0.79339 0.41573 0.0
O723 O 0.25098 0.8818 0.38713 0.0
O724 O 0.25057 0.93716 0.41393 0.0
O725 O 0.1995 0.87909 0.43026 0.0
O726 O 0.2566 0.85675 0.41845 0.0
O727 O 0.18177 0.77887 0.38316 0.0
C728 C 0.16179 0.87939 0.37366 0.0
C729 C 0.36337 0.99045 0.30475 0.0
C730 C 0.38734 0.9982 0.32518 0.0
C731 C 0.23753 0.99513 0.3781 0.0
C732 C 0.25302 0.03422 0.36668 0.0
C733 C 0.28367 0.04724 0.34978 0.0
C734 C 0.23664 0.05837 0.37219 0.0
C735 C 0.25131 0.09563 0.36101 0.0
C736 C 0.29782 0.08362 0.33841 0.0
C737 C 0.28185 0.10759 0.3439 0.0
C738 C 0.21522 0.85245 0.3432 0.0
C739 C 0.27595 0.88266 0.40208 0.0
C740 C 0.19739 0.76652 0.39926 0.0
C741 C 0.17214 0.72509 0.40788 0.0
C742 C 0.14694 0.71789 0.42758 0.0
C743 C 0.17228 0.69248 0.39659 0.0
C744 C 0.14643 0.65331 0.40473 0.0
C745 C 0.12142 0.67963 0.43548 0.0
C746 C 0.12097 0.64765 0.42415 0.0
C747 C 0.22688 0.9172 0.43192 0.0
H748 H 0.29659 0.02923 0.34534 0.0
H749 H 0.21313 0.0485 0.38538 0.0
H750 H 0.32133 0.09334 0.32526 0.0
H751 H 0.29338 0.1356 0.33463 0.0
H752 H 0.14711 0.74192 0.43708 0.0
H753 H 0.19197 0.69748 0.38158 0.0
H754 H 0.10207 0.67475 0.45066 0.0
H755 H 0.10125 0.61829 0.43104 0.0
Gd756 Gd 0.32445 0.23627 0.87448 0.0
Gd757 Gd 0.37502 0.18885 0.90364 0.0
C758 C 0.32195 0.06101 0.92788 0.0
C759 C 0.31978 0.06614 0.97149 0.0
C760 C 0.34355 0.12465 0.94626 0.0
C761 C 0.33526 0.10169 0.92575 0.0
C762 C 0.33662 0.10723 0.9694 0.0
C763 C 0.31299 0.04313 0.95076 0.0
C764 C 0.32066 0.04008 0.90714 0.0
C765 C 0.33065 0.05917 0.88483 0.0
N766 N 0.34429 0.11975 0.90385 0.0
C767 C 0.342 0.09907 0.88346 0.0
H768 H 0.35031 0.11358 0.86613 0.0
C769 C 0.37839 0.18853 0.96334 0.0
N770 N 0.36279 0.16444 0.9436 0.0
C771 C 0.37071 0.17268 0.98664 0.0
C772 C 0.34925 0.13181 0.98971 0.0
H773 H 0.3957 0.22014 0.96108 0.0
H774 H 0.3021 0.01177 0.95266 0.0
H775 H 0.36298 0.31477 0.91226 0.0
H776 H 0.31345 1.00957 0.90834 0.0
H777 H 0.33045 0.04341 0.86872 0.0
H778 H 0.31399 0.05219 0.98909 0.0
H779 H 0.29166 0.20622 0.81834 0.0
H780 H 0.42516 0.41969 0.87008 0.0
H781 H 0.40434 0.38687 0.90984 0.0
H782 H 0.39351 0.37242 0.78865 0.0
H783 H 0.38192 0.19197 1.0022 0.0
H784 H 0.34425 0.11955 0.00777 0.0
H785 H 0.42159 0.41396 0.82481 0.0
H786 H 0.30148 0.2343 0.77743 0.0
N787 N 0.361 0.30597 0.87415 0.0
C788 C 0.40703 0.38785 0.871 0.0
C789 C 0.39517 0.36944 0.89346 0.0
C790 C 0.3942 0.36503 0.84996 0.0
C791 C 0.37065 0.32369 0.85219 0.0
C792 C 0.37156 0.32834 0.89471 0.0
N793 N 0.3313 0.26108 0.83498 0.0
C794 C 0.35507 0.30048 0.83192 0.0
C795 C 0.31734 0.25316 0.79251 0.0
C796 C 0.34346 0.29336 0.78888 0.0
C797 C 0.31153 0.2374 0.81579 0.0
C798 C 0.36234 0.3177 0.80876 0.0
H799 H 0.34802 0.30543 0.77078 0.0
O800 O 0.26248 0.21018 0.86466 0.0
O801 O 0.31819 0.17994 0.88935 0.0
O802 O 0.37318 0.18419 0.86158 0.0
O803 O 0.36754 0.23749 0.84755 0.0
O804 O 0.28804 0.17536 0.85792 0.0
O805 O 0.28694 0.25487 0.89244 0.0
O806 O 0.43471 0.20933 0.91697 0.0
O807 O 0.38215 0.24437 0.88785 0.0
O808 O 0.32718 0.24456 0.91487 0.0
O809 O 0.331 0.19126 0.93034 0.0
O810 O 0.41259 0.24975 0.91921 0.0
O811 O 0.41448 0.17257 0.88536 0.0
C812 C 0.29489 0.15559 0.87386 0.0
C813 C 0.38721 0.35865 0.80631 0.0
C814 C 0.40319 0.38229 0.82689 0.0
C815 C 0.25582 0.23195 0.87954 0.0
C816 C 0.23295 0.24957 0.86983 0.0
C817 C 0.25145 0.28327 0.8552 0.0
C818 C 0.19233 0.2327 0.87517 0.0
C819 C 0.17063 0.25006 0.8663 0.0
C820 C 0.23005 0.30022 0.84615 0.0
C821 C 0.19008 0.28394 0.8517 0.0
C822 C 0.3758 0.20904 0.84407 0.0
C823 C 0.40646 0.26928 0.90274 0.0
C824 C 0.44239 0.18896 0.90145 0.0
C825 C 0.45803 0.16394 0.91145 0.0
C826 C 0.44073 0.14151 0.9323 0.0
C827 C 0.4898 0.16179 0.90051 0.0
C828 C 0.50277 0.13642 0.91012 0.0
C829 C 0.45306 0.11639 0.94161 0.0
C830 C 0.48357 0.11365 0.93059 0.0
C831 C 0.32181 0.21968 0.93245 0.0
H832 H 0.28247 0.29652 0.85083 0.0
H833 H 0.17795 0.20676 0.88659 0.0
H834 H 0.24456 0.32625 0.83486 0.0
H835 H 0.17423 0.29778 0.84446 0.0
H836 H 0.4178 0.14361 0.94165 0.0
H837 H 0.50404 0.17937 0.88463 0.0
H838 H 0.43909 0.09918 0.95764 0.0
H839 H 0.4929 0.09429 0.93851 0.0
Gd840 Gd 0.09741 0.31675 0.37135 0.0
Gd841 Gd 0.19534 0.36774 0.40065 0.0
C842 C 0.27143 0.31504 0.42302 0.0
C843 C 0.26514 0.31214 0.4667 0.0
C844 C 0.22955 0.33597 0.44231 0.0
C845 C 0.24386 0.32817 0.42148 0.0
C846 C 0.24069 0.32882 0.46519 0.0
C847 C 0.28097 0.3058 0.44564 0.0
C848 C 0.29061 0.31417 0.40197 0.0
C849 C 0.28077 0.32425 0.37992 0.0
N850 N 0.23425 0.33753 0.39987 0.0
C851 C 0.25219 0.33562 0.37916 0.0
H852 H 0.24556 0.34409 0.36203 0.0
C853 C 0.20088 0.37051 0.46021 0.0
N854 N 0.20885 0.35513 0.44019 0.0
C855 C 0.20969 0.36262 0.4833 0.0
C856 C 0.22921 0.34116 0.48583 0.0
H857 H 0.18658 0.3879 0.45834 0.0
H858 H 0.30159 0.29503 0.44709 0.0
H859 H 0.05704 0.35474 0.40903 0.0
H860 H 0.31402 0.30708 0.40268 0.0
H861 H 0.29572 0.324 0.36354 0.0
H862 H 0.27378 0.30617 0.4841 0.0
H863 H 0.09507 0.28408 0.31516 0.0
H864 H 1.01427 0.41697 0.36678 0.0
H865 H 0.02616 0.39605 0.40657 0.0
H866 H 0.0301 0.38543 0.28537 0.0
H867 H 0.20201 0.37365 0.4991 0.0
H868 H 0.23697 0.33599 0.50372 0.0
H869 H 1.01641 0.41335 0.3215 0.0
H870 H 0.07695 0.29399 0.27422 0.0
N871 N 0.06398 0.35296 0.37095 0.0
C872 C 0.02798 0.39884 0.36772 0.0
C873 C 0.03449 0.38695 0.3902 0.0
C874 C 0.03803 0.38605 0.3467 0.0
C875 C 0.05594 0.3626 0.34896 0.0
C876 C 0.05205 0.36338 0.39148 0.0
N877 N 0.07962 0.32356 0.33178 0.0
C878 C 0.06377 0.34717 0.3287 0.0
C879 C 0.07375 0.3097 0.2893 0.0
C880 C 0.05947 0.33567 0.28565 0.0
C881 C 0.08368 0.30389 0.3126 0.0
C882 C 0.05382 0.35441 0.30552 0.0
H883 H 0.05195 0.34021 0.26755 0.0
O884 O 0.06324 0.25417 0.36267 0.0
O885 O 0.14763 0.31093 0.38627 0.0
O886 O 0.19811 0.36656 0.35868 0.0
O887 O 0.13898 0.36033 0.34454 0.0
O888 O 0.12273 0.28128 0.35455 0.0
O889 O 0.04 0.27928 0.38798 0.0
O890 O 0.23424 0.42728 0.41429 0.0
O891 O 0.14649 0.3744 0.38521 0.0
O892 O 0.09191 0.31891 0.41171 0.0
O893 O 0.14927 0.32344 0.42738 0.0
O894 O 0.17129 0.40425 0.41678 0.0
O895 O 0.25009 0.40824 0.38189 0.0
C896 C 0.14915 0.28809 0.37065 0.0
C897 C 0.03757 0.37915 0.30305 0.0
C898 C 0.02977 0.39503 0.32361 0.0
C899 C 0.03347 0.24762 0.37626 0.0
C900 C 0.994 0.22348 0.36536 0.0
C901 C 0.98047 0.24031 0.34821 0.0
C902 C 0.96992 0.18324 0.37169 0.0
C903 C 0.93224 0.16019 0.36105 0.0
C904 C 0.94365 0.21763 0.3374 0.0
C905 C 0.91976 0.17802 0.34371 0.0
C906 C 0.1759 0.36929 0.34124 0.0
C907 C 0.1456 0.39825 0.40034 0.0
C908 C 0.26176 0.43578 0.39824 0.0
C909 C 0.3028 0.45175 0.40753 0.0
C910 C 0.30914 0.43366 0.42757 0.0
C911 C 0.33588 0.48446 0.39663 0.0
C912 C 0.37467 0.49767 0.40547 0.0
C913 C 0.34704 0.44626 0.43614 0.0
C914 C 0.37949 0.47776 0.42517 0.0
C915 C 0.11136 0.31324 0.42922 0.0
H916 H 0.99845 0.27099 0.34311 0.0
H917 H 0.98019 0.1702 0.38507 0.0
H918 H 0.93352 0.23081 0.32406 0.0
H919 H 0.8914 0.16118 0.33485 0.0
H920 H 0.28472 0.40991 0.43685 0.0
H921 H 0.33155 0.49926 0.38138 0.0
H922 H 0.35124 0.43173 0.45156 0.0
H923 H 0.40854 0.48731 0.43259 0.0
Gd924 Gd 0.8029 0.09141 0.875 0.0
Gd925 Gd 0.8299 0.18916 0.89393 0.0
C926 C 0.96348 0.27282 0.89591 0.0
C927 C 0.97948 0.26977 0.93785 0.0
C928 C 0.91202 0.22841 0.92333 0.0
C929 C 0.92377 0.2437 0.90027 0.0
C930 C 0.94008 0.24132 0.94231 0.0
C931 C 0.99085 0.28621 0.91489 0.0
C932 C 0.97448 0.2887 0.87275 0.0
C933 C 0.94606 0.2765 0.8547 0.0
N934 N 0.89634 0.2315 0.88235 0.0
C935 C 0.90694 0.24864 0.85995 0.0
H936 H 0.88561 0.24267 0.846 0.0
C937 C 0.86049 0.19346 0.95113 0.0
N938 N 0.87303 0.2032 0.92765 0.0
C939 C 0.88735 0.20366 0.97011 0.0
C940 C 0.92744 0.22722 0.96564 0.0
H941 H 0.82988 0.17978 0.95608 0.0
H942 H 0.0209 0.30976 0.91207 0.0
H943 H 0.74179 0.03498 0.92029 0.0
H944 H 1.00463 0.31104 0.86874 0.0
H945 H 0.95401 0.28948 0.83687 0.0
H946 H 1.0011 0.28043 0.9523 0.0
H947 H 0.80532 0.08588 0.81321 0.0
H948 H 0.62331 0.9979 0.89966 0.0
H949 H 0.67161 1.0033 0.93046 0.0
H950 H 0.63448 0.02805 0.81527 0.0
H951 H 0.87689 0.19485 0.98841 0.0
H952 H 0.94812 0.23627 0.98056 0.0
H953 H 0.60981 1.00767 0.85665 0.0
H954 H 0.76135 0.07531 0.77898 0.0
N955 N 0.73505 0.05284 0.88506 0.0
C956 C 0.65446 0.01286 0.89527 0.0
C957 C 0.68162 0.01607 0.91273 0.0
C958 C 0.66768 0.02716 0.87199 0.0
C959 C 0.70865 0.04668 0.86728 0.0
C960 C 0.72181 0.03528 0.90707 0.0
N961 N 0.7619 0.07523 0.84011 0.0
C962 C 0.72256 0.05868 0.84413 0.0
C963 C 0.7501 0.0713 0.79723 0.0
C964 C 0.71039 0.05866 0.80129 0.0
C965 C 0.77519 0.07811 0.81687 0.0
C966 C 0.69583 0.05075 0.8249 0.0
H967 H 0.69089 0.05305 0.78605 0.0
O968 O 0.8268 0.06271 0.85245 0.0
O969 O 0.85491 0.15281 0.88013 0.0
O970 O 0.82556 0.18765 0.85286 0.0
O971 O 0.8334 0.13401 0.84408 0.0
O972 O 0.85827 0.107 0.89612 0.0
O973 O 0.79461 0.03384 0.88476 0.0
O974 O 0.81366 0.22142 0.91938 0.0
O975 O 0.77708 0.12871 0.88834 0.0
O976 O 0.80588 0.09085 0.91514 0.0
O977 O 0.79523 0.14271 0.92406 0.0
O978 O 0.77711 0.17642 0.87193 0.0
O979 O 0.83428 0.2451 0.88393 0.0
C980 C 0.87738 0.1444 0.89205 0.0
C981 C 0.65531 0.03361 0.82973 0.0
C982 C 0.64125 0.02188 0.85326 0.0
C983 C 0.81349 0.03152 0.86611 0.0
C984 C 0.79639 0.99279 0.85405 0.0
C985 C 0.76589 0.98123 0.83716 0.0
C986 C 0.81043 0.96678 0.85983 0.0
C987 C 0.79395 0.92926 0.8488 0.0
C988 C 0.74993 0.94454 0.82587 0.0
C989 C 0.7638 0.91881 0.83155 0.0
C990 C 0.83072 0.165 0.83729 0.0
C991 C 0.75622 0.13906 0.87589 0.0
C992 C 0.82511 0.25192 0.9052 0.0
C993 C 0.85223 0.29193 0.91527 0.0
C994 C 0.87766 0.29637 0.93444 0.0
C995 C 0.85434 0.32626 0.90504 0.0
C996 C 0.88228 0.36442 0.91361 0.0
C997 C 0.90514 0.33375 0.94289 0.0
C998 C 0.90759 0.36742 0.93258 0.0
C999 C 0.79705 0.11067 0.93057 0.0
H1000 H 0.75437 1.00049 0.83272 0.0
H1001 H 0.83352 0.97546 0.87324 0.0
H1002 H 0.72657 0.9359 0.81269 0.0
H1003 H 0.75092 0.89064 0.82232 0.0
H1004 H 0.87649 0.271 0.94294 0.0
H1005 H 0.83485 0.32332 0.89028 0.0
H1006 H 0.92464 0.33664 0.95762 0.0
H1007 H 0.92892 0.39599 0.93984 0.0
C1008 C 0.17347 0.93257 0.10906 0.0
C1009 C 0.16767 0.91264 0.1311 0.0
C1010 C 0.18814 0.97384 0.10836 0.0
C1011 C 0.19628 0.99569 0.13022 0.0
C1012 C 0.19076 0.9755 0.15243 0.0
C1013 C 0.17644 0.93451 0.15258 0.0
C1014 C 0.19456 0.99399 0.08423 0.0
C1015 C 0.1999 0.99725 0.1762 0.0
C1016 C 0.26527 0.10776 0.13323 0.0
C1017 C 0.23906 0.12205 0.13612 0.0
C1018 C 0.25185 0.06727 0.13063 0.0
C1019 C 0.21085 0.03957 0.13025 0.0
C1020 C 0.184 0.05399 0.13196 0.0
C1021 C 0.19836 0.09497 0.13486 0.0
C1022 C 0.28208 0.0546 0.12817 0.0
C1023 C 0.14006 0.02595 0.13166 0.0
H1024 H 0.16588 0.91578 0.0924 0.0
H1025 H 0.17167 0.91929 0.1697 0.0
H1026 H 0.17618 1.00821 0.0829 0.0
H1027 H 0.22585 0.01763 0.08252 0.0
H1028 H 0.18724 0.97312 0.06889 0.0
H1029 H 0.19417 0.97742 0.19192 0.0
H1030 H 0.23136 0.02087 0.17662 0.0
H1031 H 0.18178 0.01165 0.17816 0.0
H1032 H 0.29676 0.12844 0.13343 0.0
H1033 H 0.17773 0.10559 0.13709 0.0
H1034 H 0.28361 0.04832 0.10884 0.0
H1035 H 0.27369 0.0277 0.13894 0.0
H1036 H 0.31194 0.07794 0.13397 0.0
H1037 H 0.13176 1.00626 0.11568 0.0
H1038 H 0.12305 0.04173 0.1313 0.0
H1039 H 0.13141 1.00693 0.14797 0.0
C1040 C 0.25523 0.165 0.60839 0.0
C1041 C 0.2694 0.16054 0.63078 0.0
C1042 C 0.22789 0.17865 0.60691 0.0
C1043 C 0.21382 0.18747 0.62835 0.0
C1044 C 0.22868 0.1835 0.65092 0.0
C1045 C 0.25586 0.16986 0.65184 0.0
C1046 C 0.21368 0.18312 0.58243 0.0
C1047 C 0.21573 0.19354 0.67425 0.0
C1048 C 0.16884 0.25476 0.62878 0.0
C1049 C 0.12859 0.22812 0.63227 0.0
C1050 C 0.19642 0.24194 0.62677 0.0
C1051 C 0.18388 0.20112 0.62757 0.0
C1052 C 0.14283 0.17375 0.62976 0.0
C1053 C 0.11569 0.18752 0.63211 0.0
C1054 C 0.23909 0.27254 0.62384 0.0
C1055 C 0.12775 0.12996 0.63056 0.0
H1056 H 0.26486 0.157 0.59206 0.0
H1057 H 0.26638 0.16611 0.66922 0.0
H1058 H 0.18109 0.16443 0.58136 0.0
H1059 H 0.22104 0.21416 0.57973 0.0
H1060 H 0.22712 0.17481 0.56752 0.0
H1061 H 0.23036 0.18937 0.69029 0.0
H1062 H 0.22261 0.22472 0.67382 0.0
H1063 H 0.18331 0.17474 0.67637 0.0
H1064 H 0.17904 0.28612 0.6281 0.0
H1065 H 0.08463 0.16659 0.63477 0.0
H1066 H 0.24736 0.27169 0.60483 0.0
H1067 H 0.25776 0.26612 0.63592 0.0
H1068 H 0.24493 0.30286 0.62778 0.0
H1069 H 0.1395 0.12107 0.61503 0.0
H1070 H 0.095 0.11239 0.63019 0.0
H1071 H 0.13836 0.1226 0.64729 0.0
C1072 C 0.94434 0.11394 0.14678 0.0
C1073 C 0.91709 0.12655 0.15139 0.0
C1074 C 0.98446 0.14136 0.14208 0.0
C1075 C 0.99771 0.18246 0.14162 0.0
C1076 C 0.9699 0.195 0.14584 0.0
C1077 C 0.9302 0.16707 0.1504 0.0
C1078 C 1.01304 0.12642 0.13883 0.0
C1079 C 0.98161 0.23794 0.14556 0.0
C1080 C 0.10532 0.25563 0.15708 0.0
C1081 C 0.12325 0.26713 0.13431 0.0
C1082 C 0.06486 0.22834 0.15961 0.0
C1083 C 0.04096 0.21224 0.1388 0.0
C1084 C 0.05872 0.22422 0.11563 0.0
C1085 C 0.09985 0.25067 0.11366 0.0
C1086 C 0.04787 0.21611 0.18469 0.0
C1087 C 0.03428 0.20903 0.09296 0.0
H1088 H 0.93461 0.08271 0.14775 0.0
H1089 H 0.90924 0.1771 0.15343 0.0
H1090 H 0.02936 0.13744 0.1216 0.0
H1091 H 0.03516 0.13788 0.15363 0.0
H1092 H 0.99803 0.09366 0.13888 0.0
H1093 H 0.95913 0.24329 0.15429 0.0
H1094 H 1.01019 0.25625 0.15484 0.0
H1095 H 0.98451 0.24754 0.12654 0.0
H1096 H 0.12339 0.26731 0.17315 0.0
H1097 H 0.11372 0.25813 0.09603 0.0
H1098 H 0.03377 0.18359 0.18663 0.0
H1099 H 0.02467 0.22404 0.18769 0.0
H1100 H 0.07064 0.23034 0.19901 0.0
H1101 H 0.02133 0.17659 0.09166 0.0
H1102 H 0.0519 0.22283 0.07642 0.0
H1103 H 1.00941 0.21505 0.09364 0.0
C1104 C 0.76993 0.9151 0.63249 0.0
C1105 C 0.79699 0.90194 0.63573 0.0
C1106 C 0.78236 0.95522 0.62911 0.0
C1107 C 0.82315 0.98356 0.62828 0.0
C1108 C 0.85081 0.97022 0.63038 0.0
C1109 C 0.83745 0.92963 0.63406 0.0
C1110 C 0.75133 0.96681 0.62634 0.0
C1111 C 0.89457 0.99905 0.62976 0.0
C1112 C 0.85901 0.08919 0.60529 0.0
C1113 C 0.86466 0.10991 0.62699 0.0
C1114 C 0.8446 0.04798 0.60527 0.0
C1115 C 0.83678 0.02714 0.62749 0.0
C1116 C 0.8421 0.04811 0.64936 0.0
C1117 C 0.85599 0.08898 0.64882 0.0
C1118 C 0.83814 0.02683 0.5815 0.0
C1119 C 0.83341 0.0274 0.67347 0.0
H1120 H 0.73859 0.89385 0.63301 0.0
H1121 H 0.8587 0.91984 0.63658 0.0
H1122 H 0.75945 0.99422 0.63648 0.0
H1123 H 0.74899 0.97177 0.60689 0.0
H1124 H 0.72189 0.94336 0.63266 0.0
H1125 H 0.91225 0.98396 0.62985 0.0
H1126 H 0.90223 0.01789 0.61341 0.0
H1127 H 0.90305 0.01885 0.64571 0.0
H1128 H 0.86658 0.10531 0.58839 0.0
H1129 H 0.86068 0.10487 0.66567 0.0
H1130 H 0.80704 1.00263 0.58014 0.0
H1131 H 0.8571 0.01322 0.58048 0.0
H1132 H 0.84475 0.04692 0.56582 0.0
H1133 H 0.8021 1.00345 0.6741 0.0
H1134 H 0.83895 0.0478 0.68884 0.0
H1135 H 0.85197 0.01354 0.67586 0.0
C1136 C 0.86977 0.77814 0.11786 0.0
C1137 C 0.90707 0.80218 0.12805 0.0
C1138 C 0.8441 0.79262 0.11291 0.0
C1139 C 0.8552 0.83214 0.11882 0.0
C1140 C 0.89372 0.85717 0.12816 0.0
C1141 C 0.91927 0.84199 0.13255 0.0
C1142 C 0.80447 0.76431 0.10237 0.0
C1143 C 0.90752 0.89972 0.13421 0.0
C1144 C 0.79437 0.87668 0.0935 0.0
C1145 C 0.77066 0.87368 0.11329 0.0
C1146 C 0.82177 0.86319 0.09493 0.0
C1147 C 0.82592 0.84649 0.11674 0.0
C1148 C 0.80166 0.84314 0.13668 0.0
C1149 C 0.77505 0.85746 0.13487 0.0
C1150 C 0.84622 0.86664 0.07305 0.0
C1151 C 0.80366 0.8242 0.15997 0.0
H1152 H 0.86026 0.74744 0.11406 0.0
H1153 H 0.94814 0.8608 0.14041 0.0
H1154 H 0.78531 0.74512 0.11708 0.0
H1155 H 0.79052 0.77969 0.0937 0.0
H1156 H 0.8071 0.74487 0.08875 0.0
H1157 H 0.93914 0.91617 0.13951 0.0
H1158 H 0.90312 0.91469 0.11846 0.0
H1159 H 0.88966 0.90114 0.14932 0.0
H1160 H 0.79162 0.88987 0.07692 0.0
H1161 H 0.75786 0.85631 0.15051 0.0
H1162 H 0.83959 0.83678 0.06722 0.0
H1163 H 0.87808 0.88362 0.07768 0.0
H1164 H 0.84049 0.88133 0.05767 0.0
H1165 H 0.79702 0.79355 0.15637 0.0
H1166 H 0.78249 0.82327 0.17369 0.0
H1167 H 0.83392 0.84066 0.16759 0.0
C1168 C 0.93813 0.76974 0.6525 0.0
C1169 C 0.9164 0.75723 0.63094 0.0
C1170 C 0.97897 0.79672 0.65254 0.0
C1171 C 0.9991 0.81228 0.63043 0.0
C1172 C 0.97744 0.79915 0.60848 0.0
C1173 C 0.93628 0.77225 0.609 0.0
C1174 C 1.00058 0.80881 0.67638 0.0
C1175 C 0.99766 0.81382 0.58446 0.0
C1176 C 0.0969 0.91031 0.63624 0.0
C1177 C 0.12456 0.89742 0.63731 0.0
C1178 C 0.05619 0.88319 0.63297 0.0
C1179 C 0.0427 0.84217 0.63071 0.0
C1180 C 0.071 0.82962 0.63091 0.0
C1181 C 0.11121 0.85721 0.63386 0.0
C1182 C 0.02743 0.89823 0.63295 0.0
C1183 C 0.05927 0.78702 0.62791 0.0
H1184 H 0.92288 0.75872 0.66954 0.0
H1185 H 0.91953 0.76357 0.59232 0.0
H1186 H 0.02462 0.80155 0.67652 0.0
H1187 H 1.01441 0.84121 0.6788 0.0
H1188 H 0.98079 0.7939 0.69198 0.0
H1189 H 0.97699 0.80032 0.56903 0.0
H1190 H 1.01121 0.84638 0.58348 0.0
H1191 H 0.02181 0.80692 0.58261 0.0
H1192 H 0.10685 0.94135 0.6389 0.0
H1193 H 0.13242 0.84704 0.63391 0.0
H1194 H 1.00827 0.88702 0.64916 0.0
H1195 H 1.00796 0.88703 0.61686 0.0
H1196 H 0.04259 0.931 0.63301 0.0
H1197 H 0.03214 0.7677 0.63824 0.0
H1198 H 0.08283 0.78091 0.63384 0.0
H1199 H 0.05382 0.77991 0.60845 0.0
C1200 C 0.09563 0.85065 0.35432 0.0
C1201 C 0.11799 0.86007 0.37562 0.0
C1202 C 0.05482 0.83693 0.35476 0.0
C1203 C 0.03542 0.83295 0.37709 0.0
C1204 C 0.05777 0.8418 0.39878 0.0
C1205 C 0.09882 0.85562 0.39779 0.0
C1206 C 0.03244 0.8269 0.33118 0.0
C1207 C 0.03844 0.83722 0.42303 0.0
C1208 C 0.93768 0.83337 0.37164 0.0
C1209 C 0.90993 0.79282 0.37114 0.0
C1210 C 0.97843 0.84696 0.37471 0.0
C1211 C 0.99187 0.81943 0.3773 0.0
C1212 C 0.96347 0.77864 0.37779 0.0
C1213 C 0.92323 0.766 0.37503 0.0
C1214 C 1.00728 0.89073 0.37417 0.0
C1215 C 0.97523 0.74787 0.38117 0.0
H1216 H 0.11032 0.8545 0.33711 0.0
H1217 H 0.11607 0.86374 0.41429 0.0
H1218 H 0.01891 0.84573 0.32872 0.0
H1219 H 0.05164 0.83102 0.31538 0.0
H1220 H 1.00812 0.79573 0.33149 0.0
H1221 H 0.05974 0.84531 0.43819 0.0
H1222 H 0.02463 0.85601 0.42385 0.0
H1223 H 1.01461 0.8062 0.42552 0.0
H1224 H 0.92777 0.85443 0.36868 0.0
H1225 H 0.90195 0.73466 0.37543 0.0
H1226 H 0.02579 0.89816 0.35769 0.0
H1227 H 0.02738 0.89941 0.38998 0.0
H1228 H 0.99219 0.90841 0.37421 0.0
H1229 H 1.00106 0.75447 0.36978 0.0
H1230 H 0.95098 0.71769 0.3767 0.0
H1231 H 0.98304 0.74821 0.40042 0.0
C1232 C 0.17243 0.91654 0.87141 0.0
C1233 C 0.132 0.90255 0.86839 0.0
C1234 C 0.19966 0.95693 0.87419 0.0
C1235 C 0.1866 0.98483 0.87475 0.0
C1236 C 0.14541 0.97071 0.87286 0.0
C1237 C 0.11863 0.92984 0.86971 0.0
C1238 C 0.24247 0.96922 0.8767 0.0
C1239 C 0.12978 0.999 0.8732 0.0
C1240 C 0.25593 0.09125 0.89694 0.0
C1241 C 0.27079 0.11159 0.8751 0.0
C1242 C 0.22927 0.04999 0.89725 0.0
C1243 C 0.21607 0.02863 0.8752 0.0
C1244 C 0.23137 0.04925 0.85319 0.0
C1245 C 0.25822 0.09018 0.85343 0.0
C1246 C 0.21499 0.0293 0.92118 0.0
C1247 C 0.21922 0.02805 0.82922 0.0
H1248 H 0.18305 0.8957 0.87117 0.0
H1249 H 0.08745 0.91947 0.86737 0.0
H1250 H 0.26128 0.99674 0.86656 0.0
H1251 H 0.24991 0.97415 0.89613 0.0
H1252 H 0.24888 0.94612 0.87023 0.0
H1253 H 0.09701 0.98343 0.87324 0.0
H1254 H 0.14089 0.01828 0.88937 0.0
H1255 H 0.14065 0.01841 0.85707 0.0
H1256 H 0.26463 0.1077 0.91373 0.0
H1257 H 0.26913 0.10574 0.83646 0.0
H1258 H 0.22232 1.00539 0.92273 0.0
H1259 H 0.18241 0.01535 0.92228 0.0
H1260 H 0.22841 0.04976 0.93671 0.0
H1261 H 0.22694 1.00434 0.82873 0.0
H1262 H 0.2337 0.04821 0.81371 0.0
H1263 H 0.18675 0.01381 0.82698 0.0
C1264 C 0.17757 0.2508 0.35078 0.0
C1265 C 0.16857 0.26365 0.37225 0.0
C1266 C 0.1913 0.22369 0.35092 0.0
C1267 C 0.19598 0.20839 0.37313 0.0
C1268 C 0.18767 0.22188 0.39499 0.0
C1269 C 0.17353 0.24889 0.39428 0.0
C1270 C 0.20062 0.21121 0.32717 0.0
C1271 C 0.19332 0.2075 0.41911 0.0
C1272 C 0.19566 0.11019 0.36809 0.0
C1273 C 0.23619 0.12303 0.36706 0.0
C1274 C 0.18212 0.13741 0.37106 0.0
C1275 C 0.20965 0.17846 0.37308 0.0
C1276 C 0.25048 0.19096 0.37292 0.0
C1277 C 0.26308 0.1633 0.37024 0.0
C1278 C 0.13833 0.12241 0.37106 0.0
C1279 C 0.28135 0.2336 0.37573 0.0
H1280 H 0.17336 0.2617 0.33367 0.0
H1281 H 0.16568 0.25789 0.41092 0.0
H1282 H 0.23191 0.21846 0.32702 0.0
H1283 H 0.18205 0.17877 0.32494 0.0
H1284 H 0.19561 0.22588 0.31148 0.0
H1285 H 0.18632 0.22129 0.43445 0.0
H1286 H 0.17421 0.17496 0.42026 0.0
H1287 H 0.22433 0.21429 0.42096 0.0
H1288 H 0.17456 0.07911 0.36564 0.0
H1289 H 0.29444 0.17343 0.3702 0.0
H1290 H 0.13033 0.13343 0.35476 0.0
H1291 H 0.13014 0.13385 0.38706 0.0
H1292 H 0.12071 0.08965 0.37116 0.0
H1293 H 0.27359 0.25278 0.36516 0.0
H1294 H 0.31103 0.23958 0.36994 0.0
H1295 H 0.28296 0.24105 0.39513 0.0
C1296 C 0.11572 0.26004 0.88095 0.0
C1297 C 0.12815 0.23424 0.87251 0.0
C1298 C 0.07565 0.24707 0.88517 0.0
C1299 C 0.04667 0.20724 0.88067 0.0
C1300 C 0.05914 0.18075 0.87257 0.0
C1301 C 0.09971 0.19446 0.86876 0.0
C1302 C 0.06445 0.27623 0.8944 0.0
C1303 C 0.02952 0.13809 0.86738 0.0
C1304 C 0.94372 0.16285 0.90896 0.0
C1305 C 0.92115 0.16476 0.88987 0.0
C1306 C 0.9846 0.17746 0.90647 0.0
C1307 C 1.00346 0.19356 0.88408 0.0
C1308 C 0.98074 0.19601 0.86482 0.0
C1309 C 0.93996 0.1815 0.86792 0.0
C1310 C 1.00743 0.17487 0.92769 0.0
C1311 C 0.99935 0.21315 0.84071 0.0
H1312 H 0.13757 0.2907 0.8842 0.0
H1313 H 0.10907 0.17438 0.86211 0.0
H1314 H 0.04304 0.27747 0.88185 0.0
H1315 H 0.0501 0.26627 0.91228 0.0
H1316 H 0.09024 0.30644 0.89636 0.0
H1317 H 0.04383 0.12107 0.86154 0.0
H1318 H 1.01157 0.12391 0.88372 0.0
H1319 H 1.00895 0.13635 0.85298 0.0
H1320 H 0.92918 0.14951 0.92587 0.0
H1321 H 0.9225 0.18214 0.85289 0.0
H1322 H 0.03309 0.20436 0.93171 0.0
H1323 H 0.01914 0.15501 0.9232 0.0
H1324 H 0.98898 0.16356 0.9442 0.0
H1325 H 0.02404 0.24381 0.84309 0.0
H1326 H 0.97788 0.21349 0.82769 0.0
H1327 H 1.01186 0.19567 0.83284 0.0
C1328 C 0.91763 0.0901 0.36904 0.0
C1329 C 0.90494 0.11792 0.36786 0.0
C1330 C 0.89038 0.04945 0.37253 0.0
C1331 C 0.84943 0.03616 0.37494 0.0
C1332 C 0.83712 0.06465 0.37471 0.0
C1333 C 0.86481 0.10481 0.37147 0.0
C1334 C 0.90521 0.02051 0.37263 0.0
C1335 C 0.79462 0.05313 0.37793 0.0
C1336 C 0.77611 0.9314 0.35354 0.0
C1337 C 0.76359 0.90994 0.37518 0.0
C1338 C 0.80345 0.97219 0.35335 0.0
C1339 C 0.81934 0.99257 0.37537 0.0
C1340 C 0.8062 0.97117 0.3974 0.0
C1341 C 0.77892 0.93006 0.39703 0.0
C1342 C 0.81551 0.99351 0.32943 0.0
C1343 C 0.82123 0.99161 0.42135 0.0
H1344 H 0.94859 0.09985 0.36626 0.0
H1345 H 0.85481 0.12614 0.3713 0.0
H1346 H 0.89402 1.0012 0.38878 0.0
H1347 H 0.89382 1.0012 0.35648 0.0
H1348 H 0.93796 0.03553 0.37253 0.0
H1349 H 0.78865 0.07696 0.3724 0.0
H1350 H 0.77511 0.02627 0.36738 0.0
H1351 H 0.78754 0.04714 0.39737 0.0
H1352 H 0.76468 0.916 0.33656 0.0
H1353 H 0.77014 0.91355 0.4138 0.0
H1354 H 0.84789 1.00724 0.327 0.0
H1355 H 0.80834 0.01762 0.32917 0.0
H1356 H 0.80051 0.97355 0.3139 0.0
H1357 H 0.80798 0.97106 0.43685 0.0
H1358 H 0.81434 0.01576 0.42323 0.0
H1359 H 0.8538 1.00518 0.42217 0.0
C1360 C 0.86391 0.77361 0.89065 0.0
C1361 C 0.87012 0.75729 0.86969 0.0
C1362 C 0.84966 0.80046 0.88924 0.0
C1363 C 0.84306 0.81258 0.86634 0.0
C1364 C 0.84919 0.79588 0.84522 0.0
C1365 C 0.86256 0.76863 0.84717 0.0
C1366 C 0.84194 0.81608 0.91224 0.0
C1367 C 0.84217 0.80725 0.82041 0.0
C1368 C 0.77894 0.86023 0.85774 0.0
C1369 C 0.80703 0.90036 0.85531 0.0
C1370 C 0.79007 0.83168 0.86173 0.0
C1371 C 0.8305 0.84316 0.86409 0.0
C1372 C 0.85912 0.88392 0.86244 0.0
C1373 C 0.84709 0.91199 0.85812 0.0
C1374 C 0.75796 0.78928 0.86361 0.0
C1375 C 0.90259 0.89774 0.86431 0.0
H1376 H 0.87082 0.76592 0.90807 0.0
H1377 H 0.86797 0.75668 0.83088 0.0
H1378 H 0.86156 0.84856 0.91319 0.0
H1379 H 0.81105 0.81009 0.91234 0.0
H1380 H 0.84675 0.80252 0.92858 0.0
H1381 H 0.84836 0.79168 0.80577 0.0
H1382 H 0.81105 0.80022 0.81877 0.0
H1383 H 0.86118 0.83955 0.81774 0.0
H1384 H 0.74784 0.85093 0.85634 0.0
H1385 H 0.86915 0.94288 0.85614 0.0
H1386 H 0.75156 0.78221 0.883 0.0
H1387 H 0.76703 0.76924 0.85545 0.0
H1388 H 0.73027 0.78401 0.8547 0.0
H1389 H 0.90884 0.88696 0.88135 0.0
H1390 H 0.92107 0.93043 0.86374 0.0
H1391 H 0.91142 0.8852 0.84917 0.0
C1392 C 0.12814 0.68776 0.08884 0.0
C1393 C 0.13355 0.71224 0.1087 0.0
C1394 C 0.12812 0.65198 0.09141 0.0
C1395 C 0.134 0.64002 0.11449 0.0
C1396 C 0.13733 0.66359 0.1349 0.0
C1397 C 0.13723 0.69952 0.13177 0.0
C1398 C 0.12356 0.62782 0.0691 0.0
C1399 C 0.14312 0.65207 0.15991 0.0
C1400 C 0.10654 0.53158 0.11541 0.0
C1401 C 0.14265 0.53369 0.10979 0.0
C1402 C 0.10375 0.56584 0.11884 0.0
C1403 C 0.13787 0.60358 0.11656 0.0
C1404 C 0.17491 0.60588 0.11274 0.0
C1405 C 0.17688 0.571 0.10945 0.0
C1406 C 0.06374 0.56163 0.12324 0.0
C1407 C 0.21218 0.64532 0.11043 0.0
H1408 H 0.12552 0.69755 0.07095 0.0
H1409 H 0.14211 0.71852 0.14718 0.0
H1410 H 0.15101 0.62669 0.06603 0.0
H1411 H 0.0992 0.59702 0.07161 0.0
H1412 H 0.11733 0.64014 0.05268 0.0
H1413 H 0.13825 0.66927 0.17411 0.0
H1414 H 0.12285 0.62015 0.16316 0.0
H1415 H 0.17374 0.6576 0.16164 0.0
H1416 H 0.07992 0.50291 0.11596 0.0
H1417 H 0.20485 0.57311 0.105 0.0
H1418 H 0.05428 0.57125 0.10694 0.0
H1419 H 0.0652 0.58087 0.13839 0.0
H1420 H 0.04096 0.53069 0.12741 0.0
H1421 H 0.2114 0.65961 0.09328 0.0
H1422 H 0.23903 0.64245 0.11048 0.0
H1423 H 0.21435 0.66515 0.12542 0.0
C1424 C 0.61942 0.17017 0.60863 0.0
C1425 C 0.62226 0.13582 0.60835 0.0
C1426 C 0.58285 0.16832 0.61262 0.0
C1427 C 0.54823 0.13126 0.61655 0.0
C1428 C 0.55174 0.09703 0.6184 0.0
C1429 C 0.58852 0.09969 0.61421 0.0
C1430 C 0.58073 0.20569 0.61076 0.0
C1431 C 0.51604 0.05708 0.62308 0.0
C1432 C 0.45253 0.1316 0.63213 0.0
C1433 C 0.4361 0.12812 0.60909 0.0
C1434 C 0.48821 0.13109 0.63517 0.0
C1435 C 0.50809 0.12753 0.61467 0.0
C1436 C 0.49022 0.12189 0.59162 0.0
C1437 C 0.45473 0.12238 0.58916 0.0
C1438 C 0.50555 0.13655 0.66015 0.0
C1439 C 0.50953 0.11717 0.56923 0.0
H1440 H 0.64516 0.19814 0.60401 0.0
H1441 H 0.5905 0.073 0.61426 0.0
H1442 H 0.5654 0.2052 0.59377 0.0
H1443 H 0.56339 0.20771 0.62597 0.0
H1444 H 0.61048 0.2325 0.61074 0.0
H1445 H 0.5242 0.03412 0.62667 0.0
H1446 H 0.49914 0.05857 0.63872 0.0
H1447 H 0.49614 0.04785 0.60715 0.0
H1448 H 0.43868 0.13669 0.64758 0.0
H1449 H 0.44222 0.11987 0.57131 0.0
H1450 H 0.52998 0.16743 0.66217 0.0
H1451 H 0.51801 0.11688 0.66309 0.0
H1452 H 0.48324 0.13063 0.67437 0.0
H1453 H 0.53825 0.14445 0.56616 0.0
H1454 H 0.49096 0.11124 0.55285 0.0
H1455 H 0.5156 0.09254 0.57163 0.0
C1456 C 0.49606 0.5929 0.11492 0.0
C1457 C 0.49223 0.62607 0.10979 0.0
C1458 C 0.46278 0.55518 0.11834 0.0
C1459 C 0.42441 0.55011 0.11646 0.0
C1460 C 0.42044 0.58403 0.11324 0.0
C1461 C 0.45434 0.62156 0.10999 0.0
C1462 C 0.46867 0.52027 0.12227 0.0
C1463 C 0.38023 0.58025 0.11137 0.0
C1464 C 0.3425 0.4561 0.08765 0.0
C1465 C 0.31825 0.43583 0.10732 0.0
C1466 C 0.37761 0.49232 0.09062 0.0
C1467 C 0.38904 0.50931 0.11394 0.0
C1468 C 0.36575 0.48789 0.13415 0.0
C1469 C 0.33048 0.45151 0.13059 0.0
C1470 C 0.40155 0.51328 0.06851 0.0
C1471 C 0.3768 0.50422 0.1594 0.0
H1472 H 0.52525 0.59613 0.11498 0.0
H1473 H 0.451 0.64684 0.10588 0.0
H1474 H 0.45055 0.50227 0.13771 0.0
H1475 H 0.45871 0.50104 0.10604 0.0
H1476 H 0.50006 0.52944 0.12581 0.0
H1477 H 0.38187 0.60944 0.11189 0.0
H1478 H 0.36609 0.56541 0.09413 0.0
H1479 H 0.36097 0.56172 0.12629 0.0
H1480 H 0.33306 0.44423 0.06961 0.0
H1481 H 0.31159 0.43646 0.14586 0.0
H1482 H 0.43262 0.52053 0.07092 0.0
H1483 H 0.40173 0.54151 0.06596 0.0
H1484 H 0.38972 0.4953 0.05184 0.0
H1485 H 0.409 0.51765 0.16246 0.0
H1486 H 0.36083 0.48106 0.17327 0.0
H1487 H 0.36913 0.52775 0.16189 0.0
C1488 C 0.85439 0.45004 0.60772 0.0
C1489 C 0.8888 0.48718 0.60742 0.0
C1490 C 0.85626 0.41509 0.61067 0.0
C1491 C 0.8934 0.41719 0.61347 0.0
C1492 C 0.9278 0.45481 0.61524 0.0
C1493 C 0.9251 0.48917 0.61216 0.0
C1494 C 0.81871 0.37575 0.60898 0.0
C1495 C 0.96788 0.45875 0.61873 0.0
C1496 C 0.89401 0.32091 0.62705 0.0
C1497 C 0.89637 0.30832 0.60368 0.0
C1498 C 0.89449 0.35696 0.6308 0.0
C1499 C 0.89683 0.38068 0.61069 0.0
C1500 C 0.90118 0.36876 0.58725 0.0
C1501 C 0.90076 0.33289 0.58409 0.0
C1502 C 0.8904 0.36846 0.65616 0.0
C1503 C 0.90464 0.39312 0.56524 0.0
H1504 H 0.82627 0.44809 0.60395 0.0
H1505 H 0.95185 0.51776 0.61218 0.0
H1506 H 0.81827 0.36128 0.59165 0.0
H1507 H 0.81737 0.35599 0.62379 0.0
H1508 H 0.79201 0.37883 0.60985 0.0
H1509 H 0.99125 0.4898 0.62203 0.0
H1510 H 0.96724 0.44037 0.63418 0.0
H1511 H 0.97589 0.44782 0.60241 0.0
H1512 H 0.88993 0.30183 0.64227 0.0
H1513 H 0.9024 0.32321 0.56598 0.0
H1514 H 0.85964 0.36192 0.65898 0.0
H1515 H 0.91017 0.40054 0.65917 0.0
H1516 H 0.89715 0.35188 0.66986 0.0
H1517 H 0.87725 0.39467 0.56305 0.0
H1518 H 0.90958 0.38069 0.54843 0.0
H1519 H 0.92944 0.42376 0.56751 0.0
C1520 C 0.582 0.91648 0.09994 0.0
C1521 C 0.59916 0.90554 0.1184 0.0
C1522 C 0.54534 0.91428 0.103 0.0
C1523 C 0.52492 0.90078 0.12521 0.0
C1524 C 0.54341 0.89231 0.14459 0.0
C1525 C 0.58018 0.89436 0.14088 0.0
C1526 C 0.52738 0.92404 0.0818 0.0
C1527 C 0.52348 0.87887 0.16878 0.0
C1528 C 0.43901 0.92046 0.12769 0.0
C1529 C 0.40793 0.88513 0.11831 0.0
C1530 C 0.47641 0.92478 0.13234 0.0
C1531 C 0.48335 0.89334 0.12702 0.0
C1532 C 0.45118 0.85661 0.11936 0.0
C1533 C 0.41384 0.85289 0.11521 0.0
C1534 C 0.50932 0.96408 0.14113 0.0
C1535 C 0.457 0.8222 0.11346 0.0
H1536 H 0.59643 0.92474 0.08246 0.0
H1537 H 0.59289 0.88511 0.15509 0.0
H1538 H 0.50008 0.89709 0.07591 0.0
H1539 H 0.51899 0.94619 0.08714 0.0
H1540 H 0.54783 0.93582 0.06617 0.0
H1541 H 0.54473 0.88196 0.18313 0.0
H1542 H 0.50897 0.89591 0.17409 0.0
H1543 H 0.50028 0.84732 0.16761 0.0
H1544 H 0.43466 0.94554 0.13009 0.0
H1545 H 0.39016 0.82571 0.10772 0.0
H1546 H 0.52961 0.97997 0.12594 0.0
H1547 H 0.52685 0.95985 0.15538 0.0
H1548 H 0.49795 0.98296 0.1484 0.0
H1549 H 0.47495 0.82883 0.09678 0.0
H1550 H 0.42852 0.79449 0.11057 0.0
H1551 H 0.47337 0.81739 0.1282 0.0
C1552 C 0.70569 0.57458 0.63234 0.0
C1553 C 0.71765 0.59022 0.60905 0.0
C1554 C 0.66986 0.53881 0.63602 0.0
C1555 C 0.64575 0.51797 0.61592 0.0
C1556 C 0.65701 0.53495 0.5926 0.0
C1557 C 0.69265 0.57058 0.5895 0.0
C1558 C 0.65902 0.52246 0.66127 0.0
C1559 C 0.63225 0.51458 0.57061 0.0
C1560 C 0.57749 0.40624 0.61164 0.0
C1561 C 0.54018 0.40311 0.61168 0.0
C1562 C 0.61218 0.44312 0.61497 0.0
C1563 C 0.60961 0.47776 0.61852 0.0
C1564 C 0.57182 0.47403 0.62069 0.0
C1565 C 0.53772 0.43694 0.61717 0.0
C1566 C 0.65172 0.44546 0.61276 0.0
C1567 C 0.56743 0.50975 0.62501 0.0
H1568 H 0.72512 0.58919 0.6475 0.0
H1569 H 0.70187 0.58246 0.57146 0.0
H1570 H 0.627 0.50995 0.6646 0.0
H1571 H 0.66574 0.49824 0.66349 0.0
H1572 H 0.67584 0.54539 0.67513 0.0
H1573 H 0.6442 0.53247 0.55393 0.0
H1574 H 0.63091 0.48582 0.56789 0.0
H1575 H 0.60159 0.50842 0.57329 0.0
H1576 H 0.57975 0.38043 0.60726 0.0
H1577 H 0.50898 0.43476 0.61739 0.0
H1578 H 0.67159 0.46354 0.62763 0.0
H1579 H 0.66582 0.46012 0.59549 0.0
H1580 H 0.64902 0.4158 0.61311 0.0
H1581 H 0.58616 0.52723 0.64042 0.0
H1582 H 0.53637 0.50155 0.62879 0.0
H1583 H 0.57763 0.52913 0.60885 0.0
C1584 C 0.34192 0.89784 0.4166 0.0
C1585 C 0.31706 0.89208 0.39692 0.0
C1586 C 0.37771 0.89808 0.41378 0.0
C1587 C 0.38924 0.89213 0.39061 0.0
C1588 C 0.36528 0.8885 0.37034 0.0
C1589 C 0.3293 0.88825 0.37375 0.0
C1590 C 0.40232 0.90288 0.43593 0.0
C1591 C 0.3764 0.88273 0.34524 0.0
C1592 C 0.49732 0.91939 0.39007 0.0
C1593 C 0.49489 0.88322 0.39591 0.0
C1594 C 0.46321 0.92223 0.38619 0.0
C1595 C 0.42545 0.88814 0.38835 0.0
C1596 C 0.42293 0.85102 0.39225 0.0
C1597 C 0.45762 0.84898 0.39592 0.0
C1598 C 0.46755 0.96223 0.38151 0.0
C1599 C 0.38341 0.8138 0.39445 0.0
H1600 H 0.33247 0.90062 0.43456 0.0
H1601 H 0.30996 0.88311 0.35848 0.0
H1602 H 0.40372 0.87556 0.43894 0.0
H1603 H 0.43298 0.9274 0.43326 0.0
H1604 H 0.3902 0.90904 0.45245 0.0
H1605 H 0.35972 0.88867 0.33119 0.0
H1606 H 0.40846 0.9022 0.34201 0.0
H1607 H 0.36971 0.85176 0.34322 0.0
H1608 H 0.52603 0.94598 0.38981 0.0
H1609 H 0.45538 0.82099 0.40054 0.0
H1610 H 0.45731 0.97168 0.39753 0.0
H1611 H 0.44884 0.9607 0.36601 0.0
H1612 H 0.49861 0.98505 0.37768 0.0
H1613 H 0.36907 0.81454 0.41158 0.0
H1614 H 0.38619 0.78688 0.39439 0.0
H1615 H 0.3637 0.81176 0.37941 0.0
C1616 C 0.62229 0.45234 0.89529 0.0
C1617 C 0.62489 0.48943 0.89471 0.0
C1618 C 0.58565 0.41721 0.8922 0.0
C1619 C 0.55066 0.41907 0.8884 0.0
C1620 C 0.55381 0.45657 0.88581 0.0
C1621 C 0.59068 0.4911 0.889 0.0
C1622 C 0.58395 0.378 0.89477 0.0
C1623 C 0.51773 0.46025 0.88132 0.0
C1624 C 0.45434 0.32246 0.87428 0.0
C1625 C 0.43845 0.31033 0.8975 0.0
C1626 C 0.49012 0.35838 0.87073 0.0
C1627 C 0.51066 0.38252 0.8909 0.0
C1628 C 0.49342 0.37107 0.91414 0.0
C1629 C 0.45787 0.33526 0.91711 0.0
C1630 C 0.50682 0.3693 0.84557 0.0
C1631 C 0.51336 0.39591 0.93617 0.0
H1632 H 0.64836 0.45061 0.89979 0.0
H1633 H 0.59241 0.51963 0.88824 0.0
H1634 H 0.56931 0.364 0.91207 0.0
H1635 H 0.56615 0.35778 0.87997 0.0
H1636 H 0.61381 0.38118 0.89461 0.0
H1637 H 0.52541 0.49119 0.87755 0.0
H1638 H 0.50065 0.44147 0.86582 0.0
H1639 H 0.49816 0.44965 0.89737 0.0
H1640 H 0.43994 0.30309 0.85906 0.0
H1641 H 0.44582 0.32593 0.9351 0.0
H1642 H 0.53149 0.36319 0.84367 0.0
H1643 H 0.51883 0.40123 0.84212 0.0
H1644 H 0.48427 0.3521 0.83159 0.0
H1645 H 0.54218 0.3975 0.93911 0.0
H1646 H 0.49527 0.38386 0.95277 0.0
H1647 H 0.51932 0.42651 0.9334 0.0
C1648 C 0.18013 0.61446 0.39443 0.0
C1649 C 0.14592 0.61755 0.39448 0.0
C1650 C 0.17803 0.57766 0.39084 0.0
C1651 C 0.14088 0.54303 0.38711 0.0
C1652 C 0.10678 0.54674 0.38508 0.0
C1653 C 0.10968 0.58375 0.38885 0.0
C1654 C 0.21527 0.57536 0.3929 0.0
C1655 C 0.06671 0.51105 0.38063 0.0
C1656 C 0.14015 0.44647 0.37224 0.0
C1657 C 0.13653 0.4303 0.39537 0.0
C1658 C 0.14013 0.48237 0.36895 0.0
C1659 C 0.13692 0.50278 0.3893 0.0
C1660 C 0.13124 0.48526 0.41245 0.0
C1661 C 0.13123 0.44953 0.41515 0.0
C1662 C 0.14562 0.49932 0.34387 0.0
C1663 C 0.12688 0.50514 0.43469 0.0
H1664 H 0.20817 0.64024 0.3989 0.0
H1665 H 0.08309 0.58588 0.38867 0.0
H1666 H 0.21475 0.56036 0.41003 0.0
H1667 H 0.21712 0.5576 0.37786 0.0
H1668 H 0.24218 0.60504 0.39273 0.0
H1669 H 0.04382 0.51926 0.37694 0.0
H1670 H 0.06797 0.49376 0.36512 0.0
H1671 H 0.05756 0.49146 0.3967 0.0
H1672 H 0.14491 0.43219 0.35688 0.0
H1673 H 0.12862 0.43726 0.43308 0.0
H1674 H 0.17647 0.52377 0.34182 0.0
H1675 H 0.12592 0.51168 0.34073 0.0
H1676 H 0.13977 0.47679 0.32977 0.0
H1677 H 0.1543 0.53383 0.43759 0.0
H1678 H 0.12097 0.48687 0.4512 0.0
H1679 H 0.10239 0.51138 0.4322 0.0
C1680 C 0.69627 0.11723 0.90188 0.0
C1681 C 0.71333 0.12427 0.87885 0.0
C1682 C 0.65987 0.11584 0.90564 0.0
C1683 C 0.63992 0.12145 0.88589 0.0
C1684 C 0.65582 0.12564 0.86237 0.0
C1685 C 0.69249 0.12764 0.85923 0.0
C1686 C 0.64423 0.11112 0.93104 0.0
C1687 C 0.63536 0.13044 0.8406 0.0
C1688 C 0.53283 0.09639 0.89537 0.0
C1689 C 0.53689 0.1336 0.9001 0.0
C1690 C 0.56576 0.09206 0.89015 0.0
C1691 C 0.6041 0.12567 0.88998 0.0
C1692 C 0.60827 0.16348 0.89401 0.0
C1693 C 0.57467 0.167 0.89884 0.0
C1694 C 0.55962 0.05136 0.88536 0.0
C1695 C 0.64848 0.20016 0.89412 0.0
H1696 H 0.71268 0.11564 0.91719 0.0
H1697 H 0.70594 0.13382 0.84146 0.0
H1698 H 0.64642 0.13923 0.93701 0.0
H1699 H 0.61262 0.08803 0.9317 0.0
H1700 H 0.66087 0.10317 0.94399 0.0
H1701 H 0.64838 0.12766 0.8234 0.0
H1702 H 0.60347 0.10808 0.84078 0.0
H1703 H 0.63788 0.15998 0.8411 0.0
H1704 H 0.50374 0.07038 0.89636 0.0
H1705 H 0.5782 0.19573 0.90285 0.0
H1706 H 0.57476 0.04358 0.89945 0.0
H1707 H 0.5729 0.05088 0.86775 0.0
H1708 H 0.52788 0.02839 0.88515 0.0
H1709 H 0.66701 0.1978 0.90848 0.0
H1710 H 0.64686 0.22738 0.89725 0.0
H1711 H 0.66354 0.20307 0.87664 0.0
C1712 C 0.44492 0.53066 0.39091 0.0
C1713 C 0.41082 0.53299 0.3957 0.0
C1714 C 0.48203 0.56484 0.38767 0.0
C1715 C 0.4855 0.60258 0.38938 0.0
C1716 C 0.45066 0.605 0.39224 0.0
C1717 C 0.41378 0.57023 0.39531 0.0
C1718 C 0.51798 0.56059 0.38413 0.0
C1719 C 0.45274 0.64449 0.39389 0.0
C1720 C 0.57753 0.6866 0.41859 0.0
C1721 C 0.59753 0.71113 0.39896 0.0
C1722 C 0.54202 0.65081 0.41549 0.0
C1723 C 0.52554 0.63892 0.39209 0.0
C1724 C 0.54675 0.66255 0.37194 0.0
C1725 C 0.58236 0.69854 0.37562 0.0
C1726 C 0.52124 0.62656 0.43755 0.0
C1727 C 0.53096 0.65103 0.34661 0.0
H1728 H 0.44289 0.50197 0.39098 0.0
H1729 H 0.38776 0.57241 0.39913 0.0
H1730 H 0.53586 0.5791 0.36877 0.0
H1731 H 0.53687 0.57116 0.4005 0.0
H1732 H 0.51005 0.5295 0.38067 0.0
H1733 H 0.42304 0.64162 0.39309 0.0
H1734 H 0.46698 0.65899 0.41119 0.0
H1735 H 0.47108 0.66411 0.37903 0.0
H1736 H 0.58903 0.69629 0.43667 0.0
H1737 H 0.59722 0.71758 0.36037 0.0
H1738 H 0.51523 0.59585 0.43528 0.0
H1739 H 0.49238 0.62517 0.43979 0.0
H1740 H 0.53875 0.63896 0.45433 0.0
H1741 H 0.51857 0.61892 0.34362 0.0
H1742 H 0.55418 0.66752 0.33286 0.0
H1743 H 0.50677 0.65764 0.34383 0.0
C1744 C 0.89652 0.57369 0.87682 0.0
C1745 C 0.89909 0.59085 0.8995 0.0
C1746 C 0.8964 0.53755 0.87479 0.0
C1747 C 0.89819 0.51784 0.89593 0.0
C1748 C 0.90292 0.5364 0.91866 0.0
C1749 C 0.90327 0.57243 0.92011 0.0
C1750 C 0.89219 0.51958 0.85011 0.0
C1751 C 0.90561 0.51722 0.94172 0.0
C1752 C 0.85172 0.40598 0.90252 0.0
C1753 C 0.88515 0.40163 0.90393 0.0
C1754 C 0.8553 0.44325 0.8982 0.0
C1755 C 0.89319 0.47709 0.89502 0.0
C1756 C 0.9267 0.4722 0.89454 0.0
C1757 C 0.92231 0.43474 0.89908 0.0
C1758 C 0.81868 0.44688 0.89871 0.0
C1759 C 0.96751 0.50703 0.89062 0.0
H1760 H 0.89263 0.58738 0.86084 0.0
H1761 H 0.90507 0.58549 0.93768 0.0
H1762 H 0.91132 0.50626 0.84831 0.0
H1763 H 0.8612 0.4957 0.8475 0.0
H1764 H 0.89972 0.54177 0.83554 0.0
H1765 H 0.91104 0.5363 0.95779 0.0
H1766 H 0.87769 0.48898 0.94456 0.0
H1767 H 0.92975 0.51023 0.94042 0.0
H1768 H 0.82294 0.38074 0.9063 0.0
H1769 H 0.94831 0.43161 0.89976 0.0
H1770 H 0.81814 0.46403 0.8829 0.0
H1771 H 0.81896 0.46315 0.9152 0.0
H1772 H 0.79125 0.4176 0.89871 0.0
H1773 H 0.96786 0.52373 0.87432 0.0
H1774 H 0.99006 0.49792 0.88846 0.0
H1775 H 0.97594 0.52749 0.90623 0.0
C1776 C 0.20396 0.35453 0.30474 0.0
C1777 C 0.18977 0.37713 0.31586 0.0
C1778 C 0.20881 0.35536 0.27945 0.0
C1779 C 0.20079 0.38059 0.26498 0.0
C1780 C 0.18824 0.40485 0.27643 0.0
C1781 C 0.18201 0.40213 0.30158 0.0
C1782 C 0.22116 0.32813 0.26818 0.0
C1783 C 0.18061 0.4332 0.2621 0.0
C1784 C 0.24578 0.40288 0.20164 0.0
C1785 C 0.21302 0.37913 0.18701 0.0
C1786 C 0.24199 0.40485 0.22682 0.0
C1787 C 0.20479 0.38106 0.23793 0.0
C1788 C 0.17154 0.35716 0.22312 0.0
C1789 C 0.17591 0.35714 0.19782 0.0
C1790 C 0.27809 0.43174 0.24152 0.0
C1791 C 0.13167 0.3301 0.23405 0.0
H1792 H 0.20897 0.33441 0.31564 0.0
H1793 H 0.17038 0.41916 0.3101 0.0
H1794 H 0.20118 0.31151 0.25299 0.0
H1795 H 0.2514 0.34579 0.26079 0.0
H1796 H 0.22106 0.30669 0.28139 0.0
H1797 H 0.17585 0.45337 0.27395 0.0
H1798 H 0.20582 0.45117 0.24988 0.0
H1799 H 0.15402 0.41647 0.25068 0.0
H1800 H 0.27468 0.41953 0.19337 0.0
H1801 H 0.15072 0.33806 0.18665 0.0
H1802 H 0.28775 0.41384 0.25194 0.0
H1803 H 0.27125 0.44892 0.25466 0.0
H1804 H 0.30306 0.45264 0.22997 0.0
H1805 H 0.13419 0.31036 0.24745 0.0
H1806 H 0.10936 0.31162 0.22027 0.0
H1807 H 0.12096 0.34774 0.24372 0.0
C1808 C 0.81722 0.16562 0.69225 0.0
C1809 C 0.84545 0.20257 0.68315 0.0
C1810 C 0.81088 0.15938 0.71738 0.0
C1811 C 0.83366 0.19065 0.73372 0.0
C1812 C 0.86053 0.22847 0.72446 0.0
C1813 C 0.86566 0.23403 0.69941 0.0
C1814 C 0.78116 0.11884 0.72644 0.0
C1815 C 0.88592 0.2626 0.74103 0.0
C1816 C 0.8088 0.18681 0.80079 0.0
C1817 C 0.83319 0.17398 0.81111 0.0
C1818 C 0.80764 0.19117 0.77558 0.0
C1819 C 0.83218 0.18347 0.76039 0.0
C1820 C 0.85722 0.17098 0.77086 0.0
C1821 C 0.85712 0.16603 0.79602 0.0
C1822 C 0.77978 0.2035 0.76517 0.0
C1823 C 0.88416 0.16277 0.7555 0.0
H1824 H 0.80151 0.14112 0.6799 0.0
H1825 H 0.88713 0.2629 0.69259 0.0
H1826 H 0.79683 0.10449 0.73443 0.0
H1827 H 0.76258 0.12095 0.74084 0.0
H1828 H 0.76169 0.09964 0.71173 0.0
H1829 H 0.9031 0.29082 0.73104 0.0
H1830 H 0.86752 0.26645 0.75478 0.0
H1831 H 0.90692 0.25627 0.75082 0.0
H1832 H 0.78959 0.19211 0.81237 0.0
H1833 H 0.87579 0.15582 0.80394 0.0
H1834 H 0.75996 0.18133 0.75176 0.0
H1835 H 0.7967 0.23202 0.75552 0.0
H1836 H 0.76143 0.20675 0.77929 0.0
H1837 H 0.8663 0.13709 0.74358 0.0
H1838 H 0.90405 0.15638 0.76653 0.0
H1839 H 0.90241 0.18841 0.74369 0.0
C1840 C 0.69176 0.84979 0.2068 0.0
C1841 C 0.66102 0.84466 0.19143 0.0
C1842 C 0.68609 0.84342 0.2318 0.0
C1843 C 0.64847 0.83103 0.24198 0.0
C1844 C 0.6169 0.8248 0.22647 0.0
C1845 C 0.62351 0.83162 0.20135 0.0
C1846 C 0.72085 0.85107 0.24742 0.0
C1847 C 0.57647 0.81204 0.23652 0.0
C1848 C 0.63523 0.78175 0.30325 0.0
C1849 C 0.64675 0.81351 0.31934 0.0
C1850 C 0.6333 0.78644 0.2782 0.0
C1851 C 0.6426 0.82375 0.26874 0.0
C1852 C 0.65121 0.8551 0.28507 0.0
C1853 C 0.65333 0.84968 0.31014 0.0
C1854 C 0.62412 0.75209 0.26176 0.0
C1855 C 0.66112 0.89534 0.27609 0.0
H1856 H 0.72086 0.85987 0.19929 0.0
H1857 H 0.59978 0.82825 0.18965 0.0
H1858 H 0.7285 0.87655 0.25949 0.0
H1859 H 0.71312 0.82517 0.25906 0.0
H1860 H 0.74733 0.85757 0.23661 0.0
H1861 H 0.55484 0.80773 0.22214 0.0
H1862 H 0.5654 0.78405 0.24672 0.0
H1863 H 0.57827 0.83463 0.2494 0.0
H1864 H 0.62943 0.7534 0.31015 0.0
H1865 H 0.66233 0.87444 0.32231 0.0
H1866 H 0.65126 0.75812 0.25189 0.0
H1867 H 0.60172 0.74826 0.2481 0.0
H1868 H 0.61315 0.724 0.2719 0.0
H1869 H 0.69259 0.91156 0.27063 0.0
H1870 H 0.6568 0.91279 0.29036 0.0
H1871 H 0.6429 0.89314 0.26016 0.0
C1872 C 0.79404 0.61987 0.70222 0.0
C1873 C 0.82629 0.64514 0.68771 0.0
C1874 C 0.79813 0.61754 0.72736 0.0
C1875 C 0.83499 0.64252 0.73861 0.0
C1876 C 0.86771 0.66806 0.72391 0.0
C1877 C 0.86315 0.66843 0.69862 0.0
C1878 C 0.76272 0.58878 0.74191 0.0
C1879 C 0.90731 0.69605 0.73491 0.0
C1880 C 0.83355 0.66606 0.8058 0.0
C1881 C 0.84942 0.64472 0.81667 0.0
C1882 C 0.829 0.66585 0.78049 0.0
C1883 C 0.83901 0.64245 0.76569 0.0
C1884 C 0.85338 0.61945 0.77684 0.0
C1885 C 0.85922 0.62158 0.80204 0.0
C1886 C 0.81527 0.69219 0.76953 0.0
C1887 C 0.86344 0.59317 0.76217 0.0
H1888 H 0.7653 0.60228 0.69387 0.0
H1889 H 0.8879 0.68871 0.68755 0.0
H1890 H 0.77073 0.57126 0.75404 0.0
H1891 H 0.75257 0.60514 0.75345 0.0
H1892 H 0.73774 0.56819 0.73022 0.0
H1893 H 0.92783 0.71805 0.72164 0.0
H1894 H 0.9038 0.71204 0.75041 0.0
H1895 H 0.92098 0.67906 0.74179 0.0
H1896 H 0.82688 0.68476 0.81694 0.0
H1897 H 0.87209 0.60547 0.81033 0.0
H1898 H 0.78709 0.67406 0.75977 0.0
H1899 H 0.83735 0.71233 0.75621 0.0
H1900 H 0.81077 0.71023 0.78331 0.0
H1901 H 0.83965 0.57568 0.74894 0.0
H1902 H 0.86799 0.57256 0.77374 0.0
H1903 H 0.89095 0.61156 0.75186 0.0
C1904 C 0.17441 0.78432 0.20313 0.0
C1905 C 0.18499 0.81765 0.18868 0.0
C1906 C 0.18037 0.78758 0.22832 0.0
C1907 C 0.19578 0.82492 0.23965 0.0
C1908 C 0.20672 0.85873 0.22502 0.0
C1909 C 0.20182 0.85479 0.19971 0.0
C1910 C 0.16931 0.75079 0.2428 0.0
C1911 C 0.22172 0.89886 0.23619 0.0
C1912 C 0.17172 0.82666 0.30672 0.0
C1913 C 0.20826 0.83876 0.31772 0.0
C1914 C 0.16726 0.82224 0.2814 0.0
C1915 C 0.19973 0.82852 0.26675 0.0
C1916 C 0.2362 0.83892 0.27806 0.0
C1917 C 0.24025 0.84485 0.30325 0.0
C1918 C 0.12819 0.81237 0.2703 0.0
C1919 C 0.27126 0.84457 0.26353 0.0
H1920 H 0.1608 0.75542 0.1947 0.0
H1921 H 0.20897 0.88045 0.18872 0.0
H1922 H 0.19323 0.7561 0.25568 0.0
H1923 H 0.14237 0.74267 0.25349 0.0
H1924 H 0.16338 0.72535 0.23107 0.0
H1925 H 0.22846 0.92213 0.22247 0.0
H1926 H 0.1992 0.89781 0.24882 0.0
H1927 H 0.24883 0.90722 0.24678 0.0
H1928 H 0.14724 0.82297 0.31777 0.0
H1929 H 0.26877 0.85492 0.31166 0.0
H1930 H 0.11458 0.78277 0.26182 0.0
H1931 H 0.13268 0.83398 0.2559 0.0
H1932 H 0.10721 0.81236 0.28382 0.0
H1933 H 0.26256 0.81892 0.25138 0.0
H1934 H 0.29595 0.84818 0.27522 0.0
H1935 H 0.28211 0.87118 0.25199 0.0
C1936 C 0.40646 0.23563 0.80383 0.0
C1937 C 0.38309 0.20281 0.81852 0.0
C1938 C 0.40839 0.23186 0.77862 0.0
C1939 C 0.38509 0.19454 0.76748 0.0
C1940 C 0.36164 0.16121 0.78234 0.0
C1941 C 0.36145 0.16563 0.80767 0.0
C1942 C 0.43468 0.26814 0.76391 0.0
C1943 C 0.33513 0.12117 0.77141 0.0
C1944 C 0.35859 0.19378 0.70052 0.0
C1945 C 0.38198 0.18066 0.68927 0.0
C1946 C 0.35902 0.19807 0.72587 0.0
C1947 C 0.38462 0.19058 0.74034 0.0
C1948 C 0.40955 0.17896 0.72879 0.0
C1949 C 0.40723 0.17325 0.70356 0.0
C1950 C 0.33106 0.20939 0.73718 0.0
C1951 C 0.43831 0.1719 0.74309 0.0
H1952 H 0.42275 0.26461 0.81208 0.0
H1953 H 0.34246 0.14039 0.81883 0.0
H1954 H 0.45226 0.26178 0.75082 0.0
H1955 H 0.41631 0.27714 0.75343 0.0
H1956 H 0.45518 0.29339 0.77546 0.0
H1957 H 0.31801 0.0984 0.78526 0.0
H1958 H 0.31414 0.12304 0.75871 0.0
H1959 H 0.35293 0.11153 0.76092 0.0
H1960 H 0.33821 0.19844 0.68963 0.0
H1961 H 0.42486 0.16237 0.69497 0.0
H1962 H 0.34811 0.23954 0.74481 0.0
H1963 H 0.31458 0.18892 0.75219 0.0
H1964 H 0.3095 0.20901 0.72394 0.0
H1965 H 0.45626 0.19742 0.75513 0.0
H1966 H 0.45847 0.16716 0.73124 0.0
H1967 H 0.42195 0.14551 0.75472 0.0
C1968 C 0.26442 0.21547 0.95491 0.0
C1969 C 0.3041 0.22497 0.95498 0.0
C1970 C 0.24858 0.22779 0.97371 0.0
C1971 C 0.27315 0.25115 0.99296 0.0
C1972 C 0.31319 0.26025 0.99327 0.0
C1973 C 0.32812 0.24714 0.97433 0.0
C1974 C 0.20576 0.21684 0.97252 0.0
C1975 C 0.34079 0.28532 0.01314 0.0
C1976 C 0.24644 0.31888 0.02907 0.0
C1977 C 0.23238 0.29817 0.05084 0.0
C1978 C 0.25887 0.30359 0.00992 0.0
C1979 C 0.25729 0.26661 0.0125 0.0
C1980 C 0.24175 0.24508 0.03421 0.0
C1981 C 0.22998 0.26124 0.05307 0.0
C1982 C 0.27551 0.32798 0.98735 0.0
C1983 C 0.23884 0.20547 0.0379 0.0
H1984 H 0.24599 0.19939 0.93964 0.0
H1985 H 0.35914 0.25589 0.97406 0.0
H1986 H 0.1906 0.20248 0.98962 0.0
H1987 H 0.20358 0.2439 0.97038 0.0
H1988 H 0.18994 0.19659 0.95725 0.0
H1989 H 0.3706 0.28866 0.01134 0.0
H1990 H 0.34381 0.31507 0.0128 0.0
H1991 H 0.32851 0.27212 0.03102 0.0
H1992 H 0.24982 0.348 0.02747 0.0
H1993 H 0.21992 0.2454 0.07002 0.0
H1994 H 0.26029 0.31016 0.97113 0.0
H1995 H 0.30722 0.33717 0.98567 0.0
H1996 H 0.27262 0.35483 0.98744 0.0
H1997 H 0.22248 0.18541 0.02269 0.0
H1998 H 0.22378 0.19126 0.05509 0.0
H1999 H 0.26883 0.2091 0.03812 0.0
C2000 C 0.09424 0.31355 0.4731 0.0
C2001 C 0.08762 0.29338 0.45113 0.0
C2002 C 0.06636 0.29792 0.49208 0.0
C2003 C 0.03088 0.2612 0.48907 0.0
C2004 C 0.02496 0.24013 0.46719 0.0
C2005 C 0.05311 0.25659 0.44852 0.0
C2006 C 0.07398 0.3217 0.51493 0.0
C2007 C 0.98811 0.20082 0.46307 0.0
C2008 C 0.97178 0.20953 0.54606 0.0
C2009 C 0.94231 0.21999 0.5461 0.0
C2010 C 0.99994 0.22162 0.52734 0.0
C2011 C 0.99933 0.24563 0.50832 0.0
C2012 C 0.96894 0.2555 0.50804 0.0
C2013 C 0.94092 0.24265 0.52692 0.0
C2014 C 0.0313 0.20995 0.52845 0.0
C2015 C 0.96709 0.28121 0.48835 0.0
H2016 H 0.12004 0.34255 0.47499 0.0
H2017 H 0.0475 0.24115 0.43143 0.0
H2018 H 0.05174 0.33127 0.51667 0.0
H2019 H 0.07085 0.30332 0.53095 0.0
H2020 H 0.10389 0.3483 0.51518 0.0
H2021 H 0.98906 0.18694 0.44576 0.0
H2022 H 0.98395 0.18029 0.47809 0.0
H2023 H 0.96195 0.20479 0.46284 0.0
H2024 H 0.97372 0.19307 0.56126 0.0
H2025 H 0.91916 0.25208 0.52733 0.0
H2026 H 0.06066 0.23663 0.53104 0.0
H2027 H 0.03229 0.19612 0.51116 0.0
H2028 H 0.02617 0.189 0.54342 0.0
H2029 H 0.99398 0.31082 0.48902 0.0
H2030 H 0.94078 0.28483 0.49005 0.0
H2031 H 0.96642 0.26839 0.47036 0.0
C2032 C 0.73303 0.99662 0.05781 0.0
C2033 C 0.71375 0.95515 0.05504 0.0
C2034 C 0.74434 0.02251 0.03805 0.0
C2035 C 0.73676 1.00732 0.01429 0.0
C2036 C 0.71713 0.96561 0.01105 0.0
C2037 C 0.70592 0.94004 0.0314 0.0
C2038 C 0.76544 0.06648 0.04271 0.0
C2039 C 0.70842 0.94804 0.98603 0.0
C2040 C 0.74626 0.07945 0.96374 0.0
C2041 C 0.78409 0.09143 0.95469 0.0
C2042 C 0.73006 0.05155 0.98276 0.0
C2043 C 0.75236 0.03563 0.99323 0.0
C2044 C 0.79117 0.04908 0.98469 0.0
C2045 C 0.80628 0.07639 0.96557 0.0
C2046 C 0.68857 0.03811 0.99111 0.0
C2047 C 0.81663 0.03399 0.99545 0.0
H2048 H 0.74001 1.00954 0.0757 0.0
H2049 H 0.69122 0.90844 0.02873 0.0
H2050 H 0.79579 0.08046 0.03526 0.0
H2051 H 0.74995 0.08 0.03342 0.0
H2052 H 0.76743 0.07365 0.06226 0.0
H2053 H 0.69079 0.91528 0.98638 0.0
H2054 H 0.69213 0.95949 0.97549 0.0
H2055 H 0.7365 0.95704 0.97637 0.0
H2056 H 0.72842 0.08989 0.95497 0.0
H2057 H 0.8353 0.08504 0.95841 0.0
H2058 H 0.68843 0.04369 0.01075 0.0
H2059 H 0.66987 1.00581 0.98828 0.0
H2060 H 0.67512 0.05329 0.98132 0.0
H2061 H 0.82078 0.04064 0.01507 0.0
H2062 H 0.84614 0.04729 0.98678 0.0
H2063 H 0.80181 1.00145 0.99345 0.0
C2064 C 0.80723 0.76334 0.55393 0.0
C2065 C 0.80326 0.72572 0.552 0.0
C2066 C 0.79534 0.77952 0.53513 0.0
C2067 C 0.77805 0.75727 0.51386 0.0
C2068 C 0.77474 0.71949 0.51162 0.0
C2069 C 0.78739 0.70423 0.53066 0.0
C2070 C 0.80017 0.82002 0.5384 0.0
C2071 C 0.75614 0.69434 0.48953 0.0
C2072 C 0.70819 0.77867 0.47603 0.0
C2073 C 0.73172 0.79881 0.45607 0.0
C2074 C 0.72303 0.76568 0.49511 0.0
C2075 C 0.76247 0.773 0.49434 0.0
C2076 C 0.78666 0.79458 0.47453 0.0
C2077 C 0.77088 0.80669 0.4556 0.0
C2078 C 0.69584 0.74246 0.51558 0.0
C2079 C 0.8289 0.80373 0.47288 0.0
H2080 H 0.81871 0.77979 0.57058 0.0
H2081 H 0.78285 0.67461 0.52934 0.0
H2082 H 0.81635 0.83913 0.52282 0.0
H2083 H 0.77075 0.81772 0.53898 0.0
H2084 H 0.81632 0.83456 0.55527 0.0
H2085 H 0.75734 0.66655 0.48994 0.0
H2086 H 0.7248 0.68672 0.48823 0.0
H2087 H 0.77122 0.71098 0.47296 0.0
H2088 H 0.67751 0.77118 0.47611 0.0
H2089 H 0.78889 0.82128 0.4399 0.0
H2090 H 0.7094 0.75612 0.53316 0.0
H2091 H 0.69121 0.71205 0.51562 0.0
H2092 H 0.66665 0.74065 0.51415 0.0
H2093 H 0.84506 0.81842 0.48969 0.0
H2094 H 0.84466 0.82307 0.45726 0.0
H2095 H 0.82969 0.77589 0.47103 0.0
C2096 C 0.97853 0.76586 0.95265 0.0
C2097 C 0.9469 0.72688 0.95339 0.0
C2098 C 1.00599 0.78199 0.97179 0.0
C2099 C 1.00257 0.75836 0.99211 0.0
C2100 C 0.97014 0.71909 0.9931 0.0
C2101 C 0.94279 0.70388 0.97379 0.0
C2102 C 0.03946 0.82403 0.96987 0.0
C2103 C 0.9653 0.69247 0.01412 0.0
C2104 C 0.0946 0.78325 0.03024 0.0
C2105 C 0.08841 0.79983 0.05106 0.0
C2106 C 0.06747 0.77045 0.01075 0.0
C2107 C 0.03323 0.77432 0.01201 0.0
C2108 C 0.02779 0.79241 0.03272 0.0
C2109 C 0.05506 0.80444 0.05198 0.0
C2110 C 0.07451 0.751 0.9893 0.0
C2111 C 0.99235 0.79784 0.03495 0.0
H2112 H 0.98251 0.78342 0.93662 0.0
H2113 H 0.91935 0.67332 0.9741 0.0
H2114 H 0.04055 0.84088 0.98626 0.0
H2115 H 0.06796 0.82441 0.96878 0.0
H2116 H 0.03664 0.83934 0.95373 0.0
H2117 H 0.93785 0.66333 0.01274 0.0
H2118 H 0.99091 0.68763 0.01493 0.0
H2119 H 0.96471 0.70663 0.03135 0.0
H2120 H 0.11942 0.77825 0.02971 0.0
H2121 H 0.04963 0.81646 0.06823 0.0
H2122 H 0.07358 0.76559 0.97233 0.0
H2123 H 0.05068 0.71968 0.98821 0.0
H2124 H 0.10336 0.752 0.99039 0.0
H2125 H 0.99011 0.81355 0.01887 0.0
H2126 H 0.99365 0.81471 0.0514 0.0
H2127 H 0.96502 0.76859 0.03565 0.0
C2128 C 0.24541 0.93288 0.47597 0.0
C2129 C 0.23199 0.94066 0.45429 0.0
C2130 C 0.25812 0.96003 0.49544 0.0
C2131 C 0.25729 0.99587 0.49333 0.0
C2132 C 0.24237 1.00301 0.47172 0.0
C2133 C 0.23042 0.97568 0.45251 0.0
C2134 C 0.27415 0.95114 0.5179 0.0
C2135 C 0.24016 0.04018 0.46855 0.0
C2136 C 0.26397 0.05224 0.55166 0.0
C2137 C 0.30373 0.08217 0.552 0.0
C2138 C 0.24827 0.02477 0.53249 0.0
C2139 C 0.27309 0.02641 0.51331 0.0
C2140 C 0.31325 0.05708 0.51344 0.0
C2141 C 0.32802 0.0845 0.53273 0.0
C2142 C 0.2053 0.99323 0.53317 0.0
C2143 C 0.3411 0.05997 0.49368 0.0
H2144 H 0.24808 0.9067 0.47726 0.0
H2145 H 0.22069 0.98224 0.43567 0.0
H2146 H 0.3059 0.97336 0.51994 0.0
H2147 H 0.25874 0.95328 0.53414 0.0
H2148 H 0.27095 0.92128 0.51735 0.0
H2149 H 0.22557 0.04026 0.45133 0.0
H2150 H 0.22368 0.04359 0.48378 0.0
H2151 H 0.27034 0.06627 0.46875 0.0
H2152 H 0.24533 0.04959 0.56686 0.0
H2153 H 0.35908 0.10662 0.53331 0.0
H2154 H 0.2027 0.96376 0.53486 0.0
H2155 H 0.19057 0.99332 0.51604 0.0
H2156 H 0.18934 0.99731 0.54848 0.0
H2157 H 0.34361 0.03294 0.4936 0.0
H2158 H 0.37106 0.08606 0.49592 0.0
H2159 H 0.32934 0.06186 0.47579 0.0
loop_
_geom_bond_atom_site_label_1
_geom_bond_atom_site_label_2
_geom_bond_distance
_geom_bond_site_symmetry_2
_ccdc_geom_bond_type
Gd0 N31 2.661 . S
Gd0 N37 2.601 . S
Gd0 O44 2.545 . S
Gd0 O45 2.606 . S
Gd0 O47 2.429 . S
Gd0 O48 2.545 . S
Gd0 O49 2.412 . S
Gd0 O51 2.362 . S
Gd0 O52 2.324 . S
Gd0 C59 2.828 . S
Gd1 N10 2.661 . S
Gd1 N14 2.601 . S
Gd1 O45 2.362 . S
Gd1 O46 2.324 . S
Gd1 O50 2.545 . S
Gd1 O51 2.606 . S
Gd1 O53 2.429 . S
Gd1 O54 2.545 . S
Gd1 O55 2.412 . S
Gd1 C68 2.828 . S
C2 C5 1.417 . S
C2 C7 1.431 1_455 S
C2 C8 1.412 . S
C3 C6 1.437 . S
C3 C7 1.317 1_455 S
C3 H22 0.929 1_455 S
C4 C5 1.426 . S
C4 C6 1.413 . S
C4 N14 1.359 . S
C5 C2 1.417 . S
C5 C4 1.426 . S
C5 N10 1.350 . S
C6 C3 1.437 . S
C6 C4 1.413 . S
C6 C16 1.391 . S
C7 C2 1.431 1_655 S
C7 C3 1.317 1_655 S
C7 H18 0.930 . S
C8 C2 1.412 . S
C8 C9 1.355 . S
C8 H20 0.930 1_455 S
C9 C8 1.355 . S
C9 C11 1.402 . S
C9 H21 0.930 . S
N10 Gd1 2.661 . S
N10 C5 1.350 . S
N10 C11 1.307 . S
C11 C9 1.402 . S
C11 N10 1.307 . S
C11 H12 0.930 . S
H12 C11 0.930 . S
C13 N14 1.334 . S
C13 C15 1.394 . S
C13 H17 0.930 . S
N14 Gd1 2.601 . S
N14 C4 1.359 . S
N14 C13 1.334 . S
C15 C13 1.394 . S
C15 C16 1.359 . S
C15 H27 0.930 . S
C16 C6 1.391 . S
C16 C15 1.359 . S
C16 H28 0.929 . S
H17 C13 0.930 . S
H18 C7 0.930 . S
H19 C36 0.930 . S
H20 C8 0.930 1_655 S
H21 C9 0.930 . S
H22 C3 0.929 1_655 S
H23 C41 0.930 . S
H24 C32 0.930 . S
H25 C33 0.930 . S
H26 C57 0.929 . S
H27 C15 0.930 . S
H28 C16 0.929 . S
H29 C58 0.930 . S
H30 C39 0.930 . S
N31 Gd0 2.661 . S
N31 C35 1.350 . S
N31 C36 1.307 . S
C32 H24 0.930 . S
C32 C33 1.355 . S
C32 C34 1.412 . S
C33 H25 0.930 . S
C33 C32 1.355 . S
C33 C36 1.402 . S
C34 C32 1.412 . S
C34 C35 1.417 . S
C34 C58 1.431 . S
C35 N31 1.350 . S
C35 C34 1.417 . S
C35 C38 1.426 . S
C36 H19 0.930 . S
C36 N31 1.307 . S
C36 C33 1.402 . S
N37 Gd0 2.601 . S
N37 C38 1.359 . S
N37 C41 1.334 . S
C38 C35 1.426 . S
C38 N37 1.359 . S
C38 C42 1.413 . S
C39 H30 0.930 . S
C39 C40 1.359 . S
C39 C41 1.394 . S
C40 C39 1.359 . S
C40 C42 1.391 . S
C40 H43 0.929 . S
C41 H23 0.930 . S
C41 N37 1.334 . S
C41 C39 1.394 . S
C42 C38 1.413 . S
C42 C40 1.391 . S
C42 C57 1.437 . S
H43 C40 0.929 . S
O44 Gd0 2.545 . S
O44 C59 1.258 . S
O45 Gd0 2.606 . S
O45 Gd1 2.362 . S
O45 C56 1.284 . S
O46 Gd1 2.324 . S
O46 C66 1.254 . S
O47 Gd0 2.429 . S
O47 C66 1.268 . S
O48 Gd0 2.545 . S
O48 C56 1.250 . S
O49 Gd0 2.412 . S
O49 C59 1.252 . S
O50 Gd1 2.545 . S
O50 C68 1.258 . S
O51 Gd0 2.362 . S
O51 Gd1 2.606 . S
O51 C67 1.284 . S
O52 Gd0 2.324 . S
O52 C75 1.254 . S
O53 Gd1 2.429 . S
O53 C75 1.268 . S
O54 Gd1 2.545 . S
O54 C67 1.250 . S
O55 Gd1 2.412 . S
O55 C68 1.252 . S
C56 O45 1.284 . S
C56 O48 1.250 . S
C57 H26 0.929 . S
C57 C42 1.437 . S
C57 C58 1.317 . S
C58 H29 0.930 . S
C58 C34 1.431 . S
C58 C57 1.317 . S
C59 Gd0 2.828 . S
C59 O44 1.258 . S
C59 O49 1.252 . S
C59 C60 1.497 . S
C60 C59 1.497 . S
C60 C61 1.395 . S
C60 C62 1.380 . S
C61 C60 1.395 . S
C61 C64 1.398 . S
C61 H76 0.930 . S
C62 C60 1.380 . S
C62 C63 1.391 . S
C62 H77 0.930 . S
C63 C62 1.391 . S
C63 C65 1.387 . S
C64 C61 1.398 . S
C64 C65 1.380 . S
C64 H78 0.930 . S
C65 C63 1.387 . S
C65 C64 1.380 . S
C65 H79 0.930 . S
C66 O46 1.254 . S
C66 O47 1.268 . S
C67 O51 1.284 . S
C67 O54 1.250 . S
C68 Gd1 2.828 . S
C68 O50 1.258 . S
C68 O55 1.252 . S
C68 C69 1.497 . S
C69 C68 1.497 . S
C69 C70 1.395 . S
C69 C71 1.380 . S
C70 C69 1.395 . S
C70 C73 1.398 . S
C70 H80 0.930 . S
C71 C69 1.380 . S
C71 C72 1.391 . S
C71 H81 0.930 . S
C72 C71 1.391 . S
C72 C74 1.387 . S
C73 C70 1.398 . S
C73 C74 1.380 . S
C73 H82 0.930 . S
C74 C72 1.387 . S
C74 C73 1.380 . S
C74 H83 0.930 . S
C75 O52 1.254 . S
C75 O53 1.268 . S
H76 C61 0.930 . S
H77 C62 0.930 . S
H78 C64 0.930 . S
H79 C65 0.930 . S
H80 C70 0.930 . S
H81 C71 0.930 . S
H82 C73 0.930 . S
H83 C74 0.930 . S
Gd84 N115 2.661 . S
Gd84 N121 2.601 . S
Gd84 O128 2.545 . S
Gd84 O129 2.606 . S
Gd84 O131 2.429 . S
Gd84 O132 2.545 . S
Gd84 O133 2.412 . S
Gd84 O135 2.362 . S
Gd84 O136 2.324 . S
Gd84 C143 2.828 . S
Gd85 N94 2.661 . S
Gd85 N98 2.601 . S
Gd85 O129 2.362 . S
Gd85 O130 2.324 . S
Gd85 O134 2.545 . S
Gd85 O135 2.606 . S
Gd85 O137 2.429 . S
Gd85 O138 2.545 . S
Gd85 O139 2.412 . S
Gd85 C152 2.828 . S
C86 C89 1.417 . S
C86 C91 1.431 1_545 S
C86 C92 1.412 . S
C87 C90 1.437 . S
C87 C91 1.317 1_545 S
C87 H106 0.929 1_545 S
C88 C89 1.426 . S
C88 C90 1.413 . S
C88 N98 1.359 . S
C89 C86 1.417 . S
C89 C88 1.426 . S
C89 N94 1.350 . S
C90 C87 1.437 . S
C90 C88 1.413 . S
C90 C100 1.391 . S
C91 C86 1.431 1_565 S
C91 C87 1.317 1_565 S
C91 H102 0.930 . S
C92 C86 1.412 . S
C92 C93 1.355 . S
C92 H104 0.930 1_545 S
C93 C92 1.355 . S
C93 C95 1.402 . S
C93 H105 0.930 . S
N94 Gd85 2.661 . S
N94 C89 1.350 . S
N94 C95 1.307 . S
C95 C93 1.402 . S
C95 N94 1.307 . S
C95 H96 0.930 . S
H96 C95 0.930 . S
C97 N98 1.334 . S
C97 C99 1.394 . S
C97 H101 0.930 . S
N98 Gd85 2.601 . S
N98 C88 1.359 . S
N98 C97 1.334 . S
C99 C97 1.394 . S
C99 C100 1.359 . S
C99 H111 0.930 . S
C100 C90 1.391 . S
C100 C99 1.359 . S
C100 H112 0.929 . S
H101 C97 0.930 . S
H102 C91 0.930 . S
H103 C120 0.930 . S
H104 C92 0.930 1_565 S
H105 C93 0.930 . S
H106 C87 0.929 1_565 S
H107 C125 0.930 . S
H108 C116 0.930 . S
H109 C117 0.930 . S
H110 C141 0.929 1_455 S
H111 C99 0.930 . S
H112 C100 0.929 . S
H113 C142 0.930 1_455 S
H114 C123 0.930 . S
N115 Gd84 2.661 . S
N115 C119 1.350 . S
N115 C120 1.307 . S
C116 H108 0.930 . S
C116 C117 1.355 . S
C116 C118 1.412 . S
C117 H109 0.930 . S
C117 C116 1.355 . S
C117 C120 1.402 . S
C118 C116 1.412 . S
C118 C119 1.417 . S
C118 C142 1.431 . S
C119 N115 1.350 . S
C119 C118 1.417 . S
C119 C122 1.426 . S
C120 H103 0.930 . S
C120 N115 1.307 . S
C120 C117 1.402 . S
N121 Gd84 2.601 . S
N121 C122 1.359 . S
N121 C125 1.334 . S
C122 C119 1.426 . S
C122 N121 1.359 . S
C122 C126 1.413 . S
C123 H114 0.930 . S
C123 C124 1.359 . S
C123 C125 1.394 . S
C124 C123 1.359 . S
C124 C126 1.391 . S
C124 H127 0.929 . S
C125 H107 0.930 . S
C125 N121 1.334 . S
C125 C123 1.394 . S
C126 C122 1.413 . S
C126 C124 1.391 . S
C126 C141 1.437 . S
H127 C124 0.929 . S
O128 Gd84 2.545 . S
O128 C143 1.258 . S
O129 Gd84 2.606 . S
O129 Gd85 2.362 . S
O129 C140 1.284 . S
O130 Gd85 2.324 . S
O130 C150 1.254 . S
O131 Gd84 2.429 . S
O131 C150 1.268 . S
O132 Gd84 2.545 . S
O132 C140 1.250 . S
O133 Gd84 2.412 . S
O133 C143 1.252 . S
O134 Gd85 2.545 . S
O134 C152 1.258 . S
O135 Gd84 2.362 . S
O135 Gd85 2.606 . S
O135 C151 1.284 . S
O136 Gd84 2.324 . S
O136 C159 1.254 . S
O137 Gd85 2.429 . S
O137 C159 1.268 . S
O138 Gd85 2.545 . S
O138 C151 1.250 . S
O139 Gd85 2.412 . S
O139 C152 1.252 . S
C140 O129 1.284 . S
C140 O132 1.250 . S
C141 H110 0.929 1_655 S
C141 C126 1.437 . S
C141 C142 1.317 . S
C142 H113 0.930 1_655 S
C142 C118 1.431 . S
C142 C141 1.317 . S
C143 Gd84 2.828 . S
C143 O128 1.258 . S
C143 O133 1.252 . S
C143 C144 1.497 1_655 S
C144 C143 1.497 1_455 S
C144 C145 1.395 . S
C144 C146 1.380 . S
C145 C144 1.395 . S
C145 C148 1.398 . S
C145 H160 0.930 . S
C146 C144 1.380 . S
C146 C147 1.391 . S
C146 H161 0.930 . S
C147 C146 1.391 . S
C147 C149 1.387 . S
C148 C145 1.398 . S
C148 C149 1.380 . S
C148 H162 0.930 . S
C149 C147 1.387 . S
C149 C148 1.380 . S
C149 H163 0.930 . S
C150 O130 1.254 . S
C150 O131 1.268 . S
C151 O135 1.284 . S
C151 O138 1.250 . S
C152 Gd85 2.828 . S
C152 O134 1.258 . S
C152 O139 1.252 . S
C152 C153 1.497 . S
C153 C152 1.497 . S
C153 C154 1.395 . S
C153 C155 1.380 . S
C154 C153 1.395 . S
C154 C157 1.398 . S
C154 H164 0.930 . S
C155 C153 1.380 . S
C155 C156 1.391 . S
C155 H165 0.930 . S
C156 C155 1.391 . S
C156 C158 1.387 . S
C157 C154 1.398 . S
C157 C158 1.380 . S
C157 H166 0.930 . S
C158 C156 1.387 . S
C158 C157 1.380 . S
C158 H167 0.930 . S
C159 O136 1.254 . S
C159 O137 1.268 . S
H160 C145 0.930 . S
H161 C146 0.930 . S
H162 C148 0.930 . S
H163 C149 0.930 . S
H164 C154 0.930 . S
H165 C155 0.930 . S
H166 C157 0.930 . S
H167 C158 0.930 . S
Gd168 N199 2.661 . S
Gd168 N205 2.601 . S
Gd168 O212 2.545 . S
Gd168 O213 2.606 . S
Gd168 O215 2.429 . S
Gd168 O216 2.545 . S
Gd168 O217 2.412 . S
Gd168 O219 2.362 . S
Gd168 O220 2.324 . S
Gd168 C227 2.828 . S
Gd169 N178 2.661 . S
Gd169 N182 2.601 . S
Gd169 O213 2.362 . S
Gd169 O214 2.324 . S
Gd169 O218 2.545 . S
Gd169 O219 2.606 . S
Gd169 O221 2.429 . S
Gd169 O222 2.545 . S
Gd169 O223 2.412 . S
Gd169 C236 2.828 . S
C170 C173 1.417 . S
C170 C175 1.431 . S
C170 C176 1.412 . S
C171 C174 1.437 . S
C171 C175 1.317 . S
C171 H190 0.929 . S
C172 C173 1.426 . S
C172 C174 1.413 . S
C172 N182 1.359 . S
C173 C170 1.417 . S
C173 C172 1.426 . S
C173 N178 1.350 . S
C174 C171 1.437 . S
C174 C172 1.413 . S
C174 C184 1.391 . S
C175 C170 1.431 . S
C175 C171 1.317 . S
C175 H186 0.930 . S
C176 C170 1.412 . S
C176 C177 1.355 . S
C176 H188 0.930 . S
C177 C176 1.355 . S
C177 C179 1.402 . S
C177 H189 0.930 . S
N178 Gd169 2.661 . S
N178 C173 1.350 . S
N178 C179 1.307 . S
C179 C177 1.402 . S
C179 N178 1.307 . S
C179 H180 0.930 . S
H180 C179 0.930 . S
C181 N182 1.334 . S
C181 C183 1.394 . S
C181 H185 0.930 . S
N182 Gd169 2.601 . S
N182 C172 1.359 . S
N182 C181 1.334 . S
C183 C181 1.394 . S
C183 C184 1.359 . S
C183 H195 0.930 . S
C184 C174 1.391 . S
C184 C183 1.359 . S
C184 H196 0.929 . S
H185 C181 0.930 . S
H186 C175 0.930 . S
H187 C204 0.930 . S
H188 C176 0.930 . S
H189 C177 0.930 . S
H190 C171 0.929 . S
H191 C209 0.930 . S
H192 C200 0.930 . S
H193 C201 0.930 . S
H194 C225 0.929 1_545 S
H195 C183 0.930 . S
H196 C184 0.929 . S
H197 C226 0.930 1_545 S
H198 C207 0.930 . S
N199 Gd168 2.661 . S
N199 C203 1.350 . S
N199 C204 1.307 . S
C200 H192 0.930 . S
C200 C201 1.355 . S
C200 C202 1.412 . S
C201 H193 0.930 . S
C201 C200 1.355 . S
C201 C204 1.402 . S
C202 C200 1.412 . S
C202 C203 1.417 . S
C202 C226 1.431 . S
C203 N199 1.350 . S
C203 C202 1.417 . S
C203 C206 1.426 . S
C204 H187 0.930 . S
C204 N199 1.307 . S
C204 C201 1.402 . S
N205 Gd168 2.601 . S
N205 C206 1.359 . S
N205 C209 1.334 . S
C206 C203 1.426 . S
C206 N205 1.359 . S
C206 C210 1.413 . S
C207 H198 0.930 . S
C207 C208 1.359 . S
C207 C209 1.394 . S
C208 C207 1.359 . S
C208 C210 1.391 . S
C208 H211 0.929 . S
C209 H191 0.930 . S
C209 N205 1.334 . S
C209 C207 1.394 . S
C210 C206 1.413 . S
C210 C208 1.391 . S
C210 C225 1.437 . S
H211 C208 0.929 . S
O212 Gd168 2.545 . S
O212 C227 1.258 . S
O213 Gd168 2.606 . S
O213 Gd169 2.362 . S
O213 C224 1.284 . S
O214 Gd169 2.324 . S
O214 C234 1.254 . S
O215 Gd168 2.429 . S
O215 C234 1.268 . S
O216 Gd168 2.545 . S
O216 C224 1.250 . S
O217 Gd168 2.412 . S
O217 C227 1.252 . S
O218 Gd169 2.545 . S
O218 C236 1.258 . S
O219 Gd168 2.362 . S
O219 Gd169 2.606 . S
O219 C235 1.284 . S
O220 Gd168 2.324 . S
O220 C243 1.254 . S
O221 Gd169 2.429 . S
O221 C243 1.268 . S
O222 Gd169 2.545 . S
O222 C235 1.250 . S
O223 Gd169 2.412 . S
O223 C236 1.252 . S
C224 O213 1.284 . S
C224 O216 1.250 . S
C225 H194 0.929 1_565 S
C225 C210 1.437 . S
C225 C226 1.317 . S
C226 H197 0.930 1_565 S
C226 C202 1.431 . S
C226 C225 1.317 . S
C227 Gd168 2.828 . S
C227 O212 1.258 . S
C227 O217 1.252 . S
C227 C228 1.497 1_565 S
C228 C227 1.497 1_545 S
C228 C229 1.395 . S
C228 C230 1.380 . S
C229 C228 1.395 . S
C229 C232 1.398 . S
C229 H244 0.930 . S
C230 C228 1.380 . S
C230 C231 1.391 . S
C230 H245 0.930 . S
C231 C230 1.391 . S
C231 C233 1.387 . S
C232 C229 1.398 . S
C232 C233 1.380 . S
C232 H246 0.930 . S
C233 C231 1.387 . S
C233 C232 1.380 . S
C233 H247 0.930 . S
C234 O214 1.254 . S
C234 O215 1.268 . S
C235 O219 1.284 . S
C235 O222 1.250 . S
C236 Gd169 2.828 . S
C236 O218 1.258 . S
C236 O223 1.252 . S
C236 C237 1.497 . S
C237 C236 1.497 . S
C237 C238 1.395 . S
C237 C239 1.380 . S
C238 C237 1.395 . S
C238 C241 1.398 . S
C238 H248 0.930 . S
C239 C237 1.380 . S
C239 C240 1.391 . S
C239 H249 0.930 . S
C240 C239 1.391 . S
C240 C242 1.387 . S
C241 C238 1.398 . S
C241 C242 1.380 . S
C241 H250 0.930 . S
C242 C240 1.387 . S
C242 C241 1.380 . S
C242 H251 0.930 . S
C243 O220 1.254 . S
C243 O221 1.268 . S
H244 C229 0.930 . S
H245 C230 0.930 . S
H246 C232 0.930 . S
H247 C233 0.930 . S
H248 C238 0.930 . S
H249 C239 0.930 . S
H250 C241 0.930 . S
H251 C242 0.930 . S
Gd252 N283 2.661 . S
Gd252 N289 2.601 . S
Gd252 O296 2.545 . S
Gd252 O297 2.606 . S
Gd252 O299 2.429 . S
Gd252 O300 2.545 . S
Gd252 O301 2.412 . S
Gd252 O303 2.362 . S
Gd252 O304 2.324 . S
Gd252 C311 2.828 . S
Gd253 N262 2.661 . S
Gd253 N266 2.601 . S
Gd253 O297 2.362 . S
Gd253 O298 2.324 . S
Gd253 O302 2.545 . S
Gd253 O303 2.606 . S
Gd253 O305 2.429 . S
Gd253 O306 2.545 . S
Gd253 O307 2.412 . S
Gd253 C320 2.828 . S
C254 C257 1.417 . S
C254 C259 1.431 1_655 S
C254 C260 1.412 . S
C255 C258 1.437 . S
C255 C259 1.317 1_655 S
C255 H274 0.929 1_655 S
C256 C257 1.426 . S
C256 C258 1.413 . S
C256 N266 1.359 . S
C257 C254 1.417 . S
C257 C256 1.426 . S
C257 N262 1.350 . S
C258 C255 1.437 . S
C258 C256 1.413 . S
C258 C268 1.391 . S
C259 C254 1.431 1_455 S
C259 C255 1.317 1_455 S
C259 H270 0.930 . S
C260 C254 1.412 . S
C260 C261 1.355 . S
C260 H272 0.930 1_655 S
C261 C260 1.355 . S
C261 C263 1.402 . S
C261 H273 0.930 . S
N262 Gd253 2.661 . S
N262 C257 1.350 . S
N262 C263 1.307 . S
C263 C261 1.402 . S
C263 N262 1.307 . S
C263 H264 0.930 . S
H264 C263 0.930 . S
C265 N266 1.334 . S
C265 C267 1.394 . S
C265 H269 0.930 . S
N266 Gd253 2.601 . S
N266 C256 1.359 . S
N266 C265 1.334 . S
C267 C265 1.394 . S
C267 C268 1.359 . S
C267 H279 0.930 . S
C268 C258 1.391 . S
C268 C267 1.359 . S
C268 H280 0.929 . S
H269 C265 0.930 . S
H270 C259 0.930 . S
H271 C288 0.930 . S
H272 C260 0.930 1_455 S
H273 C261 0.930 . S
H274 C255 0.929 1_455 S
H275 C293 0.930 . S
H276 C284 0.930 . S
H277 C285 0.930 . S
H278 C309 0.929 . S
H279 C267 0.930 . S
H280 C268 0.929 . S
H281 C310 0.930 . S
H282 C291 0.930 . S
N283 Gd252 2.661 . S
N283 C287 1.350 . S
N283 C288 1.307 . S
C284 H276 0.930 . S
C284 C285 1.355 . S
C284 C286 1.412 . S
C285 H277 0.930 . S
C285 C284 1.355 . S
C285 C288 1.402 . S
C286 C284 1.412 . S
C286 C287 1.417 . S
C286 C310 1.431 . S
C287 N283 1.350 . S
C287 C286 1.417 . S
C287 C290 1.426 . S
C288 H271 0.930 . S
C288 N283 1.307 . S
C288 C285 1.402 . S
N289 Gd252 2.601 . S
N289 C290 1.359 . S
N289 C293 1.334 . S
C290 C287 1.426 . S
C290 N289 1.359 . S
C290 C294 1.413 . S
C291 H282 0.930 . S
C291 C292 1.359 . S
C291 C293 1.394 . S
C292 C291 1.359 . S
C292 C294 1.391 . S
C292 H295 0.929 . S
C293 H275 0.930 . S
C293 N289 1.334 . S
C293 C291 1.394 . S
C294 C290 1.413 . S
C294 C292 1.391 . S
C294 C309 1.437 . S
H295 C292 0.929 . S
O296 Gd252 2.545 . S
O296 C311 1.258 . S
O297 Gd252 2.606 . S
O297 Gd253 2.362 . S
O297 C308 1.284 . S
O298 Gd253 2.324 . S
O298 C318 1.254 . S
O299 Gd252 2.429 . S
O299 C318 1.268 . S
O300 Gd252 2.545 . S
O300 C308 1.250 . S
O301 Gd252 2.412 . S
O301 C311 1.252 . S
O302 Gd253 2.545 . S
O302 C320 1.258 . S
O303 Gd252 2.362 . S
O303 Gd253 2.606 . S
O303 C319 1.284 . S
O304 Gd252 2.324 . S
O304 C327 1.254 . S
O305 Gd253 2.429 . S
O305 C327 1.268 . S
O306 Gd253 2.545 . S
O306 C319 1.250 . S
O307 Gd253 2.412 . S
O307 C320 1.252 . S
C308 O297 1.284 . S
C308 O300 1.250 . S
C309 H278 0.929 . S
C309 C294 1.437 . S
C309 C310 1.317 . S
C310 H281 0.930 . S
C310 C286 1.431 . S
C310 C309 1.317 . S
C311 Gd252 2.828 . S
C311 O296 1.258 . S
C311 O301 1.252 . S
C311 C312 1.497 . S
C312 C311 1.497 . S
C312 C313 1.395 . S
C312 C314 1.380 . S
C313 C312 1.395 . S
C313 C316 1.398 . S
C313 H328 0.930 . S
C314 C312 1.380 . S
C314 C315 1.391 . S
C314 H329 0.930 . S
C315 C314 1.391 . S
C315 C317 1.387 . S
C316 C313 1.398 . S
C316 C317 1.380 . S
C316 H330 0.930 . S
C317 C315 1.387 . S
C317 C316 1.380 . S
C317 H331 0.930 . S
C318 O298 1.254 . S
C318 O299 1.268 . S
C319 O303 1.284 . S
C319 O306 1.250 . S
C320 Gd253 2.828 . S
C320 O302 1.258 . S
C320 O307 1.252 . S
C320 C321 1.497 . S
C321 C320 1.497 . S
C321 C322 1.395 . S
C321 C323 1.380 . S
C322 C321 1.395 . S
C322 C325 1.398 . S
C322 H332 0.930 . S
C323 C321 1.380 . S
C323 C324 1.391 . S
C323 H333 0.930 . S
C324 C323 1.391 . S
C324 C326 1.387 . S
C325 C322 1.398 . S
C325 C326 1.380 . S
C325 H334 0.930 . S
C326 C324 1.387 . S
C326 C325 1.380 . S
C326 H335 0.930 . S
C327 O304 1.254 . S
C327 O305 1.268 . S
H328 C313 0.930 . S
H329 C314 0.930 . S
H330 C316 0.930 . S
H331 C317 0.930 . S
H332 C322 0.930 . S
H333 C323 0.930 . S
H334 C325 0.930 . S
H335 C326 0.930 . S
Gd336 N367 2.661 . S
Gd336 N373 2.601 . S
Gd336 O380 2.545 . S
Gd336 O381 2.606 . S
Gd336 O383 2.429 . S
Gd336 O384 2.545 . S
Gd336 O385 2.412 . S
Gd336 O387 2.362 . S
Gd336 O388 2.324 . S
Gd336 C395 2.828 . S
Gd337 N346 2.661 . S
Gd337 N350 2.601 . S
Gd337 O381 2.362 . S
Gd337 O382 2.324 . S
Gd337 O386 2.545 . S
Gd337 O387 2.606 . S
Gd337 O389 2.429 . S
Gd337 O390 2.545 . S
Gd337 O391 2.412 . S
Gd337 C404 2.828 . S
C338 C341 1.417 . S
C338 C343 1.431 1_565 S
C338 C344 1.412 . S
C339 C342 1.437 . S
C339 C343 1.317 1_565 S
C339 H358 0.929 1_565 S
C340 C341 1.426 . S
C340 C342 1.413 . S
C340 N350 1.359 . S
C341 C338 1.417 . S
C341 C340 1.426 . S
C341 N346 1.350 . S
C342 C339 1.437 . S
C342 C340 1.413 . S
C342 C352 1.391 . S
C343 C338 1.431 1_545 S
C343 C339 1.317 1_545 S
C343 H354 0.930 . S
C344 C338 1.412 . S
C344 C345 1.355 . S
C344 H356 0.930 1_565 S
C345 C344 1.355 . S
C345 C347 1.402 . S
C345 H357 0.930 . S
N346 Gd337 2.661 . S
N346 C341 1.350 . S
N346 C347 1.307 . S
C347 C345 1.402 . S
C347 N346 1.307 . S
C347 H348 0.930 . S
H348 C347 0.930 . S
C349 N350 1.334 . S
C349 C351 1.394 . S
C349 H353 0.930 . S
N350 Gd337 2.601 . S
N350 C340 1.359 . S
N350 C349 1.334 . S
C351 C349 1.394 . S
C351 C352 1.359 . S
C351 H363 0.930 . S
C352 C342 1.391 . S
C352 C351 1.359 . S
C352 H364 0.929 . S
H353 C349 0.930 . S
H354 C343 0.930 . S
H355 C372 0.930 . S
H356 C344 0.930 1_545 S
H357 C345 0.930 . S
H358 C339 0.929 1_545 S
H359 C377 0.930 . S
H360 C368 0.930 . S
H361 C369 0.930 . S
H362 C393 0.929 1_655 S
H363 C351 0.930 . S
H364 C352 0.929 . S
H365 C394 0.930 1_655 S
H366 C375 0.930 . S
N367 Gd336 2.661 . S
N367 C371 1.350 . S
N367 C372 1.307 . S
C368 H360 0.930 . S
C368 C369 1.355 . S
C368 C370 1.412 . S
C369 H361 0.930 . S
C369 C368 1.355 . S
C369 C372 1.402 . S
C370 C368 1.412 . S
C370 C371 1.417 . S
C370 C394 1.431 . S
C371 N367 1.350 . S
C371 C370 1.417 . S
C371 C374 1.426 . S
C372 H355 0.930 . S
C372 N367 1.307 . S
C372 C369 1.402 . S
N373 Gd336 2.601 . S
N373 C374 1.359 . S
N373 C377 1.334 . S
C374 C371 1.426 . S
C374 N373 1.359 . S
C374 C378 1.413 . S
C375 H366 0.930 . S
C375 C376 1.359 . S
C375 C377 1.394 . S
C376 C375 1.359 . S
C376 C378 1.391 . S
C376 H379 0.929 . S
C377 H359 0.930 . S
C377 N373 1.334 . S
C377 C375 1.394 . S
C378 C374 1.413 . S
C378 C376 1.391 . S
C378 C393 1.437 . S
H379 C376 0.929 . S
O380 Gd336 2.545 . S
O380 C395 1.258 . S
O381 Gd336 2.606 . S
O381 Gd337 2.362 . S
O381 C392 1.284 . S
O382 Gd337 2.324 . S
O382 C402 1.254 . S
O383 Gd336 2.429 . S
O383 C402 1.268 . S
O384 Gd336 2.545 . S
O384 C392 1.250 . S
O385 Gd336 2.412 . S
O385 C395 1.252 . S
O386 Gd337 2.545 . S
O386 C404 1.258 . S
O387 Gd336 2.362 . S
O387 Gd337 2.606 . S
O387 C403 1.284 . S
O388 Gd336 2.324 . S
O388 C411 1.254 . S
O389 Gd337 2.429 . S
O389 C411 1.268 . S
O390 Gd337 2.545 . S
O390 C403 1.250 . S
O391 Gd337 2.412 . S
O391 C404 1.252 . S
C392 O381 1.284 . S
C392 O384 1.250 . S
C393 H362 0.929 1_455 S
C393 C378 1.437 . S
C393 C394 1.317 . S
C394 H365 0.930 1_455 S
C394 C370 1.431 . S
C394 C393 1.317 . S
C395 Gd336 2.828 . S
C395 O380 1.258 . S
C395 O385 1.252 . S
C395 C396 1.497 1_455 S
C396 C395 1.497 1_655 S
C396 C397 1.395 . S
C396 C398 1.380 . S
C397 C396 1.395 . S
C397 C400 1.398 . S
C397 H412 0.930 . S
C398 C396 1.380 . S
C398 C399 1.391 . S
C398 H413 0.930 . S
C399 C398 1.391 . S
C399 C401 1.387 . S
C400 C397 1.398 . S
C400 C401 1.380 . S
C400 H414 0.930 . S
C401 C399 1.387 . S
C401 C400 1.380 . S
C401 H415 0.930 . S
C402 O382 1.254 . S
C402 O383 1.268 . S
C403 O387 1.284 . S
C403 O390 1.250 . S
C404 Gd337 2.828 . S
C404 O386 1.258 . S
C404 O391 1.252 . S
C404 C405 1.497 . S
C405 C404 1.497 . S
C405 C406 1.395 . S
C405 C407 1.380 . S
C406 C405 1.395 . S
C406 C409 1.398 . S
C406 H416 0.930 . S
C407 C405 1.380 . S
C407 C408 1.391 . S
C407 H417 0.930 . S
C408 C407 1.391 . S
C408 C410 1.387 . S
C409 C406 1.398 . S
C409 C410 1.380 . S
C409 H418 0.930 . S
C410 C408 1.387 . S
C410 C409 1.380 . S
C410 H419 0.930 . S
C411 O388 1.254 . S
C411 O389 1.268 . S
H412 C397 0.930 . S
H413 C398 0.930 . S
H414 C400 0.930 . S
H415 C401 0.930 . S
H416 C406 0.930 . S
H417 C407 0.930 . S
H418 C409 0.930 . S
H419 C410 0.930 . S
Gd420 N451 2.661 . S
Gd420 N457 2.601 . S
Gd420 O464 2.545 . S
Gd420 O465 2.606 . S
Gd420 O467 2.429 . S
Gd420 O468 2.545 . S
Gd420 O469 2.412 . S
Gd420 O471 2.362 . S
Gd420 O472 2.324 . S
Gd420 C479 2.828 . S
Gd421 N430 2.661 . S
Gd421 N434 2.601 . S
Gd421 O465 2.362 . S
Gd421 O466 2.324 . S
Gd421 O470 2.545 . S
Gd421 O471 2.606 . S
Gd421 O473 2.429 . S
Gd421 O474 2.545 . S
Gd421 O475 2.412 . S
Gd421 C488 2.828 . S
C422 C425 1.417 . S
C422 C427 1.431 . S
C422 C428 1.412 . S
C423 C426 1.437 . S
C423 C427 1.317 . S
C423 H442 0.929 . S
C424 C425 1.426 . S
C424 C426 1.413 . S
C424 N434 1.359 . S
C425 C422 1.417 . S
C425 C424 1.426 . S
C425 N430 1.350 . S
C426 C423 1.437 . S
C426 C424 1.413 . S
C426 C436 1.391 . S
C427 C422 1.431 . S
C427 C423 1.317 . S
C427 H438 0.930 . S
C428 C422 1.412 . S
C428 C429 1.355 . S
C428 H440 0.930 . S
C429 C428 1.355 . S
C429 C431 1.402 . S
C429 H441 0.930 . S
N430 Gd421 2.661 . S
N430 C425 1.350 . S
N430 C431 1.307 . S
C431 C429 1.402 . S
C431 N430 1.307 . S
C431 H432 0.930 . S
H432 C431 0.930 . S
C433 N434 1.334 . S
C433 C435 1.394 . S
C433 H437 0.930 . S
N434 Gd421 2.601 . S
N434 C424 1.359 . S
N434 C433 1.334 . S
C435 C433 1.394 . S
C435 C436 1.359 . S
C435 H447 0.930 . S
C436 C426 1.391 . S
C436 C435 1.359 . S
C436 H448 0.929 . S
H437 C433 0.930 . S
H438 C427 0.930 . S
H439 C456 0.930 . S
H440 C428 0.930 . S
H441 C429 0.930 . S
H442 C423 0.929 . S
H443 C461 0.930 . S
H444 C452 0.930 . S
H445 C453 0.930 . S
H446 C477 0.929 1_565 S
H447 C435 0.930 . S
H448 C436 0.929 . S
H449 C478 0.930 1_565 S
H450 C459 0.930 . S
N451 Gd420 2.661 . S
N451 C455 1.350 . S
N451 C456 1.307 . S
C452 H444 0.930 . S
C452 C453 1.355 . S
C452 C454 1.412 . S
C453 H445 0.930 . S
C453 C452 1.355 . S
C453 C456 1.402 . S
C454 C452 1.412 . S
C454 C455 1.417 . S
C454 C478 1.431 . S
C455 N451 1.350 . S
C455 C454 1.417 . S
C455 C458 1.426 . S
C456 H439 0.930 . S
C456 N451 1.307 . S
C456 C453 1.402 . S
N457 Gd420 2.601 . S
N457 C458 1.359 . S
N457 C461 1.334 . S
C458 C455 1.426 . S
C458 N457 1.359 . S
C458 C462 1.413 . S
C459 H450 0.930 . S
C459 C460 1.359 . S
C459 C461 1.394 . S
C460 C459 1.359 . S
C460 C462 1.391 . S
C460 H463 0.929 . S
C461 H443 0.930 . S
C461 N457 1.334 . S
C461 C459 1.394 . S
C462 C458 1.413 . S
C462 C460 1.391 . S
C462 C477 1.437 . S
H463 C460 0.929 . S
O464 Gd420 2.545 . S
O464 C479 1.258 . S
O465 Gd420 2.606 . S
O465 Gd421 2.362 . S
O465 C476 1.284 . S
O466 Gd421 2.324 . S
O466 C486 1.254 . S
O467 Gd420 2.429 . S
O467 C486 1.268 . S
O468 Gd420 2.545 . S
O468 C476 1.250 . S
O469 Gd420 2.412 . S
O469 C479 1.252 . S
O470 Gd421 2.545 . S
O470 C488 1.258 . S
O471 Gd420 2.362 . S
O471 Gd421 2.606 . S
O471 C487 1.284 . S
O472 Gd420 2.324 . S
O472 C495 1.254 . S
O473 Gd421 2.429 . S
O473 C495 1.268 . S
O474 Gd421 2.545 . S
O474 C487 1.250 . S
O475 Gd421 2.412 . S
O475 C488 1.252 . S
C476 O465 1.284 . S
C476 O468 1.250 . S
C477 H446 0.929 1_545 S
C477 C462 1.437 . S
C477 C478 1.317 . S
C478 H449 0.930 1_545 S
C478 C454 1.431 . S
C478 C477 1.317 . S
C479 Gd420 2.828 . S
C479 O464 1.258 . S
C479 O469 1.252 . S
C479 C480 1.497 1_545 S
C480 C479 1.497 1_565 S
C480 C481 1.395 . S
C480 C482 1.380 . S
C481 C480 1.395 . S
C481 C484 1.398 . S
C481 H496 0.930 . S
C482 C480 1.380 . S
C482 C483 1.391 . S
C482 H497 0.930 . S
C483 C482 1.391 . S
C483 C485 1.387 . S
C484 C481 1.398 . S
C484 C485 1.380 . S
C484 H498 0.930 . S
C485 C483 1.387 . S
C485 C484 1.380 . S
C485 H499 0.930 . S
C486 O466 1.254 . S
C486 O467 1.268 . S
C487 O471 1.284 . S
C487 O474 1.250 . S
C488 Gd421 2.828 . S
C488 O470 1.258 . S
C488 O475 1.252 . S
C488 C489 1.497 . S
C489 C488 1.497 . S
C489 C490 1.395 . S
C489 C491 1.380 . S
C490 C489 1.395 . S
C490 C493 1.398 . S
C490 H500 0.930 . S
C491 C489 1.380 . S
C491 C492 1.391 . S
C491 H501 0.930 . S
C492 C491 1.391 . S
C492 C494 1.387 . S
C493 C490 1.398 . S
C493 C494 1.380 . S
C493 H502 0.930 . S
C494 C492 1.387 . S
C494 C493 1.380 . S
C494 H503 0.930 . S
C495 O472 1.254 . S
C495 O473 1.268 . S
H496 C481 0.930 . S
H497 C482 0.930 . S
H498 C484 0.930 . S
H499 C485 0.930 . S
H500 C490 0.930 . S
H501 C491 0.930 . S
H502 C493 0.930 . S
H503 C494 0.930 . S
Gd504 N535 2.661 . S
Gd504 N541 2.601 . S
Gd504 O548 2.545 . S
Gd504 O549 2.606 . S
Gd504 O551 2.429 . S
Gd504 O552 2.545 . S
Gd504 O553 2.412 . S
Gd504 O555 2.362 . S
Gd504 O556 2.324 . S
Gd504 C563 2.828 . S
Gd505 N514 2.661 . S
Gd505 N518 2.601 . S
Gd505 O549 2.362 . S
Gd505 O550 2.324 . S
Gd505 O554 2.545 . S
Gd505 O555 2.606 . S
Gd505 O557 2.429 . S
Gd505 O558 2.545 . S
Gd505 O559 2.412 . S
Gd505 C572 2.828 . S
C506 C509 1.417 . S
C506 C511 1.431 1_565 S
C506 C512 1.412 . S
C507 C510 1.437 . S
C507 C511 1.317 1_565 S
C507 H526 0.929 1_565 S
C508 C509 1.426 . S
C508 C510 1.413 . S
C508 N518 1.359 . S
C509 C506 1.417 . S
C509 C508 1.426 . S
C509 N514 1.350 . S
C510 C507 1.437 . S
C510 C508 1.413 . S
C510 C520 1.391 . S
C511 C506 1.431 1_545 S
C511 C507 1.317 1_545 S
C511 H522 0.930 . S
C512 C506 1.412 . S
C512 C513 1.355 . S
C512 H524 0.930 1_565 S
C513 C512 1.355 . S
C513 C515 1.402 . S
C513 H525 0.930 . S
N514 Gd505 2.661 . S
N514 C509 1.350 . S
N514 C515 1.307 . S
C515 C513 1.402 . S
C515 N514 1.307 . S
C515 H516 0.930 . S
H516 C515 0.930 . S
C517 N518 1.334 . S
C517 C519 1.394 . S
C517 H521 0.930 . S
N518 Gd505 2.601 . S
N518 C508 1.359 . S
N518 C517 1.334 . S
C519 C517 1.394 . S
C519 C520 1.359 . S
C519 H531 0.930 . S
C520 C510 1.391 . S
C520 C519 1.359 . S
C520 H532 0.929 . S
H521 C517 0.930 . S
H522 C511 0.930 . S
H523 C540 0.930 . S
H524 C512 0.930 1_545 S
H525 C513 0.930 . S
H526 C507 0.929 1_545 S
H527 C545 0.930 . S
H528 C536 0.930 . S
H529 C537 0.930 . S
H530 C561 0.929 . S
H531 C519 0.930 . S
H532 C520 0.929 . S
H533 C562 0.930 . S
H534 C543 0.930 . S
N535 Gd504 2.661 . S
N535 C539 1.350 . S
N535 C540 1.307 . S
C536 H528 0.930 . S
C536 C537 1.355 . S
C536 C538 1.412 . S
C537 H529 0.930 . S
C537 C536 1.355 . S
C537 C540 1.402 . S
C538 C536 1.412 . S
C538 C539 1.417 . S
C538 C562 1.431 . S
C539 N535 1.350 . S
C539 C538 1.417 . S
C539 C542 1.426 . S
C540 H523 0.930 . S
C540 N535 1.307 . S
C540 C537 1.402 . S
N541 Gd504 2.601 . S
N541 C542 1.359 . S
N541 C545 1.334 . S
C542 C539 1.426 . S
C542 N541 1.359 . S
C542 C546 1.413 . S
C543 H534 0.930 . S
C543 C544 1.359 . S
C543 C545 1.394 . S
C544 C543 1.359 . S
C544 C546 1.391 . S
C544 H547 0.929 . S
C545 H527 0.930 . S
C545 N541 1.334 . S
C545 C543 1.394 . S
C546 C542 1.413 . S
C546 C544 1.391 . S
C546 C561 1.437 . S
H547 C544 0.929 . S
O548 Gd504 2.545 . S
O548 C563 1.258 . S
O549 Gd504 2.606 . S
O549 Gd505 2.362 . S
O549 C560 1.284 . S
O550 Gd505 2.324 . S
O550 C570 1.254 . S
O551 Gd504 2.429 . S
O551 C570 1.268 . S
O552 Gd504 2.545 . S
O552 C560 1.250 . S
O553 Gd504 2.412 . S
O553 C563 1.252 . S
O554 Gd505 2.545 . S
O554 C572 1.258 . S
O555 Gd504 2.362 . S
O555 Gd505 2.606 . S
O555 C571 1.284 . S
O556 Gd504 2.324 . S
O556 C579 1.254 . S
O557 Gd505 2.429 . S
O557 C579 1.268 . S
O558 Gd505 2.545 . S
O558 C571 1.250 . S
O559 Gd505 2.412 . S
O559 C572 1.252 . S
C560 O549 1.284 . S
C560 O552 1.250 . S
C561 H530 0.929 . S
C561 C546 1.437 . S
C561 C562 1.317 . S
C562 H533 0.930 . S
C562 C538 1.431 . S
C562 C561 1.317 . S
C563 Gd504 2.828 . S
C563 O548 1.258 . S
C563 O553 1.252 . S
C563 C564 1.497 . S
C564 C563 1.497 . S
C564 C565 1.395 . S
C564 C566 1.380 . S
C565 C564 1.395 . S
C565 C568 1.398 . S
C565 H580 0.930 . S
C566 C564 1.380 . S
C566 C567 1.391 . S
C566 H581 0.930 . S
C567 C566 1.391 . S
C567 C569 1.387 . S
C568 C565 1.398 . S
C568 C569 1.380 . S
C568 H582 0.930 . S
C569 C567 1.387 . S
C569 C568 1.380 . S
C569 H583 0.930 . S
C570 O550 1.254 . S
C570 O551 1.268 . S
C571 O555 1.284 . S
C571 O558 1.250 . S
C572 Gd505 2.828 . S
C572 O554 1.258 . S
C572 O559 1.252 . S
C572 C573 1.497 . S
C573 C572 1.497 . S
C573 C574 1.395 . S
C573 C575 1.380 . S
C574 C573 1.395 . S
C574 C577 1.398 . S
C574 H584 0.930 . S
C575 C573 1.380 . S
C575 C576 1.391 . S
C575 H585 0.930 . S
C576 C575 1.391 . S
C576 C578 1.387 . S
C577 C574 1.398 . S
C577 C578 1.380 . S
C577 H586 0.930 . S
C578 C576 1.387 . S
C578 C577 1.380 . S
C578 H587 0.930 . S
C579 O556 1.254 . S
C579 O557 1.268 . S
H580 C565 0.930 . S
H581 C566 0.930 . S
H582 C568 0.930 . S
H583 C569 0.930 . S
H584 C574 0.930 . S
H585 C575 0.930 . S
H586 C577 0.930 . S
H587 C578 0.930 . S
Gd588 N619 2.661 . S
Gd588 N625 2.601 . S
Gd588 O632 2.545 . S
Gd588 O633 2.606 . S
Gd588 O635 2.429 . S
Gd588 O636 2.545 . S
Gd588 O637 2.412 . S
Gd588 O639 2.362 . S
Gd588 O640 2.324 . S
Gd588 C647 2.828 . S
Gd589 N598 2.661 . S
Gd589 N602 2.601 . S
Gd589 O633 2.362 . S
Gd589 O634 2.324 . S
Gd589 O638 2.545 . S
Gd589 O639 2.606 . S
Gd589 O641 2.429 . S
Gd589 O642 2.545 . S
Gd589 O643 2.412 . S
Gd589 C656 2.828 . S
C590 C593 1.417 . S
C590 C595 1.431 . S
C590 C596 1.412 . S
C591 C594 1.437 . S
C591 C595 1.317 . S
C591 H610 0.929 . S
C592 C593 1.426 . S
C592 C594 1.413 . S
C592 N602 1.359 . S
C593 C590 1.417 . S
C593 C592 1.426 . S
C593 N598 1.350 . S
C594 C591 1.437 . S
C594 C592 1.413 . S
C594 C604 1.391 . S
C595 C590 1.431 . S
C595 C591 1.317 . S
C595 H606 0.930 . S
C596 C590 1.412 . S
C596 C597 1.355 . S
C596 H608 0.930 . S
C597 C596 1.355 . S
C597 C599 1.402 . S
C597 H609 0.930 . S
N598 Gd589 2.661 . S
N598 C593 1.350 . S
N598 C599 1.307 . S
C599 C597 1.402 . S
C599 N598 1.307 . S
C599 H600 0.930 . S
H600 C599 0.930 . S
C601 N602 1.334 . S
C601 C603 1.394 . S
C601 H605 0.930 . S
N602 Gd589 2.601 . S
N602 C592 1.359 . S
N602 C601 1.334 . S
C603 C601 1.394 . S
C603 C604 1.359 . S
C603 H615 0.930 . S
C604 C594 1.391 . S
C604 C603 1.359 . S
C604 H616 0.929 . S
H605 C601 0.930 . S
H606 C595 0.930 . S
H607 C624 0.930 . S
H608 C596 0.930 . S
H609 C597 0.930 . S
H610 C591 0.929 . S
H611 C629 0.930 . S
H612 C620 0.930 . S
H613 C621 0.930 . S
H614 C645 0.929 1_455 S
H615 C603 0.930 . S
H616 C604 0.929 . S
H617 C646 0.930 1_455 S
H618 C627 0.930 . S
N619 Gd588 2.661 . S
N619 C623 1.350 . S
N619 C624 1.307 . S
C620 H612 0.930 . S
C620 C621 1.355 . S
C620 C622 1.412 . S
C621 H613 0.930 . S
C621 C620 1.355 . S
C621 C624 1.402 . S
C622 C620 1.412 . S
C622 C623 1.417 . S
C622 C646 1.431 . S
C623 N619 1.350 . S
C623 C622 1.417 . S
C623 C626 1.426 . S
C624 H607 0.930 . S
C624 N619 1.307 . S
C624 C621 1.402 . S
N625 Gd588 2.601 . S
N625 C626 1.359 . S
N625 C629 1.334 . S
C626 C623 1.426 . S
C626 N625 1.359 . S
C626 C630 1.413 . S
C627 H618 0.930 . S
C627 C628 1.359 . S
C627 C629 1.394 . S
C628 C627 1.359 . S
C628 C630 1.391 . S
C628 H631 0.929 . S
C629 H611 0.930 . S
C629 N625 1.334 . S
C629 C627 1.394 . S
C630 C626 1.413 . S
C630 C628 1.391 . S
C630 C645 1.437 . S
H631 C628 0.929 . S
O632 Gd588 2.545 . S
O632 C647 1.258 . S
O633 Gd588 2.606 . S
O633 Gd589 2.362 . S
O633 C644 1.284 . S
O634 Gd589 2.324 . S
O634 C654 1.254 . S
O635 Gd588 2.429 . S
O635 C654 1.268 . S
O636 Gd588 2.545 . S
O636 C644 1.250 . S
O637 Gd588 2.412 . S
O637 C647 1.252 . S
O638 Gd589 2.545 . S
O638 C656 1.258 . S
O639 Gd588 2.362 . S
O639 Gd589 2.606 . S
O639 C655 1.284 . S
O640 Gd588 2.324 . S
O640 C663 1.254 . S
O641 Gd589 2.429 . S
O641 C663 1.268 . S
O642 Gd589 2.545 . S
O642 C655 1.250 . S
O643 Gd589 2.412 . S
O643 C656 1.252 . S
C644 O633 1.284 . S
C644 O636 1.250 . S
C645 H614 0.929 1_655 S
C645 C630 1.437 . S
C645 C646 1.317 . S
C646 H617 0.930 1_655 S
C646 C622 1.431 . S
C646 C645 1.317 . S
C647 Gd588 2.828 . S
C647 O632 1.258 . S
C647 O637 1.252 . S
C647 C648 1.497 1_655 S
C648 C647 1.497 1_455 S
C648 C649 1.395 . S
C648 C650 1.380 . S
C649 C648 1.395 . S
C649 C652 1.398 . S
C649 H664 0.930 . S
C650 C648 1.380 . S
C650 C651 1.391 . S
C650 H665 0.930 . S
C651 C650 1.391 . S
C651 C653 1.387 . S
C652 C649 1.398 . S
C652 C653 1.380 . S
C652 H666 0.930 . S
C653 C651 1.387 . S
C653 C652 1.380 . S
C653 H667 0.930 . S
C654 O634 1.254 . S
C654 O635 1.268 . S
C655 O639 1.284 . S
C655 O642 1.250 . S
C656 Gd589 2.828 . S
C656 O638 1.258 . S
C656 O643 1.252 . S
C656 C657 1.497 . S
C657 C656 1.497 . S
C657 C658 1.395 . S
C657 C659 1.380 . S
C658 C657 1.395 . S
C658 C661 1.398 . S
C658 H668 0.930 . S
C659 C657 1.380 . S
C659 C660 1.391 . S
C659 H669 0.930 . S
C660 C659 1.391 . S
C660 C662 1.387 . S
C661 C658 1.398 . S
C661 C662 1.380 . S
C661 H670 0.930 . S
C662 C660 1.387 . S
C662 C661 1.380 . S
C662 H671 0.930 . S
C663 O640 1.254 . S
C663 O641 1.268 . S
H664 C649 0.930 . S
H665 C650 0.930 . S
H666 C652 0.930 . S
H667 C653 0.930 . S
H668 C658 0.930 . S
H669 C659 0.930 . S
H670 C661 0.930 . S
H671 C662 0.930 . S
Gd672 N703 2.661 . S
Gd672 N709 2.601 . S
Gd672 O716 2.545 . S
Gd672 O717 2.606 . S
Gd672 O719 2.429 . S
Gd672 O720 2.545 . S
Gd672 O721 2.412 . S
Gd672 O723 2.362 . S
Gd672 O724 2.324 . S
Gd672 C731 2.828 . S
Gd673 N682 2.661 . S
Gd673 N686 2.601 . S
Gd673 O717 2.362 . S
Gd673 O718 2.324 . S
Gd673 O722 2.545 . S
Gd673 O723 2.606 . S
Gd673 O725 2.429 . S
Gd673 O726 2.545 . S
Gd673 O727 2.412 . S
Gd673 C740 2.828 . S
C674 C677 1.417 . S
C674 C679 1.431 1_455 S
C674 C680 1.412 . S
C675 C678 1.437 . S
C675 C679 1.317 1_455 S
C675 H694 0.929 1_455 S
C676 C677 1.426 . S
C676 C678 1.413 . S
C676 N686 1.359 . S
C677 C674 1.417 . S
C677 C676 1.426 . S
C677 N682 1.350 . S
C678 C675 1.437 . S
C678 C676 1.413 . S
C678 C688 1.391 . S
C679 C674 1.431 1_655 S
C679 C675 1.317 1_655 S
C679 H690 0.930 . S
C680 C674 1.412 . S
C680 C681 1.355 . S
C680 H692 0.930 1_455 S
C681 C680 1.355 . S
C681 C683 1.402 . S
C681 H693 0.930 . S
N682 Gd673 2.661 . S
N682 C677 1.350 . S
N682 C683 1.307 . S
C683 C681 1.402 . S
C683 N682 1.307 . S
C683 H684 0.930 . S
H684 C683 0.930 . S
C685 N686 1.334 . S
C685 C687 1.394 . S
C685 H689 0.930 . S
N686 Gd673 2.601 . S
N686 C676 1.359 . S
N686 C685 1.334 . S
C687 C685 1.394 . S
C687 C688 1.359 . S
C687 H699 0.930 . S
C688 C678 1.391 . S
C688 C687 1.359 . S
C688 H700 0.929 . S
H689 C685 0.930 . S
H690 C679 0.930 . S
H691 C708 0.930 . S
H692 C680 0.930 1_655 S
H693 C681 0.930 . S
H694 C675 0.929 1_655 S
H695 C713 0.930 . S
H696 C704 0.930 . S
H697 C705 0.930 . S
H698 C729 0.929 1_545 S
H699 C687 0.930 . S
H700 C688 0.929 . S
H701 C730 0.930 1_545 S
H702 C711 0.930 . S
N703 Gd672 2.661 . S
N703 C707 1.350 . S
N703 C708 1.307 . S
C704 H696 0.930 . S
C704 C705 1.355 . S
C704 C706 1.412 . S
C705 H697 0.930 . S
C705 C704 1.355 . S
C705 C708 1.402 . S
C706 C704 1.412 . S
C706 C707 1.417 . S
C706 C730 1.431 . S
C707 N703 1.350 . S
C707 C706 1.417 . S
C707 C710 1.426 . S
C708 H691 0.930 . S
C708 N703 1.307 . S
C708 C705 1.402 . S
N709 Gd672 2.601 . S
N709 C710 1.359 . S
N709 C713 1.334 . S
C710 C707 1.426 . S
C710 N709 1.359 . S
C710 C714 1.413 . S
C711 H702 0.930 . S
C711 C712 1.359 . S
C711 C713 1.394 . S
C712 C711 1.359 . S
C712 C714 1.391 . S
C712 H715 0.929 . S
C713 H695 0.930 . S
C713 N709 1.334 . S
C713 C711 1.394 . S
C714 C710 1.413 . S
C714 C712 1.391 . S
C714 C729 1.437 . S
H715 C712 0.929 . S
O716 Gd672 2.545 . S
O716 C731 1.258 . S
O717 Gd672 2.606 . S
O717 Gd673 2.362 . S
O717 C728 1.284 . S
O718 Gd673 2.324 . S
O718 C738 1.254 . S
O719 Gd672 2.429 . S
O719 C738 1.268 . S
O720 Gd672 2.545 . S
O720 C728 1.250 . S
O721 Gd672 2.412 . S
O721 C731 1.252 . S
O722 Gd673 2.545 . S
O722 C740 1.258 . S
O723 Gd672 2.362 . S
O723 Gd673 2.606 . S
O723 C739 1.284 . S
O724 Gd672 2.324 . S
O724 C747 1.254 . S
O725 Gd673 2.429 . S
O725 C747 1.268 . S
O726 Gd673 2.545 . S
O726 C739 1.250 . S
O727 Gd673 2.412 . S
O727 C740 1.252 . S
C728 O717 1.284 . S
C728 O720 1.250 . S
C729 H698 0.929 1_565 S
C729 C714 1.437 . S
C729 C730 1.317 . S
C730 H701 0.930 1_565 S
C730 C706 1.431 . S
C730 C729 1.317 . S
C731 Gd672 2.828 . S
C731 O716 1.258 . S
C731 O721 1.252 . S
C731 C732 1.497 1_565 S
C732 C731 1.497 1_545 S
C732 C733 1.395 . S
C732 C734 1.380 . S
C733 C732 1.395 . S
C733 C736 1.398 . S
C733 H748 0.930 . S
C734 C732 1.380 . S
C734 C735 1.391 . S
C734 H749 0.930 . S
C735 C734 1.391 . S
C735 C737 1.387 . S
C736 C733 1.398 . S
C736 C737 1.380 . S
C736 H750 0.930 . S
C737 C735 1.387 . S
C737 C736 1.380 . S
C737 H751 0.930 . S
C738 O718 1.254 . S
C738 O719 1.268 . S
C739 O723 1.284 . S
C739 O726 1.250 . S
C740 Gd673 2.828 . S
C740 O722 1.258 . S
C740 O727 1.252 . S
C740 C741 1.497 . S
C741 C740 1.497 . S
C741 C742 1.395 . S
C741 C743 1.380 . S
C742 C741 1.395 . S
C742 C745 1.398 . S
C742 H752 0.930 . S
C743 C741 1.380 . S
C743 C744 1.391 . S
C743 H753 0.930 . S
C744 C743 1.391 . S
C744 C746 1.387 . S
C745 C742 1.398 . S
C745 C746 1.380 . S
C745 H754 0.930 . S
C746 C744 1.387 . S
C746 C745 1.380 . S
C746 H755 0.930 . S
C747 O724 1.254 . S
C747 O725 1.268 . S
H748 C733 0.930 . S
H749 C734 0.930 . S
H750 C736 0.930 . S
H751 C737 0.930 . S
H752 C742 0.930 . S
H753 C743 0.930 . S
H754 C745 0.930 . S
H755 C746 0.930 . S
Gd756 N787 2.661 . S
Gd756 N793 2.601 . S
Gd756 O800 2.545 . S
Gd756 O801 2.606 . S
Gd756 O803 2.429 . S
Gd756 O804 2.545 . S
Gd756 O805 2.412 . S
Gd756 O807 2.362 . S
Gd756 O808 2.324 . S
Gd756 C815 2.828 . S
Gd757 N766 2.661 . S
Gd757 N770 2.601 . S
Gd757 O801 2.362 . S
Gd757 O802 2.324 . S
Gd757 O806 2.545 . S
Gd757 O807 2.606 . S
Gd757 O809 2.429 . S
Gd757 O810 2.545 . S
Gd757 O811 2.412 . S
Gd757 C824 2.828 . S
C758 C761 1.417 . S
C758 C763 1.431 1_545 S
C758 C764 1.412 . S
C759 C762 1.437 . S
C759 C763 1.317 1_545 S
C759 H778 0.929 1_545 S
C760 C761 1.426 . S
C760 C762 1.413 . S
C760 N770 1.359 . S
C761 C758 1.417 . S
C761 C760 1.426 . S
C761 N766 1.350 . S
C762 C759 1.437 . S
C762 C760 1.413 . S
C762 C772 1.391 . S
C763 C758 1.431 1_565 S
C763 C759 1.317 1_565 S
C763 H774 0.930 . S
C764 C758 1.412 . S
C764 C765 1.355 . S
C764 H776 0.930 1_545 S
C765 C764 1.355 . S
C765 C767 1.402 . S
C765 H777 0.930 . S
N766 Gd757 2.661 . S
N766 C761 1.350 . S
N766 C767 1.307 . S
C767 C765 1.402 . S
C767 N766 1.307 . S
C767 H768 0.930 . S
H768 C767 0.930 . S
C769 N770 1.334 . S
C769 C771 1.394 . S
C769 H773 0.930 . S
N770 Gd757 2.601 . S
N770 C760 1.359 . S
N770 C769 1.334 . S
C771 C769 1.394 . S
C771 C772 1.359 . S
C771 H783 0.930 . S
C772 C762 1.391 . S
C772 C771 1.359 . S
C772 H784 0.929 . S
H773 C769 0.930 . S
H774 C763 0.930 . S
H775 C792 0.930 . S
H776 C764 0.930 1_565 S
H777 C765 0.930 . S
H778 C759 0.929 1_565 S
H779 C797 0.930 . S
H780 C788 0.930 . S
H781 C789 0.930 . S
H782 C813 0.929 . S
H783 C771 0.930 . S
H784 C772 0.929 . S
H785 C814 0.930 . S
H786 C795 0.930 . S
N787 Gd756 2.661 . S
N787 C791 1.350 . S
N787 C792 1.307 . S
C788 H780 0.930 . S
C788 C789 1.355 . S
C788 C790 1.412 . S
C789 H781 0.930 . S
C789 C788 1.355 . S
C789 C792 1.402 . S
C790 C788 1.412 . S
C790 C791 1.417 . S
C790 C814 1.431 . S
C791 N787 1.350 . S
C791 C790 1.417 . S
C791 C794 1.426 . S
C792 H775 0.930 . S
C792 N787 1.307 . S
C792 C789 1.402 . S
N793 Gd756 2.601 . S
N793 C794 1.359 . S
N793 C797 1.334 . S
C794 C791 1.426 . S
C794 N793 1.359 . S
C794 C798 1.413 . S
C795 H786 0.930 . S
C795 C796 1.359 . S
C795 C797 1.394 . S
C796 C795 1.359 . S
C796 C798 1.391 . S
C796 H799 0.929 . S
C797 H779 0.930 . S
C797 N793 1.334 . S
C797 C795 1.394 . S
C798 C794 1.413 . S
C798 C796 1.391 . S
C798 C813 1.437 . S
H799 C796 0.929 . S
O800 Gd756 2.545 . S
O800 C815 1.258 . S
O801 Gd756 2.606 . S
O801 Gd757 2.362 . S
O801 C812 1.284 . S
O802 Gd757 2.324 . S
O802 C822 1.254 . S
O803 Gd756 2.429 . S
O803 C822 1.268 . S
O804 Gd756 2.545 . S
O804 C812 1.250 . S
O805 Gd756 2.412 . S
O805 C815 1.252 . S
O806 Gd757 2.545 . S
O806 C824 1.258 . S
O807 Gd756 2.362 . S
O807 Gd757 2.606 . S
O807 C823 1.284 . S
O808 Gd756 2.324 . S
O808 C831 1.254 . S
O809 Gd757 2.429 . S
O809 C831 1.268 . S
O810 Gd757 2.545 . S
O810 C823 1.250 . S
O811 Gd757 2.412 . S
O811 C824 1.252 . S
C812 O801 1.284 . S
C812 O804 1.250 . S
C813 H782 0.929 . S
C813 C798 1.437 . S
C813 C814 1.317 . S
C814 H785 0.930 . S
C814 C790 1.431 . S
C814 C813 1.317 . S
C815 Gd756 2.828 . S
C815 O800 1.258 . S
C815 O805 1.252 . S
C815 C816 1.497 . S
C816 C815 1.497 . S
C816 C817 1.395 . S
C816 C818 1.380 . S
C817 C816 1.395 . S
C817 C820 1.398 . S
C817 H832 0.930 . S
C818 C816 1.380 . S
C818 C819 1.391 . S
C818 H833 0.930 . S
C819 C818 1.391 . S
C819 C821 1.387 . S
C820 C817 1.398 . S
C820 C821 1.380 . S
C820 H834 0.930 . S
C821 C819 1.387 . S
C821 C820 1.380 . S
C821 H835 0.930 . S
C822 O802 1.254 . S
C822 O803 1.268 . S
C823 O807 1.284 . S
C823 O810 1.250 . S
C824 Gd757 2.828 . S
C824 O806 1.258 . S
C824 O811 1.252 . S
C824 C825 1.497 . S
C825 C824 1.497 . S
C825 C826 1.395 . S
C825 C827 1.380 . S
C826 C825 1.395 . S
C826 C829 1.398 . S
C826 H836 0.930 . S
C827 C825 1.380 . S
C827 C828 1.391 . S
C827 H837 0.930 . S
C828 C827 1.391 . S
C828 C830 1.387 . S
C829 C826 1.398 . S
C829 C830 1.380 . S
C829 H838 0.930 . S
C830 C828 1.387 . S
C830 C829 1.380 . S
C830 H839 0.930 . S
C831 O808 1.254 . S
C831 O809 1.268 . S
H832 C817 0.930 . S
H833 C818 0.930 . S
H834 C820 0.930 . S
H835 C821 0.930 . S
H836 C826 0.930 . S
H837 C827 0.930 . S
H838 C829 0.930 . S
H839 C830 0.930 . S
Gd840 N871 2.661 . S
Gd840 N877 2.601 . S
Gd840 O884 2.545 . S
Gd840 O885 2.606 . S
Gd840 O887 2.429 . S
Gd840 O888 2.545 . S
Gd840 O889 2.412 . S
Gd840 O891 2.362 . S
Gd840 O892 2.324 . S
Gd840 C899 2.828 . S
Gd841 N850 2.661 . S
Gd841 N854 2.601 . S
Gd841 O885 2.362 . S
Gd841 O886 2.324 . S
Gd841 O890 2.545 . S
Gd841 O891 2.606 . S
Gd841 O893 2.429 . S
Gd841 O894 2.545 . S
Gd841 O895 2.412 . S
Gd841 C908 2.828 . S
C842 C845 1.417 . S
C842 C847 1.431 . S
C842 C848 1.412 . S
C843 C846 1.437 . S
C843 C847 1.317 . S
C843 H862 0.929 . S
C844 C845 1.426 . S
C844 C846 1.413 . S
C844 N854 1.359 . S
C845 C842 1.417 . S
C845 C844 1.426 . S
C845 N850 1.350 . S
C846 C843 1.437 . S
C846 C844 1.413 . S
C846 C856 1.391 . S
C847 C842 1.431 . S
C847 C843 1.317 . S
C847 H858 0.930 . S
C848 C842 1.412 . S
C848 C849 1.355 . S
C848 H860 0.930 . S
C849 C848 1.355 . S
C849 C851 1.402 . S
C849 H861 0.930 . S
N850 Gd841 2.661 . S
N850 C845 1.350 . S
N850 C851 1.307 . S
C851 C849 1.402 . S
C851 N850 1.307 . S
C851 H852 0.930 . S
H852 C851 0.930 . S
C853 N854 1.334 . S
C853 C855 1.394 . S
C853 H857 0.930 . S
N854 Gd841 2.601 . S
N854 C844 1.359 . S
N854 C853 1.334 . S
C855 C853 1.394 . S
C855 C856 1.359 . S
C855 H867 0.930 . S
C856 C846 1.391 . S
C856 C855 1.359 . S
C856 H868 0.929 . S
H857 C853 0.930 . S
H858 C847 0.930 . S
H859 C876 0.930 . S
H860 C848 0.930 . S
H861 C849 0.930 . S
H862 C843 0.929 . S
H863 C881 0.930 . S
H864 C872 0.930 . S
H865 C873 0.930 . S
H866 C897 0.929 1_655 S
H867 C855 0.930 . S
H868 C856 0.929 . S
H869 C898 0.930 1_655 S
H870 C879 0.930 . S
N871 Gd840 2.661 . S
N871 C875 1.350 . S
N871 C876 1.307 . S
C872 H864 0.930 . S
C872 C873 1.355 . S
C872 C874 1.412 . S
C873 H865 0.930 . S
C873 C872 1.355 . S
C873 C876 1.402 . S
C874 C872 1.412 . S
C874 C875 1.417 . S
C874 C898 1.431 . S
C875 N871 1.350 . S
C875 C874 1.417 . S
C875 C878 1.426 . S
C876 H859 0.930 . S
C876 N871 1.307 . S
C876 C873 1.402 . S
N877 Gd840 2.601 . S
N877 C878 1.359 . S
N877 C881 1.334 . S
C878 C875 1.426 . S
C878 N877 1.359 . S
C878 C882 1.413 . S
C879 H870 0.930 . S
C879 C880 1.359 . S
C879 C881 1.394 . S
C880 C879 1.359 . S
C880 C882 1.391 . S
C880 H883 0.929 . S
C881 H863 0.930 . S
C881 N877 1.334 . S
C881 C879 1.394 . S
C882 C878 1.413 . S
C882 C880 1.391 . S
C882 C897 1.437 . S
H883 C880 0.929 . S
O884 Gd840 2.545 . S
O884 C899 1.258 . S
O885 Gd840 2.606 . S
O885 Gd841 2.362 . S
O885 C896 1.284 . S
O886 Gd841 2.324 . S
O886 C906 1.254 . S
O887 Gd840 2.429 . S
O887 C906 1.268 . S
O888 Gd840 2.545 . S
O888 C896 1.250 . S
O889 Gd840 2.412 . S
O889 C899 1.252 . S
O890 Gd841 2.545 . S
O890 C908 1.258 . S
O891 Gd840 2.362 . S
O891 Gd841 2.606 . S
O891 C907 1.284 . S
O892 Gd840 2.324 . S
O892 C915 1.254 . S
O893 Gd841 2.429 . S
O893 C915 1.268 . S
O894 Gd841 2.545 . S
O894 C907 1.250 . S
O895 Gd841 2.412 . S
O895 C908 1.252 . S
C896 O885 1.284 . S
C896 O888 1.250 . S
C897 H866 0.929 1_455 S
C897 C882 1.437 . S
C897 C898 1.317 . S
C898 H869 0.930 1_455 S
C898 C874 1.431 . S
C898 C897 1.317 . S
C899 Gd840 2.828 . S
C899 O884 1.258 . S
C899 O889 1.252 . S
C899 C900 1.497 1_455 S
C900 C899 1.497 1_655 S
C900 C901 1.395 . S
C900 C902 1.380 . S
C901 C900 1.395 . S
C901 C904 1.398 . S
C901 H916 0.930 . S
C902 C900 1.380 . S
C902 C903 1.391 . S
C902 H917 0.930 . S
C903 C902 1.391 . S
C903 C905 1.387 . S
C904 C901 1.398 . S
C904 C905 1.380 . S
C904 H918 0.930 . S
C905 C903 1.387 . S
C905 C904 1.380 . S
C905 H919 0.930 . S
C906 O886 1.254 . S
C906 O887 1.268 . S
C907 O891 1.284 . S
C907 O894 1.250 . S
C908 Gd841 2.828 . S
C908 O890 1.258 . S
C908 O895 1.252 . S
C908 C909 1.497 . S
C909 C908 1.497 . S
C909 C910 1.395 . S
C909 C911 1.380 . S
C910 C909 1.395 . S
C910 C913 1.398 . S
C910 H920 0.930 . S
C911 C909 1.380 . S
C911 C912 1.391 . S
C911 H921 0.930 . S
C912 C911 1.391 . S
C912 C914 1.387 . S
C913 C910 1.398 . S
C913 C914 1.380 . S
C913 H922 0.930 . S
C914 C912 1.387 . S
C914 C913 1.380 . S
C914 H923 0.930 . S
C915 O892 1.254 . S
C915 O893 1.268 . S
H916 C901 0.930 . S
H917 C902 0.930 . S
H918 C904 0.930 . S
H919 C905 0.930 . S
H920 C910 0.930 . S
H921 C911 0.930 . S
H922 C913 0.930 . S
H923 C914 0.930 . S
Gd924 N955 2.661 . S
Gd924 N961 2.601 . S
Gd924 O968 2.545 . S
Gd924 O969 2.606 . S
Gd924 O971 2.429 . S
Gd924 O972 2.545 . S
Gd924 O973 2.412 . S
Gd924 O975 2.362 . S
Gd924 O976 2.324 . S
Gd924 C983 2.828 . S
Gd925 N934 2.661 . S
Gd925 N938 2.601 . S
Gd925 O969 2.362 . S
Gd925 O970 2.324 . S
Gd925 O974 2.545 . S
Gd925 O975 2.606 . S
Gd925 O977 2.429 . S
Gd925 O978 2.545 . S
Gd925 O979 2.412 . S
Gd925 C992 2.828 . S
C926 C929 1.417 . S
C926 C931 1.431 1_655 S
C926 C932 1.412 . S
C927 C930 1.437 . S
C927 C931 1.317 1_655 S
C927 H946 0.929 1_655 S
C928 C929 1.426 . S
C928 C930 1.413 . S
C928 N938 1.359 . S
C929 C926 1.417 . S
C929 C928 1.426 . S
C929 N934 1.350 . S
C930 C927 1.437 . S
C930 C928 1.413 . S
C930 C940 1.391 . S
C931 C926 1.431 1_455 S
C931 C927 1.317 1_455 S
C931 H942 0.930 . S
C932 C926 1.412 . S
C932 C933 1.355 . S
C932 H944 0.930 1_655 S
C933 C932 1.355 . S
C933 C935 1.402 . S
C933 H945 0.930 . S
N934 Gd925 2.661 . S
N934 C929 1.350 . S
N934 C935 1.307 . S
C935 C933 1.402 . S
C935 N934 1.307 . S
C935 H936 0.930 . S
H936 C935 0.930 . S
C937 N938 1.334 . S
C937 C939 1.394 . S
C937 H941 0.930 . S
N938 Gd925 2.601 . S
N938 C928 1.359 . S
N938 C937 1.334 . S
C939 C937 1.394 . S
C939 C940 1.359 . S
C939 H951 0.930 . S
C940 C930 1.391 . S
C940 C939 1.359 . S
C940 H952 0.929 . S
H941 C937 0.930 . S
H942 C931 0.930 . S
H943 C960 0.930 . S
H944 C932 0.930 1_455 S
H945 C933 0.930 . S
H946 C927 0.929 1_455 S
H947 C965 0.930 . S
H948 C956 0.930 . S
H949 C957 0.930 . S
H950 C981 0.929 1_565 S
H951 C939 0.930 . S
H952 C940 0.929 . S
H953 C982 0.930 1_565 S
H954 C963 0.930 . S
N955 Gd924 2.661 . S
N955 C959 1.350 . S
N955 C960 1.307 . S
C956 H948 0.930 . S
C956 C957 1.355 . S
C956 C958 1.412 . S
C957 H949 0.930 . S
C957 C956 1.355 . S
C957 C960 1.402 . S
C958 C956 1.412 . S
C958 C959 1.417 . S
C958 C982 1.431 . S
C959 N955 1.350 . S
C959 C958 1.417 . S
C959 C962 1.426 . S
C960 H943 0.930 . S
C960 N955 1.307 . S
C960 C957 1.402 . S
N961 Gd924 2.601 . S
N961 C962 1.359 . S
N961 C965 1.334 . S
C962 C959 1.426 . S
C962 N961 1.359 . S
C962 C966 1.413 . S
C963 H954 0.930 . S
C963 C964 1.359 . S
C963 C965 1.394 . S
C964 C963 1.359 . S
C964 C966 1.391 . S
C964 H967 0.929 . S
C965 H947 0.930 . S
C965 N961 1.334 . S
C965 C963 1.394 . S
C966 C962 1.413 . S
C966 C964 1.391 . S
C966 C981 1.437 . S
H967 C964 0.929 . S
O968 Gd924 2.545 . S
O968 C983 1.258 . S
O969 Gd924 2.606 . S
O969 Gd925 2.362 . S
O969 C980 1.284 . S
O970 Gd925 2.324 . S
O970 C990 1.254 . S
O971 Gd924 2.429 . S
O971 C990 1.268 . S
O972 Gd924 2.545 . S
O972 C980 1.250 . S
O973 Gd924 2.412 . S
O973 C983 1.252 . S
O974 Gd925 2.545 . S
O974 C992 1.258 . S
O975 Gd924 2.362 . S
O975 Gd925 2.606 . S
O975 C991 1.284 . S
O976 Gd924 2.324 . S
O976 C999 1.254 . S
O977 Gd925 2.429 . S
O977 C999 1.268 . S
O978 Gd925 2.545 . S
O978 C991 1.250 . S
O979 Gd925 2.412 . S
O979 C992 1.252 . S
C980 O969 1.284 . S
C980 O972 1.250 . S
C981 H950 0.929 1_545 S
C981 C966 1.437 . S
C981 C982 1.317 . S
C982 H953 0.930 1_545 S
C982 C958 1.431 . S
C982 C981 1.317 . S
C983 Gd924 2.828 . S
C983 O968 1.258 . S
C983 O973 1.252 . S
C983 C984 1.497 1_545 S
C984 C983 1.497 1_565 S
C984 C985 1.395 . S
C984 C986 1.380 . S
C985 C984 1.395 . S
C985 C988 1.398 . S
C985 H1000 0.930 . S
C986 C984 1.380 . S
C986 C987 1.391 . S
C986 H1001 0.930 . S
C987 C986 1.391 . S
C987 C989 1.387 . S
C988 C985 1.398 . S
C988 C989 1.380 . S
C988 H1002 0.930 . S
C989 C987 1.387 . S
C989 C988 1.380 . S
C989 H1003 0.930 . S
C990 O970 1.254 . S
C990 O971 1.268 . S
C991 O975 1.284 . S
C991 O978 1.250 . S
C992 Gd925 2.828 . S
C992 O974 1.258 . S
C992 O979 1.252 . S
C992 C993 1.497 . S
C993 C992 1.497 . S
C993 C994 1.395 . S
C993 C995 1.380 . S
C994 C993 1.395 . S
C994 C997 1.398 . S
C994 H1004 0.930 . S
C995 C993 1.380 . S
C995 C996 1.391 . S
C995 H1005 0.930 . S
C996 C995 1.391 . S
C996 C998 1.387 . S
C997 C994 1.398 . S
C997 C998 1.380 . S
C997 H1006 0.930 . S
C998 C996 1.387 . S
C998 C997 1.380 . S
C998 H1007 0.930 . S
C999 O976 1.254 . S
C999 O977 1.268 . S
H1000 C985 0.930 . S
H1001 C986 0.930 . S
H1002 C988 0.930 . S
H1003 C989 0.930 . S
H1004 C994 0.930 . S
H1005 C995 0.930 . S
H1006 C997 0.930 . S
H1007 C998 0.930 . S
C1008 C1009 1.391 . S
C1008 C1010 1.394 . S
C1008 H1024 0.931 . S
C1009 C1008 1.391 . S
C1009 C1013 1.376 . S
C1010 C1008 1.394 . S
C1010 C1011 1.369 . S
C1010 C1014 1.531 1_565 S
C1011 C1010 1.369 . S
C1011 C1012 1.410 . S
C1011 C1019 1.503 1_565 S
C1012 C1011 1.410 . S
C1012 C1013 1.392 . S
C1012 C1015 1.511 . S
C1013 C1009 1.376 . S
C1013 C1012 1.392 . S
C1013 H1025 0.929 . S
C1014 C1010 1.531 1_545 S
C1014 H1026 0.960 . S
C1014 H1027 0.962 . S
C1014 H1028 0.960 . S
C1015 C1012 1.511 . S
C1015 H1029 0.961 . S
C1015 H1030 0.961 . S
C1015 H1031 0.961 . S
C1016 C1017 1.370 . S
C1016 C1018 1.363 . S
C1016 H1032 0.931 . S
C1017 C1016 1.370 . S
C1017 C1021 1.408 . S
C1018 C1016 1.363 . S
C1018 C1019 1.370 . S
C1018 C1022 1.524 . S
C1019 C1011 1.503 1_545 S
C1019 C1018 1.370 . S
C1019 C1020 1.403 . S
C1020 C1019 1.403 . S
C1020 C1021 1.404 . S
C1020 C1023 1.539 . S
C1021 C1017 1.408 . S
C1021 C1020 1.404 . S
C1021 H1033 0.930 . S
C1022 C1018 1.524 . S
C1022 H1034 0.956 . S
C1022 H1035 0.961 . S
C1022 H1036 0.961 . S
C1023 C1020 1.539 . S
C1023 H1037 0.958 . S
C1023 H1038 0.961 . S
C1023 H1039 0.960 1_545 S
H1024 C1008 0.931 . S
H1025 C1013 0.929 . S
H1026 C1014 0.960 . S
H1027 C1014 0.962 . S
H1028 C1014 0.960 . S
H1029 C1015 0.961 . S
H1030 C1015 0.961 . S
H1031 C1015 0.961 . S
H1032 C1016 0.931 . S
H1033 C1021 0.930 . S
H1034 C1022 0.956 . S
H1035 C1022 0.961 . S
H1036 C1022 0.961 . S
H1037 C1023 0.958 . S
H1038 C1023 0.961 . S
H1039 C1023 0.960 1_565 S
C1040 C1041 1.391 . S
C1040 C1042 1.394 . S
C1040 H1056 0.931 . S
C1041 C1040 1.391 . S
C1041 C1045 1.376 . S
C1042 C1040 1.394 . S
C1042 C1043 1.369 . S
C1042 C1046 1.531 . S
C1043 C1042 1.369 . S
C1043 C1044 1.410 . S
C1043 C1051 1.503 . S
C1044 C1043 1.410 . S
C1044 C1045 1.392 . S
C1044 C1047 1.511 . S
C1045 C1041 1.376 . S
C1045 C1044 1.392 . S
C1045 H1057 0.929 . S
C1046 C1042 1.531 . S
C1046 H1058 0.960 . S
C1046 H1059 0.962 . S
C1046 H1060 0.960 . S
C1047 C1044 1.511 . S
C1047 H1061 0.961 . S
C1047 H1062 0.961 . S
C1047 H1063 0.961 . S
C1048 C1049 1.370 . S
C1048 C1050 1.363 . S
C1048 H1064 0.931 . S
C1049 C1048 1.370 . S
C1049 C1053 1.408 . S
C1050 C1048 1.363 . S
C1050 C1051 1.370 . S
C1050 C1054 1.524 . S
C1051 C1043 1.503 . S
C1051 C1050 1.370 . S
C1051 C1052 1.403 . S
C1052 C1051 1.403 . S
C1052 C1053 1.404 . S
C1052 C1055 1.539 . S
C1053 C1049 1.408 . S
C1053 C1052 1.404 . S
C1053 H1065 0.930 . S
C1054 C1050 1.524 . S
C1054 H1066 0.956 . S
C1054 H1067 0.961 . S
C1054 H1068 0.961 . S
C1055 C1052 1.539 . S
C1055 H1069 0.958 . S
C1055 H1070 0.961 . S
C1055 H1071 0.960 . S
H1056 C1040 0.931 . S
H1057 C1045 0.929 . S
H1058 C1046 0.960 . S
H1059 C1046 0.962 . S
H1060 C1046 0.960 . S
H1061 C1047 0.961 . S
H1062 C1047 0.961 . S
H1063 C1047 0.961 . S
H1064 C1048 0.931 . S
H1065 C1053 0.930 . S
H1066 C1054 0.956 . S
H1067 C1054 0.961 . S
H1068 C1054 0.961 . S
H1069 C1055 0.958 . S
H1070 C1055 0.961 . S
H1071 C1055 0.960 . S
C1072 C1073 1.391 . S
C1072 C1074 1.394 . S
C1072 H1088 0.931 . S
C1073 C1072 1.391 . S
C1073 C1077 1.376 . S
C1074 C1072 1.394 . S
C1074 C1075 1.369 . S
C1074 C1078 1.531 . S
C1075 C1074 1.369 . S
C1075 C1076 1.410 . S
C1075 C1083 1.503 1_655 S
C1076 C1075 1.410 . S
C1076 C1077 1.392 . S
C1076 C1079 1.511 . S
C1077 C1073 1.376 . S
C1077 C1076 1.392 . S
C1077 H1089 0.929 . S
C1078 C1074 1.531 . S
C1078 H1090 0.960 1_655 S
C1078 H1091 0.962 1_655 S
C1078 H1092 0.960 . S
C1079 C1076 1.511 . S
C1079 H1093 0.961 . S
C1079 H1094 0.961 . S
C1079 H1095 0.961 . S
C1080 C1081 1.370 . S
C1080 C1082 1.363 . S
C1080 H1096 0.931 . S
C1081 C1080 1.370 . S
C1081 C1085 1.408 . S
C1082 C1080 1.363 . S
C1082 C1083 1.370 . S
C1082 C1086 1.524 . S
C1083 C1075 1.503 1_455 S
C1083 C1082 1.370 . S
C1083 C1084 1.403 . S
C1084 C1083 1.403 . S
C1084 C1085 1.404 . S
C1084 C1087 1.539 . S
C1085 C1081 1.408 . S
C1085 C1084 1.404 . S
C1085 H1097 0.930 . S
C1086 C1082 1.524 . S
C1086 H1098 0.956 . S
C1086 H1099 0.961 1_455 S
C1086 H1100 0.961 . S
C1087 C1084 1.539 . S
C1087 H1101 0.958 . S
C1087 H1102 0.961 . S
C1087 H1103 0.959 1_455 S
H1088 C1072 0.931 . S
H1089 C1077 0.929 . S
H1090 C1078 0.960 1_455 S
H1091 C1078 0.962 1_455 S
H1092 C1078 0.960 . S
H1093 C1079 0.961 . S
H1094 C1079 0.961 . S
H1095 C1079 0.961 . S
H1096 C1080 0.931 . S
H1097 C1085 0.930 . S
H1098 C1086 0.956 . S
H1099 C1086 0.961 1_655 S
H1100 C1086 0.961 . S
H1101 C1087 0.958 . S
H1102 C1087 0.961 . S
H1103 C1087 0.959 1_655 S
C1104 C1105 1.391 . S
C1104 C1106 1.394 . S
C1104 H1120 0.931 . S
C1105 C1104 1.391 . S
C1105 C1109 1.376 . S
C1106 C1104 1.394 . S
C1106 C1107 1.369 . S
C1106 C1110 1.531 . S
C1107 C1106 1.369 . S
C1107 C1108 1.410 . S
C1107 C1115 1.503 1_565 S
C1108 C1107 1.410 . S
C1108 C1109 1.392 . S
C1108 C1111 1.511 . S
C1109 C1105 1.376 . S
C1109 C1108 1.392 . S
C1109 H1121 0.929 . S
C1110 C1106 1.531 . S
C1110 H1122 0.960 . S
C1110 H1123 0.962 . S
C1110 H1124 0.960 . S
C1111 C1108 1.511 . S
C1111 H1125 0.961 . S
C1111 H1126 0.961 . S
C1111 H1127 0.961 . S
C1112 C1113 1.370 . S
C1112 C1114 1.363 . S
C1112 H1128 0.931 . S
C1113 C1112 1.370 . S
C1113 C1117 1.408 . S
C1114 C1112 1.363 . S
C1114 C1115 1.370 . S
C1114 C1118 1.524 . S
C1115 C1107 1.503 1_545 S
C1115 C1114 1.370 . S
C1115 C1116 1.403 . S
C1116 C1115 1.403 . S
C1116 C1117 1.404 . S
C1116 C1119 1.539 1_545 S
C1117 C1113 1.408 . S
C1117 C1116 1.404 . S
C1117 H1129 0.930 . S
C1118 C1114 1.524 . S
C1118 H1130 0.956 . S
C1118 H1131 0.961 . S
C1118 H1132 0.961 . S
C1119 C1116 1.539 1_565 S
C1119 H1133 0.958 . S
C1119 H1134 0.961 . S
C1119 H1135 0.960 . S
H1120 C1104 0.931 . S
H1121 C1109 0.929 . S
H1122 C1110 0.960 . S
H1123 C1110 0.962 . S
H1124 C1110 0.960 . S
H1125 C1111 0.961 . S
H1126 C1111 0.961 . S
H1127 C1111 0.961 . S
H1128 C1112 0.931 . S
H1129 C1117 0.930 . S
H1130 C1118 0.956 . S
H1131 C1118 0.961 . S
H1132 C1118 0.961 . S
H1133 C1119 0.958 . S
H1134 C1119 0.961 . S
H1135 C1119 0.960 . S
C1136 C1137 1.391 . S
C1136 C1138 1.394 . S
C1136 H1152 0.931 . S
C1137 C1136 1.391 . S
C1137 C1141 1.376 . S
C1138 C1136 1.394 . S
C1138 C1139 1.369 . S
C1138 C1142 1.531 . S
C1139 C1138 1.369 . S
C1139 C1140 1.410 . S
C1139 C1147 1.503 . S
C1140 C1139 1.410 . S
C1140 C1141 1.392 . S
C1140 C1143 1.511 . S
C1141 C1137 1.376 . S
C1141 C1140 1.392 . S
C1141 H1153 0.929 . S
C1142 C1138 1.531 . S
C1142 H1154 0.960 . S
C1142 H1155 0.962 . S
C1142 H1156 0.960 . S
C1143 C1140 1.511 . S
C1143 H1157 0.961 . S
C1143 H1158 0.961 . S
C1143 H1159 0.961 . S
C1144 C1145 1.370 . S
C1144 C1146 1.363 . S
C1144 H1160 0.931 . S
C1145 C1144 1.370 . S
C1145 C1149 1.408 . S
C1146 C1144 1.363 . S
C1146 C1147 1.370 . S
C1146 C1150 1.524 . S
C1147 C1139 1.503 . S
C1147 C1146 1.370 . S
C1147 C1148 1.403 . S
C1148 C1147 1.403 . S
C1148 C1149 1.404 . S
C1148 C1151 1.539 . S
C1149 C1145 1.408 . S
C1149 C1148 1.404 . S
C1149 H1161 0.930 . S
C1150 C1146 1.524 . S
C1150 H1162 0.956 . S
C1150 H1163 0.961 . S
C1150 H1164 0.961 . S
C1151 C1148 1.539 . S
C1151 H1165 0.958 . S
C1151 H1166 0.961 . S
C1151 H1167 0.960 . S
H1152 C1136 0.931 . S
H1153 C1141 0.929 . S
H1154 C1142 0.960 . S
H1155 C1142 0.962 . S
H1156 C1142 0.960 . S
H1157 C1143 0.961 . S
H1158 C1143 0.961 . S
H1159 C1143 0.961 . S
H1160 C1144 0.931 . S
H1161 C1149 0.930 . S
H1162 C1150 0.956 . S
H1163 C1150 0.961 . S
H1164 C1150 0.961 . S
H1165 C1151 0.958 . S
H1166 C1151 0.961 . S
H1167 C1151 0.960 . S
C1168 C1169 1.391 . S
C1168 C1170 1.394 . S
C1168 H1184 0.931 . S
C1169 C1168 1.391 . S
C1169 C1173 1.376 . S
C1170 C1168 1.394 . S
C1170 C1171 1.369 . S
C1170 C1174 1.531 . S
C1171 C1170 1.369 . S
C1171 C1172 1.410 . S
C1171 C1179 1.503 1_655 S
C1172 C1171 1.410 . S
C1172 C1173 1.392 . S
C1172 C1175 1.511 1_655 S
C1173 C1169 1.376 . S
C1173 C1172 1.392 . S
C1173 H1185 0.929 . S
C1174 C1170 1.531 . S
C1174 H1186 0.960 . S
C1174 H1187 0.962 . S
C1174 H1188 0.960 . S
C1175 C1172 1.511 1_455 S
C1175 H1189 0.961 . S
C1175 H1190 0.961 . S
C1175 H1191 0.961 . S
C1176 C1177 1.370 . S
C1176 C1178 1.363 . S
C1176 H1192 0.931 . S
C1177 C1176 1.370 . S
C1177 C1181 1.408 . S
C1178 C1176 1.363 . S
C1178 C1179 1.370 . S
C1178 C1182 1.524 . S
C1179 C1171 1.503 1_455 S
C1179 C1178 1.370 . S
C1179 C1180 1.403 . S
C1180 C1179 1.403 . S
C1180 C1181 1.404 . S
C1180 C1183 1.539 . S
C1181 C1177 1.408 . S
C1181 C1180 1.404 . S
C1181 H1193 0.930 . S
C1182 C1178 1.524 . S
C1182 H1194 0.956 1_455 S
C1182 H1195 0.961 . S
C1182 H1196 0.961 . S
C1183 C1180 1.539 . S
C1183 H1197 0.958 . S
C1183 H1198 0.961 . S
C1183 H1199 0.960 . S
H1184 C1168 0.931 . S
H1185 C1173 0.929 . S
H1186 C1174 0.960 . S
H1187 C1174 0.962 . S
H1188 C1174 0.960 . S
H1189 C1175 0.961 . S
H1190 C1175 0.961 . S
H1191 C1175 0.961 . S
H1192 C1176 0.931 . S
H1193 C1181 0.930 . S
H1194 C1182 0.956 1_655 S
H1195 C1182 0.961 . S
H1196 C1182 0.961 . S
H1197 C1183 0.958 . S
H1198 C1183 0.961 . S
H1199 C1183 0.960 . S
C1200 C1201 1.391 . S
C1200 C1202 1.394 . S
C1200 H1216 0.931 . S
C1201 C1200 1.391 . S
C1201 C1205 1.376 . S
C1202 C1200 1.394 . S
C1202 C1203 1.369 . S
C1202 C1206 1.531 1_455 S
C1203 C1202 1.369 . S
C1203 C1204 1.410 . S
C1203 C1211 1.503 1_455 S
C1204 C1203 1.410 . S
C1204 C1205 1.392 . S
C1204 C1207 1.511 . S
C1205 C1201 1.376 . S
C1205 C1204 1.392 . S
C1205 H1217 0.929 . S
C1206 C1202 1.531 1_655 S
C1206 H1218 0.960 . S
C1206 H1219 0.962 . S
C1206 H1220 0.960 . S
C1207 C1204 1.511 . S
C1207 H1221 0.961 . S
C1207 H1222 0.961 . S
C1207 H1223 0.961 . S
C1208 C1209 1.370 . S
C1208 C1210 1.363 . S
C1208 H1224 0.931 . S
C1209 C1208 1.370 . S
C1209 C1213 1.408 . S
C1210 C1208 1.363 . S
C1210 C1211 1.370 . S
C1210 C1214 1.524 . S
C1211 C1203 1.503 1_655 S
C1211 C1210 1.370 . S
C1211 C1212 1.403 . S
C1212 C1211 1.403 . S
C1212 C1213 1.404 . S
C1212 C1215 1.539 . S
C1213 C1209 1.408 . S
C1213 C1212 1.404 . S
C1213 H1225 0.930 . S
C1214 C1210 1.524 . S
C1214 H1226 0.956 . S
C1214 H1227 0.961 1_655 S
C1214 H1228 0.961 . S
C1215 C1212 1.539 . S
C1215 H1229 0.958 . S
C1215 H1230 0.961 . S
C1215 H1231 0.960 . S
H1216 C1200 0.931 . S
H1217 C1205 0.929 . S
H1218 C1206 0.960 . S
H1219 C1206 0.962 . S
H1220 C1206 0.960 . S
H1221 C1207 0.961 . S
H1222 C1207 0.961 . S
H1223 C1207 0.961 . S
H1224 C1208 0.931 . S
H1225 C1213 0.930 . S
H1226 C1214 0.956 . S
H1227 C1214 0.961 1_455 S
H1228 C1214 0.961 . S
H1229 C1215 0.958 . S
H1230 C1215 0.961 . S
H1231 C1215 0.960 . S
C1232 C1233 1.391 . S
C1232 C1234 1.394 . S
C1232 H1248 0.931 . S
C1233 C1232 1.391 . S
C1233 C1237 1.376 . S
C1234 C1232 1.394 . S
C1234 C1235 1.369 . S
C1234 C1238 1.531 . S
C1235 C1234 1.369 . S
C1235 C1236 1.410 . S
C1235 C1243 1.503 1_565 S
C1236 C1235 1.410 . S
C1236 C1237 1.392 . S
C1236 C1239 1.511 . S
C1237 C1233 1.376 . S
C1237 C1236 1.392 . S
C1237 H1249 0.929 . S
C1238 C1234 1.531 . S
C1238 H1250 0.960 . S
C1238 H1251 0.962 . S
C1238 H1252 0.960 . S
C1239 C1236 1.511 . S
C1239 H1253 0.961 . S
C1239 H1254 0.961 1_565 S
C1239 H1255 0.961 1_565 S
C1240 C1241 1.370 . S
C1240 C1242 1.363 . S
C1240 H1256 0.931 . S
C1241 C1240 1.370 . S
C1241 C1245 1.408 . S
C1242 C1240 1.363 . S
C1242 C1243 1.370 . S
C1242 C1246 1.524 1_545 S
C1243 C1235 1.503 1_545 S
C1243 C1242 1.370 . S
C1243 C1244 1.403 . S
C1244 C1243 1.403 . S
C1244 C1245 1.404 . S
C1244 C1247 1.539 . S
C1245 C1241 1.408 . S
C1245 C1244 1.404 . S
C1245 H1257 0.930 . S
C1246 C1242 1.524 1_565 S
C1246 H1258 0.956 . S
C1246 H1259 0.961 . S
C1246 H1260 0.961 . S
C1247 C1244 1.539 . S
C1247 H1261 0.958 . S
C1247 H1262 0.961 . S
C1247 H1263 0.960 . S
H1248 C1232 0.931 . S
H1249 C1237 0.929 . S
H1250 C1238 0.960 . S
H1251 C1238 0.962 . S
H1252 C1238 0.960 . S
H1253 C1239 0.961 . S
H1254 C1239 0.961 1_545 S
H1255 C1239 0.961 1_545 S
H1256 C1240 0.931 . S
H1257 C1245 0.930 . S
H1258 C1246 0.956 . S
H1259 C1246 0.961 . S
H1260 C1246 0.961 . S
H1261 C1247 0.958 . S
H1262 C1247 0.961 . S
H1263 C1247 0.960 . S
C1264 C1265 1.391 . S
C1264 C1266 1.394 . S
C1264 H1280 0.931 . S
C1265 C1264 1.391 . S
C1265 C1269 1.376 . S
C1266 C1264 1.394 . S
C1266 C1267 1.369 . S
C1266 C1270 1.531 . S
C1267 C1266 1.369 . S
C1267 C1268 1.410 . S
C1267 C1275 1.503 . S
C1268 C1267 1.410 . S
C1268 C1269 1.392 . S
C1268 C1271 1.511 . S
C1269 C1265 1.376 . S
C1269 C1268 1.392 . S
C1269 H1281 0.929 . S
C1270 C1266 1.531 . S
C1270 H1282 0.960 . S
C1270 H1283 0.962 . S
C1270 H1284 0.960 . S
C1271 C1268 1.511 . S
C1271 H1285 0.961 . S
C1271 H1286 0.961 . S
C1271 H1287 0.961 . S
C1272 C1273 1.370 . S
C1272 C1274 1.363 . S
C1272 H1288 0.931 . S
C1273 C1272 1.370 . S
C1273 C1277 1.408 . S
C1274 C1272 1.363 . S
C1274 C1275 1.370 . S
C1274 C1278 1.524 . S
C1275 C1267 1.503 . S
C1275 C1274 1.370 . S
C1275 C1276 1.403 . S
C1276 C1275 1.403 . S
C1276 C1277 1.404 . S
C1276 C1279 1.539 . S
C1277 C1273 1.408 . S
C1277 C1276 1.404 . S
C1277 H1289 0.930 . S
C1278 C1274 1.524 . S
C1278 H1290 0.956 . S
C1278 H1291 0.961 . S
C1278 H1292 0.961 . S
C1279 C1276 1.539 . S
C1279 H1293 0.958 . S
C1279 H1294 0.961 . S
C1279 H1295 0.960 . S
H1280 C1264 0.931 . S
H1281 C1269 0.929 . S
H1282 C1270 0.960 . S
H1283 C1270 0.962 . S
H1284 C1270 0.960 . S
H1285 C1271 0.961 . S
H1286 C1271 0.961 . S
H1287 C1271 0.961 . S
H1288 C1272 0.931 . S
H1289 C1277 0.930 . S
H1290 C1278 0.956 . S
H1291 C1278 0.961 . S
H1292 C1278 0.961 . S
H1293 C1279 0.958 . S
H1294 C1279 0.961 . S
H1295 C1279 0.960 . S
C1296 C1297 1.391 . S
C1296 C1298 1.394 . S
C1296 H1312 0.931 . S
C1297 C1296 1.391 . S
C1297 C1301 1.376 . S
C1298 C1296 1.394 . S
C1298 C1299 1.369 . S
C1298 C1302 1.531 . S
C1299 C1298 1.369 . S
C1299 C1300 1.410 . S
C1299 C1307 1.503 1_455 S
C1300 C1299 1.410 . S
C1300 C1301 1.392 . S
C1300 C1303 1.511 . S
C1301 C1297 1.376 . S
C1301 C1300 1.392 . S
C1301 H1313 0.929 . S
C1302 C1298 1.531 . S
C1302 H1314 0.960 . S
C1302 H1315 0.962 . S
C1302 H1316 0.960 . S
C1303 C1300 1.511 . S
C1303 H1317 0.961 . S
C1303 H1318 0.961 1_455 S
C1303 H1319 0.961 1_455 S
C1304 C1305 1.370 . S
C1304 C1306 1.363 . S
C1304 H1320 0.931 . S
C1305 C1304 1.370 . S
C1305 C1309 1.408 . S
C1306 C1304 1.363 . S
C1306 C1307 1.370 . S
C1306 C1310 1.511 1_655 S
C1307 C1299 1.503 1_655 S
C1307 C1306 1.370 . S
C1307 C1308 1.403 . S
C1308 C1307 1.403 . S
C1308 C1309 1.404 . S
C1308 C1311 1.539 . S
C1309 C1305 1.408 . S
C1309 C1308 1.404 . S
C1309 H1321 0.930 . S
C1310 C1306 1.511 1_455 S
C1310 H1322 0.965 . S
C1310 H1323 0.979 . S
C1310 H1324 0.947 1_455 S
C1311 C1308 1.539 . S
C1311 H1325 0.958 . S
C1311 H1326 0.961 . S
C1311 H1327 0.960 . S
H1312 C1296 0.931 . S
H1313 C1301 0.929 . S
H1314 C1302 0.960 . S
H1315 C1302 0.962 . S
H1316 C1302 0.960 . S
H1317 C1303 0.961 . S
H1318 C1303 0.961 1_655 S
H1319 C1303 0.961 1_655 S
H1320 C1304 0.931 . S
H1321 C1309 0.930 . S
H1322 C1310 0.965 . S
H1323 C1310 0.979 . S
H1324 C1310 0.947 1_655 S
H1325 C1311 0.958 . S
H1326 C1311 0.961 . S
H1327 C1311 0.960 . S
C1328 C1329 1.391 . S
C1328 C1330 1.394 . S
C1328 H1344 0.931 . S
C1329 C1328 1.391 . S
C1329 C1333 1.376 . S
C1330 C1328 1.394 . S
C1330 C1331 1.369 . S
C1330 C1334 1.531 . S
C1331 C1330 1.369 . S
C1331 C1332 1.410 . S
C1331 C1339 1.503 1_545 S
C1332 C1331 1.410 . S
C1332 C1333 1.392 . S
C1332 C1335 1.511 . S
C1333 C1329 1.376 . S
C1333 C1332 1.392 . S
C1333 H1345 0.929 . S
C1334 C1330 1.531 . S
C1334 H1346 0.960 . S
C1334 H1347 0.962 . S
C1334 H1348 0.960 . S
C1335 C1332 1.511 . S
C1335 H1349 0.961 . S
C1335 H1350 0.961 . S
C1335 H1351 0.961 . S
C1336 C1337 1.370 . S
C1336 C1338 1.363 . S
C1336 H1352 0.931 . S
C1337 C1336 1.370 . S
C1337 C1341 1.408 . S
C1338 C1336 1.363 . S
C1338 C1339 1.370 . S
C1338 C1342 1.524 . S
C1339 C1331 1.503 1_565 S
C1339 C1338 1.370 . S
C1339 C1340 1.403 . S
C1340 C1339 1.403 . S
C1340 C1341 1.404 . S
C1340 C1343 1.539 1_565 S
C1341 C1337 1.408 . S
C1341 C1340 1.404 . S
C1341 H1353 0.930 . S
C1342 C1338 1.524 . S
C1342 H1354 0.956 . S
C1342 H1355 0.961 . S
C1342 H1356 0.961 . S
C1343 C1340 1.539 1_545 S
C1343 H1357 0.958 . S
C1343 H1358 0.961 . S
C1343 H1359 0.960 . S
H1344 C1328 0.931 . S
H1345 C1333 0.929 . S
H1346 C1334 0.960 . S
H1347 C1334 0.962 . S
H1348 C1334 0.960 . S
H1349 C1335 0.961 . S
H1350 C1335 0.961 . S
H1351 C1335 0.961 . S
H1352 C1336 0.931 . S
H1353 C1341 0.930 . S
H1354 C1342 0.956 . S
H1355 C1342 0.961 . S
H1356 C1342 0.961 . S
H1357 C1343 0.958 . S
H1358 C1343 0.961 . S
H1359 C1343 0.960 . S
C1360 C1361 1.391 . S
C1360 C1362 1.394 . S
C1360 H1376 0.931 . S
C1361 C1360 1.391 . S
C1361 C1365 1.376 . S
C1362 C1360 1.394 . S
C1362 C1363 1.369 . S
C1362 C1366 1.531 . S
C1363 C1362 1.369 . S
C1363 C1364 1.410 . S
C1363 C1371 1.503 . S
C1364 C1363 1.410 . S
C1364 C1365 1.392 . S
C1364 C1367 1.511 . S
C1365 C1361 1.376 . S
C1365 C1364 1.392 . S
C1365 H1377 0.929 . S
C1366 C1362 1.531 . S
C1366 H1378 0.960 . S
C1366 H1379 0.962 . S
C1366 H1380 0.960 . S
C1367 C1364 1.511 . S
C1367 H1381 0.961 . S
C1367 H1382 0.961 . S
C1367 H1383 0.961 . S
C1368 C1369 1.370 . S
C1368 C1370 1.363 . S
C1368 H1384 0.931 . S
C1369 C1368 1.370 . S
C1369 C1373 1.408 . S
C1370 C1368 1.363 . S
C1370 C1371 1.370 . S
C1370 C1374 1.524 . S
C1371 C1363 1.503 . S
C1371 C1370 1.370 . S
C1371 C1372 1.403 . S
C1372 C1371 1.403 . S
C1372 C1373 1.404 . S
C1372 C1375 1.539 . S
C1373 C1369 1.408 . S
C1373 C1372 1.404 . S
C1373 H1385 0.930 . S
C1374 C1370 1.524 . S
C1374 H1386 0.956 . S
C1374 H1387 0.961 . S
C1374 H1388 0.961 . S
C1375 C1372 1.539 . S
C1375 H1389 0.958 . S
C1375 H1390 0.961 . S
C1375 H1391 0.960 . S
H1376 C1360 0.931 . S
H1377 C1365 0.929 . S
H1378 C1366 0.960 . S
H1379 C1366 0.962 . S
H1380 C1366 0.960 . S
H1381 C1367 0.961 . S
H1382 C1367 0.961 . S
H1383 C1367 0.961 . S
H1384 C1368 0.931 . S
H1385 C1373 0.930 . S
H1386 C1374 0.956 . S
H1387 C1374 0.961 . S
H1388 C1374 0.961 . S
H1389 C1375 0.958 . S
H1390 C1375 0.961 . S
H1391 C1375 0.960 . S
C1392 C1393 1.391 . S
C1392 C1394 1.394 . S
C1392 H1408 0.931 . S
C1393 C1392 1.391 . S
C1393 C1397 1.376 . S
C1394 C1392 1.394 . S
C1394 C1395 1.369 . S
C1394 C1398 1.531 . S
C1395 C1394 1.369 . S
C1395 C1396 1.410 . S
C1395 C1403 1.503 . S
C1396 C1395 1.410 . S
C1396 C1397 1.392 . S
C1396 C1399 1.511 . S
C1397 C1393 1.376 . S
C1397 C1396 1.392 . S
C1397 H1409 0.929 . S
C1398 C1394 1.531 . S
C1398 H1410 0.960 . S
C1398 H1411 0.962 . S
C1398 H1412 0.960 . S
C1399 C1396 1.511 . S
C1399 H1413 0.961 . S
C1399 H1414 0.961 . S
C1399 H1415 0.961 . S
C1400 C1401 1.370 . S
C1400 C1402 1.363 . S
C1400 H1416 0.931 . S
C1401 C1400 1.370 . S
C1401 C1405 1.408 . S
C1402 C1400 1.363 . S
C1402 C1403 1.370 . S
C1402 C1406 1.524 . S
C1403 C1395 1.503 . S
C1403 C1402 1.370 . S
C1403 C1404 1.403 . S
C1404 C1403 1.403 . S
C1404 C1405 1.404 . S
C1404 C1407 1.539 . S
C1405 C1401 1.408 . S
C1405 C1404 1.404 . S
C1405 H1417 0.930 . S
C1406 C1402 1.524 . S
C1406 H1418 0.956 . S
C1406 H1419 0.961 . S
C1406 H1420 0.961 . S
C1407 C1404 1.539 . S
C1407 H1421 0.958 . S
C1407 H1422 0.961 . S
C1407 H1423 0.960 . S
H1408 C1392 0.931 . S
H1409 C1397 0.929 . S
H1410 C1398 0.960 . S
H1411 C1398 0.962 . S
H1412 C1398 0.960 . S
H1413 C1399 0.961 . S
H1414 C1399 0.961 . S
H1415 C1399 0.961 . S
H1416 C1400 0.931 . S
H1417 C1405 0.930 . S
H1418 C1406 0.956 . S
H1419 C1406 0.961 . S
H1420 C1406 0.961 . S
H1421 C1407 0.958 . S
H1422 C1407 0.961 . S
H1423 C1407 0.960 . S
C1424 C1425 1.391 . S
C1424 C1426 1.394 . S
C1424 H1440 0.931 . S
C1425 C1424 1.391 . S
C1425 C1429 1.376 . S
C1426 C1424 1.394 . S
C1426 C1427 1.369 . S
C1426 C1430 1.531 . S
C1427 C1426 1.369 . S
C1427 C1428 1.410 . S
C1427 C1435 1.503 . S
C1428 C1427 1.410 . S
C1428 C1429 1.392 . S
C1428 C1431 1.511 . S
C1429 C1425 1.376 . S
C1429 C1428 1.392 . S
C1429 H1441 0.929 . S
C1430 C1426 1.531 . S
C1430 H1442 0.960 . S
C1430 H1443 0.962 . S
C1430 H1444 0.960 . S
C1431 C1428 1.511 . S
C1431 H1445 0.961 . S
C1431 H1446 0.961 . S
C1431 H1447 0.961 . S
C1432 C1433 1.370 . S
C1432 C1434 1.363 . S
C1432 H1448 0.931 . S
C1433 C1432 1.370 . S
C1433 C1437 1.408 . S
C1434 C1432 1.363 . S
C1434 C1435 1.370 . S
C1434 C1438 1.524 . S
C1435 C1427 1.503 . S
C1435 C1434 1.370 . S
C1435 C1436 1.403 . S
C1436 C1435 1.403 . S
C1436 C1437 1.404 . S
C1436 C1439 1.539 . S
C1437 C1433 1.408 . S
C1437 C1436 1.404 . S
C1437 H1449 0.930 . S
C1438 C1434 1.524 . S
C1438 H1450 0.956 . S
C1438 H1451 0.961 . S
C1438 H1452 0.961 . S
C1439 C1436 1.539 . S
C1439 H1453 0.958 . S
C1439 H1454 0.961 . S
C1439 H1455 0.960 . S
H1440 C1424 0.931 . S
H1441 C1429 0.929 . S
H1442 C1430 0.960 . S
H1443 C1430 0.962 . S
H1444 C1430 0.960 . S
H1445 C1431 0.961 . S
H1446 C1431 0.961 . S
H1447 C1431 0.961 . S
H1448 C1432 0.931 . S
H1449 C1437 0.930 . S
H1450 C1438 0.956 . S
H1451 C1438 0.961 . S
H1452 C1438 0.961 . S
H1453 C1439 0.958 . S
H1454 C1439 0.961 . S
H1455 C1439 0.960 . S
C1456 C1457 1.391 . S
C1456 C1458 1.394 . S
C1456 H1472 0.931 . S
C1457 C1456 1.391 . S
C1457 C1461 1.376 . S
C1458 C1456 1.394 . S
C1458 C1459 1.369 . S
C1458 C1462 1.531 . S
C1459 C1458 1.369 . S
C1459 C1460 1.410 . S
C1459 C1467 1.503 . S
C1460 C1459 1.410 . S
C1460 C1461 1.392 . S
C1460 C1463 1.511 . S
C1461 C1457 1.376 . S
C1461 C1460 1.392 . S
C1461 H1473 0.929 . S
C1462 C1458 1.531 . S
C1462 H1474 0.960 . S
C1462 H1475 0.962 . S
C1462 H1476 0.960 . S
C1463 C1460 1.511 . S
C1463 H1477 0.961 . S
C1463 H1478 0.961 . S
C1463 H1479 0.961 . S
C1464 C1465 1.370 . S
C1464 C1466 1.363 . S
C1464 H1480 0.931 . S
C1465 C1464 1.370 . S
C1465 C1469 1.408 . S
C1466 C1464 1.363 . S
C1466 C1467 1.370 . S
C1466 C1470 1.524 . S
C1467 C1459 1.503 . S
C1467 C1466 1.370 . S
C1467 C1468 1.403 . S
C1468 C1467 1.403 . S
C1468 C1469 1.404 . S
C1468 C1471 1.539 . S
C1469 C1465 1.408 . S
C1469 C1468 1.404 . S
C1469 H1481 0.930 . S
C1470 C1466 1.524 . S
C1470 H1482 0.956 . S
C1470 H1483 0.961 . S
C1470 H1484 0.961 . S
C1471 C1468 1.539 . S
C1471 H1485 0.958 . S
C1471 H1486 0.961 . S
C1471 H1487 0.960 . S
H1472 C1456 0.931 . S
H1473 C1461 0.929 . S
H1474 C1462 0.960 . S
H1475 C1462 0.962 . S
H1476 C1462 0.960 . S
H1477 C1463 0.961 . S
H1478 C1463 0.961 . S
H1479 C1463 0.961 . S
H1480 C1464 0.931 . S
H1481 C1469 0.930 . S
H1482 C1470 0.956 . S
H1483 C1470 0.961 . S
H1484 C1470 0.961 . S
H1485 C1471 0.958 . S
H1486 C1471 0.961 . S
H1487 C1471 0.960 . S
C1488 C1489 1.391 . S
C1488 C1490 1.394 . S
C1488 H1504 0.931 . S
C1489 C1488 1.391 . S
C1489 C1493 1.376 . S
C1490 C1488 1.394 . S
C1490 C1491 1.369 . S
C1490 C1494 1.531 . S
C1491 C1490 1.369 . S
C1491 C1492 1.410 . S
C1491 C1499 1.503 . S
C1492 C1491 1.410 . S
C1492 C1493 1.392 . S
C1492 C1495 1.511 . S
C1493 C1489 1.376 . S
C1493 C1492 1.392 . S
C1493 H1505 0.929 . S
C1494 C1490 1.531 . S
C1494 H1506 0.960 . S
C1494 H1507 0.962 . S
C1494 H1508 0.960 . S
C1495 C1492 1.511 . S
C1495 H1509 0.961 . S
C1495 H1510 0.961 . S
C1495 H1511 0.961 . S
C1496 C1497 1.370 . S
C1496 C1498 1.363 . S
C1496 H1512 0.931 . S
C1497 C1496 1.370 . S
C1497 C1501 1.408 . S
C1498 C1496 1.363 . S
C1498 C1499 1.370 . S
C1498 C1502 1.524 . S
C1499 C1491 1.503 . S
C1499 C1498 1.370 . S
C1499 C1500 1.403 . S
C1500 C1499 1.403 . S
C1500 C1501 1.404 . S
C1500 C1503 1.539 . S
C1501 C1497 1.408 . S
C1501 C1500 1.404 . S
C1501 H1513 0.930 . S
C1502 C1498 1.524 . S
C1502 H1514 0.956 . S
C1502 H1515 0.961 . S
C1502 H1516 0.961 . S
C1503 C1500 1.539 . S
C1503 H1517 0.958 . S
C1503 H1518 0.961 . S
C1503 H1519 0.960 . S
H1504 C1488 0.931 . S
H1505 C1493 0.929 . S
H1506 C1494 0.960 . S
H1507 C1494 0.962 . S
H1508 C1494 0.960 . S
H1509 C1495 0.961 . S
H1510 C1495 0.961 . S
H1511 C1495 0.961 . S
H1512 C1496 0.931 . S
H1513 C1501 0.930 . S
H1514 C1502 0.956 . S
H1515 C1502 0.961 . S
H1516 C1502 0.961 . S
H1517 C1503 0.958 . S
H1518 C1503 0.961 . S
H1519 C1503 0.960 . S
C1520 C1521 1.391 . S
C1520 C1522 1.394 . S
C1520 H1536 0.931 . S
C1521 C1520 1.391 . S
C1521 C1525 1.376 . S
C1522 C1520 1.394 . S
C1522 C1523 1.369 . S
C1522 C1526 1.531 . S
C1523 C1522 1.369 . S
C1523 C1524 1.410 . S
C1523 C1531 1.503 . S
C1524 C1523 1.410 . S
C1524 C1525 1.392 . S
C1524 C1527 1.511 . S
C1525 C1521 1.376 . S
C1525 C1524 1.392 . S
C1525 H1537 0.929 . S
C1526 C1522 1.531 . S
C1526 H1538 0.960 . S
C1526 H1539 0.962 . S
C1526 H1540 0.960 . S
C1527 C1524 1.511 . S
C1527 H1541 0.961 . S
C1527 H1542 0.961 . S
C1527 H1543 0.961 . S
C1528 C1529 1.370 . S
C1528 C1530 1.363 . S
C1528 H1544 0.931 . S
C1529 C1528 1.370 . S
C1529 C1533 1.408 . S
C1530 C1528 1.363 . S
C1530 C1531 1.370 . S
C1530 C1534 1.524 . S
C1531 C1523 1.503 . S
C1531 C1530 1.370 . S
C1531 C1532 1.403 . S
C1532 C1531 1.403 . S
C1532 C1533 1.404 . S
C1532 C1535 1.539 . S
C1533 C1529 1.408 . S
C1533 C1532 1.404 . S
C1533 H1545 0.930 . S
C1534 C1530 1.524 . S
C1534 H1546 0.956 . S
C1534 H1547 0.961 . S
C1534 H1548 0.961 . S
C1535 C1532 1.539 . S
C1535 H1549 0.958 . S
C1535 H1550 0.961 . S
C1535 H1551 0.960 . S
H1536 C1520 0.931 . S
H1537 C1525 0.929 . S
H1538 C1526 0.960 . S
H1539 C1526 0.962 . S
H1540 C1526 0.960 . S
H1541 C1527 0.961 . S
H1542 C1527 0.961 . S
H1543 C1527 0.961 . S
H1544 C1528 0.931 . S
H1545 C1533 0.930 . S
H1546 C1534 0.956 . S
H1547 C1534 0.961 . S
H1548 C1534 0.961 . S
H1549 C1535 0.958 . S
H1550 C1535 0.961 . S
H1551 C1535 0.960 . S
C1552 C1553 1.391 . S
C1552 C1554 1.394 . S
C1552 H1568 0.931 . S
C1553 C1552 1.391 . S
C1553 C1557 1.376 . S
C1554 C1552 1.394 . S
C1554 C1555 1.369 . S
C1554 C1558 1.531 . S
C1555 C1554 1.369 . S
C1555 C1556 1.410 . S
C1555 C1563 1.503 . S
C1556 C1555 1.410 . S
C1556 C1557 1.392 . S
C1556 C1559 1.511 . S
C1557 C1553 1.376 . S
C1557 C1556 1.392 . S
C1557 H1569 0.929 . S
C1558 C1554 1.531 . S
C1558 H1570 0.960 . S
C1558 H1571 0.962 . S
C1558 H1572 0.960 . S
C1559 C1556 1.511 . S
C1559 H1573 0.961 . S
C1559 H1574 0.961 . S
C1559 H1575 0.961 . S
C1560 C1561 1.370 . S
C1560 C1562 1.363 . S
C1560 H1576 0.931 . S
C1561 C1560 1.370 . S
C1561 C1565 1.408 . S
C1562 C1560 1.363 . S
C1562 C1563 1.370 . S
C1562 C1566 1.524 . S
C1563 C1555 1.503 . S
C1563 C1562 1.370 . S
C1563 C1564 1.403 . S
C1564 C1563 1.403 . S
C1564 C1565 1.404 . S
C1564 C1567 1.539 . S
C1565 C1561 1.408 . S
C1565 C1564 1.404 . S
C1565 H1577 0.930 . S
C1566 C1562 1.524 . S
C1566 H1578 0.956 . S
C1566 H1579 0.961 . S
C1566 H1580 0.961 . S
C1567 C1564 1.539 . S
C1567 H1581 0.958 . S
C1567 H1582 0.961 . S
C1567 H1583 0.960 . S
H1568 C1552 0.931 . S
H1569 C1557 0.929 . S
H1570 C1558 0.960 . S
H1571 C1558 0.962 . S
H1572 C1558 0.960 . S
H1573 C1559 0.961 . S
H1574 C1559 0.961 . S
H1575 C1559 0.961 . S
H1576 C1560 0.931 . S
H1577 C1565 0.930 . S
H1578 C1566 0.956 . S
H1579 C1566 0.961 . S
H1580 C1566 0.961 . S
H1581 C1567 0.958 . S
H1582 C1567 0.961 . S
H1583 C1567 0.960 . S
C1584 C1585 1.391 . S
C1584 C1586 1.394 . S
C1584 H1600 0.931 . S
C1585 C1584 1.391 . S
C1585 C1589 1.376 . S
C1586 C1584 1.394 . S
C1586 C1587 1.369 . S
C1586 C1590 1.531 . S
C1587 C1586 1.369 . S
C1587 C1588 1.410 . S
C1587 C1595 1.503 . S
C1588 C1587 1.410 . S
C1588 C1589 1.392 . S
C1588 C1591 1.511 . S
C1589 C1585 1.376 . S
C1589 C1588 1.392 . S
C1589 H1601 0.929 . S
C1590 C1586 1.531 . S
C1590 H1602 0.960 . S
C1590 H1603 0.962 . S
C1590 H1604 0.960 . S
C1591 C1588 1.511 . S
C1591 H1605 0.961 . S
C1591 H1606 0.961 . S
C1591 H1607 0.961 . S
C1592 C1593 1.370 . S
C1592 C1594 1.363 . S
C1592 H1608 0.931 . S
C1593 C1592 1.370 . S
C1593 C1597 1.408 . S
C1594 C1592 1.363 . S
C1594 C1595 1.370 . S
C1594 C1598 1.524 . S
C1595 C1587 1.503 . S
C1595 C1594 1.370 . S
C1595 C1596 1.403 . S
C1596 C1595 1.403 . S
C1596 C1597 1.404 . S
C1596 C1599 1.539 . S
C1597 C1593 1.408 . S
C1597 C1596 1.404 . S
C1597 H1609 0.930 . S
C1598 C1594 1.524 . S
C1598 H1610 0.956 . S
C1598 H1611 0.961 . S
C1598 H1612 0.961 . S
C1599 C1596 1.539 . S
C1599 H1613 0.958 . S
C1599 H1614 0.961 . S
C1599 H1615 0.960 . S
H1600 C1584 0.931 . S
H1601 C1589 0.929 . S
H1602 C1590 0.960 . S
H1603 C1590 0.962 . S
H1604 C1590 0.960 . S
H1605 C1591 0.961 . S
H1606 C1591 0.961 . S
H1607 C1591 0.961 . S
H1608 C1592 0.931 . S
H1609 C1597 0.930 . S
H1610 C1598 0.956 . S
H1611 C1598 0.961 . S
H1612 C1598 0.961 . S
H1613 C1599 0.958 . S
H1614 C1599 0.961 . S
H1615 C1599 0.960 . S
C1616 C1617 1.391 . S
C1616 C1618 1.394 . S
C1616 H1632 0.931 . S
C1617 C1616 1.391 . S
C1617 C1621 1.376 . S
C1618 C1616 1.394 . S
C1618 C1619 1.369 . S
C1618 C1622 1.531 . S
C1619 C1618 1.369 . S
C1619 C1620 1.410 . S
C1619 C1627 1.503 . S
C1620 C1619 1.410 . S
C1620 C1621 1.392 . S
C1620 C1623 1.511 . S
C1621 C1617 1.376 . S
C1621 C1620 1.392 . S
C1621 H1633 0.929 . S
C1622 C1618 1.531 . S
C1622 H1634 0.960 . S
C1622 H1635 0.962 . S
C1622 H1636 0.960 . S
C1623 C1620 1.511 . S
C1623 H1637 0.961 . S
C1623 H1638 0.961 . S
C1623 H1639 0.961 . S
C1624 C1625 1.370 . S
C1624 C1626 1.363 . S
C1624 H1640 0.931 . S
C1625 C1624 1.370 . S
C1625 C1629 1.408 . S
C1626 C1624 1.363 . S
C1626 C1627 1.370 . S
C1626 C1630 1.524 . S
C1627 C1619 1.503 . S
C1627 C1626 1.370 . S
C1627 C1628 1.403 . S
C1628 C1627 1.403 . S
C1628 C1629 1.404 . S
C1628 C1631 1.539 . S
C1629 C1625 1.408 . S
C1629 C1628 1.404 . S
C1629 H1641 0.930 . S
C1630 C1626 1.524 . S
C1630 H1642 0.956 . S
C1630 H1643 0.961 . S
C1630 H1644 0.961 . S
C1631 C1628 1.539 . S
C1631 H1645 0.958 . S
C1631 H1646 0.961 . S
C1631 H1647 0.960 . S
H1632 C1616 0.931 . S
H1633 C1621 0.929 . S
H1634 C1622 0.960 . S
H1635 C1622 0.962 . S
H1636 C1622 0.960 . S
H1637 C1623 0.961 . S
H1638 C1623 0.961 . S
H1639 C1623 0.961 . S
H1640 C1624 0.931 . S
H1641 C1629 0.930 . S
H1642 C1630 0.956 . S
H1643 C1630 0.961 . S
H1644 C1630 0.961 . S
H1645 C1631 0.958 . S
H1646 C1631 0.961 . S
H1647 C1631 0.960 . S
C1648 C1649 1.391 . S
C1648 C1650 1.394 . S
C1648 H1664 0.931 . S
C1649 C1648 1.391 . S
C1649 C1653 1.376 . S
C1650 C1648 1.394 . S
C1650 C1651 1.369 . S
C1650 C1654 1.531 . S
C1651 C1650 1.369 . S
C1651 C1652 1.410 . S
C1651 C1659 1.503 . S
C1652 C1651 1.410 . S
C1652 C1653 1.392 . S
C1652 C1655 1.511 . S
C1653 C1649 1.376 . S
C1653 C1652 1.392 . S
C1653 H1665 0.929 . S
C1654 C1650 1.531 . S
C1654 H1666 0.960 . S
C1654 H1667 0.962 . S
C1654 H1668 0.960 . S
C1655 C1652 1.511 . S
C1655 H1669 0.961 . S
C1655 H1670 0.961 . S
C1655 H1671 0.961 . S
C1656 C1657 1.370 . S
C1656 C1658 1.363 . S
C1656 H1672 0.931 . S
C1657 C1656 1.370 . S
C1657 C1661 1.408 . S
C1658 C1656 1.363 . S
C1658 C1659 1.370 . S
C1658 C1662 1.524 . S
C1659 C1651 1.503 . S
C1659 C1658 1.370 . S
C1659 C1660 1.403 . S
C1660 C1659 1.403 . S
C1660 C1661 1.404 . S
C1660 C1663 1.539 . S
C1661 C1657 1.408 . S
C1661 C1660 1.404 . S
C1661 H1673 0.930 . S
C1662 C1658 1.524 . S
C1662 H1674 0.956 . S
C1662 H1675 0.961 . S
C1662 H1676 0.961 . S
C1663 C1660 1.539 . S
C1663 H1677 0.958 . S
C1663 H1678 0.961 . S
C1663 H1679 0.960 . S
H1664 C1648 0.931 . S
H1665 C1653 0.929 . S
H1666 C1654 0.960 . S
H1667 C1654 0.962 . S
H1668 C1654 0.960 . S
H1669 C1655 0.961 . S
H1670 C1655 0.961 . S
H1671 C1655 0.961 . S
H1672 C1656 0.931 . S
H1673 C1661 0.930 . S
H1674 C1662 0.956 . S
H1675 C1662 0.961 . S
H1676 C1662 0.961 . S
H1677 C1663 0.958 . S
H1678 C1663 0.961 . S
H1679 C1663 0.960 . S
C1680 C1681 1.391 . S
C1680 C1682 1.394 . S
C1680 H1696 0.931 . S
C1681 C1680 1.391 . S
C1681 C1685 1.376 . S
C1682 C1680 1.394 . S
C1682 C1683 1.369 . S
C1682 C1686 1.531 . S
C1683 C1682 1.369 . S
C1683 C1684 1.410 . S
C1683 C1691 1.503 . S
C1684 C1683 1.410 . S
C1684 C1685 1.392 . S
C1684 C1687 1.511 . S
C1685 C1681 1.376 . S
C1685 C1684 1.392 . S
C1685 H1697 0.929 . S
C1686 C1682 1.531 . S
C1686 H1698 0.960 . S
C1686 H1699 0.962 . S
C1686 H1700 0.960 . S
C1687 C1684 1.511 . S
C1687 H1701 0.961 . S
C1687 H1702 0.961 . S
C1687 H1703 0.961 . S
C1688 C1689 1.370 . S
C1688 C1690 1.363 . S
C1688 H1704 0.931 . S
C1689 C1688 1.370 . S
C1689 C1693 1.408 . S
C1690 C1688 1.363 . S
C1690 C1691 1.370 . S
C1690 C1694 1.524 . S
C1691 C1683 1.503 . S
C1691 C1690 1.370 . S
C1691 C1692 1.403 . S
C1692 C1691 1.403 . S
C1692 C1693 1.404 . S
C1692 C1695 1.539 . S
C1693 C1689 1.408 . S
C1693 C1692 1.404 . S
C1693 H1705 0.930 . S
C1694 C1690 1.524 . S
C1694 H1706 0.956 . S
C1694 H1707 0.961 . S
C1694 H1708 0.961 . S
C1695 C1692 1.539 . S
C1695 H1709 0.958 . S
C1695 H1710 0.961 . S
C1695 H1711 0.960 . S
H1696 C1680 0.931 . S
H1697 C1685 0.929 . S
H1698 C1686 0.960 . S
H1699 C1686 0.962 . S
H1700 C1686 0.960 . S
H1701 C1687 0.961 . S
H1702 C1687 0.961 . S
H1703 C1687 0.961 . S
H1704 C1688 0.931 . S
H1705 C1693 0.930 . S
H1706 C1694 0.956 . S
H1707 C1694 0.961 . S
H1708 C1694 0.961 . S
H1709 C1695 0.958 . S
H1710 C1695 0.961 . S
H1711 C1695 0.960 . S
C1712 C1713 1.391 . S
C1712 C1714 1.394 . S
C1712 H1728 0.931 . S
C1713 C1712 1.391 . S
C1713 C1717 1.376 . S
C1714 C1712 1.394 . S
C1714 C1715 1.369 . S
C1714 C1718 1.531 . S
C1715 C1714 1.369 . S
C1715 C1716 1.410 . S
C1715 C1723 1.503 . S
C1716 C1715 1.410 . S
C1716 C1717 1.392 . S
C1716 C1719 1.511 . S
C1717 C1713 1.376 . S
C1717 C1716 1.392 . S
C1717 H1729 0.929 . S
C1718 C1714 1.531 . S
C1718 H1730 0.960 . S
C1718 H1731 0.962 . S
C1718 H1732 0.960 . S
C1719 C1716 1.511 . S
C1719 H1733 0.961 . S
C1719 H1734 0.961 . S
C1719 H1735 0.961 . S
C1720 C1721 1.370 . S
C1720 C1722 1.363 . S
C1720 H1736 0.931 . S
C1721 C1720 1.370 . S
C1721 C1725 1.408 . S
C1722 C1720 1.363 . S
C1722 C1723 1.370 . S
C1722 C1726 1.524 . S
C1723 C1715 1.503 . S
C1723 C1722 1.370 . S
C1723 C1724 1.403 . S
C1724 C1723 1.403 . S
C1724 C1725 1.404 . S
C1724 C1727 1.539 . S
C1725 C1721 1.408 . S
C1725 C1724 1.404 . S
C1725 H1737 0.930 . S
C1726 C1722 1.524 . S
C1726 H1738 0.956 . S
C1726 H1739 0.961 . S
C1726 H1740 0.961 . S
C1727 C1724 1.539 . S
C1727 H1741 0.958 . S
C1727 H1742 0.961 . S
C1727 H1743 0.960 . S
H1728 C1712 0.931 . S
H1729 C1717 0.929 . S
H1730 C1718 0.960 . S
H1731 C1718 0.962 . S
H1732 C1718 0.960 . S
H1733 C1719 0.961 . S
H1734 C1719 0.961 . S
H1735 C1719 0.961 . S
H1736 C1720 0.931 . S
H1737 C1725 0.930 . S
H1738 C1726 0.956 . S
H1739 C1726 0.961 . S
H1740 C1726 0.961 . S
H1741 C1727 0.958 . S
H1742 C1727 0.961 . S
H1743 C1727 0.960 . S
C1744 C1745 1.391 . S
C1744 C1746 1.394 . S
C1744 H1760 0.931 . S
C1745 C1744 1.391 . S
C1745 C1749 1.376 . S
C1746 C1744 1.394 . S
C1746 C1747 1.369 . S
C1746 C1750 1.531 . S
C1747 C1746 1.369 . S
C1747 C1748 1.410 . S
C1747 C1755 1.503 . S
C1748 C1747 1.410 . S
C1748 C1749 1.392 . S
C1748 C1751 1.511 . S
C1749 C1745 1.376 . S
C1749 C1748 1.392 . S
C1749 H1761 0.929 . S
C1750 C1746 1.531 . S
C1750 H1762 0.960 . S
C1750 H1763 0.962 . S
C1750 H1764 0.960 . S
C1751 C1748 1.511 . S
C1751 H1765 0.961 . S
C1751 H1766 0.961 . S
C1751 H1767 0.961 . S
C1752 C1753 1.370 . S
C1752 C1754 1.363 . S
C1752 H1768 0.931 . S
C1753 C1752 1.370 . S
C1753 C1757 1.408 . S
C1754 C1752 1.363 . S
C1754 C1755 1.370 . S
C1754 C1758 1.524 . S
C1755 C1747 1.503 . S
C1755 C1754 1.370 . S
C1755 C1756 1.403 . S
C1756 C1755 1.403 . S
C1756 C1757 1.404 . S
C1756 C1759 1.539 . S
C1757 C1753 1.408 . S
C1757 C1756 1.404 . S
C1757 H1769 0.930 . S
C1758 C1754 1.524 . S
C1758 H1770 0.956 . S
C1758 H1771 0.961 . S
C1758 H1772 0.961 . S
C1759 C1756 1.539 . S
C1759 H1773 0.958 . S
C1759 H1774 0.961 . S
C1759 H1775 0.960 . S
H1760 C1744 0.931 . S
H1761 C1749 0.929 . S
H1762 C1750 0.960 . S
H1763 C1750 0.962 . S
H1764 C1750 0.960 . S
H1765 C1751 0.961 . S
H1766 C1751 0.961 . S
H1767 C1751 0.961 . S
H1768 C1752 0.931 . S
H1769 C1757 0.930 . S
H1770 C1758 0.956 . S
H1771 C1758 0.961 . S
H1772 C1758 0.961 . S
H1773 C1759 0.958 . S
H1774 C1759 0.961 . S
H1775 C1759 0.960 . S
C1776 C1777 1.391 . S
C1776 C1778 1.394 . S
C1776 H1792 0.931 . S
C1777 C1776 1.391 . S
C1777 C1781 1.376 . S
C1778 C1776 1.394 . S
C1778 C1779 1.369 . S
C1778 C1782 1.531 . S
C1779 C1778 1.369 . S
C1779 C1780 1.410 . S
C1779 C1787 1.503 . S
C1780 C1779 1.410 . S
C1780 C1781 1.392 . S
C1780 C1783 1.511 . S
C1781 C1777 1.376 . S
C1781 C1780 1.392 . S
C1781 H1793 0.929 . S
C1782 C1778 1.531 . S
C1782 H1794 0.960 . S
C1782 H1795 0.962 . S
C1782 H1796 0.960 . S
C1783 C1780 1.511 . S
C1783 H1797 0.961 . S
C1783 H1798 0.961 . S
C1783 H1799 0.961 . S
C1784 C1785 1.370 . S
C1784 C1786 1.363 . S
C1784 H1800 0.931 . S
C1785 C1784 1.370 . S
C1785 C1789 1.408 . S
C1786 C1784 1.363 . S
C1786 C1787 1.370 . S
C1786 C1790 1.524 . S
C1787 C1779 1.503 . S
C1787 C1786 1.370 . S
C1787 C1788 1.403 . S
C1788 C1787 1.403 . S
C1788 C1789 1.404 . S
C1788 C1791 1.539 . S
C1789 C1785 1.408 . S
C1789 C1788 1.404 . S
C1789 H1801 0.930 . S
C1790 C1786 1.524 . S
C1790 H1802 0.956 . S
C1790 H1803 0.961 . S
C1790 H1804 0.961 . S
C1791 C1788 1.539 . S
C1791 H1805 0.958 . S
C1791 H1806 0.961 . S
C1791 H1807 0.960 . S
H1792 C1776 0.931 . S
H1793 C1781 0.929 . S
H1794 C1782 0.960 . S
H1795 C1782 0.962 . S
H1796 C1782 0.960 . S
H1797 C1783 0.961 . S
H1798 C1783 0.961 . S
H1799 C1783 0.961 . S
H1800 C1784 0.931 . S
H1801 C1789 0.930 . S
H1802 C1790 0.956 . S
H1803 C1790 0.961 . S
H1804 C1790 0.961 . S
H1805 C1791 0.958 . S
H1806 C1791 0.961 . S
H1807 C1791 0.960 . S
C1808 C1809 1.391 . S
C1808 C1810 1.394 . S
C1808 H1824 0.931 . S
C1809 C1808 1.391 . S
C1809 C1813 1.376 . S
C1810 C1808 1.394 . S
C1810 C1811 1.369 . S
C1810 C1814 1.531 . S
C1811 C1810 1.369 . S
C1811 C1812 1.410 . S
C1811 C1819 1.503 . S
C1812 C1811 1.410 . S
C1812 C1813 1.392 . S
C1812 C1815 1.511 . S
C1813 C1809 1.376 . S
C1813 C1812 1.392 . S
C1813 H1825 0.929 . S
C1814 C1810 1.531 . S
C1814 H1826 0.960 . S
C1814 H1827 0.962 . S
C1814 H1828 0.960 . S
C1815 C1812 1.511 . S
C1815 H1829 0.961 . S
C1815 H1830 0.961 . S
C1815 H1831 0.961 . S
C1816 C1817 1.370 . S
C1816 C1818 1.363 . S
C1816 H1832 0.931 . S
C1817 C1816 1.370 . S
C1817 C1821 1.408 . S
C1818 C1816 1.363 . S
C1818 C1819 1.370 . S
C1818 C1822 1.524 . S
C1819 C1811 1.503 . S
C1819 C1818 1.370 . S
C1819 C1820 1.403 . S
C1820 C1819 1.403 . S
C1820 C1821 1.404 . S
C1820 C1823 1.539 . S
C1821 C1817 1.408 . S
C1821 C1820 1.404 . S
C1821 H1833 0.930 . S
C1822 C1818 1.524 . S
C1822 H1834 0.956 . S
C1822 H1835 0.961 . S
C1822 H1836 0.961 . S
C1823 C1820 1.539 . S
C1823 H1837 0.958 . S
C1823 H1838 0.961 . S
C1823 H1839 0.960 . S
H1824 C1808 0.931 . S
H1825 C1813 0.929 . S
H1826 C1814 0.960 . S
H1827 C1814 0.962 . S
H1828 C1814 0.960 . S
H1829 C1815 0.961 . S
H1830 C1815 0.961 . S
H1831 C1815 0.961 . S
H1832 C1816 0.931 . S
H1833 C1821 0.930 . S
H1834 C1822 0.956 . S
H1835 C1822 0.961 . S
H1836 C1822 0.961 . S
H1837 C1823 0.958 . S
H1838 C1823 0.961 . S
H1839 C1823 0.960 . S
C1840 C1841 1.391 . S
C1840 C1842 1.394 . S
C1840 H1856 0.931 . S
C1841 C1840 1.391 . S
C1841 C1845 1.376 . S
C1842 C1840 1.394 . S
C1842 C1843 1.369 . S
C1842 C1846 1.531 . S
C1843 C1842 1.369 . S
C1843 C1844 1.410 . S
C1843 C1851 1.503 . S
C1844 C1843 1.410 . S
C1844 C1845 1.392 . S
C1844 C1847 1.511 . S
C1845 C1841 1.376 . S
C1845 C1844 1.392 . S
C1845 H1857 0.929 . S
C1846 C1842 1.531 . S
C1846 H1858 0.960 . S
C1846 H1859 0.962 . S
C1846 H1860 0.960 . S
C1847 C1844 1.511 . S
C1847 H1861 0.961 . S
C1847 H1862 0.961 . S
C1847 H1863 0.961 . S
C1848 C1849 1.370 . S
C1848 C1850 1.363 . S
C1848 H1864 0.931 . S
C1849 C1848 1.370 . S
C1849 C1853 1.408 . S
C1850 C1848 1.363 . S
C1850 C1851 1.370 . S
C1850 C1854 1.524 . S
C1851 C1843 1.503 . S
C1851 C1850 1.370 . S
C1851 C1852 1.403 . S
C1852 C1851 1.403 . S
C1852 C1853 1.404 . S
C1852 C1855 1.539 . S
C1853 C1849 1.408 . S
C1853 C1852 1.404 . S
C1853 H1865 0.930 . S
C1854 C1850 1.524 . S
C1854 H1866 0.956 . S
C1854 H1867 0.961 . S
C1854 H1868 0.961 . S
C1855 C1852 1.539 . S
C1855 H1869 0.958 . S
C1855 H1870 0.961 . S
C1855 H1871 0.960 . S
H1856 C1840 0.931 . S
H1857 C1845 0.929 . S
H1858 C1846 0.960 . S
H1859 C1846 0.962 . S
H1860 C1846 0.960 . S
H1861 C1847 0.961 . S
H1862 C1847 0.961 . S
H1863 C1847 0.961 . S
H1864 C1848 0.931 . S
H1865 C1853 0.930 . S
H1866 C1854 0.956 . S
H1867 C1854 0.961 . S
H1868 C1854 0.961 . S
H1869 C1855 0.958 . S
H1870 C1855 0.961 . S
H1871 C1855 0.960 . S
C1872 C1873 1.391 . S
C1872 C1874 1.394 . S
C1872 H1888 0.931 . S
C1873 C1872 1.391 . S
C1873 C1877 1.376 . S
C1874 C1872 1.394 . S
C1874 C1875 1.369 . S
C1874 C1878 1.531 . S
C1875 C1874 1.369 . S
C1875 C1876 1.410 . S
C1875 C1883 1.503 . S
C1876 C1875 1.410 . S
C1876 C1877 1.392 . S
C1876 C1879 1.511 . S
C1877 C1873 1.376 . S
C1877 C1876 1.392 . S
C1877 H1889 0.929 . S
C1878 C1874 1.531 . S
C1878 H1890 0.960 . S
C1878 H1891 0.962 . S
C1878 H1892 0.960 . S
C1879 C1876 1.511 . S
C1879 H1893 0.961 . S
C1879 H1894 0.961 . S
C1879 H1895 0.961 . S
C1880 C1881 1.370 . S
C1880 C1882 1.363 . S
C1880 H1896 0.931 . S
C1881 C1880 1.370 . S
C1881 C1885 1.408 . S
C1882 C1880 1.363 . S
C1882 C1883 1.370 . S
C1882 C1886 1.524 . S
C1883 C1875 1.503 . S
C1883 C1882 1.370 . S
C1883 C1884 1.403 . S
C1884 C1883 1.403 . S
C1884 C1885 1.404 . S
C1884 C1887 1.539 . S
C1885 C1881 1.408 . S
C1885 C1884 1.404 . S
C1885 H1897 0.930 . S
C1886 C1882 1.524 . S
C1886 H1898 0.956 . S
C1886 H1899 0.961 . S
C1886 H1900 0.961 . S
C1887 C1884 1.539 . S
C1887 H1901 0.958 . S
C1887 H1902 0.961 . S
C1887 H1903 0.960 . S
H1888 C1872 0.931 . S
H1889 C1877 0.929 . S
H1890 C1878 0.960 . S
H1891 C1878 0.962 . S
H1892 C1878 0.960 . S
H1893 C1879 0.961 . S
H1894 C1879 0.961 . S
H1895 C1879 0.961 . S
H1896 C1880 0.931 . S
H1897 C1885 0.930 . S
H1898 C1886 0.956 . S
H1899 C1886 0.961 . S
H1900 C1886 0.961 . S
H1901 C1887 0.958 . S
H1902 C1887 0.961 . S
H1903 C1887 0.960 . S
C1904 C1905 1.391 . S
C1904 C1906 1.394 . S
C1904 H1920 0.931 . S
C1905 C1904 1.391 . S
C1905 C1909 1.376 . S
C1906 C1904 1.394 . S
C1906 C1907 1.369 . S
C1906 C1910 1.531 . S
C1907 C1906 1.369 . S
C1907 C1908 1.410 . S
C1907 C1915 1.503 . S
C1908 C1907 1.410 . S
C1908 C1909 1.392 . S
C1908 C1911 1.511 . S
C1909 C1905 1.376 . S
C1909 C1908 1.392 . S
C1909 H1921 0.929 . S
C1910 C1906 1.531 . S
C1910 H1922 0.960 . S
C1910 H1923 0.962 . S
C1910 H1924 0.960 . S
C1911 C1908 1.511 . S
C1911 H1925 0.961 . S
C1911 H1926 0.961 . S
C1911 H1927 0.961 . S
C1912 C1913 1.370 . S
C1912 C1914 1.363 . S
C1912 H1928 0.931 . S
C1913 C1912 1.370 . S
C1913 C1917 1.408 . S
C1914 C1912 1.363 . S
C1914 C1915 1.370 . S
C1914 C1918 1.524 . S
C1915 C1907 1.503 . S
C1915 C1914 1.370 . S
C1915 C1916 1.403 . S
C1916 C1915 1.403 . S
C1916 C1917 1.404 . S
C1916 C1919 1.539 . S
C1917 C1913 1.408 . S
C1917 C1916 1.404 . S
C1917 H1929 0.930 . S
C1918 C1914 1.524 . S
C1918 H1930 0.956 . S
C1918 H1931 0.961 . S
C1918 H1932 0.961 . S
C1919 C1916 1.539 . S
C1919 H1933 0.958 . S
C1919 H1934 0.961 . S
C1919 H1935 0.960 . S
H1920 C1904 0.931 . S
H1921 C1909 0.929 . S
H1922 C1910 0.960 . S
H1923 C1910 0.962 . S
H1924 C1910 0.960 . S
H1925 C1911 0.961 . S
H1926 C1911 0.961 . S
H1927 C1911 0.961 . S
H1928 C1912 0.931 . S
H1929 C1917 0.930 . S
H1930 C1918 0.956 . S
H1931 C1918 0.961 . S
H1932 C1918 0.961 . S
H1933 C1919 0.958 . S
H1934 C1919 0.961 . S
H1935 C1919 0.960 . S
C1936 C1937 1.391 . S
C1936 C1938 1.394 . S
C1936 H1952 0.931 . S
C1937 C1936 1.391 . S
C1937 C1941 1.376 . S
C1938 C1936 1.394 . S
C1938 C1939 1.369 . S
C1938 C1942 1.531 . S
C1939 C1938 1.369 . S
C1939 C1940 1.410 . S
C1939 C1947 1.503 . S
C1940 C1939 1.410 . S
C1940 C1941 1.392 . S
C1940 C1943 1.511 . S
C1941 C1937 1.376 . S
C1941 C1940 1.392 . S
C1941 H1953 0.929 . S
C1942 C1938 1.531 . S
C1942 H1954 0.960 . S
C1942 H1955 0.962 . S
C1942 H1956 0.960 . S
C1943 C1940 1.511 . S
C1943 H1957 0.961 . S
C1943 H1958 0.961 . S
C1943 H1959 0.961 . S
C1944 C1945 1.370 . S
C1944 C1946 1.363 . S
C1944 H1960 0.931 . S
C1945 C1944 1.370 . S
C1945 C1949 1.408 . S
C1946 C1944 1.363 . S
C1946 C1947 1.370 . S
C1946 C1950 1.524 . S
C1947 C1939 1.503 . S
C1947 C1946 1.370 . S
C1947 C1948 1.403 . S
C1948 C1947 1.403 . S
C1948 C1949 1.404 . S
C1948 C1951 1.539 . S
C1949 C1945 1.408 . S
C1949 C1948 1.404 . S
C1949 H1961 0.930 . S
C1950 C1946 1.524 . S
C1950 H1962 0.956 . S
C1950 H1963 0.961 . S
C1950 H1964 0.961 . S
C1951 C1948 1.539 . S
C1951 H1965 0.958 . S
C1951 H1966 0.961 . S
C1951 H1967 0.960 . S
H1952 C1936 0.931 . S
H1953 C1941 0.929 . S
H1954 C1942 0.960 . S
H1955 C1942 0.962 . S
H1956 C1942 0.960 . S
H1957 C1943 0.961 . S
H1958 C1943 0.961 . S
H1959 C1943 0.961 . S
H1960 C1944 0.931 . S
H1961 C1949 0.930 . S
H1962 C1950 0.956 . S
H1963 C1950 0.961 . S
H1964 C1950 0.961 . S
H1965 C1951 0.958 . S
H1966 C1951 0.961 . S
H1967 C1951 0.960 . S
C1968 C1969 1.391 . S
C1968 C1970 1.394 . S
C1968 H1984 0.931 . S
C1969 C1968 1.391 . S
C1969 C1973 1.376 . S
C1970 C1968 1.394 . S
C1970 C1971 1.369 . S
C1970 C1974 1.531 . S
C1971 C1970 1.369 . S
C1971 C1972 1.410 . S
C1971 C1979 1.503 1_556 S
C1972 C1971 1.410 . S
C1972 C1973 1.392 . S
C1972 C1975 1.511 1_556 S
C1973 C1969 1.376 . S
C1973 C1972 1.392 . S
C1973 H1985 0.929 . S
C1974 C1970 1.531 . S
C1974 H1986 0.960 . S
C1974 H1987 0.962 . S
C1974 H1988 0.960 . S
C1975 C1972 1.511 1_554 S
C1975 H1989 0.961 . S
C1975 H1990 0.961 . S
C1975 H1991 0.961 . S
C1976 C1977 1.370 . S
C1976 C1978 1.363 . S
C1976 H1992 0.931 . S
C1977 C1976 1.370 . S
C1977 C1981 1.408 . S
C1978 C1976 1.363 . S
C1978 C1979 1.370 . S
C1978 C1982 1.524 1_554 S
C1979 C1971 1.503 1_554 S
C1979 C1978 1.370 . S
C1979 C1980 1.403 . S
C1980 C1979 1.403 . S
C1980 C1981 1.404 . S
C1980 C1983 1.539 . S
C1981 C1977 1.408 . S
C1981 C1980 1.404 . S
C1981 H1993 0.930 . S
C1982 C1978 1.524 1_556 S
C1982 H1994 0.956 . S
C1982 H1995 0.961 . S
C1982 H1996 0.961 . S
C1983 C1980 1.539 . S
C1983 H1997 0.958 . S
C1983 H1998 0.961 . S
C1983 H1999 0.960 . S
H1984 C1968 0.931 . S
H1985 C1973 0.929 . S
H1986 C1974 0.960 . S
H1987 C1974 0.962 . S
H1988 C1974 0.960 . S
H1989 C1975 0.961 . S
H1990 C1975 0.961 . S
H1991 C1975 0.961 . S
H1992 C1976 0.931 . S
H1993 C1981 0.930 . S
H1994 C1982 0.956 . S
H1995 C1982 0.961 . S
H1996 C1982 0.961 . S
H1997 C1983 0.958 . S
H1998 C1983 0.961 . S
H1999 C1983 0.960 . S
C2000 C2001 1.391 . S
C2000 C2002 1.394 . S
C2000 H2016 0.931 . S
C2001 C2000 1.391 . S
C2001 C2005 1.376 . S
C2002 C2000 1.394 . S
C2002 C2003 1.369 . S
C2002 C2006 1.531 . S
C2003 C2002 1.369 . S
C2003 C2004 1.410 . S
C2003 C2011 1.503 1_455 S
C2004 C2003 1.410 . S
C2004 C2005 1.392 . S
C2004 C2007 1.511 1_455 S
C2005 C2001 1.376 . S
C2005 C2004 1.392 . S
C2005 H2017 0.929 . S
C2006 C2002 1.531 . S
C2006 H2018 0.960 . S
C2006 H2019 0.962 . S
C2006 H2020 0.960 . S
C2007 C2004 1.511 1_655 S
C2007 H2021 0.961 . S
C2007 H2022 0.961 . S
C2007 H2023 0.961 . S
C2008 C2009 1.370 . S
C2008 C2010 1.363 . S
C2008 H2024 0.931 . S
C2009 C2008 1.370 . S
C2009 C2013 1.408 . S
C2010 C2008 1.363 . S
C2010 C2011 1.370 . S
C2010 C2014 1.524 . S
C2011 C2003 1.503 1_655 S
C2011 C2010 1.370 . S
C2011 C2012 1.403 . S
C2012 C2011 1.403 . S
C2012 C2013 1.404 . S
C2012 C2015 1.539 . S
C2013 C2009 1.408 . S
C2013 C2012 1.404 . S
C2013 H2025 0.930 . S
C2014 C2010 1.524 . S
C2014 H2026 0.956 1_655 S
C2014 H2027 0.960 1_655 S
C2014 H2028 0.961 . S
C2015 C2012 1.539 . S
C2015 H2029 0.958 . S
C2015 H2030 0.961 . S
C2015 H2031 0.960 . S
H2016 C2000 0.931 . S
H2017 C2005 0.929 . S
H2018 C2006 0.960 . S
H2019 C2006 0.962 . S
H2020 C2006 0.960 . S
H2021 C2007 0.961 . S
H2022 C2007 0.961 . S
H2023 C2007 0.961 . S
H2024 C2008 0.931 . S
H2025 C2013 0.930 . S
H2026 C2014 0.956 1_455 S
H2027 C2014 0.960 1_455 S
H2028 C2014 0.961 . S
H2029 C2015 0.958 . S
H2030 C2015 0.961 . S
H2031 C2015 0.960 . S
C2032 C2033 1.391 . S
C2032 C2034 1.394 . S
C2032 H2048 0.931 . S
C2033 C2032 1.391 . S
C2033 C2037 1.376 . S
C2034 C2032 1.394 . S
C2034 C2035 1.369 . S
C2034 C2038 1.531 1_565 S
C2035 C2034 1.369 . S
C2035 C2036 1.408 . S
C2035 C2043 1.503 1_564 S
C2036 C2035 1.408 . S
C2036 C2037 1.391 . S
C2036 C2039 1.514 1_554 S
C2037 C2033 1.376 . S
C2037 C2036 1.391 . S
C2037 H2049 0.929 . S
C2038 C2034 1.531 1_545 S
C2038 H2050 0.960 . S
C2038 H2051 0.962 . S
C2038 H2052 0.960 . S
C2039 C2036 1.514 1_556 S
C2039 H2053 0.961 . S
C2039 H2054 0.961 . S
C2039 H2055 0.961 . S
C2040 C2041 1.370 . S
C2040 C2042 1.363 . S
C2040 H2056 0.931 . S
C2041 C2040 1.370 . S
C2041 C2045 1.408 . S
C2042 C2040 1.363 . S
C2042 C2043 1.370 . S
C2042 C2046 1.524 . S
C2043 C2035 1.503 1_546 S
C2043 C2042 1.370 . S
C2043 C2044 1.403 . S
C2044 C2043 1.403 . S
C2044 C2045 1.404 . S
C2044 C2047 1.546 . S
C2045 C2041 1.408 . S
C2045 C2044 1.404 . S
C2045 H2057 0.930 . S
C2046 C2042 1.524 . S
C2046 H2058 0.956 1_556 S
C2046 H2059 0.961 1_545 S
C2046 H2060 0.961 . S
C2047 C2044 1.546 . S
C2047 H2061 0.945 1_556 S
C2047 H2062 0.971 . S
C2047 H2063 0.957 1_556 S
H2048 C2032 0.931 . S
H2049 C2037 0.929 . S
H2050 C2038 0.960 . S
H2051 C2038 0.962 . S
H2052 C2038 0.960 . S
H2053 C2039 0.961 . S
H2054 C2039 0.961 . S
H2055 C2039 0.961 . S
H2056 C2040 0.931 . S
H2057 C2045 0.930 . S
H2058 C2046 0.956 1_554 S
H2059 C2046 0.961 1_565 S
H2060 C2046 0.961 . S
H2061 C2047 0.945 1_554 S
H2062 C2047 0.971 . S
H2063 C2047 0.957 1_554 S
C2064 C2065 1.391 . S
C2064 C2066 1.394 . S
C2064 H2080 0.931 . S
C2065 C2064 1.391 . S
C2065 C2069 1.376 . S
C2066 C2064 1.394 . S
C2066 C2067 1.369 . S
C2066 C2070 1.531 . S
C2067 C2066 1.369 . S
C2067 C2068 1.410 . S
C2067 C2075 1.503 . S
C2068 C2067 1.410 . S
C2068 C2069 1.392 . S
C2068 C2071 1.511 . S
C2069 C2065 1.376 . S
C2069 C2068 1.392 . S
C2069 H2081 0.929 . S
C2070 C2066 1.531 . S
C2070 H2082 0.960 . S
C2070 H2083 0.962 . S
C2070 H2084 0.960 . S
C2071 C2068 1.511 . S
C2071 H2085 0.961 . S
C2071 H2086 0.961 . S
C2071 H2087 0.961 . S
C2072 C2073 1.370 . S
C2072 C2074 1.363 . S
C2072 H2088 0.931 . S
C2073 C2072 1.370 . S
C2073 C2077 1.408 . S
C2074 C2072 1.363 . S
C2074 C2075 1.370 . S
C2074 C2078 1.524 . S
C2075 C2067 1.503 . S
C2075 C2074 1.370 . S
C2075 C2076 1.403 . S
C2076 C2075 1.403 . S
C2076 C2077 1.404 . S
C2076 C2079 1.539 . S
C2077 C2073 1.408 . S
C2077 C2076 1.404 . S
C2077 H2089 0.930 . S
C2078 C2074 1.524 . S
C2078 H2090 0.956 . S
C2078 H2091 0.961 . S
C2078 H2092 0.961 . S
C2079 C2076 1.539 . S
C2079 H2093 0.958 . S
C2079 H2094 0.961 . S
C2079 H2095 0.960 . S
H2080 C2064 0.931 . S
H2081 C2069 0.929 . S
H2082 C2070 0.960 . S
H2083 C2070 0.962 . S
H2084 C2070 0.960 . S
H2085 C2071 0.961 . S
H2086 C2071 0.961 . S
H2087 C2071 0.961 . S
H2088 C2072 0.931 . S
H2089 C2077 0.930 . S
H2090 C2078 0.956 . S
H2091 C2078 0.961 . S
H2092 C2078 0.961 . S
H2093 C2079 0.958 . S
H2094 C2079 0.961 . S
H2095 C2079 0.960 . S
C2096 C2097 1.391 . S
C2096 C2098 1.394 . S
C2096 H2112 0.931 . S
C2097 C2096 1.391 . S
C2097 C2101 1.376 . S
C2098 C2096 1.394 . S
C2098 C2099 1.369 . S
C2098 C2102 1.531 . S
C2099 C2098 1.369 . S
C2099 C2100 1.410 . S
C2099 C2107 1.503 1_656 S
C2100 C2099 1.410 . S
C2100 C2101 1.392 . S
C2100 C2103 1.511 1_556 S
C2101 C2097 1.376 . S
C2101 C2100 1.392 . S
C2101 H2113 0.929 . S
C2102 C2098 1.531 . S
C2102 H2114 0.960 1_556 S
C2102 H2115 0.962 1_655 S
C2102 H2116 0.960 . S
C2103 C2100 1.511 1_554 S
C2103 H2117 0.961 1_554 S
C2103 H2118 0.961 . S
C2103 H2119 0.961 . S
C2104 C2105 1.370 . S
C2104 C2106 1.363 . S
C2104 H2120 0.931 . S
C2105 C2104 1.370 . S
C2105 C2109 1.408 . S
C2106 C2104 1.363 . S
C2106 C2107 1.370 . S
C2106 C2110 1.524 1_554 S
C2107 C2099 1.503 1_454 S
C2107 C2106 1.370 . S
C2107 C2108 1.403 . S
C2108 C2107 1.403 . S
C2108 C2109 1.404 . S
C2108 C2111 1.539 1_455 S
C2109 C2105 1.408 . S
C2109 C2108 1.404 . S
C2109 H2121 0.930 . S
C2110 C2106 1.524 1_556 S
C2110 H2122 0.956 . S
C2110 H2123 0.961 . S
C2110 H2124 0.961 . S
C2111 C2108 1.539 1_655 S
C2111 H2125 0.958 . S
C2111 H2126 0.961 . S
C2111 H2127 0.960 . S
H2112 C2096 0.931 . S
H2113 C2101 0.929 . S
H2114 C2102 0.960 1_554 S
H2115 C2102 0.962 1_455 S
H2116 C2102 0.960 . S
H2117 C2103 0.961 1_556 S
H2118 C2103 0.961 . S
H2119 C2103 0.961 . S
H2120 C2104 0.931 . S
H2121 C2109 0.930 . S
H2122 C2110 0.956 . S
H2123 C2110 0.961 . S
H2124 C2110 0.961 . S
H2125 C2111 0.958 . S
H2126 C2111 0.961 . S
H2127 C2111 0.960 . S
C2128 C2129 1.391 . S
C2128 C2130 1.394 . S
C2128 H2144 0.931 . S
C2129 C2128 1.391 . S
C2129 C2133 1.376 . S
C2130 C2128 1.394 . S
C2130 C2131 1.369 . S
C2130 C2134 1.531 . S
C2131 C2130 1.369 . S
C2131 C2132 1.410 . S
C2131 C2139 1.503 1_565 S
C2132 C2131 1.410 . S
C2132 C2133 1.392 . S
C2132 C2135 1.511 1_565 S
C2133 C2129 1.376 . S
C2133 C2132 1.392 . S
C2133 H2145 0.929 . S
C2134 C2130 1.531 . S
C2134 H2146 0.960 . S
C2134 H2147 0.962 . S
C2134 H2148 0.960 . S
C2135 C2132 1.511 1_545 S
C2135 H2149 0.961 . S
C2135 H2150 0.961 . S
C2135 H2151 0.961 . S
C2136 C2137 1.370 . S
C2136 C2138 1.363 . S
C2136 H2152 0.931 . S
C2137 C2136 1.370 . S
C2137 C2141 1.408 . S
C2138 C2136 1.363 . S
C2138 C2139 1.370 . S
C2138 C2142 1.524 . S
C2139 C2131 1.503 1_545 S
C2139 C2138 1.370 . S
C2139 C2140 1.403 . S
C2140 C2139 1.403 . S
C2140 C2141 1.404 . S
C2140 C2143 1.539 . S
C2141 C2137 1.408 . S
C2141 C2140 1.404 . S
C2141 H2153 0.930 . S
C2142 C2138 1.524 . S
C2142 H2154 0.956 1_545 S
C2142 H2155 0.961 . S
C2142 H2156 0.961 . S
C2143 C2140 1.539 . S
C2143 H2157 0.958 . S
C2143 H2158 0.961 . S
C2143 H2159 0.960 . S
H2144 C2128 0.931 . S
H2145 C2133 0.929 . S
H2146 C2134 0.960 . S
H2147 C2134 0.962 . S
H2148 C2134 0.960 . S
H2149 C2135 0.961 . S
H2150 C2135 0.961 . S
H2151 C2135 0.961 . S
H2152 C2136 0.931 . S
H2153 C2141 0.930 . S
H2154 C2142 0.956 1_565 S
H2155 C2142 0.961 . S
H2156 C2142 0.961 . S
H2157 C2143 0.958 . S
H2158 C2143 0.961 . S
H2159 C2143 0.960 . S
C1009 C392 1.357 . S
C1017 C63 1.280 . S
C1041 C476 1.305 . S
C1049 C147 1.242 . S
C1073 C231 1.301 . S
C1081 C56 1.359 . S
C1105 C315 1.248 . S
C1113 C140 1.351 . S
C1137 C399 1.201 . S
C1145 C224 1.330 . S
C1169 C308 1.327 . S
C1177 C483 1.239 . S
C1201 C728 1.374 . S
C1209 C567 1.282 . S
C1233 C651 1.229 . S
C1241 C812 1.331 . S
C1265 C896 1.374 . S
C1273 C735 1.271 . S
C1297 C819 1.204 . S
C1305 C980 1.330 . S
C1329 C903 1.265 . S
C1337 C560 1.355 . S
C1361 C644 1.305 . S
C1369 C987 1.241 . S
C1393 C403 1.392 . S
C1401 C72 1.346 . S
C1425 C156 1.266 . S
C1433 C487 1.403 . S
C1457 C240 1.376 . S
C1465 C67 1.402 . S
C1489 C324 1.283 . S
C1497 C151 1.413 . S
C1521 C235 1.375 . S
C1529 C408 1.341 . S
C1553 C319 1.432 . S
C1561 C492 1.342 . S
C1585 C739 1.356 . S
C1593 C576 1.321 . S
C1617 C660 1.266 . S
C1625 C823 1.403 . S
C1649 C744 1.272 . S
C1657 C907 1.408 . S
C1681 C991 1.384 . S
C1689 C828 1.344 . S
C1713 C912 1.375 . S
C1721 C571 1.400 . S
C1745 C655 1.441 . S
C1753 C996 1.331 . S
C1777 C906 1.853 . S
C1785 C66 1.879 . S
C1809 C150 1.861 . S
C1817 C990 1.873 . S
C1841 C234 1.882 . S
C1849 C570 1.893 . S
C1873 C318 1.902 . S
C1881 C654 1.888 . S
C1905 C402 1.909 . S
C1913 C738 1.898 . S
C1937 C822 1.907 . S
C1945 C486 1.898 . S
C1969 C831 2.048 . S
C1977 C75 2.024 . S
C2001 C915 1.996 . S
C2009 C159 2.021 . S
C2033 C243 2.039 . S
C2041 C999 2.036 . S
C2065 C327 2.049 . S
C2073 C579 2.027 . S
C2097 C663 2.043 . S
C2105 C411 2.020 . S
C2129 C747 1.996 . S
C2137 C495 2.021 . S
