# Generated by pormake.
# Topology uol, (4)-cn, num edge types: 1
# Building blocks:
#     Node 0, Type 0, BuildingBlock: NAWXER_clean_sbu_0, # of connection points: 4
#     Node 1, Type 0, BuildingBlock: NAWXER_clean_sbu_0, # of connection points: 4
#     Node 2, Type 0, BuildingBlock: NAWXER_clean_sbu_0, # of connection points: 4
#     Node 3, Type 0, BuildingBlock: NAWXER_clean_sbu_0, # of connection points: 4
#     Node 4, Type 0, BuildingBlock: NAWXER_clean_sbu_0, # of connection points: 4
#     Node 5, Type 0, BuildingBlock: NAWXER_clean_sbu_0, # of connection points: 4
#     Node 6, Type 0, BuildingBlock: NAWXER_clean_sbu_0, # of connection points: 4
#     Node 7, Type 0, BuildingBlock: NAWXER_clean_sbu_0, # of connection points: 4
#     Node 8, Type 0, BuildingBlock: NAWXER_clean_sbu_0, # of connection points: 4
#     Node 9, Type 0, BuildingBlock: NAWXER_clean_sbu_0, # of connection points: 4
#     Node 10, Type 0, BuildingBlock: NAWXER_clean_sbu_0, # of connection points: 4
#     Node 11, Type 0, BuildingBlock: NAWXER_clean_sbu_0, # of connection points: 4
#     Edge 12, Type (0, 0), BuildingBlock: MIFKUJ_clean_linker_0, # of connection points: 2
#     Edge 13, Type (0, 0), BuildingBlock: MIFKUJ_clean_linker_0, # of connection points: 2
#     Edge 14, Type (0, 0), BuildingBlock: MIFKUJ_clean_linker_0, # of connection points: 2
#     Edge 15, Type (0, 0), BuildingBlock: MIFKUJ_clean_linker_0, # of connection points: 2
#     Edge 16, Type (0, 0), BuildingBlock: MIFKUJ_clean_linker_0, # of connection points: 2
#     Edge 17, Type (0, 0), BuildingBlock: MIFKUJ_clean_linker_0, # of connection points: 2
#     Edge 18, Type (0, 0), BuildingBlock: MIFKUJ_clean_linker_0, # of connection points: 2
#     Edge 19, Type (0, 0), BuildingBlock: MIFKUJ_clean_linker_0, # of connection points: 2
#     Edge 20, Type (0, 0), BuildingBlock: MIFKUJ_clean_linker_0, # of connection points: 2
#     Edge 21, Type (0, 0), BuildingBlock: MIFKUJ_clean_linker_0, # of connection points: 2
#     Edge 22, Type (0, 0), BuildingBlock: MIFKUJ_clean_linker_0, # of connection points: 2
#     Edge 23, Type (0, 0), BuildingBlock: MIFKUJ_clean_linker_0, # of connection points: 2
#     Edge 24, Type (0, 0), BuildingBlock: MIFKUJ_clean_linker_0, # of connection points: 2
#     Edge 25, Type (0, 0), BuildingBlock: MIFKUJ_clean_linker_0, # of connection points: 2
#     Edge 26, Type (0, 0), BuildingBlock: MIFKUJ_clean_linker_0, # of connection points: 2
#     Edge 27, Type (0, 0), BuildingBlock: MIFKUJ_clean_linker_0, # of connection points: 2
#     Edge 28, Type (0, 0), BuildingBlock: MIFKUJ_clean_linker_0, # of connection points: 2
#     Edge 29, Type (0, 0), BuildingBlock: MIFKUJ_clean_linker_0, # of connection points: 2
#     Edge 30, Type (0, 0), BuildingBlock: MIFKUJ_clean_linker_0, # of connection points: 2
#     Edge 31, Type (0, 0), BuildingBlock: MIFKUJ_clean_linker_0, # of connection points: 2
#     Edge 32, Type (0, 0), BuildingBlock: MIFKUJ_clean_linker_0, # of connection points: 2
#     Edge 33, Type (0, 0), BuildingBlock: MIFKUJ_clean_linker_0, # of connection points: 2
#     Edge 34, Type (0, 0), BuildingBlock: MIFKUJ_clean_linker_0, # of connection points: 2
#     Edge 35, Type (0, 0), BuildingBlock: MIFKUJ_clean_linker_0, # of connection points: 2
# Relax obj value: 0.141
# Max RMSD: 0.284
# Mean RMSD: 0.284
data_MOF--net-uol--node1-NAWXER_clean_sbu_0--edge1-MIFKUJ_clean_linker_0
_symmetry_space_group_name_H-M    P1
_symmetry_Int_Tables_number       1
_symmetry_cell_setting            triclinic
loop_
_symmetry_equiv_pos_as_xyz
'x, y, z'
_cell_length_a     43.952245
_cell_length_b     43.994847
_cell_length_c     85.374629
_cell_angle_alpha  89.911166
_cell_angle_beta   90.105519
_cell_angle_gamma 119.94753
loop_
_atom_site_label
_atom_site_type_symbol
_atom_site_fract_x
_atom_site_fract_y
_atom_site_fract_z
_atom_type_partial_charge
C0 C 0.13959 0.33329 0.09092 0.0
C1 C 0.05885 0.3125 0.13383 0.0
O2 O 0.15546 0.35394 0.10247 0.0
Zn3 Zn 0.14015 0.36465 0.12517 0.0
O4 O 0.10659 0.31309 0.09155 0.0
Zn5 Zn 0.09946 0.32585 0.11209 0.0
O6 O 0.10671 0.37794 0.10864 0.0
O7 O 0.15061 0.41239 0.1241 0.0
O8 O 0.05278 0.29904 0.12026 0.0
O9 O 0.08994 0.33725 0.13723 0.0
O10 O 0.16947 0.35607 0.1388 0.0
O11 O 0.12874 0.30854 0.12689 0.0
C12 C 0.12752 0.40862 0.11417 0.0
C13 C 0.15489 0.32328 0.13639 0.0
C14 C 0.83273 0.14961 0.30298 0.0
C15 C 0.7212 0.12327 0.27976 0.0
O16 O 0.82209 0.12417 0.29315 0.0
Zn17 Zn 0.77575 0.09493 0.27819 0.0
O18 O 0.81416 0.16382 0.30548 0.0
Zn19 Zn 0.77747 0.13579 0.29114 0.0
O20 O 0.75368 0.08544 0.30306 0.0
O21 O 0.75538 0.04812 0.28641 0.0
O22 O 0.74088 0.14728 0.28923 0.0
O23 O 0.73068 0.10172 0.27481 0.0
O24 O 0.79599 0.10245 0.25763 0.0
O25 O 0.80483 0.1513 0.26883 0.0
C26 C 0.74728 0.05429 0.29982 0.0
C27 C 0.80954 0.13555 0.25723 0.0
C28 C 0.68434 0.83185 0.46921 0.0
C29 C 0.60227 0.71936 0.44611 0.0
O30 O 0.70039 0.82081 0.46035 0.0
Zn31 Zn 0.68513 0.77494 0.44548 0.0
O32 O 0.65128 0.81353 0.47081 0.0
Zn33 Zn 0.64464 0.77588 0.45749 0.0
O34 O 0.67147 0.75323 0.47044 0.0
O35 O 0.71173 0.75562 0.45434 0.0
O36 O 0.59726 0.73856 0.45557 0.0
O37 O 0.63361 0.72946 0.44133 0.0
O38 O 0.69995 0.79573 0.42516 0.0
O39 O 0.65676 0.80171 0.43475 0.0
C40 C 0.69694 0.74757 0.46764 0.0
C41 C 0.67895 0.80747 0.42376 0.0
C42 C 0.87155 0.67344 0.5918 0.0
C43 C 0.95303 0.69311 0.6345 0.0
O44 O 0.85586 0.65315 0.60349 0.0
Zn45 Zn 0.87153 0.64205 0.62607 0.0
O46 O 0.90469 0.69305 0.59217 0.0
Zn47 Zn 0.91225 0.68054 0.61275 0.0
O48 O 0.90439 0.62844 0.6094 0.0
O49 O 0.86043 0.59401 0.62477 0.0
O50 O 0.95943 0.70643 0.62088 0.0
O51 O 0.92171 0.66909 0.63795 0.0
O52 O 0.84349 0.65123 0.64013 0.0
O53 O 0.883 0.6982 0.62735 0.0
C54 C 0.88343 0.59774 0.61484 0.0
C55 C 0.85758 0.6838 0.63722 0.0
C56 C 0.17895 0.85533 0.80333 0.0
C57 C 0.29162 0.88669 0.78005 0.0
O58 O 0.18847 0.88069 0.79353 0.0
Zn59 Zn 0.23377 0.91108 0.77835 0.0
O60 O 0.19875 0.84244 0.80568 0.0
Zn61 Zn 0.23509 0.87204 0.79145 0.0
O62 O 0.25696 0.92248 0.8031 0.0
O63 O 0.25258 0.95793 0.7862 0.0
O64 O 0.27391 0.86401 0.79038 0.0
O65 O 0.27984 0.90582 0.77429 0.0
O66 O 0.21209 0.90272 0.75826 0.0
O67 O 0.20868 0.85522 0.7687 0.0
C68 C 0.26175 0.95296 0.79962 0.0
C69 C 0.20167 0.87019 0.75741 0.0
C70 C 0.31267 0.2603 0.96621 0.0
C71 C 0.33407 0.20085 0.92325 0.0
O72 O 0.3375 0.25404 0.96957 0.0
Zn73 Zn 0.36468 0.23098 0.95771 0.0
O74 O 0.29891 0.25267 0.95267 0.0
Zn75 Zn 0.32593 0.23299 0.94442 0.0
O76 O 0.30847 0.18614 0.95886 0.0
O77 O 0.35539 0.19297 0.97145 0.0
O78 O 0.31388 0.21371 0.92372 0.0
O79 O 0.35431 0.20528 0.93495 0.0
O80 O 0.41259 0.26819 0.95668 0.0
O81 O 0.37802 0.27766 0.94126 0.0
C82 C 0.32274 0.17463 0.96859 0.0
C83 C 0.40874 0.28751 0.94678 0.0
C84 C 0.68672 0.85613 0.70723 0.0
C85 C 0.60344 0.88662 0.72916 0.0
O86 O 0.70194 0.88238 0.71662 0.0
Zn87 Zn 0.68613 0.91327 0.73088 0.0
O88 O 0.65399 0.84236 0.7047 0.0
Zn89 Zn 0.64622 0.87239 0.71825 0.0
O90 O 0.67352 0.92189 0.70577 0.0
O91 O 0.71334 0.95942 0.7221 0.0
O92 O 0.59878 0.86288 0.71946 0.0
O93 O 0.63447 0.90715 0.73447 0.0
O94 O 0.69962 0.90681 0.75137 0.0
O95 O 0.65718 0.8579 0.74119 0.0
C96 C 0.69887 0.95291 0.70872 0.0
C97 C 0.67872 0.87402 0.75246 0.0
C98 C 0.80839 0.67154 0.91824 0.0
C99 C 0.74979 0.69397 0.87503 0.0
O100 O 0.80342 0.65095 0.90663 0.0
Zn101 Zn 0.77843 0.64151 0.88361 0.0
O102 O 0.79619 0.69228 0.91759 0.0
Zn103 Zn 0.77665 0.6801 0.89699 0.0
O104 O 0.73183 0.62799 0.90013 0.0
O105 O 0.74085 0.59386 0.88429 0.0
O106 O 0.75682 0.70715 0.88866 0.0
O107 O 0.75636 0.66941 0.87165 0.0
O108 O 0.81656 0.65068 0.87 0.0
O109 O 0.82412 0.69733 0.88301 0.0
C110 C 0.72171 0.59747 0.89435 0.0
C111 C 0.83543 0.68303 0.87325 0.0
C112 C 0.15484 0.83342 0.03913 0.0
C113 C 0.12851 0.72065 0.06111 0.0
O114 O 0.12853 0.82136 0.04854 0.0
Zn115 Zn 0.09916 0.77438 0.0629 0.0
O116 O 0.16987 0.81562 0.03656 0.0
Zn117 Zn 0.14087 0.77721 0.05006 0.0
O118 O 0.09126 0.75405 0.03766 0.0
O119 O 0.0526 0.75368 0.05415 0.0
O120 O 0.15197 0.74019 0.05139 0.0
O121 O 0.10723 0.73022 0.06636 0.0
O122 O 0.10563 0.7939 0.08358 0.0
O123 O 0.15498 0.80275 0.07283 0.0
C124 C 0.05974 0.74687 0.04066 0.0
C125 C 0.13872 0.80711 0.08432 0.0
C126 C 0.3122 0.05355 0.20901 0.0
C127 C 0.33185 0.13328 0.25225 0.0
O128 O 0.33739 0.08462 0.20591 0.0
Zn129 Zn 0.36435 0.13461 0.21831 0.0
O130 O 0.29794 0.04715 0.22243 0.0
Zn131 Zn 0.32482 0.09332 0.23093 0.0
O132 O 0.30816 0.12301 0.21619 0.0
O133 O 0.35613 0.16441 0.20478 0.0
O134 O 0.31173 0.1003 0.25153 0.0
O135 O 0.35277 0.14921 0.24081 0.0
O136 O 0.41223 0.14555 0.22014 0.0
O137 O 0.37651 0.09955 0.23429 0.0
C138 C 0.3232 0.14958 0.20696 0.0
C139 C 0.40763 0.12114 0.22944 0.0
C140 C 0.29052 0.40792 0.39414 0.0
C141 C 0.17589 0.3232 0.37331 0.0
O142 O 0.28034 0.37725 0.39977 0.0
Zn143 Zn 0.23433 0.32575 0.3973 0.0
O144 O 0.27083 0.41203 0.38455 0.0
Zn145 Zn 0.23294 0.36445 0.38379 0.0
O146 O 0.20749 0.35525 0.40659 0.0
O147 O 0.21573 0.31507 0.41814 0.0
O148 O 0.19496 0.35555 0.37006 0.0
O149 O 0.18702 0.30885 0.38317 0.0
O150 O 0.25222 0.29711 0.38917 0.0
O151 O 0.2547 0.33582 0.37205 0.0
C152 C 0.20306 0.33543 0.41844 0.0
C153 C 0.25997 0.31042 0.37556 0.0
C154 C 0.88371 0.28734 0.56103 0.0
C155 C 0.85593 0.17502 0.53853 0.0
O156 O 0.90467 0.27737 0.56637 0.0
Zn157 Zn 0.91135 0.23224 0.563 0.0
O158 O 0.86033 0.26812 0.55122 0.0
Zn159 Zn 0.87097 0.231 0.5498 0.0
O160 O 0.85504 0.2041 0.57226 0.0
O161 O 0.90358 0.21201 0.58357 0.0
O162 O 0.84187 0.1937 0.53595 0.0
O163 O 0.88184 0.18598 0.54815 0.0
O164 O 0.95806 0.25167 0.55493 0.0
O165 O 0.92145 0.25393 0.53794 0.0
C166 C 0.87051 0.19902 0.58391 0.0
C167 C 0.95237 0.25974 0.5414 0.0
H168 H 0.08737 0.67671 0.08453 0.0
H169 H 0.08532 0.62311 0.09391 0.0
H170 H 0.16114 0.63516 0.05885 0.0
H171 H 0.164 0.68911 0.0497 0.0
H172 H 0.06705 0.56158 0.08166 0.0
H173 H 0.21463 0.60722 0.07263 0.0
H174 H 0.27178 0.66215 0.0728 0.0
H175 H 0.22967 0.70976 0.10316 0.0
H176 H 0.17244 0.655 0.10333 0.0
H177 H 0.09279 0.41446 0.08862 0.0
H178 H 0.09093 0.46654 0.07985 0.0
H179 H 0.1538 0.52424 0.11968 0.0
H180 H 0.15682 0.47285 0.12812 0.0
H181 H 0.17758 0.56361 0.09577 0.0
H182 H 0.0624 0.49273 0.11686 0.0
H183 H 1.00446 0.4396 0.12008 0.0
H184 H 0.98031 0.44542 0.07179 0.0
H185 H 0.03832 0.49835 0.06823 0.0
C186 C 0.10359 0.66793 0.07881 0.0
C187 C 0.12608 0.6874 0.06645 0.0
C188 C 0.1023 0.6372 0.08415 0.0
C189 C 0.12342 0.62528 0.07724 0.0
C190 C 0.14511 0.64414 0.0646 0.0
C191 C 0.14664 0.67498 0.05934 0.0
C192 C 0.1233 0.59353 0.0834 0.0
C193 C 0.09122 0.562 0.08474 0.0
C194 C 0.15471 0.59416 0.08776 0.0
C195 C 0.18916 0.62711 0.08785 0.0
C196 C 0.21762 0.62938 0.07938 0.0
C197 C 0.25001 0.66049 0.07941 0.0
C198 C 0.25432 0.68946 0.08794 0.0
C199 C 0.22626 0.68735 0.09651 0.0
C200 C 0.19383 0.6563 0.09653 0.0
C201 C 0.10608 0.43823 0.09553 0.0
C202 C 0.12498 0.43951 0.10906 0.0
C203 C 0.10487 0.46797 0.09055 0.0
C204 C 0.12193 0.49937 0.09918 0.0
C205 C 0.14053 0.50048 0.11276 0.0
C206 C 0.14216 0.47098 0.11761 0.0
C207 C 0.12133 0.5314 0.09391 0.0
C208 C 0.15336 0.56305 0.09269 0.0
C209 C 0.08976 0.53108 0.09014 0.0
C210 C 0.05484 0.49931 0.09224 0.0
C211 C 0.04483 0.48253 0.1069 0.0
C212 C 0.01196 0.45248 0.10879 0.0
C213 C 0.98875 0.43909 0.09613 0.0
C214 C 0.99833 0.45579 0.08157 0.0
C215 C 0.03119 0.48584 0.07962 0.0
H216 H 0.96332 0.41582 0.09762 0.0
H217 H 0.27941 0.71353 0.08795 0.0
H218 H 0.6626 0.06528 0.26856 0.0
H219 H 0.60698 0.06078 0.26057 0.0
H220 H 0.64959 0.17096 0.27037 0.0
H221 H 0.70433 0.17498 0.27916 0.0
H222 H 0.58772 0.13978 0.28035 0.0
H223 H 0.63857 0.13396 0.23161 0.0
H224 H 0.66473 0.11149 0.21259 0.0
H225 H 0.57093 0.01057 0.21336 0.0
H226 H 0.54437 0.03233 0.23254 0.0
H227 H 0.47632 0.17262 0.22999 0.0
H228 H 0.52685 0.16838 0.23919 0.0
H229 H 0.45894 0.0589 0.2498 0.0
H230 H 0.40785 0.06311 0.24102 0.0
H231 H 0.52951 0.08507 0.23006 0.0
H232 H 0.47944 0.09668 0.27891 0.0
H233 H 0.45576 0.12492 0.29609 0.0
H234 H 0.55279 0.22258 0.29265 0.0
H235 H 0.57684 0.19501 0.27523 0.0
C236 C 0.66004 0.08851 0.26897 0.0
C237 C 0.68781 0.12048 0.27447 0.0
C238 C 0.62828 0.08599 0.26432 0.0
C239 C 0.62406 0.11565 0.26461 0.0
C240 C 0.65197 0.14761 0.27006 0.0
C241 C 0.68335 0.14993 0.27504 0.0
C242 C 0.59057 0.11357 0.25951 0.0
C243 C 0.57531 0.12801 0.26928 0.0
C244 C 0.57374 0.09781 0.24517 0.0
C245 C 0.58965 0.08466 0.23364 0.0
C246 C 0.62363 0.1069 0.22781 0.0
C247 C 0.63851 0.09431 0.21699 0.0
C248 C 0.61955 0.0596 0.21181 0.0
C249 C 0.58562 0.03743 0.2174 0.0
C250 C 0.57062 0.04988 0.22824 0.0
C251 C 0.47208 0.1476 0.23426 0.0
C252 C 0.4381 0.11819 0.2348 0.0
C253 C 0.50097 0.14527 0.23951 0.0
C254 C 0.49652 0.11336 0.24514 0.0
C255 C 0.46279 0.08374 0.24547 0.0
C256 C 0.4337 0.08623 0.24052 0.0
C257 C 0.52733 0.11142 0.25085 0.0
C258 C 0.54201 0.0964 0.24118 0.0
C259 C 0.54411 0.12735 0.26507 0.0
C260 C 0.52978 0.14387 0.27564 0.0
C261 C 0.49559 0.12426 0.28169 0.0
C262 C 0.48214 0.14012 0.2915 0.0
C263 C 0.50272 0.17555 0.29543 0.0
C264 C 0.53686 0.19515 0.28958 0.0
C265 C 0.55042 0.17941 0.27975 0.0
H266 H 0.49226 0.18778 0.30303 0.0
H267 H 0.63111 0.0499 0.20342 0.0
H268 H 0.60272 0.66968 0.42673 0.0
H269 H 0.55206 0.61481 0.41772 0.0
H270 H 0.48282 0.63891 0.44383 0.0
H271 H 0.53305 0.69313 0.45309 0.0
H272 H 0.46333 0.57257 0.44763 0.0
H273 H 0.49323 0.65125 0.40384 0.0
H274 H 0.53217 0.69201 0.38355 0.0
H275 H 0.54746 0.61055 0.36424 0.0
H276 H 0.50894 0.56941 0.38456 0.0
H277 H 0.31794 0.47637 0.38525 0.0
H278 H 0.37285 0.52704 0.39378 0.0
H279 H 0.39581 0.4596 0.42206 0.0
H280 H 0.34043 0.4087 0.41379 0.0
H281 H 0.43986 0.54628 0.39097 0.0
H282 H 0.43897 0.50394 0.45516 0.0
H283 H 0.39648 0.46717 0.47545 0.0
H284 H 0.31696 0.48268 0.45384 0.0
H285 H 0.35908 0.5199 0.43356 0.0
C286 C 0.5767 0.66323 0.43057 0.0
C287 C 0.57198 0.68588 0.44061 0.0
C288 C 0.54775 0.6319 0.42537 0.0
C289 C 0.51354 0.6228 0.43 0.0
C290 C 0.5089 0.64524 0.44014 0.0
C291 C 0.53773 0.67637 0.44537 0.0
C292 C 0.48234 0.5902 0.42423 0.0
C293 C 0.45836 0.56673 0.43524 0.0
C294 C 0.47546 0.58274 0.40807 0.0
C295 C 0.49852 0.60738 0.39582 0.0
C296 C 0.50511 0.64211 0.39534 0.0
C297 C 0.52707 0.66527 0.38382 0.0
C298 C 0.54237 0.65391 0.37264 0.0
C299 C 0.53565 0.61933 0.37292 0.0
C300 C 0.51374 0.59608 0.38443 0.0
C301 C 0.33465 0.47222 0.39326 0.0
C302 C 0.32461 0.43844 0.39892 0.0
C303 C 0.36617 0.50126 0.39808 0.0
C304 C 0.38838 0.49726 0.40867 0.0
C305 C 0.37888 0.46345 0.41405 0.0
C306 C 0.34723 0.43434 0.40928 0.0
C307 C 0.42087 0.52868 0.41437 0.0
C308 C 0.44509 0.55189 0.40336 0.0
C309 C 0.42754 0.53641 0.43053 0.0
C310 C 0.40207 0.51433 0.44274 0.0
C311 C 0.41244 0.49956 0.45477 0.0
C312 C 0.38842 0.47864 0.46626 0.0
C313 C 0.35401 0.47248 0.4659 0.0
C314 C 0.34357 0.48735 0.45407 0.0
C315 C 0.3675 0.50832 0.44257 0.0
H316 H 0.33545 0.45627 0.4748 0.0
H317 H 0.55936 0.67187 0.36373 0.0
H318 H 0.93129 0.59644 0.59468 0.0
H319 H 0.93426 0.54515 0.58574 0.0
H320 H 0.8436 0.47797 0.61381 0.0
H321 H 0.84085 0.52904 0.62301 0.0
H322 H 0.89074 0.45791 0.61641 0.0
H323 H 0.83705 0.48597 0.57407 0.0
H324 H 0.83243 0.5239 0.55402 0.0
H325 H 0.92708 0.53911 0.5323 0.0
H326 H 0.93251 0.50162 0.55236 0.0
H327 H 0.84024 0.31284 0.5535 0.0
H328 H 0.84295 0.3665 0.56279 0.0
H329 H 0.93579 0.39148 0.58965 0.0
H330 H 0.9328 0.33722 0.58064 0.0
H331 H 0.88866 0.43324 0.55962 0.0
H332 H 0.93655 0.43508 0.62291 0.0
H333 H 0.93392 0.39354 0.64305 0.0
H334 H 0.83816 0.31201 0.62297 0.0
H335 H 0.83998 0.35317 0.60284 0.0
C336 C 0.91202 0.57076 0.59897 0.0
C337 C 0.88574 0.56687 0.60952 0.0
C338 C 0.9137 0.54144 0.59382 0.0
C339 C 0.88894 0.50762 0.59898 0.0
C340 C 0.86303 0.50377 0.60968 0.0
C341 C 0.86142 0.53303 0.61488 0.0
C342 C 0.88956 0.47612 0.5931 0.0
C343 C 0.89047 0.45262 0.60399 0.0
C344 C 0.88863 0.46884 0.5769 0.0
C345 C 0.88539 0.49131 0.56481 0.0
C346 C 0.85702 0.49763 0.56509 0.0
C347 C 0.85423 0.51901 0.55371 0.0
C348 C 0.8795 0.53399 0.54192 0.0
C349 C 0.90756 0.52754 0.54146 0.0
C350 C 0.9105 0.50621 0.55282 0.0
C351 C 0.8613 0.3297 0.56138 0.0
C352 C 0.88622 0.32059 0.56639 0.0
C353 C 0.86287 0.36051 0.56664 0.0
C354 C 0.88938 0.38296 0.57703 0.0
C355 C 0.91476 0.37433 0.58182 0.0
C356 C 0.91309 0.34334 0.57663 0.0
C357 C 0.88995 0.41505 0.58293 0.0
C358 C 0.88931 0.4387 0.57204 0.0
C359 C 0.89021 0.422 0.59913 0.0
C360 C 0.88866 0.39711 0.61127 0.0
C361 C 0.91489 0.40831 0.62282 0.0
C362 C 0.91355 0.38483 0.63423 0.0
C363 C 0.88597 0.35013 0.63425 0.0
C364 C 0.85959 0.33886 0.6229 0.0
C365 C 0.86079 0.36224 0.61148 0.0
H366 H 0.88499 0.33199 0.64309 0.0
H367 H 0.87729 0.55053 0.53313 0.0
H368 H 0.53853 0.85763 0.71567 0.0
H369 H 0.48792 0.8621 0.7244 0.0
H370 H 0.54847 0.92708 0.76309 0.0
H371 H 0.5997 0.92351 0.75424 0.0
H372 H 0.46168 0.84515 0.76041 0.0
H373 H 0.54154 0.97749 0.75493 0.0
H374 H 0.58383 0.02693 0.73859 0.0
H375 H 0.51191 0.98821 0.69983 0.0
H376 H 0.46946 0.93827 0.71593 0.0
H377 H 0.3373 0.87597 0.79734 0.0
H378 H 0.39235 0.88038 0.78889 0.0
H379 H 0.37689 0.90927 0.74243 0.0
H380 H 0.32268 0.90703 0.75122 0.0
H381 H 0.44214 0.94446 0.74825 0.0
H382 H 0.35826 0.82238 0.75317 0.0
H383 H 0.31324 0.76832 0.76606 0.0
H384 H 0.3875 0.77963 0.80157 0.0
H385 H 0.43286 0.834 0.789 0.0
C386 C 0.54124 0.87311 0.72598 0.0
C387 C 0.57319 0.89026 0.73426 0.0
C388 C 0.5123 0.87568 0.73091 0.0
C389 C 0.51467 0.89526 0.74425 0.0
C390 C 0.5464 0.91238 0.75259 0.0
C391 C 0.57556 0.9102 0.74755 0.0
C392 C 0.48325 0.89612 0.74983 0.0
C393 C 0.45754 0.86706 0.75803 0.0
C394 C 0.47735 0.924 0.74609 0.0
C395 C 0.50264 0.95406 0.73653 0.0
C396 C 0.53495 0.9794 0.74288 0.0
C397 C 0.55889 0.00752 0.73368 0.0
C398 C 0.55061 0.01065 0.71816 0.0
C399 C 0.51833 0.98571 0.71183 0.0
C400 C 0.49434 0.95751 0.72098 0.0
C401 C 0.34575 0.88343 0.78534 0.0
C402 C 0.32558 0.89083 0.77488 0.0
C403 C 0.37714 0.88573 0.78047 0.0
C404 C 0.38846 0.89417 0.76487 0.0
C405 C 0.36875 0.90251 0.75451 0.0
C406 C 0.33773 0.90116 0.75951 0.0
C407 C 0.42046 0.89374 0.75939 0.0
C408 C 0.44618 0.92263 0.75095 0.0
C409 C 0.42602 0.86521 0.76267 0.0
C410 C 0.39885 0.83243 0.77022 0.0
C411 C 0.36492 0.81345 0.76378 0.0
C412 C 0.33935 0.78274 0.77103 0.0
C413 C 0.34748 0.7706 0.78465 0.0
C414 C 0.38123 0.78909 0.79103 0.0
C415 C 0.40689 0.81983 0.78384 0.0
H416 H 0.32765 0.74682 0.79024 0.0
H417 H 0.56917 0.03244 0.71106 0.0
H418 H 0.41224 0.33049 0.92271 0.0
H419 H 0.4641 0.38372 0.91332 0.0
H420 H 0.5265 0.37346 0.94977 0.0
H421 H 0.47515 0.31988 0.95895 0.0
H422 H 0.50702 0.44589 0.92521 0.0
H423 H 0.60827 0.40037 0.93698 0.0
H424 H 0.61031 0.34536 0.93793 0.0
H425 H 0.52178 0.29639 0.90683 0.0
H426 H 0.5195 0.35123 0.90553 0.0
H427 H 0.68031 0.59205 0.91941 0.0
H428 H 0.62596 0.54027 0.92791 0.0
H429 H 0.63253 0.48174 0.88882 0.0
H430 H 0.68732 0.53291 0.8806 0.0
H431 H 0.61587 0.44289 0.91316 0.0
H432 H 0.57305 0.51334 0.89008 0.0
H433 H 0.5687 0.56651 0.88588 0.0
H434 H 0.53638 0.56252 0.93363 0.0
H435 H 0.54099 0.50956 0.93817 0.0
C436 C 0.437 0.33961 0.92875 0.0
C437 C 0.4396 0.32073 0.94149 0.0
C438 C 0.46661 0.37012 0.92339 0.0
C439 C 0.49937 0.38237 0.93068 0.0
C440 C 0.50172 0.36416 0.94373 0.0
C441 C 0.47226 0.33355 0.949 0.0
C442 C 0.53123 0.41375 0.9245 0.0
C443 C 0.53083 0.44525 0.92258 0.0
C444 C 0.56212 0.41281 0.92073 0.0
C445 C 0.56352 0.37982 0.92129 0.0
C446 C 0.58933 0.3779 0.9303 0.0
C447 C 0.59051 0.34674 0.9309 0.0
C448 C 0.56612 0.31737 0.92249 0.0
C449 C 0.54057 0.31912 0.9134 0.0
C450 C 0.5393 0.35022 0.91274 0.0
C451 C 0.67009 0.56817 0.9126 0.0
C452 C 0.68817 0.56662 0.89933 0.0
C453 C 0.6389 0.5386 0.91743 0.0
C454 C 0.62483 0.50708 0.90892 0.0
C455 C 0.64281 0.50564 0.89562 0.0
C456 C 0.67415 0.535 0.89091 0.0
C457 C 0.5919 0.47529 0.91403 0.0
C458 C 0.59211 0.44364 0.91579 0.0
C459 C 0.56057 0.47589 0.9172 0.0
C460 C 0.55769 0.50768 0.9145 0.0
C461 C 0.56526 0.52395 0.89971 0.0
C462 C 0.56271 0.55403 0.89727 0.0
C463 C 0.55236 0.56794 0.90949 0.0
C464 C 0.54444 0.55174 0.92418 0.0
C465 C 0.54699 0.52167 0.92669 0.0
H466 H 0.55039 0.59122 0.90757 0.0
H467 H 0.56706 0.29327 0.92298 0.0
H468 H 0.34744 0.21556 0.19558 0.0
H469 H 0.31314 0.2401 0.18428 0.0
H470 H 0.21834 0.14032 0.18969 0.0
H471 H 0.25242 0.11564 0.2014 0.0
H472 H 0.23179 0.17904 0.15832 0.0
H473 H 0.22297 0.191 0.21394 0.0
H474 H 0.24695 0.20746 0.24068 0.0
H475 H 0.3106 0.3147 0.22619 0.0
H476 H 0.28743 0.29877 0.19928 0.0
H477 H 0.12344 0.25174 0.13882 0.0
H478 H 0.1468 0.2178 0.15159 0.0
H479 H 0.24081 0.31384 0.16406 0.0
H480 H 0.21716 0.3478 0.15184 0.0
H481 H 0.22199 0.27114 0.18761 0.0
H482 H 0.23637 0.26081 0.13232 0.0
H483 H 0.21702 0.24638 0.10486 0.0
H484 H 0.14771 0.13895 0.1177 0.0
H485 H 0.16632 0.15286 0.14529 0.0
C486 C 0.31932 0.19875 0.19429 0.0
C487 C 0.30258 0.16371 0.19941 0.0
C488 C 0.2998 0.21283 0.18787 0.0
C489 C 0.26329 0.19199 0.18623 0.0
C490 C 0.24652 0.15673 0.1909 0.0
C491 C 0.26598 0.14277 0.19762 0.0
C492 C 0.24285 0.20766 0.17995 0.0
C493 C 0.22895 0.1987 0.16479 0.0
C494 C 0.24008 0.23384 0.18833 0.0
C495 C 0.25369 0.24362 0.20455 0.0
C496 C 0.24231 0.21804 0.21642 0.0
C497 C 0.25571 0.22728 0.23162 0.0
C498 C 0.28034 0.26208 0.23512 0.0
C499 C 0.29154 0.28774 0.22345 0.0
C500 C 0.27825 0.27863 0.20823 0.0
C501 C 0.14906 0.26559 0.14431 0.0
C502 C 0.16851 0.30246 0.14426 0.0
C503 C 0.16244 0.24616 0.15156 0.0
C504 C 0.19582 0.26322 0.15862 0.0
C505 C 0.215 0.30004 0.15873 0.0
C506 C 0.20147 0.31944 0.15169 0.0
C507 C 0.21115 0.243 0.16576 0.0
C508 C 0.22426 0.25117 0.18113 0.0
C509 C 0.21359 0.21638 0.15748 0.0
C510 C 0.20243 0.20796 0.14089 0.0
C511 C 0.2168 0.23417 0.12931 0.0
C512 C 0.206 0.22608 0.11371 0.0
C513 C 0.18107 0.19179 0.10954 0.0
C514 C 0.16697 0.16551 0.12095 0.0
C515 C 0.17764 0.17348 0.13657 0.0
H516 H 0.17275 0.18558 0.09746 0.0
H517 H 0.2907 0.26918 0.24689 0.0
H518 H 0.89029 0.14634 0.29335 0.0
H519 H 0.94778 0.17244 0.30612 0.0
H520 H 0.90848 0.2075 0.34423 0.0
H521 H 0.85173 0.18315 0.33107 0.0
H522 H 0.96731 0.25746 0.33708 0.0
H523 H 0.92722 0.13626 0.34741 0.0
H524 H 0.90359 0.07362 0.34134 0.0
H525 H 0.99103 0.09984 0.31098 0.0
H526 H 0.01524 0.16266 0.31686 0.0
H527 H 0.12278 0.25838 0.38202 0.0
H528 H 0.0636 0.22586 0.37094 0.0
H529 H 0.09081 0.30803 0.33687 0.0
H530 H 0.14953 0.34113 0.3482 0.0
H531 H 0.03669 0.19756 0.34394 0.0
H532 H 0.02212 0.31863 0.32902 0.0
H533 H 0.04309 0.37859 0.33885 0.0
H534 H 0.0583 0.34764 0.3846 0.0
H535 H 0.03698 0.28742 0.37511 0.0
C536 C 0.89392 0.15938 0.30452 0.0
C537 C 0.86663 0.16285 0.3112 0.0
C538 C 0.92674 0.17412 0.31187 0.0
C539 C 0.93254 0.1917 0.32627 0.0
C540 C 0.90486 0.1943 0.33311 0.0
C541 C 0.87238 0.1803 0.3256 0.0
C542 C 0.96784 0.20912 0.33382 0.0
C543 C 0.98233 0.24421 0.3386 0.0
C544 C 0.98747 0.19189 0.33609 0.0
C545 C 0.97287 0.15417 0.33247 0.0
C546 C 0.94128 0.12868 0.33935 0.0
C547 C 0.9278 0.09315 0.33597 0.0
C548 C 0.94567 0.08278 0.32572 0.0
C549 C 0.97717 0.10792 0.31889 0.0
C550 C 0.99085 0.14348 0.32228 0.0
C551 C 0.11617 0.26947 0.37214 0.0
C552 C 0.14074 0.30249 0.36608 0.0
C553 C 0.08235 0.2508 0.36579 0.0
C554 C 0.07253 0.26471 0.35322 0.0
C555 C 0.09748 0.29709 0.34679 0.0
C556 C 0.13111 0.31595 0.35325 0.0
C557 C 0.03603 0.24581 0.34703 0.0
C558 C 0.02146 0.21061 0.34245 0.0
C559 C 0.01577 0.26252 0.34544 0.0
C560 C 0.02828 0.29861 0.3513 0.0
C561 C 0.02982 0.32459 0.34119 0.0
C562 C 0.04179 0.35863 0.3467 0.0
C563 C 0.05213 0.36695 0.36233 0.0
C564 C 0.05041 0.34121 0.37249 0.0
C565 C 0.03842 0.30713 0.36704 0.0
H566 H 0.06141 0.39331 0.36657 0.0
H567 H 0.93516 0.05525 0.32311 0.0
H568 H 0.79479 0.13928 0.52205 0.0
H569 H 0.76919 0.08045 0.51091 0.0
H570 H 0.8586 0.07311 0.52661 0.0
H571 H 0.88443 0.13204 0.53796 0.0
H572 H 0.83468 0.0489 0.49467 0.0
H573 H 0.79042 0.03735 0.54723 0.0
H574 H 0.76197 0.05228 0.56832 0.0
H575 H 0.66688 0.00981 0.54143 0.0
H576 H 0.69534 0.99656 0.51974 0.0
H577 H 0.75347 0.86665 0.47792 0.0
H578 H 0.78562 0.92378 0.49089 0.0
H579 H 0.69179 0.93213 0.49055 0.0
H580 H 0.65929 0.87433 0.47846 0.0
H581 H 0.72177 0.95552 0.51645 0.0
H582 H 0.76352 0.97625 0.46335 0.0
H583 H 0.78982 0.96748 0.43951 0.0
H584 H 0.88452 0.99482 0.46488 0.0
H585 H 0.85859 0.00334 0.48893 0.0
C586 C 0.8092 0.12533 0.52305 0.0
C587 C 0.84158 0.14027 0.53097 0.0
C588 C 0.79449 0.0917 0.51669 0.0
C589 C 0.81192 0.07244 0.51806 0.0
C590 C 0.84478 0.08763 0.52547 0.0
C591 C 0.85939 0.1212 0.53199 0.0
C592 C 0.79502 0.03591 0.51224 0.0
C593 C 0.81027 0.02825 0.49956 0.0
C594 C 0.76271 0.00941 0.51841 0.0
C595 C 0.7452 0.01623 0.53175 0.0
C596 C 0.76356 0.03149 0.54571 0.0
C597 C 0.74742 0.03965 0.55779 0.0
C598 C 0.71258 0.03174 0.55627 0.0
C599 C 0.69386 0.01587 0.54261 0.0
C600 C 0.71005 0.00821 0.53037 0.0
C601 C 0.73978 0.88072 0.48067 0.0
C602 C 0.70394 0.86615 0.47715 0.0
C603 C 0.75819 0.91346 0.48801 0.0
C604 C 0.74137 0.93273 0.49148 0.0
C605 C 0.70544 0.9179 0.48806 0.0
C606 C 0.68687 0.88486 0.4811 0.0
C607 C 0.76094 0.96839 0.49855 0.0
C608 C 0.74629 0.97595 0.51157 0.0
C609 C 0.79331 0.99509 0.49241 0.0
C610 C 0.80897 0.99003 0.47797 0.0
C611 C 0.78986 0.98014 0.46387 0.0
C612 C 0.80471 0.97526 0.45032 0.0
C613 C 0.83878 0.98048 0.45069 0.0
C614 C 0.85811 0.99071 0.46462 0.0
C615 C 0.84336 0.99559 0.47821 0.0
H616 H 0.85024 0.97669 0.44019 0.0
H617 H 0.70012 0.03797 0.56568 0.0
H618 H 0.85481 0.74004 0.62544 0.0
H619 H 0.82844 0.77166 0.63768 0.0
H620 H 0.80541 0.70716 0.67904 0.0
H621 H 0.82961 0.67413 0.66638 0.0
H622 H 0.75269 0.712 0.67359 0.0
H623 H 0.87455 0.7984 0.67623 0.0
H624 H 0.93446 0.83672 0.66619 0.0
H625 H 0.89622 0.88806 0.63574 0.0
H626 H 0.83599 0.84974 0.64546 0.0
H627 H 0.7544 0.87244 0.71331 0.0
H628 H 0.78635 0.84551 0.70196 0.0
H629 H 0.69716 0.78046 0.67262 0.0
H630 H 0.66477 0.80654 0.68418 0.0
H631 H 0.80828 0.84168 0.67384 0.0
H632 H 0.68835 0.70064 0.66834 0.0
H633 H 0.63225 0.66266 0.68184 0.0
H634 H 0.67399 0.7213 0.72429 0.0
H635 H 0.73046 0.75929 0.71113 0.0
C636 C 0.84431 0.73287 0.63719 0.0
C637 C 0.84419 0.7047 0.64499 0.0
C638 C 0.82942 0.75108 0.64424 0.0
C639 C 0.81528 0.74224 0.65943 0.0
C640 C 0.81593 0.71448 0.66731 0.0
C641 C 0.82987 0.69567 0.6601 0.0
C642 C 0.79839 0.76069 0.6669 0.0
C643 C 0.76502 0.74038 0.67365 0.0
C644 C 0.8145 0.79778 0.66729 0.0
C645 C 0.85072 0.82099 0.66148 0.0
C646 C 0.87889 0.81772 0.66732 0.0
C647 C 0.91291 0.83946 0.6617 0.0
C648 C 0.91913 0.86475 0.65031 0.0
C649 C 0.89136 0.86843 0.64455 0.0
C650 C 0.85728 0.84674 0.65013 0.0
C651 C 0.74162 0.85247 0.7044 0.0
C652 C 0.70691 0.84141 0.69975 0.0
C653 C 0.75997 0.83718 0.69789 0.0
C654 C 0.744 0.8106 0.6866 0.0
C655 C 0.70979 0.80041 0.68155 0.0
C656 C 0.69134 0.81544 0.68814 0.0
C657 C 0.76268 0.7929 0.68035 0.0
C658 C 0.7962 0.81333 0.67379 0.0
C659 C 0.74732 0.75595 0.68064 0.0
C660 C 0.7135 0.73303 0.68868 0.0
C661 C 0.68558 0.70535 0.68057 0.0
C662 C 0.65372 0.68383 0.68816 0.0
C663 C 0.64952 0.68964 0.70389 0.0
C664 C 0.67722 0.71691 0.71209 0.0
C665 C 0.70914 0.73847 0.70456 0.0
H666 H 0.62483 0.67297 0.70975 0.0
H667 H 0.94549 0.88155 0.64596 0.0
H668 H 0.858 0.67152 0.84538 0.0
H669 H 0.91697 0.70394 0.83427 0.0
H670 H 0.95188 0.77239 0.87454 0.0
H671 H 0.89233 0.74108 0.88528 0.0
H672 H 0.98225 0.8096 0.85057 0.0
H673 H 0.96842 0.70195 0.86991 0.0
H674 H 0.94027 0.63787 0.87335 0.0
H675 H 0.95134 0.62551 0.82418 0.0
H676 H 0.97916 0.68951 0.82041 0.0
H677 H 0.15625 0.80987 0.82805 0.0
H678 H 0.09972 0.7844 0.84138 0.0
H679 H 0.06772 0.84126 0.81058 0.0
H680 H 0.12476 0.86772 0.7975 0.0
H681 H 0.03795 0.74219 0.8319 0.0
H682 H 0.00905 0.85763 0.82787 0.0
H683 H 0.041 0.92228 0.82943 0.0
H684 H 0.12296 0.92015 0.85602 0.0
H685 H 0.09152 0.85559 0.85462 0.0
C686 C 0.87823 0.69362 0.85181 0.0
C687 C 0.87068 0.70368 0.86623 0.0
C688 C 0.912 0.71204 0.84549 0.0
C689 C 0.9392 0.74018 0.85371 0.0
C690 C 0.93143 0.75077 0.86796 0.0
C691 C 0.89742 0.73284 0.87411 0.0
C692 C 0.97576 0.75806 0.84756 0.0
C693 C 0.9944 0.79483 0.84649 0.0
C694 C 0.99221 0.739 0.84265 0.0
C695 C 0.97559 0.7005 0.84486 0.0
C696 C 0.96464 0.68554 0.85982 0.0
C697 C 0.94877 0.64924 0.86183 0.0
C698 C 0.94395 0.62762 0.84899 0.0
C699 C 0.95506 0.64228 0.83411 0.0
C700 C 0.97091 0.67857 0.83203 0.0
C701 C 0.13729 0.81717 0.82418 0.0
C702 C 0.145 0.84081 0.8117 0.0
C703 C 0.10491 0.80253 0.8318 0.0
C704 C 0.07942 0.811 0.82708 0.0
C705 C 0.08713 0.83476 0.81466 0.0
C706 C 0.11971 0.84974 0.80712 0.0
C707 C 0.04428 0.79372 0.8347 0.0
C708 C 0.02584 0.757 0.83599 0.0
C709 C 0.02866 0.81293 0.84042 0.0
C710 C 0.04808 0.8518 0.84099 0.0
C711 C 0.03392 0.87099 0.83402 0.0
C712 C 0.05197 0.90762 0.83486 0.0
C713 C 0.08407 0.92533 0.84276 0.0
C714 C 0.09823 0.90645 0.8498 0.0
C715 C 0.08036 0.86984 0.84894 0.0
H716 H 0.09786 0.95365 0.8435 0.0
H717 H 0.93165 0.59952 0.85057 0.0
H718 H 0.13181 0.88027 0.0435 0.0
H719 H 0.15434 0.93791 0.03127 0.0
H720 H 0.23024 0.92282 0.00564 0.0
H721 H 0.20776 0.86516 0.01767 0.0
H722 H 0.21848 0.99547 0.03264 0.0
H723 H 0.24331 0.96144 0.96996 0.0
H724 H 0.21787 0.91107 0.95184 0.0
H725 H 0.11791 0.86955 0.97464 0.0
H726 H 0.1426 0.91991 0.99275 0.0
H727 H 0.34369 0.14482 0.99116 0.0
H728 H 0.30919 0.0871 1.00321 0.0
H729 H 0.21932 0.06819 0.97546 0.0
H730 H 0.25374 0.12596 0.96323 0.0
H731 H 0.22951 0.01238 0.97502 0.0
H732 H 0.22035 0.08533 0.01372 0.0
H733 H 0.24161 0.13545 0.03186 0.0
H734 H 0.30209 0.09893 0.05684 0.0
H735 H 0.28149 0.04876 0.03875 0.0
C736 C 0.15318 0.88913 0.0352 0.0
C737 C 0.16792 0.86805 0.03154 0.0
C738 C 0.16608 0.92213 0.02826 0.0
C739 C 0.19375 0.93453 0.01744 0.0
C740 C 0.20853 0.91356 0.01378 0.0
C741 C 0.19572 0.88064 0.02073 0.0
C742 C 0.20782 0.96973 0.01022 0.0
C743 C 0.22078 0.99916 0.02004 0.0
C744 C 0.21014 0.97451 0.99377 0.0
C745 C 0.19492 0.94433 0.98279 0.0
C746 C 0.21586 0.94165 0.97106 0.0
C747 C 0.20158 0.91308 0.9608 0.0
C748 C 0.16633 0.88708 0.96211 0.0
C749 C 0.14525 0.88965 0.97367 0.0
C750 C 0.15939 0.91818 0.98394 0.0
C751 C 0.31654 0.12849 0.98764 0.0
C752 C 0.30148 0.14003 0.97623 0.0
C753 C 0.29681 0.09555 0.99461 0.0
C754 C 0.2616 0.07347 0.99033 0.0
C755 C 0.24644 0.08486 0.97894 0.0
C756 C 0.26613 0.11791 0.972 0.0
C757 C 0.24108 0.03812 0.99745 0.0
C758 C 0.22697 0.00866 0.98761 0.0
C759 C 0.23715 0.0333 0.01387 0.0
C760 C 0.24957 0.06341 0.0248 0.0
C761 C 0.23838 0.08812 0.02301 0.0
C762 C 0.25028 0.11652 0.03329 0.0
C763 C 0.27326 0.12042 0.04546 0.0
C764 C 0.28431 0.09588 0.0474 0.0
C765 C 0.27248 0.06742 0.03715 0.0
H766 H 0.28244 0.14243 0.05341 0.0
H767 H 0.15533 0.86497 0.95417 0.0
H768 H 0.21045 0.3588 0.08886 0.0
H769 H 0.24248 0.35064 0.0674 0.0
H770 H 0.14626 0.29553 0.0409 0.0
H771 H 0.11398 0.30257 0.06251 0.0
H772 H 0.17894 0.26061 0.03957 0.0
H773 H 0.21383 0.38178 0.03196 0.0
H774 H 0.2382 0.44377 0.03947 0.0
H775 H 0.33711 0.45124 0.05042 0.0
H776 H 0.31318 0.38914 0.04317 0.0
H777 H 0.25085 0.26092 0.9655 0.0
H778 H 0.22463 0.27783 0.98655 0.0
H779 H 0.3157 0.30725 0.01544 0.0
H780 H 0.34203 0.28986 0.99449 0.0
H781 H 0.28795 0.35591 0.01575 0.0
H782 H 0.2517 0.23392 0.0227 0.0
H783 H 0.22688 0.17267 0.01396 0.0
H784 H 0.12895 0.16764 1.00332 0.0
H785 H 0.15348 0.22919 0.01165 0.0
C786 C 0.1962 0.3453 0.07838 0.0
C787 C 0.15966 0.33134 0.07739 0.0
C788 C 0.21457 0.34074 0.06608 0.0
C789 C 0.1969 0.32271 0.05242 0.0
C790 C 0.16053 0.30943 0.05131 0.0
C791 C 0.1421 0.31359 0.06367 0.0
C792 C 0.21584 0.31621 0.03956 0.0
C793 C 0.20248 0.28162 0.03425 0.0
C794 C 0.24714 0.34337 0.03281 0.0
C795 C 0.26159 0.38071 0.03717 0.0
C796 C 0.24069 0.39657 0.03609 0.0
C797 C 0.25444 0.43173 0.04028 0.0
C798 C 0.28915 0.4514 0.04546 0.0
C799 C 0.31021 0.43596 0.04643 0.0
C800 C 0.29658 0.40079 0.04226 0.0
C801 C 0.26555 0.27138 0.97625 0.0
C802 C 0.29848 0.27388 0.97835 0.0
C803 C 0.25048 0.28096 0.98827 0.0
C804 C 0.26816 0.29358 1.00256 0.0
C805 C 0.30168 0.29758 1.00448 0.0
C806 C 0.31659 0.28751 0.99253 0.0
C807 C 0.25065 0.3006 0.01575 0.0
C808 C 0.26435 0.3351 0.02113 0.0
C809 C 0.21951 0.27346 0.02249 0.0
C810 C 0.20456 0.2363 0.01764 0.0
C811 C 0.22498 0.21987 0.01836 0.0
C812 C 0.21095 0.18507 0.01351 0.0
C813 C 0.17637 0.16628 0.00808 0.0
C814 C 0.15575 0.18224 0.00751 0.0
C815 C 0.1697 0.21709 0.01229 0.0
H816 H 0.16555 0.13933 1.00433 0.0
H817 H 0.29975 0.47863 0.0487 0.0
H818 H 0.8573 0.20576 0.25611 0.0
H819 H 0.89803 0.23821 0.23491 0.0
H820 H 0.85341 0.14401 0.20692 0.0
H821 H 0.81361 0.11118 0.22833 0.0
H822 H 0.92028 0.17403 0.20505 0.0
H823 H 0.83863 0.2156 0.19976 0.0
H824 H 0.80339 0.24188 0.20844 0.0
H825 H 0.89754 0.33701 0.22069 0.0
H826 H 0.93334 0.31112 0.21227 0.0
H827 H 0.99529 0.25221 0.13233 0.0
H828 H 0.95171 0.2252 0.15312 0.0
H829 H 0.01529 0.31235 0.18359 0.0
H830 H 0.05945 0.33953 0.16285 0.0
H831 H 0.94003 0.28783 0.18422 0.0
H832 H 0.02091 0.24441 0.18901 0.0
H833 H 0.05475 0.21757 0.17912 0.0
H834 H 0.959 0.1244 0.16655 0.0
H835 H 0.92459 0.15095 0.17613 0.0
C836 C 0.85591 0.19205 0.24537 0.0
C837 C 0.83219 0.15589 0.2439 0.0
C838 C 0.87916 0.21069 0.23321 0.0
C839 C 0.87864 0.19374 0.21917 0.0
C840 C 0.85446 0.15774 0.21761 0.0
C841 C 0.83161 0.13899 0.22985 0.0
C842 C 0.90428 0.213 0.2064 0.0
C843 C 0.9241 0.19864 0.20038 0.0
C844 C 0.91011 0.24563 0.20048 0.0
C845 C 0.88865 0.26128 0.20553 0.0
C846 C 0.85181 0.24202 0.20442 0.0
C847 C 0.83173 0.25687 0.20927 0.0
C848 C 0.84821 0.29106 0.21515 0.0
C849 C 0.88481 0.31051 0.21615 0.0
C850 C 0.90501 0.29577 0.21133 0.0
C851 C 0.99991 0.2659 0.14337 0.0
C852 C 0.03098 0.29797 0.14595 0.0
C853 C 0.97497 0.25036 0.15526 0.0
C854 C 0.98042 0.26667 0.16991 0.0
C855 C 0.01064 0.29937 0.17235 0.0
C856 C 0.03587 0.31478 0.16051 0.0
C857 C 0.9554 0.24853 0.1829 0.0
C858 C 0.93593 0.26316 0.18895 0.0
C859 C 0.94957 0.21597 0.18876 0.0
C860 C 0.97019 0.19981 0.18315 0.0
C861 C 0.00708 0.21831 0.18402 0.0
C862 C 0.02636 0.20314 0.17849 0.0
C863 C 0.00904 0.16934 0.17218 0.0
C864 C 0.97238 0.1506 0.17142 0.0
C865 C 0.95298 0.16569 0.17691 0.0
H866 H 0.02401 0.15763 0.1679 0.0
H867 H 0.83262 0.30251 0.2189 0.0
H868 H 0.73668 0.06105 0.3309 0.0
H869 H 0.71958 0.01665 0.35144 0.0
H870 H 0.70891 0.94038 0.31698 0.0
H871 H 0.72597 0.98458 0.29634 0.0
H872 H 0.65616 0.91201 0.33985 0.0
H873 H 0.78223 0.98171 0.33643 0.0
H874 H 0.8384 0.03749 0.33593 0.0
H875 H 0.81929 0.06116 0.38242 0.0
H876 H 0.76253 0.00579 0.38305 0.0
H877 H 0.72835 0.83139 0.40058 0.0
H878 H 0.73527 0.87079 0.37898 0.0
H879 H 0.64316 0.8734 0.39429 0.0
H880 H 0.636 0.8339 0.41602 0.0
H881 H 0.74666 0.9377 0.38055 0.0
H882 H 0.60286 0.88228 0.3607 0.0
H883 H 0.54727 0.82575 0.36017 0.0
H884 H 0.6047 0.77045 0.35876 0.0
H885 H 0.66059 0.82662 0.35904 0.0
C886 C 0.7302 0.03471 0.32763 0.0
C887 C 0.73301 0.02647 0.31198 0.0
C888 C 0.72047 0.00938 0.3394 0.0
C889 C 0.7133 0.97532 0.33575 0.0
C890 C 0.71432 0.9665 0.32005 0.0
C891 C 0.72425 0.99187 0.30828 0.0
C892 C 0.70751 0.94975 0.34839 0.0
C893 C 0.67583 0.91766 0.3488 0.0
C894 C 0.73344 0.95692 0.35991 0.0
C895 C 0.76796 0.98978 0.35972 0.0
C896 C 0.78989 0.99891 0.34651 0.0
C897 C 0.82185 0.03046 0.3462 0.0
C898 C 0.8324 0.05291 0.35913 0.0
C899 C 0.81106 0.04377 0.37241 0.0
C900 C 0.77898 0.01231 0.37274 0.0
C901 C 0.70934 0.84005 0.39931 0.0
C902 C 0.68159 0.82944 0.41005 0.0
C903 C 0.71346 0.86274 0.38699 0.0
C904 C 0.68973 0.87501 0.38501 0.0
C905 C 0.66163 0.86403 0.39553 0.0
C906 C 0.65761 0.84149 0.40795 0.0
C907 C 0.6951 0.90002 0.37216 0.0
C908 C 0.7268 0.93209 0.37169 0.0
C909 C 0.66934 0.89261 0.36052 0.0
C910 C 0.6359 0.85867 0.36007 0.0
C911 C 0.60361 0.85806 0.36022 0.0
C912 C 0.57206 0.82608 0.35997 0.0
C913 C 0.57246 0.79453 0.35949 0.0
C914 C 0.60442 0.7949 0.35919 0.0
C915 C 0.63605 0.8268 0.35942 0.0
H916 H 0.548 0.7698 0.35932 0.0
H917 H 0.85712 0.07737 0.35887 0.0
H918 H 0.8006 0.64774 0.59011 0.0
H919 H 0.76787 0.65618 0.56901 0.0
H920 H 0.8633 0.71233 0.54216 0.0
H921 H 0.89631 0.70494 0.56342 0.0
H922 H 0.83022 0.747 0.54143 0.0
H923 H 0.79616 0.62648 0.53301 0.0
H924 H 0.77258 0.56435 0.5401 0.0
H925 H 0.67338 0.55532 0.55174 0.0
H926 H 0.69654 0.61756 0.54492 0.0
H927 H 0.75833 0.74627 0.46741 0.0
H928 H 0.78404 0.72931 0.48867 0.0
H929 H 0.69321 0.70154 0.51733 0.0
H930 H 0.66729 0.71903 0.49611 0.0
H931 H 0.721 0.65184 0.51762 0.0
H932 H 0.75698 0.77377 0.52516 0.0
H933 H 0.78154 0.83515 0.51658 0.0
H934 H 0.87912 0.8403 0.50518 0.0
H935 H 0.85491 0.7787 0.51343 0.0
C936 C 0.81456 0.66154 0.57964 0.0
C937 C 0.8511 0.67567 0.57846 0.0
C938 C 0.79576 0.66627 0.56754 0.0
C939 C 0.813 0.68467 0.55388 0.0
C940 C 0.84937 0.69814 0.55257 0.0
C941 C 0.86822 0.69378 0.56473 0.0
C942 C 0.79359 0.69134 0.54125 0.0
C943 C 0.8066 0.72603 0.53613 0.0
C944 C 0.76222 0.66422 0.53452 0.0
C945 C 0.74821 0.62679 0.53862 0.0
C946 C 0.76941 0.61133 0.53721 0.0
C947 C 0.7561 0.57608 0.54116 0.0
C948 C 0.72153 0.55593 0.54641 0.0
C949 C 0.70017 0.57097 0.54769 0.0
C950 C 0.71337 0.60623 0.54378 0.0
C951 C 0.74354 0.73621 0.47815 0.0
C952 C 0.71078 0.73416 0.48008 0.0
C953 C 0.75835 0.72657 0.49029 0.0
C954 C 0.7406 0.71437 0.50457 0.0
C955 C 0.70727 0.71089 0.50637 0.0
C956 C 0.69258 0.721 0.49427 0.0
C957 C 0.758 0.70723 0.51782 0.0
C958 C 0.74459 0.67262 0.52303 0.0
C959 C 0.78922 0.73431 0.52454 0.0
C960 C 0.80401 0.77151 0.51977 0.0
C961 C 0.78358 0.78789 0.5207 0.0
C962 C 0.79745 0.82273 0.51592 0.0
C963 C 0.83184 0.84158 0.51031 0.0
C964 C 0.85247 0.82565 0.50951 0.0
C965 C 0.83869 0.79077 0.51425 0.0
H966 H 0.84253 0.86856 0.50661 0.0
H967 H 0.71128 0.52864 0.54946 0.0
H968 H 0.18683 0.80469 0.74758 0.0
H969 H 0.14981 0.77108 0.72537 0.0
H970 H 0.12851 0.85488 0.71537 0.0
H971 H 0.16653 0.88896 0.73688 0.0
H972 H 0.08493 0.74334 0.71909 0.0
H973 H 0.1131 0.86129 0.67821 0.0
H974 H 0.16282 0.91945 0.67135 0.0
H975 H 0.23553 0.88654 0.68582 0.0
H976 H 0.18628 0.82804 0.69257 0.0
H977 H 0.94525 0.69342 0.66612 0.0
H978 H 0.99132 0.71957 0.68593 0.0
H979 H 0.07005 0.74784 0.65001 0.0
H980 H 0.02388 0.72364 0.63006 0.0
H981 H 0.0919 0.79886 0.66761 0.0
H982 H 0.04728 0.67856 0.67866 0.0
H983 H 1.00294 0.61695 0.68402 0.0
H984 H 0.97313 0.64802 0.7263 0.0
H985 H 0.01696 0.70989 0.72109 0.0
C986 C 0.17452 0.81602 0.74051 0.0
C987 C 0.17995 0.84965 0.74389 0.0
C988 C 0.15326 0.79676 0.72785 0.0
C989 C 0.13676 0.81061 0.71844 0.0
C990 C 0.14172 0.84393 0.72206 0.0
C991 C 0.16339 0.86338 0.73447 0.0
C992 C 0.11344 0.7901 0.70515 0.0
C993 C 0.08661 0.75541 0.70779 0.0
C994 C 0.11614 0.80527 0.6902 0.0
C995 C 0.14595 0.84034 0.68601 0.0
C996 C 0.13969 0.86639 0.67985 0.0
C997 C 0.1678 0.89944 0.676 0.0
C998 C 0.20231 0.90671 0.67819 0.0
C999 C 0.20879 0.88091 0.68419 0.0
C1000 C 0.18078 0.84782 0.68805 0.0
C1001 C 0.97239 0.70492 0.66248 0.0
C1002 C 0.98098 0.70643 0.64655 0.0
C1003 C 0.99879 0.71969 0.67384 0.0
C1004 C 0.03439 0.73524 0.6696 0.0
C1005 C 0.0429 0.73611 0.65367 0.0
C1006 C 0.0165 0.72216 0.64225 0.0
C1007 C 0.06265 0.75236 0.68166 0.0
C1008 C 0.09041 0.78651 0.67881 0.0
C1009 C 0.06161 0.73613 0.69618 0.0
C1010 C 0.03528 0.69892 0.69942 0.0
C1011 C 0.03113 0.67229 0.68905 0.0
C1012 C 0.0061 0.63731 0.69207 0.0
C1013 C 0.98519 0.62858 0.70547 0.0
C1014 C 0.98933 0.65482 0.71591 0.0
C1015 C 0.01431 0.68985 0.71294 0.0
H1016 H 0.96582 0.60149 0.70779 0.0
H1017 H 0.22402 0.93232 0.6752 0.0
H1018 H 0.3547 0.15168 0.92216 0.0
H1019 H 0.34712 0.11213 0.90056 0.0
H1020 H 0.30338 0.16202 0.872 0.0
H1021 H 0.3094 0.20047 0.89383 0.0
H1022 H 0.2649 0.09632 0.86881 0.0
H1023 H 0.38915 0.17294 0.86643 0.0
H1024 H 0.4499 0.20522 0.87641 0.0
H1025 H 0.44481 0.10799 0.88847 0.0
H1026 H 0.38384 0.07512 0.87875 0.0
H1027 H 0.26759 0.01765 0.79717 0.0
H1028 H 0.28539 0.06239 0.8175 0.0
H1029 H 0.30522 0.99784 0.8492 0.0
H1030 H 0.28737 0.95275 0.82891 0.0
H1031 H 0.3569 0.07098 0.85032 0.0
H1032 H 0.23083 0.99557 0.85167 0.0
H1033 H 0.17218 0.96592 0.83944 0.0
H1034 H 0.18297 0.06569 0.82755 0.0
H1035 H 0.24218 0.09596 0.8393 0.0
C1036 C 0.34385 0.15447 0.91121 0.0
C1037 C 0.33266 0.17921 0.9097 0.0
C1038 C 0.33966 0.13192 0.89881 0.0
C1039 C 0.32504 0.13423 0.8845 0.0
C1040 C 0.31463 0.15955 0.88289 0.0
C1041 C 0.3182 0.18163 0.89538 0.0
C1042 C 0.31886 0.10919 0.87149 0.0
C1043 C 0.28529 0.09132 0.86465 0.0
C1044 C 0.34511 0.10191 0.86617 0.0
C1045 C 0.3818 0.12158 0.872 0.0
C1046 C 0.40089 0.15845 0.87132 0.0
C1047 C 0.43538 0.17685 0.87691 0.0
C1048 C 0.45117 0.15867 0.8831 0.0
C1049 C 0.43253 0.12204 0.88368 0.0
C1050 C 0.39801 0.10351 0.87812 0.0
C1051 C 0.27611 0.01306 0.80839 0.0
C1052 C 0.27577 0.98145 0.81144 0.0
C1053 C 0.28625 0.03868 0.82 0.0
C1054 C 0.29629 0.03326 0.83489 0.0
C1055 C 0.29753 1.00249 0.83778 0.0
C1056 C 0.28717 0.97671 0.82619 0.0
C1057 C 0.30326 0.05868 0.84771 0.0
C1058 C 0.33677 0.07634 0.85452 0.0
C1059 C 0.27717 0.06624 0.85285 0.0
C1060 C 0.2411 0.04803 0.84623 0.0
C1061 C 0.2208 0.01119 0.84636 0.0
C1062 C 0.18744 0.99426 0.83952 0.0
C1063 C 0.17385 0.0139 0.83272 0.0
C1064 C 0.19355 0.05051 0.8328 0.0
C1065 C 0.22703 0.06757 0.83953 0.0
H1066 H 0.14807 1.00076 0.82738 0.0
H1067 H 0.47787 0.17297 0.88743 0.0
H1068 H 0.63669 0.80412 0.75945 0.0
H1069 H 0.64419 0.7713 0.78091 0.0
H1070 H 0.73403 0.86632 0.7975 0.0
H1071 H 0.72675 0.89926 0.77623 0.0
H1072 H 0.74764 0.81218 0.79494 0.0
H1073 H 0.65882 0.83272 0.81707 0.0
H1074 H 0.60179 0.8308 0.81766 0.0
H1075 H 0.54788 0.71835 0.81504 0.0
H1076 H 0.60463 0.71963 0.81421 0.0
H1077 H 0.72773 0.74179 0.87875 0.0
H1078 H 0.71057 0.76926 0.85826 0.0
H1079 H 0.72416 0.70638 0.82332 0.0
H1080 H 0.74135 0.67875 0.8437 0.0
H1081 H 0.6579 0.74406 0.8353 0.0
H1082 H 0.76538 0.761 0.79199 0.0
H1083 H 0.82347 0.76509 0.79226 0.0
H1084 H 0.8422 0.80769 0.83879 0.0
H1085 H 0.78449 0.80433 0.83869 0.0
C1086 C 0.65783 0.8181 0.76776 0.0
C1087 C 0.68113 0.85434 0.7661 0.0
C1088 C 0.66204 0.7993 0.78003 0.0
C1089 C 0.68969 0.81638 0.7908 0.0
C1090 C 0.7126 0.8526 0.78929 0.0
C1091 C 0.70827 0.87141 0.77715 0.0
C1092 C 0.69567 0.79651 0.80336 0.0
C1093 C 0.72794 0.79719 0.80372 0.0
C1094 C 0.67009 0.77713 0.81488 0.0
C1095 C 0.63597 0.7763 0.81541 0.0
C1096 C 0.6348 0.8076 0.81648 0.0
C1097 C 0.60253 0.80663 0.81688 0.0
C1098 C 0.57123 0.77448 0.81634 0.0
C1099 C 0.57214 0.74323 0.81543 0.0
C1100 C 0.60435 0.74407 0.81501 0.0
C1101 C 0.72672 0.73351 0.86673 0.0
C1102 C 0.73618 0.70825 0.86286 0.0
C1103 C 0.71674 0.74913 0.85504 0.0
C1104 C 0.71638 0.74009 0.83926 0.0
C1105 C 0.72454 0.71395 0.83542 0.0
C1106 C 0.7343 0.69815 0.8471 0.0
C1107 C 0.70973 0.75958 0.82677 0.0
C1108 C 0.67742 0.75882 0.82642 0.0
C1109 C 0.73537 0.77919 0.81531 0.0
C1110 C 0.77046 0.78204 0.81538 0.0
C1111 C 0.78197 0.77137 0.80224 0.0
C1112 C 0.81482 0.77355 0.80237 0.0
C1113 C 0.83646 0.78652 0.81556 0.0
C1114 C 0.82537 0.79752 0.82861 0.0
C1115 C 0.79258 0.79545 0.82853 0.0
H1116 H 0.86184 0.78812 0.81565 0.0
H1117 H 0.54627 0.77377 0.81666 0.0
H1118 H 0.8349 0.72083 0.9414 0.0
H1119 H 0.87641 0.72739 0.96198 0.0
H1120 H 0.8742 0.63327 0.94623 0.0
H1121 H 0.8328 0.62662 0.92538 0.0
H1122 H 0.87242 0.63985 0.97993 0.0
H1123 H 0.93932 0.70347 0.93515 0.0
H1124 H 0.95559 0.74528 0.91322 0.0
H1125 H 0.98136 0.82918 0.9457 0.0
H1126 H 0.96459 0.78772 0.96781 0.0
H1127 H 0.0678 0.73502 0.00988 0.0
H1128 H 0.02394 0.71561 0.98898 0.0
H1129 H 0.94652 0.70806 0.02213 0.0
H1130 H 0.99012 0.72719 0.04313 0.0
H1131 H 0.98983 0.74726 0.97797 0.0
H1132 H 0.86537 0.64295 0.01057 0.0
H1133 H 0.84969 0.59908 0.03159 0.0
H1134 H 0.94206 0.59257 0.0218 0.0
H1135 H 0.95803 0.63601 1.00059 0.0
C1136 C 0.84284 0.70122 0.94239 0.0
C1137 C 0.83062 0.67326 0.93168 0.0
C1138 C 0.86665 0.7051 0.95414 0.0
C1139 C 0.87854 0.68097 0.95554 0.0
C1140 C 0.86531 0.65216 0.94533 0.0
C1141 C 0.84175 0.64848 0.93341 0.0
C1142 C 0.90616 0.68708 0.96715 0.0
C1143 C 0.89812 0.66327 0.97953 0.0
C1144 C 0.9399 0.71729 0.96639 0.0
C1145 C 0.95038 0.74241 0.95313 0.0
C1146 C 0.94817 0.73078 0.93761 0.0
C1147 C 0.95752 0.75442 0.92515 0.0
C1148 C 0.96943 0.78985 0.92806 0.0
C1149 C 0.97209 0.80172 0.94345 0.0
C1150 C 0.96268 0.77816 0.95596 0.0
C1151 C 0.04135 0.72886 0.01278 0.0
C1152 C 0.03251 0.73268 0.02821 0.0
C1153 C 0.01633 0.71788 1.0008 0.0
C1154 C 0.98188 0.71019 1.00398 0.0
C1155 C 0.97281 0.71339 0.01941 0.0
C1156 C 0.99783 0.72447 0.0314 0.0
C1157 C 0.95591 0.70046 0.99106 0.0
C1158 C 0.96423 0.7237 0.9784 0.0
C1159 C 0.92264 0.66947 0.99147 0.0
C1160 C 0.91304 0.64299 1.00408 0.0
C1161 C 0.88225 0.63204 0.01286 0.0
C1162 C 0.87333 0.60727 0.02481 0.0
C1163 C 0.89492 0.59312 0.02806 0.0
C1164 C 0.92543 0.60364 0.01931 0.0
C1165 C 0.93445 0.62838 0.00734 0.0
H1166 H 0.88798 0.57397 0.03733 0.0
H1167 H 0.97667 0.80813 0.9184 0.0
H1168 H 0.20944 0.85244 0.08651 0.0
H1169 H 0.24134 0.89265 0.10794 0.0
H1170 H 0.14508 0.85185 0.1343 0.0
H1171 H 0.11284 0.81248 0.11266 0.0
H1172 H 0.17768 0.91917 0.13579 0.0
H1173 H 0.21301 0.8333 0.1434 0.0
H1174 H 0.23726 0.79552 0.13593 0.0
H1175 H 0.33602 0.88655 0.12475 0.0
H1176 H 0.3122 0.92488 0.13196 0.0
H1177 H 0.25079 0.991 0.20965 0.0
H1178 H 0.22456 0.94806 0.18857 0.0
H1179 H 0.31484 0.01035 0.15949 0.0
H1180 H 0.34124 0.05398 0.1805 0.0
H1181 H 0.28749 0.93359 0.15927 0.0
H1182 H 0.25026 0.01882 0.15212 0.0
H1183 H 0.22524 0.05516 0.16081 0.0
H1184 H 0.1283 0.96233 0.17238 0.0
H1185 H 0.15299 0.92542 0.164 0.0
C1186 C 0.19512 0.85175 0.09695 0.0
C1187 C 0.15858 0.82922 0.09788 0.0
C1188 C 0.21344 0.8747 0.10924 0.0
C1189 C 0.19577 0.87514 0.12287 0.0
C1190 C 0.15937 0.85213 0.12392 0.0
C1191 C 0.14096 0.82952 0.11155 0.0
C1192 C 0.21477 0.90061 0.13572 0.0
C1193 C 0.2014 0.92185 0.14104 0.0
C1194 C 0.24628 0.90493 0.14239 0.0
C1195 C 0.2607 0.88195 0.13807 0.0
C1196 C 0.23982 0.84526 0.13924 0.0
C1197 C 0.2535 0.82374 0.13507 0.0
C1198 C 0.28813 0.83862 0.12983 0.0
C1199 C 0.30919 0.87506 0.12879 0.0
C1200 C 0.29562 0.89669 0.13293 0.0
C1201 C 0.26533 0.99548 0.19885 0.0
C1202 C 0.29807 0.02605 0.19674 0.0
C1203 C 0.25024 0.9709 0.18681 0.0
C1204 C 0.26768 0.97616 0.17247 0.0
C1205 C 0.301 0.00585 0.1705 0.0
C1206 C 0.31596 0.03078 0.18249 0.0
C1207 C 0.25006 0.95153 0.15931 0.0
C1208 C 0.26374 0.93067 0.15395 0.0
C1209 C 0.21864 0.94725 0.15269 0.0
C1210 C 0.2036 0.96937 0.15758 0.0
C1211 C 0.22372 0.00616 0.15664 0.0
C1212 C 0.20958 0.02686 0.16149 0.0
C1213 C 0.17523 0.01107 0.16718 0.0
C1214 C 0.15492 0.97453 0.16799 0.0
C1215 C 0.16897 0.9537 0.16318 0.0
H1216 H 0.16433 0.02714 0.17093 0.0
H1217 H 0.29868 0.82192 0.1266 0.0
H1218 H 0.29605 0.10766 0.27972 0.0
H1219 H 0.28807 0.14055 0.30076 0.0
H1220 H 0.35299 0.23728 0.27594 0.0
H1221 H 0.36184 0.20458 0.25499 0.0
H1222 H 0.36677 0.24719 0.30625 0.0
H1223 H 0.26359 0.19891 0.27508 0.0
H1224 H 0.21241 0.1533 0.26073 0.0
H1225 H 0.16955 0.097 0.30363 0.0
H1226 H 0.22075 0.14204 0.31823 0.0
H1227 H 0.2931 0.33992 0.34786 0.0
H1228 H 0.30995 0.31244 0.3272 0.0
H1229 H 0.27081 0.21851 0.35505 0.0
H1230 H 0.25464 0.24593 0.37587 0.0
H1231 H 0.24473 0.21027 0.32239 0.0
H1232 H 0.35224 0.26324 0.35296 0.0
H1233 H 0.40303 0.31289 0.36576 0.0
H1234 H 0.43667 0.36583 0.32151 0.0
H1235 H 0.38574 0.31668 0.30848 0.0
C1236 C 0.3089 0.13596 0.27878 0.0
C1237 C 0.32941 0.15345 0.26562 0.0
C1238 C 0.30417 0.15474 0.29079 0.0
C1239 C 0.31937 0.19137 0.28981 0.0
C1240 C 0.3409 0.20904 0.27695 0.0
C1241 C 0.3459 0.19028 0.26497 0.0
C1242 C 0.31191 0.21092 0.30199 0.0
C1243 C 0.34006 0.23935 0.30963 0.0
C1244 C 0.27708 0.20084 0.30644 0.0
C1245 C 0.24619 0.17368 0.29773 0.0
C1246 C 0.24339 0.17666 0.28144 0.0
C1247 C 0.21436 0.15094 0.27327 0.0
C1248 C 0.18779 0.12223 0.28126 0.0
C1249 C 0.19017 0.11923 0.29746 0.0
C1250 C 0.21918 0.14486 0.30569 0.0
C1251 C 0.28844 0.31356 0.34965 0.0
C1252 C 0.27257 0.29511 0.3635 0.0
C1253 C 0.29811 0.29794 0.33785 0.0
C1254 C 0.29157 0.26347 0.33963 0.0
C1255 C 0.27606 0.24514 0.35348 0.0
C1256 C 0.26699 0.26093 0.36538 0.0
C1257 C 0.29953 0.24588 0.3268 0.0
C1258 C 0.2714 0.21799 0.31898 0.0
C1259 C 0.33429 0.25701 0.32196 0.0
C1260 C 0.36497 0.28646 0.32978 0.0
C1261 C 0.37027 0.28562 0.34599 0.0
C1262 C 0.39913 0.31363 0.35328 0.0
C1263 C 0.42301 0.34254 0.34447 0.0
C1264 C 0.41813 0.34345 0.32833 0.0
C1265 C 0.38929 0.31551 0.32098 0.0
H1266 H 0.44534 0.36421 0.35013 0.0
H1267 H 0.16533 0.10234 0.27491 0.0
H1268 H 0.20123 0.30998 0.44782 0.0
H1269 H 0.16102 0.30247 0.46911 0.0
H1270 H 0.11373 0.34874 0.4405 0.0
H1271 H 0.15493 0.35761 0.41935 0.0
H1272 H 0.11618 0.369 0.46935 0.0
H1273 H 0.07593 0.25798 0.44491 0.0
H1274 H 0.07985 0.20777 0.43452 0.0
H1275 H 0.1048 0.18652 0.48043 0.0
H1276 H 0.10152 0.23693 0.49106 0.0
H1277 H 0.95275 0.28769 0.51258 0.0
H1278 H 0.9977 0.30589 0.49215 0.0
H1279 H 0.06001 0.27999 0.52247 0.0
H1280 H 0.0156 0.26215 0.54297 0.0
H1281 H 0.0483 0.24978 0.4923 0.0
H1282 H 0.08647 0.36265 0.5162 0.0
H1283 H 0.07863 0.41136 0.52545 0.0
H1284 H 0.05194 0.42664 0.47883 0.0
H1285 H 0.05913 0.37766 0.46933 0.0
C1286 C 0.18253 0.31892 0.44612 0.0
C1287 C 0.1811 0.33415 0.43186 0.0
C1288 C 0.15938 0.31442 0.45827 0.0
C1289 C 0.13367 0.32421 0.4563 0.0
C1290 C 0.13317 0.34079 0.4423 0.0
C1291 C 0.15675 0.34584 0.43021 0.0
C1292 C 0.10664 0.31596 0.46861 0.0
C1293 C 0.10107 0.34282 0.47422 0.0
C1294 C 0.08688 0.28183 0.47508 0.0
C1295 C 0.08882 0.25144 0.46875 0.0
C1296 C 0.08251 0.24275 0.45277 0.0
C1297 C 0.08458 0.21424 0.44684 0.0
C1298 C 0.09266 0.19403 0.4568 0.0
C1299 C 0.0986 0.20224 0.47273 0.0
C1300 C 0.09661 0.23076 0.47871 0.0
C1301 C 0.9762 0.28623 0.51496 0.0
C1302 C 0.98055 0.27343 0.52941 0.0
C1303 C 1.00188 0.29671 0.50329 0.0
C1304 C 0.03218 0.29431 0.50582 0.0
C1305 C 0.03681 0.28204 0.52029 0.0
C1306 C 0.01142 0.27198 0.53202 0.0
C1307 C 0.05833 0.30287 0.49315 0.0
C1308 C 0.06352 0.27595 0.48742 0.0
C1309 C 0.07714 0.3367 0.4864 0.0
C1310 C 0.07299 0.36625 0.49208 0.0
C1311 C 0.07862 0.37619 0.50794 0.0
C1312 C 0.07436 0.4039 0.51323 0.0
C1313 C 0.0647 0.42202 0.50274 0.0
C1314 C 0.05938 0.41255 0.48694 0.0
C1315 C 0.06357 0.38484 0.48159 0.0
H1316 H 0.06141 0.44347 0.50686 0.0
H1317 H 0.09424 0.17195 0.45219 0.0
H1318 H 0.75891 0.01689 0.70935 0.0
H1319 H 0.78372 0.05991 0.68827 0.0
H1320 H 0.69451 0.99436 0.65903 0.0
H1321 H 0.67003 0.95057 0.67995 0.0
H1322 H 0.75158 0.0163 0.64289 0.0
H1323 H 0.70752 0.07306 0.67575 0.0
H1324 H 0.69847 0.09681 0.70033 0.0
H1325 H 0.8093 0.16881 0.70371 0.0
H1326 H 0.81909 0.14516 0.67925 0.0
H1327 H 0.80069 0.14972 0.58434 0.0
H1328 H 0.76782 0.10896 0.60561 0.0
H1329 H 0.8606 0.1562 0.63459 0.0
H1330 H 0.8938 0.19661 0.61332 0.0
H1331 H 0.7979 0.14381 0.65022 0.0
H1332 H 0.84079 0.08436 0.61742 0.0
H1333 H 0.84863 0.05926 0.59299 0.0
H1334 H 0.73711 0.99105 0.58948 0.0
H1335 H 0.72851 0.01639 0.61368 0.0
C1336 C 0.74434 0.01174 0.6985 0.0
C1337 C 0.71244 0.98026 0.69635 0.0
C1338 C 0.75851 0.03651 0.68645 0.0
C1339 C 0.74082 0.0307 0.67208 0.0
C1340 C 0.70867 0.99951 0.67 0.0
C1341 C 0.69465 0.97452 0.68199 0.0
C1342 C 0.75679 0.0563 0.65899 0.0
C1343 C 0.76102 0.04408 0.64442 0.0
C1344 C 0.76984 0.09272 0.66103 0.0
C1345 C 0.76406 0.10713 0.67572 0.0
C1346 C 0.73 0.09379 0.68179 0.0
C1347 C 0.72473 0.10726 0.69569 0.0
C1348 C 0.7533 0.13425 0.70359 0.0
C1349 C 0.7872 0.14788 0.69758 0.0
C1350 C 0.79262 0.13449 0.68369 0.0
C1351 C 0.814 0.15167 0.5953 0.0
C1352 C 0.84986 0.17636 0.59716 0.0
C1353 C 0.79522 0.12827 0.6074 0.0
C1354 C 0.81185 0.12948 0.62163 0.0
C1355 C 0.84731 0.15486 0.6237 0.0
C1356 C 0.86624 0.17785 0.61152 0.0
C1357 C 0.79265 0.10369 0.63424 0.0
C1358 C 0.78796 0.11593 0.64869 0.0
C1359 C 0.77886 0.06725 0.63205 0.0
C1360 C 0.78398 0.05265 0.61726 0.0
C1361 C 0.81789 0.06439 0.61132 0.0
C1362 C 0.82248 0.05003 0.59754 0.0
C1363 C 0.79339 0.02358 0.58969 0.0
C1364 C 0.75963 0.0115 0.59559 0.0
C1365 C 0.75487 0.02594 0.6093 0.0
H1366 H 0.79699 0.01248 0.57903 0.0
H1367 H 0.74917 0.14464 0.71436 0.0
loop_
_geom_bond_atom_site_label_1
_geom_bond_atom_site_label_2
_geom_bond_distance
_geom_bond_site_symmetry_2
_ccdc_geom_bond_type
C0 O2 1.247 . S
C0 O4 1.258 . S
C1 O8 1.247 . S
C1 O9 1.258 . S
O2 C0 1.247 . S
O2 Zn3 2.028 . S
Zn3 O2 2.028 . S
Zn3 O7 2.035 . S
Zn3 O9 2.035 . S
Zn3 O10 2.028 . S
O4 C0 1.258 . S
O4 Zn5 2.035 . S
Zn5 O4 2.035 . S
Zn5 O6 2.028 . S
Zn5 O8 2.028 . S
Zn5 O11 2.035 . S
O6 Zn5 2.028 . S
O6 C12 1.247 . S
O7 Zn3 2.035 . S
O7 C12 1.258 . S
O8 C1 1.247 . S
O8 Zn5 2.028 . S
O9 C1 1.258 . S
O9 Zn3 2.035 . S
O10 Zn3 2.028 . S
O10 C13 1.247 . S
O11 Zn5 2.035 . S
O11 C13 1.258 . S
C12 O6 1.247 . S
C12 O7 1.258 . S
C13 O10 1.247 . S
C13 O11 1.258 . S
C14 O16 1.247 . S
C14 O18 1.258 . S
C15 O22 1.247 . S
C15 O23 1.258 . S
O16 C14 1.247 . S
O16 Zn17 2.028 . S
Zn17 O16 2.028 . S
Zn17 O21 2.035 . S
Zn17 O23 2.035 . S
Zn17 O24 2.028 . S
O18 C14 1.258 . S
O18 Zn19 2.035 . S
Zn19 O18 2.035 . S
Zn19 O20 2.028 . S
Zn19 O22 2.028 . S
Zn19 O25 2.035 . S
O20 Zn19 2.028 . S
O20 C26 1.247 . S
O21 Zn17 2.035 . S
O21 C26 1.258 . S
O22 C15 1.247 . S
O22 Zn19 2.028 . S
O23 C15 1.258 . S
O23 Zn17 2.035 . S
O24 Zn17 2.028 . S
O24 C27 1.247 . S
O25 Zn19 2.035 . S
O25 C27 1.258 . S
C26 O20 1.247 . S
C26 O21 1.258 . S
C27 O24 1.247 . S
C27 O25 1.258 . S
C28 O30 1.247 . S
C28 O32 1.258 . S
C29 O36 1.247 . S
C29 O37 1.258 . S
O30 C28 1.247 . S
O30 Zn31 2.028 . S
Zn31 O30 2.028 . S
Zn31 O35 2.035 . S
Zn31 O37 2.035 . S
Zn31 O38 2.028 . S
O32 C28 1.258 . S
O32 Zn33 2.035 . S
Zn33 O32 2.035 . S
Zn33 O34 2.028 . S
Zn33 O36 2.028 . S
Zn33 O39 2.035 . S
O34 Zn33 2.028 . S
O34 C40 1.247 . S
O35 Zn31 2.035 . S
O35 C40 1.258 . S
O36 C29 1.247 . S
O36 Zn33 2.028 . S
O37 C29 1.258 . S
O37 Zn31 2.035 . S
O38 Zn31 2.028 . S
O38 C41 1.247 . S
O39 Zn33 2.035 . S
O39 C41 1.258 . S
C40 O34 1.247 . S
C40 O35 1.258 . S
C41 O38 1.247 . S
C41 O39 1.258 . S
C42 O44 1.247 . S
C42 O46 1.258 . S
C43 O50 1.247 . S
C43 O51 1.258 . S
O44 C42 1.247 . S
O44 Zn45 2.028 . S
Zn45 O44 2.028 . S
Zn45 O49 2.035 . S
Zn45 O51 2.035 . S
Zn45 O52 2.028 . S
O46 C42 1.258 . S
O46 Zn47 2.035 . S
Zn47 O46 2.035 . S
Zn47 O48 2.028 . S
Zn47 O50 2.028 . S
Zn47 O53 2.035 . S
O48 Zn47 2.028 . S
O48 C54 1.247 . S
O49 Zn45 2.035 . S
O49 C54 1.258 . S
O50 C43 1.247 . S
O50 Zn47 2.028 . S
O51 C43 1.258 . S
O51 Zn45 2.035 . S
O52 Zn45 2.028 . S
O52 C55 1.247 . S
O53 Zn47 2.035 . S
O53 C55 1.258 . S
C54 O48 1.247 . S
C54 O49 1.258 . S
C55 O52 1.247 . S
C55 O53 1.258 . S
C56 O58 1.247 . S
C56 O60 1.258 . S
C57 O64 1.247 . S
C57 O65 1.258 . S
O58 C56 1.247 . S
O58 Zn59 2.028 . S
Zn59 O58 2.028 . S
Zn59 O63 2.035 . S
Zn59 O65 2.035 . S
Zn59 O66 2.028 . S
O60 C56 1.258 . S
O60 Zn61 2.035 . S
Zn61 O60 2.035 . S
Zn61 O62 2.028 . S
Zn61 O64 2.028 . S
Zn61 O67 2.035 . S
O62 Zn61 2.028 . S
O62 C68 1.247 . S
O63 Zn59 2.035 . S
O63 C68 1.258 . S
O64 C57 1.247 . S
O64 Zn61 2.028 . S
O65 C57 1.258 . S
O65 Zn59 2.035 . S
O66 Zn59 2.028 . S
O66 C69 1.247 . S
O67 Zn61 2.035 . S
O67 C69 1.258 . S
C68 O62 1.247 . S
C68 O63 1.258 . S
C69 O66 1.247 . S
C69 O67 1.258 . S
C70 O72 1.247 . S
C70 O74 1.258 . S
C71 O78 1.247 . S
C71 O79 1.258 . S
O72 C70 1.247 . S
O72 Zn73 2.028 . S
Zn73 O72 2.028 . S
Zn73 O77 2.035 . S
Zn73 O79 2.035 . S
Zn73 O80 2.028 . S
O74 C70 1.258 . S
O74 Zn75 2.035 . S
Zn75 O74 2.035 . S
Zn75 O76 2.028 . S
Zn75 O78 2.028 . S
Zn75 O81 2.035 . S
O76 Zn75 2.028 . S
O76 C82 1.247 . S
O77 Zn73 2.035 . S
O77 C82 1.258 . S
O78 C71 1.247 . S
O78 Zn75 2.028 . S
O79 C71 1.258 . S
O79 Zn73 2.035 . S
O80 Zn73 2.028 . S
O80 C83 1.247 . S
O81 Zn75 2.035 . S
O81 C83 1.258 . S
C82 O76 1.247 . S
C82 O77 1.258 . S
C83 O80 1.247 . S
C83 O81 1.258 . S
C84 O86 1.247 . S
C84 O88 1.258 . S
C85 O92 1.247 . S
C85 O93 1.258 . S
O86 C84 1.247 . S
O86 Zn87 2.028 . S
Zn87 O86 2.028 . S
Zn87 O91 2.035 . S
Zn87 O93 2.035 . S
Zn87 O94 2.028 . S
O88 C84 1.258 . S
O88 Zn89 2.035 . S
Zn89 O88 2.035 . S
Zn89 O90 2.028 . S
Zn89 O92 2.028 . S
Zn89 O95 2.035 . S
O90 Zn89 2.028 . S
O90 C96 1.247 . S
O91 Zn87 2.035 . S
O91 C96 1.258 . S
O92 C85 1.247 . S
O92 Zn89 2.028 . S
O93 C85 1.258 . S
O93 Zn87 2.035 . S
O94 Zn87 2.028 . S
O94 C97 1.247 . S
O95 Zn89 2.035 . S
O95 C97 1.258 . S
C96 O90 1.247 . S
C96 O91 1.258 . S
C97 O94 1.247 . S
C97 O95 1.258 . S
C98 O100 1.247 . S
C98 O102 1.258 . S
C99 O106 1.247 . S
C99 O107 1.258 . S
O100 C98 1.247 . S
O100 Zn101 2.028 . S
Zn101 O100 2.028 . S
Zn101 O105 2.035 . S
Zn101 O107 2.035 . S
Zn101 O108 2.028 . S
O102 C98 1.258 . S
O102 Zn103 2.035 . S
Zn103 O102 2.035 . S
Zn103 O104 2.028 . S
Zn103 O106 2.028 . S
Zn103 O109 2.035 . S
O104 Zn103 2.028 . S
O104 C110 1.247 . S
O105 Zn101 2.035 . S
O105 C110 1.258 . S
O106 C99 1.247 . S
O106 Zn103 2.028 . S
O107 C99 1.258 . S
O107 Zn101 2.035 . S
O108 Zn101 2.028 . S
O108 C111 1.247 . S
O109 Zn103 2.035 . S
O109 C111 1.258 . S
C110 O104 1.247 . S
C110 O105 1.258 . S
C111 O108 1.247 . S
C111 O109 1.258 . S
C112 O114 1.247 . S
C112 O116 1.258 . S
C113 O120 1.247 . S
C113 O121 1.258 . S
O114 C112 1.247 . S
O114 Zn115 2.028 . S
Zn115 O114 2.028 . S
Zn115 O119 2.035 . S
Zn115 O121 2.035 . S
Zn115 O122 2.028 . S
O116 C112 1.258 . S
O116 Zn117 2.035 . S
Zn117 O116 2.035 . S
Zn117 O118 2.028 . S
Zn117 O120 2.028 . S
Zn117 O123 2.035 . S
O118 Zn117 2.028 . S
O118 C124 1.247 . S
O119 Zn115 2.035 . S
O119 C124 1.258 . S
O120 C113 1.247 . S
O120 Zn117 2.028 . S
O121 C113 1.258 . S
O121 Zn115 2.035 . S
O122 Zn115 2.028 . S
O122 C125 1.247 . S
O123 Zn117 2.035 . S
O123 C125 1.258 . S
C124 O118 1.247 . S
C124 O119 1.258 . S
C125 O122 1.247 . S
C125 O123 1.258 . S
C126 O128 1.247 . S
C126 O130 1.258 . S
C127 O134 1.247 . S
C127 O135 1.258 . S
O128 C126 1.247 . S
O128 Zn129 2.028 . S
Zn129 O128 2.028 . S
Zn129 O133 2.035 . S
Zn129 O135 2.035 . S
Zn129 O136 2.028 . S
O130 C126 1.258 . S
O130 Zn131 2.035 . S
Zn131 O130 2.035 . S
Zn131 O132 2.028 . S
Zn131 O134 2.028 . S
Zn131 O137 2.035 . S
O132 Zn131 2.028 . S
O132 C138 1.247 . S
O133 Zn129 2.035 . S
O133 C138 1.258 . S
O134 C127 1.247 . S
O134 Zn131 2.028 . S
O135 C127 1.258 . S
O135 Zn129 2.035 . S
O136 Zn129 2.028 . S
O136 C139 1.247 . S
O137 Zn131 2.035 . S
O137 C139 1.258 . S
C138 O132 1.247 . S
C138 O133 1.258 . S
C139 O136 1.247 . S
C139 O137 1.258 . S
C140 O142 1.247 . S
C140 O144 1.258 . S
C141 O148 1.247 . S
C141 O149 1.258 . S
O142 C140 1.247 . S
O142 Zn143 2.028 . S
Zn143 O142 2.028 . S
Zn143 O147 2.035 . S
Zn143 O149 2.035 . S
Zn143 O150 2.028 . S
O144 C140 1.258 . S
O144 Zn145 2.035 . S
Zn145 O144 2.035 . S
Zn145 O146 2.028 . S
Zn145 O148 2.028 . S
Zn145 O151 2.035 . S
O146 Zn145 2.028 . S
O146 C152 1.247 . S
O147 Zn143 2.035 . S
O147 C152 1.258 . S
O148 C141 1.247 . S
O148 Zn145 2.028 . S
O149 C141 1.258 . S
O149 Zn143 2.035 . S
O150 Zn143 2.028 . S
O150 C153 1.247 . S
O151 Zn145 2.035 . S
O151 C153 1.258 . S
C152 O146 1.247 . S
C152 O147 1.258 . S
C153 O150 1.247 . S
C153 O151 1.258 . S
C154 O156 1.247 . S
C154 O158 1.258 . S
C155 O162 1.247 . S
C155 O163 1.258 . S
O156 C154 1.247 . S
O156 Zn157 2.028 . S
Zn157 O156 2.028 . S
Zn157 O161 2.035 . S
Zn157 O163 2.035 . S
Zn157 O164 2.028 . S
O158 C154 1.258 . S
O158 Zn159 2.035 . S
Zn159 O158 2.035 . S
Zn159 O160 2.028 . S
Zn159 O162 2.028 . S
Zn159 O165 2.035 . S
O160 Zn159 2.028 . S
O160 C166 1.247 . S
O161 Zn157 2.035 . S
O161 C166 1.258 . S
O162 C155 1.247 . S
O162 Zn159 2.028 . S
O163 C155 1.258 . S
O163 Zn157 2.035 . S
O164 Zn157 2.028 . S
O164 C167 1.247 . S
O165 Zn159 2.035 . S
O165 C167 1.258 . S
C166 O160 1.247 . S
C166 O161 1.258 . S
C167 O164 1.247 . S
C167 O165 1.258 . S
H168 C186 0.951 . S
H169 C188 0.951 . S
H170 C190 0.950 . S
H171 C191 0.950 . S
H172 C193 0.950 . S
H173 C196 0.950 . S
H174 C197 0.950 . S
H175 C199 0.950 . S
H176 C200 0.950 . S
H177 C201 0.951 . S
H178 C203 0.951 . S
H179 C205 0.950 . S
H180 C206 0.950 . S
H181 C208 0.950 . S
H182 C211 0.950 . S
H183 C212 0.950 . S
H184 C214 0.950 . S
H185 C215 0.950 . S
C186 H168 0.951 . S
C186 C187 1.366 . S
C186 C188 1.388 . S
C187 C186 1.366 . S
C187 C191 1.385 . S
C188 H169 0.951 . S
C188 C186 1.388 . S
C188 C189 1.366 . S
C189 C188 1.366 . S
C189 C190 1.414 . S
C189 C192 1.499 . S
C190 H170 0.950 . S
C190 C189 1.414 . S
C190 C191 1.374 . S
C191 H171 0.950 . S
C191 C187 1.385 . S
C191 C190 1.374 . S
C192 C189 1.499 . S
C192 C193 1.373 . S
C192 C194 1.389 . S
C193 H172 0.950 . S
C193 C192 1.373 . S
C193 C209 1.377 . S
C194 C192 1.389 . S
C194 C195 1.524 . S
C194 C208 1.377 . S
C195 C194 1.524 . S
C195 C196 1.397 . S
C195 C200 1.363 . S
C196 H173 0.950 . S
C196 C195 1.397 . S
C196 C197 1.334 . S
C197 H174 0.950 . S
C197 C196 1.334 . S
C197 C198 1.287 . S
C198 C197 1.287 . S
C198 C199 1.524 . S
C198 H217 0.913 . S
C199 H175 0.950 . S
C199 C198 1.524 . S
C199 C200 1.415 . S
C200 H176 0.950 . S
C200 C195 1.363 . S
C200 C199 1.415 . S
C201 H177 0.951 . S
C201 C202 1.366 . S
C201 C203 1.388 . S
C202 C201 1.366 . S
C202 C206 1.385 . S
C203 H178 0.951 . S
C203 C201 1.388 . S
C203 C204 1.366 . S
C204 C203 1.366 . S
C204 C205 1.414 . S
C204 C207 1.499 . S
C205 H179 0.950 . S
C205 C204 1.414 . S
C205 C206 1.374 . S
C206 H180 0.950 . S
C206 C202 1.385 . S
C206 C205 1.374 . S
C207 C204 1.499 . S
C207 C208 1.373 . S
C207 C209 1.389 . S
C208 H181 0.950 . S
C208 C194 1.377 . S
C208 C207 1.373 . S
C209 C193 1.377 . S
C209 C207 1.389 . S
C209 C210 1.524 . S
C210 C209 1.524 . S
C210 C211 1.397 . S
C210 C215 1.363 . S
C211 H182 0.950 . S
C211 C210 1.397 . S
C211 C212 1.334 . S
C212 H183 0.950 . S
C212 C211 1.334 . S
C212 C213 1.287 . S
C213 C212 1.287 . S
C213 C214 1.524 . S
C213 H216 0.999 1_455 S
C214 H184 0.950 . S
C214 C213 1.524 . S
C214 C215 1.415 . S
C215 H185 0.950 . S
C215 C210 1.363 . S
C215 C214 1.415 . S
H216 C213 0.999 1_655 S
H217 C198 0.913 . S
H218 C236 0.951 . S
H219 C238 0.951 . S
H220 C240 0.950 . S
H221 C241 0.950 . S
H222 C243 0.950 . S
H223 C246 0.950 . S
H224 C247 0.950 . S
H225 C249 0.950 . S
H226 C250 0.950 . S
H227 C251 0.951 . S
H228 C253 0.951 . S
H229 C255 0.950 . S
H230 C256 0.950 . S
H231 C258 0.950 . S
H232 C261 0.950 . S
H233 C262 0.950 . S
H234 C264 0.950 . S
H235 C265 0.950 . S
C236 H218 0.951 . S
C236 C237 1.366 . S
C236 C238 1.388 . S
C237 C236 1.366 . S
C237 C241 1.385 . S
C238 H219 0.951 . S
C238 C236 1.388 . S
C238 C239 1.366 . S
C239 C238 1.366 . S
C239 C240 1.414 . S
C239 C242 1.499 . S
C240 H220 0.950 . S
C240 C239 1.414 . S
C240 C241 1.374 . S
C241 H221 0.950 . S
C241 C237 1.385 . S
C241 C240 1.374 . S
C242 C239 1.499 . S
C242 C243 1.373 . S
C242 C244 1.389 . S
C243 H222 0.950 . S
C243 C242 1.373 . S
C243 C259 1.377 . S
C244 C242 1.389 . S
C244 C245 1.524 . S
C244 C258 1.377 . S
C245 C244 1.524 . S
C245 C246 1.397 . S
C245 C250 1.363 . S
C246 H223 0.950 . S
C246 C245 1.397 . S
C246 C247 1.334 . S
C247 H224 0.950 . S
C247 C246 1.334 . S
C247 C248 1.287 . S
C248 C247 1.287 . S
C248 C249 1.524 . S
C248 H267 0.913 . S
C249 H225 0.950 . S
C249 C248 1.524 . S
C249 C250 1.415 . S
C250 H226 0.950 . S
C250 C245 1.363 . S
C250 C249 1.415 . S
C251 H227 0.951 . S
C251 C252 1.366 . S
C251 C253 1.388 . S
C252 C251 1.366 . S
C252 C256 1.385 . S
C253 H228 0.951 . S
C253 C251 1.388 . S
C253 C254 1.366 . S
C254 C253 1.366 . S
C254 C255 1.414 . S
C254 C257 1.499 . S
C255 H229 0.950 . S
C255 C254 1.414 . S
C255 C256 1.374 . S
C256 H230 0.950 . S
C256 C252 1.385 . S
C256 C255 1.374 . S
C257 C254 1.499 . S
C257 C258 1.373 . S
C257 C259 1.389 . S
C258 H231 0.950 . S
C258 C244 1.377 . S
C258 C257 1.373 . S
C259 C243 1.377 . S
C259 C257 1.389 . S
C259 C260 1.524 . S
C260 C259 1.524 . S
C260 C261 1.397 . S
C260 C265 1.363 . S
C261 H232 0.950 . S
C261 C260 1.397 . S
C261 C262 1.334 . S
C262 H233 0.950 . S
C262 C261 1.334 . S
C262 C263 1.287 . S
C263 C262 1.287 . S
C263 C264 1.524 . S
C263 H266 0.999 . S
C264 H234 0.950 . S
C264 C263 1.524 . S
C264 C265 1.415 . S
C265 H235 0.950 . S
C265 C260 1.363 . S
C265 C264 1.415 . S
H266 C263 0.999 . S
H267 C248 0.913 . S
H268 C286 0.951 . S
H269 C288 0.951 . S
H270 C290 0.950 . S
H271 C291 0.950 . S
H272 C293 0.950 . S
H273 C296 0.950 . S
H274 C297 0.950 . S
H275 C299 0.950 . S
H276 C300 0.950 . S
H277 C301 0.951 . S
H278 C303 0.951 . S
H279 C305 0.950 . S
H280 C306 0.950 . S
H281 C308 0.950 . S
H282 C311 0.950 . S
H283 C312 0.950 . S
H284 C314 0.950 . S
H285 C315 0.950 . S
C286 H268 0.951 . S
C286 C287 1.366 . S
C286 C288 1.388 . S
C287 C286 1.366 . S
C287 C291 1.385 . S
C288 H269 0.951 . S
C288 C286 1.388 . S
C288 C289 1.366 . S
C289 C288 1.366 . S
C289 C290 1.414 . S
C289 C292 1.499 . S
C290 H270 0.950 . S
C290 C289 1.414 . S
C290 C291 1.374 . S
C291 H271 0.950 . S
C291 C287 1.385 . S
C291 C290 1.374 . S
C292 C289 1.499 . S
C292 C293 1.373 . S
C292 C294 1.389 . S
C293 H272 0.950 . S
C293 C292 1.373 . S
C293 C309 1.377 . S
C294 C292 1.389 . S
C294 C295 1.524 . S
C294 C308 1.377 . S
C295 C294 1.524 . S
C295 C296 1.397 . S
C295 C300 1.363 . S
C296 H273 0.950 . S
C296 C295 1.397 . S
C296 C297 1.334 . S
C297 H274 0.950 . S
C297 C296 1.334 . S
C297 C298 1.287 . S
C298 C297 1.287 . S
C298 C299 1.524 . S
C298 H317 0.913 . S
C299 H275 0.950 . S
C299 C298 1.524 . S
C299 C300 1.415 . S
C300 H276 0.950 . S
C300 C295 1.363 . S
C300 C299 1.415 . S
C301 H277 0.951 . S
C301 C302 1.366 . S
C301 C303 1.388 . S
C302 C301 1.366 . S
C302 C306 1.385 . S
C303 H278 0.951 . S
C303 C301 1.388 . S
C303 C304 1.366 . S
C304 C303 1.366 . S
C304 C305 1.414 . S
C304 C307 1.499 . S
C305 H279 0.950 . S
C305 C304 1.414 . S
C305 C306 1.374 . S
C306 H280 0.950 . S
C306 C302 1.385 . S
C306 C305 1.374 . S
C307 C304 1.499 . S
C307 C308 1.373 . S
C307 C309 1.389 . S
C308 H281 0.950 . S
C308 C294 1.377 . S
C308 C307 1.373 . S
C309 C293 1.377 . S
C309 C307 1.389 . S
C309 C310 1.524 . S
C310 C309 1.524 . S
C310 C311 1.397 . S
C310 C315 1.363 . S
C311 H282 0.950 . S
C311 C310 1.397 . S
C311 C312 1.334 . S
C312 H283 0.950 . S
C312 C311 1.334 . S
C312 C313 1.287 . S
C313 C312 1.287 . S
C313 C314 1.524 . S
C313 H316 0.999 . S
C314 H284 0.950 . S
C314 C313 1.524 . S
C314 C315 1.415 . S
C315 H285 0.950 . S
C315 C310 1.363 . S
C315 C314 1.415 . S
H316 C313 0.999 . S
H317 C298 0.913 . S
H318 C336 0.951 . S
H319 C338 0.951 . S
H320 C340 0.950 . S
H321 C341 0.950 . S
H322 C343 0.950 . S
H323 C346 0.950 . S
H324 C347 0.950 . S
H325 C349 0.950 . S
H326 C350 0.950 . S
H327 C351 0.951 . S
H328 C353 0.951 . S
H329 C355 0.950 . S
H330 C356 0.950 . S
H331 C358 0.950 . S
H332 C361 0.950 . S
H333 C362 0.950 . S
H334 C364 0.950 . S
H335 C365 0.950 . S
C336 H318 0.951 . S
C336 C337 1.366 . S
C336 C338 1.388 . S
C337 C336 1.366 . S
C337 C341 1.385 . S
C338 H319 0.951 . S
C338 C336 1.388 . S
C338 C339 1.366 . S
C339 C338 1.366 . S
C339 C340 1.414 . S
C339 C342 1.499 . S
C340 H320 0.950 . S
C340 C339 1.414 . S
C340 C341 1.374 . S
C341 H321 0.950 . S
C341 C337 1.385 . S
C341 C340 1.374 . S
C342 C339 1.499 . S
C342 C343 1.373 . S
C342 C344 1.389 . S
C343 H322 0.950 . S
C343 C342 1.373 . S
C343 C359 1.377 . S
C344 C342 1.389 . S
C344 C345 1.524 . S
C344 C358 1.377 . S
C345 C344 1.524 . S
C345 C346 1.397 . S
C345 C350 1.363 . S
C346 H323 0.950 . S
C346 C345 1.397 . S
C346 C347 1.334 . S
C347 H324 0.950 . S
C347 C346 1.334 . S
C347 C348 1.287 . S
C348 C347 1.287 . S
C348 C349 1.524 . S
C348 H367 0.913 . S
C349 H325 0.950 . S
C349 C348 1.524 . S
C349 C350 1.415 . S
C350 H326 0.950 . S
C350 C345 1.363 . S
C350 C349 1.415 . S
C351 H327 0.951 . S
C351 C352 1.366 . S
C351 C353 1.388 . S
C352 C351 1.366 . S
C352 C356 1.385 . S
C353 H328 0.951 . S
C353 C351 1.388 . S
C353 C354 1.366 . S
C354 C353 1.366 . S
C354 C355 1.414 . S
C354 C357 1.499 . S
C355 H329 0.950 . S
C355 C354 1.414 . S
C355 C356 1.374 . S
C356 H330 0.950 . S
C356 C352 1.385 . S
C356 C355 1.374 . S
C357 C354 1.499 . S
C357 C358 1.373 . S
C357 C359 1.389 . S
C358 H331 0.950 . S
C358 C344 1.377 . S
C358 C357 1.373 . S
C359 C343 1.377 . S
C359 C357 1.389 . S
C359 C360 1.524 . S
C360 C359 1.524 . S
C360 C361 1.397 . S
C360 C365 1.363 . S
C361 H332 0.950 . S
C361 C360 1.397 . S
C361 C362 1.334 . S
C362 H333 0.950 . S
C362 C361 1.334 . S
C362 C363 1.287 . S
C363 C362 1.287 . S
C363 C364 1.524 . S
C363 H366 0.999 . S
C364 H334 0.950 . S
C364 C363 1.524 . S
C364 C365 1.415 . S
C365 H335 0.950 . S
C365 C360 1.363 . S
C365 C364 1.415 . S
H366 C363 0.999 . S
H367 C348 0.913 . S
H368 C386 0.951 . S
H369 C388 0.951 . S
H370 C390 0.950 . S
H371 C391 0.950 . S
H372 C393 0.950 . S
H373 C396 0.950 . S
H374 C397 0.950 . S
H375 C399 0.950 . S
H376 C400 0.950 . S
H377 C401 0.951 . S
H378 C403 0.951 . S
H379 C405 0.950 . S
H380 C406 0.950 . S
H381 C408 0.950 . S
H382 C411 0.950 . S
H383 C412 0.950 . S
H384 C414 0.950 . S
H385 C415 0.950 . S
C386 H368 0.951 . S
C386 C387 1.366 . S
C386 C388 1.388 . S
C387 C386 1.366 . S
C387 C391 1.385 . S
C388 H369 0.951 . S
C388 C386 1.388 . S
C388 C389 1.366 . S
C389 C388 1.366 . S
C389 C390 1.414 . S
C389 C392 1.499 . S
C390 H370 0.950 . S
C390 C389 1.414 . S
C390 C391 1.374 . S
C391 H371 0.950 . S
C391 C387 1.385 . S
C391 C390 1.374 . S
C392 C389 1.499 . S
C392 C393 1.373 . S
C392 C394 1.389 . S
C393 H372 0.950 . S
C393 C392 1.373 . S
C393 C409 1.377 . S
C394 C392 1.389 . S
C394 C395 1.524 . S
C394 C408 1.377 . S
C395 C394 1.524 . S
C395 C396 1.397 . S
C395 C400 1.363 . S
C396 H373 0.950 . S
C396 C395 1.397 . S
C396 C397 1.334 . S
C397 H374 0.950 . S
C397 C396 1.334 . S
C397 C398 1.287 . S
C398 C397 1.287 . S
C398 C399 1.524 . S
C398 H417 0.913 . S
C399 H375 0.950 . S
C399 C398 1.524 . S
C399 C400 1.415 . S
C400 H376 0.950 . S
C400 C395 1.363 . S
C400 C399 1.415 . S
C401 H377 0.951 . S
C401 C402 1.366 . S
C401 C403 1.388 . S
C402 C401 1.366 . S
C402 C406 1.385 . S
C403 H378 0.951 . S
C403 C401 1.388 . S
C403 C404 1.366 . S
C404 C403 1.366 . S
C404 C405 1.414 . S
C404 C407 1.499 . S
C405 H379 0.950 . S
C405 C404 1.414 . S
C405 C406 1.374 . S
C406 H380 0.950 . S
C406 C402 1.385 . S
C406 C405 1.374 . S
C407 C404 1.499 . S
C407 C408 1.373 . S
C407 C409 1.389 . S
C408 H381 0.950 . S
C408 C394 1.377 . S
C408 C407 1.373 . S
C409 C393 1.377 . S
C409 C407 1.389 . S
C409 C410 1.524 . S
C410 C409 1.524 . S
C410 C411 1.397 . S
C410 C415 1.363 . S
C411 H382 0.950 . S
C411 C410 1.397 . S
C411 C412 1.334 . S
C412 H383 0.950 . S
C412 C411 1.334 . S
C412 C413 1.287 . S
C413 C412 1.287 . S
C413 C414 1.524 . S
C413 H416 0.999 . S
C414 H384 0.950 . S
C414 C413 1.524 . S
C414 C415 1.415 . S
C415 H385 0.950 . S
C415 C410 1.363 . S
C415 C414 1.415 . S
H416 C413 0.999 . S
H417 C398 0.913 . S
H418 C436 0.951 . S
H419 C438 0.951 . S
H420 C440 0.950 . S
H421 C441 0.950 . S
H422 C443 0.950 . S
H423 C446 0.950 . S
H424 C447 0.950 . S
H425 C449 0.950 . S
H426 C450 0.950 . S
H427 C451 0.951 . S
H428 C453 0.951 . S
H429 C455 0.950 . S
H430 C456 0.950 . S
H431 C458 0.950 . S
H432 C461 0.950 . S
H433 C462 0.950 . S
H434 C464 0.950 . S
H435 C465 0.950 . S
C436 H418 0.951 . S
C436 C437 1.366 . S
C436 C438 1.388 . S
C437 C436 1.366 . S
C437 C441 1.385 . S
C438 H419 0.951 . S
C438 C436 1.388 . S
C438 C439 1.366 . S
C439 C438 1.366 . S
C439 C440 1.414 . S
C439 C442 1.499 . S
C440 H420 0.950 . S
C440 C439 1.414 . S
C440 C441 1.374 . S
C441 H421 0.950 . S
C441 C437 1.385 . S
C441 C440 1.374 . S
C442 C439 1.499 . S
C442 C443 1.373 . S
C442 C444 1.389 . S
C443 H422 0.950 . S
C443 C442 1.373 . S
C443 C459 1.377 . S
C444 C442 1.389 . S
C444 C445 1.524 . S
C444 C458 1.377 . S
C445 C444 1.524 . S
C445 C446 1.397 . S
C445 C450 1.363 . S
C446 H423 0.950 . S
C446 C445 1.397 . S
C446 C447 1.334 . S
C447 H424 0.950 . S
C447 C446 1.334 . S
C447 C448 1.287 . S
C448 C447 1.287 . S
C448 C449 1.524 . S
C448 H467 0.913 . S
C449 H425 0.950 . S
C449 C448 1.524 . S
C449 C450 1.415 . S
C450 H426 0.950 . S
C450 C445 1.363 . S
C450 C449 1.415 . S
C451 H427 0.951 . S
C451 C452 1.366 . S
C451 C453 1.388 . S
C452 C451 1.366 . S
C452 C456 1.385 . S
C453 H428 0.951 . S
C453 C451 1.388 . S
C453 C454 1.366 . S
C454 C453 1.366 . S
C454 C455 1.414 . S
C454 C457 1.499 . S
C455 H429 0.950 . S
C455 C454 1.414 . S
C455 C456 1.374 . S
C456 H430 0.950 . S
C456 C452 1.385 . S
C456 C455 1.374 . S
C457 C454 1.499 . S
C457 C458 1.373 . S
C457 C459 1.389 . S
C458 H431 0.950 . S
C458 C444 1.377 . S
C458 C457 1.373 . S
C459 C443 1.377 . S
C459 C457 1.389 . S
C459 C460 1.524 . S
C460 C459 1.524 . S
C460 C461 1.397 . S
C460 C465 1.363 . S
C461 H432 0.950 . S
C461 C460 1.397 . S
C461 C462 1.334 . S
C462 H433 0.950 . S
C462 C461 1.334 . S
C462 C463 1.287 . S
C463 C462 1.287 . S
C463 C464 1.524 . S
C463 H466 0.999 . S
C464 H434 0.950 . S
C464 C463 1.524 . S
C464 C465 1.415 . S
C465 H435 0.950 . S
C465 C460 1.363 . S
C465 C464 1.415 . S
H466 C463 0.999 . S
H467 C448 0.913 . S
H468 C486 0.951 . S
H469 C488 0.951 . S
H470 C490 0.950 . S
H471 C491 0.950 . S
H472 C493 0.950 . S
H473 C496 0.950 . S
H474 C497 0.950 . S
H475 C499 0.950 . S
H476 C500 0.950 . S
H477 C501 0.951 . S
H478 C503 0.951 . S
H479 C505 0.950 . S
H480 C506 0.950 . S
H481 C508 0.950 . S
H482 C511 0.950 . S
H483 C512 0.950 . S
H484 C514 0.950 . S
H485 C515 0.950 . S
C486 H468 0.951 . S
C486 C487 1.366 . S
C486 C488 1.388 . S
C487 C486 1.366 . S
C487 C491 1.385 . S
C488 H469 0.951 . S
C488 C486 1.388 . S
C488 C489 1.366 . S
C489 C488 1.366 . S
C489 C490 1.414 . S
C489 C492 1.499 . S
C490 H470 0.950 . S
C490 C489 1.414 . S
C490 C491 1.374 . S
C491 H471 0.950 . S
C491 C487 1.385 . S
C491 C490 1.374 . S
C492 C489 1.499 . S
C492 C493 1.373 . S
C492 C494 1.389 . S
C493 H472 0.950 . S
C493 C492 1.373 . S
C493 C509 1.377 . S
C494 C492 1.389 . S
C494 C495 1.524 . S
C494 C508 1.377 . S
C495 C494 1.524 . S
C495 C496 1.397 . S
C495 C500 1.363 . S
C496 H473 0.950 . S
C496 C495 1.397 . S
C496 C497 1.334 . S
C497 H474 0.950 . S
C497 C496 1.334 . S
C497 C498 1.287 . S
C498 C497 1.287 . S
C498 C499 1.524 . S
C498 H517 0.913 . S
C499 H475 0.950 . S
C499 C498 1.524 . S
C499 C500 1.415 . S
C500 H476 0.950 . S
C500 C495 1.363 . S
C500 C499 1.415 . S
C501 H477 0.951 . S
C501 C502 1.366 . S
C501 C503 1.388 . S
C502 C501 1.366 . S
C502 C506 1.385 . S
C503 H478 0.951 . S
C503 C501 1.388 . S
C503 C504 1.366 . S
C504 C503 1.366 . S
C504 C505 1.414 . S
C504 C507 1.499 . S
C505 H479 0.950 . S
C505 C504 1.414 . S
C505 C506 1.374 . S
C506 H480 0.950 . S
C506 C502 1.385 . S
C506 C505 1.374 . S
C507 C504 1.499 . S
C507 C508 1.373 . S
C507 C509 1.389 . S
C508 H481 0.950 . S
C508 C494 1.377 . S
C508 C507 1.373 . S
C509 C493 1.377 . S
C509 C507 1.389 . S
C509 C510 1.524 . S
C510 C509 1.524 . S
C510 C511 1.397 . S
C510 C515 1.363 . S
C511 H482 0.950 . S
C511 C510 1.397 . S
C511 C512 1.334 . S
C512 H483 0.950 . S
C512 C511 1.334 . S
C512 C513 1.287 . S
C513 C512 1.287 . S
C513 C514 1.524 . S
C513 H516 0.999 . S
C514 H484 0.950 . S
C514 C513 1.524 . S
C514 C515 1.415 . S
C515 H485 0.950 . S
C515 C510 1.363 . S
C515 C514 1.415 . S
H516 C513 0.999 . S
H517 C498 0.913 . S
H518 C536 0.951 . S
H519 C538 0.951 . S
H520 C540 0.950 . S
H521 C541 0.950 . S
H522 C543 0.950 . S
H523 C546 0.950 . S
H524 C547 0.950 . S
H525 C549 0.950 . S
H526 C550 0.950 . S
H527 C551 0.951 . S
H528 C553 0.951 . S
H529 C555 0.950 . S
H530 C556 0.950 . S
H531 C558 0.950 . S
H532 C561 0.950 . S
H533 C562 0.950 . S
H534 C564 0.950 . S
H535 C565 0.950 . S
C536 H518 0.951 . S
C536 C537 1.366 . S
C536 C538 1.388 . S
C537 C536 1.366 . S
C537 C541 1.385 . S
C538 H519 0.951 . S
C538 C536 1.388 . S
C538 C539 1.366 . S
C539 C538 1.366 . S
C539 C540 1.414 . S
C539 C542 1.499 . S
C540 H520 0.950 . S
C540 C539 1.414 . S
C540 C541 1.374 . S
C541 H521 0.950 . S
C541 C537 1.385 . S
C541 C540 1.374 . S
C542 C539 1.499 . S
C542 C543 1.373 . S
C542 C544 1.389 . S
C543 H522 0.950 . S
C543 C542 1.373 . S
C543 C559 1.377 1_655 S
C544 C542 1.389 . S
C544 C545 1.524 . S
C544 C558 1.377 1_655 S
C545 C544 1.524 . S
C545 C546 1.397 . S
C545 C550 1.363 1_655 S
C546 H523 0.950 . S
C546 C545 1.397 . S
C546 C547 1.334 . S
C547 H524 0.950 . S
C547 C546 1.334 . S
C547 C548 1.287 . S
C548 C547 1.287 . S
C548 C549 1.524 1_655 S
C548 H567 0.913 . S
C549 H525 0.950 . S
C549 C548 1.524 1_455 S
C549 C550 1.415 . S
C550 H526 0.950 . S
C550 C545 1.363 1_455 S
C550 C549 1.415 . S
C551 H527 0.951 . S
C551 C552 1.366 . S
C551 C553 1.388 . S
C552 C551 1.366 . S
C552 C556 1.385 . S
C553 H528 0.951 . S
C553 C551 1.388 . S
C553 C554 1.366 . S
C554 C553 1.366 . S
C554 C555 1.414 . S
C554 C557 1.499 . S
C555 H529 0.950 . S
C555 C554 1.414 . S
C555 C556 1.374 . S
C556 H530 0.950 . S
C556 C552 1.385 . S
C556 C555 1.374 . S
C557 C554 1.499 . S
C557 C558 1.373 . S
C557 C559 1.389 . S
C558 H531 0.950 . S
C558 C544 1.377 1_455 S
C558 C557 1.373 . S
C559 C543 1.377 1_455 S
C559 C557 1.389 . S
C559 C560 1.524 . S
C560 C559 1.524 . S
C560 C561 1.397 . S
C560 C565 1.363 1_455 S
C561 H532 0.950 . S
C561 C560 1.397 . S
C561 C562 1.334 . S
C562 H533 0.950 . S
C562 C561 1.334 . S
C562 C563 1.287 . S
C563 C562 1.287 . S
C563 C564 1.524 1_455 S
C563 H566 0.999 . S
C564 H534 0.950 . S
C564 C563 1.524 1_655 S
C564 C565 1.415 . S
C565 H535 0.950 . S
C565 C560 1.363 1_655 S
C565 C564 1.415 . S
H566 C563 0.999 . S
H567 C548 0.913 . S
H568 C586 0.951 . S
H569 C588 0.951 . S
H570 C590 0.950 . S
H571 C591 0.950 . S
H572 C593 0.950 . S
H573 C596 0.950 . S
H574 C597 0.950 . S
H575 C599 0.950 . S
H576 C600 0.950 . S
H577 C601 0.951 . S
H578 C603 0.951 . S
H579 C605 0.950 . S
H580 C606 0.950 . S
H581 C608 0.950 . S
H582 C611 0.950 . S
H583 C612 0.950 . S
H584 C614 0.950 . S
H585 C615 0.950 . S
C586 H568 0.951 . S
C586 C587 1.366 . S
C586 C588 1.388 . S
C587 C586 1.366 . S
C587 C591 1.385 . S
C588 H569 0.951 . S
C588 C586 1.388 . S
C588 C589 1.366 . S
C589 C588 1.366 . S
C589 C590 1.414 . S
C589 C592 1.499 . S
C590 H570 0.950 . S
C590 C589 1.414 . S
C590 C591 1.374 . S
C591 H571 0.950 . S
C591 C587 1.385 . S
C591 C590 1.374 . S
C592 C589 1.499 . S
C592 C593 1.373 . S
C592 C594 1.389 . S
C593 H572 0.950 . S
C593 C592 1.373 . S
C593 C609 1.377 1_545 S
C594 C592 1.389 . S
C594 C595 1.524 . S
C594 C608 1.377 1_545 S
C595 C594 1.524 . S
C595 C596 1.397 . S
C595 C600 1.363 . S
C596 H573 0.950 . S
C596 C595 1.397 . S
C596 C597 1.334 . S
C597 H574 0.950 . S
C597 C596 1.334 . S
C597 C598 1.287 . S
C598 C597 1.287 . S
C598 C599 1.524 . S
C598 H617 0.913 . S
C599 H575 0.950 . S
C599 C598 1.524 . S
C599 C600 1.415 . S
C600 H576 0.950 . S
C600 C595 1.363 . S
C600 C599 1.415 . S
C601 H577 0.951 . S
C601 C602 1.366 . S
C601 C603 1.388 . S
C602 C601 1.366 . S
C602 C606 1.385 . S
C603 H578 0.951 . S
C603 C601 1.388 . S
C603 C604 1.366 . S
C604 C603 1.366 . S
C604 C605 1.414 . S
C604 C607 1.499 . S
C605 H579 0.950 . S
C605 C604 1.414 . S
C605 C606 1.374 . S
C606 H580 0.950 . S
C606 C602 1.385 . S
C606 C605 1.374 . S
C607 C604 1.499 . S
C607 C608 1.373 . S
C607 C609 1.389 . S
C608 H581 0.950 . S
C608 C594 1.377 1_565 S
C608 C607 1.373 . S
C609 C593 1.377 1_565 S
C609 C607 1.389 . S
C609 C610 1.524 . S
C610 C609 1.524 . S
C610 C611 1.397 . S
C610 C615 1.363 . S
C611 H582 0.950 . S
C611 C610 1.397 . S
C611 C612 1.334 . S
C612 H583 0.950 . S
C612 C611 1.334 . S
C612 C613 1.287 . S
C613 C612 1.287 . S
C613 C614 1.524 . S
C613 H616 0.999 . S
C614 H584 0.950 . S
C614 C613 1.524 . S
C614 C615 1.415 . S
C615 H585 0.950 . S
C615 C610 1.363 . S
C615 C614 1.415 . S
H616 C613 0.999 . S
H617 C598 0.913 . S
H618 C636 0.951 . S
H619 C638 0.951 . S
H620 C640 0.950 . S
H621 C641 0.950 . S
H622 C643 0.950 . S
H623 C646 0.950 . S
H624 C647 0.950 . S
H625 C649 0.950 . S
H626 C650 0.950 . S
H627 C651 0.951 . S
H628 C653 0.951 . S
H629 C655 0.950 . S
H630 C656 0.950 . S
H631 C658 0.950 . S
H632 C661 0.950 . S
H633 C662 0.950 . S
H634 C664 0.950 . S
H635 C665 0.950 . S
C636 H618 0.951 . S
C636 C637 1.366 . S
C636 C638 1.388 . S
C637 C636 1.366 . S
C637 C641 1.385 . S
C638 H619 0.951 . S
C638 C636 1.388 . S
C638 C639 1.366 . S
C639 C638 1.366 . S
C639 C640 1.414 . S
C639 C642 1.499 . S
C640 H620 0.950 . S
C640 C639 1.414 . S
C640 C641 1.374 . S
C641 H621 0.950 . S
C641 C637 1.385 . S
C641 C640 1.374 . S
C642 C639 1.499 . S
C642 C643 1.373 . S
C642 C644 1.389 . S
C643 H622 0.950 . S
C643 C642 1.373 . S
C643 C659 1.377 . S
C644 C642 1.389 . S
C644 C645 1.524 . S
C644 C658 1.377 . S
C645 C644 1.524 . S
C645 C646 1.397 . S
C645 C650 1.363 . S
C646 H623 0.950 . S
C646 C645 1.397 . S
C646 C647 1.334 . S
C647 H624 0.950 . S
C647 C646 1.334 . S
C647 C648 1.287 . S
C648 C647 1.287 . S
C648 C649 1.524 . S
C648 H667 0.913 . S
C649 H625 0.950 . S
C649 C648 1.524 . S
C649 C650 1.415 . S
C650 H626 0.950 . S
C650 C645 1.363 . S
C650 C649 1.415 . S
C651 H627 0.951 . S
C651 C652 1.366 . S
C651 C653 1.388 . S
C652 C651 1.366 . S
C652 C656 1.385 . S
C653 H628 0.951 . S
C653 C651 1.388 . S
C653 C654 1.366 . S
C654 C653 1.366 . S
C654 C655 1.414 . S
C654 C657 1.499 . S
C655 H629 0.950 . S
C655 C654 1.414 . S
C655 C656 1.374 . S
C656 H630 0.950 . S
C656 C652 1.385 . S
C656 C655 1.374 . S
C657 C654 1.499 . S
C657 C658 1.373 . S
C657 C659 1.389 . S
C658 H631 0.950 . S
C658 C644 1.377 . S
C658 C657 1.373 . S
C659 C643 1.377 . S
C659 C657 1.389 . S
C659 C660 1.524 . S
C660 C659 1.524 . S
C660 C661 1.397 . S
C660 C665 1.363 . S
C661 H632 0.950 . S
C661 C660 1.397 . S
C661 C662 1.334 . S
C662 H633 0.950 . S
C662 C661 1.334 . S
C662 C663 1.287 . S
C663 C662 1.287 . S
C663 C664 1.524 . S
C663 H666 0.999 . S
C664 H634 0.950 . S
C664 C663 1.524 . S
C664 C665 1.415 . S
C665 H635 0.950 . S
C665 C660 1.363 . S
C665 C664 1.415 . S
H666 C663 0.999 . S
H667 C648 0.913 . S
H668 C686 0.951 . S
H669 C688 0.951 . S
H670 C690 0.950 . S
H671 C691 0.950 . S
H672 C693 0.950 . S
H673 C696 0.950 . S
H674 C697 0.950 . S
H675 C699 0.950 . S
H676 C700 0.950 . S
H677 C701 0.951 . S
H678 C703 0.951 . S
H679 C705 0.950 . S
H680 C706 0.950 . S
H681 C708 0.950 . S
H682 C711 0.950 . S
H683 C712 0.950 . S
H684 C714 0.950 . S
H685 C715 0.950 . S
C686 H668 0.951 . S
C686 C687 1.366 . S
C686 C688 1.388 . S
C687 C686 1.366 . S
C687 C691 1.385 . S
C688 H669 0.951 . S
C688 C686 1.388 . S
C688 C689 1.366 . S
C689 C688 1.366 . S
C689 C690 1.414 . S
C689 C692 1.499 . S
C690 H670 0.950 . S
C690 C689 1.414 . S
C690 C691 1.374 . S
C691 H671 0.950 . S
C691 C687 1.385 . S
C691 C690 1.374 . S
C692 C689 1.499 . S
C692 C693 1.373 . S
C692 C694 1.389 . S
C693 H672 0.950 . S
C693 C692 1.373 . S
C693 C709 1.377 1_655 S
C694 C692 1.389 . S
C694 C695 1.524 . S
C694 C708 1.377 1_655 S
C695 C694 1.524 . S
C695 C696 1.397 . S
C695 C700 1.363 . S
C696 H673 0.950 . S
C696 C695 1.397 . S
C696 C697 1.334 . S
C697 H674 0.950 . S
C697 C696 1.334 . S
C697 C698 1.287 . S
C698 C697 1.287 . S
C698 C699 1.524 . S
C698 H717 0.913 . S
C699 H675 0.950 . S
C699 C698 1.524 . S
C699 C700 1.415 . S
C700 H676 0.950 . S
C700 C695 1.363 . S
C700 C699 1.415 . S
C701 H677 0.951 . S
C701 C702 1.366 . S
C701 C703 1.388 . S
C702 C701 1.366 . S
C702 C706 1.385 . S
C703 H678 0.951 . S
C703 C701 1.388 . S
C703 C704 1.366 . S
C704 C703 1.366 . S
C704 C705 1.414 . S
C704 C707 1.499 . S
C705 H679 0.950 . S
C705 C704 1.414 . S
C705 C706 1.374 . S
C706 H680 0.950 . S
C706 C702 1.385 . S
C706 C705 1.374 . S
C707 C704 1.499 . S
C707 C708 1.373 . S
C707 C709 1.389 . S
C708 H681 0.950 . S
C708 C694 1.377 1_455 S
C708 C707 1.373 . S
C709 C693 1.377 1_455 S
C709 C707 1.389 . S
C709 C710 1.524 . S
C710 C709 1.524 . S
C710 C711 1.397 . S
C710 C715 1.363 . S
C711 H682 0.950 . S
C711 C710 1.397 . S
C711 C712 1.334 . S
C712 H683 0.950 . S
C712 C711 1.334 . S
C712 C713 1.287 . S
C713 C712 1.287 . S
C713 C714 1.524 . S
C713 H716 0.999 . S
C714 H684 0.950 . S
C714 C713 1.524 . S
C714 C715 1.415 . S
C715 H685 0.950 . S
C715 C710 1.363 . S
C715 C714 1.415 . S
H716 C713 0.999 . S
H717 C698 0.913 . S
H718 C736 0.951 . S
H719 C738 0.951 . S
H720 C740 0.950 . S
H721 C741 0.950 . S
H722 C743 0.950 . S
H723 C746 0.950 . S
H724 C747 0.950 . S
H725 C749 0.950 . S
H726 C750 0.950 . S
H727 C751 0.951 . S
H728 C753 0.951 . S
H729 C755 0.950 . S
H730 C756 0.950 . S
H731 C758 0.950 . S
H732 C761 0.950 . S
H733 C762 0.950 . S
H734 C764 0.950 . S
H735 C765 0.950 . S
C736 H718 0.951 . S
C736 C737 1.366 . S
C736 C738 1.388 . S
C737 C736 1.366 . S
C737 C741 1.385 . S
C738 H719 0.951 . S
C738 C736 1.388 . S
C738 C739 1.366 . S
C739 C738 1.366 . S
C739 C740 1.414 . S
C739 C742 1.499 . S
C740 H720 0.950 . S
C740 C739 1.414 . S
C740 C741 1.374 . S
C741 H721 0.950 . S
C741 C737 1.385 . S
C741 C740 1.374 . S
C742 C739 1.499 . S
C742 C743 1.373 1_565 S
C742 C744 1.389 1_554 S
C743 H722 0.950 . S
C743 C742 1.373 1_545 S
C743 C759 1.377 . S
C744 C742 1.389 1_556 S
C744 C745 1.524 . S
C744 C758 1.377 . S
C745 C744 1.524 . S
C745 C746 1.397 . S
C745 C750 1.363 . S
C746 H723 0.950 . S
C746 C745 1.397 . S
C746 C747 1.334 . S
C747 H724 0.950 . S
C747 C746 1.334 . S
C747 C748 1.287 . S
C748 C747 1.287 . S
C748 C749 1.524 . S
C748 H767 0.913 . S
C749 H725 0.950 . S
C749 C748 1.524 . S
C749 C750 1.415 . S
C750 H726 0.950 . S
C750 C745 1.363 . S
C750 C749 1.415 . S
C751 H727 0.951 . S
C751 C752 1.366 . S
C751 C753 1.388 . S
C752 C751 1.366 . S
C752 C756 1.385 . S
C753 H728 0.951 . S
C753 C751 1.388 . S
C753 C754 1.366 . S
C754 C753 1.366 . S
C754 C755 1.414 . S
C754 C757 1.499 . S
C755 H729 0.950 . S
C755 C754 1.414 . S
C755 C756 1.374 . S
C756 H730 0.950 . S
C756 C752 1.385 . S
C756 C755 1.374 . S
C757 C754 1.499 . S
C757 C758 1.373 1_545 S
C757 C759 1.389 1_556 S
C758 H731 0.950 . S
C758 C744 1.377 . S
C758 C757 1.373 1_565 S
C759 C743 1.377 . S
C759 C757 1.389 1_554 S
C759 C760 1.524 . S
C760 C759 1.524 . S
C760 C761 1.397 . S
C760 C765 1.363 . S
C761 H732 0.950 . S
C761 C760 1.397 . S
C761 C762 1.334 . S
C762 H733 0.950 . S
C762 C761 1.334 . S
C762 C763 1.287 . S
C763 C762 1.287 . S
C763 C764 1.524 . S
C763 H766 0.999 . S
C764 H734 0.950 . S
C764 C763 1.524 . S
C764 C765 1.415 . S
C765 H735 0.950 . S
C765 C760 1.363 . S
C765 C764 1.415 . S
H766 C763 0.999 . S
H767 C748 0.913 . S
H768 C786 0.951 . S
H769 C788 0.951 . S
H770 C790 0.950 . S
H771 C791 0.950 . S
H772 C793 0.950 . S
H773 C796 0.950 . S
H774 C797 0.950 . S
H775 C799 0.950 . S
H776 C800 0.950 . S
H777 C801 0.951 . S
H778 C803 0.951 . S
H779 C805 0.950 . S
H780 C806 0.950 1_554 S
H781 C808 0.950 . S
H782 C811 0.950 . S
H783 C812 0.950 . S
H784 C814 0.950 . S
H785 C815 0.950 . S
C786 H768 0.951 . S
C786 C787 1.366 . S
C786 C788 1.388 . S
C787 C786 1.366 . S
C787 C791 1.385 . S
C788 H769 0.951 . S
C788 C786 1.388 . S
C788 C789 1.366 . S
C789 C788 1.366 . S
C789 C790 1.414 . S
C789 C792 1.499 . S
C790 H770 0.950 . S
C790 C789 1.414 . S
C790 C791 1.374 . S
C791 H771 0.950 . S
C791 C787 1.385 . S
C791 C790 1.374 . S
C792 C789 1.499 . S
C792 C793 1.373 . S
C792 C794 1.389 . S
C793 H772 0.950 . S
C793 C792 1.373 . S
C793 C809 1.377 . S
C794 C792 1.389 . S
C794 C795 1.524 . S
C794 C808 1.377 . S
C795 C794 1.524 . S
C795 C796 1.397 . S
C795 C800 1.363 . S
C796 H773 0.950 . S
C796 C795 1.397 . S
C796 C797 1.334 . S
C797 H774 0.950 . S
C797 C796 1.334 . S
C797 C798 1.287 . S
C798 C797 1.287 . S
C798 C799 1.524 . S
C798 H817 0.913 . S
C799 H775 0.950 . S
C799 C798 1.524 . S
C799 C800 1.415 . S
C800 H776 0.950 . S
C800 C795 1.363 . S
C800 C799 1.415 . S
C801 H777 0.951 . S
C801 C802 1.366 . S
C801 C803 1.388 . S
C802 C801 1.366 . S
C802 C806 1.385 . S
C803 H778 0.951 . S
C803 C801 1.388 . S
C803 C804 1.366 1_556 S
C804 C803 1.366 1_554 S
C804 C805 1.414 . S
C804 C807 1.499 . S
C805 H779 0.950 . S
C805 C804 1.414 . S
C805 C806 1.374 1_554 S
C806 H780 0.950 1_556 S
C806 C802 1.385 . S
C806 C805 1.374 1_556 S
C807 C804 1.499 . S
C807 C808 1.373 . S
C807 C809 1.389 . S
C808 H781 0.950 . S
C808 C794 1.377 . S
C808 C807 1.373 . S
C809 C793 1.377 . S
C809 C807 1.389 . S
C809 C810 1.524 . S
C810 C809 1.524 . S
C810 C811 1.397 . S
C810 C815 1.363 . S
C811 H782 0.950 . S
C811 C810 1.397 . S
C811 C812 1.334 . S
C812 H783 0.950 . S
C812 C811 1.334 . S
C812 C813 1.262 1_554 S
C813 C812 1.262 1_556 S
C813 C814 1.534 . S
C813 H816 1.025 . S
C814 H784 0.950 . S
C814 C813 1.534 . S
C814 C815 1.415 1_556 S
C815 H785 0.950 . S
C815 C810 1.363 . S
C815 C814 1.415 1_554 S
H816 C813 1.025 . S
H817 C798 0.913 . S
H818 C836 0.951 . S
H819 C838 0.951 . S
H820 C840 0.950 . S
H821 C841 0.950 . S
H822 C843 0.950 . S
H823 C846 0.950 . S
H824 C847 0.950 . S
H825 C849 0.950 . S
H826 C850 0.950 . S
H827 C851 0.951 . S
H828 C853 0.951 1_655 S
H829 C855 0.950 . S
H830 C856 0.950 . S
H831 C858 0.950 1_455 S
H832 C861 0.950 1_455 S
H833 C862 0.950 1_455 S
H834 C864 0.950 . S
H835 C865 0.950 . S
C836 H818 0.951 . S
C836 C837 1.366 . S
C836 C838 1.388 . S
C837 C836 1.366 . S
C837 C841 1.385 . S
C838 H819 0.951 . S
C838 C836 1.388 . S
C838 C839 1.366 . S
C839 C838 1.366 . S
C839 C840 1.414 . S
C839 C842 1.499 . S
C840 H820 0.950 . S
C840 C839 1.414 . S
C840 C841 1.374 . S
C841 H821 0.950 . S
C841 C837 1.385 . S
C841 C840 1.374 . S
C842 C839 1.499 . S
C842 C843 1.373 . S
C842 C844 1.389 . S
C843 H822 0.950 . S
C843 C842 1.373 . S
C843 C859 1.377 . S
C844 C842 1.389 . S
C844 C845 1.524 . S
C844 C858 1.377 . S
C845 C844 1.524 . S
C845 C846 1.397 . S
C845 C850 1.363 1_655 S
C846 H823 0.950 . S
C846 C845 1.397 . S
C846 C847 1.334 . S
C847 H824 0.950 . S
C847 C846 1.334 . S
C847 C848 1.287 . S
C848 C847 1.287 . S
C848 C849 1.524 1_655 S
C848 H867 0.913 . S
C849 H825 0.950 . S
C849 C848 1.524 1_455 S
C849 C850 1.415 . S
C850 H826 0.950 . S
C850 C845 1.363 1_455 S
C850 C849 1.415 . S
C851 H827 0.951 . S
C851 C852 1.366 . S
C851 C853 1.388 . S
C852 C851 1.366 . S
C852 C856 1.385 . S
C853 H828 0.951 1_455 S
C853 C851 1.388 . S
C853 C854 1.366 . S
C854 C853 1.366 . S
C854 C855 1.414 . S
C854 C857 1.499 1_455 S
C855 H829 0.950 . S
C855 C854 1.414 . S
C855 C856 1.374 . S
C856 H830 0.950 . S
C856 C852 1.385 . S
C856 C855 1.374 . S
C857 C854 1.499 1_655 S
C857 C858 1.373 . S
C857 C859 1.389 . S
C858 H831 0.950 1_655 S
C858 C844 1.377 . S
C858 C857 1.373 . S
C859 C843 1.377 . S
C859 C857 1.389 . S
C859 C860 1.524 . S
C860 C859 1.524 . S
C860 C861 1.397 . S
C860 C865 1.363 . S
C861 H832 0.950 1_655 S
C861 C860 1.397 . S
C861 C862 1.334 . S
C862 H833 0.950 1_655 S
C862 C861 1.334 . S
C862 C863 1.287 . S
C863 C862 1.287 . S
C863 C864 1.524 . S
C863 H866 0.999 . S
C864 H834 0.950 . S
C864 C863 1.524 . S
C864 C865 1.415 . S
C865 H835 0.950 . S
C865 C860 1.363 . S
C865 C864 1.415 . S
H866 C863 0.999 . S
H867 C848 0.913 . S
H868 C886 0.951 . S
H869 C888 0.951 . S
H870 C890 0.950 1_565 S
H871 C891 0.950 . S
H872 C893 0.950 . S
H873 C896 0.950 1_565 S
H874 C897 0.950 . S
H875 C899 0.950 . S
H876 C900 0.950 . S
H877 C901 0.951 . S
H878 C903 0.951 . S
H879 C905 0.950 . S
H880 C906 0.950 . S
H881 C908 0.950 . S
H882 C911 0.950 . S
H883 C912 0.950 . S
H884 C914 0.950 . S
H885 C915 0.950 . S
C886 H868 0.951 . S
C886 C887 1.366 . S
C886 C888 1.388 . S
C887 C886 1.366 . S
C887 C891 1.385 . S
C888 H869 0.951 . S
C888 C886 1.388 . S
C888 C889 1.366 . S
C889 C888 1.366 . S
C889 C890 1.414 . S
C889 C892 1.499 1_545 S
C890 H870 0.950 1_545 S
C890 C889 1.414 . S
C890 C891 1.374 . S
C891 H871 0.950 . S
C891 C887 1.385 . S
C891 C890 1.374 . S
C892 C889 1.499 1_565 S
C892 C893 1.373 . S
C892 C894 1.389 . S
C893 H872 0.950 . S
C893 C892 1.373 . S
C893 C909 1.377 . S
C894 C892 1.389 . S
C894 C895 1.524 1_565 S
C894 C908 1.377 . S
C895 C894 1.524 1_545 S
C895 C896 1.397 . S
C895 C900 1.363 . S
C896 H873 0.950 1_545 S
C896 C895 1.397 . S
C896 C897 1.334 . S
C897 H874 0.950 . S
C897 C896 1.334 . S
C897 C898 1.287 . S
C898 C897 1.287 . S
C898 C899 1.524 . S
C898 H917 0.913 . S
C899 H875 0.950 . S
C899 C898 1.524 . S
C899 C900 1.415 . S
C900 H876 0.950 . S
C900 C895 1.363 . S
C900 C899 1.415 . S
C901 H877 0.951 . S
C901 C902 1.366 . S
C901 C903 1.388 . S
C902 C901 1.366 . S
C902 C906 1.385 . S
C903 H878 0.951 . S
C903 C901 1.388 . S
C903 C904 1.366 . S
C904 C903 1.366 . S
C904 C905 1.414 . S
C904 C907 1.499 . S
C905 H879 0.950 . S
C905 C904 1.414 . S
C905 C906 1.374 . S
C906 H880 0.950 . S
C906 C902 1.385 . S
C906 C905 1.374 . S
C907 C904 1.499 . S
C907 C908 1.373 . S
C907 C909 1.389 . S
C908 H881 0.950 . S
C908 C894 1.377 . S
C908 C907 1.373 . S
C909 C893 1.377 . S
C909 C907 1.389 . S
C909 C910 1.524 . S
C910 C909 1.524 . S
C910 C911 1.397 . S
C910 C915 1.363 . S
C911 H882 0.950 . S
C911 C910 1.397 . S
C911 C912 1.334 . S
C912 H883 0.950 . S
C912 C911 1.334 . S
C912 C913 1.287 . S
C913 C912 1.287 . S
C913 C914 1.524 . S
C913 H916 0.999 . S
C914 H884 0.950 . S
C914 C913 1.524 . S
C914 C915 1.415 . S
C915 H885 0.950 . S
C915 C910 1.363 . S
C915 C914 1.415 . S
H916 C913 0.999 . S
H917 C898 0.913 . S
H918 C936 0.951 . S
H919 C938 0.951 . S
H920 C940 0.950 . S
H921 C941 0.950 . S
H922 C943 0.950 . S
H923 C946 0.950 . S
H924 C947 0.950 . S
H925 C949 0.950 . S
H926 C950 0.950 . S
H927 C951 0.951 . S
H928 C953 0.951 . S
H929 C955 0.950 . S
H930 C956 0.950 . S
H931 C958 0.950 . S
H932 C961 0.950 . S
H933 C962 0.950 . S
H934 C964 0.950 . S
H935 C965 0.950 . S
C936 H918 0.951 . S
C936 C937 1.366 . S
C936 C938 1.388 . S
C937 C936 1.366 . S
C937 C941 1.385 . S
C938 H919 0.951 . S
C938 C936 1.388 . S
C938 C939 1.366 . S
C939 C938 1.366 . S
C939 C940 1.414 . S
C939 C942 1.499 . S
C940 H920 0.950 . S
C940 C939 1.414 . S
C940 C941 1.374 . S
C941 H921 0.950 . S
C941 C937 1.385 . S
C941 C940 1.374 . S
C942 C939 1.499 . S
C942 C943 1.373 . S
C942 C944 1.389 . S
C943 H922 0.950 . S
C943 C942 1.373 . S
C943 C959 1.377 . S
C944 C942 1.389 . S
C944 C945 1.524 . S
C944 C958 1.377 . S
C945 C944 1.524 . S
C945 C946 1.397 . S
C945 C950 1.363 . S
C946 H923 0.950 . S
C946 C945 1.397 . S
C946 C947 1.334 . S
C947 H924 0.950 . S
C947 C946 1.334 . S
C947 C948 1.287 . S
C948 C947 1.287 . S
C948 C949 1.524 . S
C948 H967 0.913 . S
C949 H925 0.950 . S
C949 C948 1.524 . S
C949 C950 1.415 . S
C950 H926 0.950 . S
C950 C945 1.363 . S
C950 C949 1.415 . S
C951 H927 0.951 . S
C951 C952 1.366 . S
C951 C953 1.388 . S
C952 C951 1.366 . S
C952 C956 1.385 . S
C953 H928 0.951 . S
C953 C951 1.388 . S
C953 C954 1.366 . S
C954 C953 1.366 . S
C954 C955 1.414 . S
C954 C957 1.499 . S
C955 H929 0.950 . S
C955 C954 1.414 . S
C955 C956 1.374 . S
C956 H930 0.950 . S
C956 C952 1.385 . S
C956 C955 1.374 . S
C957 C954 1.499 . S
C957 C958 1.373 . S
C957 C959 1.389 . S
C958 H931 0.950 . S
C958 C944 1.377 . S
C958 C957 1.373 . S
C959 C943 1.377 . S
C959 C957 1.389 . S
C959 C960 1.524 . S
C960 C959 1.524 . S
C960 C961 1.397 . S
C960 C965 1.363 . S
C961 H932 0.950 . S
C961 C960 1.397 . S
C961 C962 1.334 . S
C962 H933 0.950 . S
C962 C961 1.334 . S
C962 C963 1.287 . S
C963 C962 1.287 . S
C963 C964 1.524 . S
C963 H966 0.999 . S
C964 H934 0.950 . S
C964 C963 1.524 . S
C964 C965 1.415 . S
C965 H935 0.950 . S
C965 C960 1.363 . S
C965 C964 1.415 . S
H966 C963 0.999 . S
H967 C948 0.913 . S
H968 C986 0.951 . S
H969 C988 0.951 . S
H970 C990 0.950 . S
H971 C991 0.950 . S
H972 C993 0.950 . S
H973 C996 0.950 . S
H974 C997 0.950 . S
H975 C999 0.950 . S
H976 C1000 0.950 . S
H977 C1001 0.951 . S
H978 C1003 0.951 . S
H979 C1005 0.950 . S
H980 C1006 0.950 . S
H981 C1008 0.950 . S
H982 C1011 0.950 . S
H983 C1012 0.950 . S
H984 C1014 0.950 . S
H985 C1015 0.950 . S
C986 H968 0.951 . S
C986 C987 1.366 . S
C986 C988 1.388 . S
C987 C986 1.366 . S
C987 C991 1.385 . S
C988 H969 0.951 . S
C988 C986 1.388 . S
C988 C989 1.366 . S
C989 C988 1.366 . S
C989 C990 1.414 . S
C989 C992 1.499 . S
C990 H970 0.950 . S
C990 C989 1.414 . S
C990 C991 1.374 . S
C991 H971 0.950 . S
C991 C987 1.385 . S
C991 C990 1.374 . S
C992 C989 1.499 . S
C992 C993 1.373 . S
C992 C994 1.389 . S
C993 H972 0.950 . S
C993 C992 1.373 . S
C993 C1009 1.377 1_455 S
C994 C992 1.389 . S
C994 C995 1.524 . S
C994 C1008 1.377 . S
C995 C994 1.524 . S
C995 C996 1.397 . S
C995 C1000 1.363 . S
C996 H973 0.950 . S
C996 C995 1.397 . S
C996 C997 1.334 . S
C997 H974 0.950 . S
C997 C996 1.334 . S
C997 C998 1.287 . S
C998 C997 1.287 . S
C998 C999 1.524 . S
C998 H1017 0.913 . S
C999 H975 0.950 . S
C999 C998 1.524 . S
C999 C1000 1.415 . S
C1000 H976 0.950 . S
C1000 C995 1.363 . S
C1000 C999 1.415 . S
C1001 H977 0.951 . S
C1001 C1002 1.366 . S
C1001 C1003 1.388 . S
C1002 C1001 1.366 . S
C1002 C1006 1.385 . S
C1003 H978 0.951 . S
C1003 C1001 1.388 . S
C1003 C1004 1.366 . S
C1004 C1003 1.366 . S
C1004 C1005 1.414 . S
C1004 C1007 1.499 1_655 S
C1005 H979 0.950 . S
C1005 C1004 1.414 . S
C1005 C1006 1.374 . S
C1006 H980 0.950 . S
C1006 C1002 1.385 . S
C1006 C1005 1.374 . S
C1007 C1004 1.499 1_455 S
C1007 C1008 1.373 . S
C1007 C1009 1.389 1_455 S
C1008 H981 0.950 . S
C1008 C994 1.377 . S
C1008 C1007 1.373 . S
C1009 C993 1.377 1_655 S
C1009 C1007 1.389 1_655 S
C1009 C1010 1.524 . S
C1010 C1009 1.524 . S
C1010 C1011 1.397 . S
C1010 C1015 1.363 . S
C1011 H982 0.950 . S
C1011 C1010 1.397 . S
C1011 C1012 1.334 . S
C1012 H983 0.950 . S
C1012 C1011 1.334 . S
C1012 C1013 1.287 . S
C1013 C1012 1.287 . S
C1013 C1014 1.524 . S
C1013 H1016 0.999 . S
C1014 H984 0.950 . S
C1014 C1013 1.524 . S
C1014 C1015 1.415 . S
C1015 H985 0.950 . S
C1015 C1010 1.363 . S
C1015 C1014 1.415 . S
H1016 C1013 0.999 . S
H1017 C998 0.913 . S
H1018 C1036 0.951 . S
H1019 C1038 0.951 . S
H1020 C1040 0.950 . S
H1021 C1041 0.950 . S
H1022 C1043 0.950 . S
H1023 C1046 0.950 . S
H1024 C1047 0.950 . S
H1025 C1049 0.950 . S
H1026 C1050 0.950 . S
H1027 C1051 0.951 . S
H1028 C1053 0.951 1_545 S
H1029 C1055 0.950 . S
H1030 C1056 0.950 . S
H1031 C1058 0.950 1_565 S
H1032 C1061 0.950 1_565 S
H1033 C1062 0.950 1_565 S
H1034 C1064 0.950 . S
H1035 C1065 0.950 . S
C1036 H1018 0.951 . S
C1036 C1037 1.366 . S
C1036 C1038 1.388 . S
C1037 C1036 1.366 . S
C1037 C1041 1.385 . S
C1038 H1019 0.951 . S
C1038 C1036 1.388 . S
C1038 C1039 1.366 . S
C1039 C1038 1.366 . S
C1039 C1040 1.414 . S
C1039 C1042 1.499 . S
C1040 H1020 0.950 . S
C1040 C1039 1.414 . S
C1040 C1041 1.374 . S
C1041 H1021 0.950 . S
C1041 C1037 1.385 . S
C1041 C1040 1.374 . S
C1042 C1039 1.499 . S
C1042 C1043 1.373 . S
C1042 C1044 1.389 . S
C1043 H1022 0.950 . S
C1043 C1042 1.373 . S
C1043 C1059 1.377 . S
C1044 C1042 1.389 . S
C1044 C1045 1.524 . S
C1044 C1058 1.377 . S
C1045 C1044 1.524 . S
C1045 C1046 1.397 . S
C1045 C1050 1.363 1_545 S
C1046 H1023 0.950 . S
C1046 C1045 1.397 . S
C1046 C1047 1.334 . S
C1047 H1024 0.950 . S
C1047 C1046 1.334 . S
C1047 C1048 1.287 . S
C1048 C1047 1.287 . S
C1048 C1049 1.524 1_545 S
C1048 H1067 0.913 . S
C1049 H1025 0.950 . S
C1049 C1048 1.524 1_565 S
C1049 C1050 1.415 . S
C1050 H1026 0.950 . S
C1050 C1045 1.363 1_565 S
C1050 C1049 1.415 . S
C1051 H1027 0.951 . S
C1051 C1052 1.366 . S
C1051 C1053 1.388 . S
C1052 C1051 1.366 . S
C1052 C1056 1.385 . S
C1053 H1028 0.951 1_565 S
C1053 C1051 1.388 . S
C1053 C1054 1.366 . S
C1054 C1053 1.366 . S
C1054 C1055 1.414 . S
C1054 C1057 1.499 1_565 S
C1055 H1029 0.950 . S
C1055 C1054 1.414 . S
C1055 C1056 1.374 . S
C1056 H1030 0.950 . S
C1056 C1052 1.385 . S
C1056 C1055 1.374 . S
C1057 C1054 1.499 1_545 S
C1057 C1058 1.373 . S
C1057 C1059 1.389 . S
C1058 H1031 0.950 1_545 S
C1058 C1044 1.377 . S
C1058 C1057 1.373 . S
C1059 C1043 1.377 . S
C1059 C1057 1.389 . S
C1059 C1060 1.524 . S
C1060 C1059 1.524 . S
C1060 C1061 1.397 . S
C1060 C1065 1.363 . S
C1061 H1032 0.950 1_545 S
C1061 C1060 1.397 . S
C1061 C1062 1.334 . S
C1062 H1033 0.950 1_545 S
C1062 C1061 1.334 . S
C1062 C1063 1.287 . S
C1063 C1062 1.287 . S
C1063 C1064 1.524 . S
C1063 H1066 0.999 . S
C1064 H1034 0.950 . S
C1064 C1063 1.524 . S
C1064 C1065 1.415 . S
C1065 H1035 0.950 . S
C1065 C1060 1.363 . S
C1065 C1064 1.415 . S
H1066 C1063 0.999 . S
H1067 C1048 0.913 . S
H1068 C1086 0.951 . S
H1069 C1088 0.951 . S
H1070 C1090 0.950 . S
H1071 C1091 0.950 . S
H1072 C1093 0.950 . S
H1073 C1096 0.950 . S
H1074 C1097 0.950 . S
H1075 C1099 0.950 . S
H1076 C1100 0.950 . S
H1077 C1101 0.951 . S
H1078 C1103 0.951 . S
H1079 C1105 0.950 . S
H1080 C1106 0.950 . S
H1081 C1108 0.950 . S
H1082 C1111 0.950 . S
H1083 C1112 0.950 . S
H1084 C1114 0.950 . S
H1085 C1115 0.950 . S
C1086 H1068 0.951 . S
C1086 C1087 1.366 . S
C1086 C1088 1.388 . S
C1087 C1086 1.366 . S
C1087 C1091 1.385 . S
C1088 H1069 0.951 . S
C1088 C1086 1.388 . S
C1088 C1089 1.366 . S
C1089 C1088 1.366 . S
C1089 C1090 1.414 . S
C1089 C1092 1.499 . S
C1090 H1070 0.950 . S
C1090 C1089 1.414 . S
C1090 C1091 1.374 . S
C1091 H1071 0.950 . S
C1091 C1087 1.385 . S
C1091 C1090 1.374 . S
C1092 C1089 1.499 . S
C1092 C1093 1.373 . S
C1092 C1094 1.389 . S
C1093 H1072 0.950 . S
C1093 C1092 1.373 . S
C1093 C1109 1.377 . S
C1094 C1092 1.389 . S
C1094 C1095 1.524 . S
C1094 C1108 1.377 . S
C1095 C1094 1.524 . S
C1095 C1096 1.397 . S
C1095 C1100 1.363 . S
C1096 H1073 0.950 . S
C1096 C1095 1.397 . S
C1096 C1097 1.334 . S
C1097 H1074 0.950 . S
C1097 C1096 1.334 . S
C1097 C1098 1.287 . S
C1098 C1097 1.287 . S
C1098 C1099 1.524 . S
C1098 H1117 0.913 . S
C1099 H1075 0.950 . S
C1099 C1098 1.524 . S
C1099 C1100 1.415 . S
C1100 H1076 0.950 . S
C1100 C1095 1.363 . S
C1100 C1099 1.415 . S
C1101 H1077 0.951 . S
C1101 C1102 1.366 . S
C1101 C1103 1.388 . S
C1102 C1101 1.366 . S
C1102 C1106 1.385 . S
C1103 H1078 0.951 . S
C1103 C1101 1.388 . S
C1103 C1104 1.366 . S
C1104 C1103 1.366 . S
C1104 C1105 1.414 . S
C1104 C1107 1.499 . S
C1105 H1079 0.950 . S
C1105 C1104 1.414 . S
C1105 C1106 1.374 . S
C1106 H1080 0.950 . S
C1106 C1102 1.385 . S
C1106 C1105 1.374 . S
C1107 C1104 1.499 . S
C1107 C1108 1.373 . S
C1107 C1109 1.389 . S
C1108 H1081 0.950 . S
C1108 C1094 1.377 . S
C1108 C1107 1.373 . S
C1109 C1093 1.377 . S
C1109 C1107 1.389 . S
C1109 C1110 1.524 . S
C1110 C1109 1.524 . S
C1110 C1111 1.397 . S
C1110 C1115 1.363 . S
C1111 H1082 0.950 . S
C1111 C1110 1.397 . S
C1111 C1112 1.334 . S
C1112 H1083 0.950 . S
C1112 C1111 1.334 . S
C1112 C1113 1.287 . S
C1113 C1112 1.287 . S
C1113 C1114 1.524 . S
C1113 H1116 0.999 . S
C1114 H1084 0.950 . S
C1114 C1113 1.524 . S
C1114 C1115 1.415 . S
C1115 H1085 0.950 . S
C1115 C1110 1.363 . S
C1115 C1114 1.415 . S
H1116 C1113 0.999 . S
H1117 C1098 0.913 . S
H1118 C1136 0.951 . S
H1119 C1138 0.951 . S
H1120 C1140 0.950 . S
H1121 C1141 0.950 . S
H1122 C1143 0.950 . S
H1123 C1146 0.950 . S
H1124 C1147 0.950 . S
H1125 C1149 0.950 . S
H1126 C1150 0.950 . S
H1127 C1151 0.951 . S
H1128 C1153 0.951 . S
H1129 C1155 0.950 . S
H1130 C1156 0.950 . S
H1131 C1158 0.950 . S
H1132 C1161 0.950 . S
H1133 C1162 0.950 . S
H1134 C1164 0.950 . S
H1135 C1165 0.950 1_556 S
C1136 H1118 0.951 . S
C1136 C1137 1.366 . S
C1136 C1138 1.388 . S
C1137 C1136 1.366 . S
C1137 C1141 1.385 . S
C1138 H1119 0.951 . S
C1138 C1136 1.388 . S
C1138 C1139 1.366 . S
C1139 C1138 1.366 . S
C1139 C1140 1.414 . S
C1139 C1142 1.499 . S
C1140 H1120 0.950 . S
C1140 C1139 1.414 . S
C1140 C1141 1.374 . S
C1141 H1121 0.950 . S
C1141 C1137 1.385 . S
C1141 C1140 1.374 . S
C1142 C1139 1.499 . S
C1142 C1143 1.373 . S
C1142 C1144 1.389 . S
C1143 H1122 0.950 . S
C1143 C1142 1.373 . S
C1143 C1159 1.377 . S
C1144 C1142 1.389 . S
C1144 C1145 1.524 . S
C1144 C1158 1.377 1_655 S
C1145 C1144 1.524 . S
C1145 C1146 1.397 . S
C1145 C1150 1.363 1_655 S
C1146 H1123 0.950 . S
C1146 C1145 1.397 . S
C1146 C1147 1.334 . S
C1147 H1124 0.950 . S
C1147 C1146 1.334 . S
C1147 C1148 1.287 1_655 S
C1148 C1147 1.287 1_455 S
C1148 C1149 1.524 . S
C1148 H1167 0.913 . S
C1149 H1125 0.950 . S
C1149 C1148 1.524 . S
C1149 C1150 1.415 . S
C1150 H1126 0.950 . S
C1150 C1145 1.363 1_455 S
C1150 C1149 1.415 . S
C1151 H1127 0.951 . S
C1151 C1152 1.366 . S
C1151 C1153 1.388 . S
C1152 C1151 1.366 . S
C1152 C1156 1.385 . S
C1153 H1128 0.951 . S
C1153 C1151 1.388 . S
C1153 C1154 1.366 1_554 S
C1154 C1153 1.366 1_556 S
C1154 C1155 1.414 . S
C1154 C1157 1.499 1_455 S
C1155 H1129 0.950 . S
C1155 C1154 1.414 . S
C1155 C1156 1.374 1_556 S
C1156 H1130 0.950 . S
C1156 C1152 1.385 . S
C1156 C1155 1.374 1_554 S
C1157 C1154 1.499 1_655 S
C1157 C1158 1.373 1_655 S
C1157 C1159 1.389 . S
C1158 H1131 0.950 . S
C1158 C1144 1.377 1_455 S
C1158 C1157 1.373 1_455 S
C1159 C1143 1.377 . S
C1159 C1157 1.389 . S
C1159 C1160 1.524 1_556 S
C1160 C1159 1.524 1_554 S
C1160 C1161 1.397 . S
C1160 C1165 1.363 . S
C1161 H1132 0.950 . S
C1161 C1160 1.397 . S
C1161 C1162 1.334 . S
C1162 H1133 0.950 . S
C1162 C1161 1.334 . S
C1162 C1163 1.287 . S
C1163 C1162 1.287 . S
C1163 C1164 1.524 . S
C1163 H1166 0.999 . S
C1164 H1134 0.950 . S
C1164 C1163 1.524 . S
C1164 C1165 1.415 . S
C1165 H1135 0.950 1_554 S
C1165 C1160 1.363 . S
C1165 C1164 1.415 . S
H1166 C1163 0.999 . S
H1167 C1148 0.913 . S
H1168 C1186 0.951 . S
H1169 C1188 0.951 . S
H1170 C1190 0.950 . S
H1171 C1191 0.950 . S
H1172 C1193 0.950 . S
H1173 C1196 0.950 . S
H1174 C1197 0.950 . S
H1175 C1199 0.950 . S
H1176 C1200 0.950 . S
H1177 C1201 0.951 . S
H1178 C1203 0.951 . S
H1179 C1205 0.950 . S
H1180 C1206 0.950 . S
H1181 C1208 0.950 . S
H1182 C1211 0.950 . S
H1183 C1212 0.950 . S
H1184 C1214 0.950 . S
H1185 C1215 0.950 . S
C1186 H1168 0.951 . S
C1186 C1187 1.366 . S
C1186 C1188 1.388 . S
C1187 C1186 1.366 . S
C1187 C1191 1.385 . S
C1188 H1169 0.951 . S
C1188 C1186 1.388 . S
C1188 C1189 1.366 . S
C1189 C1188 1.366 . S
C1189 C1190 1.414 . S
C1189 C1192 1.499 . S
C1190 H1170 0.950 . S
C1190 C1189 1.414 . S
C1190 C1191 1.374 . S
C1191 H1171 0.950 . S
C1191 C1187 1.385 . S
C1191 C1190 1.374 . S
C1192 C1189 1.499 . S
C1192 C1193 1.373 . S
C1192 C1194 1.389 . S
C1193 H1172 0.950 . S
C1193 C1192 1.373 . S
C1193 C1209 1.377 . S
C1194 C1192 1.389 . S
C1194 C1195 1.524 . S
C1194 C1208 1.377 . S
C1195 C1194 1.524 . S
C1195 C1196 1.397 . S
C1195 C1200 1.363 . S
C1196 H1173 0.950 . S
C1196 C1195 1.397 . S
C1196 C1197 1.334 . S
C1197 H1174 0.950 . S
C1197 C1196 1.334 . S
C1197 C1198 1.287 . S
C1198 C1197 1.287 . S
C1198 C1199 1.524 . S
C1198 H1217 0.913 . S
C1199 H1175 0.950 . S
C1199 C1198 1.524 . S
C1199 C1200 1.415 . S
C1200 H1176 0.950 . S
C1200 C1195 1.363 . S
C1200 C1199 1.415 . S
C1201 H1177 0.951 . S
C1201 C1202 1.366 . S
C1201 C1203 1.388 . S
C1202 C1201 1.366 . S
C1202 C1206 1.385 . S
C1203 H1178 0.951 . S
C1203 C1201 1.388 . S
C1203 C1204 1.366 . S
C1204 C1203 1.366 . S
C1204 C1205 1.414 . S
C1204 C1207 1.499 1_545 S
C1205 H1179 0.950 . S
C1205 C1204 1.414 . S
C1205 C1206 1.374 . S
C1206 H1180 0.950 . S
C1206 C1202 1.385 . S
C1206 C1205 1.374 . S
C1207 C1204 1.499 1_565 S
C1207 C1208 1.373 . S
C1207 C1209 1.389 . S
C1208 H1181 0.950 . S
C1208 C1194 1.377 . S
C1208 C1207 1.373 . S
C1209 C1193 1.377 . S
C1209 C1207 1.389 . S
C1209 C1210 1.536 . S
C1210 C1209 1.536 . S
C1210 C1211 1.384 1_565 S
C1210 C1215 1.364 . S
C1211 H1182 0.950 . S
C1211 C1210 1.384 1_545 S
C1211 C1212 1.334 . S
C1212 H1183 0.950 . S
C1212 C1211 1.334 . S
C1212 C1213 1.287 . S
C1213 C1212 1.287 . S
C1213 C1214 1.524 1_545 S
C1213 H1216 0.999 . S
C1214 H1184 0.950 . S
C1214 C1213 1.524 1_565 S
C1214 C1215 1.415 . S
C1215 H1185 0.950 . S
C1215 C1210 1.364 . S
C1215 C1214 1.415 . S
H1216 C1213 0.999 . S
H1217 C1198 0.913 . S
H1218 C1236 0.951 . S
H1219 C1238 0.951 . S
H1220 C1240 0.950 . S
H1221 C1241 0.950 . S
H1222 C1243 0.950 . S
H1223 C1246 0.950 . S
H1224 C1247 0.950 . S
H1225 C1249 0.950 . S
H1226 C1250 0.950 . S
H1227 C1251 0.951 . S
H1228 C1253 0.951 . S
H1229 C1255 0.950 . S
H1230 C1256 0.950 . S
H1231 C1258 0.950 . S
H1232 C1261 0.950 . S
H1233 C1262 0.950 . S
H1234 C1264 0.950 . S
H1235 C1265 0.950 . S
C1236 H1218 0.951 . S
C1236 C1237 1.366 . S
C1236 C1238 1.388 . S
C1237 C1236 1.366 . S
C1237 C1241 1.385 . S
C1238 H1219 0.951 . S
C1238 C1236 1.388 . S
C1238 C1239 1.366 . S
C1239 C1238 1.366 . S
C1239 C1240 1.414 . S
C1239 C1242 1.499 . S
C1240 H1220 0.950 . S
C1240 C1239 1.414 . S
C1240 C1241 1.374 . S
C1241 H1221 0.950 . S
C1241 C1237 1.385 . S
C1241 C1240 1.374 . S
C1242 C1239 1.499 . S
C1242 C1243 1.373 . S
C1242 C1244 1.389 . S
C1243 H1222 0.950 . S
C1243 C1242 1.373 . S
C1243 C1259 1.377 . S
C1244 C1242 1.389 . S
C1244 C1245 1.524 . S
C1244 C1258 1.377 . S
C1245 C1244 1.524 . S
C1245 C1246 1.397 . S
C1245 C1250 1.363 . S
C1246 H1223 0.950 . S
C1246 C1245 1.397 . S
C1246 C1247 1.334 . S
C1247 H1224 0.950 . S
C1247 C1246 1.334 . S
C1247 C1248 1.287 . S
C1248 C1247 1.287 . S
C1248 C1249 1.524 . S
C1248 H1267 0.913 . S
C1249 H1225 0.950 . S
C1249 C1248 1.524 . S
C1249 C1250 1.415 . S
C1250 H1226 0.950 . S
C1250 C1245 1.363 . S
C1250 C1249 1.415 . S
C1251 H1227 0.951 . S
C1251 C1252 1.366 . S
C1251 C1253 1.388 . S
C1252 C1251 1.366 . S
C1252 C1256 1.385 . S
C1253 H1228 0.951 . S
C1253 C1251 1.388 . S
C1253 C1254 1.366 . S
C1254 C1253 1.366 . S
C1254 C1255 1.414 . S
C1254 C1257 1.499 . S
C1255 H1229 0.950 . S
C1255 C1254 1.414 . S
C1255 C1256 1.374 . S
C1256 H1230 0.950 . S
C1256 C1252 1.385 . S
C1256 C1255 1.374 . S
C1257 C1254 1.499 . S
C1257 C1258 1.373 . S
C1257 C1259 1.389 . S
C1258 H1231 0.950 . S
C1258 C1244 1.377 . S
C1258 C1257 1.373 . S
C1259 C1243 1.377 . S
C1259 C1257 1.389 . S
C1259 C1260 1.524 . S
C1260 C1259 1.524 . S
C1260 C1261 1.397 . S
C1260 C1265 1.363 . S
C1261 H1232 0.950 . S
C1261 C1260 1.397 . S
C1261 C1262 1.334 . S
C1262 H1233 0.950 . S
C1262 C1261 1.334 . S
C1262 C1263 1.287 . S
C1263 C1262 1.287 . S
C1263 C1264 1.524 . S
C1263 H1266 0.999 . S
C1264 H1234 0.950 . S
C1264 C1263 1.524 . S
C1264 C1265 1.415 . S
C1265 H1235 0.950 . S
C1265 C1260 1.363 . S
C1265 C1264 1.415 . S
H1266 C1263 0.999 . S
H1267 C1248 0.913 . S
H1268 C1286 0.951 . S
H1269 C1288 0.951 . S
H1270 C1290 0.950 . S
H1271 C1291 0.950 . S
H1272 C1293 0.950 . S
H1273 C1296 0.950 . S
H1274 C1297 0.950 . S
H1275 C1299 0.950 . S
H1276 C1300 0.950 . S
H1277 C1301 0.951 . S
H1278 C1303 0.951 . S
H1279 C1305 0.950 1_455 S
H1280 C1306 0.950 . S
H1281 C1308 0.950 . S
H1282 C1311 0.950 1_455 S
H1283 C1312 0.950 . S
H1284 C1314 0.950 . S
H1285 C1315 0.950 . S
C1286 H1268 0.951 . S
C1286 C1287 1.366 . S
C1286 C1288 1.388 . S
C1287 C1286 1.366 . S
C1287 C1291 1.385 . S
C1288 H1269 0.951 . S
C1288 C1286 1.388 . S
C1288 C1289 1.366 . S
C1289 C1288 1.366 . S
C1289 C1290 1.414 . S
C1289 C1292 1.499 . S
C1290 H1270 0.950 . S
C1290 C1289 1.414 . S
C1290 C1291 1.374 . S
C1291 H1271 0.950 . S
C1291 C1287 1.385 . S
C1291 C1290 1.374 . S
C1292 C1289 1.499 . S
C1292 C1293 1.373 . S
C1292 C1294 1.389 . S
C1293 H1272 0.950 . S
C1293 C1292 1.373 . S
C1293 C1309 1.377 . S
C1294 C1292 1.389 . S
C1294 C1295 1.524 . S
C1294 C1308 1.377 . S
C1295 C1294 1.524 . S
C1295 C1296 1.397 . S
C1295 C1300 1.363 . S
C1296 H1273 0.950 . S
C1296 C1295 1.397 . S
C1296 C1297 1.334 . S
C1297 H1274 0.950 . S
C1297 C1296 1.334 . S
C1297 C1298 1.287 . S
C1298 C1297 1.287 . S
C1298 C1299 1.524 . S
C1298 H1317 0.913 . S
C1299 H1275 0.950 . S
C1299 C1298 1.524 . S
C1299 C1300 1.415 . S
C1300 H1276 0.950 . S
C1300 C1295 1.363 . S
C1300 C1299 1.415 . S
C1301 H1277 0.951 . S
C1301 C1302 1.366 . S
C1301 C1303 1.388 . S
C1302 C1301 1.366 . S
C1302 C1306 1.385 . S
C1303 H1278 0.951 . S
C1303 C1301 1.388 . S
C1303 C1304 1.366 . S
C1304 C1303 1.366 . S
C1304 C1305 1.414 . S
C1304 C1307 1.499 1_655 S
C1305 H1279 0.950 1_655 S
C1305 C1304 1.414 . S
C1305 C1306 1.374 . S
C1306 H1280 0.950 . S
C1306 C1302 1.385 . S
C1306 C1305 1.374 . S
C1307 C1304 1.499 1_455 S
C1307 C1308 1.373 . S
C1307 C1309 1.389 . S
C1308 H1281 0.950 . S
C1308 C1294 1.377 . S
C1308 C1307 1.373 . S
C1309 C1293 1.377 . S
C1309 C1307 1.389 . S
C1309 C1310 1.524 1_455 S
C1310 C1309 1.524 1_655 S
C1310 C1311 1.397 . S
C1310 C1315 1.363 . S
C1311 H1282 0.950 1_655 S
C1311 C1310 1.397 . S
C1311 C1312 1.334 . S
C1312 H1283 0.950 . S
C1312 C1311 1.334 . S
C1312 C1313 1.287 . S
C1313 C1312 1.287 . S
C1313 C1314 1.524 . S
C1313 H1316 0.999 . S
C1314 H1284 0.950 . S
C1314 C1313 1.524 . S
C1314 C1315 1.415 . S
C1315 H1285 0.950 . S
C1315 C1310 1.363 . S
C1315 C1314 1.415 . S
H1316 C1313 0.999 . S
H1317 C1298 0.913 . S
H1318 C1336 0.951 . S
H1319 C1338 0.951 . S
H1320 C1340 0.950 . S
H1321 C1341 0.950 . S
H1322 C1343 0.950 . S
H1323 C1346 0.950 . S
H1324 C1347 0.950 . S
H1325 C1349 0.950 . S
H1326 C1350 0.950 . S
H1327 C1351 0.951 . S
H1328 C1353 0.951 . S
H1329 C1355 0.950 . S
H1330 C1356 0.950 . S
H1331 C1358 0.950 . S
H1332 C1361 0.950 . S
H1333 C1362 0.950 . S
H1334 C1364 0.950 . S
H1335 C1365 0.950 . S
C1336 H1318 0.951 . S
C1336 C1337 1.366 . S
C1336 C1338 1.388 . S
C1337 C1336 1.366 . S
C1337 C1341 1.385 . S
C1338 H1319 0.951 . S
C1338 C1336 1.388 . S
C1338 C1339 1.366 . S
C1339 C1338 1.366 . S
C1339 C1340 1.414 . S
C1339 C1342 1.499 1_565 S
C1340 H1320 0.950 . S
C1340 C1339 1.414 . S
C1340 C1341 1.374 . S
C1341 H1321 0.950 . S
C1341 C1337 1.385 . S
C1341 C1340 1.374 . S
C1342 C1339 1.499 1_545 S
C1342 C1343 1.373 1_545 S
C1342 C1344 1.389 . S
C1343 H1322 0.950 . S
C1343 C1342 1.373 1_565 S
C1343 C1359 1.377 1_565 S
C1344 C1342 1.389 . S
C1344 C1345 1.524 . S
C1344 C1358 1.377 . S
C1345 C1344 1.524 . S
C1345 C1346 1.397 . S
C1345 C1350 1.363 . S
C1346 H1323 0.950 . S
C1346 C1345 1.397 . S
C1346 C1347 1.334 . S
C1347 H1324 0.950 . S
C1347 C1346 1.334 . S
C1347 C1348 1.287 . S
C1348 C1347 1.287 . S
C1348 C1349 1.524 . S
C1348 H1367 0.913 . S
C1349 H1325 0.950 . S
C1349 C1348 1.524 . S
C1349 C1350 1.415 . S
C1350 H1326 0.950 . S
C1350 C1345 1.363 . S
C1350 C1349 1.415 . S
C1351 H1327 0.951 . S
C1351 C1352 1.366 . S
C1351 C1353 1.388 . S
C1352 C1351 1.366 . S
C1352 C1356 1.385 . S
C1353 H1328 0.951 . S
C1353 C1351 1.388 . S
C1353 C1354 1.366 . S
C1354 C1353 1.366 . S
C1354 C1355 1.414 . S
C1354 C1357 1.499 . S
C1355 H1329 0.950 . S
C1355 C1354 1.414 . S
C1355 C1356 1.374 . S
C1356 H1330 0.950 . S
C1356 C1352 1.385 . S
C1356 C1355 1.374 . S
C1357 C1354 1.499 . S
C1357 C1358 1.373 . S
C1357 C1359 1.389 . S
C1358 H1331 0.950 . S
C1358 C1344 1.377 . S
C1358 C1357 1.373 . S
C1359 C1343 1.377 1_545 S
C1359 C1357 1.389 . S
C1359 C1360 1.524 . S
C1360 C1359 1.524 . S
C1360 C1361 1.397 . S
C1360 C1365 1.363 1_545 S
C1361 H1332 0.950 . S
C1361 C1360 1.397 . S
C1361 C1362 1.334 . S
C1362 H1333 0.950 . S
C1362 C1361 1.334 . S
C1362 C1363 1.287 1_545 S
C1363 C1362 1.287 1_565 S
C1363 C1364 1.524 . S
C1363 H1366 0.999 . S
C1364 H1334 0.950 . S
C1364 C1363 1.524 . S
C1364 C1365 1.415 . S
C1365 H1335 0.950 . S
C1365 C1360 1.363 1_565 S
C1365 C1364 1.415 . S
H1366 C1363 0.999 . S
H1367 C1348 0.913 . S
C187 C113 1.554 . S
C202 C12 1.555 . S
C237 C15 1.553 . S
C252 C139 1.553 . S
C287 C29 1.553 . S
C302 C140 1.555 . S
C337 C54 1.555 . S
C352 C154 1.555 . S
C387 C85 1.553 . S
C402 C57 1.554 . S
C437 C83 1.554 . S
C452 C110 1.555 . S
C487 C138 1.307 . S
C502 C13 1.306 . S
C537 C14 1.306 . S
C552 C141 1.306 . S
C587 C155 1.306 . S
C602 C28 1.306 . S
C637 C55 1.305 . S
C652 C84 1.307 . S
C687 C111 1.306 . S
C702 C56 1.307 . S
C737 C112 1.307 . S
C752 C82 1.307 . S
C787 C0 2.018 . S
C802 C70 1.986 . S
C837 C27 2.017 . S
C852 C1 1.985 . S
C887 C26 1.987 . S
C902 C41 2.017 . S
C937 C42 2.018 . S
C952 C40 1.986 . S
C987 C69 2.017 . S
C1002 C43 1.984 . S
C1037 C71 2.017 . S
C1052 C68 1.986 . S
C1087 C97 2.017 . S
C1102 C99 1.984 . S
C1137 C98 2.018 . S
C1152 C124 1.986 . S
C1187 C125 2.017 . S
C1202 C126 1.986 . S
C1237 C127 2.017 . S
C1252 C153 1.984 . S
C1287 C152 2.018 . S
C1302 C167 1.984 . S
C1337 C96 1.986 . S
C1352 C166 2.019 . S
