# Generated by pormake.
# Topology wjr, (5)-cn, num edge types: 1
# Building blocks:
#     Node 0, Type 0, BuildingBlock: BEQFEK_clean_sbu_0, # of connection points: 5
#     Node 1, Type 0, BuildingBlock: BEQFEK_clean_sbu_0, # of connection points: 5
#     Node 2, Type 0, BuildingBlock: BEQFEK_clean_sbu_0, # of connection points: 5
#     Node 3, Type 0, BuildingBlock: BEQFEK_clean_sbu_0, # of connection points: 5
#     Node 4, Type 0, BuildingBlock: BEQFEK_clean_sbu_0, # of connection points: 5
#     Node 5, Type 0, BuildingBlock: BEQFEK_clean_sbu_0, # of connection points: 5
#     Node 6, Type 0, BuildingBlock: BEQFEK_clean_sbu_0, # of connection points: 5
#     Node 7, Type 0, BuildingBlock: BEQFEK_clean_sbu_0, # of connection points: 5
#     Node 8, Type 0, BuildingBlock: BEQFEK_clean_sbu_0, # of connection points: 5
#     Node 9, Type 0, BuildingBlock: BEQFEK_clean_sbu_0, # of connection points: 5
#     Node 10, Type 0, BuildingBlock: BEQFEK_clean_sbu_0, # of connection points: 5
#     Node 11, Type 0, BuildingBlock: BEQFEK_clean_sbu_0, # of connection points: 5
#     Node 12, Type 0, BuildingBlock: BEQFEK_clean_sbu_0, # of connection points: 5
#     Node 13, Type 0, BuildingBlock: BEQFEK_clean_sbu_0, # of connection points: 5
#     Node 14, Type 0, BuildingBlock: BEQFEK_clean_sbu_0, # of connection points: 5
#     Node 15, Type 0, BuildingBlock: BEQFEK_clean_sbu_0, # of connection points: 5
#     Node 16, Type 0, BuildingBlock: BEQFEK_clean_sbu_0, # of connection points: 5
#     Node 17, Type 0, BuildingBlock: BEQFEK_clean_sbu_0, # of connection points: 5
#     Node 18, Type 0, BuildingBlock: BEQFEK_clean_sbu_0, # of connection points: 5
#     Node 19, Type 0, BuildingBlock: BEQFEK_clean_sbu_0, # of connection points: 5
#     Node 20, Type 0, BuildingBlock: BEQFEK_clean_sbu_0, # of connection points: 5
#     Node 21, Type 0, BuildingBlock: BEQFEK_clean_sbu_0, # of connection points: 5
#     Node 22, Type 0, BuildingBlock: BEQFEK_clean_sbu_0, # of connection points: 5
#     Node 23, Type 0, BuildingBlock: BEQFEK_clean_sbu_0, # of connection points: 5
#     Edge 24, Type (0, 0), BuildingBlock: OJICUG_clean_linker_0, # of connection points: 2
#     Edge 25, Type (0, 0), BuildingBlock: OJICUG_clean_linker_0, # of connection points: 2
#     Edge 26, Type (0, 0), BuildingBlock: OJICUG_clean_linker_0, # of connection points: 2
#     Edge 27, Type (0, 0), BuildingBlock: OJICUG_clean_linker_0, # of connection points: 2
#     Edge 28, Type (0, 0), BuildingBlock: OJICUG_clean_linker_0, # of connection points: 2
#     Edge 29, Type (0, 0), BuildingBlock: OJICUG_clean_linker_0, # of connection points: 2
#     Edge 30, Type (0, 0), BuildingBlock: OJICUG_clean_linker_0, # of connection points: 2
#     Edge 31, Type (0, 0), BuildingBlock: OJICUG_clean_linker_0, # of connection points: 2
#     Edge 32, Type (0, 0), BuildingBlock: OJICUG_clean_linker_0, # of connection points: 2
#     Edge 33, Type (0, 0), BuildingBlock: OJICUG_clean_linker_0, # of connection points: 2
#     Edge 34, Type (0, 0), BuildingBlock: OJICUG_clean_linker_0, # of connection points: 2
#     Edge 35, Type (0, 0), BuildingBlock: OJICUG_clean_linker_0, # of connection points: 2
#     Edge 36, Type (0, 0), BuildingBlock: OJICUG_clean_linker_0, # of connection points: 2
#     Edge 37, Type (0, 0), BuildingBlock: OJICUG_clean_linker_0, # of connection points: 2
#     Edge 38, Type (0, 0), BuildingBlock: OJICUG_clean_linker_0, # of connection points: 2
#     Edge 39, Type (0, 0), BuildingBlock: OJICUG_clean_linker_0, # of connection points: 2
#     Edge 40, Type (0, 0), BuildingBlock: OJICUG_clean_linker_0, # of connection points: 2
#     Edge 41, Type (0, 0), BuildingBlock: OJICUG_clean_linker_0, # of connection points: 2
#     Edge 42, Type (0, 0), BuildingBlock: OJICUG_clean_linker_0, # of connection points: 2
#     Edge 43, Type (0, 0), BuildingBlock: OJICUG_clean_linker_0, # of connection points: 2
#     Edge 44, Type (0, 0), BuildingBlock: OJICUG_clean_linker_0, # of connection points: 2
#     Edge 45, Type (0, 0), BuildingBlock: OJICUG_clean_linker_0, # of connection points: 2
#     Edge 46, Type (0, 0), BuildingBlock: OJICUG_clean_linker_0, # of connection points: 2
#     Edge 47, Type (0, 0), BuildingBlock: OJICUG_clean_linker_0, # of connection points: 2
#     Edge 48, Type (0, 0), BuildingBlock: OJICUG_clean_linker_0, # of connection points: 2
#     Edge 49, Type (0, 0), BuildingBlock: OJICUG_clean_linker_0, # of connection points: 2
#     Edge 50, Type (0, 0), BuildingBlock: OJICUG_clean_linker_0, # of connection points: 2
#     Edge 51, Type (0, 0), BuildingBlock: OJICUG_clean_linker_0, # of connection points: 2
#     Edge 52, Type (0, 0), BuildingBlock: OJICUG_clean_linker_0, # of connection points: 2
#     Edge 53, Type (0, 0), BuildingBlock: OJICUG_clean_linker_0, # of connection points: 2
#     Edge 54, Type (0, 0), BuildingBlock: OJICUG_clean_linker_0, # of connection points: 2
#     Edge 55, Type (0, 0), BuildingBlock: OJICUG_clean_linker_0, # of connection points: 2
#     Edge 56, Type (0, 0), BuildingBlock: OJICUG_clean_linker_0, # of connection points: 2
#     Edge 57, Type (0, 0), BuildingBlock: OJICUG_clean_linker_0, # of connection points: 2
#     Edge 58, Type (0, 0), BuildingBlock: OJICUG_clean_linker_0, # of connection points: 2
#     Edge 59, Type (0, 0), BuildingBlock: OJICUG_clean_linker_0, # of connection points: 2
#     Edge 60, Type (0, 0), BuildingBlock: OJICUG_clean_linker_0, # of connection points: 2
#     Edge 61, Type (0, 0), BuildingBlock: OJICUG_clean_linker_0, # of connection points: 2
#     Edge 62, Type (0, 0), BuildingBlock: OJICUG_clean_linker_0, # of connection points: 2
#     Edge 63, Type (0, 0), BuildingBlock: OJICUG_clean_linker_0, # of connection points: 2
#     Edge 64, Type (0, 0), BuildingBlock: OJICUG_clean_linker_0, # of connection points: 2
#     Edge 65, Type (0, 0), BuildingBlock: OJICUG_clean_linker_0, # of connection points: 2
#     Edge 66, Type (0, 0), BuildingBlock: OJICUG_clean_linker_0, # of connection points: 2
#     Edge 67, Type (0, 0), BuildingBlock: OJICUG_clean_linker_0, # of connection points: 2
#     Edge 68, Type (0, 0), BuildingBlock: OJICUG_clean_linker_0, # of connection points: 2
#     Edge 69, Type (0, 0), BuildingBlock: OJICUG_clean_linker_0, # of connection points: 2
#     Edge 70, Type (0, 0), BuildingBlock: OJICUG_clean_linker_0, # of connection points: 2
#     Edge 71, Type (0, 0), BuildingBlock: OJICUG_clean_linker_0, # of connection points: 2
#     Edge 72, Type (0, 0), BuildingBlock: OJICUG_clean_linker_0, # of connection points: 2
#     Edge 73, Type (0, 0), BuildingBlock: OJICUG_clean_linker_0, # of connection points: 2
#     Edge 74, Type (0, 0), BuildingBlock: OJICUG_clean_linker_0, # of connection points: 2
#     Edge 75, Type (0, 0), BuildingBlock: OJICUG_clean_linker_0, # of connection points: 2
#     Edge 76, Type (0, 0), BuildingBlock: OJICUG_clean_linker_0, # of connection points: 2
#     Edge 77, Type (0, 0), BuildingBlock: OJICUG_clean_linker_0, # of connection points: 2
#     Edge 78, Type (0, 0), BuildingBlock: OJICUG_clean_linker_0, # of connection points: 2
#     Edge 79, Type (0, 0), BuildingBlock: OJICUG_clean_linker_0, # of connection points: 2
#     Edge 80, Type (0, 0), BuildingBlock: OJICUG_clean_linker_0, # of connection points: 2
#     Edge 81, Type (0, 0), BuildingBlock: OJICUG_clean_linker_0, # of connection points: 2
#     Edge 82, Type (0, 0), BuildingBlock: OJICUG_clean_linker_0, # of connection points: 2
#     Edge 83, Type (0, 0), BuildingBlock: OJICUG_clean_linker_0, # of connection points: 2
# Relax obj value: 0.373
# Max RMSD: 0.191
# Mean RMSD: 0.191
data_MOF--net-wjr--node1-BEQFEK_clean_sbu_0--edge1-OJICUG_clean_linker_0
_symmetry_space_group_name_H-M    P1
_symmetry_Int_Tables_number       1
_symmetry_cell_setting            triclinic
loop_
_symmetry_equiv_pos_as_xyz
'x, y, z'
_cell_length_a     55.323555
_cell_length_b     55.251742
_cell_length_c     35.732208
_cell_angle_alpha  90.103844
_cell_angle_beta   89.889353
_cell_angle_gamma 120.02896
loop_
_atom_site_label
_atom_site_type_symbol
_atom_site_fract_x
_atom_site_fract_y
_atom_site_fract_z
_atom_type_partial_charge
Co0 Co 0.46395 0.06546 0.1603 0.0
Co1 Co 0.46141 0.11207 0.2056 0.0
C2 C 0.50894 0.1034 0.21735 0.0
O3 O 0.49685 0.08289 0.19463 0.0
O4 O 0.49907 0.11956 0.2237 0.0
C5 C 0.48973 0.04483 0.10898 0.0
O6 O 0.51136 0.07029 0.10997 0.0
C7 C 0.4652 0.16523 0.23291 0.0
C8 C 0.42009 0.15012 0.23914 0.0
C9 C 0.44616 0.17384 0.24172 0.0
N10 N 0.45082 0.13764 0.22513 0.0
N11 N 0.42394 0.12881 0.22947 0.0
C12 C 0.49611 0.18321 0.22869 0.0
H13 H 0.50467 0.17243 0.21163 0.0
H14 H 0.50133 0.20348 0.21563 0.0
H15 H 0.50589 0.18761 0.25682 0.0
C16 C 0.45502 0.09339 0.09676 0.0
N17 N 0.45893 0.0915 0.13348 0.0
N18 N 0.45917 0.11239 0.15147 0.0
C19 C 0.45652 0.12906 0.12593 0.0
C20 C 0.45358 0.11733 0.09049 0.0
C21 C 0.45275 0.07255 0.06812 0.0
H22 H 0.44158 0.05119 0.08005 0.0
H23 H 0.47402 0.07745 0.05959 0.0
H24 H 0.44136 0.07304 0.04294 0.0
O25 O 0.43116 0.04216 0.19001 0.0
O26 O 0.43311 0.07456 0.22842 0.0
H27 H 0.43852 0.1507 0.15324 0.0
H28 H 0.45563 0.16622 0.10941 0.0
C29 C 0.45667 0.15552 0.13511 0.0
H30 H 0.47593 0.16963 0.15085 0.0
H31 H 0.40811 0.10832 0.22445 0.0
O32 O 0.46792 0.03936 0.12725 0.0
C33 C 0.42248 0.04896 0.21875 0.0
Co34 Co 0.40274 0.46859 0.1701 0.0
Co35 Co 0.35127 0.45956 0.21656 0.0
C36 C 0.40634 0.51234 0.22458 0.0
O37 O 0.41687 0.50388 0.19952 0.0
O38 O 0.38079 0.49754 0.23448 0.0
C39 C 0.44795 0.49294 0.11593 0.0
O40 O 0.44539 0.51534 0.11623 0.0
C41 C 0.30192 0.46278 0.24545 0.0
C42 C 0.27323 0.41783 0.25578 0.0
C43 C 0.27496 0.4437 0.25757 0.0
N44 N 0.31513 0.44854 0.23676 0.0
N45 N 0.2978 0.42175 0.24319 0.0
C46 C 0.31532 0.49391 0.24342 0.0
H47 H 0.33835 0.50383 0.24436 0.0
H48 H 0.30953 0.49981 0.21666 0.0
H49 H 0.30801 0.50187 0.26683 0.0
C50 C 0.36424 0.45548 0.10723 0.0
N51 N 0.36998 0.45915 0.14401 0.0
N52 N 0.34843 0.45712 0.16238 0.0
C53 C 0.32855 0.45326 0.13705 0.0
C54 C 0.33798 0.45192 0.1013 0.0
C55 C 0.38387 0.45602 0.07792 0.0
H56 H 0.39493 0.44531 0.08831 0.0
H57 H 0.39938 0.47804 0.07118 0.0
H58 H 0.37265 0.44546 0.05191 0.0
O59 O 0.39729 0.43842 0.2035 0.0
O60 O 0.36192 0.43246 0.2391 0.0
H61 H 0.28934 0.43345 0.16553 0.0
H62 H 0.28894 0.44904 0.12117 0.0
C63 C 0.30143 0.4515 0.14665 0.0
H64 H 0.30555 0.47071 0.1618 0.0
H65 H 0.30267 0.40604 0.2385 0.0
O66 O 0.43192 0.47213 0.13605 0.0
C67 C 0.38059 0.42632 0.23042 0.0
Co68 Co 0.93305 0.40566 0.16802 0.0
Co69 Co 0.89117 0.35368 0.21439 0.0
C70 C 0.8937 0.40892 0.22411 0.0
O71 O 0.91235 0.41966 0.19869 0.0
O72 O 0.88309 0.38326 0.23347 0.0
C73 C 0.95316 0.45112 0.11417 0.0
O74 O 0.92798 0.44794 0.11463 0.0
C75 C 0.83858 0.30412 0.24272 0.0
C76 C 0.85547 0.27654 0.25682 0.0
C77 C 0.83103 0.2777 0.25669 0.0
N78 N 0.86616 0.31763 0.23496 0.0
N79 N 0.87598 0.30093 0.24354 0.0
C80 C 0.82037 0.31678 0.23819 0.0
H81 H 0.83311 0.33989 0.23726 0.0
H82 H 0.80867 0.30946 0.21152 0.0
H83 H 0.80505 0.31021 0.26147 0.0
C84 C 0.90775 0.3669 0.10515 0.0
N85 N 0.90939 0.37285 0.14185 0.0
N86 N 0.89036 0.35094 0.16023 0.0
C87 C 0.87518 0.33051 0.13501 0.0
C88 C 0.88585 0.34007 0.09932 0.0
C89 C 0.92742 0.38631 0.07616 0.0
H90 H 0.94887 0.39793 0.0876 0.0
H91 H 0.92075 0.4014 0.06779 0.0
H92 H 0.92776 0.37473 0.05103 0.0
O93 O 0.95811 0.39985 0.20033 0.0
O94 O 0.92907 0.36403 0.23561 0.0
H95 H 0.8585 0.29182 0.16454 0.0
H96 H 0.8424 0.28914 0.11947 0.0
C97 C 0.8513 0.30235 0.14478 0.0
H98 H 0.83486 0.30487 0.15897 0.0
H99 H 0.89677 0.30616 0.24006 0.0
O100 O 0.95837 0.43528 0.13401 0.0
C101 C 0.95379 0.38278 0.22664 0.0
Co102 Co 0.53177 0.93322 0.1606 0.0
Co103 Co 0.54397 0.89214 0.20505 0.0
C104 C 0.49135 0.89387 0.21891 0.0
O105 O 0.49846 0.91243 0.19354 0.0
O106 O 0.50678 0.88347 0.22706 0.0
C107 C 0.5027 0.95106 0.11038 0.0
O108 O 0.48152 0.92541 0.11271 0.0
C109 C 0.54297 0.84014 0.23032 0.0
C110 C 0.58828 0.857 0.23776 0.0
C111 C 0.56274 0.83251 0.23902 0.0
N112 N 0.55643 0.86789 0.22383 0.0
N113 N 0.58342 0.87779 0.22889 0.0
C114 C 0.51231 0.82121 0.2249 0.0
H115 H 0.50189 0.81598 0.25265 0.0
H116 H 0.50343 0.83165 0.20783 0.0
H117 H 0.5082 0.80143 0.21129 0.0
C118 C 0.54323 0.9076 0.09618 0.0
N119 N 0.54003 0.9094 0.13316 0.0
N120 N 0.5437 0.89063 0.15084 0.0
C121 C 0.54837 0.87544 0.1249 0.0
C122 C 0.54823 0.88584 0.08948 0.0
C123 C 0.5427 0.9272 0.0678 0.0
H124 H 0.55223 0.94859 0.07955 0.0
H125 H 0.52075 0.92008 0.05994 0.0
H126 H 0.5545 0.928 0.04234 0.0
O127 O 0.56402 0.95909 0.19054 0.0
O128 O 0.57241 0.93046 0.2241 0.0
H129 H 0.57199 0.85964 0.15211 0.0
H130 H 0.55705 0.843 0.1078 0.0
C131 C 0.55348 0.85195 0.13366 0.0
H132 H 0.53522 0.83537 0.14885 0.0
H133 H 0.59869 0.89865 0.22489 0.0
O134 O 0.52513 0.95756 0.12769 0.0
C135 C 0.57806 0.95512 0.21531 0.0
Co136 Co 0.60051 0.52787 0.15395 0.0
Co137 Co 0.6556 0.54295 0.19572 0.0
C138 C 0.60183 0.48957 0.21278 0.0
O139 O 0.58913 0.49542 0.1878 0.0
O140 O 0.62784 0.50585 0.21935 0.0
C141 C 0.55071 0.49818 0.10877 0.0
O142 O 0.55273 0.47574 0.11429 0.0
C143 C 0.7073 0.54582 0.22805 0.0
C144 C 0.73717 0.58994 0.21449 0.0
C145 C 0.73558 0.56625 0.23019 0.0
N146 N 0.69342 0.55713 0.21131 0.0
N147 N 0.71146 0.58353 0.20371 0.0
C148 C 0.69333 0.51662 0.2429 0.0
H149 H 0.67063 0.50822 0.2462 0.0
H150 H 0.69654 0.50306 0.22296 0.0
H151 H 0.70229 0.51607 0.27043 0.0
C152 C 0.63454 0.53485 0.0876 0.0
N153 N 0.63141 0.53483 0.1249 0.0
N154 N 0.65503 0.54112 0.14151 0.0
C155 C 0.67412 0.54531 0.11461 0.0
C156 C 0.66162 0.54144 0.0797 0.0
C157 C 0.61204 0.52919 0.05991 0.0
H158 H 0.60303 0.54274 0.06603 0.0
H159 H 0.59529 0.50706 0.06238 0.0
H160 H 0.61997 0.53291 0.03081 0.0
O161 O 0.60747 0.5608 0.18351 0.0
O162 O 0.64564 0.57104 0.21543 0.0
H163 H 0.71608 0.57502 0.1293 0.0
H164 H 0.71298 0.54881 0.09656 0.0
C165 C 0.70359 0.55257 0.12181 0.0
H166 H 0.70433 0.54 0.14546 0.0
H167 H 0.70621 0.59712 0.19055 0.0
O168 O 0.56912 0.52136 0.12226 0.0
C169 C 0.62586 0.57567 0.20752 0.0
Co170 Co 0.07077 0.60299 0.15744 0.0
Co171 Co 0.11304 0.65657 0.20035 0.0
C172 C 0.11176 0.60231 0.21321 0.0
O173 O 0.09242 0.59053 0.18888 0.0
O174 O 0.12238 0.62827 0.22101 0.0
C175 C 0.05006 0.55492 0.10805 0.0
O176 O 0.07515 0.55793 0.10956 0.0
C177 C 0.16541 0.70705 0.22585 0.0
C178 C 0.14968 0.7366 0.23157 0.0
C179 C 0.17363 0.7347 0.23433 0.0
N180 N 0.13787 0.69345 0.21818 0.0
N181 N 0.12865 0.71122 0.22208 0.0
C182 C 0.18363 0.69435 0.22201 0.0
H183 H 0.17363 0.6757 0.20353 0.0
H184 H 0.20439 0.70988 0.21068 0.0
H185 H 0.18671 0.68772 0.25004 0.0
C186 C 0.09532 0.63926 0.09201 0.0
N187 N 0.09388 0.63478 0.1291 0.0
N188 N 0.11314 0.65731 0.14615 0.0
C189 C 0.12828 0.67666 0.11973 0.0
C190 C 0.11727 0.66581 0.0846 0.0
C191 C 0.07591 0.61841 0.06406 0.0
H192 H 0.05434 0.60742 0.0753 0.0
H193 H 0.08254 0.60284 0.05838 0.0
H194 H 0.07591 0.62859 0.03739 0.0
O195 O 0.04589 0.60974 0.18918 0.0
O196 O 0.07542 0.64689 0.22197 0.0
H197 H 0.14579 0.71698 0.14511 0.0
H198 H 0.16234 0.71656 0.10159 0.0
C199 C 0.15272 0.70489 0.12779 0.0
H200 H 0.16847 0.70252 0.144 0.0
H201 H 0.10806 0.70619 0.21718 0.0
O202 O 0.04513 0.57202 0.1254 0.0
C203 C 0.05056 0.62784 0.21425 0.0
Co204 Co 0.93694 0.53941 0.36801 0.0
Co205 Co 0.89367 0.54905 0.32503 0.0
C206 C 0.8957 0.49657 0.31301 0.0
O207 O 0.91523 0.50477 0.33719 0.0
O208 O 0.8846 0.51139 0.30485 0.0
C209 C 0.95938 0.51434 0.41882 0.0
O210 O 0.93467 0.49161 0.4188 0.0
C211 C 0.84454 0.54989 0.29018 0.0
C212 C 0.85455 0.59204 0.30888 0.0
C213 C 0.83465 0.56877 0.28964 0.0
N214 N 0.86874 0.5616 0.30944 0.0
N215 N 0.87461 0.58685 0.32008 0.0
C216 C 0.83234 0.52205 0.27132 0.0
H217 H 0.8486 0.51627 0.26658 0.0
H218 H 0.81585 0.50594 0.28945 0.0
H219 H 0.82302 0.52243 0.24402 0.0
C220 C 0.91195 0.55067 0.43344 0.0
N221 N 0.91384 0.54798 0.39632 0.0
N222 N 0.89365 0.54952 0.37923 0.0
C223 C 0.87719 0.55168 0.40567 0.0
C224 C 0.88864 0.553 0.44078 0.0
C225 C 0.93141 0.54968 0.46165 0.0
H226 H 0.9531 0.56091 0.45086 0.0
H227 H 0.92528 0.52757 0.467 0.0
H228 H 0.9307 0.55936 0.48851 0.0
O229 O 0.96112 0.57049 0.33547 0.0
O230 O 0.93105 0.5769 0.30232 0.0
H231 H 0.85487 0.57274 0.39237 0.0
H232 H 0.8362 0.54305 0.4225 0.0
C233 C 0.85038 0.55114 0.39796 0.0
H234 H 0.83996 0.53797 0.37311 0.0
H235 H 0.89222 0.60041 0.33563 0.0
O236 O 0.96326 0.5354 0.39999 0.0
C237 C 0.95604 0.58314 0.30985 0.0
Co238 Co 0.40366 0.93288 0.36862 0.0
Co239 Co 0.3509 0.89143 0.32331 0.0
C240 C 0.40581 0.89398 0.31043 0.0
O241 O 0.41692 0.91245 0.33602 0.0
O242 O 0.38004 0.88346 0.30187 0.0
C243 C 0.45032 0.95135 0.4195 0.0
O244 O 0.4463 0.92586 0.41717 0.0
C245 C 0.30085 0.84024 0.29251 0.0
C246 C 0.2733 0.85799 0.28373 0.0
C247 C 0.27445 0.83366 0.27968 0.0
N248 N 0.31443 0.86724 0.3035 0.0
N249 N 0.29771 0.87755 0.2982 0.0
C250 C 0.31337 0.82173 0.29295 0.0
H251 H 0.33646 0.83434 0.29364 0.0
H252 H 0.30625 0.8085 0.31841 0.0
H253 H 0.30651 0.80782 0.26807 0.0
C254 C 0.36595 0.90674 0.4323 0.0
N255 N 0.37137 0.90871 0.39544 0.0
N256 N 0.34925 0.88978 0.37735 0.0
C257 C 0.32921 0.8743 0.40283 0.0
C258 C 0.33924 0.8847 0.43847 0.0
C259 C 0.3857 0.92636 0.46104 0.0
H260 H 0.40072 0.91951 0.469 0.0
H261 H 0.37442 0.92684 0.4864 0.0
H262 H 0.39738 0.94782 0.44955 0.0
O263 O 0.39724 0.9586 0.33843 0.0
O264 O 0.36056 0.9297 0.30452 0.0
H265 H 0.28948 0.85845 0.37663 0.0
H266 H 0.2888 0.84004 0.41882 0.0
C267 C 0.30096 0.85052 0.39325 0.0
H268 H 0.30325 0.8352 0.37571 0.0
H269 H 0.30302 0.89808 0.30445 0.0
O270 O 0.43416 0.95747 0.40206 0.0
C271 C 0.3793 0.95443 0.31344 0.0
Co272 Co 0.48316 0.40612 0.37224 0.0
Co273 Co 0.46703 0.35214 0.32657 0.0
C274 C 0.52067 0.40675 0.31131 0.0
O275 O 0.51549 0.41887 0.33794 0.0
O276 O 0.50395 0.38101 0.30352 0.0
C277 C 0.5125 0.45526 0.41917 0.0
O278 O 0.53523 0.45418 0.41184 0.0
C279 C 0.46782 0.30165 0.29765 0.0
C280 C 0.42328 0.27543 0.28289 0.0
C281 C 0.44847 0.27573 0.28272 0.0
N282 N 0.45444 0.31573 0.30608 0.0
N283 N 0.42785 0.29983 0.2972 0.0
C284 C 0.49852 0.31336 0.30259 0.0
H285 H 0.50943 0.33646 0.30471 0.0
H286 H 0.50223 0.30508 0.32889 0.0
H287 H 0.50718 0.30702 0.27893 0.0
C288 C 0.47542 0.36954 0.43579 0.0
N289 N 0.4762 0.37409 0.39878 0.0
N290 N 0.46825 0.35059 0.38057 0.0
C291 C 0.46146 0.32998 0.40603 0.0
C292 C 0.46617 0.34151 0.44186 0.0
C293 C 0.48152 0.39139 0.46491 0.0
H294 H 0.46739 0.4 0.46098 0.0
H295 H 0.50333 0.40865 0.46153 0.0
H296 H 0.4789 0.38302 0.49369 0.0
O297 O 0.45002 0.40002 0.3436 0.0
O298 O 0.43874 0.36235 0.30961 0.0
H299 H 0.43109 0.29292 0.37809 0.0
H300 H 0.44353 0.2866 0.4219 0.0
C301 C 0.44957 0.29981 0.39639 0.0
H302 H 0.46534 0.29716 0.38053 0.0
H303 H 0.41275 0.30567 0.30091 0.0
O304 O 0.4893 0.43641 0.40631 0.0
C305 C 0.43457 0.38215 0.31933 0.0
Co306 Co 0.07759 0.48195 0.36789 0.0
Co307 Co 0.115 0.46565 0.32175 0.0
C308 C 0.11462 0.51961 0.30715 0.0
O309 O 0.09736 0.51432 0.33382 0.0
O310 O 0.12361 0.50291 0.299 0.0
C311 C 0.05818 0.51109 0.41607 0.0
O312 O 0.08205 0.53393 0.40928 0.0
C313 C 0.16656 0.46573 0.29772 0.0
C314 C 0.14871 0.42094 0.2842 0.0
C315 C 0.17369 0.44593 0.28689 0.0
N316 N 0.13861 0.45282 0.30159 0.0
N317 N 0.12813 0.42617 0.29287 0.0
C318 C 0.18598 0.49561 0.30778 0.0
H319 H 0.17502 0.50394 0.32497 0.0
H320 H 0.20433 0.49766 0.32316 0.0
H321 H 0.19363 0.50811 0.28173 0.0
C322 C 0.10642 0.47416 0.43126 0.0
N323 N 0.10245 0.47474 0.39427 0.0
N324 N 0.1178 0.46662 0.37594 0.0
C325 C 0.13166 0.45989 0.4014 0.0
C326 C 0.12514 0.46491 0.43722 0.0
C327 C 0.09104 0.48063 0.46052 0.0
H328 H 0.06824 0.46686 0.45657 0.0
H329 H 0.09614 0.50263 0.4574 0.0
H330 H 0.09664 0.47772 0.48924 0.0
O331 O 0.05044 0.44903 0.33905 0.0
O332 O 0.07646 0.4377 0.30436 0.0
H333 H 0.13907 0.43065 0.3714 0.0
H334 H 0.15508 0.43986 0.41732 0.0
C335 C 0.14981 0.44784 0.39196 0.0
H336 H 0.16943 0.46429 0.37907 0.0
H337 H 0.10694 0.41125 0.29436 0.0
O338 O 0.05361 0.48808 0.40215 0.0
C339 C 0.05262 0.43367 0.31436 0.0
Co340 Co 0.60273 0.06663 0.36714 0.0
Co341 Co 0.65208 0.11322 0.32221 0.0
C342 C 0.59583 0.10422 0.30954 0.0
O343 O 0.58728 0.08371 0.33222 0.0
O344 O 0.62189 0.1205 0.30361 0.0
C345 C 0.55631 0.04598 0.41867 0.0
O346 O 0.55998 0.07138 0.41785 0.0
C347 C 0.70178 0.16673 0.29684 0.0
C348 C 0.73143 0.15135 0.28881 0.0
C349 C 0.72944 0.17533 0.28814 0.0
N350 N 0.68825 0.1389 0.30282 0.0
N351 N 0.70606 0.12991 0.29731 0.0
C352 C 0.6892 0.18489 0.30278 0.0
H353 H 0.66927 0.17345 0.3185 0.0
H354 H 0.70404 0.20421 0.31802 0.0
H355 H 0.68498 0.19114 0.27515 0.0
C356 C 0.63928 0.09465 0.43098 0.0
N357 N 0.63362 0.09284 0.39421 0.0
N358 N 0.65442 0.11366 0.37639 0.0
C359 C 0.67372 0.13018 0.40211 0.0
C360 C 0.66471 0.11847 0.43745 0.0
C361 C 0.62074 0.07365 0.45941 0.0
H362 H 0.60438 0.0785 0.46819 0.0
H363 H 0.63265 0.07399 0.48448 0.0
H364 H 0.61057 0.05235 0.44723 0.0
O365 O 0.61256 0.04332 0.33796 0.0
O366 O 0.64316 0.07565 0.2997 0.0
H367 H 0.71304 0.15149 0.37396 0.0
H368 H 0.71257 0.1663 0.41895 0.0
C369 C 0.70033 0.15638 0.39323 0.0
H370 H 0.69551 0.17125 0.37894 0.0
H371 H 0.70117 0.10922 0.30098 0.0
O372 O 0.57259 0.04058 0.40008 0.0
C373 C 0.62824 0.05008 0.30945 0.0
Co374 Co 0.53906 0.60362 0.3628 0.0
Co375 Co 0.54754 0.65532 0.31728 0.0
C376 C 0.49496 0.60011 0.30921 0.0
O377 O 0.50365 0.58946 0.33372 0.0
O378 O 0.50958 0.62576 0.29961 0.0
C379 C 0.51518 0.55719 0.41545 0.0
O380 O 0.49222 0.5587 0.41489 0.0
C381 C 0.54447 0.70479 0.28819 0.0
C382 C 0.58942 0.73322 0.27773 0.0
C383 C 0.56363 0.73154 0.27549 0.0
N384 N 0.55855 0.69157 0.29749 0.0
N385 N 0.58536 0.70879 0.29111 0.0
C386 C 0.5134 0.69162 0.29005 0.0
H387 H 0.50333 0.66853 0.29005 0.0
H388 H 0.50754 0.69814 0.31632 0.0
H389 H 0.50562 0.69855 0.26609 0.0
C390 C 0.55124 0.64166 0.42633 0.0
N391 N 0.54818 0.63625 0.38943 0.0
N392 N 0.55003 0.65783 0.37137 0.0
C393 C 0.55325 0.67739 0.39694 0.0
C394 C 0.55438 0.66779 0.43258 0.0
C395 C 0.54959 0.62142 0.45545 0.0
H396 H 0.56118 0.61099 0.44591 0.0
H397 H 0.52741 0.60537 0.45998 0.0
H398 H 0.5585 0.63194 0.4825 0.0
O399 O 0.56927 0.60955 0.32887 0.0
O400 O 0.57468 0.64503 0.2941 0.0
H401 H 0.57234 0.71684 0.36905 0.0
H402 H 0.5561 0.71643 0.41328 0.0
C403 C 0.55425 0.70423 0.38766 0.0
H404 H 0.53503 0.69965 0.37228 0.0
H405 H 0.60098 0.70386 0.29608 0.0
O406 O 0.53608 0.57429 0.39625 0.0
C407 C 0.58113 0.62649 0.30212 0.0
Co408 Co 0.52888 0.93005 0.866 0.0
Co409 Co 0.54293 0.89066 0.82031 0.0
C410 C 0.48861 0.89065 0.80943 0.0
O411 O 0.49502 0.909 0.83498 0.0
O412 O 0.50499 0.88148 0.80051 0.0
C413 C 0.50224 0.95217 0.91431 0.0
O414 O 0.47868 0.92882 0.90824 0.0
C415 C 0.54143 0.8391 0.79127 0.0
C416 C 0.58629 0.85674 0.77887 0.0
C417 C 0.5608 0.83213 0.77759 0.0
N418 N 0.5551 0.86651 0.80015 0.0
N419 N 0.58186 0.87679 0.79263 0.0
C420 C 0.51051 0.82056 0.79468 0.0
H421 H 0.49995 0.83309 0.79553 0.0
H422 H 0.50571 0.80853 0.82114 0.0
H423 H 0.5023 0.8056 0.77095 0.0
C424 C 0.53746 0.90207 0.92949 0.0
N425 N 0.53701 0.90595 0.89251 0.0
N426 N 0.54377 0.88946 0.87437 0.0
C427 C 0.54929 0.87473 0.89994 0.0
C428 C 0.54532 0.8823 0.93568 0.0
C429 C 0.5299 0.91675 0.95845 0.0
H430 H 0.54435 0.93962 0.95646 0.0
H431 H 0.50838 0.91242 0.9532 0.0
H432 H 0.53072 0.90961 0.98705 0.0
O433 O 0.56024 0.95601 0.83407 0.0
O434 O 0.56991 0.92863 0.79965 0.0
H435 H 0.57663 0.86371 0.87206 0.0
H436 H 0.56267 0.84559 0.916 0.0
C437 C 0.55795 0.85383 0.89042 0.0
H438 H 0.54092 0.83629 0.87468 0.0
H439 H 0.59717 0.89759 0.79703 0.0
O440 O 0.52463 0.95539 0.90002 0.0
C441 C 0.57432 0.95285 0.80843 0.0
Co442 Co 0.6002 0.53372 0.85593 0.0
Co443 Co 0.65199 0.54296 0.81025 0.0
C444 C 0.59733 0.49004 0.80176 0.0
O445 O 0.58656 0.49852 0.82646 0.0
O446 O 0.62294 0.50486 0.79214 0.0
C447 C 0.55473 0.5098 0.91035 0.0
O448 O 0.55701 0.48725 0.91098 0.0
C449 C 0.70189 0.53996 0.78544 0.0
C450 C 0.73128 0.58496 0.77633 0.0
C451 C 0.72945 0.55905 0.77645 0.0
N452 N 0.68821 0.55415 0.79077 0.0
N453 N 0.70585 0.58094 0.78463 0.0
C454 C 0.68954 0.50935 0.79246 0.0
H455 H 0.67007 0.50118 0.80915 0.0
H456 H 0.7048 0.50526 0.80716 0.0
H457 H 0.68452 0.49822 0.76522 0.0
C458 C 0.63826 0.54699 0.91929 0.0
N459 N 0.63279 0.54328 0.88246 0.0
N460 N 0.6545 0.54534 0.86447 0.0
C461 C 0.67418 0.54924 0.89016 0.0
C462 C 0.66444 0.55052 0.92566 0.0
C463 C 0.61862 0.54687 0.94824 0.0
H464 H 0.60741 0.55726 0.93722 0.0
H465 H 0.60327 0.52497 0.95578 0.0
H466 H 0.62995 0.55807 0.97388 0.0
O467 O 0.60586 0.56393 0.82256 0.0
O468 O 0.64147 0.56998 0.78743 0.0
H469 H 0.71328 0.56847 0.8613 0.0
H470 H 0.71417 0.5548 0.90693 0.0
C471 C 0.70148 0.55113 0.88129 0.0
H472 H 0.6976 0.53141 0.86788 0.0
H473 H 0.7008 0.59667 0.78777 0.0
O474 O 0.57077 0.53017 0.88957 0.0
C475 C 0.62276 0.57611 0.79588 0.0
Co476 Co 0.07477 0.59769 0.86205 0.0
Co477 Co 0.11245 0.65084 0.81537 0.0
C478 C 0.11282 0.59667 0.80338 0.0
O479 O 0.09522 0.58487 0.82975 0.0
O480 O 0.12169 0.6222 0.79444 0.0
C481 C 0.05369 0.5497 0.91217 0.0
O482 O 0.07691 0.54924 0.90629 0.0
C483 C 0.16386 0.70183 0.79026 0.0
C484 C 0.14627 0.72905 0.77744 0.0
C485 C 0.17109 0.72872 0.77934 0.0
N486 N 0.13598 0.68705 0.79489 0.0
N487 N 0.12563 0.70336 0.7866 0.0
C488 C 0.18319 0.6912 0.79973 0.0
H489 H 0.17238 0.67214 0.81733 0.0
H490 H 0.20192 0.7076 0.81446 0.0
H491 H 0.19023 0.6859 0.77345 0.0
C492 C 0.10332 0.6349 0.92502 0.0
N493 N 0.09913 0.63016 0.88809 0.0
N494 N 0.11471 0.65345 0.86957 0.0
C495 C 0.12901 0.67416 0.89487 0.0
C496 C 0.12236 0.66285 0.93078 0.0
C497 C 0.08893 0.613 0.95443 0.0
H498 H 0.06602 0.60406 0.95218 0.0
H499 H 0.09381 0.59607 0.94995 0.0
H500 H 0.09571 0.62145 0.98299 0.0
O501 O 0.04795 0.60259 0.83141 0.0
O502 O 0.07417 0.63948 0.79618 0.0
H503 H 0.13803 0.71118 0.86472 0.0
H504 H 0.15429 0.7176 0.91045 0.0
C505 C 0.14826 0.70413 0.88516 0.0
H506 H 0.16737 0.70623 0.87199 0.0
H507 H 0.10452 0.69728 0.78872 0.0
O508 O 0.05026 0.56839 0.89677 0.0
C509 C 0.05031 0.61956 0.80586 0.0
Co510 Co 0.47501 0.07404 0.86698 0.0
Co511 Co 0.46078 0.11322 0.82153 0.0
C512 C 0.51502 0.11342 0.80985 0.0
O513 O 0.50863 0.09508 0.83534 0.0
O514 O 0.49867 0.12266 0.80119 0.0
C515 C 0.50232 0.05275 0.91535 0.0
O516 O 0.52567 0.07638 0.90962 0.0
C517 C 0.46122 0.16443 0.79324 0.0
C518 C 0.41634 0.14589 0.78041 0.0
C519 C 0.44149 0.17088 0.77971 0.0
N520 N 0.44808 0.13694 0.80153 0.0
N521 N 0.42131 0.12612 0.79374 0.0
C522 C 0.49203 0.18355 0.79697 0.0
H523 H 0.50307 0.17148 0.79748 0.0
H524 H 0.49642 0.19529 0.82366 0.0
H525 H 0.50003 0.1988 0.77357 0.0
C526 C 0.46643 0.10206 0.93074 0.0
N527 N 0.46688 0.09813 0.89372 0.0
N528 N 0.46028 0.11472 0.87564 0.0
C529 C 0.455 0.12965 0.90126 0.0
C530 C 0.459 0.12217 0.93697 0.0
C531 C 0.47293 0.08663 0.95974 0.0
H532 H 0.45912 0.0638 0.95581 0.0
H533 H 0.49488 0.0917 0.95636 0.0
H534 H 0.4702 0.09234 0.9885 0.0
O535 O 0.44346 0.04771 0.83563 0.0
O536 O 0.43389 0.07504 0.80115 0.0
H537 H 0.42803 0.14093 0.87306 0.0
H538 H 0.4413 0.15857 0.91747 0.0
C539 C 0.44642 0.15061 0.89187 0.0
H540 H 0.46368 0.16835 0.87673 0.0
H541 H 0.40633 0.10514 0.79772 0.0
O542 O 0.47987 0.04911 0.90081 0.0
C543 C 0.4294 0.05082 0.81001 0.0
Co544 Co 0.40341 0.47794 0.87472 0.0
Co545 Co 0.3488 0.46218 0.83164 0.0
C546 C 0.4024 0.51614 0.81563 0.0
O547 O 0.41502 0.51045 0.84094 0.0
O548 O 0.37648 0.49963 0.80869 0.0
C549 C 0.45334 0.50743 0.91998 0.0
O550 O 0.45209 0.53019 0.91353 0.0
C551 C 0.2969 0.46113 0.80645 0.0
C552 C 0.2699 0.41567 0.79748 0.0
C553 C 0.26996 0.44075 0.7964 0.0
N554 N 0.31182 0.44844 0.81333 0.0
N555 N 0.29557 0.42134 0.80757 0.0
C556 C 0.30773 0.49163 0.81241 0.0
H557 H 0.32607 0.50055 0.83138 0.0
H558 H 0.29113 0.49513 0.82418 0.0
H559 H 0.31437 0.50256 0.78509 0.0
C560 C 0.36835 0.47043 0.94017 0.0
N561 N 0.37196 0.47058 0.90297 0.0
N562 N 0.34823 0.46314 0.88583 0.0
C563 C 0.32845 0.4575 0.91226 0.0
C564 C 0.34075 0.46224 0.94752 0.0
C565 C 0.39089 0.47715 0.96827 0.0
H566 H 0.39978 0.46329 0.96378 0.0
H567 H 0.40777 0.49909 0.96435 0.0
H568 H 0.3831 0.47465 0.99738 0.0
O569 O 0.39727 0.44517 0.84505 0.0
O570 O 0.35943 0.43468 0.81225 0.0
H571 H 0.2899 0.42865 0.886 0.0
H572 H 0.28594 0.44245 0.93022 0.0
C573 C 0.29842 0.44748 0.90408 0.0
H574 H 0.29674 0.46395 0.88862 0.0
H575 H 0.30183 0.40658 0.81143 0.0
O576 O 0.43436 0.48424 0.90724 0.0
C577 C 0.37927 0.4303 0.82062 0.0
Co578 Co 0.93017 0.40043 0.87311 0.0
Co579 Co 0.89114 0.3461 0.82954 0.0
C580 C 0.89045 0.39982 0.81581 0.0
O581 O 0.9089 0.41239 0.841 0.0
O582 O 0.88134 0.37405 0.80802 0.0
C583 C 0.95255 0.45038 0.91937 0.0
O584 O 0.92931 0.45069 0.91309 0.0
C585 C 0.83954 0.29552 0.8039 0.0
C586 C 0.85595 0.26669 0.79586 0.0
C587 C 0.83173 0.26819 0.79428 0.0
N588 N 0.86713 0.30938 0.81102 0.0
N589 N 0.87679 0.29208 0.80574 0.0
C590 C 0.82093 0.30763 0.80941 0.0
H591 H 0.8308 0.3258 0.82872 0.0
H592 H 0.80033 0.29157 0.82056 0.0
H593 H 0.81755 0.31487 0.782 0.0
C594 C 0.90241 0.36531 0.9381 0.0
N595 N 0.90629 0.36881 0.90097 0.0
N596 N 0.88985 0.34513 0.88371 0.0
C597 C 0.87518 0.32544 0.91002 0.0
C598 C 0.88268 0.33778 0.94532 0.0
C599 C 0.91711 0.3882 0.96619 0.0
H600 H 0.93996 0.39666 0.96411 0.0
H601 H 0.91269 0.40525 0.96006 0.0
H602 H 0.91014 0.38085 0.99509 0.0
O603 O 0.9563 0.39455 0.84205 0.0
O604 O 0.92904 0.35661 0.80921 0.0
H605 H 0.86406 0.28647 0.8837 0.0
H606 H 0.84637 0.28319 0.92777 0.0
C607 C 0.85431 0.29562 0.90169 0.0
H608 H 0.83657 0.29469 0.88605 0.0
H609 H 0.89753 0.29742 0.80997 0.0
O610 O 0.95547 0.43075 0.90603 0.0
C611 C 0.95322 0.37669 0.81737 0.0
Co612 Co 0.06767 0.46492 0.66146 0.0
Co613 Co 0.11087 0.45582 0.70551 0.0
C614 C 0.1097 0.50906 0.71413 0.0
O615 O 0.08986 0.50044 0.69038 0.0
O616 O 0.12051 0.49415 0.72306 0.0
C617 C 0.04521 0.48956 0.61026 0.0
O618 O 0.06984 0.51237 0.61083 0.0
C619 C 0.16174 0.45775 0.73845 0.0
C620 C 0.14727 0.41252 0.73726 0.0
C621 C 0.1697 0.43818 0.74724 0.0
N622 N 0.13581 0.44406 0.7238 0.0
N623 N 0.12742 0.41709 0.72324 0.0
C624 C 0.17772 0.48856 0.74553 0.0
H625 H 0.16327 0.49624 0.75285 0.0
H626 H 0.18909 0.49938 0.71965 0.0
H627 H 0.19301 0.49377 0.76852 0.0
C628 C 0.09233 0.4522 0.59698 0.0
N629 N 0.0904 0.45529 0.63398 0.0
N630 N 0.11024 0.45338 0.65149 0.0
C631 C 0.12637 0.45028 0.62548 0.0
C632 C 0.11523 0.44905 0.5901 0.0
C633 C 0.0735 0.45393 0.56838 0.0
H634 H 0.05162 0.44263 0.57847 0.0
H635 H 0.07986 0.47618 0.56379 0.0
H636 H 0.07458 0.44474 0.54128 0.0
O637 O 0.04348 0.43486 0.69562 0.0
O638 O 0.07364 0.42911 0.72954 0.0
H639 H 0.14685 0.42932 0.64719 0.0
H640 H 0.16486 0.45235 0.60845 0.0
C641 C 0.15248 0.44968 0.63416 0.0
H642 H 0.16522 0.46642 0.65458 0.0
H643 H 0.10802 0.40175 0.71323 0.0
O644 O 0.0413 0.46838 0.62883 0.0
C645 C 0.04865 0.42291 0.7221 0.0
Co646 Co 0.60023 0.07391 0.66058 0.0
Co647 Co 0.65357 0.11307 0.70625 0.0
C648 C 0.59956 0.11324 0.718 0.0
O649 O 0.58764 0.09491 0.69243 0.0
O650 O 0.62514 0.1225 0.72669 0.0
C651 C 0.55166 0.05257 0.61201 0.0
O652 O 0.55176 0.07612 0.61785 0.0
C653 C 0.70416 0.16349 0.7368 0.0
C654 C 0.73071 0.14473 0.74663 0.0
C655 C 0.73031 0.1695 0.74993 0.0
N656 N 0.69002 0.13641 0.72633 0.0
N657 N 0.70612 0.12547 0.73228 0.0
C658 C 0.69234 0.1826 0.73549 0.0
H659 H 0.66923 0.17047 0.735 0.0
H660 H 0.69959 0.19532 0.70958 0.0
H661 H 0.69955 0.19695 0.75993 0.0
C662 C 0.63688 0.10218 0.59704 0.0
N663 N 0.63247 0.09809 0.63401 0.0
N664 N 0.65558 0.11477 0.65222 0.0
C665 C 0.67576 0.12997 0.62675 0.0
C666 C 0.66436 0.1225 0.59098 0.0
C667 C 0.615 0.08684 0.56793 0.0
H668 H 0.59804 0.09179 0.57148 0.0
H669 H 0.62344 0.09275 0.53922 0.0
H670 H 0.60608 0.064 0.57155 0.0
O671 O 0.60546 0.0475 0.69167 0.0
O672 O 0.64228 0.07487 0.72626 0.0
H673 H 0.7145 0.14141 0.65359 0.0
H674 H 0.71792 0.16052 0.61084 0.0
C675 C 0.70513 0.15129 0.63639 0.0
H676 H 0.70509 0.16809 0.65339 0.0
H677 H 0.70026 0.10472 0.72649 0.0
O678 O 0.57053 0.04904 0.62657 0.0
C679 C 0.62264 0.05063 0.71727 0.0
Co680 Co 0.52066 0.5977 0.65524 0.0
Co681 Co 0.53797 0.65193 0.7005 0.0
C682 C 0.48386 0.59823 0.71663 0.0
O683 O 0.48872 0.58577 0.69011 0.0
O684 O 0.50087 0.62398 0.72412 0.0
C685 C 0.4906 0.54844 0.6084 0.0
O686 O 0.46791 0.54958 0.6158 0.0
C687 C 0.53899 0.70346 0.72699 0.0
C688 C 0.58434 0.73063 0.73619 0.0
C689 C 0.55921 0.7304 0.73712 0.0
N690 N 0.55176 0.6886 0.72015 0.0
N691 N 0.57879 0.70492 0.72619 0.0
C692 C 0.50861 0.69275 0.72055 0.0
H693 H 0.49968 0.67406 0.70211 0.0
H694 H 0.50541 0.70929 0.70797 0.0
H695 H 0.49753 0.68674 0.74782 0.0
C696 C 0.52824 0.63404 0.5914 0.0
N697 N 0.52792 0.6297 0.62842 0.0
N698 N 0.53632 0.65334 0.64648 0.0
C699 C 0.5429 0.67382 0.62086 0.0
C700 C 0.5376 0.66207 0.58516 0.0
C701 C 0.52152 0.61196 0.5624 0.0
H702 H 0.53529 0.60293 0.56621 0.0
H703 H 0.49958 0.59504 0.56603 0.0
H704 H 0.52415 0.62026 0.53357 0.0
O705 O 0.55384 0.60333 0.68327 0.0
O706 O 0.56577 0.64113 0.71721 0.0
H707 H 0.57356 0.71106 0.6482 0.0
H708 H 0.5609 0.7171 0.60445 0.0
C709 C 0.55495 0.70408 0.63013 0.0
H710 H 0.53931 0.70695 0.64595 0.0
H711 H 0.59362 0.69874 0.72223 0.0
O712 O 0.51382 0.56716 0.62134 0.0
C713 C 0.56957 0.62113 0.7074 0.0
Co714 Co 0.92682 0.52136 0.66279 0.0
Co715 Co 0.88851 0.53657 0.70899 0.0
C716 C 0.8885 0.48233 0.72148 0.0
O717 O 0.90635 0.48824 0.69541 0.0
O718 O 0.87944 0.49889 0.73003 0.0
C719 C 0.9465 0.4929 0.61383 0.0
O720 O 0.92249 0.47005 0.61993 0.0
C721 C 0.83704 0.53605 0.73574 0.0
C722 C 0.85544 0.58053 0.75133 0.0
C723 C 0.8303 0.55555 0.74967 0.0
N724 N 0.86479 0.54919 0.72941 0.0
N725 N 0.87555 0.5757 0.73894 0.0
C726 C 0.81794 0.50542 0.72967 0.0
H727 H 0.8299 0.49424 0.72922 0.0
H728 H 0.80734 0.50209 0.70228 0.0
H729 H 0.8018 0.49666 0.75196 0.0
C730 C 0.89871 0.53022 0.59953 0.0
N731 N 0.90243 0.52925 0.6365 0.0
N732 N 0.88658 0.53669 0.65493 0.0
C733 C 0.87252 0.54325 0.62961 0.0
C734 C 0.87955 0.53895 0.59375 0.0
C735 C 0.91432 0.52419 0.57015 0.0
H736 H 0.93709 0.53771 0.57468 0.0
H737 H 0.90899 0.50207 0.57248 0.0
H738 H 0.90913 0.52775 0.54152 0.0
O739 O 0.95352 0.55354 0.69313 0.0
O740 O 0.92681 0.56383 0.72806 0.0
H741 H 0.864 0.57181 0.65934 0.0
H742 H 0.84711 0.5612 0.61404 0.0
C743 C 0.85345 0.55416 0.63937 0.0
H744 H 0.83453 0.5374 0.65323 0.0
H745 H 0.89667 0.59065 0.73655 0.0
O746 O 0.95113 0.51572 0.62847 0.0
C747 C 0.95083 0.56813 0.71851 0.0
Co748 Co 0.40284 0.92961 0.66155 0.0
Co749 Co 0.34951 0.89053 0.70741 0.0
C750 C 0.40388 0.89055 0.71832 0.0
O751 O 0.41578 0.90875 0.69265 0.0
O752 O 0.37835 0.88147 0.72727 0.0
C753 C 0.45157 0.95173 0.6132 0.0
O754 O 0.452 0.92853 0.61954 0.0
C755 C 0.2994 0.8386 0.73498 0.0
C756 C 0.27228 0.85606 0.7491 0.0
C757 C 0.27297 0.83133 0.74865 0.0
N758 N 0.3133 0.86625 0.72767 0.0
N759 N 0.29692 0.87645 0.7363 0.0
C760 C 0.31173 0.82011 0.73004 0.0
H761 H 0.33482 0.83262 0.72955 0.0
H762 H 0.30466 0.80887 0.70297 0.0
H763 H 0.30481 0.80446 0.75292 0.0
C764 C 0.36626 0.90109 0.59817 0.0
N765 N 0.3706 0.9053 0.63514 0.0
N766 N 0.34732 0.88906 0.65333 0.0
C767 C 0.32703 0.87428 0.6278 0.0
C768 C 0.33858 0.88142 0.59204 0.0
C769 C 0.38853 0.91537 0.5692 0.0
H770 H 0.40578 0.91122 0.575 0.0
H771 H 0.38066 0.90777 0.54067 0.0
H772 H 0.39685 0.93826 0.57052 0.0
O773 O 0.39747 0.95572 0.69339 0.0
O774 O 0.36042 0.92856 0.72787 0.0
H775 H 0.28913 0.86355 0.65682 0.0
H776 H 0.28417 0.84642 0.61182 0.0
C777 C 0.29737 0.85376 0.63731 0.0
H778 H 0.29645 0.83556 0.6517 0.0
H779 H 0.30251 0.89738 0.7331 0.0
O780 O 0.43229 0.95485 0.62736 0.0
C781 C 0.38025 0.95273 0.71899 0.0
Co782 Co 0.4644 0.4003 0.66442 0.0
Co783 Co 0.45522 0.34843 0.7096 0.0
C784 C 0.5085 0.40279 0.71727 0.0
O785 O 0.49992 0.41375 0.69308 0.0
O786 O 0.49358 0.37716 0.72687 0.0
C787 C 0.48829 0.44678 0.61162 0.0
O788 O 0.51123 0.44523 0.61164 0.0
C789 C 0.45779 0.29846 0.73538 0.0
C790 C 0.41268 0.26911 0.74339 0.0
C791 C 0.43854 0.27094 0.74446 0.0
N792 N 0.44374 0.31211 0.72888 0.0
N793 N 0.41687 0.29449 0.73429 0.0
C794 C 0.48851 0.31083 0.72958 0.0
H795 H 0.49688 0.32986 0.71193 0.0
H796 H 0.49302 0.29529 0.71643 0.0
H797 H 0.4991 0.3167 0.75716 0.0
C798 C 0.45139 0.36229 0.6006 0.0
N799 N 0.45452 0.36759 0.63755 0.0
N800 N 0.45239 0.34585 0.65547 0.0
C801 C 0.44892 0.32627 0.62973 0.0
C802 C 0.44793 0.33605 0.59417 0.0
C803 C 0.45347 0.38278 0.57159 0.0
H804 H 0.44219 0.39351 0.58119 0.0
H805 H 0.47575 0.39856 0.56714 0.0
H806 H 0.44448 0.37241 0.5445 0.0
O807 O 0.43468 0.39502 0.69884 0.0
O808 O 0.42889 0.3594 0.73358 0.0
H809 H 0.43003 0.28696 0.65801 0.0
H810 H 0.44491 0.28681 0.61295 0.0
C811 C 0.44767 0.29926 0.63865 0.0
H812 H 0.46723 0.30359 0.65286 0.0
H813 H 0.40124 0.29957 0.73033 0.0
O814 O 0.46759 0.4298 0.63121 0.0
C815 C 0.42287 0.37827 0.72579 0.0
C816 C 0.469 0.99423 0.09421 0.0
C817 C 0.49262 0.0212 0.09546 0.0
H818 H 0.45368 0.95026 0.0973 0.0
C819 C 0.51921 0.02428 0.09119 0.0
H820 H 0.44816 0.99127 0.09654 0.0
C821 C 0.52234 1.00075 0.09162 0.0
C822 C 0.49891 0.97394 0.09616 0.0
H823 H 0.53777 0.04479 0.09137 0.0
H824 H 0.54326 0.00376 0.09189 0.0
C825 C 0.47213 0.97069 0.09449 0.0
C826 C 0.52277 0.52035 0.0912 0.0
C827 C 0.52437 0.49591 0.09603 0.0
H828 H 0.49662 0.53859 0.09329 0.0
C829 C 0.4997 0.46992 0.09645 0.0
H830 H 0.54153 0.54067 0.08972 0.0
C831 C 0.47398 0.46877 0.0983 0.0
C832 C 0.47274 0.49358 0.09976 0.0
H833 H 0.50026 0.4507 0.09933 0.0
H834 H 0.45535 0.44861 0.10229 0.0
C835 C 0.49703 0.5192 0.09309 0.0
C836 C 0.02756 0.50407 0.09403 0.0
C837 C 0.02595 0.52857 0.09515 0.0
H838 H 0.00499 0.45954 0.09855 0.0
C839 C 0.9997 0.52667 0.09184 0.0
H840 H 0.04751 0.50489 0.09589 0.0
C841 C 0.97532 0.50069 0.09342 0.0
C842 C 0.97701 0.47643 0.09842 0.0
H843 H 0.99793 0.54533 0.09171 0.0
H844 H 0.95541 0.49998 0.0947 0.0
C845 C 0.00318 0.4781 0.09573 0.0
C846 C 0.00849 0.48778 0.43647 0.0
C847 C 0.03415 0.51259 0.43109 0.0
H848 H 0.96401 0.46883 0.4373 0.0
C849 C 0.03494 0.53832 0.43266 0.0
H850 H 0.00736 0.46763 0.43645 0.0
C851 C 0.01008 0.53897 0.43341 0.0
C852 C 0.98423 0.51391 0.43251 0.0
H853 H 0.05443 0.55781 0.42944 0.0
H854 H 0.01112 0.55902 0.43097 0.0
C855 C 0.98361 0.48843 0.43714 0.0
C856 C 0.47993 1.00128 0.43758 0.0
C857 C 0.47691 0.97458 0.43342 0.0
H858 H 0.50805 0.04542 0.43684 0.0
C859 C 0.50069 0.97175 0.43487 0.0
H860 H 0.46183 0.00398 0.43746 0.0
C861 C 0.52718 0.99551 0.43448 0.0
C862 C 0.5301 0.0223 0.43279 0.0
H863 H 0.499 0.95141 0.43234 0.0
H864 H 0.54523 0.99283 0.43197 0.0
C865 C 0.50641 0.02504 0.43734 0.0
C866 C 0.53986 0.50634 0.43224 0.0
C867 C 0.51421 0.48127 0.43272 0.0
H868 H 0.56027 0.55075 0.4272 0.0
C869 C 0.4895 0.48223 0.43835 0.0
H870 H 0.55929 0.50629 0.42875 0.0
C871 C 0.49001 0.50771 0.43722 0.0
C872 C 0.51525 0.53244 0.43055 0.0
H873 H 0.46944 0.46316 0.43989 0.0
H874 H 0.47039 0.50763 0.4377 0.0
C875 C 0.54037 0.53181 0.43118 0.0
C876 C 0.52788 0.02786 0.93208 0.0
C877 C 0.50265 0.02794 0.92968 0.0
H878 H 0.5475 0.00305 0.9301 0.0
C879 C 0.47732 0.00254 0.93337 0.0
H880 H 0.54772 0.04713 0.93021 0.0
C881 C 0.47713 0.97722 0.93291 0.0
C882 C 0.50229 0.97712 0.92901 0.0
H883 H 0.4575 0.00204 0.93279 0.0
H884 H 0.45725 0.95794 0.93178 0.0
C885 C 0.5277 0.00254 0.93186 0.0
C886 C 0.5046 0.53477 0.93083 0.0
C887 C 0.47956 0.50913 0.93218 0.0
H888 H 0.54878 0.55505 0.92355 0.0
C889 C 0.48056 0.48436 0.93716 0.0
H890 H 0.50453 0.55424 0.92782 0.0
C891 C 0.50592 0.48478 0.93447 0.0
C892 C 0.53045 0.50998 0.92691 0.0
H893 H 0.46153 0.46432 0.93932 0.0
H894 H 0.5058 0.46511 0.93442 0.0
C895 C 0.52994 0.53518 0.9282 0.0
C896 C 0.00304 0.47528 0.93557 0.0
C897 C 0.97784 0.47562 0.93248 0.0
H898 H 0.04755 0.49909 0.93177 0.0
C899 C 0.97846 0.50126 0.93403 0.0
H900 H 0.00315 0.45572 0.93566 0.0
C901 C 0.00396 0.52612 0.93222 0.0
C902 C 0.02901 0.52551 0.92858 0.0
H903 H 0.95938 0.50219 0.93266 0.0
H904 H 0.00379 0.54558 0.92981 0.0
C905 C 0.02854 0.50013 0.93346 0.0
C906 C 0.96967 0.46573 0.59654 0.0
C907 C 0.97051 0.49146 0.59856 0.0
H908 H 0.99344 0.44496 0.5977 0.0
C909 C 0.99617 0.51629 0.59336 0.0
H910 H 0.95016 0.44624 0.59963 0.0
C911 C 0.02102 0.5156 0.59241 0.0
C912 C 0.02037 0.49007 0.59663 0.0
H913 H 0.99733 0.53645 0.59372 0.0
H914 H 0.04064 0.53519 0.59239 0.0
C915 C 0.99451 0.46504 0.59555 0.0
C916 C 0.5267 0.00236 0.5939 0.0
C917 C 0.52661 0.02769 0.5976 0.0
H918 H 0.50241 0.95775 0.59557 0.0
C919 C 0.50122 0.02744 0.59519 0.0
H920 H 0.54609 0.00198 0.59447 0.0
C921 C 0.47617 0.00204 0.59545 0.0
C922 C 0.47634 0.97671 0.59836 0.0
H923 H 0.50052 0.04665 0.59705 0.0
H924 H 0.45681 0.00243 0.59723 0.0
C925 C 0.50166 0.97696 0.59441 0.0
C926 C 0.46285 0.47195 0.59624 0.0
C927 C 0.48802 0.47142 0.59651 0.0
H928 H 0.44381 0.49735 0.59913 0.0
C929 C 0.51317 0.49618 0.58955 0.0
H930 H 0.44301 0.45298 0.60044 0.0
C931 C 0.51356 0.52161 0.58851 0.0
C932 C 0.48885 0.52247 0.59458 0.0
H933 H 0.53281 0.49632 0.58878 0.0
H934 H 0.53358 0.54071 0.58677 0.0
C935 C 0.46325 0.49737 0.5953 0.0
C936 C 0.43327 0.23446 0.2413 0.0
C937 C 0.45179 0.25219 0.26886 0.0
H938 H 0.41736 0.19613 0.21103 0.0
C939 C 0.47078 0.24525 0.28489 0.0
H940 H 0.41851 0.23921 0.22812 0.0
C941 C 0.47033 0.22048 0.27457 0.0
C942 C 0.45066 0.20219 0.24849 0.0
H943 H 0.48485 0.25795 0.30685 0.0
H944 H 0.48416 0.21485 0.28856 0.0
C945 C 0.43262 0.20977 0.23142 0.0
C946 C 0.23061 0.42773 0.29254 0.0
C947 C 0.25131 0.4477 0.26891 0.0
H948 H 0.19008 0.41176 0.31672 0.0
C949 C 0.24726 0.46893 0.25376 0.0
H950 H 0.23301 0.41116 0.30488 0.0
C951 C 0.22261 0.4695 0.2612 0.0
C952 C 0.2015 0.44858 0.28328 0.0
H953 H 0.26219 0.48416 0.23455 0.0
H954 H 0.2194 0.4853 0.24799 0.0
C955 C 0.20598 0.42805 0.2994 0.0
C956 C 0.77833 0.24824 0.25112 0.0
C957 C 0.80352 0.25416 0.26858 0.0
H958 H 0.73463 0.21845 0.24397 0.0
C959 C 0.80302 0.23525 0.29523 0.0
H960 H 0.77798 0.26189 0.22978 0.0
C961 C 0.77847 0.21037 0.30273 0.0
C962 C 0.75365 0.2038 0.28411 0.0
H963 H 0.82193 0.23918 0.30944 0.0
H964 H 0.77911 0.19578 0.32239 0.0
C965 C 0.75348 0.22328 0.25906 0.0
C966 C 0.53906 0.78471 0.26871 0.0
C967 C 0.5594 0.80448 0.24456 0.0
H968 H 0.52459 0.74619 0.29839 0.0
C969 C 0.57892 0.79859 0.22812 0.0
H970 H 0.52406 0.78899 0.28222 0.0
C971 C 0.57898 0.77407 0.23679 0.0
C972 C 0.55968 0.75483 0.26243 0.0
H973 H 0.59472 0.81338 0.20918 0.0
H974 H 0.59485 0.77064 0.22421 0.0
C975 C 0.5393 0.7601 0.2778 0.0
C976 C 0.78453 0.59097 0.25358 0.0
C977 C 0.76023 0.56549 0.24559 0.0
H978 H 0.82661 0.61183 0.27242 0.0
C979 C 0.76078 0.54054 0.25119 0.0
H980 H 0.78523 0.61074 0.24964 0.0
C981 C 0.78471 0.54116 0.26547 0.0
C982 C 0.80899 0.56678 0.27317 0.0
H983 H 0.74311 0.52047 0.24426 0.0
H984 H 0.78371 0.52149 0.27098 0.0
C985 C 0.80845 0.59161 0.26689 0.0
C986 C 0.24487 0.78083 0.27814 0.0
C987 C 0.25122 0.80724 0.26443 0.0
H988 H 0.21512 0.73678 0.27926 0.0
C989 C 0.23317 0.80883 0.23825 0.0
H990 H 0.25789 0.77888 0.29905 0.0
C991 C 0.20871 0.78493 0.22736 0.0
C992 C 0.20169 0.75871 0.24214 0.0
H993 H 0.23749 0.82879 0.22693 0.0
H994 H 0.19485 0.7871 0.20802 0.0
C995 C 0.2203 0.75668 0.26691 0.0
C996 C 0.57666 0.80547 0.73844 0.0
C997 C 0.55721 0.80507 0.76418 0.0
H998 H 0.59225 0.78214 0.70969 0.0
C999 C 0.5367 0.77918 0.77883 0.0
H1000 H 0.59267 0.82495 0.72643 0.0
C1001 C 0.53622 0.75441 0.7686 0.0
C1002 C 0.55653 0.75527 0.74415 0.0
H1003 H 0.52195 0.77803 0.79959 0.0
H1004 H 0.52099 0.73489 0.78139 0.0
C1005 C 0.57642 0.78094 0.72876 0.0
C1006 C 0.77785 0.5337 0.74204 0.0
C1007 C 0.80298 0.55281 0.75988 0.0
H1008 H 0.73445 0.52042 0.73369 0.0
C1009 C 0.80267 0.57201 0.78546 0.0
H1010 H 0.77731 0.51917 0.72135 0.0
C1011 C 0.77839 0.5731 0.79172 0.0
C1012 C 0.75362 0.55476 0.773 0.0
H1013 H 0.82152 0.58694 0.7999 0.0
H1014 H 0.77915 0.58879 0.81069 0.0
C1015 C 0.75326 0.53451 0.74885 0.0
C1016 C 0.244 0.77847 0.74366 0.0
C1017 C 0.24903 0.80384 0.75986 0.0
H1018 H 0.21528 0.73439 0.73764 0.0
C1019 C 0.22913 0.80342 0.78482 0.0
H1020 H 0.25823 0.77793 0.72342 0.0
C1021 C 0.20436 0.77869 0.79207 0.0
C1022 C 0.19898 0.75362 0.77505 0.0
H1023 H 0.23229 0.82245 0.79801 0.0
H1024 H 0.18907 0.77928 0.81048 0.0
C1025 C 0.21925 0.75347 0.75154 0.0
C1026 C 0.46378 0.22362 0.78333 0.0
C1027 C 0.44434 0.19781 0.76726 0.0
H1028 H 0.47741 0.26741 0.7884 0.0
C1029 C 0.42499 0.19718 0.7413 0.0
H1030 H 0.47845 0.22486 0.80421 0.0
C1031 C 0.42409 0.22131 0.73294 0.0
C1032 C 0.44273 0.24682 0.74995 0.0
H1033 H 0.40982 0.17775 0.72819 0.0
H1034 H 0.40829 0.21986 0.71372 0.0
C1035 C 0.46311 0.24802 0.77448 0.0
C1036 C 0.19449 0.42082 0.78708 0.0
C1037 C 0.19588 0.44189 0.76376 0.0
H1038 H 0.2168 0.40437 0.81606 0.0
C1039 C 0.22224 0.46428 0.75371 0.0
H1040 H 0.17451 0.40333 0.79539 0.0
C1041 C 0.2467 0.46495 0.76579 0.0
C1042 C 0.24507 0.44314 0.78786 0.0
H1043 H 0.22401 0.48042 0.73489 0.0
H1044 H 0.26668 0.48162 0.7561 0.0
C1045 C 0.21873 0.42142 0.79893 0.0
C1046 C 0.77223 0.19409 0.79038 0.0
C1047 C 0.75398 0.19582 0.76463 0.0
H1048 H 0.81084 0.21568 0.82002 0.0
C1049 C 0.76041 0.22227 0.75099 0.0
H1050 H 0.76788 0.17411 0.80161 0.0
C1051 C 0.78508 0.24632 0.76206 0.0
C1052 C 0.80377 0.24415 0.78648 0.0
H1053 H 0.74736 0.22437 0.73031 0.0
H1054 H 0.79024 0.26628 0.74991 0.0
C1055 C 0.79684 0.21791 0.80099 0.0
C1056 C 0.38628 0.99914 0.23005 0.0
C1057 C 0.40397 0.02611 0.24442 0.0
H1058 H 0.36389 0.9551 0.24099 0.0
C1059 C 0.40857 0.02943 0.28318 0.0
H1060 H 0.38234 0.99598 0.20025 0.0
C1061 C 0.39847 0.00595 0.30639 0.0
C1062 C 0.38313 0.9788 0.29137 0.0
H1063 H 0.42222 0.0499 0.29505 0.0
H1064 H 0.40427 0.009 0.33569 0.0
C1065 C 0.37571 0.97569 0.25339 0.0
C1066 C 0.39573 0.39106 0.23874 0.0
C1067 C 0.38653 0.4083 0.25478 0.0
H1068 H 0.41739 0.36841 0.24697 0.0
C1069 C 0.38908 0.41283 0.29359 0.0
H1070 H 0.39417 0.38742 0.2088 0.0
C1071 C 0.40311 0.40262 0.31531 0.0
C1072 C 0.41418 0.38711 0.29873 0.0
H1073 H 0.38252 0.42635 0.30658 0.0
H1074 H 0.40666 0.40818 0.34468 0.0
C1075 C 0.40905 0.38021 0.2606 0.0
C1076 C 1.00075 0.40221 0.31063 0.0
C1077 C 0.02716 0.41384 0.29349 0.0
H1078 H 0.95639 0.38204 0.30271 0.0
C1079 C 0.02862 0.41019 0.25481 0.0
H1080 H 0.99902 0.40468 0.34043 0.0
C1081 C 0.00427 0.39779 0.23319 0.0
C1082 C 0.97799 0.38808 0.24998 0.0
H1083 H 0.04863 0.41904 0.24078 0.0
H1084 H 0.0061 0.39735 0.20303 0.0
C1085 C 0.97634 0.38909 0.2891 0.0
C1086 C 0.61019 0.00668 0.22213 0.0
C1087 C 0.59846 0.97961 0.23735 0.0
H1088 H 0.62998 0.05066 0.23317 0.0
C1089 C 0.60254 0.97673 0.27548 0.0
H1090 H 0.60759 0.00955 0.19272 0.0
C1091 C 0.61508 1.00029 0.2987 0.0
C1092 C 0.62427 0.02717 0.28408 0.0
H1093 H 0.59379 0.9562 0.28803 0.0
H1094 H 0.61568 0.9973 0.32858 0.0
C1095 C 0.62324 0.03028 0.24524 0.0
C1096 C 0.59609 0.62101 0.23814 0.0
C1097 C 0.59932 0.62113 0.27711 0.0
H1098 H 0.60197 0.6062 0.18527 0.0
C1099 C 0.61574 0.6106 0.29202 0.0
H1100 H 0.58331 0.6287 0.22591 0.0
C1101 C 0.62696 0.59828 0.2687 0.0
C1102 C 0.62127 0.59554 0.23015 0.0
H1103 H 0.61847 0.61035 0.32201 0.0
H1104 H 0.63797 0.58876 0.28131 0.0
C1105 C 0.60665 0.60798 0.21491 0.0
C1106 C 0.00671 0.61721 0.30007 0.0
C1107 C 0.97957 0.60189 0.28522 0.0
H1108 H 0.05071 0.63838 0.28891 0.0
C1109 C 0.97618 0.59998 0.24622 0.0
H1110 H 0.0099 0.61894 0.33008 0.0
C1111 C 0.99956 0.61053 0.2227 0.0
C1112 C 0.02672 0.62378 0.23773 0.0
H1113 H 0.95556 0.58808 0.23401 0.0
H1114 H 0.99636 0.60676 0.19287 0.0
C1115 C 0.03008 0.62839 0.2765 0.0
C1116 C 0.59261 0.97517 0.74617 0.0
C1117 C 0.59292 0.97749 0.78534 0.0
H1118 H 0.6017 0.9968 0.69366 0.0
C1119 C 0.6072 0.00424 0.80165 0.0
H1120 H 0.58153 0.95484 0.73284 0.0
C1121 C 0.61941 0.02825 0.77923 0.0
C1122 C 0.61677 0.02593 0.74011 0.0
H1123 H 0.60766 0.00661 0.83179 0.0
H1124 H 0.62886 0.04856 0.79261 0.0
C1125 C 0.60406 0.99917 0.72376 0.0
C1126 C 0.61435 0.58964 0.73278 0.0
C1127 C 0.61713 0.5943 0.77156 0.0
H1128 H 0.59673 0.5944 0.68182 0.0
C1129 C 0.60836 0.61187 0.78764 0.0
H1130 H 0.62059 0.57587 0.71979 0.0
C1131 C 0.59521 0.62293 0.76585 0.0
C1132 C 0.58982 0.6159 0.72779 0.0
H1133 H 0.6101 0.61561 0.81756 0.0
H1134 H 0.58718 0.63499 0.77952 0.0
C1135 C 0.60049 0.60006 0.71115 0.0
C1136 C 0.02664 0.61455 0.74454 0.0
C1137 C 0.02515 0.61298 0.78377 0.0
H1138 H 0.00397 0.60117 0.69286 0.0
C1139 C 0.99878 0.60044 0.8011 0.0
H1140 H 0.04667 0.62383 0.73044 0.0
C1141 C 0.97435 0.58815 0.7796 0.0
C1142 C 0.97588 0.58741 0.74041 0.0
H1143 H 0.99706 0.59886 0.83132 0.0
H1144 H 0.95435 0.57725 0.79373 0.0
C1145 C 0.00222 0.60149 0.72304 0.0
C1146 C 0.39645 0.99938 0.80344 0.0
C1147 C 0.41067 0.02609 0.78706 0.0
H1148 H 0.3746 0.95502 0.79449 0.0
C1149 C 0.41071 0.0283 0.74791 0.0
H1150 H 0.39619 0.99708 0.83357 0.0
C1151 C 0.39903 0.00423 0.72554 0.0
C1152 C 0.38633 0.97751 0.74192 0.0
H1153 H 0.42174 0.04858 0.7345 0.0
H1154 H 0.40118 0.00652 0.69541 0.0
C1155 C 0.384 0.97531 0.78108 0.0
C1156 C 0.37769 0.40703 0.75981 0.0
C1157 C 0.38419 0.41057 0.79814 0.0
H1158 H 0.38508 0.39391 0.70657 0.0
C1159 C 0.39933 0.39865 0.81324 0.0
H1160 H 0.36621 0.41609 0.7473 0.0
C1161 C 0.40947 0.38523 0.79002 0.0
C1162 C 0.40529 0.38419 0.75117 0.0
H1163 H 0.40461 0.40102 0.84271 0.0
H1164 H 0.4226 0.37788 0.80204 0.0
C1165 C 0.3885 0.39434 0.73647 0.0
C1166 C 0.02846 0.40826 0.78624 0.0
C1167 C 0.02526 0.40473 0.7473 0.0
H1168 H 0.00786 0.40219 0.83921 0.0
C1169 C 0.99833 0.38786 0.73253 0.0
H1170 H 0.04892 0.42141 0.79834 0.0
C1171 C 0.97487 0.37632 0.75596 0.0
C1172 C 0.97785 0.38215 0.7945 0.0
H1173 H 0.99529 0.38492 0.70256 0.0
H1174 H 0.95432 0.36483 0.74346 0.0
C1175 C 0.00493 0.39738 0.80959 0.0
C1176 C 0.53157 0.08022 0.24987 0.0
C1177 C 0.53224 0.1052 0.24031 0.0
H1178 H 0.5506 0.06059 0.27942 0.0
C1179 C 0.55448 0.13064 0.25372 0.0
H1180 H 0.51468 0.06022 0.24043 0.0
C1181 C 0.57581 0.13088 0.2757 0.0
C1182 C 0.57453 0.10561 0.28573 0.0
H1183 H 0.55552 0.15023 0.24687 0.0
H1184 H 0.59289 0.15063 0.28545 0.0
C1185 C 0.55212 0.0804 0.27255 0.0
C1186 C 0.46906 0.58252 0.24881 0.0
C1187 C 0.46928 0.58102 0.28807 0.0
H1188 H 0.44901 0.56157 0.19772 0.0
C1189 C 0.44654 0.55858 0.30618 0.0
H1190 H 0.48648 0.59936 0.23407 0.0
C1191 C 0.42462 0.53745 0.28539 0.0
C1192 C 0.42554 0.53782 0.24606 0.0
H1193 H 0.44626 0.55681 0.33639 0.0
H1194 H 0.40804 0.51978 0.30007 0.0
C1195 C 0.44767 0.56087 0.22799 0.0
C1196 C 0.88715 0.47175 0.2515 0.0
C1197 C 0.88883 0.47121 0.29072 0.0
H1198 H 0.88779 0.45252 0.19946 0.0
C1199 C 0.88824 0.44799 0.30772 0.0
H1200 H 0.88793 0.48954 0.2376 0.0
C1201 C 0.88719 0.42634 0.28592 0.0
C1202 C 0.88776 0.42797 0.24664 0.0
H1203 H 0.88972 0.44713 0.33787 0.0
H1204 H 0.88806 0.40937 0.2998 0.0
C1205 C 0.88714 0.4506 0.22966 0.0
C1206 C 0.42182 0.88599 0.24825 0.0
C1207 C 0.42442 0.88767 0.28743 0.0
H1208 H 0.44126 0.887 0.19571 0.0
C1209 C 0.44746 0.88749 0.30379 0.0
H1210 H 0.40451 0.88643 0.2348 0.0
C1211 C 0.46806 0.88691 0.28142 0.0
C1212 C 0.46654 0.88746 0.24219 0.0
H1213 H 0.45012 0.88894 0.33389 0.0
H1214 H 0.48618 0.88811 0.29481 0.0
C1215 C 0.44289 0.88638 0.22586 0.0
C1216 C 0.56126 0.44128 0.22312 0.0
C1217 C 0.58473 0.46524 0.23749 0.0
H1218 H 0.5231 0.40335 0.23531 0.0
C1219 C 0.5889 0.46756 0.27641 0.0
H1220 H 0.55743 0.43899 0.19325 0.0
C1221 C 0.56881 0.44755 0.30054 0.0
C1222 C 0.54459 0.42433 0.28622 0.0
H1223 H 0.60658 0.48591 0.28834 0.0
H1224 H 0.5716 0.45089 0.33048 0.0
C1225 C 0.54164 0.42081 0.24721 0.0
C1226 C 0.11745 0.56015 0.22047 0.0
C1227 C 0.119 0.58432 0.23602 0.0
H1228 H 0.11609 0.52119 0.23081 0.0
C1229 C 0.12336 0.58881 0.27477 0.0
H1230 H 0.11398 0.55606 0.19073 0.0
C1231 C 0.12378 0.56848 0.2978 0.0
C1232 C 0.12083 0.54366 0.28246 0.0
H1233 H 0.12434 0.60704 0.28766 0.0
H1234 H 0.12513 0.57157 0.32784 0.0
C1235 C 0.11881 0.54025 0.24339 0.0
C1236 C 0.4648 0.88184 0.74735 0.0
C1237 C 0.46354 0.88329 0.78651 0.0
H1238 H 0.4468 0.88328 0.69483 0.0
C1239 C 0.44002 0.88252 0.80287 0.0
H1240 H 0.4828 0.8827 0.73396 0.0
C1241 C 0.41901 0.88205 0.78047 0.0
C1242 C 0.42159 0.88324 0.7413 0.0
H1243 H 0.43857 0.88373 0.83299 0.0
H1244 H 0.40195 0.88307 0.79387 0.0
C1245 C 0.44425 0.88227 0.72496 0.0
C1246 C 0.55711 0.44399 0.72014 0.0
C1247 C 0.53436 0.42156 0.73826 0.0
H1248 H 0.59564 0.48275 0.72626 0.0
C1249 C 0.53472 0.4199 0.7775 0.0
H1250 H 0.55727 0.44589 0.68996 0.0
C1251 C 0.5562 0.44144 0.79831 0.0
C1252 C 0.57828 0.46454 0.78025 0.0
H1253 H 0.51731 0.40306 0.79224 0.0
H1254 H 0.55493 0.44067 0.82859 0.0
C1255 C 0.57911 0.46502 0.74092 0.0
C1256 C 0.12252 0.53631 0.77402 0.0
C1257 C 0.11723 0.53503 0.73538 0.0
H1258 H 0.12502 0.55691 0.82608 0.0
C1259 C 0.11503 0.5569 0.71871 0.0
H1260 H 0.12406 0.51966 0.78775 0.0
C1261 C 0.11653 0.57875 0.74054 0.0
C1262 C 0.11936 0.57866 0.77961 0.0
H1263 H 0.11087 0.55643 0.68903 0.0
H1264 H 0.1132 0.59444 0.72723 0.0
C1265 C 0.12307 0.55763 0.79599 0.0
C1266 C 0.56362 0.12159 0.80284 0.0
C1267 C 0.54001 0.12069 0.78668 0.0
H1268 H 0.60171 0.12109 0.79352 0.0
C1269 C 0.53859 0.12187 0.74753 0.0
H1270 H 0.56519 0.12057 0.83295 0.0
C1271 C 0.55908 0.12135 0.72496 0.0
C1272 C 0.58184 0.12055 0.74112 0.0
H1273 H 0.52052 0.12089 0.73429 0.0
H1274 H 0.5564 0.12016 0.69486 0.0
C1275 C 0.58457 0.12198 0.78027 0.0
C1276 C 0.44323 0.56431 0.80507 0.0
C1277 C 0.41959 0.54043 0.79085 0.0
H1278 H 0.48162 0.60196 0.79267 0.0
C1279 C 0.41535 0.53807 0.75193 0.0
H1280 H 0.44714 0.56664 0.83493 0.0
C1281 C 0.4355 0.5579 0.7277 0.0
C1282 C 0.45989 0.581 0.74187 0.0
H1283 H 0.39755 0.51979 0.74008 0.0
H1284 H 0.43262 0.55449 0.69778 0.0
C1285 C 0.46294 0.5846 0.78086 0.0
C1286 C 0.88078 0.45985 0.78449 0.0
C1287 C 0.88171 0.45778 0.74538 0.0
H1288 H 0.88309 0.44309 0.83765 0.0
C1289 C 0.88103 0.43399 0.72991 0.0
H1290 H 0.88161 0.47806 0.79723 0.0
C1291 C 0.88109 0.41356 0.75308 0.0
C1292 C 0.88273 0.41696 0.79214 0.0
H1293 H 0.88187 0.43191 0.69985 0.0
H1294 H 0.88212 0.3963 0.74031 0.0
C1295 C 0.88173 0.43988 0.80763 0.0
C1296 C 0.47803 0.1465 0.03513 0.0
C1297 C 0.45276 0.12836 0.05311 0.0
H1298 H 0.49962 0.15948 0.98262 0.0
C1299 C 0.42825 0.11448 0.0317 0.0
H1300 H 0.49725 0.15698 0.05104 0.0
C1301 C 0.42958 0.11597 0.99254 0.0
C1302 C 0.45544 0.13137 0.97443 0.0
H1303 H 0.40864 0.09998 0.04498 0.0
H1304 H 0.411 0.10248 0.97653 0.0
C1305 C 0.47936 0.14799 0.99599 0.0
C1306 C 0.3165 0.42848 0.04101 0.0
C1307 C 0.32663 0.45226 0.06395 0.0
H1308 H 0.31238 0.41303 0.98481 0.0
C1309 C 0.33449 0.47819 0.04741 0.0
H1310 H 0.311 0.4084 0.05311 0.0
C1311 C 0.33538 0.48086 1.00837 0.0
C1312 C 0.32832 0.45761 0.9854 0.0
H1313 H 0.343 0.49691 0.06447 0.0
H1314 H 0.3445 0.50157 0.99626 0.0
C1315 C 0.31733 0.43113 1.00193 0.0
C1316 C 0.89095 0.3176 0.04175 0.0
C1317 C 0.87567 0.32725 0.06206 0.0
H1318 H 0.90442 0.31256 0.98738 0.0
C1319 C 0.85695 0.33294 0.04288 0.0
H1320 H 0.90599 0.31374 0.05591 0.0
C1321 C 0.856 0.3322 1.00368 0.0
C1322 C 0.87378 0.32579 0.98321 0.0
H1323 H 0.84545 0.34102 0.05789 0.0
H1324 H 0.84385 0.33981 0.9894 0.0
C1325 C 0.89002 0.3169 1.00254 0.0
C1326 C 0.57515 0.89141 0.03115 0.0
C1327 C 0.55055 0.87584 0.05193 0.0
H1328 H 0.59289 0.90483 0.97643 0.0
C1329 C 0.52605 0.85662 0.03327 0.0
H1330 H 0.59411 0.9068 0.04494 0.0
C1331 C 0.52538 0.85539 0.99409 0.0
C1332 C 0.54919 0.87343 0.97315 0.0
H1333 H 0.50672 0.84486 0.0487 0.0
H1334 H 0.5055 0.84284 0.98021 0.0
C1335 C 0.57447 0.89021 0.99196 0.0
C1336 C 0.6655 0.52157 0.01914 0.0
C1337 C 0.67359 0.54522 0.04169 0.0
H1338 H 0.65731 0.50507 0.9633 0.0
C1339 C 0.6855 0.57165 0.02479 0.0
H1340 H 0.65567 0.50093 0.03159 0.0
C1341 C 0.68637 0.57402 0.98569 0.0
C1342 C 0.6754 0.54998 0.96316 0.0
H1343 H 0.69124 0.59006 0.04165 0.0
H1344 H 0.69267 0.59419 0.97325 0.0
C1345 C 0.66649 0.52395 0.98009 0.0
C1346 C 0.14853 0.67125 0.99019 0.0
C1347 C 0.13053 0.67625 0.96803 0.0
H1348 H 0.15879 0.66473 0.04577 0.0
C1349 C 0.11341 0.68496 0.98547 0.0
H1350 H 0.16137 0.6638 0.97738 0.0
C1351 C 0.11187 0.68541 0.0246 0.0
C1352 C 0.12745 0.67716 0.04671 0.0
H1353 H 0.09885 0.68822 0.96901 0.0
H1354 H 0.09625 0.68912 0.03742 0.0
C1355 C 0.147 0.67171 0.02931 0.0
C1356 C 0.8581 0.5259 0.49385 0.0
C1357 C 0.87716 0.55197 0.4785 0.0
H1358 H 0.84324 0.50148 0.54399 0.0
C1359 C 0.89108 0.57516 0.50235 0.0
H1360 H 0.84757 0.50766 0.47598 0.0
C1361 C 0.8885 0.57166 0.54125 0.0
C1362 C 0.87203 0.54492 0.55663 0.0
H1363 H 0.90627 0.59533 0.49107 0.0
H1364 H 0.90187 0.58917 0.55911 0.0
C1365 C 0.85556 0.52239 0.53273 0.0
C1366 C 0.33208 0.85541 0.49453 0.0
C1367 C 0.32666 0.8745 0.47582 0.0
H1368 H 0.33909 0.84191 0.54761 0.0
C1369 C 0.31747 0.88998 0.49657 0.0
H1370 H 0.33977 0.84372 0.47914 0.0
C1371 C 0.31705 0.88893 0.53577 0.0
C1372 C 0.32579 0.87236 0.55461 0.0
H1373 H 0.31378 0.90527 0.48275 0.0
H1374 H 0.31317 0.90352 0.55126 0.0
C1375 C 0.33161 0.85432 0.53372 0.0
C1376 C 0.48051 0.3332 0.5041 0.0
C1377 C 0.45889 0.32792 0.47902 0.0
H1378 H 0.49353 0.33903 0.56153 0.0
C1379 C 0.43185 0.31808 0.49306 0.0
H1380 H 0.50165 0.34141 0.4939 0.0
C1381 C 0.42723 0.31683 0.53177 0.0
C1382 C 0.44959 0.32535 0.55681 0.0
H1383 H 0.41502 0.31451 0.47429 0.0
H1384 H 0.40692 0.31229 0.54197 0.0
C1385 C 0.47587 0.33186 0.54279 0.0
C1386 C 0.14871 0.48059 0.49878 0.0
C1387 C 0.13217 0.45843 0.47441 0.0
H1388 H 0.15679 0.49458 0.55583 0.0
C1389 C 0.11557 0.43151 0.48924 0.0
H1390 H 0.16117 0.50163 0.48797 0.0
C1391 C 0.11299 0.4275 0.52809 0.0
C1392 C 0.12704 0.45034 0.55248 0.0
H1393 H 0.10216 0.41426 0.47103 0.0
H1394 H 0.09767 0.40723 0.53895 0.0
C1395 C 0.1462 0.47656 0.5376 0.0
C1396 C 0.68733 0.11537 0.49594 0.0
C1397 C 0.67659 0.12931 0.4749 0.0
H1398 H 0.69273 0.10314 0.55085 0.0
C1399 C 0.66945 0.14733 0.49325 0.0
H1400 H 0.69245 0.10096 0.48236 0.0
C1401 C 0.66971 0.14865 0.53241 0.0
C1402 C 0.67711 0.13196 0.5536 0.0
H1403 H 0.66063 0.15785 0.47761 0.0
H1404 H 0.66093 0.16004 0.54606 0.0
C1405 C 0.68758 0.11669 0.53512 0.0
C1406 C 0.57121 0.68611 0.53335 0.0
C1407 C 0.54418 0.67549 0.54788 0.0
H1408 H 0.59588 0.69274 0.48394 0.0
C1409 C 0.52216 0.66967 0.52326 0.0
H1410 H 0.58836 0.69015 0.55177 0.0
C1411 C 0.52647 0.67126 0.48449 0.0
C1412 C 0.55282 0.67855 0.46992 0.0
H1413 H 0.50105 0.6609 0.53385 0.0
H1414 H 0.50858 0.66364 0.46607 0.0
C1415 C 0.5755 0.68761 0.49455 0.0
loop_
_geom_bond_atom_site_label_1
_geom_bond_atom_site_label_2
_geom_bond_distance
_geom_bond_site_symmetry_2
_ccdc_geom_bond_type
Co0 O3 1.970 . S
Co0 N17 1.989 . S
Co0 O25 1.967 . S
Co0 O32 1.920 . S
Co1 O4 1.966 . S
Co1 N10 2.022 . S
Co1 N18 1.993 . S
Co1 O26 1.941 . S
C2 O3 1.258 . S
C2 O4 1.263 . S
O3 Co0 1.970 . S
O3 C2 1.258 . S
O4 Co1 1.966 . S
O4 C2 1.263 . S
C5 O6 1.235 . S
C5 O32 1.289 . S
O6 C5 1.235 . S
C7 C9 1.400 . S
C7 N10 1.351 . S
C7 C12 1.501 . S
C8 C9 1.387 . S
C8 N11 1.341 . S
C9 C7 1.400 . S
C9 C8 1.387 . S
N10 Co1 2.022 . S
N10 C7 1.351 . S
N10 N11 1.365 . S
N11 C8 1.341 . S
N11 N10 1.365 . S
N11 H31 0.862 . S
C12 C7 1.501 . S
C12 H13 0.961 . S
C12 H14 0.961 . S
C12 H15 0.960 . S
H13 C12 0.961 . S
H14 C12 0.961 . S
H15 C12 0.960 . S
C16 N17 1.342 . S
C16 C20 1.401 . S
C16 C21 1.499 . S
N17 Co0 1.989 . S
N17 C16 1.342 . S
N17 N18 1.388 . S
N18 Co1 1.993 . S
N18 N17 1.388 . S
N18 C19 1.346 . S
C19 N18 1.346 . S
C19 C20 1.396 . S
C19 C29 1.510 . S
C20 C16 1.401 . S
C20 C19 1.396 . S
C21 C16 1.499 . S
C21 H22 0.959 . S
C21 H23 0.960 . S
C21 H24 0.961 . S
H22 C21 0.959 . S
H23 C21 0.960 . S
H24 C21 0.961 . S
O25 Co0 1.967 . S
O25 C33 1.258 . S
O26 Co1 1.941 . S
O26 C33 1.266 . S
H27 C29 0.959 . S
H28 C29 0.961 . S
C29 C19 1.510 . S
C29 H27 0.959 . S
C29 H28 0.961 . S
C29 H30 0.960 . S
H30 C29 0.960 . S
H31 N11 0.862 . S
O32 Co0 1.920 . S
O32 C5 1.289 . S
C33 O25 1.258 . S
C33 O26 1.266 . S
Co34 O37 1.970 . S
Co34 N51 1.989 . S
Co34 O59 1.967 . S
Co34 O66 1.920 . S
Co35 O38 1.966 . S
Co35 N44 2.022 . S
Co35 N52 1.993 . S
Co35 O60 1.941 . S
C36 O37 1.258 . S
C36 O38 1.263 . S
O37 Co34 1.970 . S
O37 C36 1.258 . S
O38 Co35 1.966 . S
O38 C36 1.263 . S
C39 O40 1.235 . S
C39 O66 1.289 . S
O40 C39 1.235 . S
C41 C43 1.400 . S
C41 N44 1.351 . S
C41 C46 1.501 . S
C42 C43 1.387 . S
C42 N45 1.341 . S
C43 C41 1.400 . S
C43 C42 1.387 . S
N44 Co35 2.022 . S
N44 C41 1.351 . S
N44 N45 1.365 . S
N45 C42 1.341 . S
N45 N44 1.365 . S
N45 H65 0.862 . S
C46 C41 1.501 . S
C46 H47 0.961 . S
C46 H48 0.961 . S
C46 H49 0.960 . S
H47 C46 0.961 . S
H48 C46 0.961 . S
H49 C46 0.960 . S
C50 N51 1.342 . S
C50 C54 1.401 . S
C50 C55 1.499 . S
N51 Co34 1.989 . S
N51 C50 1.342 . S
N51 N52 1.388 . S
N52 Co35 1.993 . S
N52 N51 1.388 . S
N52 C53 1.346 . S
C53 N52 1.346 . S
C53 C54 1.396 . S
C53 C63 1.510 . S
C54 C50 1.401 . S
C54 C53 1.396 . S
C55 C50 1.499 . S
C55 H56 0.959 . S
C55 H57 0.960 . S
C55 H58 0.961 . S
H56 C55 0.959 . S
H57 C55 0.960 . S
H58 C55 0.961 . S
O59 Co34 1.967 . S
O59 C67 1.258 . S
O60 Co35 1.941 . S
O60 C67 1.266 . S
H61 C63 0.959 . S
H62 C63 0.961 . S
C63 C53 1.510 . S
C63 H61 0.959 . S
C63 H62 0.961 . S
C63 H64 0.960 . S
H64 C63 0.960 . S
H65 N45 0.862 . S
O66 Co34 1.920 . S
O66 C39 1.289 . S
C67 O59 1.258 . S
C67 O60 1.266 . S
Co68 O71 1.970 . S
Co68 N85 1.989 . S
Co68 O93 1.967 . S
Co68 O100 1.920 . S
Co69 O72 1.966 . S
Co69 N78 2.022 . S
Co69 N86 1.993 . S
Co69 O94 1.941 . S
C70 O71 1.258 . S
C70 O72 1.263 . S
O71 Co68 1.970 . S
O71 C70 1.258 . S
O72 Co69 1.966 . S
O72 C70 1.263 . S
C73 O74 1.235 . S
C73 O100 1.289 . S
O74 C73 1.235 . S
C75 C77 1.400 . S
C75 N78 1.351 . S
C75 C80 1.501 . S
C76 C77 1.387 . S
C76 N79 1.341 . S
C77 C75 1.400 . S
C77 C76 1.387 . S
N78 Co69 2.022 . S
N78 C75 1.351 . S
N78 N79 1.365 . S
N79 C76 1.341 . S
N79 N78 1.365 . S
N79 H99 0.862 . S
C80 C75 1.501 . S
C80 H81 0.961 . S
C80 H82 0.961 . S
C80 H83 0.960 . S
H81 C80 0.961 . S
H82 C80 0.961 . S
H83 C80 0.960 . S
C84 N85 1.342 . S
C84 C88 1.401 . S
C84 C89 1.499 . S
N85 Co68 1.989 . S
N85 C84 1.342 . S
N85 N86 1.388 . S
N86 Co69 1.993 . S
N86 N85 1.388 . S
N86 C87 1.346 . S
C87 N86 1.346 . S
C87 C88 1.396 . S
C87 C97 1.510 . S
C88 C84 1.401 . S
C88 C87 1.396 . S
C89 C84 1.499 . S
C89 H90 0.959 . S
C89 H91 0.960 . S
C89 H92 0.961 . S
H90 C89 0.959 . S
H91 C89 0.960 . S
H92 C89 0.961 . S
O93 Co68 1.967 . S
O93 C101 1.258 . S
O94 Co69 1.941 . S
O94 C101 1.266 . S
H95 C97 0.959 . S
H96 C97 0.961 . S
C97 C87 1.510 . S
C97 H95 0.959 . S
C97 H96 0.961 . S
C97 H98 0.960 . S
H98 C97 0.960 . S
H99 N79 0.862 . S
O100 Co68 1.920 . S
O100 C73 1.289 . S
C101 O93 1.258 . S
C101 O94 1.266 . S
Co102 O105 1.970 . S
Co102 N119 1.989 . S
Co102 O127 1.967 . S
Co102 O134 1.920 . S
Co103 O106 1.966 . S
Co103 N112 2.022 . S
Co103 N120 1.993 . S
Co103 O128 1.941 . S
C104 O105 1.258 . S
C104 O106 1.263 . S
O105 Co102 1.970 . S
O105 C104 1.258 . S
O106 Co103 1.966 . S
O106 C104 1.263 . S
C107 O108 1.235 . S
C107 O134 1.289 . S
O108 C107 1.235 . S
C109 C111 1.400 . S
C109 N112 1.351 . S
C109 C114 1.501 . S
C110 C111 1.387 . S
C110 N113 1.341 . S
C111 C109 1.400 . S
C111 C110 1.387 . S
N112 Co103 2.022 . S
N112 C109 1.351 . S
N112 N113 1.365 . S
N113 C110 1.341 . S
N113 N112 1.365 . S
N113 H133 0.862 . S
C114 C109 1.501 . S
C114 H115 0.961 . S
C114 H116 0.961 . S
C114 H117 0.960 . S
H115 C114 0.961 . S
H116 C114 0.961 . S
H117 C114 0.960 . S
C118 N119 1.342 . S
C118 C122 1.401 . S
C118 C123 1.499 . S
N119 Co102 1.989 . S
N119 C118 1.342 . S
N119 N120 1.388 . S
N120 Co103 1.993 . S
N120 N119 1.388 . S
N120 C121 1.346 . S
C121 N120 1.346 . S
C121 C122 1.396 . S
C121 C131 1.510 . S
C122 C118 1.401 . S
C122 C121 1.396 . S
C123 C118 1.499 . S
C123 H124 0.959 . S
C123 H125 0.960 . S
C123 H126 0.961 . S
H124 C123 0.959 . S
H125 C123 0.960 . S
H126 C123 0.961 . S
O127 Co102 1.967 . S
O127 C135 1.258 . S
O128 Co103 1.941 . S
O128 C135 1.266 . S
H129 C131 0.959 . S
H130 C131 0.961 . S
C131 C121 1.510 . S
C131 H129 0.959 . S
C131 H130 0.961 . S
C131 H132 0.960 . S
H132 C131 0.960 . S
H133 N113 0.862 . S
O134 Co102 1.920 . S
O134 C107 1.289 . S
C135 O127 1.258 . S
C135 O128 1.266 . S
Co136 O139 1.970 . S
Co136 N153 1.989 . S
Co136 O161 1.967 . S
Co136 O168 1.920 . S
Co137 O140 1.966 . S
Co137 N146 2.022 . S
Co137 N154 1.993 . S
Co137 O162 1.941 . S
C138 O139 1.258 . S
C138 O140 1.263 . S
O139 Co136 1.970 . S
O139 C138 1.258 . S
O140 Co137 1.966 . S
O140 C138 1.263 . S
C141 O142 1.235 . S
C141 O168 1.289 . S
O142 C141 1.235 . S
C143 C145 1.400 . S
C143 N146 1.351 . S
C143 C148 1.501 . S
C144 C145 1.387 . S
C144 N147 1.341 . S
C145 C143 1.400 . S
C145 C144 1.387 . S
N146 Co137 2.022 . S
N146 C143 1.351 . S
N146 N147 1.365 . S
N147 C144 1.341 . S
N147 N146 1.365 . S
N147 H167 0.862 . S
C148 C143 1.501 . S
C148 H149 0.961 . S
C148 H150 0.961 . S
C148 H151 0.960 . S
H149 C148 0.961 . S
H150 C148 0.961 . S
H151 C148 0.960 . S
C152 N153 1.342 . S
C152 C156 1.401 . S
C152 C157 1.499 . S
N153 Co136 1.989 . S
N153 C152 1.342 . S
N153 N154 1.388 . S
N154 Co137 1.993 . S
N154 N153 1.388 . S
N154 C155 1.346 . S
C155 N154 1.346 . S
C155 C156 1.396 . S
C155 C165 1.510 . S
C156 C152 1.401 . S
C156 C155 1.396 . S
C157 C152 1.499 . S
C157 H158 0.959 . S
C157 H159 0.960 . S
C157 H160 0.961 . S
H158 C157 0.959 . S
H159 C157 0.960 . S
H160 C157 0.961 . S
O161 Co136 1.967 . S
O161 C169 1.258 . S
O162 Co137 1.941 . S
O162 C169 1.266 . S
H163 C165 0.959 . S
H164 C165 0.961 . S
C165 C155 1.510 . S
C165 H163 0.959 . S
C165 H164 0.961 . S
C165 H166 0.960 . S
H166 C165 0.960 . S
H167 N147 0.862 . S
O168 Co136 1.920 . S
O168 C141 1.289 . S
C169 O161 1.258 . S
C169 O162 1.266 . S
Co170 O173 1.970 . S
Co170 N187 1.989 . S
Co170 O195 1.967 . S
Co170 O202 1.920 . S
Co171 O174 1.966 . S
Co171 N180 2.022 . S
Co171 N188 1.993 . S
Co171 O196 1.941 . S
C172 O173 1.258 . S
C172 O174 1.263 . S
O173 Co170 1.970 . S
O173 C172 1.258 . S
O174 Co171 1.966 . S
O174 C172 1.263 . S
C175 O176 1.235 . S
C175 O202 1.289 . S
O176 C175 1.235 . S
C177 C179 1.400 . S
C177 N180 1.351 . S
C177 C182 1.501 . S
C178 C179 1.387 . S
C178 N181 1.341 . S
C179 C177 1.400 . S
C179 C178 1.387 . S
N180 Co171 2.022 . S
N180 C177 1.351 . S
N180 N181 1.365 . S
N181 C178 1.341 . S
N181 N180 1.365 . S
N181 H201 0.862 . S
C182 C177 1.501 . S
C182 H183 0.961 . S
C182 H184 0.961 . S
C182 H185 0.960 . S
H183 C182 0.961 . S
H184 C182 0.961 . S
H185 C182 0.960 . S
C186 N187 1.342 . S
C186 C190 1.401 . S
C186 C191 1.499 . S
N187 Co170 1.989 . S
N187 C186 1.342 . S
N187 N188 1.388 . S
N188 Co171 1.993 . S
N188 N187 1.388 . S
N188 C189 1.346 . S
C189 N188 1.346 . S
C189 C190 1.396 . S
C189 C199 1.510 . S
C190 C186 1.401 . S
C190 C189 1.396 . S
C191 C186 1.499 . S
C191 H192 0.959 . S
C191 H193 0.960 . S
C191 H194 0.961 . S
H192 C191 0.959 . S
H193 C191 0.960 . S
H194 C191 0.961 . S
O195 Co170 1.967 . S
O195 C203 1.258 . S
O196 Co171 1.941 . S
O196 C203 1.266 . S
H197 C199 0.959 . S
H198 C199 0.961 . S
C199 C189 1.510 . S
C199 H197 0.959 . S
C199 H198 0.961 . S
C199 H200 0.960 . S
H200 C199 0.960 . S
H201 N181 0.862 . S
O202 Co170 1.920 . S
O202 C175 1.289 . S
C203 O195 1.258 . S
C203 O196 1.266 . S
Co204 O207 1.970 . S
Co204 N221 1.989 . S
Co204 O229 1.967 . S
Co204 O236 1.920 . S
Co205 O208 1.966 . S
Co205 N214 2.022 . S
Co205 N222 1.993 . S
Co205 O230 1.941 . S
C206 O207 1.258 . S
C206 O208 1.263 . S
O207 Co204 1.970 . S
O207 C206 1.258 . S
O208 Co205 1.966 . S
O208 C206 1.263 . S
C209 O210 1.235 . S
C209 O236 1.289 . S
O210 C209 1.235 . S
C211 C213 1.400 . S
C211 N214 1.351 . S
C211 C216 1.501 . S
C212 C213 1.387 . S
C212 N215 1.341 . S
C213 C211 1.400 . S
C213 C212 1.387 . S
N214 Co205 2.022 . S
N214 C211 1.351 . S
N214 N215 1.365 . S
N215 C212 1.341 . S
N215 N214 1.365 . S
N215 H235 0.862 . S
C216 C211 1.501 . S
C216 H217 0.961 . S
C216 H218 0.961 . S
C216 H219 0.960 . S
H217 C216 0.961 . S
H218 C216 0.961 . S
H219 C216 0.960 . S
C220 N221 1.342 . S
C220 C224 1.401 . S
C220 C225 1.499 . S
N221 Co204 1.989 . S
N221 C220 1.342 . S
N221 N222 1.388 . S
N222 Co205 1.993 . S
N222 N221 1.388 . S
N222 C223 1.346 . S
C223 N222 1.346 . S
C223 C224 1.396 . S
C223 C233 1.510 . S
C224 C220 1.401 . S
C224 C223 1.396 . S
C225 C220 1.499 . S
C225 H226 0.959 . S
C225 H227 0.960 . S
C225 H228 0.961 . S
H226 C225 0.959 . S
H227 C225 0.960 . S
H228 C225 0.961 . S
O229 Co204 1.967 . S
O229 C237 1.258 . S
O230 Co205 1.941 . S
O230 C237 1.266 . S
H231 C233 0.959 . S
H232 C233 0.961 . S
C233 C223 1.510 . S
C233 H231 0.959 . S
C233 H232 0.961 . S
C233 H234 0.960 . S
H234 C233 0.960 . S
H235 N215 0.862 . S
O236 Co204 1.920 . S
O236 C209 1.289 . S
C237 O229 1.258 . S
C237 O230 1.266 . S
Co238 O241 1.970 . S
Co238 N255 1.989 . S
Co238 O263 1.967 . S
Co238 O270 1.920 . S
Co239 O242 1.966 . S
Co239 N248 2.022 . S
Co239 N256 1.993 . S
Co239 O264 1.941 . S
C240 O241 1.258 . S
C240 O242 1.263 . S
O241 Co238 1.970 . S
O241 C240 1.258 . S
O242 Co239 1.966 . S
O242 C240 1.263 . S
C243 O244 1.235 . S
C243 O270 1.289 . S
O244 C243 1.235 . S
C245 C247 1.400 . S
C245 N248 1.351 . S
C245 C250 1.501 . S
C246 C247 1.387 . S
C246 N249 1.341 . S
C247 C245 1.400 . S
C247 C246 1.387 . S
N248 Co239 2.022 . S
N248 C245 1.351 . S
N248 N249 1.365 . S
N249 C246 1.341 . S
N249 N248 1.365 . S
N249 H269 0.862 . S
C250 C245 1.501 . S
C250 H251 0.961 . S
C250 H252 0.961 . S
C250 H253 0.960 . S
H251 C250 0.961 . S
H252 C250 0.961 . S
H253 C250 0.960 . S
C254 N255 1.342 . S
C254 C258 1.401 . S
C254 C259 1.499 . S
N255 Co238 1.989 . S
N255 C254 1.342 . S
N255 N256 1.388 . S
N256 Co239 1.993 . S
N256 N255 1.388 . S
N256 C257 1.346 . S
C257 N256 1.346 . S
C257 C258 1.396 . S
C257 C267 1.510 . S
C258 C254 1.401 . S
C258 C257 1.396 . S
C259 C254 1.499 . S
C259 H260 0.959 . S
C259 H261 0.960 . S
C259 H262 0.961 . S
H260 C259 0.959 . S
H261 C259 0.960 . S
H262 C259 0.961 . S
O263 Co238 1.967 . S
O263 C271 1.258 . S
O264 Co239 1.941 . S
O264 C271 1.266 . S
H265 C267 0.959 . S
H266 C267 0.961 . S
C267 C257 1.510 . S
C267 H265 0.959 . S
C267 H266 0.961 . S
C267 H268 0.960 . S
H268 C267 0.960 . S
H269 N249 0.862 . S
O270 Co238 1.920 . S
O270 C243 1.289 . S
C271 O263 1.258 . S
C271 O264 1.266 . S
Co272 O275 1.970 . S
Co272 N289 1.989 . S
Co272 O297 1.967 . S
Co272 O304 1.920 . S
Co273 O276 1.966 . S
Co273 N282 2.022 . S
Co273 N290 1.993 . S
Co273 O298 1.941 . S
C274 O275 1.258 . S
C274 O276 1.263 . S
O275 Co272 1.970 . S
O275 C274 1.258 . S
O276 Co273 1.966 . S
O276 C274 1.263 . S
C277 O278 1.235 . S
C277 O304 1.289 . S
O278 C277 1.235 . S
C279 C281 1.400 . S
C279 N282 1.351 . S
C279 C284 1.501 . S
C280 C281 1.387 . S
C280 N283 1.341 . S
C281 C279 1.400 . S
C281 C280 1.387 . S
N282 Co273 2.022 . S
N282 C279 1.351 . S
N282 N283 1.365 . S
N283 C280 1.341 . S
N283 N282 1.365 . S
N283 H303 0.862 . S
C284 C279 1.501 . S
C284 H285 0.961 . S
C284 H286 0.961 . S
C284 H287 0.960 . S
H285 C284 0.961 . S
H286 C284 0.961 . S
H287 C284 0.960 . S
C288 N289 1.342 . S
C288 C292 1.401 . S
C288 C293 1.499 . S
N289 Co272 1.989 . S
N289 C288 1.342 . S
N289 N290 1.388 . S
N290 Co273 1.993 . S
N290 N289 1.388 . S
N290 C291 1.346 . S
C291 N290 1.346 . S
C291 C292 1.396 . S
C291 C301 1.510 . S
C292 C288 1.401 . S
C292 C291 1.396 . S
C293 C288 1.499 . S
C293 H294 0.959 . S
C293 H295 0.960 . S
C293 H296 0.961 . S
H294 C293 0.959 . S
H295 C293 0.960 . S
H296 C293 0.961 . S
O297 Co272 1.967 . S
O297 C305 1.258 . S
O298 Co273 1.941 . S
O298 C305 1.266 . S
H299 C301 0.959 . S
H300 C301 0.961 . S
C301 C291 1.510 . S
C301 H299 0.959 . S
C301 H300 0.961 . S
C301 H302 0.960 . S
H302 C301 0.960 . S
H303 N283 0.862 . S
O304 Co272 1.920 . S
O304 C277 1.289 . S
C305 O297 1.258 . S
C305 O298 1.266 . S
Co306 O309 1.970 . S
Co306 N323 1.989 . S
Co306 O331 1.967 . S
Co306 O338 1.920 . S
Co307 O310 1.966 . S
Co307 N316 2.022 . S
Co307 N324 1.993 . S
Co307 O332 1.941 . S
C308 O309 1.258 . S
C308 O310 1.263 . S
O309 Co306 1.970 . S
O309 C308 1.258 . S
O310 Co307 1.966 . S
O310 C308 1.263 . S
C311 O312 1.235 . S
C311 O338 1.289 . S
O312 C311 1.235 . S
C313 C315 1.400 . S
C313 N316 1.351 . S
C313 C318 1.501 . S
C314 C315 1.387 . S
C314 N317 1.341 . S
C315 C313 1.400 . S
C315 C314 1.387 . S
N316 Co307 2.022 . S
N316 C313 1.351 . S
N316 N317 1.365 . S
N317 C314 1.341 . S
N317 N316 1.365 . S
N317 H337 0.862 . S
C318 C313 1.501 . S
C318 H319 0.961 . S
C318 H320 0.961 . S
C318 H321 0.960 . S
H319 C318 0.961 . S
H320 C318 0.961 . S
H321 C318 0.960 . S
C322 N323 1.342 . S
C322 C326 1.401 . S
C322 C327 1.499 . S
N323 Co306 1.989 . S
N323 C322 1.342 . S
N323 N324 1.388 . S
N324 Co307 1.993 . S
N324 N323 1.388 . S
N324 C325 1.346 . S
C325 N324 1.346 . S
C325 C326 1.396 . S
C325 C335 1.510 . S
C326 C322 1.401 . S
C326 C325 1.396 . S
C327 C322 1.499 . S
C327 H328 0.959 . S
C327 H329 0.960 . S
C327 H330 0.961 . S
H328 C327 0.959 . S
H329 C327 0.960 . S
H330 C327 0.961 . S
O331 Co306 1.967 . S
O331 C339 1.258 . S
O332 Co307 1.941 . S
O332 C339 1.266 . S
H333 C335 0.959 . S
H334 C335 0.961 . S
C335 C325 1.510 . S
C335 H333 0.959 . S
C335 H334 0.961 . S
C335 H336 0.960 . S
H336 C335 0.960 . S
H337 N317 0.862 . S
O338 Co306 1.920 . S
O338 C311 1.289 . S
C339 O331 1.258 . S
C339 O332 1.266 . S
Co340 O343 1.970 . S
Co340 N357 1.989 . S
Co340 O365 1.967 . S
Co340 O372 1.920 . S
Co341 O344 1.966 . S
Co341 N350 2.022 . S
Co341 N358 1.993 . S
Co341 O366 1.941 . S
C342 O343 1.258 . S
C342 O344 1.263 . S
O343 Co340 1.970 . S
O343 C342 1.258 . S
O344 Co341 1.966 . S
O344 C342 1.263 . S
C345 O346 1.235 . S
C345 O372 1.289 . S
O346 C345 1.235 . S
C347 C349 1.400 . S
C347 N350 1.351 . S
C347 C352 1.501 . S
C348 C349 1.387 . S
C348 N351 1.341 . S
C349 C347 1.400 . S
C349 C348 1.387 . S
N350 Co341 2.022 . S
N350 C347 1.351 . S
N350 N351 1.365 . S
N351 C348 1.341 . S
N351 N350 1.365 . S
N351 H371 0.862 . S
C352 C347 1.501 . S
C352 H353 0.961 . S
C352 H354 0.961 . S
C352 H355 0.960 . S
H353 C352 0.961 . S
H354 C352 0.961 . S
H355 C352 0.960 . S
C356 N357 1.342 . S
C356 C360 1.401 . S
C356 C361 1.499 . S
N357 Co340 1.989 . S
N357 C356 1.342 . S
N357 N358 1.388 . S
N358 Co341 1.993 . S
N358 N357 1.388 . S
N358 C359 1.346 . S
C359 N358 1.346 . S
C359 C360 1.396 . S
C359 C369 1.510 . S
C360 C356 1.401 . S
C360 C359 1.396 . S
C361 C356 1.499 . S
C361 H362 0.959 . S
C361 H363 0.960 . S
C361 H364 0.961 . S
H362 C361 0.959 . S
H363 C361 0.960 . S
H364 C361 0.961 . S
O365 Co340 1.967 . S
O365 C373 1.258 . S
O366 Co341 1.941 . S
O366 C373 1.266 . S
H367 C369 0.959 . S
H368 C369 0.961 . S
C369 C359 1.510 . S
C369 H367 0.959 . S
C369 H368 0.961 . S
C369 H370 0.960 . S
H370 C369 0.960 . S
H371 N351 0.862 . S
O372 Co340 1.920 . S
O372 C345 1.289 . S
C373 O365 1.258 . S
C373 O366 1.266 . S
Co374 O377 1.970 . S
Co374 N391 1.989 . S
Co374 O399 1.967 . S
Co374 O406 1.920 . S
Co375 O378 1.966 . S
Co375 N384 2.022 . S
Co375 N392 1.993 . S
Co375 O400 1.941 . S
C376 O377 1.258 . S
C376 O378 1.263 . S
O377 Co374 1.970 . S
O377 C376 1.258 . S
O378 Co375 1.966 . S
O378 C376 1.263 . S
C379 O380 1.235 . S
C379 O406 1.289 . S
O380 C379 1.235 . S
C381 C383 1.400 . S
C381 N384 1.351 . S
C381 C386 1.501 . S
C382 C383 1.387 . S
C382 N385 1.341 . S
C383 C381 1.400 . S
C383 C382 1.387 . S
N384 Co375 2.022 . S
N384 C381 1.351 . S
N384 N385 1.365 . S
N385 C382 1.341 . S
N385 N384 1.365 . S
N385 H405 0.862 . S
C386 C381 1.501 . S
C386 H387 0.961 . S
C386 H388 0.961 . S
C386 H389 0.960 . S
H387 C386 0.961 . S
H388 C386 0.961 . S
H389 C386 0.960 . S
C390 N391 1.342 . S
C390 C394 1.401 . S
C390 C395 1.499 . S
N391 Co374 1.989 . S
N391 C390 1.342 . S
N391 N392 1.388 . S
N392 Co375 1.993 . S
N392 N391 1.388 . S
N392 C393 1.346 . S
C393 N392 1.346 . S
C393 C394 1.396 . S
C393 C403 1.510 . S
C394 C390 1.401 . S
C394 C393 1.396 . S
C395 C390 1.499 . S
C395 H396 0.959 . S
C395 H397 0.960 . S
C395 H398 0.961 . S
H396 C395 0.959 . S
H397 C395 0.960 . S
H398 C395 0.961 . S
O399 Co374 1.967 . S
O399 C407 1.258 . S
O400 Co375 1.941 . S
O400 C407 1.266 . S
H401 C403 0.959 . S
H402 C403 0.961 . S
C403 C393 1.510 . S
C403 H401 0.959 . S
C403 H402 0.961 . S
C403 H404 0.960 . S
H404 C403 0.960 . S
H405 N385 0.862 . S
O406 Co374 1.920 . S
O406 C379 1.289 . S
C407 O399 1.258 . S
C407 O400 1.266 . S
Co408 O411 1.970 . S
Co408 N425 1.989 . S
Co408 O433 1.967 . S
Co408 O440 1.920 . S
Co409 O412 1.966 . S
Co409 N418 2.022 . S
Co409 N426 1.993 . S
Co409 O434 1.941 . S
C410 O411 1.258 . S
C410 O412 1.263 . S
O411 Co408 1.970 . S
O411 C410 1.258 . S
O412 Co409 1.966 . S
O412 C410 1.263 . S
C413 O414 1.235 . S
C413 O440 1.289 . S
O414 C413 1.235 . S
C415 C417 1.400 . S
C415 N418 1.351 . S
C415 C420 1.501 . S
C416 C417 1.387 . S
C416 N419 1.341 . S
C417 C415 1.400 . S
C417 C416 1.387 . S
N418 Co409 2.022 . S
N418 C415 1.351 . S
N418 N419 1.365 . S
N419 C416 1.341 . S
N419 N418 1.365 . S
N419 H439 0.862 . S
C420 C415 1.501 . S
C420 H421 0.961 . S
C420 H422 0.961 . S
C420 H423 0.960 . S
H421 C420 0.961 . S
H422 C420 0.961 . S
H423 C420 0.960 . S
C424 N425 1.342 . S
C424 C428 1.401 . S
C424 C429 1.499 . S
N425 Co408 1.989 . S
N425 C424 1.342 . S
N425 N426 1.388 . S
N426 Co409 1.993 . S
N426 N425 1.388 . S
N426 C427 1.346 . S
C427 N426 1.346 . S
C427 C428 1.396 . S
C427 C437 1.510 . S
C428 C424 1.401 . S
C428 C427 1.396 . S
C429 C424 1.499 . S
C429 H430 0.959 . S
C429 H431 0.960 . S
C429 H432 0.961 . S
H430 C429 0.959 . S
H431 C429 0.960 . S
H432 C429 0.961 . S
O433 Co408 1.967 . S
O433 C441 1.258 . S
O434 Co409 1.941 . S
O434 C441 1.266 . S
H435 C437 0.959 . S
H436 C437 0.961 . S
C437 C427 1.510 . S
C437 H435 0.959 . S
C437 H436 0.961 . S
C437 H438 0.960 . S
H438 C437 0.960 . S
H439 N419 0.862 . S
O440 Co408 1.920 . S
O440 C413 1.289 . S
C441 O433 1.258 . S
C441 O434 1.266 . S
Co442 O445 1.970 . S
Co442 N459 1.989 . S
Co442 O467 1.967 . S
Co442 O474 1.920 . S
Co443 O446 1.966 . S
Co443 N452 2.022 . S
Co443 N460 1.993 . S
Co443 O468 1.941 . S
C444 O445 1.258 . S
C444 O446 1.263 . S
O445 Co442 1.970 . S
O445 C444 1.258 . S
O446 Co443 1.966 . S
O446 C444 1.263 . S
C447 O448 1.235 . S
C447 O474 1.289 . S
O448 C447 1.235 . S
C449 C451 1.400 . S
C449 N452 1.351 . S
C449 C454 1.501 . S
C450 C451 1.387 . S
C450 N453 1.341 . S
C451 C449 1.400 . S
C451 C450 1.387 . S
N452 Co443 2.022 . S
N452 C449 1.351 . S
N452 N453 1.365 . S
N453 C450 1.341 . S
N453 N452 1.365 . S
N453 H473 0.862 . S
C454 C449 1.501 . S
C454 H455 0.961 . S
C454 H456 0.961 . S
C454 H457 0.960 . S
H455 C454 0.961 . S
H456 C454 0.961 . S
H457 C454 0.960 . S
C458 N459 1.342 . S
C458 C462 1.401 . S
C458 C463 1.499 . S
N459 Co442 1.989 . S
N459 C458 1.342 . S
N459 N460 1.388 . S
N460 Co443 1.993 . S
N460 N459 1.388 . S
N460 C461 1.346 . S
C461 N460 1.346 . S
C461 C462 1.396 . S
C461 C471 1.510 . S
C462 C458 1.401 . S
C462 C461 1.396 . S
C463 C458 1.499 . S
C463 H464 0.959 . S
C463 H465 0.960 . S
C463 H466 0.961 . S
H464 C463 0.959 . S
H465 C463 0.960 . S
H466 C463 0.961 . S
O467 Co442 1.967 . S
O467 C475 1.258 . S
O468 Co443 1.941 . S
O468 C475 1.266 . S
H469 C471 0.959 . S
H470 C471 0.961 . S
C471 C461 1.510 . S
C471 H469 0.959 . S
C471 H470 0.961 . S
C471 H472 0.960 . S
H472 C471 0.960 . S
H473 N453 0.862 . S
O474 Co442 1.920 . S
O474 C447 1.289 . S
C475 O467 1.258 . S
C475 O468 1.266 . S
Co476 O479 1.970 . S
Co476 N493 1.989 . S
Co476 O501 1.967 . S
Co476 O508 1.920 . S
Co477 O480 1.966 . S
Co477 N486 2.022 . S
Co477 N494 1.993 . S
Co477 O502 1.941 . S
C478 O479 1.258 . S
C478 O480 1.263 . S
O479 Co476 1.970 . S
O479 C478 1.258 . S
O480 Co477 1.966 . S
O480 C478 1.263 . S
C481 O482 1.235 . S
C481 O508 1.289 . S
O482 C481 1.235 . S
C483 C485 1.400 . S
C483 N486 1.351 . S
C483 C488 1.501 . S
C484 C485 1.387 . S
C484 N487 1.341 . S
C485 C483 1.400 . S
C485 C484 1.387 . S
N486 Co477 2.022 . S
N486 C483 1.351 . S
N486 N487 1.365 . S
N487 C484 1.341 . S
N487 N486 1.365 . S
N487 H507 0.862 . S
C488 C483 1.501 . S
C488 H489 0.961 . S
C488 H490 0.961 . S
C488 H491 0.960 . S
H489 C488 0.961 . S
H490 C488 0.961 . S
H491 C488 0.960 . S
C492 N493 1.342 . S
C492 C496 1.401 . S
C492 C497 1.499 . S
N493 Co476 1.989 . S
N493 C492 1.342 . S
N493 N494 1.388 . S
N494 Co477 1.993 . S
N494 N493 1.388 . S
N494 C495 1.346 . S
C495 N494 1.346 . S
C495 C496 1.396 . S
C495 C505 1.510 . S
C496 C492 1.401 . S
C496 C495 1.396 . S
C497 C492 1.499 . S
C497 H498 0.959 . S
C497 H499 0.960 . S
C497 H500 0.961 . S
H498 C497 0.959 . S
H499 C497 0.960 . S
H500 C497 0.961 . S
O501 Co476 1.967 . S
O501 C509 1.258 . S
O502 Co477 1.941 . S
O502 C509 1.266 . S
H503 C505 0.959 . S
H504 C505 0.961 . S
C505 C495 1.510 . S
C505 H503 0.959 . S
C505 H504 0.961 . S
C505 H506 0.960 . S
H506 C505 0.960 . S
H507 N487 0.862 . S
O508 Co476 1.920 . S
O508 C481 1.289 . S
C509 O501 1.258 . S
C509 O502 1.266 . S
Co510 O513 1.970 . S
Co510 N527 1.989 . S
Co510 O535 1.967 . S
Co510 O542 1.920 . S
Co511 O514 1.966 . S
Co511 N520 2.022 . S
Co511 N528 1.993 . S
Co511 O536 1.941 . S
C512 O513 1.258 . S
C512 O514 1.263 . S
O513 Co510 1.970 . S
O513 C512 1.258 . S
O514 Co511 1.966 . S
O514 C512 1.263 . S
C515 O516 1.235 . S
C515 O542 1.289 . S
O516 C515 1.235 . S
C517 C519 1.400 . S
C517 N520 1.351 . S
C517 C522 1.501 . S
C518 C519 1.387 . S
C518 N521 1.341 . S
C519 C517 1.400 . S
C519 C518 1.387 . S
N520 Co511 2.022 . S
N520 C517 1.351 . S
N520 N521 1.365 . S
N521 C518 1.341 . S
N521 N520 1.365 . S
N521 H541 0.862 . S
C522 C517 1.501 . S
C522 H523 0.961 . S
C522 H524 0.961 . S
C522 H525 0.960 . S
H523 C522 0.961 . S
H524 C522 0.961 . S
H525 C522 0.960 . S
C526 N527 1.342 . S
C526 C530 1.401 . S
C526 C531 1.499 . S
N527 Co510 1.989 . S
N527 C526 1.342 . S
N527 N528 1.388 . S
N528 Co511 1.993 . S
N528 N527 1.388 . S
N528 C529 1.346 . S
C529 N528 1.346 . S
C529 C530 1.396 . S
C529 C539 1.510 . S
C530 C526 1.401 . S
C530 C529 1.396 . S
C531 C526 1.499 . S
C531 H532 0.959 . S
C531 H533 0.960 . S
C531 H534 0.961 . S
H532 C531 0.959 . S
H533 C531 0.960 . S
H534 C531 0.961 . S
O535 Co510 1.967 . S
O535 C543 1.258 . S
O536 Co511 1.941 . S
O536 C543 1.266 . S
H537 C539 0.959 . S
H538 C539 0.961 . S
C539 C529 1.510 . S
C539 H537 0.959 . S
C539 H538 0.961 . S
C539 H540 0.960 . S
H540 C539 0.960 . S
H541 N521 0.862 . S
O542 Co510 1.920 . S
O542 C515 1.289 . S
C543 O535 1.258 . S
C543 O536 1.266 . S
Co544 O547 1.970 . S
Co544 N561 1.989 . S
Co544 O569 1.967 . S
Co544 O576 1.920 . S
Co545 O548 1.966 . S
Co545 N554 2.022 . S
Co545 N562 1.993 . S
Co545 O570 1.941 . S
C546 O547 1.258 . S
C546 O548 1.263 . S
O547 Co544 1.970 . S
O547 C546 1.258 . S
O548 Co545 1.966 . S
O548 C546 1.263 . S
C549 O550 1.235 . S
C549 O576 1.289 . S
O550 C549 1.235 . S
C551 C553 1.400 . S
C551 N554 1.351 . S
C551 C556 1.501 . S
C552 C553 1.387 . S
C552 N555 1.341 . S
C553 C551 1.400 . S
C553 C552 1.387 . S
N554 Co545 2.022 . S
N554 C551 1.351 . S
N554 N555 1.365 . S
N555 C552 1.341 . S
N555 N554 1.365 . S
N555 H575 0.862 . S
C556 C551 1.501 . S
C556 H557 0.961 . S
C556 H558 0.961 . S
C556 H559 0.960 . S
H557 C556 0.961 . S
H558 C556 0.961 . S
H559 C556 0.960 . S
C560 N561 1.342 . S
C560 C564 1.401 . S
C560 C565 1.499 . S
N561 Co544 1.989 . S
N561 C560 1.342 . S
N561 N562 1.388 . S
N562 Co545 1.993 . S
N562 N561 1.388 . S
N562 C563 1.346 . S
C563 N562 1.346 . S
C563 C564 1.396 . S
C563 C573 1.510 . S
C564 C560 1.401 . S
C564 C563 1.396 . S
C565 C560 1.499 . S
C565 H566 0.959 . S
C565 H567 0.960 . S
C565 H568 0.961 . S
H566 C565 0.959 . S
H567 C565 0.960 . S
H568 C565 0.961 . S
O569 Co544 1.967 . S
O569 C577 1.258 . S
O570 Co545 1.941 . S
O570 C577 1.266 . S
H571 C573 0.959 . S
H572 C573 0.961 . S
C573 C563 1.510 . S
C573 H571 0.959 . S
C573 H572 0.961 . S
C573 H574 0.960 . S
H574 C573 0.960 . S
H575 N555 0.862 . S
O576 Co544 1.920 . S
O576 C549 1.289 . S
C577 O569 1.258 . S
C577 O570 1.266 . S
Co578 O581 1.970 . S
Co578 N595 1.989 . S
Co578 O603 1.967 . S
Co578 O610 1.920 . S
Co579 O582 1.966 . S
Co579 N588 2.022 . S
Co579 N596 1.993 . S
Co579 O604 1.941 . S
C580 O581 1.258 . S
C580 O582 1.263 . S
O581 Co578 1.970 . S
O581 C580 1.258 . S
O582 Co579 1.966 . S
O582 C580 1.263 . S
C583 O584 1.235 . S
C583 O610 1.289 . S
O584 C583 1.235 . S
C585 C587 1.400 . S
C585 N588 1.351 . S
C585 C590 1.501 . S
C586 C587 1.387 . S
C586 N589 1.341 . S
C587 C585 1.400 . S
C587 C586 1.387 . S
N588 Co579 2.022 . S
N588 C585 1.351 . S
N588 N589 1.365 . S
N589 C586 1.341 . S
N589 N588 1.365 . S
N589 H609 0.862 . S
C590 C585 1.501 . S
C590 H591 0.961 . S
C590 H592 0.961 . S
C590 H593 0.960 . S
H591 C590 0.961 . S
H592 C590 0.961 . S
H593 C590 0.960 . S
C594 N595 1.342 . S
C594 C598 1.401 . S
C594 C599 1.499 . S
N595 Co578 1.989 . S
N595 C594 1.342 . S
N595 N596 1.388 . S
N596 Co579 1.993 . S
N596 N595 1.388 . S
N596 C597 1.346 . S
C597 N596 1.346 . S
C597 C598 1.396 . S
C597 C607 1.510 . S
C598 C594 1.401 . S
C598 C597 1.396 . S
C599 C594 1.499 . S
C599 H600 0.959 . S
C599 H601 0.960 . S
C599 H602 0.961 . S
H600 C599 0.959 . S
H601 C599 0.960 . S
H602 C599 0.961 . S
O603 Co578 1.967 . S
O603 C611 1.258 . S
O604 Co579 1.941 . S
O604 C611 1.266 . S
H605 C607 0.959 . S
H606 C607 0.961 . S
C607 C597 1.510 . S
C607 H605 0.959 . S
C607 H606 0.961 . S
C607 H608 0.960 . S
H608 C607 0.960 . S
H609 N589 0.862 . S
O610 Co578 1.920 . S
O610 C583 1.289 . S
C611 O603 1.258 . S
C611 O604 1.266 . S
Co612 O615 1.970 . S
Co612 N629 1.989 . S
Co612 O637 1.967 . S
Co612 O644 1.920 . S
Co613 O616 1.966 . S
Co613 N622 2.022 . S
Co613 N630 1.993 . S
Co613 O638 1.941 . S
C614 O615 1.258 . S
C614 O616 1.263 . S
O615 Co612 1.970 . S
O615 C614 1.258 . S
O616 Co613 1.966 . S
O616 C614 1.263 . S
C617 O618 1.235 . S
C617 O644 1.289 . S
O618 C617 1.235 . S
C619 C621 1.400 . S
C619 N622 1.351 . S
C619 C624 1.501 . S
C620 C621 1.387 . S
C620 N623 1.341 . S
C621 C619 1.400 . S
C621 C620 1.387 . S
N622 Co613 2.022 . S
N622 C619 1.351 . S
N622 N623 1.365 . S
N623 C620 1.341 . S
N623 N622 1.365 . S
N623 H643 0.862 . S
C624 C619 1.501 . S
C624 H625 0.961 . S
C624 H626 0.961 . S
C624 H627 0.960 . S
H625 C624 0.961 . S
H626 C624 0.961 . S
H627 C624 0.960 . S
C628 N629 1.342 . S
C628 C632 1.401 . S
C628 C633 1.499 . S
N629 Co612 1.989 . S
N629 C628 1.342 . S
N629 N630 1.388 . S
N630 Co613 1.993 . S
N630 N629 1.388 . S
N630 C631 1.346 . S
C631 N630 1.346 . S
C631 C632 1.396 . S
C631 C641 1.510 . S
C632 C628 1.401 . S
C632 C631 1.396 . S
C633 C628 1.499 . S
C633 H634 0.959 . S
C633 H635 0.960 . S
C633 H636 0.961 . S
H634 C633 0.959 . S
H635 C633 0.960 . S
H636 C633 0.961 . S
O637 Co612 1.967 . S
O637 C645 1.258 . S
O638 Co613 1.941 . S
O638 C645 1.266 . S
H639 C641 0.959 . S
H640 C641 0.961 . S
C641 C631 1.510 . S
C641 H639 0.959 . S
C641 H640 0.961 . S
C641 H642 0.960 . S
H642 C641 0.960 . S
H643 N623 0.862 . S
O644 Co612 1.920 . S
O644 C617 1.289 . S
C645 O637 1.258 . S
C645 O638 1.266 . S
Co646 O649 1.970 . S
Co646 N663 1.989 . S
Co646 O671 1.967 . S
Co646 O678 1.920 . S
Co647 O650 1.966 . S
Co647 N656 2.022 . S
Co647 N664 1.993 . S
Co647 O672 1.941 . S
C648 O649 1.258 . S
C648 O650 1.263 . S
O649 Co646 1.970 . S
O649 C648 1.258 . S
O650 Co647 1.966 . S
O650 C648 1.263 . S
C651 O652 1.235 . S
C651 O678 1.289 . S
O652 C651 1.235 . S
C653 C655 1.400 . S
C653 N656 1.351 . S
C653 C658 1.501 . S
C654 C655 1.387 . S
C654 N657 1.341 . S
C655 C653 1.400 . S
C655 C654 1.387 . S
N656 Co647 2.022 . S
N656 C653 1.351 . S
N656 N657 1.365 . S
N657 C654 1.341 . S
N657 N656 1.365 . S
N657 H677 0.862 . S
C658 C653 1.501 . S
C658 H659 0.961 . S
C658 H660 0.961 . S
C658 H661 0.960 . S
H659 C658 0.961 . S
H660 C658 0.961 . S
H661 C658 0.960 . S
C662 N663 1.342 . S
C662 C666 1.401 . S
C662 C667 1.499 . S
N663 Co646 1.989 . S
N663 C662 1.342 . S
N663 N664 1.388 . S
N664 Co647 1.993 . S
N664 N663 1.388 . S
N664 C665 1.346 . S
C665 N664 1.346 . S
C665 C666 1.396 . S
C665 C675 1.510 . S
C666 C662 1.401 . S
C666 C665 1.396 . S
C667 C662 1.499 . S
C667 H668 0.959 . S
C667 H669 0.960 . S
C667 H670 0.961 . S
H668 C667 0.959 . S
H669 C667 0.960 . S
H670 C667 0.961 . S
O671 Co646 1.967 . S
O671 C679 1.258 . S
O672 Co647 1.941 . S
O672 C679 1.266 . S
H673 C675 0.959 . S
H674 C675 0.961 . S
C675 C665 1.510 . S
C675 H673 0.959 . S
C675 H674 0.961 . S
C675 H676 0.960 . S
H676 C675 0.960 . S
H677 N657 0.862 . S
O678 Co646 1.920 . S
O678 C651 1.289 . S
C679 O671 1.258 . S
C679 O672 1.266 . S
Co680 O683 1.970 . S
Co680 N697 1.989 . S
Co680 O705 1.967 . S
Co680 O712 1.920 . S
Co681 O684 1.966 . S
Co681 N690 2.022 . S
Co681 N698 1.993 . S
Co681 O706 1.941 . S
C682 O683 1.258 . S
C682 O684 1.263 . S
O683 Co680 1.970 . S
O683 C682 1.258 . S
O684 Co681 1.966 . S
O684 C682 1.263 . S
C685 O686 1.235 . S
C685 O712 1.289 . S
O686 C685 1.235 . S
C687 C689 1.400 . S
C687 N690 1.351 . S
C687 C692 1.501 . S
C688 C689 1.387 . S
C688 N691 1.341 . S
C689 C687 1.400 . S
C689 C688 1.387 . S
N690 Co681 2.022 . S
N690 C687 1.351 . S
N690 N691 1.365 . S
N691 C688 1.341 . S
N691 N690 1.365 . S
N691 H711 0.862 . S
C692 C687 1.501 . S
C692 H693 0.961 . S
C692 H694 0.961 . S
C692 H695 0.960 . S
H693 C692 0.961 . S
H694 C692 0.961 . S
H695 C692 0.960 . S
C696 N697 1.342 . S
C696 C700 1.401 . S
C696 C701 1.499 . S
N697 Co680 1.989 . S
N697 C696 1.342 . S
N697 N698 1.388 . S
N698 Co681 1.993 . S
N698 N697 1.388 . S
N698 C699 1.346 . S
C699 N698 1.346 . S
C699 C700 1.396 . S
C699 C709 1.510 . S
C700 C696 1.401 . S
C700 C699 1.396 . S
C701 C696 1.499 . S
C701 H702 0.959 . S
C701 H703 0.960 . S
C701 H704 0.961 . S
H702 C701 0.959 . S
H703 C701 0.960 . S
H704 C701 0.961 . S
O705 Co680 1.967 . S
O705 C713 1.258 . S
O706 Co681 1.941 . S
O706 C713 1.266 . S
H707 C709 0.959 . S
H708 C709 0.961 . S
C709 C699 1.510 . S
C709 H707 0.959 . S
C709 H708 0.961 . S
C709 H710 0.960 . S
H710 C709 0.960 . S
H711 N691 0.862 . S
O712 Co680 1.920 . S
O712 C685 1.289 . S
C713 O705 1.258 . S
C713 O706 1.266 . S
Co714 O717 1.970 . S
Co714 N731 1.989 . S
Co714 O739 1.967 . S
Co714 O746 1.920 . S
Co715 O718 1.966 . S
Co715 N724 2.022 . S
Co715 N732 1.993 . S
Co715 O740 1.941 . S
C716 O717 1.258 . S
C716 O718 1.263 . S
O717 Co714 1.970 . S
O717 C716 1.258 . S
O718 Co715 1.966 . S
O718 C716 1.263 . S
C719 O720 1.235 . S
C719 O746 1.289 . S
O720 C719 1.235 . S
C721 C723 1.400 . S
C721 N724 1.351 . S
C721 C726 1.501 . S
C722 C723 1.387 . S
C722 N725 1.341 . S
C723 C721 1.400 . S
C723 C722 1.387 . S
N724 Co715 2.022 . S
N724 C721 1.351 . S
N724 N725 1.365 . S
N725 C722 1.341 . S
N725 N724 1.365 . S
N725 H745 0.862 . S
C726 C721 1.501 . S
C726 H727 0.961 . S
C726 H728 0.961 . S
C726 H729 0.960 . S
H727 C726 0.961 . S
H728 C726 0.961 . S
H729 C726 0.960 . S
C730 N731 1.342 . S
C730 C734 1.401 . S
C730 C735 1.499 . S
N731 Co714 1.989 . S
N731 C730 1.342 . S
N731 N732 1.388 . S
N732 Co715 1.993 . S
N732 N731 1.388 . S
N732 C733 1.346 . S
C733 N732 1.346 . S
C733 C734 1.396 . S
C733 C743 1.510 . S
C734 C730 1.401 . S
C734 C733 1.396 . S
C735 C730 1.499 . S
C735 H736 0.959 . S
C735 H737 0.960 . S
C735 H738 0.961 . S
H736 C735 0.959 . S
H737 C735 0.960 . S
H738 C735 0.961 . S
O739 Co714 1.967 . S
O739 C747 1.258 . S
O740 Co715 1.941 . S
O740 C747 1.266 . S
H741 C743 0.959 . S
H742 C743 0.961 . S
C743 C733 1.510 . S
C743 H741 0.959 . S
C743 H742 0.961 . S
C743 H744 0.960 . S
H744 C743 0.960 . S
H745 N725 0.862 . S
O746 Co714 1.920 . S
O746 C719 1.289 . S
C747 O739 1.258 . S
C747 O740 1.266 . S
Co748 O751 1.970 . S
Co748 N765 1.989 . S
Co748 O773 1.967 . S
Co748 O780 1.920 . S
Co749 O752 1.966 . S
Co749 N758 2.022 . S
Co749 N766 1.993 . S
Co749 O774 1.941 . S
C750 O751 1.258 . S
C750 O752 1.263 . S
O751 Co748 1.970 . S
O751 C750 1.258 . S
O752 Co749 1.966 . S
O752 C750 1.263 . S
C753 O754 1.235 . S
C753 O780 1.289 . S
O754 C753 1.235 . S
C755 C757 1.400 . S
C755 N758 1.351 . S
C755 C760 1.501 . S
C756 C757 1.387 . S
C756 N759 1.341 . S
C757 C755 1.400 . S
C757 C756 1.387 . S
N758 Co749 2.022 . S
N758 C755 1.351 . S
N758 N759 1.365 . S
N759 C756 1.341 . S
N759 N758 1.365 . S
N759 H779 0.862 . S
C760 C755 1.501 . S
C760 H761 0.961 . S
C760 H762 0.961 . S
C760 H763 0.960 . S
H761 C760 0.961 . S
H762 C760 0.961 . S
H763 C760 0.960 . S
C764 N765 1.342 . S
C764 C768 1.401 . S
C764 C769 1.499 . S
N765 Co748 1.989 . S
N765 C764 1.342 . S
N765 N766 1.388 . S
N766 Co749 1.993 . S
N766 N765 1.388 . S
N766 C767 1.346 . S
C767 N766 1.346 . S
C767 C768 1.396 . S
C767 C777 1.510 . S
C768 C764 1.401 . S
C768 C767 1.396 . S
C769 C764 1.499 . S
C769 H770 0.959 . S
C769 H771 0.960 . S
C769 H772 0.961 . S
H770 C769 0.959 . S
H771 C769 0.960 . S
H772 C769 0.961 . S
O773 Co748 1.967 . S
O773 C781 1.258 . S
O774 Co749 1.941 . S
O774 C781 1.266 . S
H775 C777 0.959 . S
H776 C777 0.961 . S
C777 C767 1.510 . S
C777 H775 0.959 . S
C777 H776 0.961 . S
C777 H778 0.960 . S
H778 C777 0.960 . S
H779 N759 0.862 . S
O780 Co748 1.920 . S
O780 C753 1.289 . S
C781 O773 1.258 . S
C781 O774 1.266 . S
Co782 O785 1.970 . S
Co782 N799 1.989 . S
Co782 O807 1.967 . S
Co782 O814 1.920 . S
Co783 O786 1.966 . S
Co783 N792 2.022 . S
Co783 N800 1.993 . S
Co783 O808 1.941 . S
C784 O785 1.258 . S
C784 O786 1.263 . S
O785 Co782 1.970 . S
O785 C784 1.258 . S
O786 Co783 1.966 . S
O786 C784 1.263 . S
C787 O788 1.235 . S
C787 O814 1.289 . S
O788 C787 1.235 . S
C789 C791 1.400 . S
C789 N792 1.351 . S
C789 C794 1.501 . S
C790 C791 1.387 . S
C790 N793 1.341 . S
C791 C789 1.400 . S
C791 C790 1.387 . S
N792 Co783 2.022 . S
N792 C789 1.351 . S
N792 N793 1.365 . S
N793 C790 1.341 . S
N793 N792 1.365 . S
N793 H813 0.862 . S
C794 C789 1.501 . S
C794 H795 0.961 . S
C794 H796 0.961 . S
C794 H797 0.960 . S
H795 C794 0.961 . S
H796 C794 0.961 . S
H797 C794 0.960 . S
C798 N799 1.342 . S
C798 C802 1.401 . S
C798 C803 1.499 . S
N799 Co782 1.989 . S
N799 C798 1.342 . S
N799 N800 1.388 . S
N800 Co783 1.993 . S
N800 N799 1.388 . S
N800 C801 1.346 . S
C801 N800 1.346 . S
C801 C802 1.396 . S
C801 C811 1.510 . S
C802 C798 1.401 . S
C802 C801 1.396 . S
C803 C798 1.499 . S
C803 H804 0.959 . S
C803 H805 0.960 . S
C803 H806 0.961 . S
H804 C803 0.959 . S
H805 C803 0.960 . S
H806 C803 0.961 . S
O807 Co782 1.967 . S
O807 C815 1.258 . S
O808 Co783 1.941 . S
O808 C815 1.266 . S
H809 C811 0.959 . S
H810 C811 0.961 . S
C811 C801 1.510 . S
C811 H809 0.959 . S
C811 H810 0.961 . S
C811 H812 0.960 . S
H812 C811 0.960 . S
H813 N793 0.862 . S
O814 Co782 1.920 . S
O814 C787 1.289 . S
C815 O807 1.258 . S
C815 O808 1.266 . S
C816 C817 1.387 . S
C816 H820 0.950 . S
C816 C825 1.390 1_545 S
C817 C816 1.387 . S
C817 C819 1.387 . S
H818 C825 0.950 . S
C819 C817 1.387 . S
C819 C821 1.390 1_545 S
C819 H823 0.950 . S
H820 C816 0.950 . S
C821 C819 1.390 1_565 S
C821 C822 1.387 . S
C821 H824 0.950 . S
C822 C821 1.387 . S
C822 C825 1.387 . S
H823 C819 0.950 . S
H824 C821 0.950 . S
C825 C816 1.390 1_565 S
C825 H818 0.950 . S
C825 C822 1.387 . S
C826 C827 1.387 . S
C826 H830 0.950 . S
C826 C835 1.390 . S
C827 C826 1.387 . S
C827 C829 1.387 . S
H828 C835 0.950 . S
C829 C827 1.387 . S
C829 C831 1.390 . S
C829 H833 0.950 . S
H830 C826 0.950 . S
C831 C829 1.390 . S
C831 C832 1.387 . S
C831 H834 0.950 . S
C832 C831 1.387 . S
C832 C835 1.387 . S
H833 C829 0.950 . S
H834 C831 0.950 . S
C835 C826 1.390 . S
C835 H828 0.950 . S
C835 C832 1.387 . S
C836 C837 1.387 . S
C836 H840 0.950 . S
C836 C845 1.390 1_455 S
C837 C836 1.387 . S
C837 C839 1.387 . S
H838 C845 0.950 . S
C839 C837 1.387 . S
C839 C841 1.390 1_455 S
C839 H843 0.950 . S
H840 C836 0.950 . S
C841 C839 1.390 1_655 S
C841 C842 1.387 . S
C841 H844 0.950 . S
C842 C841 1.387 . S
C842 C845 1.387 . S
H843 C839 0.950 . S
H844 C841 0.950 . S
C845 C836 1.390 1_655 S
C845 H838 0.950 . S
C845 C842 1.387 . S
C846 C847 1.387 . S
C846 H850 0.950 . S
C846 C855 1.390 1_455 S
C847 C846 1.387 . S
C847 C849 1.387 . S
H848 C855 0.950 . S
C849 C847 1.387 . S
C849 C851 1.390 1_455 S
C849 H853 0.950 . S
H850 C846 0.950 . S
C851 C849 1.390 1_655 S
C851 C852 1.387 . S
C851 H854 0.950 . S
C852 C851 1.387 . S
C852 C855 1.387 . S
H853 C849 0.950 . S
H854 C851 0.950 . S
C855 C846 1.390 1_655 S
C855 H848 0.950 . S
C855 C852 1.387 . S
C856 C857 1.387 . S
C856 H860 0.950 . S
C856 C865 1.390 1_565 S
C857 C856 1.387 . S
C857 C859 1.387 . S
H858 C865 0.950 . S
C859 C857 1.387 . S
C859 C861 1.390 1_565 S
C859 H863 0.950 . S
H860 C856 0.950 . S
C861 C859 1.390 1_545 S
C861 C862 1.387 . S
C861 H864 0.950 . S
C862 C861 1.387 . S
C862 C865 1.387 . S
H863 C859 0.950 . S
H864 C861 0.950 . S
C865 C856 1.390 1_545 S
C865 H858 0.950 . S
C865 C862 1.387 . S
C866 C867 1.387 . S
C866 H870 0.950 . S
C866 C875 1.390 . S
C867 C866 1.387 . S
C867 C869 1.387 . S
H868 C875 0.950 . S
C869 C867 1.387 . S
C869 C871 1.390 . S
C869 H873 0.950 . S
H870 C866 0.950 . S
C871 C869 1.390 . S
C871 C872 1.387 . S
C871 H874 0.950 . S
C872 C871 1.387 . S
C872 C875 1.387 . S
H873 C869 0.950 . S
H874 C871 0.950 . S
C875 C866 1.390 . S
C875 H868 0.950 . S
C875 C872 1.387 . S
C876 C877 1.387 . S
C876 H880 0.950 . S
C876 C885 1.390 1_545 S
C877 C876 1.387 . S
C877 C879 1.387 . S
H878 C885 0.950 . S
C879 C877 1.387 . S
C879 C881 1.390 1_545 S
C879 H883 0.950 . S
H880 C876 0.950 . S
C881 C879 1.390 1_565 S
C881 C882 1.387 . S
C881 H884 0.950 . S
C882 C881 1.387 . S
C882 C885 1.387 . S
H883 C879 0.950 . S
H884 C881 0.950 . S
C885 C876 1.390 1_565 S
C885 H878 0.950 . S
C885 C882 1.387 . S
C886 C887 1.387 . S
C886 H890 0.950 . S
C886 C895 1.390 . S
C887 C886 1.387 . S
C887 C889 1.387 . S
H888 C895 0.950 . S
C889 C887 1.387 . S
C889 C891 1.390 . S
C889 H893 0.950 . S
H890 C886 0.950 . S
C891 C889 1.390 . S
C891 C892 1.387 . S
C891 H894 0.950 . S
C892 C891 1.387 . S
C892 C895 1.387 . S
H893 C889 0.950 . S
H894 C891 0.950 . S
C895 C886 1.390 . S
C895 H888 0.950 . S
C895 C892 1.387 . S
C896 C897 1.387 . S
C896 H900 0.950 . S
C896 C905 1.390 1_655 S
C897 C896 1.387 . S
C897 C899 1.387 . S
H898 C905 0.950 . S
C899 C897 1.387 . S
C899 C901 1.390 1_655 S
C899 H903 0.950 . S
H900 C896 0.950 . S
C901 C899 1.390 1_455 S
C901 C902 1.387 . S
C901 H904 0.950 . S
C902 C901 1.387 . S
C902 C905 1.387 . S
H903 C899 0.950 . S
H904 C901 0.950 . S
C905 C896 1.390 1_455 S
C905 H898 0.950 . S
C905 C902 1.387 . S
C906 C907 1.387 . S
C906 H910 0.950 . S
C906 C915 1.390 1_655 S
C907 C906 1.387 . S
C907 C909 1.387 . S
H908 C915 0.950 . S
C909 C907 1.387 . S
C909 C911 1.390 1_655 S
C909 H913 0.950 . S
H910 C906 0.950 . S
C911 C909 1.390 1_455 S
C911 C912 1.387 . S
C911 H914 0.950 . S
C912 C911 1.387 . S
C912 C915 1.387 . S
H913 C909 0.950 . S
H914 C911 0.950 . S
C915 C906 1.390 1_455 S
C915 H908 0.950 . S
C915 C912 1.387 . S
C916 C917 1.387 . S
C916 H920 0.950 . S
C916 C925 1.390 1_545 S
C917 C916 1.387 . S
C917 C919 1.387 . S
H918 C925 0.950 . S
C919 C917 1.387 . S
C919 C921 1.390 1_545 S
C919 H923 0.950 . S
H920 C916 0.950 . S
C921 C919 1.390 1_565 S
C921 C922 1.387 . S
C921 H924 0.950 . S
C922 C921 1.387 . S
C922 C925 1.387 . S
H923 C919 0.950 . S
H924 C921 0.950 . S
C925 C916 1.390 1_565 S
C925 H918 0.950 . S
C925 C922 1.387 . S
C926 C927 1.387 . S
C926 H930 0.950 . S
C926 C935 1.390 . S
C927 C926 1.387 . S
C927 C929 1.387 . S
H928 C935 0.950 . S
C929 C927 1.387 . S
C929 C931 1.390 . S
C929 H933 0.950 . S
H930 C926 0.950 . S
C931 C929 1.390 . S
C931 C932 1.387 . S
C931 H934 0.950 . S
C932 C931 1.387 . S
C932 C935 1.387 . S
H933 C929 0.950 . S
H934 C931 0.950 . S
C935 C926 1.390 . S
C935 H928 0.950 . S
C935 C932 1.387 . S
C936 C937 1.387 . S
C936 H940 0.950 . S
C936 C945 1.390 . S
C937 C936 1.387 . S
C937 C939 1.387 . S
H938 C945 0.950 . S
C939 C937 1.387 . S
C939 C941 1.390 . S
C939 H943 0.950 . S
H940 C936 0.950 . S
C941 C939 1.390 . S
C941 C942 1.387 . S
C941 H944 0.950 . S
C942 C941 1.387 . S
C942 C945 1.387 . S
H943 C939 0.950 . S
H944 C941 0.950 . S
C945 C936 1.390 . S
C945 H938 0.950 . S
C945 C942 1.387 . S
C946 C947 1.387 . S
C946 H950 0.950 . S
C946 C955 1.390 . S
C947 C946 1.387 . S
C947 C949 1.387 . S
H948 C955 0.950 . S
C949 C947 1.387 . S
C949 C951 1.390 . S
C949 H953 0.950 . S
H950 C946 0.950 . S
C951 C949 1.390 . S
C951 C952 1.387 . S
C951 H954 0.950 . S
C952 C951 1.387 . S
C952 C955 1.387 . S
H953 C949 0.950 . S
H954 C951 0.950 . S
C955 C946 1.390 . S
C955 H948 0.950 . S
C955 C952 1.387 . S
C956 C957 1.387 . S
C956 H960 0.950 . S
C956 C965 1.390 . S
C957 C956 1.387 . S
C957 C959 1.387 . S
H958 C965 0.950 . S
C959 C957 1.387 . S
C959 C961 1.390 . S
C959 H963 0.950 . S
H960 C956 0.950 . S
C961 C959 1.390 . S
C961 C962 1.387 . S
C961 H964 0.950 . S
C962 C961 1.387 . S
C962 C965 1.387 . S
H963 C959 0.950 . S
H964 C961 0.950 . S
C965 C956 1.390 . S
C965 H958 0.950 . S
C965 C962 1.387 . S
C966 C967 1.387 . S
C966 H970 0.950 . S
C966 C975 1.390 . S
C967 C966 1.387 . S
C967 C969 1.387 . S
H968 C975 0.950 . S
C969 C967 1.387 . S
C969 C971 1.390 . S
C969 H973 0.950 . S
H970 C966 0.950 . S
C971 C969 1.390 . S
C971 C972 1.387 . S
C971 H974 0.950 . S
C972 C971 1.387 . S
C972 C975 1.387 . S
H973 C969 0.950 . S
H974 C971 0.950 . S
C975 C966 1.390 . S
C975 H968 0.950 . S
C975 C972 1.387 . S
C976 C977 1.387 . S
C976 H980 0.950 . S
C976 C985 1.390 . S
C977 C976 1.387 . S
C977 C979 1.387 . S
H978 C985 0.950 . S
C979 C977 1.387 . S
C979 C981 1.390 . S
C979 H983 0.950 . S
H980 C976 0.950 . S
C981 C979 1.390 . S
C981 C982 1.387 . S
C981 H984 0.950 . S
C982 C981 1.387 . S
C982 C985 1.387 . S
H983 C979 0.950 . S
H984 C981 0.950 . S
C985 C976 1.390 . S
C985 H978 0.950 . S
C985 C982 1.387 . S
C986 C987 1.387 . S
C986 H990 0.950 . S
C986 C995 1.390 . S
C987 C986 1.387 . S
C987 C989 1.387 . S
H988 C995 0.950 . S
C989 C987 1.387 . S
C989 C991 1.390 . S
C989 H993 0.950 . S
H990 C986 0.950 . S
C991 C989 1.390 . S
C991 C992 1.387 . S
C991 H994 0.950 . S
C992 C991 1.387 . S
C992 C995 1.387 . S
H993 C989 0.950 . S
H994 C991 0.950 . S
C995 C986 1.390 . S
C995 H988 0.950 . S
C995 C992 1.387 . S
C996 C997 1.387 . S
C996 H1000 0.950 . S
C996 C1005 1.390 . S
C997 C996 1.387 . S
C997 C999 1.387 . S
H998 C1005 0.950 . S
C999 C997 1.387 . S
C999 C1001 1.390 . S
C999 H1003 0.950 . S
H1000 C996 0.950 . S
C1001 C999 1.390 . S
C1001 C1002 1.387 . S
C1001 H1004 0.950 . S
C1002 C1001 1.387 . S
C1002 C1005 1.387 . S
H1003 C999 0.950 . S
H1004 C1001 0.950 . S
C1005 C996 1.390 . S
C1005 H998 0.950 . S
C1005 C1002 1.387 . S
C1006 C1007 1.387 . S
C1006 H1010 0.950 . S
C1006 C1015 1.390 . S
C1007 C1006 1.387 . S
C1007 C1009 1.387 . S
H1008 C1015 0.950 . S
C1009 C1007 1.387 . S
C1009 C1011 1.390 . S
C1009 H1013 0.950 . S
H1010 C1006 0.950 . S
C1011 C1009 1.390 . S
C1011 C1012 1.387 . S
C1011 H1014 0.950 . S
C1012 C1011 1.387 . S
C1012 C1015 1.387 . S
H1013 C1009 0.950 . S
H1014 C1011 0.950 . S
C1015 C1006 1.390 . S
C1015 H1008 0.950 . S
C1015 C1012 1.387 . S
C1016 C1017 1.387 . S
C1016 H1020 0.950 . S
C1016 C1025 1.390 . S
C1017 C1016 1.387 . S
C1017 C1019 1.387 . S
H1018 C1025 0.950 . S
C1019 C1017 1.387 . S
C1019 C1021 1.390 . S
C1019 H1023 0.950 . S
H1020 C1016 0.950 . S
C1021 C1019 1.390 . S
C1021 C1022 1.387 . S
C1021 H1024 0.950 . S
C1022 C1021 1.387 . S
C1022 C1025 1.387 . S
H1023 C1019 0.950 . S
H1024 C1021 0.950 . S
C1025 C1016 1.390 . S
C1025 H1018 0.950 . S
C1025 C1022 1.387 . S
C1026 C1027 1.387 . S
C1026 H1030 0.950 . S
C1026 C1035 1.390 . S
C1027 C1026 1.387 . S
C1027 C1029 1.387 . S
H1028 C1035 0.950 . S
C1029 C1027 1.387 . S
C1029 C1031 1.390 . S
C1029 H1033 0.950 . S
H1030 C1026 0.950 . S
C1031 C1029 1.390 . S
C1031 C1032 1.387 . S
C1031 H1034 0.950 . S
C1032 C1031 1.387 . S
C1032 C1035 1.387 . S
H1033 C1029 0.950 . S
H1034 C1031 0.950 . S
C1035 C1026 1.390 . S
C1035 H1028 0.950 . S
C1035 C1032 1.387 . S
C1036 C1037 1.387 . S
C1036 H1040 0.950 . S
C1036 C1045 1.390 . S
C1037 C1036 1.387 . S
C1037 C1039 1.387 . S
H1038 C1045 0.950 . S
C1039 C1037 1.387 . S
C1039 C1041 1.390 . S
C1039 H1043 0.950 . S
H1040 C1036 0.950 . S
C1041 C1039 1.390 . S
C1041 C1042 1.387 . S
C1041 H1044 0.950 . S
C1042 C1041 1.387 . S
C1042 C1045 1.387 . S
H1043 C1039 0.950 . S
H1044 C1041 0.950 . S
C1045 C1036 1.390 . S
C1045 H1038 0.950 . S
C1045 C1042 1.387 . S
C1046 C1047 1.387 . S
C1046 H1050 0.950 . S
C1046 C1055 1.390 . S
C1047 C1046 1.387 . S
C1047 C1049 1.387 . S
H1048 C1055 0.950 . S
C1049 C1047 1.387 . S
C1049 C1051 1.390 . S
C1049 H1053 0.950 . S
H1050 C1046 0.950 . S
C1051 C1049 1.390 . S
C1051 C1052 1.387 . S
C1051 H1054 0.950 . S
C1052 C1051 1.387 . S
C1052 C1055 1.387 . S
H1053 C1049 0.950 . S
H1054 C1051 0.950 . S
C1055 C1046 1.390 . S
C1055 H1048 0.950 . S
C1055 C1052 1.387 . S
C1056 C1057 1.387 . S
C1056 H1060 0.950 . S
C1056 C1065 1.390 1_545 S
C1057 C1056 1.387 . S
C1057 C1059 1.387 . S
H1058 C1065 0.950 . S
C1059 C1057 1.387 . S
C1059 C1061 1.390 1_545 S
C1059 H1063 0.950 . S
H1060 C1056 0.950 . S
C1061 C1059 1.390 1_565 S
C1061 C1062 1.387 . S
C1061 H1064 0.950 . S
C1062 C1061 1.387 . S
C1062 C1065 1.387 . S
H1063 C1059 0.950 . S
H1064 C1061 0.950 . S
C1065 C1056 1.390 1_565 S
C1065 H1058 0.950 . S
C1065 C1062 1.387 . S
C1066 C1067 1.387 . S
C1066 H1070 0.950 . S
C1066 C1075 1.390 . S
C1067 C1066 1.387 . S
C1067 C1069 1.387 . S
H1068 C1075 0.950 . S
C1069 C1067 1.387 . S
C1069 C1071 1.390 . S
C1069 H1073 0.950 . S
H1070 C1066 0.950 . S
C1071 C1069 1.390 . S
C1071 C1072 1.387 . S
C1071 H1074 0.950 . S
C1072 C1071 1.387 . S
C1072 C1075 1.387 . S
H1073 C1069 0.950 . S
H1074 C1071 0.950 . S
C1075 C1066 1.390 . S
C1075 H1068 0.950 . S
C1075 C1072 1.387 . S
C1076 C1077 1.387 . S
C1076 H1080 0.950 . S
C1076 C1085 1.390 1_455 S
C1077 C1076 1.387 . S
C1077 C1079 1.387 . S
H1078 C1085 0.950 . S
C1079 C1077 1.387 . S
C1079 C1081 1.390 1_455 S
C1079 H1083 0.950 . S
H1080 C1076 0.950 . S
C1081 C1079 1.390 1_655 S
C1081 C1082 1.387 . S
C1081 H1084 0.950 . S
C1082 C1081 1.387 . S
C1082 C1085 1.387 . S
H1083 C1079 0.950 . S
H1084 C1081 0.950 . S
C1085 C1076 1.390 1_655 S
C1085 H1078 0.950 . S
C1085 C1082 1.387 . S
C1086 C1087 1.387 . S
C1086 H1090 0.950 . S
C1086 C1095 1.390 1_565 S
C1087 C1086 1.387 . S
C1087 C1089 1.387 . S
H1088 C1095 0.950 . S
C1089 C1087 1.387 . S
C1089 C1091 1.390 1_565 S
C1089 H1093 0.950 . S
H1090 C1086 0.950 . S
C1091 C1089 1.390 1_545 S
C1091 C1092 1.387 . S
C1091 H1094 0.950 . S
C1092 C1091 1.387 . S
C1092 C1095 1.387 . S
H1093 C1089 0.950 . S
H1094 C1091 0.950 . S
C1095 C1086 1.390 1_545 S
C1095 H1088 0.950 . S
C1095 C1092 1.387 . S
C1096 C1097 1.387 . S
C1096 H1100 0.950 . S
C1096 C1105 1.390 . S
C1097 C1096 1.387 . S
C1097 C1099 1.387 . S
H1098 C1105 0.950 . S
C1099 C1097 1.387 . S
C1099 C1101 1.390 . S
C1099 H1103 0.950 . S
H1100 C1096 0.950 . S
C1101 C1099 1.390 . S
C1101 C1102 1.387 . S
C1101 H1104 0.950 . S
C1102 C1101 1.387 . S
C1102 C1105 1.387 . S
H1103 C1099 0.950 . S
H1104 C1101 0.950 . S
C1105 C1096 1.390 . S
C1105 H1098 0.950 . S
C1105 C1102 1.387 . S
C1106 C1107 1.387 . S
C1106 H1110 0.950 . S
C1106 C1115 1.390 1_655 S
C1107 C1106 1.387 . S
C1107 C1109 1.387 . S
H1108 C1115 0.950 . S
C1109 C1107 1.387 . S
C1109 C1111 1.390 1_655 S
C1109 H1113 0.950 . S
H1110 C1106 0.950 . S
C1111 C1109 1.390 1_455 S
C1111 C1112 1.387 . S
C1111 H1114 0.950 . S
C1112 C1111 1.387 . S
C1112 C1115 1.387 . S
H1113 C1109 0.950 . S
H1114 C1111 0.950 . S
C1115 C1106 1.390 1_455 S
C1115 H1108 0.950 . S
C1115 C1112 1.387 . S
C1116 C1117 1.387 . S
C1116 H1120 0.950 . S
C1116 C1125 1.390 1_565 S
C1117 C1116 1.387 . S
C1117 C1119 1.387 . S
H1118 C1125 0.950 . S
C1119 C1117 1.387 . S
C1119 C1121 1.390 1_565 S
C1119 H1123 0.950 . S
H1120 C1116 0.950 . S
C1121 C1119 1.390 1_545 S
C1121 C1122 1.387 . S
C1121 H1124 0.950 . S
C1122 C1121 1.387 . S
C1122 C1125 1.387 . S
H1123 C1119 0.950 . S
H1124 C1121 0.950 . S
C1125 C1116 1.390 1_545 S
C1125 H1118 0.950 . S
C1125 C1122 1.387 . S
C1126 C1127 1.387 . S
C1126 H1130 0.950 . S
C1126 C1135 1.390 . S
C1127 C1126 1.387 . S
C1127 C1129 1.387 . S
H1128 C1135 0.950 . S
C1129 C1127 1.387 . S
C1129 C1131 1.390 . S
C1129 H1133 0.950 . S
H1130 C1126 0.950 . S
C1131 C1129 1.390 . S
C1131 C1132 1.387 . S
C1131 H1134 0.950 . S
C1132 C1131 1.387 . S
C1132 C1135 1.387 . S
H1133 C1129 0.950 . S
H1134 C1131 0.950 . S
C1135 C1126 1.390 . S
C1135 H1128 0.950 . S
C1135 C1132 1.387 . S
C1136 C1137 1.387 . S
C1136 H1140 0.950 . S
C1136 C1145 1.390 1_455 S
C1137 C1136 1.387 . S
C1137 C1139 1.387 . S
H1138 C1145 0.950 . S
C1139 C1137 1.387 . S
C1139 C1141 1.390 1_455 S
C1139 H1143 0.950 . S
H1140 C1136 0.950 . S
C1141 C1139 1.390 1_655 S
C1141 C1142 1.387 . S
C1141 H1144 0.950 . S
C1142 C1141 1.387 . S
C1142 C1145 1.387 . S
H1143 C1139 0.950 . S
H1144 C1141 0.950 . S
C1145 C1136 1.390 1_655 S
C1145 H1138 0.950 . S
C1145 C1142 1.387 . S
C1146 C1147 1.387 . S
C1146 H1150 0.950 . S
C1146 C1155 1.390 1_545 S
C1147 C1146 1.387 . S
C1147 C1149 1.387 . S
H1148 C1155 0.950 . S
C1149 C1147 1.387 . S
C1149 C1151 1.390 1_545 S
C1149 H1153 0.950 . S
H1150 C1146 0.950 . S
C1151 C1149 1.390 1_565 S
C1151 C1152 1.387 . S
C1151 H1154 0.950 . S
C1152 C1151 1.387 . S
C1152 C1155 1.387 . S
H1153 C1149 0.950 . S
H1154 C1151 0.950 . S
C1155 C1146 1.390 1_565 S
C1155 H1148 0.950 . S
C1155 C1152 1.387 . S
C1156 C1157 1.387 . S
C1156 H1160 0.950 . S
C1156 C1165 1.390 . S
C1157 C1156 1.387 . S
C1157 C1159 1.387 . S
H1158 C1165 0.950 . S
C1159 C1157 1.387 . S
C1159 C1161 1.390 . S
C1159 H1163 0.950 . S
H1160 C1156 0.950 . S
C1161 C1159 1.390 . S
C1161 C1162 1.387 . S
C1161 H1164 0.950 . S
C1162 C1161 1.387 . S
C1162 C1165 1.387 . S
H1163 C1159 0.950 . S
H1164 C1161 0.950 . S
C1165 C1156 1.390 . S
C1165 H1158 0.950 . S
C1165 C1162 1.387 . S
C1166 C1167 1.387 . S
C1166 H1170 0.950 . S
C1166 C1175 1.390 1_455 S
C1167 C1166 1.387 . S
C1167 C1169 1.387 . S
H1168 C1175 0.950 . S
C1169 C1167 1.387 . S
C1169 C1171 1.390 1_455 S
C1169 H1173 0.950 . S
H1170 C1166 0.950 . S
C1171 C1169 1.390 1_655 S
C1171 C1172 1.387 . S
C1171 H1174 0.950 . S
C1172 C1171 1.387 . S
C1172 C1175 1.387 . S
H1173 C1169 0.950 . S
H1174 C1171 0.950 . S
C1175 C1166 1.390 1_655 S
C1175 H1168 0.950 . S
C1175 C1172 1.387 . S
C1176 C1177 1.387 . S
C1176 H1180 0.950 . S
C1176 C1185 1.390 . S
C1177 C1176 1.387 . S
C1177 C1179 1.387 . S
H1178 C1185 0.950 . S
C1179 C1177 1.387 . S
C1179 C1181 1.390 . S
C1179 H1183 0.950 . S
H1180 C1176 0.950 . S
C1181 C1179 1.390 . S
C1181 C1182 1.387 . S
C1181 H1184 0.950 . S
C1182 C1181 1.387 . S
C1182 C1185 1.387 . S
H1183 C1179 0.950 . S
H1184 C1181 0.950 . S
C1185 C1176 1.390 . S
C1185 H1178 0.950 . S
C1185 C1182 1.387 . S
C1186 C1187 1.387 . S
C1186 H1190 0.950 . S
C1186 C1195 1.390 . S
C1187 C1186 1.387 . S
C1187 C1189 1.387 . S
H1188 C1195 0.950 . S
C1189 C1187 1.387 . S
C1189 C1191 1.390 . S
C1189 H1193 0.950 . S
H1190 C1186 0.950 . S
C1191 C1189 1.390 . S
C1191 C1192 1.387 . S
C1191 H1194 0.950 . S
C1192 C1191 1.387 . S
C1192 C1195 1.387 . S
H1193 C1189 0.950 . S
H1194 C1191 0.950 . S
C1195 C1186 1.390 . S
C1195 H1188 0.950 . S
C1195 C1192 1.387 . S
C1196 C1197 1.387 . S
C1196 H1200 0.950 . S
C1196 C1205 1.390 . S
C1197 C1196 1.387 . S
C1197 C1199 1.387 . S
H1198 C1205 0.950 . S
C1199 C1197 1.387 . S
C1199 C1201 1.390 . S
C1199 H1203 0.950 . S
H1200 C1196 0.950 . S
C1201 C1199 1.390 . S
C1201 C1202 1.387 . S
C1201 H1204 0.950 . S
C1202 C1201 1.387 . S
C1202 C1205 1.387 . S
H1203 C1199 0.950 . S
H1204 C1201 0.950 . S
C1205 C1196 1.390 . S
C1205 H1198 0.950 . S
C1205 C1202 1.387 . S
C1206 C1207 1.387 . S
C1206 H1210 0.950 . S
C1206 C1215 1.390 . S
C1207 C1206 1.387 . S
C1207 C1209 1.387 . S
H1208 C1215 0.950 . S
C1209 C1207 1.387 . S
C1209 C1211 1.390 . S
C1209 H1213 0.950 . S
H1210 C1206 0.950 . S
C1211 C1209 1.390 . S
C1211 C1212 1.387 . S
C1211 H1214 0.950 . S
C1212 C1211 1.387 . S
C1212 C1215 1.387 . S
H1213 C1209 0.950 . S
H1214 C1211 0.950 . S
C1215 C1206 1.390 . S
C1215 H1208 0.950 . S
C1215 C1212 1.387 . S
C1216 C1217 1.387 . S
C1216 H1220 0.950 . S
C1216 C1225 1.390 . S
C1217 C1216 1.387 . S
C1217 C1219 1.387 . S
H1218 C1225 0.950 . S
C1219 C1217 1.387 . S
C1219 C1221 1.390 . S
C1219 H1223 0.950 . S
H1220 C1216 0.950 . S
C1221 C1219 1.390 . S
C1221 C1222 1.387 . S
C1221 H1224 0.950 . S
C1222 C1221 1.387 . S
C1222 C1225 1.387 . S
H1223 C1219 0.950 . S
H1224 C1221 0.950 . S
C1225 C1216 1.390 . S
C1225 H1218 0.950 . S
C1225 C1222 1.387 . S
C1226 C1227 1.387 . S
C1226 H1230 0.950 . S
C1226 C1235 1.390 . S
C1227 C1226 1.387 . S
C1227 C1229 1.387 . S
H1228 C1235 0.950 . S
C1229 C1227 1.387 . S
C1229 C1231 1.390 . S
C1229 H1233 0.950 . S
H1230 C1226 0.950 . S
C1231 C1229 1.390 . S
C1231 C1232 1.387 . S
C1231 H1234 0.950 . S
C1232 C1231 1.387 . S
C1232 C1235 1.387 . S
H1233 C1229 0.950 . S
H1234 C1231 0.950 . S
C1235 C1226 1.390 . S
C1235 H1228 0.950 . S
C1235 C1232 1.387 . S
C1236 C1237 1.387 . S
C1236 H1240 0.950 . S
C1236 C1245 1.390 . S
C1237 C1236 1.387 . S
C1237 C1239 1.387 . S
H1238 C1245 0.950 . S
C1239 C1237 1.387 . S
C1239 C1241 1.390 . S
C1239 H1243 0.950 . S
H1240 C1236 0.950 . S
C1241 C1239 1.390 . S
C1241 C1242 1.387 . S
C1241 H1244 0.950 . S
C1242 C1241 1.387 . S
C1242 C1245 1.387 . S
H1243 C1239 0.950 . S
H1244 C1241 0.950 . S
C1245 C1236 1.390 . S
C1245 H1238 0.950 . S
C1245 C1242 1.387 . S
C1246 C1247 1.387 . S
C1246 H1250 0.950 . S
C1246 C1255 1.390 . S
C1247 C1246 1.387 . S
C1247 C1249 1.387 . S
H1248 C1255 0.950 . S
C1249 C1247 1.387 . S
C1249 C1251 1.390 . S
C1249 H1253 0.950 . S
H1250 C1246 0.950 . S
C1251 C1249 1.390 . S
C1251 C1252 1.387 . S
C1251 H1254 0.950 . S
C1252 C1251 1.387 . S
C1252 C1255 1.387 . S
H1253 C1249 0.950 . S
H1254 C1251 0.950 . S
C1255 C1246 1.390 . S
C1255 H1248 0.950 . S
C1255 C1252 1.387 . S
C1256 C1257 1.387 . S
C1256 H1260 0.950 . S
C1256 C1265 1.390 . S
C1257 C1256 1.387 . S
C1257 C1259 1.387 . S
H1258 C1265 0.950 . S
C1259 C1257 1.387 . S
C1259 C1261 1.390 . S
C1259 H1263 0.950 . S
H1260 C1256 0.950 . S
C1261 C1259 1.390 . S
C1261 C1262 1.387 . S
C1261 H1264 0.950 . S
C1262 C1261 1.387 . S
C1262 C1265 1.387 . S
H1263 C1259 0.950 . S
H1264 C1261 0.950 . S
C1265 C1256 1.390 . S
C1265 H1258 0.950 . S
C1265 C1262 1.387 . S
C1266 C1267 1.387 . S
C1266 H1270 0.950 . S
C1266 C1275 1.390 . S
C1267 C1266 1.387 . S
C1267 C1269 1.387 . S
H1268 C1275 0.950 . S
C1269 C1267 1.387 . S
C1269 C1271 1.390 . S
C1269 H1273 0.950 . S
H1270 C1266 0.950 . S
C1271 C1269 1.390 . S
C1271 C1272 1.387 . S
C1271 H1274 0.950 . S
C1272 C1271 1.387 . S
C1272 C1275 1.387 . S
H1273 C1269 0.950 . S
H1274 C1271 0.950 . S
C1275 C1266 1.390 . S
C1275 H1268 0.950 . S
C1275 C1272 1.387 . S
C1276 C1277 1.387 . S
C1276 H1280 0.950 . S
C1276 C1285 1.390 . S
C1277 C1276 1.387 . S
C1277 C1279 1.387 . S
H1278 C1285 0.950 . S
C1279 C1277 1.387 . S
C1279 C1281 1.390 . S
C1279 H1283 0.950 . S
H1280 C1276 0.950 . S
C1281 C1279 1.390 . S
C1281 C1282 1.387 . S
C1281 H1284 0.950 . S
C1282 C1281 1.387 . S
C1282 C1285 1.387 . S
H1283 C1279 0.950 . S
H1284 C1281 0.950 . S
C1285 C1276 1.390 . S
C1285 H1278 0.950 . S
C1285 C1282 1.387 . S
C1286 C1287 1.387 . S
C1286 H1290 0.950 . S
C1286 C1295 1.390 . S
C1287 C1286 1.387 . S
C1287 C1289 1.387 . S
H1288 C1295 0.950 . S
C1289 C1287 1.387 . S
C1289 C1291 1.390 . S
C1289 H1293 0.950 . S
H1290 C1286 0.950 . S
C1291 C1289 1.390 . S
C1291 C1292 1.387 . S
C1291 H1294 0.950 . S
C1292 C1291 1.387 . S
C1292 C1295 1.387 . S
H1293 C1289 0.950 . S
H1294 C1291 0.950 . S
C1295 C1286 1.390 . S
C1295 H1288 0.950 . S
C1295 C1292 1.387 . S
C1296 C1297 1.387 . S
C1296 H1300 0.950 . S
C1296 C1305 1.390 1_554 S
C1297 C1296 1.387 . S
C1297 C1299 1.387 . S
H1298 C1305 0.950 . S
C1299 C1297 1.387 . S
C1299 C1301 1.390 1_554 S
C1299 H1303 0.950 . S
H1300 C1296 0.950 . S
C1301 C1299 1.390 1_556 S
C1301 C1302 1.387 . S
C1301 H1304 0.950 . S
C1302 C1301 1.387 . S
C1302 C1305 1.387 . S
H1303 C1299 0.950 . S
H1304 C1301 0.950 . S
C1305 C1296 1.390 1_556 S
C1305 H1298 0.950 . S
C1305 C1302 1.387 . S
C1306 C1307 1.387 . S
C1306 H1310 0.950 . S
C1306 C1315 1.390 1_554 S
C1307 C1306 1.387 . S
C1307 C1309 1.387 . S
H1308 C1315 0.950 . S
C1309 C1307 1.387 . S
C1309 C1311 1.390 1_554 S
C1309 H1313 0.950 . S
H1310 C1306 0.950 . S
C1311 C1309 1.390 1_556 S
C1311 C1312 1.387 . S
C1311 H1314 0.950 . S
C1312 C1311 1.387 . S
C1312 C1315 1.387 . S
H1313 C1309 0.950 . S
H1314 C1311 0.950 . S
C1315 C1306 1.390 1_556 S
C1315 H1308 0.950 . S
C1315 C1312 1.387 . S
C1316 C1317 1.387 . S
C1316 H1320 0.950 . S
C1316 C1325 1.390 1_554 S
C1317 C1316 1.387 . S
C1317 C1319 1.387 . S
H1318 C1325 0.950 . S
C1319 C1317 1.387 . S
C1319 C1321 1.390 1_554 S
C1319 H1323 0.950 . S
H1320 C1316 0.950 . S
C1321 C1319 1.390 1_556 S
C1321 C1322 1.387 . S
C1321 H1324 0.950 . S
C1322 C1321 1.387 . S
C1322 C1325 1.387 . S
H1323 C1319 0.950 . S
H1324 C1321 0.950 . S
C1325 C1316 1.390 1_556 S
C1325 H1318 0.950 . S
C1325 C1322 1.387 . S
C1326 C1327 1.387 . S
C1326 H1330 0.950 . S
C1326 C1335 1.390 1_554 S
C1327 C1326 1.387 . S
C1327 C1329 1.387 . S
H1328 C1335 0.950 . S
C1329 C1327 1.387 . S
C1329 C1331 1.390 1_554 S
C1329 H1333 0.950 . S
H1330 C1326 0.950 . S
C1331 C1329 1.390 1_556 S
C1331 C1332 1.387 . S
C1331 H1334 0.950 . S
C1332 C1331 1.387 . S
C1332 C1335 1.387 . S
H1333 C1329 0.950 . S
H1334 C1331 0.950 . S
C1335 C1326 1.390 1_556 S
C1335 H1328 0.950 . S
C1335 C1332 1.387 . S
C1336 C1337 1.387 . S
C1336 H1340 0.950 . S
C1336 C1345 1.390 1_554 S
C1337 C1336 1.387 . S
C1337 C1339 1.387 . S
H1338 C1345 0.950 . S
C1339 C1337 1.387 . S
C1339 C1341 1.390 1_554 S
C1339 H1343 0.950 . S
H1340 C1336 0.950 . S
C1341 C1339 1.390 1_556 S
C1341 C1342 1.387 . S
C1341 H1344 0.950 . S
C1342 C1341 1.387 . S
C1342 C1345 1.387 . S
H1343 C1339 0.950 . S
H1344 C1341 0.950 . S
C1345 C1336 1.390 1_556 S
C1345 H1338 0.950 . S
C1345 C1342 1.387 . S
C1346 C1347 1.387 . S
C1346 H1350 0.950 . S
C1346 C1355 1.390 1_556 S
C1347 C1346 1.387 . S
C1347 C1349 1.387 . S
H1348 C1355 0.950 . S
C1349 C1347 1.387 . S
C1349 C1351 1.390 1_556 S
C1349 H1353 0.950 . S
H1350 C1346 0.950 . S
C1351 C1349 1.390 1_554 S
C1351 C1352 1.387 . S
C1351 H1354 0.950 . S
C1352 C1351 1.387 . S
C1352 C1355 1.387 . S
H1353 C1349 0.950 . S
H1354 C1351 0.950 . S
C1355 C1346 1.390 1_554 S
C1355 H1348 0.950 . S
C1355 C1352 1.387 . S
C1356 C1357 1.387 . S
C1356 H1360 0.950 . S
C1356 C1365 1.390 . S
C1357 C1356 1.387 . S
C1357 C1359 1.387 . S
H1358 C1365 0.950 . S
C1359 C1357 1.387 . S
C1359 C1361 1.390 . S
C1359 H1363 0.950 . S
H1360 C1356 0.950 . S
C1361 C1359 1.390 . S
C1361 C1362 1.387 . S
C1361 H1364 0.950 . S
C1362 C1361 1.387 . S
C1362 C1365 1.387 . S
H1363 C1359 0.950 . S
H1364 C1361 0.950 . S
C1365 C1356 1.390 . S
C1365 H1358 0.950 . S
C1365 C1362 1.387 . S
C1366 C1367 1.387 . S
C1366 H1370 0.950 . S
C1366 C1375 1.390 . S
C1367 C1366 1.387 . S
C1367 C1369 1.387 . S
H1368 C1375 0.950 . S
C1369 C1367 1.387 . S
C1369 C1371 1.390 . S
C1369 H1373 0.950 . S
H1370 C1366 0.950 . S
C1371 C1369 1.390 . S
C1371 C1372 1.387 . S
C1371 H1374 0.950 . S
C1372 C1371 1.387 . S
C1372 C1375 1.387 . S
H1373 C1369 0.950 . S
H1374 C1371 0.950 . S
C1375 C1366 1.390 . S
C1375 H1368 0.950 . S
C1375 C1372 1.387 . S
C1376 C1377 1.387 . S
C1376 H1380 0.950 . S
C1376 C1385 1.390 . S
C1377 C1376 1.387 . S
C1377 C1379 1.387 . S
H1378 C1385 0.950 . S
C1379 C1377 1.387 . S
C1379 C1381 1.390 . S
C1379 H1383 0.950 . S
H1380 C1376 0.950 . S
C1381 C1379 1.390 . S
C1381 C1382 1.387 . S
C1381 H1384 0.950 . S
C1382 C1381 1.387 . S
C1382 C1385 1.387 . S
H1383 C1379 0.950 . S
H1384 C1381 0.950 . S
C1385 C1376 1.390 . S
C1385 H1378 0.950 . S
C1385 C1382 1.387 . S
C1386 C1387 1.387 . S
C1386 H1390 0.950 . S
C1386 C1395 1.390 . S
C1387 C1386 1.387 . S
C1387 C1389 1.387 . S
H1388 C1395 0.950 . S
C1389 C1387 1.387 . S
C1389 C1391 1.390 . S
C1389 H1393 0.950 . S
H1390 C1386 0.950 . S
C1391 C1389 1.390 . S
C1391 C1392 1.387 . S
C1391 H1394 0.950 . S
C1392 C1391 1.387 . S
C1392 C1395 1.387 . S
H1393 C1389 0.950 . S
H1394 C1391 0.950 . S
C1395 C1386 1.390 . S
C1395 H1388 0.950 . S
C1395 C1392 1.387 . S
C1396 C1397 1.387 . S
C1396 H1400 0.950 . S
C1396 C1405 1.390 . S
C1397 C1396 1.387 . S
C1397 C1399 1.387 . S
H1398 C1405 0.950 . S
C1399 C1397 1.387 . S
C1399 C1401 1.390 . S
C1399 H1403 0.950 . S
H1400 C1396 0.950 . S
C1401 C1399 1.390 . S
C1401 C1402 1.387 . S
C1401 H1404 0.950 . S
C1402 C1401 1.387 . S
C1402 C1405 1.387 . S
H1403 C1399 0.950 . S
H1404 C1401 0.950 . S
C1405 C1396 1.390 . S
C1405 H1398 0.950 . S
C1405 C1402 1.387 . S
C1406 C1407 1.387 . S
C1406 H1410 0.950 . S
C1406 C1415 1.390 . S
C1407 C1406 1.387 . S
C1407 C1409 1.387 . S
H1408 C1415 0.950 . S
C1409 C1407 1.387 . S
C1409 C1411 1.390 . S
C1409 H1413 0.950 . S
H1410 C1406 0.950 . S
C1411 C1409 1.390 . S
C1411 C1412 1.387 . S
C1411 H1414 0.950 . S
C1412 C1411 1.387 . S
C1412 C1415 1.387 . S
H1413 C1409 0.950 . S
H1414 C1411 0.950 . S
C1415 C1406 1.390 . S
C1415 H1408 0.950 . S
C1415 C1412 1.387 . S
C817 C5 0.786 . S
C822 C107 0.786 . S
C827 C141 0.786 . S
C832 C39 0.786 . S
C837 C175 0.786 . S
C842 C73 0.786 . S
C847 C311 0.785 . S
C852 C209 0.785 . S
C857 C243 0.785 . S
C862 C345 0.785 . S
C867 C277 0.786 . S
C872 C379 0.786 . S
C877 C515 0.786 . S
C882 C413 0.786 . S
C887 C549 0.785 . S
C892 C447 0.785 . S
C897 C583 0.786 . S
C902 C481 0.786 . S
C907 C719 0.786 . S
C912 C617 0.786 . S
C917 C651 0.785 . S
C922 C753 0.785 . S
C927 C787 0.786 . S
C932 C685 0.786 . S
C937 C281 1.680 . S
C942 C9 1.681 . S
C947 C43 1.680 . S
C952 C315 1.680 . S
C957 C77 1.678 . S
C962 C349 1.677 . S
C967 C111 1.677 . S
C972 C383 1.680 . S
C977 C145 1.680 . S
C982 C213 1.680 . S
C987 C247 1.678 . S
C992 C179 1.677 . S
C997 C417 1.678 . S
C1002 C689 1.677 . S
C1007 C723 1.680 . S
C1012 C451 1.680 . S
C1017 C757 1.678 . S
C1022 C485 1.680 . S
C1027 C519 1.679 . S
C1032 C791 1.681 . S
C1037 C621 1.677 . S
C1042 C553 1.678 . S
C1047 C655 1.679 . S
C1052 C587 1.677 . S
C1057 C33 1.412 . S
C1062 C271 1.412 . S
C1067 C67 1.413 . S
C1072 C305 1.411 . S
C1077 C339 1.413 . S
C1082 C101 1.411 . S
C1087 C135 1.411 . S
C1092 C373 1.411 . S
C1097 C407 1.411 . S
C1102 C169 1.413 . S
C1107 C237 1.413 . S
C1112 C203 1.411 . S
C1117 C441 1.412 . S
C1122 C679 1.412 . S
C1127 C475 1.413 . S
C1132 C713 1.411 . S
C1137 C509 1.413 . S
C1142 C747 1.410 . S
C1147 C543 1.411 . S
C1152 C781 1.411 . S
C1157 C577 1.413 . S
C1162 C815 1.411 . S
C1167 C645 1.412 . S
C1172 C611 1.412 . S
C1177 C2 1.599 . S
C1182 C342 1.599 . S
C1187 C376 1.598 . S
C1192 C36 1.596 . S
C1197 C206 1.599 . S
C1202 C70 1.599 . S
C1207 C240 1.596 . S
C1212 C104 1.596 . S
C1217 C138 1.597 . S
C1222 C274 1.599 . S
C1227 C172 1.597 . S
C1232 C308 1.599 . S
C1237 C410 1.599 . S
C1242 C750 1.599 . S
C1247 C784 1.599 . S
C1252 C444 1.597 . S
C1257 C614 1.597 . S
C1262 C478 1.599 . S
C1267 C512 1.596 . S
C1272 C648 1.596 . S
C1277 C546 1.599 . S
C1282 C682 1.597 . S
C1287 C716 1.599 . S
C1292 C580 1.599 . S
C1297 C20 1.494 . S
C1302 C530 1.495 . S
C1307 C54 1.494 . S
C1312 C564 1.496 . S
C1317 C88 1.495 . S
C1322 C598 1.494 . S
C1327 C122 1.494 . S
C1332 C428 1.496 . S
C1337 C156 1.496 . S
C1342 C462 1.494 . S
C1347 C496 1.495 . S
C1352 C190 1.494 . S
C1357 C224 1.496 . S
C1362 C734 1.494 . S
C1367 C258 1.496 . S
C1372 C768 1.494 . S
C1377 C292 1.496 . S
C1382 C802 1.494 . S
C1387 C326 1.496 . S
C1392 C632 1.494 . S
C1397 C360 1.494 . S
C1402 C666 1.496 . S
C1407 C700 1.494 . S
C1412 C394 1.495 . S
