# Generated by pormake.
# Topology nfb, (4)-cn, num edge types: 1
# Building blocks:
#     Node 0, Type 0, BuildingBlock: NAHDIM_clean_sbu_0, # of connection points: 4
#     Node 1, Type 0, BuildingBlock: NAHDIM_clean_sbu_0, # of connection points: 4
#     Node 2, Type 0, BuildingBlock: NAHDIM_clean_sbu_0, # of connection points: 4
#     Node 3, Type 0, BuildingBlock: NAHDIM_clean_sbu_0, # of connection points: 4
#     Node 4, Type 0, BuildingBlock: NAHDIM_clean_sbu_0, # of connection points: 4
#     Node 5, Type 0, BuildingBlock: NAHDIM_clean_sbu_0, # of connection points: 4
#     Node 6, Type 0, BuildingBlock: NAHDIM_clean_sbu_0, # of connection points: 4
#     Node 7, Type 0, BuildingBlock: NAHDIM_clean_sbu_0, # of connection points: 4
#     Node 8, Type 0, BuildingBlock: NAHDIM_clean_sbu_0, # of connection points: 4
#     Node 9, Type 0, BuildingBlock: NAHDIM_clean_sbu_0, # of connection points: 4
#     Node 10, Type 0, BuildingBlock: NAHDIM_clean_sbu_0, # of connection points: 4
#     Node 11, Type 0, BuildingBlock: NAHDIM_clean_sbu_0, # of connection points: 4
#     Node 12, Type 0, BuildingBlock: NAHDIM_clean_sbu_0, # of connection points: 4
#     Node 13, Type 0, BuildingBlock: NAHDIM_clean_sbu_0, # of connection points: 4
#     Node 14, Type 0, BuildingBlock: NAHDIM_clean_sbu_0, # of connection points: 4
#     Node 15, Type 0, BuildingBlock: NAHDIM_clean_sbu_0, # of connection points: 4
#     Node 16, Type 0, BuildingBlock: NAHDIM_clean_sbu_0, # of connection points: 4
#     Node 17, Type 0, BuildingBlock: NAHDIM_clean_sbu_0, # of connection points: 4
#     Node 18, Type 0, BuildingBlock: NAHDIM_clean_sbu_0, # of connection points: 4
#     Node 19, Type 0, BuildingBlock: NAHDIM_clean_sbu_0, # of connection points: 4
#     Node 20, Type 0, BuildingBlock: NAHDIM_clean_sbu_0, # of connection points: 4
#     Node 21, Type 0, BuildingBlock: NAHDIM_clean_sbu_0, # of connection points: 4
#     Node 22, Type 0, BuildingBlock: NAHDIM_clean_sbu_0, # of connection points: 4
#     Node 23, Type 0, BuildingBlock: NAHDIM_clean_sbu_0, # of connection points: 4
#     Node 24, Type 0, BuildingBlock: NAHDIM_clean_sbu_0, # of connection points: 4
#     Node 25, Type 0, BuildingBlock: NAHDIM_clean_sbu_0, # of connection points: 4
#     Node 26, Type 0, BuildingBlock: NAHDIM_clean_sbu_0, # of connection points: 4
#     Node 27, Type 0, BuildingBlock: NAHDIM_clean_sbu_0, # of connection points: 4
#     Node 28, Type 0, BuildingBlock: NAHDIM_clean_sbu_0, # of connection points: 4
#     Node 29, Type 0, BuildingBlock: NAHDIM_clean_sbu_0, # of connection points: 4
#     Node 30, Type 0, BuildingBlock: NAHDIM_clean_sbu_0, # of connection points: 4
#     Node 31, Type 0, BuildingBlock: NAHDIM_clean_sbu_0, # of connection points: 4
#     Node 32, Type 0, BuildingBlock: NAHDIM_clean_sbu_0, # of connection points: 4
#     Node 33, Type 0, BuildingBlock: NAHDIM_clean_sbu_0, # of connection points: 4
#     Node 34, Type 0, BuildingBlock: NAHDIM_clean_sbu_0, # of connection points: 4
#     Node 35, Type 0, BuildingBlock: NAHDIM_clean_sbu_0, # of connection points: 4
#     Node 36, Type 0, BuildingBlock: NAHDIM_clean_sbu_0, # of connection points: 4
#     Node 37, Type 0, BuildingBlock: NAHDIM_clean_sbu_0, # of connection points: 4
#     Node 38, Type 0, BuildingBlock: NAHDIM_clean_sbu_0, # of connection points: 4
#     Node 39, Type 0, BuildingBlock: NAHDIM_clean_sbu_0, # of connection points: 4
#     Node 40, Type 0, BuildingBlock: NAHDIM_clean_sbu_0, # of connection points: 4
#     Node 41, Type 0, BuildingBlock: NAHDIM_clean_sbu_0, # of connection points: 4
#     Node 42, Type 0, BuildingBlock: NAHDIM_clean_sbu_0, # of connection points: 4
#     Node 43, Type 0, BuildingBlock: NAHDIM_clean_sbu_0, # of connection points: 4
#     Node 44, Type 0, BuildingBlock: NAHDIM_clean_sbu_0, # of connection points: 4
#     Node 45, Type 0, BuildingBlock: NAHDIM_clean_sbu_0, # of connection points: 4
#     Node 46, Type 0, BuildingBlock: NAHDIM_clean_sbu_0, # of connection points: 4
#     Node 47, Type 0, BuildingBlock: NAHDIM_clean_sbu_0, # of connection points: 4
#     Edge 48, Type (0, 0), None
#     Edge 49, Type (0, 0), None
#     Edge 50, Type (0, 0), None
#     Edge 51, Type (0, 0), None
#     Edge 52, Type (0, 0), None
#     Edge 53, Type (0, 0), None
#     Edge 54, Type (0, 0), None
#     Edge 55, Type (0, 0), None
#     Edge 56, Type (0, 0), None
#     Edge 57, Type (0, 0), None
#     Edge 58, Type (0, 0), None
#     Edge 59, Type (0, 0), None
#     Edge 60, Type (0, 0), None
#     Edge 61, Type (0, 0), None
#     Edge 62, Type (0, 0), None
#     Edge 63, Type (0, 0), None
#     Edge 64, Type (0, 0), None
#     Edge 65, Type (0, 0), None
#     Edge 66, Type (0, 0), None
#     Edge 67, Type (0, 0), None
#     Edge 68, Type (0, 0), None
#     Edge 69, Type (0, 0), None
#     Edge 70, Type (0, 0), None
#     Edge 71, Type (0, 0), None
#     Edge 72, Type (0, 0), None
#     Edge 73, Type (0, 0), None
#     Edge 74, Type (0, 0), None
#     Edge 75, Type (0, 0), None
#     Edge 76, Type (0, 0), None
#     Edge 77, Type (0, 0), None
#     Edge 78, Type (0, 0), None
#     Edge 79, Type (0, 0), None
#     Edge 80, Type (0, 0), None
#     Edge 81, Type (0, 0), None
#     Edge 82, Type (0, 0), None
#     Edge 83, Type (0, 0), None
#     Edge 84, Type (0, 0), None
#     Edge 85, Type (0, 0), None
#     Edge 86, Type (0, 0), None
#     Edge 87, Type (0, 0), None
#     Edge 88, Type (0, 0), None
#     Edge 89, Type (0, 0), None
#     Edge 90, Type (0, 0), None
#     Edge 91, Type (0, 0), None
#     Edge 92, Type (0, 0), None
#     Edge 93, Type (0, 0), None
#     Edge 94, Type (0, 0), None
#     Edge 95, Type (0, 0), None
#     Edge 96, Type (0, 0), None
#     Edge 97, Type (0, 0), None
#     Edge 98, Type (0, 0), None
#     Edge 99, Type (0, 0), None
#     Edge 100, Type (0, 0), None
#     Edge 101, Type (0, 0), None
#     Edge 102, Type (0, 0), None
#     Edge 103, Type (0, 0), None
#     Edge 104, Type (0, 0), None
#     Edge 105, Type (0, 0), None
#     Edge 106, Type (0, 0), None
#     Edge 107, Type (0, 0), None
#     Edge 108, Type (0, 0), None
#     Edge 109, Type (0, 0), None
#     Edge 110, Type (0, 0), None
#     Edge 111, Type (0, 0), None
#     Edge 112, Type (0, 0), None
#     Edge 113, Type (0, 0), None
#     Edge 114, Type (0, 0), None
#     Edge 115, Type (0, 0), None
#     Edge 116, Type (0, 0), None
#     Edge 117, Type (0, 0), None
#     Edge 118, Type (0, 0), None
#     Edge 119, Type (0, 0), None
#     Edge 120, Type (0, 0), None
#     Edge 121, Type (0, 0), None
#     Edge 122, Type (0, 0), None
#     Edge 123, Type (0, 0), None
#     Edge 124, Type (0, 0), None
#     Edge 125, Type (0, 0), None
#     Edge 126, Type (0, 0), None
#     Edge 127, Type (0, 0), None
#     Edge 128, Type (0, 0), None
#     Edge 129, Type (0, 0), None
#     Edge 130, Type (0, 0), None
#     Edge 131, Type (0, 0), None
#     Edge 132, Type (0, 0), None
#     Edge 133, Type (0, 0), None
#     Edge 134, Type (0, 0), None
#     Edge 135, Type (0, 0), None
#     Edge 136, Type (0, 0), None
#     Edge 137, Type (0, 0), None
#     Edge 138, Type (0, 0), None
#     Edge 139, Type (0, 0), None
#     Edge 140, Type (0, 0), None
#     Edge 141, Type (0, 0), None
#     Edge 142, Type (0, 0), None
#     Edge 143, Type (0, 0), None
# Relax obj value: 0.293
# Max RMSD: 0.208
# Mean RMSD: 0.171
data_MOF--net-nfb--node1-NAHDIM_clean_sbu_0--edge1-none
_symmetry_space_group_name_H-M    P1
_symmetry_Int_Tables_number       1
_symmetry_cell_setting            triclinic
loop_
_symmetry_equiv_pos_as_xyz
'x, y, z'
_cell_length_a     26.825237
_cell_length_b     26.584283
_cell_length_c     26.811867
_cell_angle_alpha  91.557478
_cell_angle_beta   89.836138
_cell_angle_gamma 91.52095
loop_
_atom_site_label
_atom_site_type_symbol
_atom_site_fract_x
_atom_site_fract_y
_atom_site_fract_z
_atom_type_partial_charge
C0 C 0.24153 0.15915 0.41003 0.0
O1 O 0.23609 0.19664 0.44231 0.0
O2 O 0.1503 0.16897 0.49009 0.0
Zn3 Zn 0.13799 0.16299 0.41742 0.0
O4 O 0.12774 0.2343 0.39613 0.0
C5 C 0.0384 0.12885 0.38349 0.0
O6 O 0.04106 0.16799 0.35466 0.0
O7 O 0.20308 0.137 0.39091 0.0
C8 C 0.15668 0.25603 0.36537 0.0
O9 O 0.19129 0.23041 0.34212 0.0
C10 C 0.14152 0.13511 0.5215 0.0
O11 O 0.11874 0.09263 0.50792 0.0
O12 O 0.07633 0.1177 0.40885 0.0
C13 C 0.36279 0.49704 0.80458 0.0
O14 O 0.31532 0.49923 0.79327 0.0
O15 O 0.27387 0.59462 0.84655 0.0
Zn16 Zn 0.34838 0.59685 0.8544 0.0
O17 O 0.35703 0.58566 0.92697 0.0
C18 C 0.34466 0.69919 0.81604 0.0
O19 O 0.31052 0.6782 0.78667 0.0
O20 O 0.38503 0.53633 0.82305 0.0
C21 C 0.39278 0.60615 0.95141 0.0
O22 O 0.42594 0.63462 0.92861 0.0
C23 C 0.2545 0.62725 0.87579 0.0
O24 O 0.2834 0.65523 0.90538 0.0
O25 O 0.37047 0.67129 0.84351 0.0
C26 C 0.7744 0.936 0.41357 0.0
O27 O 0.78615 0.90435 0.44813 0.0
O28 O 0.87886 0.95716 0.48892 0.0
Zn29 Zn 0.8783 0.94486 0.41564 0.0
O30 O 0.88411 0.87061 0.40483 0.0
C31 C 0.97235 0.96458 0.35834 0.0
O32 O 0.95731 0.92868 0.32695 0.0
O33 O 0.80901 0.96135 0.39199 0.0
C34 C 0.87573 0.85073 0.3621 0.0
O35 O 0.86462 0.87904 0.32456 0.0
C36 C 0.91312 0.93708 0.51332 0.0
O37 O 0.94643 0.90991 0.48978 0.0
O38 O 0.94212 0.98102 0.39138 0.0
C39 C 0.56648 0.41197 0.83979 0.0
O40 O 0.53206 0.42085 0.80668 0.0
O41 O 0.6904 0.36184 0.88635 0.0
Zn42 Zn 0.62164 0.33552 0.90142 0.0
O43 O 0.61221 0.36746 0.96825 0.0
C44 C 0.66065 0.23114 0.89917 0.0
O45 O 0.70076 0.25512 0.88328 0.0
O46 O 0.57296 0.36629 0.8522 0.0
C47 C 0.58074 0.39482 0.99047 0.0
O48 O 0.53783 0.4045 0.96992 0.0
C49 C 0.72141 0.36143 0.9221 0.0
O50 O 0.70956 0.33833 0.96332 0.0
O51 O 0.62113 0.25616 0.90733 0.0
C52 C 0.07546 0.91445 0.68645 0.0
O53 O 0.0793 0.87209 0.71006 0.0
O54 O 0.15755 0.8115 0.65434 0.0
Zn55 Zn 0.16634 0.8827 0.63067 0.0
O56 O 0.14989 0.87499 0.55871 0.0
C57 C 0.27375 0.89332 0.60683 0.0
O58 O 0.26159 0.86525 0.5675 0.0
O59 O 0.11078 0.92842 0.65752 0.0
C60 C 0.12704 0.90667 0.53349 0.0
O61 O 0.11633 0.95086 0.55314 0.0
C62 C 0.17046 0.77628 0.62421 0.0
O63 O 0.19255 0.7874 0.58207 0.0
O64 O 0.23984 0.90688 0.63773 0.0
C65 C 0.62123 0.73967 0.1229 0.0
O66 O 0.65596 0.72695 0.0907 0.0
O67 O 0.58113 0.6154 0.05837 0.0
Zn68 Zn 0.60808 0.63131 0.12658 0.0
O69 O 0.68268 0.62851 0.12238 0.0
C70 C 0.58052 0.53163 0.16657 0.0
O71 O 0.60111 0.5145 0.12541 0.0
O72 O 0.59475 0.70531 0.14361 0.0
C73 C 0.71035 0.60093 0.14759 0.0
O74 O 0.69064 0.57014 0.18009 0.0
C75 C 0.60483 0.58378 0.03191 0.0
O76 O 0.64459 0.56324 0.0501 0.0
O77 O 0.57907 0.57916 0.17521 0.0
C78 C 1.00554 0.12423 0.72419 0.0
O79 O 1.00035 0.171 0.73993 0.0
O80 O 0.91465 0.21132 0.69491 0.0
Zn81 Zn 0.90743 0.13836 0.679 0.0
O82 O 0.92387 0.13582 0.60722 0.0
C83 C 0.80498 0.14828 0.71566 0.0
O84 O 0.8282 0.17733 0.749 0.0
O85 O 0.9673 0.09989 0.70666 0.0
C86 C 0.90509 0.10542 0.57495 0.0
O87 O 0.86981 0.07312 0.58771 0.0
C88 C 0.88726 0.23906 0.66935 0.0
O89 O 0.85648 0.2187 0.63608 0.0
O90 O 0.83093 0.12155 0.68545 0.0
C91 C 0.42411 0.29949 0.10778 0.0
O92 O 0.40475 0.30191 0.06313 0.0
O93 O 0.42889 0.38772 0.02379 0.0
Zn94 Zn 0.41758 0.40262 0.09638 0.0
O95 O 0.34358 0.41296 0.11075 0.0
C96 C 0.43832 0.50281 0.13836 0.0
O97 O 0.40012 0.49204 0.16726 0.0
O98 O 0.43707 0.33987 0.13165 0.0
C99 C 0.30734 0.38291 0.09919 0.0
O100 O 0.31541 0.34088 0.07416 0.0
C101 C 0.39754 0.40132 0.99213 0.0
O102 O 0.36015 0.42912 1.0066 0.0
O103 O 0.45626 0.46812 0.11068 0.0
C104 C 0.4271 0.25024 0.12989 0.0
O105 O 0.45435 0.24406 0.16975 0.0
O106 O 0.48135 0.13613 0.13955 0.0
Zn107 Zn 0.40918 0.14534 0.13859 0.0
O108 O 0.38874 0.14518 0.21041 0.0
C109 C 0.3562 0.05159 0.10995 0.0
O110 O 0.33325 0.05709 0.15303 0.0
O111 O 0.40249 0.21317 0.11027 0.0
C112 C 0.36583 0.18041 0.23276 0.0
O113 O 0.34698 0.2169 0.20739 0.0
C114 C 0.50388 0.10969 0.17049 0.0
O115 O 0.47914 0.08607 0.20551 0.0
O116 O 0.3844 0.08708 0.09479 0.0
C117 C 0.52805 0.83997 0.56217 0.0
O118 O 0.54624 0.81119 0.52633 0.0
O119 O 0.4383 0.85704 0.68145 0.0
Zn120 Zn 0.4364 0.88551 0.61279 0.0
O121 O 0.46247 0.95668 0.61754 0.0
C122 C 0.32688 0.90504 0.61733 0.0
O123 O 0.33858 0.93622 0.6544 0.0
O124 O 0.4807 0.84441 0.56518 0.0
C125 C 0.44286 0.99292 0.59573 0.0
O126 O 0.40449 0.98431 0.56614 0.0
C127 C 0.42618 0.88492 0.71855 0.0
O128 O 0.41822 0.93279 0.71241 0.0
O129 O 0.36135 0.88219 0.59336 0.0
C130 C 0.61413 0.79327 0.13584 0.0
O131 O 0.5777 0.80584 0.16614 0.0
O132 O 0.56224 0.91702 0.12528 0.0
Zn133 Zn 0.63055 0.89902 0.146 0.0
O134 O 0.62663 0.89418 0.22044 0.0
C135 C 0.6692 0.99441 0.10338 0.0
O136 O 0.63235 0.98823 0.07148 0.0
O137 O 0.64378 0.82766 0.1196 0.0
C138 C 0.65331 0.86594 0.24621 0.0
O139 O 0.68703 0.83794 0.22439 0.0
C140 C 0.54028 0.95145 0.14985 0.0
O141 O 0.56424 0.97667 0.18552 0.0
O142 O 0.67857 0.95892 0.13285 0.0
C143 C 0.56926 0.21682 0.63115 0.0
O144 O 0.55776 0.25826 0.60877 0.0
O145 O 0.62182 0.1383 0.73991 0.0
Zn146 Zn 0.64667 0.14686 0.67046 0.0
O147 O 0.61825 0.0865 0.63476 0.0
C148 C 0.7496 0.14962 0.71348 0.0
O149 O 0.72554 0.16374 0.75396 0.0
O150 O 0.61535 0.20846 0.63954 0.0
C151 C 0.64536 0.05859 0.60794 0.0
O152 O 0.69127 0.07348 0.59786 0.0
C153 C 0.63189 0.09742 0.76073 0.0
O154 O 0.65906 0.06397 0.73711 0.0
O155 O 0.72527 0.14349 0.67263 0.0
C156 C 0.30672 0.93662 0.91211 0.0
O157 O 0.26623 0.94704 0.93758 0.0
O158 O 0.38713 0.88399 0.79772 0.0
Zn159 Zn 0.37452 0.85605 0.86585 0.0
O160 O 0.43759 0.87407 0.90343 0.0
C161 C 0.34904 0.75488 0.81957 0.0
O162 O 0.33134 0.7813 0.78327 0.0
O163 O 0.31572 0.89047 0.90138 0.0
C164 C 0.47181 0.84242 0.89817 0.0
O165 O 0.46203 0.79916 0.87511 0.0
C166 C 0.41702 0.86309 0.76711 0.0
O167 O 0.43762 0.8206 0.77809 0.0
O168 O 0.36579 0.77779 0.85877 0.0
C169 C 0.72191 0.94002 0.39896 0.0
O170 O 0.71031 0.96985 0.36277 0.0
O171 O 0.60997 0.99454 0.39004 0.0
Zn172 Zn 0.61773 0.9208 0.39207 0.0
O173 O 0.61719 0.89738 0.32041 0.0
C174 C 0.52255 0.86827 0.41092 0.0
O175 O 0.53238 0.84424 0.36874 0.0
O176 O 0.68766 0.91326 0.41952 0.0
C177 C 0.64958 0.86914 0.30058 0.0
O178 O 0.68319 0.84849 0.3284 0.0
C179 C 0.58497 0.01537 0.35665 0.0
O180 O 0.56141 0.98788 0.32234 0.0
O181 O 0.5564 0.89657 0.43095 0.0
C182 C 0.67977 0.97889 0.95622 0.0
O183 O 0.7126 0.96314 0.9881 0.0
O184 O 0.64271 0.06176 0.83974 0.0
Zn185 Zn 0.62714 0.06991 0.91232 0.0
O186 O 0.55749 0.04321 0.91968 0.0
C187 C 0.66209 0.17523 0.9018 0.0
O188 O 0.69796 0.152 0.87789 0.0
O189 O 0.67327 0.02648 0.95378 0.0
C190 C 0.52349 0.06894 0.93991 0.0
O191 O 0.53464 0.11326 0.96031 0.0
C192 C 0.61792 0.0905 0.81261 0.0
O193 O 0.5838 0.119 0.83305 0.0
O194 O 0.62929 0.14872 0.92469 0.0
C195 C 0.29171 0.14486 0.39506 0.0
O196 O 0.29768 0.10807 0.36209 0.0
O197 O 0.3968 0.07312 0.39354 0.0
Zn198 Zn 0.39521 0.14678 0.38493 0.0
O199 O 0.39442 0.15471 0.31077 0.0
C200 C 0.49227 0.19919 0.39476 0.0
O201 O 0.48214 0.21647 0.3506 0.0
O202 O 0.32973 0.16901 0.41259 0.0
C203 C 0.36509 0.18231 0.28724 0.0
O204 O 0.33545 0.21289 0.31162 0.0
C205 C 0.43026 0.04893 0.3705 0.0
O206 O 0.46349 0.07314 0.34352 0.0
O207 O 0.45875 0.17429 0.41786 0.0
C208 C 0.14396 0.41222 0.21927 0.0
O209 O 0.1746 0.4499 0.20922 0.0
O210 O 0.14988 0.46496 0.10047 0.0
Zn211 Zn 0.14905 0.39174 0.11175 0.0
O212 O 0.21932 0.36808 0.09842 0.0
C213 C 0.10642 0.34279 0.01984 0.0
O214 O 0.15106 0.3248 0.01252 0.0
O215 O 0.12841 0.38245 0.18417 0.0
C216 C 0.25619 0.39644 0.11192 0.0
O217 O 0.24825 0.43934 0.13558 0.0
C218 C 0.17102 0.48386 0.06267 0.0
O219 O 0.19563 0.45525 0.031 0.0
O220 O 0.09712 0.36624 0.06072 0.0
C221 C 0.09746 0.60056 0.74924 0.0
O222 O 0.12914 0.56652 0.76232 0.0
O223 O 0.06817 0.55265 0.87851 0.0
Zn224 Zn 0.0968 0.61744 0.85476 0.0
O225 O 0.17109 0.60668 0.85206 0.0
C226 C 0.06243 0.66456 0.94831 0.0
O227 O 0.02781 0.6287 0.94865 0.0
O228 O 0.07665 0.6279 0.78285 0.0
C229 C 0.20105 0.63583 0.87617 0.0
O230 O 0.18397 0.67405 0.90231 0.0
C231 C 0.08707 0.53693 0.91838 0.0
O232 O 0.11923 0.56592 0.94323 0.0
O233 O 0.0854 0.67328 0.90762 0.0
C234 C 0.83529 0.66557 0.46884 0.0
O235 O 0.83062 0.71448 0.47394 0.0
O236 O 0.86606 0.766 0.38585 0.0
Zn237 Zn 0.88049 0.69309 0.37344 0.0
O238 O 0.95265 0.68915 0.3894 0.0
C239 C 0.83942 0.69963 0.27202 0.0
O240 O 0.80724 0.72809 0.29566 0.0
O241 O 0.84894 0.64719 0.42657 0.0
C242 C 0.97487 0.64785 0.38441 0.0
O243 O 0.95113 0.60815 0.36509 0.0
C244 C 0.88229 0.79704 0.35402 0.0
O245 O 0.90648 0.78087 0.31438 0.0
O246 O 0.87146 0.67654 0.29738 0.0
C247 C 0.92843 0.35034 0.01715 0.0
O248 O 0.96346 0.32094 0.0326 0.0
O249 O 0.80612 0.37184 0.94415 0.0
Zn250 Zn 0.87518 0.39819 0.93065 0.0
O251 O 0.87986 0.46937 0.955 0.0
C252 C 0.85801 0.36826 0.82547 0.0
O253 O 0.83488 0.33034 0.84679 0.0
O254 O 0.92389 0.35652 0.97009 0.0
C255 C 0.91185 0.4981 0.93452 0.0
O256 O 0.94325 0.4791 0.90189 0.0
C257 C 0.77037 0.38565 0.91726 0.0
O258 O 0.77823 0.41967 0.88332 0.0
O259 O 0.88295 0.3998 0.8528 0.0
C260 C 0.12711 0.40486 0.27081 0.0
O261 O 0.09123 0.37165 0.2795 0.0
O262 O 0.04724 0.42932 0.37353 0.0
Zn263 Zn 0.11895 0.41145 0.37528 0.0
O264 O 0.12216 0.33603 0.3826 0.0
C265 C 0.16547 0.42594 0.47378 0.0
O266 O 0.1827 0.38071 0.46538 0.0
O267 O 0.14726 0.4294 0.30742 0.0
C268 C 0.15449 0.31045 0.35911 0.0
O269 O 0.1879 0.33331 0.33125 0.0
C270 C 0.02054 0.42404 0.41227 0.0
O271 O 0.03986 0.40523 0.45244 0.0
O272 O 0.14491 0.4484 0.43818 0.0
C273 C 0.84724 0.711 0.02529 0.0
O274 O 0.80234 0.71839 0.04323 0.0
O275 O 0.78325 0.63953 0.11415 0.0
Zn276 Zn 0.8573 0.65429 0.11646 0.0
O277 O 0.88687 0.58724 0.10399 0.0
C278 C 0.83607 0.69417 0.21692 0.0
O279 O 0.79439 0.70615 0.19525 0.0
O280 O 0.87964 0.69242 0.05368 0.0
C281 C 0.90117 0.56081 0.13944 0.0
O282 O 0.90025 0.57929 0.18532 0.0
C283 C 0.76443 0.60699 0.14321 0.0
O284 O 0.7934 0.5827 0.17308 0.0
O285 O 0.8719 0.67782 0.18997 0.0
C286 C 0.82466 0.41745 0.5766 0.0
O287 O 0.80729 0.37102 0.5799 0.0
O288 O 0.86008 0.32148 0.65526 0.0
Zn289 Zn 0.87652 0.39427 0.66781 0.0
O290 O 0.94658 0.39438 0.64468 0.0
C291 C 0.85164 0.37372 0.77087 0.0
O292 O 0.82154 0.34141 0.74744 0.0
O293 O 0.84502 0.43863 0.61507 0.0
C294 C 0.9686 0.42585 0.61702 0.0
O295 O 0.94839 0.46882 0.60703 0.0
C296 C 0.89093 0.29333 0.67617 0.0
O297 O 0.92656 0.31344 0.70434 0.0
O298 O 0.87548 0.40662 0.74545 0.0
C299 C 0.16454 0.60275 0.49707 0.0
O300 O 0.18983 0.6448 0.50687 0.0
O301 O 0.15453 0.69272 0.59534 0.0
Zn302 Zn 0.11998 0.62404 0.59367 0.0
O303 O 0.04932 0.63501 0.57752 0.0
C304 C 0.09041 0.61051 0.69612 0.0
O305 O 0.05545 0.64117 0.68311 0.0
O306 O 0.14026 0.582 0.53228 0.0
C307 C 0.01697 0.59935 0.57861 0.0
O308 O 0.02942 0.55479 0.59357 0.0
C309 C 0.15329 0.72443 0.63178 0.0
O310 O 0.13048 0.71279 0.67335 0.0
O311 O 0.12169 0.59488 0.66348 0.0
C312 C 0.81866 0.90091 0.65602 0.0
O313 O 0.83222 0.86441 0.62536 0.0
O314 O 0.90913 0.8289 0.67602 0.0
Zn315 Zn 0.92253 0.9006 0.66514 0.0
O316 O 0.93518 0.90725 0.59194 0.0
C317 C 0.02536 0.93553 0.67991 0.0
O318 O 0.01722 0.96131 0.63977 0.0
O319 O 0.8523 0.92678 0.68017 0.0
C320 C 0.91157 0.93909 0.56758 0.0
O321 O 0.88088 0.96934 0.59083 0.0
C322 C 0.92739 0.79482 0.6485 0.0
O323 O 0.96234 0.80593 0.61591 0.0
O324 O 0.98813 0.91574 0.70262 0.0
C325 C 0.55914 0.49582 0.20231 0.0
O326 O 0.53423 0.51299 0.24112 0.0
O327 O 0.56671 0.4153 0.07542 0.0
Zn328 Zn 0.60207 0.41042 0.14129 0.0
O329 O 0.67381 0.4375 0.1385 0.0
C330 C 0.62709 0.30371 0.12072 0.0
O331 O 0.64999 0.32139 0.08132 0.0
O332 O 0.56422 0.44831 0.19648 0.0
C333 C 0.70846 0.41082 0.15489 0.0
O334 O 0.69731 0.36895 0.17767 0.0
C335 C 0.59599 0.41701 0.03839 0.0
O336 O 0.6439 0.4244 0.04621 0.0
O337 O 0.60469 0.33378 0.15094 0.0
C338 C 0.26609 0.15672 0.6782 0.0
O339 O 0.25797 0.20123 0.66039 0.0
O340 O 0.15962 0.2237 0.67142 0.0
Zn341 Zn 0.1558 0.14883 0.67673 0.0
O342 O 0.1377 0.1215 0.60846 0.0
C343 C 0.05652 0.10795 0.71028 0.0
O344 O 0.06122 0.07463 0.67363 0.0
O345 O 0.2289 0.12842 0.69127 0.0
C346 C 0.15795 0.14451 0.57259 0.0
O347 O 0.19103 0.18075 0.58185 0.0
C348 C 0.12777 0.24795 0.64761 0.0
O349 O 0.08859 0.22441 0.62793 0.0
O350 O 0.09418 0.13626 0.72248 0.0
C351 C 0.44799 0.55558 0.12499 0.0
O352 O 0.47429 0.56508 0.08478 0.0
O353 O 0.41466 0.63927 0.03076 0.0
Zn354 Zn 0.39711 0.64838 0.1026 0.0
O355 O 0.32239 0.64689 0.10997 0.0
C356 C 0.4028 0.75246 0.09829 0.0
O357 O 0.37689 0.74042 0.05816 0.0
O358 O 0.41897 0.58885 0.1424 0.0
C359 C 0.28859 0.65978 0.08009 0.0
O360 O 0.30012 0.67608 0.03565 0.0
C361 C 0.39138 0.6052 1.00567 0.0
O362 O 0.35939 0.57513 0.02813 0.0
O363 O 0.41961 0.71787 0.12509 0.0
C364 C 0.98923 0.10842 0.39847 0.0
O365 O 0.98622 0.07999 0.43767 0.0
O366 O 0.88868 0.09477 0.4889 0.0
Zn367 Zn 0.8888 0.13519 0.42746 0.0
O368 O 0.89233 0.20667 0.45207 0.0
C369 C 0.78525 0.1469 0.41734 0.0
O370 O 0.7926 0.17103 0.46016 0.0
O371 O 0.95025 0.12949 0.38337 0.0
C372 C 0.87811 0.23984 0.42279 0.0
O373 O 0.86257 0.22658 0.3778 0.0
C374 C 0.91646 0.11411 0.52279 0.0
O375 O 0.94836 0.15049 0.51175 0.0
O376 O 0.82163 0.12615 0.39485 0.0
C377 C 0.35324 0.24259 0.86634 0.0
O378 O 0.31271 0.25245 0.89194 0.0
O379 O 0.27429 0.33824 0.84731 0.0
Zn380 Zn 0.34705 0.34956 0.84889 0.0
O381 O 0.35864 0.37997 0.91639 0.0
C382 C 0.38422 0.44698 0.81266 0.0
O383 O 0.4186 0.44381 0.84711 0.0
O384 O 0.3761 0.27825 0.84344 0.0
C385 C 0.39811 0.37917 0.94188 0.0
O386 O 0.43679 0.35458 0.92505 0.0
C387 C 0.24873 0.37446 0.86374 0.0
O388 O 0.27088 0.41703 0.87813 0.0
O389 O 0.35871 0.40739 0.80008 0.0
C390 C 0.02641 0.97164 0.36751 0.0
O391 O 0.04084 0.99058 0.41099 0.0
O392 O 0.11101 0.92866 0.45056 0.0
Zn393 Zn 0.11377 0.91098 0.37743 0.0
O394 O 0.09694 0.83711 0.36664 0.0
C395 C 0.22005 0.90441 0.384 0.0
O396 O 0.2066 0.87527 0.4206 0.0
O397 O 0.0566 0.94476 0.3423 0.0
C398 C 0.1257 0.80429 0.34821 0.0
O399 O 0.17096 0.8171 0.33391 0.0
C400 C 0.11566 0.89404 0.4816 0.0
O401 O 0.11764 0.84697 0.46578 0.0
O402 O 0.18667 0.92482 0.35778 0.0
C403 C 0.635 0.67102 0.88905 0.0
O404 O 0.66624 0.66164 0.92493 0.0
O405 O 0.70218 0.5516 0.86091 0.0
Zn406 Zn 0.62993 0.55929 0.87939 0.0
O407 O 0.62466 0.55241 0.95254 0.0
C408 C 0.59615 0.4551 0.86135 0.0
O409 O 0.63031 0.4475 0.89501 0.0
O410 O 0.61367 0.63414 0.8646 0.0
C411 C 0.59414 0.57704 0.979 0.0
O412 O 0.56033 0.60407 0.95773 0.0
C413 C 0.73408 0.56443 0.89407 0.0
O414 O 0.71922 0.57801 0.93894 0.0
O415 O 0.58865 0.50013 0.8477 0.0
C416 C 0.62516 0.7242 0.87793 0.0
O417 O 0.59331 0.73419 0.84268 0.0
O418 O 0.65341 0.84317 0.81493 0.0
Zn419 Zn 0.63054 0.8341 0.88536 0.0
O420 O 0.55669 0.83166 0.88574 0.0
C421 C 0.65269 0.94091 0.92415 0.0
O422 O 0.623 0.95552 0.88887 0.0
O423 O 0.64723 0.76073 0.90213 0.0
C424 C 0.52364 0.8565 0.90859 0.0
O425 O 0.53589 0.89527 0.93779 0.0
C426 C 0.63261 0.87205 0.78485 0.0
O427 O 0.59444 0.89862 0.79955 0.0
O428 O 0.65982 0.89373 0.92949 0.0
C429 C 0.54472 0.19346 0.40922 0.0
O430 O 0.5551 0.1605 0.44304 0.0
O431 O 0.61847 0.09394 0.38245 0.0
Zn432 Zn 0.63955 0.16419 0.36978 0.0
O433 O 0.65833 0.16416 0.29798 0.0
C434 C 0.73569 0.14519 0.39499 0.0
O435 O 0.72575 0.11217 0.35883 0.0
O436 O 0.57885 0.20733 0.37915 0.0
C437 C 0.69314 0.1894 0.27735 0.0
O438 O 0.72016 0.22253 0.30338 0.0
C439 C 0.58979 0.0697 0.35239 0.0
O440 O 0.5711 0.09215 0.31394 0.0
O441 O 0.70239 0.17592 0.40913 0.0
C442 C 0.37241 0.19085 0.86578 0.0
O443 O 0.41571 0.18232 0.84486 0.0
O444 O 0.39344 0.06469 0.81757 0.0
Zn445 Zn 0.37713 0.08279 0.88802 0.0
O446 O 0.44012 0.08977 0.92786 0.0
C447 C 0.34002 0.97843 0.89651 0.0
O448 O 0.3763 0.96938 0.86493 0.0
O449 O 0.34822 0.15464 0.88652 0.0
C450 C 0.47179 0.05525 0.92814 0.0
O451 O 0.46146 1.01188 0.90549 0.0
C452 C 0.43468 0.07545 0.79685 0.0
O453 O 0.47055 0.09811 0.82274 0.0
O454 O 0.33256 0.02373 0.91184 0.0
C455 C 0.46995 0.87684 0.42438 0.0
O456 O 0.45976 0.91593 0.45328 0.0
O457 O 0.39152 0.97189 0.39088 0.0
Zn458 Zn 0.37732 0.89989 0.37431 0.0
O459 O 0.37807 0.89496 0.30033 0.0
C460 C 0.27336 0.91129 0.37295 0.0
O461 O 0.28785 0.94414 0.33983 0.0
O462 O 0.436 0.8582 0.39572 0.0
C463 C 0.35173 0.86375 0.27451 0.0
O464 O 0.32193 0.83108 0.29633 0.0
C465 C 0.42666 0.99422 0.36795 0.0
O466 O 0.45476 0.96872 0.33668 0.0
O467 O 0.30585 0.88548 0.39503 0.0
C468 C 0.68733 0.04617 0.11654 0.0
O469 O 0.70523 0.0549 0.16157 0.0
O470 O 0.57932 0.13576 0.13527 0.0
Zn471 Zn 0.65167 0.14732 0.13067 0.0
O472 O 0.67331 0.14919 0.20143 0.0
C473 C 0.62939 0.24976 0.13148 0.0
O474 O 0.60489 0.23284 0.17031 0.0
O475 O 0.67157 0.08312 0.0921 0.0
C476 C 0.69855 0.18415 0.22341 0.0
O477 O 0.72024 0.22 0.19778 0.0
C478 C 0.55789 0.1096 0.16822 0.0
O479 O 0.58405 0.08652 0.20151 0.0
O480 O 0.65556 0.21932 0.10508 0.0
C481 C 0.31785 0.13851 0.67842 0.0
O482 O 0.3258 0.09259 0.69253 0.0
O483 O 0.4462 0.12011 0.72438 0.0
Zn484 Zn 0.4269 0.13932 0.65588 0.0
O485 O 0.42287 0.07747 0.61116 0.0
C486 C 0.52866 0.18149 0.64609 0.0
O487 O 0.53877 0.14384 0.67459 0.0
O488 O 0.35434 0.16553 0.66168 0.0
C489 C 0.45566 0.04411 0.61317 0.0
O490 O 0.49489 0.05211 0.6417 0.0
C491 C 0.43482 0.07805 0.74299 0.0
O492 O 0.40997 0.04375 0.71639 0.0
O493 O 0.48339 0.18815 0.63306 0.0
C494 C 0.36438 1.00058 0.08948 0.0
O495 O 0.40277 0.99361 0.05979 0.0
O496 O 0.46335 0.92397 0.11635 0.0
Zn497 Zn 0.39192 0.90606 0.12801 0.0
O498 O 0.38493 0.89684 0.20098 0.0
C499 C 0.40853 0.80526 0.11382 0.0
O500 O 0.44027 0.81837 0.14934 0.0
O501 O 0.3472 0.96367 0.11381 0.0
C502 C 0.35401 0.86617 0.2204 0.0
O503 O 0.32393 0.8381 0.19212 0.0
C504 C 0.48618 0.9541 0.14635 0.0
O505 O 0.4611 0.97813 0.18125 0.0
O506 O 0.38053 0.8382 0.09568 0.0
C507 C 0.76527 0.91233 0.65901 0.0
O508 O 0.75071 0.95212 0.68462 0.0
O509 O 0.63438 0.90672 0.70416 0.0
Zn510 Zn 0.66033 0.90565 0.63374 0.0
O511 O 0.66753 0.97506 0.60958 0.0
C512 C 0.56291 0.86673 0.59691 0.0
O513 O 0.54561 0.89215 0.63555 0.0
O514 O 0.73313 0.88479 0.6348 0.0
C515 C 0.63225 1.0052 0.60575 0.0
O516 O 0.58644 0.98992 0.61562 0.0
C517 C 0.65055 0.87417 0.73342 0.0
O518 O 0.68318 0.84163 0.7171 0.0
O519 O 0.61005 0.86549 0.58939 0.0
C520 C 0.86211 0.64612 0.77865 0.0
O521 O 0.8185 0.62454 0.78701 0.0
O522 O 0.80553 0.61641 0.89592 0.0
Zn523 Zn 0.87653 0.63907 0.88825 0.0
O524 O 0.91469 0.57699 0.89779 0.0
C525 C 0.85347 0.70805 0.97021 0.0
O526 O 0.814 0.71485 0.94256 0.0
O527 O 0.89024 0.65982 0.81545 0.0
C528 C 0.9035 0.552 0.93604 0.0
O529 O 0.87258 0.57086 0.96924 0.0
C530 C 0.78553 0.57516 0.88031 0.0
O531 O 0.81077 0.54316 0.8527 0.0
O532 O 0.89 0.68466 0.95079 0.0
C533 C 0.86059 0.40965 0.26606 0.0
O534 O 0.82981 0.4453 0.25511 0.0
O535 O 0.79374 0.39279 0.15477 0.0
Zn536 Zn 0.86732 0.40591 0.16002 0.0
O537 O 0.88206 0.4793 0.16342 0.0
C538 C 0.8963 0.3754 0.05488 0.0
O539 O 0.85891 0.40249 0.04081 0.0
O540 O 0.88278 0.3855 0.23084 0.0
C541 C 0.90269 0.50672 0.13111 0.0
O542 O 0.91536 0.48754 0.08743 0.0
C543 C 0.76088 0.42542 0.14809 0.0
O544 O 0.77407 0.47201 0.13825 0.0
O545 O 0.90545 0.3713 0.10151 0.0
C546 C 0.15315 0.4416 0.52553 0.0
O547 O 0.11693 0.47325 0.53278 0.0
O548 O 0.05457 0.43876 0.61161 0.0
Zn549 Zn 0.11786 0.4021 0.61957 0.0
O550 O 0.10442 0.32731 0.61851 0.0
C551 C 0.1046 0.3969 0.72208 0.0
O552 O 0.06621 0.37061 0.70428 0.0
O553 O 0.16537 0.41357 0.56107 0.0
C554 C 0.1363 0.30169 0.64079 0.0
O555 O 0.17667 0.32413 0.65921 0.0
C556 C 0.01699 0.41272 0.59726 0.0
O557 O 0.02305 0.36642 0.58064 0.0
O558 O 0.13594 0.41708 0.69198 0.0
C559 C 0.08871 0.67762 0.99547 0.0
O560 O 0.13012 0.70501 0.9941 0.0
O561 O 0.13837 0.56235 0.08338 0.0
Zn562 Zn 0.13287 0.63645 0.08548 0.0
O563 O 0.20112 0.66339 0.06611 0.0
C564 C 0.12966 0.62438 0.1933 0.0
O565 O 0.14976 0.58104 0.18212 0.0
O566 O 0.07991 0.65082 0.03335 0.0
C567 C 0.23658 0.65126 0.09432 0.0
O568 O 0.22662 0.62649 0.13488 0.0
C569 C 0.1676 0.53763 0.05544 0.0
O570 O 0.19555 0.5605 0.02229 0.0
O571 O 0.11745 0.65385 0.15864 0.0
C572 C 0.88018 0.64993 0.72674 0.0
O573 O 0.92666 0.66431 0.71882 0.0
O574 O 0.92114 0.70951 0.62331 0.0
Zn575 Zn 0.88112 0.64553 0.61824 0.0
O576 O 0.93321 0.59507 0.60374 0.0
C577 C 0.84072 0.63583 0.51445 0.0
O578 O 0.86389 0.59297 0.51112 0.0
O579 O 0.85213 0.63761 0.68942 0.0
C580 C 0.96499 0.6118 0.57277 0.0
O581 O 0.95469 0.65169 0.54728 0.0
C582 C 0.90206 0.74602 0.64678 0.0
O583 O 0.85723 0.74087 0.6661 0.0
O584 O 0.83697 0.65829 0.55703 0.0
C585 C 0.07414 0.351 0.97638 0.0
O586 O 0.04228 0.38758 0.97986 0.0
O587 O 0.06393 0.45448 0.89499 0.0
Zn588 Zn 0.09687 0.39008 0.87969 0.0
O589 O 0.16925 0.40489 0.88278 0.0
C590 C 0.11 0.40322 0.77623 0.0
O591 O 0.13858 0.44013 0.79433 0.0
O592 O 0.08974 0.33748 0.93329 0.0
C593 C 0.19502 0.36865 0.86682 0.0
O594 O 0.17284 0.32621 0.85202 0.0
C595 C 0.0855 0.48318 0.9271 0.0
O596 O 0.11922 0.46467 0.95626 0.0
O597 O 0.08605 0.37433 0.80594 0.0
C598 C 0.14942 0.5916 0.44484 0.0
O599 O 0.10848 0.56462 0.43619 0.0
O600 O 0.05485 0.62664 0.35797 0.0
Zn601 Zn 0.12765 0.64221 0.34999 0.0
O602 O 0.14102 0.71737 0.34844 0.0
C603 C 0.1225 0.63896 0.24586 0.0
O604 O 0.09312 0.67622 0.25732 0.0
O605 O 0.1665 0.62014 0.41099 0.0
C606 C 0.10913 0.75165 0.34572 0.0
O607 O 0.06139 0.74006 0.34269 0.0
C608 C 0.02864 0.64759 0.39146 0.0
O609 O 0.04996 0.67824 0.42472 0.0
O610 O 0.14441 0.61609 0.28059 0.0
C611 C 0.86903 0.39773 0.31861 0.0
O612 O 0.89992 0.36191 0.3287 0.0
O613 O 0.85779 0.3238 0.41183 0.0
Zn614 Zn 0.86493 0.39712 0.42425 0.0
O615 O 0.93794 0.40831 0.43858 0.0
C616 C 0.83782 0.43559 0.52623 0.0
O617 O 0.87586 0.46725 0.52161 0.0
O618 O 0.84791 0.42196 0.35458 0.0
C619 C 0.96702 0.43177 0.40935 0.0
O620 O 0.94884 0.45563 0.37156 0.0
C621 C 0.87884 0.29249 0.4388 0.0
O622 O 0.90313 0.3079 0.47908 0.0
O623 O 0.82325 0.40943 0.48807 0.0
loop_
_geom_bond_atom_site_label_1
_geom_bond_atom_site_label_2
_geom_bond_distance
_geom_bond_site_symmetry_2
_ccdc_geom_bond_type
C0 O1 1.160 . S
C0 O7 1.185 . S
O1 C0 1.160 . S
O2 Zn3 1.899 . S
O2 C10 1.284 . S
Zn3 O2 1.899 . S
Zn3 O4 2.032 . S
Zn3 O7 2.086 . S
Zn3 O12 1.977 . S
O4 Zn3 2.032 . S
O4 C8 1.278 . S
C5 O6 1.203 . S
C5 O12 1.267 . S
O6 C5 1.203 . S
O7 C0 1.185 . S
O7 Zn3 2.086 . S
C8 O4 1.278 . S
C8 O9 1.211 . S
O9 C8 1.211 . S
C10 O2 1.284 . S
C10 O11 1.273 . S
O11 C10 1.273 . S
O12 Zn3 1.977 . S
O12 C5 1.267 . S
C13 O14 1.160 . S
C13 O20 1.185 . S
O14 C13 1.160 . S
O15 Zn16 1.899 . S
O15 C23 1.284 . S
Zn16 O15 1.899 . S
Zn16 O17 2.032 . S
Zn16 O20 2.086 . S
Zn16 O25 1.977 . S
O17 Zn16 2.032 . S
O17 C21 1.278 . S
C18 O19 1.203 . S
C18 O25 1.267 . S
O19 C18 1.203 . S
O20 C13 1.185 . S
O20 Zn16 2.086 . S
C21 O17 1.278 . S
C21 O22 1.211 . S
O22 C21 1.211 . S
C23 O15 1.284 . S
C23 O24 1.273 . S
O24 C23 1.273 . S
O25 Zn16 1.977 . S
O25 C18 1.267 . S
C26 O27 1.160 . S
C26 O33 1.185 . S
O27 C26 1.160 . S
O28 Zn29 1.899 . S
O28 C36 1.284 . S
Zn29 O28 1.899 . S
Zn29 O30 2.032 . S
Zn29 O33 2.086 . S
Zn29 O38 1.977 . S
O30 Zn29 2.032 . S
O30 C34 1.278 . S
C31 O32 1.203 . S
C31 O38 1.267 . S
O32 C31 1.203 . S
O33 C26 1.185 . S
O33 Zn29 2.086 . S
C34 O30 1.278 . S
C34 O35 1.211 . S
O35 C34 1.211 . S
C36 O28 1.284 . S
C36 O37 1.273 . S
O37 C36 1.273 . S
O38 Zn29 1.977 . S
O38 C31 1.267 . S
C39 O40 1.160 . S
C39 O46 1.185 . S
O40 C39 1.160 . S
O41 Zn42 1.899 . S
O41 C49 1.284 . S
Zn42 O41 1.899 . S
Zn42 O43 2.032 . S
Zn42 O46 2.086 . S
Zn42 O51 1.977 . S
O43 Zn42 2.032 . S
O43 C47 1.278 . S
C44 O45 1.203 . S
C44 O51 1.267 . S
O45 C44 1.203 . S
O46 C39 1.185 . S
O46 Zn42 2.086 . S
C47 O43 1.278 . S
C47 O48 1.211 . S
O48 C47 1.211 . S
C49 O41 1.284 . S
C49 O50 1.273 . S
O50 C49 1.273 . S
O51 Zn42 1.977 . S
O51 C44 1.267 . S
C52 O53 1.160 . S
C52 O59 1.185 . S
O53 C52 1.160 . S
O54 Zn55 1.899 . S
O54 C62 1.284 . S
Zn55 O54 1.899 . S
Zn55 O56 2.032 . S
Zn55 O59 2.086 . S
Zn55 O64 1.977 . S
O56 Zn55 2.032 . S
O56 C60 1.278 . S
C57 O58 1.203 . S
C57 O64 1.267 . S
O58 C57 1.203 . S
O59 C52 1.185 . S
O59 Zn55 2.086 . S
C60 O56 1.278 . S
C60 O61 1.211 . S
O61 C60 1.211 . S
C62 O54 1.284 . S
C62 O63 1.273 . S
O63 C62 1.273 . S
O64 Zn55 1.977 . S
O64 C57 1.267 . S
C65 O66 1.160 . S
C65 O72 1.185 . S
O66 C65 1.160 . S
O67 Zn68 1.899 . S
O67 C75 1.284 . S
Zn68 O67 1.899 . S
Zn68 O69 2.032 . S
Zn68 O72 2.086 . S
Zn68 O77 1.977 . S
O69 Zn68 2.032 . S
O69 C73 1.278 . S
C70 O71 1.203 . S
C70 O77 1.267 . S
O71 C70 1.203 . S
O72 C65 1.185 . S
O72 Zn68 2.086 . S
C73 O69 1.278 . S
C73 O74 1.211 . S
O74 C73 1.211 . S
C75 O67 1.284 . S
C75 O76 1.273 . S
O76 C75 1.273 . S
O77 Zn68 1.977 . S
O77 C70 1.267 . S
C78 O79 1.160 . S
C78 O85 1.185 . S
O79 C78 1.160 . S
O80 Zn81 1.899 . S
O80 C88 1.284 . S
Zn81 O80 1.899 . S
Zn81 O82 2.032 . S
Zn81 O85 2.086 . S
Zn81 O90 1.977 . S
O82 Zn81 2.032 . S
O82 C86 1.278 . S
C83 O84 1.203 . S
C83 O90 1.267 . S
O84 C83 1.203 . S
O85 C78 1.185 . S
O85 Zn81 2.086 . S
C86 O82 1.278 . S
C86 O87 1.211 . S
O87 C86 1.211 . S
C88 O80 1.284 . S
C88 O89 1.273 . S
O89 C88 1.273 . S
O90 Zn81 1.977 . S
O90 C83 1.267 . S
C91 O92 1.160 . S
C91 O98 1.185 . S
O92 C91 1.160 . S
O93 Zn94 1.899 . S
O93 C101 1.284 . S
Zn94 O93 1.899 . S
Zn94 O95 2.032 . S
Zn94 O98 2.086 . S
Zn94 O103 1.977 . S
O95 Zn94 2.032 . S
O95 C99 1.278 . S
C96 O97 1.203 . S
C96 O103 1.267 . S
O97 C96 1.203 . S
O98 C91 1.185 . S
O98 Zn94 2.086 . S
C99 O95 1.278 . S
C99 O100 1.211 . S
O100 C99 1.211 . S
C101 O93 1.284 . S
C101 O102 1.273 . S
O102 C101 1.273 . S
O103 Zn94 1.977 . S
O103 C96 1.267 . S
C104 O105 1.160 . S
C104 O111 1.185 . S
O105 C104 1.160 . S
O106 Zn107 1.899 . S
O106 C114 1.284 . S
Zn107 O106 1.899 . S
Zn107 O108 2.032 . S
Zn107 O111 2.086 . S
Zn107 O116 1.977 . S
O108 Zn107 2.032 . S
O108 C112 1.278 . S
C109 O110 1.203 . S
C109 O116 1.267 . S
O110 C109 1.203 . S
O111 C104 1.185 . S
O111 Zn107 2.086 . S
C112 O108 1.278 . S
C112 O113 1.211 . S
O113 C112 1.211 . S
C114 O106 1.284 . S
C114 O115 1.273 . S
O115 C114 1.273 . S
O116 Zn107 1.977 . S
O116 C109 1.267 . S
C117 O118 1.160 . S
C117 O124 1.185 . S
O118 C117 1.160 . S
O119 Zn120 1.899 . S
O119 C127 1.284 . S
Zn120 O119 1.899 . S
Zn120 O121 2.032 . S
Zn120 O124 2.086 . S
Zn120 O129 1.977 . S
O121 Zn120 2.032 . S
O121 C125 1.278 . S
C122 O123 1.203 . S
C122 O129 1.267 . S
O123 C122 1.203 . S
O124 C117 1.185 . S
O124 Zn120 2.086 . S
C125 O121 1.278 . S
C125 O126 1.211 . S
O126 C125 1.211 . S
C127 O119 1.284 . S
C127 O128 1.273 . S
O128 C127 1.273 . S
O129 Zn120 1.977 . S
O129 C122 1.267 . S
C130 O131 1.160 . S
C130 O137 1.185 . S
O131 C130 1.160 . S
O132 Zn133 1.899 . S
O132 C140 1.284 . S
Zn133 O132 1.899 . S
Zn133 O134 2.032 . S
Zn133 O137 2.086 . S
Zn133 O142 1.977 . S
O134 Zn133 2.032 . S
O134 C138 1.278 . S
C135 O136 1.203 . S
C135 O142 1.267 . S
O136 C135 1.203 . S
O137 C130 1.185 . S
O137 Zn133 2.086 . S
C138 O134 1.278 . S
C138 O139 1.211 . S
O139 C138 1.211 . S
C140 O132 1.284 . S
C140 O141 1.273 . S
O141 C140 1.273 . S
O142 Zn133 1.977 . S
O142 C135 1.267 . S
C143 O144 1.160 . S
C143 O150 1.185 . S
O144 C143 1.160 . S
O145 Zn146 1.899 . S
O145 C153 1.284 . S
Zn146 O145 1.899 . S
Zn146 O147 2.032 . S
Zn146 O150 2.086 . S
Zn146 O155 1.977 . S
O147 Zn146 2.032 . S
O147 C151 1.278 . S
C148 O149 1.203 . S
C148 O155 1.267 . S
O149 C148 1.203 . S
O150 C143 1.185 . S
O150 Zn146 2.086 . S
C151 O147 1.278 . S
C151 O152 1.211 . S
O152 C151 1.211 . S
C153 O145 1.284 . S
C153 O154 1.273 . S
O154 C153 1.273 . S
O155 Zn146 1.977 . S
O155 C148 1.267 . S
C156 O157 1.160 . S
C156 O163 1.185 . S
O157 C156 1.160 . S
O158 Zn159 1.899 . S
O158 C166 1.284 . S
Zn159 O158 1.899 . S
Zn159 O160 2.032 . S
Zn159 O163 2.086 . S
Zn159 O168 1.977 . S
O160 Zn159 2.032 . S
O160 C164 1.278 . S
C161 O162 1.203 . S
C161 O168 1.267 . S
O162 C161 1.203 . S
O163 C156 1.185 . S
O163 Zn159 2.086 . S
C164 O160 1.278 . S
C164 O165 1.211 . S
O165 C164 1.211 . S
C166 O158 1.284 . S
C166 O167 1.273 . S
O167 C166 1.273 . S
O168 Zn159 1.977 . S
O168 C161 1.267 . S
C169 O170 1.160 . S
C169 O176 1.185 . S
O170 C169 1.160 . S
O171 Zn172 1.899 . S
O171 C179 1.284 . S
Zn172 O171 1.899 . S
Zn172 O173 2.032 . S
Zn172 O176 2.086 . S
Zn172 O181 1.977 . S
O173 Zn172 2.032 . S
O173 C177 1.278 . S
C174 O175 1.203 . S
C174 O181 1.267 . S
O175 C174 1.203 . S
O176 C169 1.185 . S
O176 Zn172 2.086 . S
C177 O173 1.278 . S
C177 O178 1.211 . S
O178 C177 1.211 . S
C179 O171 1.284 . S
C179 O180 1.273 . S
O180 C179 1.273 . S
O181 Zn172 1.977 . S
O181 C174 1.267 . S
C182 O183 1.160 . S
C182 O189 1.185 . S
O183 C182 1.160 . S
O184 Zn185 1.899 . S
O184 C192 1.284 . S
Zn185 O184 1.899 . S
Zn185 O186 2.032 . S
Zn185 O189 2.086 . S
Zn185 O194 1.977 . S
O186 Zn185 2.032 . S
O186 C190 1.278 . S
C187 O188 1.203 . S
C187 O194 1.267 . S
O188 C187 1.203 . S
O189 C182 1.185 . S
O189 Zn185 2.086 . S
C190 O186 1.278 . S
C190 O191 1.211 . S
O191 C190 1.211 . S
C192 O184 1.284 . S
C192 O193 1.273 . S
O193 C192 1.273 . S
O194 Zn185 1.977 . S
O194 C187 1.267 . S
C195 O196 1.160 . S
C195 O202 1.185 . S
O196 C195 1.160 . S
O197 Zn198 1.899 . S
O197 C205 1.284 . S
Zn198 O197 1.899 . S
Zn198 O199 2.032 . S
Zn198 O202 2.086 . S
Zn198 O207 1.977 . S
O199 Zn198 2.032 . S
O199 C203 1.278 . S
C200 O201 1.203 . S
C200 O207 1.267 . S
O201 C200 1.203 . S
O202 C195 1.185 . S
O202 Zn198 2.086 . S
C203 O199 1.278 . S
C203 O204 1.211 . S
O204 C203 1.211 . S
C205 O197 1.284 . S
C205 O206 1.273 . S
O206 C205 1.273 . S
O207 Zn198 1.977 . S
O207 C200 1.267 . S
C208 O209 1.160 . S
C208 O215 1.185 . S
O209 C208 1.160 . S
O210 Zn211 1.899 . S
O210 C218 1.284 . S
Zn211 O210 1.899 . S
Zn211 O212 2.032 . S
Zn211 O215 2.086 . S
Zn211 O220 1.977 . S
O212 Zn211 2.032 . S
O212 C216 1.278 . S
C213 O214 1.203 . S
C213 O220 1.267 . S
O214 C213 1.203 . S
O215 C208 1.185 . S
O215 Zn211 2.086 . S
C216 O212 1.278 . S
C216 O217 1.211 . S
O217 C216 1.211 . S
C218 O210 1.284 . S
C218 O219 1.273 . S
O219 C218 1.273 . S
O220 Zn211 1.977 . S
O220 C213 1.267 . S
C221 O222 1.160 . S
C221 O228 1.185 . S
O222 C221 1.160 . S
O223 Zn224 1.899 . S
O223 C231 1.284 . S
Zn224 O223 1.899 . S
Zn224 O225 2.032 . S
Zn224 O228 2.086 . S
Zn224 O233 1.977 . S
O225 Zn224 2.032 . S
O225 C229 1.278 . S
C226 O227 1.203 . S
C226 O233 1.267 . S
O227 C226 1.203 . S
O228 C221 1.185 . S
O228 Zn224 2.086 . S
C229 O225 1.278 . S
C229 O230 1.211 . S
O230 C229 1.211 . S
C231 O223 1.284 . S
C231 O232 1.273 . S
O232 C231 1.273 . S
O233 Zn224 1.977 . S
O233 C226 1.267 . S
C234 O235 1.160 . S
C234 O241 1.185 . S
O235 C234 1.160 . S
O236 Zn237 1.899 . S
O236 C244 1.284 . S
Zn237 O236 1.899 . S
Zn237 O238 2.032 . S
Zn237 O241 2.086 . S
Zn237 O246 1.977 . S
O238 Zn237 2.032 . S
O238 C242 1.278 . S
C239 O240 1.203 . S
C239 O246 1.267 . S
O240 C239 1.203 . S
O241 C234 1.185 . S
O241 Zn237 2.086 . S
C242 O238 1.278 . S
C242 O243 1.211 . S
O243 C242 1.211 . S
C244 O236 1.284 . S
C244 O245 1.273 . S
O245 C244 1.273 . S
O246 Zn237 1.977 . S
O246 C239 1.267 . S
C247 O248 1.160 . S
C247 O254 1.185 . S
O248 C247 1.160 . S
O249 Zn250 1.899 . S
O249 C257 1.284 . S
Zn250 O249 1.899 . S
Zn250 O251 2.032 . S
Zn250 O254 2.086 . S
Zn250 O259 1.977 . S
O251 Zn250 2.032 . S
O251 C255 1.278 . S
C252 O253 1.203 . S
C252 O259 1.267 . S
O253 C252 1.203 . S
O254 C247 1.185 . S
O254 Zn250 2.086 . S
C255 O251 1.278 . S
C255 O256 1.211 . S
O256 C255 1.211 . S
C257 O249 1.284 . S
C257 O258 1.273 . S
O258 C257 1.273 . S
O259 Zn250 1.977 . S
O259 C252 1.267 . S
C260 O261 1.160 . S
C260 O267 1.185 . S
O261 C260 1.160 . S
O262 Zn263 1.899 . S
O262 C270 1.284 . S
Zn263 O262 1.899 . S
Zn263 O264 2.032 . S
Zn263 O267 2.086 . S
Zn263 O272 1.977 . S
O264 Zn263 2.032 . S
O264 C268 1.278 . S
C265 O266 1.203 . S
C265 O272 1.267 . S
O266 C265 1.203 . S
O267 C260 1.185 . S
O267 Zn263 2.086 . S
C268 O264 1.278 . S
C268 O269 1.211 . S
O269 C268 1.211 . S
C270 O262 1.284 . S
C270 O271 1.273 . S
O271 C270 1.273 . S
O272 Zn263 1.977 . S
O272 C265 1.267 . S
C273 O274 1.160 . S
C273 O280 1.185 . S
O274 C273 1.160 . S
O275 Zn276 1.899 . S
O275 C283 1.284 . S
Zn276 O275 1.899 . S
Zn276 O277 2.032 . S
Zn276 O280 2.086 . S
Zn276 O285 1.977 . S
O277 Zn276 2.032 . S
O277 C281 1.278 . S
C278 O279 1.203 . S
C278 O285 1.267 . S
O279 C278 1.203 . S
O280 C273 1.185 . S
O280 Zn276 2.086 . S
C281 O277 1.278 . S
C281 O282 1.211 . S
O282 C281 1.211 . S
C283 O275 1.284 . S
C283 O284 1.273 . S
O284 C283 1.273 . S
O285 Zn276 1.977 . S
O285 C278 1.267 . S
C286 O287 1.160 . S
C286 O293 1.185 . S
O287 C286 1.160 . S
O288 Zn289 1.899 . S
O288 C296 1.284 . S
Zn289 O288 1.899 . S
Zn289 O290 2.032 . S
Zn289 O293 2.086 . S
Zn289 O298 1.977 . S
O290 Zn289 2.032 . S
O290 C294 1.278 . S
C291 O292 1.203 . S
C291 O298 1.267 . S
O292 C291 1.203 . S
O293 C286 1.185 . S
O293 Zn289 2.086 . S
C294 O290 1.278 . S
C294 O295 1.211 . S
O295 C294 1.211 . S
C296 O288 1.284 . S
C296 O297 1.273 . S
O297 C296 1.273 . S
O298 Zn289 1.977 . S
O298 C291 1.267 . S
C299 O300 1.160 . S
C299 O306 1.185 . S
O300 C299 1.160 . S
O301 Zn302 1.899 . S
O301 C309 1.284 . S
Zn302 O301 1.899 . S
Zn302 O303 2.032 . S
Zn302 O306 2.086 . S
Zn302 O311 1.977 . S
O303 Zn302 2.032 . S
O303 C307 1.278 . S
C304 O305 1.203 . S
C304 O311 1.267 . S
O305 C304 1.203 . S
O306 C299 1.185 . S
O306 Zn302 2.086 . S
C307 O303 1.278 . S
C307 O308 1.211 . S
O308 C307 1.211 . S
C309 O301 1.284 . S
C309 O310 1.273 . S
O310 C309 1.273 . S
O311 Zn302 1.977 . S
O311 C304 1.267 . S
C312 O313 1.160 . S
C312 O319 1.185 . S
O313 C312 1.160 . S
O314 Zn315 1.899 . S
O314 C322 1.284 . S
Zn315 O314 1.899 . S
Zn315 O316 2.032 . S
Zn315 O319 2.086 . S
Zn315 O324 1.977 . S
O316 Zn315 2.032 . S
O316 C320 1.278 . S
C317 O318 1.203 . S
C317 O324 1.267 . S
O318 C317 1.203 . S
O319 C312 1.185 . S
O319 Zn315 2.086 . S
C320 O316 1.278 . S
C320 O321 1.211 . S
O321 C320 1.211 . S
C322 O314 1.284 . S
C322 O323 1.273 . S
O323 C322 1.273 . S
O324 Zn315 1.977 . S
O324 C317 1.267 . S
C325 O326 1.160 . S
C325 O332 1.185 . S
O326 C325 1.160 . S
O327 Zn328 1.899 . S
O327 C335 1.284 . S
Zn328 O327 1.899 . S
Zn328 O329 2.032 . S
Zn328 O332 2.086 . S
Zn328 O337 1.977 . S
O329 Zn328 2.032 . S
O329 C333 1.278 . S
C330 O331 1.203 . S
C330 O337 1.267 . S
O331 C330 1.203 . S
O332 C325 1.185 . S
O332 Zn328 2.086 . S
C333 O329 1.278 . S
C333 O334 1.211 . S
O334 C333 1.211 . S
C335 O327 1.284 . S
C335 O336 1.273 . S
O336 C335 1.273 . S
O337 Zn328 1.977 . S
O337 C330 1.267 . S
C338 O339 1.160 . S
C338 O345 1.185 . S
O339 C338 1.160 . S
O340 Zn341 1.899 . S
O340 C348 1.284 . S
Zn341 O340 1.899 . S
Zn341 O342 2.032 . S
Zn341 O345 2.086 . S
Zn341 O350 1.977 . S
O342 Zn341 2.032 . S
O342 C346 1.278 . S
C343 O344 1.203 . S
C343 O350 1.267 . S
O344 C343 1.203 . S
O345 C338 1.185 . S
O345 Zn341 2.086 . S
C346 O342 1.278 . S
C346 O347 1.211 . S
O347 C346 1.211 . S
C348 O340 1.284 . S
C348 O349 1.273 . S
O349 C348 1.273 . S
O350 Zn341 1.977 . S
O350 C343 1.267 . S
C351 O352 1.160 . S
C351 O358 1.185 . S
O352 C351 1.160 . S
O353 Zn354 1.899 . S
O353 C361 1.284 . S
Zn354 O353 1.899 . S
Zn354 O355 2.032 . S
Zn354 O358 2.086 . S
Zn354 O363 1.977 . S
O355 Zn354 2.032 . S
O355 C359 1.278 . S
C356 O357 1.203 . S
C356 O363 1.267 . S
O357 C356 1.203 . S
O358 C351 1.185 . S
O358 Zn354 2.086 . S
C359 O355 1.278 . S
C359 O360 1.211 . S
O360 C359 1.211 . S
C361 O353 1.284 . S
C361 O362 1.273 . S
O362 C361 1.273 . S
O363 Zn354 1.977 . S
O363 C356 1.267 . S
C364 O365 1.160 . S
C364 O371 1.185 . S
O365 C364 1.160 . S
O366 Zn367 1.899 . S
O366 C374 1.284 . S
Zn367 O366 1.899 . S
Zn367 O368 2.032 . S
Zn367 O371 2.086 . S
Zn367 O376 1.977 . S
O368 Zn367 2.032 . S
O368 C372 1.278 . S
C369 O370 1.203 . S
C369 O376 1.267 . S
O370 C369 1.203 . S
O371 C364 1.185 . S
O371 Zn367 2.086 . S
C372 O368 1.278 . S
C372 O373 1.211 . S
O373 C372 1.211 . S
C374 O366 1.284 . S
C374 O375 1.273 . S
O375 C374 1.273 . S
O376 Zn367 1.977 . S
O376 C369 1.267 . S
C377 O378 1.160 . S
C377 O384 1.185 . S
O378 C377 1.160 . S
O379 Zn380 1.899 . S
O379 C387 1.284 . S
Zn380 O379 1.899 . S
Zn380 O381 2.032 . S
Zn380 O384 2.086 . S
Zn380 O389 1.977 . S
O381 Zn380 2.032 . S
O381 C385 1.278 . S
C382 O383 1.203 . S
C382 O389 1.267 . S
O383 C382 1.203 . S
O384 C377 1.185 . S
O384 Zn380 2.086 . S
C385 O381 1.278 . S
C385 O386 1.211 . S
O386 C385 1.211 . S
C387 O379 1.284 . S
C387 O388 1.273 . S
O388 C387 1.273 . S
O389 Zn380 1.977 . S
O389 C382 1.267 . S
C390 O391 1.160 . S
C390 O397 1.185 . S
O391 C390 1.160 . S
O392 Zn393 1.899 . S
O392 C400 1.284 . S
Zn393 O392 1.899 . S
Zn393 O394 2.032 . S
Zn393 O397 2.086 . S
Zn393 O402 1.977 . S
O394 Zn393 2.032 . S
O394 C398 1.278 . S
C395 O396 1.203 . S
C395 O402 1.267 . S
O396 C395 1.203 . S
O397 C390 1.185 . S
O397 Zn393 2.086 . S
C398 O394 1.278 . S
C398 O399 1.211 . S
O399 C398 1.211 . S
C400 O392 1.284 . S
C400 O401 1.273 . S
O401 C400 1.273 . S
O402 Zn393 1.977 . S
O402 C395 1.267 . S
C403 O404 1.160 . S
C403 O410 1.185 . S
O404 C403 1.160 . S
O405 Zn406 1.899 . S
O405 C413 1.284 . S
Zn406 O405 1.899 . S
Zn406 O407 2.032 . S
Zn406 O410 2.086 . S
Zn406 O415 1.977 . S
O407 Zn406 2.032 . S
O407 C411 1.278 . S
C408 O409 1.203 . S
C408 O415 1.267 . S
O409 C408 1.203 . S
O410 C403 1.185 . S
O410 Zn406 2.086 . S
C411 O407 1.278 . S
C411 O412 1.211 . S
O412 C411 1.211 . S
C413 O405 1.284 . S
C413 O414 1.273 . S
O414 C413 1.273 . S
O415 Zn406 1.977 . S
O415 C408 1.267 . S
C416 O417 1.160 . S
C416 O423 1.185 . S
O417 C416 1.160 . S
O418 Zn419 1.899 . S
O418 C426 1.284 . S
Zn419 O418 1.899 . S
Zn419 O420 2.032 . S
Zn419 O423 2.086 . S
Zn419 O428 1.977 . S
O420 Zn419 2.032 . S
O420 C424 1.278 . S
C421 O422 1.203 . S
C421 O428 1.267 . S
O422 C421 1.203 . S
O423 C416 1.185 . S
O423 Zn419 2.086 . S
C424 O420 1.278 . S
C424 O425 1.211 . S
O425 C424 1.211 . S
C426 O418 1.284 . S
C426 O427 1.273 . S
O427 C426 1.273 . S
O428 Zn419 1.977 . S
O428 C421 1.267 . S
C429 O430 1.160 . S
C429 O436 1.185 . S
O430 C429 1.160 . S
O431 Zn432 1.899 . S
O431 C439 1.284 . S
Zn432 O431 1.899 . S
Zn432 O433 2.032 . S
Zn432 O436 2.086 . S
Zn432 O441 1.977 . S
O433 Zn432 2.032 . S
O433 C437 1.278 . S
C434 O435 1.203 . S
C434 O441 1.267 . S
O435 C434 1.203 . S
O436 C429 1.185 . S
O436 Zn432 2.086 . S
C437 O433 1.278 . S
C437 O438 1.211 . S
O438 C437 1.211 . S
C439 O431 1.284 . S
C439 O440 1.273 . S
O440 C439 1.273 . S
O441 Zn432 1.977 . S
O441 C434 1.267 . S
C442 O443 1.160 . S
C442 O449 1.185 . S
O443 C442 1.160 . S
O444 Zn445 1.899 . S
O444 C452 1.284 . S
Zn445 O444 1.899 . S
Zn445 O446 2.032 . S
Zn445 O449 2.086 . S
Zn445 O454 1.977 . S
O446 Zn445 2.032 . S
O446 C450 1.278 . S
C447 O448 1.203 . S
C447 O454 1.267 . S
O448 C447 1.203 . S
O449 C442 1.185 . S
O449 Zn445 2.086 . S
C450 O446 1.278 . S
C450 O451 1.211 . S
O451 C450 1.211 . S
C452 O444 1.284 . S
C452 O453 1.273 . S
O453 C452 1.273 . S
O454 Zn445 1.977 . S
O454 C447 1.267 . S
C455 O456 1.160 . S
C455 O462 1.185 . S
O456 C455 1.160 . S
O457 Zn458 1.899 . S
O457 C465 1.284 . S
Zn458 O457 1.899 . S
Zn458 O459 2.032 . S
Zn458 O462 2.086 . S
Zn458 O467 1.977 . S
O459 Zn458 2.032 . S
O459 C463 1.278 . S
C460 O461 1.203 . S
C460 O467 1.267 . S
O461 C460 1.203 . S
O462 C455 1.185 . S
O462 Zn458 2.086 . S
C463 O459 1.278 . S
C463 O464 1.211 . S
O464 C463 1.211 . S
C465 O457 1.284 . S
C465 O466 1.273 . S
O466 C465 1.273 . S
O467 Zn458 1.977 . S
O467 C460 1.267 . S
C468 O469 1.160 . S
C468 O475 1.185 . S
O469 C468 1.160 . S
O470 Zn471 1.899 . S
O470 C478 1.284 . S
Zn471 O470 1.899 . S
Zn471 O472 2.032 . S
Zn471 O475 2.086 . S
Zn471 O480 1.977 . S
O472 Zn471 2.032 . S
O472 C476 1.278 . S
C473 O474 1.203 . S
C473 O480 1.267 . S
O474 C473 1.203 . S
O475 C468 1.185 . S
O475 Zn471 2.086 . S
C476 O472 1.278 . S
C476 O477 1.211 . S
O477 C476 1.211 . S
C478 O470 1.284 . S
C478 O479 1.273 . S
O479 C478 1.273 . S
O480 Zn471 1.977 . S
O480 C473 1.267 . S
C481 O482 1.160 . S
C481 O488 1.185 . S
O482 C481 1.160 . S
O483 Zn484 1.899 . S
O483 C491 1.284 . S
Zn484 O483 1.899 . S
Zn484 O485 2.032 . S
Zn484 O488 2.086 . S
Zn484 O493 1.977 . S
O485 Zn484 2.032 . S
O485 C489 1.278 . S
C486 O487 1.203 . S
C486 O493 1.267 . S
O487 C486 1.203 . S
O488 C481 1.185 . S
O488 Zn484 2.086 . S
C489 O485 1.278 . S
C489 O490 1.211 . S
O490 C489 1.211 . S
C491 O483 1.284 . S
C491 O492 1.273 . S
O492 C491 1.273 . S
O493 Zn484 1.977 . S
O493 C486 1.267 . S
C494 O495 1.160 . S
C494 O501 1.185 . S
O495 C494 1.160 . S
O496 Zn497 1.899 . S
O496 C504 1.284 . S
Zn497 O496 1.899 . S
Zn497 O498 2.032 . S
Zn497 O501 2.086 . S
Zn497 O506 1.977 . S
O498 Zn497 2.032 . S
O498 C502 1.278 . S
C499 O500 1.203 . S
C499 O506 1.267 . S
O500 C499 1.203 . S
O501 C494 1.185 . S
O501 Zn497 2.086 . S
C502 O498 1.278 . S
C502 O503 1.211 . S
O503 C502 1.211 . S
C504 O496 1.284 . S
C504 O505 1.273 . S
O505 C504 1.273 . S
O506 Zn497 1.977 . S
O506 C499 1.267 . S
C507 O508 1.160 . S
C507 O514 1.185 . S
O508 C507 1.160 . S
O509 Zn510 1.899 . S
O509 C517 1.284 . S
Zn510 O509 1.899 . S
Zn510 O511 2.032 . S
Zn510 O514 2.086 . S
Zn510 O519 1.977 . S
O511 Zn510 2.032 . S
O511 C515 1.278 . S
C512 O513 1.203 . S
C512 O519 1.267 . S
O513 C512 1.203 . S
O514 C507 1.185 . S
O514 Zn510 2.086 . S
C515 O511 1.278 . S
C515 O516 1.211 . S
O516 C515 1.211 . S
C517 O509 1.284 . S
C517 O518 1.273 . S
O518 C517 1.273 . S
O519 Zn510 1.977 . S
O519 C512 1.267 . S
C520 O521 1.160 . S
C520 O527 1.185 . S
O521 C520 1.160 . S
O522 Zn523 1.899 . S
O522 C530 1.284 . S
Zn523 O522 1.899 . S
Zn523 O524 2.032 . S
Zn523 O527 2.086 . S
Zn523 O532 1.977 . S
O524 Zn523 2.032 . S
O524 C528 1.278 . S
C525 O526 1.203 . S
C525 O532 1.267 . S
O526 C525 1.203 . S
O527 C520 1.185 . S
O527 Zn523 2.086 . S
C528 O524 1.278 . S
C528 O529 1.211 . S
O529 C528 1.211 . S
C530 O522 1.284 . S
C530 O531 1.273 . S
O531 C530 1.273 . S
O532 Zn523 1.977 . S
O532 C525 1.267 . S
C533 O534 1.160 . S
C533 O540 1.185 . S
O534 C533 1.160 . S
O535 Zn536 1.899 . S
O535 C543 1.284 . S
Zn536 O535 1.899 . S
Zn536 O537 2.032 . S
Zn536 O540 2.086 . S
Zn536 O545 1.977 . S
O537 Zn536 2.032 . S
O537 C541 1.278 . S
C538 O539 1.203 . S
C538 O545 1.267 . S
O539 C538 1.203 . S
O540 C533 1.185 . S
O540 Zn536 2.086 . S
C541 O537 1.278 . S
C541 O542 1.211 . S
O542 C541 1.211 . S
C543 O535 1.284 . S
C543 O544 1.273 . S
O544 C543 1.273 . S
O545 Zn536 1.977 . S
O545 C538 1.267 . S
C546 O547 1.160 . S
C546 O553 1.185 . S
O547 C546 1.160 . S
O548 Zn549 1.899 . S
O548 C556 1.284 1_455 S
Zn549 O548 1.899 . S
Zn549 O550 2.032 . S
Zn549 O553 2.086 . S
Zn549 O558 1.977 . S
O550 Zn549 2.032 . S
O550 C554 1.278 . S
C551 O552 1.203 . S
C551 O558 1.267 . S
O552 C551 1.203 . S
O553 C546 1.185 . S
O553 Zn549 2.086 . S
C554 O550 1.278 . S
C554 O555 1.211 . S
O555 C554 1.211 . S
C556 O548 1.284 1_655 S
C556 O557 1.273 1_655 S
O557 C556 1.273 1_455 S
O558 Zn549 1.977 . S
O558 C551 1.267 . S
C559 O560 1.160 . S
C559 O566 1.185 . S
O560 C559 1.160 . S
O561 Zn562 1.899 . S
O561 C569 1.284 . S
Zn562 O561 1.899 . S
Zn562 O563 2.032 . S
Zn562 O566 2.086 . S
Zn562 O571 1.977 . S
O563 Zn562 2.032 . S
O563 C567 1.278 . S
C564 O565 1.203 . S
C564 O571 1.267 . S
O565 C564 1.203 . S
O566 C559 1.185 . S
O566 Zn562 2.086 . S
C567 O563 1.278 . S
C567 O568 1.211 . S
O568 C567 1.211 . S
C569 O561 1.284 . S
C569 O570 1.273 . S
O570 C569 1.273 . S
O571 Zn562 1.977 . S
O571 C564 1.267 . S
C572 O573 1.160 . S
C572 O579 1.185 . S
O573 C572 1.160 . S
O574 Zn575 1.899 . S
O574 C582 1.284 . S
Zn575 O574 1.899 . S
Zn575 O576 2.032 . S
Zn575 O579 2.086 . S
Zn575 O584 1.977 . S
O576 Zn575 2.032 . S
O576 C580 1.278 1_655 S
C577 O578 1.203 . S
C577 O584 1.267 . S
O578 C577 1.203 . S
O579 C572 1.185 . S
O579 Zn575 2.086 . S
C580 O576 1.278 1_455 S
C580 O581 1.211 . S
O581 C580 1.211 . S
C582 O574 1.284 . S
C582 O583 1.273 . S
O583 C582 1.273 . S
O584 Zn575 1.977 . S
O584 C577 1.267 . S
C585 O586 1.160 . S
C585 O592 1.185 . S
O586 C585 1.160 . S
O587 Zn588 1.899 . S
O587 C595 1.284 . S
Zn588 O587 1.899 . S
Zn588 O589 2.032 . S
Zn588 O592 2.086 . S
Zn588 O597 1.977 . S
O589 Zn588 2.032 . S
O589 C593 1.278 . S
C590 O591 1.203 . S
C590 O597 1.267 . S
O591 C590 1.203 . S
O592 C585 1.185 . S
O592 Zn588 2.086 . S
C593 O589 1.278 . S
C593 O594 1.211 . S
O594 C593 1.211 . S
C595 O587 1.284 . S
C595 O596 1.273 . S
O596 C595 1.273 . S
O597 Zn588 1.977 . S
O597 C590 1.267 . S
C598 O599 1.160 . S
C598 O605 1.185 . S
O599 C598 1.160 . S
O600 Zn601 1.899 . S
O600 C608 1.284 . S
Zn601 O600 1.899 . S
Zn601 O602 2.032 . S
Zn601 O605 2.086 . S
Zn601 O610 1.977 . S
O602 Zn601 2.032 . S
O602 C606 1.278 . S
C603 O604 1.203 . S
C603 O610 1.267 . S
O604 C603 1.203 . S
O605 C598 1.185 . S
O605 Zn601 2.086 . S
C606 O602 1.278 . S
C606 O607 1.211 . S
O607 C606 1.211 . S
C608 O600 1.284 . S
C608 O609 1.273 . S
O609 C608 1.273 . S
O610 Zn601 1.977 . S
O610 C603 1.267 . S
C611 O612 1.160 . S
C611 O618 1.185 . S
O612 C611 1.160 . S
O613 Zn614 1.899 . S
O613 C621 1.284 . S
Zn614 O613 1.899 . S
Zn614 O615 2.032 . S
Zn614 O618 2.086 . S
Zn614 O623 1.977 . S
O615 Zn614 2.032 . S
O615 C619 1.278 . S
C616 O617 1.203 . S
C616 O623 1.267 . S
O617 C616 1.203 . S
O618 C611 1.185 . S
O618 Zn614 2.086 . S
C619 O615 1.278 . S
C619 O620 1.211 . S
O620 C619 1.211 . S
C621 O613 1.284 . S
C621 O622 1.273 . S
O622 C621 1.273 . S
O623 Zn614 1.977 . S
O623 C616 1.267 . S
C268 C8 1.450 . S
C23 C229 1.123 . S
C34 C244 1.200 . S
C257 C49 1.052 . S
C309 C62 1.038 . S
C73 C283 1.231 . S
C88 C296 1.030 . S
C99 C216 1.417 . S
C112 C203 1.379 . S
C127 C166 1.111 . S
C138 C177 1.320 . S
C192 C153 1.078 . S
C322 C582 1.190 . S
C543 C333 1.219 . S
C348 C554 1.272 . S
C567 C359 1.186 . S
C372 C621 1.213 . S
C593 C387 1.295 . S
C398 C606 1.204 . S
C530 C413 1.186 . S
C426 C517 1.162 . S
C476 C437 1.273 . S
C491 C452 1.134 . S
C502 C463 1.213 . S
C346 C10 1.116 . S
C21 C361 1.141 1_556 S
C36 C320 1.137 . S
C47 C335 1.161 1_556 S
C60 C400 1.236 . S
C411 C75 1.121 1_556 S
C374 C86 1.147 . S
C385 C101 1.113 1_556 S
C478 C114 1.078 . S
C125 C489 1.195 1_565 S
C504 C140 1.084 . S
C151 C515 1.207 1_545 S
C164 C424 1.206 . S
C179 C439 1.084 1_565 S
C450 C190 1.206 . S
C465 C205 1.081 1_565 S
C218 C569 1.071 . S
C231 C595 1.107 . S
C608 C242 1.184 1_455 S
C528 C255 1.192 . S
C270 C619 1.102 1_455 S
C541 C281 1.205 . S
C294 C556 1.145 . S
C307 C580 1.238 . S
C364 C5 1.574 1_655 S
C382 C13 1.628 . S
C390 C31 1.595 1_455 S
C39 C408 1.629 . S
C317 C52 1.613 1_655 S
C325 C70 1.600 . S
C78 C343 1.652 1_655 S
C351 C96 1.565 . S
C109 C494 1.561 1_545 S
C117 C512 1.595 . S
C468 C135 1.528 1_545 S
C143 C486 1.615 . S
C447 C156 1.585 1_545 S
C174 C455 1.538 . S
C182 C421 1.637 1_545 S
C200 C429 1.524 . S
C585 C213 1.513 1_556 S
C226 C559 1.619 1_556 S
C234 C577 1.590 . S
C247 C538 1.650 1_556 S
C546 C265 1.510 . S
C525 C273 1.557 1_556 S
C616 C286 1.623 . S
C299 C598 1.702 . S
C195 C0 2.642 . S
C18 C161 2.655 . S
C169 C26 2.689 . S
C187 C44 2.787 . S
C122 C57 2.704 . S
C65 C130 2.787 . S
C83 C148 2.766 . S
C104 C91 2.580 . S
C208 C260 2.652 . S
C304 C221 2.845 . S
C278 C239 2.549 . S
C252 C291 2.744 . S
C507 C312 2.388 . S
C473 C330 2.356 . S
C338 C481 2.472 . S
C499 C356 2.442 . S
C434 C369 2.366 . S
C377 C442 2.480 . S
C395 C460 2.446 . S
C403 C416 2.378 . S
C520 C572 2.392 . S
C611 C533 2.581 . S
C590 C551 2.214 . S
C603 C564 2.495 . S
