# Generated by pormake.
# Topology wkh, (6)-cn, num edge types: 1
# Building blocks:
#     Node 0, Type 0, BuildingBlock: VOLQOD_clean_sbu_1, # of connection points: 6
#     Node 1, Type 0, BuildingBlock: VOLQOD_clean_sbu_1, # of connection points: 6
#     Node 2, Type 0, BuildingBlock: VOLQOD_clean_sbu_1, # of connection points: 6
#     Node 3, Type 0, BuildingBlock: VOLQOD_clean_sbu_1, # of connection points: 6
#     Node 4, Type 0, BuildingBlock: VOLQOD_clean_sbu_1, # of connection points: 6
#     Node 5, Type 0, BuildingBlock: VOLQOD_clean_sbu_1, # of connection points: 6
#     Node 6, Type 0, BuildingBlock: VOLQOD_clean_sbu_1, # of connection points: 6
#     Node 7, Type 0, BuildingBlock: VOLQOD_clean_sbu_1, # of connection points: 6
#     Node 8, Type 0, BuildingBlock: VOLQOD_clean_sbu_1, # of connection points: 6
#     Node 9, Type 0, BuildingBlock: VOLQOD_clean_sbu_1, # of connection points: 6
#     Node 10, Type 0, BuildingBlock: VOLQOD_clean_sbu_1, # of connection points: 6
#     Node 11, Type 0, BuildingBlock: VOLQOD_clean_sbu_1, # of connection points: 6
#     Edge 12, Type (0, 0), BuildingBlock: EYOCIG_clean_linker_4, # of connection points: 2
#     Edge 13, Type (0, 0), BuildingBlock: EYOCIG_clean_linker_4, # of connection points: 2
#     Edge 14, Type (0, 0), BuildingBlock: EYOCIG_clean_linker_4, # of connection points: 2
#     Edge 15, Type (0, 0), BuildingBlock: EYOCIG_clean_linker_4, # of connection points: 2
#     Edge 16, Type (0, 0), BuildingBlock: EYOCIG_clean_linker_4, # of connection points: 2
#     Edge 17, Type (0, 0), BuildingBlock: EYOCIG_clean_linker_4, # of connection points: 2
#     Edge 18, Type (0, 0), BuildingBlock: EYOCIG_clean_linker_4, # of connection points: 2
#     Edge 19, Type (0, 0), BuildingBlock: EYOCIG_clean_linker_4, # of connection points: 2
#     Edge 20, Type (0, 0), BuildingBlock: EYOCIG_clean_linker_4, # of connection points: 2
#     Edge 21, Type (0, 0), BuildingBlock: EYOCIG_clean_linker_4, # of connection points: 2
#     Edge 22, Type (0, 0), BuildingBlock: EYOCIG_clean_linker_4, # of connection points: 2
#     Edge 23, Type (0, 0), BuildingBlock: EYOCIG_clean_linker_4, # of connection points: 2
#     Edge 24, Type (0, 0), BuildingBlock: EYOCIG_clean_linker_4, # of connection points: 2
#     Edge 25, Type (0, 0), BuildingBlock: EYOCIG_clean_linker_4, # of connection points: 2
#     Edge 26, Type (0, 0), BuildingBlock: EYOCIG_clean_linker_4, # of connection points: 2
#     Edge 27, Type (0, 0), BuildingBlock: EYOCIG_clean_linker_4, # of connection points: 2
#     Edge 28, Type (0, 0), BuildingBlock: EYOCIG_clean_linker_4, # of connection points: 2
#     Edge 29, Type (0, 0), BuildingBlock: EYOCIG_clean_linker_4, # of connection points: 2
#     Edge 30, Type (0, 0), BuildingBlock: EYOCIG_clean_linker_4, # of connection points: 2
#     Edge 31, Type (0, 0), BuildingBlock: EYOCIG_clean_linker_4, # of connection points: 2
#     Edge 32, Type (0, 0), BuildingBlock: EYOCIG_clean_linker_4, # of connection points: 2
#     Edge 33, Type (0, 0), BuildingBlock: EYOCIG_clean_linker_4, # of connection points: 2
#     Edge 34, Type (0, 0), BuildingBlock: EYOCIG_clean_linker_4, # of connection points: 2
#     Edge 35, Type (0, 0), BuildingBlock: EYOCIG_clean_linker_4, # of connection points: 2
#     Edge 36, Type (0, 0), BuildingBlock: EYOCIG_clean_linker_4, # of connection points: 2
#     Edge 37, Type (0, 0), BuildingBlock: EYOCIG_clean_linker_4, # of connection points: 2
#     Edge 38, Type (0, 0), BuildingBlock: EYOCIG_clean_linker_4, # of connection points: 2
#     Edge 39, Type (0, 0), BuildingBlock: EYOCIG_clean_linker_4, # of connection points: 2
#     Edge 40, Type (0, 0), BuildingBlock: EYOCIG_clean_linker_4, # of connection points: 2
#     Edge 41, Type (0, 0), BuildingBlock: EYOCIG_clean_linker_4, # of connection points: 2
#     Edge 42, Type (0, 0), BuildingBlock: EYOCIG_clean_linker_4, # of connection points: 2
#     Edge 43, Type (0, 0), BuildingBlock: EYOCIG_clean_linker_4, # of connection points: 2
#     Edge 44, Type (0, 0), BuildingBlock: EYOCIG_clean_linker_4, # of connection points: 2
#     Edge 45, Type (0, 0), BuildingBlock: EYOCIG_clean_linker_4, # of connection points: 2
#     Edge 46, Type (0, 0), BuildingBlock: EYOCIG_clean_linker_4, # of connection points: 2
#     Edge 47, Type (0, 0), BuildingBlock: EYOCIG_clean_linker_4, # of connection points: 2
# Relax obj value: 0.361
# Max RMSD: 0.263
# Mean RMSD: 0.263
data_MOF--net-wkh--node1-VOLQOD_clean_sbu_1--edge1-EYOCIG_clean_linker_4
_symmetry_space_group_name_H-M    P1
_symmetry_Int_Tables_number       1
_symmetry_cell_setting            triclinic
loop_
_symmetry_equiv_pos_as_xyz
'x, y, z'
_cell_length_a     22.583337
_cell_length_b     22.580371
_cell_length_c     73.462144
_cell_angle_alpha  90.024887
_cell_angle_beta   89.973767
_cell_angle_gamma 120.01168
loop_
_atom_site_label
_atom_site_type_symbol
_atom_site_fract_x
_atom_site_fract_y
_atom_site_fract_z
_atom_type_partial_charge
O0 O 0.11662 0.30711 0.0285 0.0
Zn1 Zn 0.128 0.29486 0.0019 0.0
O2 O 0.21991 0.31507 -0.00342 0.0
Zn3 Zn 0.22091 0.23171 -0.00939 0.0
Zn4 Zn 0.27263 0.35557 0.01854 0.0
Zn5 Zn 0.25925 0.37819 0.97626 0.0
O6 O 0.26937 0.24014 0.96685 0.0
O7 O 0.26753 0.32861 0.95401 0.0
O8 O 0.05861 0.19917 -0.00507 0.0
O9 O 0.12462 0.156 0.98709 0.0
O10 O 0.25997 0.20243 0.01111 0.0
O11 O 0.28513 0.28537 0.03123 0.0
O12 O 0.36843 0.42785 0.01195 0.0
O13 O 0.10736 0.35747 0.98782 0.0
O14 O 0.35967 0.4445 0.98238 0.0
O15 O 0.19863 0.4209 0.97035 0.0
C16 C 0.15835 0.34631 0.04052 0.0
C17 C 0.27805 0.27816 0.95315 0.0
C18 C 0.2807 0.22914 0.02674 0.0
C19 C 0.06614 0.15025 -0.01074 0.0
C20 C 0.39536 0.45551 -0.00321 0.0
C21 C 0.1386 0.40422 0.97606 0.0
O22 O 0.22271 0.3798 0.03766 0.0
O23 O 0.80402 0.12023 0.19525 0.0
Zn24 Zn 0.82754 0.13151 0.16863 0.0
O25 O 0.89905 0.22349 0.16328 0.0
Zn26 Zn 0.98343 0.22469 0.15722 0.0
Zn27 Zn 0.91147 0.27629 0.18523 0.0
Zn28 Zn 0.87492 0.2626 0.14298 0.0
O29 O 0.02324 0.2733 0.13348 0.0
O30 O 0.9327 0.27116 0.1207 0.0
O31 O 0.85401 0.06228 0.16165 0.0
O32 O 0.963 0.12847 0.15365 0.0
O33 O 0.05197 0.26385 0.17767 0.0
O34 O -0.00559 0.28903 0.19785 0.0
O35 O 0.9347 0.37198 0.17864 0.0
O36 O 0.74413 0.11051 0.15458 0.0
O37 O 0.90867 0.36294 0.1491 0.0
O38 O 0.77162 0.20165 0.1371 0.0
C39 C 0.80664 0.162 0.20727 0.0
C40 C -0.00626 0.28191 0.11981 0.0
C41 C 0.04619 0.28466 0.1933 0.0
C42 C 0.91039 0.06993 0.15589 0.0
C43 C 0.93355 0.39875 0.16349 0.0
C44 C 0.72843 0.14158 0.14282 0.0
O45 O 0.83754 0.22636 0.2044 0.0
O46 O 0.67779 0.80737 0.36183 0.0
Zn47 Zn 0.68974 0.83083 0.33522 0.0
O48 O 0.66925 0.90233 0.32992 0.0
Zn49 Zn 0.75245 0.9868 0.32393 0.0
Zn50 Zn 0.62874 0.91447 0.35189 0.0
Zn51 Zn 0.60608 0.87832 0.30961 0.0
O52 O 0.7437 0.0268 0.30023 0.0
O53 O 0.65552 0.93622 0.28736 0.0
O54 O 0.78535 0.85728 0.32813 0.0
O55 O 0.82823 0.96641 0.32028 0.0
O56 O 0.78179 0.05511 0.34445 0.0
O57 O 0.69885 -0.00266 0.36457 0.0
O58 O 0.55624 0.93767 0.34533 0.0
O59 O 0.62712 0.7474 0.32119 0.0
O60 O 0.53961 0.91218 0.31576 0.0
O61 O 0.56356 0.77497 0.30371 0.0
C62 C 0.63855 0.80975 0.37386 0.0
C63 C 0.70575 -0.00267 0.28652 0.0
C64 C 0.75507 0.04917 0.36007 0.0
C65 C 0.8341 0.91373 0.32241 0.0
C66 C 0.52852 0.93682 0.33017 0.0
C67 C 0.58033 0.73172 0.30944 0.0
O68 O 0.60485 0.8404 0.37101 0.0
O69 O 0.86466 0.68147 0.52849 0.0
Zn70 Zn 0.85317 0.69333 0.50186 0.0
O71 O 0.76118 0.6728 0.49653 0.0
Zn72 Zn 0.75993 0.75597 0.49051 0.0
Zn73 Zn 0.70848 0.63232 0.51849 0.0
Zn74 Zn 0.72207 0.6096 0.47621 0.0
O75 O 0.71122 0.74714 0.46679 0.0
O76 O 0.71364 0.65894 0.45395 0.0
O77 O 0.92234 0.78893 0.49477 0.0
O78 O 0.85611 0.83176 0.48688 0.0
O79 O 0.72083 0.78531 0.511 0.0
O80 O 0.69557 0.70241 0.53112 0.0
O81 O 0.61279 0.5597 0.51191 0.0
O82 O 0.87399 0.6307 0.48784 0.0
O83 O 0.62172 0.5431 0.48234 0.0
O84 O 0.78291 0.56711 0.47034 0.0
C85 C 0.82299 0.64229 0.54052 0.0
C86 C 0.70276 0.70916 0.45309 0.0
C87 C 0.69995 0.75859 0.52661 0.0
C88 C 0.91466 0.83765 0.48903 0.0
C89 C 0.58596 0.53198 0.49674 0.0
C90 C 0.84291 0.58391 0.47609 0.0
O91 O 0.75863 0.6086 0.53766 0.0
O92 O 0.17772 0.86754 0.69516 0.0
Zn93 Zn 0.15408 0.85609 0.66855 0.0
O94 O 0.08263 0.76407 0.66323 0.0
Zn95 Zn -0.00193 0.76264 0.6573 0.0
Zn96 Zn 0.07072 0.71141 0.68517 0.0
Zn97 Zn 0.10656 0.72503 0.64286 0.0
O98 O 0.95801 0.71405 0.63356 0.0
O99 O 0.04863 0.71674 0.62064 0.0
O100 O 0.12748 0.92518 0.66156 0.0
O101 O 0.01833 0.8588 0.65375 0.0
O102 O 0.9299 0.72351 0.67786 0.0
O103 O 0.98799 0.69864 0.69792 0.0
O104 O 0.04746 0.61572 0.67854 0.0
O105 O 0.23744 0.87704 0.65447 0.0
O106 O 0.07271 0.62465 0.64895 0.0
O107 O 0.20988 0.78594 0.63696 0.0
C108 C 0.17553 0.82588 0.70714 0.0
C109 C 0.98751 0.7058 0.61982 0.0
C110 C 0.93606 0.70287 0.69347 0.0
C111 C 0.07096 0.91739 0.65589 0.0
C112 C 0.04819 0.58889 0.66336 0.0
C113 C 0.2531 0.84598 0.6427 0.0
O114 O 0.14496 0.76153 0.70425 0.0
O115 O 0.30349 0.18051 0.86177 0.0
Zn116 Zn 0.29187 0.15727 0.83514 0.0
O117 O 0.31213 0.08559 0.82982 0.0
Zn118 Zn 0.22883 0.00134 0.82373 0.0
Zn119 Zn 0.35214 0.07307 0.85182 0.0
Zn120 Zn 0.37559 0.10958 0.80957 0.0
O121 O 0.23781 0.96134 0.80004 0.0
O122 O 0.32646 0.05176 0.78727 0.0
O123 O 0.19645 0.1312 0.82798 0.0
O124 O 0.15339 0.02214 0.82002 0.0
O125 O 0.19884 0.93288 0.84423 0.0
O126 O 0.28161 0.99022 0.86441 0.0
O127 O 0.42459 0.04968 0.84531 0.0
O128 O 0.35482 0.24071 0.82116 0.0
O129 O 0.44194 0.07566 0.81578 0.0
O130 O 0.4183 0.21296 0.80369 0.0
C131 C 0.34241 0.1778 0.87384 0.0
C132 C 0.27609 0.99075 0.78638 0.0
C133 C 0.22531 0.9386 0.85987 0.0
C134 C 0.14769 0.07491 0.82219 0.0
C135 C 0.45266 0.05077 0.83019 0.0
C136 C 0.40165 0.2563 0.80943 0.0
O137 O 0.37595 0.14696 0.871 0.0
O138 O 0.67804 0.86778 0.76163 0.0
Zn139 Zn 0.69032 0.85657 0.78825 0.0
O140 O 0.67011 0.76467 0.7936 0.0
Zn141 Zn 0.75343 0.76373 0.79965 0.0
Zn142 Zn 0.62983 0.7118 0.77165 0.0
Zn143 Zn 0.60682 0.72542 0.81391 0.0
O144 O 0.7448 0.7154 0.82343 0.0
O145 O 0.6561 0.71708 0.83619 0.0
O146 O 0.786 0.926 0.79519 0.0
O147 O 0.82912 0.86007 0.80314 0.0
O148 O 0.78286 0.72445 0.77922 0.0
O149 O 0.70012 0.69913 0.75905 0.0
O150 O 0.55747 0.61605 0.77825 0.0
O151 O 0.62777 0.87737 0.80233 0.0
O152 O 0.54045 0.62501 0.80779 0.0
O153 O 0.56422 0.78615 0.81979 0.0
C154 C 0.63904 0.82594 0.74961 0.0
C155 C 0.70657 0.70662 0.83709 0.0
C156 C 0.75628 0.70356 0.76359 0.0
C157 C 0.83488 0.91854 0.8009 0.0
C158 C 0.52959 0.58923 0.7934 0.0
C159 C 0.58099 0.8462 0.81408 0.0
O160 O 0.60576 0.76157 0.75247 0.0
O161 O 0.80386 0.6812 0.92844 0.0
Zn162 Zn 0.82721 0.69298 0.95507 0.0
O163 O 0.89884 0.67268 0.96033 0.0
Zn164 Zn 0.98322 0.75599 0.96631 0.0
Zn165 Zn 0.91097 0.63223 0.93835 0.0
Zn166 Zn 0.87503 0.6095 0.98063 0.0
O167 O 0.02344 0.74726 -0.01002 0.0
O168 O 0.93296 0.65903 0.00286 0.0
O169 O 0.85342 0.78849 0.9622 0.0
O170 O 0.9626 0.83159 0.97001 0.0
O171 O 0.05135 0.78557 0.94572 0.0
O172 O -0.0064 0.7025 0.92564 0.0
O173 O 0.93448 0.55991 0.94489 0.0
O174 O 0.74384 0.63012 0.96908 0.0
O175 O 0.90908 0.54319 0.97446 0.0
O176 O 0.77167 0.56675 0.98655 0.0
C177 C 0.80623 0.64195 0.91641 0.0
C178 C -0.00595 0.7093 0.00369 0.0
C179 C 0.04533 0.75884 0.9301 0.0
C180 C 0.90983 0.83731 0.96792 0.0
C181 C 0.93373 0.5322 0.96004 0.0
C182 C 0.7283 0.58336 0.98083 0.0
O183 O 0.8368 0.60818 0.91927 0.0
O184 O 0.11701 0.80738 0.09496 0.0
Zn185 Zn 0.1284 0.83077 0.12158 0.0
O186 O 0.22038 0.90227 0.12692 0.0
Zn187 Zn 0.22161 0.98668 0.13297 0.0
Zn188 Zn 0.27309 0.91462 0.10496 0.0
Zn189 Zn 0.25952 0.87817 0.14722 0.0
O190 O 0.2705 0.02666 0.15667 0.0
O191 O 0.26812 0.93605 0.16948 0.0
O192 O 0.05921 0.85718 0.12866 0.0
O193 O 0.12543 0.96619 0.13665 0.0
O194 O 0.2604 0.05505 0.11246 0.0
O195 O 0.2857 -0.00253 0.09232 0.0
O196 O 0.3688 0.93788 0.11154 0.0
O197 O 0.1075 0.74731 0.13561 0.0
O198 O 0.35981 0.91188 0.14107 0.0
O199 O 0.19857 0.77485 0.15311 0.0
C200 C 0.15873 0.80988 0.08294 0.0
C201 C 0.27904 -0.00284 0.17035 0.0
C202 C 0.28118 0.0492 0.09683 0.0
C203 C 0.06689 0.91354 0.13445 0.0
C204 C 0.39559 0.93673 0.12668 0.0
C205 C 0.13855 0.73163 0.14737 0.0
O206 O 0.22308 0.8406 0.08582 0.0
O207 O 0.30382 0.12011 0.26161 0.0
Zn208 Zn 0.29152 0.13147 0.28822 0.0
O209 O 0.31197 0.22347 0.29353 0.0
Zn210 Zn 0.22874 0.22472 0.29947 0.0
Zn211 Zn 0.3527 0.27621 0.2716 0.0
Zn212 Zn 0.37495 0.26262 0.31388 0.0
O213 O 0.2373 0.27345 0.32318 0.0
O214 O 0.32533 0.27101 0.3361 0.0
O215 O 0.19578 0.06226 0.29521 0.0
O216 O 0.15291 0.12853 0.30305 0.0
O217 O 0.19963 0.26376 0.27893 0.0
O218 O 0.2827 0.28892 0.25886 0.0
O219 O 0.42505 0.37195 0.27822 0.0
O220 O 0.35395 0.11062 0.30231 0.0
O221 O 0.44147 0.36301 0.30779 0.0
O222 O 0.41739 0.20177 0.31981 0.0
C223 C 0.34322 0.16181 0.24962 0.0
C224 C 0.27512 0.2819 0.33691 0.0
C225 C 0.22647 0.28454 0.26332 0.0
C226 C 0.14699 0.06997 0.30089 0.0
C227 C 0.45264 0.39879 0.29339 0.0
C228 C 0.40063 0.14173 0.31408 0.0
O229 O 0.37689 0.22616 0.2525 0.0
O230 O 0.17733 0.30706 0.42819 0.0
Zn231 Zn 0.15398 0.29493 0.45481 0.0
O232 O 0.08246 0.31534 0.4602 0.0
Zn233 Zn -0.00193 0.23209 0.46623 0.0
Zn234 Zn 0.07006 0.35575 0.43826 0.0
Zn235 Zn 0.10658 0.37854 0.48052 0.0
O236 O 0.95828 0.24076 0.48999 0.0
O237 O 0.04883 0.32916 0.50279 0.0
O238 O 0.12757 0.19926 0.4618 0.0
O239 O 0.01854 0.15634 0.46976 0.0
O240 O 0.92953 0.20271 0.44577 0.0
O241 O 0.98712 0.28556 0.42563 0.0
O242 O 0.04685 0.4282 0.44489 0.0
O243 O 0.23743 0.35745 0.46885 0.0
O244 O 0.07274 0.44507 0.47443 0.0
O245 O 0.20992 0.42099 0.48638 0.0
C246 C 0.17473 0.34623 0.41618 0.0
C247 C 0.9878 0.27882 0.50368 0.0
C248 C 0.93534 0.22937 0.43015 0.0
C249 C 0.07118 0.15047 0.46754 0.0
C250 C 0.04792 0.45604 0.46005 0.0
C251 C 0.25313 0.40419 0.48062 0.0
O252 O 0.14395 0.37978 0.41908 0.0
O253 O 0.86478 0.18026 0.59498 0.0
Zn254 Zn 0.85318 0.15675 0.62159 0.0
O255 O 0.76114 0.08534 0.6269 0.0
Zn256 Zn 0.75967 0.00078 0.63288 0.0
Zn257 Zn 0.70856 0.07336 0.60495 0.0
Zn258 Zn 0.72205 0.10938 0.64723 0.0
O259 O 0.71095 0.96083 0.6566 0.0
O260 O 0.7136 0.0515 0.66948 0.0
O261 O 0.9222 0.13016 0.62866 0.0
O262 O 0.85579 0.02101 0.63649 0.0
O263 O 0.72052 0.93248 0.61235 0.0
O264 O 0.69562 0.99045 0.59226 0.0
O265 O 0.61289 0.05029 0.61153 0.0
O266 O 0.87409 0.24019 0.63563 0.0
O267 O 0.62172 0.07558 0.64112 0.0
O268 O 0.78297 0.21272 0.65312 0.0
C269 C 0.82318 0.17799 0.58297 0.0
C270 C 0.70262 0.99036 0.67032 0.0
C271 C 0.69981 0.93852 0.59674 0.0
C272 C 0.91439 0.07364 0.63436 0.0
C273 C 0.58602 0.05108 0.6267 0.0
C274 C 0.84301 0.25592 0.64739 0.0
O275 O 0.75883 0.14744 0.58584 0.0
C276 C 0.60004 0.53113 -0.00865 0.0
C277 C 0.65929 0.55061 0.98772 0.0
C278 C 0.5298 0.50992 -0.00618 0.0
C279 C 0.46845 0.48522 -0.005 0.0
C280 C 0.06225 0.60344 0.15793 0.0
C281 C 0.10208 0.66265 0.15427 0.0
C282 C 0.01329 0.53321 0.16044 0.0
C283 C 0.97676 0.47184 0.16165 0.0
C284 C 0.45256 0.06553 0.32467 0.0
C285 C 0.43316 0.10533 0.321 0.0
C286 C 0.47384 0.01659 0.32718 0.0
C287 C 0.49867 0.98006 0.32838 0.0
C288 C 0.3813 0.45607 0.49119 0.0
C289 C 0.32211 0.43669 0.48752 0.0
C290 C 0.45151 0.47731 0.49371 0.0
C291 C 0.51287 0.50214 0.49493 0.0
C292 C 0.91933 0.38418 0.65789 0.0
C293 C 0.87947 0.32494 0.65426 0.0
C294 C 0.96835 0.45442 0.66036 0.0
C295 C 0.00492 0.51579 0.66155 0.0
C296 C 0.52887 0.92226 0.82468 0.0
C297 C 0.54836 0.88254 0.821 0.0
C298 C 0.50748 0.97112 0.82721 0.0
C299 C 0.48258 0.00759 0.8284 0.0
C300 C 0.47509 0.45478 0.79642 0.0
C301 C 0.49983 0.51615 0.79523 0.0
C302 C 0.45386 0.38455 0.79891 0.0
C303 C 0.43438 0.32531 0.80254 0.0
C304 C 0.01365 0.47767 0.96299 0.0
C305 C 0.97706 0.50243 0.96181 0.0
C306 C 0.06259 0.45638 0.96549 0.0
C307 C 0.10233 0.4369 0.96915 0.0
C308 C 0.53005 0.01637 0.12972 0.0
C309 C 0.46868 0.97989 0.1285 0.0
C310 C 0.60027 0.06529 0.13225 0.0
C311 C 0.65946 0.10509 0.13592 0.0
C312 C 0.50713 0.53324 0.29641 0.0
C313 C 0.48239 0.47188 0.29521 0.0
C314 C 0.52833 0.60347 0.29891 0.0
C315 C 0.54773 0.6627 0.30255 0.0
C316 C 0.96814 0.51069 0.46308 0.0
C317 C 0.0047 0.48589 0.46189 0.0
C318 C 0.91916 0.53192 0.46557 0.0
C319 C 0.87934 0.55133 0.4692 0.0
C320 C 0.45155 0.9713 0.62967 0.0
C321 C 0.51292 0.00784 0.62849 0.0
C322 C 0.38131 0.9223 0.63215 0.0
C323 C 0.32209 0.88245 0.6358 0.0
C324 C 0.31793 0.24793 0.92232 0.0
C325 C 0.29973 0.26287 0.93621 0.0
C326 C 0.33449 0.22622 0.90595 0.0
C327 C 0.34112 0.20319 0.89173 0.0
C328 C 0.06379 0.32214 0.08898 0.0
C329 C 0.03064 0.30378 0.10286 0.0
C330 C 0.1021 0.33876 0.07262 0.0
C331 C 0.13178 0.34528 0.05841 0.0
C332 C 0.75781 0.10582 0.23936 0.0
C333 C 0.78103 0.13546 0.22515 0.0
C334 C 0.73595 0.06749 0.25571 0.0
C335 C 0.72099 0.03429 0.26958 0.0
C336 C 0.64616 0.761 0.40593 0.0
C337 C 0.63962 0.78417 0.39174 0.0
C338 C 0.66272 0.7392 0.42228 0.0
C339 C 0.681 0.7243 0.43615 0.0
C340 C 0.87923 0.64983 0.57261 0.0
C341 C 0.84961 0.64336 0.5584 0.0
C342 C 0.91746 0.6662 0.58898 0.0
C343 C 0.95058 0.68428 0.60287 0.0
C344 C 0.24623 0.92059 0.75556 0.0
C345 C 0.26107 0.95381 0.76944 0.0
C346 C 0.22444 0.88221 0.73921 0.0
C347 C 0.2012 0.85248 0.72502 0.0
C348 C 0.73635 0.66653 0.86794 0.0
C349 C 0.7216 0.68482 0.85404 0.0
C350 C 0.75788 0.64985 0.88431 0.0
C351 C 0.78086 0.6432 0.89852 0.0
C352 C 0.06428 0.73946 0.03448 0.0
C353 C 0.03108 0.72455 0.02061 0.0
C354 C 0.10256 0.76122 0.05084 0.0
C355 C 0.13219 0.78436 0.06505 0.0
C356 C 0.31927 0.06728 0.20117 0.0
C357 C 0.30091 0.0341 0.18729 0.0
C358 C 0.33584 0.10559 0.21753 0.0
C359 C 0.3423 0.13526 0.23174 0.0
C360 C 0.24494 0.32204 0.3677 0.0
C361 C 0.25985 0.30371 0.35383 0.0
C362 C 0.22323 0.33864 0.38406 0.0
C363 C 0.20016 0.34518 0.39828 0.0
C364 C 0.91784 0.24867 0.53453 0.0
C365 C 0.95096 0.26362 0.52064 0.0
C366 C 0.87956 0.22683 0.5509 0.0
C367 C 0.84986 0.20363 0.5651 0.0
C368 C 0.64636 0.88203 0.71751 0.0
C369 C 0.63998 0.85244 0.73172 0.0
C370 C 0.66276 0.92029 0.70115 0.0
C371 C 0.68096 0.95344 0.68726 0.0
C372 C 0.30193 0.13315 0.06986 0.0
C373 C 0.29183 0.09747 0.08292 0.0
C374 C 0.30182 0.16626 0.05372 0.0
C375 C 0.29156 0.19171 0.04066 0.0
C376 C 0.13047 0.3058 0.22021 0.0
C377 C 0.09462 0.29553 0.20718 0.0
C378 C 0.16372 0.30576 0.23632 0.0
C379 C 0.18916 0.29545 0.24938 0.0
C380 C 0.81796 0.13319 0.38707 0.0
C381 C 0.79251 0.09747 0.374 0.0
C382 C 0.85115 0.16637 0.40321 0.0
C383 C 0.88693 0.19185 0.41626 0.0
C384 C 0.67856 0.82141 0.55358 0.0
C385 C 0.68894 0.79601 0.54052 0.0
C386 C 0.67851 0.85451 0.56973 0.0
C387 C 0.68884 0.89021 0.58281 0.0
C388 C 0.85233 0.68192 0.72053 0.0
C389 C 0.88792 0.69209 0.70744 0.0
C390 C 0.81925 0.68211 0.73668 0.0
C391 C 0.7938 0.69253 0.74972 0.0
C392 C 0.12891 0.82177 0.90302 0.0
C393 C 0.09342 0.79634 0.91614 0.0
C394 C 0.16194 0.85475 0.88685 0.0
C395 C 0.18753 0.89033 0.87377 0.0
C396 C 0.96613 0.02823 0.98121 0.0
C397 C 0.00735 0.08587 0.98528 0.0
C398 C 0.93163 0.9591 0.97619 0.0
C399 C 0.91535 0.90158 0.97202 0.0
C400 C 0.967 0.93548 0.14271 0.0
C401 C 0.0082 0.91916 0.13854 0.0
C402 C 0.93244 0.97001 0.14776 0.0
C403 C 0.91606 0.01121 0.15188 0.0
C404 C 0.02501 0.97016 0.30907 0.0
C405 C 0.08261 0.01129 0.30494 0.0
C406 C 0.95593 0.9357 0.31414 0.0
C407 C 0.89841 0.91938 0.31831 0.0
C408 C 0.04915 0.02855 0.47569 0.0
C409 C 0.06555 0.08612 0.47156 0.0
C410 C 0.01456 0.95947 0.48076 0.0
C411 C 0.97334 0.90196 0.48493 0.0
C412 C 0.04874 0.01712 0.64769 0.0
C413 C 0.0652 0.97601 0.65183 0.0
C414 C 0.01415 0.05157 0.64262 0.0
C415 C 0.97299 0.06792 0.63846 0.0
C416 C 0.02598 0.05323 0.81393 0.0
C417 C 0.08348 0.06947 0.8181 0.0
C418 C 0.95686 0.01867 0.80891 0.0
C419 C 0.89925 0.97738 0.80485 0.0
loop_
_geom_bond_atom_site_label_1
_geom_bond_atom_site_label_2
_geom_bond_distance
_geom_bond_site_symmetry_2
_ccdc_geom_bond_type
O0 Zn1 1.953 . S
O0 C16 1.225 . S
Zn1 O0 1.953 . S
Zn1 O2 1.949 . S
Zn1 O8 1.919 . S
Zn1 O13 1.940 . S
O2 Zn1 1.949 . S
O2 Zn3 1.923 . S
O2 Zn4 1.950 . S
O2 Zn5 1.945 1_554 S
Zn3 O2 1.923 . S
Zn3 O6 1.933 1_554 S
Zn3 O9 1.941 . S
Zn3 O10 1.965 . S
Zn4 O2 1.950 . S
Zn4 O11 1.938 . S
Zn4 O12 1.906 . S
Zn4 O22 1.953 . S
Zn5 O2 1.945 1_556 S
Zn5 O7 1.932 . S
Zn5 O14 1.977 . S
Zn5 O15 1.910 . S
O6 Zn3 1.933 1_556 S
O6 C17 1.226 . S
O7 Zn5 1.932 . S
O7 C17 1.307 . S
O8 Zn1 1.919 . S
O8 C19 1.251 . S
O9 Zn3 1.941 . S
O9 C19 1.283 . S
O10 Zn3 1.965 . S
O10 C18 1.303 . S
O11 Zn4 1.938 . S
O11 C18 1.247 . S
O12 Zn4 1.906 . S
O12 C20 1.304 . S
O13 Zn1 1.940 . S
O13 C21 1.293 1_554 S
O14 Zn5 1.977 . S
O14 C20 1.272 1_556 S
O15 Zn5 1.910 . S
O15 C21 1.231 . S
C16 O0 1.225 . S
C16 O22 1.298 . S
C17 O6 1.226 . S
C17 O7 1.307 . S
C18 O10 1.303 . S
C18 O11 1.247 . S
C19 O8 1.251 . S
C19 O9 1.283 . S
C20 O12 1.304 . S
C20 O14 1.272 1_554 S
C21 O13 1.293 1_556 S
C21 O15 1.231 . S
O22 Zn4 1.953 . S
O22 C16 1.298 . S
O23 Zn24 1.953 . S
O23 C39 1.225 . S
Zn24 O23 1.953 . S
Zn24 O25 1.949 . S
Zn24 O31 1.919 . S
Zn24 O36 1.924 . S
O25 Zn24 1.949 . S
O25 Zn26 1.923 1_655 S
O25 Zn27 1.950 . S
O25 Zn28 1.945 . S
Zn26 O25 1.923 1_455 S
Zn26 O29 1.933 . S
Zn26 O32 1.941 1_455 S
Zn26 O33 1.965 . S
Zn27 O25 1.950 . S
Zn27 O34 1.938 1_655 S
Zn27 O35 1.906 . S
Zn27 O45 1.953 . S
Zn28 O25 1.945 . S
Zn28 O30 1.932 . S
Zn28 O37 1.977 . S
Zn28 O38 1.910 . S
O29 Zn26 1.933 . S
O29 C40 1.226 . S
O30 Zn28 1.932 . S
O30 C40 1.307 1_655 S
O31 Zn24 1.919 . S
O31 C42 1.253 . S
O32 Zn26 1.941 1_655 S
O32 C42 1.283 . S
O33 Zn26 1.965 . S
O33 C41 1.303 . S
O34 Zn27 1.938 1_455 S
O34 C41 1.247 . S
O35 Zn27 1.906 . S
O35 C43 1.304 . S
O36 Zn24 1.924 . S
O36 C44 1.311 . S
O37 Zn28 1.977 . S
O37 C43 1.272 . S
O38 Zn28 1.910 . S
O38 C44 1.231 . S
C39 O23 1.225 . S
C39 O45 1.298 . S
C40 O29 1.226 . S
C40 O30 1.307 1_455 S
C41 O33 1.303 . S
C41 O34 1.247 . S
C42 O31 1.253 . S
C42 O32 1.283 . S
C43 O35 1.304 . S
C43 O37 1.272 . S
C44 O36 1.311 . S
C44 O38 1.231 . S
O45 Zn27 1.953 . S
O45 C39 1.298 . S
O46 Zn47 1.953 . S
O46 C62 1.225 . S
Zn47 O46 1.953 . S
Zn47 O48 1.949 . S
Zn47 O54 1.919 . S
Zn47 O59 1.924 . S
O48 Zn47 1.949 . S
O48 Zn49 1.923 1_565 S
O48 Zn50 1.950 . S
O48 Zn51 1.945 . S
Zn49 O48 1.923 1_545 S
Zn49 O52 1.933 . S
Zn49 O55 1.941 1_545 S
Zn49 O56 1.965 . S
Zn50 O48 1.950 . S
Zn50 O57 1.938 1_565 S
Zn50 O58 1.906 . S
Zn50 O68 1.953 . S
Zn51 O48 1.945 . S
Zn51 O53 1.932 . S
Zn51 O60 1.977 . S
Zn51 O61 1.910 . S
O52 Zn49 1.933 . S
O52 C63 1.226 . S
O53 Zn51 1.932 . S
O53 C63 1.307 1_565 S
O54 Zn47 1.919 . S
O54 C65 1.253 . S
O55 Zn49 1.941 1_565 S
O55 C65 1.283 . S
O56 Zn49 1.965 . S
O56 C64 1.303 . S
O57 Zn50 1.938 1_545 S
O57 C64 1.247 . S
O58 Zn50 1.906 . S
O58 C66 1.304 . S
O59 Zn47 1.924 . S
O59 C67 1.311 . S
O60 Zn51 1.977 . S
O60 C66 1.272 . S
O61 Zn51 1.910 . S
O61 C67 1.231 . S
C62 O46 1.225 . S
C62 O68 1.298 . S
C63 O52 1.226 . S
C63 O53 1.307 1_545 S
C64 O56 1.303 . S
C64 O57 1.247 . S
C65 O54 1.253 . S
C65 O55 1.283 . S
C66 O58 1.304 . S
C66 O60 1.272 . S
C67 O59 1.311 . S
C67 O61 1.231 . S
O68 Zn50 1.953 . S
O68 C62 1.298 . S
O69 Zn70 1.953 . S
O69 C85 1.225 . S
Zn70 O69 1.953 . S
Zn70 O71 1.949 . S
Zn70 O77 1.919 . S
Zn70 O82 1.924 . S
O71 Zn70 1.949 . S
O71 Zn72 1.923 . S
O71 Zn73 1.950 . S
O71 Zn74 1.945 . S
Zn72 O71 1.923 . S
Zn72 O75 1.933 . S
Zn72 O78 1.941 . S
Zn72 O79 1.965 . S
Zn73 O71 1.950 . S
Zn73 O80 1.938 . S
Zn73 O81 1.906 . S
Zn73 O91 1.953 . S
Zn74 O71 1.945 . S
Zn74 O76 1.932 . S
Zn74 O83 1.977 . S
Zn74 O84 1.910 . S
O75 Zn72 1.933 . S
O75 C86 1.226 . S
O76 Zn74 1.932 . S
O76 C86 1.307 . S
O77 Zn70 1.919 . S
O77 C88 1.253 . S
O78 Zn72 1.941 . S
O78 C88 1.283 . S
O79 Zn72 1.965 . S
O79 C87 1.303 . S
O80 Zn73 1.938 . S
O80 C87 1.247 . S
O81 Zn73 1.906 . S
O81 C89 1.304 . S
O82 Zn70 1.924 . S
O82 C90 1.311 . S
O83 Zn74 1.977 . S
O83 C89 1.272 . S
O84 Zn74 1.910 . S
O84 C90 1.231 . S
C85 O69 1.225 . S
C85 O91 1.298 . S
C86 O75 1.226 . S
C86 O76 1.307 . S
C87 O79 1.303 . S
C87 O80 1.247 . S
C88 O77 1.253 . S
C88 O78 1.283 . S
C89 O81 1.304 . S
C89 O83 1.272 . S
C90 O82 1.311 . S
C90 O84 1.231 . S
O91 Zn73 1.953 . S
O91 C85 1.298 . S
O92 Zn93 1.953 . S
O92 C108 1.225 . S
Zn93 O92 1.953 . S
Zn93 O94 1.949 . S
Zn93 O100 1.919 . S
Zn93 O105 1.924 . S
O94 Zn93 1.949 . S
O94 Zn95 1.923 1_455 S
O94 Zn96 1.950 . S
O94 Zn97 1.945 . S
Zn95 O94 1.923 1_655 S
Zn95 O98 1.933 . S
Zn95 O101 1.941 1_655 S
Zn95 O102 1.965 . S
Zn96 O94 1.950 . S
Zn96 O103 1.938 1_455 S
Zn96 O104 1.906 . S
Zn96 O114 1.953 . S
Zn97 O94 1.945 . S
Zn97 O99 1.932 . S
Zn97 O106 1.977 . S
Zn97 O107 1.910 . S
O98 Zn95 1.933 . S
O98 C109 1.226 . S
O99 Zn97 1.932 . S
O99 C109 1.307 1_455 S
O100 Zn93 1.919 . S
O100 C111 1.253 . S
O101 Zn95 1.941 1_455 S
O101 C111 1.283 . S
O102 Zn95 1.965 . S
O102 C110 1.303 . S
O103 Zn96 1.938 1_655 S
O103 C110 1.247 . S
O104 Zn96 1.906 . S
O104 C112 1.304 . S
O105 Zn93 1.924 . S
O105 C113 1.311 . S
O106 Zn97 1.977 . S
O106 C112 1.272 . S
O107 Zn97 1.910 . S
O107 C113 1.231 . S
C108 O92 1.225 . S
C108 O114 1.298 . S
C109 O98 1.226 . S
C109 O99 1.307 1_655 S
C110 O102 1.303 . S
C110 O103 1.247 . S
C111 O100 1.253 . S
C111 O101 1.283 . S
C112 O104 1.304 . S
C112 O106 1.272 . S
C113 O105 1.311 . S
C113 O107 1.231 . S
O114 Zn96 1.953 . S
O114 C108 1.298 . S
O115 Zn116 1.953 . S
O115 C131 1.225 . S
Zn116 O115 1.953 . S
Zn116 O117 1.949 . S
Zn116 O123 1.919 . S
Zn116 O128 1.924 . S
O117 Zn116 1.949 . S
O117 Zn118 1.923 1_545 S
O117 Zn119 1.950 . S
O117 Zn120 1.945 . S
Zn118 O117 1.923 1_565 S
Zn118 O121 1.933 . S
Zn118 O124 1.941 1_565 S
Zn118 O125 1.965 . S
Zn119 O117 1.950 . S
Zn119 O126 1.938 1_545 S
Zn119 O127 1.906 . S
Zn119 O137 1.953 . S
Zn120 O117 1.945 . S
Zn120 O122 1.932 . S
Zn120 O129 1.977 . S
Zn120 O130 1.910 . S
O121 Zn118 1.933 . S
O121 C132 1.226 . S
O122 Zn120 1.932 . S
O122 C132 1.307 1_545 S
O123 Zn116 1.919 . S
O123 C134 1.253 . S
O124 Zn118 1.941 1_545 S
O124 C134 1.283 . S
O125 Zn118 1.965 . S
O125 C133 1.303 . S
O126 Zn119 1.938 1_565 S
O126 C133 1.247 . S
O127 Zn119 1.906 . S
O127 C135 1.304 . S
O128 Zn116 1.924 . S
O128 C136 1.311 . S
O129 Zn120 1.977 . S
O129 C135 1.272 . S
O130 Zn120 1.910 . S
O130 C136 1.231 . S
C131 O115 1.225 . S
C131 O137 1.298 . S
C132 O121 1.226 . S
C132 O122 1.307 1_565 S
C133 O125 1.303 . S
C133 O126 1.247 . S
C134 O123 1.253 . S
C134 O124 1.283 . S
C135 O127 1.304 . S
C135 O129 1.272 . S
C136 O128 1.311 . S
C136 O130 1.231 . S
O137 Zn119 1.953 . S
O137 C131 1.298 . S
O138 Zn139 1.953 . S
O138 C154 1.225 . S
Zn139 O138 1.953 . S
Zn139 O140 1.949 . S
Zn139 O146 1.919 . S
Zn139 O151 1.924 . S
O140 Zn139 1.949 . S
O140 Zn141 1.923 . S
O140 Zn142 1.950 . S
O140 Zn143 1.945 . S
Zn141 O140 1.923 . S
Zn141 O144 1.933 . S
Zn141 O147 1.941 . S
Zn141 O148 1.965 . S
Zn142 O140 1.950 . S
Zn142 O149 1.938 . S
Zn142 O150 1.906 . S
Zn142 O160 1.953 . S
Zn143 O140 1.945 . S
Zn143 O145 1.932 . S
Zn143 O152 1.977 . S
Zn143 O153 1.910 . S
O144 Zn141 1.933 . S
O144 C155 1.226 . S
O145 Zn143 1.932 . S
O145 C155 1.307 . S
O146 Zn139 1.919 . S
O146 C157 1.253 . S
O147 Zn141 1.941 . S
O147 C157 1.283 . S
O148 Zn141 1.965 . S
O148 C156 1.303 . S
O149 Zn142 1.938 . S
O149 C156 1.247 . S
O150 Zn142 1.906 . S
O150 C158 1.304 . S
O151 Zn139 1.924 . S
O151 C159 1.311 . S
O152 Zn143 1.977 . S
O152 C158 1.272 . S
O153 Zn143 1.910 . S
O153 C159 1.231 . S
C154 O138 1.225 . S
C154 O160 1.298 . S
C155 O144 1.226 . S
C155 O145 1.307 . S
C156 O148 1.303 . S
C156 O149 1.247 . S
C157 O146 1.253 . S
C157 O147 1.283 . S
C158 O150 1.304 . S
C158 O152 1.272 . S
C159 O151 1.311 . S
C159 O153 1.231 . S
O160 Zn142 1.953 . S
O160 C154 1.298 . S
O161 Zn162 1.953 . S
O161 C177 1.225 . S
Zn162 O161 1.953 . S
Zn162 O163 1.949 . S
Zn162 O169 1.919 . S
Zn162 O174 1.924 . S
O163 Zn162 1.949 . S
O163 Zn164 1.923 1_655 S
O163 Zn165 1.950 . S
O163 Zn166 1.945 . S
Zn164 O163 1.923 1_455 S
Zn164 O167 1.933 1_556 S
Zn164 O170 1.941 1_455 S
Zn164 O171 1.965 . S
Zn165 O163 1.950 . S
Zn165 O172 1.938 1_655 S
Zn165 O173 1.906 . S
Zn165 O183 1.953 . S
Zn166 O163 1.945 . S
Zn166 O168 1.932 1_556 S
Zn166 O175 1.977 . S
Zn166 O176 1.910 . S
O167 Zn164 1.933 1_554 S
O167 C178 1.226 . S
O168 Zn166 1.932 1_554 S
O168 C178 1.307 1_655 S
O169 Zn162 1.919 . S
O169 C180 1.253 . S
O170 Zn164 1.941 1_655 S
O170 C180 1.283 . S
O171 Zn164 1.965 . S
O171 C179 1.303 . S
O172 Zn165 1.938 1_455 S
O172 C179 1.247 . S
O173 Zn165 1.906 . S
O173 C181 1.304 . S
O174 Zn162 1.924 . S
O174 C182 1.311 . S
O175 Zn166 1.977 . S
O175 C181 1.272 . S
O176 Zn166 1.910 . S
O176 C182 1.231 . S
C177 O161 1.225 . S
C177 O183 1.298 . S
C178 O167 1.226 . S
C178 O168 1.307 1_455 S
C179 O171 1.303 . S
C179 O172 1.247 . S
C180 O169 1.253 . S
C180 O170 1.283 . S
C181 O173 1.304 . S
C181 O175 1.272 . S
C182 O174 1.311 . S
C182 O176 1.231 . S
O183 Zn165 1.953 . S
O183 C177 1.298 . S
O184 Zn185 1.953 . S
O184 C200 1.225 . S
Zn185 O184 1.953 . S
Zn185 O186 1.949 . S
Zn185 O192 1.919 . S
Zn185 O197 1.924 . S
O186 Zn185 1.949 . S
O186 Zn187 1.923 1_565 S
O186 Zn188 1.950 . S
O186 Zn189 1.945 . S
Zn187 O186 1.923 1_545 S
Zn187 O190 1.933 . S
Zn187 O193 1.941 1_545 S
Zn187 O194 1.965 . S
Zn188 O186 1.950 . S
Zn188 O195 1.938 1_565 S
Zn188 O196 1.906 . S
Zn188 O206 1.953 . S
Zn189 O186 1.945 . S
Zn189 O191 1.932 . S
Zn189 O198 1.977 . S
Zn189 O199 1.910 . S
O190 Zn187 1.933 . S
O190 C201 1.226 . S
O191 Zn189 1.932 . S
O191 C201 1.307 1_565 S
O192 Zn185 1.919 . S
O192 C203 1.253 . S
O193 Zn187 1.941 1_565 S
O193 C203 1.283 . S
O194 Zn187 1.965 . S
O194 C202 1.303 . S
O195 Zn188 1.938 1_545 S
O195 C202 1.247 . S
O196 Zn188 1.906 . S
O196 C204 1.304 . S
O197 Zn185 1.924 . S
O197 C205 1.311 . S
O198 Zn189 1.977 . S
O198 C204 1.272 . S
O199 Zn189 1.910 . S
O199 C205 1.231 . S
C200 O184 1.225 . S
C200 O206 1.298 . S
C201 O190 1.226 . S
C201 O191 1.307 1_545 S
C202 O194 1.303 . S
C202 O195 1.247 . S
C203 O192 1.253 . S
C203 O193 1.283 . S
C204 O196 1.304 . S
C204 O198 1.272 . S
C205 O197 1.311 . S
C205 O199 1.231 . S
O206 Zn188 1.953 . S
O206 C200 1.298 . S
O207 Zn208 1.953 . S
O207 C223 1.225 . S
Zn208 O207 1.953 . S
Zn208 O209 1.949 . S
Zn208 O215 1.919 . S
Zn208 O220 1.924 . S
O209 Zn208 1.949 . S
O209 Zn210 1.923 . S
O209 Zn211 1.950 . S
O209 Zn212 1.945 . S
Zn210 O209 1.923 . S
Zn210 O213 1.933 . S
Zn210 O216 1.941 . S
Zn210 O217 1.965 . S
Zn211 O209 1.950 . S
Zn211 O218 1.938 . S
Zn211 O219 1.906 . S
Zn211 O229 1.953 . S
Zn212 O209 1.945 . S
Zn212 O214 1.932 . S
Zn212 O221 1.977 . S
Zn212 O222 1.910 . S
O213 Zn210 1.933 . S
O213 C224 1.226 . S
O214 Zn212 1.932 . S
O214 C224 1.307 . S
O215 Zn208 1.919 . S
O215 C226 1.253 . S
O216 Zn210 1.941 . S
O216 C226 1.283 . S
O217 Zn210 1.965 . S
O217 C225 1.303 . S
O218 Zn211 1.938 . S
O218 C225 1.247 . S
O219 Zn211 1.906 . S
O219 C227 1.304 . S
O220 Zn208 1.924 . S
O220 C228 1.311 . S
O221 Zn212 1.977 . S
O221 C227 1.272 . S
O222 Zn212 1.910 . S
O222 C228 1.231 . S
C223 O207 1.225 . S
C223 O229 1.298 . S
C224 O213 1.226 . S
C224 O214 1.307 . S
C225 O217 1.303 . S
C225 O218 1.247 . S
C226 O215 1.253 . S
C226 O216 1.283 . S
C227 O219 1.304 . S
C227 O221 1.272 . S
C228 O220 1.311 . S
C228 O222 1.231 . S
O229 Zn211 1.953 . S
O229 C223 1.298 . S
O230 Zn231 1.953 . S
O230 C246 1.225 . S
Zn231 O230 1.953 . S
Zn231 O232 1.949 . S
Zn231 O238 1.919 . S
Zn231 O243 1.924 . S
O232 Zn231 1.949 . S
O232 Zn233 1.923 1_455 S
O232 Zn234 1.950 . S
O232 Zn235 1.945 . S
Zn233 O232 1.923 1_655 S
Zn233 O236 1.933 . S
Zn233 O239 1.941 1_655 S
Zn233 O240 1.965 . S
Zn234 O232 1.950 . S
Zn234 O241 1.938 1_455 S
Zn234 O242 1.906 . S
Zn234 O252 1.953 . S
Zn235 O232 1.945 . S
Zn235 O237 1.932 . S
Zn235 O244 1.977 . S
Zn235 O245 1.910 . S
O236 Zn233 1.933 . S
O236 C247 1.226 . S
O237 Zn235 1.932 . S
O237 C247 1.307 1_455 S
O238 Zn231 1.919 . S
O238 C249 1.253 . S
O239 Zn233 1.941 1_455 S
O239 C249 1.283 . S
O240 Zn233 1.965 . S
O240 C248 1.303 . S
O241 Zn234 1.938 1_655 S
O241 C248 1.247 . S
O242 Zn234 1.906 . S
O242 C250 1.304 . S
O243 Zn231 1.924 . S
O243 C251 1.311 . S
O244 Zn235 1.977 . S
O244 C250 1.272 . S
O245 Zn235 1.910 . S
O245 C251 1.231 . S
C246 O230 1.225 . S
C246 O252 1.298 . S
C247 O236 1.226 . S
C247 O237 1.307 1_655 S
C248 O240 1.303 . S
C248 O241 1.247 . S
C249 O238 1.253 . S
C249 O239 1.283 . S
C250 O242 1.304 . S
C250 O244 1.272 . S
C251 O243 1.311 . S
C251 O245 1.231 . S
O252 Zn234 1.953 . S
O252 C246 1.298 . S
O253 Zn254 1.953 . S
O253 C269 1.225 . S
Zn254 O253 1.953 . S
Zn254 O255 1.949 . S
Zn254 O261 1.919 . S
Zn254 O266 1.924 . S
O255 Zn254 1.949 . S
O255 Zn256 1.923 1_545 S
O255 Zn257 1.950 . S
O255 Zn258 1.945 . S
Zn256 O255 1.923 1_565 S
Zn256 O259 1.933 . S
Zn256 O262 1.941 1_565 S
Zn256 O263 1.965 . S
Zn257 O255 1.950 . S
Zn257 O264 1.938 1_545 S
Zn257 O265 1.906 . S
Zn257 O275 1.953 . S
Zn258 O255 1.945 . S
Zn258 O260 1.932 . S
Zn258 O267 1.977 . S
Zn258 O268 1.910 . S
O259 Zn256 1.933 . S
O259 C270 1.226 . S
O260 Zn258 1.932 . S
O260 C270 1.307 1_545 S
O261 Zn254 1.919 . S
O261 C272 1.253 . S
O262 Zn256 1.941 1_545 S
O262 C272 1.283 . S
O263 Zn256 1.965 . S
O263 C271 1.303 . S
O264 Zn257 1.938 1_565 S
O264 C271 1.247 . S
O265 Zn257 1.906 . S
O265 C273 1.304 . S
O266 Zn254 1.924 . S
O266 C274 1.311 . S
O267 Zn258 1.977 . S
O267 C273 1.272 . S
O268 Zn258 1.910 . S
O268 C274 1.231 . S
C269 O253 1.225 . S
C269 O275 1.298 . S
C270 O259 1.226 . S
C270 O260 1.307 1_565 S
C271 O263 1.303 . S
C271 O264 1.247 . S
C272 O261 1.253 . S
C272 O262 1.283 . S
C273 O265 1.304 . S
C273 O267 1.272 . S
C274 O266 1.311 . S
C274 O268 1.231 . S
O275 Zn257 1.953 . S
O275 C269 1.298 . S
C276 C277 1.170 . S
C276 C278 1.375 1_556 S
C277 C276 1.170 . S
C278 C276 1.375 1_554 S
C278 C279 1.175 . S
C279 C278 1.175 . S
C280 C281 1.170 . S
C280 C282 1.380 . S
C281 C280 1.170 . S
C282 C280 1.380 . S
C282 C283 1.170 1_455 S
C283 C282 1.170 1_655 S
C284 C285 1.170 . S
C284 C286 1.380 . S
C285 C284 1.170 . S
C286 C284 1.380 . S
C286 C287 1.170 1_545 S
C287 C286 1.170 1_565 S
C288 C289 1.170 . S
C288 C290 1.380 . S
C289 C288 1.170 . S
C290 C288 1.380 . S
C290 C291 1.170 . S
C291 C290 1.170 . S
C292 C293 1.170 . S
C292 C294 1.380 . S
C293 C292 1.170 . S
C294 C292 1.380 . S
C294 C295 1.170 1_655 S
C295 C294 1.170 1_455 S
C296 C297 1.170 . S
C296 C298 1.380 . S
C297 C296 1.170 . S
C298 C296 1.380 . S
C298 C299 1.170 1_565 S
C299 C298 1.170 1_545 S
C300 C301 1.170 . S
C300 C302 1.380 . S
C301 C300 1.170 . S
C302 C300 1.380 . S
C302 C303 1.170 . S
C303 C302 1.170 . S
C304 C305 1.170 1_455 S
C304 C306 1.380 . S
C305 C304 1.170 1_655 S
C306 C304 1.380 . S
C306 C307 1.170 . S
C307 C306 1.170 . S
C308 C309 1.170 1_545 S
C308 C310 1.380 . S
C309 C308 1.170 1_565 S
C310 C308 1.380 . S
C310 C311 1.170 . S
C311 C310 1.170 . S
C312 C313 1.170 . S
C312 C314 1.380 . S
C313 C312 1.170 . S
C314 C312 1.380 . S
C314 C315 1.170 . S
C315 C314 1.170 . S
C316 C317 1.170 1_655 S
C316 C318 1.380 . S
C317 C316 1.170 1_455 S
C318 C316 1.380 . S
C318 C319 1.170 . S
C319 C318 1.170 . S
C320 C321 1.170 1_565 S
C320 C322 1.380 . S
C321 C320 1.170 1_545 S
C322 C320 1.380 . S
C322 C323 1.170 . S
C323 C322 1.170 . S
C324 C325 1.170 . S
C324 C326 1.380 . S
C325 C324 1.170 . S
C326 C324 1.380 . S
C326 C327 1.170 . S
C327 C326 1.170 . S
C328 C329 1.170 . S
C328 C330 1.380 . S
C329 C328 1.170 . S
C330 C328 1.380 . S
C330 C331 1.170 . S
C331 C330 1.170 . S
C332 C333 1.170 . S
C332 C334 1.380 . S
C333 C332 1.170 . S
C334 C332 1.380 . S
C334 C335 1.170 . S
C335 C334 1.170 . S
C336 C337 1.170 . S
C336 C338 1.380 . S
C337 C336 1.170 . S
C338 C336 1.380 . S
C338 C339 1.170 . S
C339 C338 1.170 . S
C340 C341 1.170 . S
C340 C342 1.380 . S
C341 C340 1.170 . S
C342 C340 1.380 . S
C342 C343 1.170 . S
C343 C342 1.170 . S
C344 C345 1.170 . S
C344 C346 1.380 . S
C345 C344 1.170 . S
C346 C344 1.380 . S
C346 C347 1.170 . S
C347 C346 1.170 . S
C348 C349 1.170 . S
C348 C350 1.380 . S
C349 C348 1.170 . S
C350 C348 1.380 . S
C350 C351 1.170 . S
C351 C350 1.170 . S
C352 C353 1.170 . S
C352 C354 1.380 . S
C353 C352 1.170 . S
C354 C352 1.380 . S
C354 C355 1.170 . S
C355 C354 1.170 . S
C356 C357 1.170 . S
C356 C358 1.380 . S
C357 C356 1.170 . S
C358 C356 1.380 . S
C358 C359 1.170 . S
C359 C358 1.170 . S
C360 C361 1.170 . S
C360 C362 1.380 . S
C361 C360 1.170 . S
C362 C360 1.380 . S
C362 C363 1.170 . S
C363 C362 1.170 . S
C364 C365 1.170 . S
C364 C366 1.380 . S
C365 C364 1.170 . S
C366 C364 1.380 . S
C366 C367 1.170 . S
C367 C366 1.170 . S
C368 C369 1.170 . S
C368 C370 1.380 . S
C369 C368 1.170 . S
C370 C368 1.380 . S
C370 C371 1.170 . S
C371 C370 1.170 . S
C372 C373 1.170 . S
C372 C374 1.380 . S
C373 C372 1.170 . S
C374 C372 1.380 . S
C374 C375 1.170 . S
C375 C374 1.170 . S
C376 C377 1.170 . S
C376 C378 1.380 . S
C377 C376 1.170 . S
C378 C376 1.380 . S
C378 C379 1.170 . S
C379 C378 1.170 . S
C380 C381 1.170 . S
C380 C382 1.380 . S
C381 C380 1.170 . S
C382 C380 1.380 . S
C382 C383 1.170 . S
C383 C382 1.170 . S
C384 C385 1.170 . S
C384 C386 1.380 . S
C385 C384 1.170 . S
C386 C384 1.380 . S
C386 C387 1.170 . S
C387 C386 1.170 . S
C388 C389 1.170 . S
C388 C390 1.380 . S
C389 C388 1.170 . S
C390 C388 1.380 . S
C390 C391 1.170 . S
C391 C390 1.170 . S
C392 C393 1.170 . S
C392 C394 1.380 . S
C393 C392 1.170 . S
C394 C392 1.380 . S
C394 C395 1.170 . S
C395 C394 1.170 . S
C396 C397 1.170 . S
C396 C398 1.380 1_445 S
C397 C396 1.170 . S
C398 C396 1.380 1_665 S
C398 C399 1.170 . S
C399 C398 1.170 . S
C400 C401 1.170 . S
C400 C402 1.380 1_465 S
C401 C400 1.170 . S
C402 C400 1.380 1_645 S
C402 C403 1.170 . S
C403 C402 1.170 . S
C404 C405 1.170 . S
C404 C406 1.380 1_445 S
C405 C404 1.170 . S
C406 C404 1.380 1_665 S
C406 C407 1.170 . S
C407 C406 1.170 . S
C408 C409 1.170 . S
C408 C410 1.380 1_445 S
C409 C408 1.170 . S
C410 C408 1.380 1_665 S
C410 C411 1.170 . S
C411 C410 1.170 . S
C412 C413 1.170 . S
C412 C414 1.380 1_465 S
C413 C412 1.170 . S
C414 C412 1.380 1_645 S
C414 C415 1.170 . S
C415 C414 1.170 . S
C416 C417 1.170 . S
C416 C418 1.380 1_445 S
C417 C416 1.170 . S
C418 C416 1.380 1_665 S
C418 C419 1.170 . S
C419 C418 1.170 . S
C277 C182 1.795 . S
C279 C20 1.787 . S
C281 C205 1.783 . S
C283 C43 1.802 . S
C285 C228 1.775 . S
C287 C66 1.803 . S
C289 C251 1.796 . S
C291 C89 1.791 . S
C293 C274 1.796 . S
C295 C112 1.790 . S
C297 C159 1.776 . S
C299 C135 1.799 . S
C301 C158 1.790 . S
C303 C136 1.797 . S
C305 C181 1.791 . S
C307 C21 1.796 . S
C309 C204 1.802 . S
C311 C44 1.785 . S
C313 C227 1.787 . S
C315 C67 1.794 . S
C317 C250 1.790 . S
C319 C90 1.797 . S
C321 C273 1.794 . S
C323 C113 1.794 . S
C325 C17 1.367 . S
C327 C131 1.339 . S
C329 C40 1.374 . S
C331 C16 1.344 . S
C333 C39 1.357 . S
C335 C63 1.376 . S
C337 C62 1.341 . S
C339 C86 1.367 . S
C341 C85 1.337 . S
C343 C109 1.369 . S
C345 C132 1.370 . S
C347 C108 1.364 . S
C349 C155 1.375 . S
C351 C177 1.348 . S
C353 C178 1.368 . S
C355 C200 1.360 . S
C357 C201 1.367 . S
C359 C223 1.355 . S
C361 C224 1.367 . S
C363 C246 1.341 . S
C365 C247 1.373 . S
C367 C269 1.341 . S
C369 C154 1.351 . S
C371 C270 1.366 . S
C373 C202 1.164 . S
C375 C18 1.143 . S
C377 C41 1.158 . S
C379 C225 1.134 . S
C381 C64 1.134 . S
C383 C248 1.158 . S
C385 C87 1.138 . S
C387 C271 1.145 . S
C389 C110 1.137 . S
C391 C156 1.145 . S
C393 C179 1.147 . S
C395 C133 1.164 . S
C397 C19 0.931 1_556 S
C399 C180 0.965 . S
C401 C203 0.961 . S
C403 C42 0.924 . S
C405 C226 0.975 . S
C407 C65 0.955 . S
C409 C249 0.909 . S
C411 C88 0.939 . S
C413 C111 0.916 . S
C415 C272 0.910 . S
C417 C134 0.974 . S
C419 C157 0.963 . S
