# Generated by pormake.
# Topology afi, (4)-cn, num edge types: 1
# Building blocks:
#     Node 0, Type 0, BuildingBlock: TATPOV_clean_sbu_0, # of connection points: 4
#     Node 1, Type 0, BuildingBlock: TATPOV_clean_sbu_0, # of connection points: 4
#     Node 2, Type 0, BuildingBlock: TATPOV_clean_sbu_0, # of connection points: 4
#     Node 3, Type 0, BuildingBlock: TATPOV_clean_sbu_0, # of connection points: 4
#     Node 4, Type 0, BuildingBlock: TATPOV_clean_sbu_0, # of connection points: 4
#     Node 5, Type 0, BuildingBlock: TATPOV_clean_sbu_0, # of connection points: 4
#     Node 6, Type 0, BuildingBlock: TATPOV_clean_sbu_0, # of connection points: 4
#     Node 7, Type 0, BuildingBlock: TATPOV_clean_sbu_0, # of connection points: 4
#     Node 8, Type 0, BuildingBlock: TATPOV_clean_sbu_0, # of connection points: 4
#     Node 9, Type 0, BuildingBlock: TATPOV_clean_sbu_0, # of connection points: 4
#     Node 10, Type 0, BuildingBlock: TATPOV_clean_sbu_0, # of connection points: 4
#     Node 11, Type 0, BuildingBlock: TATPOV_clean_sbu_0, # of connection points: 4
#     Node 12, Type 0, BuildingBlock: TATPOV_clean_sbu_0, # of connection points: 4
#     Node 13, Type 0, BuildingBlock: TATPOV_clean_sbu_0, # of connection points: 4
#     Node 14, Type 0, BuildingBlock: TATPOV_clean_sbu_0, # of connection points: 4
#     Node 15, Type 0, BuildingBlock: TATPOV_clean_sbu_0, # of connection points: 4
#     Node 16, Type 0, BuildingBlock: TATPOV_clean_sbu_0, # of connection points: 4
#     Node 17, Type 0, BuildingBlock: TATPOV_clean_sbu_0, # of connection points: 4
#     Node 18, Type 0, BuildingBlock: TATPOV_clean_sbu_0, # of connection points: 4
#     Node 19, Type 0, BuildingBlock: TATPOV_clean_sbu_0, # of connection points: 4
#     Node 20, Type 0, BuildingBlock: TATPOV_clean_sbu_0, # of connection points: 4
#     Node 21, Type 0, BuildingBlock: TATPOV_clean_sbu_0, # of connection points: 4
#     Node 22, Type 0, BuildingBlock: TATPOV_clean_sbu_0, # of connection points: 4
#     Node 23, Type 0, BuildingBlock: TATPOV_clean_sbu_0, # of connection points: 4
#     Edge 24, Type (0, 0), BuildingBlock: XIVTED_clean_linker_0, # of connection points: 2
#     Edge 25, Type (0, 0), BuildingBlock: XIVTED_clean_linker_0, # of connection points: 2
#     Edge 26, Type (0, 0), BuildingBlock: XIVTED_clean_linker_0, # of connection points: 2
#     Edge 27, Type (0, 0), BuildingBlock: XIVTED_clean_linker_0, # of connection points: 2
#     Edge 28, Type (0, 0), BuildingBlock: XIVTED_clean_linker_0, # of connection points: 2
#     Edge 29, Type (0, 0), BuildingBlock: XIVTED_clean_linker_0, # of connection points: 2
#     Edge 30, Type (0, 0), BuildingBlock: XIVTED_clean_linker_0, # of connection points: 2
#     Edge 31, Type (0, 0), BuildingBlock: XIVTED_clean_linker_0, # of connection points: 2
#     Edge 32, Type (0, 0), BuildingBlock: XIVTED_clean_linker_0, # of connection points: 2
#     Edge 33, Type (0, 0), BuildingBlock: XIVTED_clean_linker_0, # of connection points: 2
#     Edge 34, Type (0, 0), BuildingBlock: XIVTED_clean_linker_0, # of connection points: 2
#     Edge 35, Type (0, 0), BuildingBlock: XIVTED_clean_linker_0, # of connection points: 2
#     Edge 36, Type (0, 0), BuildingBlock: XIVTED_clean_linker_0, # of connection points: 2
#     Edge 37, Type (0, 0), BuildingBlock: XIVTED_clean_linker_0, # of connection points: 2
#     Edge 38, Type (0, 0), BuildingBlock: XIVTED_clean_linker_0, # of connection points: 2
#     Edge 39, Type (0, 0), BuildingBlock: XIVTED_clean_linker_0, # of connection points: 2
#     Edge 40, Type (0, 0), BuildingBlock: XIVTED_clean_linker_0, # of connection points: 2
#     Edge 41, Type (0, 0), BuildingBlock: XIVTED_clean_linker_0, # of connection points: 2
#     Edge 42, Type (0, 0), BuildingBlock: XIVTED_clean_linker_0, # of connection points: 2
#     Edge 43, Type (0, 0), BuildingBlock: XIVTED_clean_linker_0, # of connection points: 2
#     Edge 44, Type (0, 0), BuildingBlock: XIVTED_clean_linker_0, # of connection points: 2
#     Edge 45, Type (0, 0), BuildingBlock: XIVTED_clean_linker_0, # of connection points: 2
#     Edge 46, Type (0, 0), BuildingBlock: XIVTED_clean_linker_0, # of connection points: 2
#     Edge 47, Type (0, 0), BuildingBlock: XIVTED_clean_linker_0, # of connection points: 2
#     Edge 48, Type (0, 0), BuildingBlock: XIVTED_clean_linker_0, # of connection points: 2
#     Edge 49, Type (0, 0), BuildingBlock: XIVTED_clean_linker_0, # of connection points: 2
#     Edge 50, Type (0, 0), BuildingBlock: XIVTED_clean_linker_0, # of connection points: 2
#     Edge 51, Type (0, 0), BuildingBlock: XIVTED_clean_linker_0, # of connection points: 2
#     Edge 52, Type (0, 0), BuildingBlock: XIVTED_clean_linker_0, # of connection points: 2
#     Edge 53, Type (0, 0), BuildingBlock: XIVTED_clean_linker_0, # of connection points: 2
#     Edge 54, Type (0, 0), BuildingBlock: XIVTED_clean_linker_0, # of connection points: 2
#     Edge 55, Type (0, 0), BuildingBlock: XIVTED_clean_linker_0, # of connection points: 2
#     Edge 56, Type (0, 0), BuildingBlock: XIVTED_clean_linker_0, # of connection points: 2
#     Edge 57, Type (0, 0), BuildingBlock: XIVTED_clean_linker_0, # of connection points: 2
#     Edge 58, Type (0, 0), BuildingBlock: XIVTED_clean_linker_0, # of connection points: 2
#     Edge 59, Type (0, 0), BuildingBlock: XIVTED_clean_linker_0, # of connection points: 2
#     Edge 60, Type (0, 0), BuildingBlock: XIVTED_clean_linker_0, # of connection points: 2
#     Edge 61, Type (0, 0), BuildingBlock: XIVTED_clean_linker_0, # of connection points: 2
#     Edge 62, Type (0, 0), BuildingBlock: XIVTED_clean_linker_0, # of connection points: 2
#     Edge 63, Type (0, 0), BuildingBlock: XIVTED_clean_linker_0, # of connection points: 2
#     Edge 64, Type (0, 0), BuildingBlock: XIVTED_clean_linker_0, # of connection points: 2
#     Edge 65, Type (0, 0), BuildingBlock: XIVTED_clean_linker_0, # of connection points: 2
#     Edge 66, Type (0, 0), BuildingBlock: XIVTED_clean_linker_0, # of connection points: 2
#     Edge 67, Type (0, 0), BuildingBlock: XIVTED_clean_linker_0, # of connection points: 2
#     Edge 68, Type (0, 0), BuildingBlock: XIVTED_clean_linker_0, # of connection points: 2
#     Edge 69, Type (0, 0), BuildingBlock: XIVTED_clean_linker_0, # of connection points: 2
#     Edge 70, Type (0, 0), BuildingBlock: XIVTED_clean_linker_0, # of connection points: 2
#     Edge 71, Type (0, 0), BuildingBlock: XIVTED_clean_linker_0, # of connection points: 2
# Relax obj value: 0.050
# Max RMSD: 0.066
# Mean RMSD: 0.066
data_MOF--net-afi--node1-TATPOV_clean_sbu_0--edge1-XIVTED_clean_linker_0
_symmetry_space_group_name_H-M    P1
_symmetry_Int_Tables_number       1
_symmetry_cell_setting            triclinic
loop_
_symmetry_equiv_pos_as_xyz
'x, y, z'
_cell_length_a     67.395223
_cell_length_b     66.736144
_cell_length_c     39.171808
_cell_angle_alpha  90.179657
_cell_angle_beta   89.829986
_cell_angle_gamma 120.5411
loop_
_atom_site_label
_atom_site_type_symbol
_atom_site_fract_x
_atom_site_fract_y
_atom_site_fract_z
_atom_type_partial_charge
Zn0 Zn 0.42527 0.11743 0.3212 0.0
Zn1 Zn 0.42536 0.11657 0.25329 0.0
O2 O 0.4101 0.08169 0.2661 0.0
O3 O 0.41124 0.08298 0.32232 0.0
O4 O 0.4256 0.11703 0.20086 0.0
O5 O 0.40492 0.1308 0.32271 0.0
O6 O 0.40555 0.13137 0.2665 0.0
C7 C 0.40606 0.07137 0.29488 0.0
C8 C 0.47067 0.14216 0.29542 0.0
O9 O 0.46002 0.13508 0.267 0.0
O10 O 0.45942 0.13772 0.323 0.0
C11 C 0.43748 0.11062 0.18361 0.0
O12 O 0.44978 0.10354 0.20002 0.0
C13 C 0.39872 0.13537 0.29483 0.0
Zn14 Zn 0.33825 0.49387 0.31058 0.0
Zn15 Zn 0.33792 0.49331 0.24287 0.0
O16 O 0.32809 0.45926 0.25607 0.0
O17 O 0.32722 0.46004 0.31225 0.0
O18 O 0.33718 0.4932 0.19052 0.0
O19 O 0.31551 0.50434 0.31274 0.0
O20 O 0.31364 0.50232 0.25662 0.0
C21 C 0.32425 0.44886 0.28479 0.0
C22 C 0.38235 0.5254 0.28383 0.0
O23 O 0.37179 0.51821 0.25537 0.0
O24 O 0.37167 0.51715 0.31156 0.0
C25 C 0.35068 0.48927 0.17265 0.0
O26 O 0.36545 0.48516 0.18837 0.0
C27 C 0.30697 0.50624 0.28513 0.0
Zn28 Zn 0.88912 0.29604 0.31267 0.0
Zn29 Zn 0.88775 0.29779 0.24458 0.0
O30 O 0.92127 0.30674 0.25664 0.0
O31 O 0.92152 0.30298 0.31241 0.0
O32 O 0.88683 0.29698 0.19222 0.0
O33 O 0.86284 0.26356 0.31472 0.0
O34 O 0.86041 0.26544 0.2589 0.0
C35 C 0.93203 0.30805 0.28413 0.0
C36 C 0.88049 0.3317 0.2877 0.0
O37 O 0.88183 0.32407 0.25838 0.0
O38 O 0.88292 0.32261 0.31453 0.0
C39 C 0.8993 0.31517 0.17455 0.0
O40 O 0.91294 0.3348 0.1905 0.0
C41 C 0.8527 0.25441 0.28697 0.0
Zn42 Zn 0.52501 0.85873 0.31427 0.0
Zn43 Zn 0.52483 0.8594 0.24633 0.0
O44 O 0.54074 0.89437 0.25932 0.0
O45 O 0.54004 0.89328 0.31556 0.0
O46 O 0.52475 0.85893 0.19388 0.0
O47 O 0.54436 0.84424 0.31558 0.0
O48 O 0.54378 0.84367 0.25937 0.0
C49 C 0.54523 0.90482 0.28812 0.0
C50 C 0.4795 0.83487 0.28855 0.0
O51 O 0.49013 0.84151 0.26002 0.0
O52 O 0.49076 0.83936 0.31606 0.0
C53 C 0.51334 0.86583 0.17666 0.0
O54 O 0.50141 0.87343 0.1931 0.0
C55 C 0.55026 0.83929 0.28761 0.0
Zn56 Zn 0.60516 0.47616 0.30661 0.0
Zn57 Zn 0.60536 0.476 0.23879 0.0
O58 O 0.61459 0.50998 0.25136 0.0
O59 O 0.61559 0.50992 0.30756 0.0
O60 O 0.60579 0.47561 0.18644 0.0
O61 O 0.62846 0.46642 0.30869 0.0
O62 O 0.63036 0.46807 0.25255 0.0
C63 C 0.61833 0.5207 0.27985 0.0
C64 C 0.56123 0.44369 0.2805 0.0
O65 O 0.57171 0.45076 0.25192 0.0
O66 O 0.57189 0.45236 0.30809 0.0
C67 C 0.59208 0.47928 0.16885 0.0
O68 O 0.57733 0.48335 0.18489 0.0
C69 C 0.63725 0.46465 0.28112 0.0
Zn70 Zn 0.05936 0.68576 0.31421 0.0
Zn71 Zn 0.05973 0.68418 0.246 0.0
O72 O 0.02647 0.67548 0.25967 0.0
O73 O 0.02707 0.67915 0.31558 0.0
O74 O 0.05992 0.68492 0.19367 0.0
O75 O 0.086 0.71811 0.31587 0.0
O76 O 0.08753 0.71631 0.25988 0.0
C77 C 0.01615 0.6742 0.28771 0.0
C78 C 0.06728 0.64996 0.2873 0.0
O79 O 0.06565 0.65779 0.25842 0.0
O80 O 0.06522 0.65893 0.31466 0.0
C81 C 0.04766 0.6665 0.17629 0.0
O82 O 0.03468 0.64685 0.19256 0.0
C83 C 0.09581 0.72722 0.28792 0.0
Zn84 Zn 0.83487 0.49326 0.27845 0.0
Zn85 Zn 0.83422 0.49302 0.34612 0.0
O86 O 0.85819 0.52739 0.33346 0.0
O87 O 0.85664 0.52739 0.27731 0.0
O88 O 0.83335 0.49274 0.39848 0.0
O89 O 0.80128 0.48109 0.27592 0.0
O90 O 0.80057 0.48258 0.33206 0.0
C91 C 0.86465 0.53824 0.30504 0.0
C92 C 0.84854 0.46268 0.30489 0.0
O93 O 0.84415 0.46904 0.33335 0.0
O94 O 0.8465 0.47121 0.27726 0.0
C95 C 0.85126 0.49798 0.41599 0.0
O96 O 0.87054 0.50367 0.39986 0.0
C97 C 0.79025 0.47833 0.30332 0.0
Zn98 Zn 0.31002 0.85169 0.28347 0.0
Zn99 Zn 0.30942 0.85262 0.35127 0.0
O100 O 0.3263 0.88754 0.33829 0.0
O101 O 0.32789 0.8864 0.28217 0.0
O102 O 0.30836 0.85238 0.40366 0.0
O103 O 0.27597 0.83532 0.28071 0.0
O104 O 0.27481 0.8351 0.33691 0.0
C105 C 0.33246 0.89799 0.30958 0.0
C106 C 0.33339 0.83044 0.31092 0.0
O107 O 0.32844 0.83679 0.33895 0.0
O108 O 0.3265 0.83406 0.28289 0.0
C109 C 0.32674 0.86146 0.42141 0.0
O110 O 0.34668 0.87109 0.40552 0.0
C111 C 0.26448 0.83006 0.30812 0.0
Zn112 Zn 0.34979 0.28519 0.27858 0.0
Zn113 Zn 0.35291 0.28739 0.34672 0.0
O114 O 0.33154 0.30019 0.33396 0.0
O115 O 0.3273 0.29617 0.27821 0.0
O116 O 0.35262 0.2865 0.39906 0.0
O117 O 0.33971 0.25154 0.27699 0.0
O118 O 0.34421 0.25385 0.33276 0.0
C119 C 0.3231 0.30272 0.30625 0.0
C120 C 0.39568 0.31758 0.30388 0.0
O121 O 0.38629 0.31098 0.33321 0.0
O122 O 0.38383 0.30909 0.27703 0.0
C123 C 0.35888 0.30466 0.41708 0.0
O124 O 0.36574 0.32456 0.40153 0.0
C125 C 0.33966 0.2422 0.30504 0.0
Zn126 Zn 0.11462 0.48965 0.27664 0.0
Zn127 Zn 0.11385 0.48869 0.34465 0.0
O128 O 0.08975 0.4547 0.33069 0.0
O129 O 0.09204 0.45565 0.27454 0.0
O130 O 0.11338 0.48864 0.39699 0.0
O131 O 0.14809 0.50079 0.27594 0.0
O132 O 0.14749 0.49827 0.33205 0.0
C133 C 0.08352 0.44438 0.30181 0.0
C134 C 0.1014 0.52048 0.30355 0.0
O135 O 0.10482 0.51325 0.33184 0.0
O136 O 0.10398 0.5125 0.27564 0.0
C137 C 0.11727 0.47487 0.41428 0.0
O138 O 0.1216 0.46027 0.39795 0.0
C139 C 0.15838 0.50267 0.30374 0.0
Zn140 Zn 0.63908 0.12389 0.28341 0.0
Zn141 Zn 0.64035 0.12352 0.35093 0.0
O142 O 0.62377 0.08848 0.33803 0.0
O143 O 0.62136 0.08924 0.28202 0.0
O144 O 0.64153 0.12393 0.40337 0.0
O145 O 0.67306 0.14033 0.27974 0.0
O146 O 0.6749 0.14147 0.33589 0.0
C147 C 0.61732 0.07784 0.30943 0.0
C148 C 0.61599 0.14537 0.3112 0.0
O149 O 0.62108 0.13915 0.33911 0.0
O150 O 0.62265 0.14154 0.28302 0.0
C151 C 0.62305 0.11449 0.42098 0.0
O152 O 0.6032 0.10449 0.40491 0.0
C153 C 0.68489 0.1462 0.30678 0.0
Zn154 Zn 0.59396 0.68478 0.27509 0.0
Zn155 Zn 0.59057 0.68256 0.34322 0.0
O156 O 0.61183 0.66959 0.33032 0.0
O157 O 0.61687 0.67432 0.27474 0.0
O158 O 0.59049 0.68319 0.39556 0.0
O159 O 0.60369 0.7183 0.27377 0.0
O160 O 0.59951 0.71622 0.32962 0.0
C161 C 0.62069 0.66744 0.30267 0.0
C162 C 0.54805 0.65222 0.30008 0.0
O163 O 0.55728 0.65904 0.32942 0.0
O164 O 0.56001 0.66057 0.27326 0.0
C165 C 0.58368 0.66482 0.41322 0.0
O166 O 0.57655 0.64496 0.39726 0.0
C167 C 0.60395 0.72777 0.30189 0.0
Zn168 Zn 0.52141 0.85698 0.78057 0.0
Zn169 Zn 0.52264 0.85737 0.84827 0.0
O170 O 0.53866 0.8924 0.83578 0.0
O171 O 0.53641 0.89152 0.77964 0.0
O172 O 0.52345 0.85694 0.90069 0.0
O173 O 0.54075 0.84258 0.77698 0.0
O174 O 0.54114 0.84144 0.83314 0.0
C175 C 0.54247 0.90296 0.80723 0.0
C176 C 0.47647 0.83313 0.80818 0.0
O177 O 0.48766 0.83978 0.83622 0.0
O178 O 0.48719 0.83754 0.78011 0.0
C179 C 0.51253 0.86418 0.91861 0.0
O180 O 0.5006 0.87199 0.9029 0.0
C181 C 0.5471 0.83732 0.80414 0.0
Zn182 Zn 0.60672 0.47612 0.7737 0.0
Zn183 Zn 0.60598 0.47632 0.84129 0.0
O184 O 0.61497 0.51015 0.82824 0.0
O185 O 0.61617 0.50959 0.77206 0.0
O186 O 0.60589 0.47614 0.89365 0.0
O187 O 0.63056 0.46719 0.77232 0.0
O188 O 0.63133 0.46854 0.82852 0.0
C189 C 0.61861 0.52056 0.79957 0.0
C190 C 0.56273 0.44305 0.7988 0.0
O191 O 0.57253 0.45073 0.82767 0.0
O192 O 0.57386 0.45151 0.77147 0.0
C193 C 0.59186 0.47962 0.9109 0.0
O194 O 0.5771 0.48342 0.89451 0.0
C195 C 0.63882 0.46533 0.80024 0.0
Zn196 Zn 0.05976 0.68798 0.7804 0.0
Zn197 Zn 0.05995 0.68565 0.84859 0.0
O198 O 0.02652 0.67632 0.83531 0.0
O199 O 0.02716 0.68046 0.77951 0.0
O200 O 0.06021 0.68616 0.90091 0.0
O201 O 0.08585 0.72065 0.77942 0.0
O202 O 0.08723 0.71819 0.83529 0.0
C203 C 0.01616 0.67501 0.80739 0.0
C204 C 0.06859 0.65253 0.80588 0.0
O205 O 0.06659 0.65984 0.8351 0.0
O206 O 0.06646 0.66172 0.77892 0.0
C207 C 0.04814 0.66779 0.91842 0.0
O208 O 0.03514 0.64804 0.90232 0.0
C209 C 0.09542 0.72954 0.8076 0.0
Zn210 Zn 0.42903 0.11984 0.78767 0.0
Zn211 Zn 0.42831 0.11884 0.85541 0.0
O212 O 0.4127 0.08394 0.84234 0.0
O213 O 0.41456 0.08534 0.78615 0.0
O214 O 0.42774 0.11912 0.90784 0.0
O215 O 0.40913 0.13367 0.7854 0.0
O216 O 0.40908 0.13415 0.84161 0.0
C217 C 0.40887 0.07366 0.81348 0.0
C218 C 0.47416 0.14387 0.81434 0.0
O219 O 0.46318 0.13685 0.84255 0.0
O220 O 0.46322 0.13971 0.78657 0.0
C221 C 0.43904 0.11234 0.92559 0.0
O222 O 0.45141 0.10503 0.90972 0.0
C223 C 0.40271 0.13835 0.81312 0.0
Zn224 Zn 0.33678 0.49151 0.77737 0.0
Zn225 Zn 0.33626 0.49163 0.84528 0.0
O226 O 0.32613 0.45742 0.83251 0.0
O227 O 0.32545 0.45759 0.7763 0.0
O228 O 0.3359 0.49191 0.89764 0.0
O229 O 0.31424 0.50225 0.77526 0.0
O230 O 0.31224 0.50088 0.83143 0.0
C231 C 0.32227 0.44669 0.80401 0.0
C232 C 0.38081 0.52317 0.80402 0.0
O233 O 0.3701 0.51627 0.83244 0.0
O234 O 0.37028 0.51464 0.77628 0.0
C235 C 0.34966 0.48804 0.91471 0.0
O236 O 0.36411 0.4838 0.89811 0.0
C237 C 0.30573 0.5046 0.80273 0.0
Zn238 Zn 0.89018 0.29476 0.77875 0.0
Zn239 Zn 0.88925 0.29742 0.84694 0.0
O240 O 0.92289 0.30697 0.83448 0.0
O241 O 0.9229 0.30265 0.77874 0.0
O242 O 0.8885 0.29722 0.8993 0.0
O243 O 0.8644 0.26196 0.77766 0.0
O244 O 0.86233 0.26465 0.83344 0.0
C245 C 0.9336 0.3083 0.80683 0.0
C246 C 0.88082 0.33014 0.80321 0.0
O247 O 0.88263 0.32307 0.83264 0.0
O248 O 0.88318 0.32079 0.7765 0.0
C249 C 0.90075 0.31568 0.9166 0.0
O250 O 0.91411 0.3352 0.90027 0.0
C251 C 0.85458 0.25313 0.80572 0.0
Zn252 Zn 0.11536 0.49182 0.80972 0.0
Zn253 Zn 0.11472 0.4912 0.74197 0.0
O254 O 0.09044 0.4572 0.75556 0.0
O255 O 0.09262 0.45789 0.81168 0.0
O256 O 0.11419 0.49118 0.68964 0.0
O257 O 0.14875 0.50275 0.81043 0.0
O258 O 0.14829 0.50042 0.7543 0.0
C259 C 0.08409 0.44676 0.78429 0.0
C260 C 0.10257 0.52309 0.78398 0.0
O261 O 0.10598 0.516 0.75543 0.0
O262 O 0.10496 0.51481 0.81161 0.0
C263 C 0.11776 0.47718 0.67217 0.0
O264 O 0.12187 0.46243 0.68832 0.0
C265 C 0.15909 0.50463 0.7826 0.0
Zn266 Zn 0.64138 0.12249 0.81689 0.0
Zn267 Zn 0.64186 0.12243 0.74915 0.0
O268 O 0.62495 0.0873 0.76133 0.0
O269 O 0.62354 0.08783 0.81751 0.0
O270 O 0.64283 0.12325 0.69671 0.0
O271 O 0.67541 0.13881 0.81957 0.0
O272 O 0.6765 0.13993 0.76337 0.0
C273 C 0.61888 0.07654 0.78982 0.0
C274 C 0.61815 0.1443 0.7909 0.0
O275 O 0.62302 0.1383 0.76248 0.0
O276 O 0.62497 0.14017 0.8186 0.0
C277 C 0.62442 0.11404 0.67904 0.0
O278 O 0.60449 0.10386 0.69501 0.0
C279 C 0.68687 0.14458 0.79212 0.0
Zn280 Zn 0.59149 0.68324 0.8089 0.0
Zn281 Zn 0.58859 0.68191 0.74085 0.0
O282 O 0.61011 0.6692 0.75317 0.0
O283 O 0.61414 0.6725 0.80899 0.0
O284 O 0.5888 0.68273 0.6885 0.0
O285 O 0.60142 0.71679 0.81127 0.0
O286 O 0.59709 0.71536 0.75547 0.0
C287 C 0.61851 0.66638 0.78071 0.0
C288 C 0.5458 0.65095 0.78328 0.0
O289 O 0.55527 0.658 0.7541 0.0
O290 O 0.55753 0.65917 0.81029 0.0
C291 C 0.58232 0.66424 0.67115 0.0
O292 O 0.57546 0.64461 0.68746 0.0
C293 C 0.60153 0.72656 0.78362 0.0
Zn294 Zn 0.83585 0.49211 0.81153 0.0
Zn295 Zn 0.83541 0.49184 0.74383 0.0
O296 O 0.85938 0.52618 0.7567 0.0
O297 O 0.85775 0.52619 0.81286 0.0
O298 O 0.83465 0.49171 0.69146 0.0
O299 O 0.80229 0.48011 0.81411 0.0
O300 O 0.8018 0.48154 0.75796 0.0
C301 C 0.86582 0.53703 0.78516 0.0
C302 C 0.84939 0.46135 0.78482 0.0
O303 O 0.84516 0.46773 0.75636 0.0
O304 O 0.8473 0.46994 0.81246 0.0
C305 C 0.85268 0.49733 0.67393 0.0
O306 O 0.87197 0.50323 0.69003 0.0
C307 C 0.79138 0.47737 0.78666 0.0
Zn308 Zn 0.30906 0.85397 0.81712 0.0
Zn309 Zn 0.30916 0.85499 0.74913 0.0
O310 O 0.32647 0.88992 0.76232 0.0
O311 O 0.32731 0.88866 0.81848 0.0
O312 O 0.30866 0.85466 0.69673 0.0
O313 O 0.27497 0.83803 0.81905 0.0
O314 O 0.27447 0.83804 0.76283 0.0
C315 C 0.3324 0.90031 0.79116 0.0
C316 C 0.33205 0.83208 0.79001 0.0
O317 O 0.32743 0.83854 0.76192 0.0
O318 O 0.32515 0.83593 0.81797 0.0
C319 C 0.32723 0.86336 0.67941 0.0
O320 O 0.34696 0.87273 0.69575 0.0
C321 C 0.26382 0.83305 0.7914 0.0
Zn322 Zn 0.35159 0.28636 0.81291 0.0
Zn323 Zn 0.35247 0.28621 0.74443 0.0
O324 O 0.33061 0.29838 0.75774 0.0
O325 O 0.32888 0.29703 0.81388 0.0
O326 O 0.35159 0.28494 0.69209 0.0
O327 O 0.34154 0.25278 0.81556 0.0
O328 O 0.345 0.25323 0.75961 0.0
C329 C 0.32314 0.30191 0.7858 0.0
C330 C 0.39636 0.31818 0.78428 0.0
O331 O 0.38587 0.31063 0.75592 0.0
O332 O 0.38565 0.31037 0.81221 0.0
C333 C 0.35814 0.30349 0.67499 0.0
O334 O 0.36521 0.3231 0.69161 0.0
C335 C 0.34111 0.24258 0.7881 0.0
H336 H 0.39415 0.0448 0.35244 0.0
H337 H 0.34765 0.92482 0.25223 0.0
H338 H 0.39395 0.03969 0.24246 0.0
H339 H 0.3444 0.92967 0.36188 0.0
H340 H 0.36592 0.96691 0.24836 0.0
H341 H 0.37709 0.00287 0.35632 0.0
C342 C 0.39051 0.03487 0.32902 0.0
C343 C 0.39548 0.04583 0.297 0.0
C344 C 0.36125 0.95881 0.27328 0.0
C345 C 0.3759 -0.00239 0.30142 0.0
C346 C 0.35083 0.93473 0.27558 0.0
C347 C 0.34439 0.92364 0.30749 0.0
C348 C 0.36533 0.97201 0.30309 0.0
C349 C 0.34903 0.93746 0.33677 0.0
C350 C 0.38075 0.01087 0.33132 0.0
C351 C 0.39037 0.03198 0.26765 0.0
N352 N 0.35919 0.96095 0.33384 0.0
N353 N 0.38085 0.00856 0.27058 0.0
H354 H 0.31673 0.32583 0.35941 0.0
H355 H 0.31805 0.41841 0.23257 0.0
H356 H 0.30657 0.31435 0.2507 0.0
H357 H 0.31379 0.42238 0.3422 0.0
H358 H 0.30958 0.37826 0.23846 0.0
H359 H 0.31029 0.35851 0.3541 0.0
C360 C 0.31257 0.32977 0.33457 0.0
C361 C 0.31273 0.31764 0.30537 0.0
C362 C 0.3102 0.38786 0.26117 0.0
C363 C 0.30593 0.35541 0.29894 0.0
C364 C 0.31513 0.4108 0.2578 0.0
C365 C 0.31704 0.42393 0.28693 0.0
C366 C 0.30737 0.37811 0.29391 0.0
C367 C 0.31286 0.41309 0.319 0.0
C368 C 0.30902 0.34856 0.33148 0.0
C369 C 0.30706 0.32348 0.27386 0.0
N370 N 0.30852 0.39096 0.32163 0.0
N371 N 0.3044 0.34227 0.27136 0.0
H372 H 0.96002 0.3145 0.33855 0.0
H373 H 0.0681 0.41778 0.24417 0.0
H374 H 0.96217 0.32947 0.23097 0.0
H375 H 0.05738 0.41436 0.35327 0.0
H376 H 0.03465 0.37886 0.23859 0.0
H377 H 0.00084 0.34367 0.34279 0.0
C378 C 0.96918 0.32347 0.31558 0.0
C379 C 0.95747 0.31996 0.28448 0.0
C380 C 0.03979 0.3865 0.26379 0.0
C381 C 0.00417 0.35345 0.28939 0.0
C382 C 0.05888 0.40876 0.26707 0.0
C383 C 0.06528 0.4196 0.29923 0.0
C384 C 0.02694 0.37489 0.29283 0.0
C385 C 0.05287 0.40683 0.32795 0.0
C386 C -0.00752 0.34022 0.31814 0.0
C387 C 0.97037 0.33184 0.25556 0.0
N388 N 0.03408 0.38523 0.32402 0.0
N389 N -0.00703 0.3484 0.25885 0.0
H390 H 0.55644 0.93628 0.23585 0.0
H391 H 0.60663 0.04645 0.36167 0.0
H392 H 0.55864 0.93166 0.34561 0.0
H393 H 0.60189 0.05076 0.25225 0.0
H394 H 0.58899 0.00422 0.35636 0.0
H395 H 0.57351 0.97845 0.24123 0.0
C396 C 0.56056 0.94411 0.26102 0.0
C397 C 0.55609 0.9304 0.29027 0.0
C398 C 0.59179 0.01444 0.33354 0.0
C399 C 0.57551 0.97854 0.29668 0.0
C400 C 0.60182 0.03854 0.33659 0.0
C401 C 0.60581 0.0522 0.3074 0.0
C402 C 0.58576 0.00397 0.30107 0.0
C403 C 0.59921 0.04098 0.27551 0.0
C404 C 0.57024 0.96817 0.26412 0.0
C405 C 0.56173 0.94149 0.3223 0.0
N406 N 0.58959 0.01757 0.27321 0.0
N407 N 0.57113 0.96487 0.32462 0.0
H408 H 0.64343 0.66134 0.24932 0.0
H409 H 0.62333 0.55002 0.22696 0.0
H410 H 0.62075 0.63876 0.35262 0.0
H411 H 0.62937 0.54818 0.33648 0.0
H412 H 0.63162 0.59003 0.23163 0.0
H413 H 0.64961 0.62867 0.24164 0.0
C414 C 0.64011 0.64972 0.27062 0.0
C415 C 0.63095 0.65245 0.3014 0.0
C416 C 0.6318 0.58117 0.25459 0.0
C417 C 0.63709 0.61443 0.29226 0.0
C418 C 0.62679 0.55816 0.2519 0.0
C419 C 0.62539 0.54561 0.28135 0.0
C420 C 0.63546 0.59167 0.287 0.0
C421 C 0.63001 0.55705 0.31305 0.0
C422 C 0.64329 0.63081 0.26599 0.0
C423 C 0.62749 0.63716 0.32828 0.0
N424 N 0.63453 0.57927 0.31505 0.0
N425 N 0.63018 0.61856 0.32288 0.0
H426 H -0.01105 0.66697 0.34369 0.0
H427 H 0.87912 0.56623 0.24891 0.0
H428 H -0.01477 0.65389 0.23517 0.0
H429 H 0.89134 0.56711 0.35723 0.0
H430 H 0.91262 0.60518 0.24426 0.0
H431 H 0.94808 0.63802 0.34863 0.0
C432 C -0.02056 0.65847 0.3207 0.0
C433 C -0.00929 0.66244 0.28904 0.0
C434 C 0.90779 0.59699 0.26912 0.0
C435 C 0.94396 0.62922 0.29474 0.0
C436 C 0.88867 0.57471 0.27187 0.0
C437 C 0.88269 0.56313 0.30346 0.0
C438 C 0.9211 0.60788 0.29812 0.0
C439 C 0.8955 0.57523 0.33232 0.0
C440 C 0.95612 0.64186 0.32366 0.0
C441 C -0.02263 0.65115 0.26016 0.0
N442 N 0.91433 0.59687 0.32888 0.0
N443 N 0.95476 0.63472 0.2638 0.0
H444 H 0.5562 0.93434 0.86029 0.0
H445 H 0.60592 0.04526 0.73671 0.0
H446 H 0.55441 0.93001 0.75018 0.0
H447 H 0.60462 0.04927 0.84672 0.0
H448 H 0.58713 0.00288 0.74105 0.0
H449 H 0.5744 0.97667 0.85589 0.0
C450 C 0.55966 0.94226 0.83524 0.0
C451 C 0.55377 0.92859 0.8056 0.0
C452 C 0.59094 0.01307 0.76421 0.0
C453 C 0.57452 0.97692 0.80033 0.0
C454 C 0.60164 0.03726 0.76172 0.0
C455 C 0.6069 0.05086 0.79135 0.0
C456 C 0.58552 0.00247 0.79656 0.0
C457 C 0.60095 0.03953 0.82313 0.0
C458 C 0.57 0.96641 0.83271 0.0
C459 C 0.55862 0.93981 0.77377 0.0
N460 N 0.59064 0.01604 0.82487 0.0
N461 N 0.5687 0.96328 0.772 0.0
H462 H 0.62482 0.55081 0.85207 0.0
H463 H 0.62461 0.64354 0.72692 0.0
H464 H 0.62768 0.54689 0.74223 0.0
H465 H 0.63547 0.65463 0.83559 0.0
H466 H 0.63106 0.61083 0.73141 0.0
H467 H 0.63284 0.59083 0.84665 0.0
C468 C 0.62731 0.55839 0.82688 0.0
C469 C 0.62519 0.54533 0.79758 0.0
C470 C 0.63248 0.6207 0.7542 0.0
C471 C 0.63439 0.59102 0.79114 0.0
C472 C 0.62894 0.63951 0.75158 0.0
C473 C 0.62896 0.65153 0.78102 0.0
C474 C 0.63577 0.61373 0.78652 0.0
C475 C 0.63483 0.64558 0.81227 0.0
C476 C 0.63199 0.58127 0.82378 0.0
C477 C 0.62881 0.55614 0.76557 0.0
N478 N 0.63749 0.62677 0.81432 0.0
N479 N 0.63295 0.57821 0.76321 0.0
H480 H 0.89168 0.56618 0.73274 0.0
H481 H -0.01466 0.65474 0.86014 0.0
H482 H 0.88098 0.56473 0.84168 0.0
H483 H -0.01116 0.66632 0.75133 0.0
H484 H 0.9447 0.62522 0.85425 0.0
H485 H 0.92496 0.60556 0.73849 0.0
C486 C 0.8961 0.57424 0.75775 0.0
C487 C 0.88382 0.56193 0.78682 0.0
C488 C 0.95423 0.63457 0.83173 0.0
C489 C 0.92187 0.60685 0.79366 0.0
C490 C -0.02255 0.65154 0.83515 0.0
C491 C -0.0093 0.66261 0.8061 0.0
C492 C 0.94434 0.62843 0.79901 0.0
C493 C -0.02056 0.65787 0.77438 0.0
C494 C 0.91507 0.59675 0.76104 0.0
C495 C 0.8902 0.57334 0.81859 0.0
N496 N 0.95706 0.64074 0.77155 0.0
N497 N 0.90897 0.59497 0.82121 0.0
H498 H 0.39543 0.04182 0.86569 0.0
H499 H 0.34603 0.93218 0.739 0.0
H500 H 0.3974 0.04719 0.75572 0.0
H501 H 0.34671 0.92696 0.84884 0.0
H502 H 0.36512 0.97452 0.74458 0.0
H503 H 0.37749 -0.00044 0.86012 0.0
C504 C 0.39208 0.03414 0.84042 0.0
C505 C 0.3979 0.04808 0.81117 0.0
C506 C 0.36112 0.96408 0.76743 0.0
C507 C 0.37745 -0.00016 0.80456 0.0
C508 C 0.35024 0.93991 0.76424 0.0
C509 C 0.34469 0.92598 0.79346 0.0
C510 C 0.36643 0.97433 0.80008 0.0
C511 C 0.35059 0.93696 0.82556 0.0
C512 C 0.38188 0.01003 0.83724 0.0
C513 C 0.39322 0.03718 0.77903 0.0
N514 N 0.36107 0.96045 0.82798 0.0
N515 N 0.38326 0.01374 0.77662 0.0
H516 H 0.31609 0.41694 0.85695 0.0
H517 H 0.31489 0.3231 0.73218 0.0
H518 H 0.31131 0.41934 0.74726 0.0
H519 H 0.30665 0.31378 0.84141 0.0
H520 H 0.30742 0.35516 0.73682 0.0
H521 H 0.30759 0.37673 0.85207 0.0
C522 C 0.31302 0.40897 0.83192 0.0
C523 C 0.31485 0.42169 0.80247 0.0
C524 C 0.30678 0.3458 0.75972 0.0
C525 C 0.30516 0.37579 0.79663 0.0
C526 C 0.3109 0.32736 0.75702 0.0
C527 C 0.31198 0.31611 0.78653 0.0
C528 C 0.304 0.35316 0.79216 0.0
C529 C 0.30649 0.3223 0.81801 0.0
C530 C 0.30809 0.38599 0.82912 0.0
C531 C 0.31048 0.41038 0.77068 0.0
N532 N 0.30327 0.34075 0.8201 0.0
N533 N 0.30615 0.38823 0.7686 0.0
H534 H 0.05871 0.41674 0.73233 0.0
H535 H 0.96378 0.32953 0.85994 0.0
H536 H 0.06789 0.4202 0.8417 0.0
H537 H 0.96158 0.3166 0.75153 0.0
H538 H 0.00434 0.35938 0.85441 0.0
H539 H 0.02539 0.37744 0.73861 0.0
C540 C 0.05392 0.40916 0.75757 0.0
C541 C 0.06583 0.42198 0.78655 0.0
C542 C -0.00488 0.34967 0.83193 0.0
C543 C 0.02775 0.37714 0.79399 0.0
C544 C 0.97195 0.3325 0.83514 0.0
C545 C 0.95908 0.32094 0.80604 0.0
C546 C 0.00534 0.35549 0.79936 0.0
C547 C 0.97068 0.32543 0.77459 0.0
C548 C 0.03495 0.38669 0.76117 0.0
C549 C 0.05899 0.41116 0.81864 0.0
N550 N -0.007 0.34273 0.77193 0.0
N551 N 0.04023 0.38955 0.82152 0.0
H552 H 0.37941 0.14286 0.35104 0.0
H553 H 0.33379 0.21468 0.24957 0.0
H554 H 0.38389 0.15133 0.24148 0.0
H555 H 0.34412 0.21843 0.35871 0.0
H556 H 0.34251 0.18344 0.24666 0.0
H557 H 0.35771 0.16284 0.35395 0.0
C558 C 0.37573 0.14881 0.32748 0.0
C559 C 0.38389 0.14578 0.29596 0.0
C560 C 0.34248 0.19084 0.27129 0.0
C561 C 0.35887 0.16867 0.29928 0.0
C562 C 0.33737 0.2086 0.27307 0.0
C563 C 0.33873 0.21958 0.30439 0.0
C564 C 0.3489 0.18394 0.30103 0.0
C565 C 0.34318 0.21073 0.33396 0.0
C566 C 0.36326 0.16017 0.32923 0.0
C567 C 0.3782 0.15354 0.26635 0.0
N568 N 0.34846 0.19366 0.33148 0.0
N569 N 0.36622 0.16487 0.26877 0.0
H570 H 0.1864 0.5056 0.35682 0.0
H571 H 0.28187 0.50934 0.23231 0.0
H572 H 0.18566 0.51292 0.24736 0.0
H573 H 0.28873 0.51438 0.34209 0.0
H574 H 0.24771 0.51309 0.23722 0.0
H575 H 0.22512 0.51118 0.35225 0.0
C576 C 0.19445 0.50862 0.33192 0.0
C577 C 0.18265 0.5085 0.30243 0.0
C578 C 0.25686 0.51363 0.26019 0.0
C579 C 0.22677 0.51471 0.29694 0.0
C580 C 0.27637 0.5115 0.25737 0.0
C581 C 0.28801 0.51125 0.28682 0.0
C582 C 0.24889 0.51533 0.29269 0.0
C583 C 0.28016 0.51422 0.31867 0.0
C584 C 0.21654 0.51181 0.32929 0.0
C585 C 0.19397 0.5126 0.27079 0.0
N586 N 0.26096 0.51586 0.32078 0.0
N587 N 0.21527 0.51529 0.26886 0.0
H588 H 0.7102 0.15748 0.24821 0.0
H589 H 0.83137 0.22733 0.34278 0.0
H590 H 0.71752 0.16273 0.35792 0.0
H591 H 0.82186 0.2325 0.23485 0.0
H592 H 0.79088 0.19726 0.34759 0.0
H593 H 0.75187 0.179 0.24241 0.0
C594 C 0.72056 0.1631 0.27119 0.0
C595 C 0.71028 0.15852 0.30368 0.0
C596 C 0.79773 0.20475 0.32279 0.0
C597 C 0.75823 0.18321 0.29702 0.0
C598 C 0.8209 0.22185 0.31992 0.0
C599 C 0.82997 0.23278 0.28841 0.0
C600 C 0.78352 0.19847 0.29396 0.0
C601 C 0.81559 0.22475 0.25969 0.0
C602 C 0.7444 0.17537 0.26777 0.0
C603 C 0.72468 0.16606 0.3324 0.0
N604 N 0.79299 0.20827 0.26325 0.0
N605 N 0.74798 0.17819 0.32838 0.0
H606 H 0.56494 0.82329 0.23385 0.0
H607 H 0.60063 0.75227 0.35588 0.0
H608 H 0.56748 0.82939 0.34377 0.0
H609 H 0.60948 0.75493 0.24642 0.0
H610 H 0.59324 0.78441 0.35217 0.0
H611 H 0.58512 0.80148 0.23762 0.0
C612 C 0.56989 0.82023 0.2587 0.0
C613 C 0.56415 0.82784 0.28853 0.0
C614 C 0.59719 0.77822 0.32901 0.0
C615 C 0.5872 0.80297 0.29308 0.0
C616 C 0.60152 0.75992 0.33116 0.0
C617 C 0.60521 0.75055 0.30137 0.0
C618 C 0.59628 0.787 0.29682 0.0
C619 C 0.60633 0.76132 0.27004 0.0
C620 C 0.58148 0.80786 0.26086 0.0
C621 C 0.57121 0.82357 0.32007 0.0
N622 N 0.60143 0.77866 0.26851 0.0
N623 N 0.5821 0.81122 0.32151 0.0
H624 H 0.66413 0.46395 0.22869 0.0
H625 H 0.76025 0.4722 0.35554 0.0
H626 H 0.65535 0.45666 0.3381 0.0
H627 H 0.76418 0.46843 0.24581 0.0
H628 H 0.72063 0.46396 0.34981 0.0
H629 H 0.69967 0.46279 0.23421 0.0
C630 C 0.66949 0.4618 0.25378 0.0
C631 C 0.65691 0.46072 0.28298 0.0
C632 C 0.73013 0.46472 0.32703 0.0
C633 C 0.69761 0.45964 0.28957 0.0
C634 C 0.75275 0.46944 0.33032 0.0
C635 C 0.76566 0.47129 0.30113 0.0
C636 C 0.72048 0.46199 0.29433 0.0
C637 C 0.755 0.46742 0.26905 0.0
C638 C 0.6898 0.46118 0.25696 0.0
C639 C 0.66464 0.45784 0.31488 0.0
N640 N 0.73314 0.46319 0.26651 0.0
N641 N 0.68462 0.45769 0.31735 0.0
H642 H 0.12577 0.74894 0.23471 0.0
H643 H 0.23273 0.81626 0.36038 0.0
H644 H 0.11882 0.75343 0.34369 0.0
H645 H 0.23833 0.81745 0.25043 0.0
H646 H 0.1907 0.79603 0.35478 0.0
H647 H 0.1667 0.77786 0.23951 0.0
C648 C 0.13272 0.75635 0.25953 0.0
C649 C 0.1189 0.74842 0.28889 0.0
C650 C 0.20119 0.80091 0.33191 0.0
C651 C 0.16584 0.78114 0.29472 0.0
C652 C 0.22516 0.81234 0.33513 0.0
C653 C 0.23908 0.81832 0.30589 0.0
C654 C 0.19114 0.79536 0.29925 0.0
C655 C 0.22833 0.813 0.27376 0.0
C656 C 0.15615 0.77277 0.26232 0.0
C657 C 0.12887 0.75875 0.32039 0.0
N658 N 0.20505 0.8017 0.27134 0.0
N659 N 0.1518 0.77428 0.32256 0.0
H660 H 0.60909 0.75389 0.83989 0.0
H661 H 0.56413 0.82901 0.74605 0.0
H662 H 0.59581 0.75069 0.73163 0.0
H663 H 0.56206 0.81991 0.8554 0.0
H664 H 0.58425 0.80756 0.74032 0.0
H665 H 0.60119 0.7856 0.84514 0.0
C666 C 0.60499 0.76016 0.81704 0.0
C667 C 0.60264 0.74925 0.78532 0.0
C668 C 0.57957 0.8104 0.7656 0.0
C669 C 0.59342 0.78547 0.79136 0.0
C670 C 0.56801 0.82261 0.76897 0.0
C671 C 0.56101 0.82594 0.80129 0.0
C672 C 0.58423 0.80136 0.79471 0.0
C673 C 0.56688 0.81753 0.82998 0.0
C674 C 0.60036 0.7782 0.82017 0.0
C675 C 0.59756 0.75836 0.75664 0.0
N676 N 0.57798 0.8054 0.82598 0.0
N677 N 0.59279 0.77573 0.76043 0.0
H678 H 0.65647 0.45539 0.74432 0.0
H679 H 0.76503 0.46766 0.84404 0.0
H680 H 0.66585 0.46604 0.85328 0.0
H681 H 0.76174 0.47138 0.73428 0.0
H682 H 0.72569 0.45987 0.84809 0.0
H683 H 0.69169 0.45378 0.741 0.0
C684 C 0.66581 0.45717 0.76767 0.0
C685 C 0.65836 0.46121 0.79913 0.0
C686 C 0.73351 0.46223 0.82312 0.0
C687 C 0.6988 0.45943 0.79532 0.0
C688 C 0.75599 0.46667 0.8207 0.0
C689 C 0.76684 0.47048 0.78872 0.0
C690 C 0.72169 0.46153 0.79337 0.0
C691 C 0.75414 0.46875 0.75945 0.0
C692 C 0.68596 0.45628 0.76567 0.0
C693 C 0.67104 0.46308 0.82849 0.0
N694 N 0.73225 0.46456 0.7625 0.0
N695 N 0.69081 0.46239 0.82582 0.0
H696 H 0.23276 0.81949 0.73842 0.0
H697 H 0.12449 0.75152 0.86154 0.0
H698 H 0.23699 0.82091 0.8485 0.0
H699 H 0.11879 0.75626 0.75243 0.0
H700 H 0.1653 0.78097 0.85774 0.0
H701 H 0.19068 0.79939 0.74304 0.0
C702 C 0.22488 0.81566 0.7635 0.0
C703 C 0.23843 0.82162 0.79306 0.0
C704 C 0.15504 0.77583 0.83468 0.0
C705 C 0.19042 0.79879 0.79859 0.0
C706 C 0.13167 0.75909 0.8369 0.0
C707 C 0.11827 0.75106 0.8072 0.0
C708 C 0.16508 0.7844 0.80253 0.0
C709 C 0.12853 0.76164 0.77597 0.0
C710 C 0.20088 0.8043 0.76616 0.0
C711 C 0.22729 0.81644 0.82495 0.0
N712 N 0.15141 0.77746 0.77436 0.0
N713 N 0.20398 0.80518 0.82683 0.0
H714 H 0.3289 0.21345 0.84306 0.0
H715 H 0.38777 0.15472 0.86601 0.0
H716 H 0.3529 0.22108 0.73898 0.0
H717 H 0.38416 0.14604 0.75648 0.0
H718 H 0.3661 0.1748 0.86133 0.0
H719 H 0.33819 0.18301 0.85165 0.0
C720 C 0.33585 0.2085 0.82183 0.0
C721 C 0.34067 0.22025 0.79046 0.0
C722 C 0.36946 0.16798 0.83836 0.0
C723 C 0.35228 0.18606 0.8006 0.0
C724 C 0.38211 0.15671 0.84106 0.0
C725 C 0.38803 0.14891 0.81162 0.0
C726 C 0.36265 0.17137 0.80593 0.0
C727 C 0.38023 0.15198 0.77991 0.0
C728 C 0.3415 0.19132 0.82696 0.0
C729 C 0.34918 0.21273 0.76371 0.0
N730 N 0.36821 0.16318 0.77791 0.0
N731 N 0.35506 0.19635 0.76957 0.0
H732 H 0.18684 0.50633 0.72965 0.0
H733 H 0.28102 0.50912 0.85513 0.0
H734 H 0.18639 0.51535 0.83885 0.0
H735 H 0.28785 0.51235 0.74529 0.0
H736 H 0.24748 0.51386 0.84968 0.0
H737 H 0.22519 0.51101 0.73445 0.0
C738 C 0.19489 0.50956 0.75453 0.0
C739 C 0.18326 0.51014 0.78391 0.0
C740 C 0.2565 0.51378 0.8268 0.0
C741 C 0.22692 0.5153 0.78967 0.0
C742 C 0.27564 0.51107 0.82993 0.0
C743 C 0.28709 0.51005 0.80065 0.0
C744 C 0.2487 0.51528 0.79416 0.0
C745 C 0.27942 0.51278 0.76861 0.0
C746 C 0.21676 0.51221 0.7573 0.0
C747 C 0.19456 0.51447 0.81552 0.0
N748 N 0.26057 0.51501 0.76621 0.0
N749 N 0.21562 0.51663 0.81759 0.0
H750 H 0.83267 0.22539 0.75061 0.0
H751 H 0.71304 0.15573 0.84969 0.0
H752 H 0.82471 0.23132 0.85899 0.0
H753 H 0.71871 0.1608 0.73978 0.0
H754 H 0.75479 0.17713 0.85389 0.0
H755 H 0.79222 0.19499 0.74728 0.0
C756 C 0.82256 0.22001 0.77388 0.0
C757 C 0.83202 0.23126 0.80508 0.0
C758 C 0.74694 0.17347 0.82884 0.0
C759 C 0.78564 0.19658 0.80123 0.0
C760 C 0.72305 0.16128 0.82634 0.0
C761 C 0.71228 0.15671 0.79426 0.0
C762 C 0.76032 0.18124 0.79909 0.0
C763 C 0.72625 0.16413 0.76501 0.0
C764 C 0.79941 0.20272 0.77185 0.0
C765 C 0.81811 0.22333 0.83435 0.0
N766 N 0.7496 0.1762 0.76814 0.0
N767 N 0.79552 0.20667 0.83162 0.0
H768 H 0.46118 0.09814 0.13998 0.0
H769 H 0.41501 0.12578 0.96791 0.0
H770 H 0.41416 0.12409 0.14016 0.0
H771 H 0.46159 0.09932 0.97032 0.0
H772 H 0.41438 0.12562 1.03057 0.0
H773 H 0.46144 0.09879 0.07775 0.0
C774 C 0.45088 0.10399 0.12698 0.0
C775 C 0.43761 0.11106 0.14554 0.0
C776 C 0.42473 0.11986 1.01735 0.0
C777 C 0.43784 0.11185 0.07369 0.0
C778 C 0.42511 0.11995 0.98153 0.0
C779 C 0.43837 0.11254 0.96364 0.0
C780 C 0.43772 0.11232 1.03553 0.0
C781 C 0.45109 0.10518 0.98283 0.0
C782 C 0.45104 0.10435 0.0913 0.0
C783 C 0.42464 0.11847 0.12702 0.0
N784 N 0.45044 0.10526 1.01755 0.0
N785 N 0.42508 0.11867 0.09218 0.0
H786 H 0.37714 0.48065 0.95793 0.0
H787 H 0.32231 0.49689 0.13074 0.0
H788 H 0.32215 0.49595 0.95854 0.0
H789 H 0.37732 0.48165 0.12759 0.0
H790 H 0.3217 0.4967 0.0681 0.0
H791 H 0.37716 0.48103 1.02016 0.0
C792 C 0.36503 0.4841 0.97111 0.0
C793 C 0.34961 0.48827 0.95277 0.0
C794 C 0.3339 0.4934 0.08114 0.0
C795 C 0.34955 0.48873 1.02461 0.0
C796 C 0.33426 0.49351 0.11695 0.0
C797 C 0.3499 0.48928 0.13462 0.0
C798 C 0.34928 0.48904 0.06276 0.0
C799 C 0.36495 0.485 0.11524 0.0
C800 C 0.36506 0.48431 1.00678 0.0
C801 C 0.33435 0.49264 0.97151 0.0
N802 N 0.36425 0.48499 0.08053 0.0
N803 N 0.3347 0.49275 1.00634 0.0
H804 H 0.92471 0.35226 0.96039 0.0
H805 H 0.87382 0.27756 0.13208 0.0
H806 H 0.87552 0.27853 0.95985 0.0
H807 H 0.9235 0.35114 0.13001 0.0
H808 H 0.87367 0.27722 0.06942 0.0
H809 H 0.92395 0.35184 1.02262 0.0
C810 C 0.91371 0.33593 0.97331 0.0
C811 C 0.90017 0.31539 0.95466 0.0
C812 C 0.88459 0.29343 0.08271 0.0
C813 C 0.89922 0.31479 1.02649 0.0
C814 C 0.88468 0.29364 0.11853 0.0
C815 C 0.89871 0.31442 0.13651 0.0
C816 C 0.89862 0.31414 0.06464 0.0
C817 C 0.91241 0.3347 0.11742 0.0
C818 C 0.91329 0.33571 1.00899 0.0
C819 C 0.88627 0.2948 0.97307 0.0
N820 N 0.91201 0.33403 0.0827 0.0
N821 N 0.88616 0.29502 1.0079 0.0
H822 H 0.49059 0.87928 0.1331 0.0
H823 H 0.53568 0.84977 0.96075 0.0
H824 H 0.53601 0.8514 0.13313 0.0
H825 H 0.49068 0.87813 0.96352 0.0
H826 H 0.53614 0.84989 1.02344 0.0
H827 H 0.49054 0.87865 0.07087 0.0
C828 C 0.50059 0.87301 0.12006 0.0
C829 C 0.51334 0.86539 0.13859 0.0
C830 C 0.52617 0.85608 1.01029 0.0
C831 C 0.51335 0.86462 0.06673 0.0
C832 C 0.52589 0.85601 0.97446 0.0
C833 C 0.51312 0.86396 0.95666 0.0
C834 C 0.51358 0.86414 1.02856 0.0
C835 C 0.50079 0.87184 0.97595 0.0
C836 C 0.50054 0.87265 0.08439 0.0
C837 C 0.52592 0.85745 0.12002 0.0
N838 N 0.50134 0.87172 1.01066 0.0
N839 N 0.52561 0.85727 0.08517 0.0
H840 H 0.6205 0.47192 0.12629 0.0
H841 H 0.56402 0.48638 0.95467 0.0
H842 H 0.56482 0.48617 0.1244 0.0
H843 H 0.61997 0.4725 0.95417 0.0
H844 H 0.56425 0.48616 1.01692 0.0
H845 H 0.62076 0.47186 0.06364 0.0
C846 C 0.60832 0.47503 0.11278 0.0
C847 C 0.59261 0.47906 0.13081 0.0
C848 C 0.5765 0.48315 1.00329 0.0
C849 C 0.59283 0.47901 0.05894 0.0
C850 C 0.57639 0.48327 0.96761 0.0
C851 C 0.59201 0.47946 0.94896 0.0
C852 C 0.59236 0.47918 1.02079 0.0
C853 C 0.6076 0.47553 0.96738 0.0
C854 C 0.60849 0.47499 0.07697 0.0
C855 C 0.57726 0.48299 0.11177 0.0
N856 N 0.60738 0.4755 1.00221 0.0
N857 N 0.57777 0.48286 0.07704 0.0
H858 H 0.07289 0.70546 0.96105 0.0
H859 H 0.02369 0.63 0.1324 0.0
H860 H 0.0245 0.63154 0.96277 0.0
H861 H 0.07215 0.70391 0.1332 0.0
H862 H 0.02405 0.63063 0.07017 0.0
H863 H 0.07312 0.70563 1.02369 0.0
C864 C 0.06231 0.68927 0.97453 0.0
C865 C 0.04864 0.66845 0.95645 0.0
C866 C 0.03463 0.64675 0.08386 0.0
C867 C 0.04884 0.66854 1.02831 0.0
C868 C 0.03443 0.64641 0.11953 0.0
C869 C 0.0479 0.66695 0.13825 0.0
C870 C 0.0484 0.66778 0.06644 0.0
C871 C 0.06147 0.68765 0.11992 0.0
C872 C 0.06246 0.68939 1.01033 0.0
C873 C 0.03532 0.64803 0.97544 0.0
N874 N 0.06137 0.68754 0.08508 0.0
N875 N 0.03576 0.64861 1.01016 0.0
H876 H 0.88828 0.50822 0.62975 0.0
H877 H 0.81449 0.48695 0.45882 0.0
H878 H 0.81605 0.48646 0.63108 0.0
H879 H 0.88661 0.5083 0.46019 0.0
H880 H 0.81432 0.48664 0.52149 0.0
H881 H 0.8876 0.5083 0.56753 0.0
C882 C 0.87223 0.50344 0.617 0.0
C883 C 0.85219 0.49732 0.63588 0.0
C884 C 0.83017 0.49139 0.50804 0.0
C885 C 0.85129 0.49739 0.56405 0.0
C886 C 0.83028 0.49158 0.47222 0.0
C887 C 0.8506 0.49766 0.45404 0.0
C888 C 0.85052 0.49733 0.52591 0.0
C889 C 0.87052 0.50348 0.47293 0.0
C890 C 0.87186 0.5035 0.58133 0.0
C891 C 0.83193 0.4913 0.61768 0.0
N892 N 0.86996 0.50317 0.50766 0.0
N893 N 0.832 0.49149 0.58284 0.0
H894 H 0.36401 0.88057 0.63567 0.0
H895 H 0.2887 0.84346 0.46378 0.0
H896 H 0.28973 0.84532 0.63608 0.0
H897 H 0.36297 0.87914 0.46607 0.0
H898 H 0.2883 0.8437 0.52645 0.0
H899 H 0.36353 0.87995 0.57344 0.0
C900 C 0.34755 0.87268 0.62272 0.0
C901 C 0.32687 0.86299 0.64135 0.0
C902 C 0.30467 0.85147 0.51321 0.0
C903 C 0.32621 0.8622 0.5695 0.0
C904 C 0.30492 0.85134 0.47739 0.0
C905 C 0.3259 0.8613 0.45946 0.0
C906 C 0.32556 0.86163 0.53134 0.0
C907 C 0.34635 0.87125 0.4786 0.0
C908 C 0.3473 0.87233 0.58704 0.0
C909 C 0.30611 0.85302 0.62289 0.0
N910 N 0.34565 0.87115 0.51333 0.0
N911 N 0.30631 0.85288 0.58805 0.0
H912 H 0.37115 0.34032 0.63195 0.0
H913 H 0.3455 0.26655 0.45867 0.0
H914 H 0.34499 0.26636 0.63101 0.0
H915 H 0.37134 0.34041 0.46244 0.0
H916 H 0.34509 0.26571 0.52131 0.0
H917 H 0.37122 0.34024 0.56975 0.0
C918 C 0.36539 0.32401 0.6187 0.0
C919 C 0.35805 0.3033 0.63694 0.0
C920 C 0.35085 0.28208 0.5084 0.0
C921 C 0.35809 0.30311 0.56511 0.0
C922 C 0.35109 0.28259 0.47259 0.0
C923 C 0.35847 0.3036 0.45509 0.0
C924 C 0.35803 0.30273 0.52695 0.0
C925 C 0.36551 0.3238 0.47465 0.0
C926 C 0.36544 0.32399 0.58304 0.0
C927 C 0.3508 0.28275 0.61811 0.0
N928 N 0.36511 0.32284 0.50935 0.0
N929 N 0.35101 0.28317 0.58327 0.0
H930 H 0.11005 0.50532 0.62943 0.0
H931 H 0.1245 0.44736 0.45819 0.0
H932 H 0.1246 0.44938 0.62792 0.0
H933 H 0.10967 0.50312 0.45738 0.0
H934 H 0.12442 0.44805 0.52044 0.0
H935 H 0.10969 0.505 0.5668 0.0
C936 C 0.11317 0.49297 0.616 0.0
C937 C 0.11738 0.47735 0.63413 0.0
C938 C 0.12117 0.46016 0.50673 0.0
C939 C 0.11698 0.4769 0.56228 0.0
C940 C 0.12121 0.45978 0.47106 0.0
C941 C 0.11709 0.47522 0.45233 0.0
C942 C 0.117 0.4761 0.52415 0.0
C943 C 0.11294 0.49088 0.47066 0.0
C944 C 0.11295 0.49279 0.5802 0.0
C945 C 0.12129 0.46176 0.61521 0.0
N946 N 0.11301 0.49093 0.50549 0.0
N947 N 0.121 0.46194 0.58048 0.0
H948 H 0.58647 0.09594 0.46511 0.0
H949 H 0.6624 0.13335 0.63641 0.0
H950 H 0.6608 0.13332 0.46395 0.0
H951 H 0.58807 0.09602 0.63458 0.0
H952 H 0.66264 0.13377 0.57372 0.0
H953 H 0.58719 0.09605 0.5273 0.0
C954 C 0.603 0.1042 0.47789 0.0
C955 C 0.62361 0.11464 0.45905 0.0
C956 C 0.64629 0.12549 0.58707 0.0
C957 C 0.62456 0.11483 0.5309 0.0
C958 C 0.64613 0.12525 0.62291 0.0
C959 C 0.62517 0.11462 0.64097 0.0
C960 C 0.62534 0.11505 0.56907 0.0
C961 C 0.60467 0.10441 0.62195 0.0
C962 C 0.60339 0.10425 0.51355 0.0
C963 C 0.64447 0.12505 0.47731 0.0
N964 N 0.60529 0.10489 0.58722 0.0
N965 N 0.64441 0.12488 0.51216 0.0
H966 H 0.59718 0.70271 0.4556 0.0
H967 H 0.5692 0.62758 0.62742 0.0
H968 H 0.57023 0.62863 0.45783 0.0
H969 H 0.59582 0.70162 0.62785 0.0
H970 H 0.56957 0.62805 0.5652 0.0
H971 H 0.59694 0.70307 0.51825 0.0
C972 C 0.59121 0.68652 0.46919 0.0
C973 C 0.58372 0.6656 0.45125 0.0
C974 C 0.57534 0.64423 0.5788 0.0
C975 C 0.5834 0.66591 0.52312 0.0
C976 C 0.57514 0.64398 0.61447 0.0
C977 C 0.5825 0.6646 0.6331 0.0
C978 C 0.58298 0.66525 0.56127 0.0
C979 C 0.58998 0.68529 0.61465 0.0
C980 C 0.59108 0.68675 0.505 0.0
C981 C 0.57617 0.64519 0.47038 0.0
N982 N 0.59004 0.68509 0.57981 0.0
N983 N 0.57622 0.64588 0.5051 0.0
H984 H 0.4979 0.15784 0.35224 0.0
H985 H 0.60452 0.16257 0.25642 0.0
H986 H 0.50116 0.14965 0.24331 0.0
H987 H 0.5908 0.14869 0.36415 0.0
H988 H 0.57268 0.1699 0.25257 0.0
H989 H 0.53755 0.16655 0.35722 0.0
C990 C 0.50706 0.15831 0.32922 0.0
C991 C 0.49597 0.1525 0.29732 0.0
C992 C 0.57687 0.16561 0.27714 0.0
C993 C 0.54143 0.16248 0.30306 0.0
C994 C 0.59507 0.16144 0.27945 0.0
C995 C 0.60004 0.15449 0.31058 0.0
C996 C 0.56352 0.16289 0.30614 0.0
C997 C 0.58741 0.15372 0.33958 0.0
C998 C 0.52971 0.16324 0.33218 0.0
C999 C 0.50889 0.15373 0.26844 0.0
N1000 N 0.56948 0.15753 0.33656 0.0
N1001 N 0.53086 0.15827 0.27206 0.0
H1002 H 0.52288 0.63454 0.24151 0.0
H1003 H 0.40876 0.54308 0.34077 0.0
H1004 H 0.51718 0.62834 0.35131 0.0
H1005 H 0.41206 0.54981 0.23095 0.0
H1006 H 0.44868 0.57399 0.34439 0.0
H1007 H 0.48264 0.60363 0.23665 0.0
C1008 C 0.51317 0.62674 0.26464 0.0
C1009 C 0.52347 0.63406 0.29693 0.0
C1010 C 0.44077 0.56877 0.31945 0.0
C1011 C 0.47738 0.59858 0.29141 0.0
C1012 C 0.41789 0.55103 0.3173 0.0
C1013 C 0.40695 0.5438 0.28544 0.0
C1014 C 0.45301 0.57951 0.28956 0.0
C1015 C 0.41979 0.55481 0.25602 0.0
C1016 C 0.49018 0.60907 0.26179 0.0
C1017 C 0.51 0.6233 0.32591 0.0
N1018 N 0.44219 0.57217 0.2588 0.0
N1019 N 0.48768 0.60608 0.32244 0.0
H1020 H 0.86036 0.44726 0.24825 0.0
H1021 H 0.87434 0.35038 0.34626 0.0
H1022 H 0.85146 0.43675 0.35726 0.0
H1023 H 0.87717 0.3579 0.23658 0.0
H1024 H 0.86777 0.38299 0.35132 0.0
H1025 H 0.86875 0.41599 0.24433 0.0
C1026 C 0.86025 0.43844 0.27148 0.0
C1027 C 0.85506 0.44461 0.30318 0.0
C1028 C 0.86983 0.37752 0.32616 0.0
C1029 C 0.86464 0.40853 0.29871 0.0
C1030 C 0.87358 0.35888 0.32319 0.0
C1031 C 0.87629 0.35134 0.29088 0.0
C1032 C 0.86883 0.3888 0.29664 0.0
C1033 C 0.87514 0.36305 0.26198 0.0
C1034 C 0.86501 0.4205 0.26915 0.0
C1035 C 0.85532 0.43256 0.33231 0.0
N1036 N 0.87151 0.3812 0.26557 0.0
N1037 N 0.85995 0.41501 0.32935 0.0
H1038 H 0.44896 0.82679 0.23649 0.0
H1039 H 0.35817 0.8267 0.36378 0.0
H1040 H 0.45245 0.8204 0.34568 0.0
H1041 H 0.34597 0.81453 0.25549 0.0
H1042 H 0.39045 0.81988 0.35839 0.0
H1043 H 0.40914 0.81777 0.2428 0.0
C1044 C 0.44124 0.82305 0.26168 0.0
C1045 C 0.45424 0.82481 0.29063 0.0
C1046 C 0.38043 0.81829 0.33592 0.0
C1047 C 0.40884 0.81486 0.29814 0.0
C1048 C 0.36196 0.82214 0.33903 0.0
C1049 C 0.34963 0.82166 0.30996 0.0
C1050 C 0.38672 0.81421 0.30348 0.0
C1051 C 0.35525 0.81553 0.27854 0.0
C1052 C 0.4185 0.81793 0.26532 0.0
C1053 C 0.44325 0.81964 0.32265 0.0
N1054 N 0.37363 0.81247 0.27603 0.0
N1055 N 0.42136 0.81534 0.32561 0.0
H1056 H 0.53139 0.41926 0.22785 0.0
H1057 H 0.42662 0.34126 0.3551 0.0
H1058 H 0.5352 0.42554 0.33776 0.0
H1059 H 0.42088 0.33508 0.24529 0.0
H1060 H 0.4669 0.37177 0.34881 0.0
H1061 H 0.49103 0.38801 0.23316 0.0
C1062 C 0.52378 0.41412 0.25302 0.0
C1063 C 0.53673 0.42506 0.28236 0.0
C1064 C 0.45684 0.36372 0.32607 0.0
C1065 C 0.49074 0.38939 0.28864 0.0
C1066 C 0.43383 0.34626 0.32968 0.0
C1067 C 0.42031 0.3356 0.30072 0.0
C1068 C 0.46645 0.37061 0.29326 0.0
C1069 C 0.43062 0.34283 0.26838 0.0
C1070 C 0.50077 0.39629 0.25606 0.0
C1071 C 0.52596 0.41767 0.31436 0.0
N1072 N 0.45305 0.3599 0.26552 0.0
N1073 N 0.50367 0.40035 0.31661 0.0
H1074 H 0.07148 0.62511 0.23468 0.0
H1075 H 0.09621 0.54423 0.35722 0.0
H1076 H 0.07294 0.63014 0.3447 0.0
H1077 H 0.09223 0.53833 0.24729 0.0
H1078 H 0.08719 0.57542 0.35359 0.0
H1079 H 0.07882 0.59295 0.23909 0.0
C1080 C 0.07333 0.61947 0.25975 0.0
C1081 C 0.07162 0.63038 0.28933 0.0
C1082 C 0.08824 0.56721 0.3303 0.0
C1083 C 0.08002 0.59355 0.29463 0.0
C1084 C 0.09336 0.5494 0.33239 0.0
C1085 C 0.09505 0.53868 0.30255 0.0
C1086 C 0.08483 0.57432 0.29817 0.0
C1087 C 0.09118 0.54611 0.27102 0.0
C1088 C 0.0775 0.60108 0.26228 0.0
C1089 C 0.07414 0.62227 0.32117 0.0
N1090 N 0.08633 0.56346 0.26968 0.0
N1091 N 0.07824 0.60438 0.32297 0.0
H1092 H 0.4472 0.82687 0.86154 0.0
H1093 H 0.35535 0.82608 0.73683 0.0
H1094 H 0.44817 0.81729 0.75259 0.0
H1095 H 0.34517 0.81729 0.84589 0.0
H1096 H 0.38692 0.81819 0.74171 0.0
H1097 H 0.40755 0.8186 0.8568 0.0
C1098 C 0.43895 0.82255 0.83676 0.0
C1099 C 0.45121 0.82326 0.80736 0.0
C1100 C 0.37749 0.81757 0.76449 0.0
C1101 C 0.40603 0.81418 0.80162 0.0
C1102 C 0.35943 0.82206 0.76168 0.0
C1103 C 0.34788 0.82282 0.79105 0.0
C1104 C 0.38418 0.81413 0.79692 0.0
C1105 C 0.35385 0.81732 0.82258 0.0
C1106 C 0.41631 0.81788 0.83402 0.0
C1107 C 0.43956 0.81738 0.77591 0.0
N1108 N 0.37184 0.81364 0.82476 0.0
N1109 N 0.4178 0.81354 0.77378 0.0
H1110 H 0.54101 0.41772 0.74237 0.0
H1111 H 0.42371 0.34288 0.7304 0.0
H1112 H 0.52928 0.42461 0.84907 0.0
H1113 H 0.42505 0.33528 0.83966 0.0
H1114 H 0.46396 0.37339 0.73207 0.0
H1115 H 0.50134 0.38703 0.73671 0.0
C1116 C 0.52995 0.41298 0.76463 0.0
C1117 C 0.53847 0.42403 0.7962 0.0
C1118 C 0.45576 0.36475 0.75566 0.0
C1119 C 0.49227 0.38909 0.78952 0.0
C1120 C 0.4326 0.3474 0.7547 0.0
C1121 C 0.42102 0.33634 0.78485 0.0
C1122 C 0.4676 0.37091 0.78699 0.0
C1123 C 0.43332 0.34325 0.81572 0.0
C1124 C 0.50707 0.39549 0.76124 0.0
C1125 C 0.52339 0.41667 0.82421 0.0
N1126 N 0.45595 0.3601 0.81598 0.0
N1127 N 0.50095 0.39966 0.82019 0.0
H1128 H 0.07283 0.62719 0.85739 0.0
H1129 H 0.098 0.54773 0.73123 0.0
H1130 H 0.07495 0.63377 0.74758 0.0
H1131 H 0.0933 0.54043 0.84097 0.0
H1132 H 0.0893 0.57912 0.73621 0.0
H1133 H 0.08036 0.59521 0.85152 0.0
C1134 C 0.07489 0.62193 0.83206 0.0
C1135 C 0.07326 0.63321 0.80297 0.0
C1136 C 0.09013 0.57056 0.75914 0.0
C1137 C 0.08186 0.59656 0.796 0.0
C1138 C 0.09506 0.55264 0.7563 0.0
C1139 C 0.09645 0.54145 0.78569 0.0
C1140 C 0.0866 0.57732 0.7916 0.0
C1141 C 0.09249 0.54856 0.81755 0.0
C1142 C 0.07916 0.60364 0.82869 0.0
C1143 C 0.07606 0.62559 0.77076 0.0
N1144 N 0.08782 0.56602 0.81963 0.0
N1145 N 0.08024 0.60777 0.76814 0.0
H1146 H 0.59423 0.15004 0.73863 0.0
H1147 H 0.50391 0.15003 0.8667 0.0
H1148 H 0.6056 0.15926 0.84743 0.0
H1149 H 0.50195 0.15972 0.75806 0.0
H1150 H 0.5434 0.15804 0.8606 0.0
H1151 H 0.56276 0.15805 0.74479 0.0
C1152 C 0.59043 0.15418 0.76368 0.0
C1153 C 0.60228 0.15351 0.79261 0.0
C1154 C 0.53447 0.15884 0.83819 0.0
C1155 C 0.56613 0.16235 0.79995 0.0
C1156 C 0.51192 0.15432 0.84171 0.0
C1157 C 0.49941 0.15372 0.81279 0.0
C1158 C 0.54441 0.16247 0.80548 0.0
C1159 C 0.51076 0.15956 0.78103 0.0
C1160 C 0.57243 0.15873 0.76722 0.0
C1161 C 0.59667 0.15914 0.82444 0.0
N1162 N 0.53243 0.16323 0.77814 0.0
N1163 N 0.57875 0.1629 0.82734 0.0
H1164 H 0.41002 0.5479 0.85704 0.0
H1165 H 0.51544 0.62706 0.73155 0.0
H1166 H 0.40758 0.54073 0.74725 0.0
H1167 H 0.52025 0.63294 0.84144 0.0
H1168 H 0.47537 0.59589 0.73717 0.0
H1169 H 0.45027 0.57946 0.85236 0.0
C1170 C 0.41793 0.55288 0.83203 0.0
C1171 C 0.40537 0.54166 0.80253 0.0
C1172 C 0.48519 0.60401 0.76008 0.0
C1173 C 0.45123 0.57771 0.79696 0.0
C1174 C 0.50807 0.62187 0.75685 0.0
C1175 C 0.52126 0.63263 0.78604 0.0
C1176 C 0.47539 0.59686 0.79273 0.0
C1177 C 0.51076 0.62513 0.8182 0.0
C1178 C 0.44087 0.5709 0.82935 0.0
C1179 C 0.4165 0.54886 0.77075 0.0
N1180 N 0.48846 0.60769 0.82068 0.0
N1181 N 0.43871 0.5664 0.76884 0.0
H1182 H 0.87381 0.34779 0.74447 0.0
H1183 H 0.86147 0.44639 0.84137 0.0
H1184 H 0.87784 0.35695 0.85394 0.0
H1185 H 0.85171 0.43472 0.73262 0.0
H1186 H 0.8695 0.41493 0.84551 0.0
H1187 H 0.86725 0.38038 0.73901 0.0
C1188 C 0.8733 0.35663 0.7674 0.0
C1189 C 0.87638 0.34958 0.79977 0.0
C1190 C 0.86565 0.41922 0.82069 0.0
C1191 C 0.86895 0.38701 0.79356 0.0
C1192 C 0.86109 0.43727 0.81824 0.0
C1193 C 0.85577 0.44318 0.78655 0.0
C1194 C 0.86494 0.40685 0.79129 0.0
C1195 C 0.85569 0.43075 0.75755 0.0
C1196 C 0.86956 0.37526 0.7642 0.0
C1197 C 0.87552 0.36171 0.8285 0.0
N1198 N 0.86013 0.41308 0.76063 0.0
N1199 N 0.87191 0.37984 0.82469 0.0
loop_
_geom_bond_atom_site_label_1
_geom_bond_atom_site_label_2
_geom_bond_distance
_geom_bond_site_symmetry_2
_ccdc_geom_bond_type
Zn0 O3 2.031 . S
Zn0 O5 2.049 . S
Zn0 O10 2.067 . S
Zn1 O2 1.962 . S
Zn1 O4 1.986 . S
Zn1 O6 1.996 . S
Zn1 O9 1.943 . S
O2 Zn1 1.962 . S
O2 C7 1.254 . S
O3 Zn0 2.031 . S
O3 C7 1.269 . S
O4 Zn1 1.986 . S
O4 C11 1.262 . S
O5 Zn0 2.049 . S
O5 C13 1.260 . S
O6 Zn1 1.996 . S
O6 C13 1.257 . S
C7 O2 1.254 . S
C7 O3 1.269 . S
C8 O9 1.249 . S
C8 O10 1.270 . S
O9 Zn1 1.943 . S
O9 C8 1.249 . S
O10 Zn0 2.067 . S
O10 C8 1.270 . S
C11 O4 1.262 . S
C11 O12 1.232 . S
O12 C11 1.232 . S
C13 O5 1.260 . S
C13 O6 1.257 . S
Zn14 O17 2.031 . S
Zn14 O19 2.049 . S
Zn14 O24 2.067 . S
Zn15 O16 1.962 . S
Zn15 O18 1.986 . S
Zn15 O20 1.996 . S
Zn15 O23 1.943 . S
O16 Zn15 1.962 . S
O16 C21 1.254 . S
O17 Zn14 2.031 . S
O17 C21 1.269 . S
O18 Zn15 1.986 . S
O18 C25 1.262 . S
O19 Zn14 2.049 . S
O19 C27 1.260 . S
O20 Zn15 1.996 . S
O20 C27 1.257 . S
C21 O16 1.254 . S
C21 O17 1.269 . S
C22 O23 1.249 . S
C22 O24 1.270 . S
O23 Zn15 1.943 . S
O23 C22 1.249 . S
O24 Zn14 2.067 . S
O24 C22 1.270 . S
C25 O18 1.262 . S
C25 O26 1.232 . S
O26 C25 1.232 . S
C27 O19 1.260 . S
C27 O20 1.257 . S
Zn28 O31 2.031 . S
Zn28 O33 2.049 . S
Zn28 O38 2.067 . S
Zn29 O30 1.962 . S
Zn29 O32 1.986 . S
Zn29 O34 1.996 . S
Zn29 O37 1.943 . S
O30 Zn29 1.962 . S
O30 C35 1.254 . S
O31 Zn28 2.031 . S
O31 C35 1.269 . S
O32 Zn29 1.986 . S
O32 C39 1.262 . S
O33 Zn28 2.049 . S
O33 C41 1.260 . S
O34 Zn29 1.996 . S
O34 C41 1.257 . S
C35 O30 1.254 . S
C35 O31 1.269 . S
C36 O37 1.249 . S
C36 O38 1.270 . S
O37 Zn29 1.943 . S
O37 C36 1.249 . S
O38 Zn28 2.067 . S
O38 C36 1.270 . S
C39 O32 1.262 . S
C39 O40 1.232 . S
O40 C39 1.232 . S
C41 O33 1.260 . S
C41 O34 1.257 . S
Zn42 O45 2.031 . S
Zn42 O47 2.049 . S
Zn42 O52 2.067 . S
Zn43 O44 1.962 . S
Zn43 O46 1.986 . S
Zn43 O48 1.996 . S
Zn43 O51 1.943 . S
O44 Zn43 1.962 . S
O44 C49 1.254 . S
O45 Zn42 2.031 . S
O45 C49 1.269 . S
O46 Zn43 1.986 . S
O46 C53 1.262 . S
O47 Zn42 2.049 . S
O47 C55 1.260 . S
O48 Zn43 1.996 . S
O48 C55 1.257 . S
C49 O44 1.254 . S
C49 O45 1.269 . S
C50 O51 1.249 . S
C50 O52 1.270 . S
O51 Zn43 1.943 . S
O51 C50 1.249 . S
O52 Zn42 2.067 . S
O52 C50 1.270 . S
C53 O46 1.262 . S
C53 O54 1.232 . S
O54 C53 1.232 . S
C55 O47 1.260 . S
C55 O48 1.257 . S
Zn56 O59 2.031 . S
Zn56 O61 2.049 . S
Zn56 O66 2.067 . S
Zn57 O58 1.962 . S
Zn57 O60 1.986 . S
Zn57 O62 1.996 . S
Zn57 O65 1.943 . S
O58 Zn57 1.962 . S
O58 C63 1.254 . S
O59 Zn56 2.031 . S
O59 C63 1.269 . S
O60 Zn57 1.986 . S
O60 C67 1.262 . S
O61 Zn56 2.049 . S
O61 C69 1.260 . S
O62 Zn57 1.996 . S
O62 C69 1.257 . S
C63 O58 1.254 . S
C63 O59 1.269 . S
C64 O65 1.249 . S
C64 O66 1.270 . S
O65 Zn57 1.943 . S
O65 C64 1.249 . S
O66 Zn56 2.067 . S
O66 C64 1.270 . S
C67 O60 1.262 . S
C67 O68 1.232 . S
O68 C67 1.232 . S
C69 O61 1.260 . S
C69 O62 1.257 . S
Zn70 O73 2.031 . S
Zn70 O75 2.049 . S
Zn70 O80 2.067 . S
Zn71 O72 1.962 . S
Zn71 O74 1.986 . S
Zn71 O76 1.996 . S
Zn71 O79 1.943 . S
O72 Zn71 1.962 . S
O72 C77 1.254 . S
O73 Zn70 2.031 . S
O73 C77 1.269 . S
O74 Zn71 1.986 . S
O74 C81 1.262 . S
O75 Zn70 2.049 . S
O75 C83 1.260 . S
O76 Zn71 1.996 . S
O76 C83 1.257 . S
C77 O72 1.254 . S
C77 O73 1.269 . S
C78 O79 1.249 . S
C78 O80 1.270 . S
O79 Zn71 1.943 . S
O79 C78 1.249 . S
O80 Zn70 2.067 . S
O80 C78 1.270 . S
C81 O74 1.262 . S
C81 O82 1.232 . S
O82 C81 1.232 . S
C83 O75 1.260 . S
C83 O76 1.257 . S
Zn84 O87 2.031 . S
Zn84 O89 2.049 . S
Zn84 O94 2.067 . S
Zn85 O86 1.962 . S
Zn85 O88 1.986 . S
Zn85 O90 1.996 . S
Zn85 O93 1.943 . S
O86 Zn85 1.962 . S
O86 C91 1.254 . S
O87 Zn84 2.031 . S
O87 C91 1.269 . S
O88 Zn85 1.986 . S
O88 C95 1.262 . S
O89 Zn84 2.049 . S
O89 C97 1.260 . S
O90 Zn85 1.996 . S
O90 C97 1.257 . S
C91 O86 1.254 . S
C91 O87 1.269 . S
C92 O93 1.249 . S
C92 O94 1.270 . S
O93 Zn85 1.943 . S
O93 C92 1.249 . S
O94 Zn84 2.067 . S
O94 C92 1.270 . S
C95 O88 1.262 . S
C95 O96 1.232 . S
O96 C95 1.232 . S
C97 O89 1.260 . S
C97 O90 1.257 . S
Zn98 O101 2.031 . S
Zn98 O103 2.049 . S
Zn98 O108 2.067 . S
Zn99 O100 1.962 . S
Zn99 O102 1.986 . S
Zn99 O104 1.996 . S
Zn99 O107 1.943 . S
O100 Zn99 1.962 . S
O100 C105 1.254 . S
O101 Zn98 2.031 . S
O101 C105 1.269 . S
O102 Zn99 1.986 . S
O102 C109 1.262 . S
O103 Zn98 2.049 . S
O103 C111 1.260 . S
O104 Zn99 1.996 . S
O104 C111 1.257 . S
C105 O100 1.254 . S
C105 O101 1.269 . S
C106 O107 1.249 . S
C106 O108 1.270 . S
O107 Zn99 1.943 . S
O107 C106 1.249 . S
O108 Zn98 2.067 . S
O108 C106 1.270 . S
C109 O102 1.262 . S
C109 O110 1.232 . S
O110 C109 1.232 . S
C111 O103 1.260 . S
C111 O104 1.257 . S
Zn112 O115 2.031 . S
Zn112 O117 2.049 . S
Zn112 O122 2.067 . S
Zn113 O114 1.962 . S
Zn113 O116 1.986 . S
Zn113 O118 1.996 . S
Zn113 O121 1.943 . S
O114 Zn113 1.962 . S
O114 C119 1.254 . S
O115 Zn112 2.031 . S
O115 C119 1.269 . S
O116 Zn113 1.986 . S
O116 C123 1.262 . S
O117 Zn112 2.049 . S
O117 C125 1.260 . S
O118 Zn113 1.996 . S
O118 C125 1.257 . S
C119 O114 1.254 . S
C119 O115 1.269 . S
C120 O121 1.249 . S
C120 O122 1.270 . S
O121 Zn113 1.943 . S
O121 C120 1.249 . S
O122 Zn112 2.067 . S
O122 C120 1.270 . S
C123 O116 1.262 . S
C123 O124 1.232 . S
O124 C123 1.232 . S
C125 O117 1.260 . S
C125 O118 1.257 . S
Zn126 O129 2.031 . S
Zn126 O131 2.049 . S
Zn126 O136 2.067 . S
Zn127 O128 1.962 . S
Zn127 O130 1.986 . S
Zn127 O132 1.996 . S
Zn127 O135 1.943 . S
O128 Zn127 1.962 . S
O128 C133 1.254 . S
O129 Zn126 2.031 . S
O129 C133 1.269 . S
O130 Zn127 1.986 . S
O130 C137 1.262 . S
O131 Zn126 2.049 . S
O131 C139 1.260 . S
O132 Zn127 1.996 . S
O132 C139 1.257 . S
C133 O128 1.254 . S
C133 O129 1.269 . S
C134 O135 1.249 . S
C134 O136 1.270 . S
O135 Zn127 1.943 . S
O135 C134 1.249 . S
O136 Zn126 2.067 . S
O136 C134 1.270 . S
C137 O130 1.262 . S
C137 O138 1.232 . S
O138 C137 1.232 . S
C139 O131 1.260 . S
C139 O132 1.257 . S
Zn140 O143 2.031 . S
Zn140 O145 2.049 . S
Zn140 O150 2.067 . S
Zn141 O142 1.962 . S
Zn141 O144 1.986 . S
Zn141 O146 1.996 . S
Zn141 O149 1.943 . S
O142 Zn141 1.962 . S
O142 C147 1.254 . S
O143 Zn140 2.031 . S
O143 C147 1.269 . S
O144 Zn141 1.986 . S
O144 C151 1.262 . S
O145 Zn140 2.049 . S
O145 C153 1.260 . S
O146 Zn141 1.996 . S
O146 C153 1.257 . S
C147 O142 1.254 . S
C147 O143 1.269 . S
C148 O149 1.249 . S
C148 O150 1.270 . S
O149 Zn141 1.943 . S
O149 C148 1.249 . S
O150 Zn140 2.067 . S
O150 C148 1.270 . S
C151 O144 1.262 . S
C151 O152 1.232 . S
O152 C151 1.232 . S
C153 O145 1.260 . S
C153 O146 1.257 . S
Zn154 O157 2.031 . S
Zn154 O159 2.049 . S
Zn154 O164 2.067 . S
Zn155 O156 1.962 . S
Zn155 O158 1.986 . S
Zn155 O160 1.996 . S
Zn155 O163 1.943 . S
O156 Zn155 1.962 . S
O156 C161 1.254 . S
O157 Zn154 2.031 . S
O157 C161 1.269 . S
O158 Zn155 1.986 . S
O158 C165 1.262 . S
O159 Zn154 2.049 . S
O159 C167 1.260 . S
O160 Zn155 1.996 . S
O160 C167 1.257 . S
C161 O156 1.254 . S
C161 O157 1.269 . S
C162 O163 1.249 . S
C162 O164 1.270 . S
O163 Zn155 1.943 . S
O163 C162 1.249 . S
O164 Zn154 2.067 . S
O164 C162 1.270 . S
C165 O158 1.262 . S
C165 O166 1.232 . S
O166 C165 1.232 . S
C167 O159 1.260 . S
C167 O160 1.257 . S
Zn168 O171 2.031 . S
Zn168 O173 2.049 . S
Zn168 O178 2.067 . S
Zn169 O170 1.962 . S
Zn169 O172 1.986 . S
Zn169 O174 1.996 . S
Zn169 O177 1.943 . S
O170 Zn169 1.962 . S
O170 C175 1.254 . S
O171 Zn168 2.031 . S
O171 C175 1.269 . S
O172 Zn169 1.986 . S
O172 C179 1.262 . S
O173 Zn168 2.049 . S
O173 C181 1.260 . S
O174 Zn169 1.996 . S
O174 C181 1.257 . S
C175 O170 1.254 . S
C175 O171 1.269 . S
C176 O177 1.249 . S
C176 O178 1.270 . S
O177 Zn169 1.943 . S
O177 C176 1.249 . S
O178 Zn168 2.067 . S
O178 C176 1.270 . S
C179 O172 1.262 . S
C179 O180 1.232 . S
O180 C179 1.232 . S
C181 O173 1.260 . S
C181 O174 1.257 . S
Zn182 O185 2.031 . S
Zn182 O187 2.049 . S
Zn182 O192 2.067 . S
Zn183 O184 1.962 . S
Zn183 O186 1.986 . S
Zn183 O188 1.996 . S
Zn183 O191 1.943 . S
O184 Zn183 1.962 . S
O184 C189 1.254 . S
O185 Zn182 2.031 . S
O185 C189 1.269 . S
O186 Zn183 1.986 . S
O186 C193 1.262 . S
O187 Zn182 2.049 . S
O187 C195 1.260 . S
O188 Zn183 1.996 . S
O188 C195 1.257 . S
C189 O184 1.254 . S
C189 O185 1.269 . S
C190 O191 1.249 . S
C190 O192 1.270 . S
O191 Zn183 1.943 . S
O191 C190 1.249 . S
O192 Zn182 2.067 . S
O192 C190 1.270 . S
C193 O186 1.262 . S
C193 O194 1.232 . S
O194 C193 1.232 . S
C195 O187 1.260 . S
C195 O188 1.257 . S
Zn196 O199 2.031 . S
Zn196 O201 2.049 . S
Zn196 O206 2.067 . S
Zn197 O198 1.962 . S
Zn197 O200 1.986 . S
Zn197 O202 1.996 . S
Zn197 O205 1.943 . S
O198 Zn197 1.962 . S
O198 C203 1.254 . S
O199 Zn196 2.031 . S
O199 C203 1.269 . S
O200 Zn197 1.986 . S
O200 C207 1.262 . S
O201 Zn196 2.049 . S
O201 C209 1.260 . S
O202 Zn197 1.996 . S
O202 C209 1.257 . S
C203 O198 1.254 . S
C203 O199 1.269 . S
C204 O205 1.249 . S
C204 O206 1.270 . S
O205 Zn197 1.943 . S
O205 C204 1.249 . S
O206 Zn196 2.067 . S
O206 C204 1.270 . S
C207 O200 1.262 . S
C207 O208 1.232 . S
O208 C207 1.232 . S
C209 O201 1.260 . S
C209 O202 1.257 . S
Zn210 O213 2.031 . S
Zn210 O215 2.049 . S
Zn210 O220 2.067 . S
Zn211 O212 1.962 . S
Zn211 O214 1.986 . S
Zn211 O216 1.996 . S
Zn211 O219 1.943 . S
O212 Zn211 1.962 . S
O212 C217 1.254 . S
O213 Zn210 2.031 . S
O213 C217 1.269 . S
O214 Zn211 1.986 . S
O214 C221 1.262 . S
O215 Zn210 2.049 . S
O215 C223 1.260 . S
O216 Zn211 1.996 . S
O216 C223 1.257 . S
C217 O212 1.254 . S
C217 O213 1.269 . S
C218 O219 1.249 . S
C218 O220 1.270 . S
O219 Zn211 1.943 . S
O219 C218 1.249 . S
O220 Zn210 2.067 . S
O220 C218 1.270 . S
C221 O214 1.262 . S
C221 O222 1.232 . S
O222 C221 1.232 . S
C223 O215 1.260 . S
C223 O216 1.257 . S
Zn224 O227 2.031 . S
Zn224 O229 2.049 . S
Zn224 O234 2.067 . S
Zn225 O226 1.962 . S
Zn225 O228 1.986 . S
Zn225 O230 1.996 . S
Zn225 O233 1.943 . S
O226 Zn225 1.962 . S
O226 C231 1.254 . S
O227 Zn224 2.031 . S
O227 C231 1.269 . S
O228 Zn225 1.986 . S
O228 C235 1.262 . S
O229 Zn224 2.049 . S
O229 C237 1.260 . S
O230 Zn225 1.996 . S
O230 C237 1.257 . S
C231 O226 1.254 . S
C231 O227 1.269 . S
C232 O233 1.249 . S
C232 O234 1.270 . S
O233 Zn225 1.943 . S
O233 C232 1.249 . S
O234 Zn224 2.067 . S
O234 C232 1.270 . S
C235 O228 1.262 . S
C235 O236 1.232 . S
O236 C235 1.232 . S
C237 O229 1.260 . S
C237 O230 1.257 . S
Zn238 O241 2.031 . S
Zn238 O243 2.049 . S
Zn238 O248 2.067 . S
Zn239 O240 1.962 . S
Zn239 O242 1.986 . S
Zn239 O244 1.996 . S
Zn239 O247 1.943 . S
O240 Zn239 1.962 . S
O240 C245 1.254 . S
O241 Zn238 2.031 . S
O241 C245 1.269 . S
O242 Zn239 1.986 . S
O242 C249 1.262 . S
O243 Zn238 2.049 . S
O243 C251 1.260 . S
O244 Zn239 1.996 . S
O244 C251 1.257 . S
C245 O240 1.254 . S
C245 O241 1.269 . S
C246 O247 1.249 . S
C246 O248 1.270 . S
O247 Zn239 1.943 . S
O247 C246 1.249 . S
O248 Zn238 2.067 . S
O248 C246 1.270 . S
C249 O242 1.262 . S
C249 O250 1.232 . S
O250 C249 1.232 . S
C251 O243 1.260 . S
C251 O244 1.257 . S
Zn252 O255 2.031 . S
Zn252 O257 2.049 . S
Zn252 O262 2.067 . S
Zn253 O254 1.962 . S
Zn253 O256 1.986 . S
Zn253 O258 1.996 . S
Zn253 O261 1.943 . S
O254 Zn253 1.962 . S
O254 C259 1.254 . S
O255 Zn252 2.031 . S
O255 C259 1.269 . S
O256 Zn253 1.986 . S
O256 C263 1.262 . S
O257 Zn252 2.049 . S
O257 C265 1.260 . S
O258 Zn253 1.996 . S
O258 C265 1.257 . S
C259 O254 1.254 . S
C259 O255 1.269 . S
C260 O261 1.249 . S
C260 O262 1.270 . S
O261 Zn253 1.943 . S
O261 C260 1.249 . S
O262 Zn252 2.067 . S
O262 C260 1.270 . S
C263 O256 1.262 . S
C263 O264 1.232 . S
O264 C263 1.232 . S
C265 O257 1.260 . S
C265 O258 1.257 . S
Zn266 O269 2.031 . S
Zn266 O271 2.049 . S
Zn266 O276 2.067 . S
Zn267 O268 1.962 . S
Zn267 O270 1.986 . S
Zn267 O272 1.996 . S
Zn267 O275 1.943 . S
O268 Zn267 1.962 . S
O268 C273 1.254 . S
O269 Zn266 2.031 . S
O269 C273 1.269 . S
O270 Zn267 1.986 . S
O270 C277 1.262 . S
O271 Zn266 2.049 . S
O271 C279 1.260 . S
O272 Zn267 1.996 . S
O272 C279 1.257 . S
C273 O268 1.254 . S
C273 O269 1.269 . S
C274 O275 1.249 . S
C274 O276 1.270 . S
O275 Zn267 1.943 . S
O275 C274 1.249 . S
O276 Zn266 2.067 . S
O276 C274 1.270 . S
C277 O270 1.262 . S
C277 O278 1.232 . S
O278 C277 1.232 . S
C279 O271 1.260 . S
C279 O272 1.257 . S
Zn280 O283 2.031 . S
Zn280 O285 2.049 . S
Zn280 O290 2.067 . S
Zn281 O282 1.962 . S
Zn281 O284 1.986 . S
Zn281 O286 1.996 . S
Zn281 O289 1.943 . S
O282 Zn281 1.962 . S
O282 C287 1.254 . S
O283 Zn280 2.031 . S
O283 C287 1.269 . S
O284 Zn281 1.986 . S
O284 C291 1.262 . S
O285 Zn280 2.049 . S
O285 C293 1.260 . S
O286 Zn281 1.996 . S
O286 C293 1.257 . S
C287 O282 1.254 . S
C287 O283 1.269 . S
C288 O289 1.249 . S
C288 O290 1.270 . S
O289 Zn281 1.943 . S
O289 C288 1.249 . S
O290 Zn280 2.067 . S
O290 C288 1.270 . S
C291 O284 1.262 . S
C291 O292 1.232 . S
O292 C291 1.232 . S
C293 O285 1.260 . S
C293 O286 1.257 . S
Zn294 O297 2.031 . S
Zn294 O299 2.049 . S
Zn294 O304 2.067 . S
Zn295 O296 1.962 . S
Zn295 O298 1.986 . S
Zn295 O300 1.996 . S
Zn295 O303 1.943 . S
O296 Zn295 1.962 . S
O296 C301 1.254 . S
O297 Zn294 2.031 . S
O297 C301 1.269 . S
O298 Zn295 1.986 . S
O298 C305 1.262 . S
O299 Zn294 2.049 . S
O299 C307 1.260 . S
O300 Zn295 1.996 . S
O300 C307 1.257 . S
C301 O296 1.254 . S
C301 O297 1.269 . S
C302 O303 1.249 . S
C302 O304 1.270 . S
O303 Zn295 1.943 . S
O303 C302 1.249 . S
O304 Zn294 2.067 . S
O304 C302 1.270 . S
C305 O298 1.262 . S
C305 O306 1.232 . S
O306 C305 1.232 . S
C307 O299 1.260 . S
C307 O300 1.257 . S
Zn308 O311 2.031 . S
Zn308 O313 2.049 . S
Zn308 O318 2.067 . S
Zn309 O310 1.962 . S
Zn309 O312 1.986 . S
Zn309 O314 1.996 . S
Zn309 O317 1.943 . S
O310 Zn309 1.962 . S
O310 C315 1.254 . S
O311 Zn308 2.031 . S
O311 C315 1.269 . S
O312 Zn309 1.986 . S
O312 C319 1.262 . S
O313 Zn308 2.049 . S
O313 C321 1.260 . S
O314 Zn309 1.996 . S
O314 C321 1.257 . S
C315 O310 1.254 . S
C315 O311 1.269 . S
C316 O317 1.249 . S
C316 O318 1.270 . S
O317 Zn309 1.943 . S
O317 C316 1.249 . S
O318 Zn308 2.067 . S
O318 C316 1.270 . S
C319 O312 1.262 . S
C319 O320 1.232 . S
O320 C319 1.232 . S
C321 O313 1.260 . S
C321 O314 1.257 . S
Zn322 O325 2.031 . S
Zn322 O327 2.049 . S
Zn322 O332 2.067 . S
Zn323 O324 1.962 . S
Zn323 O326 1.986 . S
Zn323 O328 1.996 . S
Zn323 O331 1.943 . S
O324 Zn323 1.962 . S
O324 C329 1.254 . S
O325 Zn322 2.031 . S
O325 C329 1.269 . S
O326 Zn323 1.986 . S
O326 C333 1.262 . S
O327 Zn322 2.049 . S
O327 C335 1.260 . S
O328 Zn323 1.996 . S
O328 C335 1.257 . S
C329 O324 1.254 . S
C329 O325 1.269 . S
C330 O331 1.249 . S
C330 O332 1.270 . S
O331 Zn323 1.943 . S
O331 C330 1.249 . S
O332 Zn322 2.067 . S
O332 C330 1.270 . S
C333 O326 1.262 . S
C333 O334 1.232 . S
O334 C333 1.232 . S
C335 O327 1.260 . S
C335 O328 1.257 . S
H336 C342 0.930 . S
H337 C346 0.930 . S
H338 C351 0.929 . S
H339 C349 0.929 . S
H340 C344 0.929 . S
H341 C350 0.929 . S
C342 H336 0.930 . S
C342 C343 1.367 . S
C342 C350 1.378 . S
C343 C342 1.367 . S
C343 C351 1.433 . S
C344 H340 0.929 . S
C344 C346 1.378 . S
C344 C348 1.350 . S
C345 C348 1.463 1_545 S
C345 C350 1.350 . S
C345 N353 1.427 . S
C346 H337 0.930 . S
C346 C344 1.378 . S
C346 C347 1.367 . S
C347 C346 1.367 . S
C347 C349 1.433 . S
C348 C344 1.350 . S
C348 C345 1.463 1_565 S
C348 N352 1.427 . S
C349 H339 0.929 . S
C349 C347 1.433 . S
C349 N352 1.384 . S
C350 H341 0.929 . S
C350 C342 1.378 . S
C350 C345 1.350 . S
C351 H338 0.929 . S
C351 C343 1.433 . S
C351 N353 1.384 . S
N352 C348 1.427 . S
N352 C349 1.384 . S
N353 C345 1.427 . S
N353 C351 1.384 . S
H354 C360 0.930 . S
H355 C364 0.930 . S
H356 C369 0.929 . S
H357 C367 0.929 . S
H358 C362 0.929 . S
H359 C368 0.929 . S
C360 H354 0.930 . S
C360 C361 1.367 . S
C360 C368 1.378 . S
C361 C360 1.367 . S
C361 C369 1.433 . S
C362 H358 0.929 . S
C362 C364 1.378 . S
C362 C366 1.350 . S
C363 C366 1.463 . S
C363 C368 1.350 . S
C363 N371 1.427 . S
C364 H355 0.930 . S
C364 C362 1.378 . S
C364 C365 1.367 . S
C365 C364 1.367 . S
C365 C367 1.433 . S
C366 C362 1.350 . S
C366 C363 1.463 . S
C366 N370 1.427 . S
C367 H357 0.929 . S
C367 C365 1.433 . S
C367 N370 1.384 . S
C368 H359 0.929 . S
C368 C360 1.378 . S
C368 C363 1.350 . S
C369 H356 0.929 . S
C369 C361 1.433 . S
C369 N371 1.384 . S
N370 C366 1.427 . S
N370 C367 1.384 . S
N371 C363 1.427 . S
N371 C369 1.384 . S
H372 C378 0.930 . S
H373 C382 0.930 . S
H374 C387 0.929 . S
H375 C385 0.929 . S
H376 C380 0.929 . S
H377 C386 0.929 . S
C378 H372 0.930 . S
C378 C379 1.367 . S
C378 C386 1.378 . S
C379 C378 1.367 . S
C379 C387 1.433 . S
C380 H376 0.929 . S
C380 C382 1.378 . S
C380 C384 1.350 . S
C381 C384 1.463 1_655 S
C381 C386 1.350 . S
C381 N389 1.427 . S
C382 H373 0.930 . S
C382 C380 1.378 . S
C382 C383 1.367 . S
C383 C382 1.367 . S
C383 C385 1.433 . S
C384 C380 1.350 . S
C384 C381 1.463 1_455 S
C384 N388 1.427 . S
C385 H375 0.929 . S
C385 C383 1.433 . S
C385 N388 1.384 . S
C386 H377 0.929 . S
C386 C378 1.378 . S
C386 C381 1.350 . S
C387 H374 0.929 . S
C387 C379 1.433 . S
C387 N389 1.384 . S
N388 C384 1.427 . S
N388 C385 1.384 . S
N389 C381 1.427 . S
N389 C387 1.384 . S
H390 C396 0.930 . S
H391 C400 0.930 . S
H392 C405 0.929 . S
H393 C403 0.929 . S
H394 C398 0.929 . S
H395 C404 0.929 . S
C396 H390 0.930 . S
C396 C397 1.367 . S
C396 C404 1.378 . S
C397 C396 1.367 . S
C397 C405 1.433 . S
C398 H394 0.929 . S
C398 C400 1.378 . S
C398 C402 1.350 . S
C399 C402 1.463 1_565 S
C399 C404 1.350 . S
C399 N407 1.427 . S
C400 H391 0.930 . S
C400 C398 1.378 . S
C400 C401 1.367 . S
C401 C400 1.367 . S
C401 C403 1.433 . S
C402 C398 1.350 . S
C402 C399 1.463 1_545 S
C402 N406 1.427 . S
C403 H393 0.929 . S
C403 C401 1.433 . S
C403 N406 1.384 . S
C404 H395 0.929 . S
C404 C396 1.378 . S
C404 C399 1.350 . S
C405 H392 0.929 . S
C405 C397 1.433 . S
C405 N407 1.384 . S
N406 C402 1.427 . S
N406 C403 1.384 . S
N407 C399 1.427 . S
N407 C405 1.384 . S
H408 C414 0.930 . S
H409 C418 0.930 . S
H410 C423 0.929 . S
H411 C421 0.929 . S
H412 C416 0.929 . S
H413 C422 0.929 . S
C414 H408 0.930 . S
C414 C415 1.367 . S
C414 C422 1.378 . S
C415 C414 1.367 . S
C415 C423 1.433 . S
C416 H412 0.929 . S
C416 C418 1.378 . S
C416 C420 1.350 . S
C417 C420 1.463 . S
C417 C422 1.350 . S
C417 N425 1.427 . S
C418 H409 0.930 . S
C418 C416 1.378 . S
C418 C419 1.367 . S
C419 C418 1.367 . S
C419 C421 1.433 . S
C420 C416 1.350 . S
C420 C417 1.463 . S
C420 N424 1.427 . S
C421 H411 0.929 . S
C421 C419 1.433 . S
C421 N424 1.384 . S
C422 H413 0.929 . S
C422 C414 1.378 . S
C422 C417 1.350 . S
C423 H410 0.929 . S
C423 C415 1.433 . S
C423 N425 1.384 . S
N424 C420 1.427 . S
N424 C421 1.384 . S
N425 C417 1.427 . S
N425 C423 1.384 . S
H426 C432 0.930 . S
H427 C436 0.930 . S
H428 C441 0.929 . S
H429 C439 0.929 . S
H430 C434 0.929 . S
H431 C440 0.929 . S
C432 H426 0.930 . S
C432 C433 1.367 . S
C432 C440 1.378 . S
C433 C432 1.367 . S
C433 C441 1.433 . S
C434 H430 0.929 . S
C434 C436 1.378 . S
C434 C438 1.350 . S
C435 C438 1.463 1_455 S
C435 C440 1.350 . S
C435 N443 1.427 . S
C436 H427 0.930 . S
C436 C434 1.378 . S
C436 C437 1.367 . S
C437 C436 1.367 . S
C437 C439 1.433 . S
C438 C434 1.350 . S
C438 C435 1.463 1_655 S
C438 N442 1.427 . S
C439 H429 0.929 . S
C439 C437 1.433 . S
C439 N442 1.384 . S
C440 H431 0.929 . S
C440 C432 1.378 . S
C440 C435 1.350 . S
C441 H428 0.929 . S
C441 C433 1.433 . S
C441 N443 1.384 . S
N442 C438 1.427 . S
N442 C439 1.384 . S
N443 C435 1.427 . S
N443 C441 1.384 . S
H444 C450 0.930 . S
H445 C454 0.930 . S
H446 C459 0.929 . S
H447 C457 0.929 . S
H448 C452 0.929 . S
H449 C458 0.929 . S
C450 H444 0.930 . S
C450 C451 1.367 . S
C450 C458 1.378 . S
C451 C450 1.367 . S
C451 C459 1.433 . S
C452 H448 0.929 . S
C452 C454 1.378 . S
C452 C456 1.350 . S
C453 C456 1.463 1_565 S
C453 C458 1.350 . S
C453 N461 1.427 . S
C454 H445 0.930 . S
C454 C452 1.378 . S
C454 C455 1.367 . S
C455 C454 1.367 . S
C455 C457 1.433 . S
C456 C452 1.350 . S
C456 C453 1.463 1_545 S
C456 N460 1.427 . S
C457 H447 0.929 . S
C457 C455 1.433 . S
C457 N460 1.384 . S
C458 H449 0.929 . S
C458 C450 1.378 . S
C458 C453 1.350 . S
C459 H446 0.929 . S
C459 C451 1.433 . S
C459 N461 1.384 . S
N460 C456 1.427 . S
N460 C457 1.384 . S
N461 C453 1.427 . S
N461 C459 1.384 . S
H462 C468 0.930 . S
H463 C472 0.930 . S
H464 C477 0.929 . S
H465 C475 0.929 . S
H466 C470 0.929 . S
H467 C476 0.929 . S
C468 H462 0.930 . S
C468 C469 1.367 . S
C468 C476 1.378 . S
C469 C468 1.367 . S
C469 C477 1.433 . S
C470 H466 0.929 . S
C470 C472 1.378 . S
C470 C474 1.350 . S
C471 C474 1.463 . S
C471 C476 1.350 . S
C471 N479 1.427 . S
C472 H463 0.930 . S
C472 C470 1.378 . S
C472 C473 1.367 . S
C473 C472 1.367 . S
C473 C475 1.433 . S
C474 C470 1.350 . S
C474 C471 1.463 . S
C474 N478 1.427 . S
C475 H465 0.929 . S
C475 C473 1.433 . S
C475 N478 1.384 . S
C476 H467 0.929 . S
C476 C468 1.378 . S
C476 C471 1.350 . S
C477 H464 0.929 . S
C477 C469 1.433 . S
C477 N479 1.384 . S
N478 C474 1.427 . S
N478 C475 1.384 . S
N479 C471 1.427 . S
N479 C477 1.384 . S
H480 C486 0.930 . S
H481 C490 0.930 . S
H482 C495 0.929 . S
H483 C493 0.929 . S
H484 C488 0.929 . S
H485 C494 0.929 . S
C486 H480 0.930 . S
C486 C487 1.367 . S
C486 C494 1.378 . S
C487 C486 1.367 . S
C487 C495 1.433 . S
C488 H484 0.929 . S
C488 C490 1.378 . S
C488 C492 1.350 . S
C489 C492 1.463 1_655 S
C489 C494 1.350 . S
C489 N497 1.427 . S
C490 H481 0.930 . S
C490 C488 1.378 . S
C490 C491 1.367 . S
C491 C490 1.367 . S
C491 C493 1.433 . S
C492 C488 1.350 . S
C492 C489 1.463 1_455 S
C492 N496 1.427 . S
C493 H483 0.929 . S
C493 C491 1.433 . S
C493 N496 1.384 . S
C494 H485 0.929 . S
C494 C486 1.378 . S
C494 C489 1.350 . S
C495 H482 0.929 . S
C495 C487 1.433 . S
C495 N497 1.384 . S
N496 C492 1.427 . S
N496 C493 1.384 . S
N497 C489 1.427 . S
N497 C495 1.384 . S
H498 C504 0.930 . S
H499 C508 0.930 . S
H500 C513 0.929 . S
H501 C511 0.929 . S
H502 C506 0.929 . S
H503 C512 0.929 . S
C504 H498 0.930 . S
C504 C505 1.367 . S
C504 C512 1.378 . S
C505 C504 1.367 . S
C505 C513 1.433 . S
C506 H502 0.929 . S
C506 C508 1.378 . S
C506 C510 1.350 . S
C507 C510 1.463 1_545 S
C507 C512 1.350 . S
C507 N515 1.427 . S
C508 H499 0.930 . S
C508 C506 1.378 . S
C508 C509 1.367 . S
C509 C508 1.367 . S
C509 C511 1.433 . S
C510 C506 1.350 . S
C510 C507 1.463 1_565 S
C510 N514 1.427 . S
C511 H501 0.929 . S
C511 C509 1.433 . S
C511 N514 1.384 . S
C512 H503 0.929 . S
C512 C504 1.378 . S
C512 C507 1.350 . S
C513 H500 0.929 . S
C513 C505 1.433 . S
C513 N515 1.384 . S
N514 C510 1.427 . S
N514 C511 1.384 . S
N515 C507 1.427 . S
N515 C513 1.384 . S
H516 C522 0.930 . S
H517 C526 0.930 . S
H518 C531 0.929 . S
H519 C529 0.929 . S
H520 C524 0.929 . S
H521 C530 0.929 . S
C522 H516 0.930 . S
C522 C523 1.367 . S
C522 C530 1.378 . S
C523 C522 1.367 . S
C523 C531 1.433 . S
C524 H520 0.929 . S
C524 C526 1.378 . S
C524 C528 1.350 . S
C525 C528 1.463 . S
C525 C530 1.350 . S
C525 N533 1.427 . S
C526 H517 0.930 . S
C526 C524 1.378 . S
C526 C527 1.367 . S
C527 C526 1.367 . S
C527 C529 1.433 . S
C528 C524 1.350 . S
C528 C525 1.463 . S
C528 N532 1.427 . S
C529 H519 0.929 . S
C529 C527 1.433 . S
C529 N532 1.384 . S
C530 H521 0.929 . S
C530 C522 1.378 . S
C530 C525 1.350 . S
C531 H518 0.929 . S
C531 C523 1.433 . S
C531 N533 1.384 . S
N532 C528 1.427 . S
N532 C529 1.384 . S
N533 C525 1.427 . S
N533 C531 1.384 . S
H534 C540 0.930 . S
H535 C544 0.930 . S
H536 C549 0.929 . S
H537 C547 0.929 . S
H538 C542 0.929 . S
H539 C548 0.929 . S
C540 H534 0.930 . S
C540 C541 1.367 . S
C540 C548 1.378 . S
C541 C540 1.367 . S
C541 C549 1.433 . S
C542 H538 0.929 . S
C542 C544 1.378 . S
C542 C546 1.350 . S
C543 C546 1.463 1_455 S
C543 C548 1.350 . S
C543 N551 1.427 . S
C544 H535 0.930 . S
C544 C542 1.378 . S
C544 C545 1.367 . S
C545 C544 1.367 . S
C545 C547 1.433 . S
C546 C542 1.350 . S
C546 C543 1.463 1_655 S
C546 N550 1.427 . S
C547 H537 0.929 . S
C547 C545 1.433 . S
C547 N550 1.384 . S
C548 H539 0.929 . S
C548 C540 1.378 . S
C548 C543 1.350 . S
C549 H536 0.929 . S
C549 C541 1.433 . S
C549 N551 1.384 . S
N550 C546 1.427 . S
N550 C547 1.384 . S
N551 C543 1.427 . S
N551 C549 1.384 . S
H552 C558 0.930 . S
H553 C562 0.930 . S
H554 C567 0.929 . S
H555 C565 0.929 . S
H556 C560 0.929 . S
H557 C566 0.929 . S
C558 H552 0.930 . S
C558 C559 1.367 . S
C558 C566 1.378 . S
C559 C558 1.367 . S
C559 C567 1.433 . S
C560 H556 0.929 . S
C560 C562 1.378 . S
C560 C564 1.350 . S
C561 C564 1.463 . S
C561 C566 1.350 . S
C561 N569 1.427 . S
C562 H553 0.930 . S
C562 C560 1.378 . S
C562 C563 1.367 . S
C563 C562 1.367 . S
C563 C565 1.433 . S
C564 C560 1.350 . S
C564 C561 1.463 . S
C564 N568 1.427 . S
C565 H555 0.929 . S
C565 C563 1.433 . S
C565 N568 1.384 . S
C566 H557 0.929 . S
C566 C558 1.378 . S
C566 C561 1.350 . S
C567 H554 0.929 . S
C567 C559 1.433 . S
C567 N569 1.384 . S
N568 C564 1.427 . S
N568 C565 1.384 . S
N569 C561 1.427 . S
N569 C567 1.384 . S
H570 C576 0.930 . S
H571 C580 0.930 . S
H572 C585 0.929 . S
H573 C583 0.929 . S
H574 C578 0.929 . S
H575 C584 0.929 . S
C576 H570 0.930 . S
C576 C577 1.367 . S
C576 C584 1.378 . S
C577 C576 1.367 . S
C577 C585 1.433 . S
C578 H574 0.929 . S
C578 C580 1.378 . S
C578 C582 1.350 . S
C579 C582 1.463 . S
C579 C584 1.350 . S
C579 N587 1.427 . S
C580 H571 0.930 . S
C580 C578 1.378 . S
C580 C581 1.367 . S
C581 C580 1.367 . S
C581 C583 1.433 . S
C582 C578 1.350 . S
C582 C579 1.463 . S
C582 N586 1.427 . S
C583 H573 0.929 . S
C583 C581 1.433 . S
C583 N586 1.384 . S
C584 H575 0.929 . S
C584 C576 1.378 . S
C584 C579 1.350 . S
C585 H572 0.929 . S
C585 C577 1.433 . S
C585 N587 1.384 . S
N586 C582 1.427 . S
N586 C583 1.384 . S
N587 C579 1.427 . S
N587 C585 1.384 . S
H588 C594 0.930 . S
H589 C598 0.930 . S
H590 C603 0.929 . S
H591 C601 0.929 . S
H592 C596 0.929 . S
H593 C602 0.929 . S
C594 H588 0.930 . S
C594 C595 1.367 . S
C594 C602 1.378 . S
C595 C594 1.367 . S
C595 C603 1.433 . S
C596 H592 0.929 . S
C596 C598 1.378 . S
C596 C600 1.350 . S
C597 C600 1.463 . S
C597 C602 1.350 . S
C597 N605 1.427 . S
C598 H589 0.930 . S
C598 C596 1.378 . S
C598 C599 1.367 . S
C599 C598 1.367 . S
C599 C601 1.433 . S
C600 C596 1.350 . S
C600 C597 1.463 . S
C600 N604 1.427 . S
C601 H591 0.929 . S
C601 C599 1.433 . S
C601 N604 1.384 . S
C602 H593 0.929 . S
C602 C594 1.378 . S
C602 C597 1.350 . S
C603 H590 0.929 . S
C603 C595 1.433 . S
C603 N605 1.384 . S
N604 C600 1.427 . S
N604 C601 1.384 . S
N605 C597 1.427 . S
N605 C603 1.384 . S
H606 C612 0.930 . S
H607 C616 0.930 . S
H608 C621 0.929 . S
H609 C619 0.929 . S
H610 C614 0.929 . S
H611 C620 0.929 . S
C612 H606 0.930 . S
C612 C613 1.367 . S
C612 C620 1.378 . S
C613 C612 1.367 . S
C613 C621 1.433 . S
C614 H610 0.929 . S
C614 C616 1.378 . S
C614 C618 1.350 . S
C615 C618 1.463 . S
C615 C620 1.350 . S
C615 N623 1.427 . S
C616 H607 0.930 . S
C616 C614 1.378 . S
C616 C617 1.367 . S
C617 C616 1.367 . S
C617 C619 1.433 . S
C618 C614 1.350 . S
C618 C615 1.463 . S
C618 N622 1.427 . S
C619 H609 0.929 . S
C619 C617 1.433 . S
C619 N622 1.384 . S
C620 H611 0.929 . S
C620 C612 1.378 . S
C620 C615 1.350 . S
C621 H608 0.929 . S
C621 C613 1.433 . S
C621 N623 1.384 . S
N622 C618 1.427 . S
N622 C619 1.384 . S
N623 C615 1.427 . S
N623 C621 1.384 . S
H624 C630 0.930 . S
H625 C634 0.930 . S
H626 C639 0.929 . S
H627 C637 0.929 . S
H628 C632 0.929 . S
H629 C638 0.929 . S
C630 H624 0.930 . S
C630 C631 1.367 . S
C630 C638 1.378 . S
C631 C630 1.367 . S
C631 C639 1.433 . S
C632 H628 0.929 . S
C632 C634 1.378 . S
C632 C636 1.350 . S
C633 C636 1.463 . S
C633 C638 1.350 . S
C633 N641 1.427 . S
C634 H625 0.930 . S
C634 C632 1.378 . S
C634 C635 1.367 . S
C635 C634 1.367 . S
C635 C637 1.433 . S
C636 C632 1.350 . S
C636 C633 1.463 . S
C636 N640 1.427 . S
C637 H627 0.929 . S
C637 C635 1.433 . S
C637 N640 1.384 . S
C638 H629 0.929 . S
C638 C630 1.378 . S
C638 C633 1.350 . S
C639 H626 0.929 . S
C639 C631 1.433 . S
C639 N641 1.384 . S
N640 C636 1.427 . S
N640 C637 1.384 . S
N641 C633 1.427 . S
N641 C639 1.384 . S
H642 C648 0.930 . S
H643 C652 0.930 . S
H644 C657 0.929 . S
H645 C655 0.929 . S
H646 C650 0.929 . S
H647 C656 0.929 . S
C648 H642 0.930 . S
C648 C649 1.367 . S
C648 C656 1.378 . S
C649 C648 1.367 . S
C649 C657 1.433 . S
C650 H646 0.929 . S
C650 C652 1.378 . S
C650 C654 1.350 . S
C651 C654 1.463 . S
C651 C656 1.350 . S
C651 N659 1.427 . S
C652 H643 0.930 . S
C652 C650 1.378 . S
C652 C653 1.367 . S
C653 C652 1.367 . S
C653 C655 1.433 . S
C654 C650 1.350 . S
C654 C651 1.463 . S
C654 N658 1.427 . S
C655 H645 0.929 . S
C655 C653 1.433 . S
C655 N658 1.384 . S
C656 H647 0.929 . S
C656 C648 1.378 . S
C656 C651 1.350 . S
C657 H644 0.929 . S
C657 C649 1.433 . S
C657 N659 1.384 . S
N658 C654 1.427 . S
N658 C655 1.384 . S
N659 C651 1.427 . S
N659 C657 1.384 . S
H660 C666 0.930 . S
H661 C670 0.930 . S
H662 C675 0.929 . S
H663 C673 0.929 . S
H664 C668 0.929 . S
H665 C674 0.929 . S
C666 H660 0.930 . S
C666 C667 1.367 . S
C666 C674 1.378 . S
C667 C666 1.367 . S
C667 C675 1.433 . S
C668 H664 0.929 . S
C668 C670 1.378 . S
C668 C672 1.350 . S
C669 C672 1.463 . S
C669 C674 1.350 . S
C669 N677 1.427 . S
C670 H661 0.930 . S
C670 C668 1.378 . S
C670 C671 1.367 . S
C671 C670 1.367 . S
C671 C673 1.433 . S
C672 C668 1.350 . S
C672 C669 1.463 . S
C672 N676 1.427 . S
C673 H663 0.929 . S
C673 C671 1.433 . S
C673 N676 1.384 . S
C674 H665 0.929 . S
C674 C666 1.378 . S
C674 C669 1.350 . S
C675 H662 0.929 . S
C675 C667 1.433 . S
C675 N677 1.384 . S
N676 C672 1.427 . S
N676 C673 1.384 . S
N677 C669 1.427 . S
N677 C675 1.384 . S
H678 C684 0.930 . S
H679 C688 0.930 . S
H680 C693 0.929 . S
H681 C691 0.929 . S
H682 C686 0.929 . S
H683 C692 0.929 . S
C684 H678 0.930 . S
C684 C685 1.367 . S
C684 C692 1.378 . S
C685 C684 1.367 . S
C685 C693 1.433 . S
C686 H682 0.929 . S
C686 C688 1.378 . S
C686 C690 1.350 . S
C687 C690 1.463 . S
C687 C692 1.350 . S
C687 N695 1.427 . S
C688 H679 0.930 . S
C688 C686 1.378 . S
C688 C689 1.367 . S
C689 C688 1.367 . S
C689 C691 1.433 . S
C690 C686 1.350 . S
C690 C687 1.463 . S
C690 N694 1.427 . S
C691 H681 0.929 . S
C691 C689 1.433 . S
C691 N694 1.384 . S
C692 H683 0.929 . S
C692 C684 1.378 . S
C692 C687 1.350 . S
C693 H680 0.929 . S
C693 C685 1.433 . S
C693 N695 1.384 . S
N694 C690 1.427 . S
N694 C691 1.384 . S
N695 C687 1.427 . S
N695 C693 1.384 . S
H696 C702 0.930 . S
H697 C706 0.930 . S
H698 C711 0.929 . S
H699 C709 0.929 . S
H700 C704 0.929 . S
H701 C710 0.929 . S
C702 H696 0.930 . S
C702 C703 1.367 . S
C702 C710 1.378 . S
C703 C702 1.367 . S
C703 C711 1.433 . S
C704 H700 0.929 . S
C704 C706 1.378 . S
C704 C708 1.350 . S
C705 C708 1.463 . S
C705 C710 1.350 . S
C705 N713 1.427 . S
C706 H697 0.930 . S
C706 C704 1.378 . S
C706 C707 1.367 . S
C707 C706 1.367 . S
C707 C709 1.433 . S
C708 C704 1.350 . S
C708 C705 1.463 . S
C708 N712 1.427 . S
C709 H699 0.929 . S
C709 C707 1.433 . S
C709 N712 1.384 . S
C710 H701 0.929 . S
C710 C702 1.378 . S
C710 C705 1.350 . S
C711 H698 0.929 . S
C711 C703 1.433 . S
C711 N713 1.384 . S
N712 C708 1.427 . S
N712 C709 1.384 . S
N713 C705 1.427 . S
N713 C711 1.384 . S
H714 C720 0.930 . S
H715 C724 0.930 . S
H716 C729 0.929 . S
H717 C727 0.929 . S
H718 C722 0.929 . S
H719 C728 0.929 . S
C720 H714 0.930 . S
C720 C721 1.367 . S
C720 C728 1.378 . S
C721 C720 1.367 . S
C721 C729 1.433 . S
C722 H718 0.929 . S
C722 C724 1.378 . S
C722 C726 1.350 . S
C723 C726 1.463 . S
C723 C728 1.350 . S
C723 N731 1.427 . S
C724 H715 0.930 . S
C724 C722 1.378 . S
C724 C725 1.367 . S
C725 C724 1.367 . S
C725 C727 1.433 . S
C726 C722 1.350 . S
C726 C723 1.463 . S
C726 N730 1.427 . S
C727 H717 0.929 . S
C727 C725 1.433 . S
C727 N730 1.384 . S
C728 H719 0.929 . S
C728 C720 1.378 . S
C728 C723 1.350 . S
C729 H716 0.929 . S
C729 C721 1.433 . S
C729 N731 1.384 . S
N730 C726 1.427 . S
N730 C727 1.384 . S
N731 C723 1.427 . S
N731 C729 1.384 . S
H732 C738 0.930 . S
H733 C742 0.930 . S
H734 C747 0.929 . S
H735 C745 0.929 . S
H736 C740 0.929 . S
H737 C746 0.929 . S
C738 H732 0.930 . S
C738 C739 1.367 . S
C738 C746 1.378 . S
C739 C738 1.367 . S
C739 C747 1.433 . S
C740 H736 0.929 . S
C740 C742 1.378 . S
C740 C744 1.350 . S
C741 C744 1.463 . S
C741 C746 1.350 . S
C741 N749 1.427 . S
C742 H733 0.930 . S
C742 C740 1.378 . S
C742 C743 1.367 . S
C743 C742 1.367 . S
C743 C745 1.433 . S
C744 C740 1.350 . S
C744 C741 1.463 . S
C744 N748 1.427 . S
C745 H735 0.929 . S
C745 C743 1.433 . S
C745 N748 1.384 . S
C746 H737 0.929 . S
C746 C738 1.378 . S
C746 C741 1.350 . S
C747 H734 0.929 . S
C747 C739 1.433 . S
C747 N749 1.384 . S
N748 C744 1.427 . S
N748 C745 1.384 . S
N749 C741 1.427 . S
N749 C747 1.384 . S
H750 C756 0.930 . S
H751 C760 0.930 . S
H752 C765 0.929 . S
H753 C763 0.929 . S
H754 C758 0.929 . S
H755 C764 0.929 . S
C756 H750 0.930 . S
C756 C757 1.367 . S
C756 C764 1.378 . S
C757 C756 1.367 . S
C757 C765 1.433 . S
C758 H754 0.929 . S
C758 C760 1.378 . S
C758 C762 1.350 . S
C759 C762 1.463 . S
C759 C764 1.350 . S
C759 N767 1.427 . S
C760 H751 0.930 . S
C760 C758 1.378 . S
C760 C761 1.367 . S
C761 C760 1.367 . S
C761 C763 1.433 . S
C762 C758 1.350 . S
C762 C759 1.463 . S
C762 N766 1.427 . S
C763 H753 0.929 . S
C763 C761 1.433 . S
C763 N766 1.384 . S
C764 H755 0.929 . S
C764 C756 1.378 . S
C764 C759 1.350 . S
C765 H752 0.929 . S
C765 C757 1.433 . S
C765 N767 1.384 . S
N766 C762 1.427 . S
N766 C763 1.384 . S
N767 C759 1.427 . S
N767 C765 1.384 . S
H768 C774 0.930 . S
H769 C778 0.930 . S
H770 C783 0.929 . S
H771 C781 0.929 . S
H772 C776 0.929 . S
H773 C782 0.929 . S
C774 H768 0.930 . S
C774 C775 1.367 . S
C774 C782 1.378 . S
C775 C774 1.367 . S
C775 C783 1.433 . S
C776 H772 0.929 . S
C776 C778 1.378 . S
C776 C780 1.350 . S
C777 C780 1.463 1_554 S
C777 C782 1.350 . S
C777 N785 1.427 . S
C778 H769 0.930 . S
C778 C776 1.378 . S
C778 C779 1.367 . S
C779 C778 1.367 . S
C779 C781 1.433 . S
C780 C776 1.350 . S
C780 C777 1.463 1_556 S
C780 N784 1.427 . S
C781 H771 0.929 . S
C781 C779 1.433 . S
C781 N784 1.384 . S
C782 H773 0.929 . S
C782 C774 1.378 . S
C782 C777 1.350 . S
C783 H770 0.929 . S
C783 C775 1.433 . S
C783 N785 1.384 . S
N784 C780 1.427 . S
N784 C781 1.384 . S
N785 C777 1.427 . S
N785 C783 1.384 . S
H786 C792 0.930 . S
H787 C796 0.930 . S
H788 C801 0.929 . S
H789 C799 0.929 . S
H790 C794 0.929 . S
H791 C800 0.929 . S
C792 H786 0.930 . S
C792 C793 1.367 . S
C792 C800 1.378 . S
C793 C792 1.367 . S
C793 C801 1.433 . S
C794 H790 0.929 . S
C794 C796 1.378 . S
C794 C798 1.350 . S
C795 C798 1.463 1_556 S
C795 C800 1.350 . S
C795 N803 1.427 . S
C796 H787 0.930 . S
C796 C794 1.378 . S
C796 C797 1.367 . S
C797 C796 1.367 . S
C797 C799 1.433 . S
C798 C794 1.350 . S
C798 C795 1.463 1_554 S
C798 N802 1.427 . S
C799 H789 0.929 . S
C799 C797 1.433 . S
C799 N802 1.384 . S
C800 H791 0.929 . S
C800 C792 1.378 . S
C800 C795 1.350 . S
C801 H788 0.929 . S
C801 C793 1.433 . S
C801 N803 1.384 . S
N802 C798 1.427 . S
N802 C799 1.384 . S
N803 C795 1.427 . S
N803 C801 1.384 . S
H804 C810 0.930 . S
H805 C814 0.930 . S
H806 C819 0.929 . S
H807 C817 0.929 . S
H808 C812 0.929 . S
H809 C818 0.929 . S
C810 H804 0.930 . S
C810 C811 1.367 . S
C810 C818 1.378 . S
C811 C810 1.367 . S
C811 C819 1.433 . S
C812 H808 0.929 . S
C812 C814 1.378 . S
C812 C816 1.350 . S
C813 C816 1.463 1_556 S
C813 C818 1.350 . S
C813 N821 1.427 . S
C814 H805 0.930 . S
C814 C812 1.378 . S
C814 C815 1.367 . S
C815 C814 1.367 . S
C815 C817 1.433 . S
C816 C812 1.350 . S
C816 C813 1.463 1_554 S
C816 N820 1.427 . S
C817 H807 0.929 . S
C817 C815 1.433 . S
C817 N820 1.384 . S
C818 H809 0.929 . S
C818 C810 1.378 . S
C818 C813 1.350 . S
C819 H806 0.929 . S
C819 C811 1.433 . S
C819 N821 1.384 . S
N820 C816 1.427 . S
N820 C817 1.384 . S
N821 C813 1.427 . S
N821 C819 1.384 . S
H822 C828 0.930 . S
H823 C832 0.930 . S
H824 C837 0.929 . S
H825 C835 0.929 . S
H826 C830 0.929 . S
H827 C836 0.929 . S
C828 H822 0.930 . S
C828 C829 1.367 . S
C828 C836 1.378 . S
C829 C828 1.367 . S
C829 C837 1.433 . S
C830 H826 0.929 . S
C830 C832 1.378 . S
C830 C834 1.350 . S
C831 C834 1.463 1_554 S
C831 C836 1.350 . S
C831 N839 1.427 . S
C832 H823 0.930 . S
C832 C830 1.378 . S
C832 C833 1.367 . S
C833 C832 1.367 . S
C833 C835 1.433 . S
C834 C830 1.350 . S
C834 C831 1.463 1_556 S
C834 N838 1.427 . S
C835 H825 0.929 . S
C835 C833 1.433 . S
C835 N838 1.384 . S
C836 H827 0.929 . S
C836 C828 1.378 . S
C836 C831 1.350 . S
C837 H824 0.929 . S
C837 C829 1.433 . S
C837 N839 1.384 . S
N838 C834 1.427 . S
N838 C835 1.384 . S
N839 C831 1.427 . S
N839 C837 1.384 . S
H840 C846 0.930 . S
H841 C850 0.930 . S
H842 C855 0.929 . S
H843 C853 0.929 . S
H844 C848 0.929 . S
H845 C854 0.929 . S
C846 H840 0.930 . S
C846 C847 1.367 . S
C846 C854 1.378 . S
C847 C846 1.367 . S
C847 C855 1.433 . S
C848 H844 0.929 . S
C848 C850 1.378 . S
C848 C852 1.350 . S
C849 C852 1.463 1_554 S
C849 C854 1.350 . S
C849 N857 1.427 . S
C850 H841 0.930 . S
C850 C848 1.378 . S
C850 C851 1.367 . S
C851 C850 1.367 . S
C851 C853 1.433 . S
C852 C848 1.350 . S
C852 C849 1.463 1_556 S
C852 N856 1.427 . S
C853 H843 0.929 . S
C853 C851 1.433 . S
C853 N856 1.384 . S
C854 H845 0.929 . S
C854 C846 1.378 . S
C854 C849 1.350 . S
C855 H842 0.929 . S
C855 C847 1.433 . S
C855 N857 1.384 . S
N856 C852 1.427 . S
N856 C853 1.384 . S
N857 C849 1.427 . S
N857 C855 1.384 . S
H858 C864 0.930 . S
H859 C868 0.930 . S
H860 C873 0.929 . S
H861 C871 0.929 . S
H862 C866 0.929 . S
H863 C872 0.929 . S
C864 H858 0.930 . S
C864 C865 1.367 . S
C864 C872 1.378 . S
C865 C864 1.367 . S
C865 C873 1.433 . S
C866 H862 0.929 . S
C866 C868 1.378 . S
C866 C870 1.350 . S
C867 C870 1.463 1_556 S
C867 C872 1.350 . S
C867 N875 1.427 . S
C868 H859 0.930 . S
C868 C866 1.378 . S
C868 C869 1.367 . S
C869 C868 1.367 . S
C869 C871 1.433 . S
C870 C866 1.350 . S
C870 C867 1.463 1_554 S
C870 N874 1.427 . S
C871 H861 0.929 . S
C871 C869 1.433 . S
C871 N874 1.384 . S
C872 H863 0.929 . S
C872 C864 1.378 . S
C872 C867 1.350 . S
C873 H860 0.929 . S
C873 C865 1.433 . S
C873 N875 1.384 . S
N874 C870 1.427 . S
N874 C871 1.384 . S
N875 C867 1.427 . S
N875 C873 1.384 . S
H876 C882 0.930 . S
H877 C886 0.930 . S
H878 C891 0.929 . S
H879 C889 0.929 . S
H880 C884 0.929 . S
H881 C890 0.929 . S
C882 H876 0.930 . S
C882 C883 1.367 . S
C882 C890 1.378 . S
C883 C882 1.367 . S
C883 C891 1.433 . S
C884 H880 0.929 . S
C884 C886 1.378 . S
C884 C888 1.350 . S
C885 C888 1.463 . S
C885 C890 1.350 . S
C885 N893 1.427 . S
C886 H877 0.930 . S
C886 C884 1.378 . S
C886 C887 1.367 . S
C887 C886 1.367 . S
C887 C889 1.433 . S
C888 C884 1.350 . S
C888 C885 1.463 . S
C888 N892 1.427 . S
C889 H879 0.929 . S
C889 C887 1.433 . S
C889 N892 1.384 . S
C890 H881 0.929 . S
C890 C882 1.378 . S
C890 C885 1.350 . S
C891 H878 0.929 . S
C891 C883 1.433 . S
C891 N893 1.384 . S
N892 C888 1.427 . S
N892 C889 1.384 . S
N893 C885 1.427 . S
N893 C891 1.384 . S
H894 C900 0.930 . S
H895 C904 0.930 . S
H896 C909 0.929 . S
H897 C907 0.929 . S
H898 C902 0.929 . S
H899 C908 0.929 . S
C900 H894 0.930 . S
C900 C901 1.367 . S
C900 C908 1.378 . S
C901 C900 1.367 . S
C901 C909 1.433 . S
C902 H898 0.929 . S
C902 C904 1.378 . S
C902 C906 1.350 . S
C903 C906 1.463 . S
C903 C908 1.350 . S
C903 N911 1.427 . S
C904 H895 0.930 . S
C904 C902 1.378 . S
C904 C905 1.367 . S
C905 C904 1.367 . S
C905 C907 1.433 . S
C906 C902 1.350 . S
C906 C903 1.463 . S
C906 N910 1.427 . S
C907 H897 0.929 . S
C907 C905 1.433 . S
C907 N910 1.384 . S
C908 H899 0.929 . S
C908 C900 1.378 . S
C908 C903 1.350 . S
C909 H896 0.929 . S
C909 C901 1.433 . S
C909 N911 1.384 . S
N910 C906 1.427 . S
N910 C907 1.384 . S
N911 C903 1.427 . S
N911 C909 1.384 . S
H912 C918 0.930 . S
H913 C922 0.930 . S
H914 C927 0.929 . S
H915 C925 0.929 . S
H916 C920 0.929 . S
H917 C926 0.929 . S
C918 H912 0.930 . S
C918 C919 1.367 . S
C918 C926 1.378 . S
C919 C918 1.367 . S
C919 C927 1.433 . S
C920 H916 0.929 . S
C920 C922 1.378 . S
C920 C924 1.350 . S
C921 C924 1.463 . S
C921 C926 1.350 . S
C921 N929 1.427 . S
C922 H913 0.930 . S
C922 C920 1.378 . S
C922 C923 1.367 . S
C923 C922 1.367 . S
C923 C925 1.433 . S
C924 C920 1.350 . S
C924 C921 1.463 . S
C924 N928 1.427 . S
C925 H915 0.929 . S
C925 C923 1.433 . S
C925 N928 1.384 . S
C926 H917 0.929 . S
C926 C918 1.378 . S
C926 C921 1.350 . S
C927 H914 0.929 . S
C927 C919 1.433 . S
C927 N929 1.384 . S
N928 C924 1.427 . S
N928 C925 1.384 . S
N929 C921 1.427 . S
N929 C927 1.384 . S
H930 C936 0.930 . S
H931 C940 0.930 . S
H932 C945 0.929 . S
H933 C943 0.929 . S
H934 C938 0.929 . S
H935 C944 0.929 . S
C936 H930 0.930 . S
C936 C937 1.367 . S
C936 C944 1.378 . S
C937 C936 1.367 . S
C937 C945 1.433 . S
C938 H934 0.929 . S
C938 C940 1.378 . S
C938 C942 1.350 . S
C939 C942 1.463 . S
C939 C944 1.350 . S
C939 N947 1.427 . S
C940 H931 0.930 . S
C940 C938 1.378 . S
C940 C941 1.367 . S
C941 C940 1.367 . S
C941 C943 1.433 . S
C942 C938 1.350 . S
C942 C939 1.463 . S
C942 N946 1.427 . S
C943 H933 0.929 . S
C943 C941 1.433 . S
C943 N946 1.384 . S
C944 H935 0.929 . S
C944 C936 1.378 . S
C944 C939 1.350 . S
C945 H932 0.929 . S
C945 C937 1.433 . S
C945 N947 1.384 . S
N946 C942 1.427 . S
N946 C943 1.384 . S
N947 C939 1.427 . S
N947 C945 1.384 . S
H948 C954 0.930 . S
H949 C958 0.930 . S
H950 C963 0.929 . S
H951 C961 0.929 . S
H952 C956 0.929 . S
H953 C962 0.929 . S
C954 H948 0.930 . S
C954 C955 1.367 . S
C954 C962 1.378 . S
C955 C954 1.367 . S
C955 C963 1.433 . S
C956 H952 0.929 . S
C956 C958 1.378 . S
C956 C960 1.350 . S
C957 C960 1.463 . S
C957 C962 1.350 . S
C957 N965 1.427 . S
C958 H949 0.930 . S
C958 C956 1.378 . S
C958 C959 1.367 . S
C959 C958 1.367 . S
C959 C961 1.433 . S
C960 C956 1.350 . S
C960 C957 1.463 . S
C960 N964 1.427 . S
C961 H951 0.929 . S
C961 C959 1.433 . S
C961 N964 1.384 . S
C962 H953 0.929 . S
C962 C954 1.378 . S
C962 C957 1.350 . S
C963 H950 0.929 . S
C963 C955 1.433 . S
C963 N965 1.384 . S
N964 C960 1.427 . S
N964 C961 1.384 . S
N965 C957 1.427 . S
N965 C963 1.384 . S
H966 C972 0.930 . S
H967 C976 0.930 . S
H968 C981 0.929 . S
H969 C979 0.929 . S
H970 C974 0.929 . S
H971 C980 0.929 . S
C972 H966 0.930 . S
C972 C973 1.367 . S
C972 C980 1.378 . S
C973 C972 1.367 . S
C973 C981 1.433 . S
C974 H970 0.929 . S
C974 C976 1.378 . S
C974 C978 1.350 . S
C975 C978 1.463 . S
C975 C980 1.350 . S
C975 N983 1.427 . S
C976 H967 0.930 . S
C976 C974 1.378 . S
C976 C977 1.367 . S
C977 C976 1.367 . S
C977 C979 1.433 . S
C978 C974 1.350 . S
C978 C975 1.463 . S
C978 N982 1.427 . S
C979 H969 0.929 . S
C979 C977 1.433 . S
C979 N982 1.384 . S
C980 H971 0.929 . S
C980 C972 1.378 . S
C980 C975 1.350 . S
C981 H968 0.929 . S
C981 C973 1.433 . S
C981 N983 1.384 . S
N982 C978 1.427 . S
N982 C979 1.384 . S
N983 C975 1.427 . S
N983 C981 1.384 . S
H984 C990 0.930 . S
H985 C994 0.930 . S
H986 C999 0.929 . S
H987 C997 0.929 . S
H988 C992 0.929 . S
H989 C998 0.929 . S
C990 H984 0.930 . S
C990 C991 1.367 . S
C990 C998 1.378 . S
C991 C990 1.367 . S
C991 C999 1.433 . S
C992 H988 0.929 . S
C992 C994 1.378 . S
C992 C996 1.350 . S
C993 C996 1.463 . S
C993 C998 1.350 . S
C993 N1001 1.427 . S
C994 H985 0.930 . S
C994 C992 1.378 . S
C994 C995 1.367 . S
C995 C994 1.367 . S
C995 C997 1.433 . S
C996 C992 1.350 . S
C996 C993 1.463 . S
C996 N1000 1.427 . S
C997 H987 0.929 . S
C997 C995 1.433 . S
C997 N1000 1.384 . S
C998 H989 0.929 . S
C998 C990 1.378 . S
C998 C993 1.350 . S
C999 H986 0.929 . S
C999 C991 1.433 . S
C999 N1001 1.384 . S
N1000 C996 1.427 . S
N1000 C997 1.384 . S
N1001 C993 1.427 . S
N1001 C999 1.384 . S
H1002 C1008 0.930 . S
H1003 C1012 0.930 . S
H1004 C1017 0.929 . S
H1005 C1015 0.929 . S
H1006 C1010 0.929 . S
H1007 C1016 0.929 . S
C1008 H1002 0.930 . S
C1008 C1009 1.367 . S
C1008 C1016 1.378 . S
C1009 C1008 1.367 . S
C1009 C1017 1.433 . S
C1010 H1006 0.929 . S
C1010 C1012 1.378 . S
C1010 C1014 1.350 . S
C1011 C1014 1.463 . S
C1011 C1016 1.350 . S
C1011 N1019 1.427 . S
C1012 H1003 0.930 . S
C1012 C1010 1.378 . S
C1012 C1013 1.367 . S
C1013 C1012 1.367 . S
C1013 C1015 1.433 . S
C1014 C1010 1.350 . S
C1014 C1011 1.463 . S
C1014 N1018 1.427 . S
C1015 H1005 0.929 . S
C1015 C1013 1.433 . S
C1015 N1018 1.384 . S
C1016 H1007 0.929 . S
C1016 C1008 1.378 . S
C1016 C1011 1.350 . S
C1017 H1004 0.929 . S
C1017 C1009 1.433 . S
C1017 N1019 1.384 . S
N1018 C1014 1.427 . S
N1018 C1015 1.384 . S
N1019 C1011 1.427 . S
N1019 C1017 1.384 . S
H1020 C1026 0.930 . S
H1021 C1030 0.930 . S
H1022 C1035 0.929 . S
H1023 C1033 0.929 . S
H1024 C1028 0.929 . S
H1025 C1034 0.929 . S
C1026 H1020 0.930 . S
C1026 C1027 1.367 . S
C1026 C1034 1.378 . S
C1027 C1026 1.367 . S
C1027 C1035 1.433 . S
C1028 H1024 0.929 . S
C1028 C1030 1.378 . S
C1028 C1032 1.350 . S
C1029 C1032 1.463 . S
C1029 C1034 1.350 . S
C1029 N1037 1.427 . S
C1030 H1021 0.930 . S
C1030 C1028 1.378 . S
C1030 C1031 1.367 . S
C1031 C1030 1.367 . S
C1031 C1033 1.433 . S
C1032 C1028 1.350 . S
C1032 C1029 1.463 . S
C1032 N1036 1.427 . S
C1033 H1023 0.929 . S
C1033 C1031 1.433 . S
C1033 N1036 1.384 . S
C1034 H1025 0.929 . S
C1034 C1026 1.378 . S
C1034 C1029 1.350 . S
C1035 H1022 0.929 . S
C1035 C1027 1.433 . S
C1035 N1037 1.384 . S
N1036 C1032 1.427 . S
N1036 C1033 1.384 . S
N1037 C1029 1.427 . S
N1037 C1035 1.384 . S
H1038 C1044 0.930 . S
H1039 C1048 0.930 . S
H1040 C1053 0.929 . S
H1041 C1051 0.929 . S
H1042 C1046 0.929 . S
H1043 C1052 0.929 . S
C1044 H1038 0.930 . S
C1044 C1045 1.367 . S
C1044 C1052 1.378 . S
C1045 C1044 1.367 . S
C1045 C1053 1.433 . S
C1046 H1042 0.929 . S
C1046 C1048 1.378 . S
C1046 C1050 1.350 . S
C1047 C1050 1.463 . S
C1047 C1052 1.350 . S
C1047 N1055 1.427 . S
C1048 H1039 0.930 . S
C1048 C1046 1.378 . S
C1048 C1049 1.367 . S
C1049 C1048 1.367 . S
C1049 C1051 1.433 . S
C1050 C1046 1.350 . S
C1050 C1047 1.463 . S
C1050 N1054 1.427 . S
C1051 H1041 0.929 . S
C1051 C1049 1.433 . S
C1051 N1054 1.384 . S
C1052 H1043 0.929 . S
C1052 C1044 1.378 . S
C1052 C1047 1.350 . S
C1053 H1040 0.929 . S
C1053 C1045 1.433 . S
C1053 N1055 1.384 . S
N1054 C1050 1.427 . S
N1054 C1051 1.384 . S
N1055 C1047 1.427 . S
N1055 C1053 1.384 . S
H1056 C1062 0.930 . S
H1057 C1066 0.930 . S
H1058 C1071 0.929 . S
H1059 C1069 0.929 . S
H1060 C1064 0.929 . S
H1061 C1070 0.929 . S
C1062 H1056 0.930 . S
C1062 C1063 1.367 . S
C1062 C1070 1.378 . S
C1063 C1062 1.367 . S
C1063 C1071 1.433 . S
C1064 H1060 0.929 . S
C1064 C1066 1.378 . S
C1064 C1068 1.350 . S
C1065 C1068 1.463 . S
C1065 C1070 1.350 . S
C1065 N1073 1.427 . S
C1066 H1057 0.930 . S
C1066 C1064 1.378 . S
C1066 C1067 1.367 . S
C1067 C1066 1.367 . S
C1067 C1069 1.433 . S
C1068 C1064 1.350 . S
C1068 C1065 1.463 . S
C1068 N1072 1.427 . S
C1069 H1059 0.929 . S
C1069 C1067 1.433 . S
C1069 N1072 1.384 . S
C1070 H1061 0.929 . S
C1070 C1062 1.378 . S
C1070 C1065 1.350 . S
C1071 H1058 0.929 . S
C1071 C1063 1.433 . S
C1071 N1073 1.384 . S
N1072 C1068 1.427 . S
N1072 C1069 1.384 . S
N1073 C1065 1.427 . S
N1073 C1071 1.384 . S
H1074 C1080 0.930 . S
H1075 C1084 0.930 . S
H1076 C1089 0.929 . S
H1077 C1087 0.929 . S
H1078 C1082 0.929 . S
H1079 C1088 0.929 . S
C1080 H1074 0.930 . S
C1080 C1081 1.367 . S
C1080 C1088 1.378 . S
C1081 C1080 1.367 . S
C1081 C1089 1.433 . S
C1082 H1078 0.929 . S
C1082 C1084 1.378 . S
C1082 C1086 1.350 . S
C1083 C1086 1.463 . S
C1083 C1088 1.350 . S
C1083 N1091 1.427 . S
C1084 H1075 0.930 . S
C1084 C1082 1.378 . S
C1084 C1085 1.367 . S
C1085 C1084 1.367 . S
C1085 C1087 1.433 . S
C1086 C1082 1.350 . S
C1086 C1083 1.463 . S
C1086 N1090 1.427 . S
C1087 H1077 0.929 . S
C1087 C1085 1.433 . S
C1087 N1090 1.384 . S
C1088 H1079 0.929 . S
C1088 C1080 1.378 . S
C1088 C1083 1.350 . S
C1089 H1076 0.929 . S
C1089 C1081 1.433 . S
C1089 N1091 1.384 . S
N1090 C1086 1.427 . S
N1090 C1087 1.384 . S
N1091 C1083 1.427 . S
N1091 C1089 1.384 . S
H1092 C1098 0.930 . S
H1093 C1102 0.930 . S
H1094 C1107 0.929 . S
H1095 C1105 0.929 . S
H1096 C1100 0.929 . S
H1097 C1106 0.929 . S
C1098 H1092 0.930 . S
C1098 C1099 1.367 . S
C1098 C1106 1.378 . S
C1099 C1098 1.367 . S
C1099 C1107 1.433 . S
C1100 H1096 0.929 . S
C1100 C1102 1.378 . S
C1100 C1104 1.350 . S
C1101 C1104 1.463 . S
C1101 C1106 1.350 . S
C1101 N1109 1.427 . S
C1102 H1093 0.930 . S
C1102 C1100 1.378 . S
C1102 C1103 1.367 . S
C1103 C1102 1.367 . S
C1103 C1105 1.433 . S
C1104 C1100 1.350 . S
C1104 C1101 1.463 . S
C1104 N1108 1.427 . S
C1105 H1095 0.929 . S
C1105 C1103 1.433 . S
C1105 N1108 1.384 . S
C1106 H1097 0.929 . S
C1106 C1098 1.378 . S
C1106 C1101 1.350 . S
C1107 H1094 0.929 . S
C1107 C1099 1.433 . S
C1107 N1109 1.384 . S
N1108 C1104 1.427 . S
N1108 C1105 1.384 . S
N1109 C1101 1.427 . S
N1109 C1107 1.384 . S
H1110 C1116 0.930 . S
H1111 C1120 0.930 . S
H1112 C1125 0.929 . S
H1113 C1123 0.929 . S
H1114 C1118 0.929 . S
H1115 C1124 0.929 . S
C1116 H1110 0.930 . S
C1116 C1117 1.367 . S
C1116 C1124 1.378 . S
C1117 C1116 1.367 . S
C1117 C1125 1.433 . S
C1118 H1114 0.929 . S
C1118 C1120 1.378 . S
C1118 C1122 1.350 . S
C1119 C1122 1.463 . S
C1119 C1124 1.350 . S
C1119 N1127 1.427 . S
C1120 H1111 0.930 . S
C1120 C1118 1.378 . S
C1120 C1121 1.367 . S
C1121 C1120 1.367 . S
C1121 C1123 1.433 . S
C1122 C1118 1.350 . S
C1122 C1119 1.463 . S
C1122 N1126 1.427 . S
C1123 H1113 0.929 . S
C1123 C1121 1.433 . S
C1123 N1126 1.384 . S
C1124 H1115 0.929 . S
C1124 C1116 1.378 . S
C1124 C1119 1.350 . S
C1125 H1112 0.929 . S
C1125 C1117 1.433 . S
C1125 N1127 1.384 . S
N1126 C1122 1.427 . S
N1126 C1123 1.384 . S
N1127 C1119 1.427 . S
N1127 C1125 1.384 . S
H1128 C1134 0.930 . S
H1129 C1138 0.930 . S
H1130 C1143 0.929 . S
H1131 C1141 0.929 . S
H1132 C1136 0.929 . S
H1133 C1142 0.929 . S
C1134 H1128 0.930 . S
C1134 C1135 1.367 . S
C1134 C1142 1.378 . S
C1135 C1134 1.367 . S
C1135 C1143 1.433 . S
C1136 H1132 0.929 . S
C1136 C1138 1.378 . S
C1136 C1140 1.350 . S
C1137 C1140 1.463 . S
C1137 C1142 1.350 . S
C1137 N1145 1.427 . S
C1138 H1129 0.930 . S
C1138 C1136 1.378 . S
C1138 C1139 1.367 . S
C1139 C1138 1.367 . S
C1139 C1141 1.433 . S
C1140 C1136 1.350 . S
C1140 C1137 1.463 . S
C1140 N1144 1.427 . S
C1141 H1131 0.929 . S
C1141 C1139 1.433 . S
C1141 N1144 1.384 . S
C1142 H1133 0.929 . S
C1142 C1134 1.378 . S
C1142 C1137 1.350 . S
C1143 H1130 0.929 . S
C1143 C1135 1.433 . S
C1143 N1145 1.384 . S
N1144 C1140 1.427 . S
N1144 C1141 1.384 . S
N1145 C1137 1.427 . S
N1145 C1143 1.384 . S
H1146 C1152 0.930 . S
H1147 C1156 0.930 . S
H1148 C1161 0.929 . S
H1149 C1159 0.929 . S
H1150 C1154 0.929 . S
H1151 C1160 0.929 . S
C1152 H1146 0.930 . S
C1152 C1153 1.367 . S
C1152 C1160 1.378 . S
C1153 C1152 1.367 . S
C1153 C1161 1.433 . S
C1154 H1150 0.929 . S
C1154 C1156 1.378 . S
C1154 C1158 1.350 . S
C1155 C1158 1.463 . S
C1155 C1160 1.350 . S
C1155 N1163 1.427 . S
C1156 H1147 0.930 . S
C1156 C1154 1.378 . S
C1156 C1157 1.367 . S
C1157 C1156 1.367 . S
C1157 C1159 1.433 . S
C1158 C1154 1.350 . S
C1158 C1155 1.463 . S
C1158 N1162 1.427 . S
C1159 H1149 0.929 . S
C1159 C1157 1.433 . S
C1159 N1162 1.384 . S
C1160 H1151 0.929 . S
C1160 C1152 1.378 . S
C1160 C1155 1.350 . S
C1161 H1148 0.929 . S
C1161 C1153 1.433 . S
C1161 N1163 1.384 . S
N1162 C1158 1.427 . S
N1162 C1159 1.384 . S
N1163 C1155 1.427 . S
N1163 C1161 1.384 . S
H1164 C1170 0.930 . S
H1165 C1174 0.930 . S
H1166 C1179 0.929 . S
H1167 C1177 0.929 . S
H1168 C1172 0.929 . S
H1169 C1178 0.929 . S
C1170 H1164 0.930 . S
C1170 C1171 1.367 . S
C1170 C1178 1.378 . S
C1171 C1170 1.367 . S
C1171 C1179 1.433 . S
C1172 H1168 0.929 . S
C1172 C1174 1.378 . S
C1172 C1176 1.350 . S
C1173 C1176 1.463 . S
C1173 C1178 1.350 . S
C1173 N1181 1.427 . S
C1174 H1165 0.930 . S
C1174 C1172 1.378 . S
C1174 C1175 1.367 . S
C1175 C1174 1.367 . S
C1175 C1177 1.433 . S
C1176 C1172 1.350 . S
C1176 C1173 1.463 . S
C1176 N1180 1.427 . S
C1177 H1167 0.929 . S
C1177 C1175 1.433 . S
C1177 N1180 1.384 . S
C1178 H1169 0.929 . S
C1178 C1170 1.378 . S
C1178 C1173 1.350 . S
C1179 H1166 0.929 . S
C1179 C1171 1.433 . S
C1179 N1181 1.384 . S
N1180 C1176 1.427 . S
N1180 C1177 1.384 . S
N1181 C1173 1.427 . S
N1181 C1179 1.384 . S
H1182 C1188 0.930 . S
H1183 C1192 0.930 . S
H1184 C1197 0.929 . S
H1185 C1195 0.929 . S
H1186 C1190 0.929 . S
H1187 C1196 0.929 . S
C1188 H1182 0.930 . S
C1188 C1189 1.367 . S
C1188 C1196 1.378 . S
C1189 C1188 1.367 . S
C1189 C1197 1.433 . S
C1190 H1186 0.929 . S
C1190 C1192 1.378 . S
C1190 C1194 1.350 . S
C1191 C1194 1.463 . S
C1191 C1196 1.350 . S
C1191 N1199 1.427 . S
C1192 H1183 0.930 . S
C1192 C1190 1.378 . S
C1192 C1193 1.367 . S
C1193 C1192 1.367 . S
C1193 C1195 1.433 . S
C1194 C1190 1.350 . S
C1194 C1191 1.463 . S
C1194 N1198 1.427 . S
C1195 H1185 0.929 . S
C1195 C1193 1.433 . S
C1195 N1198 1.384 . S
C1196 H1187 0.929 . S
C1196 C1188 1.378 . S
C1196 C1191 1.350 . S
C1197 H1184 0.929 . S
C1197 C1189 1.433 . S
C1197 N1199 1.384 . S
N1198 C1194 1.427 . S
N1198 C1195 1.384 . S
N1199 C1191 1.427 . S
N1199 C1197 1.384 . S
C343 C7 1.330 . S
C347 C105 1.328 . S
C361 C119 1.334 . S
C365 C21 1.336 . S
C379 C35 1.329 . S
C383 C133 1.333 . S
C397 C49 1.333 . S
C401 C147 1.336 . S
C415 C161 1.334 . S
C419 C63 1.330 . S
C433 C77 1.331 . S
C437 C91 1.335 . S
C451 C175 1.336 . S
C455 C273 1.333 . S
C469 C189 1.336 . S
C473 C287 1.331 . S
C487 C301 1.336 . S
C491 C203 1.333 . S
C505 C217 1.336 . S
C509 C315 1.334 . S
C523 C231 1.334 . S
C527 C329 1.336 . S
C541 C259 1.336 . S
C545 C245 1.333 . S
C559 C13 1.209 . S
C563 C125 1.209 . S
C577 C139 1.222 . S
C581 C27 1.222 . S
C595 C153 1.211 . S
C599 C41 1.210 . S
C613 C55 1.218 . S
C617 C167 1.218 . S
C631 C69 1.219 . S
C635 C97 1.220 . S
C649 C83 1.228 . S
C653 C111 1.228 . S
C667 C293 1.211 . S
C671 C181 1.211 . S
C685 C195 1.210 . S
C689 C307 1.210 . S
C703 C321 1.231 . S
C707 C209 1.230 . S
C721 C335 1.218 . S
C725 C223 1.219 . S
C739 C265 1.227 . S
C743 C237 1.227 . S
C757 C251 1.211 . S
C761 C279 1.211 . S
C775 C11 1.512 . S
C779 C221 1.513 . S
C793 C235 1.510 . S
C797 C25 1.515 . S
C811 C249 1.512 . S
C815 C39 1.512 . S
C829 C53 1.510 . S
C833 C179 1.515 . S
C847 C67 1.513 . S
C851 C193 1.511 . S
C865 C207 1.512 . S
C869 C81 1.512 . S
C883 C305 1.510 . S
C887 C95 1.515 . S
C901 C319 1.510 . S
C905 C109 1.515 . S
C919 C333 1.513 . S
C923 C123 1.512 . S
C937 C263 1.515 . S
C941 C137 1.510 . S
C955 C151 1.511 . S
C959 C277 1.514 . S
C973 C165 1.515 . S
C977 C291 1.510 . S
C991 C8 1.481 . S
C995 C148 1.480 . S
C1009 C162 1.485 . S
C1013 C22 1.481 . S
C1027 C92 1.483 . S
C1031 C36 1.481 . S
C1045 C50 1.491 . S
C1049 C106 1.489 . S
C1063 C64 1.487 . S
C1067 C120 1.490 . S
C1081 C78 1.490 . S
C1085 C134 1.491 . S
C1099 C176 1.491 . S
C1103 C316 1.491 . S
C1117 C190 1.481 . S
C1121 C330 1.484 . S
C1135 C204 1.491 . S
C1139 C260 1.491 . S
C1153 C274 1.484 . S
C1157 C218 1.488 . S
C1171 C232 1.491 . S
C1175 C288 1.489 . S
C1189 C246 1.491 . S
C1193 C302 1.487 . S
