# Generated by pormake.
# Topology whz, (6)-cn, num edge types: 1
# Building blocks:
#     Node 0, Type 0, BuildingBlock: BETGAK_clean_sbu_0, # of connection points: 6
#     Node 1, Type 0, BuildingBlock: BETGAK_clean_sbu_0, # of connection points: 6
#     Node 2, Type 0, BuildingBlock: BETGAK_clean_sbu_0, # of connection points: 6
#     Node 3, Type 0, BuildingBlock: BETGAK_clean_sbu_0, # of connection points: 6
#     Node 4, Type 0, BuildingBlock: BETGAK_clean_sbu_0, # of connection points: 6
#     Node 5, Type 0, BuildingBlock: BETGAK_clean_sbu_0, # of connection points: 6
#     Node 6, Type 0, BuildingBlock: BETGAK_clean_sbu_0, # of connection points: 6
#     Node 7, Type 0, BuildingBlock: BETGAK_clean_sbu_0, # of connection points: 6
#     Node 8, Type 0, BuildingBlock: BETGAK_clean_sbu_0, # of connection points: 6
#     Node 9, Type 0, BuildingBlock: BETGAK_clean_sbu_0, # of connection points: 6
#     Node 10, Type 0, BuildingBlock: BETGAK_clean_sbu_0, # of connection points: 6
#     Node 11, Type 0, BuildingBlock: BETGAK_clean_sbu_0, # of connection points: 6
#     Node 12, Type 0, BuildingBlock: BETGAK_clean_sbu_0, # of connection points: 6
#     Node 13, Type 0, BuildingBlock: BETGAK_clean_sbu_0, # of connection points: 6
#     Node 14, Type 0, BuildingBlock: BETGAK_clean_sbu_0, # of connection points: 6
#     Node 15, Type 0, BuildingBlock: BETGAK_clean_sbu_0, # of connection points: 6
#     Edge 16, Type (0, 0), BuildingBlock: OJICUG_clean_linker_0, # of connection points: 2
#     Edge 17, Type (0, 0), BuildingBlock: OJICUG_clean_linker_0, # of connection points: 2
#     Edge 18, Type (0, 0), BuildingBlock: OJICUG_clean_linker_0, # of connection points: 2
#     Edge 19, Type (0, 0), BuildingBlock: OJICUG_clean_linker_0, # of connection points: 2
#     Edge 20, Type (0, 0), BuildingBlock: OJICUG_clean_linker_0, # of connection points: 2
#     Edge 21, Type (0, 0), BuildingBlock: OJICUG_clean_linker_0, # of connection points: 2
#     Edge 22, Type (0, 0), BuildingBlock: OJICUG_clean_linker_0, # of connection points: 2
#     Edge 23, Type (0, 0), BuildingBlock: OJICUG_clean_linker_0, # of connection points: 2
#     Edge 24, Type (0, 0), BuildingBlock: OJICUG_clean_linker_0, # of connection points: 2
#     Edge 25, Type (0, 0), BuildingBlock: OJICUG_clean_linker_0, # of connection points: 2
#     Edge 26, Type (0, 0), BuildingBlock: OJICUG_clean_linker_0, # of connection points: 2
#     Edge 27, Type (0, 0), BuildingBlock: OJICUG_clean_linker_0, # of connection points: 2
#     Edge 28, Type (0, 0), BuildingBlock: OJICUG_clean_linker_0, # of connection points: 2
#     Edge 29, Type (0, 0), BuildingBlock: OJICUG_clean_linker_0, # of connection points: 2
#     Edge 30, Type (0, 0), BuildingBlock: OJICUG_clean_linker_0, # of connection points: 2
#     Edge 31, Type (0, 0), BuildingBlock: OJICUG_clean_linker_0, # of connection points: 2
#     Edge 32, Type (0, 0), BuildingBlock: OJICUG_clean_linker_0, # of connection points: 2
#     Edge 33, Type (0, 0), BuildingBlock: OJICUG_clean_linker_0, # of connection points: 2
#     Edge 34, Type (0, 0), BuildingBlock: OJICUG_clean_linker_0, # of connection points: 2
#     Edge 35, Type (0, 0), BuildingBlock: OJICUG_clean_linker_0, # of connection points: 2
#     Edge 36, Type (0, 0), BuildingBlock: OJICUG_clean_linker_0, # of connection points: 2
#     Edge 37, Type (0, 0), BuildingBlock: OJICUG_clean_linker_0, # of connection points: 2
#     Edge 38, Type (0, 0), BuildingBlock: OJICUG_clean_linker_0, # of connection points: 2
#     Edge 39, Type (0, 0), BuildingBlock: OJICUG_clean_linker_0, # of connection points: 2
#     Edge 40, Type (0, 0), BuildingBlock: OJICUG_clean_linker_0, # of connection points: 2
#     Edge 41, Type (0, 0), BuildingBlock: OJICUG_clean_linker_0, # of connection points: 2
#     Edge 42, Type (0, 0), BuildingBlock: OJICUG_clean_linker_0, # of connection points: 2
#     Edge 43, Type (0, 0), BuildingBlock: OJICUG_clean_linker_0, # of connection points: 2
#     Edge 44, Type (0, 0), BuildingBlock: OJICUG_clean_linker_0, # of connection points: 2
#     Edge 45, Type (0, 0), BuildingBlock: OJICUG_clean_linker_0, # of connection points: 2
#     Edge 46, Type (0, 0), BuildingBlock: OJICUG_clean_linker_0, # of connection points: 2
#     Edge 47, Type (0, 0), BuildingBlock: OJICUG_clean_linker_0, # of connection points: 2
#     Edge 48, Type (0, 0), BuildingBlock: OJICUG_clean_linker_0, # of connection points: 2
#     Edge 49, Type (0, 0), BuildingBlock: OJICUG_clean_linker_0, # of connection points: 2
#     Edge 50, Type (0, 0), BuildingBlock: OJICUG_clean_linker_0, # of connection points: 2
#     Edge 51, Type (0, 0), BuildingBlock: OJICUG_clean_linker_0, # of connection points: 2
#     Edge 52, Type (0, 0), BuildingBlock: OJICUG_clean_linker_0, # of connection points: 2
#     Edge 53, Type (0, 0), BuildingBlock: OJICUG_clean_linker_0, # of connection points: 2
#     Edge 54, Type (0, 0), BuildingBlock: OJICUG_clean_linker_0, # of connection points: 2
#     Edge 55, Type (0, 0), BuildingBlock: OJICUG_clean_linker_0, # of connection points: 2
#     Edge 56, Type (0, 0), BuildingBlock: OJICUG_clean_linker_0, # of connection points: 2
#     Edge 57, Type (0, 0), BuildingBlock: OJICUG_clean_linker_0, # of connection points: 2
#     Edge 58, Type (0, 0), BuildingBlock: OJICUG_clean_linker_0, # of connection points: 2
#     Edge 59, Type (0, 0), BuildingBlock: OJICUG_clean_linker_0, # of connection points: 2
#     Edge 60, Type (0, 0), BuildingBlock: OJICUG_clean_linker_0, # of connection points: 2
#     Edge 61, Type (0, 0), BuildingBlock: OJICUG_clean_linker_0, # of connection points: 2
#     Edge 62, Type (0, 0), BuildingBlock: OJICUG_clean_linker_0, # of connection points: 2
#     Edge 63, Type (0, 0), BuildingBlock: OJICUG_clean_linker_0, # of connection points: 2
# Relax obj value: 0.934
# Max RMSD: 0.341
# Mean RMSD: 0.341
data_MOF--net-whz--node1-BETGAK_clean_sbu_0--edge1-OJICUG_clean_linker_0
_symmetry_space_group_name_H-M    P1
_symmetry_Int_Tables_number       1
_symmetry_cell_setting            triclinic
loop_
_symmetry_equiv_pos_as_xyz
'x, y, z'
_cell_length_a     26.005603
_cell_length_b     26.126043
_cell_length_c     57.730603
_cell_angle_alpha  89.781034
_cell_angle_beta   89.721473
_cell_angle_gamma 89.936597
loop_
_atom_site_label
_atom_site_type_symbol
_atom_site_fract_x
_atom_site_fract_y
_atom_site_fract_z
_atom_type_partial_charge
La0 La 0.33386 0.26582 0.19123 0.0
La1 La 0.33545 0.20845 0.14782 0.0
C2 C 0.34939 0.31966 0.22662 0.0
C3 C 0.39063 0.32142 0.2437 0.0
C4 C 0.37685 0.33619 0.26617 0.0
C5 C 0.39428 0.30714 0.28491 0.0
C6 C 0.42286 0.26242 0.28056 0.0
C7 C 0.44938 0.2589 0.25945 0.0
C8 C 0.43237 0.288 0.24068 0.0
C9 C 0.27004 0.305 0.1595 0.0
C10 C 0.43914 0.26714 0.16048 0.0
C11 C 0.31488 0.18508 0.10574 0.0
C12 C 0.29912 0.17417 0.08063 0.0
C13 C 0.32245 0.13593 0.06683 0.0
C14 C 0.30526 0.12541 1.04388 0.0
C15 C 0.26385 0.15264 1.03357 0.0
C16 C 0.24126 0.19129 1.04747 0.0
C17 C 0.25825 0.20156 0.07029 0.0
C18 C 0.36502 0.15415 0.18621 0.0
C19 C 0.249 0.18261 0.18563 0.0
O20 O 0.35991 0.33526 0.20558 0.0
O21 O 0.32488 0.27591 0.22676 0.0
O22 O 0.25923 0.29386 0.18058 0.0
O23 O 0.31569 0.2885 0.15612 0.0
O24 O 0.4158 0.27508 0.18073 0.0
O25 O 0.41359 0.24373 0.14352 0.0
O26 O 0.35489 0.16613 0.11679 0.0
O27 O 0.28849 0.21721 0.11848 0.0
O28 O 0.34058 0.13508 0.16855 0.0
O29 O 0.37439 0.19992 0.18087 0.0
O30 O 0.26105 0.18473 0.16326 0.0
O31 O 0.27741 0.20679 0.20113 0.0
H32 H 0.34556 0.36297 0.26895 0.0
H33 H 0.37519 0.31224 0.30148 0.0
H34 H 0.47481 0.22701 0.25617 0.0
H35 H 0.44464 0.27704 0.22352 0.0
H36 H 0.35374 0.11347 0.07387 0.0
H37 H 0.3241 0.09499 1.03442 0.0
H38 H 0.21033 0.21458 1.04071 0.0
H39 H 0.23889 0.23146 0.07992 0.0
La40 La 0.59179 0.57791 0.44487 0.0
La41 La 0.6408 0.57901 0.39903 0.0
C42 C 0.55602 0.60492 0.48342 0.0
C43 C 0.5025 0.61389 0.48986 0.0
C44 C 0.46379 0.60053 0.47416 0.0
C45 C 0.4162 0.58372 0.48245 0.0
C46 C 0.40847 0.57933 0.50648 0.0
C47 C 0.44186 0.60691 0.52119 0.0
C48 C 0.48989 0.62227 0.513 0.0
C49 C 0.53478 0.52667 0.41505 0.0
C50 C 0.58305 0.68083 0.41242 0.0
C51 C 0.66572 0.55137 0.35764 0.0
C52 C 0.6784 0.53267 0.33302 0.0
C53 C 0.7179 0.55446 0.31927 0.0
C54 C 0.72873 0.53681 0.29641 0.0
C55 C 0.70075 0.49626 0.28605 0.0
C56 C 0.66163 0.47423 0.30007 0.0
C57 C 0.65077 0.49197 0.32284 0.0
C58 C 0.69617 0.61684 0.43592 0.0
C59 C 0.66365 0.48408 0.43421 0.0
O60 O 0.56613 0.5574 0.47804 0.0
O61 O 0.57559 0.63698 0.46847 0.0
O62 O 0.54073 0.51684 0.43668 0.0
O63 O 0.55917 0.56853 0.41036 0.0
O64 O 0.58066 0.65861 0.43313 0.0
O65 O 0.60088 0.65404 0.3945 0.0
O66 O 0.69168 0.58542 0.36946 0.0
O67 O 0.62595 0.53429 0.36923 0.0
O68 O 0.69994 0.6344 0.41475 0.0
O69 O 0.667 0.57974 0.43412 0.0
O70 O 0.66123 0.50013 0.41225 0.0
O71 O 0.64637 0.51462 0.45089 0.0
H72 H 0.473 0.59584 0.45601 0.0
H73 H 0.39022 0.56515 0.47053 0.0
H74 H 0.43617 0.60739 0.53978 0.0
H75 H 0.51898 0.6342 0.52522 0.0
H76 H 0.74067 0.58548 0.32618 0.0
H77 H 0.7598 0.55496 0.28695 0.0
H78 H 0.63823 0.44352 0.29336 0.0
H79 H 0.62016 0.47354 0.33252 0.0
La80 La 0.2627 0.83201 0.69068 0.0
La81 La 0.26104 0.89306 0.64798 0.0
C82 C 0.24733 0.76772 0.72216 0.0
C83 C 0.2086 0.74722 0.7382 0.0
C84 C 0.22473 0.70312 0.74998 0.0
C85 C 0.22961 0.7055 0.774 0.0
C86 C 0.21948 0.75257 0.78483 0.0
C87 C 0.18263 0.78455 0.77436 0.0
C88 C 0.17767 0.78232 0.75028 0.0
C89 C 0.32786 0.79764 0.65868 0.0
C90 C 0.15745 0.83423 0.66093 0.0
C91 C 0.28202 0.91657 0.60587 0.0
C92 C 0.29803 0.92688 0.58068 0.0
C93 C 0.27579 0.96563 0.56679 0.0
C94 C 0.29269 0.97479 0.54358 0.0
C95 C 0.3326 0.94556 0.53313 0.0
C96 C 0.35408 0.90646 0.54715 0.0
C97 C 0.33743 0.89756 0.57021 0.0
C98 C 0.23069 0.94332 0.68714 0.0
C99 C 0.34649 0.91684 0.6866 0.0
O100 O 0.24318 0.75667 0.70023 0.0
O101 O 0.26308 0.81481 0.72585 0.0
O102 O 0.33892 0.80961 0.67958 0.0
O103 O 0.28176 0.81295 0.65542 0.0
O104 O 0.18059 0.82613 0.68108 0.0
O105 O 0.18306 0.85773 0.64382 0.0
O106 O 0.24188 0.93565 0.61691 0.0
O107 O 0.3088 0.8851 0.61878 0.0
O108 O 0.25372 0.96497 0.66948 0.0
O109 O 0.22243 0.89798 0.68108 0.0
O110 O 0.33412 0.91776 0.66423 0.0
O111 O 0.31925 0.88945 0.70173 0.0
H112 H 0.24509 0.67308 0.74082 0.0
H113 H 0.25355 0.67698 0.78235 0.0
H114 H 0.16974 0.81891 0.78311 0.0
H115 H 0.16066 0.81458 0.74133 0.0
H116 H 0.24554 0.9894 0.57393 0.0
H117 H 0.27479 1.00563 0.534 0.0
H118 H 0.38376 0.88167 0.54029 0.0
H119 H 0.35574 0.86707 0.5799 0.0
La120 La 1.0201 0.51547 0.93815 0.0
La121 La 0.95833 0.51235 0.89622 0.0
C122 C 0.08627 0.5008 0.9688 0.0
C123 C 0.105 0.46116 0.98461 0.0
C124 C 0.14653 0.47645 0.99825 0.0
C125 C 0.14016 0.47662 1.02224 0.0
C126 C 0.09159 0.46338 1.03126 0.0
C127 C 0.06225 0.42823 1.01848 0.0
C128 C 0.06866 0.42769 0.99444 0.0
C129 C 0.05396 0.57992 0.90563 0.0
C130 C 1.01705 0.40907 0.90949 0.0
C131 C 0.93379 0.53255 0.85417 0.0
C132 C 0.92272 0.54833 0.82902 0.0
C133 C 0.88508 0.52457 0.8151 0.0
C134 C 0.87528 0.54122 0.79193 0.0
C135 C 0.90266 0.58246 0.78153 0.0
C136 C 0.94068 0.60548 0.79557 0.0
C137 C 0.95024 0.58904 0.81857 0.0
C138 C 0.90754 0.48362 0.93578 0.0
C139 C 0.9343 0.59825 0.93476 0.0
O140 O 0.09597 0.49526 0.94675 0.0
O141 O 1.03968 0.51821 0.973 0.0
O142 O 1.04183 0.59129 0.92653 0.0
O143 O 1.03895 0.53378 0.90269 0.0
O144 O 1.02522 0.433 0.92941 0.0
O145 O 0.99359 0.43421 0.8923 0.0
O146 O 0.91551 0.49241 0.8654 0.0
O147 O 0.9651 0.55971 0.86687 0.0
O148 O 0.88611 0.50586 0.91794 0.0
O149 O 0.95326 0.47487 0.92973 0.0
O150 O 0.93301 0.5854 0.91244 0.0
O151 O 0.9624 0.57157 0.94972 0.0
H152 H 0.17741 0.49907 0.99079 0.0
H153 H 0.16679 0.49933 1.03226 0.0
H154 H 1.02684 0.41301 1.02567 0.0
H155 H 1.03842 0.41168 0.98389 0.0
H156 H 0.86268 0.49325 0.82218 0.0
H157 H 0.84536 0.52204 0.78234 0.0
H158 H 0.96411 0.63628 0.78876 0.0
H159 H 0.97984 0.60859 0.82825 0.0
La160 La 0.76043 0.8853 0.95287 0.0
La161 La 0.7647 0.82342 0.91106 0.0
C162 C 0.78044 0.91058 0.99475 0.0
C163 C 0.796 0.92196 1.01984 0.0
C164 C 0.77358 0.9613 1.03331 0.0
C165 C 0.79042 0.97174 0.05633 0.0
C166 C 0.83047 0.94327 0.06704 0.0
C167 C 0.85206 0.90351 0.05347 0.0
C168 C 0.83549 0.89336 1.03059 0.0
C169 C 0.7315 0.93513 0.91322 0.0
C170 C 0.84723 0.90945 0.91441 0.0
C171 C 0.7507 0.75694 0.88063 0.0
C172 C 0.71058 0.73768 0.86531 0.0
C173 C 0.72527 0.69592 0.85167 0.0
C174 C 0.72159 0.70061 0.82767 0.0
C175 C 0.70731 0.74864 0.81864 0.0
C176 C 0.67226 0.77737 0.83196 0.0
C177 C 0.67524 0.77286 0.85606 0.0
C178 C 0.82891 0.79008 0.9436 0.0
C179 C 0.65744 0.82607 0.94004 0.0
O180 O 0.74011 0.92853 0.98358 0.0
O181 O 0.80775 0.87898 0.98213 0.0
O182 O 0.75332 0.95691 0.93098 0.0
O183 O 0.72318 0.88962 0.91937 0.0
O184 O 0.83381 0.91074 0.9367 0.0
O185 O 0.82106 0.88111 0.89946 0.0
O186 O 0.74575 0.74753 0.90273 0.0
O187 O 0.76737 0.80349 0.87621 0.0
O188 O 0.84089 0.80267 0.92279 0.0
O189 O 0.7824 0.80489 0.94649 0.0
O190 O 0.68179 0.81783 0.92009 0.0
O191 O 0.68225 0.84989 0.95711 0.0
H192 H 0.74329 0.98463 1.02595 0.0
H193 H 0.77238 1.00301 0.06553 0.0
H194 H 0.88182 0.87918 0.06053 0.0
H195 H 0.85399 0.86249 1.02124 0.0
H196 H 0.74948 0.66595 0.85876 0.0
H197 H 0.74321 0.67366 0.81724 0.0
H198 H 0.65528 0.81184 0.82481 0.0
H199 H 0.6598 0.80331 0.86669 0.0
La200 La 0.4592 0.50994 0.70004 0.0
La201 La 0.51076 0.51631 0.6554 0.0
C202 C 0.43461 0.5344 0.74194 0.0
C203 C 0.42254 0.55121 0.76696 0.0
C204 C 0.38171 0.53042 0.78029 0.0
C205 C 0.37131 0.5469 0.80343 0.0
C206 C 0.40123 0.58507 0.81454 0.0
C207 C 0.44224 0.60539 0.80106 0.0
C208 C 0.45244 0.58907 0.77802 0.0
C209 C 0.40634 0.46877 0.66336 0.0
C210 C 0.43281 0.60508 0.66531 0.0
C211 C 0.55179 0.49841 0.61647 0.0
C212 C 0.53602 0.46633 0.59709 0.0
C213 C 0.55141 0.48049 0.57471 0.0
C214 C 0.52069 0.46774 0.55585 0.0
C215 C 0.47408 0.44163 0.55948 0.0
C216 C 0.46429 0.41944 0.58118 0.0
C217 C 0.49489 0.43217 0.60008 0.0
C218 C 0.56145 0.56948 0.68725 0.0
C219 C 0.5159 0.41073 0.6849 0.0
O220 O 0.41191 0.4975 0.7305 0.0
O221 O 0.47043 0.55662 0.72954 0.0
O222 O 0.40368 0.45191 0.68469 0.0
O223 O 0.43339 0.50804 0.66443 0.0
O224 O 0.42951 0.5849 0.68654 0.0
O225 O 0.45854 0.5808 0.6488 0.0
O226 O 0.56492 0.47507 0.63555 0.0
O227 O 0.52034 0.53622 0.62052 0.0
O228 O 0.55231 0.5828 0.66629 0.0
O229 O 0.54067 0.52529 0.69022 0.0
O230 O 0.51208 0.43277 0.66414 0.0
O231 O 0.50335 0.43783 0.70347 0.0
H232 H 0.35735 0.50136 0.77278 0.0
H233 H 0.33898 0.52992 0.81245 0.0
H234 H 0.4676 0.63381 0.80833 0.0
H235 H 0.48446 0.6063 0.76882 0.0
H236 H 0.5831 0.50685 0.57214 0.0
H237 H 0.52907 0.48539 0.53924 0.0
H238 H 0.42932 0.39827 0.58413 0.0
H239 H 0.48261 0.42061 0.61727 0.0
La240 La 0.83748 0.191 0.45485 0.0
La241 La 0.82747 0.26958 0.41994 0.0
C242 C 0.82369 0.14693 0.49445 0.0
C243 C 0.81242 0.14964 0.52041 0.0
C244 C 0.83168 0.11179 0.5356 0.0
C245 C 0.81378 0.10708 0.55881 0.0
C246 C 0.77534 0.13986 0.56799 0.0
C247 C 0.75724 0.17874 0.55286 0.0
C248 C 0.77516 0.18339 0.52967 0.0
C249 C 0.86128 0.15528 0.41183 0.0
C250 C 0.74625 0.18243 0.41749 0.0
C251 C 0.81543 0.35522 0.40054 0.0
C252 C 0.83178 0.38328 0.38003 0.0
C253 C 0.79883 0.42144 0.37162 0.0
C254 C 0.79561 0.42989 0.34783 0.0
C255 C 0.82444 0.39901 0.33273 0.0
C256 C 0.86583 0.37038 0.3417 0.0
C257 C 0.86894 0.3618 0.36545 0.0
C258 C 0.77025 0.29846 0.46561 0.0
C259 C 0.93819 0.25782 0.44109 0.0
O260 O 0.86942 0.15525 0.48537 0.0
O261 O 0.7877 0.16314 0.48061 0.0
O262 O 0.84618 0.12754 0.42942 0.0
O263 O 0.87017 0.19969 0.41951 0.0
O264 O 0.7638 0.16979 0.43835 0.0
O265 O 0.76862 0.21919 0.40506 0.0
O266 O 0.84984 0.34661 0.41652 0.0
O267 O 0.78779 0.31449 0.39605 0.0
O268 O 0.80079 0.26817 0.4549 0.0
O269 O 0.80164 0.26788 0.45421 0.0
O270 O 0.91206 0.27007 0.42206 0.0
O271 O 0.91427 0.2315 0.45807 0.0
H272 H 0.8593 0.08412 0.5292 0.0
H273 H 0.8289 0.07612 0.56926 0.0
H274 H 0.72859 0.20578 0.55882 0.0
H275 H 0.75847 0.21271 0.51872 0.0
H276 H 0.7704 0.4389 0.3829 0.0
H277 H 0.76456 0.45343 0.34128 0.0
H278 H 0.8897 0.34701 0.33052 0.0
H279 H 0.89503 0.33267 0.37185 0.0
La280 La 0.13549 0.58042 0.20346 0.0
La281 La 0.07338 0.57533 0.16169 0.0
C282 C 0.16034 0.56093 0.24559 0.0
C283 C 0.17113 0.54573 0.27089 0.0
C284 C 0.21087 0.56743 0.28431 0.0
C285 C 0.22054 0.55103 0.30755 0.0
C286 C 0.19087 0.51216 0.31857 0.0
C287 C 0.15066 0.49138 0.30503 0.0
C288 C 0.1413 0.50748 0.28194 0.0
C289 C 0.1845 0.61074 0.16355 0.0
C290 C 0.16213 0.49514 0.16523 0.0
C291 C 1.00589 0.58807 0.13146 0.0
C292 C 0.98487 0.62833 0.11661 0.0
C293 C 0.94257 0.61413 0.10319 0.0
C294 C 0.94473 0.62289 0.07935 0.0
C295 C 0.99161 0.64039 0.07001 0.0
C296 C 1.02017 0.67396 0.08395 0.0
C297 C 1.01821 0.66617 0.10793 0.0
C298 C 1.04277 0.50879 0.19392 0.0
C299 C 0.07438 0.68225 0.19054 0.0
O300 O 0.17859 0.60084 0.23418 0.0
O301 O 0.12899 0.53358 0.23301 0.0
O302 O 0.20703 0.58903 0.18126 0.0
O303 O 0.13872 0.61803 0.16989 0.0
O304 O 0.1633 0.50845 0.18747 0.0
O305 O 0.13277 0.52049 0.15023 0.0
O306 O 0.99627 0.5911 0.15362 0.0
O307 O 0.05336 0.57376 0.12683 0.0
O308 O 0.05573 0.49834 0.17302 0.0
O309 O 0.05554 0.55564 0.19705 0.0
O310 O 0.06568 0.65776 0.17076 0.0
O311 O 0.09914 0.65785 0.20754 0.0
H312 H 0.23511 0.59681 0.27677 0.0
H313 H 0.25219 0.56847 0.31669 0.0
H314 H 0.12537 0.4626 0.31228 0.0
H315 H 0.11002 0.48961 0.27267 0.0
H316 H 0.91411 0.58762 0.10993 0.0
H317 H 0.91752 0.60246 0.06866 0.0
H318 H 0.05341 0.69347 0.07679 0.0
H319 H 0.04912 0.68079 0.11849 0.0
La320 La 0.82794 0.77122 0.68901 0.0
La321 La 0.83624 0.71321 0.64608 0.0
C322 C 0.83878 0.83503 0.72081 0.0
C323 C 0.87844 0.85569 0.736 0.0
C324 C 0.86361 0.8979 0.74934 0.0
C325 C 0.87149 0.89587 0.7732 0.0
C326 C 0.88819 0.84901 0.78262 0.0
C327 C 0.92282 0.82065 0.76892 0.0
C328 C 0.91614 0.82253 0.74489 0.0
C329 C 0.7646 0.80559 0.65646 0.0
C330 C 0.93585 0.77534 0.66031 0.0
C331 C 0.82062 0.6934 0.60333 0.0
C332 C 0.806 0.68186 0.57827 0.0
C333 C 0.84268 0.67584 0.56028 0.0
C334 C 0.8275 0.6689 0.53677 0.0
C335 C 0.77501 0.66681 0.53036 0.0
C336 C 0.73871 0.67276 0.54849 0.0
C337 C 0.75379 0.68045 0.57174 0.0
C338 C 0.86637 0.66191 0.68518 0.0
C339 C 0.7493 0.68147 0.68324 0.0
O340 O 0.84157 0.84722 0.69892 0.0
O341 O 0.82567 0.787 0.72435 0.0
O342 O 0.75171 0.79078 0.67689 0.0
O343 O 0.81152 0.79208 0.65376 0.0
O344 O 0.91072 0.78158 0.68025 0.0
O345 O 0.9126 0.75162 0.64287 0.0
O346 O 0.86212 0.6776 0.6143 0.0
O347 O 0.78886 0.71859 0.6168 0.0
O348 O 0.84624 0.64023 0.66695 0.0
O349 O 0.87258 0.70803 0.6796 0.0
O350 O 0.76385 0.68246 0.66108 0.0
O351 O 0.77319 0.71018 0.69887 0.0
H352 H 0.83734 0.92632 0.74245 0.0
H353 H 0.85068 0.92316 0.78378 0.0
H354 H 0.94218 0.78761 0.7762 0.0
H355 H 0.93164 0.79193 0.73439 0.0
H356 H 0.88327 0.67729 0.56431 0.0
H357 H 0.857 0.66421 0.52365 0.0
H358 H 0.69799 0.67201 0.5447 0.0
H359 H 0.72404 0.68535 0.58474 0.0
La360 La 0.07171 0.08057 0.93997 0.0
La361 La 0.13464 0.08445 0.8982 0.0
C362 C 1.00511 0.09504 0.97071 0.0
C363 C 0.98567 0.13532 0.98597 0.0
C364 C 0.94337 0.12139 0.99968 0.0
C365 C 0.94727 0.12653 1.02365 0.0
C366 C 0.99539 0.14072 1.03262 0.0
C367 C 1.02454 0.17504 1.01905 0.0
C368 C 1.02082 0.17081 0.99497 0.0
C369 C 1.03873 1.01651 0.90752 0.0
C370 C 0.07446 0.18696 0.91067 0.0
C371 C 0.16055 0.0656 0.85625 0.0
C372 C 0.17215 0.05082 0.83111 0.0
C373 C 0.21172 0.07351 0.81772 0.0
C374 C 0.22208 0.05766 0.79454 0.0
C375 C 0.19327 1.01841 0.78366 0.0
C376 C 0.1533 0.99652 0.79716 0.0
C377 C 0.14322 1.01212 0.8202 0.0
C378 C 0.18395 0.11298 0.93786 0.0
C379 C 0.15767 0.99738 0.9363 0.0
O380 O 0.99539 0.09931 0.94864 0.0
O381 O 0.05201 0.07871 0.97494 0.0
O382 O 0.05018 1.00489 0.92847 0.0
O383 O 0.05385 0.06268 0.90453 0.0
O384 O 0.06542 0.16297 0.93063 0.0
O385 O 0.09916 0.16212 0.89378 0.0
O386 O 0.1787 0.10527 0.86763 0.0
O387 O 0.1287 1.03808 0.86874 0.0
O388 O 0.20609 0.09095 0.92014 0.0
O389 O 0.13845 0.12169 0.93164 0.0
O390 O 0.1595 1.01095 0.91405 0.0
O391 O 0.12921 1.02369 0.95132 0.0
H392 H 0.91345 0.09703 0.99278 0.0
H393 H 0.91978 0.10579 1.03424 0.0
H394 H 0.05894 0.19221 1.02612 0.0
H395 H 0.05168 0.18566 0.98426 0.0
H396 H 0.23521 0.10328 0.82523 0.0
H397 H 0.25351 0.0758 0.78532 0.0
H398 H 0.12878 0.96731 0.78992 0.0
H399 H 0.11212 0.99355 0.8295 0.0
La400 La 0.7732 0.31114 0.17955 0.0
La401 La 0.7638 0.3895 0.14499 0.0
C402 C 0.77799 0.22873 0.20205 0.0
C403 C 0.75265 0.21516 0.22383 0.0
C404 C 0.78499 0.19687 0.24133 0.0
C405 C 0.78363 0.22056 0.26289 0.0
C406 C 0.74878 0.2608 0.26675 0.0
C407 C 0.70763 0.2679 0.25154 0.0
C408 C 0.70916 0.2442 0.22999 0.0
C409 C 0.82878 0.28058 0.1333 0.0
C410 C 0.66251 0.324 0.15806 0.0
C411 C 0.77891 0.43422 0.10559 0.0
C412 C 0.78882 0.43419 0.0794 0.0
C413 C 0.76914 0.47357 0.06511 0.0
C414 C 0.78598 0.48036 1.04179 0.0
C415 C 0.82382 0.44832 1.03158 0.0
C416 C 0.84234 0.40798 1.0458 0.0
C417 C 0.82544 0.40121 0.06907 0.0
C418 C 0.74059 0.42465 0.18865 0.0
C419 C 0.85518 0.39798 0.1821 0.0
O420 O 0.74826 0.23508 0.18406 0.0
O421 O 0.81046 0.26671 0.20445 0.0
O422 O 0.79949 0.31133 0.14448 0.0
O423 O 0.79865 0.31167 0.14518 0.0
O424 O 0.68863 0.31191 0.17708 0.0
O425 O 0.68657 0.35028 0.14115 0.0
O426 O 0.73314 0.4297 0.11522 0.0
O427 O 0.81408 0.41354 0.11865 0.0
O428 O 0.7569 0.45231 0.17121 0.0
O429 O 0.73079 0.38092 0.18044 0.0
O430 O 0.8373 0.41117 0.16139 0.0
O431 O 0.83304 0.36078 0.19433 0.0
H432 H 0.81784 0.17306 0.23706 0.0
H433 H 0.81464 0.21332 0.27495 0.0
H434 H 0.67932 0.29759 0.25462 0.0
H435 H 0.6823 0.25702 0.21691 0.0
H436 H 0.742 0.50076 0.07229 0.0
H437 H 0.77052 0.51232 1.03209 0.0
H438 H 0.87054 0.38138 1.03907 0.0
H439 H 0.84249 0.37075 0.07924 0.0
La440 La 0.5229 1.01132 0.43857 0.0
La441 La 0.46166 1.00635 0.3966 0.0
C442 C 0.58883 0.99802 0.46942 0.0
C443 C 0.60867 0.95766 0.48456 0.0
C444 C 0.65098 0.9713 0.4981 0.0
C445 C 0.64802 0.96336 0.52197 0.0
C446 C 0.60043 0.94745 0.53117 0.0
C447 C 0.57159 0.9139 0.51734 0.0
C448 C 0.57432 0.9208 0.49332 0.0
C449 C 0.55616 0.0759 0.40609 0.0
C450 C 0.52133 0.90341 0.41044 0.0
C451 C 0.43649 1.02421 0.35444 0.0
C452 C 0.42664 1.037 0.3289 0.0
C453 C 0.37956 1.02682 0.31772 0.0
C454 C 0.37051 1.04227 0.29435 0.0
C455 C 0.40834 0.06821 0.28082 0.0
C456 C 0.45574 0.07723 0.29222 0.0
C457 C 0.46432 0.06259 0.31556 0.0
C458 C 0.41133 0.97872 0.4364 0.0
C459 C 0.4368 0.09453 0.43398 0.0
O460 O 0.59941 0.9946 0.44736 0.0
O461 O 0.5414 1.01311 0.4736 0.0
O462 O 0.54327 0.08733 0.42689 0.0
O463 O 0.54199 1.02942 0.40312 0.0
O464 O 0.53022 0.92849 0.43004 0.0
O465 O 0.4968 0.92772 0.39327 0.0
O466 O 0.41679 0.98594 0.36647 0.0
O467 O 0.46999 0.05059 0.3663 0.0
O468 O 0.38972 1.00093 0.41862 0.0
O469 O 0.45688 0.96975 0.43024 0.0
O470 O 0.43565 0.08023 0.41184 0.0
O471 O 0.46491 0.06858 0.44928 0.0
H472 H 0.68022 0.99692 0.49133 0.0
H473 H 0.67548 0.98344 0.53266 0.0
H474 H 0.53777 0.89533 0.52446 0.0
H475 H 0.5434 0.90644 0.48269 0.0
H476 H 0.34899 1.00792 0.32724 0.0
H477 H 0.33295 1.0347 0.28722 0.0
H478 H 0.48729 0.0956 0.28329 0.0
H479 H 0.50119 0.07144 0.3232 0.0
La480 La 0.2599 0.38106 0.45385 0.0
La481 La 0.2677 0.32499 0.41005 0.0
C482 C 0.27402 0.39983 0.49701 0.0
C483 C 0.28507 0.40723 0.52294 0.0
C484 C 0.26384 0.44769 0.53607 0.0
C485 C 0.2763 0.45477 0.55989 0.0
C486 C 0.31046 0.42157 0.57192 0.0
C487 C 0.33028 0.38021 0.5588 0.0
C488 C 0.31829 0.37355 0.53499 0.0
C489 C 0.22842 0.43285 0.41507 0.0
C490 C 0.34731 0.41407 0.41717 0.0
C491 C 0.26258 0.26503 0.37656 0.0
C492 C 0.23916 0.22841 0.36049 0.0
C493 C 0.24955 0.17611 0.36433 0.0
C494 C 0.26441 0.14538 0.34574 0.0
C495 C 0.26865 0.16755 0.32368 0.0
C496 C 0.24146 0.21332 0.31936 0.0
C497 C 0.22815 0.24474 0.33793 0.0
C498 C 0.33158 0.28931 0.44227 0.0
C499 C 0.16076 0.31646 0.43974 0.0
O500 O 0.23587 0.42009 0.48512 0.0
O501 O 0.30326 0.37021 0.48426 0.0
O502 O 0.25012 0.45412 0.43303 0.0
O503 O 0.22236 0.38666 0.42056 0.0
O504 O 0.3328 0.41215 0.43934 0.0
O505 O 0.32301 0.38647 0.40127 0.0
O506 O 0.26847 0.25057 0.39802 0.0
O507 O 0.25914 0.31493 0.37383 0.0
O508 O 0.34436 0.30574 0.42203 0.0
O509 O 0.28452 0.3025 0.4451 0.0
O510 O 0.18655 0.30764 0.42013 0.0
O511 O 0.18304 0.34312 0.45662 0.0
H512 H 0.23807 0.47466 0.52782 0.0
H513 H 0.25917 0.48692 0.56882 0.0
H514 H 0.35691 0.35352 0.56662 0.0
H515 H 0.33574 0.34174 0.5259 0.0
H516 H 0.25618 0.16165 0.38168 0.0
H517 H 0.28291 0.10905 0.34938 0.0
H518 H 0.24136 0.23031 0.30221 0.0
H519 H 0.21808 0.28428 0.33445 0.0
La520 La 0.96147 1.00945 0.20218 0.0
La521 La 1.02246 1.01068 0.16008 0.0
C522 C 0.93598 1.02985 0.24397 0.0
C523 C 0.92419 0.04605 0.26884 0.0
C524 C 0.88687 1.02169 0.28288 0.0
C525 C 0.87618 1.03874 0.30581 0.0
C526 C 0.90233 0.08096 0.31574 0.0
C527 C 0.93985 0.10482 0.30157 0.0
C528 C 0.95037 0.08791 0.27878 0.0
C529 C 0.90984 0.98126 0.16299 0.0
C530 C 0.94027 0.09717 0.16467 0.0
C531 C 0.08705 0.99465 0.12863 0.0
C532 C 0.10494 0.9547 0.11282 0.0
C533 C 0.14679 0.96904 0.09893 0.0
C534 C 0.14074 0.96827 0.07494 0.0
C535 C 0.09176 0.95629 0.06626 0.0
C536 C 0.06223 0.92133 0.07931 0.0
C537 C 0.06821 0.9215 0.10336 0.0
C538 C 0.05844 0.07449 0.19208 0.0
C539 C 1.01881 0.90509 0.18966 0.0
O540 O 0.91672 0.99047 0.23277 0.0
O541 O 0.96914 0.05575 0.23151 0.0
O542 O 0.88924 1.0053 0.18053 0.0
O543 O 0.95515 0.97126 0.16901 0.0
O544 O 0.94166 0.08513 0.18705 0.0
O545 O 0.96445 0.06778 0.14928 0.0
O546 O 0.09759 0.98926 0.15058 0.0
O547 O 1.04051 1.01258 0.12493 0.0
O548 O 0.04705 0.08582 0.17109 0.0
O549 O 1.04255 1.02869 0.1953 0.0
O550 O 1.0271 0.92835 0.16947 0.0
O551 O 0.9959 0.93109 0.20673 0.0
H552 H 0.86548 0.98959 0.27609 0.0
H553 H 0.84656 1.01907 0.31559 0.0
H554 H 0.96208 0.13655 0.30812 0.0
H555 H 0.97953 0.10803 0.26887 0.0
H556 H 0.17799 0.99136 0.10609 0.0
H557 H 0.16796 0.99003 0.06463 0.0
H558 H 1.02676 0.90628 0.07231 0.0
H559 H 1.03784 0.90588 0.11412 0.0
La560 La 0.33113 0.70889 0.95162 0.0
La561 La 0.32826 0.77266 0.91013 0.0
C562 C 0.31061 0.68255 0.99358 0.0
C563 C 0.29464 0.67042 1.01874 0.0
C564 C 0.31875 0.63258 1.03254 0.0
C565 C 0.3023 0.62212 0.05575 0.0
C566 C 0.2609 0.649 0.06638 0.0
C567 C 0.2374 0.6871 0.05242 0.0
C568 C 0.25366 0.69733 1.02936 0.0
C569 C 0.36096 0.66079 0.91154 0.0
C570 C 0.24513 0.68678 0.91311 0.0
C571 C 0.34417 0.83977 0.87986 0.0
C572 C 0.38652 0.85814 0.86533 0.0
C573 C 0.37511 0.89939 0.85069 0.0
C574 C 0.38724 0.89506 0.82721 0.0
C575 C 0.40374 0.84679 0.81931 0.0
C576 C 0.43539 0.81908 0.8346 0.0
C577 C 0.42463 0.82322 0.8583 0.0
C578 C 0.26317 0.80489 0.94275 0.0
C579 C 0.43454 0.76864 0.93943 0.0
O580 O 0.35086 0.66464 0.98221 0.0
O581 O 0.28342 0.71435 0.98103 0.0
O582 O 0.3383 0.63839 0.92912 0.0
O583 O 0.36942 0.70592 0.91808 0.0
O584 O 0.25803 0.68441 0.93539 0.0
O585 O 0.27174 0.71569 0.89832 0.0
O586 O 0.34713 0.84882 0.90202 0.0
O587 O 0.32759 0.79338 0.87525 0.0
O588 O 0.25188 0.79372 0.92178 0.0
O589 O 0.30953 0.78966 0.94563 0.0
O590 O 0.41079 0.77819 0.91953 0.0
O591 O 0.40925 0.74375 0.95621 0.0
H592 H 0.35029 0.6106 1.02536 0.0
H593 H 0.32187 0.59213 0.06522 0.0
H594 H 0.20641 0.71016 0.05933 0.0
H595 H 0.23379 0.72703 1.01979 0.0
H596 H 0.3486 0.92909 0.85615 0.0
H597 H 0.36946 0.92216 0.81548 0.0
H598 H 0.45512 0.78502 0.82863 0.0
H599 H 0.4373 0.79315 0.86987 0.0
La600 La 0.63577 0.08635 0.70277 0.0
La601 La 0.57463 0.08153 0.66067 0.0
C602 C 0.6601 0.06629 0.74485 0.0
C603 C 0.67122 0.05047 0.76999 0.0
C604 C 0.70928 0.07387 0.78379 0.0
C605 C 0.71973 0.0567 0.80682 0.0
C606 C 0.69261 1.01524 0.8172 0.0
C607 C 0.65415 0.99259 0.80329 0.0
C608 C 0.64394 1.00955 0.78041 0.0
C609 C 0.68778 0.1123 0.66332 0.0
C610 C 0.65954 0.99846 0.66497 0.0
C611 C 0.50884 0.09502 0.62975 0.0
C612 C 0.49074 0.13399 0.61346 0.0
C613 C 0.44876 0.11876 0.60008 0.0
C614 C 0.45473 0.11752 0.57608 0.0
C615 C 0.50346 0.12931 0.56684 0.0
C616 C 0.53347 0.16469 0.57915 0.0
C617 C 0.52755 0.16633 0.60321 0.0
C618 C 0.53968 1.01962 0.694 0.0
C619 C 0.57806 0.18954 0.68791 0.0
O620 O 0.67837 0.10646 0.73362 0.0
O621 O 0.62837 1.03943 0.73223 0.0
O622 O 0.70856 0.09108 0.68154 0.0
O623 O 0.64188 0.12179 0.66886 0.0
O624 O 0.6606 1.01238 0.68717 0.0
O625 O 0.63186 1.0246 0.6497 0.0
O626 O 0.49905 0.10197 0.6517 0.0
O627 O 0.55524 0.07682 0.62585 0.0
O628 O 0.55221 1.00664 0.67335 0.0
O629 O 0.55504 0.06578 0.69627 0.0
O630 O 0.57005 0.16444 0.66829 0.0
O631 O 0.60118 0.16528 0.70551 0.0
H632 H 0.73161 0.10523 0.7767 0.0
H633 H 0.75 0.0756 0.8163 0.0
H634 H 0.63092 0.96163 0.81009 0.0
H635 H 0.61414 0.99016 0.7708 0.0
H636 H 0.4176 0.09701 0.60784 0.0
H637 H 0.42754 0.09486 0.56634 0.0
H638 H 0.56904 0.17895 0.57172 0.0
H639 H 0.5583 0.18221 0.6135 0.0
C640 C 0.35828 0.19468 0.27635 0.0
C641 C 0.39868 0.21537 0.28952 0.0
H642 H 0.28454 0.15871 0.27708 0.0
C643 C 0.40287 0.20203 0.31288 0.0
H644 H 0.35396 0.20488 0.25827 0.0
C645 C 0.36325 0.17455 0.32358 0.0
C646 C 0.31812 0.1625 0.31117 0.0
H647 H 0.43328 0.21797 0.32337 0.0
H648 H 0.36441 0.17065 0.34225 0.0
C649 C 0.31848 0.16786 0.28706 0.0
C650 C 0.43111 0.44938 0.52108 0.0
C651 C 0.43045 0.45757 0.54501 0.0
H652 H 0.41603 0.48227 0.4881 0.0
C653 C 0.39814 0.49575 0.55407 0.0
H654 H 0.45544 0.41994 0.51368 0.0
C655 C 0.37329 0.53011 0.5394 0.0
C656 C 0.38709 0.53068 0.51591 0.0
H657 H 0.39875 0.50421 0.57235 0.0
H658 H 0.35497 0.56328 0.54709 0.0
C659 C 0.40772 0.48516 0.50645 0.0
C660 C 0.29505 0.75248 0.81145 0.0
C661 C 0.26541 0.77764 0.79477 0.0
H662 H 0.36274 0.75272 0.83165 0.0
C663 C 0.28566 0.82184 0.78391 0.0
H664 H 0.28127 0.71764 0.81961 0.0
C665 C 0.33369 0.84093 0.78995 0.0
C666 C 0.36239 0.81739 0.8075 0.0
H667 H 0.26493 0.84152 0.77033 0.0
H668 H 0.34728 0.87566 0.78164 0.0
C669 C 0.34279 0.77203 0.81776 0.0
C670 C 0.08743 0.53383 0.06034 0.0
C671 C 0.06371 0.50591 1.04274 0.0
H672 H 0.08551 0.59932 0.08182 0.0
C673 C 1.0186 0.52589 1.03251 0.0
H674 H 0.1226 0.52014 0.06824 0.0
C675 C 0.99772 0.57225 1.03984 0.0
C676 C 1.02099 0.59983 0.0577 0.0
H677 H 0.99991 0.5066 1.0183 0.0
H678 H 0.9624 0.58578 1.03203 0.0
C679 C 0.06664 0.58021 0.06762 0.0
C680 C 0.76936 0.82214 0.81806 0.0
C681 C 0.75044 0.77709 0.80758 0.0
H682 H 0.82934 0.87798 0.81961 0.0
C683 C 0.78016 0.75373 0.79031 0.0
H684 H 0.74868 0.84087 0.83195 0.0
C685 C 0.82741 0.77441 0.78381 0.0
C686 C 0.84614 0.81974 0.79413 0.0
H687 H 0.76732 0.71873 0.78217 0.0
H688 H 0.84804 0.75559 0.76993 0.0
C689 C 0.81659 0.84288 0.81153 0.0
C690 C 0.81305 0.32572 0.27808 0.0
C691 C 0.7644 0.30346 0.28157 0.0
H692 H 0.86977 0.37717 0.29109 0.0
C693 C 0.73116 0.32362 0.29827 0.0
H694 H 0.83834 0.31231 0.26441 0.0
C695 C 0.74876 0.36144 0.31321 0.0
C696 C 0.79989 0.37928 0.31159 0.0
H697 H 0.69284 0.30815 0.3006 0.0
H698 H 0.72392 0.37264 0.32743 0.0
C699 C 0.83059 0.36362 0.29291 0.0
C700 C 1.01968 1.02015 0.0668 0.0
C701 C 0.06423 1.00051 0.05582 0.0
H702 H 0.96517 0.08131 0.06929 0.0
C703 C 0.08822 1.03015 1.03866 0.0
H704 H 1.00062 0.9995 0.08066 0.0
C705 C 0.06859 0.07802 1.03273 0.0
C706 C 1.0237 0.09746 1.04353 0.0
H707 H 0.1229 1.01675 1.03014 0.0
H708 H 0.08783 0.09865 1.01892 0.0
C709 C 0.99994 0.06797 0.06082 0.0
C710 C 0.59511 1.01787 0.56029 0.0
C711 C 0.57156 0.98941 0.54279 0.0
H712 H 0.59413 0.08524 0.58071 0.0
C713 C 0.5264 1.00914 0.53245 0.0
H714 H 0.63003 1.00426 0.56843 0.0
C715 C 0.50646 0.05647 0.53894 0.0
C716 C 0.53058 0.0853 0.55613 0.0
H717 H 0.5073 0.98934 0.51852 0.0
H718 H 0.47165 0.07021 0.53075 0.0
C719 C 0.57514 0.06522 0.56679 0.0
C720 C 0.25677 0.11094 0.96836 0.0
C721 C 0.20552 0.12238 0.96213 0.0
H722 H 0.31543 0.11151 0.99467 0.0
C723 C 0.17389 0.14276 0.97977 0.0
H724 H 0.28268 0.09498 0.95554 0.0
C725 C 0.19236 0.15176 1.00247 0.0
C726 C 0.2439 0.14123 1.00886 0.0
H727 H 0.1342 0.15172 0.97603 0.0
H728 H 0.16539 0.16656 1.01509 0.0
C729 C 0.27555 0.1202 0.99115 0.0
C730 C 0.70084 0.42676 0.2538 0.0
C731 C 0.7116 0.47756 0.261 0.0
H732 H 0.70117 0.37067 0.22632 0.0
C733 C 0.73232 0.5103 0.24364 0.0
H734 H 0.68567 0.39928 0.26609 0.0
C735 C 0.74139 0.49341 0.22055 0.0
C736 C 0.73024 0.4429 0.21349 0.0
H737 H 0.74092 0.54976 0.24768 0.0
H738 H 0.7572 0.52032 0.20811 0.0
C739 C 0.71 0.40992 0.23071 0.0
C740 C 0.3208 0.97683 0.49051 0.0
C741 C 0.35216 0.9553 0.50814 0.0
H742 H 0.31367 1.00099 0.4547 0.0
C743 C 0.40305 0.94252 0.50138 0.0
H744 H 0.28139 0.98716 0.49434 0.0
C745 C 0.42119 0.94995 0.47843 0.0
C746 C 0.38988 0.9709 0.4609 0.0
H747 H 0.42977 0.92713 0.5139 0.0
H748 H 0.46039 0.93928 0.47442 0.0
C749 C 0.33927 0.9845 0.46745 0.0
C750 C 0.86399 0.58871 0.71581 0.0
C751 C 0.87505 0.6399 0.70951 0.0
H752 H 0.86396 0.53038 0.74244 0.0
C753 C 0.89421 0.67153 0.72724 0.0
H754 H 0.84893 0.56278 0.70293 0.0
C755 C 0.9023 0.65332 0.75009 0.0
C756 C 0.8921 0.60194 0.7566 0.0
H757 H 0.90296 0.7111 0.72343 0.0
H758 H 0.91614 0.68038 0.76273 0.0
C759 C 0.87235 0.57015 0.7388 0.0
C760 C 0.91913 0.95032 0.12131 0.0
C761 C 0.88807 0.97249 0.1387 0.0
H762 H 0.9276 0.92556 0.08616 0.0
C763 C 0.83758 0.98619 0.13214 0.0
H764 H 0.95823 0.93956 0.12532 0.0
C765 C 0.819 0.97731 0.10927 0.0
C766 C 0.85013 0.95446 0.09182 0.0
H767 H 0.81213 1.0036 0.14476 0.0
H768 H 0.77967 0.98775 0.10547 0.0
C769 C 0.90094 0.94177 0.09856 0.0
C770 C 0.35542 0.59088 0.87967 0.0
C771 C 0.37094 0.64009 0.88699 0.0
H772 H 0.35244 0.53492 0.85228 0.0
C773 C 0.3959 0.67065 0.87013 0.0
H774 H 0.33589 0.56578 0.8918 0.0
C775 C 0.40531 0.65316 0.84721 0.0
C776 C 0.39017 0.60384 0.83964 0.0
H777 H 0.40834 0.70875 0.87468 0.0
H778 H 0.42406 0.67929 0.83533 0.0
C779 C 0.36473 0.57323 0.85661 0.0
C780 C 0.78284 0.11179 0.61108 0.0
C781 C 0.75342 0.13288 0.59271 0.0
H782 H 0.78634 0.08891 0.64712 0.0
C783 C 0.70216 0.14671 0.59832 0.0
H784 H 0.82242 0.10075 0.6081 0.0
C785 C 0.6817 0.14025 0.62095 0.0
C786 C 0.71115 0.11952 0.6392 0.0
H787 H 0.67701 0.1619 0.58509 0.0
H788 H 0.64223 0.15135 0.62413 0.0
C789 C 0.76217 0.10524 0.63378 0.0
C790 C 0.23395 0.50477 0.38382 0.0
C791 C 0.21899 0.45495 0.39076 0.0
H792 H 0.23704 0.56195 0.35671 0.0
C793 C 0.19528 0.42466 0.37364 0.0
H794 H 0.25251 0.52964 0.39619 0.0
C795 C 0.18698 0.4428 0.35078 0.0
C796 C 0.20135 0.49278 0.34359 0.0
H797 H 0.183 0.38616 0.37791 0.0
H798 H 0.16967 0.41664 0.33863 0.0
C799 C 0.22533 0.52324 0.36082 0.0
C800 C 0.71566 0.62219 0.50195 0.0
C801 C 0.75708 0.65577 0.50553 0.0
H802 H 0.66583 0.58455 0.47852 0.0
C803 C 0.77927 0.67807 0.4853 0.0
H804 H 0.6975 0.60326 0.51656 0.0
C805 C 0.75989 0.6675 0.46259 0.0
C806 C 0.71827 0.63346 0.45932 0.0
H807 H 0.81119 0.7043 0.48701 0.0
H808 H 0.77793 0.68537 0.44769 0.0
C809 C 0.69726 0.61121 0.47964 0.0
C810 C 0.22626 1.03184 0.74136 0.0
C811 C 0.20431 0.99986 0.75873 0.0
H812 H 0.25175 1.04025 0.70573 0.0
C813 C 0.19226 0.94933 0.75179 0.0
H814 H 0.23612 0.07102 0.74538 0.0
C815 C 0.20051 0.93216 0.72886 0.0
C816 C 0.2219 0.96405 0.71156 0.0
H817 H 0.17677 0.92215 0.76416 0.0
H818 H 0.19012 0.89324 0.72464 0.0
C819 C 0.23496 1.01428 0.71831 0.0
C820 C 0.89555 0.44363 1.00036 0.0
C821 C 0.8447 0.45744 1.00675 0.0
H822 H 0.95425 0.4407 0.97389 0.0
C823 C 0.81472 0.48044 0.98902 0.0
H824 H 0.92116 0.427 1.01304 0.0
C825 C 0.83442 0.48877 0.96623 0.0
C826 C 0.88506 0.47453 0.96002 0.0
H827 H 0.77541 0.49161 0.99258 0.0
H828 H 0.80979 0.50648 0.95342 0.0
C829 C 0.91506 0.45193 0.97765 0.0
C830 C 0.41853 0.14648 0.223 0.0
C831 C 0.37701 0.12912 0.20957 0.0
H832 H 0.46195 0.14112 0.25417 0.0
C833 C 0.34687 0.08947 0.2193 0.0
H834 H 0.44299 0.17674 0.21634 0.0
C835 C 0.35694 0.0694 0.24186 0.0
C836 C 0.39837 0.08726 0.25565 0.0
H837 H 0.31447 0.0747 0.20971 0.0
H838 H 0.33188 1.03956 0.24831 0.0
C839 C 0.42955 0.12544 0.2451 0.0
C840 C 0.35613 0.49349 0.62721 0.0
C841 C 0.37491 0.45451 0.64196 0.0
H842 H 0.32012 0.5147 0.59522 0.0
C843 C 0.36805 0.4037 0.6343 0.0
H844 H 0.36049 0.5332 0.63217 0.0
C845 C 0.34566 0.39278 0.61231 0.0
C846 C 0.32853 0.43213 0.59706 0.0
H847 H 0.38221 0.37233 0.6448 0.0
H848 H 0.34299 0.35317 0.60707 0.0
C849 C 0.33248 0.48262 0.6057 0.0
C850 C 0.87369 0.06688 0.35832 0.0
C851 C 0.89111 0.10008 0.34049 0.0
H852 H 0.85104 0.05748 0.39412 0.0
C853 C 0.89822 0.15204 0.34679 0.0
H854 H 0.86797 1.02665 0.35482 0.0
C855 C 0.88896 0.16963 0.36965 0.0
C856 C 0.872 0.13626 0.38736 0.0
H857 H 0.91037 0.17982 0.33395 0.0
H858 H 0.89485 0.20978 0.37342 0.0
C859 C 0.8643 0.08459 0.38118 0.0
C860 C 0.25639 0.60832 0.1321 0.0
C861 C 0.20539 0.61986 0.13893 0.0
H862 H 0.31397 0.60837 0.10501 0.0
C863 C 0.17314 0.64 0.1215 0.0
H864 H 0.2828 0.59253 0.14469 0.0
C865 C 0.19071 0.64863 0.0985 0.0
C866 C 0.24196 0.63795 0.09148 0.0
H867 H 0.1336 0.6491 0.12566 0.0
H868 H 0.16322 0.6633 0.08614 0.0
C869 C 0.27425 0.61719 0.10897 0.0
C870 C 0.69366 0.94388 0.84848 0.0
C871 C 0.70389 0.9953 0.84199 0.0
H872 H 0.69373 0.88576 0.87503 0.0
C873 C 0.72445 1.02679 0.8597 0.0
H874 H 0.67925 0.91703 0.83587 0.0
C875 C 0.73351 1.00798 0.88257 0.0
C876 C 0.72233 0.95684 0.88888 0.0
H877 H 0.73291 0.06656 0.8561 0.0
H878 H 0.7491 1.03376 0.89538 0.0
C879 C 0.70245 0.92538 0.87124 0.0
C880 C 0.52634 0.28494 0.17882 0.0
C881 C 0.49643 0.2813 0.15852 0.0
H882 H 0.59922 0.30017 0.19459 0.0
C883 C 0.52229 0.29244 0.1374 0.0
H884 H 0.50925 0.27646 0.19549 0.0
C885 C 0.57535 0.30727 0.13687 0.0
C886 C 0.60498 0.31041 0.15739 0.0
H887 H 0.50137 0.29043 0.12127 0.0
H888 H 0.59329 0.3156 0.12032 0.0
C889 C 0.57892 0.29859 0.17827 0.0
C890 C 0.55691 0.76406 0.38948 0.0
C891 C 0.56683 0.73773 0.41059 0.0
H892 H 0.53423 0.83498 0.37245 0.0
C893 C 0.56075 0.76708 0.43098 0.0
H894 H 0.56077 0.74378 0.37325 0.0
C895 C 0.54634 0.81942 0.43049 0.0
C896 C 0.53605 0.84603 0.40961 0.0
H897 H 0.56774 0.74965 0.44772 0.0
H898 H 0.54294 0.83913 0.4469 0.0
C899 C 0.54136 0.81686 0.38902 0.0
C900 C 1.01929 0.80036 0.68001 0.0
C901 C 0.99252 0.79094 0.65924 0.0
H902 H 0.08976 0.82033 0.69674 0.0
C903 C 1.02093 0.79687 0.63838 0.0
H904 H 0.99983 0.79636 0.69655 0.0
C905 C 0.07376 0.81195 0.63847 0.0
C906 C 0.10037 0.82049 0.65945 0.0
H907 H 1.00227 0.79023 0.62194 0.0
H908 H 0.09393 0.816 0.62212 0.0
C909 C 0.07169 0.81421 0.68011 0.0
C910 C 1.03933 0.32423 0.88764 0.0
C911 C 1.03079 0.3519 0.9084 0.0
H912 H 0.06066 0.25201 0.87166 0.0
C913 C 1.03713 0.32414 0.92927 0.0
H914 H 1.03529 0.34355 0.87113 0.0
C915 C 0.05079 0.27179 0.92957 0.0
C916 C 0.06006 0.24393 0.90903 0.0
H917 H 1.0311 0.3429 0.94576 0.0
H918 H 0.05463 0.25317 0.94627 0.0
C919 C 0.05426 0.27142 0.88796 0.0
C920 C 0.57264 0.80466 0.92051 0.0
C921 C 0.60013 0.81201 0.94129 0.0
H922 H 0.50175 0.78633 0.90371 0.0
C923 C 0.57204 0.8043 0.96214 0.0
H924 H 0.59172 0.81 0.90395 0.0
C925 C 0.51904 0.78933 0.96198 0.0
C926 C 0.4918 0.78264 0.94098 0.0
H927 H 0.59114 0.80913 0.9786 0.0
H928 H 0.49926 0.7837 0.97833 0.0
C929 C 0.52013 0.79094 0.92036 0.0
C930 C 0.54487 0.32941 0.70778 0.0
C931 C 0.53228 0.35424 0.68661 0.0
H932 H 0.56959 0.25977 0.72517 0.0
C933 C 0.53587 0.32398 0.66646 0.0
H934 H 0.54296 0.3507 0.72381 0.0
C935 C 0.55062 0.27183 0.66729 0.0
C936 C 0.5634 0.24667 0.68828 0.0
H937 H 0.52679 0.34053 0.64974 0.0
H938 H 0.55213 0.25113 0.65108 0.0
C939 C 0.56045 0.27686 0.70858 0.0
C940 C 0.07636 0.29421 0.46218 0.0
C941 C 0.10404 0.3002 0.44112 0.0
H942 H 1.00405 0.27512 0.47907 0.0
C943 C 0.07624 0.29089 0.42058 0.0
H944 H 0.09566 0.30081 0.47847 0.0
C945 C 1.02354 0.27735 0.42092 0.0
C946 C 0.9957 0.27097 0.44182 0.0
H947 H 0.09507 0.29504 0.40391 0.0
H948 H 1.00451 0.27154 0.40449 0.0
C949 C 1.02348 0.27918 0.46254 0.0
C950 C 0.05471 0.76771 0.21246 0.0
C951 C 0.06014 0.73937 0.19166 0.0
H952 H 1.03656 0.84063 0.22861 0.0
C953 C 0.05104 0.76665 0.17088 0.0
H954 H 0.06104 0.74884 0.22893 0.0
C955 C 1.03793 0.81917 0.17069 0.0
C956 C 1.03199 0.84776 0.19127 0.0
H957 H 0.05465 0.74743 0.15437 0.0
H958 H 1.03203 0.83742 0.15403 0.0
C959 C 1.04032 0.8207 0.21228 0.0
C960 C 0.19974 0.36157 0.14405 0.0
C961 C 0.25042 0.35658 0.15239 0.0
H962 H 0.13249 0.40956 0.14085 0.0
C963 C 0.27361 0.40037 0.16193 0.0
H964 H 0.17989 0.3283 0.13742 0.0
C965 C 0.24568 0.44616 0.16486 0.0
C966 C 0.19412 0.45019 0.15775 0.0
H967 H 0.31175 0.39769 0.16931 0.0
H968 H 0.26371 0.47776 0.1738 0.0
C969 C 0.17226 0.40805 0.1463 0.0
C970 C 0.39368 0.49943 0.41755 0.0
C971 C 0.39213 0.44788 0.41052 0.0
H972 H 0.43891 0.56753 0.42175 0.0
C973 C 0.43598 0.42813 0.39923 0.0
H974 H 0.36069 0.51618 0.42621 0.0
C975 C 0.48162 0.45744 0.39724 0.0
C976 C 0.48439 0.50808 0.40564 0.0
H977 H 0.43647 0.38858 0.39369 0.0
H978 H 0.51622 0.43878 0.39101 0.0
C979 C 0.43859 0.52927 0.4147 0.0
C980 C 0.4 0.74108 0.64559 0.0
C981 C 0.34805 0.746 0.65229 0.0
H982 H 0.46709 0.69264 0.64397 0.0
C983 C 0.32309 0.70212 0.6611 0.0
H984 H 0.42102 0.77434 0.63952 0.0
C985 C 0.35032 0.65624 0.66499 0.0
C986 C 0.40284 0.65228 0.65936 0.0
H987 H 0.28353 0.70448 0.66687 0.0
H988 H 0.33056 0.6242 0.67298 0.0
C989 C 0.42672 0.6945 0.6486 0.0
C990 C 0.10963 0.6531 0.89259 0.0
C991 C 0.10548 0.60089 0.8987 0.0
H992 H 0.15706 0.72085 0.89167 0.0
C993 C 0.15037 0.57606 0.90651 0.0
H994 H 0.07564 0.67408 0.88735 0.0
C995 C 0.19636 0.60349 0.91007 0.0
C996 C 0.19953 0.65627 0.90521 0.0
H997 H 0.14866 0.53644 0.91199 0.0
H998 H 0.22892 0.58382 0.91766 0.0
C999 C 0.15622 0.68019 0.8954 0.0
C1000 C 0.90217 0.73349 0.95566 0.0
C1001 C 0.84961 0.73834 0.95007 0.0
H1002 H 0.96973 0.68546 0.95585 0.0
C1003 C 0.82405 0.69405 0.9423 0.0
H1004 H 0.9237 0.76696 0.96089 0.0
C1005 C 0.85111 0.64804 0.93825 0.0
C1006 C 0.9042 0.64422 0.94263 0.0
H1007 H 0.78406 0.69621 0.93732 0.0
H1008 H 0.83084 0.61592 0.93078 0.0
C1009 C 0.92885 0.68687 0.95241 0.0
C1010 C 0.664 0.66405 0.70385 0.0
C1011 C 0.70537 0.64681 0.69007 0.0
H1012 H 0.58529 0.65189 0.71444 0.0
C1013 C 0.70177 0.59731 0.68061 0.0
H1014 H 0.66512 0.70201 0.7113 0.0
C1015 C 0.65697 0.56747 0.68343 0.0
C1016 C 0.61345 0.58659 0.69524 0.0
H1017 H 0.7328 0.58256 0.66997 0.0
H1018 H 0.65434 0.53165 0.67411 0.0
C1019 C 0.61838 0.63477 0.70603 0.0
C1020 C 0.74636 0.3905 0.46898 0.0
C1021 C 0.74702 0.34604 0.45535 0.0
H1022 H 0.72041 0.46792 0.4731 0.0
C1023 C 0.71879 0.34677 0.43456 0.0
H1024 H 0.76594 0.39084 0.48551 0.0
C1025 C 0.69334 0.39187 0.42702 0.0
C1026 C 0.693 0.43643 0.44079 0.0
H1027 H 0.71492 0.31207 0.42456 0.0
H1028 H 0.67219 0.39119 0.41091 0.0
C1029 C 0.71985 0.43476 0.4619 0.0
C1030 C 0.94409 0.40364 0.20026 0.0
C1031 C 0.89995 0.42793 0.19146 0.0
H1032 H 1.02444 0.41092 0.20854 0.0
C1033 C 0.90123 0.48167 0.18903 0.0
H1034 H 0.94478 0.36239 0.20219 0.0
C1035 C 0.94622 0.50987 0.19374 0.0
C1036 C 0.99205 0.48512 0.20035 0.0
H1037 H 0.86794 0.50179 0.18238 0.0
H1038 H 0.94645 0.55048 0.18995 0.0
C1039 C 0.98969 0.43172 0.20425 0.0
C1040 C 0.76921 0.90171 0.65819 0.0
C1041 C 0.74342 0.85746 0.65055 0.0
H1042 H 0.76283 0.98015 0.66934 0.0
C1043 C 0.69085 0.86236 0.64502 0.0
H1044 H 0.80926 0.89949 0.6631 0.0
C1045 C 0.66442 0.90916 0.64807 0.0
C1046 C 0.68934 0.95193 0.6576 0.0
H1047 H 0.66922 0.82892 0.63985 0.0
H1048 H 0.62356 0.91074 0.64458 0.0
C1049 C 0.74238 0.94794 0.66205 0.0
C1050 C 0.89615 0.99281 0.91162 0.0
C1051 C 0.89313 0.94013 0.9067 0.0
H1052 H 0.94377 0.05982 0.91368 0.0
C1053 C 0.93679 0.91639 0.89702 0.0
H1054 H 0.86332 1.01233 0.91912 0.0
C1055 C 0.98349 0.94352 0.89436 0.0
C1056 C 0.98743 0.99561 0.90049 0.0
H1057 H 0.93607 0.87581 0.89325 0.0
H1058 H 1.01765 0.92263 0.88919 0.0
C1059 C 0.94227 1.0203 0.90819 0.0
C1060 C 0.90533 0.18702 0.17185 0.0
C1061 C 0.91092 0.1442 0.15712 0.0
H1062 H 0.87887 0.26496 0.17545 0.0
C1063 C 0.8878 0.14692 0.13517 0.0
H1064 H 0.92355 0.18704 0.18867 0.0
C1065 C 0.85953 0.19051 0.12834 0.0
C1066 C 0.85345 0.23307 0.14306 0.0
H1067 H 0.89119 0.1151 0.12328 0.0
H1068 H 0.84276 0.19118 0.11119 0.0
C1069 C 0.87825 0.23131 0.16464 0.0
C1070 C 0.61142 0.15092 0.39514 0.0
C1071 C 0.60759 0.09784 0.39962 0.0
H1072 H 0.65809 0.21913 0.39663 0.0
C1073 C 0.65257 0.07227 0.40674 0.0
H1074 H 0.57732 0.17237 0.39045 0.0
C1075 C 0.69818 0.09953 0.41137 0.0
C1076 C 0.70093 0.15306 0.40833 0.0
H1077 H 0.65117 1.03189 0.41097 0.0
H1078 H 0.73078 0.07893 0.41841 0.0
C1079 C 0.65765 0.17799 0.39904 0.0
C1080 C 0.32743 0.19269 0.43991 0.0
C1081 C 0.35318 0.23697 0.4476 0.0
H1082 H 0.33358 0.11398 0.42903 0.0
C1083 C 0.4057 0.23172 0.45327 0.0
H1084 H 0.28746 0.19501 0.43488 0.0
C1085 C 0.43194 0.18459 0.45052 0.0
C1086 C 0.40703 0.1416 0.44112 0.0
H1087 H 0.42742 0.26507 0.45849 0.0
H1088 H 0.47271 0.18286 0.45419 0.0
C1089 C 0.3541 0.14613 0.43632 0.0
C1090 C 0.11377 0.14638 0.20618 0.0
C1091 C 0.1098 0.0949 0.19911 0.0
H1092 H 0.161 0.2141 0.2081 0.0
C1093 C 0.15461 0.07115 0.19046 0.0
H1094 H 0.07977 0.16658 0.21208 0.0
C1095 C 0.20041 0.09911 0.1871 0.0
C1096 C 0.20341 0.15125 0.19299 0.0
H1097 H 0.15292 1.03221 0.18418 0.0
H1098 H 0.23293 0.08046 0.1789 0.0
C1099 C 0.1602 0.17392 0.20356 0.0
C1100 C 0.24085 0.94743 0.93922 0.0
C1101 C 0.18774 0.95103 0.94387 0.0
H1102 H 0.30781 0.89923 0.93729 0.0
C1103 C 0.163 0.90755 0.95312 0.0
H1104 H 0.26115 0.98005 0.93203 0.0
C1105 C 0.18965 0.86064 0.95565 0.0
C1106 C 0.24225 0.85618 0.94982 0.0
H1107 H 0.12208 0.90868 0.95666 0.0
H1108 H 0.16807 0.82678 0.9605 0.0
C1109 C 0.26784 0.90105 0.94252 0.0
C1110 C 0.43507 0.92216 0.70453 0.0
C1111 C 0.39261 0.94667 0.6943 0.0
H1112 H 0.51553 0.92676 0.71296 0.0
C1113 C 0.39702 0.99914 0.68903 0.0
H1114 H 0.43317 0.8817 0.70862 0.0
C1115 C 0.44349 1.02567 0.69263 0.0
C1116 C 0.4876 1.0001 0.70084 0.0
H1117 H 0.36506 1.01921 0.68114 0.0
H1118 H 0.44619 0.06506 0.6869 0.0
C1119 C 0.48216 0.94827 0.70736 0.0
loop_
_geom_bond_atom_site_label_1
_geom_bond_atom_site_label_2
_geom_bond_distance
_geom_bond_site_symmetry_2
_ccdc_geom_bond_type
La0 C2 2.928 . S
La0 O20 2.521 . S
La0 O21 2.628 . S
La0 O22 2.554 . S
La0 O23 2.757 . S
La0 O24 2.470 . S
La0 O29 2.482 . S
La0 O31 2.503 . S
La1 C11 2.928 . S
La1 O23 2.482 . S
La1 O25 2.503 . S
La1 O26 2.521 . S
La1 O27 2.628 . S
La1 O28 2.554 . S
La1 O29 2.757 . S
La1 O30 2.470 . S
C2 La0 2.928 . S
C2 C3 1.503 . S
C2 O20 1.261 . S
C2 O21 1.243 . S
C3 C2 1.503 . S
C3 C4 1.394 . S
C3 C8 1.373 . S
C4 C3 1.394 . S
C4 C5 1.380 . S
C4 H32 0.930 . S
C5 C4 1.380 . S
C5 C6 1.376 . S
C5 H33 0.930 . S
C6 C5 1.376 . S
C6 C7 1.370 . S
C7 C6 1.370 . S
C7 C8 1.396 . S
C7 H34 0.929 . S
C8 C3 1.373 . S
C8 C7 1.396 . S
C8 H35 0.929 . S
C9 O22 1.240 . S
C9 O23 1.289 . S
C10 O24 1.258 . S
C10 O25 1.256 . S
C11 La1 2.928 . S
C11 C12 1.503 . S
C11 O26 1.261 . S
C11 O27 1.243 . S
C12 C11 1.503 . S
C12 C13 1.394 1_545 S
C12 C17 1.373 . S
C13 C12 1.394 1_565 S
C13 C14 1.380 . S
C13 H36 0.930 . S
C14 C13 1.380 . S
C14 C15 1.376 . S
C14 H37 0.930 . S
C15 C14 1.376 . S
C15 C16 1.370 1_565 S
C16 C15 1.370 1_545 S
C16 C17 1.396 . S
C16 H38 0.929 . S
C17 C12 1.373 . S
C17 C16 1.396 . S
C17 H39 0.929 . S
C18 O28 1.240 . S
C18 O29 1.289 . S
C19 O30 1.258 . S
C19 O31 1.256 . S
O20 La0 2.521 . S
O20 C2 1.261 . S
O21 La0 2.628 . S
O21 C2 1.243 . S
O22 La0 2.554 . S
O22 C9 1.240 . S
O23 La0 2.757 . S
O23 La1 2.482 . S
O23 C9 1.289 . S
O24 La0 2.470 . S
O24 C10 1.258 . S
O25 La1 2.503 . S
O25 C10 1.256 . S
O26 La1 2.521 . S
O26 C11 1.261 . S
O27 La1 2.628 . S
O27 C11 1.243 . S
O28 La1 2.554 . S
O28 C18 1.240 . S
O29 La0 2.482 . S
O29 La1 2.757 . S
O29 C18 1.289 . S
O30 La1 2.470 . S
O30 C19 1.258 . S
O31 La0 2.503 . S
O31 C19 1.256 . S
H32 C4 0.930 . S
H33 C5 0.930 . S
H34 C7 0.929 . S
H35 C8 0.929 . S
H36 C13 0.930 . S
H37 C14 0.930 . S
H38 C16 0.929 . S
H39 C17 0.929 . S
La40 C42 2.928 . S
La40 O60 2.521 . S
La40 O61 2.628 . S
La40 O62 2.554 . S
La40 O63 2.757 . S
La40 O64 2.470 . S
La40 O69 2.482 . S
La40 O71 2.503 . S
La41 C51 2.928 . S
La41 O63 2.482 . S
La41 O65 2.503 . S
La41 O66 2.521 . S
La41 O67 2.628 . S
La41 O68 2.554 . S
La41 O69 2.757 . S
La41 O70 2.470 . S
C42 La40 2.928 . S
C42 C43 1.503 . S
C42 O60 1.261 . S
C42 O61 1.243 . S
C43 C42 1.503 . S
C43 C44 1.394 . S
C43 C48 1.373 . S
C44 C43 1.394 . S
C44 C45 1.380 . S
C44 H72 0.930 . S
C45 C44 1.380 . S
C45 C46 1.376 . S
C45 H73 0.930 . S
C46 C45 1.376 . S
C46 C47 1.370 . S
C47 C46 1.370 . S
C47 C48 1.396 . S
C47 H74 0.929 . S
C48 C43 1.373 . S
C48 C47 1.396 . S
C48 H75 0.929 . S
C49 O62 1.240 . S
C49 O63 1.289 . S
C50 O64 1.258 . S
C50 O65 1.256 . S
C51 La41 2.928 . S
C51 C52 1.503 . S
C51 O66 1.261 . S
C51 O67 1.243 . S
C52 C51 1.503 . S
C52 C53 1.394 . S
C52 C57 1.373 . S
C53 C52 1.394 . S
C53 C54 1.380 . S
C53 H76 0.930 . S
C54 C53 1.380 . S
C54 C55 1.376 . S
C54 H77 0.930 . S
C55 C54 1.376 . S
C55 C56 1.370 . S
C56 C55 1.370 . S
C56 C57 1.396 . S
C56 H78 0.929 . S
C57 C52 1.373 . S
C57 C56 1.396 . S
C57 H79 0.929 . S
C58 O68 1.240 . S
C58 O69 1.289 . S
C59 O70 1.258 . S
C59 O71 1.256 . S
O60 La40 2.521 . S
O60 C42 1.261 . S
O61 La40 2.628 . S
O61 C42 1.243 . S
O62 La40 2.554 . S
O62 C49 1.240 . S
O63 La40 2.757 . S
O63 La41 2.482 . S
O63 C49 1.289 . S
O64 La40 2.470 . S
O64 C50 1.258 . S
O65 La41 2.503 . S
O65 C50 1.256 . S
O66 La41 2.521 . S
O66 C51 1.261 . S
O67 La41 2.628 . S
O67 C51 1.243 . S
O68 La41 2.554 . S
O68 C58 1.240 . S
O69 La40 2.482 . S
O69 La41 2.757 . S
O69 C58 1.289 . S
O70 La41 2.470 . S
O70 C59 1.258 . S
O71 La40 2.503 . S
O71 C59 1.256 . S
H72 C44 0.930 . S
H73 C45 0.930 . S
H74 C47 0.929 . S
H75 C48 0.929 . S
H76 C53 0.930 . S
H77 C54 0.930 . S
H78 C56 0.929 . S
H79 C57 0.929 . S
La80 C82 2.928 . S
La80 O100 2.521 . S
La80 O101 2.628 . S
La80 O102 2.554 . S
La80 O103 2.757 . S
La80 O104 2.470 . S
La80 O109 2.482 . S
La80 O111 2.503 . S
La81 C91 2.928 . S
La81 O103 2.482 . S
La81 O105 2.503 . S
La81 O106 2.521 . S
La81 O107 2.628 . S
La81 O108 2.554 . S
La81 O109 2.757 . S
La81 O110 2.470 . S
C82 La80 2.928 . S
C82 C83 1.503 . S
C82 O100 1.261 . S
C82 O101 1.243 . S
C83 C82 1.503 . S
C83 C84 1.394 . S
C83 C88 1.373 . S
C84 C83 1.394 . S
C84 C85 1.380 . S
C84 H112 0.930 . S
C85 C84 1.380 . S
C85 C86 1.376 . S
C85 H113 0.930 . S
C86 C85 1.376 . S
C86 C87 1.370 . S
C87 C86 1.370 . S
C87 C88 1.396 . S
C87 H114 0.929 . S
C88 C83 1.373 . S
C88 C87 1.396 . S
C88 H115 0.929 . S
C89 O102 1.240 . S
C89 O103 1.289 . S
C90 O104 1.258 . S
C90 O105 1.256 . S
C91 La81 2.928 . S
C91 C92 1.503 . S
C91 O106 1.261 . S
C91 O107 1.243 . S
C92 C91 1.503 . S
C92 C93 1.394 1_565 S
C92 C97 1.373 . S
C93 C92 1.394 1_545 S
C93 C94 1.380 . S
C93 H116 0.930 . S
C94 C93 1.380 . S
C94 C95 1.376 . S
C94 H117 0.930 . S
C95 C94 1.376 . S
C95 C96 1.370 1_545 S
C96 C95 1.370 1_565 S
C96 C97 1.396 . S
C96 H118 0.929 . S
C97 C92 1.373 . S
C97 C96 1.396 . S
C97 H119 0.929 . S
C98 O108 1.240 . S
C98 O109 1.289 . S
C99 O110 1.258 . S
C99 O111 1.256 . S
O100 La80 2.521 . S
O100 C82 1.261 . S
O101 La80 2.628 . S
O101 C82 1.243 . S
O102 La80 2.554 . S
O102 C89 1.240 . S
O103 La80 2.757 . S
O103 La81 2.482 . S
O103 C89 1.289 . S
O104 La80 2.470 . S
O104 C90 1.258 . S
O105 La81 2.503 . S
O105 C90 1.256 . S
O106 La81 2.521 . S
O106 C91 1.261 . S
O107 La81 2.628 . S
O107 C91 1.243 . S
O108 La81 2.554 . S
O108 C98 1.240 . S
O109 La80 2.482 . S
O109 La81 2.757 . S
O109 C98 1.289 . S
O110 La81 2.470 . S
O110 C99 1.258 . S
O111 La80 2.503 . S
O111 C99 1.256 . S
H112 C84 0.930 . S
H113 C85 0.930 . S
H114 C87 0.929 . S
H115 C88 0.929 . S
H116 C93 0.930 . S
H117 C94 0.930 . S
H118 C96 0.929 . S
H119 C97 0.929 . S
La120 C122 2.928 . S
La120 O140 2.521 . S
La120 O141 2.628 . S
La120 O142 2.554 . S
La120 O143 2.757 . S
La120 O144 2.470 . S
La120 O149 2.482 . S
La120 O151 2.503 . S
La121 C131 2.928 . S
La121 O143 2.482 . S
La121 O145 2.503 . S
La121 O146 2.521 . S
La121 O147 2.628 . S
La121 O148 2.554 . S
La121 O149 2.757 . S
La121 O150 2.470 . S
C122 La120 2.928 . S
C122 C123 1.503 . S
C122 O140 1.261 . S
C122 O141 1.243 . S
C123 C122 1.503 . S
C123 C124 1.394 1_655 S
C123 C128 1.373 . S
C124 C123 1.394 1_455 S
C124 C125 1.380 . S
C124 H152 0.930 . S
C125 C124 1.380 . S
C125 C126 1.376 . S
C125 H153 0.930 . S
C126 C125 1.376 . S
C126 C127 1.370 1_455 S
C127 C126 1.370 1_655 S
C127 C128 1.396 . S
C127 H154 0.929 . S
C128 C123 1.373 . S
C128 C127 1.396 . S
C128 H155 0.929 . S
C129 O142 1.240 . S
C129 O143 1.289 . S
C130 O144 1.258 . S
C130 O145 1.256 . S
C131 La121 2.928 . S
C131 C132 1.503 . S
C131 O146 1.261 . S
C131 O147 1.243 . S
C132 C131 1.503 . S
C132 C133 1.394 . S
C132 C137 1.373 . S
C133 C132 1.394 . S
C133 C134 1.380 . S
C133 H156 0.930 . S
C134 C133 1.380 . S
C134 C135 1.376 . S
C134 H157 0.930 . S
C135 C134 1.376 . S
C135 C136 1.370 . S
C136 C135 1.370 . S
C136 C137 1.396 . S
C136 H158 0.929 . S
C137 C132 1.373 . S
C137 C136 1.396 . S
C137 H159 0.929 . S
C138 O148 1.240 . S
C138 O149 1.289 . S
C139 O150 1.258 . S
C139 O151 1.256 . S
O140 La120 2.521 . S
O140 C122 1.261 . S
O141 La120 2.628 . S
O141 C122 1.243 . S
O142 La120 2.554 . S
O142 C129 1.240 . S
O143 La120 2.757 . S
O143 La121 2.482 . S
O143 C129 1.289 . S
O144 La120 2.470 . S
O144 C130 1.258 . S
O145 La121 2.503 . S
O145 C130 1.256 . S
O146 La121 2.521 . S
O146 C131 1.261 . S
O147 La121 2.628 . S
O147 C131 1.243 . S
O148 La121 2.554 . S
O148 C138 1.240 . S
O149 La120 2.482 . S
O149 La121 2.757 . S
O149 C138 1.289 . S
O150 La121 2.470 . S
O150 C139 1.258 . S
O151 La120 2.503 . S
O151 C139 1.256 . S
H152 C124 0.930 . S
H153 C125 0.930 . S
H154 C127 0.929 . S
H155 C128 0.929 . S
H156 C133 0.930 . S
H157 C134 0.930 . S
H158 C136 0.929 . S
H159 C137 0.929 . S
La160 C162 2.928 . S
La160 O180 2.521 . S
La160 O181 2.628 . S
La160 O182 2.554 . S
La160 O183 2.757 . S
La160 O184 2.470 . S
La160 O189 2.482 . S
La160 O191 2.503 . S
La161 C171 2.928 . S
La161 O183 2.482 . S
La161 O185 2.503 . S
La161 O186 2.521 . S
La161 O187 2.628 . S
La161 O188 2.554 . S
La161 O189 2.757 . S
La161 O190 2.470 . S
C162 La160 2.928 . S
C162 C163 1.503 . S
C162 O180 1.261 . S
C162 O181 1.243 . S
C163 C162 1.503 . S
C163 C164 1.394 1_565 S
C163 C168 1.373 . S
C164 C163 1.394 1_545 S
C164 C165 1.380 . S
C164 H192 0.930 . S
C165 C164 1.380 . S
C165 C166 1.376 . S
C165 H193 0.930 . S
C166 C165 1.376 . S
C166 C167 1.370 1_545 S
C167 C166 1.370 1_565 S
C167 C168 1.396 . S
C167 H194 0.929 . S
C168 C163 1.373 . S
C168 C167 1.396 . S
C168 H195 0.929 . S
C169 O182 1.240 . S
C169 O183 1.289 . S
C170 O184 1.258 . S
C170 O185 1.256 . S
C171 La161 2.928 . S
C171 C172 1.503 . S
C171 O186 1.261 . S
C171 O187 1.243 . S
C172 C171 1.503 . S
C172 C173 1.394 . S
C172 C177 1.373 . S
C173 C172 1.394 . S
C173 C174 1.380 . S
C173 H196 0.930 . S
C174 C173 1.380 . S
C174 C175 1.376 . S
C174 H197 0.930 . S
C175 C174 1.376 . S
C175 C176 1.370 . S
C176 C175 1.370 . S
C176 C177 1.396 . S
C176 H198 0.929 . S
C177 C172 1.373 . S
C177 C176 1.396 . S
C177 H199 0.929 . S
C178 O188 1.240 . S
C178 O189 1.289 . S
C179 O190 1.258 . S
C179 O191 1.256 . S
O180 La160 2.521 . S
O180 C162 1.261 . S
O181 La160 2.628 . S
O181 C162 1.243 . S
O182 La160 2.554 . S
O182 C169 1.240 . S
O183 La160 2.757 . S
O183 La161 2.482 . S
O183 C169 1.289 . S
O184 La160 2.470 . S
O184 C170 1.258 . S
O185 La161 2.503 . S
O185 C170 1.256 . S
O186 La161 2.521 . S
O186 C171 1.261 . S
O187 La161 2.628 . S
O187 C171 1.243 . S
O188 La161 2.554 . S
O188 C178 1.240 . S
O189 La160 2.482 . S
O189 La161 2.757 . S
O189 C178 1.289 . S
O190 La161 2.470 . S
O190 C179 1.258 . S
O191 La160 2.503 . S
O191 C179 1.256 . S
H192 C164 0.930 . S
H193 C165 0.930 . S
H194 C167 0.929 . S
H195 C168 0.929 . S
H196 C173 0.930 . S
H197 C174 0.930 . S
H198 C176 0.929 . S
H199 C177 0.929 . S
La200 C202 2.928 . S
La200 O220 2.521 . S
La200 O221 2.628 . S
La200 O222 2.554 . S
La200 O223 2.757 . S
La200 O224 2.470 . S
La200 O229 2.482 . S
La200 O231 2.503 . S
La201 C211 2.928 . S
La201 O223 2.482 . S
La201 O225 2.503 . S
La201 O226 2.521 . S
La201 O227 2.628 . S
La201 O228 2.554 . S
La201 O229 2.757 . S
La201 O230 2.470 . S
C202 La200 2.928 . S
C202 C203 1.503 . S
C202 O220 1.261 . S
C202 O221 1.243 . S
C203 C202 1.503 . S
C203 C204 1.394 . S
C203 C208 1.373 . S
C204 C203 1.394 . S
C204 C205 1.380 . S
C204 H232 0.930 . S
C205 C204 1.380 . S
C205 C206 1.376 . S
C205 H233 0.930 . S
C206 C205 1.376 . S
C206 C207 1.370 . S
C207 C206 1.370 . S
C207 C208 1.396 . S
C207 H234 0.929 . S
C208 C203 1.373 . S
C208 C207 1.396 . S
C208 H235 0.929 . S
C209 O222 1.240 . S
C209 O223 1.289 . S
C210 O224 1.258 . S
C210 O225 1.256 . S
C211 La201 2.928 . S
C211 C212 1.503 . S
C211 O226 1.261 . S
C211 O227 1.243 . S
C212 C211 1.503 . S
C212 C213 1.394 . S
C212 C217 1.373 . S
C213 C212 1.394 . S
C213 C214 1.380 . S
C213 H236 0.930 . S
C214 C213 1.380 . S
C214 C215 1.376 . S
C214 H237 0.930 . S
C215 C214 1.376 . S
C215 C216 1.370 . S
C216 C215 1.370 . S
C216 C217 1.396 . S
C216 H238 0.929 . S
C217 C212 1.373 . S
C217 C216 1.396 . S
C217 H239 0.929 . S
C218 O228 1.240 . S
C218 O229 1.289 . S
C219 O230 1.258 . S
C219 O231 1.256 . S
O220 La200 2.521 . S
O220 C202 1.261 . S
O221 La200 2.628 . S
O221 C202 1.243 . S
O222 La200 2.554 . S
O222 C209 1.240 . S
O223 La200 2.757 . S
O223 La201 2.482 . S
O223 C209 1.289 . S
O224 La200 2.470 . S
O224 C210 1.258 . S
O225 La201 2.503 . S
O225 C210 1.256 . S
O226 La201 2.521 . S
O226 C211 1.261 . S
O227 La201 2.628 . S
O227 C211 1.243 . S
O228 La201 2.554 . S
O228 C218 1.240 . S
O229 La200 2.482 . S
O229 La201 2.757 . S
O229 C218 1.289 . S
O230 La201 2.470 . S
O230 C219 1.258 . S
O231 La200 2.503 . S
O231 C219 1.256 . S
H232 C204 0.930 . S
H233 C205 0.930 . S
H234 C207 0.929 . S
H235 C208 0.929 . S
H236 C213 0.930 . S
H237 C214 0.930 . S
H238 C216 0.929 . S
H239 C217 0.929 . S
La240 C242 2.928 . S
La240 O260 2.521 . S
La240 O261 2.628 . S
La240 O262 2.554 . S
La240 O263 2.757 . S
La240 O264 2.470 . S
La240 O269 2.482 . S
La240 O271 2.503 . S
La241 C251 2.928 . S
La241 O263 2.482 . S
La241 O265 2.503 . S
La241 O266 2.521 . S
La241 O267 2.628 . S
La241 O268 2.554 . S
La241 O269 2.757 . S
La241 O270 2.470 . S
C242 La240 2.928 . S
C242 C243 1.503 . S
C242 O260 1.261 . S
C242 O261 1.243 . S
C243 C242 1.503 . S
C243 C244 1.394 1_545 S
C243 C248 1.373 . S
C244 C243 1.394 1_565 S
C244 C245 1.380 . S
C244 H272 0.930 . S
C245 C244 1.380 . S
C245 C246 1.376 . S
C245 H273 0.930 . S
C246 C245 1.376 . S
C246 C247 1.370 1_565 S
C247 C246 1.370 1_545 S
C247 C248 1.396 . S
C247 H274 0.929 . S
C248 C243 1.373 . S
C248 C247 1.396 . S
C248 H275 0.929 . S
C249 O262 1.240 . S
C249 O263 1.289 . S
C250 O264 1.258 . S
C250 O265 1.256 . S
C251 La241 2.928 . S
C251 C252 1.503 . S
C251 O266 1.261 . S
C251 O267 1.243 . S
C252 C251 1.503 . S
C252 C253 1.394 . S
C252 C257 1.373 . S
C253 C252 1.394 . S
C253 C254 1.380 . S
C253 H276 0.930 . S
C254 C253 1.380 . S
C254 C255 1.376 . S
C254 H277 0.930 . S
C255 C254 1.376 . S
C255 C256 1.370 . S
C256 C255 1.370 . S
C256 C257 1.396 . S
C256 H278 0.929 . S
C257 C252 1.373 . S
C257 C256 1.396 . S
C257 H279 0.929 . S
C258 O268 1.240 . S
C258 O269 1.289 . S
C259 O270 1.258 . S
C259 O271 1.256 . S
O260 La240 2.521 . S
O260 C242 1.261 . S
O261 La240 2.628 . S
O261 C242 1.243 . S
O262 La240 2.554 . S
O262 C249 1.240 . S
O263 La240 2.757 . S
O263 La241 2.482 . S
O263 C249 1.289 . S
O264 La240 2.470 . S
O264 C250 1.258 . S
O265 La241 2.503 . S
O265 C250 1.256 . S
O266 La241 2.521 . S
O266 C251 1.261 . S
O267 La241 2.628 . S
O267 C251 1.243 . S
O268 La241 2.554 . S
O268 C258 1.240 . S
O269 La240 2.482 . S
O269 La241 2.757 . S
O269 C258 1.289 . S
O270 La241 2.470 . S
O270 C259 1.258 . S
O271 La240 2.503 . S
O271 C259 1.256 . S
H272 C244 0.930 . S
H273 C245 0.930 . S
H274 C247 0.929 . S
H275 C248 0.929 . S
H276 C253 0.930 . S
H277 C254 0.930 . S
H278 C256 0.929 . S
H279 C257 0.929 . S
La280 C282 2.928 . S
La280 O300 2.521 . S
La280 O301 2.628 . S
La280 O302 2.554 . S
La280 O303 2.757 . S
La280 O304 2.470 . S
La280 O309 2.482 . S
La280 O311 2.503 . S
La281 C291 2.928 . S
La281 O303 2.482 . S
La281 O305 2.503 . S
La281 O306 2.521 . S
La281 O307 2.628 . S
La281 O308 2.554 . S
La281 O309 2.757 . S
La281 O310 2.470 . S
C282 La280 2.928 . S
C282 C283 1.503 . S
C282 O300 1.261 . S
C282 O301 1.243 . S
C283 C282 1.503 . S
C283 C284 1.394 . S
C283 C288 1.373 . S
C284 C283 1.394 . S
C284 C285 1.380 . S
C284 H312 0.930 . S
C285 C284 1.380 . S
C285 C286 1.376 . S
C285 H313 0.930 . S
C286 C285 1.376 . S
C286 C287 1.370 . S
C287 C286 1.370 . S
C287 C288 1.396 . S
C287 H314 0.929 . S
C288 C283 1.373 . S
C288 C287 1.396 . S
C288 H315 0.929 . S
C289 O302 1.240 . S
C289 O303 1.289 . S
C290 O304 1.258 . S
C290 O305 1.256 . S
C291 La281 2.928 . S
C291 C292 1.503 . S
C291 O306 1.261 . S
C291 O307 1.243 . S
C292 C291 1.503 . S
C292 C293 1.394 1_455 S
C292 C297 1.373 . S
C293 C292 1.394 1_655 S
C293 C294 1.380 . S
C293 H316 0.930 . S
C294 C293 1.380 . S
C294 C295 1.376 . S
C294 H317 0.930 . S
C295 C294 1.376 . S
C295 C296 1.370 1_655 S
C296 C295 1.370 1_455 S
C296 C297 1.396 . S
C296 H318 0.929 . S
C297 C292 1.373 . S
C297 C296 1.396 . S
C297 H319 0.929 . S
C298 O308 1.240 . S
C298 O309 1.289 . S
C299 O310 1.258 . S
C299 O311 1.256 . S
O300 La280 2.521 . S
O300 C282 1.261 . S
O301 La280 2.628 . S
O301 C282 1.243 . S
O302 La280 2.554 . S
O302 C289 1.240 . S
O303 La280 2.757 . S
O303 La281 2.482 . S
O303 C289 1.289 . S
O304 La280 2.470 . S
O304 C290 1.258 . S
O305 La281 2.503 . S
O305 C290 1.256 . S
O306 La281 2.521 . S
O306 C291 1.261 . S
O307 La281 2.628 . S
O307 C291 1.243 . S
O308 La281 2.554 . S
O308 C298 1.240 . S
O309 La280 2.482 . S
O309 La281 2.757 . S
O309 C298 1.289 . S
O310 La281 2.470 . S
O310 C299 1.258 . S
O311 La280 2.503 . S
O311 C299 1.256 . S
H312 C284 0.930 . S
H313 C285 0.930 . S
H314 C287 0.929 . S
H315 C288 0.929 . S
H316 C293 0.930 . S
H317 C294 0.930 . S
H318 C296 0.929 . S
H319 C297 0.929 . S
La320 C322 2.928 . S
La320 O340 2.521 . S
La320 O341 2.628 . S
La320 O342 2.554 . S
La320 O343 2.757 . S
La320 O344 2.470 . S
La320 O349 2.482 . S
La320 O351 2.503 . S
La321 C331 2.928 . S
La321 O343 2.482 . S
La321 O345 2.503 . S
La321 O346 2.521 . S
La321 O347 2.628 . S
La321 O348 2.554 . S
La321 O349 2.757 . S
La321 O350 2.470 . S
C322 La320 2.928 . S
C322 C323 1.503 . S
C322 O340 1.261 . S
C322 O341 1.243 . S
C323 C322 1.503 . S
C323 C324 1.394 . S
C323 C328 1.373 . S
C324 C323 1.394 . S
C324 C325 1.380 . S
C324 H352 0.930 . S
C325 C324 1.380 . S
C325 C326 1.376 . S
C325 H353 0.930 . S
C326 C325 1.376 . S
C326 C327 1.370 . S
C327 C326 1.370 . S
C327 C328 1.396 . S
C327 H354 0.929 . S
C328 C323 1.373 . S
C328 C327 1.396 . S
C328 H355 0.929 . S
C329 O342 1.240 . S
C329 O343 1.289 . S
C330 O344 1.258 . S
C330 O345 1.256 . S
C331 La321 2.928 . S
C331 C332 1.503 . S
C331 O346 1.261 . S
C331 O347 1.243 . S
C332 C331 1.503 . S
C332 C333 1.394 . S
C332 C337 1.373 . S
C333 C332 1.394 . S
C333 C334 1.380 . S
C333 H356 0.930 . S
C334 C333 1.380 . S
C334 C335 1.376 . S
C334 H357 0.930 . S
C335 C334 1.376 . S
C335 C336 1.370 . S
C336 C335 1.370 . S
C336 C337 1.396 . S
C336 H358 0.929 . S
C337 C332 1.373 . S
C337 C336 1.396 . S
C337 H359 0.929 . S
C338 O348 1.240 . S
C338 O349 1.289 . S
C339 O350 1.258 . S
C339 O351 1.256 . S
O340 La320 2.521 . S
O340 C322 1.261 . S
O341 La320 2.628 . S
O341 C322 1.243 . S
O342 La320 2.554 . S
O342 C329 1.240 . S
O343 La320 2.757 . S
O343 La321 2.482 . S
O343 C329 1.289 . S
O344 La320 2.470 . S
O344 C330 1.258 . S
O345 La321 2.503 . S
O345 C330 1.256 . S
O346 La321 2.521 . S
O346 C331 1.261 . S
O347 La321 2.628 . S
O347 C331 1.243 . S
O348 La321 2.554 . S
O348 C338 1.240 . S
O349 La320 2.482 . S
O349 La321 2.757 . S
O349 C338 1.289 . S
O350 La321 2.470 . S
O350 C339 1.258 . S
O351 La320 2.503 . S
O351 C339 1.256 . S
H352 C324 0.930 . S
H353 C325 0.930 . S
H354 C327 0.929 . S
H355 C328 0.929 . S
H356 C333 0.930 . S
H357 C334 0.930 . S
H358 C336 0.929 . S
H359 C337 0.929 . S
La360 C362 2.928 1_565 S
La360 O380 2.521 1_565 S
La360 O381 2.628 1_565 S
La360 O382 2.554 . S
La360 O383 2.756 1_565 S
La360 O384 2.470 1_565 S
La360 O389 2.482 1_565 S
La360 O391 2.503 . S
La361 C371 2.928 . S
La361 O383 2.490 . S
La361 O385 2.503 . S
La361 O386 2.521 . S
La361 O387 2.628 1_545 S
La361 O388 2.554 . S
La361 O389 2.757 . S
La361 O390 2.470 1_545 S
C362 La360 2.928 1_545 S
C362 C363 1.503 . S
C362 O380 1.261 . S
C362 O381 1.243 . S
C363 C362 1.503 . S
C363 C364 1.394 1_455 S
C363 C368 1.373 . S
C364 C363 1.394 1_655 S
C364 C365 1.380 . S
C364 H392 0.930 . S
C365 C364 1.380 . S
C365 C366 1.376 . S
C365 H393 0.930 . S
C366 C365 1.376 . S
C366 C367 1.370 1_655 S
C367 C366 1.370 1_455 S
C367 C368 1.396 . S
C367 H394 0.929 . S
C368 C363 1.373 . S
C368 C367 1.396 . S
C368 H395 0.929 . S
C369 O382 1.240 . S
C369 O383 1.285 1_565 S
C370 O384 1.258 . S
C370 O385 1.256 . S
C371 La361 2.928 . S
C371 C372 1.503 1_545 S
C371 O386 1.261 . S
C371 O387 1.243 1_545 S
C372 C371 1.503 1_565 S
C372 C373 1.394 1_565 S
C372 C377 1.373 . S
C373 C372 1.394 1_545 S
C373 C374 1.375 1_545 S
C373 H396 0.930 . S
C374 C373 1.375 1_565 S
C374 C375 1.389 . S
C374 H397 0.923 1_565 S
C375 C374 1.389 . S
C375 C376 1.370 . S
C376 C375 1.370 . S
C376 C377 1.396 . S
C376 H398 0.929 . S
C377 C372 1.373 . S
C377 C376 1.396 . S
C377 H399 0.929 . S
C378 O388 1.240 . S
C378 O389 1.289 . S
C379 O390 1.258 . S
C379 O391 1.256 . S
O380 La360 2.521 1_545 S
O380 C362 1.261 . S
O381 La360 2.628 1_545 S
O381 C362 1.243 . S
O382 La360 2.554 . S
O382 C369 1.240 . S
O383 La360 2.756 1_545 S
O383 La361 2.490 . S
O383 C369 1.285 1_545 S
O384 La360 2.470 1_545 S
O384 C370 1.258 . S
O385 La361 2.503 . S
O385 C370 1.256 . S
O386 La361 2.521 . S
O386 C371 1.261 . S
O387 La361 2.628 1_565 S
O387 C371 1.243 1_565 S
O388 La361 2.554 . S
O388 C378 1.240 . S
O389 La360 2.482 1_545 S
O389 La361 2.757 . S
O389 C378 1.289 . S
O390 La361 2.470 1_565 S
O390 C379 1.258 . S
O391 La360 2.503 . S
O391 C379 1.256 . S
H392 C364 0.930 . S
H393 C365 0.930 . S
H394 C367 0.929 . S
H395 C368 0.929 . S
H396 C373 0.930 . S
H397 C374 0.923 1_545 S
H398 C376 0.929 . S
H399 C377 0.929 . S
La400 C402 2.928 . S
La400 O420 2.521 . S
La400 O421 2.628 . S
La400 O422 2.554 . S
La400 O423 2.757 . S
La400 O424 2.470 . S
La400 O429 2.482 . S
La400 O431 2.503 . S
La401 C411 2.928 . S
La401 O423 2.482 . S
La401 O425 2.503 . S
La401 O426 2.521 . S
La401 O427 2.628 . S
La401 O428 2.554 . S
La401 O429 2.757 . S
La401 O430 2.470 . S
C402 La400 2.928 . S
C402 C403 1.503 . S
C402 O420 1.261 . S
C402 O421 1.243 . S
C403 C402 1.503 . S
C403 C404 1.394 . S
C403 C408 1.373 . S
C404 C403 1.394 . S
C404 C405 1.380 . S
C404 H432 0.930 . S
C405 C404 1.380 . S
C405 C406 1.376 . S
C405 H433 0.930 . S
C406 C405 1.376 . S
C406 C407 1.370 . S
C407 C406 1.370 . S
C407 C408 1.396 . S
C407 H434 0.929 . S
C408 C403 1.373 . S
C408 C407 1.396 . S
C408 H435 0.929 . S
C409 O422 1.240 . S
C409 O423 1.289 . S
C410 O424 1.258 . S
C410 O425 1.256 . S
C411 La401 2.928 . S
C411 C412 1.503 . S
C411 O426 1.261 . S
C411 O427 1.243 . S
C412 C411 1.503 . S
C412 C413 1.394 . S
C412 C417 1.373 . S
C413 C412 1.394 . S
C413 C414 1.380 . S
C413 H436 0.930 . S
C414 C413 1.380 . S
C414 C415 1.376 . S
C414 H437 0.930 . S
C415 C414 1.376 . S
C415 C416 1.370 . S
C416 C415 1.370 . S
C416 C417 1.396 . S
C416 H438 0.929 . S
C417 C412 1.373 . S
C417 C416 1.396 . S
C417 H439 0.929 . S
C418 O428 1.240 . S
C418 O429 1.289 . S
C419 O430 1.258 . S
C419 O431 1.256 . S
O420 La400 2.521 . S
O420 C402 1.261 . S
O421 La400 2.628 . S
O421 C402 1.243 . S
O422 La400 2.554 . S
O422 C409 1.240 . S
O423 La400 2.757 . S
O423 La401 2.482 . S
O423 C409 1.289 . S
O424 La400 2.470 . S
O424 C410 1.258 . S
O425 La401 2.503 . S
O425 C410 1.256 . S
O426 La401 2.521 . S
O426 C411 1.261 . S
O427 La401 2.628 . S
O427 C411 1.243 . S
O428 La401 2.554 . S
O428 C418 1.240 . S
O429 La400 2.482 . S
O429 La401 2.757 . S
O429 C418 1.289 . S
O430 La401 2.470 . S
O430 C419 1.258 . S
O431 La400 2.503 . S
O431 C419 1.256 . S
H432 C404 0.930 . S
H433 C405 0.930 . S
H434 C407 0.929 . S
H435 C408 0.929 . S
H436 C413 0.930 . S
H437 C414 0.930 . S
H438 C416 0.929 . S
H439 C417 0.929 . S
La440 C442 2.928 1_545 S
La440 O460 2.521 1_545 S
La440 O461 2.628 1_545 S
La440 O462 2.554 . S
La440 O463 2.756 1_545 S
La440 O464 2.470 1_545 S
La440 O469 2.482 1_545 S
La440 O471 2.503 . S
La441 C451 2.928 . S
La441 O463 2.490 . S
La441 O465 2.503 . S
La441 O466 2.521 . S
La441 O467 2.628 1_565 S
La441 O468 2.554 . S
La441 O469 2.757 . S
La441 O470 2.470 1_565 S
C442 La440 2.928 1_565 S
C442 C443 1.503 . S
C442 O460 1.261 . S
C442 O461 1.243 . S
C443 C442 1.503 . S
C443 C444 1.394 . S
C443 C448 1.373 . S
C444 C443 1.394 . S
C444 C445 1.380 . S
C444 H472 0.930 . S
C445 C444 1.380 . S
C445 C446 1.376 . S
C445 H473 0.930 . S
C446 C445 1.376 . S
C446 C447 1.370 . S
C447 C446 1.370 . S
C447 C448 1.396 . S
C447 H474 0.929 . S
C448 C443 1.373 . S
C448 C447 1.396 . S
C448 H475 0.929 . S
C449 O462 1.240 . S
C449 O463 1.285 1_545 S
C450 O464 1.258 . S
C450 O465 1.256 . S
C451 La441 2.928 . S
C451 C452 1.503 1_565 S
C451 O466 1.261 . S
C451 O467 1.243 1_565 S
C452 C451 1.503 1_545 S
C452 C453 1.394 1_545 S
C452 C457 1.373 . S
C453 C452 1.394 1_565 S
C453 C454 1.375 1_565 S
C453 H476 0.930 . S
C454 C453 1.375 1_545 S
C454 C455 1.389 . S
C454 H477 0.924 1_545 S
C455 C454 1.389 . S
C455 C456 1.370 . S
C456 C455 1.370 . S
C456 C457 1.396 . S
C456 H478 0.929 . S
C457 C452 1.373 . S
C457 C456 1.396 . S
C457 H479 0.929 . S
C458 O468 1.240 . S
C458 O469 1.289 . S
C459 O470 1.258 . S
C459 O471 1.256 . S
O460 La440 2.521 1_565 S
O460 C442 1.261 . S
O461 La440 2.628 1_565 S
O461 C442 1.243 . S
O462 La440 2.554 . S
O462 C449 1.240 . S
O463 La440 2.756 1_565 S
O463 La441 2.490 . S
O463 C449 1.285 1_565 S
O464 La440 2.470 1_565 S
O464 C450 1.258 . S
O465 La441 2.503 . S
O465 C450 1.256 . S
O466 La441 2.521 . S
O466 C451 1.261 . S
O467 La441 2.628 1_545 S
O467 C451 1.243 1_545 S
O468 La441 2.554 . S
O468 C458 1.240 . S
O469 La440 2.482 1_565 S
O469 La441 2.757 . S
O469 C458 1.289 . S
O470 La441 2.470 1_545 S
O470 C459 1.258 . S
O471 La440 2.503 . S
O471 C459 1.256 . S
H472 C444 0.930 . S
H473 C445 0.930 . S
H474 C447 0.929 . S
H475 C448 0.929 . S
H476 C453 0.930 . S
H477 C454 0.924 1_565 S
H478 C456 0.929 . S
H479 C457 0.929 . S
La480 C482 2.928 . S
La480 O500 2.521 . S
La480 O501 2.628 . S
La480 O502 2.554 . S
La480 O503 2.757 . S
La480 O504 2.470 . S
La480 O509 2.482 . S
La480 O511 2.503 . S
La481 C491 2.928 . S
La481 O503 2.482 . S
La481 O505 2.503 . S
La481 O506 2.521 . S
La481 O507 2.628 . S
La481 O508 2.554 . S
La481 O509 2.757 . S
La481 O510 2.470 . S
C482 La480 2.928 . S
C482 C483 1.503 . S
C482 O500 1.261 . S
C482 O501 1.243 . S
C483 C482 1.503 . S
C483 C484 1.394 . S
C483 C488 1.373 . S
C484 C483 1.394 . S
C484 C485 1.380 . S
C484 H512 0.930 . S
C485 C484 1.380 . S
C485 C486 1.376 . S
C485 H513 0.930 . S
C486 C485 1.376 . S
C486 C487 1.370 . S
C487 C486 1.370 . S
C487 C488 1.396 . S
C487 H514 0.929 . S
C488 C483 1.373 . S
C488 C487 1.396 . S
C488 H515 0.929 . S
C489 O502 1.240 . S
C489 O503 1.289 . S
C490 O504 1.258 . S
C490 O505 1.256 . S
C491 La481 2.928 . S
C491 C492 1.503 . S
C491 O506 1.261 . S
C491 O507 1.243 . S
C492 C491 1.503 . S
C492 C493 1.394 . S
C492 C497 1.373 . S
C493 C492 1.394 . S
C493 C494 1.380 . S
C493 H516 0.930 . S
C494 C493 1.380 . S
C494 C495 1.376 . S
C494 H517 0.930 . S
C495 C494 1.376 . S
C495 C496 1.370 . S
C496 C495 1.370 . S
C496 C497 1.396 . S
C496 H518 0.929 . S
C497 C492 1.373 . S
C497 C496 1.396 . S
C497 H519 0.929 . S
C498 O508 1.240 . S
C498 O509 1.289 . S
C499 O510 1.258 . S
C499 O511 1.256 . S
O500 La480 2.521 . S
O500 C482 1.261 . S
O501 La480 2.628 . S
O501 C482 1.243 . S
O502 La480 2.554 . S
O502 C489 1.240 . S
O503 La480 2.757 . S
O503 La481 2.482 . S
O503 C489 1.289 . S
O504 La480 2.470 . S
O504 C490 1.258 . S
O505 La481 2.503 . S
O505 C490 1.256 . S
O506 La481 2.521 . S
O506 C491 1.261 . S
O507 La481 2.628 . S
O507 C491 1.243 . S
O508 La481 2.554 . S
O508 C498 1.240 . S
O509 La480 2.482 . S
O509 La481 2.757 . S
O509 C498 1.289 . S
O510 La481 2.470 . S
O510 C499 1.258 . S
O511 La480 2.503 . S
O511 C499 1.256 . S
H512 C484 0.930 . S
H513 C485 0.930 . S
H514 C487 0.929 . S
H515 C488 0.929 . S
H516 C493 0.930 . S
H517 C494 0.930 . S
H518 C496 0.929 . S
H519 C497 0.929 . S
La520 C522 2.928 . S
La520 O540 2.521 . S
La520 O541 2.628 1_565 S
La520 O542 2.554 . S
La520 O543 2.757 . S
La520 O544 2.470 1_565 S
La520 O549 2.490 . S
La520 O551 2.503 . S
La521 C531 2.928 1_545 S
La521 O543 2.482 1_545 S
La521 O545 2.503 . S
La521 O546 2.521 1_545 S
La521 O547 2.628 1_545 S
La521 O548 2.554 . S
La521 O549 2.756 1_545 S
La521 O550 2.470 1_545 S
C522 La520 2.928 . S
C522 C523 1.503 1_565 S
C522 O540 1.261 . S
C522 O541 1.243 1_565 S
C523 C522 1.503 1_545 S
C523 C524 1.394 1_545 S
C523 C528 1.373 . S
C524 C523 1.394 1_565 S
C524 C525 1.375 1_565 S
C524 H552 0.930 . S
C525 C524 1.375 1_545 S
C525 C526 1.389 . S
C525 H553 0.923 1_545 S
C526 C525 1.389 . S
C526 C527 1.370 . S
C527 C526 1.370 . S
C527 C528 1.396 . S
C527 H554 0.929 . S
C528 C523 1.373 . S
C528 C527 1.396 . S
C528 H555 0.929 . S
C529 O542 1.240 . S
C529 O543 1.289 . S
C530 O544 1.258 . S
C530 O545 1.256 . S
C531 La521 2.928 1_565 S
C531 C532 1.503 . S
C531 O546 1.261 . S
C531 O547 1.243 . S
C532 C531 1.503 . S
C532 C533 1.394 1_655 S
C532 C537 1.373 . S
C533 C532 1.394 1_455 S
C533 C534 1.380 . S
C533 H556 0.930 . S
C534 C533 1.380 . S
C534 C535 1.376 . S
C534 H557 0.930 . S
C535 C534 1.376 . S
C535 C536 1.370 1_455 S
C536 C535 1.370 1_655 S
C536 C537 1.396 . S
C536 H558 0.929 . S
C537 C532 1.373 . S
C537 C536 1.396 . S
C537 H559 0.929 . S
C538 O548 1.240 . S
C538 O549 1.285 1_545 S
C539 O550 1.258 . S
C539 O551 1.256 . S
O540 La520 2.521 . S
O540 C522 1.261 . S
O541 La520 2.628 1_545 S
O541 C522 1.243 1_545 S
O542 La520 2.554 . S
O542 C529 1.240 . S
O543 La520 2.757 . S
O543 La521 2.482 1_565 S
O543 C529 1.289 . S
O544 La520 2.470 1_545 S
O544 C530 1.258 . S
O545 La521 2.503 . S
O545 C530 1.256 . S
O546 La521 2.521 1_565 S
O546 C531 1.261 . S
O547 La521 2.628 1_565 S
O547 C531 1.243 . S
O548 La521 2.554 . S
O548 C538 1.240 . S
O549 La520 2.490 . S
O549 La521 2.756 1_565 S
O549 C538 1.285 1_565 S
O550 La521 2.470 1_565 S
O550 C539 1.258 . S
O551 La520 2.503 . S
O551 C539 1.256 . S
H552 C524 0.930 . S
H553 C525 0.923 1_565 S
H554 C527 0.929 . S
H555 C528 0.929 . S
H556 C533 0.930 . S
H557 C534 0.930 . S
H558 C536 0.929 . S
H559 C537 0.929 . S
La560 C562 2.928 . S
La560 O580 2.521 . S
La560 O581 2.628 . S
La560 O582 2.554 . S
La560 O583 2.757 . S
La560 O584 2.470 . S
La560 O589 2.482 . S
La560 O591 2.503 . S
La561 C571 2.928 . S
La561 O583 2.482 . S
La561 O585 2.503 . S
La561 O586 2.521 . S
La561 O587 2.628 . S
La561 O588 2.554 . S
La561 O589 2.757 . S
La561 O590 2.470 . S
C562 La560 2.928 . S
C562 C563 1.503 . S
C562 O580 1.261 . S
C562 O581 1.243 . S
C563 C562 1.503 . S
C563 C564 1.394 . S
C563 C568 1.373 . S
C564 C563 1.394 . S
C564 C565 1.380 . S
C564 H592 0.930 . S
C565 C564 1.380 . S
C565 C566 1.376 . S
C565 H593 0.930 . S
C566 C565 1.376 . S
C566 C567 1.370 . S
C567 C566 1.370 . S
C567 C568 1.396 . S
C567 H594 0.929 . S
C568 C563 1.373 . S
C568 C567 1.396 . S
C568 H595 0.929 . S
C569 O582 1.240 . S
C569 O583 1.289 . S
C570 O584 1.258 . S
C570 O585 1.256 . S
C571 La561 2.928 . S
C571 C572 1.503 . S
C571 O586 1.261 . S
C571 O587 1.243 . S
C572 C571 1.503 . S
C572 C573 1.394 . S
C572 C577 1.373 . S
C573 C572 1.394 . S
C573 C574 1.380 . S
C573 H596 0.930 . S
C574 C573 1.380 . S
C574 C575 1.376 . S
C574 H597 0.930 . S
C575 C574 1.376 . S
C575 C576 1.370 . S
C576 C575 1.370 . S
C576 C577 1.396 . S
C576 H598 0.929 . S
C577 C572 1.373 . S
C577 C576 1.396 . S
C577 H599 0.929 . S
C578 O588 1.240 . S
C578 O589 1.289 . S
C579 O590 1.258 . S
C579 O591 1.256 . S
O580 La560 2.521 . S
O580 C562 1.261 . S
O581 La560 2.628 . S
O581 C562 1.243 . S
O582 La560 2.554 . S
O582 C569 1.240 . S
O583 La560 2.757 . S
O583 La561 2.482 . S
O583 C569 1.289 . S
O584 La560 2.470 . S
O584 C570 1.258 . S
O585 La561 2.503 . S
O585 C570 1.256 . S
O586 La561 2.521 . S
O586 C571 1.261 . S
O587 La561 2.628 . S
O587 C571 1.243 . S
O588 La561 2.554 . S
O588 C578 1.240 . S
O589 La560 2.482 . S
O589 La561 2.757 . S
O589 C578 1.289 . S
O590 La561 2.470 . S
O590 C579 1.258 . S
O591 La560 2.503 . S
O591 C579 1.256 . S
H592 C564 0.930 . S
H593 C565 0.930 . S
H594 C567 0.929 . S
H595 C568 0.929 . S
H596 C573 0.930 . S
H597 C574 0.930 . S
H598 C576 0.929 . S
H599 C577 0.929 . S
La600 C602 2.928 . S
La600 O620 2.521 . S
La600 O621 2.628 1_545 S
La600 O622 2.554 . S
La600 O623 2.757 . S
La600 O624 2.470 1_545 S
La600 O629 2.490 . S
La600 O631 2.503 . S
La601 C611 2.928 1_565 S
La601 O623 2.482 1_565 S
La601 O625 2.503 . S
La601 O626 2.521 1_565 S
La601 O627 2.628 1_565 S
La601 O628 2.554 . S
La601 O629 2.756 1_565 S
La601 O630 2.470 1_565 S
C602 La600 2.928 . S
C602 C603 1.503 1_545 S
C602 O620 1.261 . S
C602 O621 1.243 1_545 S
C603 C602 1.503 1_565 S
C603 C604 1.394 1_565 S
C603 C608 1.373 . S
C604 C603 1.394 1_545 S
C604 C605 1.375 1_545 S
C604 H632 0.930 . S
C605 C604 1.375 1_565 S
C605 C606 1.389 . S
C605 H633 0.924 1_565 S
C606 C605 1.389 . S
C606 C607 1.370 . S
C607 C606 1.370 . S
C607 C608 1.396 . S
C607 H634 0.929 . S
C608 C603 1.373 . S
C608 C607 1.396 . S
C608 H635 0.929 . S
C609 O622 1.240 . S
C609 O623 1.289 . S
C610 O624 1.258 . S
C610 O625 1.256 . S
C611 La601 2.928 1_545 S
C611 C612 1.503 . S
C611 O626 1.261 . S
C611 O627 1.243 . S
C612 C611 1.503 . S
C612 C613 1.394 . S
C612 C617 1.373 . S
C613 C612 1.394 . S
C613 C614 1.380 . S
C613 H636 0.930 . S
C614 C613 1.380 . S
C614 C615 1.376 . S
C614 H637 0.930 . S
C615 C614 1.376 . S
C615 C616 1.370 . S
C616 C615 1.370 . S
C616 C617 1.396 . S
C616 H638 0.929 . S
C617 C612 1.373 . S
C617 C616 1.396 . S
C617 H639 0.929 . S
C618 O628 1.240 . S
C618 O629 1.285 1_565 S
C619 O630 1.258 . S
C619 O631 1.256 . S
O620 La600 2.521 . S
O620 C602 1.261 . S
O621 La600 2.628 1_565 S
O621 C602 1.243 1_565 S
O622 La600 2.554 . S
O622 C609 1.240 . S
O623 La600 2.757 . S
O623 La601 2.482 1_545 S
O623 C609 1.289 . S
O624 La600 2.470 1_565 S
O624 C610 1.258 . S
O625 La601 2.503 . S
O625 C610 1.256 . S
O626 La601 2.521 1_545 S
O626 C611 1.261 . S
O627 La601 2.628 1_545 S
O627 C611 1.243 . S
O628 La601 2.554 . S
O628 C618 1.240 . S
O629 La600 2.490 . S
O629 La601 2.756 1_545 S
O629 C618 1.285 1_545 S
O630 La601 2.470 1_545 S
O630 C619 1.258 . S
O631 La600 2.503 . S
O631 C619 1.256 . S
H632 C604 0.930 . S
H633 C605 0.924 1_545 S
H634 C607 0.929 . S
H635 C608 0.929 . S
H636 C613 0.930 . S
H637 C614 0.930 . S
H638 C616 0.929 . S
H639 C617 0.929 . S
C640 C641 1.387 . S
C640 H644 0.950 . S
C640 C649 1.390 . S
C641 C640 1.387 . S
C641 C643 1.387 . S
H642 C649 0.950 . S
C643 C641 1.387 . S
C643 C645 1.390 . S
C643 H647 0.950 . S
H644 C640 0.950 . S
C645 C643 1.390 . S
C645 C646 1.387 . S
C645 H648 0.950 . S
C646 C645 1.387 . S
C646 C649 1.387 . S
H647 C643 0.950 . S
H648 C645 0.950 . S
C649 C640 1.390 . S
C649 H642 0.950 . S
C649 C646 1.387 . S
C650 C651 1.387 . S
C650 H654 0.950 . S
C650 C659 1.390 . S
C651 C650 1.387 . S
C651 C653 1.387 . S
H652 C659 0.950 . S
C653 C651 1.387 . S
C653 C655 1.390 . S
C653 H657 0.950 . S
H654 C650 0.950 . S
C655 C653 1.390 . S
C655 C656 1.387 . S
C655 H658 0.950 . S
C656 C655 1.387 . S
C656 C659 1.387 . S
H657 C653 0.950 . S
H658 C655 0.950 . S
C659 C650 1.390 . S
C659 H652 0.950 . S
C659 C656 1.387 . S
C660 C661 1.387 . S
C660 H664 0.950 . S
C660 C669 1.390 . S
C661 C660 1.387 . S
C661 C663 1.387 . S
H662 C669 0.950 . S
C663 C661 1.387 . S
C663 C665 1.390 . S
C663 H667 0.950 . S
H664 C660 0.950 . S
C665 C663 1.390 . S
C665 C666 1.387 . S
C665 H668 0.950 . S
C666 C665 1.387 . S
C666 C669 1.387 . S
H667 C663 0.950 . S
H668 C665 0.950 . S
C669 C660 1.390 . S
C669 H662 0.950 . S
C669 C666 1.387 . S
C670 C671 1.387 . S
C670 H674 0.950 . S
C670 C679 1.390 1_455 S
C671 C670 1.387 . S
C671 C673 1.387 1_554 S
H672 C679 0.950 . S
C673 C671 1.387 1_556 S
C673 C675 1.390 1_455 S
C673 H677 0.950 . S
H674 C670 0.950 . S
C675 C673 1.390 1_655 S
C675 C676 1.387 . S
C675 H678 0.950 . S
C676 C675 1.387 . S
C676 C679 1.387 1_556 S
H677 C673 0.950 . S
H678 C675 0.950 . S
C679 C670 1.390 1_655 S
C679 H672 0.950 . S
C679 C676 1.387 1_554 S
C680 C681 1.387 . S
C680 H684 0.950 . S
C680 C689 1.390 . S
C681 C680 1.387 . S
C681 C683 1.387 . S
H682 C689 0.950 . S
C683 C681 1.387 . S
C683 C685 1.390 . S
C683 H687 0.950 . S
H684 C680 0.950 . S
C685 C683 1.390 . S
C685 C686 1.387 . S
C685 H688 0.950 . S
C686 C685 1.387 . S
C686 C689 1.387 . S
H687 C683 0.950 . S
H688 C685 0.950 . S
C689 C680 1.390 . S
C689 H682 0.950 . S
C689 C686 1.387 . S
C690 C691 1.387 . S
C690 H694 0.950 . S
C690 C699 1.390 . S
C691 C690 1.387 . S
C691 C693 1.387 . S
H692 C699 0.950 . S
C693 C691 1.387 . S
C693 C695 1.390 . S
C693 H697 0.950 . S
H694 C690 0.950 . S
C695 C693 1.390 . S
C695 C696 1.387 . S
C695 H698 0.950 . S
C696 C695 1.387 . S
C696 C699 1.387 . S
H697 C693 0.950 . S
H698 C695 0.950 . S
C699 C690 1.390 . S
C699 H692 0.950 . S
C699 C696 1.387 . S
C700 C701 1.387 1_554 S
C700 H704 0.950 . S
C700 C709 1.390 1_465 S
C701 C700 1.387 1_556 S
C701 C703 1.387 . S
H702 C709 0.950 . S
C703 C701 1.387 . S
C703 C705 1.390 1_465 S
C703 H707 0.950 . S
H704 C700 0.950 . S
C705 C703 1.390 1_645 S
C705 C706 1.387 1_556 S
C705 H708 0.950 . S
C706 C705 1.387 1_554 S
C706 C709 1.387 . S
H707 C703 0.950 . S
H708 C705 0.950 . S
C709 C700 1.390 1_645 S
C709 H702 0.950 . S
C709 C706 1.387 . S
C710 C711 1.387 . S
C710 H714 0.950 . S
C710 C719 1.390 1_565 S
C711 C710 1.387 . S
C711 C713 1.387 . S
H712 C719 0.950 . S
C713 C711 1.387 . S
C713 C715 1.390 1_565 S
C713 H717 0.950 . S
H714 C710 0.950 . S
C715 C713 1.390 1_545 S
C715 C716 1.387 . S
C715 H718 0.950 . S
C716 C715 1.387 . S
C716 C719 1.387 . S
H717 C713 0.950 . S
H718 C715 0.950 . S
C719 C710 1.390 1_545 S
C719 H712 0.950 . S
C719 C716 1.387 . S
C720 C721 1.387 . S
C720 H724 0.950 . S
C720 C729 1.390 . S
C721 C720 1.387 . S
C721 C723 1.387 . S
H722 C729 0.950 . S
C723 C721 1.387 . S
C723 C725 1.390 . S
C723 H727 0.950 . S
H724 C720 0.950 . S
C725 C723 1.390 . S
C725 C726 1.387 1_545 S
C725 H728 0.950 . S
C726 C725 1.387 1_565 S
C726 C729 1.387 1_565 S
H727 C723 0.950 . S
H728 C725 0.950 . S
C729 C720 1.390 . S
C729 H722 0.950 . S
C729 C726 1.387 1_545 S
C730 C731 1.387 . S
C730 H734 0.950 . S
C730 C739 1.390 . S
C731 C730 1.387 . S
C731 C733 1.387 . S
H732 C739 0.950 . S
C733 C731 1.387 . S
C733 C735 1.390 . S
C733 H737 0.950 . S
H734 C730 0.950 . S
C735 C733 1.390 . S
C735 C736 1.387 . S
C735 H738 0.950 . S
C736 C735 1.387 . S
C736 C739 1.387 . S
H737 C733 0.950 . S
H738 C735 0.950 . S
C739 C730 1.390 . S
C739 H732 0.950 . S
C739 C736 1.387 . S
C740 C741 1.387 1_565 S
C740 H744 0.950 . S
C740 C749 1.390 . S
C741 C740 1.387 1_545 S
C741 C743 1.387 1_545 S
H742 C749 0.950 . S
C743 C741 1.387 1_565 S
C743 C745 1.390 . S
C743 H747 0.950 . S
H744 C740 0.950 . S
C745 C743 1.390 . S
C745 C746 1.387 . S
C745 H748 0.950 . S
C746 C745 1.387 . S
C746 C749 1.387 . S
H747 C743 0.950 . S
H748 C745 0.950 . S
C749 C740 1.390 . S
C749 H742 0.950 . S
C749 C746 1.387 . S
C750 C751 1.387 . S
C750 H754 0.950 . S
C750 C759 1.390 . S
C751 C750 1.387 . S
C751 C753 1.387 . S
H752 C759 0.950 . S
C753 C751 1.387 . S
C753 C755 1.390 . S
C753 H757 0.950 . S
H754 C750 0.950 . S
C755 C753 1.390 . S
C755 C756 1.387 . S
C755 H758 0.950 . S
C756 C755 1.387 . S
C756 C759 1.387 . S
H757 C753 0.950 . S
H758 C755 0.950 . S
C759 C750 1.390 . S
C759 H752 0.950 . S
C759 C756 1.387 . S
C760 C761 1.387 . S
C760 H764 0.950 . S
C760 C769 1.390 . S
C761 C760 1.387 . S
C761 C763 1.387 . S
H762 C769 0.950 . S
C763 C761 1.387 . S
C763 C765 1.390 . S
C763 H767 0.950 . S
H764 C760 0.950 . S
C765 C763 1.390 . S
C765 C766 1.387 1_565 S
C765 H768 0.950 . S
C766 C765 1.387 1_545 S
C766 C769 1.387 1_545 S
H767 C763 0.950 . S
H768 C765 0.950 . S
C769 C760 1.390 . S
C769 H762 0.950 . S
C769 C766 1.387 1_565 S
C770 C771 1.387 . S
C770 H774 0.950 . S
C770 C779 1.390 . S
C771 C770 1.387 . S
C771 C773 1.387 . S
H772 C779 0.950 . S
C773 C771 1.387 . S
C773 C775 1.390 . S
C773 H777 0.950 . S
H774 C770 0.950 . S
C775 C773 1.390 . S
C775 C776 1.387 . S
C775 H778 0.950 . S
C776 C775 1.387 . S
C776 C779 1.387 . S
H777 C773 0.950 . S
H778 C775 0.950 . S
C779 C770 1.390 . S
C779 H772 0.950 . S
C779 C776 1.387 . S
C780 C781 1.385 1_545 S
C780 H784 0.950 . S
C780 C789 1.390 . S
C781 C780 1.385 1_565 S
C781 C783 1.385 1_565 S
H782 C789 0.950 . S
C783 C781 1.385 1_545 S
C783 C785 1.390 . S
C783 H787 0.950 . S
H784 C780 0.950 . S
C785 C783 1.390 . S
C785 C786 1.387 . S
C785 H788 0.950 . S
C786 C785 1.387 . S
C786 C789 1.387 . S
H787 C783 0.950 . S
H788 C785 0.950 . S
C789 C780 1.390 . S
C789 H782 0.950 . S
C789 C786 1.387 . S
C790 C791 1.387 . S
C790 H794 0.950 . S
C790 C799 1.390 . S
C791 C790 1.387 . S
C791 C793 1.387 . S
H792 C799 0.950 . S
C793 C791 1.387 . S
C793 C795 1.390 . S
C793 H797 0.950 . S
H794 C790 0.950 . S
C795 C793 1.390 . S
C795 C796 1.387 . S
C795 H798 0.950 . S
C796 C795 1.387 . S
C796 C799 1.387 . S
H797 C793 0.950 . S
H798 C795 0.950 . S
C799 C790 1.390 . S
C799 H792 0.950 . S
C799 C796 1.387 . S
C800 C801 1.387 . S
C800 H804 0.950 . S
C800 C809 1.390 . S
C801 C800 1.387 . S
C801 C803 1.387 . S
H802 C809 0.950 . S
C803 C801 1.387 . S
C803 C805 1.390 . S
C803 H807 0.950 . S
H804 C800 0.950 . S
C805 C803 1.390 . S
C805 C806 1.387 . S
C805 H808 0.950 . S
C806 C805 1.387 . S
C806 C809 1.387 . S
H807 C803 0.950 . S
H808 C805 0.950 . S
C809 C800 1.390 . S
C809 H802 0.950 . S
C809 C806 1.387 . S
C810 C811 1.404 . S
C810 H814 0.933 1_565 S
C810 C819 1.390 . S
C811 C810 1.404 . S
C811 C813 1.387 . S
H812 C819 0.936 1_545 S
C813 C811 1.387 . S
C813 C815 1.390 . S
C813 H817 0.950 . S
H814 C810 0.933 1_545 S
C815 C813 1.390 . S
C815 C816 1.387 . S
C815 H818 0.950 . S
C816 C815 1.387 . S
C816 C819 1.401 . S
H817 C813 0.950 . S
H818 C815 0.950 . S
C819 C810 1.390 . S
C819 H812 0.936 1_565 S
C819 C816 1.401 . S
C820 C821 1.387 . S
C820 H824 0.950 . S
C820 C829 1.390 . S
C821 C820 1.387 . S
C821 C823 1.387 . S
H822 C829 0.950 . S
C823 C821 1.387 . S
C823 C825 1.390 . S
C823 H827 0.950 . S
H824 C820 0.950 . S
C825 C823 1.390 . S
C825 C826 1.387 . S
C825 H828 0.950 . S
C826 C825 1.387 . S
C826 C829 1.387 . S
H827 C823 0.950 . S
H828 C825 0.950 . S
C829 C820 1.390 . S
C829 H822 0.950 . S
C829 C826 1.387 . S
C830 C831 1.387 . S
C830 H834 0.950 . S
C830 C839 1.390 . S
C831 C830 1.387 . S
C831 C833 1.401 . S
H832 C839 0.950 . S
C833 C831 1.401 . S
C833 C835 1.390 . S
C833 H837 0.936 1_545 S
H834 C830 0.950 . S
C835 C833 1.390 . S
C835 C836 1.404 . S
C835 H838 0.933 1_545 S
C836 C835 1.404 . S
C836 C839 1.387 . S
H837 C833 0.936 1_565 S
H838 C835 0.933 1_565 S
C839 C830 1.390 . S
C839 H832 0.950 . S
C839 C836 1.387 . S
C840 C841 1.387 . S
C840 H844 0.950 . S
C840 C849 1.390 . S
C841 C840 1.387 . S
C841 C843 1.387 . S
H842 C849 0.950 . S
C843 C841 1.387 . S
C843 C845 1.390 . S
C843 H847 0.950 . S
H844 C840 0.950 . S
C845 C843 1.390 . S
C845 C846 1.387 . S
C845 H848 0.950 . S
C846 C845 1.387 . S
C846 C849 1.387 . S
H847 C843 0.950 . S
H848 C845 0.950 . S
C849 C840 1.390 . S
C849 H842 0.950 . S
C849 C846 1.387 . S
C850 C851 1.404 . S
C850 H854 0.933 1_545 S
C850 C859 1.390 . S
C851 C850 1.404 . S
C851 C853 1.387 . S
H852 C859 0.936 1_565 S
C853 C851 1.387 . S
C853 C855 1.390 . S
C853 H857 0.950 . S
H854 C850 0.933 1_565 S
C855 C853 1.390 . S
C855 C856 1.387 . S
C855 H858 0.950 . S
C856 C855 1.387 . S
C856 C859 1.401 . S
H857 C853 0.950 . S
H858 C855 0.950 . S
C859 C850 1.390 . S
C859 H852 0.936 1_545 S
C859 C856 1.401 . S
C860 C861 1.387 . S
C860 H864 0.950 . S
C860 C869 1.390 . S
C861 C860 1.387 . S
C861 C863 1.387 . S
H862 C869 0.950 . S
C863 C861 1.387 . S
C863 C865 1.390 . S
C863 H867 0.950 . S
H864 C860 0.950 . S
C865 C863 1.390 . S
C865 C866 1.387 . S
C865 H868 0.950 . S
C866 C865 1.387 . S
C866 C869 1.387 . S
H867 C863 0.950 . S
H868 C865 0.950 . S
C869 C860 1.390 . S
C869 H862 0.950 . S
C869 C866 1.387 . S
C870 C871 1.387 . S
C870 H874 0.950 . S
C870 C879 1.390 . S
C871 C870 1.387 . S
C871 C873 1.404 . S
H872 C879 0.950 . S
C873 C871 1.404 . S
C873 C875 1.390 . S
C873 H877 0.934 1_565 S
H874 C870 0.950 . S
C875 C873 1.390 . S
C875 C876 1.401 . S
C875 H878 0.936 1_565 S
C876 C875 1.401 . S
C876 C879 1.387 . S
H877 C873 0.934 1_545 S
H878 C875 0.936 1_545 S
C879 C870 1.390 . S
C879 H872 0.950 . S
C879 C876 1.387 . S
C880 C881 1.387 . S
C880 H884 0.950 . S
C880 C889 1.390 . S
C881 C880 1.387 . S
C881 C883 1.387 . S
H882 C889 0.950 . S
C883 C881 1.387 . S
C883 C885 1.390 . S
C883 H887 0.950 . S
H884 C880 0.950 . S
C885 C883 1.390 . S
C885 C886 1.387 . S
C885 H888 0.950 . S
C886 C885 1.387 . S
C886 C889 1.387 . S
H887 C883 0.950 . S
H888 C885 0.950 . S
C889 C880 1.390 . S
C889 H882 0.950 . S
C889 C886 1.387 . S
C890 C891 1.387 . S
C890 H894 0.950 . S
C890 C899 1.390 . S
C891 C890 1.387 . S
C891 C893 1.387 . S
H892 C899 0.950 . S
C893 C891 1.387 . S
C893 C895 1.390 . S
C893 H897 0.950 . S
H894 C890 0.950 . S
C895 C893 1.390 . S
C895 C896 1.387 . S
C895 H898 0.950 . S
C896 C895 1.387 . S
C896 C899 1.387 . S
H897 C893 0.950 . S
H898 C895 0.950 . S
C899 C890 1.390 . S
C899 H892 0.950 . S
C899 C896 1.387 . S
C900 C901 1.387 . S
C900 H904 0.950 . S
C900 C909 1.390 1_655 S
C901 C900 1.387 . S
C901 C903 1.387 . S
H902 C909 0.950 . S
C903 C901 1.387 . S
C903 C905 1.390 1_655 S
C903 H907 0.950 . S
H904 C900 0.950 . S
C905 C903 1.390 1_455 S
C905 C906 1.387 . S
C905 H908 0.950 . S
C906 C905 1.387 . S
C906 C909 1.387 . S
H907 C903 0.950 . S
H908 C905 0.950 . S
C909 C900 1.390 1_455 S
C909 H902 0.950 . S
C909 C906 1.387 . S
C910 C911 1.387 . S
C910 H914 0.950 . S
C910 C919 1.390 1_655 S
C911 C910 1.387 . S
C911 C913 1.387 . S
H912 C919 0.950 . S
C913 C911 1.387 . S
C913 C915 1.390 1_655 S
C913 H917 0.950 . S
H914 C910 0.950 . S
C915 C913 1.390 1_455 S
C915 C916 1.387 . S
C915 H918 0.950 . S
C916 C915 1.387 . S
C916 C919 1.387 . S
H917 C913 0.950 . S
H918 C915 0.950 . S
C919 C910 1.390 1_455 S
C919 H912 0.950 . S
C919 C916 1.387 . S
C920 C921 1.387 . S
C920 H924 0.950 . S
C920 C929 1.390 . S
C921 C920 1.387 . S
C921 C923 1.387 . S
H922 C929 0.950 . S
C923 C921 1.387 . S
C923 C925 1.390 . S
C923 H927 0.950 . S
H924 C920 0.950 . S
C925 C923 1.390 . S
C925 C926 1.387 . S
C925 H928 0.950 . S
C926 C925 1.387 . S
C926 C929 1.387 . S
H927 C923 0.950 . S
H928 C925 0.950 . S
C929 C920 1.390 . S
C929 H922 0.950 . S
C929 C926 1.387 . S
C930 C931 1.387 . S
C930 H934 0.950 . S
C930 C939 1.390 . S
C931 C930 1.387 . S
C931 C933 1.387 . S
H932 C939 0.950 . S
C933 C931 1.387 . S
C933 C935 1.390 . S
C933 H937 0.950 . S
H934 C930 0.950 . S
C935 C933 1.390 . S
C935 C936 1.387 . S
C935 H938 0.950 . S
C936 C935 1.387 . S
C936 C939 1.387 . S
H937 C933 0.950 . S
H938 C935 0.950 . S
C939 C930 1.390 . S
C939 H932 0.950 . S
C939 C936 1.387 . S
C940 C941 1.387 . S
C940 H944 0.950 . S
C940 C949 1.390 1_455 S
C941 C940 1.387 . S
C941 C943 1.387 . S
H942 C949 0.950 . S
C943 C941 1.387 . S
C943 C945 1.390 1_455 S
C943 H947 0.950 . S
H944 C940 0.950 . S
C945 C943 1.390 1_655 S
C945 C946 1.387 . S
C945 H948 0.950 . S
C946 C945 1.387 . S
C946 C949 1.387 . S
H947 C943 0.950 . S
H948 C945 0.950 . S
C949 C940 1.390 1_655 S
C949 H942 0.950 . S
C949 C946 1.387 . S
C950 C951 1.387 . S
C950 H954 0.950 . S
C950 C959 1.390 1_455 S
C951 C950 1.387 . S
C951 C953 1.387 . S
H952 C959 0.950 . S
C953 C951 1.387 . S
C953 C955 1.390 1_455 S
C953 H957 0.950 . S
H954 C950 0.950 . S
C955 C953 1.390 1_655 S
C955 C956 1.387 . S
C955 H958 0.950 . S
C956 C955 1.387 . S
C956 C959 1.387 . S
H957 C953 0.950 . S
H958 C955 0.950 . S
C959 C950 1.390 1_655 S
C959 H952 0.950 . S
C959 C956 1.387 . S
C960 C961 1.387 . S
C960 H964 0.950 . S
C960 C969 1.390 . S
C961 C960 1.387 . S
C961 C963 1.387 . S
H962 C969 0.950 . S
C963 C961 1.387 . S
C963 C965 1.390 . S
C963 H967 0.950 . S
H964 C960 0.950 . S
C965 C963 1.390 . S
C965 C966 1.387 . S
C965 H968 0.950 . S
C966 C965 1.387 . S
C966 C969 1.387 . S
H967 C963 0.950 . S
H968 C965 0.950 . S
C969 C960 1.390 . S
C969 H962 0.950 . S
C969 C966 1.387 . S
C970 C971 1.387 . S
C970 H974 0.950 . S
C970 C979 1.390 . S
C971 C970 1.387 . S
C971 C973 1.387 . S
H972 C979 0.950 . S
C973 C971 1.387 . S
C973 C975 1.390 . S
C973 H977 0.950 . S
H974 C970 0.950 . S
C975 C973 1.390 . S
C975 C976 1.387 . S
C975 H978 0.950 . S
C976 C975 1.387 . S
C976 C979 1.387 . S
H977 C973 0.950 . S
H978 C975 0.950 . S
C979 C970 1.390 . S
C979 H972 0.950 . S
C979 C976 1.387 . S
C980 C981 1.387 . S
C980 H984 0.950 . S
C980 C989 1.390 . S
C981 C980 1.387 . S
C981 C983 1.387 . S
H982 C989 0.950 . S
C983 C981 1.387 . S
C983 C985 1.390 . S
C983 H987 0.950 . S
H984 C980 0.950 . S
C985 C983 1.390 . S
C985 C986 1.387 . S
C985 H988 0.950 . S
C986 C985 1.387 . S
C986 C989 1.387 . S
H987 C983 0.950 . S
H988 C985 0.950 . S
C989 C980 1.390 . S
C989 H982 0.950 . S
C989 C986 1.387 . S
C990 C991 1.387 . S
C990 H994 0.950 . S
C990 C999 1.390 . S
C991 C990 1.387 . S
C991 C993 1.387 . S
H992 C999 0.950 . S
C993 C991 1.387 . S
C993 C995 1.390 . S
C993 H997 0.950 . S
H994 C990 0.950 . S
C995 C993 1.390 . S
C995 C996 1.387 . S
C995 H998 0.950 . S
C996 C995 1.387 . S
C996 C999 1.387 . S
H997 C993 0.950 . S
H998 C995 0.950 . S
C999 C990 1.390 . S
C999 H992 0.950 . S
C999 C996 1.387 . S
C1000 C1001 1.387 . S
C1000 H1004 0.950 . S
C1000 C1009 1.390 . S
C1001 C1000 1.387 . S
C1001 C1003 1.387 . S
H1002 C1009 0.950 . S
C1003 C1001 1.387 . S
C1003 C1005 1.390 . S
C1003 H1007 0.950 . S
H1004 C1000 0.950 . S
C1005 C1003 1.390 . S
C1005 C1006 1.387 . S
C1005 H1008 0.950 . S
C1006 C1005 1.387 . S
C1006 C1009 1.387 . S
H1007 C1003 0.950 . S
H1008 C1005 0.950 . S
C1009 C1000 1.390 . S
C1009 H1002 0.950 . S
C1009 C1006 1.387 . S
C1010 C1011 1.387 . S
C1010 H1014 0.950 . S
C1010 C1019 1.390 . S
C1011 C1010 1.387 . S
C1011 C1013 1.387 . S
H1012 C1019 0.950 . S
C1013 C1011 1.387 . S
C1013 C1015 1.390 . S
C1013 H1017 0.950 . S
H1014 C1010 0.950 . S
C1015 C1013 1.390 . S
C1015 C1016 1.387 . S
C1015 H1018 0.950 . S
C1016 C1015 1.387 . S
C1016 C1019 1.387 . S
H1017 C1013 0.950 . S
H1018 C1015 0.950 . S
C1019 C1010 1.390 . S
C1019 H1012 0.950 . S
C1019 C1016 1.387 . S
C1020 C1021 1.387 . S
C1020 H1024 0.950 . S
C1020 C1029 1.390 . S
C1021 C1020 1.387 . S
C1021 C1023 1.387 . S
H1022 C1029 0.950 . S
C1023 C1021 1.387 . S
C1023 C1025 1.390 . S
C1023 H1027 0.950 . S
H1024 C1020 0.950 . S
C1025 C1023 1.390 . S
C1025 C1026 1.387 . S
C1025 H1028 0.950 . S
C1026 C1025 1.387 . S
C1026 C1029 1.387 . S
H1027 C1023 0.950 . S
H1028 C1025 0.950 . S
C1029 C1020 1.390 . S
C1029 H1022 0.950 . S
C1029 C1026 1.387 . S
C1030 C1031 1.387 . S
C1030 H1034 0.950 . S
C1030 C1039 1.390 . S
C1031 C1030 1.387 . S
C1031 C1033 1.387 . S
H1032 C1039 0.950 . S
C1033 C1031 1.387 . S
C1033 C1035 1.390 . S
C1033 H1037 0.950 . S
H1034 C1030 0.950 . S
C1035 C1033 1.390 . S
C1035 C1036 1.387 . S
C1035 H1038 0.950 . S
C1036 C1035 1.387 . S
C1036 C1039 1.387 . S
H1037 C1033 0.950 . S
H1038 C1035 0.950 . S
C1039 C1030 1.390 . S
C1039 H1032 0.950 . S
C1039 C1036 1.387 . S
C1040 C1041 1.387 . S
C1040 H1044 0.950 . S
C1040 C1049 1.390 . S
C1041 C1040 1.387 . S
C1041 C1043 1.387 . S
H1042 C1049 0.950 . S
C1043 C1041 1.387 . S
C1043 C1045 1.390 . S
C1043 H1047 0.950 . S
H1044 C1040 0.950 . S
C1045 C1043 1.390 . S
C1045 C1046 1.387 . S
C1045 H1048 0.950 . S
C1046 C1045 1.387 . S
C1046 C1049 1.387 . S
H1047 C1043 0.950 . S
H1048 C1045 0.950 . S
C1049 C1040 1.390 . S
C1049 H1042 0.950 . S
C1049 C1046 1.387 . S
C1050 C1051 1.387 . S
C1050 H1054 0.950 . S
C1050 C1059 1.390 . S
C1051 C1050 1.387 . S
C1051 C1053 1.387 . S
H1052 C1059 0.950 1_545 S
C1053 C1051 1.387 . S
C1053 C1055 1.390 . S
C1053 H1057 0.950 . S
H1054 C1050 0.950 . S
C1055 C1053 1.390 . S
C1055 C1056 1.387 . S
C1055 H1058 0.950 . S
C1056 C1055 1.387 . S
C1056 C1059 1.387 . S
H1057 C1053 0.950 . S
H1058 C1055 0.950 . S
C1059 C1050 1.390 . S
C1059 H1052 0.950 1_565 S
C1059 C1056 1.387 . S
C1060 C1061 1.387 . S
C1060 H1064 0.950 . S
C1060 C1069 1.390 . S
C1061 C1060 1.387 . S
C1061 C1063 1.387 . S
H1062 C1069 0.950 . S
C1063 C1061 1.387 . S
C1063 C1065 1.390 . S
C1063 H1067 0.950 . S
H1064 C1060 0.950 . S
C1065 C1063 1.390 . S
C1065 C1066 1.387 . S
C1065 H1068 0.950 . S
C1066 C1065 1.387 . S
C1066 C1069 1.387 . S
H1067 C1063 0.950 . S
H1068 C1065 0.950 . S
C1069 C1060 1.390 . S
C1069 H1062 0.950 . S
C1069 C1066 1.387 . S
C1070 C1071 1.387 . S
C1070 H1074 0.950 . S
C1070 C1079 1.390 . S
C1071 C1070 1.387 . S
C1071 C1073 1.387 . S
H1072 C1079 0.950 . S
C1073 C1071 1.387 . S
C1073 C1075 1.390 . S
C1073 H1077 0.950 1_545 S
H1074 C1070 0.950 . S
C1075 C1073 1.390 . S
C1075 C1076 1.387 . S
C1075 H1078 0.950 1_545 S
C1076 C1075 1.387 . S
C1076 C1079 1.387 . S
H1077 C1073 0.950 1_565 S
H1078 C1075 0.950 1_565 S
C1079 C1070 1.390 . S
C1079 H1072 0.950 . S
C1079 C1076 1.387 . S
C1080 C1081 1.387 . S
C1080 H1084 0.950 . S
C1080 C1089 1.390 . S
C1081 C1080 1.387 . S
C1081 C1083 1.387 . S
H1082 C1089 0.950 . S
C1083 C1081 1.387 . S
C1083 C1085 1.390 . S
C1083 H1087 0.950 . S
H1084 C1080 0.950 . S
C1085 C1083 1.390 . S
C1085 C1086 1.387 . S
C1085 H1088 0.950 . S
C1086 C1085 1.387 . S
C1086 C1089 1.387 . S
H1087 C1083 0.950 . S
H1088 C1085 0.950 . S
C1089 C1080 1.390 . S
C1089 H1082 0.950 . S
C1089 C1086 1.387 . S
C1090 C1091 1.387 . S
C1090 H1094 0.950 . S
C1090 C1099 1.390 . S
C1091 C1090 1.387 . S
C1091 C1093 1.387 . S
H1092 C1099 0.950 . S
C1093 C1091 1.387 . S
C1093 C1095 1.390 . S
C1093 H1097 0.950 1_545 S
H1094 C1090 0.950 . S
C1095 C1093 1.390 . S
C1095 C1096 1.387 . S
C1095 H1098 0.950 1_545 S
C1096 C1095 1.387 . S
C1096 C1099 1.387 . S
H1097 C1093 0.950 1_565 S
H1098 C1095 0.950 1_565 S
C1099 C1090 1.390 . S
C1099 H1092 0.950 . S
C1099 C1096 1.387 . S
C1100 C1101 1.387 . S
C1100 H1104 0.950 . S
C1100 C1109 1.390 . S
C1101 C1100 1.387 . S
C1101 C1103 1.387 . S
H1102 C1109 0.950 . S
C1103 C1101 1.387 . S
C1103 C1105 1.390 . S
C1103 H1107 0.950 . S
H1104 C1100 0.950 . S
C1105 C1103 1.390 . S
C1105 C1106 1.387 . S
C1105 H1108 0.950 . S
C1106 C1105 1.387 . S
C1106 C1109 1.387 . S
H1107 C1103 0.950 . S
H1108 C1105 0.950 . S
C1109 C1100 1.390 . S
C1109 H1102 0.950 . S
C1109 C1106 1.387 . S
C1110 C1111 1.387 . S
C1110 H1114 0.950 . S
C1110 C1119 1.390 . S
C1111 C1110 1.387 . S
C1111 C1113 1.387 . S
H1112 C1119 0.950 . S
C1113 C1111 1.387 . S
C1113 C1115 1.390 . S
C1113 H1117 0.950 . S
H1114 C1110 0.950 . S
C1115 C1113 1.390 . S
C1115 C1116 1.387 . S
C1115 H1118 0.950 1_565 S
C1116 C1115 1.387 . S
C1116 C1119 1.387 . S
H1117 C1113 0.950 . S
H1118 C1115 0.950 1_545 S
C1119 C1110 1.390 . S
C1119 H1112 0.950 . S
C1119 C1116 1.387 . S
C641 C6 1.381 . S
C646 C495 1.381 . S
C651 C215 1.382 . S
C656 C46 1.382 . S
C661 C86 1.379 . S
C666 C575 1.379 . S
C671 C126 1.379 1_554 S
C676 C295 1.379 1_556 S
C681 C175 1.379 . S
C686 C326 1.379 . S
C691 C406 1.382 . S
C696 C255 1.382 . S
C701 C535 1.380 1_556 S
C706 C366 1.380 1_554 S
C711 C446 1.379 . S
C716 C615 1.379 . S
C721 C378 2.563 . S
C726 C15 2.475 1_556 S
C731 C55 2.478 . S
C736 C418 2.565 . S
C741 C95 2.475 . S
C746 C458 2.563 . S
C751 C338 2.563 . S
C756 C135 2.475 . S
C761 C529 2.563 . S
C766 C166 2.475 1_554 S
C771 C569 2.565 . S
C776 C206 2.478 . S
C781 C246 2.480 . S
C786 C609 2.565 . S
C791 C489 2.565 . S
C796 C286 2.478 . S
C801 C335 2.478 . S
C806 C58 2.565 . S
C811 C375 2.475 . S
C816 C98 2.563 . S
C821 C415 2.478 1_556 S
C826 C138 2.565 . S
C831 C18 2.565 . S
C836 C455 2.478 . S
C841 C209 2.563 . S
C846 C486 2.475 . S
C851 C526 2.478 . S
C856 C249 2.565 . S
C861 C289 2.565 . S
C866 C566 2.478 1_554 S
C871 C606 2.475 . S
C876 C169 2.564 . S
C881 C10 3.053 . S
C886 C410 3.053 . S
C891 C50 3.054 . S
C896 C450 3.054 . S
C901 C330 3.053 . S
C906 C90 3.053 . S
C911 C130 3.054 . S
C916 C370 3.054 . S
C921 C179 3.054 . S
C926 C579 3.054 . S
C931 C219 3.053 . S
C936 C619 3.053 . S
C941 C499 3.053 . S
C946 C259 3.053 . S
C951 C299 3.053 . S
C956 C539 3.053 . S
C961 C9 1.957 . S
C966 C290 2.259 . S
C971 C490 2.257 . S
C976 C49 1.955 . S
C981 C89 1.957 . S
C986 C210 2.259 . S
C991 C129 1.959 1_455 S
C996 C570 2.260 . S
C1001 C178 1.957 . S
C1006 C139 2.259 . S
C1011 C339 2.257 . S
C1016 C218 1.954 . S
C1021 C258 1.957 . S
C1026 C59 2.259 . S
C1031 C419 2.257 . S
C1036 C298 1.955 1_655 S
C1041 C329 1.955 . S
C1046 C610 2.258 . S
C1051 C170 2.257 . S
C1056 C369 1.955 1_655 S
C1061 C530 2.259 . S
C1066 C409 1.957 . S
C1071 C449 1.959 . S
C1076 C250 2.260 . S
C1081 C498 1.957 . S
C1086 C459 2.259 . S
C1091 C538 1.955 1_455 S
C1096 C19 2.257 . S
C1101 C379 2.259 . S
C1106 C578 1.957 . S
C1111 C99 2.257 . S
C1116 C618 1.955 . S
