# Generated by pormake.
# Topology sml, (6)-cn, num edge types: 1
# Building blocks:
#     Node 0, Type 0, BuildingBlock: INOVEN_clean_sbu_0, # of connection points: 6
#     Node 1, Type 0, BuildingBlock: INOVEN_clean_sbu_0, # of connection points: 6
#     Node 2, Type 0, BuildingBlock: INOVEN_clean_sbu_0, # of connection points: 6
#     Node 3, Type 0, BuildingBlock: INOVEN_clean_sbu_0, # of connection points: 6
#     Node 4, Type 0, BuildingBlock: INOVEN_clean_sbu_0, # of connection points: 6
#     Node 5, Type 0, BuildingBlock: INOVEN_clean_sbu_0, # of connection points: 6
#     Edge 6, Type (0, 0), BuildingBlock: AJUNOK_clean_linker_0, # of connection points: 2
#     Edge 7, Type (0, 0), BuildingBlock: AJUNOK_clean_linker_0, # of connection points: 2
#     Edge 8, Type (0, 0), BuildingBlock: AJUNOK_clean_linker_0, # of connection points: 2
#     Edge 9, Type (0, 0), BuildingBlock: AJUNOK_clean_linker_0, # of connection points: 2
#     Edge 10, Type (0, 0), BuildingBlock: AJUNOK_clean_linker_0, # of connection points: 2
#     Edge 11, Type (0, 0), BuildingBlock: AJUNOK_clean_linker_0, # of connection points: 2
#     Edge 12, Type (0, 0), BuildingBlock: AJUNOK_clean_linker_0, # of connection points: 2
#     Edge 13, Type (0, 0), BuildingBlock: AJUNOK_clean_linker_0, # of connection points: 2
#     Edge 14, Type (0, 0), BuildingBlock: AJUNOK_clean_linker_0, # of connection points: 2
#     Edge 15, Type (0, 0), BuildingBlock: AJUNOK_clean_linker_0, # of connection points: 2
#     Edge 16, Type (0, 0), BuildingBlock: AJUNOK_clean_linker_0, # of connection points: 2
#     Edge 17, Type (0, 0), BuildingBlock: AJUNOK_clean_linker_0, # of connection points: 2
#     Edge 18, Type (0, 0), BuildingBlock: AJUNOK_clean_linker_0, # of connection points: 2
#     Edge 19, Type (0, 0), BuildingBlock: AJUNOK_clean_linker_0, # of connection points: 2
#     Edge 20, Type (0, 0), BuildingBlock: AJUNOK_clean_linker_0, # of connection points: 2
#     Edge 21, Type (0, 0), BuildingBlock: AJUNOK_clean_linker_0, # of connection points: 2
#     Edge 22, Type (0, 0), BuildingBlock: AJUNOK_clean_linker_0, # of connection points: 2
#     Edge 23, Type (0, 0), BuildingBlock: AJUNOK_clean_linker_0, # of connection points: 2
# Relax obj value: 0.271
# Max RMSD: 0.280
# Mean RMSD: 0.280
data_MOF--net-sml--node1-INOVEN_clean_sbu_0--edge1-AJUNOK_clean_linker_0
_symmetry_space_group_name_H-M    P1
_symmetry_Int_Tables_number       1
_symmetry_cell_setting            triclinic
loop_
_symmetry_equiv_pos_as_xyz
'x, y, z'
_cell_length_a     22.563
_cell_length_b     22.292177
_cell_length_c     20.239658
_cell_angle_alpha  90.028243
_cell_angle_beta   90.082297
_cell_angle_gamma 119.84922
loop_
_atom_site_label
_atom_site_type_symbol
_atom_site_fract_x
_atom_site_fract_y
_atom_site_fract_z
_atom_type_partial_charge
Gd0 Gd 0.15514 0.43926 0.98971 0.0
Gd1 Gd 0.2279 0.39814 0.09372 0.0
C2 C 0.21129 0.33191 0.95236 0.0
C3 C 0.12681 0.47749 0.87889 0.0
C4 C 0.13986 0.47145 0.80775 0.0
C5 C 0.09784 0.41041 0.77215 0.0
C6 C 0.19487 0.5266 0.77475 0.0
C7 C 0.16774 0.45827 0.67354 0.0
C8 C 0.20869 0.52007 0.70842 0.0
C9 C 0.11185 0.40382 0.70604 0.0
C10 C 0.06899 0.34887 0.07864 0.0
C11 C 0.17348 0.50717 0.12902 0.0
C12 C 0.27103 0.37655 0.20507 0.0
C13 C 0.25474 0.38419 0.27428 0.0
C14 C 0.29779 0.38758 0.32605 0.0
C15 C 0.19904 0.39372 0.28862 0.0
C16 C 0.23075 0.41207 0.40485 0.0
C17 C 0.1874 0.40792 0.35307 0.0
C18 C 0.28551 0.40075 0.39098 0.0
C19 C 0.30858 0.49265 1.00443 0.0
O20 O 0.18904 0.37423 0.93474 0.0
O21 O 0.22255 0.32369 1.01517 0.0
O22 O 0.0842 0.42028 0.90956 0.0
O23 O 0.17982 0.51842 0.91537 0.0
O24 O 0.06009 0.39492 0.04798 0.0
O25 O 0.12091 0.34716 0.0563 0.0
O26 O 0.1899 0.46079 0.14871 0.0
O27 O 0.1644 0.51592 0.06608 0.0
O28 O 0.30344 0.43446 0.17217 0.0
O29 O 0.22233 0.32705 0.17014 0.0
O30 O 0.32084 0.44559 1.02728 0.0
O31 O 0.25729 0.48912 1.03239 0.0
H32 H 0.05448 0.36715 0.79549 0.0
H33 H 0.22801 0.57449 0.80049 0.0
H34 H 0.25277 0.56257 0.68512 0.0
H35 H 0.07908 0.35581 0.68032 0.0
H36 H 0.34135 0.38094 0.31615 0.0
H37 H 0.16445 0.39045 0.25005 0.0
H38 H 0.14413 0.41517 0.36257 0.0
H39 H 0.31952 0.40343 0.43016 0.0
Gd40 Gd 0.7133 0.16868 0.32817 0.0
Gd41 Gd 0.83189 0.23161 0.43198 0.0
C42 C 0.87205 0.2151 0.28728 0.0
C43 C 0.64905 0.1487 0.21738 0.0
C44 C 0.67111 0.16503 0.1474 0.0
C45 C 0.64411 0.11209 0.09989 0.0
C46 C 0.7211 0.23194 0.12772 0.0
C47 C 0.71731 0.19204 1.01451 0.0
C48 C 0.74409 0.24522 0.06213 0.0
C49 C 0.66702 0.12537 1.0344 0.0
C50 C 0.71559 0.0774 0.41288 0.0
C51 C 0.67489 0.19755 0.46875 0.0
C52 C 0.89587 0.25278 0.54329 0.0
C53 C 0.87381 0.24503 0.61365 0.0
C54 C 0.89627 0.30364 0.65437 0.0
C55 C 0.82815 0.17972 0.64023 0.0
C56 C 0.82403 0.23214 0.74465 0.0
C57 C 0.80324 0.1734 0.70466 0.0
C58 C 0.87191 0.29725 0.71928 0.0
C59 C 0.82445 0.3216 0.3491 0.0
O60 O 0.80967 0.20109 0.27143 0.0
O61 O 0.89279 0.22104 0.34945 0.0
O62 O 0.65925 0.10155 0.24534 0.0
O63 O 0.66312 0.20098 0.25672 0.0
O64 O 0.65982 0.07075 0.38719 0.0
O65 O 0.76781 0.12854 0.38823 0.0
O66 O 0.73686 0.21216 0.48787 0.0
O67 O 0.65371 0.18422 0.40685 0.0
O68 O 0.89383 0.3021 0.50998 0.0
O69 O 0.8743 0.19589 0.50849 0.0
O70 O 0.88237 0.32997 0.37107 0.0
O71 O 0.7751 0.26955 0.37522 0.0
H72 H 0.60598 0.05997 0.11372 0.0
H73 H 0.74324 0.27389 0.16316 0.0
H74 H 0.7827 0.29723 0.04862 0.0
H75 H 0.64637 0.08291 0.99958 0.0
H76 H 0.93196 0.35462 0.63565 0.0
H77 H 0.81113 0.13332 0.61113 0.0
H78 H 0.76774 0.12235 0.72335 0.0
H79 H 0.88926 0.34338 0.74913 0.0
Gd80 Gd 0.5371 0.71958 0.65359 0.0
Gd81 Gd 0.57331 0.83076 0.76004 0.0
C82 C 0.64748 0.88399 0.62461 0.0
C83 C 0.50997 0.65184 0.54321 0.0
C84 C 0.51115 0.67142 0.47347 0.0
C85 C 0.48921 0.62151 0.42318 0.0
C86 C 0.53599 0.74084 0.45653 0.0
C87 C 0.51841 0.71116 0.34003 0.0
C88 C 0.53892 0.76041 0.39085 0.0
C89 C 0.49311 0.64124 0.35678 0.0
C90 C 0.616 0.7157 0.75116 0.0
C91 C 0.45456 0.67059 0.78651 0.0
C92 C 0.60119 0.89334 0.87277 0.0
C93 C 0.58906 0.86675 0.9408 0.0
C94 C 0.59396 0.90959 0.99362 0.0
C95 C 0.5696 0.79735 0.95311 0.0
C96 C 0.55987 0.81377 0.07017 0.0
C97 C 0.55481 0.77098 1.01715 0.0
C98 C 0.58 0.88347 0.05806 0.0
C99 C 0.48639 0.82649 0.66648 0.0
O100 O 0.60324 0.82175 0.60223 0.0
O101 O 0.65223 0.89993 0.68786 0.0
O102 O 0.56965 0.67956 0.57244 0.0
O103 O 0.463 0.65295 0.58026 0.0
O104 O 0.57059 0.66235 0.71892 0.0
O105 O 0.62245 0.77105 0.72663 0.0
O106 O 0.50021 0.73142 0.81 0.0
O107 O 0.4527 0.65351 0.72374 0.0
O108 O 0.54603 0.87809 0.83894 0.0
O109 O 0.64585 0.88493 0.83869 0.0
O110 O 0.52903 0.88298 0.69706 0.0
O111 O 0.4874 0.77524 0.69122 0.0
H112 H 0.47021 0.56761 0.43514 0.0
H113 H 0.55367 0.78051 0.49383 0.0
H114 H 0.55803 0.81453 0.3798 0.0
H115 H 0.47807 0.60219 0.31868 0.0
H116 H 0.60838 0.96303 0.98496 0.0
H117 H 0.56608 0.76338 0.91344 0.0
H118 H 0.54058 0.71744 1.0254 0.0
H119 H 0.58437 0.91745 0.09837 0.0
Gd120 Gd 0.81551 0.54836 0.99899 0.0
Gd121 Gd 0.74327 0.59451 0.10274 0.0
C122 C 0.7533 0.65021 0.95743 0.0
C123 C 0.84425 0.50957 0.88887 0.0
C124 C 0.83755 0.52213 0.8177 0.0
C125 C 0.78775 0.46899 0.77814 0.0
C126 C 0.87957 0.58731 0.78879 0.0
C127 C 0.81829 0.54751 0.68414 0.0
C128 C 0.87011 0.59974 0.72288 0.0
C129 C 0.77833 0.48146 0.71211 0.0
C130 C 0.89849 0.64813 0.0827 0.0
C131 C 0.792 0.48013 0.13971 0.0
C132 C 0.71952 0.63523 0.21389 0.0
C133 C 0.73153 0.62358 0.28392 0.0
C134 C 0.78624 0.67617 0.31969 0.0
C135 C 0.69021 0.55952 0.31516 0.0
C136 C 0.75912 0.60052 0.41544 0.0
C137 C 0.70403 0.54813 0.38003 0.0
C138 C 0.80002 0.66471 0.38454 0.0
C139 C 0.66047 0.49342 1.02038 0.0
O140 O 0.77751 0.60891 0.94174 0.0
O141 O 0.74294 0.66143 1.01959 0.0
O142 O 0.88929 0.56235 0.9236 0.0
O143 O 0.78727 0.47149 0.92129 0.0
O144 O 0.91264 0.60312 0.0576 0.0
O145 O 0.8446 0.64237 0.05779 0.0
O146 O 0.7719 0.52419 0.15845 0.0
O147 O 0.80707 0.47442 0.07776 0.0
O148 O 0.67274 0.58169 0.1812 0.0
O149 O 0.77403 0.67376 0.17824 0.0
O150 O 0.64599 0.53918 0.04344 0.0
O151 O 0.7147 0.50069 0.04585 0.0
H152 H 0.75502 0.41806 0.7987 0.0
H153 H 0.91928 0.62928 0.81723 0.0
H154 H 0.90319 0.65056 0.70235 0.0
H155 H 0.73801 0.44004 0.68366 0.0
H156 H 0.8191 0.72601 0.29716 0.0
H157 H 0.6474 0.5178 0.28943 0.0
H158 H 0.67127 0.49839 0.40279 0.0
H159 H 0.84345 0.7058 0.41019 0.0
Gd160 Gd 0.23917 0.80794 0.32843 0.0
Gd161 Gd 0.12891 0.74402 0.43311 0.0
C162 C 0.08212 0.77109 0.29627 0.0
C163 C 0.30279 0.83082 0.21723 0.0
C164 C 0.27979 0.81494 0.14773 0.0
C165 C 0.30477 0.86827 0.1008 0.0
C166 C 0.23041 0.74777 0.12825 0.0
C167 C 0.23124 0.78754 1.01622 0.0
C168 C 0.20624 0.73419 0.06321 0.0
C169 C 0.28065 0.85474 1.0357 0.0
C170 C 0.24802 0.90204 0.41629 0.0
C171 C 0.28633 0.79013 0.46853 0.0
C172 C 0.06133 0.70115 0.54258 0.0
C173 C 0.08179 0.71411 0.61274 0.0
C174 C 0.04766 0.66209 0.66008 0.0
C175 C 0.13873 0.77666 0.63214 0.0
C176 C 0.1285 0.73499 0.74506 0.0
C177 C 0.16059 0.78771 0.69777 0.0
C178 C 0.07096 0.67227 0.72567 0.0
C179 C 0.13365 0.65625 0.34345 0.0
O180 O 0.14137 0.78021 0.27523 0.0
O181 O 0.06576 0.76277 0.35956 0.0
O182 O 0.29134 0.87652 0.2463 0.0
O183 O 0.29007 0.77833 0.25551 0.0
O184 O 0.29911 0.90463 0.38444 0.0
O185 O 0.19135 0.85199 0.3959 0.0
O186 O 0.22785 0.78339 0.48916 0.0
O187 O 0.2999 0.78989 0.40514 0.0
O188 O 0.08466 0.66657 0.51012 0.0
O189 O 0.06581 0.75334 0.50869 0.0
O190 O 0.07699 0.65119 0.36395 0.0
O191 O 0.18323 0.70555 0.37201 0.0
H192 H 0.3423 0.92064 0.11473 0.0
H193 H 0.21018 0.70587 0.16341 0.0
H194 H 0.16838 0.68189 0.0495 0.0
H195 H 0.29986 0.89705 1.00076 0.0
H196 H 0.00399 0.61303 0.646 0.0
H197 H 0.16708 0.81679 0.59637 0.0
H198 H 0.20302 0.83766 0.71134 0.0
H199 H 0.04486 0.63056 0.76077 0.0
Gd200 Gd 0.4427 0.26427 0.66688 0.0
Gd201 Gd 0.39523 0.14836 0.76991 0.0
C202 C 0.33109 0.10278 0.62875 0.0
C203 C 0.48172 0.33086 0.55633 0.0
C204 C 0.47817 0.30973 0.48642 0.0
C205 C 0.46343 0.3444 0.43688 0.0
C206 C 0.48598 0.25303 0.46882 0.0
C207 C 0.46353 0.26558 0.35315 0.0
C208 C 0.47874 0.23121 0.40293 0.0
C209 C 0.45608 0.32254 0.37094 0.0
C210 C 0.35404 0.26437 0.75518 0.0
C211 C 0.51136 0.30848 0.80611 0.0
C212 C 0.36503 0.08327 0.88147 0.0
C213 C 0.37931 0.10885 0.95044 0.0
C214 C 0.39119 0.07163 0.99954 0.0
C215 C 0.38517 0.17274 0.96699 0.0
C216 C 0.41295 0.16142 0.08105 0.0
C217 C 0.40031 0.19798 1.03159 0.0
C218 C 0.40799 0.09767 0.06419 0.0
C219 C 0.49061 0.15785 0.68371 0.0
O220 O 0.37936 0.16525 0.61111 0.0
O221 O 0.31924 0.0837 0.69145 0.0
O222 O 0.42313 0.31403 0.58418 0.0
O223 O 0.5226 0.32094 0.59517 0.0
O224 O 0.40216 0.31915 0.72672 0.0
O225 O 0.35018 0.20987 0.73111 0.0
O226 O 0.46324 0.24683 0.82592 0.0
O227 O 0.51969 0.32764 0.74358 0.0
O228 O 0.41869 0.09546 0.84678 0.0
O229 O 0.32188 0.09486 0.84808 0.0
O230 O 0.44185 0.0992 0.70574 0.0
O231 O 0.48787 0.2071 0.71084 0.0
H232 H 0.45645 0.38776 0.44936 0.0
H233 H 0.49687 0.22501 0.5061 0.0
H234 H 0.48497 0.1873 0.39091 0.0
H235 H 0.4429 0.34922 0.33415 0.0
H236 H 0.38842 0.02292 0.98769 0.0
H237 H 0.37863 0.20377 0.92998 0.0
H238 H 0.40146 0.24606 0.04264 0.0
H239 H 0.41783 0.06825 0.10078 0.0
C240 C 0.28039 0.23065 0.85768 0.0
C241 C 0.30356 0.2687 0.79872 0.0
C242 C 0.24835 0.24925 0.90718 0.0
C243 C 0.23576 0.3046 0.89772 0.0
H244 H 0.29024 0.18883 0.86709 0.0
H245 H 0.23504 0.22139 0.95353 0.0
S246 S 0.27751 0.41289 0.74595 0.0
N247 N 0.30573 0.35899 0.73059 0.0
N248 N 0.24299 0.39197 0.81999 0.0
C249 C 0.25331 0.33853 0.83578 0.0
C250 C 0.28757 0.32095 0.7871 0.0
C251 C 0.95355 0.29788 0.12544 0.0
C252 C 0.01745 0.30151 0.12683 0.0
C253 C 0.90653 0.26666 0.17608 0.0
C254 C 0.92131 0.23851 0.23176 0.0
H255 H 0.94017 0.32173 0.08584 0.0
H256 H 0.85946 0.26822 0.17267 0.0
S257 S 0.07462 0.22045 0.25295 0.0
N258 N 0.08769 0.26254 0.18237 0.0
N259 N 0.00033 0.20723 0.28099 0.0
C260 C 0.98286 0.2372 0.23209 0.0
C261 C 0.03049 0.26758 0.17867 0.0
C262 C 0.69783 0.04925 0.53251 0.0
C263 C 0.71509 0.03593 0.46967 0.0
C264 C 0.68248 0.00252 0.58473 0.0
C265 C 0.6816 0.93963 0.57519 0.0
H266 H 0.69299 0.09445 0.54094 0.0
H267 H 0.66618 0.01345 0.63134 0.0
S268 S 0.72573 0.88165 0.4204 0.0
N269 N 0.73371 0.95742 0.4014 0.0
N270 N 0.703 0.8682 0.49896 0.0
C271 C 0.70133 0.92692 0.51316 0.0
C272 C 0.71828 0.97531 0.46041 0.0
C273 C 0.68434 0.7483 0.85734 0.0
C274 C 0.6626 0.70937 0.79863 0.0
C275 C 0.71554 0.73068 0.90851 0.0
C276 C 0.72773 0.6748 0.90156 0.0
H277 H 0.67402 0.7901 0.86533 0.0
H278 H 0.72868 0.75989 0.95415 0.0
S279 S 0.68372 0.55969 0.7544 0.0
N280 N 0.65825 0.615 0.73507 0.0
N281 N 0.71785 0.58291 0.82855 0.0
C282 C 0.70953 0.63827 0.84099 0.0
C283 C 0.67685 0.65536 0.7902 0.0
C284 C 0.96131 0.70619 0.25616 0.0
C285 C 0.0299 0.75657 0.24495 0.0
C286 C 0.91604 0.67509 0.203 0.0
C287 C 0.93781 0.6941 0.13743 0.0
H288 H 0.94412 0.6861 0.30542 0.0
H289 H 0.8656 0.6324 0.21328 0.0
S290 S 0.10795 0.83174 0.0826 0.0
N291 N 0.11421 0.83095 0.16385 0.0
N292 N 0.029 0.77147 0.06454 0.0
C293 C 0.00404 0.74851 0.1261 0.0
C294 C 0.05005 0.78034 0.17984 0.0
C295 C 0.34692 0.05933 0.52226 0.0
C296 C 0.30274 0.05129 0.57455 0.0
C297 C 0.32652 0.01215 0.47061 0.0
C298 C 0.26018 0.95475 0.46742 0.0
H299 H 0.39918 0.10169 0.52189 0.0
H300 H 0.36432 0.02043 0.43343 0.0
S301 S 0.11921 0.919 0.58338 0.0
N302 N 0.18648 0.98686 0.6159 0.0
N303 N 0.14631 0.89923 0.51527 0.0
C304 C 0.21318 0.94873 0.5163 0.0
C305 C 0.23492 -0.00353 0.57087 0.0
C306 C 0.18922 0.38938 0.5883 0.0
C307 C 0.18519 0.44871 0.60471 0.0
C308 C 0.20576 0.37887 0.52408 0.0
C309 C 0.21753 0.42655 0.47336 0.0
H310 H 0.17989 0.35081 0.62556 0.0
H311 H 0.20793 0.33232 0.51367 0.0
S312 S 0.21334 0.59019 0.48982 0.0
N313 N 0.19486 0.55603 0.56458 0.0
N314 N 0.22498 0.53571 0.44374 0.0
C315 C 0.21379 0.48611 0.48891 0.0
C316 C 0.19795 0.49737 0.55456 0.0
C317 C 0.81395 0.24374 0.93217 0.0
C318 C 0.74316 0.20534 0.94488 0.0
C319 C 0.8397 0.25352 0.86738 0.0
C320 C 0.79575 0.22501 0.81266 0.0
H321 H 0.84997 0.26489 0.97275 0.0
H322 H 0.89454 0.28201 0.8602 0.0
S323 S 0.6062 0.12829 0.81771 0.0
N324 N 0.62946 0.14437 0.89605 0.0
N325 N 0.67791 0.16226 0.7749 0.0
C326 C 0.72491 0.18869 0.82437 0.0
C327 C 0.69865 0.17895 0.89019 0.0
C328 C 0.58849 0.79375 0.2511 0.0
C329 C 0.52724 0.73455 0.27015 0.0
C330 C 0.5981 0.81939 0.18661 0.0
C331 C 0.5472 0.7864 0.13837 0.0
H332 H 0.6297 0.82045 0.28631 0.0
H333 H 0.64618 0.86484 0.17412 0.0
S334 S 0.3768 0.63131 0.16226 0.0
N335 N 0.41396 0.64488 0.23544 0.0
N336 N 0.43302 0.69246 0.11343 0.0
C337 C 0.48585 0.72704 0.15621 0.0
C338 C 0.47567 0.70118 0.22224 0.0
C339 C 0.79343 0.51617 0.56357 0.0
C340 C 0.80412 0.56244 0.61571 0.0
C341 C 0.77876 0.52868 0.49915 0.0
C342 C 0.77415 0.58795 0.48424 0.0
H343 H 0.79705 0.47018 0.57247 0.0
H344 H 0.77171 0.49202 0.46051 0.0
S345 S 0.79083 0.72167 0.60389 0.0
N346 N 0.80477 0.66785 0.64839 0.0
N347 N 0.77691 0.69086 0.52778 0.0
C348 C 0.78355 0.63397 0.53602 0.0
C349 C 0.79861 0.62138 0.60152 0.0
C350 C 0.11049 0.72431 0.86836 0.0
C351 C 0.15547 0.7458 0.81407 0.0
C352 C 0.13522 0.73713 0.93358 0.0
C353 C 0.20583 0.77313 0.94699 0.0
H354 H 0.05576 0.69853 0.8605 0.0
H355 H 0.09879 0.72001 0.97378 0.0
S356 S 0.34498 0.8336 0.82357 0.0
N357 N 0.27417 0.79792 0.77912 0.0
N358 N 0.32021 0.82675 0.90116 0.0
C359 C 0.25124 0.79394 0.89345 0.0
C360 C 0.22621 0.77905 0.82723 0.0
C361 C 0.41135 0.16944 0.26953 0.0
C362 C 0.45315 0.2404 0.28338 0.0
C363 C 0.39945 0.14435 0.20436 0.0
C364 C 0.42953 0.189 0.15014 0.0
H365 H 0.38621 0.13306 0.30938 0.0
H366 H 0.36508 0.08963 0.19644 0.0
S367 S 0.54862 0.37866 0.15998 0.0
N368 N 0.52676 0.35471 0.23742 0.0
N369 N 0.50783 0.3073 0.11559 0.0
C370 C 0.47331 0.25988 0.16351 0.0
C371 C 0.48417 0.2856 0.2298 0.0
C372 C 0.2039 0.56612 0.23827 0.0
C373 C 0.16309 0.54763 0.181 0.0
C374 C 0.19407 0.60168 0.29021 0.0
C375 C 0.14106 0.61734 0.28823 0.0
H376 H 0.24424 0.55341 0.24292 0.0
H377 H 0.22778 0.61636 0.33261 0.0
S378 S 0.0209 0.58203 0.14941 0.0
N379 N 0.069 0.54973 0.1245 0.0
N380 N 0.0482 0.61358 0.22415 0.0
C381 C 0.09922 0.59859 0.23181 0.0
C382 C 0.11083 0.56447 0.17765 0.0
C383 C 0.64033 0.24171 0.56569 0.0
C384 C 0.6258 0.18837 0.52049 0.0
C385 C 0.59613 0.23124 0.61857 0.0
C386 C 0.53727 0.16651 0.62888 0.0
H387 H 0.68597 0.29175 0.56001 0.0
H388 H 0.60855 0.27388 0.652 0.0
S389 S 0.48144 0.0089 0.52699 0.0
N390 N 0.55109 0.06856 0.49011 0.0
N391 N 0.46972 0.04747 0.59129 0.0
C392 C 0.52376 0.11234 0.58492 0.0
C393 C 0.56757 0.12371 0.53007 0.0
C394 C 0.3722 0.51479 0.898 0.0
C395 C 0.34214 0.5362 0.94663 0.0
C396 C 0.40404 0.55619 0.84252 0.0
C397 C 0.40798 0.62071 0.83521 0.0
H398 H 0.37133 0.46598 0.90297 0.0
H399 H 0.42866 0.5393 0.80708 0.0
S400 S 0.33955 0.7007 0.95039 0.0
N401 N 0.31848 0.62543 0.9842 0.0
N402 N 0.38009 0.70431 0.88133 0.0
C403 C 0.37777 0.64224 0.88344 0.0
C404 C 0.34444 0.5997 0.93893 0.0
C405 C 0.86413 0.39029 0.24459 0.0
C406 C 0.81649 0.36242 0.2963 0.0
C407 C 0.85425 0.42558 0.19204 0.0
C408 C 0.79817 0.4368 0.19138 0.0
H409 H 0.90858 0.3837 0.24412 0.0
H410 H 0.89145 0.44552 0.15259 0.0
S411 S 0.66016 0.37517 0.31654 0.0
N412 N 0.71123 0.34739 0.3435 0.0
N413 N 0.69459 0.41707 0.24718 0.0
C414 C 0.75079 0.40977 0.2434 0.0
C415 C 0.75959 0.37189 0.29538 0.0
C416 C 0.37985 0.7721 0.51079 0.0
C417 C 0.33886 0.80256 0.51817 0.0
C418 C 0.42743 0.78046 0.55949 0.0
C419 C 0.43737 0.82114 0.6157 0.0
H420 H 0.37386 0.74014 0.46813 0.0
H421 H 0.4572 0.75553 0.55298 0.0
S422 S 0.34544 0.91521 0.65639 0.0
N423 N 0.3118 0.8762 0.58555 0.0
N424 N 0.4044 0.8946 0.67507 0.0
C425 C 0.39837 0.85379 0.6227 0.0
C426 C 0.34817 0.84362 0.57435 0.0
C427 C 0.59331 0.46617 0.91603 0.0
C428 C 0.62422 0.44639 0.96525 0.0
C429 C 0.55979 0.42265 0.8622 0.0
C430 C 0.55442 0.35732 0.85741 0.0
H431 H 0.59557 0.5158 0.91881 0.0
H432 H 0.53592 0.43915 0.82546 0.0
S433 S 0.62328 0.28012 0.97535 0.0
N434 N 0.64679 0.35736 1.00628 0.0
N435 N 0.5808 0.27401 0.9068 0.0
C436 C 0.58429 0.33666 0.90675 0.0
C437 C 0.62002 0.38167 0.96037 0.0
loop_
_geom_bond_atom_site_label_1
_geom_bond_atom_site_label_2
_geom_bond_distance
_geom_bond_site_symmetry_2
_ccdc_geom_bond_type
Gd0 C3 2.818 . S
Gd0 O20 2.377 . S
Gd0 O22 2.448 . S
Gd0 O23 2.506 . S
Gd0 O24 2.435 . S
Gd0 O25 2.717 1_556 S
Gd0 O27 2.395 1_556 S
Gd0 O31 2.327 . S
Gd1 C12 2.818 . S
Gd1 O21 2.395 1_554 S
Gd1 O25 2.327 . S
Gd1 O26 2.377 . S
Gd1 O28 2.448 . S
Gd1 O29 2.506 . S
Gd1 O30 2.435 . S
Gd1 O31 2.717 1_554 S
C2 O20 1.240 . S
C2 O21 1.240 . S
C3 Gd0 2.818 . S
C3 C4 1.510 . S
C3 O22 1.249 . S
C3 O23 1.252 . S
C4 C3 1.510 . S
C4 C5 1.404 . S
C4 C6 1.352 . S
C5 C4 1.404 . S
C5 C9 1.389 . S
C5 H32 0.916 1_455 S
C6 C4 1.352 . S
C6 C8 1.374 . S
C6 H33 0.931 . S
C7 C8 1.359 . S
C7 C9 1.364 . S
C8 C6 1.374 . S
C8 C7 1.359 . S
C8 H34 0.931 . S
C9 C5 1.389 . S
C9 C7 1.364 . S
C9 H35 0.931 1_455 S
C10 O24 1.256 1_554 S
C10 O25 1.257 . S
C11 O26 1.240 . S
C11 O27 1.240 . S
C12 Gd1 2.818 . S
C12 C13 1.510 . S
C12 O28 1.249 . S
C12 O29 1.252 . S
C13 C12 1.510 . S
C13 C14 1.404 . S
C13 C15 1.352 . S
C14 C13 1.404 . S
C14 C18 1.389 . S
C14 H36 0.930 . S
C15 C13 1.352 . S
C15 C17 1.374 . S
C15 H37 0.931 . S
C16 C17 1.359 . S
C16 C18 1.364 . S
C17 C15 1.374 . S
C17 C16 1.359 . S
C17 H38 0.931 . S
C18 C14 1.389 . S
C18 C16 1.364 . S
C18 H39 0.931 . S
C19 O30 1.256 1_556 S
C19 O31 1.257 . S
O20 Gd0 2.377 . S
O20 C2 1.240 . S
O21 Gd1 2.395 1_556 S
O21 C2 1.240 . S
O22 Gd0 2.448 . S
O22 C3 1.249 . S
O23 Gd0 2.506 . S
O23 C3 1.252 . S
O24 Gd0 2.435 . S
O24 C10 1.256 1_556 S
O25 Gd0 2.717 1_554 S
O25 Gd1 2.327 . S
O25 C10 1.257 . S
O26 Gd1 2.377 . S
O26 C11 1.240 . S
O27 Gd0 2.395 1_554 S
O27 C11 1.240 . S
O28 Gd1 2.448 . S
O28 C12 1.249 . S
O29 Gd1 2.506 . S
O29 C12 1.252 . S
O30 Gd1 2.435 . S
O30 C19 1.256 1_554 S
O31 Gd0 2.327 . S
O31 Gd1 2.717 1_556 S
O31 C19 1.257 . S
H32 C5 0.916 1_655 S
H33 C6 0.931 . S
H34 C8 0.931 . S
H35 C9 0.931 1_655 S
H36 C14 0.930 . S
H37 C15 0.931 . S
H38 C17 0.931 . S
H39 C18 0.931 . S
Gd40 C43 2.818 . S
Gd40 O60 2.377 . S
Gd40 O62 2.448 . S
Gd40 O63 2.506 . S
Gd40 O64 2.435 . S
Gd40 O65 2.717 . S
Gd40 O67 2.395 . S
Gd40 O71 2.327 . S
Gd41 C52 2.818 . S
Gd41 O61 2.395 . S
Gd41 O65 2.327 . S
Gd41 O66 2.377 . S
Gd41 O68 2.448 . S
Gd41 O69 2.506 . S
Gd41 O70 2.435 . S
Gd41 O71 2.717 . S
C42 O60 1.240 . S
C42 O61 1.240 . S
C43 Gd40 2.818 . S
C43 C44 1.510 . S
C43 O62 1.249 . S
C43 O63 1.252 . S
C44 C43 1.510 . S
C44 C45 1.404 . S
C44 C46 1.352 . S
C45 C44 1.404 . S
C45 C49 1.390 . S
C45 H72 0.930 1_545 S
C46 C44 1.352 . S
C46 C48 1.374 1_554 S
C46 H73 0.931 . S
C47 C48 1.359 . S
C47 C49 1.363 1_556 S
C48 C46 1.374 1_556 S
C48 C47 1.359 . S
C48 H74 0.931 . S
C49 C45 1.390 . S
C49 C47 1.363 1_554 S
C49 H75 0.931 1_544 S
C50 O64 1.256 . S
C50 O65 1.257 . S
C51 O66 1.240 . S
C51 O67 1.240 . S
C52 Gd41 2.818 . S
C52 C53 1.510 . S
C52 O68 1.249 . S
C52 O69 1.252 . S
C53 C52 1.510 . S
C53 C54 1.404 . S
C53 C55 1.352 . S
C54 C53 1.404 . S
C54 C58 1.389 . S
C54 H76 0.930 . S
C55 C53 1.352 . S
C55 C57 1.374 . S
C55 H77 0.931 . S
C56 C57 1.359 . S
C56 C58 1.364 . S
C57 C55 1.374 . S
C57 C56 1.359 . S
C57 H78 0.931 . S
C58 C54 1.389 . S
C58 C56 1.364 . S
C58 H79 0.931 . S
C59 O70 1.256 . S
C59 O71 1.257 . S
O60 Gd40 2.377 . S
O60 C42 1.240 . S
O61 Gd41 2.395 . S
O61 C42 1.240 . S
O62 Gd40 2.448 . S
O62 C43 1.249 . S
O63 Gd40 2.506 . S
O63 C43 1.252 . S
O64 Gd40 2.435 . S
O64 C50 1.256 . S
O65 Gd40 2.717 . S
O65 Gd41 2.327 . S
O65 C50 1.257 . S
O66 Gd41 2.377 . S
O66 C51 1.240 . S
O67 Gd40 2.395 . S
O67 C51 1.240 . S
O68 Gd41 2.448 . S
O68 C52 1.249 . S
O69 Gd41 2.506 . S
O69 C52 1.252 . S
O70 Gd41 2.435 . S
O70 C59 1.256 . S
O71 Gd40 2.327 . S
O71 Gd41 2.717 . S
O71 C59 1.257 . S
H72 C45 0.930 1_565 S
H73 C46 0.931 . S
H74 C48 0.931 . S
H75 C49 0.931 1_566 S
H76 C54 0.930 . S
H77 C55 0.931 . S
H78 C57 0.931 . S
H79 C58 0.931 . S
Gd80 C83 2.818 . S
Gd80 O100 2.377 . S
Gd80 O102 2.448 . S
Gd80 O103 2.506 . S
Gd80 O104 2.435 . S
Gd80 O105 2.717 . S
Gd80 O107 2.395 . S
Gd80 O111 2.327 . S
Gd81 C92 2.818 . S
Gd81 O101 2.395 . S
Gd81 O105 2.327 . S
Gd81 O106 2.377 . S
Gd81 O108 2.448 . S
Gd81 O109 2.506 . S
Gd81 O110 2.435 . S
Gd81 O111 2.717 . S
C82 O100 1.240 . S
C82 O101 1.240 . S
C83 Gd80 2.818 . S
C83 C84 1.510 . S
C83 O102 1.249 . S
C83 O103 1.252 . S
C84 C83 1.510 . S
C84 C85 1.404 . S
C84 C86 1.352 . S
C85 C84 1.404 . S
C85 C89 1.389 . S
C85 H112 0.930 . S
C86 C84 1.352 . S
C86 C88 1.374 . S
C86 H113 0.931 . S
C87 C88 1.359 . S
C87 C89 1.364 . S
C88 C86 1.374 . S
C88 C87 1.359 . S
C88 H114 0.931 . S
C89 C85 1.389 . S
C89 C87 1.364 . S
C89 H115 0.931 . S
C90 O104 1.256 . S
C90 O105 1.257 . S
C91 O106 1.240 . S
C91 O107 1.240 . S
C92 Gd81 2.818 . S
C92 C93 1.510 . S
C92 O108 1.249 . S
C92 O109 1.252 . S
C93 C92 1.510 . S
C93 C94 1.404 . S
C93 C95 1.352 . S
C94 C93 1.404 . S
C94 C98 1.389 1_556 S
C94 H116 0.930 . S
C95 C93 1.352 . S
C95 C97 1.374 1_556 S
C95 H117 0.931 . S
C96 C97 1.359 . S
C96 C98 1.364 . S
C97 C95 1.374 1_554 S
C97 C96 1.359 . S
C97 H118 0.931 . S
C98 C94 1.389 1_554 S
C98 C96 1.364 . S
C98 H119 0.931 . S
C99 O110 1.256 . S
C99 O111 1.257 . S
O100 Gd80 2.377 . S
O100 C82 1.240 . S
O101 Gd81 2.395 . S
O101 C82 1.240 . S
O102 Gd80 2.448 . S
O102 C83 1.249 . S
O103 Gd80 2.506 . S
O103 C83 1.252 . S
O104 Gd80 2.435 . S
O104 C90 1.256 . S
O105 Gd80 2.717 . S
O105 Gd81 2.327 . S
O105 C90 1.257 . S
O106 Gd81 2.377 . S
O106 C91 1.240 . S
O107 Gd80 2.395 . S
O107 C91 1.240 . S
O108 Gd81 2.448 . S
O108 C92 1.249 . S
O109 Gd81 2.506 . S
O109 C92 1.252 . S
O110 Gd81 2.435 . S
O110 C99 1.256 . S
O111 Gd80 2.327 . S
O111 Gd81 2.717 . S
O111 C99 1.257 . S
H112 C85 0.930 . S
H113 C86 0.931 . S
H114 C88 0.931 . S
H115 C89 0.931 . S
H116 C94 0.930 . S
H117 C95 0.931 . S
H118 C97 0.931 . S
H119 C98 0.931 . S
Gd120 C123 2.818 . S
Gd120 O140 2.377 . S
Gd120 O142 2.448 . S
Gd120 O143 2.506 . S
Gd120 O144 2.435 . S
Gd120 O145 2.717 1_556 S
Gd120 O147 2.395 1_556 S
Gd120 O151 2.327 . S
Gd121 C132 2.818 . S
Gd121 O141 2.395 1_554 S
Gd121 O145 2.327 . S
Gd121 O146 2.377 . S
Gd121 O148 2.448 . S
Gd121 O149 2.506 . S
Gd121 O150 2.435 . S
Gd121 O151 2.717 1_554 S
C122 O140 1.240 . S
C122 O141 1.240 . S
C123 Gd120 2.818 . S
C123 C124 1.510 . S
C123 O142 1.249 . S
C123 O143 1.252 . S
C124 C123 1.510 . S
C124 C125 1.404 . S
C124 C126 1.352 . S
C125 C124 1.404 . S
C125 C129 1.389 . S
C125 H152 0.916 1_655 S
C126 C124 1.352 . S
C126 C128 1.374 . S
C126 H153 0.931 . S
C127 C128 1.359 . S
C127 C129 1.364 . S
C128 C126 1.374 . S
C128 C127 1.359 . S
C128 H154 0.931 . S
C129 C125 1.389 . S
C129 C127 1.364 . S
C129 H155 0.931 1_655 S
C130 O144 1.256 1_554 S
C130 O145 1.257 . S
C131 O146 1.240 . S
C131 O147 1.240 . S
C132 Gd121 2.818 . S
C132 C133 1.510 . S
C132 O148 1.249 . S
C132 O149 1.252 . S
C133 C132 1.510 . S
C133 C134 1.404 . S
C133 C135 1.352 . S
C134 C133 1.404 . S
C134 C138 1.389 . S
C134 H156 0.930 . S
C135 C133 1.352 . S
C135 C137 1.374 . S
C135 H157 0.931 . S
C136 C137 1.359 . S
C136 C138 1.364 . S
C137 C135 1.374 . S
C137 C136 1.359 . S
C137 H158 0.931 . S
C138 C134 1.389 . S
C138 C136 1.364 . S
C138 H159 0.931 . S
C139 O150 1.256 1_556 S
C139 O151 1.257 . S
O140 Gd120 2.377 . S
O140 C122 1.240 . S
O141 Gd121 2.395 1_556 S
O141 C122 1.240 . S
O142 Gd120 2.448 . S
O142 C123 1.249 . S
O143 Gd120 2.506 . S
O143 C123 1.252 . S
O144 Gd120 2.435 . S
O144 C130 1.256 1_556 S
O145 Gd120 2.717 1_554 S
O145 Gd121 2.327 . S
O145 C130 1.257 . S
O146 Gd121 2.377 . S
O146 C131 1.240 . S
O147 Gd120 2.395 1_554 S
O147 C131 1.240 . S
O148 Gd121 2.448 . S
O148 C132 1.249 . S
O149 Gd121 2.506 . S
O149 C132 1.252 . S
O150 Gd121 2.435 . S
O150 C139 1.256 1_554 S
O151 Gd120 2.327 . S
O151 Gd121 2.717 1_556 S
O151 C139 1.257 . S
H152 C125 0.916 1_455 S
H153 C126 0.931 . S
H154 C128 0.931 . S
H155 C129 0.931 1_455 S
H156 C134 0.930 . S
H157 C135 0.931 . S
H158 C137 0.931 . S
H159 C138 0.931 . S
Gd160 C163 2.818 . S
Gd160 O180 2.377 . S
Gd160 O182 2.448 . S
Gd160 O183 2.506 . S
Gd160 O184 2.435 . S
Gd160 O185 2.717 . S
Gd160 O187 2.395 . S
Gd160 O191 2.327 . S
Gd161 C172 2.818 . S
Gd161 O181 2.395 . S
Gd161 O185 2.327 . S
Gd161 O186 2.377 . S
Gd161 O188 2.448 . S
Gd161 O189 2.506 . S
Gd161 O190 2.435 . S
Gd161 O191 2.717 . S
C162 O180 1.240 . S
C162 O181 1.240 . S
C163 Gd160 2.818 . S
C163 C164 1.510 . S
C163 O182 1.249 . S
C163 O183 1.252 . S
C164 C163 1.510 . S
C164 C165 1.404 . S
C164 C166 1.352 . S
C165 C164 1.404 . S
C165 C169 1.390 . S
C165 H192 0.930 1_565 S
C166 C164 1.352 . S
C166 C168 1.374 1_554 S
C166 H193 0.931 . S
C167 C168 1.359 . S
C167 C169 1.363 1_556 S
C168 C166 1.374 1_556 S
C168 C167 1.359 . S
C168 H194 0.931 . S
C169 C165 1.390 . S
C169 C167 1.363 1_554 S
C169 H195 0.931 1_564 S
C170 O184 1.256 . S
C170 O185 1.257 . S
C171 O186 1.240 . S
C171 O187 1.240 . S
C172 Gd161 2.818 . S
C172 C173 1.510 . S
C172 O188 1.249 . S
C172 O189 1.252 . S
C173 C172 1.510 . S
C173 C174 1.404 . S
C173 C175 1.352 . S
C174 C173 1.404 . S
C174 C178 1.389 . S
C174 H196 0.930 . S
C175 C173 1.352 . S
C175 C177 1.374 . S
C175 H197 0.931 . S
C176 C177 1.359 . S
C176 C178 1.364 . S
C177 C175 1.374 . S
C177 C176 1.359 . S
C177 H198 0.931 . S
C178 C174 1.389 . S
C178 C176 1.364 . S
C178 H199 0.931 . S
C179 O190 1.256 . S
C179 O191 1.257 . S
O180 Gd160 2.377 . S
O180 C162 1.240 . S
O181 Gd161 2.395 . S
O181 C162 1.240 . S
O182 Gd160 2.448 . S
O182 C163 1.249 . S
O183 Gd160 2.506 . S
O183 C163 1.252 . S
O184 Gd160 2.435 . S
O184 C170 1.256 . S
O185 Gd160 2.717 . S
O185 Gd161 2.327 . S
O185 C170 1.257 . S
O186 Gd161 2.377 . S
O186 C171 1.240 . S
O187 Gd160 2.395 . S
O187 C171 1.240 . S
O188 Gd161 2.448 . S
O188 C172 1.249 . S
O189 Gd161 2.506 . S
O189 C172 1.252 . S
O190 Gd161 2.435 . S
O190 C179 1.256 . S
O191 Gd160 2.327 . S
O191 Gd161 2.717 . S
O191 C179 1.257 . S
H192 C165 0.930 1_545 S
H193 C166 0.931 . S
H194 C168 0.931 . S
H195 C169 0.931 1_546 S
H196 C174 0.930 . S
H197 C175 0.931 . S
H198 C177 0.931 . S
H199 C178 0.931 . S
Gd200 C203 2.818 . S
Gd200 O220 2.377 . S
Gd200 O222 2.448 . S
Gd200 O223 2.506 . S
Gd200 O224 2.435 . S
Gd200 O225 2.717 . S
Gd200 O227 2.395 . S
Gd200 O231 2.327 . S
Gd201 C212 2.818 . S
Gd201 O221 2.395 . S
Gd201 O225 2.327 . S
Gd201 O226 2.377 . S
Gd201 O228 2.448 . S
Gd201 O229 2.506 . S
Gd201 O230 2.435 . S
Gd201 O231 2.717 . S
C202 O220 1.240 . S
C202 O221 1.240 . S
C203 Gd200 2.818 . S
C203 C204 1.510 . S
C203 O222 1.249 . S
C203 O223 1.252 . S
C204 C203 1.510 . S
C204 C205 1.404 . S
C204 C206 1.352 . S
C205 C204 1.404 . S
C205 C209 1.389 . S
C205 H232 0.930 . S
C206 C204 1.352 . S
C206 C208 1.374 . S
C206 H233 0.931 . S
C207 C208 1.359 . S
C207 C209 1.364 . S
C208 C206 1.374 . S
C208 C207 1.359 . S
C208 H234 0.931 . S
C209 C205 1.389 . S
C209 C207 1.364 . S
C209 H235 0.931 . S
C210 O224 1.256 . S
C210 O225 1.257 . S
C211 O226 1.240 . S
C211 O227 1.240 . S
C212 Gd201 2.818 . S
C212 C213 1.510 . S
C212 O228 1.249 . S
C212 O229 1.252 . S
C213 C212 1.510 . S
C213 C214 1.404 . S
C213 C215 1.352 . S
C214 C213 1.404 . S
C214 C218 1.389 1_556 S
C214 H236 0.930 . S
C215 C213 1.352 . S
C215 C217 1.374 1_556 S
C215 H237 0.931 . S
C216 C217 1.359 . S
C216 C218 1.364 . S
C217 C215 1.374 1_554 S
C217 C216 1.359 . S
C217 H238 0.931 . S
C218 C214 1.389 1_554 S
C218 C216 1.364 . S
C218 H239 0.931 . S
C219 O230 1.256 . S
C219 O231 1.257 . S
O220 Gd200 2.377 . S
O220 C202 1.240 . S
O221 Gd201 2.395 . S
O221 C202 1.240 . S
O222 Gd200 2.448 . S
O222 C203 1.249 . S
O223 Gd200 2.506 . S
O223 C203 1.252 . S
O224 Gd200 2.435 . S
O224 C210 1.256 . S
O225 Gd200 2.717 . S
O225 Gd201 2.327 . S
O225 C210 1.257 . S
O226 Gd201 2.377 . S
O226 C211 1.240 . S
O227 Gd200 2.395 . S
O227 C211 1.240 . S
O228 Gd201 2.448 . S
O228 C212 1.249 . S
O229 Gd201 2.506 . S
O229 C212 1.252 . S
O230 Gd201 2.435 . S
O230 C219 1.256 . S
O231 Gd200 2.327 . S
O231 Gd201 2.717 . S
O231 C219 1.257 . S
H232 C205 0.930 . S
H233 C206 0.931 . S
H234 C208 0.931 . S
H235 C209 0.931 . S
H236 C214 0.930 . S
H237 C215 0.931 . S
H238 C217 0.931 . S
H239 C218 0.931 . S
C240 C241 1.369 . S
C240 C242 1.419 . S
C240 H244 0.930 . S
C241 C240 1.369 . S
C241 C250 1.429 . S
C242 C240 1.419 . S
C242 C243 1.363 . S
C242 H245 0.929 . S
C243 C242 1.363 . S
C243 C249 1.428 . S
H244 C240 0.930 . S
H245 C242 0.929 . S
S246 N247 1.613 . S
S246 N248 1.610 . S
N247 S246 1.613 . S
N247 C250 1.350 . S
N248 S246 1.610 . S
N248 C249 1.351 . S
C249 C243 1.428 . S
C249 N248 1.351 . S
C249 C250 1.434 . S
C250 C241 1.429 . S
C250 N247 1.350 . S
C250 C249 1.434 . S
C251 C252 1.369 1_655 S
C251 C253 1.419 . S
C251 H255 0.930 . S
C252 C251 1.369 1_455 S
C252 C261 1.429 . S
C253 C251 1.419 . S
C253 C254 1.363 . S
C253 H256 0.929 . S
C254 C253 1.363 . S
C254 C260 1.428 1_655 S
H255 C251 0.930 . S
H256 C253 0.929 . S
S257 N258 1.613 . S
S257 N259 1.610 . S
N258 S257 1.613 . S
N258 C261 1.350 . S
N259 S257 1.610 . S
N259 C260 1.351 . S
C260 C254 1.428 1_455 S
C260 N259 1.351 . S
C260 C261 1.434 . S
C261 C252 1.429 . S
C261 N258 1.350 . S
C261 C260 1.434 . S
C262 C263 1.369 . S
C262 C264 1.419 . S
C262 H266 0.930 . S
C263 C262 1.369 . S
C263 C272 1.429 1_545 S
C264 C262 1.419 . S
C264 C265 1.363 1_545 S
C264 H267 0.929 . S
C265 C264 1.363 1_565 S
C265 C271 1.428 . S
H266 C262 0.930 . S
H267 C264 0.929 . S
S268 N269 1.613 . S
S268 N270 1.610 . S
N269 S268 1.613 . S
N269 C272 1.350 . S
N270 S268 1.610 . S
N270 C271 1.351 . S
C271 C265 1.428 . S
C271 N270 1.351 . S
C271 C272 1.434 . S
C272 C263 1.429 1_565 S
C272 N269 1.350 . S
C272 C271 1.434 . S
C273 C274 1.369 . S
C273 C275 1.419 . S
C273 H277 0.930 . S
C274 C273 1.369 . S
C274 C283 1.429 . S
C275 C273 1.419 . S
C275 C276 1.363 . S
C275 H278 0.929 . S
C276 C275 1.363 . S
C276 C282 1.428 . S
H277 C273 0.930 . S
H278 C275 0.929 . S
S279 N280 1.613 . S
S279 N281 1.610 . S
N280 S279 1.613 . S
N280 C283 1.350 . S
N281 S279 1.610 . S
N281 C282 1.351 . S
C282 C276 1.428 . S
C282 N281 1.351 . S
C282 C283 1.434 . S
C283 C274 1.429 . S
C283 N280 1.350 . S
C283 C282 1.434 . S
C284 C285 1.369 1_655 S
C284 C286 1.419 . S
C284 H288 0.930 . S
C285 C284 1.369 1_455 S
C285 C294 1.429 . S
C286 C284 1.419 . S
C286 C287 1.363 . S
C286 H289 0.929 . S
C287 C286 1.363 . S
C287 C293 1.428 1_655 S
H288 C284 0.930 . S
H289 C286 0.929 . S
S290 N291 1.613 . S
S290 N292 1.610 . S
N291 S290 1.613 . S
N291 C294 1.350 . S
N292 S290 1.610 . S
N292 C293 1.351 . S
C293 C287 1.428 1_455 S
C293 N292 1.351 . S
C293 C294 1.434 . S
C294 C285 1.429 . S
C294 N291 1.350 . S
C294 C293 1.434 . S
C295 C296 1.369 . S
C295 C297 1.419 . S
C295 H299 0.930 . S
C296 C295 1.369 . S
C296 C305 1.429 1_545 S
C297 C295 1.419 . S
C297 C298 1.363 1_545 S
C297 H300 0.929 . S
C298 C297 1.363 1_565 S
C298 C304 1.428 . S
H299 C295 0.930 . S
H300 C297 0.929 . S
S301 N302 1.613 . S
S301 N303 1.610 . S
N302 S301 1.613 . S
N302 C305 1.350 . S
N303 S301 1.610 . S
N303 C304 1.351 . S
C304 C298 1.428 . S
C304 N303 1.351 . S
C304 C305 1.434 . S
C305 C296 1.429 1_565 S
C305 N302 1.350 . S
C305 C304 1.434 . S
C306 C307 1.369 . S
C306 C308 1.419 . S
C306 H310 0.930 . S
C307 C306 1.369 . S
C307 C316 1.429 . S
C308 C306 1.419 . S
C308 C309 1.363 . S
C308 H311 0.929 . S
C309 C308 1.363 . S
C309 C315 1.428 . S
H310 C306 0.930 . S
H311 C308 0.929 . S
S312 N313 1.613 . S
S312 N314 1.610 . S
N313 S312 1.613 . S
N313 C316 1.350 . S
N314 S312 1.610 . S
N314 C315 1.351 . S
C315 C309 1.428 . S
C315 N314 1.351 . S
C315 C316 1.434 . S
C316 C307 1.429 . S
C316 N313 1.350 . S
C316 C315 1.434 . S
C317 C318 1.369 . S
C317 C319 1.419 . S
C317 H321 0.930 . S
C318 C317 1.369 . S
C318 C327 1.429 . S
C319 C317 1.419 . S
C319 C320 1.363 . S
C319 H322 0.929 . S
C320 C319 1.363 . S
C320 C326 1.428 . S
H321 C317 0.930 . S
H322 C319 0.929 . S
S323 N324 1.613 . S
S323 N325 1.610 . S
N324 S323 1.613 . S
N324 C327 1.350 . S
N325 S323 1.610 . S
N325 C326 1.351 . S
C326 C320 1.428 . S
C326 N325 1.351 . S
C326 C327 1.434 . S
C327 C318 1.429 . S
C327 N324 1.350 . S
C327 C326 1.434 . S
C328 C329 1.369 . S
C328 C330 1.419 . S
C328 H332 0.930 . S
C329 C328 1.369 . S
C329 C338 1.429 . S
C330 C328 1.419 . S
C330 C331 1.363 . S
C330 H333 0.929 . S
C331 C330 1.363 . S
C331 C337 1.428 . S
H332 C328 0.930 . S
H333 C330 0.929 . S
S334 N335 1.613 . S
S334 N336 1.610 . S
N335 S334 1.613 . S
N335 C338 1.350 . S
N336 S334 1.610 . S
N336 C337 1.351 . S
C337 C331 1.428 . S
C337 N336 1.351 . S
C337 C338 1.434 . S
C338 C329 1.429 . S
C338 N335 1.350 . S
C338 C337 1.434 . S
C339 C340 1.369 . S
C339 C341 1.419 . S
C339 H343 0.930 . S
C340 C339 1.369 . S
C340 C349 1.429 . S
C341 C339 1.419 . S
C341 C342 1.363 . S
C341 H344 0.929 . S
C342 C341 1.363 . S
C342 C348 1.428 . S
H343 C339 0.930 . S
H344 C341 0.929 . S
S345 N346 1.613 . S
S345 N347 1.610 . S
N346 S345 1.613 . S
N346 C349 1.350 . S
N347 S345 1.610 . S
N347 C348 1.351 . S
C348 C342 1.428 . S
C348 N347 1.351 . S
C348 C349 1.434 . S
C349 C340 1.429 . S
C349 N346 1.350 . S
C349 C348 1.434 . S
C350 C351 1.369 . S
C350 C352 1.419 . S
C350 H354 0.930 . S
C351 C350 1.369 . S
C351 C360 1.429 . S
C352 C350 1.419 . S
C352 C353 1.363 . S
C352 H355 0.929 . S
C353 C352 1.363 . S
C353 C359 1.428 . S
H354 C350 0.930 . S
H355 C352 0.929 . S
S356 N357 1.613 . S
S356 N358 1.610 . S
N357 S356 1.613 . S
N357 C360 1.350 . S
N358 S356 1.610 . S
N358 C359 1.351 . S
C359 C353 1.428 . S
C359 N358 1.351 . S
C359 C360 1.434 . S
C360 C351 1.429 . S
C360 N357 1.350 . S
C360 C359 1.434 . S
C361 C362 1.369 . S
C361 C363 1.419 . S
C361 H365 0.930 . S
C362 C361 1.369 . S
C362 C371 1.429 . S
C363 C361 1.419 . S
C363 C364 1.363 . S
C363 H366 0.929 . S
C364 C363 1.363 . S
C364 C370 1.428 . S
H365 C361 0.930 . S
H366 C363 0.929 . S
S367 N368 1.613 . S
S367 N369 1.610 . S
N368 S367 1.613 . S
N368 C371 1.350 . S
N369 S367 1.610 . S
N369 C370 1.351 . S
C370 C364 1.428 . S
C370 N369 1.351 . S
C370 C371 1.434 . S
C371 C362 1.429 . S
C371 N368 1.350 . S
C371 C370 1.434 . S
C372 C373 1.369 . S
C372 C374 1.419 . S
C372 H376 0.930 . S
C373 C372 1.369 . S
C373 C382 1.429 . S
C374 C372 1.419 . S
C374 C375 1.363 . S
C374 H377 0.929 . S
C375 C374 1.363 . S
C375 C381 1.428 . S
H376 C372 0.930 . S
H377 C374 0.929 . S
S378 N379 1.613 . S
S378 N380 1.610 . S
N379 S378 1.613 . S
N379 C382 1.350 . S
N380 S378 1.610 . S
N380 C381 1.351 . S
C381 C375 1.428 . S
C381 N380 1.351 . S
C381 C382 1.434 . S
C382 C373 1.429 . S
C382 N379 1.350 . S
C382 C381 1.434 . S
C383 C384 1.369 . S
C383 C385 1.419 . S
C383 H387 0.930 . S
C384 C383 1.369 . S
C384 C393 1.429 . S
C385 C383 1.419 . S
C385 C386 1.363 . S
C385 H388 0.929 . S
C386 C385 1.363 . S
C386 C392 1.428 . S
H387 C383 0.930 . S
H388 C385 0.929 . S
S389 N390 1.613 . S
S389 N391 1.610 . S
N390 S389 1.613 . S
N390 C393 1.350 . S
N391 S389 1.610 . S
N391 C392 1.351 . S
C392 C386 1.428 . S
C392 N391 1.351 . S
C392 C393 1.434 . S
C393 C384 1.429 . S
C393 N390 1.350 . S
C393 C392 1.434 . S
C394 C395 1.369 . S
C394 C396 1.419 . S
C394 H398 0.930 . S
C395 C394 1.369 . S
C395 C404 1.429 . S
C396 C394 1.419 . S
C396 C397 1.363 . S
C396 H399 0.929 . S
C397 C396 1.363 . S
C397 C403 1.428 . S
H398 C394 0.930 . S
H399 C396 0.929 . S
S400 N401 1.613 . S
S400 N402 1.610 . S
N401 S400 1.613 . S
N401 C404 1.350 . S
N402 S400 1.610 . S
N402 C403 1.351 . S
C403 C397 1.428 . S
C403 N402 1.351 . S
C403 C404 1.434 . S
C404 C395 1.429 . S
C404 N401 1.350 . S
C404 C403 1.434 . S
C405 C406 1.369 . S
C405 C407 1.419 . S
C405 H409 0.930 . S
C406 C405 1.369 . S
C406 C415 1.429 . S
C407 C405 1.419 . S
C407 C408 1.363 . S
C407 H410 0.929 . S
C408 C407 1.363 . S
C408 C414 1.428 . S
H409 C405 0.930 . S
H410 C407 0.929 . S
S411 N412 1.613 . S
S411 N413 1.610 . S
N412 S411 1.613 . S
N412 C415 1.350 . S
N413 S411 1.610 . S
N413 C414 1.351 . S
C414 C408 1.428 . S
C414 N413 1.351 . S
C414 C415 1.434 . S
C415 C406 1.429 . S
C415 N412 1.350 . S
C415 C414 1.434 . S
C416 C417 1.369 . S
C416 C418 1.419 . S
C416 H420 0.930 . S
C417 C416 1.369 . S
C417 C426 1.429 . S
C418 C416 1.419 . S
C418 C419 1.363 . S
C418 H421 0.929 . S
C419 C418 1.363 . S
C419 C425 1.428 . S
H420 C416 0.930 . S
H421 C418 0.929 . S
S422 N423 1.613 . S
S422 N424 1.610 . S
N423 S422 1.613 . S
N423 C426 1.350 . S
N424 S422 1.610 . S
N424 C425 1.351 . S
C425 C419 1.428 . S
C425 N424 1.351 . S
C425 C426 1.434 . S
C426 C417 1.429 . S
C426 N423 1.350 . S
C426 C425 1.434 . S
C427 C428 1.369 . S
C427 C429 1.419 . S
C427 H431 0.930 . S
C428 C427 1.369 . S
C428 C437 1.429 . S
C429 C427 1.419 . S
C429 C430 1.363 . S
C429 H432 0.929 . S
C430 C429 1.363 . S
C430 C436 1.428 . S
H431 C427 0.930 . S
H432 C429 0.929 . S
S433 N434 1.613 . S
S433 N435 1.610 . S
N434 S433 1.613 . S
N434 C437 1.350 . S
N435 S433 1.610 . S
N435 C436 1.351 . S
C436 C430 1.428 . S
C436 N435 1.351 . S
C436 C437 1.434 . S
C437 C428 1.429 . S
C437 N434 1.350 . S
C437 C436 1.434 . S
C241 C210 1.505 . S
C243 C2 1.539 . S
C252 C10 1.511 . S
C254 C42 1.543 . S
C263 C50 1.511 . S
C265 C82 1.540 . S
C274 C90 1.505 . S
C276 C122 1.539 . S
C285 C162 1.540 . S
C287 C130 1.509 . S
C296 C202 1.543 . S
C298 C170 1.509 . S
C307 C7 2.103 . S
C309 C16 2.094 . S
C318 C47 2.097 . S
C320 C56 2.099 . S
C329 C87 2.096 . S
C331 C96 2.100 . S
C340 C127 2.092 . S
C342 C136 2.102 . S
C351 C176 2.098 . S
C353 C167 2.099 . S
C362 C207 2.101 . S
C364 C216 2.097 . S
C373 C11 1.762 . S
C375 C179 1.764 . S
C384 C51 1.762 . S
C386 C219 1.764 . S
C395 C19 1.764 . S
C397 C91 1.760 . S
C406 C59 1.766 . S
C408 C131 1.759 . S
C417 C171 1.762 . S
C419 C99 1.764 . S
C428 C139 1.766 . S
C430 C211 1.759 . S
