# Generated by pormake.
# Topology wio, (6)-cn, num edge types: 1
# Building blocks:
#     Node 0, Type 0, BuildingBlock: BETDAH_clean_sbu_0, # of connection points: 6
#     Node 1, Type 0, BuildingBlock: BETDAH_clean_sbu_0, # of connection points: 6
#     Node 2, Type 0, BuildingBlock: BETDAH_clean_sbu_0, # of connection points: 6
#     Node 3, Type 0, BuildingBlock: BETDAH_clean_sbu_0, # of connection points: 6
#     Node 4, Type 0, BuildingBlock: BETDAH_clean_sbu_0, # of connection points: 6
#     Node 5, Type 0, BuildingBlock: BETDAH_clean_sbu_0, # of connection points: 6
#     Node 6, Type 0, BuildingBlock: BETDAH_clean_sbu_0, # of connection points: 6
#     Node 7, Type 0, BuildingBlock: BETDAH_clean_sbu_0, # of connection points: 6
#     Node 8, Type 0, BuildingBlock: BETDAH_clean_sbu_0, # of connection points: 6
#     Node 9, Type 0, BuildingBlock: BETDAH_clean_sbu_0, # of connection points: 6
#     Node 10, Type 0, BuildingBlock: BETDAH_clean_sbu_0, # of connection points: 6
#     Node 11, Type 0, BuildingBlock: BETDAH_clean_sbu_0, # of connection points: 6
#     Node 12, Type 0, BuildingBlock: BETDAH_clean_sbu_0, # of connection points: 6
#     Node 13, Type 0, BuildingBlock: BETDAH_clean_sbu_0, # of connection points: 6
#     Node 14, Type 0, BuildingBlock: BETDAH_clean_sbu_0, # of connection points: 6
#     Node 15, Type 0, BuildingBlock: BETDAH_clean_sbu_0, # of connection points: 6
#     Node 16, Type 0, BuildingBlock: BETDAH_clean_sbu_0, # of connection points: 6
#     Node 17, Type 0, BuildingBlock: BETDAH_clean_sbu_0, # of connection points: 6
#     Node 18, Type 0, BuildingBlock: BETDAH_clean_sbu_0, # of connection points: 6
#     Node 19, Type 0, BuildingBlock: BETDAH_clean_sbu_0, # of connection points: 6
#     Node 20, Type 0, BuildingBlock: BETDAH_clean_sbu_0, # of connection points: 6
#     Node 21, Type 0, BuildingBlock: BETDAH_clean_sbu_0, # of connection points: 6
#     Node 22, Type 0, BuildingBlock: BETDAH_clean_sbu_0, # of connection points: 6
#     Node 23, Type 0, BuildingBlock: BETDAH_clean_sbu_0, # of connection points: 6
#     Node 24, Type 0, BuildingBlock: BETDAH_clean_sbu_0, # of connection points: 6
#     Node 25, Type 0, BuildingBlock: BETDAH_clean_sbu_0, # of connection points: 6
#     Node 26, Type 0, BuildingBlock: BETDAH_clean_sbu_0, # of connection points: 6
#     Node 27, Type 0, BuildingBlock: BETDAH_clean_sbu_0, # of connection points: 6
#     Node 28, Type 0, BuildingBlock: BETDAH_clean_sbu_0, # of connection points: 6
#     Node 29, Type 0, BuildingBlock: BETDAH_clean_sbu_0, # of connection points: 6
#     Node 30, Type 0, BuildingBlock: BETDAH_clean_sbu_0, # of connection points: 6
#     Node 31, Type 0, BuildingBlock: BETDAH_clean_sbu_0, # of connection points: 6
#     Edge 32, Type (0, 0), BuildingBlock: XIVTED_clean_linker_0, # of connection points: 2
#     Edge 33, Type (0, 0), BuildingBlock: XIVTED_clean_linker_0, # of connection points: 2
#     Edge 34, Type (0, 0), BuildingBlock: XIVTED_clean_linker_0, # of connection points: 2
#     Edge 35, Type (0, 0), BuildingBlock: XIVTED_clean_linker_0, # of connection points: 2
#     Edge 36, Type (0, 0), BuildingBlock: XIVTED_clean_linker_0, # of connection points: 2
#     Edge 37, Type (0, 0), BuildingBlock: XIVTED_clean_linker_0, # of connection points: 2
#     Edge 38, Type (0, 0), BuildingBlock: XIVTED_clean_linker_0, # of connection points: 2
#     Edge 39, Type (0, 0), BuildingBlock: XIVTED_clean_linker_0, # of connection points: 2
#     Edge 40, Type (0, 0), BuildingBlock: XIVTED_clean_linker_0, # of connection points: 2
#     Edge 41, Type (0, 0), BuildingBlock: XIVTED_clean_linker_0, # of connection points: 2
#     Edge 42, Type (0, 0), BuildingBlock: XIVTED_clean_linker_0, # of connection points: 2
#     Edge 43, Type (0, 0), BuildingBlock: XIVTED_clean_linker_0, # of connection points: 2
#     Edge 44, Type (0, 0), BuildingBlock: XIVTED_clean_linker_0, # of connection points: 2
#     Edge 45, Type (0, 0), BuildingBlock: XIVTED_clean_linker_0, # of connection points: 2
#     Edge 46, Type (0, 0), BuildingBlock: XIVTED_clean_linker_0, # of connection points: 2
#     Edge 47, Type (0, 0), BuildingBlock: XIVTED_clean_linker_0, # of connection points: 2
#     Edge 48, Type (0, 0), BuildingBlock: XIVTED_clean_linker_0, # of connection points: 2
#     Edge 49, Type (0, 0), BuildingBlock: XIVTED_clean_linker_0, # of connection points: 2
#     Edge 50, Type (0, 0), BuildingBlock: XIVTED_clean_linker_0, # of connection points: 2
#     Edge 51, Type (0, 0), BuildingBlock: XIVTED_clean_linker_0, # of connection points: 2
#     Edge 52, Type (0, 0), BuildingBlock: XIVTED_clean_linker_0, # of connection points: 2
#     Edge 53, Type (0, 0), BuildingBlock: XIVTED_clean_linker_0, # of connection points: 2
#     Edge 54, Type (0, 0), BuildingBlock: XIVTED_clean_linker_0, # of connection points: 2
#     Edge 55, Type (0, 0), BuildingBlock: XIVTED_clean_linker_0, # of connection points: 2
#     Edge 56, Type (0, 0), BuildingBlock: XIVTED_clean_linker_0, # of connection points: 2
#     Edge 57, Type (0, 0), BuildingBlock: XIVTED_clean_linker_0, # of connection points: 2
#     Edge 58, Type (0, 0), BuildingBlock: XIVTED_clean_linker_0, # of connection points: 2
#     Edge 59, Type (0, 0), BuildingBlock: XIVTED_clean_linker_0, # of connection points: 2
#     Edge 60, Type (0, 0), BuildingBlock: XIVTED_clean_linker_0, # of connection points: 2
#     Edge 61, Type (0, 0), BuildingBlock: XIVTED_clean_linker_0, # of connection points: 2
#     Edge 62, Type (0, 0), BuildingBlock: XIVTED_clean_linker_0, # of connection points: 2
#     Edge 63, Type (0, 0), BuildingBlock: XIVTED_clean_linker_0, # of connection points: 2
#     Edge 64, Type (0, 0), BuildingBlock: XIVTED_clean_linker_0, # of connection points: 2
#     Edge 65, Type (0, 0), BuildingBlock: XIVTED_clean_linker_0, # of connection points: 2
#     Edge 66, Type (0, 0), BuildingBlock: XIVTED_clean_linker_0, # of connection points: 2
#     Edge 67, Type (0, 0), BuildingBlock: XIVTED_clean_linker_0, # of connection points: 2
#     Edge 68, Type (0, 0), BuildingBlock: XIVTED_clean_linker_0, # of connection points: 2
#     Edge 69, Type (0, 0), BuildingBlock: XIVTED_clean_linker_0, # of connection points: 2
#     Edge 70, Type (0, 0), BuildingBlock: XIVTED_clean_linker_0, # of connection points: 2
#     Edge 71, Type (0, 0), BuildingBlock: XIVTED_clean_linker_0, # of connection points: 2
#     Edge 72, Type (0, 0), BuildingBlock: XIVTED_clean_linker_0, # of connection points: 2
#     Edge 73, Type (0, 0), BuildingBlock: XIVTED_clean_linker_0, # of connection points: 2
#     Edge 74, Type (0, 0), BuildingBlock: XIVTED_clean_linker_0, # of connection points: 2
#     Edge 75, Type (0, 0), BuildingBlock: XIVTED_clean_linker_0, # of connection points: 2
#     Edge 76, Type (0, 0), BuildingBlock: XIVTED_clean_linker_0, # of connection points: 2
#     Edge 77, Type (0, 0), BuildingBlock: XIVTED_clean_linker_0, # of connection points: 2
#     Edge 78, Type (0, 0), BuildingBlock: XIVTED_clean_linker_0, # of connection points: 2
#     Edge 79, Type (0, 0), BuildingBlock: XIVTED_clean_linker_0, # of connection points: 2
#     Edge 80, Type (0, 0), BuildingBlock: XIVTED_clean_linker_0, # of connection points: 2
#     Edge 81, Type (0, 0), BuildingBlock: XIVTED_clean_linker_0, # of connection points: 2
#     Edge 82, Type (0, 0), BuildingBlock: XIVTED_clean_linker_0, # of connection points: 2
#     Edge 83, Type (0, 0), BuildingBlock: XIVTED_clean_linker_0, # of connection points: 2
#     Edge 84, Type (0, 0), BuildingBlock: XIVTED_clean_linker_0, # of connection points: 2
#     Edge 85, Type (0, 0), BuildingBlock: XIVTED_clean_linker_0, # of connection points: 2
#     Edge 86, Type (0, 0), BuildingBlock: XIVTED_clean_linker_0, # of connection points: 2
#     Edge 87, Type (0, 0), BuildingBlock: XIVTED_clean_linker_0, # of connection points: 2
#     Edge 88, Type (0, 0), BuildingBlock: XIVTED_clean_linker_0, # of connection points: 2
#     Edge 89, Type (0, 0), BuildingBlock: XIVTED_clean_linker_0, # of connection points: 2
#     Edge 90, Type (0, 0), BuildingBlock: XIVTED_clean_linker_0, # of connection points: 2
#     Edge 91, Type (0, 0), BuildingBlock: XIVTED_clean_linker_0, # of connection points: 2
#     Edge 92, Type (0, 0), BuildingBlock: XIVTED_clean_linker_0, # of connection points: 2
#     Edge 93, Type (0, 0), BuildingBlock: XIVTED_clean_linker_0, # of connection points: 2
#     Edge 94, Type (0, 0), BuildingBlock: XIVTED_clean_linker_0, # of connection points: 2
#     Edge 95, Type (0, 0), BuildingBlock: XIVTED_clean_linker_0, # of connection points: 2
#     Edge 96, Type (0, 0), BuildingBlock: XIVTED_clean_linker_0, # of connection points: 2
#     Edge 97, Type (0, 0), BuildingBlock: XIVTED_clean_linker_0, # of connection points: 2
#     Edge 98, Type (0, 0), BuildingBlock: XIVTED_clean_linker_0, # of connection points: 2
#     Edge 99, Type (0, 0), BuildingBlock: XIVTED_clean_linker_0, # of connection points: 2
#     Edge 100, Type (0, 0), BuildingBlock: XIVTED_clean_linker_0, # of connection points: 2
#     Edge 101, Type (0, 0), BuildingBlock: XIVTED_clean_linker_0, # of connection points: 2
#     Edge 102, Type (0, 0), BuildingBlock: XIVTED_clean_linker_0, # of connection points: 2
#     Edge 103, Type (0, 0), BuildingBlock: XIVTED_clean_linker_0, # of connection points: 2
#     Edge 104, Type (0, 0), BuildingBlock: XIVTED_clean_linker_0, # of connection points: 2
#     Edge 105, Type (0, 0), BuildingBlock: XIVTED_clean_linker_0, # of connection points: 2
#     Edge 106, Type (0, 0), BuildingBlock: XIVTED_clean_linker_0, # of connection points: 2
#     Edge 107, Type (0, 0), BuildingBlock: XIVTED_clean_linker_0, # of connection points: 2
#     Edge 108, Type (0, 0), BuildingBlock: XIVTED_clean_linker_0, # of connection points: 2
#     Edge 109, Type (0, 0), BuildingBlock: XIVTED_clean_linker_0, # of connection points: 2
#     Edge 110, Type (0, 0), BuildingBlock: XIVTED_clean_linker_0, # of connection points: 2
#     Edge 111, Type (0, 0), BuildingBlock: XIVTED_clean_linker_0, # of connection points: 2
#     Edge 112, Type (0, 0), BuildingBlock: XIVTED_clean_linker_0, # of connection points: 2
#     Edge 113, Type (0, 0), BuildingBlock: XIVTED_clean_linker_0, # of connection points: 2
#     Edge 114, Type (0, 0), BuildingBlock: XIVTED_clean_linker_0, # of connection points: 2
#     Edge 115, Type (0, 0), BuildingBlock: XIVTED_clean_linker_0, # of connection points: 2
#     Edge 116, Type (0, 0), BuildingBlock: XIVTED_clean_linker_0, # of connection points: 2
#     Edge 117, Type (0, 0), BuildingBlock: XIVTED_clean_linker_0, # of connection points: 2
#     Edge 118, Type (0, 0), BuildingBlock: XIVTED_clean_linker_0, # of connection points: 2
#     Edge 119, Type (0, 0), BuildingBlock: XIVTED_clean_linker_0, # of connection points: 2
#     Edge 120, Type (0, 0), BuildingBlock: XIVTED_clean_linker_0, # of connection points: 2
#     Edge 121, Type (0, 0), BuildingBlock: XIVTED_clean_linker_0, # of connection points: 2
#     Edge 122, Type (0, 0), BuildingBlock: XIVTED_clean_linker_0, # of connection points: 2
#     Edge 123, Type (0, 0), BuildingBlock: XIVTED_clean_linker_0, # of connection points: 2
#     Edge 124, Type (0, 0), BuildingBlock: XIVTED_clean_linker_0, # of connection points: 2
#     Edge 125, Type (0, 0), BuildingBlock: XIVTED_clean_linker_0, # of connection points: 2
#     Edge 126, Type (0, 0), BuildingBlock: XIVTED_clean_linker_0, # of connection points: 2
#     Edge 127, Type (0, 0), BuildingBlock: XIVTED_clean_linker_0, # of connection points: 2
# Relax obj value: 0.197
# Max RMSD: 0.235
# Mean RMSD: 0.235
data_MOF--net-wio--node1-BETDAH_clean_sbu_0--edge1-XIVTED_clean_linker_0
_symmetry_space_group_name_H-M    P1
_symmetry_Int_Tables_number       1
_symmetry_cell_setting            triclinic
loop_
_symmetry_equiv_pos_as_xyz
'x, y, z'
_cell_length_a     61.580868
_cell_length_b     61.607406
_cell_length_c     55.15991
_cell_angle_alpha  89.958105
_cell_angle_beta   90.003935
_cell_angle_gamma 89.986393
loop_
_atom_site_label
_atom_site_type_symbol
_atom_site_fract_x
_atom_site_fract_y
_atom_site_fract_z
_atom_type_partial_charge
Ho0 Ho 0.15248 0.11517 0.28227 0.0
Ho1 Ho 0.10479 0.12613 0.29166 0.0
C2 C 0.12357 0.13639 0.23854 0.0
C3 C 0.18949 0.1016 0.26596 0.0
C4 C 0.20547 0.1071 0.24692 0.0
C5 C 0.20002 0.10678 0.22217 0.0
C6 C 0.21592 0.11067 0.20456 0.0
C7 C 0.23751 0.11508 0.21134 0.0
C8 C 0.24275 0.116 0.2361 0.0
C9 C 0.22691 0.11194 0.25368 0.0
C10 C 0.14593 0.15301 0.3056 0.0
C11 C 0.13317 0.09987 0.33292 0.0
C12 C 0.06952 0.14185 0.31063 0.0
C13 C 0.05441 0.13811 0.33127 0.0
C14 C 0.06016 0.14325 0.35531 0.0
C15 C 0.04507 0.14096 0.37422 0.0
C16 C 0.0239 0.13343 0.36956 0.0
C17 C 0.01825 0.12831 0.34549 0.0
C18 C 0.03326 0.13068 0.32664 0.0
C19 C 0.11164 0.08607 0.2725 0.0
O20 O 0.14141 0.12628 0.24559 0.0
O21 O 0.10735 0.14039 0.25376 0.0
O22 O 0.18757 0.11551 0.2837 0.0
O23 O 0.17079 0.09353 0.25912 0.0
O24 O 0.16239 0.14034 0.309 0.0
O25 O 0.13435 0.14595 0.28829 0.0
O26 O 0.11563 0.11169 0.32799 0.0
O27 O 0.14835 0.09638 0.31645 0.0
O28 O 0.06961 0.12744 0.29322 0.0
O29 O 0.089 0.14905 0.31558 0.0
O30 O 0.09439 0.09769 0.26851 0.0
O31 O 0.1232 0.09573 0.28785 0.0
H32 H 0.1836 0.10324 0.21637 0.0
H33 H 0.21135 0.11009 0.18561 0.0
H34 H 0.25926 0.11913 0.24189 0.0
H35 H 0.23152 0.11219 0.27264 0.0
H36 H 0.07626 0.14923 0.35955 0.0
H37 H 0.05005 0.14489 0.39253 0.0
H38 H 1.00201 0.12284 0.34109 0.0
H39 H 0.02819 0.12697 0.3083 0.0
Ho40 Ho 0.1449 0.90271 0.53206 0.0
Ho41 Ho 0.13229 0.85525 0.54146 0.0
C42 C 0.12506 0.87377 0.48759 0.0
C43 C 0.16097 0.93906 0.51668 0.0
C44 C 0.15641 0.95624 0.49893 0.0
C45 C 0.16877 0.97529 0.49972 0.0
C46 C 0.16485 0.99206 0.48327 0.0
C47 C 0.14847 0.99011 0.46562 0.0
C48 C 0.13588 0.97103 0.46507 0.0
C49 C 0.13984 0.95418 0.48161 0.0
C50 C 0.1057 0.89735 0.55307 0.0
C51 C 0.1581 0.88302 0.58347 0.0
C52 C 0.11512 0.82055 0.56013 0.0
C53 C 0.11872 0.80502 0.58042 0.0
C54 C 0.11381 0.81048 0.60461 0.0
C55 C 0.11618 0.79514 0.62325 0.0
C56 C 0.12354 0.77399 0.61817 0.0
C57 C 0.12834 0.7686 0.59395 0.0
C58 C 0.12589 0.78387 0.57536 0.0
C59 C 0.17323 0.86099 0.52417 0.0
O60 O 0.13561 0.89127 0.49489 0.0
O61 O 0.11925 0.85824 0.50302 0.0
O62 O 0.14743 0.93759 0.53482 0.0
O63 O 0.16664 0.92009 0.50809 0.0
O64 O 0.11828 0.91385 0.55649 0.0
O65 O 0.11351 0.8853 0.53661 0.0
O66 O 0.14588 0.86584 0.57826 0.0
O67 O 0.16254 0.89794 0.56697 0.0
O68 O 0.12906 0.82019 0.54223 0.0
O69 O 0.10904 0.84028 0.56566 0.0
O70 O 0.16154 0.84382 0.52011 0.0
O71 O 0.16319 0.87292 0.53883 0.0
H72 H 0.18149 0.97721 0.51312 0.0
H73 H 0.17461 0.00664 0.48449 0.0
H74 H 0.12328 0.96893 0.45158 0.0
H75 H 0.13009 0.93956 0.48083 0.0
H76 H 0.10802 0.82657 0.60918 0.0
H77 H 0.11248 0.79991 0.64169 0.0
H78 H 0.13366 0.75239 0.58924 0.0
H79 H 0.12941 0.779 0.5569 0.0
Ho80 Ho 0.36138 0.89285 0.77865 0.0
Ho81 Ho 0.40876 0.88284 0.79169 0.0
C82 C 0.39318 0.8722 0.73731 0.0
C83 C 0.32529 0.9066 0.76008 0.0
C84 C 0.30866 0.90057 0.74185 0.0
C85 C 0.30696 0.91258 0.7203 0.0
C86 C 0.28983 0.9089 0.70419 0.0
C87 C 0.27386 0.89323 0.70932 0.0
C88 C 0.27594 0.8807 0.73051 0.0
C89 C 0.29311 0.88437 0.74664 0.0
C90 C 0.36736 0.85483 0.80194 0.0
C91 C 0.37802 0.90866 0.83059 0.0
C92 C 0.44328 0.867 0.81224 0.0
C93 C 0.45705 0.87001 0.83391 0.0
C94 C 0.47037 0.85288 0.8416 0.0
C95 C 0.48448 0.85551 0.86129 0.0
C96 C 0.48562 0.87541 0.87373 0.0
C97 C 0.47179 0.89243 0.8663 0.0
C98 C 0.45761 0.88974 0.8466 0.0
C99 C 0.4023 0.92282 0.77193 0.0
O100 O 0.37429 0.88109 0.74283 0.0
O101 O 0.40879 0.86932 0.75358 0.0
O102 O 0.32643 0.89478 0.77975 0.0
O103 O 0.34443 0.91254 0.7521 0.0
O104 O 0.35018 0.86679 0.80386 0.0
O105 O 0.37985 0.86255 0.78585 0.0
O106 O 0.39571 0.89669 0.82719 0.0
O107 O 0.36397 0.91209 0.81285 0.0
O108 O 0.44371 0.88237 0.79589 0.0
O109 O 0.42372 0.85947 0.81589 0.0
O110 O 0.41999 0.91153 0.76941 0.0
O111 O 0.38996 0.91286 0.78629 0.0
H112 H 0.31858 0.92526 0.71617 0.0
H113 H 0.28894 0.91859 0.68782 0.0
H114 H 0.26384 0.86863 0.73512 0.0
H115 H 0.29379 0.87492 0.76319 0.0
H116 H 0.47016 0.83751 0.83206 0.0
H117 H 0.49501 0.84214 0.86623 0.0
H118 H 0.47198 0.90788 0.87564 0.0
H119 H 0.44732 0.90314 0.84109 0.0
Ho120 Ho 0.36504 0.11065 0.02718 0.0
Ho121 Ho 0.37583 0.15764 0.04118 0.0
C122 C 0.38699 0.14245 0.98675 0.0
C123 C 0.35092 0.075 1.00803 0.0
C124 C 0.35718 0.05836 0.98994 0.0
C125 C 0.34936 0.05959 0.96605 0.0
C126 C 0.35321 0.04271 0.94968 0.0
C127 C 0.36486 0.02413 0.95685 0.0
C128 C 0.37321 0.02316 0.98053 0.0
C129 C 0.36933 0.04003 0.99692 0.0
C130 C 0.403 0.11565 0.0509 0.0
C131 C 0.34852 0.12691 0.079 0.0
C132 C 0.39168 0.19143 0.0631 0.0
C133 C 0.38734 0.20588 0.08418 0.0
C134 C 0.39824 0.20268 0.10634 0.0
C135 C 0.39548 0.21724 0.12564 0.0
C136 C 0.38182 0.23543 0.12325 0.0
C137 C 0.37093 0.23856 0.10106 0.0
C138 C 0.37368 0.22404 0.0818 0.0
C139 C 0.33599 0.15229 1.02078 0.0
O140 O 0.37731 0.12383 0.9917 0.0
O141 O 0.39027 0.15761 1.00343 0.0
O142 O 0.36225 0.07576 0.02807 0.0
O143 O 0.3456 0.09432 1.00002 0.0
O144 O 0.39073 0.09868 0.05247 0.0
O145 O 0.3956 0.12847 0.03497 0.0
O146 O 0.36107 0.14429 0.07621 0.0
O147 O 0.34508 0.11329 0.06087 0.0
O148 O 0.37843 0.19256 0.04459 0.0
O149 O 0.39775 0.1715 0.06771 0.0
O150 O 0.34741 0.16996 1.01911 0.0
O151 O 0.34561 0.13954 0.03494 0.0
H152 H 0.33979 0.07336 0.96012 0.0
H153 H 0.3468 0.04409 0.93146 0.0
H154 H 0.38203 0.00899 0.9867 0.0
H155 H 0.37534 0.03839 1.01529 0.0
H156 H 0.40915 0.18905 0.10869 0.0
H157 H 0.40401 0.21418 0.14247 0.0
H158 H 0.36061 0.25258 0.0983 0.0
H159 H 0.36536 0.2273 0.06489 0.0
Ho160 Ho 0.15298 0.89385 0.26084 0.0
Ho161 Ho 0.1051 0.88316 0.25167 0.0
C162 C 0.12364 0.87415 0.3052 0.0
C163 C 0.19021 0.90705 0.27693 0.0
C164 C 0.20621 0.90162 0.29604 0.0
C165 C 0.20154 0.90454 0.32078 0.0
C166 C 0.21755 0.90088 0.33831 0.0
C167 C 0.23854 0.89416 0.33152 0.0
C168 C 0.24298 0.89067 0.30685 0.0
C169 C 0.22702 0.89447 0.28931 0.0
C170 C 0.146 0.85571 0.23827 0.0
C171 C 0.13359 0.90902 0.21013 0.0
C172 C 0.06992 0.86702 0.23288 0.0
C173 C 0.05578 0.86991 0.21143 0.0
C174 C 0.04278 0.85255 0.20369 0.0
C175 C 0.02859 0.85499 0.18402 0.0
C176 C 0.02702 0.87492 0.17164 0.0
C177 C 0.04049 0.89217 0.17916 0.0
C178 C 0.05476 0.88968 0.19882 0.0
C179 C 0.11229 0.92332 0.27028 0.0
O180 O 0.1416 0.88384 0.29778 0.0
O181 O 0.10741 0.86985 0.29006 0.0
O182 O 0.18806 0.89297 0.25938 0.0
O183 O 0.17164 0.91548 0.28365 0.0
O184 O 0.16254 0.86818 0.23452 0.0
O185 O 0.13454 0.86319 0.25546 0.0
O186 O 0.11605 0.89723 0.21517 0.0
O187 O 0.14883 0.9125 0.22655 0.0
O188 O 0.07001 0.88261 0.24897 0.0
O189 O 0.08932 0.85925 0.22885 0.0
O190 O 0.0949 0.91194 0.27439 0.0
O191 O 0.12379 0.91339 0.25507 0.0
H192 H 0.18565 0.90998 0.3266 0.0
H193 H 0.21356 0.90348 0.35721 0.0
H194 H 0.25903 0.88573 0.301 0.0
H195 H 0.23111 0.89225 0.27037 0.0
H196 H 0.04336 0.83713 0.21313 0.0
H197 H 0.01835 0.84142 0.179 0.0
H198 H 0.03999 0.90766 0.16988 0.0
H199 H 0.06481 0.90325 0.20432 0.0
Ho200 Ho 0.36435 0.90107 0.5161 0.0
Ho201 Ho 0.37641 0.854 0.50293 0.0
C202 C 0.3864 0.87014 0.5574 0.0
C203 C 0.34788 0.93634 0.53368 0.0
C204 C 0.35237 0.95363 0.55126 0.0
C205 C 0.37041 0.95287 0.56678 0.0
C206 C 0.37427 0.96991 0.58307 0.0
C207 C 0.3601 0.98785 0.58405 0.0
C208 C 0.34222 0.98848 0.56819 0.0
C209 C 0.33841 0.97153 0.552 0.0
C210 C 0.40289 0.89655 0.49345 0.0
C211 C 0.34953 0.88375 0.4639 0.0
C212 C 0.39393 0.82038 0.48238 0.0
C213 C 0.39082 0.80629 0.46107 0.0
C214 C 0.40787 0.79277 0.45359 0.0
C215 C 0.40513 0.77854 0.43406 0.0
C216 C 0.38521 0.77749 0.4216 0.0
C217 C 0.3683 0.79152 0.42883 0.0
C218 C 0.37109 0.80581 0.44836 0.0
C219 C 0.3361 0.85895 0.52226 0.0
O220 O 0.37655 0.88861 0.552 0.0
O221 O 0.39003 0.85478 0.54102 0.0
O222 O 0.36039 0.93584 0.51456 0.0
O223 O 0.3437 0.917 0.54238 0.0
O224 O 0.39046 0.9134 0.49151 0.0
O225 O 0.3953 0.88372 0.50926 0.0
O226 O 0.36219 0.86654 0.4673 0.0
O227 O 0.3455 0.89756 0.48169 0.0
O228 O 0.37929 0.81913 0.4995 0.0
O229 O 0.39991 0.84036 0.47802 0.0
O230 O 0.34772 0.84144 0.52445 0.0
O231 O 0.34582 0.87168 0.50816 0.0
H232 H 0.38141 0.93915 0.56633 0.0
H233 H 0.38808 0.96886 0.59518 0.0
H234 H 0.33121 1.00219 0.56815 0.0
H235 H 0.32453 0.97244 0.53997 0.0
H236 H 0.42324 0.79296 0.46315 0.0
H237 H 0.41841 0.76785 0.42924 0.0
H238 H 0.35285 0.79138 0.41946 0.0
H239 H 0.35779 0.81627 0.45372 0.0
Ho240 Ho 0.36007 0.11523 0.7658 0.0
Ho241 Ho 0.40746 0.12603 0.75279 0.0
C242 C 0.39122 0.1369 0.80702 0.0
C243 C 0.32436 0.09942 0.78315 0.0
C244 C 0.30692 0.10359 0.80069 0.0
C245 C 0.28929 0.0893 0.80128 0.0
C246 C 0.2721 0.09276 0.81728 0.0
C247 C 0.27221 0.11062 0.83315 0.0
C248 C 0.28988 0.12514 0.83235 0.0
C249 C 0.30716 0.12163 0.81622 0.0
C250 C 0.3654 0.15335 0.74252 0.0
C251 C 0.37714 0.1001 0.71362 0.0
C252 C 0.44185 0.14186 0.73199 0.0
C253 C 0.45686 0.13756 0.71138 0.0
C254 C 0.4523 0.14526 0.68787 0.0
C255 C 0.46734 0.14255 0.66899 0.0
C256 C 0.48734 0.13213 0.67315 0.0
C257 C 0.49184 0.12447 0.69668 0.0
C258 C 0.47686 0.1272 0.71551 0.0
C259 C 0.40141 0.08575 0.77201 0.0
O260 O 0.37259 0.12739 0.80163 0.0
O261 O 0.40673 0.14009 0.79068 0.0
O262 O 0.32517 0.11236 0.76439 0.0
O263 O 0.34359 0.09465 0.79179 0.0
O264 O 0.34827 0.14128 0.74096 0.0
O265 O 0.37813 0.14578 0.75849 0.0
O266 O 0.39482 0.11201 0.7172 0.0
O267 O 0.36301 0.09653 0.73123 0.0
O268 O 0.4425 0.12849 0.75043 0.0
O269 O 0.42205 0.14805 0.72687 0.0
O270 O 0.41915 0.09696 0.77432 0.0
O271 O 0.38898 0.09586 0.75793 0.0
H272 H 0.28875 0.07541 0.78923 0.0
H273 H 0.25862 0.08148 0.81706 0.0
H274 H 0.29053 0.13896 0.84445 0.0
H275 H 0.32066 0.1329 0.81588 0.0
H276 H 0.43719 0.1536 0.68406 0.0
H277 H 0.46323 0.14853 0.6511 0.0
H278 H 0.50721 0.11674 0.70074 0.0
H279 H 0.48114 0.12149 0.73347 0.0
Ho280 Ho 0.14525 0.10823 1.0129 0.0
Ho281 Ho 0.13209 0.15546 1.0019 0.0
C282 C 0.12628 0.13855 0.05655 0.0
C283 C 0.16182 0.07232 0.02895 0.0
C284 C 0.15752 0.05487 0.04647 0.0
C285 C 0.17098 0.03658 0.0463 0.0
C286 C 0.16741 0.01957 0.06254 0.0
C287 C 0.15029 0.02053 0.07939 0.0
C288 C 0.13657 0.03884 0.0793 0.0
C289 C 0.14018 0.05593 0.06295 0.0
C290 C 0.10563 0.11282 0.99249 0.0
C291 C 0.15813 0.12687 0.9608 0.0
C292 C 0.11405 0.18937 0.98244 0.0
C293 C 0.11744 0.20403 0.96157 0.0
C294 C 0.10039 0.21746 0.95386 0.0
C295 C 0.10334 0.232 0.9346 0.0
C296 C 0.12348 0.23347 0.92264 0.0
C297 C 0.14043 0.21959 0.93015 0.0
C298 C 0.13742 0.20499 0.94939 0.0
C299 C 0.17318 0.15047 1.01901 0.0
O300 O 0.13712 0.12103 0.04984 0.0
O301 O 0.11952 0.15325 0.0406 0.0
O302 O 0.14869 0.07341 1.01041 0.0
O303 O 0.16667 0.09142 0.03775 0.0
O304 O 0.11815 0.09619 0.98963 0.0
O305 O 0.11373 0.1254 1.00824 0.0
O306 O 0.14564 0.144 0.96539 0.0
O307 O 0.16282 0.11251 0.97784 0.0
O308 O 0.12835 0.19037 0.99995 0.0
O309 O 0.10848 0.16943 0.97731 0.0
O310 O 0.16149 0.16776 0.02242 0.0
O311 O 0.16309 0.13803 1.00494 0.0
H312 H 0.18431 0.03542 0.03354 0.0
H313 H 0.17805 0.00559 0.06179 0.0
H314 H 0.12335 0.04017 0.09215 0.0
H315 H 0.12957 0.06995 0.06323 0.0
H316 H 0.08482 0.21692 0.96298 0.0
H317 H 0.09001 0.24255 0.92956 0.0
H318 H 0.15606 0.22002 0.92117 0.0
H319 H 0.15074 0.19461 0.9549 0.0
Ho320 Ho 0.90633 0.88371 0.75299 0.0
Ho321 Ho 0.85902 0.8961 0.76372 0.0
C322 C 0.87789 0.91111 0.71269 0.0
C323 C 0.94051 0.86653 0.73311 0.0
C324 C 0.95483 0.86986 0.71193 0.0
C325 C 0.96822 0.85281 0.70416 0.0
C326 C 0.98251 0.85568 0.68465 0.0
C327 C 0.98374 0.87573 0.67247 0.0
C328 C 0.96988 0.89267 0.68004 0.0
C329 C 0.95555 0.88975 0.69954 0.0
C330 C 0.90108 0.92379 0.77245 0.0
C331 C 0.88816 0.87378 0.80656 0.0
C332 C 0.82279 0.91069 0.78101 0.0
C333 C 0.8066 0.90496 0.79976 0.0
C334 C 0.81198 0.90433 0.82452 0.0
C335 C 0.79594 0.90029 0.84191 0.0
C336 C 0.77427 0.89666 0.8349 0.0
C337 C 0.76908 0.89665 0.81011 0.0
C338 C 0.78506 0.90088 0.79274 0.0
C339 C 0.86408 0.85799 0.74048 0.0
O340 O 0.89514 0.8987 0.71703 0.0
O341 O 0.8632 0.915 0.72961 0.0
O342 O 0.94132 0.88116 0.75026 0.0
O343 O 0.92067 0.86027 0.72848 0.0
O344 O 0.91822 0.91182 0.77572 0.0
O345 O 0.88881 0.91453 0.75749 0.0
O346 O 0.87044 0.88436 0.79999 0.0
O347 O 0.90406 0.86953 0.79099 0.0
O348 O 0.82397 0.89767 0.76236 0.0
O349 O 0.84188 0.91747 0.78825 0.0
O350 O 0.84778 0.87097 0.73757 0.0
O351 O 0.8762 0.86492 0.75736 0.0
H352 H 0.96787 0.83731 0.71344 0.0
H353 H 0.99304 0.84236 0.67959 0.0
H354 H 0.97013 0.90823 0.6709 0.0
H355 H 0.94519 0.90307 0.70509 0.0
H356 H 0.82847 0.90728 0.83051 0.0
H357 H 0.80046 0.90017 0.86089 0.0
H358 H 0.7525 0.89413 0.80417 0.0
H359 H 0.78049 0.90136 0.77378 0.0
Ho360 Ho 0.87782 0.1569 0.50346 0.0
Ho361 Ho 0.86497 0.10958 0.51442 0.0
C362 C 0.85024 0.1288 0.46325 0.0
C363 C 0.89539 0.19089 0.48355 0.0
C364 C 0.89238 0.20514 0.46222 0.0
C365 C 0.90959 0.21839 0.45459 0.0
C366 C 0.90703 0.23262 0.43496 0.0
C367 C 0.88711 0.23395 0.42251 0.0
C368 C 0.87 0.22024 0.42994 0.0
C369 C 0.87262 0.20596 0.44957 0.0
C370 C 0.83748 0.15193 0.52261 0.0
C371 C 0.88752 0.13862 0.55718 0.0
C372 C 0.84871 0.07375 0.53101 0.0
C373 C 0.85346 0.05638 0.5485 0.0
C374 C 0.83996 0.03812 0.54895 0.0
C375 C 0.844 0.02117 0.56513 0.0
C376 C 0.86165 0.02214 0.58131 0.0
C377 C 0.87538 0.04043 0.58058 0.0
C378 C 0.87131 0.05744 0.56427 0.0
C379 C 0.9032 0.1142 0.49115 0.0
O380 O 0.86298 0.14582 0.46744 0.0
O381 O 0.84607 0.11434 0.48034 0.0
O382 O 0.88057 0.19186 0.50051 0.0
O383 O 0.90162 0.17101 0.47916 0.0
O384 O 0.84946 0.16906 0.52576 0.0
O385 O 0.84691 0.13954 0.50792 0.0
O386 O 0.87706 0.12082 0.55064 0.0
O387 O 0.89169 0.15457 0.5416 0.0
O388 O 0.86144 0.07477 0.5121 0.0
O389 O 0.84401 0.0929 0.53986 0.0
O390 O 0.89032 0.09777 0.48876 0.0
O391 O 0.89625 0.12653 0.50784 0.0
H392 H 0.925 0.21797 0.46407 0.0
H393 H 0.92048 0.24304 0.43002 0.0
H394 H 0.85453 0.22055 0.42061 0.0
H395 H 0.85916 0.19572 0.45501 0.0
H396 H 0.82624 0.03695 0.53671 0.0
H397 H 0.83333 0.0072 0.56484 0.0
H398 H 0.889 0.04178 0.59291 0.0
H399 H 0.882 0.07139 0.56401 0.0
Ho400 Ho 0.60284 0.12659 0.25291 0.0
Ho401 Ho 0.6503 0.11595 0.2655 0.0
C402 C 0.63285 0.10011 0.21373 0.0
C403 C 0.56851 0.14258 0.23215 0.0
C404 C 0.55358 0.13832 0.21146 0.0
C405 C 0.55749 0.14744 0.18845 0.0
C406 C 0.54254 0.14473 0.1695 0.0
C407 C 0.52326 0.1329 0.17309 0.0
C408 C 0.51941 0.1238 0.19612 0.0
C409 C 0.53431 0.12652 0.21503 0.0
C410 C 0.60887 0.08644 0.27225 0.0
C411 C 0.61931 0.13729 0.30708 0.0
C412 C 0.68639 0.10071 0.28257 0.0
C413 C 0.70353 0.105 0.30044 0.0
C414 C 0.72112 0.09067 0.3016 0.0
C415 C 0.73797 0.09421 0.318 0.0
C416 C 0.73758 0.11219 0.33371 0.0
C417 C 0.71996 0.12675 0.33232 0.0
C418 C 0.70301 0.12315 0.31579 0.0
C419 C 0.64439 0.154 0.24216 0.0
O420 O 0.61517 0.11206 0.21736 0.0
O421 O 0.6472 0.09689 0.2312 0.0
O422 O 0.56782 0.12919 0.25057 0.0
O423 O 0.58833 0.14873 0.22706 0.0
O424 O 0.59117 0.09772 0.27461 0.0
O425 O 0.62136 0.09643 0.2581 0.0
O426 O 0.63796 0.1279 0.30149 0.0
O427 O 0.60368 0.14049 0.29088 0.0
O428 O 0.68528 0.11408 0.26421 0.0
O429 O 0.66726 0.09516 0.2909 0.0
O430 O 0.66145 0.14188 0.24 0.0
O431 O 0.63209 0.14638 0.25847 0.0
H432 H 0.57201 0.15691 0.18512 0.0
H433 H 0.54615 0.15184 0.152 0.0
H434 H 0.50458 0.11494 0.19977 0.0
H435 H 0.53052 0.11965 0.23261 0.0
H436 H 0.72186 0.07669 0.2897 0.0
H437 H 0.75143 0.08289 0.31826 0.0
H438 H 0.71909 0.14065 0.34428 0.0
H439 H 0.68953 0.13444 0.31502 0.0
Ho440 Ho 0.63451 0.85209 1.00315 0.0
Ho441 Ho 0.64578 0.89934 1.01684 0.0
C442 C 0.66123 0.88251 0.96463 0.0
C443 C 0.61748 0.81834 0.98228 0.0
C444 C 0.6203 0.8042 0.96089 0.0
C445 C 0.60282 0.79137 0.95317 0.0
C446 C 0.60515 0.77704 0.93365 0.0
C447 C 0.62511 0.77518 0.92139 0.0
C448 C 0.64251 0.78849 0.92888 0.0
C449 C 0.64012 0.80288 0.94841 0.0
C450 C 0.67466 0.85747 0.02273 0.0
C451 C 0.62392 0.86788 0.05769 0.0
C452 C 0.66173 0.93476 0.03469 0.0
C453 C 0.65764 0.95176 0.05276 0.0
C454 C 0.67318 0.96811 0.05564 0.0
C455 C 0.66981 0.98491 0.07215 0.0
C456 C 0.65078 0.98568 0.08624 0.0
C457 C 0.63508 0.96927 0.08319 0.0
C458 C 0.63851 0.95238 0.06657 0.0
C459 C 0.6076 0.89428 0.99356 0.0
O460 O 0.64874 0.86513 0.96775 0.0
O461 O 0.66489 0.89627 0.98257 0.0
O462 O 0.63231 0.81719 0.99921 0.0
O463 O 0.61118 0.83825 0.97813 0.0
O464 O 0.66334 0.83975 0.0246 0.0
O465 O 0.66479 0.87025 1.00881 0.0
O466 O 0.63343 0.88655 0.05248 0.0
O467 O 0.62074 0.85248 0.04123 0.0
O468 O 0.64858 0.93424 1.01609 0.0
O469 O 0.66665 0.9154 0.04284 0.0
O470 O 0.61982 0.9113 0.99181 0.0
O471 O 0.6152 0.88157 1.00949 0.0
H472 H 0.58737 0.79216 0.96254 0.0
H473 H 0.59148 0.76693 0.92867 0.0
H474 H 0.65803 0.78774 0.91967 0.0
H475 H 0.65379 0.81279 0.95394 0.0
H476 H 0.68796 0.96797 0.04496 0.0
H477 H 0.68206 0.99744 0.07369 0.0
H478 H 0.62034 0.9693 0.0939 0.0
H479 H 0.6263 0.93985 0.06448 0.0
Ho480 Ho 0.90549 0.12723 0.79394 0.0
Ho481 Ho 0.85845 0.11451 0.78194 0.0
C482 C 0.87598 0.10092 0.83421 0.0
C483 C 0.93909 0.14518 0.81417 0.0
C484 C 0.9536 0.14194 0.8352 0.0
C485 C 0.96642 0.15929 0.84331 0.0
C486 C 0.98088 0.15655 0.86268 0.0
C487 C 0.98288 0.13633 0.87437 0.0
C488 C 0.9696 0.11907 0.86647 0.0
C489 C 0.95508 0.12186 0.84711 0.0
C490 C 0.90075 0.08638 0.77642 0.0
C491 C 0.8897 0.13315 0.73896 0.0
C492 C 0.82226 0.09981 0.7645 0.0
C493 C 0.80601 0.10525 0.74567 0.0
C494 C 0.81071 0.10322 0.72083 0.0
C495 C 0.79452 0.10684 0.70349 0.0
C496 C 0.77334 0.11262 0.71059 0.0
C497 C 0.76884 0.1152 0.73538 0.0
C498 C 0.78497 0.11143 0.75272 0.0
C499 C 0.86319 0.15392 0.80278 0.0
O500 O 0.89325 0.11338 0.83005 0.0
O501 O 0.86183 0.09651 0.81686 0.0
O502 O 0.94038 0.13093 0.79665 0.0
O503 O 0.91905 0.15064 0.81902 0.0
O504 O 0.91815 0.09802 0.77352 0.0
O505 O 0.88798 0.09631 0.79028 0.0
O506 O 0.87211 0.12224 0.74526 0.0
O507 O 0.90404 0.13998 0.75525 0.0
O508 O 0.82339 0.11295 0.78304 0.0
O509 O 0.84139 0.09306 0.7574 0.0
O510 O 0.84664 0.14132 0.80575 0.0
O511 O 0.87573 0.14586 0.78698 0.0
H512 H 0.96548 0.17495 0.8344 0.0
H513 H 0.99096 0.17014 0.86801 0.0
H514 H 0.97044 0.10335 0.87523 0.0
H515 H 0.94516 0.1083 0.84129 0.0
H516 H 0.82675 0.0985 0.71476 0.0
H517 H 0.79854 0.10495 0.68449 0.0
H518 H 0.75264 0.11939 0.74144 0.0
H519 H 0.78085 0.11292 0.77175 0.0
Ho520 Ho 0.63414 0.15728 0.54185 0.0
Ho521 Ho 0.64598 0.11021 0.52792 0.0
C522 C 0.66067 0.12678 0.58051 0.0
C523 C 0.61669 0.19069 0.56296 0.0
C524 C 0.61976 0.20474 0.58437 0.0
C525 C 0.60218 0.21704 0.5929 0.0
C526 C 0.60477 0.2313 0.61244 0.0
C527 C 0.62506 0.23361 0.62389 0.0
C528 C 0.64255 0.22081 0.61562 0.0
C529 C 0.63991 0.20648 0.59608 0.0
C530 C 0.6746 0.15237 0.52298 0.0
C531 C 0.62434 0.14177 0.48703 0.0
C532 C 0.66238 0.07507 0.50989 0.0
C533 C 0.65831 0.05826 0.4916 0.0
C534 C 0.67396 0.04208 0.48828 0.0
C535 C 0.67052 0.02542 0.4716 0.0
C536 C 0.65132 0.02463 0.45781 0.0
C537 C 0.63553 0.04089 0.46128 0.0
C538 C 0.63902 0.05764 0.47806 0.0
C539 C 0.60753 0.11476 0.55076 0.0
O540 O 0.64816 0.14414 0.57732 0.0
O541 O 0.66463 0.11312 0.56254 0.0
O542 O 0.6312 0.19213 0.54572 0.0
O543 O 0.6108 0.17067 0.56718 0.0
O544 O 0.6632 0.17005 0.52115 0.0
O545 O 0.66461 0.13939 0.53654 0.0
O546 O 0.63395 0.12315 0.49222 0.0
O547 O 0.62081 0.15703 0.50357 0.0
O548 O 0.6492 0.07535 0.52846 0.0
O549 O 0.6672 0.09453 0.50198 0.0
O550 O 0.61985 0.09779 0.55239 0.0
O551 O 0.61517 0.12768 0.53507 0.0
H552 H 0.58647 0.21589 0.58413 0.0
H553 H 0.59101 0.24102 0.61806 0.0
H554 H 0.65833 0.22191 0.62419 0.0
H555 H 0.65365 0.19697 0.58993 0.0
H556 H 0.68885 0.04222 0.49875 0.0
H557 H 0.68285 0.013 0.46971 0.0
H558 H 0.62066 0.04085 0.45081 0.0
H559 H 0.62673 0.07003 0.48049 0.0
Ho560 Ho 0.60157 0.8838 0.29165 0.0
Ho561 Ho 0.64872 0.89455 0.27786 0.0
C562 C 0.63208 0.91095 0.32968 0.0
C563 C 0.56768 0.8674 0.31292 0.0
C564 C 0.55367 0.87084 0.3343 0.0
C565 C 0.54062 0.8537 0.34253 0.0
C566 C 0.52638 0.85666 0.36203 0.0
C567 C 0.52483 0.87688 0.37374 0.0
C568 C 0.53835 0.89393 0.36574 0.0
C569 C 0.55266 0.89093 0.34623 0.0
C570 C 0.60707 0.92366 0.27138 0.0
C571 C 0.61706 0.87258 0.2373 0.0
C572 C 0.68437 0.90883 0.2588 0.0
C573 C 0.70114 0.90284 0.24072 0.0
C574 C 0.7021 0.91394 0.21852 0.0
C575 C 0.71933 0.91044 0.2025 0.0
C576 C 0.73613 0.89587 0.20838 0.0
C577 C 0.73479 0.88419 0.23023 0.0
C578 C 0.71753 0.88768 0.24627 0.0
C579 C 0.64365 0.85678 0.30192 0.0
O580 O 0.61458 0.89861 0.32673 0.0
O581 O 0.64593 0.91429 0.31172 0.0
O582 O 0.56666 0.88194 0.29567 0.0
O583 O 0.58755 0.86096 0.31713 0.0
O584 O 0.58941 0.91224 0.26953 0.0
O585 O 0.61982 0.91399 0.28551 0.0
O586 O 0.63579 0.88196 0.24243 0.0
O587 O 0.60163 0.86966 0.25379 0.0
O588 O 0.6836 0.89746 0.27881 0.0
O589 O 0.66505 0.91406 0.25069 0.0
O590 O 0.66066 0.86904 0.30332 0.0
O591 O 0.6309 0.86406 0.28582 0.0
H592 H 0.54118 0.83807 0.33357 0.0
H593 H 0.51609 0.84324 0.36742 0.0
H594 H 0.53784 0.90964 0.37452 0.0
H595 H 0.56274 0.90433 0.34028 0.0
H596 H 0.68982 0.92581 0.21379 0.0
H597 H 0.71967 0.91944 0.18562 0.0
H598 H 0.74753 0.87299 0.2354 0.0
H599 H 0.71743 0.87898 0.26333 0.0
Ho600 Ho 0.87876 0.85431 0.04286 0.0
Ho601 Ho 0.86527 0.90125 0.03161 0.0
C602 C 0.85266 0.88289 0.08384 0.0
C603 C 0.89694 0.82046 0.06234 0.0
C604 C 0.89361 0.80561 0.08304 0.0
C605 C 0.91055 0.79179 0.09018 0.0
C606 C 0.90769 0.77712 0.10933 0.0
C607 C 0.88777 0.77593 0.12177 0.0
C608 C 0.87092 0.79014 0.11478 0.0
C609 C 0.87383 0.80486 0.09563 0.0
C610 C 0.83763 0.85868 0.02569 0.0
C611 C 0.88468 0.87101 0.98821 0.0
C612 C 0.84862 0.93712 1.01544 0.0
C613 C 0.85247 0.95434 0.99749 0.0
C614 C 0.8377 0.97156 0.99614 0.0
C615 C 0.84095 0.98848 0.97972 0.0
C616 C 0.85908 0.98855 0.96418 0.0
C617 C 0.87403 0.97127 0.96572 0.0
C618 C 0.87073 0.95426 0.98225 0.0
C619 C 0.90485 0.89699 0.05234 0.0
O620 O 0.86533 0.86588 0.07933 0.0
O621 O 0.84776 0.89709 0.06671 0.0
O622 O 0.88277 0.81942 0.04471 0.0
O623 O 0.90225 0.84043 0.06767 0.0
O624 O 0.84964 0.84162 1.02228 0.0
O625 O 0.84745 0.87139 0.03972 0.0
O626 O 0.87347 0.88834 0.99473 0.0
O627 O 0.89165 0.85656 1.00432 0.0
O628 O 0.8623 0.93614 0.03349 0.0
O629 O 0.84334 0.91794 1.00715 0.0
O630 O 0.89208 0.91343 0.05527 0.0
O631 O 0.89695 0.88444 0.03645 0.0
H632 H 0.92596 0.79215 0.08071 0.0
H633 H 0.92093 0.76631 0.11394 0.0
H634 H 0.85546 0.78991 0.12413 0.0
H635 H 0.8606 0.81553 0.09054 0.0
H636 H 0.82362 0.97197 1.00793 0.0
H637 H 0.82931 1.00166 0.97936 0.0
H638 H 0.88805 0.97072 0.95389 0.0
H639 H 0.88235 0.94107 0.98314 0.0
Ho640 Ho 0.65057 0.61459 0.77907 0.0
Ho641 Ho 0.60327 0.62576 0.7923 0.0
C642 C 0.6194 0.63637 0.7379 0.0
C643 C 0.68611 0.59869 0.7614 0.0
C644 C 0.70307 0.60278 0.74326 0.0
C645 C 0.71996 0.58772 0.74106 0.0
C646 C 0.7367 0.59113 0.72446 0.0
C647 C 0.73688 0.6097 0.70961 0.0
C648 C 0.71994 0.62494 0.712 0.0
C649 C 0.7031 0.62147 0.72871 0.0
C650 C 0.6455 0.6527 0.80239 0.0
C651 C 0.63355 0.59916 0.83121 0.0
C652 C 0.56918 0.64185 0.81345 0.0
C653 C 0.55419 0.6374 0.83406 0.0
C654 C 0.55878 0.64494 0.85762 0.0
C655 C 0.54381 0.642 0.87653 0.0
C656 C 0.52387 0.63148 0.87237 0.0
C657 C 0.51934 0.624 0.84879 0.0
C658 C 0.53424 0.62698 0.82992 0.0
C659 C 0.60891 0.58556 0.77296 0.0
O660 O 0.638 0.62678 0.74327 0.0
O661 O 0.60395 0.63972 0.75428 0.0
O662 O 0.68551 0.61197 0.77985 0.0
O663 O 0.66678 0.59357 0.75334 0.0
O664 O 0.66251 0.64045 0.80405 0.0
O665 O 0.63272 0.64526 0.78641 0.0
O666 O 0.61595 0.61127 0.82775 0.0
O667 O 0.64766 0.5957 0.81354 0.0
O668 O 0.56829 0.62879 0.79477 0.0
O669 O 0.58908 0.64769 0.8186 0.0
O670 O 0.59118 0.59684 0.77088 0.0
O671 O 0.62149 0.59554 0.78697 0.0
H672 H 0.72027 0.5733 0.75233 0.0
H673 H 0.74964 0.57926 0.72344 0.0
H674 H 0.71951 0.63931 0.7007 0.0
H675 H 0.69016 0.63331 0.73027 0.0
H676 H 0.57385 0.65334 0.86143 0.0
H677 H 0.54794 0.64785 0.89446 0.0
H678 H 0.504 0.61621 0.84472 0.0
H679 H 0.52993 0.62138 0.81194 0.0
Ho680 Ho 0.64641 0.40197 0.03172 0.0
Ho681 Ho 0.63302 0.35494 0.04412 0.0
C682 C 0.6275 0.37065 0.98903 0.0
C683 C 0.66321 0.43742 1.01468 0.0
C684 C 0.65925 0.45424 0.9963 0.0
C685 C 0.67481 0.47054 0.99313 0.0
C686 C 0.67147 0.48708 0.97624 0.0
C687 C 0.65247 0.48765 0.96208 0.0
C688 C 0.63677 0.47128 0.96543 0.0
C689 C 0.64016 0.45466 0.98241 0.0
C690 C 0.60667 0.3979 0.05201 0.0
C691 C 0.65885 0.38448 0.08453 0.0
C692 C 0.61469 0.32141 0.06405 0.0
C693 C 0.61791 0.3066 0.08481 0.0
C694 C 0.60074 0.2932 0.09223 0.0
C695 C 0.60352 0.27843 0.1113 0.0
C696 C 0.62359 0.27671 0.12337 0.0
C697 C 0.64066 0.29055 0.11614 0.0
C698 C 0.63783 0.30538 0.09708 0.0
C699 C 0.67419 0.35952 0.02714 0.0
O700 O 0.63867 0.38813 0.99513 0.0
O701 O 0.62039 0.35654 1.00544 0.0
O702 O 0.64964 0.43686 0.03286 0.0
O703 O 0.66834 0.41807 1.0068 0.0
O704 O 0.61914 0.41463 0.05435 0.0
O705 O 0.61488 0.38493 0.03674 0.0
O706 O 0.6463 0.3673 0.08036 0.0
O707 O 0.66368 0.39844 0.06711 0.0
O708 O 0.6288 0.32011 0.04637 0.0
O709 O 0.60958 0.34147 0.06926 0.0
O710 O 0.66261 0.34207 0.02433 0.0
O711 O 0.66401 0.37229 0.04073 0.0
H712 H 0.68956 0.47055 1.00385 0.0
H713 H 0.68373 0.49958 0.97445 0.0
H714 H 0.62206 0.47113 0.95468 0.0
H715 H 0.62794 0.44217 0.9847 0.0
H716 H 0.58522 0.29393 0.08301 0.0
H717 H 0.5901 0.26792 0.11611 0.0
H718 H 0.65624 0.28993 0.12521 0.0
H719 H 0.65124 0.31572 0.09177 0.0
Ho720 Ho 0.85817 0.39506 0.28217 0.0
Ho721 Ho 0.90557 0.38277 0.29295 0.0
C722 C 0.88864 0.37651 0.23846 0.0
C723 C 0.82186 0.41107 0.26643 0.0
C724 C 0.80468 0.40734 0.24842 0.0
C725 C 0.78748 0.42214 0.24714 0.0
C726 C 0.77057 0.419 0.23068 0.0
C727 C 0.77052 0.40096 0.21505 0.0
C728 C 0.78778 0.38599 0.21651 0.0
C729 C 0.80478 0.38918 0.23307 0.0
C730 C 0.86344 0.35572 0.30305 0.0
C731 C 0.87663 0.40821 0.33418 0.0
C732 C 0.94013 0.36604 0.31249 0.0
C733 C 0.95548 0.37018 0.33286 0.0
C734 C 0.95059 0.36381 0.35679 0.0
C735 C 0.96575 0.36671 0.37552 0.0
C736 C 0.98618 0.37604 0.37082 0.0
C737 C 0.99104 0.38229 0.34686 0.0
C738 C 0.97595 0.37934 0.32817 0.0
C739 C 0.89984 0.42375 0.27574 0.0
O740 O 0.871 0.38714 0.24519 0.0
O741 O 0.90342 0.36991 0.25439 0.0
O742 O 0.82319 0.39697 0.28404 0.0
O743 O 0.84089 0.41702 0.25826 0.0
O744 O 0.84671 0.36811 0.30597 0.0
O745 O 0.87582 0.36378 0.28704 0.0
O746 O 0.89398 0.39608 0.32948 0.0
O747 O 0.8621 0.41261 0.31724 0.0
O748 O 0.94061 0.37951 0.29414 0.0
O749 O 0.92034 0.36007 0.31799 0.0
O750 O 0.91724 0.41227 0.27218 0.0
O751 O 0.88764 0.41353 0.28996 0.0
H752 H 0.78707 0.43614 0.25902 0.0
H753 H 0.7574 0.43065 0.23038 0.0
H754 H 0.78833 0.37204 0.20459 0.0
H755 H 0.81795 0.37754 0.2339 0.0
H756 H 0.93509 0.35644 0.36107 0.0
H757 H 0.96137 0.36184 0.39375 0.0
H758 H 0.00673 0.38915 0.3424 0.0
H759 H 0.98045 0.38402 0.30991 0.0
Ho760 Ho 0.8652 0.60997 0.52862 0.0
Ho761 Ho 0.87625 0.65728 0.54096 0.0
C762 C 0.88673 0.64066 0.48682 0.0
C763 C 0.84932 0.57411 0.51184 0.0
C764 C 0.85346 0.55659 0.49443 0.0
C765 C 0.83934 0.53881 0.49424 0.0
C766 C 0.84276 0.5216 0.4783 0.0
C767 C 0.86039 0.52183 0.46209 0.0
C768 C 0.87474 0.53964 0.4625 0.0
C769 C 0.87128 0.55695 0.47857 0.0
C770 C 0.90341 0.61538 0.55175 0.0
C771 C 0.84986 0.62765 0.58047 0.0
C772 C 0.89253 0.6916 0.56133 0.0
C773 C 0.88861 0.70643 0.58215 0.0
C774 C 0.89625 0.70145 0.60557 0.0
C775 C 0.89376 0.71628 0.62467 0.0
C776 C 0.88359 0.73644 0.62079 0.0
C777 C 0.87601 0.74136 0.59734 0.0
C778 C 0.87855 0.72661 0.5783 0.0
C779 C 0.83597 0.65141 0.52173 0.0
O780 O 0.87725 0.62208 0.49251 0.0
O781 O 0.89005 0.65628 0.50296 0.0
O782 O 0.86238 0.5751 0.53047 0.0
O783 O 0.84446 0.59324 0.50303 0.0
O784 O 0.89116 0.59841 0.5538 0.0
O785 O 0.89589 0.62787 0.53554 0.0
O786 O 0.86196 0.64518 0.57671 0.0
O787 O 0.84632 0.61338 0.56302 0.0
O788 O 0.87871 0.6923 0.54332 0.0
O789 O 0.8989 0.67181 0.56618 0.0
O790 O 0.84741 0.66897 0.5191 0.0
O791 O 0.84591 0.63903 0.53604 0.0
H792 H 0.82563 0.5382 0.50654 0.0
H793 H 0.83162 0.50801 0.4788 0.0
H794 H 0.88838 0.54038 0.45013 0.0
H795 H 0.88241 0.57057 0.4786 0.0
H796 H 0.90437 0.68618 0.60916 0.0
H797 H 0.89967 0.71188 0.6425 0.0
H798 H 0.86849 0.75688 0.59352 0.0
H799 H 0.87289 0.73118 0.56041 0.0
Ho800 Ho 0.65134 0.39516 0.76416 0.0
Ho801 Ho 0.6039 0.38227 0.7538 0.0
C802 C 0.62247 0.37303 0.80741 0.0
C803 C 0.68715 0.41173 0.7804 0.0
C804 C 0.70432 0.40749 0.79829 0.0
C805 C 0.72207 0.42163 0.7993 0.0
C806 C 0.73888 0.41802 0.81579 0.0
C807 C 0.73826 0.40019 0.83173 0.0
C808 C 0.72047 0.38584 0.83048 0.0
C809 C 0.7036 0.38948 0.81386 0.0
C810 C 0.64657 0.35662 0.74178 0.0
C811 C 0.63192 0.40901 0.71278 0.0
C812 C 0.56973 0.3646 0.73447 0.0
C813 C 0.55531 0.3675 0.71329 0.0
C814 C 0.54295 0.34986 0.70507 0.0
C815 C 0.52852 0.35228 0.68561 0.0
C816 C 0.52609 0.37247 0.67396 0.0
C817 C 0.53893 0.39002 0.68194 0.0
C818 C 0.55343 0.38755 0.70138 0.0
C819 C 0.6092 0.42279 0.7723 0.0
O820 O 0.64024 0.38346 0.80065 0.0
O821 O 0.60646 0.36869 0.79199 0.0
O822 O 0.68621 0.39835 0.76207 0.0
O823 O 0.66796 0.41688 0.78883 0.0
O824 O 0.66305 0.3694 0.73899 0.0
O825 O 0.63426 0.36385 0.75833 0.0
O826 O 0.61475 0.39662 0.71748 0.0
O827 O 0.64667 0.41326 0.72953 0.0
O828 O 0.56891 0.3795 0.75134 0.0
O829 O 0.58957 0.35832 0.7299 0.0
O830 O 0.59205 0.4109 0.77588 0.0
O831 O 0.62135 0.41315 0.75755 0.0
H832 H 0.72298 0.43549 0.78723 0.0
H833 H 0.75247 0.42918 0.81592 0.0
H834 H 0.7194 0.37206 0.84262 0.0
H835 H 0.69003 0.37832 0.81319 0.0
H836 H 0.5442 0.33422 0.71397 0.0
H837 H 0.51878 0.33847 0.68021 0.0
H838 H 0.53775 0.40572 0.67321 0.0
H839 H 0.563 0.40134 0.70725 0.0
Ho840 Ho 0.86564 0.40145 1.01315 0.0
Ho841 Ho 0.87685 0.35397 1.00324 0.0
C842 C 0.88726 0.37236 0.05647 0.0
C843 C 0.852 0.43828 0.02982 0.0
C844 C 0.85768 0.45444 0.04861 0.0
C845 C 0.85645 0.44955 0.07347 0.0
C846 C 0.8603 0.46568 0.09079 0.0
C847 C 0.86557 0.48697 0.08363 0.0
C848 C 0.8674 0.49164 0.05879 0.0
C849 C 0.86338 0.47558 0.04148 0.0
C850 C 0.90351 0.39527 0.98961 0.0
C851 C 0.84969 0.38234 0.96266 0.0
C852 C 0.89268 0.31905 0.98365 0.0
C853 C 0.88855 0.30409 0.96298 0.0
C854 C 0.89572 0.309 0.93935 0.0
C855 C 0.89291 0.29409 0.92037 0.0
C856 C 0.88287 0.27392 0.92456 0.0
C857 C 0.87579 0.26905 0.94822 0.0
C858 C 0.87865 0.28388 0.96715 0.0
C859 C 0.83696 0.36026 0.02303 0.0
O860 O 0.87699 0.39018 0.04968 0.0
O861 O 0.89133 0.35632 0.04103 0.0
O862 O 0.86548 0.43652 1.01163 0.0
O863 O 0.84437 0.41949 0.03698 0.0
O864 O 0.89072 0.41164 0.98631 0.0
O865 O 0.89652 0.38357 1.00685 0.0
O866 O 0.86179 0.36491 0.96721 0.0
O867 O 0.84634 0.39735 0.97934 0.0
O868 O 0.87875 0.31886 1.00155 0.0
O869 O 0.89949 0.33865 0.97859 0.0
O870 O 0.84878 0.34309 0.02666 0.0
O871 O 0.84632 0.37205 1.00765 0.0
H872 H 0.85218 0.43339 0.07958 0.0
H873 H 0.859 0.46153 0.10983 0.0
H874 H 0.8712 0.50792 0.05269 0.0
H875 H 0.8643 0.47981 0.02243 0.0
H876 H 0.90367 0.3243 0.93549 0.0
H877 H 0.89843 0.29845 0.90238 0.0
H878 H 0.86836 0.25353 0.95227 0.0
H879 H 0.87335 0.27937 0.98519 0.0
Ho880 Ho 0.86037 0.61648 0.26563 0.0
Ho881 Ho 0.90768 0.62617 0.25249 0.0
C882 C 0.89211 0.63748 0.30672 0.0
C883 C 0.824 0.60332 0.28407 0.0
C884 C 0.80763 0.60943 0.30255 0.0
C885 C 0.81019 0.60335 0.32695 0.0
C886 C 0.79353 0.60698 0.34369 0.0
C887 C 0.77391 0.61671 0.33642 0.0
C888 C 0.77161 0.6234 0.31221 0.0
C889 C 0.78823 0.61969 0.29544 0.0
C890 C 0.86658 0.65416 0.24166 0.0
C891 C 0.87694 0.5995 0.21416 0.0
C892 C 0.94221 0.64121 0.23124 0.0
C893 C 0.9567 0.63692 0.21018 0.0
C894 C 0.9517 0.64479 0.18684 0.0
C895 C 0.96635 0.64211 0.16757 0.0
C896 C 0.98636 0.63154 0.17116 0.0
C897 C 0.99127 0.6237 0.19451 0.0
C898 C 0.9767 0.62641 0.21373 0.0
C899 C 0.90126 0.58654 0.27303 0.0
O900 O 0.8733 0.62834 0.30139 0.0
O901 O 0.90759 0.64043 0.2903 0.0
O902 O 0.82532 0.61564 0.26482 0.0
O903 O 0.84305 0.59664 0.29163 0.0
O904 O 0.84951 0.64207 0.23959 0.0
O905 O 0.87891 0.64667 0.25803 0.0
O906 O 0.89461 0.61158 0.21728 0.0
O907 O 0.86289 0.5965 0.23198 0.0
O908 O 0.94273 0.62738 0.24924 0.0
O909 O 0.92255 0.6482 0.22679 0.0
O910 O 0.91899 0.59779 0.2752 0.0
O911 O 0.88891 0.59625 0.25848 0.0
H912 H 0.82484 0.59528 0.33305 0.0
H913 H 0.7959 0.60188 0.3623 0.0
H914 H 0.75662 0.63071 0.30597 0.0
H915 H 0.78561 0.62429 0.27671 0.0
H916 H 0.93658 0.65325 0.18348 0.0
H917 H 0.96194 0.64824 0.14984 0.0
H918 H 0.00668 0.61585 0.19813 0.0
H919 H 0.9813 0.62057 0.23153 0.0
Ho920 Ho 0.64362 0.60906 0.51597 0.0
Ho921 Ho 0.63266 0.65645 0.50342 0.0
C922 C 0.62219 0.63988 0.55766 0.0
C923 C 0.65921 0.57317 0.53312 0.0
C924 C 0.65434 0.55561 0.5503 0.0
C925 C 0.66669 0.53658 0.54905 0.0
C926 C 0.66268 0.51944 0.56496 0.0
C927 C 0.64624 0.521 0.58257 0.0
C928 C 0.63359 0.54005 0.58354 0.0
C929 C 0.63763 0.55727 0.5675 0.0
C930 C 0.60546 0.61445 0.49274 0.0
C931 C 0.65901 0.62662 0.46409 0.0
C932 C 0.61655 0.69086 0.48293 0.0
C933 C 0.62042 0.70581 0.46216 0.0
C934 C 0.61275 0.70095 0.43872 0.0
C935 C 0.61503 0.71595 0.41972 0.0
C936 C 0.625 0.73619 0.42369 0.0
C937 C 0.63264 0.74098 0.44714 0.0
C938 C 0.63033 0.72605 0.46609 0.0
C939 C 0.67297 0.65043 0.52262 0.0
O940 O 0.6316 0.62127 0.55198 0.0
O941 O 0.61891 0.65553 0.5415 0.0
O942 O 0.64688 0.57422 0.51389 0.0
O943 O 0.66371 0.59229 0.54219 0.0
O944 O 0.61763 0.59741 0.49099 0.0
O945 O 0.61296 0.62705 0.50886 0.0
O946 O 0.64675 0.64407 0.46771 0.0
O947 O 0.66271 0.61251 0.4817 0.0
O948 O 0.63034 0.69149 0.50097 0.0
O949 O 0.61017 0.67109 0.47806 0.0
O950 O 0.66167 0.66811 0.52506 0.0
O951 O 0.66292 0.63807 0.50844 0.0
H952 H 0.67951 0.53496 0.53571 0.0
H953 H 0.67247 0.5049 0.56341 0.0
H954 H 0.62091 0.54182 0.59699 0.0
H955 H 0.62786 0.57187 0.56861 0.0
H956 H 0.60475 0.68564 0.43506 0.0
H957 H 0.60908 0.71163 0.40189 0.0
H958 H 0.64003 0.75654 0.45106 0.0
H959 H 0.636 0.73054 0.48399 0.0
Ho960 Ho 0.4059 0.38359 0.25191 0.0
Ho961 Ho 0.35899 0.39613 0.26407 0.0
C962 C 0.37616 0.40954 0.21167 0.0
C963 C 0.43985 0.36646 0.23152 0.0
C964 C 0.45528 0.37046 0.2112 0.0
C965 C 0.44992 0.36525 0.18706 0.0
C966 C 0.4652 0.36782 0.16838 0.0
C967 C 0.4862 0.37565 0.17336 0.0
C968 C 0.49149 0.38079 0.19752 0.0
C969 C 0.47629 0.37816 0.21616 0.0
C970 C 0.40114 0.42453 0.26935 0.0
C971 C 0.39037 0.37749 0.30684 0.0
C972 C 0.3229 0.41083 0.28182 0.0
C973 C 0.30595 0.40479 0.29971 0.0
C974 C 0.30648 0.41342 0.32327 0.0
C975 C 0.28942 0.40959 0.33943 0.0
C976 C 0.27133 0.39715 0.3324 0.0
C977 C 0.27105 0.38802 0.30906 0.0
C978 C 0.2881 0.39189 0.29286 0.0
C979 C 0.36368 0.35645 0.24378 0.0
O980 O 0.39336 0.39698 0.21574 0.0
O981 O 0.36226 0.4142 0.22918 0.0
O982 O 0.44084 0.37953 0.25018 0.0
O983 O 0.41986 0.36121 0.22599 0.0
O984 O 0.41849 0.41284 0.27226 0.0
O985 O 0.38835 0.41459 0.25552 0.0
O986 O 0.37297 0.38876 0.30071 0.0
O987 O 0.40441 0.37038 0.29038 0.0
O988 O 0.3241 0.39918 0.26208 0.0
O989 O 0.34205 0.41627 0.29013 0.0
O990 O 0.34696 0.36885 0.241 0.0
O991 O 0.37635 0.36475 0.25925 0.0
H992 H 0.43398 0.35902 0.18257 0.0
H993 H 0.46048 0.36384 0.15 0.0
H994 H 0.5076 0.38648 0.20217 0.0
H995 H 0.48112 0.3819 0.23457 0.0
H996 H 0.31987 0.42356 0.32909 0.0
H997 H 0.29028 0.41662 0.3574 0.0
H998 H 0.25726 0.37856 0.30299 0.0
H999 H 0.287 0.38521 0.27474 0.0
Ho1000 Ho 0.37751 0.65527 1.00177 0.0
Ho1001 Ho 0.36359 0.60853 1.01425 0.0
C1002 C 0.35108 0.62608 0.96158 0.0
C1003 C 0.39619 0.68852 0.98162 0.0
C1004 C 0.39306 0.7033 0.96082 0.0
C1005 C 0.41025 0.71666 0.95342 0.0
C1006 C 0.40759 0.73132 0.93421 0.0
C1007 C 0.38759 0.73296 0.92199 0.0
C1008 C 0.37047 0.71917 0.92922 0.0
C1009 C 0.37319 0.70446 0.94841 0.0
C1010 C 0.33641 0.65151 1.01908 0.0
C1011 C 0.38311 0.63952 0.05685 0.0
C1012 C 0.34656 0.57315 0.03119 0.0
C1013 C 0.35096 0.55545 0.04838 0.0
C1014 C 0.36851 0.55614 0.0646 0.0
C1015 C 0.37213 0.53886 0.0807 0.0
C1016 C 0.35821 0.5207 0.0808 0.0
C1017 C 0.34088 0.5201 0.06419 0.0
C1018 C 0.33731 0.53729 0.0482 0.0
C1019 C 0.40352 0.6122 0.99416 0.0
O1020 O 0.36406 0.64296 0.96555 0.0
O1021 O 0.34593 0.61245 0.97919 0.0
O1022 O 0.38219 0.69004 0.99939 0.0
O1023 O 0.40099 0.66838 0.97645 0.0
O1024 O 0.3484 0.66868 1.02184 0.0
O1025 O 0.34616 0.63844 1.00541 0.0
O1026 O 0.37153 0.62229 0.05083 0.0
O1027 O 0.39043 0.65344 0.04035 0.0
O1028 O 0.35888 0.57384 1.01194 0.0
O1029 O 0.34279 0.59239 0.04029 0.0
O1030 O 0.3909 0.5956 0.99168 0.0
O1031 O 0.39529 0.62515 1.00938 0.0
H1032 H 0.42573 0.71598 0.96273 0.0
H1033 H 0.42103 0.74179 0.92941 0.0
H1034 H 0.35494 0.71973 0.92003 0.0
H1035 H 0.35976 0.69414 0.9537 0.0
H1036 H 0.37928 0.57004 0.0649 0.0
H1037 H 0.38551 0.53991 0.09338 0.0
H1038 H 0.33007 0.50625 0.06346 0.0
H1039 H 0.3238 0.53641 0.03563 0.0
Ho1040 Ho 0.10376 0.6264 0.75193 0.0
Ho1041 Ho 0.15136 0.61507 0.76244 0.0
C1042 C 0.13252 0.59959 0.71159 0.0
C1043 C 0.06903 0.64288 0.73241 0.0
C1044 C 0.05467 0.63985 0.71119 0.0
C1045 C 0.04155 0.65715 0.70351 0.0
C1046 C 0.02708 0.65458 0.68413 0.0
C1047 C 0.02535 0.63458 0.67198 0.0
C1048 C 0.03894 0.61737 0.67943 0.0
C1049 C 0.05348 0.61999 0.69881 0.0
C1050 C 0.10994 0.58639 0.77153 0.0
C1051 C 0.12196 0.63696 0.80531 0.0
C1052 C 0.18798 0.60129 0.7797 0.0
C1053 C 0.20442 0.60727 0.79821 0.0
C1054 C 0.20195 0.60105 0.82258 0.0
C1055 C 0.21854 0.60489 0.83937 0.0
C1056 C 0.23801 0.61499 0.8322 0.0
C1057 C 0.24022 0.62178 0.80801 0.0
C1058 C 0.22368 0.61784 0.79118 0.0
C1059 C 0.14541 0.65286 0.73871 0.0
O1060 O 0.11512 0.61177 0.71594 0.0
O1061 O 0.1473 0.59591 0.72849 0.0
O1062 O 0.0687 0.62776 0.74906 0.0
O1063 O 0.08865 0.64991 0.72801 0.0
O1064 O 0.09264 0.59811 0.77491 0.0
O1065 O 0.12196 0.5959 0.75648 0.0
O1066 O 0.13995 0.62691 0.79866 0.0
O1067 O 0.10581 0.64064 0.78987 0.0
O1068 O 0.18639 0.61398 0.76078 0.0
O1069 O 0.16905 0.59434 0.78728 0.0
O1070 O 0.16198 0.64022 0.73593 0.0
O1071 O 0.13352 0.64586 0.75578 0.0
H1072 H 0.04224 0.67263 0.7128 0.0
H1073 H 0.01676 0.66812 0.67917 0.0
H1074 H 0.03832 0.60182 0.67031 0.0
H1075 H 0.0636 0.60646 0.70429 0.0
H1076 H 0.1874 0.59278 0.82863 0.0
H1077 H 0.21623 0.59969 0.85795 0.0
H1078 H 0.25509 0.62938 0.80184 0.0
H1079 H 0.22622 0.62259 0.77248 0.0
Ho1080 Ho 0.13251 0.35498 0.50128 0.0
Ho1081 Ho 0.1457 0.40201 0.51309 0.0
C1082 C 0.15774 0.38442 0.46037 0.0
C1083 C 0.11415 0.32134 0.48165 0.0
C1084 C 0.11722 0.30661 0.46082 0.0
C1085 C 0.09968 0.29404 0.45271 0.0
C1086 C 0.10228 0.27935 0.43355 0.0
C1087 C 0.12255 0.27687 0.4221 0.0
C1088 C 0.14001 0.28991 0.42997 0.0
C1089 C 0.13736 0.30466 0.4491 0.0
C1090 C 0.17383 0.35961 0.51775 0.0
C1091 C 0.12723 0.37099 0.5563 0.0
C1092 C 0.16217 0.43777 0.52961 0.0
C1093 C 0.15729 0.45518 0.54696 0.0
C1094 C 0.14021 0.45348 0.5637 0.0
C1095 C 0.13604 0.47049 0.57994 0.0
C1096 C 0.14894 0.48938 0.57967 0.0
C1097 C 0.16579 0.49099 0.56255 0.0
C1098 C 0.16992 0.47405 0.5464 0.0
C1099 C 0.10571 0.39759 0.49338 0.0
O1100 O 0.14519 0.36729 0.46475 0.0
O1101 O 0.1629 0.39827 0.47773 0.0
O1102 O 0.12845 0.32012 0.49915 0.0
O1103 O 0.10885 0.34136 0.47652 0.0
O1104 O 0.16221 0.34223 0.52085 0.0
O1105 O 0.1636 0.37242 0.5042 0.0
O1106 O 0.13833 0.38842 0.5499 0.0
O1107 O 0.12007 0.35675 0.54007 0.0
O1108 O 0.14966 0.43679 0.51054 0.0
O1109 O 0.16662 0.41862 0.5386 0.0
O1110 O 0.11803 0.41439 0.49072 0.0
O1111 O 0.11423 0.38485 0.50867 0.0
H1112 H 0.08399 0.29535 0.46147 0.0
H1113 H 0.08855 0.26947 0.42823 0.0
H1114 H 0.15577 0.28869 0.42137 0.0
H1115 H 0.15107 0.31438 0.45491 0.0
H1116 H 0.13023 0.43901 0.56427 0.0
H1117 H 0.12306 0.46866 0.59302 0.0
H1118 H 0.1758 0.50542 0.56154 0.0
H1119 H 0.18304 0.4757 0.53344 0.0
Ho1120 Ho 0.40612 0.62706 0.29178 0.0
Ho1121 Ho 0.35843 0.61596 0.2815 0.0
C1122 C 0.37742 0.6001 0.33219 0.0
C1123 C 0.44088 0.64351 0.31122 0.0
C1124 C 0.4551 0.64068 0.3326 0.0
C1125 C 0.4681 0.65808 0.3402 0.0
C1126 C 0.48239 0.65574 0.35979 0.0
C1127 C 0.48404 0.63585 0.37225 0.0
C1128 C 0.47059 0.61854 0.36486 0.0
C1129 C 0.45623 0.62094 0.34526 0.0
C1130 C 0.39972 0.58719 0.27217 0.0
C1131 C 0.38787 0.63738 0.23834 0.0
C1132 C 0.3216 0.60246 0.26464 0.0
C1133 C 0.30522 0.60843 0.24611 0.0
C1134 C 0.30892 0.60482 0.22128 0.0
C1135 C 0.29245 0.60863 0.20434 0.0
C1136 C 0.27194 0.61617 0.21181 0.0
C1137 C 0.26849 0.62045 0.23652 0.0
C1138 C 0.2849 0.61649 0.25349 0.0
C1139 C 0.36479 0.65389 0.30473 0.0
O1140 O 0.39477 0.61239 0.32786 0.0
O1141 O 0.36263 0.59658 0.31527 0.0
O1142 O 0.44118 0.62817 0.29484 0.0
O1143 O 0.42129 0.65075 0.31538 0.0
O1144 O 0.41709 0.59877 0.26876 0.0
O1145 O 0.38779 0.5967 0.28729 0.0
O1146 O 0.36986 0.62741 0.24511 0.0
O1147 O 0.40405 0.6411 0.25373 0.0
O1148 O 0.32337 0.61542 0.28328 0.0
O1149 O 0.34042 0.59516 0.25713 0.0
O1150 O 0.34824 0.64131 0.30802 0.0
O1151 O 0.37647 0.64664 0.28766 0.0
H1152 H 0.46745 0.67347 0.3307 0.0
H1153 H 0.49261 0.66934 0.3647 0.0
H1154 H 0.47116 0.60308 0.3742 0.0
H1155 H 0.4462 0.60733 0.33985 0.0
H1156 H 0.32437 0.59863 0.21495 0.0
H1157 H 0.29567 0.60542 0.18538 0.0
H1158 H 0.25281 0.62603 0.24287 0.0
H1159 H 0.2815 0.61922 0.27251 0.0
Ho1160 Ho 0.13254 0.65437 0.04179 0.0
Ho1161 Ho 0.14639 0.60767 0.02923 0.0
C1162 C 0.15926 0.62521 0.08175 0.0
C1163 C 0.11402 0.6876 0.06211 0.0
C1164 C 0.11746 0.70232 0.08288 0.0
C1165 C 0.10038 0.71569 0.09062 0.0
C1166 C 0.10336 0.73033 0.10976 0.0
C1167 C 0.12357 0.73195 0.12156 0.0
C1168 C 0.14055 0.71813 0.11402 0.0
C1169 C 0.13751 0.70344 0.0949 0.0
C1170 C 0.1736 0.65058 0.02427 0.0
C1171 C 0.12683 0.63878 0.98672 0.0
C1172 C 0.16307 0.57226 1.01204 0.0
C1173 C 0.15757 0.55426 0.99567 0.0
C1174 C 0.14154 0.55628 0.9777 0.0
C1175 C 0.13702 0.53882 0.9622 0.0
C1176 C 0.14849 0.51913 0.96445 0.0
C1177 C 0.16417 0.51717 0.98287 0.0
C1178 C 0.16866 0.53457 0.99827 0.0
C1179 C 0.10655 0.61118 0.04951 0.0
O1180 O 0.14605 0.64195 0.07794 0.0
O1181 O 0.16448 0.61177 0.064 0.0
O1182 O 0.1278 0.68914 0.04414 0.0
O1183 O 0.10928 0.66746 0.06737 0.0
O1184 O 0.16169 0.66784 1.02172 0.0
O1185 O 0.16385 0.63752 0.03793 0.0
O1186 O 0.13846 0.62157 0.99272 0.0
O1187 O 0.1195 0.65264 1.00326 0.0
O1188 O 0.15214 0.57315 0.03229 0.0
O1189 O 0.166 0.59138 1.00224 0.0
O1190 O 0.11915 0.59454 0.05171 0.0
O1191 O 0.11467 0.62425 0.03433 0.0
H1192 H 0.08476 0.71503 0.08161 0.0
H1193 H 0.09001 0.74083 0.11481 0.0
H1194 H 0.15623 0.71869 0.12288 0.0
H1195 H 0.15085 0.69311 0.08935 0.0
H1196 H 0.13271 0.57137 0.97553 0.0
H1197 H 0.12497 0.54093 0.94809 0.0
H1198 H 0.17303 0.50215 0.98541 0.0
H1199 H 0.18093 0.53266 1.01219 0.0
Ho1200 Ho 0.10433 0.38304 0.79148 0.0
Ho1201 Ho 0.15215 0.3947 0.78216 0.0
C1202 C 0.1325 0.4086 0.83331 0.0
C1203 C 0.06944 0.36618 0.81012 0.0
C1204 C 0.05493 0.36935 0.83115 0.0
C1205 C 0.04129 0.35234 0.83846 0.0
C1206 C 0.0269 0.35505 0.85789 0.0
C1207 C 0.0258 0.3749 0.87044 0.0
C1208 C 0.03988 0.39181 0.86332 0.0
C1209 C 0.05433 0.38905 0.8439 0.0
C1210 C 0.1108 0.42358 0.77349 0.0
C1211 C 0.12341 0.37365 0.73816 0.0
C1212 C 0.18871 0.41023 0.76672 0.0
C1213 C 0.20555 0.40608 0.74843 0.0
C1214 C 0.2231 0.42042 0.74682 0.0
C1215 C 0.2396 0.41689 0.72994 0.0
C1216 C 0.23887 0.39893 0.71422 0.0
C1217 C 0.22128 0.38439 0.71605 0.0
C1218 C 0.20471 0.38796 0.73305 0.0
C1219 C 0.14591 0.35624 0.80441 0.0
O1220 O 0.11503 0.39679 0.82812 0.0
O1221 O 0.14766 0.41254 0.81694 0.0
O1222 O 0.06924 0.38123 0.79338 0.0
O1223 O 0.08905 0.3593 0.81491 0.0
O1224 O 0.09349 0.41207 0.76946 0.0
O1225 O 0.12261 0.41358 0.78835 0.0
O1226 O 0.14128 0.38365 0.74535 0.0
O1227 O 0.10708 0.36958 0.75325 0.0
O1228 O 0.18713 0.39598 0.78417 0.0
O1229 O 0.16978 0.41678 0.75877 0.0
O1230 O 0.16255 0.36868 0.8078 0.0
O1231 O 0.13422 0.36381 0.78746 0.0
H1232 H 0.04156 0.33698 0.8289 0.0
H1233 H 0.01619 0.34176 0.86261 0.0
H1234 H 0.03972 0.40722 0.87275 0.0
H1235 H 0.06489 0.40233 0.83871 0.0
H1236 H 0.22409 0.43438 0.75872 0.0
H1237 H 0.25305 0.4282 0.72935 0.0
H1238 H 0.22013 0.37051 0.70409 0.0
H1239 H 0.19128 0.37666 0.73417 0.0
Ho1240 Ho 0.37643 0.35287 0.54174 0.0
Ho1241 Ho 0.36547 0.40042 0.53162 0.0
C1242 C 0.34917 0.38131 0.58199 0.0
C1243 C 0.39267 0.31791 0.561 0.0
C1244 C 0.39015 0.3039 0.58258 0.0
C1245 C 0.40758 0.29076 0.58984 0.0
C1246 C 0.40546 0.27656 0.60954 0.0
C1247 C 0.38579 0.27514 0.62244 0.0
C1248 C 0.36847 0.28877 0.61541 0.0
C1249 C 0.37064 0.30303 0.59571 0.0
C1250 C 0.33673 0.3593 0.52152 0.0
C1251 C 0.38722 0.37119 0.4885 0.0
C1252 C 0.35231 0.43735 0.51464 0.0
C1253 C 0.35849 0.45353 0.49596 0.0
C1254 C 0.35396 0.4501 0.47127 0.0
C1255 C 0.3581 0.4664 0.45421 0.0
C1256 C 0.36688 0.48647 0.46142 0.0
C1257 C 0.37202 0.48964 0.48597 0.0
C1258 C 0.36774 0.47341 0.50306 0.0
C1259 C 0.40294 0.39409 0.55589 0.0
O1260 O 0.36151 0.364 0.57772 0.0
O1261 O 0.34572 0.39616 0.56511 0.0
O1262 O 0.37687 0.31784 0.54517 0.0
O1263 O 0.40044 0.33736 0.5647 0.0
O1264 O 0.34856 0.34211 0.51796 0.0
O1265 O 0.34599 0.37113 0.53694 0.0
O1266 O 0.37736 0.38923 0.4953 0.0
O1267 O 0.3907 0.35492 0.50383 0.0
O1268 O 0.3653 0.43547 0.53326 0.0
O1269 O 0.34472 0.41861 0.50729 0.0
O1270 O 0.39013 0.4105 0.55894 0.0
O1271 O 0.39619 0.38249 0.53846 0.0
H1272 H 0.42279 0.2912 0.57997 0.0
H1273 H 0.41905 0.26619 0.61416 0.0
H1274 H 0.35319 0.28838 0.62511 0.0
H1275 H 0.35703 0.31319 0.59056 0.0
H1276 H 0.34681 0.43501 0.46514 0.0
H1277 H 0.35418 0.46339 0.43537 0.0
H1278 H 0.37856 0.505 0.49214 0.0
H1279 H 0.3712 0.47663 0.52198 0.0
H1280 H 0.27042 0.14528 0.20934 0.0
H1281 H 0.32361 0.09212 0.09119 0.0
H1282 H 0.24407 0.09019 0.17109 0.0
H1283 H 0.34209 0.15572 0.11678 0.0
H1284 H 0.29761 0.08933 0.12411 0.0
H1285 H 0.29935 0.14788 0.1788 0.0
C1286 C 0.27073 0.13374 0.19453 0.0
C1287 C 0.25474 0.11755 0.19268 0.0
C1288 C 0.30738 0.10389 0.12265 0.0
C1289 C 0.28781 0.12033 0.15792 0.0
C1290 C 0.32235 0.10549 0.10385 0.0
C1291 C 0.33496 0.12431 0.101 0.0
C1292 C 0.30488 0.12119 0.13893 0.0
C1293 C 0.33268 0.14094 0.11823 0.0
C1294 C 0.2872 0.13528 0.17712 0.0
C1295 C 0.25585 0.10311 0.17307 0.0
N1296 N 0.31779 0.13906 0.13642 0.0
N1297 N 0.27211 0.1048 0.15656 0.0
H1298 H 0.16999 0.0861 0.35484 0.0
H1299 H 0.10995 0.00674 0.44797 0.0
H1300 H 0.1003 0.0849 0.36257 0.0
H1301 H 0.17948 0.01367 0.4419 0.0
H1302 H 0.10544 0.03586 0.41795 0.0
H1303 H 0.17322 0.06095 0.3886 0.0
C1304 C 0.15533 0.0807 0.36388 0.0
C1305 C 0.13485 0.0875 0.3558 0.0
C1306 C 0.12166 0.03106 0.42334 0.0
C1307 C 0.13837 0.05823 0.39443 0.0
C1308 C 0.12425 0.01434 0.44032 0.0
C1309 C 0.14513 0.00775 0.44754 0.0
C1310 C 0.14009 0.04116 0.41341 0.0
C1311 C 0.16306 0.01836 0.43722 0.0
C1312 C 0.15717 0.06626 0.38317 0.0
C1313 C 0.11641 0.08009 0.3683 0.0
N1314 N 0.16011 0.03442 0.4207 0.0
N1315 N 0.11859 0.0656 0.38685 0.0
H1316 H 0.25318 0.85566 0.69475 0.0
H1317 H 0.17253 0.91925 0.60604 0.0
H1318 H 0.25028 0.92536 0.68749 0.0
H1319 H 0.17232 0.84948 0.61258 0.0
H1320 H 0.19852 0.9214 0.63914 0.0
H1321 H 0.22176 0.85261 0.66759 0.0
C1322 C 0.24589 0.87032 0.68758 0.0
C1323 C 0.2546 0.8908 0.6932 0.0
C1324 C 0.19268 0.90558 0.63362 0.0
C1325 C 0.21867 0.8874 0.66214 0.0
C1326 C 0.17774 0.90436 0.61474 0.0
C1327 C 0.17037 0.88416 0.60645 0.0
C1328 C 0.20064 0.88643 0.64421 0.0
C1329 C 0.17757 0.86539 0.61848 0.0
C1330 C 0.22798 0.86855 0.67204 0.0
C1331 C 0.24451 0.90921 0.68327 0.0
N1332 N 0.19259 0.86695 0.63658 0.0
N1333 N 0.2272 0.90705 0.66823 0.0
H1334 H 0.34113 0.92757 0.84729 0.0
H1335 H 0.4008 0.9984 0.94899 0.0
H1336 H 0.40913 0.92004 0.86425 0.0
H1337 H 0.33412 0.00685 0.92684 0.0
H1338 H 0.40383 0.96752 0.92111 0.0
H1339 H 0.33779 0.9539 0.87987 0.0
C1340 C 0.35535 0.93129 0.85808 0.0
C1341 C 0.37549 0.92174 0.85287 0.0
C1342 C 0.38855 0.97613 0.92242 0.0
C1343 C 0.37185 0.95226 0.89019 0.0
C1344 C 0.38679 0.99372 0.93834 0.0
C1345 C 0.36723 0.00539 0.94008 0.0
C1346 C 0.37058 0.9701 0.90825 0.0
C1347 C 0.34964 0.99866 0.92577 0.0
C1348 C 0.35344 0.94642 0.87668 0.0
C1349 C 0.39329 0.92704 0.86764 0.0
N1350 N 0.35175 0.98153 0.9105 0.0
N1351 N 0.39112 0.94216 0.8855 0.0
H1352 H 0.32703 0.91927 0.44901 0.0
H1353 H 0.26933 0.86193 0.33592 0.0
H1354 H 0.34178 0.85341 0.42795 0.0
H1355 H 0.24788 0.92172 0.36881 0.0
H1356 H 0.29857 0.8596 0.36613 0.0
H1357 H 0.30129 0.92178 0.41579 0.0
C1358 C 0.325 0.90534 0.43725 0.0
C1359 C 0.33646 0.886 0.44148 0.0
C1360 C 0.28743 0.87319 0.3667 0.0
C1361 C 0.30665 0.88876 0.40326 0.0
C1362 C 0.27079 0.87457 0.34946 0.0
C1363 C 0.25604 0.89199 0.34994 0.0
C1364 C 0.28948 0.8895 0.38433 0.0
C1365 C 0.25862 0.90783 0.36795 0.0
C1366 C 0.31019 0.90678 0.41828 0.0
C1367 C 0.33327 0.86862 0.42539 0.0
N1368 N 0.275 0.90623 0.38433 0.0
N1369 N 0.3185 0.87034 0.40705 0.0
H1370 H 0.39839 0.0077 0.59755 0.0
H1371 H 0.33979 0.08364 0.69528 0.0
H1372 H 0.32938 0.00868 0.61113 0.0
H1373 H 0.40866 0.08679 0.68139 0.0
H1374 H 0.3359 0.05774 0.66235 0.0
H1375 H 0.40291 0.03738 0.62681 0.0
C1376 C 0.38422 0.0141 0.60671 0.0
C1377 C 0.36346 0.0057 0.6018 0.0
C1378 C 0.35188 0.06417 0.66626 0.0
C1379 C 0.36849 0.03975 0.63504 0.0
C1380 C 0.35409 0.07904 0.68507 0.0
C1381 C 0.37459 0.08728 0.69118 0.0
C1382 C 0.37034 0.0572 0.65351 0.0
C1383 C 0.39254 0.08086 0.67721 0.0
C1384 C 0.38679 0.03114 0.62324 0.0
C1385 C 0.34565 0.0148 0.614 0.0
N1386 N 0.39004 0.06596 0.65917 0.0
N1387 N 0.34859 0.03123 0.63002 0.0
H1388 H 0.17157 0.15982 0.93034 0.0
H1389 H 0.25174 0.07931 0.85969 0.0
H1390 H 0.17385 0.09037 0.94 0.0
H1391 H 0.2514 0.14843 0.8469 0.0
H1392 H 0.22145 0.08356 0.88744 0.0
H1393 H 0.19836 0.15649 0.89741 0.0
C1394 C 0.17732 0.14386 0.92517 0.0
C1395 C 0.17061 0.12534 0.93798 0.0
C1396 C 0.22786 0.09786 0.87855 0.0
C1397 C 0.20135 0.12146 0.90081 0.0
C1398 C 0.24518 0.09542 0.86257 0.0
C1399 C 0.25409 0.11351 0.85075 0.0
C1400 C 0.21928 0.1186 0.88302 0.0
C1401 C 0.24516 0.13405 0.85575 0.0
C1402 C 0.19275 0.14199 0.90656 0.0
C1403 C 0.17873 0.10509 0.93075 0.0
N1404 N 0.22822 0.13605 0.87152 0.0
N1405 N 0.19373 0.10373 0.91284 0.0
H1406 H 0.10052 0.92292 0.18005 0.0
H1407 H 0.18178 0.99881 0.10444 0.0
H1408 H 0.17013 0.92438 0.18887 0.0
H1409 H 0.11221 1.00162 0.09543 0.0
H1410 H 0.1773 0.96931 0.13323 0.0
H1411 H 0.10395 0.94902 0.14644 0.0
C1412 C 0.11652 0.92839 0.17462 0.0
C1413 C 0.13507 0.92161 0.18736 0.0
C1414 C 0.16295 0.97626 0.12495 0.0
C1415 C 0.13907 0.95151 0.14932 0.0
C1416 C 0.16552 0.9931 0.10836 0.0
C1417 C 0.14736 1.00269 0.09733 0.0
C1418 C 0.14203 0.96882 0.1308 0.0
C1419 C 0.12667 0.99484 0.10364 0.0
C1420 C 0.11845 0.94341 0.15561 0.0
C1421 C 0.15537 0.92934 0.17973 0.0
N1422 N 0.12455 0.97835 0.11997 0.0
N1423 N 0.15679 0.94391 0.16137 0.0
H1424 H 0.76821 0.92083 0.8757 0.0
H1425 H 0.66779 0.85319 0.92733 0.0
H1426 H 0.74066 0.86717 0.83602 0.0
H1427 H 0.68584 0.91727 0.95179 0.0
H1428 H 0.6946 0.85642 0.89444 0.0
H1429 H 0.73913 0.91764 0.90545 0.0
C1430 C 0.75611 0.90824 0.87337 0.0
C1431 C 0.75692 0.89419 0.85341 0.0
C1432 C 0.69246 0.8698 0.90692 0.0
C1433 C 0.7233 0.89056 0.88735 0.0
C1434 C 0.67711 0.86802 0.92561 0.0
C1435 C 0.67468 0.8849 0.94251 0.0
C1436 C 0.7055 0.8885 0.90535 0.0
C1437 C 0.68726 0.90371 0.93943 0.0
C1438 C 0.73937 0.90655 0.89024 0.0
C1439 C 0.74056 0.8784 0.8511 0.0
N1440 N 0.70221 0.90489 0.92144 0.0
N1441 N 0.72445 0.87692 0.86795 0.0
H1442 H 0.90022 1.00349 0.59626 0.0
H1443 H 0.84092 0.92573 0.69186 0.0
H1444 H 0.83092 1.00027 0.60742 0.0
H1445 H 0.91043 0.9256 0.6822 0.0
H1446 H 0.83745 0.9512 0.65846 0.0
H1447 H 0.9049 0.97408 0.62593 0.0
C1448 C 0.88601 0.99666 0.60495 0.0
C1449 C 0.86512 1.00436 0.59923 0.0
C1450 C 0.8535 0.94555 0.66339 0.0
C1451 C 0.87036 0.9706 0.63294 0.0
C1452 C 0.85549 0.93091 0.68247 0.0
C1453 C 0.876 0.92364 0.68991 0.0
C1454 C 0.8722 0.9533 0.65167 0.0
C1455 C 0.8943 0.93078 0.67696 0.0
C1456 C 0.88869 0.97977 0.62173 0.0
C1457 C 0.8473 0.9947 0.61087 0.0
N1458 N 0.892 0.94546 0.6586 0.0
N1459 N 0.85035 0.97844 0.62712 0.0
H1460 H 0.75719 0.08102 0.36124 0.0
H1461 H 0.83733 0.16152 0.43208 0.0
H1462 H 0.75831 0.15 0.34755 0.0
H1463 H 0.83332 0.09235 0.44355 0.0
H1464 H 0.81076 0.1581 0.39892 0.0
H1465 H 0.78684 0.08535 0.38982 0.0
C1466 C 0.76379 0.09711 0.36411 0.0
C1467 C 0.75529 0.11514 0.35178 0.0
C1468 C 0.81591 0.14369 0.40857 0.0
C1469 C 0.78936 0.12033 0.385 0.0
C1470 C 0.8312 0.1456 0.42733 0.0
C1471 C 0.8374 0.1272 0.44068 0.0
C1472 C 0.80696 0.12323 0.40319 0.0
C1473 C 0.82883 0.10701 0.43392 0.0
C1474 C 0.78073 0.09961 0.38056 0.0
C1475 C 0.76425 0.13566 0.35677 0.0
N1476 N 0.81401 0.10561 0.41582 0.0
N1477 N 0.78082 0.13772 0.373 0.0
H1478 H 0.68116 1.00292 0.11672 0.0
H1479 H 0.60126 0.08797 0.18085 0.0
H1480 H 0.61361 0.0089 0.09693 0.0
H1481 H 0.66957 0.0812 0.19664 0.0
H1482 H 0.60516 0.06087 0.14842 0.0
H1483 H 0.67683 0.03278 0.14504 0.0
C1484 C 0.6654 0.01062 0.1182 0.0
C1485 C 0.64777 1.00344 0.10423 0.0
C1486 C 0.6193 0.06552 0.15886 0.0
C1487 C 0.64257 0.03775 0.13708 0.0
C1488 C 0.61712 0.0811 0.17723 0.0
C1489 C 0.63509 0.08674 0.19159 0.0
C1490 C 0.63959 0.05563 0.15489 0.0
C1491 C 0.65522 0.07721 0.18622 0.0
C1492 C 0.6629 0.02768 0.1345 0.0
C1493 C 0.62761 0.01379 0.10745 0.0
N1494 N 0.65686 0.06208 0.16848 0.0
N1495 N 0.62555 0.03045 0.12353 0.0
H1496 H 0.76487 0.08588 0.67235 0.0
H1497 H 0.66776 0.15648 0.61726 0.0
H1498 H 0.74154 0.14396 0.70741 0.0
H1499 H 0.68408 0.09149 0.59434 0.0
H1500 H 0.69424 0.15306 0.65043 0.0
H1501 H 0.73568 0.08892 0.64275 0.0
C1502 C 0.75368 0.09939 0.67371 0.0
C1503 C 0.75574 0.11476 0.6923 0.0
C1504 C 0.6918 0.13951 0.63824 0.0
C1505 C 0.72196 0.11825 0.65851 0.0
C1506 C 0.67662 0.1414 0.6194 0.0
C1507 C 0.67382 0.12432 0.60283 0.0
C1508 C 0.70427 0.12046 0.64035 0.0
C1509 C 0.68582 0.1052 0.60644 0.0
C1510 C 0.73685 0.10102 0.65692 0.0
C1511 C 0.74047 0.1317 0.69341 0.0
N1512 N 0.70059 0.10389 0.6246 0.0
N1513 N 0.72427 0.13308 0.67666 0.0
H1514 H 0.68137 0.00791 0.42657 0.0
H1515 H 0.60122 0.92228 0.36374 0.0
H1516 H 0.6142 1.00122 0.44762 0.0
H1517 H 0.66879 0.93085 0.34531 0.0
H1518 H 0.60551 0.94922 0.39628 0.0
H1519 H 0.67681 0.97832 0.39794 0.0
C1520 C 0.66565 1.00011 0.42529 0.0
C1521 C 0.64819 0.00702 0.43969 0.0
C1522 C 0.6194 0.94502 0.38521 0.0
C1523 C 0.64272 0.97302 0.4065 0.0
C1524 C 0.61701 0.92954 0.36678 0.0
C1525 C 0.63465 0.92443 0.35168 0.0
C1526 C 0.63957 0.95533 0.38852 0.0
C1527 C 0.65469 0.93443 0.35632 0.0
C1528 C 0.66302 0.98321 0.40882 0.0
C1529 C 0.62807 0.99655 0.43676 0.0
N1530 N 0.65654 0.94942 0.37417 0.0
N1531 N 0.62587 0.98004 0.4205 0.0
H1532 H 0.84054 0.84996 0.11494 0.0
H1533 H 0.758 0.92834 0.18517 0.0
H1534 H 0.8359 0.91918 0.10424 0.0
H1535 H 0.7587 0.8589 0.1955 0.0
H1536 H 0.78917 0.92514 0.15836 0.0
H1537 H 0.8139 0.85281 0.14802 0.0
C1538 C 0.83431 0.86579 0.11991 0.0
C1539 C 0.84028 0.88436 0.10673 0.0
C1540 C 0.78261 0.91055 0.16649 0.0
C1541 C 0.80973 0.88768 0.14413 0.0
C1542 C 0.76463 0.91236 0.18168 0.0
C1543 C 0.75547 0.89383 0.19237 0.0
C1544 C 0.79161 0.89003 0.16176 0.0
C1545 C 0.76523 0.87362 0.18766 0.0
C1546 C 0.81897 0.86738 0.13862 0.0
C1547 C 0.83158 0.90442 0.11375 0.0
N1548 N 0.78268 0.87223 0.17255 0.0
N1549 N 0.81666 0.90551 0.13179 0.0
H1550 H 0.90822 0.08877 0.86631 0.0
H1551 H 0.82779 0.00798 0.93653 0.0
H1552 H 0.83932 0.08366 0.85335 0.0
H1553 H 0.8967 0.00982 0.95068 0.0
H1554 H 0.83201 0.03767 0.90791 0.0
H1555 H 0.90459 0.06241 0.89963 0.0
C1556 C 0.8923 0.08246 0.87078 0.0
C1557 C 0.87405 0.08831 0.85696 0.0
C1558 C 0.84626 0.0317 0.91728 0.0
C1559 C 0.86984 0.05806 0.89466 0.0
C1560 C 0.84383 0.01474 0.93377 0.0
C1561 C 0.86189 0.0064 0.94621 0.0
C1562 C 0.86694 0.04052 0.91295 0.0
C1563 C 0.88235 0.0156 0.94136 0.0
C1564 C 0.89026 0.06728 0.88963 0.0
C1565 C 0.85386 0.07948 0.86336 0.0
N1566 N 0.88433 0.03217 0.92511 0.0
N1567 N 0.85234 0.06476 0.88158 0.0
H1568 H 0.75502 0.57895 0.68031 0.0
H1569 H 0.83788 0.65934 0.61326 0.0
H1570 H 0.75896 0.64718 0.69745 0.0
H1571 H 0.83142 0.59093 0.59812 0.0
H1572 H 0.8112 0.65543 0.64618 0.0
H1573 H 0.78463 0.58333 0.65164 0.0
C1574 C 0.76222 0.59487 0.67817 0.0
C1575 C 0.75453 0.61268 0.69148 0.0
C1576 C 0.81583 0.64128 0.63576 0.0
C1577 C 0.78855 0.61794 0.65822 0.0
C1578 C 0.83116 0.64346 0.61712 0.0
C1579 C 0.83675 0.62546 0.60282 0.0
C1580 C 0.80616 0.62094 0.64008 0.0
C1581 C 0.82745 0.60531 0.6085 0.0
C1582 C 0.77914 0.5974 0.66167 0.0
C1583 C 0.76425 0.63303 0.68745 0.0
N1584 N 0.81258 0.60365 0.62652 0.0
N1585 N 0.78078 0.63511 0.67117 0.0
H1586 H 0.60253 0.58821 0.86527 0.0
H1587 H 0.68286 0.5045 0.93128 0.0
H1588 H 0.67029 0.57974 0.84766 0.0
H1589 H 0.61526 0.51055 0.95078 0.0
H1590 H 0.67836 0.53363 0.90197 0.0
H1591 H 0.60676 0.5619 0.89851 0.0
C1592 C 0.61834 0.58111 0.86862 0.0
C1593 C 0.63605 0.58606 0.85356 0.0
C1594 C 0.66446 0.5287 0.91266 0.0
C1595 C 0.64093 0.55589 0.89123 0.0
C1596 C 0.66706 0.51207 0.92953 0.0
C1597 C 0.64945 0.5051 0.94368 0.0
C1598 C 0.64406 0.53855 0.9097 0.0
C1599 C 0.62925 0.51527 0.94013 0.0
C1600 C 0.62071 0.56599 0.88747 0.0
C1601 C 0.65612 0.57628 0.85863 0.0
N1602 N 0.62709 0.5315 0.9235 0.0
N1603 N 0.65796 0.56163 0.87688 0.0
H1604 H 0.67043 0.35231 0.11693 0.0
H1605 H 0.7512 0.43238 0.1875 0.0
H1606 H 0.67601 0.42112 0.10374 0.0
H1607 H 0.74916 0.36346 0.20145 0.0
H1608 H 0.72153 0.42832 0.15884 0.0
H1609 H 0.69653 0.35588 0.15049 0.0
C1610 C 0.67678 0.36821 0.1214 0.0
C1611 C 0.67116 0.38644 0.10745 0.0
C1612 C 0.72745 0.41403 0.16817 0.0
C1613 C 0.70112 0.39058 0.14541 0.0
C1614 C 0.74439 0.41637 0.18468 0.0
C1615 C 0.75267 0.39826 0.19707 0.0
C1616 C 0.71859 0.3934 0.16377 0.0
C1617 C 0.74343 0.37785 0.19216 0.0
C1618 C 0.69181 0.37021 0.14039 0.0
C1619 C 0.68003 0.4066 0.11387 0.0
N1620 N 0.72687 0.37596 0.17589 0.0
N1621 N 0.69461 0.40808 0.13221 0.0
H1622 H 0.82891 0.50105 0.43614 0.0
H1623 H 0.9095 0.42152 0.36476 0.0
H1624 H 0.89821 0.50132 0.44789 0.0
H1625 H 0.84004 0.42392 0.35493 0.0
H1626 H 0.90611 0.44812 0.39781 0.0
H1627 H 0.83311 0.47081 0.40834 0.0
C1628 C 0.84505 0.49463 0.43302 0.0
C1629 C 0.86321 0.5037 0.44454 0.0
C1630 C 0.89162 0.44258 0.38859 0.0
C1631 C 0.86824 0.46897 0.41223 0.0
C1632 C 0.89352 0.42726 0.36991 0.0
C1633 C 0.87502 0.42064 0.35701 0.0
C1634 C 0.87108 0.45115 0.39435 0.0
C1635 C 0.85475 0.42873 0.36424 0.0
C1636 C 0.84746 0.47735 0.41701 0.0
C1637 C 0.88377 0.49495 0.43926 0.0
N1638 N 0.85336 0.44363 0.38224 0.0
N1639 N 0.88574 0.47805 0.42347 0.0
H1640 H 0.7586 0.4313 0.8587 0.0
H1641 H 0.83626 0.34972 0.93168 0.0
H1642 H 0.75812 0.36213 0.84636 0.0
H1643 H 0.83327 0.41899 0.94266 0.0
H1644 H 0.81006 0.35346 0.89819 0.0
H1645 H 0.78788 0.42663 0.88771 0.0
C1646 C 0.76477 0.4151 0.86194 0.0
C1647 C 0.75591 0.39711 0.84989 0.0
C1648 C 0.81535 0.36782 0.90782 0.0
C1649 C 0.78953 0.39153 0.88363 0.0
C1650 C 0.83041 0.36571 0.92678 0.0
C1651 C 0.83682 0.38406 0.94008 0.0
C1652 C 0.80682 0.38841 0.90216 0.0
C1653 C 0.82862 0.40437 0.9331 0.0
C1654 C 0.78149 0.41241 0.87866 0.0
C1655 C 0.76433 0.37645 0.85536 0.0
N1656 N 0.81402 0.40596 0.91479 0.0
N1657 N 0.78069 0.37421 0.87184 0.0
H1658 H 0.84166 0.57567 0.2011 0.0
H1659 H 0.89662 0.51906 0.08597 0.0
H1660 H 0.90649 0.59186 0.17736 0.0
H1661 H 0.8396 0.49506 0.12268 0.0
H1662 H 0.89912 0.54848 0.1159 0.0
H1663 H 0.83894 0.54939 0.16847 0.0
C1664 C 0.85531 0.57385 0.18889 0.0
C1665 C 0.87444 0.58588 0.19219 0.0
C1666 C 0.88611 0.53673 0.11737 0.0
C1667 C 0.87142 0.55548 0.15464 0.0
C1668 C 0.88463 0.51999 0.1003 0.0
C1669 C 0.86793 0.50451 0.10192 0.0
C1670 C 0.8706 0.53813 0.13597 0.0
C1671 C 0.85292 0.50642 0.12092 0.0
C1672 C 0.85376 0.55872 0.17027 0.0
C1673 C 0.89146 0.5829 0.17555 0.0
N1674 N 0.85457 0.52292 0.1371 0.0
N1675 N 0.88961 0.56786 0.15754 0.0
H1676 H 0.74587 0.65112 0.34288 0.0
H1677 H 0.67943 0.59044 0.44768 0.0
H1678 H 0.75964 0.58652 0.36898 0.0
H1679 H 0.66909 0.65792 0.43002 0.0
H1680 H 0.7058 0.58792 0.41504 0.0
H1681 H 0.71529 0.6533 0.37136 0.0
C1682 C 0.74243 0.63739 0.35454 0.0
C1683 C 0.75547 0.61867 0.35369 0.0
C1684 C 0.69771 0.60328 0.41812 0.0
C1685 C 0.72052 0.62103 0.38614 0.0
C1686 C 0.68255 0.60472 0.43674 0.0
C1687 C 0.67218 0.62449 0.44178 0.0
C1688 C 0.70274 0.62177 0.40434 0.0
C1689 C 0.67673 0.64237 0.42679 0.0
C1690 C 0.72502 0.63867 0.3708 0.0
C1691 C 0.75033 0.60142 0.36929 0.0
N1692 N 0.69187 0.64065 0.40886 0.0
N1693 N 0.73331 0.60303 0.38481 0.0
H1694 H 0.66856 0.42282 0.69065 0.0
H1695 H 0.60779 0.50377 0.59976 0.0
H1696 H 0.59883 0.42403 0.68351 0.0
H1697 H 0.67737 0.49723 0.60579 0.0
H1698 H 0.6035 0.47392 0.62895 0.0
H1699 H 0.67152 0.44847 0.65731 0.0
C1700 C 0.65384 0.4283 0.68178 0.0
C1701 C 0.63343 0.42138 0.6899 0.0
C1702 C 0.61967 0.47897 0.62371 0.0
C1703 C 0.63662 0.45127 0.65187 0.0
C1704 C 0.62214 0.4961 0.60722 0.0
C1705 C 0.64298 0.503 0.60023 0.0
C1706 C 0.63818 0.46878 0.63337 0.0
C1707 C 0.66098 0.49231 0.61029 0.0
C1708 C 0.65552 0.44304 0.66277 0.0
C1709 C 0.61489 0.42892 0.6777 0.0
N1710 N 0.65815 0.47585 0.62633 0.0
N1711 N 0.6169 0.44373 0.65944 0.0
H1712 H 0.17369 0.4213 0.44052 0.0
H1713 H 0.24674 0.36061 0.34152 0.0
H1714 H 0.16956 0.3523 0.42807 0.0
H1715 H 0.25249 0.42826 0.36066 0.0
H1716 H 0.21579 0.3574 0.36939 0.0
H1717 H 0.19916 0.4244 0.40703 0.0
C1718 C 0.17794 0.4068 0.43046 0.0
C1719 C 0.16964 0.38649 0.43722 0.0
C1720 C 0.22382 0.37294 0.3674 0.0
C1721 C 0.19928 0.38984 0.39895 0.0
C1722 C 0.24144 0.3748 0.35148 0.0
C1723 C 0.2524 0.39469 0.34894 0.0
C1724 C 0.21702 0.39114 0.38072 0.0
C1725 C 0.24487 0.4125 0.36237 0.0
C1726 C 0.19259 0.40857 0.41137 0.0
C1727 C 0.17557 0.36829 0.42341 0.0
N1728 N 0.22775 0.41028 0.37764 0.0
N1729 N 0.19029 0.37034 0.40508 0.0
H1730 H 0.40818 0.42145 0.17928 0.0
H1731 H 0.32675 0.49919 0.10616 0.0
H1732 H 0.33931 0.4264 0.1925 0.0
H1733 H 0.39622 0.50118 0.09609 0.0
H1734 H 0.33126 0.46959 0.13488 0.0
H1735 H 0.40428 0.44729 0.14549 0.0
C1736 C 0.39221 0.42762 0.17477 0.0
C1737 C 0.37405 0.42189 0.18878 0.0
C1738 C 0.34557 0.47639 0.12638 0.0
C1739 C 0.36952 0.45149 0.15052 0.0
C1740 C 0.34299 0.49328 0.10983 0.0
C1741 C 0.36112 0.5027 0.09856 0.0
C1742 C 0.36648 0.46873 0.13192 0.0
C1743 C 0.3818 0.49456 0.1045 0.0
C1744 C 0.39002 0.4425 0.15566 0.0
C1745 C 0.35378 0.43051 0.18232 0.0
N1746 N 0.38392 0.47804 0.12079 0.0
N1747 N 0.3521 0.44491 0.16381 0.0
H1748 H 0.26527 0.64999 0.83909 0.0
H1749 H 0.33281 0.58963 0.9433 0.0
H1750 H 0.25289 0.58492 0.86455 0.0
H1751 H 0.34069 0.65788 0.92812 0.0
H1752 H 0.30706 0.58693 0.91007 0.0
H1753 H 0.29568 0.65268 0.86779 0.0
C1754 C 0.26898 0.63626 0.85065 0.0
C1755 C 0.25637 0.61726 0.84956 0.0
C1756 C 0.31448 0.60251 0.91378 0.0
C1757 C 0.29116 0.62018 0.88223 0.0
C1758 C 0.3293 0.60404 0.93273 0.0
C1759 C 0.33876 0.62405 0.93865 0.0
C1760 C 0.30884 0.62115 0.90058 0.0
C1761 C 0.33376 0.64213 0.92415 0.0
C1762 C 0.28629 0.63784 0.86703 0.0
C1763 C 0.26186 0.60003 0.86503 0.0
N1764 N 0.31891 0.64031 0.9059 0.0
N1765 N 0.27879 0.60191 0.88064 0.0
H1766 H 0.16955 0.58512 0.69074 0.0
H1767 H 0.11028 0.50665 0.59617 0.0
H1768 H 0.10003 0.58505 0.68117 0.0
H1769 H 0.17975 0.5125 0.60417 0.0
H1770 H 0.10557 0.53586 0.626 0.0
H1771 H 0.17308 0.55988 0.65715 0.0
C1772 C 0.155 0.57994 0.68134 0.0
C1773 C 0.13447 0.58709 0.68884 0.0
C1774 C 0.12182 0.53081 0.62107 0.0
C1775 C 0.13833 0.55772 0.6504 0.0
C1776 C 0.12453 0.51403 0.6042 0.0
C1777 C 0.14546 0.50711 0.59758 0.0
C1778 C 0.14018 0.54062 0.6315 0.0
C1779 C 0.16332 0.51745 0.60838 0.0
C1780 C 0.15701 0.56545 0.66215 0.0
C1781 C 0.11618 0.57996 0.67589 0.0
N1782 N 0.16025 0.53356 0.62478 0.0
N1783 N 0.11851 0.56541 0.65743 0.0
H1784 H 0.17953 0.58932 0.09888 0.0
H1785 H 0.24191 0.64913 0.2072 0.0
H1786 H 0.16804 0.65666 0.11617 0.0
H1787 H 0.26046 0.58748 0.17646 0.0
H1788 H 0.21175 0.6512 0.17806 0.0
H1789 H 0.20536 0.58712 0.13208 0.0
C1790 C 0.18227 0.60363 0.10988 0.0
C1791 C 0.17177 0.62327 0.10456 0.0
C1792 C 0.22245 0.63726 0.17775 0.0
C1793 C 0.20173 0.62092 0.14263 0.0
C1794 C 0.23962 0.63604 0.19436 0.0
C1795 C 0.25383 0.61818 0.19412 0.0
C1796 C 0.21934 0.62035 0.16104 0.0
C1797 C 0.25016 0.60172 0.17707 0.0
C1798 C 0.19714 0.60238 0.1288 0.0
C1799 C 0.17579 0.64119 0.11964 0.0
N1800 N 0.2333 0.60319 0.16131 0.0
N1801 N 0.19067 0.63966 0.1379 0.0
H1802 H 0.16921 0.42069 0.85656 0.0
H1803 H 0.10984 0.50389 0.94561 0.0
H1804 H 0.09945 0.42448 0.86201 0.0
H1805 H 0.17905 0.49294 0.94363 0.0
H1806 H 0.105 0.47425 0.91635 0.0
H1807 H 0.17247 0.44569 0.89045 0.0
C1808 C 0.15454 0.4266 0.86517 0.0
C1809 C 0.13404 0.42059 0.85642 0.0
C1810 C 0.1212 0.47825 0.92251 0.0
C1811 C 0.13761 0.44973 0.89509 0.0
C1812 C 0.124 0.49527 0.93906 0.0
C1813 C 0.14489 0.50093 0.94715 0.0
C1814 C 0.13944 0.46694 0.91387 0.0
C1815 C 0.16261 0.48902 0.93824 0.0
C1816 C 0.1564 0.44095 0.88451 0.0
C1817 C 0.11557 0.42866 0.86831 0.0
N1818 N 0.15948 0.47273 0.92207 0.0
N1819 N 0.11778 0.4431 0.88688 0.0
H1820 H 0.33653 0.34886 0.61367 0.0
H1821 H 0.25822 0.43001 0.6863 0.0
H1822 H 0.33189 0.41787 0.60124 0.0
H1823 H 0.25902 0.36099 0.69975 0.0
H1824 H 0.2871 0.42544 0.65677 0.0
H1825 H 0.31051 0.35255 0.64733 0.0
C1826 C 0.33034 0.36479 0.61826 0.0
C1827 C 0.33625 0.38307 0.60453 0.0
C1828 C 0.28108 0.41123 0.66617 0.0
C1829 C 0.30647 0.38736 0.64265 0.0
C1830 C 0.26459 0.41386 0.68318 0.0
C1831 C 0.25621 0.39589 0.69571 0.0
C1832 C 0.28937 0.39042 0.6614 0.0
C1833 C 0.26486 0.37529 0.6904 0.0
C1834 C 0.31539 0.36687 0.63732 0.0
C1835 C 0.32763 0.40329 0.61114 0.0
N1836 N 0.28099 0.3731 0.67364 0.0
N1837 N 0.31316 0.40485 0.62957 0.0
H1838 H 0.40114 0.51486 0.4558 0.0
H1839 H 0.34125 0.58096 0.35025 0.0
H1840 H 0.33791 0.4994 0.42692 0.0
H1841 H 0.40961 0.58902 0.36501 0.0
H1842 H 0.33892 0.55474 0.383 0.0
H1843 H 0.40391 0.54498 0.42666 0.0
C1844 C 0.38785 0.51781 0.44337 0.0
C1845 C 0.36932 0.50448 0.44366 0.0
C1846 C 0.35445 0.56227 0.37925 0.0
C1847 C 0.3723 0.53892 0.41058 0.0
C1848 C 0.35579 0.57736 0.36056 0.0
C1849 C 0.37572 0.58704 0.35466 0.0
C1850 C 0.37318 0.55664 0.39229 0.0
C1851 C 0.39392 0.58191 0.36893 0.0
C1852 C 0.38947 0.53495 0.42675 0.0
C1853 C 0.35263 0.50899 0.42711 0.0
N1854 N 0.39227 0.56686 0.387 0.0
N1855 N 0.35451 0.5258 0.41134 0.0
H1856 H 0.09481 0.26501 0.38489 0.0
H1857 H 0.17042 0.16624 0.34323 0.0
H1858 H 0.15743 0.24985 0.4157 0.0
H1859 H 0.11299 0.18412 0.30313 0.0
H1860 H 0.16484 0.19689 0.36995 0.0
H1861 H 0.1 0.23577 0.35517 0.0
C1862 C 0.10966 0.25559 0.38543 0.0
C1863 C 0.12572 0.26 0.40293 0.0
C1864 C 0.15338 0.19428 0.35535 0.0
C1865 C 0.13173 0.22652 0.36887 0.0
C1866 C 0.15656 0.17668 0.33998 0.0
C1867 C 0.14206 0.17243 0.32094 0.0
C1868 C 0.13544 0.20797 0.35194 0.0
C1869 C 0.12444 0.18665 0.31774 0.0
C1870 C 0.11263 0.23897 0.36835 0.0
C1871 C 0.1447 0.24737 0.40246 0.0
N1872 N 0.12153 0.20377 0.3332 0.0
N1873 N 0.14708 0.23124 0.38588 0.0
H1874 H 0.07525 0.86387 0.5509 0.0
H1875 H 0.00866 0.91183 0.66428 0.0
H1876 H 0.09128 0.9225 0.58964 0.0
H1877 H 0.99665 0.84763 0.63605 0.0
H1878 H 0.03659 0.91702 0.63362 0.0
H1879 H 0.04435 0.85831 0.57883 0.0
C1880 C 0.07232 0.8755 0.56523 0.0
C1881 C 0.08607 0.8935 0.56814 0.0
C1882 C 0.02784 0.90178 0.634 0.0
C1883 C 0.0507 0.88754 0.59971 0.0
C1884 C 0.01168 0.89888 0.65146 0.0
C1885 C 1.00016 0.87926 0.65286 0.0
C1886 C 0.03268 0.885 0.6176 0.0
C1887 C 0.00525 0.86295 0.63588 0.0
C1888 C 0.05468 0.87238 0.5811 0.0
C1889 C 0.08126 0.90831 0.58672 0.0
N1890 N 0.02113 0.86616 0.61899 0.0
N1891 N 0.06411 0.90499 0.6017 0.0
H1892 H 0.40115 0.82477 0.80106 0.0
H1893 H 0.35178 0.7584 0.91391 0.0
H1894 H 0.34179 0.84083 0.83847 0.0
H1895 H 0.41601 0.74591 0.88591 0.0
H1896 H 0.34702 0.7866 0.88343 0.0
H1897 H 0.40639 0.79411 0.82934 0.0
C1898 C 0.38929 0.82191 0.8152 0.0
C1899 C 0.37115 0.83556 0.81759 0.0
C1900 C 0.36218 0.77769 0.88384 0.0
C1901 C 0.37677 0.80045 0.84959 0.0
C1902 C 0.36483 0.76139 0.90119 0.0
C1903 C 0.38433 0.74964 0.90259 0.0
C1904 C 0.37909 0.78244 0.86754 0.0
C1905 C 0.40079 0.75468 0.88575 0.0
C1906 C 0.39224 0.8044 0.83127 0.0
C1907 C 0.35608 0.83085 0.83595 0.0
N1908 N 0.39781 0.77068 0.86895 0.0
N1909 N 0.35923 0.81381 0.85115 0.0
H1910 H 0.43268 0.14969 0.05162 0.0
H1911 H 0.49946 0.09667 0.16196 0.0
H1912 H 0.41737 0.08868 0.08598 0.0
H1913 H 0.51008 0.16266 0.13848 0.0
H1914 H 0.47158 0.09275 0.13103 0.0
H1915 H 0.46319 0.15421 0.08021 0.0
C1916 C 0.4357 0.13731 0.06513 0.0
C1917 C 0.42229 0.11893 0.06661 0.0
C1918 C 0.47998 0.10812 0.13255 0.0
C1919 C 0.45721 0.12373 0.09894 0.0
C1920 C 0.49589 0.11041 0.15036 0.0
C1921 C 0.50706 0.13011 0.15314 0.0
C1922 C 0.47502 0.12563 0.11716 0.0
C1923 C 0.50201 0.14712 0.137 0.0
C1924 C 0.45312 0.13984 0.08139 0.0
C1925 C 0.42716 0.10318 0.0842 0.0
N1926 N 0.4863 0.14453 0.11979 0.0
N1927 N 0.44411 0.10596 0.09958 0.0
H1928 H 0.11304 0.82479 0.24194 0.0
H1929 H 0.1595 0.75742 0.12843 0.0
H1930 H 0.17008 0.84165 0.20064 0.0
H1931 H 0.09589 0.74512 0.15827 0.0
H1932 H 0.16483 0.78592 0.15835 0.0
H1933 H 0.10728 0.7935 0.21465 0.0
C1934 C 0.12427 0.82197 0.22718 0.0
C1935 C 0.1419 0.83604 0.2234 0.0
C1936 C 0.14969 0.77698 0.15848 0.0
C1937 C 0.13573 0.80023 0.19256 0.0
C1938 C 0.14671 0.76051 0.14145 0.0
C1939 C 0.12721 0.74874 0.14072 0.0
C1940 C 0.13311 0.7819 0.17513 0.0
C1941 C 0.1111 0.75391 0.15793 0.0
C1942 C 0.12104 0.80411 0.21167 0.0
C1943 C 0.1562 0.83138 0.20426 0.0
N1944 N 0.11439 0.7701 0.17441 0.0
N1945 N 0.1528 0.814 0.18967 0.0
H1946 H 0.49919 0.91263 0.38136 0.0
H1947 H 0.43359 0.86352 0.49485 0.0
H1948 H 0.51269 0.84909 0.41072 0.0
H1949 H 0.41666 0.9224 0.45697 0.0
H1950 H 0.46447 0.85869 0.46687 0.0
H1951 H 0.47109 0.91755 0.41194 0.0
C1952 C 0.49646 0.89978 0.39441 0.0
C1953 C 0.50842 0.88041 0.39334 0.0
C1954 C 0.45397 0.87266 0.46477 0.0
C1955 C 0.47576 0.88582 0.42846 0.0
C1956 C 0.43633 0.87537 0.48067 0.0
C1957 C 0.42235 0.89322 0.47803 0.0
C1958 C 0.45772 0.88807 0.44635 0.0
C1959 C 0.4269 0.90832 0.45964 0.0
C1960 C 0.48022 0.90253 0.41181 0.0
C1961 C 0.50373 0.86421 0.41061 0.0
N1962 N 0.44407 0.90538 0.44457 0.0
N1963 N 0.48777 0.86725 0.42741 0.0
H1964 H 0.4152 0.26263 0.65775 0.0
H1965 H 0.3385 0.16766 0.70742 0.0
H1966 H 0.35021 0.24984 0.63221 0.0
H1967 H 0.39957 0.18307 0.74158 0.0
H1968 H 0.34332 0.19798 0.67992 0.0
H1969 H 0.4107 0.23401 0.68835 0.0
C1970 C 0.39998 0.25387 0.65856 0.0
C1971 C 0.38305 0.25875 0.64225 0.0
C1972 C 0.35574 0.19489 0.69339 0.0
C1973 C 0.37782 0.22596 0.67736 0.0
C1974 C 0.353 0.17748 0.70919 0.0
C1975 C 0.36876 0.17262 0.72676 0.0
C1976 C 0.3745 0.20774 0.69487 0.0
C1977 C 0.38715 0.18606 0.72811 0.0
C1978 C 0.39741 0.2376 0.67614 0.0
C1979 C 0.36363 0.24697 0.64447 0.0
N1980 N 0.3896 0.20297 0.71225 0.0
N1981 N 0.36163 0.23115 0.66152 0.0
H1982 H 0.09163 0.0873 0.95605 0.0
H1983 H 0.99485 0.16424 0.91134 0.0
H1984 H 0.07497 0.14619 0.99398 0.0
H1985 H 0.0091 0.10097 0.88182 0.0
H1986 H 0.02363 0.15886 0.9416 0.0
H1987 H 0.06109 0.0928 0.92904 0.0
C1988 C 0.08148 0.10146 0.95876 0.0
C1989 C 0.08609 0.11645 0.9772 0.0
C1990 C 0.02032 0.14613 0.92858 0.0
C1991 C 0.05071 0.12297 0.94587 0.0
C1992 C 1.00397 0.14921 0.9112 0.0
C1993 C 0.99945 0.13303 0.89389 0.0
C1994 C 0.0324 0.12678 0.9286 0.0
C1995 C 0.01168 0.11381 0.89489 0.0
C1996 C 0.06395 0.10459 0.94322 0.0
C1997 C 0.07222 0.13441 0.97977 0.0
N1998 N 0.02756 0.11131 0.91177 0.0
N1999 N 0.05519 0.13727 0.96415 0.0
H2000 H 0.83814 0.84492 0.70409 0.0
H2001 H 0.91248 0.74729 0.65727 0.0
H2002 H 0.89657 0.82637 0.74195 0.0
H2003 H 0.84837 0.76213 0.63036 0.0
H2004 H 0.90792 0.77538 0.68851 0.0
H2005 H 0.84261 0.81432 0.6771 0.0
C2006 C 0.852 0.83434 0.70678 0.0
C2007 C 0.86716 0.83843 0.72519 0.0
C2008 C 0.89485 0.77236 0.67582 0.0
C2009 C 0.8725 0.80297 0.69386 0.0
C2010 C 0.89738 0.75627 0.65803 0.0
C2011 C 0.88087 0.75244 0.6409 0.0
C2012 C 0.87568 0.78471 0.67647 0.0
C2013 C 0.86176 0.76474 0.64274 0.0
C2014 C 0.85453 0.81677 0.69126 0.0
C2015 C 0.88469 0.82401 0.72775 0.0
N2016 N 0.85977 0.78029 0.66002 0.0
N2017 N 0.887 0.80695 0.7121 0.0
H2018 H 0.01599 0.16028 0.40884 0.0
H2019 H 0.91457 0.08927 0.45321 0.0
H2020 H 0.99467 0.10045 0.37593 0.0
H2021 H 0.93552 0.14606 0.49246 0.0
H2022 H 0.9446 0.09374 0.4254 0.0
H2023 H 0.98781 0.15595 0.44008 0.0
C2024 C 0.00554 0.14616 0.40825 0.0
C2025 C 0.00765 0.1308 0.3895 0.0
C2026 C 0.9428 0.10533 0.44002 0.0
C2027 C 0.97528 0.12587 0.42512 0.0
C2028 C 0.92555 0.10277 0.45603 0.0
C2029 C 0.92232 0.11744 0.47513 0.0
C2030 C 0.95719 0.12279 0.44284 0.0
C2031 C 0.93723 0.13455 0.47778 0.0
C2032 C 0.98939 0.14378 0.42604 0.0
C2033 C 0.99348 0.11296 0.38964 0.0
N2034 N 0.95401 0.13683 0.46171 0.0
N2035 N 0.97798 0.11106 0.40702 0.0
H2036 H 0.65943 0.2512 0.13092 0.0
H2037 H 0.61043 0.18379 0.24319 0.0
H2038 H 0.59537 0.2635 0.15951 0.0
H2039 H 0.66998 0.16839 0.20582 0.0
H2040 H 0.60508 0.21464 0.21522 0.0
H2041 H 0.66435 0.22274 0.16107 0.0
C2042 C 0.64645 0.24811 0.14371 0.0
C2043 C 0.62696 0.25988 0.14258 0.0
C2044 C 0.6193 0.20447 0.21323 0.0
C2045 C 0.63238 0.22679 0.17723 0.0
C2046 C 0.62232 0.18686 0.22914 0.0
C2047 C 0.64055 0.17335 0.22668 0.0
C2048 C 0.63478 0.20865 0.195 0.0
C2049 C 0.65563 0.17827 0.20839 0.0
C2050 C 0.6492 0.23166 0.16087 0.0
C2051 C 0.61059 0.25471 0.15948 0.0
N2052 N 0.6524 0.19541 0.19335 0.0
N2053 N 0.61365 0.23857 0.17608 0.0
H2054 H 0.51056 0.91141 0.88252 0.0
H2055 H 0.57715 0.86096 0.99457 0.0
H2056 H 0.49835 0.84686 0.90976 0.0
H2057 H 0.5936 0.92033 0.95741 0.0
H2058 H 0.54623 0.85623 0.96658 0.0
H2059 H 0.53865 0.91602 0.91316 0.0
C2060 C 0.51357 0.89826 0.89513 0.0
C2061 C 0.50198 0.8787 0.89344 0.0
C2062 C 0.55665 0.87028 0.96464 0.0
C2063 C 0.53464 0.88377 0.92862 0.0
C2064 C 0.57431 0.87293 0.98054 0.0
C2065 C 0.58816 0.8909 0.97811 0.0
C2066 C 0.55274 0.88588 0.94647 0.0
C2067 C 0.58347 0.90615 0.95992 0.0
C2068 C 0.52981 0.90083 0.91255 0.0
C2069 C 0.50702 0.86214 0.91014 0.0
N2070 N 0.56627 0.90328 0.94488 0.0
N2071 N 0.52298 0.86502 0.92699 0.0
H2072 H 0.84731 0.24849 0.91589 0.0
H2073 H 0.89665 0.18446 0.80146 0.0
H2074 H 0.91095 0.26285 0.88736 0.0
H2075 H 0.83742 0.16798 0.83893 0.0
H2076 H 0.90172 0.2151 0.82984 0.0
H2077 H 0.84273 0.22092 0.88482 0.0
C2078 C 0.8604 0.2458 0.90313 0.0
C2079 C 0.87966 0.25791 0.90453 0.0
C2080 C 0.88762 0.20473 0.83172 0.0
C2081 C 0.87444 0.22617 0.86839 0.0
C2082 C 0.88478 0.18725 0.81559 0.0
C2083 C 0.86677 0.17343 0.81805 0.0
C2084 C 0.87218 0.20846 0.85012 0.0
C2085 C 0.85165 0.17804 0.83637 0.0
C2086 C 0.85774 0.23006 0.88523 0.0
C2087 C 0.8958 0.25397 0.88697 0.0
N2088 N 0.85472 0.19501 0.85161 0.0
N2089 N 0.8929 0.23836 0.86971 0.0
H2090 H 0.51305 0.09678 0.66404 0.0
H2091 H 0.57684 0.14797 0.55042 0.0
H2092 H 0.49874 0.16084 0.63668 0.0
H2093 H 0.59428 0.08863 0.58711 0.0
H2094 H 0.54638 0.15249 0.57912 0.0
H2095 H 0.54095 0.09283 0.63315 0.0
C2096 C 0.51581 0.11009 0.65159 0.0
C2097 C 0.5036 0.12927 0.65326 0.0
C2098 C 0.55692 0.1385 0.58079 0.0
C2099 C 0.53568 0.12476 0.61732 0.0
C2100 C 0.57431 0.13597 0.56449 0.0
C2101 C 0.58831 0.11806 0.56657 0.0
C2102 C 0.55345 0.12285 0.59903 0.0
C2103 C 0.58403 0.10277 0.58483 0.0
C2104 C 0.53174 0.10779 0.6338 0.0
C2105 C 0.50765 0.14572 0.63607 0.0
N2106 N 0.56711 0.10553 0.60026 0.0
N2107 N 0.52341 0.14314 0.6189 0.0
H2108 H 0.67019 0.84381 0.33792 0.0
H2109 H 0.59588 0.74683 0.38731 0.0
H2110 H 0.6103 0.82609 0.30254 0.0
H2111 H 0.65975 0.76262 0.41421 0.0
H2112 H 0.60003 0.77494 0.356 0.0
H2113 H 0.66576 0.81374 0.36575 0.0
C2114 C 0.65602 0.83353 0.33596 0.0
C2115 C 0.64047 0.83768 0.31795 0.0
C2116 C 0.61313 0.77215 0.36872 0.0
C2117 C 0.63519 0.80281 0.35024 0.0
C2118 C 0.61084 0.75603 0.38655 0.0
C2119 C 0.62742 0.75241 0.40367 0.0
C2120 C 0.63215 0.78474 0.36797 0.0
C2121 C 0.64632 0.76504 0.40184 0.0
C2122 C 0.6535 0.81627 0.35196 0.0
C2123 C 0.62252 0.82367 0.31637 0.0
N2124 N 0.64809 0.78058 0.38447 0.0
N2125 N 0.62029 0.80688 0.33243 0.0
H2126 H 0.91874 0.9229 0.0885 0.0
H2127 H 0.01487 0.84627 0.13542 0.0
H2128 H 0.93569 0.86371 0.05131 0.0
H2129 H 1.00141 0.91048 0.16281 0.0
H2130 H 0.98633 0.85131 0.10479 0.0
H2131 H 0.9492 0.91773 0.11569 0.0
C2132 C 0.92893 0.90874 0.08599 0.0
C2133 C 0.92441 0.89356 0.0677 0.0
C2134 C 0.98976 0.86432 0.11741 0.0
C2135 C 0.95972 0.88743 0.09927 0.0
C2136 C 0.00598 0.86144 0.13502 0.0
C2137 C 0.01064 0.87798 0.15185 0.0
C2138 C 0.97795 0.88382 0.11672 0.0
C2139 C 0.99871 0.89735 0.15014 0.0
C2140 C 0.94642 0.9058 0.10163 0.0
C2141 C 0.93836 0.87563 0.06539 0.0
N2142 N 0.98294 0.89964 0.13307 0.0
N2143 N 0.95533 0.87295 0.08114 0.0
H2144 H 0.67235 0.66688 0.83762 0.0
H2145 H 0.59627 0.76318 0.88534 0.0
H2146 H 0.61161 0.6827 0.80291 0.0
H2147 H 0.66042 0.74916 0.9127 0.0
H2148 H 0.60085 0.73437 0.85504 0.0
H2149 H 0.66763 0.69739 0.86487 0.0
C2150 C 0.65795 0.67684 0.83568 0.0
C2151 C 0.64225 0.67205 0.81803 0.0
C2152 C 0.61395 0.73772 0.86759 0.0
C2153 C 0.63663 0.70736 0.84961 0.0
C2154 C 0.61133 0.7541 0.885 0.0
C2155 C 0.62798 0.75869 0.90173 0.0
C2156 C 0.63332 0.72568 0.86695 0.0
C2157 C 0.64722 0.74652 0.90009 0.0
C2158 C 0.65526 0.69434 0.85134 0.0
C2159 C 0.62399 0.68564 0.81644 0.0
N2160 N 0.64927 0.7306 0.88319 0.0
N2161 N 0.6216 0.70265 0.83214 0.0
H2162 H 0.59365 0.42349 0.0888 0.0
H2163 H 0.49486 0.34911 0.13402 0.0
H2164 H 0.57588 0.3646 0.05152 0.0
H2165 H 0.51502 0.40909 0.1675 0.0
H2166 H 0.52298 0.35419 0.10287 0.0
H2167 H 0.56376 0.41821 0.11667 0.0
C2168 C 0.58339 0.40937 0.08642 0.0
C2169 C 0.58751 0.39433 0.06789 0.0
C2170 C 0.52118 0.36622 0.11702 0.0
C2171 C 0.55282 0.38805 0.10024 0.0
C2172 C 0.50505 0.36341 0.13476 0.0
C2173 C 0.5026 0.37862 0.15362 0.0
C2174 C 0.5349 0.38442 0.11807 0.0
C2175 C 0.51646 0.39671 0.15368 0.0
C2176 C 0.56624 0.40634 0.10247 0.0
C2177 C 0.57349 0.37643 0.06577 0.0
N2178 N 0.53192 0.39904 0.13631 0.0
N2179 N 0.55679 0.37371 0.08185 0.0
H2180 H 0.83738 0.34097 0.33865 0.0
H2181 H 0.91581 0.24667 0.38652 0.0
H2182 H 0.89765 0.32587 0.30258 0.0
H2183 H 0.85117 0.25896 0.41343 0.0
H2184 H 0.91047 0.27513 0.35587 0.0
H2185 H 0.843 0.31064 0.36589 0.0
C2186 C 0.85188 0.33121 0.33639 0.0
C2187 C 0.8672 0.33621 0.31839 0.0
C2188 C 0.89743 0.27146 0.36839 0.0
C2189 C 0.87387 0.30105 0.35004 0.0
C2190 C 0.90049 0.25528 0.38601 0.0
C2191 C 0.88391 0.25031 0.40272 0.0
C2192 C 0.87772 0.2829 0.36754 0.0
C2193 C 0.86434 0.2619 0.40086 0.0
C2194 C 0.85508 0.3138 0.35206 0.0
C2195 C 0.88559 0.32281 0.31642 0.0
N2196 N 0.86188 0.27762 0.38378 0.0
N2197 N 0.88851 0.30589 0.33219 0.0
H2198 H 0.93359 0.64904 0.55109 0.0
H2199 H 0.9997 0.59894 0.66379 0.0
H2200 H 0.91741 0.5895 0.58805 0.0
H2201 H 0.01271 0.66305 0.63577 0.0
H2202 H 0.97151 0.59441 0.63327 0.0
H2203 H 0.96429 0.654 0.57936 0.0
C2204 C 0.93645 0.63708 0.56512 0.0
C2205 C 0.92275 0.61897 0.56737 0.0
C2206 C 0.98054 0.60949 0.63368 0.0
C2207 C 0.9579 0.62427 0.5994 0.0
C2208 C 0.99684 0.61202 0.65105 0.0
C2209 C 0.00873 0.63141 0.65247 0.0
C2210 C 0.97593 0.62644 0.61737 0.0
C2211 C 1.00383 0.6479 0.6356 0.0
C2212 C 0.95398 0.63986 0.58119 0.0
C2213 C 0.92743 0.60377 0.58562 0.0
N2214 N 0.98783 0.64506 0.61879 0.0
N2215 N 0.94449 0.60677 0.60083 0.0
H2216 H 0.67162 0.3439 0.70434 0.0
H2217 H 0.59733 0.24464 0.66139 0.0
H2218 H 0.61431 0.32488 0.74396 0.0
H2219 H 0.65982 0.26067 0.63084 0.0
H2220 H 0.60226 0.27354 0.69154 0.0
H2221 H 0.66669 0.31325 0.67739 0.0
C2222 C 0.65792 0.33322 0.70742 0.0
C2223 C 0.64322 0.33716 0.72635 0.0
C2224 C 0.61493 0.27059 0.67833 0.0
C2225 C 0.63736 0.30166 0.69512 0.0
C2226 C 0.6121 0.25417 0.66101 0.0
C2227 C 0.62819 0.25013 0.64343 0.0
C2228 C 0.63391 0.28323 0.67799 0.0
C2229 C 0.64708 0.26288 0.64412 0.0
C2230 C 0.65512 0.31563 0.69194 0.0
C2231 C 0.62585 0.32263 0.72938 0.0
N2232 N 0.64931 0.27883 0.66094 0.0
N2233 N 0.6233 0.30555 0.71381 0.0
H2234 H 0.93425 0.3621 0.99174 0.0
H2235 H 1.00105 0.41105 0.87905 0.0
H2236 H 0.91745 0.42045 0.95276 0.0
H2237 H 0.01262 0.3464 0.90633 0.0
H2238 H 0.97295 0.41593 0.9096 0.0
H2239 H 0.96522 0.35688 0.96388 0.0
C2240 C 0.93703 0.37375 0.97738 0.0
C2241 C 0.92307 0.39158 0.9744 0.0
C2242 C 0.98164 0.40066 0.90903 0.0
C2243 C 0.95852 0.38601 0.9429 0.0
C2244 C 0.99789 0.39793 0.89164 0.0
C2245 C 0.00932 0.37827 0.89 0.0
C2246 C 0.97664 0.38366 0.92512 0.0
C2247 C 1.00408 0.36175 0.90669 0.0
C2248 C 0.95471 0.37082 0.96154 0.0
C2249 C 0.92766 0.40639 0.95573 0.0
N2250 N 0.98813 0.3648 0.92352 0.0
N2251 N 0.94488 0.40327 0.9408 0.0
H2252 H 0.85147 0.75129 0.13025 0.0
H2253 H 0.90078 0.68364 0.24219 0.0
H2254 H 0.91623 0.76231 0.15748 0.0
H2255 H 0.84074 0.6687 0.20556 0.0
H2256 H 0.90619 0.71431 0.214 0.0
H2257 H 0.84642 0.72312 0.16073 0.0
C2258 C 0.86458 0.74798 0.1428 0.0
C2259 C 0.88431 0.7593 0.14118 0.0
C2260 C 0.89185 0.70428 0.21222 0.0
C2261 C 0.87873 0.72655 0.17621 0.0
C2262 C 0.88879 0.68677 0.22825 0.0
C2263 C 0.87041 0.67344 0.22606 0.0
C2264 C 0.87626 0.70854 0.19413 0.0
C2265 C 0.85522 0.67845 0.20792 0.0
C2266 C 0.86175 0.7317 0.16015 0.0
C2267 C 0.90083 0.75387 0.1578 0.0
N2268 N 0.85848 0.69548 0.19274 0.0
N2269 N 0.89768 0.7379 0.17459 0.0
H2270 H 0.59169 0.58813 0.45687 0.0
H2271 H 0.49617 0.66476 0.40819 0.0
H2272 H 0.57534 0.64832 0.49233 0.0
H2273 H 0.50973 0.60038 0.38137 0.0
H2274 H 0.52471 0.66 0.43884 0.0
H2275 H 0.56151 0.59319 0.42922 0.0
C2276 C 0.58169 0.60249 0.45889 0.0
C2277 C 0.58626 0.61794 0.47687 0.0
C2278 C 0.52131 0.6469 0.42633 0.0
C2279 C 0.5513 0.62394 0.4448 0.0
C2280 C 0.50509 0.64962 0.40872 0.0
C2281 C 0.50044 0.63295 0.39204 0.0
C2282 C 0.53315 0.62741 0.42722 0.0
C2283 C 0.51241 0.61361 0.39392 0.0
C2284 C 0.56437 0.60536 0.443 0.0
C2285 C 0.5726 0.63615 0.47853 0.0
N2286 N 0.52819 0.61147 0.41101 0.0
N2287 N 0.55578 0.63874 0.46258 0.0
H2288 H 0.34455 0.25618 0.13743 0.0
H2289 H 0.39844 0.32742 0.24353 0.0
H2290 H 0.41251 0.25084 0.15564 0.0
H2291 H 0.33616 0.33997 0.21058 0.0
H2292 H 0.40326 0.29637 0.21569 0.0
H2293 H 0.3404 0.2838 0.16858 0.0
C2294 C 0.35867 0.26084 0.14791 0.0
C2295 C 0.37899 0.25128 0.14354 0.0
C2296 C 0.38855 0.30596 0.21469 0.0
C2297 C 0.37426 0.283 0.17979 0.0
C2298 C 0.38584 0.32368 0.2305 0.0
C2299 C 0.36705 0.33655 0.22909 0.0
C2300 C 0.37217 0.30097 0.19775 0.0
C2301 C 0.35101 0.33068 0.21224 0.0
C2302 C 0.35626 0.2766 0.16586 0.0
C2303 C 0.39651 0.25767 0.15835 0.0
N2304 N 0.35395 0.31345 0.19731 0.0
N2305 N 0.39379 0.27321 0.17571 0.0
H2306 H 0.49859 0.59579 0.88127 0.0
H2307 H 0.43402 0.6456 0.99508 0.0
H2308 H 0.5123 0.65975 0.90919 0.0
H2309 H 0.41761 0.58611 0.95823 0.0
H2310 H 0.46462 0.65055 0.96664 0.0
H2311 H 0.47084 0.59127 0.91223 0.0
C2312 C 0.49573 0.60896 0.89386 0.0
C2313 C 0.50772 0.62829 0.89232 0.0
C2314 C 0.45429 0.63642 0.96489 0.0
C2315 C 0.47581 0.62311 0.92835 0.0
C2316 C 0.43682 0.63364 0.98105 0.0
C2317 C 0.42303 0.6156 0.97879 0.0
C2318 C 0.45806 0.62087 0.94663 0.0
C2319 C 0.42767 0.60036 0.96061 0.0
C2320 C 0.47989 0.60633 0.91169 0.0
C2321 C 0.50355 0.64452 0.90969 0.0
N2322 N 0.44465 0.60337 0.94532 0.0
N2323 N 0.48787 0.64163 0.92689 0.0
H2324 H 0.09722 0.7657 0.65784 0.0
H2325 H 0.16967 0.66462 0.70037 0.0
H2326 H 0.15662 0.74474 0.62359 0.0
H2327 H 0.11306 0.6847 0.74058 0.0
H2328 H 0.16447 0.69466 0.67276 0.0
H2329 H 0.10211 0.73732 0.68878 0.0
C2330 C 0.11135 0.75527 0.65689 0.0
C2331 C 0.12644 0.75755 0.63786 0.0
C2332 C 0.15308 0.69267 0.68754 0.0
C2333 C 0.13201 0.72498 0.67314 0.0
C2334 C 0.15605 0.67541 0.70344 0.0
C2335 C 0.14166 0.67195 0.72278 0.0
C2336 C 0.13548 0.70684 0.69071 0.0
C2337 C 0.12438 0.68662 0.72574 0.0
C2338 C 0.11406 0.73902 0.67451 0.0
C2339 C 0.14432 0.74343 0.63753 0.0
N2340 N 0.12169 0.70343 0.70977 0.0
N2341 N 0.14653 0.72783 0.65476 0.0
H2342 H 0.01279 0.41107 0.37785 0.0
H2343 H 0.07538 0.36395 0.4946 0.0
H2344 H 0.99664 0.34895 0.4092 0.0
H2345 H 0.09195 0.42284 0.45655 0.0
H2346 H 0.04511 0.35836 0.46582 0.0
H2347 H 0.04043 0.41601 0.40881 0.0
C2348 C 0.0151 0.39837 0.39119 0.0
C2349 C 1.00243 0.37945 0.39063 0.0
C2350 C 0.05541 0.3725 0.46389 0.0
C2351 C 0.03425 0.38512 0.4267 0.0
C2352 C 0.07269 0.37564 0.48024 0.0
C2353 C 0.08643 0.3937 0.47777 0.0
C2354 C 0.05181 0.38769 0.44518 0.0
C2355 C 0.08194 0.40858 0.45914 0.0
C2356 C 0.03088 0.40125 0.40904 0.0
C2357 C 0.00593 0.36385 0.40893 0.0
N2358 N 0.06517 0.40521 0.44365 0.0
N2359 N 0.02158 0.36696 0.42613 0.0
H2360 H 0.34909 0.75267 0.41352 0.0
H2361 H 0.39753 0.68494 0.30146 0.0
H2362 H 0.41348 0.76432 0.38552 0.0
H2363 H 0.34 0.6679 0.34181 0.0
H2364 H 0.4027 0.71639 0.32862 0.0
H2365 H 0.34413 0.72427 0.38339 0.0
C2366 C 0.36212 0.74946 0.40084 0.0
C2367 C 0.38174 0.76098 0.40216 0.0
C2368 C 0.38896 0.70571 0.33142 0.0
C2369 C 0.37628 0.72796 0.36758 0.0
C2370 C 0.38606 0.68776 0.31599 0.0
C2371 C 0.36848 0.67361 0.31957 0.0
C2372 C 0.37396 0.70958 0.35022 0.0
C2373 C 0.35387 0.67826 0.33839 0.0
C2374 C 0.35935 0.73305 0.38371 0.0
C2375 C 0.39817 0.75571 0.38539 0.0
N2376 N 0.35694 0.69574 0.35291 0.0
N2377 N 0.3951 0.73957 0.36882 0.0
H2378 H 0.09244 0.58424 0.0846 0.0
H2379 H 0.99739 0.6605 0.13478 0.0
H2380 H 0.07609 0.64476 0.04973 0.0
H2381 H 0.01162 0.59607 0.16108 0.0
H2382 H 0.02509 0.65574 0.10314 0.0
H2383 H 0.06221 0.58895 0.11216 0.0
C2384 C 0.08242 0.5986 0.08268 0.0
C2385 C 0.08706 0.61429 0.06498 0.0
C2386 C 0.02204 0.64264 0.11579 0.0
C2387 C 0.05203 0.61992 0.09697 0.0
C2388 C 0.00615 0.64529 0.13381 0.0
C2389 C 1.00223 0.62873 0.15087 0.0
C2390 C 0.03409 0.62329 0.11479 0.0
C2391 C 0.01429 0.60948 0.14876 0.0
C2392 C 0.06507 0.60129 0.09853 0.0
C2393 C 0.07332 0.63246 0.06339 0.0
N2394 N 0.02962 0.60737 0.13122 0.0
N2395 N 0.05648 0.63488 0.07934 0.0
H2396 H 0.11292 0.32533 0.80119 0.0
H2397 H 0.15948 0.25874 0.91534 0.0
H2398 H 0.17008 0.34245 0.84213 0.0
H2399 H 0.09569 0.24654 0.88597 0.0
H2400 H 0.16482 0.28701 0.88508 0.0
H2401 H 0.10714 0.29432 0.82891 0.0
C2402 C 0.12417 0.32263 0.81597 0.0
C2403 C 0.14183 0.33669 0.81953 0.0
C2404 C 0.14963 0.27815 0.88513 0.0
C2405 C 0.13564 0.30119 0.85084 0.0
C2406 C 0.14665 0.26181 0.90235 0.0
C2407 C 0.1271 0.25013 0.90331 0.0
C2408 C 0.133 0.28301 0.86851 0.0
C2409 C 0.11094 0.25526 0.88614 0.0
C2410 C 0.12092 0.30493 0.83172 0.0
C2411 C 0.15617 0.33217 0.83868 0.0
N2412 N 0.11423 0.27131 0.86946 0.0
N2413 N 0.15276 0.31493 0.85351 0.0
H2414 H 0.5149 0.34452 0.63671 0.0
H2415 H 0.4151 0.41835 0.59413 0.0
H2416 H 0.4989 0.40711 0.66692 0.0
H2417 H 0.43495 0.362 0.55339 0.0
H2418 H 0.44566 0.41326 0.62116 0.0
H2419 H 0.48588 0.34933 0.60658 0.0
C2420 C 0.50535 0.35928 0.63702 0.0
C2421 C 0.50943 0.37545 0.65449 0.0
C2422 C 0.44349 0.40193 0.60636 0.0
C2423 C 0.4762 0.381 0.61998 0.0
C2424 C 0.42594 0.40482 0.59081 0.0
C2425 C 0.42227 0.39046 0.5715 0.0
C2426 C 0.45771 0.38442 0.60287 0.0
C2427 C 0.437 0.37328 0.56823 0.0
C2428 C 0.48886 0.36203 0.61971 0.0
C2429 C 0.49665 0.39431 0.65373 0.0
N2430 N 0.45405 0.37065 0.58387 0.0
N2431 N 0.48064 0.39646 0.63694 0.0
H2432 H 0.07817 0.05886 0.26037 0.0
H2433 H 0.14732 0.9498 0.26405 0.0
H2434 H 0.14613 0.05894 0.27925 0.0
H2435 H 0.079 0.95121 0.28114 0.0
H2436 H 0.14767 0.98963 0.26376 0.0
H2437 H 0.07856 0.01903 0.26094 0.0
C2438 C 0.09324 0.0505 0.26427 0.0
C2439 C 0.11217 0.06219 0.26973 0.0
C2440 C 0.13266 0.98119 0.26776 0.0
C2441 C 0.1127 0.01673 0.27043 0.0
C2442 C 0.13247 0.9585 0.26803 0.0
C2443 C 0.11315 0.94721 0.27281 0.0
C2444 C 0.11328 0.99266 0.27172 0.0
C2445 C 0.09429 0.95928 0.27757 0.0
C2446 C 0.0934 0.0278 0.26482 0.0
C2447 C 0.13121 0.05052 0.27487 0.0
N2448 N 0.09476 0.98136 0.27663 0.0
N2449 N 0.13103 0.02843 0.27502 0.0
H2450 H 0.20015 0.8955 0.53123 0.0
H2451 H 0.30873 0.82489 0.53177 0.0
H2452 H 0.20076 0.82741 0.51318 0.0
H2453 H 0.30913 0.89387 0.51837 0.0
H2454 H 0.26888 0.82552 0.53134 0.0
H2455 H 0.23997 0.89532 0.53183 0.0
C2456 C 0.20869 0.88057 0.52714 0.0
C2457 C 0.19717 0.86148 0.522 0.0
C2458 C 0.27772 0.84052 0.52863 0.0
C2459 C 0.24264 0.86101 0.52332 0.0
C2460 C 0.30043 0.84021 0.5291 0.0
C2461 C 0.31222 0.85938 0.52513 0.0
C2462 C 0.26673 0.86018 0.52455 0.0
C2463 C 0.30064 0.87874 0.52155 0.0
C2464 C 0.23138 0.88047 0.52756 0.0
C2465 C 0.20902 0.84252 0.51705 0.0
N2466 N 0.27854 0.87867 0.5214 0.0
N2467 N 0.23112 0.84271 0.51807 0.0
H2468 H 0.43597 0.95028 0.7613 0.0
H2469 H 0.36615 0.05927 0.76733 0.0
H2470 H 0.36751 0.94984 0.77776 0.0
H2471 H 0.43509 0.05774 0.78094 0.0
H2472 H 0.36584 0.01944 0.76639 0.0
H2473 H 0.43551 0.99006 0.76247 0.0
C2474 C 0.42077 0.95856 0.76482 0.0
C2475 C 0.40174 0.94675 0.76945 0.0
C2476 C 0.38099 0.02783 0.76978 0.0
C2477 C 0.40113 0.99224 0.7709 0.0
C2478 C 0.38117 0.05053 0.77041 0.0
C2479 C 0.40065 0.06181 0.77434 0.0
C2480 C 0.40052 0.01633 0.77261 0.0
C2481 C 0.41968 0.0497 0.77801 0.0
C2482 C 0.42057 0.98125 0.76571 0.0
C2483 C 0.38254 0.95834 0.77409 0.0
N2484 N 0.41919 0.02763 0.7768 0.0
N2485 N 0.3827 0.98044 0.77465 0.0
H2486 H 0.20001 0.11574 1.01298 0.0
H2487 H 0.30865 0.18632 1.01109 0.0
H2488 H 0.20076 0.18424 0.02899 0.0
H2489 H 0.30903 0.11733 0.02442 0.0
H2490 H 0.26882 0.18574 1.01153 0.0
H2491 H 0.23981 0.11582 1.01223 0.0
C2492 C 0.20858 0.13074 1.01659 0.0
C2493 C 0.19711 0.14999 1.02118 0.0
C2494 C 0.27764 0.17073 1.01424 0.0
C2495 C 0.24256 0.15032 1.01971 0.0
C2496 C 0.30035 0.17101 1.01375 0.0
C2497 C 0.31213 0.15183 1.01773 0.0
C2498 C 0.26665 0.15109 1.01836 0.0
C2499 C 0.30054 0.13247 1.02127 0.0
C2500 C 0.23127 0.13079 1.01608 0.0
C2501 C 0.20899 0.16902 0.02554 0.0
N2502 N 0.27845 0.13257 1.02147 0.0
N2503 N 0.23108 0.16875 0.02448 0.0
H2504 H 0.86569 0.05979 0.78066 0.0
H2505 H 0.93502 0.9505 0.78453 0.0
H2506 H 0.9347 0.05871 0.76744 0.0
H2507 H 0.8668 0.95123 0.76688 0.0
H2508 H 0.93495 0.99035 0.78462 0.0
H2509 H 0.86547 0.02002 0.78084 0.0
C2510 C 0.88075 0.05115 0.77753 0.0
C2511 C 0.90021 0.06251 0.77388 0.0
C2512 C 0.91999 0.98175 0.78086 0.0
C2513 C 0.90019 0.0171 0.77472 0.0
C2514 C 0.91997 0.95904 0.78104 0.0
C2515 C 0.90087 0.94759 0.77573 0.0
C2516 C 0.90069 0.99302 0.77571 0.0
C2517 C 0.88185 0.95946 0.77112 0.0
C2518 C 0.88063 0.02849 0.77772 0.0
C2519 C 0.91932 0.05055 0.77014 0.0
N2520 N 0.88223 0.98153 0.77126 0.0
N2521 N 0.91887 0.02847 0.77089 0.0
H2522 H 0.70106 0.1171 0.52641 0.0
H2523 H 0.81063 0.1861 0.53365 0.0
H2524 H 0.70258 0.18638 0.5153 0.0
H2525 H 0.80994 0.11776 0.51678 0.0
H2526 H 0.77077 0.18624 0.53267 0.0
H2527 H 0.74082 0.11672 0.52742 0.0
C2528 C 0.70979 0.13219 0.52388 0.0
C2529 C 0.69853 0.15177 0.52061 0.0
C2530 C 0.77937 0.17121 0.52931 0.0
C2531 C 0.74399 0.15156 0.52241 0.0
C2532 C 0.80209 0.17107 0.53011 0.0
C2533 C 0.81358 0.15187 0.52533 0.0
C2534 C 0.76809 0.15195 0.52404 0.0
C2535 C 0.80169 0.1329 0.52062 0.0
C2536 C 0.73247 0.13198 0.52456 0.0
C2537 C 0.71063 0.1709 0.51767 0.0
N2538 N 0.77961 0.1334 0.52012 0.0
N2539 N 0.73272 0.17035 0.51887 0.0
H2540 H 0.64383 0.05971 0.26695 0.0
H2541 H 0.57303 0.95117 0.26212 0.0
H2542 H 0.57502 0.05871 0.28145 0.0
H2543 H 0.64205 0.95052 0.27532 0.0
H2544 H 0.57364 0.99097 0.26337 0.0
H2545 H 0.64375 0.01993 0.26549 0.0
C2546 C 0.62876 0.05109 0.27012 0.0
C2547 C 0.60943 0.0625 0.27445 0.0
C2548 C 0.58866 0.9821 0.26586 0.0
C2549 C 0.60911 0.01707 0.27215 0.0
C2550 C 0.58836 0.95941 0.26491 0.0
C2551 C 0.60753 0.94755 0.26862 0.0
C2552 C 0.60832 0.99301 0.27023 0.0
C2553 C 0.62692 0.95907 0.27236 0.0
C2554 C 0.62871 0.02841 0.26918 0.0
C2555 C 0.59032 0.05055 0.27822 0.0
N2556 N 0.62683 0.98115 0.27305 0.0
N2557 N 0.5906 0.02849 0.27675 0.0
H2558 H 0.70098 0.8929 1.01951 0.0
H2559 H 0.8109 0.82452 1.01458 0.0
H2560 H 0.70271 0.82376 0.03159 0.0
H2561 H 0.80987 0.89269 0.03226 0.0
H2562 H 0.77105 0.82425 1.01519 0.0
H2563 H 0.74078 0.89352 1.01967 0.0
C2564 C 0.70975 0.87789 0.0225 0.0
C2565 C 0.69854 0.85827 0.02569 0.0
C2566 C 0.77957 0.83927 1.01885 0.0
C2567 C 0.74404 0.85877 0.02521 0.0
C2568 C 0.80228 0.83948 1.01829 0.0
C2569 C 0.81368 0.85867 0.02336 0.0
C2570 C 0.76817 0.85846 0.02414 0.0
C2571 C 0.8017 0.87756 0.02823 0.0
C2572 C 0.73244 0.87825 0.02249 0.0
C2573 C 0.71071 0.83926 0.02924 0.0
N2574 N 0.7796 0.877 0.02843 0.0
N2575 N 0.73281 0.83994 0.02865 0.0
H2576 H 0.64425 0.55917 0.77679 0.0
H2577 H 0.57532 0.44976 0.78392 0.0
H2578 H 0.5751 0.55759 0.76458 0.0
H2579 H 0.64338 0.4502 0.76551 0.0
H2580 H 0.57531 0.4896 0.78292 0.0
H2581 H 0.64468 0.51939 0.77754 0.0
C2582 C 0.62921 0.55043 0.77396 0.0
C2583 C 0.60964 0.56167 0.77046 0.0
C2584 C 0.59026 0.48095 0.77922 0.0
C2585 C 0.6099 0.51623 0.77201 0.0
C2586 C 0.59032 0.45825 0.78003 0.0
C2587 C 0.6094 0.44669 0.77484 0.0
C2588 C 0.60948 0.49215 0.77356 0.0
C2589 C 0.62834 0.4585 0.76968 0.0
C2590 C 0.62945 0.52775 0.7745 0.0
C2591 C 0.59057 0.54955 0.76714 0.0
N2592 N 0.62793 0.48057 0.76923 0.0
N2593 N 0.59113 0.52748 0.76825 0.0
H2594 H 0.81034 0.32656 0.03601 0.0
H2595 H 0.70052 0.39481 0.03134 0.0
H2596 H 0.80931 0.39432 1.01634 0.0
H2597 H 0.70221 0.32583 1.01832 0.0
H2598 H 0.74031 0.39541 0.03129 0.0
H2599 H 0.7705 0.32643 0.03609 0.0
C2600 C 0.80174 0.34149 0.03206 0.0
C2601 C 0.81312 0.3605 0.02619 0.0
C2602 C 0.73197 0.38018 0.02827 0.0
C2603 C 0.76764 0.36044 0.0262 0.0
C2604 C 0.70929 0.37984 0.02821 0.0
C2605 C 0.69809 0.36027 0.02466 0.0
C2606 C 0.74354 0.36073 0.02528 0.0
C2607 C 0.71023 0.34128 1.02094 0.0
C2608 C 0.77903 0.34134 0.03189 0.0
C2609 C 0.80114 0.37934 1.02102 0.0
N2610 N 0.73232 0.34194 1.02159 0.0
N2611 N 0.77905 0.37886 1.0212 0.0
H2612 H 0.93496 0.55918 0.28381 0.0
H2613 H 0.86493 0.4504 0.28214 0.0
H2614 H 0.86629 0.55959 0.2684 0.0
H2615 H 0.93329 0.45153 0.2652 0.0
H2616 H 0.86475 0.49023 0.28252 0.0
H2617 H 0.93435 0.5194 0.28359 0.0
C2618 C 0.91969 0.5509 0.28073 0.0
C2619 C 0.90063 0.56268 0.27611 0.0
C2620 C 0.87974 0.48174 0.27855 0.0
C2621 C 0.89985 0.51722 0.27577 0.0
C2622 C 0.87984 0.45905 0.27825 0.0
C2623 C 0.89913 0.44767 0.2735 0.0
C2624 C 0.89916 0.49313 0.27458 0.0
C2625 C 0.91804 0.45966 0.26879 0.0
C2626 C 0.9194 0.52821 0.28038 0.0
C2627 C 0.88134 0.5511 0.27206 0.0
N2628 N 0.91764 0.48174 0.26969 0.0
N2629 N 0.88141 0.529 0.27203 0.0
H2630 H 0.69955 0.61526 0.51802 0.0
H2631 H 0.8085 0.68517 0.51129 0.0
H2632 H 0.70091 0.68422 0.53125 0.0
H2633 H 0.80892 0.61672 0.52769 0.0
H2634 H 0.76869 0.68476 0.51265 0.0
H2635 H 0.73937 0.61505 0.51684 0.0
C2636 C 0.70825 0.63031 0.52096 0.0
C2637 C 0.69693 0.64976 0.52487 0.0
C2638 C 0.77751 0.66982 0.51584 0.0
C2639 C 0.74242 0.64975 0.52288 0.0
C2640 C 0.80021 0.66999 0.51483 0.0
C2641 C 0.81202 0.65094 0.51937 0.0
C2642 C 0.76651 0.65038 0.52106 0.0
C2643 C 0.80042 0.63176 0.52406 0.0
C2644 C 0.73095 0.63019 0.5202 0.0
C2645 C 0.709 0.66884 0.52836 0.0
N2646 N 0.77832 0.63195 0.52474 0.0
N2647 N 0.73108 0.66839 0.52704 0.0
H2648 H 0.36489 0.56041 0.27757 0.0
H2649 H 0.43519 0.45183 0.27892 0.0
H2650 H 0.4333 0.55975 0.26091 0.0
H2651 H 0.36635 0.45155 0.26452 0.0
H2652 H 0.43469 0.49165 0.27819 0.0
H2653 H 0.36488 0.52063 0.27748 0.0
C2654 C 0.37984 0.55187 0.27358 0.0
C2655 C 0.39909 0.56336 0.2691 0.0
C2656 C 0.4197 0.48285 0.27528 0.0
C2657 C 0.39934 0.51792 0.26967 0.0
C2658 C 0.41993 0.46016 0.27592 0.0
C2659 C 0.40077 0.44842 0.27177 0.0
C2660 C 0.4001 0.49385 0.27085 0.0
C2661 C 0.38147 0.46002 0.2678 0.0
C2662 C 0.37984 0.5292 0.27363 0.0
C2663 C 0.41807 0.55151 0.26428 0.0
N2664 N 0.38161 0.4821 0.2675 0.0
N2665 N 0.41777 0.52942 0.26495 0.0
H2666 H 0.30952 0.6857 0.02964 0.0
H2667 H 0.20048 0.61566 0.02759 0.0
H2668 H 0.309 0.6171 1.01417 0.0
H2669 H 0.20098 0.68479 1.01527 0.0
H2670 H 0.24026 0.61566 0.0271 0.0
H2671 H 0.26966 0.68553 0.02982 0.0
C2672 C 0.30101 0.67056 0.02657 0.0
C2673 C 0.31253 0.65137 1.02189 0.0
C2674 C 0.23167 0.63081 0.02433 0.0
C2675 C 0.26705 0.65108 1.022 0.0
C2676 C 0.20899 0.63081 0.02454 0.0
C2677 C 0.19746 0.65024 1.02137 0.0
C2678 C 0.24293 0.65045 1.02135 0.0
C2679 C 0.20927 0.66943 1.01763 0.0
C2680 C 0.27829 0.67052 0.02647 0.0
C2681 C 0.30071 0.63224 1.01786 0.0
N2682 N 0.23138 0.6691 1.01795 0.0
N2683 N 0.27863 0.63256 1.01806 0.0
H2684 H 0.14562 0.45021 0.78012 0.0
H2685 H 0.07603 0.55924 0.78244 0.0
H2686 H 0.07736 0.4514 0.76269 0.0
H2687 H 0.14456 0.55922 0.76632 0.0
H2688 H 0.07638 0.5194 0.78192 0.0
H2689 H 0.14579 0.49001 0.78065 0.0
C2690 C 0.13073 0.45886 0.77612 0.0
C2691 C 0.11149 0.4475 0.77116 0.0
C2692 C 0.09135 0.52815 0.77864 0.0
C2693 C 0.11142 0.49296 0.77249 0.0
C2694 C 0.09121 0.55085 0.77917 0.0
C2695 C 0.11032 0.56252 0.77446 0.0
C2696 C 0.1108 0.51705 0.77378 0.0
C2697 C 0.12949 0.55082 0.7701 0.0
C2698 C 0.13082 0.48155 0.77652 0.0
C2699 C 0.09259 0.45952 0.76639 0.0
N2700 N 0.12927 0.52873 0.76993 0.0
N2701 N 0.09297 0.4816 0.76742 0.0
H2702 H 0.20039 0.39477 0.51351 0.0
H2703 H 0.30992 0.32566 0.5087 0.0
H2704 H 0.20173 0.32568 0.52601 0.0
H2705 H 0.30926 0.39358 0.52758 0.0
H2706 H 0.27006 0.3258 0.50847 0.0
H2707 H 0.24021 0.39509 0.51319 0.0
C2708 C 0.20909 0.3797 0.51641 0.0
C2709 C 0.19777 0.36019 0.51993 0.0
C2710 C 0.27867 0.34068 0.51252 0.0
C2711 C 0.24326 0.36035 0.51895 0.0
C2712 C 0.30139 0.34067 0.51243 0.0
C2713 C 0.31289 0.35966 0.51814 0.0
C2714 C 0.26738 0.35989 0.51798 0.0
C2715 C 0.30101 0.37861 0.52304 0.0
C2716 C 0.23178 0.37989 0.51616 0.0
C2717 C 0.20983 0.3411 0.52341 0.0
N2718 N 0.27891 0.37827 0.5228 0.0
N2719 N 0.23192 0.34161 0.5226 0.0
H2720 H 0.09372 0.15997 0.08299 0.0
H2721 H 0.15746 0.14131 0.20762 0.0
H2722 H 0.15367 0.12451 0.09133 0.0
H2723 H 0.08748 0.14482 0.20903 0.0
H2724 H 0.15672 0.1449 0.16389 0.0
H2725 H 0.09134 0.16288 0.12785 0.0
C2726 C 0.10638 0.15294 0.09413 0.0
C2727 C 0.12386 0.14185 0.08327 0.0
C2728 C 0.14146 0.14506 0.17366 0.0
C2729 C 0.12145 0.14546 0.13423 0.0
C2730 C 0.14184 0.14305 0.1988 0.0
C2731 C 0.12247 0.14241 0.21225 0.0
C2732 C 0.12158 0.14651 0.16136 0.0
C2733 C 0.10282 0.14516 0.19947 0.0
C2734 C 0.10495 0.15451 0.11967 0.0
C2735 C 0.13976 0.13302 0.09867 0.0
N2736 N 0.10283 0.14688 0.17465 0.0
N2737 N 0.13822 0.13513 0.12308 0.0
H2738 H 0.1011 0.84295 0.46126 0.0
H2739 H 0.15632 0.87695 0.33823 0.0
H2740 H 0.14085 0.90014 0.45219 0.0
H2741 H 0.08819 0.86075 0.33362 0.0
H2742 H 0.15421 0.87478 0.38197 0.0
H2743 H 0.09849 0.84013 0.41644 0.0
C2744 C 0.10912 0.85494 0.45004 0.0
C2745 C 0.1213 0.87176 0.46079 0.0
C2746 C 0.13973 0.87149 0.37144 0.0
C2747 C 0.11869 0.86833 0.4098 0.0
C2748 C 0.14085 0.87271 0.34628 0.0
C2749 C 0.12228 0.86939 0.33186 0.0
C2750 C 0.12 0.86664 0.38282 0.0
C2751 C 0.1029 0.86357 0.34388 0.0
C2752 C 0.10755 0.85334 0.42451 0.0
C2753 C 0.13131 0.88681 0.44514 0.0
N2754 N 0.10219 0.8625 0.36874 0.0
N2755 N 0.13001 0.88455 0.42072 0.0
H2756 H 0.42734 0.8839 0.70835 0.0
H2757 H 0.3803 0.83382 0.58539 0.0
H2758 H 0.36656 0.84933 0.70711 0.0
H2759 H 0.40541 0.89904 0.58835 0.0
H2760 H 0.38489 0.83097 0.62973 0.0
H2761 H 0.42915 0.881 0.66378 0.0
C2762 C 0.41475 0.87511 0.69877 0.0
C2763 C 0.39686 0.86668 0.71142 0.0
C2764 C 0.38977 0.84572 0.62052 0.0
C2765 C 0.39891 0.86319 0.66066 0.0
C2766 C 0.38733 0.8473 0.59526 0.0
C2767 C 0.39256 0.86667 0.58318 0.0
C2768 C 0.3981 0.8634 0.63366 0.0
C2769 C 0.40122 0.88381 0.59695 0.0
C2770 C 0.41569 0.87365 0.67339 0.0
C2771 C 0.38069 0.85592 0.69805 0.0
N2772 N 0.4038 0.88176 0.6214 0.0
N2773 N 0.38212 0.85441 0.67344 0.0
H2774 H 0.42701 0.12941 0.83542 0.0
H2775 H 0.3768 0.17728 0.95804 0.0
H2776 H 0.36282 0.15716 0.83756 0.0
H2777 H 0.40963 0.11555 0.95666 0.0
H2778 H 0.38045 0.17947 0.91355 0.0
H2779 H 0.42951 0.13369 0.87981 0.0
C2780 C 0.41373 0.13697 0.84513 0.0
C2781 C 0.39472 0.14304 0.8328 0.0
C2782 C 0.38727 0.16571 0.92312 0.0
C2783 C 0.39757 0.1482 0.88335 0.0
C2784 C 0.38539 0.16455 0.94847 0.0
C2785 C 0.39309 0.14629 0.96104 0.0
C2786 C 0.39744 0.14876 0.91037 0.0
C2787 C 0.4036 0.12997 0.94766 0.0
C2788 C 0.41509 0.13924 0.87042 0.0
C2789 C 0.37778 0.15234 0.84636 0.0
N2790 N 0.40553 0.1316 0.9231 0.0
N2791 N 0.37962 0.15471 0.87085 0.0
H2792 H 0.85432 0.86683 0.83694 0.0
H2793 H 0.91853 0.8515 0.96202 0.0
H2794 H 0.92438 0.86645 0.83618 0.0
H2795 H 0.85629 0.8827 0.95342 0.0
H2796 H 0.92116 0.84854 0.91718 0.0
H2797 H 0.85488 0.86287 0.88065 0.0
C2798 C 0.86993 0.86567 0.84592 0.0
C2799 C 0.88935 0.86731 0.83267 0.0
C2800 C 0.90698 0.85596 0.92529 0.0
C2801 C 0.89005 0.86287 0.88352 0.0
C2802 C 0.90541 0.85755 0.95081 0.0
C2803 C 0.88722 0.8675 0.96156 0.0
C2804 C 0.88994 0.86383 0.91065 0.0
C2805 C 0.87075 0.87512 0.94612 0.0
C2806 C 0.8702 0.86347 0.87103 0.0
C2807 C 0.90901 0.86532 0.8456 0.0
N2808 N 0.87247 0.87302 0.92172 0.0
N2809 N 0.90889 0.86343 0.8704 0.0
H2810 H 0.88096 0.10305 0.70514 0.0
H2811 H 0.89434 0.17501 0.58654 0.0
H2812 H 0.90692 0.16774 0.71188 0.0
H2813 H 0.89464 0.10501 0.58793 0.0
H2814 H 0.89827 0.17501 0.63127 0.0
H2815 H 0.8841 0.10559 0.66146 0.0
C2816 C 0.88745 0.11786 0.69739 0.0
C2817 C 0.89366 0.1352 0.71234 0.0
C2818 C 0.89781 0.15972 0.62161 0.0
C2819 C 0.89716 0.13838 0.6615 0.0
C2820 C 0.89566 0.1597 0.59609 0.0
C2821 C 0.89387 0.13997 0.58334 0.0
C2822 C 0.89801 0.13988 0.63435 0.0
C2823 C 0.89556 0.12066 0.59679 0.0
C2824 C 0.88932 0.11928 0.6723 0.0
C2825 C 0.90206 0.15393 0.70106 0.0
N2826 N 0.89727 0.12114 0.62132 0.0
N2827 N 0.90332 0.15516 0.67623 0.0
H2828 H 0.63373 0.17696 0.45845 0.0
H2829 H 0.58387 0.12908 0.33576 0.0
H2830 H 0.60272 0.11431 0.45665 0.0
H2831 H 0.64766 0.15774 0.33752 0.0
H2832 H 0.58171 0.13293 0.38022 0.0
H2833 H 0.62991 0.17933 0.41398 0.0
C2834 C 0.62554 0.16403 0.44879 0.0
C2835 C 0.61839 0.14548 0.46124 0.0
C2836 C 0.59596 0.13877 0.37073 0.0
C2837 C 0.6138 0.14818 0.4106 0.0
C2838 C 0.59712 0.13676 0.3454 0.0
C2839 C 0.61593 0.14322 0.33294 0.0
C2840 C 0.61345 0.14786 0.38358 0.0
C2841 C 0.63285 0.15263 0.34643 0.0
C2842 C 0.62355 0.1653 0.42346 0.0
C2843 C 0.60834 0.12894 0.44775 0.0
N2844 N 0.63119 0.15475 0.37097 0.0
N2845 N 0.60626 0.1307 0.42321 0.0
H2846 H 0.63158 0.83223 0.08629 0.0
H2847 H 0.58241 0.88268 0.20823 0.0
H2848 H 0.60299 0.89605 0.08788 0.0
H2849 H 0.64415 0.8498 0.20755 0.0
H2850 H 0.58051 0.87881 0.16376 0.0
H2851 H 0.62694 0.82981 0.13065 0.0
C2852 C 0.62376 0.84544 0.09586 0.0
C2853 C 0.61756 0.86433 0.0834 0.0
C2854 C 0.59421 0.87203 0.17348 0.0
C2855 C 0.61201 0.86156 0.13391 0.0
C2856 C 0.59521 0.87404 0.19882 0.0
C2857 C 0.61339 0.8664 0.21158 0.0
C2858 C 0.61125 0.8618 0.16093 0.0
C2859 C 0.6298 0.85581 0.1984 0.0
C2860 C 0.62129 0.84413 0.12114 0.0
C2861 C 0.60793 0.88118 0.09679 0.0
N2862 N 0.62832 0.85376 0.17384 0.0
N2863 N 0.60538 0.87939 0.12126 0.0
H2864 H 0.64721 0.65806 0.70796 0.0
H2865 H 0.60118 0.6116 0.58766 0.0
H2866 H 0.58456 0.627 0.70871 0.0
H2867 H 0.63117 0.67475 0.58695 0.0
H2868 H 0.59701 0.61434 0.63188 0.0
H2869 H 0.64428 0.66235 0.66377 0.0
C2870 C 0.63263 0.65255 0.69886 0.0
C2871 C 0.61595 0.64244 0.71207 0.0
C2872 C 0.60413 0.62777 0.62199 0.0
C2873 C 0.61294 0.64645 0.66137 0.0
C2874 C 0.60649 0.62623 0.59678 0.0
C2875 C 0.61626 0.64311 0.58356 0.0
C2876 C 0.61237 0.64594 0.63429 0.0
C2877 C 0.62322 0.66154 0.59638 0.0
C2878 C 0.63099 0.65498 0.67366 0.0
C2879 C 0.5976 0.63523 0.69927 0.0
N2880 N 0.62156 0.66228 0.62107 0.0
N2881 N 0.59677 0.63695 0.67459 0.0
H2882 H 0.58613 0.36626 0.83678 0.0
H2883 H 0.65891 0.3758 0.95584 0.0
H2884 H 0.65615 0.36615 0.83814 0.0
H2885 H 0.59192 0.35628 0.96169 0.0
H2886 H 0.65667 0.37261 0.91213 0.0
H2887 H 0.58611 0.36216 0.88145 0.0
C2888 C 0.60144 0.36496 0.84632 0.0
C2889 C 0.62118 0.36682 0.83359 0.0
C2890 C 0.64238 0.3688 0.92276 0.0
C2891 C 0.62126 0.36242 0.88455 0.0
C2892 C 0.64366 0.37069 0.94786 0.0
C2893 C 0.62558 0.36634 0.96253 0.0
C2894 C 0.62271 0.36286 0.91171 0.0
C2895 C 0.60629 0.35967 0.95105 0.0
C2896 C 0.60141 0.36272 0.87182 0.0
C2897 C 0.64051 0.36516 0.84701 0.0
N2898 N 0.60524 0.3584 0.92623 0.0
N2899 N 0.64002 0.36328 0.87152 0.0
H2900 H 0.89538 0.33597 0.08551 0.0
H2901 H 0.87685 0.40562 0.20459 0.0
H2902 H 0.89237 0.40591 0.08778 0.0
H2903 H 0.90812 0.34325 0.21116 0.0
H2904 H 0.88 0.40341 0.16094 0.0
H2905 H 0.8989 0.33564 0.13028 0.0
C2906 C 0.89588 0.35121 0.09525 0.0
C2907 C 0.89329 0.37098 0.08272 0.0
C2908 C 0.88635 0.39016 0.17174 0.0
C2909 C 0.89696 0.37068 0.13377 0.0
C2910 C 0.88443 0.39135 0.19683 0.0
C2911 C 0.89215 0.37456 0.21174 0.0
C2912 C 0.89578 0.37184 0.16089 0.0
C2913 C 0.90202 0.35661 0.20039 0.0
C2914 C 0.89781 0.351 0.1208 0.0
C2915 C 0.89394 0.39021 0.09643 0.0
N2916 N 0.90333 0.35557 0.17555 0.0
N2917 N 0.89544 0.38952 0.12097 0.0
H2918 H 0.92674 0.62666 0.33547 0.0
H2919 H 0.87973 0.67661 0.4585 0.0
H2920 H 0.8652 0.65989 0.33707 0.0
H2921 H 0.90605 0.61184 0.45593 0.0
H2922 H 0.88385 0.67916 0.41409 0.0
H2923 H 0.92882 0.62981 0.38001 0.0
C2924 C 0.91403 0.63521 0.3451 0.0
C2925 C 0.89586 0.64319 0.33256 0.0
C2926 C 0.8891 0.66459 0.42339 0.0
C2927 C 0.89822 0.64698 0.38331 0.0
C2928 C 0.88693 0.66318 0.44869 0.0
C2929 C 0.89265 0.64402 0.46092 0.0
C2930 C 0.89765 0.64695 0.41033 0.0
C2931 C 0.90149 0.62693 0.44722 0.0
C2932 C 0.91512 0.63681 0.37048 0.0
C2933 C 0.87955 0.65365 0.34604 0.0
N2934 N 0.90381 0.62881 0.42272 0.0
N2935 N 0.88114 0.65532 0.37063 0.0
H2936 H 0.38407 0.40829 0.34049 0.0
H2937 H 0.39362 0.33491 0.45886 0.0
H2938 H 0.40551 0.34196 0.33388 0.0
H2939 H 0.39481 0.40491 0.45803 0.0
H2940 H 0.39788 0.33513 0.4142 0.0
H2941 H 0.38698 0.4056 0.38419 0.0
C2942 C 0.38955 0.39309 0.34829 0.0
C2943 C 0.39454 0.37534 0.33338 0.0
C2944 C 0.39753 0.35037 0.42396 0.0
C2945 C 0.39772 0.37196 0.38422 0.0
C2946 C 0.39519 0.35026 0.44946 0.0
C2947 C 0.39359 0.36993 0.46235 0.0
C2948 C 0.39815 0.37028 0.41138 0.0
C2949 C 0.39561 0.38931 0.44906 0.0
C2950 C 0.39128 0.39157 0.37339 0.0
C2951 C 0.40164 0.3561 0.34468 0.0
N2952 N 0.39754 0.38895 0.42455 0.0
N2953 N 0.40276 0.3548 0.36951 0.0
H2954 H 0.35404 0.64593 0.20846 0.0
H2955 H 0.41836 0.65673 0.08265 0.0
H2956 H 0.42404 0.64299 0.20823 0.0
H2957 H 0.35371 0.63111 0.0917 0.0
H2958 H 0.42135 0.65988 0.12744 0.0
H2959 H 0.35429 0.64994 0.16474 0.0
C2960 C 0.36958 0.64636 0.19925 0.0
C2961 C 0.38905 0.6438 0.21222 0.0
C2962 C 0.40654 0.65368 0.11945 0.0
C2963 C 0.38939 0.64826 0.16137 0.0
C2964 C 0.40478 0.65201 0.09395 0.0
C2965 C 0.38578 0.64353 0.08337 0.0
C2966 C 0.38897 0.64737 0.13423 0.0
C2967 C 0.36875 0.63754 0.09892 0.0
C2968 C 0.36968 0.64859 0.17413 0.0
C2969 C 0.40863 0.64487 0.19902 0.0
N2970 N 0.37072 0.63965 0.12329 0.0
N2971 N 0.40832 0.64677 0.17423 0.0
H2972 H 0.15575 0.64563 0.83518 0.0
H2973 H 0.092 0.65712 0.9611 0.0
H2974 H 0.08575 0.64268 0.83535 0.0
H2975 H 0.15568 0.62925 0.95163 0.0
H2976 H 0.0889 0.66044 0.91632 0.0
H2977 H 0.15547 0.64957 0.8789 0.0
C2978 C 0.1402 0.64606 0.84437 0.0
C2979 C 0.12074 0.64349 0.83139 0.0
C2980 C 0.10351 0.65369 0.92423 0.0
C2981 C 0.12037 0.64789 0.88223 0.0
C2982 C 0.10534 0.65192 0.94972 0.0
C2983 C 0.12409 0.64278 0.96019 0.0
C2984 C 0.1208 0.64683 0.90935 0.0
C2985 C 0.14083 0.63621 0.94453 0.0
C2986 C 0.14009 0.64826 0.86949 0.0
C2987 C 0.10115 0.64457 0.84456 0.0
N2988 N 0.13881 0.63844 0.92017 0.0
N2989 N 0.10145 0.64643 0.86935 0.0
H2990 H 0.15749 0.3674 0.70783 0.0
H2991 H 0.09295 0.3525 0.58268 0.0
H2992 H 0.08744 0.3664 0.70817 0.0
H2993 H 0.15639 0.38119 0.59082 0.0
H2994 H 0.0904 0.34969 0.62753 0.0
H2995 H 0.15719 0.36342 0.66414 0.0
C2996 C 0.14194 0.36616 0.69876 0.0
C2997 C 0.12245 0.36758 0.7119 0.0
C2998 C 0.10485 0.35649 0.61933 0.0
C2999 C 0.12203 0.36309 0.66104 0.0
C3000 C 0.10636 0.35798 0.5938 0.0
C3001 C 0.12487 0.36721 0.58292 0.0
C3002 C 0.12221 0.36377 0.63387 0.0
C3003 C 0.14171 0.37415 0.59824 0.0
C3004 C 0.1418 0.36392 0.67364 0.0
C3005 C 0.10288 0.36545 0.69885 0.0
N3006 N 0.13999 0.37221 0.62267 0.0
N3007 N 0.10313 0.36353 0.67406 0.0
loop_
_geom_bond_atom_site_label_1
_geom_bond_atom_site_label_2
_geom_bond_distance
_geom_bond_site_symmetry_2
_ccdc_geom_bond_type
Ho0 C3 2.811 . S
Ho0 O20 2.322 . S
Ho0 O22 2.378 . S
Ho0 O23 2.524 . S
Ho0 O24 2.381 . S
Ho0 O25 2.669 . S
Ho0 O27 2.346 . S
Ho0 O31 2.305 . S
Ho1 C12 2.811 . S
Ho1 O21 2.346 . S
Ho1 O25 2.305 . S
Ho1 O26 2.322 . S
Ho1 O28 2.378 . S
Ho1 O29 2.524 . S
Ho1 O30 2.381 . S
Ho1 O31 2.669 . S
C2 O20 1.259 . S
C2 O21 1.268 . S
C3 Ho0 2.811 . S
C3 C4 1.488 . S
C3 O22 1.215 . S
C3 O23 1.289 . S
C4 C3 1.488 . S
C4 C5 1.348 . S
C4 C9 1.413 . S
C5 C4 1.348 . S
C5 C6 1.442 . S
C5 H32 0.930 . S
C6 C5 1.442 . S
C6 C7 1.381 . S
C6 H33 0.931 . S
C7 C6 1.381 . S
C7 C8 1.321 . S
C8 C7 1.321 . S
C8 C9 1.403 . S
C8 H34 0.934 . S
C9 C4 1.413 . S
C9 C8 1.403 . S
C9 H35 0.930 . S
C10 O24 1.275 . S
C10 O25 1.256 . S
C11 O26 1.259 . S
C11 O27 1.268 . S
C12 Ho1 2.811 . S
C12 C13 1.488 . S
C12 O28 1.215 . S
C12 O29 1.289 . S
C13 C12 1.488 . S
C13 C14 1.348 . S
C13 C18 1.413 . S
C14 C13 1.348 . S
C14 C15 1.442 . S
C14 H36 0.930 . S
C15 C14 1.442 . S
C15 C16 1.381 . S
C15 H37 0.931 . S
C16 C15 1.381 . S
C16 C17 1.321 . S
C17 C16 1.321 . S
C17 C18 1.403 . S
C17 H38 0.934 . S
C18 C13 1.413 . S
C18 C17 1.403 . S
C18 H39 0.930 . S
C19 O30 1.275 . S
C19 O31 1.256 . S
O20 Ho0 2.322 . S
O20 C2 1.259 . S
O21 Ho1 2.346 . S
O21 C2 1.268 . S
O22 Ho0 2.378 . S
O22 C3 1.215 . S
O23 Ho0 2.524 . S
O23 C3 1.289 . S
O24 Ho0 2.381 . S
O24 C10 1.275 . S
O25 Ho0 2.669 . S
O25 Ho1 2.305 . S
O25 C10 1.256 . S
O26 Ho1 2.322 . S
O26 C11 1.259 . S
O27 Ho0 2.346 . S
O27 C11 1.268 . S
O28 Ho1 2.378 . S
O28 C12 1.215 . S
O29 Ho1 2.524 . S
O29 C12 1.289 . S
O30 Ho1 2.381 . S
O30 C19 1.275 . S
O31 Ho0 2.305 . S
O31 Ho1 2.669 . S
O31 C19 1.256 . S
H32 C5 0.930 . S
H33 C6 0.931 . S
H34 C8 0.934 . S
H35 C9 0.930 . S
H36 C14 0.930 . S
H37 C15 0.931 . S
H38 C17 0.934 . S
H39 C18 0.930 . S
Ho40 C43 2.811 . S
Ho40 O60 2.322 . S
Ho40 O62 2.378 . S
Ho40 O63 2.524 . S
Ho40 O64 2.381 . S
Ho40 O65 2.669 . S
Ho40 O67 2.346 . S
Ho40 O71 2.305 . S
Ho41 C52 2.811 . S
Ho41 O61 2.346 . S
Ho41 O65 2.305 . S
Ho41 O66 2.322 . S
Ho41 O68 2.378 . S
Ho41 O69 2.524 . S
Ho41 O70 2.381 . S
Ho41 O71 2.669 . S
C42 O60 1.259 . S
C42 O61 1.268 . S
C43 Ho40 2.811 . S
C43 C44 1.488 . S
C43 O62 1.215 . S
C43 O63 1.289 . S
C44 C43 1.488 . S
C44 C45 1.348 . S
C44 C49 1.413 . S
C45 C44 1.348 . S
C45 C46 1.442 . S
C45 H72 0.930 . S
C46 C45 1.442 . S
C46 C47 1.381 . S
C46 H73 0.931 . S
C47 C46 1.381 . S
C47 C48 1.321 . S
C48 C47 1.321 . S
C48 C49 1.403 . S
C48 H74 0.934 1_565 S
C49 C44 1.413 . S
C49 C48 1.403 . S
C49 H75 0.930 . S
C50 O64 1.275 . S
C50 O65 1.256 . S
C51 O66 1.259 . S
C51 O67 1.268 . S
C52 Ho41 2.811 . S
C52 C53 1.488 . S
C52 O68 1.215 . S
C52 O69 1.289 . S
C53 C52 1.488 . S
C53 C54 1.348 . S
C53 C58 1.413 . S
C54 C53 1.348 . S
C54 C55 1.442 . S
C54 H76 0.930 . S
C55 C54 1.442 . S
C55 C56 1.381 . S
C55 H77 0.931 . S
C56 C55 1.381 . S
C56 C57 1.321 . S
C57 C56 1.321 . S
C57 C58 1.403 . S
C57 H78 0.934 . S
C58 C53 1.413 . S
C58 C57 1.403 . S
C58 H79 0.930 . S
C59 O70 1.275 . S
C59 O71 1.256 . S
O60 Ho40 2.322 . S
O60 C42 1.259 . S
O61 Ho41 2.346 . S
O61 C42 1.268 . S
O62 Ho40 2.378 . S
O62 C43 1.215 . S
O63 Ho40 2.524 . S
O63 C43 1.289 . S
O64 Ho40 2.381 . S
O64 C50 1.275 . S
O65 Ho40 2.669 . S
O65 Ho41 2.305 . S
O65 C50 1.256 . S
O66 Ho41 2.322 . S
O66 C51 1.259 . S
O67 Ho40 2.346 . S
O67 C51 1.268 . S
O68 Ho41 2.378 . S
O68 C52 1.215 . S
O69 Ho41 2.524 . S
O69 C52 1.289 . S
O70 Ho41 2.381 . S
O70 C59 1.275 . S
O71 Ho40 2.305 . S
O71 Ho41 2.669 . S
O71 C59 1.256 . S
H72 C45 0.930 . S
H73 C46 0.931 . S
H74 C48 0.934 1_545 S
H75 C49 0.930 . S
H76 C54 0.930 . S
H77 C55 0.931 . S
H78 C57 0.934 . S
H79 C58 0.930 . S
Ho80 C83 2.811 . S
Ho80 O100 2.322 . S
Ho80 O102 2.378 . S
Ho80 O103 2.524 . S
Ho80 O104 2.381 . S
Ho80 O105 2.669 . S
Ho80 O107 2.346 . S
Ho80 O111 2.305 . S
Ho81 C92 2.811 . S
Ho81 O101 2.346 . S
Ho81 O105 2.305 . S
Ho81 O106 2.322 . S
Ho81 O108 2.378 . S
Ho81 O109 2.524 . S
Ho81 O110 2.381 . S
Ho81 O111 2.669 . S
C82 O100 1.259 . S
C82 O101 1.268 . S
C83 Ho80 2.811 . S
C83 C84 1.488 . S
C83 O102 1.215 . S
C83 O103 1.289 . S
C84 C83 1.488 . S
C84 C85 1.348 . S
C84 C89 1.413 . S
C85 C84 1.348 . S
C85 C86 1.442 . S
C85 H112 0.930 . S
C86 C85 1.442 . S
C86 C87 1.381 . S
C86 H113 0.931 . S
C87 C86 1.381 . S
C87 C88 1.321 . S
C88 C87 1.321 . S
C88 C89 1.403 . S
C88 H114 0.934 . S
C89 C84 1.413 . S
C89 C88 1.403 . S
C89 H115 0.930 . S
C90 O104 1.275 . S
C90 O105 1.256 . S
C91 O106 1.259 . S
C91 O107 1.268 . S
C92 Ho81 2.811 . S
C92 C93 1.488 . S
C92 O108 1.215 . S
C92 O109 1.289 . S
C93 C92 1.488 . S
C93 C94 1.348 . S
C93 C98 1.413 . S
C94 C93 1.348 . S
C94 C95 1.442 . S
C94 H116 0.930 . S
C95 C94 1.442 . S
C95 C96 1.381 . S
C95 H117 0.931 . S
C96 C95 1.381 . S
C96 C97 1.321 . S
C97 C96 1.321 . S
C97 C98 1.403 . S
C97 H118 0.934 . S
C98 C93 1.413 . S
C98 C97 1.403 . S
C98 H119 0.930 . S
C99 O110 1.275 . S
C99 O111 1.256 . S
O100 Ho80 2.322 . S
O100 C82 1.259 . S
O101 Ho81 2.346 . S
O101 C82 1.268 . S
O102 Ho80 2.378 . S
O102 C83 1.215 . S
O103 Ho80 2.524 . S
O103 C83 1.289 . S
O104 Ho80 2.381 . S
O104 C90 1.275 . S
O105 Ho80 2.669 . S
O105 Ho81 2.305 . S
O105 C90 1.256 . S
O106 Ho81 2.322 . S
O106 C91 1.259 . S
O107 Ho80 2.346 . S
O107 C91 1.268 . S
O108 Ho81 2.378 . S
O108 C92 1.215 . S
O109 Ho81 2.524 . S
O109 C92 1.289 . S
O110 Ho81 2.381 . S
O110 C99 1.275 . S
O111 Ho80 2.305 . S
O111 Ho81 2.669 . S
O111 C99 1.256 . S
H112 C85 0.930 . S
H113 C86 0.931 . S
H114 C88 0.934 . S
H115 C89 0.930 . S
H116 C94 0.930 . S
H117 C95 0.931 . S
H118 C97 0.934 . S
H119 C98 0.930 . S
Ho120 C123 2.811 1_554 S
Ho120 O140 2.322 1_554 S
Ho120 O142 2.378 . S
Ho120 O143 2.524 1_554 S
Ho120 O144 2.381 . S
Ho120 O145 2.669 . S
Ho120 O147 2.346 . S
Ho120 O151 2.305 . S
Ho121 C132 2.811 . S
Ho121 O141 2.346 1_554 S
Ho121 O145 2.305 . S
Ho121 O146 2.322 . S
Ho121 O148 2.378 . S
Ho121 O149 2.524 . S
Ho121 O150 2.381 . S
Ho121 O151 2.669 . S
C122 O140 1.259 . S
C122 O141 1.268 . S
C123 Ho120 2.811 1_556 S
C123 C124 1.488 . S
C123 O142 1.215 1_556 S
C123 O143 1.289 . S
C124 C123 1.488 . S
C124 C125 1.348 . S
C124 C129 1.413 . S
C125 C124 1.348 . S
C125 C126 1.442 . S
C125 H152 0.930 . S
C126 C125 1.442 . S
C126 C127 1.381 . S
C126 H153 0.931 . S
C127 C126 1.381 . S
C127 C128 1.321 . S
C128 C127 1.321 . S
C128 C129 1.403 . S
C128 H154 0.934 1_545 S
C129 C124 1.413 . S
C129 C128 1.403 . S
C129 H155 0.930 . S
C130 O144 1.275 . S
C130 O145 1.256 . S
C131 O146 1.259 . S
C131 O147 1.268 . S
C132 Ho121 2.811 . S
C132 C133 1.488 . S
C132 O148 1.215 . S
C132 O149 1.289 . S
C133 C132 1.488 . S
C133 C134 1.348 . S
C133 C138 1.413 . S
C134 C133 1.348 . S
C134 C135 1.442 . S
C134 H156 0.930 . S
C135 C134 1.442 . S
C135 C136 1.381 . S
C135 H157 0.931 . S
C136 C135 1.381 . S
C136 C137 1.321 . S
C137 C136 1.321 . S
C137 C138 1.403 . S
C137 H158 0.934 . S
C138 C133 1.413 . S
C138 C137 1.403 . S
C138 H159 0.930 . S
C139 O150 1.275 . S
C139 O151 1.256 . S
O140 Ho120 2.322 1_556 S
O140 C122 1.259 . S
O141 Ho121 2.346 1_556 S
O141 C122 1.268 . S
O142 Ho120 2.378 . S
O142 C123 1.215 1_554 S
O143 Ho120 2.524 1_556 S
O143 C123 1.289 . S
O144 Ho120 2.381 . S
O144 C130 1.275 . S
O145 Ho120 2.669 . S
O145 Ho121 2.305 . S
O145 C130 1.256 . S
O146 Ho121 2.322 . S
O146 C131 1.259 . S
O147 Ho120 2.346 . S
O147 C131 1.268 . S
O148 Ho121 2.378 . S
O148 C132 1.215 . S
O149 Ho121 2.524 . S
O149 C132 1.289 . S
O150 Ho121 2.381 . S
O150 C139 1.275 . S
O151 Ho120 2.305 . S
O151 Ho121 2.669 . S
O151 C139 1.256 . S
H152 C125 0.930 . S
H153 C126 0.931 . S
H154 C128 0.934 1_565 S
H155 C129 0.930 . S
H156 C134 0.930 . S
H157 C135 0.931 . S
H158 C137 0.934 . S
H159 C138 0.930 . S
Ho160 C163 2.811 . S
Ho160 O180 2.322 . S
Ho160 O182 2.378 . S
Ho160 O183 2.524 . S
Ho160 O184 2.381 . S
Ho160 O185 2.669 . S
Ho160 O187 2.346 . S
Ho160 O191 2.305 . S
Ho161 C172 2.811 . S
Ho161 O181 2.346 . S
Ho161 O185 2.305 . S
Ho161 O186 2.322 . S
Ho161 O188 2.378 . S
Ho161 O189 2.524 . S
Ho161 O190 2.381 . S
Ho161 O191 2.669 . S
C162 O180 1.259 . S
C162 O181 1.268 . S
C163 Ho160 2.811 . S
C163 C164 1.488 . S
C163 O182 1.215 . S
C163 O183 1.289 . S
C164 C163 1.488 . S
C164 C165 1.348 . S
C164 C169 1.413 . S
C165 C164 1.348 . S
C165 C166 1.442 . S
C165 H192 0.930 . S
C166 C165 1.442 . S
C166 C167 1.381 . S
C166 H193 0.931 . S
C167 C166 1.381 . S
C167 C168 1.321 . S
C168 C167 1.321 . S
C168 C169 1.403 . S
C168 H194 0.934 . S
C169 C164 1.413 . S
C169 C168 1.403 . S
C169 H195 0.930 . S
C170 O184 1.275 . S
C170 O185 1.256 . S
C171 O186 1.259 . S
C171 O187 1.268 . S
C172 Ho161 2.811 . S
C172 C173 1.488 . S
C172 O188 1.215 . S
C172 O189 1.289 . S
C173 C172 1.488 . S
C173 C174 1.348 . S
C173 C178 1.413 . S
C174 C173 1.348 . S
C174 C175 1.442 . S
C174 H196 0.930 . S
C175 C174 1.442 . S
C175 C176 1.381 . S
C175 H197 0.931 . S
C176 C175 1.381 . S
C176 C177 1.321 . S
C177 C176 1.321 . S
C177 C178 1.403 . S
C177 H198 0.934 . S
C178 C173 1.413 . S
C178 C177 1.403 . S
C178 H199 0.930 . S
C179 O190 1.275 . S
C179 O191 1.256 . S
O180 Ho160 2.322 . S
O180 C162 1.259 . S
O181 Ho161 2.346 . S
O181 C162 1.268 . S
O182 Ho160 2.378 . S
O182 C163 1.215 . S
O183 Ho160 2.524 . S
O183 C163 1.289 . S
O184 Ho160 2.381 . S
O184 C170 1.275 . S
O185 Ho160 2.669 . S
O185 Ho161 2.305 . S
O185 C170 1.256 . S
O186 Ho161 2.322 . S
O186 C171 1.259 . S
O187 Ho160 2.346 . S
O187 C171 1.268 . S
O188 Ho161 2.378 . S
O188 C172 1.215 . S
O189 Ho161 2.524 . S
O189 C172 1.289 . S
O190 Ho161 2.381 . S
O190 C179 1.275 . S
O191 Ho160 2.305 . S
O191 Ho161 2.669 . S
O191 C179 1.256 . S
H192 C165 0.930 . S
H193 C166 0.931 . S
H194 C168 0.934 . S
H195 C169 0.930 . S
H196 C174 0.930 . S
H197 C175 0.931 . S
H198 C177 0.934 . S
H199 C178 0.930 . S
Ho200 C203 2.811 . S
Ho200 O220 2.322 . S
Ho200 O222 2.378 . S
Ho200 O223 2.524 . S
Ho200 O224 2.381 . S
Ho200 O225 2.669 . S
Ho200 O227 2.346 . S
Ho200 O231 2.305 . S
Ho201 C212 2.811 . S
Ho201 O221 2.346 . S
Ho201 O225 2.305 . S
Ho201 O226 2.322 . S
Ho201 O228 2.378 . S
Ho201 O229 2.524 . S
Ho201 O230 2.381 . S
Ho201 O231 2.669 . S
C202 O220 1.259 . S
C202 O221 1.268 . S
C203 Ho200 2.811 . S
C203 C204 1.488 . S
C203 O222 1.215 . S
C203 O223 1.289 . S
C204 C203 1.488 . S
C204 C205 1.348 . S
C204 C209 1.413 . S
C205 C204 1.348 . S
C205 C206 1.442 . S
C205 H232 0.930 . S
C206 C205 1.442 . S
C206 C207 1.381 . S
C206 H233 0.931 . S
C207 C206 1.381 . S
C207 C208 1.321 . S
C208 C207 1.321 . S
C208 C209 1.403 . S
C208 H234 0.934 1_565 S
C209 C204 1.413 . S
C209 C208 1.403 . S
C209 H235 0.930 . S
C210 O224 1.275 . S
C210 O225 1.256 . S
C211 O226 1.259 . S
C211 O227 1.268 . S
C212 Ho201 2.811 . S
C212 C213 1.488 . S
C212 O228 1.215 . S
C212 O229 1.289 . S
C213 C212 1.488 . S
C213 C214 1.348 . S
C213 C218 1.413 . S
C214 C213 1.348 . S
C214 C215 1.442 . S
C214 H236 0.930 . S
C215 C214 1.442 . S
C215 C216 1.381 . S
C215 H237 0.931 . S
C216 C215 1.381 . S
C216 C217 1.321 . S
C217 C216 1.321 . S
C217 C218 1.403 . S
C217 H238 0.934 . S
C218 C213 1.413 . S
C218 C217 1.403 . S
C218 H239 0.930 . S
C219 O230 1.275 . S
C219 O231 1.256 . S
O220 Ho200 2.322 . S
O220 C202 1.259 . S
O221 Ho201 2.346 . S
O221 C202 1.268 . S
O222 Ho200 2.378 . S
O222 C203 1.215 . S
O223 Ho200 2.524 . S
O223 C203 1.289 . S
O224 Ho200 2.381 . S
O224 C210 1.275 . S
O225 Ho200 2.669 . S
O225 Ho201 2.305 . S
O225 C210 1.256 . S
O226 Ho201 2.322 . S
O226 C211 1.259 . S
O227 Ho200 2.346 . S
O227 C211 1.268 . S
O228 Ho201 2.378 . S
O228 C212 1.215 . S
O229 Ho201 2.524 . S
O229 C212 1.289 . S
O230 Ho201 2.381 . S
O230 C219 1.275 . S
O231 Ho200 2.305 . S
O231 Ho201 2.669 . S
O231 C219 1.256 . S
H232 C205 0.930 . S
H233 C206 0.931 . S
H234 C208 0.934 1_545 S
H235 C209 0.930 . S
H236 C214 0.930 . S
H237 C215 0.931 . S
H238 C217 0.934 . S
H239 C218 0.930 . S
Ho240 C243 2.811 . S
Ho240 O260 2.322 . S
Ho240 O262 2.378 . S
Ho240 O263 2.524 . S
Ho240 O264 2.381 . S
Ho240 O265 2.669 . S
Ho240 O267 2.346 . S
Ho240 O271 2.305 . S
Ho241 C252 2.811 . S
Ho241 O261 2.346 . S
Ho241 O265 2.305 . S
Ho241 O266 2.322 . S
Ho241 O268 2.378 . S
Ho241 O269 2.524 . S
Ho241 O270 2.381 . S
Ho241 O271 2.669 . S
C242 O260 1.259 . S
C242 O261 1.268 . S
C243 Ho240 2.811 . S
C243 C244 1.488 . S
C243 O262 1.215 . S
C243 O263 1.289 . S
C244 C243 1.488 . S
C244 C245 1.348 . S
C244 C249 1.413 . S
C245 C244 1.348 . S
C245 C246 1.442 . S
C245 H272 0.930 . S
C246 C245 1.442 . S
C246 C247 1.381 . S
C246 H273 0.931 . S
C247 C246 1.381 . S
C247 C248 1.321 . S
C248 C247 1.321 . S
C248 C249 1.403 . S
C248 H274 0.934 . S
C249 C244 1.413 . S
C249 C248 1.403 . S
C249 H275 0.930 . S
C250 O264 1.275 . S
C250 O265 1.256 . S
C251 O266 1.259 . S
C251 O267 1.268 . S
C252 Ho241 2.811 . S
C252 C253 1.488 . S
C252 O268 1.215 . S
C252 O269 1.289 . S
C253 C252 1.488 . S
C253 C254 1.348 . S
C253 C258 1.413 . S
C254 C253 1.348 . S
C254 C255 1.442 . S
C254 H276 0.930 . S
C255 C254 1.442 . S
C255 C256 1.381 . S
C255 H277 0.931 . S
C256 C255 1.381 . S
C256 C257 1.321 . S
C257 C256 1.321 . S
C257 C258 1.403 . S
C257 H278 0.934 . S
C258 C253 1.413 . S
C258 C257 1.403 . S
C258 H279 0.930 . S
C259 O270 1.275 . S
C259 O271 1.256 . S
O260 Ho240 2.322 . S
O260 C242 1.259 . S
O261 Ho241 2.346 . S
O261 C242 1.268 . S
O262 Ho240 2.378 . S
O262 C243 1.215 . S
O263 Ho240 2.524 . S
O263 C243 1.289 . S
O264 Ho240 2.381 . S
O264 C250 1.275 . S
O265 Ho240 2.669 . S
O265 Ho241 2.305 . S
O265 C250 1.256 . S
O266 Ho241 2.322 . S
O266 C251 1.259 . S
O267 Ho240 2.346 . S
O267 C251 1.268 . S
O268 Ho241 2.378 . S
O268 C252 1.215 . S
O269 Ho241 2.524 . S
O269 C252 1.289 . S
O270 Ho241 2.381 . S
O270 C259 1.275 . S
O271 Ho240 2.305 . S
O271 Ho241 2.669 . S
O271 C259 1.256 . S
H272 C245 0.930 . S
H273 C246 0.931 . S
H274 C248 0.934 . S
H275 C249 0.930 . S
H276 C254 0.930 . S
H277 C255 0.931 . S
H278 C257 0.934 . S
H279 C258 0.930 . S
Ho280 C283 2.811 1_556 S
Ho280 O300 2.322 1_556 S
Ho280 O302 2.378 . S
Ho280 O303 2.524 1_556 S
Ho280 O304 2.381 . S
Ho280 O305 2.669 . S
Ho280 O307 2.346 . S
Ho280 O311 2.305 . S
Ho281 C292 2.811 . S
Ho281 O301 2.346 1_556 S
Ho281 O305 2.305 . S
Ho281 O306 2.322 . S
Ho281 O308 2.378 . S
Ho281 O309 2.524 . S
Ho281 O310 2.381 . S
Ho281 O311 2.669 . S
C282 O300 1.259 . S
C282 O301 1.268 . S
C283 Ho280 2.811 1_554 S
C283 C284 1.488 . S
C283 O302 1.215 1_554 S
C283 O303 1.289 . S
C284 C283 1.488 . S
C284 C285 1.348 . S
C284 C289 1.413 . S
C285 C284 1.348 . S
C285 C286 1.442 . S
C285 H312 0.930 . S
C286 C285 1.442 . S
C286 C287 1.381 . S
C286 H313 0.931 . S
C287 C286 1.381 . S
C287 C288 1.321 . S
C288 C287 1.321 . S
C288 C289 1.403 . S
C288 H314 0.934 1_545 S
C289 C284 1.413 . S
C289 C288 1.403 . S
C289 H315 0.930 . S
C290 O304 1.275 . S
C290 O305 1.256 . S
C291 O306 1.259 . S
C291 O307 1.268 . S
C292 Ho281 2.811 . S
C292 C293 1.488 . S
C292 O308 1.215 . S
C292 O309 1.289 . S
C293 C292 1.488 . S
C293 C294 1.348 . S
C293 C298 1.413 . S
C294 C293 1.348 . S
C294 C295 1.442 . S
C294 H316 0.930 . S
C295 C294 1.442 . S
C295 C296 1.381 . S
C295 H317 0.931 . S
C296 C295 1.381 . S
C296 C297 1.321 . S
C297 C296 1.321 . S
C297 C298 1.403 . S
C297 H318 0.934 . S
C298 C293 1.413 . S
C298 C297 1.403 . S
C298 H319 0.930 . S
C299 O310 1.275 . S
C299 O311 1.256 . S
O300 Ho280 2.322 1_554 S
O300 C282 1.259 . S
O301 Ho281 2.346 1_554 S
O301 C282 1.268 . S
O302 Ho280 2.378 . S
O302 C283 1.215 1_556 S
O303 Ho280 2.524 1_554 S
O303 C283 1.289 . S
O304 Ho280 2.381 . S
O304 C290 1.275 . S
O305 Ho280 2.669 . S
O305 Ho281 2.305 . S
O305 C290 1.256 . S
O306 Ho281 2.322 . S
O306 C291 1.259 . S
O307 Ho280 2.346 . S
O307 C291 1.268 . S
O308 Ho281 2.378 . S
O308 C292 1.215 . S
O309 Ho281 2.524 . S
O309 C292 1.289 . S
O310 Ho281 2.381 . S
O310 C299 1.275 . S
O311 Ho280 2.305 . S
O311 Ho281 2.669 . S
O311 C299 1.256 . S
H312 C285 0.930 . S
H313 C286 0.931 . S
H314 C288 0.934 1_565 S
H315 C289 0.930 . S
H316 C294 0.930 . S
H317 C295 0.931 . S
H318 C297 0.934 . S
H319 C298 0.930 . S
Ho320 C323 2.811 . S
Ho320 O340 2.322 . S
Ho320 O342 2.378 . S
Ho320 O343 2.524 . S
Ho320 O344 2.381 . S
Ho320 O345 2.669 . S
Ho320 O347 2.346 . S
Ho320 O351 2.305 . S
Ho321 C332 2.811 . S
Ho321 O341 2.346 . S
Ho321 O345 2.305 . S
Ho321 O346 2.322 . S
Ho321 O348 2.378 . S
Ho321 O349 2.524 . S
Ho321 O350 2.381 . S
Ho321 O351 2.669 . S
C322 O340 1.259 . S
C322 O341 1.268 . S
C323 Ho320 2.811 . S
C323 C324 1.488 . S
C323 O342 1.215 . S
C323 O343 1.289 . S
C324 C323 1.488 . S
C324 C325 1.348 . S
C324 C329 1.413 . S
C325 C324 1.348 . S
C325 C326 1.442 . S
C325 H352 0.930 . S
C326 C325 1.442 . S
C326 C327 1.381 . S
C326 H353 0.931 . S
C327 C326 1.381 . S
C327 C328 1.321 . S
C328 C327 1.321 . S
C328 C329 1.403 . S
C328 H354 0.934 . S
C329 C324 1.413 . S
C329 C328 1.403 . S
C329 H355 0.930 . S
C330 O344 1.275 . S
C330 O345 1.256 . S
C331 O346 1.259 . S
C331 O347 1.268 . S
C332 Ho321 2.811 . S
C332 C333 1.488 . S
C332 O348 1.215 . S
C332 O349 1.289 . S
C333 C332 1.488 . S
C333 C334 1.348 . S
C333 C338 1.413 . S
C334 C333 1.348 . S
C334 C335 1.442 . S
C334 H356 0.930 . S
C335 C334 1.442 . S
C335 C336 1.381 . S
C335 H357 0.931 . S
C336 C335 1.381 . S
C336 C337 1.321 . S
C337 C336 1.321 . S
C337 C338 1.403 . S
C337 H358 0.934 . S
C338 C333 1.413 . S
C338 C337 1.403 . S
C338 H359 0.930 . S
C339 O350 1.275 . S
C339 O351 1.256 . S
O340 Ho320 2.322 . S
O340 C322 1.259 . S
O341 Ho321 2.346 . S
O341 C322 1.268 . S
O342 Ho320 2.378 . S
O342 C323 1.215 . S
O343 Ho320 2.524 . S
O343 C323 1.289 . S
O344 Ho320 2.381 . S
O344 C330 1.275 . S
O345 Ho320 2.669 . S
O345 Ho321 2.305 . S
O345 C330 1.256 . S
O346 Ho321 2.322 . S
O346 C331 1.259 . S
O347 Ho320 2.346 . S
O347 C331 1.268 . S
O348 Ho321 2.378 . S
O348 C332 1.215 . S
O349 Ho321 2.524 . S
O349 C332 1.289 . S
O350 Ho321 2.381 . S
O350 C339 1.275 . S
O351 Ho320 2.305 . S
O351 Ho321 2.669 . S
O351 C339 1.256 . S
H352 C325 0.930 . S
H353 C326 0.931 . S
H354 C328 0.934 . S
H355 C329 0.930 . S
H356 C334 0.930 . S
H357 C335 0.931 . S
H358 C337 0.934 . S
H359 C338 0.930 . S
Ho360 C363 2.811 . S
Ho360 O380 2.322 . S
Ho360 O382 2.378 . S
Ho360 O383 2.524 . S
Ho360 O384 2.381 . S
Ho360 O385 2.669 . S
Ho360 O387 2.346 . S
Ho360 O391 2.305 . S
Ho361 C372 2.811 . S
Ho361 O381 2.346 . S
Ho361 O385 2.305 . S
Ho361 O386 2.322 . S
Ho361 O388 2.378 . S
Ho361 O389 2.524 . S
Ho361 O390 2.381 . S
Ho361 O391 2.669 . S
C362 O380 1.259 . S
C362 O381 1.268 . S
C363 Ho360 2.811 . S
C363 C364 1.488 . S
C363 O382 1.215 . S
C363 O383 1.289 . S
C364 C363 1.488 . S
C364 C365 1.348 . S
C364 C369 1.413 . S
C365 C364 1.348 . S
C365 C366 1.442 . S
C365 H392 0.930 . S
C366 C365 1.442 . S
C366 C367 1.381 . S
C366 H393 0.931 . S
C367 C366 1.381 . S
C367 C368 1.321 . S
C368 C367 1.321 . S
C368 C369 1.403 . S
C368 H394 0.934 . S
C369 C364 1.413 . S
C369 C368 1.403 . S
C369 H395 0.930 . S
C370 O384 1.275 . S
C370 O385 1.256 . S
C371 O386 1.259 . S
C371 O387 1.268 . S
C372 Ho361 2.811 . S
C372 C373 1.488 . S
C372 O388 1.215 . S
C372 O389 1.289 . S
C373 C372 1.488 . S
C373 C374 1.348 . S
C373 C378 1.413 . S
C374 C373 1.348 . S
C374 C375 1.442 . S
C374 H396 0.930 . S
C375 C374 1.442 . S
C375 C376 1.381 . S
C375 H397 0.931 . S
C376 C375 1.381 . S
C376 C377 1.321 . S
C377 C376 1.321 . S
C377 C378 1.403 . S
C377 H398 0.934 1_545 S
C378 C373 1.413 . S
C378 C377 1.403 . S
C378 H399 0.930 . S
C379 O390 1.275 . S
C379 O391 1.256 . S
O380 Ho360 2.322 . S
O380 C362 1.259 . S
O381 Ho361 2.346 . S
O381 C362 1.268 . S
O382 Ho360 2.378 . S
O382 C363 1.215 . S
O383 Ho360 2.524 . S
O383 C363 1.289 . S
O384 Ho360 2.381 . S
O384 C370 1.275 . S
O385 Ho360 2.669 . S
O385 Ho361 2.305 . S
O385 C370 1.256 . S
O386 Ho361 2.322 . S
O386 C371 1.259 . S
O387 Ho360 2.346 . S
O387 C371 1.268 . S
O388 Ho361 2.378 . S
O388 C372 1.215 . S
O389 Ho361 2.524 . S
O389 C372 1.289 . S
O390 Ho361 2.381 . S
O390 C379 1.275 . S
O391 Ho360 2.305 . S
O391 Ho361 2.669 . S
O391 C379 1.256 . S
H392 C365 0.930 . S
H393 C366 0.931 . S
H394 C368 0.934 . S
H395 C369 0.930 . S
H396 C374 0.930 . S
H397 C375 0.931 . S
H398 C377 0.934 1_565 S
H399 C378 0.930 . S
Ho400 C403 2.811 . S
Ho400 O420 2.322 . S
Ho400 O422 2.378 . S
Ho400 O423 2.524 . S
Ho400 O424 2.381 . S
Ho400 O425 2.669 . S
Ho400 O427 2.346 . S
Ho400 O431 2.305 . S
Ho401 C412 2.811 . S
Ho401 O421 2.346 . S
Ho401 O425 2.305 . S
Ho401 O426 2.322 . S
Ho401 O428 2.378 . S
Ho401 O429 2.524 . S
Ho401 O430 2.381 . S
Ho401 O431 2.669 . S
C402 O420 1.259 . S
C402 O421 1.268 . S
C403 Ho400 2.811 . S
C403 C404 1.488 . S
C403 O422 1.215 . S
C403 O423 1.289 . S
C404 C403 1.488 . S
C404 C405 1.348 . S
C404 C409 1.413 . S
C405 C404 1.348 . S
C405 C406 1.442 . S
C405 H432 0.930 . S
C406 C405 1.442 . S
C406 C407 1.381 . S
C406 H433 0.931 . S
C407 C406 1.381 . S
C407 C408 1.321 . S
C408 C407 1.321 . S
C408 C409 1.403 . S
C408 H434 0.934 . S
C409 C404 1.413 . S
C409 C408 1.403 . S
C409 H435 0.930 . S
C410 O424 1.275 . S
C410 O425 1.256 . S
C411 O426 1.259 . S
C411 O427 1.268 . S
C412 Ho401 2.811 . S
C412 C413 1.488 . S
C412 O428 1.215 . S
C412 O429 1.289 . S
C413 C412 1.488 . S
C413 C414 1.348 . S
C413 C418 1.413 . S
C414 C413 1.348 . S
C414 C415 1.442 . S
C414 H436 0.930 . S
C415 C414 1.442 . S
C415 C416 1.381 . S
C415 H437 0.931 . S
C416 C415 1.381 . S
C416 C417 1.321 . S
C417 C416 1.321 . S
C417 C418 1.403 . S
C417 H438 0.934 . S
C418 C413 1.413 . S
C418 C417 1.403 . S
C418 H439 0.930 . S
C419 O430 1.275 . S
C419 O431 1.256 . S
O420 Ho400 2.322 . S
O420 C402 1.259 . S
O421 Ho401 2.346 . S
O421 C402 1.268 . S
O422 Ho400 2.378 . S
O422 C403 1.215 . S
O423 Ho400 2.524 . S
O423 C403 1.289 . S
O424 Ho400 2.381 . S
O424 C410 1.275 . S
O425 Ho400 2.669 . S
O425 Ho401 2.305 . S
O425 C410 1.256 . S
O426 Ho401 2.322 . S
O426 C411 1.259 . S
O427 Ho400 2.346 . S
O427 C411 1.268 . S
O428 Ho401 2.378 . S
O428 C412 1.215 . S
O429 Ho401 2.524 . S
O429 C412 1.289 . S
O430 Ho401 2.381 . S
O430 C419 1.275 . S
O431 Ho400 2.305 . S
O431 Ho401 2.669 . S
O431 C419 1.256 . S
H432 C405 0.930 . S
H433 C406 0.931 . S
H434 C408 0.934 . S
H435 C409 0.930 . S
H436 C414 0.930 . S
H437 C415 0.931 . S
H438 C417 0.934 . S
H439 C418 0.930 . S
Ho440 C443 2.811 . S
Ho440 O460 2.322 . S
Ho440 O462 2.378 . S
Ho440 O463 2.524 . S
Ho440 O464 2.381 . S
Ho440 O465 2.669 . S
Ho440 O467 2.346 1_556 S
Ho440 O471 2.305 . S
Ho441 C452 2.811 1_556 S
Ho441 O461 2.346 . S
Ho441 O465 2.305 . S
Ho441 O466 2.322 1_556 S
Ho441 O468 2.378 . S
Ho441 O469 2.524 1_556 S
Ho441 O470 2.381 . S
Ho441 O471 2.669 . S
C442 O460 1.259 . S
C442 O461 1.268 . S
C443 Ho440 2.811 . S
C443 C444 1.488 . S
C443 O462 1.215 . S
C443 O463 1.289 . S
C444 C443 1.488 . S
C444 C445 1.348 . S
C444 C449 1.413 . S
C445 C444 1.348 . S
C445 C446 1.442 . S
C445 H472 0.930 . S
C446 C445 1.442 . S
C446 C447 1.381 . S
C446 H473 0.931 . S
C447 C446 1.381 . S
C447 C448 1.321 . S
C448 C447 1.321 . S
C448 C449 1.403 . S
C448 H474 0.934 . S
C449 C444 1.413 . S
C449 C448 1.403 . S
C449 H475 0.930 . S
C450 O464 1.275 . S
C450 O465 1.256 . S
C451 O466 1.259 . S
C451 O467 1.268 . S
C452 Ho441 2.811 1_554 S
C452 C453 1.488 . S
C452 O468 1.215 1_554 S
C452 O469 1.289 . S
C453 C452 1.488 . S
C453 C454 1.348 . S
C453 C458 1.413 . S
C454 C453 1.348 . S
C454 C455 1.442 . S
C454 H476 0.930 . S
C455 C454 1.442 . S
C455 C456 1.381 . S
C455 H477 0.931 . S
C456 C455 1.381 . S
C456 C457 1.321 . S
C457 C456 1.321 . S
C457 C458 1.403 . S
C457 H478 0.934 1_565 S
C458 C453 1.413 . S
C458 C457 1.403 . S
C458 H479 0.930 . S
C459 O470 1.275 . S
C459 O471 1.256 . S
O460 Ho440 2.322 . S
O460 C442 1.259 . S
O461 Ho441 2.346 . S
O461 C442 1.268 . S
O462 Ho440 2.378 . S
O462 C443 1.215 . S
O463 Ho440 2.524 . S
O463 C443 1.289 . S
O464 Ho440 2.381 . S
O464 C450 1.275 . S
O465 Ho440 2.669 . S
O465 Ho441 2.305 . S
O465 C450 1.256 . S
O466 Ho441 2.322 1_554 S
O466 C451 1.259 . S
O467 Ho440 2.346 1_554 S
O467 C451 1.268 . S
O468 Ho441 2.378 . S
O468 C452 1.215 1_556 S
O469 Ho441 2.524 1_554 S
O469 C452 1.289 . S
O470 Ho441 2.381 . S
O470 C459 1.275 . S
O471 Ho440 2.305 . S
O471 Ho441 2.669 . S
O471 C459 1.256 . S
H472 C445 0.930 . S
H473 C446 0.931 . S
H474 C448 0.934 . S
H475 C449 0.930 . S
H476 C454 0.930 . S
H477 C455 0.931 . S
H478 C457 0.934 1_545 S
H479 C458 0.930 . S
Ho480 C483 2.811 . S
Ho480 O500 2.322 . S
Ho480 O502 2.378 . S
Ho480 O503 2.524 . S
Ho480 O504 2.381 . S
Ho480 O505 2.669 . S
Ho480 O507 2.346 . S
Ho480 O511 2.305 . S
Ho481 C492 2.811 . S
Ho481 O501 2.346 . S
Ho481 O505 2.305 . S
Ho481 O506 2.322 . S
Ho481 O508 2.378 . S
Ho481 O509 2.524 . S
Ho481 O510 2.381 . S
Ho481 O511 2.669 . S
C482 O500 1.259 . S
C482 O501 1.268 . S
C483 Ho480 2.811 . S
C483 C484 1.488 . S
C483 O502 1.215 . S
C483 O503 1.289 . S
C484 C483 1.488 . S
C484 C485 1.348 . S
C484 C489 1.413 . S
C485 C484 1.348 . S
C485 C486 1.442 . S
C485 H512 0.930 . S
C486 C485 1.442 . S
C486 C487 1.381 . S
C486 H513 0.931 . S
C487 C486 1.381 . S
C487 C488 1.321 . S
C488 C487 1.321 . S
C488 C489 1.403 . S
C488 H514 0.934 . S
C489 C484 1.413 . S
C489 C488 1.403 . S
C489 H515 0.930 . S
C490 O504 1.275 . S
C490 O505 1.256 . S
C491 O506 1.259 . S
C491 O507 1.268 . S
C492 Ho481 2.811 . S
C492 C493 1.488 . S
C492 O508 1.215 . S
C492 O509 1.289 . S
C493 C492 1.488 . S
C493 C494 1.348 . S
C493 C498 1.413 . S
C494 C493 1.348 . S
C494 C495 1.442 . S
C494 H516 0.930 . S
C495 C494 1.442 . S
C495 C496 1.381 . S
C495 H517 0.931 . S
C496 C495 1.381 . S
C496 C497 1.321 . S
C497 C496 1.321 . S
C497 C498 1.403 . S
C497 H518 0.934 . S
C498 C493 1.413 . S
C498 C497 1.403 . S
C498 H519 0.930 . S
C499 O510 1.275 . S
C499 O511 1.256 . S
O500 Ho480 2.322 . S
O500 C482 1.259 . S
O501 Ho481 2.346 . S
O501 C482 1.268 . S
O502 Ho480 2.378 . S
O502 C483 1.215 . S
O503 Ho480 2.524 . S
O503 C483 1.289 . S
O504 Ho480 2.381 . S
O504 C490 1.275 . S
O505 Ho480 2.669 . S
O505 Ho481 2.305 . S
O505 C490 1.256 . S
O506 Ho481 2.322 . S
O506 C491 1.259 . S
O507 Ho480 2.346 . S
O507 C491 1.268 . S
O508 Ho481 2.378 . S
O508 C492 1.215 . S
O509 Ho481 2.524 . S
O509 C492 1.289 . S
O510 Ho481 2.381 . S
O510 C499 1.275 . S
O511 Ho480 2.305 . S
O511 Ho481 2.669 . S
O511 C499 1.256 . S
H512 C485 0.930 . S
H513 C486 0.931 . S
H514 C488 0.934 . S
H515 C489 0.930 . S
H516 C494 0.930 . S
H517 C495 0.931 . S
H518 C497 0.934 . S
H519 C498 0.930 . S
Ho520 C523 2.811 . S
Ho520 O540 2.322 . S
Ho520 O542 2.378 . S
Ho520 O543 2.524 . S
Ho520 O544 2.381 . S
Ho520 O545 2.669 . S
Ho520 O547 2.346 . S
Ho520 O551 2.305 . S
Ho521 C532 2.811 . S
Ho521 O541 2.346 . S
Ho521 O545 2.305 . S
Ho521 O546 2.322 . S
Ho521 O548 2.378 . S
Ho521 O549 2.524 . S
Ho521 O550 2.381 . S
Ho521 O551 2.669 . S
C522 O540 1.259 . S
C522 O541 1.268 . S
C523 Ho520 2.811 . S
C523 C524 1.488 . S
C523 O542 1.215 . S
C523 O543 1.289 . S
C524 C523 1.488 . S
C524 C525 1.348 . S
C524 C529 1.413 . S
C525 C524 1.348 . S
C525 C526 1.442 . S
C525 H552 0.930 . S
C526 C525 1.442 . S
C526 C527 1.381 . S
C526 H553 0.931 . S
C527 C526 1.381 . S
C527 C528 1.321 . S
C528 C527 1.321 . S
C528 C529 1.403 . S
C528 H554 0.934 . S
C529 C524 1.413 . S
C529 C528 1.403 . S
C529 H555 0.930 . S
C530 O544 1.275 . S
C530 O545 1.256 . S
C531 O546 1.259 . S
C531 O547 1.268 . S
C532 Ho521 2.811 . S
C532 C533 1.488 . S
C532 O548 1.215 . S
C532 O549 1.289 . S
C533 C532 1.488 . S
C533 C534 1.348 . S
C533 C538 1.413 . S
C534 C533 1.348 . S
C534 C535 1.442 . S
C534 H556 0.930 . S
C535 C534 1.442 . S
C535 C536 1.381 . S
C535 H557 0.931 . S
C536 C535 1.381 . S
C536 C537 1.321 . S
C537 C536 1.321 . S
C537 C538 1.403 . S
C537 H558 0.934 1_545 S
C538 C533 1.413 . S
C538 C537 1.403 . S
C538 H559 0.930 . S
C539 O550 1.275 . S
C539 O551 1.256 . S
O540 Ho520 2.322 . S
O540 C522 1.259 . S
O541 Ho521 2.346 . S
O541 C522 1.268 . S
O542 Ho520 2.378 . S
O542 C523 1.215 . S
O543 Ho520 2.524 . S
O543 C523 1.289 . S
O544 Ho520 2.381 . S
O544 C530 1.275 . S
O545 Ho520 2.669 . S
O545 Ho521 2.305 . S
O545 C530 1.256 . S
O546 Ho521 2.322 . S
O546 C531 1.259 . S
O547 Ho520 2.346 . S
O547 C531 1.268 . S
O548 Ho521 2.378 . S
O548 C532 1.215 . S
O549 Ho521 2.524 . S
O549 C532 1.289 . S
O550 Ho521 2.381 . S
O550 C539 1.275 . S
O551 Ho520 2.305 . S
O551 Ho521 2.669 . S
O551 C539 1.256 . S
H552 C525 0.930 . S
H553 C526 0.931 . S
H554 C528 0.934 . S
H555 C529 0.930 . S
H556 C534 0.930 . S
H557 C535 0.931 . S
H558 C537 0.934 1_565 S
H559 C538 0.930 . S
Ho560 C563 2.811 . S
Ho560 O580 2.322 . S
Ho560 O582 2.378 . S
Ho560 O583 2.524 . S
Ho560 O584 2.381 . S
Ho560 O585 2.669 . S
Ho560 O587 2.346 . S
Ho560 O591 2.305 . S
Ho561 C572 2.811 . S
Ho561 O581 2.346 . S
Ho561 O585 2.305 . S
Ho561 O586 2.322 . S
Ho561 O588 2.378 . S
Ho561 O589 2.524 . S
Ho561 O590 2.381 . S
Ho561 O591 2.669 . S
C562 O580 1.259 . S
C562 O581 1.268 . S
C563 Ho560 2.811 . S
C563 C564 1.488 . S
C563 O582 1.215 . S
C563 O583 1.289 . S
C564 C563 1.488 . S
C564 C565 1.348 . S
C564 C569 1.413 . S
C565 C564 1.348 . S
C565 C566 1.442 . S
C565 H592 0.930 . S
C566 C565 1.442 . S
C566 C567 1.381 . S
C566 H593 0.931 . S
C567 C566 1.381 . S
C567 C568 1.321 . S
C568 C567 1.321 . S
C568 C569 1.403 . S
C568 H594 0.934 . S
C569 C564 1.413 . S
C569 C568 1.403 . S
C569 H595 0.930 . S
C570 O584 1.275 . S
C570 O585 1.256 . S
C571 O586 1.259 . S
C571 O587 1.268 . S
C572 Ho561 2.811 . S
C572 C573 1.488 . S
C572 O588 1.215 . S
C572 O589 1.289 . S
C573 C572 1.488 . S
C573 C574 1.348 . S
C573 C578 1.413 . S
C574 C573 1.348 . S
C574 C575 1.442 . S
C574 H596 0.930 . S
C575 C574 1.442 . S
C575 C576 1.381 . S
C575 H597 0.931 . S
C576 C575 1.381 . S
C576 C577 1.321 . S
C577 C576 1.321 . S
C577 C578 1.403 . S
C577 H598 0.934 . S
C578 C573 1.413 . S
C578 C577 1.403 . S
C578 H599 0.930 . S
C579 O590 1.275 . S
C579 O591 1.256 . S
O580 Ho560 2.322 . S
O580 C562 1.259 . S
O581 Ho561 2.346 . S
O581 C562 1.268 . S
O582 Ho560 2.378 . S
O582 C563 1.215 . S
O583 Ho560 2.524 . S
O583 C563 1.289 . S
O584 Ho560 2.381 . S
O584 C570 1.275 . S
O585 Ho560 2.669 . S
O585 Ho561 2.305 . S
O585 C570 1.256 . S
O586 Ho561 2.322 . S
O586 C571 1.259 . S
O587 Ho560 2.346 . S
O587 C571 1.268 . S
O588 Ho561 2.378 . S
O588 C572 1.215 . S
O589 Ho561 2.524 . S
O589 C572 1.289 . S
O590 Ho561 2.381 . S
O590 C579 1.275 . S
O591 Ho560 2.305 . S
O591 Ho561 2.669 . S
O591 C579 1.256 . S
H592 C565 0.930 . S
H593 C566 0.931 . S
H594 C568 0.934 . S
H595 C569 0.930 . S
H596 C574 0.930 . S
H597 C575 0.931 . S
H598 C577 0.934 . S
H599 C578 0.930 . S
Ho600 C603 2.811 . S
Ho600 O620 2.322 . S
Ho600 O622 2.378 . S
Ho600 O623 2.524 . S
Ho600 O624 2.381 . S
Ho600 O625 2.669 . S
Ho600 O627 2.346 1_554 S
Ho600 O631 2.305 . S
Ho601 C612 2.811 1_554 S
Ho601 O621 2.346 . S
Ho601 O625 2.305 . S
Ho601 O626 2.322 1_554 S
Ho601 O628 2.378 . S
Ho601 O629 2.524 1_554 S
Ho601 O630 2.381 . S
Ho601 O631 2.669 . S
C602 O620 1.259 . S
C602 O621 1.268 . S
C603 Ho600 2.811 . S
C603 C604 1.488 . S
C603 O622 1.215 . S
C603 O623 1.289 . S
C604 C603 1.488 . S
C604 C605 1.348 . S
C604 C609 1.413 . S
C605 C604 1.348 . S
C605 C606 1.442 . S
C605 H632 0.930 . S
C606 C605 1.442 . S
C606 C607 1.381 . S
C606 H633 0.931 . S
C607 C606 1.381 . S
C607 C608 1.321 . S
C608 C607 1.321 . S
C608 C609 1.403 . S
C608 H634 0.934 . S
C609 C604 1.413 . S
C609 C608 1.403 . S
C609 H635 0.930 . S
C610 O624 1.275 . S
C610 O625 1.256 . S
C611 O626 1.259 . S
C611 O627 1.268 . S
C612 Ho601 2.811 1_556 S
C612 C613 1.488 . S
C612 O628 1.215 1_556 S
C612 O629 1.289 . S
C613 C612 1.488 . S
C613 C614 1.348 . S
C613 C618 1.413 . S
C614 C613 1.348 . S
C614 C615 1.442 . S
C614 H636 0.930 . S
C615 C614 1.442 . S
C615 C616 1.381 . S
C615 H637 0.931 . S
C616 C615 1.381 . S
C616 C617 1.321 . S
C617 C616 1.321 . S
C617 C618 1.403 . S
C617 H638 0.934 1_565 S
C618 C613 1.413 . S
C618 C617 1.403 . S
C618 H639 0.930 . S
C619 O630 1.275 . S
C619 O631 1.256 . S
O620 Ho600 2.322 . S
O620 C602 1.259 . S
O621 Ho601 2.346 . S
O621 C602 1.268 . S
O622 Ho600 2.378 . S
O622 C603 1.215 . S
O623 Ho600 2.524 . S
O623 C603 1.289 . S
O624 Ho600 2.381 . S
O624 C610 1.275 . S
O625 Ho600 2.669 . S
O625 Ho601 2.305 . S
O625 C610 1.256 . S
O626 Ho601 2.322 1_556 S
O626 C611 1.259 . S
O627 Ho600 2.346 1_556 S
O627 C611 1.268 . S
O628 Ho601 2.378 . S
O628 C612 1.215 1_554 S
O629 Ho601 2.524 1_556 S
O629 C612 1.289 . S
O630 Ho601 2.381 . S
O630 C619 1.275 . S
O631 Ho600 2.305 . S
O631 Ho601 2.669 . S
O631 C619 1.256 . S
H632 C605 0.930 . S
H633 C606 0.931 . S
H634 C608 0.934 . S
H635 C609 0.930 . S
H636 C614 0.930 . S
H637 C615 0.931 . S
H638 C617 0.934 1_545 S
H639 C618 0.930 . S
Ho640 C643 2.811 . S
Ho640 O660 2.322 . S
Ho640 O662 2.378 . S
Ho640 O663 2.524 . S
Ho640 O664 2.381 . S
Ho640 O665 2.669 . S
Ho640 O667 2.346 . S
Ho640 O671 2.305 . S
Ho641 C652 2.811 . S
Ho641 O661 2.346 . S
Ho641 O665 2.305 . S
Ho641 O666 2.322 . S
Ho641 O668 2.378 . S
Ho641 O669 2.524 . S
Ho641 O670 2.381 . S
Ho641 O671 2.669 . S
C642 O660 1.259 . S
C642 O661 1.268 . S
C643 Ho640 2.811 . S
C643 C644 1.488 . S
C643 O662 1.215 . S
C643 O663 1.289 . S
C644 C643 1.488 . S
C644 C645 1.348 . S
C644 C649 1.413 . S
C645 C644 1.348 . S
C645 C646 1.442 . S
C645 H672 0.930 . S
C646 C645 1.442 . S
C646 C647 1.381 . S
C646 H673 0.931 . S
C647 C646 1.381 . S
C647 C648 1.321 . S
C648 C647 1.321 . S
C648 C649 1.403 . S
C648 H674 0.934 . S
C649 C644 1.413 . S
C649 C648 1.403 . S
C649 H675 0.930 . S
C650 O664 1.275 . S
C650 O665 1.256 . S
C651 O666 1.259 . S
C651 O667 1.268 . S
C652 Ho641 2.811 . S
C652 C653 1.488 . S
C652 O668 1.215 . S
C652 O669 1.289 . S
C653 C652 1.488 . S
C653 C654 1.348 . S
C653 C658 1.413 . S
C654 C653 1.348 . S
C654 C655 1.442 . S
C654 H676 0.930 . S
C655 C654 1.442 . S
C655 C656 1.381 . S
C655 H677 0.931 . S
C656 C655 1.381 . S
C656 C657 1.321 . S
C657 C656 1.321 . S
C657 C658 1.403 . S
C657 H678 0.934 . S
C658 C653 1.413 . S
C658 C657 1.403 . S
C658 H679 0.930 . S
C659 O670 1.275 . S
C659 O671 1.256 . S
O660 Ho640 2.322 . S
O660 C642 1.259 . S
O661 Ho641 2.346 . S
O661 C642 1.268 . S
O662 Ho640 2.378 . S
O662 C643 1.215 . S
O663 Ho640 2.524 . S
O663 C643 1.289 . S
O664 Ho640 2.381 . S
O664 C650 1.275 . S
O665 Ho640 2.669 . S
O665 Ho641 2.305 . S
O665 C650 1.256 . S
O666 Ho641 2.322 . S
O666 C651 1.259 . S
O667 Ho640 2.346 . S
O667 C651 1.268 . S
O668 Ho641 2.378 . S
O668 C652 1.215 . S
O669 Ho641 2.524 . S
O669 C652 1.289 . S
O670 Ho641 2.381 . S
O670 C659 1.275 . S
O671 Ho640 2.305 . S
O671 Ho641 2.669 . S
O671 C659 1.256 . S
H672 C645 0.930 . S
H673 C646 0.931 . S
H674 C648 0.934 . S
H675 C649 0.930 . S
H676 C654 0.930 . S
H677 C655 0.931 . S
H678 C657 0.934 . S
H679 C658 0.930 . S
Ho680 C683 2.811 1_554 S
Ho680 O700 2.322 1_554 S
Ho680 O702 2.378 . S
Ho680 O703 2.524 1_554 S
Ho680 O704 2.381 . S
Ho680 O705 2.669 . S
Ho680 O707 2.346 . S
Ho680 O711 2.305 . S
Ho681 C692 2.811 . S
Ho681 O701 2.346 1_554 S
Ho681 O705 2.305 . S
Ho681 O706 2.322 . S
Ho681 O708 2.378 . S
Ho681 O709 2.524 . S
Ho681 O710 2.381 . S
Ho681 O711 2.669 . S
C682 O700 1.259 . S
C682 O701 1.268 . S
C683 Ho680 2.811 1_556 S
C683 C684 1.488 . S
C683 O702 1.215 1_556 S
C683 O703 1.289 . S
C684 C683 1.488 . S
C684 C685 1.348 . S
C684 C689 1.413 . S
C685 C684 1.348 . S
C685 C686 1.442 . S
C685 H712 0.930 . S
C686 C685 1.442 . S
C686 C687 1.381 . S
C686 H713 0.931 . S
C687 C686 1.381 . S
C687 C688 1.321 . S
C688 C687 1.321 . S
C688 C689 1.403 . S
C688 H714 0.934 . S
C689 C684 1.413 . S
C689 C688 1.403 . S
C689 H715 0.930 . S
C690 O704 1.275 . S
C690 O705 1.256 . S
C691 O706 1.259 . S
C691 O707 1.268 . S
C692 Ho681 2.811 . S
C692 C693 1.488 . S
C692 O708 1.215 . S
C692 O709 1.289 . S
C693 C692 1.488 . S
C693 C694 1.348 . S
C693 C698 1.413 . S
C694 C693 1.348 . S
C694 C695 1.442 . S
C694 H716 0.930 . S
C695 C694 1.442 . S
C695 C696 1.381 . S
C695 H717 0.931 . S
C696 C695 1.381 . S
C696 C697 1.321 . S
C697 C696 1.321 . S
C697 C698 1.403 . S
C697 H718 0.934 . S
C698 C693 1.413 . S
C698 C697 1.403 . S
C698 H719 0.930 . S
C699 O710 1.275 . S
C699 O711 1.256 . S
O700 Ho680 2.322 1_556 S
O700 C682 1.259 . S
O701 Ho681 2.346 1_556 S
O701 C682 1.268 . S
O702 Ho680 2.378 . S
O702 C683 1.215 1_554 S
O703 Ho680 2.524 1_556 S
O703 C683 1.289 . S
O704 Ho680 2.381 . S
O704 C690 1.275 . S
O705 Ho680 2.669 . S
O705 Ho681 2.305 . S
O705 C690 1.256 . S
O706 Ho681 2.322 . S
O706 C691 1.259 . S
O707 Ho680 2.346 . S
O707 C691 1.268 . S
O708 Ho681 2.378 . S
O708 C692 1.215 . S
O709 Ho681 2.524 . S
O709 C692 1.289 . S
O710 Ho681 2.381 . S
O710 C699 1.275 . S
O711 Ho680 2.305 . S
O711 Ho681 2.669 . S
O711 C699 1.256 . S
H712 C685 0.930 . S
H713 C686 0.931 . S
H714 C688 0.934 . S
H715 C689 0.930 . S
H716 C694 0.930 . S
H717 C695 0.931 . S
H718 C697 0.934 . S
H719 C698 0.930 . S
Ho720 C723 2.811 . S
Ho720 O740 2.322 . S
Ho720 O742 2.378 . S
Ho720 O743 2.524 . S
Ho720 O744 2.381 . S
Ho720 O745 2.669 . S
Ho720 O747 2.346 . S
Ho720 O751 2.305 . S
Ho721 C732 2.811 . S
Ho721 O741 2.346 . S
Ho721 O745 2.305 . S
Ho721 O746 2.322 . S
Ho721 O748 2.378 . S
Ho721 O749 2.524 . S
Ho721 O750 2.381 . S
Ho721 O751 2.669 . S
C722 O740 1.259 . S
C722 O741 1.268 . S
C723 Ho720 2.811 . S
C723 C724 1.488 . S
C723 O742 1.215 . S
C723 O743 1.289 . S
C724 C723 1.488 . S
C724 C725 1.348 . S
C724 C729 1.413 . S
C725 C724 1.348 . S
C725 C726 1.442 . S
C725 H752 0.930 . S
C726 C725 1.442 . S
C726 C727 1.381 . S
C726 H753 0.931 . S
C727 C726 1.381 . S
C727 C728 1.321 . S
C728 C727 1.321 . S
C728 C729 1.403 . S
C728 H754 0.934 . S
C729 C724 1.413 . S
C729 C728 1.403 . S
C729 H755 0.930 . S
C730 O744 1.275 . S
C730 O745 1.256 . S
C731 O746 1.259 . S
C731 O747 1.268 . S
C732 Ho721 2.811 . S
C732 C733 1.488 . S
C732 O748 1.215 . S
C732 O749 1.289 . S
C733 C732 1.488 . S
C733 C734 1.348 . S
C733 C738 1.413 . S
C734 C733 1.348 . S
C734 C735 1.442 . S
C734 H756 0.930 . S
C735 C734 1.442 . S
C735 C736 1.381 . S
C735 H757 0.931 . S
C736 C735 1.381 . S
C736 C737 1.321 . S
C737 C736 1.321 . S
C737 C738 1.403 . S
C737 H758 0.934 . S
C738 C733 1.413 . S
C738 C737 1.403 . S
C738 H759 0.930 . S
C739 O750 1.275 . S
C739 O751 1.256 . S
O740 Ho720 2.322 . S
O740 C722 1.259 . S
O741 Ho721 2.346 . S
O741 C722 1.268 . S
O742 Ho720 2.378 . S
O742 C723 1.215 . S
O743 Ho720 2.524 . S
O743 C723 1.289 . S
O744 Ho720 2.381 . S
O744 C730 1.275 . S
O745 Ho720 2.669 . S
O745 Ho721 2.305 . S
O745 C730 1.256 . S
O746 Ho721 2.322 . S
O746 C731 1.259 . S
O747 Ho720 2.346 . S
O747 C731 1.268 . S
O748 Ho721 2.378 . S
O748 C732 1.215 . S
O749 Ho721 2.524 . S
O749 C732 1.289 . S
O750 Ho721 2.381 . S
O750 C739 1.275 . S
O751 Ho720 2.305 . S
O751 Ho721 2.669 . S
O751 C739 1.256 . S
H752 C725 0.930 . S
H753 C726 0.931 . S
H754 C728 0.934 . S
H755 C729 0.930 . S
H756 C734 0.930 . S
H757 C735 0.931 . S
H758 C737 0.934 . S
H759 C738 0.930 . S
Ho760 C763 2.811 . S
Ho760 O780 2.322 . S
Ho760 O782 2.378 . S
Ho760 O783 2.524 . S
Ho760 O784 2.381 . S
Ho760 O785 2.669 . S
Ho760 O787 2.346 . S
Ho760 O791 2.305 . S
Ho761 C772 2.811 . S
Ho761 O781 2.346 . S
Ho761 O785 2.305 . S
Ho761 O786 2.322 . S
Ho761 O788 2.378 . S
Ho761 O789 2.524 . S
Ho761 O790 2.381 . S
Ho761 O791 2.669 . S
C762 O780 1.259 . S
C762 O781 1.268 . S
C763 Ho760 2.811 . S
C763 C764 1.488 . S
C763 O782 1.215 . S
C763 O783 1.289 . S
C764 C763 1.488 . S
C764 C765 1.348 . S
C764 C769 1.413 . S
C765 C764 1.348 . S
C765 C766 1.442 . S
C765 H792 0.930 . S
C766 C765 1.442 . S
C766 C767 1.381 . S
C766 H793 0.931 . S
C767 C766 1.381 . S
C767 C768 1.321 . S
C768 C767 1.321 . S
C768 C769 1.403 . S
C768 H794 0.934 . S
C769 C764 1.413 . S
C769 C768 1.403 . S
C769 H795 0.930 . S
C770 O784 1.275 . S
C770 O785 1.256 . S
C771 O786 1.259 . S
C771 O787 1.268 . S
C772 Ho761 2.811 . S
C772 C773 1.488 . S
C772 O788 1.215 . S
C772 O789 1.289 . S
C773 C772 1.488 . S
C773 C774 1.348 . S
C773 C778 1.413 . S
C774 C773 1.348 . S
C774 C775 1.442 . S
C774 H796 0.930 . S
C775 C774 1.442 . S
C775 C776 1.381 . S
C775 H797 0.931 . S
C776 C775 1.381 . S
C776 C777 1.321 . S
C777 C776 1.321 . S
C777 C778 1.403 . S
C777 H798 0.934 . S
C778 C773 1.413 . S
C778 C777 1.403 . S
C778 H799 0.930 . S
C779 O790 1.275 . S
C779 O791 1.256 . S
O780 Ho760 2.322 . S
O780 C762 1.259 . S
O781 Ho761 2.346 . S
O781 C762 1.268 . S
O782 Ho760 2.378 . S
O782 C763 1.215 . S
O783 Ho760 2.524 . S
O783 C763 1.289 . S
O784 Ho760 2.381 . S
O784 C770 1.275 . S
O785 Ho760 2.669 . S
O785 Ho761 2.305 . S
O785 C770 1.256 . S
O786 Ho761 2.322 . S
O786 C771 1.259 . S
O787 Ho760 2.346 . S
O787 C771 1.268 . S
O788 Ho761 2.378 . S
O788 C772 1.215 . S
O789 Ho761 2.524 . S
O789 C772 1.289 . S
O790 Ho761 2.381 . S
O790 C779 1.275 . S
O791 Ho760 2.305 . S
O791 Ho761 2.669 . S
O791 C779 1.256 . S
H792 C765 0.930 . S
H793 C766 0.931 . S
H794 C768 0.934 . S
H795 C769 0.930 . S
H796 C774 0.930 . S
H797 C775 0.931 . S
H798 C777 0.934 . S
H799 C778 0.930 . S
Ho800 C803 2.811 . S
Ho800 O820 2.322 . S
Ho800 O822 2.378 . S
Ho800 O823 2.524 . S
Ho800 O824 2.381 . S
Ho800 O825 2.669 . S
Ho800 O827 2.346 . S
Ho800 O831 2.305 . S
Ho801 C812 2.811 . S
Ho801 O821 2.346 . S
Ho801 O825 2.305 . S
Ho801 O826 2.322 . S
Ho801 O828 2.378 . S
Ho801 O829 2.524 . S
Ho801 O830 2.381 . S
Ho801 O831 2.669 . S
C802 O820 1.259 . S
C802 O821 1.268 . S
C803 Ho800 2.811 . S
C803 C804 1.488 . S
C803 O822 1.215 . S
C803 O823 1.289 . S
C804 C803 1.488 . S
C804 C805 1.348 . S
C804 C809 1.413 . S
C805 C804 1.348 . S
C805 C806 1.442 . S
C805 H832 0.930 . S
C806 C805 1.442 . S
C806 C807 1.381 . S
C806 H833 0.931 . S
C807 C806 1.381 . S
C807 C808 1.321 . S
C808 C807 1.321 . S
C808 C809 1.403 . S
C808 H834 0.934 . S
C809 C804 1.413 . S
C809 C808 1.403 . S
C809 H835 0.930 . S
C810 O824 1.275 . S
C810 O825 1.256 . S
C811 O826 1.259 . S
C811 O827 1.268 . S
C812 Ho801 2.811 . S
C812 C813 1.488 . S
C812 O828 1.215 . S
C812 O829 1.289 . S
C813 C812 1.488 . S
C813 C814 1.348 . S
C813 C818 1.413 . S
C814 C813 1.348 . S
C814 C815 1.442 . S
C814 H836 0.930 . S
C815 C814 1.442 . S
C815 C816 1.381 . S
C815 H837 0.931 . S
C816 C815 1.381 . S
C816 C817 1.321 . S
C817 C816 1.321 . S
C817 C818 1.403 . S
C817 H838 0.934 . S
C818 C813 1.413 . S
C818 C817 1.403 . S
C818 H839 0.930 . S
C819 O830 1.275 . S
C819 O831 1.256 . S
O820 Ho800 2.322 . S
O820 C802 1.259 . S
O821 Ho801 2.346 . S
O821 C802 1.268 . S
O822 Ho800 2.378 . S
O822 C803 1.215 . S
O823 Ho800 2.524 . S
O823 C803 1.289 . S
O824 Ho800 2.381 . S
O824 C810 1.275 . S
O825 Ho800 2.669 . S
O825 Ho801 2.305 . S
O825 C810 1.256 . S
O826 Ho801 2.322 . S
O826 C811 1.259 . S
O827 Ho800 2.346 . S
O827 C811 1.268 . S
O828 Ho801 2.378 . S
O828 C812 1.215 . S
O829 Ho801 2.524 . S
O829 C812 1.289 . S
O830 Ho801 2.381 . S
O830 C819 1.275 . S
O831 Ho800 2.305 . S
O831 Ho801 2.669 . S
O831 C819 1.256 . S
H832 C805 0.930 . S
H833 C806 0.931 . S
H834 C808 0.934 . S
H835 C809 0.930 . S
H836 C814 0.930 . S
H837 C815 0.931 . S
H838 C817 0.934 . S
H839 C818 0.930 . S
Ho840 C843 2.811 1_556 S
Ho840 O860 2.322 1_556 S
Ho840 O862 2.378 . S
Ho840 O863 2.524 1_556 S
Ho840 O864 2.381 . S
Ho840 O865 2.669 . S
Ho840 O867 2.346 . S
Ho840 O871 2.305 . S
Ho841 C852 2.811 . S
Ho841 O861 2.346 1_556 S
Ho841 O865 2.305 . S
Ho841 O866 2.322 . S
Ho841 O868 2.378 . S
Ho841 O869 2.524 . S
Ho841 O870 2.381 . S
Ho841 O871 2.669 . S
C842 O860 1.259 . S
C842 O861 1.268 . S
C843 Ho840 2.811 1_554 S
C843 C844 1.488 . S
C843 O862 1.215 1_554 S
C843 O863 1.289 . S
C844 C843 1.488 . S
C844 C845 1.348 . S
C844 C849 1.413 . S
C845 C844 1.348 . S
C845 C846 1.442 . S
C845 H872 0.930 . S
C846 C845 1.442 . S
C846 C847 1.381 . S
C846 H873 0.931 . S
C847 C846 1.381 . S
C847 C848 1.321 . S
C848 C847 1.321 . S
C848 C849 1.403 . S
C848 H874 0.934 . S
C849 C844 1.413 . S
C849 C848 1.403 . S
C849 H875 0.930 . S
C850 O864 1.275 . S
C850 O865 1.256 . S
C851 O866 1.259 . S
C851 O867 1.268 . S
C852 Ho841 2.811 . S
C852 C853 1.488 . S
C852 O868 1.215 . S
C852 O869 1.289 . S
C853 C852 1.488 . S
C853 C854 1.348 . S
C853 C858 1.413 . S
C854 C853 1.348 . S
C854 C855 1.442 . S
C854 H876 0.930 . S
C855 C854 1.442 . S
C855 C856 1.381 . S
C855 H877 0.931 . S
C856 C855 1.381 . S
C856 C857 1.321 . S
C857 C856 1.321 . S
C857 C858 1.403 . S
C857 H878 0.934 . S
C858 C853 1.413 . S
C858 C857 1.403 . S
C858 H879 0.930 . S
C859 O870 1.275 . S
C859 O871 1.256 . S
O860 Ho840 2.322 1_554 S
O860 C842 1.259 . S
O861 Ho841 2.346 1_554 S
O861 C842 1.268 . S
O862 Ho840 2.378 . S
O862 C843 1.215 1_556 S
O863 Ho840 2.524 1_554 S
O863 C843 1.289 . S
O864 Ho840 2.381 . S
O864 C850 1.275 . S
O865 Ho840 2.669 . S
O865 Ho841 2.305 . S
O865 C850 1.256 . S
O866 Ho841 2.322 . S
O866 C851 1.259 . S
O867 Ho840 2.346 . S
O867 C851 1.268 . S
O868 Ho841 2.378 . S
O868 C852 1.215 . S
O869 Ho841 2.524 . S
O869 C852 1.289 . S
O870 Ho841 2.381 . S
O870 C859 1.275 . S
O871 Ho840 2.305 . S
O871 Ho841 2.669 . S
O871 C859 1.256 . S
H872 C845 0.930 . S
H873 C846 0.931 . S
H874 C848 0.934 . S
H875 C849 0.930 . S
H876 C854 0.930 . S
H877 C855 0.931 . S
H878 C857 0.934 . S
H879 C858 0.930 . S
Ho880 C883 2.811 . S
Ho880 O900 2.322 . S
Ho880 O902 2.378 . S
Ho880 O903 2.524 . S
Ho880 O904 2.381 . S
Ho880 O905 2.669 . S
Ho880 O907 2.346 . S
Ho880 O911 2.305 . S
Ho881 C892 2.811 . S
Ho881 O901 2.346 . S
Ho881 O905 2.305 . S
Ho881 O906 2.322 . S
Ho881 O908 2.378 . S
Ho881 O909 2.524 . S
Ho881 O910 2.381 . S
Ho881 O911 2.669 . S
C882 O900 1.259 . S
C882 O901 1.268 . S
C883 Ho880 2.811 . S
C883 C884 1.488 . S
C883 O902 1.215 . S
C883 O903 1.289 . S
C884 C883 1.488 . S
C884 C885 1.348 . S
C884 C889 1.413 . S
C885 C884 1.348 . S
C885 C886 1.442 . S
C885 H912 0.930 . S
C886 C885 1.442 . S
C886 C887 1.381 . S
C886 H913 0.931 . S
C887 C886 1.381 . S
C887 C888 1.321 . S
C888 C887 1.321 . S
C888 C889 1.403 . S
C888 H914 0.934 . S
C889 C884 1.413 . S
C889 C888 1.403 . S
C889 H915 0.930 . S
C890 O904 1.275 . S
C890 O905 1.256 . S
C891 O906 1.259 . S
C891 O907 1.268 . S
C892 Ho881 2.811 . S
C892 C893 1.488 . S
C892 O908 1.215 . S
C892 O909 1.289 . S
C893 C892 1.488 . S
C893 C894 1.348 . S
C893 C898 1.413 . S
C894 C893 1.348 . S
C894 C895 1.442 . S
C894 H916 0.930 . S
C895 C894 1.442 . S
C895 C896 1.381 . S
C895 H917 0.931 . S
C896 C895 1.381 . S
C896 C897 1.321 . S
C897 C896 1.321 . S
C897 C898 1.403 . S
C897 H918 0.934 . S
C898 C893 1.413 . S
C898 C897 1.403 . S
C898 H919 0.930 . S
C899 O910 1.275 . S
C899 O911 1.256 . S
O900 Ho880 2.322 . S
O900 C882 1.259 . S
O901 Ho881 2.346 . S
O901 C882 1.268 . S
O902 Ho880 2.378 . S
O902 C883 1.215 . S
O903 Ho880 2.524 . S
O903 C883 1.289 . S
O904 Ho880 2.381 . S
O904 C890 1.275 . S
O905 Ho880 2.669 . S
O905 Ho881 2.305 . S
O905 C890 1.256 . S
O906 Ho881 2.322 . S
O906 C891 1.259 . S
O907 Ho880 2.346 . S
O907 C891 1.268 . S
O908 Ho881 2.378 . S
O908 C892 1.215 . S
O909 Ho881 2.524 . S
O909 C892 1.289 . S
O910 Ho881 2.381 . S
O910 C899 1.275 . S
O911 Ho880 2.305 . S
O911 Ho881 2.669 . S
O911 C899 1.256 . S
H912 C885 0.930 . S
H913 C886 0.931 . S
H914 C888 0.934 . S
H915 C889 0.930 . S
H916 C894 0.930 . S
H917 C895 0.931 . S
H918 C897 0.934 . S
H919 C898 0.930 . S
Ho920 C923 2.811 . S
Ho920 O940 2.322 . S
Ho920 O942 2.378 . S
Ho920 O943 2.524 . S
Ho920 O944 2.381 . S
Ho920 O945 2.669 . S
Ho920 O947 2.346 . S
Ho920 O951 2.305 . S
Ho921 C932 2.811 . S
Ho921 O941 2.346 . S
Ho921 O945 2.305 . S
Ho921 O946 2.322 . S
Ho921 O948 2.378 . S
Ho921 O949 2.524 . S
Ho921 O950 2.381 . S
Ho921 O951 2.669 . S
C922 O940 1.259 . S
C922 O941 1.268 . S
C923 Ho920 2.811 . S
C923 C924 1.488 . S
C923 O942 1.215 . S
C923 O943 1.289 . S
C924 C923 1.488 . S
C924 C925 1.348 . S
C924 C929 1.413 . S
C925 C924 1.348 . S
C925 C926 1.442 . S
C925 H952 0.930 . S
C926 C925 1.442 . S
C926 C927 1.381 . S
C926 H953 0.931 . S
C927 C926 1.381 . S
C927 C928 1.321 . S
C928 C927 1.321 . S
C928 C929 1.403 . S
C928 H954 0.934 . S
C929 C924 1.413 . S
C929 C928 1.403 . S
C929 H955 0.930 . S
C930 O944 1.275 . S
C930 O945 1.256 . S
C931 O946 1.259 . S
C931 O947 1.268 . S
C932 Ho921 2.811 . S
C932 C933 1.488 . S
C932 O948 1.215 . S
C932 O949 1.289 . S
C933 C932 1.488 . S
C933 C934 1.348 . S
C933 C938 1.413 . S
C934 C933 1.348 . S
C934 C935 1.442 . S
C934 H956 0.930 . S
C935 C934 1.442 . S
C935 C936 1.381 . S
C935 H957 0.931 . S
C936 C935 1.381 . S
C936 C937 1.321 . S
C937 C936 1.321 . S
C937 C938 1.403 . S
C937 H958 0.934 . S
C938 C933 1.413 . S
C938 C937 1.403 . S
C938 H959 0.930 . S
C939 O950 1.275 . S
C939 O951 1.256 . S
O940 Ho920 2.322 . S
O940 C922 1.259 . S
O941 Ho921 2.346 . S
O941 C922 1.268 . S
O942 Ho920 2.378 . S
O942 C923 1.215 . S
O943 Ho920 2.524 . S
O943 C923 1.289 . S
O944 Ho920 2.381 . S
O944 C930 1.275 . S
O945 Ho920 2.669 . S
O945 Ho921 2.305 . S
O945 C930 1.256 . S
O946 Ho921 2.322 . S
O946 C931 1.259 . S
O947 Ho920 2.346 . S
O947 C931 1.268 . S
O948 Ho921 2.378 . S
O948 C932 1.215 . S
O949 Ho921 2.524 . S
O949 C932 1.289 . S
O950 Ho921 2.381 . S
O950 C939 1.275 . S
O951 Ho920 2.305 . S
O951 Ho921 2.669 . S
O951 C939 1.256 . S
H952 C925 0.930 . S
H953 C926 0.931 . S
H954 C928 0.934 . S
H955 C929 0.930 . S
H956 C934 0.930 . S
H957 C935 0.931 . S
H958 C937 0.934 . S
H959 C938 0.930 . S
Ho960 C963 2.811 . S
Ho960 O980 2.322 . S
Ho960 O982 2.378 . S
Ho960 O983 2.524 . S
Ho960 O984 2.381 . S
Ho960 O985 2.669 . S
Ho960 O987 2.346 . S
Ho960 O991 2.305 . S
Ho961 C972 2.811 . S
Ho961 O981 2.346 . S
Ho961 O985 2.305 . S
Ho961 O986 2.322 . S
Ho961 O988 2.378 . S
Ho961 O989 2.524 . S
Ho961 O990 2.381 . S
Ho961 O991 2.669 . S
C962 O980 1.259 . S
C962 O981 1.268 . S
C963 Ho960 2.811 . S
C963 C964 1.488 . S
C963 O982 1.215 . S
C963 O983 1.289 . S
C964 C963 1.488 . S
C964 C965 1.348 . S
C964 C969 1.413 . S
C965 C964 1.348 . S
C965 C966 1.442 . S
C965 H992 0.930 . S
C966 C965 1.442 . S
C966 C967 1.381 . S
C966 H993 0.931 . S
C967 C966 1.381 . S
C967 C968 1.321 . S
C968 C967 1.321 . S
C968 C969 1.403 . S
C968 H994 0.934 . S
C969 C964 1.413 . S
C969 C968 1.403 . S
C969 H995 0.930 . S
C970 O984 1.275 . S
C970 O985 1.256 . S
C971 O986 1.259 . S
C971 O987 1.268 . S
C972 Ho961 2.811 . S
C972 C973 1.488 . S
C972 O988 1.215 . S
C972 O989 1.289 . S
C973 C972 1.488 . S
C973 C974 1.348 . S
C973 C978 1.413 . S
C974 C973 1.348 . S
C974 C975 1.442 . S
C974 H996 0.930 . S
C975 C974 1.442 . S
C975 C976 1.381 . S
C975 H997 0.931 . S
C976 C975 1.381 . S
C976 C977 1.321 . S
C977 C976 1.321 . S
C977 C978 1.403 . S
C977 H998 0.934 . S
C978 C973 1.413 . S
C978 C977 1.403 . S
C978 H999 0.930 . S
C979 O990 1.275 . S
C979 O991 1.256 . S
O980 Ho960 2.322 . S
O980 C962 1.259 . S
O981 Ho961 2.346 . S
O981 C962 1.268 . S
O982 Ho960 2.378 . S
O982 C963 1.215 . S
O983 Ho960 2.524 . S
O983 C963 1.289 . S
O984 Ho960 2.381 . S
O984 C970 1.275 . S
O985 Ho960 2.669 . S
O985 Ho961 2.305 . S
O985 C970 1.256 . S
O986 Ho961 2.322 . S
O986 C971 1.259 . S
O987 Ho960 2.346 . S
O987 C971 1.268 . S
O988 Ho961 2.378 . S
O988 C972 1.215 . S
O989 Ho961 2.524 . S
O989 C972 1.289 . S
O990 Ho961 2.381 . S
O990 C979 1.275 . S
O991 Ho960 2.305 . S
O991 Ho961 2.669 . S
O991 C979 1.256 . S
H992 C965 0.930 . S
H993 C966 0.931 . S
H994 C968 0.934 . S
H995 C969 0.930 . S
H996 C974 0.930 . S
H997 C975 0.931 . S
H998 C977 0.934 . S
H999 C978 0.930 . S
Ho1000 C1003 2.811 . S
Ho1000 O1020 2.322 . S
Ho1000 O1022 2.378 . S
Ho1000 O1023 2.524 . S
Ho1000 O1024 2.381 . S
Ho1000 O1025 2.669 . S
Ho1000 O1027 2.346 1_556 S
Ho1000 O1031 2.305 . S
Ho1001 C1012 2.811 1_556 S
Ho1001 O1021 2.346 . S
Ho1001 O1025 2.305 . S
Ho1001 O1026 2.322 1_556 S
Ho1001 O1028 2.378 . S
Ho1001 O1029 2.524 1_556 S
Ho1001 O1030 2.381 . S
Ho1001 O1031 2.669 . S
C1002 O1020 1.259 . S
C1002 O1021 1.268 . S
C1003 Ho1000 2.811 . S
C1003 C1004 1.488 . S
C1003 O1022 1.215 . S
C1003 O1023 1.289 . S
C1004 C1003 1.488 . S
C1004 C1005 1.348 . S
C1004 C1009 1.413 . S
C1005 C1004 1.348 . S
C1005 C1006 1.442 . S
C1005 H1032 0.930 . S
C1006 C1005 1.442 . S
C1006 C1007 1.381 . S
C1006 H1033 0.931 . S
C1007 C1006 1.381 . S
C1007 C1008 1.321 . S
C1008 C1007 1.321 . S
C1008 C1009 1.403 . S
C1008 H1034 0.934 . S
C1009 C1004 1.413 . S
C1009 C1008 1.403 . S
C1009 H1035 0.930 . S
C1010 O1024 1.275 . S
C1010 O1025 1.256 . S
C1011 O1026 1.259 . S
C1011 O1027 1.268 . S
C1012 Ho1001 2.811 1_554 S
C1012 C1013 1.488 . S
C1012 O1028 1.215 1_554 S
C1012 O1029 1.289 . S
C1013 C1012 1.488 . S
C1013 C1014 1.348 . S
C1013 C1018 1.413 . S
C1014 C1013 1.348 . S
C1014 C1015 1.442 . S
C1014 H1036 0.930 . S
C1015 C1014 1.442 . S
C1015 C1016 1.381 . S
C1015 H1037 0.931 . S
C1016 C1015 1.381 . S
C1016 C1017 1.321 . S
C1017 C1016 1.321 . S
C1017 C1018 1.403 . S
C1017 H1038 0.934 . S
C1018 C1013 1.413 . S
C1018 C1017 1.403 . S
C1018 H1039 0.930 . S
C1019 O1030 1.275 . S
C1019 O1031 1.256 . S
O1020 Ho1000 2.322 . S
O1020 C1002 1.259 . S
O1021 Ho1001 2.346 . S
O1021 C1002 1.268 . S
O1022 Ho1000 2.378 . S
O1022 C1003 1.215 . S
O1023 Ho1000 2.524 . S
O1023 C1003 1.289 . S
O1024 Ho1000 2.381 . S
O1024 C1010 1.275 . S
O1025 Ho1000 2.669 . S
O1025 Ho1001 2.305 . S
O1025 C1010 1.256 . S
O1026 Ho1001 2.322 1_554 S
O1026 C1011 1.259 . S
O1027 Ho1000 2.346 1_554 S
O1027 C1011 1.268 . S
O1028 Ho1001 2.378 . S
O1028 C1012 1.215 1_556 S
O1029 Ho1001 2.524 1_554 S
O1029 C1012 1.289 . S
O1030 Ho1001 2.381 . S
O1030 C1019 1.275 . S
O1031 Ho1000 2.305 . S
O1031 Ho1001 2.669 . S
O1031 C1019 1.256 . S
H1032 C1005 0.930 . S
H1033 C1006 0.931 . S
H1034 C1008 0.934 . S
H1035 C1009 0.930 . S
H1036 C1014 0.930 . S
H1037 C1015 0.931 . S
H1038 C1017 0.934 . S
H1039 C1018 0.930 . S
Ho1040 C1043 2.811 . S
Ho1040 O1060 2.322 . S
Ho1040 O1062 2.378 . S
Ho1040 O1063 2.524 . S
Ho1040 O1064 2.381 . S
Ho1040 O1065 2.669 . S
Ho1040 O1067 2.346 . S
Ho1040 O1071 2.305 . S
Ho1041 C1052 2.811 . S
Ho1041 O1061 2.346 . S
Ho1041 O1065 2.305 . S
Ho1041 O1066 2.322 . S
Ho1041 O1068 2.378 . S
Ho1041 O1069 2.524 . S
Ho1041 O1070 2.381 . S
Ho1041 O1071 2.669 . S
C1042 O1060 1.259 . S
C1042 O1061 1.268 . S
C1043 Ho1040 2.811 . S
C1043 C1044 1.488 . S
C1043 O1062 1.215 . S
C1043 O1063 1.289 . S
C1044 C1043 1.488 . S
C1044 C1045 1.348 . S
C1044 C1049 1.413 . S
C1045 C1044 1.348 . S
C1045 C1046 1.442 . S
C1045 H1072 0.930 . S
C1046 C1045 1.442 . S
C1046 C1047 1.381 . S
C1046 H1073 0.931 . S
C1047 C1046 1.381 . S
C1047 C1048 1.321 . S
C1048 C1047 1.321 . S
C1048 C1049 1.403 . S
C1048 H1074 0.934 . S
C1049 C1044 1.413 . S
C1049 C1048 1.403 . S
C1049 H1075 0.930 . S
C1050 O1064 1.275 . S
C1050 O1065 1.256 . S
C1051 O1066 1.259 . S
C1051 O1067 1.268 . S
C1052 Ho1041 2.811 . S
C1052 C1053 1.488 . S
C1052 O1068 1.215 . S
C1052 O1069 1.289 . S
C1053 C1052 1.488 . S
C1053 C1054 1.348 . S
C1053 C1058 1.413 . S
C1054 C1053 1.348 . S
C1054 C1055 1.442 . S
C1054 H1076 0.930 . S
C1055 C1054 1.442 . S
C1055 C1056 1.381 . S
C1055 H1077 0.931 . S
C1056 C1055 1.381 . S
C1056 C1057 1.321 . S
C1057 C1056 1.321 . S
C1057 C1058 1.403 . S
C1057 H1078 0.934 . S
C1058 C1053 1.413 . S
C1058 C1057 1.403 . S
C1058 H1079 0.930 . S
C1059 O1070 1.275 . S
C1059 O1071 1.256 . S
O1060 Ho1040 2.322 . S
O1060 C1042 1.259 . S
O1061 Ho1041 2.346 . S
O1061 C1042 1.268 . S
O1062 Ho1040 2.378 . S
O1062 C1043 1.215 . S
O1063 Ho1040 2.524 . S
O1063 C1043 1.289 . S
O1064 Ho1040 2.381 . S
O1064 C1050 1.275 . S
O1065 Ho1040 2.669 . S
O1065 Ho1041 2.305 . S
O1065 C1050 1.256 . S
O1066 Ho1041 2.322 . S
O1066 C1051 1.259 . S
O1067 Ho1040 2.346 . S
O1067 C1051 1.268 . S
O1068 Ho1041 2.378 . S
O1068 C1052 1.215 . S
O1069 Ho1041 2.524 . S
O1069 C1052 1.289 . S
O1070 Ho1041 2.381 . S
O1070 C1059 1.275 . S
O1071 Ho1040 2.305 . S
O1071 Ho1041 2.669 . S
O1071 C1059 1.256 . S
H1072 C1045 0.930 . S
H1073 C1046 0.931 . S
H1074 C1048 0.934 . S
H1075 C1049 0.930 . S
H1076 C1054 0.930 . S
H1077 C1055 0.931 . S
H1078 C1057 0.934 . S
H1079 C1058 0.930 . S
Ho1080 C1083 2.811 . S
Ho1080 O1100 2.322 . S
Ho1080 O1102 2.378 . S
Ho1080 O1103 2.524 . S
Ho1080 O1104 2.381 . S
Ho1080 O1105 2.669 . S
Ho1080 O1107 2.346 . S
Ho1080 O1111 2.305 . S
Ho1081 C1092 2.811 . S
Ho1081 O1101 2.346 . S
Ho1081 O1105 2.305 . S
Ho1081 O1106 2.322 . S
Ho1081 O1108 2.378 . S
Ho1081 O1109 2.524 . S
Ho1081 O1110 2.381 . S
Ho1081 O1111 2.669 . S
C1082 O1100 1.259 . S
C1082 O1101 1.268 . S
C1083 Ho1080 2.811 . S
C1083 C1084 1.488 . S
C1083 O1102 1.215 . S
C1083 O1103 1.289 . S
C1084 C1083 1.488 . S
C1084 C1085 1.348 . S
C1084 C1089 1.413 . S
C1085 C1084 1.348 . S
C1085 C1086 1.442 . S
C1085 H1112 0.930 . S
C1086 C1085 1.442 . S
C1086 C1087 1.381 . S
C1086 H1113 0.931 . S
C1087 C1086 1.381 . S
C1087 C1088 1.321 . S
C1088 C1087 1.321 . S
C1088 C1089 1.403 . S
C1088 H1114 0.934 . S
C1089 C1084 1.413 . S
C1089 C1088 1.403 . S
C1089 H1115 0.930 . S
C1090 O1104 1.275 . S
C1090 O1105 1.256 . S
C1091 O1106 1.259 . S
C1091 O1107 1.268 . S
C1092 Ho1081 2.811 . S
C1092 C1093 1.488 . S
C1092 O1108 1.215 . S
C1092 O1109 1.289 . S
C1093 C1092 1.488 . S
C1093 C1094 1.348 . S
C1093 C1098 1.413 . S
C1094 C1093 1.348 . S
C1094 C1095 1.442 . S
C1094 H1116 0.930 . S
C1095 C1094 1.442 . S
C1095 C1096 1.381 . S
C1095 H1117 0.931 . S
C1096 C1095 1.381 . S
C1096 C1097 1.321 . S
C1097 C1096 1.321 . S
C1097 C1098 1.403 . S
C1097 H1118 0.934 . S
C1098 C1093 1.413 . S
C1098 C1097 1.403 . S
C1098 H1119 0.930 . S
C1099 O1110 1.275 . S
C1099 O1111 1.256 . S
O1100 Ho1080 2.322 . S
O1100 C1082 1.259 . S
O1101 Ho1081 2.346 . S
O1101 C1082 1.268 . S
O1102 Ho1080 2.378 . S
O1102 C1083 1.215 . S
O1103 Ho1080 2.524 . S
O1103 C1083 1.289 . S
O1104 Ho1080 2.381 . S
O1104 C1090 1.275 . S
O1105 Ho1080 2.669 . S
O1105 Ho1081 2.305 . S
O1105 C1090 1.256 . S
O1106 Ho1081 2.322 . S
O1106 C1091 1.259 . S
O1107 Ho1080 2.346 . S
O1107 C1091 1.268 . S
O1108 Ho1081 2.378 . S
O1108 C1092 1.215 . S
O1109 Ho1081 2.524 . S
O1109 C1092 1.289 . S
O1110 Ho1081 2.381 . S
O1110 C1099 1.275 . S
O1111 Ho1080 2.305 . S
O1111 Ho1081 2.669 . S
O1111 C1099 1.256 . S
H1112 C1085 0.930 . S
H1113 C1086 0.931 . S
H1114 C1088 0.934 . S
H1115 C1089 0.930 . S
H1116 C1094 0.930 . S
H1117 C1095 0.931 . S
H1118 C1097 0.934 . S
H1119 C1098 0.930 . S
Ho1120 C1123 2.811 . S
Ho1120 O1140 2.322 . S
Ho1120 O1142 2.378 . S
Ho1120 O1143 2.524 . S
Ho1120 O1144 2.381 . S
Ho1120 O1145 2.669 . S
Ho1120 O1147 2.346 . S
Ho1120 O1151 2.305 . S
Ho1121 C1132 2.811 . S
Ho1121 O1141 2.346 . S
Ho1121 O1145 2.305 . S
Ho1121 O1146 2.322 . S
Ho1121 O1148 2.378 . S
Ho1121 O1149 2.524 . S
Ho1121 O1150 2.381 . S
Ho1121 O1151 2.669 . S
C1122 O1140 1.259 . S
C1122 O1141 1.268 . S
C1123 Ho1120 2.811 . S
C1123 C1124 1.488 . S
C1123 O1142 1.215 . S
C1123 O1143 1.289 . S
C1124 C1123 1.488 . S
C1124 C1125 1.348 . S
C1124 C1129 1.413 . S
C1125 C1124 1.348 . S
C1125 C1126 1.442 . S
C1125 H1152 0.930 . S
C1126 C1125 1.442 . S
C1126 C1127 1.381 . S
C1126 H1153 0.931 . S
C1127 C1126 1.381 . S
C1127 C1128 1.321 . S
C1128 C1127 1.321 . S
C1128 C1129 1.403 . S
C1128 H1154 0.934 . S
C1129 C1124 1.413 . S
C1129 C1128 1.403 . S
C1129 H1155 0.930 . S
C1130 O1144 1.275 . S
C1130 O1145 1.256 . S
C1131 O1146 1.259 . S
C1131 O1147 1.268 . S
C1132 Ho1121 2.811 . S
C1132 C1133 1.488 . S
C1132 O1148 1.215 . S
C1132 O1149 1.289 . S
C1133 C1132 1.488 . S
C1133 C1134 1.348 . S
C1133 C1138 1.413 . S
C1134 C1133 1.348 . S
C1134 C1135 1.442 . S
C1134 H1156 0.930 . S
C1135 C1134 1.442 . S
C1135 C1136 1.381 . S
C1135 H1157 0.931 . S
C1136 C1135 1.381 . S
C1136 C1137 1.321 . S
C1137 C1136 1.321 . S
C1137 C1138 1.403 . S
C1137 H1158 0.934 . S
C1138 C1133 1.413 . S
C1138 C1137 1.403 . S
C1138 H1159 0.930 . S
C1139 O1150 1.275 . S
C1139 O1151 1.256 . S
O1140 Ho1120 2.322 . S
O1140 C1122 1.259 . S
O1141 Ho1121 2.346 . S
O1141 C1122 1.268 . S
O1142 Ho1120 2.378 . S
O1142 C1123 1.215 . S
O1143 Ho1120 2.524 . S
O1143 C1123 1.289 . S
O1144 Ho1120 2.381 . S
O1144 C1130 1.275 . S
O1145 Ho1120 2.669 . S
O1145 Ho1121 2.305 . S
O1145 C1130 1.256 . S
O1146 Ho1121 2.322 . S
O1146 C1131 1.259 . S
O1147 Ho1120 2.346 . S
O1147 C1131 1.268 . S
O1148 Ho1121 2.378 . S
O1148 C1132 1.215 . S
O1149 Ho1121 2.524 . S
O1149 C1132 1.289 . S
O1150 Ho1121 2.381 . S
O1150 C1139 1.275 . S
O1151 Ho1120 2.305 . S
O1151 Ho1121 2.669 . S
O1151 C1139 1.256 . S
H1152 C1125 0.930 . S
H1153 C1126 0.931 . S
H1154 C1128 0.934 . S
H1155 C1129 0.930 . S
H1156 C1134 0.930 . S
H1157 C1135 0.931 . S
H1158 C1137 0.934 . S
H1159 C1138 0.930 . S
Ho1160 C1163 2.811 . S
Ho1160 O1180 2.322 . S
Ho1160 O1182 2.378 . S
Ho1160 O1183 2.524 . S
Ho1160 O1184 2.381 . S
Ho1160 O1185 2.669 . S
Ho1160 O1187 2.346 1_554 S
Ho1160 O1191 2.305 . S
Ho1161 C1172 2.811 1_554 S
Ho1161 O1181 2.346 . S
Ho1161 O1185 2.305 . S
Ho1161 O1186 2.322 1_554 S
Ho1161 O1188 2.378 . S
Ho1161 O1189 2.524 1_554 S
Ho1161 O1190 2.381 . S
Ho1161 O1191 2.669 . S
C1162 O1180 1.259 . S
C1162 O1181 1.268 . S
C1163 Ho1160 2.811 . S
C1163 C1164 1.488 . S
C1163 O1182 1.215 . S
C1163 O1183 1.289 . S
C1164 C1163 1.488 . S
C1164 C1165 1.348 . S
C1164 C1169 1.413 . S
C1165 C1164 1.348 . S
C1165 C1166 1.442 . S
C1165 H1192 0.930 . S
C1166 C1165 1.442 . S
C1166 C1167 1.381 . S
C1166 H1193 0.931 . S
C1167 C1166 1.381 . S
C1167 C1168 1.321 . S
C1168 C1167 1.321 . S
C1168 C1169 1.403 . S
C1168 H1194 0.934 . S
C1169 C1164 1.413 . S
C1169 C1168 1.403 . S
C1169 H1195 0.930 . S
C1170 O1184 1.275 . S
C1170 O1185 1.256 . S
C1171 O1186 1.259 . S
C1171 O1187 1.268 . S
C1172 Ho1161 2.811 1_556 S
C1172 C1173 1.488 . S
C1172 O1188 1.215 1_556 S
C1172 O1189 1.289 . S
C1173 C1172 1.488 . S
C1173 C1174 1.348 . S
C1173 C1178 1.413 . S
C1174 C1173 1.348 . S
C1174 C1175 1.442 . S
C1174 H1196 0.930 . S
C1175 C1174 1.442 . S
C1175 C1176 1.381 . S
C1175 H1197 0.931 . S
C1176 C1175 1.381 . S
C1176 C1177 1.321 . S
C1177 C1176 1.321 . S
C1177 C1178 1.403 . S
C1177 H1198 0.934 . S
C1178 C1173 1.413 . S
C1178 C1177 1.403 . S
C1178 H1199 0.930 . S
C1179 O1190 1.275 . S
C1179 O1191 1.256 . S
O1180 Ho1160 2.322 . S
O1180 C1162 1.259 . S
O1181 Ho1161 2.346 . S
O1181 C1162 1.268 . S
O1182 Ho1160 2.378 . S
O1182 C1163 1.215 . S
O1183 Ho1160 2.524 . S
O1183 C1163 1.289 . S
O1184 Ho1160 2.381 . S
O1184 C1170 1.275 . S
O1185 Ho1160 2.669 . S
O1185 Ho1161 2.305 . S
O1185 C1170 1.256 . S
O1186 Ho1161 2.322 1_556 S
O1186 C1171 1.259 . S
O1187 Ho1160 2.346 1_556 S
O1187 C1171 1.268 . S
O1188 Ho1161 2.378 . S
O1188 C1172 1.215 1_554 S
O1189 Ho1161 2.524 1_556 S
O1189 C1172 1.289 . S
O1190 Ho1161 2.381 . S
O1190 C1179 1.275 . S
O1191 Ho1160 2.305 . S
O1191 Ho1161 2.669 . S
O1191 C1179 1.256 . S
H1192 C1165 0.930 . S
H1193 C1166 0.931 . S
H1194 C1168 0.934 . S
H1195 C1169 0.930 . S
H1196 C1174 0.930 . S
H1197 C1175 0.931 . S
H1198 C1177 0.934 . S
H1199 C1178 0.930 . S
Ho1200 C1203 2.811 . S
Ho1200 O1220 2.322 . S
Ho1200 O1222 2.378 . S
Ho1200 O1223 2.524 . S
Ho1200 O1224 2.381 . S
Ho1200 O1225 2.669 . S
Ho1200 O1227 2.346 . S
Ho1200 O1231 2.305 . S
Ho1201 C1212 2.811 . S
Ho1201 O1221 2.346 . S
Ho1201 O1225 2.305 . S
Ho1201 O1226 2.322 . S
Ho1201 O1228 2.378 . S
Ho1201 O1229 2.524 . S
Ho1201 O1230 2.381 . S
Ho1201 O1231 2.669 . S
C1202 O1220 1.259 . S
C1202 O1221 1.268 . S
C1203 Ho1200 2.811 . S
C1203 C1204 1.488 . S
C1203 O1222 1.215 . S
C1203 O1223 1.289 . S
C1204 C1203 1.488 . S
C1204 C1205 1.348 . S
C1204 C1209 1.413 . S
C1205 C1204 1.348 . S
C1205 C1206 1.442 . S
C1205 H1232 0.930 . S
C1206 C1205 1.442 . S
C1206 C1207 1.381 . S
C1206 H1233 0.931 . S
C1207 C1206 1.381 . S
C1207 C1208 1.321 . S
C1208 C1207 1.321 . S
C1208 C1209 1.403 . S
C1208 H1234 0.934 . S
C1209 C1204 1.413 . S
C1209 C1208 1.403 . S
C1209 H1235 0.930 . S
C1210 O1224 1.275 . S
C1210 O1225 1.256 . S
C1211 O1226 1.259 . S
C1211 O1227 1.268 . S
C1212 Ho1201 2.811 . S
C1212 C1213 1.488 . S
C1212 O1228 1.215 . S
C1212 O1229 1.289 . S
C1213 C1212 1.488 . S
C1213 C1214 1.348 . S
C1213 C1218 1.413 . S
C1214 C1213 1.348 . S
C1214 C1215 1.442 . S
C1214 H1236 0.930 . S
C1215 C1214 1.442 . S
C1215 C1216 1.381 . S
C1215 H1237 0.931 . S
C1216 C1215 1.381 . S
C1216 C1217 1.321 . S
C1217 C1216 1.321 . S
C1217 C1218 1.403 . S
C1217 H1238 0.934 . S
C1218 C1213 1.413 . S
C1218 C1217 1.403 . S
C1218 H1239 0.930 . S
C1219 O1230 1.275 . S
C1219 O1231 1.256 . S
O1220 Ho1200 2.322 . S
O1220 C1202 1.259 . S
O1221 Ho1201 2.346 . S
O1221 C1202 1.268 . S
O1222 Ho1200 2.378 . S
O1222 C1203 1.215 . S
O1223 Ho1200 2.524 . S
O1223 C1203 1.289 . S
O1224 Ho1200 2.381 . S
O1224 C1210 1.275 . S
O1225 Ho1200 2.669 . S
O1225 Ho1201 2.305 . S
O1225 C1210 1.256 . S
O1226 Ho1201 2.322 . S
O1226 C1211 1.259 . S
O1227 Ho1200 2.346 . S
O1227 C1211 1.268 . S
O1228 Ho1201 2.378 . S
O1228 C1212 1.215 . S
O1229 Ho1201 2.524 . S
O1229 C1212 1.289 . S
O1230 Ho1201 2.381 . S
O1230 C1219 1.275 . S
O1231 Ho1200 2.305 . S
O1231 Ho1201 2.669 . S
O1231 C1219 1.256 . S
H1232 C1205 0.930 . S
H1233 C1206 0.931 . S
H1234 C1208 0.934 . S
H1235 C1209 0.930 . S
H1236 C1214 0.930 . S
H1237 C1215 0.931 . S
H1238 C1217 0.934 . S
H1239 C1218 0.930 . S
Ho1240 C1243 2.811 . S
Ho1240 O1260 2.322 . S
Ho1240 O1262 2.378 . S
Ho1240 O1263 2.524 . S
Ho1240 O1264 2.381 . S
Ho1240 O1265 2.669 . S
Ho1240 O1267 2.346 . S
Ho1240 O1271 2.305 . S
Ho1241 C1252 2.811 . S
Ho1241 O1261 2.346 . S
Ho1241 O1265 2.305 . S
Ho1241 O1266 2.322 . S
Ho1241 O1268 2.378 . S
Ho1241 O1269 2.524 . S
Ho1241 O1270 2.381 . S
Ho1241 O1271 2.669 . S
C1242 O1260 1.259 . S
C1242 O1261 1.268 . S
C1243 Ho1240 2.811 . S
C1243 C1244 1.488 . S
C1243 O1262 1.215 . S
C1243 O1263 1.289 . S
C1244 C1243 1.488 . S
C1244 C1245 1.348 . S
C1244 C1249 1.413 . S
C1245 C1244 1.348 . S
C1245 C1246 1.442 . S
C1245 H1272 0.930 . S
C1246 C1245 1.442 . S
C1246 C1247 1.381 . S
C1246 H1273 0.931 . S
C1247 C1246 1.381 . S
C1247 C1248 1.321 . S
C1248 C1247 1.321 . S
C1248 C1249 1.403 . S
C1248 H1274 0.934 . S
C1249 C1244 1.413 . S
C1249 C1248 1.403 . S
C1249 H1275 0.930 . S
C1250 O1264 1.275 . S
C1250 O1265 1.256 . S
C1251 O1266 1.259 . S
C1251 O1267 1.268 . S
C1252 Ho1241 2.811 . S
C1252 C1253 1.488 . S
C1252 O1268 1.215 . S
C1252 O1269 1.289 . S
C1253 C1252 1.488 . S
C1253 C1254 1.348 . S
C1253 C1258 1.413 . S
C1254 C1253 1.348 . S
C1254 C1255 1.442 . S
C1254 H1276 0.930 . S
C1255 C1254 1.442 . S
C1255 C1256 1.381 . S
C1255 H1277 0.931 . S
C1256 C1255 1.381 . S
C1256 C1257 1.321 . S
C1257 C1256 1.321 . S
C1257 C1258 1.403 . S
C1257 H1278 0.934 . S
C1258 C1253 1.413 . S
C1258 C1257 1.403 . S
C1258 H1279 0.930 . S
C1259 O1270 1.275 . S
C1259 O1271 1.256 . S
O1260 Ho1240 2.322 . S
O1260 C1242 1.259 . S
O1261 Ho1241 2.346 . S
O1261 C1242 1.268 . S
O1262 Ho1240 2.378 . S
O1262 C1243 1.215 . S
O1263 Ho1240 2.524 . S
O1263 C1243 1.289 . S
O1264 Ho1240 2.381 . S
O1264 C1250 1.275 . S
O1265 Ho1240 2.669 . S
O1265 Ho1241 2.305 . S
O1265 C1250 1.256 . S
O1266 Ho1241 2.322 . S
O1266 C1251 1.259 . S
O1267 Ho1240 2.346 . S
O1267 C1251 1.268 . S
O1268 Ho1241 2.378 . S
O1268 C1252 1.215 . S
O1269 Ho1241 2.524 . S
O1269 C1252 1.289 . S
O1270 Ho1241 2.381 . S
O1270 C1259 1.275 . S
O1271 Ho1240 2.305 . S
O1271 Ho1241 2.669 . S
O1271 C1259 1.256 . S
H1272 C1245 0.930 . S
H1273 C1246 0.931 . S
H1274 C1248 0.934 . S
H1275 C1249 0.930 . S
H1276 C1254 0.930 . S
H1277 C1255 0.931 . S
H1278 C1257 0.934 . S
H1279 C1258 0.930 . S
H1280 C1286 0.930 . S
H1281 C1290 0.930 . S
H1282 C1295 0.929 . S
H1283 C1293 0.929 . S
H1284 C1288 0.929 . S
H1285 C1294 0.929 . S
C1286 H1280 0.930 . S
C1286 C1287 1.367 . S
C1286 C1294 1.378 . S
C1287 C1286 1.367 . S
C1287 C1295 1.433 . S
C1288 H1284 0.929 . S
C1288 C1290 1.378 . S
C1288 C1292 1.350 . S
C1289 C1292 1.463 . S
C1289 C1294 1.350 . S
C1289 N1297 1.427 . S
C1290 H1281 0.930 . S
C1290 C1288 1.378 . S
C1290 C1291 1.367 . S
C1291 C1290 1.367 . S
C1291 C1293 1.433 . S
C1292 C1288 1.350 . S
C1292 C1289 1.463 . S
C1292 N1296 1.427 . S
C1293 H1283 0.929 . S
C1293 C1291 1.433 . S
C1293 N1296 1.384 . S
C1294 H1285 0.929 . S
C1294 C1286 1.378 . S
C1294 C1289 1.350 . S
C1295 H1282 0.929 . S
C1295 C1287 1.433 . S
C1295 N1297 1.384 . S
N1296 C1292 1.427 . S
N1296 C1293 1.384 . S
N1297 C1289 1.427 . S
N1297 C1295 1.384 . S
H1298 C1304 0.930 . S
H1299 C1308 0.930 . S
H1300 C1313 0.929 . S
H1301 C1311 0.958 . S
H1302 C1306 0.929 . S
H1303 C1312 0.929 . S
C1304 H1298 0.930 . S
C1304 C1305 1.367 . S
C1304 C1312 1.378 . S
C1305 C1304 1.367 . S
C1305 C1313 1.433 . S
C1306 H1302 0.929 . S
C1306 C1308 1.378 . S
C1306 C1310 1.350 . S
C1307 C1310 1.463 . S
C1307 C1312 1.350 . S
C1307 N1315 1.427 . S
C1308 H1299 0.930 . S
C1308 C1306 1.378 . S
C1308 C1309 1.367 . S
C1309 C1308 1.367 . S
C1309 C1311 1.429 1_545 S
C1310 C1306 1.350 . S
C1310 C1307 1.463 . S
C1310 N1314 1.427 . S
C1311 H1301 0.958 . S
C1311 C1309 1.429 1_565 S
C1311 N1314 1.359 1_565 S
C1312 H1303 0.929 . S
C1312 C1304 1.378 . S
C1312 C1307 1.350 . S
C1313 H1300 0.929 . S
C1313 C1305 1.433 . S
C1313 N1315 1.384 . S
N1314 C1310 1.427 . S
N1314 C1311 1.359 1_545 S
N1315 C1307 1.427 . S
N1315 C1313 1.384 . S
H1316 C1322 0.930 . S
H1317 C1326 0.930 . S
H1318 C1331 0.929 . S
H1319 C1329 0.929 . S
H1320 C1324 0.929 . S
H1321 C1330 0.929 . S
C1322 H1316 0.930 . S
C1322 C1323 1.367 . S
C1322 C1330 1.378 . S
C1323 C1322 1.367 . S
C1323 C1331 1.433 . S
C1324 H1320 0.929 . S
C1324 C1326 1.378 . S
C1324 C1328 1.350 . S
C1325 C1328 1.463 . S
C1325 C1330 1.350 . S
C1325 N1333 1.427 . S
C1326 H1317 0.930 . S
C1326 C1324 1.378 . S
C1326 C1327 1.367 . S
C1327 C1326 1.367 . S
C1327 C1329 1.433 . S
C1328 C1324 1.350 . S
C1328 C1325 1.463 . S
C1328 N1332 1.427 . S
C1329 H1319 0.929 . S
C1329 C1327 1.433 . S
C1329 N1332 1.384 . S
C1330 H1321 0.929 . S
C1330 C1322 1.378 . S
C1330 C1325 1.350 . S
C1331 H1318 0.929 . S
C1331 C1323 1.433 . S
C1331 N1333 1.384 . S
N1332 C1328 1.427 . S
N1332 C1329 1.384 . S
N1333 C1325 1.427 . S
N1333 C1331 1.384 . S
H1334 C1340 0.930 . S
H1335 C1344 0.965 . S
H1336 C1349 0.929 . S
H1337 C1347 0.929 . S
H1338 C1342 0.929 . S
H1339 C1348 0.929 . S
C1340 H1334 0.930 . S
C1340 C1341 1.367 . S
C1340 C1348 1.378 . S
C1341 C1340 1.367 . S
C1341 C1349 1.433 . S
C1342 H1338 0.929 . S
C1342 C1344 1.349 1_565 S
C1342 C1346 1.350 . S
C1343 C1346 1.463 . S
C1343 C1348 1.350 . S
C1343 N1351 1.427 . S
C1344 H1335 0.965 . S
C1344 C1342 1.349 1_545 S
C1344 C1345 1.362 1_545 S
C1345 C1344 1.362 1_565 S
C1345 C1347 1.433 . S
C1346 C1342 1.350 . S
C1346 C1343 1.463 . S
C1346 N1350 1.427 . S
C1347 H1337 0.929 . S
C1347 C1345 1.433 . S
C1347 N1350 1.384 . S
C1348 H1339 0.929 . S
C1348 C1340 1.378 . S
C1348 C1343 1.350 . S
C1349 H1336 0.929 . S
C1349 C1341 1.433 . S
C1349 N1351 1.384 . S
N1350 C1346 1.427 . S
N1350 C1347 1.384 . S
N1351 C1343 1.427 . S
N1351 C1349 1.384 . S
H1352 C1358 0.930 . S
H1353 C1362 0.930 . S
H1354 C1367 0.929 . S
H1355 C1365 0.929 . S
H1356 C1360 0.929 . S
H1357 C1366 0.929 . S
C1358 H1352 0.930 . S
C1358 C1359 1.367 . S
C1358 C1366 1.378 . S
C1359 C1358 1.367 . S
C1359 C1367 1.433 . S
C1360 H1356 0.929 . S
C1360 C1362 1.378 . S
C1360 C1364 1.350 . S
C1361 C1364 1.463 . S
C1361 C1366 1.350 . S
C1361 N1369 1.427 . S
C1362 H1353 0.930 . S
C1362 C1360 1.378 . S
C1362 C1363 1.367 . S
C1363 C1362 1.367 . S
C1363 C1365 1.433 . S
C1364 C1360 1.350 . S
C1364 C1361 1.463 . S
C1364 N1368 1.427 . S
C1365 H1355 0.929 . S
C1365 C1363 1.433 . S
C1365 N1368 1.384 . S
C1366 H1357 0.929 . S
C1366 C1358 1.378 . S
C1366 C1361 1.350 . S
C1367 H1354 0.929 . S
C1367 C1359 1.433 . S
C1367 N1369 1.384 . S
N1368 C1364 1.427 . S
N1368 C1365 1.384 . S
N1369 C1361 1.427 . S
N1369 C1367 1.384 . S
H1370 C1376 0.930 . S
H1371 C1380 0.930 . S
H1372 C1385 0.929 . S
H1373 C1383 0.929 . S
H1374 C1378 0.929 . S
H1375 C1384 0.929 . S
C1376 H1370 0.930 . S
C1376 C1377 1.367 1_565 S
C1376 C1384 1.378 1_565 S
C1377 C1376 1.367 1_545 S
C1377 C1385 1.433 . S
C1378 H1374 0.929 . S
C1378 C1380 1.378 . S
C1378 C1382 1.350 . S
C1379 C1382 1.463 . S
C1379 C1384 1.350 . S
C1379 N1387 1.427 . S
C1380 H1371 0.930 . S
C1380 C1378 1.378 . S
C1380 C1381 1.367 . S
C1381 C1380 1.367 . S
C1381 C1383 1.433 . S
C1382 C1378 1.350 . S
C1382 C1379 1.463 . S
C1382 N1386 1.427 . S
C1383 H1373 0.929 . S
C1383 C1381 1.433 . S
C1383 N1386 1.384 . S
C1384 H1375 0.929 . S
C1384 C1376 1.378 1_545 S
C1384 C1379 1.350 . S
C1385 H1372 0.929 . S
C1385 C1377 1.433 . S
C1385 N1387 1.384 . S
N1386 C1382 1.427 . S
N1386 C1383 1.384 . S
N1387 C1379 1.427 . S
N1387 C1385 1.384 . S
H1388 C1394 0.930 . S
H1389 C1398 0.930 . S
H1390 C1403 0.929 . S
H1391 C1401 0.929 . S
H1392 C1396 0.929 . S
H1393 C1402 0.929 . S
C1394 H1388 0.930 . S
C1394 C1395 1.367 . S
C1394 C1402 1.378 . S
C1395 C1394 1.367 . S
C1395 C1403 1.433 . S
C1396 H1392 0.929 . S
C1396 C1398 1.378 . S
C1396 C1400 1.350 . S
C1397 C1400 1.463 . S
C1397 C1402 1.350 . S
C1397 N1405 1.427 . S
C1398 H1389 0.930 . S
C1398 C1396 1.378 . S
C1398 C1399 1.367 . S
C1399 C1398 1.367 . S
C1399 C1401 1.433 . S
C1400 C1396 1.350 . S
C1400 C1397 1.463 . S
C1400 N1404 1.427 . S
C1401 H1391 0.929 . S
C1401 C1399 1.433 . S
C1401 N1404 1.384 . S
C1402 H1393 0.929 . S
C1402 C1394 1.378 . S
C1402 C1397 1.350 . S
C1403 H1390 0.929 . S
C1403 C1395 1.433 . S
C1403 N1405 1.384 . S
N1404 C1400 1.427 . S
N1404 C1401 1.384 . S
N1405 C1397 1.427 . S
N1405 C1403 1.384 . S
H1406 C1412 0.930 . S
H1407 C1416 0.930 . S
H1408 C1421 0.929 . S
H1409 C1419 0.929 . S
H1410 C1414 0.929 . S
H1411 C1420 0.929 . S
C1412 H1406 0.930 . S
C1412 C1413 1.367 . S
C1412 C1420 1.378 . S
C1413 C1412 1.367 . S
C1413 C1421 1.433 . S
C1414 H1410 0.929 . S
C1414 C1416 1.378 1_565 S
C1414 C1418 1.350 . S
C1415 C1418 1.463 . S
C1415 C1420 1.350 . S
C1415 N1423 1.427 . S
C1416 H1407 0.930 . S
C1416 C1414 1.378 1_545 S
C1416 C1417 1.367 1_545 S
C1417 C1416 1.367 1_565 S
C1417 C1419 1.433 . S
C1418 C1414 1.350 . S
C1418 C1415 1.463 . S
C1418 N1422 1.427 . S
C1419 H1409 0.929 . S
C1419 C1417 1.433 . S
C1419 N1422 1.384 . S
C1420 H1411 0.929 . S
C1420 C1412 1.378 . S
C1420 C1415 1.350 . S
C1421 H1408 0.929 . S
C1421 C1413 1.433 . S
C1421 N1423 1.384 . S
N1422 C1418 1.427 . S
N1422 C1419 1.384 . S
N1423 C1415 1.427 . S
N1423 C1421 1.384 . S
H1424 C1430 0.930 . S
H1425 C1434 0.930 . S
H1426 C1439 0.929 . S
H1427 C1437 0.929 . S
H1428 C1432 0.929 . S
H1429 C1438 0.929 . S
C1430 H1424 0.930 . S
C1430 C1431 1.367 . S
C1430 C1438 1.378 . S
C1431 C1430 1.367 . S
C1431 C1439 1.433 . S
C1432 H1428 0.929 . S
C1432 C1434 1.378 . S
C1432 C1436 1.350 . S
C1433 C1436 1.463 . S
C1433 C1438 1.350 . S
C1433 N1441 1.427 . S
C1434 H1425 0.930 . S
C1434 C1432 1.378 . S
C1434 C1435 1.367 . S
C1435 C1434 1.367 . S
C1435 C1437 1.433 . S
C1436 C1432 1.350 . S
C1436 C1433 1.463 . S
C1436 N1440 1.427 . S
C1437 H1427 0.929 . S
C1437 C1435 1.433 . S
C1437 N1440 1.384 . S
C1438 H1429 0.929 . S
C1438 C1430 1.378 . S
C1438 C1433 1.350 . S
C1439 H1426 0.929 . S
C1439 C1431 1.433 . S
C1439 N1441 1.384 . S
N1440 C1436 1.427 . S
N1440 C1437 1.384 . S
N1441 C1433 1.427 . S
N1441 C1439 1.384 . S
H1442 C1448 0.930 . S
H1443 C1452 0.930 . S
H1444 C1457 0.929 . S
H1445 C1455 0.929 . S
H1446 C1450 0.929 . S
H1447 C1456 0.929 . S
C1448 H1442 0.930 . S
C1448 C1449 1.367 . S
C1448 C1456 1.378 . S
C1449 C1448 1.367 . S
C1449 C1457 1.433 1_565 S
C1450 H1446 0.929 . S
C1450 C1452 1.378 . S
C1450 C1454 1.350 . S
C1451 C1454 1.463 . S
C1451 C1456 1.350 . S
C1451 N1459 1.427 . S
C1452 H1443 0.930 . S
C1452 C1450 1.378 . S
C1452 C1453 1.367 . S
C1453 C1452 1.367 . S
C1453 C1455 1.433 . S
C1454 C1450 1.350 . S
C1454 C1451 1.463 . S
C1454 N1458 1.427 . S
C1455 H1445 0.929 . S
C1455 C1453 1.433 . S
C1455 N1458 1.384 . S
C1456 H1447 0.929 . S
C1456 C1448 1.378 . S
C1456 C1451 1.350 . S
C1457 H1444 0.929 . S
C1457 C1449 1.433 1_545 S
C1457 N1459 1.384 1_545 S
N1458 C1454 1.427 . S
N1458 C1455 1.384 . S
N1459 C1451 1.427 . S
N1459 C1457 1.384 1_565 S
H1460 C1466 0.930 . S
H1461 C1470 0.930 . S
H1462 C1475 0.929 . S
H1463 C1473 0.929 . S
H1464 C1468 0.929 . S
H1465 C1474 0.929 . S
C1466 H1460 0.930 . S
C1466 C1467 1.367 . S
C1466 C1474 1.378 . S
C1467 C1466 1.367 . S
C1467 C1475 1.433 . S
C1468 H1464 0.929 . S
C1468 C1470 1.378 . S
C1468 C1472 1.350 . S
C1469 C1472 1.463 . S
C1469 C1474 1.350 . S
C1469 N1477 1.427 . S
C1470 H1461 0.930 . S
C1470 C1468 1.378 . S
C1470 C1471 1.367 . S
C1471 C1470 1.367 . S
C1471 C1473 1.433 . S
C1472 C1468 1.350 . S
C1472 C1469 1.463 . S
C1472 N1476 1.427 . S
C1473 H1463 0.929 . S
C1473 C1471 1.433 . S
C1473 N1476 1.384 . S
C1474 H1465 0.929 . S
C1474 C1466 1.378 . S
C1474 C1469 1.350 . S
C1475 H1462 0.929 . S
C1475 C1467 1.433 . S
C1475 N1477 1.384 . S
N1476 C1472 1.427 . S
N1476 C1473 1.384 . S
N1477 C1469 1.427 . S
N1477 C1475 1.384 . S
H1478 C1484 0.930 . S
H1479 C1488 0.930 . S
H1480 C1493 0.929 . S
H1481 C1491 0.929 . S
H1482 C1486 0.929 . S
H1483 C1492 0.929 . S
C1484 H1478 0.930 . S
C1484 C1485 1.367 1_565 S
C1484 C1492 1.378 1_565 S
C1485 C1484 1.367 1_545 S
C1485 C1493 1.433 . S
C1486 H1482 0.929 . S
C1486 C1488 1.378 . S
C1486 C1490 1.350 . S
C1487 C1490 1.463 . S
C1487 C1492 1.350 . S
C1487 N1495 1.427 . S
C1488 H1479 0.930 . S
C1488 C1486 1.378 . S
C1488 C1489 1.367 . S
C1489 C1488 1.367 . S
C1489 C1491 1.433 . S
C1490 C1486 1.350 . S
C1490 C1487 1.463 . S
C1490 N1494 1.427 . S
C1491 H1481 0.929 . S
C1491 C1489 1.433 . S
C1491 N1494 1.384 . S
C1492 H1483 0.929 . S
C1492 C1484 1.378 1_545 S
C1492 C1487 1.350 . S
C1493 H1480 0.929 . S
C1493 C1485 1.433 . S
C1493 N1495 1.384 . S
N1494 C1490 1.427 . S
N1494 C1491 1.384 . S
N1495 C1487 1.427 . S
N1495 C1493 1.384 . S
H1496 C1502 0.930 . S
H1497 C1506 0.930 . S
H1498 C1511 0.929 . S
H1499 C1509 0.929 . S
H1500 C1504 0.929 . S
H1501 C1510 0.929 . S
C1502 H1496 0.930 . S
C1502 C1503 1.367 . S
C1502 C1510 1.378 . S
C1503 C1502 1.367 . S
C1503 C1511 1.433 . S
C1504 H1500 0.929 . S
C1504 C1506 1.378 . S
C1504 C1508 1.350 . S
C1505 C1508 1.463 . S
C1505 C1510 1.350 . S
C1505 N1513 1.427 . S
C1506 H1497 0.930 . S
C1506 C1504 1.378 . S
C1506 C1507 1.367 . S
C1507 C1506 1.367 . S
C1507 C1509 1.433 . S
C1508 C1504 1.350 . S
C1508 C1505 1.463 . S
C1508 N1512 1.427 . S
C1509 H1499 0.929 . S
C1509 C1507 1.433 . S
C1509 N1512 1.384 . S
C1510 H1501 0.929 . S
C1510 C1502 1.378 . S
C1510 C1505 1.350 . S
C1511 H1498 0.929 . S
C1511 C1503 1.433 . S
C1511 N1513 1.384 . S
N1512 C1508 1.427 . S
N1512 C1509 1.384 . S
N1513 C1505 1.427 . S
N1513 C1511 1.384 . S
H1514 C1520 0.930 . S
H1515 C1524 0.930 . S
H1516 C1529 0.929 . S
H1517 C1527 0.929 . S
H1518 C1522 0.929 . S
H1519 C1528 0.929 . S
C1520 H1514 0.930 . S
C1520 C1521 1.367 1_545 S
C1520 C1528 1.378 1_545 S
C1521 C1520 1.367 1_565 S
C1521 C1529 1.433 . S
C1522 H1518 0.929 . S
C1522 C1524 1.378 . S
C1522 C1526 1.350 . S
C1523 C1526 1.463 . S
C1523 C1528 1.350 . S
C1523 N1531 1.427 . S
C1524 H1515 0.930 . S
C1524 C1522 1.378 . S
C1524 C1525 1.367 . S
C1525 C1524 1.367 . S
C1525 C1527 1.433 . S
C1526 C1522 1.350 . S
C1526 C1523 1.463 . S
C1526 N1530 1.427 . S
C1527 H1517 0.929 . S
C1527 C1525 1.433 . S
C1527 N1530 1.384 . S
C1528 H1519 0.929 . S
C1528 C1520 1.378 1_565 S
C1528 C1523 1.350 . S
C1529 H1516 0.929 . S
C1529 C1521 1.433 . S
C1529 N1531 1.384 . S
N1530 C1526 1.427 . S
N1530 C1527 1.384 . S
N1531 C1523 1.427 . S
N1531 C1529 1.384 . S
H1532 C1538 0.930 . S
H1533 C1542 0.930 . S
H1534 C1547 0.929 . S
H1535 C1545 0.929 . S
H1536 C1540 0.929 . S
H1537 C1546 0.929 . S
C1538 H1532 0.930 . S
C1538 C1539 1.367 . S
C1538 C1546 1.378 . S
C1539 C1538 1.367 . S
C1539 C1547 1.433 . S
C1540 H1536 0.929 . S
C1540 C1542 1.378 . S
C1540 C1544 1.350 . S
C1541 C1544 1.463 . S
C1541 C1546 1.350 . S
C1541 N1549 1.427 . S
C1542 H1533 0.930 . S
C1542 C1540 1.378 . S
C1542 C1543 1.367 . S
C1543 C1542 1.367 . S
C1543 C1545 1.433 . S
C1544 C1540 1.350 . S
C1544 C1541 1.463 . S
C1544 N1548 1.427 . S
C1545 H1535 0.929 . S
C1545 C1543 1.433 . S
C1545 N1548 1.384 . S
C1546 H1537 0.929 . S
C1546 C1538 1.378 . S
C1546 C1541 1.350 . S
C1547 H1534 0.929 . S
C1547 C1539 1.433 . S
C1547 N1549 1.384 . S
N1548 C1544 1.427 . S
N1548 C1545 1.384 . S
N1549 C1541 1.427 . S
N1549 C1547 1.384 . S
H1550 C1556 0.930 . S
H1551 C1560 0.930 . S
H1552 C1565 0.929 . S
H1553 C1563 0.929 . S
H1554 C1558 0.929 . S
H1555 C1564 0.929 . S
C1556 H1550 0.930 . S
C1556 C1557 1.367 . S
C1556 C1564 1.378 . S
C1557 C1556 1.367 . S
C1557 C1565 1.433 . S
C1558 H1554 0.929 . S
C1558 C1560 1.378 1_545 S
C1558 C1562 1.350 . S
C1559 C1562 1.463 . S
C1559 C1564 1.350 . S
C1559 N1567 1.427 . S
C1560 H1551 0.930 . S
C1560 C1558 1.378 1_565 S
C1560 C1561 1.367 1_565 S
C1561 C1560 1.367 1_545 S
C1561 C1563 1.433 . S
C1562 C1558 1.350 . S
C1562 C1559 1.463 . S
C1562 N1566 1.427 . S
C1563 H1553 0.929 . S
C1563 C1561 1.433 . S
C1563 N1566 1.384 . S
C1564 H1555 0.929 . S
C1564 C1556 1.378 . S
C1564 C1559 1.350 . S
C1565 H1552 0.929 . S
C1565 C1557 1.433 . S
C1565 N1567 1.384 . S
N1566 C1562 1.427 . S
N1566 C1563 1.384 . S
N1567 C1559 1.427 . S
N1567 C1565 1.384 . S
H1568 C1574 0.930 . S
H1569 C1578 0.930 . S
H1570 C1583 0.929 . S
H1571 C1581 0.929 . S
H1572 C1576 0.929 . S
H1573 C1582 0.929 . S
C1574 H1568 0.930 . S
C1574 C1575 1.367 . S
C1574 C1582 1.378 . S
C1575 C1574 1.367 . S
C1575 C1583 1.433 . S
C1576 H1572 0.929 . S
C1576 C1578 1.378 . S
C1576 C1580 1.350 . S
C1577 C1580 1.463 . S
C1577 C1582 1.350 . S
C1577 N1585 1.427 . S
C1578 H1569 0.930 . S
C1578 C1576 1.378 . S
C1578 C1579 1.367 . S
C1579 C1578 1.367 . S
C1579 C1581 1.433 . S
C1580 C1576 1.350 . S
C1580 C1577 1.463 . S
C1580 N1584 1.427 . S
C1581 H1571 0.929 . S
C1581 C1579 1.433 . S
C1581 N1584 1.384 . S
C1582 H1573 0.929 . S
C1582 C1574 1.378 . S
C1582 C1577 1.350 . S
C1583 H1570 0.929 . S
C1583 C1575 1.433 . S
C1583 N1585 1.384 . S
N1584 C1580 1.427 . S
N1584 C1581 1.384 . S
N1585 C1577 1.427 . S
N1585 C1583 1.384 . S
H1586 C1592 0.930 . S
H1587 C1596 0.930 . S
H1588 C1601 0.929 . S
H1589 C1599 0.929 . S
H1590 C1594 0.929 . S
H1591 C1600 0.929 . S
C1592 H1586 0.930 . S
C1592 C1593 1.367 . S
C1592 C1600 1.378 . S
C1593 C1592 1.367 . S
C1593 C1601 1.433 . S
C1594 H1590 0.929 . S
C1594 C1596 1.378 . S
C1594 C1598 1.350 . S
C1595 C1598 1.463 . S
C1595 C1600 1.350 . S
C1595 N1603 1.427 . S
C1596 H1587 0.930 . S
C1596 C1594 1.378 . S
C1596 C1597 1.367 . S
C1597 C1596 1.367 . S
C1597 C1599 1.433 . S
C1598 C1594 1.350 . S
C1598 C1595 1.463 . S
C1598 N1602 1.427 . S
C1599 H1589 0.929 . S
C1599 C1597 1.433 . S
C1599 N1602 1.384 . S
C1600 H1591 0.929 . S
C1600 C1592 1.378 . S
C1600 C1595 1.350 . S
C1601 H1588 0.929 . S
C1601 C1593 1.433 . S
C1601 N1603 1.384 . S
N1602 C1598 1.427 . S
N1602 C1599 1.384 . S
N1603 C1595 1.427 . S
N1603 C1601 1.384 . S
H1604 C1610 0.930 . S
H1605 C1614 0.930 . S
H1606 C1619 0.929 . S
H1607 C1617 0.929 . S
H1608 C1612 0.929 . S
H1609 C1618 0.929 . S
C1610 H1604 0.930 . S
C1610 C1611 1.367 . S
C1610 C1618 1.378 . S
C1611 C1610 1.367 . S
C1611 C1619 1.433 . S
C1612 H1608 0.929 . S
C1612 C1614 1.378 . S
C1612 C1616 1.350 . S
C1613 C1616 1.463 . S
C1613 C1618 1.350 . S
C1613 N1621 1.427 . S
C1614 H1605 0.930 . S
C1614 C1612 1.378 . S
C1614 C1615 1.367 . S
C1615 C1614 1.367 . S
C1615 C1617 1.433 . S
C1616 C1612 1.350 . S
C1616 C1613 1.463 . S
C1616 N1620 1.427 . S
C1617 H1607 0.929 . S
C1617 C1615 1.433 . S
C1617 N1620 1.384 . S
C1618 H1609 0.929 . S
C1618 C1610 1.378 . S
C1618 C1613 1.350 . S
C1619 H1606 0.929 . S
C1619 C1611 1.433 . S
C1619 N1621 1.384 . S
N1620 C1616 1.427 . S
N1620 C1617 1.384 . S
N1621 C1613 1.427 . S
N1621 C1619 1.384 . S
H1622 C1628 0.930 . S
H1623 C1632 0.930 . S
H1624 C1637 0.929 . S
H1625 C1635 0.929 . S
H1626 C1630 0.929 . S
H1627 C1636 0.929 . S
C1628 H1622 0.930 . S
C1628 C1629 1.367 . S
C1628 C1636 1.378 . S
C1629 C1628 1.367 . S
C1629 C1637 1.433 . S
C1630 H1626 0.929 . S
C1630 C1632 1.378 . S
C1630 C1634 1.350 . S
C1631 C1634 1.463 . S
C1631 C1636 1.350 . S
C1631 N1639 1.427 . S
C1632 H1623 0.930 . S
C1632 C1630 1.378 . S
C1632 C1633 1.367 . S
C1633 C1632 1.367 . S
C1633 C1635 1.433 . S
C1634 C1630 1.350 . S
C1634 C1631 1.463 . S
C1634 N1638 1.427 . S
C1635 H1625 0.929 . S
C1635 C1633 1.433 . S
C1635 N1638 1.384 . S
C1636 H1627 0.929 . S
C1636 C1628 1.378 . S
C1636 C1631 1.350 . S
C1637 H1624 0.929 . S
C1637 C1629 1.433 . S
C1637 N1639 1.384 . S
N1638 C1634 1.427 . S
N1638 C1635 1.384 . S
N1639 C1631 1.427 . S
N1639 C1637 1.384 . S
H1640 C1646 0.930 . S
H1641 C1650 0.930 . S
H1642 C1655 0.929 . S
H1643 C1653 0.929 . S
H1644 C1648 0.929 . S
H1645 C1654 0.929 . S
C1646 H1640 0.930 . S
C1646 C1647 1.367 . S
C1646 C1654 1.378 . S
C1647 C1646 1.367 . S
C1647 C1655 1.433 . S
C1648 H1644 0.929 . S
C1648 C1650 1.378 . S
C1648 C1652 1.350 . S
C1649 C1652 1.463 . S
C1649 C1654 1.350 . S
C1649 N1657 1.427 . S
C1650 H1641 0.930 . S
C1650 C1648 1.378 . S
C1650 C1651 1.367 . S
C1651 C1650 1.367 . S
C1651 C1653 1.433 . S
C1652 C1648 1.350 . S
C1652 C1649 1.463 . S
C1652 N1656 1.427 . S
C1653 H1643 0.929 . S
C1653 C1651 1.433 . S
C1653 N1656 1.384 . S
C1654 H1645 0.929 . S
C1654 C1646 1.378 . S
C1654 C1649 1.350 . S
C1655 H1642 0.929 . S
C1655 C1647 1.433 . S
C1655 N1657 1.384 . S
N1656 C1652 1.427 . S
N1656 C1653 1.384 . S
N1657 C1649 1.427 . S
N1657 C1655 1.384 . S
H1658 C1664 0.930 . S
H1659 C1668 0.930 . S
H1660 C1673 0.929 . S
H1661 C1671 0.929 . S
H1662 C1666 0.929 . S
H1663 C1672 0.929 . S
C1664 H1658 0.930 . S
C1664 C1665 1.367 . S
C1664 C1672 1.378 . S
C1665 C1664 1.367 . S
C1665 C1673 1.433 . S
C1666 H1662 0.929 . S
C1666 C1668 1.378 . S
C1666 C1670 1.350 . S
C1667 C1670 1.463 . S
C1667 C1672 1.350 . S
C1667 N1675 1.427 . S
C1668 H1659 0.930 . S
C1668 C1666 1.378 . S
C1668 C1669 1.367 . S
C1669 C1668 1.367 . S
C1669 C1671 1.433 . S
C1670 C1666 1.350 . S
C1670 C1667 1.463 . S
C1670 N1674 1.427 . S
C1671 H1661 0.929 . S
C1671 C1669 1.433 . S
C1671 N1674 1.384 . S
C1672 H1663 0.929 . S
C1672 C1664 1.378 . S
C1672 C1667 1.350 . S
C1673 H1660 0.929 . S
C1673 C1665 1.433 . S
C1673 N1675 1.384 . S
N1674 C1670 1.427 . S
N1674 C1671 1.384 . S
N1675 C1667 1.427 . S
N1675 C1673 1.384 . S
H1676 C1682 0.930 . S
H1677 C1686 0.930 . S
H1678 C1691 0.929 . S
H1679 C1689 0.929 . S
H1680 C1684 0.929 . S
H1681 C1690 0.929 . S
C1682 H1676 0.930 . S
C1682 C1683 1.367 . S
C1682 C1690 1.378 . S
C1683 C1682 1.367 . S
C1683 C1691 1.433 . S
C1684 H1680 0.929 . S
C1684 C1686 1.378 . S
C1684 C1688 1.350 . S
C1685 C1688 1.463 . S
C1685 C1690 1.350 . S
C1685 N1693 1.427 . S
C1686 H1677 0.930 . S
C1686 C1684 1.378 . S
C1686 C1687 1.367 . S
C1687 C1686 1.367 . S
C1687 C1689 1.433 . S
C1688 C1684 1.350 . S
C1688 C1685 1.463 . S
C1688 N1692 1.427 . S
C1689 H1679 0.929 . S
C1689 C1687 1.433 . S
C1689 N1692 1.384 . S
C1690 H1681 0.929 . S
C1690 C1682 1.378 . S
C1690 C1685 1.350 . S
C1691 H1678 0.929 . S
C1691 C1683 1.433 . S
C1691 N1693 1.384 . S
N1692 C1688 1.427 . S
N1692 C1689 1.384 . S
N1693 C1685 1.427 . S
N1693 C1691 1.384 . S
H1694 C1700 0.930 . S
H1695 C1704 0.930 . S
H1696 C1709 0.929 . S
H1697 C1707 0.929 . S
H1698 C1702 0.929 . S
H1699 C1708 0.929 . S
C1700 H1694 0.930 . S
C1700 C1701 1.367 . S
C1700 C1708 1.378 . S
C1701 C1700 1.367 . S
C1701 C1709 1.433 . S
C1702 H1698 0.929 . S
C1702 C1704 1.378 . S
C1702 C1706 1.350 . S
C1703 C1706 1.463 . S
C1703 C1708 1.350 . S
C1703 N1711 1.427 . S
C1704 H1695 0.930 . S
C1704 C1702 1.378 . S
C1704 C1705 1.367 . S
C1705 C1704 1.367 . S
C1705 C1707 1.433 . S
C1706 C1702 1.350 . S
C1706 C1703 1.463 . S
C1706 N1710 1.427 . S
C1707 H1697 0.929 . S
C1707 C1705 1.433 . S
C1707 N1710 1.384 . S
C1708 H1699 0.929 . S
C1708 C1700 1.378 . S
C1708 C1703 1.350 . S
C1709 H1696 0.929 . S
C1709 C1701 1.433 . S
C1709 N1711 1.384 . S
N1710 C1706 1.427 . S
N1710 C1707 1.384 . S
N1711 C1703 1.427 . S
N1711 C1709 1.384 . S
H1712 C1718 0.930 . S
H1713 C1722 0.930 . S
H1714 C1727 0.929 . S
H1715 C1725 0.929 . S
H1716 C1720 0.929 . S
H1717 C1726 0.929 . S
C1718 H1712 0.930 . S
C1718 C1719 1.367 . S
C1718 C1726 1.378 . S
C1719 C1718 1.367 . S
C1719 C1727 1.433 . S
C1720 H1716 0.929 . S
C1720 C1722 1.378 . S
C1720 C1724 1.350 . S
C1721 C1724 1.463 . S
C1721 C1726 1.350 . S
C1721 N1729 1.427 . S
C1722 H1713 0.930 . S
C1722 C1720 1.378 . S
C1722 C1723 1.367 . S
C1723 C1722 1.367 . S
C1723 C1725 1.433 . S
C1724 C1720 1.350 . S
C1724 C1721 1.463 . S
C1724 N1728 1.427 . S
C1725 H1715 0.929 . S
C1725 C1723 1.433 . S
C1725 N1728 1.384 . S
C1726 H1717 0.929 . S
C1726 C1718 1.378 . S
C1726 C1721 1.350 . S
C1727 H1714 0.929 . S
C1727 C1719 1.433 . S
C1727 N1729 1.384 . S
N1728 C1724 1.427 . S
N1728 C1725 1.384 . S
N1729 C1721 1.427 . S
N1729 C1727 1.384 . S
H1730 C1736 0.930 . S
H1731 C1740 0.930 . S
H1732 C1745 0.929 . S
H1733 C1743 0.929 . S
H1734 C1738 0.929 . S
H1735 C1744 0.929 . S
C1736 H1730 0.930 . S
C1736 C1737 1.367 . S
C1736 C1744 1.378 . S
C1737 C1736 1.367 . S
C1737 C1745 1.433 . S
C1738 H1734 0.929 . S
C1738 C1740 1.378 . S
C1738 C1742 1.350 . S
C1739 C1742 1.463 . S
C1739 C1744 1.350 . S
C1739 N1747 1.427 . S
C1740 H1731 0.930 . S
C1740 C1738 1.378 . S
C1740 C1741 1.367 . S
C1741 C1740 1.367 . S
C1741 C1743 1.433 . S
C1742 C1738 1.350 . S
C1742 C1739 1.463 . S
C1742 N1746 1.427 . S
C1743 H1733 0.929 . S
C1743 C1741 1.433 . S
C1743 N1746 1.384 . S
C1744 H1735 0.929 . S
C1744 C1736 1.378 . S
C1744 C1739 1.350 . S
C1745 H1732 0.929 . S
C1745 C1737 1.433 . S
C1745 N1747 1.384 . S
N1746 C1742 1.427 . S
N1746 C1743 1.384 . S
N1747 C1739 1.427 . S
N1747 C1745 1.384 . S
H1748 C1754 0.930 . S
H1749 C1758 0.930 . S
H1750 C1763 0.929 . S
H1751 C1761 0.929 . S
H1752 C1756 0.929 . S
H1753 C1762 0.929 . S
C1754 H1748 0.930 . S
C1754 C1755 1.367 . S
C1754 C1762 1.378 . S
C1755 C1754 1.367 . S
C1755 C1763 1.433 . S
C1756 H1752 0.929 . S
C1756 C1758 1.378 . S
C1756 C1760 1.350 . S
C1757 C1760 1.463 . S
C1757 C1762 1.350 . S
C1757 N1765 1.427 . S
C1758 H1749 0.930 . S
C1758 C1756 1.378 . S
C1758 C1759 1.367 . S
C1759 C1758 1.367 . S
C1759 C1761 1.433 . S
C1760 C1756 1.350 . S
C1760 C1757 1.463 . S
C1760 N1764 1.427 . S
C1761 H1751 0.929 . S
C1761 C1759 1.433 . S
C1761 N1764 1.384 . S
C1762 H1753 0.929 . S
C1762 C1754 1.378 . S
C1762 C1757 1.350 . S
C1763 H1750 0.929 . S
C1763 C1755 1.433 . S
C1763 N1765 1.384 . S
N1764 C1760 1.427 . S
N1764 C1761 1.384 . S
N1765 C1757 1.427 . S
N1765 C1763 1.384 . S
H1766 C1772 0.930 . S
H1767 C1776 0.930 . S
H1768 C1781 0.929 . S
H1769 C1779 0.929 . S
H1770 C1774 0.929 . S
H1771 C1780 0.929 . S
C1772 H1766 0.930 . S
C1772 C1773 1.367 . S
C1772 C1780 1.378 . S
C1773 C1772 1.367 . S
C1773 C1781 1.433 . S
C1774 H1770 0.929 . S
C1774 C1776 1.378 . S
C1774 C1778 1.350 . S
C1775 C1778 1.463 . S
C1775 C1780 1.350 . S
C1775 N1783 1.427 . S
C1776 H1767 0.930 . S
C1776 C1774 1.378 . S
C1776 C1777 1.367 . S
C1777 C1776 1.367 . S
C1777 C1779 1.433 . S
C1778 C1774 1.350 . S
C1778 C1775 1.463 . S
C1778 N1782 1.427 . S
C1779 H1769 0.929 . S
C1779 C1777 1.433 . S
C1779 N1782 1.384 . S
C1780 H1771 0.929 . S
C1780 C1772 1.378 . S
C1780 C1775 1.350 . S
C1781 H1768 0.929 . S
C1781 C1773 1.433 . S
C1781 N1783 1.384 . S
N1782 C1778 1.427 . S
N1782 C1779 1.384 . S
N1783 C1775 1.427 . S
N1783 C1781 1.384 . S
H1784 C1790 0.930 . S
H1785 C1794 0.930 . S
H1786 C1799 0.929 . S
H1787 C1797 0.929 . S
H1788 C1792 0.929 . S
H1789 C1798 0.929 . S
C1790 H1784 0.930 . S
C1790 C1791 1.367 . S
C1790 C1798 1.378 . S
C1791 C1790 1.367 . S
C1791 C1799 1.433 . S
C1792 H1788 0.929 . S
C1792 C1794 1.378 . S
C1792 C1796 1.350 . S
C1793 C1796 1.463 . S
C1793 C1798 1.350 . S
C1793 N1801 1.427 . S
C1794 H1785 0.930 . S
C1794 C1792 1.378 . S
C1794 C1795 1.367 . S
C1795 C1794 1.367 . S
C1795 C1797 1.433 . S
C1796 C1792 1.350 . S
C1796 C1793 1.463 . S
C1796 N1800 1.427 . S
C1797 H1787 0.929 . S
C1797 C1795 1.433 . S
C1797 N1800 1.384 . S
C1798 H1789 0.929 . S
C1798 C1790 1.378 . S
C1798 C1793 1.350 . S
C1799 H1786 0.929 . S
C1799 C1791 1.433 . S
C1799 N1801 1.384 . S
N1800 C1796 1.427 . S
N1800 C1797 1.384 . S
N1801 C1793 1.427 . S
N1801 C1799 1.384 . S
H1802 C1808 0.930 . S
H1803 C1812 0.930 . S
H1804 C1817 0.929 . S
H1805 C1815 0.929 . S
H1806 C1810 0.929 . S
H1807 C1816 0.929 . S
C1808 H1802 0.930 . S
C1808 C1809 1.367 . S
C1808 C1816 1.378 . S
C1809 C1808 1.367 . S
C1809 C1817 1.433 . S
C1810 H1806 0.929 . S
C1810 C1812 1.378 . S
C1810 C1814 1.350 . S
C1811 C1814 1.463 . S
C1811 C1816 1.350 . S
C1811 N1819 1.427 . S
C1812 H1803 0.930 . S
C1812 C1810 1.378 . S
C1812 C1813 1.367 . S
C1813 C1812 1.367 . S
C1813 C1815 1.433 . S
C1814 C1810 1.350 . S
C1814 C1811 1.463 . S
C1814 N1818 1.427 . S
C1815 H1805 0.929 . S
C1815 C1813 1.433 . S
C1815 N1818 1.384 . S
C1816 H1807 0.929 . S
C1816 C1808 1.378 . S
C1816 C1811 1.350 . S
C1817 H1804 0.929 . S
C1817 C1809 1.433 . S
C1817 N1819 1.384 . S
N1818 C1814 1.427 . S
N1818 C1815 1.384 . S
N1819 C1811 1.427 . S
N1819 C1817 1.384 . S
H1820 C1826 0.930 . S
H1821 C1830 0.930 . S
H1822 C1835 0.929 . S
H1823 C1833 0.929 . S
H1824 C1828 0.929 . S
H1825 C1834 0.929 . S
C1826 H1820 0.930 . S
C1826 C1827 1.367 . S
C1826 C1834 1.378 . S
C1827 C1826 1.367 . S
C1827 C1835 1.433 . S
C1828 H1824 0.929 . S
C1828 C1830 1.378 . S
C1828 C1832 1.350 . S
C1829 C1832 1.463 . S
C1829 C1834 1.350 . S
C1829 N1837 1.427 . S
C1830 H1821 0.930 . S
C1830 C1828 1.378 . S
C1830 C1831 1.367 . S
C1831 C1830 1.367 . S
C1831 C1833 1.433 . S
C1832 C1828 1.350 . S
C1832 C1829 1.463 . S
C1832 N1836 1.427 . S
C1833 H1823 0.929 . S
C1833 C1831 1.433 . S
C1833 N1836 1.384 . S
C1834 H1825 0.929 . S
C1834 C1826 1.378 . S
C1834 C1829 1.350 . S
C1835 H1822 0.929 . S
C1835 C1827 1.433 . S
C1835 N1837 1.384 . S
N1836 C1832 1.427 . S
N1836 C1833 1.384 . S
N1837 C1829 1.427 . S
N1837 C1835 1.384 . S
H1838 C1844 0.930 . S
H1839 C1848 0.930 . S
H1840 C1853 0.929 . S
H1841 C1851 0.929 . S
H1842 C1846 0.929 . S
H1843 C1852 0.929 . S
C1844 H1838 0.930 . S
C1844 C1845 1.367 . S
C1844 C1852 1.378 . S
C1845 C1844 1.367 . S
C1845 C1853 1.433 . S
C1846 H1842 0.929 . S
C1846 C1848 1.378 . S
C1846 C1850 1.350 . S
C1847 C1850 1.463 . S
C1847 C1852 1.350 . S
C1847 N1855 1.427 . S
C1848 H1839 0.930 . S
C1848 C1846 1.378 . S
C1848 C1849 1.367 . S
C1849 C1848 1.367 . S
C1849 C1851 1.433 . S
C1850 C1846 1.350 . S
C1850 C1847 1.463 . S
C1850 N1854 1.427 . S
C1851 H1841 0.929 . S
C1851 C1849 1.433 . S
C1851 N1854 1.384 . S
C1852 H1843 0.929 . S
C1852 C1844 1.378 . S
C1852 C1847 1.350 . S
C1853 H1840 0.929 . S
C1853 C1845 1.433 . S
C1853 N1855 1.384 . S
N1854 C1850 1.427 . S
N1854 C1851 1.384 . S
N1855 C1847 1.427 . S
N1855 C1853 1.384 . S
H1856 C1862 0.930 . S
H1857 C1866 0.930 . S
H1858 C1871 0.929 . S
H1859 C1869 0.929 . S
H1860 C1864 0.929 . S
H1861 C1870 0.929 . S
C1862 H1856 0.930 . S
C1862 C1863 1.367 . S
C1862 C1870 1.378 . S
C1863 C1862 1.367 . S
C1863 C1871 1.433 . S
C1864 H1860 0.929 . S
C1864 C1866 1.378 . S
C1864 C1868 1.350 . S
C1865 C1868 1.463 . S
C1865 C1870 1.350 . S
C1865 N1873 1.427 . S
C1866 H1857 0.930 . S
C1866 C1864 1.378 . S
C1866 C1867 1.367 . S
C1867 C1866 1.367 . S
C1867 C1869 1.433 . S
C1868 C1864 1.350 . S
C1868 C1865 1.463 . S
C1868 N1872 1.427 . S
C1869 H1859 0.929 . S
C1869 C1867 1.433 . S
C1869 N1872 1.384 . S
C1870 H1861 0.929 . S
C1870 C1862 1.378 . S
C1870 C1865 1.350 . S
C1871 H1858 0.929 . S
C1871 C1863 1.433 . S
C1871 N1873 1.384 . S
N1872 C1868 1.427 . S
N1872 C1869 1.384 . S
N1873 C1865 1.427 . S
N1873 C1871 1.384 . S
H1874 C1880 0.930 . S
H1875 C1884 0.930 . S
H1876 C1889 0.929 . S
H1877 C1887 0.929 1_655 S
H1878 C1882 0.929 . S
H1879 C1888 0.929 . S
C1880 H1874 0.930 . S
C1880 C1881 1.367 . S
C1880 C1888 1.378 . S
C1881 C1880 1.367 . S
C1881 C1889 1.433 . S
C1882 H1878 0.929 . S
C1882 C1884 1.378 . S
C1882 C1886 1.350 . S
C1883 C1886 1.463 . S
C1883 C1888 1.350 . S
C1883 N1891 1.427 . S
C1884 H1875 0.930 . S
C1884 C1882 1.378 . S
C1884 C1885 1.363 1_455 S
C1885 C1884 1.363 1_655 S
C1885 C1887 1.433 1_655 S
C1886 C1882 1.350 . S
C1886 C1883 1.463 . S
C1886 N1890 1.427 . S
C1887 H1877 0.929 1_455 S
C1887 C1885 1.433 1_455 S
C1887 N1890 1.384 . S
C1888 H1879 0.929 . S
C1888 C1880 1.378 . S
C1888 C1883 1.350 . S
C1889 H1876 0.929 . S
C1889 C1881 1.433 . S
C1889 N1891 1.384 . S
N1890 C1886 1.427 . S
N1890 C1887 1.384 . S
N1891 C1883 1.427 . S
N1891 C1889 1.384 . S
H1892 C1898 0.930 . S
H1893 C1902 0.930 . S
H1894 C1907 0.929 . S
H1895 C1905 0.929 . S
H1896 C1900 0.929 . S
H1897 C1906 0.929 . S
C1898 H1892 0.930 . S
C1898 C1899 1.367 . S
C1898 C1906 1.378 . S
C1899 C1898 1.367 . S
C1899 C1907 1.433 . S
C1900 H1896 0.929 . S
C1900 C1902 1.378 . S
C1900 C1904 1.350 . S
C1901 C1904 1.463 . S
C1901 C1906 1.350 . S
C1901 N1909 1.427 . S
C1902 H1893 0.930 . S
C1902 C1900 1.378 . S
C1902 C1903 1.367 . S
C1903 C1902 1.367 . S
C1903 C1905 1.433 . S
C1904 C1900 1.350 . S
C1904 C1901 1.463 . S
C1904 N1908 1.427 . S
C1905 H1895 0.929 . S
C1905 C1903 1.433 . S
C1905 N1908 1.384 . S
C1906 H1897 0.929 . S
C1906 C1898 1.378 . S
C1906 C1901 1.350 . S
C1907 H1894 0.929 . S
C1907 C1899 1.433 . S
C1907 N1909 1.384 . S
N1908 C1904 1.427 . S
N1908 C1905 1.384 . S
N1909 C1901 1.427 . S
N1909 C1907 1.384 . S
H1910 C1916 0.930 . S
H1911 C1920 0.930 . S
H1912 C1925 0.929 . S
H1913 C1923 0.929 . S
H1914 C1918 0.929 . S
H1915 C1924 0.929 . S
C1916 H1910 0.930 . S
C1916 C1917 1.367 . S
C1916 C1924 1.378 . S
C1917 C1916 1.367 . S
C1917 C1925 1.433 . S
C1918 H1914 0.929 . S
C1918 C1920 1.378 . S
C1918 C1922 1.350 . S
C1919 C1922 1.463 . S
C1919 C1924 1.350 . S
C1919 N1927 1.427 . S
C1920 H1911 0.930 . S
C1920 C1918 1.378 . S
C1920 C1921 1.367 . S
C1921 C1920 1.367 . S
C1921 C1923 1.433 . S
C1922 C1918 1.350 . S
C1922 C1919 1.463 . S
C1922 N1926 1.427 . S
C1923 H1913 0.929 . S
C1923 C1921 1.433 . S
C1923 N1926 1.384 . S
C1924 H1915 0.929 . S
C1924 C1916 1.378 . S
C1924 C1919 1.350 . S
C1925 H1912 0.929 . S
C1925 C1917 1.433 . S
C1925 N1927 1.384 . S
N1926 C1922 1.427 . S
N1926 C1923 1.384 . S
N1927 C1919 1.427 . S
N1927 C1925 1.384 . S
H1928 C1934 0.930 . S
H1929 C1938 0.930 . S
H1930 C1943 0.929 . S
H1931 C1941 0.929 . S
H1932 C1936 0.929 . S
H1933 C1942 0.929 . S
C1934 H1928 0.930 . S
C1934 C1935 1.367 . S
C1934 C1942 1.378 . S
C1935 C1934 1.367 . S
C1935 C1943 1.433 . S
C1936 H1932 0.929 . S
C1936 C1938 1.378 . S
C1936 C1940 1.350 . S
C1937 C1940 1.463 . S
C1937 C1942 1.350 . S
C1937 N1945 1.427 . S
C1938 H1929 0.930 . S
C1938 C1936 1.378 . S
C1938 C1939 1.367 . S
C1939 C1938 1.367 . S
C1939 C1941 1.433 . S
C1940 C1936 1.350 . S
C1940 C1937 1.463 . S
C1940 N1944 1.427 . S
C1941 H1931 0.929 . S
C1941 C1939 1.433 . S
C1941 N1944 1.384 . S
C1942 H1933 0.929 . S
C1942 C1934 1.378 . S
C1942 C1937 1.350 . S
C1943 H1930 0.929 . S
C1943 C1935 1.433 . S
C1943 N1945 1.384 . S
N1944 C1940 1.427 . S
N1944 C1941 1.384 . S
N1945 C1937 1.427 . S
N1945 C1943 1.384 . S
H1946 C1952 0.930 . S
H1947 C1956 0.930 . S
H1948 C1961 0.929 . S
H1949 C1959 0.929 . S
H1950 C1954 0.929 . S
H1951 C1960 0.929 . S
C1952 H1946 0.930 . S
C1952 C1953 1.367 . S
C1952 C1960 1.378 . S
C1953 C1952 1.367 . S
C1953 C1961 1.433 . S
C1954 H1950 0.929 . S
C1954 C1956 1.378 . S
C1954 C1958 1.350 . S
C1955 C1958 1.463 . S
C1955 C1960 1.350 . S
C1955 N1963 1.427 . S
C1956 H1947 0.930 . S
C1956 C1954 1.378 . S
C1956 C1957 1.367 . S
C1957 C1956 1.367 . S
C1957 C1959 1.433 . S
C1958 C1954 1.350 . S
C1958 C1955 1.463 . S
C1958 N1962 1.427 . S
C1959 H1949 0.929 . S
C1959 C1957 1.433 . S
C1959 N1962 1.384 . S
C1960 H1951 0.929 . S
C1960 C1952 1.378 . S
C1960 C1955 1.350 . S
C1961 H1948 0.929 . S
C1961 C1953 1.433 . S
C1961 N1963 1.384 . S
N1962 C1958 1.427 . S
N1962 C1959 1.384 . S
N1963 C1955 1.427 . S
N1963 C1961 1.384 . S
H1964 C1970 0.930 . S
H1965 C1974 0.930 . S
H1966 C1979 0.929 . S
H1967 C1977 0.929 . S
H1968 C1972 0.929 . S
H1969 C1978 0.929 . S
C1970 H1964 0.930 . S
C1970 C1971 1.367 . S
C1970 C1978 1.378 . S
C1971 C1970 1.367 . S
C1971 C1979 1.433 . S
C1972 H1968 0.929 . S
C1972 C1974 1.378 . S
C1972 C1976 1.350 . S
C1973 C1976 1.463 . S
C1973 C1978 1.350 . S
C1973 N1981 1.427 . S
C1974 H1965 0.930 . S
C1974 C1972 1.378 . S
C1974 C1975 1.367 . S
C1975 C1974 1.367 . S
C1975 C1977 1.433 . S
C1976 C1972 1.350 . S
C1976 C1973 1.463 . S
C1976 N1980 1.427 . S
C1977 H1967 0.929 . S
C1977 C1975 1.433 . S
C1977 N1980 1.384 . S
C1978 H1969 0.929 . S
C1978 C1970 1.378 . S
C1978 C1973 1.350 . S
C1979 H1966 0.929 . S
C1979 C1971 1.433 . S
C1979 N1981 1.384 . S
N1980 C1976 1.427 . S
N1980 C1977 1.384 . S
N1981 C1973 1.427 . S
N1981 C1979 1.384 . S
H1982 C1988 0.930 . S
H1983 C1992 0.978 . S
H1984 C1997 0.929 . S
H1985 C1995 0.929 . S
H1986 C1990 0.929 . S
H1987 C1996 0.929 . S
C1988 H1982 0.930 . S
C1988 C1989 1.367 . S
C1988 C1996 1.378 . S
C1989 C1988 1.367 . S
C1989 C1997 1.433 . S
C1990 H1986 0.929 . S
C1990 C1992 1.332 1_455 S
C1990 C1994 1.350 . S
C1991 C1994 1.463 . S
C1991 C1996 1.350 . S
C1991 N1999 1.427 . S
C1992 H1983 0.978 . S
C1992 C1990 1.332 1_655 S
C1992 C1993 1.366 . S
C1993 C1992 1.366 . S
C1993 C1995 1.410 1_655 S
C1994 C1990 1.350 . S
C1994 C1991 1.463 . S
C1994 N1998 1.427 . S
C1995 H1985 0.929 . S
C1995 C1993 1.410 1_455 S
C1995 N1998 1.384 . S
C1996 H1987 0.929 . S
C1996 C1988 1.378 . S
C1996 C1991 1.350 . S
C1997 H1984 0.929 . S
C1997 C1989 1.433 . S
C1997 N1999 1.384 . S
N1998 C1994 1.427 . S
N1998 C1995 1.384 . S
N1999 C1991 1.427 . S
N1999 C1997 1.384 . S
H2000 C2006 0.930 . S
H2001 C2010 0.930 . S
H2002 C2015 0.929 . S
H2003 C2013 0.929 . S
H2004 C2008 0.929 . S
H2005 C2014 0.929 . S
C2006 H2000 0.930 . S
C2006 C2007 1.367 . S
C2006 C2014 1.378 . S
C2007 C2006 1.367 . S
C2007 C2015 1.433 . S
C2008 H2004 0.929 . S
C2008 C2010 1.378 . S
C2008 C2012 1.350 . S
C2009 C2012 1.463 . S
C2009 C2014 1.350 . S
C2009 N2017 1.427 . S
C2010 H2001 0.930 . S
C2010 C2008 1.378 . S
C2010 C2011 1.367 . S
C2011 C2010 1.367 . S
C2011 C2013 1.433 . S
C2012 C2008 1.350 . S
C2012 C2009 1.463 . S
C2012 N2016 1.427 . S
C2013 H2003 0.929 . S
C2013 C2011 1.433 . S
C2013 N2016 1.384 . S
C2014 H2005 0.929 . S
C2014 C2006 1.378 . S
C2014 C2009 1.350 . S
C2015 H2002 0.929 . S
C2015 C2007 1.433 . S
C2015 N2017 1.384 . S
N2016 C2012 1.427 . S
N2016 C2013 1.384 . S
N2017 C2009 1.427 . S
N2017 C2015 1.384 . S
H2018 C2024 0.930 . S
H2019 C2028 0.930 . S
H2020 C2033 0.929 1_455 S
H2021 C2031 0.929 . S
H2022 C2026 0.929 . S
H2023 C2032 0.929 . S
C2024 H2018 0.930 . S
C2024 C2025 1.362 1_655 S
C2024 C2032 1.378 . S
C2025 C2024 1.362 1_455 S
C2025 C2033 1.432 1_455 S
C2026 H2022 0.929 . S
C2026 C2028 1.378 . S
C2026 C2030 1.350 . S
C2027 C2030 1.463 . S
C2027 C2032 1.350 . S
C2027 N2035 1.427 . S
C2028 H2019 0.930 . S
C2028 C2026 1.378 . S
C2028 C2029 1.367 . S
C2029 C2028 1.367 . S
C2029 C2031 1.433 . S
C2030 C2026 1.350 . S
C2030 C2027 1.463 . S
C2030 N2034 1.427 . S
C2031 H2021 0.929 . S
C2031 C2029 1.433 . S
C2031 N2034 1.384 . S
C2032 H2023 0.929 . S
C2032 C2024 1.378 . S
C2032 C2027 1.350 . S
C2033 H2020 0.929 1_655 S
C2033 C2025 1.432 1_655 S
C2033 N2035 1.384 . S
N2034 C2030 1.427 . S
N2034 C2031 1.384 . S
N2035 C2027 1.427 . S
N2035 C2033 1.384 . S
H2036 C2042 0.930 . S
H2037 C2046 0.930 . S
H2038 C2051 0.929 . S
H2039 C2049 0.929 . S
H2040 C2044 0.929 . S
H2041 C2050 0.929 . S
C2042 H2036 0.930 . S
C2042 C2043 1.367 . S
C2042 C2050 1.378 . S
C2043 C2042 1.367 . S
C2043 C2051 1.433 . S
C2044 H2040 0.929 . S
C2044 C2046 1.378 . S
C2044 C2048 1.350 . S
C2045 C2048 1.463 . S
C2045 C2050 1.350 . S
C2045 N2053 1.427 . S
C2046 H2037 0.930 . S
C2046 C2044 1.378 . S
C2046 C2047 1.367 . S
C2047 C2046 1.367 . S
C2047 C2049 1.433 . S
C2048 C2044 1.350 . S
C2048 C2045 1.463 . S
C2048 N2052 1.427 . S
C2049 H2039 0.929 . S
C2049 C2047 1.433 . S
C2049 N2052 1.384 . S
C2050 H2041 0.929 . S
C2050 C2042 1.378 . S
C2050 C2045 1.350 . S
C2051 H2038 0.929 . S
C2051 C2043 1.433 . S
C2051 N2053 1.384 . S
N2052 C2048 1.427 . S
N2052 C2049 1.384 . S
N2053 C2045 1.427 . S
N2053 C2051 1.384 . S
H2054 C2060 0.930 . S
H2055 C2064 0.930 . S
H2056 C2069 0.929 . S
H2057 C2067 0.929 . S
H2058 C2062 0.929 . S
H2059 C2068 0.929 . S
C2060 H2054 0.930 . S
C2060 C2061 1.367 . S
C2060 C2068 1.378 . S
C2061 C2060 1.367 . S
C2061 C2069 1.433 . S
C2062 H2058 0.929 . S
C2062 C2064 1.378 . S
C2062 C2066 1.350 . S
C2063 C2066 1.463 . S
C2063 C2068 1.350 . S
C2063 N2071 1.427 . S
C2064 H2055 0.930 . S
C2064 C2062 1.378 . S
C2064 C2065 1.367 . S
C2065 C2064 1.367 . S
C2065 C2067 1.433 . S
C2066 C2062 1.350 . S
C2066 C2063 1.463 . S
C2066 N2070 1.427 . S
C2067 H2057 0.929 . S
C2067 C2065 1.433 . S
C2067 N2070 1.384 . S
C2068 H2059 0.929 . S
C2068 C2060 1.378 . S
C2068 C2063 1.350 . S
C2069 H2056 0.929 . S
C2069 C2061 1.433 . S
C2069 N2071 1.384 . S
N2070 C2066 1.427 . S
N2070 C2067 1.384 . S
N2071 C2063 1.427 . S
N2071 C2069 1.384 . S
H2072 C2078 0.930 . S
H2073 C2082 0.930 . S
H2074 C2087 0.929 . S
H2075 C2085 0.929 . S
H2076 C2080 0.929 . S
H2077 C2086 0.929 . S
C2078 H2072 0.930 . S
C2078 C2079 1.367 . S
C2078 C2086 1.378 . S
C2079 C2078 1.367 . S
C2079 C2087 1.433 . S
C2080 H2076 0.929 . S
C2080 C2082 1.378 . S
C2080 C2084 1.350 . S
C2081 C2084 1.463 . S
C2081 C2086 1.350 . S
C2081 N2089 1.427 . S
C2082 H2073 0.930 . S
C2082 C2080 1.378 . S
C2082 C2083 1.367 . S
C2083 C2082 1.367 . S
C2083 C2085 1.433 . S
C2084 C2080 1.350 . S
C2084 C2081 1.463 . S
C2084 N2088 1.427 . S
C2085 H2075 0.929 . S
C2085 C2083 1.433 . S
C2085 N2088 1.384 . S
C2086 H2077 0.929 . S
C2086 C2078 1.378 . S
C2086 C2081 1.350 . S
C2087 H2074 0.929 . S
C2087 C2079 1.433 . S
C2087 N2089 1.384 . S
N2088 C2084 1.427 . S
N2088 C2085 1.384 . S
N2089 C2081 1.427 . S
N2089 C2087 1.384 . S
H2090 C2096 0.930 . S
H2091 C2100 0.930 . S
H2092 C2105 0.929 . S
H2093 C2103 0.929 . S
H2094 C2098 0.929 . S
H2095 C2104 0.929 . S
C2096 H2090 0.930 . S
C2096 C2097 1.367 . S
C2096 C2104 1.378 . S
C2097 C2096 1.367 . S
C2097 C2105 1.433 . S
C2098 H2094 0.929 . S
C2098 C2100 1.378 . S
C2098 C2102 1.350 . S
C2099 C2102 1.463 . S
C2099 C2104 1.350 . S
C2099 N2107 1.427 . S
C2100 H2091 0.930 . S
C2100 C2098 1.378 . S
C2100 C2101 1.367 . S
C2101 C2100 1.367 . S
C2101 C2103 1.433 . S
C2102 C2098 1.350 . S
C2102 C2099 1.463 . S
C2102 N2106 1.427 . S
C2103 H2093 0.929 . S
C2103 C2101 1.433 . S
C2103 N2106 1.384 . S
C2104 H2095 0.929 . S
C2104 C2096 1.378 . S
C2104 C2099 1.350 . S
C2105 H2092 0.929 . S
C2105 C2097 1.433 . S
C2105 N2107 1.384 . S
N2106 C2102 1.427 . S
N2106 C2103 1.384 . S
N2107 C2099 1.427 . S
N2107 C2105 1.384 . S
H2108 C2114 0.930 . S
H2109 C2118 0.930 . S
H2110 C2123 0.929 . S
H2111 C2121 0.929 . S
H2112 C2116 0.929 . S
H2113 C2122 0.929 . S
C2114 H2108 0.930 . S
C2114 C2115 1.367 . S
C2114 C2122 1.378 . S
C2115 C2114 1.367 . S
C2115 C2123 1.433 . S
C2116 H2112 0.929 . S
C2116 C2118 1.378 . S
C2116 C2120 1.350 . S
C2117 C2120 1.463 . S
C2117 C2122 1.350 . S
C2117 N2125 1.427 . S
C2118 H2109 0.930 . S
C2118 C2116 1.378 . S
C2118 C2119 1.367 . S
C2119 C2118 1.367 . S
C2119 C2121 1.433 . S
C2120 C2116 1.350 . S
C2120 C2117 1.463 . S
C2120 N2124 1.427 . S
C2121 H2111 0.929 . S
C2121 C2119 1.433 . S
C2121 N2124 1.384 . S
C2122 H2113 0.929 . S
C2122 C2114 1.378 . S
C2122 C2117 1.350 . S
C2123 H2110 0.929 . S
C2123 C2115 1.433 . S
C2123 N2125 1.384 . S
N2124 C2120 1.427 . S
N2124 C2121 1.384 . S
N2125 C2117 1.427 . S
N2125 C2123 1.384 . S
H2126 C2132 0.930 . S
H2127 C2136 0.930 . S
H2128 C2141 0.929 . S
H2129 C2139 0.929 . S
H2130 C2134 0.929 . S
H2131 C2140 0.929 . S
C2132 H2126 0.930 . S
C2132 C2133 1.367 . S
C2132 C2140 1.378 . S
C2133 C2132 1.367 . S
C2133 C2141 1.433 . S
C2134 H2130 0.929 . S
C2134 C2136 1.378 1_655 S
C2134 C2138 1.350 . S
C2135 C2138 1.463 . S
C2135 C2140 1.350 . S
C2135 N2143 1.427 . S
C2136 H2127 0.930 . S
C2136 C2134 1.378 1_455 S
C2136 C2137 1.369 . S
C2137 C2136 1.369 . S
C2137 C2139 1.408 1_455 S
C2138 C2134 1.350 . S
C2138 C2135 1.463 . S
C2138 N2142 1.427 . S
C2139 H2129 0.929 . S
C2139 C2137 1.408 1_655 S
C2139 N2142 1.384 . S
C2140 H2131 0.929 . S
C2140 C2132 1.378 . S
C2140 C2135 1.350 . S
C2141 H2128 0.929 . S
C2141 C2133 1.433 . S
C2141 N2143 1.384 . S
N2142 C2138 1.427 . S
N2142 C2139 1.384 . S
N2143 C2135 1.427 . S
N2143 C2141 1.384 . S
H2144 C2150 0.930 . S
H2145 C2154 0.930 . S
H2146 C2159 0.929 . S
H2147 C2157 0.929 . S
H2148 C2152 0.929 . S
H2149 C2158 0.929 . S
C2150 H2144 0.930 . S
C2150 C2151 1.367 . S
C2150 C2158 1.378 . S
C2151 C2150 1.367 . S
C2151 C2159 1.433 . S
C2152 H2148 0.929 . S
C2152 C2154 1.378 . S
C2152 C2156 1.350 . S
C2153 C2156 1.463 . S
C2153 C2158 1.350 . S
C2153 N2161 1.427 . S
C2154 H2145 0.930 . S
C2154 C2152 1.378 . S
C2154 C2155 1.367 . S
C2155 C2154 1.367 . S
C2155 C2157 1.433 . S
C2156 C2152 1.350 . S
C2156 C2153 1.463 . S
C2156 N2160 1.427 . S
C2157 H2147 0.929 . S
C2157 C2155 1.433 . S
C2157 N2160 1.384 . S
C2158 H2149 0.929 . S
C2158 C2150 1.378 . S
C2158 C2153 1.350 . S
C2159 H2146 0.929 . S
C2159 C2151 1.433 . S
C2159 N2161 1.384 . S
N2160 C2156 1.427 . S
N2160 C2157 1.384 . S
N2161 C2153 1.427 . S
N2161 C2159 1.384 . S
H2162 C2168 0.930 . S
H2163 C2172 0.930 . S
H2164 C2177 0.929 . S
H2165 C2175 0.929 . S
H2166 C2170 0.929 . S
H2167 C2176 0.929 . S
C2168 H2162 0.930 . S
C2168 C2169 1.367 . S
C2168 C2176 1.378 . S
C2169 C2168 1.367 . S
C2169 C2177 1.433 . S
C2170 H2166 0.929 . S
C2170 C2172 1.378 . S
C2170 C2174 1.350 . S
C2171 C2174 1.463 . S
C2171 C2176 1.350 . S
C2171 N2179 1.427 . S
C2172 H2163 0.930 . S
C2172 C2170 1.378 . S
C2172 C2173 1.367 . S
C2173 C2172 1.367 . S
C2173 C2175 1.433 . S
C2174 C2170 1.350 . S
C2174 C2171 1.463 . S
C2174 N2178 1.427 . S
C2175 H2165 0.929 . S
C2175 C2173 1.433 . S
C2175 N2178 1.384 . S
C2176 H2167 0.929 . S
C2176 C2168 1.378 . S
C2176 C2171 1.350 . S
C2177 H2164 0.929 . S
C2177 C2169 1.433 . S
C2177 N2179 1.384 . S
N2178 C2174 1.427 . S
N2178 C2175 1.384 . S
N2179 C2171 1.427 . S
N2179 C2177 1.384 . S
H2180 C2186 0.930 . S
H2181 C2190 0.930 . S
H2182 C2195 0.929 . S
H2183 C2193 0.929 . S
H2184 C2188 0.929 . S
H2185 C2194 0.929 . S
C2186 H2180 0.930 . S
C2186 C2187 1.367 . S
C2186 C2194 1.378 . S
C2187 C2186 1.367 . S
C2187 C2195 1.433 . S
C2188 H2184 0.929 . S
C2188 C2190 1.378 . S
C2188 C2192 1.350 . S
C2189 C2192 1.463 . S
C2189 C2194 1.350 . S
C2189 N2197 1.427 . S
C2190 H2181 0.930 . S
C2190 C2188 1.378 . S
C2190 C2191 1.367 . S
C2191 C2190 1.367 . S
C2191 C2193 1.433 . S
C2192 C2188 1.350 . S
C2192 C2189 1.463 . S
C2192 N2196 1.427 . S
C2193 H2183 0.929 . S
C2193 C2191 1.433 . S
C2193 N2196 1.384 . S
C2194 H2185 0.929 . S
C2194 C2186 1.378 . S
C2194 C2189 1.350 . S
C2195 H2182 0.929 . S
C2195 C2187 1.433 . S
C2195 N2197 1.384 . S
N2196 C2192 1.427 . S
N2196 C2193 1.384 . S
N2197 C2189 1.427 . S
N2197 C2195 1.384 . S
H2198 C2204 0.930 . S
H2199 C2208 0.930 . S
H2200 C2213 0.929 . S
H2201 C2211 0.929 1_455 S
H2202 C2206 0.929 . S
H2203 C2212 0.929 . S
C2204 H2198 0.930 . S
C2204 C2205 1.367 . S
C2204 C2212 1.378 . S
C2205 C2204 1.367 . S
C2205 C2213 1.433 . S
C2206 H2202 0.929 . S
C2206 C2208 1.378 . S
C2206 C2210 1.350 . S
C2207 C2210 1.463 . S
C2207 C2212 1.350 . S
C2207 N2215 1.427 . S
C2208 H2199 0.930 . S
C2208 C2206 1.378 . S
C2208 C2209 1.363 1_655 S
C2209 C2208 1.363 1_455 S
C2209 C2211 1.433 1_455 S
C2210 C2206 1.350 . S
C2210 C2207 1.463 . S
C2210 N2214 1.427 . S
C2211 H2201 0.929 1_655 S
C2211 C2209 1.433 1_655 S
C2211 N2214 1.384 . S
C2212 H2203 0.929 . S
C2212 C2204 1.378 . S
C2212 C2207 1.350 . S
C2213 H2200 0.929 . S
C2213 C2205 1.433 . S
C2213 N2215 1.384 . S
N2214 C2210 1.427 . S
N2214 C2211 1.384 . S
N2215 C2207 1.427 . S
N2215 C2213 1.384 . S
H2216 C2222 0.930 . S
H2217 C2226 0.930 . S
H2218 C2231 0.929 . S
H2219 C2229 0.929 . S
H2220 C2224 0.929 . S
H2221 C2230 0.929 . S
C2222 H2216 0.930 . S
C2222 C2223 1.367 . S
C2222 C2230 1.378 . S
C2223 C2222 1.367 . S
C2223 C2231 1.433 . S
C2224 H2220 0.929 . S
C2224 C2226 1.378 . S
C2224 C2228 1.350 . S
C2225 C2228 1.463 . S
C2225 C2230 1.350 . S
C2225 N2233 1.427 . S
C2226 H2217 0.930 . S
C2226 C2224 1.378 . S
C2226 C2227 1.367 . S
C2227 C2226 1.367 . S
C2227 C2229 1.433 . S
C2228 C2224 1.350 . S
C2228 C2225 1.463 . S
C2228 N2232 1.427 . S
C2229 H2219 0.929 . S
C2229 C2227 1.433 . S
C2229 N2232 1.384 . S
C2230 H2221 0.929 . S
C2230 C2222 1.378 . S
C2230 C2225 1.350 . S
C2231 H2218 0.929 . S
C2231 C2223 1.433 . S
C2231 N2233 1.384 . S
N2232 C2228 1.427 . S
N2232 C2229 1.384 . S
N2233 C2225 1.427 . S
N2233 C2231 1.384 . S
H2234 C2240 0.930 . S
H2235 C2244 0.930 . S
H2236 C2249 0.929 . S
H2237 C2247 0.929 . S
H2238 C2242 0.929 . S
H2239 C2248 0.929 . S
C2240 H2234 0.930 . S
C2240 C2241 1.367 . S
C2240 C2248 1.378 . S
C2241 C2240 1.367 . S
C2241 C2249 1.433 . S
C2242 H2238 0.929 . S
C2242 C2244 1.378 . S
C2242 C2246 1.350 . S
C2243 C2246 1.463 . S
C2243 C2248 1.350 . S
C2243 N2251 1.427 . S
C2244 H2235 0.930 . S
C2244 C2242 1.378 . S
C2244 C2245 1.367 1_655 S
C2245 C2244 1.367 1_455 S
C2245 C2247 1.433 . S
C2246 C2242 1.350 . S
C2246 C2243 1.463 . S
C2246 N2250 1.427 . S
C2247 H2237 0.929 . S
C2247 C2245 1.433 . S
C2247 N2250 1.384 1_455 S
C2248 H2239 0.929 . S
C2248 C2240 1.378 . S
C2248 C2243 1.350 . S
C2249 H2236 0.929 . S
C2249 C2241 1.433 . S
C2249 N2251 1.384 . S
N2250 C2246 1.427 . S
N2250 C2247 1.384 1_655 S
N2251 C2243 1.427 . S
N2251 C2249 1.384 . S
H2252 C2258 0.930 . S
H2253 C2262 0.930 . S
H2254 C2267 0.929 . S
H2255 C2265 0.929 . S
H2256 C2260 0.929 . S
H2257 C2266 0.929 . S
C2258 H2252 0.930 . S
C2258 C2259 1.367 . S
C2258 C2266 1.378 . S
C2259 C2258 1.367 . S
C2259 C2267 1.433 . S
C2260 H2256 0.929 . S
C2260 C2262 1.378 . S
C2260 C2264 1.350 . S
C2261 C2264 1.463 . S
C2261 C2266 1.350 . S
C2261 N2269 1.427 . S
C2262 H2253 0.930 . S
C2262 C2260 1.378 . S
C2262 C2263 1.367 . S
C2263 C2262 1.367 . S
C2263 C2265 1.433 . S
C2264 C2260 1.350 . S
C2264 C2261 1.463 . S
C2264 N2268 1.427 . S
C2265 H2255 0.929 . S
C2265 C2263 1.433 . S
C2265 N2268 1.384 . S
C2266 H2257 0.929 . S
C2266 C2258 1.378 . S
C2266 C2261 1.350 . S
C2267 H2254 0.929 . S
C2267 C2259 1.433 . S
C2267 N2269 1.384 . S
N2268 C2264 1.427 . S
N2268 C2265 1.384 . S
N2269 C2261 1.427 . S
N2269 C2267 1.384 . S
H2270 C2276 0.930 . S
H2271 C2280 0.930 . S
H2272 C2285 0.929 . S
H2273 C2283 0.929 . S
H2274 C2278 0.929 . S
H2275 C2284 0.929 . S
C2276 H2270 0.930 . S
C2276 C2277 1.367 . S
C2276 C2284 1.378 . S
C2277 C2276 1.367 . S
C2277 C2285 1.433 . S
C2278 H2274 0.929 . S
C2278 C2280 1.378 . S
C2278 C2282 1.350 . S
C2279 C2282 1.463 . S
C2279 C2284 1.350 . S
C2279 N2287 1.427 . S
C2280 H2271 0.930 . S
C2280 C2278 1.378 . S
C2280 C2281 1.367 . S
C2281 C2280 1.367 . S
C2281 C2283 1.433 . S
C2282 C2278 1.350 . S
C2282 C2279 1.463 . S
C2282 N2286 1.427 . S
C2283 H2273 0.929 . S
C2283 C2281 1.433 . S
C2283 N2286 1.384 . S
C2284 H2275 0.929 . S
C2284 C2276 1.378 . S
C2284 C2279 1.350 . S
C2285 H2272 0.929 . S
C2285 C2277 1.433 . S
C2285 N2287 1.384 . S
N2286 C2282 1.427 . S
N2286 C2283 1.384 . S
N2287 C2279 1.427 . S
N2287 C2285 1.384 . S
H2288 C2294 0.930 . S
H2289 C2298 0.930 . S
H2290 C2303 0.929 . S
H2291 C2301 0.929 . S
H2292 C2296 0.929 . S
H2293 C2302 0.929 . S
C2294 H2288 0.930 . S
C2294 C2295 1.367 . S
C2294 C2302 1.378 . S
C2295 C2294 1.367 . S
C2295 C2303 1.433 . S
C2296 H2292 0.929 . S
C2296 C2298 1.378 . S
C2296 C2300 1.350 . S
C2297 C2300 1.463 . S
C2297 C2302 1.350 . S
C2297 N2305 1.427 . S
C2298 H2289 0.930 . S
C2298 C2296 1.378 . S
C2298 C2299 1.367 . S
C2299 C2298 1.367 . S
C2299 C2301 1.433 . S
C2300 C2296 1.350 . S
C2300 C2297 1.463 . S
C2300 N2304 1.427 . S
C2301 H2291 0.929 . S
C2301 C2299 1.433 . S
C2301 N2304 1.384 . S
C2302 H2293 0.929 . S
C2302 C2294 1.378 . S
C2302 C2297 1.350 . S
C2303 H2290 0.929 . S
C2303 C2295 1.433 . S
C2303 N2305 1.384 . S
N2304 C2300 1.427 . S
N2304 C2301 1.384 . S
N2305 C2297 1.427 . S
N2305 C2303 1.384 . S
H2306 C2312 0.930 . S
H2307 C2316 0.930 . S
H2308 C2321 0.929 . S
H2309 C2319 0.929 . S
H2310 C2314 0.929 . S
H2311 C2320 0.929 . S
C2312 H2306 0.930 . S
C2312 C2313 1.367 . S
C2312 C2320 1.378 . S
C2313 C2312 1.367 . S
C2313 C2321 1.433 . S
C2314 H2310 0.929 . S
C2314 C2316 1.378 . S
C2314 C2318 1.350 . S
C2315 C2318 1.463 . S
C2315 C2320 1.350 . S
C2315 N2323 1.427 . S
C2316 H2307 0.930 . S
C2316 C2314 1.378 . S
C2316 C2317 1.367 . S
C2317 C2316 1.367 . S
C2317 C2319 1.433 . S
C2318 C2314 1.350 . S
C2318 C2315 1.463 . S
C2318 N2322 1.427 . S
C2319 H2309 0.929 . S
C2319 C2317 1.433 . S
C2319 N2322 1.384 . S
C2320 H2311 0.929 . S
C2320 C2312 1.378 . S
C2320 C2315 1.350 . S
C2321 H2308 0.929 . S
C2321 C2313 1.433 . S
C2321 N2323 1.384 . S
N2322 C2318 1.427 . S
N2322 C2319 1.384 . S
N2323 C2315 1.427 . S
N2323 C2321 1.384 . S
H2324 C2330 0.930 . S
H2325 C2334 0.930 . S
H2326 C2339 0.929 . S
H2327 C2337 0.929 . S
H2328 C2332 0.929 . S
H2329 C2338 0.929 . S
C2330 H2324 0.930 . S
C2330 C2331 1.367 . S
C2330 C2338 1.378 . S
C2331 C2330 1.367 . S
C2331 C2339 1.433 . S
C2332 H2328 0.929 . S
C2332 C2334 1.378 . S
C2332 C2336 1.350 . S
C2333 C2336 1.463 . S
C2333 C2338 1.350 . S
C2333 N2341 1.427 . S
C2334 H2325 0.930 . S
C2334 C2332 1.378 . S
C2334 C2335 1.367 . S
C2335 C2334 1.367 . S
C2335 C2337 1.433 . S
C2336 C2332 1.350 . S
C2336 C2333 1.463 . S
C2336 N2340 1.427 . S
C2337 H2327 0.929 . S
C2337 C2335 1.433 . S
C2337 N2340 1.384 . S
C2338 H2329 0.929 . S
C2338 C2330 1.378 . S
C2338 C2333 1.350 . S
C2339 H2326 0.929 . S
C2339 C2331 1.433 . S
C2339 N2341 1.384 . S
N2340 C2336 1.427 . S
N2340 C2337 1.384 . S
N2341 C2333 1.427 . S
N2341 C2339 1.384 . S
H2342 C2348 0.930 . S
H2343 C2352 0.930 . S
H2344 C2357 0.929 1_655 S
H2345 C2355 0.929 . S
H2346 C2350 0.929 . S
H2347 C2356 0.929 . S
C2348 H2342 0.930 . S
C2348 C2349 1.361 1_455 S
C2348 C2356 1.378 . S
C2349 C2348 1.361 1_655 S
C2349 C2357 1.430 1_655 S
C2350 H2346 0.929 . S
C2350 C2352 1.378 . S
C2350 C2354 1.350 . S
C2351 C2354 1.463 . S
C2351 C2356 1.350 . S
C2351 N2359 1.427 . S
C2352 H2343 0.930 . S
C2352 C2350 1.378 . S
C2352 C2353 1.367 . S
C2353 C2352 1.367 . S
C2353 C2355 1.433 . S
C2354 C2350 1.350 . S
C2354 C2351 1.463 . S
C2354 N2358 1.427 . S
C2355 H2345 0.929 . S
C2355 C2353 1.433 . S
C2355 N2358 1.384 . S
C2356 H2347 0.929 . S
C2356 C2348 1.378 . S
C2356 C2351 1.350 . S
C2357 H2344 0.929 1_455 S
C2357 C2349 1.430 1_455 S
C2357 N2359 1.384 . S
N2358 C2354 1.427 . S
N2358 C2355 1.384 . S
N2359 C2351 1.427 . S
N2359 C2357 1.384 . S
H2360 C2366 0.930 . S
H2361 C2370 0.930 . S
H2362 C2375 0.929 . S
H2363 C2373 0.929 . S
H2364 C2368 0.929 . S
H2365 C2374 0.929 . S
C2366 H2360 0.930 . S
C2366 C2367 1.367 . S
C2366 C2374 1.378 . S
C2367 C2366 1.367 . S
C2367 C2375 1.433 . S
C2368 H2364 0.929 . S
C2368 C2370 1.378 . S
C2368 C2372 1.350 . S
C2369 C2372 1.463 . S
C2369 C2374 1.350 . S
C2369 N2377 1.427 . S
C2370 H2361 0.930 . S
C2370 C2368 1.378 . S
C2370 C2371 1.367 . S
C2371 C2370 1.367 . S
C2371 C2373 1.433 . S
C2372 C2368 1.350 . S
C2372 C2369 1.463 . S
C2372 N2376 1.427 . S
C2373 H2363 0.929 . S
C2373 C2371 1.433 . S
C2373 N2376 1.384 . S
C2374 H2365 0.929 . S
C2374 C2366 1.378 . S
C2374 C2369 1.350 . S
C2375 H2362 0.929 . S
C2375 C2367 1.433 . S
C2375 N2377 1.384 . S
N2376 C2372 1.427 . S
N2376 C2373 1.384 . S
N2377 C2369 1.427 . S
N2377 C2375 1.384 . S
H2378 C2384 0.930 . S
H2379 C2388 0.930 1_655 S
H2380 C2393 0.929 . S
H2381 C2391 0.929 . S
H2382 C2386 0.929 . S
H2383 C2392 0.929 . S
C2384 H2378 0.930 . S
C2384 C2385 1.367 . S
C2384 C2392 1.378 . S
C2385 C2384 1.367 . S
C2385 C2393 1.433 . S
C2386 H2382 0.929 . S
C2386 C2388 1.378 . S
C2386 C2390 1.350 . S
C2387 C2390 1.463 . S
C2387 C2392 1.350 . S
C2387 N2395 1.427 . S
C2388 H2379 0.930 1_455 S
C2388 C2386 1.378 . S
C2388 C2389 1.365 1_455 S
C2389 C2388 1.365 1_655 S
C2389 C2391 1.415 1_655 S
C2390 C2386 1.350 . S
C2390 C2387 1.463 . S
C2390 N2394 1.427 . S
C2391 H2381 0.929 . S
C2391 C2389 1.415 1_455 S
C2391 N2394 1.384 . S
C2392 H2383 0.929 . S
C2392 C2384 1.378 . S
C2392 C2387 1.350 . S
C2393 H2380 0.929 . S
C2393 C2385 1.433 . S
C2393 N2395 1.384 . S
N2394 C2390 1.427 . S
N2394 C2391 1.384 . S
N2395 C2387 1.427 . S
N2395 C2393 1.384 . S
H2396 C2402 0.930 . S
H2397 C2406 0.930 . S
H2398 C2411 0.929 . S
H2399 C2409 0.929 . S
H2400 C2404 0.929 . S
H2401 C2410 0.929 . S
C2402 H2396 0.930 . S
C2402 C2403 1.367 . S
C2402 C2410 1.378 . S
C2403 C2402 1.367 . S
C2403 C2411 1.433 . S
C2404 H2400 0.929 . S
C2404 C2406 1.378 . S
C2404 C2408 1.350 . S
C2405 C2408 1.463 . S
C2405 C2410 1.350 . S
C2405 N2413 1.427 . S
C2406 H2397 0.930 . S
C2406 C2404 1.378 . S
C2406 C2407 1.367 . S
C2407 C2406 1.367 . S
C2407 C2409 1.433 . S
C2408 C2404 1.350 . S
C2408 C2405 1.463 . S
C2408 N2412 1.427 . S
C2409 H2399 0.929 . S
C2409 C2407 1.433 . S
C2409 N2412 1.384 . S
C2410 H2401 0.929 . S
C2410 C2402 1.378 . S
C2410 C2405 1.350 . S
C2411 H2398 0.929 . S
C2411 C2403 1.433 . S
C2411 N2413 1.384 . S
N2412 C2408 1.427 . S
N2412 C2409 1.384 . S
N2413 C2405 1.427 . S
N2413 C2411 1.384 . S
H2414 C2420 0.930 . S
H2415 C2424 0.930 . S
H2416 C2429 0.929 . S
H2417 C2427 0.929 . S
H2418 C2422 0.929 . S
H2419 C2428 0.929 . S
C2420 H2414 0.930 . S
C2420 C2421 1.367 . S
C2420 C2428 1.378 . S
C2421 C2420 1.367 . S
C2421 C2429 1.433 . S
C2422 H2418 0.929 . S
C2422 C2424 1.378 . S
C2422 C2426 1.350 . S
C2423 C2426 1.463 . S
C2423 C2428 1.350 . S
C2423 N2431 1.427 . S
C2424 H2415 0.930 . S
C2424 C2422 1.378 . S
C2424 C2425 1.367 . S
C2425 C2424 1.367 . S
C2425 C2427 1.433 . S
C2426 C2422 1.350 . S
C2426 C2423 1.463 . S
C2426 N2430 1.427 . S
C2427 H2417 0.929 . S
C2427 C2425 1.433 . S
C2427 N2430 1.384 . S
C2428 H2419 0.929 . S
C2428 C2420 1.378 . S
C2428 C2423 1.350 . S
C2429 H2416 0.929 . S
C2429 C2421 1.433 . S
C2429 N2431 1.384 . S
N2430 C2426 1.427 . S
N2430 C2427 1.384 . S
N2431 C2423 1.427 . S
N2431 C2429 1.384 . S
H2432 C2438 0.930 . S
H2433 C2442 0.930 . S
H2434 C2447 0.929 . S
H2435 C2445 0.929 . S
H2436 C2440 0.929 . S
H2437 C2446 0.929 . S
C2438 H2432 0.930 . S
C2438 C2439 1.367 . S
C2438 C2446 1.378 . S
C2439 C2438 1.367 . S
C2439 C2447 1.433 . S
C2440 H2436 0.929 . S
C2440 C2442 1.378 . S
C2440 C2444 1.350 . S
C2441 C2444 1.463 1_545 S
C2441 C2446 1.350 . S
C2441 N2449 1.427 . S
C2442 H2433 0.930 . S
C2442 C2440 1.378 . S
C2442 C2443 1.367 . S
C2443 C2442 1.367 . S
C2443 C2445 1.433 . S
C2444 C2440 1.350 . S
C2444 C2441 1.463 1_565 S
C2444 N2448 1.427 . S
C2445 H2435 0.929 . S
C2445 C2443 1.433 . S
C2445 N2448 1.384 . S
C2446 H2437 0.929 . S
C2446 C2438 1.378 . S
C2446 C2441 1.350 . S
C2447 H2434 0.929 . S
C2447 C2439 1.433 . S
C2447 N2449 1.384 . S
N2448 C2444 1.427 . S
N2448 C2445 1.384 . S
N2449 C2441 1.427 . S
N2449 C2447 1.384 . S
H2450 C2456 0.930 . S
H2451 C2460 0.930 . S
H2452 C2465 0.929 . S
H2453 C2463 0.929 . S
H2454 C2458 0.929 . S
H2455 C2464 0.929 . S
C2456 H2450 0.930 . S
C2456 C2457 1.367 . S
C2456 C2464 1.378 . S
C2457 C2456 1.367 . S
C2457 C2465 1.433 . S
C2458 H2454 0.929 . S
C2458 C2460 1.378 . S
C2458 C2462 1.350 . S
C2459 C2462 1.463 . S
C2459 C2464 1.350 . S
C2459 N2467 1.427 . S
C2460 H2451 0.930 . S
C2460 C2458 1.378 . S
C2460 C2461 1.367 . S
C2461 C2460 1.367 . S
C2461 C2463 1.433 . S
C2462 C2458 1.350 . S
C2462 C2459 1.463 . S
C2462 N2466 1.427 . S
C2463 H2453 0.929 . S
C2463 C2461 1.433 . S
C2463 N2466 1.384 . S
C2464 H2455 0.929 . S
C2464 C2456 1.378 . S
C2464 C2459 1.350 . S
C2465 H2452 0.929 . S
C2465 C2457 1.433 . S
C2465 N2467 1.384 . S
N2466 C2462 1.427 . S
N2466 C2463 1.384 . S
N2467 C2459 1.427 . S
N2467 C2465 1.384 . S
H2468 C2474 0.930 . S
H2469 C2478 0.930 . S
H2470 C2483 0.929 . S
H2471 C2481 0.929 . S
H2472 C2476 0.929 . S
H2473 C2482 0.929 . S
C2474 H2468 0.930 . S
C2474 C2475 1.367 . S
C2474 C2482 1.378 . S
C2475 C2474 1.367 . S
C2475 C2483 1.433 . S
C2476 H2472 0.929 . S
C2476 C2478 1.378 . S
C2476 C2480 1.350 . S
C2477 C2480 1.463 1_565 S
C2477 C2482 1.350 . S
C2477 N2485 1.427 . S
C2478 H2469 0.930 . S
C2478 C2476 1.378 . S
C2478 C2479 1.367 . S
C2479 C2478 1.367 . S
C2479 C2481 1.433 . S
C2480 C2476 1.350 . S
C2480 C2477 1.463 1_545 S
C2480 N2484 1.427 . S
C2481 H2471 0.929 . S
C2481 C2479 1.433 . S
C2481 N2484 1.384 . S
C2482 H2473 0.929 . S
C2482 C2474 1.378 . S
C2482 C2477 1.350 . S
C2483 H2470 0.929 . S
C2483 C2475 1.433 . S
C2483 N2485 1.384 . S
N2484 C2480 1.427 . S
N2484 C2481 1.384 . S
N2485 C2477 1.427 . S
N2485 C2483 1.384 . S
H2486 C2492 0.930 . S
H2487 C2496 0.930 . S
H2488 C2501 0.929 . S
H2489 C2499 0.929 . S
H2490 C2494 0.929 . S
H2491 C2500 0.929 . S
C2492 H2486 0.930 . S
C2492 C2493 1.367 . S
C2492 C2500 1.378 . S
C2493 C2492 1.367 . S
C2493 C2501 1.433 1_556 S
C2494 H2490 0.929 . S
C2494 C2496 1.378 . S
C2494 C2498 1.386 . S
C2495 C2498 1.458 1_556 S
C2495 C2500 1.386 . S
C2495 N2503 1.394 1_556 S
C2496 H2487 0.930 . S
C2496 C2494 1.378 . S
C2496 C2497 1.367 . S
C2497 C2496 1.367 . S
C2497 C2499 1.433 1_554 S
C2498 C2494 1.386 . S
C2498 C2495 1.458 1_554 S
C2498 N2502 1.394 1_554 S
C2499 H2489 0.929 . S
C2499 C2497 1.433 1_556 S
C2499 N2502 1.384 . S
C2500 H2491 0.929 . S
C2500 C2492 1.378 . S
C2500 C2495 1.386 . S
C2501 H2488 0.929 . S
C2501 C2493 1.433 1_554 S
C2501 N2503 1.384 . S
N2502 C2498 1.394 1_556 S
N2502 C2499 1.384 . S
N2503 C2495 1.394 1_554 S
N2503 C2501 1.384 . S
H2504 C2510 0.930 . S
H2505 C2514 0.930 . S
H2506 C2519 0.929 . S
H2507 C2517 0.929 . S
H2508 C2512 0.929 . S
H2509 C2518 0.929 . S
C2510 H2504 0.930 . S
C2510 C2511 1.367 . S
C2510 C2518 1.378 . S
C2511 C2510 1.367 . S
C2511 C2519 1.433 . S
C2512 H2508 0.929 . S
C2512 C2514 1.378 . S
C2512 C2516 1.350 . S
C2513 C2516 1.463 1_545 S
C2513 C2518 1.350 . S
C2513 N2521 1.427 . S
C2514 H2505 0.930 . S
C2514 C2512 1.378 . S
C2514 C2515 1.367 . S
C2515 C2514 1.367 . S
C2515 C2517 1.433 . S
C2516 C2512 1.350 . S
C2516 C2513 1.463 1_565 S
C2516 N2520 1.427 . S
C2517 H2507 0.929 . S
C2517 C2515 1.433 . S
C2517 N2520 1.384 . S
C2518 H2509 0.929 . S
C2518 C2510 1.378 . S
C2518 C2513 1.350 . S
C2519 H2506 0.929 . S
C2519 C2511 1.433 . S
C2519 N2521 1.384 . S
N2520 C2516 1.427 . S
N2520 C2517 1.384 . S
N2521 C2513 1.427 . S
N2521 C2519 1.384 . S
H2522 C2528 0.930 . S
H2523 C2532 0.930 . S
H2524 C2537 0.929 . S
H2525 C2535 0.929 . S
H2526 C2530 0.929 . S
H2527 C2536 0.929 . S
C2528 H2522 0.930 . S
C2528 C2529 1.367 . S
C2528 C2536 1.378 . S
C2529 C2528 1.367 . S
C2529 C2537 1.433 . S
C2530 H2526 0.929 . S
C2530 C2532 1.378 . S
C2530 C2534 1.350 . S
C2531 C2534 1.463 . S
C2531 C2536 1.350 . S
C2531 N2539 1.427 . S
C2532 H2523 0.930 . S
C2532 C2530 1.378 . S
C2532 C2533 1.367 . S
C2533 C2532 1.367 . S
C2533 C2535 1.433 . S
C2534 C2530 1.350 . S
C2534 C2531 1.463 . S
C2534 N2538 1.427 . S
C2535 H2525 0.929 . S
C2535 C2533 1.433 . S
C2535 N2538 1.384 . S
C2536 H2527 0.929 . S
C2536 C2528 1.378 . S
C2536 C2531 1.350 . S
C2537 H2524 0.929 . S
C2537 C2529 1.433 . S
C2537 N2539 1.384 . S
N2538 C2534 1.427 . S
N2538 C2535 1.384 . S
N2539 C2531 1.427 . S
N2539 C2537 1.384 . S
H2540 C2546 0.930 . S
H2541 C2550 0.930 . S
H2542 C2555 0.929 . S
H2543 C2553 0.929 . S
H2544 C2548 0.929 . S
H2545 C2554 0.929 . S
C2546 H2540 0.930 . S
C2546 C2547 1.367 . S
C2546 C2554 1.378 . S
C2547 C2546 1.367 . S
C2547 C2555 1.433 . S
C2548 H2544 0.929 . S
C2548 C2550 1.378 . S
C2548 C2552 1.350 . S
C2549 C2552 1.463 1_545 S
C2549 C2554 1.350 . S
C2549 N2557 1.427 . S
C2550 H2541 0.930 . S
C2550 C2548 1.378 . S
C2550 C2551 1.367 . S
C2551 C2550 1.367 . S
C2551 C2553 1.433 . S
C2552 C2548 1.350 . S
C2552 C2549 1.463 1_565 S
C2552 N2556 1.427 . S
C2553 H2543 0.929 . S
C2553 C2551 1.433 . S
C2553 N2556 1.384 . S
C2554 H2545 0.929 . S
C2554 C2546 1.378 . S
C2554 C2549 1.350 . S
C2555 H2542 0.929 . S
C2555 C2547 1.433 . S
C2555 N2557 1.384 . S
N2556 C2552 1.427 . S
N2556 C2553 1.384 . S
N2557 C2549 1.427 . S
N2557 C2555 1.384 . S
H2558 C2564 0.930 . S
H2559 C2568 0.930 . S
H2560 C2573 0.929 . S
H2561 C2571 0.929 . S
H2562 C2566 0.929 . S
H2563 C2572 0.929 . S
C2564 H2558 0.930 . S
C2564 C2565 1.367 . S
C2564 C2572 1.378 . S
C2565 C2564 1.367 . S
C2565 C2573 1.433 1_556 S
C2566 H2562 0.929 . S
C2566 C2568 1.378 . S
C2566 C2570 1.371 . S
C2567 C2570 1.459 1_556 S
C2567 C2572 1.371 . S
C2567 N2575 1.408 1_556 S
C2568 H2559 0.930 . S
C2568 C2566 1.378 . S
C2568 C2569 1.367 . S
C2569 C2568 1.367 . S
C2569 C2571 1.433 1_554 S
C2570 C2566 1.371 . S
C2570 C2567 1.459 1_554 S
C2570 N2574 1.408 1_554 S
C2571 H2561 0.929 . S
C2571 C2569 1.433 1_556 S
C2571 N2574 1.384 . S
C2572 H2563 0.929 . S
C2572 C2564 1.378 . S
C2572 C2567 1.371 . S
C2573 H2560 0.929 . S
C2573 C2565 1.433 1_554 S
C2573 N2575 1.384 . S
N2574 C2570 1.408 1_556 S
N2574 C2571 1.384 . S
N2575 C2567 1.408 1_554 S
N2575 C2573 1.384 . S
H2576 C2582 0.930 . S
H2577 C2586 0.930 . S
H2578 C2591 0.929 . S
H2579 C2589 0.929 . S
H2580 C2584 0.929 . S
H2581 C2590 0.929 . S
C2582 H2576 0.930 . S
C2582 C2583 1.367 . S
C2582 C2590 1.378 . S
C2583 C2582 1.367 . S
C2583 C2591 1.433 . S
C2584 H2580 0.929 . S
C2584 C2586 1.378 . S
C2584 C2588 1.350 . S
C2585 C2588 1.463 . S
C2585 C2590 1.350 . S
C2585 N2593 1.427 . S
C2586 H2577 0.930 . S
C2586 C2584 1.378 . S
C2586 C2587 1.367 . S
C2587 C2586 1.367 . S
C2587 C2589 1.433 . S
C2588 C2584 1.350 . S
C2588 C2585 1.463 . S
C2588 N2592 1.427 . S
C2589 H2579 0.929 . S
C2589 C2587 1.433 . S
C2589 N2592 1.384 . S
C2590 H2581 0.929 . S
C2590 C2582 1.378 . S
C2590 C2585 1.350 . S
C2591 H2578 0.929 . S
C2591 C2583 1.433 . S
C2591 N2593 1.384 . S
N2592 C2588 1.427 . S
N2592 C2589 1.384 . S
N2593 C2585 1.427 . S
N2593 C2591 1.384 . S
H2594 C2600 0.930 . S
H2595 C2604 0.930 . S
H2596 C2609 0.929 . S
H2597 C2607 0.929 . S
H2598 C2602 0.929 . S
H2599 C2608 0.929 . S
C2600 H2594 0.930 . S
C2600 C2601 1.367 1_554 S
C2600 C2608 1.378 . S
C2601 C2600 1.367 1_556 S
C2601 C2609 1.433 . S
C2602 H2598 0.929 . S
C2602 C2604 1.378 . S
C2602 C2606 1.351 1_556 S
C2603 C2606 1.463 1_556 S
C2603 C2608 1.351 1_556 S
C2603 N2611 1.426 . S
C2604 H2595 0.930 . S
C2604 C2602 1.378 . S
C2604 C2605 1.367 1_556 S
C2605 C2604 1.367 1_554 S
C2605 C2607 1.433 . S
C2606 C2602 1.351 1_554 S
C2606 C2603 1.463 1_554 S
C2606 N2610 1.426 . S
C2607 H2597 0.929 . S
C2607 C2605 1.433 . S
C2607 N2610 1.384 . S
C2608 H2599 0.929 . S
C2608 C2600 1.378 . S
C2608 C2603 1.351 1_554 S
C2609 H2596 0.929 . S
C2609 C2601 1.433 . S
C2609 N2611 1.384 . S
N2610 C2606 1.426 . S
N2610 C2607 1.384 . S
N2611 C2603 1.426 . S
N2611 C2609 1.384 . S
H2612 C2618 0.930 . S
H2613 C2622 0.930 . S
H2614 C2627 0.929 . S
H2615 C2625 0.929 . S
H2616 C2620 0.929 . S
H2617 C2626 0.929 . S
C2618 H2612 0.930 . S
C2618 C2619 1.367 . S
C2618 C2626 1.378 . S
C2619 C2618 1.367 . S
C2619 C2627 1.433 . S
C2620 H2616 0.929 . S
C2620 C2622 1.378 . S
C2620 C2624 1.350 . S
C2621 C2624 1.463 . S
C2621 C2626 1.350 . S
C2621 N2629 1.427 . S
C2622 H2613 0.930 . S
C2622 C2620 1.378 . S
C2622 C2623 1.367 . S
C2623 C2622 1.367 . S
C2623 C2625 1.433 . S
C2624 C2620 1.350 . S
C2624 C2621 1.463 . S
C2624 N2628 1.427 . S
C2625 H2615 0.929 . S
C2625 C2623 1.433 . S
C2625 N2628 1.384 . S
C2626 H2617 0.929 . S
C2626 C2618 1.378 . S
C2626 C2621 1.350 . S
C2627 H2614 0.929 . S
C2627 C2619 1.433 . S
C2627 N2629 1.384 . S
N2628 C2624 1.427 . S
N2628 C2625 1.384 . S
N2629 C2621 1.427 . S
N2629 C2627 1.384 . S
H2630 C2636 0.930 . S
H2631 C2640 0.930 . S
H2632 C2645 0.929 . S
H2633 C2643 0.929 . S
H2634 C2638 0.929 . S
H2635 C2644 0.929 . S
C2636 H2630 0.930 . S
C2636 C2637 1.367 . S
C2636 C2644 1.378 . S
C2637 C2636 1.367 . S
C2637 C2645 1.433 . S
C2638 H2634 0.929 . S
C2638 C2640 1.378 . S
C2638 C2642 1.350 . S
C2639 C2642 1.463 . S
C2639 C2644 1.350 . S
C2639 N2647 1.427 . S
C2640 H2631 0.930 . S
C2640 C2638 1.378 . S
C2640 C2641 1.367 . S
C2641 C2640 1.367 . S
C2641 C2643 1.433 . S
C2642 C2638 1.350 . S
C2642 C2639 1.463 . S
C2642 N2646 1.427 . S
C2643 H2633 0.929 . S
C2643 C2641 1.433 . S
C2643 N2646 1.384 . S
C2644 H2635 0.929 . S
C2644 C2636 1.378 . S
C2644 C2639 1.350 . S
C2645 H2632 0.929 . S
C2645 C2637 1.433 . S
C2645 N2647 1.384 . S
N2646 C2642 1.427 . S
N2646 C2643 1.384 . S
N2647 C2639 1.427 . S
N2647 C2645 1.384 . S
H2648 C2654 0.930 . S
H2649 C2658 0.930 . S
H2650 C2663 0.929 . S
H2651 C2661 0.929 . S
H2652 C2656 0.929 . S
H2653 C2662 0.929 . S
C2654 H2648 0.930 . S
C2654 C2655 1.367 . S
C2654 C2662 1.378 . S
C2655 C2654 1.367 . S
C2655 C2663 1.433 . S
C2656 H2652 0.929 . S
C2656 C2658 1.378 . S
C2656 C2660 1.350 . S
C2657 C2660 1.463 . S
C2657 C2662 1.350 . S
C2657 N2665 1.427 . S
C2658 H2649 0.930 . S
C2658 C2656 1.378 . S
C2658 C2659 1.367 . S
C2659 C2658 1.367 . S
C2659 C2661 1.433 . S
C2660 C2656 1.350 . S
C2660 C2657 1.463 . S
C2660 N2664 1.427 . S
C2661 H2651 0.929 . S
C2661 C2659 1.433 . S
C2661 N2664 1.384 . S
C2662 H2653 0.929 . S
C2662 C2654 1.378 . S
C2662 C2657 1.350 . S
C2663 H2650 0.929 . S
C2663 C2655 1.433 . S
C2663 N2665 1.384 . S
N2664 C2660 1.427 . S
N2664 C2661 1.384 . S
N2665 C2657 1.427 . S
N2665 C2663 1.384 . S
H2666 C2672 0.930 . S
H2667 C2676 0.930 . S
H2668 C2681 0.929 . S
H2669 C2679 0.929 . S
H2670 C2674 0.929 . S
H2671 C2680 0.929 . S
C2672 H2666 0.930 . S
C2672 C2673 1.367 . S
C2672 C2680 1.378 . S
C2673 C2672 1.367 . S
C2673 C2681 1.433 1_556 S
C2674 H2670 0.929 . S
C2674 C2676 1.378 . S
C2674 C2678 1.350 . S
C2675 C2678 1.463 1_556 S
C2675 C2680 1.350 . S
C2675 N2683 1.427 1_556 S
C2676 H2667 0.930 . S
C2676 C2674 1.378 . S
C2676 C2677 1.367 . S
C2677 C2676 1.367 . S
C2677 C2679 1.433 1_554 S
C2678 C2674 1.350 . S
C2678 C2675 1.463 1_554 S
C2678 N2682 1.427 1_554 S
C2679 H2669 0.929 . S
C2679 C2677 1.433 1_556 S
C2679 N2682 1.384 . S
C2680 H2671 0.929 . S
C2680 C2672 1.378 . S
C2680 C2675 1.350 . S
C2681 H2668 0.929 . S
C2681 C2673 1.433 1_554 S
C2681 N2683 1.384 . S
N2682 C2678 1.427 1_556 S
N2682 C2679 1.384 . S
N2683 C2675 1.427 1_554 S
N2683 C2681 1.384 . S
H2684 C2690 0.930 . S
H2685 C2694 0.930 . S
H2686 C2699 0.929 . S
H2687 C2697 0.929 . S
H2688 C2692 0.929 . S
H2689 C2698 0.929 . S
C2690 H2684 0.930 . S
C2690 C2691 1.367 . S
C2690 C2698 1.378 . S
C2691 C2690 1.367 . S
C2691 C2699 1.433 . S
C2692 H2688 0.929 . S
C2692 C2694 1.378 . S
C2692 C2696 1.350 . S
C2693 C2696 1.463 . S
C2693 C2698 1.350 . S
C2693 N2701 1.427 . S
C2694 H2685 0.930 . S
C2694 C2692 1.378 . S
C2694 C2695 1.367 . S
C2695 C2694 1.367 . S
C2695 C2697 1.433 . S
C2696 C2692 1.350 . S
C2696 C2693 1.463 . S
C2696 N2700 1.427 . S
C2697 H2687 0.929 . S
C2697 C2695 1.433 . S
C2697 N2700 1.384 . S
C2698 H2689 0.929 . S
C2698 C2690 1.378 . S
C2698 C2693 1.350 . S
C2699 H2686 0.929 . S
C2699 C2691 1.433 . S
C2699 N2701 1.384 . S
N2700 C2696 1.427 . S
N2700 C2697 1.384 . S
N2701 C2693 1.427 . S
N2701 C2699 1.384 . S
H2702 C2708 0.930 . S
H2703 C2712 0.930 . S
H2704 C2717 0.929 . S
H2705 C2715 0.929 . S
H2706 C2710 0.929 . S
H2707 C2716 0.929 . S
C2708 H2702 0.930 . S
C2708 C2709 1.367 . S
C2708 C2716 1.378 . S
C2709 C2708 1.367 . S
C2709 C2717 1.433 . S
C2710 H2706 0.929 . S
C2710 C2712 1.378 . S
C2710 C2714 1.350 . S
C2711 C2714 1.463 . S
C2711 C2716 1.350 . S
C2711 N2719 1.427 . S
C2712 H2703 0.930 . S
C2712 C2710 1.378 . S
C2712 C2713 1.367 . S
C2713 C2712 1.367 . S
C2713 C2715 1.433 . S
C2714 C2710 1.350 . S
C2714 C2711 1.463 . S
C2714 N2718 1.427 . S
C2715 H2705 0.929 . S
C2715 C2713 1.433 . S
C2715 N2718 1.384 . S
C2716 H2707 0.929 . S
C2716 C2708 1.378 . S
C2716 C2711 1.350 . S
C2717 H2704 0.929 . S
C2717 C2709 1.433 . S
C2717 N2719 1.384 . S
N2718 C2714 1.427 . S
N2718 C2715 1.384 . S
N2719 C2711 1.427 . S
N2719 C2717 1.384 . S
H2720 C2726 0.930 . S
H2721 C2730 0.930 . S
H2722 C2735 0.929 . S
H2723 C2733 0.929 . S
H2724 C2728 0.929 . S
H2725 C2734 0.929 . S
C2726 H2720 0.930 . S
C2726 C2727 1.367 . S
C2726 C2734 1.378 . S
C2727 C2726 1.367 . S
C2727 C2735 1.433 . S
C2728 H2724 0.929 . S
C2728 C2730 1.378 . S
C2728 C2732 1.350 . S
C2729 C2732 1.463 . S
C2729 C2734 1.350 . S
C2729 N2737 1.427 . S
C2730 H2721 0.930 . S
C2730 C2728 1.378 . S
C2730 C2731 1.367 . S
C2731 C2730 1.367 . S
C2731 C2733 1.433 . S
C2732 C2728 1.350 . S
C2732 C2729 1.463 . S
C2732 N2736 1.427 . S
C2733 H2723 0.929 . S
C2733 C2731 1.433 . S
C2733 N2736 1.384 . S
C2734 H2725 0.929 . S
C2734 C2726 1.378 . S
C2734 C2729 1.350 . S
C2735 H2722 0.929 . S
C2735 C2727 1.433 . S
C2735 N2737 1.384 . S
N2736 C2732 1.427 . S
N2736 C2733 1.384 . S
N2737 C2729 1.427 . S
N2737 C2735 1.384 . S
H2738 C2744 0.930 . S
H2739 C2748 0.930 . S
H2740 C2753 0.929 . S
H2741 C2751 0.929 . S
H2742 C2746 0.929 . S
H2743 C2752 0.929 . S
C2744 H2738 0.930 . S
C2744 C2745 1.367 . S
C2744 C2752 1.378 . S
C2745 C2744 1.367 . S
C2745 C2753 1.433 . S
C2746 H2742 0.929 . S
C2746 C2748 1.378 . S
C2746 C2750 1.350 . S
C2747 C2750 1.463 . S
C2747 C2752 1.350 . S
C2747 N2755 1.427 . S
C2748 H2739 0.930 . S
C2748 C2746 1.378 . S
C2748 C2749 1.367 . S
C2749 C2748 1.367 . S
C2749 C2751 1.433 . S
C2750 C2746 1.350 . S
C2750 C2747 1.463 . S
C2750 N2754 1.427 . S
C2751 H2741 0.929 . S
C2751 C2749 1.433 . S
C2751 N2754 1.384 . S
C2752 H2743 0.929 . S
C2752 C2744 1.378 . S
C2752 C2747 1.350 . S
C2753 H2740 0.929 . S
C2753 C2745 1.433 . S
C2753 N2755 1.384 . S
N2754 C2750 1.427 . S
N2754 C2751 1.384 . S
N2755 C2747 1.427 . S
N2755 C2753 1.384 . S
H2756 C2762 0.930 . S
H2757 C2766 0.930 . S
H2758 C2771 0.929 . S
H2759 C2769 0.929 . S
H2760 C2764 0.929 . S
H2761 C2770 0.929 . S
C2762 H2756 0.930 . S
C2762 C2763 1.367 . S
C2762 C2770 1.378 . S
C2763 C2762 1.367 . S
C2763 C2771 1.433 . S
C2764 H2760 0.929 . S
C2764 C2766 1.378 . S
C2764 C2768 1.350 . S
C2765 C2768 1.463 . S
C2765 C2770 1.350 . S
C2765 N2773 1.427 . S
C2766 H2757 0.930 . S
C2766 C2764 1.378 . S
C2766 C2767 1.367 . S
C2767 C2766 1.367 . S
C2767 C2769 1.433 . S
C2768 C2764 1.350 . S
C2768 C2765 1.463 . S
C2768 N2772 1.427 . S
C2769 H2759 0.929 . S
C2769 C2767 1.433 . S
C2769 N2772 1.384 . S
C2770 H2761 0.929 . S
C2770 C2762 1.378 . S
C2770 C2765 1.350 . S
C2771 H2758 0.929 . S
C2771 C2763 1.433 . S
C2771 N2773 1.384 . S
N2772 C2768 1.427 . S
N2772 C2769 1.384 . S
N2773 C2765 1.427 . S
N2773 C2771 1.384 . S
H2774 C2780 0.930 . S
H2775 C2784 0.930 . S
H2776 C2789 0.929 . S
H2777 C2787 0.929 . S
H2778 C2782 0.929 . S
H2779 C2788 0.929 . S
C2780 H2774 0.930 . S
C2780 C2781 1.367 . S
C2780 C2788 1.378 . S
C2781 C2780 1.367 . S
C2781 C2789 1.433 . S
C2782 H2778 0.929 . S
C2782 C2784 1.378 . S
C2782 C2786 1.350 . S
C2783 C2786 1.463 . S
C2783 C2788 1.350 . S
C2783 N2791 1.427 . S
C2784 H2775 0.930 . S
C2784 C2782 1.378 . S
C2784 C2785 1.367 . S
C2785 C2784 1.367 . S
C2785 C2787 1.433 . S
C2786 C2782 1.350 . S
C2786 C2783 1.463 . S
C2786 N2790 1.427 . S
C2787 H2777 0.929 . S
C2787 C2785 1.433 . S
C2787 N2790 1.384 . S
C2788 H2779 0.929 . S
C2788 C2780 1.378 . S
C2788 C2783 1.350 . S
C2789 H2776 0.929 . S
C2789 C2781 1.433 . S
C2789 N2791 1.384 . S
N2790 C2786 1.427 . S
N2790 C2787 1.384 . S
N2791 C2783 1.427 . S
N2791 C2789 1.384 . S
H2792 C2798 0.930 . S
H2793 C2802 0.930 . S
H2794 C2807 0.929 . S
H2795 C2805 0.929 . S
H2796 C2800 0.929 . S
H2797 C2806 0.929 . S
C2798 H2792 0.930 . S
C2798 C2799 1.367 . S
C2798 C2806 1.378 . S
C2799 C2798 1.367 . S
C2799 C2807 1.433 . S
C2800 H2796 0.929 . S
C2800 C2802 1.378 . S
C2800 C2804 1.350 . S
C2801 C2804 1.463 . S
C2801 C2806 1.350 . S
C2801 N2809 1.427 . S
C2802 H2793 0.930 . S
C2802 C2800 1.378 . S
C2802 C2803 1.367 . S
C2803 C2802 1.367 . S
C2803 C2805 1.433 . S
C2804 C2800 1.350 . S
C2804 C2801 1.463 . S
C2804 N2808 1.427 . S
C2805 H2795 0.929 . S
C2805 C2803 1.433 . S
C2805 N2808 1.384 . S
C2806 H2797 0.929 . S
C2806 C2798 1.378 . S
C2806 C2801 1.350 . S
C2807 H2794 0.929 . S
C2807 C2799 1.433 . S
C2807 N2809 1.384 . S
N2808 C2804 1.427 . S
N2808 C2805 1.384 . S
N2809 C2801 1.427 . S
N2809 C2807 1.384 . S
H2810 C2816 0.930 . S
H2811 C2820 0.930 . S
H2812 C2825 0.929 . S
H2813 C2823 0.929 . S
H2814 C2818 0.929 . S
H2815 C2824 0.929 . S
C2816 H2810 0.930 . S
C2816 C2817 1.367 . S
C2816 C2824 1.378 . S
C2817 C2816 1.367 . S
C2817 C2825 1.433 . S
C2818 H2814 0.929 . S
C2818 C2820 1.378 . S
C2818 C2822 1.350 . S
C2819 C2822 1.463 . S
C2819 C2824 1.350 . S
C2819 N2827 1.427 . S
C2820 H2811 0.930 . S
C2820 C2818 1.378 . S
C2820 C2821 1.367 . S
C2821 C2820 1.367 . S
C2821 C2823 1.433 . S
C2822 C2818 1.350 . S
C2822 C2819 1.463 . S
C2822 N2826 1.427 . S
C2823 H2813 0.929 . S
C2823 C2821 1.433 . S
C2823 N2826 1.384 . S
C2824 H2815 0.929 . S
C2824 C2816 1.378 . S
C2824 C2819 1.350 . S
C2825 H2812 0.929 . S
C2825 C2817 1.433 . S
C2825 N2827 1.384 . S
N2826 C2822 1.427 . S
N2826 C2823 1.384 . S
N2827 C2819 1.427 . S
N2827 C2825 1.384 . S
H2828 C2834 0.930 . S
H2829 C2838 0.930 . S
H2830 C2843 0.929 . S
H2831 C2841 0.929 . S
H2832 C2836 0.929 . S
H2833 C2842 0.929 . S
C2834 H2828 0.930 . S
C2834 C2835 1.367 . S
C2834 C2842 1.378 . S
C2835 C2834 1.367 . S
C2835 C2843 1.433 . S
C2836 H2832 0.929 . S
C2836 C2838 1.378 . S
C2836 C2840 1.350 . S
C2837 C2840 1.463 . S
C2837 C2842 1.350 . S
C2837 N2845 1.427 . S
C2838 H2829 0.930 . S
C2838 C2836 1.378 . S
C2838 C2839 1.367 . S
C2839 C2838 1.367 . S
C2839 C2841 1.433 . S
C2840 C2836 1.350 . S
C2840 C2837 1.463 . S
C2840 N2844 1.427 . S
C2841 H2831 0.929 . S
C2841 C2839 1.433 . S
C2841 N2844 1.384 . S
C2842 H2833 0.929 . S
C2842 C2834 1.378 . S
C2842 C2837 1.350 . S
C2843 H2830 0.929 . S
C2843 C2835 1.433 . S
C2843 N2845 1.384 . S
N2844 C2840 1.427 . S
N2844 C2841 1.384 . S
N2845 C2837 1.427 . S
N2845 C2843 1.384 . S
H2846 C2852 0.930 . S
H2847 C2856 0.930 . S
H2848 C2861 0.929 . S
H2849 C2859 0.929 . S
H2850 C2854 0.929 . S
H2851 C2860 0.929 . S
C2852 H2846 0.930 . S
C2852 C2853 1.367 . S
C2852 C2860 1.378 . S
C2853 C2852 1.367 . S
C2853 C2861 1.433 . S
C2854 H2850 0.929 . S
C2854 C2856 1.378 . S
C2854 C2858 1.350 . S
C2855 C2858 1.463 . S
C2855 C2860 1.350 . S
C2855 N2863 1.427 . S
C2856 H2847 0.930 . S
C2856 C2854 1.378 . S
C2856 C2857 1.367 . S
C2857 C2856 1.367 . S
C2857 C2859 1.433 . S
C2858 C2854 1.350 . S
C2858 C2855 1.463 . S
C2858 N2862 1.427 . S
C2859 H2849 0.929 . S
C2859 C2857 1.433 . S
C2859 N2862 1.384 . S
C2860 H2851 0.929 . S
C2860 C2852 1.378 . S
C2860 C2855 1.350 . S
C2861 H2848 0.929 . S
C2861 C2853 1.433 . S
C2861 N2863 1.384 . S
N2862 C2858 1.427 . S
N2862 C2859 1.384 . S
N2863 C2855 1.427 . S
N2863 C2861 1.384 . S
H2864 C2870 0.930 . S
H2865 C2874 0.930 . S
H2866 C2879 0.929 . S
H2867 C2877 0.929 . S
H2868 C2872 0.929 . S
H2869 C2878 0.929 . S
C2870 H2864 0.930 . S
C2870 C2871 1.367 . S
C2870 C2878 1.378 . S
C2871 C2870 1.367 . S
C2871 C2879 1.433 . S
C2872 H2868 0.929 . S
C2872 C2874 1.378 . S
C2872 C2876 1.350 . S
C2873 C2876 1.463 . S
C2873 C2878 1.350 . S
C2873 N2881 1.427 . S
C2874 H2865 0.930 . S
C2874 C2872 1.378 . S
C2874 C2875 1.367 . S
C2875 C2874 1.367 . S
C2875 C2877 1.433 . S
C2876 C2872 1.350 . S
C2876 C2873 1.463 . S
C2876 N2880 1.427 . S
C2877 H2867 0.929 . S
C2877 C2875 1.433 . S
C2877 N2880 1.384 . S
C2878 H2869 0.929 . S
C2878 C2870 1.378 . S
C2878 C2873 1.350 . S
C2879 H2866 0.929 . S
C2879 C2871 1.433 . S
C2879 N2881 1.384 . S
N2880 C2876 1.427 . S
N2880 C2877 1.384 . S
N2881 C2873 1.427 . S
N2881 C2879 1.384 . S
H2882 C2888 0.930 . S
H2883 C2892 0.930 . S
H2884 C2897 0.929 . S
H2885 C2895 0.929 . S
H2886 C2890 0.929 . S
H2887 C2896 0.929 . S
C2888 H2882 0.930 . S
C2888 C2889 1.367 . S
C2888 C2896 1.378 . S
C2889 C2888 1.367 . S
C2889 C2897 1.433 . S
C2890 H2886 0.929 . S
C2890 C2892 1.378 . S
C2890 C2894 1.350 . S
C2891 C2894 1.463 . S
C2891 C2896 1.350 . S
C2891 N2899 1.427 . S
C2892 H2883 0.930 . S
C2892 C2890 1.378 . S
C2892 C2893 1.367 . S
C2893 C2892 1.367 . S
C2893 C2895 1.433 . S
C2894 C2890 1.350 . S
C2894 C2891 1.463 . S
C2894 N2898 1.427 . S
C2895 H2885 0.929 . S
C2895 C2893 1.433 . S
C2895 N2898 1.384 . S
C2896 H2887 0.929 . S
C2896 C2888 1.378 . S
C2896 C2891 1.350 . S
C2897 H2884 0.929 . S
C2897 C2889 1.433 . S
C2897 N2899 1.384 . S
N2898 C2894 1.427 . S
N2898 C2895 1.384 . S
N2899 C2891 1.427 . S
N2899 C2897 1.384 . S
H2900 C2906 0.930 . S
H2901 C2910 0.930 . S
H2902 C2915 0.929 . S
H2903 C2913 0.929 . S
H2904 C2908 0.929 . S
H2905 C2914 0.929 . S
C2906 H2900 0.930 . S
C2906 C2907 1.367 . S
C2906 C2914 1.378 . S
C2907 C2906 1.367 . S
C2907 C2915 1.433 . S
C2908 H2904 0.929 . S
C2908 C2910 1.378 . S
C2908 C2912 1.350 . S
C2909 C2912 1.463 . S
C2909 C2914 1.350 . S
C2909 N2917 1.427 . S
C2910 H2901 0.930 . S
C2910 C2908 1.378 . S
C2910 C2911 1.367 . S
C2911 C2910 1.367 . S
C2911 C2913 1.433 . S
C2912 C2908 1.350 . S
C2912 C2909 1.463 . S
C2912 N2916 1.427 . S
C2913 H2903 0.929 . S
C2913 C2911 1.433 . S
C2913 N2916 1.384 . S
C2914 H2905 0.929 . S
C2914 C2906 1.378 . S
C2914 C2909 1.350 . S
C2915 H2902 0.929 . S
C2915 C2907 1.433 . S
C2915 N2917 1.384 . S
N2916 C2912 1.427 . S
N2916 C2913 1.384 . S
N2917 C2909 1.427 . S
N2917 C2915 1.384 . S
H2918 C2924 0.930 . S
H2919 C2928 0.930 . S
H2920 C2933 0.929 . S
H2921 C2931 0.929 . S
H2922 C2926 0.929 . S
H2923 C2932 0.929 . S
C2924 H2918 0.930 . S
C2924 C2925 1.367 . S
C2924 C2932 1.378 . S
C2925 C2924 1.367 . S
C2925 C2933 1.433 . S
C2926 H2922 0.929 . S
C2926 C2928 1.378 . S
C2926 C2930 1.350 . S
C2927 C2930 1.463 . S
C2927 C2932 1.350 . S
C2927 N2935 1.427 . S
C2928 H2919 0.930 . S
C2928 C2926 1.378 . S
C2928 C2929 1.367 . S
C2929 C2928 1.367 . S
C2929 C2931 1.433 . S
C2930 C2926 1.350 . S
C2930 C2927 1.463 . S
C2930 N2934 1.427 . S
C2931 H2921 0.929 . S
C2931 C2929 1.433 . S
C2931 N2934 1.384 . S
C2932 H2923 0.929 . S
C2932 C2924 1.378 . S
C2932 C2927 1.350 . S
C2933 H2920 0.929 . S
C2933 C2925 1.433 . S
C2933 N2935 1.384 . S
N2934 C2930 1.427 . S
N2934 C2931 1.384 . S
N2935 C2927 1.427 . S
N2935 C2933 1.384 . S
H2936 C2942 0.930 . S
H2937 C2946 0.930 . S
H2938 C2951 0.929 . S
H2939 C2949 0.929 . S
H2940 C2944 0.929 . S
H2941 C2950 0.929 . S
C2942 H2936 0.930 . S
C2942 C2943 1.367 . S
C2942 C2950 1.378 . S
C2943 C2942 1.367 . S
C2943 C2951 1.433 . S
C2944 H2940 0.929 . S
C2944 C2946 1.378 . S
C2944 C2948 1.350 . S
C2945 C2948 1.463 . S
C2945 C2950 1.350 . S
C2945 N2953 1.427 . S
C2946 H2937 0.930 . S
C2946 C2944 1.378 . S
C2946 C2947 1.367 . S
C2947 C2946 1.367 . S
C2947 C2949 1.433 . S
C2948 C2944 1.350 . S
C2948 C2945 1.463 . S
C2948 N2952 1.427 . S
C2949 H2939 0.929 . S
C2949 C2947 1.433 . S
C2949 N2952 1.384 . S
C2950 H2941 0.929 . S
C2950 C2942 1.378 . S
C2950 C2945 1.350 . S
C2951 H2938 0.929 . S
C2951 C2943 1.433 . S
C2951 N2953 1.384 . S
N2952 C2948 1.427 . S
N2952 C2949 1.384 . S
N2953 C2945 1.427 . S
N2953 C2951 1.384 . S
H2954 C2960 0.930 . S
H2955 C2964 0.930 . S
H2956 C2969 0.929 . S
H2957 C2967 0.929 . S
H2958 C2962 0.929 . S
H2959 C2968 0.929 . S
C2960 H2954 0.930 . S
C2960 C2961 1.367 . S
C2960 C2968 1.378 . S
C2961 C2960 1.367 . S
C2961 C2969 1.433 . S
C2962 H2958 0.929 . S
C2962 C2964 1.378 . S
C2962 C2966 1.350 . S
C2963 C2966 1.463 . S
C2963 C2968 1.350 . S
C2963 N2971 1.427 . S
C2964 H2955 0.930 . S
C2964 C2962 1.378 . S
C2964 C2965 1.367 . S
C2965 C2964 1.367 . S
C2965 C2967 1.433 . S
C2966 C2962 1.350 . S
C2966 C2963 1.463 . S
C2966 N2970 1.427 . S
C2967 H2957 0.929 . S
C2967 C2965 1.433 . S
C2967 N2970 1.384 . S
C2968 H2959 0.929 . S
C2968 C2960 1.378 . S
C2968 C2963 1.350 . S
C2969 H2956 0.929 . S
C2969 C2961 1.433 . S
C2969 N2971 1.384 . S
N2970 C2966 1.427 . S
N2970 C2967 1.384 . S
N2971 C2963 1.427 . S
N2971 C2969 1.384 . S
H2972 C2978 0.930 . S
H2973 C2982 0.930 . S
H2974 C2987 0.929 . S
H2975 C2985 0.929 . S
H2976 C2980 0.929 . S
H2977 C2986 0.929 . S
C2978 H2972 0.930 . S
C2978 C2979 1.367 . S
C2978 C2986 1.378 . S
C2979 C2978 1.367 . S
C2979 C2987 1.433 . S
C2980 H2976 0.929 . S
C2980 C2982 1.378 . S
C2980 C2984 1.350 . S
C2981 C2984 1.463 . S
C2981 C2986 1.350 . S
C2981 N2989 1.427 . S
C2982 H2973 0.930 . S
C2982 C2980 1.378 . S
C2982 C2983 1.367 . S
C2983 C2982 1.367 . S
C2983 C2985 1.433 . S
C2984 C2980 1.350 . S
C2984 C2981 1.463 . S
C2984 N2988 1.427 . S
C2985 H2975 0.929 . S
C2985 C2983 1.433 . S
C2985 N2988 1.384 . S
C2986 H2977 0.929 . S
C2986 C2978 1.378 . S
C2986 C2981 1.350 . S
C2987 H2974 0.929 . S
C2987 C2979 1.433 . S
C2987 N2989 1.384 . S
N2988 C2984 1.427 . S
N2988 C2985 1.384 . S
N2989 C2981 1.427 . S
N2989 C2987 1.384 . S
H2990 C2996 0.930 . S
H2991 C3000 0.930 . S
H2992 C3005 0.929 . S
H2993 C3003 0.929 . S
H2994 C2998 0.929 . S
H2995 C3004 0.929 . S
C2996 H2990 0.930 . S
C2996 C2997 1.367 . S
C2996 C3004 1.378 . S
C2997 C2996 1.367 . S
C2997 C3005 1.433 . S
C2998 H2994 0.929 . S
C2998 C3000 1.378 . S
C2998 C3002 1.350 . S
C2999 C3002 1.463 . S
C2999 C3004 1.350 . S
C2999 N3007 1.427 . S
C3000 H2991 0.930 . S
C3000 C2998 1.378 . S
C3000 C3001 1.367 . S
C3001 C3000 1.367 . S
C3001 C3003 1.433 . S
C3002 C2998 1.350 . S
C3002 C2999 1.463 . S
C3002 N3006 1.427 . S
C3003 H2993 0.929 . S
C3003 C3001 1.433 . S
C3003 N3006 1.384 . S
C3004 H2995 0.929 . S
C3004 C2996 1.378 . S
C3004 C2999 1.350 . S
C3005 H2992 0.929 . S
C3005 C2997 1.433 . S
C3005 N3007 1.384 . S
N3006 C3002 1.427 . S
N3006 C3003 1.384 . S
N3007 C2999 1.427 . S
N3007 C3005 1.384 . S
C1287 C7 1.072 . S
C1291 C131 1.029 . S
C1305 C11 1.021 . S
C1309 C47 1.073 1_545 S
C1323 C87 1.073 . S
C1327 C51 1.022 . S
C1341 C91 1.038 . S
C1345 C127 1.071 1_565 S
C1359 C211 1.033 . S
C1363 C167 1.072 . S
C1377 C207 1.070 1_545 S
C1381 C251 1.041 . S
C1395 C291 1.043 . S
C1399 C247 1.070 . S
C1413 C171 1.042 . S
C1417 C287 1.070 1_565 S
C1431 C336 1.073 . S
C1435 C442 1.027 . S
C1449 C376 1.074 1_565 S
C1453 C322 1.020 . S
C1467 C416 1.070 . S
C1471 C362 1.043 . S
C1485 C456 1.070 1_545 S
C1489 C402 1.043 . S
C1503 C496 1.071 . S
C1507 C522 1.037 . S
C1521 C536 1.070 1_565 S
C1525 C562 1.042 . S
C1539 C602 1.027 . S
C1543 C576 1.073 . S
C1557 C482 1.042 . S
C1561 C616 1.070 1_545 S
C1575 C647 1.070 . S
C1579 C771 1.043 . S
C1593 C651 1.043 . S
C1597 C687 1.070 . S
C1611 C691 1.042 . S
C1615 C727 1.070 . S
C1629 C767 1.070 . S
C1633 C731 1.042 . S
C1647 C807 1.070 . S
C1651 C851 1.043 . S
C1665 C891 1.022 . S
C1669 C847 1.073 . S
C1683 C887 1.073 . S
C1687 C931 1.022 . S
C1701 C811 1.020 . S
C1705 C927 1.074 . S
C1719 C1082 1.025 . S
C1723 C976 1.073 . S
C1737 C962 1.022 . S
C1741 C1016 1.073 . S
C1755 C1056 1.072 . S
C1759 C1002 1.033 . S
C1773 C1042 1.040 . S
C1777 C1096 1.070 . S
C1791 C1162 1.026 . S
C1795 C1136 1.073 . S
C1809 C1202 1.039 . S
C1813 C1176 1.070 . S
C1827 C1242 1.043 . S
C1831 C1216 1.070 . S
C1845 C1256 1.072 . S
C1849 C1122 1.028 . S
C1863 C1087 1.592 . S
C1867 C10 1.547 . S
C1881 C50 1.543 . S
C1885 C327 1.589 . S
C1899 C90 1.551 . S
C1903 C1007 1.589 . S
C1917 C130 1.551 . S
C1921 C407 1.593 . S
C1935 C170 1.549 . S
C1939 C1167 1.587 . S
C1953 C567 1.585 . S
C1957 C210 1.543 . S
C1971 C1247 1.591 . S
C1975 C250 1.546 . S
C1989 C290 1.546 . S
C1993 C487 1.614 . S
C2007 C339 1.541 . S
C2011 C776 1.584 . S
C2025 C16 1.591 . S
C2029 C379 1.541 . S
C2043 C696 1.585 . S
C2047 C419 1.543 . S
C2061 C96 1.589 . S
C2065 C459 1.552 . S
C2079 C856 1.591 . S
C2083 C499 1.553 . S
C2097 C256 1.592 . S
C2101 C539 1.553 . S
C2115 C579 1.539 . S
C2119 C936 1.586 . S
C2133 C619 1.544 . S
C2137 C176 1.614 . S
C2151 C650 1.543 . S
C2155 C447 1.590 . S
C2169 C690 1.538 . S
C2173 C967 1.586 . S
C2187 C730 1.543 . S
C2191 C367 1.590 . S
C2205 C770 1.543 . S
C2209 C1047 1.589 . S
C2223 C810 1.542 . S
C2227 C527 1.589 . S
C2241 C850 1.547 . S
C2245 C1207 1.586 . S
C2259 C607 1.588 . S
C2263 C890 1.550 . S
C2277 C930 1.540 . S
C2281 C1127 1.587 . S
C2295 C136 1.590 . S
C2299 C979 1.552 . S
C2313 C656 1.591 . S
C2317 C1019 1.553 . S
C2331 C56 1.585 . S
C2335 C1059 1.538 . S
C2349 C736 1.602 . S
C2353 C1099 1.553 . S
C2367 C216 1.588 . S
C2371 C1139 1.550 . S
C2385 C1179 1.539 . S
C2389 C896 1.607 . S
C2403 C1219 1.546 . S
C2407 C296 1.586 . S
C2421 C816 1.592 . S
C2425 C1259 1.548 . S
C2439 C19 0.642 . S
C2443 C179 0.649 . S
C2457 C59 0.671 . S
C2461 C219 0.649 . S
C2475 C99 0.641 . S
C2479 C259 0.661 . S
C2493 C299 0.655 . S
C2497 C139 0.640 . S
C2511 C490 0.657 . S
C2515 C330 0.640 . S
C2529 C530 0.674 . S
C2533 C370 0.656 . S
C2547 C410 0.650 . S
C2551 C570 0.641 . S
C2565 C450 0.660 . S
C2569 C610 0.641 . S
C2583 C659 0.672 . S
C2587 C819 0.667 . S
C2601 C859 0.655 . S
C2605 C699 0.673 . S
C2619 C899 0.649 . S
C2623 C739 0.671 . S
C2637 C939 0.663 . S
C2641 C779 0.642 . S
C2655 C1130 0.656 . S
C2659 C970 0.640 . S
C2673 C1010 0.640 . S
C2677 C1170 0.654 . S
C2691 C1210 0.655 . S
C2695 C1050 0.640 . S
C2709 C1090 0.669 . S
C2713 C1250 0.646 . S
C2727 C282 2.758 . S
C2731 C2 2.757 . S
C2745 C42 2.758 . S
C2749 C162 2.757 . S
C2763 C82 2.756 . S
C2767 C202 2.756 . S
C2781 C242 2.757 . S
C2785 C122 2.756 . S
C2799 C331 2.757 . S
C2803 C611 2.758 . S
C2817 C491 2.757 . S
C2821 C371 2.758 . S
C2835 C531 2.756 . S
C2839 C411 2.756 . S
C2853 C451 2.756 . S
C2857 C571 2.756 . S
C2871 C642 2.758 . S
C2875 C922 2.758 . S
C2889 C802 2.757 . S
C2893 C682 2.756 . S
C2907 C842 2.758 . S
C2911 C722 2.757 . S
C2925 C882 2.756 . S
C2929 C762 2.756 . S
C2943 C971 2.757 . S
C2947 C1251 2.758 . S
C2961 C1131 2.757 . S
C2965 C1011 2.758 . S
C2979 C1051 2.757 . S
C2983 C1171 2.758 . S
C2997 C1211 2.757 . S
C3001 C1091 2.758 . S
