# Generated by pormake.
# Topology upd, (4)-cn, num edge types: 1
# Building blocks:
#     Node 0, Type 0, BuildingBlock: MUDLON_clean_sbu_0, # of connection points: 4
#     Node 1, Type 0, BuildingBlock: MUDLON_clean_sbu_0, # of connection points: 4
#     Node 2, Type 0, BuildingBlock: MUDLON_clean_sbu_0, # of connection points: 4
#     Node 3, Type 0, BuildingBlock: MUDLON_clean_sbu_0, # of connection points: 4
#     Node 4, Type 0, BuildingBlock: MUDLON_clean_sbu_0, # of connection points: 4
#     Node 5, Type 0, BuildingBlock: MUDLON_clean_sbu_0, # of connection points: 4
#     Node 6, Type 0, BuildingBlock: MUDLON_clean_sbu_0, # of connection points: 4
#     Node 7, Type 0, BuildingBlock: MUDLON_clean_sbu_0, # of connection points: 4
#     Node 8, Type 0, BuildingBlock: MUDLON_clean_sbu_0, # of connection points: 4
#     Node 9, Type 0, BuildingBlock: MUDLON_clean_sbu_0, # of connection points: 4
#     Node 10, Type 0, BuildingBlock: MUDLON_clean_sbu_0, # of connection points: 4
#     Node 11, Type 0, BuildingBlock: MUDLON_clean_sbu_0, # of connection points: 4
#     Node 12, Type 0, BuildingBlock: MUDLON_clean_sbu_0, # of connection points: 4
#     Node 13, Type 0, BuildingBlock: MUDLON_clean_sbu_0, # of connection points: 4
#     Node 14, Type 0, BuildingBlock: MUDLON_clean_sbu_0, # of connection points: 4
#     Node 15, Type 0, BuildingBlock: MUDLON_clean_sbu_0, # of connection points: 4
#     Node 16, Type 0, BuildingBlock: MUDLON_clean_sbu_0, # of connection points: 4
#     Node 17, Type 0, BuildingBlock: MUDLON_clean_sbu_0, # of connection points: 4
#     Node 18, Type 0, BuildingBlock: MUDLON_clean_sbu_0, # of connection points: 4
#     Node 19, Type 0, BuildingBlock: MUDLON_clean_sbu_0, # of connection points: 4
#     Node 20, Type 0, BuildingBlock: MUDLON_clean_sbu_0, # of connection points: 4
#     Node 21, Type 0, BuildingBlock: MUDLON_clean_sbu_0, # of connection points: 4
#     Node 22, Type 0, BuildingBlock: MUDLON_clean_sbu_0, # of connection points: 4
#     Node 23, Type 0, BuildingBlock: MUDLON_clean_sbu_0, # of connection points: 4
#     Node 24, Type 0, BuildingBlock: MUDLON_clean_sbu_0, # of connection points: 4
#     Node 25, Type 0, BuildingBlock: MUDLON_clean_sbu_0, # of connection points: 4
#     Node 26, Type 0, BuildingBlock: MUDLON_clean_sbu_0, # of connection points: 4
#     Node 27, Type 0, BuildingBlock: MUDLON_clean_sbu_0, # of connection points: 4
#     Node 28, Type 0, BuildingBlock: MUDLON_clean_sbu_0, # of connection points: 4
#     Node 29, Type 0, BuildingBlock: MUDLON_clean_sbu_0, # of connection points: 4
#     Node 30, Type 0, BuildingBlock: MUDLON_clean_sbu_0, # of connection points: 4
#     Node 31, Type 0, BuildingBlock: MUDLON_clean_sbu_0, # of connection points: 4
#     Edge 32, Type (0, 0), BuildingBlock: KIFKEQ_clean_linker_1, # of connection points: 2
#     Edge 33, Type (0, 0), BuildingBlock: KIFKEQ_clean_linker_1, # of connection points: 2
#     Edge 34, Type (0, 0), BuildingBlock: KIFKEQ_clean_linker_1, # of connection points: 2
#     Edge 35, Type (0, 0), BuildingBlock: KIFKEQ_clean_linker_1, # of connection points: 2
#     Edge 36, Type (0, 0), BuildingBlock: KIFKEQ_clean_linker_1, # of connection points: 2
#     Edge 37, Type (0, 0), BuildingBlock: KIFKEQ_clean_linker_1, # of connection points: 2
#     Edge 38, Type (0, 0), BuildingBlock: KIFKEQ_clean_linker_1, # of connection points: 2
#     Edge 39, Type (0, 0), BuildingBlock: KIFKEQ_clean_linker_1, # of connection points: 2
#     Edge 40, Type (0, 0), BuildingBlock: KIFKEQ_clean_linker_1, # of connection points: 2
#     Edge 41, Type (0, 0), BuildingBlock: KIFKEQ_clean_linker_1, # of connection points: 2
#     Edge 42, Type (0, 0), BuildingBlock: KIFKEQ_clean_linker_1, # of connection points: 2
#     Edge 43, Type (0, 0), BuildingBlock: KIFKEQ_clean_linker_1, # of connection points: 2
#     Edge 44, Type (0, 0), BuildingBlock: KIFKEQ_clean_linker_1, # of connection points: 2
#     Edge 45, Type (0, 0), BuildingBlock: KIFKEQ_clean_linker_1, # of connection points: 2
#     Edge 46, Type (0, 0), BuildingBlock: KIFKEQ_clean_linker_1, # of connection points: 2
#     Edge 47, Type (0, 0), BuildingBlock: KIFKEQ_clean_linker_1, # of connection points: 2
#     Edge 48, Type (0, 0), BuildingBlock: KIFKEQ_clean_linker_1, # of connection points: 2
#     Edge 49, Type (0, 0), BuildingBlock: KIFKEQ_clean_linker_1, # of connection points: 2
#     Edge 50, Type (0, 0), BuildingBlock: KIFKEQ_clean_linker_1, # of connection points: 2
#     Edge 51, Type (0, 0), BuildingBlock: KIFKEQ_clean_linker_1, # of connection points: 2
#     Edge 52, Type (0, 0), BuildingBlock: KIFKEQ_clean_linker_1, # of connection points: 2
#     Edge 53, Type (0, 0), BuildingBlock: KIFKEQ_clean_linker_1, # of connection points: 2
#     Edge 54, Type (0, 0), BuildingBlock: KIFKEQ_clean_linker_1, # of connection points: 2
#     Edge 55, Type (0, 0), BuildingBlock: KIFKEQ_clean_linker_1, # of connection points: 2
#     Edge 56, Type (0, 0), BuildingBlock: KIFKEQ_clean_linker_1, # of connection points: 2
#     Edge 57, Type (0, 0), BuildingBlock: KIFKEQ_clean_linker_1, # of connection points: 2
#     Edge 58, Type (0, 0), BuildingBlock: KIFKEQ_clean_linker_1, # of connection points: 2
#     Edge 59, Type (0, 0), BuildingBlock: KIFKEQ_clean_linker_1, # of connection points: 2
#     Edge 60, Type (0, 0), BuildingBlock: KIFKEQ_clean_linker_1, # of connection points: 2
#     Edge 61, Type (0, 0), BuildingBlock: KIFKEQ_clean_linker_1, # of connection points: 2
#     Edge 62, Type (0, 0), BuildingBlock: KIFKEQ_clean_linker_1, # of connection points: 2
#     Edge 63, Type (0, 0), BuildingBlock: KIFKEQ_clean_linker_1, # of connection points: 2
#     Edge 64, Type (0, 0), BuildingBlock: KIFKEQ_clean_linker_1, # of connection points: 2
#     Edge 65, Type (0, 0), BuildingBlock: KIFKEQ_clean_linker_1, # of connection points: 2
#     Edge 66, Type (0, 0), BuildingBlock: KIFKEQ_clean_linker_1, # of connection points: 2
#     Edge 67, Type (0, 0), BuildingBlock: KIFKEQ_clean_linker_1, # of connection points: 2
#     Edge 68, Type (0, 0), BuildingBlock: KIFKEQ_clean_linker_1, # of connection points: 2
#     Edge 69, Type (0, 0), BuildingBlock: KIFKEQ_clean_linker_1, # of connection points: 2
#     Edge 70, Type (0, 0), BuildingBlock: KIFKEQ_clean_linker_1, # of connection points: 2
#     Edge 71, Type (0, 0), BuildingBlock: KIFKEQ_clean_linker_1, # of connection points: 2
#     Edge 72, Type (0, 0), BuildingBlock: KIFKEQ_clean_linker_1, # of connection points: 2
#     Edge 73, Type (0, 0), BuildingBlock: KIFKEQ_clean_linker_1, # of connection points: 2
#     Edge 74, Type (0, 0), BuildingBlock: KIFKEQ_clean_linker_1, # of connection points: 2
#     Edge 75, Type (0, 0), BuildingBlock: KIFKEQ_clean_linker_1, # of connection points: 2
#     Edge 76, Type (0, 0), BuildingBlock: KIFKEQ_clean_linker_1, # of connection points: 2
#     Edge 77, Type (0, 0), BuildingBlock: KIFKEQ_clean_linker_1, # of connection points: 2
#     Edge 78, Type (0, 0), BuildingBlock: KIFKEQ_clean_linker_1, # of connection points: 2
#     Edge 79, Type (0, 0), BuildingBlock: KIFKEQ_clean_linker_1, # of connection points: 2
#     Edge 80, Type (0, 0), BuildingBlock: KIFKEQ_clean_linker_1, # of connection points: 2
#     Edge 81, Type (0, 0), BuildingBlock: KIFKEQ_clean_linker_1, # of connection points: 2
#     Edge 82, Type (0, 0), BuildingBlock: KIFKEQ_clean_linker_1, # of connection points: 2
#     Edge 83, Type (0, 0), BuildingBlock: KIFKEQ_clean_linker_1, # of connection points: 2
#     Edge 84, Type (0, 0), BuildingBlock: KIFKEQ_clean_linker_1, # of connection points: 2
#     Edge 85, Type (0, 0), BuildingBlock: KIFKEQ_clean_linker_1, # of connection points: 2
#     Edge 86, Type (0, 0), BuildingBlock: KIFKEQ_clean_linker_1, # of connection points: 2
#     Edge 87, Type (0, 0), BuildingBlock: KIFKEQ_clean_linker_1, # of connection points: 2
#     Edge 88, Type (0, 0), BuildingBlock: KIFKEQ_clean_linker_1, # of connection points: 2
#     Edge 89, Type (0, 0), BuildingBlock: KIFKEQ_clean_linker_1, # of connection points: 2
#     Edge 90, Type (0, 0), BuildingBlock: KIFKEQ_clean_linker_1, # of connection points: 2
#     Edge 91, Type (0, 0), BuildingBlock: KIFKEQ_clean_linker_1, # of connection points: 2
#     Edge 92, Type (0, 0), BuildingBlock: KIFKEQ_clean_linker_1, # of connection points: 2
#     Edge 93, Type (0, 0), BuildingBlock: KIFKEQ_clean_linker_1, # of connection points: 2
#     Edge 94, Type (0, 0), BuildingBlock: KIFKEQ_clean_linker_1, # of connection points: 2
#     Edge 95, Type (0, 0), BuildingBlock: KIFKEQ_clean_linker_1, # of connection points: 2
# Relax obj value: 0.065
# Max RMSD: 0.095
# Mean RMSD: 0.095
data_MOF--net-upd--node1-MUDLON_clean_sbu_0--edge1-KIFKEQ_clean_linker_1
_symmetry_space_group_name_H-M    P1
_symmetry_Int_Tables_number       1
_symmetry_cell_setting            triclinic
loop_
_symmetry_equiv_pos_as_xyz
'x, y, z'
_cell_length_a     45.855
_cell_length_b     45.918125
_cell_length_c     68.81407
_cell_angle_alpha  89.981757
_cell_angle_beta   90.084516
_cell_angle_gamma 89.950912
loop_
_atom_site_label
_atom_site_type_symbol
_atom_site_fract_x
_atom_site_fract_y
_atom_site_fract_z
_atom_type_partial_charge
Mg0 Mg 0.15369 0.16128 0.32124 0.0
C1 C 0.08315 0.1641 0.32372 0.0
O2 O 0.0814 0.18805 0.31333 0.0
C3 C 0.18021 0.18843 0.28518 0.0
O4 O 0.18326 0.16082 0.28065 0.0
C5 C 0.15159 0.10694 0.29949 0.0
O6 O 0.1271 0.12055 0.29549 0.0
O7 O 0.16983 0.11922 0.31082 0.0
O8 O 0.10785 0.15261 0.32712 0.0
O9 O 0.16949 0.1774 0.34919 0.0
C10 C 0.1543 0.1734 0.36446 0.0
O11 O 0.13247 0.15494 0.36379 0.0
O12 O 0.16628 0.19515 0.30054 0.0
Mg13 Mg 0.11017 0.89261 0.5675 0.0
C14 C 0.13968 0.83511 0.57155 0.0
O15 O 0.16156 0.85334 0.5734 0.0
C16 C 0.07618 0.94051 0.55073 0.0
O17 O 0.09321 0.95276 0.56375 0.0
C18 C 0.15716 0.90713 0.54072 0.0
O19 O 0.13669 0.89522 0.52996 0.0
O20 O 0.15227 0.91045 0.5588 0.0
O21 O 0.11476 0.84519 0.56683 0.0
O22 O 0.09465 0.89951 0.59717 0.0
C23 C 0.07392 0.88184 0.60078 0.0
O24 O 0.06542 0.86418 0.58686 0.0
O25 O 0.0778 0.91301 0.54847 0.0
Mg26 Mg 0.37353 0.86261 0.82141 0.0
C27 C 0.43608 0.84912 0.83202 0.0
O28 O 0.42329 0.82721 0.84084 0.0
C29 C 0.32472 0.83226 0.80188 0.0
O30 O 0.3118 0.8534 0.81145 0.0
C31 C 0.37161 0.91076 0.7944 0.0
O32 O 0.38853 0.89088 0.78654 0.0
O33 O 0.35988 0.90518 0.81074 0.0
O34 O 0.42098 0.86511 0.82073 0.0
O35 O 0.36609 0.85257 0.85203 0.0
C36 C 0.35285 0.82939 0.85697 0.0
O37 O 0.33897 0.8144 0.84362 0.0
O38 O 0.35238 0.83007 0.80298 0.0
Mg39 Mg 0.41272 0.1317 0.07097 0.0
C40 C 0.3872 0.19171 0.07286 0.0
O41 O 0.36353 0.17568 0.07209 0.0
C42 C 0.44026 0.08501 0.04706 0.0
O43 O 0.41544 0.07306 0.05224 0.0
C44 C 0.36488 0.1217 0.04312 0.0
O45 O 0.38543 0.13409 0.0327 0.0
O46 O 0.36993 0.11675 0.06103 0.0
O47 O 0.41189 0.17931 0.07092 0.0
O48 O 0.42465 0.12327 0.10119 0.0
C49 C 0.44517 0.10573 0.1055 0.0
O50 O 0.45589 0.08888 0.09185 0.0
O51 O 0.44561 0.11101 0.05248 0.0
Mg52 Mg 0.15665 0.86588 0.2057 0.0
C53 C 0.09506 0.88837 0.20382 0.0
O54 O 0.10952 0.91278 0.20619 0.0
C55 C 0.18617 0.80995 0.21934 0.0
O56 O 0.17986 0.8018 0.20153 0.0
C57 C 0.16398 0.91137 0.23465 0.0
O58 O 0.1529 0.88891 0.2439 0.0
O59 O 0.16943 0.90868 0.2166 0.0
O60 O 0.10897 0.86437 0.20466 0.0
O61 O 0.16968 0.85351 0.17635 0.0
C62 C 0.15184 0.85674 0.1623 0.0
O63 O 0.12826 0.87245 0.16506 0.0
O64 O 0.17751 0.83473 0.22527 0.0
Mg65 Mg 0.4074 0.90681 0.4561 0.0
C66 C 0.38614 0.84536 0.45446 0.0
O67 O 0.36157 0.86004 0.45478 0.0
C68 C 0.46206 0.93366 0.47754 0.0
O69 O 0.47822 0.91611 0.46699 0.0
C70 C 0.35822 0.91589 0.48237 0.0
O71 O 0.37989 0.90741 0.49354 0.0
O72 O 0.36292 0.91869 0.46422 0.0
O73 O 0.40998 0.85916 0.45691 0.0
O74 O 0.42056 0.91478 0.42608 0.0
C75 C 0.4396 0.93363 0.4214 0.0
O76 O 0.44825 0.95257 0.43449 0.0
O77 O 0.43443 0.93255 0.476 0.0
Mg78 Mg 0.36808 0.15933 0.70616 0.0
C79 C 0.43025 0.17481 0.69562 0.0
O80 O 0.4168 0.19585 0.68627 0.0
C81 C 0.32553 0.18382 0.73536 0.0
O82 O 0.32094 0.15577 0.73747 0.0
C83 C 0.37138 0.10861 0.73152 0.0
O84 O 0.39023 0.12734 0.73863 0.0
O85 O 0.35661 0.1159 0.7166 0.0
O86 O 0.41563 0.15891 0.70719 0.0
O87 O 0.36125 0.16823 0.67538 0.0
C88 C 0.34819 0.19139 0.67014 0.0
O89 O 0.33368 0.20634 0.68322 0.0
O90 O 0.34524 0.19224 0.72361 0.0
Mg91 Mg 0.11667 0.1259 0.95607 0.0
C92 C 0.14127 0.18642 0.95533 0.0
O93 O 0.16521 0.17082 0.95667 0.0
C94 C 0.08109 0.07756 0.97134 0.0
O95 O 0.09548 0.06581 0.95682 0.0
C96 C 0.16413 0.11327 0.98362 0.0
O97 O 0.14245 0.12209 0.99462 0.0
O98 O 0.15984 0.11123 0.96537 0.0
O99 O 0.11676 0.17351 0.95662 0.0
O100 O 0.10264 0.11535 0.92649 0.0
C101 C 0.10466 0.13419 0.91295 0.0
O102 O 0.11953 0.15813 0.91618 0.0
O103 O 0.08516 0.10443 0.97506 0.0
Mg104 Mg 0.86349 0.86518 0.7059 0.0
C105 C 0.92415 0.88526 0.70334 0.0
O106 O 0.90878 0.90924 0.70138 0.0
C107 C 0.81192 0.84106 0.72666 0.0
O108 O 0.80332 0.86742 0.7219 0.0
C109 C 0.85709 0.91269 0.73428 0.0
O110 O 0.86761 0.89091 0.74453 0.0
O111 O 0.85183 0.90856 0.71632 0.0
O112 O 0.91085 0.86195 0.70806 0.0
O113 O 0.86019 0.85714 0.67482 0.0
C114 C 0.84347 0.83814 0.66731 0.0
O115 O 0.82262 0.8267 0.67791 0.0
O116 O 0.83754 0.83302 0.72188 0.0
Mg117 Mg 0.90903 0.12039 0.45533 0.0
C118 C 0.93398 0.09619 0.41753 0.0
O119 O 0.94606 0.07706 0.42924 0.0
C120 C 0.85969 0.12465 0.48208 0.0
O121 O 0.87874 0.1436 0.48867 0.0
C122 C 0.93612 0.06986 0.47584 0.0
O123 O 0.91082 0.05928 0.4703 0.0
O124 O 0.94209 0.09625 0.47174 0.0
O125 O 0.91513 0.11375 0.42431 0.0
O126 O 0.91168 0.16776 0.45619 0.0
C127 C 0.93037 0.18063 0.44558 0.0
O128 O 0.95107 0.16508 0.43743 0.0
O129 O 0.86619 0.10985 0.46706 0.0
Mg130 Mg 0.66079 0.162 0.20522 0.0
C131 C 0.59927 0.13886 0.20426 0.0
O132 O 0.61362 0.11523 0.20919 0.0
C133 C 0.7095 0.18668 0.22739 0.0
O134 O 0.72018 0.16331 0.21897 0.0
C135 C 0.67053 0.11509 0.2336 0.0
O136 O 0.66065 0.137 0.24397 0.0
O137 O 0.67391 0.11877 0.21539 0.0
O138 O 0.61302 0.16295 0.20359 0.0
O139 O 0.6738 0.17492 0.17596 0.0
C140 C 0.65648 0.17103 0.16171 0.0
O141 O 0.63331 0.15467 0.16425 0.0
O142 O 0.68274 0.19294 0.22455 0.0
Mg143 Mg 0.61798 0.90923 0.95803 0.0
C144 C 0.5828 0.92665 0.92246 0.0
O145 O 0.56743 0.94026 0.93574 0.0
C146 C 0.66539 0.92034 0.98576 0.0
O147 O 0.64411 0.90991 0.99647 0.0
C148 C 0.58804 0.95905 0.97679 0.0
O149 O 0.6094 0.97143 0.96712 0.0
O150 O 0.58559 0.93142 0.97606 0.0
O151 O 0.60686 0.9149 0.92737 0.0
O152 O 0.61876 0.86177 0.95909 0.0
C153 C 0.64254 0.85064 0.95306 0.0
O154 O 0.66476 0.86805 0.94992 0.0
O155 O 0.66089 0.92387 0.96765 0.0
Mg156 Mg 0.87406 0.16039 0.82246 0.0
C157 C 0.93524 0.13889 0.8228 0.0
O158 O 0.92028 0.11453 0.82334 0.0
C159 C 0.82185 0.18467 0.80267 0.0
O160 O 0.81262 0.15964 0.80958 0.0
C161 C 0.86371 0.11257 0.79484 0.0
O162 O 0.8731 0.1341 0.78393 0.0
O163 O 0.86092 0.11693 0.81301 0.0
O164 O 0.92153 0.1627 0.82004 0.0
O165 O 0.87078 0.17015 0.8533 0.0
C166 C 0.85258 0.18759 0.86094 0.0
O167 O 0.83024 0.19676 0.85065 0.0
O168 O 0.84827 0.19196 0.80577 0.0
Mg169 Mg 0.61317 0.12511 0.57206 0.0
C170 C 0.58568 0.10023 0.60996 0.0
O171 O 0.57673 0.0784 0.59916 0.0
C172 C 0.6619 0.12364 0.54527 0.0
O173 O 0.64146 0.13915 0.53673 0.0
C174 C 0.55649 0.09581 0.55567 0.0
O175 O 0.54312 0.10776 0.57054 0.0
O176 O 0.5834 0.10112 0.5529 0.0
O177 O 0.60314 0.11879 0.60274 0.0
O178 O 0.61223 0.17283 0.57162 0.0
C179 C 0.63621 0.18444 0.57694 0.0
O180 O 0.65893 0.1675 0.57967 0.0
O181 O 0.65659 0.11291 0.56196 0.0
Mg182 Mg 0.65701 0.87126 0.32573 0.0
C183 C 0.59675 0.89696 0.32559 0.0
O184 O 0.61262 0.92024 0.32236 0.0
C185 C 0.70664 0.8444 0.30515 0.0
O186 O 0.71739 0.86824 0.31291 0.0
C187 C 0.66915 0.91741 0.29729 0.0
O188 O 0.65912 0.89561 0.28688 0.0
O189 O 0.6719 0.91387 0.31557 0.0
O190 O 0.60922 0.87213 0.32546 0.0
O191 O 0.66416 0.86002 0.35626 0.0
C192 C 0.68099 0.83922 0.36114 0.0
O193 O 0.69846 0.82804 0.34801 0.0
O194 O 0.67966 0.83888 0.30772 0.0
Mg195 Mg 0.91445 0.90469 0.07149 0.0
C196 C 0.92366 0.9 0.11532 0.0
O197 O 0.90455 0.87887 0.11349 0.0
C198 C 0.86644 0.91631 0.04458 0.0
O199 O 0.88705 0.90468 0.03383 0.0
C200 C 0.94325 0.95203 0.05023 0.0
O201 O 0.92217 0.96487 0.05991 0.0
O202 O 0.94601 0.92451 0.05176 0.0
O203 O 0.92923 0.91599 0.10067 0.0
O204 O 0.91046 0.85737 0.07144 0.0
C205 C 0.9284 0.84095 0.08035 0.0
O206 O 0.95291 0.85221 0.08679 0.0
O207 O 0.87158 0.92039 0.06257 0.0
Mg208 Mg 0.65171 0.65744 0.82177 0.0
C209 C 0.58175 0.65433 0.82053 0.0
O210 O 0.5804 0.67953 0.81153 0.0
C211 C 0.6814 0.71141 0.80701 0.0
O212 O 0.68709 0.71283 0.82568 0.0
C213 C 0.67028 0.61269 0.79455 0.0
O214 O 0.65669 0.63242 0.78405 0.0
O215 O 0.67368 0.61756 0.81264 0.0
O216 O 0.60646 0.64301 0.82427 0.0
O217 O 0.65963 0.67458 0.85106 0.0
C218 C 0.63997 0.69302 0.85556 0.0
O219 O 0.61966 0.69884 0.84266 0.0
O220 O 0.66497 0.69105 0.80078 0.0
Mg221 Mg 0.61278 0.39728 0.06833 0.0
C222 C 0.64228 0.33924 0.07152 0.0
O223 O 0.66472 0.35694 0.07243 0.0
C224 C 0.57707 0.44415 0.05187 0.0
O225 O 0.59256 0.45667 0.0656 0.0
C226 C 0.65975 0.41389 0.04187 0.0
O227 O 0.63921 0.40306 0.03068 0.0
O228 O 0.65492 0.41561 0.06006 0.0
O229 O 0.61722 0.34987 0.06778 0.0
O230 O 0.59607 0.40442 0.09768 0.0
C231 C 0.57438 0.38761 0.10052 0.0
O232 O 0.56605 0.37062 0.08618 0.0
O233 O 0.58048 0.41695 0.049 0.0
Mg234 Mg 0.87972 0.3646 0.32041 0.0
C235 C 0.94022 0.3902 0.32012 0.0
O236 O 0.92446 0.41396 0.31844 0.0
C237 C 0.84919 0.30937 0.30664 0.0
O238 O 0.8559 0.301 0.32435 0.0
C239 C 0.86489 0.41253 0.294 0.0
O240 O 0.87372 0.39137 0.28257 0.0
O241 O 0.86391 0.4078 0.31223 0.0
O242 O 0.92743 0.36559 0.31926 0.0
O243 O 0.87139 0.34928 0.34999 0.0
C244 C 0.89045 0.35393 0.36311 0.0
O245 O 0.91156 0.37246 0.35949 0.0
O246 O 0.85797 0.33411 0.30071 0.0
Mg247 Mg 0.90902 0.61765 0.5731 0.0
C248 C 0.91679 0.68549 0.57751 0.0
O249 O 0.94504 0.68096 0.57847 0.0
C250 C 0.94093 0.57348 0.55133 0.0
O251 O 0.91978 0.55953 0.56022 0.0
C252 C 0.86582 0.60716 0.54367 0.0
O253 O 0.88757 0.62109 0.53543 0.0
O254 O 0.86826 0.60032 0.56155 0.0
O255 O 0.89982 0.66426 0.57393 0.0
O256 O 0.92277 0.60568 0.6025 0.0
C257 C 0.92076 0.6243 0.61615 0.0
O258 O 0.90566 0.64819 0.61317 0.0
O259 O 0.94291 0.60093 0.55374 0.0
Mg260 Mg 0.65632 0.36573 0.70868 0.0
C261 C 0.5924 0.35341 0.69959 0.0
O262 O 0.60329 0.32839 0.69381 0.0
C263 C 0.68262 0.30925 0.72403 0.0
O264 O 0.67675 0.30086 0.7062 0.0
C265 C 0.66998 0.41318 0.73544 0.0
O266 O 0.65824 0.39274 0.74627 0.0
O267 O 0.67336 0.40814 0.71737 0.0
O268 O 0.60906 0.37138 0.70824 0.0
O269 O 0.66728 0.34987 0.67963 0.0
C270 C 0.65144 0.35552 0.66487 0.0
O271 O 0.63095 0.3754 0.66639 0.0
O272 O 0.67461 0.33452 0.72947 0.0
Mg273 Mg 0.9073 0.40977 0.9561 0.0
C274 C 0.91785 0.34418 0.95029 0.0
O275 O 0.94453 0.35218 0.9459 0.0
C276 C 0.93754 0.45637 0.97751 0.0
O277 O 0.91687 0.46987 0.96778 0.0
C278 C 0.86015 0.42193 0.98317 0.0
O279 O 0.88091 0.4097 0.99355 0.0
O280 O 0.86496 0.42665 0.96521 0.0
O281 O 0.90005 0.36301 0.95681 0.0
O282 O 0.92092 0.417 0.92595 0.0
C283 C 0.94472 0.43012 0.92226 0.0
O284 O 0.95908 0.44241 0.93659 0.0
O285 O 0.93954 0.42879 0.97588 0.0
Mg286 Mg 0.8684 0.66195 0.20805 0.0
C287 C 0.93084 0.67833 0.20061 0.0
O288 O 0.91776 0.70003 0.1917 0.0
C289 C 0.84908 0.7067 0.23988 0.0
O290 O 0.87437 0.7012 0.2481 0.0
C291 C 0.86149 0.61364 0.23547 0.0
O292 O 0.8741 0.63438 0.2456 0.0
O293 O 0.85501 0.61876 0.21779 0.0
O294 O 0.91566 0.6616 0.21132 0.0
O295 O 0.86474 0.67123 0.17704 0.0
C296 C 0.85128 0.69391 0.17133 0.0
O297 O 0.83493 0.70811 0.1838 0.0
O298 O 0.84259 0.6942 0.22397 0.0
Mg299 Mg 0.61719 0.61507 0.45506 0.0
C300 C 0.61755 0.6868 0.4558 0.0
O301 O 0.60537 0.69006 0.47292 0.0
C302 C 0.58476 0.56911 0.47409 0.0
O303 O 0.59979 0.5568 0.46007 0.0
C304 C 0.67265 0.619 0.47581 0.0
O305 O 0.65875 0.64313 0.48021 0.0
O306 O 0.66047 0.60094 0.46436 0.0
O307 O 0.62187 0.66144 0.44895 0.0
O308 O 0.60243 0.60132 0.4263 0.0
C309 C 0.57497 0.59869 0.42422 0.0
O310 O 0.55813 0.601 0.43955 0.0
O311 O 0.58702 0.59657 0.47642 0.0
Mg312 Mg 0.36154 0.3687 0.2048 0.0
C313 C 0.42349 0.38934 0.20346 0.0
O314 O 0.40942 0.41422 0.20447 0.0
C315 C 0.31304 0.32918 0.2153 0.0
O316 O 0.30459 0.34045 0.19867 0.0
C317 C 0.3529 0.41539 0.23342 0.0
O318 O 0.36315 0.39348 0.24366 0.0
O319 O 0.3488 0.4117 0.21527 0.0
O320 O 0.40909 0.36582 0.20556 0.0
O321 O 0.3517 0.35767 0.17458 0.0
C322 C 0.37041 0.36146 0.16116 0.0
O323 O 0.39365 0.3772 0.16482 0.0
O324 O 0.3377 0.33672 0.22222 0.0
Mg325 Mg 0.40521 0.61736 0.95501 0.0
C326 C 0.43284 0.59408 0.91736 0.0
O327 O 0.44255 0.57327 0.92876 0.0
C328 C 0.3585 0.60742 0.98325 0.0
O329 O 0.3803 0.61781 0.99355 0.0
C330 C 0.43392 0.56797 0.97562 0.0
O331 O 0.40983 0.55603 0.96902 0.0
O332 O 0.43848 0.59485 0.97217 0.0
O333 O 0.41499 0.61268 0.92414 0.0
O334 O 0.40376 0.66453 0.95762 0.0
C335 C 0.4212 0.67981 0.94751 0.0
O336 O 0.44338 0.66683 0.93909 0.0
O337 O 0.36236 0.60335 0.96512 0.0
Mg338 Mg 0.15655 0.65562 0.7054 0.0
C339 C 0.09929 0.62785 0.69899 0.0
O340 O 0.118 0.60646 0.69664 0.0
C341 C 0.20262 0.68544 0.72782 0.0
O342 O 0.21612 0.66309 0.71999 0.0
C343 C 0.17226 0.60986 0.73392 0.0
O344 O 0.16426 0.63186 0.7449 0.0
O345 O 0.17241 0.61327 0.71554 0.0
O346 O 0.10894 0.65256 0.70443 0.0
O347 O 0.16907 0.67014 0.67626 0.0
C348 C 0.15266 0.66618 0.66153 0.0
O349 O 0.13004 0.64887 0.66317 0.0
O350 O 0.1754 0.68852 0.72466 0.0
Mg351 Mg 0.11785 0.40833 0.45312 0.0
C352 C 0.10985 0.40398 0.40946 0.0
O353 O 0.12616 0.38082 0.4122 0.0
C354 C 0.16239 0.41401 0.48286 0.0
O355 O 0.14018 0.40088 0.49115 0.0
C356 C 0.08144 0.4553 0.46943 0.0
O357 O 0.09694 0.46843 0.45598 0.0
O358 O 0.08496 0.42802 0.47191 0.0
O359 O 0.10586 0.42142 0.42361 0.0
O360 O 0.11823 0.36068 0.45179 0.0
C361 C 0.14294 0.34828 0.44985 0.0
O362 O 0.16662 0.36425 0.45109 0.0
O363 O 0.15983 0.42179 0.46517 0.0
Mg364 Mg 0.37074 0.66095 0.32272 0.0
C365 C 0.43036 0.63345 0.32176 0.0
O366 O 0.41402 0.61107 0.3171 0.0
C367 C 0.32248 0.68696 0.30089 0.0
O368 O 0.31096 0.66485 0.31026 0.0
C369 C 0.35626 0.61404 0.29544 0.0
O370 O 0.36619 0.63534 0.28454 0.0
O371 O 0.35446 0.61819 0.31371 0.0
O372 O 0.41852 0.65852 0.3228 0.0
O373 O 0.3602 0.67632 0.35198 0.0
C374 C 0.37909 0.67438 0.36553 0.0
O375 O 0.40272 0.65885 0.36252 0.0
O376 O 0.34963 0.69198 0.30306 0.0
Mg377 Mg 0.11365 0.62514 0.07445 0.0
C378 C 0.08006 0.60577 0.11018 0.0
O379 O 0.06586 0.59058 0.09706 0.0
C380 C 0.16023 0.61377 0.04606 0.0
O381 O 0.139 0.62521 0.03572 0.0
C382 C 0.0849 0.57728 0.05215 0.0
O383 O 0.10948 0.56507 0.05767 0.0
O384 O 0.08013 0.60371 0.05684 0.0
O385 O 0.10307 0.61925 0.10513 0.0
O386 O 0.11451 0.67267 0.07319 0.0
C387 C 0.13921 0.68481 0.07567 0.0
O388 O 0.16268 0.66839 0.07593 0.0
O389 O 0.1561 0.60984 0.06418 0.0
Mg390 Mg 0.1458 0.36432 0.81829 0.0
C391 C 0.08723 0.39377 0.81729 0.0
O392 O 0.10429 0.41624 0.81415 0.0
C393 C 0.19086 0.32175 0.80662 0.0
O394 O 0.19864 0.32959 0.82424 0.0
C395 C 0.17645 0.41165 0.79628 0.0
O396 O 0.18066 0.38926 0.78475 0.0
O397 O 0.16409 0.40746 0.81262 0.0
O398 O 0.09833 0.36834 0.81671 0.0
O399 O 0.14847 0.34623 0.84747 0.0
C400 C 0.16286 0.35122 0.86291 0.0
O401 O 0.18239 0.37212 0.86326 0.0
O402 O 0.16767 0.33264 0.7994 0.0
Mg403 Mg 0.41094 0.40168 0.57201 0.0
C404 C 0.43797 0.42602 0.61056 0.0
O405 O 0.4447 0.44946 0.60059 0.0
C406 C 0.35769 0.40041 0.54863 0.0
O407 O 0.3743 0.37976 0.54141 0.0
C408 C 0.4681 0.43011 0.55715 0.0
O409 O 0.4794 0.41992 0.57333 0.0
O410 O 0.44173 0.42418 0.55292 0.0
O411 O 0.42224 0.4065 0.60269 0.0
O412 O 0.40936 0.35434 0.57006 0.0
C413 C 0.42564 0.33893 0.58097 0.0
O414 O 0.44751 0.35155 0.58999 0.0
O415 O 0.36728 0.41528 0.56289 0.0
H416 H 0.09888 0.31228 0.43744 0.0
H417 H 0.19237 0.31603 0.44492 0.0
H418 H 0.10401 0.26636 0.41992 0.0
H419 H 0.19742 0.27003 0.42764 0.0
H420 H 0.19368 0.21768 0.36949 0.0
H421 H 0.19177 0.25651 0.39355 0.0
H422 H 0.11819 0.21483 0.42106 0.0
H423 H 0.11987 0.1761 0.39685 0.0
C424 C 0.12045 0.30299 0.43577 0.0
C425 C 0.14521 0.31802 0.44243 0.0
C426 C 0.12341 0.2766 0.42574 0.0
C427 C 0.15119 0.26466 0.42217 0.0
C428 C 0.17577 0.27887 0.42983 0.0
C429 C 0.17282 0.30519 0.43985 0.0
C430 C 0.17746 0.21644 0.38088 0.0
C431 C 0.15679 0.19386 0.38109 0.0
C432 C 0.1764 0.2387 0.39475 0.0
C433 C 0.15461 0.23896 0.40915 0.0
C434 C 0.13495 0.21554 0.40999 0.0
C435 C 0.13608 0.1932 0.39617 0.0
H436 H 0.0347 0.84156 0.6127 0.0
H437 H 0.07829 0.91988 0.63178 0.0
H438 H 1.00531 0.84157 0.64177 0.0
H439 H 0.04899 0.9195 0.6616 0.0
H440 H 0.9589 0.83743 0.69671 0.0
H441 H 1.00196 0.83555 0.67595 0.0
H442 H 0.99897 0.92912 0.66953 0.0
H443 H 0.95687 0.93107 0.69079 0.0
C444 C 0.03834 0.85864 0.62328 0.0
C445 C 0.05861 0.88098 0.61975 0.0
C446 C 0.02165 0.85841 0.64018 0.0
C447 C 0.0247 0.88049 0.65417 0.0
C448 C 0.04586 0.90227 0.65106 0.0
C449 C 0.06272 0.90248 0.63402 0.0
C450 C 0.96799 0.85766 0.69136 0.0
C451 C 0.95405 0.88433 0.6951 0.0
C452 C 0.99254 0.85659 0.67929 0.0
C453 C 1.00356 0.88212 0.67061 0.0
C454 C 0.99123 0.909 0.67589 0.0
C455 C 0.96685 0.91009 0.68804 0.0
H456 H 0.36912 0.70769 0.95376 0.0
H457 H 0.45283 0.71845 0.92592 0.0
H458 H 0.35072 0.75039 0.93651 0.0
H459 H 0.43437 0.76098 0.90869 0.0
H460 H 0.39744 0.84156 0.88229 0.0
H461 H 0.4139 0.81131 0.90941 0.0
H462 H 0.33955 0.75494 0.90127 0.0
H463 H 0.32313 0.78506 0.87425 0.0
C464 C 0.38387 0.71958 0.94438 0.0
C465 C 0.41236 0.70936 0.941 0.0
C466 C 0.37323 0.74397 0.93442 0.0
C467 C 0.39094 0.75885 0.92104 0.0
C468 C 0.42018 0.75013 0.91896 0.0
C469 C 0.43074 0.72562 0.92879 0.0
C470 C 0.38413 0.82321 0.88666 0.0
C471 C 0.35907 0.81555 0.876 0.0
C472 C 0.39371 0.80577 0.90211 0.0
C473 C 0.37819 0.78058 0.90739 0.0
C474 C 0.35191 0.7743 0.8977 0.0
C475 C 0.34254 0.79151 0.88213 0.0
H476 H 0.44088 0.14961 0.13246 0.0
H477 H 0.48583 0.0688 0.12072 0.0
H478 H 0.47312 0.15832 0.1602 0.0
H479 H 0.51796 0.07756 0.14827 0.0
H480 H 0.56422 0.0909 0.20412 0.0
H481 H 0.52163 0.08222 0.18374 0.0
H482 H 0.52579 0.17083 0.16291 0.0
H483 H 0.56835 0.17966 0.18345 0.0
C484 C 0.45719 0.13338 0.13603 0.0
C485 C 0.46087 0.10855 0.12429 0.0
C486 C 0.47581 0.13852 0.15184 0.0
C487 C 0.49824 0.11875 0.1564 0.0
C488 C 0.50076 0.09312 0.14531 0.0
C489 C 0.48239 0.08814 0.12943 0.0
C490 C 0.55572 0.10877 0.19552 0.0
C491 C 0.56997 0.13589 0.19525 0.0
C492 C 0.53137 0.10371 0.18376 0.0
C493 C 0.52057 0.12566 0.17146 0.0
C494 C 0.53345 0.15346 0.17228 0.0
C495 C 0.5579 0.15853 0.18405 0.0
H496 H 0.11512 0.85498 0.13092 0.0
H497 H 0.19268 0.81477 0.15454 0.0
H498 H 0.11312 0.81784 0.10563 0.0
H499 H 0.19032 0.77739 0.12957 0.0
H500 H 0.18835 0.71785 0.079 0.0
H501 H 0.19361 0.76414 0.09592 0.0
H502 H 0.1005 0.76682 0.10532 0.0
H503 H 0.09519 0.72085 0.08798 0.0
C504 C 0.13206 0.83853 0.13053 0.0
C505 C 0.15393 0.83774 0.1449 0.0
C506 C 0.13075 0.81709 0.1161 0.0
C507 C 0.15132 0.79437 0.11566 0.0
C508 C 0.17424 0.79467 0.1293 0.0
C509 C 0.17556 0.81611 0.14372 0.0
C510 C 0.16891 0.72862 0.08431 0.0
C511 C 0.14138 0.71546 0.08233 0.0
C512 C 0.17197 0.7551 0.09414 0.0
C513 C 0.14758 0.76903 0.1023 0.0
C514 C 0.11978 0.75686 0.09913 0.0
C515 C 0.11671 0.7304 0.08921 0.0
H516 H 0.48139 0.96987 0.40676 0.0
H517 H 0.43589 0.88956 0.39454 0.0
H518 H 0.51434 0.96042 0.37983 0.0
H519 H 0.4688 0.88026 0.36735 0.0
H520 H 0.56337 0.85666 0.34498 0.0
H521 H 0.52038 0.86652 0.36479 0.0
H522 H 0.52011 0.95575 0.34492 0.0
H523 H 0.56328 0.94605 0.3254 0.0
C524 C 0.47799 0.9505 0.39807 0.0
C525 C 0.45609 0.93041 0.40294 0.0
C526 C 0.49685 0.94511 0.38252 0.0
C527 C 0.49437 0.91945 0.37145 0.0
C528 C 0.47154 0.90005 0.37572 0.0
C529 C 0.45254 0.90552 0.39123 0.0
C530 C 0.5537 0.87817 0.34443 0.0
C531 C 0.56705 0.90066 0.33381 0.0
C532 C 0.52898 0.88385 0.35579 0.0
C533 C 0.51706 0.9121 0.35673 0.0
C534 C 0.5291 0.93393 0.34488 0.0
C535 C 0.55377 0.92829 0.33358 0.0
H536 H 0.3935 0.17816 0.64572 0.0
H537 H 0.32074 0.2371 0.65255 0.0
H538 H 0.41219 0.20823 0.61924 0.0
H539 H 0.33939 0.26701 0.62609 0.0
H540 H 0.37294 0.31281 0.5738 0.0
H541 H 0.35231 0.27107 0.59091 0.0
H542 H 0.43416 0.25809 0.62077 0.0
H543 H 0.45483 0.29973 0.60372 0.0
C544 C 0.38101 0.19703 0.64122 0.0
C545 C 0.35572 0.20538 0.65137 0.0
C546 C 0.39187 0.21437 0.62612 0.0
C547 C 0.37744 0.24014 0.62068 0.0
C548 C 0.35095 0.24719 0.62982 0.0
C549 C 0.34029 0.23009 0.64506 0.0
C550 C 0.38682 0.30059 0.58361 0.0
C551 C 0.41547 0.30987 0.58757 0.0
C552 C 0.3749 0.27677 0.5935 0.0
C553 C 0.39146 0.26149 0.60736 0.0
C554 C 0.42084 0.26928 0.61011 0.0
C555 C 0.43268 0.29326 0.60037 0.0
H556 H 0.10089 0.1725 0.88254 0.0
H557 H 0.06513 0.09155 0.90384 0.0
H558 H 0.06454 0.17328 0.85664 0.0
H559 H 0.02849 0.09265 0.87826 0.0
H560 H 0.97173 0.09227 0.82614 0.0
H561 H 0.01732 0.08969 0.84427 0.0
H562 H 1.01275 0.18229 0.85498 0.0
H563 H 0.96748 0.18495 0.83644 0.0
C564 C 0.08557 0.15462 0.88155 0.0
C565 C 0.08584 0.13205 0.8954 0.0
C566 C 0.06456 0.15521 0.86676 0.0
C567 C 0.04333 0.13321 0.86542 0.0
C568 C 0.04463 0.10984 0.87866 0.0
C569 C 0.06563 0.10924 0.89343 0.0
C570 C 0.9808 0.11222 0.83198 0.0
C571 C 0.96578 0.13878 0.82999 0.0
C572 C 1.00685 0.11068 0.84252 0.0
C573 C 0.01851 0.13565 0.85143 0.0
C574 C 1.00456 0.1626 0.84826 0.0
C575 C 0.97853 0.16416 0.83761 0.0
H576 H 0.86216 0.69332 0.59192 0.0
H577 H 0.94261 0.73927 0.58118 0.0
H578 H 0.84367 0.73429 0.60991 0.0
H579 H 0.92317 0.78185 0.59798 0.0
H580 H 0.89861 0.83185 0.65343 0.0
H581 H 0.91499 0.79897 0.62826 0.0
H582 H 0.82514 0.77912 0.61406 0.0
H583 H 0.8091 0.81027 0.64063 0.0
C584 C 0.87561 0.71265 0.59287 0.0
C585 C 0.90403 0.71286 0.58524 0.0
C586 C 0.86483 0.73653 0.60315 0.0
C587 C 0.8818 0.76179 0.60575 0.0
C588 C 0.90958 0.76267 0.59691 0.0
C589 C 0.92071 0.73834 0.58704 0.0
C590 C 0.88233 0.82083 0.64469 0.0
C591 C 0.85255 0.8234 0.64915 0.0
C592 C 0.89175 0.80192 0.63006 0.0
C593 C 0.87157 0.78558 0.61909 0.0
C594 C 0.84157 0.79026 0.62254 0.0
C595 C 0.83222 0.80849 0.63763 0.0
H596 H 0.02556 0.18154 0.32123 0.0
H597 H 0.08178 0.11749 0.34805 0.0
H598 H 0.98408 0.1619 0.33937 0.0
H599 H 0.04134 0.09902 0.36658 0.0
H600 H 0.96677 0.05971 0.39507 0.0
H601 H 0.99805 0.0733 0.36795 0.0
H602 H 0.9658 0.1617 0.37128 0.0
H603 H 0.93334 0.14756 0.39747 0.0
C604 C 0.02906 0.16323 0.33088 0.0
C605 C 0.05708 0.15129 0.33324 0.0
C606 C 1.00532 0.15203 0.34137 0.0
C607 C 1.00916 0.12877 0.35454 0.0
C608 C 0.03711 0.11643 0.35635 0.0
C609 C 0.06058 0.12736 0.3458 0.0
C610 C 0.96581 0.08182 0.38961 0.0
C611 C 0.94787 0.10259 0.39858 0.0
C612 C 0.98397 0.08977 0.37418 0.0
C613 C 0.98521 0.11887 0.3677 0.0
C614 C 0.96552 0.13908 0.37572 0.0
C615 C 0.94689 0.13096 0.39087 0.0
H616 H 0.6926 0.30865 0.07727 0.0
H617 H 0.5991 0.30187 0.08319 0.0
H618 H 0.69862 0.26331 0.09524 0.0
H619 H 0.6051 0.25698 0.10164 0.0
H620 H 0.69616 0.21416 0.15425 0.0
H621 H 0.69386 0.25062 0.12868 0.0
H622 H 0.6194 0.20685 0.1036 0.0
H623 H 0.62125 0.17072 0.12954 0.0
C624 C 0.67328 0.29724 0.08215 0.0
C625 C 0.64538 0.30905 0.07894 0.0
C626 C 0.67675 0.27133 0.09259 0.0
C627 C 0.65241 0.25664 0.10021 0.0
C628 C 0.62438 0.26749 0.09589 0.0
C629 C 0.62091 0.29334 0.08532 0.0
C630 C 0.67964 0.21193 0.14308 0.0
C631 C 0.65871 0.18965 0.14411 0.0
C632 C 0.67837 0.23284 0.12831 0.0
C633 C 0.65622 0.23194 0.11412 0.0
C634 C 0.6364 0.20858 0.11447 0.0
C635 C 0.63762 0.1877 0.12929 0.0
H636 H 0.59637 0.88159 0.89793 0.0
H637 H 0.53674 0.95367 0.90501 0.0
H638 H 0.5664 0.86289 0.87129 0.0
H639 H 0.50697 0.93507 0.87842 0.0
H640 H 0.46204 0.902 0.82547 0.0
H641 H 0.50348 0.92262 0.84302 0.0
H642 H 0.51632 0.84067 0.87258 0.0
H643 H 0.47494 0.82002 0.85512 0.0
C644 C 0.57736 0.89392 0.89345 0.0
C645 C 0.5688 0.91903 0.90369 0.0
C646 C 0.56009 0.88307 0.87828 0.0
C647 C 0.53419 0.89735 0.87284 0.0
C648 C 0.52689 0.92364 0.88213 0.0
C649 C 0.54391 0.93426 0.89744 0.0
C650 C 0.47416 0.88811 0.83532 0.0
C651 C 0.46493 0.85942 0.83905 0.0
C652 C 0.49781 0.90002 0.84546 0.0
C653 C 0.51298 0.8834 0.85935 0.0
C654 C 0.50522 0.85402 0.8619 0.0
C655 C 0.48139 0.84221 0.85193 0.0
H656 H 0.94716 0.29258 0.94582 0.0
H657 H 0.8629 0.33263 0.93773 0.0
H658 H 0.92991 0.24889 0.92932 0.0
H659 H 0.84634 0.29066 0.91977 0.0
H660 H 0.81678 0.21311 0.88788 0.0
H661 H 0.83113 0.24505 0.91451 0.0
H662 H 0.92185 0.23186 0.89934 0.0
H663 H 0.90734 0.19818 0.87424 0.0
C664 C 0.92487 0.29191 0.94059 0.0
C665 C 0.90645 0.31603 0.94303 0.0
C666 C 0.91497 0.26699 0.93085 0.0
C667 C 0.88673 0.26602 0.92263 0.0
C668 C 0.86801 0.28985 0.92598 0.0
C669 C 0.8776 0.31427 0.93626 0.0
C670 C 0.83977 0.21656 0.89069 0.0
C671 C 0.86088 0.20321 0.87895 0.0
C672 C 0.84813 0.23524 0.90581 0.0
C673 C 0.87781 0.24194 0.90908 0.0
C674 C 0.89883 0.22729 0.89778 0.0
C675 C 0.89049 0.20793 0.88314 0.0
H676 H 0.4581 0.12322 0.70355 0.0
H677 H 0.46815 0.204 0.67205 0.0
H678 H 0.50096 0.10348 0.6871 0.0
H679 H 0.51081 0.18425 0.65566 0.0
H680 H 0.59392 0.1478 0.63334 0.0
H681 H 0.56129 0.16576 0.65855 0.0
H682 H 0.5085 0.08845 0.65272 0.0
H683 H 0.54117 0.07031 0.62755 0.0
C684 C 0.46983 0.13705 0.69349 0.0
C685 C 0.45951 0.16515 0.689 0.0
C686 C 0.49428 0.12562 0.68396 0.0
C687 C 0.50916 0.14216 0.66994 0.0
C688 C 0.50003 0.17097 0.66648 0.0
C689 C 0.47546 0.18229 0.67585 0.0
C690 C 0.57576 0.13424 0.63772 0.0
C691 C 0.56998 0.10774 0.62817 0.0
C692 C 0.55696 0.14467 0.65212 0.0
C693 C 0.53206 0.12877 0.65745 0.0
C694 C 0.52756 0.10121 0.64903 0.0
C695 C 0.54629 0.09082 0.63453 0.0
H696 H 0.71489 0.79662 0.37704 0.0
H697 H 0.63521 0.84473 0.38665 0.0
H698 H 0.70147 0.7628 0.40276 0.0
H699 H 0.6215 0.81039 0.4122 0.0
H700 H 0.61295 0.74567 0.46412 0.0
H701 H 0.63126 0.78651 0.44451 0.0
H702 H 0.66365 0.72558 0.40189 0.0
H703 H 0.64592 0.6854 0.42117 0.0
C704 C 0.69476 0.80032 0.38488 0.0
C705 C 0.67594 0.82313 0.37955 0.0
C706 C 0.68697 0.78081 0.39956 0.0
C707 C 0.66007 0.78348 0.40922 0.0
C708 C 0.64234 0.80769 0.40504 0.0
C709 C 0.65022 0.82737 0.39036 0.0
C710 C 0.62406 0.7411 0.45059 0.0
C711 C 0.62798 0.71219 0.4443 0.0
C712 C 0.63451 0.76447 0.43936 0.0
C713 C 0.64932 0.7593 0.42177 0.0
C714 C 0.65302 0.73041 0.41557 0.0
C715 C 0.64254 0.70727 0.42662 0.0
H716 H 0.05927 0.93574 0.20143 0.0
H717 H 0.06251 0.84374 0.1885 0.0
H718 H 0.0135 0.93985 0.18364 0.0
H719 H 0.01689 0.84796 0.17043 0.0
H720 H 0.92705 0.86088 0.14531 0.0
H721 H 0.96441 0.85826 0.17057 0.0
H722 H 1.00236 0.9381 0.14912 0.0
H723 H 0.96491 0.94093 0.12411 0.0
C724 C 0.05 0.91627 0.19506 0.0
C725 C 0.06476 0.88946 0.19623 0.0
C726 C 0.02381 0.91869 0.18475 0.0
C727 C 1.0117 0.89435 0.17535 0.0
C728 C 0.02547 0.86713 0.17759 0.0
C729 C 0.05171 0.86471 0.18793 0.0
C730 C 0.94298 0.87823 0.14625 0.0
C731 C 0.94305 0.90106 0.1326 0.0
C732 C 0.96455 0.87657 0.16064 0.0
C733 C 0.98654 0.89782 0.1618 0.0
C734 C 0.98562 0.92148 0.1488 0.0
C735 C 0.96418 0.92306 0.13437 0.0
H736 H 0.59697 0.72763 0.8695 0.0
H737 H 0.68312 0.6958 0.88359 0.0
H738 H 0.59818 0.75954 0.89736 0.0
H739 H 0.68404 0.72754 0.91225 0.0
H740 H 0.6893 0.82252 0.93737 0.0
H741 H 0.6887 0.77881 0.91762 0.0
H742 H 0.59772 0.76599 0.93149 0.0
H743 H 0.59806 0.81063 0.95073 0.0
C744 C 0.61608 0.72707 0.87877 0.0
C745 C 0.64014 0.70942 0.87413 0.0
C746 C 0.61661 0.74522 0.89499 0.0
C747 C 0.6412 0.74625 0.90717 0.0
C748 C 0.66484 0.72756 0.90307 0.0
C749 C 0.6643 0.70926 0.88672 0.0
C750 C 0.66926 0.81011 0.93656 0.0
C751 C 0.64354 0.82049 0.9453 0.0
C752 C 0.66899 0.7848 0.92529 0.0
C753 C 0.64302 0.76907 0.92258 0.0
C754 C 0.61795 0.77797 0.93284 0.0
C755 C 0.61817 0.80346 0.94402 0.0
H756 H 0.53257 0.34892 0.11076 0.0
H757 H 0.57881 0.42426 0.13228 0.0
H758 H 0.50227 0.34869 0.13942 0.0
H759 H 0.54845 0.42364 0.16165 0.0
H760 H 0.45714 0.3416 0.19482 0.0
H761 H 0.49957 0.34031 0.17355 0.0
H762 H 0.49808 0.43421 0.16969 0.0
H763 H 0.45641 0.43556 0.19145 0.0
C764 C 0.53656 0.3653 0.12176 0.0
C765 C 0.55799 0.38681 0.11909 0.0
C766 C 0.51931 0.36493 0.13841 0.0
C767 C 0.52293 0.38603 0.15299 0.0
C768 C 0.54496 0.40715 0.15065 0.0
C769 C 0.56241 0.40748 0.13387 0.0
C770 C 0.46635 0.36201 0.18988 0.0
C771 C 0.45299 0.38864 0.19458 0.0
C772 C 0.49056 0.36128 0.17754 0.0
C773 C 0.50185 0.38713 0.16948 0.0
C774 C 0.49007 0.41387 0.17558 0.0
C775 C 0.46598 0.41461 0.18803 0.0
H776 H 0.96768 0.21598 0.42568 0.0
H777 H 0.88067 0.21338 0.44962 0.0
H778 H 0.95618 0.26176 0.40946 0.0
H779 H 0.86916 0.25928 0.43328 0.0
H780 H 0.85326 0.30998 0.37397 0.0
H781 H 0.86258 0.2718 0.3979 0.0
H782 H 0.94302 0.31404 0.41424 0.0
H783 H 0.93381 0.35219 0.39038 0.0
C784 C 0.94629 0.22549 0.42783 0.0
C785 C 0.92509 0.21091 0.43889 0.0
C786 C 0.93971 0.25181 0.41857 0.0
C787 C 0.91167 0.26407 0.41998 0.0
C788 C 0.89087 0.25023 0.43178 0.0
C789 C 0.89757 0.22405 0.44126 0.0
C790 C 0.87259 0.31152 0.38297 0.0
C791 C 0.8929 0.33404 0.38008 0.0
C792 C 0.8779 0.28965 0.39674 0.0
C793 C 0.90372 0.28972 0.40782 0.0
C794 C 0.92314 0.31316 0.40574 0.0
C795 C 0.91773 0.33513 0.39212 0.0
H796 H 0.07906 0.58537 0.67512 0.0
H797 H 0.05158 0.66303 0.70533 0.0
H798 H 0.03273 0.58301 0.65861 0.0
H799 H 1.00379 0.65963 0.68977 0.0
H800 H 0.94193 0.66938 0.6375 0.0
H801 H 0.98171 0.66844 0.66062 0.0
H802 H 0.98409 0.57435 0.65697 0.0
H803 H 0.94556 0.57578 0.63253 0.0
C804 C 0.06273 0.60157 0.67867 0.0
C805 C 0.06916 0.62457 0.69144 0.0
C806 C 0.0358 0.60007 0.66926 0.0
C807 C 0.01411 0.62118 0.67264 0.0
C808 C 0.02002 0.64331 0.68633 0.0
C809 C 0.04736 0.64518 0.69544 0.0
C810 C 0.95063 0.64843 0.64186 0.0
C811 C 0.94082 0.62265 0.63301 0.0
C812 C 0.9735 0.64784 0.65531 0.0
C813 C 0.98678 0.62134 0.66064 0.0
C814 C 0.97527 0.59533 0.65284 0.0
C815 C 0.95289 0.59602 0.63897 0.0
H816 H 0.68485 0.21759 0.58064 0.0
H817 H 0.59165 0.22002 0.58924 0.0
H818 H 0.68991 0.26321 0.59831 0.0
H819 H 0.59673 0.26551 0.60739 0.0
H820 H 0.6135 0.35414 0.63404 0.0
H821 H 0.61001 0.31699 0.60875 0.0
H822 H 0.68612 0.27416 0.63238 0.0
H823 H 0.68989 0.31139 0.65735 0.0
C824 C 0.66535 0.22817 0.58602 0.0
C825 C 0.63788 0.21504 0.58371 0.0
C826 C 0.66828 0.25424 0.59629 0.0
C827 C 0.64383 0.26778 0.60465 0.0
C828 C 0.61604 0.25577 0.60111 0.0
C829 C 0.61309 0.22967 0.59068 0.0
C830 C 0.62985 0.33713 0.63359 0.0
C831 C 0.65197 0.33575 0.64779 0.0
C832 C 0.62768 0.31568 0.61918 0.0
C833 C 0.64767 0.29246 0.61853 0.0
C834 C 0.67053 0.29189 0.63222 0.0
C835 C 0.67265 0.31322 0.64664 0.0
H836 H 0.05778 0.44513 0.8211 0.0
H837 H 0.05193 0.35369 0.83536 0.0
H838 H 0.01751 0.45547 0.84309 0.0
H839 H 1.01179 0.36416 0.85755 0.0
H840 H 0.93283 0.39104 0.89306 0.0
H841 H 0.96145 0.38257 0.86355 0.0
H842 H 0.01746 0.45466 0.87872 0.0
H843 H 0.989 0.46312 0.90796 0.0
C844 C 0.0475 0.42711 0.82858 0.0
C845 C 0.05845 0.39863 0.82667 0.0
C846 C 0.02449 0.43309 0.84128 0.0
C847 C 1.01179 0.41074 0.85238 0.0
C848 C 0.02102 0.38189 0.84921 0.0
C849 C 0.04411 0.37589 0.83648 0.0
C850 C 0.95086 0.40546 0.88984 0.0
C851 C 0.9587 0.42771 0.9029 0.0
C852 C 0.96738 0.40046 0.87301 0.0
C853 C 0.99179 0.41788 0.86877 0.0
C854 C 0.99861 0.44103 0.88136 0.0
C855 C 0.98237 0.4458 0.89823 0.0
H856 H 0.95816 0.80275 0.10366 0.0
H857 H 0.87544 0.81463 0.07453 0.0
H858 H 0.93805 0.76171 0.12159 0.0
H859 H 0.85545 0.77334 0.09238 0.0
H860 H 0.82356 0.73884 0.15309 0.0
H861 H 0.84236 0.76896 0.12685 0.0
H862 H 0.91709 0.71221 0.12158 0.0
H863 H 0.89832 0.68207 0.14802 0.0
C864 C 0.93593 0.79615 0.10067 0.0
C865 C 0.91834 0.81229 0.08782 0.0
C866 C 0.9244 0.7725 0.11093 0.0
C867 C 0.895 0.76445 0.10861 0.0
C868 C 0.87804 0.77927 0.09473 0.0
C869 C 0.88959 0.80286 0.08441 0.0
C870 C 0.84364 0.73235 0.14604 0.0
C871 C 0.8595 0.70816 0.15277 0.0
C872 C 0.85439 0.74957 0.1309 0.0
C873 C 0.88139 0.74315 0.1222 0.0
C874 C 0.8964 0.71793 0.12812 0.0
C875 C 0.88549 0.70052 0.14317 0.0
H876 H 0.52645 0.5694 0.41348 0.0
H877 H 0.5915 0.62894 0.39183 0.0
H878 H 0.49759 0.57661 0.38403 0.0
H879 H 0.56203 0.63688 0.36241 0.0
H880 H 0.46753 0.67287 0.33894 0.0
H881 H 0.50907 0.66144 0.35999 0.0
H882 H 0.49985 0.57027 0.34622 0.0
H883 H 0.45879 0.5815 0.32501 0.0
C884 C 0.53489 0.58346 0.40216 0.0
C885 C 0.56124 0.59844 0.40482 0.0
C886 C 0.51841 0.58759 0.38531 0.0
C887 C 0.52759 0.60734 0.37097 0.0
C888 C 0.55453 0.62152 0.37325 0.0
C889 C 0.57145 0.61679 0.38996 0.0
C890 C 0.47493 0.65051 0.3399 0.0
C891 C 0.45949 0.62807 0.33052 0.0
C892 C 0.49876 0.64399 0.35192 0.0
C893 C 0.50739 0.61493 0.35488 0.0
C894 C 0.49346 0.59282 0.34431 0.0
C895 C 0.46993 0.59933 0.33215 0.0
H896 H 0.3384 0.22554 0.07491 0.0
H897 H 0.43076 0.22653 0.08727 0.0
H898 H 0.3326 0.27148 0.09217 0.0
H899 H 0.42488 0.2721 0.10498 0.0
H900 H 0.32951 0.32066 0.15119 0.0
H901 H 0.33331 0.28393 0.12591 0.0
H902 H 0.41327 0.32324 0.10565 0.0
H903 H 0.40983 0.3597 0.13131 0.0
C904 C 0.35757 0.2358 0.08106 0.0
C905 C 0.385 0.22218 0.0799 0.0
C906 C 0.3542 0.26207 0.09108 0.0
C907 C 0.37815 0.27532 0.10029 0.0
C908 C 0.40594 0.26269 0.09798 0.0
C909 C 0.40934 0.23646 0.08785 0.0
C910 C 0.3476 0.32189 0.14111 0.0
C911 C 0.36951 0.34299 0.14345 0.0
C912 C 0.34974 0.30082 0.12651 0.0
C913 C 0.37379 0.30037 0.1138 0.0
C914 C 0.39474 0.3226 0.11538 0.0
C915 C 0.39262 0.34367 0.13002 0.0
H916 H 0.43591 0.64551 0.89747 0.0
H917 H 0.46355 0.55571 0.8949 0.0
H918 H 0.4681 0.65731 0.87063 0.0
H919 H 0.49456 0.56702 0.86718 0.0
H920 H 0.57917 0.60597 0.84343 0.0
H921 H 0.53907 0.58946 0.8632 0.0
H922 H 0.48372 0.65614 0.83838 0.0
H923 H 0.52484 0.67376 0.81914 0.0
C924 C 0.44819 0.62805 0.89075 0.0
C925 C 0.44747 0.59972 0.89851 0.0
C926 C 0.46665 0.63481 0.87521 0.0
C927 C 0.48453 0.61329 0.8668 0.0
C928 C 0.4819 0.58444 0.8736 0.0
C929 C 0.46388 0.57782 0.88941 0.0
C930 C 0.55838 0.61698 0.84192 0.0
C931 C 0.55544 0.6415 0.82981 0.0
C932 C 0.5351 0.60726 0.85323 0.0
C933 C 0.50791 0.62146 0.85262 0.0
C934 C 0.50443 0.64496 0.83961 0.0
C935 C 0.52796 0.65494 0.8284 0.0
H936 H 0.19117 0.71092 0.65564 0.0
H937 H 0.11949 0.66547 0.62841 0.0
H938 H 0.18937 0.74773 0.63026 0.0
H939 H 0.11814 0.702 0.6027 0.0
H940 H 0.19023 0.80569 0.57873 0.0
H941 H 0.19617 0.76053 0.59689 0.0
H942 H 0.1025 0.75192 0.60057 0.0
H943 H 0.09662 0.79672 0.58196 0.0
C944 C 0.17549 0.70836 0.64399 0.0
C945 C 0.15529 0.68535 0.64422 0.0
C946 C 0.17451 0.72947 0.62933 0.0
C947 C 0.15339 0.72807 0.61447 0.0
C948 C 0.13433 0.7041 0.61409 0.0
C949 C 0.13527 0.683 0.62878 0.0
C950 C 0.17089 0.79383 0.58305 0.0
C951 C 0.14295 0.80496 0.57903 0.0
C952 C 0.17431 0.76801 0.59361 0.0
C953 C 0.14986 0.75275 0.60052 0.0
C954 C 0.12188 0.76291 0.59539 0.0
C955 C 0.11846 0.78868 0.58471 0.0
H956 H 0.10876 0.36701 0.37828 0.0
H957 H 0.06795 0.44472 0.40097 0.0
H958 H 0.0721 0.36465 0.35264 0.0
H959 H 0.0311 0.44207 0.37554 0.0
H960 H 0.9736 0.4392 0.32336 0.0
H961 H 0.01917 0.44473 0.34124 0.0
H962 H 0.02057 0.35215 0.35239 0.0
H963 H 0.97525 0.34655 0.33425 0.0
C964 C 0.0923 0.38392 0.37762 0.0
C965 C 0.09117 0.40591 0.39184 0.0
C966 C 0.07114 0.38241 0.36297 0.0
C967 C 0.0484 0.40293 0.36213 0.0
C968 C 0.04839 0.426 0.37561 0.0
C969 C 0.06952 0.42748 0.39028 0.0
C970 C 0.98393 0.41991 0.32927 0.0
C971 C 0.97058 0.39245 0.32751 0.0
C972 C 1.00998 0.42313 0.33965 0.0
C973 C 0.02337 0.39898 0.34851 0.0
C974 C 1.01102 0.37123 0.34565 0.0
C975 C 0.98495 0.368 0.33525 0.0
H976 H 0.41813 0.67886 0.39553 0.0
H977 H 0.3369 0.71461 0.37432 0.0
H978 H 0.41968 0.71596 0.42086 0.0
H979 H 0.33873 0.75195 0.39938 0.0
H980 H 0.43193 0.81324 0.44015 0.0
H981 H 0.42885 0.76791 0.42176 0.0
H982 H 0.33642 0.76346 0.43346 0.0
H983 H 0.33941 0.80901 0.45146 0.0
C984 C 0.40035 0.69435 0.39642 0.0
C985 C 0.37747 0.69383 0.38276 0.0
C986 C 0.40138 0.71578 0.41088 0.0
C987 C 0.37951 0.73718 0.4121 0.0
C988 C 0.35584 0.73569 0.39906 0.0
C989 C 0.35482 0.71429 0.38459 0.0
C990 C 0.4111 0.80223 0.43919 0.0
C991 C 0.38587 0.81496 0.44709 0.0
C992 C 0.4093 0.77617 0.42865 0.0
C993 C 0.38226 0.76221 0.42583 0.0
C994 C 0.35746 0.77393 0.43493 0.0
C995 C 0.35924 0.79997 0.44539 0.0
H996 H 0.03446 0.57737 0.12717 0.0
H997 H 0.09214 0.65073 0.13518 0.0
H998 H 1.00406 0.59472 0.15377 0.0
H999 H 0.06161 0.66811 0.16185 0.0
H1000 H 0.96965 0.70883 0.17844 0.0
H1001 H 1.01146 0.68938 0.16091 0.0
H1002 H 0.99962 0.60622 0.18908 0.0
H1003 H 0.95768 0.62564 0.20668 0.0
C1004 C 0.04107 0.5968 0.13493 0.0
C1005 C 0.06559 0.61276 0.12891 0.0
C1006 C 0.02369 0.60671 0.15026 0.0
C1007 C 0.03026 0.63297 0.15983 0.0
C1008 C 0.05581 0.64796 0.15463 0.0
C1009 C 0.07342 0.63786 0.13943 0.0
C1010 C 0.97641 0.68663 0.18133 0.0
C1011 C 0.96006 0.66874 0.19382 0.0
C1012 C 1.00048 0.67549 0.1713 0.0
C1013 C 1.00867 0.64612 0.17342 0.0
C1014 C 0.99362 0.62882 0.18696 0.0
C1015 C 0.9697 0.64005 0.19715 0.0
H1016 H 0.12051 0.31029 0.86714 0.0
H1017 H 0.19363 0.34871 0.89738 0.0
H1018 H 0.11406 0.27577 0.89331 0.0
H1019 H 0.18664 0.31417 0.92413 0.0
H1020 H 0.19035 0.21826 0.94814 0.0
H1021 H 0.19402 0.26257 0.92901 0.0
H1022 H 0.10003 0.26788 0.9263 0.0
H1023 H 0.09635 0.22287 0.94497 0.0
C1024 C 0.13504 0.31166 0.87953 0.0
C1025 C 0.15783 0.33214 0.88001 0.0
C1026 C 0.13109 0.29197 0.89472 0.0
C1027 C 0.14975 0.29214 0.91093 0.0
C1028 C 0.17201 0.31326 0.91178 0.0
C1029 C 0.17596 0.33312 0.89649 0.0
C1030 C 0.17041 0.22915 0.94381 0.0
C1031 C 0.14304 0.21666 0.94779 0.0
C1032 C 0.17254 0.25476 0.93291 0.0
C1033 C 0.14734 0.26858 0.92577 0.0
C1034 C 0.11991 0.25742 0.93117 0.0
C1035 C 0.11778 0.23172 0.94202 0.0
H1036 H 0.48249 0.45641 0.6278 0.0
H1037 H 0.43078 0.37835 0.63399 0.0
H1038 H 0.51544 0.43906 0.65307 0.0
H1039 H 0.46341 0.36129 0.65953 0.0
H1040 H 0.55407 0.32316 0.67679 0.0
H1041 H 0.51248 0.3424 0.65899 0.0
H1042 H 0.5243 0.42598 0.6867 0.0
H1043 H 0.56639 0.40682 0.7043 0.0
C1044 C 0.47766 0.43593 0.6349 0.0
C1045 C 0.45414 0.41867 0.62866 0.0
C1046 C 0.49656 0.42597 0.64948 0.0
C1047 C 0.49236 0.39854 0.65819 0.0
C1048 C 0.46766 0.38224 0.65287 0.0
C1049 C 0.4488 0.39216 0.6383 0.0
C1050 C 0.54749 0.34547 0.67943 0.0
C1051 C 0.56381 0.36347 0.69187 0.0
C1052 C 0.52348 0.35653 0.66925 0.0
C1053 C 0.51512 0.38588 0.67124 0.0
C1054 C 0.5304 0.40342 0.68456 0.0
C1055 C 0.55442 0.39234 0.69478 0.0
H1056 H 0.26631 0.30033 0.20042 0.0
H1057 H 0.31534 0.31169 0.25353 0.0
H1058 H 0.23291 0.26762 0.21712 0.0
H1059 H 0.28154 0.27884 0.27034 0.0
H1060 H 0.19506 0.2436 0.29684 0.0
H1061 H 0.22733 0.27791 0.28015 0.0
H1062 H 0.23572 0.21769 0.23233 0.0
H1063 H 0.20374 0.18337 0.24898 0.0
C1064 C 0.26999 0.29584 0.21568 0.0
C1065 C 0.29355 0.3086 0.22564 0.0
C1066 C 0.25086 0.277 0.22522 0.0
C1067 C 0.25455 0.2707 0.24504 0.0
C1068 C 0.27802 0.28352 0.25509 0.0
C1069 C 0.29748 0.30211 0.24544 0.0
C1070 C 0.20348 0.23786 0.28265 0.0
C1071 C 0.19677 0.21077 0.27421 0.0
C1072 C 0.2222 0.25737 0.2732 0.0
C1073 C 0.2342 0.2504 0.255 0.0
C1074 C 0.22672 0.22373 0.24631 0.0
C1075 C 0.2084 0.20407 0.25586 0.0
H1076 H 0.06715 0.99893 0.55414 0.0
H1077 H 0.03925 0.92395 0.52111 0.0
H1078 H 0.03401 0.02966 0.53575 0.0
H1079 H 1.00637 0.95504 0.50224 0.0
H1080 H 0.92796 0.01382 0.48796 0.0
H1081 H 0.9619 0.98246 0.50535 0.0
H1082 H 0.02641 0.05097 0.50442 0.0
H1083 H 0.99206 0.08269 0.4874 0.0
C1084 C 0.05405 0.98897 0.54285 0.0
C1085 C 0.05587 0.95888 0.53915 0.0
C1086 C 0.03515 1.00672 0.53217 0.0
C1087 C 0.01752 0.99497 0.51741 0.0
C1088 C 0.01936 0.96484 0.51364 0.0
C1089 C 0.03831 0.947 0.5244 0.0
C1090 C 0.94938 0.02226 0.49145 0.0
C1091 C 0.95721 0.05089 0.48633 0.0
C1092 C 0.96897 1.00413 0.50131 0.0
C1093 C 0.99698 0.01407 0.50632 0.0
C1094 C 1.00489 0.04266 0.50107 0.0
C1095 C 0.98524 0.06086 0.49122 0.0
H1096 H 0.25682 0.67832 0.74327 0.0
H1097 H 0.18685 0.74091 0.7385 0.0
H1098 H 0.2859 0.71343 0.7612 0.0
H1099 H 0.21647 0.7767 0.7558 0.0
H1100 H 0.34316 0.79106 0.7757 0.0
H1101 H 0.31329 0.75627 0.75774 0.0
H1102 H 0.23611 0.78957 0.78614 0.0
H1103 H 0.26579 0.82498 0.80335 0.0
C1104 C 0.24767 0.6997 0.74598 0.0
C1105 C 0.21949 0.70681 0.73944 0.0
C1106 C 0.26451 0.71999 0.75615 0.0
C1107 C 0.25379 0.74814 0.75988 0.0
C1108 C 0.22541 0.75516 0.75346 0.0
C1109 C 0.2084 0.73468 0.74347 0.0
C1110 C 0.31981 0.79095 0.77804 0.0
C1111 C 0.3069 0.81084 0.79093 0.0
C1112 C 0.30263 0.77086 0.76784 0.0
C1113 C 0.27213 0.76993 0.77045 0.0
C1114 C 0.25935 0.78986 0.78342 0.0
C1115 C 0.27647 0.81011 0.79343 0.0
H1116 H 0.49794 0.09753 0.04025 0.0
H1117 H 0.43189 0.0325 0.02948 0.0
H1118 H 0.53399 0.06689 0.02402 0.0
H1119 H 0.46749 1.00238 1.01275 0.0
H1120 H 0.54373 0.94149 1.00096 0.0
H1121 H 0.50874 0.97218 0.01814 0.0
H1122 H 0.5486 0.04884 0.99325 0.0
H1123 H 0.58402 0.0183 0.9767 0.0
C1124 C 0.49104 0.07686 0.03423 0.0
C1125 C 0.46204 0.06748 0.0362 0.0
C1126 C 0.51169 0.05927 0.02485 0.0
C1127 C 0.50378 0.03198 0.0171 0.0
C1128 C 0.47462 0.02291 0.01886 0.0
C1129 C 0.45409 0.04036 0.02833 0.0
C1130 C 0.54505 0.9649 0.99922 0.0
C1131 C 0.56671 0.97739 0.98746 0.0
C1132 C 0.52486 0.98254 1.00898 0.0
C1133 C 0.5257 0.01311 1.00709 0.0
C1134 C 0.54747 0.0255 0.99534 0.0
C1135 C 0.56773 1.0079 0.98573 0.0
H1136 H 0.26922 0.67285 0.28644 0.0
H1137 H 0.33288 0.74214 0.28682 0.0
H1138 H 0.23665 0.70266 0.26678 0.0
H1139 H 0.29987 0.77225 0.26709 0.0
H1140 H 0.21531 0.82578 0.2525 0.0
H1141 H 0.24951 0.79643 0.27157 0.0
H1142 H 0.23553 0.7238 0.23287 0.0
H1143 H 0.20154 0.75308 0.21373 0.0
C1144 C 0.27632 0.69447 0.28229 0.0
C1145 C 0.30366 0.70515 0.28822 0.0
C1146 C 0.25766 0.71148 0.27094 0.0
C1147 C 0.26567 0.73979 0.26541 0.0
C1148 C 0.29305 0.75056 0.27127 0.0
C1149 C 0.312 0.73329 0.28243 0.0
C1150 C 0.2194 0.8035 0.24812 0.0
C1151 C 0.20558 0.79173 0.23163 0.0
C1152 C 0.23921 0.78681 0.25894 0.0
C1153 C 0.24528 0.75787 0.25367 0.0
C1154 C 0.23118 0.746 0.23734 0.0
C1155 C 0.21172 0.76279 0.22637 0.0
H1156 H 0.52008 0.94157 0.48598 0.0
H1157 H 0.43488 0.97846 0.49648 0.0
H1158 H 0.54229 0.98079 0.50476 0.0
H1159 H 0.45703 0.01815 0.51459 0.0
H1160 H 0.50328 0.0704 0.56193 0.0
H1161 H 0.48079 0.0308 0.54379 0.0
H1162 H 0.55314 0.03124 0.5036 0.0
H1163 H 0.57606 0.07017 0.52218 0.0
C1164 C 0.50609 0.95803 0.49227 0.0
C1165 C 0.47569 0.95674 0.48972 0.0
C1166 C 0.51883 0.98075 0.50292 0.0
C1167 C 0.50155 1.0029 0.51119 0.0
C1168 C 0.4711 1.00137 0.50874 0.0
C1169 C 0.45838 0.97858 0.49824 0.0
C1170 C 0.51429 0.06222 0.54915 0.0
C1171 C 0.5415 0.07352 0.54356 0.0
C1172 C 0.50134 0.03947 0.53866 0.0
C1173 C 0.51513 0.02754 0.5222 0.0
C1174 C 0.54208 0.03935 0.51639 0.0
C1175 C 0.55512 0.06194 0.52696 0.0
H1176 H 0.19292 0.31248 0.76708 0.0
H1177 H 0.23169 0.28497 0.82131 0.0
H1178 H 0.22616 0.2799 0.7494 0.0
H1179 H 0.2644 0.25255 0.80377 0.0
H1180 H 0.29168 0.17337 0.76702 0.0
H1181 H 0.25858 0.20673 0.78349 0.0
H1182 H 0.28248 0.27517 0.74359 0.0
H1183 H 0.31605 0.24168 0.72706 0.0
C1184 C 0.20833 0.29937 0.77522 0.0
C1185 C 0.20961 0.30125 0.7956 0.0
C1186 C 0.22749 0.28094 0.7651 0.0
C1187 C 0.24787 0.2637 0.77522 0.0
C1188 C 0.24882 0.2654 0.79558 0.0
C1189 C 0.2301 0.28407 0.80562 0.0
C1190 C 0.29004 0.19555 0.76177 0.0
C1191 C 0.30663 0.20489 0.74577 0.0
C1192 C 0.27108 0.21467 0.77124 0.0
C1193 C 0.26788 0.24354 0.76481 0.0
C1194 C 0.28434 0.25296 0.74876 0.0
C1195 C 0.30374 0.23389 0.73943 0.0
H1196 H 0.05183 0.09229 1.00477 0.0
H1197 H 0.0647 0.02144 0.9644 0.0
H1198 H 0.01936 0.06158 0.02401 0.0
H1199 H 0.03174 0.99113 0.98321 0.0
H1200 H 0.99344 0.93472 0.03164 0.0
H1201 H 0.02722 0.96509 1.01313 0.0
H1202 H 0.97208 0.03995 0.02313 0.0
H1203 H 0.93896 1.00991 0.04198 0.0
C1204 C 0.0476 0.07025 0.99993 0.0
C1205 C 0.06089 0.05938 0.98304 0.0
C1206 C 0.02887 0.05264 1.01091 0.0
C1207 C 0.02286 0.02377 1.0052 0.0
C1208 C 0.03617 0.01301 0.98827 0.0
C1209 C 0.05496 0.03054 0.97738 0.0
C1210 C 0.98855 0.95765 0.02984 0.0
C1211 C 0.96351 0.96985 0.03833 0.0
C1212 C 1.00786 0.97508 0.01917 0.0
C1213 C 1.0025 1.00509 0.01665 0.0
C1214 C 0.97728 0.01711 0.02503 0.0
C1215 C 0.95812 0.99977 0.03574 0.0
H1216 H 0.76262 0.85652 0.74602 0.0
H1217 H 0.81544 0.78164 0.73166 0.0
H1218 H 0.72916 0.82536 0.76397 0.0
H1219 H 0.78149 0.75026 0.74961 0.0
H1220 H 0.69551 0.70265 0.76861 0.0
H1221 H 0.72669 0.73354 0.74818 0.0
H1222 H 0.73404 0.79555 0.79505 0.0
H1223 H 0.70341 0.76478 0.81541 0.0
C1224 C 0.76706 0.83336 0.74662 0.0
C1225 C 0.79182 0.82159 0.73747 0.0
C1226 C 0.74787 0.81553 0.75695 0.0
C1227 C 0.75267 0.78538 0.75818 0.0
C1228 C 0.77712 0.77342 0.74876 0.0
C1229 C 0.79666 0.79139 0.73863 0.0
C1230 C 0.70345 0.72309 0.7744 0.0
C1231 C 0.69693 0.73134 0.7936 0.0
C1232 C 0.72153 0.74059 0.7628 0.0
C1233 C 0.73288 0.7669 0.77005 0.0
C1234 C 0.72551 0.7755 0.78901 0.0
C1235 C 0.70797 0.75784 0.80067 0.0
H1236 H 0.76249 0.17189 0.24208 0.0
H1237 H 0.70074 0.24293 0.24014 0.0
H1238 H 0.79595 0.20175 0.26092 0.0
H1239 H 0.73461 0.27306 0.25913 0.0
H1240 H 0.81991 0.32519 0.27345 0.0
H1241 H 0.78502 0.29609 0.25477 0.0
H1242 H 0.79826 0.22395 0.29404 0.0
H1243 H 0.83296 0.2529 0.31271 0.0
C1244 C 0.75598 0.1939 0.24572 0.0
C1245 C 0.72889 0.20502 0.23959 0.0
C1246 C 0.77517 0.21097 0.25661 0.0
C1247 C 0.76796 0.23976 0.26152 0.0
C1248 C 0.74085 0.251 0.25543 0.0
C1249 C 0.72139 0.23371 0.24469 0.0
C1250 C 0.81551 0.30306 0.27802 0.0
C1251 C 0.82935 0.29134 0.29454 0.0
C1252 C 0.79531 0.28651 0.26743 0.0
C1253 C 0.78882 0.25776 0.27296 0.0
C1254 C 0.80293 0.24597 0.28933 0.0
C1255 C 0.82281 0.26259 0.30004 0.0
H1256 H 0.76803 0.17027 0.789 0.0
H1257 H 0.82923 0.24168 0.79115 0.0
H1258 H 0.73385 0.20048 0.77092 0.0
H1259 H 0.79471 0.27209 0.77291 0.0
H1260 H 0.71087 0.32476 0.75768 0.0
H1261 H 0.74473 0.29523 0.77693 0.0
H1262 H 0.731 0.22278 0.73803 0.0
H1263 H 0.6973 0.25215 0.71882 0.0
C1264 C 0.77424 0.19245 0.78562 0.0
C1265 C 0.80146 0.20352 0.79151 0.0
C1266 C 0.75463 0.20973 0.77516 0.0
C1267 C 0.76154 0.23867 0.77044 0.0
C1268 C 0.78865 0.24993 0.77647 0.0
C1269 C 0.80849 0.23247 0.78679 0.0
C1270 C 0.71487 0.30244 0.75334 0.0
C1271 C 0.70128 0.2908 0.73672 0.0
C1272 C 0.73448 0.28563 0.76427 0.0
C1273 C 0.74064 0.25669 0.75898 0.0
C1274 C 0.72659 0.24492 0.74259 0.0
C1275 C 0.70728 0.26179 0.73155 0.0
H1276 H 0.69363 0.79156 0.2881 0.0
H1277 H 0.76479 0.85109 0.29874 0.0
H1278 H 0.7276 0.7578 0.2723 0.0
H1279 H 0.79832 0.8178 0.28291 0.0
H1280 H 0.85594 0.73828 0.27336 0.0
H1281 H 0.82077 0.77062 0.28886 0.0
H1282 H 0.75866 0.75287 0.24315 0.0
H1283 H 0.7937 0.72021 0.22774 0.0
C1284 C 0.71641 0.79753 0.28699 0.0
C1285 C 0.72644 0.82401 0.29477 0.0
C1286 C 0.73587 0.77824 0.27788 0.0
C1287 C 0.76577 0.78497 0.27647 0.0
C1288 C 0.77559 0.81163 0.28404 0.0
C1289 C 0.75623 0.83085 0.29303 0.0
C1290 C 0.83481 0.74125 0.26659 0.0
C1291 C 0.82776 0.72667 0.24926 0.0
C1292 C 0.81465 0.75991 0.27544 0.0
C1293 C 0.78686 0.76444 0.26723 0.0
C1294 C 0.77972 0.74967 0.24998 0.0
C1295 C 0.79993 0.73109 0.24107 0.0
H1296 H 0.54316 0.42695 0.02089 0.0
H1297 H 0.56405 0.50165 0.05642 0.0
H1298 H 0.50949 0.4569 1.00184 0.0
H1299 H 0.53009 0.53121 0.03782 0.0
H1300 H 0.48799 0.58386 0.9892 0.0
H1301 H 0.52313 0.55362 1.0067 0.0
H1302 H 0.46314 0.48119 1.00443 0.0
H1303 H 0.42845 0.51111 0.98658 0.0
C1304 C 0.5405 0.44969 0.02469 0.0
C1305 C 0.55633 0.46185 0.04018 0.0
C1306 C 0.5211 0.46686 0.01383 0.0
C1307 C 0.51705 0.49657 0.01824 0.0
C1308 C 0.53295 0.50861 0.03375 0.0
C1309 C 0.55232 0.49152 0.04454 0.0
C1310 C 0.48233 0.56148 0.99243 0.0
C1311 C 0.45537 0.54997 0.98649 0.0
C1312 C 0.50243 0.54414 1.00254 0.0
C1313 C 0.49603 0.51488 1.00701 0.0
C1314 C 0.46906 0.50343 1.001 0.0
C1315 C 0.44904 0.52072 0.99087 0.0
H1316 H 0.05058 0.43751 0.5015 0.0
H1317 H 0.0658 0.51221 0.46473 0.0
H1318 H 0.01767 0.46655 0.52152 0.0
H1319 H 0.03233 0.54092 0.4843 0.0
H1320 H 0.99189 0.59256 0.53443 0.0
H1321 H 0.02638 0.564 0.51516 0.0
H1322 H 0.97076 0.48854 0.52083 0.0
H1323 H 0.93704 0.51667 0.54044 0.0
C1324 C 0.04675 0.46004 0.4976 0.0
C1325 C 0.06083 0.47247 0.4815 0.0
C1326 C 0.02777 0.47672 0.50903 0.0
C1327 C 0.02225 0.50619 0.50457 0.0
C1328 C 0.03635 0.51851 0.48842 0.0
C1329 C 0.05542 0.50191 0.47708 0.0
C1330 C 0.98708 0.56988 0.53153 0.0
C1331 C 0.96175 0.55692 0.53904 0.0
C1332 C 1.00678 0.55349 0.52041 0.0
C1333 C 1.0015 0.52382 0.51647 0.0
C1334 C 0.97595 0.51109 0.52386 0.0
C1335 C 0.95644 0.52736 0.53502 0.0
H1336 H 0.09253 0.52403 0.03536 0.0
H1337 H 0.02774 0.59093 0.04442 0.0
H1338 H 0.05697 0.4948 0.01786 0.0
H1339 H 0.99168 0.56119 0.0275 0.0
H1340 H 0.94325 0.51536 0.97849 0.0
H1341 H 0.97844 0.54425 0.99641 0.0
H1342 H 0.0147 0.46569 0.02128 0.0
H1343 H 0.97993 0.43658 1.00263 0.0
C1344 C 0.0706 0.53245 0.03372 0.0
C1345 C 0.06302 0.5599 0.04125 0.0
C1346 C 0.05007 0.51552 0.02379 0.0
C1347 C 0.02129 0.52544 0.02125 0.0
C1348 C 0.01371 0.55294 0.02886 0.0
C1349 C 0.03436 0.57001 0.03865 0.0
C1350 C 0.95867 0.50417 0.98781 0.0
C1351 C 0.95876 0.47359 0.98909 0.0
C1352 C 0.9788 0.52083 0.99823 0.0
C1353 C 0.9995 0.50746 1.01041 0.0
C1354 C 0.99941 0.47681 1.01184 0.0
C1355 C 0.97936 0.46007 1.00124 0.0
H1356 H 0.56138 0.51691 0.46448 0.0
H1357 H 0.56493 0.57951 0.51125 0.0
H1358 H 0.53247 0.48436 0.48464 0.0
H1359 H 0.536 0.54642 0.53168 0.0
H1360 H 0.51807 0.45955 0.56657 0.0
H1361 H 0.54444 0.49515 0.54681 0.0
H1362 H 0.48231 0.48321 0.50033 0.0
H1363 H 0.45576 0.44785 0.52007 0.0
C1364 C 0.55587 0.52379 0.47908 0.0
C1365 C 0.5655 0.55078 0.4863 0.0
C1366 C 0.53917 0.50516 0.49059 0.0
C1367 C 0.53202 0.51279 0.50974 0.0
C1368 C 0.54137 0.53991 0.51699 0.0
C1369 C 0.55773 0.5589 0.50528 0.0
C1370 C 0.51009 0.46443 0.5521 0.0
C1371 C 0.48489 0.4507 0.54485 0.0
C1372 C 0.52503 0.48504 0.54089 0.0
C1373 C 0.51537 0.49205 0.52207 0.0
C1374 C 0.49032 0.47818 0.51477 0.0
C1375 C 0.47514 0.45791 0.52607 0.0
H1376 H 0.20399 0.07971 0.29179 0.0
H1377 H 0.11065 0.0686 0.28764 0.0
H1378 H 0.21095 0.03195 0.27601 0.0
H1379 H 0.11765 0.02123 0.27248 0.0
H1380 H 0.14395 0.92488 0.27066 0.0
H1381 H 0.14454 0.97193 0.28688 0.0
H1382 H 0.19156 1.00919 0.2387 0.0
H1383 H 0.19061 0.96181 0.22199 0.0
C1384 C 0.18507 0.06702 0.28768 0.0
C1385 C 0.15679 0.07782 0.29096 0.0
C1386 C 0.18905 0.03992 0.27856 0.0
C1387 C 0.16479 0.02309 0.27308 0.0
C1388 C 0.13667 0.0338 0.27662 0.0
C1389 C 0.13271 0.06093 0.28528 0.0
C1390 C 0.15474 0.9429 0.2635 0.0
C1391 C 0.16703 0.93961 0.24492 0.0
C1392 C 0.15507 0.96983 0.27286 0.0
C1393 C 0.16811 0.99404 0.26403 0.0
C1394 C 0.18158 0.99069 0.24584 0.0
C1395 C 0.18086 0.96368 0.23626 0.0
H1396 H 0.17407 0.89807 0.50329 0.0
H1397 H 0.2055 0.93111 0.55823 0.0
H1398 H 0.22213 0.90426 0.48928 0.0
H1399 H 0.25372 0.93835 0.54393 0.0
H1400 H 0.30768 0.93345 0.46416 0.0
H1401 H 0.25887 0.93661 0.47825 0.0
H1402 H 0.29343 0.90897 0.53375 0.0
H1403 H 0.34197 0.90686 0.51992 0.0
C1404 C 0.19115 0.90712 0.51234 0.0
C1405 C 0.18595 0.91384 0.53197 0.0
C1406 C 0.21877 0.91091 0.5042 0.0
C1407 C 0.24199 0.92173 0.51543 0.0
C1408 C 0.23651 0.9295 0.53491 0.0
C1409 C 0.20882 0.92553 0.5431 0.0
C1410 C 0.30484 0.92838 0.47941 0.0
C1411 C 0.32873 0.91974 0.49086 0.0
C1412 C 0.27683 0.93002 0.48749 0.0
C1413 C 0.27206 0.92291 0.50717 0.0
C1414 C 0.29618 0.91506 0.51866 0.0
C1415 C 0.3241 0.91359 0.51064 0.0
H1416 H 0.41064 0.08223 0.75513 0.0
H1417 H 0.32612 0.06932 0.72864 0.0
H1418 H 0.40762 0.03426 0.7701 0.0
H1419 H 0.32298 0.02106 0.7442 0.0
H1420 H 0.33062 0.95357 0.80119 0.0
H1421 H 0.32743 1.00159 0.78533 0.0
H1422 H 0.40252 0.98051 0.75041 0.0
H1423 H 0.40549 0.93279 0.76569 0.0
C1424 C 0.39128 0.06925 0.75261 0.0
C1425 C 0.36865 0.07952 0.74062 0.0
C1426 C 0.38961 0.04181 0.7612 0.0
C1427 C 0.36506 0.02417 0.75831 0.0
C1428 C 0.34204 0.03447 0.74669 0.0
C1429 C 0.34395 0.06188 0.73772 0.0
C1430 C 0.34625 0.95917 0.79002 0.0
C1431 C 0.36836 0.93943 0.78475 0.0
C1432 C 0.34429 0.98647 0.7809 0.0
C1433 C 0.36473 0.99452 0.76669 0.0
C1434 C 0.38652 0.97471 0.76132 0.0
C1435 C 0.38816 0.9474 0.7701 0.0
H1436 H 0.34746 0.13391 1.00613 0.0
H1437 H 0.31688 0.09598 0.05981 0.0
H1438 H 0.29948 0.12774 0.99184 0.0
H1439 H 0.26877 0.08887 0.04522 0.0
H1440 H 0.17964 0.11963 0.02162 0.0
H1441 H 0.22813 0.11782 0.03571 0.0
H1442 H 0.26388 0.09474 0.97971 0.0
H1443 H 0.21514 0.09753 0.96541 0.0
C1444 C 0.33058 0.12385 0.01483 0.0
C1445 C 0.33601 0.11564 0.0342 0.0
C1446 C 0.30302 0.12008 1.00654 0.0
C1447 C 0.28008 0.10782 0.01732 0.0
C1448 C 0.28575 0.09879 0.03655 0.0
C1449 C 0.31338 0.10272 0.0449 0.0
C1450 C 0.19776 0.11391 1.01229 0.0
C1451 C 0.19348 0.10897 0.99231 0.0
C1452 C 0.22566 0.11265 0.02045 0.0
C1453 C 0.25009 0.10626 1.00889 0.0
C1454 C 0.24566 0.10022 0.98902 0.0
C1455 C 0.21769 0.10162 0.98081 0.0
H1456 H 0.84413 0.06268 0.81264 0.0
H1457 H 0.87144 0.09672 0.75704 0.0
H1458 H 0.83816 0.01451 0.79809 0.0
H1459 H 0.86638 0.0487 0.74271 0.0
H1460 H 0.83619 0.9631 0.71779 0.0
H1461 H 0.83348 1.01135 0.73265 0.0
H1462 H 0.86842 0.9762 0.7861 0.0
H1463 H 0.87025 0.92811 0.77152 0.0
C1464 C 0.84878 0.05992 0.79732 0.0
C1465 C 0.8584 0.08355 0.78605 0.0
C1466 C 0.84551 0.03227 0.78898 0.0
C1467 C 0.85189 0.0276 0.7692 0.0
C1468 C 0.86083 0.05146 0.75789 0.0
C1469 C 0.86397 0.07904 0.76618 0.0
C1470 C 0.843 0.96567 0.73277 0.0
C1471 C 0.85357 0.94175 0.74341 0.0
C1472 C 0.84161 0.99336 0.74127 0.0
C1473 C 0.85087 0.99779 0.76058 0.0
C1474 C 0.86071 0.97365 0.77132 0.0
C1475 C 0.86198 0.94602 0.76286 0.0
H1476 H 0.68419 0.15844 0.51717 0.0
H1477 H 0.70523 0.08341 0.55246 0.0
H1478 H 0.73226 0.15616 0.50223 0.0
H1479 H 0.75355 0.08084 0.53692 0.0
H1480 H 0.82025 0.07958 0.47982 0.0
H1481 H 0.77236 0.07658 0.49584 0.0
H1482 H 0.78649 0.161 0.52159 0.0
H1483 H 0.83421 0.16386 0.50615 0.0
C1484 C 0.69896 0.14126 0.52162 0.0
C1485 C 0.69094 0.12113 0.53605 0.0
C1486 C 0.72646 0.14002 0.51305 0.0
C1487 C 0.74639 0.1183 0.51842 0.0
C1488 C 0.73835 0.09767 0.53251 0.0
C1489 C 0.71088 0.09926 0.54143 0.0
C1490 C 0.81314 0.09737 0.48899 0.0
C1491 C 0.83095 0.12199 0.49168 0.0
C1492 C 0.78593 0.09555 0.49822 0.0
C1493 C 0.77597 0.11856 0.50992 0.0
C1494 C 0.7938 0.143 0.51265 0.0
C1495 C 0.82108 0.14458 0.50379 0.0
H1496 H 0.66044 0.10065 0.27138 0.0
H1497 H 0.69098 0.06442 0.21717 0.0
H1498 H 0.66402 0.05314 0.28658 0.0
H1499 H 0.69558 0.01671 0.23264 0.0
H1500 H 0.66032 0.93171 0.25932 0.0
H1501 H 0.66446 0.97917 0.24411 0.0
H1502 H 0.69488 0.01555 0.29839 0.0
H1503 H 0.68969 0.96793 0.31386 0.0
C1504 C 0.66835 0.08259 0.26274 0.0
C1505 C 0.6752 0.08635 0.24298 0.0
C1506 C 0.67064 0.05528 0.27155 0.0
C1507 C 0.68005 0.03092 0.26089 0.0
C1508 C 0.68781 0.03486 0.24125 0.0
C1509 C 0.68534 0.06224 0.23238 0.0
C1510 C 0.66811 0.94974 0.26803 0.0
C1511 C 0.67444 0.94602 0.28789 0.0
C1512 C 0.67073 0.97702 0.25922 0.0
C1513 C 0.67993 1.00137 0.26997 0.0
C1514 C 0.68725 0.99743 0.28971 0.0
C1515 C 0.68445 0.97008 0.29858 0.0
H1516 H 0.68157 0.91106 0.02338 0.0
H1517 H 0.71523 0.94057 0.96818 0.0
H1518 H 0.72999 0.91437 0.03747 0.0
H1519 H 0.76383 0.94481 0.98252 0.0
H1520 H 0.84951 0.9072 1.00713 0.0
H1521 H 0.80122 0.91247 0.99317 0.0
H1522 H 0.76902 0.94489 0.04806 0.0
H1523 H 0.81753 0.9387 0.06229 0.0
C1524 C 0.69925 0.9187 0.01429 0.0
C1525 C 0.69453 0.92529 0.99457 0.0
C1526 C 0.72708 0.92084 0.02246 0.0
C1527 C 0.75097 0.92975 1.01116 0.0
C1528 C 0.74604 0.9374 0.99159 0.0
C1529 C 0.71815 0.93514 0.98338 0.0
C1530 C 0.83224 0.91567 0.01624 0.0
C1531 C 0.83738 0.92228 0.03591 0.0
C1532 C 0.80449 0.91894 1.00814 0.0
C1533 C 0.78107 0.92905 0.01945 0.0
C1534 C 0.78643 0.93662 0.03898 0.0
C1535 C 0.81427 0.93323 0.04713 0.0
H1536 H 0.69273 0.46189 0.71769 0.0
H1537 H 0.66218 0.42979 0.77305 0.0
H1538 H 0.6996 0.51016 0.73198 0.0
H1539 H 0.66803 0.47783 0.78706 0.0
H1540 H 0.66389 0.59691 0.75666 0.0
H1541 H 0.66918 0.5489 0.74251 0.0
H1542 H 0.6996 0.51561 0.7977 0.0
H1543 H 0.69326 0.56386 0.81213 0.0
C1544 C 0.68765 0.46506 0.73291 0.0
C1545 C 0.67667 0.442 0.74415 0.0
C1546 C 0.69144 0.49277 0.7411 0.0
C1547 C 0.68422 0.49806 0.7607 0.0
C1548 C 0.67426 0.47464 0.77204 0.0
C1549 C 0.67062 0.44703 0.7639 0.0
C1550 C 0.67204 0.57948 0.76579 0.0
C1551 C 0.67779 0.58421 0.78563 0.0
C1552 C 0.67532 0.55187 0.75758 0.0
C1553 C 0.68462 0.52816 0.76894 0.0
C1554 C 0.69187 0.53322 0.78857 0.0
C1555 C 0.68845 0.56093 0.79684 0.0
H1556 H 0.84404 0.41098 0.02052 0.0
H1557 H 0.81052 0.44431 0.96618 0.0
H1558 H 0.79578 0.41387 0.03467 0.0
H1559 H 0.76199 0.44822 0.98065 0.0
H1560 H 0.70859 0.43517 0.06034 0.0
H1561 H 0.75687 0.4431 0.04629 0.0
H1562 H 0.72434 0.4158 0.9902 0.0
H1563 H 0.67625 0.40894 1.00402 0.0
C1564 C 0.82643 0.41942 1.01165 0.0
C1565 C 0.83115 0.42712 0.99211 0.0
C1566 C 0.79867 0.42132 0.01987 0.0
C1567 C 0.77479 0.43116 1.00884 0.0
C1568 C 0.77974 0.44006 0.98951 0.0
C1569 C 0.8076 0.43801 0.98122 0.0
C1570 C 0.71171 0.43126 0.04497 0.0
C1571 C 0.68857 0.42122 0.03337 0.0
C1572 C 0.73944 0.43563 0.0369 0.0
C1573 C 0.74469 0.42992 0.01708 0.0
C1574 C 0.7212 0.42085 1.00542 0.0
C1575 C 0.69355 0.41665 1.01343 0.0
H1576 H 0.86855 0.42876 0.256 0.0
H1577 H 0.84816 0.46258 0.31297 0.0
H1578 H 0.86374 0.47718 0.24228 0.0
H1579 H 0.84234 0.51123 0.29905 0.0
H1580 H 0.83654 0.56484 0.21924 0.0
H1581 H 0.83227 0.51645 0.23378 0.0
H1582 H 0.87306 0.54834 0.28627 0.0
H1583 H 0.87642 0.59655 0.27206 0.0
C1584 C 0.86258 0.44648 0.26559 0.0
C1585 C 0.85899 0.44178 0.28565 0.0
C1586 C 0.85958 0.47432 0.25765 0.0
C1587 C 0.85274 0.49828 0.26951 0.0
C1588 C 0.8481 0.4934 0.2895 0.0
C1589 C 0.85125 0.46547 0.29748 0.0
C1590 C 0.84429 0.56154 0.23395 0.0
C1591 C 0.85697 0.58456 0.24442 0.0
C1592 C 0.842 0.53375 0.24228 0.0
C1593 C 0.85244 0.52834 0.26122 0.0
C1594 C 0.86437 0.55165 0.2718 0.0
C1595 C 0.86653 0.57935 0.26354 0.0
H1596 H 0.71147 0.6596 0.48754 0.0
H1597 H 0.69925 0.56651 0.48374 0.0
H1598 H 0.75857 0.65208 0.50321 0.0
H1599 H 0.74662 0.55904 0.50004 0.0
H1600 H 0.81508 0.57985 0.55532 0.0
H1601 H 0.76842 0.57854 0.53761 0.0
H1602 H 0.808 0.62421 0.48968 0.0
H1603 H 0.85431 0.62516 0.50687 0.0
C1604 C 0.71888 0.6375 0.49005 0.0
C1605 C 0.70176 0.61363 0.48435 0.0
C1606 C 0.74582 0.63324 0.49901 0.0
C1607 C 0.75605 0.60502 0.50284 0.0
C1608 C 0.73902 0.581 0.49727 0.0
C1609 C 0.71216 0.58527 0.48785 0.0
C1610 C 0.81391 0.58912 0.54087 0.0
C1611 C 0.83835 0.60287 0.53262 0.0
C1612 C 0.7873 0.58823 0.53073 0.0
C1613 C 0.78477 0.60138 0.51236 0.0
C1614 C 0.80945 0.614 0.50385 0.0
C1615 C 0.83595 0.61455 0.51377 0.0
H1616 H 0.33752 0.56367 0.31319 0.0
H1617 H 0.36201 0.59906 0.25738 0.0
H1618 H 0.33178 0.51562 0.29836 0.0
H1619 H 0.35734 0.55127 0.2428 0.0
H1620 H 0.33034 0.46544 0.2174 0.0
H1621 H 0.32597 0.51322 0.23272 0.0
H1622 H 0.36217 0.47812 0.28583 0.0
H1623 H 0.36551 0.43044 0.2708 0.0
C1624 C 0.34153 0.56125 0.29777 0.0
C1625 C 0.35038 0.5852 0.28652 0.0
C1626 C 0.33843 0.53367 0.28926 0.0
C1627 C 0.34424 0.52941 0.26935 0.0
C1628 C 0.35223 0.55364 0.25807 0.0
C1629 C 0.35516 0.58113 0.26652 0.0
C1630 C 0.33707 0.46791 0.2324 0.0
C1631 C 0.34843 0.44414 0.24281 0.0
C1632 C 0.33472 0.49535 0.24118 0.0
C1633 C 0.34387 0.4997 0.26053 0.0
C1634 C 0.35448 0.47565 0.27104 0.0
C1635 C 0.35664 0.44825 0.26232 0.0
H1636 H 0.30747 0.588 0.96662 0.0
H1637 H 0.34414 0.61712 0.0211 0.0
H1638 H 0.25948 0.58461 0.98187 0.0
H1639 H 0.29638 0.61464 0.0361 0.0
H1640 H 0.20993 0.5912 0.06274 0.0
H1641 H 0.25761 0.58463 0.04751 0.0
H1642 H 0.22287 0.61729 0.9933 0.0
H1643 H 0.17534 0.62294 1.00828 0.0
C1644 C 0.30535 0.59353 0.98185 0.0
C1645 C 0.32965 0.60301 0.99257 0.0
C1646 C 0.2778 0.59176 0.99059 0.0
C1647 C 0.27391 0.59951 1.01024 0.0
C1648 C 0.29847 0.6081 0.02105 0.0
C1649 C 0.32593 0.60975 1.01236 0.0
C1650 C 0.21245 0.59666 0.04752 0.0
C1651 C 0.18883 0.60775 0.03679 0.0
C1652 C 0.23983 0.59305 0.03879 0.0
C1653 C 0.24424 0.60055 0.01915 0.0
C1654 C 0.22033 0.61086 1.00834 0.0
C1655 C 0.19302 0.61435 0.01702 0.0
H1656 H 0.20711 0.42751 0.76399 0.0
H1657 H 0.15696 0.46334 0.81139 0.0
H1658 H 0.21047 0.47566 0.7493 0.0
H1659 H 0.15947 0.51133 0.79642 0.0
H1660 H 0.18317 0.59882 0.77212 0.0
H1661 H 0.18884 0.55178 0.78796 0.0
H1662 H 0.17972 0.50888 0.73237 0.0
H1663 H 0.17504 0.55617 0.71646 0.0
C1664 C 0.19699 0.44572 0.77137 0.0
C1665 C 0.18168 0.44153 0.78885 0.0
C1666 C 0.1987 0.47333 0.76284 0.0
C1667 C 0.18499 0.49746 0.7715 0.0
C1668 C 0.17062 0.49341 0.78939 0.0
C1669 C 0.16909 0.46582 0.79799 0.0
C1670 C 0.18268 0.57935 0.76324 0.0
C1671 C 0.17849 0.58124 0.74303 0.0
C1672 C 0.18574 0.55232 0.77236 0.0
C1673 C 0.18443 0.52638 0.76154 0.0
C1674 C 0.18119 0.52834 0.7412 0.0
C1675 C 0.17838 0.55547 0.73204 0.0
H1676 H 0.21167 0.445 0.47284 0.0
H1677 H 0.17657 0.38828 0.51716 0.0
H1678 H 0.25882 0.44531 0.49002 0.0
H1679 H 0.22348 0.38826 0.53378 0.0
H1680 H 0.32475 0.36106 0.52929 0.0
H1681 H 0.27717 0.36821 0.51415 0.0
H1682 H 0.27679 0.45784 0.53278 0.0
H1683 H 0.3246 0.4506 0.54857 0.0
C1684 C 0.21388 0.43289 0.48627 0.0
C1685 C 0.19039 0.41652 0.49356 0.0
C1686 C 0.24073 0.43323 0.49611 0.0
C1687 C 0.24453 0.4169 0.5132 0.0
C1688 C 0.22094 0.40113 0.52068 0.0
C1689 C 0.19412 0.40115 0.51109 0.0
C1690 C 0.3146 0.38233 0.53024 0.0
C1691 C 0.32838 0.40527 0.54016 0.0
C1692 C 0.2874 0.38636 0.52155 0.0
C1693 C 0.27359 0.41357 0.52224 0.0
C1694 C 0.28725 0.43671 0.53201 0.0
C1695 C 0.31438 0.4325 0.54112 0.0
loop_
_geom_bond_atom_site_label_1
_geom_bond_atom_site_label_2
_geom_bond_distance
_geom_bond_site_symmetry_2
_ccdc_geom_bond_type
Mg0 O7 2.141 . S
Mg0 O8 2.048 . S
Mg0 O9 2.048 . S
Mg0 O12 2.141 . S
C1 O2 1.313 . S
C1 O8 1.195 . S
O2 C1 1.313 . S
C3 O4 1.245 . S
C3 O12 1.289 . S
O4 C3 1.245 . S
C5 O6 1.245 . S
C5 O7 1.289 . S
O6 C5 1.245 . S
O7 Mg0 2.141 . S
O7 C5 1.289 . S
O8 Mg0 2.048 . S
O8 C1 1.195 . S
O9 Mg0 2.048 . S
O9 C10 1.195 . S
C10 O9 1.195 . S
C10 O11 1.313 . S
O11 C10 1.313 . S
O12 Mg0 2.141 . S
O12 C3 1.289 . S
Mg13 O20 2.141 . S
Mg13 O21 2.048 . S
Mg13 O22 2.048 . S
Mg13 O25 2.141 . S
C14 O15 1.313 . S
C14 O21 1.195 . S
O15 C14 1.313 . S
C16 O17 1.245 . S
C16 O25 1.289 . S
O17 C16 1.245 . S
C18 O19 1.245 . S
C18 O20 1.289 . S
O19 C18 1.245 . S
O20 Mg13 2.141 . S
O20 C18 1.289 . S
O21 Mg13 2.048 . S
O21 C14 1.195 . S
O22 Mg13 2.048 . S
O22 C23 1.195 . S
C23 O22 1.195 . S
C23 O24 1.313 . S
O24 C23 1.313 . S
O25 Mg13 2.141 . S
O25 C16 1.289 . S
Mg26 O33 2.141 . S
Mg26 O34 2.048 . S
Mg26 O35 2.048 . S
Mg26 O38 2.141 . S
C27 O28 1.313 . S
C27 O34 1.195 . S
O28 C27 1.313 . S
C29 O30 1.245 . S
C29 O38 1.289 . S
O30 C29 1.245 . S
C31 O32 1.245 . S
C31 O33 1.289 . S
O32 C31 1.245 . S
O33 Mg26 2.141 . S
O33 C31 1.289 . S
O34 Mg26 2.048 . S
O34 C27 1.195 . S
O35 Mg26 2.048 . S
O35 C36 1.195 . S
C36 O35 1.195 . S
C36 O37 1.313 . S
O37 C36 1.313 . S
O38 Mg26 2.141 . S
O38 C29 1.289 . S
Mg39 O46 2.141 . S
Mg39 O47 2.048 . S
Mg39 O48 2.048 . S
Mg39 O51 2.141 . S
C40 O41 1.313 . S
C40 O47 1.195 . S
O41 C40 1.313 . S
C42 O43 1.245 . S
C42 O51 1.289 . S
O43 C42 1.245 . S
C44 O45 1.245 . S
C44 O46 1.289 . S
O45 C44 1.245 . S
O46 Mg39 2.141 . S
O46 C44 1.289 . S
O47 Mg39 2.048 . S
O47 C40 1.195 . S
O48 Mg39 2.048 . S
O48 C49 1.195 . S
C49 O48 1.195 . S
C49 O50 1.313 . S
O50 C49 1.313 . S
O51 Mg39 2.141 . S
O51 C42 1.289 . S
Mg52 O59 2.141 . S
Mg52 O60 2.048 . S
Mg52 O61 2.048 . S
Mg52 O64 2.141 . S
C53 O54 1.313 . S
C53 O60 1.195 . S
O54 C53 1.313 . S
C55 O56 1.245 . S
C55 O64 1.289 . S
O56 C55 1.245 . S
C57 O58 1.245 . S
C57 O59 1.289 . S
O58 C57 1.245 . S
O59 Mg52 2.141 . S
O59 C57 1.289 . S
O60 Mg52 2.048 . S
O60 C53 1.195 . S
O61 Mg52 2.048 . S
O61 C62 1.195 . S
C62 O61 1.195 . S
C62 O63 1.313 . S
O63 C62 1.313 . S
O64 Mg52 2.141 . S
O64 C55 1.289 . S
Mg65 O72 2.141 . S
Mg65 O73 2.048 . S
Mg65 O74 2.048 . S
Mg65 O77 2.141 . S
C66 O67 1.313 . S
C66 O73 1.195 . S
O67 C66 1.313 . S
C68 O69 1.245 . S
C68 O77 1.289 . S
O69 C68 1.245 . S
C70 O71 1.245 . S
C70 O72 1.289 . S
O71 C70 1.245 . S
O72 Mg65 2.141 . S
O72 C70 1.289 . S
O73 Mg65 2.048 . S
O73 C66 1.195 . S
O74 Mg65 2.048 . S
O74 C75 1.195 . S
C75 O74 1.195 . S
C75 O76 1.313 . S
O76 C75 1.313 . S
O77 Mg65 2.141 . S
O77 C68 1.289 . S
Mg78 O85 2.141 . S
Mg78 O86 2.048 . S
Mg78 O87 2.048 . S
Mg78 O90 2.141 . S
C79 O80 1.313 . S
C79 O86 1.195 . S
O80 C79 1.313 . S
C81 O82 1.245 . S
C81 O90 1.289 . S
O82 C81 1.245 . S
C83 O84 1.245 . S
C83 O85 1.289 . S
O84 C83 1.245 . S
O85 Mg78 2.141 . S
O85 C83 1.289 . S
O86 Mg78 2.048 . S
O86 C79 1.195 . S
O87 Mg78 2.048 . S
O87 C88 1.195 . S
C88 O87 1.195 . S
C88 O89 1.313 . S
O89 C88 1.313 . S
O90 Mg78 2.141 . S
O90 C81 1.289 . S
Mg91 O98 2.141 . S
Mg91 O99 2.048 . S
Mg91 O100 2.048 . S
Mg91 O103 2.141 . S
C92 O93 1.313 . S
C92 O99 1.195 . S
O93 C92 1.313 . S
C94 O95 1.245 . S
C94 O103 1.289 . S
O95 C94 1.245 . S
C96 O97 1.245 . S
C96 O98 1.289 . S
O97 C96 1.245 . S
O98 Mg91 2.141 . S
O98 C96 1.289 . S
O99 Mg91 2.048 . S
O99 C92 1.195 . S
O100 Mg91 2.048 . S
O100 C101 1.195 . S
C101 O100 1.195 . S
C101 O102 1.313 . S
O102 C101 1.313 . S
O103 Mg91 2.141 . S
O103 C94 1.289 . S
Mg104 O111 2.141 . S
Mg104 O112 2.048 . S
Mg104 O113 2.048 . S
Mg104 O116 2.141 . S
C105 O106 1.313 . S
C105 O112 1.195 . S
O106 C105 1.313 . S
C107 O108 1.245 . S
C107 O116 1.289 . S
O108 C107 1.245 . S
C109 O110 1.245 . S
C109 O111 1.289 . S
O110 C109 1.245 . S
O111 Mg104 2.141 . S
O111 C109 1.289 . S
O112 Mg104 2.048 . S
O112 C105 1.195 . S
O113 Mg104 2.048 . S
O113 C114 1.195 . S
C114 O113 1.195 . S
C114 O115 1.313 . S
O115 C114 1.313 . S
O116 Mg104 2.141 . S
O116 C107 1.289 . S
Mg117 O124 2.141 . S
Mg117 O125 2.048 . S
Mg117 O126 2.048 . S
Mg117 O129 2.141 . S
C118 O119 1.313 . S
C118 O125 1.195 . S
O119 C118 1.313 . S
C120 O121 1.245 . S
C120 O129 1.289 . S
O121 C120 1.245 . S
C122 O123 1.245 . S
C122 O124 1.289 . S
O123 C122 1.245 . S
O124 Mg117 2.141 . S
O124 C122 1.289 . S
O125 Mg117 2.048 . S
O125 C118 1.195 . S
O126 Mg117 2.048 . S
O126 C127 1.195 . S
C127 O126 1.195 . S
C127 O128 1.313 . S
O128 C127 1.313 . S
O129 Mg117 2.141 . S
O129 C120 1.289 . S
Mg130 O137 2.141 . S
Mg130 O138 2.048 . S
Mg130 O139 2.048 . S
Mg130 O142 2.141 . S
C131 O132 1.313 . S
C131 O138 1.195 . S
O132 C131 1.313 . S
C133 O134 1.245 . S
C133 O142 1.289 . S
O134 C133 1.245 . S
C135 O136 1.245 . S
C135 O137 1.289 . S
O136 C135 1.245 . S
O137 Mg130 2.141 . S
O137 C135 1.289 . S
O138 Mg130 2.048 . S
O138 C131 1.195 . S
O139 Mg130 2.048 . S
O139 C140 1.195 . S
C140 O139 1.195 . S
C140 O141 1.313 . S
O141 C140 1.313 . S
O142 Mg130 2.141 . S
O142 C133 1.289 . S
Mg143 O150 2.141 . S
Mg143 O151 2.048 . S
Mg143 O152 2.048 . S
Mg143 O155 2.141 . S
C144 O145 1.313 . S
C144 O151 1.195 . S
O145 C144 1.313 . S
C146 O147 1.245 . S
C146 O155 1.289 . S
O147 C146 1.245 . S
C148 O149 1.245 . S
C148 O150 1.289 . S
O149 C148 1.245 . S
O150 Mg143 2.141 . S
O150 C148 1.289 . S
O151 Mg143 2.048 . S
O151 C144 1.195 . S
O152 Mg143 2.048 . S
O152 C153 1.195 . S
C153 O152 1.195 . S
C153 O154 1.313 . S
O154 C153 1.313 . S
O155 Mg143 2.141 . S
O155 C146 1.289 . S
Mg156 O163 2.141 . S
Mg156 O164 2.048 . S
Mg156 O165 2.048 . S
Mg156 O168 2.141 . S
C157 O158 1.313 . S
C157 O164 1.195 . S
O158 C157 1.313 . S
C159 O160 1.245 . S
C159 O168 1.289 . S
O160 C159 1.245 . S
C161 O162 1.245 . S
C161 O163 1.289 . S
O162 C161 1.245 . S
O163 Mg156 2.141 . S
O163 C161 1.289 . S
O164 Mg156 2.048 . S
O164 C157 1.195 . S
O165 Mg156 2.048 . S
O165 C166 1.195 . S
C166 O165 1.195 . S
C166 O167 1.313 . S
O167 C166 1.313 . S
O168 Mg156 2.141 . S
O168 C159 1.289 . S
Mg169 O176 2.141 . S
Mg169 O177 2.048 . S
Mg169 O178 2.048 . S
Mg169 O181 2.141 . S
C170 O171 1.313 . S
C170 O177 1.195 . S
O171 C170 1.313 . S
C172 O173 1.245 . S
C172 O181 1.289 . S
O173 C172 1.245 . S
C174 O175 1.245 . S
C174 O176 1.289 . S
O175 C174 1.245 . S
O176 Mg169 2.141 . S
O176 C174 1.289 . S
O177 Mg169 2.048 . S
O177 C170 1.195 . S
O178 Mg169 2.048 . S
O178 C179 1.195 . S
C179 O178 1.195 . S
C179 O180 1.313 . S
O180 C179 1.313 . S
O181 Mg169 2.141 . S
O181 C172 1.289 . S
Mg182 O189 2.141 . S
Mg182 O190 2.048 . S
Mg182 O191 2.048 . S
Mg182 O194 2.141 . S
C183 O184 1.313 . S
C183 O190 1.195 . S
O184 C183 1.313 . S
C185 O186 1.245 . S
C185 O194 1.289 . S
O186 C185 1.245 . S
C187 O188 1.245 . S
C187 O189 1.289 . S
O188 C187 1.245 . S
O189 Mg182 2.141 . S
O189 C187 1.289 . S
O190 Mg182 2.048 . S
O190 C183 1.195 . S
O191 Mg182 2.048 . S
O191 C192 1.195 . S
C192 O191 1.195 . S
C192 O193 1.313 . S
O193 C192 1.313 . S
O194 Mg182 2.141 . S
O194 C185 1.289 . S
Mg195 O202 2.141 . S
Mg195 O203 2.048 . S
Mg195 O204 2.048 . S
Mg195 O207 2.141 . S
C196 O197 1.313 . S
C196 O203 1.195 . S
O197 C196 1.313 . S
C198 O199 1.245 . S
C198 O207 1.289 . S
O199 C198 1.245 . S
C200 O201 1.245 . S
C200 O202 1.289 . S
O201 C200 1.245 . S
O202 Mg195 2.141 . S
O202 C200 1.289 . S
O203 Mg195 2.048 . S
O203 C196 1.195 . S
O204 Mg195 2.048 . S
O204 C205 1.195 . S
C205 O204 1.195 . S
C205 O206 1.313 . S
O206 C205 1.313 . S
O207 Mg195 2.141 . S
O207 C198 1.289 . S
Mg208 O215 2.141 . S
Mg208 O216 2.048 . S
Mg208 O217 2.048 . S
Mg208 O220 2.141 . S
C209 O210 1.313 . S
C209 O216 1.195 . S
O210 C209 1.313 . S
C211 O212 1.245 . S
C211 O220 1.289 . S
O212 C211 1.245 . S
C213 O214 1.245 . S
C213 O215 1.289 . S
O214 C213 1.245 . S
O215 Mg208 2.141 . S
O215 C213 1.289 . S
O216 Mg208 2.048 . S
O216 C209 1.195 . S
O217 Mg208 2.048 . S
O217 C218 1.195 . S
C218 O217 1.195 . S
C218 O219 1.313 . S
O219 C218 1.313 . S
O220 Mg208 2.141 . S
O220 C211 1.289 . S
Mg221 O228 2.141 . S
Mg221 O229 2.048 . S
Mg221 O230 2.048 . S
Mg221 O233 2.141 . S
C222 O223 1.313 . S
C222 O229 1.195 . S
O223 C222 1.313 . S
C224 O225 1.245 . S
C224 O233 1.289 . S
O225 C224 1.245 . S
C226 O227 1.245 . S
C226 O228 1.289 . S
O227 C226 1.245 . S
O228 Mg221 2.141 . S
O228 C226 1.289 . S
O229 Mg221 2.048 . S
O229 C222 1.195 . S
O230 Mg221 2.048 . S
O230 C231 1.195 . S
C231 O230 1.195 . S
C231 O232 1.313 . S
O232 C231 1.313 . S
O233 Mg221 2.141 . S
O233 C224 1.289 . S
Mg234 O241 2.141 . S
Mg234 O242 2.048 . S
Mg234 O243 2.048 . S
Mg234 O246 2.141 . S
C235 O236 1.313 . S
C235 O242 1.195 . S
O236 C235 1.313 . S
C237 O238 1.245 . S
C237 O246 1.289 . S
O238 C237 1.245 . S
C239 O240 1.245 . S
C239 O241 1.289 . S
O240 C239 1.245 . S
O241 Mg234 2.141 . S
O241 C239 1.289 . S
O242 Mg234 2.048 . S
O242 C235 1.195 . S
O243 Mg234 2.048 . S
O243 C244 1.195 . S
C244 O243 1.195 . S
C244 O245 1.313 . S
O245 C244 1.313 . S
O246 Mg234 2.141 . S
O246 C237 1.289 . S
Mg247 O254 2.141 . S
Mg247 O255 2.048 . S
Mg247 O256 2.048 . S
Mg247 O259 2.141 . S
C248 O249 1.313 . S
C248 O255 1.195 . S
O249 C248 1.313 . S
C250 O251 1.245 . S
C250 O259 1.289 . S
O251 C250 1.245 . S
C252 O253 1.245 . S
C252 O254 1.289 . S
O253 C252 1.245 . S
O254 Mg247 2.141 . S
O254 C252 1.289 . S
O255 Mg247 2.048 . S
O255 C248 1.195 . S
O256 Mg247 2.048 . S
O256 C257 1.195 . S
C257 O256 1.195 . S
C257 O258 1.313 . S
O258 C257 1.313 . S
O259 Mg247 2.141 . S
O259 C250 1.289 . S
Mg260 O267 2.141 . S
Mg260 O268 2.048 . S
Mg260 O269 2.048 . S
Mg260 O272 2.141 . S
C261 O262 1.313 . S
C261 O268 1.195 . S
O262 C261 1.313 . S
C263 O264 1.245 . S
C263 O272 1.289 . S
O264 C263 1.245 . S
C265 O266 1.245 . S
C265 O267 1.289 . S
O266 C265 1.245 . S
O267 Mg260 2.141 . S
O267 C265 1.289 . S
O268 Mg260 2.048 . S
O268 C261 1.195 . S
O269 Mg260 2.048 . S
O269 C270 1.195 . S
C270 O269 1.195 . S
C270 O271 1.313 . S
O271 C270 1.313 . S
O272 Mg260 2.141 . S
O272 C263 1.289 . S
Mg273 O280 2.141 . S
Mg273 O281 2.048 . S
Mg273 O282 2.048 . S
Mg273 O285 2.141 . S
C274 O275 1.313 . S
C274 O281 1.195 . S
O275 C274 1.313 . S
C276 O277 1.245 . S
C276 O285 1.289 . S
O277 C276 1.245 . S
C278 O279 1.245 . S
C278 O280 1.289 . S
O279 C278 1.245 . S
O280 Mg273 2.141 . S
O280 C278 1.289 . S
O281 Mg273 2.048 . S
O281 C274 1.195 . S
O282 Mg273 2.048 . S
O282 C283 1.195 . S
C283 O282 1.195 . S
C283 O284 1.313 . S
O284 C283 1.313 . S
O285 Mg273 2.141 . S
O285 C276 1.289 . S
Mg286 O293 2.141 . S
Mg286 O294 2.048 . S
Mg286 O295 2.048 . S
Mg286 O298 2.141 . S
C287 O288 1.313 . S
C287 O294 1.195 . S
O288 C287 1.313 . S
C289 O290 1.245 . S
C289 O298 1.289 . S
O290 C289 1.245 . S
C291 O292 1.245 . S
C291 O293 1.289 . S
O292 C291 1.245 . S
O293 Mg286 2.141 . S
O293 C291 1.289 . S
O294 Mg286 2.048 . S
O294 C287 1.195 . S
O295 Mg286 2.048 . S
O295 C296 1.195 . S
C296 O295 1.195 . S
C296 O297 1.313 . S
O297 C296 1.313 . S
O298 Mg286 2.141 . S
O298 C289 1.289 . S
Mg299 O306 2.141 . S
Mg299 O307 2.048 . S
Mg299 O308 2.048 . S
Mg299 O311 2.141 . S
C300 O301 1.313 . S
C300 O307 1.195 . S
O301 C300 1.313 . S
C302 O303 1.245 . S
C302 O311 1.289 . S
O303 C302 1.245 . S
C304 O305 1.245 . S
C304 O306 1.289 . S
O305 C304 1.245 . S
O306 Mg299 2.141 . S
O306 C304 1.289 . S
O307 Mg299 2.048 . S
O307 C300 1.195 . S
O308 Mg299 2.048 . S
O308 C309 1.195 . S
C309 O308 1.195 . S
C309 O310 1.313 . S
O310 C309 1.313 . S
O311 Mg299 2.141 . S
O311 C302 1.289 . S
Mg312 O319 2.141 . S
Mg312 O320 2.048 . S
Mg312 O321 2.048 . S
Mg312 O324 2.141 . S
C313 O314 1.313 . S
C313 O320 1.195 . S
O314 C313 1.313 . S
C315 O316 1.245 . S
C315 O324 1.289 . S
O316 C315 1.245 . S
C317 O318 1.245 . S
C317 O319 1.289 . S
O318 C317 1.245 . S
O319 Mg312 2.141 . S
O319 C317 1.289 . S
O320 Mg312 2.048 . S
O320 C313 1.195 . S
O321 Mg312 2.048 . S
O321 C322 1.195 . S
C322 O321 1.195 . S
C322 O323 1.313 . S
O323 C322 1.313 . S
O324 Mg312 2.141 . S
O324 C315 1.289 . S
Mg325 O332 2.141 . S
Mg325 O333 2.048 . S
Mg325 O334 2.048 . S
Mg325 O337 2.141 . S
C326 O327 1.313 . S
C326 O333 1.195 . S
O327 C326 1.313 . S
C328 O329 1.245 . S
C328 O337 1.289 . S
O329 C328 1.245 . S
C330 O331 1.245 . S
C330 O332 1.289 . S
O331 C330 1.245 . S
O332 Mg325 2.141 . S
O332 C330 1.289 . S
O333 Mg325 2.048 . S
O333 C326 1.195 . S
O334 Mg325 2.048 . S
O334 C335 1.195 . S
C335 O334 1.195 . S
C335 O336 1.313 . S
O336 C335 1.313 . S
O337 Mg325 2.141 . S
O337 C328 1.289 . S
Mg338 O345 2.141 . S
Mg338 O346 2.048 . S
Mg338 O347 2.048 . S
Mg338 O350 2.141 . S
C339 O340 1.313 . S
C339 O346 1.195 . S
O340 C339 1.313 . S
C341 O342 1.245 . S
C341 O350 1.289 . S
O342 C341 1.245 . S
C343 O344 1.245 . S
C343 O345 1.289 . S
O344 C343 1.245 . S
O345 Mg338 2.141 . S
O345 C343 1.289 . S
O346 Mg338 2.048 . S
O346 C339 1.195 . S
O347 Mg338 2.048 . S
O347 C348 1.195 . S
C348 O347 1.195 . S
C348 O349 1.313 . S
O349 C348 1.313 . S
O350 Mg338 2.141 . S
O350 C341 1.289 . S
Mg351 O358 2.141 . S
Mg351 O359 2.048 . S
Mg351 O360 2.048 . S
Mg351 O363 2.141 . S
C352 O353 1.313 . S
C352 O359 1.195 . S
O353 C352 1.313 . S
C354 O355 1.245 . S
C354 O363 1.289 . S
O355 C354 1.245 . S
C356 O357 1.245 . S
C356 O358 1.289 . S
O357 C356 1.245 . S
O358 Mg351 2.141 . S
O358 C356 1.289 . S
O359 Mg351 2.048 . S
O359 C352 1.195 . S
O360 Mg351 2.048 . S
O360 C361 1.195 . S
C361 O360 1.195 . S
C361 O362 1.313 . S
O362 C361 1.313 . S
O363 Mg351 2.141 . S
O363 C354 1.289 . S
Mg364 O371 2.141 . S
Mg364 O372 2.048 . S
Mg364 O373 2.048 . S
Mg364 O376 2.141 . S
C365 O366 1.313 . S
C365 O372 1.195 . S
O366 C365 1.313 . S
C367 O368 1.245 . S
C367 O376 1.289 . S
O368 C367 1.245 . S
C369 O370 1.245 . S
C369 O371 1.289 . S
O370 C369 1.245 . S
O371 Mg364 2.141 . S
O371 C369 1.289 . S
O372 Mg364 2.048 . S
O372 C365 1.195 . S
O373 Mg364 2.048 . S
O373 C374 1.195 . S
C374 O373 1.195 . S
C374 O375 1.313 . S
O375 C374 1.313 . S
O376 Mg364 2.141 . S
O376 C367 1.289 . S
Mg377 O384 2.141 . S
Mg377 O385 2.048 . S
Mg377 O386 2.048 . S
Mg377 O389 2.141 . S
C378 O379 1.313 . S
C378 O385 1.195 . S
O379 C378 1.313 . S
C380 O381 1.245 . S
C380 O389 1.289 . S
O381 C380 1.245 . S
C382 O383 1.245 . S
C382 O384 1.289 . S
O383 C382 1.245 . S
O384 Mg377 2.141 . S
O384 C382 1.289 . S
O385 Mg377 2.048 . S
O385 C378 1.195 . S
O386 Mg377 2.048 . S
O386 C387 1.195 . S
C387 O386 1.195 . S
C387 O388 1.313 . S
O388 C387 1.313 . S
O389 Mg377 2.141 . S
O389 C380 1.289 . S
Mg390 O397 2.141 . S
Mg390 O398 2.048 . S
Mg390 O399 2.048 . S
Mg390 O402 2.141 . S
C391 O392 1.313 . S
C391 O398 1.195 . S
O392 C391 1.313 . S
C393 O394 1.245 . S
C393 O402 1.289 . S
O394 C393 1.245 . S
C395 O396 1.245 . S
C395 O397 1.289 . S
O396 C395 1.245 . S
O397 Mg390 2.141 . S
O397 C395 1.289 . S
O398 Mg390 2.048 . S
O398 C391 1.195 . S
O399 Mg390 2.048 . S
O399 C400 1.195 . S
C400 O399 1.195 . S
C400 O401 1.313 . S
O401 C400 1.313 . S
O402 Mg390 2.141 . S
O402 C393 1.289 . S
Mg403 O410 2.141 . S
Mg403 O411 2.048 . S
Mg403 O412 2.048 . S
Mg403 O415 2.141 . S
C404 O405 1.313 . S
C404 O411 1.195 . S
O405 C404 1.313 . S
C406 O407 1.245 . S
C406 O415 1.289 . S
O407 C406 1.245 . S
C408 O409 1.245 . S
C408 O410 1.289 . S
O409 C408 1.245 . S
O410 Mg403 2.141 . S
O410 C408 1.289 . S
O411 Mg403 2.048 . S
O411 C404 1.195 . S
O412 Mg403 2.048 . S
O412 C413 1.195 . S
C413 O412 1.195 . S
C413 O414 1.313 . S
O414 C413 1.313 . S
O415 Mg403 2.141 . S
O415 C406 1.289 . S
H416 C424 0.950 . S
H417 C429 0.950 . S
H418 C426 0.950 . S
H419 C428 0.950 . S
H420 C430 0.950 . S
H421 C432 0.950 . S
H422 C434 0.950 . S
H423 C435 0.950 . S
C424 H416 0.950 . S
C424 C425 1.386 . S
C424 C426 1.391 . S
C425 C424 1.386 . S
C425 C429 1.393 . S
C426 H418 0.950 . S
C426 C424 1.391 . S
C426 C427 1.400 . S
C427 C426 1.400 . S
C427 C428 1.398 . S
C427 C433 1.491 . S
C428 H419 0.950 . S
C428 C427 1.398 . S
C428 C429 1.391 . S
C429 H417 0.950 . S
C429 C425 1.393 . S
C429 C428 1.391 . S
C430 H420 0.950 . S
C430 C431 1.386 . S
C430 C432 1.391 . S
C431 C430 1.386 . S
C431 C435 1.393 . S
C432 H421 0.950 . S
C432 C430 1.391 . S
C432 C433 1.400 . S
C433 C427 1.491 . S
C433 C432 1.400 . S
C433 C434 1.398 . S
C434 H422 0.950 . S
C434 C433 1.398 . S
C434 C435 1.391 . S
C435 H423 0.950 . S
C435 C431 1.393 . S
C435 C434 1.391 . S
H436 C444 0.950 . S
H437 C449 0.950 . S
H438 C446 0.950 . S
H439 C448 0.950 . S
H440 C450 0.950 . S
H441 C452 0.950 . S
H442 C454 0.950 . S
H443 C455 0.950 . S
C444 H436 0.950 . S
C444 C445 1.386 . S
C444 C446 1.391 1_455 S
C445 C444 1.386 . S
C445 C449 1.393 . S
C446 H438 0.950 . S
C446 C444 1.391 1_655 S
C446 C447 1.400 . S
C447 C446 1.400 . S
C447 C448 1.398 . S
C447 C453 1.491 . S
C448 H439 0.950 . S
C448 C447 1.398 . S
C448 C449 1.391 1_655 S
C449 H437 0.950 . S
C449 C445 1.393 . S
C449 C448 1.391 1_455 S
C450 H440 0.950 . S
C450 C451 1.386 . S
C450 C452 1.391 . S
C451 C450 1.386 . S
C451 C455 1.393 . S
C452 H441 0.950 . S
C452 C450 1.391 . S
C452 C453 1.400 . S
C453 C447 1.491 . S
C453 C452 1.400 . S
C453 C454 1.398 . S
C454 H442 0.950 . S
C454 C453 1.398 . S
C454 C455 1.391 . S
C455 H443 0.950 . S
C455 C451 1.393 . S
C455 C454 1.391 . S
H456 C464 0.950 . S
H457 C469 0.950 . S
H458 C466 0.950 . S
H459 C468 0.950 . S
H460 C470 0.950 . S
H461 C472 0.950 . S
H462 C474 0.950 . S
H463 C475 0.950 . S
C464 H456 0.950 . S
C464 C465 1.386 . S
C464 C466 1.391 . S
C465 C464 1.386 . S
C465 C469 1.393 . S
C466 H458 0.950 . S
C466 C464 1.391 . S
C466 C467 1.400 . S
C467 C466 1.400 . S
C467 C468 1.398 . S
C467 C473 1.491 . S
C468 H459 0.950 . S
C468 C467 1.398 . S
C468 C469 1.391 . S
C469 H457 0.950 . S
C469 C465 1.393 . S
C469 C468 1.391 . S
C470 H460 0.950 . S
C470 C471 1.386 . S
C470 C472 1.391 . S
C471 C470 1.386 . S
C471 C475 1.393 . S
C472 H461 0.950 . S
C472 C470 1.391 . S
C472 C473 1.400 . S
C473 C467 1.491 . S
C473 C472 1.400 . S
C473 C474 1.398 . S
C474 H462 0.950 . S
C474 C473 1.398 . S
C474 C475 1.391 . S
C475 H463 0.950 . S
C475 C471 1.393 . S
C475 C474 1.391 . S
H476 C484 0.950 . S
H477 C489 0.950 . S
H478 C486 0.950 . S
H479 C488 0.950 . S
H480 C490 0.950 . S
H481 C492 0.950 . S
H482 C494 0.950 . S
H483 C495 0.950 . S
C484 H476 0.950 . S
C484 C485 1.386 . S
C484 C486 1.391 . S
C485 C484 1.386 . S
C485 C489 1.393 . S
C486 H478 0.950 . S
C486 C484 1.391 . S
C486 C487 1.400 . S
C487 C486 1.400 . S
C487 C488 1.398 . S
C487 C493 1.491 . S
C488 H479 0.950 . S
C488 C487 1.398 . S
C488 C489 1.391 . S
C489 H477 0.950 . S
C489 C485 1.393 . S
C489 C488 1.391 . S
C490 H480 0.950 . S
C490 C491 1.386 . S
C490 C492 1.391 . S
C491 C490 1.386 . S
C491 C495 1.393 . S
C492 H481 0.950 . S
C492 C490 1.391 . S
C492 C493 1.400 . S
C493 C487 1.491 . S
C493 C492 1.400 . S
C493 C494 1.398 . S
C494 H482 0.950 . S
C494 C493 1.398 . S
C494 C495 1.391 . S
C495 H483 0.950 . S
C495 C491 1.393 . S
C495 C494 1.391 . S
H496 C504 0.950 . S
H497 C509 0.950 . S
H498 C506 0.950 . S
H499 C508 0.950 . S
H500 C510 0.950 . S
H501 C512 0.950 . S
H502 C514 0.950 . S
H503 C515 0.950 . S
C504 H496 0.950 . S
C504 C505 1.386 . S
C504 C506 1.391 . S
C505 C504 1.386 . S
C505 C509 1.393 . S
C506 H498 0.950 . S
C506 C504 1.391 . S
C506 C507 1.400 . S
C507 C506 1.400 . S
C507 C508 1.398 . S
C507 C513 1.491 . S
C508 H499 0.950 . S
C508 C507 1.398 . S
C508 C509 1.391 . S
C509 H497 0.950 . S
C509 C505 1.393 . S
C509 C508 1.391 . S
C510 H500 0.950 . S
C510 C511 1.386 . S
C510 C512 1.391 . S
C511 C510 1.386 . S
C511 C515 1.393 . S
C512 H501 0.950 . S
C512 C510 1.391 . S
C512 C513 1.400 . S
C513 C507 1.491 . S
C513 C512 1.400 . S
C513 C514 1.398 . S
C514 H502 0.950 . S
C514 C513 1.398 . S
C514 C515 1.391 . S
C515 H503 0.950 . S
C515 C511 1.393 . S
C515 C514 1.391 . S
H516 C524 0.950 . S
H517 C529 0.950 . S
H518 C526 0.950 . S
H519 C528 0.950 . S
H520 C530 0.950 . S
H521 C532 0.950 . S
H522 C534 0.950 . S
H523 C535 0.950 . S
C524 H516 0.950 . S
C524 C525 1.386 . S
C524 C526 1.391 . S
C525 C524 1.386 . S
C525 C529 1.393 . S
C526 H518 0.950 . S
C526 C524 1.391 . S
C526 C527 1.400 . S
C527 C526 1.400 . S
C527 C528 1.398 . S
C527 C533 1.491 . S
C528 H519 0.950 . S
C528 C527 1.398 . S
C528 C529 1.391 . S
C529 H517 0.950 . S
C529 C525 1.393 . S
C529 C528 1.391 . S
C530 H520 0.950 . S
C530 C531 1.386 . S
C530 C532 1.391 . S
C531 C530 1.386 . S
C531 C535 1.393 . S
C532 H521 0.950 . S
C532 C530 1.391 . S
C532 C533 1.400 . S
C533 C527 1.491 . S
C533 C532 1.400 . S
C533 C534 1.398 . S
C534 H522 0.950 . S
C534 C533 1.398 . S
C534 C535 1.391 . S
C535 H523 0.950 . S
C535 C531 1.393 . S
C535 C534 1.391 . S
H536 C544 0.950 . S
H537 C549 0.950 . S
H538 C546 0.950 . S
H539 C548 0.950 . S
H540 C550 0.950 . S
H541 C552 0.950 . S
H542 C554 0.950 . S
H543 C555 0.950 . S
C544 H536 0.950 . S
C544 C545 1.386 . S
C544 C546 1.391 . S
C545 C544 1.386 . S
C545 C549 1.393 . S
C546 H538 0.950 . S
C546 C544 1.391 . S
C546 C547 1.400 . S
C547 C546 1.400 . S
C547 C548 1.398 . S
C547 C553 1.491 . S
C548 H539 0.950 . S
C548 C547 1.398 . S
C548 C549 1.391 . S
C549 H537 0.950 . S
C549 C545 1.393 . S
C549 C548 1.391 . S
C550 H540 0.950 . S
C550 C551 1.386 . S
C550 C552 1.391 . S
C551 C550 1.386 . S
C551 C555 1.393 . S
C552 H541 0.950 . S
C552 C550 1.391 . S
C552 C553 1.400 . S
C553 C547 1.491 . S
C553 C552 1.400 . S
C553 C554 1.398 . S
C554 H542 0.950 . S
C554 C553 1.398 . S
C554 C555 1.391 . S
C555 H543 0.950 . S
C555 C551 1.393 . S
C555 C554 1.391 . S
H556 C564 0.950 . S
H557 C569 0.950 . S
H558 C566 0.950 . S
H559 C568 0.950 . S
H560 C570 0.950 . S
H561 C572 0.950 . S
H562 C574 0.950 . S
H563 C575 0.950 . S
C564 H556 0.950 . S
C564 C565 1.386 . S
C564 C566 1.391 1_455 S
C565 C564 1.386 . S
C565 C569 1.393 . S
C566 H558 0.950 . S
C566 C564 1.391 1_655 S
C566 C567 1.400 . S
C567 C566 1.400 . S
C567 C568 1.398 . S
C567 C573 1.491 . S
C568 H559 0.950 . S
C568 C567 1.398 . S
C568 C569 1.391 1_655 S
C569 H557 0.950 . S
C569 C565 1.393 . S
C569 C568 1.391 1_455 S
C570 H560 0.950 . S
C570 C571 1.386 . S
C570 C572 1.391 . S
C571 C570 1.386 . S
C571 C575 1.393 . S
C572 H561 0.950 . S
C572 C570 1.391 . S
C572 C573 1.400 . S
C573 C567 1.491 . S
C573 C572 1.400 . S
C573 C574 1.398 . S
C574 H562 0.950 . S
C574 C573 1.398 . S
C574 C575 1.391 . S
C575 H563 0.950 . S
C575 C571 1.393 . S
C575 C574 1.391 . S
H576 C584 0.950 . S
H577 C589 0.950 . S
H578 C586 0.950 . S
H579 C588 0.950 . S
H580 C590 0.950 . S
H581 C592 0.950 . S
H582 C594 0.950 . S
H583 C595 0.950 . S
C584 H576 0.950 . S
C584 C585 1.386 . S
C584 C586 1.391 . S
C585 C584 1.386 . S
C585 C589 1.393 . S
C586 H578 0.950 . S
C586 C584 1.391 . S
C586 C587 1.400 . S
C587 C586 1.400 . S
C587 C588 1.398 . S
C587 C593 1.491 . S
C588 H579 0.950 . S
C588 C587 1.398 . S
C588 C589 1.391 . S
C589 H577 0.950 . S
C589 C585 1.393 . S
C589 C588 1.391 . S
C590 H580 0.950 . S
C590 C591 1.386 . S
C590 C592 1.391 . S
C591 C590 1.386 . S
C591 C595 1.393 . S
C592 H581 0.950 . S
C592 C590 1.391 . S
C592 C593 1.400 . S
C593 C587 1.491 . S
C593 C592 1.400 . S
C593 C594 1.398 . S
C594 H582 0.950 . S
C594 C593 1.398 . S
C594 C595 1.391 . S
C595 H583 0.950 . S
C595 C591 1.393 . S
C595 C594 1.391 . S
H596 C604 0.950 . S
H597 C609 0.950 . S
H598 C606 0.950 . S
H599 C608 0.950 . S
H600 C610 0.950 . S
H601 C612 0.950 . S
H602 C614 0.950 . S
H603 C615 0.950 . S
C604 H596 0.950 . S
C604 C605 1.386 . S
C604 C606 1.391 . S
C605 C604 1.386 . S
C605 C609 1.393 . S
C606 H598 0.950 . S
C606 C604 1.391 . S
C606 C607 1.400 . S
C607 C606 1.400 . S
C607 C608 1.398 . S
C607 C613 1.491 . S
C608 H599 0.950 . S
C608 C607 1.398 . S
C608 C609 1.391 . S
C609 H597 0.950 . S
C609 C605 1.393 . S
C609 C608 1.391 . S
C610 H600 0.950 . S
C610 C611 1.386 . S
C610 C612 1.391 1_655 S
C611 C610 1.386 . S
C611 C615 1.393 . S
C612 H601 0.950 . S
C612 C610 1.391 1_455 S
C612 C613 1.400 . S
C613 C607 1.491 . S
C613 C612 1.400 . S
C613 C614 1.398 . S
C614 H602 0.950 . S
C614 C613 1.398 . S
C614 C615 1.391 1_455 S
C615 H603 0.950 . S
C615 C611 1.393 . S
C615 C614 1.391 1_655 S
H616 C624 0.950 . S
H617 C629 0.950 . S
H618 C626 0.950 . S
H619 C628 0.950 . S
H620 C630 0.950 . S
H621 C632 0.950 . S
H622 C634 0.950 . S
H623 C635 0.950 . S
C624 H616 0.950 . S
C624 C625 1.386 . S
C624 C626 1.391 . S
C625 C624 1.386 . S
C625 C629 1.393 . S
C626 H618 0.950 . S
C626 C624 1.391 . S
C626 C627 1.400 . S
C627 C626 1.400 . S
C627 C628 1.398 . S
C627 C633 1.491 . S
C628 H619 0.950 . S
C628 C627 1.398 . S
C628 C629 1.391 . S
C629 H617 0.950 . S
C629 C625 1.393 . S
C629 C628 1.391 . S
C630 H620 0.950 . S
C630 C631 1.386 . S
C630 C632 1.391 . S
C631 C630 1.386 . S
C631 C635 1.393 . S
C632 H621 0.950 . S
C632 C630 1.391 . S
C632 C633 1.400 . S
C633 C627 1.491 . S
C633 C632 1.400 . S
C633 C634 1.398 . S
C634 H622 0.950 . S
C634 C633 1.398 . S
C634 C635 1.391 . S
C635 H623 0.950 . S
C635 C631 1.393 . S
C635 C634 1.391 . S
H636 C644 0.950 . S
H637 C649 0.950 . S
H638 C646 0.950 . S
H639 C648 0.950 . S
H640 C650 0.950 . S
H641 C652 0.950 . S
H642 C654 0.950 . S
H643 C655 0.950 . S
C644 H636 0.950 . S
C644 C645 1.386 . S
C644 C646 1.391 . S
C645 C644 1.386 . S
C645 C649 1.393 . S
C646 H638 0.950 . S
C646 C644 1.391 . S
C646 C647 1.400 . S
C647 C646 1.400 . S
C647 C648 1.398 . S
C647 C653 1.491 . S
C648 H639 0.950 . S
C648 C647 1.398 . S
C648 C649 1.391 . S
C649 H637 0.950 . S
C649 C645 1.393 . S
C649 C648 1.391 . S
C650 H640 0.950 . S
C650 C651 1.386 . S
C650 C652 1.391 . S
C651 C650 1.386 . S
C651 C655 1.393 . S
C652 H641 0.950 . S
C652 C650 1.391 . S
C652 C653 1.400 . S
C653 C647 1.491 . S
C653 C652 1.400 . S
C653 C654 1.398 . S
C654 H642 0.950 . S
C654 C653 1.398 . S
C654 C655 1.391 . S
C655 H643 0.950 . S
C655 C651 1.393 . S
C655 C654 1.391 . S
H656 C664 0.950 . S
H657 C669 0.950 . S
H658 C666 0.950 . S
H659 C668 0.950 . S
H660 C670 0.950 . S
H661 C672 0.950 . S
H662 C674 0.950 . S
H663 C675 0.950 . S
C664 H656 0.950 . S
C664 C665 1.386 . S
C664 C666 1.391 . S
C665 C664 1.386 . S
C665 C669 1.393 . S
C666 H658 0.950 . S
C666 C664 1.391 . S
C666 C667 1.400 . S
C667 C666 1.400 . S
C667 C668 1.398 . S
C667 C673 1.491 . S
C668 H659 0.950 . S
C668 C667 1.398 . S
C668 C669 1.391 . S
C669 H657 0.950 . S
C669 C665 1.393 . S
C669 C668 1.391 . S
C670 H660 0.950 . S
C670 C671 1.386 . S
C670 C672 1.391 . S
C671 C670 1.386 . S
C671 C675 1.393 . S
C672 H661 0.950 . S
C672 C670 1.391 . S
C672 C673 1.400 . S
C673 C667 1.491 . S
C673 C672 1.400 . S
C673 C674 1.398 . S
C674 H662 0.950 . S
C674 C673 1.398 . S
C674 C675 1.391 . S
C675 H663 0.950 . S
C675 C671 1.393 . S
C675 C674 1.391 . S
H676 C684 0.950 . S
H677 C689 0.950 . S
H678 C686 0.950 . S
H679 C688 0.950 . S
H680 C690 0.950 . S
H681 C692 0.950 . S
H682 C694 0.950 . S
H683 C695 0.950 . S
C684 H676 0.950 . S
C684 C685 1.386 . S
C684 C686 1.391 . S
C685 C684 1.386 . S
C685 C689 1.393 . S
C686 H678 0.950 . S
C686 C684 1.391 . S
C686 C687 1.400 . S
C687 C686 1.400 . S
C687 C688 1.398 . S
C687 C693 1.491 . S
C688 H679 0.950 . S
C688 C687 1.398 . S
C688 C689 1.391 . S
C689 H677 0.950 . S
C689 C685 1.393 . S
C689 C688 1.391 . S
C690 H680 0.950 . S
C690 C691 1.386 . S
C690 C692 1.391 . S
C691 C690 1.386 . S
C691 C695 1.393 . S
C692 H681 0.950 . S
C692 C690 1.391 . S
C692 C693 1.400 . S
C693 C687 1.491 . S
C693 C692 1.400 . S
C693 C694 1.398 . S
C694 H682 0.950 . S
C694 C693 1.398 . S
C694 C695 1.391 . S
C695 H683 0.950 . S
C695 C691 1.393 . S
C695 C694 1.391 . S
H696 C704 0.950 . S
H697 C709 0.950 . S
H698 C706 0.950 . S
H699 C708 0.950 . S
H700 C710 0.950 . S
H701 C712 0.950 . S
H702 C714 0.950 . S
H703 C715 0.950 . S
C704 H696 0.950 . S
C704 C705 1.386 . S
C704 C706 1.391 . S
C705 C704 1.386 . S
C705 C709 1.393 . S
C706 H698 0.950 . S
C706 C704 1.391 . S
C706 C707 1.400 . S
C707 C706 1.400 . S
C707 C708 1.398 . S
C707 C713 1.491 . S
C708 H699 0.950 . S
C708 C707 1.398 . S
C708 C709 1.391 . S
C709 H697 0.950 . S
C709 C705 1.393 . S
C709 C708 1.391 . S
C710 H700 0.950 . S
C710 C711 1.386 . S
C710 C712 1.391 . S
C711 C710 1.386 . S
C711 C715 1.393 . S
C712 H701 0.950 . S
C712 C710 1.391 . S
C712 C713 1.400 . S
C713 C707 1.491 . S
C713 C712 1.400 . S
C713 C714 1.398 . S
C714 H702 0.950 . S
C714 C713 1.398 . S
C714 C715 1.391 . S
C715 H703 0.950 . S
C715 C711 1.393 . S
C715 C714 1.391 . S
H716 C724 0.950 . S
H717 C729 0.950 . S
H718 C726 0.950 . S
H719 C728 0.950 . S
H720 C730 0.950 . S
H721 C732 0.950 . S
H722 C734 0.950 . S
H723 C735 0.950 . S
C724 H716 0.950 . S
C724 C725 1.386 . S
C724 C726 1.391 . S
C725 C724 1.386 . S
C725 C729 1.393 . S
C726 H718 0.950 . S
C726 C724 1.391 . S
C726 C727 1.400 . S
C727 C726 1.400 . S
C727 C728 1.398 . S
C727 C733 1.491 . S
C728 H719 0.950 . S
C728 C727 1.398 . S
C728 C729 1.391 . S
C729 H717 0.950 . S
C729 C725 1.393 . S
C729 C728 1.391 . S
C730 H720 0.950 . S
C730 C731 1.386 . S
C730 C732 1.391 1_655 S
C731 C730 1.386 . S
C731 C735 1.393 . S
C732 H721 0.950 . S
C732 C730 1.391 1_455 S
C732 C733 1.400 . S
C733 C727 1.491 . S
C733 C732 1.400 . S
C733 C734 1.398 . S
C734 H722 0.950 . S
C734 C733 1.398 . S
C734 C735 1.391 1_455 S
C735 H723 0.950 . S
C735 C731 1.393 . S
C735 C734 1.391 1_655 S
H736 C744 0.950 . S
H737 C749 0.950 . S
H738 C746 0.950 . S
H739 C748 0.950 . S
H740 C750 0.950 . S
H741 C752 0.950 . S
H742 C754 0.950 . S
H743 C755 0.950 . S
C744 H736 0.950 . S
C744 C745 1.386 . S
C744 C746 1.391 . S
C745 C744 1.386 . S
C745 C749 1.393 . S
C746 H738 0.950 . S
C746 C744 1.391 . S
C746 C747 1.400 . S
C747 C746 1.400 . S
C747 C748 1.398 . S
C747 C753 1.491 . S
C748 H739 0.950 . S
C748 C747 1.398 . S
C748 C749 1.391 . S
C749 H737 0.950 . S
C749 C745 1.393 . S
C749 C748 1.391 . S
C750 H740 0.950 . S
C750 C751 1.386 . S
C750 C752 1.391 . S
C751 C750 1.386 . S
C751 C755 1.393 . S
C752 H741 0.950 . S
C752 C750 1.391 . S
C752 C753 1.400 . S
C753 C747 1.491 . S
C753 C752 1.400 . S
C753 C754 1.398 . S
C754 H742 0.950 . S
C754 C753 1.398 . S
C754 C755 1.391 . S
C755 H743 0.950 . S
C755 C751 1.393 . S
C755 C754 1.391 . S
H756 C764 0.950 . S
H757 C769 0.950 . S
H758 C766 0.950 . S
H759 C768 0.950 . S
H760 C770 0.950 . S
H761 C772 0.950 . S
H762 C774 0.950 . S
H763 C775 0.950 . S
C764 H756 0.950 . S
C764 C765 1.386 . S
C764 C766 1.391 . S
C765 C764 1.386 . S
C765 C769 1.393 . S
C766 H758 0.950 . S
C766 C764 1.391 . S
C766 C767 1.400 . S
C767 C766 1.400 . S
C767 C768 1.398 . S
C767 C773 1.491 . S
C768 H759 0.950 . S
C768 C767 1.398 . S
C768 C769 1.391 . S
C769 H757 0.950 . S
C769 C765 1.393 . S
C769 C768 1.391 . S
C770 H760 0.950 . S
C770 C771 1.386 . S
C770 C772 1.391 . S
C771 C770 1.386 . S
C771 C775 1.393 . S
C772 H761 0.950 . S
C772 C770 1.391 . S
C772 C773 1.400 . S
C773 C767 1.491 . S
C773 C772 1.400 . S
C773 C774 1.398 . S
C774 H762 0.950 . S
C774 C773 1.398 . S
C774 C775 1.391 . S
C775 H763 0.950 . S
C775 C771 1.393 . S
C775 C774 1.391 . S
H776 C784 0.950 . S
H777 C789 0.950 . S
H778 C786 0.950 . S
H779 C788 0.950 . S
H780 C790 0.950 . S
H781 C792 0.950 . S
H782 C794 0.950 . S
H783 C795 0.950 . S
C784 H776 0.950 . S
C784 C785 1.386 . S
C784 C786 1.391 . S
C785 C784 1.386 . S
C785 C789 1.393 . S
C786 H778 0.950 . S
C786 C784 1.391 . S
C786 C787 1.400 . S
C787 C786 1.400 . S
C787 C788 1.398 . S
C787 C793 1.491 . S
C788 H779 0.950 . S
C788 C787 1.398 . S
C788 C789 1.391 . S
C789 H777 0.950 . S
C789 C785 1.393 . S
C789 C788 1.391 . S
C790 H780 0.950 . S
C790 C791 1.386 . S
C790 C792 1.391 . S
C791 C790 1.386 . S
C791 C795 1.393 . S
C792 H781 0.950 . S
C792 C790 1.391 . S
C792 C793 1.400 . S
C793 C787 1.491 . S
C793 C792 1.400 . S
C793 C794 1.398 . S
C794 H782 0.950 . S
C794 C793 1.398 . S
C794 C795 1.391 . S
C795 H783 0.950 . S
C795 C791 1.393 . S
C795 C794 1.391 . S
H796 C804 0.950 . S
H797 C809 0.950 . S
H798 C806 0.950 . S
H799 C808 0.950 . S
H800 C810 0.950 . S
H801 C812 0.950 . S
H802 C814 0.950 . S
H803 C815 0.950 . S
C804 H796 0.950 . S
C804 C805 1.386 . S
C804 C806 1.391 . S
C805 C804 1.386 . S
C805 C809 1.393 . S
C806 H798 0.950 . S
C806 C804 1.391 . S
C806 C807 1.400 . S
C807 C806 1.400 . S
C807 C808 1.398 . S
C807 C813 1.491 . S
C808 H799 0.950 . S
C808 C807 1.398 . S
C808 C809 1.391 . S
C809 H797 0.950 . S
C809 C805 1.393 . S
C809 C808 1.391 . S
C810 H800 0.950 . S
C810 C811 1.386 . S
C810 C812 1.391 1_655 S
C811 C810 1.386 . S
C811 C815 1.393 . S
C812 H801 0.950 . S
C812 C810 1.391 1_455 S
C812 C813 1.400 . S
C813 C807 1.491 . S
C813 C812 1.400 . S
C813 C814 1.398 . S
C814 H802 0.950 . S
C814 C813 1.398 . S
C814 C815 1.391 1_455 S
C815 H803 0.950 . S
C815 C811 1.393 . S
C815 C814 1.391 1_655 S
H816 C824 0.950 . S
H817 C829 0.950 . S
H818 C826 0.950 . S
H819 C828 0.950 . S
H820 C830 0.950 . S
H821 C832 0.950 . S
H822 C834 0.950 . S
H823 C835 0.950 . S
C824 H816 0.950 . S
C824 C825 1.386 . S
C824 C826 1.391 . S
C825 C824 1.386 . S
C825 C829 1.393 . S
C826 H818 0.950 . S
C826 C824 1.391 . S
C826 C827 1.400 . S
C827 C826 1.400 . S
C827 C828 1.398 . S
C827 C833 1.491 . S
C828 H819 0.950 . S
C828 C827 1.398 . S
C828 C829 1.391 . S
C829 H817 0.950 . S
C829 C825 1.393 . S
C829 C828 1.391 . S
C830 H820 0.950 . S
C830 C831 1.386 . S
C830 C832 1.391 . S
C831 C830 1.386 . S
C831 C835 1.393 . S
C832 H821 0.950 . S
C832 C830 1.391 . S
C832 C833 1.400 . S
C833 C827 1.491 . S
C833 C832 1.400 . S
C833 C834 1.398 . S
C834 H822 0.950 . S
C834 C833 1.398 . S
C834 C835 1.391 . S
C835 H823 0.950 . S
C835 C831 1.393 . S
C835 C834 1.391 . S
H836 C844 0.950 . S
H837 C849 0.950 . S
H838 C846 0.950 . S
H839 C848 0.950 . S
H840 C850 0.950 . S
H841 C852 0.950 . S
H842 C854 0.950 . S
H843 C855 0.950 . S
C844 H836 0.950 . S
C844 C845 1.386 . S
C844 C846 1.391 . S
C845 C844 1.386 . S
C845 C849 1.393 . S
C846 H838 0.950 . S
C846 C844 1.391 . S
C846 C847 1.400 . S
C847 C846 1.400 . S
C847 C848 1.398 . S
C847 C853 1.491 . S
C848 H839 0.950 . S
C848 C847 1.398 . S
C848 C849 1.391 . S
C849 H837 0.950 . S
C849 C845 1.393 . S
C849 C848 1.391 . S
C850 H840 0.950 . S
C850 C851 1.386 . S
C850 C852 1.391 1_655 S
C851 C850 1.386 . S
C851 C855 1.393 . S
C852 H841 0.950 . S
C852 C850 1.391 1_455 S
C852 C853 1.400 . S
C853 C847 1.491 . S
C853 C852 1.400 . S
C853 C854 1.398 . S
C854 H842 0.950 . S
C854 C853 1.398 . S
C854 C855 1.391 1_455 S
C855 H843 0.950 . S
C855 C851 1.393 . S
C855 C854 1.391 1_655 S
H856 C864 0.950 . S
H857 C869 0.950 . S
H858 C866 0.950 . S
H859 C868 0.950 . S
H860 C870 0.950 . S
H861 C872 0.950 . S
H862 C874 0.950 . S
H863 C875 0.950 . S
C864 H856 0.950 . S
C864 C865 1.386 . S
C864 C866 1.391 . S
C865 C864 1.386 . S
C865 C869 1.393 . S
C866 H858 0.950 . S
C866 C864 1.391 . S
C866 C867 1.400 . S
C867 C866 1.400 . S
C867 C868 1.398 . S
C867 C873 1.491 . S
C868 H859 0.950 . S
C868 C867 1.398 . S
C868 C869 1.391 . S
C869 H857 0.950 . S
C869 C865 1.393 . S
C869 C868 1.391 . S
C870 H860 0.950 . S
C870 C871 1.386 . S
C870 C872 1.391 . S
C871 C870 1.386 . S
C871 C875 1.393 . S
C872 H861 0.950 . S
C872 C870 1.391 . S
C872 C873 1.400 . S
C873 C867 1.491 . S
C873 C872 1.400 . S
C873 C874 1.398 . S
C874 H862 0.950 . S
C874 C873 1.398 . S
C874 C875 1.391 . S
C875 H863 0.950 . S
C875 C871 1.393 . S
C875 C874 1.391 . S
H876 C884 0.950 . S
H877 C889 0.950 . S
H878 C886 0.950 . S
H879 C888 0.950 . S
H880 C890 0.950 . S
H881 C892 0.950 . S
H882 C894 0.950 . S
H883 C895 0.950 . S
C884 H876 0.950 . S
C884 C885 1.386 . S
C884 C886 1.391 . S
C885 C884 1.386 . S
C885 C889 1.393 . S
C886 H878 0.950 . S
C886 C884 1.391 . S
C886 C887 1.400 . S
C887 C886 1.400 . S
C887 C888 1.398 . S
C887 C893 1.491 . S
C888 H879 0.950 . S
C888 C887 1.398 . S
C888 C889 1.391 . S
C889 H877 0.950 . S
C889 C885 1.393 . S
C889 C888 1.391 . S
C890 H880 0.950 . S
C890 C891 1.386 . S
C890 C892 1.391 . S
C891 C890 1.386 . S
C891 C895 1.393 . S
C892 H881 0.950 . S
C892 C890 1.391 . S
C892 C893 1.400 . S
C893 C887 1.491 . S
C893 C892 1.400 . S
C893 C894 1.398 . S
C894 H882 0.950 . S
C894 C893 1.398 . S
C894 C895 1.391 . S
C895 H883 0.950 . S
C895 C891 1.393 . S
C895 C894 1.391 . S
H896 C904 0.950 . S
H897 C909 0.950 . S
H898 C906 0.950 . S
H899 C908 0.950 . S
H900 C910 0.950 . S
H901 C912 0.950 . S
H902 C914 0.950 . S
H903 C915 0.950 . S
C904 H896 0.950 . S
C904 C905 1.386 . S
C904 C906 1.391 . S
C905 C904 1.386 . S
C905 C909 1.393 . S
C906 H898 0.950 . S
C906 C904 1.391 . S
C906 C907 1.400 . S
C907 C906 1.400 . S
C907 C908 1.398 . S
C907 C913 1.491 . S
C908 H899 0.950 . S
C908 C907 1.398 . S
C908 C909 1.391 . S
C909 H897 0.950 . S
C909 C905 1.393 . S
C909 C908 1.391 . S
C910 H900 0.950 . S
C910 C911 1.386 . S
C910 C912 1.391 . S
C911 C910 1.386 . S
C911 C915 1.393 . S
C912 H901 0.950 . S
C912 C910 1.391 . S
C912 C913 1.400 . S
C913 C907 1.491 . S
C913 C912 1.400 . S
C913 C914 1.398 . S
C914 H902 0.950 . S
C914 C913 1.398 . S
C914 C915 1.391 . S
C915 H903 0.950 . S
C915 C911 1.393 . S
C915 C914 1.391 . S
H916 C924 0.950 . S
H917 C929 0.950 . S
H918 C926 0.950 . S
H919 C928 0.950 . S
H920 C930 0.950 . S
H921 C932 0.950 . S
H922 C934 0.950 . S
H923 C935 0.950 . S
C924 H916 0.950 . S
C924 C925 1.386 . S
C924 C926 1.391 . S
C925 C924 1.386 . S
C925 C929 1.393 . S
C926 H918 0.950 . S
C926 C924 1.391 . S
C926 C927 1.400 . S
C927 C926 1.400 . S
C927 C928 1.398 . S
C927 C933 1.491 . S
C928 H919 0.950 . S
C928 C927 1.398 . S
C928 C929 1.391 . S
C929 H917 0.950 . S
C929 C925 1.393 . S
C929 C928 1.391 . S
C930 H920 0.950 . S
C930 C931 1.386 . S
C930 C932 1.391 . S
C931 C930 1.386 . S
C931 C935 1.393 . S
C932 H921 0.950 . S
C932 C930 1.391 . S
C932 C933 1.400 . S
C933 C927 1.491 . S
C933 C932 1.400 . S
C933 C934 1.398 . S
C934 H922 0.950 . S
C934 C933 1.398 . S
C934 C935 1.391 . S
C935 H923 0.950 . S
C935 C931 1.393 . S
C935 C934 1.391 . S
H936 C944 0.950 . S
H937 C949 0.950 . S
H938 C946 0.950 . S
H939 C948 0.950 . S
H940 C950 0.950 . S
H941 C952 0.950 . S
H942 C954 0.950 . S
H943 C955 0.950 . S
C944 H936 0.950 . S
C944 C945 1.386 . S
C944 C946 1.391 . S
C945 C944 1.386 . S
C945 C949 1.393 . S
C946 H938 0.950 . S
C946 C944 1.391 . S
C946 C947 1.400 . S
C947 C946 1.400 . S
C947 C948 1.398 . S
C947 C953 1.491 . S
C948 H939 0.950 . S
C948 C947 1.398 . S
C948 C949 1.391 . S
C949 H937 0.950 . S
C949 C945 1.393 . S
C949 C948 1.391 . S
C950 H940 0.950 . S
C950 C951 1.386 . S
C950 C952 1.391 . S
C951 C950 1.386 . S
C951 C955 1.393 . S
C952 H941 0.950 . S
C952 C950 1.391 . S
C952 C953 1.400 . S
C953 C947 1.491 . S
C953 C952 1.400 . S
C953 C954 1.398 . S
C954 H942 0.950 . S
C954 C953 1.398 . S
C954 C955 1.391 . S
C955 H943 0.950 . S
C955 C951 1.393 . S
C955 C954 1.391 . S
H956 C964 0.950 . S
H957 C969 0.950 . S
H958 C966 0.950 . S
H959 C968 0.950 . S
H960 C970 0.950 . S
H961 C972 0.950 . S
H962 C974 0.950 . S
H963 C975 0.950 . S
C964 H956 0.950 . S
C964 C965 1.386 . S
C964 C966 1.391 1_455 S
C965 C964 1.386 . S
C965 C969 1.393 . S
C966 H958 0.950 . S
C966 C964 1.391 1_655 S
C966 C967 1.400 . S
C967 C966 1.400 . S
C967 C968 1.398 . S
C967 C973 1.491 . S
C968 H959 0.950 . S
C968 C967 1.398 . S
C968 C969 1.391 1_655 S
C969 H957 0.950 . S
C969 C965 1.393 . S
C969 C968 1.391 1_455 S
C970 H960 0.950 . S
C970 C971 1.386 . S
C970 C972 1.391 . S
C971 C970 1.386 . S
C971 C975 1.393 . S
C972 H961 0.950 . S
C972 C970 1.391 . S
C972 C973 1.400 . S
C973 C967 1.491 . S
C973 C972 1.400 . S
C973 C974 1.398 . S
C974 H962 0.950 . S
C974 C973 1.398 . S
C974 C975 1.391 . S
C975 H963 0.950 . S
C975 C971 1.393 . S
C975 C974 1.391 . S
H976 C984 0.950 . S
H977 C989 0.950 . S
H978 C986 0.950 . S
H979 C988 0.950 . S
H980 C990 0.950 . S
H981 C992 0.950 . S
H982 C994 0.950 . S
H983 C995 0.950 . S
C984 H976 0.950 . S
C984 C985 1.386 . S
C984 C986 1.391 . S
C985 C984 1.386 . S
C985 C989 1.393 . S
C986 H978 0.950 . S
C986 C984 1.391 . S
C986 C987 1.400 . S
C987 C986 1.400 . S
C987 C988 1.398 . S
C987 C993 1.491 . S
C988 H979 0.950 . S
C988 C987 1.398 . S
C988 C989 1.391 . S
C989 H977 0.950 . S
C989 C985 1.393 . S
C989 C988 1.391 . S
C990 H980 0.950 . S
C990 C991 1.386 . S
C990 C992 1.391 . S
C991 C990 1.386 . S
C991 C995 1.393 . S
C992 H981 0.950 . S
C992 C990 1.391 . S
C992 C993 1.400 . S
C993 C987 1.491 . S
C993 C992 1.400 . S
C993 C994 1.398 . S
C994 H982 0.950 . S
C994 C993 1.398 . S
C994 C995 1.391 . S
C995 H983 0.950 . S
C995 C991 1.393 . S
C995 C994 1.391 . S
H996 C1004 0.950 . S
H997 C1009 0.950 . S
H998 C1006 0.950 . S
H999 C1008 0.950 . S
H1000 C1010 0.950 . S
H1001 C1012 0.950 . S
H1002 C1014 0.950 . S
H1003 C1015 0.950 . S
C1004 H996 0.950 . S
C1004 C1005 1.386 . S
C1004 C1006 1.391 1_455 S
C1005 C1004 1.386 . S
C1005 C1009 1.393 . S
C1006 H998 0.950 . S
C1006 C1004 1.391 1_655 S
C1006 C1007 1.400 . S
C1007 C1006 1.400 . S
C1007 C1008 1.398 . S
C1007 C1013 1.491 . S
C1008 H999 0.950 . S
C1008 C1007 1.398 . S
C1008 C1009 1.391 1_655 S
C1009 H997 0.950 . S
C1009 C1005 1.393 . S
C1009 C1008 1.391 1_455 S
C1010 H1000 0.950 . S
C1010 C1011 1.386 . S
C1010 C1012 1.391 . S
C1011 C1010 1.386 . S
C1011 C1015 1.393 . S
C1012 H1001 0.950 . S
C1012 C1010 1.391 . S
C1012 C1013 1.400 . S
C1013 C1007 1.491 . S
C1013 C1012 1.400 . S
C1013 C1014 1.398 . S
C1014 H1002 0.950 . S
C1014 C1013 1.398 . S
C1014 C1015 1.391 . S
C1015 H1003 0.950 . S
C1015 C1011 1.393 . S
C1015 C1014 1.391 . S
H1016 C1024 0.950 . S
H1017 C1029 0.950 . S
H1018 C1026 0.950 . S
H1019 C1028 0.950 . S
H1020 C1030 0.950 . S
H1021 C1032 0.950 . S
H1022 C1034 0.950 . S
H1023 C1035 0.950 . S
C1024 H1016 0.950 . S
C1024 C1025 1.386 . S
C1024 C1026 1.391 . S
C1025 C1024 1.386 . S
C1025 C1029 1.393 . S
C1026 H1018 0.950 . S
C1026 C1024 1.391 . S
C1026 C1027 1.400 . S
C1027 C1026 1.400 . S
C1027 C1028 1.398 . S
C1027 C1033 1.491 . S
C1028 H1019 0.950 . S
C1028 C1027 1.398 . S
C1028 C1029 1.391 . S
C1029 H1017 0.950 . S
C1029 C1025 1.393 . S
C1029 C1028 1.391 . S
C1030 H1020 0.950 . S
C1030 C1031 1.386 . S
C1030 C1032 1.391 . S
C1031 C1030 1.386 . S
C1031 C1035 1.393 . S
C1032 H1021 0.950 . S
C1032 C1030 1.391 . S
C1032 C1033 1.400 . S
C1033 C1027 1.491 . S
C1033 C1032 1.400 . S
C1033 C1034 1.398 . S
C1034 H1022 0.950 . S
C1034 C1033 1.398 . S
C1034 C1035 1.391 . S
C1035 H1023 0.950 . S
C1035 C1031 1.393 . S
C1035 C1034 1.391 . S
H1036 C1044 0.950 . S
H1037 C1049 0.950 . S
H1038 C1046 0.950 . S
H1039 C1048 0.950 . S
H1040 C1050 0.950 . S
H1041 C1052 0.950 . S
H1042 C1054 0.950 . S
H1043 C1055 0.950 . S
C1044 H1036 0.950 . S
C1044 C1045 1.386 . S
C1044 C1046 1.391 . S
C1045 C1044 1.386 . S
C1045 C1049 1.393 . S
C1046 H1038 0.950 . S
C1046 C1044 1.391 . S
C1046 C1047 1.400 . S
C1047 C1046 1.400 . S
C1047 C1048 1.398 . S
C1047 C1053 1.491 . S
C1048 H1039 0.950 . S
C1048 C1047 1.398 . S
C1048 C1049 1.391 . S
C1049 H1037 0.950 . S
C1049 C1045 1.393 . S
C1049 C1048 1.391 . S
C1050 H1040 0.950 . S
C1050 C1051 1.386 . S
C1050 C1052 1.391 . S
C1051 C1050 1.386 . S
C1051 C1055 1.393 . S
C1052 H1041 0.950 . S
C1052 C1050 1.391 . S
C1052 C1053 1.400 . S
C1053 C1047 1.491 . S
C1053 C1052 1.400 . S
C1053 C1054 1.398 . S
C1054 H1042 0.950 . S
C1054 C1053 1.398 . S
C1054 C1055 1.391 . S
C1055 H1043 0.950 . S
C1055 C1051 1.393 . S
C1055 C1054 1.391 . S
H1056 C1064 0.950 . S
H1057 C1069 0.950 . S
H1058 C1066 0.950 . S
H1059 C1068 0.950 . S
H1060 C1070 0.950 . S
H1061 C1072 0.950 . S
H1062 C1074 0.950 . S
H1063 C1075 0.950 . S
C1064 H1056 0.950 . S
C1064 C1065 1.386 . S
C1064 C1066 1.391 . S
C1065 C1064 1.386 . S
C1065 C1069 1.393 . S
C1066 H1058 0.950 . S
C1066 C1064 1.391 . S
C1066 C1067 1.400 . S
C1067 C1066 1.400 . S
C1067 C1068 1.398 . S
C1067 C1073 1.491 . S
C1068 H1059 0.950 . S
C1068 C1067 1.398 . S
C1068 C1069 1.391 . S
C1069 H1057 0.950 . S
C1069 C1065 1.393 . S
C1069 C1068 1.391 . S
C1070 H1060 0.950 . S
C1070 C1071 1.386 . S
C1070 C1072 1.391 . S
C1071 C1070 1.386 . S
C1071 C1075 1.393 . S
C1072 H1061 0.950 . S
C1072 C1070 1.391 . S
C1072 C1073 1.400 . S
C1073 C1067 1.491 . S
C1073 C1072 1.400 . S
C1073 C1074 1.398 . S
C1074 H1062 0.950 . S
C1074 C1073 1.398 . S
C1074 C1075 1.391 . S
C1075 H1063 0.950 . S
C1075 C1071 1.393 . S
C1075 C1074 1.391 . S
H1076 C1084 0.950 . S
H1077 C1089 0.950 . S
H1078 C1086 0.950 . S
H1079 C1088 0.950 1_645 S
H1080 C1090 0.950 . S
H1081 C1092 0.950 . S
H1082 C1094 0.950 1_465 S
H1083 C1095 0.950 . S
C1084 H1076 0.950 . S
C1084 C1085 1.386 . S
C1084 C1086 1.391 . S
C1085 C1084 1.386 . S
C1085 C1089 1.393 . S
C1086 H1078 0.950 . S
C1086 C1084 1.391 . S
C1086 C1087 1.400 . S
C1087 C1086 1.400 . S
C1087 C1088 1.398 . S
C1087 C1093 1.491 1_465 S
C1088 H1079 0.950 1_465 S
C1088 C1087 1.398 . S
C1088 C1089 1.391 . S
C1089 H1077 0.950 . S
C1089 C1085 1.393 . S
C1089 C1088 1.391 . S
C1090 H1080 0.950 . S
C1090 C1091 1.386 . S
C1090 C1092 1.391 . S
C1091 C1090 1.386 . S
C1091 C1095 1.393 . S
C1092 H1081 0.950 . S
C1092 C1090 1.391 . S
C1092 C1093 1.400 . S
C1093 C1087 1.491 1_645 S
C1093 C1092 1.400 . S
C1093 C1094 1.398 . S
C1094 H1082 0.950 1_645 S
C1094 C1093 1.398 . S
C1094 C1095 1.391 . S
C1095 H1083 0.950 . S
C1095 C1091 1.393 . S
C1095 C1094 1.391 . S
H1096 C1104 0.950 . S
H1097 C1109 0.950 . S
H1098 C1106 0.950 . S
H1099 C1108 0.950 . S
H1100 C1110 0.950 . S
H1101 C1112 0.950 . S
H1102 C1114 0.950 . S
H1103 C1115 0.950 . S
C1104 H1096 0.950 . S
C1104 C1105 1.386 . S
C1104 C1106 1.391 . S
C1105 C1104 1.386 . S
C1105 C1109 1.393 . S
C1106 H1098 0.950 . S
C1106 C1104 1.391 . S
C1106 C1107 1.400 . S
C1107 C1106 1.400 . S
C1107 C1108 1.398 . S
C1107 C1113 1.491 . S
C1108 H1099 0.950 . S
C1108 C1107 1.398 . S
C1108 C1109 1.391 . S
C1109 H1097 0.950 . S
C1109 C1105 1.393 . S
C1109 C1108 1.391 . S
C1110 H1100 0.950 . S
C1110 C1111 1.386 . S
C1110 C1112 1.391 . S
C1111 C1110 1.386 . S
C1111 C1115 1.393 . S
C1112 H1101 0.950 . S
C1112 C1110 1.391 . S
C1112 C1113 1.400 . S
C1113 C1107 1.491 . S
C1113 C1112 1.400 . S
C1113 C1114 1.398 . S
C1114 H1102 0.950 . S
C1114 C1113 1.398 . S
C1114 C1115 1.391 . S
C1115 H1103 0.950 . S
C1115 C1111 1.393 . S
C1115 C1114 1.391 . S
H1116 C1124 0.954 . S
H1117 C1129 0.950 . S
H1118 C1126 0.950 . S
H1119 C1128 0.950 1_556 S
H1120 C1130 0.954 . S
H1121 C1132 0.950 . S
H1122 C1134 0.950 1_554 S
H1123 C1135 0.950 . S
C1124 H1116 0.954 . S
C1124 C1125 1.386 . S
C1124 C1126 1.391 1_545 S
C1125 C1124 1.386 . S
C1125 C1129 1.393 . S
C1126 H1118 0.950 . S
C1126 C1124 1.391 1_565 S
C1126 C1127 1.400 1_565 S
C1127 C1126 1.400 1_545 S
C1127 C1128 1.398 . S
C1127 C1133 1.491 1_544 S
C1128 H1119 0.950 1_554 S
C1128 C1127 1.398 . S
C1128 C1129 1.391 . S
C1129 H1117 0.950 . S
C1129 C1125 1.393 . S
C1129 C1128 1.391 . S
C1130 H1120 0.954 . S
C1130 C1131 1.386 . S
C1130 C1132 1.391 1_565 S
C1131 C1130 1.386 . S
C1131 C1135 1.393 . S
C1132 H1121 0.950 . S
C1132 C1130 1.391 1_545 S
C1132 C1133 1.400 1_545 S
C1133 C1127 1.491 1_566 S
C1133 C1132 1.400 1_565 S
C1133 C1134 1.398 . S
C1134 H1122 0.950 1_556 S
C1134 C1133 1.398 . S
C1134 C1135 1.391 . S
C1135 H1123 0.950 . S
C1135 C1131 1.393 . S
C1135 C1134 1.391 . S
H1136 C1144 0.950 . S
H1137 C1149 0.950 . S
H1138 C1146 0.950 . S
H1139 C1148 0.950 . S
H1140 C1150 0.950 . S
H1141 C1152 0.950 . S
H1142 C1154 0.950 . S
H1143 C1155 0.950 . S
C1144 H1136 0.950 . S
C1144 C1145 1.386 . S
C1144 C1146 1.391 . S
C1145 C1144 1.386 . S
C1145 C1149 1.393 . S
C1146 H1138 0.950 . S
C1146 C1144 1.391 . S
C1146 C1147 1.400 . S
C1147 C1146 1.400 . S
C1147 C1148 1.398 . S
C1147 C1153 1.491 . S
C1148 H1139 0.950 . S
C1148 C1147 1.398 . S
C1148 C1149 1.391 . S
C1149 H1137 0.950 . S
C1149 C1145 1.393 . S
C1149 C1148 1.391 . S
C1150 H1140 0.950 . S
C1150 C1151 1.386 . S
C1150 C1152 1.391 . S
C1151 C1150 1.386 . S
C1151 C1155 1.393 . S
C1152 H1141 0.950 . S
C1152 C1150 1.391 . S
C1152 C1153 1.400 . S
C1153 C1147 1.491 . S
C1153 C1152 1.400 . S
C1153 C1154 1.398 . S
C1154 H1142 0.950 . S
C1154 C1153 1.398 . S
C1154 C1155 1.391 . S
C1155 H1143 0.950 . S
C1155 C1151 1.393 . S
C1155 C1154 1.391 . S
H1156 C1164 0.950 . S
H1157 C1169 0.950 . S
H1158 C1166 0.950 . S
H1159 C1168 0.950 . S
H1160 C1170 0.950 . S
H1161 C1172 0.950 . S
H1162 C1174 0.950 . S
H1163 C1175 0.950 . S
C1164 H1156 0.950 . S
C1164 C1165 1.386 . S
C1164 C1166 1.391 . S
C1165 C1164 1.386 . S
C1165 C1169 1.393 1_565 S
C1166 H1158 0.950 . S
C1166 C1164 1.391 . S
C1166 C1167 1.400 . S
C1167 C1166 1.400 . S
C1167 C1168 1.398 1_565 S
C1167 C1173 1.491 1_565 S
C1168 H1159 0.950 . S
C1168 C1167 1.398 1_545 S
C1168 C1169 1.391 . S
C1169 H1157 0.950 . S
C1169 C1165 1.393 1_545 S
C1169 C1168 1.391 . S
C1170 H1160 0.950 . S
C1170 C1171 1.386 . S
C1170 C1172 1.391 . S
C1171 C1170 1.386 . S
C1171 C1175 1.393 1_545 S
C1172 H1161 0.950 . S
C1172 C1170 1.391 . S
C1172 C1173 1.400 . S
C1173 C1167 1.491 1_545 S
C1173 C1172 1.400 . S
C1173 C1174 1.398 1_545 S
C1174 H1162 0.950 . S
C1174 C1173 1.398 1_565 S
C1174 C1175 1.391 . S
C1175 H1163 0.950 . S
C1175 C1171 1.393 1_565 S
C1175 C1174 1.391 . S
H1176 C1184 0.950 . S
H1177 C1189 0.950 . S
H1178 C1186 0.950 . S
H1179 C1188 0.950 . S
H1180 C1190 0.950 . S
H1181 C1192 0.950 . S
H1182 C1194 0.950 . S
H1183 C1195 0.950 . S
C1184 H1176 0.950 . S
C1184 C1185 1.386 . S
C1184 C1186 1.391 . S
C1185 C1184 1.386 . S
C1185 C1189 1.393 . S
C1186 H1178 0.950 . S
C1186 C1184 1.391 . S
C1186 C1187 1.400 . S
C1187 C1186 1.400 . S
C1187 C1188 1.398 . S
C1187 C1193 1.491 . S
C1188 H1179 0.950 . S
C1188 C1187 1.398 . S
C1188 C1189 1.391 . S
C1189 H1177 0.950 . S
C1189 C1185 1.393 . S
C1189 C1188 1.391 . S
C1190 H1180 0.950 . S
C1190 C1191 1.386 . S
C1190 C1192 1.391 . S
C1191 C1190 1.386 . S
C1191 C1195 1.393 . S
C1192 H1181 0.950 . S
C1192 C1190 1.391 . S
C1192 C1193 1.400 . S
C1193 C1187 1.491 . S
C1193 C1192 1.400 . S
C1193 C1194 1.398 . S
C1194 H1182 0.950 . S
C1194 C1193 1.398 . S
C1194 C1195 1.391 . S
C1195 H1183 0.950 . S
C1195 C1191 1.393 . S
C1195 C1194 1.391 . S
H1196 C1204 0.950 . S
H1197 C1209 0.950 . S
H1198 C1206 0.950 . S
H1199 C1208 0.950 . S
H1200 C1210 0.950 . S
H1201 C1212 0.950 . S
H1202 C1214 0.950 . S
H1203 C1215 0.950 . S
C1204 H1196 0.950 . S
C1204 C1205 1.386 1_565 S
C1204 C1206 1.391 . S
C1205 C1204 1.386 1_545 S
C1205 C1209 1.393 . S
C1206 H1198 0.950 . S
C1206 C1204 1.391 . S
C1206 C1207 1.400 1_565 S
C1207 C1206 1.400 1_545 S
C1207 C1208 1.398 . S
C1207 C1213 1.491 1_446 S
C1208 H1199 0.950 . S
C1208 C1207 1.398 . S
C1208 C1209 1.391 . S
C1209 H1197 0.950 . S
C1209 C1205 1.393 . S
C1209 C1208 1.391 . S
C1210 H1200 0.950 . S
C1210 C1211 1.386 1_545 S
C1210 C1212 1.391 . S
C1211 C1210 1.386 1_565 S
C1211 C1215 1.393 . S
C1212 H1201 0.950 . S
C1212 C1210 1.391 . S
C1212 C1213 1.400 1_545 S
C1213 C1207 1.491 1_664 S
C1213 C1212 1.400 1_565 S
C1213 C1214 1.398 . S
C1214 H1202 0.950 . S
C1214 C1213 1.398 . S
C1214 C1215 1.391 . S
C1215 H1203 0.950 . S
C1215 C1211 1.393 . S
C1215 C1214 1.391 . S
H1216 C1224 0.950 . S
H1217 C1229 0.950 . S
H1218 C1226 0.950 . S
H1219 C1228 0.950 . S
H1220 C1230 0.950 . S
H1221 C1232 0.950 . S
H1222 C1234 0.950 . S
H1223 C1235 0.950 . S
C1224 H1216 0.950 . S
C1224 C1225 1.386 . S
C1224 C1226 1.391 . S
C1225 C1224 1.386 . S
C1225 C1229 1.393 . S
C1226 H1218 0.950 . S
C1226 C1224 1.391 . S
C1226 C1227 1.400 . S
C1227 C1226 1.400 . S
C1227 C1228 1.398 . S
C1227 C1233 1.491 . S
C1228 H1219 0.950 . S
C1228 C1227 1.398 . S
C1228 C1229 1.391 . S
C1229 H1217 0.950 . S
C1229 C1225 1.393 . S
C1229 C1228 1.391 . S
C1230 H1220 0.950 . S
C1230 C1231 1.386 . S
C1230 C1232 1.391 . S
C1231 C1230 1.386 . S
C1231 C1235 1.393 . S
C1232 H1221 0.950 . S
C1232 C1230 1.391 . S
C1232 C1233 1.400 . S
C1233 C1227 1.491 . S
C1233 C1232 1.400 . S
C1233 C1234 1.398 . S
C1234 H1222 0.950 . S
C1234 C1233 1.398 . S
C1234 C1235 1.391 . S
C1235 H1223 0.950 . S
C1235 C1231 1.393 . S
C1235 C1234 1.391 . S
H1236 C1244 0.950 . S
H1237 C1249 0.950 . S
H1238 C1246 0.950 . S
H1239 C1248 0.950 . S
H1240 C1250 0.950 . S
H1241 C1252 0.950 . S
H1242 C1254 0.950 . S
H1243 C1255 0.950 . S
C1244 H1236 0.950 . S
C1244 C1245 1.386 . S
C1244 C1246 1.391 . S
C1245 C1244 1.386 . S
C1245 C1249 1.393 . S
C1246 H1238 0.950 . S
C1246 C1244 1.391 . S
C1246 C1247 1.400 . S
C1247 C1246 1.400 . S
C1247 C1248 1.398 . S
C1247 C1253 1.491 . S
C1248 H1239 0.950 . S
C1248 C1247 1.398 . S
C1248 C1249 1.391 . S
C1249 H1237 0.950 . S
C1249 C1245 1.393 . S
C1249 C1248 1.391 . S
C1250 H1240 0.950 . S
C1250 C1251 1.386 . S
C1250 C1252 1.391 . S
C1251 C1250 1.386 . S
C1251 C1255 1.393 . S
C1252 H1241 0.950 . S
C1252 C1250 1.391 . S
C1252 C1253 1.400 . S
C1253 C1247 1.491 . S
C1253 C1252 1.400 . S
C1253 C1254 1.398 . S
C1254 H1242 0.950 . S
C1254 C1253 1.398 . S
C1254 C1255 1.391 . S
C1255 H1243 0.950 . S
C1255 C1251 1.393 . S
C1255 C1254 1.391 . S
H1256 C1264 0.950 . S
H1257 C1269 0.950 . S
H1258 C1266 0.950 . S
H1259 C1268 0.950 . S
H1260 C1270 0.950 . S
H1261 C1272 0.950 . S
H1262 C1274 0.950 . S
H1263 C1275 0.950 . S
C1264 H1256 0.950 . S
C1264 C1265 1.386 . S
C1264 C1266 1.391 . S
C1265 C1264 1.386 . S
C1265 C1269 1.393 . S
C1266 H1258 0.950 . S
C1266 C1264 1.391 . S
C1266 C1267 1.400 . S
C1267 C1266 1.400 . S
C1267 C1268 1.398 . S
C1267 C1273 1.491 . S
C1268 H1259 0.950 . S
C1268 C1267 1.398 . S
C1268 C1269 1.391 . S
C1269 H1257 0.950 . S
C1269 C1265 1.393 . S
C1269 C1268 1.391 . S
C1270 H1260 0.950 . S
C1270 C1271 1.386 . S
C1270 C1272 1.391 . S
C1271 C1270 1.386 . S
C1271 C1275 1.393 . S
C1272 H1261 0.950 . S
C1272 C1270 1.391 . S
C1272 C1273 1.400 . S
C1273 C1267 1.491 . S
C1273 C1272 1.400 . S
C1273 C1274 1.398 . S
C1274 H1262 0.950 . S
C1274 C1273 1.398 . S
C1274 C1275 1.391 . S
C1275 H1263 0.950 . S
C1275 C1271 1.393 . S
C1275 C1274 1.391 . S
H1276 C1284 0.950 . S
H1277 C1289 0.950 . S
H1278 C1286 0.950 . S
H1279 C1288 0.950 . S
H1280 C1290 0.950 . S
H1281 C1292 0.950 . S
H1282 C1294 0.950 . S
H1283 C1295 0.950 . S
C1284 H1276 0.950 . S
C1284 C1285 1.386 . S
C1284 C1286 1.391 . S
C1285 C1284 1.386 . S
C1285 C1289 1.393 . S
C1286 H1278 0.950 . S
C1286 C1284 1.391 . S
C1286 C1287 1.400 . S
C1287 C1286 1.400 . S
C1287 C1288 1.398 . S
C1287 C1293 1.491 . S
C1288 H1279 0.950 . S
C1288 C1287 1.398 . S
C1288 C1289 1.391 . S
C1289 H1277 0.950 . S
C1289 C1285 1.393 . S
C1289 C1288 1.391 . S
C1290 H1280 0.950 . S
C1290 C1291 1.386 . S
C1290 C1292 1.391 . S
C1291 C1290 1.386 . S
C1291 C1295 1.393 . S
C1292 H1281 0.950 . S
C1292 C1290 1.391 . S
C1292 C1293 1.400 . S
C1293 C1287 1.491 . S
C1293 C1292 1.400 . S
C1293 C1294 1.398 . S
C1294 H1282 0.950 . S
C1294 C1293 1.398 . S
C1294 C1295 1.391 . S
C1295 H1283 0.950 . S
C1295 C1291 1.393 . S
C1295 C1294 1.391 . S
H1296 C1304 0.950 . S
H1297 C1309 0.950 . S
H1298 C1306 0.950 . S
H1299 C1308 0.950 1_556 S
H1300 C1310 0.950 . S
H1301 C1312 0.950 . S
H1302 C1314 0.950 1_554 S
H1303 C1315 0.950 . S
C1304 H1296 0.950 . S
C1304 C1305 1.386 . S
C1304 C1306 1.391 . S
C1305 C1304 1.386 . S
C1305 C1309 1.393 . S
C1306 H1298 0.950 . S
C1306 C1304 1.391 . S
C1306 C1307 1.400 . S
C1307 C1306 1.400 . S
C1307 C1308 1.398 . S
C1307 C1313 1.491 1_554 S
C1308 H1299 0.950 1_554 S
C1308 C1307 1.398 . S
C1308 C1309 1.391 . S
C1309 H1297 0.950 . S
C1309 C1305 1.393 . S
C1309 C1308 1.391 . S
C1310 H1300 0.950 . S
C1310 C1311 1.386 . S
C1310 C1312 1.391 . S
C1311 C1310 1.386 . S
C1311 C1315 1.393 . S
C1312 H1301 0.950 . S
C1312 C1310 1.391 . S
C1312 C1313 1.400 . S
C1313 C1307 1.491 1_556 S
C1313 C1312 1.400 . S
C1313 C1314 1.398 . S
C1314 H1302 0.950 1_556 S
C1314 C1313 1.398 . S
C1314 C1315 1.391 . S
C1315 H1303 0.950 . S
C1315 C1311 1.393 . S
C1315 C1314 1.391 . S
H1316 C1324 0.950 . S
H1317 C1329 0.950 . S
H1318 C1326 0.950 . S
H1319 C1328 0.950 1_655 S
H1320 C1330 0.950 . S
H1321 C1332 0.950 . S
H1322 C1334 0.950 1_455 S
H1323 C1335 0.950 . S
C1324 H1316 0.950 . S
C1324 C1325 1.386 . S
C1324 C1326 1.391 . S
C1325 C1324 1.386 . S
C1325 C1329 1.393 . S
C1326 H1318 0.950 . S
C1326 C1324 1.391 . S
C1326 C1327 1.400 . S
C1327 C1326 1.400 . S
C1327 C1328 1.398 . S
C1327 C1333 1.491 1_455 S
C1328 H1319 0.950 1_455 S
C1328 C1327 1.398 . S
C1328 C1329 1.391 . S
C1329 H1317 0.950 . S
C1329 C1325 1.393 . S
C1329 C1328 1.391 . S
C1330 H1320 0.950 . S
C1330 C1331 1.386 . S
C1330 C1332 1.391 . S
C1331 C1330 1.386 . S
C1331 C1335 1.393 . S
C1332 H1321 0.950 . S
C1332 C1330 1.391 . S
C1332 C1333 1.400 . S
C1333 C1327 1.491 1_655 S
C1333 C1332 1.400 . S
C1333 C1334 1.398 . S
C1334 H1322 0.950 1_655 S
C1334 C1333 1.398 . S
C1334 C1335 1.391 . S
C1335 H1323 0.950 . S
C1335 C1331 1.393 . S
C1335 C1334 1.391 . S
H1336 C1344 0.950 . S
H1337 C1349 0.950 . S
H1338 C1346 0.950 1_655 S
H1339 C1348 0.950 1_556 S
H1340 C1350 0.950 . S
H1341 C1352 0.950 1_455 S
H1342 C1354 0.950 1_554 S
H1343 C1355 0.950 . S
C1344 H1336 0.950 . S
C1344 C1345 1.386 . S
C1344 C1346 1.391 . S
C1345 C1344 1.386 . S
C1345 C1349 1.393 . S
C1346 H1338 0.950 1_455 S
C1346 C1344 1.391 . S
C1346 C1347 1.400 . S
C1347 C1346 1.400 . S
C1347 C1348 1.398 . S
C1347 C1353 1.491 1_454 S
C1348 H1339 0.950 1_554 S
C1348 C1347 1.398 . S
C1348 C1349 1.391 . S
C1349 H1337 0.950 . S
C1349 C1345 1.393 . S
C1349 C1348 1.391 . S
C1350 H1340 0.950 . S
C1350 C1351 1.386 . S
C1350 C1352 1.391 . S
C1351 C1350 1.386 . S
C1351 C1355 1.393 . S
C1352 H1341 0.950 1_655 S
C1352 C1350 1.391 . S
C1352 C1353 1.400 . S
C1353 C1347 1.491 1_656 S
C1353 C1352 1.400 . S
C1353 C1354 1.398 . S
C1354 H1342 0.950 1_556 S
C1354 C1353 1.398 . S
C1354 C1355 1.391 . S
C1355 H1343 0.950 . S
C1355 C1351 1.393 . S
C1355 C1354 1.391 . S
H1356 C1364 0.950 . S
H1357 C1369 0.950 . S
H1358 C1366 0.950 . S
H1359 C1368 0.950 . S
H1360 C1370 0.950 . S
H1361 C1372 0.950 . S
H1362 C1374 0.950 . S
H1363 C1375 0.950 . S
C1364 H1356 0.950 . S
C1364 C1365 1.386 . S
C1364 C1366 1.391 . S
C1365 C1364 1.386 . S
C1365 C1369 1.393 . S
C1366 H1358 0.950 . S
C1366 C1364 1.391 . S
C1366 C1367 1.400 . S
C1367 C1366 1.400 . S
C1367 C1368 1.398 . S
C1367 C1373 1.491 . S
C1368 H1359 0.950 . S
C1368 C1367 1.398 . S
C1368 C1369 1.391 . S
C1369 H1357 0.950 . S
C1369 C1365 1.393 . S
C1369 C1368 1.391 . S
C1370 H1360 0.950 . S
C1370 C1371 1.386 . S
C1370 C1372 1.391 . S
C1371 C1370 1.386 . S
C1371 C1375 1.393 . S
C1372 H1361 0.950 . S
C1372 C1370 1.391 . S
C1372 C1373 1.400 . S
C1373 C1367 1.491 . S
C1373 C1372 1.400 . S
C1373 C1374 1.398 . S
C1374 H1362 0.950 . S
C1374 C1373 1.398 . S
C1374 C1375 1.391 . S
C1375 H1363 0.950 . S
C1375 C1371 1.393 . S
C1375 C1374 1.391 . S
H1376 C1384 0.950 . S
H1377 C1389 0.950 . S
H1378 C1386 0.950 . S
H1379 C1388 0.950 . S
H1380 C1390 0.950 . S
H1381 C1392 0.950 . S
H1382 C1394 0.950 . S
H1383 C1395 0.950 . S
C1384 H1376 0.950 . S
C1384 C1385 1.386 . S
C1384 C1386 1.391 . S
C1385 C1384 1.386 . S
C1385 C1389 1.393 . S
C1386 H1378 0.950 . S
C1386 C1384 1.391 . S
C1386 C1387 1.400 . S
C1387 C1386 1.400 . S
C1387 C1388 1.398 . S
C1387 C1393 1.491 1_545 S
C1388 H1379 0.950 . S
C1388 C1387 1.398 . S
C1388 C1389 1.391 . S
C1389 H1377 0.950 . S
C1389 C1385 1.393 . S
C1389 C1388 1.391 . S
C1390 H1380 0.950 . S
C1390 C1391 1.386 . S
C1390 C1392 1.391 . S
C1391 C1390 1.386 . S
C1391 C1395 1.393 . S
C1392 H1381 0.950 . S
C1392 C1390 1.391 . S
C1392 C1393 1.400 . S
C1393 C1387 1.491 1_565 S
C1393 C1392 1.400 . S
C1393 C1394 1.398 . S
C1394 H1382 0.950 . S
C1394 C1393 1.398 . S
C1394 C1395 1.391 . S
C1395 H1383 0.950 . S
C1395 C1391 1.393 . S
C1395 C1394 1.391 . S
H1396 C1404 0.950 . S
H1397 C1409 0.950 . S
H1398 C1406 0.950 . S
H1399 C1408 0.950 . S
H1400 C1410 0.950 . S
H1401 C1412 0.950 . S
H1402 C1414 0.950 . S
H1403 C1415 0.950 . S
C1404 H1396 0.950 . S
C1404 C1405 1.386 . S
C1404 C1406 1.391 . S
C1405 C1404 1.386 . S
C1405 C1409 1.393 . S
C1406 H1398 0.950 . S
C1406 C1404 1.391 . S
C1406 C1407 1.400 . S
C1407 C1406 1.400 . S
C1407 C1408 1.398 . S
C1407 C1413 1.491 . S
C1408 H1399 0.950 . S
C1408 C1407 1.398 . S
C1408 C1409 1.391 . S
C1409 H1397 0.950 . S
C1409 C1405 1.393 . S
C1409 C1408 1.391 . S
C1410 H1400 0.950 . S
C1410 C1411 1.386 . S
C1410 C1412 1.391 . S
C1411 C1410 1.386 . S
C1411 C1415 1.393 . S
C1412 H1401 0.950 . S
C1412 C1410 1.391 . S
C1412 C1413 1.400 . S
C1413 C1407 1.491 . S
C1413 C1412 1.400 . S
C1413 C1414 1.398 . S
C1414 H1402 0.950 . S
C1414 C1413 1.398 . S
C1414 C1415 1.391 . S
C1415 H1403 0.950 . S
C1415 C1411 1.393 . S
C1415 C1414 1.391 . S
H1416 C1424 0.950 . S
H1417 C1429 0.950 . S
H1418 C1426 0.950 . S
H1419 C1428 0.950 . S
H1420 C1430 0.950 . S
H1421 C1432 0.950 . S
H1422 C1434 0.950 . S
H1423 C1435 0.950 . S
C1424 H1416 0.950 . S
C1424 C1425 1.386 . S
C1424 C1426 1.391 . S
C1425 C1424 1.386 . S
C1425 C1429 1.393 . S
C1426 H1418 0.950 . S
C1426 C1424 1.391 . S
C1426 C1427 1.400 . S
C1427 C1426 1.400 . S
C1427 C1428 1.398 . S
C1427 C1433 1.491 1_545 S
C1428 H1419 0.950 . S
C1428 C1427 1.398 . S
C1428 C1429 1.391 . S
C1429 H1417 0.950 . S
C1429 C1425 1.393 . S
C1429 C1428 1.391 . S
C1430 H1420 0.950 . S
C1430 C1431 1.386 . S
C1430 C1432 1.391 . S
C1431 C1430 1.386 . S
C1431 C1435 1.393 . S
C1432 H1421 0.950 . S
C1432 C1430 1.391 . S
C1432 C1433 1.400 . S
C1433 C1427 1.491 1_565 S
C1433 C1432 1.400 . S
C1433 C1434 1.398 . S
C1434 H1422 0.950 . S
C1434 C1433 1.398 . S
C1434 C1435 1.391 . S
C1435 H1423 0.950 . S
C1435 C1431 1.393 . S
C1435 C1434 1.391 . S
H1436 C1444 0.950 . S
H1437 C1449 0.950 . S
H1438 C1446 0.950 1_556 S
H1439 C1448 0.950 . S
H1440 C1450 0.950 . S
H1441 C1452 0.950 1_554 S
H1442 C1454 0.950 . S
H1443 C1455 0.950 . S
C1444 H1436 0.950 . S
C1444 C1445 1.386 . S
C1444 C1446 1.391 . S
C1445 C1444 1.386 . S
C1445 C1449 1.393 . S
C1446 H1438 0.950 1_554 S
C1446 C1444 1.391 . S
C1446 C1447 1.400 . S
C1447 C1446 1.400 . S
C1447 C1448 1.398 . S
C1447 C1453 1.491 1_554 S
C1448 H1439 0.950 . S
C1448 C1447 1.398 . S
C1448 C1449 1.391 . S
C1449 H1437 0.950 . S
C1449 C1445 1.393 . S
C1449 C1448 1.391 . S
C1450 H1440 0.950 . S
C1450 C1451 1.386 . S
C1450 C1452 1.391 . S
C1451 C1450 1.386 . S
C1451 C1455 1.393 . S
C1452 H1441 0.950 1_556 S
C1452 C1450 1.391 . S
C1452 C1453 1.400 . S
C1453 C1447 1.491 1_556 S
C1453 C1452 1.400 . S
C1453 C1454 1.398 . S
C1454 H1442 0.950 . S
C1454 C1453 1.398 . S
C1454 C1455 1.391 . S
C1455 H1443 0.950 . S
C1455 C1451 1.393 . S
C1455 C1454 1.391 . S
H1456 C1464 0.950 . S
H1457 C1469 0.950 . S
H1458 C1466 0.950 . S
H1459 C1468 0.950 1_565 S
H1460 C1470 0.950 . S
H1461 C1472 0.950 . S
H1462 C1474 0.950 1_545 S
H1463 C1475 0.950 . S
C1464 H1456 0.950 . S
C1464 C1465 1.386 . S
C1464 C1466 1.391 . S
C1465 C1464 1.386 . S
C1465 C1469 1.393 . S
C1466 H1458 0.950 . S
C1466 C1464 1.391 . S
C1466 C1467 1.400 . S
C1467 C1466 1.400 . S
C1467 C1468 1.398 . S
C1467 C1473 1.491 1_545 S
C1468 H1459 0.950 1_545 S
C1468 C1467 1.398 . S
C1468 C1469 1.391 . S
C1469 H1457 0.950 . S
C1469 C1465 1.393 . S
C1469 C1468 1.391 . S
C1470 H1460 0.950 . S
C1470 C1471 1.386 . S
C1470 C1472 1.391 . S
C1471 C1470 1.386 . S
C1471 C1475 1.393 . S
C1472 H1461 0.950 . S
C1472 C1470 1.391 . S
C1472 C1473 1.400 . S
C1473 C1467 1.491 1_565 S
C1473 C1472 1.400 . S
C1473 C1474 1.398 . S
C1474 H1462 0.950 1_565 S
C1474 C1473 1.398 . S
C1474 C1475 1.391 . S
C1475 H1463 0.950 . S
C1475 C1471 1.393 . S
C1475 C1474 1.391 . S
H1476 C1484 0.950 . S
H1477 C1489 0.950 . S
H1478 C1486 0.950 . S
H1479 C1488 0.950 . S
H1480 C1490 0.950 . S
H1481 C1492 0.950 . S
H1482 C1494 0.950 . S
H1483 C1495 0.950 . S
C1484 H1476 0.950 . S
C1484 C1485 1.386 . S
C1484 C1486 1.391 . S
C1485 C1484 1.386 . S
C1485 C1489 1.393 . S
C1486 H1478 0.950 . S
C1486 C1484 1.391 . S
C1486 C1487 1.400 . S
C1487 C1486 1.400 . S
C1487 C1488 1.398 . S
C1487 C1493 1.491 . S
C1488 H1479 0.950 . S
C1488 C1487 1.398 . S
C1488 C1489 1.391 . S
C1489 H1477 0.950 . S
C1489 C1485 1.393 . S
C1489 C1488 1.391 . S
C1490 H1480 0.950 . S
C1490 C1491 1.386 . S
C1490 C1492 1.391 . S
C1491 C1490 1.386 . S
C1491 C1495 1.393 . S
C1492 H1481 0.950 . S
C1492 C1490 1.391 . S
C1492 C1493 1.400 . S
C1493 C1487 1.491 . S
C1493 C1492 1.400 . S
C1493 C1494 1.398 . S
C1494 H1482 0.950 . S
C1494 C1493 1.398 . S
C1494 C1495 1.391 . S
C1495 H1483 0.950 . S
C1495 C1491 1.393 . S
C1495 C1494 1.391 . S
H1496 C1504 0.950 . S
H1497 C1509 0.950 . S
H1498 C1506 0.950 1_565 S
H1499 C1508 0.950 . S
H1500 C1510 0.950 . S
H1501 C1512 0.950 1_545 S
H1502 C1514 0.950 . S
H1503 C1515 0.950 . S
C1504 H1496 0.950 . S
C1504 C1505 1.386 . S
C1504 C1506 1.391 . S
C1505 C1504 1.386 . S
C1505 C1509 1.393 . S
C1506 H1498 0.950 1_545 S
C1506 C1504 1.391 . S
C1506 C1507 1.400 . S
C1507 C1506 1.400 . S
C1507 C1508 1.398 . S
C1507 C1513 1.491 1_545 S
C1508 H1499 0.950 . S
C1508 C1507 1.398 . S
C1508 C1509 1.391 . S
C1509 H1497 0.950 . S
C1509 C1505 1.393 . S
C1509 C1508 1.391 . S
C1510 H1500 0.950 . S
C1510 C1511 1.386 . S
C1510 C1512 1.391 . S
C1511 C1510 1.386 . S
C1511 C1515 1.393 . S
C1512 H1501 0.950 1_565 S
C1512 C1510 1.391 . S
C1512 C1513 1.400 . S
C1513 C1507 1.491 1_565 S
C1513 C1512 1.400 . S
C1513 C1514 1.398 . S
C1514 H1502 0.950 . S
C1514 C1513 1.398 . S
C1514 C1515 1.391 . S
C1515 H1503 0.950 . S
C1515 C1511 1.393 . S
C1515 C1514 1.391 . S
H1516 C1524 0.950 . S
H1517 C1529 0.950 . S
H1518 C1526 0.950 1_554 S
H1519 C1528 0.950 . S
H1520 C1530 0.950 . S
H1521 C1532 0.950 1_556 S
H1522 C1534 0.950 . S
H1523 C1535 0.950 . S
C1524 H1516 0.950 . S
C1524 C1525 1.386 . S
C1524 C1526 1.391 . S
C1525 C1524 1.386 . S
C1525 C1529 1.393 . S
C1526 H1518 0.950 1_556 S
C1526 C1524 1.391 . S
C1526 C1527 1.400 . S
C1527 C1526 1.400 . S
C1527 C1528 1.398 . S
C1527 C1533 1.491 1_556 S
C1528 H1519 0.950 . S
C1528 C1527 1.398 . S
C1528 C1529 1.391 . S
C1529 H1517 0.950 . S
C1529 C1525 1.393 . S
C1529 C1528 1.391 . S
C1530 H1520 0.950 . S
C1530 C1531 1.386 . S
C1530 C1532 1.391 . S
C1531 C1530 1.386 . S
C1531 C1535 1.393 . S
C1532 H1521 0.950 1_554 S
C1532 C1530 1.391 . S
C1532 C1533 1.400 . S
C1533 C1527 1.491 1_554 S
C1533 C1532 1.400 . S
C1533 C1534 1.398 . S
C1534 H1522 0.950 . S
C1534 C1533 1.398 . S
C1534 C1535 1.391 . S
C1535 H1523 0.950 . S
C1535 C1531 1.393 . S
C1535 C1534 1.391 . S
H1536 C1544 0.950 . S
H1537 C1549 0.950 . S
H1538 C1546 0.950 . S
H1539 C1548 0.950 . S
H1540 C1550 0.950 . S
H1541 C1552 0.950 . S
H1542 C1554 0.950 . S
H1543 C1555 0.950 . S
C1544 H1536 0.950 . S
C1544 C1545 1.386 . S
C1544 C1546 1.391 . S
C1545 C1544 1.386 . S
C1545 C1549 1.393 . S
C1546 H1538 0.950 . S
C1546 C1544 1.391 . S
C1546 C1547 1.400 . S
C1547 C1546 1.400 . S
C1547 C1548 1.398 . S
C1547 C1553 1.491 . S
C1548 H1539 0.950 . S
C1548 C1547 1.398 . S
C1548 C1549 1.391 . S
C1549 H1537 0.950 . S
C1549 C1545 1.393 . S
C1549 C1548 1.391 . S
C1550 H1540 0.950 . S
C1550 C1551 1.386 . S
C1550 C1552 1.391 . S
C1551 C1550 1.386 . S
C1551 C1555 1.393 . S
C1552 H1541 0.950 . S
C1552 C1550 1.391 . S
C1552 C1553 1.400 . S
C1553 C1547 1.491 . S
C1553 C1552 1.400 . S
C1553 C1554 1.398 . S
C1554 H1542 0.950 . S
C1554 C1553 1.398 . S
C1554 C1555 1.391 . S
C1555 H1543 0.950 . S
C1555 C1551 1.393 . S
C1555 C1554 1.391 . S
H1556 C1564 0.950 . S
H1557 C1569 0.950 . S
H1558 C1566 0.950 . S
H1559 C1568 0.950 1_554 S
H1560 C1570 0.950 . S
H1561 C1572 0.950 . S
H1562 C1574 0.950 1_556 S
H1563 C1575 0.950 . S
C1564 H1556 0.950 . S
C1564 C1565 1.386 . S
C1564 C1566 1.391 . S
C1565 C1564 1.386 . S
C1565 C1569 1.393 . S
C1566 H1558 0.950 . S
C1566 C1564 1.391 . S
C1566 C1567 1.400 . S
C1567 C1566 1.400 . S
C1567 C1568 1.398 . S
C1567 C1573 1.491 1_556 S
C1568 H1559 0.950 1_556 S
C1568 C1567 1.398 . S
C1568 C1569 1.391 . S
C1569 H1557 0.950 . S
C1569 C1565 1.393 . S
C1569 C1568 1.391 . S
C1570 H1560 0.950 . S
C1570 C1571 1.386 . S
C1570 C1572 1.391 . S
C1571 C1570 1.386 . S
C1571 C1575 1.393 . S
C1572 H1561 0.950 . S
C1572 C1570 1.391 . S
C1572 C1573 1.400 . S
C1573 C1567 1.491 1_554 S
C1573 C1572 1.400 . S
C1573 C1574 1.398 . S
C1574 H1562 0.950 1_554 S
C1574 C1573 1.398 . S
C1574 C1575 1.391 . S
C1575 H1563 0.950 . S
C1575 C1571 1.393 . S
C1575 C1574 1.391 . S
H1576 C1584 0.950 . S
H1577 C1589 0.950 . S
H1578 C1586 0.950 . S
H1579 C1588 0.950 . S
H1580 C1590 0.950 . S
H1581 C1592 0.950 . S
H1582 C1594 0.950 . S
H1583 C1595 0.950 . S
C1584 H1576 0.950 . S
C1584 C1585 1.386 . S
C1584 C1586 1.391 . S
C1585 C1584 1.386 . S
C1585 C1589 1.393 . S
C1586 H1578 0.950 . S
C1586 C1584 1.391 . S
C1586 C1587 1.400 . S
C1587 C1586 1.400 . S
C1587 C1588 1.398 . S
C1587 C1593 1.491 . S
C1588 H1579 0.950 . S
C1588 C1587 1.398 . S
C1588 C1589 1.391 . S
C1589 H1577 0.950 . S
C1589 C1585 1.393 . S
C1589 C1588 1.391 . S
C1590 H1580 0.950 . S
C1590 C1591 1.386 . S
C1590 C1592 1.391 . S
C1591 C1590 1.386 . S
C1591 C1595 1.393 . S
C1592 H1581 0.950 . S
C1592 C1590 1.391 . S
C1592 C1593 1.400 . S
C1593 C1587 1.491 . S
C1593 C1592 1.400 . S
C1593 C1594 1.398 . S
C1594 H1582 0.950 . S
C1594 C1593 1.398 . S
C1594 C1595 1.391 . S
C1595 H1583 0.950 . S
C1595 C1591 1.393 . S
C1595 C1594 1.391 . S
H1596 C1604 0.950 . S
H1597 C1609 0.950 . S
H1598 C1606 0.950 . S
H1599 C1608 0.950 . S
H1600 C1610 0.950 . S
H1601 C1612 0.950 . S
H1602 C1614 0.950 . S
H1603 C1615 0.950 . S
C1604 H1596 0.950 . S
C1604 C1605 1.386 . S
C1604 C1606 1.391 . S
C1605 C1604 1.386 . S
C1605 C1609 1.393 . S
C1606 H1598 0.950 . S
C1606 C1604 1.391 . S
C1606 C1607 1.400 . S
C1607 C1606 1.400 . S
C1607 C1608 1.398 . S
C1607 C1613 1.491 . S
C1608 H1599 0.950 . S
C1608 C1607 1.398 . S
C1608 C1609 1.391 . S
C1609 H1597 0.950 . S
C1609 C1605 1.393 . S
C1609 C1608 1.391 . S
C1610 H1600 0.950 . S
C1610 C1611 1.386 . S
C1610 C1612 1.391 . S
C1611 C1610 1.386 . S
C1611 C1615 1.393 . S
C1612 H1601 0.950 . S
C1612 C1610 1.391 . S
C1612 C1613 1.400 . S
C1613 C1607 1.491 . S
C1613 C1612 1.400 . S
C1613 C1614 1.398 . S
C1614 H1602 0.950 . S
C1614 C1613 1.398 . S
C1614 C1615 1.391 . S
C1615 H1603 0.950 . S
C1615 C1611 1.393 . S
C1615 C1614 1.391 . S
H1616 C1624 0.950 . S
H1617 C1629 0.950 . S
H1618 C1626 0.950 . S
H1619 C1628 0.950 . S
H1620 C1630 0.950 . S
H1621 C1632 0.950 . S
H1622 C1634 0.950 . S
H1623 C1635 0.950 . S
C1624 H1616 0.950 . S
C1624 C1625 1.386 . S
C1624 C1626 1.391 . S
C1625 C1624 1.386 . S
C1625 C1629 1.393 . S
C1626 H1618 0.950 . S
C1626 C1624 1.391 . S
C1626 C1627 1.400 . S
C1627 C1626 1.400 . S
C1627 C1628 1.398 . S
C1627 C1633 1.491 . S
C1628 H1619 0.950 . S
C1628 C1627 1.398 . S
C1628 C1629 1.391 . S
C1629 H1617 0.950 . S
C1629 C1625 1.393 . S
C1629 C1628 1.391 . S
C1630 H1620 0.950 . S
C1630 C1631 1.386 . S
C1630 C1632 1.391 . S
C1631 C1630 1.386 . S
C1631 C1635 1.393 . S
C1632 H1621 0.950 . S
C1632 C1630 1.391 . S
C1632 C1633 1.400 . S
C1633 C1627 1.491 . S
C1633 C1632 1.400 . S
C1633 C1634 1.398 . S
C1634 H1622 0.950 . S
C1634 C1633 1.398 . S
C1634 C1635 1.391 . S
C1635 H1623 0.950 . S
C1635 C1631 1.393 . S
C1635 C1634 1.391 . S
H1636 C1644 0.950 . S
H1637 C1649 0.950 . S
H1638 C1646 0.950 . S
H1639 C1648 0.950 1_554 S
H1640 C1650 0.950 . S
H1641 C1652 0.950 . S
H1642 C1654 0.950 1_556 S
H1643 C1655 0.950 . S
C1644 H1636 0.950 . S
C1644 C1645 1.386 . S
C1644 C1646 1.391 . S
C1645 C1644 1.386 . S
C1645 C1649 1.393 . S
C1646 H1638 0.950 . S
C1646 C1644 1.391 . S
C1646 C1647 1.400 . S
C1647 C1646 1.400 . S
C1647 C1648 1.398 . S
C1647 C1653 1.491 1_556 S
C1648 H1639 0.950 1_556 S
C1648 C1647 1.398 . S
C1648 C1649 1.391 . S
C1649 H1637 0.950 . S
C1649 C1645 1.393 . S
C1649 C1648 1.391 . S
C1650 H1640 0.950 . S
C1650 C1651 1.386 . S
C1650 C1652 1.391 . S
C1651 C1650 1.386 . S
C1651 C1655 1.393 . S
C1652 H1641 0.950 . S
C1652 C1650 1.391 . S
C1652 C1653 1.400 . S
C1653 C1647 1.491 1_554 S
C1653 C1652 1.400 . S
C1653 C1654 1.398 . S
C1654 H1642 0.950 1_554 S
C1654 C1653 1.398 . S
C1654 C1655 1.391 . S
C1655 H1643 0.950 . S
C1655 C1651 1.393 . S
C1655 C1654 1.391 . S
H1656 C1664 0.950 . S
H1657 C1669 0.950 . S
H1658 C1666 0.950 . S
H1659 C1668 0.950 . S
H1660 C1670 0.950 . S
H1661 C1672 0.950 . S
H1662 C1674 0.950 . S
H1663 C1675 0.950 . S
C1664 H1656 0.950 . S
C1664 C1665 1.386 . S
C1664 C1666 1.391 . S
C1665 C1664 1.386 . S
C1665 C1669 1.393 . S
C1666 H1658 0.950 . S
C1666 C1664 1.391 . S
C1666 C1667 1.400 . S
C1667 C1666 1.400 . S
C1667 C1668 1.398 . S
C1667 C1673 1.491 . S
C1668 H1659 0.950 . S
C1668 C1667 1.398 . S
C1668 C1669 1.391 . S
C1669 H1657 0.950 . S
C1669 C1665 1.393 . S
C1669 C1668 1.391 . S
C1670 H1660 0.950 . S
C1670 C1671 1.386 . S
C1670 C1672 1.391 . S
C1671 C1670 1.386 . S
C1671 C1675 1.393 . S
C1672 H1661 0.950 . S
C1672 C1670 1.391 . S
C1672 C1673 1.400 . S
C1673 C1667 1.491 . S
C1673 C1672 1.400 . S
C1673 C1674 1.398 . S
C1674 H1662 0.950 . S
C1674 C1673 1.398 . S
C1674 C1675 1.391 . S
C1675 H1663 0.950 . S
C1675 C1671 1.393 . S
C1675 C1674 1.391 . S
H1676 C1684 0.950 . S
H1677 C1689 0.950 . S
H1678 C1686 0.950 . S
H1679 C1688 0.950 . S
H1680 C1690 0.950 . S
H1681 C1692 0.950 . S
H1682 C1694 0.950 . S
H1683 C1695 0.950 . S
C1684 H1676 0.950 . S
C1684 C1685 1.386 . S
C1684 C1686 1.391 . S
C1685 C1684 1.386 . S
C1685 C1689 1.393 . S
C1686 H1678 0.950 . S
C1686 C1684 1.391 . S
C1686 C1687 1.400 . S
C1687 C1686 1.400 . S
C1687 C1688 1.398 . S
C1687 C1693 1.491 . S
C1688 H1679 0.950 . S
C1688 C1687 1.398 . S
C1688 C1689 1.391 . S
C1689 H1677 0.950 . S
C1689 C1685 1.393 . S
C1689 C1688 1.391 . S
C1690 H1680 0.950 . S
C1690 C1691 1.386 . S
C1690 C1692 1.391 . S
C1691 C1690 1.386 . S
C1691 C1695 1.393 . S
C1692 H1681 0.950 . S
C1692 C1690 1.391 . S
C1692 C1693 1.400 . S
C1693 C1687 1.491 . S
C1693 C1692 1.400 . S
C1693 C1694 1.398 . S
C1694 H1682 0.950 . S
C1694 C1693 1.398 . S
C1694 C1695 1.391 . S
C1695 H1683 0.950 . S
C1695 C1691 1.393 . S
C1695 C1694 1.391 . S
C425 C361 1.481 . S
C431 C10 1.520 . S
C445 C23 1.524 . S
C451 C105 1.529 . S
C465 C335 1.458 . S
C471 C36 1.512 . S
C485 C49 1.521 . S
C491 C131 1.516 . S
C505 C62 1.521 . S
C511 C387 1.481 . S
C525 C75 1.514 . S
C531 C183 1.532 . S
C545 C88 1.528 . S
C551 C413 1.465 . S
C565 C101 1.523 . S
C571 C157 1.516 . S
C585 C248 1.479 . S
C591 C114 1.546 . S
C605 C1 1.466 . S
C611 C118 1.511 . S
C625 C222 1.479 . S
C631 C140 1.546 . S
C645 C144 1.515 . S
C651 C27 1.479 . S
C665 C274 1.451 . S
C671 C166 1.544 . S
C685 C79 1.451 . S
C691 C170 1.521 . S
C705 C192 1.546 . S
C711 C300 1.477 . S
C725 C53 1.481 . S
C731 C196 1.519 . S
C745 C218 1.514 . S
C751 C153 1.478 . S
C765 C231 1.524 . S
C771 C313 1.529 . S
C785 C127 1.476 . S
C791 C244 1.526 . S
C805 C339 1.528 . S
C811 C257 1.511 . S
C825 C179 1.458 . S
C831 C270 1.512 . S
C845 C391 1.531 . S
C851 C283 1.513 . S
C865 C205 1.464 . S
C871 C296 1.528 . S
C885 C309 1.518 . S
C891 C365 1.532 . S
C905 C40 1.472 . S
C911 C322 1.545 . S
C925 C326 1.511 . S
C931 C209 1.464 . S
C945 C348 1.544 . S
C951 C14 1.454 . S
C965 C352 1.518 . S
C971 C235 1.451 . S
C985 C374 1.545 . S
C991 C66 1.472 . S
C1005 C378 1.528 . S
C1011 C287 1.467 . S
C1025 C400 1.544 . S
C1031 C92 1.452 . S
C1045 C404 1.527 . S
C1051 C261 1.459 . S
C1065 C315 1.748 . S
C1071 C3 1.637 . S
C1085 C16 1.636 . S
C1091 C122 1.636 . S
C1105 C341 1.755 . S
C1111 C29 1.658 . S
C1125 C42 1.665 . S
C1131 C148 1.665 . S
C1145 C367 1.756 . S
C1151 C55 1.660 . S
C1165 C68 1.650 . S
C1171 C174 1.650 . S
C1185 C393 1.760 . S
C1191 C81 1.663 . S
C1205 C94 1.652 . S
C1211 C200 1.652 . S
C1225 C107 1.758 . S
C1231 C211 1.663 . S
C1245 C133 1.754 . S
C1251 C237 1.656 . S
C1265 C159 1.752 . S
C1271 C263 1.652 . S
C1285 C185 1.757 . S
C1291 C289 1.653 . S
C1305 C224 1.662 . S
C1311 C330 1.662 . S
C1325 C356 1.657 . S
C1331 C250 1.657 . S
C1345 C382 1.639 . S
C1351 C276 1.639 . S
C1365 C302 1.662 . S
C1371 C408 1.662 . S
C1385 C5 1.974 . S
C1391 C57 1.977 . S
C1405 C18 1.962 . S
C1411 C70 1.963 . S
C1425 C83 1.962 . S
C1431 C31 1.963 . S
C1445 C44 1.974 . S
C1451 C96 1.965 . S
C1465 C161 2.011 . S
C1471 C109 2.006 . S
C1485 C172 1.977 . S
C1491 C120 1.972 . S
C1505 C135 2.007 . S
C1511 C187 2.009 . S
C1525 C146 1.967 . S
C1531 C198 1.975 . S
C1545 C265 1.976 . S
C1551 C213 1.975 . S
C1565 C278 1.961 . S
C1571 C226 1.965 . S
C1585 C239 1.962 . S
C1591 C291 1.965 . S
C1605 C304 1.961 . S
C1611 C252 1.966 . S
C1625 C369 2.010 . S
C1631 C317 2.007 . S
C1645 C328 1.972 . S
C1651 C380 1.963 . S
C1665 C395 2.007 . S
C1671 C343 2.009 . S
C1685 C354 1.966 . S
C1691 C406 1.961 . S
