# Generated by pormake.
# Topology unf, (4)-cn, num edge types: 1
# Building blocks:
#     Node 0, Type 0, BuildingBlock: ICAMEG_clean_sbu_1, # of connection points: 4
#     Node 1, Type 0, BuildingBlock: ICAMEG_clean_sbu_1, # of connection points: 4
#     Node 2, Type 0, BuildingBlock: ICAMEG_clean_sbu_1, # of connection points: 4
#     Node 3, Type 0, BuildingBlock: ICAMEG_clean_sbu_1, # of connection points: 4
#     Node 4, Type 0, BuildingBlock: ICAMEG_clean_sbu_1, # of connection points: 4
#     Node 5, Type 0, BuildingBlock: ICAMEG_clean_sbu_1, # of connection points: 4
#     Node 6, Type 0, BuildingBlock: ICAMEG_clean_sbu_1, # of connection points: 4
#     Node 7, Type 0, BuildingBlock: ICAMEG_clean_sbu_1, # of connection points: 4
#     Node 8, Type 0, BuildingBlock: ICAMEG_clean_sbu_1, # of connection points: 4
#     Node 9, Type 0, BuildingBlock: ICAMEG_clean_sbu_1, # of connection points: 4
#     Node 10, Type 0, BuildingBlock: ICAMEG_clean_sbu_1, # of connection points: 4
#     Node 11, Type 0, BuildingBlock: ICAMEG_clean_sbu_1, # of connection points: 4
#     Edge 12, Type (0, 0), BuildingBlock: TEMPAE_clean_linker_10, # of connection points: 2
#     Edge 13, Type (0, 0), BuildingBlock: TEMPAE_clean_linker_10, # of connection points: 2
#     Edge 14, Type (0, 0), BuildingBlock: TEMPAE_clean_linker_10, # of connection points: 2
#     Edge 15, Type (0, 0), BuildingBlock: TEMPAE_clean_linker_10, # of connection points: 2
#     Edge 16, Type (0, 0), BuildingBlock: TEMPAE_clean_linker_10, # of connection points: 2
#     Edge 17, Type (0, 0), BuildingBlock: TEMPAE_clean_linker_10, # of connection points: 2
#     Edge 18, Type (0, 0), BuildingBlock: TEMPAE_clean_linker_10, # of connection points: 2
#     Edge 19, Type (0, 0), BuildingBlock: TEMPAE_clean_linker_10, # of connection points: 2
#     Edge 20, Type (0, 0), BuildingBlock: TEMPAE_clean_linker_10, # of connection points: 2
#     Edge 21, Type (0, 0), BuildingBlock: TEMPAE_clean_linker_10, # of connection points: 2
#     Edge 22, Type (0, 0), BuildingBlock: TEMPAE_clean_linker_10, # of connection points: 2
#     Edge 23, Type (0, 0), BuildingBlock: TEMPAE_clean_linker_10, # of connection points: 2
#     Edge 24, Type (0, 0), BuildingBlock: TEMPAE_clean_linker_10, # of connection points: 2
#     Edge 25, Type (0, 0), BuildingBlock: TEMPAE_clean_linker_10, # of connection points: 2
#     Edge 26, Type (0, 0), BuildingBlock: TEMPAE_clean_linker_10, # of connection points: 2
#     Edge 27, Type (0, 0), BuildingBlock: TEMPAE_clean_linker_10, # of connection points: 2
#     Edge 28, Type (0, 0), BuildingBlock: TEMPAE_clean_linker_10, # of connection points: 2
#     Edge 29, Type (0, 0), BuildingBlock: TEMPAE_clean_linker_10, # of connection points: 2
#     Edge 30, Type (0, 0), BuildingBlock: TEMPAE_clean_linker_10, # of connection points: 2
#     Edge 31, Type (0, 0), BuildingBlock: TEMPAE_clean_linker_10, # of connection points: 2
#     Edge 32, Type (0, 0), BuildingBlock: TEMPAE_clean_linker_10, # of connection points: 2
#     Edge 33, Type (0, 0), BuildingBlock: TEMPAE_clean_linker_10, # of connection points: 2
#     Edge 34, Type (0, 0), BuildingBlock: TEMPAE_clean_linker_10, # of connection points: 2
#     Edge 35, Type (0, 0), BuildingBlock: TEMPAE_clean_linker_10, # of connection points: 2
# Relax obj value: 0.237
# Max RMSD: 0.194
# Mean RMSD: 0.194
data_MOF--net-unf--node1-ICAMEG_clean_sbu_1--edge1-TEMPAE_clean_linker_10
_symmetry_space_group_name_H-M    P1
_symmetry_Int_Tables_number       1
_symmetry_cell_setting            triclinic
loop_
_symmetry_equiv_pos_as_xyz
'x, y, z'
_cell_length_a     38.410395
_cell_length_b     38.453939
_cell_length_c     41.161746
_cell_angle_alpha  90.002488
_cell_angle_beta   90.017767
_cell_angle_gamma 119.9628
loop_
_atom_site_label
_atom_site_type_symbol
_atom_site_fract_x
_atom_site_fract_y
_atom_site_fract_z
_atom_type_partial_charge
Co0 Co 0.15691 0.43499 0.05054 0.0
Co1 Co 0.10038 0.42393 0.11775 0.0
O2 O 0.14962 0.43154 0.09743 0.0
C3 C 0.17973 0.37372 0.0661 0.0
O4 O 0.144 0.35141 0.07897 0.0
C5 C 0.1693 0.48478 0.15773 0.0
O6 O 0.18782 0.50304 0.13088 0.0
O7 O 0.10566 0.47241 0.09458 0.0
O8 O 0.1233 0.46105 0.04547 0.0
H9 H 0.9656 0.41577 0.12024 0.0
H10 H 0.22977 0.46598 0.09187 0.0
O11 O 0.18989 0.40816 0.0544 0.0
H12 H 0.24767 0.58218 0.02785 0.0
H13 H 0.23702 0.45808 0.94803 0.0
H14 H 0.10368 0.419 0.99335 0.0
H15 H 0.18707 0.51576 0.02082 0.0
H16 H 0.22673 0.45536 1.00731 0.0
O17 O 0.13291 0.45624 0.15645 0.0
H18 H 0.02731 0.42437 0.09456 0.0
H19 H 0.06931 0.40852 0.18575 0.0
H20 H 0.11266 0.42172 0.93397 0.0
H21 H 0.29111 0.53168 0.09929 0.0
H22 H 0.17976 0.44138 0.91091 0.0
H23 H 0.30029 0.59041 0.06723 0.0
O24 O 0.10704 0.38211 0.04517 0.0
H25 H 0.14881 0.34337 0.17972 0.0
H26 H 0.0324 0.34032 0.12625 0.0
H27 H 0.02453 0.27879 0.15176 0.0
H28 H 0.08297 0.2801 0.17886 0.0
H29 H 0.15551 0.40403 0.15358 0.0
H30 H 0.00811 0.40002 0.21249 0.0
H31 H 0.95564 0.40348 0.17966 0.0
O32 O 0.06691 0.39004 0.08048 0.0
C33 C 0.10689 0.47583 0.06354 0.0
C34 C 0.98822 0.41416 0.13482 0.0
C35 C 0.01211 0.40539 0.18659 0.0
N36 N 0.05195 0.41695 0.13859 0.0
C37 C 0.02326 0.41898 0.12039 0.0
C38 C 0.04679 0.41039 0.17132 0.0
C39 C 0.98267 0.4073 0.16815 0.0
C40 C 0.23376 0.49126 0.07754 0.0
N41 N 0.2049 0.48701 0.0559 0.0
C42 C 0.26847 0.52845 0.08198 0.0
C43 C 0.27355 0.56141 0.06404 0.0
C44 C 0.24401 0.55682 0.04197 0.0
C45 C 0.20967 0.51918 0.03821 0.0
C46 C 0.20768 0.44967 0.95778 0.0
C47 C 0.13303 0.42803 0.98356 0.0
C48 C 0.20166 0.44806 0.99133 0.0
N49 N 0.16474 0.43765 1.00383 0.0
C50 C 0.13791 0.42932 0.94988 0.0
C51 C 0.17555 0.44029 0.93696 0.0
C52 C 0.07236 0.37259 0.05619 0.0
C53 C 0.12306 0.34246 0.16813 0.0
C54 C 0.058 0.34115 0.13796 0.0
C55 C 0.05334 0.30621 0.1524 0.0
C56 C 0.08614 0.30697 0.1676 0.0
N57 N 0.09426 0.37595 0.13875 0.0
C58 C 0.12662 0.37681 0.15342 0.0
Co59 Co 0.56613 0.71362 0.0575 0.0
Co60 Co 0.5965 0.68649 0.12732 0.0
O61 O 0.57845 0.71871 0.10377 0.0
C62 C 0.62733 0.79921 0.06361 0.0
O63 O 0.65045 0.78772 0.07794 0.0
C64 C 0.53153 0.68695 0.16768 0.0
O65 O 0.5106 0.6822 0.14119 0.0
O66 O 0.55157 0.63498 0.10872 0.0
O67 O 0.54092 0.65429 0.05987 0.0
H68 H 0.63581 0.58051 0.13922 0.0
H69 H 0.54217 0.762 0.0981 0.0
O70 O 0.5922 0.77334 0.05412 0.0
H71 H 0.41575 0.65233 0.05321 0.0
H72 H 0.52181 0.74949 0.95385 0.0
H73 H 0.56885 0.66363 1.00359 0.0
H74 H 0.48074 0.65763 0.03946 0.0
H75 H 0.53725 0.7545 1.01241 0.0
O76 O 0.56353 0.68468 0.16623 0.0
H77 H 0.61315 0.62133 0.10965 0.0
H78 H 0.61955 0.68425 0.19631 0.0
H79 H 0.55339 0.65739 0.94506 0.0
H80 H 0.47792 0.75814 0.11216 0.0
H81 H 0.5297 0.70054 0.91978 0.0
H82 H 0.41409 0.7029 0.08974 0.0
O83 O 0.61796 0.71636 0.04637 0.0
H84 H 0.65969 0.82437 0.17698 0.0
H85 H 0.68465 0.71889 0.13463 0.0
H86 H 0.7415 0.78218 0.15485 0.0
H87 H 0.72917 0.83544 0.17634 0.0
H88 H 0.60387 0.76092 0.1561 0.0
H89 H 0.64203 0.6439 0.22687 0.0
H90 H 0.65041 0.59164 0.1983 0.0
O91 O 0.63082 0.68922 0.08989 0.0
C92 C 0.53668 0.62719 0.07992 0.0
C93 C 0.63218 0.60312 0.15197 0.0
C94 C 0.6356 0.63864 0.20117 0.0
N95 N 0.61459 0.65489 0.15125 0.0
C96 C 0.6193 0.62632 0.13535 0.0
C97 C 0.6226 0.66124 0.18375 0.0
C98 C 0.64035 0.60937 0.18512 0.0
C99 C 0.51458 0.73815 0.08794 0.0
N100 N 0.51522 0.71011 0.06793 0.0
C101 C 0.47826 0.736 0.09613 0.0
C102 C 0.44245 0.70495 0.0836 0.0
C103 C 0.44336 0.67653 0.06314 0.0
C104 C 0.48023 0.67958 0.05554 0.0
C105 C 0.53207 0.7305 0.96459 0.0
C106 C 0.55837 0.68239 0.99285 0.0
C107 C 0.54097 0.73328 0.99772 0.0
N108 N 0.55378 0.70926 1.01146 0.0
C109 C 0.54975 0.67878 0.95965 0.0
C110 C 0.53649 0.70302 0.94549 0.0
C111 C 0.6379 0.70254 0.06082 0.0
C112 C 0.66544 0.80135 0.16776 0.0
C113 C 0.67906 0.74196 0.14375 0.0
C114 C 0.71136 0.77771 0.15528 0.0
C115 C 0.70442 0.80757 0.16735 0.0
N116 N 0.64088 0.736 0.14429 0.0
C117 C 0.63389 0.76522 0.15603 0.0
Co118 Co 0.29089 0.8485 0.05164 0.0
Co119 Co 0.32046 0.9039 0.1222 0.0
O120 O 0.28702 0.85414 0.09841 0.0
C121 C 0.20503 0.82126 0.06082 0.0
O122 O 0.21655 0.85513 0.07634 0.0
C123 C 0.31739 0.83717 0.16256 0.0
O124 O 0.3203 0.81982 0.13608 0.0
O125 O 0.3709 0.90841 0.10324 0.0
O126 O 0.35025 0.88476 0.05272 0.0
H127 H 0.43158 0.04688 0.1345 0.0
H128 H 0.24557 0.77411 0.09064 0.0
O129 O 0.23109 0.81323 0.0495 0.0
H130 H 0.35776 0.76496 0.04142 0.0
H131 H 0.25326 0.77126 0.94653 0.0
H132 H 0.33785 0.9034 0.99765 0.0
H133 H 0.34929 0.82341 0.03057 0.0
H134 H 0.25021 0.77982 1.00566 0.0
O135 O 0.32143 0.87214 0.16095 0.0
H136 H 0.38906 0.98381 0.10492 0.0
H137 H 0.32313 0.92977 0.19105 0.0
H138 H 0.34202 0.89613 0.93855 0.0
H139 H 0.25255 0.71486 0.10173 0.0
H140 H 0.29951 0.82966 0.91257 0.0
H141 H 0.30909 0.71011 0.07714 0.0
O142 O 0.28573 0.89665 0.04275 0.0
H143 H 0.18259 0.83257 0.17229 0.0
H144 H 0.29069 0.96174 0.13041 0.0
H145 H 0.22832 0.95724 0.15099 0.0
H146 H 0.17375 0.89229 0.17226 0.0
H147 H 0.24511 0.83826 0.15097 0.0
H148 H 0.36525 0.99214 0.22163 0.0
H149 H 0.41982 0.05134 0.19331 0.0
O150 O 0.31872 0.93663 0.08505 0.0
C151 C 0.37789 0.90504 0.07328 0.0
C152 C 0.40789 0.0213 0.14712 0.0
C153 C 0.3707 0.99055 0.19603 0.0
N154 N 0.3536 0.95309 0.1462 0.0
C155 C 0.38366 0.98549 0.13048 0.0
C156 C 0.34707 0.95524 0.1786 0.0
C157 C 0.40129 0.02377 0.18011 0.0
C158 C 0.26995 0.77203 0.07952 0.0
N159 N 0.29694 0.80215 0.05993 0.0
C160 C 0.27388 0.7385 0.08603 0.0
C161 C 0.30566 0.7359 0.07229 0.0
C162 C 0.33301 0.7667 0.05228 0.0
C163 C 0.32817 0.7998 0.04634 0.0
C164 C 0.27194 0.80037 0.95757 0.0
C165 C 0.31936 0.87434 0.98661 0.0
C166 C 0.27027 0.80542 0.99103 0.0
N167 N 0.2939 0.84205 1.00515 0.0
C168 C 0.3218 0.87043 0.95309 0.0
C169 C 0.29791 0.83314 0.93853 0.0
C170 C 0.30251 0.93069 0.05699 0.0
C171 C 0.20618 0.86107 0.16317 0.0
C172 C 0.26702 0.93334 0.13936 0.0
C173 C 0.2318 0.93099 0.15113 0.0
C174 C 0.20122 0.89456 0.16309 0.0
N175 N 0.27173 0.90039 0.13954 0.0
C176 C 0.24181 0.86455 0.1512 0.0
Co177 Co 0.56827 0.85311 0.47599 0.0
Co178 Co 0.5901 0.90719 0.40504 0.0
O179 O 0.57542 0.8579 0.42897 0.0
C180 C 0.62606 0.82515 0.46461 0.0
O181 O 0.64823 0.85888 0.44888 0.0
C182 C 0.52599 0.83906 0.36601 0.0
O183 O 0.50687 0.82174 0.39291 0.0
O184 O 0.54447 0.91113 0.42542 0.0
O185 O 0.54528 0.88948 0.47601 0.0
H186 H 0.61906 0.04923 0.39276 0.0
H187 H 0.53693 0.77782 0.43774 0.0
O188 O 0.59261 0.81766 0.47695 0.0
H189 H 0.41852 0.77014 0.4914 0.0
H190 H 0.53403 0.7777 0.5819 0.0
H191 H 0.57907 0.90896 0.53009 0.0
H192 H 0.486 0.82873 0.49994 0.0
H193 H 0.54252 0.78521 0.52246 0.0
O194 O 0.55616 0.87458 0.36699 0.0
H195 H 0.60078 0.98681 0.42252 0.0
H196 H 0.61021 0.93231 0.3357 0.0
H197 H 0.57076 0.90275 0.58951 0.0
H198 H 0.47012 0.71839 0.42896 0.0
H199 H 0.54808 0.83672 0.61584 0.0
H200 H 0.41028 0.71437 0.45578 0.0
O201 O 0.62205 0.90135 0.48314 0.0
H202 H 0.65651 0.83698 0.35269 0.0
H203 H 0.67701 0.966 0.39446 0.0
H204 H 0.73459 0.96234 0.37208 0.0
H205 H 0.7245 0.89747 0.35085 0.0
H206 H 0.6 0.84184 0.3758 0.0
H207 H 0.62817 0.99404 0.30495 0.0
H208 H 0.63288 0.05314 0.33352 0.0
O209 O 0.62581 0.94075 0.44138 0.0
C210 C 0.53629 0.9089 0.45582 0.0
C211 C 0.61712 0.02369 0.38003 0.0
C212 C 0.62217 0.99269 0.33074 0.0
N213 N 0.60442 0.9559 0.3809 0.0
C214 C 0.60683 0.98825 0.39677 0.0
C215 C 0.61179 0.95773 0.34827 0.0
C216 C 0.62485 0.02585 0.34679 0.0
C217 C 0.51114 0.77608 0.44984 0.0
N218 N 0.51539 0.8067 0.46937 0.0
C219 C 0.47333 0.74244 0.44462 0.0
C220 C 0.43976 0.74024 0.45961 0.0
C221 C 0.44436 0.77156 0.47956 0.0
C222 C 0.48262 0.80475 0.48419 0.0
C223 C 0.54391 0.80662 0.57071 0.0
C224 C 0.56905 0.8801 0.54128 0.0
C225 C 0.54888 0.81109 0.53707 0.0
N226 N 0.56121 0.84749 0.52276 0.0
C227 C 0.56447 0.87678 0.57499 0.0
C228 C 0.55178 0.83974 0.58974 0.0
C229 C 0.63795 0.93531 0.4688 0.0
C230 C 0.66129 0.86545 0.36178 0.0
C231 C 0.67242 0.93764 0.38553 0.0
C232 C 0.70512 0.93576 0.37274 0.0
C233 C 0.69943 0.89938 0.3608 0.0
N234 N 0.63505 0.90427 0.38636 0.0
C235 C 0.62931 0.86846 0.37476 0.0
Co236 Co 0.15679 0.71929 0.47234 0.0
Co237 Co 0.09875 0.68947 0.40281 0.0
O238 O 0.1493 0.72243 0.4258 0.0
C239 C 0.18245 0.80487 0.46316 0.0
O240 O 0.14795 0.79313 0.44854 0.0
C241 C 0.16363 0.68827 0.36292 0.0
O242 O 0.18034 0.68486 0.38963 0.0
O243 O 0.09216 0.63869 0.42292 0.0
O244 O 0.12198 0.65988 0.47163 0.0
H245 H 0.95328 0.58322 0.39302 0.0
H246 H 0.22908 0.76521 0.4311 0.0
O247 O 0.19111 0.7791 0.47402 0.0
H248 H 0.24431 0.65646 0.47995 0.0
H249 H 0.23779 0.75897 0.57566 0.0
H250 H 0.10425 0.67203 0.52729 0.0
H251 H 0.18521 0.66323 0.49265 0.0
H252 H 0.22698 0.76154 0.51684 0.0
O253 O 0.12929 0.68583 0.36424 0.0
H254 H 0.01717 0.62507 0.4218 0.0
H255 H 0.07261 0.6846 0.33376 0.0
H256 H 0.11382 0.66824 0.58611 0.0
H257 H 0.2889 0.75987 0.41808 0.0
H258 H 0.18099 0.71195 0.6107 0.0
H259 H 0.29673 0.70509 0.44249 0.0
O260 O 0.10822 0.72329 0.48272 0.0
H261 H 0.17352 0.82521 0.34959 0.0
H262 H 0.04321 0.72188 0.39383 0.0
H263 H 0.0498 0.78444 0.37169 0.0
H264 H 0.11531 0.83661 0.34924 0.0
H265 H 0.16577 0.76254 0.37242 0.0
H266 H 0.00936 0.64317 0.30398 0.0
H267 H 0.94907 0.5921 0.33364 0.0
O268 O 0.06767 0.69395 0.43984 0.0
C269 C 0.09905 0.632 0.45213 0.0
C270 C 0.97936 0.60531 0.3798 0.0
C271 C 0.01086 0.63891 0.32982 0.0
N272 N 0.04875 0.65705 0.37948 0.0
C273 C 0.01566 0.62911 0.39597 0.0
C274 C 0.04668 0.66213 0.3468 0.0
C275 C 0.97702 0.6103 0.34649 0.0
C276 C 0.23249 0.74157 0.44213 0.0
N277 N 0.20371 0.7146 0.46266 0.0
C278 C 0.26634 0.73858 0.43452 0.0
C279 C 0.27066 0.70778 0.44817 0.0
C280 C 0.24123 0.68045 0.46916 0.0
C281 C 0.20774 0.68432 0.47615 0.0
C282 C 0.20839 0.73976 0.56523 0.0
C283 C 0.13362 0.69103 0.53774 0.0
C284 C 0.20206 0.74116 0.53195 0.0
N285 N 0.16506 0.71686 0.5186 0.0
C286 C 0.13883 0.6888 0.5711 0.0
C287 C 0.17651 0.71336 0.58487 0.0
C288 C 0.0743 0.70881 0.46841 0.0
C289 C 0.14478 0.80267 0.35923 0.0
C290 C 0.07186 0.7445 0.38432 0.0
C291 C 0.07538 0.77983 0.37169 0.0
C292 C 0.11213 0.80907 0.35908 0.0
N293 N 0.10396 0.73836 0.38434 0.0
C294 C 0.14013 0.76697 0.37206 0.0
Co295 Co 0.29058 0.43952 0.47024 0.0
Co296 Co 0.32091 0.41507 0.39958 0.0
O297 O 0.28698 0.43082 0.42338 0.0
C298 C 0.20432 0.38152 0.46146 0.0
O299 O 0.21503 0.35812 0.44657 0.0
C300 C 0.31721 0.4786 0.35938 0.0
O301 O 0.32036 0.49886 0.38593 0.0
O302 O 0.37103 0.46123 0.4187 0.0
O303 O 0.34988 0.46199 0.46947 0.0
H304 H 0.43342 0.38503 0.38708 0.0
H305 H 0.24631 0.47023 0.4316 0.0
O306 O 0.23087 0.41577 0.47208 0.0
H307 H 0.35862 0.58962 0.48268 0.0
H308 H 0.25283 0.4779 0.5759 0.0
H309 H 0.33617 0.42912 0.52413 0.0
H310 H 0.34936 0.52223 0.49252 0.0
H311 H 0.25034 0.46769 0.5166 0.0
O312 O 0.32131 0.44769 0.36086 0.0
H313 H 0.3902 0.40466 0.41678 0.0
H314 H 0.32397 0.39233 0.33067 0.0
H315 H 0.33975 0.43913 0.58341 0.0
H316 H 0.25408 0.53697 0.42151 0.0
H317 H 0.29787 0.4637 0.60972 0.0
H318 H 0.31068 0.59728 0.44704 0.0
O319 O 0.28475 0.38584 0.4783 0.0
H320 H 0.18308 0.34725 0.3493 0.0
H321 H 0.29221 0.32772 0.39154 0.0
H322 H 0.23031 0.26951 0.37081 0.0
H323 H 0.17523 0.27911 0.34936 0.0
H324 H 0.24518 0.40447 0.37071 0.0
H325 H 0.36677 0.37296 0.29997 0.0
H326 H 0.42185 0.36903 0.32823 0.0
O327 O 0.31969 0.38068 0.43665 0.0
C328 C 0.37777 0.4703 0.44892 0.0
C329 C 0.40951 0.38662 0.3745 0.0
C330 C 0.37214 0.37991 0.3256 0.0
N331 N 0.35456 0.39966 0.37551 0.0
C332 C 0.38489 0.39768 0.3912 0.0
C333 C 0.34812 0.39109 0.34309 0.0
C334 C 0.40302 0.37767 0.34148 0.0
C335 C 0.27072 0.49626 0.44312 0.0
N336 N 0.29731 0.49233 0.46267 0.0
C337 C 0.2751 0.53401 0.43717 0.0
C338 C 0.30691 0.56784 0.45144 0.0
C339 C 0.33386 0.56357 0.4714 0.0
C340 C 0.32857 0.52536 0.47677 0.0
C341 C 0.27126 0.46723 0.56472 0.0
C342 C 0.318 0.44002 0.53531 0.0
C343 C 0.26992 0.46132 0.53116 0.0
N344 N 0.29323 0.44801 0.51686 0.0
C345 C 0.32009 0.44554 0.56894 0.0
C346 C 0.29655 0.45928 0.58368 0.0
C347 C 0.30251 0.36939 0.46429 0.0
C348 C 0.20692 0.3427 0.35848 0.0
C349 C 0.26834 0.33213 0.38244 0.0
C350 C 0.23338 0.29906 0.37062 0.0
C351 C 0.20251 0.30447 0.35857 0.0
N352 N 0.27253 0.36958 0.38219 0.0
C353 C 0.24229 0.37506 0.3705 0.0
Co354 Co 0.85403 0.56513 0.9688 0.0
Co355 Co 0.91027 0.59705 0.89838 0.0
O356 O 0.8601 0.57728 0.92247 0.0
C357 C 0.82621 0.62375 0.96249 0.0
O358 O 0.86003 0.64709 0.94722 0.0
C359 C 0.84565 0.53097 0.85831 0.0
O360 O 0.82994 0.51002 0.88485 0.0
O361 O 0.91925 0.55348 0.9166 0.0
O362 O 0.88994 0.54177 0.96583 0.0
H363 H 0.05689 0.64211 0.88487 0.0
H364 H 0.78046 0.53864 0.9291 0.0
O365 O 0.81866 0.5894 0.97273 0.0
H366 H 0.76952 0.4145 0.9736 0.0
H367 H 0.77587 0.51923 0.0733 0.0
H368 H 0.90852 0.56975 0.02199 0.0
H369 H 0.82797 0.48051 0.98679 0.0
H370 H 0.78488 0.5345 0.01467 0.0
O371 O 0.87941 0.56349 0.85965 0.0
H372 H 0.99356 0.61734 0.91515 0.0
H373 H 0.93393 0.6204 0.82919 0.0
H374 H 0.90076 0.55454 0.08056 0.0
H375 H 0.72125 0.47333 0.91562 0.0
H376 H 0.83405 0.5291 0.10663 0.0
H377 H 0.71557 0.41064 0.93785 0.0
O378 O 0.9021 0.61781 0.97961 0.0
H379 H 0.83053 0.65554 0.84975 0.0
H380 H 0.96308 0.68558 0.89131 0.0
H381 H 0.95369 0.74081 0.87146 0.0
H382 H 0.88703 0.72593 0.85037 0.0
H383 H 0.84109 0.60135 0.87026 0.0
H384 H 0.99659 0.64495 0.79793 0.0
H385 H 0.0587 0.65605 0.82578 0.0
O386 O 0.94157 0.63184 0.93563 0.0
C387 C 0.91316 0.53863 0.94536 0.0
C388 C 0.03 0.63726 0.87242 0.0
C389 C 0.99613 0.63878 0.82363 0.0
N390 N 0.95986 0.61687 0.87393 0.0
C391 C 0.99399 0.62315 0.88944 0.0
C392 C 0.96065 0.6246 0.84144 0.0
C393 C 0.03099 0.64506 0.83928 0.0
C394 C 0.77799 0.51155 0.93917 0.0
N395 N 0.80762 0.5134 0.95875 0.0
C396 C 0.74449 0.47462 0.93132 0.0
C397 C 0.74137 0.43946 0.94374 0.0
C398 C 0.77165 0.44161 0.96376 0.0
C399 C 0.80477 0.47905 0.97103 0.0
C400 C 0.80508 0.53027 0.06222 0.0
C401 C 0.87934 0.55852 0.03308 0.0
C402 C 0.81039 0.53908 0.02905 0.0
N403 N 0.84716 0.55288 0.01488 0.0
C404 C 0.87516 0.55004 0.0663 0.0
C405 C 0.83773 0.5358 0.08091 0.0
C406 C 0.93548 0.63853 0.96484 0.0
C407 C 0.85976 0.6624 0.85878 0.0
C408 C 0.93396 0.67886 0.88233 0.0
C409 C 0.92884 0.71026 0.87102 0.0
C410 C 0.89145 0.70189 0.85918 0.0
N411 N 0.90279 0.64018 0.88178 0.0
C412 C 0.866 0.63178 0.87028 0.0
Co413 Co 0.43933 0.28499 0.97544 0.0
Co414 Co 0.41794 0.32007 0.906 0.0
O415 O 0.4324 0.28435 0.92848 0.0
C416 C 0.38177 0.19946 0.96298 0.0
O417 O 0.35883 0.21094 0.94832 0.0
C418 C 0.48213 0.31747 0.86607 0.0
O419 O 0.50159 0.31922 0.89278 0.0
O420 O 0.46388 0.36857 0.9271 0.0
O421 O 0.46177 0.34422 0.97714 0.0
H422 H 0.39019 0.43441 0.89782 0.0
H423 H 0.47167 0.24325 0.93545 0.0
O424 O 0.41558 0.22536 0.97483 0.0
H425 H 0.58905 0.3522 0.99144 0.0
H426 H 0.47378 0.24053 0.07967 0.0
H427 H 0.42639 0.32664 0.03104 0.0
H428 H 0.5212 0.3423 1.00044 0.0
H429 H 0.46598 0.24202 0.02029 0.0
O430 O 0.45162 0.32229 0.86746 0.0
H431 H 0.40791 0.38874 0.92587 0.0
H432 H 0.39781 0.32778 0.83722 0.0
H433 H 0.43399 0.32627 0.09044 0.0
H434 H 0.53888 0.25167 0.92615 0.0
H435 H 0.45785 0.28297 0.11517 0.0
H436 H 0.59819 0.30659 0.95415 0.0
O437 O 0.38528 0.27862 0.98282 0.0
H438 H 0.35037 0.18573 0.85011 0.0
H439 H 0.33103 0.29303 0.89658 0.0
H440 H 0.27308 0.23308 0.87313 0.0
H441 H 0.28259 0.17895 0.84953 0.0
H442 H 0.4073 0.24582 0.87426 0.0
H443 H 0.38037 0.37307 0.80817 0.0
H444 H 0.37629 0.42675 0.83853 0.0
O445 O 0.38247 0.31701 0.94292 0.0
C446 C 0.47128 0.37338 0.95766 0.0
C447 C 0.39185 0.41112 0.88432 0.0
C448 C 0.3864 0.37673 0.834 0.0
N449 N 0.4039 0.35558 0.88323 0.0
C450 C 0.40183 0.38512 0.90008 0.0
C451 C 0.39648 0.35128 0.85057 0.0
C452 C 0.38408 0.40682 0.85105 0.0
C453 C 0.49725 0.2669 0.94804 0.0
N454 N 0.4925 0.29222 0.9685 0.0
C455 C 0.53527 0.27166 0.94254 0.0
C456 C 0.56855 0.30254 0.9582 0.0
C457 C 0.56345 0.32818 0.97909 0.0
C458 C 0.52498 0.32255 0.98397 0.0
C459 C 0.46343 0.25958 0.06918 0.0
C460 C 0.43702 0.30791 0.04154 0.0
C461 C 0.45889 0.2605 0.03558 0.0
N462 N 0.44598 0.28459 0.02215 0.0
C463 C 0.44116 0.30774 0.07523 0.0
C464 C 0.4545 0.2834 0.08909 0.0
C465 C 0.36977 0.29772 0.96961 0.0
C466 C 0.34586 0.20917 0.86021 0.0
C467 C 0.33539 0.26954 0.88656 0.0
C468 C 0.30247 0.2357 0.8732 0.0
C469 C 0.30783 0.20535 0.85994 0.0
N470 N 0.37265 0.27318 0.88664 0.0
C471 C 0.37807 0.24343 0.8738 0.0
Co472 Co 0.71983 0.14955 0.97415 0.0
Co473 Co 0.68922 0.09584 0.90235 0.0
O474 O 0.72334 0.14498 0.92706 0.0
C475 C 0.80554 0.17628 0.96312 0.0
O476 O 0.79453 0.14712 0.94199 0.0
C477 C 0.69192 0.1642 0.86441 0.0
O478 O 0.69063 0.18127 0.89163 0.0
O479 O 0.63883 0.08997 0.92278 0.0
O480 O 0.6603 0.11607 0.97252 0.0
H481 H 0.57926 0.95262 0.88817 0.0
H482 H 0.76791 0.22422 0.93633 0.0
O483 O 0.77963 0.18215 0.97755 0.0
H484 H 0.65995 0.23912 0.98737 0.0
H485 H 0.75833 0.22248 0.08131 0.0
H486 H 0.67117 0.0933 0.02672 0.0
H487 H 0.66478 0.17832 0.99682 0.0
H488 H 0.76183 0.21615 0.02193 0.0
O489 O 0.68708 0.12886 0.86494 0.0
H490 H 0.62257 0.01443 0.91892 0.0
H491 H 0.68443 0.07286 0.83242 0.0
H492 H 0.66642 0.09842 0.08605 0.0
H493 H 0.76456 0.28578 0.92656 0.0
H494 H 0.71025 0.16337 0.11377 0.0
H495 H 0.71017 0.29344 0.95209 0.0
O496 O 0.72291 0.10017 0.98165 0.0
H497 H 0.82467 0.16854 0.84816 0.0
H498 H 0.7195 0.03884 0.89181 0.0
H499 H 0.78087 0.04392 0.8683 0.0
H500 H 0.83392 0.1091 0.84609 0.0
H501 H 0.76327 0.16233 0.87244 0.0
H502 H 0.64158 0.01173 0.80069 0.0
H503 H 0.58858 0.95098 0.82858 0.0
O504 O 0.69192 0.06202 0.93806 0.0
C505 C 0.63224 0.09523 0.95245 0.0
C506 C 0.60218 0.97891 0.87571 0.0
C507 C 0.63711 0.01212 0.82662 0.0
N508 N 0.65578 0.04743 0.87749 0.0
C509 C 0.6268 0.01405 0.893 0.0
C510 C 0.66114 0.04675 0.8447 0.0
C511 C 0.60742 0.97803 0.84229 0.0
C512 C 0.74444 0.22755 0.94781 0.0
N513 N 0.71659 0.19773 0.96714 0.0
C514 C 0.74257 0.26238 0.94206 0.0
C515 C 0.712 0.26661 0.95633 0.0
C516 C 0.68377 0.23612 0.9761 0.0
C517 C 0.68654 0.20167 0.98124 0.0
C518 C 0.73905 0.19404 0.06951 0.0
C519 C 0.69018 0.12175 0.03854 0.0
C520 C 0.74096 0.19024 0.0359 0.0
N521 N 0.71658 0.15445 0.02082 0.0
C522 C 0.68743 0.12443 0.07217 0.0
C523 C 0.71205 0.16086 0.08771 0.0
C524 C 0.70719 0.06691 0.96639 0.0
C525 C 0.8017 0.13993 0.85763 0.0
C526 C 0.74253 0.06737 0.88244 0.0
C527 C 0.77718 0.07003 0.86903 0.0
C528 C 0.80691 0.10659 0.85654 0.0
N529 N 0.73754 0.10015 0.88335 0.0
C530 C 0.76667 0.13614 0.87124 0.0
Co531 Co 0.44049 0.15497 0.55592 0.0
Co532 Co 0.41244 0.09772 0.62576 0.0
O533 O 0.42953 0.1479 0.6024 0.0
C534 C 0.37944 0.17976 0.5631 0.0
O535 O 0.35606 0.14498 0.57702 0.0
C536 C 0.47763 0.16337 0.6658 0.0
O537 O 0.49796 0.17995 0.63917 0.0
O538 O 0.45736 0.0917 0.60634 0.0
O539 O 0.46561 0.12058 0.55728 0.0
H540 H 0.3753 0.95303 0.6369 0.0
H541 H 0.46595 0.22751 0.59658 0.0
O542 O 0.41453 0.18888 0.55355 0.0
H543 H 0.59075 0.24325 0.54884 0.0
H544 H 0.48187 0.23474 0.45207 0.0
H545 H 0.43581 0.10199 0.50152 0.0
H546 H 0.52526 0.18376 0.53615 0.0
H547 H 0.46828 0.22456 0.51089 0.0
O548 O 0.44594 0.12892 0.66445 0.0
H549 H 0.39656 0.01635 0.60757 0.0
H550 H 0.39079 0.07219 0.69486 0.0
H551 H 0.44941 0.11094 0.44272 0.0
H552 H 0.53072 0.28772 0.60958 0.0
H553 H 0.4726 0.17771 0.41758 0.0
H554 H 0.59375 0.2958 0.58572 0.0
O555 O 0.38829 0.10611 0.54557 0.0
H556 H 0.34889 0.17116 0.67728 0.0
H557 H 0.32457 0.04139 0.63395 0.0
H558 H 0.26771 0.04714 0.65529 0.0
H559 H 0.27972 0.11238 0.67729 0.0
H560 H 0.40473 0.16423 0.6553 0.0
H561 H 0.36972 0.00952 0.72519 0.0
H562 H 0.36175 0.94931 0.69619 0.0
O563 O 0.37756 0.066 0.58861 0.0
C564 C 0.47094 0.09821 0.57714 0.0
C565 C 0.37875 0.97907 0.64984 0.0
C566 C 0.3757 0.0108 0.69939 0.0
N567 N 0.39533 0.04812 0.64949 0.0
C568 C 0.39083 0.01506 0.63336 0.0
C569 C 0.38789 0.04631 0.68211 0.0
C570 C 0.37117 0.97702 0.6831 0.0
C571 C 0.49318 0.23103 0.5858 0.0
N572 N 0.49181 0.20217 0.56559 0.0
C573 C 0.5298 0.26509 0.59339 0.0
C574 C 0.56515 0.26956 0.58005 0.0
C575 C 0.5635 0.24006 0.55939 0.0
C576 C 0.52635 0.20635 0.5524 0.0
C577 C 0.47182 0.20552 0.46274 0.0
C578 C 0.4461 0.1312 0.49084 0.0
C579 C 0.46398 0.19955 0.49602 0.0
N580 N 0.45145 0.16277 0.50968 0.0
C581 C 0.45366 0.13606 0.45749 0.0
C582 C 0.46663 0.17351 0.44341 0.0
C583 C 0.36927 0.07226 0.55994 0.0
C584 C 0.34328 0.14254 0.66786 0.0
C585 C 0.33003 0.06991 0.6433 0.0
C586 C 0.29772 0.07297 0.65546 0.0
C587 C 0.30448 0.10957 0.66781 0.0
N588 N 0.36804 0.10232 0.64352 0.0
C589 C 0.37485 0.13835 0.6555 0.0
Co590 Co 0.85418 0.29101 0.55347 0.0
Co591 Co 0.90954 0.32194 0.62394 0.0
O592 O 0.85983 0.28773 0.60029 0.0
C593 C 0.82738 0.20516 0.56244 0.0
O594 O 0.86174 0.21646 0.57714 0.0
C595 C 0.84223 0.31801 0.66424 0.0
O596 O 0.82474 0.32071 0.63774 0.0
O597 O 0.91314 0.37179 0.60461 0.0
O598 O 0.8903 0.35033 0.55406 0.0
H599 H 0.05187 0.4348 0.63583 0.0
H600 H 0.77968 0.24603 0.59251 0.0
O601 O 0.819 0.23126 0.55181 0.0
H602 H 0.77006 0.35712 0.54181 0.0
H603 H 0.77685 0.25174 0.44835 0.0
H604 H 0.90909 0.33718 0.49921 0.0
H605 H 0.82877 0.34883 0.53153 0.0
H606 H 0.78542 0.24964 0.50757 0.0
O607 O 0.87744 0.32254 0.66265 0.0
H608 H 0.98896 0.39117 0.60637 0.0
H609 H 0.93574 0.3257 0.69284 0.0
H610 H 0.90181 0.3404 0.44001 0.0
H611 H 0.72016 0.25284 0.60305 0.0
H612 H 0.83529 0.29745 0.41415 0.0
H613 H 0.71516 0.30882 0.57771 0.0
O614 O 0.90255 0.28605 0.54501 0.0
H615 H 0.84017 0.18456 0.67468 0.0
H616 H 0.96861 0.29373 0.63252 0.0
H617 H 0.96533 0.23217 0.65358 0.0
H618 H 0.90076 0.17707 0.675 0.0
H619 H 0.84466 0.24631 0.65292 0.0
H620 H 0.99796 0.36893 0.7233 0.0
H621 H 0.05667 0.42383 0.69475 0.0
O622 O 0.94259 0.32052 0.58687 0.0
C623 C 0.91021 0.37831 0.57445 0.0
C624 C 0.02651 0.41096 0.64855 0.0
C625 C 0.99623 0.37404 0.69765 0.0
N626 N 0.95866 0.35588 0.64783 0.0
C627 C 0.99079 0.38611 0.63198 0.0
C628 C 0.96099 0.34977 0.68029 0.0
C629 C 0.02917 0.40481 0.6816 0.0
C630 C 0.7775 0.27017 0.58107 0.0
N631 N 0.80764 0.29696 0.56138 0.0
C632 C 0.74382 0.27401 0.58727 0.0
C633 C 0.74108 0.30547 0.57311 0.0
C634 C 0.7719 0.33262 0.553 0.0
C635 C 0.80516 0.32788 0.54738 0.0
C636 C 0.80597 0.27062 0.45933 0.0
C637 C 0.88001 0.31852 0.48823 0.0
C638 C 0.81104 0.26949 0.49284 0.0
N639 N 0.84771 0.29335 0.50689 0.0
C640 C 0.87609 0.32042 0.45465 0.0
C641 C 0.83877 0.29629 0.44016 0.0
C642 C 0.93674 0.30367 0.55908 0.0
C643 C 0.86851 0.2084 0.6655 0.0
C644 C 0.94037 0.26982 0.64156 0.0
C645 C 0.93872 0.23507 0.65359 0.0
C646 C 0.90249 0.20419 0.66563 0.0
N647 N 0.90696 0.27382 0.64158 0.0
C648 C 0.87131 0.24358 0.65327 0.0
Co649 Co 0.71951 0.56565 0.55162 0.0
Co650 Co 0.6887 0.59272 0.62122 0.0
O651 O 0.72218 0.57578 0.59822 0.0
C652 C 0.80491 0.62583 0.56176 0.0
O653 O 0.79267 0.648 0.57663 0.0
C654 C 0.68832 0.52686 0.66072 0.0
O655 O 0.68538 0.5071 0.63392 0.0
O656 O 0.6382 0.54859 0.60065 0.0
O657 O 0.65997 0.54058 0.552 0.0
H658 H 0.58133 0.63051 0.63089 0.0
H659 H 0.76575 0.53952 0.5928 0.0
O660 O 0.77945 0.59164 0.5503 0.0
H661 H 0.6579 0.41568 0.54308 0.0
H662 H 0.76086 0.52616 0.44827 0.0
H663 H 0.67213 0.57062 0.49654 0.0
H664 H 0.66409 0.48131 0.53077 0.0
H665 H 0.76284 0.53896 0.50714 0.0
O666 O 0.685 0.55823 0.65956 0.0
H667 H 0.62397 0.60944 0.60211 0.0
H668 H 0.68292 0.61293 0.69041 0.0
H669 H 0.66892 0.55781 0.43766 0.0
H670 H 0.76101 0.4746 0.60542 0.0
H671 H 0.71354 0.53543 0.41312 0.0
H672 H 0.70668 0.41206 0.58057 0.0
O673 O 0.72304 0.61802 0.54151 0.0
H674 H 0.82421 0.65383 0.67522 0.0
H675 H 0.72029 0.68026 0.63122 0.0
H676 H 0.78245 0.73616 0.65403 0.0
H677 H 0.83491 0.72308 0.67637 0.0
H678 H 0.76198 0.59902 0.65169 0.0
H679 H 0.64069 0.63377 0.72019 0.0
H680 H 0.58951 0.64281 0.69039 0.0
O681 O 0.6933 0.62862 0.58445 0.0
C682 C 0.63183 0.53528 0.57137 0.0
C683 C 0.60347 0.62661 0.64417 0.0
C684 C 0.63673 0.62836 0.69428 0.0
N685 N 0.65571 0.6096 0.64456 0.0
C686 C 0.62771 0.61465 0.628 0.0
C687 C 0.66041 0.61631 0.67731 0.0
C688 C 0.60806 0.63348 0.67755 0.0
C689 C 0.74232 0.51251 0.58157 0.0
N690 N 0.71526 0.51422 0.56102 0.0
C691 C 0.73966 0.4758 0.58895 0.0
C692 C 0.70911 0.44071 0.57507 0.0
C693 C 0.6817 0.44272 0.55406 0.0
C694 C 0.68524 0.47995 0.54729 0.0
C695 C 0.74127 0.53589 0.45867 0.0
C696 C 0.69155 0.56075 0.48611 0.0
C697 C 0.74234 0.54331 0.49198 0.0
N698 N 0.71756 0.55544 0.50531 0.0
C699 C 0.68964 0.55361 0.45272 0.0
C700 C 0.7147 0.54108 0.43896 0.0
C701 C 0.70833 0.63716 0.55594 0.0
C702 C 0.80154 0.65991 0.66563 0.0
C703 C 0.74306 0.67437 0.64064 0.0
C704 C 0.77815 0.70612 0.65367 0.0
C705 C 0.80755 0.69876 0.66623 0.0
N706 N 0.7373 0.63632 0.64018 0.0
C707 C 0.76608 0.62892 0.6524 0.0
C708 C 0.24821 0.38354 0.05824 0.0
C709 C 0.20673 0.35732 0.06083 0.0
C710 C 0.27387 0.36977 0.04772 0.0
C711 C 0.25751 0.32894 0.03891 0.0
C712 C 0.21593 0.30185 0.04332 0.0
C713 C 0.19101 0.31634 0.05458 0.0
C714 C 0.31824 0.39933 0.04444 0.0
C715 C 0.19729 0.25824 0.03383 0.0
C716 C 0.31487 0.31453 0.97052 0.0
C717 C 0.33762 0.30076 0.98702 0.0
C718 C 0.28737 0.32194 0.98701 0.0
C719 C 0.28296 0.31624 0.02105 0.0
C720 C 0.30487 0.3012 0.03781 0.0
C721 C 0.33169 0.29325 0.02052 0.0
C722 C 0.26423 0.33749 0.96809 0.0
C723 C 0.30143 0.29531 0.07416 0.0
H724 H 0.26043 0.41519 0.06346 0.0
H725 H 0.15889 0.29605 0.05642 0.0
H726 H 0.33569 0.38814 0.05789 0.0
H727 H 0.32731 0.40231 0.01854 0.0
H728 H 0.32647 0.42954 0.05389 0.0
H729 H 0.1659 0.24013 0.04272 0.0
H730 H 0.19708 0.25583 1.00695 0.0
H731 H 0.21521 0.24517 0.04346 0.0
H732 H 0.31913 0.32043 0.94468 0.0
H733 H 0.34918 0.28271 0.03353 0.0
H734 H 0.27426 0.36886 0.97545 0.0
H735 H 0.23166 0.3193 0.97355 0.0
H736 H 0.26851 0.33695 0.94144 0.0
H737 H 0.3153 0.32501 0.08632 0.0
H738 H 0.31671 0.27902 0.08296 0.0
H739 H 0.26944 0.27847 0.08167 0.0
C740 C 0.68431 0.868 0.05172 0.0
C741 C 0.64295 0.84188 0.05559 0.0
C742 C 0.69896 0.90711 0.03986 0.0
C743 C 0.67157 0.92047 0.03236 0.0
C744 C 0.62999 0.89498 0.03815 0.0
C745 C 0.61615 0.85583 0.04937 0.0
C746 C 0.74342 0.93327 0.03362 0.0
C747 C 0.59989 0.90842 0.03112 0.0
C748 C 0.70636 0.03049 0.01715 0.0
C749 C 0.70334 0.0311 0.98319 0.0
C750 C 0.69725 0.99493 0.0336 0.0
C751 C 0.6856 0.95944 0.01558 0.0
C752 C 0.68458 0.96042 0.98123 0.0
C753 C 0.69312 0.99611 0.96549 0.0
C754 C 0.69814 0.9949 0.07026 0.0
C755 C 0.67287 0.92333 0.96108 0.0
H756 H 0.7051 0.85725 0.05643 0.0
H757 H 0.58416 0.83581 0.0527 0.0
H758 H 0.74885 0.93728 1.00705 0.0
H759 H 0.75472 0.96351 0.04431 0.0
H760 H 0.76108 0.92007 0.04373 0.0
H761 H 0.56936 0.88665 0.04016 0.0
H762 H 0.6096 0.93806 0.04246 0.0
H763 H 0.59808 0.91195 1.00453 0.0
H764 H 0.71414 0.05733 0.03107 0.0
H765 H 0.69084 0.99624 0.93927 0.0
H766 H 0.71584 0.98121 0.07916 0.0
H767 H 0.6671 0.97638 0.07969 0.0
H768 H 0.71115 0.02562 0.08054 0.0
H769 H 0.69101 0.90942 0.96825 0.0
H770 H 0.67697 0.92998 0.93464 0.0
H771 H 0.64085 0.90086 0.96553 0.0
C772 C 0.13454 0.80789 0.05509 0.0
C773 C 0.162 0.79396 0.05368 0.0
C774 C 0.09476 0.78381 0.04438 0.0
C775 C 0.08213 0.74474 0.03247 0.0
C776 C 0.10905 0.72965 0.03295 0.0
C777 C 0.14877 0.75457 0.04329 0.0
C778 C 0.06702 0.80103 0.04402 0.0
C779 C 0.0965 0.68784 0.02104 0.0
C780 C 0.97227 0.66828 0.01698 0.0
C781 C 0.97045 0.66978 0.98299 0.0
C782 C 0.00808 0.69351 0.03376 0.0
C783 C 0.04252 0.72124 0.01612 0.0
C784 C 0.04004 0.72456 0.98207 0.0
C785 C 1.00418 0.69865 0.96594 0.0
C786 C 0.00968 0.68886 0.07004 0.0
C787 C 0.07588 0.75414 0.96237 0.0
H788 H 0.14458 0.8383 0.06313 0.0
H789 H 0.16974 0.74347 0.04255 0.0
H790 H 0.0615 0.80636 0.01853 0.0
H791 H 0.0375 0.77951 0.0548 0.0
H792 H 0.07979 0.82987 0.05749 0.0
H793 H 0.11949 0.67913 0.02631 0.0
H794 H 0.06773 0.66557 0.03246 0.0
H795 H 0.09154 0.68621 0.99439 0.0
H796 H 0.94641 0.64604 0.03036 0.0
H797 H 1.00305 0.70024 0.93972 0.0
H798 H 0.0237 0.71856 0.0822 0.0
H799 H 0.02862 0.67528 0.07552 0.0
H800 H 0.97937 0.66941 0.08061 0.0
H801 H 0.08907 0.78465 0.97299 0.0
H802 H 0.06796 0.75542 0.9366 0.0
H803 H 0.09942 0.74545 0.96293 0.0
C804 C 0.70157 0.6983 0.55563 0.0
C805 C 0.70538 0.66906 0.53821 0.0
C806 C 0.69255 0.72511 0.5399 0.0
C807 C 0.68643 0.72219 0.50588 0.0
C808 C 0.69206 0.694 0.48786 0.0
C809 C 0.70191 0.66798 0.50424 0.0
C810 C 0.68756 0.75521 0.56001 0.0
C811 C 0.68531 0.68966 0.45161 0.0
C812 C 0.61465 0.75774 0.48082 0.0
C813 C 0.64118 0.79712 0.47064 0.0
C814 C 0.62889 0.73207 0.49027 0.0
C815 C 0.67076 0.74638 0.49007 0.0
C816 C 0.69753 0.7854 0.47826 0.0
C817 C 0.68236 0.81026 0.46843 0.0
C818 C 0.59925 0.69034 0.5021 0.0
C819 C 0.74235 0.80177 0.47788 0.0
H820 H 0.7045 0.69957 0.58182 0.0
H821 H 0.70473 0.64542 0.49059 0.0
H822 H 0.70524 0.78568 0.54938 0.0
H823 H 0.65553 0.74724 0.55996 0.0
H824 H 0.69721 0.75623 0.58561 0.0
H825 H 0.69577 0.67006 0.44066 0.0
H826 H 0.65275 0.67636 0.44647 0.0
H827 H 0.70103 0.71942 0.43957 0.0
H828 H 0.58271 0.74724 0.48214 0.0
H829 H 0.703 0.84065 0.46052 0.0
H830 H 0.60296 0.68841 0.52866 0.0
H831 H 0.60499 0.66779 0.49022 0.0
H832 H 0.56762 0.68228 0.49729 0.0
H833 H 0.7538 0.80702 0.5032 0.0
H834 H 0.75857 0.83052 0.46432 0.0
H835 H 0.74952 0.7798 0.4668 0.0
C836 C 0.19567 0.87496 0.47097 0.0
C837 C 0.21002 0.84786 0.46992 0.0
C838 C 0.22034 0.91453 0.48186 0.0
C839 C 0.26038 0.92729 0.49137 0.0
C840 C 0.27578 0.90082 0.48819 0.0
C841 C 0.25029 0.8613 0.47779 0.0
C842 C 0.20278 0.94179 0.48516 0.0
C843 C 0.31857 0.91351 0.49746 0.0
C844 C 0.33696 0.03677 0.50789 0.0
C845 C 0.33772 0.03731 0.54198 0.0
C846 C 0.31094 1.00149 0.49083 0.0
C847 C 0.28472 0.96629 0.50834 0.0
C848 C 0.28381 0.96738 0.54268 0.0
C849 C 0.31049 0.00272 0.55904 0.0
C850 C 0.31306 1.00134 0.45423 0.0
C851 C 0.25591 0.93067 0.56231 0.0
H852 H 0.16456 0.86471 0.46489 0.0
H853 H 0.26167 0.84058 0.47659 0.0
H854 H 0.19893 0.94614 0.51129 0.0
H855 H 0.22341 0.97179 0.47474 0.0
H856 H 0.17308 0.92925 0.473 0.0
H857 H 0.32723 0.8911 0.48995 0.0
H858 H 0.33975 0.94282 0.48622 0.0
H859 H 0.32213 0.91737 0.5242 0.0
H860 H 0.35795 0.0633 0.49449 0.0
H861 H 0.31066 0.00283 0.58534 0.0
H862 H 0.28251 0.98764 0.44354 0.0
H863 H 0.32632 0.98281 0.44649 0.0
H864 H 0.33166 0.03204 0.44414 0.0
H865 H 0.22462 0.91759 0.5533 0.0
H866 H 0.25642 0.9375 0.58859 0.0
H867 H 0.26481 0.90747 0.5595 0.0
C868 C 0.97289 0.30615 0.50756 0.0
C869 C 0.9724 0.30798 0.5416 0.0
C870 C 0.00845 0.31574 0.49075 0.0
C871 C 0.04399 0.32639 0.50848 0.0
C872 C 0.04311 0.32636 0.54285 0.0
C873 C 0.00755 0.31766 0.55892 0.0
C874 C 0.00838 0.31625 0.45409 0.0
C875 C 0.08023 0.33713 0.56273 0.0
C876 C 0.13438 0.3257 0.47189 0.0
C877 C 0.16164 0.36692 0.46898 0.0
C878 C 0.09518 0.31182 0.4834 0.0
C879 C 0.08289 0.33985 0.49155 0.0
C880 C 0.10962 0.38138 0.48674 0.0
C881 C 0.14877 0.39442 0.47575 0.0
C882 C 0.06779 0.26737 0.48865 0.0
C883 C 0.09719 0.41215 0.49387 0.0
H884 H 0.94597 0.29889 0.49394 0.0
H885 H 0.00759 0.31924 0.58518 0.0
H886 H 0.02639 0.34768 0.44544 0.0
H887 H 0.02256 0.29943 0.44428 0.0
H888 H 0.97754 0.30318 0.44397 0.0
H889 H 0.07369 0.33245 0.58917 0.0
H890 H 0.09375 0.31883 0.55496 0.0
H891 H 0.103 0.36912 0.55868 0.0
H892 H 0.14427 0.30434 0.46674 0.0
H893 H 0.16962 0.42629 0.47301 0.0
H894 H 0.03789 0.25735 0.47765 0.0
H895 H 0.06311 0.26112 0.5151 0.0
H896 H 0.08034 0.24931 0.47821 0.0
H897 H 0.07223 0.40705 0.47741 0.0
H898 H 0.12219 0.4434 0.49039 0.0
H899 H 0.08603 0.40895 0.51917 0.0
C900 C 0.69806 0.69389 0.05953 0.0
C901 C 0.6692 0.69895 0.0426 0.0
C902 C 0.72474 0.68518 0.04317 0.0
C903 C 0.72215 0.68069 1.00898 0.0
C904 C 0.69417 0.68727 0.99153 0.0
C905 C 0.66822 0.69669 1.00855 0.0
C906 C 0.75455 0.67902 0.0627 0.0
C907 C 0.69021 0.68229 0.95511 0.0
C908 C 0.811 0.67942 0.96987 0.0
C909 C 0.79804 0.63825 0.97023 0.0
C910 C 0.7859 0.69375 0.98099 0.0
C911 C 0.74678 0.66616 0.99223 0.0
C912 C 0.73271 0.62443 0.9907 0.0
C913 C 0.75863 0.611 0.97998 0.0
C914 C 0.80205 0.73845 0.98246 0.0
C915 C 0.69091 0.59397 1.00189 0.0
H916 H 0.69924 0.69576 0.08578 0.0
H917 H 0.64594 0.70041 0.99526 0.0
H918 H 0.7467 0.64711 0.06124 0.0
H919 H 0.78524 0.69741 0.05257 0.0
H920 H 0.75507 0.68703 0.08871 0.0
H921 H 0.67013 0.69258 0.94483 0.0
H922 H 0.72008 0.69921 0.94332 0.0
H923 H 0.6777 0.65015 0.94884 0.0
H924 H 0.84141 0.70063 0.96231 0.0
H925 H 0.74824 0.57909 0.97988 0.0
H926 H 0.80666 0.74832 1.00821 0.0
H927 H 0.78017 0.7461 0.97186 0.0
H928 H 0.83112 0.75562 0.96942 0.0
H929 H 0.6887 0.5962 0.02861 0.0
H930 H 0.68311 0.56274 0.99584 0.0
H931 H 0.6683 0.60013 0.99063 0.0
C932 C 0.32567 0.12893 0.97045 0.0
C933 C 0.36699 0.15649 0.96909 0.0
C934 C 0.31148 0.08935 0.98104 0.0
C935 C 0.33934 0.07708 0.98994 0.0
C936 C 0.38106 0.10416 0.98653 0.0
C937 C 0.39437 0.14357 0.97629 0.0
C938 C 0.26681 0.06151 0.98462 0.0
C939 C 0.4118 0.09185 0.99429 0.0
C940 C 0.3148 1.00081 0.05687 0.0
C941 C 0.30663 0.9662 0.03944 0.0
C942 C 0.32367 0.03643 0.0409 0.0
C943 C 0.32534 0.03794 1.00655 0.0
C944 C 0.31611 0.00289 0.98868 0.0
C945 C 0.30636 0.96724 1.00536 0.0
C946 C 0.33311 0.07305 0.06092 0.0
C947 C 0.31845 0.00351 0.95208 0.0
H948 H 0.3044 0.13882 0.96488 0.0
H949 H 0.42635 0.16464 0.97464 0.0
H950 H 0.25771 0.03198 0.97334 0.0
H951 H 0.25905 0.05615 1.0108 0.0
H952 H 0.2491 0.07403 0.97342 0.0
H953 H 0.44303 0.11762 0.99369 0.0
H954 H 0.40621 0.07757 0.0186 0.0
H955 H 0.40928 0.06948 0.97608 0.0
H956 H 0.31518 1.00042 0.08315 0.0
H957 H 0.3003 0.94075 0.99167 0.0
H958 H 0.31495 0.08644 0.05245 0.0
H959 H 0.36525 0.09607 0.05786 0.0
H960 H 0.32719 0.06601 0.08721 0.0
H961 H 0.3025 0.01825 0.94157 0.0
H962 H 0.30551 0.97285 0.94168 0.0
H963 H 0.35037 0.02126 0.94449 0.0
C964 C 1.00321 0.34853 0.03607 0.0
C965 C 0.03637 0.34279 0.03852 0.0
C966 C 0.96816 0.32067 0.02003 0.0
C967 C 0.96552 0.28523 1.00732 0.0
C968 C 0.9991 0.2794 1.00937 0.0
C969 C 0.03454 0.30873 0.0245 0.0
C970 C 0.93361 0.32879 0.01746 0.0
C971 C 0.99697 0.24148 0.9969 0.0
C972 C 0.85769 0.20078 1.00571 0.0
C973 C 0.8477 0.2003 0.973 0.0
C974 C 0.89689 0.22634 0.01671 0.0
C975 C 0.92632 0.25313 0.99459 0.0
C976 C 0.91654 0.25192 0.96123 0.0
C977 C 0.87726 0.2249 0.95069 0.0
C978 C 0.90627 0.22596 0.05231 0.0
C979 C 0.94673 0.28083 0.93713 0.0
H980 H 0.00469 0.37505 0.04663 0.0
H981 H 0.06022 0.30431 0.0265 0.0
H982 H 0.92302 0.3252 0.99194 0.0
H983 H 0.90802 0.30677 0.0324 0.0
H984 H 0.942 0.35949 0.02581 0.0
H985 H 0.02652 0.24285 0.99815 0.0
H986 H 0.97497 0.21556 1.01159 0.0
H987 H 0.98622 0.23573 0.9714 0.0
H988 H 0.83456 0.18146 0.02281 0.0
H989 H 0.86912 0.22452 0.92541 0.0
H990 H 0.91069 0.25385 0.06406 0.0
H991 H 0.93456 0.22512 0.05529 0.0
H992 H 0.88176 0.19987 0.06527 0.0
H993 H 0.95292 0.31168 0.94253 0.0
H994 H 0.93578 0.27332 0.9117 0.0
H995 H 0.97562 0.28106 0.93924 0.0
C996 C 0.323 0.19238 0.55051 0.0
C997 C 0.36415 0.20723 0.55549 0.0
C998 C 0.30898 0.21748 0.53873 0.0
C999 C 0.33675 0.25843 0.53245 0.0
C1000 C 0.37802 0.274 0.53946 0.0
C1001 C 0.39124 0.24814 0.55064 0.0
C1002 C 0.26486 0.19965 0.53116 0.0
C1003 C 0.40839 0.31777 0.53433 0.0
C1004 C 0.31826 0.31378 0.46463 0.0
C1005 C 0.3065 0.3378 0.4817 0.0
C1006 C 0.32647 0.28666 0.48085 0.0
C1007 C 0.3237 0.28396 0.51514 0.0
C1008 C 0.31087 0.30732 0.53254 0.0
C1009 C 0.30201 0.3337 0.51557 0.0
C1010 C 0.33972 0.26205 0.46129 0.0
C1011 C 0.3082 0.30578 0.56914 0.0
H1012 H 0.30198 0.16072 0.55418 0.0
H1013 H 0.42303 0.25981 0.555 0.0
H1014 H 0.25318 0.21836 0.54171 0.0
H1015 H 0.26068 0.19913 0.50445 0.0
H1016 H 0.24667 0.16853 0.54054 0.0
H1017 H 0.43954 0.32486 0.54 0.0
H1018 H 0.40748 0.32661 0.50881 0.0
H1019 H 0.40075 0.33629 0.55019 0.0
H1020 H 0.3219 0.31668 0.43852 0.0
H1021 H 0.29312 0.35223 0.52901 0.0
H1022 H 0.32139 0.22983 0.46779 0.0
H1023 H 0.3715 0.27169 0.46705 0.0
H1024 H 0.33717 0.26525 0.4347 0.0
H1025 H 0.2911 0.27426 0.5777 0.0
H1026 H 0.29367 0.32242 0.57875 0.0
H1027 H 0.33887 0.31921 0.57956 0.0
C1028 C 0.75916 0.14889 0.54864 0.0
C1029 C 0.7997 0.16233 0.55529 0.0
C1030 C 0.73335 0.10947 0.53819 0.0
C1031 C 0.74861 0.08302 0.53378 0.0
C1032 C 0.78914 0.09593 0.54176 0.0
C1033 C 0.81416 0.1354 0.55274 0.0
C1034 C 0.68994 0.09641 0.53117 0.0
C1035 C 0.80668 0.06886 0.5369 0.0
C1036 C 0.67285 0.97257 0.51962 0.0
C1037 C 0.66979 0.97126 0.48561 0.0
C1038 C 0.69896 0.00854 0.53582 0.0
C1039 C 0.72331 0.04365 0.5175 0.0
C1040 C 0.72187 0.0419 0.48315 0.0
C1041 C 0.69481 0.00594 0.4677 0.0
C1042 C 0.699 0.00939 0.57248 0.0
C1043 C 0.7477 0.07849 0.46265 0.0
H1044 H 0.74775 0.16949 0.55108 0.0
H1045 H 0.84553 0.14572 0.5578 0.0
H1046 H 0.68211 0.08539 0.50583 0.0
H1047 H 0.67042 0.07123 0.54752 0.0
H1048 H 0.68312 0.12102 0.53485 0.0
H1049 H 0.83748 0.08197 0.54711 0.0
H1050 H 0.78728 0.03921 0.54839 0.0
H1051 H 0.80797 0.06357 0.51054 0.0
H1052 H 0.65358 0.94599 0.5337 0.0
H1053 H 0.69273 0.00534 0.44147 0.0
H1054 H 0.68525 0.02721 0.58092 0.0
H1055 H 0.73018 0.0242 0.58199 0.0
H1056 H 0.68182 0.97881 0.58309 0.0
H1057 H 0.73818 0.10113 0.46624 0.0
H1058 H 0.74559 0.07123 0.43634 0.0
H1059 H 0.77962 0.09246 0.47023 0.0
C1060 C 0.03814 0.70419 0.52041 0.0
C1061 C 0.03956 0.70595 0.48634 0.0
C1062 C 1.00256 0.69463 0.53717 0.0
C1063 C 0.96799 0.6874 0.51942 0.0
C1064 C 0.97013 0.69173 0.48522 0.0
C1065 C 0.00572 0.70061 0.46914 0.0
C1066 C 1.00133 0.68991 0.57362 0.0
C1067 C 0.93416 0.6849 0.46536 0.0
C1068 C 0.86179 0.61524 0.54661 0.0
C1069 C 0.84816 0.64156 0.55566 0.0
C1070 C 0.90169 0.62981 0.53693 0.0
C1071 C 0.92844 0.67177 0.53577 0.0
C1072 C 0.91547 0.69842 0.54655 0.0
C1073 C 0.87546 0.68295 0.55661 0.0
C1074 C 0.91454 0.60032 0.52623 0.0
C1075 C 0.94306 0.74331 0.54551 0.0
H1076 H 0.06412 0.70821 0.53391 0.0
H1077 H 0.00656 0.70216 0.44287 0.0
H1078 H 0.98695 0.70566 0.58512 0.0
H1079 H 0.98291 0.65763 0.57991 0.0
H1080 H 0.03181 0.70161 0.58416 0.0
H1081 H 0.94191 0.6932 0.43944 0.0
H1082 H 0.91061 0.65276 0.46656 0.0
H1083 H 0.92106 0.70263 0.47538 0.0
H1084 H 0.84094 0.58317 0.5463 0.0
H1085 H 0.86511 0.70342 0.56366 0.0
H1086 H 0.94338 0.6074 0.53792 0.0
H1087 H 0.91947 0.60264 0.49957 0.0
H1088 H 0.89172 0.56883 0.53217 0.0
H1089 H 0.97272 0.75166 0.55624 0.0
H1090 H 0.93026 0.75961 0.55864 0.0
H1091 H 0.94828 0.75352 0.51985 0.0
C1092 C 0.28963 0.51585 0.3277 0.0
C1093 C 0.30173 0.48687 0.32867 0.0
C1094 C 0.27009 0.52009 0.30018 0.0
C1095 C 0.26228 0.49474 0.27286 0.0
C1096 C 0.27572 0.46646 0.27328 0.0
C1097 C 0.29521 0.46292 0.30101 0.0
C1098 C 0.25649 0.55073 0.30084 0.0
C1099 C 0.26817 0.43878 0.24482 0.0
C1100 C 0.17358 0.46878 0.21642 0.0
C1101 C 0.1925 0.49167 0.18859 0.0
C1102 C 0.19575 0.47055 0.24426 0.0
C1103 C 0.23807 0.49591 0.2446 0.0
C1104 C 0.25719 0.52033 0.21712 0.0
C1105 C 0.23427 0.5179 0.18951 0.0
C1106 C 0.17394 0.44394 0.27287 0.0
C1107 C 0.30214 0.54791 0.21638 0.0
H1108 H 0.29426 0.53445 0.34886 0.0
H1109 H 0.30427 0.44038 0.30131 0.0
H1110 H 0.26722 0.56993 0.27885 0.0
H1111 H 0.22317 0.53519 0.30061 0.0
H1112 H 0.2675 0.57024 0.3227 0.0
H1113 H 0.28242 0.42 0.24812 0.0
H1114 H 0.23536 0.41864 0.24156 0.0
H1115 H 0.27988 0.45643 0.22213 0.0
H1116 H 0.14142 0.44832 0.21614 0.0
H1117 H 0.24937 0.53564 0.16822 0.0
H1118 H 0.18159 0.46202 0.29547 0.0
H1119 H 0.18368 0.42144 0.27622 0.0
H1120 H 0.14079 0.42779 0.26967 0.0
H1121 H 0.31216 0.5673 0.2383 0.0
H1122 H 0.3121 0.56733 0.19444 0.0
H1123 H 0.31735 0.52983 0.21669 0.0
C1124 C 0.54685 0.70993 0.22581 0.0
C1125 C 0.52277 0.70251 0.19807 0.0
C1126 C 0.54304 0.72983 0.25311 0.0
C1127 C 0.51437 0.74279 0.25297 0.0
C1128 C 0.48882 0.73397 0.22563 0.0
C1129 C 0.49331 0.71401 0.19856 0.0
C1130 C 0.57093 0.73843 0.28163 0.0
C1131 C 0.45778 0.74707 0.2244 0.0
C1132 C 0.49192 0.7733 0.33548 0.0
C1133 C 0.51824 0.81502 0.33557 0.0
C1134 C 0.48912 0.74955 0.30837 0.0
C1135 C 0.51321 0.76781 0.28056 0.0
C1136 C 0.5385 0.81008 0.27999 0.0
C1137 C 0.54067 0.83306 0.30735 0.0
C1138 C 0.46167 0.70468 0.31007 0.0
C1139 C 0.56469 0.83099 0.25095 0.0
H1140 H 0.56973 0.70129 0.22587 0.0
H1141 H 0.47462 0.7087 0.17732 0.0
H1142 H 0.59097 0.77133 0.28423 0.0
H1143 H 0.5534 0.7274 0.30445 0.0
H1144 H 0.58988 0.72428 0.27888 0.0
H1145 H 0.43802 0.73508 0.20273 0.0
H1146 H 0.43883 0.73704 0.24656 0.0
H1147 H 0.47304 0.78033 0.22378 0.0
H1148 H 0.47454 0.75887 0.35709 0.0
H1149 H 0.56111 0.86519 0.30696 0.0
H1150 H 0.47991 0.68963 0.31052 0.0
H1151 H 0.44225 0.69379 0.28819 0.0
H1152 H 0.44225 0.69544 0.33202 0.0
H1153 H 0.58743 0.82146 0.248 0.0
H1154 H 0.58061 0.8642 0.25335 0.0
H1155 H 0.54632 0.82238 0.22846 0.0
C1156 C 0.29648 0.83181 0.22108 0.0
C1157 C 0.30169 0.81366 0.19328 0.0
C1158 C 0.2763 0.80915 0.24872 0.0
C1159 C 0.2608 0.76709 0.24888 0.0
C1160 C 0.26748 0.74878 0.2215 0.0
C1161 C 0.28778 0.77222 0.19408 0.0
C1162 C 0.27005 0.83009 0.27728 0.0
C1163 C 0.25166 0.70413 0.22059 0.0
C1164 C 0.22878 0.71566 0.33184 0.0
C1165 C 0.18753 0.70293 0.33227 0.0
C1166 C 0.25277 0.73517 0.30446 0.0
C1167 C 0.23523 0.74224 0.27674 0.0
C1168 C 0.19332 0.72789 0.27654 0.0
C1169 C 0.17009 0.70849 0.30416 0.0
C1170 C 0.29723 0.74979 0.30577 0.0
C1171 C 0.17318 0.73459 0.24761 0.0
H1172 H 0.30704 0.86374 0.22092 0.0
H1173 H 0.29139 0.75771 0.1728 0.0
H1174 H 0.23752 0.81939 0.2802 0.0
H1175 H 0.28051 0.82273 0.30002 0.0
H1176 H 0.28619 0.86323 0.27432 0.0
H1177 H 0.26243 0.69499 0.19894 0.0
H1178 H 0.26087 0.69442 0.24278 0.0
H1179 H 0.21832 0.68795 0.22015 0.0
H1180 H 0.24274 0.71178 0.35337 0.0
H1181 H 0.13832 0.69884 0.30404 0.0
H1182 H 0.31423 0.78309 0.30599 0.0
H1183 H 0.30671 0.7399 0.28384 0.0
H1184 H 0.30567 0.7388 0.32769 0.0
H1185 H 0.18477 0.76722 0.24442 0.0
H1186 H 0.14 0.7193 0.25034 0.0
H1187 H 0.18035 0.72353 0.22512 0.0
C1188 C 0.83774 0.54496 0.79992 0.0
C1189 C 0.82112 0.52167 0.828 0.0
C1190 C 0.81384 0.541 0.7727 0.0
C1191 C 0.77206 0.51301 0.77331 0.0
C1192 C 0.75536 0.48812 0.80097 0.0
C1193 C 0.78003 0.49272 0.82793 0.0
C1194 C 0.8331 0.56813 0.7438 0.0
C1195 C 0.71107 0.45784 0.8027 0.0
C1196 C 0.70916 0.54111 0.71932 0.0
C1197 C 0.70397 0.51834 0.69116 0.0
C1198 C 0.72978 0.5384 0.74659 0.0
C1199 C 0.74574 0.5122 0.74598 0.0
C1200 C 0.73896 0.48768 0.71828 0.0
C1201 C 0.71821 0.49103 0.69125 0.0
C1202 C 0.73611 0.56508 0.77553 0.0
C1203 C 0.75524 0.45923 0.71656 0.0
H1204 H 0.86939 0.56738 0.79952 0.0
H1205 H 0.76669 0.47465 0.84945 0.0
H1206 H 0.82576 0.55014 0.72117 0.0
H1207 H 0.82097 0.58882 0.74115 0.0
H1208 H 0.86631 0.58636 0.74614 0.0
H1209 H 0.70336 0.4382 0.82443 0.0
H1210 H 0.69365 0.47373 0.80362 0.0
H1211 H 0.70138 0.43874 0.78062 0.0
H1212 H 0.69833 0.56228 0.7197 0.0
H1213 H 0.71462 0.47338 0.66968 0.0
H1214 H 0.76858 0.58725 0.77814 0.0
H1215 H 0.72637 0.54701 0.79815 0.0
H1216 H 0.71941 0.58166 0.77323 0.0
H1217 H 0.78855 0.47666 0.71562 0.0
H1218 H 0.74415 0.43946 0.69485 0.0
H1219 H 0.74677 0.44021 0.73866 0.0
C1220 C 0.46705 0.29717 0.80736 0.0
C1221 C 0.49007 0.30189 0.8353 0.0
C1222 C 0.4695 0.27697 0.7797 0.0
C1223 C 0.49568 0.26095 0.77966 0.0
C1224 C 0.52036 0.26717 0.80718 0.0
C1225 C 0.51726 0.28749 0.83461 0.0
C1226 C 0.44264 0.27123 0.75099 0.0
C1227 C 0.54881 0.25082 0.80822 0.0
C1228 C 0.46317 0.17017 0.72434 0.0
C1229 C 0.48654 0.18737 0.69638 0.0
C1230 C 0.46692 0.19349 0.75189 0.0
C1231 C 0.49481 0.23527 0.75179 0.0
C1232 C 0.51972 0.25257 0.72421 0.0
C1233 C 0.5153 0.22849 0.69689 0.0
C1234 C 0.43975 0.1736 0.78067 0.0
C1235 C 0.54993 0.29688 0.723 0.0
H1236 H 0.44593 0.30808 0.80744 0.0
H1237 H 0.53512 0.29072 0.85599 0.0
H1238 H 0.46064 0.28147 0.72834 0.0
H1239 H 0.42048 0.23884 0.74799 0.0
H1240 H 0.42602 0.2878 0.75385 0.0
H1241 H 0.56861 0.26133 0.82995 0.0
H1242 H 0.53133 0.21753 0.80861 0.0
H1243 H 0.56785 0.25984 0.78611 0.0
H1244 H 0.44085 0.13852 0.7244 0.0
H1245 H 0.53344 0.24228 0.67548 0.0
H1246 H 0.41908 0.1857 0.78377 0.0
H1247 H 0.45777 0.18039 0.80326 0.0
H1248 H 0.42147 0.1405 0.77784 0.0
H1249 H 0.53394 0.31422 0.72274 0.0
H1250 H 0.56945 0.30513 0.70115 0.0
H1251 H 0.5692 0.30608 0.745 0.0
C1252 C 0.71131 0.17075 0.8054 0.0
C1253 C 0.70696 0.18837 0.8339 0.0
C1254 C 0.73098 0.19397 0.77784 0.0
C1255 C 0.74678 0.23608 0.77845 0.0
C1256 C 0.74089 0.25387 0.80656 0.0
C1257 C 0.72116 0.22989 0.8339 0.0
C1258 C 0.73642 0.17355 0.74851 0.0
C1259 C 0.75697 0.29853 0.8083 0.0
C1260 C 0.83656 0.29585 0.72247 0.0
C1261 C 0.81871 0.30221 0.69499 0.0
C1262 C 0.81377 0.2757 0.75008 0.0
C1263 C 0.77188 0.26148 0.75058 0.0
C1264 C 0.75393 0.2693 0.72354 0.0
C1265 C 0.77746 0.28946 0.69611 0.0
C1266 C 0.83435 0.26814 0.77824 0.0
C1267 C 0.70949 0.25494 0.72302 0.0
H1268 H 0.70053 0.13879 0.80492 0.0
H1269 H 0.71819 0.244 0.8557 0.0
H1270 H 0.72557 0.18152 0.72631 0.0
H1271 H 0.76884 0.18413 0.74498 0.0
H1272 H 0.72016 0.14035 0.75099 0.0
H1273 H 0.7467 0.30727 0.83048 0.0
H1274 H 0.79031 0.31454 0.80831 0.0
H1275 H 0.74743 0.30882 0.78663 0.0
H1276 H 0.86831 0.30544 0.72206 0.0
H1277 H 0.76318 0.29399 0.6751 0.0
H1278 H 0.82251 0.23541 0.78088 0.0
H1279 H 0.82785 0.27888 0.80122 0.0
H1280 H 0.86745 0.28321 0.775 0.0
H1281 H 0.69232 0.22165 0.72234 0.0
H1282 H 0.70073 0.26651 0.70165 0.0
H1283 H 0.70055 0.26444 0.74547 0.0
C1284 C 0.07531 0.51956 0.05444 0.0
C1285 C 0.07892 0.48605 0.04659 0.0
C1286 C 0.04873 0.52808 0.03686 0.0
C1287 C 0.02432 0.50168 1.01174 0.0
C1288 C 0.02724 0.46729 1.00457 0.0
C1289 C 0.05472 0.46035 0.02166 0.0
C1290 C 0.04694 0.56542 0.04492 0.0
C1291 C 1.00102 0.4374 0.97901 0.0
C1292 C 0.92803 0.50105 0.98781 0.0
C1293 C 0.93895 0.523 0.95859 0.0
C1294 C 0.95528 0.49369 1.0051 0.0
C1295 C 0.99493 0.5091 0.99333 0.0
C1296 C 0.00578 0.52995 0.96327 0.0
C1297 C 0.97754 0.53611 0.94606 0.0
C1298 C 0.94183 0.47011 0.0364 0.0
C1299 C 0.04772 0.54696 0.9498 0.0
H1300 H 0.09378 0.53944 0.0737 0.0
H1301 H 0.05663 0.43391 0.01588 0.0
H1302 H 0.05344 0.58429 0.02286 0.0
H1303 H 0.01623 0.55713 0.05308 0.0
H1304 H 0.06867 0.58359 0.06424 0.0
H1305 H 0.0062 0.41151 0.97707 0.0
H1306 H 0.96886 0.42578 0.98478 0.0
H1307 H 0.00688 0.45231 0.95497 0.0
H1308 H 0.89833 0.49059 0.99781 0.0
H1309 H 0.98644 0.55294 0.92359 0.0
H1310 H 0.96009 0.48917 0.05694 0.0
H1311 H 0.94662 0.44397 0.03518 0.0
H1312 H 0.90962 0.45906 0.04172 0.0
H1313 H 0.0699 0.56809 0.96762 0.0
H1314 H 0.05173 0.56308 0.92648 0.0
H1315 H 0.05464 0.52252 0.94583 0.0
C1316 C 0.53053 0.55868 0.07842 0.0
C1317 C 0.51963 0.58594 0.06604 0.0
C1318 C 0.52321 0.5243 0.0606 0.0
C1319 C 0.50383 0.51647 0.02991 0.0
C1320 C 0.49065 0.54257 0.01826 0.0
C1321 C 0.4987 0.5768 0.03634 0.0
C1322 C 0.53734 0.497 0.07414 0.0
C1323 C 0.46907 0.53506 0.98611 0.0
C1324 C 0.51545 0.44801 0.96818 0.0
C1325 C 0.48003 0.41155 0.97351 0.0
C1326 C 0.52389 0.48248 0.98655 0.0
C1327 C 0.49604 0.48031 1.01042 0.0
C1328 C 0.45997 0.44356 0.01519 0.0
C1329 C 0.45248 0.40991 0.99672 0.0
C1330 C 0.56283 0.52105 0.98086 0.0
C1331 C 0.429 0.4396 0.03976 0.0
H1332 H 0.54654 0.56514 0.10126 0.0
H1333 H 0.48987 0.59738 0.02645 0.0
H1334 H 0.51161 0.46597 0.07638 0.0
H1335 H 0.55926 0.49592 0.05721 0.0
H1336 H 0.55177 0.50704 0.09835 0.0
H1337 H 0.46005 0.55777 0.98074 0.0
H1338 H 0.4888 0.53556 0.96621 0.0
H1339 H 0.44178 0.50487 0.98606 0.0
H1340 H 0.53689 0.44927 0.95044 0.0
H1341 H 0.42477 0.38183 1.00057 0.0
H1342 H 0.58057 0.53072 1.00369 0.0
H1343 H 0.55657 0.54523 0.97376 0.0
H1344 H 0.58137 0.51793 0.96162 0.0
H1345 H 0.44326 0.45188 0.06364 0.0
H1346 H 0.40503 0.40788 0.04319 0.0
H1347 H 0.41487 0.45715 0.03152 0.0
C1348 C 0.41595 0.9639 0.03807 0.0
C1349 C 0.41655 0.93513 0.05864 0.0
C1350 C 0.44957 0.99018 0.01959 0.0
C1351 C 0.48525 0.98814 0.02179 0.0
C1352 C 0.48634 0.95942 0.04296 0.0
C1353 C 0.45183 0.9331 0.06117 0.0
C1354 C 0.44659 0.02009 0.99771 0.0
C1355 C 0.52371 0.95607 0.04585 0.0
C1356 C 0.56219 0.0348 0.95292 0.0
C1357 C 0.59121 0.07118 0.96688 0.0
C1358 C 0.52763 0.00745 0.97045 0.0
C1359 C 0.52153 0.01686 1.00255 0.0
C1360 C 0.54954 0.05448 0.01598 0.0
C1361 C 0.58381 0.08101 0.9981 0.0
C1362 C 0.49818 0.96794 0.95497 0.0
C1363 C 0.54395 0.06632 0.04974 0.0
H1364 H 0.38854 0.96531 0.03595 0.0
H1365 H 0.45208 0.91038 0.0766 0.0
H1366 H 0.46468 0.05065 1.00809 0.0
H1367 H 0.45878 0.02039 0.97323 0.0
H1368 H 0.41505 0.01334 0.99499 0.0
H1369 H 0.51986 0.93231 0.06325 0.0
H1370 H 0.53175 0.94923 0.02173 0.0
H1371 H 0.54935 0.98514 0.05396 0.0
H1372 H 0.56729 0.02679 0.9289 0.0
H1373 H 0.60572 0.10905 1.00924 0.0
H1374 H 0.46779 0.96463 0.95433 0.0
H1375 H 0.49603 0.94281 0.96975 0.0
H1376 H 0.50699 0.96514 0.92982 0.0
H1377 H 0.51475 0.06556 0.05137 0.0
H1378 H 0.5683 0.09682 0.05662 0.0
H1379 H 0.54326 0.04449 0.06772 0.0
C1380 C 0.49121 0.93835 0.46656 0.0
C1381 C 0.52758 0.93878 0.47084 0.0
C1382 C 0.48274 0.96454 0.4847 0.0
C1383 C 0.51142 0.99171 0.5074 0.0
C1384 C 0.54835 0.99239 0.51118 0.0
C1385 C 0.55592 0.96616 0.49285 0.0
C1386 C 0.44287 0.96267 0.4801 0.0
C1387 C 0.58012 0.02082 0.5346 0.0
C1388 C 0.50697 0.08495 0.53232 0.0
C1389 C 0.48779 0.074 0.56278 0.0
C1390 C 0.51497 0.05868 0.51429 0.0
C1391 C 0.5035 0.02013 0.52675 0.0
C1392 C 0.48585 0.00948 0.5581 0.0
C1393 C 0.47855 0.03663 0.57584 0.0
C1394 C 0.53472 0.07184 0.48141 0.0
C1395 C 0.47363 0.96889 0.57252 0.0
H1396 H 0.46908 0.91689 0.44986 0.0
H1397 H 0.58421 0.96669 0.49605 0.0
H1398 H 0.42629 0.95505 0.50349 0.0
H1399 H 0.44778 0.99248 0.47252 0.0
H1400 H 0.42382 0.94006 0.46161 0.0
H1401 H 0.6045 0.01356 0.5379 0.0
H1402 H 0.59352 0.05197 0.52528 0.0
H1403 H 0.56683 0.01996 0.55871 0.0
H1404 H 0.51454 0.11376 0.52189 0.0
H1405 H 0.46392 0.02773 0.59927 0.0
H1406 H 0.51446 0.05132 0.46233 0.0
H1407 H 0.56273 0.07017 0.48075 0.0
H1408 H 0.54223 0.10296 0.47529 0.0
H1409 H 0.45142 0.9449 0.55643 0.0
H1410 H 0.46024 0.96507 0.5971 0.0
H1411 H 0.50012 0.96468 0.57423 0.0
C1412 C 0.96767 0.41602 0.53768 0.0
C1413 C 0.94016 0.41692 0.55959 0.0
C1414 C 0.99381 0.44975 0.51927 0.0
C1415 C 0.99288 0.48585 0.52286 0.0
C1416 C 0.96558 0.4873 0.54547 0.0
C1417 C 0.93945 0.4527 0.56367 0.0
C1418 C 0.02232 0.44645 0.49589 0.0
C1419 C 0.96349 0.52516 0.5499 0.0
C1420 C 0.08592 0.58334 0.49739 0.0
C1421 C 0.07478 0.59123 0.46688 0.0
C1422 C 0.05974 0.54929 0.51565 0.0
C1423 C 0.02112 0.52206 0.50335 0.0
C1424 C 0.01023 0.52874 0.47197 0.0
C1425 C 0.03726 0.56301 0.45403 0.0
C1426 C 0.0731 0.54308 0.54859 0.0
C1427 C 0.96954 0.50021 0.45772 0.0
H1428 H 0.96829 0.38833 0.53455 0.0
H1429 H 0.91784 0.45329 0.58024 0.0
H1430 H 0.02075 0.45804 0.47159 0.0
H1431 H 0.0536 0.46494 0.50483 0.0
H1432 H 0.01564 0.41497 0.49314 0.0
H1433 H 0.94098 0.52164 0.56848 0.0
H1434 H 0.99333 0.55023 0.55726 0.0
H1435 H 0.95555 0.53379 0.5265 0.0
H1436 H 0.11483 0.60466 0.50768 0.0
H1437 H 0.02818 0.56853 0.43058 0.0
H1438 H 0.07165 0.51354 0.54942 0.0
H1439 H 0.05253 0.5428 0.56764 0.0
H1440 H 0.10422 0.56686 0.55462 0.0
H1441 H 0.96537 0.46954 0.45621 0.0
H1442 H 0.96556 0.5095 0.43307 0.0
H1443 H 0.94558 0.49854 0.4738 0.0
C1444 C 0.45218 0.51556 0.45979 0.0
C1445 C 0.41654 0.47886 0.46351 0.0
C1446 C 0.48686 0.52401 0.47794 0.0
C1447 C 0.48563 0.49505 0.50017 0.0
C1448 C 0.44968 0.4578 0.50338 0.0
C1449 C 0.41587 0.45023 0.48501 0.0
C1450 C 0.52454 0.56418 0.47392 0.0
C1451 C 0.44661 0.42578 0.52635 0.0
C1452 C 0.58359 0.50022 0.52568 0.0
C1453 C 0.59109 0.51871 0.5564 0.0
C1454 C 0.54953 0.49231 0.50733 0.0
C1455 C 0.52187 0.50308 0.51976 0.0
C1456 C 0.52817 0.5201 0.55132 0.0
C1457 C 0.56247 0.52742 0.56934 0.0
C1458 C 0.54376 0.47336 0.47418 0.0
C1459 C 0.49916 0.53154 0.56573 0.0
H1460 H 0.45258 0.53795 0.44356 0.0
H1461 H 0.38826 0.42179 0.48792 0.0
H1462 H 0.53282 0.58041 0.49747 0.0
H1463 H 0.54992 0.55986 0.46658 0.0
H1464 H 0.52093 0.58325 0.45548 0.0
H1465 H 0.41515 0.40086 0.52897 0.0
H1466 H 0.46524 0.41328 0.51712 0.0
H1467 H 0.45817 0.43857 0.55076 0.0
H1468 H 0.60522 0.49309 0.51532 0.0
H1469 H 0.56768 0.54159 0.59294 0.0
H1470 H 0.54333 0.49381 0.45537 0.0
H1471 H 0.51438 0.44512 0.47306 0.0
H1472 H 0.56787 0.46651 0.46805 0.0
H1473 H 0.49728 0.55389 0.54988 0.0
H1474 H 0.50819 0.54445 0.5905 0.0
H1475 H 0.46861 0.50482 0.56697 0.0
loop_
_geom_bond_atom_site_label_1
_geom_bond_atom_site_label_2
_geom_bond_distance
_geom_bond_site_symmetry_2
_ccdc_geom_bond_type
Co0 O2 2.143 . S
Co0 O8 2.074 . S
Co0 O11 2.093 . S
Co0 O24 2.097 . S
Co0 N41 2.151 . S
Co0 N49 2.214 1_554 S
Co1 O2 2.160 . S
Co1 O7 2.058 . S
Co1 O17 2.057 . S
Co1 O32 2.037 . S
Co1 N36 2.145 . S
Co1 N57 2.257 . S
O2 Co0 2.143 . S
O2 Co1 2.160 . S
C3 O4 1.278 . S
C3 O11 1.224 . S
O4 C3 1.278 . S
C5 O6 1.245 . S
C5 O17 1.232 . S
O6 C5 1.245 . S
O7 Co1 2.058 . S
O7 C33 1.269 . S
O8 Co0 2.074 . S
O8 C33 1.257 . S
H9 C34 0.930 . S
H10 C40 0.930 . S
O11 Co0 2.093 . S
O11 C3 1.224 . S
H12 C44 0.929 1_556 S
H13 C46 0.930 . S
H14 C47 0.930 . S
H15 C45 0.929 1_556 S
H16 C48 0.928 . S
O17 Co1 2.057 . S
O17 C5 1.232 . S
H18 C37 0.929 . S
H19 C38 0.929 . S
H20 C50 0.931 . S
H21 C42 0.929 . S
H22 C51 0.930 . S
H23 C43 0.931 . S
O24 Co0 2.097 . S
O24 C52 1.214 . S
H25 C53 0.929 . S
H26 C54 0.929 . S
H27 C55 0.930 . S
H28 C56 0.929 . S
H29 C58 0.930 . S
H30 C35 0.930 . S
H31 C39 0.930 . S
O32 Co1 2.037 . S
O32 C52 1.234 . S
C33 O7 1.269 . S
C33 O8 1.257 . S
C34 H9 0.930 . S
C34 C37 1.388 . S
C34 C39 1.418 . S
C35 H30 0.930 . S
C35 C38 1.404 . S
C35 C39 1.353 1_455 S
N36 Co1 2.145 . S
N36 C37 1.397 1_455 S
N36 C38 1.334 . S
C37 H18 0.929 . S
C37 C34 1.388 . S
C37 N36 1.397 1_655 S
C38 H19 0.929 . S
C38 C35 1.404 . S
C38 N36 1.334 . S
C39 H31 0.930 . S
C39 C34 1.418 . S
C39 C35 1.353 1_655 S
C40 H10 0.930 . S
C40 N41 1.330 . S
C40 C42 1.446 . S
N41 Co0 2.151 . S
N41 C40 1.330 . S
N41 C45 1.418 . S
C42 H21 0.929 . S
C42 C40 1.446 . S
C42 C43 1.332 . S
C43 H23 0.931 . S
C43 C42 1.332 . S
C43 C44 1.267 . S
C44 H12 0.929 1_554 S
C44 C43 1.267 . S
C44 C45 1.251 . S
C45 H15 0.929 1_554 S
C45 N41 1.418 . S
C45 C44 1.251 . S
C46 H13 0.930 . S
C46 C48 1.406 . S
C46 C51 1.261 . S
C47 H14 0.930 . S
C47 N49 1.325 . S
C47 C50 1.357 . S
C48 H16 0.928 . S
C48 C46 1.406 . S
C48 N49 1.261 . S
N49 Co0 2.214 1_556 S
N49 C47 1.325 . S
N49 C48 1.261 . S
C50 H20 0.931 . S
C50 C47 1.357 . S
C50 C51 1.312 . S
C51 H22 0.930 . S
C51 C46 1.261 . S
C51 C50 1.312 . S
C52 O24 1.214 . S
C52 O32 1.234 . S
C53 H25 0.929 . S
C53 C56 1.391 . S
C53 C58 1.391 . S
C54 H26 0.929 . S
C54 C55 1.390 . S
C54 N57 1.391 . S
C55 H27 0.930 . S
C55 C54 1.390 . S
C55 C56 1.392 . S
C56 H28 0.929 . S
C56 C53 1.391 . S
C56 C55 1.392 . S
N57 Co1 2.257 . S
N57 C54 1.391 . S
N57 C58 1.388 . S
C58 H29 0.930 . S
C58 C53 1.391 . S
C58 N57 1.388 . S
Co59 O61 2.143 . S
Co59 O67 2.074 . S
Co59 O70 2.093 . S
Co59 O83 2.097 . S
Co59 N100 2.151 . S
Co59 N108 2.214 1_554 S
Co60 O61 2.160 . S
Co60 O66 2.058 . S
Co60 O76 2.057 . S
Co60 O91 2.037 . S
Co60 N95 2.145 . S
Co60 N116 2.257 . S
O61 Co59 2.143 . S
O61 Co60 2.160 . S
C62 O63 1.278 . S
C62 O70 1.224 . S
O63 C62 1.278 . S
C64 O65 1.245 . S
C64 O76 1.232 . S
O65 C64 1.245 . S
O66 Co60 2.058 . S
O66 C92 1.269 . S
O67 Co59 2.074 . S
O67 C92 1.257 . S
H68 C93 0.930 . S
H69 C99 0.930 . S
O70 Co59 2.093 . S
O70 C62 1.224 . S
H71 C103 0.929 1_556 S
H72 C105 0.930 . S
H73 C106 0.930 . S
H74 C104 0.929 1_556 S
H75 C107 0.928 . S
O76 Co60 2.057 . S
O76 C64 1.232 . S
H77 C96 0.929 . S
H78 C97 0.929 . S
H79 C109 0.931 . S
H80 C101 0.929 . S
H81 C110 0.930 . S
H82 C102 0.931 . S
O83 Co59 2.097 . S
O83 C111 1.214 . S
H84 C112 0.929 . S
H85 C113 0.929 . S
H86 C114 0.930 . S
H87 C115 0.929 . S
H88 C117 0.930 . S
H89 C94 0.930 . S
H90 C98 0.930 . S
O91 Co60 2.037 . S
O91 C111 1.234 . S
C92 O66 1.269 . S
C92 O67 1.257 . S
C93 H68 0.930 . S
C93 C96 1.388 . S
C93 C98 1.418 . S
C94 H89 0.930 . S
C94 C97 1.404 . S
C94 C98 1.353 . S
N95 Co60 2.145 . S
N95 C96 1.397 . S
N95 C97 1.334 . S
C96 H77 0.929 . S
C96 C93 1.388 . S
C96 N95 1.397 . S
C97 H78 0.929 . S
C97 C94 1.404 . S
C97 N95 1.334 . S
C98 H90 0.930 . S
C98 C93 1.418 . S
C98 C94 1.353 . S
C99 H69 0.930 . S
C99 N100 1.330 . S
C99 C101 1.446 . S
N100 Co59 2.151 . S
N100 C99 1.330 . S
N100 C104 1.418 . S
C101 H80 0.929 . S
C101 C99 1.446 . S
C101 C102 1.332 . S
C102 H82 0.931 . S
C102 C101 1.332 . S
C102 C103 1.267 . S
C103 H71 0.929 1_554 S
C103 C102 1.267 . S
C103 C104 1.251 . S
C104 H74 0.929 1_554 S
C104 N100 1.418 . S
C104 C103 1.251 . S
C105 H72 0.930 . S
C105 C107 1.406 . S
C105 C110 1.261 . S
C106 H73 0.930 . S
C106 N108 1.325 . S
C106 C109 1.357 . S
C107 H75 0.928 . S
C107 C105 1.406 . S
C107 N108 1.261 . S
N108 Co59 2.214 1_556 S
N108 C106 1.325 . S
N108 C107 1.261 . S
C109 H79 0.931 . S
C109 C106 1.357 . S
C109 C110 1.312 . S
C110 H81 0.930 . S
C110 C105 1.261 . S
C110 C109 1.312 . S
C111 O83 1.214 . S
C111 O91 1.234 . S
C112 H84 0.929 . S
C112 C115 1.391 . S
C112 C117 1.391 . S
C113 H85 0.929 . S
C113 C114 1.390 . S
C113 N116 1.391 . S
C114 H86 0.930 . S
C114 C113 1.390 . S
C114 C115 1.392 . S
C115 H87 0.929 . S
C115 C112 1.391 . S
C115 C114 1.392 . S
N116 Co60 2.257 . S
N116 C113 1.391 . S
N116 C117 1.388 . S
C117 H88 0.930 . S
C117 C112 1.391 . S
C117 N116 1.388 . S
Co118 O120 2.143 . S
Co118 O126 2.074 . S
Co118 O129 2.093 . S
Co118 O142 2.097 . S
Co118 N159 2.151 . S
Co118 N167 2.214 1_554 S
Co119 O120 2.160 . S
Co119 O125 2.058 . S
Co119 O135 2.057 . S
Co119 O150 2.037 . S
Co119 N154 2.145 . S
Co119 N175 2.257 . S
O120 Co118 2.143 . S
O120 Co119 2.160 . S
C121 O122 1.278 . S
C121 O129 1.224 . S
O122 C121 1.278 . S
C123 O124 1.245 . S
C123 O135 1.232 . S
O124 C123 1.245 . S
O125 Co119 2.058 . S
O125 C151 1.269 . S
O126 Co118 2.074 . S
O126 C151 1.257 . S
H127 C152 0.930 . S
H128 C158 0.930 . S
O129 Co118 2.093 . S
O129 C121 1.224 . S
H130 C162 0.929 1_556 S
H131 C164 0.930 . S
H132 C165 0.930 . S
H133 C163 0.929 1_556 S
H134 C166 0.928 . S
O135 Co119 2.057 . S
O135 C123 1.232 . S
H136 C155 0.929 . S
H137 C156 0.929 . S
H138 C168 0.931 . S
H139 C160 0.929 . S
H140 C169 0.930 . S
H141 C161 0.931 . S
O142 Co118 2.097 . S
O142 C170 1.214 . S
H143 C171 0.929 . S
H144 C172 0.929 . S
H145 C173 0.930 . S
H146 C174 0.929 . S
H147 C176 0.930 . S
H148 C153 0.930 . S
H149 C157 0.930 . S
O150 Co119 2.037 . S
O150 C170 1.234 . S
C151 O125 1.269 . S
C151 O126 1.257 . S
C152 H127 0.930 . S
C152 C155 1.388 . S
C152 C157 1.418 . S
C153 H148 0.930 . S
C153 C156 1.404 . S
C153 C157 1.353 1_565 S
N154 Co119 2.145 . S
N154 C155 1.397 1_565 S
N154 C156 1.334 . S
C155 H136 0.929 . S
C155 C152 1.388 . S
C155 N154 1.397 1_545 S
C156 H137 0.929 . S
C156 C153 1.404 . S
C156 N154 1.334 . S
C157 H149 0.930 . S
C157 C152 1.418 . S
C157 C153 1.353 1_545 S
C158 H128 0.930 . S
C158 N159 1.330 . S
C158 C160 1.446 . S
N159 Co118 2.151 . S
N159 C158 1.330 . S
N159 C163 1.418 . S
C160 H139 0.929 . S
C160 C158 1.446 . S
C160 C161 1.332 . S
C161 H141 0.931 . S
C161 C160 1.332 . S
C161 C162 1.267 . S
C162 H130 0.929 1_554 S
C162 C161 1.267 . S
C162 C163 1.251 . S
C163 H133 0.929 1_554 S
C163 N159 1.418 . S
C163 C162 1.251 . S
C164 H131 0.930 . S
C164 C166 1.406 . S
C164 C169 1.261 . S
C165 H132 0.930 . S
C165 N167 1.325 . S
C165 C168 1.357 . S
C166 H134 0.928 . S
C166 C164 1.406 . S
C166 N167 1.261 . S
N167 Co118 2.214 1_556 S
N167 C165 1.325 . S
N167 C166 1.261 . S
C168 H138 0.931 . S
C168 C165 1.357 . S
C168 C169 1.312 . S
C169 H140 0.930 . S
C169 C164 1.261 . S
C169 C168 1.312 . S
C170 O142 1.214 . S
C170 O150 1.234 . S
C171 H143 0.929 . S
C171 C174 1.391 . S
C171 C176 1.391 . S
C172 H144 0.929 . S
C172 C173 1.390 . S
C172 N175 1.391 . S
C173 H145 0.930 . S
C173 C172 1.390 . S
C173 C174 1.392 . S
C174 H146 0.929 . S
C174 C171 1.391 . S
C174 C173 1.392 . S
N175 Co119 2.257 . S
N175 C172 1.391 . S
N175 C176 1.388 . S
C176 H147 0.930 . S
C176 C171 1.391 . S
C176 N175 1.388 . S
Co177 O179 2.143 . S
Co177 O185 2.074 . S
Co177 O188 2.093 . S
Co177 O201 2.097 . S
Co177 N218 2.151 . S
Co177 N226 2.214 . S
Co178 O179 2.160 . S
Co178 O184 2.058 . S
Co178 O194 2.057 . S
Co178 O209 2.037 . S
Co178 N213 2.145 . S
Co178 N234 2.257 . S
O179 Co177 2.143 . S
O179 Co178 2.160 . S
C180 O181 1.278 . S
C180 O188 1.224 . S
O181 C180 1.278 . S
C182 O183 1.245 . S
C182 O194 1.232 . S
O183 C182 1.245 . S
O184 Co178 2.058 . S
O184 C210 1.269 . S
O185 Co177 2.074 . S
O185 C210 1.257 . S
H186 C211 0.930 . S
H187 C217 0.930 . S
O188 Co177 2.093 . S
O188 C180 1.224 . S
H189 C221 0.929 . S
H190 C223 0.930 . S
H191 C224 0.930 . S
H192 C222 0.929 . S
H193 C225 0.928 . S
O194 Co178 2.057 . S
O194 C182 1.232 . S
H195 C214 0.929 . S
H196 C215 0.929 . S
H197 C227 0.931 . S
H198 C219 0.929 . S
H199 C228 0.930 . S
H200 C220 0.931 . S
O201 Co177 2.097 . S
O201 C229 1.214 . S
H202 C230 0.929 . S
H203 C231 0.929 . S
H204 C232 0.930 . S
H205 C233 0.929 . S
H206 C235 0.930 . S
H207 C212 0.930 . S
H208 C216 0.930 . S
O209 Co178 2.037 . S
O209 C229 1.234 . S
C210 O184 1.269 . S
C210 O185 1.257 . S
C211 H186 0.930 . S
C211 C214 1.388 . S
C211 C216 1.418 . S
C212 H207 0.930 . S
C212 C215 1.404 . S
C212 C216 1.353 1_565 S
N213 Co178 2.145 . S
N213 C214 1.397 1_565 S
N213 C215 1.334 . S
C214 H195 0.929 . S
C214 C211 1.388 . S
C214 N213 1.397 1_545 S
C215 H196 0.929 . S
C215 C212 1.404 . S
C215 N213 1.334 . S
C216 H208 0.930 . S
C216 C211 1.418 . S
C216 C212 1.353 1_545 S
C217 H187 0.930 . S
C217 N218 1.330 . S
C217 C219 1.446 . S
N218 Co177 2.151 . S
N218 C217 1.330 . S
N218 C222 1.418 . S
C219 H198 0.929 . S
C219 C217 1.446 . S
C219 C220 1.332 . S
C220 H200 0.931 . S
C220 C219 1.332 . S
C220 C221 1.267 . S
C221 H189 0.929 . S
C221 C220 1.267 . S
C221 C222 1.251 . S
C222 H192 0.929 . S
C222 N218 1.418 . S
C222 C221 1.251 . S
C223 H190 0.930 . S
C223 C225 1.406 . S
C223 C228 1.261 . S
C224 H191 0.930 . S
C224 N226 1.325 . S
C224 C227 1.357 . S
C225 H193 0.928 . S
C225 C223 1.406 . S
C225 N226 1.261 . S
N226 Co177 2.214 . S
N226 C224 1.325 . S
N226 C225 1.261 . S
C227 H197 0.931 . S
C227 C224 1.357 . S
C227 C228 1.312 . S
C228 H199 0.930 . S
C228 C223 1.261 . S
C228 C227 1.312 . S
C229 O201 1.214 . S
C229 O209 1.234 . S
C230 H202 0.929 . S
C230 C233 1.391 . S
C230 C235 1.391 . S
C231 H203 0.929 . S
C231 C232 1.390 . S
C231 N234 1.391 . S
C232 H204 0.930 . S
C232 C231 1.390 . S
C232 C233 1.392 . S
C233 H205 0.929 . S
C233 C230 1.391 . S
C233 C232 1.392 . S
N234 Co178 2.257 . S
N234 C231 1.391 . S
N234 C235 1.388 . S
C235 H206 0.930 . S
C235 C230 1.391 . S
C235 N234 1.388 . S
Co236 O238 2.143 . S
Co236 O244 2.074 . S
Co236 O247 2.093 . S
Co236 O260 2.097 . S
Co236 N277 2.151 . S
Co236 N285 2.214 . S
Co237 O238 2.160 . S
Co237 O243 2.058 . S
Co237 O253 2.057 . S
Co237 O268 2.037 . S
Co237 N272 2.145 . S
Co237 N293 2.257 . S
O238 Co236 2.143 . S
O238 Co237 2.160 . S
C239 O240 1.278 . S
C239 O247 1.224 . S
O240 C239 1.278 . S
C241 O242 1.245 . S
C241 O253 1.232 . S
O242 C241 1.245 . S
O243 Co237 2.058 . S
O243 C269 1.269 . S
O244 Co236 2.074 . S
O244 C269 1.257 . S
H245 C270 0.930 . S
H246 C276 0.930 . S
O247 Co236 2.093 . S
O247 C239 1.224 . S
H248 C280 0.929 . S
H249 C282 0.930 . S
H250 C283 0.930 . S
H251 C281 0.929 . S
H252 C284 0.928 . S
O253 Co237 2.057 . S
O253 C241 1.232 . S
H254 C273 0.929 . S
H255 C274 0.929 . S
H256 C286 0.931 . S
H257 C278 0.929 . S
H258 C287 0.930 . S
H259 C279 0.931 . S
O260 Co236 2.097 . S
O260 C288 1.214 . S
H261 C289 0.929 . S
H262 C290 0.929 . S
H263 C291 0.930 . S
H264 C292 0.929 . S
H265 C294 0.930 . S
H266 C271 0.930 . S
H267 C275 0.930 . S
O268 Co237 2.037 . S
O268 C288 1.234 . S
C269 O243 1.269 . S
C269 O244 1.257 . S
C270 H245 0.930 . S
C270 C273 1.388 . S
C270 C275 1.418 . S
C271 H266 0.930 . S
C271 C274 1.404 . S
C271 C275 1.353 1_455 S
N272 Co237 2.145 . S
N272 C273 1.397 1_455 S
N272 C274 1.334 . S
C273 H254 0.929 . S
C273 C270 1.388 . S
C273 N272 1.397 1_655 S
C274 H255 0.929 . S
C274 C271 1.404 . S
C274 N272 1.334 . S
C275 H267 0.930 . S
C275 C270 1.418 . S
C275 C271 1.353 1_655 S
C276 H246 0.930 . S
C276 N277 1.330 . S
C276 C278 1.446 . S
N277 Co236 2.151 . S
N277 C276 1.330 . S
N277 C281 1.418 . S
C278 H257 0.929 . S
C278 C276 1.446 . S
C278 C279 1.332 . S
C279 H259 0.931 . S
C279 C278 1.332 . S
C279 C280 1.267 . S
C280 H248 0.929 . S
C280 C279 1.267 . S
C280 C281 1.251 . S
C281 H251 0.929 . S
C281 N277 1.418 . S
C281 C280 1.251 . S
C282 H249 0.930 . S
C282 C284 1.406 . S
C282 C287 1.261 . S
C283 H250 0.930 . S
C283 N285 1.325 . S
C283 C286 1.357 . S
C284 H252 0.928 . S
C284 C282 1.406 . S
C284 N285 1.261 . S
N285 Co236 2.214 . S
N285 C283 1.325 . S
N285 C284 1.261 . S
C286 H256 0.931 . S
C286 C283 1.357 . S
C286 C287 1.312 . S
C287 H258 0.930 . S
C287 C282 1.261 . S
C287 C286 1.312 . S
C288 O260 1.214 . S
C288 O268 1.234 . S
C289 H261 0.929 . S
C289 C292 1.391 . S
C289 C294 1.391 . S
C290 H262 0.929 . S
C290 C291 1.390 . S
C290 N293 1.391 . S
C291 H263 0.930 . S
C291 C290 1.390 . S
C291 C292 1.392 . S
C292 H264 0.929 . S
C292 C289 1.391 . S
C292 C291 1.392 . S
N293 Co237 2.257 . S
N293 C290 1.391 . S
N293 C294 1.388 . S
C294 H265 0.930 . S
C294 C289 1.391 . S
C294 N293 1.388 . S
Co295 O297 2.143 . S
Co295 O303 2.074 . S
Co295 O306 2.093 . S
Co295 O319 2.097 . S
Co295 N336 2.151 . S
Co295 N344 2.214 . S
Co296 O297 2.160 . S
Co296 O302 2.058 . S
Co296 O312 2.057 . S
Co296 O327 2.037 . S
Co296 N331 2.145 . S
Co296 N352 2.257 . S
O297 Co295 2.143 . S
O297 Co296 2.160 . S
C298 O299 1.278 . S
C298 O306 1.224 . S
O299 C298 1.278 . S
C300 O301 1.245 . S
C300 O312 1.232 . S
O301 C300 1.245 . S
O302 Co296 2.058 . S
O302 C328 1.269 . S
O303 Co295 2.074 . S
O303 C328 1.257 . S
H304 C329 0.930 . S
H305 C335 0.930 . S
O306 Co295 2.093 . S
O306 C298 1.224 . S
H307 C339 0.929 . S
H308 C341 0.930 . S
H309 C342 0.930 . S
H310 C340 0.929 . S
H311 C343 0.928 . S
O312 Co296 2.057 . S
O312 C300 1.232 . S
H313 C332 0.929 . S
H314 C333 0.929 . S
H315 C345 0.931 . S
H316 C337 0.929 . S
H317 C346 0.930 . S
H318 C338 0.931 . S
O319 Co295 2.097 . S
O319 C347 1.214 . S
H320 C348 0.929 . S
H321 C349 0.929 . S
H322 C350 0.930 . S
H323 C351 0.929 . S
H324 C353 0.930 . S
H325 C330 0.930 . S
H326 C334 0.930 . S
O327 Co296 2.037 . S
O327 C347 1.234 . S
C328 O302 1.269 . S
C328 O303 1.257 . S
C329 H304 0.930 . S
C329 C332 1.388 . S
C329 C334 1.418 . S
C330 H325 0.930 . S
C330 C333 1.404 . S
C330 C334 1.353 . S
N331 Co296 2.145 . S
N331 C332 1.397 . S
N331 C333 1.334 . S
C332 H313 0.929 . S
C332 C329 1.388 . S
C332 N331 1.397 . S
C333 H314 0.929 . S
C333 C330 1.404 . S
C333 N331 1.334 . S
C334 H326 0.930 . S
C334 C329 1.418 . S
C334 C330 1.353 . S
C335 H305 0.930 . S
C335 N336 1.330 . S
C335 C337 1.446 . S
N336 Co295 2.151 . S
N336 C335 1.330 . S
N336 C340 1.418 . S
C337 H316 0.929 . S
C337 C335 1.446 . S
C337 C338 1.332 . S
C338 H318 0.931 . S
C338 C337 1.332 . S
C338 C339 1.267 . S
C339 H307 0.929 . S
C339 C338 1.267 . S
C339 C340 1.251 . S
C340 H310 0.929 . S
C340 N336 1.418 . S
C340 C339 1.251 . S
C341 H308 0.930 . S
C341 C343 1.406 . S
C341 C346 1.261 . S
C342 H309 0.930 . S
C342 N344 1.325 . S
C342 C345 1.357 . S
C343 H311 0.928 . S
C343 C341 1.406 . S
C343 N344 1.261 . S
N344 Co295 2.214 . S
N344 C342 1.325 . S
N344 C343 1.261 . S
C345 H315 0.931 . S
C345 C342 1.357 . S
C345 C346 1.312 . S
C346 H317 0.930 . S
C346 C341 1.261 . S
C346 C345 1.312 . S
C347 O319 1.214 . S
C347 O327 1.234 . S
C348 H320 0.929 . S
C348 C351 1.391 . S
C348 C353 1.391 . S
C349 H321 0.929 . S
C349 C350 1.390 . S
C349 N352 1.391 . S
C350 H322 0.930 . S
C350 C349 1.390 . S
C350 C351 1.392 . S
C351 H323 0.929 . S
C351 C348 1.391 . S
C351 C350 1.392 . S
N352 Co296 2.257 . S
N352 C349 1.391 . S
N352 C353 1.388 . S
C353 H324 0.930 . S
C353 C348 1.391 . S
C353 N352 1.388 . S
Co354 O356 2.143 . S
Co354 O362 2.074 . S
Co354 O365 2.093 . S
Co354 O378 2.097 . S
Co354 N395 2.151 . S
Co354 N403 2.214 1_556 S
Co355 O356 2.160 . S
Co355 O361 2.058 . S
Co355 O371 2.057 . S
Co355 O386 2.037 . S
Co355 N390 2.145 . S
Co355 N411 2.257 . S
O356 Co354 2.143 . S
O356 Co355 2.160 . S
C357 O358 1.278 . S
C357 O365 1.224 . S
O358 C357 1.278 . S
C359 O360 1.245 . S
C359 O371 1.232 . S
O360 C359 1.245 . S
O361 Co355 2.058 . S
O361 C387 1.269 . S
O362 Co354 2.074 . S
O362 C387 1.257 . S
H363 C388 0.930 . S
H364 C394 0.930 . S
O365 Co354 2.093 . S
O365 C357 1.224 . S
H366 C398 0.929 1_554 S
H367 C400 0.930 . S
H368 C401 0.930 . S
H369 C399 0.929 1_554 S
H370 C402 0.928 . S
O371 Co355 2.057 . S
O371 C359 1.232 . S
H372 C391 0.929 . S
H373 C392 0.929 . S
H374 C404 0.931 . S
H375 C396 0.929 . S
H376 C405 0.930 . S
H377 C397 0.931 . S
O378 Co354 2.097 . S
O378 C406 1.214 . S
H379 C407 0.929 . S
H380 C408 0.929 . S
H381 C409 0.930 . S
H382 C410 0.929 . S
H383 C412 0.930 . S
H384 C389 0.930 . S
H385 C393 0.930 . S
O386 Co355 2.037 . S
O386 C406 1.234 . S
C387 O361 1.269 . S
C387 O362 1.257 . S
C388 H363 0.930 . S
C388 C391 1.388 . S
C388 C393 1.418 . S
C389 H384 0.930 . S
C389 C392 1.404 . S
C389 C393 1.353 1_655 S
N390 Co355 2.145 . S
N390 C391 1.397 1_655 S
N390 C392 1.334 . S
C391 H372 0.929 . S
C391 C388 1.388 . S
C391 N390 1.397 1_455 S
C392 H373 0.929 . S
C392 C389 1.404 . S
C392 N390 1.334 . S
C393 H385 0.930 . S
C393 C388 1.418 . S
C393 C389 1.353 1_455 S
C394 H364 0.930 . S
C394 N395 1.330 . S
C394 C396 1.446 . S
N395 Co354 2.151 . S
N395 C394 1.330 . S
N395 C399 1.418 . S
C396 H375 0.929 . S
C396 C394 1.446 . S
C396 C397 1.332 . S
C397 H377 0.931 . S
C397 C396 1.332 . S
C397 C398 1.267 . S
C398 H366 0.929 1_556 S
C398 C397 1.267 . S
C398 C399 1.251 . S
C399 H369 0.929 1_556 S
C399 N395 1.418 . S
C399 C398 1.251 . S
C400 H367 0.930 . S
C400 C402 1.406 . S
C400 C405 1.261 . S
C401 H368 0.930 . S
C401 N403 1.325 . S
C401 C404 1.357 . S
C402 H370 0.928 . S
C402 C400 1.406 . S
C402 N403 1.261 . S
N403 Co354 2.214 1_554 S
N403 C401 1.325 . S
N403 C402 1.261 . S
C404 H374 0.931 . S
C404 C401 1.357 . S
C404 C405 1.312 . S
C405 H376 0.930 . S
C405 C400 1.261 . S
C405 C404 1.312 . S
C406 O378 1.214 . S
C406 O386 1.234 . S
C407 H379 0.929 . S
C407 C410 1.391 . S
C407 C412 1.391 . S
C408 H380 0.929 . S
C408 C409 1.390 . S
C408 N411 1.391 . S
C409 H381 0.930 . S
C409 C408 1.390 . S
C409 C410 1.392 . S
C410 H382 0.929 . S
C410 C407 1.391 . S
C410 C409 1.392 . S
N411 Co355 2.257 . S
N411 C408 1.391 . S
N411 C412 1.388 . S
C412 H383 0.930 . S
C412 C407 1.391 . S
C412 N411 1.388 . S
Co413 O415 2.143 . S
Co413 O421 2.074 . S
Co413 O424 2.093 . S
Co413 O437 2.097 . S
Co413 N454 2.151 . S
Co413 N462 2.214 1_556 S
Co414 O415 2.160 . S
Co414 O420 2.058 . S
Co414 O430 2.057 . S
Co414 O445 2.037 . S
Co414 N449 2.145 . S
Co414 N470 2.257 . S
O415 Co413 2.143 . S
O415 Co414 2.160 . S
C416 O417 1.278 . S
C416 O424 1.224 . S
O417 C416 1.278 . S
C418 O419 1.245 . S
C418 O430 1.232 . S
O419 C418 1.245 . S
O420 Co414 2.058 . S
O420 C446 1.269 . S
O421 Co413 2.074 . S
O421 C446 1.257 . S
H422 C447 0.930 . S
H423 C453 0.930 . S
O424 Co413 2.093 . S
O424 C416 1.224 . S
H425 C457 0.929 1_554 S
H426 C459 0.930 . S
H427 C460 0.930 . S
H428 C458 0.929 1_554 S
H429 C461 0.928 . S
O430 Co414 2.057 . S
O430 C418 1.232 . S
H431 C450 0.929 . S
H432 C451 0.929 . S
H433 C463 0.931 . S
H434 C455 0.929 . S
H435 C464 0.930 . S
H436 C456 0.931 . S
O437 Co413 2.097 . S
O437 C465 1.214 . S
H438 C466 0.929 . S
H439 C467 0.929 . S
H440 C468 0.930 . S
H441 C469 0.929 . S
H442 C471 0.930 . S
H443 C448 0.930 . S
H444 C452 0.930 . S
O445 Co414 2.037 . S
O445 C465 1.234 . S
C446 O420 1.269 . S
C446 O421 1.257 . S
C447 H422 0.930 . S
C447 C450 1.388 . S
C447 C452 1.418 . S
C448 H443 0.930 . S
C448 C451 1.404 . S
C448 C452 1.353 . S
N449 Co414 2.145 . S
N449 C450 1.397 . S
N449 C451 1.334 . S
C450 H431 0.929 . S
C450 C447 1.388 . S
C450 N449 1.397 . S
C451 H432 0.929 . S
C451 C448 1.404 . S
C451 N449 1.334 . S
C452 H444 0.930 . S
C452 C447 1.418 . S
C452 C448 1.353 . S
C453 H423 0.930 . S
C453 N454 1.330 . S
C453 C455 1.446 . S
N454 Co413 2.151 . S
N454 C453 1.330 . S
N454 C458 1.418 . S
C455 H434 0.929 . S
C455 C453 1.446 . S
C455 C456 1.332 . S
C456 H436 0.931 . S
C456 C455 1.332 . S
C456 C457 1.267 . S
C457 H425 0.929 1_556 S
C457 C456 1.267 . S
C457 C458 1.251 . S
C458 H428 0.929 1_556 S
C458 N454 1.418 . S
C458 C457 1.251 . S
C459 H426 0.930 . S
C459 C461 1.406 . S
C459 C464 1.261 . S
C460 H427 0.930 . S
C460 N462 1.325 . S
C460 C463 1.357 . S
C461 H429 0.928 . S
C461 C459 1.406 . S
C461 N462 1.261 . S
N462 Co413 2.214 1_554 S
N462 C460 1.325 . S
N462 C461 1.261 . S
C463 H433 0.931 . S
C463 C460 1.357 . S
C463 C464 1.312 . S
C464 H435 0.930 . S
C464 C459 1.261 . S
C464 C463 1.312 . S
C465 O437 1.214 . S
C465 O445 1.234 . S
C466 H438 0.929 . S
C466 C469 1.391 . S
C466 C471 1.391 . S
C467 H439 0.929 . S
C467 C468 1.390 . S
C467 N470 1.391 . S
C468 H440 0.930 . S
C468 C467 1.390 . S
C468 C469 1.392 . S
C469 H441 0.929 . S
C469 C466 1.391 . S
C469 C468 1.392 . S
N470 Co414 2.257 . S
N470 C467 1.391 . S
N470 C471 1.388 . S
C471 H442 0.930 . S
C471 C466 1.391 . S
C471 N470 1.388 . S
Co472 O474 2.143 . S
Co472 O480 2.074 . S
Co472 O483 2.093 . S
Co472 O496 2.097 . S
Co472 N513 2.151 . S
Co472 N521 2.214 1_556 S
Co473 O474 2.160 . S
Co473 O479 2.058 . S
Co473 O489 2.057 . S
Co473 O504 2.037 . S
Co473 N508 2.145 . S
Co473 N529 2.257 . S
O474 Co472 2.143 . S
O474 Co473 2.160 . S
C475 O476 1.278 . S
C475 O483 1.224 . S
O476 C475 1.278 . S
C477 O478 1.245 . S
C477 O489 1.232 . S
O478 C477 1.245 . S
O479 Co473 2.058 . S
O479 C505 1.269 . S
O480 Co472 2.074 . S
O480 C505 1.257 . S
H481 C506 0.930 . S
H482 C512 0.930 . S
O483 Co472 2.093 . S
O483 C475 1.224 . S
H484 C516 0.929 1_554 S
H485 C518 0.930 . S
H486 C519 0.930 . S
H487 C517 0.929 1_554 S
H488 C520 0.928 . S
O489 Co473 2.057 . S
O489 C477 1.232 . S
H490 C509 0.929 . S
H491 C510 0.929 . S
H492 C522 0.931 . S
H493 C514 0.929 . S
H494 C523 0.930 . S
H495 C515 0.931 . S
O496 Co472 2.097 . S
O496 C524 1.214 . S
H497 C525 0.929 . S
H498 C526 0.929 . S
H499 C527 0.930 . S
H500 C528 0.929 . S
H501 C530 0.930 . S
H502 C507 0.930 . S
H503 C511 0.930 . S
O504 Co473 2.037 . S
O504 C524 1.234 . S
C505 O479 1.269 . S
C505 O480 1.257 . S
C506 H481 0.930 . S
C506 C509 1.388 . S
C506 C511 1.418 . S
C507 H502 0.930 . S
C507 C510 1.404 . S
C507 C511 1.353 1_545 S
N508 Co473 2.145 . S
N508 C509 1.397 1_545 S
N508 C510 1.334 . S
C509 H490 0.929 . S
C509 C506 1.388 . S
C509 N508 1.397 1_565 S
C510 H491 0.929 . S
C510 C507 1.404 . S
C510 N508 1.334 . S
C511 H503 0.930 . S
C511 C506 1.418 . S
C511 C507 1.353 1_565 S
C512 H482 0.930 . S
C512 N513 1.330 . S
C512 C514 1.446 . S
N513 Co472 2.151 . S
N513 C512 1.330 . S
N513 C517 1.418 . S
C514 H493 0.929 . S
C514 C512 1.446 . S
C514 C515 1.332 . S
C515 H495 0.931 . S
C515 C514 1.332 . S
C515 C516 1.267 . S
C516 H484 0.929 1_556 S
C516 C515 1.267 . S
C516 C517 1.251 . S
C517 H487 0.929 1_556 S
C517 N513 1.418 . S
C517 C516 1.251 . S
C518 H485 0.930 . S
C518 C520 1.406 . S
C518 C523 1.261 . S
C519 H486 0.930 . S
C519 N521 1.325 . S
C519 C522 1.357 . S
C520 H488 0.928 . S
C520 C518 1.406 . S
C520 N521 1.261 . S
N521 Co472 2.214 1_554 S
N521 C519 1.325 . S
N521 C520 1.261 . S
C522 H492 0.931 . S
C522 C519 1.357 . S
C522 C523 1.312 . S
C523 H494 0.930 . S
C523 C518 1.261 . S
C523 C522 1.312 . S
C524 O496 1.214 . S
C524 O504 1.234 . S
C525 H497 0.929 . S
C525 C528 1.391 . S
C525 C530 1.391 . S
C526 H498 0.929 . S
C526 C527 1.390 . S
C526 N529 1.391 . S
C527 H499 0.930 . S
C527 C526 1.390 . S
C527 C528 1.392 . S
C528 H500 0.929 . S
C528 C525 1.391 . S
C528 C527 1.392 . S
N529 Co473 2.257 . S
N529 C526 1.391 . S
N529 C530 1.388 . S
C530 H501 0.930 . S
C530 C525 1.391 . S
C530 N529 1.388 . S
Co531 O533 2.143 . S
Co531 O539 2.074 . S
Co531 O542 2.093 . S
Co531 O555 2.097 . S
Co531 N572 2.151 . S
Co531 N580 2.214 . S
Co532 O533 2.160 . S
Co532 O538 2.058 . S
Co532 O548 2.057 . S
Co532 O563 2.037 . S
Co532 N567 2.145 . S
Co532 N588 2.257 . S
O533 Co531 2.143 . S
O533 Co532 2.160 . S
C534 O535 1.278 . S
C534 O542 1.224 . S
O535 C534 1.278 . S
C536 O537 1.245 . S
C536 O548 1.232 . S
O537 C536 1.245 . S
O538 Co532 2.058 . S
O538 C564 1.269 . S
O539 Co531 2.074 . S
O539 C564 1.257 . S
H540 C565 0.930 . S
H541 C571 0.930 . S
O542 Co531 2.093 . S
O542 C534 1.224 . S
H543 C575 0.929 . S
H544 C577 0.930 . S
H545 C578 0.930 . S
H546 C576 0.929 . S
H547 C579 0.928 . S
O548 Co532 2.057 . S
O548 C536 1.232 . S
H549 C568 0.929 . S
H550 C569 0.929 . S
H551 C581 0.931 . S
H552 C573 0.929 . S
H553 C582 0.930 . S
H554 C574 0.931 . S
O555 Co531 2.097 . S
O555 C583 1.214 . S
H556 C584 0.929 . S
H557 C585 0.929 . S
H558 C586 0.930 . S
H559 C587 0.929 . S
H560 C589 0.930 . S
H561 C566 0.930 . S
H562 C570 0.930 . S
O563 Co532 2.037 . S
O563 C583 1.234 . S
C564 O538 1.269 . S
C564 O539 1.257 . S
C565 H540 0.930 . S
C565 C568 1.388 . S
C565 C570 1.418 . S
C566 H561 0.930 . S
C566 C569 1.404 . S
C566 C570 1.353 1_545 S
N567 Co532 2.145 . S
N567 C568 1.397 1_545 S
N567 C569 1.334 . S
C568 H549 0.929 . S
C568 C565 1.388 . S
C568 N567 1.397 1_565 S
C569 H550 0.929 . S
C569 C566 1.404 . S
C569 N567 1.334 . S
C570 H562 0.930 . S
C570 C565 1.418 . S
C570 C566 1.353 1_565 S
C571 H541 0.930 . S
C571 N572 1.330 . S
C571 C573 1.446 . S
N572 Co531 2.151 . S
N572 C571 1.330 . S
N572 C576 1.418 . S
C573 H552 0.929 . S
C573 C571 1.446 . S
C573 C574 1.332 . S
C574 H554 0.931 . S
C574 C573 1.332 . S
C574 C575 1.267 . S
C575 H543 0.929 . S
C575 C574 1.267 . S
C575 C576 1.251 . S
C576 H546 0.929 . S
C576 N572 1.418 . S
C576 C575 1.251 . S
C577 H544 0.930 . S
C577 C579 1.406 . S
C577 C582 1.261 . S
C578 H545 0.930 . S
C578 N580 1.325 . S
C578 C581 1.357 . S
C579 H547 0.928 . S
C579 C577 1.406 . S
C579 N580 1.261 . S
N580 Co531 2.214 . S
N580 C578 1.325 . S
N580 C579 1.261 . S
C581 H551 0.931 . S
C581 C578 1.357 . S
C581 C582 1.312 . S
C582 H553 0.930 . S
C582 C577 1.261 . S
C582 C581 1.312 . S
C583 O555 1.214 . S
C583 O563 1.234 . S
C584 H556 0.929 . S
C584 C587 1.391 . S
C584 C589 1.391 . S
C585 H557 0.929 . S
C585 C586 1.390 . S
C585 N588 1.391 . S
C586 H558 0.930 . S
C586 C585 1.390 . S
C586 C587 1.392 . S
C587 H559 0.929 . S
C587 C584 1.391 . S
C587 C586 1.392 . S
N588 Co532 2.257 . S
N588 C585 1.391 . S
N588 C589 1.388 . S
C589 H560 0.930 . S
C589 C584 1.391 . S
C589 N588 1.388 . S
Co590 O592 2.143 . S
Co590 O598 2.074 . S
Co590 O601 2.093 . S
Co590 O614 2.097 . S
Co590 N631 2.151 . S
Co590 N639 2.214 . S
Co591 O592 2.160 . S
Co591 O597 2.058 . S
Co591 O607 2.057 . S
Co591 O622 2.037 . S
Co591 N626 2.145 . S
Co591 N647 2.257 . S
O592 Co590 2.143 . S
O592 Co591 2.160 . S
C593 O594 1.278 . S
C593 O601 1.224 . S
O594 C593 1.278 . S
C595 O596 1.245 . S
C595 O607 1.232 . S
O596 C595 1.245 . S
O597 Co591 2.058 . S
O597 C623 1.269 . S
O598 Co590 2.074 . S
O598 C623 1.257 . S
H599 C624 0.930 . S
H600 C630 0.930 . S
O601 Co590 2.093 . S
O601 C593 1.224 . S
H602 C634 0.929 . S
H603 C636 0.930 . S
H604 C637 0.930 . S
H605 C635 0.929 . S
H606 C638 0.928 . S
O607 Co591 2.057 . S
O607 C595 1.232 . S
H608 C627 0.929 . S
H609 C628 0.929 . S
H610 C640 0.931 . S
H611 C632 0.929 . S
H612 C641 0.930 . S
H613 C633 0.931 . S
O614 Co590 2.097 . S
O614 C642 1.214 . S
H615 C643 0.929 . S
H616 C644 0.929 . S
H617 C645 0.930 . S
H618 C646 0.929 . S
H619 C648 0.930 . S
H620 C625 0.930 . S
H621 C629 0.930 . S
O622 Co591 2.037 . S
O622 C642 1.234 . S
C623 O597 1.269 . S
C623 O598 1.257 . S
C624 H599 0.930 . S
C624 C627 1.388 . S
C624 C629 1.418 . S
C625 H620 0.930 . S
C625 C628 1.404 . S
C625 C629 1.353 1_655 S
N626 Co591 2.145 . S
N626 C627 1.397 1_655 S
N626 C628 1.334 . S
C627 H608 0.929 . S
C627 C624 1.388 . S
C627 N626 1.397 1_455 S
C628 H609 0.929 . S
C628 C625 1.404 . S
C628 N626 1.334 . S
C629 H621 0.930 . S
C629 C624 1.418 . S
C629 C625 1.353 1_455 S
C630 H600 0.930 . S
C630 N631 1.330 . S
C630 C632 1.446 . S
N631 Co590 2.151 . S
N631 C630 1.330 . S
N631 C635 1.418 . S
C632 H611 0.929 . S
C632 C630 1.446 . S
C632 C633 1.332 . S
C633 H613 0.931 . S
C633 C632 1.332 . S
C633 C634 1.267 . S
C634 H602 0.929 . S
C634 C633 1.267 . S
C634 C635 1.251 . S
C635 H605 0.929 . S
C635 N631 1.418 . S
C635 C634 1.251 . S
C636 H603 0.930 . S
C636 C638 1.406 . S
C636 C641 1.261 . S
C637 H604 0.930 . S
C637 N639 1.325 . S
C637 C640 1.357 . S
C638 H606 0.928 . S
C638 C636 1.406 . S
C638 N639 1.261 . S
N639 Co590 2.214 . S
N639 C637 1.325 . S
N639 C638 1.261 . S
C640 H610 0.931 . S
C640 C637 1.357 . S
C640 C641 1.312 . S
C641 H612 0.930 . S
C641 C636 1.261 . S
C641 C640 1.312 . S
C642 O614 1.214 . S
C642 O622 1.234 . S
C643 H615 0.929 . S
C643 C646 1.391 . S
C643 C648 1.391 . S
C644 H616 0.929 . S
C644 C645 1.390 . S
C644 N647 1.391 . S
C645 H617 0.930 . S
C645 C644 1.390 . S
C645 C646 1.392 . S
C646 H618 0.929 . S
C646 C643 1.391 . S
C646 C645 1.392 . S
N647 Co591 2.257 . S
N647 C644 1.391 . S
N647 C648 1.388 . S
C648 H619 0.930 . S
C648 C643 1.391 . S
C648 N647 1.388 . S
Co649 O651 2.143 . S
Co649 O657 2.074 . S
Co649 O660 2.093 . S
Co649 O673 2.097 . S
Co649 N690 2.151 . S
Co649 N698 2.214 . S
Co650 O651 2.160 . S
Co650 O656 2.058 . S
Co650 O666 2.057 . S
Co650 O681 2.037 . S
Co650 N685 2.145 . S
Co650 N706 2.257 . S
O651 Co649 2.143 . S
O651 Co650 2.160 . S
C652 O653 1.278 . S
C652 O660 1.224 . S
O653 C652 1.278 . S
C654 O655 1.245 . S
C654 O666 1.232 . S
O655 C654 1.245 . S
O656 Co650 2.058 . S
O656 C682 1.269 . S
O657 Co649 2.074 . S
O657 C682 1.257 . S
H658 C683 0.930 . S
H659 C689 0.930 . S
O660 Co649 2.093 . S
O660 C652 1.224 . S
H661 C693 0.929 . S
H662 C695 0.930 . S
H663 C696 0.930 . S
H664 C694 0.929 . S
H665 C697 0.928 . S
O666 Co650 2.057 . S
O666 C654 1.232 . S
H667 C686 0.929 . S
H668 C687 0.929 . S
H669 C699 0.931 . S
H670 C691 0.929 . S
H671 C700 0.930 . S
H672 C692 0.931 . S
O673 Co649 2.097 . S
O673 C701 1.214 . S
H674 C702 0.929 . S
H675 C703 0.929 . S
H676 C704 0.930 . S
H677 C705 0.929 . S
H678 C707 0.930 . S
H679 C684 0.930 . S
H680 C688 0.930 . S
O681 Co650 2.037 . S
O681 C701 1.234 . S
C682 O656 1.269 . S
C682 O657 1.257 . S
C683 H658 0.930 . S
C683 C686 1.388 . S
C683 C688 1.418 . S
C684 H679 0.930 . S
C684 C687 1.404 . S
C684 C688 1.353 . S
N685 Co650 2.145 . S
N685 C686 1.397 . S
N685 C687 1.334 . S
C686 H667 0.929 . S
C686 C683 1.388 . S
C686 N685 1.397 . S
C687 H668 0.929 . S
C687 C684 1.404 . S
C687 N685 1.334 . S
C688 H680 0.930 . S
C688 C683 1.418 . S
C688 C684 1.353 . S
C689 H659 0.930 . S
C689 N690 1.330 . S
C689 C691 1.446 . S
N690 Co649 2.151 . S
N690 C689 1.330 . S
N690 C694 1.418 . S
C691 H670 0.929 . S
C691 C689 1.446 . S
C691 C692 1.332 . S
C692 H672 0.931 . S
C692 C691 1.332 . S
C692 C693 1.267 . S
C693 H661 0.929 . S
C693 C692 1.267 . S
C693 C694 1.251 . S
C694 H664 0.929 . S
C694 N690 1.418 . S
C694 C693 1.251 . S
C695 H662 0.930 . S
C695 C697 1.406 . S
C695 C700 1.261 . S
C696 H663 0.930 . S
C696 N698 1.325 . S
C696 C699 1.357 . S
C697 H665 0.928 . S
C697 C695 1.406 . S
C697 N698 1.261 . S
N698 Co649 2.214 . S
N698 C696 1.325 . S
N698 C697 1.261 . S
C699 H669 0.931 . S
C699 C696 1.357 . S
C699 C700 1.312 . S
C700 H671 0.930 . S
C700 C695 1.261 . S
C700 C699 1.312 . S
C701 O673 1.214 . S
C701 O681 1.234 . S
C702 H674 0.929 . S
C702 C705 1.391 . S
C702 C707 1.391 . S
C703 H675 0.929 . S
C703 C704 1.390 . S
C703 N706 1.391 . S
C704 H676 0.930 . S
C704 C703 1.390 . S
C704 C705 1.392 . S
C705 H677 0.929 . S
C705 C702 1.391 . S
C705 C704 1.392 . S
N706 Co650 2.257 . S
N706 C703 1.391 . S
N706 C707 1.388 . S
C707 H678 0.930 . S
C707 C702 1.391 . S
C707 N706 1.388 . S
C708 C709 1.391 . S
C708 C710 1.394 . S
C708 H724 0.931 . S
C709 C708 1.391 . S
C709 C713 1.376 1_554 S
C710 C708 1.394 . S
C710 C711 1.369 . S
C710 C714 1.531 . S
C711 C710 1.369 . S
C711 C712 1.410 1_554 S
C711 C719 1.503 1_554 S
C712 C711 1.410 1_556 S
C712 C713 1.392 . S
C712 C715 1.511 . S
C713 C709 1.376 1_556 S
C713 C712 1.392 . S
C713 H725 0.929 . S
C714 C710 1.531 . S
C714 H726 0.960 . S
C714 H727 0.962 . S
C714 H728 0.960 . S
C715 C712 1.511 . S
C715 H729 0.961 . S
C715 H730 0.961 . S
C715 H731 0.961 . S
C716 C717 1.370 . S
C716 C718 1.363 . S
C716 H732 0.931 . S
C717 C716 1.370 . S
C717 C721 1.408 . S
C718 C716 1.363 . S
C718 C719 1.370 . S
C718 C722 1.524 . S
C719 C711 1.503 1_556 S
C719 C718 1.370 . S
C719 C720 1.403 . S
C720 C719 1.403 . S
C720 C721 1.404 . S
C720 C723 1.539 1_556 S
C721 C717 1.408 . S
C721 C720 1.404 . S
C721 H733 0.930 . S
C722 C718 1.524 . S
C722 H734 0.956 1_556 S
C722 H735 0.961 . S
C722 H736 0.961 . S
C723 C720 1.539 1_554 S
C723 H737 0.958 . S
C723 H738 0.961 1_554 S
C723 H739 0.960 1_554 S
H724 C708 0.931 . S
H725 C713 0.929 . S
H726 C714 0.960 . S
H727 C714 0.962 . S
H728 C714 0.960 . S
H729 C715 0.961 . S
H730 C715 0.961 . S
H731 C715 0.961 . S
H732 C716 0.931 . S
H733 C721 0.930 . S
H734 C722 0.956 1_554 S
H735 C722 0.961 . S
H736 C722 0.961 . S
H737 C723 0.958 . S
H738 C723 0.961 1_556 S
H739 C723 0.960 1_556 S
C740 C741 1.391 . S
C740 C742 1.394 1_554 S
C740 H756 0.926 1_554 S
C741 C740 1.391 . S
C741 C745 1.376 . S
C742 C740 1.394 1_556 S
C742 C743 1.369 . S
C742 C746 1.531 . S
C743 C742 1.369 . S
C743 C744 1.410 1_556 S
C743 C751 1.503 . S
C744 C743 1.410 1_554 S
C744 C745 1.392 . S
C744 C747 1.511 . S
C745 C741 1.376 . S
C745 C744 1.392 . S
C745 H757 0.929 . S
C746 C742 1.531 . S
C746 H758 0.960 . S
C746 H759 0.962 . S
C746 H760 0.960 . S
C747 C744 1.511 . S
C747 H761 0.961 . S
C747 H762 0.961 . S
C747 H763 0.960 1_554 S
C748 C749 1.370 1_554 S
C748 C750 1.363 1_545 S
C748 H764 0.931 . S
C749 C748 1.370 1_556 S
C749 C753 1.409 1_545 S
C750 C748 1.363 1_565 S
C750 C751 1.370 1_554 S
C750 C754 1.524 . S
C751 C743 1.503 . S
C751 C750 1.370 1_556 S
C751 C752 1.403 . S
C752 C751 1.403 . S
C752 C753 1.403 . S
C752 C755 1.539 . S
C753 C749 1.409 1_565 S
C753 C752 1.403 . S
C753 H765 0.930 1_565 S
C754 C750 1.524 . S
C754 H766 0.956 . S
C754 H767 0.961 . S
C754 H768 0.961 . S
C755 C752 1.539 . S
C755 H769 0.958 . S
C755 H770 0.961 . S
C755 H771 0.960 . S
H756 C740 0.926 1_556 S
H757 C745 0.929 . S
H758 C746 0.960 . S
H759 C746 0.962 . S
H760 C746 0.960 . S
H761 C747 0.961 . S
H762 C747 0.961 . S
H763 C747 0.960 1_556 S
H764 C748 0.931 . S
H765 C753 0.930 1_545 S
H766 C754 0.956 . S
H767 C754 0.961 . S
H768 C754 0.961 . S
H769 C755 0.958 . S
H770 C755 0.961 . S
H771 C755 0.960 . S
C772 C773 1.391 . S
C772 C774 1.394 1_554 S
C772 H788 0.931 . S
C773 C772 1.391 . S
C773 C777 1.376 . S
C774 C772 1.394 1_556 S
C774 C775 1.369 . S
C774 C778 1.531 . S
C775 C774 1.369 . S
C775 C776 1.410 1_556 S
C775 C783 1.503 . S
C776 C775 1.410 1_554 S
C776 C777 1.392 . S
C776 C779 1.511 . S
C777 C773 1.376 . S
C777 C776 1.392 . S
C777 H789 0.929 . S
C778 C774 1.531 . S
C778 H790 0.960 . S
C778 H791 0.962 1_556 S
C778 H792 0.960 . S
C779 C776 1.511 . S
C779 H793 0.961 . S
C779 H794 0.961 . S
C779 H795 0.961 1_554 S
C780 C781 1.370 1_554 S
C780 C782 1.363 1_655 S
C780 H796 0.931 . S
C781 C780 1.370 1_556 S
C781 C785 1.425 . S
C782 C780 1.363 1_455 S
C782 C783 1.370 1_554 S
C782 C786 1.524 . S
C783 C775 1.503 . S
C783 C782 1.370 1_556 S
C783 C784 1.403 . S
C784 C783 1.403 . S
C784 C785 1.383 1_455 S
C784 C787 1.539 . S
C785 C781 1.425 . S
C785 C784 1.383 1_655 S
C785 H797 0.934 . S
C786 C782 1.524 . S
C786 H798 0.956 . S
C786 H799 0.961 . S
C786 H800 0.961 . S
C787 C784 1.539 . S
C787 H801 0.958 . S
C787 H802 0.961 . S
C787 H803 0.960 . S
H788 C772 0.931 . S
H789 C777 0.929 . S
H790 C778 0.960 . S
H791 C778 0.962 1_554 S
H792 C778 0.960 . S
H793 C779 0.961 . S
H794 C779 0.961 . S
H795 C779 0.961 1_556 S
H796 C780 0.931 . S
H797 C785 0.934 . S
H798 C786 0.956 . S
H799 C786 0.961 . S
H800 C786 0.961 . S
H801 C787 0.958 . S
H802 C787 0.961 . S
H803 C787 0.960 . S
C804 C805 1.391 . S
C804 C806 1.394 . S
C804 H820 0.931 . S
C805 C804 1.391 . S
C805 C809 1.376 . S
C806 C804 1.394 . S
C806 C807 1.369 . S
C806 C810 1.531 . S
C807 C806 1.369 . S
C807 C808 1.410 . S
C807 C815 1.503 . S
C808 C807 1.410 . S
C808 C809 1.392 . S
C808 C811 1.511 . S
C809 C805 1.376 . S
C809 C808 1.392 . S
C809 H821 0.929 . S
C810 C806 1.531 . S
C810 H822 0.960 . S
C810 H823 0.962 . S
C810 H824 0.960 . S
C811 C808 1.511 . S
C811 H825 0.961 . S
C811 H826 0.961 . S
C811 H827 0.961 . S
C812 C813 1.370 . S
C812 C814 1.363 . S
C812 H828 0.931 . S
C813 C812 1.370 . S
C813 C817 1.408 . S
C814 C812 1.363 . S
C814 C815 1.370 . S
C814 C818 1.524 . S
C815 C807 1.503 . S
C815 C814 1.370 . S
C815 C816 1.403 . S
C816 C815 1.403 . S
C816 C817 1.404 . S
C816 C819 1.539 . S
C817 C813 1.408 . S
C817 C816 1.404 . S
C817 H829 0.930 . S
C818 C814 1.524 . S
C818 H830 0.956 . S
C818 H831 0.961 . S
C818 H832 0.961 . S
C819 C816 1.539 . S
C819 H833 0.958 . S
C819 H834 0.961 . S
C819 H835 0.960 . S
H820 C804 0.931 . S
H821 C809 0.929 . S
H822 C810 0.960 . S
H823 C810 0.962 . S
H824 C810 0.960 . S
H825 C811 0.961 . S
H826 C811 0.961 . S
H827 C811 0.961 . S
H828 C812 0.931 . S
H829 C817 0.930 . S
H830 C818 0.956 . S
H831 C818 0.961 . S
H832 C818 0.961 . S
H833 C819 0.958 . S
H834 C819 0.961 . S
H835 C819 0.960 . S
C836 C837 1.391 . S
C836 C838 1.394 . S
C836 H852 0.931 . S
C837 C836 1.391 . S
C837 C841 1.376 . S
C838 C836 1.394 . S
C838 C839 1.369 . S
C838 C842 1.531 . S
C839 C838 1.369 . S
C839 C840 1.410 . S
C839 C847 1.503 . S
C840 C839 1.410 . S
C840 C841 1.392 . S
C840 C843 1.511 . S
C841 C837 1.376 . S
C841 C840 1.392 . S
C841 H853 0.929 . S
C842 C838 1.531 . S
C842 H854 0.960 . S
C842 H855 0.962 . S
C842 H856 0.960 . S
C843 C840 1.511 . S
C843 H857 0.961 . S
C843 H858 0.961 . S
C843 H859 0.961 . S
C844 C845 1.370 . S
C844 C846 1.363 1_545 S
C844 H860 0.931 . S
C845 C844 1.370 . S
C845 C849 1.408 . S
C846 C844 1.363 1_565 S
C846 C847 1.370 . S
C846 C850 1.524 . S
C847 C839 1.503 . S
C847 C846 1.370 . S
C847 C848 1.403 . S
C848 C847 1.403 . S
C848 C849 1.404 1_565 S
C848 C851 1.539 . S
C849 C845 1.408 . S
C849 C848 1.404 1_545 S
C849 H861 0.930 . S
C850 C846 1.524 . S
C850 H862 0.956 . S
C850 H863 0.961 . S
C850 H864 0.961 . S
C851 C848 1.539 . S
C851 H865 0.958 . S
C851 H866 0.961 . S
C851 H867 0.960 . S
H852 C836 0.931 . S
H853 C841 0.929 . S
H854 C842 0.960 . S
H855 C842 0.962 . S
H856 C842 0.960 . S
H857 C843 0.961 . S
H858 C843 0.961 . S
H859 C843 0.961 . S
H860 C844 0.931 . S
H861 C849 0.930 . S
H862 C850 0.956 . S
H863 C850 0.961 . S
H864 C850 0.961 . S
H865 C851 0.958 . S
H866 C851 0.961 . S
H867 C851 0.960 . S
C868 C869 1.391 . S
C868 C870 1.394 1_655 S
C868 H884 0.931 . S
C869 C868 1.391 . S
C869 C873 1.376 . S
C870 C868 1.394 1_455 S
C870 C871 1.369 . S
C870 C874 1.531 . S
C871 C870 1.369 . S
C871 C872 1.410 . S
C871 C879 1.503 . S
C872 C871 1.410 . S
C872 C873 1.392 1_455 S
C872 C875 1.511 . S
C873 C869 1.376 . S
C873 C872 1.392 1_655 S
C873 H885 0.929 . S
C874 C870 1.531 . S
C874 H886 0.960 . S
C874 H887 0.962 . S
C874 H888 0.960 . S
C875 C872 1.511 . S
C875 H889 0.961 . S
C875 H890 0.961 . S
C875 H891 0.961 . S
C876 C877 1.370 . S
C876 C878 1.363 . S
C876 H892 0.931 . S
C877 C876 1.370 . S
C877 C881 1.408 . S
C878 C876 1.363 . S
C878 C879 1.370 . S
C878 C882 1.524 . S
C879 C871 1.503 . S
C879 C878 1.370 . S
C879 C880 1.403 . S
C880 C879 1.403 . S
C880 C881 1.404 . S
C880 C883 1.539 . S
C881 C877 1.408 . S
C881 C880 1.404 . S
C881 H893 0.930 . S
C882 C878 1.524 . S
C882 H894 0.956 . S
C882 H895 0.961 . S
C882 H896 0.961 . S
C883 C880 1.539 . S
C883 H897 0.958 . S
C883 H898 0.961 . S
C883 H899 0.960 . S
H884 C868 0.931 . S
H885 C873 0.929 . S
H886 C874 0.960 . S
H887 C874 0.962 . S
H888 C874 0.960 . S
H889 C875 0.961 . S
H890 C875 0.961 . S
H891 C875 0.961 . S
H892 C876 0.931 . S
H893 C881 0.930 . S
H894 C882 0.956 . S
H895 C882 0.961 . S
H896 C882 0.961 . S
H897 C883 0.958 . S
H898 C883 0.961 . S
H899 C883 0.960 . S
C900 C901 1.391 . S
C900 C902 1.394 . S
C900 H916 0.931 . S
C901 C900 1.391 . S
C901 C905 1.376 . S
C902 C900 1.394 . S
C902 C903 1.369 . S
C902 C906 1.531 . S
C903 C902 1.369 . S
C903 C904 1.410 . S
C903 C911 1.512 . S
C904 C903 1.410 . S
C904 C905 1.392 . S
C904 C907 1.511 1_554 S
C905 C901 1.376 . S
C905 C904 1.392 . S
C905 H917 0.929 . S
C906 C902 1.531 . S
C906 H918 0.960 . S
C906 H919 0.962 . S
C906 H920 0.960 . S
C907 C904 1.511 1_556 S
C907 H921 0.961 . S
C907 H922 0.961 . S
C907 H923 0.959 . S
C908 C909 1.370 . S
C908 C910 1.363 . S
C908 H924 0.931 . S
C909 C908 1.370 . S
C909 C913 1.408 1_556 S
C910 C908 1.363 . S
C910 C911 1.348 1_556 S
C910 C914 1.524 . S
C911 C903 1.512 . S
C911 C910 1.348 1_554 S
C911 C912 1.417 . S
C912 C911 1.417 . S
C912 C913 1.404 . S
C912 C915 1.539 . S
C913 C909 1.408 1_554 S
C913 C912 1.404 . S
C913 H925 0.930 . S
C914 C910 1.524 . S
C914 H926 0.956 . S
C914 H927 0.961 . S
C914 H928 0.961 . S
C915 C912 1.539 . S
C915 H929 0.958 . S
C915 H930 0.961 . S
C915 H931 0.960 . S
H916 C900 0.931 . S
H917 C905 0.929 . S
H918 C906 0.960 . S
H919 C906 0.962 . S
H920 C906 0.960 . S
H921 C907 0.961 . S
H922 C907 0.961 . S
H923 C907 0.959 . S
H924 C908 0.931 . S
H925 C913 0.930 . S
H926 C914 0.956 . S
H927 C914 0.961 . S
H928 C914 0.961 . S
H929 C915 0.958 . S
H930 C915 0.961 . S
H931 C915 0.960 . S
C932 C933 1.391 . S
C932 C934 1.394 . S
C932 H948 0.931 . S
C933 C932 1.391 . S
C933 C937 1.383 . S
C934 C932 1.394 . S
C934 C935 1.369 . S
C934 C938 1.531 . S
C935 C934 1.369 . S
C935 C936 1.410 1_556 S
C935 C943 1.503 1_556 S
C936 C935 1.410 1_554 S
C936 C937 1.390 1_554 S
C936 C939 1.511 . S
C937 C933 1.383 . S
C937 C936 1.390 1_556 S
C937 H949 0.924 1_556 S
C938 C934 1.531 . S
C938 H950 0.960 . S
C938 H951 0.962 . S
C938 H952 0.960 . S
C939 C936 1.511 . S
C939 H953 0.961 . S
C939 H954 0.961 . S
C939 H955 0.961 . S
C940 C941 1.370 . S
C940 C942 1.363 1_565 S
C940 H956 0.931 . S
C941 C940 1.370 . S
C941 C945 1.397 1_554 S
C942 C940 1.363 1_545 S
C942 C943 1.370 . S
C942 C946 1.524 . S
C943 C935 1.503 1_554 S
C943 C942 1.370 . S
C943 C944 1.403 1_554 S
C944 C943 1.403 1_556 S
C944 C945 1.409 1_545 S
C944 C947 1.539 . S
C945 C941 1.397 1_556 S
C945 C944 1.409 1_565 S
C945 H957 0.936 . S
C946 C942 1.524 . S
C946 H958 0.956 . S
C946 H959 0.961 . S
C946 H960 0.961 . S
C947 C944 1.539 . S
C947 H961 0.958 . S
C947 H962 0.961 . S
C947 H963 0.960 . S
H948 C932 0.931 . S
H949 C937 0.924 1_554 S
H950 C938 0.960 . S
H951 C938 0.962 . S
H952 C938 0.960 . S
H953 C939 0.961 . S
H954 C939 0.961 . S
H955 C939 0.961 . S
H956 C940 0.931 . S
H957 C945 0.936 . S
H958 C946 0.956 . S
H959 C946 0.961 . S
H960 C946 0.961 . S
H961 C947 0.958 . S
H962 C947 0.961 . S
H963 C947 0.960 . S
C964 C965 1.391 . S
C964 C966 1.394 1_455 S
C964 H980 0.931 . S
C965 C964 1.391 . S
C965 C969 1.376 . S
C966 C964 1.394 1_655 S
C966 C967 1.369 1_554 S
C966 C970 1.531 1_554 S
C967 C966 1.369 1_556 S
C967 C968 1.410 1_556 S
C967 C975 1.503 . S
C968 C967 1.410 1_554 S
C968 C969 1.392 1_655 S
C968 C971 1.511 1_554 S
C969 C965 1.376 . S
C969 C968 1.392 1_455 S
C969 H981 0.929 . S
C970 C966 1.531 1_556 S
C970 H982 0.960 . S
C970 H983 0.962 1_556 S
C970 H984 0.960 . S
C971 C968 1.511 1_556 S
C971 H985 0.961 1_556 S
C971 H986 0.961 1_556 S
C971 H987 0.961 . S
C972 C973 1.370 1_554 S
C972 C974 1.363 . S
C972 H988 0.931 . S
C973 C972 1.370 1_556 S
C973 C977 1.408 . S
C974 C972 1.363 . S
C974 C975 1.370 1_554 S
C974 C978 1.524 . S
C975 C967 1.503 . S
C975 C974 1.370 1_556 S
C975 C976 1.403 . S
C976 C975 1.403 . S
C976 C977 1.404 . S
C976 C979 1.539 . S
C977 C973 1.408 . S
C977 C976 1.404 . S
C977 H989 0.930 . S
C978 C974 1.524 . S
C978 H990 0.956 . S
C978 H991 0.961 . S
C978 H992 0.961 . S
C979 C976 1.539 . S
C979 H993 0.958 . S
C979 H994 0.961 . S
C979 H995 0.960 . S
H980 C964 0.931 . S
H981 C969 0.929 . S
H982 C970 0.960 . S
H983 C970 0.962 1_554 S
H984 C970 0.960 . S
H985 C971 0.961 1_554 S
H986 C971 0.961 1_554 S
H987 C971 0.961 . S
H988 C972 0.931 . S
H989 C977 0.930 . S
H990 C978 0.956 . S
H991 C978 0.961 . S
H992 C978 0.961 . S
H993 C979 0.958 . S
H994 C979 0.961 . S
H995 C979 0.960 . S
C996 C997 1.391 . S
C996 C998 1.394 . S
C996 H1012 0.931 . S
C997 C996 1.391 . S
C997 C1001 1.376 . S
C998 C996 1.394 . S
C998 C999 1.369 . S
C998 C1002 1.531 . S
C999 C998 1.369 . S
C999 C1000 1.410 . S
C999 C1007 1.503 . S
C1000 C999 1.410 . S
C1000 C1001 1.392 . S
C1000 C1003 1.511 . S
C1001 C997 1.376 . S
C1001 C1000 1.392 . S
C1001 H1013 0.929 . S
C1002 C998 1.531 . S
C1002 H1014 0.960 . S
C1002 H1015 0.962 . S
C1002 H1016 0.960 . S
C1003 C1000 1.511 . S
C1003 H1017 0.961 . S
C1003 H1018 0.961 . S
C1003 H1019 0.961 . S
C1004 C1005 1.370 . S
C1004 C1006 1.363 . S
C1004 H1020 0.931 . S
C1005 C1004 1.370 . S
C1005 C1009 1.408 . S
C1006 C1004 1.363 . S
C1006 C1007 1.370 . S
C1006 C1010 1.524 . S
C1007 C999 1.503 . S
C1007 C1006 1.370 . S
C1007 C1008 1.403 . S
C1008 C1007 1.403 . S
C1008 C1009 1.404 . S
C1008 C1011 1.539 . S
C1009 C1005 1.408 . S
C1009 C1008 1.404 . S
C1009 H1021 0.930 . S
C1010 C1006 1.524 . S
C1010 H1022 0.956 . S
C1010 H1023 0.961 . S
C1010 H1024 0.961 . S
C1011 C1008 1.539 . S
C1011 H1025 0.958 . S
C1011 H1026 0.961 . S
C1011 H1027 0.960 . S
H1012 C996 0.931 . S
H1013 C1001 0.929 . S
H1014 C1002 0.960 . S
H1015 C1002 0.962 . S
H1016 C1002 0.960 . S
H1017 C1003 0.961 . S
H1018 C1003 0.961 . S
H1019 C1003 0.961 . S
H1020 C1004 0.931 . S
H1021 C1009 0.930 . S
H1022 C1010 0.956 . S
H1023 C1010 0.961 . S
H1024 C1010 0.961 . S
H1025 C1011 0.958 . S
H1026 C1011 0.961 . S
H1027 C1011 0.960 . S
C1028 C1029 1.391 . S
C1028 C1030 1.394 . S
C1028 H1044 0.931 . S
C1029 C1028 1.391 . S
C1029 C1033 1.376 . S
C1030 C1028 1.394 . S
C1030 C1031 1.369 . S
C1030 C1034 1.531 . S
C1031 C1030 1.369 . S
C1031 C1032 1.410 . S
C1031 C1039 1.503 . S
C1032 C1031 1.410 . S
C1032 C1033 1.392 . S
C1032 C1035 1.511 . S
C1033 C1029 1.376 . S
C1033 C1032 1.392 . S
C1033 H1045 0.929 . S
C1034 C1030 1.531 . S
C1034 H1046 0.960 . S
C1034 H1047 0.962 . S
C1034 H1048 0.960 . S
C1035 C1032 1.511 . S
C1035 H1049 0.961 . S
C1035 H1050 0.961 . S
C1035 H1051 0.961 . S
C1036 C1037 1.370 . S
C1036 C1038 1.363 1_565 S
C1036 H1052 0.931 . S
C1037 C1036 1.370 . S
C1037 C1041 1.408 . S
C1038 C1036 1.363 1_545 S
C1038 C1039 1.370 . S
C1038 C1042 1.524 . S
C1039 C1031 1.503 . S
C1039 C1038 1.370 . S
C1039 C1040 1.403 . S
C1040 C1039 1.403 . S
C1040 C1041 1.404 1_545 S
C1040 C1043 1.539 . S
C1041 C1037 1.408 . S
C1041 C1040 1.404 1_565 S
C1041 H1053 0.930 . S
C1042 C1038 1.524 . S
C1042 H1054 0.956 . S
C1042 H1055 0.961 . S
C1042 H1056 0.961 . S
C1043 C1040 1.539 . S
C1043 H1057 0.958 . S
C1043 H1058 0.961 . S
C1043 H1059 0.960 . S
H1044 C1028 0.931 . S
H1045 C1033 0.929 . S
H1046 C1034 0.960 . S
H1047 C1034 0.962 . S
H1048 C1034 0.960 . S
H1049 C1035 0.961 . S
H1050 C1035 0.961 . S
H1051 C1035 0.961 . S
H1052 C1036 0.931 . S
H1053 C1041 0.930 . S
H1054 C1042 0.956 . S
H1055 C1042 0.961 . S
H1056 C1042 0.961 . S
H1057 C1043 0.958 . S
H1058 C1043 0.961 . S
H1059 C1043 0.960 . S
C1060 C1061 1.391 . S
C1060 C1062 1.394 1_455 S
C1060 H1076 0.931 . S
C1061 C1060 1.391 . S
C1061 C1065 1.376 . S
C1062 C1060 1.394 1_655 S
C1062 C1063 1.369 . S
C1062 C1066 1.531 . S
C1063 C1062 1.369 . S
C1063 C1064 1.410 . S
C1063 C1071 1.503 . S
C1064 C1063 1.410 . S
C1064 C1065 1.392 1_655 S
C1064 C1067 1.511 . S
C1065 C1061 1.376 . S
C1065 C1064 1.392 1_455 S
C1065 H1077 0.929 . S
C1066 C1062 1.531 . S
C1066 H1078 0.960 . S
C1066 H1079 0.962 . S
C1066 H1080 0.960 . S
C1067 C1064 1.511 . S
C1067 H1081 0.961 . S
C1067 H1082 0.961 . S
C1067 H1083 0.961 . S
C1068 C1069 1.370 . S
C1068 C1070 1.363 . S
C1068 H1084 0.931 . S
C1069 C1068 1.370 . S
C1069 C1073 1.408 . S
C1070 C1068 1.363 . S
C1070 C1071 1.370 . S
C1070 C1074 1.524 . S
C1071 C1063 1.503 . S
C1071 C1070 1.370 . S
C1071 C1072 1.403 . S
C1072 C1071 1.403 . S
C1072 C1073 1.404 . S
C1072 C1075 1.539 . S
C1073 C1069 1.408 . S
C1073 C1072 1.404 . S
C1073 H1085 0.930 . S
C1074 C1070 1.524 . S
C1074 H1086 0.956 . S
C1074 H1087 0.961 . S
C1074 H1088 0.961 . S
C1075 C1072 1.539 . S
C1075 H1089 0.958 . S
C1075 H1090 0.961 . S
C1075 H1091 0.960 . S
H1076 C1060 0.931 . S
H1077 C1065 0.929 . S
H1078 C1066 0.960 . S
H1079 C1066 0.962 . S
H1080 C1066 0.960 . S
H1081 C1067 0.961 . S
H1082 C1067 0.961 . S
H1083 C1067 0.961 . S
H1084 C1068 0.931 . S
H1085 C1073 0.930 . S
H1086 C1074 0.956 . S
H1087 C1074 0.961 . S
H1088 C1074 0.961 . S
H1089 C1075 0.958 . S
H1090 C1075 0.961 . S
H1091 C1075 0.960 . S
C1092 C1093 1.391 . S
C1092 C1094 1.394 . S
C1092 H1108 0.931 . S
C1093 C1092 1.391 . S
C1093 C1097 1.376 . S
C1094 C1092 1.394 . S
C1094 C1095 1.369 . S
C1094 C1098 1.531 . S
C1095 C1094 1.369 . S
C1095 C1096 1.410 . S
C1095 C1103 1.503 . S
C1096 C1095 1.410 . S
C1096 C1097 1.392 . S
C1096 C1099 1.511 . S
C1097 C1093 1.376 . S
C1097 C1096 1.392 . S
C1097 H1109 0.929 . S
C1098 C1094 1.531 . S
C1098 H1110 0.960 . S
C1098 H1111 0.962 . S
C1098 H1112 0.960 . S
C1099 C1096 1.511 . S
C1099 H1113 0.961 . S
C1099 H1114 0.961 . S
C1099 H1115 0.961 . S
C1100 C1101 1.370 . S
C1100 C1102 1.363 . S
C1100 H1116 0.931 . S
C1101 C1100 1.370 . S
C1101 C1105 1.408 . S
C1102 C1100 1.363 . S
C1102 C1103 1.370 . S
C1102 C1106 1.524 . S
C1103 C1095 1.503 . S
C1103 C1102 1.370 . S
C1103 C1104 1.403 . S
C1104 C1103 1.403 . S
C1104 C1105 1.404 . S
C1104 C1107 1.539 . S
C1105 C1101 1.408 . S
C1105 C1104 1.404 . S
C1105 H1117 0.930 . S
C1106 C1102 1.524 . S
C1106 H1118 0.956 . S
C1106 H1119 0.961 . S
C1106 H1120 0.961 . S
C1107 C1104 1.539 . S
C1107 H1121 0.958 . S
C1107 H1122 0.961 . S
C1107 H1123 0.960 . S
H1108 C1092 0.931 . S
H1109 C1097 0.929 . S
H1110 C1098 0.960 . S
H1111 C1098 0.962 . S
H1112 C1098 0.960 . S
H1113 C1099 0.961 . S
H1114 C1099 0.961 . S
H1115 C1099 0.961 . S
H1116 C1100 0.931 . S
H1117 C1105 0.930 . S
H1118 C1106 0.956 . S
H1119 C1106 0.961 . S
H1120 C1106 0.961 . S
H1121 C1107 0.958 . S
H1122 C1107 0.961 . S
H1123 C1107 0.960 . S
C1124 C1125 1.391 . S
C1124 C1126 1.394 . S
C1124 H1140 0.931 . S
C1125 C1124 1.391 . S
C1125 C1129 1.376 . S
C1126 C1124 1.394 . S
C1126 C1127 1.369 . S
C1126 C1130 1.531 . S
C1127 C1126 1.369 . S
C1127 C1128 1.410 . S
C1127 C1135 1.503 . S
C1128 C1127 1.410 . S
C1128 C1129 1.392 . S
C1128 C1131 1.511 . S
C1129 C1125 1.376 . S
C1129 C1128 1.392 . S
C1129 H1141 0.929 . S
C1130 C1126 1.531 . S
C1130 H1142 0.960 . S
C1130 H1143 0.962 . S
C1130 H1144 0.960 . S
C1131 C1128 1.511 . S
C1131 H1145 0.961 . S
C1131 H1146 0.961 . S
C1131 H1147 0.961 . S
C1132 C1133 1.370 . S
C1132 C1134 1.363 . S
C1132 H1148 0.931 . S
C1133 C1132 1.370 . S
C1133 C1137 1.408 . S
C1134 C1132 1.363 . S
C1134 C1135 1.370 . S
C1134 C1138 1.524 . S
C1135 C1127 1.503 . S
C1135 C1134 1.370 . S
C1135 C1136 1.403 . S
C1136 C1135 1.403 . S
C1136 C1137 1.404 . S
C1136 C1139 1.539 . S
C1137 C1133 1.408 . S
C1137 C1136 1.404 . S
C1137 H1149 0.930 . S
C1138 C1134 1.524 . S
C1138 H1150 0.956 . S
C1138 H1151 0.961 . S
C1138 H1152 0.961 . S
C1139 C1136 1.539 . S
C1139 H1153 0.958 . S
C1139 H1154 0.961 . S
C1139 H1155 0.960 . S
H1140 C1124 0.931 . S
H1141 C1129 0.929 . S
H1142 C1130 0.960 . S
H1143 C1130 0.962 . S
H1144 C1130 0.960 . S
H1145 C1131 0.961 . S
H1146 C1131 0.961 . S
H1147 C1131 0.961 . S
H1148 C1132 0.931 . S
H1149 C1137 0.930 . S
H1150 C1138 0.956 . S
H1151 C1138 0.961 . S
H1152 C1138 0.961 . S
H1153 C1139 0.958 . S
H1154 C1139 0.961 . S
H1155 C1139 0.960 . S
C1156 C1157 1.391 . S
C1156 C1158 1.394 . S
C1156 H1172 0.931 . S
C1157 C1156 1.391 . S
C1157 C1161 1.376 . S
C1158 C1156 1.394 . S
C1158 C1159 1.369 . S
C1158 C1162 1.531 . S
C1159 C1158 1.369 . S
C1159 C1160 1.410 . S
C1159 C1167 1.503 . S
C1160 C1159 1.410 . S
C1160 C1161 1.392 . S
C1160 C1163 1.511 . S
C1161 C1157 1.376 . S
C1161 C1160 1.392 . S
C1161 H1173 0.929 . S
C1162 C1158 1.531 . S
C1162 H1174 0.960 . S
C1162 H1175 0.962 . S
C1162 H1176 0.960 . S
C1163 C1160 1.511 . S
C1163 H1177 0.961 . S
C1163 H1178 0.961 . S
C1163 H1179 0.961 . S
C1164 C1165 1.370 . S
C1164 C1166 1.363 . S
C1164 H1180 0.931 . S
C1165 C1164 1.370 . S
C1165 C1169 1.408 . S
C1166 C1164 1.363 . S
C1166 C1167 1.370 . S
C1166 C1170 1.524 . S
C1167 C1159 1.503 . S
C1167 C1166 1.370 . S
C1167 C1168 1.403 . S
C1168 C1167 1.403 . S
C1168 C1169 1.404 . S
C1168 C1171 1.539 . S
C1169 C1165 1.408 . S
C1169 C1168 1.404 . S
C1169 H1181 0.930 . S
C1170 C1166 1.524 . S
C1170 H1182 0.956 . S
C1170 H1183 0.961 . S
C1170 H1184 0.961 . S
C1171 C1168 1.539 . S
C1171 H1185 0.958 . S
C1171 H1186 0.961 . S
C1171 H1187 0.960 . S
H1172 C1156 0.931 . S
H1173 C1161 0.929 . S
H1174 C1162 0.960 . S
H1175 C1162 0.962 . S
H1176 C1162 0.960 . S
H1177 C1163 0.961 . S
H1178 C1163 0.961 . S
H1179 C1163 0.961 . S
H1180 C1164 0.931 . S
H1181 C1169 0.930 . S
H1182 C1170 0.956 . S
H1183 C1170 0.961 . S
H1184 C1170 0.961 . S
H1185 C1171 0.958 . S
H1186 C1171 0.961 . S
H1187 C1171 0.960 . S
C1188 C1189 1.391 . S
C1188 C1190 1.394 . S
C1188 H1204 0.931 . S
C1189 C1188 1.391 . S
C1189 C1193 1.376 . S
C1190 C1188 1.394 . S
C1190 C1191 1.369 . S
C1190 C1194 1.531 . S
C1191 C1190 1.369 . S
C1191 C1192 1.410 . S
C1191 C1199 1.503 . S
C1192 C1191 1.410 . S
C1192 C1193 1.392 . S
C1192 C1195 1.511 . S
C1193 C1189 1.376 . S
C1193 C1192 1.392 . S
C1193 H1205 0.929 . S
C1194 C1190 1.531 . S
C1194 H1206 0.960 . S
C1194 H1207 0.962 . S
C1194 H1208 0.960 . S
C1195 C1192 1.511 . S
C1195 H1209 0.961 . S
C1195 H1210 0.961 . S
C1195 H1211 0.961 . S
C1196 C1197 1.370 . S
C1196 C1198 1.363 . S
C1196 H1212 0.931 . S
C1197 C1196 1.370 . S
C1197 C1201 1.408 . S
C1198 C1196 1.363 . S
C1198 C1199 1.370 . S
C1198 C1202 1.524 . S
C1199 C1191 1.503 . S
C1199 C1198 1.370 . S
C1199 C1200 1.403 . S
C1200 C1199 1.403 . S
C1200 C1201 1.404 . S
C1200 C1203 1.539 . S
C1201 C1197 1.408 . S
C1201 C1200 1.404 . S
C1201 H1213 0.930 . S
C1202 C1198 1.524 . S
C1202 H1214 0.956 . S
C1202 H1215 0.961 . S
C1202 H1216 0.961 . S
C1203 C1200 1.539 . S
C1203 H1217 0.958 . S
C1203 H1218 0.961 . S
C1203 H1219 0.960 . S
H1204 C1188 0.931 . S
H1205 C1193 0.929 . S
H1206 C1194 0.960 . S
H1207 C1194 0.962 . S
H1208 C1194 0.960 . S
H1209 C1195 0.961 . S
H1210 C1195 0.961 . S
H1211 C1195 0.961 . S
H1212 C1196 0.931 . S
H1213 C1201 0.930 . S
H1214 C1202 0.956 . S
H1215 C1202 0.961 . S
H1216 C1202 0.961 . S
H1217 C1203 0.958 . S
H1218 C1203 0.961 . S
H1219 C1203 0.960 . S
C1220 C1221 1.391 . S
C1220 C1222 1.394 . S
C1220 H1236 0.931 . S
C1221 C1220 1.391 . S
C1221 C1225 1.376 . S
C1222 C1220 1.394 . S
C1222 C1223 1.369 . S
C1222 C1226 1.531 . S
C1223 C1222 1.369 . S
C1223 C1224 1.410 . S
C1223 C1231 1.503 . S
C1224 C1223 1.410 . S
C1224 C1225 1.392 . S
C1224 C1227 1.511 . S
C1225 C1221 1.376 . S
C1225 C1224 1.392 . S
C1225 H1237 0.929 . S
C1226 C1222 1.531 . S
C1226 H1238 0.960 . S
C1226 H1239 0.962 . S
C1226 H1240 0.960 . S
C1227 C1224 1.511 . S
C1227 H1241 0.961 . S
C1227 H1242 0.961 . S
C1227 H1243 0.961 . S
C1228 C1229 1.370 . S
C1228 C1230 1.363 . S
C1228 H1244 0.931 . S
C1229 C1228 1.370 . S
C1229 C1233 1.408 . S
C1230 C1228 1.363 . S
C1230 C1231 1.370 . S
C1230 C1234 1.524 . S
C1231 C1223 1.503 . S
C1231 C1230 1.370 . S
C1231 C1232 1.403 . S
C1232 C1231 1.403 . S
C1232 C1233 1.404 . S
C1232 C1235 1.539 . S
C1233 C1229 1.408 . S
C1233 C1232 1.404 . S
C1233 H1245 0.930 . S
C1234 C1230 1.524 . S
C1234 H1246 0.956 . S
C1234 H1247 0.961 . S
C1234 H1248 0.961 . S
C1235 C1232 1.539 . S
C1235 H1249 0.958 . S
C1235 H1250 0.961 . S
C1235 H1251 0.960 . S
H1236 C1220 0.931 . S
H1237 C1225 0.929 . S
H1238 C1226 0.960 . S
H1239 C1226 0.962 . S
H1240 C1226 0.960 . S
H1241 C1227 0.961 . S
H1242 C1227 0.961 . S
H1243 C1227 0.961 . S
H1244 C1228 0.931 . S
H1245 C1233 0.930 . S
H1246 C1234 0.956 . S
H1247 C1234 0.961 . S
H1248 C1234 0.961 . S
H1249 C1235 0.958 . S
H1250 C1235 0.961 . S
H1251 C1235 0.960 . S
C1252 C1253 1.391 . S
C1252 C1254 1.394 . S
C1252 H1268 0.931 . S
C1253 C1252 1.391 . S
C1253 C1257 1.376 . S
C1254 C1252 1.394 . S
C1254 C1255 1.369 . S
C1254 C1258 1.531 . S
C1255 C1254 1.369 . S
C1255 C1256 1.410 . S
C1255 C1263 1.503 . S
C1256 C1255 1.410 . S
C1256 C1257 1.392 . S
C1256 C1259 1.511 . S
C1257 C1253 1.376 . S
C1257 C1256 1.392 . S
C1257 H1269 0.929 . S
C1258 C1254 1.531 . S
C1258 H1270 0.960 . S
C1258 H1271 0.962 . S
C1258 H1272 0.960 . S
C1259 C1256 1.511 . S
C1259 H1273 0.961 . S
C1259 H1274 0.961 . S
C1259 H1275 0.961 . S
C1260 C1261 1.370 . S
C1260 C1262 1.363 . S
C1260 H1276 0.931 . S
C1261 C1260 1.370 . S
C1261 C1265 1.408 . S
C1262 C1260 1.363 . S
C1262 C1263 1.370 . S
C1262 C1266 1.524 . S
C1263 C1255 1.503 . S
C1263 C1262 1.370 . S
C1263 C1264 1.403 . S
C1264 C1263 1.403 . S
C1264 C1265 1.404 . S
C1264 C1267 1.539 . S
C1265 C1261 1.408 . S
C1265 C1264 1.404 . S
C1265 H1277 0.930 . S
C1266 C1262 1.524 . S
C1266 H1278 0.956 . S
C1266 H1279 0.961 . S
C1266 H1280 0.961 . S
C1267 C1264 1.539 . S
C1267 H1281 0.958 . S
C1267 H1282 0.961 . S
C1267 H1283 0.960 . S
H1268 C1252 0.931 . S
H1269 C1257 0.929 . S
H1270 C1258 0.960 . S
H1271 C1258 0.962 . S
H1272 C1258 0.960 . S
H1273 C1259 0.961 . S
H1274 C1259 0.961 . S
H1275 C1259 0.961 . S
H1276 C1260 0.931 . S
H1277 C1265 0.930 . S
H1278 C1266 0.956 . S
H1279 C1266 0.961 . S
H1280 C1266 0.961 . S
H1281 C1267 0.958 . S
H1282 C1267 0.961 . S
H1283 C1267 0.960 . S
C1284 C1285 1.391 . S
C1284 C1286 1.394 . S
C1284 H1300 0.931 . S
C1285 C1284 1.391 . S
C1285 C1289 1.376 . S
C1286 C1284 1.394 . S
C1286 C1287 1.369 . S
C1286 C1290 1.531 . S
C1287 C1286 1.369 . S
C1287 C1288 1.410 1_554 S
C1287 C1295 1.503 1_454 S
C1288 C1287 1.410 1_556 S
C1288 C1289 1.392 1_556 S
C1288 C1291 1.511 . S
C1289 C1285 1.376 . S
C1289 C1288 1.392 1_554 S
C1289 H1301 0.929 . S
C1290 C1286 1.531 . S
C1290 H1302 0.960 . S
C1290 H1303 0.962 . S
C1290 H1304 0.960 . S
C1291 C1288 1.511 . S
C1291 H1305 0.961 . S
C1291 H1306 0.961 1_455 S
C1291 H1307 0.961 . S
C1292 C1293 1.370 . S
C1292 C1294 1.363 . S
C1292 H1308 0.931 . S
C1293 C1292 1.370 . S
C1293 C1297 1.408 . S
C1294 C1292 1.363 . S
C1294 C1295 1.370 . S
C1294 C1298 1.524 1_556 S
C1295 C1287 1.503 1_656 S
C1295 C1294 1.370 . S
C1295 C1296 1.403 1_655 S
C1296 C1295 1.403 1_455 S
C1296 C1297 1.404 1_455 S
C1296 C1299 1.539 . S
C1297 C1293 1.408 . S
C1297 C1296 1.404 1_655 S
C1297 H1309 0.930 . S
C1298 C1294 1.524 1_554 S
C1298 H1310 0.956 . S
C1298 H1311 0.961 . S
C1298 H1312 0.961 . S
C1299 C1296 1.539 . S
C1299 H1313 0.958 . S
C1299 H1314 0.961 . S
C1299 H1315 0.960 . S
H1300 C1284 0.931 . S
H1301 C1289 0.929 . S
H1302 C1290 0.960 . S
H1303 C1290 0.962 . S
H1304 C1290 0.960 . S
H1305 C1291 0.961 . S
H1306 C1291 0.961 1_655 S
H1307 C1291 0.961 . S
H1308 C1292 0.931 . S
H1309 C1297 0.930 . S
H1310 C1298 0.956 . S
H1311 C1298 0.961 . S
H1312 C1298 0.961 . S
H1313 C1299 0.958 . S
H1314 C1299 0.961 . S
H1315 C1299 0.960 . S
C1316 C1317 1.391 . S
C1316 C1318 1.394 . S
C1316 H1332 0.931 . S
C1317 C1316 1.391 . S
C1317 C1321 1.376 . S
C1318 C1316 1.394 . S
C1318 C1319 1.369 . S
C1318 C1322 1.531 . S
C1319 C1318 1.369 . S
C1319 C1320 1.410 . S
C1319 C1327 1.503 1_554 S
C1320 C1319 1.410 . S
C1320 C1321 1.392 . S
C1320 C1323 1.511 1_554 S
C1321 C1317 1.376 . S
C1321 C1320 1.392 . S
C1321 H1333 0.929 . S
C1322 C1318 1.531 . S
C1322 H1334 0.960 . S
C1322 H1335 0.962 . S
C1322 H1336 0.960 . S
C1323 C1320 1.511 1_556 S
C1323 H1337 0.961 . S
C1323 H1338 0.961 . S
C1323 H1339 0.961 . S
C1324 C1325 1.370 . S
C1324 C1326 1.363 . S
C1324 H1340 0.931 . S
C1325 C1324 1.370 . S
C1325 C1329 1.408 . S
C1326 C1324 1.363 . S
C1326 C1327 1.370 . S
C1326 C1330 1.524 . S
C1327 C1319 1.503 1_556 S
C1327 C1326 1.370 . S
C1327 C1328 1.403 1_556 S
C1328 C1327 1.403 1_554 S
C1328 C1329 1.404 1_554 S
C1328 C1331 1.539 . S
C1329 C1325 1.408 . S
C1329 C1328 1.404 1_556 S
C1329 H1341 0.930 . S
C1330 C1326 1.524 . S
C1330 H1342 0.956 . S
C1330 H1343 0.961 . S
C1330 H1344 0.961 . S
C1331 C1328 1.539 . S
C1331 H1345 0.958 . S
C1331 H1346 0.961 . S
C1331 H1347 0.960 . S
H1332 C1316 0.931 . S
H1333 C1321 0.929 . S
H1334 C1322 0.960 . S
H1335 C1322 0.962 . S
H1336 C1322 0.960 . S
H1337 C1323 0.961 . S
H1338 C1323 0.961 . S
H1339 C1323 0.961 . S
H1340 C1324 0.931 . S
H1341 C1329 0.930 . S
H1342 C1330 0.956 . S
H1343 C1330 0.961 . S
H1344 C1330 0.961 . S
H1345 C1331 0.958 . S
H1346 C1331 0.961 . S
H1347 C1331 0.960 . S
C1348 C1349 1.391 . S
C1348 C1350 1.394 1_565 S
C1348 H1364 0.931 . S
C1349 C1348 1.391 . S
C1349 C1353 1.376 . S
C1350 C1348 1.394 1_545 S
C1350 C1351 1.369 1_545 S
C1350 C1354 1.531 . S
C1351 C1350 1.369 1_565 S
C1351 C1352 1.410 . S
C1351 C1359 1.503 1_564 S
C1352 C1351 1.410 . S
C1352 C1353 1.392 . S
C1352 C1355 1.511 . S
C1353 C1349 1.376 . S
C1353 C1352 1.392 . S
C1353 H1365 0.929 . S
C1354 C1350 1.531 . S
C1354 H1366 0.960 . S
C1354 H1367 0.962 1_554 S
C1354 H1368 0.960 . S
C1355 C1352 1.511 . S
C1355 H1369 0.961 . S
C1355 H1370 0.961 1_554 S
C1355 H1371 0.961 . S
C1356 C1357 1.370 . S
C1356 C1358 1.363 . S
C1356 H1372 0.931 . S
C1357 C1356 1.370 . S
C1357 C1361 1.408 . S
C1358 C1356 1.363 . S
C1358 C1359 1.370 . S
C1358 C1362 1.524 1_545 S
C1359 C1351 1.503 1_546 S
C1359 C1358 1.370 . S
C1359 C1360 1.403 1_556 S
C1360 C1359 1.403 1_554 S
C1360 C1361 1.404 1_554 S
C1360 C1363 1.539 . S
C1361 C1357 1.408 . S
C1361 C1360 1.404 1_556 S
C1361 H1373 0.930 1_556 S
C1362 C1358 1.524 1_565 S
C1362 H1374 0.956 . S
C1362 H1375 0.961 . S
C1362 H1376 0.961 . S
C1363 C1360 1.539 . S
C1363 H1377 0.958 . S
C1363 H1378 0.961 . S
C1363 H1379 0.960 . S
H1364 C1348 0.931 . S
H1365 C1353 0.929 . S
H1366 C1354 0.960 . S
H1367 C1354 0.962 1_556 S
H1368 C1354 0.960 . S
H1369 C1355 0.961 . S
H1370 C1355 0.961 1_556 S
H1371 C1355 0.961 . S
H1372 C1356 0.931 . S
H1373 C1361 0.930 1_554 S
H1374 C1362 0.956 . S
H1375 C1362 0.961 . S
H1376 C1362 0.961 . S
H1377 C1363 0.958 . S
H1378 C1363 0.961 . S
H1379 C1363 0.960 . S
C1380 C1381 1.391 . S
C1380 C1382 1.394 . S
C1380 H1396 0.931 . S
C1381 C1380 1.391 . S
C1381 C1385 1.376 . S
C1382 C1380 1.394 . S
C1382 C1383 1.369 . S
C1382 C1386 1.531 . S
C1383 C1382 1.369 . S
C1383 C1384 1.410 . S
C1383 C1391 1.503 1_565 S
C1384 C1383 1.410 . S
C1384 C1385 1.392 . S
C1384 C1387 1.511 1_565 S
C1385 C1381 1.376 . S
C1385 C1384 1.392 . S
C1385 H1397 0.929 . S
C1386 C1382 1.531 . S
C1386 H1398 0.960 . S
C1386 H1399 0.962 . S
C1386 H1400 0.960 . S
C1387 C1384 1.511 1_545 S
C1387 H1401 0.961 . S
C1387 H1402 0.961 . S
C1387 H1403 0.961 . S
C1388 C1389 1.370 . S
C1388 C1390 1.363 . S
C1388 H1404 0.931 . S
C1389 C1388 1.370 . S
C1389 C1393 1.408 . S
C1390 C1388 1.363 . S
C1390 C1391 1.370 . S
C1390 C1394 1.524 . S
C1391 C1383 1.503 1_545 S
C1391 C1390 1.370 . S
C1391 C1392 1.403 . S
C1392 C1391 1.403 . S
C1392 C1393 1.404 . S
C1392 C1395 1.539 1_545 S
C1393 C1389 1.408 . S
C1393 C1392 1.404 . S
C1393 H1405 0.930 . S
C1394 C1390 1.524 . S
C1394 H1406 0.956 . S
C1394 H1407 0.961 . S
C1394 H1408 0.961 . S
C1395 C1392 1.539 1_565 S
C1395 H1409 0.958 . S
C1395 H1410 0.961 . S
C1395 H1411 0.960 . S
H1396 C1380 0.931 . S
H1397 C1385 0.929 . S
H1398 C1386 0.960 . S
H1399 C1386 0.962 . S
H1400 C1386 0.960 . S
H1401 C1387 0.961 . S
H1402 C1387 0.961 . S
H1403 C1387 0.961 . S
H1404 C1388 0.931 . S
H1405 C1393 0.930 . S
H1406 C1394 0.956 . S
H1407 C1394 0.961 . S
H1408 C1394 0.961 . S
H1409 C1395 0.958 . S
H1410 C1395 0.961 . S
H1411 C1395 0.960 . S
C1412 C1413 1.391 . S
C1412 C1414 1.394 . S
C1412 H1428 0.931 . S
C1413 C1412 1.391 . S
C1413 C1417 1.376 . S
C1414 C1412 1.394 . S
C1414 C1415 1.369 . S
C1414 C1418 1.531 1_655 S
C1415 C1414 1.369 . S
C1415 C1416 1.410 . S
C1415 C1423 1.503 1_655 S
C1416 C1415 1.410 . S
C1416 C1417 1.392 . S
C1416 C1419 1.511 . S
C1417 C1413 1.376 . S
C1417 C1416 1.392 . S
C1417 H1429 0.929 . S
C1418 C1414 1.531 1_455 S
C1418 H1430 0.960 . S
C1418 H1431 0.962 . S
C1418 H1432 0.960 1_455 S
C1419 C1416 1.511 . S
C1419 H1433 0.961 . S
C1419 H1434 0.961 . S
C1419 H1435 0.961 . S
C1420 C1421 1.370 . S
C1420 C1422 1.363 . S
C1420 H1436 0.931 . S
C1421 C1420 1.370 . S
C1421 C1425 1.408 . S
C1422 C1420 1.363 . S
C1422 C1423 1.370 . S
C1422 C1426 1.524 . S
C1423 C1415 1.503 1_455 S
C1423 C1422 1.370 . S
C1423 C1424 1.390 1_455 S
C1424 C1423 1.390 1_655 S
C1424 C1425 1.397 1_655 S
C1424 C1427 1.561 . S
C1425 C1421 1.408 . S
C1425 C1424 1.397 1_455 S
C1425 H1437 0.930 . S
C1426 C1422 1.524 . S
C1426 H1438 0.956 . S
C1426 H1439 0.961 . S
C1426 H1440 0.961 . S
C1427 C1424 1.561 . S
C1427 H1441 0.958 . S
C1427 H1442 0.961 . S
C1427 H1443 0.960 . S
H1428 C1412 0.931 . S
H1429 C1417 0.929 . S
H1430 C1418 0.960 . S
H1431 C1418 0.962 . S
H1432 C1418 0.960 1_655 S
H1433 C1419 0.961 . S
H1434 C1419 0.961 . S
H1435 C1419 0.961 . S
H1436 C1420 0.931 . S
H1437 C1425 0.930 . S
H1438 C1426 0.956 . S
H1439 C1426 0.961 . S
H1440 C1426 0.961 . S
H1441 C1427 0.958 . S
H1442 C1427 0.961 . S
H1443 C1427 0.960 . S
C1444 C1445 1.391 . S
C1444 C1446 1.394 . S
C1444 H1460 0.931 . S
C1445 C1444 1.391 . S
C1445 C1449 1.376 . S
C1446 C1444 1.394 . S
C1446 C1447 1.369 . S
C1446 C1450 1.531 . S
C1447 C1446 1.369 . S
C1447 C1448 1.410 . S
C1447 C1455 1.503 . S
C1448 C1447 1.410 . S
C1448 C1449 1.392 . S
C1448 C1451 1.511 . S
C1449 C1445 1.376 . S
C1449 C1448 1.392 . S
C1449 H1461 0.929 . S
C1450 C1446 1.531 . S
C1450 H1462 0.960 . S
C1450 H1463 0.962 . S
C1450 H1464 0.960 . S
C1451 C1448 1.511 . S
C1451 H1465 0.961 . S
C1451 H1466 0.961 . S
C1451 H1467 0.961 . S
C1452 C1453 1.370 . S
C1452 C1454 1.363 . S
C1452 H1468 0.931 . S
C1453 C1452 1.370 . S
C1453 C1457 1.408 . S
C1454 C1452 1.363 . S
C1454 C1455 1.370 . S
C1454 C1458 1.524 . S
C1455 C1447 1.503 . S
C1455 C1454 1.370 . S
C1455 C1456 1.403 . S
C1456 C1455 1.403 . S
C1456 C1457 1.404 . S
C1456 C1459 1.539 . S
C1457 C1453 1.408 . S
C1457 C1456 1.404 . S
C1457 H1469 0.930 . S
C1458 C1454 1.524 . S
C1458 H1470 0.956 . S
C1458 H1471 0.961 . S
C1458 H1472 0.961 . S
C1459 C1456 1.539 . S
C1459 H1473 0.958 . S
C1459 H1474 0.961 . S
C1459 H1475 0.960 . S
H1460 C1444 0.931 . S
H1461 C1449 0.929 . S
H1462 C1450 0.960 . S
H1463 C1450 0.962 . S
H1464 C1450 0.960 . S
H1465 C1451 0.961 . S
H1466 C1451 0.961 . S
H1467 C1451 0.961 . S
H1468 C1452 0.931 . S
H1469 C1457 0.930 . S
H1470 C1458 0.956 . S
H1471 C1458 0.961 . S
H1472 C1458 0.961 . S
H1473 C1459 0.958 . S
H1474 C1459 0.961 . S
H1475 C1459 0.960 . S
C709 C3 0.849 . S
C717 C465 0.875 . S
C741 C62 0.879 . S
C749 C524 0.863 . S
C773 C121 0.873 . S
C781 C406 0.863 . S
C805 C701 0.893 . S
C813 C180 0.869 . S
C837 C239 0.857 . S
C845 C583 0.865 . S
C869 C642 0.851 . S
C877 C298 0.877 . S
C901 C111 0.849 . S
C909 C357 0.878 . S
C933 C416 0.889 . S
C941 C170 0.874 . S
C965 C52 0.892 . S
C973 C475 0.871 . S
C997 C534 0.873 . S
C1005 C347 0.880 . S
C1029 C593 0.856 . S
C1037 C229 0.868 . S
C1061 C288 0.893 . S
C1069 C652 0.868 . S
C1093 C300 1.675 . S
C1101 C5 1.667 . S
C1125 C64 1.656 . S
C1133 C182 1.671 . S
C1157 C123 1.653 . S
C1165 C241 1.662 . S
C1189 C359 1.670 . S
C1197 C654 1.672 . S
C1221 C418 1.675 . S
C1229 C536 1.668 . S
C1253 C477 1.674 . S
C1261 C595 1.666 . S
C1285 C33 1.788 . S
C1293 C387 1.779 . S
C1317 C92 1.804 . S
C1325 C446 1.769 . S
C1349 C151 1.794 . S
C1357 C505 1.773 . S
C1381 C210 1.766 . S
C1389 C564 1.788 . S
C1413 C623 1.778 . S
C1421 C269 1.779 . S
C1445 C328 1.762 . S
C1453 C682 1.789 . S
