# Generated by pormake.
# Topology wmi, (6)-cn, num edge types: 1
# Building blocks:
#     Node 0, Type 0, BuildingBlock: KUMBUR_clean_sbu_1, # of connection points: 6
#     Node 1, Type 0, BuildingBlock: KUMBUR_clean_sbu_1, # of connection points: 6
#     Node 2, Type 0, BuildingBlock: KUMBUR_clean_sbu_1, # of connection points: 6
#     Node 3, Type 0, BuildingBlock: KUMBUR_clean_sbu_1, # of connection points: 6
#     Node 4, Type 0, BuildingBlock: KUMBUR_clean_sbu_1, # of connection points: 6
#     Node 5, Type 0, BuildingBlock: KUMBUR_clean_sbu_1, # of connection points: 6
#     Node 6, Type 0, BuildingBlock: KUMBUR_clean_sbu_1, # of connection points: 6
#     Node 7, Type 0, BuildingBlock: KUMBUR_clean_sbu_1, # of connection points: 6
#     Node 8, Type 0, BuildingBlock: KUMBUR_clean_sbu_1, # of connection points: 6
#     Node 9, Type 0, BuildingBlock: KUMBUR_clean_sbu_1, # of connection points: 6
#     Node 10, Type 0, BuildingBlock: KUMBUR_clean_sbu_1, # of connection points: 6
#     Node 11, Type 0, BuildingBlock: KUMBUR_clean_sbu_1, # of connection points: 6
#     Node 12, Type 0, BuildingBlock: KUMBUR_clean_sbu_1, # of connection points: 6
#     Node 13, Type 0, BuildingBlock: KUMBUR_clean_sbu_1, # of connection points: 6
#     Node 14, Type 0, BuildingBlock: KUMBUR_clean_sbu_1, # of connection points: 6
#     Node 15, Type 0, BuildingBlock: KUMBUR_clean_sbu_1, # of connection points: 6
#     Node 16, Type 0, BuildingBlock: KUMBUR_clean_sbu_1, # of connection points: 6
#     Node 17, Type 0, BuildingBlock: KUMBUR_clean_sbu_1, # of connection points: 6
#     Edge 18, Type (0, 0), BuildingBlock: UVAHIK_clean_linker_0, # of connection points: 2
#     Edge 19, Type (0, 0), BuildingBlock: UVAHIK_clean_linker_0, # of connection points: 2
#     Edge 20, Type (0, 0), BuildingBlock: UVAHIK_clean_linker_0, # of connection points: 2
#     Edge 21, Type (0, 0), BuildingBlock: UVAHIK_clean_linker_0, # of connection points: 2
#     Edge 22, Type (0, 0), BuildingBlock: UVAHIK_clean_linker_0, # of connection points: 2
#     Edge 23, Type (0, 0), BuildingBlock: UVAHIK_clean_linker_0, # of connection points: 2
#     Edge 24, Type (0, 0), BuildingBlock: UVAHIK_clean_linker_0, # of connection points: 2
#     Edge 25, Type (0, 0), BuildingBlock: UVAHIK_clean_linker_0, # of connection points: 2
#     Edge 26, Type (0, 0), BuildingBlock: UVAHIK_clean_linker_0, # of connection points: 2
#     Edge 27, Type (0, 0), BuildingBlock: UVAHIK_clean_linker_0, # of connection points: 2
#     Edge 28, Type (0, 0), BuildingBlock: UVAHIK_clean_linker_0, # of connection points: 2
#     Edge 29, Type (0, 0), BuildingBlock: UVAHIK_clean_linker_0, # of connection points: 2
#     Edge 30, Type (0, 0), BuildingBlock: UVAHIK_clean_linker_0, # of connection points: 2
#     Edge 31, Type (0, 0), BuildingBlock: UVAHIK_clean_linker_0, # of connection points: 2
#     Edge 32, Type (0, 0), BuildingBlock: UVAHIK_clean_linker_0, # of connection points: 2
#     Edge 33, Type (0, 0), BuildingBlock: UVAHIK_clean_linker_0, # of connection points: 2
#     Edge 34, Type (0, 0), BuildingBlock: UVAHIK_clean_linker_0, # of connection points: 2
#     Edge 35, Type (0, 0), BuildingBlock: UVAHIK_clean_linker_0, # of connection points: 2
#     Edge 36, Type (0, 0), BuildingBlock: UVAHIK_clean_linker_0, # of connection points: 2
#     Edge 37, Type (0, 0), BuildingBlock: UVAHIK_clean_linker_0, # of connection points: 2
#     Edge 38, Type (0, 0), BuildingBlock: UVAHIK_clean_linker_0, # of connection points: 2
#     Edge 39, Type (0, 0), BuildingBlock: UVAHIK_clean_linker_0, # of connection points: 2
#     Edge 40, Type (0, 0), BuildingBlock: UVAHIK_clean_linker_0, # of connection points: 2
#     Edge 41, Type (0, 0), BuildingBlock: UVAHIK_clean_linker_0, # of connection points: 2
#     Edge 42, Type (0, 0), BuildingBlock: UVAHIK_clean_linker_0, # of connection points: 2
#     Edge 43, Type (0, 0), BuildingBlock: UVAHIK_clean_linker_0, # of connection points: 2
#     Edge 44, Type (0, 0), BuildingBlock: UVAHIK_clean_linker_0, # of connection points: 2
#     Edge 45, Type (0, 0), BuildingBlock: UVAHIK_clean_linker_0, # of connection points: 2
#     Edge 46, Type (0, 0), BuildingBlock: UVAHIK_clean_linker_0, # of connection points: 2
#     Edge 47, Type (0, 0), BuildingBlock: UVAHIK_clean_linker_0, # of connection points: 2
#     Edge 48, Type (0, 0), BuildingBlock: UVAHIK_clean_linker_0, # of connection points: 2
#     Edge 49, Type (0, 0), BuildingBlock: UVAHIK_clean_linker_0, # of connection points: 2
#     Edge 50, Type (0, 0), BuildingBlock: UVAHIK_clean_linker_0, # of connection points: 2
#     Edge 51, Type (0, 0), BuildingBlock: UVAHIK_clean_linker_0, # of connection points: 2
#     Edge 52, Type (0, 0), BuildingBlock: UVAHIK_clean_linker_0, # of connection points: 2
#     Edge 53, Type (0, 0), BuildingBlock: UVAHIK_clean_linker_0, # of connection points: 2
#     Edge 54, Type (0, 0), BuildingBlock: UVAHIK_clean_linker_0, # of connection points: 2
#     Edge 55, Type (0, 0), BuildingBlock: UVAHIK_clean_linker_0, # of connection points: 2
#     Edge 56, Type (0, 0), BuildingBlock: UVAHIK_clean_linker_0, # of connection points: 2
#     Edge 57, Type (0, 0), BuildingBlock: UVAHIK_clean_linker_0, # of connection points: 2
#     Edge 58, Type (0, 0), BuildingBlock: UVAHIK_clean_linker_0, # of connection points: 2
#     Edge 59, Type (0, 0), BuildingBlock: UVAHIK_clean_linker_0, # of connection points: 2
#     Edge 60, Type (0, 0), BuildingBlock: UVAHIK_clean_linker_0, # of connection points: 2
#     Edge 61, Type (0, 0), BuildingBlock: UVAHIK_clean_linker_0, # of connection points: 2
#     Edge 62, Type (0, 0), BuildingBlock: UVAHIK_clean_linker_0, # of connection points: 2
#     Edge 63, Type (0, 0), BuildingBlock: UVAHIK_clean_linker_0, # of connection points: 2
#     Edge 64, Type (0, 0), BuildingBlock: UVAHIK_clean_linker_0, # of connection points: 2
#     Edge 65, Type (0, 0), BuildingBlock: UVAHIK_clean_linker_0, # of connection points: 2
#     Edge 66, Type (0, 0), BuildingBlock: UVAHIK_clean_linker_0, # of connection points: 2
#     Edge 67, Type (0, 0), BuildingBlock: UVAHIK_clean_linker_0, # of connection points: 2
#     Edge 68, Type (0, 0), BuildingBlock: UVAHIK_clean_linker_0, # of connection points: 2
#     Edge 69, Type (0, 0), BuildingBlock: UVAHIK_clean_linker_0, # of connection points: 2
#     Edge 70, Type (0, 0), BuildingBlock: UVAHIK_clean_linker_0, # of connection points: 2
#     Edge 71, Type (0, 0), BuildingBlock: UVAHIK_clean_linker_0, # of connection points: 2
# Relax obj value: 0.064
# Max RMSD: 0.171
# Mean RMSD: 0.171
data_MOF--net-wmi--node1-KUMBUR_clean_sbu_1--edge1-UVAHIK_clean_linker_0
_symmetry_space_group_name_H-M    P1
_symmetry_Int_Tables_number       1
_symmetry_cell_setting            triclinic
loop_
_symmetry_equiv_pos_as_xyz
'x, y, z'
_cell_length_a     47.875605
_cell_length_b     47.887496
_cell_length_c     106.09455
_cell_angle_alpha  90.022654
_cell_angle_beta   90.020079
_cell_angle_gamma 120.04634
loop_
_atom_site_label
_atom_site_type_symbol
_atom_site_fract_x
_atom_site_fract_y
_atom_site_fract_z
_atom_type_partial_charge
Tb0 Tb 0.4367 0.99511 0.08772 0.0
C1 C 0.55944 0.00991 0.11097 0.0
N2 N 0.54135 0.02291 0.11483 0.0
C3 C 0.54176 1.00573 0.13601 0.0
C4 C 0.56811 0.99284 0.11941 0.0
C5 C 0.53351 0.02223 0.12725 0.0
C6 C 0.55881 0.99065 0.13205 0.0
C7 C 0.58675 0.99947 0.09398 0.0
C8 C 0.56852 0.01318 0.09841 0.0
C9 C 0.59471 0.98162 0.10226 0.0
C10 C 0.58551 0.9784 0.11496 0.0
Tb11 Tb 0.52917 0.04911 0.09986 0.0
N12 N 0.5601 0.0304 0.09064 0.0
C13 C 0.59693 1.00461 0.08141 0.0
C14 C 0.57264 0.03792 0.07872 0.0
C15 C 0.59035 0.02442 0.07383 0.0
H16 H 0.52081 0.03426 0.13041 0.0
H17 H 0.59947 0.02985 0.06428 0.0
H18 H 0.4421 0.98918 0.05647 0.0
H19 H 0.36538 0.03196 0.11462 0.0
H20 H 0.56999 0.055 0.07298 0.0
H21 H 0.61087 0.99439 0.07762 0.0
H22 H 0.39618 1.00383 0.11093 0.0
H23 H 0.53502 1.00471 0.1458 0.0
H24 H 0.60836 0.97058 0.09898 0.0
H25 H 0.59206 0.96481 0.12126 0.0
H26 H 0.43485 0.0145 0.03752 0.0
H27 H 0.56498 0.97772 0.13885 0.0
H28 H 0.35769 0.06185 0.09718 0.0
N29 N 0.42778 0.01402 0.06921 0.0
C30 C 0.41266 0.0315 0.07031 0.0
C31 C 0.42906 0.02002 0.04672 0.0
C32 C 0.40653 0.04529 0.0597 0.0
C33 C 0.43403 1.00639 0.05753 0.0
C34 C 0.41582 0.0401 0.04782 0.0
N35 N 0.40699 0.01914 0.09189 0.0
C36 C 0.39327 0.01723 0.10338 0.0
C37 C 0.38385 0.04985 0.08361 0.0
C38 C 0.40133 0.03366 0.08203 0.0
C39 C 0.37133 0.04972 0.09556 0.0
C40 C 0.37566 0.03291 0.10544 0.0
H41 H 0.41158 0.05029 0.03941 0.0
H42 H 0.38561 0.07377 0.05322 0.0
H43 H 0.36581 0.07783 0.0742 0.0
O44 O 0.40319 0.95345 0.0976 0.0
O45 O 0.45565 0.04527 0.09426 0.0
O46 O 0.50803 0.07015 0.08768 0.0
O47 O 0.39861 0.9576 0.07768 0.0
O48 O 0.44653 0.99413 0.1077 0.0
O49 O 0.49078 0.0436 0.11337 0.0
O50 O 0.57893 0.08301 0.09974 0.0
O51 O 0.49978 0.99758 0.10409 0.0
O52 O 0.46908 0.97539 0.08646 0.0
O53 O 0.54672 0.09031 0.11144 0.0
O54 O 0.52054 0.04967 0.07924 0.0
O55 O 0.47505 1.00007 0.07503 0.0
C56 C 0.482 0.07118 0.0905 0.0
C57 C 0.35092 0.92391 0.08882 0.0
C58 C 0.29919 0.87384 0.09077 0.0
C59 C 0.28343 0.89191 0.08962 0.0
C60 C 0.33473 0.94137 0.08772 0.0
C61 C 0.30113 0.92539 0.0882 0.0
C62 C 0.33318 0.89032 0.09045 0.0
C63 C 0.46202 0.01792 0.11578 0.0
C64 C 0.38611 0.93977 0.08759 0.0
C65 C 0.3903 0.06272 0.06125 0.0
C66 C 0.37895 0.06497 0.07319 0.0
C67 C 0.48752 0.97495 0.09551 0.0
C68 C 0.5937 0.13714 0.10364 0.0
C69 C 0.64461 0.18639 0.09845 0.0
C70 C 0.62715 0.20267 0.09693 0.0
C71 C 0.57714 0.15416 0.10205 0.0
C72 C 0.62751 0.15342 0.10186 0.0
C73 C 0.5938 0.18665 0.09868 0.0
C74 C 0.50225 0.02557 0.07149 0.0
C75 C 0.57624 0.10268 0.10735 0.0
H76 H 0.25736 0.88018 0.08953 0.0
H77 H 0.34794 0.96717 0.08626 0.0
H78 H 0.2887 0.93893 0.08724 0.0
H79 H 0.34599 0.8771 0.0914 0.0
H80 H 0.63935 0.2281 0.09462 0.0
H81 H 0.55136 0.14248 0.10353 0.0
H82 H 0.64037 0.14032 0.10304 0.0
H83 H 0.58081 0.1996 0.09754 0.0
Tb84 Tb 0.05652 0.46088 0.08433 0.0
C85 C 0.055 0.57333 0.10893 0.0
N86 N 0.04067 0.54306 0.11379 0.0
C87 C 0.06356 0.56434 0.13408 0.0
C88 C 0.07456 0.60045 0.11647 0.0
C89 C 0.04425 0.53819 0.12623 0.0
C90 C 0.07889 0.59561 0.12917 0.0
C91 C 0.06359 0.60805 0.09103 0.0
C92 C 0.04977 0.57693 0.09634 0.0
C93 C 0.08379 0.63516 0.09841 0.0
C94 C 0.08917 0.63137 0.11111 0.0
Tb95 Tb 1.00938 0.50215 0.10028 0.0
N96 N 0.03014 0.55008 0.08949 0.0
C97 C 0.05583 0.61108 0.0786 0.0
C98 C 0.01961 0.55348 0.07791 0.0
C99 C 0.03311 0.58372 0.07213 0.0
H100 H 0.03215 0.51415 0.13014 0.0
H101 H 0.02536 0.58598 0.06278 0.0
H102 H 0.08108 0.4932 0.05601 0.0
H103 H 0.99886 0.33779 0.10061 0.0
H104 H 1.00006 0.5333 0.07315 0.0
H105 H 0.06597 0.63453 0.07416 0.0
H106 H 0.02896 0.39708 0.10307 0.0
H107 H 0.06652 0.56038 0.14391 0.0
H108 H 0.09487 0.65921 0.09444 0.0
H109 H 0.10447 0.65252 0.11672 0.0
H110 H 0.07161 0.47402 0.03394 0.0
H111 H 0.09384 0.61582 0.13527 0.0
H112 H 0.98364 0.31358 0.07931 0.0
N113 N 0.05159 0.44634 0.0637 0.0
C114 C 0.03399 0.41419 0.06142 0.0
C115 C 0.06073 0.45695 0.04158 0.0
C116 C 0.02828 0.40208 0.04903 0.0
C117 C 0.06587 0.46776 0.05407 0.0
C118 C 0.04147 0.424 0.03903 0.0
N119 N 0.02976 0.4061 0.0834 0.0
C120 C 0.0224 0.38672 0.09376 0.0
C121 C 1.00604 0.35972 0.06974 0.0
C122 C 0.02306 0.39331 0.07161 0.0
C123 C 0.99682 0.33958 0.08034 0.0
C124 C 1.00537 0.35316 0.09239 0.0
H125 H 0.03759 0.41569 0.02935 0.0
H126 H 1.00545 0.35873 0.0376 0.0
H127 H 0.98596 0.32164 0.05574 0.0
O128 O 0.09756 0.47329 0.09549 0.0
O129 O 1.00326 0.4295 0.08573 0.0
O130 O 0.98313 0.44995 0.101 0.0
O131 O 0.09408 0.45573 0.07659 0.0
O132 O 0.05136 0.45681 0.1047 0.0
O133 O 0.01558 0.47083 0.11401 0.0
O134 O 0.96686 0.50267 0.09554 0.0
O135 O 0.06162 0.52099 0.10287 0.0
O136 O 0.07625 0.51292 0.08355 0.0
O137 O 0.98023 0.50406 0.1148 0.0
O138 O 0.99928 0.48601 0.08021 0.0
O139 O 0.04902 0.4958 0.07438 0.0
C140 C 0.98028 0.42699 0.0934 0.0
C141 C 0.14484 0.4967 0.08321 0.0
C142 C 0.20367 0.52415 0.08427 0.0
C143 C 0.20512 0.54953 0.07706 0.0
C144 C 0.14704 0.52221 0.07593 0.0
C145 C 0.177 0.54854 0.07297 0.0
C146 C 0.17321 0.49765 0.08735 0.0
C147 C 0.03567 0.45923 0.11447 0.0
C148 C 0.11292 0.46907 0.08622 0.0
C149 C 1.01033 0.36856 0.04706 0.0
C150 C 0.99927 0.34743 0.0574 0.0
C151 C 0.08273 0.53056 0.09371 0.0
C152 C 0.95382 0.53311 0.1092 0.0
C153 C 0.91836 0.55582 0.10669 0.0
C154 C 0.9427 0.58515 0.11168 0.0
C155 C 0.97732 0.56241 0.11453 0.0
C156 C 0.92401 0.52975 0.10545 0.0
C157 C 0.97188 0.58829 0.11565 0.0
C158 C 0.02015 0.4896 0.07135 0.0
C159 C 0.96054 0.5065 0.10708 0.0
H160 H 0.22808 0.56993 0.0743 0.0
H161 H 0.12564 0.52163 0.07236 0.0
H162 H 0.17843 0.56807 0.06735 0.0
H163 H 0.17153 0.47793 0.09295 0.0
H164 H 0.93881 0.60544 0.11279 0.0
H165 H 0.99986 0.56539 0.11791 0.0
H166 H 0.9055 0.50715 0.10145 0.0
H167 H 0.9903 0.61083 0.11968 0.0
Tb168 Tb 0.59321 0.61583 0.09024 0.0
C169 C 0.4823 0.4939 0.11379 0.0
N170 N 0.51371 0.5099 0.11752 0.0
C171 C 0.49759 0.50682 0.13908 0.0
C172 C 0.45721 0.48445 0.12263 0.0
C173 C 0.52171 0.51607 0.12997 0.0
C174 C 0.46521 0.49102 0.1354 0.0
C175 C 0.44325 0.47381 0.09672 0.0
C176 C 0.47548 0.48875 0.10095 0.0
C177 C 0.41815 0.46424 0.10552 0.0
C178 C 0.4251 0.46946 0.11842 0.0
Tb179 Tb 0.55026 0.52199 0.10186 0.0
N180 N 0.50045 0.49927 0.09262 0.0
C181 C 0.4372 0.46905 0.08378 0.0
C182 C 0.49439 0.49252 0.08008 0.0
C183 C 0.46285 0.47807 0.07544 0.0
H184 H 0.54661 0.52768 0.13293 0.0
H185 H 0.45831 0.47332 0.06546 0.0
H186 H 0.57618 0.61532 0.05984 0.0
H187 H 0.70518 0.67799 0.1159 0.0
H188 H 0.51336 0.49686 0.07361 0.0
H189 H 0.41278 0.45779 0.08015 0.0
H190 H 0.64578 0.64729 0.11349 0.0
H191 H 0.50397 0.5118 0.14894 0.0
H192 H 0.39327 0.45289 0.10242 0.0
H193 H 0.40547 0.46215 0.12507 0.0
H194 H 0.60622 0.63028 0.03973 0.0
H195 H 0.4466 0.48412 0.14249 0.0
H196 H 0.74011 0.69407 0.09696 0.0
N197 N 0.61811 0.6309 0.07111 0.0
C198 C 0.65087 0.64729 0.07142 0.0
C199 C 0.61908 0.63489 0.04857 0.0
C200 C 0.66914 0.65733 0.06025 0.0
C201 C 0.60207 0.62583 0.05995 0.0
C202 C 0.65277 0.65038 0.04871 0.0
N203 N 0.64746 0.64445 0.09356 0.0
C204 C 0.66093 0.65377 0.10525 0.0
C205 C 0.69996 0.67268 0.08389 0.0
C206 C 0.6661 0.65496 0.08304 0.0
C207 C 0.71412 0.6805 0.09589 0.0
C208 C 0.69449 0.67136 0.10661 0.0
H209 H 0.66591 0.6576 0.03989 0.0
H210 H 0.71753 0.68217 0.0525 0.0
H211 H 0.74451 0.69555 0.07321 0.0
O212 O 0.58844 0.64853 0.102 0.0
O213 O 0.62628 0.59666 0.09237 0.0
O214 O 0.60205 0.54382 0.10014 0.0
O215 O 0.59322 0.65581 0.08199 0.0
O216 O 0.58156 0.60306 0.11003 0.0
O217 O 0.58417 0.55764 0.11569 0.0
O218 O 0.53728 0.47566 0.09516 0.0
O219 O 0.52865 0.55251 0.10528 0.0
O220 O 0.54136 0.58336 0.08752 0.0
O221 O 0.55279 0.48896 0.11425 0.0
O222 O 0.56719 0.53283 0.08199 0.0
O223 O 0.56142 0.57671 0.0778 0.0
C224 C 0.62699 0.57085 0.09621 0.0
C225 C 0.56147 0.67285 0.09267 0.0
C226 C 0.54222 0.71091 0.09456 0.0
C227 C 0.51027 0.68535 0.09373 0.0
C228 C 0.52948 0.64776 0.09151 0.0
C229 C 0.50398 0.65388 0.09212 0.0
C230 C 0.56789 0.70466 0.09401 0.0
C231 C 0.59037 0.58752 0.1178 0.0
C232 C 0.58801 0.66584 0.09262 0.0
C233 C 0.70302 0.6744 0.06099 0.0
C234 C 0.71839 0.68208 0.07278 0.0
C235 C 0.52097 0.56687 0.09657 0.0
C236 C 0.56391 0.45111 0.10456 0.0
C237 C 0.56771 0.40254 0.10137 0.0
C238 C 0.60156 0.42168 0.10196 0.0
C239 C 0.59763 0.4696 0.10492 0.0
C240 C 0.54895 0.41753 0.10278 0.0
C241 C 0.61633 0.45495 0.10369 0.0
C242 C 0.56614 0.55338 0.07396 0.0
C243 C 0.5442 0.4667 0.10569 0.0
H244 H 0.49027 0.68989 0.09408 0.0
H245 H 0.5243 0.62354 0.09009 0.0
H246 H 0.47935 0.63422 0.09129 0.0
H247 H 0.59258 0.72434 0.09474 0.0
H248 H 0.61668 0.41089 0.10117 0.0
H249 H 0.60942 0.49533 0.10614 0.0
H250 H 0.52286 0.40328 0.10226 0.0
H251 H 0.64238 0.46945 0.10407 0.0
Tb252 Tb 1.00745 0.44046 0.92449 0.0
C253 C 0.01858 0.5569 0.89705 0.0
N254 N 0.03203 0.539 0.89346 0.0
C255 C 0.01373 0.53694 0.87227 0.0
C256 C 1.00147 0.56497 0.88838 0.0
C257 C 0.03025 0.52928 0.88124 0.0
C258 C 0.99919 0.55477 0.87586 0.0
C259 C 1.00667 0.58386 0.91375 0.0
C260 C 0.02098 0.56594 0.90961 0.0
C261 C 0.98935 0.5918 0.90518 0.0
C262 C 0.98682 0.58243 0.89252 0.0
Tb263 Tb 0.05899 0.52869 0.90872 0.0
N264 N 0.03725 0.55711 0.91773 0.0
C265 C 1.01047 0.59358 0.92636 0.0
C266 C 0.0435 0.56922 0.92971 0.0
C267 C 0.02947 0.58672 0.93431 0.0
H268 H 0.0418 0.51588 0.87837 0.0
H269 H 0.03392 0.59553 0.94392 0.0
H270 H 0.98987 0.44937 0.95393 0.0
H271 H 0.06088 0.37504 0.90415 0.0
H272 H 0.06025 0.56677 0.9357 0.0
H273 H 0.99977 0.60729 0.92994 0.0
H274 H 0.033 0.40671 0.90372 0.0
H275 H 0.01226 0.52914 0.8626 0.0
H276 H 0.97795 0.60529 0.90823 0.0
H277 H 0.97335 0.58868 0.88602 0.0
H278 H 1.00056 0.43615 0.97524 0.0
H279 H 0.98624 0.56049 0.86891 0.0
H280 H 0.07572 0.36106 0.92459 0.0
N281 N 0.01493 0.42911 0.94461 0.0
C282 C 0.03063 0.41223 0.9458 0.0
C283 C 1.00943 0.42954 0.96705 0.0
C284 C 0.03706 0.40393 0.95774 0.0
C285 C 1.00366 0.43726 0.95498 0.0
C286 C 0.02654 0.41314 0.96845 0.0
N287 N 0.03336 0.4116 0.92362 0.0
C288 C 0.03964 0.40095 0.91263 0.0
C289 C 0.05546 0.38461 0.93568 0.0
C290 C 0.03967 0.40266 0.93494 0.0
C291 C 0.06354 0.37498 0.92444 0.0
C292 C 0.05529 0.3829 0.91287 0.0
H293 H 0.031 0.40723 0.97782 0.0
H294 H 0.05865 0.37987 0.96767 0.0
H295 H 0.07477 0.36298 0.94836 0.0
O296 O 0.96969 0.40455 0.91371 0.0
O297 O 0.06063 0.46092 0.92424 0.0
O298 O 0.08335 0.50098 0.90888 0.0
O299 O 0.9668 0.40394 0.93389 0.0
O300 O 1.00679 0.44456 0.90401 0.0
O301 O 0.05334 0.489 0.89626 0.0
O302 O 0.09939 0.57334 0.9139 0.0
O303 O 1.00653 0.49878 0.9058 0.0
O304 O 0.98905 0.4741 0.92481 0.0
O305 O 0.09266 0.55685 0.89481 0.0
O306 O 0.06666 0.52258 0.92905 0.0
O307 O 0.01583 0.48325 0.93449 0.0
C308 C 0.08464 0.48064 0.91681 0.0
C309 C 0.91832 0.38479 0.92263 0.0
C310 C 0.86104 0.34784 0.91929 0.0
C311 C 0.85545 0.37395 0.91975 0.0
C312 C 0.9121 0.4104 0.9235 0.0
C313 C 0.8809 0.40507 0.92193 0.0
C314 C 0.89258 0.35332 0.92072 0.0
C315 C 0.02881 0.45903 0.8952 0.0
C316 C 0.95152 0.39081 0.92349 0.0
C317 C 0.05333 0.38638 0.95857 0.0
C318 C 0.06248 0.37672 0.94757 0.0
C319 C 0.98483 0.4875 0.91474 0.0
C320 C 0.11749 0.61335 0.89799 0.0
C321 C 0.15293 0.67216 0.89845 0.0
C322 C 0.13369 0.67474 0.88899 0.0
C323 C 0.09877 0.61695 0.88864 0.0
C324 C 0.14456 0.6411 0.90292 0.0
C325 C 0.10678 0.64742 0.88423 0.0
C326 C 0.04485 0.50557 0.93769 0.0
C327 C 0.10953 0.58083 0.90238 0.0
H328 H 0.83126 0.3701 0.91871 0.0
H329 H 0.93123 0.43446 0.92547 0.0
H330 H 0.87643 0.42507 0.92251 0.0
H331 H 0.89706 0.33328 0.92023 0.0
H332 H 0.13972 0.69792 0.88503 0.0
H333 H 0.07823 0.59626 0.88451 0.0
H334 H 0.15893 0.63843 0.9102 0.0
H335 H 0.09232 0.64984 0.87694 0.0
Tb336 Tb 0.62687 0.59122 0.92083 0.0
C337 C 0.50177 0.47833 0.90181 0.0
N338 N 0.51877 0.50878 0.89716 0.0
C339 C 0.51514 0.48792 0.87632 0.0
C340 C 0.49208 0.45133 0.89394 0.0
C341 C 0.52444 0.51397 0.88452 0.0
C342 C 0.49921 0.45646 0.88106 0.0
C343 C 0.4777 0.44332 0.91982 0.0
C344 C 0.49479 0.4745 0.91458 0.0
C345 C 0.46879 0.41626 0.91211 0.0
C346 C 0.47585 0.42025 0.89919 0.0
Tb347 Tb 0.53276 0.54949 0.91126 0.0
N348 N 0.50395 0.5013 0.92174 0.0
C349 C 0.46946 0.44024 0.93259 0.0
C350 C 0.4932 0.49811 0.9339 0.0
C351 C 0.47671 0.46773 0.93959 0.0
H352 H 0.53632 0.53818 0.88078 0.0
H353 H 0.46904 0.46551 0.94931 0.0
H354 H 0.62677 0.58538 0.95229 0.0
H355 H 0.69204 0.69476 0.89091 0.0
H356 H 0.49638 0.51865 0.93923 0.0
H357 H 0.45643 0.41671 0.937 0.0
H358 H 0.66303 0.63659 0.89619 0.0
H359 H 0.52022 0.49211 0.86634 0.0
H360 H 0.45599 0.39212 0.91601 0.0
H361 H 0.46854 0.39916 0.89334 0.0
H362 H 0.63646 0.62099 0.97049 0.0
H363 H 0.49221 0.43634 0.87469 0.0
H364 H 0.70197 0.73515 0.9075 0.0
N365 N 0.63827 0.62213 0.93865 0.0
C366 C 0.65277 0.65447 0.93674 0.0
C367 C 0.64058 0.63069 0.96102 0.0
C368 C 0.66031 0.67613 0.94686 0.0
C369 C 0.63414 0.61032 0.95064 0.0
C370 C 0.65314 0.6637 0.95911 0.0
N371 N 0.65502 0.6442 0.91525 0.0
C372 C 0.6667 0.65409 0.90336 0.0
C373 C 0.6787 0.69932 0.92216 0.0
C374 C 0.66203 0.66599 0.92463 0.0
C375 C 0.68902 0.7097 0.90981 0.0
C376 C 0.6834 0.68697 0.9004 0.0
H377 H 0.65852 0.6795 0.96717 0.0
H378 H 0.68155 0.7265 0.95209 0.0
H379 H 0.69757 0.7468 0.93042 0.0
O380 O 0.65996 0.58324 0.91054 0.0
O381 O 0.6058 0.62105 0.91462 0.0
O382 O 0.55464 0.59349 0.92251 0.0
O383 O 0.66669 0.5941 0.9303 0.0
O384 O 0.61426 0.57813 0.90109 0.0
O385 O 0.56815 0.58135 0.89679 0.0
O386 O 0.48309 0.53359 0.91251 0.0
O387 O 0.56225 0.5277 0.90647 0.0
O388 O 0.59612 0.53893 0.92322 0.0
O389 O 0.51308 0.57036 0.89933 0.0
O390 O 0.5449 0.56177 0.9315 0.0
O391 O 0.59136 0.55892 0.93467 0.0
C392 C 0.57975 0.62053 0.91888 0.0
C393 C 0.71335 0.60848 0.91841 0.0
C394 C 0.7658 0.61189 0.9161 0.0
C395 C 0.78066 0.64576 0.91686 0.0
C396 C 0.72866 0.64217 0.9191 0.0
C397 C 0.76216 0.66068 0.91823 0.0
C398 C 0.73187 0.59347 0.91677 0.0
C399 C 0.59642 0.58459 0.89351 0.0
C400 C 0.67841 0.5883 0.92026 0.0
C401 C 0.6758 0.70946 0.94445 0.0
C402 C 0.68501 0.72103 0.93212 0.0
C403 C 0.57635 0.51867 0.91477 0.0
C404 C 0.46758 0.5719 0.90761 0.0
C405 C 0.41726 0.57124 0.91277 0.0
C406 C 0.4348 0.60518 0.91336 0.0
C407 C 0.48431 0.60571 0.90824 0.0
C408 C 0.43404 0.55477 0.90989 0.0
C409 C 0.468 0.62216 0.91116 0.0
C410 C 0.56463 0.55717 0.93885 0.0
C411 C 0.48439 0.55413 0.90425 0.0
H412 H 0.80665 0.66085 0.9167 0.0
H413 H 0.71489 0.65414 0.92057 0.0
H414 H 0.77391 0.68669 0.91889 0.0
H415 H 0.7197 0.56739 0.91614 0.0
H416 H 0.4228 0.61882 0.91524 0.0
H417 H 0.50993 0.61947 0.90634 0.0
H418 H 0.42113 0.52864 0.90944 0.0
H419 H 0.48107 0.64826 0.91156 0.0
Tb420 Tb 0.4732 0.05546 0.92153 0.0
C421 C 0.58194 0.04209 0.89859 0.0
N422 N 0.55113 0.0295 0.89441 0.0
C423 C 0.57025 0.04875 0.87356 0.0
C424 C 0.6083 0.05999 0.89051 0.0
C425 C 0.54486 0.03144 0.88199 0.0
C426 C 0.60211 0.0634 0.87787 0.0
C427 C 0.61842 0.0511 0.91594 0.0
C428 C 0.58681 0.03771 0.91115 0.0
C429 C 0.64486 0.06973 0.90801 0.0
C430 C 0.63982 0.07408 0.89532 0.0
Tb431 Tb 0.5116 1.00174 0.90882 0.0
N432 N 0.56058 0.01982 0.91857 0.0
C433 C 0.62252 0.04491 0.92848 0.0
C434 C 0.5647 0.01134 0.93045 0.0
C435 C 0.59555 0.02445 0.93568 0.0
H436 H 0.52032 0.01982 0.87858 0.0
H437 H 0.59853 0.01824 0.9452 0.0
H438 H 0.48443 0.06035 0.95275 0.0
H439 H 0.36578 0.02328 0.8948 0.0
H440 H 0.54453 0.99379 0.9359 0.0
H441 H 0.64641 0.05483 0.93253 0.0
H442 H 0.42464 0.0488 0.89842 0.0
H443 H 0.56524 0.05076 0.86376 0.0
H444 H 0.66931 0.0805 0.91157 0.0
H445 H 0.66044 0.08828 0.8893 0.0
H446 H 0.45159 0.03513 0.97166 0.0
H447 H 0.62172 0.07699 0.87134 0.0
H448 H 0.3277 0.99393 0.91219 0.0
N449 N 0.44512 0.03642 0.93998 0.0
C450 C 0.41249 0.01971 0.93887 0.0
C451 C 0.44028 0.03006 0.96246 0.0
C452 C 0.39242 1.00623 0.94947 0.0
C453 C 0.45901 0.04357 0.95166 0.0
C454 C 0.40683 0.01075 0.96134 0.0
N455 N 0.41954 0.03259 0.91734 0.0
C456 C 0.40809 0.03558 0.90593 0.0
C457 C 0.36554 1.00354 0.92564 0.0
C458 C 0.39918 0.01831 0.92718 0.0
C459 C 0.35343 1.0049 0.91377 0.0
C460 C 0.37484 0.02141 0.90392 0.0
H461 H 0.3923 1.00074 0.96974 0.0
H462 H 0.34288 0.97916 0.95595 0.0
H463 H 0.31932 0.97685 0.93505 0.0
O464 O 0.48145 0.09754 0.9119 0.0
O465 O 0.44118 1.00561 0.91467 0.0
O466 O 0.46811 0.97924 0.92032 0.0
O467 O 0.4739 0.09319 0.93187 0.0
O468 O 0.4848 0.0574 0.90157 0.0
O469 O 0.47914 0.00813 0.89543 0.0
O470 O 0.5267 0.96722 0.9091 0.0
O471 O 0.53445 0.05379 0.90532 0.0
O472 O 0.52517 0.07453 0.92319 0.0
O473 O 0.49036 0.96261 0.89616 0.0
O474 O 0.50041 0.99893 0.92931 0.0
O475 O 0.50568 0.04867 0.93409 0.0
C476 C 0.4413 0.97895 0.9176 0.0
C477 C 0.45863 0.12648 0.9212 0.0
C478 C 0.45541 0.17576 0.91936 0.0
C479 C 0.42184 0.15714 0.92135 0.0
C480 C 0.42521 0.10857 0.92311 0.0
C481 C 0.40695 0.12385 0.9231 0.0
C482 C 0.47362 0.15998 0.91924 0.0
C483 C 0.47621 0.03396 0.8933 0.0
C484 C 0.47854 0.1111 0.92204 0.0
C485 C 0.35873 0.98994 0.94793 0.0
C486 C 0.34531 0.98868 0.93604 0.0
C487 C 0.54449 0.07572 0.91418 0.0
C488 C 0.48811 0.91402 0.90314 0.0
C489 C 0.4876 0.86332 0.90757 0.0
C490 C 0.45365 0.84723 0.90762 0.0
C491 C 0.45425 0.89705 0.90316 0.0
C492 C 0.50475 0.89693 0.90525 0.0
C493 C 0.43723 0.86396 0.90544 0.0
C494 C 0.5059 0.02228 0.93739 0.0
C495 C 0.50624 0.9492 0.90056 0.0
H496 H 0.40703 0.1683 0.92185 0.0
H497 H 0.41329 0.08296 0.92489 0.0
H498 H 0.38118 0.10991 0.9247 0.0
H499 H 0.49946 0.17362 0.91769 0.0
H500 H 0.43962 0.82142 0.90912 0.0
H501 H 0.44083 0.90929 0.90131 0.0
H502 H 0.53091 0.90981 0.90519 0.0
H503 H 0.41113 0.85113 0.90541 0.0
Tb504 Tb 0.10698 0.33431 0.42121 0.0
C505 C 0.2247 0.34227 0.44615 0.0
N506 N 0.20888 0.35768 0.45003 0.0
C507 C 0.20892 0.34083 0.4713 0.0
C508 C 0.23298 0.32515 0.45473 0.0
C509 C 0.20125 0.35757 0.46244 0.0
C510 C 0.22474 0.32446 0.46743 0.0
C511 C 0.24911 0.32838 0.4291 0.0
C512 C 0.23232 0.34367 0.43348 0.0
C513 C 0.25701 0.31081 0.43755 0.0
C514 C 0.249 0.30924 0.45034 0.0
Tb515 Tb 0.19718 0.38393 0.43484 0.0
N516 N 0.22393 0.36063 0.42554 0.0
C517 C 0.25809 0.3318 0.41641 0.0
C518 C 0.23579 0.3668 0.41352 0.0
C519 C 0.25197 0.35164 0.40865 0.0
H520 H 0.18943 0.37054 0.46554 0.0
H521 H 0.26045 0.35597 0.39901 0.0
H522 H 0.10984 0.32181 0.39062 0.0
H523 H 0.05173 0.39034 0.4476 0.0
H524 H 0.23411 0.38426 0.40768 0.0
H525 H 0.27092 0.32036 0.41265 0.0
H526 H 0.07875 0.35853 0.44492 0.0
H527 H 0.20269 0.34065 0.48112 0.0
H528 H 0.26961 0.29863 0.43432 0.0
H529 H 0.25539 0.29574 0.45676 0.0
H530 H 0.09619 0.33908 0.37075 0.0
H531 H 0.23062 0.31149 0.47432 0.0
H532 H 0.03656 0.41064 0.42887 0.0
N533 N 0.0933 0.34659 0.40229 0.0
C534 C 0.07806 0.36403 0.40283 0.0
C535 C 0.09113 0.34645 0.37971 0.0
C536 C 0.06908 0.3738 0.39176 0.0
C537 C 0.09935 0.33715 0.39097 0.0
C538 C 0.07606 0.365 0.3801 0.0
N539 N 0.0811 0.36258 0.42497 0.0
C540 C 0.07327 0.36801 0.43672 0.0
C541 C 0.05549 0.38992 0.4156 0.0
C542 C 0.07145 0.37207 0.41456 0.0
C543 C 0.04882 0.39697 0.42765 0.0
C544 C 0.05746 0.38568 0.43825 0.0
H545 H 0.06961 0.37209 0.37137 0.0
H546 H 0.04637 0.39973 0.38432 0.0
H547 H 0.0344 0.41377 0.4052 0.0
O548 O 0.06921 0.29702 0.43154 0.0
O549 O 0.13296 0.38765 0.41947 0.0
O550 O 0.1684 0.40729 0.43626 0.0
O551 O 0.07157 0.29419 0.41133 0.0
O552 O 0.11369 0.33309 0.44158 0.0
O553 O 0.15973 0.38011 0.44815 0.0
O554 O 0.23775 0.4261 0.42795 0.0
O555 O 0.16706 0.33175 0.4384 0.0
O556 O 0.13706 0.31184 0.42049 0.0
O557 O 0.23101 0.41713 0.44774 0.0
O558 O 0.18852 0.38772 0.41437 0.0
O559 O 0.14595 0.33736 0.4099 0.0
C560 C 0.15087 0.4106 0.42756 0.0
C561 C 0.02023 0.26586 0.42057 0.0
C562 C 0.96732 0.21706 0.4205 0.0
C563 C 0.95331 0.23602 0.41751 0.0
C564 C 1.0059 0.28437 0.41769 0.0
C565 C 0.97251 0.26945 0.41621 0.0
C566 C 1.00097 0.23245 0.42212 0.0
C567 C 0.13079 0.35471 0.45023 0.0
C568 C 0.05527 0.28029 0.42145 0.0
C569 C 0.05344 0.39193 0.39272 0.0
C570 C 0.04663 0.39993 0.40461 0.0
C571 C 0.15305 0.30894 0.42996 0.0
C572 C 0.28481 0.44357 0.44016 0.0
C573 C 0.34227 0.48044 0.43642 0.0
C574 C 0.34906 0.45713 0.44118 0.0
C575 C 0.29252 0.42124 0.4453 0.0
C576 C 0.30999 0.47358 0.43588 0.0
C577 C 0.32432 0.42781 0.44565 0.0
C578 C 0.17104 0.36437 0.40627 0.0
C579 C 0.25071 0.43539 0.43903 0.0
H580 H 0.9276 0.22507 0.41593 0.0
H581 H 0.02043 0.31015 0.41645 0.0
H582 H 0.9615 0.28377 0.41388 0.0
H583 H 0.01239 0.21854 0.42458 0.0
H584 H 0.37371 0.46201 0.44174 0.0
H585 H 0.27413 0.39883 0.44919 0.0
H586 H 0.30455 0.49135 0.43211 0.0
H587 H 0.32983 0.41023 0.44955 0.0
Tb588 Tb 0.72766 0.80271 0.41945 0.0
C589 C 0.71687 0.91005 0.44705 0.0
N590 N 0.70076 0.87811 0.44996 0.0
C591 C 0.71154 0.89067 0.47192 0.0
C592 C 0.73153 0.93364 0.45652 0.0
C593 C 0.69751 0.86811 0.46219 0.0
C594 C 0.72871 0.92357 0.46907 0.0
C595 C 0.73692 0.95183 0.43104 0.0
C596 C 0.71974 0.91897 0.43444 0.0
C597 C 0.75143 0.97546 0.44046 0.0
C598 C 0.7488 0.96639 0.45316 0.0
Tb599 Tb 0.67861 0.84397 0.43333 0.0
N600 N 0.70637 0.89538 0.42551 0.0
C601 C 0.73905 0.95998 0.41829 0.0
C602 C 0.70647 0.90341 0.41315 0.0
C603 C 0.72337 0.93566 0.40933 0.0
H604 H 0.68368 0.84281 0.46454 0.0
H605 H 0.7238 0.94177 0.39948 0.0
H606 H 0.74101 0.81948 0.38899 0.0
H607 H 0.67534 0.69067 0.4452 0.0
H608 H 0.6926 0.88545 0.40623 0.0
H609 H 0.75213 0.98495 0.41529 0.0
H610 H 0.70471 0.74984 0.44282 0.0
H611 H 0.70898 0.88268 0.4816 0.0
H612 H 0.76485 1.00082 0.43802 0.0
H613 H 0.76033 0.9849 0.4603 0.0
H614 H 0.72512 0.78922 0.36892 0.0
H615 H 0.73963 0.94096 0.47663 0.0
H616 H 0.65662 0.65571 0.42627 0.0
N617 N 0.71662 0.77754 0.40038 0.0
C618 C 0.70013 0.74481 0.40072 0.0
C619 C 0.71773 0.77642 0.3778 0.0
C620 C 0.6913 0.72645 0.38955 0.0
C621 C 0.72622 0.79353 0.38917 0.0
C622 C 0.70001 0.74271 0.37799 0.0
N623 N 0.70102 0.74845 0.42287 0.0
C624 C 0.69603 0.73491 0.43455 0.0
C625 C 0.67591 0.69583 0.41321 0.0
C626 C 0.69244 0.72969 0.41235 0.0
C627 C 0.66929 0.6817 0.42519 0.0
C628 C 0.67971 0.70135 0.4359 0.0
H629 H 0.69361 0.7295 0.36917 0.0
H630 H 0.66723 0.67802 0.38183 0.0
H631 H 0.65383 0.65121 0.40255 0.0
O632 O 0.76544 0.80448 0.43024 0.0
O633 O 0.67433 0.77217 0.41949 0.0
O634 O 0.65228 0.79174 0.43427 0.0
O635 O 0.76848 0.80789 0.41 0.0
O636 O 0.7293 0.81286 0.43954 0.0
O637 O 0.6822 0.81013 0.44665 0.0
O638 O 0.64391 0.85363 0.42558 0.0
O639 O 0.73114 0.86677 0.43612 0.0
O640 O 0.74839 0.85491 0.4179 0.0
O641 O 0.64251 0.84247 0.44519 0.0
O642 O 0.67154 0.82878 0.41317 0.0
O643 O 0.72137 0.83649 0.40805 0.0
C644 C 0.65065 0.76897 0.42685 0.0
C645 C 0.79749 0.78659 0.42003 0.0
C646 C 0.84658 0.78305 0.42118 0.0
C647 C 0.82823 0.75015 0.41793 0.0
C648 C 0.77967 0.75379 0.41693 0.0
C649 C 0.79502 0.73566 0.41594 0.0
C650 C 0.83072 0.801 0.4223 0.0
C651 C 0.70709 0.80549 0.4482 0.0
C652 C 0.78249 0.80679 0.42032 0.0
C653 C 0.67433 0.6926 0.39031 0.0
C654 C 0.6667 0.67732 0.40211 0.0
C655 C 0.75325 0.87427 0.42744 0.0
C656 C 0.59315 0.82974 0.43527 0.0
C657 C 0.54103 0.82687 0.43236 0.0
C658 C 0.52593 0.79297 0.43277 0.0
C659 C 0.57757 0.79603 0.43546 0.0
C660 C 0.57488 0.84514 0.43371 0.0
C661 C 0.54411 0.77775 0.43428 0.0
C662 C 0.69323 0.8322 0.4047 0.0
C663 C 0.62852 0.84916 0.43613 0.0
H664 H 0.83953 0.73562 0.41667 0.0
H665 H 0.75411 0.74232 0.41511 0.0
H666 H 0.78121 0.71039 0.41342 0.0
H667 H 0.8441 0.82628 0.4249 0.0
H668 H 0.49995 0.77813 0.43204 0.0
H669 H 0.59135 0.78396 0.43645 0.0
H670 H 0.58711 0.87125 0.43328 0.0
H671 H 0.53221 0.75168 0.43452 0.0
Tb672 Tb 0.26066 0.95543 0.42283 0.0
C673 C 0.15171 0.83348 0.44786 0.0
N674 N 0.18361 0.84849 0.45081 0.0
C675 C 0.17089 0.84339 0.47283 0.0
C676 C 0.12805 0.82334 0.45735 0.0
C677 C 0.19351 0.85316 0.46309 0.0
C678 C 0.13803 0.82851 0.46996 0.0
C679 C 0.11009 0.81469 0.43179 0.0
C680 C 0.14292 0.82953 0.43521 0.0
C681 C 0.0864 0.8044 0.44122 0.0
C682 C 0.09535 0.80877 0.45397 0.0
Tb683 Tb 0.21791 0.86281 0.43414 0.0
N684 N 0.16659 0.84084 0.42631 0.0
C685 C 0.10206 0.81067 0.41899 0.0
C686 C 0.15862 0.83482 0.41385 0.0
C687 C 0.12642 0.82038 0.40999 0.0
H688 H 0.21877 0.86398 0.46543 0.0
H689 H 0.12038 0.81621 0.40008 0.0
H690 H 0.24485 0.95809 0.39257 0.0
H691 H 0.37217 0.00934 0.44898 0.0
H692 H 0.17657 0.83968 0.40683 0.0
H693 H 0.07713 0.79949 0.41597 0.0
H694 H 0.31307 0.9813 0.44635 0.0
H695 H 0.17881 0.84723 0.48256 0.0
H696 H 0.06107 0.79313 0.43876 0.0
H697 H 0.0768 0.80089 0.46113 0.0
H698 H 0.27545 0.97506 0.37261 0.0
H699 H 0.12059 0.82107 0.47754 0.0
H700 H 0.40758 0.0277 0.43018 0.0
N701 N 0.28636 0.97251 0.40393 0.0
C702 C 0.31908 0.98804 0.40435 0.0
C703 C 0.28803 0.97863 0.38147 0.0
C704 C 0.33769 0.99905 0.39328 0.0
C705 C 0.27069 0.96846 0.39275 0.0
C706 C 0.3217 0.9938 0.38172 0.0
N707 N 0.31489 0.9817 0.42639 0.0
C708 C 0.32818 0.98828 0.43814 0.0
C709 C 0.36777 0.00974 0.41698 0.0
C710 C 0.33392 0.99324 0.416 0.0
C711 C 0.38162 0.01507 0.429 0.0
C712 C 0.36171 1.00461 0.43963 0.0
H713 H 0.33511 1.00181 0.37298 0.0
H714 H 0.3863 0.02366 0.38574 0.0
H715 H 0.41264 0.03309 0.40651 0.0
O716 O 0.25957 0.99024 0.43463 0.0
O717 O 0.29028 0.93174 0.42136 0.0
O718 O 0.2701 0.88809 0.43514 0.0
O719 O 0.25597 0.99258 0.41448 0.0
O720 O 0.25128 0.94452 0.44291 0.0
O721 O 0.25209 0.89767 0.44807 0.0
O722 O 0.20673 0.81905 0.42546 0.0
O723 O 0.19614 0.89275 0.43855 0.0
O724 O 0.20837 0.92473 0.42117 0.0
O725 O 0.22052 0.827 0.44488 0.0
O726 O 0.23301 0.87415 0.41405 0.0
O727 O 0.22632 0.91764 0.41061 0.0
C728 C 0.29309 0.91004 0.42805 0.0
C729 C 0.27786 0.04155 0.4255 0.0
C730 C 0.28169 0.09432 0.42636 0.0
C731 C 0.31528 0.10889 0.42457 0.0
C732 C 0.31131 0.0565 0.42385 0.0
C733 C 0.32992 0.09006 0.42343 0.0
C734 C 0.26322 0.06043 0.42689 0.0
C735 C 0.25701 0.9268 0.4508 0.0
C736 C 0.25736 1.00638 0.42517 0.0
C737 C 0.37153 0.01509 0.39415 0.0
C738 C 0.38653 0.02047 0.40597 0.0
C739 C 0.18889 0.90889 0.4305 0.0
C740 C 0.23228 0.79191 0.43322 0.0
C741 C 0.23513 0.74298 0.42966 0.0
C742 C 0.26798 0.76224 0.42661 0.0
C743 C 0.26504 0.81066 0.43011 0.0
C744 C 0.21743 0.75804 0.43311 0.0
C745 C 0.28283 0.79585 0.42693 0.0
C746 C 0.22979 0.89397 0.40631 0.0
C747 C 0.21268 0.80721 0.43543 0.0
H748 H 0.33029 0.13482 0.42382 0.0
H749 H 0.32299 0.04235 0.42275 0.0
H750 H 0.35573 0.10153 0.42203 0.0
H751 H 0.23737 0.04852 0.42837 0.0
H752 H 0.28218 0.75124 0.42402 0.0
H753 H 0.27662 0.83666 0.4299 0.0
H754 H 0.19195 0.74346 0.43527 0.0
H755 H 0.30812 0.81047 0.42453 0.0
Tb756 Tb 0.66759 0.76746 0.25307 0.0
C757 C 0.68572 0.89362 0.23146 0.0
N758 N 0.69788 0.87486 0.22749 0.0
C759 C 0.68332 0.87838 0.20619 0.0
C760 C 0.67054 0.90439 0.22295 0.0
C761 C 0.69796 0.86807 0.215 0.0
C762 C 0.6693 0.89638 0.21019 0.0
C763 C 0.67462 0.91979 0.2487 0.0
C764 C 0.68781 0.90118 0.24417 0.0
C765 C 0.65869 0.9299 0.24033 0.0
C766 C 0.65681 0.92238 0.22748 0.0
Tb767 Tb 0.72248 0.8607 0.24245 0.0
N768 N 0.70353 0.89105 0.25199 0.0
C769 C 0.6785 0.92834 0.26145 0.0
C770 C 0.70991 0.90201 0.26416 0.0
C771 C 0.69673 0.9199 0.26915 0.0
H772 H 0.70937 0.85481 0.2118 0.0
H773 H 0.70128 0.9278 0.27887 0.0
H774 H 0.66199 0.77062 0.28446 0.0
H775 H 0.70035 0.6954 0.22463 0.0
H776 H 0.72602 0.89816 0.27003 0.0
H777 H 0.66864 0.94253 0.26531 0.0
H778 H 0.6749 0.7284 0.22908 0.0
H779 H 0.68298 0.87255 0.19631 0.0
H780 H 0.64818 0.94399 0.24367 0.0
H781 H 0.64471 0.93058 0.22112 0.0
H782 H 0.68597 0.76014 0.30307 0.0
H783 H 0.65782 0.90417 0.20335 0.0
H784 H 0.72824 0.68373 0.24176 0.0
N785 N 0.68573 0.75608 0.27127 0.0
C786 C 0.7019 0.73972 0.26978 0.0
C787 C 0.69123 0.75484 0.29374 0.0
C788 C 0.71468 0.73155 0.28018 0.0
C789 C 0.67845 0.76174 0.28311 0.0
C790 C 0.70998 0.74022 0.29225 0.0
N791 N 0.69014 0.73683 0.24818 0.0
C792 C 0.68773 0.72403 0.23646 0.0
C793 C 0.71812 0.71021 0.25585 0.0
C794 C 0.70361 0.72914 0.25784 0.0
C795 C 0.71741 0.69845 0.24369 0.0
C796 C 0.70176 0.70505 0.23399 0.0
H797 H 0.71943 0.73443 0.30051 0.0
H798 H 0.7408 0.70763 0.28609 0.0
H799 H 0.74382 0.68894 0.26475 0.0
O800 O 0.62627 0.73437 0.24286 0.0
O801 O 0.71834 0.78612 0.24714 0.0
O802 O 0.74359 0.83839 0.25402 0.0
O803 O 0.62931 0.72959 0.26285 0.0
O804 O 0.66746 0.77963 0.23328 0.0
O805 O 0.71789 0.82358 0.2286 0.0
O806 O 0.75717 0.91011 0.24376 0.0
O807 O 0.67071 0.83288 0.23795 0.0
O808 O 0.64785 0.79981 0.25494 0.0
O809 O 0.76317 0.87958 0.23059 0.0
O810 O 0.72251 0.85013 0.26288 0.0
O811 O 0.67249 0.80469 0.26633 0.0
C812 C 0.74458 0.8125 0.2508 0.0
C813 C 0.59616 0.68204 0.25158 0.0
C814 C 0.54604 0.63029 0.24989 0.0
C815 C 0.56408 0.61454 0.2512 0.0
C816 C 0.61357 0.66584 0.25285 0.0
C817 C 0.59757 0.63224 0.25256 0.0
C818 C 0.56255 0.66428 0.24999 0.0
C819 C 0.69207 0.79556 0.22563 0.0
C820 C 0.61201 0.71723 0.25279 0.0
C821 C 0.73056 0.71391 0.27823 0.0
C822 C 0.73221 0.7032 0.26608 0.0
C823 C 0.64748 0.81917 0.24628 0.0
C824 C 0.81087 0.92559 0.23841 0.0
C825 C 0.86051 0.97603 0.24359 0.0
C826 C 0.87744 0.95903 0.24334 0.0
C827 C 0.82858 0.90949 0.23807 0.0
C828 C 0.82701 0.95896 0.24112 0.0
C829 C 0.86157 0.9261 0.24063 0.0
C830 C 0.69804 0.83122 0.27033 0.0
C831 C 0.776 0.90845 0.23539 0.0
H832 H 0.55234 0.58848 0.25147 0.0
H833 H 0.63933 0.67901 0.25433 0.0
H834 H 0.61109 0.61983 0.25364 0.0
H835 H 0.54936 0.67708 0.24894 0.0
H836 H 0.90324 0.97133 0.24493 0.0
H837 H 0.81704 0.88415 0.23568 0.0
H838 H 0.81347 0.97154 0.24128 0.0
H839 H 0.87502 0.91349 0.24033 0.0
Tb840 Tb 0.2891 0.92403 0.25751 0.0
C841 C 0.1715 0.81537 0.23201 0.0
N842 N 0.18801 0.8464 0.22793 0.0
C843 C 0.18799 0.82837 0.20685 0.0
C844 C 0.16315 0.78949 0.22365 0.0
C845 C 0.19593 0.85327 0.21551 0.0
C846 C 0.17165 0.79634 0.21094 0.0
C847 C 0.14716 0.77789 0.24933 0.0
C848 C 0.16391 0.80978 0.24471 0.0
C849 C 0.1391 0.75198 0.24108 0.0
C850 C 0.14703 0.75776 0.22827 0.0
Tb851 Tb 0.19934 0.88503 0.24275 0.0
N852 N 0.17276 0.83553 0.25248 0.0
C853 C 0.13864 0.77298 0.26207 0.0
C854 C 0.16151 0.83047 0.26459 0.0
C855 C 0.14532 0.79937 0.26967 0.0
H856 H 0.20809 0.87788 0.21222 0.0
H857 H 0.13726 0.79572 0.27937 0.0
H858 H 0.28341 0.89789 0.28674 0.0
H859 H 0.35286 0.04313 0.23692 0.0
H860 H 0.16348 0.84989 0.27031 0.0
H861 H 0.12587 0.74888 0.26601 0.0
H862 H 0.3194 0.98394 0.23652 0.0
H863 H 0.1944 0.83389 0.19701 0.0
H864 H 0.12654 0.72736 0.2445 0.0
H865 H 0.14063 0.73753 0.22202 0.0
H866 H 0.29834 0.92191 0.30806 0.0
H867 H 0.16567 0.77712 0.20422 0.0
H868 H 0.37169 0.07183 0.25728 0.0
N869 N 0.30339 0.94315 0.27746 0.0
C870 C 0.3211 0.97571 0.27858 0.0
C871 C 0.30473 0.93733 0.29985 0.0
C872 C 0.33115 0.99052 0.29047 0.0
C873 C 0.2958 0.92378 0.28781 0.0
C874 C 0.32234 0.97087 0.3012 0.0
N875 N 0.31872 0.97893 0.25647 0.0
C876 C 0.32728 0.99603 0.24546 0.0
C877 C 0.34875 0.02804 0.26839 0.0
C878 C 0.32965 0.9942 0.26771 0.0
C879 C 0.35704 0.04576 0.25716 0.0
C880 C 0.34637 0.02966 0.24565 0.0
H881 H 0.32945 0.9813 0.31052 0.0
H882 H 0.35776 0.03617 0.3003 0.0
H883 H 0.37326 0.06902 0.28096 0.0
O884 O 0.31784 0.91306 0.24589 0.0
O885 O 0.268 0.95612 0.25765 0.0
O886 O 0.2271 0.93716 0.24259 0.0
O887 O 0.32821 0.92206 0.26568 0.0
O888 O 0.28555 0.9244 0.23709 0.0
O889 O 0.23684 0.91753 0.22915 0.0
O890 O 0.15467 0.88005 0.24843 0.0
O891 O 0.23068 0.86417 0.23946 0.0
O892 O 0.25564 0.87228 0.25839 0.0
O893 O 0.16962 0.88948 0.22922 0.0
O894 O 0.20681 0.90012 0.26296 0.0
O895 O 0.24714 0.88991 0.26801 0.0
C896 C 0.24681 0.95908 0.2506 0.0
C897 C 0.37196 0.93442 0.25214 0.0
C898 C 0.42301 0.93574 0.24872 0.0
C899 C 0.4375 0.96866 0.24569 0.0
C900 C 0.38692 0.96732 0.24918 0.0
C901 C 0.41955 0.98433 0.24599 0.0
C902 C 0.39013 0.91874 0.25203 0.0
C903 C 0.26765 0.92563 0.22792 0.0
C904 C 0.33732 0.91587 0.25501 0.0
C905 C 0.34983 0.0243 0.29124 0.0
C906 C 0.3587 0.04301 0.28022 0.0
C907 C 0.24284 0.85447 0.24834 0.0
C908 C 0.11329 0.85754 0.23298 0.0
C909 C 0.05437 0.83444 0.23347 0.0
C910 C 0.05155 0.8117 0.22439 0.0
C911 C 0.10929 0.83416 0.22406 0.0
C912 C 0.08565 0.85758 0.23771 0.0
C913 C 0.07869 0.81146 0.21984 0.0
C914 C 0.22445 0.89582 0.27147 0.0
C915 C 0.14617 0.8824 0.23704 0.0
H916 H 0.46283 0.98236 0.24321 0.0
H917 H 0.37343 0.97981 0.24928 0.0
H918 H 0.43095 0.00972 0.24369 0.0
H919 H 0.37856 0.89324 0.25424 0.0
H920 H 0.02829 0.79423 0.22055 0.0
H921 H 0.12978 0.83366 0.22011 0.0
H922 H 0.08857 0.87543 0.24466 0.0
H923 H 0.07601 0.7938 0.21285 0.0
Tb924 Tb 0.13205 0.38692 0.25771 0.0
C925 C 0.24377 0.38366 0.23232 0.0
N926 N 0.21269 0.36801 0.22824 0.0
C927 C 0.23024 0.38675 0.20719 0.0
C928 C 0.26942 0.40194 0.22398 0.0
C929 C 0.20557 0.36893 0.21583 0.0
C930 C 0.26229 0.40343 0.21128 0.0
C931 C 0.2815 0.39723 0.24959 0.0
C932 C 0.24957 0.38155 0.24499 0.0
C933 C 0.30721 0.41594 0.24137 0.0
C934 C 0.30118 0.41824 0.22859 0.0
Tb935 Tb 0.17429 0.33987 0.24307 0.0
N936 N 0.224 0.36355 0.2527 0.0
C937 C 0.28669 0.39304 0.26224 0.0
C938 C 0.22945 0.35657 0.26463 0.0
C939 C 0.26059 0.37205 0.26971 0.0
H940 H 0.18088 0.35581 0.21258 0.0
H941 H 0.26451 0.36707 0.2793 0.0
H942 H 0.15044 0.3997 0.28814 0.0
H943 H 0.01846 0.32964 0.23283 0.0
H944 H 0.2103 0.33819 0.2702 0.0
H945 H 0.31083 0.40473 0.26616 0.0
H946 H 0.07765 0.36107 0.23466 0.0
H947 H 0.22452 0.38758 0.19738 0.0
H948 H 0.33186 0.42844 0.24477 0.0
H949 H 0.32125 0.4326 0.22235 0.0
H950 H 0.1213 0.38211 0.30839 0.0
H951 H 0.28133 0.41728 0.20457 0.0
H952 H 0.98475 0.3102 0.25205 0.0
N953 N 0.10806 0.37449 0.277 0.0
C954 C 0.07531 0.35713 0.27688 0.0
C955 C 0.10808 0.3747 0.2996 0.0
C956 C 0.05757 0.34731 0.28819 0.0
C957 C 0.12459 0.3841 0.28812 0.0
C958 C 0.07442 0.35604 0.29964 0.0
N959 N 0.07769 0.3583 0.25465 0.0
C960 C 0.06337 0.35234 0.24309 0.0
C961 C 0.02565 0.33133 0.26477 0.0
C962 C 0.05955 0.34925 0.26534 0.0
C963 C 1.01079 0.32394 0.25291 0.0
C964 C 0.02974 0.33475 0.24203 0.0
H965 H 0.06167 0.34889 0.30854 0.0
H966 H 1.00961 0.32136 0.29627 0.0
H967 H 0.98167 0.30738 0.27577 0.0
O968 O 0.13359 0.4255 0.24759 0.0
O969 O 0.1037 0.33327 0.25808 0.0
O970 O 0.12221 0.3153 0.24159 0.0
O971 O 0.13156 0.4245 0.26779 0.0
O972 O 0.13821 0.38872 0.23727 0.0
O973 O 0.14052 0.34394 0.22989 0.0
O974 O 0.17473 0.29819 0.24926 0.0
O975 O 0.19485 0.39191 0.2398 0.0
O976 O 0.18459 0.4087 0.25836 0.0
O977 O 0.17527 0.308 0.2296 0.0
O978 O 0.1606 0.3335 0.26344 0.0
O979 O 0.16833 0.38335 0.26856 0.0
C980 C 0.10056 0.31061 0.25014 0.0
C981 C 0.16266 0.47508 0.2582 0.0
C982 C 0.18399 0.53262 0.25521 0.0
C983 C 0.21502 0.53838 0.25811 0.0
C984 C 0.1937 0.48148 0.26156 0.0
C985 C 0.21979 0.51289 0.26134 0.0
C986 C 0.15775 0.50088 0.25518 0.0
C987 C 0.13525 0.36843 0.22827 0.0
C988 C 0.1356 0.44165 0.25777 0.0
C989 C 0.02371 0.32922 0.28769 0.0
C990 C 1.00779 0.32129 0.27601 0.0
C991 C 0.20301 0.41401 0.24849 0.0
C992 C 0.20489 0.28307 0.23625 0.0
C993 C 0.22831 0.2485 0.23974 0.0
C994 C 0.25684 0.27178 0.23386 0.0
C995 C 0.23339 0.3054 0.23009 0.0
C996 C 0.20229 0.25431 0.24095 0.0
C997 C 0.25925 0.29993 0.22903 0.0
C998 C 0.16576 0.35588 0.27189 0.0
C999 C 0.17817 0.28987 0.23798 0.0
H1000 H 0.23542 0.56276 0.2582 0.0
H1001 H 0.19785 0.46238 0.26452 0.0
H1002 H 0.24366 0.5175 0.26383 0.0
H1003 H 0.13378 0.49634 0.25286 0.0
H1004 H 0.27705 0.26779 0.23268 0.0
H1005 H 0.23573 0.32698 0.22595 0.0
H1006 H 0.18026 0.23667 0.24557 0.0
H1007 H 0.28113 0.31744 0.22432 0.0
Tb1008 Tb 0.76958 0.66304 0.75555 0.0
C1009 C 0.8905 0.6712 0.77736 0.0
N1010 N 0.87496 0.68637 0.78185 0.0
C1011 C 0.87741 0.66917 0.80283 0.0
C1012 C 0.89965 0.65387 0.78545 0.0
C1013 C 0.86872 0.68602 0.79443 0.0
C1014 C 0.89283 0.65292 0.79832 0.0
C1015 C 0.91248 0.65719 0.75948 0.0
C1016 C 0.89652 0.67268 0.76452 0.0
C1017 C 0.92126 0.63944 0.76746 0.0
C1018 C 0.91492 0.63783 0.78042 0.0
Tb1019 Tb 0.86201 0.71322 0.76739 0.0
N1020 N 0.88715 0.68967 0.75705 0.0
C1021 C 0.91968 0.66052 0.74661 0.0
C1022 C 0.89727 0.69569 0.7448 0.0
C1023 C 0.91262 0.6804 0.7393 0.0
H1024 H 0.85718 0.69885 0.79799 0.0
H1025 H 0.91975 0.68465 0.72949 0.0
H1026 H 0.76882 0.64879 0.72493 0.0
H1027 H 0.71441 0.71702 0.78318 0.0
H1028 H 0.89492 0.7132 0.73926 0.0
H1029 H 0.93184 0.64894 0.74235 0.0
H1030 H 0.74412 0.68801 0.77983 0.0
H1031 H 0.87226 0.66877 0.81278 0.0
H1032 H 0.93325 0.62711 0.76372 0.0
H1033 H 0.92192 0.62414 0.78646 0.0
H1034 H 0.75081 0.66315 0.70542 0.0
H1035 H 0.89942 0.63981 0.80486 0.0
H1036 H 0.694 0.73351 0.76486 0.0
N1037 N 0.75234 0.67297 0.73697 0.0
C1038 C 0.73571 0.68898 0.73786 0.0
C1039 C 0.7466 0.67078 0.71448 0.0
C1040 C 0.7241 0.69689 0.72704 0.0
C1041 C 0.75733 0.6632 0.72552 0.0
C1042 C 0.73003 0.68785 0.71523 0.0
N1043 N 0.74263 0.6899 0.75988 0.0
C1044 C 0.73632 0.6959 0.77179 0.0
C1045 C 0.71267 0.7135 0.75115 0.0
C1046 C 0.73023 0.69731 0.74973 0.0
C1047 C 0.70737 0.72105 0.76334 0.0
C1048 C 0.71901 0.71194 0.77371 0.0
H1049 H 0.72159 0.69355 0.70667 0.0
H1050 H 0.69781 0.71978 0.72016 0.0
H1051 H 0.6877 0.73421 0.74128 0.0
O1052 O 0.7348 0.62541 0.76678 0.0
O1053 O 0.79339 0.71652 0.75417 0.0
O1054 O 0.83347 0.73663 0.76931 0.0
O1055 O 0.73291 0.62188 0.74655 0.0
O1056 O 0.77944 0.66285 0.77569 0.0
O1057 O 0.8263 0.71012 0.78146 0.0
O1058 O 0.90344 0.75437 0.7603 0.0
O1059 O 0.83206 0.66109 0.77109 0.0
O1060 O 0.80064 0.64196 0.75352 0.0
O1061 O 0.89614 0.74675 0.78012 0.0
O1062 O 0.85093 0.71779 0.74732 0.0
O1063 O 0.80769 0.66756 0.74326 0.0
C1064 C 0.81544 0.74052 0.76101 0.0
C1065 C 0.68378 0.59232 0.75737 0.0
C1066 C 0.63153 0.54253 0.75825 0.0
C1067 C 0.6163 0.56101 0.75676 0.0
C1068 C 0.66812 0.61021 0.75603 0.0
C1069 C 0.63451 0.59456 0.75575 0.0
C1070 C 0.66551 0.55863 0.75858 0.0
C1071 C 0.79745 0.68506 0.78401 0.0
C1072 C 0.71908 0.60795 0.75706 0.0
C1073 C 0.7069 0.71341 0.72837 0.0
C1074 C 0.70113 0.72162 0.7404 0.0
C1075 C 0.81711 0.63847 0.76264 0.0
C1076 C 0.95016 0.77144 0.77279 0.0
C1077 C 1.00808 0.80638 0.7689 0.0
C1078 C 0.01379 0.78351 0.77486 0.0
C1079 C 0.95694 0.74968 0.77906 0.0
C1080 C 0.97602 0.80019 0.76785 0.0
C1081 C 0.98841 0.75549 0.77994 0.0
C1082 C 0.83199 0.69485 0.73934 0.0
C1083 C 0.91631 0.76409 0.77136 0.0
H1084 H 0.59029 0.54958 0.75617 0.0
H1085 H 0.68177 0.63612 0.7551 0.0
H1086 H 0.6225 0.60846 0.75459 0.0
H1087 H 0.6779 0.54509 0.7598 0.0
H1088 H 0.03813 0.78778 0.77594 0.0
H1089 H 0.93807 0.72832 0.78347 0.0
H1090 H 0.97125 0.81751 0.76319 0.0
H1091 H 0.99319 0.73838 0.78475 0.0
Tb1092 Tb 0.39588 0.12935 0.75127 0.0
C1093 C 0.38748 0.23748 0.7775 0.0
N1094 N 0.37415 0.2065 0.78151 0.0
C1095 C 0.39403 0.22468 0.8024 0.0
C1096 C 0.40553 0.26347 0.78577 0.0
C1097 C 0.3764 0.1997 0.79384 0.0
C1098 C 0.40883 0.2567 0.79834 0.0
C1099 C 0.39769 0.27489 0.76039 0.0
C1100 C 0.38361 0.24299 0.76496 0.0
C1101 C 0.41613 0.3009 0.76854 0.0
C1102 C 0.41993 0.29521 0.7812 0.0
Tb1103 Tb 0.34469 0.16776 0.76704 0.0
N1104 N 0.36581 0.21717 0.75731 0.0
C1105 C 0.39244 0.27973 0.74783 0.0
C1106 C 0.35831 0.22211 0.74538 0.0
C1107 C 0.37223 0.25323 0.74036 0.0
H1108 H 0.36459 0.17503 0.79708 0.0
H1109 H 0.36672 0.25679 0.7308 0.0
H1110 H 0.41728 0.16228 0.72296 0.0
H1111 H 0.35183 1.00724 0.76685 0.0
H1112 H 0.34071 0.20256 0.73973 0.0
H1113 H 0.40295 0.30382 0.74394 0.0
H1114 H 0.37721 0.06642 0.76938 0.0
H1115 H 0.39611 0.21922 0.81214 0.0
H1116 H 0.42735 0.32552 0.76515 0.0
H1117 H 0.43412 0.3155 0.78738 0.0
H1118 H 0.40805 0.14365 0.70081 0.0
H1119 H 0.42258 0.276 0.80498 0.0
H1120 H 0.33542 0.98275 0.74562 0.0
N1121 N 0.38974 0.11498 0.73053 0.0
C1122 C 0.37424 0.08288 0.72812 0.0
C1123 C 0.39814 0.12628 0.7084 0.0
C1124 C 0.3691 0.07105 0.71568 0.0
C1125 C 0.403 0.13677 0.72094 0.0
C1126 C 0.38064 0.09327 0.70575 0.0
N1127 N 0.37309 0.07474 0.74997 0.0
C1128 C 0.36984 0.05577 0.76013 0.0
C1129 C 0.35208 0.02857 0.73623 0.0
C1130 C 0.36589 0.062 0.73821 0.0
C1131 C 0.34625 0.00862 0.74672 0.0
C1132 C 0.35553 0.02234 0.75871 0.0
H1133 H 0.37717 0.08519 0.69604 0.0
H1134 H 0.34949 0.02797 0.70412 0.0
H1135 H 0.3345 0.99073 0.72214 0.0
O1136 O 0.43622 0.14142 0.76271 0.0
O1137 O 0.34549 0.09414 0.75672 0.0
O1138 O 0.316 0.12084 0.75813 0.0
O1139 O 0.4362 0.12943 0.74325 0.0
O1140 O 0.3922 0.12801 0.77168 0.0
O1141 O 0.34974 0.13374 0.77983 0.0
O1142 O 0.31048 0.18338 0.76585 0.0
O1143 O 0.39677 0.18678 0.77006 0.0
O1144 O 0.41252 0.18081 0.75065 0.0
O1145 O 0.30911 0.15268 0.78124 0.0
O1146 O 0.33514 0.15371 0.74686 0.0
O1147 O 0.3848 0.1624 0.74147 0.0
C1148 C 0.31812 0.09448 0.75778 0.0
C1149 C 0.48584 0.16779 0.75213 0.0
C1150 C 0.54399 0.1917 0.75411 0.0
C1151 C 0.54795 0.22191 0.75094 0.0
C1152 C 0.49028 0.19792 0.74849 0.0
C1153 C 0.52115 0.22493 0.74808 0.0
C1154 C 0.51286 0.16463 0.75476 0.0
C1155 C 0.37226 0.12529 0.78079 0.0
C1156 C 0.45323 0.13983 0.75349 0.0
C1157 C 0.35389 0.0376 0.71361 0.0
C1158 C 0.3454 0.01639 0.72387 0.0
C1159 C 0.41799 0.19794 0.76092 0.0
C1160 C 0.26786 0.16858 0.78146 0.0
C1161 C 0.22426 0.18116 0.78007 0.0
C1162 C 0.21546 0.17034 0.7925 0.0
C1163 C 0.25835 0.15776 0.79386 0.0
C1164 C 0.25051 0.18017 0.7745 0.0
C1165 C 0.23232 0.15862 0.79931 0.0
C1166 C 0.35561 0.15503 0.73825 0.0
C1167 C 0.29626 0.1683 0.77612 0.0
H1168 H 0.57184 0.24299 0.75042 0.0
H1169 H 0.46999 0.2006 0.74592 0.0
H1170 H 0.52432 0.24817 0.74543 0.0
H1171 H 0.50973 0.14132 0.75734 0.0
H1172 H 0.19527 0.17076 0.79693 0.0
H1173 H 0.27125 0.14887 0.79941 0.0
H1174 H 0.2575 0.18864 0.76492 0.0
H1175 H 0.22524 0.15028 0.80888 0.0
Tb1176 Tb 0.93467 0.28611 0.75293 0.0
C1177 C 0.82302 0.17163 0.77833 0.0
N1178 N 0.85401 0.18686 0.78254 0.0
C1179 C 0.83607 0.18853 0.80347 0.0
C1180 C 0.79725 0.16473 0.78654 0.0
C1181 C 0.86088 0.19502 0.79495 0.0
C1182 C 0.80413 0.17345 0.79924 0.0
C1183 C 0.78568 0.14778 0.76093 0.0
C1184 C 0.81748 0.16364 0.76567 0.0
C1185 C 0.75987 0.1413 0.76901 0.0
C1186 C 0.76564 0.14972 0.78179 0.0
Tb1187 Tb 0.89269 0.19691 0.76787 0.0
N1188 N 0.84318 0.17094 0.75807 0.0
C1189 C 0.78073 0.13835 0.74828 0.0
C1190 C 0.83792 0.15851 0.74614 0.0
C1191 C 0.80691 0.14312 0.74093 0.0
H1192 H 0.88547 0.20644 0.79829 0.0
H1193 H 0.80314 0.13421 0.73135 0.0
H1194 H 0.91516 0.27941 0.72258 0.0
H1195 H 0.04886 0.34526 0.77735 0.0
H1196 H 0.85709 0.15908 0.74067 0.0
H1197 H 0.75669 0.12618 0.74426 0.0
H1198 H 0.98959 0.31548 0.7758 0.0
H1199 H 0.84159 0.19516 0.81328 0.0
H1200 H 0.73532 0.12946 0.7655 0.0
H1201 H 0.74549 0.14446 0.78792 0.0
H1202 H 0.94388 0.29193 0.70221 0.0
H1203 H 0.78499 0.1686 0.80586 0.0
H1204 H 0.08207 0.36094 0.75797 0.0
N1205 N 0.95801 0.29804 0.73354 0.0
C1206 C 0.99078 0.31436 0.73353 0.0
C1207 C 0.95736 0.29817 0.71095 0.0
C1208 C 1.00824 0.32288 0.72215 0.0
C1209 C 0.94112 0.29056 0.72249 0.0
C1210 C 0.99107 0.31425 0.71077 0.0
N1211 N 0.98906 0.31306 0.75578 0.0
C1212 C 1.00366 0.32168 0.7673 0.0
C1213 C 0.0408 0.33988 0.74544 0.0
C1214 C 1.00685 0.32272 0.74502 0.0
C1215 C 0.05599 0.34777 0.75723 0.0
C1216 C 0.03733 0.33884 0.7682 0.0
H1217 H 1.0036 0.32028 0.70181 0.0
H1218 H 0.05602 0.34653 0.71386 0.0
H1219 H 0.08451 0.36143 0.73424 0.0
O1220 O 0.92943 0.32103 0.7631 0.0
O1221 O 0.96386 0.26182 0.75285 0.0
O1222 O 0.94486 0.22495 0.7692 0.0
O1223 O 0.9364 0.32502 0.74308 0.0
O1224 O 0.92942 0.28221 0.77339 0.0
O1225 O 0.92612 0.23491 0.7811 0.0
O1226 O 0.89232 0.1547 0.76184 0.0
O1227 O 0.87196 0.2285 0.7707 0.0
O1228 O 0.88247 0.25452 0.75192 0.0
O1229 O 0.89147 0.16419 0.78146 0.0
O1230 O 0.90699 0.20358 0.74758 0.0
O1231 O 0.89927 0.24547 0.74211 0.0
C1232 C 0.96628 0.24135 0.76049 0.0
C1233 C 0.90209 0.34195 0.75149 0.0
C1234 C 0.87962 0.37758 0.75248 0.0
C1235 C 0.85 0.35245 0.74807 0.0
C1236 C 0.87247 0.31734 0.74679 0.0
C1237 C 0.84644 0.32242 0.74529 0.0
C1238 C 0.90561 0.3722 0.75438 0.0
C1239 C 0.9318 0.2649 0.78254 0.0
C1240 C 0.92946 0.33634 0.75296 0.0
C1241 C 0.04213 0.33981 0.72251 0.0
C1242 C 0.05837 0.34833 0.73412 0.0
C1243 C 0.86389 0.24194 0.76178 0.0
C1244 C 0.8622 0.10945 0.77488 0.0
C1245 C 0.83922 0.05133 0.77161 0.0
C1246 C 0.81038 0.04604 0.77723 0.0
C1247 C 0.83332 0.1032 0.78072 0.0
C1248 C 0.86521 0.08326 0.77045 0.0
C1249 C 0.80757 0.07179 0.78178 0.0
C1250 C 0.90272 0.22098 0.73896 0.0
C1251 C 0.88881 0.14308 0.77315 0.0
H1252 H 0.82979 0.35632 0.74657 0.0
H1253 H 0.86955 0.29439 0.744 0.0
H1254 H 0.82367 0.30324 0.74173 0.0
H1255 H 0.92857 0.39162 0.75773 0.0
H1256 H 0.79018 0.02179 0.77838 0.0
H1257 H 0.83059 0.12248 0.78459 0.0
H1258 H 0.88748 0.0877 0.76603 0.0
H1259 H 0.7854 0.06736 0.78626 0.0
Tb1260 Tb 0.33678 0.10346 0.58829 0.0
C1261 C 0.34881 0.22467 0.56387 0.0
N1262 N 0.36453 0.20895 0.56024 0.0
C1263 C 0.35228 0.21242 0.5386 0.0
C1264 C 0.33363 0.23441 0.55494 0.0
C1265 C 0.36671 0.20291 0.54781 0.0
C1266 C 0.33563 0.2282 0.54217 0.0
C1267 C 0.32921 0.2443 0.58083 0.0
C1268 C 0.3464 0.22922 0.57668 0.0
C1269 C 0.3141 0.25416 0.57196 0.0
C1270 C 0.31633 0.24926 0.55906 0.0
Tb1271 Tb 0.38767 0.19551 0.57605 0.0
N1272 N 0.36045 0.21839 0.58506 0.0
C1273 C 0.32789 0.2492 0.59376 0.0
C1274 C 0.36167 0.22586 0.59754 0.0
C1275 C 0.34468 0.24045 0.60212 0.0
H1276 H 0.37997 0.19121 0.54494 0.0
H1277 H 0.34519 0.24562 0.61208 0.0
H1278 H 0.32129 0.10531 0.61868 0.0
H1279 H 0.39006 0.04453 0.56273 0.0
H1280 H 0.37674 0.22211 0.60397 0.0
H1281 H 0.31487 0.26063 0.59733 0.0
H1282 H 0.36098 0.07466 0.56504 0.0
H1283 H 0.35404 0.20761 0.52875 0.0
H1284 H 0.3006 0.26559 0.57498 0.0
H1285 H 0.30435 0.2568 0.55234 0.0
H1286 H 0.33489 0.08888 0.63878 0.0
H1287 H 0.32427 0.23531 0.53502 0.0
H1288 H 0.40701 0.02675 0.58172 0.0
N1289 N 0.34588 0.0877 0.6074 0.0
C1290 C 0.36212 0.07123 0.60713 0.0
C1291 C 0.34282 0.08388 0.62994 0.0
C1292 C 0.36984 0.06077 0.61832 0.0
C1293 C 0.33549 0.0935 0.61856 0.0
C1294 C 0.36026 0.06762 0.62984 0.0
N1295 N 0.36316 0.07557 0.58502 0.0
C1296 C 0.36892 0.0677 0.57333 0.0
C1297 C 0.38703 0.04701 0.59473 0.0
C1298 C 0.3707 0.06453 0.59554 0.0
C1299 C 0.39448 0.0402 0.58277 0.0
C1300 C 0.38507 0.0503 0.57202 0.0
H1301 H 0.36582 0.06012 0.63867 0.0
H1302 H 0.39288 0.03552 0.62612 0.0
H1303 H 0.40784 0.02339 0.60546 0.0
O1304 O 0.2992 0.06886 0.57695 0.0
O1305 O 0.39008 0.12551 0.58864 0.0
O1306 O 0.41377 0.1694 0.57485 0.0
O1307 O 0.29507 0.06741 0.59716 0.0
O1308 O 0.33754 0.11308 0.5681 0.0
O1309 O 0.3852 0.15951 0.56229 0.0
O1310 O 0.42453 0.2387 0.58403 0.0
O1311 O 0.33553 0.16587 0.57224 0.0
O1312 O 0.31709 0.13565 0.59007 0.0
O1313 O 0.42205 0.23119 0.56408 0.0
O1314 O 0.39364 0.18518 0.59603 0.0
O1315 O 0.34318 0.14311 0.60003 0.0
C1316 C 0.41451 0.14707 0.58184 0.0
C1317 C 0.26608 0.01807 0.58649 0.0
C1318 C 0.21659 0.96558 0.58576 0.0
C1319 C 0.23522 0.95069 0.58776 0.0
C1320 C 0.28413 1.00272 0.58833 0.0
C1321 C 0.26871 0.96917 0.58894 0.0
C1322 C 0.23247 0.99951 0.58509 0.0
C1323 C 0.36066 0.13017 0.55997 0.0
C1324 C 0.28146 0.05335 0.58664 0.0
C1325 C 0.38662 0.0437 0.61763 0.0
C1326 C 0.39514 0.03679 0.60586 0.0
C1327 C 0.3126 0.15029 0.58052 0.0
C1328 C 0.47348 0.26608 0.57277 0.0
C1329 C 0.52677 0.31459 0.57489 0.0
C1330 C 0.54078 0.29626 0.57089 0.0
C1331 C 0.48817 0.24844 0.56905 0.0
C1332 C 0.49278 0.29906 0.57578 0.0
C1333 C 0.52163 0.26348 0.56812 0.0
C1334 C 0.37151 0.16525 0.60401 0.0
C1335 C 0.43807 0.25066 0.57324 0.0
H1336 H 0.22395 0.92476 0.58864 0.0
H1337 H 0.30997 0.01656 0.58945 0.0
H1338 H 0.28273 0.95743 0.59049 0.0
H1339 H 0.21881 0.01165 0.58349 0.0
H1340 H 0.56661 0.30725 0.56968 0.0
H1341 H 0.4737 0.22318 0.5667 0.0
H1342 H 0.48124 0.31239 0.57887 0.0
H1343 H 0.5328 0.24976 0.5651 0.0
Tb1344 Tb 0.9586 0.26221 0.5862 0.0
C1345 C 0.83327 0.14799 0.56822 0.0
N1346 N 0.84958 0.17825 0.56336 0.0
C1347 C 0.84463 0.15662 0.54258 0.0
C1348 C 0.82324 0.12071 0.56048 0.0
C1349 C 0.85424 0.18295 0.55066 0.0
C1350 C 0.82938 0.12537 0.54752 0.0
C1351 C 0.81052 0.11362 0.58648 0.0
C1352 C 0.82709 0.14462 0.58104 0.0
C1353 C 0.80141 0.08631 0.5789 0.0
C1354 C 0.80761 0.08984 0.56592 0.0
Tb1355 Tb 0.86427 0.21948 0.57727 0.0
N1356 N 0.83624 0.17164 0.58806 0.0
C1357 C 0.80284 0.11096 0.5993 0.0
C1358 C 0.8258 0.16878 0.60025 0.0
C1359 C 0.80993 0.13863 0.60615 0.0
H1360 H 0.86551 0.20698 0.54676 0.0
H1361 H 0.80257 0.13671 0.6159 0.0
H1362 H 0.96087 0.25542 0.61761 0.0
H1363 H 0.01975 0.36761 0.5569 0.0
H1364 H 0.82875 0.18941 0.60546 0.0
H1365 H 0.79023 0.08761 0.60386 0.0
H1366 H 0.99399 0.3093 0.56182 0.0
H1367 H 0.84891 0.16043 0.53254 0.0
H1368 H 0.78901 0.06232 0.58295 0.0
H1369 H 0.80005 0.06855 0.56016 0.0
H1370 H 0.96873 0.28974 0.6361 0.0
H1371 H 0.8221 0.10502 0.54124 0.0
H1372 H 0.02656 0.40643 0.57374 0.0
N1373 N 0.96911 0.29196 0.60428 0.0
C1374 C 0.98168 0.32416 0.60254 0.0
C1375 C 0.97183 0.29964 0.62669 0.0
C1376 C 0.98802 0.34516 0.61281 0.0
C1377 C 0.96647 0.27997 0.61617 0.0
C1378 C 0.98195 0.33228 0.625 0.0
N1379 N 0.98502 0.31535 0.58094 0.0
C1380 C 0.99665 0.32618 0.56912 0.0
C1381 C 1.00518 0.36972 0.5882 0.0
C1382 C 0.99048 0.33639 0.59047 0.0
C1383 C 0.01517 0.38094 0.5759 0.0
C1384 C 1.01135 0.35911 0.56636 0.0
H1385 H 0.98648 0.34757 0.63316 0.0
H1386 H 1.00611 0.3949 0.61834 0.0
H1387 H 0.02093 0.41638 0.59676 0.0
O1388 O 0.98952 0.25049 0.57628 0.0
O1389 O 0.93609 0.28996 0.57948 0.0
O1390 O 0.88601 0.26396 0.58829 0.0
O1391 O 1.00281 0.2729 0.59442 0.0
O1392 O 0.94663 0.25012 0.56633 0.0
O1393 O 0.89858 0.25023 0.56227 0.0
O1394 O 0.81445 0.20272 0.57853 0.0
O1395 O 0.89426 0.19839 0.57218 0.0
O1396 O 0.9282 0.21016 0.58889 0.0
O1397 O 0.8442 0.24066 0.56571 0.0
O1398 O 0.87711 0.2322 0.59744 0.0
O1399 O 0.92397 0.22992 0.60026 0.0
C1400 C 0.91143 0.29059 0.58455 0.0
C1401 C 0.01434 0.23178 0.59031 0.0
C1402 C 0.04465 0.20333 0.59033 0.0
C1403 C 0.02202 0.18064 0.59878 0.0
C1404 C 0.99224 0.20899 0.59884 0.0
C1405 C 0.99602 0.18351 0.60298 0.0
C1406 C 0.04066 0.22902 0.5861 0.0
C1407 C 0.92695 0.25397 0.55877 0.0
C1408 C 1.00922 0.25787 0.58574 0.0
C1409 C 1.0014 0.37839 0.61059 0.0
C1410 C 1.00994 0.39064 0.5983 0.0
C1411 C 0.90898 0.1898 0.58037 0.0
C1412 C 0.79884 0.24128 0.57458 0.0
C1413 C 0.74841 0.24042 0.57963 0.0
C1414 C 0.76644 0.27393 0.58181 0.0
C1415 C 0.81612 0.27457 0.57693 0.0
C1416 C 0.76503 0.22428 0.57599 0.0
C1417 C 0.79996 0.29072 0.58055 0.0
C1418 C 0.89726 0.22789 0.60463 0.0
C1419 C 0.81556 0.22386 0.57062 0.0
H1420 H 0.02476 0.16096 0.60235 0.0
H1421 H 0.97215 0.21097 0.6024 0.0
H1422 H 0.97888 0.16605 0.60955 0.0
H1423 H 0.05771 0.24653 0.5795 0.0
H1424 H 0.75466 0.28744 0.5843 0.0
H1425 H 0.84205 0.28817 0.57587 0.0
H1426 H 0.75182 0.19847 0.57436 0.0
H1427 H 0.81346 0.31646 0.58226 0.0
Tb1428 Tb 0.80176 0.72674 0.59034 0.0
C1429 C 0.90937 0.71614 0.56438 0.0
N1430 N 0.87803 0.70142 0.5606 0.0
C1431 C 0.89467 0.71849 0.53933 0.0
C1432 C 0.9347 0.73312 0.55576 0.0
C1433 C 0.87033 0.70197 0.54825 0.0
C1434 C 0.92699 0.73424 0.54311 0.0
C1435 C 0.94793 0.72933 0.58131 0.0
C1436 C 0.91576 0.71438 0.577 0.0
C1437 C 0.97334 0.7467 0.57281 0.0
C1438 C 0.96675 0.74854 0.56005 0.0
Tb1439 Tb 0.84025 0.67527 0.57585 0.0
N1440 N 0.89045 0.69779 0.58501 0.0
C1441 C 0.95359 0.72597 0.59399 0.0
C1442 C 0.89616 0.69191 0.59707 0.0
C1443 C 0.9276 0.70667 0.60184 0.0
H1444 H 0.84545 0.6895 0.54523 0.0
H1445 H 0.9318 0.70251 0.61151 0.0
H1446 H 0.81899 0.73818 0.62083 0.0
H1447 H 0.69001 0.67995 0.56466 0.0
H1448 H 0.87695 0.67494 0.603 0.0
H1449 H 0.97794 0.73718 0.59769 0.0
H1450 H 0.74891 0.70515 0.56697 0.0
H1451 H 0.8885 0.719 0.52956 0.0
H1452 H 0.99819 0.75861 0.57598 0.0
H1453 H 0.9866 0.76194 0.5536 0.0
H1454 H 0.78884 0.72345 0.6409 0.0
H1455 H 0.94578 0.74707 0.53618 0.0
H1456 H 0.65523 0.66383 0.58361 0.0
N1457 N 0.77686 0.71593 0.60944 0.0
C1458 C 0.74416 0.70101 0.6091 0.0
C1459 C 0.77595 0.71679 0.63202 0.0
C1460 C 0.72593 0.69323 0.62028 0.0
C1461 C 0.79298 0.72455 0.62065 0.0
C1462 C 0.74225 0.70094 0.63184 0.0
N1463 N 0.74757 0.70159 0.58692 0.0
C1464 C 0.73407 0.69739 0.57526 0.0
C1465 C 0.69525 0.67998 0.59664 0.0
C1466 C 0.729 0.69409 0.59746 0.0
C1467 C 0.6811 0.67457 0.58467 0.0
C1468 C 0.70065 0.6835 0.57394 0.0
H1469 H 0.72911 0.69526 0.64066 0.0
H1470 H 0.67768 0.67221 0.62802 0.0
H1471 H 0.65084 0.66089 0.60732 0.0
O1472 O 0.80442 0.76546 0.57996 0.0
O1473 O 0.7708 0.67332 0.59114 0.0
O1474 O 0.78826 0.65352 0.57495 0.0
O1475 O 0.80826 0.76767 0.60017 0.0
O1476 O 0.81019 0.72826 0.5701 0.0
O1477 O 0.80715 0.68101 0.56276 0.0
O1478 O 0.84052 0.63355 0.58222 0.0
O1479 O 0.86374 0.72788 0.57301 0.0
O1480 O 0.85405 0.7466 0.59136 0.0
O1481 O 0.83728 0.64111 0.56259 0.0
O1482 O 0.82702 0.6697 0.59624 0.0
O1483 O 0.836 0.72013 0.60138 0.0
C1484 C 0.76811 0.64943 0.58404 0.0
C1485 C 0.78789 0.79814 0.59058 0.0
C1486 C 0.78508 0.84767 0.58941 0.0
C1487 C 0.75222 0.82972 0.59274 0.0
C1488 C 0.75513 0.7808 0.59375 0.0
C1489 C 0.7374 0.79654 0.5948 0.0
C1490 C 0.80272 0.83144 0.5883 0.0
C1491 C 0.80381 0.70673 0.56121 0.0
C1492 C 0.80741 0.78235 0.59001 0.0
C1493 C 0.69215 0.67842 0.61954 0.0
C1494 C 0.67686 0.67196 0.60774 0.0
C1495 C 0.87287 0.75002 0.58179 0.0
C1496 C 0.86533 0.61388 0.56827 0.0
C1497 C 0.88323 0.57401 0.56832 0.0
C1498 C 0.91212 0.59682 0.5625 0.0
C1499 C 0.89411 0.63563 0.56214 0.0
C1500 C 0.86001 0.5829 0.57147 0.0
C1501 C 0.91747 0.62735 0.55946 0.0
C1502 C 0.83213 0.6921 0.60468 0.0
C1503 C 0.84066 0.62318 0.57092 0.0
H1504 H 0.73798 0.84133 0.594 0.0
H1505 H 0.74332 0.75527 0.59557 0.0
H1506 H 0.71215 0.78304 0.59738 0.0
H1507 H 0.82798 0.84458 0.58567 0.0
H1508 H 0.93056 0.59086 0.56017 0.0
H1509 H 0.89845 0.65888 0.55916 0.0
H1510 H 0.83765 0.56558 0.57598 0.0
H1511 H 0.93961 0.64451 0.5548 0.0
C1512 C 0.50585 0.94201 0.08397 0.0
C1513 C 0.49696 0.95026 0.09534 0.0
C1514 C 0.51657 0.9198 0.08386 0.0
C1515 C 0.54503 0.87708 0.1051 0.0
H1516 H 0.51967 0.81745 0.077 0.0
C1517 C 0.53662 0.75276 0.1062 0.0
C1518 C 0.54811 0.74397 0.09565 0.0
C1519 C 0.53691 0.782 0.10634 0.0
C1520 C 0.52735 0.83428 0.08481 0.0
H1521 H 0.4917 0.94198 0.11545 0.0
H1522 H 0.50867 0.90173 0.11526 0.0
H1523 H 0.50577 0.85978 0.07681 0.0
H1524 H 0.56986 0.75863 0.07719 0.0
H1525 H 0.56984 0.80989 0.07731 0.0
H1526 H 0.56486 0.84995 0.11338 0.0
C1527 C 0.50856 0.91308 0.10646 0.0
C1528 C 0.51947 0.85862 0.08471 0.0
C1529 C 0.49846 0.93579 0.10658 0.0
C1530 C 0.56119 0.76528 0.08546 0.0
C1531 C 0.56098 0.79433 0.0855 0.0
C1532 C 0.55237 0.85232 0.10529 0.0
C1533 C 0.51785 0.90486 0.09509 0.0
C1534 C 0.52793 0.88016 0.09491 0.0
C1535 C 0.54817 0.80254 0.09583 0.0
C1536 C 0.54338 0.83062 0.09518 0.0
H1537 H 0.50545 0.95348 0.07523 0.0
H1538 H 0.52419 0.91466 0.07497 0.0
H1539 H 0.55256 0.89364 0.11299 0.0
H1540 H 0.52625 0.73639 0.1141 0.0
H1541 H 0.52661 0.78769 0.11435 0.0
C1542 C 0.25077 0.82306 0.09861 0.0
C1543 C 0.28012 0.83798 0.09197 0.0
C1544 C 0.23183 0.78949 0.09912 0.0
C1545 C 0.21979 0.71498 0.08309 0.0
H1546 H 0.16556 0.67398 0.11216 0.0
C1547 C 0.11807 0.58179 0.08223 0.0
C1548 C 0.10954 0.56418 0.09352 0.0
C1549 C 0.14099 0.61464 0.08222 0.0
C1550 C 0.18086 0.68483 0.10402 0.0
H1551 H 0.31276 0.82872 0.08086 0.0
H1552 H 0.28074 0.77035 0.0824 0.0
H1553 H 0.20222 0.7317 0.1123 0.0
H1554 H 0.11941 0.56628 0.11349 0.0
H1555 H 0.16062 0.62332 0.11347 0.0
H1556 H 0.19944 0.66786 0.07505 0.0
C1557 C 0.27177 0.78463 0.08688 0.0
C1558 C 0.20159 0.71821 0.10401 0.0
C1559 C 0.29049 0.81827 0.08618 0.0
C1560 C 0.12548 0.57951 0.10469 0.0
C1561 C 0.14884 0.61225 0.10466 0.0
C1562 C 0.19943 0.6815 0.08319 0.0
C1563 C 0.24194 0.76973 0.09323 0.0
C1564 C 0.22109 0.73386 0.09349 0.0
C1565 C 0.15645 0.63047 0.09347 0.0
C1566 C 0.1794 0.66597 0.0936 0.0
H1567 H 0.2422 0.83731 0.1034 0.0
H1568 H 0.20888 0.77914 0.10396 0.0
H1569 H 0.23402 0.72603 0.07473 0.0
H1570 H 0.10592 0.57054 0.07349 0.0
H1571 H 0.14566 0.62778 0.07345 0.0
C1572 C 0.23789 0.49821 0.08712 0.0
C1573 C 0.23418 0.52548 0.08812 0.0
C1574 C 0.26809 0.50093 0.08912 0.0
C1575 C 0.35371 0.56127 0.08665 0.0
H1576 H 0.36888 0.50068 0.10547 0.0
C1577 C 0.47412 0.56196 0.08436 0.0
C1578 C 0.48759 0.56084 0.09597 0.0
C1579 C 0.44259 0.5563 0.08374 0.0
C1580 C 0.36492 0.5178 0.10022 0.0
H1581 H 0.25863 0.57629 0.09304 0.0
H1582 H 0.31114 0.58104 0.09633 0.0
H1583 H 0.31422 0.49291 0.10437 0.0
H1584 H 0.47895 0.55343 0.11606 0.0
H1585 H 0.42333 0.54258 0.11494 0.0
H1586 H 0.40421 0.58619 0.08249 0.0
C1587 C 0.29092 0.55775 0.09376 0.0
C1588 C 0.33369 0.51324 0.09952 0.0
C1589 C 0.26084 0.555 0.09186 0.0
C1590 C 0.46893 0.55391 0.10696 0.0
C1591 C 0.43718 0.54774 0.10632 0.0
C1592 C 0.38474 0.56564 0.08724 0.0
C1593 C 0.29507 0.53097 0.09211 0.0
C1594 C 0.32786 0.5351 0.09281 0.0
C1595 C 0.42381 0.5491 0.09472 0.0
C1596 C 0.39069 0.54403 0.09406 0.0
H1597 H 0.21789 0.47515 0.0842 0.0
H1598 H 0.27065 0.47989 0.08777 0.0
H1599 H 0.34987 0.57829 0.08128 0.0
H1600 H 0.48794 0.56716 0.07573 0.0
H1601 H 0.43279 0.55732 0.07466 0.0
C1602 C 0.94478 0.49701 0.90336 0.0
C1603 C 0.9593 0.4961 0.9147 0.0
C1604 C 0.92203 0.50714 0.90322 0.0
C1605 C 0.88944 0.54709 0.90384 0.0
H1606 H 0.83386 0.53231 0.93259 0.0
C1607 C 0.81516 0.6111 0.90839 0.0
C1608 C 0.78579 0.59603 0.91502 0.0
C1609 C 0.83501 0.59748 0.90804 0.0
C1610 C 0.84872 0.53625 0.92436 0.0
H1611 H 0.96154 0.50476 0.93481 0.0
H1612 H 0.92285 0.5236 0.93457 0.0
H1613 H 0.86934 0.50988 0.93248 0.0
H1614 H 0.75409 0.55397 0.92626 0.0
H1615 H 0.78745 0.5292 0.92489 0.0
H1616 H 0.86756 0.57184 0.89539 0.0
C1617 C 0.92806 0.51563 0.92579 0.0
C1618 C 0.86965 0.52384 0.9244 0.0
C1619 C 0.95037 0.50494 0.92595 0.0
C1620 C 0.77631 0.56627 0.92093 0.0
C1621 C 0.79586 0.55228 0.92035 0.0
C1622 C 0.86801 0.55888 0.90367 0.0
C1623 C 0.91366 0.51703 0.91441 0.0
C1624 C 0.89054 0.52933 0.91419 0.0
C1625 C 0.82576 0.56792 0.91406 0.0
C1626 C 0.84755 0.55396 0.91398 0.0
H1627 H 0.95123 0.49012 0.89458 0.0
H1628 H 0.91109 0.50724 0.8943 0.0
H1629 H 0.90546 0.55237 0.89588 0.0
H1630 H 0.82308 0.63364 0.90348 0.0
H1631 H 0.85796 0.61066 0.90325 0.0
C1632 C 0.45462 0.22511 0.9117 0.0
C1633 C 0.47108 0.21151 0.9178 0.0
C1634 C 0.46787 0.25851 0.91108 0.0
C1635 C 0.53137 0.3351 0.92579 0.0
H1636 H 0.50921 0.37276 0.89797 0.0
C1637 C 0.56185 0.46821 0.92657 0.0
C1638 C 0.56827 0.48473 0.91508 0.0
C1639 C 0.55133 0.4352 0.92676 0.0
C1640 C 0.51617 0.36289 0.90574 0.0
H1641 H 0.51531 0.22301 0.92768 0.0
H1642 H 0.53932 0.28116 0.92588 0.0
H1643 H 0.49054 0.31558 0.89788 0.0
H1644 H 0.57002 0.4805 0.89484 0.0
H1645 H 0.55338 0.42338 0.89512 0.0
H1646 H 0.55854 0.38282 0.93328 0.0
C1647 C 0.51547 0.26594 0.92198 0.0
C1648 C 0.50486 0.32974 0.90581 0.0
C1649 C 0.50189 0.23242 0.92282 0.0
C1650 C 0.56508 0.46811 0.90382 0.0
C1651 C 0.5552 0.43529 0.904 0.0
C1652 C 0.54325 0.36839 0.92559 0.0
C1653 C 0.49843 0.27951 0.91626 0.0
C1654 C 0.51197 0.31523 0.9159 0.0
C1655 C 0.54771 0.41819 0.91547 0.0
C1656 C 0.53565 0.38276 0.9156 0.0
H1657 H 0.43118 0.20996 0.90746 0.0
H1658 H 0.45362 0.26771 0.90675 0.0
H1659 H 0.53705 0.32497 0.93385 0.0
H1660 H 0.56371 0.48053 0.93536 0.0
H1661 H 0.54524 0.42292 0.93576 0.0
C1662 C 0.59475 0.1164 0.90349 0.0
C1663 C 0.57853 0.10096 0.91458 0.0
C1664 C 0.62722 0.14033 0.90391 0.0
C1665 C 0.69029 0.19561 0.92653 0.0
H1666 H 0.74673 0.2108 0.89799 0.0
C1667 C 0.82502 0.29226 0.92742 0.0
C1668 C 0.83343 0.31499 0.91772 0.0
C1669 C 0.79586 0.26305 0.92687 0.0
C1670 C 0.7312 0.20665 0.90603 0.0
H1671 H 0.58318 0.09709 0.93469 0.0
H1672 H 0.64016 0.13781 0.93545 0.0
H1673 H 0.69174 0.16506 0.89761 0.0
H1674 H 0.81937 0.32484 0.89962 0.0
H1675 H 0.7687 0.27329 0.89846 0.0
H1676 H 0.73017 0.23694 0.935 0.0
C1677 C 0.62783 0.13264 0.92647 0.0
C1678 C 0.6996 0.18067 0.9058 0.0
C1679 C 0.5952 0.10925 0.92606 0.0
C1680 C 0.81327 0.30749 0.90716 0.0
C1681 C 0.78444 0.27808 0.9065 0.0
C1682 C 0.72204 0.22112 0.92686 0.0
C1683 C 0.64422 0.14883 0.91542 0.0
C1684 C 0.67854 0.17512 0.91596 0.0
C1685 C 0.7751 0.25601 0.9165 0.0
C1686 C 0.7426 0.22712 0.91655 0.0
H1687 H 0.58219 0.11024 0.89453 0.0
H1688 H 0.63872 0.15251 0.89523 0.0
H1689 H 0.67476 0.19268 0.93443 0.0
H1690 H 0.84019 0.29778 0.93568 0.0
H1691 H 0.78913 0.2463 0.93467 0.0
C1692 C 0.28205 0.14478 0.43328 0.0
C1693 C 0.26598 0.11438 0.4274 0.0
C1694 C 0.26799 0.1642 0.43381 0.0
C1695 C 0.20273 0.17417 0.41917 0.0
H1696 H 0.2216 0.23281 0.44723 0.0
C1697 C 0.16835 0.27351 0.41833 0.0
C1698 C 0.16079 0.28289 0.42975 0.0
C1699 C 0.17948 0.25158 0.41823 0.0
C1700 C 0.21559 0.21624 0.4394 0.0
H1701 H 0.22196 0.08055 0.41761 0.0
H1702 H 0.19665 0.11335 0.4193 0.0
H1703 H 0.24298 0.19644 0.44721 0.0
H1704 H 0.15746 0.27602 0.44995 0.0
H1705 H 0.17524 0.23634 0.44981 0.0
H1706 H 0.17395 0.19282 0.41169 0.0
C1707 C 0.22068 0.12277 0.42312 0.0
C1708 C 0.22841 0.19571 0.43927 0.0
C1709 C 0.23503 0.1036 0.42236 0.0
C1710 C 0.16322 0.26907 0.44103 0.0
C1711 C 0.17375 0.24664 0.44093 0.0
C1712 C 0.18939 0.19426 0.41942 0.0
C1713 C 0.23711 0.15351 0.42873 0.0
C1714 C 0.22243 0.17457 0.4291 0.0
C1715 C 0.18259 0.23803 0.42954 0.0
C1716 C 0.19584 0.21577 0.42949 0.0
H1717 H 0.30562 0.15374 0.43749 0.0
H1718 H 0.2817 0.18786 0.43805 0.0
H1719 H 0.19793 0.15869 0.41106 0.0
H1720 H 0.16716 0.28429 0.40953 0.0
H1721 H 0.18664 0.24615 0.4093 0.0
C1722 C 0.91575 0.1673 0.42674 0.0
C1723 C 0.94706 0.18137 0.42171 0.0
C1724 C 0.89639 0.13383 0.42756 0.0
C1725 C 0.88905 0.05773 0.4151 0.0
H1726 H 0.82727 0.02012 0.44232 0.0
C1727 C 0.79058 0.92346 0.41526 0.0
C1728 C 0.77982 0.90784 0.4269 0.0
C1729 C 0.81253 0.95652 0.41479 0.0
C1730 C 0.84469 0.03007 0.43475 0.0
H1731 H 0.9825 0.17084 0.41364 0.0
H1732 H 0.94964 0.11281 0.41582 0.0
H1733 H 0.86308 0.07795 0.44167 0.0
H1734 H 0.78453 0.91374 0.44715 0.0
H1735 H 0.82416 0.97108 0.44642 0.0
H1736 H 0.87178 0.00966 0.40855 0.0
C1737 C 0.93957 0.12757 0.41877 0.0
C1738 C 0.86492 0.06345 0.43424 0.0
C1739 C 0.95871 0.16103 0.41774 0.0
C1740 C 0.79248 0.92538 0.43806 0.0
C1741 C 0.81488 0.9583 0.43761 0.0
C1742 C 0.86923 0.02428 0.41573 0.0
C1743 C 0.90802 0.11349 0.42359 0.0
C1744 C 0.88719 0.07779 0.42435 0.0
C1745 C 0.82468 0.97447 0.42598 0.0
C1746 C 0.84661 0.01001 0.42552 0.0
H1747 H 0.90609 0.1821 0.43011 0.0
H1748 H 0.87209 0.12399 0.43114 0.0
H1749 H 0.90549 0.0678 0.40722 0.0
H1750 H 0.78079 0.91051 0.40651 0.0
H1751 H 0.81898 0.96813 0.40566 0.0
C1752 C 0.1401 0.8989 0.41843 0.0
C1753 C 0.15529 0.90192 0.43007 0.0
C1754 C 0.10713 0.88818 0.41791 0.0
C1755 C 0.03258 0.84522 0.43733 0.0
H1756 H 0.99688 0.87198 0.41026 0.0
C1757 C 0.89575 0.7811 0.42827 0.0
C1758 C 0.88215 0.79862 0.4231 0.0
C1759 C 0.92913 0.79505 0.4295 0.0
C1760 C 1.00634 0.86459 0.41803 0.0
H1761 H 0.14865 0.89773 0.45029 0.0
H1762 H 0.09146 0.88077 0.4495 0.0
H1763 H 0.0548 0.89558 0.41196 0.0
H1764 H 0.89354 0.84518 0.41536 0.0
H1765 H 0.95133 0.87011 0.41833 0.0
H1766 H 0.98432 0.81562 0.44383 0.0
C1767 C 0.10451 0.8854 0.44071 0.0
C1768 C 0.03971 0.87774 0.41887 0.0
C1769 C 0.13736 0.89549 0.4412 0.0
C1770 C 0.90291 0.83089 0.41954 0.0
C1771 C 0.93628 0.84509 0.42102 0.0
C1772 C 0.99928 0.83261 0.43666 0.0
C1773 C 0.08878 0.88097 0.42905 0.0
C1774 C 0.0533 0.868 0.42846 0.0
C1775 C 0.94992 0.82724 0.42587 0.0
C1776 C 0.98561 0.84182 0.42692 0.0
H1777 H 0.15333 0.90325 0.40969 0.0
H1778 H 0.09592 0.88447 0.40874 0.0
H1779 H 0.04194 0.83663 0.44474 0.0
H1780 H 0.88065 0.75643 0.43138 0.0
H1781 H 0.93853 0.78024 0.43309 0.0
C1782 C 0.46187 0.92341 0.2378 0.0
C1783 C 0.44238 0.91942 0.24831 0.0
C1784 C 0.4817 0.90977 0.23762 0.0
C1785 C 0.52532 0.88422 0.2584 0.0
H1786 H 0.53001 0.83877 0.22896 0.0
C1787 C 0.60617 0.82656 0.25782 0.0
C1788 C 0.62145 0.82716 0.24646 0.0
C1789 C 0.5828 0.83589 0.25814 0.0
C1790 C 0.52947 0.85183 0.2372 0.0
H1791 H 0.42793 0.89767 0.2668 0.0
H1792 H 0.46307 0.87403 0.26656 0.0
H1793 H 0.49202 0.85851 0.22931 0.0
H1794 H 0.62312 0.83623 0.22643 0.0
H1795 H 0.58392 0.8544 0.22702 0.0
H1796 H 0.56357 0.87886 0.26614 0.0
C1797 C 0.46289 0.88772 0.25846 0.0
C1798 C 0.50747 0.86293 0.23741 0.0
C1799 C 0.44266 0.90101 0.25857 0.0
C1800 C 0.61226 0.83633 0.23536 0.0
C1801 C 0.58933 0.84621 0.2357 0.0
C1802 C 0.54771 0.87359 0.25812 0.0
C1803 C 0.48275 0.89215 0.24801 0.0
C1804 C 0.50519 0.87926 0.24801 0.0
C1805 C 0.57433 0.84627 0.24711 0.0
C1806 C 0.55014 0.85725 0.2475 0.0
H1807 H 0.4619 0.93728 0.22973 0.0
H1808 H 0.49687 0.91373 0.22947 0.0
H1809 H 0.52438 0.89714 0.26662 0.0
H1810 H 0.61263 0.81937 0.26652 0.0
H1811 H 0.57134 0.83483 0.26706 0.0
C1812 C 0.23335 0.8042 0.23749 0.0
C1813 C 0.23456 0.82048 0.24863 0.0
C1814 C 0.22424 0.77154 0.23782 0.0
C1815 C 0.21452 0.70737 0.26027 0.0
H1816 H 0.16908 0.65087 0.23215 0.0
C1817 C 0.16723 0.57127 0.26253 0.0
C1818 C 0.1795 0.56039 0.25291 0.0
C1819 C 0.16932 0.60135 0.26155 0.0
C1820 C 0.18168 0.66645 0.24007 0.0
H1821 H 0.22657 0.8156 0.2688 0.0
H1822 H 0.20944 0.7586 0.26938 0.0
H1823 H 0.18213 0.70715 0.23157 0.0
H1824 H 0.20216 0.57107 0.23456 0.0
H1825 H 0.20498 0.62347 0.23262 0.0
H1826 H 0.21332 0.66637 0.26885 0.0
C1827 C 0.21665 0.77097 0.26041 0.0
C1828 C 0.18946 0.69875 0.23971 0.0
C1829 C 0.22641 0.80369 0.2601 0.0
C1830 C 0.19221 0.57901 0.24199 0.0
C1831 C 0.19382 0.60885 0.24091 0.0
C1832 C 0.20616 0.67501 0.26072 0.0
C1833 C 0.21566 0.75445 0.24929 0.0
C1834 C 0.20629 0.71974 0.24976 0.0
C1835 C 0.18333 0.6207 0.25085 0.0
C1836 C 0.18991 0.65433 0.25059 0.0
H1837 H 0.23951 0.81675 0.22854 0.0
H1838 H 0.22425 0.75988 0.22908 0.0
H1839 H 0.22812 0.7228 0.26806 0.0
H1840 H 0.15775 0.55735 0.2711 0.0
H1841 H 0.161 0.60998 0.26931 0.0
C1842 C 0.49064 0.62202 0.25446 0.0
C1843 C 0.51017 0.61122 0.24883 0.0
C1844 C 0.45698 0.60327 0.25391 0.0
C1845 C 0.39016 0.53156 0.23758 0.0
H1846 H 0.34049 0.53244 0.26625 0.0
C1847 C 0.25173 0.45578 0.23726 0.0
C1848 C 0.2364 0.44113 0.24859 0.0
C1849 C 0.28445 0.47907 0.23714 0.0
C1850 C 0.35396 0.53156 0.25821 0.0
H1851 H 0.50915 0.57249 0.23783 0.0
H1852 H 0.45103 0.53909 0.23762 0.0
H1853 H 0.39868 0.5669 0.26632 0.0
H1854 H 0.24276 0.43943 0.26872 0.0
H1855 H 0.30008 0.47908 0.26854 0.0
H1856 H 0.3458 0.49464 0.22986 0.0
C1857 C 0.4615 0.56241 0.24218 0.0
C1858 C 0.38744 0.55186 0.25815 0.0
C1859 C 0.49507 0.5814 0.24251 0.0
C1860 C 0.25401 0.45073 0.25988 0.0
C1861 C 0.28689 0.47356 0.25975 0.0
C1862 C 0.35681 0.51082 0.23776 0.0
C1863 C 0.44192 0.57297 0.24792 0.0
C1864 C 0.40606 0.55211 0.24784 0.0
C1865 C 0.3027 0.48776 0.24835 0.0
C1866 C 0.3382 0.51051 0.24807 0.0
H1867 H 0.50124 0.64465 0.25954 0.0
H1868 H 0.44285 0.61261 0.25825 0.0
H1869 H 0.40342 0.53135 0.22935 0.0
H1870 H 0.23851 0.44874 0.22845 0.0
H1871 H 0.29548 0.48989 0.22822 0.0
C1872 C 0.82867 0.59855 0.77295 0.0
C1873 C 0.8243 0.61205 0.76193 0.0
C1874 C 0.83757 0.5749 0.77223 0.0
C1875 C 0.83831 0.51556 0.75009 0.0
H1876 H 0.89864 0.51385 0.77406 0.0
C1877 C 0.8846 0.4276 0.74357 0.0
C1878 C 0.8832 0.40967 0.75422 0.0
C1879 C 0.88157 0.45494 0.74481 0.0
C1880 C 0.88167 0.51398 0.76734 0.0
H1881 H 0.82594 0.61189 0.74154 0.0
H1882 H 0.84193 0.57109 0.74022 0.0
H1883 H 0.8843 0.55611 0.77557 0.0
H1884 H 0.87883 0.40639 0.77452 0.0
H1885 H 0.87327 0.45442 0.77677 0.0
H1886 H 0.83565 0.47365 0.74184 0.0
C1887 C 0.83785 0.57807 0.74944 0.0
C1888 C 0.87334 0.53808 0.76823 0.0
C1889 C 0.82864 0.60142 0.75017 0.0
C1890 C 0.88035 0.42026 0.76622 0.0
C1891 C 0.87716 0.44764 0.76748 0.0
C1892 C 0.84677 0.49172 0.74916 0.0
C1893 C 0.84237 0.56446 0.76045 0.0
C1894 C 0.85154 0.53911 0.75959 0.0
C1895 C 0.87672 0.46464 0.75673 0.0
C1896 C 0.86858 0.49066 0.75774 0.0
H1897 H 0.82539 0.60644 0.78213 0.0
H1898 H 0.84045 0.56468 0.7809 0.0
H1899 H 0.82091 0.51515 0.74345 0.0
H1900 H 0.88667 0.41963 0.73423 0.0
H1901 H 0.88194 0.46788 0.73638 0.0
C1902 C 0.62259 0.48681 0.75382 0.0
C1903 C 0.61196 0.50665 0.75928 0.0
C1904 C 0.60362 0.45318 0.75447 0.0
C1905 C 0.53232 0.38701 0.77113 0.0
H1906 H 0.53195 0.33639 0.74256 0.0
C1907 C 0.45885 0.24791 0.77204 0.0
C1908 C 0.4433 0.23228 0.76085 0.0
C1909 C 0.48133 0.28095 0.77203 0.0
C1910 C 0.53147 0.35013 0.75059 0.0
H1911 H 0.57321 0.50625 0.77005 0.0
H1912 H 0.53955 0.44807 0.77054 0.0
H1913 H 0.56633 0.39462 0.74218 0.0
H1914 H 0.43936 0.23849 0.74083 0.0
H1915 H 0.47773 0.29613 0.74082 0.0
H1916 H 0.49612 0.3427 0.77923 0.0
C1917 C 0.56287 0.45833 0.766 0.0
C1918 C 0.55168 0.38362 0.75046 0.0
C1919 C 0.58202 0.49189 0.76551 0.0
C1920 C 0.45121 0.24997 0.74958 0.0
C1921 C 0.47334 0.28303 0.74959 0.0
C1922 C 0.51178 0.35358 0.77118 0.0
C1923 C 0.5733 0.43844 0.76045 0.0
C1924 C 0.55237 0.40259 0.76072 0.0
C1925 C 0.48852 0.29908 0.76083 0.0
C1926 C 0.51103 0.33465 0.7609 0.0
H1927 H 0.64532 0.49715 0.74882 0.0
H1928 H 0.61282 0.43878 0.75027 0.0
H1929 H 0.53245 0.4006 0.77931 0.0
H1930 H 0.4533 0.23465 0.78082 0.0
H1931 H 0.4929 0.29228 0.78083 0.0
C1932 C 0.5913 0.20158 0.76715 0.0
C1933 C 0.57276 0.18877 0.75621 0.0
C1934 C 0.62121 0.20332 0.76828 0.0
C1935 C 0.68773 0.21472 0.74881 0.0
H1936 H 0.71752 0.18831 0.778 0.0
C1937 C 0.81409 0.22873 0.74981 0.0
C1938 C 0.83056 0.23578 0.76134 0.0
C1939 C 0.78186 0.22087 0.74938 0.0
C1940 C 0.70981 0.19633 0.76986 0.0
H1941 H 0.56993 0.16709 0.73802 0.0
H1942 H 0.62271 0.17064 0.73988 0.0
H1943 H 0.66189 0.17724 0.7772 0.0
H1944 H 0.82684 0.24081 0.78143 0.0
H1945 H 0.77091 0.22875 0.78069 0.0
H1946 H 0.73562 0.23532 0.74166 0.0
C1947 C 0.61401 0.17899 0.74761 0.0
C1948 C 0.67786 0.1897 0.76938 0.0
C1949 C 0.58388 0.17678 0.74658 0.0
C1950 C 0.81451 0.23544 0.77243 0.0
C1951 C 0.78238 0.22817 0.77199 0.0
C1952 C 0.71978 0.22195 0.74939 0.0
C1953 C 0.63318 0.19284 0.75837 0.0
C1954 C 0.66656 0.19873 0.75883 0.0
C1955 C 0.76555 0.22062 0.76045 0.0
C1956 C 0.73129 0.2128 0.7599 0.0
H1957 H 0.58311 0.2112 0.77461 0.0
H1958 H 0.63567 0.2143 0.77662 0.0
H1959 H 0.67971 0.22243 0.74066 0.0
H1960 H 0.82582 0.22835 0.74115 0.0
H1961 H 0.76966 0.21446 0.74036 0.0
C1962 C 0.06794 0.16952 0.58326 0.0
C1963 C 0.07254 0.20008 0.58631 0.0
C1964 C 0.0943 0.1652 0.5813 0.0
C1965 C 0.15197 0.15922 0.58821 0.0
H1966 H 0.22936 0.21742 0.56966 0.0
C1967 C 0.26839 0.15292 0.59187 0.0
C1968 C 0.28459 0.1552 0.58056 0.0
C1969 C 0.243 0.15932 0.59207 0.0
C1970 C 0.20779 0.20088 0.5748 0.0
H1971 H 0.10831 0.25049 0.58897 0.0
H1972 H 0.15467 0.24293 0.5855 0.0
H1973 H 0.18377 0.22716 0.57012 0.0
H1974 H 0.28647 0.16495 0.56054 0.0
H1975 H 0.24219 0.17649 0.56091 0.0
H1976 H 0.17565 0.13278 0.59284 0.0
C1977 C 0.13057 0.22234 0.58462 0.0
C1978 C 0.18186 0.20661 0.57516 0.0
C1979 C 0.10407 0.22667 0.58659 0.0
C1980 C 0.27465 0.1635 0.56942 0.0
C1981 C 0.2494 0.17016 0.56963 0.0
C1982 C 0.17783 0.15359 0.58791 0.0
C1983 C 0.1259 0.19135 0.58233 0.0
C1984 C 0.15363 0.18571 0.58182 0.0
C1985 C 0.23331 0.1681 0.58096 0.0
C1986 C 0.20599 0.17433 0.5812 0.0
H1987 H 0.04388 0.1487 0.58271 0.0
H1988 H 0.08994 0.14118 0.57925 0.0
H1989 H 0.13075 0.14296 0.5936 0.0
H1990 H 0.27571 0.14684 0.60063 0.0
H1991 H 0.23124 0.15785 0.60096 0.0
C1992 C 0.83288 0.90408 0.59111 0.0
C1993 C 0.80078 0.88319 0.58735 0.0
C1994 C 0.8469 0.93749 0.58969 0.0
C1995 C 0.83462 1.00026 0.57376 0.0
H1996 H 0.89432 0.05576 0.5994 0.0
C1997 C 0.89651 0.13845 0.56977 0.0
C1998 C 0.90105 0.15595 0.5809 0.0
C1999 C 0.88661 0.10565 0.57026 0.0
C2000 C 0.87741 0.04064 0.59222 0.0
H2001 H 0.75883 0.88139 0.57868 0.0
H2002 H 0.78237 0.93923 0.57695 0.0
H2003 H 0.87185 0.99783 0.60081 0.0
H2004 H 0.89936 0.15347 0.60127 0.0
H2005 H 0.88099 0.09599 0.60221 0.0
H2006 H 0.83856 0.04283 0.56562 0.0
C2007 C 0.79714 0.92997 0.58073 0.0
C2008 C 0.86491 1.00732 0.59291 0.0
C2009 C 0.78335 0.89662 0.58194 0.0
C2010 C 0.89629 0.14044 0.59256 0.0
C2011 C 0.88585 0.10751 0.59307 0.0
C2012 C 0.84665 0.0335 0.57321 0.0
C2013 C 0.82906 0.95095 0.58464 0.0
C2014 C 0.84327 0.98662 0.5837 0.0
C2015 C 0.88062 0.08957 0.58191 0.0
C2016 C 0.86823 0.05418 0.58242 0.0
H2017 H 0.84706 0.89477 0.59542 0.0
H2018 H 0.87172 0.95272 0.59261 0.0
H2019 H 0.81849 0.98532 0.56636 0.0
H2020 H 0.90027 0.1501 0.56068 0.0
H2021 H 0.88349 0.09291 0.56147 0.0
C2022 C 0.16059 0.95659 0.5895 0.0
C2023 C 0.18078 0.94571 0.58459 0.0
C2024 C 0.12702 0.93733 0.58875 0.0
C2025 C 0.06186 0.86382 0.57275 0.0
H2026 H 1.00994 0.86655 0.60021 0.0
C2027 C 0.92328 0.78974 0.57082 0.0
C2028 C 0.90683 0.77592 0.58208 0.0
C2029 C 0.95625 0.81218 0.57098 0.0
C2030 C 0.02405 0.86516 0.59252 0.0
H2031 H 0.18105 0.9062 0.57466 0.0
H2032 H 0.12301 0.87201 0.57409 0.0
H2033 H 0.06809 0.9013 0.60081 0.0
H2034 H 0.91155 0.77466 0.60233 0.0
H2035 H 0.96927 0.81297 0.60265 0.0
H2036 H 0.01809 0.82622 0.56486 0.0
C2037 C 0.13293 0.89575 0.57825 0.0
C2038 C 0.0575 0.88559 0.59275 0.0
C2039 C 0.16643 0.91522 0.57879 0.0
C2040 C 0.92366 0.78536 0.59354 0.0
C2041 C 0.95676 0.80738 0.5937 0.0
C2042 C 0.02852 0.84298 0.57264 0.0
C2043 C 0.11269 0.90645 0.58324 0.0
C2044 C 0.07691 0.88522 0.58287 0.0
C2045 C 0.97359 0.82092 0.5824 0.0
C2046 C 1.00912 0.8434 0.5825 0.0
H2047 H 0.17062 0.97976 0.59417 0.0
H2048 H 0.11235 0.94674 0.5925 0.0
H2049 H 0.07578 0.86309 0.56485 0.0
H2050 H 0.91068 0.78282 0.56187 0.0
H2051 H 0.96814 0.82248 0.56211 0.0
C2052 C 0.50172 0.9966 0.05196 0.0
C2053 C 0.51191 0.02605 0.05821 0.0
C2054 C 0.50557 0.9957 0.03899 0.0
C2055 C 0.54858 0.04334 0.01109 0.0
H2056 H 0.47112 0.98128 0.99342 0.0
C2057 C 0.53343 0.04856 0.95744 0.0
C2058 C 0.51352 0.02006 0.95073 0.0
C2059 C 0.53662 0.04803 0.97048 0.0
C2060 C 0.49321 0.99828 0.99817 0.0
H2061 H 0.53606 0.07788 0.0559 0.0
H2062 H 0.54331 0.07642 0.03301 0.0
H2063 H 0.47103 0.98388 0.01631 0.0
H2064 H 0.48311 0.9683 0.95226 0.0
H2065 H 0.48953 0.967 0.97514 0.0
H2066 H 0.57089 0.05765 0.99297 0.0
C2067 C 0.53208 0.05399 0.03824 0.0
C2068 C 0.49309 0.99991 0.01132 0.0
C2069 C 0.52805 0.05487 0.05132 0.0
C2070 C 0.49857 0.99061 0.95722 0.0
C2071 C 0.50193 0.99001 0.97034 0.0
C2072 C 0.54884 0.04149 0.99792 0.0
C2073 C 0.52 0.02426 0.03191 0.0
C2074 C 0.52069 0.02256 0.01793 0.0
C2075 C 0.52034 0.01887 0.97719 0.0
C2076 C 0.52105 0.01912 0.99126 0.0
H2077 H 0.48945 0.97397 0.05704 0.0
H2078 H 0.4966 0.9725 0.03444 0.0
H2079 H 0.5703 0.0608 0.01594 0.0
H2080 H 0.54537 0.07165 0.95268 0.0
H2081 H 0.55065 0.0708 0.97534 0.0
C2082 C 0.07065 0.50958 0.95862 0.0
C2083 C 0.0497 0.51496 0.95109 0.0
C2084 C 0.06816 0.50942 0.97182 0.0
C2085 C 0.03547 0.53477 0.99826 0.0
H2086 H 0.0274 0.45985 0.01566 0.0
C2087 C 0.03772 0.52402 0.05236 0.0
C2088 C 0.01528 0.49473 0.05802 0.0
C2089 C 0.03978 0.52725 0.03929 0.0
C2090 C 0.02937 0.48077 0.0109 0.0
H2091 H 1.01034 0.52496 0.95132 0.0
H2092 H 1.00702 0.52623 0.97418 0.0
H2093 H 0.03953 0.46664 0.99306 0.0
H2094 H 0.97795 0.44552 0.05445 0.0
H2095 H 0.98166 0.45098 0.03133 0.0
H2096 H 0.02583 0.54917 0.01611 0.0
C2097 C 0.02536 0.52219 0.97003 0.0
C2098 C 0.03671 0.48487 0.998 0.0
C2099 C 0.02745 0.52175 0.95692 0.0
C2100 C 0.99448 0.46872 0.05031 0.0
C2101 C 0.99703 0.47172 0.03712 0.0
C2102 C 0.02868 0.53095 0.01117 0.0
C2103 C 0.04501 0.51511 0.97764 0.0
C2104 C 0.03966 0.51185 0.99152 0.0
C2105 C 0.0201 0.50093 0.0315 0.0
C2106 C 0.0254 0.50385 0.01763 0.0
H2107 H 0.0872 0.50317 0.95432 0.0
H2108 H 0.08361 0.50387 0.97746 0.0
H2109 H 0.03763 0.55583 0.99354 0.0
H2110 H 0.05504 0.54398 0.05807 0.0
H2111 H 0.05814 0.54985 0.03527 0.0
C2112 C 0.56992 0.53282 0.95884 0.0
C2113 C 0.55732 0.54977 0.95243 0.0
C2114 C 0.56758 0.52955 0.97193 0.0
C2115 C 0.55459 0.56719 1.00029 0.0
H2116 H 0.55136 0.49389 0.0173 0.0
C2117 C 0.53862 0.5512 0.0538 0.0
C2118 C 0.56071 0.54535 0.06036 0.0
C2119 C 0.53631 0.54879 0.04071 0.0
C2120 C 0.55251 0.51459 0.01267 0.0
H2121 H 0.53044 0.57473 0.95461 0.0
H2122 H 0.52496 0.56784 0.97751 0.0
H2123 H 0.54835 0.49428 0.99434 0.0
H2124 H 0.59604 0.53007 0.05845 0.0
H2125 H 0.59153 0.52509 0.03531 0.0
H2126 H 0.55811 0.58712 0.01869 0.0
C2127 C 0.53779 0.55806 0.97246 0.0
C2128 C 0.55083 0.51492 0.99949 0.0
C2129 C 0.54049 0.56166 0.95931 0.0
C2130 C 0.5789 0.53478 0.05361 0.0
C2131 C 0.57637 0.53206 0.0404 0.0
C2132 C 0.55584 0.56664 0.01345 0.0
C2133 C 0.55199 0.5426 0.97899 0.0
C2134 C 0.55199 0.54131 0.99309 0.0
C2135 C 0.55567 0.53997 0.03382 0.0
C2136 C 0.55486 0.54038 0.0198 0.0
H2137 H 0.58285 0.52313 0.95379 0.0
H2138 H 0.57921 0.51785 0.9765 0.0
H2139 H 0.55638 0.5883 0.99579 0.0
H2140 H 0.52374 0.55874 0.05877 0.0
H2141 H 0.51963 0.55433 0.03596 0.0
C2142 C 0.19325 0.39465 0.38584 0.0
C2143 C 0.18036 0.36599 0.39286 0.0
C2144 C 0.19602 0.39378 0.37266 0.0
C2145 C 0.15619 0.33958 0.34629 0.0
H2146 H 0.23353 0.39241 0.32686 0.0
C2147 C 0.1562 0.32471 0.29212 0.0
C2148 C 0.1735 0.35328 0.2852 0.0
C2149 C 0.15999 0.32501 0.30528 0.0
C2150 C 0.2115 0.37773 0.33208 0.0
H2151 H 0.16269 0.31455 0.39175 0.0
H2152 H 0.16704 0.31311 0.36899 0.0
H2153 H 0.23481 0.39819 0.34974 0.0
H2154 H 0.20981 0.40392 0.28639 0.0
H2155 H 0.21558 0.40482 0.30898 0.0
H2156 H 0.1323 0.31996 0.32878 0.0
C2157 C 0.17463 0.33608 0.37355 0.0
C2158 C 0.21238 0.38108 0.34521 0.0
C2159 C 0.17233 0.33701 0.3866 0.0
C2160 C 0.19599 0.38151 0.2915 0.0
C2161 C 0.19948 0.38194 0.30454 0.0
C2162 C 0.15509 0.33665 0.33315 0.0
C2163 C 0.18569 0.36423 0.3664 0.0
C2164 C 0.18477 0.36195 0.35244 0.0
C2165 C 0.18107 0.35392 0.31171 0.0
C2166 C 0.18274 0.35567 0.32581 0.0
H2167 H 0.19954 0.41727 0.39043 0.0
H2168 H 0.20476 0.41587 0.36732 0.0
H2169 H 0.13446 0.32465 0.35166 0.0
H2170 H 0.13869 0.30265 0.28749 0.0
H2171 H 0.14586 0.30271 0.31041 0.0
C2172 C 0.71729 0.86028 0.38455 0.0
C2173 C 0.68964 0.83834 0.39129 0.0
C2174 C 0.71639 0.86296 0.37152 0.0
C2175 C 0.66875 0.81711 0.34365 0.0
H2176 H 0.72772 0.89648 0.32629 0.0
C2177 C 0.66794 0.82873 0.28981 0.0
C2178 C 0.69776 0.83972 0.28374 0.0
C2179 C 0.66637 0.83151 0.30282 0.0
C2180 C 0.71126 0.87415 0.33102 0.0
H2181 H 0.63875 0.8036 0.38979 0.0
H2182 H 0.63657 0.80918 0.36685 0.0
H2183 H 0.72355 0.89626 0.34921 0.0
H2184 H 0.74952 0.8644 0.28643 0.0
H2185 H 0.74685 0.87016 0.30938 0.0
H2186 H 0.65607 0.79531 0.32535 0.0
C2187 C 0.65936 0.82356 0.37165 0.0
C2188 C 0.70885 0.8739 0.34418 0.0
C2189 C 0.66039 0.82064 0.3848 0.0
C2190 C 0.72624 0.85571 0.29087 0.0
C2191 C 0.72467 0.85887 0.30397 0.0
C2192 C 0.67079 0.81752 0.33049 0.0
C2193 C 0.6876 0.84425 0.3648 0.0
C2194 C 0.68788 0.84526 0.35071 0.0
C2195 C 0.69461 0.84592 0.3101 0.0
C2196 C 0.69229 0.84595 0.32405 0.0
H2197 H 0.74019 0.87452 0.38932 0.0
H2198 H 0.73879 0.87876 0.3667 0.0
H2199 H 0.65283 0.79444 0.34826 0.0
H2200 H 0.64556 0.81669 0.28455 0.0
H2201 H 0.64293 0.82186 0.30724 0.0
C2202 C 0.2071 0.91002 0.29177 0.0
C2203 C 0.21485 0.88985 0.28489 0.0
C2204 C 0.20434 0.90735 0.30497 0.0
C2205 C 0.20119 0.85451 0.33208 0.0
H2206 H 0.23257 0.93367 0.35114 0.0
C2207 C 0.23817 0.87265 0.38568 0.0
C2208 C 0.22332 0.88653 0.39268 0.0
C2209 C 0.2348 0.87022 0.37249 0.0
C2210 C 0.22377 0.91138 0.34591 0.0
H2211 H 0.22359 0.84971 0.28623 0.0
H2212 H 0.2203 0.84592 0.30888 0.0
H2213 H 0.22951 0.93507 0.32824 0.0
H2214 H 0.19111 0.90611 0.39149 0.0
H2215 H 0.18628 0.90283 0.36868 0.0
H2216 H 0.19691 0.83133 0.34989 0.0
C2217 C 0.21561 0.86344 0.30438 0.0
C2218 C 0.22159 0.91205 0.33277 0.0
C2219 C 0.21782 0.8658 0.2913 0.0
C2220 C 0.20358 0.89605 0.38636 0.0
C2221 C 0.20077 0.89423 0.37328 0.0
C2222 C 0.20408 0.85403 0.3452 0.0
C2223 C 0.20948 0.88455 0.3115 0.0
C2224 C 0.21022 0.88361 0.32562 0.0
C2225 C 0.21681 0.88192 0.36618 0.0
C2226 C 0.21527 0.88243 0.35223 0.0
H2227 H 0.20472 0.92877 0.28704 0.0
H2228 H 0.19883 0.9236 0.31004 0.0
H2229 H 0.19162 0.83189 0.32705 0.0
H2230 H 0.25334 0.86496 0.39032 0.0
H2231 H 0.24724 0.86042 0.36718 0.0
C2232 C 0.83117 0.66743 0.71932 0.0
C2233 C 0.84033 0.69643 0.72579 0.0
C2234 C 0.83381 0.66698 0.70627 0.0
C2235 C 0.87445 0.71309 0.67841 0.0
H2236 H 0.79487 0.65411 0.66115 0.0
C2237 C 0.86141 0.71657 0.6246 0.0
C2238 C 0.8389 0.68882 0.61804 0.0
C2239 C 0.86411 0.71634 0.63766 0.0
C2240 C 0.81752 0.6702 0.66576 0.0
H2241 H 0.86196 0.74812 0.72373 0.0
H2242 H 0.86765 0.74751 0.70063 0.0
H2243 H 0.79572 0.65763 0.68406 0.0
H2244 H 0.8033 0.6383 0.61991 0.0
H2245 H 0.80908 0.63715 0.64286 0.0
H2246 H 0.89672 0.72499 0.66026 0.0
C2247 C 0.85769 0.72505 0.7058 0.0
C2248 C 0.81788 0.67246 0.67891 0.0
C2249 C 0.85457 0.72545 0.71898 0.0
C2250 C 0.8208 0.66001 0.62474 0.0
C2251 C 0.8238 0.65962 0.63791 0.0
C2252 C 0.87429 0.71041 0.66526 0.0
C2253 C 0.84638 0.69561 0.69933 0.0
C2254 C 0.84627 0.69404 0.68536 0.0
C2255 C 0.84489 0.68808 0.64459 0.0
C2256 C 0.84573 0.68912 0.6587 0.0
H2257 H 0.82073 0.64468 0.72431 0.0
H2258 H 0.82551 0.64406 0.70157 0.0
H2259 H 0.89675 0.72959 0.68317 0.0
H2260 H 0.87589 0.73915 0.61967 0.0
H2261 H 0.88027 0.73889 0.6423 0.0
C2262 C 0.34985 0.17531 0.62362 0.0
C2263 C 0.37442 0.17235 0.61763 0.0
C2264 C 0.34815 0.17577 0.63672 0.0
C2265 C 0.36572 0.1444 0.66477 0.0
H2266 H 0.3534 0.20824 0.68257 0.0
C2267 C 0.3292 0.1317 0.71762 0.0
C2268 C 0.3502 0.15865 0.72486 0.0
C2269 C 0.33027 0.13357 0.70441 0.0
C2270 C 0.3567 0.19019 0.67771 0.0
H2271 H 0.41611 0.16688 0.62059 0.0
H2272 H 0.41286 0.1671 0.64378 0.0
H2273 H 0.36223 0.21291 0.65976 0.0
H2274 H 0.38845 0.20854 0.72417 0.0
H2275 H 0.38913 0.21237 0.70126 0.0
H2276 H 0.35973 0.12144 0.68273 0.0
C2277 C 0.3954 0.16984 0.63823 0.0
C2278 C 0.36179 0.19288 0.66469 0.0
C2279 C 0.39758 0.17019 0.62502 0.0
C2280 C 0.37125 0.18776 0.71878 0.0
C2281 C 0.37184 0.18985 0.70567 0.0
C2282 C 0.36007 0.14139 0.67779 0.0
C2283 C 0.37045 0.17234 0.64418 0.0
C2284 C 0.36653 0.17014 0.65809 0.0
C2285 C 0.352 0.16259 0.69832 0.0
C2286 C 0.35566 0.16436 0.6844 0.0
H2287 H 0.33119 0.17613 0.61812 0.0
H2288 H 0.32847 0.17734 0.64104 0.0
H2289 H 0.3689 0.12632 0.65989 0.0
H2290 H 0.31356 0.10874 0.72213 0.0
H2291 H 0.31478 0.11218 0.69896 0.0
C2292 C 0.90348 0.20298 0.62426 0.0
C2293 C 0.89016 0.21969 0.61816 0.0
C2294 C 0.90116 0.19876 0.63729 0.0
C2295 C 0.88672 0.23331 0.66622 0.0
H2296 H 0.88634 0.16019 0.68218 0.0
C2297 C 0.87154 0.21371 0.71943 0.0
C2298 C 0.89556 0.21035 0.72569 0.0
C2299 C 0.86852 0.211 0.70638 0.0
C2300 C 0.88665 0.1808 0.67783 0.0
H2301 H 0.8621 0.24327 0.62084 0.0
H2302 H 0.85663 0.23465 0.64367 0.0
H2303 H 0.88284 0.1619 0.65925 0.0
H2304 H 0.93385 0.1993 0.72334 0.0
H2305 H 0.92807 0.19365 0.70023 0.0
H2306 H 0.88977 0.25173 0.68487 0.0
C2307 C 0.86999 0.22582 0.6384 0.0
C2308 C 0.88472 0.18191 0.66468 0.0
C2309 C 0.8727 0.23041 0.6253 0.0
C2310 C 0.91501 0.20175 0.71873 0.0
C2311 C 0.91181 0.19875 0.70554 0.0
C2312 C 0.88816 0.23194 0.67934 0.0
C2313 C 0.88486 0.21057 0.64461 0.0
C2314 C 0.88491 0.2083 0.65867 0.0
C2315 C 0.88924 0.20449 0.69925 0.0
C2316 C 0.88821 0.20572 0.68528 0.0
H2317 H 0.91693 0.1942 0.61901 0.0
H2318 H 0.91334 0.18733 0.64162 0.0
H2319 H 0.88776 0.25441 0.66201 0.0
H2320 H 0.85601 0.22008 0.72458 0.0
H2321 H 0.85053 0.21494 0.70181 0.0
C2322 C 0.27093 0.94318 0.20495 0.0
C2323 C 0.28518 0.93832 0.21571 0.0
C2324 C 0.28907 0.95591 0.19381 0.0
C2325 C 0.37452 1.00214 0.18253 0.0
H2326 H 0.34014 0.96116 0.15033 0.0
C2327 C 0.45 0.03962 0.13566 0.0
C2328 C 0.44569 0.01355 0.12816 0.0
C2329 C 0.43013 0.03427 0.14625 0.0
C2330 C 0.35013 0.97295 0.15926 0.0
H2331 H 0.33006 0.9429 0.22285 0.0
H2332 H 0.36057 0.9645 0.2039 0.0
H2333 H 0.30489 0.94473 0.16877 0.0
H2334 H 0.41831 0.96131 0.12637 0.0
H2335 H 0.38445 0.95229 0.14454 0.0
H2336 H 0.42008 0.02937 0.17313 0.0
C2337 C 0.33574 0.95915 0.204 0.0
C2338 C 0.32976 0.96375 0.1698 0.0
C2339 C 0.31781 0.94632 0.21494 0.0
C2340 C 0.42215 0.98213 0.13179 0.0
C2341 C 0.40238 0.97688 0.14219 0.0
C2342 C 0.39486 0.01141 0.17198 0.0
C2343 C 0.32187 0.96438 0.19329 0.0
C2344 C 0.34191 0.97757 0.18166 0.0
C2345 C 0.40552 1.00281 0.14943 0.0
C2346 C 0.38315 0.99629 0.16028 0.0
H2347 H 0.24597 0.93736 0.20514 0.0
H2348 H 0.27759 0.95953 0.18567 0.0
H2349 H 0.38462 0.01364 0.19148 0.0
H2350 H 0.46772 0.06409 0.13307 0.0
H2351 H 0.43331 0.0548 0.15168 0.0
C2352 C 0.02438 0.44474 0.13773 0.0
C2353 C 0.0412 0.44683 0.12657 0.0
C2354 C 0.0307 0.43298 0.14891 0.0
C2355 C 0.07038 0.38694 0.16036 0.0
H2356 H 0.07507 0.42837 0.19224 0.0
C2357 C 0.10632 0.34927 0.20735 0.0
C2358 C 0.12494 0.37436 0.21583 0.0
C2359 C 0.09323 0.35532 0.19651 0.0
C2360 C 0.07412 0.41663 0.1834 0.0
H2361 H 0.07841 0.43844 0.11869 0.0
H2362 H 0.08948 0.41906 0.13781 0.0
H2363 H 0.0571 0.44422 0.17351 0.0
H2364 H 0.14597 0.42574 0.21919 0.0
H2365 H 0.12427 0.43629 0.20037 0.0
H2366 H 0.08898 0.36055 0.17011 0.0
C2367 C 0.07077 0.42548 0.138 0.0
C2368 C 0.06327 0.42542 0.17266 0.0
C2369 C 0.06448 0.43702 0.12695 0.0
C2370 C 0.13133 0.40569 0.21296 0.0
C2371 C 0.11854 0.41173 0.20219 0.0
C2372 C 0.08148 0.37834 0.17107 0.0
C2373 C 0.05395 0.42305 0.14915 0.0
C2374 C 0.06189 0.41119 0.16092 0.0
C2375 C 0.09869 0.3866 0.19393 0.0
C2376 C 0.08416 0.39354 0.1827 0.0
H2377 H 1.00635 0.45208 0.13783 0.0
H2378 H 0.01717 0.43139 0.15731 0.0
H2379 H 0.06901 0.37487 0.15156 0.0
H2380 H 0.10078 0.32485 0.20936 0.0
H2381 H 0.07804 0.33531 0.19038 0.0
C2382 C 0.65884 0.7696 0.2067 0.0
C2383 C 0.68841 0.78115 0.21297 0.0
C2384 C 0.65074 0.74852 0.19649 0.0
C2385 C 0.68176 0.71212 0.17321 0.0
H2386 H 0.59182 0.64473 0.17287 0.0
C2387 C 0.62869 0.60695 0.13625 0.0
C2388 C 0.60001 0.60182 0.13055 0.0
C2389 C 0.64091 0.62684 0.14698 0.0
C2390 C 0.617 0.6634 0.17278 0.0
H2391 H 0.73323 0.78047 0.21327 0.0
H2392 H 0.71906 0.74319 0.19535 0.0
H2393 H 0.61152 0.68494 0.18952 0.0
H2394 H 0.56107 0.61236 0.1318 0.0
H2395 H 0.58167 0.64603 0.15048 0.0
H2396 H 0.68692 0.69018 0.15635 0.0
C2397 C 0.70228 0.75092 0.1982 0.0
C2398 C 0.62833 0.6867 0.18231 0.0
C2399 C 0.71059 0.77252 0.20839 0.0
C2400 C 0.58308 0.61561 0.13607 0.0
C2401 C 0.59493 0.63496 0.1468 0.0
C2402 C 0.67037 0.68859 0.16365 0.0
C2403 C 0.67173 0.73779 0.19238 0.0
C2404 C 0.6607 0.71189 0.18253 0.0
C2405 C 0.62432 0.64142 0.15229 0.0
C2406 C 0.63765 0.6643 0.16317 0.0
H2407 H 0.64124 0.77577 0.21008 0.0
H2408 H 0.62745 0.73985 0.19206 0.0
H2409 H 0.70681 0.73108 0.17304 0.0
H2410 H 0.64253 0.59713 0.13201 0.0
H2411 H 0.66354 0.63119 0.151 0.0
C2412 C 0.99483 0.41044 0.8819 0.0
C2413 C 0.02322 0.4406 0.88322 0.0
C2414 C 0.98914 0.39161 0.87116 0.0
C2415 C 1.00997 0.39483 0.83769 0.0
H2416 H 0.96668 0.30177 0.84161 0.0
C2417 C 0.94073 0.30989 0.7969 0.0
C2418 C 0.94254 0.28175 0.7949 0.0
C2419 C 0.95371 0.32861 0.80767 0.0
C2420 C 0.97914 0.32768 0.84032 0.0
H2421 H 0.0677 0.47468 0.87391 0.0
H2422 H 0.0575 0.44158 0.85487 0.0
H2423 H 0.98529 0.33644 0.86019 0.0
H2424 H 0.9585 0.25067 0.80307 0.0
H2425 H 0.98114 0.28353 0.8222 0.0
H2426 H 1.00374 0.38606 0.81782 0.0
C2427 C 0.03974 0.43265 0.86235 0.0
C2428 C 0.98954 0.34762 0.85098 0.0
C2429 C 0.0456 0.45164 0.87325 0.0
C2430 C 0.95665 0.27214 0.80431 0.0
C2431 C 0.9697 0.29104 0.81523 0.0
C2432 C 0.99958 0.37488 0.82702 0.0
C2433 C 1.01153 0.40217 0.86127 0.0
C2434 C 1.00438 0.38143 0.84983 0.0
C2435 C 0.96893 0.31991 0.8169 0.0
C2436 C 0.98331 0.341 0.8282 0.0
H2437 H 0.97662 0.40096 0.88919 0.0
H2438 H 0.96676 0.3688 0.87057 0.0
H2439 H 0.02118 0.42067 0.83642 0.0
H2440 H 0.92954 0.31791 0.79002 0.0
H2441 H 0.9517 0.35002 0.80877 0.0
C2442 C 0.61755 0.62499 0.87594 0.0
C2443 C 0.60906 0.5943 0.8806 0.0
C2444 C 0.63716 0.63717 0.86517 0.0
C2445 C 0.66629 0.61225 0.83732 0.0
H2446 H 0.74256 0.69714 0.83938 0.0
C2447 C 0.7682 0.64854 0.80178 0.0
C2448 C 0.78365 0.67992 0.79684 0.0
C2449 C 0.74809 0.64061 0.81228 0.0
C2450 C 0.7212 0.67356 0.83856 0.0
H2451 H 0.61335 0.55194 0.87758 0.0
H2452 H 0.64623 0.5724 0.85863 0.0
H2453 H 0.70251 0.67831 0.85636 0.0
H2454 H 0.79122 0.72806 0.79928 0.0
H2455 H 0.75551 0.7142 0.81769 0.0
H2456 H 0.68441 0.60724 0.8196 0.0
C2457 C 0.63804 0.58726 0.86319 0.0
C2458 C 0.69819 0.66279 0.84829 0.0
C2459 C 0.61908 0.57544 0.87402 0.0
C2460 C 0.78004 0.70381 0.80306 0.0
C2461 C 0.75937 0.69574 0.81355 0.0
C2462 C 0.68902 0.62303 0.8276 0.0
C2463 C 0.64802 0.61856 0.85878 0.0
C2464 C 0.67075 0.63173 0.84789 0.0
C2465 C 0.74225 0.66369 0.81803 0.0
C2466 C 0.71723 0.65354 0.82818 0.0
H2467 H 0.61085 0.64032 0.88107 0.0
H2468 H 0.64436 0.66134 0.86199 0.0
H2469 H 0.64519 0.58843 0.83659 0.0
H2470 H 0.77061 0.62966 0.79716 0.0
H2471 H 0.73634 0.61597 0.81566 0.0
C2472 C 0.35938 0.10817 0.80389 0.0
C2473 C 0.37744 0.11229 0.79288 0.0
C2474 C 0.36571 0.09602 0.81499 0.0
C2475 C 0.40692 0.05119 0.82607 0.0
H2476 H 0.41167 0.09125 0.85829 0.0
C2477 C 0.44427 0.01337 0.87294 0.0
C2478 C 0.46449 0.039 0.88096 0.0
C2479 C 0.43034 0.01901 0.86223 0.0
C2480 C 0.41052 0.07979 0.84935 0.0
H2481 H 0.41684 0.10689 0.78526 0.0
H2482 H 0.42745 0.08651 0.80414 0.0
H2483 H 0.39268 0.10721 0.83981 0.0
H2484 H 0.48725 0.09091 0.88354 0.0
H2485 H 0.46356 0.10047 0.86514 0.0
H2486 H 0.42609 0.0248 0.8355 0.0
C2487 C 0.40798 0.09186 0.80428 0.0
C2488 C 0.39919 0.08869 0.83877 0.0
C2489 C 0.40187 0.10398 0.79336 0.0
C2490 C 0.47143 0.07037 0.87773 0.0
C2491 C 0.45755 0.07592 0.86718 0.0
C2492 C 0.41826 0.04231 0.83664 0.0
C2493 C 0.39001 0.08747 0.81527 0.0
C2494 C 0.39793 0.07507 0.82691 0.0
C2495 C 0.43628 0.05035 0.8594 0.0
C2496 C 0.42094 0.05703 0.84838 0.0
H2497 H 0.34049 0.11433 0.80395 0.0
H2498 H 0.35138 0.09301 0.82331 0.0
H2499 H 0.40582 0.03974 0.81713 0.0
H2500 H 0.43832 0.98893 0.87517 0.0
H2501 H 0.41415 0.99872 0.8564 0.0
C2502 C 0.94759 0.24381 0.53896 0.0
C2503 C 0.9387 0.26328 0.54576 0.0
C2504 C 0.9666 0.2555 0.52813 0.0
C2505 C 0.02895 0.33095 0.51391 0.0
H2506 H 0.01426 0.2768 0.48467 0.0
C2507 C 0.11261 0.37281 0.46926 0.0
C2508 C 0.11562 0.34883 0.46282 0.0
C2509 C 0.09142 0.36456 0.47957 0.0
C2510 C 0.01911 0.29218 0.49282 0.0
H2511 H 0.94245 0.31015 0.54659 0.0
H2512 H 0.97597 0.33091 0.52755 0.0
H2513 H 0.97454 0.25799 0.50149 0.0
H2514 H 0.10088 0.2981 0.46258 0.0
H2515 H 0.0656 0.28404 0.48077 0.0
H2516 H 0.07403 0.36481 0.50535 0.0
C2517 C 0.96788 0.3064 0.53054 0.0
C2518 C 0.9961 0.2814 0.50245 0.0
C2519 C 0.94825 0.29439 0.54129 0.0
C2520 C 0.09889 0.31705 0.46735 0.0
C2521 C 0.07825 0.30893 0.47769 0.0
C2522 C 0.05222 0.34168 0.50429 0.0
C2523 C 0.97775 0.28724 0.52396 0.0
C2524 C 1.00088 0.30039 0.5132 0.0
C2525 C 0.07316 0.33224 0.48367 0.0
C2526 C 0.04789 0.32215 0.4937 0.0
H2527 H 0.94113 0.22001 0.5424 0.0
H2528 H 0.97401 0.2402 0.52341 0.0
H2529 H 0.03353 0.34606 0.52213 0.0
H2530 H 0.12484 0.3974 0.46581 0.0
H2531 H 0.08817 0.38321 0.48391 0.0
C2532 C 0.7458 0.80258 0.46304 0.0
C2533 C 0.71406 0.79572 0.46062 0.0
C2534 C 0.7533 0.79106 0.47377 0.0
C2535 C 0.71938 0.73015 0.49929 0.0
H2536 H 0.80345 0.78688 0.51388 0.0
C2537 C 0.77736 0.6906 0.53953 0.0
C2538 C 0.79415 0.7141 0.54884 0.0
C2539 C 0.76602 0.6985 0.52857 0.0
C2540 C 0.77973 0.77066 0.51007 0.0
H2541 H 0.66527 0.77144 0.4679 0.0
H2542 H 0.67875 0.75191 0.48722 0.0
H2543 H 0.78481 0.80562 0.49649 0.0
H2544 H 0.81264 0.76454 0.55365 0.0
H2545 H 0.7925 0.77757 0.53524 0.0
H2546 H 0.71414 0.69565 0.51344 0.0
C2547 C 0.69767 0.76592 0.48049 0.0
C2548 C 0.76913 0.78135 0.49991 0.0
C2549 C 0.68999 0.77745 0.46953 0.0
C2550 C 0.79975 0.74555 0.5468 0.0
C2551 C 0.78837 0.75325 0.53608 0.0
C2552 C 0.72993 0.7195 0.50966 0.0
C2553 C 0.72955 0.77264 0.48272 0.0
C2554 C 0.73898 0.76125 0.49424 0.0
C2555 C 0.77144 0.73005 0.52674 0.0
C2556 C 0.76027 0.73974 0.51522 0.0
H2557 H 0.76519 0.81661 0.45648 0.0
H2558 H 0.77793 0.79625 0.47491 0.0
H2559 H 0.69615 0.71389 0.4951 0.0
H2560 H 0.7724 0.6661 0.54083 0.0
H2561 H 0.75322 0.68002 0.52154 0.0
C2562 C 0.29551 0.94642 0.46913 0.0
C2563 C 0.26613 0.94004 0.4637 0.0
C2564 C 0.30811 0.96723 0.47958 0.0
C2565 C 0.30009 0.03308 0.49502 0.0
H2566 H 0.35153 0.02623 0.52174 0.0
C2567 C 0.32513 0.10264 0.54168 0.0
C2568 C 0.35586 0.11609 0.54719 0.0
C2569 C 0.31747 0.08342 0.53091 0.0
C2570 C 0.33757 0.0287 0.51424 0.0
H2571 H 0.22577 0.94822 0.46541 0.0
H2572 H 0.24642 0.98253 0.48393 0.0
H2573 H 0.33038 0.9858 0.50489 0.0
H2574 H 0.40282 0.12018 0.54576 0.0
H2575 H 0.38938 0.08613 0.52676 0.0
H2576 H 0.30652 0.07538 0.50449 0.0
C2577 C 0.26069 0.97294 0.47993 0.0
C2578 C 0.32537 1.00547 0.50458 0.0
C2579 C 0.24849 0.95275 0.46943 0.0
C2580 C 0.3792 0.11066 0.5415 0.0
C2581 C 0.37132 0.0908 0.53077 0.0
C2582 C 0.31199 0.056 0.50469 0.0
C2583 C 0.29132 0.98169 0.48485 0.0
C2584 C 0.30591 1.007 0.49494 0.0
C2585 C 0.34018 0.07664 0.52544 0.0
C2586 C 0.33049 0.05391 0.51453 0.0
H2587 H 0.30986 0.93743 0.46471 0.0
H2588 H 0.33176 0.97335 0.48305 0.0
H2589 H 0.28621 0.03591 0.48758 0.0
H2590 H 0.30656 0.1061 0.54599 0.0
H2591 H 0.2932 0.07268 0.52717 0.0
C2592 C 0.52524 0.34498 0.10609 0.0
C2593 C 0.55251 0.36717 0.09921 0.0
C2594 C 0.51273 0.31171 0.10461 0.0
C2595 C 0.51476 0.25129 0.0831 0.0
H2596 H 0.49144 0.19771 0.113 0.0
C2597 C 0.50781 0.12818 0.08323 0.0
C2598 C 0.48392 0.10295 0.09045 0.0
C2599 C 0.51196 0.15911 0.08386 0.0
C2600 C 0.49735 0.2122 0.10453 0.0
H2601 H 0.58698 0.37172 0.08494 0.0
H2602 H 0.56582 0.31417 0.08259 0.0
H2603 H 0.50618 0.25427 0.11489 0.0
H2604 H 0.44504 0.09012 0.10375 0.0
H2605 H 0.45188 0.14431 0.1047 0.0
H2606 H 0.50665 0.20954 0.07277 0.0
C2607 C 0.55384 0.32223 0.08907 0.0
C2608 C 0.5058 0.24465 0.10561 0.0
C2609 C 0.56628 0.35533 0.09054 0.0
C2610 C 0.46353 0.10906 0.09803 0.0
C2611 C 0.4677 0.14016 0.09868 0.0
C2612 C 0.50639 0.21896 0.08202 0.0
C2613 C 0.5271 0.29995 0.09616 0.0
C2614 C 0.51517 0.26475 0.09493 0.0
C2615 C 0.4922 0.16562 0.09168 0.0
C2616 C 0.49812 0.19914 0.09274 0.0
H2617 H 0.51414 0.35331 0.11288 0.0
H2618 H 0.49188 0.29521 0.11012 0.0
H2619 H 0.52119 0.26585 0.07464 0.0
H2620 H 0.52391 0.12422 0.07729 0.0
H2621 H 0.53139 0.17818 0.0785 0.0
C2622 C 0.70098 0.19964 0.10483 0.0
C2623 C 0.68049 0.20442 0.09671 0.0
C2624 C 0.73466 0.21906 0.10388 0.0
C2625 C 0.80064 0.27997 0.08299 0.0
H2626 H 0.84846 0.30702 0.11433 0.0
C2627 C 0.93843 0.3733 0.08414 0.0
C2628 C 0.9486 0.39647 0.0938 0.0
C2629 C 0.90715 0.34623 0.08427 0.0
C2630 C 0.83553 0.29991 0.10546 0.0
H2631 H 0.67983 0.23227 0.0807 0.0
H2632 H 0.73787 0.26663 0.07939 0.0
H2633 H 0.79136 0.26736 0.1147 0.0
H2634 H 0.93383 0.40861 0.11138 0.0
H2635 H 0.87998 0.36267 0.11142 0.0
H2636 H 0.84454 0.31406 0.07384 0.0
C2637 C 0.72822 0.24773 0.08642 0.0
C2638 C 0.80269 0.27664 0.10566 0.0
C2639 C 0.69469 0.22823 0.0873 0.0
C2640 C 0.92704 0.39145 0.10372 0.0
C2641 C 0.896 0.3647 0.10383 0.0
C2642 C 0.83347 0.30352 0.0828 0.0
C2643 C 0.74879 0.24384 0.09481 0.0
C2644 C 0.78455 0.26662 0.09445 0.0
C2645 C 0.88537 0.34175 0.09408 0.0
C2646 C 0.85128 0.31426 0.09406 0.0
H2647 H 0.69104 0.18165 0.11221 0.0
H2648 H 0.74958 0.21483 0.11039 0.0
H2649 H 0.7878 0.27256 0.07411 0.0
H2650 H 0.95423 0.37649 0.0763 0.0
H2651 H 0.89999 0.32895 0.07665 0.0
C2652 C 0.68277 0.58868 0.08802 0.0
C2653 C 0.6586 0.57253 0.09709 0.0
C2654 C 0.71147 0.58754 0.08856 0.0
C2655 C 0.75888 0.56447 0.11013 0.0
H2656 H 0.7994 0.56074 0.07903 0.0
C2657 C 0.85863 0.53054 0.10949 0.0
C2658 C 0.887 0.55287 0.10327 0.0
C2659 C 0.83018 0.53172 0.10795 0.0
C2660 C 0.78829 0.56177 0.08778 0.0
H2661 H 0.64644 0.54471 0.11434 0.0
H2662 H 0.69465 0.54044 0.11478 0.0
H2663 H 0.75188 0.56706 0.0782 0.0
H2664 H 0.90766 0.59275 0.09011 0.0
H2665 H 0.85771 0.59425 0.08714 0.0
H2666 H 0.79481 0.55822 0.11965 0.0
C2667 C 0.69228 0.55458 0.10734 0.0
C2668 C 0.76122 0.56571 0.08734 0.0
C2669 C 0.66414 0.55637 0.10694 0.0
C2670 C 0.88601 0.57521 0.09497 0.0
C2671 C 0.85747 0.57604 0.09326 0.0
C2672 C 0.78551 0.55994 0.11055 0.0
C2673 C 0.71638 0.56997 0.09813 0.0
C2674 C 0.74604 0.56704 0.09851 0.0
C2675 C 0.82951 0.5549 0.10001 0.0
C2676 C 0.80049 0.55852 0.0994 0.0
H2677 H 0.67915 0.60138 0.08033 0.0
H2678 H 0.72966 0.60029 0.08143 0.0
H2679 H 0.74861 0.56623 0.11897 0.0
H2680 H 0.8589 0.5133 0.11603 0.0
H2681 H 0.80888 0.51498 0.11319 0.0
C2682 C 0.36088 0.52646 0.90749 0.0
C2683 C 0.38154 0.55358 0.91481 0.0
C2684 C 0.32728 0.51195 0.90865 0.0
C2685 C 0.26202 0.51079 0.92877 0.0
H2686 H 0.2132 0.48299 0.89767 0.0
C2687 C 0.12483 0.46809 0.92708 0.0
C2688 C 0.11534 0.48004 0.91683 0.0
C2689 C 0.15562 0.47117 0.92729 0.0
C2690 C 0.22642 0.49075 0.90646 0.0
H2691 H 0.38269 0.58531 0.92966 0.0
H2692 H 0.32466 0.56124 0.93125 0.0
H2693 H 0.27024 0.50046 0.89746 0.0
H2694 H 0.13039 0.50337 0.89855 0.0
H2695 H 0.18341 0.50939 0.89908 0.0
H2696 H 0.21844 0.50307 0.93757 0.0
C2697 C 0.33416 0.55069 0.92472 0.0
C2698 C 0.25921 0.50035 0.90638 0.0
C2699 C 0.36765 0.56493 0.92365 0.0
C2700 C 0.1368 0.49403 0.90667 0.0
C2701 C 0.16732 0.49718 0.90689 0.0
C2702 C 0.22923 0.50154 0.92882 0.0
C2703 C 0.31341 0.52428 0.9171 0.0
C2704 C 0.2777 0.51107 0.91749 0.0
C2705 C 0.17741 0.48616 0.91724 0.0
C2706 C 0.21113 0.49203 0.91761 0.0
H2707 H 0.37056 0.51705 0.90053 0.0
H2708 H 0.31222 0.49129 0.90278 0.0
H2709 H 0.27517 0.51825 0.93758 0.0
H2710 H 0.10897 0.45736 0.93508 0.0
H2711 H 0.16245 0.46213 0.93537 0.0
C2712 C 0.53016 0.8484 0.90225 0.0
C2713 C 0.50426 0.84435 0.90982 0.0
C2714 C 0.54299 0.82777 0.90358 0.0
C2715 C 0.54419 0.767 0.92552 0.0
H2716 H 0.56458 0.7348 0.89544 0.0
C2717 C 0.55375 0.65176 0.92618 0.0
C2718 C 0.57687 0.65001 0.91859 0.0
C2719 C 0.54871 0.67805 0.92535 0.0
C2720 C 0.55945 0.74387 0.90396 0.0
H2721 H 0.47282 0.81641 0.92519 0.0
H2722 H 0.49446 0.78044 0.92733 0.0
H2723 H 0.54937 0.77631 0.89362 0.0
H2724 H 0.61338 0.67501 0.90431 0.0
H2725 H 0.60494 0.72138 0.90295 0.0
H2726 H 0.55361 0.73421 0.93584 0.0
C2727 C 0.50519 0.79952 0.92039 0.0
C2728 C 0.55074 0.76777 0.90292 0.0
C2729 C 0.49246 0.82003 0.91907 0.0
C2730 C 0.5955 0.6757 0.91034 0.0
C2731 C 0.59038 0.7021 0.90946 0.0
C2732 C 0.55278 0.74312 0.92655 0.0
C2733 C 0.53038 0.80274 0.91258 0.0
C2734 C 0.54245 0.77933 0.91368 0.0
C2735 C 0.56671 0.7035 0.9169 0.0
C2736 C 0.56006 0.73082 0.91578 0.0
H2737 H 0.53978 0.86677 0.895 0.0
H2738 H 0.56265 0.83131 0.89749 0.0
H2739 H 0.53875 0.77571 0.93407 0.0
H2740 H 0.53895 0.63239 0.93264 0.0
H2741 H 0.52995 0.6779 0.93109 0.0
C2742 C 0.41038 0.91962 0.92203 0.0
C2743 C 0.41092 0.94735 0.91731 0.0
C2744 C 0.38253 0.88935 0.92112 0.0
C2745 C 0.29501 0.84884 0.91874 0.0
H2746 H 0.30115 0.7791 0.90292 0.0
C2747 C 0.18121 0.73101 0.90419 0.0
C2748 C 0.18189 0.70205 0.90322 0.0
C2749 C 0.20908 0.76003 0.90706 0.0
C2750 C 0.29892 0.79795 0.90762 0.0
H2751 H 0.38232 0.96478 0.90801 0.0
H2752 H 0.33307 0.91212 0.90705 0.0
H2753 H 0.34959 0.83148 0.90575 0.0
H2754 H 0.21252 0.68095 0.90532 0.0
H2755 H 0.26072 0.73123 0.91115 0.0
H2756 H 0.24479 0.81551 0.92109 0.0
C2757 C 0.35446 0.91394 0.91133 0.0
C2758 C 0.32676 0.8281 0.90914 0.0
C2759 C 0.3826 0.94415 0.91197 0.0
C2760 C 0.21095 0.70268 0.90598 0.0
C2761 C 0.23883 0.73177 0.90912 0.0
C2762 C 0.26729 0.81854 0.91748 0.0
C2763 C 0.35432 0.88619 0.91574 0.0
C2764 C 0.32499 0.85394 0.91455 0.0
C2765 C 0.23849 0.76105 0.90943 0.0
C2766 C 0.26864 0.79269 0.91171 0.0
H2767 H 0.43169 0.92113 0.92626 0.0
H2768 H 0.383 0.86839 0.92468 0.0
H2769 H 0.29307 0.86825 0.9231 0.0
H2770 H 0.15917 0.73149 0.90246 0.0
H2771 H 0.20753 0.78181 0.907 0.0
C2772 C 0.22283 0.69248 0.41808 0.0
C2773 C 0.21963 0.7073 0.42899 0.0
C2774 C 0.21051 0.65913 0.4177 0.0
C2775 C 0.1945 0.59205 0.43807 0.0
H2776 H 0.14357 0.53749 0.41035 0.0
C2777 C 0.15264 0.45696 0.43882 0.0
C2778 C 0.15078 0.44136 0.4274 0.0
C2779 C 0.15666 0.48789 0.43892 0.0
C2780 C 0.15818 0.55234 0.41809 0.0
H2781 H 0.20047 0.69886 0.44796 0.0
H2782 H 0.17954 0.64043 0.44742 0.0
H2783 H 0.15908 0.59442 0.41057 0.0
H2784 H 0.15043 0.44518 0.4071 0.0
H2785 H 0.1593 0.50006 0.40715 0.0
H2786 H 0.19561 0.55116 0.44531 0.0
C2787 C 0.19139 0.65468 0.43914 0.0
C2788 C 0.16682 0.58497 0.41825 0.0
C2789 C 0.20318 0.68801 0.43943 0.0
C2790 C 0.15176 0.45676 0.41603 0.0
C2791 C 0.15671 0.48823 0.41611 0.0
C2792 C 0.18652 0.55971 0.43779 0.0
C2793 C 0.19522 0.63997 0.4283 0.0
C2794 C 0.18496 0.6051 0.42827 0.0
C2795 C 0.15994 0.50459 0.42759 0.0
C2796 C 0.16806 0.53918 0.42784 0.0
H2797 H 0.23524 0.70681 0.40988 0.0
H2798 H 0.21396 0.64848 0.40926 0.0
H2799 H 0.20901 0.60716 0.4458 0.0
H2800 H 0.15139 0.44533 0.44773 0.0
H2801 H 0.15764 0.4988 0.44797 0.0
C2802 C 0.59914 0.73067 0.43757 0.0
C2803 C 0.62012 0.73757 0.4273 0.0
C2804 C 0.56885 0.70296 0.43771 0.0
C2805 C 0.50831 0.63821 0.41683 0.0
H2806 H 0.46952 0.60007 0.44899 0.0
C2807 C 0.39157 0.51382 0.42352 0.0
C2808 C 0.36963 0.51214 0.4327 0.0
C2809 C 0.42099 0.5423 0.42178 0.0
C2810 C 0.47989 0.61067 0.43995 0.0
H2811 H 0.62632 0.71956 0.4094 0.0
H2812 H 0.57406 0.66972 0.41002 0.0
H2813 H 0.52433 0.64527 0.44838 0.0
H2814 H 0.36056 0.5389 0.44697 0.0
H2815 H 0.4123 0.58882 0.44402 0.0
H2816 H 0.46387 0.60221 0.40846 0.0
C2817 C 0.58049 0.68666 0.41773 0.0
C2818 C 0.51139 0.63673 0.43957 0.0
C2819 C 0.61072 0.71501 0.41745 0.0
C2820 C 0.37693 0.53981 0.43972 0.0
C2821 C 0.40661 0.56816 0.43812 0.0
C2822 C 0.47692 0.61165 0.41721 0.0
C2823 C 0.55891 0.68049 0.4278 0.0
C2824 C 0.52598 0.65125 0.42802 0.0
C2825 C 0.42925 0.56942 0.42934 0.0
C2826 C 0.46228 0.5979 0.42879 0.0
H2827 H 0.6058 0.7471 0.44548 0.0
H2828 H 0.553 0.6997 0.44554 0.0
H2829 H 0.51839 0.64886 0.40777 0.0
H2830 H 0.38651 0.49263 0.4181 0.0
H2831 H 0.43802 0.54251 0.415 0.0
C2832 C 0.49473 0.8292 0.42225 0.0
C2833 C 0.52124 0.8427 0.43053 0.0
C2834 C 0.47444 0.84225 0.4212 0.0
C2835 C 0.44879 0.89196 0.43904 0.0
H2836 H 0.40461 0.88765 0.40782 0.0
C2837 C 0.33096 0.89548 0.43825 0.0
C2838 C 0.32419 0.91029 0.42819 0.0
C2839 C 0.35838 0.89241 0.43814 0.0
C2840 C 0.41707 0.88954 0.41657 0.0
H2841 H 0.54782 0.88147 0.44388 0.0
H2842 H 0.51289 0.90479 0.44183 0.0
H2843 H 0.44699 0.87354 0.4079 0.0
H2844 H 0.34181 0.9347 0.41031 0.0
H2845 H 0.39052 0.92991 0.41021 0.0
H2846 H 0.41909 0.90815 0.4477 0.0
C2847 C 0.50739 0.88361 0.43631 0.0
C2848 C 0.44111 0.881 0.41667 0.0
C2849 C 0.52768 0.87046 0.43739 0.0
C2850 C 0.34635 0.92319 0.4182 0.0
C2851 C 0.37405 0.92014 0.4181 0.0
C2852 C 0.42491 0.90063 0.43893 0.0
C2853 C 0.48018 0.86937 0.42835 0.0
C2854 C 0.45687 0.88149 0.42795 0.0
C2855 C 0.38019 0.90437 0.42803 0.0
C2856 C 0.40824 0.89888 0.42776 0.0
H2857 H 0.48935 0.8082 0.41664 0.0
H2858 H 0.45362 0.83034 0.41507 0.0
H2859 H 0.46007 0.89238 0.44794 0.0
H2860 H 0.3146 0.88548 0.44617 0.0
H2861 H 0.36189 0.87966 0.44585 0.0
C2862 C 0.78034 0.7897 0.245 0.0
C2863 C 0.7765 0.81423 0.25057 0.0
C2864 C 0.8108 0.79226 0.24444 0.0
C2865 C 0.89671 0.85098 0.24286 0.0
H2866 H 0.90981 0.78228 0.25517 0.0
C2867 C 0.02327 0.86207 0.24031 0.0
C2868 C 0.02436 0.83366 0.23809 0.0
C2869 C 0.9939 0.86069 0.24316 0.0
C2870 C 0.90672 0.80157 0.25143 0.0
H2871 H 0.80195 0.86063 0.26002 0.0
H2872 H 0.85512 0.86559 0.25855 0.0
H2873 H 0.85672 0.77703 0.25671 0.0
H2874 H 0.99535 0.78139 0.23807 0.0
H2875 H 0.94475 0.77902 0.24206 0.0
H2876 H 0.94599 0.87495 0.23694 0.0
C2877 C 0.83445 0.84423 0.25475 0.0
C2878 C 0.87615 0.79854 0.25243 0.0
C2879 C 0.80391 0.84129 0.2556 0.0
C2880 C 0.99555 0.80392 0.23936 0.0
C2881 C 0.96629 0.80254 0.24193 0.0
C2882 C 0.92714 0.85371 0.24156 0.0
C2883 C 0.83824 0.81978 0.24916 0.0
C2884 C 0.8708 0.82316 0.24814 0.0
C2885 C 0.96473 0.83086 0.24374 0.0
C2886 C 0.93269 0.82895 0.24576 0.0
H2887 H 0.75999 0.76885 0.24083 0.0
H2888 H 0.81306 0.77309 0.24001 0.0
H2889 H 0.89319 0.87028 0.23941 0.0
H2890 H 0.04486 0.88546 0.23943 0.0
H2891 H 0.99415 0.88313 0.24478 0.0
C2892 C 0.26659 0.01626 0.25821 0.0
C2893 C 0.24523 0.98934 0.25097 0.0
C2894 C 0.2646 0.04455 0.25805 0.0
C2895 C 0.22883 0.08468 0.23901 0.0
H2896 H 0.2459 0.13793 0.26873 0.0
C2897 C 0.20054 0.18805 0.23986 0.0
C2898 C 0.22597 0.21786 0.24399 0.0
C2899 C 0.2015 0.15966 0.24194 0.0
C2900 C 0.24111 0.12328 0.26035 0.0
H2901 H 0.20376 0.97083 0.23839 0.0
H2902 H 0.19959 0.01877 0.23855 0.0
H2903 H 0.25179 0.09012 0.26976 0.0
H2904 H 0.27117 0.24116 0.25426 0.0
H2905 H 0.27269 0.19161 0.258 0.0
H2906 H 0.21774 0.1175 0.22966 0.0
C2907 C 0.21891 0.01894 0.24392 0.0
C2908 C 0.24471 0.096 0.26091 0.0
C2909 C 0.22122 0.99111 0.24393 0.0
C2910 C 0.25132 0.21848 0.25092 0.0
C2911 C 0.25212 0.19011 0.25311 0.0
C2912 C 0.22487 0.11162 0.23851 0.0
C2913 C 0.24082 0.0463 0.2508 0.0
C2914 C 0.23842 0.0762 0.25025 0.0
C2915 C 0.22771 0.16051 0.24832 0.0
C2916 C 0.23085 0.13119 0.24916 0.0
H2917 H 0.28484 0.01558 0.26396 0.0
H2918 H 0.28196 0.06513 0.26347 0.0
H2919 H 0.22462 0.07067 0.23049 0.0
H2920 H 0.18082 0.1869 0.23443 0.0
H2921 H 0.18213 0.13713 0.23827 0.0
C2922 C 0.90371 0.02499 0.25484 0.0
C2923 C 0.87838 0.01158 0.24601 0.0
C2924 C 0.92309 0.05842 0.25615 0.0
C2925 C 0.94882 0.13406 0.23835 0.0
H2926 H 0.99062 0.17368 0.26996 0.0
C2927 C 0.06465 0.25735 0.23994 0.0
C2928 C 0.07051 0.27861 0.25006 0.0
C2929 C 0.03782 0.22638 0.23991 0.0
C2930 C 0.97883 0.16319 0.26108 0.0
H2931 H 0.85277 0.02324 0.23202 0.0
H2932 H 0.8859 0.08159 0.23459 0.0
H2933 H 0.94897 0.11692 0.26951 0.0
H2934 H 0.05216 0.28383 0.26805 0.0
H2935 H 1.00459 0.22959 0.26788 0.0
H2936 H 0.97831 0.18035 0.22994 0.0
C2937 C 0.8913 0.06616 0.24031 0.0
C2938 C 0.9552 0.13043 0.26078 0.0
C2939 C 0.87197 0.03262 0.23895 0.0
C2940 C 0.0483 0.2682 0.26007 0.0
C2941 C 0.0212 0.23698 0.26002 0.0
C2942 C 0.97224 0.16681 0.23866 0.0
C2943 C 0.91758 0.07956 0.24875 0.0
C2944 C 0.94031 0.1152 0.24936 0.0
C2945 C 0.01575 0.21558 0.24995 0.0
C2946 C 0.98812 0.18169 0.24998 0.0
H2947 H 0.90904 0.00959 0.26061 0.0
H2948 H 0.94317 0.06759 0.26267 0.0
H2949 H 0.93827 0.12333 0.22934 0.0
H2950 H 0.08109 0.26437 0.23203 0.0
H2951 H 0.03494 0.21056 0.2321 0.0
C2952 C 0.84266 0.79826 0.76776 0.0
C2953 C 0.81846 0.77301 0.76057 0.0
C2954 C 0.84602 0.82889 0.76778 0.0
C2955 C 0.82255 0.88201 0.75064 0.0
H2956 H 0.84959 0.93022 0.78196 0.0
C2957 C 0.81669 0.99832 0.76041 0.0
C2958 C 0.84171 0.02297 0.76751 0.0
C2959 C 0.81586 0.96908 0.7583 0.0
C2960 C 0.84247 0.91731 0.77309 0.0
H2961 H 0.77975 0.7611 0.74727 0.0
H2962 H 0.78441 0.81427 0.7478 0.0
H2963 H 0.84211 0.87626 0.78107 0.0
H2964 H 0.88622 0.03686 0.77749 0.0
H2965 H 0.88488 0.98567 0.7738 0.0
H2966 H 0.82195 0.92306 0.74285 0.0
C2967 C 0.80112 0.81034 0.75334 0.0
C2968 C 0.83817 0.88624 0.77255 0.0
C2969 C 0.79808 0.77959 0.75317 0.0
C2970 C 0.86677 0.01837 0.77193 0.0
C2971 C 0.86577 0.98894 0.76993 0.0
C2972 C 0.82651 0.91305 0.75123 0.0
C2973 C 0.82504 0.83538 0.76075 0.0
C2974 C 0.8284 0.86816 0.7613 0.0
C2975 C 0.83989 0.96368 0.76333 0.0
C2976 C 0.83671 0.93114 0.76245 0.0
H2977 H 0.85937 0.79456 0.77342 0.0
H2978 H 0.86542 0.8476 0.77329 0.0
H2979 H 0.8154 0.86914 0.74177 0.0
H2980 H 0.79711 1.00127 0.75685 0.0
H2981 H 0.79552 0.95014 0.75324 0.0
C2982 C 0.26108 0.06249 0.76499 0.0
C2983 C 0.28693 0.06359 0.75828 0.0
C2984 C 0.23089 0.03452 0.76522 0.0
C2985 C 0.17936 0.95733 0.74841 0.0
H2986 H 0.12941 0.93655 0.77925 0.0
C2987 C 0.06065 0.83618 0.75737 0.0
C2988 C 0.03628 0.83699 0.76448 0.0
C2989 C 0.09022 0.8643 0.75531 0.0
C2990 C 0.14279 0.94223 0.7705 0.0
H2991 H 0.30099 0.03596 0.74644 0.0
H2992 H 0.24815 0.98649 0.74699 0.0
H2993 H 0.18372 0.98273 0.77874 0.0
H2994 H 0.02315 0.86817 0.77446 0.0
H2995 H 0.07483 0.91753 0.7708 0.0
H2996 H 0.1383 0.91612 0.7403 0.0
C2997 C 0.25134 1.00754 0.75204 0.0
C2998 C 0.17407 0.96876 0.7702 0.0
C2999 C 0.28181 0.03574 0.75185 0.0
C3000 C 0.0414 0.86686 0.76888 0.0
C3001 C 0.07114 0.89501 0.76691 0.0
C3002 C 0.14802 0.93054 0.74874 0.0
C3003 C 0.22545 1.00658 0.75877 0.0
C3004 C 0.19275 0.97697 0.75912 0.0
C3005 C 0.09624 0.89391 0.7604 0.0
C3006 C 0.12924 0.92283 0.75977 0.0
H3007 H 0.26414 0.08346 0.77008 0.0
H3008 H 0.21158 0.03509 0.77031 0.0
H3009 H 0.19281 0.96302 0.73967 0.0
H3010 H 0.0573 0.81345 0.75386 0.0
H3011 H 0.10896 0.86249 0.7503 0.0
C3012 C 0.18332 0.17449 0.76384 0.0
C3013 C 0.20535 0.19322 0.77327 0.0
C3014 C 0.1601 0.18198 0.75957 0.0
C3015 C 0.13591 0.24503 0.76014 0.0
H3016 H 0.049 0.1716 0.76038 0.0
C3017 C 0.02042 0.25477 0.75129 0.0
C3018 C 0.99544 0.23786 0.76005 0.0
C3019 C 0.04743 0.25059 0.75104 0.0
C3020 C 0.07313 0.19236 0.76023 0.0
H3021 H 0.22161 0.23518 0.78519 0.0
H3022 H 0.18161 0.24866 0.77765 0.0
H3023 H 0.09477 0.16302 0.7627 0.0
H3024 H 0.97937 0.20284 0.7753 0.0
H3025 H 0.0258 0.19546 0.77472 0.0
H3026 H 0.11394 0.2744 0.75814 0.0
C3027 C 0.18215 0.22831 0.77346 0.0
C3028 C 0.09943 0.18742 0.76142 0.0
C3029 C 0.20507 0.22062 0.7778 0.0
C3030 C 0.99803 0.21646 0.76842 0.0
C3031 C 0.02464 0.21199 0.76805 0.0
C3032 C 0.10954 0.24996 0.75887 0.0
C3033 C 0.15868 0.20849 0.7646 0.0
C3034 C 0.13115 0.21372 0.76165 0.0
C3035 C 0.04964 0.22889 0.75936 0.0
C3036 C 0.07783 0.22371 0.7592 0.0
H3037 H 0.18282 0.15299 0.76033 0.0
H3038 H 0.14256 0.16638 0.75265 0.0
H3039 H 0.16003 0.2658 0.7602 0.0
H3040 H 0.019 0.27091 0.74454 0.0
H3041 H 0.06625 0.26384 0.74418 0.0
C3042 C 0.45491 0.13443 0.59168 0.0
C3043 C 0.44509 0.14636 0.58154 0.0
C3044 C 0.48583 0.13789 0.59176 0.0
C3045 C 0.55772 0.16074 0.57094 0.0
H3046 H 0.60429 0.18396 0.60259 0.0
C3047 C 0.69253 0.19761 0.57269 0.0
C3048 C 0.71246 0.22287 0.58093 0.0
C3049 C 0.65885 0.18297 0.5734 0.0
C3050 C 0.59182 0.17782 0.59363 0.0
H3051 H 0.45891 0.16877 0.56311 0.0
H3052 H 0.51272 0.17654 0.56356 0.0
H3053 H 0.54762 0.16843 0.6023 0.0
H3054 H 0.71205 0.25112 0.59686 0.0
H3055 H 0.65402 0.22724 0.5976 0.0
H3056 H 0.6023 0.17239 0.56212 0.0
C3057 C 0.49688 0.16407 0.57141 0.0
C3058 C 0.55898 0.16829 0.5935 0.0
C3059 C 0.46605 0.16017 0.57125 0.0
C3060 C 0.69767 0.23231 0.59014 0.0
C3061 C 0.66412 0.21808 0.59072 0.0
C3062 C 0.59064 0.17082 0.57104 0.0
C3063 C 0.50751 0.15342 0.58172 0.0
C3064 C 0.54156 0.16014 0.58212 0.0
C3065 C 0.64413 0.19343 0.58227 0.0
C3066 C 0.60836 0.18 0.58235 0.0
H3067 H 0.43921 0.12348 0.59972 0.0
H3068 H 0.49287 0.12882 0.59977 0.0
H3069 H 0.54512 0.15397 0.562 0.0
H3070 H 0.70287 0.18968 0.56542 0.0
H3071 H 0.64442 0.16366 0.56687 0.0
C3072 C 0.89302 0.32712 0.5933 0.0
C3073 C 0.9093 0.32027 0.58389 0.0
C3074 C 0.88927 0.35423 0.59233 0.0
C3075 C 0.91851 0.43094 0.5738 0.0
H3076 H 0.84272 0.42831 0.58815 0.0
C3077 C 0.88368 0.52514 0.56052 0.0
C3078 C 0.87795 0.54101 0.57047 0.0
C3079 C 0.88503 0.49712 0.56267 0.0
C3080 C 0.86408 0.42943 0.58417 0.0
H3081 H 0.93435 0.33614 0.56608 0.0
H3082 H 0.92644 0.38221 0.56395 0.0
H3083 H 0.85067 0.38213 0.5907 0.0
H3084 H 0.8671 0.53878 0.59037 0.0
H3085 H 0.86904 0.48903 0.59417 0.0
H3086 H 0.93107 0.47771 0.56683 0.0
C3087 C 0.91755 0.36771 0.57239 0.0
C3088 C 0.86886 0.403 0.58568 0.0
C3089 C 0.92199 0.34108 0.57354 0.0
C3090 C 0.87141 0.52695 0.58252 0.0
C3091 C 0.87266 0.49861 0.58469 0.0
C3092 C 0.91337 0.45695 0.57208 0.0
C3093 C 0.90109 0.3748 0.58177 0.0
C3094 C 0.89613 0.40324 0.58046 0.0
C3095 C 0.88054 0.48404 0.57484 0.0
C3096 C 0.88603 0.45647 0.57717 0.0
H3097 H 0.88316 0.31147 0.60142 0.0
H3098 H 0.87714 0.35898 0.59993 0.0
H3099 H 0.9403 0.43284 0.56993 0.0
H3100 H 0.88837 0.53519 0.55109 0.0
H3101 H 0.89042 0.48608 0.55484 0.0
C3102 C 0.53813 0.3724 0.57528 0.0
C3103 C 0.54785 0.34969 0.57793 0.0
C3104 C 0.55901 0.40543 0.57748 0.0
C3105 C 0.6378 0.46296 0.59337 0.0
H3106 H 0.63627 0.52526 0.57048 0.0
C3107 C 0.74599 0.59021 0.58463 0.0
C3108 C 0.74053 0.61635 0.58561 0.0
C3109 C 0.72033 0.55851 0.58508 0.0
C3110 C 0.6367 0.50811 0.57702 0.0
H3111 H 0.58699 0.34443 0.58565 0.0
H3112 H 0.62368 0.40125 0.58856 0.0
H3113 H 0.59558 0.46829 0.56848 0.0
H3114 H 0.70388 0.6297 0.58776 0.0
H3115 H 0.6585 0.57397 0.58817 0.0
H3116 H 0.68026 0.5028 0.60132 0.0
C3117 C 0.59973 0.3939 0.58509 0.0
C3118 C 0.61327 0.47538 0.57594 0.0
C3119 C 0.57871 0.361 0.58314 0.0
C3120 C 0.70879 0.61011 0.58714 0.0
C3121 C 0.68287 0.57825 0.58727 0.0
C3122 C 0.66157 0.49548 0.59424 0.0
C3123 C 0.59037 0.41678 0.58226 0.0
C3124 C 0.61371 0.45214 0.58399 0.0
C3125 C 0.68847 0.55218 0.58623 0.0
C3126 C 0.66145 0.51832 0.58601 0.0
H3127 H 0.51468 0.36486 0.5712 0.0
H3128 H 0.55049 0.42201 0.57538 0.0
H3129 H 0.63864 0.44631 0.60005 0.0
H3130 H 0.77024 0.59431 0.58343 0.0
H3131 H 0.72531 0.53888 0.58418 0.0
loop_
_geom_bond_atom_site_label_1
_geom_bond_atom_site_label_2
_geom_bond_distance
_geom_bond_site_symmetry_2
_ccdc_geom_bond_type
Tb0 N29 2.624 . S
Tb0 N35 2.572 . S
Tb0 O44 2.465 . S
Tb0 O45 2.387 1_565 S
Tb0 O47 2.428 . S
Tb0 O48 2.308 . S
Tb0 O52 2.349 . S
Tb0 O55 2.393 . S
Tb0 C64 2.802 . S
C1 N2 1.379 . S
C1 C4 1.416 1_545 S
C1 C8 1.424 . S
N2 C1 1.379 . S
N2 C5 1.334 . S
N2 Tb11 2.617 . S
C3 C5 1.390 . S
C3 C6 1.339 1_545 S
C3 H23 0.930 . S
C4 C1 1.416 1_565 S
C4 C6 1.416 . S
C4 C10 1.448 . S
C5 N2 1.334 . S
C5 C3 1.390 . S
C5 H16 0.930 . S
C6 C3 1.339 1_565 S
C6 C4 1.416 . S
C6 H27 0.930 . S
C7 C8 1.413 1_565 S
C7 C9 1.427 . S
C7 C13 1.416 . S
C8 C1 1.424 . S
C8 C7 1.413 1_545 S
C8 N12 1.361 . S
C9 C7 1.427 . S
C9 C10 1.328 . S
C9 H24 0.929 . S
C10 C4 1.448 . S
C10 C9 1.328 . S
C10 H25 0.930 . S
Tb11 N2 2.617 . S
Tb11 N12 2.572 . S
Tb11 O46 2.349 . S
Tb11 O49 2.393 . S
Tb11 O50 2.465 . S
Tb11 O51 2.387 1_545 S
Tb11 O53 2.428 . S
Tb11 O54 2.308 . S
Tb11 C75 2.802 . S
N12 C8 1.361 . S
N12 Tb11 2.572 . S
N12 C14 1.340 . S
C13 C7 1.416 . S
C13 C15 1.332 1_565 S
C13 H21 0.931 . S
C14 N12 1.340 . S
C14 C15 1.407 . S
C14 H20 0.930 . S
C15 C13 1.332 1_545 S
C15 C14 1.407 . S
C15 H17 0.929 . S
H16 C5 0.930 . S
H17 C15 0.929 . S
H18 C33 0.921 1_565 S
H19 C40 0.929 . S
H20 C14 0.930 . S
H21 C13 0.931 . S
H22 C36 0.930 . S
H23 C3 0.930 . S
H24 C9 0.929 . S
H25 C10 0.930 . S
H26 C31 0.930 . S
H27 C6 0.930 . S
H28 C39 0.931 . S
N29 Tb0 2.624 . S
N29 C30 1.370 1_565 S
N29 C33 1.338 1_565 S
C30 N29 1.370 1_545 S
C30 C32 1.416 . S
C30 C38 1.424 . S
C31 H26 0.930 . S
C31 C33 1.397 . S
C31 C34 1.339 . S
C32 C30 1.416 . S
C32 C34 1.416 . S
C32 C65 1.448 . S
C33 H18 0.921 1_545 S
C33 N29 1.338 1_545 S
C33 C31 1.397 . S
C34 C31 1.339 . S
C34 C32 1.416 . S
C34 H41 0.930 . S
N35 Tb0 2.572 . S
N35 C36 1.340 . S
N35 C38 1.361 1_565 S
C36 H22 0.930 . S
C36 N35 1.340 . S
C36 C40 1.407 1_565 S
C37 C38 1.413 . S
C37 C39 1.416 . S
C37 C66 1.427 . S
C38 C30 1.424 . S
C38 N35 1.361 1_545 S
C38 C37 1.413 . S
C39 H28 0.931 . S
C39 C37 1.416 . S
C39 C40 1.332 . S
C40 H19 0.929 . S
C40 C36 1.407 1_545 S
C40 C39 1.332 . S
H41 C34 0.930 . S
H42 C65 0.930 . S
H43 C66 0.929 . S
O44 Tb0 2.465 . S
O44 C64 1.264 . S
O45 Tb0 2.387 1_545 S
O45 C56 1.264 . S
O46 Tb11 2.349 . S
O46 C56 1.243 . S
O47 Tb0 2.428 . S
O47 C64 1.256 . S
O48 Tb0 2.308 . S
O48 C63 1.266 . S
O49 Tb11 2.393 . S
O49 C63 1.248 1_545 S
O50 Tb11 2.465 . S
O50 C75 1.264 . S
O51 Tb11 2.387 1_565 S
O51 C67 1.264 . S
O52 Tb0 2.349 . S
O52 C67 1.243 . S
O53 Tb11 2.428 . S
O53 C75 1.256 . S
O54 Tb11 2.308 . S
O54 C74 1.266 . S
O55 Tb0 2.393 . S
O55 C74 1.248 1_565 S
C56 O45 1.264 . S
C56 O46 1.243 . S
C57 C60 1.399 . S
C57 C62 1.383 . S
C57 C64 1.496 . S
C58 C59 1.399 . S
C58 C62 1.389 . S
C59 C58 1.399 . S
C59 C61 1.380 . S
C59 H76 0.929 . S
C60 C57 1.399 . S
C60 C61 1.392 . S
C60 H77 0.929 . S
C61 C59 1.380 . S
C61 C60 1.392 . S
C61 H78 0.929 . S
C62 C57 1.383 . S
C62 C58 1.389 . S
C62 H79 0.931 . S
C63 O48 1.266 . S
C63 O49 1.248 1_565 S
C64 Tb0 2.802 . S
C64 O44 1.264 . S
C64 O47 1.256 . S
C64 C57 1.496 . S
C65 C32 1.448 . S
C65 H42 0.930 . S
C65 C66 1.328 . S
C66 C37 1.427 . S
C66 H43 0.929 . S
C66 C65 1.328 . S
C67 O51 1.264 . S
C67 O52 1.243 . S
C68 C71 1.399 . S
C68 C72 1.383 . S
C68 C75 1.496 . S
C69 C70 1.399 . S
C69 C72 1.389 . S
C70 C69 1.399 . S
C70 C73 1.380 . S
C70 H80 0.929 . S
C71 C68 1.399 . S
C71 C73 1.392 . S
C71 H81 0.929 . S
C72 C68 1.383 . S
C72 C69 1.389 . S
C72 H82 0.931 . S
C73 C70 1.380 . S
C73 C71 1.392 . S
C73 H83 0.929 . S
C74 O54 1.266 . S
C74 O55 1.248 1_545 S
C75 Tb11 2.802 . S
C75 O50 1.264 . S
C75 O53 1.256 . S
C75 C68 1.496 . S
H76 C59 0.929 . S
H77 C60 0.929 . S
H78 C61 0.929 . S
H79 C62 0.931 . S
H80 C70 0.929 . S
H81 C71 0.929 . S
H82 C72 0.931 . S
H83 C73 0.929 . S
Tb84 N113 2.617 . S
Tb84 N119 2.572 . S
Tb84 O128 2.465 . S
Tb84 O129 2.422 . S
Tb84 O131 2.428 . S
Tb84 O132 2.308 . S
Tb84 O136 2.349 . S
Tb84 O139 2.393 . S
Tb84 C148 2.802 . S
C85 N86 1.379 . S
C85 C88 1.416 . S
C85 C92 1.424 . S
N86 C85 1.379 . S
N86 C89 1.334 . S
N86 Tb95 2.617 . S
C87 C89 1.390 . S
C87 C90 1.339 . S
C87 H107 0.930 . S
C88 C85 1.416 . S
C88 C90 1.416 . S
C88 C94 1.448 . S
C89 N86 1.334 . S
C89 C87 1.390 . S
C89 H100 0.930 . S
C90 C87 1.339 . S
C90 C88 1.416 . S
C90 H111 0.930 . S
C91 C92 1.413 . S
C91 C93 1.427 . S
C91 C97 1.416 . S
C92 C85 1.424 . S
C92 C91 1.413 . S
C92 N96 1.361 . S
C93 C91 1.427 . S
C93 C94 1.328 . S
C93 H108 0.929 . S
C94 C88 1.448 . S
C94 C93 1.328 . S
C94 H109 0.930 . S
Tb95 N86 2.617 . S
Tb95 N96 2.572 . S
Tb95 O130 2.349 1_455 S
Tb95 O133 2.393 . S
Tb95 O134 2.465 1_455 S
Tb95 O135 2.387 . S
Tb95 O137 2.428 1_455 S
Tb95 O138 2.308 . S
Tb95 C159 2.802 1_455 S
N96 C92 1.361 . S
N96 Tb95 2.572 . S
N96 C98 1.340 . S
C97 C91 1.416 . S
C97 C99 1.332 . S
C97 H105 0.931 . S
C98 N96 1.340 . S
C98 C99 1.407 . S
C98 H104 0.930 . S
C99 C97 1.332 . S
C99 C98 1.407 . S
C99 H101 0.929 . S
H100 C89 0.930 . S
H101 C99 0.929 . S
H102 C117 0.930 . S
H103 C124 0.929 . S
H104 C98 0.930 . S
H105 C97 0.931 . S
H106 C120 0.930 . S
H107 C87 0.930 . S
H108 C93 0.929 . S
H109 C94 0.930 . S
H110 C115 0.930 . S
H111 C90 0.930 . S
H112 C123 0.931 . S
N113 Tb84 2.617 . S
N113 C114 1.379 . S
N113 C117 1.334 . S
C114 N113 1.379 . S
C114 C116 1.416 . S
C114 C122 1.424 . S
C115 H110 0.930 . S
C115 C117 1.390 . S
C115 C118 1.339 . S
C116 C114 1.416 . S
C116 C118 1.416 . S
C116 C149 1.448 . S
C117 H102 0.930 . S
C117 N113 1.334 . S
C117 C115 1.390 . S
C118 C115 1.339 . S
C118 C116 1.416 . S
C118 H125 0.930 . S
N119 Tb84 2.572 . S
N119 C120 1.340 . S
N119 C122 1.361 . S
C120 H106 0.930 . S
C120 N119 1.340 . S
C120 C124 1.407 . S
C121 C122 1.413 . S
C121 C123 1.416 . S
C121 C150 1.427 . S
C122 C114 1.424 . S
C122 N119 1.361 . S
C122 C121 1.413 . S
C123 H112 0.931 . S
C123 C121 1.416 . S
C123 C124 1.332 . S
C124 H103 0.929 . S
C124 C120 1.407 . S
C124 C123 1.332 . S
H125 C118 0.930 . S
H126 C149 0.930 1_655 S
H127 C150 0.929 1_655 S
O128 Tb84 2.465 . S
O128 C148 1.264 . S
O129 Tb84 2.422 . S
O129 C140 1.227 1_455 S
O130 Tb95 2.349 1_655 S
O130 C140 1.243 . S
O131 Tb84 2.428 . S
O131 C148 1.256 . S
O132 Tb84 2.308 . S
O132 C147 1.266 . S
O133 Tb95 2.393 . S
O133 C147 1.248 . S
O134 Tb95 2.465 1_655 S
O134 C159 1.264 . S
O135 Tb95 2.387 . S
O135 C151 1.264 . S
O136 Tb84 2.349 . S
O136 C151 1.243 . S
O137 Tb95 2.428 1_655 S
O137 C159 1.256 . S
O138 Tb95 2.308 . S
O138 C158 1.266 . S
O139 Tb84 2.393 . S
O139 C158 1.248 . S
C140 O129 1.227 1_655 S
C140 O130 1.243 . S
C141 C144 1.399 . S
C141 C146 1.383 . S
C141 C148 1.496 . S
C142 C143 1.399 . S
C142 C146 1.389 . S
C143 C142 1.399 . S
C143 C145 1.380 . S
C143 H160 0.929 . S
C144 C141 1.399 . S
C144 C145 1.392 . S
C144 H161 0.929 . S
C145 C143 1.380 . S
C145 C144 1.392 . S
C145 H162 0.929 . S
C146 C141 1.383 . S
C146 C142 1.389 . S
C146 H163 0.931 . S
C147 O132 1.266 . S
C147 O133 1.248 . S
C148 Tb84 2.802 . S
C148 O128 1.264 . S
C148 O131 1.256 . S
C148 C141 1.496 . S
C149 C116 1.448 . S
C149 H126 0.930 1_455 S
C149 C150 1.328 . S
C150 C121 1.427 . S
C150 H127 0.929 1_455 S
C150 C149 1.328 . S
C151 O135 1.264 . S
C151 O136 1.243 . S
C152 C155 1.399 . S
C152 C156 1.383 . S
C152 C159 1.496 . S
C153 C154 1.399 . S
C153 C156 1.389 . S
C154 C153 1.399 . S
C154 C157 1.380 . S
C154 H164 0.929 . S
C155 C152 1.399 . S
C155 C157 1.392 . S
C155 H165 0.929 . S
C156 C152 1.383 . S
C156 C153 1.389 . S
C156 H166 0.931 . S
C157 C154 1.380 . S
C157 C155 1.392 . S
C157 H167 0.929 . S
C158 O138 1.266 . S
C158 O139 1.248 . S
C159 Tb95 2.802 1_655 S
C159 O134 1.264 . S
C159 O137 1.256 . S
C159 C152 1.496 . S
H160 C143 0.929 . S
H161 C144 0.929 . S
H162 C145 0.929 . S
H163 C146 0.931 . S
H164 C154 0.929 . S
H165 C155 0.929 . S
H166 C156 0.931 . S
H167 C157 0.929 . S
Tb168 N197 2.617 . S
Tb168 N203 2.572 . S
Tb168 O212 2.465 . S
Tb168 O213 2.387 . S
Tb168 O215 2.428 . S
Tb168 O216 2.308 . S
Tb168 O220 2.349 . S
Tb168 O223 2.393 . S
Tb168 C232 2.802 . S
C169 N170 1.379 . S
C169 C172 1.416 . S
C169 C176 1.424 . S
N170 C169 1.379 . S
N170 C173 1.334 . S
N170 Tb179 2.617 . S
C171 C173 1.390 . S
C171 C174 1.339 . S
C171 H191 0.930 . S
C172 C169 1.416 . S
C172 C174 1.416 . S
C172 C178 1.448 . S
C173 N170 1.334 . S
C173 C171 1.390 . S
C173 H184 0.930 . S
C174 C171 1.339 . S
C174 C172 1.416 . S
C174 H195 0.930 . S
C175 C176 1.413 . S
C175 C177 1.427 . S
C175 C181 1.416 . S
C176 C169 1.424 . S
C176 C175 1.413 . S
C176 N180 1.361 . S
C177 C175 1.427 . S
C177 C178 1.328 . S
C177 H192 0.929 . S
C178 C172 1.448 . S
C178 C177 1.328 . S
C178 H193 0.930 . S
Tb179 N170 2.617 . S
Tb179 N180 2.572 . S
Tb179 O214 2.349 . S
Tb179 O217 2.393 . S
Tb179 O218 2.465 . S
Tb179 O219 2.387 . S
Tb179 O221 2.428 . S
Tb179 O222 2.308 . S
Tb179 C243 2.802 . S
N180 C176 1.361 . S
N180 Tb179 2.572 . S
N180 C182 1.340 . S
C181 C175 1.416 . S
C181 C183 1.332 . S
C181 H189 0.931 . S
C182 N180 1.340 . S
C182 C183 1.407 . S
C182 H188 0.930 . S
C183 C181 1.332 . S
C183 C182 1.407 . S
C183 H185 0.929 . S
H184 C173 0.930 . S
H185 C183 0.929 . S
H186 C201 0.930 . S
H187 C208 0.929 . S
H188 C182 0.930 . S
H189 C181 0.931 . S
H190 C204 0.930 . S
H191 C171 0.930 . S
H192 C177 0.929 . S
H193 C178 0.930 . S
H194 C199 0.930 . S
H195 C174 0.930 . S
H196 C207 0.931 . S
N197 Tb168 2.617 . S
N197 C198 1.379 . S
N197 C201 1.334 . S
C198 N197 1.379 . S
C198 C200 1.416 . S
C198 C206 1.424 . S
C199 H194 0.930 . S
C199 C201 1.390 . S
C199 C202 1.339 . S
C200 C198 1.416 . S
C200 C202 1.416 . S
C200 C233 1.448 . S
C201 H186 0.930 . S
C201 N197 1.334 . S
C201 C199 1.390 . S
C202 C199 1.339 . S
C202 C200 1.416 . S
C202 H209 0.930 . S
N203 Tb168 2.572 . S
N203 C204 1.340 . S
N203 C206 1.361 . S
C204 H190 0.930 . S
C204 N203 1.340 . S
C204 C208 1.407 . S
C205 C206 1.413 . S
C205 C207 1.416 . S
C205 C234 1.427 . S
C206 C198 1.424 . S
C206 N203 1.361 . S
C206 C205 1.413 . S
C207 H196 0.931 . S
C207 C205 1.416 . S
C207 C208 1.332 . S
C208 H187 0.929 . S
C208 C204 1.407 . S
C208 C207 1.332 . S
H209 C202 0.930 . S
H210 C233 0.930 . S
H211 C234 0.929 . S
O212 Tb168 2.465 . S
O212 C232 1.264 . S
O213 Tb168 2.387 . S
O213 C224 1.264 . S
O214 Tb179 2.349 . S
O214 C224 1.243 . S
O215 Tb168 2.428 . S
O215 C232 1.256 . S
O216 Tb168 2.308 . S
O216 C231 1.266 . S
O217 Tb179 2.393 . S
O217 C231 1.248 . S
O218 Tb179 2.465 . S
O218 C243 1.264 . S
O219 Tb179 2.387 . S
O219 C235 1.264 . S
O220 Tb168 2.349 . S
O220 C235 1.243 . S
O221 Tb179 2.428 . S
O221 C243 1.256 . S
O222 Tb179 2.308 . S
O222 C242 1.266 . S
O223 Tb168 2.393 . S
O223 C242 1.248 . S
C224 O213 1.264 . S
C224 O214 1.243 . S
C225 C228 1.399 . S
C225 C230 1.383 . S
C225 C232 1.496 . S
C226 C227 1.399 . S
C226 C230 1.389 . S
C227 C226 1.399 . S
C227 C229 1.380 . S
C227 H244 0.929 . S
C228 C225 1.399 . S
C228 C229 1.392 . S
C228 H245 0.929 . S
C229 C227 1.380 . S
C229 C228 1.392 . S
C229 H246 0.929 . S
C230 C225 1.383 . S
C230 C226 1.389 . S
C230 H247 0.931 . S
C231 O216 1.266 . S
C231 O217 1.248 . S
C232 Tb168 2.802 . S
C232 O212 1.264 . S
C232 O215 1.256 . S
C232 C225 1.496 . S
C233 C200 1.448 . S
C233 H210 0.930 . S
C233 C234 1.328 . S
C234 C205 1.427 . S
C234 H211 0.929 . S
C234 C233 1.328 . S
C235 O219 1.264 . S
C235 O220 1.243 . S
C236 C239 1.399 . S
C236 C240 1.383 . S
C236 C243 1.496 . S
C237 C238 1.399 . S
C237 C240 1.389 . S
C238 C237 1.399 . S
C238 C241 1.380 . S
C238 H248 0.929 . S
C239 C236 1.399 . S
C239 C241 1.392 . S
C239 H249 0.929 . S
C240 C236 1.383 . S
C240 C237 1.389 . S
C240 H250 0.931 . S
C241 C238 1.380 . S
C241 C239 1.392 . S
C241 H251 0.929 . S
C242 O222 1.266 . S
C242 O223 1.248 . S
C243 Tb179 2.802 . S
C243 O218 1.264 . S
C243 O221 1.256 . S
C243 C236 1.496 . S
H244 C227 0.929 . S
H245 C228 0.929 . S
H246 C229 0.929 . S
H247 C230 0.931 . S
H248 C238 0.929 . S
H249 C239 0.929 . S
H250 C240 0.931 . S
H251 C241 0.929 . S
Tb252 N281 2.624 . S
Tb252 N287 2.572 . S
Tb252 O296 2.465 . S
Tb252 O297 2.387 1_655 S
Tb252 O299 2.428 . S
Tb252 O300 2.308 . S
Tb252 O304 2.349 . S
Tb252 O307 2.393 . S
Tb252 C316 2.802 . S
C253 N254 1.379 . S
C253 C256 1.416 1_455 S
C253 C260 1.424 . S
N254 C253 1.379 . S
N254 C257 1.334 . S
N254 Tb263 2.617 . S
C255 C257 1.390 . S
C255 C258 1.339 1_455 S
C255 H275 0.930 . S
C256 C253 1.416 1_655 S
C256 C258 1.416 . S
C256 C262 1.448 . S
C257 N254 1.334 . S
C257 C255 1.390 . S
C257 H268 0.930 . S
C258 C255 1.339 1_655 S
C258 C256 1.416 . S
C258 H279 0.930 . S
C259 C260 1.413 1_655 S
C259 C261 1.427 . S
C259 C265 1.416 . S
C260 C253 1.424 . S
C260 C259 1.413 1_455 S
C260 N264 1.361 . S
C261 C259 1.427 . S
C261 C262 1.328 . S
C261 H276 0.929 . S
C262 C256 1.448 . S
C262 C261 1.328 . S
C262 H277 0.930 . S
Tb263 N254 2.617 . S
Tb263 N264 2.572 . S
Tb263 O298 2.349 . S
Tb263 O301 2.393 . S
Tb263 O302 2.465 . S
Tb263 O303 2.387 1_455 S
Tb263 O305 2.428 . S
Tb263 O306 2.308 . S
Tb263 C327 2.802 . S
N264 C260 1.361 . S
N264 Tb263 2.572 . S
N264 C266 1.340 . S
C265 C259 1.416 . S
C265 C267 1.332 1_655 S
C265 H273 0.931 . S
C266 N264 1.340 . S
C266 C267 1.407 . S
C266 H272 0.930 . S
C267 C265 1.332 1_455 S
C267 C266 1.407 . S
C267 H269 0.929 . S
H268 C257 0.930 . S
H269 C267 0.929 . S
H270 C285 0.921 1_655 S
H271 C292 0.929 . S
H272 C266 0.930 . S
H273 C265 0.931 . S
H274 C288 0.930 . S
H275 C255 0.930 . S
H276 C261 0.929 . S
H277 C262 0.930 . S
H278 C283 0.930 . S
H279 C258 0.930 . S
H280 C291 0.931 . S
N281 Tb252 2.624 . S
N281 C282 1.370 1_655 S
N281 C285 1.338 1_655 S
C282 N281 1.370 1_455 S
C282 C284 1.416 . S
C282 C290 1.424 . S
C283 H278 0.930 . S
C283 C285 1.397 . S
C283 C286 1.339 . S
C284 C282 1.416 . S
C284 C286 1.416 . S
C284 C317 1.448 . S
C285 H270 0.921 1_455 S
C285 N281 1.338 1_455 S
C285 C283 1.397 . S
C286 C283 1.339 . S
C286 C284 1.416 . S
C286 H293 0.930 . S
N287 Tb252 2.572 . S
N287 C288 1.340 . S
N287 C290 1.361 1_655 S
C288 H274 0.930 . S
C288 N287 1.340 . S
C288 C292 1.407 1_655 S
C289 C290 1.413 . S
C289 C291 1.416 . S
C289 C318 1.427 . S
C290 C282 1.424 . S
C290 N287 1.361 1_455 S
C290 C289 1.413 . S
C291 H280 0.931 . S
C291 C289 1.416 . S
C291 C292 1.332 . S
C292 H271 0.929 . S
C292 C288 1.407 1_455 S
C292 C291 1.332 . S
H293 C286 0.930 . S
H294 C317 0.930 . S
H295 C318 0.929 . S
O296 Tb252 2.465 . S
O296 C316 1.264 . S
O297 Tb252 2.387 1_455 S
O297 C308 1.264 . S
O298 Tb263 2.349 . S
O298 C308 1.243 . S
O299 Tb252 2.428 . S
O299 C316 1.256 . S
O300 Tb252 2.308 . S
O300 C315 1.266 . S
O301 Tb263 2.393 . S
O301 C315 1.248 1_455 S
O302 Tb263 2.465 . S
O302 C327 1.264 . S
O303 Tb263 2.387 1_655 S
O303 C319 1.264 . S
O304 Tb252 2.349 . S
O304 C319 1.243 . S
O305 Tb263 2.428 . S
O305 C327 1.256 . S
O306 Tb263 2.308 . S
O306 C326 1.266 . S
O307 Tb252 2.393 . S
O307 C326 1.248 1_655 S
C308 O297 1.264 . S
C308 O298 1.243 . S
C309 C312 1.399 . S
C309 C314 1.383 . S
C309 C316 1.496 . S
C310 C311 1.399 . S
C310 C314 1.389 . S
C311 C310 1.399 . S
C311 C313 1.380 . S
C311 H328 0.929 . S
C312 C309 1.399 . S
C312 C313 1.392 . S
C312 H329 0.929 . S
C313 C311 1.380 . S
C313 C312 1.392 . S
C313 H330 0.929 . S
C314 C309 1.383 . S
C314 C310 1.389 . S
C314 H331 0.931 . S
C315 O300 1.266 . S
C315 O301 1.248 1_655 S
C316 Tb252 2.802 . S
C316 O296 1.264 . S
C316 O299 1.256 . S
C316 C309 1.496 . S
C317 C284 1.448 . S
C317 H294 0.930 . S
C317 C318 1.328 . S
C318 C289 1.427 . S
C318 H295 0.929 . S
C318 C317 1.328 . S
C319 O303 1.264 . S
C319 O304 1.243 . S
C320 C323 1.399 . S
C320 C324 1.383 . S
C320 C327 1.496 . S
C321 C322 1.399 . S
C321 C324 1.389 . S
C322 C321 1.399 . S
C322 C325 1.380 . S
C322 H332 0.929 . S
C323 C320 1.399 . S
C323 C325 1.392 . S
C323 H333 0.929 . S
C324 C320 1.383 . S
C324 C321 1.389 . S
C324 H334 0.931 . S
C325 C322 1.380 . S
C325 C323 1.392 . S
C325 H335 0.929 . S
C326 O306 1.266 . S
C326 O307 1.248 1_455 S
C327 Tb263 2.802 . S
C327 O302 1.264 . S
C327 O305 1.256 . S
C327 C320 1.496 . S
H328 C311 0.929 . S
H329 C312 0.929 . S
H330 C313 0.929 . S
H331 C314 0.931 . S
H332 C322 0.929 . S
H333 C323 0.929 . S
H334 C324 0.931 . S
H335 C325 0.929 . S
Tb336 N365 2.617 . S
Tb336 N371 2.572 . S
Tb336 O380 2.465 . S
Tb336 O381 2.387 . S
Tb336 O383 2.428 . S
Tb336 O384 2.308 . S
Tb336 O388 2.349 . S
Tb336 O391 2.393 . S
Tb336 C400 2.802 . S
C337 N338 1.379 . S
C337 C340 1.416 . S
C337 C344 1.424 . S
N338 C337 1.379 . S
N338 C341 1.334 . S
N338 Tb347 2.617 . S
C339 C341 1.390 . S
C339 C342 1.339 . S
C339 H359 0.930 . S
C340 C337 1.416 . S
C340 C342 1.416 . S
C340 C346 1.448 . S
C341 N338 1.334 . S
C341 C339 1.390 . S
C341 H352 0.930 . S
C342 C339 1.339 . S
C342 C340 1.416 . S
C342 H363 0.930 . S
C343 C344 1.413 . S
C343 C345 1.427 . S
C343 C349 1.416 . S
C344 C337 1.424 . S
C344 C343 1.413 . S
C344 N348 1.361 . S
C345 C343 1.427 . S
C345 C346 1.328 . S
C345 H360 0.929 . S
C346 C340 1.448 . S
C346 C345 1.328 . S
C346 H361 0.930 . S
Tb347 N338 2.617 . S
Tb347 N348 2.572 . S
Tb347 O382 2.349 . S
Tb347 O385 2.393 . S
Tb347 O386 2.465 . S
Tb347 O387 2.387 . S
Tb347 O389 2.428 . S
Tb347 O390 2.308 . S
Tb347 C411 2.802 . S
N348 C344 1.361 . S
N348 Tb347 2.572 . S
N348 C350 1.340 . S
C349 C343 1.416 . S
C349 C351 1.332 . S
C349 H357 0.931 . S
C350 N348 1.340 . S
C350 C351 1.407 . S
C350 H356 0.930 . S
C351 C349 1.332 . S
C351 C350 1.407 . S
C351 H353 0.929 . S
H352 C341 0.930 . S
H353 C351 0.929 . S
H354 C369 0.930 . S
H355 C376 0.929 . S
H356 C350 0.930 . S
H357 C349 0.931 . S
H358 C372 0.930 . S
H359 C339 0.930 . S
H360 C345 0.929 . S
H361 C346 0.930 . S
H362 C367 0.930 . S
H363 C342 0.930 . S
H364 C375 0.931 . S
N365 Tb336 2.617 . S
N365 C366 1.379 . S
N365 C369 1.334 . S
C366 N365 1.379 . S
C366 C368 1.416 . S
C366 C374 1.424 . S
C367 H362 0.930 . S
C367 C369 1.390 . S
C367 C370 1.339 . S
C368 C366 1.416 . S
C368 C370 1.416 . S
C368 C401 1.448 . S
C369 H354 0.930 . S
C369 N365 1.334 . S
C369 C367 1.390 . S
C370 C367 1.339 . S
C370 C368 1.416 . S
C370 H377 0.930 . S
N371 Tb336 2.572 . S
N371 C372 1.340 . S
N371 C374 1.361 . S
C372 H358 0.930 . S
C372 N371 1.340 . S
C372 C376 1.407 . S
C373 C374 1.413 . S
C373 C375 1.416 . S
C373 C402 1.427 . S
C374 C366 1.424 . S
C374 N371 1.361 . S
C374 C373 1.413 . S
C375 H364 0.931 . S
C375 C373 1.416 . S
C375 C376 1.332 . S
C376 H355 0.929 . S
C376 C372 1.407 . S
C376 C375 1.332 . S
H377 C370 0.930 . S
H378 C401 0.930 . S
H379 C402 0.929 . S
O380 Tb336 2.465 . S
O380 C400 1.264 . S
O381 Tb336 2.387 . S
O381 C392 1.264 . S
O382 Tb347 2.349 . S
O382 C392 1.243 . S
O383 Tb336 2.428 . S
O383 C400 1.256 . S
O384 Tb336 2.308 . S
O384 C399 1.266 . S
O385 Tb347 2.393 . S
O385 C399 1.248 . S
O386 Tb347 2.465 . S
O386 C411 1.264 . S
O387 Tb347 2.387 . S
O387 C403 1.264 . S
O388 Tb336 2.349 . S
O388 C403 1.243 . S
O389 Tb347 2.428 . S
O389 C411 1.256 . S
O390 Tb347 2.308 . S
O390 C410 1.266 . S
O391 Tb336 2.393 . S
O391 C410 1.248 . S
C392 O381 1.264 . S
C392 O382 1.243 . S
C393 C396 1.399 . S
C393 C398 1.383 . S
C393 C400 1.496 . S
C394 C395 1.399 . S
C394 C398 1.389 . S
C395 C394 1.399 . S
C395 C397 1.380 . S
C395 H412 0.929 . S
C396 C393 1.399 . S
C396 C397 1.392 . S
C396 H413 0.929 . S
C397 C395 1.380 . S
C397 C396 1.392 . S
C397 H414 0.929 . S
C398 C393 1.383 . S
C398 C394 1.389 . S
C398 H415 0.931 . S
C399 O384 1.266 . S
C399 O385 1.248 . S
C400 Tb336 2.802 . S
C400 O380 1.264 . S
C400 O383 1.256 . S
C400 C393 1.496 . S
C401 C368 1.448 . S
C401 H378 0.930 . S
C401 C402 1.328 . S
C402 C373 1.427 . S
C402 H379 0.929 . S
C402 C401 1.328 . S
C403 O387 1.264 . S
C403 O388 1.243 . S
C404 C407 1.399 . S
C404 C408 1.383 . S
C404 C411 1.496 . S
C405 C406 1.399 . S
C405 C408 1.389 . S
C406 C405 1.399 . S
C406 C409 1.380 . S
C406 H416 0.929 . S
C407 C404 1.399 . S
C407 C409 1.392 . S
C407 H417 0.929 . S
C408 C404 1.383 . S
C408 C405 1.389 . S
C408 H418 0.931 . S
C409 C406 1.380 . S
C409 C407 1.392 . S
C409 H419 0.929 . S
C410 O390 1.266 . S
C410 O391 1.248 . S
C411 Tb347 2.802 . S
C411 O386 1.264 . S
C411 O389 1.256 . S
C411 C404 1.496 . S
H412 C395 0.929 . S
H413 C396 0.929 . S
H414 C397 0.929 . S
H415 C398 0.931 . S
H416 C406 0.929 . S
H417 C407 0.929 . S
H418 C408 0.931 . S
H419 C409 0.929 . S
Tb420 N449 2.617 . S
Tb420 N455 2.572 . S
Tb420 O464 2.465 . S
Tb420 O465 2.422 . S
Tb420 O467 2.428 . S
Tb420 O468 2.308 . S
Tb420 O472 2.349 . S
Tb420 O475 2.393 . S
Tb420 C484 2.802 . S
C421 N422 1.379 . S
C421 C424 1.416 . S
C421 C428 1.424 . S
N422 C421 1.379 . S
N422 C425 1.334 . S
N422 Tb431 2.617 . S
C423 C425 1.390 . S
C423 C426 1.339 . S
C423 H443 0.930 . S
C424 C421 1.416 . S
C424 C426 1.416 . S
C424 C430 1.448 . S
C425 N422 1.334 . S
C425 C423 1.390 . S
C425 H436 0.930 . S
C426 C423 1.339 . S
C426 C424 1.416 . S
C426 H447 0.930 . S
C427 C428 1.413 . S
C427 C429 1.427 . S
C427 C433 1.416 . S
C428 C421 1.424 . S
C428 C427 1.413 . S
C428 N432 1.361 . S
C429 C427 1.427 . S
C429 C430 1.328 . S
C429 H444 0.929 . S
C430 C424 1.448 . S
C430 C429 1.328 . S
C430 H445 0.930 . S
Tb431 N422 2.617 . S
Tb431 N432 2.572 . S
Tb431 O466 2.349 1_545 S
Tb431 O469 2.393 . S
Tb431 O470 2.465 1_545 S
Tb431 O471 2.387 . S
Tb431 O473 2.428 1_545 S
Tb431 O474 2.308 . S
Tb431 C495 2.802 1_545 S
N432 C428 1.361 . S
N432 Tb431 2.572 . S
N432 C434 1.340 . S
C433 C427 1.416 . S
C433 C435 1.332 . S
C433 H441 0.931 . S
C434 N432 1.340 . S
C434 C435 1.407 . S
C434 H440 0.930 . S
C435 C433 1.332 . S
C435 C434 1.407 . S
C435 H437 0.929 . S
H436 C425 0.930 . S
H437 C435 0.929 . S
H438 C453 0.930 . S
H439 C460 0.929 . S
H440 C434 0.930 . S
H441 C433 0.931 . S
H442 C456 0.930 . S
H443 C423 0.930 . S
H444 C429 0.929 . S
H445 C430 0.930 . S
H446 C451 0.930 . S
H447 C426 0.930 . S
H448 C459 0.931 . S
N449 Tb420 2.617 . S
N449 C450 1.379 . S
N449 C453 1.334 . S
C450 N449 1.379 . S
C450 C452 1.416 . S
C450 C458 1.424 . S
C451 H446 0.930 . S
C451 C453 1.390 . S
C451 C454 1.339 . S
C452 C450 1.416 . S
C452 C454 1.416 . S
C452 C485 1.448 . S
C453 H438 0.930 . S
C453 N449 1.334 . S
C453 C451 1.390 . S
C454 C451 1.339 . S
C454 C452 1.416 . S
C454 H461 0.930 . S
N455 Tb420 2.572 . S
N455 C456 1.340 . S
N455 C458 1.361 . S
C456 H442 0.930 . S
C456 N455 1.340 . S
C456 C460 1.407 . S
C457 C458 1.413 . S
C457 C459 1.416 . S
C457 C486 1.427 . S
C458 C450 1.424 . S
C458 N455 1.361 . S
C458 C457 1.413 . S
C459 H448 0.931 . S
C459 C457 1.416 . S
C459 C460 1.332 . S
C460 H439 0.929 . S
C460 C456 1.407 . S
C460 C459 1.332 . S
H461 C454 0.930 . S
H462 C485 0.930 1_565 S
H463 C486 0.929 1_565 S
O464 Tb420 2.465 . S
O464 C484 1.264 . S
O465 Tb420 2.422 . S
O465 C476 1.227 1_545 S
O466 Tb431 2.349 1_565 S
O466 C476 1.243 . S
O467 Tb420 2.428 . S
O467 C484 1.256 . S
O468 Tb420 2.308 . S
O468 C483 1.266 . S
O469 Tb431 2.393 . S
O469 C483 1.248 . S
O470 Tb431 2.465 1_565 S
O470 C495 1.264 . S
O471 Tb431 2.387 . S
O471 C487 1.264 . S
O472 Tb420 2.349 . S
O472 C487 1.243 . S
O473 Tb431 2.428 1_565 S
O473 C495 1.256 . S
O474 Tb431 2.308 . S
O474 C494 1.266 . S
O475 Tb420 2.393 . S
O475 C494 1.248 . S
C476 O465 1.227 1_565 S
C476 O466 1.243 . S
C477 C480 1.399 . S
C477 C482 1.383 . S
C477 C484 1.496 . S
C478 C479 1.399 . S
C478 C482 1.389 . S
C479 C478 1.399 . S
C479 C481 1.380 . S
C479 H496 0.929 . S
C480 C477 1.399 . S
C480 C481 1.392 . S
C480 H497 0.929 . S
C481 C479 1.380 . S
C481 C480 1.392 . S
C481 H498 0.929 . S
C482 C477 1.383 . S
C482 C478 1.389 . S
C482 H499 0.931 . S
C483 O468 1.266 . S
C483 O469 1.248 . S
C484 Tb420 2.802 . S
C484 O464 1.264 . S
C484 O467 1.256 . S
C484 C477 1.496 . S
C485 C452 1.448 . S
C485 H462 0.930 1_545 S
C485 C486 1.328 . S
C486 C457 1.427 . S
C486 H463 0.929 1_545 S
C486 C485 1.328 . S
C487 O471 1.264 . S
C487 O472 1.243 . S
C488 C491 1.399 . S
C488 C492 1.383 . S
C488 C495 1.496 . S
C489 C490 1.399 . S
C489 C492 1.389 . S
C490 C489 1.399 . S
C490 C493 1.380 . S
C490 H500 0.929 . S
C491 C488 1.399 . S
C491 C493 1.392 . S
C491 H501 0.929 . S
C492 C488 1.383 . S
C492 C489 1.389 . S
C492 H502 0.931 . S
C493 C490 1.380 . S
C493 C491 1.392 . S
C493 H503 0.929 . S
C494 O474 1.266 . S
C494 O475 1.248 . S
C495 Tb431 2.802 1_565 S
C495 O470 1.264 . S
C495 O473 1.256 . S
C495 C488 1.496 . S
H496 C479 0.929 . S
H497 C480 0.929 . S
H498 C481 0.929 . S
H499 C482 0.931 . S
H500 C490 0.929 . S
H501 C491 0.929 . S
H502 C492 0.931 . S
H503 C493 0.929 . S
Tb504 N533 2.617 . S
Tb504 N539 2.572 . S
Tb504 O548 2.465 . S
Tb504 O549 2.387 . S
Tb504 O551 2.428 . S
Tb504 O552 2.308 . S
Tb504 O556 2.349 . S
Tb504 O559 2.393 . S
Tb504 C568 2.802 . S
C505 N506 1.379 . S
C505 C508 1.416 . S
C505 C512 1.424 . S
N506 C505 1.379 . S
N506 C509 1.334 . S
N506 Tb515 2.617 . S
C507 C509 1.390 . S
C507 C510 1.339 . S
C507 H527 0.930 . S
C508 C505 1.416 . S
C508 C510 1.416 . S
C508 C514 1.448 . S
C509 N506 1.334 . S
C509 C507 1.390 . S
C509 H520 0.930 . S
C510 C507 1.339 . S
C510 C508 1.416 . S
C510 H531 0.930 . S
C511 C512 1.413 . S
C511 C513 1.427 . S
C511 C517 1.416 . S
C512 C505 1.424 . S
C512 C511 1.413 . S
C512 N516 1.361 . S
C513 C511 1.427 . S
C513 C514 1.328 . S
C513 H528 0.929 . S
C514 C508 1.448 . S
C514 C513 1.328 . S
C514 H529 0.930 . S
Tb515 N506 2.617 . S
Tb515 N516 2.572 . S
Tb515 O550 2.349 . S
Tb515 O553 2.393 . S
Tb515 O554 2.465 . S
Tb515 O555 2.387 . S
Tb515 O557 2.428 . S
Tb515 O558 2.308 . S
Tb515 C579 2.802 . S
N516 C512 1.361 . S
N516 Tb515 2.572 . S
N516 C518 1.340 . S
C517 C511 1.416 . S
C517 C519 1.332 . S
C517 H525 0.931 . S
C518 N516 1.340 . S
C518 C519 1.407 . S
C518 H524 0.930 . S
C519 C517 1.332 . S
C519 C518 1.407 . S
C519 H521 0.929 . S
H520 C509 0.930 . S
H521 C519 0.929 . S
H522 C537 0.930 . S
H523 C544 0.929 . S
H524 C518 0.930 . S
H525 C517 0.931 . S
H526 C540 0.930 . S
H527 C507 0.930 . S
H528 C513 0.929 . S
H529 C514 0.930 . S
H530 C535 0.930 . S
H531 C510 0.930 . S
H532 C543 0.931 . S
N533 Tb504 2.617 . S
N533 C534 1.379 . S
N533 C537 1.334 . S
C534 N533 1.379 . S
C534 C536 1.416 . S
C534 C542 1.424 . S
C535 H530 0.930 . S
C535 C537 1.390 . S
C535 C538 1.339 . S
C536 C534 1.416 . S
C536 C538 1.416 . S
C536 C569 1.448 . S
C537 H522 0.930 . S
C537 N533 1.334 . S
C537 C535 1.390 . S
C538 C535 1.339 . S
C538 C536 1.416 . S
C538 H545 0.930 . S
N539 Tb504 2.572 . S
N539 C540 1.340 . S
N539 C542 1.361 . S
C540 H526 0.930 . S
C540 N539 1.340 . S
C540 C544 1.407 . S
C541 C542 1.413 . S
C541 C543 1.416 . S
C541 C570 1.427 . S
C542 C534 1.424 . S
C542 N539 1.361 . S
C542 C541 1.413 . S
C543 H532 0.931 . S
C543 C541 1.416 . S
C543 C544 1.332 . S
C544 H523 0.929 . S
C544 C540 1.407 . S
C544 C543 1.332 . S
H545 C538 0.930 . S
H546 C569 0.930 . S
H547 C570 0.929 . S
O548 Tb504 2.465 . S
O548 C568 1.264 . S
O549 Tb504 2.387 . S
O549 C560 1.264 . S
O550 Tb515 2.349 . S
O550 C560 1.243 . S
O551 Tb504 2.428 . S
O551 C568 1.256 . S
O552 Tb504 2.308 . S
O552 C567 1.266 . S
O553 Tb515 2.393 . S
O553 C567 1.248 . S
O554 Tb515 2.465 . S
O554 C579 1.264 . S
O555 Tb515 2.387 . S
O555 C571 1.264 . S
O556 Tb504 2.349 . S
O556 C571 1.243 . S
O557 Tb515 2.428 . S
O557 C579 1.256 . S
O558 Tb515 2.308 . S
O558 C578 1.266 . S
O559 Tb504 2.393 . S
O559 C578 1.248 . S
C560 O549 1.264 . S
C560 O550 1.243 . S
C561 C564 1.399 . S
C561 C566 1.383 . S
C561 C568 1.496 . S
C562 C563 1.399 . S
C562 C566 1.388 1_655 S
C563 C562 1.399 . S
C563 C565 1.380 1_655 S
C563 H580 0.929 . S
C564 C561 1.399 . S
C564 C565 1.392 . S
C564 H581 0.929 . S
C565 C563 1.380 1_455 S
C565 C564 1.392 . S
C565 H582 0.929 1_455 S
C566 C561 1.383 . S
C566 C562 1.388 1_455 S
C566 H583 0.931 . S
C567 O552 1.266 . S
C567 O553 1.248 . S
C568 Tb504 2.802 . S
C568 O548 1.264 . S
C568 O551 1.256 . S
C568 C561 1.496 . S
C569 C536 1.448 . S
C569 H546 0.930 . S
C569 C570 1.328 . S
C570 C541 1.427 . S
C570 H547 0.929 . S
C570 C569 1.328 . S
C571 O555 1.264 . S
C571 O556 1.243 . S
C572 C575 1.399 . S
C572 C576 1.383 . S
C572 C579 1.496 . S
C573 C574 1.399 . S
C573 C576 1.389 . S
C574 C573 1.399 . S
C574 C577 1.380 . S
C574 H584 0.929 . S
C575 C572 1.399 . S
C575 C577 1.392 . S
C575 H585 0.929 . S
C576 C572 1.383 . S
C576 C573 1.389 . S
C576 H586 0.931 . S
C577 C574 1.380 . S
C577 C575 1.392 . S
C577 H587 0.929 . S
C578 O558 1.266 . S
C578 O559 1.248 . S
C579 Tb515 2.802 . S
C579 O554 1.264 . S
C579 O557 1.256 . S
C579 C572 1.496 . S
H580 C563 0.929 . S
H581 C564 0.929 . S
H582 C565 0.929 1_655 S
H583 C566 0.931 . S
H584 C574 0.929 . S
H585 C575 0.929 . S
H586 C576 0.931 . S
H587 C577 0.929 . S
Tb588 N617 2.617 . S
Tb588 N623 2.572 . S
Tb588 O632 2.465 . S
Tb588 O633 2.387 . S
Tb588 O635 2.428 . S
Tb588 O636 2.308 . S
Tb588 O640 2.349 . S
Tb588 O643 2.393 . S
Tb588 C652 2.802 . S
C589 N590 1.379 . S
C589 C592 1.416 . S
C589 C596 1.424 . S
N590 C589 1.379 . S
N590 C593 1.334 . S
N590 Tb599 2.617 . S
C591 C593 1.390 . S
C591 C594 1.339 . S
C591 H611 0.930 . S
C592 C589 1.416 . S
C592 C594 1.416 . S
C592 C598 1.448 . S
C593 N590 1.334 . S
C593 C591 1.390 . S
C593 H604 0.930 . S
C594 C591 1.339 . S
C594 C592 1.416 . S
C594 H615 0.930 . S
C595 C596 1.413 . S
C595 C597 1.427 1_565 S
C595 C601 1.416 . S
C596 C589 1.424 . S
C596 C595 1.413 . S
C596 N600 1.361 . S
C597 C595 1.427 1_545 S
C597 C598 1.328 1_545 S
C597 H612 0.929 . S
C598 C592 1.448 . S
C598 C597 1.328 1_565 S
C598 H613 0.930 1_565 S
Tb599 N590 2.617 . S
Tb599 N600 2.572 . S
Tb599 O634 2.349 . S
Tb599 O637 2.393 . S
Tb599 O638 2.465 . S
Tb599 O639 2.387 . S
Tb599 O641 2.428 . S
Tb599 O642 2.308 . S
Tb599 C663 2.802 . S
N600 C596 1.361 . S
N600 Tb599 2.572 . S
N600 C602 1.340 . S
C601 C595 1.416 . S
C601 C603 1.332 . S
C601 H609 0.931 1_565 S
C602 N600 1.340 . S
C602 C603 1.407 . S
C602 H608 0.930 . S
C603 C601 1.332 . S
C603 C602 1.407 . S
C603 H605 0.929 . S
H604 C593 0.930 . S
H605 C603 0.929 . S
H606 C621 0.930 . S
H607 C628 0.929 . S
H608 C602 0.930 . S
H609 C601 0.931 1_545 S
H610 C624 0.930 . S
H611 C591 0.930 . S
H612 C597 0.929 . S
H613 C598 0.930 1_545 S
H614 C619 0.930 . S
H615 C594 0.930 . S
H616 C627 0.931 . S
N617 Tb588 2.617 . S
N617 C618 1.379 . S
N617 C621 1.334 . S
C618 N617 1.379 . S
C618 C620 1.416 . S
C618 C626 1.424 . S
C619 H614 0.930 . S
C619 C621 1.390 . S
C619 C622 1.339 . S
C620 C618 1.416 . S
C620 C622 1.416 . S
C620 C653 1.448 . S
C621 H606 0.930 . S
C621 N617 1.334 . S
C621 C619 1.390 . S
C622 C619 1.339 . S
C622 C620 1.416 . S
C622 H629 0.930 . S
N623 Tb588 2.572 . S
N623 C624 1.340 . S
N623 C626 1.361 . S
C624 H610 0.930 . S
C624 N623 1.340 . S
C624 C628 1.407 . S
C625 C626 1.413 . S
C625 C627 1.416 . S
C625 C654 1.427 . S
C626 C618 1.424 . S
C626 N623 1.361 . S
C626 C625 1.413 . S
C627 H616 0.931 . S
C627 C625 1.416 . S
C627 C628 1.332 . S
C628 H607 0.929 . S
C628 C624 1.407 . S
C628 C627 1.332 . S
H629 C622 0.930 . S
H630 C653 0.930 . S
H631 C654 0.929 . S
O632 Tb588 2.465 . S
O632 C652 1.264 . S
O633 Tb588 2.387 . S
O633 C644 1.264 . S
O634 Tb599 2.349 . S
O634 C644 1.243 . S
O635 Tb588 2.428 . S
O635 C652 1.256 . S
O636 Tb588 2.308 . S
O636 C651 1.266 . S
O637 Tb599 2.393 . S
O637 C651 1.248 . S
O638 Tb599 2.465 . S
O638 C663 1.264 . S
O639 Tb599 2.387 . S
O639 C655 1.264 . S
O640 Tb588 2.349 . S
O640 C655 1.243 . S
O641 Tb599 2.428 . S
O641 C663 1.256 . S
O642 Tb599 2.308 . S
O642 C662 1.266 . S
O643 Tb588 2.393 . S
O643 C662 1.248 . S
C644 O633 1.264 . S
C644 O634 1.243 . S
C645 C648 1.399 . S
C645 C650 1.383 . S
C645 C652 1.496 . S
C646 C647 1.399 . S
C646 C650 1.389 . S
C647 C646 1.399 . S
C647 C649 1.380 . S
C647 H664 0.929 . S
C648 C645 1.399 . S
C648 C649 1.392 . S
C648 H665 0.929 . S
C649 C647 1.380 . S
C649 C648 1.392 . S
C649 H666 0.929 . S
C650 C645 1.383 . S
C650 C646 1.389 . S
C650 H667 0.931 . S
C651 O636 1.266 . S
C651 O637 1.248 . S
C652 Tb588 2.802 . S
C652 O632 1.264 . S
C652 O635 1.256 . S
C652 C645 1.496 . S
C653 C620 1.448 . S
C653 H630 0.930 . S
C653 C654 1.328 . S
C654 C625 1.427 . S
C654 H631 0.929 . S
C654 C653 1.328 . S
C655 O639 1.264 . S
C655 O640 1.243 . S
C656 C659 1.399 . S
C656 C660 1.383 . S
C656 C663 1.496 . S
C657 C658 1.399 . S
C657 C660 1.389 . S
C658 C657 1.399 . S
C658 C661 1.380 . S
C658 H668 0.929 . S
C659 C656 1.399 . S
C659 C661 1.392 . S
C659 H669 0.929 . S
C660 C656 1.383 . S
C660 C657 1.389 . S
C660 H670 0.931 . S
C661 C658 1.380 . S
C661 C659 1.392 . S
C661 H671 0.929 . S
C662 O642 1.266 . S
C662 O643 1.248 . S
C663 Tb599 2.802 . S
C663 O638 1.264 . S
C663 O641 1.256 . S
C663 C656 1.496 . S
H664 C647 0.929 . S
H665 C648 0.929 . S
H666 C649 0.929 . S
H667 C650 0.931 . S
H668 C658 0.929 . S
H669 C659 0.929 . S
H670 C660 0.931 . S
H671 C661 0.929 . S
Tb672 N701 2.617 . S
Tb672 N707 2.572 . S
Tb672 O716 2.465 . S
Tb672 O717 2.387 . S
Tb672 O719 2.428 . S
Tb672 O720 2.308 . S
Tb672 O724 2.349 . S
Tb672 O727 2.393 . S
Tb672 C736 2.802 . S
C673 N674 1.379 . S
C673 C676 1.416 . S
C673 C680 1.424 . S
N674 C673 1.379 . S
N674 C677 1.334 . S
N674 Tb683 2.617 . S
C675 C677 1.390 . S
C675 C678 1.339 . S
C675 H695 0.930 . S
C676 C673 1.416 . S
C676 C678 1.416 . S
C676 C682 1.448 . S
C677 N674 1.334 . S
C677 C675 1.390 . S
C677 H688 0.930 . S
C678 C675 1.339 . S
C678 C676 1.416 . S
C678 H699 0.930 . S
C679 C680 1.413 . S
C679 C681 1.427 . S
C679 C685 1.416 . S
C680 C673 1.424 . S
C680 C679 1.413 . S
C680 N684 1.361 . S
C681 C679 1.427 . S
C681 C682 1.328 . S
C681 H696 0.929 . S
C682 C676 1.448 . S
C682 C681 1.328 . S
C682 H697 0.930 . S
Tb683 N674 2.617 . S
Tb683 N684 2.572 . S
Tb683 O718 2.349 . S
Tb683 O721 2.393 . S
Tb683 O722 2.465 . S
Tb683 O723 2.387 . S
Tb683 O725 2.428 . S
Tb683 O726 2.308 . S
Tb683 C747 2.802 . S
N684 C680 1.361 . S
N684 Tb683 2.572 . S
N684 C686 1.340 . S
C685 C679 1.416 . S
C685 C687 1.332 . S
C685 H693 0.931 . S
C686 N684 1.340 . S
C686 C687 1.407 . S
C686 H692 0.930 . S
C687 C685 1.332 . S
C687 C686 1.407 . S
C687 H689 0.929 . S
H688 C677 0.930 . S
H689 C687 0.929 . S
H690 C705 0.930 . S
H691 C712 0.929 . S
H692 C686 0.930 . S
H693 C685 0.931 . S
H694 C708 0.930 . S
H695 C675 0.930 . S
H696 C681 0.929 . S
H697 C682 0.930 . S
H698 C703 0.930 . S
H699 C678 0.930 . S
H700 C711 0.928 1_545 S
N701 Tb672 2.617 . S
N701 C702 1.379 . S
N701 C705 1.334 . S
C702 N701 1.379 . S
C702 C704 1.416 . S
C702 C710 1.424 . S
C703 H698 0.930 . S
C703 C705 1.390 . S
C703 C706 1.339 . S
C704 C702 1.416 . S
C704 C706 1.416 . S
C704 C737 1.448 . S
C705 H690 0.930 . S
C705 N701 1.334 . S
C705 C703 1.390 . S
C706 C703 1.339 . S
C706 C704 1.416 . S
C706 H713 0.930 . S
N707 Tb672 2.572 . S
N707 C708 1.340 . S
N707 C710 1.361 . S
C708 H694 0.930 . S
C708 N707 1.340 . S
C708 C712 1.407 . S
C709 C710 1.413 . S
C709 C711 1.422 . S
C709 C738 1.427 1_565 S
C710 C702 1.424 . S
C710 N707 1.361 . S
C710 C709 1.413 . S
C711 H700 0.928 1_565 S
C711 C709 1.422 . S
C711 C712 1.331 . S
C712 H691 0.929 . S
C712 C708 1.407 . S
C712 C711 1.331 . S
H713 C706 0.930 . S
H714 C737 0.930 . S
H715 C738 0.931 . S
O716 Tb672 2.465 . S
O716 C736 1.264 . S
O717 Tb672 2.387 . S
O717 C728 1.264 . S
O718 Tb683 2.349 . S
O718 C728 1.243 . S
O719 Tb672 2.428 . S
O719 C736 1.256 . S
O720 Tb672 2.308 . S
O720 C735 1.266 . S
O721 Tb683 2.393 . S
O721 C735 1.248 . S
O722 Tb683 2.465 . S
O722 C747 1.264 . S
O723 Tb683 2.387 . S
O723 C739 1.264 . S
O724 Tb672 2.349 . S
O724 C739 1.243 . S
O725 Tb683 2.428 . S
O725 C747 1.256 . S
O726 Tb683 2.308 . S
O726 C746 1.266 . S
O727 Tb672 2.393 . S
O727 C746 1.248 . S
C728 O717 1.264 . S
C728 O718 1.243 . S
C729 C732 1.399 1_565 S
C729 C734 1.383 1_565 S
C729 C736 1.496 . S
C730 C731 1.399 . S
C730 C734 1.389 . S
C731 C730 1.399 . S
C731 C733 1.380 . S
C731 H748 0.929 . S
C732 C729 1.399 1_545 S
C732 C733 1.392 . S
C732 H749 0.929 1_545 S
C733 C731 1.380 . S
C733 C732 1.392 . S
C733 H750 0.929 . S
C734 C729 1.383 1_545 S
C734 C730 1.389 . S
C734 H751 0.931 . S
C735 O720 1.266 . S
C735 O721 1.248 . S
C736 Tb672 2.802 . S
C736 O716 1.264 . S
C736 O719 1.256 . S
C736 C729 1.496 . S
C737 C704 1.448 . S
C737 H714 0.930 . S
C737 C738 1.326 1_565 S
C738 C709 1.427 1_545 S
C738 H715 0.931 . S
C738 C737 1.326 1_545 S
C739 O723 1.264 . S
C739 O724 1.243 . S
C740 C743 1.399 . S
C740 C744 1.383 . S
C740 C747 1.496 . S
C741 C742 1.399 . S
C741 C744 1.389 . S
C742 C741 1.399 . S
C742 C745 1.380 . S
C742 H752 0.929 . S
C743 C740 1.399 . S
C743 C745 1.392 . S
C743 H753 0.929 . S
C744 C740 1.383 . S
C744 C741 1.389 . S
C744 H754 0.931 . S
C745 C742 1.380 . S
C745 C743 1.392 . S
C745 H755 0.929 . S
C746 O726 1.266 . S
C746 O727 1.248 . S
C747 Tb683 2.802 . S
C747 O722 1.264 . S
C747 O725 1.256 . S
C747 C740 1.496 . S
H748 C731 0.929 . S
H749 C732 0.929 1_565 S
H750 C733 0.929 . S
H751 C734 0.931 . S
H752 C742 0.929 . S
H753 C743 0.929 . S
H754 C744 0.931 . S
H755 C745 0.929 . S
Tb756 N785 2.617 . S
Tb756 N791 2.572 . S
Tb756 O800 2.465 . S
Tb756 O801 2.387 . S
Tb756 O803 2.428 . S
Tb756 O804 2.308 . S
Tb756 O808 2.349 . S
Tb756 O811 2.393 . S
Tb756 C820 2.802 . S
C757 N758 1.379 . S
C757 C760 1.416 . S
C757 C764 1.424 . S
N758 C757 1.379 . S
N758 C761 1.334 . S
N758 Tb767 2.617 . S
C759 C761 1.390 . S
C759 C762 1.339 . S
C759 H779 0.930 . S
C760 C757 1.416 . S
C760 C762 1.416 . S
C760 C766 1.448 . S
C761 N758 1.334 . S
C761 C759 1.390 . S
C761 H772 0.930 . S
C762 C759 1.339 . S
C762 C760 1.416 . S
C762 H783 0.930 . S
C763 C764 1.413 . S
C763 C765 1.427 . S
C763 C769 1.416 . S
C764 C757 1.424 . S
C764 C763 1.413 . S
C764 N768 1.361 . S
C765 C763 1.427 . S
C765 C766 1.328 . S
C765 H780 0.929 . S
C766 C760 1.448 . S
C766 C765 1.328 . S
C766 H781 0.930 . S
Tb767 N758 2.617 . S
Tb767 N768 2.572 . S
Tb767 O802 2.349 . S
Tb767 O805 2.393 . S
Tb767 O806 2.465 . S
Tb767 O807 2.387 . S
Tb767 O809 2.428 . S
Tb767 O810 2.308 . S
Tb767 C831 2.802 . S
N768 C764 1.361 . S
N768 Tb767 2.572 . S
N768 C770 1.340 . S
C769 C763 1.416 . S
C769 C771 1.332 . S
C769 H777 0.931 . S
C770 N768 1.340 . S
C770 C771 1.407 . S
C770 H776 0.930 . S
C771 C769 1.332 . S
C771 C770 1.407 . S
C771 H773 0.929 . S
H772 C761 0.930 . S
H773 C771 0.929 . S
H774 C789 0.930 . S
H775 C796 0.929 . S
H776 C770 0.930 . S
H777 C769 0.931 . S
H778 C792 0.930 . S
H779 C759 0.930 . S
H780 C765 0.929 . S
H781 C766 0.930 . S
H782 C787 0.930 . S
H783 C762 0.930 . S
H784 C795 0.931 . S
N785 Tb756 2.617 . S
N785 C786 1.379 . S
N785 C789 1.334 . S
C786 N785 1.379 . S
C786 C788 1.416 . S
C786 C794 1.424 . S
C787 H782 0.930 . S
C787 C789 1.390 . S
C787 C790 1.339 . S
C788 C786 1.416 . S
C788 C790 1.416 . S
C788 C821 1.448 . S
C789 H774 0.930 . S
C789 N785 1.334 . S
C789 C787 1.390 . S
C790 C787 1.339 . S
C790 C788 1.416 . S
C790 H797 0.930 . S
N791 Tb756 2.572 . S
N791 C792 1.340 . S
N791 C794 1.361 . S
C792 H778 0.930 . S
C792 N791 1.340 . S
C792 C796 1.407 . S
C793 C794 1.413 . S
C793 C795 1.416 . S
C793 C822 1.427 . S
C794 C786 1.424 . S
C794 N791 1.361 . S
C794 C793 1.413 . S
C795 H784 0.931 . S
C795 C793 1.416 . S
C795 C796 1.332 . S
C796 H775 0.929 . S
C796 C792 1.407 . S
C796 C795 1.332 . S
H797 C790 0.930 . S
H798 C821 0.930 . S
H799 C822 0.929 . S
O800 Tb756 2.465 . S
O800 C820 1.264 . S
O801 Tb756 2.387 . S
O801 C812 1.264 . S
O802 Tb767 2.349 . S
O802 C812 1.243 . S
O803 Tb756 2.428 . S
O803 C820 1.256 . S
O804 Tb756 2.308 . S
O804 C819 1.266 . S
O805 Tb767 2.393 . S
O805 C819 1.248 . S
O806 Tb767 2.465 . S
O806 C831 1.264 . S
O807 Tb767 2.387 . S
O807 C823 1.264 . S
O808 Tb756 2.349 . S
O808 C823 1.243 . S
O809 Tb767 2.428 . S
O809 C831 1.256 . S
O810 Tb767 2.308 . S
O810 C830 1.266 . S
O811 Tb756 2.393 . S
O811 C830 1.248 . S
C812 O801 1.264 . S
C812 O802 1.243 . S
C813 C816 1.399 . S
C813 C818 1.383 . S
C813 C820 1.496 . S
C814 C815 1.399 . S
C814 C818 1.389 . S
C815 C814 1.399 . S
C815 C817 1.380 . S
C815 H832 0.929 . S
C816 C813 1.399 . S
C816 C817 1.392 . S
C816 H833 0.929 . S
C817 C815 1.380 . S
C817 C816 1.392 . S
C817 H834 0.929 . S
C818 C813 1.383 . S
C818 C814 1.389 . S
C818 H835 0.931 . S
C819 O804 1.266 . S
C819 O805 1.248 . S
C820 Tb756 2.802 . S
C820 O800 1.264 . S
C820 O803 1.256 . S
C820 C813 1.496 . S
C821 C788 1.448 . S
C821 H798 0.930 . S
C821 C822 1.328 . S
C822 C793 1.427 . S
C822 H799 0.929 . S
C822 C821 1.328 . S
C823 O807 1.264 . S
C823 O808 1.243 . S
C824 C827 1.399 . S
C824 C828 1.383 . S
C824 C831 1.496 . S
C825 C826 1.399 . S
C825 C828 1.389 1_545 S
C826 C825 1.399 . S
C826 C829 1.389 . S
C826 H836 0.929 . S
C827 C824 1.399 . S
C827 C829 1.380 1_565 S
C827 H837 0.929 . S
C828 C824 1.383 . S
C828 C825 1.389 1_565 S
C828 H838 0.931 . S
C829 C826 1.389 . S
C829 C827 1.380 1_545 S
C829 H839 0.933 . S
C830 O810 1.266 . S
C830 O811 1.248 . S
C831 Tb767 2.802 . S
C831 O806 1.264 . S
C831 O809 1.256 . S
C831 C824 1.496 . S
H832 C815 0.929 . S
H833 C816 0.929 . S
H834 C817 0.929 . S
H835 C818 0.931 . S
H836 C826 0.929 . S
H837 C827 0.929 . S
H838 C828 0.931 . S
H839 C829 0.933 . S
Tb840 N869 2.617 . S
Tb840 N875 2.572 . S
Tb840 O884 2.465 . S
Tb840 O885 2.387 . S
Tb840 O887 2.428 . S
Tb840 O888 2.308 . S
Tb840 O892 2.349 . S
Tb840 O895 2.393 . S
Tb840 C904 2.802 . S
C841 N842 1.379 . S
C841 C844 1.416 . S
C841 C848 1.424 . S
N842 C841 1.379 . S
N842 C845 1.334 . S
N842 Tb851 2.617 . S
C843 C845 1.390 . S
C843 C846 1.339 . S
C843 H863 0.930 . S
C844 C841 1.416 . S
C844 C846 1.416 . S
C844 C850 1.448 . S
C845 N842 1.334 . S
C845 C843 1.390 . S
C845 H856 0.930 . S
C846 C843 1.339 . S
C846 C844 1.416 . S
C846 H867 0.930 . S
C847 C848 1.413 . S
C847 C849 1.427 . S
C847 C853 1.416 . S
C848 C841 1.424 . S
C848 C847 1.413 . S
C848 N852 1.361 . S
C849 C847 1.427 . S
C849 C850 1.328 . S
C849 H864 0.929 . S
C850 C844 1.448 . S
C850 C849 1.328 . S
C850 H865 0.930 . S
Tb851 N842 2.617 . S
Tb851 N852 2.572 . S
Tb851 O886 2.349 . S
Tb851 O889 2.393 . S
Tb851 O890 2.465 . S
Tb851 O891 2.387 . S
Tb851 O893 2.428 . S
Tb851 O894 2.308 . S
Tb851 C915 2.802 . S
N852 C848 1.361 . S
N852 Tb851 2.572 . S
N852 C854 1.340 . S
C853 C847 1.416 . S
C853 C855 1.332 . S
C853 H861 0.931 . S
C854 N852 1.340 . S
C854 C855 1.407 . S
C854 H860 0.930 . S
C855 C853 1.332 . S
C855 C854 1.407 . S
C855 H857 0.929 . S
H856 C845 0.930 . S
H857 C855 0.929 . S
H858 C873 0.930 . S
H859 C880 0.929 . S
H860 C854 0.930 . S
H861 C853 0.931 . S
H862 C876 0.930 . S
H863 C843 0.930 . S
H864 C849 0.929 . S
H865 C850 0.930 . S
H866 C871 0.930 . S
H867 C846 0.930 . S
H868 C879 0.958 . S
N869 Tb840 2.617 . S
N869 C870 1.379 . S
N869 C873 1.334 . S
C870 N869 1.379 . S
C870 C872 1.416 . S
C870 C878 1.424 . S
C871 H866 0.930 . S
C871 C873 1.390 . S
C871 C874 1.339 . S
C872 C870 1.416 . S
C872 C874 1.416 . S
C872 C905 1.448 1_565 S
C873 H858 0.930 . S
C873 N869 1.334 . S
C873 C871 1.390 . S
C874 C871 1.339 . S
C874 C872 1.416 . S
C874 H881 0.930 . S
N875 Tb840 2.572 . S
N875 C876 1.340 . S
N875 C878 1.361 . S
C876 H862 0.930 . S
C876 N875 1.340 . S
C876 C880 1.407 . S
C877 C878 1.413 . S
C877 C879 1.412 1_565 S
C877 C906 1.427 1_565 S
C878 C870 1.424 . S
C878 N875 1.361 . S
C878 C877 1.413 . S
C879 H868 0.958 . S
C879 C877 1.412 1_545 S
C879 C880 1.310 1_545 S
C880 H859 0.929 . S
C880 C876 1.407 . S
C880 C879 1.310 1_565 S
H881 C874 0.930 . S
H882 C905 0.930 . S
H883 C906 0.929 . S
O884 Tb840 2.465 . S
O884 C904 1.264 . S
O885 Tb840 2.387 . S
O885 C896 1.264 . S
O886 Tb851 2.349 . S
O886 C896 1.243 . S
O887 Tb840 2.428 . S
O887 C904 1.256 . S
O888 Tb840 2.308 . S
O888 C903 1.266 . S
O889 Tb851 2.393 . S
O889 C903 1.248 . S
O890 Tb851 2.465 . S
O890 C915 1.264 . S
O891 Tb851 2.387 . S
O891 C907 1.264 . S
O892 Tb840 2.349 . S
O892 C907 1.243 . S
O893 Tb851 2.428 . S
O893 C915 1.256 . S
O894 Tb851 2.308 . S
O894 C914 1.266 . S
O895 Tb840 2.393 . S
O895 C914 1.248 . S
C896 O885 1.264 . S
C896 O886 1.243 . S
C897 C900 1.399 . S
C897 C902 1.383 . S
C897 C904 1.496 . S
C898 C899 1.399 . S
C898 C902 1.389 . S
C899 C898 1.399 . S
C899 C901 1.380 . S
C899 H916 0.929 . S
C900 C897 1.399 . S
C900 C901 1.392 . S
C900 H917 0.929 . S
C901 C899 1.380 . S
C901 C900 1.392 . S
C901 H918 0.929 . S
C902 C897 1.383 . S
C902 C898 1.389 . S
C902 H919 0.931 . S
C903 O888 1.266 . S
C903 O889 1.248 . S
C904 Tb840 2.802 . S
C904 O884 1.264 . S
C904 O887 1.256 . S
C904 C897 1.496 . S
C905 C872 1.448 1_545 S
C905 H882 0.930 . S
C905 C906 1.328 . S
C906 C877 1.427 1_545 S
C906 H883 0.929 . S
C906 C905 1.328 . S
C907 O891 1.264 . S
C907 O892 1.243 . S
C908 C911 1.399 . S
C908 C912 1.383 . S
C908 C915 1.496 . S
C909 C910 1.399 . S
C909 C912 1.389 . S
C910 C909 1.399 . S
C910 C913 1.380 . S
C910 H920 0.929 . S
C911 C908 1.399 . S
C911 C913 1.392 . S
C911 H921 0.929 . S
C912 C908 1.383 . S
C912 C909 1.389 . S
C912 H922 0.931 . S
C913 C910 1.380 . S
C913 C911 1.392 . S
C913 H923 0.929 . S
C914 O894 1.266 . S
C914 O895 1.248 . S
C915 Tb851 2.802 . S
C915 O890 1.264 . S
C915 O893 1.256 . S
C915 C908 1.496 . S
H916 C899 0.929 . S
H917 C900 0.929 . S
H918 C901 0.929 . S
H919 C902 0.931 . S
H920 C910 0.929 . S
H921 C911 0.929 . S
H922 C912 0.931 . S
H923 C913 0.929 . S
Tb924 N953 2.617 . S
Tb924 N959 2.572 . S
Tb924 O968 2.465 . S
Tb924 O969 2.387 . S
Tb924 O971 2.428 . S
Tb924 O972 2.308 . S
Tb924 O976 2.349 . S
Tb924 O979 2.393 . S
Tb924 C988 2.802 . S
C925 N926 1.379 . S
C925 C928 1.416 . S
C925 C932 1.424 . S
N926 C925 1.379 . S
N926 C929 1.334 . S
N926 Tb935 2.617 . S
C927 C929 1.390 . S
C927 C930 1.339 . S
C927 H947 0.930 . S
C928 C925 1.416 . S
C928 C930 1.416 . S
C928 C934 1.448 . S
C929 N926 1.334 . S
C929 C927 1.390 . S
C929 H940 0.930 . S
C930 C927 1.339 . S
C930 C928 1.416 . S
C930 H951 0.930 . S
C931 C932 1.413 . S
C931 C933 1.427 . S
C931 C937 1.416 . S
C932 C925 1.424 . S
C932 C931 1.413 . S
C932 N936 1.361 . S
C933 C931 1.427 . S
C933 C934 1.328 . S
C933 H948 0.929 . S
C934 C928 1.448 . S
C934 C933 1.328 . S
C934 H949 0.930 . S
Tb935 N926 2.617 . S
Tb935 N936 2.572 . S
Tb935 O970 2.349 . S
Tb935 O973 2.393 . S
Tb935 O974 2.465 . S
Tb935 O975 2.387 . S
Tb935 O977 2.428 . S
Tb935 O978 2.308 . S
Tb935 C999 2.802 . S
N936 C932 1.361 . S
N936 Tb935 2.572 . S
N936 C938 1.340 . S
C937 C931 1.416 . S
C937 C939 1.332 . S
C937 H945 0.931 . S
C938 N936 1.340 . S
C938 C939 1.407 . S
C938 H944 0.930 . S
C939 C937 1.332 . S
C939 C938 1.407 . S
C939 H941 0.929 . S
H940 C929 0.930 . S
H941 C939 0.929 . S
H942 C957 0.930 . S
H943 C964 0.929 . S
H944 C938 0.930 . S
H945 C937 0.931 . S
H946 C960 0.930 . S
H947 C927 0.930 . S
H948 C933 0.929 . S
H949 C934 0.930 . S
H950 C955 0.930 . S
H951 C930 0.930 . S
H952 C963 0.931 . S
N953 Tb924 2.617 . S
N953 C954 1.379 . S
N953 C957 1.334 . S
C954 N953 1.379 . S
C954 C956 1.416 . S
C954 C962 1.424 . S
C955 H950 0.930 . S
C955 C957 1.390 . S
C955 C958 1.339 . S
C956 C954 1.416 . S
C956 C958 1.416 . S
C956 C989 1.448 . S
C957 H942 0.930 . S
C957 N953 1.334 . S
C957 C955 1.390 . S
C958 C955 1.339 . S
C958 C956 1.416 . S
C958 H965 0.930 . S
N959 Tb924 2.572 . S
N959 C960 1.340 . S
N959 C962 1.361 . S
C960 H946 0.930 . S
C960 N959 1.340 . S
C960 C964 1.407 . S
C961 C962 1.413 . S
C961 C963 1.416 . S
C961 C990 1.427 . S
C962 C954 1.424 . S
C962 N959 1.361 . S
C962 C961 1.413 . S
C963 H952 0.931 . S
C963 C961 1.416 . S
C963 C964 1.332 . S
C964 H943 0.929 . S
C964 C960 1.407 . S
C964 C963 1.332 . S
H965 C958 0.930 . S
H966 C989 0.930 . S
H967 C990 0.929 . S
O968 Tb924 2.465 . S
O968 C988 1.264 . S
O969 Tb924 2.387 . S
O969 C980 1.264 . S
O970 Tb935 2.349 . S
O970 C980 1.243 . S
O971 Tb924 2.428 . S
O971 C988 1.256 . S
O972 Tb924 2.308 . S
O972 C987 1.266 . S
O973 Tb935 2.393 . S
O973 C987 1.248 . S
O974 Tb935 2.465 . S
O974 C999 1.264 . S
O975 Tb935 2.387 . S
O975 C991 1.264 . S
O976 Tb924 2.349 . S
O976 C991 1.243 . S
O977 Tb935 2.428 . S
O977 C999 1.256 . S
O978 Tb935 2.308 . S
O978 C998 1.266 . S
O979 Tb924 2.393 . S
O979 C998 1.248 . S
C980 O969 1.264 . S
C980 O970 1.243 . S
C981 C984 1.399 . S
C981 C986 1.383 . S
C981 C988 1.496 . S
C982 C983 1.399 . S
C982 C986 1.389 . S
C983 C982 1.399 . S
C983 C985 1.380 . S
C983 H1000 0.929 . S
C984 C981 1.399 . S
C984 C985 1.392 . S
C984 H1001 0.929 . S
C985 C983 1.380 . S
C985 C984 1.392 . S
C985 H1002 0.929 . S
C986 C981 1.383 . S
C986 C982 1.389 . S
C986 H1003 0.931 . S
C987 O972 1.266 . S
C987 O973 1.248 . S
C988 Tb924 2.802 . S
C988 O968 1.264 . S
C988 O971 1.256 . S
C988 C981 1.496 . S
C989 C956 1.448 . S
C989 H966 0.930 . S
C989 C990 1.328 . S
C990 C961 1.427 . S
C990 H967 0.929 . S
C990 C989 1.328 . S
C991 O975 1.264 . S
C991 O976 1.243 . S
C992 C995 1.399 . S
C992 C996 1.383 . S
C992 C999 1.496 . S
C993 C994 1.399 . S
C993 C996 1.389 . S
C994 C993 1.399 . S
C994 C997 1.380 . S
C994 H1004 0.929 . S
C995 C992 1.399 . S
C995 C997 1.392 . S
C995 H1005 0.929 . S
C996 C992 1.383 . S
C996 C993 1.389 . S
C996 H1006 0.931 . S
C997 C994 1.380 . S
C997 C995 1.392 . S
C997 H1007 0.929 . S
C998 O978 1.266 . S
C998 O979 1.248 . S
C999 Tb935 2.802 . S
C999 O974 1.264 . S
C999 O977 1.256 . S
C999 C992 1.496 . S
H1000 C983 0.929 . S
H1001 C984 0.929 . S
H1002 C985 0.929 . S
H1003 C986 0.931 . S
H1004 C994 0.929 . S
H1005 C995 0.929 . S
H1006 C996 0.931 . S
H1007 C997 0.929 . S
Tb1008 N1037 2.617 . S
Tb1008 N1043 2.572 . S
Tb1008 O1052 2.465 . S
Tb1008 O1053 2.387 . S
Tb1008 O1055 2.428 . S
Tb1008 O1056 2.308 . S
Tb1008 O1060 2.349 . S
Tb1008 O1063 2.393 . S
Tb1008 C1072 2.802 . S
C1009 N1010 1.379 . S
C1009 C1012 1.416 . S
C1009 C1016 1.424 . S
N1010 C1009 1.379 . S
N1010 C1013 1.334 . S
N1010 Tb1019 2.617 . S
C1011 C1013 1.390 . S
C1011 C1014 1.339 . S
C1011 H1031 0.930 . S
C1012 C1009 1.416 . S
C1012 C1014 1.416 . S
C1012 C1018 1.448 . S
C1013 N1010 1.334 . S
C1013 C1011 1.390 . S
C1013 H1024 0.930 . S
C1014 C1011 1.339 . S
C1014 C1012 1.416 . S
C1014 H1035 0.930 . S
C1015 C1016 1.413 . S
C1015 C1017 1.427 . S
C1015 C1021 1.416 . S
C1016 C1009 1.424 . S
C1016 C1015 1.413 . S
C1016 N1020 1.361 . S
C1017 C1015 1.427 . S
C1017 C1018 1.328 . S
C1017 H1032 0.929 . S
C1018 C1012 1.448 . S
C1018 C1017 1.328 . S
C1018 H1033 0.930 . S
Tb1019 N1010 2.617 . S
Tb1019 N1020 2.572 . S
Tb1019 O1054 2.349 . S
Tb1019 O1057 2.393 . S
Tb1019 O1058 2.465 . S
Tb1019 O1059 2.387 . S
Tb1019 O1061 2.428 . S
Tb1019 O1062 2.308 . S
Tb1019 C1083 2.802 . S
N1020 C1016 1.361 . S
N1020 Tb1019 2.572 . S
N1020 C1022 1.340 . S
C1021 C1015 1.416 . S
C1021 C1023 1.332 . S
C1021 H1029 0.931 . S
C1022 N1020 1.340 . S
C1022 C1023 1.407 . S
C1022 H1028 0.930 . S
C1023 C1021 1.332 . S
C1023 C1022 1.407 . S
C1023 H1025 0.929 . S
H1024 C1013 0.930 . S
H1025 C1023 0.929 . S
H1026 C1041 0.930 . S
H1027 C1048 0.929 . S
H1028 C1022 0.930 . S
H1029 C1021 0.931 . S
H1030 C1044 0.930 . S
H1031 C1011 0.930 . S
H1032 C1017 0.929 . S
H1033 C1018 0.930 . S
H1034 C1039 0.930 . S
H1035 C1014 0.930 . S
H1036 C1047 0.931 . S
N1037 Tb1008 2.617 . S
N1037 C1038 1.379 . S
N1037 C1041 1.334 . S
C1038 N1037 1.379 . S
C1038 C1040 1.416 . S
C1038 C1046 1.424 . S
C1039 H1034 0.930 . S
C1039 C1041 1.390 . S
C1039 C1042 1.339 . S
C1040 C1038 1.416 . S
C1040 C1042 1.416 . S
C1040 C1073 1.448 . S
C1041 H1026 0.930 . S
C1041 N1037 1.334 . S
C1041 C1039 1.390 . S
C1042 C1039 1.339 . S
C1042 C1040 1.416 . S
C1042 H1049 0.930 . S
N1043 Tb1008 2.572 . S
N1043 C1044 1.340 . S
N1043 C1046 1.361 . S
C1044 H1030 0.930 . S
C1044 N1043 1.340 . S
C1044 C1048 1.407 . S
C1045 C1046 1.413 . S
C1045 C1047 1.416 . S
C1045 C1074 1.427 . S
C1046 C1038 1.424 . S
C1046 N1043 1.361 . S
C1046 C1045 1.413 . S
C1047 H1036 0.931 . S
C1047 C1045 1.416 . S
C1047 C1048 1.332 . S
C1048 H1027 0.929 . S
C1048 C1044 1.407 . S
C1048 C1047 1.332 . S
H1049 C1042 0.930 . S
H1050 C1073 0.930 . S
H1051 C1074 0.929 . S
O1052 Tb1008 2.465 . S
O1052 C1072 1.264 . S
O1053 Tb1008 2.387 . S
O1053 C1064 1.264 . S
O1054 Tb1019 2.349 . S
O1054 C1064 1.243 . S
O1055 Tb1008 2.428 . S
O1055 C1072 1.256 . S
O1056 Tb1008 2.308 . S
O1056 C1071 1.266 . S
O1057 Tb1019 2.393 . S
O1057 C1071 1.248 . S
O1058 Tb1019 2.465 . S
O1058 C1083 1.264 . S
O1059 Tb1019 2.387 . S
O1059 C1075 1.264 . S
O1060 Tb1008 2.349 . S
O1060 C1075 1.243 . S
O1061 Tb1019 2.428 . S
O1061 C1083 1.256 . S
O1062 Tb1019 2.308 . S
O1062 C1082 1.266 . S
O1063 Tb1008 2.393 . S
O1063 C1082 1.248 . S
C1064 O1053 1.264 . S
C1064 O1054 1.243 . S
C1065 C1068 1.399 . S
C1065 C1070 1.383 . S
C1065 C1072 1.496 . S
C1066 C1067 1.399 . S
C1066 C1070 1.389 . S
C1067 C1066 1.399 . S
C1067 C1069 1.380 . S
C1067 H1084 0.929 . S
C1068 C1065 1.399 . S
C1068 C1069 1.392 . S
C1068 H1085 0.929 . S
C1069 C1067 1.380 . S
C1069 C1068 1.392 . S
C1069 H1086 0.929 . S
C1070 C1065 1.383 . S
C1070 C1066 1.389 . S
C1070 H1087 0.931 . S
C1071 O1056 1.266 . S
C1071 O1057 1.248 . S
C1072 Tb1008 2.802 . S
C1072 O1052 1.264 . S
C1072 O1055 1.256 . S
C1072 C1065 1.496 . S
C1073 C1040 1.448 . S
C1073 H1050 0.930 . S
C1073 C1074 1.328 . S
C1074 C1045 1.427 . S
C1074 H1051 0.929 . S
C1074 C1073 1.328 . S
C1075 O1059 1.264 . S
C1075 O1060 1.243 . S
C1076 C1079 1.399 . S
C1076 C1080 1.383 . S
C1076 C1083 1.496 . S
C1077 C1078 1.399 . S
C1077 C1080 1.389 1_455 S
C1078 C1077 1.399 . S
C1078 C1081 1.389 . S
C1078 H1088 0.929 . S
C1079 C1076 1.399 . S
C1079 C1081 1.380 1_655 S
C1079 H1089 0.929 . S
C1080 C1076 1.383 . S
C1080 C1077 1.389 1_655 S
C1080 H1090 0.931 . S
C1081 C1078 1.389 . S
C1081 C1079 1.380 1_455 S
C1081 H1091 0.933 . S
C1082 O1062 1.266 . S
C1082 O1063 1.248 . S
C1083 Tb1019 2.802 . S
C1083 O1058 1.264 . S
C1083 O1061 1.256 . S
C1083 C1076 1.496 . S
H1084 C1067 0.929 . S
H1085 C1068 0.929 . S
H1086 C1069 0.929 . S
H1087 C1070 0.931 . S
H1088 C1078 0.929 . S
H1089 C1079 0.929 . S
H1090 C1080 0.931 . S
H1091 C1081 0.933 . S
Tb1092 N1121 2.617 . S
Tb1092 N1127 2.572 . S
Tb1092 O1136 2.465 . S
Tb1092 O1137 2.387 . S
Tb1092 O1139 2.428 . S
Tb1092 O1140 2.308 . S
Tb1092 O1144 2.349 . S
Tb1092 O1147 2.393 . S
Tb1092 C1156 2.802 . S
C1093 N1094 1.379 . S
C1093 C1096 1.416 . S
C1093 C1100 1.424 . S
N1094 C1093 1.379 . S
N1094 C1097 1.334 . S
N1094 Tb1103 2.617 . S
C1095 C1097 1.390 . S
C1095 C1098 1.339 . S
C1095 H1115 0.930 . S
C1096 C1093 1.416 . S
C1096 C1098 1.416 . S
C1096 C1102 1.448 . S
C1097 N1094 1.334 . S
C1097 C1095 1.390 . S
C1097 H1108 0.930 . S
C1098 C1095 1.339 . S
C1098 C1096 1.416 . S
C1098 H1119 0.930 . S
C1099 C1100 1.413 . S
C1099 C1101 1.427 . S
C1099 C1105 1.416 . S
C1100 C1093 1.424 . S
C1100 C1099 1.413 . S
C1100 N1104 1.361 . S
C1101 C1099 1.427 . S
C1101 C1102 1.328 . S
C1101 H1116 0.929 . S
C1102 C1096 1.448 . S
C1102 C1101 1.328 . S
C1102 H1117 0.930 . S
Tb1103 N1094 2.617 . S
Tb1103 N1104 2.572 . S
Tb1103 O1138 2.349 . S
Tb1103 O1141 2.393 . S
Tb1103 O1142 2.465 . S
Tb1103 O1143 2.387 . S
Tb1103 O1145 2.428 . S
Tb1103 O1146 2.308 . S
Tb1103 C1167 2.802 . S
N1104 C1100 1.361 . S
N1104 Tb1103 2.572 . S
N1104 C1106 1.340 . S
C1105 C1099 1.416 . S
C1105 C1107 1.332 . S
C1105 H1113 0.931 . S
C1106 N1104 1.340 . S
C1106 C1107 1.407 . S
C1106 H1112 0.930 . S
C1107 C1105 1.332 . S
C1107 C1106 1.407 . S
C1107 H1109 0.929 . S
H1108 C1097 0.930 . S
H1109 C1107 0.929 . S
H1110 C1125 0.930 . S
H1111 C1132 0.929 . S
H1112 C1106 0.930 . S
H1113 C1105 0.931 . S
H1114 C1128 0.930 . S
H1115 C1095 0.930 . S
H1116 C1101 0.929 . S
H1117 C1102 0.930 . S
H1118 C1123 0.930 . S
H1119 C1098 0.930 . S
H1120 C1131 0.931 . S
N1121 Tb1092 2.617 . S
N1121 C1122 1.379 . S
N1121 C1125 1.334 . S
C1122 N1121 1.379 . S
C1122 C1124 1.416 . S
C1122 C1130 1.424 . S
C1123 H1118 0.930 . S
C1123 C1125 1.390 . S
C1123 C1126 1.339 . S
C1124 C1122 1.416 . S
C1124 C1126 1.416 . S
C1124 C1157 1.448 . S
C1125 H1110 0.930 . S
C1125 N1121 1.334 . S
C1125 C1123 1.390 . S
C1126 C1123 1.339 . S
C1126 C1124 1.416 . S
C1126 H1133 0.930 . S
N1127 Tb1092 2.572 . S
N1127 C1128 1.340 . S
N1127 C1130 1.361 . S
C1128 H1114 0.930 . S
C1128 N1127 1.340 . S
C1128 C1132 1.407 . S
C1129 C1130 1.413 . S
C1129 C1131 1.416 . S
C1129 C1158 1.427 . S
C1130 C1122 1.424 . S
C1130 N1127 1.361 . S
C1130 C1129 1.413 . S
C1131 H1120 0.931 . S
C1131 C1129 1.416 . S
C1131 C1132 1.332 . S
C1132 H1111 0.929 . S
C1132 C1128 1.407 . S
C1132 C1131 1.332 . S
H1133 C1126 0.930 . S
H1134 C1157 0.930 . S
H1135 C1158 0.929 . S
O1136 Tb1092 2.465 . S
O1136 C1156 1.264 . S
O1137 Tb1092 2.387 . S
O1137 C1148 1.264 . S
O1138 Tb1103 2.349 . S
O1138 C1148 1.243 . S
O1139 Tb1092 2.428 . S
O1139 C1156 1.256 . S
O1140 Tb1092 2.308 . S
O1140 C1155 1.266 . S
O1141 Tb1103 2.393 . S
O1141 C1155 1.248 . S
O1142 Tb1103 2.465 . S
O1142 C1167 1.264 . S
O1143 Tb1103 2.387 . S
O1143 C1159 1.264 . S
O1144 Tb1092 2.349 . S
O1144 C1159 1.243 . S
O1145 Tb1103 2.428 . S
O1145 C1167 1.256 . S
O1146 Tb1103 2.308 . S
O1146 C1166 1.266 . S
O1147 Tb1092 2.393 . S
O1147 C1166 1.248 . S
C1148 O1137 1.264 . S
C1148 O1138 1.243 . S
C1149 C1152 1.399 . S
C1149 C1154 1.383 . S
C1149 C1156 1.496 . S
C1150 C1151 1.399 . S
C1150 C1154 1.389 . S
C1151 C1150 1.399 . S
C1151 C1153 1.380 . S
C1151 H1168 0.929 . S
C1152 C1149 1.399 . S
C1152 C1153 1.392 . S
C1152 H1169 0.929 . S
C1153 C1151 1.380 . S
C1153 C1152 1.392 . S
C1153 H1170 0.929 . S
C1154 C1149 1.383 . S
C1154 C1150 1.389 . S
C1154 H1171 0.931 . S
C1155 O1140 1.266 . S
C1155 O1141 1.248 . S
C1156 Tb1092 2.802 . S
C1156 O1136 1.264 . S
C1156 O1139 1.256 . S
C1156 C1149 1.496 . S
C1157 C1124 1.448 . S
C1157 H1134 0.930 . S
C1157 C1158 1.328 . S
C1158 C1129 1.427 . S
C1158 H1135 0.929 . S
C1158 C1157 1.328 . S
C1159 O1143 1.264 . S
C1159 O1144 1.243 . S
C1160 C1163 1.399 . S
C1160 C1164 1.383 . S
C1160 C1167 1.496 . S
C1161 C1162 1.399 . S
C1161 C1164 1.389 . S
C1162 C1161 1.399 . S
C1162 C1165 1.380 . S
C1162 H1172 0.929 . S
C1163 C1160 1.399 . S
C1163 C1165 1.392 . S
C1163 H1173 0.929 . S
C1164 C1160 1.383 . S
C1164 C1161 1.389 . S
C1164 H1174 0.931 . S
C1165 C1162 1.380 . S
C1165 C1163 1.392 . S
C1165 H1175 0.929 . S
C1166 O1146 1.266 . S
C1166 O1147 1.248 . S
C1167 Tb1103 2.802 . S
C1167 O1142 1.264 . S
C1167 O1145 1.256 . S
C1167 C1160 1.496 . S
H1168 C1151 0.929 . S
H1169 C1152 0.929 . S
H1170 C1153 0.929 . S
H1171 C1154 0.931 . S
H1172 C1162 0.929 . S
H1173 C1163 0.929 . S
H1174 C1164 0.931 . S
H1175 C1165 0.929 . S
Tb1176 N1205 2.617 . S
Tb1176 N1211 2.572 . S
Tb1176 O1220 2.465 . S
Tb1176 O1221 2.387 . S
Tb1176 O1223 2.428 . S
Tb1176 O1224 2.308 . S
Tb1176 O1228 2.349 . S
Tb1176 O1231 2.393 . S
Tb1176 C1240 2.802 . S
C1177 N1178 1.379 . S
C1177 C1180 1.416 . S
C1177 C1184 1.424 . S
N1178 C1177 1.379 . S
N1178 C1181 1.334 . S
N1178 Tb1187 2.617 . S
C1179 C1181 1.390 . S
C1179 C1182 1.339 . S
C1179 H1199 0.930 . S
C1180 C1177 1.416 . S
C1180 C1182 1.416 . S
C1180 C1186 1.448 . S
C1181 N1178 1.334 . S
C1181 C1179 1.390 . S
C1181 H1192 0.930 . S
C1182 C1179 1.339 . S
C1182 C1180 1.416 . S
C1182 H1203 0.930 . S
C1183 C1184 1.413 . S
C1183 C1185 1.427 . S
C1183 C1189 1.416 . S
C1184 C1177 1.424 . S
C1184 C1183 1.413 . S
C1184 N1188 1.361 . S
C1185 C1183 1.427 . S
C1185 C1186 1.328 . S
C1185 H1200 0.929 . S
C1186 C1180 1.448 . S
C1186 C1185 1.328 . S
C1186 H1201 0.930 . S
Tb1187 N1178 2.617 . S
Tb1187 N1188 2.572 . S
Tb1187 O1222 2.349 . S
Tb1187 O1225 2.393 . S
Tb1187 O1226 2.465 . S
Tb1187 O1227 2.387 . S
Tb1187 O1229 2.428 . S
Tb1187 O1230 2.308 . S
Tb1187 C1251 2.802 . S
N1188 C1184 1.361 . S
N1188 Tb1187 2.572 . S
N1188 C1190 1.340 . S
C1189 C1183 1.416 . S
C1189 C1191 1.332 . S
C1189 H1197 0.931 . S
C1190 N1188 1.340 . S
C1190 C1191 1.407 . S
C1190 H1196 0.930 . S
C1191 C1189 1.332 . S
C1191 C1190 1.407 . S
C1191 H1193 0.929 . S
H1192 C1181 0.930 . S
H1193 C1191 0.929 . S
H1194 C1209 0.930 . S
H1195 C1216 0.929 . S
H1196 C1190 0.930 . S
H1197 C1189 0.931 . S
H1198 C1212 0.930 . S
H1199 C1179 0.930 . S
H1200 C1185 0.929 . S
H1201 C1186 0.930 . S
H1202 C1207 0.930 . S
H1203 C1182 0.930 . S
H1204 C1215 0.958 . S
N1205 Tb1176 2.617 . S
N1205 C1206 1.379 . S
N1205 C1209 1.334 . S
C1206 N1205 1.379 . S
C1206 C1208 1.416 . S
C1206 C1214 1.424 . S
C1207 H1202 0.930 . S
C1207 C1209 1.390 . S
C1207 C1210 1.339 . S
C1208 C1206 1.416 . S
C1208 C1210 1.416 . S
C1208 C1241 1.448 1_655 S
C1209 H1194 0.930 . S
C1209 N1205 1.334 . S
C1209 C1207 1.390 . S
C1210 C1207 1.339 . S
C1210 C1208 1.416 . S
C1210 H1217 0.930 . S
N1211 Tb1176 2.572 . S
N1211 C1212 1.340 . S
N1211 C1214 1.361 . S
C1212 H1198 0.930 . S
C1212 N1211 1.340 . S
C1212 C1216 1.407 . S
C1213 C1214 1.413 . S
C1213 C1215 1.412 1_655 S
C1213 C1242 1.427 1_655 S
C1214 C1206 1.424 . S
C1214 N1211 1.361 . S
C1214 C1213 1.413 . S
C1215 H1204 0.958 . S
C1215 C1213 1.412 1_455 S
C1215 C1216 1.310 1_455 S
C1216 H1195 0.929 . S
C1216 C1212 1.407 . S
C1216 C1215 1.310 1_655 S
H1217 C1210 0.930 . S
H1218 C1241 0.930 . S
H1219 C1242 0.929 . S
O1220 Tb1176 2.465 . S
O1220 C1240 1.264 . S
O1221 Tb1176 2.387 . S
O1221 C1232 1.264 . S
O1222 Tb1187 2.349 . S
O1222 C1232 1.243 . S
O1223 Tb1176 2.428 . S
O1223 C1240 1.256 . S
O1224 Tb1176 2.308 . S
O1224 C1239 1.266 . S
O1225 Tb1187 2.393 . S
O1225 C1239 1.248 . S
O1226 Tb1187 2.465 . S
O1226 C1251 1.264 . S
O1227 Tb1187 2.387 . S
O1227 C1243 1.264 . S
O1228 Tb1176 2.349 . S
O1228 C1243 1.243 . S
O1229 Tb1187 2.428 . S
O1229 C1251 1.256 . S
O1230 Tb1187 2.308 . S
O1230 C1250 1.266 . S
O1231 Tb1176 2.393 . S
O1231 C1250 1.248 . S
C1232 O1221 1.264 . S
C1232 O1222 1.243 . S
C1233 C1236 1.399 . S
C1233 C1238 1.383 . S
C1233 C1240 1.496 . S
C1234 C1235 1.399 . S
C1234 C1238 1.389 . S
C1235 C1234 1.399 . S
C1235 C1237 1.380 . S
C1235 H1252 0.929 . S
C1236 C1233 1.399 . S
C1236 C1237 1.392 . S
C1236 H1253 0.929 . S
C1237 C1235 1.380 . S
C1237 C1236 1.392 . S
C1237 H1254 0.929 . S
C1238 C1233 1.383 . S
C1238 C1234 1.389 . S
C1238 H1255 0.931 . S
C1239 O1224 1.266 . S
C1239 O1225 1.248 . S
C1240 Tb1176 2.802 . S
C1240 O1220 1.264 . S
C1240 O1223 1.256 . S
C1240 C1233 1.496 . S
C1241 C1208 1.448 1_455 S
C1241 H1218 0.930 . S
C1241 C1242 1.328 . S
C1242 C1213 1.427 1_455 S
C1242 H1219 0.929 . S
C1242 C1241 1.328 . S
C1243 O1227 1.264 . S
C1243 O1228 1.243 . S
C1244 C1247 1.399 . S
C1244 C1248 1.383 . S
C1244 C1251 1.496 . S
C1245 C1246 1.399 . S
C1245 C1248 1.389 . S
C1246 C1245 1.399 . S
C1246 C1249 1.380 . S
C1246 H1256 0.929 . S
C1247 C1244 1.399 . S
C1247 C1249 1.392 . S
C1247 H1257 0.929 . S
C1248 C1244 1.383 . S
C1248 C1245 1.389 . S
C1248 H1258 0.931 . S
C1249 C1246 1.380 . S
C1249 C1247 1.392 . S
C1249 H1259 0.929 . S
C1250 O1230 1.266 . S
C1250 O1231 1.248 . S
C1251 Tb1187 2.802 . S
C1251 O1226 1.264 . S
C1251 O1229 1.256 . S
C1251 C1244 1.496 . S
H1252 C1235 0.929 . S
H1253 C1236 0.929 . S
H1254 C1237 0.929 . S
H1255 C1238 0.931 . S
H1256 C1246 0.929 . S
H1257 C1247 0.929 . S
H1258 C1248 0.931 . S
H1259 C1249 0.929 . S
Tb1260 N1289 2.617 . S
Tb1260 N1295 2.572 . S
Tb1260 O1304 2.465 . S
Tb1260 O1305 2.387 . S
Tb1260 O1307 2.428 . S
Tb1260 O1308 2.308 . S
Tb1260 O1312 2.349 . S
Tb1260 O1315 2.393 . S
Tb1260 C1324 2.802 . S
C1261 N1262 1.379 . S
C1261 C1264 1.416 . S
C1261 C1268 1.424 . S
N1262 C1261 1.379 . S
N1262 C1265 1.334 . S
N1262 Tb1271 2.617 . S
C1263 C1265 1.390 . S
C1263 C1266 1.339 . S
C1263 H1283 0.930 . S
C1264 C1261 1.416 . S
C1264 C1266 1.416 . S
C1264 C1270 1.448 . S
C1265 N1262 1.334 . S
C1265 C1263 1.390 . S
C1265 H1276 0.930 . S
C1266 C1263 1.339 . S
C1266 C1264 1.416 . S
C1266 H1287 0.930 . S
C1267 C1268 1.413 . S
C1267 C1269 1.427 . S
C1267 C1273 1.416 . S
C1268 C1261 1.424 . S
C1268 C1267 1.413 . S
C1268 N1272 1.361 . S
C1269 C1267 1.427 . S
C1269 C1270 1.328 . S
C1269 H1284 0.929 . S
C1270 C1264 1.448 . S
C1270 C1269 1.328 . S
C1270 H1285 0.930 . S
Tb1271 N1262 2.617 . S
Tb1271 N1272 2.572 . S
Tb1271 O1306 2.349 . S
Tb1271 O1309 2.393 . S
Tb1271 O1310 2.465 . S
Tb1271 O1311 2.387 . S
Tb1271 O1313 2.428 . S
Tb1271 O1314 2.308 . S
Tb1271 C1335 2.802 . S
N1272 C1268 1.361 . S
N1272 Tb1271 2.572 . S
N1272 C1274 1.340 . S
C1273 C1267 1.416 . S
C1273 C1275 1.332 . S
C1273 H1281 0.931 . S
C1274 N1272 1.340 . S
C1274 C1275 1.407 . S
C1274 H1280 0.930 . S
C1275 C1273 1.332 . S
C1275 C1274 1.407 . S
C1275 H1277 0.929 . S
H1276 C1265 0.930 . S
H1277 C1275 0.929 . S
H1278 C1293 0.930 . S
H1279 C1300 0.929 . S
H1280 C1274 0.930 . S
H1281 C1273 0.931 . S
H1282 C1296 0.930 . S
H1283 C1263 0.930 . S
H1284 C1269 0.929 . S
H1285 C1270 0.930 . S
H1286 C1291 0.930 . S
H1287 C1266 0.930 . S
H1288 C1299 0.931 . S
N1289 Tb1260 2.617 . S
N1289 C1290 1.379 . S
N1289 C1293 1.334 . S
C1290 N1289 1.379 . S
C1290 C1292 1.416 . S
C1290 C1298 1.424 . S
C1291 H1286 0.930 . S
C1291 C1293 1.390 . S
C1291 C1294 1.339 . S
C1292 C1290 1.416 . S
C1292 C1294 1.416 . S
C1292 C1325 1.448 . S
C1293 H1278 0.930 . S
C1293 N1289 1.334 . S
C1293 C1291 1.390 . S
C1294 C1291 1.339 . S
C1294 C1292 1.416 . S
C1294 H1301 0.930 . S
N1295 Tb1260 2.572 . S
N1295 C1296 1.340 . S
N1295 C1298 1.361 . S
C1296 H1282 0.930 . S
C1296 N1295 1.340 . S
C1296 C1300 1.407 . S
C1297 C1298 1.413 . S
C1297 C1299 1.416 . S
C1297 C1326 1.427 . S
C1298 C1290 1.424 . S
C1298 N1295 1.361 . S
C1298 C1297 1.413 . S
C1299 H1288 0.931 . S
C1299 C1297 1.416 . S
C1299 C1300 1.332 . S
C1300 H1279 0.929 . S
C1300 C1296 1.407 . S
C1300 C1299 1.332 . S
H1301 C1294 0.930 . S
H1302 C1325 0.930 . S
H1303 C1326 0.929 . S
O1304 Tb1260 2.465 . S
O1304 C1324 1.264 . S
O1305 Tb1260 2.387 . S
O1305 C1316 1.264 . S
O1306 Tb1271 2.349 . S
O1306 C1316 1.243 . S
O1307 Tb1260 2.428 . S
O1307 C1324 1.256 . S
O1308 Tb1260 2.308 . S
O1308 C1323 1.266 . S
O1309 Tb1271 2.393 . S
O1309 C1323 1.248 . S
O1310 Tb1271 2.465 . S
O1310 C1335 1.264 . S
O1311 Tb1271 2.387 . S
O1311 C1327 1.264 . S
O1312 Tb1260 2.349 . S
O1312 C1327 1.243 . S
O1313 Tb1271 2.428 . S
O1313 C1335 1.256 . S
O1314 Tb1271 2.308 . S
O1314 C1334 1.266 . S
O1315 Tb1260 2.393 . S
O1315 C1334 1.248 . S
C1316 O1305 1.264 . S
C1316 O1306 1.243 . S
C1317 C1320 1.399 . S
C1317 C1322 1.383 . S
C1317 C1324 1.496 . S
C1318 C1319 1.399 . S
C1318 C1322 1.388 1_565 S
C1319 C1318 1.399 . S
C1319 C1321 1.380 1_565 S
C1319 H1336 0.929 . S
C1320 C1317 1.399 . S
C1320 C1321 1.392 . S
C1320 H1337 0.929 . S
C1321 C1319 1.380 1_545 S
C1321 C1320 1.392 . S
C1321 H1338 0.929 1_545 S
C1322 C1317 1.383 . S
C1322 C1318 1.388 1_545 S
C1322 H1339 0.931 . S
C1323 O1308 1.266 . S
C1323 O1309 1.248 . S
C1324 Tb1260 2.802 . S
C1324 O1304 1.264 . S
C1324 O1307 1.256 . S
C1324 C1317 1.496 . S
C1325 C1292 1.448 . S
C1325 H1302 0.930 . S
C1325 C1326 1.328 . S
C1326 C1297 1.427 . S
C1326 H1303 0.929 . S
C1326 C1325 1.328 . S
C1327 O1311 1.264 . S
C1327 O1312 1.243 . S
C1328 C1331 1.399 . S
C1328 C1332 1.383 . S
C1328 C1335 1.496 . S
C1329 C1330 1.399 . S
C1329 C1332 1.389 . S
C1330 C1329 1.399 . S
C1330 C1333 1.380 . S
C1330 H1340 0.929 . S
C1331 C1328 1.399 . S
C1331 C1333 1.392 . S
C1331 H1341 0.929 . S
C1332 C1328 1.383 . S
C1332 C1329 1.389 . S
C1332 H1342 0.931 . S
C1333 C1330 1.380 . S
C1333 C1331 1.392 . S
C1333 H1343 0.929 . S
C1334 O1314 1.266 . S
C1334 O1315 1.248 . S
C1335 Tb1271 2.802 . S
C1335 O1310 1.264 . S
C1335 O1313 1.256 . S
C1335 C1328 1.496 . S
H1336 C1319 0.929 . S
H1337 C1320 0.929 . S
H1338 C1321 0.929 1_565 S
H1339 C1322 0.931 . S
H1340 C1330 0.929 . S
H1341 C1331 0.929 . S
H1342 C1332 0.931 . S
H1343 C1333 0.929 . S
Tb1344 N1373 2.617 . S
Tb1344 N1379 2.572 . S
Tb1344 O1388 2.465 . S
Tb1344 O1389 2.387 . S
Tb1344 O1391 2.428 . S
Tb1344 O1392 2.308 . S
Tb1344 O1396 2.349 . S
Tb1344 O1399 2.393 . S
Tb1344 C1408 2.802 . S
C1345 N1346 1.379 . S
C1345 C1348 1.416 . S
C1345 C1352 1.424 . S
N1346 C1345 1.379 . S
N1346 C1349 1.334 . S
N1346 Tb1355 2.617 . S
C1347 C1349 1.390 . S
C1347 C1350 1.339 . S
C1347 H1367 0.930 . S
C1348 C1345 1.416 . S
C1348 C1350 1.416 . S
C1348 C1354 1.448 . S
C1349 N1346 1.334 . S
C1349 C1347 1.390 . S
C1349 H1360 0.930 . S
C1350 C1347 1.339 . S
C1350 C1348 1.416 . S
C1350 H1371 0.930 . S
C1351 C1352 1.413 . S
C1351 C1353 1.427 . S
C1351 C1357 1.416 . S
C1352 C1345 1.424 . S
C1352 C1351 1.413 . S
C1352 N1356 1.361 . S
C1353 C1351 1.427 . S
C1353 C1354 1.328 . S
C1353 H1368 0.929 . S
C1354 C1348 1.448 . S
C1354 C1353 1.328 . S
C1354 H1369 0.930 . S
Tb1355 N1346 2.617 . S
Tb1355 N1356 2.572 . S
Tb1355 O1390 2.349 . S
Tb1355 O1393 2.393 . S
Tb1355 O1394 2.465 . S
Tb1355 O1395 2.387 . S
Tb1355 O1397 2.428 . S
Tb1355 O1398 2.308 . S
Tb1355 C1419 2.802 . S
N1356 C1352 1.361 . S
N1356 Tb1355 2.572 . S
N1356 C1358 1.340 . S
C1357 C1351 1.416 . S
C1357 C1359 1.332 . S
C1357 H1365 0.931 . S
C1358 N1356 1.340 . S
C1358 C1359 1.407 . S
C1358 H1364 0.930 . S
C1359 C1357 1.332 . S
C1359 C1358 1.407 . S
C1359 H1361 0.929 . S
H1360 C1349 0.930 . S
H1361 C1359 0.929 . S
H1362 C1377 0.930 . S
H1363 C1384 0.929 . S
H1364 C1358 0.930 . S
H1365 C1357 0.931 . S
H1366 C1380 0.930 . S
H1367 C1347 0.930 . S
H1368 C1353 0.929 . S
H1369 C1354 0.930 . S
H1370 C1375 0.930 . S
H1371 C1350 0.930 . S
H1372 C1383 0.928 1_455 S
N1373 Tb1344 2.617 . S
N1373 C1374 1.379 . S
N1373 C1377 1.334 . S
C1374 N1373 1.379 . S
C1374 C1376 1.416 . S
C1374 C1382 1.424 . S
C1375 H1370 0.930 . S
C1375 C1377 1.390 . S
C1375 C1378 1.339 . S
C1376 C1374 1.416 . S
C1376 C1378 1.416 . S
C1376 C1409 1.448 . S
C1377 H1362 0.930 . S
C1377 N1373 1.334 . S
C1377 C1375 1.390 . S
C1378 C1375 1.339 . S
C1378 C1376 1.416 . S
C1378 H1385 0.930 . S
N1379 Tb1344 2.572 . S
N1379 C1380 1.340 . S
N1379 C1382 1.361 . S
C1380 H1366 0.930 . S
C1380 N1379 1.340 . S
C1380 C1384 1.407 . S
C1381 C1382 1.413 . S
C1381 C1383 1.422 . S
C1381 C1410 1.427 1_655 S
C1382 C1374 1.424 . S
C1382 N1379 1.361 . S
C1382 C1381 1.413 . S
C1383 H1372 0.928 1_655 S
C1383 C1381 1.422 . S
C1383 C1384 1.331 . S
C1384 H1363 0.929 . S
C1384 C1380 1.407 . S
C1384 C1383 1.331 . S
H1385 C1378 0.930 . S
H1386 C1409 0.930 . S
H1387 C1410 0.931 . S
O1388 Tb1344 2.465 . S
O1388 C1408 1.264 . S
O1389 Tb1344 2.387 . S
O1389 C1400 1.264 . S
O1390 Tb1355 2.349 . S
O1390 C1400 1.243 . S
O1391 Tb1344 2.428 . S
O1391 C1408 1.256 . S
O1392 Tb1344 2.308 . S
O1392 C1407 1.266 . S
O1393 Tb1355 2.393 . S
O1393 C1407 1.248 . S
O1394 Tb1355 2.465 . S
O1394 C1419 1.264 . S
O1395 Tb1355 2.387 . S
O1395 C1411 1.264 . S
O1396 Tb1344 2.349 . S
O1396 C1411 1.243 . S
O1397 Tb1355 2.428 . S
O1397 C1419 1.256 . S
O1398 Tb1355 2.308 . S
O1398 C1418 1.266 . S
O1399 Tb1344 2.393 . S
O1399 C1418 1.248 . S
C1400 O1389 1.264 . S
C1400 O1390 1.243 . S
C1401 C1404 1.399 1_655 S
C1401 C1406 1.383 1_655 S
C1401 C1408 1.496 . S
C1402 C1403 1.399 . S
C1402 C1406 1.389 . S
C1403 C1402 1.399 . S
C1403 C1405 1.380 . S
C1403 H1420 0.929 . S
C1404 C1401 1.399 1_455 S
C1404 C1405 1.392 . S
C1404 H1421 0.929 1_455 S
C1405 C1403 1.380 . S
C1405 C1404 1.392 . S
C1405 H1422 0.929 . S
C1406 C1401 1.383 1_455 S
C1406 C1402 1.389 . S
C1406 H1423 0.931 . S
C1407 O1392 1.266 . S
C1407 O1393 1.248 . S
C1408 Tb1344 2.802 . S
C1408 O1388 1.264 . S
C1408 O1391 1.256 . S
C1408 C1401 1.496 . S
C1409 C1376 1.448 . S
C1409 H1386 0.930 . S
C1409 C1410 1.326 1_655 S
C1410 C1381 1.427 1_455 S
C1410 H1387 0.931 . S
C1410 C1409 1.326 1_455 S
C1411 O1395 1.264 . S
C1411 O1396 1.243 . S
C1412 C1415 1.399 . S
C1412 C1416 1.383 . S
C1412 C1419 1.496 . S
C1413 C1414 1.399 . S
C1413 C1416 1.389 . S
C1414 C1413 1.399 . S
C1414 C1417 1.380 . S
C1414 H1424 0.929 . S
C1415 C1412 1.399 . S
C1415 C1417 1.392 . S
C1415 H1425 0.929 . S
C1416 C1412 1.383 . S
C1416 C1413 1.389 . S
C1416 H1426 0.931 . S
C1417 C1414 1.380 . S
C1417 C1415 1.392 . S
C1417 H1427 0.929 . S
C1418 O1398 1.266 . S
C1418 O1399 1.248 . S
C1419 Tb1355 2.802 . S
C1419 O1394 1.264 . S
C1419 O1397 1.256 . S
C1419 C1412 1.496 . S
H1420 C1403 0.929 . S
H1421 C1404 0.929 1_655 S
H1422 C1405 0.929 . S
H1423 C1406 0.931 . S
H1424 C1414 0.929 . S
H1425 C1415 0.929 . S
H1426 C1416 0.931 . S
H1427 C1417 0.929 . S
Tb1428 N1457 2.617 . S
Tb1428 N1463 2.572 . S
Tb1428 O1472 2.465 . S
Tb1428 O1473 2.387 . S
Tb1428 O1475 2.428 . S
Tb1428 O1476 2.308 . S
Tb1428 O1480 2.349 . S
Tb1428 O1483 2.393 . S
Tb1428 C1492 2.802 . S
C1429 N1430 1.379 . S
C1429 C1432 1.416 . S
C1429 C1436 1.424 . S
N1430 C1429 1.379 . S
N1430 C1433 1.334 . S
N1430 Tb1439 2.617 . S
C1431 C1433 1.390 . S
C1431 C1434 1.339 . S
C1431 H1451 0.930 . S
C1432 C1429 1.416 . S
C1432 C1434 1.416 . S
C1432 C1438 1.448 . S
C1433 N1430 1.334 . S
C1433 C1431 1.390 . S
C1433 H1444 0.930 . S
C1434 C1431 1.339 . S
C1434 C1432 1.416 . S
C1434 H1455 0.930 . S
C1435 C1436 1.413 . S
C1435 C1437 1.427 1_655 S
C1435 C1441 1.416 . S
C1436 C1429 1.424 . S
C1436 C1435 1.413 . S
C1436 N1440 1.361 . S
C1437 C1435 1.427 1_455 S
C1437 C1438 1.328 1_455 S
C1437 H1452 0.929 . S
C1438 C1432 1.448 . S
C1438 C1437 1.328 1_655 S
C1438 H1453 0.930 1_655 S
Tb1439 N1430 2.617 . S
Tb1439 N1440 2.572 . S
Tb1439 O1474 2.349 . S
Tb1439 O1477 2.393 . S
Tb1439 O1478 2.465 . S
Tb1439 O1479 2.387 . S
Tb1439 O1481 2.428 . S
Tb1439 O1482 2.308 . S
Tb1439 C1503 2.802 . S
N1440 C1436 1.361 . S
N1440 Tb1439 2.572 . S
N1440 C1442 1.340 . S
C1441 C1435 1.416 . S
C1441 C1443 1.332 . S
C1441 H1449 0.931 1_655 S
C1442 N1440 1.340 . S
C1442 C1443 1.407 . S
C1442 H1448 0.930 . S
C1443 C1441 1.332 . S
C1443 C1442 1.407 . S
C1443 H1445 0.929 . S
H1444 C1433 0.930 . S
H1445 C1443 0.929 . S
H1446 C1461 0.930 . S
H1447 C1468 0.929 . S
H1448 C1442 0.930 . S
H1449 C1441 0.931 1_455 S
H1450 C1464 0.930 . S
H1451 C1431 0.930 . S
H1452 C1437 0.929 . S
H1453 C1438 0.930 1_455 S
H1454 C1459 0.930 . S
H1455 C1434 0.930 . S
H1456 C1467 0.931 . S
N1457 Tb1428 2.617 . S
N1457 C1458 1.379 . S
N1457 C1461 1.334 . S
C1458 N1457 1.379 . S
C1458 C1460 1.416 . S
C1458 C1466 1.424 . S
C1459 H1454 0.930 . S
C1459 C1461 1.390 . S
C1459 C1462 1.339 . S
C1460 C1458 1.416 . S
C1460 C1462 1.416 . S
C1460 C1493 1.448 . S
C1461 H1446 0.930 . S
C1461 N1457 1.334 . S
C1461 C1459 1.390 . S
C1462 C1459 1.339 . S
C1462 C1460 1.416 . S
C1462 H1469 0.930 . S
N1463 Tb1428 2.572 . S
N1463 C1464 1.340 . S
N1463 C1466 1.361 . S
C1464 H1450 0.930 . S
C1464 N1463 1.340 . S
C1464 C1468 1.407 . S
C1465 C1466 1.413 . S
C1465 C1467 1.416 . S
C1465 C1494 1.427 . S
C1466 C1458 1.424 . S
C1466 N1463 1.361 . S
C1466 C1465 1.413 . S
C1467 H1456 0.931 . S
C1467 C1465 1.416 . S
C1467 C1468 1.332 . S
C1468 H1447 0.929 . S
C1468 C1464 1.407 . S
C1468 C1467 1.332 . S
H1469 C1462 0.930 . S
H1470 C1493 0.930 . S
H1471 C1494 0.929 . S
O1472 Tb1428 2.465 . S
O1472 C1492 1.264 . S
O1473 Tb1428 2.387 . S
O1473 C1484 1.264 . S
O1474 Tb1439 2.349 . S
O1474 C1484 1.243 . S
O1475 Tb1428 2.428 . S
O1475 C1492 1.256 . S
O1476 Tb1428 2.308 . S
O1476 C1491 1.266 . S
O1477 Tb1439 2.393 . S
O1477 C1491 1.248 . S
O1478 Tb1439 2.465 . S
O1478 C1503 1.264 . S
O1479 Tb1439 2.387 . S
O1479 C1495 1.264 . S
O1480 Tb1428 2.349 . S
O1480 C1495 1.243 . S
O1481 Tb1439 2.428 . S
O1481 C1503 1.256 . S
O1482 Tb1439 2.308 . S
O1482 C1502 1.266 . S
O1483 Tb1428 2.393 . S
O1483 C1502 1.248 . S
C1484 O1473 1.264 . S
C1484 O1474 1.243 . S
C1485 C1488 1.399 . S
C1485 C1490 1.383 . S
C1485 C1492 1.496 . S
C1486 C1487 1.399 . S
C1486 C1490 1.389 . S
C1487 C1486 1.399 . S
C1487 C1489 1.380 . S
C1487 H1504 0.929 . S
C1488 C1485 1.399 . S
C1488 C1489 1.392 . S
C1488 H1505 0.929 . S
C1489 C1487 1.380 . S
C1489 C1488 1.392 . S
C1489 H1506 0.929 . S
C1490 C1485 1.383 . S
C1490 C1486 1.389 . S
C1490 H1507 0.931 . S
C1491 O1476 1.266 . S
C1491 O1477 1.248 . S
C1492 Tb1428 2.802 . S
C1492 O1472 1.264 . S
C1492 O1475 1.256 . S
C1492 C1485 1.496 . S
C1493 C1460 1.448 . S
C1493 H1470 0.930 . S
C1493 C1494 1.328 . S
C1494 C1465 1.427 . S
C1494 H1471 0.929 . S
C1494 C1493 1.328 . S
C1495 O1479 1.264 . S
C1495 O1480 1.243 . S
C1496 C1499 1.399 . S
C1496 C1500 1.383 . S
C1496 C1503 1.496 . S
C1497 C1498 1.399 . S
C1497 C1500 1.389 . S
C1498 C1497 1.399 . S
C1498 C1501 1.380 . S
C1498 H1508 0.929 . S
C1499 C1496 1.399 . S
C1499 C1501 1.392 . S
C1499 H1509 0.929 . S
C1500 C1496 1.383 . S
C1500 C1497 1.389 . S
C1500 H1510 0.931 . S
C1501 C1498 1.380 . S
C1501 C1499 1.392 . S
C1501 H1511 0.929 . S
C1502 O1482 1.266 . S
C1502 O1483 1.248 . S
C1503 Tb1439 2.802 . S
C1503 O1478 1.264 . S
C1503 O1481 1.256 . S
C1503 C1496 1.496 . S
H1504 C1487 0.929 . S
H1505 C1488 0.929 . S
H1506 C1489 0.929 . S
H1507 C1490 0.931 . S
H1508 C1498 0.929 . S
H1509 C1499 0.929 . S
H1510 C1500 0.931 . S
H1511 C1501 0.929 . S
C1512 C1513 1.349 . S
C1512 C1514 1.327 . S
C1512 H1537 0.950 . S
C1513 C1512 1.349 . S
C1513 C1529 1.349 . S
C1514 C1512 1.327 . S
C1514 C1533 1.429 . S
C1514 H1538 0.950 . S
C1515 C1532 1.574 . S
C1515 C1534 1.368 . S
C1515 H1539 0.949 . S
H1516 C1520 0.949 . S
C1517 C1518 1.349 . S
C1517 C1519 1.327 . S
C1517 H1540 0.950 . S
C1518 C1517 1.349 . S
C1518 C1530 1.349 . S
C1519 C1517 1.327 . S
C1519 C1535 1.429 . S
C1519 H1541 0.950 . S
C1520 H1516 0.949 . S
C1520 C1528 1.574 . S
C1520 C1536 1.368 . S
H1521 C1529 0.950 . S
H1522 C1527 0.950 . S
H1523 C1528 0.949 . S
H1524 C1530 0.950 . S
H1525 C1531 0.950 . S
H1526 C1532 0.949 . S
C1527 H1522 0.950 . S
C1527 C1529 1.327 . S
C1527 C1533 1.429 . S
C1528 C1520 1.574 . S
C1528 H1523 0.949 . S
C1528 C1534 1.368 . S
C1529 C1513 1.349 . S
C1529 H1521 0.950 . S
C1529 C1527 1.327 . S
C1530 C1518 1.349 . S
C1530 H1524 0.950 . S
C1530 C1531 1.327 . S
C1531 H1525 0.950 . S
C1531 C1530 1.327 . S
C1531 C1535 1.429 . S
C1532 C1515 1.574 . S
C1532 H1526 0.949 . S
C1532 C1536 1.368 . S
C1533 C1514 1.429 . S
C1533 C1527 1.429 . S
C1533 C1534 1.523 . S
C1534 C1515 1.368 . S
C1534 C1528 1.368 . S
C1534 C1533 1.523 . S
C1535 C1519 1.429 . S
C1535 C1531 1.429 . S
C1535 C1536 1.523 . S
C1536 C1520 1.368 . S
C1536 C1532 1.368 . S
C1536 C1535 1.523 . S
H1537 C1512 0.950 . S
H1538 C1514 0.950 . S
H1539 C1515 0.949 . S
H1540 C1517 0.950 . S
H1541 C1519 0.950 . S
C1542 C1543 1.349 . S
C1542 C1544 1.327 . S
C1542 H1567 0.950 . S
C1543 C1542 1.349 . S
C1543 C1559 1.349 . S
C1544 C1542 1.327 . S
C1544 C1563 1.429 . S
C1544 H1568 0.950 . S
C1545 C1562 1.574 . S
C1545 C1564 1.368 . S
C1545 H1569 0.949 . S
H1546 C1550 0.949 . S
C1547 C1548 1.349 . S
C1547 C1549 1.327 . S
C1547 H1570 0.950 . S
C1548 C1547 1.349 . S
C1548 C1560 1.349 . S
C1549 C1547 1.327 . S
C1549 C1565 1.429 . S
C1549 H1571 0.950 . S
C1550 H1546 0.949 . S
C1550 C1558 1.574 . S
C1550 C1566 1.368 . S
H1551 C1559 0.950 . S
H1552 C1557 0.950 . S
H1553 C1558 0.949 . S
H1554 C1560 0.950 . S
H1555 C1561 0.950 . S
H1556 C1562 0.949 . S
C1557 H1552 0.950 . S
C1557 C1559 1.327 . S
C1557 C1563 1.429 . S
C1558 C1550 1.574 . S
C1558 H1553 0.949 . S
C1558 C1564 1.368 . S
C1559 C1543 1.349 . S
C1559 H1551 0.950 . S
C1559 C1557 1.327 . S
C1560 C1548 1.349 . S
C1560 H1554 0.950 . S
C1560 C1561 1.327 . S
C1561 H1555 0.950 . S
C1561 C1560 1.327 . S
C1561 C1565 1.429 . S
C1562 C1545 1.574 . S
C1562 H1556 0.949 . S
C1562 C1566 1.368 . S
C1563 C1544 1.429 . S
C1563 C1557 1.429 . S
C1563 C1564 1.523 . S
C1564 C1545 1.368 . S
C1564 C1558 1.368 . S
C1564 C1563 1.523 . S
C1565 C1549 1.429 . S
C1565 C1561 1.429 . S
C1565 C1566 1.523 . S
C1566 C1550 1.368 . S
C1566 C1562 1.368 . S
C1566 C1565 1.523 . S
H1567 C1542 0.950 . S
H1568 C1544 0.950 . S
H1569 C1545 0.949 . S
H1570 C1547 0.950 . S
H1571 C1549 0.950 . S
C1572 C1573 1.349 . S
C1572 C1574 1.327 . S
C1572 H1597 0.950 . S
C1573 C1572 1.349 . S
C1573 C1589 1.349 . S
C1574 C1572 1.327 . S
C1574 C1593 1.429 . S
C1574 H1598 0.950 . S
C1575 C1592 1.574 . S
C1575 C1594 1.368 . S
C1575 H1599 0.949 . S
H1576 C1580 0.949 . S
C1577 C1578 1.349 . S
C1577 C1579 1.327 . S
C1577 H1600 0.950 . S
C1578 C1577 1.349 . S
C1578 C1590 1.349 . S
C1579 C1577 1.327 . S
C1579 C1595 1.429 . S
C1579 H1601 0.950 . S
C1580 H1576 0.949 . S
C1580 C1588 1.574 . S
C1580 C1596 1.368 . S
H1581 C1589 0.950 . S
H1582 C1587 0.950 . S
H1583 C1588 0.949 . S
H1584 C1590 0.950 . S
H1585 C1591 0.950 . S
H1586 C1592 0.949 . S
C1587 H1582 0.950 . S
C1587 C1589 1.327 . S
C1587 C1593 1.429 . S
C1588 C1580 1.574 . S
C1588 H1583 0.949 . S
C1588 C1594 1.368 . S
C1589 C1573 1.349 . S
C1589 H1581 0.950 . S
C1589 C1587 1.327 . S
C1590 C1578 1.349 . S
C1590 H1584 0.950 . S
C1590 C1591 1.327 . S
C1591 H1585 0.950 . S
C1591 C1590 1.327 . S
C1591 C1595 1.429 . S
C1592 C1575 1.574 . S
C1592 H1586 0.949 . S
C1592 C1596 1.368 . S
C1593 C1574 1.429 . S
C1593 C1587 1.429 . S
C1593 C1594 1.523 . S
C1594 C1575 1.368 . S
C1594 C1588 1.368 . S
C1594 C1593 1.523 . S
C1595 C1579 1.429 . S
C1595 C1591 1.429 . S
C1595 C1596 1.523 . S
C1596 C1580 1.368 . S
C1596 C1592 1.368 . S
C1596 C1595 1.523 . S
H1597 C1572 0.950 . S
H1598 C1574 0.950 . S
H1599 C1575 0.949 . S
H1600 C1577 0.950 . S
H1601 C1579 0.950 . S
C1602 C1603 1.349 . S
C1602 C1604 1.327 . S
C1602 H1627 0.950 . S
C1603 C1602 1.349 . S
C1603 C1619 1.349 . S
C1604 C1602 1.327 . S
C1604 C1623 1.429 . S
C1604 H1628 0.950 . S
C1605 C1622 1.574 . S
C1605 C1624 1.368 . S
C1605 H1629 0.949 . S
H1606 C1610 0.949 . S
C1607 C1608 1.349 . S
C1607 C1609 1.327 . S
C1607 H1630 0.950 . S
C1608 C1607 1.349 . S
C1608 C1620 1.349 . S
C1609 C1607 1.327 . S
C1609 C1625 1.429 . S
C1609 H1631 0.950 . S
C1610 H1606 0.949 . S
C1610 C1618 1.574 . S
C1610 C1626 1.368 . S
H1611 C1619 0.950 . S
H1612 C1617 0.950 . S
H1613 C1618 0.949 . S
H1614 C1620 0.950 . S
H1615 C1621 0.950 . S
H1616 C1622 0.949 . S
C1617 H1612 0.950 . S
C1617 C1619 1.327 . S
C1617 C1623 1.429 . S
C1618 C1610 1.574 . S
C1618 H1613 0.949 . S
C1618 C1624 1.368 . S
C1619 C1603 1.349 . S
C1619 H1611 0.950 . S
C1619 C1617 1.327 . S
C1620 C1608 1.349 . S
C1620 H1614 0.950 . S
C1620 C1621 1.327 . S
C1621 H1615 0.950 . S
C1621 C1620 1.327 . S
C1621 C1625 1.429 . S
C1622 C1605 1.574 . S
C1622 H1616 0.949 . S
C1622 C1626 1.368 . S
C1623 C1604 1.429 . S
C1623 C1617 1.429 . S
C1623 C1624 1.523 . S
C1624 C1605 1.368 . S
C1624 C1618 1.368 . S
C1624 C1623 1.523 . S
C1625 C1609 1.429 . S
C1625 C1621 1.429 . S
C1625 C1626 1.523 . S
C1626 C1610 1.368 . S
C1626 C1622 1.368 . S
C1626 C1625 1.523 . S
H1627 C1602 0.950 . S
H1628 C1604 0.950 . S
H1629 C1605 0.949 . S
H1630 C1607 0.950 . S
H1631 C1609 0.950 . S
C1632 C1633 1.349 . S
C1632 C1634 1.327 . S
C1632 H1657 0.950 . S
C1633 C1632 1.349 . S
C1633 C1649 1.349 . S
C1634 C1632 1.327 . S
C1634 C1653 1.429 . S
C1634 H1658 0.950 . S
C1635 C1652 1.574 . S
C1635 C1654 1.368 . S
C1635 H1659 0.949 . S
H1636 C1640 0.949 . S
C1637 C1638 1.349 . S
C1637 C1639 1.327 . S
C1637 H1660 0.950 . S
C1638 C1637 1.349 . S
C1638 C1650 1.349 . S
C1639 C1637 1.327 . S
C1639 C1655 1.429 . S
C1639 H1661 0.950 . S
C1640 H1636 0.949 . S
C1640 C1648 1.574 . S
C1640 C1656 1.368 . S
H1641 C1649 0.950 . S
H1642 C1647 0.950 . S
H1643 C1648 0.949 . S
H1644 C1650 0.950 . S
H1645 C1651 0.950 . S
H1646 C1652 0.949 . S
C1647 H1642 0.950 . S
C1647 C1649 1.327 . S
C1647 C1653 1.429 . S
C1648 C1640 1.574 . S
C1648 H1643 0.949 . S
C1648 C1654 1.368 . S
C1649 C1633 1.349 . S
C1649 H1641 0.950 . S
C1649 C1647 1.327 . S
C1650 C1638 1.349 . S
C1650 H1644 0.950 . S
C1650 C1651 1.327 . S
C1651 H1645 0.950 . S
C1651 C1650 1.327 . S
C1651 C1655 1.429 . S
C1652 C1635 1.574 . S
C1652 H1646 0.949 . S
C1652 C1656 1.368 . S
C1653 C1634 1.429 . S
C1653 C1647 1.429 . S
C1653 C1654 1.523 . S
C1654 C1635 1.368 . S
C1654 C1648 1.368 . S
C1654 C1653 1.523 . S
C1655 C1639 1.429 . S
C1655 C1651 1.429 . S
C1655 C1656 1.523 . S
C1656 C1640 1.368 . S
C1656 C1652 1.368 . S
C1656 C1655 1.523 . S
H1657 C1632 0.950 . S
H1658 C1634 0.950 . S
H1659 C1635 0.949 . S
H1660 C1637 0.950 . S
H1661 C1639 0.950 . S
C1662 C1663 1.349 . S
C1662 C1664 1.327 . S
C1662 H1687 0.950 . S
C1663 C1662 1.349 . S
C1663 C1679 1.349 . S
C1664 C1662 1.327 . S
C1664 C1683 1.429 . S
C1664 H1688 0.950 . S
C1665 C1682 1.574 . S
C1665 C1684 1.368 . S
C1665 H1689 0.949 . S
H1666 C1670 0.949 . S
C1667 C1668 1.349 . S
C1667 C1669 1.327 . S
C1667 H1690 0.950 . S
C1668 C1667 1.349 . S
C1668 C1680 1.349 . S
C1669 C1667 1.327 . S
C1669 C1685 1.429 . S
C1669 H1691 0.950 . S
C1670 H1666 0.949 . S
C1670 C1678 1.574 . S
C1670 C1686 1.368 . S
H1671 C1679 0.950 . S
H1672 C1677 0.950 . S
H1673 C1678 0.949 . S
H1674 C1680 0.950 . S
H1675 C1681 0.950 . S
H1676 C1682 0.949 . S
C1677 H1672 0.950 . S
C1677 C1679 1.327 . S
C1677 C1683 1.429 . S
C1678 C1670 1.574 . S
C1678 H1673 0.949 . S
C1678 C1684 1.368 . S
C1679 C1663 1.349 . S
C1679 H1671 0.950 . S
C1679 C1677 1.327 . S
C1680 C1668 1.349 . S
C1680 H1674 0.950 . S
C1680 C1681 1.327 . S
C1681 H1675 0.950 . S
C1681 C1680 1.327 . S
C1681 C1685 1.429 . S
C1682 C1665 1.574 . S
C1682 H1676 0.949 . S
C1682 C1686 1.368 . S
C1683 C1664 1.429 . S
C1683 C1677 1.429 . S
C1683 C1684 1.523 . S
C1684 C1665 1.368 . S
C1684 C1678 1.368 . S
C1684 C1683 1.523 . S
C1685 C1669 1.429 . S
C1685 C1681 1.429 . S
C1685 C1686 1.523 . S
C1686 C1670 1.368 . S
C1686 C1682 1.368 . S
C1686 C1685 1.523 . S
H1687 C1662 0.950 . S
H1688 C1664 0.950 . S
H1689 C1665 0.949 . S
H1690 C1667 0.950 . S
H1691 C1669 0.950 . S
C1692 C1693 1.349 . S
C1692 C1694 1.327 . S
C1692 H1717 0.950 . S
C1693 C1692 1.349 . S
C1693 C1709 1.349 . S
C1694 C1692 1.327 . S
C1694 C1713 1.429 . S
C1694 H1718 0.950 . S
C1695 C1712 1.574 . S
C1695 C1714 1.368 . S
C1695 H1719 0.949 . S
H1696 C1700 0.949 . S
C1697 C1698 1.349 . S
C1697 C1699 1.327 . S
C1697 H1720 0.950 . S
C1698 C1697 1.349 . S
C1698 C1710 1.349 . S
C1699 C1697 1.327 . S
C1699 C1715 1.429 . S
C1699 H1721 0.950 . S
C1700 H1696 0.949 . S
C1700 C1708 1.574 . S
C1700 C1716 1.368 . S
H1701 C1709 0.950 . S
H1702 C1707 0.950 . S
H1703 C1708 0.949 . S
H1704 C1710 0.950 . S
H1705 C1711 0.950 . S
H1706 C1712 0.949 . S
C1707 H1702 0.950 . S
C1707 C1709 1.327 . S
C1707 C1713 1.429 . S
C1708 C1700 1.574 . S
C1708 H1703 0.949 . S
C1708 C1714 1.368 . S
C1709 C1693 1.349 . S
C1709 H1701 0.950 . S
C1709 C1707 1.327 . S
C1710 C1698 1.349 . S
C1710 H1704 0.950 . S
C1710 C1711 1.327 . S
C1711 H1705 0.950 . S
C1711 C1710 1.327 . S
C1711 C1715 1.429 . S
C1712 C1695 1.574 . S
C1712 H1706 0.949 . S
C1712 C1716 1.368 . S
C1713 C1694 1.429 . S
C1713 C1707 1.429 . S
C1713 C1714 1.523 . S
C1714 C1695 1.368 . S
C1714 C1708 1.368 . S
C1714 C1713 1.523 . S
C1715 C1699 1.429 . S
C1715 C1711 1.429 . S
C1715 C1716 1.523 . S
C1716 C1700 1.368 . S
C1716 C1712 1.368 . S
C1716 C1715 1.523 . S
H1717 C1692 0.950 . S
H1718 C1694 0.950 . S
H1719 C1695 0.949 . S
H1720 C1697 0.950 . S
H1721 C1699 0.950 . S
C1722 C1723 1.349 . S
C1722 C1724 1.327 . S
C1722 H1747 0.950 . S
C1723 C1722 1.349 . S
C1723 C1739 1.349 . S
C1724 C1722 1.327 . S
C1724 C1743 1.429 . S
C1724 H1748 0.950 . S
C1725 C1742 1.574 . S
C1725 C1744 1.368 . S
C1725 H1749 0.949 . S
H1726 C1730 0.949 . S
C1727 C1728 1.349 . S
C1727 C1729 1.327 . S
C1727 H1750 0.950 . S
C1728 C1727 1.349 . S
C1728 C1740 1.349 . S
C1729 C1727 1.327 . S
C1729 C1745 1.429 . S
C1729 H1751 0.950 . S
C1730 H1726 0.949 . S
C1730 C1738 1.574 . S
C1730 C1746 1.368 . S
H1731 C1739 0.938 1_455 S
H1732 C1737 0.950 . S
H1733 C1738 0.949 . S
H1734 C1740 0.950 . S
H1735 C1741 0.950 . S
H1736 C1742 0.949 . S
C1737 H1732 0.950 . S
C1737 C1739 1.327 . S
C1737 C1743 1.429 . S
C1738 C1730 1.574 . S
C1738 H1733 0.949 . S
C1738 C1744 1.368 . S
C1739 C1723 1.349 . S
C1739 H1731 0.938 1_655 S
C1739 C1737 1.327 . S
C1740 C1728 1.349 . S
C1740 H1734 0.950 . S
C1740 C1741 1.327 . S
C1741 H1735 0.950 . S
C1741 C1740 1.327 . S
C1741 C1745 1.429 . S
C1742 C1725 1.574 . S
C1742 H1736 0.949 . S
C1742 C1746 1.368 . S
C1743 C1724 1.429 . S
C1743 C1737 1.429 . S
C1743 C1744 1.523 . S
C1744 C1725 1.368 . S
C1744 C1738 1.368 . S
C1744 C1743 1.523 . S
C1745 C1729 1.429 . S
C1745 C1741 1.429 . S
C1745 C1746 1.523 1_565 S
C1746 C1730 1.368 . S
C1746 C1742 1.368 . S
C1746 C1745 1.523 1_545 S
H1747 C1722 0.950 . S
H1748 C1724 0.950 . S
H1749 C1725 0.949 . S
H1750 C1727 0.950 . S
H1751 C1729 0.950 . S
C1752 C1753 1.349 . S
C1752 C1754 1.327 . S
C1752 H1777 0.950 . S
C1753 C1752 1.349 . S
C1753 C1769 1.349 . S
C1754 C1752 1.327 . S
C1754 C1773 1.429 . S
C1754 H1778 0.950 . S
C1755 C1772 1.574 1_455 S
C1755 C1774 1.368 . S
C1755 H1779 0.949 . S
H1756 C1760 0.949 . S
C1757 C1758 1.349 . S
C1757 C1759 1.327 . S
C1757 H1780 0.950 . S
C1758 C1757 1.349 . S
C1758 C1770 1.349 . S
C1759 C1757 1.327 . S
C1759 C1775 1.429 . S
C1759 H1781 0.950 . S
C1760 H1756 0.949 . S
C1760 C1768 1.574 1_655 S
C1760 C1776 1.368 . S
H1761 C1769 0.950 . S
H1762 C1767 0.950 . S
H1763 C1768 0.949 . S
H1764 C1770 0.950 . S
H1765 C1771 0.950 . S
H1766 C1772 0.949 . S
C1767 H1762 0.950 . S
C1767 C1769 1.327 . S
C1767 C1773 1.429 . S
C1768 C1760 1.574 1_455 S
C1768 H1763 0.949 . S
C1768 C1774 1.368 . S
C1769 C1753 1.349 . S
C1769 H1761 0.950 . S
C1769 C1767 1.327 . S
C1770 C1758 1.349 . S
C1770 H1764 0.950 . S
C1770 C1771 1.327 . S
C1771 H1765 0.950 . S
C1771 C1770 1.327 . S
C1771 C1775 1.429 . S
C1772 C1755 1.574 1_655 S
C1772 H1766 0.949 . S
C1772 C1776 1.368 . S
C1773 C1754 1.429 . S
C1773 C1767 1.429 . S
C1773 C1774 1.523 . S
C1774 C1755 1.368 . S
C1774 C1768 1.368 . S
C1774 C1773 1.523 . S
C1775 C1759 1.429 . S
C1775 C1771 1.429 . S
C1775 C1776 1.523 . S
C1776 C1760 1.368 . S
C1776 C1772 1.368 . S
C1776 C1775 1.523 . S
H1777 C1752 0.950 . S
H1778 C1754 0.950 . S
H1779 C1755 0.949 . S
H1780 C1757 0.950 . S
H1781 C1759 0.950 . S
C1782 C1783 1.349 . S
C1782 C1784 1.327 . S
C1782 H1807 0.950 . S
C1783 C1782 1.349 . S
C1783 C1799 1.349 . S
C1784 C1782 1.327 . S
C1784 C1803 1.429 . S
C1784 H1808 0.950 . S
C1785 C1802 1.574 . S
C1785 C1804 1.368 . S
C1785 H1809 0.949 . S
H1786 C1790 0.949 . S
C1787 C1788 1.349 . S
C1787 C1789 1.327 . S
C1787 H1810 0.950 . S
C1788 C1787 1.349 . S
C1788 C1800 1.349 . S
C1789 C1787 1.327 . S
C1789 C1805 1.429 . S
C1789 H1811 0.950 . S
C1790 H1786 0.949 . S
C1790 C1798 1.574 . S
C1790 C1806 1.368 . S
H1791 C1799 0.950 . S
H1792 C1797 0.950 . S
H1793 C1798 0.949 . S
H1794 C1800 0.950 . S
H1795 C1801 0.950 . S
H1796 C1802 0.949 . S
C1797 H1792 0.950 . S
C1797 C1799 1.327 . S
C1797 C1803 1.429 . S
C1798 C1790 1.574 . S
C1798 H1793 0.949 . S
C1798 C1804 1.368 . S
C1799 C1783 1.349 . S
C1799 H1791 0.950 . S
C1799 C1797 1.327 . S
C1800 C1788 1.349 . S
C1800 H1794 0.950 . S
C1800 C1801 1.327 . S
C1801 H1795 0.950 . S
C1801 C1800 1.327 . S
C1801 C1805 1.429 . S
C1802 C1785 1.574 . S
C1802 H1796 0.949 . S
C1802 C1806 1.368 . S
C1803 C1784 1.429 . S
C1803 C1797 1.429 . S
C1803 C1804 1.523 . S
C1804 C1785 1.368 . S
C1804 C1798 1.368 . S
C1804 C1803 1.523 . S
C1805 C1789 1.429 . S
C1805 C1801 1.429 . S
C1805 C1806 1.523 . S
C1806 C1790 1.368 . S
C1806 C1802 1.368 . S
C1806 C1805 1.523 . S
H1807 C1782 0.950 . S
H1808 C1784 0.950 . S
H1809 C1785 0.949 . S
H1810 C1787 0.950 . S
H1811 C1789 0.950 . S
C1812 C1813 1.349 . S
C1812 C1814 1.327 . S
C1812 H1837 0.950 . S
C1813 C1812 1.349 . S
C1813 C1829 1.349 . S
C1814 C1812 1.327 . S
C1814 C1833 1.429 . S
C1814 H1838 0.950 . S
C1815 C1832 1.574 . S
C1815 C1834 1.368 . S
C1815 H1839 0.949 . S
H1816 C1820 0.949 . S
C1817 C1818 1.349 . S
C1817 C1819 1.327 . S
C1817 H1840 0.950 . S
C1818 C1817 1.349 . S
C1818 C1830 1.349 . S
C1819 C1817 1.327 . S
C1819 C1835 1.429 . S
C1819 H1841 0.950 . S
C1820 H1816 0.949 . S
C1820 C1828 1.574 . S
C1820 C1836 1.368 . S
H1821 C1829 0.950 . S
H1822 C1827 0.950 . S
H1823 C1828 0.949 . S
H1824 C1830 0.950 . S
H1825 C1831 0.950 . S
H1826 C1832 0.949 . S
C1827 H1822 0.950 . S
C1827 C1829 1.327 . S
C1827 C1833 1.429 . S
C1828 C1820 1.574 . S
C1828 H1823 0.949 . S
C1828 C1834 1.368 . S
C1829 C1813 1.349 . S
C1829 H1821 0.950 . S
C1829 C1827 1.327 . S
C1830 C1818 1.349 . S
C1830 H1824 0.950 . S
C1830 C1831 1.327 . S
C1831 H1825 0.950 . S
C1831 C1830 1.327 . S
C1831 C1835 1.429 . S
C1832 C1815 1.574 . S
C1832 H1826 0.949 . S
C1832 C1836 1.368 . S
C1833 C1814 1.429 . S
C1833 C1827 1.429 . S
C1833 C1834 1.523 . S
C1834 C1815 1.368 . S
C1834 C1828 1.368 . S
C1834 C1833 1.523 . S
C1835 C1819 1.429 . S
C1835 C1831 1.429 . S
C1835 C1836 1.523 . S
C1836 C1820 1.368 . S
C1836 C1832 1.368 . S
C1836 C1835 1.523 . S
H1837 C1812 0.950 . S
H1838 C1814 0.950 . S
H1839 C1815 0.949 . S
H1840 C1817 0.950 . S
H1841 C1819 0.950 . S
C1842 C1843 1.349 . S
C1842 C1844 1.327 . S
C1842 H1867 0.950 . S
C1843 C1842 1.349 . S
C1843 C1859 1.349 . S
C1844 C1842 1.327 . S
C1844 C1863 1.429 . S
C1844 H1868 0.950 . S
C1845 C1862 1.574 . S
C1845 C1864 1.368 . S
C1845 H1869 0.949 . S
H1846 C1850 0.949 . S
C1847 C1848 1.349 . S
C1847 C1849 1.327 . S
C1847 H1870 0.950 . S
C1848 C1847 1.349 . S
C1848 C1860 1.349 . S
C1849 C1847 1.327 . S
C1849 C1865 1.429 . S
C1849 H1871 0.950 . S
C1850 H1846 0.949 . S
C1850 C1858 1.574 . S
C1850 C1866 1.368 . S
H1851 C1859 0.950 . S
H1852 C1857 0.950 . S
H1853 C1858 0.949 . S
H1854 C1860 0.950 . S
H1855 C1861 0.950 . S
H1856 C1862 0.949 . S
C1857 H1852 0.950 . S
C1857 C1859 1.327 . S
C1857 C1863 1.429 . S
C1858 C1850 1.574 . S
C1858 H1853 0.949 . S
C1858 C1864 1.368 . S
C1859 C1843 1.349 . S
C1859 H1851 0.950 . S
C1859 C1857 1.327 . S
C1860 C1848 1.349 . S
C1860 H1854 0.950 . S
C1860 C1861 1.327 . S
C1861 H1855 0.950 . S
C1861 C1860 1.327 . S
C1861 C1865 1.429 . S
C1862 C1845 1.574 . S
C1862 H1856 0.949 . S
C1862 C1866 1.368 . S
C1863 C1844 1.429 . S
C1863 C1857 1.429 . S
C1863 C1864 1.523 . S
C1864 C1845 1.368 . S
C1864 C1858 1.368 . S
C1864 C1863 1.523 . S
C1865 C1849 1.429 . S
C1865 C1861 1.429 . S
C1865 C1866 1.523 . S
C1866 C1850 1.368 . S
C1866 C1862 1.368 . S
C1866 C1865 1.523 . S
H1867 C1842 0.950 . S
H1868 C1844 0.950 . S
H1869 C1845 0.949 . S
H1870 C1847 0.950 . S
H1871 C1849 0.950 . S
C1872 C1873 1.349 . S
C1872 C1874 1.327 . S
C1872 H1897 0.950 . S
C1873 C1872 1.349 . S
C1873 C1889 1.349 . S
C1874 C1872 1.327 . S
C1874 C1893 1.429 . S
C1874 H1898 0.950 . S
C1875 C1892 1.574 . S
C1875 C1894 1.368 . S
C1875 H1899 0.949 . S
H1876 C1880 0.949 . S
C1877 C1878 1.349 . S
C1877 C1879 1.327 . S
C1877 H1900 0.950 . S
C1878 C1877 1.349 . S
C1878 C1890 1.349 . S
C1879 C1877 1.327 . S
C1879 C1895 1.429 . S
C1879 H1901 0.950 . S
C1880 H1876 0.949 . S
C1880 C1888 1.574 . S
C1880 C1896 1.368 . S
H1881 C1889 0.950 . S
H1882 C1887 0.950 . S
H1883 C1888 0.949 . S
H1884 C1890 0.950 . S
H1885 C1891 0.950 . S
H1886 C1892 0.949 . S
C1887 H1882 0.950 . S
C1887 C1889 1.327 . S
C1887 C1893 1.429 . S
C1888 C1880 1.574 . S
C1888 H1883 0.949 . S
C1888 C1894 1.368 . S
C1889 C1873 1.349 . S
C1889 H1881 0.950 . S
C1889 C1887 1.327 . S
C1890 C1878 1.349 . S
C1890 H1884 0.950 . S
C1890 C1891 1.327 . S
C1891 H1885 0.950 . S
C1891 C1890 1.327 . S
C1891 C1895 1.429 . S
C1892 C1875 1.574 . S
C1892 H1886 0.949 . S
C1892 C1896 1.368 . S
C1893 C1874 1.429 . S
C1893 C1887 1.429 . S
C1893 C1894 1.523 . S
C1894 C1875 1.368 . S
C1894 C1888 1.368 . S
C1894 C1893 1.523 . S
C1895 C1879 1.429 . S
C1895 C1891 1.429 . S
C1895 C1896 1.523 . S
C1896 C1880 1.368 . S
C1896 C1892 1.368 . S
C1896 C1895 1.523 . S
H1897 C1872 0.950 . S
H1898 C1874 0.950 . S
H1899 C1875 0.949 . S
H1900 C1877 0.950 . S
H1901 C1879 0.950 . S
C1902 C1903 1.349 . S
C1902 C1904 1.327 . S
C1902 H1927 0.950 . S
C1903 C1902 1.349 . S
C1903 C1919 1.349 . S
C1904 C1902 1.327 . S
C1904 C1923 1.429 . S
C1904 H1928 0.950 . S
C1905 C1922 1.574 . S
C1905 C1924 1.368 . S
C1905 H1929 0.949 . S
H1906 C1910 0.949 . S
C1907 C1908 1.349 . S
C1907 C1909 1.327 . S
C1907 H1930 0.950 . S
C1908 C1907 1.349 . S
C1908 C1920 1.349 . S
C1909 C1907 1.327 . S
C1909 C1925 1.429 . S
C1909 H1931 0.950 . S
C1910 H1906 0.949 . S
C1910 C1918 1.574 . S
C1910 C1926 1.368 . S
H1911 C1919 0.950 . S
H1912 C1917 0.950 . S
H1913 C1918 0.949 . S
H1914 C1920 0.950 . S
H1915 C1921 0.950 . S
H1916 C1922 0.949 . S
C1917 H1912 0.950 . S
C1917 C1919 1.327 . S
C1917 C1923 1.429 . S
C1918 C1910 1.574 . S
C1918 H1913 0.949 . S
C1918 C1924 1.368 . S
C1919 C1903 1.349 . S
C1919 H1911 0.950 . S
C1919 C1917 1.327 . S
C1920 C1908 1.349 . S
C1920 H1914 0.950 . S
C1920 C1921 1.327 . S
C1921 H1915 0.950 . S
C1921 C1920 1.327 . S
C1921 C1925 1.429 . S
C1922 C1905 1.574 . S
C1922 H1916 0.949 . S
C1922 C1926 1.368 . S
C1923 C1904 1.429 . S
C1923 C1917 1.429 . S
C1923 C1924 1.523 . S
C1924 C1905 1.368 . S
C1924 C1918 1.368 . S
C1924 C1923 1.523 . S
C1925 C1909 1.429 . S
C1925 C1921 1.429 . S
C1925 C1926 1.523 . S
C1926 C1910 1.368 . S
C1926 C1922 1.368 . S
C1926 C1925 1.523 . S
H1927 C1902 0.950 . S
H1928 C1904 0.950 . S
H1929 C1905 0.949 . S
H1930 C1907 0.950 . S
H1931 C1909 0.950 . S
C1932 C1933 1.349 . S
C1932 C1934 1.327 . S
C1932 H1957 0.950 . S
C1933 C1932 1.349 . S
C1933 C1949 1.349 . S
C1934 C1932 1.327 . S
C1934 C1953 1.429 . S
C1934 H1958 0.950 . S
C1935 C1952 1.574 . S
C1935 C1954 1.368 . S
C1935 H1959 0.949 . S
H1936 C1940 0.949 . S
C1937 C1938 1.349 . S
C1937 C1939 1.327 . S
C1937 H1960 0.950 . S
C1938 C1937 1.349 . S
C1938 C1950 1.349 . S
C1939 C1937 1.327 . S
C1939 C1955 1.429 . S
C1939 H1961 0.950 . S
C1940 H1936 0.949 . S
C1940 C1948 1.574 . S
C1940 C1956 1.368 . S
H1941 C1949 0.950 . S
H1942 C1947 0.950 . S
H1943 C1948 0.949 . S
H1944 C1950 0.950 . S
H1945 C1951 0.950 . S
H1946 C1952 0.949 . S
C1947 H1942 0.950 . S
C1947 C1949 1.327 . S
C1947 C1953 1.429 . S
C1948 C1940 1.574 . S
C1948 H1943 0.949 . S
C1948 C1954 1.368 . S
C1949 C1933 1.349 . S
C1949 H1941 0.950 . S
C1949 C1947 1.327 . S
C1950 C1938 1.349 . S
C1950 H1944 0.950 . S
C1950 C1951 1.327 . S
C1951 H1945 0.950 . S
C1951 C1950 1.327 . S
C1951 C1955 1.429 . S
C1952 C1935 1.574 . S
C1952 H1946 0.949 . S
C1952 C1956 1.368 . S
C1953 C1934 1.429 . S
C1953 C1947 1.429 . S
C1953 C1954 1.523 . S
C1954 C1935 1.368 . S
C1954 C1948 1.368 . S
C1954 C1953 1.523 . S
C1955 C1939 1.429 . S
C1955 C1951 1.429 . S
C1955 C1956 1.523 . S
C1956 C1940 1.368 . S
C1956 C1952 1.368 . S
C1956 C1955 1.523 . S
H1957 C1932 0.950 . S
H1958 C1934 0.950 . S
H1959 C1935 0.949 . S
H1960 C1937 0.950 . S
H1961 C1939 0.950 . S
C1962 C1963 1.349 . S
C1962 C1964 1.327 . S
C1962 H1987 0.950 . S
C1963 C1962 1.349 . S
C1963 C1979 1.349 . S
C1964 C1962 1.327 . S
C1964 C1983 1.429 . S
C1964 H1988 0.950 . S
C1965 C1982 1.574 . S
C1965 C1984 1.368 . S
C1965 H1989 0.949 . S
H1966 C1970 0.949 . S
C1967 C1968 1.349 . S
C1967 C1969 1.327 . S
C1967 H1990 0.950 . S
C1968 C1967 1.349 . S
C1968 C1980 1.349 . S
C1969 C1967 1.327 . S
C1969 C1985 1.429 . S
C1969 H1991 0.950 . S
C1970 H1966 0.949 . S
C1970 C1978 1.574 . S
C1970 C1986 1.368 . S
H1971 C1979 0.950 . S
H1972 C1977 0.950 . S
H1973 C1978 0.949 . S
H1974 C1980 0.950 . S
H1975 C1981 0.950 . S
H1976 C1982 0.949 . S
C1977 H1972 0.950 . S
C1977 C1979 1.327 . S
C1977 C1983 1.429 . S
C1978 C1970 1.574 . S
C1978 H1973 0.949 . S
C1978 C1984 1.368 . S
C1979 C1963 1.349 . S
C1979 H1971 0.950 . S
C1979 C1977 1.327 . S
C1980 C1968 1.349 . S
C1980 H1974 0.950 . S
C1980 C1981 1.327 . S
C1981 H1975 0.950 . S
C1981 C1980 1.327 . S
C1981 C1985 1.429 . S
C1982 C1965 1.574 . S
C1982 H1976 0.949 . S
C1982 C1986 1.368 . S
C1983 C1964 1.429 . S
C1983 C1977 1.429 . S
C1983 C1984 1.523 . S
C1984 C1965 1.368 . S
C1984 C1978 1.368 . S
C1984 C1983 1.523 . S
C1985 C1969 1.429 . S
C1985 C1981 1.429 . S
C1985 C1986 1.523 . S
C1986 C1970 1.368 . S
C1986 C1982 1.368 . S
C1986 C1985 1.523 . S
H1987 C1962 0.950 . S
H1988 C1964 0.950 . S
H1989 C1965 0.949 . S
H1990 C1967 0.950 . S
H1991 C1969 0.950 . S
C1992 C1993 1.349 . S
C1992 C1994 1.327 . S
C1992 H2017 0.950 . S
C1993 C1992 1.349 . S
C1993 C2009 1.349 . S
C1994 C1992 1.327 . S
C1994 C2013 1.429 . S
C1994 H2018 0.950 . S
C1995 C2012 1.574 1_565 S
C1995 C2014 1.368 . S
C1995 H2019 0.949 . S
H1996 C2000 0.949 . S
C1997 C1998 1.349 . S
C1997 C1999 1.327 . S
C1997 H2020 0.950 . S
C1998 C1997 1.349 . S
C1998 C2010 1.349 . S
C1999 C1997 1.327 . S
C1999 C2015 1.429 . S
C1999 H2021 0.950 . S
C2000 H1996 0.949 . S
C2000 C2008 1.574 1_545 S
C2000 C2016 1.368 . S
H2001 C2009 0.950 . S
H2002 C2007 0.950 . S
H2003 C2008 0.949 . S
H2004 C2010 0.950 . S
H2005 C2011 0.950 . S
H2006 C2012 0.949 . S
C2007 H2002 0.950 . S
C2007 C2009 1.327 . S
C2007 C2013 1.429 . S
C2008 C2000 1.574 1_565 S
C2008 H2003 0.949 . S
C2008 C2014 1.368 . S
C2009 C1993 1.349 . S
C2009 H2001 0.950 . S
C2009 C2007 1.327 . S
C2010 C1998 1.349 . S
C2010 H2004 0.950 . S
C2010 C2011 1.327 . S
C2011 H2005 0.950 . S
C2011 C2010 1.327 . S
C2011 C2015 1.429 . S
C2012 C1995 1.574 1_545 S
C2012 H2006 0.949 . S
C2012 C2016 1.368 . S
C2013 C1994 1.429 . S
C2013 C2007 1.429 . S
C2013 C2014 1.523 . S
C2014 C1995 1.368 . S
C2014 C2008 1.368 . S
C2014 C2013 1.523 . S
C2015 C1999 1.429 . S
C2015 C2011 1.429 . S
C2015 C2016 1.523 . S
C2016 C2000 1.368 . S
C2016 C2012 1.368 . S
C2016 C2015 1.523 . S
H2017 C1992 0.950 . S
H2018 C1994 0.950 . S
H2019 C1995 0.949 . S
H2020 C1997 0.950 . S
H2021 C1999 0.950 . S
C2022 C2023 1.349 . S
C2022 C2024 1.327 . S
C2022 H2047 0.950 1_565 S
C2023 C2022 1.349 . S
C2023 C2039 1.349 . S
C2024 C2022 1.327 . S
C2024 C2043 1.429 . S
C2024 H2048 0.950 . S
C2025 C2042 1.574 . S
C2025 C2044 1.368 . S
C2025 H2049 0.949 . S
H2026 C2030 0.949 . S
C2027 C2028 1.349 . S
C2027 C2029 1.327 . S
C2027 H2050 0.950 . S
C2028 C2027 1.349 . S
C2028 C2040 1.349 . S
C2029 C2027 1.327 . S
C2029 C2045 1.429 . S
C2029 H2051 0.950 . S
C2030 H2026 0.949 . S
C2030 C2038 1.574 . S
C2030 C2046 1.368 . S
H2031 C2039 0.950 . S
H2032 C2037 0.950 . S
H2033 C2038 0.949 . S
H2034 C2040 0.950 . S
H2035 C2041 0.950 . S
H2036 C2042 0.949 . S
C2037 H2032 0.950 . S
C2037 C2039 1.327 . S
C2037 C2043 1.429 . S
C2038 C2030 1.574 . S
C2038 H2033 0.949 . S
C2038 C2044 1.368 . S
C2039 C2023 1.349 . S
C2039 H2031 0.950 . S
C2039 C2037 1.327 . S
C2040 C2028 1.349 . S
C2040 H2034 0.950 . S
C2040 C2041 1.327 . S
C2041 H2035 0.950 . S
C2041 C2040 1.327 . S
C2041 C2045 1.429 . S
C2042 C2025 1.574 . S
C2042 H2036 0.949 . S
C2042 C2046 1.368 . S
C2043 C2024 1.429 . S
C2043 C2037 1.429 . S
C2043 C2044 1.523 . S
C2044 C2025 1.368 . S
C2044 C2038 1.368 . S
C2044 C2043 1.523 . S
C2045 C2029 1.429 . S
C2045 C2041 1.429 . S
C2045 C2046 1.523 1_655 S
C2046 C2030 1.368 . S
C2046 C2042 1.368 . S
C2046 C2045 1.523 1_455 S
H2047 C2022 0.950 1_545 S
H2048 C2024 0.950 . S
H2049 C2025 0.949 . S
H2050 C2027 0.950 . S
H2051 C2029 0.950 . S
C2052 C2053 1.349 . S
C2052 C2054 1.327 1_545 S
C2052 H2077 0.950 1_545 S
C2053 C2052 1.349 . S
C2053 C2069 1.349 . S
C2054 C2052 1.327 1_565 S
C2054 C2073 1.427 1_565 S
C2054 H2078 0.952 . S
C2055 C2072 1.574 1_554 S
C2055 C2074 1.368 . S
C2055 H2079 0.949 . S
H2056 C2060 0.949 . S
C2057 C2058 1.349 . S
C2057 C2059 1.327 . S
C2057 H2080 0.950 . S
C2058 C2057 1.349 . S
C2058 C2070 1.349 1_545 S
C2059 C2057 1.327 . S
C2059 C2075 1.429 . S
C2059 H2081 0.950 . S
C2060 H2056 0.949 . S
C2060 C2068 1.574 1_556 S
C2060 C2076 1.368 1_565 S
H2061 C2069 0.950 . S
H2062 C2067 0.950 . S
H2063 C2068 0.949 . S
H2064 C2070 0.950 . S
H2065 C2071 0.950 . S
H2066 C2072 0.949 . S
C2067 H2062 0.950 . S
C2067 C2069 1.327 . S
C2067 C2073 1.429 . S
C2068 C2060 1.574 1_554 S
C2068 H2063 0.949 . S
C2068 C2074 1.368 1_565 S
C2069 C2053 1.349 . S
C2069 H2061 0.950 . S
C2069 C2067 1.327 . S
C2070 C2058 1.349 1_565 S
C2070 H2064 0.950 . S
C2070 C2071 1.327 . S
C2071 H2065 0.950 . S
C2071 C2070 1.327 . S
C2071 C2075 1.429 1_565 S
C2072 C2055 1.574 1_556 S
C2072 H2066 0.949 . S
C2072 C2076 1.368 . S
C2073 C2054 1.427 1_545 S
C2073 C2067 1.429 . S
C2073 C2074 1.523 . S
C2074 C2055 1.368 . S
C2074 C2068 1.368 1_545 S
C2074 C2073 1.523 . S
C2075 C2059 1.429 . S
C2075 C2071 1.429 1_545 S
C2075 C2076 1.523 . S
C2076 C2060 1.368 1_545 S
C2076 C2072 1.368 . S
C2076 C2075 1.523 . S
H2077 C2052 0.950 1_565 S
H2078 C2054 0.952 . S
H2079 C2055 0.949 . S
H2080 C2057 0.950 . S
H2081 C2059 0.950 . S
C2082 C2083 1.349 . S
C2082 C2084 1.327 . S
C2082 H2107 0.950 . S
C2083 C2082 1.349 . S
C2083 C2099 1.349 . S
C2084 C2082 1.327 . S
C2084 C2103 1.429 . S
C2084 H2108 0.950 . S
C2085 C2102 1.574 1_556 S
C2085 C2104 1.368 . S
C2085 H2109 0.949 . S
H2086 C2090 0.949 . S
C2087 C2088 1.349 . S
C2087 C2089 1.327 . S
C2087 H2110 0.950 . S
C2088 C2087 1.349 . S
C2088 C2100 1.349 . S
C2089 C2087 1.327 . S
C2089 C2105 1.429 . S
C2089 H2111 0.950 . S
C2090 H2086 0.949 . S
C2090 C2098 1.574 1_554 S
C2090 C2106 1.368 . S
H2091 C2099 0.950 . S
H2092 C2097 0.950 . S
H2093 C2098 0.949 . S
H2094 C2100 0.950 . S
H2095 C2101 0.950 . S
H2096 C2102 0.949 . S
C2097 H2092 0.950 . S
C2097 C2099 1.327 . S
C2097 C2103 1.429 . S
C2098 C2090 1.574 1_556 S
C2098 H2093 0.949 . S
C2098 C2104 1.368 . S
C2099 C2083 1.349 . S
C2099 H2091 0.950 . S
C2099 C2097 1.327 . S
C2100 C2088 1.349 . S
C2100 H2094 0.950 . S
C2100 C2101 1.327 . S
C2101 H2095 0.950 . S
C2101 C2100 1.327 . S
C2101 C2105 1.429 . S
C2102 C2085 1.574 1_554 S
C2102 H2096 0.949 . S
C2102 C2106 1.368 . S
C2103 C2084 1.429 . S
C2103 C2097 1.429 . S
C2103 C2104 1.523 . S
C2104 C2085 1.368 . S
C2104 C2098 1.368 . S
C2104 C2103 1.523 . S
C2105 C2089 1.429 . S
C2105 C2101 1.429 . S
C2105 C2106 1.523 . S
C2106 C2090 1.368 . S
C2106 C2102 1.368 . S
C2106 C2105 1.523 . S
H2107 C2082 0.950 . S
H2108 C2084 0.950 . S
H2109 C2085 0.949 . S
H2110 C2087 0.950 . S
H2111 C2089 0.950 . S
C2112 C2113 1.349 . S
C2112 C2114 1.327 . S
C2112 H2137 0.950 . S
C2113 C2112 1.349 . S
C2113 C2129 1.349 . S
C2114 C2112 1.327 . S
C2114 C2133 1.429 . S
C2114 H2138 0.950 . S
C2115 C2132 1.574 1_556 S
C2115 C2134 1.368 . S
C2115 H2139 0.949 . S
H2116 C2120 0.949 . S
C2117 C2118 1.349 . S
C2117 C2119 1.327 . S
C2117 H2140 0.950 . S
C2118 C2117 1.349 . S
C2118 C2130 1.349 . S
C2119 C2117 1.327 . S
C2119 C2135 1.429 . S
C2119 H2141 0.950 . S
C2120 H2116 0.949 . S
C2120 C2128 1.574 1_554 S
C2120 C2136 1.368 . S
H2121 C2129 0.950 . S
H2122 C2127 0.950 . S
H2123 C2128 0.949 . S
H2124 C2130 0.950 . S
H2125 C2131 0.950 . S
H2126 C2132 0.949 . S
C2127 H2122 0.950 . S
C2127 C2129 1.327 . S
C2127 C2133 1.429 . S
C2128 C2120 1.574 1_556 S
C2128 H2123 0.949 . S
C2128 C2134 1.368 . S
C2129 C2113 1.349 . S
C2129 H2121 0.950 . S
C2129 C2127 1.327 . S
C2130 C2118 1.349 . S
C2130 H2124 0.950 . S
C2130 C2131 1.327 . S
C2131 H2125 0.950 . S
C2131 C2130 1.327 . S
C2131 C2135 1.429 . S
C2132 C2115 1.574 1_554 S
C2132 H2126 0.949 . S
C2132 C2136 1.368 . S
C2133 C2114 1.429 . S
C2133 C2127 1.429 . S
C2133 C2134 1.523 . S
C2134 C2115 1.368 . S
C2134 C2128 1.368 . S
C2134 C2133 1.523 . S
C2135 C2119 1.429 . S
C2135 C2131 1.429 . S
C2135 C2136 1.523 . S
C2136 C2120 1.368 . S
C2136 C2132 1.368 . S
C2136 C2135 1.523 . S
H2137 C2112 0.950 . S
H2138 C2114 0.950 . S
H2139 C2115 0.949 . S
H2140 C2117 0.950 . S
H2141 C2119 0.950 . S
C2142 C2143 1.349 . S
C2142 C2144 1.327 . S
C2142 H2167 0.950 . S
C2143 C2142 1.349 . S
C2143 C2159 1.349 . S
C2144 C2142 1.327 . S
C2144 C2163 1.429 . S
C2144 H2168 0.950 . S
C2145 C2162 1.574 . S
C2145 C2164 1.368 . S
C2145 H2169 0.949 . S
H2146 C2150 0.949 . S
C2147 C2148 1.349 . S
C2147 C2149 1.327 . S
C2147 H2170 0.950 . S
C2148 C2147 1.349 . S
C2148 C2160 1.349 . S
C2149 C2147 1.327 . S
C2149 C2165 1.429 . S
C2149 H2171 0.950 . S
C2150 H2146 0.949 . S
C2150 C2158 1.574 . S
C2150 C2166 1.368 . S
H2151 C2159 0.950 . S
H2152 C2157 0.950 . S
H2153 C2158 0.949 . S
H2154 C2160 0.950 . S
H2155 C2161 0.950 . S
H2156 C2162 0.949 . S
C2157 H2152 0.950 . S
C2157 C2159 1.327 . S
C2157 C2163 1.429 . S
C2158 C2150 1.574 . S
C2158 H2153 0.949 . S
C2158 C2164 1.368 . S
C2159 C2143 1.349 . S
C2159 H2151 0.950 . S
C2159 C2157 1.327 . S
C2160 C2148 1.349 . S
C2160 H2154 0.950 . S
C2160 C2161 1.327 . S
C2161 H2155 0.950 . S
C2161 C2160 1.327 . S
C2161 C2165 1.429 . S
C2162 C2145 1.574 . S
C2162 H2156 0.949 . S
C2162 C2166 1.368 . S
C2163 C2144 1.429 . S
C2163 C2157 1.429 . S
C2163 C2164 1.523 . S
C2164 C2145 1.368 . S
C2164 C2158 1.368 . S
C2164 C2163 1.523 . S
C2165 C2149 1.429 . S
C2165 C2161 1.429 . S
C2165 C2166 1.523 . S
C2166 C2150 1.368 . S
C2166 C2162 1.368 . S
C2166 C2165 1.523 . S
H2167 C2142 0.950 . S
H2168 C2144 0.950 . S
H2169 C2145 0.949 . S
H2170 C2147 0.950 . S
H2171 C2149 0.950 . S
C2172 C2173 1.349 . S
C2172 C2174 1.327 . S
C2172 H2197 0.950 . S
C2173 C2172 1.349 . S
C2173 C2189 1.349 . S
C2174 C2172 1.327 . S
C2174 C2193 1.429 . S
C2174 H2198 0.950 . S
C2175 C2192 1.574 . S
C2175 C2194 1.368 . S
C2175 H2199 0.949 . S
H2176 C2180 0.949 . S
C2177 C2178 1.349 . S
C2177 C2179 1.327 . S
C2177 H2200 0.950 . S
C2178 C2177 1.349 . S
C2178 C2190 1.349 . S
C2179 C2177 1.327 . S
C2179 C2195 1.429 . S
C2179 H2201 0.950 . S
C2180 H2176 0.949 . S
C2180 C2188 1.574 . S
C2180 C2196 1.368 . S
H2181 C2189 0.950 . S
H2182 C2187 0.950 . S
H2183 C2188 0.949 . S
H2184 C2190 0.950 . S
H2185 C2191 0.950 . S
H2186 C2192 0.949 . S
C2187 H2182 0.950 . S
C2187 C2189 1.327 . S
C2187 C2193 1.429 . S
C2188 C2180 1.574 . S
C2188 H2183 0.949 . S
C2188 C2194 1.368 . S
C2189 C2173 1.349 . S
C2189 H2181 0.950 . S
C2189 C2187 1.327 . S
C2190 C2178 1.349 . S
C2190 H2184 0.950 . S
C2190 C2191 1.327 . S
C2191 H2185 0.950 . S
C2191 C2190 1.327 . S
C2191 C2195 1.429 . S
C2192 C2175 1.574 . S
C2192 H2186 0.949 . S
C2192 C2196 1.368 . S
C2193 C2174 1.429 . S
C2193 C2187 1.429 . S
C2193 C2194 1.523 . S
C2194 C2175 1.368 . S
C2194 C2188 1.368 . S
C2194 C2193 1.523 . S
C2195 C2179 1.429 . S
C2195 C2191 1.429 . S
C2195 C2196 1.523 . S
C2196 C2180 1.368 . S
C2196 C2192 1.368 . S
C2196 C2195 1.523 . S
H2197 C2172 0.950 . S
H2198 C2174 0.950 . S
H2199 C2175 0.949 . S
H2200 C2177 0.950 . S
H2201 C2179 0.950 . S
C2202 C2203 1.349 . S
C2202 C2204 1.327 . S
C2202 H2227 0.950 . S
C2203 C2202 1.349 . S
C2203 C2219 1.349 . S
C2204 C2202 1.327 . S
C2204 C2223 1.429 . S
C2204 H2228 0.950 . S
C2205 C2222 1.574 . S
C2205 C2224 1.368 . S
C2205 H2229 0.949 . S
H2206 C2210 0.949 . S
C2207 C2208 1.349 . S
C2207 C2209 1.327 . S
C2207 H2230 0.950 . S
C2208 C2207 1.349 . S
C2208 C2220 1.349 . S
C2209 C2207 1.327 . S
C2209 C2225 1.429 . S
C2209 H2231 0.950 . S
C2210 H2206 0.949 . S
C2210 C2218 1.574 . S
C2210 C2226 1.368 . S
H2211 C2219 0.950 . S
H2212 C2217 0.950 . S
H2213 C2218 0.949 . S
H2214 C2220 0.950 . S
H2215 C2221 0.950 . S
H2216 C2222 0.949 . S
C2217 H2212 0.950 . S
C2217 C2219 1.327 . S
C2217 C2223 1.429 . S
C2218 C2210 1.574 . S
C2218 H2213 0.949 . S
C2218 C2224 1.368 . S
C2219 C2203 1.349 . S
C2219 H2211 0.950 . S
C2219 C2217 1.327 . S
C2220 C2208 1.349 . S
C2220 H2214 0.950 . S
C2220 C2221 1.327 . S
C2221 H2215 0.950 . S
C2221 C2220 1.327 . S
C2221 C2225 1.429 . S
C2222 C2205 1.574 . S
C2222 H2216 0.949 . S
C2222 C2226 1.368 . S
C2223 C2204 1.429 . S
C2223 C2217 1.429 . S
C2223 C2224 1.523 . S
C2224 C2205 1.368 . S
C2224 C2218 1.368 . S
C2224 C2223 1.523 . S
C2225 C2209 1.429 . S
C2225 C2221 1.429 . S
C2225 C2226 1.523 . S
C2226 C2210 1.368 . S
C2226 C2222 1.368 . S
C2226 C2225 1.523 . S
H2227 C2202 0.950 . S
H2228 C2204 0.950 . S
H2229 C2205 0.949 . S
H2230 C2207 0.950 . S
H2231 C2209 0.950 . S
C2232 C2233 1.349 . S
C2232 C2234 1.327 . S
C2232 H2257 0.950 . S
C2233 C2232 1.349 . S
C2233 C2249 1.349 . S
C2234 C2232 1.327 . S
C2234 C2253 1.429 . S
C2234 H2258 0.950 . S
C2235 C2252 1.574 . S
C2235 C2254 1.368 . S
C2235 H2259 0.949 . S
H2236 C2240 0.949 . S
C2237 C2238 1.349 . S
C2237 C2239 1.327 . S
C2237 H2260 0.950 . S
C2238 C2237 1.349 . S
C2238 C2250 1.349 . S
C2239 C2237 1.327 . S
C2239 C2255 1.429 . S
C2239 H2261 0.950 . S
C2240 H2236 0.949 . S
C2240 C2248 1.574 . S
C2240 C2256 1.368 . S
H2241 C2249 0.950 . S
H2242 C2247 0.950 . S
H2243 C2248 0.949 . S
H2244 C2250 0.950 . S
H2245 C2251 0.950 . S
H2246 C2252 0.949 . S
C2247 H2242 0.950 . S
C2247 C2249 1.327 . S
C2247 C2253 1.429 . S
C2248 C2240 1.574 . S
C2248 H2243 0.949 . S
C2248 C2254 1.368 . S
C2249 C2233 1.349 . S
C2249 H2241 0.950 . S
C2249 C2247 1.327 . S
C2250 C2238 1.349 . S
C2250 H2244 0.950 . S
C2250 C2251 1.327 . S
C2251 H2245 0.950 . S
C2251 C2250 1.327 . S
C2251 C2255 1.429 . S
C2252 C2235 1.574 . S
C2252 H2246 0.949 . S
C2252 C2256 1.368 . S
C2253 C2234 1.429 . S
C2253 C2247 1.429 . S
C2253 C2254 1.523 . S
C2254 C2235 1.368 . S
C2254 C2248 1.368 . S
C2254 C2253 1.523 . S
C2255 C2239 1.429 . S
C2255 C2251 1.429 . S
C2255 C2256 1.523 . S
C2256 C2240 1.368 . S
C2256 C2252 1.368 . S
C2256 C2255 1.523 . S
H2257 C2232 0.950 . S
H2258 C2234 0.950 . S
H2259 C2235 0.949 . S
H2260 C2237 0.950 . S
H2261 C2239 0.950 . S
C2262 C2263 1.349 . S
C2262 C2264 1.327 . S
C2262 H2287 0.950 . S
C2263 C2262 1.349 . S
C2263 C2279 1.349 . S
C2264 C2262 1.327 . S
C2264 C2283 1.429 . S
C2264 H2288 0.950 . S
C2265 C2282 1.574 . S
C2265 C2284 1.368 . S
C2265 H2289 0.949 . S
H2266 C2270 0.949 . S
C2267 C2268 1.349 . S
C2267 C2269 1.327 . S
C2267 H2290 0.950 . S
C2268 C2267 1.349 . S
C2268 C2280 1.349 . S
C2269 C2267 1.327 . S
C2269 C2285 1.429 . S
C2269 H2291 0.950 . S
C2270 H2266 0.949 . S
C2270 C2278 1.574 . S
C2270 C2286 1.368 . S
H2271 C2279 0.950 . S
H2272 C2277 0.950 . S
H2273 C2278 0.949 . S
H2274 C2280 0.950 . S
H2275 C2281 0.950 . S
H2276 C2282 0.949 . S
C2277 H2272 0.950 . S
C2277 C2279 1.327 . S
C2277 C2283 1.429 . S
C2278 C2270 1.574 . S
C2278 H2273 0.949 . S
C2278 C2284 1.368 . S
C2279 C2263 1.349 . S
C2279 H2271 0.950 . S
C2279 C2277 1.327 . S
C2280 C2268 1.349 . S
C2280 H2274 0.950 . S
C2280 C2281 1.327 . S
C2281 H2275 0.950 . S
C2281 C2280 1.327 . S
C2281 C2285 1.429 . S
C2282 C2265 1.574 . S
C2282 H2276 0.949 . S
C2282 C2286 1.368 . S
C2283 C2264 1.429 . S
C2283 C2277 1.429 . S
C2283 C2284 1.523 . S
C2284 C2265 1.368 . S
C2284 C2278 1.368 . S
C2284 C2283 1.523 . S
C2285 C2269 1.429 . S
C2285 C2281 1.429 . S
C2285 C2286 1.523 . S
C2286 C2270 1.368 . S
C2286 C2282 1.368 . S
C2286 C2285 1.523 . S
H2287 C2262 0.950 . S
H2288 C2264 0.950 . S
H2289 C2265 0.949 . S
H2290 C2267 0.950 . S
H2291 C2269 0.950 . S
C2292 C2293 1.349 . S
C2292 C2294 1.327 . S
C2292 H2317 0.950 . S
C2293 C2292 1.349 . S
C2293 C2309 1.349 . S
C2294 C2292 1.327 . S
C2294 C2313 1.429 . S
C2294 H2318 0.950 . S
C2295 C2312 1.574 . S
C2295 C2314 1.368 . S
C2295 H2319 0.949 . S
H2296 C2300 0.949 . S
C2297 C2298 1.349 . S
C2297 C2299 1.327 . S
C2297 H2320 0.950 . S
C2298 C2297 1.349 . S
C2298 C2310 1.349 . S
C2299 C2297 1.327 . S
C2299 C2315 1.429 . S
C2299 H2321 0.950 . S
C2300 H2296 0.949 . S
C2300 C2308 1.574 . S
C2300 C2316 1.368 . S
H2301 C2309 0.950 . S
H2302 C2307 0.950 . S
H2303 C2308 0.949 . S
H2304 C2310 0.950 . S
H2305 C2311 0.950 . S
H2306 C2312 0.949 . S
C2307 H2302 0.950 . S
C2307 C2309 1.327 . S
C2307 C2313 1.429 . S
C2308 C2300 1.574 . S
C2308 H2303 0.949 . S
C2308 C2314 1.368 . S
C2309 C2293 1.349 . S
C2309 H2301 0.950 . S
C2309 C2307 1.327 . S
C2310 C2298 1.349 . S
C2310 H2304 0.950 . S
C2310 C2311 1.327 . S
C2311 H2305 0.950 . S
C2311 C2310 1.327 . S
C2311 C2315 1.429 . S
C2312 C2295 1.574 . S
C2312 H2306 0.949 . S
C2312 C2316 1.368 . S
C2313 C2294 1.429 . S
C2313 C2307 1.429 . S
C2313 C2314 1.523 . S
C2314 C2295 1.368 . S
C2314 C2308 1.368 . S
C2314 C2313 1.523 . S
C2315 C2299 1.429 . S
C2315 C2311 1.429 . S
C2315 C2316 1.523 . S
C2316 C2300 1.368 . S
C2316 C2312 1.368 . S
C2316 C2315 1.523 . S
H2317 C2292 0.950 . S
H2318 C2294 0.950 . S
H2319 C2295 0.949 . S
H2320 C2297 0.950 . S
H2321 C2299 0.950 . S
C2322 C2323 1.349 . S
C2322 C2324 1.327 . S
C2322 H2347 0.950 . S
C2323 C2322 1.349 . S
C2323 C2339 1.349 . S
C2324 C2322 1.327 . S
C2324 C2343 1.429 . S
C2324 H2348 0.950 . S
C2325 C2342 1.574 . S
C2325 C2344 1.368 . S
C2325 H2349 0.949 . S
H2326 C2330 0.949 . S
C2327 C2328 1.349 . S
C2327 C2329 1.327 . S
C2327 H2350 0.950 . S
C2328 C2327 1.349 . S
C2328 C2340 1.349 . S
C2329 C2327 1.327 . S
C2329 C2345 1.429 . S
C2329 H2351 0.950 . S
C2330 H2326 0.949 . S
C2330 C2338 1.574 . S
C2330 C2346 1.368 . S
H2331 C2339 0.950 . S
H2332 C2337 0.950 . S
H2333 C2338 0.949 . S
H2334 C2340 0.950 . S
H2335 C2341 0.950 . S
H2336 C2342 0.949 . S
C2337 H2332 0.950 . S
C2337 C2339 1.327 . S
C2337 C2343 1.429 . S
C2338 C2330 1.574 . S
C2338 H2333 0.949 . S
C2338 C2344 1.368 . S
C2339 C2323 1.349 . S
C2339 H2331 0.950 . S
C2339 C2337 1.327 . S
C2340 C2328 1.349 . S
C2340 H2334 0.950 . S
C2340 C2341 1.327 . S
C2341 H2335 0.950 . S
C2341 C2340 1.327 . S
C2341 C2345 1.429 . S
C2342 C2325 1.574 . S
C2342 H2336 0.949 . S
C2342 C2346 1.368 . S
C2343 C2324 1.429 . S
C2343 C2337 1.429 . S
C2343 C2344 1.523 . S
C2344 C2325 1.368 . S
C2344 C2338 1.368 . S
C2344 C2343 1.523 . S
C2345 C2329 1.429 . S
C2345 C2341 1.429 . S
C2345 C2346 1.523 . S
C2346 C2330 1.368 . S
C2346 C2342 1.368 . S
C2346 C2345 1.523 . S
H2347 C2322 0.950 . S
H2348 C2324 0.950 . S
H2349 C2325 0.949 . S
H2350 C2327 0.950 . S
H2351 C2329 0.950 . S
C2352 C2353 1.349 . S
C2352 C2354 1.327 . S
C2352 H2377 0.950 . S
C2353 C2352 1.349 . S
C2353 C2369 1.349 . S
C2354 C2352 1.327 . S
C2354 C2373 1.429 . S
C2354 H2378 0.950 . S
C2355 C2372 1.574 . S
C2355 C2374 1.368 . S
C2355 H2379 0.949 . S
H2356 C2360 0.949 . S
C2357 C2358 1.349 . S
C2357 C2359 1.327 . S
C2357 H2380 0.950 . S
C2358 C2357 1.349 . S
C2358 C2370 1.349 . S
C2359 C2357 1.327 . S
C2359 C2375 1.429 . S
C2359 H2381 0.950 . S
C2360 H2356 0.949 . S
C2360 C2368 1.574 . S
C2360 C2376 1.368 . S
H2361 C2369 0.950 . S
H2362 C2367 0.950 . S
H2363 C2368 0.949 . S
H2364 C2370 0.950 . S
H2365 C2371 0.950 . S
H2366 C2372 0.949 . S
C2367 H2362 0.950 . S
C2367 C2369 1.327 . S
C2367 C2373 1.429 . S
C2368 C2360 1.574 . S
C2368 H2363 0.949 . S
C2368 C2374 1.368 . S
C2369 C2353 1.349 . S
C2369 H2361 0.950 . S
C2369 C2367 1.327 . S
C2370 C2358 1.349 . S
C2370 H2364 0.950 . S
C2370 C2371 1.327 . S
C2371 H2365 0.950 . S
C2371 C2370 1.327 . S
C2371 C2375 1.429 . S
C2372 C2355 1.574 . S
C2372 H2366 0.949 . S
C2372 C2376 1.368 . S
C2373 C2354 1.429 . S
C2373 C2367 1.429 . S
C2373 C2374 1.523 . S
C2374 C2355 1.368 . S
C2374 C2368 1.368 . S
C2374 C2373 1.523 . S
C2375 C2359 1.429 . S
C2375 C2371 1.429 . S
C2375 C2376 1.523 . S
C2376 C2360 1.368 . S
C2376 C2372 1.368 . S
C2376 C2375 1.523 . S
H2377 C2352 0.950 . S
H2378 C2354 0.950 . S
H2379 C2355 0.949 . S
H2380 C2357 0.950 . S
H2381 C2359 0.950 . S
C2382 C2383 1.349 . S
C2382 C2384 1.327 . S
C2382 H2407 0.950 . S
C2383 C2382 1.349 . S
C2383 C2399 1.349 . S
C2384 C2382 1.327 . S
C2384 C2403 1.429 . S
C2384 H2408 0.950 . S
C2385 C2402 1.574 . S
C2385 C2404 1.368 . S
C2385 H2409 0.949 . S
H2386 C2390 0.949 . S
C2387 C2388 1.349 . S
C2387 C2389 1.327 . S
C2387 H2410 0.950 . S
C2388 C2387 1.349 . S
C2388 C2400 1.349 . S
C2389 C2387 1.327 . S
C2389 C2405 1.429 . S
C2389 H2411 0.950 . S
C2390 H2386 0.949 . S
C2390 C2398 1.574 . S
C2390 C2406 1.368 . S
H2391 C2399 0.950 . S
H2392 C2397 0.950 . S
H2393 C2398 0.949 . S
H2394 C2400 0.950 . S
H2395 C2401 0.950 . S
H2396 C2402 0.949 . S
C2397 H2392 0.950 . S
C2397 C2399 1.327 . S
C2397 C2403 1.429 . S
C2398 C2390 1.574 . S
C2398 H2393 0.949 . S
C2398 C2404 1.368 . S
C2399 C2383 1.349 . S
C2399 H2391 0.950 . S
C2399 C2397 1.327 . S
C2400 C2388 1.349 . S
C2400 H2394 0.950 . S
C2400 C2401 1.327 . S
C2401 H2395 0.950 . S
C2401 C2400 1.327 . S
C2401 C2405 1.429 . S
C2402 C2385 1.574 . S
C2402 H2396 0.949 . S
C2402 C2406 1.368 . S
C2403 C2384 1.429 . S
C2403 C2397 1.429 . S
C2403 C2404 1.523 . S
C2404 C2385 1.368 . S
C2404 C2398 1.368 . S
C2404 C2403 1.523 . S
C2405 C2389 1.429 . S
C2405 C2401 1.429 . S
C2405 C2406 1.523 . S
C2406 C2390 1.368 . S
C2406 C2402 1.368 . S
C2406 C2405 1.523 . S
H2407 C2382 0.950 . S
H2408 C2384 0.950 . S
H2409 C2385 0.949 . S
H2410 C2387 0.950 . S
H2411 C2389 0.950 . S
C2412 C2413 1.349 . S
C2412 C2414 1.327 . S
C2412 H2437 0.950 . S
C2413 C2412 1.349 . S
C2413 C2429 1.349 . S
C2414 C2412 1.327 . S
C2414 C2433 1.429 . S
C2414 H2438 0.950 . S
C2415 C2432 1.574 . S
C2415 C2434 1.368 . S
C2415 H2439 0.949 . S
H2416 C2420 0.949 . S
C2417 C2418 1.349 . S
C2417 C2419 1.327 . S
C2417 H2440 0.950 . S
C2418 C2417 1.349 . S
C2418 C2430 1.349 . S
C2419 C2417 1.327 . S
C2419 C2435 1.429 . S
C2419 H2441 0.950 . S
C2420 H2416 0.949 . S
C2420 C2428 1.574 . S
C2420 C2436 1.368 . S
H2421 C2429 0.950 1_455 S
H2422 C2427 0.950 . S
H2423 C2428 0.949 . S
H2424 C2430 0.950 . S
H2425 C2431 0.950 . S
H2426 C2432 0.949 . S
C2427 H2422 0.950 . S
C2427 C2429 1.327 . S
C2427 C2433 1.429 . S
C2428 C2420 1.574 . S
C2428 H2423 0.949 . S
C2428 C2434 1.368 . S
C2429 C2413 1.349 . S
C2429 H2421 0.950 1_655 S
C2429 C2427 1.327 . S
C2430 C2418 1.349 . S
C2430 H2424 0.950 . S
C2430 C2431 1.327 . S
C2431 H2425 0.950 . S
C2431 C2430 1.327 . S
C2431 C2435 1.429 . S
C2432 C2415 1.574 . S
C2432 H2426 0.949 . S
C2432 C2436 1.368 . S
C2433 C2414 1.429 . S
C2433 C2427 1.429 . S
C2433 C2434 1.523 . S
C2434 C2415 1.368 . S
C2434 C2428 1.368 . S
C2434 C2433 1.523 . S
C2435 C2419 1.429 . S
C2435 C2431 1.429 . S
C2435 C2436 1.523 . S
C2436 C2420 1.368 . S
C2436 C2432 1.368 . S
C2436 C2435 1.523 . S
H2437 C2412 0.950 . S
H2438 C2414 0.950 . S
H2439 C2415 0.949 . S
H2440 C2417 0.950 . S
H2441 C2419 0.950 . S
C2442 C2443 1.349 . S
C2442 C2444 1.327 . S
C2442 H2467 0.950 . S
C2443 C2442 1.349 . S
C2443 C2459 1.349 . S
C2444 C2442 1.327 . S
C2444 C2463 1.429 . S
C2444 H2468 0.950 . S
C2445 C2462 1.574 . S
C2445 C2464 1.368 . S
C2445 H2469 0.949 . S
H2446 C2450 0.949 . S
C2447 C2448 1.349 . S
C2447 C2449 1.327 . S
C2447 H2470 0.950 . S
C2448 C2447 1.349 . S
C2448 C2460 1.349 . S
C2449 C2447 1.327 . S
C2449 C2465 1.429 . S
C2449 H2471 0.950 . S
C2450 H2446 0.949 . S
C2450 C2458 1.574 . S
C2450 C2466 1.368 . S
H2451 C2459 0.950 . S
H2452 C2457 0.950 . S
H2453 C2458 0.949 . S
H2454 C2460 0.950 . S
H2455 C2461 0.950 . S
H2456 C2462 0.949 . S
C2457 H2452 0.950 . S
C2457 C2459 1.327 . S
C2457 C2463 1.429 . S
C2458 C2450 1.574 . S
C2458 H2453 0.949 . S
C2458 C2464 1.368 . S
C2459 C2443 1.349 . S
C2459 H2451 0.950 . S
C2459 C2457 1.327 . S
C2460 C2448 1.349 . S
C2460 H2454 0.950 . S
C2460 C2461 1.327 . S
C2461 H2455 0.950 . S
C2461 C2460 1.327 . S
C2461 C2465 1.429 . S
C2462 C2445 1.574 . S
C2462 H2456 0.949 . S
C2462 C2466 1.368 . S
C2463 C2444 1.429 . S
C2463 C2457 1.429 . S
C2463 C2464 1.523 . S
C2464 C2445 1.368 . S
C2464 C2458 1.368 . S
C2464 C2463 1.523 . S
C2465 C2449 1.429 . S
C2465 C2461 1.429 . S
C2465 C2466 1.523 . S
C2466 C2450 1.368 . S
C2466 C2462 1.368 . S
C2466 C2465 1.523 . S
H2467 C2442 0.950 . S
H2468 C2444 0.950 . S
H2469 C2445 0.949 . S
H2470 C2447 0.950 . S
H2471 C2449 0.950 . S
C2472 C2473 1.349 . S
C2472 C2474 1.327 . S
C2472 H2497 0.950 . S
C2473 C2472 1.349 . S
C2473 C2489 1.349 . S
C2474 C2472 1.327 . S
C2474 C2493 1.429 . S
C2474 H2498 0.950 . S
C2475 C2492 1.574 . S
C2475 C2494 1.368 . S
C2475 H2499 0.949 . S
H2476 C2480 0.949 . S
C2477 C2478 1.349 . S
C2477 C2479 1.327 . S
C2477 H2500 0.950 . S
C2478 C2477 1.349 . S
C2478 C2490 1.349 . S
C2479 C2477 1.327 . S
C2479 C2495 1.429 . S
C2479 H2501 0.950 . S
C2480 H2476 0.949 . S
C2480 C2488 1.574 . S
C2480 C2496 1.368 . S
H2481 C2489 0.950 . S
H2482 C2487 0.950 . S
H2483 C2488 0.949 . S
H2484 C2490 0.950 . S
H2485 C2491 0.950 . S
H2486 C2492 0.949 . S
C2487 H2482 0.950 . S
C2487 C2489 1.327 . S
C2487 C2493 1.429 . S
C2488 C2480 1.574 . S
C2488 H2483 0.949 . S
C2488 C2494 1.368 . S
C2489 C2473 1.349 . S
C2489 H2481 0.950 . S
C2489 C2487 1.327 . S
C2490 C2478 1.349 . S
C2490 H2484 0.950 . S
C2490 C2491 1.327 . S
C2491 H2485 0.950 . S
C2491 C2490 1.327 . S
C2491 C2495 1.429 . S
C2492 C2475 1.574 . S
C2492 H2486 0.949 . S
C2492 C2496 1.368 . S
C2493 C2474 1.429 . S
C2493 C2487 1.429 . S
C2493 C2494 1.523 . S
C2494 C2475 1.368 . S
C2494 C2488 1.368 . S
C2494 C2493 1.523 . S
C2495 C2479 1.429 . S
C2495 C2491 1.429 . S
C2495 C2496 1.523 . S
C2496 C2480 1.368 . S
C2496 C2492 1.368 . S
C2496 C2495 1.523 . S
H2497 C2472 0.950 . S
H2498 C2474 0.950 . S
H2499 C2475 0.949 . S
H2500 C2477 0.950 . S
H2501 C2479 0.950 . S
C2502 C2503 1.349 . S
C2502 C2504 1.327 . S
C2502 H2527 0.950 . S
C2503 C2502 1.349 . S
C2503 C2519 1.349 . S
C2504 C2502 1.327 . S
C2504 C2523 1.429 . S
C2504 H2528 0.950 . S
C2505 C2522 1.574 . S
C2505 C2524 1.368 1_455 S
C2505 H2529 0.949 . S
H2506 C2510 0.949 . S
C2507 C2508 1.349 . S
C2507 C2509 1.327 . S
C2507 H2530 0.950 . S
C2508 C2507 1.349 . S
C2508 C2520 1.349 . S
C2509 C2507 1.327 . S
C2509 C2525 1.429 . S
C2509 H2531 0.950 . S
C2510 H2506 0.949 . S
C2510 C2518 1.574 1_455 S
C2510 C2526 1.368 . S
H2511 C2519 0.950 . S
H2512 C2517 0.950 . S
H2513 C2518 0.949 . S
H2514 C2520 0.950 . S
H2515 C2521 0.950 . S
H2516 C2522 0.949 . S
C2517 H2512 0.950 . S
C2517 C2519 1.327 . S
C2517 C2523 1.429 . S
C2518 C2510 1.574 1_655 S
C2518 H2513 0.949 . S
C2518 C2524 1.368 . S
C2519 C2503 1.349 . S
C2519 H2511 0.950 . S
C2519 C2517 1.327 . S
C2520 C2508 1.349 . S
C2520 H2514 0.950 . S
C2520 C2521 1.327 . S
C2521 H2515 0.950 . S
C2521 C2520 1.327 . S
C2521 C2525 1.429 . S
C2522 C2505 1.574 . S
C2522 H2516 0.949 . S
C2522 C2526 1.368 . S
C2523 C2504 1.429 . S
C2523 C2517 1.429 . S
C2523 C2524 1.523 . S
C2524 C2505 1.368 1_655 S
C2524 C2518 1.368 . S
C2524 C2523 1.523 . S
C2525 C2509 1.429 . S
C2525 C2521 1.429 . S
C2525 C2526 1.523 . S
C2526 C2510 1.368 . S
C2526 C2522 1.368 . S
C2526 C2525 1.523 . S
H2527 C2502 0.950 . S
H2528 C2504 0.950 . S
H2529 C2505 0.949 . S
H2530 C2507 0.950 . S
H2531 C2509 0.950 . S
C2532 C2533 1.349 . S
C2532 C2534 1.327 . S
C2532 H2557 0.950 . S
C2533 C2532 1.349 . S
C2533 C2549 1.349 . S
C2534 C2532 1.327 . S
C2534 C2553 1.429 . S
C2534 H2558 0.950 . S
C2535 C2552 1.574 . S
C2535 C2554 1.368 . S
C2535 H2559 0.949 . S
H2536 C2540 0.949 . S
C2537 C2538 1.349 . S
C2537 C2539 1.327 . S
C2537 H2560 0.950 . S
C2538 C2537 1.349 . S
C2538 C2550 1.349 . S
C2539 C2537 1.327 . S
C2539 C2555 1.429 . S
C2539 H2561 0.950 . S
C2540 H2536 0.949 . S
C2540 C2548 1.574 . S
C2540 C2556 1.368 . S
H2541 C2549 0.950 . S
H2542 C2547 0.950 . S
H2543 C2548 0.949 . S
H2544 C2550 0.950 . S
H2545 C2551 0.950 . S
H2546 C2552 0.949 . S
C2547 H2542 0.950 . S
C2547 C2549 1.327 . S
C2547 C2553 1.429 . S
C2548 C2540 1.574 . S
C2548 H2543 0.949 . S
C2548 C2554 1.368 . S
C2549 C2533 1.349 . S
C2549 H2541 0.950 . S
C2549 C2547 1.327 . S
C2550 C2538 1.349 . S
C2550 H2544 0.950 . S
C2550 C2551 1.327 . S
C2551 H2545 0.950 . S
C2551 C2550 1.327 . S
C2551 C2555 1.429 . S
C2552 C2535 1.574 . S
C2552 H2546 0.949 . S
C2552 C2556 1.368 . S
C2553 C2534 1.429 . S
C2553 C2547 1.429 . S
C2553 C2554 1.523 . S
C2554 C2535 1.368 . S
C2554 C2548 1.368 . S
C2554 C2553 1.523 . S
C2555 C2539 1.429 . S
C2555 C2551 1.429 . S
C2555 C2556 1.523 . S
C2556 C2540 1.368 . S
C2556 C2552 1.368 . S
C2556 C2555 1.523 . S
H2557 C2532 0.950 . S
H2558 C2534 0.950 . S
H2559 C2535 0.949 . S
H2560 C2537 0.950 . S
H2561 C2539 0.950 . S
C2562 C2563 1.349 . S
C2562 C2564 1.327 . S
C2562 H2587 0.950 . S
C2563 C2562 1.349 . S
C2563 C2579 1.349 . S
C2564 C2562 1.327 . S
C2564 C2583 1.429 . S
C2564 H2588 0.950 . S
C2565 C2582 1.574 . S
C2565 C2584 1.368 1_545 S
C2565 H2589 0.949 . S
H2566 C2570 0.949 . S
C2567 C2568 1.349 . S
C2567 C2569 1.327 . S
C2567 H2590 0.950 . S
C2568 C2567 1.349 . S
C2568 C2580 1.349 . S
C2569 C2567 1.327 . S
C2569 C2585 1.429 . S
C2569 H2591 0.950 . S
C2570 H2566 0.949 . S
C2570 C2578 1.574 1_545 S
C2570 C2586 1.368 . S
H2571 C2579 0.950 . S
H2572 C2577 0.950 . S
H2573 C2578 0.949 . S
H2574 C2580 0.950 . S
H2575 C2581 0.950 . S
H2576 C2582 0.949 . S
C2577 H2572 0.950 . S
C2577 C2579 1.327 . S
C2577 C2583 1.429 . S
C2578 C2570 1.574 1_565 S
C2578 H2573 0.949 . S
C2578 C2584 1.368 . S
C2579 C2563 1.349 . S
C2579 H2571 0.950 . S
C2579 C2577 1.327 . S
C2580 C2568 1.349 . S
C2580 H2574 0.950 . S
C2580 C2581 1.327 . S
C2581 H2575 0.950 . S
C2581 C2580 1.327 . S
C2581 C2585 1.429 . S
C2582 C2565 1.574 . S
C2582 H2576 0.949 . S
C2582 C2586 1.368 . S
C2583 C2564 1.429 . S
C2583 C2577 1.429 . S
C2583 C2584 1.523 . S
C2584 C2565 1.368 1_565 S
C2584 C2578 1.368 . S
C2584 C2583 1.523 . S
C2585 C2569 1.429 . S
C2585 C2581 1.429 . S
C2585 C2586 1.523 . S
C2586 C2570 1.368 . S
C2586 C2582 1.368 . S
C2586 C2585 1.523 . S
H2587 C2562 0.950 . S
H2588 C2564 0.950 . S
H2589 C2565 0.949 . S
H2590 C2567 0.950 . S
H2591 C2569 0.950 . S
C2592 C2593 1.349 . S
C2592 C2594 1.327 . S
C2592 H2617 0.950 . S
C2593 C2592 1.349 . S
C2593 C2609 1.349 . S
C2594 C2592 1.327 . S
C2594 C2613 1.429 . S
C2594 H2618 0.950 . S
C2595 C2612 1.574 . S
C2595 C2614 1.368 . S
C2595 H2619 0.949 . S
H2596 C2600 0.949 . S
C2597 C2598 1.349 . S
C2597 C2599 1.327 . S
C2597 H2620 0.950 . S
C2598 C2597 1.349 . S
C2598 C2610 1.349 . S
C2599 C2597 1.327 . S
C2599 C2615 1.429 . S
C2599 H2621 0.950 . S
C2600 H2596 0.949 . S
C2600 C2608 1.574 . S
C2600 C2616 1.368 . S
H2601 C2609 0.950 . S
H2602 C2607 0.950 . S
H2603 C2608 0.949 . S
H2604 C2610 0.950 . S
H2605 C2611 0.950 . S
H2606 C2612 0.949 . S
C2607 H2602 0.950 . S
C2607 C2609 1.327 . S
C2607 C2613 1.429 . S
C2608 C2600 1.574 . S
C2608 H2603 0.949 . S
C2608 C2614 1.368 . S
C2609 C2593 1.349 . S
C2609 H2601 0.950 . S
C2609 C2607 1.327 . S
C2610 C2598 1.349 . S
C2610 H2604 0.950 . S
C2610 C2611 1.327 . S
C2611 H2605 0.950 . S
C2611 C2610 1.327 . S
C2611 C2615 1.429 . S
C2612 C2595 1.574 . S
C2612 H2606 0.949 . S
C2612 C2616 1.368 . S
C2613 C2594 1.429 . S
C2613 C2607 1.429 . S
C2613 C2614 1.523 . S
C2614 C2595 1.368 . S
C2614 C2608 1.368 . S
C2614 C2613 1.523 . S
C2615 C2599 1.429 . S
C2615 C2611 1.429 . S
C2615 C2616 1.523 . S
C2616 C2600 1.368 . S
C2616 C2612 1.368 . S
C2616 C2615 1.523 . S
H2617 C2592 0.950 . S
H2618 C2594 0.950 . S
H2619 C2595 0.949 . S
H2620 C2597 0.950 . S
H2621 C2599 0.950 . S
C2622 C2623 1.349 . S
C2622 C2624 1.327 . S
C2622 H2647 0.950 . S
C2623 C2622 1.349 . S
C2623 C2639 1.349 . S
C2624 C2622 1.327 . S
C2624 C2643 1.429 . S
C2624 H2648 0.950 . S
C2625 C2642 1.574 . S
C2625 C2644 1.368 . S
C2625 H2649 0.949 . S
H2626 C2630 0.949 . S
C2627 C2628 1.349 . S
C2627 C2629 1.327 . S
C2627 H2650 0.950 . S
C2628 C2627 1.349 . S
C2628 C2640 1.349 . S
C2629 C2627 1.327 . S
C2629 C2645 1.429 . S
C2629 H2651 0.950 . S
C2630 H2626 0.949 . S
C2630 C2638 1.574 . S
C2630 C2646 1.368 . S
H2631 C2639 0.950 . S
H2632 C2637 0.950 . S
H2633 C2638 0.949 . S
H2634 C2640 0.950 . S
H2635 C2641 0.950 . S
H2636 C2642 0.949 . S
C2637 H2632 0.950 . S
C2637 C2639 1.327 . S
C2637 C2643 1.429 . S
C2638 C2630 1.574 . S
C2638 H2633 0.949 . S
C2638 C2644 1.368 . S
C2639 C2623 1.349 . S
C2639 H2631 0.950 . S
C2639 C2637 1.327 . S
C2640 C2628 1.349 . S
C2640 H2634 0.950 . S
C2640 C2641 1.327 . S
C2641 H2635 0.950 . S
C2641 C2640 1.327 . S
C2641 C2645 1.429 . S
C2642 C2625 1.574 . S
C2642 H2636 0.949 . S
C2642 C2646 1.368 . S
C2643 C2624 1.429 . S
C2643 C2637 1.429 . S
C2643 C2644 1.523 . S
C2644 C2625 1.368 . S
C2644 C2638 1.368 . S
C2644 C2643 1.523 . S
C2645 C2629 1.429 . S
C2645 C2641 1.429 . S
C2645 C2646 1.523 . S
C2646 C2630 1.368 . S
C2646 C2642 1.368 . S
C2646 C2645 1.523 . S
H2647 C2622 0.950 . S
H2648 C2624 0.950 . S
H2649 C2625 0.949 . S
H2650 C2627 0.950 . S
H2651 C2629 0.950 . S
C2652 C2653 1.349 . S
C2652 C2654 1.327 . S
C2652 H2677 0.950 . S
C2653 C2652 1.349 . S
C2653 C2669 1.349 . S
C2654 C2652 1.327 . S
C2654 C2673 1.429 . S
C2654 H2678 0.950 . S
C2655 C2672 1.574 . S
C2655 C2674 1.368 . S
C2655 H2679 0.949 . S
H2656 C2660 0.949 . S
C2657 C2658 1.349 . S
C2657 C2659 1.327 . S
C2657 H2680 0.950 . S
C2658 C2657 1.349 . S
C2658 C2670 1.349 . S
C2659 C2657 1.327 . S
C2659 C2675 1.429 . S
C2659 H2681 0.950 . S
C2660 H2656 0.949 . S
C2660 C2668 1.574 . S
C2660 C2676 1.368 . S
H2661 C2669 0.950 . S
H2662 C2667 0.950 . S
H2663 C2668 0.949 . S
H2664 C2670 0.950 . S
H2665 C2671 0.950 . S
H2666 C2672 0.949 . S
C2667 H2662 0.950 . S
C2667 C2669 1.327 . S
C2667 C2673 1.429 . S
C2668 C2660 1.574 . S
C2668 H2663 0.949 . S
C2668 C2674 1.368 . S
C2669 C2653 1.349 . S
C2669 H2661 0.950 . S
C2669 C2667 1.327 . S
C2670 C2658 1.349 . S
C2670 H2664 0.950 . S
C2670 C2671 1.327 . S
C2671 H2665 0.950 . S
C2671 C2670 1.327 . S
C2671 C2675 1.429 . S
C2672 C2655 1.574 . S
C2672 H2666 0.949 . S
C2672 C2676 1.368 . S
C2673 C2654 1.429 . S
C2673 C2667 1.429 . S
C2673 C2674 1.523 . S
C2674 C2655 1.368 . S
C2674 C2668 1.368 . S
C2674 C2673 1.523 . S
C2675 C2659 1.429 . S
C2675 C2671 1.429 . S
C2675 C2676 1.523 . S
C2676 C2660 1.368 . S
C2676 C2672 1.368 . S
C2676 C2675 1.523 . S
H2677 C2652 0.950 . S
H2678 C2654 0.950 . S
H2679 C2655 0.949 . S
H2680 C2657 0.950 . S
H2681 C2659 0.950 . S
C2682 C2683 1.349 . S
C2682 C2684 1.327 . S
C2682 H2707 0.950 . S
C2683 C2682 1.349 . S
C2683 C2699 1.349 . S
C2684 C2682 1.327 . S
C2684 C2703 1.429 . S
C2684 H2708 0.950 . S
C2685 C2702 1.574 . S
C2685 C2704 1.368 . S
C2685 H2709 0.949 . S
H2686 C2690 0.949 . S
C2687 C2688 1.349 . S
C2687 C2689 1.327 . S
C2687 H2710 0.950 . S
C2688 C2687 1.349 . S
C2688 C2700 1.349 . S
C2689 C2687 1.327 . S
C2689 C2705 1.429 . S
C2689 H2711 0.950 . S
C2690 H2686 0.949 . S
C2690 C2698 1.574 . S
C2690 C2706 1.368 . S
H2691 C2699 0.950 . S
H2692 C2697 0.950 . S
H2693 C2698 0.949 . S
H2694 C2700 0.950 . S
H2695 C2701 0.950 . S
H2696 C2702 0.949 . S
C2697 H2692 0.950 . S
C2697 C2699 1.327 . S
C2697 C2703 1.429 . S
C2698 C2690 1.574 . S
C2698 H2693 0.949 . S
C2698 C2704 1.368 . S
C2699 C2683 1.349 . S
C2699 H2691 0.950 . S
C2699 C2697 1.327 . S
C2700 C2688 1.349 . S
C2700 H2694 0.950 . S
C2700 C2701 1.327 . S
C2701 H2695 0.950 . S
C2701 C2700 1.327 . S
C2701 C2705 1.429 . S
C2702 C2685 1.574 . S
C2702 H2696 0.949 . S
C2702 C2706 1.368 . S
C2703 C2684 1.429 . S
C2703 C2697 1.429 . S
C2703 C2704 1.523 . S
C2704 C2685 1.368 . S
C2704 C2698 1.368 . S
C2704 C2703 1.523 . S
C2705 C2689 1.429 . S
C2705 C2701 1.429 . S
C2705 C2706 1.523 . S
C2706 C2690 1.368 . S
C2706 C2702 1.368 . S
C2706 C2705 1.523 . S
H2707 C2682 0.950 . S
H2708 C2684 0.950 . S
H2709 C2685 0.949 . S
H2710 C2687 0.950 . S
H2711 C2689 0.950 . S
C2712 C2713 1.349 . S
C2712 C2714 1.327 . S
C2712 H2737 0.950 . S
C2713 C2712 1.349 . S
C2713 C2729 1.349 . S
C2714 C2712 1.327 . S
C2714 C2733 1.429 . S
C2714 H2738 0.950 . S
C2715 C2732 1.574 . S
C2715 C2734 1.368 . S
C2715 H2739 0.949 . S
H2716 C2720 0.949 . S
C2717 C2718 1.349 . S
C2717 C2719 1.327 . S
C2717 H2740 0.950 . S
C2718 C2717 1.349 . S
C2718 C2730 1.349 . S
C2719 C2717 1.327 . S
C2719 C2735 1.429 . S
C2719 H2741 0.950 . S
C2720 H2716 0.949 . S
C2720 C2728 1.574 . S
C2720 C2736 1.368 . S
H2721 C2729 0.950 . S
H2722 C2727 0.950 . S
H2723 C2728 0.949 . S
H2724 C2730 0.950 . S
H2725 C2731 0.950 . S
H2726 C2732 0.949 . S
C2727 H2722 0.950 . S
C2727 C2729 1.327 . S
C2727 C2733 1.429 . S
C2728 C2720 1.574 . S
C2728 H2723 0.949 . S
C2728 C2734 1.368 . S
C2729 C2713 1.349 . S
C2729 H2721 0.950 . S
C2729 C2727 1.327 . S
C2730 C2718 1.349 . S
C2730 H2724 0.950 . S
C2730 C2731 1.327 . S
C2731 H2725 0.950 . S
C2731 C2730 1.327 . S
C2731 C2735 1.429 . S
C2732 C2715 1.574 . S
C2732 H2726 0.949 . S
C2732 C2736 1.368 . S
C2733 C2714 1.429 . S
C2733 C2727 1.429 . S
C2733 C2734 1.523 . S
C2734 C2715 1.368 . S
C2734 C2728 1.368 . S
C2734 C2733 1.523 . S
C2735 C2719 1.429 . S
C2735 C2731 1.429 . S
C2735 C2736 1.523 . S
C2736 C2720 1.368 . S
C2736 C2732 1.368 . S
C2736 C2735 1.523 . S
H2737 C2712 0.950 . S
H2738 C2714 0.950 . S
H2739 C2715 0.949 . S
H2740 C2717 0.950 . S
H2741 C2719 0.950 . S
C2742 C2743 1.349 . S
C2742 C2744 1.327 . S
C2742 H2767 0.950 . S
C2743 C2742 1.349 . S
C2743 C2759 1.349 . S
C2744 C2742 1.327 . S
C2744 C2763 1.429 . S
C2744 H2768 0.950 . S
C2745 C2762 1.574 . S
C2745 C2764 1.368 . S
C2745 H2769 0.949 . S
H2746 C2750 0.949 . S
C2747 C2748 1.349 . S
C2747 C2749 1.327 . S
C2747 H2770 0.950 . S
C2748 C2747 1.349 . S
C2748 C2760 1.349 . S
C2749 C2747 1.327 . S
C2749 C2765 1.429 . S
C2749 H2771 0.950 . S
C2750 H2746 0.949 . S
C2750 C2758 1.574 . S
C2750 C2766 1.368 . S
H2751 C2759 0.950 . S
H2752 C2757 0.950 . S
H2753 C2758 0.949 . S
H2754 C2760 0.950 . S
H2755 C2761 0.950 . S
H2756 C2762 0.949 . S
C2757 H2752 0.950 . S
C2757 C2759 1.327 . S
C2757 C2763 1.429 . S
C2758 C2750 1.574 . S
C2758 H2753 0.949 . S
C2758 C2764 1.368 . S
C2759 C2743 1.349 . S
C2759 H2751 0.950 . S
C2759 C2757 1.327 . S
C2760 C2748 1.349 . S
C2760 H2754 0.950 . S
C2760 C2761 1.327 . S
C2761 H2755 0.950 . S
C2761 C2760 1.327 . S
C2761 C2765 1.429 . S
C2762 C2745 1.574 . S
C2762 H2756 0.949 . S
C2762 C2766 1.368 . S
C2763 C2744 1.429 . S
C2763 C2757 1.429 . S
C2763 C2764 1.523 . S
C2764 C2745 1.368 . S
C2764 C2758 1.368 . S
C2764 C2763 1.523 . S
C2765 C2749 1.429 . S
C2765 C2761 1.429 . S
C2765 C2766 1.523 . S
C2766 C2750 1.368 . S
C2766 C2762 1.368 . S
C2766 C2765 1.523 . S
H2767 C2742 0.950 . S
H2768 C2744 0.950 . S
H2769 C2745 0.949 . S
H2770 C2747 0.950 . S
H2771 C2749 0.950 . S
C2772 C2773 1.349 . S
C2772 C2774 1.327 . S
C2772 H2797 0.950 . S
C2773 C2772 1.349 . S
C2773 C2789 1.349 . S
C2774 C2772 1.327 . S
C2774 C2793 1.429 . S
C2774 H2798 0.950 . S
C2775 C2792 1.574 . S
C2775 C2794 1.368 . S
C2775 H2799 0.949 . S
H2776 C2780 0.949 . S
C2777 C2778 1.349 . S
C2777 C2779 1.327 . S
C2777 H2800 0.950 . S
C2778 C2777 1.349 . S
C2778 C2790 1.349 . S
C2779 C2777 1.327 . S
C2779 C2795 1.429 . S
C2779 H2801 0.950 . S
C2780 H2776 0.949 . S
C2780 C2788 1.574 . S
C2780 C2796 1.368 . S
H2781 C2789 0.950 . S
H2782 C2787 0.950 . S
H2783 C2788 0.949 . S
H2784 C2790 0.950 . S
H2785 C2791 0.950 . S
H2786 C2792 0.949 . S
C2787 H2782 0.950 . S
C2787 C2789 1.327 . S
C2787 C2793 1.429 . S
C2788 C2780 1.574 . S
C2788 H2783 0.949 . S
C2788 C2794 1.368 . S
C2789 C2773 1.349 . S
C2789 H2781 0.950 . S
C2789 C2787 1.327 . S
C2790 C2778 1.349 . S
C2790 H2784 0.950 . S
C2790 C2791 1.327 . S
C2791 H2785 0.950 . S
C2791 C2790 1.327 . S
C2791 C2795 1.429 . S
C2792 C2775 1.574 . S
C2792 H2786 0.949 . S
C2792 C2796 1.368 . S
C2793 C2774 1.429 . S
C2793 C2787 1.429 . S
C2793 C2794 1.523 . S
C2794 C2775 1.368 . S
C2794 C2788 1.368 . S
C2794 C2793 1.523 . S
C2795 C2779 1.429 . S
C2795 C2791 1.429 . S
C2795 C2796 1.523 . S
C2796 C2780 1.368 . S
C2796 C2792 1.368 . S
C2796 C2795 1.523 . S
H2797 C2772 0.950 . S
H2798 C2774 0.950 . S
H2799 C2775 0.949 . S
H2800 C2777 0.950 . S
H2801 C2779 0.950 . S
C2802 C2803 1.349 . S
C2802 C2804 1.327 . S
C2802 H2827 0.950 . S
C2803 C2802 1.349 . S
C2803 C2819 1.349 . S
C2804 C2802 1.327 . S
C2804 C2823 1.429 . S
C2804 H2828 0.950 . S
C2805 C2822 1.574 . S
C2805 C2824 1.368 . S
C2805 H2829 0.949 . S
H2806 C2810 0.949 . S
C2807 C2808 1.349 . S
C2807 C2809 1.327 . S
C2807 H2830 0.950 . S
C2808 C2807 1.349 . S
C2808 C2820 1.349 . S
C2809 C2807 1.327 . S
C2809 C2825 1.429 . S
C2809 H2831 0.950 . S
C2810 H2806 0.949 . S
C2810 C2818 1.574 . S
C2810 C2826 1.368 . S
H2811 C2819 0.950 . S
H2812 C2817 0.950 . S
H2813 C2818 0.949 . S
H2814 C2820 0.950 . S
H2815 C2821 0.950 . S
H2816 C2822 0.949 . S
C2817 H2812 0.950 . S
C2817 C2819 1.327 . S
C2817 C2823 1.429 . S
C2818 C2810 1.574 . S
C2818 H2813 0.949 . S
C2818 C2824 1.368 . S
C2819 C2803 1.349 . S
C2819 H2811 0.950 . S
C2819 C2817 1.327 . S
C2820 C2808 1.349 . S
C2820 H2814 0.950 . S
C2820 C2821 1.327 . S
C2821 H2815 0.950 . S
C2821 C2820 1.327 . S
C2821 C2825 1.429 . S
C2822 C2805 1.574 . S
C2822 H2816 0.949 . S
C2822 C2826 1.368 . S
C2823 C2804 1.429 . S
C2823 C2817 1.429 . S
C2823 C2824 1.523 . S
C2824 C2805 1.368 . S
C2824 C2818 1.368 . S
C2824 C2823 1.523 . S
C2825 C2809 1.429 . S
C2825 C2821 1.429 . S
C2825 C2826 1.523 . S
C2826 C2810 1.368 . S
C2826 C2822 1.368 . S
C2826 C2825 1.523 . S
H2827 C2802 0.950 . S
H2828 C2804 0.950 . S
H2829 C2805 0.949 . S
H2830 C2807 0.950 . S
H2831 C2809 0.950 . S
C2832 C2833 1.349 . S
C2832 C2834 1.327 . S
C2832 H2857 0.950 . S
C2833 C2832 1.349 . S
C2833 C2849 1.349 . S
C2834 C2832 1.327 . S
C2834 C2853 1.429 . S
C2834 H2858 0.950 . S
C2835 C2852 1.574 . S
C2835 C2854 1.368 . S
C2835 H2859 0.949 . S
H2836 C2840 0.949 . S
C2837 C2838 1.349 . S
C2837 C2839 1.327 . S
C2837 H2860 0.950 . S
C2838 C2837 1.349 . S
C2838 C2850 1.349 . S
C2839 C2837 1.327 . S
C2839 C2855 1.429 . S
C2839 H2861 0.950 . S
C2840 H2836 0.949 . S
C2840 C2848 1.574 . S
C2840 C2856 1.368 . S
H2841 C2849 0.950 . S
H2842 C2847 0.950 . S
H2843 C2848 0.949 . S
H2844 C2850 0.950 . S
H2845 C2851 0.950 . S
H2846 C2852 0.949 . S
C2847 H2842 0.950 . S
C2847 C2849 1.327 . S
C2847 C2853 1.429 . S
C2848 C2840 1.574 . S
C2848 H2843 0.949 . S
C2848 C2854 1.368 . S
C2849 C2833 1.349 . S
C2849 H2841 0.950 . S
C2849 C2847 1.327 . S
C2850 C2838 1.349 . S
C2850 H2844 0.950 . S
C2850 C2851 1.327 . S
C2851 H2845 0.950 . S
C2851 C2850 1.327 . S
C2851 C2855 1.429 . S
C2852 C2835 1.574 . S
C2852 H2846 0.949 . S
C2852 C2856 1.368 . S
C2853 C2834 1.429 . S
C2853 C2847 1.429 . S
C2853 C2854 1.523 . S
C2854 C2835 1.368 . S
C2854 C2848 1.368 . S
C2854 C2853 1.523 . S
C2855 C2839 1.429 . S
C2855 C2851 1.429 . S
C2855 C2856 1.523 . S
C2856 C2840 1.368 . S
C2856 C2852 1.368 . S
C2856 C2855 1.523 . S
H2857 C2832 0.950 . S
H2858 C2834 0.950 . S
H2859 C2835 0.949 . S
H2860 C2837 0.950 . S
H2861 C2839 0.950 . S
C2862 C2863 1.349 . S
C2862 C2864 1.327 . S
C2862 H2887 0.950 . S
C2863 C2862 1.349 . S
C2863 C2879 1.349 . S
C2864 C2862 1.327 . S
C2864 C2883 1.429 . S
C2864 H2888 0.950 . S
C2865 C2882 1.574 . S
C2865 C2884 1.368 . S
C2865 H2889 0.949 . S
H2866 C2870 0.949 . S
C2867 C2868 1.349 1_655 S
C2867 C2869 1.327 . S
C2867 H2890 0.950 1_655 S
C2868 C2867 1.349 1_455 S
C2868 C2880 1.349 1_455 S
C2869 C2867 1.327 . S
C2869 C2885 1.429 . S
C2869 H2891 0.950 . S
C2870 H2866 0.949 . S
C2870 C2878 1.574 . S
C2870 C2886 1.368 . S
H2871 C2879 0.950 . S
H2872 C2877 0.950 . S
H2873 C2878 0.949 . S
H2874 C2880 0.950 . S
H2875 C2881 0.950 . S
H2876 C2882 0.949 . S
C2877 H2872 0.950 . S
C2877 C2879 1.327 . S
C2877 C2883 1.429 . S
C2878 C2870 1.574 . S
C2878 H2873 0.949 . S
C2878 C2884 1.368 . S
C2879 C2863 1.349 . S
C2879 H2871 0.950 . S
C2879 C2877 1.327 . S
C2880 C2868 1.349 1_655 S
C2880 H2874 0.950 . S
C2880 C2881 1.327 . S
C2881 H2875 0.950 . S
C2881 C2880 1.327 . S
C2881 C2885 1.429 . S
C2882 C2865 1.574 . S
C2882 H2876 0.949 . S
C2882 C2886 1.368 . S
C2883 C2864 1.429 . S
C2883 C2877 1.429 . S
C2883 C2884 1.523 . S
C2884 C2865 1.368 . S
C2884 C2878 1.368 . S
C2884 C2883 1.523 . S
C2885 C2869 1.429 . S
C2885 C2881 1.429 . S
C2885 C2886 1.523 . S
C2886 C2870 1.368 . S
C2886 C2882 1.368 . S
C2886 C2885 1.523 . S
H2887 C2862 0.950 . S
H2888 C2864 0.950 . S
H2889 C2865 0.949 . S
H2890 C2867 0.950 1_455 S
H2891 C2869 0.950 . S
C2892 C2893 1.349 . S
C2892 C2894 1.327 . S
C2892 H2917 0.950 . S
C2893 C2892 1.349 . S
C2893 C2909 1.349 . S
C2894 C2892 1.327 . S
C2894 C2913 1.429 1_565 S
C2894 H2918 0.950 1_565 S
C2895 C2912 1.574 . S
C2895 C2914 1.368 . S
C2895 H2919 0.949 . S
H2896 C2900 0.949 . S
C2897 C2898 1.349 . S
C2897 C2899 1.327 . S
C2897 H2920 0.950 . S
C2898 C2897 1.349 . S
C2898 C2910 1.349 . S
C2899 C2897 1.327 . S
C2899 C2915 1.429 . S
C2899 H2921 0.950 . S
C2900 H2896 0.949 . S
C2900 C2908 1.574 . S
C2900 C2916 1.368 . S
H2901 C2909 0.950 . S
H2902 C2907 0.950 . S
H2903 C2908 0.949 . S
H2904 C2910 0.950 . S
H2905 C2911 0.950 . S
H2906 C2912 0.949 . S
C2907 H2902 0.950 . S
C2907 C2909 1.327 . S
C2907 C2913 1.429 1_565 S
C2908 C2900 1.574 . S
C2908 H2903 0.949 . S
C2908 C2914 1.368 . S
C2909 C2893 1.349 . S
C2909 H2901 0.950 . S
C2909 C2907 1.327 . S
C2910 C2898 1.349 . S
C2910 H2904 0.950 . S
C2910 C2911 1.327 . S
C2911 H2905 0.950 . S
C2911 C2910 1.327 . S
C2911 C2915 1.429 . S
C2912 C2895 1.574 . S
C2912 H2906 0.949 . S
C2912 C2916 1.368 . S
C2913 C2894 1.429 1_545 S
C2913 C2907 1.429 1_545 S
C2913 C2914 1.523 . S
C2914 C2895 1.368 . S
C2914 C2908 1.368 . S
C2914 C2913 1.523 . S
C2915 C2899 1.429 . S
C2915 C2911 1.429 . S
C2915 C2916 1.523 . S
C2916 C2900 1.368 . S
C2916 C2912 1.368 . S
C2916 C2915 1.523 . S
H2917 C2892 0.950 . S
H2918 C2894 0.950 1_545 S
H2919 C2895 0.949 . S
H2920 C2897 0.950 . S
H2921 C2899 0.950 . S
C2922 C2923 1.349 . S
C2922 C2924 1.327 . S
C2922 H2947 0.950 . S
C2923 C2922 1.349 . S
C2923 C2939 1.349 . S
C2924 C2922 1.327 . S
C2924 C2943 1.429 . S
C2924 H2948 0.950 . S
C2925 C2942 1.574 . S
C2925 C2944 1.368 . S
C2925 H2949 0.949 . S
H2926 C2930 0.949 . S
C2927 C2928 1.349 . S
C2927 C2929 1.327 . S
C2927 H2950 0.950 . S
C2928 C2927 1.349 . S
C2928 C2940 1.349 . S
C2929 C2927 1.327 . S
C2929 C2945 1.429 . S
C2929 H2951 0.950 . S
C2930 H2926 0.949 . S
C2930 C2938 1.574 1_455 S
C2930 C2946 1.368 . S
H2931 C2939 0.950 . S
H2932 C2937 0.950 . S
H2933 C2938 0.949 . S
H2934 C2940 0.950 . S
H2935 C2941 0.950 . S
H2936 C2942 0.949 . S
C2937 H2932 0.950 . S
C2937 C2939 1.327 . S
C2937 C2943 1.429 . S
C2938 C2930 1.574 1_655 S
C2938 H2933 0.949 . S
C2938 C2944 1.368 . S
C2939 C2923 1.349 . S
C2939 H2931 0.950 . S
C2939 C2937 1.327 . S
C2940 C2928 1.349 . S
C2940 H2934 0.950 . S
C2940 C2941 1.327 . S
C2941 H2935 0.950 . S
C2941 C2940 1.327 . S
C2941 C2945 1.429 . S
C2942 C2925 1.574 . S
C2942 H2936 0.949 . S
C2942 C2946 1.368 1_655 S
C2943 C2924 1.429 . S
C2943 C2937 1.429 . S
C2943 C2944 1.523 . S
C2944 C2925 1.368 . S
C2944 C2938 1.368 . S
C2944 C2943 1.523 . S
C2945 C2929 1.429 . S
C2945 C2941 1.429 . S
C2945 C2946 1.523 . S
C2946 C2930 1.368 . S
C2946 C2942 1.368 1_455 S
C2946 C2945 1.523 . S
H2947 C2922 0.950 . S
H2948 C2924 0.950 . S
H2949 C2925 0.949 . S
H2950 C2927 0.950 . S
H2951 C2929 0.950 . S
C2952 C2953 1.349 . S
C2952 C2954 1.327 . S
C2952 H2977 0.950 . S
C2953 C2952 1.349 . S
C2953 C2969 1.349 . S
C2954 C2952 1.327 . S
C2954 C2973 1.429 . S
C2954 H2978 0.950 . S
C2955 C2972 1.574 . S
C2955 C2974 1.368 . S
C2955 H2979 0.949 . S
H2956 C2960 0.949 . S
C2957 C2958 1.349 1_565 S
C2957 C2959 1.327 . S
C2957 H2980 0.950 . S
C2958 C2957 1.349 1_545 S
C2958 C2970 1.349 1_545 S
C2959 C2957 1.327 . S
C2959 C2975 1.429 . S
C2959 H2981 0.950 . S
C2960 H2956 0.949 . S
C2960 C2968 1.574 . S
C2960 C2976 1.368 . S
H2961 C2969 0.950 . S
H2962 C2967 0.950 . S
H2963 C2968 0.949 . S
H2964 C2970 0.950 1_545 S
H2965 C2971 0.950 . S
H2966 C2972 0.949 . S
C2967 H2962 0.950 . S
C2967 C2969 1.327 . S
C2967 C2973 1.429 . S
C2968 C2960 1.574 . S
C2968 H2963 0.949 . S
C2968 C2974 1.368 . S
C2969 C2953 1.349 . S
C2969 H2961 0.950 . S
C2969 C2967 1.327 . S
C2970 C2958 1.349 1_565 S
C2970 H2964 0.950 1_565 S
C2970 C2971 1.327 . S
C2971 H2965 0.950 . S
C2971 C2970 1.327 . S
C2971 C2975 1.429 . S
C2972 C2955 1.574 . S
C2972 H2966 0.949 . S
C2972 C2976 1.368 . S
C2973 C2954 1.429 . S
C2973 C2967 1.429 . S
C2973 C2974 1.523 . S
C2974 C2955 1.368 . S
C2974 C2968 1.368 . S
C2974 C2973 1.523 . S
C2975 C2959 1.429 . S
C2975 C2971 1.429 . S
C2975 C2976 1.523 . S
C2976 C2960 1.368 . S
C2976 C2972 1.368 . S
C2976 C2975 1.523 . S
H2977 C2952 0.950 . S
H2978 C2954 0.950 . S
H2979 C2955 0.949 . S
H2980 C2957 0.950 . S
H2981 C2959 0.950 . S
C2982 C2983 1.349 . S
C2982 C2984 1.327 . S
C2982 H3007 0.950 . S
C2983 C2982 1.349 . S
C2983 C2999 1.349 . S
C2984 C2982 1.327 . S
C2984 C3003 1.429 . S
C2984 H3008 0.950 . S
C2985 C3002 1.574 . S
C2985 C3004 1.368 1_565 S
C2985 H3009 0.949 . S
H2986 C2990 0.949 . S
C2987 C2988 1.349 . S
C2987 C2989 1.327 . S
C2987 H3010 0.950 . S
C2988 C2987 1.349 . S
C2988 C3000 1.349 . S
C2989 C2987 1.327 . S
C2989 C3005 1.429 . S
C2989 H3011 0.950 . S
C2990 H2986 0.949 . S
C2990 C2998 1.574 1_565 S
C2990 C3006 1.368 . S
H2991 C2999 0.950 . S
H2992 C2997 0.950 . S
H2993 C2998 0.949 . S
H2994 C3000 0.950 . S
H2995 C3001 0.950 . S
H2996 C3002 0.949 . S
C2997 H2992 0.950 . S
C2997 C2999 1.327 . S
C2997 C3003 1.429 . S
C2998 C2990 1.574 1_545 S
C2998 H2993 0.949 . S
C2998 C3004 1.368 . S
C2999 C2983 1.349 . S
C2999 H2991 0.950 . S
C2999 C2997 1.327 . S
C3000 C2988 1.349 . S
C3000 H2994 0.950 . S
C3000 C3001 1.327 . S
C3001 H2995 0.950 . S
C3001 C3000 1.327 . S
C3001 C3005 1.429 . S
C3002 C2985 1.574 . S
C3002 H2996 0.949 . S
C3002 C3006 1.368 . S
C3003 C2984 1.429 . S
C3003 C2997 1.429 . S
C3003 C3004 1.523 . S
C3004 C2985 1.368 1_545 S
C3004 C2998 1.368 . S
C3004 C3003 1.523 . S
C3005 C2989 1.429 . S
C3005 C3001 1.429 . S
C3005 C3006 1.523 . S
C3006 C2990 1.368 . S
C3006 C3002 1.368 . S
C3006 C3005 1.523 . S
H3007 C2982 0.950 . S
H3008 C2984 0.950 . S
H3009 C2985 0.949 . S
H3010 C2987 0.950 . S
H3011 C2989 0.950 . S
C3012 C3013 1.349 . S
C3012 C3014 1.327 . S
C3012 H3037 0.950 . S
C3013 C3012 1.349 . S
C3013 C3029 1.349 . S
C3014 C3012 1.327 . S
C3014 C3033 1.429 . S
C3014 H3038 0.950 . S
C3015 C3032 1.574 . S
C3015 C3034 1.368 . S
C3015 H3039 0.949 . S
H3016 C3020 0.949 . S
C3017 C3018 1.349 . S
C3017 C3019 1.327 1_655 S
C3017 H3040 0.950 . S
C3018 C3017 1.349 . S
C3018 C3030 1.349 . S
C3019 C3017 1.327 1_455 S
C3019 C3035 1.429 . S
C3019 H3041 0.950 . S
C3020 H3016 0.949 . S
C3020 C3028 1.574 . S
C3020 C3036 1.368 . S
H3021 C3029 0.950 . S
H3022 C3027 0.950 . S
H3023 C3028 0.949 . S
H3024 C3030 0.950 . S
H3025 C3031 0.950 . S
H3026 C3032 0.949 . S
C3027 H3022 0.950 . S
C3027 C3029 1.327 . S
C3027 C3033 1.429 . S
C3028 C3020 1.574 . S
C3028 H3023 0.949 . S
C3028 C3034 1.368 . S
C3029 C3013 1.349 . S
C3029 H3021 0.950 . S
C3029 C3027 1.327 . S
C3030 C3018 1.349 . S
C3030 H3024 0.950 . S
C3030 C3031 1.327 . S
C3031 H3025 0.950 . S
C3031 C3030 1.327 . S
C3031 C3035 1.429 1_655 S
C3032 C3015 1.574 . S
C3032 H3026 0.949 . S
C3032 C3036 1.368 . S
C3033 C3014 1.429 . S
C3033 C3027 1.429 . S
C3033 C3034 1.523 . S
C3034 C3015 1.368 . S
C3034 C3028 1.368 . S
C3034 C3033 1.523 . S
C3035 C3019 1.429 . S
C3035 C3031 1.429 1_455 S
C3035 C3036 1.523 . S
C3036 C3020 1.368 . S
C3036 C3032 1.368 . S
C3036 C3035 1.523 . S
H3037 C3012 0.950 . S
H3038 C3014 0.950 . S
H3039 C3015 0.949 . S
H3040 C3017 0.950 . S
H3041 C3019 0.950 . S
C3042 C3043 1.349 . S
C3042 C3044 1.327 . S
C3042 H3067 0.950 . S
C3043 C3042 1.349 . S
C3043 C3059 1.349 . S
C3044 C3042 1.327 . S
C3044 C3063 1.429 . S
C3044 H3068 0.950 . S
C3045 C3062 1.574 . S
C3045 C3064 1.368 . S
C3045 H3069 0.949 . S
H3046 C3050 0.949 . S
C3047 C3048 1.349 . S
C3047 C3049 1.327 . S
C3047 H3070 0.950 . S
C3048 C3047 1.349 . S
C3048 C3060 1.349 . S
C3049 C3047 1.327 . S
C3049 C3065 1.429 . S
C3049 H3071 0.950 . S
C3050 H3046 0.949 . S
C3050 C3058 1.574 . S
C3050 C3066 1.368 . S
H3051 C3059 0.950 . S
H3052 C3057 0.950 . S
H3053 C3058 0.949 . S
H3054 C3060 0.950 . S
H3055 C3061 0.950 . S
H3056 C3062 0.949 . S
C3057 H3052 0.950 . S
C3057 C3059 1.327 . S
C3057 C3063 1.429 . S
C3058 C3050 1.574 . S
C3058 H3053 0.949 . S
C3058 C3064 1.368 . S
C3059 C3043 1.349 . S
C3059 H3051 0.950 . S
C3059 C3057 1.327 . S
C3060 C3048 1.349 . S
C3060 H3054 0.950 . S
C3060 C3061 1.327 . S
C3061 H3055 0.950 . S
C3061 C3060 1.327 . S
C3061 C3065 1.429 . S
C3062 C3045 1.574 . S
C3062 H3056 0.949 . S
C3062 C3066 1.368 . S
C3063 C3044 1.429 . S
C3063 C3057 1.429 . S
C3063 C3064 1.523 . S
C3064 C3045 1.368 . S
C3064 C3058 1.368 . S
C3064 C3063 1.523 . S
C3065 C3049 1.429 . S
C3065 C3061 1.429 . S
C3065 C3066 1.523 . S
C3066 C3050 1.368 . S
C3066 C3062 1.368 . S
C3066 C3065 1.523 . S
H3067 C3042 0.950 . S
H3068 C3044 0.950 . S
H3069 C3045 0.949 . S
H3070 C3047 0.950 . S
H3071 C3049 0.950 . S
C3072 C3073 1.349 . S
C3072 C3074 1.327 . S
C3072 H3097 0.950 . S
C3073 C3072 1.349 . S
C3073 C3089 1.349 . S
C3074 C3072 1.327 . S
C3074 C3093 1.429 . S
C3074 H3098 0.950 . S
C3075 C3092 1.574 . S
C3075 C3094 1.368 . S
C3075 H3099 0.949 . S
H3076 C3080 0.949 . S
C3077 C3078 1.349 . S
C3077 C3079 1.327 . S
C3077 H3100 0.950 . S
C3078 C3077 1.349 . S
C3078 C3090 1.349 . S
C3079 C3077 1.327 . S
C3079 C3095 1.429 . S
C3079 H3101 0.950 . S
C3080 H3076 0.949 . S
C3080 C3088 1.574 . S
C3080 C3096 1.368 . S
H3081 C3089 0.950 . S
H3082 C3087 0.950 . S
H3083 C3088 0.949 . S
H3084 C3090 0.950 . S
H3085 C3091 0.950 . S
H3086 C3092 0.949 . S
C3087 H3082 0.950 . S
C3087 C3089 1.327 . S
C3087 C3093 1.429 . S
C3088 C3080 1.574 . S
C3088 H3083 0.949 . S
C3088 C3094 1.368 . S
C3089 C3073 1.349 . S
C3089 H3081 0.950 . S
C3089 C3087 1.327 . S
C3090 C3078 1.349 . S
C3090 H3084 0.950 . S
C3090 C3091 1.327 . S
C3091 H3085 0.950 . S
C3091 C3090 1.327 . S
C3091 C3095 1.429 . S
C3092 C3075 1.574 . S
C3092 H3086 0.949 . S
C3092 C3096 1.368 . S
C3093 C3074 1.429 . S
C3093 C3087 1.429 . S
C3093 C3094 1.523 . S
C3094 C3075 1.368 . S
C3094 C3088 1.368 . S
C3094 C3093 1.523 . S
C3095 C3079 1.429 . S
C3095 C3091 1.429 . S
C3095 C3096 1.523 . S
C3096 C3080 1.368 . S
C3096 C3092 1.368 . S
C3096 C3095 1.523 . S
H3097 C3072 0.950 . S
H3098 C3074 0.950 . S
H3099 C3075 0.949 . S
H3100 C3077 0.950 . S
H3101 C3079 0.950 . S
C3102 C3103 1.349 . S
C3102 C3104 1.327 . S
C3102 H3127 0.950 . S
C3103 C3102 1.349 . S
C3103 C3119 1.349 . S
C3104 C3102 1.327 . S
C3104 C3123 1.429 . S
C3104 H3128 0.950 . S
C3105 C3122 1.574 . S
C3105 C3124 1.368 . S
C3105 H3129 0.949 . S
H3106 C3110 0.949 . S
C3107 C3108 1.349 . S
C3107 C3109 1.327 . S
C3107 H3130 0.950 . S
C3108 C3107 1.349 . S
C3108 C3120 1.349 . S
C3109 C3107 1.327 . S
C3109 C3125 1.429 . S
C3109 H3131 0.950 . S
C3110 H3106 0.949 . S
C3110 C3118 1.574 . S
C3110 C3126 1.368 . S
H3111 C3119 0.950 . S
H3112 C3117 0.950 . S
H3113 C3118 0.949 . S
H3114 C3120 0.950 . S
H3115 C3121 0.950 . S
H3116 C3122 0.949 . S
C3117 H3112 0.950 . S
C3117 C3119 1.327 . S
C3117 C3123 1.429 . S
C3118 C3110 1.574 . S
C3118 H3113 0.949 . S
C3118 C3124 1.368 . S
C3119 C3103 1.349 . S
C3119 H3111 0.950 . S
C3119 C3117 1.327 . S
C3120 C3108 1.349 . S
C3120 H3114 0.950 . S
C3120 C3121 1.327 . S
C3121 H3115 0.950 . S
C3121 C3120 1.327 . S
C3121 C3125 1.429 . S
C3122 C3105 1.574 . S
C3122 H3116 0.949 . S
C3122 C3126 1.368 . S
C3123 C3104 1.429 . S
C3123 C3117 1.429 . S
C3123 C3124 1.523 . S
C3124 C3105 1.368 . S
C3124 C3118 1.368 . S
C3124 C3123 1.523 . S
C3125 C3109 1.429 . S
C3125 C3121 1.429 . S
C3125 C3126 1.523 . S
C3126 C3110 1.368 . S
C3126 C3122 1.368 . S
C3126 C3125 1.523 . S
H3127 C3102 0.950 . S
H3128 C3104 0.950 . S
H3129 C3105 0.949 . S
H3130 C3107 0.950 . S
H3131 C3109 0.950 . S
C1513 C67 0.852 . S
C1518 C226 0.811 . S
C1543 C58 0.811 . S
C1548 C151 0.852 . S
C1573 C142 0.811 . S
C1578 C235 0.852 . S
C1603 C319 0.852 . S
C1608 C394 0.811 . S
C1633 C478 0.811 . S
C1638 C403 0.852 . S
C1663 C487 0.852 . S
C1668 C310 0.811 . S
C1693 C730 0.811 . S
C1698 C571 0.852 . S
C1723 C562 0.813 . S
C1728 C655 0.852 . S
C1753 C739 0.852 . S
C1758 C646 0.811 . S
C1783 C898 0.811 . S
C1788 C823 0.852 . S
C1813 C907 0.852 . S
C1818 C982 0.811 . S
C1843 C814 0.811 . S
C1848 C991 0.852 . S
C1873 C1075 0.852 . S
C1878 C1234 0.811 . S
C1903 C1066 0.811 . S
C1908 C1159 0.852 . S
C1933 C1150 0.811 . S
C1938 C1243 0.852 . S
C1963 C1402 0.811 . S
C1968 C1327 0.852 . S
C1993 C1486 0.811 . S
C1998 C1411 0.852 . S
C2023 C1318 0.813 . S
C2028 C1495 0.852 . S
C2053 C74 1.909 . S
C2058 C494 1.909 . S
C2083 C326 1.909 . S
C2088 C158 1.909 . S
C2113 C410 1.909 . S
C2118 C242 1.909 . S
C2143 C578 1.909 . S
C2148 C998 1.909 . S
C2173 C662 1.909 . S
C2178 C830 1.909 . S
C2203 C914 1.909 . S
C2208 C746 1.909 . S
C2233 C1082 1.909 . S
C2238 C1502 1.909 . S
C2263 C1334 1.909 . S
C2268 C1166 1.909 . S
C2293 C1418 1.909 . S
C2298 C1250 1.909 . S
C2323 C903 2.085 . S
C2328 C63 2.085 . S
C2353 C147 2.085 . S
C2358 C987 2.085 . S
C2383 C819 2.085 . S
C2388 C231 2.085 . S
C2413 C315 2.085 . S
C2418 C1239 2.085 . S
C2443 C399 2.085 . S
C2448 C1071 2.085 . S
C2473 C1155 2.085 . S
C2478 C483 2.085 . S
C2503 C1407 2.085 . S
C2508 C567 2.085 . S
C2533 C651 2.085 . S
C2538 C1491 2.085 . S
C2563 C735 2.085 . S
C2568 C1323 2.085 . S
C2593 C237 1.586 . S
C2598 C56 1.777 . S
C2623 C69 1.585 . S
C2628 C140 1.777 . S
C2653 C224 1.777 . S
C2658 C153 1.586 . S
C2683 C405 1.586 . S
C2688 C308 1.777 . S
C2713 C489 1.586 . S
C2718 C392 1.777 . S
C2743 C476 1.777 . S
C2748 C321 1.585 . S
C2773 C741 1.585 . S
C2778 C560 1.777 . S
C2803 C644 1.777 . S
C2808 C573 1.586 . S
C2833 C657 1.586 . S
C2838 C728 1.777 . S
C2863 C812 1.777 . S
C2868 C909 1.586 . S
C2893 C896 1.777 . S
C2898 C993 1.585 . S
C2923 C825 1.586 . S
C2928 C980 1.777 . S
C2953 C1064 1.777 . S
C2958 C1245 1.586 . S
C2983 C1148 1.777 . S
C2988 C1077 1.586 . S
C3013 C1161 1.585 . S
C3018 C1232 1.777 . S
C3043 C1316 1.777 . S
C3048 C1413 1.585 . S
C3073 C1400 1.777 . S
C3078 C1497 1.586 . S
C3103 C1329 1.586 . S
C3108 C1484 1.777 . S
