# Generated by pormake.
# Topology umx, (4)-cn, num edge types: 1
# Building blocks:
#     Node 0, Type 0, BuildingBlock: QUQFOY_clean_sbu_3, # of connection points: 4
#     Node 1, Type 0, BuildingBlock: QUQFOY_clean_sbu_3, # of connection points: 4
#     Node 2, Type 0, BuildingBlock: QUQFOY_clean_sbu_3, # of connection points: 4
#     Node 3, Type 0, BuildingBlock: QUQFOY_clean_sbu_3, # of connection points: 4
#     Node 4, Type 0, BuildingBlock: QUQFOY_clean_sbu_3, # of connection points: 4
#     Node 5, Type 0, BuildingBlock: QUQFOY_clean_sbu_3, # of connection points: 4
#     Node 6, Type 0, BuildingBlock: QUQFOY_clean_sbu_3, # of connection points: 4
#     Node 7, Type 0, BuildingBlock: QUQFOY_clean_sbu_3, # of connection points: 4
#     Edge 8, Type (0, 0), BuildingBlock: XIVTED_clean_linker_0, # of connection points: 2
#     Edge 9, Type (0, 0), BuildingBlock: XIVTED_clean_linker_0, # of connection points: 2
#     Edge 10, Type (0, 0), BuildingBlock: XIVTED_clean_linker_0, # of connection points: 2
#     Edge 11, Type (0, 0), BuildingBlock: XIVTED_clean_linker_0, # of connection points: 2
#     Edge 12, Type (0, 0), BuildingBlock: XIVTED_clean_linker_0, # of connection points: 2
#     Edge 13, Type (0, 0), BuildingBlock: XIVTED_clean_linker_0, # of connection points: 2
#     Edge 14, Type (0, 0), BuildingBlock: XIVTED_clean_linker_0, # of connection points: 2
#     Edge 15, Type (0, 0), BuildingBlock: XIVTED_clean_linker_0, # of connection points: 2
#     Edge 16, Type (0, 0), BuildingBlock: XIVTED_clean_linker_0, # of connection points: 2
#     Edge 17, Type (0, 0), BuildingBlock: XIVTED_clean_linker_0, # of connection points: 2
#     Edge 18, Type (0, 0), BuildingBlock: XIVTED_clean_linker_0, # of connection points: 2
#     Edge 19, Type (0, 0), BuildingBlock: XIVTED_clean_linker_0, # of connection points: 2
#     Edge 20, Type (0, 0), BuildingBlock: XIVTED_clean_linker_0, # of connection points: 2
#     Edge 21, Type (0, 0), BuildingBlock: XIVTED_clean_linker_0, # of connection points: 2
#     Edge 22, Type (0, 0), BuildingBlock: XIVTED_clean_linker_0, # of connection points: 2
#     Edge 23, Type (0, 0), BuildingBlock: XIVTED_clean_linker_0, # of connection points: 2
# Relax obj value: 0.078
# Max RMSD: 0.191
# Mean RMSD: 0.191
data_MOF--net-umx--node1-QUQFOY_clean_sbu_3--edge1-XIVTED_clean_linker_0
_symmetry_space_group_name_H-M    P1
_symmetry_Int_Tables_number       1
_symmetry_cell_setting            triclinic
loop_
_symmetry_equiv_pos_as_xyz
'x, y, z'
_cell_length_a     40.637218
_cell_length_b     40.799109
_cell_length_c     28.944433
_cell_angle_alpha  89.914064
_cell_angle_beta   90.539142
_cell_angle_gamma 90.054901
loop_
_atom_site_label
_atom_site_type_symbol
_atom_site_fract_x
_atom_site_fract_y
_atom_site_fract_z
_atom_type_partial_charge
C0 C 0.19949 0.4797 0.93108 0.0
O1 O 0.19985 0.50411 0.95831 0.0
Cd2 Cd 0.19026 0.4983 0.04034 0.0
O3 O 0.19411 0.45095 0.94639 0.0
Cd4 Cd 0.18287 0.42044 0.01781 0.0
C5 C 0.11302 0.46389 0.03417 0.0
O6 O 0.22152 0.45192 0.06524 0.0
O7 O 0.1922 0.41584 0.10064 0.0
O8 O 0.21516 0.38104 0.97632 0.0
C9 C 0.21433 0.43767 0.10278 0.0
O10 O 0.13142 0.48744 0.04735 0.0
C11 C 0.20054 0.35577 -0.00861 0.0
O12 O 0.12504 0.43743 0.01816 0.0
O13 O 0.17645 0.36033 0.01831 0.0
C14 C 0.49971 0.22626 0.41923 0.0
O15 O 0.47321 0.22131 0.44098 0.0
Cd16 Cd 0.47121 0.18581 0.50689 0.0
O17 O 0.52649 0.2133 0.43317 0.0
Cd18 Cd 0.54703 0.17882 0.49701 0.0
C19 C 0.50254 0.1134 0.46476 0.0
O20 O 0.51419 0.19885 0.56094 0.0
O21 O 0.53762 0.15145 0.56952 0.0
O22 O 0.59053 0.21428 0.52191 0.0
C23 C 0.52216 0.17521 0.58735 0.0
O24 O 0.47807 0.1297 0.47951 0.0
C25 C 0.61429 0.1968 0.50842 0.0
O26 O 0.53127 0.12594 0.46437 0.0
O27 O 0.60721 0.1703 0.48751 0.0
C28 C 0.78603 0.49495 0.92836 0.0
O29 O 0.78508 0.47025 0.95513 0.0
Cd30 Cd 0.79456 0.47503 0.03765 0.0
O31 O 0.79175 0.52342 0.94446 0.0
Cd32 Cd 0.80269 0.55319 0.0166 0.0
C33 C 0.8721 0.50907 0.03446 0.0
O34 O 0.7639 0.52151 0.06272 0.0
O35 O 0.79331 0.55738 0.09913 0.0
O36 O 0.77021 0.59216 0.97404 0.0
C37 C 0.77119 0.53552 0.10057 0.0
O38 O 0.85346 0.4855 0.04652 0.0
C39 C 0.78457 0.61764 -0.01083 0.0
O40 O 0.86039 0.53583 0.01857 0.0
O41 O 0.80865 0.61345 0.0169 0.0
C42 C 0.47395 0.76661 0.4118 0.0
O43 O 0.49927 0.77067 0.43721 0.0
Cd44 Cd 0.49699 0.79917 0.50946 0.0
O45 O 0.44599 0.77739 0.42427 0.0
Cd46 Cd 0.41844 0.80594 0.48812 0.0
C47 C 0.4655 0.87338 0.47173 0.0
O48 O 0.44993 0.77677 0.5471 0.0
O49 O 0.41617 0.81357 0.57135 0.0
O50 O 0.37431 0.77037 0.46214 0.0
C51 C 0.43711 0.79159 0.58086 0.0
O52 O 0.48939 0.85662 0.48798 0.0
C53 C 0.35109 0.78922 0.47405 0.0
O54 O 0.43707 0.86066 0.46632 0.0
O55 O 0.35904 0.81679 0.49108 0.0
C56 C 0.2018 0.50179 0.587 0.0
O57 O 0.20438 0.47642 0.56186 0.0
Cd58 Cd 0.19372 0.47523 0.47995 0.0
O59 O 0.19407 0.52935 0.56923 0.0
Cd60 Cd 0.18154 0.55369 0.49275 0.0
C61 C 0.11431 0.50474 0.48067 0.0
O62 O 0.22188 0.52171 0.44923 0.0
O63 O 0.19042 0.55432 0.41018 0.0
O64 O 0.21012 0.60061 0.52535 0.0
C65 C 0.21365 0.53371 0.41036 0.0
O66 O 0.13407 0.48108 0.47364 0.0
C67 C 0.19182 0.62196 0.50617 0.0
O68 O 0.12503 0.53331 0.49033 0.0
O69 O 0.16768 0.61159 0.48215 0.0
C70 C 0.48962 0.22292 0.09183 0.0
O71 O 0.51611 0.21697 0.07059 0.0
Cd72 Cd 0.5175 0.18231 0.00391 0.0
O73 O 0.46243 0.2112 0.07724 0.0
Cd74 Cd 0.44135 0.178 0.01244 0.0
C75 C 0.48321 0.1103 0.04297 0.0
O76 O 0.47553 0.1981 0.94982 0.0
O77 O 0.45025 0.15188 0.93894 0.0
O78 O 0.39944 0.21557 -0.01167 0.0
C79 C 0.46683 0.1754 0.92233 0.0
O80 O 0.50837 0.12589 0.02887 0.0
C81 C 0.37487 0.19854 0.00024 0.0
O82 O 0.45504 0.12401 0.04378 0.0
O83 O 0.38073 0.17128 0.02 0.0
C84 C 0.78437 0.47536 0.58368 0.0
O85 O 0.78168 0.50049 0.55793 0.0
Cd86 Cd 0.79186 0.49875 0.47603 0.0
O87 O 0.79142 0.44757 0.56648 0.0
Cd88 Cd 0.80207 0.42006 0.49228 0.0
C89 C 0.87054 0.46637 0.47886 0.0
O90 O 0.76242 0.45219 0.44715 0.0
O91 O 0.79141 0.41706 0.40968 0.0
O92 O 0.77137 0.37857 0.5323 0.0
C93 C 0.76947 0.43906 0.4088 0.0
O94 O 0.85114 0.49035 0.47128 0.0
C95 C 0.7866 0.35419 0.51582 0.0
O96 O 0.85941 0.43808 0.48913 0.0
O97 O 0.81018 0.3602 0.48853 0.0
C98 C 0.4931 0.76114 0.0802 0.0
O99 O 0.4666 0.76684 0.05804 0.0
Cd100 Cd 0.46432 0.79797 -0.01211 0.0
O101 O 0.52067 0.77068 0.06448 0.0
Cd102 Cd 0.54338 0.79851 -0.00385 0.0
C103 C 0.50372 0.86874 0.02342 0.0
O104 O 0.50556 0.77633 0.93867 0.0
O105 O 0.53786 0.81544 0.9162 0.0
O106 O 0.58351 0.75661 0.98434 0.0
C107 C 0.51639 0.79398 0.90605 0.0
O108 O 0.47749 0.85393 0.01101 0.0
C109 C 0.60876 0.77433 -0.00933 0.0
O110 O 0.53145 0.85415 0.02299 0.0
O111 O 0.6041 0.80405 0.00197 0.0
H112 H 0.21487 0.40509 0.18502 0.0
H113 H 0.21778 0.56583 0.32847 0.0
H114 H 0.24035 0.49783 0.12308 0.0
H115 H 0.23717 0.47224 0.39253 0.0
H116 H 0.22903 0.54176 0.25303 0.0
H117 H 0.22589 0.42839 0.26139 0.0
C118 C 0.22331 0.4302 0.18752 0.0
C119 C 0.22629 0.44973 0.14787 0.0
C120 C 0.23153 0.52661 0.28363 0.0
C121 C 0.23843 0.47664 0.23492 0.0
C122 C 0.225 0.54031 0.32661 0.0
C123 C 0.22626 0.52084 0.36651 0.0
C124 C 0.23846 0.493 0.28047 0.0
C125 C 0.23589 0.488 0.36245 0.0
C126 C 0.22973 0.44345 0.23106 0.0
C127 C 0.23758 0.48203 0.1529 0.0
N128 N 0.24093 0.47486 0.31995 0.0
N129 N 0.24257 0.49472 0.19577 0.0
H130 H 0.52163 0.12279 0.64565 0.0
H131 H 0.48874 0.22746 0.87174 0.0
H132 H 0.50323 0.22695 0.6406 0.0
H133 H 0.46555 0.1244 0.8618 0.0
H134 H 0.50205 0.22775 0.78932 0.0
H135 H 0.50861 0.12292 0.72788 0.0
C136 C 0.51481 0.14567 0.66189 0.0
C137 C 0.5134 0.1749 0.63646 0.0
C138 C 0.49402 0.20513 0.80532 0.0
C139 C 0.49892 0.17525 0.73024 0.0
C140 C 0.48663 0.2049 0.85224 0.0
C141 C 0.47603 0.17586 0.87339 0.0
C142 C 0.49126 0.17602 0.77983 0.0
C143 C 0.47354 0.14732 0.84668 0.0
C144 C 0.50732 0.1457 0.70868 0.0
C145 C 0.50441 0.20387 0.65906 0.0
N146 N 0.48126 0.14807 0.80123 0.0
N147 N 0.49769 0.20338 0.70491 0.0
H148 H 0.76487 0.40691 0.32691 0.0
H149 H 0.77048 0.56798 0.18267 0.0
H150 H 0.74758 0.50108 0.38964 0.0
H151 H 0.74516 0.47528 0.12021 0.0
H152 H 0.75914 0.54468 0.25872 0.0
H153 H 0.75452 0.43112 0.25092 0.0
C154 C 0.75831 0.43259 0.32464 0.0
C155 C 0.7574 0.45215 0.36437 0.0
C156 C 0.75542 0.52961 0.22834 0.0
C157 C 0.74618 0.48013 0.2777 0.0
C158 C 0.76203 0.54285 0.18498 0.0
C159 C 0.75914 0.52336 0.14529 0.0
C160 C 0.74663 0.49644 0.23203 0.0
C161 C 0.74784 0.49106 0.15006 0.0
C162 C 0.7523 0.44638 0.28133 0.0
C163 C 0.7486 0.48521 0.35971 0.0
N164 N 0.74263 0.47837 0.19281 0.0
N165 N 0.74401 0.49839 0.31696 0.0
H166 H 0.45645 0.77129 0.87758 0.0
H167 H 0.4978 0.77159 0.61021 0.0
H168 H 0.5493 0.80709 0.82674 0.0
H169 H 0.40209 0.80005 0.65946 0.0
H170 H 0.51756 0.7685 0.6906 0.0
H171 H 0.43655 0.76621 0.79748 0.0
C172 C 0.47266 0.77782 0.84952 0.0
C173 C 0.50439 0.78988 0.85844 0.0
C174 C 0.49217 0.77507 0.68358 0.0
C175 C 0.48223 0.78342 0.76772 0.0
C176 C 0.48088 0.77665 0.63799 0.0
C177 C 0.44842 0.78628 0.62856 0.0
C178 C 0.47054 0.78236 0.71959 0.0
C179 C 0.42742 0.79279 0.66555 0.0
C180 C 0.46131 0.77498 0.8041 0.0
C181 C 0.52453 0.79804 0.8211 0.0
N182 N 0.43883 0.79063 0.70965 0.0
N183 N 0.51316 0.79449 0.77716 0.0
H184 H 0.77416 0.53111 0.63449 0.0
H185 H 0.78128 0.43786 0.87829 0.0
H186 H 0.78547 0.42629 0.64836 0.0
H187 H 0.78054 0.54319 0.86319 0.0
H188 H 0.77719 0.43264 0.79417 0.0
H189 H 0.7708 0.53548 0.71846 0.0
C190 C 0.77575 0.50899 0.65512 0.0
C191 C 0.78034 0.47832 0.63428 0.0
C192 C 0.77778 0.45687 0.80936 0.0
C193 C 0.77658 0.48315 0.73053 0.0
C194 C 0.78005 0.45986 0.85738 0.0
C195 C 0.78152 0.49099 0.87787 0.0
C196 C 0.77687 0.48521 0.78168 0.0
C197 C 0.77976 0.51866 0.84899 0.0
C198 C 0.77389 0.5115 0.7031 0.0
C199 C 0.78215 0.45049 0.66287 0.0
N200 N 0.77765 0.51511 0.80244 0.0
N201 N 0.78039 0.45359 0.70951 0.0
H202 H 0.54438 0.74773 0.13942 0.0
H203 H 0.42466 0.74714 0.35311 0.0
H204 H 0.43841 0.74288 0.12853 0.0
H205 H 0.53053 0.75273 0.36483 0.0
H206 H 0.43001 0.73238 0.27202 0.0
H207 H 0.54052 0.73618 0.22187 0.0
C208 C 0.52031 0.74365 0.15415 0.0
C209 C 0.4916 0.74718 0.12725 0.0
C210 C 0.45212 0.73633 0.29245 0.0
C211 C 0.48704 0.73425 0.22168 0.0
C212 C 0.44908 0.74483 0.33879 0.0
C213 C 0.47718 0.75198 0.36547 0.0
C214 C 0.48346 0.73539 0.27248 0.0
C215 C 0.50818 0.74794 0.34533 0.0
C216 C 0.51814 0.73706 0.2013 0.0
C217 C 0.46117 0.74106 0.14809 0.0
N218 N 0.51048 0.74052 0.29976 0.0
N219 N 0.45966 0.73551 0.19426 0.0
H220 H 0.20263 0.53749 0.88215 0.0
H221 H 0.21513 0.44661 0.63785 0.0
H222 H 0.20736 0.43242 0.86547 0.0
H223 H 0.19862 0.55068 0.6518 0.0
H224 H 0.21862 0.44198 0.72175 0.0
H225 H 0.20723 0.54373 0.79828 0.0
C226 C 0.20486 0.51576 0.86095 0.0
C227 C 0.20434 0.48438 0.88088 0.0
C228 C 0.21438 0.46587 0.70648 0.0
C229 C 0.20962 0.49135 0.78505 0.0
C230 C 0.21244 0.46854 0.6585 0.0
C231 C 0.20631 0.49904 0.63767 0.0
C232 C 0.21017 0.49387 0.73396 0.0
C233 C 0.20317 0.52662 0.66632 0.0
C234 C 0.20742 0.51935 0.81309 0.0
C235 C 0.20736 0.45711 0.85168 0.0
N236 N 0.20497 0.52335 0.71301 0.0
N237 N 0.20975 0.46124 0.80532 0.0
H238 H 0.55179 0.24463 0.36577 0.0
H239 H 0.4378 0.24249 0.14484 0.0
H240 H 0.4456 0.24595 0.36929 0.0
H241 H 0.54401 0.24228 0.14144 0.0
H242 H 0.44029 0.25912 0.22563 0.0
H243 H 0.54949 0.25937 0.28419 0.0
C244 C 0.52798 0.24866 0.34963 0.0
C245 C 0.49881 0.24304 0.374 0.0
C246 C 0.46307 0.25606 0.20701 0.0
C247 C 0.49601 0.25946 0.28047 0.0
C248 C 0.46167 0.24652 0.16082 0.0
C249 C 0.49076 0.24001 0.13676 0.0
C250 C 0.49377 0.2587 0.22939 0.0
C251 C 0.52094 0.24632 0.15895 0.0
C252 C 0.52668 0.25709 0.30298 0.0
C253 C 0.46871 0.24933 0.35158 0.0
N254 N 0.52167 0.25463 0.20434 0.0
N255 N 0.46806 0.25646 0.30575 0.0
H256 H 0.90764 0.4827 0.10531 0.0
H257 H 0.06789 0.44765 0.96785 0.0
H258 H 0.91725 0.52337 0.9685 0.0
H259 H 0.07718 0.49105 0.10313 0.0
H260 H 0.00859 0.46009 0.96827 0.0
H261 H 0.96709 0.47117 0.10651 0.0
C262 C 0.92237 0.48929 0.0757 0.0
C263 C 0.90788 0.50421 0.0369 0.0
C264 C 0.02375 0.46662 -0.00215 0.0
C265 C 0.97485 0.49005 0.03743 0.0
C266 C 0.0573 0.45933 -0.00217 0.0
C267 C 0.07716 0.46837 0.03555 0.0
C268 C 0.01007 0.48203 0.03643 0.0
C269 C 0.06252 0.48381 0.07342 0.0
C270 C 0.95604 0.48273 0.07643 0.0
C271 C 0.92777 0.51218 -0.0008 0.0
N272 N 0.02966 0.48988 0.07317 0.0
N273 N 0.96032 0.50453 7e-05 0.0
H274 H 0.41938 0.91964 0.44774 0.0
H275 H 0.54975 0.06669 0.44959 0.0
H276 H 0.52386 0.90684 0.46975 0.0
H277 H 0.44444 0.08044 0.45287 0.0
H278 H 0.54103 0.00767 0.44168 0.0
H279 H 0.42867 0.97817 0.43514 0.0
C280 C 0.44429 0.92905 0.44955 0.0
C281 C 0.47083 0.90834 0.46042 0.0
C282 C 0.51984 0.02367 0.44363 0.0
C283 C 0.4816 0.97526 0.44593 0.0
C284 C 0.52479 0.05739 0.44791 0.0
C285 C 0.49779 0.07851 0.45257 0.0
C286 C 0.48767 0.01102 0.44386 0.0
C287 C 0.466 0.06504 0.45002 0.0
C288 C 0.44957 0.96247 0.44238 0.0
C289 C 0.5026 0.92192 0.46204 0.0
N290 N 0.46184 0.03214 0.44627 0.0
N291 N 0.50706 0.95454 0.45518 0.0
H292 H 0.08254 0.44579 0.4722 0.0
H293 H 0.9027 0.52476 0.46824 0.0
H294 H 0.06428 0.5497 0.48398 0.0
H295 H 0.92032 0.42101 0.48504 0.0
H296 H 0.96192 0.53406 0.46696 0.0
H297 H 0.02326 0.4361 0.47 0.0
C298 C 0.0661 0.4666 0.47419 0.0
C299 C 0.07845 0.49864 0.47838 0.0
C300 C 0.95285 0.50925 0.47091 0.0
C301 C 0.01053 0.48764 0.4758 0.0
C302 C 0.919 0.50387 0.47152 0.0
C303 C 0.90646 0.47201 0.47686 0.0
C304 C 0.97443 0.4826 0.4754 0.0
C305 C 0.92886 0.44598 0.48099 0.0
C306 C 0.03224 0.46101 0.47306 0.0
C307 C 0.05591 0.5246 0.48089 0.0
N308 N 0.96178 0.45185 0.48014 0.0
N309 N 0.02304 0.51852 0.47951 0.0
H310 H 0.55442 0.91174 0.04094 0.0
H311 H 0.43407 0.066 0.061 0.0
H312 H 0.44834 0.90537 0.03683 0.0
H313 H 0.53961 0.07381 0.04853 0.0
H314 H 0.43951 0.00648 0.06611 0.0
H315 H 0.54995 0.97045 0.05677 0.0
C316 C 0.5302 0.92259 0.04376 0.0
C317 C 0.50172 0.90365 0.03692 0.0
C318 C 0.46151 0.02126 0.06276 0.0
C319 C 0.49644 0.97077 0.05505 0.0
C320 C 0.45843 0.05528 0.06004 0.0
C321 C 0.48638 0.07494 0.05363 0.0
C322 C 0.49274 0.00679 0.05905 0.0
C323 C 0.51733 0.05963 0.05285 0.0
C324 C 0.52767 0.95611 0.05277 0.0
C325 C 0.47099 0.91904 0.04124 0.0
N326 N 0.51964 0.02646 0.055 0.0
N327 N 0.46918 0.95169 0.0497 0.0
H328 H 0.2332 0.33603 0.91514 0.0
H329 H 0.31885 0.1897 0.05173 0.0
H330 H 0.19965 0.30169 0.04754 0.0
H331 H 0.35518 0.23549 0.92789 0.0
H332 H 0.26656 0.21946 0.04128 0.0
H333 H 0.26788 0.28763 0.9088 0.0
C334 C 0.23265 0.31783 0.94244 0.0
C335 C 0.2141 0.32302 0.98226 0.0
C336 C 0.28578 0.22239 0.01594 0.0
C337 C 0.2546 0.26814 0.97616 0.0
C338 C 0.31549 0.20541 0.02185 0.0
C339 C 0.3414 0.2108 -0.00889 0.0
C340 C 0.28218 0.24445 0.9788 0.0
C341 C 0.33598 0.23124 0.9529 0.0
C342 C 0.25254 0.29025 0.93896 0.0
C343 C 0.21388 0.29858 0.01642 0.0
N344 N 0.30714 0.24752 0.94809 0.0
N345 N 0.23457 0.27249 0.01317 0.0
H346 H 0.75758 0.33128 0.5933 0.0
H347 H 0.66843 0.18961 0.4529 0.0
H348 H 0.78677 0.30187 0.45671 0.0
H349 H 0.63689 0.22947 0.58303 0.0
H350 H 0.72119 0.21873 0.46226 0.0
H351 H 0.72431 0.28182 0.59944 0.0
C352 C 0.75751 0.31393 0.56499 0.0
C353 C 0.77434 0.32081 0.52415 0.0
C354 C 0.70298 0.22043 0.48921 0.0
C355 C 0.73536 0.26478 0.53006 0.0
C356 C 0.673 0.20379 0.48392 0.0
C357 C 0.64825 0.20785 0.51682 0.0
C358 C 0.70797 0.24082 0.52784 0.0
C359 C 0.65519 0.22634 0.55643 0.0
C360 C 0.73842 0.28573 0.56837 0.0
C361 C 0.77385 0.29744 0.48866 0.0
N362 N 0.68422 0.2424 0.56057 0.0
N363 N 0.75386 0.27076 0.4919 0.0
H364 H 0.75188 0.63627 0.91156 0.0
H365 H 0.66677 0.78724 0.03744 0.0
H366 H 0.78478 0.67231 0.04414 0.0
H367 H 0.62517 0.73014 0.92605 0.0
H368 H 0.71905 0.75719 0.02874 0.0
H369 H 0.71612 0.68386 0.90347 0.0
C370 C 0.75209 0.65469 0.93851 0.0
C371 C 0.7707 0.65016 0.97894 0.0
C372 C 0.69858 0.75178 0.00575 0.0
C373 C 0.72907 0.70408 0.97072 0.0
C374 C 0.6689 0.76886 0.01068 0.0
C375 C 0.64166 0.76056 0.98297 0.0
C376 C 0.70084 0.72691 0.97232 0.0
C377 C 0.64548 0.73675 0.9487 0.0
C378 C 0.73158 0.68177 0.93402 0.0
C379 C 0.77049 0.67489 0.01259 0.0
N380 N 0.6744 0.72067 0.94454 0.0
N381 N 0.74925 0.70053 0.0083 0.0
H382 H 0.30378 0.8014 0.53787 0.0
H383 H 0.22158 0.65635 0.57551 0.0
H384 H 0.32168 0.74878 0.41147 0.0
H385 H 0.18595 0.66536 0.43529 0.0
H386 H 0.25022 0.70884 0.5672 0.0
H387 H 0.25307 0.76942 0.54835 0.0
C388 C 0.29641 0.78395 0.51154 0.0
C389 C 0.31698 0.77724 0.47408 0.0
C390 C 0.23511 0.69993 0.53885 0.0
C391 C 0.25953 0.74111 0.48574 0.0
C392 C 0.21896 0.66996 0.54352 0.0
C393 C 0.20157 0.65665 0.50598 0.0
C394 C 0.23469 0.71595 0.49588 0.0
C395 C 0.19906 0.67498 0.46506 0.0
C396 C 0.26771 0.76566 0.51774 0.0
C397 C 0.30657 0.75429 0.44108 0.0
N398 N 0.21645 0.70325 0.46051 0.0
N399 N 0.27861 0.7368 0.44786 0.0
loop_
_geom_bond_atom_site_label_1
_geom_bond_atom_site_label_2
_geom_bond_distance
_geom_bond_site_symmetry_2
_ccdc_geom_bond_type
C0 O1 1.306 . S
C0 O3 1.160 . S
O1 C0 1.306 . S
O1 Cd2 2.228 1_556 S
Cd2 O1 2.228 1_554 S
Cd2 O6 2.273 . S
Cd2 O10 2.277 . S
O3 C0 1.160 . S
O3 Cd4 2.203 1_556 S
Cd4 O3 2.203 1_554 S
Cd4 O6 2.411 . S
Cd4 O7 2.333 . S
Cd4 O8 2.352 . S
Cd4 O12 2.277 . S
Cd4 O13 2.356 . S
C5 O10 1.209 . S
C5 O12 1.226 . S
O6 Cd2 2.273 . S
O6 Cd4 2.411 . S
O6 C9 1.320 . S
O7 Cd4 2.333 . S
O7 C9 1.214 . S
O8 Cd4 2.352 . S
O8 C11 1.258 . S
C9 O6 1.320 . S
C9 O7 1.214 . S
O10 Cd2 2.277 . S
O10 C5 1.209 . S
C11 O8 1.258 . S
C11 O13 1.282 . S
O12 Cd4 2.277 . S
O12 C5 1.226 . S
O13 Cd4 2.356 . S
O13 C11 1.282 . S
C14 O15 1.306 . S
C14 O17 1.160 . S
O15 C14 1.306 . S
O15 Cd16 2.228 . S
Cd16 O15 2.228 . S
Cd16 O20 2.273 . S
Cd16 O24 2.277 . S
O17 C14 1.160 . S
O17 Cd18 2.203 . S
Cd18 O17 2.203 . S
Cd18 O20 2.411 . S
Cd18 O21 2.333 . S
Cd18 O22 2.352 . S
Cd18 O26 2.277 . S
Cd18 O27 2.356 . S
C19 O24 1.209 . S
C19 O26 1.226 . S
O20 Cd16 2.273 . S
O20 Cd18 2.411 . S
O20 C23 1.320 . S
O21 Cd18 2.333 . S
O21 C23 1.214 . S
O22 Cd18 2.352 . S
O22 C25 1.258 . S
C23 O20 1.320 . S
C23 O21 1.214 . S
O24 Cd16 2.277 . S
O24 C19 1.209 . S
C25 O22 1.258 . S
C25 O27 1.282 . S
O26 Cd18 2.277 . S
O26 C19 1.226 . S
O27 Cd18 2.356 . S
O27 C25 1.282 . S
C28 O29 1.306 . S
C28 O31 1.160 . S
O29 C28 1.306 . S
O29 Cd30 2.228 1_556 S
Cd30 O29 2.228 1_554 S
Cd30 O34 2.273 . S
Cd30 O38 2.277 . S
O31 C28 1.160 . S
O31 Cd32 2.203 1_556 S
Cd32 O31 2.203 1_554 S
Cd32 O34 2.411 . S
Cd32 O35 2.333 . S
Cd32 O36 2.352 . S
Cd32 O40 2.277 . S
Cd32 O41 2.356 . S
C33 O38 1.209 . S
C33 O40 1.226 . S
O34 Cd30 2.273 . S
O34 Cd32 2.411 . S
O34 C37 1.320 . S
O35 Cd32 2.333 . S
O35 C37 1.214 . S
O36 Cd32 2.352 . S
O36 C39 1.258 . S
C37 O34 1.320 . S
C37 O35 1.214 . S
O38 Cd30 2.277 . S
O38 C33 1.209 . S
C39 O36 1.258 . S
C39 O41 1.282 . S
O40 Cd32 2.277 . S
O40 C33 1.226 . S
O41 Cd32 2.356 . S
O41 C39 1.282 . S
C42 O43 1.306 . S
C42 O45 1.160 . S
O43 C42 1.306 . S
O43 Cd44 2.228 . S
Cd44 O43 2.228 . S
Cd44 O48 2.273 . S
Cd44 O52 2.277 . S
O45 C42 1.160 . S
O45 Cd46 2.203 . S
Cd46 O45 2.203 . S
Cd46 O48 2.411 . S
Cd46 O49 2.333 . S
Cd46 O50 2.352 . S
Cd46 O54 2.277 . S
Cd46 O55 2.356 . S
C47 O52 1.209 . S
C47 O54 1.226 . S
O48 Cd44 2.273 . S
O48 Cd46 2.411 . S
O48 C51 1.320 . S
O49 Cd46 2.333 . S
O49 C51 1.214 . S
O50 Cd46 2.352 . S
O50 C53 1.258 . S
C51 O48 1.320 . S
C51 O49 1.214 . S
O52 Cd44 2.277 . S
O52 C47 1.209 . S
C53 O50 1.258 . S
C53 O55 1.282 . S
O54 Cd46 2.277 . S
O54 C47 1.226 . S
O55 Cd46 2.356 . S
O55 C53 1.282 . S
C56 O57 1.306 . S
C56 O59 1.160 . S
O57 C56 1.306 . S
O57 Cd58 2.228 . S
Cd58 O57 2.228 . S
Cd58 O62 2.273 . S
Cd58 O66 2.277 . S
O59 C56 1.160 . S
O59 Cd60 2.203 . S
Cd60 O59 2.203 . S
Cd60 O62 2.411 . S
Cd60 O63 2.333 . S
Cd60 O64 2.352 . S
Cd60 O68 2.277 . S
Cd60 O69 2.356 . S
C61 O66 1.209 . S
C61 O68 1.226 . S
O62 Cd58 2.273 . S
O62 Cd60 2.411 . S
O62 C65 1.320 . S
O63 Cd60 2.333 . S
O63 C65 1.214 . S
O64 Cd60 2.352 . S
O64 C67 1.258 . S
C65 O62 1.320 . S
C65 O63 1.214 . S
O66 Cd58 2.277 . S
O66 C61 1.209 . S
C67 O64 1.258 . S
C67 O69 1.282 . S
O68 Cd60 2.277 . S
O68 C61 1.226 . S
O69 Cd60 2.356 . S
O69 C67 1.282 . S
C70 O71 1.306 . S
C70 O73 1.160 . S
O71 C70 1.306 . S
O71 Cd72 2.228 . S
Cd72 O71 2.228 . S
Cd72 O76 2.273 1_554 S
Cd72 O80 2.277 . S
O73 C70 1.160 . S
O73 Cd74 2.203 . S
Cd74 O73 2.203 . S
Cd74 O76 2.411 1_554 S
Cd74 O77 2.333 1_554 S
Cd74 O78 2.352 . S
Cd74 O82 2.277 . S
Cd74 O83 2.356 . S
C75 O80 1.209 . S
C75 O82 1.226 . S
O76 Cd72 2.273 1_556 S
O76 Cd74 2.411 1_556 S
O76 C79 1.320 . S
O77 Cd74 2.333 1_556 S
O77 C79 1.214 . S
O78 Cd74 2.352 . S
O78 C81 1.258 . S
C79 O76 1.320 . S
C79 O77 1.214 . S
O80 Cd72 2.277 . S
O80 C75 1.209 . S
C81 O78 1.258 . S
C81 O83 1.282 . S
O82 Cd74 2.277 . S
O82 C75 1.226 . S
O83 Cd74 2.356 . S
O83 C81 1.282 . S
C84 O85 1.306 . S
C84 O87 1.160 . S
O85 C84 1.306 . S
O85 Cd86 2.228 . S
Cd86 O85 2.228 . S
Cd86 O90 2.273 . S
Cd86 O94 2.277 . S
O87 C84 1.160 . S
O87 Cd88 2.203 . S
Cd88 O87 2.203 . S
Cd88 O90 2.411 . S
Cd88 O91 2.333 . S
Cd88 O92 2.352 . S
Cd88 O96 2.277 . S
Cd88 O97 2.356 . S
C89 O94 1.209 . S
C89 O96 1.226 . S
O90 Cd86 2.273 . S
O90 Cd88 2.411 . S
O90 C93 1.320 . S
O91 Cd88 2.333 . S
O91 C93 1.214 . S
O92 Cd88 2.352 . S
O92 C95 1.258 . S
C93 O90 1.320 . S
C93 O91 1.214 . S
O94 Cd86 2.277 . S
O94 C89 1.209 . S
C95 O92 1.258 . S
C95 O97 1.282 . S
O96 Cd88 2.277 . S
O96 C89 1.226 . S
O97 Cd88 2.356 . S
O97 C95 1.282 . S
C98 O99 1.306 . S
C98 O101 1.160 . S
O99 C98 1.306 . S
O99 Cd100 2.228 . S
Cd100 O99 2.228 . S
Cd100 O104 2.273 1_554 S
Cd100 O108 2.277 . S
O101 C98 1.160 . S
O101 Cd102 2.203 . S
Cd102 O101 2.203 . S
Cd102 O104 2.411 1_554 S
Cd102 O105 2.333 1_554 S
Cd102 O106 2.352 . S
Cd102 O110 2.277 . S
Cd102 O111 2.356 . S
C103 O108 1.209 . S
C103 O110 1.226 . S
O104 Cd100 2.273 1_556 S
O104 Cd102 2.411 1_556 S
O104 C107 1.320 . S
O105 Cd102 2.333 1_556 S
O105 C107 1.214 . S
O106 Cd102 2.352 . S
O106 C109 1.258 . S
C107 O104 1.320 . S
C107 O105 1.214 . S
O108 Cd100 2.277 . S
O108 C103 1.209 . S
C109 O106 1.258 . S
C109 O111 1.282 . S
O110 Cd102 2.277 . S
O110 C103 1.226 . S
O111 Cd102 2.356 . S
O111 C109 1.282 . S
H112 C118 0.930 . S
H113 C122 0.930 . S
H114 C127 0.929 . S
H115 C125 0.929 . S
H116 C120 0.929 . S
H117 C126 0.929 . S
C118 H112 0.930 . S
C118 C119 1.367 . S
C118 C126 1.378 . S
C119 C118 1.367 . S
C119 C127 1.433 . S
C120 H116 0.929 . S
C120 C122 1.378 . S
C120 C124 1.350 . S
C121 C124 1.463 . S
C121 C126 1.350 . S
C121 N129 1.427 . S
C122 H113 0.930 . S
C122 C120 1.378 . S
C122 C123 1.367 . S
C123 C122 1.367 . S
C123 C125 1.433 . S
C124 C120 1.350 . S
C124 C121 1.463 . S
C124 N128 1.427 . S
C125 H115 0.929 . S
C125 C123 1.433 . S
C125 N128 1.384 . S
C126 H117 0.929 . S
C126 C118 1.378 . S
C126 C121 1.350 . S
C127 H114 0.929 . S
C127 C119 1.433 . S
C127 N129 1.384 . S
N128 C124 1.427 . S
N128 C125 1.384 . S
N129 C121 1.427 . S
N129 C127 1.384 . S
H130 C136 0.930 . S
H131 C140 0.930 . S
H132 C145 0.929 . S
H133 C143 0.929 . S
H134 C138 0.929 . S
H135 C144 0.929 . S
C136 H130 0.930 . S
C136 C137 1.367 . S
C136 C144 1.378 . S
C137 C136 1.367 . S
C137 C145 1.433 . S
C138 H134 0.929 . S
C138 C140 1.378 . S
C138 C142 1.350 . S
C139 C142 1.463 . S
C139 C144 1.350 . S
C139 N147 1.427 . S
C140 H131 0.930 . S
C140 C138 1.378 . S
C140 C141 1.367 . S
C141 C140 1.367 . S
C141 C143 1.433 . S
C142 C138 1.350 . S
C142 C139 1.463 . S
C142 N146 1.427 . S
C143 H133 0.929 . S
C143 C141 1.433 . S
C143 N146 1.384 . S
C144 H135 0.929 . S
C144 C136 1.378 . S
C144 C139 1.350 . S
C145 H132 0.929 . S
C145 C137 1.433 . S
C145 N147 1.384 . S
N146 C142 1.427 . S
N146 C143 1.384 . S
N147 C139 1.427 . S
N147 C145 1.384 . S
H148 C154 0.930 . S
H149 C158 0.930 . S
H150 C163 0.929 . S
H151 C161 0.929 . S
H152 C156 0.929 . S
H153 C162 0.929 . S
C154 H148 0.930 . S
C154 C155 1.367 . S
C154 C162 1.378 . S
C155 C154 1.367 . S
C155 C163 1.433 . S
C156 H152 0.929 . S
C156 C158 1.378 . S
C156 C160 1.350 . S
C157 C160 1.463 . S
C157 C162 1.350 . S
C157 N165 1.427 . S
C158 H149 0.930 . S
C158 C156 1.378 . S
C158 C159 1.367 . S
C159 C158 1.367 . S
C159 C161 1.433 . S
C160 C156 1.350 . S
C160 C157 1.463 . S
C160 N164 1.427 . S
C161 H151 0.929 . S
C161 C159 1.433 . S
C161 N164 1.384 . S
C162 H153 0.929 . S
C162 C154 1.378 . S
C162 C157 1.350 . S
C163 H150 0.929 . S
C163 C155 1.433 . S
C163 N165 1.384 . S
N164 C160 1.427 . S
N164 C161 1.384 . S
N165 C157 1.427 . S
N165 C163 1.384 . S
H166 C172 0.930 . S
H167 C176 0.930 . S
H168 C181 0.929 . S
H169 C179 0.929 . S
H170 C174 0.929 . S
H171 C180 0.929 . S
C172 H166 0.930 . S
C172 C173 1.367 . S
C172 C180 1.378 . S
C173 C172 1.367 . S
C173 C181 1.433 . S
C174 H170 0.929 . S
C174 C176 1.378 . S
C174 C178 1.350 . S
C175 C178 1.463 . S
C175 C180 1.350 . S
C175 N183 1.427 . S
C176 H167 0.930 . S
C176 C174 1.378 . S
C176 C177 1.367 . S
C177 C176 1.367 . S
C177 C179 1.433 . S
C178 C174 1.350 . S
C178 C175 1.463 . S
C178 N182 1.427 . S
C179 H169 0.929 . S
C179 C177 1.433 . S
C179 N182 1.384 . S
C180 H171 0.929 . S
C180 C172 1.378 . S
C180 C175 1.350 . S
C181 H168 0.929 . S
C181 C173 1.433 . S
C181 N183 1.384 . S
N182 C178 1.427 . S
N182 C179 1.384 . S
N183 C175 1.427 . S
N183 C181 1.384 . S
H184 C190 0.930 . S
H185 C194 0.930 . S
H186 C199 0.929 . S
H187 C197 0.929 . S
H188 C192 0.929 . S
H189 C198 0.929 . S
C190 H184 0.930 . S
C190 C191 1.367 . S
C190 C198 1.378 . S
C191 C190 1.367 . S
C191 C199 1.433 . S
C192 H188 0.929 . S
C192 C194 1.378 . S
C192 C196 1.350 . S
C193 C196 1.463 . S
C193 C198 1.350 . S
C193 N201 1.427 . S
C194 H185 0.930 . S
C194 C192 1.378 . S
C194 C195 1.367 . S
C195 C194 1.367 . S
C195 C197 1.433 . S
C196 C192 1.350 . S
C196 C193 1.463 . S
C196 N200 1.427 . S
C197 H187 0.929 . S
C197 C195 1.433 . S
C197 N200 1.384 . S
C198 H189 0.929 . S
C198 C190 1.378 . S
C198 C193 1.350 . S
C199 H186 0.929 . S
C199 C191 1.433 . S
C199 N201 1.384 . S
N200 C196 1.427 . S
N200 C197 1.384 . S
N201 C193 1.427 . S
N201 C199 1.384 . S
H202 C208 0.930 . S
H203 C212 0.930 . S
H204 C217 0.929 . S
H205 C215 0.929 . S
H206 C210 0.929 . S
H207 C216 0.929 . S
C208 H202 0.930 . S
C208 C209 1.367 . S
C208 C216 1.378 . S
C209 C208 1.367 . S
C209 C217 1.433 . S
C210 H206 0.929 . S
C210 C212 1.378 . S
C210 C214 1.350 . S
C211 C214 1.463 . S
C211 C216 1.350 . S
C211 N219 1.427 . S
C212 H203 0.930 . S
C212 C210 1.378 . S
C212 C213 1.367 . S
C213 C212 1.367 . S
C213 C215 1.433 . S
C214 C210 1.350 . S
C214 C211 1.463 . S
C214 N218 1.427 . S
C215 H205 0.929 . S
C215 C213 1.433 . S
C215 N218 1.384 . S
C216 H207 0.929 . S
C216 C208 1.378 . S
C216 C211 1.350 . S
C217 H204 0.929 . S
C217 C209 1.433 . S
C217 N219 1.384 . S
N218 C214 1.427 . S
N218 C215 1.384 . S
N219 C211 1.427 . S
N219 C217 1.384 . S
H220 C226 0.930 . S
H221 C230 0.930 . S
H222 C235 0.929 . S
H223 C233 0.929 . S
H224 C228 0.929 . S
H225 C234 0.929 . S
C226 H220 0.930 . S
C226 C227 1.367 . S
C226 C234 1.378 . S
C227 C226 1.367 . S
C227 C235 1.433 . S
C228 H224 0.929 . S
C228 C230 1.378 . S
C228 C232 1.350 . S
C229 C232 1.463 . S
C229 C234 1.350 . S
C229 N237 1.427 . S
C230 H221 0.930 . S
C230 C228 1.378 . S
C230 C231 1.367 . S
C231 C230 1.367 . S
C231 C233 1.433 . S
C232 C228 1.350 . S
C232 C229 1.463 . S
C232 N236 1.427 . S
C233 H223 0.929 . S
C233 C231 1.433 . S
C233 N236 1.384 . S
C234 H225 0.929 . S
C234 C226 1.378 . S
C234 C229 1.350 . S
C235 H222 0.929 . S
C235 C227 1.433 . S
C235 N237 1.384 . S
N236 C232 1.427 . S
N236 C233 1.384 . S
N237 C229 1.427 . S
N237 C235 1.384 . S
H238 C244 0.930 . S
H239 C248 0.930 . S
H240 C253 0.929 . S
H241 C251 0.929 . S
H242 C246 0.929 . S
H243 C252 0.929 . S
C244 H238 0.930 . S
C244 C245 1.367 . S
C244 C252 1.378 . S
C245 C244 1.367 . S
C245 C253 1.433 . S
C246 H242 0.929 . S
C246 C248 1.378 . S
C246 C250 1.350 . S
C247 C250 1.463 . S
C247 C252 1.350 . S
C247 N255 1.427 . S
C248 H239 0.930 . S
C248 C246 1.378 . S
C248 C249 1.367 . S
C249 C248 1.367 . S
C249 C251 1.433 . S
C250 C246 1.350 . S
C250 C247 1.463 . S
C250 N254 1.427 . S
C251 H241 0.929 . S
C251 C249 1.433 . S
C251 N254 1.384 . S
C252 H243 0.929 . S
C252 C244 1.378 . S
C252 C247 1.350 . S
C253 H240 0.929 . S
C253 C245 1.433 . S
C253 N255 1.384 . S
N254 C250 1.427 . S
N254 C251 1.384 . S
N255 C247 1.427 . S
N255 C253 1.384 . S
H256 C262 0.930 . S
H257 C266 0.930 . S
H258 C271 0.929 . S
H259 C269 0.929 . S
H260 C264 0.929 . S
H261 C270 0.929 . S
C262 H256 0.930 . S
C262 C263 1.367 . S
C262 C270 1.378 . S
C263 C262 1.367 . S
C263 C271 1.433 1_554 S
C264 H260 0.929 . S
C264 C266 1.378 . S
C264 C268 1.350 1_556 S
C265 C268 1.463 1_655 S
C265 C270 1.350 . S
C265 N273 1.427 1_554 S
C266 H257 0.930 . S
C266 C264 1.378 . S
C266 C267 1.367 1_556 S
C267 C266 1.367 1_554 S
C267 C269 1.433 . S
C268 C264 1.350 1_554 S
C268 C265 1.463 1_455 S
C268 N272 1.427 . S
C269 H259 0.929 . S
C269 C267 1.433 . S
C269 N272 1.384 . S
C270 H261 0.929 . S
C270 C262 1.378 . S
C270 C265 1.350 . S
C271 H258 0.929 . S
C271 C263 1.433 1_556 S
C271 N273 1.384 . S
N272 C268 1.427 . S
N272 C269 1.384 . S
N273 C265 1.427 1_556 S
N273 C271 1.384 . S
H274 C280 0.930 . S
H275 C284 0.930 . S
H276 C289 0.929 . S
H277 C287 0.929 . S
H278 C282 0.929 . S
H279 C288 0.929 . S
C280 H274 0.930 . S
C280 C281 1.367 . S
C280 C288 1.378 . S
C281 C280 1.367 . S
C281 C289 1.433 . S
C282 H278 0.929 . S
C282 C284 1.378 . S
C282 C286 1.350 . S
C283 C286 1.463 1_565 S
C283 C288 1.350 . S
C283 N291 1.427 . S
C284 H275 0.930 . S
C284 C282 1.378 . S
C284 C285 1.367 . S
C285 C284 1.367 . S
C285 C287 1.433 . S
C286 C282 1.350 . S
C286 C283 1.463 1_545 S
C286 N290 1.427 . S
C287 H277 0.929 . S
C287 C285 1.433 . S
C287 N290 1.384 . S
C288 H279 0.929 . S
C288 C280 1.378 . S
C288 C283 1.350 . S
C289 H276 0.929 . S
C289 C281 1.433 . S
C289 N291 1.384 . S
N290 C286 1.427 . S
N290 C287 1.384 . S
N291 C283 1.427 . S
N291 C289 1.384 . S
H292 C298 0.930 . S
H293 C302 0.930 . S
H294 C307 0.929 . S
H295 C305 0.929 . S
H296 C300 0.929 . S
H297 C306 0.929 . S
C298 H292 0.930 . S
C298 C299 1.367 . S
C298 C306 1.378 . S
C299 C298 1.367 . S
C299 C307 1.433 . S
C300 H296 0.929 . S
C300 C302 1.378 . S
C300 C304 1.350 . S
C301 C304 1.463 1_455 S
C301 C306 1.350 . S
C301 N309 1.427 . S
C302 H293 0.930 . S
C302 C300 1.378 . S
C302 C303 1.367 . S
C303 C302 1.367 . S
C303 C305 1.433 . S
C304 C300 1.350 . S
C304 C301 1.463 1_655 S
C304 N308 1.427 . S
C305 H295 0.929 . S
C305 C303 1.433 . S
C305 N308 1.384 . S
C306 H297 0.929 . S
C306 C298 1.378 . S
C306 C301 1.350 . S
C307 H294 0.929 . S
C307 C299 1.433 . S
C307 N309 1.384 . S
N308 C304 1.427 . S
N308 C305 1.384 . S
N309 C301 1.427 . S
N309 C307 1.384 . S
H310 C316 0.930 . S
H311 C320 0.930 . S
H312 C325 0.929 . S
H313 C323 0.929 . S
H314 C318 0.929 . S
H315 C324 0.929 . S
C316 H310 0.930 . S
C316 C317 1.367 . S
C316 C324 1.378 . S
C317 C316 1.367 . S
C317 C325 1.433 1_554 S
C318 H314 0.929 . S
C318 C320 1.378 . S
C318 C322 1.350 1_556 S
C319 C322 1.463 1_565 S
C319 C324 1.350 . S
C319 N327 1.427 1_554 S
C320 H311 0.930 . S
C320 C318 1.378 . S
C320 C321 1.367 1_556 S
C321 C320 1.367 1_554 S
C321 C323 1.433 . S
C322 C318 1.350 1_554 S
C322 C319 1.463 1_545 S
C322 N326 1.427 . S
C323 H313 0.929 . S
C323 C321 1.433 . S
C323 N326 1.384 . S
C324 H315 0.929 . S
C324 C316 1.378 . S
C324 C319 1.350 . S
C325 H312 0.929 . S
C325 C317 1.433 1_556 S
C325 N327 1.384 . S
N326 C322 1.427 . S
N326 C323 1.384 . S
N327 C319 1.427 1_556 S
N327 C325 1.384 . S
H328 C334 0.930 1_556 S
H329 C338 0.930 . S
H330 C343 0.929 . S
H331 C341 0.929 1_556 S
H332 C336 0.929 . S
H333 C342 0.929 1_556 S
C334 H328 0.930 1_554 S
C334 C335 1.367 . S
C334 C342 1.378 . S
C335 C334 1.367 . S
C335 C343 1.433 . S
C336 H332 0.929 . S
C336 C338 1.378 . S
C336 C340 1.350 . S
C337 C340 1.463 . S
C337 C342 1.350 . S
C337 N345 1.427 . S
C338 H329 0.930 . S
C338 C336 1.378 . S
C338 C339 1.367 . S
C339 C338 1.367 . S
C339 C341 1.433 . S
C340 C336 1.350 . S
C340 C337 1.463 . S
C340 N344 1.427 . S
C341 H331 0.929 1_554 S
C341 C339 1.433 . S
C341 N344 1.384 . S
C342 H333 0.929 1_554 S
C342 C334 1.378 . S
C342 C337 1.350 . S
C343 H330 0.929 . S
C343 C335 1.433 . S
C343 N345 1.384 . S
N344 C340 1.427 . S
N344 C341 1.384 . S
N345 C337 1.427 . S
N345 C343 1.384 . S
H346 C352 0.930 . S
H347 C356 0.930 . S
H348 C361 0.929 . S
H349 C359 0.929 . S
H350 C354 0.929 . S
H351 C360 0.929 . S
C352 H346 0.930 . S
C352 C353 1.367 . S
C352 C360 1.378 . S
C353 C352 1.367 . S
C353 C361 1.433 . S
C354 H350 0.929 . S
C354 C356 1.378 . S
C354 C358 1.350 . S
C355 C358 1.463 . S
C355 C360 1.350 . S
C355 N363 1.427 . S
C356 H347 0.930 . S
C356 C354 1.378 . S
C356 C357 1.367 . S
C357 C356 1.367 . S
C357 C359 1.433 . S
C358 C354 1.350 . S
C358 C355 1.463 . S
C358 N362 1.427 . S
C359 H349 0.929 . S
C359 C357 1.433 . S
C359 N362 1.384 . S
C360 H351 0.929 . S
C360 C352 1.378 . S
C360 C355 1.350 . S
C361 H348 0.929 . S
C361 C353 1.433 . S
C361 N363 1.384 . S
N362 C358 1.427 . S
N362 C359 1.384 . S
N363 C355 1.427 . S
N363 C361 1.384 . S
H364 C370 0.930 . S
H365 C374 0.930 . S
H366 C379 0.929 . S
H367 C377 0.929 . S
H368 C372 0.929 . S
H369 C378 0.929 . S
C370 H364 0.930 . S
C370 C371 1.367 1_556 S
C370 C378 1.378 . S
C371 C370 1.367 1_554 S
C371 C379 1.433 . S
C372 H368 0.929 . S
C372 C374 1.378 . S
C372 C376 1.350 . S
C373 C376 1.463 . S
C373 C378 1.350 1_554 S
C373 N381 1.427 . S
C374 H365 0.930 . S
C374 C372 1.378 . S
C374 C375 1.367 . S
C375 C374 1.367 . S
C375 C377 1.433 1_554 S
C376 C372 1.350 . S
C376 C373 1.463 . S
C376 N380 1.427 1_554 S
C377 H367 0.929 . S
C377 C375 1.433 1_556 S
C377 N380 1.384 . S
C378 H369 0.929 . S
C378 C370 1.378 . S
C378 C373 1.350 1_556 S
C379 H366 0.929 . S
C379 C371 1.433 . S
C379 N381 1.384 . S
N380 C376 1.427 1_556 S
N380 C377 1.384 . S
N381 C373 1.427 . S
N381 C379 1.384 . S
H382 C388 0.930 . S
H383 C392 0.930 . S
H384 C397 0.929 . S
H385 C395 0.929 . S
H386 C390 0.929 . S
H387 C396 0.929 . S
C388 H382 0.930 . S
C388 C389 1.367 . S
C388 C396 1.378 . S
C389 C388 1.367 . S
C389 C397 1.433 . S
C390 H386 0.929 . S
C390 C392 1.378 . S
C390 C394 1.350 . S
C391 C394 1.463 . S
C391 C396 1.350 . S
C391 N399 1.427 . S
C392 H383 0.930 . S
C392 C390 1.378 . S
C392 C393 1.367 . S
C393 C392 1.367 . S
C393 C395 1.433 . S
C394 C390 1.350 . S
C394 C391 1.463 . S
C394 N398 1.427 . S
C395 H385 0.929 . S
C395 C393 1.433 . S
C395 N398 1.384 . S
C396 H387 0.929 . S
C396 C388 1.378 . S
C396 C391 1.350 . S
C397 H384 0.929 . S
C397 C389 1.433 . S
C397 N399 1.384 . S
N398 C394 1.427 . S
N398 C395 1.384 . S
N399 C391 1.427 . S
N399 C397 1.384 . S
C119 C9 1.287 . S
C123 C65 1.285 . S
C137 C23 1.290 . S
C141 C79 1.295 . S
C155 C93 1.289 . S
C159 C37 1.286 . S
C173 C107 1.301 . S
C177 C51 1.298 . S
C191 C84 1.232 . S
C195 C28 1.226 . S
C209 C98 1.229 . S
C213 C42 1.221 . S
C227 C0 1.231 . S
C231 C56 1.222 . S
C245 C14 1.223 . S
C249 C70 1.222 . S
C263 C33 1.360 . S
C267 C5 1.360 . S
C281 C47 1.365 . S
C285 C19 1.365 . S
C299 C61 1.360 . S
C303 C89 1.360 . S
C317 C103 1.365 . S
C321 C75 1.365 . S
C335 C11 1.342 . S
C339 C81 1.342 . S
C353 C95 1.342 . S
C357 C25 1.342 . S
C371 C39 1.342 . S
C375 C109 1.342 . S
C389 C53 1.342 . S
C393 C67 1.342 . S
