# Generated by pormake.
# Topology utk, (3)-cn, num edge types: 1
# Building blocks:
#     Node 0, Type 0, BuildingBlock: WUSLED_clean_sbu_0, # of connection points: 3
#     Node 1, Type 0, BuildingBlock: WUSLED_clean_sbu_0, # of connection points: 3
#     Node 2, Type 0, BuildingBlock: WUSLED_clean_sbu_0, # of connection points: 3
#     Node 3, Type 0, BuildingBlock: WUSLED_clean_sbu_0, # of connection points: 3
#     Node 4, Type 0, BuildingBlock: WUSLED_clean_sbu_0, # of connection points: 3
#     Node 5, Type 0, BuildingBlock: WUSLED_clean_sbu_0, # of connection points: 3
#     Node 6, Type 0, BuildingBlock: WUSLED_clean_sbu_0, # of connection points: 3
#     Node 7, Type 0, BuildingBlock: WUSLED_clean_sbu_0, # of connection points: 3
#     Edge 8, Type (0, 0), BuildingBlock: OJICUG_clean_linker_0, # of connection points: 2
#     Edge 9, Type (0, 0), BuildingBlock: OJICUG_clean_linker_0, # of connection points: 2
#     Edge 10, Type (0, 0), BuildingBlock: OJICUG_clean_linker_0, # of connection points: 2
#     Edge 11, Type (0, 0), BuildingBlock: OJICUG_clean_linker_0, # of connection points: 2
#     Edge 12, Type (0, 0), BuildingBlock: OJICUG_clean_linker_0, # of connection points: 2
#     Edge 13, Type (0, 0), BuildingBlock: OJICUG_clean_linker_0, # of connection points: 2
#     Edge 14, Type (0, 0), BuildingBlock: OJICUG_clean_linker_0, # of connection points: 2
#     Edge 15, Type (0, 0), BuildingBlock: OJICUG_clean_linker_0, # of connection points: 2
#     Edge 16, Type (0, 0), BuildingBlock: OJICUG_clean_linker_0, # of connection points: 2
#     Edge 17, Type (0, 0), BuildingBlock: OJICUG_clean_linker_0, # of connection points: 2
#     Edge 18, Type (0, 0), BuildingBlock: OJICUG_clean_linker_0, # of connection points: 2
#     Edge 19, Type (0, 0), BuildingBlock: OJICUG_clean_linker_0, # of connection points: 2
# Relax obj value: 0.068
# Max RMSD: 0.072
# Mean RMSD: 0.072
data_MOF--net-utk--node1-WUSLED_clean_sbu_0--edge1-OJICUG_clean_linker_0
_symmetry_space_group_name_H-M    P1
_symmetry_Int_Tables_number       1
_symmetry_cell_setting            triclinic
loop_
_symmetry_equiv_pos_as_xyz
'x, y, z'
_cell_length_a     39.779335
_cell_length_b     39.840978
_cell_length_c     42.706854
_cell_angle_alpha  89.954418
_cell_angle_beta   90.0008
_cell_angle_gamma 89.999644
loop_
_atom_site_label
_atom_site_type_symbol
_atom_site_fract_x
_atom_site_fract_y
_atom_site_fract_z
_atom_type_partial_charge
C0 C 0.05228 0.23447 0.1428 0.0
C1 C 0.03052 0.25914 0.13093 0.0
C2 C 0.0327 0.23355 0.07903 0.0
C3 C 0.02071 0.25859 0.09946 0.0
C4 C 0.05456 0.20889 0.09113 0.0
C5 C 0.0642 0.20937 0.12269 0.0
U6 U 0.06748 0.284 0.21709 0.0
O7 O 0.05734 0.27261 0.26678 0.0
O8 O 0.10886 0.28349 0.25121 0.0
C9 C 0.08925 0.27463 0.2746 0.0
C10 C 0.06336 0.2354 0.17579 0.0
C11 C 0.10217 0.24893 0.29653 0.0
C12 C 0.14199 0.20499 0.31067 0.0
C13 C 0.12741 0.226 0.28804 0.0
C14 C 0.10554 0.22875 0.35025 0.0
C15 C 0.13171 0.20663 0.34222 0.0
C16 C 0.09101 0.24964 0.32768 0.0
C17 C 0.04792 0.37819 0.21431 0.0
C18 C 0.06877 0.41948 0.25142 0.0
C19 C 0.02457 0.43454 0.21499 0.0
C20 C 0.02537 0.4021 0.20253 0.0
C21 C 0.04647 0.4437 0.23939 0.0
C22 C 0.0694 0.38695 0.23907 0.0
C23 C 0.04921 0.34465 0.19994 0.0
O24 O 0.09116 0.25233 0.18099 0.0
O25 O 0.0397 0.24167 0.1965 0.0
O26 O 0.07944 0.3324 0.19512 0.0
O27 O 0.02806 0.3224 0.21126 0.0
H28 H 0.02114 0.2789 0.146 0.0
H29 H 1.00349 0.2777 0.09123 0.0
H30 H 0.06474 0.18953 0.0761 0.0
H31 H 0.08125 0.19028 0.13133 0.0
H32 H 0.16222 0.18844 0.30367 0.0
H33 H 0.13657 0.22498 0.26417 0.0
H34 H 0.09657 0.23029 0.37415 0.0
H35 H 0.07162 0.26715 0.3348 0.0
H36 H 0.08564 0.42564 0.27048 0.0
H37 H 1.00732 0.45267 0.20503 0.0
H38 H 1.00862 0.39578 0.18341 0.0
H39 H 0.08683 0.36875 0.24865 0.0
C40 C 0.79105 0.05074 0.39283 0.0
C41 C 0.76702 0.02814 0.3812 0.0
C42 C 0.79208 0.03116 0.32908 0.0
C43 C 0.76763 0.01833 0.34974 0.0
C44 C 0.81612 0.05382 0.34093 0.0
C45 C 0.8156 0.06347 0.37248 0.0
U46 U 0.74121 0.06564 0.46705 0.0
O47 O 0.75288 0.05628 0.51683 0.0
O48 O 0.74095 0.10731 0.50074 0.0
C49 C 0.75016 0.08816 0.52433 0.0
C50 C 0.78994 0.06196 0.42576 0.0
C51 C 0.77575 0.1019 0.54586 0.0
C52 C 0.82235 0.13948 0.55749 0.0
C53 C 0.80115 0.12381 0.53568 0.0
C54 C 0.79382 0.11056 0.59969 0.0
C55 C 0.81853 0.13353 0.58986 0.0
C56 C 0.77271 0.09498 0.57793 0.0
C57 C 0.64715 0.04503 0.46452 0.0
C58 C 0.60583 0.06576 0.50171 0.0
C59 C 0.59067 0.02184 0.46512 0.0
C60 C 0.62318 0.02262 0.45267 0.0
C61 C 0.58152 0.04362 0.48958 0.0
C62 C 0.63841 0.06636 0.48936 0.0
C63 C 0.68072 0.04644 0.45009 0.0
O64 O 0.77259 0.0895 0.43079 0.0
O65 O 0.784 0.03837 0.44662 0.0
O66 O 0.69264 0.0767 0.4449 0.0
O67 O 0.70324 0.02573 0.46167 0.0
H68 H 0.74768 0.01814 0.39645 0.0
H69 H 0.74902 1.00048 0.34171 0.0
H70 H 0.83501 0.06466 0.32572 0.0
H71 H 0.83417 0.08117 0.38093 0.0
H72 H 0.84141 0.15664 0.54903 0.0
H73 H 0.80406 0.12948 0.51102 0.0
H74 H 0.78975 0.10565 0.62434 0.0
H75 H 0.75314 0.07831 0.58631 0.0
H76 H 0.59969 0.08252 0.52082 0.0
H77 H 0.57247 1.00472 0.45509 0.0
H78 H 0.62948 1.00599 0.43348 0.0
H79 H 0.65667 0.08369 0.49899 0.0
C80 C 0.97196 0.78888 0.64248 0.0
C81 C 0.99579 0.76574 0.63145 0.0
C82 C 0.9929 0.79026 0.57909 0.0
C83 C 1.00626 0.76652 0.60016 0.0
C84 C 0.96909 0.81349 0.59039 0.0
C85 C 0.95877 0.81279 0.62176 0.0
U86 U 0.95696 0.73844 0.7163 0.0
O87 O 0.96307 0.75037 0.76627 0.0
O88 O 0.91348 0.73562 0.74822 0.0
C89 C 0.93101 0.74578 0.77253 0.0
C90 C 0.9597 0.78726 0.67508 0.0
C91 C 0.91453 0.76995 0.79385 0.0
C92 C 0.91264 0.8231 0.82205 0.0
C93 C 0.92714 0.80243 0.79909 0.0
C94 C 0.87246 0.77938 0.83424 0.0
C95 C 0.88544 0.81157 0.84027 0.0
C96 C 0.88686 0.75886 0.81138 0.0
C97 C 0.98193 0.64569 0.71466 0.0
C98 C 0.96159 0.60421 0.75185 0.0
C99 C 1.00585 0.58959 0.71534 0.0
C100 C 1.00472 0.62205 0.70287 0.0
C101 C 0.98403 0.58018 0.73974 0.0
C102 C 0.96063 0.63673 0.73949 0.0
C103 C 0.9799 0.67911 0.7001 0.0
O104 O 0.93287 0.76856 0.6793 0.0
O105 O 0.98283 0.78252 0.69667 0.0
O106 O 0.94939 0.68962 0.69355 0.0
O107 O 0.99894 0.70249 0.71261 0.0
H108 H 1.00615 0.74688 0.64699 0.0
H109 H 0.02497 0.74856 0.59256 0.0
H110 H 0.95783 0.8318 0.57485 0.0
H111 H 0.94012 0.83066 0.62974 0.0
H112 H 0.92334 0.8477 0.82614 0.0
H113 H 0.94857 0.81158 0.78598 0.0
H114 H 0.85113 0.7699 0.8473 0.0
H115 H 0.87676 0.73389 0.80783 0.0
H116 H 0.9448 0.59787 0.77093 0.0
H117 H 0.02321 0.57161 0.70533 0.0
H118 H 0.02132 0.62854 0.68368 0.0
H119 H 0.94299 0.65474 0.74904 0.0
C120 C 0.23518 0.97253 0.89288 0.0
C121 C 0.25924 0.99512 0.88126 0.0
C122 C 0.23417 0.99229 0.82914 0.0
C123 C 0.25864 1.00502 0.84982 0.0
C124 C 0.2101 0.96962 0.84098 0.0
C125 C 0.21061 0.95989 0.87253 0.0
U126 U 0.28509 0.95735 0.96702 0.0
O127 O 0.27374 0.96686 0.0168 0.0
O128 O 0.28515 0.91571 1.00083 0.0
C129 C 0.27634 0.93499 0.02442 0.0
C130 C 0.23627 0.96125 0.92582 0.0
C131 C 0.25082 0.92153 0.04616 0.0
C132 C 0.20138 0.88767 0.05755 0.0
C133 C 0.22319 0.90264 0.0358 0.0
C134 C 0.23408 0.91106 0.10007 0.0
C135 C 0.20683 0.8913 0.09002 0.0
C136 C 0.25576 0.92598 0.07838 0.0
C137 C 0.37918 0.97786 0.96424 0.0
C138 C 0.4207 0.95714 1.00129 0.0
C139 C 0.43547 1.00151 0.96497 0.0
C140 C 0.40297 1.00056 0.95252 0.0
C141 C 0.44481 0.97959 0.9893 0.0
C142 C 0.38811 0.95638 0.98895 0.0
C143 C 0.34558 0.97639 0.94989 0.0
O144 O 0.25353 0.93363 0.93084 0.0
O145 O 0.24232 0.98477 0.94667 0.0
O146 O 0.33361 0.94613 0.94485 0.0
O147 O 0.32311 0.99717 0.9614 0.0
H148 H 0.2786 1.00506 0.89651 0.0
H149 H 0.27728 0.02287 0.84179 0.0
H150 H 0.1912 0.95885 0.82577 0.0
H151 H 0.19201 0.9422 0.88096 0.0
H152 H 0.18041 0.87301 0.04892 0.0
H153 H 0.21885 0.89895 1.011 0.0
H154 H 0.23946 0.91407 0.12476 0.0
H155 H 0.27706 0.94029 0.08686 0.0
H156 H 0.42699 0.94027 0.0203 0.0
H157 H 0.45352 0.01887 0.95504 0.0
H158 H 0.39651 0.01731 0.93344 0.0
H159 H 0.37 0.93882 0.9985 0.0
C160 C 0.05224 0.78925 0.38381 0.0
C161 C 0.03047 0.76459 0.39569 0.0
C162 C 0.03267 0.79017 0.44759 0.0
C163 C 0.02067 0.76514 0.42716 0.0
C164 C 0.05453 0.81483 0.43549 0.0
C165 C 0.06417 0.81435 0.40393 0.0
U166 U 0.06744 0.73972 0.30953 0.0
O167 O 0.0573 0.7511 0.25984 0.0
O168 O 0.10882 0.74024 0.27541 0.0
C169 C 0.0892 0.74909 0.25202 0.0
C170 C 0.06331 0.78833 0.35083 0.0
C171 C 0.10212 0.77478 0.23008 0.0
C172 C 0.14193 0.81872 0.21593 0.0
C173 C 0.12736 0.79772 0.23857 0.0
C174 C 0.10548 0.79496 0.17636 0.0
C175 C 0.13164 0.81708 0.18439 0.0
C176 C 0.09095 0.77407 0.19894 0.0
C177 C 0.0479 0.64552 0.31232 0.0
C178 C 0.06876 0.60424 0.27522 0.0
C179 C 0.02456 0.58918 0.31165 0.0
C180 C 0.02536 0.62162 0.3241 0.0
C181 C 0.04646 0.58002 0.28725 0.0
C182 C 0.06938 0.63677 0.28756 0.0
C183 C 0.04918 0.67907 0.32669 0.0
O184 O 0.09112 0.7714 0.34563 0.0
O185 O 0.03965 0.78205 0.33012 0.0
O186 O 0.07942 0.69132 0.33151 0.0
O187 O 0.02802 0.70131 0.31536 0.0
H188 H 0.02109 0.74483 0.38061 0.0
H189 H 1.00344 0.74603 0.43538 0.0
H190 H 0.06472 0.83419 0.45052 0.0
H191 H 0.08121 0.83344 0.39528 0.0
H192 H 0.16217 0.83528 0.22293 0.0
H193 H 0.13652 0.79874 0.26244 0.0
H194 H 0.09651 0.79341 0.15246 0.0
H195 H 0.07156 0.75655 0.19182 0.0
H196 H 0.08562 0.59809 0.25615 0.0
H197 H 1.00732 0.57104 0.32161 0.0
H198 H 1.00861 0.62794 0.34322 0.0
H199 H 0.08681 0.65497 0.27797 0.0
C200 C 0.23524 0.05114 0.63368 0.0
C201 C 0.25929 0.02854 0.64531 0.0
C202 C 0.2342 0.03138 0.69742 0.0
C203 C 0.25868 0.01864 0.67676 0.0
C204 C 0.21014 0.05404 0.68557 0.0
C205 C 0.21067 0.06378 0.65403 0.0
U206 U 0.28517 0.06632 0.55955 0.0
O207 O 0.27382 0.05682 0.50977 0.0
O208 O 0.28523 0.10796 0.52575 0.0
C209 C 0.27642 0.08868 0.50215 0.0
C210 C 0.23635 0.06242 0.60075 0.0
C211 C 0.2509 0.10215 0.48042 0.0
C212 C 0.20146 0.13601 0.46904 0.0
C213 C 0.22327 0.12103 0.49078 0.0
C214 C 0.23416 0.11263 0.42651 0.0
C215 C 0.20691 0.13239 0.43657 0.0
C216 C 0.25584 0.09771 0.44819 0.0
C217 C 0.37926 0.0458 0.56233 0.0
C218 C 0.42076 0.0665 0.52527 0.0
C219 C 0.43555 0.02216 0.56161 0.0
C220 C 0.40305 0.02311 0.57406 0.0
C221 C 0.44488 0.04406 0.53726 0.0
C222 C 0.38818 0.06727 0.53761 0.0
C223 C 0.34565 0.04727 0.57669 0.0
O224 O 0.25361 0.09004 0.59573 0.0
O225 O 0.2424 0.0389 0.57989 0.0
O226 O 0.33369 0.07753 0.58173 0.0
O227 O 0.32319 0.02649 0.56517 0.0
H228 H 0.27866 0.0186 0.63006 0.0
H229 H 0.27731 1.00079 0.68478 0.0
H230 H 0.19123 0.06482 0.70078 0.0
H231 H 0.19207 0.08147 0.64559 0.0
H232 H 0.18049 0.15066 0.47766 0.0
H233 H 0.21893 0.12471 0.51558 0.0
H234 H 0.23954 0.10963 0.40182 0.0
H235 H 0.27714 0.0834 0.43971 0.0
H236 H 0.42705 0.08337 0.50624 0.0
H237 H 0.45361 1.00481 0.57154 0.0
H238 H 0.3966 1.00637 0.59314 0.0
H239 H 0.37006 0.08482 0.52806 0.0
C240 C 0.97194 0.23481 0.88415 0.0
C241 C 0.99577 0.25795 0.89518 0.0
C242 C 0.99289 0.23345 0.94754 0.0
C243 C 1.00626 0.25718 0.92646 0.0
C244 C 0.96908 0.21021 0.93625 0.0
C245 C 0.95875 0.21091 0.90489 0.0
U246 U 0.95692 0.28522 0.81031 0.0
O247 O 0.963 0.27325 0.76034 0.0
O248 O 0.91342 0.28802 0.7784 0.0
C249 C 0.93094 0.27783 0.7541 0.0
C250 C 0.95967 0.23642 0.85156 0.0
C251 C 0.91444 0.25365 0.7328 0.0
C252 C 0.91277 0.20067 0.70429 0.0
C253 C 0.92729 0.22131 0.72726 0.0
C254 C 0.8721 0.24411 0.69268 0.0
C255 C 0.88532 0.21209 0.68634 0.0
C256 C 0.88652 0.2646 0.71555 0.0
C257 C 0.98191 0.37796 0.8119 0.0
C258 C 0.96155 0.41945 0.77472 0.0
C259 C 1.00586 0.43405 0.81117 0.0
C260 C 1.00473 0.40159 0.82365 0.0
C261 C 0.98402 0.44347 0.78679 0.0
C262 C 0.96058 0.38694 0.78709 0.0
C263 C 0.97987 0.34455 0.82647 0.0
O264 O 0.93283 0.25512 0.84733 0.0
O265 O 0.98279 0.24114 0.82996 0.0
O266 O 0.94936 0.33405 0.83303 0.0
O267 O 0.9989 0.32116 0.81397 0.0
H268 H 1.00613 0.2768 0.87962 0.0
H269 H 0.02497 0.27514 0.93405 0.0
H270 H 0.95782 0.19192 0.9518 0.0
H271 H 0.94009 0.19304 0.89692 0.0
H272 H 0.92366 0.1762 0.69997 0.0
H273 H 0.94892 0.21226 0.74015 0.0
H274 H 0.85058 0.2535 0.67983 0.0
H275 H 0.87623 0.28946 0.71932 0.0
H276 H 0.94473 0.4258 0.75566 0.0
H277 H 0.02325 0.45202 0.82116 0.0
H278 H 0.02135 0.39509 0.84283 0.0
H279 H 0.94292 0.36893 0.77756 0.0
C280 C 0.79104 0.97295 0.13358 0.0
C281 C 0.767 0.99553 0.14521 0.0
C282 C 0.79208 0.99252 0.19733 0.0
C283 C 0.76762 1.00534 0.17667 0.0
C284 C 0.81613 0.96987 0.18547 0.0
C285 C 0.8156 0.96023 0.15391 0.0
U286 U 0.74117 0.95805 0.05938 0.0
O287 O 0.7528 0.96743 1.0096 0.0
O288 O 0.7409 0.91639 0.02568 0.0
C289 C 0.75008 0.93555 1.00209 0.0
C290 C 0.78993 0.96174 0.10065 0.0
C291 C 0.77564 0.92183 0.98053 0.0
C292 C 0.82253 0.88458 0.96896 0.0
C293 C 0.8013 0.90023 0.99076 0.0
C294 C 0.79352 0.9129 0.92669 0.0
C295 C 0.81849 0.89024 0.93657 0.0
C296 C 0.77238 0.92846 0.94843 0.0
C297 C 0.64711 0.97863 0.06198 0.0
C298 C 0.60577 0.95791 0.0248 0.0
C299 C 0.59062 1.0018 0.06141 0.0
C300 C 0.62313 1.00102 0.07385 0.0
C301 C 0.58146 0.98003 0.03694 0.0
C302 C 0.63836 0.95731 0.03713 0.0
C303 C 0.68069 0.97723 0.07638 0.0
O304 O 0.77259 0.93419 0.09561 0.0
O305 O 0.78397 0.98533 0.07979 0.0
O306 O 0.69262 0.94697 0.08156 0.0
O307 O 0.70319 0.99794 0.0648 0.0
H308 H 0.74765 1.00553 0.12998 0.0
H309 H 0.749 0.02317 0.18472 0.0
H310 H 0.83503 0.95904 0.20067 0.0
H311 H 0.83419 0.94255 0.14546 0.0
H312 H 0.8418 0.86767 0.97746 0.0
H313 H 0.80438 0.8948 0.01545 0.0
H314 H 0.78928 0.91757 0.90202 0.0
H315 H 0.75261 0.94489 0.94003 0.0
H316 H 0.59962 0.94116 1.00568 0.0
H317 H 0.57242 0.01891 0.07146 0.0
H318 H 0.62944 0.01764 0.09305 0.0
H319 H 0.65662 0.93999 0.02748 0.0
C320 C 0.01598 0.49541 0.25759 0.0
C321 C 0.04641 0.47855 0.25185 0.0
H322 H 0.99212 0.54065 0.27312 0.0
C323 C 0.07683 0.49538 0.2577 0.0
H324 H 0.99212 0.48305 0.25353 0.0
C325 C 0.07683 0.52834 0.26893 0.0
C326 C 0.0464 0.54517 0.27479 0.0
H327 H 0.10069 0.4832 0.25322 0.0
H328 H 0.10069 0.54052 0.27342 0.0
C329 C 0.01598 0.5283 0.26905 0.0
C330 C 0.52986 0.07409 0.5079 0.0
C331 C 0.54658 0.04366 0.50199 0.0
H332 H 0.48473 0.09806 0.52362 0.0
C333 C 0.52954 0.01333 0.50762 0.0
H334 H 0.54217 0.09788 0.5035 0.0
C335 C 0.49657 0.01344 0.51904 0.0
C336 C 0.47981 0.04388 0.52484 0.0
H337 H 0.54181 0.98948 0.5035 0.0
H338 H 0.48408 0.98967 0.52302 0.0
C339 C 0.49682 0.0742 0.51909 0.0
C340 C 0.95374 0.52835 0.75776 0.0
C341 C 0.98415 0.54523 0.752 0.0
H342 H 0.92986 0.48312 0.77323 0.0
C343 C 0.01459 0.52831 0.75762 0.0
H344 H 0.92987 0.54056 0.75336 0.0
C345 C 0.01458 0.49532 0.76888 0.0
C346 C 0.98415 0.47841 0.77453 0.0
H347 H 0.03844 0.5407 0.7536 0.0
H348 H 0.03843 0.48291 0.77287 0.0
C349 C 0.95373 0.49531 0.7688 0.0
C350 C 0.5298 0.94957 0.01863 0.0
C351 C 0.54652 0.97999 0.02455 0.0
H352 H 0.48467 0.92559 1.0029 0.0
C353 C 0.52947 1.01032 0.01894 0.0
H354 H 0.54212 0.92578 0.02302 0.0
C355 C 0.4965 1.01021 1.00753 0.0
C356 C 0.47974 0.97978 1.00172 0.0
H357 H 0.54174 0.03418 0.02307 0.0
H358 H 0.484 0.03399 1.00356 0.0
C359 C 0.49676 0.94946 1.00745 0.0
C360 C 0.15936 0.15343 0.3615 0.0
C361 C 0.14928 0.18675 0.36695 0.0
H362 H 0.18448 0.10987 0.37933 0.0
C363 C 0.15701 0.20143 0.39604 0.0
H364 H 0.15342 0.14116 0.33956 0.0
C365 C 0.17489 0.18355 0.41882 0.0
C366 C 0.18555 0.15044 0.41319 0.0
H367 H 0.15016 0.22721 0.40091 0.0
H368 H 0.18134 0.19616 0.44045 0.0
C369 C 0.17718 0.13549 0.38434 0.0
C370 C 0.84954 0.13756 0.6414 0.0
C371 C 0.83843 0.15279 0.61347 0.0
H372 H 0.87286 0.14417 0.68627 0.0
C373 C 0.8446 0.18723 0.60914 0.0
H374 H 0.84559 0.11101 0.64541 0.0
C375 C 0.86045 0.20613 0.63244 0.0
C376 C 0.87056 0.19118 0.66079 0.0
H377 H 0.83618 0.19995 0.58814 0.0
H378 H 0.8645 0.23265 0.62833 0.0
C379 C 0.86547 0.15651 0.66475 0.0
C380 C 0.86522 0.86713 0.86161 0.0
C381 C 0.87068 0.83254 0.86577 0.0
H382 H 0.84503 0.91258 0.88074 0.0
C383 C 0.8609 0.81772 0.89428 0.0
H384 H 0.87236 0.87937 0.83996 0.0
C385 C 0.84501 0.83665 0.91754 0.0
C386 C 0.83846 0.871 0.913 0.0
H387 H 0.86523 0.79127 0.89856 0.0
H388 H 0.83683 0.82402 0.93866 0.0
C389 C 0.84926 0.88611 0.88491 0.0
C390 C 0.17711 0.88821 0.14225 0.0
C391 C 0.18548 0.87325 0.1134 0.0
H392 H 0.15335 0.88255 0.18703 0.0
C393 C 0.17482 0.84014 0.10778 0.0
H394 H 0.18441 0.91383 0.14725 0.0
C395 C 0.15695 0.82226 0.13056 0.0
C396 C 0.14922 0.83695 0.15965 0.0
H397 H 0.18127 0.82753 0.08615 0.0
H398 H 0.1501 0.79648 0.1257 0.0
C399 C 0.15929 0.87027 0.16509 0.0
C400 C 0.0167 0.20305 0.02935 0.0
C401 C 0.02268 0.23339 0.04528 0.0
H402 H 1.00322 0.17914 0.98625 0.0
C403 C 0.01893 0.26368 0.02865 0.0
H404 H 0.01895 0.17922 0.04138 0.0
C405 C 1.00931 0.26366 0.99713 0.0
C406 C 1.00332 0.23334 0.98119 0.0
H407 H 0.02373 0.28756 0.03989 0.0
H408 H 1.00616 0.28755 0.98539 0.0
C409 C 1.00721 0.20302 0.99775 0.0
C410 C 0.8226 0.01645 0.27903 0.0
C411 C 0.79221 0.02124 0.29531 0.0
H412 H 0.84651 1.00423 0.23559 0.0
C413 C 0.76183 0.01651 0.279 0.0
H414 H 0.84651 0.01947 0.29081 0.0
C415 C 0.76183 1.00714 0.24742 0.0
C416 C 0.79221 1.00243 0.2311 0.0
H417 H 0.7379 0.02038 0.29051 0.0
H418 H 0.7379 1.00326 0.23591 0.0
C419 C 0.8226 1.00724 0.24738 0.0
C420 C 1.00929 0.76006 0.52949 0.0
C421 C 1.00332 0.79037 0.54544 0.0
H422 H 0.0237 0.73616 0.48672 0.0
C423 C 1.00721 0.82069 0.52888 0.0
H424 H 1.00614 0.73616 0.54123 0.0
C425 C 0.01668 0.82067 0.49728 0.0
C426 C 0.02265 0.79033 0.48135 0.0
H427 H 1.00322 0.84457 0.54039 0.0
H428 H 0.01893 0.8445 0.48526 0.0
C429 C 0.0189 0.76004 0.49797 0.0
C430 C 0.20366 1.00717 0.7791 0.0
C431 C 0.23405 1.00231 0.79537 0.0
H432 H 0.17976 0.01955 0.73567 0.0
C433 C 0.26443 1.00709 0.77907 0.0
H434 H 0.17975 1.00412 0.79087 0.0
C435 C 0.26443 0.01657 0.74751 0.0
C436 C 0.23407 0.02135 0.73119 0.0
H437 H 0.28836 1.00317 0.79058 0.0
H438 H 0.28837 0.02048 0.73601 0.0
C439 C 0.20367 0.0165 0.74745 0.0
loop_
_geom_bond_atom_site_label_1
_geom_bond_atom_site_label_2
_geom_bond_distance
_geom_bond_site_symmetry_2
_ccdc_geom_bond_type
C0 C1 1.264 . S
C0 C5 1.479 . S
C0 C10 1.465 . S
C1 C0 1.264 . S
C1 C3 1.339 . S
C1 H28 0.931 . S
C2 C3 1.395 . S
C2 C4 1.320 . S
C3 C1 1.339 . S
C3 C2 1.395 . S
C3 H29 0.929 . S
C4 C2 1.320 . S
C4 C5 1.405 . S
C4 H30 0.930 . S
C5 C0 1.479 . S
C5 C4 1.405 . S
C5 H31 0.931 . S
U6 O7 2.454 1_655 S
U6 O8 2.458 1_655 S
U6 C9 2.984 1_655 S
U6 C10 2.847 . S
U6 C23 2.882 . S
U6 O24 2.441 . S
U6 O25 2.420 . S
U6 O26 2.455 . S
U6 O27 2.449 . S
O7 U6 2.454 1_455 S
O7 C9 1.353 . S
O8 U6 2.458 1_455 S
O8 C9 1.286 . S
C9 U6 2.984 1_455 S
C9 O7 1.353 . S
C9 O8 1.286 . S
C9 C11 1.363 . S
C10 C0 1.465 . S
C10 U6 2.847 . S
C10 O24 1.249 . S
C10 O25 1.202 . S
C11 C9 1.363 . S
C11 C13 1.408 . S
C11 C16 1.342 . S
C12 C13 1.310 . S
C12 C15 1.461 . S
C12 H32 0.932 . S
C13 C11 1.408 . S
C13 C12 1.310 . S
C13 H33 0.930 . S
C14 C15 1.474 . S
C14 C16 1.285 . S
C14 H34 0.929 . S
C15 C12 1.461 . S
C15 C14 1.474 . S
C16 C11 1.342 . S
C16 C14 1.285 . S
C16 H35 0.930 . S
C17 C20 1.424 . S
C17 C22 1.245 . S
C17 C23 1.428 . S
C18 C21 1.260 . S
C18 C22 1.477 . S
C18 H36 0.932 . S
C19 C20 1.384 . S
C19 C21 1.479 . S
C19 H37 0.929 . S
C20 C17 1.424 . S
C20 C19 1.384 . S
C20 H38 0.928 . S
C21 C18 1.260 . S
C21 C19 1.479 . S
C22 C17 1.245 . S
C22 C18 1.477 . S
C22 H39 0.932 . S
C23 U6 2.882 . S
C23 C17 1.428 . S
C23 O26 1.301 . S
C23 O27 1.282 . S
O24 U6 2.441 . S
O24 C10 1.249 . S
O25 U6 2.420 . S
O25 C10 1.202 . S
O26 U6 2.455 . S
O26 C23 1.301 . S
O27 U6 2.449 . S
O27 C23 1.282 . S
H28 C1 0.931 . S
H29 C3 0.929 . S
H30 C4 0.930 . S
H31 C5 0.931 . S
H32 C12 0.932 . S
H33 C13 0.930 . S
H34 C14 0.929 . S
H35 C16 0.930 . S
H36 C18 0.932 . S
H37 C19 0.929 . S
H38 C20 0.928 . S
H39 C22 0.932 . S
C40 C41 1.264 . S
C40 C45 1.479 . S
C40 C50 1.465 . S
C41 C40 1.264 . S
C41 C43 1.339 . S
C41 H68 0.931 . S
C42 C43 1.395 . S
C42 C44 1.320 . S
C43 C41 1.339 . S
C43 C42 1.395 . S
C43 H69 0.929 . S
C44 C42 1.320 . S
C44 C45 1.405 . S
C44 H70 0.930 . S
C45 C40 1.479 . S
C45 C44 1.405 . S
C45 H71 0.931 . S
U46 O47 2.454 1_565 S
U46 O48 2.458 1_565 S
U46 C49 2.984 1_565 S
U46 C50 2.847 . S
U46 C63 2.882 . S
U46 O64 2.441 . S
U46 O65 2.420 . S
U46 O66 2.455 . S
U46 O67 2.449 . S
O47 U46 2.454 1_545 S
O47 C49 1.353 . S
O48 U46 2.458 1_545 S
O48 C49 1.286 . S
C49 U46 2.984 1_545 S
C49 O47 1.353 . S
C49 O48 1.286 . S
C49 C51 1.363 . S
C50 C40 1.465 . S
C50 U46 2.847 . S
C50 O64 1.249 . S
C50 O65 1.202 . S
C51 C49 1.363 . S
C51 C53 1.408 . S
C51 C56 1.342 . S
C52 C53 1.310 . S
C52 C55 1.461 . S
C52 H72 0.932 . S
C53 C51 1.408 . S
C53 C52 1.310 . S
C53 H73 0.930 . S
C54 C55 1.474 . S
C54 C56 1.285 . S
C54 H74 0.929 . S
C55 C52 1.461 . S
C55 C54 1.474 . S
C56 C51 1.342 . S
C56 C54 1.285 . S
C56 H75 0.930 . S
C57 C60 1.424 . S
C57 C62 1.245 . S
C57 C63 1.428 . S
C58 C61 1.260 . S
C58 C62 1.477 . S
C58 H76 0.932 . S
C59 C60 1.384 . S
C59 C61 1.479 . S
C59 H77 0.929 . S
C60 C57 1.424 . S
C60 C59 1.384 . S
C60 H78 0.928 . S
C61 C58 1.260 . S
C61 C59 1.479 . S
C62 C57 1.245 . S
C62 C58 1.477 . S
C62 H79 0.932 . S
C63 U46 2.882 . S
C63 C57 1.428 . S
C63 O66 1.301 . S
C63 O67 1.282 . S
O64 U46 2.441 . S
O64 C50 1.249 . S
O65 U46 2.420 . S
O65 C50 1.202 . S
O66 U46 2.455 . S
O66 C63 1.301 . S
O67 U46 2.449 . S
O67 C63 1.282 . S
H68 C41 0.931 . S
H69 C43 0.929 . S
H70 C44 0.930 . S
H71 C45 0.931 . S
H72 C52 0.932 . S
H73 C53 0.930 . S
H74 C54 0.929 . S
H75 C56 0.930 . S
H76 C58 0.932 . S
H77 C59 0.929 . S
H78 C60 0.928 . S
H79 C62 0.932 . S
C80 C81 1.264 . S
C80 C85 1.479 . S
C80 C90 1.465 . S
C81 C80 1.264 . S
C81 C83 1.339 . S
C81 H108 0.931 . S
C82 C83 1.395 . S
C82 C84 1.320 . S
C83 C81 1.339 . S
C83 C82 1.395 . S
C83 H109 0.929 . S
C84 C82 1.320 . S
C84 C85 1.405 . S
C84 H110 0.930 . S
C85 C80 1.479 . S
C85 C84 1.405 . S
C85 H111 0.931 . S
U86 O87 2.454 1_455 S
U86 O88 2.458 1_455 S
U86 C89 2.984 1_455 S
U86 C90 2.847 . S
U86 C103 2.882 . S
U86 O104 2.441 . S
U86 O105 2.420 . S
U86 O106 2.455 . S
U86 O107 2.449 . S
O87 U86 2.454 1_655 S
O87 C89 1.353 . S
O88 U86 2.458 1_655 S
O88 C89 1.286 . S
C89 U86 2.984 1_655 S
C89 O87 1.353 . S
C89 O88 1.286 . S
C89 C91 1.363 . S
C90 C80 1.465 . S
C90 U86 2.847 . S
C90 O104 1.249 . S
C90 O105 1.202 . S
C91 C89 1.363 . S
C91 C93 1.408 . S
C91 C96 1.342 . S
C92 C93 1.310 . S
C92 C95 1.461 . S
C92 H112 0.932 . S
C93 C91 1.408 . S
C93 C92 1.310 . S
C93 H113 0.930 . S
C94 C95 1.474 . S
C94 C96 1.285 . S
C94 H114 0.929 . S
C95 C92 1.461 . S
C95 C94 1.474 . S
C96 C91 1.342 . S
C96 C94 1.285 . S
C96 H115 0.930 . S
C97 C100 1.424 . S
C97 C102 1.245 . S
C97 C103 1.428 . S
C98 C101 1.260 . S
C98 C102 1.477 . S
C98 H116 0.932 . S
C99 C100 1.384 . S
C99 C101 1.479 . S
C99 H117 0.929 . S
C100 C97 1.424 . S
C100 C99 1.384 . S
C100 H118 0.928 . S
C101 C98 1.260 . S
C101 C99 1.479 . S
C102 C97 1.245 . S
C102 C98 1.477 . S
C102 H119 0.932 . S
C103 U86 2.882 . S
C103 C97 1.428 . S
C103 O106 1.301 . S
C103 O107 1.282 . S
O104 U86 2.441 . S
O104 C90 1.249 . S
O105 U86 2.420 . S
O105 C90 1.202 . S
O106 U86 2.455 . S
O106 C103 1.301 . S
O107 U86 2.449 . S
O107 C103 1.282 . S
H108 C81 0.931 . S
H109 C83 0.929 . S
H110 C84 0.930 . S
H111 C85 0.931 . S
H112 C92 0.932 . S
H113 C93 0.930 . S
H114 C94 0.929 . S
H115 C96 0.930 . S
H116 C98 0.932 . S
H117 C99 0.929 . S
H118 C100 0.928 . S
H119 C102 0.932 . S
C120 C121 1.264 . S
C120 C125 1.479 . S
C120 C130 1.465 . S
C121 C120 1.264 . S
C121 C123 1.339 . S
C121 H148 0.931 . S
C122 C123 1.395 . S
C122 C124 1.320 . S
C123 C121 1.339 . S
C123 C122 1.395 . S
C123 H149 0.929 . S
C124 C122 1.320 . S
C124 C125 1.405 . S
C124 H150 0.930 . S
C125 C120 1.479 . S
C125 C124 1.405 . S
C125 H151 0.931 . S
U126 O127 2.454 1_545 S
U126 O128 2.458 1_546 S
U126 C129 2.984 1_546 S
U126 C130 2.847 . S
U126 C143 2.882 . S
U126 O144 2.441 . S
U126 O145 2.420 . S
U126 O146 2.455 1_556 S
U126 O147 2.449 . S
O127 U126 2.454 1_565 S
O127 C129 1.353 1_556 S
O128 U126 2.458 1_564 S
O128 C129 1.286 . S
C129 U126 2.984 1_564 S
C129 O127 1.353 1_554 S
C129 O128 1.286 . S
C129 C131 1.363 . S
C130 C120 1.465 . S
C130 U126 2.847 . S
C130 O144 1.249 . S
C130 O145 1.202 . S
C131 C129 1.363 . S
C131 C133 1.408 . S
C131 C136 1.342 . S
C132 C133 1.310 . S
C132 C135 1.461 . S
C132 H152 0.932 . S
C133 C131 1.408 . S
C133 C132 1.310 . S
C133 H153 0.930 . S
C134 C135 1.474 . S
C134 C136 1.285 . S
C134 H154 0.929 . S
C135 C132 1.461 . S
C135 C134 1.474 . S
C136 C131 1.342 . S
C136 C134 1.285 . S
C136 H155 0.930 . S
C137 C140 1.419 1_554 S
C137 C142 1.251 . S
C137 C143 1.426 1_554 S
C138 C141 1.260 . S
C138 C142 1.477 . S
C138 H156 0.932 . S
C139 C140 1.384 . S
C139 C141 1.479 1_556 S
C139 H157 0.929 . S
C140 C137 1.419 1_556 S
C140 C139 1.384 . S
C140 H158 0.928 . S
C141 C138 1.260 . S
C141 C139 1.479 1_554 S
C142 C137 1.251 . S
C142 C138 1.477 . S
C142 H159 0.932 . S
C143 U126 2.882 . S
C143 C137 1.426 1_556 S
C143 O146 1.301 1_556 S
C143 O147 1.282 . S
O144 U126 2.441 . S
O144 C130 1.249 . S
O145 U126 2.420 . S
O145 C130 1.202 . S
O146 U126 2.455 1_554 S
O146 C143 1.301 1_554 S
O147 U126 2.449 . S
O147 C143 1.282 . S
H148 C121 0.931 . S
H149 C123 0.929 . S
H150 C124 0.930 . S
H151 C125 0.931 . S
H152 C132 0.932 . S
H153 C133 0.930 . S
H154 C134 0.929 . S
H155 C136 0.930 . S
H156 C138 0.932 . S
H157 C139 0.929 . S
H158 C140 0.928 . S
H159 C142 0.932 . S
C160 C161 1.264 . S
C160 C165 1.479 . S
C160 C170 1.465 . S
C161 C160 1.264 . S
C161 C163 1.339 . S
C161 H188 0.931 . S
C162 C163 1.395 . S
C162 C164 1.320 . S
C163 C161 1.339 . S
C163 C162 1.395 . S
C163 H189 0.929 . S
C164 C162 1.320 . S
C164 C165 1.405 . S
C164 H190 0.930 . S
C165 C160 1.479 . S
C165 C164 1.405 . S
C165 H191 0.931 . S
U166 O167 2.454 1_655 S
U166 O168 2.458 1_655 S
U166 C169 2.984 1_655 S
U166 C170 2.847 . S
U166 C183 2.882 . S
U166 O184 2.441 . S
U166 O185 2.420 . S
U166 O186 2.455 . S
U166 O187 2.449 . S
O167 U166 2.454 1_455 S
O167 C169 1.353 . S
O168 U166 2.458 1_455 S
O168 C169 1.286 . S
C169 U166 2.984 1_455 S
C169 O167 1.353 . S
C169 O168 1.286 . S
C169 C171 1.363 . S
C170 C160 1.465 . S
C170 U166 2.847 . S
C170 O184 1.249 . S
C170 O185 1.202 . S
C171 C169 1.363 . S
C171 C173 1.408 . S
C171 C176 1.342 . S
C172 C173 1.310 . S
C172 C175 1.461 . S
C172 H192 0.932 . S
C173 C171 1.408 . S
C173 C172 1.310 . S
C173 H193 0.930 . S
C174 C175 1.474 . S
C174 C176 1.285 . S
C174 H194 0.929 . S
C175 C172 1.461 . S
C175 C174 1.474 . S
C176 C171 1.342 . S
C176 C174 1.285 . S
C176 H195 0.930 . S
C177 C180 1.424 . S
C177 C182 1.245 . S
C177 C183 1.428 . S
C178 C181 1.260 . S
C178 C182 1.477 . S
C178 H196 0.932 . S
C179 C180 1.384 . S
C179 C181 1.479 . S
C179 H197 0.929 . S
C180 C177 1.424 . S
C180 C179 1.384 . S
C180 H198 0.928 . S
C181 C178 1.260 . S
C181 C179 1.479 . S
C182 C177 1.245 . S
C182 C178 1.477 . S
C182 H199 0.932 . S
C183 U166 2.882 . S
C183 C177 1.428 . S
C183 O186 1.301 . S
C183 O187 1.282 . S
O184 U166 2.441 . S
O184 C170 1.249 . S
O185 U166 2.420 . S
O185 C170 1.202 . S
O186 U166 2.455 . S
O186 C183 1.301 . S
O187 U166 2.449 . S
O187 C183 1.282 . S
H188 C161 0.931 . S
H189 C163 0.929 . S
H190 C164 0.930 . S
H191 C165 0.931 . S
H192 C172 0.932 . S
H193 C173 0.930 . S
H194 C174 0.929 . S
H195 C176 0.930 . S
H196 C178 0.932 . S
H197 C179 0.929 . S
H198 C180 0.928 . S
H199 C182 0.932 . S
C200 C201 1.264 . S
C200 C205 1.479 . S
C200 C210 1.465 . S
C201 C200 1.264 . S
C201 C203 1.339 . S
C201 H228 0.931 . S
C202 C203 1.395 . S
C202 C204 1.320 . S
C203 C201 1.339 . S
C203 C202 1.395 . S
C203 H229 0.929 . S
C204 C202 1.320 . S
C204 C205 1.405 . S
C204 H230 0.930 . S
C205 C200 1.479 . S
C205 C204 1.405 . S
C205 H231 0.931 . S
U206 O207 2.454 1_565 S
U206 O208 2.458 1_565 S
U206 C209 2.984 1_565 S
U206 C210 2.847 . S
U206 C223 2.882 . S
U206 O224 2.441 . S
U206 O225 2.420 . S
U206 O226 2.455 . S
U206 O227 2.449 . S
O207 U206 2.454 1_545 S
O207 C209 1.353 . S
O208 U206 2.458 1_545 S
O208 C209 1.286 . S
C209 U206 2.984 1_545 S
C209 O207 1.353 . S
C209 O208 1.286 . S
C209 C211 1.363 . S
C210 C200 1.465 . S
C210 U206 2.847 . S
C210 O224 1.249 . S
C210 O225 1.202 . S
C211 C209 1.363 . S
C211 C213 1.408 . S
C211 C216 1.342 . S
C212 C213 1.310 . S
C212 C215 1.461 . S
C212 H232 0.932 . S
C213 C211 1.408 . S
C213 C212 1.310 . S
C213 H233 0.930 . S
C214 C215 1.474 . S
C214 C216 1.285 . S
C214 H234 0.929 . S
C215 C212 1.461 . S
C215 C214 1.474 . S
C216 C211 1.342 . S
C216 C214 1.285 . S
C216 H235 0.930 . S
C217 C220 1.424 . S
C217 C222 1.245 . S
C217 C223 1.428 . S
C218 C221 1.260 . S
C218 C222 1.477 . S
C218 H236 0.932 . S
C219 C220 1.384 . S
C219 C221 1.479 . S
C219 H237 0.929 . S
C220 C217 1.424 . S
C220 C219 1.384 . S
C220 H238 0.928 . S
C221 C218 1.260 . S
C221 C219 1.479 . S
C222 C217 1.245 . S
C222 C218 1.477 . S
C222 H239 0.932 . S
C223 U206 2.882 . S
C223 C217 1.428 . S
C223 O226 1.301 . S
C223 O227 1.282 . S
O224 U206 2.441 . S
O224 C210 1.249 . S
O225 U206 2.420 . S
O225 C210 1.202 . S
O226 U206 2.455 . S
O226 C223 1.301 . S
O227 U206 2.449 . S
O227 C223 1.282 . S
H228 C201 0.931 . S
H229 C203 0.929 . S
H230 C204 0.930 . S
H231 C205 0.931 . S
H232 C212 0.932 . S
H233 C213 0.930 . S
H234 C214 0.929 . S
H235 C216 0.930 . S
H236 C218 0.932 . S
H237 C219 0.929 . S
H238 C220 0.928 . S
H239 C222 0.932 . S
C240 C241 1.264 . S
C240 C245 1.479 . S
C240 C250 1.465 . S
C241 C240 1.264 . S
C241 C243 1.339 . S
C241 H268 0.931 . S
C242 C243 1.395 . S
C242 C244 1.320 . S
C243 C241 1.339 . S
C243 C242 1.395 . S
C243 H269 0.929 . S
C244 C242 1.320 . S
C244 C245 1.405 . S
C244 H270 0.930 . S
C245 C240 1.479 . S
C245 C244 1.405 . S
C245 H271 0.931 . S
U246 O247 2.454 1_455 S
U246 O248 2.458 1_455 S
U246 C249 2.984 1_455 S
U246 C250 2.847 . S
U246 C263 2.882 . S
U246 O264 2.441 . S
U246 O265 2.420 . S
U246 O266 2.455 . S
U246 O267 2.449 . S
O247 U246 2.454 1_655 S
O247 C249 1.353 . S
O248 U246 2.458 1_655 S
O248 C249 1.286 . S
C249 U246 2.984 1_655 S
C249 O247 1.353 . S
C249 O248 1.286 . S
C249 C251 1.363 . S
C250 C240 1.465 . S
C250 U246 2.847 . S
C250 O264 1.249 . S
C250 O265 1.202 . S
C251 C249 1.363 . S
C251 C253 1.408 . S
C251 C256 1.342 . S
C252 C253 1.310 . S
C252 C255 1.461 . S
C252 H272 0.932 . S
C253 C251 1.408 . S
C253 C252 1.310 . S
C253 H273 0.930 . S
C254 C255 1.474 . S
C254 C256 1.285 . S
C254 H274 0.929 . S
C255 C252 1.461 . S
C255 C254 1.474 . S
C256 C251 1.342 . S
C256 C254 1.285 . S
C256 H275 0.930 . S
C257 C260 1.424 . S
C257 C262 1.245 . S
C257 C263 1.428 . S
C258 C261 1.260 . S
C258 C262 1.477 . S
C258 H276 0.932 . S
C259 C260 1.384 . S
C259 C261 1.479 . S
C259 H277 0.929 . S
C260 C257 1.424 . S
C260 C259 1.384 . S
C260 H278 0.928 . S
C261 C258 1.260 . S
C261 C259 1.479 . S
C262 C257 1.245 . S
C262 C258 1.477 . S
C262 H279 0.932 . S
C263 U246 2.882 . S
C263 C257 1.428 . S
C263 O266 1.301 . S
C263 O267 1.282 . S
O264 U246 2.441 . S
O264 C250 1.249 . S
O265 U246 2.420 . S
O265 C250 1.202 . S
O266 U246 2.455 . S
O266 C263 1.301 . S
O267 U246 2.449 . S
O267 C263 1.282 . S
H268 C241 0.931 . S
H269 C243 0.929 . S
H270 C244 0.930 . S
H271 C245 0.931 . S
H272 C252 0.932 . S
H273 C253 0.930 . S
H274 C254 0.929 . S
H275 C256 0.930 . S
H276 C258 0.932 . S
H277 C259 0.929 . S
H278 C260 0.928 . S
H279 C262 0.932 . S
C280 C281 1.264 . S
C280 C285 1.479 . S
C280 C290 1.465 . S
C281 C280 1.264 . S
C281 C283 1.339 . S
C281 H308 0.931 . S
C282 C283 1.395 . S
C282 C284 1.320 . S
C283 C281 1.339 . S
C283 C282 1.395 . S
C283 H309 0.929 . S
C284 C282 1.320 . S
C284 C285 1.405 . S
C284 H310 0.930 . S
C285 C280 1.479 . S
C285 C284 1.405 . S
C285 H311 0.931 . S
U286 O287 2.454 1_545 S
U286 O288 2.458 1_544 S
U286 C289 2.984 1_544 S
U286 C290 2.847 . S
U286 C303 2.882 . S
U286 O304 2.441 . S
U286 O305 2.420 . S
U286 O306 2.455 1_554 S
U286 O307 2.449 . S
O287 U286 2.454 1_565 S
O287 C289 1.353 1_554 S
O288 U286 2.458 1_566 S
O288 C289 1.286 . S
C289 U286 2.984 1_566 S
C289 O287 1.353 1_556 S
C289 O288 1.286 . S
C289 C291 1.363 . S
C290 C280 1.465 . S
C290 U286 2.847 . S
C290 O304 1.249 . S
C290 O305 1.202 . S
C291 C289 1.363 . S
C291 C293 1.408 . S
C291 C296 1.342 . S
C292 C293 1.310 . S
C292 C295 1.461 . S
C292 H312 0.932 . S
C293 C291 1.408 . S
C293 C292 1.310 . S
C293 H313 0.930 . S
C294 C295 1.474 . S
C294 C296 1.285 . S
C294 H314 0.929 . S
C295 C292 1.461 . S
C295 C294 1.474 . S
C296 C291 1.342 . S
C296 C294 1.285 . S
C296 H315 0.930 . S
C297 C300 1.419 1_556 S
C297 C302 1.251 . S
C297 C303 1.426 1_556 S
C298 C301 1.260 . S
C298 C302 1.477 . S
C298 H316 0.932 . S
C299 C300 1.384 . S
C299 C301 1.479 1_554 S
C299 H317 0.929 . S
C300 C297 1.419 1_554 S
C300 C299 1.384 . S
C300 H318 0.928 . S
C301 C298 1.260 . S
C301 C299 1.479 1_556 S
C302 C297 1.251 . S
C302 C298 1.477 . S
C302 H319 0.932 . S
C303 U286 2.882 . S
C303 C297 1.426 1_554 S
C303 O306 1.301 1_554 S
C303 O307 1.282 . S
O304 U286 2.441 . S
O304 C290 1.249 . S
O305 U286 2.420 . S
O305 C290 1.202 . S
O306 U286 2.455 1_556 S
O306 C303 1.301 1_556 S
O307 U286 2.449 . S
O307 C303 1.282 . S
H308 C281 0.931 . S
H309 C283 0.929 . S
H310 C284 0.930 . S
H311 C285 0.931 . S
H312 C292 0.932 . S
H313 C293 0.930 . S
H314 C294 0.929 . S
H315 C296 0.930 . S
H316 C298 0.932 . S
H317 C299 0.929 . S
H318 C300 0.928 . S
H319 C302 0.932 . S
C320 C321 1.387 . S
C320 H324 0.950 . S
C320 C329 1.390 . S
C321 C320 1.387 . S
C321 C323 1.387 . S
H322 C329 0.950 . S
C323 C321 1.387 . S
C323 C325 1.390 . S
C323 H327 0.950 1_655 S
H324 C320 0.950 . S
C325 C323 1.390 . S
C325 C326 1.387 . S
C325 H328 0.950 1_655 S
C326 C325 1.387 . S
C326 C329 1.387 . S
H327 C323 0.950 1_455 S
H328 C325 0.950 1_455 S
C329 C320 1.390 . S
C329 H322 0.950 . S
C329 C326 1.387 . S
C330 C331 1.387 . S
C330 H334 0.950 1_565 S
C330 C339 1.390 . S
C331 C330 1.387 . S
C331 C333 1.387 . S
H332 C339 0.950 1_545 S
C333 C331 1.387 . S
C333 C335 1.390 . S
C333 H337 0.950 . S
H334 C330 0.950 1_545 S
C335 C333 1.390 . S
C335 C336 1.387 . S
C335 H338 0.950 . S
C336 C335 1.387 . S
C336 C339 1.387 . S
H337 C333 0.950 . S
H338 C335 0.950 . S
C339 C330 1.390 . S
C339 H332 0.950 1_565 S
C339 C336 1.387 . S
C340 C341 1.387 . S
C340 H344 0.950 1_455 S
C340 C349 1.390 . S
C341 C340 1.387 . S
C341 C343 1.387 . S
H342 C349 0.950 1_655 S
C343 C341 1.387 . S
C343 C345 1.390 . S
C343 H347 0.950 . S
H344 C340 0.950 1_655 S
C345 C343 1.390 . S
C345 C346 1.387 . S
C345 H348 0.950 . S
C346 C345 1.387 . S
C346 C349 1.387 . S
H347 C343 0.950 . S
H348 C345 0.950 . S
C349 C340 1.390 . S
C349 H342 0.950 1_455 S
C349 C346 1.387 . S
C350 C351 1.387 . S
C350 H354 0.950 1_545 S
C350 C359 1.390 1_556 S
C351 C350 1.387 . S
C351 C353 1.387 . S
H352 C359 0.950 1_565 S
C353 C351 1.387 . S
C353 C355 1.390 1_556 S
C353 H357 0.950 . S
H354 C350 0.950 1_565 S
C355 C353 1.390 1_554 S
C355 C356 1.387 . S
C355 H358 0.950 . S
C356 C355 1.387 . S
C356 C359 1.387 . S
H357 C353 0.950 . S
H358 C355 0.950 . S
C359 C350 1.390 1_554 S
C359 H352 0.950 1_545 S
C359 C356 1.387 . S
C360 C361 1.387 . S
C360 H364 0.950 . S
C360 C369 1.390 . S
C361 C360 1.387 . S
C361 C363 1.387 . S
H362 C369 0.950 . S
C363 C361 1.387 . S
C363 C365 1.390 . S
C363 H367 0.950 . S
H364 C360 0.950 . S
C365 C363 1.390 . S
C365 C366 1.387 . S
C365 H368 0.950 . S
C366 C365 1.387 . S
C366 C369 1.387 . S
H367 C363 0.950 . S
H368 C365 0.950 . S
C369 C360 1.390 . S
C369 H362 0.950 . S
C369 C366 1.387 . S
C370 C371 1.387 . S
C370 H374 0.950 . S
C370 C379 1.390 . S
C371 C370 1.387 . S
C371 C373 1.387 . S
H372 C379 0.950 . S
C373 C371 1.387 . S
C373 C375 1.390 . S
C373 H377 0.950 . S
H374 C370 0.950 . S
C375 C373 1.390 . S
C375 C376 1.387 . S
C375 H378 0.950 . S
C376 C375 1.387 . S
C376 C379 1.387 . S
H377 C373 0.950 . S
H378 C375 0.950 . S
C379 C370 1.390 . S
C379 H372 0.950 . S
C379 C376 1.387 . S
C380 C381 1.387 . S
C380 H384 0.950 . S
C380 C389 1.390 . S
C381 C380 1.387 . S
C381 C383 1.387 . S
H382 C389 0.950 . S
C383 C381 1.387 . S
C383 C385 1.390 . S
C383 H387 0.950 . S
H384 C380 0.950 . S
C385 C383 1.390 . S
C385 C386 1.387 . S
C385 H388 0.950 . S
C386 C385 1.387 . S
C386 C389 1.387 . S
H387 C383 0.950 . S
H388 C385 0.950 . S
C389 C380 1.390 . S
C389 H382 0.950 . S
C389 C386 1.387 . S
C390 C391 1.387 . S
C390 H394 0.950 . S
C390 C399 1.390 . S
C391 C390 1.387 . S
C391 C393 1.387 . S
H392 C399 0.950 . S
C393 C391 1.387 . S
C393 C395 1.390 . S
C393 H397 0.950 . S
H394 C390 0.950 . S
C395 C393 1.390 . S
C395 C396 1.387 . S
C395 H398 0.950 . S
C396 C395 1.387 . S
C396 C399 1.387 . S
H397 C393 0.950 . S
H398 C395 0.950 . S
C399 C390 1.390 . S
C399 H392 0.950 . S
C399 C396 1.387 . S
C400 C401 1.387 . S
C400 H404 0.950 . S
C400 C409 1.390 1_654 S
C401 C400 1.387 . S
C401 C403 1.387 . S
H402 C409 0.950 . S
C403 C401 1.387 . S
C403 C405 1.390 1_654 S
C403 H407 0.950 . S
H404 C400 0.950 . S
C405 C403 1.390 1_456 S
C405 C406 1.387 . S
C405 H408 0.950 . S
C406 C405 1.387 . S
C406 C409 1.387 . S
H407 C403 0.950 . S
H408 C405 0.950 . S
C409 C400 1.390 1_456 S
C409 H402 0.950 . S
C409 C406 1.387 . S
C410 C411 1.387 . S
C410 H414 0.950 . S
C410 C419 1.390 1_565 S
C411 C410 1.387 . S
C411 C413 1.387 . S
H412 C419 0.950 . S
C413 C411 1.387 . S
C413 C415 1.390 1_565 S
C413 H417 0.950 . S
H414 C410 0.950 . S
C415 C413 1.390 1_545 S
C415 C416 1.387 . S
C415 H418 0.950 . S
C416 C415 1.387 . S
C416 C419 1.387 . S
H417 C413 0.950 . S
H418 C415 0.950 . S
C419 C410 1.390 1_545 S
C419 H412 0.950 . S
C419 C416 1.387 . S
C420 C421 1.387 . S
C420 H424 0.950 . S
C420 C429 1.390 1_455 S
C421 C420 1.387 . S
C421 C423 1.387 . S
H422 C429 0.950 . S
C423 C421 1.387 . S
C423 C425 1.390 1_455 S
C423 H427 0.950 . S
H424 C420 0.950 . S
C425 C423 1.390 1_655 S
C425 C426 1.387 . S
C425 H428 0.950 . S
C426 C425 1.387 . S
C426 C429 1.387 . S
H427 C423 0.950 . S
H428 C425 0.950 . S
C429 C420 1.390 1_655 S
C429 H422 0.950 . S
C429 C426 1.387 . S
C430 C431 1.387 . S
C430 H434 0.950 . S
C430 C439 1.390 1_545 S
C431 C430 1.387 . S
C431 C433 1.387 . S
H432 C439 0.950 . S
C433 C431 1.387 . S
C433 C435 1.390 1_545 S
C433 H437 0.950 . S
H434 C430 0.950 . S
C435 C433 1.390 1_565 S
C435 C436 1.387 . S
C435 H438 0.950 . S
C436 C435 1.387 . S
C436 C439 1.387 . S
H437 C433 0.950 . S
H438 C435 0.950 . S
C439 C430 1.390 1_565 S
C439 H432 0.950 . S
C439 C436 1.387 . S
C321 C21 1.966 . S
C326 C181 1.966 . S
C331 C61 1.968 . S
C336 C221 1.968 . S
C341 C101 1.968 . S
C346 C261 1.968 . S
C351 C301 1.968 . S
C356 C141 1.968 . S
C361 C15 1.854 . S
C366 C215 1.849 . S
C371 C55 1.853 . S
C376 C255 1.849 . S
C381 C95 1.854 . S
C386 C295 1.849 . S
C391 C135 1.853 . S
C396 C175 1.849 . S
C401 C2 1.777 . S
C406 C242 1.774 . S
C411 C42 1.777 . S
C416 C282 1.774 . S
C421 C82 1.779 . S
C426 C162 1.776 . S
C431 C122 1.777 . S
C436 C202 1.774 . S
