# Generated by pormake.
# Topology ukb, (4)-cn, num edge types: 1
# Building blocks:
#     Node 0, Type 0, BuildingBlock: TATPOV_clean_sbu_0, # of connection points: 4
#     Node 1, Type 0, BuildingBlock: TATPOV_clean_sbu_0, # of connection points: 4
#     Node 2, Type 0, BuildingBlock: TATPOV_clean_sbu_0, # of connection points: 4
#     Node 3, Type 0, BuildingBlock: TATPOV_clean_sbu_0, # of connection points: 4
#     Node 4, Type 0, BuildingBlock: TATPOV_clean_sbu_0, # of connection points: 4
#     Node 5, Type 0, BuildingBlock: TATPOV_clean_sbu_0, # of connection points: 4
#     Node 6, Type 0, BuildingBlock: TATPOV_clean_sbu_0, # of connection points: 4
#     Node 7, Type 0, BuildingBlock: TATPOV_clean_sbu_0, # of connection points: 4
#     Node 8, Type 0, BuildingBlock: TATPOV_clean_sbu_0, # of connection points: 4
#     Node 9, Type 0, BuildingBlock: TATPOV_clean_sbu_0, # of connection points: 4
#     Node 10, Type 0, BuildingBlock: TATPOV_clean_sbu_0, # of connection points: 4
#     Node 11, Type 0, BuildingBlock: TATPOV_clean_sbu_0, # of connection points: 4
#     Node 12, Type 0, BuildingBlock: TATPOV_clean_sbu_0, # of connection points: 4
#     Node 13, Type 0, BuildingBlock: TATPOV_clean_sbu_0, # of connection points: 4
#     Node 14, Type 0, BuildingBlock: TATPOV_clean_sbu_0, # of connection points: 4
#     Node 15, Type 0, BuildingBlock: TATPOV_clean_sbu_0, # of connection points: 4
#     Edge 16, Type (0, 0), BuildingBlock: XIVTED_clean_linker_0, # of connection points: 2
#     Edge 17, Type (0, 0), BuildingBlock: XIVTED_clean_linker_0, # of connection points: 2
#     Edge 18, Type (0, 0), BuildingBlock: XIVTED_clean_linker_0, # of connection points: 2
#     Edge 19, Type (0, 0), BuildingBlock: XIVTED_clean_linker_0, # of connection points: 2
#     Edge 20, Type (0, 0), BuildingBlock: XIVTED_clean_linker_0, # of connection points: 2
#     Edge 21, Type (0, 0), BuildingBlock: XIVTED_clean_linker_0, # of connection points: 2
#     Edge 22, Type (0, 0), BuildingBlock: XIVTED_clean_linker_0, # of connection points: 2
#     Edge 23, Type (0, 0), BuildingBlock: XIVTED_clean_linker_0, # of connection points: 2
#     Edge 24, Type (0, 0), BuildingBlock: XIVTED_clean_linker_0, # of connection points: 2
#     Edge 25, Type (0, 0), BuildingBlock: XIVTED_clean_linker_0, # of connection points: 2
#     Edge 26, Type (0, 0), BuildingBlock: XIVTED_clean_linker_0, # of connection points: 2
#     Edge 27, Type (0, 0), BuildingBlock: XIVTED_clean_linker_0, # of connection points: 2
#     Edge 28, Type (0, 0), BuildingBlock: XIVTED_clean_linker_0, # of connection points: 2
#     Edge 29, Type (0, 0), BuildingBlock: XIVTED_clean_linker_0, # of connection points: 2
#     Edge 30, Type (0, 0), BuildingBlock: XIVTED_clean_linker_0, # of connection points: 2
#     Edge 31, Type (0, 0), BuildingBlock: XIVTED_clean_linker_0, # of connection points: 2
#     Edge 32, Type (0, 0), BuildingBlock: XIVTED_clean_linker_0, # of connection points: 2
#     Edge 33, Type (0, 0), BuildingBlock: XIVTED_clean_linker_0, # of connection points: 2
#     Edge 34, Type (0, 0), BuildingBlock: XIVTED_clean_linker_0, # of connection points: 2
#     Edge 35, Type (0, 0), BuildingBlock: XIVTED_clean_linker_0, # of connection points: 2
#     Edge 36, Type (0, 0), BuildingBlock: XIVTED_clean_linker_0, # of connection points: 2
#     Edge 37, Type (0, 0), BuildingBlock: XIVTED_clean_linker_0, # of connection points: 2
#     Edge 38, Type (0, 0), BuildingBlock: XIVTED_clean_linker_0, # of connection points: 2
#     Edge 39, Type (0, 0), BuildingBlock: XIVTED_clean_linker_0, # of connection points: 2
#     Edge 40, Type (0, 0), BuildingBlock: XIVTED_clean_linker_0, # of connection points: 2
#     Edge 41, Type (0, 0), BuildingBlock: XIVTED_clean_linker_0, # of connection points: 2
#     Edge 42, Type (0, 0), BuildingBlock: XIVTED_clean_linker_0, # of connection points: 2
#     Edge 43, Type (0, 0), BuildingBlock: XIVTED_clean_linker_0, # of connection points: 2
#     Edge 44, Type (0, 0), BuildingBlock: XIVTED_clean_linker_0, # of connection points: 2
#     Edge 45, Type (0, 0), BuildingBlock: XIVTED_clean_linker_0, # of connection points: 2
#     Edge 46, Type (0, 0), BuildingBlock: XIVTED_clean_linker_0, # of connection points: 2
#     Edge 47, Type (0, 0), BuildingBlock: XIVTED_clean_linker_0, # of connection points: 2
# Relax obj value: 0.143
# Max RMSD: 0.149
# Mean RMSD: 0.149
data_MOF--net-ukb--node1-TATPOV_clean_sbu_0--edge1-XIVTED_clean_linker_0
_symmetry_space_group_name_H-M    P1
_symmetry_Int_Tables_number       1
_symmetry_cell_setting            triclinic
loop_
_symmetry_equiv_pos_as_xyz
'x, y, z'
_cell_length_a     43.412476
_cell_length_b     43.51827
_cell_length_c     39.048044
_cell_angle_alpha  90.040744
_cell_angle_beta   90.010403
_cell_angle_gamma 89.987759
loop_
_atom_site_label
_atom_site_type_symbol
_atom_site_fract_x
_atom_site_fract_y
_atom_site_fract_z
_atom_type_partial_charge
Zn0 Zn 0.56041 0.25181 0.13355 0.0
Zn1 Zn 0.5189 0.21981 0.16962 0.0
O2 O 0.49634 0.23082 0.12473 0.0
O3 O 0.52976 0.25893 0.09613 0.0
O4 O 0.4872 0.19386 0.19319 0.0
O5 O 0.58893 0.21464 0.13386 0.0
O6 O 0.55459 0.18943 0.16427 0.0
C7 C 0.50335 0.24689 0.09864 0.0
C8 C 0.54674 0.27854 0.19932 0.0
O9 O 0.52919 0.2553 0.20316 0.0
O10 O 0.56189 0.28224 0.17196 0.0
C11 C 0.45995 0.20281 0.19969 0.0
O12 O 0.45209 0.23134 0.19302 0.0
C13 C 0.58073 0.19048 0.14953 0.0
Zn14 Zn 0.28789 0.57104 0.61998 0.0
Zn15 Zn 0.30314 0.52486 0.66148 0.0
O16 O 0.2968 0.50432 0.61432 0.0
O17 O 0.29116 0.54337 0.57907 0.0
O18 O 0.32049 0.49022 0.68941 0.0
O19 O 0.32452 0.59636 0.63402 0.0
O20 O 0.33712 0.55769 0.66742 0.0
C21 C 0.2936 0.51478 0.58412 0.0
C22 C 0.24289 0.55722 0.67407 0.0
O23 O 0.26268 0.53759 0.68418 0.0
O24 O 0.24787 0.57308 0.64737 0.0
C25 C 0.31166 0.46245 0.6871 0.0
O26 O 0.28807 0.45564 0.66743 0.0
C27 C 0.34261 0.58446 0.65566 0.0
Zn28 Zn 0.94176 0.25116 0.14062 0.0
Zn29 Zn 0.98777 0.28005 0.17406 0.0
O30 O 0.00677 0.26892 0.12729 0.0
O31 O 0.96988 0.24346 0.10085 0.0
O32 O 0.02131 0.30529 0.19543 0.0
O33 O 0.91506 0.28962 0.1437 0.0
O34 O 0.95272 0.3114 0.17249 0.0
C35 C 0.99707 0.25386 0.1015 0.0
C36 C 0.9599 0.22204 0.20439 0.0
O37 O 0.97911 0.24406 0.20722 0.0
O38 O 0.9421 0.2203 0.17878 0.0
C39 C 0.04957 0.29775 0.19663 0.0
O40 O 0.05809 0.27052 0.18562 0.0
C41 C 0.92574 0.31258 0.15977 0.0
Zn42 Zn 0.21572 0.93814 0.62972 0.0
Zn43 Zn 0.20279 0.98369 0.67235 0.0
O44 O 0.20859 0.00428 0.62503 0.0
O45 O 0.21153 0.96556 0.58892 0.0
O46 O 0.18603 0.01865 0.70028 0.0
O47 O 0.17959 0.91278 0.64467 0.0
O48 O 0.16888 0.95094 0.67963 0.0
C49 C 0.2103 0.99413 0.59453 0.0
C50 C 0.26279 0.95081 0.68223 0.0
O51 O 0.24365 0.97046 0.69377 0.0
O52 O 0.25662 0.93555 0.65537 0.0
C53 C 0.19586 0.04612 0.69879 0.0
O54 O 0.22053 0.05227 0.68055 0.0
C55 C 0.16264 0.92442 0.66759 0.0
Zn56 Zn 0.55944 0.25099 0.83248 0.0
Zn57 Zn 0.51472 0.27957 0.7963 0.0
O58 O 0.493 0.26773 0.84129 0.0
O59 O 0.52889 0.24276 0.86992 0.0
O60 O 0.48245 0.30451 0.77226 0.0
O61 O 0.58563 0.28993 0.83158 0.0
O62 O 0.54879 0.31153 0.80137 0.0
C63 C 0.50157 0.25265 0.86754 0.0
C64 C 0.54583 0.22253 0.76709 0.0
O65 O 0.52644 0.24427 0.76332 0.0
O66 O 0.562 0.22053 0.79397 0.0
C67 C 0.45431 0.29711 0.76885 0.0
O68 O 0.44491 0.27008 0.77955 0.0
C69 C 0.57512 0.31301 0.81562 0.0
Zn70 Zn 0.21526 0.56954 0.34077 0.0
Zn71 Zn 0.20286 0.52477 0.29636 0.0
O72 O 0.21125 0.5023 0.34202 0.0
O73 O 0.21441 0.53974 0.37981 0.0
O74 O 0.18708 0.49058 0.26653 0.0
O75 O 0.17694 0.59315 0.32887 0.0
O76 O 0.16661 0.55542 0.29322 0.0
C77 C 0.21396 0.51138 0.37284 0.0
C78 C 0.26068 0.56165 0.28561 0.0
O79 O 0.24217 0.5414 0.27406 0.0
O80 O 0.2548 0.57558 0.31341 0.0
C81 C 0.1963 0.46289 0.26823 0.0
O82 O 0.21972 0.45603 0.28812 0.0
C83 C 0.15939 0.5811 0.30677 0.0
Zn84 Zn 0.93968 0.25339 0.82939 0.0
Zn85 Zn 0.98641 0.22843 0.793 0.0
O86 O 0.00606 0.23793 0.83989 0.0
O87 O 0.96849 0.26007 0.8688 0.0
O88 O 0.02004 0.20529 0.7689 0.0
O89 O 0.91447 0.2141 0.8243 0.0
O90 O 0.95265 0.19573 0.7935 0.0
C91 C 0.99615 0.2511 0.86684 0.0
C92 C 0.95522 0.28658 0.76722 0.0
O93 O 0.97536 0.26567 0.76251 0.0
O94 O 0.9379 0.28619 0.79329 0.0
C95 C 0.04867 0.21118 0.77068 0.0
O96 O 0.05799 0.23589 0.78701 0.0
C97 C 0.92595 0.19259 0.80653 0.0
Zn98 Zn 0.30157 0.93097 0.35048 0.0
Zn99 Zn 0.30792 0.9786 0.30779 0.0
O100 O 0.29918 0.9989 0.35446 0.0
O101 O 0.29726 0.95992 0.39032 0.0
O102 O 0.32107 0.01413 0.27838 0.0
O103 O 0.34271 0.91271 0.33948 0.0
O104 O 0.34569 0.94994 0.30165 0.0
C105 C 0.2962 0.98852 0.38471 0.0
C106 C 0.25544 0.93555 0.29483 0.0
O107 O 0.2691 0.9603 0.28636 0.0
O108 O 0.26496 0.91979 0.32006 0.0
C109 C 0.31363 0.04207 0.28307 0.0
O110 O 0.29335 0.04902 0.30681 0.0
C111 C 0.35687 0.92571 0.31521 0.0
Zn112 Zn 0.44165 0.78729 0.83901 0.0
Zn113 Zn 0.48702 0.80261 0.79686 0.0
O114 O 0.50812 0.79458 0.84357 0.0
O115 O 0.46957 0.78907 0.87968 0.0
O116 O 0.52142 0.82141 0.76954 0.0
O117 O 0.41582 0.82397 0.82671 0.0
O118 O 0.45373 0.83636 0.79207 0.0
C119 C 0.49815 0.7909 0.87394 0.0
C120 C 0.45435 0.74317 0.78348 0.0
O121 O 0.47394 0.76284 0.77298 0.0
O122 O 0.43912 0.748 0.8107 0.0
C123 C 0.54946 0.81309 0.77083 0.0
O124 O 0.55702 0.78858 0.78857 0.0
C125 C 0.42722 0.84194 0.80466 0.0
Zn126 Zn 0.74473 0.43129 0.33576 0.0
Zn127 Zn 0.71912 0.4763 0.29736 0.0
O128 O 0.7284 0.49763 0.3433 0.0
O129 O 0.75144 0.46168 0.3737 0.0
O130 O 0.69666 0.50944 0.27169 0.0
O131 O 0.70507 0.40633 0.33232 0.0
O132 O 0.68592 0.4432 0.30024 0.0
C133 C 0.74184 0.48898 0.3706 0.0
C134 C 0.77741 0.44378 0.27266 0.0
O135 O 0.75632 0.46362 0.26728 0.0
O136 O 0.77744 0.42769 0.29965 0.0
C137 C 0.70554 0.53721 0.26976 0.0
O138 O 0.73231 0.54502 0.28283 0.0
C139 C 0.68306 0.41717 0.31477 0.0
Zn140 Zn 0.06811 0.71221 0.84479 0.0
Zn141 Zn 0.02149 0.70116 0.80197 0.0
O142 O 1.00175 0.70744 0.84969 0.0
O143 O 0.04063 0.70875 0.88582 0.0
O144 O 0.98621 0.68613 0.7727 0.0
O145 O 0.09226 0.67554 0.8288 0.0
O146 O 0.05349 0.66667 0.79394 0.0
C147 C 0.01196 0.70876 0.8802 0.0
C148 C 0.05633 0.76011 0.79302 0.0
O149 O 0.03596 0.74175 0.78146 0.0
O150 O 0.07174 0.75319 0.81955 0.0
C151 C 0.95798 0.68795 0.78117 0.0
O152 O 0.95031 0.70273 0.80923 0.0
C153 C 0.07998 0.65945 0.80553 0.0
Zn154 Zn 0.76387 0.0748 0.32722 0.0
Zn155 Zn 0.78635 0.02734 0.29182 0.0
O156 O 0.7714 0.0071 0.33626 0.0
O157 O 0.74682 0.04492 0.36193 0.0
O158 O 0.80876 0.99312 0.26779 0.0
O159 O 0.80599 0.0941 0.33298 0.0
O160 O 0.82199 0.05781 0.2981 0.0
C161 C 0.75482 0.01696 0.36079 0.0
C162 C 0.73729 0.0677 0.25963 0.0
O163 O 0.75245 0.04261 0.25856 0.0
O164 O 0.73954 0.08554 0.28512 0.0
C165 C 0.80188 0.96476 0.26896 0.0
O166 O 0.77656 0.95609 0.28464 0.0
C167 C 0.82729 0.08213 0.3153 0.0
Zn168 Zn 0.44239 0.72563 0.12705 0.0
Zn169 Zn 0.48798 0.70667 0.16739 0.0
O170 O 0.50821 0.71295 0.11995 0.0
O171 O 0.46912 0.72208 0.08547 0.0
O172 O 0.52174 0.68581 0.19387 0.0
O173 O 0.41456 0.69065 0.14024 0.0
O174 O 0.45255 0.67534 0.17332 0.0
C175 C 0.4976 0.71775 0.09004 0.0
C176 C 0.46013 0.76845 0.18208 0.0
O177 O 0.47866 0.74736 0.1915 0.0
O178 O 0.44348 0.76483 0.15566 0.0
C179 C 0.55017 0.69249 0.19158 0.0
O180 O 0.55866 0.71619 0.17303 0.0
C181 C 0.42532 0.67175 0.16172 0.0
Zn182 Zn 0.75159 0.4338 0.64127 0.0
Zn183 Zn 0.77553 0.48189 0.67601 0.0
O184 O 0.76196 0.50014 0.62974 0.0
O185 O 0.73978 0.46169 0.60254 0.0
O186 O 0.79588 0.5184 0.69816 0.0
O187 O 0.79338 0.41254 0.64254 0.0
O188 O 0.8111 0.45117 0.6731 0.0
C189 C 0.7476 0.48967 0.60383 0.0
C190 C 0.72163 0.44604 0.70614 0.0
O191 O 0.74098 0.46794 0.70901 0.0
O192 O 0.72168 0.42874 0.68008 0.0
C193 C 0.81787 0.52995 0.68093 0.0
O194 O 0.82512 0.51748 0.65135 0.0
C195 C 0.81522 0.42515 0.65887 0.0
Zn196 Zn 0.06637 0.7786 0.12757 0.0
Zn197 Zn 0.02542 0.8016 0.16808 0.0
O198 O 0.00378 0.79589 0.12108 0.0
O199 O 0.04181 0.78671 0.08535 0.0
O200 O 0.99274 0.82408 0.19457 0.0
O201 O 0.09894 0.80806 0.14258 0.0
O202 O 0.0631 0.83082 0.17318 0.0
C203 C 0.01358 0.79181 0.09069 0.0
C204 C 0.0472 0.73711 0.18152 0.0
O205 O 0.03282 0.76059 0.19279 0.0
O206 O 0.06136 0.73843 0.15318 0.0
C207 C 0.9648 0.81536 0.19528 0.0
O208 O 0.95714 0.78933 0.18049 0.0
C209 C 0.09089 0.82942 0.16264 0.0
Zn210 Zn 0.74476 0.07311 0.62701 0.0
Zn211 Zn 0.72089 0.0278 0.66645 0.0
O212 O 0.72975 0.00619 0.62054 0.0
O213 O 0.75119 0.04251 0.58924 0.0
O214 O 0.69925 0.99478 0.69315 0.0
O215 O 0.70471 0.09737 0.63115 0.0
O216 O 0.68704 0.06021 0.66383 0.0
C217 C 0.74235 0.015 0.59282 0.0
C218 C 0.77886 0.06185 0.68956 0.0
O219 O 0.75829 0.04163 0.6956 0.0
O220 O 0.77809 0.07762 0.66234 0.0
C221 C 0.7066 0.9665 0.69295 0.0
O222 O 0.73163 0.95773 0.67677 0.0
C223 C 0.68329 0.08609 0.64924 0.0
H224 H 0.40132 0.21381 0.22341 0.0
H225 H 0.36115 0.03508 0.23793 0.0
H226 H 0.46564 0.14047 0.20248 0.0
H227 H 0.3076 0.10475 0.28959 0.0
H228 H 0.39521 0.07493 0.2161 0.0
H229 H 0.36297 0.17535 0.24075 0.0
C230 C 0.4074 0.18969 0.22252 0.0
C231 C 0.43677 0.18035 0.21161 0.0
C232 C 0.37591 0.08154 0.23206 0.0
C233 C 0.39301 0.13644 0.23079 0.0
C234 C 0.3563 0.0588 0.2444 0.0
C235 C 0.33162 0.06652 0.26596 0.0
C236 C 0.37082 0.11233 0.24113 0.0
C237 C 0.32647 0.09773 0.27325 0.0
C238 C 0.38552 0.16781 0.23237 0.0
C239 C 0.44338 0.14879 0.21089 0.0
N240 N 0.34604 0.11954 0.26099 0.0
N241 N 0.42166 0.12802 0.2202 0.0
H242 H 0.36561 0.46867 0.72236 0.0
H243 H 0.39307 0.28922 0.75279 0.0
H244 H 0.30101 0.40013 0.6871 0.0
H245 H 0.4648 0.35788 0.75662 0.0
H246 H 0.35649 0.32916 0.73483 0.0
H247 H 0.39927 0.42789 0.74279 0.0
C248 C 0.35833 0.44503 0.71916 0.0
C249 C 0.3305 0.43783 0.70274 0.0
C250 C 0.38028 0.33534 0.73953 0.0
C251 C 0.36919 0.3909 0.726 0.0
C252 C 0.40115 0.3126 0.74975 0.0
C253 C 0.43205 0.3202 0.75618 0.0
C254 C 0.39038 0.36585 0.73623 0.0
C255 C 0.44126 0.35087 0.75186 0.0
C256 C 0.37769 0.42173 0.73068 0.0
C257 C 0.32233 0.40672 0.69946 0.0
N258 N 0.4205 0.37254 0.74235 0.0
N259 N 0.34166 0.38434 0.71091 0.0
H260 H 0.1114 0.28938 0.20916 0.0
H261 H 0.14261 0.46912 0.23243 0.0
H262 H 0.0406 0.35906 0.2069 0.0
H263 H 0.20665 0.40052 0.26878 0.0
H264 H 0.1082 0.42833 0.21353 0.0
H265 H 0.14936 0.32924 0.22346 0.0
C266 C 0.10382 0.31298 0.21176 0.0
C267 C 0.07276 0.32088 0.20693 0.0
C268 C 0.12985 0.42217 0.22549 0.0
C269 C 0.11599 0.36642 0.22262 0.0
C270 C 0.14965 0.44547 0.23612 0.0
C271 C 0.17747 0.43826 0.25256 0.0
C272 C 0.13792 0.39135 0.23109 0.0
C273 C 0.18533 0.40713 0.25643 0.0
C274 C 0.12548 0.33566 0.21987 0.0
C275 C 0.06423 0.35182 0.21055 0.0
N276 N 0.16555 0.38476 0.24592 0.0
N277 N 0.08573 0.37342 0.21799 0.0
H278 H 0.20937 0.10784 0.70252 0.0
H279 H 0.03675 0.153 0.74843 0.0
H280 H 0.13832 0.04181 0.72644 0.0
H281 H 0.11174 0.21639 0.76552 0.0
H282 H 0.07383 0.11348 0.73284 0.0
H283 H 0.17433 0.14931 0.72005 0.0
C284 C 0.18658 0.10203 0.71174 0.0
C285 C 0.17673 0.07129 0.71285 0.0
C286 C 0.08221 0.13604 0.73997 0.0
C287 C 0.13658 0.11849 0.73222 0.0
C288 C 0.06103 0.15874 0.74865 0.0
C289 C 0.07114 0.18808 0.75842 0.0
C290 C 0.11382 0.14268 0.74065 0.0
C291 C 0.10295 0.19404 0.75825 0.0
C292 C 0.16664 0.12568 0.72168 0.0
C293 C 0.14695 0.06511 0.72504 0.0
N294 N 0.12324 0.17151 0.74942 0.0
N295 N 0.12788 0.08848 0.73389 0.0
H296 H 0.61182 0.80256 0.76576 0.0
H297 H 0.64835 0.97647 0.71674 0.0
H298 H 0.54207 0.87071 0.74458 0.0
H299 H 0.71483 0.90413 0.70024 0.0
H300 H 0.61081 0.93817 0.73458 0.0
H301 H 0.6514 0.8394 0.74752 0.0
C302 C 0.6048 0.82512 0.75704 0.0
C303 C 0.57357 0.83357 0.75678 0.0
C304 C 0.63362 0.93064 0.7271 0.0
C305 C 0.61863 0.8758 0.73657 0.0
C306 C 0.65519 0.95254 0.71713 0.0
C307 C 0.6848 0.94351 0.70681 0.0
C308 C 0.64168 0.89941 0.72714 0.0
C309 C 0.69223 0.91209 0.70787 0.0
C310 C 0.62739 0.84609 0.74669 0.0
C311 C 0.56581 0.86312 0.74523 0.0
N312 N 0.67078 0.89111 0.71788 0.0
N313 N 0.58818 0.88319 0.73591 0.0
H314 H 0.54016 0.63703 0.22228 0.0
H315 H 0.71714 0.59832 0.25719 0.0
H316 H 0.61318 0.69915 0.19325 0.0
H317 H 0.6449 0.53022 0.2531 0.0
H318 H 0.67975 0.63754 0.23942 0.0
H319 H 0.57861 0.59994 0.24099 0.0
C320 C 0.56429 0.64302 0.22009 0.0
C321 C 0.57344 0.67123 0.20597 0.0
C322 C 0.67223 0.61396 0.24229 0.0
C323 C 0.61769 0.62861 0.22728 0.0
C324 C 0.69352 0.59158 0.25239 0.0
C325 C 0.68415 0.56093 0.25665 0.0
C326 C 0.64135 0.60564 0.23693 0.0
C327 C 0.65324 0.55351 0.25009 0.0
C328 C 0.58626 0.6217 0.23059 0.0
C329 C 0.6051 0.67763 0.20384 0.0
N330 N 0.63296 0.57571 0.24081 0.0
N331 N 0.62615 0.65644 0.21435 0.0
H332 H 0.96475 0.65795 0.72001 0.0
H333 H 0.8084 0.56326 0.73983 0.0
H334 H 0.89849 0.67551 0.80012 0.0
H335 H 0.86825 0.55682 0.65182 0.0
H336 H 0.84008 0.60549 0.7617 0.0
H337 H 0.9285 0.62232 0.6935 0.0
C338 C 0.94244 0.65458 0.73184 0.0
C339 C 0.93476 0.66956 0.7625 0.0
C340 C 0.84613 0.59495 0.73748 0.0
C341 C 0.89323 0.62845 0.73248 0.0
C342 C 0.8281 0.57079 0.72505 0.0
C343 C 0.8358 0.55633 0.69407 0.0
C344 C 0.87214 0.60455 0.71892 0.0
C345 C 0.8615 0.56715 0.6759 0.0
C346 C 0.92173 0.63418 0.7167 0.0
C347 C 0.90544 0.66439 0.77655 0.0
N348 N 0.87884 0.59043 0.6887 0.0
N349 N 0.88587 0.64399 0.76164 0.0
H350 H 0.79473 0.90211 0.26346 0.0
H351 H 0.97194 0.87433 0.21798 0.0
H352 H 0.86059 0.97492 0.24673 0.0
H353 H 0.90289 0.80415 0.20313 0.0
H354 H 0.93169 0.91001 0.23556 0.0
H355 H 0.83418 0.86454 0.2468 0.0
C356 C 0.81737 0.91022 0.2561 0.0
C357 C 0.82435 0.94173 0.2565 0.0
C358 C 0.92531 0.88679 0.22852 0.0
C359 C 0.86955 0.89895 0.23802 0.0
C360 C 0.94833 0.8663 0.21867 0.0
C361 C 0.94078 0.8362 0.20889 0.0
C362 C 0.89446 0.87714 0.2289 0.0
C363 C 0.90973 0.82719 0.21033 0.0
C364 C 0.83984 0.88878 0.24665 0.0
C365 C 0.85408 0.95091 0.24676 0.0
N366 N 0.88765 0.8476 0.22012 0.0
N367 N 0.87558 0.92964 0.23816 0.0
H368 H 0.54069 0.34025 0.19714 0.0
H369 H 0.67065 0.35817 0.33587 0.0
H370 H 0.56831 0.26613 0.26337 0.0
H371 H 0.63122 0.43403 0.27972 0.0
H372 H 0.62755 0.32587 0.31763 0.0
H373 H 0.56614 0.3767 0.23525 0.0
C374 C 0.55127 0.33186 0.22047 0.0
C375 C 0.55248 0.30032 0.2273 0.0
C376 C 0.62804 0.34974 0.30983 0.0
C377 C 0.58305 0.34154 0.27015 0.0
C378 C 0.65271 0.36819 0.32016 0.0
C379 C 0.65494 0.39869 0.30868 0.0
C380 C 0.6056 0.36183 0.28766 0.0
C381 C 0.63082 0.4105 0.28869 0.0
C382 C 0.56604 0.35259 0.24212 0.0
C383 C 0.56675 0.29039 0.25751 0.0
N384 N 0.60746 0.39194 0.27841 0.0
N385 N 0.58221 0.3109 0.27747 0.0
H386 H 0.23322 0.54657 0.74244 0.0
H387 H 0.07052 0.63293 0.74279 0.0
H388 H 0.18875 0.58194 0.65181 0.0
H389 H 0.13145 0.63057 0.83013 0.0
H390 H 0.10662 0.60009 0.71148 0.0
H391 H 0.18895 0.56369 0.77662 0.0
C392 C 0.21392 0.55741 0.72967 0.0
C393 C 0.2148 0.56325 0.69434 0.0
C394 C 0.11178 0.60637 0.7377 0.0
C395 C 0.16423 0.58255 0.73309 0.0
C396 C 0.09113 0.62496 0.75566 0.0
C397 C 0.09824 0.6349 0.78894 0.0
C398 C 0.13952 0.59741 0.75327 0.0
C399 C 0.12529 0.62381 0.80433 0.0
C400 C 0.18878 0.56725 0.74917 0.0
C401 C 0.18919 0.57739 0.67907 0.0
N402 N 0.14511 0.60588 0.78626 0.0
N403 N 0.16503 0.5867 0.69855 0.0
H404 H 0.87842 0.06245 0.28068 0.0
H405 H 0.94627 0.2318 0.27173 0.0
H406 H 0.84407 0.13878 0.34019 0.0
H407 H 0.9624 0.1604 0.19742 0.0
H408 H 0.92276 0.19359 0.31001 0.0
H409 H 0.92259 0.09358 0.26384 0.0
C410 C 0.88041 0.08557 0.29073 0.0
C411 C 0.85705 0.0983 0.31112 0.0
C412 C 0.93237 0.18613 0.2858 0.0
C413 C 0.9075 0.13413 0.29168 0.0
C414 C 0.94604 0.20784 0.26418 0.0
C415 C 0.95602 0.19905 0.2315 0.0
C416 C 0.92892 0.15564 0.27445 0.0
C417 C 0.95479 0.16794 0.22247 0.0
C418 C 0.90568 0.10334 0.28109 0.0
C419 C 0.86123 0.12821 0.32388 0.0
N420 N 0.94106 0.1474 0.24363 0.0
N421 N 0.88565 0.14535 0.31339 0.0
H422 H 0.31641 0.92837 0.65613 0.0
H423 H 0.37574 0.86794 0.83296 0.0
H424 H 0.27417 0.95681 0.75099 0.0
H425 H 0.43459 0.87261 0.74404 0.0
H426 H 0.33934 0.90248 0.80467 0.0
H427 H 0.36092 0.90971 0.68817 0.0
C428 C 0.31672 0.93104 0.68372 0.0
C429 C 0.29148 0.94386 0.701 0.0
C430 C 0.36049 0.89642 0.79162 0.0
C431 C 0.34212 0.9221 0.73788 0.0
C432 C 0.38126 0.87664 0.80771 0.0
C433 C 0.40806 0.86707 0.79064 0.0
C434 C 0.36628 0.90617 0.75797 0.0
C435 C 0.41414 0.87925 0.75807 0.0
C436 C 0.34219 0.9205 0.70198 0.0
C437 C 0.29316 0.94701 0.73672 0.0
N438 N 0.39311 0.8977 0.74252 0.0
N439 N 0.31782 0.93562 0.7541 0.0
H440 H 0.54294 0.1607 0.77124 0.0
H441 H 0.669 0.14471 0.62821 0.0
H442 H 0.56516 0.23444 0.70205 0.0
H443 H 0.63264 0.06812 0.68563 0.0
H444 H 0.62559 0.17607 0.64759 0.0
H445 H 0.5685 0.12449 0.73293 0.0
C446 C 0.55239 0.16901 0.74729 0.0
C447 C 0.55203 0.2004 0.7396 0.0
C448 C 0.62682 0.15224 0.65542 0.0
C449 C 0.58267 0.15953 0.69642 0.0
C450 C 0.65166 0.13432 0.64443 0.0
C451 C 0.65487 0.10392 0.65594 0.0
C452 C 0.60522 0.13971 0.67828 0.0
C453 C 0.63149 0.09161 0.67662 0.0
C454 C 0.56719 0.14842 0.72549 0.0
C455 C 0.56485 0.21026 0.70858 0.0
N456 N 0.60797 0.10967 0.68754 0.0
N457 N 0.58038 0.18996 0.68843 0.0
H458 H 0.37163 0.64931 0.1347 0.0
H459 H 0.31419 0.58492 0.31099 0.0
H460 H 0.43233 0.63988 0.22161 0.0
H461 H 0.27037 0.5586 0.21624 0.0
H462 H 0.35782 0.605 0.27853 0.0
H463 H 0.33438 0.61572 0.16313 0.0
C464 C 0.37732 0.63981 0.15954 0.0
C465 C 0.405 0.64766 0.17597 0.0
C466 C 0.3389 0.59444 0.26482 0.0
C467 C 0.3623 0.60966 0.20879 0.0
C468 C 0.31392 0.5831 0.28332 0.0
C469 C 0.28856 0.57031 0.26622 0.0
C470 C 0.33822 0.59366 0.2289 0.0
C471 C 0.2895 0.56831 0.23037 0.0
C472 C 0.35608 0.62058 0.17569 0.0
C473 C 0.41125 0.63453 0.20805 0.0
N474 N 0.31371 0.5804 0.2128 0.0
N475 N 0.38981 0.61662 0.22369 0.0
H476 H 0.83227 0.36882 0.63333 0.0
H477 H 0.95594 0.34798 0.77717 0.0
H478 H 0.86516 0.4433 0.69663 0.0
H479 H 0.93893 0.27899 0.70036 0.0
H480 H 0.93019 0.38601 0.74131 0.0
H481 H 0.87688 0.33826 0.65053 0.0
C482 C 0.8491 0.37895 0.65042 0.0
C483 C 0.84455 0.40843 0.6642 0.0
C484 C 0.93276 0.36281 0.73169 0.0
C485 C 0.8956 0.37348 0.68412 0.0
C486 C 0.94766 0.34118 0.7521 0.0
C487 C 0.94946 0.3105 0.74155 0.0
C488 C 0.91861 0.35335 0.70108 0.0
C489 C 0.9381 0.30258 0.70915 0.0
C490 C 0.87465 0.3615 0.66014 0.0
C491 C 0.86737 0.42049 0.68584 0.0
N492 N 0.92241 0.32375 0.69034 0.0
N493 N 0.89158 0.40277 0.6956 0.0
H494 H 0.15299 0.82238 0.15825 0.0
H495 H 0.21101 0.96753 0.25911 0.0
H496 H 0.08362 0.8829 0.20009 0.0
H497 H 0.2423 0.87581 0.28261 0.0
H498 H 0.16938 0.94516 0.22373 0.0
H499 H 0.19245 0.8514 0.18861 0.0
C500 C 0.14602 0.84212 0.17329 0.0
C501 C 0.11483 0.85001 0.17691 0.0
C502 C 0.18545 0.93017 0.23681 0.0
C503 C 0.16015 0.88342 0.21135 0.0
C504 C 0.20913 0.9428 0.25677 0.0
C505 C 0.22994 0.92341 0.27384 0.0
C506 C 0.18353 0.89816 0.23316 0.0
C507 C 0.22659 0.89154 0.27011 0.0
C508 C 0.1686 0.85853 0.19068 0.0
C509 C 0.10737 0.87589 0.19685 0.0
N510 N 0.20408 0.87993 0.24984 0.0
N511 N 0.12995 0.89174 0.21351 0.0
H512 H 0.36772 0.63711 0.62938 0.0
H513 H 0.43396 0.68806 0.80707 0.0
H514 H 0.375 0.57465 0.71483 0.0
H515 H 0.45825 0.73539 0.7139 0.0
H516 H 0.41467 0.64507 0.77313 0.0
H517 H 0.40319 0.67218 0.65833 0.0
C518 C 0.37716 0.63055 0.654 0.0
C519 C 0.36803 0.60311 0.66995 0.0
C520 C 0.42469 0.66459 0.76005 0.0
C521 C 0.40828 0.64332 0.70336 0.0
C522 C 0.43561 0.68917 0.77941 0.0
C523 C 0.44741 0.71539 0.76321 0.0
C524 C 0.42487 0.66652 0.72417 0.0
C525 C 0.44926 0.71558 0.72734 0.0
C526 C 0.39748 0.65055 0.67045 0.0
C527 C 0.38122 0.59565 0.70169 0.0
N528 N 0.43749 0.69174 0.70894 0.0
N529 N 0.40022 0.61593 0.71765 0.0
H530 H 0.86633 0.32314 0.13827 0.0
H531 H 0.83895 0.44593 0.28217 0.0
H532 H 0.94004 0.36388 0.19704 0.0
H533 H 0.76986 0.42484 0.20658 0.0
H534 H 0.87782 0.42139 0.24623 0.0
H535 H 0.83198 0.36423 0.15755 0.0
C536 C 0.87544 0.34095 0.15479 0.0
C537 C 0.90599 0.33968 0.16659 0.0
C538 C 0.85436 0.42273 0.23693 0.0
C539 C 0.86674 0.38666 0.18888 0.0
C540 C 0.83225 0.43691 0.25739 0.0
C541 C 0.80137 0.43741 0.24711 0.0
C542 C 0.84529 0.40801 0.20652 0.0
C543 C 0.7936 0.42509 0.2151 0.0
C544 C 0.85582 0.36448 0.16571 0.0
C545 C 0.91657 0.3636 0.18769 0.0
N546 N 0.81533 0.41021 0.19619 0.0
N547 N 0.89686 0.38578 0.19857 0.0
H548 H 0.0826 0.81198 0.81905 0.0
H549 H 0.13381 0.87439 0.6399 0.0
H550 H 0.04716 0.77337 0.72517 0.0
H551 H 0.13598 0.93099 0.73067 0.0
H552 H 0.10026 0.8381 0.66973 0.0
H553 H 0.10083 0.85664 0.78711 0.0
C554 C 0.07836 0.81309 0.79173 0.0
C555 C 0.06366 0.78882 0.77463 0.0
C556 C 0.10759 0.85875 0.6829 0.0
C557 C 0.0848 0.83966 0.73787 0.0
C558 C 0.1268 0.87943 0.66593 0.0
C559 C 0.13799 0.90554 0.68299 0.0
C560 C 0.10008 0.86389 0.71739 0.0
C561 C 0.12799 0.91108 0.71661 0.0
C562 C 0.08863 0.83865 0.77355 0.0
C563 C 0.05849 0.79156 0.73929 0.0
N564 N 0.11009 0.89009 0.73296 0.0
N565 N 0.06957 0.81628 0.72193 0.0
H566 H 0.57045 0.13385 0.1783 0.0
H567 H 0.68824 0.03715 0.23115 0.0
H568 H 0.64169 0.18894 0.13167 0.0
H569 H 0.74067 0.12102 0.22507 0.0
H570 H 0.64885 0.06025 0.19373 0.0
H571 H 0.60938 0.09634 0.19519 0.0
C572 C 0.59418 0.13771 0.17089 0.0
C573 C 0.60286 0.16487 0.15402 0.0
C574 C 0.66915 0.07342 0.20027 0.0
C575 C 0.64758 0.12182 0.17302 0.0
C576 C 0.69176 0.0601 0.22116 0.0
C577 C 0.7174 0.07743 0.23122 0.0
C578 C 0.6726 0.10412 0.18952 0.0
C579 C 0.72099 0.1071 0.21797 0.0
C580 C 0.61641 0.11608 0.18028 0.0
C581 C 0.63393 0.16854 0.14495 0.0
N582 N 0.69875 0.11957 0.19797 0.0
N583 N 0.65522 0.14762 0.15524 0.0
H584 H 0.47175 0.77652 0.25061 0.0
H585 H 0.38381 0.93777 0.2532 0.0
H586 H 0.43877 0.82411 0.16089 0.0
H587 H 0.39007 0.8772 0.34046 0.0
H588 H 0.41888 0.90396 0.22189 0.0
H589 H 0.45622 0.82067 0.28578 0.0
C590 C 0.46186 0.79649 0.23824 0.0
C591 C 0.45601 0.7965 0.2029 0.0
C592 C 0.41301 0.89842 0.24812 0.0
C593 C 0.43845 0.84689 0.24277 0.0
C594 C 0.39312 0.91779 0.2661 0.0
C595 C 0.38345 0.90994 0.29925 0.0
C596 C 0.42339 0.87113 0.26347 0.0
C597 C 0.39646 0.88383 0.3147 0.0
C598 C 0.45293 0.82159 0.25831 0.0
C599 C 0.44318 0.82296 0.18815 0.0
N600 N 0.41542 0.8651 0.29651 0.0
N601 N 0.43458 0.84697 0.20818 0.0
H602 H 0.73297 0.42415 0.77023 0.0
H603 H 0.55895 0.3669 0.78447 0.0
H604 H 0.65977 0.45019 0.70171 0.0
H605 H 0.63538 0.3223 0.83487 0.0
H606 H 0.59321 0.40853 0.76742 0.0
H607 H 0.69503 0.39825 0.80704 0.0
C608 C 0.70873 0.42544 0.76377 0.0
C609 C 0.69923 0.43931 0.73318 0.0
C610 C 0.6024 0.38986 0.78264 0.0
C611 C 0.65611 0.40948 0.77435 0.0
C612 C 0.58285 0.36604 0.7924 0.0
C613 C 0.59445 0.34068 0.81049 0.0
C614 C 0.63384 0.38834 0.79085 0.0
C615 C 0.62553 0.34116 0.82049 0.0
C616 C 0.68718 0.41042 0.78449 0.0
C617 C 0.6678 0.43981 0.72527 0.0
N618 N 0.6443 0.36438 0.81007 0.0
N619 N 0.64737 0.42482 0.74555 0.0
H620 H 0.13304 0.63248 0.33477 0.0
H621 H 0.05755 0.67865 0.15964 0.0
H622 H 0.1247 0.56989 0.24946 0.0
H623 H 0.04636 0.73257 0.25152 0.0
H624 H 0.07541 0.63558 0.19425 0.0
H625 H 0.09531 0.66627 0.30778 0.0
C626 C 0.1229 0.62558 0.31061 0.0
C627 C 0.13251 0.5986 0.29402 0.0
C628 C 0.06848 0.65657 0.20702 0.0
C629 C 0.08952 0.63738 0.26279 0.0
C630 C 0.05828 0.68118 0.18724 0.0
C631 C 0.05093 0.70932 0.20274 0.0
C632 C 0.07204 0.66034 0.24251 0.0
C633 C 0.05197 0.71129 0.23857 0.0
C634 C 0.10127 0.64488 0.29524 0.0
C635 C 0.11826 0.59064 0.26299 0.0
N636 N 0.06306 0.68733 0.25724 0.0
N637 N 0.09793 0.61024 0.24807 0.0
H638 H 0.94261 0.14384 0.76639 0.0
H639 H 0.77234 0.0744 0.75784 0.0
H640 H 0.86697 0.17843 0.82704 0.0
H641 H 0.83983 0.06745 0.67731 0.0
H642 H 0.81115 0.09961 0.79434 0.0
H643 H 0.90928 0.10297 0.74509 0.0
C644 C 0.91912 0.14262 0.77566 0.0
C645 C 0.90741 0.16504 0.79802 0.0
C646 C 0.8176 0.09182 0.76899 0.0
C647 C 0.86914 0.11817 0.77365 0.0
C648 C 0.79562 0.07722 0.74837 0.0
C649 C 0.80307 0.06903 0.71464 0.0
C650 C 0.84712 0.09774 0.75573 0.0
C651 C 0.83329 0.07358 0.7032 0.0
C652 C 0.90012 0.11925 0.76345 0.0
C653 C 0.87686 0.16193 0.80943 0.0
N654 N 0.85416 0.08783 0.7236 0.0
N655 N 0.85863 0.13916 0.79677 0.0
H656 H 0.46978 0.20083 0.06957 0.0
H657 H 0.46569 0.29664 0.89714 0.0
H658 H 0.49099 0.29718 0.05999 0.0
H659 H 0.49276 0.20172 0.90631 0.0
H660 H 0.44704 0.29533 0.9565 0.0
H661 H 0.45024 0.20102 0.01053 0.0
C662 C 0.46906 0.22228 0.05553 0.0
C663 C 0.48254 0.24889 0.06908 0.0
C664 C 0.45592 0.27448 0.94498 0.0
C665 C 0.4603 0.24929 0.00227 0.0
C666 C 0.46644 0.27519 0.91117 0.0
C667 C 0.48129 0.24942 0.89738 0.0
C668 C 0.46008 0.24774 0.96457 0.0
C669 C 0.48191 0.2222 0.91648 0.0
C670 C 0.45803 0.22235 0.02192 0.0
C671 C 0.48125 0.27609 0.04999 0.0
N672 N 0.47193 0.22217 0.94939 0.0
N673 N 0.47082 0.27552 0.01726 0.0
H674 H 0.18093 0.49944 0.43022 0.0
H675 H 0.25144 0.46875 0.57964 0.0
H676 H 0.26574 0.47734 0.37867 0.0
H677 H 0.32211 0.5155 0.52239 0.0
H678 H 0.23046 0.44838 0.5257 0.0
H679 H 0.20286 0.48057 0.48384 0.0
C680 C 0.20367 0.48915 0.42999 0.0
C681 C 0.22166 0.48982 0.40029 0.0
C682 C 0.25122 0.46217 0.52517 0.0
C683 C 0.24734 0.46944 0.46144 0.0
C684 C 0.26331 0.47355 0.55584 0.0
C685 C 0.28815 0.49412 0.55507 0.0
C686 C 0.2644 0.47137 0.49397 0.0
C687 C 0.30266 0.49997 0.52377 0.0
C688 C 0.21621 0.47832 0.46055 0.0
C689 C 0.25121 0.47695 0.40121 0.0
N690 N 0.2903 0.48897 0.49431 0.0
N691 N 0.26365 0.46835 0.43167 0.0
H692 H 0.00398 0.20319 0.06186 0.0
H693 H 0.00462 0.30162 0.90618 0.0
H694 H 0.0317 0.29797 0.0703 0.0
H695 H 0.03011 0.20626 0.89752 0.0
H696 H 0.02317 0.30189 0.9652 0.0
H697 H 0.02211 0.20251 0.0027 0.0
C698 C 0.01481 0.22358 0.05144 0.0
C699 C 0.01595 0.25082 0.07051 0.0
C700 C 0.02578 0.28115 0.95013 0.0
C701 C 0.03572 0.25059 0.00275 0.0
C702 C 0.01511 0.28101 0.91651 0.0
C703 C 0.01554 0.25377 0.89743 0.0
C704 C 0.03566 0.25351 0.96505 0.0
C705 C 0.02931 0.22764 0.91168 0.0
C706 C 0.02526 0.2232 0.01774 0.0
C707 C 0.03027 0.27661 0.05615 0.0
N708 N 0.03794 0.22783 0.94516 0.0
N709 N 0.03871 0.2762 0.02262 0.0
H710 H 0.24976 0.0305 0.38598 0.0
H711 H 0.17785 0.99965 0.53548 0.0
H712 H 0.32185 0.99126 0.44795 0.0
H713 H 0.2587 0.0327 0.58768 0.0
H714 H 0.19944 0.01737 0.48119 0.0
H715 H 0.22538 0.05079 0.43821 0.0
C716 C 0.26109 0.02731 0.41044 0.0
C717 C 0.28747 0.00887 0.41305 0.0
C718 C 0.21184 0.02221 0.50466 0.0
C719 C 0.26003 0.03174 0.47216 0.0
C720 C 0.1995 0.01204 0.53559 0.0
C721 C 0.21663 0.01479 0.56579 0.0
C722 C 0.24201 0.03389 0.504 0.0
C723 C 0.24483 0.03038 0.56476 0.0
C724 C 0.24712 0.03869 0.44011 0.0
C725 C 0.30126 0.00508 0.44515 0.0
N726 N 0.25728 0.03828 0.53407 0.0
N727 N 0.28715 0.01612 0.47361 0.0
H728 H 0.53322 0.73998 0.88071 0.0
H729 H 0.5369 0.76534 0.08203 0.0
H730 H 0.50804 0.82402 0.93184 0.0
H731 H 0.50263 0.68417 0.03169 0.0
H732 H 0.5552 0.78466 0.02653 0.0
H733 H 0.55104 0.71904 0.93567 0.0
C734 C 0.53299 0.75456 0.90322 0.0
C735 C 0.51915 0.78363 0.90211 0.0
C736 C 0.54495 0.762 0.02798 0.0
C737 C 0.53927 0.76004 0.9644 0.0
C738 C 0.5347 0.75092 0.05953 0.0
C739 C 0.51825 0.72327 0.06106 0.0
C740 C 0.53893 0.74501 -0.00183 0.0
C741 C 0.51527 0.70562 0.03129 0.0
C742 C 0.54295 0.74257 0.93447 0.0
C743 C 0.51863 0.80149 0.93191 0.0
N744 N 0.52516 0.71699 0.00084 0.0
N745 N 0.52816 0.78924 0.96208 0.0
H746 H 0.78896 0.52837 0.57413 0.0
H747 H 0.69475 0.52062 0.39996 0.0
H748 H 0.6968 0.4928 0.56343 0.0
H749 H 0.79165 0.50122 0.41022 0.0
H750 H 0.69388 0.53852 0.45966 0.0
H751 H 0.7869 0.54626 0.51449 0.0
C752 C 0.76785 0.52553 0.55966 0.0
C753 C 0.7432 0.50866 0.57317 0.0
C754 C 0.71555 0.53156 0.44829 0.0
C755 C 0.74061 0.52919 0.5058 0.0
C756 C 0.71609 0.5215 0.41432 0.0
C757 C 0.74323 0.5091 0.40068 0.0
C758 C 0.74244 0.52952 0.46816 0.0
C759 C 0.77024 0.51033 0.42021 0.0
C760 C 0.76673 0.53564 0.52574 0.0
C761 C 0.71642 0.50533 0.55352 0.0
N762 N 0.7691 0.51993 0.45325 0.0
N763 N 0.71596 0.51512 0.52055 0.0
H764 H 0.01004 0.82341 0.03093 0.0
H765 H 0.0062 0.67854 0.94068 0.0
H766 H 0.97133 0.74651 0.08526 0.0
H767 H 0.97354 0.75756 0.8851 0.0
H768 H 0.98705 0.7014 -0.00618 0.0
H769 H 0.99025 0.80215 0.97724 0.0
C770 C 0.9961 0.80277 0.03162 0.0
C771 C 0.99221 0.78659 0.06226 0.0
C772 C 0.98288 0.71321 0.96985 0.0
C773 C 0.97108 0.76138 0.00118 0.0
C774 C 0.99381 0.70014 0.93959 0.0
C775 C 0.99142 0.71633 0.90877 0.0
C776 C 0.97095 0.74321 0.96926 0.0
C777 C 0.97564 0.74444 0.90854 0.0
C778 C 0.98486 0.79058 0.00105 0.0
C779 C 0.97457 0.75963 0.06198 0.0
N780 N 0.96697 0.75761 0.93861 0.0
N781 N 0.96559 0.74717 0.03165 0.0
H782 H 0.69475 0.98563 0.56184 0.0
H783 H 0.79338 0.97571 0.39104 0.0
H784 H 0.79266 1.00048 0.55507 0.0
H785 H 0.70252 0.01507 0.39907 0.0
H786 H 0.78871 0.95691 0.45008 0.0
H787 H 0.69466 0.96827 0.50192 0.0
C788 C 0.71641 0.98379 0.5482 0.0
C789 C 0.74371 0.99474 0.5629 0.0
C790 C 0.76937 0.9686 0.43834 0.0
C791 C 0.74379 0.97503 0.49516 0.0
C792 C 0.77196 0.97924 0.40473 0.0
C793 C 0.74852 0.99747 0.3907 0.0
C794 C 0.743 0.9759 0.45748 0.0
C795 C 0.72129 1.00155 0.4094 0.0
C796 C 0.71632 0.97406 0.5141 0.0
C797 C 0.77115 0.99241 0.54427 0.0
N798 N 0.71942 0.99125 0.44212 0.0
N799 N 0.77046 0.98319 0.51109 0.0
loop_
_geom_bond_atom_site_label_1
_geom_bond_atom_site_label_2
_geom_bond_distance
_geom_bond_site_symmetry_2
_ccdc_geom_bond_type
Zn0 O3 2.031 . S
Zn0 O5 2.049 . S
Zn0 O10 2.067 . S
Zn1 O2 1.962 . S
Zn1 O4 1.986 . S
Zn1 O6 1.996 . S
Zn1 O9 1.943 . S
O2 Zn1 1.962 . S
O2 C7 1.254 . S
O3 Zn0 2.031 . S
O3 C7 1.269 . S
O4 Zn1 1.986 . S
O4 C11 1.262 . S
O5 Zn0 2.049 . S
O5 C13 1.260 . S
O6 Zn1 1.996 . S
O6 C13 1.257 . S
C7 O2 1.254 . S
C7 O3 1.269 . S
C8 O9 1.249 . S
C8 O10 1.270 . S
O9 Zn1 1.943 . S
O9 C8 1.249 . S
O10 Zn0 2.067 . S
O10 C8 1.270 . S
C11 O4 1.262 . S
C11 O12 1.232 . S
O12 C11 1.232 . S
C13 O5 1.260 . S
C13 O6 1.257 . S
Zn14 O17 2.031 . S
Zn14 O19 2.049 . S
Zn14 O24 2.067 . S
Zn15 O16 1.962 . S
Zn15 O18 1.986 . S
Zn15 O20 1.996 . S
Zn15 O23 1.943 . S
O16 Zn15 1.962 . S
O16 C21 1.254 . S
O17 Zn14 2.031 . S
O17 C21 1.269 . S
O18 Zn15 1.986 . S
O18 C25 1.262 . S
O19 Zn14 2.049 . S
O19 C27 1.260 . S
O20 Zn15 1.996 . S
O20 C27 1.257 . S
C21 O16 1.254 . S
C21 O17 1.269 . S
C22 O23 1.249 . S
C22 O24 1.270 . S
O23 Zn15 1.943 . S
O23 C22 1.249 . S
O24 Zn14 2.067 . S
O24 C22 1.270 . S
C25 O18 1.262 . S
C25 O26 1.232 . S
O26 C25 1.232 . S
C27 O19 1.260 . S
C27 O20 1.257 . S
Zn28 O31 2.031 . S
Zn28 O33 2.049 . S
Zn28 O38 2.067 . S
Zn29 O30 1.962 . S
Zn29 O32 1.986 . S
Zn29 O34 1.996 . S
Zn29 O37 1.943 . S
O30 Zn29 1.962 . S
O30 C35 1.254 . S
O31 Zn28 2.031 . S
O31 C35 1.269 . S
O32 Zn29 1.986 . S
O32 C39 1.262 1_655 S
O33 Zn28 2.049 . S
O33 C41 1.260 . S
O34 Zn29 1.996 . S
O34 C41 1.257 . S
C35 O30 1.254 . S
C35 O31 1.269 . S
C36 O37 1.249 . S
C36 O38 1.270 . S
O37 Zn29 1.943 . S
O37 C36 1.249 . S
O38 Zn28 2.067 . S
O38 C36 1.270 . S
C39 O32 1.262 1_455 S
C39 O40 1.232 . S
O40 C39 1.232 . S
C41 O33 1.260 . S
C41 O34 1.257 . S
Zn42 O45 2.031 . S
Zn42 O47 2.049 . S
Zn42 O52 2.067 . S
Zn43 O44 1.962 . S
Zn43 O46 1.986 . S
Zn43 O48 1.996 . S
Zn43 O51 1.943 . S
O44 Zn43 1.962 . S
O44 C49 1.254 . S
O45 Zn42 2.031 . S
O45 C49 1.269 . S
O46 Zn43 1.986 . S
O46 C53 1.262 1_565 S
O47 Zn42 2.049 . S
O47 C55 1.260 . S
O48 Zn43 1.996 . S
O48 C55 1.257 . S
C49 O44 1.254 . S
C49 O45 1.269 . S
C50 O51 1.249 . S
C50 O52 1.270 . S
O51 Zn43 1.943 . S
O51 C50 1.249 . S
O52 Zn42 2.067 . S
O52 C50 1.270 . S
C53 O46 1.262 1_545 S
C53 O54 1.232 . S
O54 C53 1.232 . S
C55 O47 1.260 . S
C55 O48 1.257 . S
Zn56 O59 2.031 . S
Zn56 O61 2.049 . S
Zn56 O66 2.067 . S
Zn57 O58 1.962 . S
Zn57 O60 1.986 . S
Zn57 O62 1.996 . S
Zn57 O65 1.943 . S
O58 Zn57 1.962 . S
O58 C63 1.254 . S
O59 Zn56 2.031 . S
O59 C63 1.269 . S
O60 Zn57 1.986 . S
O60 C67 1.262 . S
O61 Zn56 2.049 . S
O61 C69 1.260 . S
O62 Zn57 1.996 . S
O62 C69 1.257 . S
C63 O58 1.254 . S
C63 O59 1.269 . S
C64 O65 1.249 . S
C64 O66 1.270 . S
O65 Zn57 1.943 . S
O65 C64 1.249 . S
O66 Zn56 2.067 . S
O66 C64 1.270 . S
C67 O60 1.262 . S
C67 O68 1.232 . S
O68 C67 1.232 . S
C69 O61 1.260 . S
C69 O62 1.257 . S
Zn70 O73 2.031 . S
Zn70 O75 2.049 . S
Zn70 O80 2.067 . S
Zn71 O72 1.962 . S
Zn71 O74 1.986 . S
Zn71 O76 1.996 . S
Zn71 O79 1.943 . S
O72 Zn71 1.962 . S
O72 C77 1.254 . S
O73 Zn70 2.031 . S
O73 C77 1.269 . S
O74 Zn71 1.986 . S
O74 C81 1.262 . S
O75 Zn70 2.049 . S
O75 C83 1.260 . S
O76 Zn71 1.996 . S
O76 C83 1.257 . S
C77 O72 1.254 . S
C77 O73 1.269 . S
C78 O79 1.249 . S
C78 O80 1.270 . S
O79 Zn71 1.943 . S
O79 C78 1.249 . S
O80 Zn70 2.067 . S
O80 C78 1.270 . S
C81 O74 1.262 . S
C81 O82 1.232 . S
O82 C81 1.232 . S
C83 O75 1.260 . S
C83 O76 1.257 . S
Zn84 O87 2.031 . S
Zn84 O89 2.049 . S
Zn84 O94 2.067 . S
Zn85 O86 1.962 . S
Zn85 O88 1.986 . S
Zn85 O90 1.996 . S
Zn85 O93 1.943 . S
O86 Zn85 1.962 . S
O86 C91 1.254 . S
O87 Zn84 2.031 . S
O87 C91 1.269 . S
O88 Zn85 1.986 . S
O88 C95 1.262 1_655 S
O89 Zn84 2.049 . S
O89 C97 1.260 . S
O90 Zn85 1.996 . S
O90 C97 1.257 . S
C91 O86 1.254 . S
C91 O87 1.269 . S
C92 O93 1.249 . S
C92 O94 1.270 . S
O93 Zn85 1.943 . S
O93 C92 1.249 . S
O94 Zn84 2.067 . S
O94 C92 1.270 . S
C95 O88 1.262 1_455 S
C95 O96 1.232 . S
O96 C95 1.232 . S
C97 O89 1.260 . S
C97 O90 1.257 . S
Zn98 O101 2.031 . S
Zn98 O103 2.049 . S
Zn98 O108 2.067 . S
Zn99 O100 1.962 . S
Zn99 O102 1.986 . S
Zn99 O104 1.996 . S
Zn99 O107 1.943 . S
O100 Zn99 1.962 . S
O100 C105 1.254 . S
O101 Zn98 2.031 . S
O101 C105 1.269 . S
O102 Zn99 1.986 . S
O102 C109 1.262 1_565 S
O103 Zn98 2.049 . S
O103 C111 1.260 . S
O104 Zn99 1.996 . S
O104 C111 1.257 . S
C105 O100 1.254 . S
C105 O101 1.269 . S
C106 O107 1.249 . S
C106 O108 1.270 . S
O107 Zn99 1.943 . S
O107 C106 1.249 . S
O108 Zn98 2.067 . S
O108 C106 1.270 . S
C109 O102 1.262 1_545 S
C109 O110 1.232 . S
O110 C109 1.232 . S
C111 O103 1.260 . S
C111 O104 1.257 . S
Zn112 O115 2.031 . S
Zn112 O117 2.049 . S
Zn112 O122 2.067 . S
Zn113 O114 1.962 . S
Zn113 O116 1.986 . S
Zn113 O118 1.996 . S
Zn113 O121 1.943 . S
O114 Zn113 1.962 . S
O114 C119 1.254 . S
O115 Zn112 2.031 . S
O115 C119 1.269 . S
O116 Zn113 1.986 . S
O116 C123 1.262 . S
O117 Zn112 2.049 . S
O117 C125 1.260 . S
O118 Zn113 1.996 . S
O118 C125 1.257 . S
C119 O114 1.254 . S
C119 O115 1.269 . S
C120 O121 1.249 . S
C120 O122 1.270 . S
O121 Zn113 1.943 . S
O121 C120 1.249 . S
O122 Zn112 2.067 . S
O122 C120 1.270 . S
C123 O116 1.262 . S
C123 O124 1.232 . S
O124 C123 1.232 . S
C125 O117 1.260 . S
C125 O118 1.257 . S
Zn126 O129 2.031 . S
Zn126 O131 2.049 . S
Zn126 O136 2.067 . S
Zn127 O128 1.962 . S
Zn127 O130 1.986 . S
Zn127 O132 1.996 . S
Zn127 O135 1.943 . S
O128 Zn127 1.962 . S
O128 C133 1.254 . S
O129 Zn126 2.031 . S
O129 C133 1.269 . S
O130 Zn127 1.986 . S
O130 C137 1.262 . S
O131 Zn126 2.049 . S
O131 C139 1.260 . S
O132 Zn127 1.996 . S
O132 C139 1.257 . S
C133 O128 1.254 . S
C133 O129 1.269 . S
C134 O135 1.249 . S
C134 O136 1.270 . S
O135 Zn127 1.943 . S
O135 C134 1.249 . S
O136 Zn126 2.067 . S
O136 C134 1.270 . S
C137 O130 1.262 . S
C137 O138 1.232 . S
O138 C137 1.232 . S
C139 O131 1.260 . S
C139 O132 1.257 . S
Zn140 O143 2.031 . S
Zn140 O145 2.049 . S
Zn140 O150 2.067 . S
Zn141 O142 1.962 . S
Zn141 O144 1.986 . S
Zn141 O146 1.996 . S
Zn141 O149 1.943 . S
O142 Zn141 1.962 . S
O142 C147 1.254 . S
O143 Zn140 2.031 . S
O143 C147 1.269 . S
O144 Zn141 1.986 . S
O144 C151 1.262 1_455 S
O145 Zn140 2.049 . S
O145 C153 1.260 . S
O146 Zn141 1.996 . S
O146 C153 1.257 . S
C147 O142 1.254 . S
C147 O143 1.269 . S
C148 O149 1.249 . S
C148 O150 1.270 . S
O149 Zn141 1.943 . S
O149 C148 1.249 . S
O150 Zn140 2.067 . S
O150 C148 1.270 . S
C151 O144 1.262 1_655 S
C151 O152 1.232 . S
O152 C151 1.232 . S
C153 O145 1.260 . S
C153 O146 1.257 . S
Zn154 O157 2.031 . S
Zn154 O159 2.049 . S
Zn154 O164 2.067 . S
Zn155 O156 1.962 . S
Zn155 O158 1.986 . S
Zn155 O160 1.996 . S
Zn155 O163 1.943 . S
O156 Zn155 1.962 . S
O156 C161 1.254 . S
O157 Zn154 2.031 . S
O157 C161 1.269 . S
O158 Zn155 1.986 . S
O158 C165 1.262 1_545 S
O159 Zn154 2.049 . S
O159 C167 1.260 . S
O160 Zn155 1.996 . S
O160 C167 1.257 . S
C161 O156 1.254 . S
C161 O157 1.269 . S
C162 O163 1.249 . S
C162 O164 1.270 . S
O163 Zn155 1.943 . S
O163 C162 1.249 . S
O164 Zn154 2.067 . S
O164 C162 1.270 . S
C165 O158 1.262 1_565 S
C165 O166 1.232 . S
O166 C165 1.232 . S
C167 O159 1.260 . S
C167 O160 1.257 . S
Zn168 O171 2.031 . S
Zn168 O173 2.049 . S
Zn168 O178 2.067 . S
Zn169 O170 1.962 . S
Zn169 O172 1.986 . S
Zn169 O174 1.996 . S
Zn169 O177 1.943 . S
O170 Zn169 1.962 . S
O170 C175 1.254 . S
O171 Zn168 2.031 . S
O171 C175 1.269 . S
O172 Zn169 1.986 . S
O172 C179 1.262 . S
O173 Zn168 2.049 . S
O173 C181 1.260 . S
O174 Zn169 1.996 . S
O174 C181 1.257 . S
C175 O170 1.254 . S
C175 O171 1.269 . S
C176 O177 1.249 . S
C176 O178 1.270 . S
O177 Zn169 1.943 . S
O177 C176 1.249 . S
O178 Zn168 2.067 . S
O178 C176 1.270 . S
C179 O172 1.262 . S
C179 O180 1.232 . S
O180 C179 1.232 . S
C181 O173 1.260 . S
C181 O174 1.257 . S
Zn182 O185 2.031 . S
Zn182 O187 2.049 . S
Zn182 O192 2.067 . S
Zn183 O184 1.962 . S
Zn183 O186 1.986 . S
Zn183 O188 1.996 . S
Zn183 O191 1.943 . S
O184 Zn183 1.962 . S
O184 C189 1.254 . S
O185 Zn182 2.031 . S
O185 C189 1.269 . S
O186 Zn183 1.986 . S
O186 C193 1.262 . S
O187 Zn182 2.049 . S
O187 C195 1.260 . S
O188 Zn183 1.996 . S
O188 C195 1.257 . S
C189 O184 1.254 . S
C189 O185 1.269 . S
C190 O191 1.249 . S
C190 O192 1.270 . S
O191 Zn183 1.943 . S
O191 C190 1.249 . S
O192 Zn182 2.067 . S
O192 C190 1.270 . S
C193 O186 1.262 . S
C193 O194 1.232 . S
O194 C193 1.232 . S
C195 O187 1.260 . S
C195 O188 1.257 . S
Zn196 O199 2.031 . S
Zn196 O201 2.049 . S
Zn196 O206 2.067 . S
Zn197 O198 1.962 . S
Zn197 O200 1.986 . S
Zn197 O202 1.996 . S
Zn197 O205 1.943 . S
O198 Zn197 1.962 . S
O198 C203 1.254 . S
O199 Zn196 2.031 . S
O199 C203 1.269 . S
O200 Zn197 1.986 . S
O200 C207 1.262 1_455 S
O201 Zn196 2.049 . S
O201 C209 1.260 . S
O202 Zn197 1.996 . S
O202 C209 1.257 . S
C203 O198 1.254 . S
C203 O199 1.269 . S
C204 O205 1.249 . S
C204 O206 1.270 . S
O205 Zn197 1.943 . S
O205 C204 1.249 . S
O206 Zn196 2.067 . S
O206 C204 1.270 . S
C207 O200 1.262 1_655 S
C207 O208 1.232 . S
O208 C207 1.232 . S
C209 O201 1.260 . S
C209 O202 1.257 . S
Zn210 O213 2.031 . S
Zn210 O215 2.049 . S
Zn210 O220 2.067 . S
Zn211 O212 1.962 . S
Zn211 O214 1.986 . S
Zn211 O216 1.996 . S
Zn211 O219 1.943 . S
O212 Zn211 1.962 . S
O212 C217 1.254 . S
O213 Zn210 2.031 . S
O213 C217 1.269 . S
O214 Zn211 1.986 . S
O214 C221 1.262 1_545 S
O215 Zn210 2.049 . S
O215 C223 1.260 . S
O216 Zn211 1.996 . S
O216 C223 1.257 . S
C217 O212 1.254 . S
C217 O213 1.269 . S
C218 O219 1.249 . S
C218 O220 1.270 . S
O219 Zn211 1.943 . S
O219 C218 1.249 . S
O220 Zn210 2.067 . S
O220 C218 1.270 . S
C221 O214 1.262 1_565 S
C221 O222 1.232 . S
O222 C221 1.232 . S
C223 O215 1.260 . S
C223 O216 1.257 . S
H224 C230 0.930 . S
H225 C234 0.930 . S
H226 C239 0.929 . S
H227 C237 0.929 . S
H228 C232 0.929 . S
H229 C238 0.929 . S
C230 H224 0.930 . S
C230 C231 1.367 . S
C230 C238 1.378 . S
C231 C230 1.367 . S
C231 C239 1.433 . S
C232 H228 0.929 . S
C232 C234 1.378 . S
C232 C236 1.350 . S
C233 C236 1.463 . S
C233 C238 1.350 . S
C233 N241 1.427 . S
C234 H225 0.930 . S
C234 C232 1.378 . S
C234 C235 1.367 . S
C235 C234 1.367 . S
C235 C237 1.433 . S
C236 C232 1.350 . S
C236 C233 1.463 . S
C236 N240 1.427 . S
C237 H227 0.929 . S
C237 C235 1.433 . S
C237 N240 1.384 . S
C238 H229 0.929 . S
C238 C230 1.378 . S
C238 C233 1.350 . S
C239 H226 0.929 . S
C239 C231 1.433 . S
C239 N241 1.384 . S
N240 C236 1.427 . S
N240 C237 1.384 . S
N241 C233 1.427 . S
N241 C239 1.384 . S
H242 C248 0.930 . S
H243 C252 0.930 . S
H244 C257 0.929 . S
H245 C255 0.929 . S
H246 C250 0.929 . S
H247 C256 0.929 . S
C248 H242 0.930 . S
C248 C249 1.367 . S
C248 C256 1.378 . S
C249 C248 1.367 . S
C249 C257 1.433 . S
C250 H246 0.929 . S
C250 C252 1.378 . S
C250 C254 1.350 . S
C251 C254 1.463 . S
C251 C256 1.350 . S
C251 N259 1.427 . S
C252 H243 0.930 . S
C252 C250 1.378 . S
C252 C253 1.367 . S
C253 C252 1.367 . S
C253 C255 1.433 . S
C254 C250 1.350 . S
C254 C251 1.463 . S
C254 N258 1.427 . S
C255 H245 0.929 . S
C255 C253 1.433 . S
C255 N258 1.384 . S
C256 H247 0.929 . S
C256 C248 1.378 . S
C256 C251 1.350 . S
C257 H244 0.929 . S
C257 C249 1.433 . S
C257 N259 1.384 . S
N258 C254 1.427 . S
N258 C255 1.384 . S
N259 C251 1.427 . S
N259 C257 1.384 . S
H260 C266 0.930 . S
H261 C270 0.930 . S
H262 C275 0.929 . S
H263 C273 0.929 . S
H264 C268 0.929 . S
H265 C274 0.929 . S
C266 H260 0.930 . S
C266 C267 1.367 . S
C266 C274 1.378 . S
C267 C266 1.367 . S
C267 C275 1.433 . S
C268 H264 0.929 . S
C268 C270 1.378 . S
C268 C272 1.350 . S
C269 C272 1.463 . S
C269 C274 1.350 . S
C269 N277 1.427 . S
C270 H261 0.930 . S
C270 C268 1.378 . S
C270 C271 1.367 . S
C271 C270 1.367 . S
C271 C273 1.433 . S
C272 C268 1.350 . S
C272 C269 1.463 . S
C272 N276 1.427 . S
C273 H263 0.929 . S
C273 C271 1.433 . S
C273 N276 1.384 . S
C274 H265 0.929 . S
C274 C266 1.378 . S
C274 C269 1.350 . S
C275 H262 0.929 . S
C275 C267 1.433 . S
C275 N277 1.384 . S
N276 C272 1.427 . S
N276 C273 1.384 . S
N277 C269 1.427 . S
N277 C275 1.384 . S
H278 C284 0.930 . S
H279 C288 0.930 . S
H280 C293 0.929 . S
H281 C291 0.929 . S
H282 C286 0.929 . S
H283 C292 0.929 . S
C284 H278 0.930 . S
C284 C285 1.367 . S
C284 C292 1.378 . S
C285 C284 1.367 . S
C285 C293 1.433 . S
C286 H282 0.929 . S
C286 C288 1.378 . S
C286 C290 1.350 . S
C287 C290 1.463 . S
C287 C292 1.350 . S
C287 N295 1.427 . S
C288 H279 0.930 . S
C288 C286 1.378 . S
C288 C289 1.367 . S
C289 C288 1.367 . S
C289 C291 1.433 . S
C290 C286 1.350 . S
C290 C287 1.463 . S
C290 N294 1.427 . S
C291 H281 0.929 . S
C291 C289 1.433 . S
C291 N294 1.384 . S
C292 H283 0.929 . S
C292 C284 1.378 . S
C292 C287 1.350 . S
C293 H280 0.929 . S
C293 C285 1.433 . S
C293 N295 1.384 . S
N294 C290 1.427 . S
N294 C291 1.384 . S
N295 C287 1.427 . S
N295 C293 1.384 . S
H296 C302 0.930 . S
H297 C306 0.930 . S
H298 C311 0.929 . S
H299 C309 0.929 . S
H300 C304 0.929 . S
H301 C310 0.929 . S
C302 H296 0.930 . S
C302 C303 1.367 . S
C302 C310 1.378 . S
C303 C302 1.367 . S
C303 C311 1.433 . S
C304 H300 0.929 . S
C304 C306 1.378 . S
C304 C308 1.350 . S
C305 C308 1.463 . S
C305 C310 1.350 . S
C305 N313 1.427 . S
C306 H297 0.930 . S
C306 C304 1.378 . S
C306 C307 1.367 . S
C307 C306 1.367 . S
C307 C309 1.433 . S
C308 C304 1.350 . S
C308 C305 1.463 . S
C308 N312 1.427 . S
C309 H299 0.929 . S
C309 C307 1.433 . S
C309 N312 1.384 . S
C310 H301 0.929 . S
C310 C302 1.378 . S
C310 C305 1.350 . S
C311 H298 0.929 . S
C311 C303 1.433 . S
C311 N313 1.384 . S
N312 C308 1.427 . S
N312 C309 1.384 . S
N313 C305 1.427 . S
N313 C311 1.384 . S
H314 C320 0.930 . S
H315 C324 0.930 . S
H316 C329 0.929 . S
H317 C327 0.929 . S
H318 C322 0.929 . S
H319 C328 0.929 . S
C320 H314 0.930 . S
C320 C321 1.367 . S
C320 C328 1.378 . S
C321 C320 1.367 . S
C321 C329 1.433 . S
C322 H318 0.929 . S
C322 C324 1.378 . S
C322 C326 1.350 . S
C323 C326 1.463 . S
C323 C328 1.350 . S
C323 N331 1.427 . S
C324 H315 0.930 . S
C324 C322 1.378 . S
C324 C325 1.367 . S
C325 C324 1.367 . S
C325 C327 1.433 . S
C326 C322 1.350 . S
C326 C323 1.463 . S
C326 N330 1.427 . S
C327 H317 0.929 . S
C327 C325 1.433 . S
C327 N330 1.384 . S
C328 H319 0.929 . S
C328 C320 1.378 . S
C328 C323 1.350 . S
C329 H316 0.929 . S
C329 C321 1.433 . S
C329 N331 1.384 . S
N330 C326 1.427 . S
N330 C327 1.384 . S
N331 C323 1.427 . S
N331 C329 1.384 . S
H332 C338 0.930 . S
H333 C342 0.930 . S
H334 C347 0.929 . S
H335 C345 0.929 . S
H336 C340 0.929 . S
H337 C346 0.929 . S
C338 H332 0.930 . S
C338 C339 1.367 . S
C338 C346 1.378 . S
C339 C338 1.367 . S
C339 C347 1.433 . S
C340 H336 0.929 . S
C340 C342 1.378 . S
C340 C344 1.350 . S
C341 C344 1.463 . S
C341 C346 1.350 . S
C341 N349 1.427 . S
C342 H333 0.930 . S
C342 C340 1.378 . S
C342 C343 1.367 . S
C343 C342 1.367 . S
C343 C345 1.433 . S
C344 C340 1.350 . S
C344 C341 1.463 . S
C344 N348 1.427 . S
C345 H335 0.929 . S
C345 C343 1.433 . S
C345 N348 1.384 . S
C346 H337 0.929 . S
C346 C338 1.378 . S
C346 C341 1.350 . S
C347 H334 0.929 . S
C347 C339 1.433 . S
C347 N349 1.384 . S
N348 C344 1.427 . S
N348 C345 1.384 . S
N349 C341 1.427 . S
N349 C347 1.384 . S
H350 C356 0.930 . S
H351 C360 0.930 . S
H352 C365 0.929 . S
H353 C363 0.929 . S
H354 C358 0.929 . S
H355 C364 0.929 . S
C356 H350 0.930 . S
C356 C357 1.367 . S
C356 C364 1.378 . S
C357 C356 1.367 . S
C357 C365 1.433 . S
C358 H354 0.929 . S
C358 C360 1.378 . S
C358 C362 1.350 . S
C359 C362 1.463 . S
C359 C364 1.350 . S
C359 N367 1.427 . S
C360 H351 0.930 . S
C360 C358 1.378 . S
C360 C361 1.367 . S
C361 C360 1.367 . S
C361 C363 1.433 . S
C362 C358 1.350 . S
C362 C359 1.463 . S
C362 N366 1.427 . S
C363 H353 0.929 . S
C363 C361 1.433 . S
C363 N366 1.384 . S
C364 H355 0.929 . S
C364 C356 1.378 . S
C364 C359 1.350 . S
C365 H352 0.929 . S
C365 C357 1.433 . S
C365 N367 1.384 . S
N366 C362 1.427 . S
N366 C363 1.384 . S
N367 C359 1.427 . S
N367 C365 1.384 . S
H368 C374 0.930 . S
H369 C378 0.930 . S
H370 C383 0.929 . S
H371 C381 0.929 . S
H372 C376 0.929 . S
H373 C382 0.929 . S
C374 H368 0.930 . S
C374 C375 1.367 . S
C374 C382 1.378 . S
C375 C374 1.367 . S
C375 C383 1.433 . S
C376 H372 0.929 . S
C376 C378 1.378 . S
C376 C380 1.350 . S
C377 C380 1.463 . S
C377 C382 1.350 . S
C377 N385 1.427 . S
C378 H369 0.930 . S
C378 C376 1.378 . S
C378 C379 1.367 . S
C379 C378 1.367 . S
C379 C381 1.433 . S
C380 C376 1.350 . S
C380 C377 1.463 . S
C380 N384 1.427 . S
C381 H371 0.929 . S
C381 C379 1.433 . S
C381 N384 1.384 . S
C382 H373 0.929 . S
C382 C374 1.378 . S
C382 C377 1.350 . S
C383 H370 0.929 . S
C383 C375 1.433 . S
C383 N385 1.384 . S
N384 C380 1.427 . S
N384 C381 1.384 . S
N385 C377 1.427 . S
N385 C383 1.384 . S
H386 C392 0.930 . S
H387 C396 0.930 . S
H388 C401 0.929 . S
H389 C399 0.929 . S
H390 C394 0.929 . S
H391 C400 0.929 . S
C392 H386 0.930 . S
C392 C393 1.367 . S
C392 C400 1.378 . S
C393 C392 1.367 . S
C393 C401 1.433 . S
C394 H390 0.929 . S
C394 C396 1.378 . S
C394 C398 1.350 . S
C395 C398 1.463 . S
C395 C400 1.350 . S
C395 N403 1.427 . S
C396 H387 0.930 . S
C396 C394 1.378 . S
C396 C397 1.367 . S
C397 C396 1.367 . S
C397 C399 1.433 . S
C398 C394 1.350 . S
C398 C395 1.463 . S
C398 N402 1.427 . S
C399 H389 0.929 . S
C399 C397 1.433 . S
C399 N402 1.384 . S
C400 H391 0.929 . S
C400 C392 1.378 . S
C400 C395 1.350 . S
C401 H388 0.929 . S
C401 C393 1.433 . S
C401 N403 1.384 . S
N402 C398 1.427 . S
N402 C399 1.384 . S
N403 C395 1.427 . S
N403 C401 1.384 . S
H404 C410 0.930 . S
H405 C414 0.930 . S
H406 C419 0.929 . S
H407 C417 0.929 . S
H408 C412 0.929 . S
H409 C418 0.929 . S
C410 H404 0.930 . S
C410 C411 1.367 . S
C410 C418 1.378 . S
C411 C410 1.367 . S
C411 C419 1.433 . S
C412 H408 0.929 . S
C412 C414 1.378 . S
C412 C416 1.350 . S
C413 C416 1.463 . S
C413 C418 1.350 . S
C413 N421 1.427 . S
C414 H405 0.930 . S
C414 C412 1.378 . S
C414 C415 1.367 . S
C415 C414 1.367 . S
C415 C417 1.433 . S
C416 C412 1.350 . S
C416 C413 1.463 . S
C416 N420 1.427 . S
C417 H407 0.929 . S
C417 C415 1.433 . S
C417 N420 1.384 . S
C418 H409 0.929 . S
C418 C410 1.378 . S
C418 C413 1.350 . S
C419 H406 0.929 . S
C419 C411 1.433 . S
C419 N421 1.384 . S
N420 C416 1.427 . S
N420 C417 1.384 . S
N421 C413 1.427 . S
N421 C419 1.384 . S
H422 C428 0.930 . S
H423 C432 0.930 . S
H424 C437 0.929 . S
H425 C435 0.929 . S
H426 C430 0.929 . S
H427 C436 0.929 . S
C428 H422 0.930 . S
C428 C429 1.367 . S
C428 C436 1.378 . S
C429 C428 1.367 . S
C429 C437 1.433 . S
C430 H426 0.929 . S
C430 C432 1.378 . S
C430 C434 1.350 . S
C431 C434 1.463 . S
C431 C436 1.350 . S
C431 N439 1.427 . S
C432 H423 0.930 . S
C432 C430 1.378 . S
C432 C433 1.367 . S
C433 C432 1.367 . S
C433 C435 1.433 . S
C434 C430 1.350 . S
C434 C431 1.463 . S
C434 N438 1.427 . S
C435 H425 0.929 . S
C435 C433 1.433 . S
C435 N438 1.384 . S
C436 H427 0.929 . S
C436 C428 1.378 . S
C436 C431 1.350 . S
C437 H424 0.929 . S
C437 C429 1.433 . S
C437 N439 1.384 . S
N438 C434 1.427 . S
N438 C435 1.384 . S
N439 C431 1.427 . S
N439 C437 1.384 . S
H440 C446 0.930 . S
H441 C450 0.930 . S
H442 C455 0.929 . S
H443 C453 0.929 . S
H444 C448 0.929 . S
H445 C454 0.929 . S
C446 H440 0.930 . S
C446 C447 1.367 . S
C446 C454 1.378 . S
C447 C446 1.367 . S
C447 C455 1.433 . S
C448 H444 0.929 . S
C448 C450 1.378 . S
C448 C452 1.350 . S
C449 C452 1.463 . S
C449 C454 1.350 . S
C449 N457 1.427 . S
C450 H441 0.930 . S
C450 C448 1.378 . S
C450 C451 1.367 . S
C451 C450 1.367 . S
C451 C453 1.433 . S
C452 C448 1.350 . S
C452 C449 1.463 . S
C452 N456 1.427 . S
C453 H443 0.929 . S
C453 C451 1.433 . S
C453 N456 1.384 . S
C454 H445 0.929 . S
C454 C446 1.378 . S
C454 C449 1.350 . S
C455 H442 0.929 . S
C455 C447 1.433 . S
C455 N457 1.384 . S
N456 C452 1.427 . S
N456 C453 1.384 . S
N457 C449 1.427 . S
N457 C455 1.384 . S
H458 C464 0.930 . S
H459 C468 0.930 . S
H460 C473 0.929 . S
H461 C471 0.929 . S
H462 C466 0.929 . S
H463 C472 0.929 . S
C464 H458 0.930 . S
C464 C465 1.367 . S
C464 C472 1.378 . S
C465 C464 1.367 . S
C465 C473 1.433 . S
C466 H462 0.929 . S
C466 C468 1.378 . S
C466 C470 1.350 . S
C467 C470 1.463 . S
C467 C472 1.350 . S
C467 N475 1.427 . S
C468 H459 0.930 . S
C468 C466 1.378 . S
C468 C469 1.367 . S
C469 C468 1.367 . S
C469 C471 1.433 . S
C470 C466 1.350 . S
C470 C467 1.463 . S
C470 N474 1.427 . S
C471 H461 0.929 . S
C471 C469 1.433 . S
C471 N474 1.384 . S
C472 H463 0.929 . S
C472 C464 1.378 . S
C472 C467 1.350 . S
C473 H460 0.929 . S
C473 C465 1.433 . S
C473 N475 1.384 . S
N474 C470 1.427 . S
N474 C471 1.384 . S
N475 C467 1.427 . S
N475 C473 1.384 . S
H476 C482 0.930 . S
H477 C486 0.930 . S
H478 C491 0.929 . S
H479 C489 0.929 . S
H480 C484 0.929 . S
H481 C490 0.929 . S
C482 H476 0.930 . S
C482 C483 1.367 . S
C482 C490 1.378 . S
C483 C482 1.367 . S
C483 C491 1.433 . S
C484 H480 0.929 . S
C484 C486 1.378 . S
C484 C488 1.350 . S
C485 C488 1.463 . S
C485 C490 1.350 . S
C485 N493 1.427 . S
C486 H477 0.930 . S
C486 C484 1.378 . S
C486 C487 1.367 . S
C487 C486 1.367 . S
C487 C489 1.433 . S
C488 C484 1.350 . S
C488 C485 1.463 . S
C488 N492 1.427 . S
C489 H479 0.929 . S
C489 C487 1.433 . S
C489 N492 1.384 . S
C490 H481 0.929 . S
C490 C482 1.378 . S
C490 C485 1.350 . S
C491 H478 0.929 . S
C491 C483 1.433 . S
C491 N493 1.384 . S
N492 C488 1.427 . S
N492 C489 1.384 . S
N493 C485 1.427 . S
N493 C491 1.384 . S
H494 C500 0.930 . S
H495 C504 0.930 . S
H496 C509 0.929 . S
H497 C507 0.929 . S
H498 C502 0.929 . S
H499 C508 0.929 . S
C500 H494 0.930 . S
C500 C501 1.367 . S
C500 C508 1.378 . S
C501 C500 1.367 . S
C501 C509 1.433 . S
C502 H498 0.929 . S
C502 C504 1.378 . S
C502 C506 1.350 . S
C503 C506 1.463 . S
C503 C508 1.350 . S
C503 N511 1.427 . S
C504 H495 0.930 . S
C504 C502 1.378 . S
C504 C505 1.367 . S
C505 C504 1.367 . S
C505 C507 1.433 . S
C506 C502 1.350 . S
C506 C503 1.463 . S
C506 N510 1.427 . S
C507 H497 0.929 . S
C507 C505 1.433 . S
C507 N510 1.384 . S
C508 H499 0.929 . S
C508 C500 1.378 . S
C508 C503 1.350 . S
C509 H496 0.929 . S
C509 C501 1.433 . S
C509 N511 1.384 . S
N510 C506 1.427 . S
N510 C507 1.384 . S
N511 C503 1.427 . S
N511 C509 1.384 . S
H512 C518 0.930 . S
H513 C522 0.930 . S
H514 C527 0.929 . S
H515 C525 0.929 . S
H516 C520 0.929 . S
H517 C526 0.929 . S
C518 H512 0.930 . S
C518 C519 1.367 . S
C518 C526 1.378 . S
C519 C518 1.367 . S
C519 C527 1.433 . S
C520 H516 0.929 . S
C520 C522 1.378 . S
C520 C524 1.350 . S
C521 C524 1.463 . S
C521 C526 1.350 . S
C521 N529 1.427 . S
C522 H513 0.930 . S
C522 C520 1.378 . S
C522 C523 1.367 . S
C523 C522 1.367 . S
C523 C525 1.433 . S
C524 C520 1.350 . S
C524 C521 1.463 . S
C524 N528 1.427 . S
C525 H515 0.929 . S
C525 C523 1.433 . S
C525 N528 1.384 . S
C526 H517 0.929 . S
C526 C518 1.378 . S
C526 C521 1.350 . S
C527 H514 0.929 . S
C527 C519 1.433 . S
C527 N529 1.384 . S
N528 C524 1.427 . S
N528 C525 1.384 . S
N529 C521 1.427 . S
N529 C527 1.384 . S
H530 C536 0.930 . S
H531 C540 0.930 . S
H532 C545 0.929 . S
H533 C543 0.929 . S
H534 C538 0.929 . S
H535 C544 0.929 . S
C536 H530 0.930 . S
C536 C537 1.367 . S
C536 C544 1.378 . S
C537 C536 1.367 . S
C537 C545 1.433 . S
C538 H534 0.929 . S
C538 C540 1.378 . S
C538 C542 1.350 . S
C539 C542 1.463 . S
C539 C544 1.350 . S
C539 N547 1.427 . S
C540 H531 0.930 . S
C540 C538 1.378 . S
C540 C541 1.367 . S
C541 C540 1.367 . S
C541 C543 1.433 . S
C542 C538 1.350 . S
C542 C539 1.463 . S
C542 N546 1.427 . S
C543 H533 0.929 . S
C543 C541 1.433 . S
C543 N546 1.384 . S
C544 H535 0.929 . S
C544 C536 1.378 . S
C544 C539 1.350 . S
C545 H532 0.929 . S
C545 C537 1.433 . S
C545 N547 1.384 . S
N546 C542 1.427 . S
N546 C543 1.384 . S
N547 C539 1.427 . S
N547 C545 1.384 . S
H548 C554 0.930 . S
H549 C558 0.930 . S
H550 C563 0.929 . S
H551 C561 0.929 . S
H552 C556 0.929 . S
H553 C562 0.929 . S
C554 H548 0.930 . S
C554 C555 1.367 . S
C554 C562 1.378 . S
C555 C554 1.367 . S
C555 C563 1.433 . S
C556 H552 0.929 . S
C556 C558 1.378 . S
C556 C560 1.350 . S
C557 C560 1.463 . S
C557 C562 1.350 . S
C557 N565 1.427 . S
C558 H549 0.930 . S
C558 C556 1.378 . S
C558 C559 1.367 . S
C559 C558 1.367 . S
C559 C561 1.433 . S
C560 C556 1.350 . S
C560 C557 1.463 . S
C560 N564 1.427 . S
C561 H551 0.929 . S
C561 C559 1.433 . S
C561 N564 1.384 . S
C562 H553 0.929 . S
C562 C554 1.378 . S
C562 C557 1.350 . S
C563 H550 0.929 . S
C563 C555 1.433 . S
C563 N565 1.384 . S
N564 C560 1.427 . S
N564 C561 1.384 . S
N565 C557 1.427 . S
N565 C563 1.384 . S
H566 C572 0.930 . S
H567 C576 0.930 . S
H568 C581 0.929 . S
H569 C579 0.929 . S
H570 C574 0.929 . S
H571 C580 0.929 . S
C572 H566 0.930 . S
C572 C573 1.367 . S
C572 C580 1.378 . S
C573 C572 1.367 . S
C573 C581 1.433 . S
C574 H570 0.929 . S
C574 C576 1.378 . S
C574 C578 1.350 . S
C575 C578 1.463 . S
C575 C580 1.350 . S
C575 N583 1.427 . S
C576 H567 0.930 . S
C576 C574 1.378 . S
C576 C577 1.367 . S
C577 C576 1.367 . S
C577 C579 1.433 . S
C578 C574 1.350 . S
C578 C575 1.463 . S
C578 N582 1.427 . S
C579 H569 0.929 . S
C579 C577 1.433 . S
C579 N582 1.384 . S
C580 H571 0.929 . S
C580 C572 1.378 . S
C580 C575 1.350 . S
C581 H568 0.929 . S
C581 C573 1.433 . S
C581 N583 1.384 . S
N582 C578 1.427 . S
N582 C579 1.384 . S
N583 C575 1.427 . S
N583 C581 1.384 . S
H584 C590 0.930 . S
H585 C594 0.930 . S
H586 C599 0.929 . S
H587 C597 0.929 . S
H588 C592 0.929 . S
H589 C598 0.929 . S
C590 H584 0.930 . S
C590 C591 1.367 . S
C590 C598 1.378 . S
C591 C590 1.367 . S
C591 C599 1.433 . S
C592 H588 0.929 . S
C592 C594 1.378 . S
C592 C596 1.350 . S
C593 C596 1.463 . S
C593 C598 1.350 . S
C593 N601 1.427 . S
C594 H585 0.930 . S
C594 C592 1.378 . S
C594 C595 1.367 . S
C595 C594 1.367 . S
C595 C597 1.433 . S
C596 C592 1.350 . S
C596 C593 1.463 . S
C596 N600 1.427 . S
C597 H587 0.929 . S
C597 C595 1.433 . S
C597 N600 1.384 . S
C598 H589 0.929 . S
C598 C590 1.378 . S
C598 C593 1.350 . S
C599 H586 0.929 . S
C599 C591 1.433 . S
C599 N601 1.384 . S
N600 C596 1.427 . S
N600 C597 1.384 . S
N601 C593 1.427 . S
N601 C599 1.384 . S
H602 C608 0.930 . S
H603 C612 0.930 . S
H604 C617 0.929 . S
H605 C615 0.929 . S
H606 C610 0.929 . S
H607 C616 0.929 . S
C608 H602 0.930 . S
C608 C609 1.367 . S
C608 C616 1.378 . S
C609 C608 1.367 . S
C609 C617 1.433 . S
C610 H606 0.929 . S
C610 C612 1.378 . S
C610 C614 1.350 . S
C611 C614 1.463 . S
C611 C616 1.350 . S
C611 N619 1.427 . S
C612 H603 0.930 . S
C612 C610 1.378 . S
C612 C613 1.367 . S
C613 C612 1.367 . S
C613 C615 1.433 . S
C614 C610 1.350 . S
C614 C611 1.463 . S
C614 N618 1.427 . S
C615 H605 0.929 . S
C615 C613 1.433 . S
C615 N618 1.384 . S
C616 H607 0.929 . S
C616 C608 1.378 . S
C616 C611 1.350 . S
C617 H604 0.929 . S
C617 C609 1.433 . S
C617 N619 1.384 . S
N618 C614 1.427 . S
N618 C615 1.384 . S
N619 C611 1.427 . S
N619 C617 1.384 . S
H620 C626 0.930 . S
H621 C630 0.930 . S
H622 C635 0.929 . S
H623 C633 0.929 . S
H624 C628 0.929 . S
H625 C634 0.929 . S
C626 H620 0.930 . S
C626 C627 1.367 . S
C626 C634 1.378 . S
C627 C626 1.367 . S
C627 C635 1.433 . S
C628 H624 0.929 . S
C628 C630 1.378 . S
C628 C632 1.350 . S
C629 C632 1.463 . S
C629 C634 1.350 . S
C629 N637 1.427 . S
C630 H621 0.930 . S
C630 C628 1.378 . S
C630 C631 1.367 . S
C631 C630 1.367 . S
C631 C633 1.433 . S
C632 C628 1.350 . S
C632 C629 1.463 . S
C632 N636 1.427 . S
C633 H623 0.929 . S
C633 C631 1.433 . S
C633 N636 1.384 . S
C634 H625 0.929 . S
C634 C626 1.378 . S
C634 C629 1.350 . S
C635 H622 0.929 . S
C635 C627 1.433 . S
C635 N637 1.384 . S
N636 C632 1.427 . S
N636 C633 1.384 . S
N637 C629 1.427 . S
N637 C635 1.384 . S
H638 C644 0.930 . S
H639 C648 0.930 . S
H640 C653 0.929 . S
H641 C651 0.929 . S
H642 C646 0.929 . S
H643 C652 0.929 . S
C644 H638 0.930 . S
C644 C645 1.367 . S
C644 C652 1.378 . S
C645 C644 1.367 . S
C645 C653 1.433 . S
C646 H642 0.929 . S
C646 C648 1.378 . S
C646 C650 1.350 . S
C647 C650 1.463 . S
C647 C652 1.350 . S
C647 N655 1.427 . S
C648 H639 0.930 . S
C648 C646 1.378 . S
C648 C649 1.367 . S
C649 C648 1.367 . S
C649 C651 1.433 . S
C650 C646 1.350 . S
C650 C647 1.463 . S
C650 N654 1.427 . S
C651 H641 0.929 . S
C651 C649 1.433 . S
C651 N654 1.384 . S
C652 H643 0.929 . S
C652 C644 1.378 . S
C652 C647 1.350 . S
C653 H640 0.929 . S
C653 C645 1.433 . S
C653 N655 1.384 . S
N654 C650 1.427 . S
N654 C651 1.384 . S
N655 C647 1.427 . S
N655 C653 1.384 . S
H656 C662 0.930 . S
H657 C666 0.930 . S
H658 C671 0.929 . S
H659 C669 0.929 . S
H660 C664 0.929 . S
H661 C670 0.929 . S
C662 H656 0.930 . S
C662 C663 1.367 . S
C662 C670 1.378 . S
C663 C662 1.367 . S
C663 C671 1.433 . S
C664 H660 0.929 . S
C664 C666 1.378 . S
C664 C668 1.350 . S
C665 C668 1.463 1_554 S
C665 C670 1.350 . S
C665 N673 1.427 . S
C666 H657 0.930 . S
C666 C664 1.378 . S
C666 C667 1.367 . S
C667 C666 1.367 . S
C667 C669 1.433 . S
C668 C664 1.350 . S
C668 C665 1.463 1_556 S
C668 N672 1.427 . S
C669 H659 0.929 . S
C669 C667 1.433 . S
C669 N672 1.384 . S
C670 H661 0.929 . S
C670 C662 1.378 . S
C670 C665 1.350 . S
C671 H658 0.929 . S
C671 C663 1.433 . S
C671 N673 1.384 . S
N672 C668 1.427 . S
N672 C669 1.384 . S
N673 C665 1.427 . S
N673 C671 1.384 . S
H674 C680 0.930 . S
H675 C684 0.930 . S
H676 C689 0.929 . S
H677 C687 0.929 . S
H678 C682 0.929 . S
H679 C688 0.929 . S
C680 H674 0.930 . S
C680 C681 1.367 . S
C680 C688 1.378 . S
C681 C680 1.367 . S
C681 C689 1.433 . S
C682 H678 0.929 . S
C682 C684 1.378 . S
C682 C686 1.350 . S
C683 C686 1.463 . S
C683 C688 1.350 . S
C683 N691 1.427 . S
C684 H675 0.930 . S
C684 C682 1.378 . S
C684 C685 1.367 . S
C685 C684 1.367 . S
C685 C687 1.433 . S
C686 C682 1.350 . S
C686 C683 1.463 . S
C686 N690 1.427 . S
C687 H677 0.929 . S
C687 C685 1.433 . S
C687 N690 1.384 . S
C688 H679 0.929 . S
C688 C680 1.378 . S
C688 C683 1.350 . S
C689 H676 0.929 . S
C689 C681 1.433 . S
C689 N691 1.384 . S
N690 C686 1.427 . S
N690 C687 1.384 . S
N691 C683 1.427 . S
N691 C689 1.384 . S
H692 C698 0.930 . S
H693 C702 0.930 . S
H694 C707 0.929 . S
H695 C705 0.929 . S
H696 C700 0.929 . S
H697 C706 0.929 . S
C698 H692 0.930 . S
C698 C699 1.367 . S
C698 C706 1.378 . S
C699 C698 1.367 . S
C699 C707 1.433 . S
C700 H696 0.929 . S
C700 C702 1.378 . S
C700 C704 1.350 . S
C701 C704 1.463 1_554 S
C701 C706 1.350 . S
C701 N709 1.427 . S
C702 H693 0.930 . S
C702 C700 1.378 . S
C702 C703 1.367 . S
C703 C702 1.367 . S
C703 C705 1.433 . S
C704 C700 1.350 . S
C704 C701 1.463 1_556 S
C704 N708 1.427 . S
C705 H695 0.929 . S
C705 C703 1.433 . S
C705 N708 1.384 . S
C706 H697 0.929 . S
C706 C698 1.378 . S
C706 C701 1.350 . S
C707 H694 0.929 . S
C707 C699 1.433 . S
C707 N709 1.384 . S
N708 C704 1.427 . S
N708 C705 1.384 . S
N709 C701 1.427 . S
N709 C707 1.384 . S
H710 C716 0.930 1_545 S
H711 C720 0.930 . S
H712 C725 0.929 . S
H713 C723 0.929 1_545 S
H714 C718 0.929 . S
H715 C724 0.929 1_545 S
C716 H710 0.930 1_565 S
C716 C717 1.367 . S
C716 C724 1.378 . S
C717 C716 1.367 . S
C717 C725 1.433 . S
C718 H714 0.929 . S
C718 C720 1.378 . S
C718 C722 1.350 . S
C719 C722 1.463 . S
C719 C724 1.350 . S
C719 N727 1.427 . S
C720 H711 0.930 . S
C720 C718 1.378 . S
C720 C721 1.367 . S
C721 C720 1.367 . S
C721 C723 1.433 . S
C722 C718 1.350 . S
C722 C719 1.463 . S
C722 N726 1.427 . S
C723 H713 0.929 1_565 S
C723 C721 1.433 . S
C723 N726 1.384 . S
C724 H715 0.929 1_565 S
C724 C716 1.378 . S
C724 C719 1.350 . S
C725 H712 0.929 . S
C725 C717 1.433 . S
C725 N727 1.384 . S
N726 C722 1.427 . S
N726 C723 1.384 . S
N727 C719 1.427 . S
N727 C725 1.384 . S
H728 C734 0.930 . S
H729 C738 0.930 . S
H730 C743 0.929 . S
H731 C741 0.929 . S
H732 C736 0.929 . S
H733 C742 0.929 . S
C734 H728 0.930 . S
C734 C735 1.367 . S
C734 C742 1.378 . S
C735 C734 1.367 . S
C735 C743 1.433 . S
C736 H732 0.929 . S
C736 C738 1.378 . S
C736 C740 1.350 . S
C737 C740 1.463 1_556 S
C737 C742 1.350 . S
C737 N745 1.427 . S
C738 H729 0.930 . S
C738 C736 1.378 . S
C738 C739 1.367 . S
C739 C738 1.367 . S
C739 C741 1.433 . S
C740 C736 1.350 . S
C740 C737 1.463 1_554 S
C740 N744 1.427 . S
C741 H731 0.929 . S
C741 C739 1.433 . S
C741 N744 1.384 . S
C742 H733 0.929 . S
C742 C734 1.378 . S
C742 C737 1.350 . S
C743 H730 0.929 . S
C743 C735 1.433 . S
C743 N745 1.384 . S
N744 C740 1.427 . S
N744 C741 1.384 . S
N745 C737 1.427 . S
N745 C743 1.384 . S
H746 C752 0.930 . S
H747 C756 0.930 . S
H748 C761 0.929 . S
H749 C759 0.929 . S
H750 C754 0.929 . S
H751 C760 0.929 . S
C752 H746 0.930 . S
C752 C753 1.367 . S
C752 C760 1.378 . S
C753 C752 1.367 . S
C753 C761 1.433 . S
C754 H750 0.929 . S
C754 C756 1.378 . S
C754 C758 1.350 . S
C755 C758 1.463 . S
C755 C760 1.350 . S
C755 N763 1.427 . S
C756 H747 0.930 . S
C756 C754 1.378 . S
C756 C757 1.367 . S
C757 C756 1.367 . S
C757 C759 1.433 . S
C758 C754 1.350 . S
C758 C755 1.463 . S
C758 N762 1.427 . S
C759 H749 0.929 . S
C759 C757 1.433 . S
C759 N762 1.384 . S
C760 H751 0.929 . S
C760 C752 1.378 . S
C760 C755 1.350 . S
C761 H748 0.929 . S
C761 C753 1.433 . S
C761 N763 1.384 . S
N762 C758 1.427 . S
N762 C759 1.384 . S
N763 C755 1.427 . S
N763 C761 1.384 . S
H764 C770 0.930 . S
H765 C774 0.930 . S
H766 C779 0.929 . S
H767 C777 0.929 . S
H768 C772 0.929 . S
H769 C778 0.929 . S
C770 H764 0.930 . S
C770 C771 1.367 . S
C770 C778 1.378 . S
C771 C770 1.367 . S
C771 C779 1.433 . S
C772 H768 0.929 . S
C772 C774 1.378 . S
C772 C776 1.350 . S
C773 C776 1.463 1_554 S
C773 C778 1.350 . S
C773 N781 1.427 . S
C774 H765 0.930 . S
C774 C772 1.378 . S
C774 C775 1.367 . S
C775 C774 1.367 . S
C775 C777 1.433 . S
C776 C772 1.350 . S
C776 C773 1.463 1_556 S
C776 N780 1.427 . S
C777 H767 0.929 . S
C777 C775 1.433 . S
C777 N780 1.384 . S
C778 H769 0.929 . S
C778 C770 1.378 . S
C778 C773 1.350 . S
C779 H766 0.929 . S
C779 C771 1.433 . S
C779 N781 1.384 . S
N780 C776 1.427 . S
N780 C777 1.384 . S
N781 C773 1.427 . S
N781 C779 1.384 . S
H782 C788 0.930 1_565 S
H783 C792 0.930 . S
H784 C797 0.929 . S
H785 C795 0.929 1_565 S
H786 C790 0.929 . S
H787 C796 0.929 1_565 S
C788 H782 0.930 1_545 S
C788 C789 1.367 . S
C788 C796 1.378 . S
C789 C788 1.367 . S
C789 C797 1.433 . S
C790 H786 0.929 . S
C790 C792 1.378 . S
C790 C794 1.350 . S
C791 C794 1.463 . S
C791 C796 1.350 . S
C791 N799 1.427 . S
C792 H783 0.930 . S
C792 C790 1.378 . S
C792 C793 1.367 . S
C793 C792 1.367 . S
C793 C795 1.433 . S
C794 C790 1.350 . S
C794 C791 1.463 . S
C794 N798 1.427 . S
C795 H785 0.929 1_545 S
C795 C793 1.433 . S
C795 N798 1.384 . S
C796 H787 0.929 1_545 S
C796 C788 1.378 . S
C796 C791 1.350 . S
C797 H784 0.929 . S
C797 C789 1.433 . S
C797 N799 1.384 . S
N798 C794 1.427 . S
N798 C795 1.384 . S
N799 C791 1.427 . S
N799 C797 1.384 . S
C231 C11 1.182 . S
C235 C109 1.179 . S
C249 C25 1.174 . S
C253 C67 1.179 . S
C267 C39 1.182 . S
C271 C81 1.181 . S
C285 C53 1.182 . S
C289 C95 1.177 . S
C303 C123 1.181 . S
C307 C221 1.175 . S
C321 C179 1.178 . S
C325 C137 1.182 . S
C339 C151 1.181 . S
C343 C193 1.181 . S
C357 C165 1.180 . S
C361 C207 1.174 . S
C375 C8 1.191 . S
C379 C139 1.203 . S
C393 C22 1.188 . S
C397 C153 1.214 . S
C411 C167 1.223 . S
C415 C36 1.178 . S
C429 C50 1.183 . S
C433 C125 1.205 . S
C447 C64 1.189 . S
C451 C223 1.203 . S
C465 C181 1.205 . S
C469 C78 1.192 . S
C483 C195 1.213 . S
C487 C92 1.172 . S
C501 C209 1.208 . S
C505 C106 1.192 . S
C519 C27 1.203 . S
C523 C120 1.188 . S
C537 C41 1.203 . S
C541 C134 1.190 . S
C555 C148 1.186 . S
C559 C55 1.204 . S
C573 C13 1.208 . S
C577 C162 1.193 . S
C591 C176 1.189 . S
C595 C111 1.213 . S
C609 C190 1.185 . S
C613 C69 1.218 . S
C627 C83 1.204 . S
C631 C204 1.192 . S
C645 C97 1.225 . S
C649 C218 1.171 . S
C663 C7 1.506 . S
C667 C63 1.502 . S
C681 C77 1.498 . S
C685 C21 1.506 . S
C699 C35 1.500 . S
C703 C91 1.502 . S
C717 C105 1.506 . S
C721 C49 1.498 . S
C735 C119 1.505 . S
C739 C175 1.499 . S
C753 C189 1.507 . S
C757 C133 1.499 . S
C771 C203 1.501 . S
C775 C147 1.506 . S
C789 C217 1.506 . S
C793 C161 1.500 . S
