# Generated by pormake.
# Topology sxb, (6)-cn, num edge types: 1
# Building blocks:
#     Node 0, Type 0, BuildingBlock: BETDIP_clean_sbu_0, # of connection points: 6
#     Node 1, Type 0, BuildingBlock: BETDIP_clean_sbu_0, # of connection points: 6
#     Node 2, Type 0, BuildingBlock: BETDIP_clean_sbu_0, # of connection points: 6
#     Node 3, Type 0, BuildingBlock: BETDIP_clean_sbu_0, # of connection points: 6
#     Edge 4, Type (0, 0), BuildingBlock: XUDNAN_clean_linker_2, # of connection points: 2
#     Edge 5, Type (0, 0), BuildingBlock: XUDNAN_clean_linker_2, # of connection points: 2
#     Edge 6, Type (0, 0), BuildingBlock: XUDNAN_clean_linker_2, # of connection points: 2
#     Edge 7, Type (0, 0), BuildingBlock: XUDNAN_clean_linker_2, # of connection points: 2
#     Edge 8, Type (0, 0), BuildingBlock: XUDNAN_clean_linker_2, # of connection points: 2
#     Edge 9, Type (0, 0), BuildingBlock: XUDNAN_clean_linker_2, # of connection points: 2
#     Edge 10, Type (0, 0), BuildingBlock: XUDNAN_clean_linker_2, # of connection points: 2
#     Edge 11, Type (0, 0), BuildingBlock: XUDNAN_clean_linker_2, # of connection points: 2
#     Edge 12, Type (0, 0), BuildingBlock: XUDNAN_clean_linker_2, # of connection points: 2
#     Edge 13, Type (0, 0), BuildingBlock: XUDNAN_clean_linker_2, # of connection points: 2
#     Edge 14, Type (0, 0), BuildingBlock: XUDNAN_clean_linker_2, # of connection points: 2
#     Edge 15, Type (0, 0), BuildingBlock: XUDNAN_clean_linker_2, # of connection points: 2
# Relax obj value: 0.429
# Max RMSD: 0.129
# Mean RMSD: 0.088
data_MOF--net-sxb--node1-BETDIP_clean_sbu_0--edge1-XUDNAN_clean_linker_2
_symmetry_space_group_name_H-M    P1
_symmetry_Int_Tables_number       1
_symmetry_cell_setting            triclinic
loop_
_symmetry_equiv_pos_as_xyz
'x, y, z'
_cell_length_a     16.10385
_cell_length_b     34.480304
_cell_length_c     29.294927
_cell_angle_alpha  94.106694
_cell_angle_beta   94.259255
_cell_angle_gamma 66.277746
loop_
_atom_site_label
_atom_site_type_symbol
_atom_site_fract_x
_atom_site_fract_y
_atom_site_fract_z
_atom_type_partial_charge
Tb0 Tb 1.05726 1.05181 0.98918 0.0
Tb1 Tb 0.22503 1.06104 0.99954 0.0
C2 C 0.89327 1.06721 0.98964 0.0
C3 C 0.82728 0.10382 0.96542 0.0
C4 C 0.74294 0.12858 0.98316 0.0
C5 C 0.687 0.16658 0.96305 0.0
C6 C 0.71512 0.18068 0.92524 0.0
C7 C 0.79982 0.15576 0.90773 0.0
C8 C 0.8553 0.11785 0.92769 0.0
C9 C 0.12912 1.04918 0.9099 0.0
C10 C 1.05426 0.14711 0.99506 0.0
C11 C 0.36748 1.06758 0.98242 0.0
C12 C 0.36747 0.10621 0.96372 0.0
C13 C 0.31694 0.14613 0.98436 0.0
C14 C 0.29585 0.18318 0.96127 0.0
C15 C 0.32765 0.18155 0.91749 0.0
C16 C 0.38174 0.14143 0.89771 0.0
C17 C 0.40046 0.10425 0.92034 0.0
C18 C 0.15131 1.06675 0.07903 0.0
C19 C 0.23026 0.96608 0.99648 0.0
O20 O 0.93683 1.07726 0.02484 0.0
O21 O 0.94802 1.03686 0.96327 0.0
O22 O 0.12617 1.07413 0.94401 0.0
O23 O 1.08553 1.02665 0.91877 0.0
O24 O 1.0079 0.12316 0.99836 0.0
O25 O 0.14228 0.12816 0.98957 0.0
O26 O 0.34068 1.07137 0.02427 0.0
O27 O 0.32974 1.04731 0.95453 0.0
O28 O 0.15341 1.04069 0.04602 0.0
O29 O 0.19894 0.0874 0.06959 0.0
O30 O 0.27366 0.99108 0.99156 0.0
O31 O 0.14123 0.98372 0.00254 0.0
H32 H 0.72092 0.11886 0.01277 0.0
H33 H 0.62088 0.18451 0.97665 0.0
H34 H 0.8234 0.16568 0.87879 0.0
H35 H 0.92149 0.09994 0.91423 0.0
H36 H 0.29027 0.14874 0.0178 0.0
H37 H 0.25416 0.21307 0.97788 0.0
H38 H 0.41104 0.13846 0.86492 0.0
H39 H 0.43857 1.07387 0.90338 0.0
Tb40 Tb 0.16124 1.02108 0.49782 0.0
Tb41 Tb 1.0744 0.11082 0.49189 0.0
C42 C 0.20206 0.94672 0.52033 0.0
C43 C 0.14496 0.92219 0.51568 0.0
C44 C 1.06346 0.93632 0.53856 0.0
C45 C 0.99753 0.92083 0.52467 0.0
C46 C 1.01175 0.89107 0.48766 0.0
C47 C 1.09639 0.87413 0.4676 0.0
C48 C 0.16271 0.88942 0.48169 0.0
C49 C 0.13865 1.04547 0.41275 0.0
C50 C 0.93581 1.06762 0.49395 0.0
C51 C 1.02671 0.18504 0.46657 0.0
C52 C 1.08029 0.20963 0.45841 0.0
C53 C 0.12329 0.20397 0.4169 0.0
C54 C 0.19042 0.21926 0.41319 0.0
C55 C 0.21539 0.24048 0.45084 0.0
C56 C 0.16618 0.24959 0.49075 0.0
C57 C 1.0987 0.23462 0.49433 0.0
C58 C 1.10021 0.0854 0.57696 0.0
C59 C 0.2976 1.06653 0.49569 0.0
O60 O 0.17704 0.97937 0.54967 0.0
O61 O 0.22308 0.95592 0.48144 0.0
O62 O 1.0816 1.0604 0.44363 0.0
O63 O 0.2096 1.01464 0.42886 0.0
O64 O 1.0109 1.03223 0.50118 0.0
O65 O 0.94616 0.10258 0.4857 0.0
O66 O 1.03821 0.15239 0.43825 0.0
O67 O 1.02654 0.17588 0.50913 0.0
O68 O 0.15568 1.07127 0.54549 0.0
O69 O 1.02776 0.11602 0.56152 0.0
O70 O 0.22088 0.10007 0.4859 0.0
O71 O 0.29096 1.03099 0.50636 0.0
H72 H 1.04764 0.96143 0.56507 0.0
H73 H 0.93318 0.93425 0.54099 0.0
H74 H 1.10998 0.85025 0.43982 0.0
H75 H 0.22535 0.87774 0.46383 0.0
H76 H 1.10902 0.18562 0.38817 0.0
H77 H 0.22563 0.21273 0.38161 0.0
H78 H 0.18382 0.26569 0.52057 0.0
H79 H 1.06546 0.24016 0.52643 0.0
Tb80 Tb 0.55123 0.55249 0.99924 0.0
Tb81 Tb 0.71678 0.56039 0.00992 0.0
C82 C 0.39924 0.56264 0.02439 0.0
C83 C 0.3619 0.58571 0.06771 0.0
C84 C 0.34717 0.56363 0.10243 0.0
C85 C 0.32725 0.58249 0.14627 0.0
C86 C 0.32208 0.62398 0.15672 0.0
C87 C 0.33791 0.64587 0.12199 0.0
C88 C 0.35672 0.62714 0.07798 0.0
C89 C 0.62212 0.54219 0.91784 0.0
C90 C 0.55497 0.64542 0.99554 0.0
C91 C 0.87095 0.55981 0.02747 0.0
C92 C 0.89634 0.57759 0.07094 0.0
C93 C 0.93614 0.60688 0.07049 0.0
C94 C 0.94846 0.62816 0.11113 0.0
C95 C 0.92024 0.62092 0.15304 0.0
C96 C 0.88107 0.59128 0.15345 0.0
C97 C 0.86927 0.56985 0.11288 0.0
C98 C 0.63045 0.57581 0.08801 0.0
C99 C 0.72362 0.46692 0.99448 0.0
O100 O 0.47101 0.52759 0.0301 0.0
O101 O 0.40902 0.58484 0.99239 0.0
O102 O 0.62729 0.56733 0.95047 0.0
O103 O 0.5671 0.52555 0.9285 0.0
O104 O 0.50981 0.62348 0.00852 0.0
O105 O 0.64066 0.62408 0.98562 0.0
O106 O 0.85309 0.52645 0.03095 0.0
O107 O 0.81043 0.58744 1.00098 0.0
O108 O 0.64009 0.54588 0.05885 0.0
O109 O 0.66871 0.59818 0.07307 0.0
O110 O 0.76356 0.49274 0.98732 0.0
O111 O 0.63662 0.48363 0.00381 0.0
H112 H 0.35237 0.53143 0.0958 0.0
H113 H 0.31282 0.56487 0.17149 0.0
H114 H 0.33418 0.67783 0.12858 0.0
H115 H 0.36807 0.64515 0.05225 0.0
H116 H 0.95648 0.61375 0.03863 0.0
H117 H 0.98168 0.64979 0.10976 0.0
H118 H 0.85921 0.5848 0.18508 0.0
H119 H 0.83695 0.54786 0.11433 0.0
Tb120 Tb 0.68729 0.51004 0.50458 0.0
Tb121 Tb 0.60737 0.59995 0.5027 0.0
C122 C 0.78403 0.43456 0.52442 0.0
C123 C 0.77127 0.39495 0.52759 0.0
C124 C 0.73087 0.38821 0.56543 0.0
C125 C 0.70381 0.3545 0.564 0.0
C126 C 0.71595 0.32743 0.52457 0.0
C127 C 0.76643 0.33113 0.48932 0.0
C128 C 0.7943 0.36457 0.49096 0.0
C129 C 0.6422 0.53759 0.42039 0.0
C130 C 0.47235 0.54892 0.50501 0.0
C131 C 0.51223 0.67478 0.48059 0.0
C132 C 0.52802 0.70696 0.45717 0.0
C133 C 0.60871 0.6962 0.43472 0.0
C134 C 0.62923 0.72775 0.41767 0.0
C135 C 0.57075 0.77047 0.42432 0.0
C136 C 0.48807 0.78117 0.44499 0.0
C137 C 0.46632 0.74938 0.46094 0.0
C138 C 0.65601 0.57353 0.58673 0.0
C139 C 0.82319 0.55908 0.50427 0.0
O140 O 0.74528 0.46511 0.55482 0.0
O141 O 0.77401 0.4487 0.48333 0.0
O142 O 0.67782 0.55287 0.45283 0.0
O143 O 0.63402 0.50442 0.43412 0.0
O144 O 0.54768 0.51386 0.51005 0.0
O145 O 0.48086 0.58547 0.5004 0.0
O146 O 0.51657 0.64123 0.45544 0.0
O147 O 0.55585 0.66502 0.52033 0.0
O148 O 0.61816 0.55755 0.55583 0.0
O149 O 0.66345 0.60607 0.57114 0.0
O150 O 0.75036 0.5933 0.49165 0.0
O151 O 0.80893 0.52581 0.51596 0.0
H152 H 0.71511 0.41029 0.59493 0.0
H153 H 0.66695 0.35164 0.59215 0.0
H154 H 0.77718 0.31068 0.45856 0.0
H155 H 0.8282 0.36832 0.46203 0.0
H156 H 0.65846 0.66381 0.43292 0.0
H157 H 0.69467 0.71908 0.40318 0.0
H158 H 0.44342 0.8141 0.45137 0.0
H159 H 0.40409 0.75809 0.47859 0.0
H160 H 0.37673 0.70783 0.01463 0.0
H161 H 0.63946 0.69465 0.9714 0.0
H162 H 0.58375 0.77174 0.96769 0.0
H163 H 0.24114 0.7973 0.94233 0.0
H164 H 0.15816 0.82486 0.98422 0.0
H165 H 0.21642 0.76792 0.98403 0.0
H166 H 0.26986 0.773 0.06871 0.0
H167 H 0.21174 0.82996 0.06917 0.0
H168 H 0.33125 0.80591 0.08518 0.0
H169 H 0.50459 0.85013 0.9688 0.0
H170 H 0.40591 0.92555 0.9733 0.0
H171 H 0.18568 0.89565 0.01496 0.0
C172 C 0.42251 0.72113 0.00428 0.0
C173 C 0.51377 0.69384 0.9933 0.0
C174 C 0.57 0.71359 0.98005 0.0
C175 C 0.53876 0.75789 0.97781 0.0
C176 C 0.44983 0.78357 0.98879 0.0
C177 C 0.39185 0.76622 1.00168 0.0
C178 C 0.29906 0.8023 0.01144 0.0
C179 C 0.22424 0.79782 0.97855 0.0
C180 C 0.27664 0.80281 0.06161 0.0
C181 C 0.31461 0.84224 1.00203 0.0
C182 C 0.4027 0.83002 0.98912 0.0
C183 C 0.43547 0.85995 0.97885 0.0
C184 C 0.37793 0.90331 0.98166 0.0
C185 C 0.28647 0.918 0.9946 0.0
C186 C 0.2546 0.88636 0.00486 0.0
H187 H 0.67581 0.39493 0.98092 0.0
H188 H 0.90609 0.42952 0.01057 0.0
H189 H 1.00754 0.35438 0.01529 0.0
H190 H 0.74992 0.30473 0.05268 0.0
H191 H 0.71902 0.26963 0.01338 0.0
H192 H 0.65688 0.32626 0.01095 0.0
H193 H 0.68727 0.32338 0.92686 0.0
H194 H 0.75469 0.26697 0.92551 0.0
H195 H 0.80227 0.30237 0.9086 0.0
H196 H 1.08665 0.27609 0.02027 0.0
H197 H 0.14098 0.19887 0.01886 0.0
H198 H 0.86924 0.20736 0.98033 0.0
C199 C 0.74754 0.38669 0.98851 0.0
C200 C 0.78178 0.41931 0.99551 0.0
C201 C 0.87678 0.40619 0.00479 0.0
C202 C 0.93561 0.36315 0.00781 0.0
C203 C 0.90036 0.33215 1.00087 0.0
C204 C 0.80883 0.34298 0.99079 0.0
C205 C 0.7916 0.30212 0.98268 0.0
C206 C 0.7253 0.30064 0.01693 0.0
C207 C 0.75664 0.29857 0.93299 0.0
C208 C 0.88687 0.26711 0.99122 0.0
C209 C 0.94786 0.28578 1.00162 0.0
C210 C 1.0394 0.26128 0.01144 0.0
C211 C 1.07016 0.21685 0.01004 0.0
C212 C 1.01148 0.19568 0.99822 0.0
C213 C 0.9172 0.22175 0.98923 0.0
H214 H 0.24255 0.30958 0.48872 0.0
H215 H 0.37778 0.18891 0.41482 0.0
H216 H 0.52376 0.19634 0.42771 0.0
H217 H 0.38048 0.36188 0.45145 0.0
H218 H 0.37928 0.38911 0.50641 0.0
H219 H 0.285 0.37575 0.48699 0.0
H220 H 0.30443 0.33604 0.56152 0.0
H221 H 0.40025 0.34835 0.58071 0.0
H222 H 0.41216 0.29396 0.5761 0.0
H223 H 0.6576 0.21421 0.4549 0.0
H224 H 0.76384 0.24709 0.48407 0.0
H225 H 0.53842 0.35389 0.54171 0.0
C226 C 0.30266 0.28483 0.47493 0.0
C227 C 0.29882 0.24858 0.45108 0.0
C228 C 0.37875 0.21732 0.43272 0.0
C229 C 0.46231 0.2209 0.44044 0.0
C230 C 0.46442 0.25584 0.46656 0.0
C231 C 0.38635 0.28765 0.48271 0.0
C232 C 0.40647 0.32177 0.51023 0.0
C233 C 0.3601 0.36464 0.48738 0.0
C234 C 0.37921 0.32519 0.56009 0.0
C235 C 0.50824 0.30401 0.50738 0.0
C236 C 0.54082 0.2659 0.48228 0.0
C237 C 0.6329 0.24414 0.4745 0.0
C238 C 0.69264 0.26287 0.4913 0.0
C239 C 0.65946 0.30277 0.51552 0.0
C240 C 0.56647 0.32284 0.52446 0.0
H241 H 0.89101 0.87363 0.53435 0.0
H242 H 0.96255 0.88377 0.39711 0.0
H243 H 0.83735 0.86467 0.36461 0.0
H244 H 0.84729 0.78375 0.50877 0.0
H245 H 0.7554 0.79826 0.54674 0.0
H246 H 0.84285 0.8179 0.55895 0.0
H247 H 0.72096 0.89606 0.56009 0.0
H248 H 0.63535 0.8748 0.55008 0.0
H249 H 0.63911 0.9127 0.51217 0.0
H250 H 0.71877 0.83523 0.34736 0.0
H251 H 0.6184 0.79629 0.34767 0.0
H252 H 0.61784 0.8109 0.4956 0.0
C253 C 0.87902 0.87277 0.4975 0.0
C254 C 0.93639 0.88001 0.46823 0.0
C255 C 0.92004 0.87764 0.42012 0.0
C256 C 0.84838 0.86746 0.40137 0.0
C257 C 0.79331 0.86024 0.43123 0.0
C258 C 0.80774 0.86287 0.4783 0.0
C259 C 0.74574 0.84908 0.50285 0.0
C260 C 0.80112 0.80993 0.53094 0.0
C261 C 0.68158 0.88539 0.5331 0.0
C262 C 0.69444 0.83817 0.46232 0.0
C263 C 0.72259 0.84474 0.42119 0.0
C264 C 0.6937 0.8313 0.37923 0.0
C265 C 0.63656 0.80952 0.37958 0.0
C266 C 0.60834 0.80238 0.42154 0.0
C267 C 0.6353 0.818 0.46308 0.0
H268 H 0.31482 0.25694 0.95933 0.0
H269 H 0.314 0.19689 0.82512 0.0
H270 H 0.38251 0.24061 0.79517 0.0
H271 H 0.37118 0.35677 0.89496 0.0
H272 H 0.42888 0.36073 0.94894 0.0
H273 H 0.31553 0.3621 0.94747 0.0
H274 H 0.36967 0.30185 0.00271 0.0
H275 H 0.48169 0.30089 0.0043 0.0
H276 H 0.46459 0.25284 0.98935 0.0
H277 H 0.53385 0.23569 0.79859 0.0
H278 H 0.67972 0.1899 0.83287 0.0
H279 H 0.60656 0.25604 0.96367 0.0
C280 C 0.32339 0.25526 0.92298 0.0
C281 C 0.31683 0.22119 0.89546 0.0
C282 C 0.32483 0.22081 0.84781 0.0
C283 C 0.36238 0.24642 0.83029 0.0
C284 C 0.39188 0.27188 0.8609 0.0
C285 C 0.36311 0.28042 0.90571 0.0
C286 C 0.42177 0.29884 0.93457 0.0
C287 C 0.38202 0.34743 0.93119 0.0
C288 C 0.43538 0.28773 0.98569 0.0
C289 C 0.50685 0.27897 0.90779 0.0
C290 C 0.48429 0.27035 0.86232 0.0
C291 C 0.55102 0.24245 0.83382 0.0
C292 C 0.63446 0.21597 0.85372 0.0
C293 C 0.65128 0.21868 0.90146 0.0
C294 C 0.59225 0.25355 0.92721 0.0
H295 H 0.48516 1.00452 0.50022 0.0
H296 H 0.32449 0.13985 0.49297 0.0
H297 H 0.46459 0.15209 0.49411 0.0
H298 H 0.67901 1.01576 0.57497 0.0
H299 H 0.7606 0.96942 0.54666 0.0
H300 H 0.64486 0.97502 0.55026 0.0
H301 H 0.6451 0.96235 0.45966 0.0
H302 H 0.75746 0.96188 0.4596 0.0
H303 H 0.66526 0.9993 0.42631 0.0
H304 H 0.62123 0.15206 0.493 0.0
H305 H 0.78118 0.13997 0.49219 0.0
H306 H 0.85749 1.00438 0.49873 0.0
C307 C 0.47909 1.03681 0.49859 0.0
C308 C 0.39009 1.07117 0.4963 0.0
C309 C 0.38872 0.11256 0.49438 0.0
C310 C 0.46909 0.12003 0.49474 0.0
C311 C 0.55412 0.08605 0.4962 0.0
C312 C 0.56042 1.04508 0.49823 0.0
C313 C 0.66249 1.01478 0.50011 0.0
C314 C 0.68844 0.99232 0.54564 0.0
C315 C 0.68383 0.98263 0.45901 0.0
C316 C 0.71166 1.04498 0.49762 0.0
C317 C 0.64647 0.08599 0.49587 0.0
C318 C 0.67219 0.11995 0.49403 0.0
C319 C 0.76517 0.11246 0.4936 0.0
C320 C 0.83626 1.07106 0.49517 0.0
C321 C 0.80742 1.03664 0.49747 0.0
H322 H 0.90131 0.70228 0.16864 0.0
H323 H 0.99063 0.58339 0.23438 0.0
H324 H 1.08834 0.60485 0.28834 0.0
H325 H 1.04587 0.70835 0.14031 0.0
H326 H 1.05761 0.75738 0.15742 0.0
H327 H 0.94859 0.75534 0.15658 0.0
H328 H 0.93169 0.78221 0.24024 0.0
H329 H 1.04172 0.78458 0.24134 0.0
H330 H 1.01728 0.75569 0.28354 0.0
H331 H 0.22971 0.61124 0.29483 0.0
H332 H 0.35371 0.59306 0.24351 0.0
H333 H 0.20095 0.70517 0.16886 0.0
C334 C 0.93829 0.68231 0.19643 0.0
C335 C 0.9419 0.64085 0.19635 0.0
C336 C 0.98781 0.61522 0.23321 0.0
C337 C 1.04368 0.62753 0.26442 0.0
C338 C 1.05486 0.66491 0.25759 0.0
C339 C 0.99807 0.69373 0.22614 0.0
C340 C 1.04 0.72386 0.21475 0.0
C341 C 1.02215 0.73677 0.16421 0.0
C342 C 1.00572 0.76388 0.2469 0.0
C343 C 0.1385 0.69677 0.22766 0.0
C344 C 0.14337 0.66772 0.25964 0.0
C345 C 0.22539 0.63351 0.2696 0.0
C346 C 0.29585 0.62293 0.2398 0.0
C347 C 0.28301 0.64635 0.20045 0.0
C348 C 0.21039 0.6865 0.19837 0.0
H349 H 0.28729 0.611 0.48835 0.0
H350 H 0.4384 0.4801 0.52408 0.0
H351 H 0.29531 0.4711 0.52708 0.0
H352 H 1.09297 0.63227 0.56 0.0
H353 H 1.00723 0.66382 0.51922 0.0
H354 H 0.12108 0.66161 0.51957 0.0
H355 H 0.13026 0.63707 0.43412 0.0
H356 H 1.01644 0.63922 0.43355 0.0
H357 H 1.10846 0.59087 0.41579 0.0
H358 H 0.13585 0.47429 0.52742 0.0
H359 H 0.97447 0.48847 0.52417 0.0
H360 H 0.90852 0.61764 0.48676 0.0
C361 C 0.29058 0.58038 0.49689 0.0
C362 C 0.37798 0.54623 0.5061 0.0
C363 C 0.37561 0.50706 0.51679 0.0
C364 C 0.29334 0.50151 0.51863 0.0
C365 C 0.20991 0.53521 0.50953 0.0
C366 C 0.2072 0.57403 0.49865 0.0
C367 C 1.10624 0.60447 0.48997 0.0
C368 C 1.08035 0.64284 0.52422 0.0
C369 C 1.08935 0.61877 0.44041 0.0
C370 C 1.05332 0.57681 0.49807 0.0
C371 C 0.11598 0.53698 0.5093 0.0
C372 C 1.08681 0.50545 0.51862 0.0
C373 C 0.99297 0.51415 0.51663 0.0
C374 C 0.92418 0.55438 0.50523 0.0
C375 C 0.95663 0.58634 0.49567 0.0
H376 H 0.25935 1.01517 0.34457 0.0
H377 H 0.9776 0.09497 0.36824 0.0
H378 H 0.94806 0.10632 0.28486 0.0
H379 H 0.28609 1.07699 0.25719 0.0
H380 H 0.35973 1.03141 0.22445 0.0
H381 H 0.35702 1.02918 0.28552 0.0
H382 H 0.31914 0.96283 0.27335 0.0
H383 H 0.32092 0.96507 0.21219 0.0
H384 H 0.22168 0.96537 0.23717 0.0
H385 H 0.94989 0.10788 0.19739 0.0
H386 H 0.98558 0.10429 0.11578 0.0
H387 H 0.26697 1.02533 0.14985 0.0
C388 C 0.19134 1.03505 0.33223 0.0
C389 C 0.12055 1.05403 0.36299 0.0
C390 C 1.0328 1.08007 0.34541 0.0
C391 C 1.01542 0.08654 0.29803 0.0
C392 C 1.0866 1.06696 0.26855 0.0
C393 C 0.17309 1.04206 0.28515 0.0
C394 C 0.23854 1.02552 0.24665 0.0
C395 C 0.31483 1.04176 0.25389 0.0
C396 C 0.27735 0.97681 0.24209 0.0
C397 C 0.17575 1.04505 0.20565 0.0
C398 C 1.08807 1.06849 0.21887 0.0
C399 C 1.01828 0.08951 0.18685 0.0
C400 C 1.0389 0.08709 0.14051 0.0
C401 C 0.12849 1.064 0.12653 0.0
C402 C 0.19757 1.04266 0.15959 0.0
H403 H 1.0038 0.09389 0.84384 0.0
H404 H 0.28977 1.01628 0.86808 0.0
H405 H 0.3147 1.01786 0.78582 0.0
H406 H 0.97493 1.04669 0.7363 0.0
H407 H 0.89819 0.09519 0.71107 0.0
H408 H 0.9039 0.09046 0.77215 0.0
H409 H 0.93898 0.15744 0.7852 0.0
H410 H 0.93238 0.16277 0.72414 0.0
H411 H 1.03301 0.15997 0.75763 0.0
H412 H 0.30534 1.02318 0.69918 0.0
H413 H 0.26564 1.03681 0.61692 0.0
H414 H 0.98613 0.11301 0.64891 0.0
C415 C 1.07191 1.07805 0.83189 0.0
C416 C 0.14539 1.05552 0.86236 0.0
C417 C 0.23315 1.03439 0.84543 0.0
C418 C 0.24767 1.03491 0.79869 0.0
C419 C 0.17364 1.05687 0.76926 0.0
C420 C 1.08763 1.07858 0.78534 0.0
C421 C 1.01939 0.09918 0.74646 0.0
C422 C 0.94471 0.08183 0.7412 0.0
C423 C 0.97854 0.14772 0.7538 0.0
C424 C 1.07993 0.08509 0.70583 0.0
C425 C 0.16865 1.06058 0.7197 0.0
C426 C 0.23628 1.04274 0.68811 0.0
C427 C 0.21304 1.05053 0.64137 0.0
C428 C 0.12299 1.07619 0.62639 0.0
C429 C 1.05574 0.09353 0.65926 0.0
H430 H 0.63486 0.49083 0.33931 0.0
H431 H 0.62578 0.61312 0.39112 0.0
H432 H 0.60344 0.63749 0.31254 0.0
H433 H 0.76989 0.4857 0.24438 0.0
H434 H 0.71833 0.4583 0.20495 0.0
H435 H 0.72242 0.45161 0.26561 0.0
H436 H 0.54816 0.47501 0.26204 0.0
H437 H 0.54345 0.4822 0.20138 0.0
H438 H 0.47609 0.52528 0.23892 0.0
H439 H 0.58584 0.64878 0.22942 0.0
H440 H 0.59448 0.64398 0.14568 0.0
H441 H 0.62752 0.51259 0.14282 0.0
C442 C 0.6266 0.52295 0.33399 0.0
C443 C 0.62911 0.55076 0.37188 0.0
C444 C 0.6215 0.59186 0.36317 0.0
C445 C 0.60886 0.60592 0.31843 0.0
C446 C 0.60612 0.5781 0.28199 0.0
C447 C 0.61655 0.53716 0.28893 0.0
C448 C 0.62106 0.51259 0.24297 0.0
C449 C 0.71341 0.47481 0.23927 0.0
C450 C 0.54251 0.49791 0.23593 0.0
C451 C 0.61083 0.54629 0.20938 0.0
C452 C 0.60113 0.58392 0.23304 0.0
C453 C 0.59335 0.61951 0.21054 0.0
C454 C 0.59829 0.61644 0.16281 0.0
C455 C 0.61166 0.57801 0.13748 0.0
C456 C 0.61614 0.54258 0.16108 0.0
H457 H 0.57708 0.53385 0.64009 0.0
H458 H 0.76576 0.59543 0.64686 0.0
H459 H 0.78308 0.59023 0.73059 0.0
H460 H 0.46442 0.58549 0.7413 0.0
H461 H 0.45 0.54028 0.7608 0.0
H462 H 0.45724 0.54508 0.70055 0.0
H463 H 0.59124 0.47152 0.69667 0.0
H464 H 0.5841 0.46639 0.75692 0.0
H465 H 0.68981 0.46139 0.73503 0.0
H466 H 0.77293 0.58386 0.81372 0.0
H467 H 0.73814 0.57485 0.89191 0.0
H468 H 0.55679 0.51669 0.83524 0.0
C469 C 0.62333 0.54539 0.65923 0.0
C470 C 0.6705 0.56493 0.63664 0.0
C471 C 0.72899 0.58035 0.66315 0.0
C472 C 0.73941 0.57751 0.71089 0.0
C473 C 0.69089 0.5591 0.73232 0.0
C474 C 0.63428 0.54303 0.70757 0.0
C475 C 0.58727 0.5266 0.74008 0.0
C476 C 0.48358 0.55081 0.73539 0.0
C477 C 0.61475 0.47862 0.73167 0.0
C478 C 0.62533 0.53661 0.78665 0.0
C479 C 0.68526 0.55522 0.78106 0.0
C480 C 0.72679 0.56893 0.81853 0.0
C481 C 0.70648 0.56375 0.86292 0.0
C482 C 0.64524 0.5449 0.86998 0.0
C483 C 0.60473 0.5308 0.8311 0.0
loop_
_geom_bond_atom_site_label_1
_geom_bond_atom_site_label_2
_geom_bond_distance
_geom_bond_site_symmetry_2
_ccdc_geom_bond_type
Tb0 C2 2.807 1_565 S
Tb0 O20 2.484 1_566 S
Tb0 O21 2.440 . S
Tb0 O22 2.658 1_655 S
Tb0 O23 2.409 . S
Tb0 O24 2.378 1_565 S
Tb0 O28 2.325 1_566 S
Tb0 O31 2.341 1_655 S
Tb1 C11 2.808 1_545 S
Tb1 O22 2.325 1_544 S
Tb1 O25 2.341 1_455 S
Tb1 O26 2.484 1_544 S
Tb1 O27 2.440 . S
Tb1 O28 2.658 1_455 S
Tb1 O29 2.409 . S
Tb1 O30 2.378 1_545 S
C2 Tb0 2.807 1_545 S
C2 C3 1.515 . S
C2 O20 1.253 1_556 S
C2 O21 1.260 1_545 S
C3 C2 1.515 . S
C3 C4 1.359 1_556 S
C3 C8 1.348 . S
C4 C3 1.359 1_554 S
C4 C5 1.380 . S
C4 H32 0.929 . S
C5 C4 1.380 . S
C5 C6 1.347 . S
C5 H33 0.931 . S
C6 C5 1.347 . S
C6 C7 1.369 1_554 S
C7 C6 1.369 1_556 S
C7 C8 1.408 . S
C7 H34 0.930 . S
C8 C3 1.348 . S
C8 C7 1.408 . S
C8 H35 0.930 . S
C9 O22 1.281 1_655 S
C9 O23 1.254 . S
C10 O24 1.236 . S
C10 O25 1.266 1_556 S
C11 Tb1 2.808 1_565 S
C11 C12 1.514 . S
C11 O26 1.251 1_554 S
C11 O27 1.262 1_565 S
C12 C11 1.514 . S
C12 C13 1.359 1_554 S
C12 C17 1.348 . S
C13 C12 1.359 1_556 S
C13 C14 1.380 . S
C13 H36 0.929 . S
C14 C13 1.380 . S
C14 C15 1.347 . S
C14 H37 0.931 . S
C15 C14 1.347 . S
C15 C16 1.369 1_556 S
C16 C15 1.369 1_554 S
C16 C17 1.408 . S
C16 H38 0.930 . S
C17 C12 1.348 . S
C17 C16 1.408 . S
C17 H39 0.930 . S
C18 O28 1.281 1_455 S
C18 O29 1.254 . S
C19 O30 1.236 . S
C19 O31 1.266 1_554 S
O20 Tb0 2.484 1_544 S
O20 C2 1.253 1_554 S
O21 Tb0 2.440 . S
O21 C2 1.260 1_565 S
O22 Tb0 2.658 1_455 S
O22 Tb1 2.325 1_566 S
O22 C9 1.281 1_455 S
O23 Tb0 2.409 . S
O23 C9 1.254 . S
O24 Tb0 2.378 1_545 S
O24 C10 1.236 . S
O25 Tb1 2.341 1_655 S
O25 C10 1.266 1_554 S
O26 Tb1 2.484 1_566 S
O26 C11 1.251 1_556 S
O27 Tb1 2.440 . S
O27 C11 1.262 1_545 S
O28 Tb0 2.325 1_544 S
O28 Tb1 2.658 1_655 S
O28 C18 1.281 1_655 S
O29 Tb1 2.409 . S
O29 C18 1.254 . S
O30 Tb1 2.378 1_565 S
O30 C19 1.236 . S
O31 Tb0 2.341 1_455 S
O31 C19 1.266 1_556 S
H32 C4 0.929 . S
H33 C5 0.931 . S
H34 C7 0.930 . S
H35 C8 0.930 . S
H36 C13 0.929 . S
H37 C14 0.931 . S
H38 C16 0.930 . S
H39 C17 0.930 . S
Tb40 C42 2.809 1_455 S
Tb40 O60 2.484 1_455 S
Tb40 O61 2.440 1_455 S
Tb40 O62 2.658 1_565 S
Tb40 O63 2.409 . S
Tb40 O64 2.378 1_455 S
Tb40 O68 2.325 1_455 S
Tb40 O71 2.341 . S
Tb41 C51 2.809 1_655 S
Tb41 O62 2.325 1_655 S
Tb41 O65 2.341 . S
Tb41 O66 2.484 1_655 S
Tb41 O67 2.440 1_655 S
Tb41 O68 2.658 1_545 S
Tb41 O69 2.409 . S
Tb41 O70 2.378 1_655 S
C42 Tb40 2.809 1_655 S
C42 C43 1.514 . S
C42 O60 1.248 . S
C42 O61 1.266 . S
C43 C42 1.514 . S
C43 C44 1.359 . S
C43 C48 1.348 . S
C44 C43 1.359 . S
C44 C45 1.380 . S
C44 H72 0.929 . S
C45 C44 1.380 . S
C45 C46 1.347 . S
C45 H73 0.931 . S
C46 C45 1.347 . S
C46 C47 1.369 . S
C47 C46 1.369 . S
C47 C48 1.408 . S
C47 H74 0.930 . S
C48 C43 1.348 . S
C48 C47 1.408 . S
C48 H75 0.930 . S
C49 O62 1.281 1_565 S
C49 O63 1.254 . S
C50 O64 1.236 1_545 S
C50 O65 1.266 . S
C51 Tb41 2.809 1_455 S
C51 C52 1.514 . S
C51 O66 1.248 . S
C51 O67 1.266 . S
C52 C51 1.514 . S
C52 C53 1.359 . S
C52 C57 1.348 . S
C53 C52 1.359 . S
C53 C54 1.380 . S
C53 H76 0.929 . S
C54 C53 1.380 . S
C54 C55 1.347 . S
C54 H77 0.931 . S
C55 C54 1.347 . S
C55 C56 1.369 . S
C56 C55 1.369 . S
C56 C57 1.408 . S
C56 H78 0.930 . S
C57 C52 1.348 . S
C57 C56 1.408 . S
C57 H79 0.930 . S
C58 O68 1.281 1_545 S
C58 O69 1.254 . S
C59 O70 1.236 1_565 S
C59 O71 1.266 . S
O60 Tb40 2.484 1_655 S
O60 C42 1.248 . S
O61 Tb40 2.440 1_655 S
O61 C42 1.266 . S
O62 Tb40 2.658 1_545 S
O62 Tb41 2.325 1_455 S
O62 C49 1.281 1_545 S
O63 Tb40 2.409 . S
O63 C49 1.254 . S
O64 Tb40 2.378 1_655 S
O64 C50 1.236 1_565 S
O65 Tb41 2.341 . S
O65 C50 1.266 . S
O66 Tb41 2.484 1_455 S
O66 C51 1.248 . S
O67 Tb41 2.440 1_455 S
O67 C51 1.266 . S
O68 Tb40 2.325 1_655 S
O68 Tb41 2.658 1_565 S
O68 C58 1.281 1_565 S
O69 Tb41 2.409 . S
O69 C58 1.254 . S
O70 Tb41 2.378 1_455 S
O70 C59 1.236 1_545 S
O71 Tb40 2.341 . S
O71 C59 1.266 . S
H72 C44 0.929 . S
H73 C45 0.931 . S
H74 C47 0.930 . S
H75 C48 0.930 . S
H76 C53 0.929 . S
H77 C54 0.931 . S
H78 C56 0.930 . S
H79 C57 0.930 . S
Tb80 C82 2.809 . S
Tb80 O100 2.484 1_556 S
Tb80 O101 2.440 . S
Tb80 O102 2.658 . S
Tb80 O103 2.409 . S
Tb80 O104 2.378 . S
Tb80 O108 2.325 1_556 S
Tb80 O111 2.341 . S
Tb81 C91 2.809 . S
Tb81 O102 2.325 1_554 S
Tb81 O105 2.341 . S
Tb81 O106 2.484 1_554 S
Tb81 O107 2.440 . S
Tb81 O108 2.658 . S
Tb81 O109 2.409 . S
Tb81 O110 2.378 . S
C82 Tb80 2.809 . S
C82 C83 1.514 . S
C82 O100 1.248 1_556 S
C82 O101 1.266 . S
C83 C82 1.514 . S
C83 C84 1.359 1_556 S
C83 C88 1.348 . S
C84 C83 1.359 1_554 S
C84 C85 1.380 . S
C84 H112 0.929 . S
C85 C84 1.380 . S
C85 C86 1.347 . S
C85 H113 0.931 . S
C86 C85 1.347 . S
C86 C87 1.369 1_554 S
C87 C86 1.369 1_556 S
C87 C88 1.408 . S
C87 H114 0.930 . S
C88 C83 1.348 . S
C88 C87 1.408 . S
C88 H115 0.930 . S
C89 O102 1.281 . S
C89 O103 1.254 . S
C90 O104 1.236 . S
C90 O105 1.266 1_556 S
C91 Tb81 2.809 . S
C91 C92 1.514 . S
C91 O106 1.248 1_554 S
C91 O107 1.266 . S
C92 C91 1.514 . S
C92 C93 1.359 1_554 S
C92 C97 1.348 . S
C93 C92 1.359 1_556 S
C93 C94 1.380 . S
C93 H116 0.929 . S
C94 C93 1.380 . S
C94 C95 1.347 . S
C94 H117 0.931 . S
C95 C94 1.347 . S
C95 C96 1.369 1_556 S
C96 C95 1.369 1_554 S
C96 C97 1.408 . S
C96 H118 0.930 . S
C97 C92 1.348 . S
C97 C96 1.408 . S
C97 H119 0.930 . S
C98 O108 1.281 . S
C98 O109 1.254 . S
C99 O110 1.236 . S
C99 O111 1.266 1_554 S
O100 Tb80 2.484 1_554 S
O100 C82 1.248 1_554 S
O101 Tb80 2.440 . S
O101 C82 1.266 . S
O102 Tb80 2.658 . S
O102 Tb81 2.325 1_556 S
O102 C89 1.281 . S
O103 Tb80 2.409 . S
O103 C89 1.254 . S
O104 Tb80 2.378 . S
O104 C90 1.236 . S
O105 Tb81 2.341 . S
O105 C90 1.266 1_554 S
O106 Tb81 2.484 1_556 S
O106 C91 1.248 1_556 S
O107 Tb81 2.440 . S
O107 C91 1.266 . S
O108 Tb80 2.325 1_554 S
O108 Tb81 2.658 . S
O108 C98 1.281 . S
O109 Tb81 2.409 . S
O109 C98 1.254 . S
O110 Tb81 2.378 . S
O110 C99 1.236 . S
O111 Tb80 2.341 . S
O111 C99 1.266 1_556 S
H112 C84 0.929 . S
H113 C85 0.931 . S
H114 C87 0.930 . S
H115 C88 0.930 . S
H116 C93 0.929 . S
H117 C94 0.931 . S
H118 C96 0.930 . S
H119 C97 0.930 . S
Tb120 C122 2.809 . S
Tb120 O140 2.484 . S
Tb120 O141 2.440 . S
Tb120 O142 2.658 . S
Tb120 O143 2.409 . S
Tb120 O144 2.378 . S
Tb120 O148 2.325 . S
Tb120 O151 2.341 . S
Tb121 C131 2.809 . S
Tb121 O142 2.325 . S
Tb121 O145 2.341 . S
Tb121 O146 2.484 . S
Tb121 O147 2.440 . S
Tb121 O148 2.658 . S
Tb121 O149 2.409 . S
Tb121 O150 2.378 . S
C122 Tb120 2.809 . S
C122 C123 1.514 . S
C122 O140 1.248 . S
C122 O141 1.266 . S
C123 C122 1.514 . S
C123 C124 1.359 . S
C123 C128 1.348 . S
C124 C123 1.359 . S
C124 C125 1.380 . S
C124 H152 0.929 . S
C125 C124 1.380 . S
C125 C126 1.347 . S
C125 H153 0.931 . S
C126 C125 1.347 . S
C126 C127 1.369 . S
C127 C126 1.369 . S
C127 C128 1.408 . S
C127 H154 0.930 . S
C128 C123 1.348 . S
C128 C127 1.408 . S
C128 H155 0.930 . S
C129 O142 1.281 . S
C129 O143 1.254 . S
C130 O144 1.236 . S
C130 O145 1.266 . S
C131 Tb121 2.809 . S
C131 C132 1.514 . S
C131 O146 1.248 . S
C131 O147 1.266 . S
C132 C131 1.514 . S
C132 C133 1.359 . S
C132 C137 1.348 . S
C133 C132 1.359 . S
C133 C134 1.380 . S
C133 H156 0.929 . S
C134 C133 1.380 . S
C134 C135 1.347 . S
C134 H157 0.931 . S
C135 C134 1.347 . S
C135 C136 1.369 . S
C136 C135 1.369 . S
C136 C137 1.408 . S
C136 H158 0.930 . S
C137 C132 1.348 . S
C137 C136 1.408 . S
C137 H159 0.930 . S
C138 O148 1.281 . S
C138 O149 1.254 . S
C139 O150 1.236 . S
C139 O151 1.266 . S
O140 Tb120 2.484 . S
O140 C122 1.248 . S
O141 Tb120 2.440 . S
O141 C122 1.266 . S
O142 Tb120 2.658 . S
O142 Tb121 2.325 . S
O142 C129 1.281 . S
O143 Tb120 2.409 . S
O143 C129 1.254 . S
O144 Tb120 2.378 . S
O144 C130 1.236 . S
O145 Tb121 2.341 . S
O145 C130 1.266 . S
O146 Tb121 2.484 . S
O146 C131 1.248 . S
O147 Tb121 2.440 . S
O147 C131 1.266 . S
O148 Tb120 2.325 . S
O148 Tb121 2.658 . S
O148 C138 1.281 . S
O149 Tb121 2.409 . S
O149 C138 1.254 . S
O150 Tb121 2.378 . S
O150 C139 1.236 . S
O151 Tb120 2.341 . S
O151 C139 1.266 . S
H152 C124 0.929 . S
H153 C125 0.931 . S
H154 C127 0.930 . S
H155 C128 0.930 . S
H156 C133 0.929 . S
H157 C134 0.931 . S
H158 C136 0.930 . S
H159 C137 0.930 . S
H160 C172 0.930 . S
H161 C174 0.930 . S
H162 C175 0.930 . S
H163 C179 0.959 . S
H164 C179 0.959 . S
H165 C179 0.961 . S
H166 C180 0.960 . S
H167 C180 0.961 . S
H168 C180 0.959 . S
H169 C183 0.929 . S
H170 C184 0.931 . S
H171 C186 0.930 . S
C172 H160 0.930 . S
C172 C173 1.399 1_554 S
C172 C177 1.399 . S
C173 C172 1.399 1_556 S
C173 C174 1.376 . S
C174 H161 0.930 . S
C174 C173 1.376 . S
C174 C175 1.388 . S
C175 H162 0.930 . S
C175 C174 1.388 . S
C175 C176 1.390 . S
C176 C175 1.390 . S
C176 C177 1.394 1_556 S
C176 C182 1.465 . S
C177 C172 1.399 . S
C177 C176 1.394 1_554 S
C177 C178 1.516 . S
C178 C177 1.516 . S
C178 C179 1.502 . S
C178 C180 1.561 . S
C178 C181 1.526 . S
C179 H163 0.959 . S
C179 H164 0.959 . S
C179 H165 0.961 . S
C179 C178 1.502 . S
C180 H166 0.960 . S
C180 H167 0.961 . S
C180 H168 0.959 . S
C180 C178 1.561 . S
C181 C178 1.526 . S
C181 C182 1.396 1_554 S
C181 C186 1.390 . S
C182 C176 1.465 . S
C182 C181 1.396 1_556 S
C182 C183 1.399 . S
C183 H169 0.929 . S
C183 C182 1.399 . S
C183 C184 1.385 . S
C184 H170 0.931 . S
C184 C183 1.385 . S
C184 C185 1.389 . S
C185 C184 1.389 . S
C185 C186 1.387 1_556 S
C186 H171 0.930 . S
C186 C181 1.390 . S
C186 C185 1.387 1_554 S
H187 C199 0.930 . S
H188 C201 0.930 . S
H189 C202 0.930 . S
H190 C206 0.959 . S
H191 C206 0.959 . S
H192 C206 0.961 . S
H193 C207 0.960 1_554 S
H194 C207 0.961 1_554 S
H195 C207 0.959 . S
H196 C210 0.929 . S
H197 C211 0.931 . S
H198 C213 0.930 . S
C199 H187 0.930 . S
C199 C200 1.399 1_554 S
C199 C204 1.399 . S
C200 C199 1.399 1_556 S
C200 C201 1.376 . S
C201 H188 0.930 . S
C201 C200 1.376 . S
C201 C202 1.388 . S
C202 H189 0.930 . S
C202 C201 1.388 . S
C202 C203 1.390 . S
C203 C202 1.390 . S
C203 C204 1.394 1_556 S
C203 C209 1.465 . S
C204 C199 1.399 . S
C204 C203 1.394 1_554 S
C204 C205 1.516 . S
C205 C204 1.516 . S
C205 C206 1.502 . S
C205 C207 1.561 1_554 S
C205 C208 1.526 . S
C206 H190 0.959 . S
C206 H191 0.959 . S
C206 H192 0.961 . S
C206 C205 1.502 . S
C207 H193 0.960 1_556 S
C207 H194 0.961 1_556 S
C207 H195 0.959 . S
C207 C205 1.561 1_556 S
C208 C205 1.526 . S
C208 C209 1.396 1_554 S
C208 C213 1.390 . S
C209 C203 1.465 . S
C209 C208 1.396 1_556 S
C209 C210 1.399 . S
C210 H196 0.929 . S
C210 C209 1.399 . S
C210 C211 1.385 . S
C211 H197 0.931 . S
C211 C210 1.385 . S
C211 C212 1.389 . S
C212 C211 1.389 . S
C212 C213 1.387 1_556 S
C213 H198 0.930 . S
C213 C208 1.390 . S
C213 C212 1.387 1_554 S
H214 C226 0.930 . S
H215 C228 0.930 . S
H216 C229 0.930 . S
H217 C233 0.959 . S
H218 C233 0.959 . S
H219 C233 0.961 . S
H220 C234 0.960 . S
H221 C234 0.961 . S
H222 C234 0.959 . S
H223 C237 0.929 . S
H224 C238 0.931 . S
H225 C240 0.930 . S
C226 H214 0.930 . S
C226 C227 1.399 . S
C226 C231 1.399 . S
C227 C226 1.399 . S
C227 C228 1.376 . S
C228 H215 0.930 . S
C228 C227 1.376 . S
C228 C229 1.388 . S
C229 H216 0.930 . S
C229 C228 1.388 . S
C229 C230 1.390 . S
C230 C229 1.390 . S
C230 C231 1.394 . S
C230 C236 1.465 . S
C231 C226 1.399 . S
C231 C230 1.394 . S
C231 C232 1.516 . S
C232 C231 1.516 . S
C232 C233 1.502 . S
C232 C234 1.561 . S
C232 C235 1.526 . S
C233 H217 0.959 . S
C233 H218 0.959 . S
C233 H219 0.961 . S
C233 C232 1.502 . S
C234 H220 0.960 . S
C234 H221 0.961 . S
C234 H222 0.959 . S
C234 C232 1.561 . S
C235 C232 1.526 . S
C235 C236 1.396 . S
C235 C240 1.390 . S
C236 C230 1.465 . S
C236 C235 1.396 . S
C236 C237 1.399 . S
C237 H223 0.929 . S
C237 C236 1.399 . S
C237 C238 1.385 . S
C238 H224 0.931 . S
C238 C237 1.385 . S
C238 C239 1.389 . S
C239 C238 1.389 . S
C239 C240 1.387 . S
C240 H225 0.930 . S
C240 C235 1.390 . S
C240 C239 1.387 . S
H241 C253 0.930 . S
H242 C255 0.930 . S
H243 C256 0.930 . S
H244 C260 0.959 . S
H245 C260 0.959 . S
H246 C260 0.961 . S
H247 C261 0.960 . S
H248 C261 0.961 . S
H249 C261 0.959 . S
H250 C264 0.929 . S
H251 C265 0.931 . S
H252 C267 0.930 . S
C253 H241 0.930 . S
C253 C254 1.399 . S
C253 C258 1.399 . S
C254 C253 1.399 . S
C254 C255 1.376 . S
C255 H242 0.930 . S
C255 C254 1.376 . S
C255 C256 1.388 . S
C256 H243 0.930 . S
C256 C255 1.388 . S
C256 C257 1.390 . S
C257 C256 1.390 . S
C257 C258 1.394 . S
C257 C263 1.465 . S
C258 C253 1.399 . S
C258 C257 1.394 . S
C258 C259 1.516 . S
C259 C258 1.516 . S
C259 C260 1.502 . S
C259 C261 1.561 . S
C259 C262 1.526 . S
C260 H244 0.959 . S
C260 H245 0.959 . S
C260 H246 0.961 . S
C260 C259 1.502 . S
C261 H247 0.960 . S
C261 H248 0.961 . S
C261 H249 0.959 . S
C261 C259 1.561 . S
C262 C259 1.526 . S
C262 C263 1.396 . S
C262 C267 1.390 . S
C263 C257 1.465 . S
C263 C262 1.396 . S
C263 C264 1.399 . S
C264 H250 0.929 . S
C264 C263 1.399 . S
C264 C265 1.385 . S
C265 H251 0.931 . S
C265 C264 1.385 . S
C265 C266 1.389 . S
C266 C265 1.389 . S
C266 C267 1.387 . S
C267 H252 0.930 . S
C267 C262 1.390 . S
C267 C266 1.387 . S
H268 C280 0.930 . S
H269 C282 0.930 . S
H270 C283 0.930 . S
H271 C287 0.959 . S
H272 C287 0.959 . S
H273 C287 0.961 . S
H274 C288 0.960 . S
H275 C288 0.961 . S
H276 C288 0.960 1_565 S
H277 C291 0.929 . S
H278 C292 0.931 . S
H279 C294 0.930 . S
C280 H268 0.930 . S
C280 C281 1.399 1_554 S
C280 C285 1.399 . S
C281 C280 1.399 1_556 S
C281 C282 1.376 . S
C282 H269 0.930 . S
C282 C281 1.376 . S
C282 C283 1.388 . S
C283 H270 0.930 . S
C283 C282 1.388 . S
C283 C284 1.390 . S
C284 C283 1.390 . S
C284 C285 1.394 1_556 S
C284 C290 1.473 . S
C285 C280 1.399 . S
C285 C284 1.394 1_554 S
C285 C286 1.516 1_565 S
C286 C285 1.516 1_545 S
C286 C287 1.502 . S
C286 C288 1.561 . S
C286 C289 1.526 . S
C287 H271 0.959 . S
C287 H272 0.959 . S
C287 H273 0.961 . S
C287 C286 1.502 . S
C288 H274 0.960 . S
C288 H275 0.961 . S
C288 H276 0.960 1_545 S
C288 C286 1.561 . S
C289 C286 1.526 . S
C289 C290 1.390 1_544 S
C289 C294 1.390 . S
C290 C284 1.473 . S
C290 C289 1.390 1_566 S
C290 C291 1.397 . S
C291 H277 0.929 . S
C291 C290 1.397 . S
C291 C292 1.385 1_565 S
C292 H278 0.931 . S
C292 C291 1.385 1_545 S
C292 C293 1.389 1_556 S
C293 C292 1.389 1_554 S
C293 C294 1.387 . S
C294 H279 0.930 . S
C294 C289 1.390 . S
C294 C293 1.387 . S
H295 C307 0.930 . S
H296 C309 0.930 . S
H297 C310 0.930 . S
H298 C314 0.959 . S
H299 C314 0.959 . S
H300 C314 0.961 . S
H301 C315 0.960 . S
H302 C315 0.961 . S
H303 C315 0.959 . S
H304 C318 0.929 . S
H305 C319 0.931 . S
H306 C321 0.930 . S
C307 H295 0.930 . S
C307 C308 1.399 1_565 S
C307 C312 1.399 . S
C308 C307 1.399 1_545 S
C308 C309 1.376 . S
C309 H296 0.930 . S
C309 C308 1.376 . S
C309 C310 1.388 . S
C310 H297 0.930 . S
C310 C309 1.388 . S
C310 C311 1.390 . S
C311 C310 1.390 . S
C311 C312 1.394 1_545 S
C311 C317 1.465 . S
C312 C307 1.399 . S
C312 C311 1.394 1_565 S
C312 C313 1.516 . S
C313 C312 1.516 . S
C313 C314 1.502 . S
C313 C315 1.561 1_565 S
C313 C316 1.526 . S
C314 H298 0.959 . S
C314 H299 0.959 . S
C314 H300 0.961 . S
C314 C313 1.502 . S
C315 H301 0.960 . S
C315 H302 0.961 . S
C315 H303 0.959 . S
C315 C313 1.561 1_545 S
C316 C313 1.526 . S
C316 C317 1.396 1_565 S
C316 C321 1.390 . S
C317 C311 1.465 . S
C317 C316 1.396 1_545 S
C317 C318 1.399 . S
C318 H304 0.929 . S
C318 C317 1.399 . S
C318 C319 1.385 . S
C319 H305 0.931 . S
C319 C318 1.385 . S
C319 C320 1.389 . S
C320 C319 1.389 . S
C320 C321 1.387 1_545 S
C321 H306 0.930 . S
C321 C316 1.390 . S
C321 C320 1.387 1_565 S
H322 C334 0.930 . S
H323 C336 0.930 . S
H324 C337 0.930 . S
H325 C341 0.959 . S
H326 C341 0.959 . S
H327 C341 0.961 . S
H328 C342 0.960 . S
H329 C342 0.961 . S
H330 C342 0.959 . S
H331 C345 0.929 . S
H332 C346 0.931 . S
H333 C348 0.930 . S
C334 H322 0.930 . S
C334 C335 1.399 . S
C334 C339 1.399 . S
C335 C334 1.399 . S
C335 C336 1.376 1_556 S
C336 H323 0.930 . S
C336 C335 1.376 1_554 S
C336 C337 1.388 . S
C337 H324 0.930 . S
C337 C336 1.388 . S
C337 C338 1.390 . S
C338 C337 1.390 . S
C338 C339 1.394 1_554 S
C338 C344 1.465 1_655 S
C339 C334 1.399 . S
C339 C338 1.394 1_556 S
C339 C340 1.516 1_655 S
C340 C339 1.516 1_455 S
C340 C341 1.502 . S
C340 C342 1.561 1_455 S
C340 C343 1.526 . S
C341 H325 0.959 . S
C341 H326 0.959 . S
C341 H327 0.961 . S
C341 C340 1.502 . S
C342 H328 0.960 . S
C342 H329 0.961 . S
C342 H330 0.959 . S
C342 C340 1.561 1_655 S
C343 C340 1.526 . S
C343 C344 1.396 1_556 S
C343 C348 1.390 . S
C344 C338 1.465 1_455 S
C344 C343 1.396 1_554 S
C344 C345 1.399 . S
C345 H331 0.929 . S
C345 C344 1.399 . S
C345 C346 1.385 . S
C346 H332 0.931 . S
C346 C345 1.385 . S
C346 C347 1.389 . S
C347 C346 1.389 . S
C347 C348 1.387 1_554 S
C348 H333 0.930 . S
C348 C343 1.390 . S
C348 C347 1.387 1_556 S
H349 C361 0.930 . S
H350 C363 0.930 . S
H351 C364 0.930 . S
H352 C368 0.959 . S
H353 C368 0.959 . S
H354 C368 0.961 . S
H355 C369 0.960 . S
H356 C369 0.961 . S
H357 C369 0.959 . S
H358 C372 0.929 . S
H359 C373 0.931 . S
H360 C375 0.930 . S
C361 H349 0.930 . S
C361 C362 1.399 . S
C361 C366 1.399 . S
C362 C361 1.399 . S
C362 C363 1.376 . S
C363 H350 0.930 . S
C363 C362 1.376 . S
C363 C364 1.388 . S
C364 H351 0.930 . S
C364 C363 1.388 . S
C364 C365 1.390 . S
C365 C364 1.390 . S
C365 C366 1.394 . S
C365 C371 1.465 1_455 S
C366 C361 1.399 . S
C366 C365 1.394 . S
C366 C367 1.516 1_455 S
C367 C366 1.516 1_655 S
C367 C368 1.502 . S
C367 C369 1.561 . S
C367 C370 1.526 . S
C368 H352 0.959 . S
C368 H353 0.959 . S
C368 H354 0.961 . S
C368 C367 1.502 . S
C369 H355 0.960 . S
C369 H356 0.961 . S
C369 H357 0.959 . S
C369 C367 1.561 . S
C370 C367 1.526 . S
C370 C371 1.396 . S
C370 C375 1.390 . S
C371 C365 1.465 1_655 S
C371 C370 1.396 . S
C371 C372 1.399 . S
C372 H358 0.929 . S
C372 C371 1.399 . S
C372 C373 1.385 . S
C373 H359 0.931 . S
C373 C372 1.385 . S
C373 C374 1.389 . S
C374 C373 1.389 . S
C374 C375 1.387 . S
C375 H360 0.930 . S
C375 C370 1.390 . S
C375 C374 1.387 . S
H376 C388 0.930 . S
H377 C390 0.930 . S
H378 C391 0.930 . S
H379 C395 0.959 . S
H380 C395 0.959 . S
H381 C395 0.961 . S
H382 C396 0.960 . S
H383 C396 0.961 . S
H384 C396 0.959 . S
H385 C399 0.929 . S
H386 C400 0.931 . S
H387 C402 0.930 . S
C388 H376 0.930 . S
C388 C389 1.399 1_465 S
C388 C393 1.399 . S
C389 C388 1.399 1_645 S
C389 C390 1.376 . S
C390 H377 0.930 . S
C390 C389 1.376 . S
C390 C391 1.388 . S
C391 H378 0.930 . S
C391 C390 1.388 . S
C391 C392 1.390 . S
C392 C391 1.390 . S
C392 C393 1.394 1_645 S
C392 C398 1.465 . S
C393 C388 1.399 . S
C393 C392 1.394 1_465 S
C393 C394 1.516 . S
C394 C393 1.516 . S
C394 C395 1.502 . S
C394 C396 1.561 1_455 S
C394 C397 1.526 . S
C395 H379 0.959 . S
C395 H380 0.959 . S
C395 H381 0.961 . S
C395 C394 1.502 . S
C396 H382 0.960 . S
C396 H383 0.961 . S
C396 H384 0.959 . S
C396 C394 1.561 1_655 S
C397 C394 1.526 . S
C397 C398 1.396 1_465 S
C397 C402 1.390 . S
C398 C392 1.465 . S
C398 C397 1.396 1_645 S
C398 C399 1.399 . S
C399 H385 0.929 . S
C399 C398 1.399 . S
C399 C400 1.385 . S
C400 H386 0.931 . S
C400 C399 1.385 . S
C400 C401 1.389 . S
C401 C400 1.389 . S
C401 C402 1.387 1_645 S
C402 H387 0.930 . S
C402 C397 1.390 . S
C402 C401 1.387 1_465 S
H403 C415 0.930 . S
H404 C417 0.930 . S
H405 C418 0.930 . S
H406 C422 0.959 . S
H407 C422 0.959 . S
H408 C422 0.961 . S
H409 C423 0.960 1_655 S
H410 C423 0.961 1_655 S
H411 C423 0.959 . S
H412 C426 0.929 . S
H413 C427 0.931 . S
H414 C429 0.930 . S
C415 H403 0.930 . S
C415 C416 1.399 1_645 S
C415 C420 1.399 . S
C416 C415 1.399 1_465 S
C416 C417 1.376 . S
C417 H404 0.930 . S
C417 C416 1.376 . S
C417 C418 1.388 . S
C418 H405 0.930 . S
C418 C417 1.388 . S
C418 C419 1.390 . S
C419 C418 1.390 . S
C419 C420 1.394 1_465 S
C419 C425 1.465 . S
C420 C415 1.399 . S
C420 C419 1.394 1_645 S
C420 C421 1.516 . S
C421 C420 1.516 . S
C421 C422 1.502 . S
C421 C423 1.561 1_655 S
C421 C424 1.526 . S
C422 H406 0.959 . S
C422 H407 0.959 . S
C422 H408 0.961 . S
C422 C421 1.502 . S
C423 H409 0.960 1_455 S
C423 H410 0.961 1_455 S
C423 H411 0.959 . S
C423 C421 1.561 1_455 S
C424 C421 1.526 . S
C424 C425 1.396 1_645 S
C424 C429 1.390 . S
C425 C419 1.465 . S
C425 C424 1.396 1_465 S
C425 C426 1.399 . S
C426 H412 0.929 . S
C426 C425 1.399 . S
C426 C427 1.385 . S
C427 H413 0.931 . S
C427 C426 1.385 . S
C427 C428 1.389 . S
C428 C427 1.389 . S
C428 C429 1.387 1_465 S
C429 H414 0.930 . S
C429 C424 1.390 . S
C429 C428 1.387 1_645 S
H430 C442 0.930 . S
H431 C444 0.930 . S
H432 C445 0.930 . S
H433 C449 0.959 . S
H434 C449 0.959 . S
H435 C449 0.961 . S
H436 C450 0.960 . S
H437 C450 0.961 . S
H438 C450 0.959 . S
H439 C453 0.929 . S
H440 C454 0.931 . S
H441 C456 0.930 . S
C442 H430 0.930 . S
C442 C443 1.399 . S
C442 C447 1.399 . S
C443 C442 1.399 . S
C443 C444 1.376 . S
C444 H431 0.930 . S
C444 C443 1.376 . S
C444 C445 1.388 . S
C445 H432 0.930 . S
C445 C444 1.388 . S
C445 C446 1.390 . S
C446 C445 1.390 . S
C446 C447 1.394 . S
C446 C452 1.465 . S
C447 C442 1.399 . S
C447 C446 1.394 . S
C447 C448 1.516 . S
C448 C447 1.516 . S
C448 C449 1.502 . S
C448 C450 1.561 . S
C448 C451 1.526 . S
C449 H433 0.959 . S
C449 H434 0.959 . S
C449 H435 0.961 . S
C449 C448 1.502 . S
C450 H436 0.960 . S
C450 H437 0.961 . S
C450 H438 0.959 . S
C450 C448 1.561 . S
C451 C448 1.526 . S
C451 C452 1.396 . S
C451 C456 1.390 . S
C452 C446 1.465 . S
C452 C451 1.396 . S
C452 C453 1.399 . S
C453 H439 0.929 . S
C453 C452 1.399 . S
C453 C454 1.385 . S
C454 H440 0.931 . S
C454 C453 1.385 . S
C454 C455 1.389 . S
C455 C454 1.389 . S
C455 C456 1.387 . S
C456 H441 0.930 . S
C456 C451 1.390 . S
C456 C455 1.387 . S
H457 C469 0.930 . S
H458 C471 0.930 . S
H459 C472 0.930 . S
H460 C476 0.959 . S
H461 C476 0.959 . S
H462 C476 0.961 . S
H463 C477 0.960 . S
H464 C477 0.961 . S
H465 C477 0.959 . S
H466 C480 0.929 . S
H467 C481 0.931 . S
H468 C483 0.930 . S
C469 H457 0.930 . S
C469 C470 1.399 . S
C469 C474 1.399 . S
C470 C469 1.399 . S
C470 C471 1.376 . S
C471 H458 0.930 . S
C471 C470 1.376 . S
C471 C472 1.388 . S
C472 H459 0.930 . S
C472 C471 1.388 . S
C472 C473 1.390 . S
C473 C472 1.390 . S
C473 C474 1.394 . S
C473 C479 1.465 . S
C474 C469 1.399 . S
C474 C473 1.394 . S
C474 C475 1.516 . S
C475 C474 1.516 . S
C475 C476 1.502 . S
C475 C477 1.561 . S
C475 C478 1.526 . S
C476 H460 0.959 . S
C476 H461 0.959 . S
C476 H462 0.961 . S
C476 C475 1.502 . S
C477 H463 0.960 . S
C477 H464 0.961 . S
C477 H465 0.959 . S
C477 C475 1.561 . S
C478 C475 1.526 . S
C478 C479 1.396 . S
C478 C483 1.390 . S
C479 C473 1.465 . S
C479 C478 1.396 . S
C479 C480 1.399 . S
C480 H466 0.929 . S
C480 C479 1.399 . S
C480 C481 1.385 . S
C481 H467 0.931 . S
C481 C480 1.385 . S
C481 C482 1.389 . S
C482 C481 1.389 . S
C482 C483 1.387 . S
C483 H468 0.930 . S
C483 C478 1.390 . S
C483 C482 1.387 . S
C173 C90 3.552 . S
C185 C19 3.575 1_556 S
C200 C99 3.575 1_556 S
C212 C10 3.553 . S
C227 C55 0.225 . S
C239 C126 0.184 . S
C254 C46 0.138 . S
C266 C135 0.273 . S
C281 C15 1.002 . S
C293 C6 0.823 . S
C308 C59 4.860 1_545 S
C320 C50 4.865 . S
C335 C95 0.837 . S
C347 C86 0.958 . S
C362 C130 4.861 . S
C374 C139 4.862 . S
C389 C49 1.476 1_645 S
C401 C18 1.433 1_655 S
C416 C9 1.452 1_455 S
C428 C58 1.479 1_465 S
C443 C129 1.477 . S
C455 C98 1.433 . S
C470 C138 1.403 . S
C482 C89 1.446 . S
