# Generated by pormake.
# Topology svj, (7)-cn, num edge types: 1
# Building blocks:
#     Node 0, Type 0, BuildingBlock: HICVOG_clean_sbu_0, # of connection points: 7
#     Node 1, Type 0, BuildingBlock: HICVOG_clean_sbu_0, # of connection points: 7
#     Node 2, Type 0, BuildingBlock: HICVOG_clean_sbu_0, # of connection points: 7
#     Node 3, Type 0, BuildingBlock: HICVOG_clean_sbu_0, # of connection points: 7
#     Node 4, Type 0, BuildingBlock: HICVOG_clean_sbu_0, # of connection points: 7
#     Node 5, Type 0, BuildingBlock: HICVOG_clean_sbu_0, # of connection points: 7
#     Edge 6, Type (0, 0), BuildingBlock: XIVTED_clean_linker_0, # of connection points: 2
#     Edge 7, Type (0, 0), BuildingBlock: XIVTED_clean_linker_0, # of connection points: 2
#     Edge 8, Type (0, 0), BuildingBlock: XIVTED_clean_linker_0, # of connection points: 2
#     Edge 9, Type (0, 0), BuildingBlock: XIVTED_clean_linker_0, # of connection points: 2
#     Edge 10, Type (0, 0), BuildingBlock: XIVTED_clean_linker_0, # of connection points: 2
#     Edge 11, Type (0, 0), BuildingBlock: XIVTED_clean_linker_0, # of connection points: 2
#     Edge 12, Type (0, 0), BuildingBlock: XIVTED_clean_linker_0, # of connection points: 2
#     Edge 13, Type (0, 0), BuildingBlock: XIVTED_clean_linker_0, # of connection points: 2
#     Edge 14, Type (0, 0), BuildingBlock: XIVTED_clean_linker_0, # of connection points: 2
#     Edge 15, Type (0, 0), BuildingBlock: XIVTED_clean_linker_0, # of connection points: 2
#     Edge 16, Type (0, 0), BuildingBlock: XIVTED_clean_linker_0, # of connection points: 2
#     Edge 17, Type (0, 0), BuildingBlock: XIVTED_clean_linker_0, # of connection points: 2
#     Edge 18, Type (0, 0), BuildingBlock: XIVTED_clean_linker_0, # of connection points: 2
#     Edge 19, Type (0, 0), BuildingBlock: XIVTED_clean_linker_0, # of connection points: 2
#     Edge 20, Type (0, 0), BuildingBlock: XIVTED_clean_linker_0, # of connection points: 2
#     Edge 21, Type (0, 0), BuildingBlock: XIVTED_clean_linker_0, # of connection points: 2
#     Edge 22, Type (0, 0), BuildingBlock: XIVTED_clean_linker_0, # of connection points: 2
#     Edge 23, Type (0, 0), BuildingBlock: XIVTED_clean_linker_0, # of connection points: 2
#     Edge 24, Type (0, 0), BuildingBlock: XIVTED_clean_linker_0, # of connection points: 2
#     Edge 25, Type (0, 0), BuildingBlock: XIVTED_clean_linker_0, # of connection points: 2
#     Edge 26, Type (0, 0), BuildingBlock: XIVTED_clean_linker_0, # of connection points: 2
# Relax obj value: 0.274
# Max RMSD: 0.258
# Mean RMSD: 0.241
data_MOF--net-svj--node1-HICVOG_clean_sbu_0--edge1-XIVTED_clean_linker_0
_symmetry_space_group_name_H-M    P1
_symmetry_Int_Tables_number       1
_symmetry_cell_setting            triclinic
loop_
_symmetry_equiv_pos_as_xyz
'x, y, z'
_cell_length_a     41.112991
_cell_length_b     41.118605
_cell_length_c     20.493827
_cell_angle_alpha  89.975029
_cell_angle_beta   89.918805
_cell_angle_gamma 119.8166
loop_
_atom_site_label
_atom_site_type_symbol
_atom_site_fract_x
_atom_site_fract_y
_atom_site_fract_z
_atom_type_partial_charge
Zn0 Zn 0.19604 0.44016 0.96299 0.0
C1 C 0.11294 0.44567 0.05404 0.0
N2 N 0.12116 0.47332 0.01093 0.0
C3 C 0.15236 0.47762 0.98171 0.0
N4 N 0.16255 0.45344 0.00596 0.0
N5 N 0.13834 0.43398 0.05249 0.0
C6 C 0.07003 0.34686 0.10136 0.0
O7 O 0.08328 0.35246 0.04154 0.0
O8 O 0.24235 0.48576 0.92856 0.0
Zn9 Zn 0.14461 0.40522 0.12103 0.0
N10 N 0.16805 0.40745 0.89268 0.0
C11 C 0.12167 0.34648 0.85916 0.0
C12 C 0.14331 0.37124 0.90812 0.0
C13 C 0.17226 0.4201 0.83033 0.0
N14 N 0.12597 0.35891 0.79668 0.0
C15 C 0.15089 0.39509 0.78041 0.0
O16 O 0.17909 0.38337 0.10442 0.0
C17 C 0.20584 0.38953 0.06556 0.0
O18 O 0.21363 0.41102 0.01643 0.0
H19 H 0.1404 0.36185 0.95817 0.0
H20 H 0.19163 0.44935 0.8205 0.0
C21 C 0.16036 0.4309 0.25448 0.0
C22 C 0.18004 0.45779 0.30309 0.0
C23 C 0.21543 0.50211 0.22063 0.0
C24 C 0.19617 0.4753 0.17294 0.0
N25 N 0.16889 0.44042 0.19071 0.0
N26 N 0.20707 0.49272 0.28434 0.0
H27 H 0.13933 0.40249 0.2666 0.0
C28 C 0.26713 0.50445 0.97109 0.0
O29 O 0.26076 0.49348 0.03229 0.0
O30 O 0.09222 0.36524 0.14763 0.0
H31 H 0.20291 0.48215 0.12205 0.0
H32 H 0.10169 0.31758 0.87061 0.0
H33 H 0.23712 0.53005 0.20726 0.0
Zn34 Zn 0.64573 0.11176 0.27229 0.0
C35 C 0.71229 0.21405 0.23669 0.0
N36 N 0.68651 0.21819 0.27058 0.0
C37 C 0.65582 0.18411 0.26689 0.0
N38 N 0.663 0.16016 0.23348 0.0
N39 N 0.6978 0.17918 0.21152 0.0
C40 C 0.79125 0.1979 0.17192 0.0
O41 O 0.77682 0.18564 0.23003 0.0
O42 O 0.58985 0.08634 0.28679 0.0
Zn43 Zn 0.71275 0.16218 0.13353 0.0
N44 N 0.67523 0.11884 0.35114 0.0
C45 C 0.73545 0.13029 0.38415 0.0
C46 C 0.70984 0.12472 0.33536 0.0
C47 C 0.66509 0.11854 0.41486 0.0
N48 N 0.72552 0.12979 0.44729 0.0
C49 C 0.69113 0.12413 0.46501 0.0
O50 O 0.69585 0.106 0.13407 0.0
C51 C 0.67389 0.07655 0.16645 0.0
O52 O 0.65518 0.07754 0.21518 0.0
H53 H 0.71738 0.12496 0.28475 0.0
H54 H 0.63725 0.11354 0.42596 0.0
C55 C 0.69008 0.15933 0.99601 0.0
C56 C 0.67206 0.16706 0.94422 0.0
C57 C 0.65401 0.19946 0.01901 0.0
C58 C 0.67189 0.19197 0.06938 0.0
N59 N 0.68957 0.17205 0.05749 0.0
N60 N 0.65453 0.18695 0.95815 0.0
H61 H 0.70383 0.14307 0.98825 0.0
C62 C 0.57303 0.08386 0.23343 0.0
O63 O 0.59306 0.09729 0.18002 0.0
O64 O 0.76939 0.19118 0.1236 0.0
H65 H 0.67166 0.20218 0.11769 0.0
H66 H 0.76307 0.13495 0.37204 0.0
H67 H 0.63981 0.21521 0.02814 0.0
Zn68 Zn 0.60352 0.7401 0.09716 0.0
C69 C 0.52936 0.67759 0.95896 0.0
N70 N 0.53361 0.65034 0.98695 0.0
C71 C 0.56189 0.66933 0.0289 0.0
N72 N 0.57397 0.70637 0.02806 0.0
N73 N 0.5541 0.71167 0.98302 0.0
C74 C 0.50312 0.76348 0.95292 0.0
O75 O 0.51423 0.76562 0.01365 0.0
O76 O 0.64509 0.72862 0.11701 0.0
Zn77 Zn 0.56785 0.75873 0.941 0.0
N78 N 0.56958 0.72657 0.17036 0.0
C79 C 0.50738 0.70657 0.20605 0.0
C80 C 0.53352 0.7165 0.15602 0.0
C81 C 0.58092 0.72804 0.23314 0.0
N82 N 0.51859 0.70811 0.2687 0.0
C83 C 0.55477 0.71891 0.28422 0.0
O84 O 0.59599 0.80436 0.99702 0.0
C85 C 0.61686 0.81721 0.04695 0.0
O86 O 0.62321 0.79621 0.08441 0.0
H87 H 0.52513 0.71606 0.10598 0.0
H88 H 0.60984 0.73616 0.2426 0.0
C89 C 0.59129 0.7564 0.8082 0.0
C90 C 0.61826 0.76143 0.76071 0.0
C91 C 0.66479 0.78262 0.84349 0.0
C92 C 0.63804 0.7776 0.89006 0.0
N93 N 0.60196 0.76468 0.87158 0.0
N94 N 0.65434 0.77455 0.78018 0.0
H95 H 0.5624 0.74673 0.79537 0.0
C96 C 0.66304 0.72546 0.06905 0.0
O97 O 0.65622 0.73312 0.01011 0.0
O98 O 0.52223 0.75988 0.90767 0.0
H99 H 0.64589 0.78402 0.94073 0.0
H100 H 0.47849 0.6981 0.19531 0.0
H101 H 0.69365 0.79294 0.85742 0.0
Zn102 Zn 0.88892 0.52618 0.24462 0.0
C103 C 0.79514 0.49357 0.14413 0.0
N104 N 0.79225 0.45948 0.14441 0.0
C105 C 0.82514 0.46645 0.17004 0.0
N106 N 0.84657 0.50266 0.18666 0.0
N107 N 0.8288 0.52013 0.16667 0.0
C108 C 0.81457 0.59676 0.12929 0.0
O109 O 0.82476 0.59343 0.18843 0.0
O110 O 0.9104 0.4917 0.2552 0.0
Zn111 Zn 0.85689 0.56112 0.10723 0.0
N112 N 0.87094 0.53796 0.32418 0.0
C113 C 0.8428 0.57346 0.35906 0.0
C114 C 0.85808 0.56183 0.3102 0.0
C115 C 0.87033 0.52598 0.38659 0.0
N116 N 0.84192 0.56157 0.42093 0.0
C117 C 0.85546 0.53838 0.43696 0.0
O118 O 0.90679 0.60151 0.14184 0.0
C119 C 0.93367 0.60383 0.17632 0.0
O120 O 0.93025 0.57654 0.21114 0.0
H121 H 0.85988 0.5718 0.26096 0.0
H122 H 0.88096 0.50713 0.39648 0.0
C123 C 0.86242 0.53991 0.96977 0.0
C124 C 0.87649 0.52444 0.92329 0.0
C125 C 0.9063 0.51009 0.0089 0.0
C126 C 0.89317 0.52603 0.05392 0.0
N127 N 0.8711 0.54014 0.03416 0.0
N128 N 0.89782 0.50983 0.9451 0.0
H129 H 0.84587 0.55247 0.95527 0.0
C130 C 0.94259 0.50267 0.27961 0.0
O131 O 0.96065 0.53612 0.3062 0.0
O132 O 0.82528 0.58457 0.08152 0.0
H133 H 0.90095 0.52749 0.10455 0.0
H134 H 0.83209 0.59213 0.34812 0.0
H135 H 0.92359 0.4985 0.02432 0.0
Zn136 Zn 0.27454 0.86564 0.13454 0.0
C137 C 0.33281 0.85609 0.98484 0.0
N138 N 0.36047 0.88808 0.01024 0.0
C139 C 0.34259 0.89631 0.0566 0.0
N140 N 0.30601 0.87035 0.06074 0.0
N141 N 0.29968 0.84552 0.01452 0.0
C142 C 0.24541 0.7415 0.98429 0.0
O143 O 0.24471 0.74954 0.04616 0.0
O144 O 0.28678 0.91815 0.15971 0.0
Zn145 Zn 0.25185 0.81265 0.97548 0.0
N146 N 0.28931 0.84431 0.20447 0.0
C147 C 0.31234 0.80422 0.23838 0.0
C148 C 0.30215 0.82057 0.18887 0.0
C149 C 0.2855 0.85187 0.26768 0.0
N150 N 0.30839 0.81156 0.30154 0.0
C151 C 0.2949 0.83473 0.3181 0.0
O152 O 0.20758 0.7972 0.03437 0.0
C153 C 0.19615 0.80478 0.08674 0.0
O154 O 0.2183 0.83065 0.12526 0.0
H155 H 0.30456 0.8145 0.13836 0.0
H156 H 0.27535 0.87107 0.27792 0.0
C157 C 0.25341 0.83636 0.84232 0.0
C158 C 0.24858 0.85766 0.79338 0.0
C159 C 0.2288 0.88555 0.87428 0.0
C160 C 0.23373 0.8645 0.92238 0.0
N161 N 0.24574 0.8403 0.90545 0.0
N162 N 0.23621 0.88158 0.81118 0.0
H163 H 0.2625 0.81646 0.83082 0.0
C164 C 0.28834 0.94039 0.11509 0.0
O165 O 0.27869 0.92749 0.05543 0.0
O166 O 0.24898 0.76529 0.94125 0.0
H167 H 0.22797 0.86729 0.97295 0.0
H168 H 0.32294 0.78553 0.22679 0.0
H169 H 0.21913 0.90487 0.88689 0.0
Zn170 Zn 0.46064 0.29821 0.14063 0.0
C171 C 0.54214 0.36321 0.2606 0.0
N172 N 0.54674 0.33352 0.27145 0.0
C173 C 0.51585 0.30491 0.24483 0.0
N174 N 0.49365 0.31665 0.21705 0.0
N175 N 0.50914 0.35267 0.23102 0.0
C176 C 0.51677 0.44052 0.22596 0.0
O177 O 0.50769 0.41882 0.17434 0.0
O178 O 0.43557 0.24163 0.13406 0.0
Zn179 Zn 0.47766 0.36877 0.27281 0.0
N180 N 0.49239 0.3202 0.06243 0.0
C181 C 0.55478 0.35204 0.02082 0.0
C182 C 0.52984 0.33502 0.0721 0.0
C183 C 0.47883 0.32133 1.00195 0.0
N184 N 0.54143 0.35322 0.96105 0.0
C185 C 0.50413 0.33829 0.9491 0.0
O186 O 0.43194 0.35567 0.21895 0.0
C187 C 0.41157 0.33523 0.17238 0.0
O188 O 0.41955 0.31323 0.14086 0.0
H189 H 0.54056 0.33392 0.1195 0.0
H190 H 0.44896 0.30961 0.99565 0.0
C191 C 0.4677 0.35137 0.4177 0.0
C192 C 0.44892 0.32516 0.4687 0.0
C193 C 0.41369 0.2787 0.38918 0.0
C194 C 0.43197 0.30445 0.33961 0.0
N195 N 0.45844 0.3402 0.35419 0.0
N196 N 0.42248 0.28963 0.452 0.0
H197 H 0.48867 0.38005 0.4281 0.0
C198 C 0.42115 0.21943 0.18223 0.0
O199 O 0.42263 0.23332 0.24055 0.0
O200 O 0.50619 0.42535 0.28187 0.0
H201 H 0.425 0.2961 0.28927 0.0
H202 H 0.58463 0.36417 0.02837 0.0
H203 H 0.39255 0.25019 0.37791 0.0
H204 H 0.37089 0.35328 0.25446 0.0
H205 H 0.2498 0.37764 0.97947 0.0
H206 H 0.3739 0.32129 0.05505 0.0
H207 H 0.21899 0.36582 0.18302 0.0
H208 H 0.29623 0.35874 0.00464 0.0
H209 H 0.31674 0.36018 0.22841 0.0
C210 C 0.36008 0.34759 0.2051 0.0
C211 C 0.37717 0.33692 0.15672 0.0
C212 C 0.27899 0.35981 0.04365 0.0
C213 C 0.31508 0.34512 0.12644 0.0
C214 C 0.25251 0.37068 0.02941 0.0
C215 C 0.23051 0.37348 0.07929 0.0
C216 C 0.28416 0.35239 0.10849 0.0
C217 C 0.2352 0.36396 0.143 0.0
C218 C 0.32898 0.35134 0.1904 0.0
C219 C 0.36161 0.32956 0.09382 0.0
N220 N 0.26187 0.35438 0.1559 0.0
N221 N 0.33174 0.3343 0.08024 0.0
H222 H 0.01548 0.30893 0.01072 0.0
H223 H 0.84558 0.22466 0.26636 0.0
H224 H 0.03125 0.33093 0.21756 0.0
H225 H 0.83098 0.22113 0.05746 0.0
H226 H 0.91358 0.26017 0.25061 0.0
H227 H 0.94798 0.27281 0.02824 0.0
C228 C 1.0048 0.30596 0.06 0.0
C229 C 0.02919 0.32293 0.1128 0.0
C230 C 0.89549 0.25163 0.20825 0.0
C231 C 0.95152 0.28157 0.13316 0.0
C232 C 0.85664 0.23128 0.21716 0.0
C233 C 0.83248 0.21975 0.16311 0.0
C234 C 0.91037 0.26032 0.14481 0.0
C235 C 0.84847 0.22937 0.10056 0.0
C236 C 0.96614 0.28543 0.0699 0.0
C237 C 0.01355 0.3182 0.17545 0.0
N238 N 0.88635 0.24894 0.09316 0.0
N239 N 0.9757 0.29794 0.18391 0.0
H240 H 0.62919 0.87429 0.96387 0.0
H241 H 0.65268 0.01599 0.24573 0.0
H242 H 0.6388 0.85172 0.16643 0.0
H243 H 0.68713 0.05343 0.04791 0.0
H244 H 0.64432 0.95472 0.2168 0.0
H245 H 0.64781 0.93903 0.99233 0.0
C246 C 0.63555 0.88304 0.01431 0.0
C247 C 0.63228 0.85744 0.06292 0.0
C248 C 0.65396 0.97638 0.17978 0.0
C249 C 0.65307 0.93148 0.09586 0.0
C250 C 0.65853 0.01135 0.1961 0.0
C251 C 0.67042 0.0399 0.14903 0.0
C252 C 0.66062 0.96944 0.11552 0.0
C253 C 0.67793 0.03227 0.08572 0.0
C254 C 0.64627 0.92005 0.03042 0.0
C255 C 0.64105 0.87047 0.12736 0.0
N256 N 0.67246 0.99761 0.07059 0.0
N257 N 0.65053 0.90642 0.14208 0.0
H258 H 0.78069 0.61659 0.22313 0.0
H259 H 0.7018 0.71128 0.97528 0.0
H260 H 0.79575 0.61828 0.01443 0.0
H261 H 0.67876 0.70006 0.18213 0.0
H262 H 0.73803 0.67936 0.98877 0.0
H263 H 0.7446 0.64842 0.20887 0.0
C264 C 0.77642 0.62366 0.17416 0.0
C265 C 0.79149 0.61488 0.11986 0.0
C266 C 0.72517 0.68398 0.03125 0.0
C267 C 0.75004 0.65161 0.10323 0.0
C268 C 0.70459 0.70239 0.02369 0.0
C269 C 0.68733 0.70859 0.07775 0.0
C270 C 0.72866 0.67165 0.09337 0.0
C271 C 0.69176 0.69615 0.13914 0.0
C272 C 0.75572 0.64185 0.1661 0.0
C273 C 0.7847 0.62452 0.05766 0.0
N274 N 0.71195 0.67828 0.14524 0.0
N275 N 0.7646 0.64251 0.05106 0.0
H276 H 0.13692 0.77298 0.00361 0.0
H277 H 0.99477 0.62746 0.25708 0.0
H278 H 0.16449 0.78219 0.20822 0.0
H279 H 0.95787 0.65823 0.08237 0.0
H280 H 0.05781 0.68125 0.24003 0.0
H281 H 0.07167 0.72812 0.03038 0.0
C282 C 0.12909 0.76581 0.0543 0.0
C283 C 0.15607 0.78129 0.1038 0.0
C284 C 0.03571 0.6764 0.20603 0.0
C285 C 0.0816 0.72933 0.13468 0.0
C286 C 0.99978 0.64567 0.21554 0.0
C287 C 0.97096 0.63817 0.17094 0.0
C288 C 0.04302 0.69929 0.15083 0.0
C289 C 0.97911 0.66284 0.11809 0.0
C290 C 0.09186 0.74028 0.06956 0.0
C291 C 0.14444 0.77104 0.1687 0.0
N292 N 0.01445 0.69192 0.10903 0.0
N293 N 0.10811 0.74518 0.18226 0.0
H294 H 0.31436 0.9778 0.23137 0.0
H295 H 0.40433 0.18103 0.06667 0.0
H296 H 0.30332 0.99615 0.02715 0.0
H297 H 0.39465 0.16402 0.27523 0.0
H298 H 0.37142 0.11317 0.05129 0.0
H299 H 0.34718 0.04575 0.24861 0.0
C300 C 0.3185 0.99605 0.19029 0.0
C301 C 0.3058 0.98117 0.12778 0.0
C302 C 0.37644 0.12425 0.10045 0.0
C303 C 0.34381 0.05896 0.14703 0.0
C304 C 0.39537 0.16304 0.10929 0.0
C305 C 0.40214 0.1783 0.17236 0.0
C306 C 0.36438 0.10038 0.15504 0.0
C307 C 0.38986 0.15351 0.22571 0.0
C308 C 0.33733 0.03484 0.20015 0.0
C309 C 0.31235 0.00625 0.07627 0.0
N310 N 0.37162 0.11579 0.21585 0.0
N311 N 0.331 0.04383 0.087 0.0
H312 H 0.21297 0.45122 0.71722 0.0
H313 H 0.11535 0.40517 0.36632 0.0
H314 H 0.09824 0.36476 0.68439 0.0
H315 H 0.23007 0.49094 0.40165 0.0
H316 H 0.10767 0.39109 0.48284 0.0
H317 H 0.21855 0.46773 0.60229 0.0
C318 C 0.18868 0.43605 0.68631 0.0
C319 C 0.15484 0.40679 0.71106 0.0
C320 C 0.13452 0.41296 0.46498 0.0
C321 C 0.1615 0.42509 0.57836 0.0
C322 C 0.13907 0.42083 0.39822 0.0
C323 C 0.17368 0.44891 0.37369 0.0
C324 C 0.16472 0.43334 0.50752 0.0
C325 C 0.20289 0.46902 0.41814 0.0
C326 C 0.19205 0.44531 0.62028 0.0
C327 C 0.12487 0.38747 0.66756 0.0
N328 N 0.1978 0.46074 0.48272 0.0
N329 N 0.12891 0.39694 0.60336 0.0
H330 H 0.72519 0.10974 0.56596 0.0
H331 H 0.62341 0.16077 0.84784 0.0
H332 H 0.64027 0.13997 0.52809 0.0
H333 H 0.7194 0.14651 0.88063 0.0
H334 H 0.62458 0.14655 0.73288 0.0
H335 H 0.71835 0.11616 0.68236 0.0
C336 C 0.70485 0.11751 0.58189 0.0
C337 C 0.68337 0.12438 0.53629 0.0
C338 C 0.64522 0.14627 0.76529 0.0
C339 C 0.67544 0.13182 0.67106 0.0
C340 C 0.64468 0.15444 0.8313 0.0
C341 C 0.67136 0.15496 0.87504 0.0
C342 C 0.67264 0.13843 0.74197 0.0
C343 C 0.69788 0.14612 0.84986 0.0
C344 C 0.701 0.12115 0.64872 0.0
C345 C 0.65725 0.13396 0.56075 0.0
N346 N 0.6979 0.13841 0.78514 0.0
N347 N 0.6542 0.13758 0.62635 0.0
H348 H 0.66532 0.79348 0.65743 0.0
H349 H 0.50973 0.68003 0.38657 0.0
H350 H 0.55065 0.71114 0.70288 0.0
H351 H 0.6234 0.76543 0.34215 0.0
H352 H 0.52505 0.68857 0.50249 0.0
H353 H 0.65118 0.781 0.54175 0.0
C354 C 0.63712 0.77279 0.64323 0.0
C355 C 0.60906 0.75379 0.69034 0.0
C356 C 0.54671 0.7052 0.46733 0.0
C357 C 0.59268 0.73928 0.55735 0.0
C358 C 0.53801 0.70036 0.40103 0.0
C359 C 0.56531 0.72181 0.35411 0.0
C360 C 0.58298 0.73189 0.48719 0.0
C361 C 0.60151 0.74765 0.37599 0.0
C362 C 0.62907 0.76572 0.57701 0.0
C363 C 0.57304 0.72726 0.66867 0.0
N364 N 0.6092 0.75205 0.44091 0.0
N365 N 0.56591 0.72085 0.60377 0.0
H366 H 0.82022 0.52908 0.85466 0.0
H367 H 0.90424 0.52225 0.50437 0.0
H368 H 0.91906 0.51895 0.82677 0.0
H369 H 0.80648 0.53425 0.53047 0.0
H370 H 0.90702 0.51593 0.62255 0.0
H371 H 0.81274 0.52798 0.7362 0.0
C372 C 0.84057 0.52698 0.82409 0.0
C373 C 0.87059 0.52449 0.85145 0.0
C374 C 0.88473 0.51959 0.6023 0.0
C375 C 0.86164 0.52246 0.71529 0.0
C376 C 0.88289 0.52278 0.53457 0.0
C377 C 0.85507 0.52882 0.50708 0.0
C378 C 0.85867 0.52254 0.64293 0.0
C379 C 0.82866 0.52999 0.54936 0.0
C380 C 0.83604 0.52599 0.75622 0.0
C381 C 0.89537 0.52085 0.8085 0.0
N382 N 0.83124 0.52714 0.61496 0.0
N383 N 0.8904 0.52005 0.74294 0.0
H384 H 0.33248 0.828 0.42223 0.0
H385 H 0.21594 0.87048 0.68849 0.0
H386 H 0.24477 0.8529 0.37487 0.0
H387 H 0.29853 0.83878 0.73784 0.0
H388 H 0.22815 0.86659 0.57322 0.0
H389 H 0.32213 0.83395 0.53788 0.0
C390 C 0.31121 0.83495 0.43594 0.0
C391 C 0.28986 0.8404 0.38822 0.0
C392 C 0.2435 0.86033 0.60924 0.0
C393 C 0.27776 0.8471 0.52096 0.0
C394 C 0.23661 0.86262 0.67521 0.0
C395 C 0.25582 0.85448 0.7233 0.0
C396 C 0.27004 0.85006 0.59082 0.0
C397 C 0.2823 0.84444 0.70285 0.0
C398 C 0.30534 0.83835 0.50209 0.0
C399 C 0.26268 0.84933 0.40925 0.0
N400 N 0.28861 0.84254 0.63817 0.0
N401 N 0.25742 0.85234 0.47395 0.0
H402 H 0.51403 0.37847 0.53147 0.0
H403 H 0.43544 0.29358 0.88722 0.0
H404 H 0.4006 0.29055 0.5695 0.0
H405 H 0.54655 0.38707 0.85282 0.0
H406 H 0.421 0.29497 0.772 0.0
H407 H 0.5254 0.38514 0.64946 0.0
C408 C 0.4913 0.36102 0.56428 0.0
C409 C 0.45628 0.33379 0.53988 0.0
C410 C 0.44845 0.31541 0.78987 0.0
C411 C 0.46938 0.34085 0.67549 0.0
C412 C 0.45667 0.31483 0.85615 0.0
C413 C 0.49239 0.34025 0.88064 0.0
C414 C 0.4761 0.34144 0.7473 0.0
C415 C 0.51873 0.36659 0.8366 0.0
C416 C 0.4979 0.36464 0.63186 0.0
C417 C 0.42821 0.31165 0.58553 0.0
N418 N 0.51017 0.36634 0.77242 0.0
N419 N 0.43542 0.31549 0.65064 0.0
H420 H 0.21651 0.7009 0.87188 0.0
H421 H 0.22026 0.52608 0.02923 0.0
H422 H 0.26717 0.70003 0.05551 0.0
H423 H 0.14168 0.51441 0.88009 0.0
H424 H 0.25445 0.59333 0.01144 0.0
H425 H 0.204 0.63673 0.85098 0.0
C426 C 0.22559 0.68744 0.90714 0.0
C427 C 0.24221 0.70533 0.96608 0.0
C428 C 0.23054 0.57609 0.98075 0.0
C429 C 0.22864 0.63272 0.94214 0.0
C430 C 0.21165 0.53743 0.9896 0.0
C431 C 0.17909 0.51444 0.95413 0.0
C432 C 0.21591 0.59215 0.93782 0.0
C433 C 0.16723 0.5312 0.90732 0.0
C434 C 0.21843 0.65093 0.89523 0.0
C435 C 0.25359 0.68688 0.01007 0.0
N436 N 0.18529 0.56922 0.9012 0.0
N437 N 0.24639 0.65155 0.99739 0.0
H438 H 0.50308 0.25975 0.34744 0.0
H439 H 0.60716 0.16648 0.16591 0.0
H440 H 0.52303 0.26705 0.14033 0.0
H441 H 0.62207 0.19908 0.36815 0.0
H442 H 0.55581 0.18017 0.15854 0.0
H443 H 0.52408 0.21373 0.35572 0.0
C444 C 0.5102 0.25023 0.30317 0.0
C445 C 0.51135 0.26713 0.24313 0.0
C446 C 0.56945 0.18313 0.20509 0.0
C447 C 0.53675 0.21563 0.25253 0.0
C448 C 0.59846 0.17482 0.20965 0.0
C449 C 0.61846 0.18102 0.26816 0.0
C450 C 0.56048 0.19791 0.2594 0.0
C451 C 0.60703 0.19348 0.32246 0.0
C452 C 0.52266 0.22437 0.30808 0.0
C453 C 0.52153 0.25449 0.18744 0.0
N454 N 0.57901 0.20184 0.31664 0.0
N455 N 0.53461 0.22999 0.19362 0.0
H456 H 0.3056 0.56693 0.04432 0.0
H457 H 0.49327 0.63427 0.85313 0.0
H458 H 0.30822 0.51951 0.85819 0.0
H459 H 0.47998 0.69375 0.01407 0.0
H460 H 0.42483 0.59883 0.84043 0.0
H461 H 0.36766 0.61997 0.02253 0.0
C462 C 0.31927 0.56795 0.9985 0.0
C463 C 0.30223 0.53863 0.95347 0.0
C464 C 0.43699 0.62091 0.87656 0.0
C465 C 0.37374 0.59894 0.92842 0.0
C466 C 0.47604 0.64138 0.88327 0.0
C467 C 0.49233 0.66801 0.93313 0.0
C468 C 0.41431 0.62653 0.92137 0.0
C469 C 0.46879 0.67505 0.97286 0.0
C470 C 0.35465 0.59834 0.98579 0.0
C471 C 0.32073 0.54155 0.89433 0.0
N472 N 0.43105 0.65408 0.96681 0.0
N473 N 0.35597 0.5708 0.88405 0.0
H474 H 0.8433 0.43067 0.07922 0.0
H475 H 0.7441 0.24274 0.11718 0.0
H476 H 0.82346 0.43253 0.28501 0.0
H477 H 0.76208 0.26127 0.32384 0.0
H478 H 0.79115 0.30777 0.09761 0.0
H479 H 0.8346 0.36769 0.0907 0.0
C480 C 0.83821 0.41803 0.12728 0.0
C481 C 0.83381 0.43637 0.18125 0.0
C482 C 0.78629 0.29764 0.1473 0.0
C483 C 0.82097 0.36338 0.19429 0.0
C484 C 0.75926 0.26013 0.15828 0.0
C485 C 0.74907 0.24685 0.22213 0.0
C486 C 0.80271 0.32195 0.20089 0.0
C487 C 0.76914 0.27071 0.2738 0.0
C488 C 0.8325 0.38174 0.13371 0.0
C489 C 0.82706 0.4191 0.24234 0.0
N490 N 0.79436 0.30728 0.26219 0.0
N491 N 0.82007 0.38319 0.247 0.0
H492 H 0.43998 0.73408 0.02602 0.0
H493 H 0.37468 0.86726 0.87475 0.0
H494 H 0.48842 0.79637 0.84908 0.0
H495 H 0.31729 0.78858 0.02971 0.0
H496 H 0.40864 0.83379 0.849 0.0
H497 H 0.38721 0.74487 0.01375 0.0
C498 C 0.43918 0.74973 0.98408 0.0
C499 C 0.46874 0.76494 0.9391 0.0
C500 C 0.38736 0.82282 0.88673 0.0
C501 C 0.40884 0.77832 0.9253 0.0
C502 C 0.36777 0.84173 0.90096 0.0
C503 C 0.34216 0.82977 0.95291 0.0
C504 C 0.38188 0.79245 0.92607 0.0
C505 C 0.33521 0.79748 0.98714 0.0
C506 C 0.40898 0.75582 0.97685 0.0
C507 C 0.46616 0.78445 0.88503 0.0
N508 N 0.35532 0.78031 0.9738 0.0
N509 N 0.43711 0.7914 0.88039 0.0
H510 H 0.77567 0.52179 0.24733 0.0
H511 H 0.56047 0.40382 0.14839 0.0
H512 H 0.73547 0.46721 0.06181 0.0
H513 H 0.60167 0.40378 0.34157 0.0
H514 H 0.62327 0.45205 0.11566 0.0
H515 H 0.71118 0.50371 0.27814 0.0
C516 C 0.75352 0.50768 0.21178 0.0
C517 C 0.76076 0.49599 0.1518 0.0
C518 C 0.61826 0.44251 0.16587 0.0
C519 C 0.68724 0.47498 0.18706 0.0
C520 C 0.58228 0.41529 0.18497 0.0
C521 C 0.57572 0.40005 0.24815 0.0
C522 C 0.64793 0.45466 0.21029 0.0
C523 C 0.60554 0.41503 0.2926 0.0
C524 C 0.71673 0.49699 0.22977 0.0
C525 C 0.73094 0.47683 0.10832 0.0
N526 N 0.64053 0.44126 0.27264 0.0
N527 N 0.69536 0.46652 0.12706 0.0
H528 H 0.91856 0.43908 0.20553 0.0
H529 H 0.12579 0.47238 0.17786 0.0
H530 H 0.01227 0.51848 0.32113 0.0
H531 H 0.03722 0.4045 0.04394 0.0
H532 H 0.08001 0.47489 0.2505 0.0
H533 H 0.95679 0.41286 0.16571 0.0
C534 C 0.94693 0.45056 0.2236 0.0
C535 C 0.96248 0.4816 0.2658 0.0
C536 C 0.07028 0.45843 0.20626 0.0
C537 C 1.00643 0.45172 0.22004 0.0
C538 C 0.09641 0.45638 0.1654 0.0
C539 C 0.08507 0.43739 0.1058 0.0
C540 C 0.03267 0.44214 0.18646 0.0
C541 C 0.04687 0.419 0.09006 0.0
C542 C 0.96877 0.43559 0.20066 0.0
C543 C 0.99928 0.49498 0.28787 0.0
N544 N 0.02204 0.42221 0.12973 0.0
N545 N 0.02013 0.48033 0.26404 0.0
H546 H 0.52205 0.02608 0.31022 0.0
H547 H 0.36811 0.96973 0.03395 0.0
H548 H 0.53049 0.09463 0.14463 0.0
H549 H 0.36623 0.89317 0.17918 0.0
H550 H 0.41685 0.02208 0.09602 0.0
H551 H 0.45564 0.98411 0.28432 0.0
C552 C 0.50966 0.0328 0.26948 0.0
C553 C 0.53182 0.06325 0.2285 0.0
C554 C 0.40515 0.99395 0.11539 0.0
C555 C 0.45635 0.01565 0.19863 0.0
C556 C 0.37721 0.96419 0.08017 0.0
C557 C 0.36306 0.92739 0.10217 0.0
C558 C 0.41992 0.98657 0.17168 0.0
C559 C 0.376 0.92132 0.16154 0.0
C560 C 0.47185 0.00881 0.25457 0.0
C561 C 0.51449 0.07088 0.17652 0.0
N562 N 0.40428 0.9506 0.19379 0.0
N563 N 0.47794 0.04696 0.16254 0.0
H564 H 0.51149 0.49407 0.29835 0.0
H565 H 0.61042 0.6436 0.01302 0.0
H566 H 0.56707 0.47997 0.1312 0.0
H567 H 0.53298 0.64696 0.15062 0.0
H568 H 0.61213 0.59467 0.07861 0.0
H569 H 0.53554 0.55984 0.26637 0.0
C570 C 0.52952 0.5051 0.25597 0.0
C571 C 0.53679 0.48154 0.2166 0.0
C572 C 0.59558 0.60684 0.09562 0.0
C573 C 0.56434 0.55626 0.18 0.0
C574 C 0.59494 0.63499 0.05853 0.0
C575 C 0.57211 0.64966 0.07734 0.0
C576 C 0.57226 0.59253 0.15078 0.0
C577 C 0.55166 0.63694 0.13556 0.0
C578 C 0.5431 0.5425 0.2376 0.0
C579 C 0.56026 0.49709 0.16218 0.0
N580 N 0.55173 0.60863 0.16981 0.0
N581 N 0.57286 0.53331 0.14513 0.0
loop_
_geom_bond_atom_site_label_1
_geom_bond_atom_site_label_2
_geom_bond_distance
_geom_bond_site_symmetry_2
_ccdc_geom_bond_type
Zn0 N4 2.020 1_556 S
Zn0 O8 2.019 . S
Zn0 N10 2.119 . S
Zn0 O18 1.975 1_556 S
C1 N2 1.334 . S
C1 N5 1.336 . S
N2 C1 1.334 . S
N2 C3 1.334 . S
C3 N2 1.334 . S
C3 N4 1.336 . S
N4 Zn0 2.020 1_554 S
N4 C3 1.336 . S
N4 N5 1.354 . S
N5 C1 1.336 . S
N5 N4 1.354 . S
N5 Zn9 2.020 . S
C6 O7 1.244 . S
C6 O30 1.257 . S
O7 C6 1.244 . S
O8 Zn0 2.019 . S
O8 C28 1.257 1_556 S
Zn9 N5 2.020 . S
Zn9 O16 1.975 . S
Zn9 N25 2.119 . S
Zn9 O30 2.019 . S
N10 Zn0 2.119 . S
N10 C12 1.334 . S
N10 C13 1.328 . S
C11 C12 1.391 . S
C11 N14 1.329 . S
C11 H32 0.930 . S
C12 N10 1.334 . S
C12 C11 1.391 . S
C12 H19 0.930 . S
C13 N10 1.328 . S
C13 C15 1.392 . S
C13 H20 0.930 . S
N14 C11 1.329 . S
N14 C15 1.331 . S
C15 C13 1.392 . S
C15 N14 1.331 . S
O16 Zn9 1.975 . S
O16 C17 1.252 . S
C17 O16 1.252 . S
C17 O18 1.252 . S
O18 Zn0 1.975 1_554 S
O18 C17 1.252 . S
H19 C12 0.930 . S
H20 C13 0.930 . S
C21 C22 1.392 . S
C21 N25 1.328 . S
C21 H27 0.930 . S
C22 C21 1.392 . S
C22 N26 1.331 . S
C23 C24 1.391 . S
C23 N26 1.329 . S
C23 H33 0.930 . S
C24 C23 1.391 . S
C24 N25 1.334 . S
C24 H31 0.930 . S
N25 Zn9 2.119 . S
N25 C21 1.328 . S
N25 C24 1.334 . S
N26 C22 1.331 . S
N26 C23 1.329 . S
H27 C21 0.930 . S
C28 O8 1.257 1_554 S
C28 O29 1.244 . S
O29 C28 1.244 . S
O30 C6 1.257 . S
O30 Zn9 2.019 . S
H31 C24 0.930 . S
H32 C11 0.930 . S
H33 C23 0.930 . S
Zn34 N38 2.020 . S
Zn34 O42 2.019 . S
Zn34 N44 2.119 . S
Zn34 O52 1.975 . S
C35 N36 1.334 . S
C35 N39 1.336 . S
N36 C35 1.334 . S
N36 C37 1.334 . S
C37 N36 1.334 . S
C37 N38 1.336 . S
N38 Zn34 2.020 . S
N38 C37 1.336 . S
N38 N39 1.354 . S
N39 C35 1.336 . S
N39 N38 1.354 . S
N39 Zn43 2.020 . S
C40 O41 1.244 . S
C40 O64 1.257 . S
O41 C40 1.244 . S
O42 Zn34 2.019 . S
O42 C62 1.257 . S
Zn43 N39 2.020 . S
Zn43 O50 1.975 . S
Zn43 N59 2.119 . S
Zn43 O64 2.019 . S
N44 Zn34 2.119 . S
N44 C46 1.334 . S
N44 C47 1.328 . S
C45 C46 1.391 . S
C45 N48 1.329 . S
C45 H66 0.930 . S
C46 N44 1.334 . S
C46 C45 1.391 . S
C46 H53 0.930 . S
C47 N44 1.328 . S
C47 C49 1.392 . S
C47 H54 0.930 . S
N48 C45 1.329 . S
N48 C49 1.331 . S
C49 C47 1.392 . S
C49 N48 1.331 . S
O50 Zn43 1.975 . S
O50 C51 1.252 . S
C51 O50 1.252 . S
C51 O52 1.252 . S
O52 Zn34 1.975 . S
O52 C51 1.252 . S
H53 C46 0.930 . S
H54 C47 0.930 . S
C55 C56 1.392 . S
C55 N59 1.328 1_556 S
C55 H61 0.930 . S
C56 C55 1.392 . S
C56 N60 1.331 . S
C57 C58 1.391 1_556 S
C57 N60 1.329 . S
C57 H67 0.930 . S
C58 C57 1.391 1_554 S
C58 N59 1.334 . S
C58 H65 0.930 . S
N59 Zn43 2.119 . S
N59 C55 1.328 1_554 S
N59 C58 1.334 . S
N60 C56 1.331 . S
N60 C57 1.329 . S
H61 C55 0.930 . S
C62 O42 1.257 . S
C62 O63 1.244 . S
O63 C62 1.244 . S
O64 C40 1.257 . S
O64 Zn43 2.019 . S
H65 C58 0.930 . S
H66 C45 0.930 . S
H67 C57 0.930 . S
Zn68 N72 2.020 . S
Zn68 O76 2.019 . S
Zn68 N78 2.119 . S
Zn68 O86 1.975 . S
C69 N70 1.334 . S
C69 N73 1.336 . S
N70 C69 1.334 . S
N70 C71 1.334 . S
C71 N70 1.334 . S
C71 N72 1.336 . S
N72 Zn68 2.020 . S
N72 C71 1.336 . S
N72 N73 1.354 . S
N73 C69 1.336 . S
N73 N72 1.354 . S
N73 Zn77 2.020 1_554 S
C74 O75 1.244 . S
C74 O98 1.257 1_554 S
O75 C74 1.244 . S
O76 Zn68 2.019 . S
O76 C96 1.257 . S
Zn77 N73 2.020 1_556 S
Zn77 O84 1.975 1_556 S
Zn77 N93 2.119 . S
Zn77 O98 2.019 . S
N78 Zn68 2.119 . S
N78 C80 1.334 . S
N78 C81 1.328 . S
C79 C80 1.391 . S
C79 N82 1.329 . S
C79 H100 0.930 . S
C80 N78 1.334 . S
C80 C79 1.391 . S
C80 H87 0.930 . S
C81 N78 1.328 . S
C81 C83 1.392 . S
C81 H88 0.930 . S
N82 C79 1.329 . S
N82 C83 1.331 . S
C83 C81 1.392 . S
C83 N82 1.331 . S
O84 Zn77 1.975 1_554 S
O84 C85 1.252 . S
C85 O84 1.252 . S
C85 O86 1.252 . S
O86 Zn68 1.975 . S
O86 C85 1.252 . S
H87 C80 0.930 . S
H88 C81 0.930 . S
C89 C90 1.392 . S
C89 N93 1.328 . S
C89 H95 0.930 . S
C90 C89 1.392 . S
C90 N94 1.331 . S
C91 C92 1.391 . S
C91 N94 1.329 . S
C91 H101 0.930 . S
C92 C91 1.391 . S
C92 N93 1.334 . S
C92 H99 0.930 . S
N93 Zn77 2.119 . S
N93 C89 1.328 . S
N93 C92 1.334 . S
N94 C90 1.331 . S
N94 C91 1.329 . S
H95 C89 0.930 . S
C96 O76 1.257 . S
C96 O97 1.244 . S
O97 C96 1.244 . S
O98 C74 1.257 1_556 S
O98 Zn77 2.019 . S
H99 C92 0.930 . S
H100 C79 0.930 . S
H101 C91 0.930 . S
Zn102 N106 2.020 . S
Zn102 O110 2.019 . S
Zn102 N112 2.119 . S
Zn102 O120 1.975 . S
C103 N104 1.334 . S
C103 N107 1.336 . S
N104 C103 1.334 . S
N104 C105 1.334 . S
C105 N104 1.334 . S
C105 N106 1.336 . S
N106 Zn102 2.020 . S
N106 C105 1.336 . S
N106 N107 1.354 . S
N107 C103 1.336 . S
N107 N106 1.354 . S
N107 Zn111 2.020 . S
C108 O109 1.244 . S
C108 O132 1.257 . S
O109 C108 1.244 . S
O110 Zn102 2.019 . S
O110 C130 1.257 . S
Zn111 N107 2.020 . S
Zn111 O118 1.975 . S
Zn111 N127 2.119 . S
Zn111 O132 2.019 . S
N112 Zn102 2.119 . S
N112 C114 1.334 . S
N112 C115 1.328 . S
C113 C114 1.391 . S
C113 N116 1.329 . S
C113 H134 0.930 . S
C114 N112 1.334 . S
C114 C113 1.391 . S
C114 H121 0.930 . S
C115 N112 1.328 . S
C115 C117 1.392 . S
C115 H122 0.930 . S
N116 C113 1.329 . S
N116 C117 1.331 . S
C117 C115 1.392 . S
C117 N116 1.331 . S
O118 Zn111 1.975 . S
O118 C119 1.252 . S
C119 O118 1.252 . S
C119 O120 1.252 . S
O120 Zn102 1.975 . S
O120 C119 1.252 . S
H121 C114 0.930 . S
H122 C115 0.930 . S
C123 C124 1.392 . S
C123 N127 1.328 1_556 S
C123 H129 0.930 . S
C124 C123 1.392 . S
C124 N128 1.331 . S
C125 C126 1.391 1_556 S
C125 N128 1.329 . S
C125 H135 0.930 . S
C126 C125 1.391 1_554 S
C126 N127 1.334 . S
C126 H133 0.930 . S
N127 Zn111 2.119 . S
N127 C123 1.328 1_554 S
N127 C126 1.334 . S
N128 C124 1.331 . S
N128 C125 1.329 . S
H129 C123 0.930 . S
C130 O110 1.257 . S
C130 O131 1.244 . S
O131 C130 1.244 . S
O132 C108 1.257 . S
O132 Zn111 2.019 . S
H133 C126 0.930 . S
H134 C113 0.930 . S
H135 C125 0.930 . S
Zn136 N140 2.020 . S
Zn136 O144 2.019 . S
Zn136 N146 2.119 . S
Zn136 O154 1.975 . S
C137 N138 1.334 . S
C137 N141 1.336 . S
N138 C137 1.334 . S
N138 C139 1.334 . S
C139 N138 1.334 . S
C139 N140 1.336 . S
N140 Zn136 2.020 . S
N140 C139 1.336 . S
N140 N141 1.354 . S
N141 C137 1.336 . S
N141 N140 1.354 . S
N141 Zn145 2.020 1_554 S
C142 O143 1.244 . S
C142 O166 1.257 1_554 S
O143 C142 1.244 . S
O144 Zn136 2.019 . S
O144 C164 1.257 . S
Zn145 N141 2.020 1_556 S
Zn145 O152 1.975 1_556 S
Zn145 N161 2.119 . S
Zn145 O166 2.019 . S
N146 Zn136 2.119 . S
N146 C148 1.334 . S
N146 C149 1.328 . S
C147 C148 1.391 . S
C147 N150 1.329 . S
C147 H168 0.930 . S
C148 N146 1.334 . S
C148 C147 1.391 . S
C148 H155 0.930 . S
C149 N146 1.328 . S
C149 C151 1.392 . S
C149 H156 0.930 . S
N150 C147 1.329 . S
N150 C151 1.331 . S
C151 C149 1.392 . S
C151 N150 1.331 . S
O152 Zn145 1.975 1_554 S
O152 C153 1.252 . S
C153 O152 1.252 . S
C153 O154 1.252 . S
O154 Zn136 1.975 . S
O154 C153 1.252 . S
H155 C148 0.930 . S
H156 C149 0.930 . S
C157 C158 1.392 . S
C157 N161 1.328 . S
C157 H163 0.930 . S
C158 C157 1.392 . S
C158 N162 1.331 . S
C159 C160 1.391 . S
C159 N162 1.329 . S
C159 H169 0.930 . S
C160 C159 1.391 . S
C160 N161 1.334 . S
C160 H167 0.930 . S
N161 Zn145 2.119 . S
N161 C157 1.328 . S
N161 C160 1.334 . S
N162 C158 1.331 . S
N162 C159 1.329 . S
H163 C157 0.930 . S
C164 O144 1.257 . S
C164 O165 1.244 . S
O165 C164 1.244 . S
O166 C142 1.257 1_556 S
O166 Zn145 2.019 . S
H167 C160 0.930 . S
H168 C147 0.930 . S
H169 C159 0.930 . S
Zn170 N174 2.020 . S
Zn170 O178 2.019 . S
Zn170 N180 2.119 . S
Zn170 O188 1.975 . S
C171 N172 1.334 . S
C171 N175 1.336 . S
N172 C171 1.334 . S
N172 C173 1.334 . S
C173 N172 1.334 . S
C173 N174 1.336 . S
N174 Zn170 2.020 . S
N174 C173 1.336 . S
N174 N175 1.354 . S
N175 C171 1.336 . S
N175 N174 1.354 . S
N175 Zn179 2.020 . S
C176 O177 1.244 . S
C176 O200 1.257 . S
O177 C176 1.244 . S
O178 Zn170 2.019 . S
O178 C198 1.257 . S
Zn179 N175 2.020 . S
Zn179 O186 1.975 . S
Zn179 N195 2.119 . S
Zn179 O200 2.019 . S
N180 Zn170 2.119 . S
N180 C182 1.334 . S
N180 C183 1.328 1_554 S
C181 C182 1.391 1_556 S
C181 N184 1.329 . S
C181 H202 0.930 . S
C182 N180 1.334 . S
C182 C181 1.391 1_554 S
C182 H189 0.930 . S
C183 N180 1.328 1_556 S
C183 C185 1.392 . S
C183 H190 0.930 . S
N184 C181 1.329 . S
N184 C185 1.331 . S
C185 C183 1.392 . S
C185 N184 1.331 . S
O186 Zn179 1.975 . S
O186 C187 1.252 . S
C187 O186 1.252 . S
C187 O188 1.252 . S
O188 Zn170 1.975 . S
O188 C187 1.252 . S
H189 C182 0.930 . S
H190 C183 0.930 . S
C191 C192 1.392 . S
C191 N195 1.328 . S
C191 H197 0.930 . S
C192 C191 1.392 . S
C192 N196 1.331 . S
C193 C194 1.391 . S
C193 N196 1.329 . S
C193 H203 0.930 . S
C194 C193 1.391 . S
C194 N195 1.334 . S
C194 H201 0.930 . S
N195 Zn179 2.119 . S
N195 C191 1.328 . S
N195 C194 1.334 . S
N196 C192 1.331 . S
N196 C193 1.329 . S
H197 C191 0.930 . S
C198 O178 1.257 . S
C198 O199 1.244 . S
O199 C198 1.244 . S
O200 C176 1.257 . S
O200 Zn179 2.019 . S
H201 C194 0.930 . S
H202 C181 0.930 . S
H203 C193 0.930 . S
H204 C210 0.930 . S
H205 C214 0.930 1_556 S
H206 C219 0.929 . S
H207 C217 0.929 . S
H208 C212 0.929 . S
H209 C218 0.929 . S
C210 H204 0.930 . S
C210 C211 1.367 . S
C210 C218 1.378 . S
C211 C210 1.367 . S
C211 C219 1.433 . S
C212 H208 0.929 . S
C212 C214 1.378 . S
C212 C216 1.350 . S
C213 C216 1.463 . S
C213 C218 1.350 . S
C213 N221 1.427 . S
C214 H205 0.930 1_554 S
C214 C212 1.378 . S
C214 C215 1.367 . S
C215 C214 1.367 . S
C215 C217 1.433 . S
C216 C212 1.350 . S
C216 C213 1.463 . S
C216 N220 1.427 . S
C217 H207 0.929 . S
C217 C215 1.433 . S
C217 N220 1.384 . S
C218 H209 0.929 . S
C218 C210 1.378 . S
C218 C213 1.350 . S
C219 H206 0.929 . S
C219 C211 1.433 . S
C219 N221 1.384 . S
N220 C216 1.427 . S
N220 C217 1.384 . S
N221 C213 1.427 . S
N221 C219 1.384 . S
H222 C228 0.930 . S
H223 C232 0.930 . S
H224 C237 0.929 . S
H225 C235 0.929 . S
H226 C230 0.929 . S
H227 C236 0.929 . S
C228 H222 0.930 . S
C228 C229 1.367 . S
C228 C236 1.378 1_455 S
C229 C228 1.367 . S
C229 C237 1.433 . S
C230 H226 0.929 . S
C230 C232 1.378 . S
C230 C234 1.350 . S
C231 C234 1.463 . S
C231 C236 1.350 . S
C231 N239 1.427 . S
C232 H223 0.930 . S
C232 C230 1.378 . S
C232 C233 1.367 . S
C233 C232 1.367 . S
C233 C235 1.433 . S
C234 C230 1.350 . S
C234 C231 1.463 . S
C234 N238 1.427 . S
C235 H225 0.929 . S
C235 C233 1.433 . S
C235 N238 1.384 . S
C236 H227 0.929 . S
C236 C228 1.378 1_655 S
C236 C231 1.350 . S
C237 H224 0.929 . S
C237 C229 1.433 . S
C237 N239 1.384 1_455 S
N238 C234 1.427 . S
N238 C235 1.384 . S
N239 C231 1.427 . S
N239 C237 1.384 1_655 S
H240 C246 0.930 1_556 S
H241 C250 0.930 . S
H242 C255 0.929 . S
H243 C253 0.929 . S
H244 C248 0.929 . S
H245 C254 0.929 . S
C246 H240 0.930 1_554 S
C246 C247 1.367 . S
C246 C254 1.378 . S
C247 C246 1.367 . S
C247 C255 1.433 . S
C248 H244 0.929 . S
C248 C250 1.378 1_565 S
C248 C252 1.350 . S
C249 C252 1.463 . S
C249 C254 1.350 . S
C249 N257 1.427 . S
C250 H241 0.930 . S
C250 C248 1.378 1_545 S
C250 C251 1.367 . S
C251 C250 1.367 . S
C251 C253 1.433 . S
C252 C248 1.350 . S
C252 C249 1.463 . S
C252 N256 1.427 . S
C253 H243 0.929 . S
C253 C251 1.433 . S
C253 N256 1.384 1_545 S
C254 H245 0.929 . S
C254 C246 1.378 . S
C254 C249 1.350 . S
C255 H242 0.929 . S
C255 C247 1.433 . S
C255 N257 1.384 . S
N256 C252 1.427 . S
N256 C253 1.384 1_565 S
N257 C249 1.427 . S
N257 C255 1.384 . S
H258 C264 0.930 . S
H259 C268 0.930 . S
H260 C273 0.929 . S
H261 C271 0.929 . S
H262 C266 0.929 . S
H263 C272 0.929 . S
C264 H258 0.930 . S
C264 C265 1.367 . S
C264 C272 1.378 . S
C265 C264 1.367 . S
C265 C273 1.433 . S
C266 H262 0.929 . S
C266 C268 1.378 . S
C266 C270 1.350 . S
C267 C270 1.463 . S
C267 C272 1.350 . S
C267 N275 1.427 . S
C268 H259 0.930 . S
C268 C266 1.378 . S
C268 C269 1.367 . S
C269 C268 1.367 . S
C269 C271 1.433 . S
C270 C266 1.350 . S
C270 C267 1.463 . S
C270 N274 1.427 . S
C271 H261 0.929 . S
C271 C269 1.433 . S
C271 N274 1.384 . S
C272 H263 0.929 . S
C272 C264 1.378 . S
C272 C267 1.350 . S
C273 H260 0.929 . S
C273 C265 1.433 . S
C273 N275 1.384 . S
N274 C270 1.427 . S
N274 C271 1.384 . S
N275 C267 1.427 . S
N275 C273 1.384 . S
H276 C282 0.930 1_556 S
H277 C286 0.930 . S
H278 C291 0.929 . S
H279 C289 0.929 . S
H280 C284 0.929 . S
H281 C290 0.929 . S
C282 H276 0.930 1_554 S
C282 C283 1.367 . S
C282 C290 1.378 . S
C283 C282 1.367 . S
C283 C291 1.433 . S
C284 H280 0.929 . S
C284 C286 1.378 1_455 S
C284 C288 1.350 . S
C285 C288 1.463 . S
C285 C290 1.350 . S
C285 N293 1.427 . S
C286 H277 0.930 . S
C286 C284 1.378 1_655 S
C286 C287 1.367 . S
C287 C286 1.367 . S
C287 C289 1.433 . S
C288 C284 1.350 . S
C288 C285 1.463 . S
C288 N292 1.427 . S
C289 H279 0.929 . S
C289 C287 1.433 . S
C289 N292 1.384 1_655 S
C290 H281 0.929 . S
C290 C282 1.378 . S
C290 C285 1.350 . S
C291 H278 0.929 . S
C291 C283 1.433 . S
C291 N293 1.384 . S
N292 C288 1.427 . S
N292 C289 1.384 1_455 S
N293 C285 1.427 . S
N293 C291 1.384 . S
H294 C300 0.930 . S
H295 C304 0.930 . S
H296 C309 0.929 . S
H297 C307 0.929 . S
H298 C302 0.929 . S
H299 C308 0.929 . S
C300 H294 0.930 . S
C300 C301 1.367 . S
C300 C308 1.378 1_565 S
C301 C300 1.367 . S
C301 C309 1.433 . S
C302 H298 0.929 . S
C302 C304 1.378 . S
C302 C306 1.350 . S
C303 C306 1.463 . S
C303 C308 1.350 . S
C303 N311 1.427 . S
C304 H295 0.930 . S
C304 C302 1.378 . S
C304 C305 1.367 . S
C305 C304 1.367 . S
C305 C307 1.433 . S
C306 C302 1.350 . S
C306 C303 1.463 . S
C306 N310 1.427 . S
C307 H297 0.929 . S
C307 C305 1.433 . S
C307 N310 1.384 . S
C308 H299 0.929 . S
C308 C300 1.378 1_545 S
C308 C303 1.350 . S
C309 H296 0.929 . S
C309 C301 1.433 . S
C309 N311 1.384 1_565 S
N310 C306 1.427 . S
N310 C307 1.384 . S
N311 C303 1.427 . S
N311 C309 1.384 1_545 S
H312 C318 0.930 . S
H313 C322 0.930 . S
H314 C327 0.929 . S
H315 C325 0.929 . S
H316 C320 0.929 . S
H317 C326 0.929 . S
C318 H312 0.930 . S
C318 C319 1.367 . S
C318 C326 1.378 . S
C319 C318 1.367 . S
C319 C327 1.433 . S
C320 H316 0.929 . S
C320 C322 1.378 . S
C320 C324 1.350 . S
C321 C324 1.463 . S
C321 C326 1.350 . S
C321 N329 1.427 . S
C322 H313 0.930 . S
C322 C320 1.378 . S
C322 C323 1.367 . S
C323 C322 1.367 . S
C323 C325 1.433 . S
C324 C320 1.350 . S
C324 C321 1.463 . S
C324 N328 1.427 . S
C325 H315 0.929 . S
C325 C323 1.433 . S
C325 N328 1.384 . S
C326 H317 0.929 . S
C326 C318 1.378 . S
C326 C321 1.350 . S
C327 H314 0.929 . S
C327 C319 1.433 . S
C327 N329 1.384 . S
N328 C324 1.427 . S
N328 C325 1.384 . S
N329 C321 1.427 . S
N329 C327 1.384 . S
H330 C336 0.930 . S
H331 C340 0.930 . S
H332 C345 0.929 . S
H333 C343 0.929 . S
H334 C338 0.929 . S
H335 C344 0.929 . S
C336 H330 0.930 . S
C336 C337 1.367 . S
C336 C344 1.378 . S
C337 C336 1.367 . S
C337 C345 1.433 . S
C338 H334 0.929 . S
C338 C340 1.378 . S
C338 C342 1.350 . S
C339 C342 1.463 . S
C339 C344 1.350 . S
C339 N347 1.427 . S
C340 H331 0.930 . S
C340 C338 1.378 . S
C340 C341 1.367 . S
C341 C340 1.367 . S
C341 C343 1.433 . S
C342 C338 1.350 . S
C342 C339 1.463 . S
C342 N346 1.427 . S
C343 H333 0.929 . S
C343 C341 1.433 . S
C343 N346 1.384 . S
C344 H335 0.929 . S
C344 C336 1.378 . S
C344 C339 1.350 . S
C345 H332 0.929 . S
C345 C337 1.433 . S
C345 N347 1.384 . S
N346 C342 1.427 . S
N346 C343 1.384 . S
N347 C339 1.427 . S
N347 C345 1.384 . S
H348 C354 0.930 . S
H349 C358 0.930 . S
H350 C363 0.929 . S
H351 C361 0.929 . S
H352 C356 0.929 . S
H353 C362 0.929 . S
C354 H348 0.930 . S
C354 C355 1.367 . S
C354 C362 1.378 . S
C355 C354 1.367 . S
C355 C363 1.433 . S
C356 H352 0.929 . S
C356 C358 1.378 . S
C356 C360 1.350 . S
C357 C360 1.463 . S
C357 C362 1.350 . S
C357 N365 1.427 . S
C358 H349 0.930 . S
C358 C356 1.378 . S
C358 C359 1.367 . S
C359 C358 1.367 . S
C359 C361 1.433 . S
C360 C356 1.350 . S
C360 C357 1.463 . S
C360 N364 1.427 . S
C361 H351 0.929 . S
C361 C359 1.433 . S
C361 N364 1.384 . S
C362 H353 0.929 . S
C362 C354 1.378 . S
C362 C357 1.350 . S
C363 H350 0.929 . S
C363 C355 1.433 . S
C363 N365 1.384 . S
N364 C360 1.427 . S
N364 C361 1.384 . S
N365 C357 1.427 . S
N365 C363 1.384 . S
H366 C372 0.930 . S
H367 C376 0.930 . S
H368 C381 0.929 . S
H369 C379 0.929 . S
H370 C374 0.929 . S
H371 C380 0.929 . S
C372 H366 0.930 . S
C372 C373 1.367 . S
C372 C380 1.378 . S
C373 C372 1.367 . S
C373 C381 1.433 . S
C374 H370 0.929 . S
C374 C376 1.378 . S
C374 C378 1.350 . S
C375 C378 1.463 . S
C375 C380 1.350 . S
C375 N383 1.427 . S
C376 H367 0.930 . S
C376 C374 1.378 . S
C376 C377 1.367 . S
C377 C376 1.367 . S
C377 C379 1.433 . S
C378 C374 1.350 . S
C378 C375 1.463 . S
C378 N382 1.427 . S
C379 H369 0.929 . S
C379 C377 1.433 . S
C379 N382 1.384 . S
C380 H371 0.929 . S
C380 C372 1.378 . S
C380 C375 1.350 . S
C381 H368 0.929 . S
C381 C373 1.433 . S
C381 N383 1.384 . S
N382 C378 1.427 . S
N382 C379 1.384 . S
N383 C375 1.427 . S
N383 C381 1.384 . S
H384 C390 0.930 . S
H385 C394 0.930 . S
H386 C399 0.929 . S
H387 C397 0.929 . S
H388 C392 0.929 . S
H389 C398 0.929 . S
C390 H384 0.930 . S
C390 C391 1.367 . S
C390 C398 1.378 . S
C391 C390 1.367 . S
C391 C399 1.433 . S
C392 H388 0.929 . S
C392 C394 1.378 . S
C392 C396 1.350 . S
C393 C396 1.463 . S
C393 C398 1.350 . S
C393 N401 1.427 . S
C394 H385 0.930 . S
C394 C392 1.378 . S
C394 C395 1.367 . S
C395 C394 1.367 . S
C395 C397 1.433 . S
C396 C392 1.350 . S
C396 C393 1.463 . S
C396 N400 1.427 . S
C397 H387 0.929 . S
C397 C395 1.433 . S
C397 N400 1.384 . S
C398 H389 0.929 . S
C398 C390 1.378 . S
C398 C393 1.350 . S
C399 H386 0.929 . S
C399 C391 1.433 . S
C399 N401 1.384 . S
N400 C396 1.427 . S
N400 C397 1.384 . S
N401 C393 1.427 . S
N401 C399 1.384 . S
H402 C408 0.930 . S
H403 C412 0.930 . S
H404 C417 0.929 . S
H405 C415 0.929 . S
H406 C410 0.929 . S
H407 C416 0.929 . S
C408 H402 0.930 . S
C408 C409 1.367 . S
C408 C416 1.378 . S
C409 C408 1.367 . S
C409 C417 1.433 . S
C410 H406 0.929 . S
C410 C412 1.378 . S
C410 C414 1.350 . S
C411 C414 1.463 . S
C411 C416 1.350 . S
C411 N419 1.427 . S
C412 H403 0.930 . S
C412 C410 1.378 . S
C412 C413 1.367 . S
C413 C412 1.367 . S
C413 C415 1.433 . S
C414 C410 1.350 . S
C414 C411 1.463 . S
C414 N418 1.427 . S
C415 H405 0.929 . S
C415 C413 1.433 . S
C415 N418 1.384 . S
C416 H407 0.929 . S
C416 C408 1.378 . S
C416 C411 1.350 . S
C417 H404 0.929 . S
C417 C409 1.433 . S
C417 N419 1.384 . S
N418 C414 1.427 . S
N418 C415 1.384 . S
N419 C411 1.427 . S
N419 C417 1.384 . S
H420 C426 0.930 . S
H421 C430 0.930 . S
H422 C435 0.929 . S
H423 C433 0.929 . S
H424 C428 0.929 . S
H425 C434 0.929 . S
C426 H420 0.930 . S
C426 C427 1.367 . S
C426 C434 1.378 . S
C427 C426 1.367 . S
C427 C435 1.433 1_556 S
C428 H424 0.929 . S
C428 C430 1.378 . S
C428 C432 1.363 . S
C429 C432 1.462 1_556 S
C429 C434 1.350 . S
C429 N437 1.427 1_556 S
C430 H421 0.930 . S
C430 C428 1.378 . S
C430 C431 1.367 1_554 S
C431 C430 1.367 1_556 S
C431 C433 1.433 . S
C432 C428 1.363 . S
C432 C429 1.462 1_554 S
C432 N436 1.413 1_554 S
C433 H423 0.929 . S
C433 C431 1.433 . S
C433 N436 1.384 . S
C434 H425 0.929 . S
C434 C426 1.378 . S
C434 C429 1.350 . S
C435 H422 0.929 . S
C435 C427 1.433 1_554 S
C435 N437 1.384 . S
N436 C432 1.413 1_556 S
N436 C433 1.384 . S
N437 C429 1.427 1_554 S
N437 C435 1.384 . S
H438 C444 0.930 . S
H439 C448 0.930 . S
H440 C453 0.929 . S
H441 C451 0.929 . S
H442 C446 0.929 . S
H443 C452 0.929 . S
C444 H438 0.930 . S
C444 C445 1.367 . S
C444 C452 1.378 . S
C445 C444 1.367 . S
C445 C453 1.433 . S
C446 H442 0.929 . S
C446 C448 1.378 . S
C446 C450 1.350 . S
C447 C450 1.463 . S
C447 C452 1.350 . S
C447 N455 1.427 . S
C448 H439 0.930 . S
C448 C446 1.378 . S
C448 C449 1.367 . S
C449 C448 1.367 . S
C449 C451 1.433 . S
C450 C446 1.350 . S
C450 C447 1.463 . S
C450 N454 1.427 . S
C451 H441 0.929 . S
C451 C449 1.433 . S
C451 N454 1.384 . S
C452 H443 0.929 . S
C452 C444 1.378 . S
C452 C447 1.350 . S
C453 H440 0.929 . S
C453 C445 1.433 . S
C453 N455 1.384 . S
N454 C450 1.427 . S
N454 C451 1.384 . S
N455 C447 1.427 . S
N455 C453 1.384 . S
H456 C462 0.930 . S
H457 C466 0.930 . S
H458 C471 0.929 . S
H459 C469 0.929 . S
H460 C464 0.929 . S
H461 C470 0.929 . S
C462 H456 0.930 . S
C462 C463 1.367 . S
C462 C470 1.378 . S
C463 C462 1.367 . S
C463 C471 1.433 1_554 S
C464 H460 0.929 . S
C464 C466 1.378 . S
C464 C468 1.350 . S
C465 C468 1.463 1_554 S
C465 C470 1.350 . S
C465 N473 1.427 1_554 S
C466 H457 0.930 . S
C466 C464 1.378 . S
C466 C467 1.367 . S
C467 C466 1.367 . S
C467 C469 1.433 1_556 S
C468 C464 1.350 . S
C468 C465 1.463 1_556 S
C468 N472 1.427 1_556 S
C469 H459 0.929 . S
C469 C467 1.433 1_554 S
C469 N472 1.384 . S
C470 H461 0.929 . S
C470 C462 1.378 . S
C470 C465 1.350 . S
C471 H458 0.929 . S
C471 C463 1.433 1_556 S
C471 N473 1.384 . S
N472 C468 1.427 1_554 S
N472 C469 1.384 . S
N473 C465 1.427 1_556 S
N473 C471 1.384 . S
H474 C480 0.930 . S
H475 C484 0.930 . S
H476 C489 0.929 . S
H477 C487 0.929 . S
H478 C482 0.929 . S
H479 C488 0.929 . S
C480 H474 0.930 . S
C480 C481 1.367 . S
C480 C488 1.378 . S
C481 C480 1.367 . S
C481 C489 1.433 . S
C482 H478 0.929 . S
C482 C484 1.378 . S
C482 C486 1.350 . S
C483 C486 1.463 . S
C483 C488 1.350 . S
C483 N491 1.427 . S
C484 H475 0.930 . S
C484 C482 1.378 . S
C484 C485 1.367 . S
C485 C484 1.367 . S
C485 C487 1.433 . S
C486 C482 1.350 . S
C486 C483 1.463 . S
C486 N490 1.427 . S
C487 H477 0.929 . S
C487 C485 1.433 . S
C487 N490 1.384 . S
C488 H479 0.929 . S
C488 C480 1.378 . S
C488 C483 1.350 . S
C489 H476 0.929 . S
C489 C481 1.433 . S
C489 N491 1.384 . S
N490 C486 1.427 . S
N490 C487 1.384 . S
N491 C483 1.427 . S
N491 C489 1.384 . S
H492 C498 0.930 . S
H493 C502 0.930 . S
H494 C507 0.929 . S
H495 C505 0.929 . S
H496 C500 0.929 . S
H497 C506 0.929 . S
C498 H492 0.930 . S
C498 C499 1.367 . S
C498 C506 1.378 . S
C499 C498 1.367 . S
C499 C507 1.433 1_554 S
C500 H496 0.929 . S
C500 C502 1.378 . S
C500 C504 1.350 . S
C501 C504 1.463 1_554 S
C501 C506 1.350 . S
C501 N509 1.427 1_554 S
C502 H493 0.930 . S
C502 C500 1.378 . S
C502 C503 1.367 . S
C503 C502 1.367 . S
C503 C505 1.433 1_556 S
C504 C500 1.350 . S
C504 C501 1.463 1_556 S
C504 N508 1.427 1_556 S
C505 H495 0.929 . S
C505 C503 1.433 1_554 S
C505 N508 1.384 . S
C506 H497 0.929 . S
C506 C498 1.378 . S
C506 C501 1.350 . S
C507 H494 0.929 . S
C507 C499 1.433 1_556 S
C507 N509 1.384 . S
N508 C504 1.427 1_554 S
N508 C505 1.384 . S
N509 C501 1.427 1_556 S
N509 C507 1.384 . S
H510 C516 0.930 . S
H511 C520 0.930 . S
H512 C525 0.929 . S
H513 C523 0.929 . S
H514 C518 0.929 . S
H515 C524 0.929 . S
C516 H510 0.930 . S
C516 C517 1.367 . S
C516 C524 1.378 . S
C517 C516 1.367 . S
C517 C525 1.433 . S
C518 H514 0.929 . S
C518 C520 1.378 . S
C518 C522 1.350 . S
C519 C522 1.463 . S
C519 C524 1.350 . S
C519 N527 1.427 . S
C520 H511 0.930 . S
C520 C518 1.378 . S
C520 C521 1.367 . S
C521 C520 1.367 . S
C521 C523 1.433 . S
C522 C518 1.350 . S
C522 C519 1.463 . S
C522 N526 1.427 . S
C523 H513 0.929 . S
C523 C521 1.433 . S
C523 N526 1.384 . S
C524 H515 0.929 . S
C524 C516 1.378 . S
C524 C519 1.350 . S
C525 H512 0.929 . S
C525 C517 1.433 . S
C525 N527 1.384 . S
N526 C522 1.427 . S
N526 C523 1.384 . S
N527 C519 1.427 . S
N527 C525 1.384 . S
H528 C534 0.930 . S
H529 C538 0.930 . S
H530 C543 0.929 . S
H531 C541 0.929 . S
H532 C536 0.929 . S
H533 C542 0.929 . S
C534 H528 0.930 . S
C534 C535 1.367 . S
C534 C542 1.378 . S
C535 C534 1.367 . S
C535 C543 1.433 1_655 S
C536 H532 0.929 . S
C536 C538 1.378 . S
C536 C540 1.350 . S
C537 C540 1.463 . S
C537 C542 1.350 1_455 S
C537 N545 1.427 . S
C538 H529 0.930 . S
C538 C536 1.378 . S
C538 C539 1.367 . S
C539 C538 1.367 . S
C539 C541 1.433 . S
C540 C536 1.350 . S
C540 C537 1.463 . S
C540 N544 1.427 . S
C541 H531 0.929 . S
C541 C539 1.433 . S
C541 N544 1.384 . S
C542 H533 0.929 . S
C542 C534 1.378 . S
C542 C537 1.350 1_655 S
C543 H530 0.929 . S
C543 C535 1.433 1_455 S
C543 N545 1.384 . S
N544 C540 1.427 . S
N544 C541 1.384 . S
N545 C537 1.427 . S
N545 C543 1.384 . S
H546 C552 0.930 . S
H547 C556 0.930 . S
H548 C561 0.929 . S
H549 C559 0.929 . S
H550 C554 0.929 . S
H551 C560 0.929 . S
C552 H546 0.930 . S
C552 C553 1.367 . S
C552 C560 1.378 1_545 S
C553 C552 1.367 . S
C553 C561 1.433 . S
C554 H550 0.929 . S
C554 C556 1.378 . S
C554 C558 1.350 . S
C555 C558 1.463 . S
C555 C560 1.350 . S
C555 N563 1.427 . S
C556 H547 0.930 . S
C556 C554 1.378 . S
C556 C557 1.367 . S
C557 C556 1.367 . S
C557 C559 1.433 . S
C558 C554 1.350 . S
C558 C555 1.463 . S
C558 N562 1.427 . S
C559 H549 0.929 . S
C559 C557 1.433 . S
C559 N562 1.384 . S
C560 H551 0.929 . S
C560 C552 1.378 1_565 S
C560 C555 1.350 . S
C561 H548 0.929 . S
C561 C553 1.433 . S
C561 N563 1.384 1_545 S
N562 C558 1.427 . S
N562 C559 1.384 . S
N563 C555 1.427 . S
N563 C561 1.384 1_565 S
H564 C570 0.930 . S
H565 C574 0.930 . S
H566 C579 0.929 . S
H567 C577 0.929 . S
H568 C572 0.929 . S
H569 C578 0.929 . S
C570 H564 0.930 . S
C570 C571 1.367 . S
C570 C578 1.378 . S
C571 C570 1.367 . S
C571 C579 1.433 . S
C572 H568 0.929 . S
C572 C574 1.378 . S
C572 C576 1.350 . S
C573 C576 1.463 . S
C573 C578 1.350 . S
C573 N581 1.427 . S
C574 H565 0.930 . S
C574 C572 1.378 . S
C574 C575 1.367 . S
C575 C574 1.367 . S
C575 C577 1.433 . S
C576 C572 1.350 . S
C576 C573 1.463 . S
C576 N580 1.427 . S
C577 H567 0.929 . S
C577 C575 1.433 . S
C577 N580 1.384 . S
C578 H569 0.929 . S
C578 C570 1.378 . S
C578 C573 1.350 . S
C579 H566 0.929 . S
C579 C571 1.433 . S
C579 N581 1.384 . S
N580 C576 1.427 . S
N580 C577 1.384 . S
N581 C573 1.427 . S
N581 C579 1.384 . S
C211 C187 1.485 . S
C215 C17 1.453 . S
C229 C6 1.165 . S
C233 C40 1.196 . S
C247 C85 1.445 . S
C251 C51 1.489 . S
C265 C108 1.193 . S
C269 C96 1.177 . S
C283 C153 1.448 . S
C287 C119 1.487 . S
C301 C164 1.168 . S
C305 C198 1.193 . S
C319 C15 1.668 . S
C323 C22 1.669 . S
C337 C49 1.814 . S
C341 C56 1.818 . S
C355 C90 1.655 . S
C359 C83 1.656 . S
C373 C124 1.828 . S
C377 C117 1.823 . S
C391 C151 1.651 . S
C395 C158 1.650 . S
C409 C192 1.820 . S
C413 C185 1.825 . S
C427 C142 1.417 1_556 S
C431 C3 1.262 1_556 S
C445 C173 1.876 . S
C449 C37 1.882 . S
C463 C28 1.414 . S
C467 C69 1.283 1_556 S
C481 C105 1.897 . S
C485 C35 1.875 . S
C499 C74 1.415 . S
C503 C137 1.284 1_556 S
C517 C103 1.872 . S
C521 C171 1.887 . S
C535 C130 1.436 . S
C539 C1 1.317 . S
C553 C62 1.440 . S
C557 C139 1.321 . S
C571 C176 1.440 . S
C575 C71 1.318 . S
