# Generated by pormake.
# Topology uov, (4)-cn, num edge types: 1
# Building blocks:
#     Node 0, Type 0, BuildingBlock: GALJAG_clean_sbu_0, # of connection points: 4
#     Node 1, Type 0, BuildingBlock: GALJAG_clean_sbu_0, # of connection points: 4
#     Node 2, Type 0, BuildingBlock: GALJAG_clean_sbu_0, # of connection points: 4
#     Node 3, Type 0, BuildingBlock: GALJAG_clean_sbu_0, # of connection points: 4
#     Node 4, Type 0, BuildingBlock: GALJAG_clean_sbu_0, # of connection points: 4
#     Node 5, Type 0, BuildingBlock: GALJAG_clean_sbu_0, # of connection points: 4
#     Node 6, Type 0, BuildingBlock: GALJAG_clean_sbu_0, # of connection points: 4
#     Node 7, Type 0, BuildingBlock: GALJAG_clean_sbu_0, # of connection points: 4
#     Edge 8, Type (0, 0), BuildingBlock: KIFKEQ_clean_linker_1, # of connection points: 2
#     Edge 9, Type (0, 0), BuildingBlock: KIFKEQ_clean_linker_1, # of connection points: 2
#     Edge 10, Type (0, 0), BuildingBlock: KIFKEQ_clean_linker_1, # of connection points: 2
#     Edge 11, Type (0, 0), BuildingBlock: KIFKEQ_clean_linker_1, # of connection points: 2
#     Edge 12, Type (0, 0), BuildingBlock: KIFKEQ_clean_linker_1, # of connection points: 2
#     Edge 13, Type (0, 0), BuildingBlock: KIFKEQ_clean_linker_1, # of connection points: 2
#     Edge 14, Type (0, 0), BuildingBlock: KIFKEQ_clean_linker_1, # of connection points: 2
#     Edge 15, Type (0, 0), BuildingBlock: KIFKEQ_clean_linker_1, # of connection points: 2
#     Edge 16, Type (0, 0), BuildingBlock: KIFKEQ_clean_linker_1, # of connection points: 2
#     Edge 17, Type (0, 0), BuildingBlock: KIFKEQ_clean_linker_1, # of connection points: 2
#     Edge 18, Type (0, 0), BuildingBlock: KIFKEQ_clean_linker_1, # of connection points: 2
#     Edge 19, Type (0, 0), BuildingBlock: KIFKEQ_clean_linker_1, # of connection points: 2
#     Edge 20, Type (0, 0), BuildingBlock: KIFKEQ_clean_linker_1, # of connection points: 2
#     Edge 21, Type (0, 0), BuildingBlock: KIFKEQ_clean_linker_1, # of connection points: 2
#     Edge 22, Type (0, 0), BuildingBlock: KIFKEQ_clean_linker_1, # of connection points: 2
#     Edge 23, Type (0, 0), BuildingBlock: KIFKEQ_clean_linker_1, # of connection points: 2
# Relax obj value: 0.177
# Max RMSD: 0.147
# Mean RMSD: 0.147
data_MOF--net-uov--node1-GALJAG_clean_sbu_0--edge1-KIFKEQ_clean_linker_1
_symmetry_space_group_name_H-M    P1
_symmetry_Int_Tables_number       1
_symmetry_cell_setting            triclinic
loop_
_symmetry_equiv_pos_as_xyz
'x, y, z'
_cell_length_a     29.324887
_cell_length_b     29.303958
_cell_length_c     47.321055
_cell_angle_alpha  89.979287
_cell_angle_beta   90.014457
_cell_angle_gamma 89.996424
loop_
_atom_site_label
_atom_site_type_symbol
_atom_site_fract_x
_atom_site_fract_y
_atom_site_fract_z
_atom_type_partial_charge
In0 In 0.04859 0.24091 0.61043 0.0
O1 O 0.06829 0.31586 0.61344 0.0
O2 O 0.00513 0.2955 0.63158 0.0
C3 C 0.10792 0.22762 0.56747 0.0
C4 C 0.07693 0.20476 0.65987 0.0
C5 C 0.97656 0.20221 0.58417 0.0
O6 O 0.07841 0.25886 0.56714 0.0
O7 O 0.1086 0.20431 0.58985 0.0
O8 O 0.00641 0.17905 0.59695 0.0
O9 O 0.98197 0.24478 0.58578 0.0
C10 C 0.03249 0.32764 0.62633 0.0
O11 O 0.03781 0.19685 0.64982 0.0
O12 O 0.10131 0.23102 0.6451 0.0
In13 In 0.23388 0.96718 0.38573 0.0
O14 O 0.30589 0.943 0.39474 0.0
O15 O 0.29611 0.98828 0.36001 0.0
C16 C 0.19058 0.92252 0.42773 0.0
C17 C 0.19768 0.93121 0.33827 0.0
C18 C 0.22517 0.05135 0.40816 0.0
O19 O 0.23141 0.9138 0.42116 0.0
O20 O 0.17171 0.95256 0.41268 0.0
O21 O 0.19803 0.03659 0.38952 0.0
O22 O 0.25715 0.02447 0.41435 0.0
C23 C 0.32383 0.96574 0.37496 0.0
O24 O 0.1971 0.9736 0.34318 0.0
O25 O 0.21672 0.90746 0.35712 0.0
In26 In 0.9338 0.74419 0.60949 0.0
O27 O 0.91345 0.66942 0.61294 0.0
O28 O 0.97656 0.68956 0.6312 0.0
C29 C 0.87539 0.7565 0.56592 0.0
C30 C 0.90567 0.78254 0.65831 0.0
C31 C 0.00605 0.78317 0.58368 0.0
O32 O 0.90624 0.72659 0.56559 0.0
O33 O 0.87291 0.7789 0.5886 0.0
O34 O 0.97543 0.80619 0.59581 0.0
O35 O 0.00123 0.74055 0.58567 0.0
C36 C 0.94904 0.65755 0.62602 0.0
O37 O 0.94502 0.78928 0.6483 0.0
O38 O 0.88093 0.75612 0.64388 0.0
In39 In 0.75148 0.01896 0.38457 0.0
O40 O 0.67933 0.04215 0.39398 0.0
O41 O 0.68916 -0.00284 0.35913 0.0
C42 C 0.79459 0.06396 0.42657 0.0
C43 C 0.7866 0.05494 0.33676 0.0
C44 C 0.76065 0.93457 0.40668 0.0
O45 O 0.7538 0.07257 0.41989 0.0
O46 O 0.81358 0.03395 0.41159 0.0
O47 O 0.78783 0.94977 0.3882 0.0
O48 O 0.72847 0.96117 0.41291 0.0
C49 C 0.66139 0.01927 0.37428 0.0
O50 O 0.78922 0.01286 0.34235 0.0
O51 O 0.76613 0.07845 0.35512 0.0
In52 In 0.95699 0.24097 0.11609 0.0
O53 O 0.96391 0.20049 0.15728 0.0
O54 O 0.89789 0.22302 0.14541 0.0
C55 C 0.03689 0.21994 0.0912 0.0
C56 C 0.96605 0.32945 0.13043 0.0
C57 C 0.90782 0.21059 0.07173 0.0
O58 O 0.01975 0.19587 0.11066 0.0
O59 O 0.01485 0.25572 0.08542 0.0
O60 O 0.90487 0.25124 0.08037 0.0
O61 O 0.93365 0.18539 0.08618 0.0
C62 C 0.92196 0.20173 0.1631 0.0
O63 O 0.9333 0.31486 0.11567 0.0
O64 O 0.99385 0.29921 0.13844 0.0
In65 In 0.23943 0.03323 0.88708 0.0
O66 O 0.31257 0.05907 0.88842 0.0
O67 O 0.29844 0.00044 0.86336 0.0
C68 C 0.20505 0.08131 0.93072 0.0
C69 C 0.20015 0.06776 0.83998 0.0
C70 C 0.22602 0.95172 0.91205 0.0
O71 O 0.24535 0.08718 0.92204 0.0
O72 O 0.18216 0.05264 0.91684 0.0
O73 O 0.19952 0.96682 0.89314 0.0
O74 O 0.25976 0.97697 0.91741 0.0
C75 C 0.32792 0.02823 0.87239 0.0
O76 O 0.19937 0.02567 0.84565 0.0
O77 O 0.2205 0.09199 0.85798 0.0
In78 In 0.04238 0.75231 0.11157 0.0
O79 O 0.0645 0.67789 0.11287 0.0
O80 O 0.00156 0.69534 0.1324 0.0
C81 C 0.10105 0.76977 0.06879 0.0
C82 C 0.07063 0.78774 0.16121 0.0
C83 C 0.96856 0.78998 0.08664 0.0
O84 O 0.07152 0.7386 0.06744 0.0
O85 O 0.10198 0.79085 0.09198 0.0
O86 O -0.00133 0.81346 0.09894 0.0
O87 O 0.97464 0.74746 0.08808 0.0
C88 C 0.02973 0.66437 0.12617 0.0
O89 O 0.03143 0.79565 0.15127 0.0
O90 O 0.09496 0.76163 0.14634 0.0
In91 In 0.75425 0.97093 0.88324 0.0
O92 O 0.79045 0.97552 0.8404 0.0
O93 O 0.76732 0.91056 0.85429 0.0
C94 C 0.77447 0.0518 0.90711 0.0
C95 C 0.66511 0.97821 0.87084 0.0
C96 C 0.79216 0.92336 0.92598 0.0
O97 O 0.79797 0.03517 0.88721 0.0
O98 O 0.73979 0.02874 0.91376 0.0
O99 O 0.74971 0.92261 0.92138 0.0
O100 O 0.81495 0.94638 0.90847 0.0
C101 C 0.78723 0.93331 0.83535 0.0
O102 O 0.68084 0.94628 0.88593 0.0
O103 O 0.69449 0.00606 0.86172 0.0
H104 H 0.02633 0.62326 0.65014 0.0
H105 H 0.89538 0.58325 0.61642 0.0
H106 H 0.0469 0.54303 0.65595 0.0
H107 H 0.91614 0.50321 0.62184 0.0
H108 H 0.08603 0.40206 0.61687 0.0
H109 H 0.06508 0.48205 0.62218 0.0
H110 H 0.93394 0.44199 0.65559 0.0
H111 H 0.95472 0.36179 0.64989 0.0
C112 C 0.00175 0.59733 0.64429 0.0
C113 C 0.9594 0.60944 0.63262 0.0
C114 C 0.01362 0.55144 0.6475 0.0
C115 C 0.98328 0.51682 0.63918 0.0
C116 C 0.9401 0.52905 0.62872 0.0
C117 C 0.9283 0.57491 0.62544 0.0
C118 C 0.05298 0.41033 0.6257 0.0
C119 C 0.02185 0.37574 0.63273 0.0
C120 C 0.04107 0.45616 0.62892 0.0
C121 C -0.00225 0.46832 0.63918 0.0
C122 C 0.96734 0.43364 0.64731 0.0
C123 C 0.97932 0.38777 0.64416 0.0
H124 H 0.61387 0.98157 0.33031 0.0
H125 H 0.59654 0.04614 0.41169 0.0
H126 H 0.53146 0.96731 0.32805 0.0
H127 H 0.51477 0.03116 0.40955 0.0
H128 H 0.38898 0.93754 0.41185 0.0
H129 H 0.47083 0.95195 0.4094 0.0
H130 H 0.45352 0.01718 0.32833 0.0
H131 H 0.37106 0.00349 0.33091 0.0
C132 C 0.59243 0.99308 0.34753 0.0
C133 C 0.61154 0.01484 0.37121 0.0
C134 C 0.54544 0.98496 0.3462 0.0
C135 C 0.51714 -0.00226 0.36877 0.0
C136 C 0.53609 0.02056 0.39205 0.0
C137 C 0.58278 0.02936 0.39316 0.0
C138 C 0.40262 0.95447 0.39334 0.0
C139 C 0.37368 0.9696 0.37163 0.0
C140 C 0.44936 0.96293 0.39204 0.0
C141 C 0.46816 0.98602 0.36881 0.0
C142 C 0.43966 -0.00069 0.34644 0.0
C143 C 0.39264 0.99152 0.34795 0.0
H144 H 0.90889 0.39967 0.11742 0.0
H145 H 0.03972 0.36999 0.15518 0.0
H146 H 0.92448 0.48116 0.12116 0.0
H147 H 0.0552 0.45169 0.15911 0.0
H148 H 0.08737 0.59285 0.11738 0.0
H149 H 0.07099 0.51184 0.12338 0.0
H150 H 0.93677 0.54494 0.1549 0.0
H151 H 0.95306 0.62613 0.1487 0.0
C152 C 0.94068 0.4106 0.12692 0.0
C153 C 0.97323 0.37852 0.13582 0.0
C154 C 0.9495 0.45727 0.12921 0.0
C155 C 0.99117 0.47278 0.1403 0.0
C156 C 0.02301 0.44068 0.1502 0.0
C157 C 0.01405 0.39396 0.14807 0.0
C158 C 0.05457 0.58285 0.1259 0.0
C159 C 0.02137 0.61574 0.13239 0.0
C160 C 0.0453 0.53648 0.12951 0.0
C161 C 0.00254 0.52207 0.13953 0.0
C162 C 0.96985 0.55507 0.14687 0.0
C163 C 0.97925 0.60149 0.14344 0.0
H164 H 0.39626 0.08798 0.8848 0.0
H165 H 0.37042 0.95605 0.84735 0.0
H166 H 0.4782 0.07551 0.8799 0.0
H167 H 0.45247 0.94358 0.84251 0.0
H168 H 0.59667 0.91853 0.8832 0.0
H169 H 0.5147 0.93144 0.87891 0.0
H170 H 0.5403 0.0647 0.84329 0.0
H171 H 0.62239 0.05179 0.84751 0.0
C172 C 0.4081 0.0566 0.87518 0.0
C173 C 0.37704 0.02288 0.8666 0.0
C174 C 0.45496 0.04957 0.87224 0.0
C175 C 0.47161 0.00849 0.86093 0.0
C176 C 0.4405 0.97538 0.85152 0.0
C177 C 0.39361 0.98263 0.85417 0.0
C178 C 0.58479 0.95034 0.87414 0.0
C179 C 0.61583 0.98425 0.86583 0.0
C180 C 0.53791 0.95761 0.87154 0.0
C181 C 0.52123 -0.00088 0.86084 0.0
C182 C 0.5523 0.03254 0.8518 0.0
C183 C 0.59921 0.02506 0.85412 0.0
H184 H 0.2825 0.09212 0.44557 0.0
H185 H 0.14742 0.10275 0.40978 0.0
H186 H 0.26196 0.14736 0.48188 0.0
H187 H 0.12652 0.15738 0.44646 0.0
H188 H 0.10032 0.26131 0.51379 0.0
H189 H 0.13623 0.23095 0.47108 0.0
H190 H 0.21161 0.13461 0.52209 0.0
H191 H 0.17626 0.16513 0.56451 0.0
C192 C 0.24874 0.10712 0.44506 0.0
C193 C 0.21629 0.09263 0.42514 0.0
C194 C 0.23693 0.13858 0.46594 0.0
C195 C 0.19238 0.15604 0.46739 0.0
C196 C 0.1612 0.1447 0.44589 0.0
C197 C 0.17311 0.11329 0.42489 0.0
C198 C 0.1254 0.23438 0.51586 0.0
C199 C 0.13525 0.21528 0.54243 0.0
C200 C 0.14574 0.21686 0.49141 0.0
C201 C 0.17656 0.18023 0.49316 0.0
C202 C 0.18845 0.1632 0.51997 0.0
C203 C 0.16796 0.18049 0.54432 0.0
H204 H 0.10478 0.94017 0.44624 0.0
H205 H 0.22314 0.85716 0.46397 0.0
H206 H 0.06575 0.90729 0.48671 0.0
H207 H 0.18402 0.82443 0.50499 0.0
H208 H 0.06996 0.73992 0.55144 0.0
H209 H 0.11851 0.77394 0.51524 0.0
H210 H 0.06947 0.90786 0.53831 0.0
H211 H 0.02032 0.87379 0.57413 0.0
C212 C 0.1225 0.91489 0.45884 0.0
C213 C 0.16699 0.90116 0.45191 0.0
C214 C 0.10028 0.89637 0.48222 0.0
C215 C 0.12198 0.86363 0.49925 0.0
C216 C 0.16639 0.84951 0.4922 0.0
C217 C 0.18877 0.86824 0.46877 0.0
C218 C 0.07018 0.77671 0.54911 0.0
C219 C 0.04102 0.80419 0.56541 0.0
C220 C 0.0981 0.79618 0.52842 0.0
C221 C 0.09732 0.84351 0.52365 0.0
C222 C 0.07012 0.87118 0.54112 0.0
C223 C 0.04223 0.85172 0.56178 0.0
H224 H 0.83908 0.88431 0.40889 0.0
H225 H 0.70268 0.89204 0.44294 0.0
H226 H 0.85954 0.82906 0.44532 0.0
H227 H 0.72275 0.83607 0.47895 0.0
H228 H 0.80542 0.81712 0.56259 0.0
H229 H 0.77097 0.84802 0.51999 0.0
H230 H 0.85068 0.75509 0.46914 0.0
H231 H 0.88575 0.72444 0.51204 0.0
C232 C 0.81304 0.87299 0.42354 0.0
C233 C 0.76957 0.89302 0.42342 0.0
C234 C 0.8247 0.84121 0.4444 0.0
C235 C 0.79297 0.82883 0.46536 0.0
C236 C 0.74822 0.84567 0.46347 0.0
C237 C 0.73667 0.87755 0.44275 0.0
C238 C 0.81487 0.80257 0.54238 0.0
C239 C 0.84857 0.76872 0.54062 0.0
C240 C 0.79489 0.82007 0.51791 0.0
C241 C 0.80827 0.80417 0.49111 0.0
C242 C 0.84004 0.76835 0.48946 0.0
C243 C 0.8599 0.75065 0.51402 0.0
H244 H 0.76177 0.12951 0.46255 0.0
H245 H 0.88001 0.0459 0.44569 0.0
H246 H 0.80028 0.16192 0.50388 0.0
H247 H 0.91844 0.07845 0.4865 0.0
H248 H 0.96211 0.11161 0.57446 0.0
H249 H 0.91369 0.07783 0.53813 0.0
H250 H 0.86584 0.21203 0.51464 0.0
H251 H 0.91366 0.24574 0.5513 0.0
C252 C 0.796 0.11824 0.4676 0.0
C253 C 0.81792 0.08524 0.45089 0.0
C254 C 0.81802 0.13678 0.49122 0.0
C255 C 0.86222 0.1224 0.49861 0.0
C256 C 0.88406 0.08958 0.48173 0.0
C257 C 0.8622 0.07126 0.45815 0.0
C258 C 0.9406 0.1338 0.5619 0.0
C259 C 0.94194 0.18132 0.56556 0.0
C260 C 0.91314 0.11451 0.54095 0.0
C261 C 0.88648 0.14234 0.52323 0.0
C262 C 0.88583 0.18966 0.52801 0.0
C263 C 0.91333 0.20896 0.54897 0.0
H264 H 0.72656 0.09828 0.94719 0.0
H265 H 0.85944 0.08941 0.90819 0.0
H266 H 0.75844 0.14583 0.98474 0.0
H267 H 0.89125 0.1366 0.94591 0.0
H268 H 0.93008 0.1349 0.04211 0.0
H269 H 0.89709 0.10783 0.99802 0.0
H270 H 0.80379 0.22178 0.99754 0.0
H271 H 0.83767 0.24974 0.04185 0.0
C272 C 0.76226 0.10765 0.94618 0.0
C273 C 0.79067 0.08971 0.92499 0.0
C274 C 0.78042 0.13494 0.96763 0.0
C275 C 0.82734 0.14422 0.96835 0.0
C276 C 0.85499 0.12947 0.9459 0.0
C277 C 0.83674 0.1027 0.92426 0.0
C278 C 0.90255 0.15429 0.03265 0.0
C279 C 0.88622 0.19427 0.04547 0.0
C280 C 0.88405 0.13906 0.00725 0.0
C281 C 0.84834 0.16307 0.99426 0.0
C282 C 0.83152 0.20288 0.00712 0.0
C283 C 0.85075 0.21872 0.03241 0.0
H284 H 0.23883 0.15583 0.95894 0.0
H285 H 0.1297 0.05681 0.96008 0.0
H286 H 0.20716 0.1916 0.00164 0.0
H287 H 0.09885 0.09184 0.00259 0.0
H288 H 0.076 0.13562 0.09134 0.0
H289 H 0.12424 0.10308 0.05445 0.0
H290 H 0.12982 0.23392 0.0127 0.0
H291 H 0.08125 0.26659 0.0495 0.0
C292 C 0.20827 0.1417 0.96835 0.0
C293 C 0.18655 0.10374 0.95616 0.0
C294 C 0.19027 0.16206 0.99271 0.0
C295 C 0.15095 0.14408 0.00552 0.0
C296 C 0.12964 0.10592 0.9934 0.0
C297 C 0.14705 0.08617 0.96891 0.0
C298 C 0.08852 0.15777 0.07474 0.0
C299 C 0.07443 0.20349 0.07309 0.0
C300 C 0.11592 0.13907 0.05357 0.0
C301 C 0.13015 0.1659 0.0306 0.0
C302 C 0.11935 0.21256 0.03023 0.0
C303 C 0.09149 0.23118 0.05125 0.0
H304 H 0.09438 0.74028 0.0141 0.0
H305 H 0.16883 0.83299 0.06799 0.0
H306 H 0.13144 0.7735 0.97258 0.0
H307 H 0.2052 0.86646 0.02677 0.0
H308 H 0.28015 0.91135 0.95153 0.0
H309 H 0.25705 0.85615 0.9873 0.0
H310 H 0.12349 0.8478 0.94906 0.0
H311 H 0.14699 0.9023 0.91291 0.0
C312 C 0.11929 0.76713 0.0171 0.0
C313 C 0.1285 0.78431 0.04424 0.0
C314 C 0.14028 0.78631 0.99334 0.0
C315 C 0.17108 0.82277 0.99634 0.0
C316 C 0.18211 0.83805 0.02367 0.0
C317 C 0.16102 0.81907 0.04733 0.0
C318 C 0.24622 0.89687 0.95036 0.0
C319 C 0.21514 0.91159 0.92968 0.0
C320 C 0.23292 0.86542 0.97094 0.0
C321 C 0.18821 0.84819 0.97132 0.0
C322 C 0.15827 0.86021 0.94929 0.0
C323 C 0.17166 0.8916 0.92862 0.0
H324 H 0.87962 0.93349 0.94332 0.0
H325 H 0.75333 0.86633 0.96529 0.0
H326 H 0.91539 0.90261 0.98552 0.0
H327 H 0.78963 0.835 0.00787 0.0
H328 H 0.90236 0.74617 0.05638 0.0
H329 H 0.85435 0.77891 0.0193 0.0
H330 H 0.90785 0.91276 0.03812 0.0
H331 H 0.95592 0.88016 0.07505 0.0
C332 C 0.85951 0.91195 0.95714 0.0
C333 C 0.81368 0.90224 0.95098 0.0
C334 C 0.87991 0.89465 0.98147 0.0
C335 C 0.85511 0.86691 0.00015 0.0
C336 C 0.80945 0.8564 0.99382 0.0
C337 C 0.78876 0.87424 0.9695 0.0
C338 C 0.90308 0.78273 0.05302 0.0
C339 C 0.93326 0.81056 0.06838 0.0
C340 C 0.87552 0.80144 0.03184 0.0
C341 C 0.87795 0.84822 0.02559 0.0
C342 C 0.90589 0.87644 0.04223 0.0
C343 C 0.9332 0.85782 0.06347 0.0
H344 H 0.158 0.22054 0.68607 0.0
H345 H 0.03333 0.14305 0.69389 0.0
H346 H 0.18624 0.18675 0.72973 0.0
H347 H 0.06149 0.10948 0.73793 0.0
H348 H 0.15316 0.0234 0.79816 0.0
H349 H 0.12187 0.05636 0.75474 0.0
H350 H 0.1695 0.18953 0.78044 0.0
H351 H 0.2011 0.15666 0.82346 0.0
C352 C 0.13654 0.1964 0.6972 0.0
C353 C 0.09342 0.18451 0.6866 0.0
C354 C 0.15263 0.17721 0.72229 0.0
C355 C 0.12603 0.14556 0.73735 0.0
C356 C 0.08293 0.13347 0.72668 0.0
C357 C 0.06671 0.15288 0.70158 0.0
C358 C 0.15679 0.05972 0.79451 0.0
C359 C 0.17975 0.08741 0.81413 0.0
C360 C 0.13868 0.07861 0.76975 0.0
C361 C 0.14342 0.12551 0.7641 0.0
C362 C 0.16587 0.15318 0.78396 0.0
C363 C 0.18377 0.13437 0.80869 0.0
H364 H 0.15185 0.77175 0.18717 0.0
H365 H 0.028 0.85059 0.1949 0.0
H366 H 0.18144 0.80705 0.22999 0.0
H367 H 0.05754 0.88571 0.23811 0.0
H368 H 0.19871 0.84169 0.32313 0.0
H369 H 0.16618 0.80699 0.28093 0.0
H370 H 0.11898 0.93919 0.25304 0.0
H371 H 0.15121 0.97399 0.29561 0.0
C372 C 0.13083 0.79646 0.19812 0.0
C373 C 0.08757 0.80834 0.18771 0.0
C374 C 0.14771 0.81654 0.22273 0.0
C375 C 0.12179 0.84911 0.23747 0.0
C376 C 0.07847 0.86103 0.22707 0.0
C377 C 0.06145 0.84072 0.20246 0.0
C378 C 0.18137 0.86339 0.30802 0.0
C379 C 0.17765 0.9106 0.31261 0.0
C380 C 0.1629 0.84352 0.28378 0.0
C381 C 0.14016 0.87036 0.2636 0.0
C382 C 0.13596 0.91756 0.26834 0.0
C383 C 0.15465 0.93751 0.29259 0.0
H384 H 0.9504 0.8447 0.69132 0.0
H385 H 0.82368 0.77042 0.68424 0.0
H386 H 0.92241 0.88169 0.73427 0.0
H387 H 0.79556 0.8077 0.72683 0.0
H388 H 0.83441 0.97383 0.79217 0.0
H389 H 0.86381 0.93754 0.74932 0.0
H390 H 0.81094 0.80777 0.77767 0.0
H391 H 0.78118 0.844 0.82014 0.0
C392 C 0.9166 0.83629 0.69894 0.0
C393 C 0.88928 0.80457 0.68449 0.0
C394 C 0.90047 0.85769 0.72341 0.0
C395 C 0.8568 0.84759 0.73396 0.0
C396 C 0.82958 0.81579 0.71946 0.0
C397 C 0.84561 0.79457 0.69498 0.0
C398 C 0.82909 0.93758 0.78919 0.0
C399 C 0.80537 0.91179 0.80944 0.0
C400 C 0.84614 0.91675 0.76476 0.0
C401 C 0.8396 0.8698 0.76008 0.0
C402 C 0.81601 0.8441 0.78045 0.0
C403 C 0.79915 0.86484 0.80486 0.0
H404 H 0.77662 0.14229 0.31822 0.0
H405 H 0.84109 0.01419 0.29718 0.0
H406 H 0.80964 0.17712 0.27613 0.0
H407 H 0.87414 0.04916 0.25489 0.0
H408 H 0.96499 0.14602 0.20102 0.0
H409 H 0.9321 0.10946 0.2428 0.0
H410 H 0.80171 0.17082 0.22387 0.0
H411 H 0.83452 0.2074 0.18223 0.0
C412 C 0.79777 0.12154 0.30455 0.0
C413 C 0.80624 0.0755 0.31096 0.0
C414 C 0.8165 0.14144 0.28038 0.0
C415 C 0.84442 0.11585 0.2622 0.0
C416 C 0.85306 0.06981 0.26865 0.0
C417 C 0.83395 0.04975 0.29274 0.0
C418 C 0.92932 0.15168 0.20582 0.0
C419 C 0.90235 0.17966 0.18842 0.0
C420 C 0.91045 0.13054 0.22961 0.0
C421 C 0.86435 0.13732 0.2366 0.0
C422 C 0.83745 0.16533 0.21918 0.0
C423 C 0.85619 0.18612 0.19528 0.0
loop_
_geom_bond_atom_site_label_1
_geom_bond_atom_site_label_2
_geom_bond_distance
_geom_bond_site_symmetry_2
_ccdc_geom_bond_type
In0 O1 2.294 . S
In0 O2 2.326 . S
In0 O6 2.266 . S
In0 O7 2.326 . S
In0 O8 2.266 . S
In0 O9 2.326 . S
In0 O11 2.294 . S
In0 O12 2.326 . S
O1 In0 2.294 . S
O1 C10 1.240 . S
O2 In0 2.326 . S
O2 C10 1.252 . S
C3 O6 1.252 . S
C3 O7 1.260 . S
C4 O11 1.240 . S
C4 O12 1.252 . S
C5 O8 1.252 . S
C5 O9 1.260 . S
O6 In0 2.266 . S
O6 C3 1.252 . S
O7 In0 2.326 . S
O7 C3 1.260 . S
O8 In0 2.266 . S
O8 C5 1.252 . S
O9 In0 2.326 . S
O9 C5 1.260 . S
C10 O1 1.240 . S
C10 O2 1.252 . S
O11 In0 2.294 . S
O11 C4 1.240 . S
O12 In0 2.326 . S
O12 C4 1.252 . S
In13 O14 2.294 . S
In13 O15 2.326 . S
In13 O19 2.266 . S
In13 O20 2.326 . S
In13 O21 2.266 . S
In13 O22 2.326 . S
In13 O24 2.294 . S
In13 O25 2.326 . S
O14 In13 2.294 . S
O14 C23 1.240 . S
O15 In13 2.326 . S
O15 C23 1.252 . S
C16 O19 1.252 . S
C16 O20 1.260 . S
C17 O24 1.240 . S
C17 O25 1.252 . S
C18 O21 1.252 . S
C18 O22 1.260 . S
O19 In13 2.266 . S
O19 C16 1.252 . S
O20 In13 2.326 . S
O20 C16 1.260 . S
O21 In13 2.266 . S
O21 C18 1.252 . S
O22 In13 2.326 . S
O22 C18 1.260 . S
C23 O14 1.240 . S
C23 O15 1.252 . S
O24 In13 2.294 . S
O24 C17 1.240 . S
O25 In13 2.326 . S
O25 C17 1.252 . S
In26 O27 2.294 . S
In26 O28 2.326 . S
In26 O32 2.266 . S
In26 O33 2.326 . S
In26 O34 2.266 . S
In26 O35 2.326 . S
In26 O37 2.294 . S
In26 O38 2.326 . S
O27 In26 2.294 . S
O27 C36 1.240 . S
O28 In26 2.326 . S
O28 C36 1.252 . S
C29 O32 1.252 . S
C29 O33 1.260 . S
C30 O37 1.240 . S
C30 O38 1.252 . S
C31 O34 1.252 . S
C31 O35 1.260 . S
O32 In26 2.266 . S
O32 C29 1.252 . S
O33 In26 2.326 . S
O33 C29 1.260 . S
O34 In26 2.266 . S
O34 C31 1.252 . S
O35 In26 2.326 . S
O35 C31 1.260 . S
C36 O27 1.240 . S
C36 O28 1.252 . S
O37 In26 2.294 . S
O37 C30 1.240 . S
O38 In26 2.326 . S
O38 C30 1.252 . S
In39 O40 2.294 . S
In39 O41 2.326 . S
In39 O45 2.266 . S
In39 O46 2.326 . S
In39 O47 2.266 . S
In39 O48 2.326 . S
In39 O50 2.294 . S
In39 O51 2.326 . S
O40 In39 2.294 . S
O40 C49 1.240 . S
O41 In39 2.326 . S
O41 C49 1.252 . S
C42 O45 1.252 . S
C42 O46 1.260 . S
C43 O50 1.240 . S
C43 O51 1.252 . S
C44 O47 1.252 . S
C44 O48 1.260 . S
O45 In39 2.266 . S
O45 C42 1.252 . S
O46 In39 2.326 . S
O46 C42 1.260 . S
O47 In39 2.266 . S
O47 C44 1.252 . S
O48 In39 2.326 . S
O48 C44 1.260 . S
C49 O40 1.240 . S
C49 O41 1.252 . S
O50 In39 2.294 . S
O50 C43 1.240 . S
O51 In39 2.326 . S
O51 C43 1.252 . S
In52 O53 2.294 . S
In52 O54 2.326 . S
In52 O58 2.266 . S
In52 O59 2.326 . S
In52 O60 2.266 . S
In52 O61 2.326 . S
In52 O63 2.294 . S
In52 O64 2.326 . S
O53 In52 2.294 . S
O53 C62 1.240 . S
O54 In52 2.326 . S
O54 C62 1.252 . S
C55 O58 1.252 . S
C55 O59 1.260 . S
C56 O63 1.240 . S
C56 O64 1.252 . S
C57 O60 1.252 . S
C57 O61 1.260 . S
O58 In52 2.266 . S
O58 C55 1.252 . S
O59 In52 2.326 . S
O59 C55 1.260 . S
O60 In52 2.266 . S
O60 C57 1.252 . S
O61 In52 2.326 . S
O61 C57 1.260 . S
C62 O53 1.240 . S
C62 O54 1.252 . S
O63 In52 2.294 . S
O63 C56 1.240 . S
O64 In52 2.326 . S
O64 C56 1.252 . S
In65 O66 2.294 . S
In65 O67 2.326 . S
In65 O71 2.266 . S
In65 O72 2.326 . S
In65 O73 2.266 . S
In65 O74 2.326 . S
In65 O76 2.294 . S
In65 O77 2.326 . S
O66 In65 2.294 . S
O66 C75 1.240 . S
O67 In65 2.326 . S
O67 C75 1.252 . S
C68 O71 1.252 . S
C68 O72 1.260 . S
C69 O76 1.240 . S
C69 O77 1.252 . S
C70 O73 1.252 . S
C70 O74 1.260 . S
O71 In65 2.266 . S
O71 C68 1.252 . S
O72 In65 2.326 . S
O72 C68 1.260 . S
O73 In65 2.266 . S
O73 C70 1.252 . S
O74 In65 2.326 . S
O74 C70 1.260 . S
C75 O66 1.240 . S
C75 O67 1.252 . S
O76 In65 2.294 . S
O76 C69 1.240 . S
O77 In65 2.326 . S
O77 C69 1.252 . S
In78 O79 2.294 . S
In78 O80 2.326 . S
In78 O84 2.266 . S
In78 O85 2.326 . S
In78 O86 2.266 . S
In78 O87 2.326 . S
In78 O89 2.294 . S
In78 O90 2.326 . S
O79 In78 2.294 . S
O79 C88 1.240 . S
O80 In78 2.326 . S
O80 C88 1.252 . S
C81 O84 1.252 . S
C81 O85 1.260 . S
C82 O89 1.240 . S
C82 O90 1.252 . S
C83 O86 1.252 . S
C83 O87 1.260 . S
O84 In78 2.266 . S
O84 C81 1.252 . S
O85 In78 2.326 . S
O85 C81 1.260 . S
O86 In78 2.266 . S
O86 C83 1.252 . S
O87 In78 2.326 . S
O87 C83 1.260 . S
C88 O79 1.240 . S
C88 O80 1.252 . S
O89 In78 2.294 . S
O89 C82 1.240 . S
O90 In78 2.326 . S
O90 C82 1.252 . S
In91 O92 2.294 . S
In91 O93 2.326 . S
In91 O97 2.266 . S
In91 O98 2.326 . S
In91 O99 2.266 . S
In91 O100 2.326 . S
In91 O102 2.294 . S
In91 O103 2.326 . S
O92 In91 2.294 . S
O92 C101 1.240 . S
O93 In91 2.326 . S
O93 C101 1.252 . S
C94 O97 1.252 . S
C94 O98 1.260 . S
C95 O102 1.240 . S
C95 O103 1.252 . S
C96 O99 1.252 . S
C96 O100 1.260 . S
O97 In91 2.266 . S
O97 C94 1.252 . S
O98 In91 2.326 . S
O98 C94 1.260 . S
O99 In91 2.266 . S
O99 C96 1.252 . S
O100 In91 2.326 . S
O100 C96 1.260 . S
C101 O92 1.240 . S
C101 O93 1.252 . S
O102 In91 2.294 . S
O102 C95 1.240 . S
O103 In91 2.326 . S
O103 C95 1.252 . S
H104 C112 0.950 . S
H105 C117 0.950 . S
H106 C114 0.950 . S
H107 C116 0.950 . S
H108 C118 0.950 . S
H109 C120 0.950 . S
H110 C122 0.950 . S
H111 C123 0.950 . S
C112 H104 0.950 . S
C112 C113 1.386 . S
C112 C114 1.391 . S
C113 C112 1.386 . S
C113 C117 1.393 . S
C114 H106 0.950 . S
C114 C112 1.391 . S
C114 C115 1.400 . S
C115 C114 1.400 . S
C115 C116 1.398 . S
C115 C121 1.491 1_655 S
C116 H107 0.950 . S
C116 C115 1.398 . S
C116 C117 1.391 . S
C117 H105 0.950 . S
C117 C113 1.393 . S
C117 C116 1.391 . S
C118 H108 0.950 . S
C118 C119 1.386 . S
C118 C120 1.391 . S
C119 C118 1.386 . S
C119 C123 1.393 . S
C120 H109 0.950 . S
C120 C118 1.391 . S
C120 C121 1.400 . S
C121 C115 1.491 1_455 S
C121 C120 1.400 . S
C121 C122 1.398 . S
C122 H110 0.950 . S
C122 C121 1.398 . S
C122 C123 1.391 . S
C123 H111 0.950 . S
C123 C119 1.393 . S
C123 C122 1.391 . S
H124 C132 0.950 . S
H125 C137 0.950 . S
H126 C134 0.950 . S
H127 C136 0.950 1_565 S
H128 C138 0.950 . S
H129 C140 0.950 . S
H130 C142 0.950 1_545 S
H131 C143 0.950 . S
C132 H124 0.950 . S
C132 C133 1.386 . S
C132 C134 1.391 . S
C133 C132 1.386 . S
C133 C137 1.393 . S
C134 H126 0.950 . S
C134 C132 1.391 . S
C134 C135 1.400 . S
C135 C134 1.400 . S
C135 C136 1.398 . S
C135 C141 1.491 1_545 S
C136 H127 0.950 1_545 S
C136 C135 1.398 . S
C136 C137 1.391 . S
C137 H125 0.950 . S
C137 C133 1.393 . S
C137 C136 1.391 . S
C138 H128 0.950 . S
C138 C139 1.386 . S
C138 C140 1.391 . S
C139 C138 1.386 . S
C139 C143 1.393 . S
C140 H129 0.950 . S
C140 C138 1.391 . S
C140 C141 1.400 . S
C141 C135 1.491 1_565 S
C141 C140 1.400 . S
C141 C142 1.398 . S
C142 H130 0.950 1_565 S
C142 C141 1.398 . S
C142 C143 1.391 . S
C143 H131 0.950 . S
C143 C139 1.393 . S
C143 C142 1.391 . S
H144 C152 0.950 . S
H145 C157 0.950 1_455 S
H146 C154 0.950 . S
H147 C156 0.950 . S
H148 C158 0.950 . S
H149 C160 0.950 . S
H150 C162 0.950 . S
H151 C163 0.950 1_655 S
C152 H144 0.950 . S
C152 C153 1.386 . S
C152 C154 1.391 . S
C153 C152 1.386 . S
C153 C157 1.393 . S
C154 H146 0.950 . S
C154 C152 1.391 . S
C154 C155 1.400 . S
C155 C154 1.400 . S
C155 C156 1.398 1_655 S
C155 C161 1.491 1_655 S
C156 H147 0.950 . S
C156 C155 1.398 1_455 S
C156 C157 1.391 1_455 S
C157 H145 0.950 1_655 S
C157 C153 1.393 . S
C157 C156 1.391 1_655 S
C158 H148 0.950 . S
C158 C159 1.386 . S
C158 C160 1.391 . S
C159 C158 1.386 . S
C159 C163 1.393 . S
C160 H149 0.950 . S
C160 C158 1.391 . S
C160 C161 1.400 . S
C161 C155 1.491 1_455 S
C161 C160 1.400 . S
C161 C162 1.398 1_455 S
C162 H150 0.950 . S
C162 C161 1.398 1_655 S
C162 C163 1.391 1_655 S
C163 H151 0.950 1_455 S
C163 C159 1.393 . S
C163 C162 1.391 1_455 S
H164 C172 0.950 . S
H165 C177 0.950 . S
H166 C174 0.950 . S
H167 C176 0.950 . S
H168 C178 0.950 . S
H169 C180 0.950 . S
H170 C182 0.950 . S
H171 C183 0.950 . S
C172 H164 0.950 . S
C172 C173 1.386 . S
C172 C174 1.391 . S
C173 C172 1.386 . S
C173 C177 1.393 . S
C174 H166 0.950 . S
C174 C172 1.391 . S
C174 C175 1.400 . S
C175 C174 1.400 . S
C175 C176 1.398 1_545 S
C175 C181 1.491 1_545 S
C176 H167 0.950 . S
C176 C175 1.398 1_565 S
C176 C177 1.391 1_565 S
C177 H165 0.950 . S
C177 C173 1.393 . S
C177 C176 1.391 1_545 S
C178 H168 0.950 . S
C178 C179 1.386 . S
C178 C180 1.391 . S
C179 C178 1.386 . S
C179 C183 1.393 . S
C180 H169 0.950 . S
C180 C178 1.391 . S
C180 C181 1.400 . S
C181 C175 1.491 1_565 S
C181 C180 1.400 . S
C181 C182 1.398 1_565 S
C182 H170 0.950 . S
C182 C181 1.398 1_545 S
C182 C183 1.391 1_545 S
C183 H171 0.950 . S
C183 C179 1.393 . S
C183 C182 1.391 1_565 S
H184 C192 0.950 . S
H185 C197 0.950 . S
H186 C194 0.950 . S
H187 C196 0.950 . S
H188 C198 0.950 . S
H189 C200 0.950 . S
H190 C202 0.950 . S
H191 C203 0.950 . S
C192 H184 0.950 . S
C192 C193 1.386 1_565 S
C192 C194 1.391 1_565 S
C193 C192 1.386 1_545 S
C193 C197 1.393 . S
C194 H186 0.950 . S
C194 C192 1.391 1_545 S
C194 C195 1.400 . S
C195 C194 1.400 . S
C195 C196 1.398 . S
C195 C201 1.491 . S
C196 H187 0.950 . S
C196 C195 1.398 . S
C196 C197 1.391 . S
C197 H185 0.950 . S
C197 C193 1.393 . S
C197 C196 1.391 . S
C198 H188 0.950 . S
C198 C199 1.386 . S
C198 C200 1.391 . S
C199 C198 1.386 . S
C199 C203 1.393 . S
C200 H189 0.950 . S
C200 C198 1.391 . S
C200 C201 1.400 . S
C201 C195 1.491 . S
C201 C200 1.400 . S
C201 C202 1.398 . S
C202 H190 0.950 . S
C202 C201 1.398 . S
C202 C203 1.391 . S
C203 H191 0.950 . S
C203 C199 1.393 . S
C203 C202 1.391 . S
H204 C212 0.950 . S
H205 C217 0.950 . S
H206 C214 0.950 . S
H207 C216 0.950 . S
H208 C218 0.950 . S
H209 C220 0.950 . S
H210 C222 0.950 . S
H211 C223 0.950 1_655 S
C212 H204 0.950 . S
C212 C213 1.386 . S
C212 C214 1.391 . S
C213 C212 1.386 . S
C213 C217 1.393 . S
C214 H206 0.950 . S
C214 C212 1.391 . S
C214 C215 1.400 . S
C215 C214 1.400 . S
C215 C216 1.398 . S
C215 C221 1.491 . S
C216 H207 0.950 . S
C216 C215 1.398 . S
C216 C217 1.391 . S
C217 H205 0.950 . S
C217 C213 1.393 . S
C217 C216 1.391 . S
C218 H208 0.950 . S
C218 C219 1.386 . S
C218 C220 1.391 . S
C219 C218 1.386 . S
C219 C223 1.393 . S
C220 H209 0.950 . S
C220 C218 1.391 . S
C220 C221 1.400 . S
C221 C215 1.491 . S
C221 C220 1.400 . S
C221 C222 1.398 . S
C222 H210 0.950 . S
C222 C221 1.398 . S
C222 C223 1.391 . S
C223 H211 0.950 1_455 S
C223 C219 1.393 . S
C223 C222 1.391 . S
H224 C232 0.950 . S
H225 C237 0.950 1_545 S
H226 C234 0.950 . S
H227 C236 0.950 . S
H228 C238 0.950 . S
H229 C240 0.950 . S
H230 C242 0.950 . S
H231 C243 0.950 . S
C232 H224 0.950 . S
C232 C233 1.386 . S
C232 C234 1.391 . S
C233 C232 1.386 . S
C233 C237 1.393 . S
C234 H226 0.950 . S
C234 C232 1.391 . S
C234 C235 1.400 . S
C235 C234 1.400 . S
C235 C236 1.398 . S
C235 C241 1.491 . S
C236 H227 0.950 . S
C236 C235 1.398 . S
C236 C237 1.391 . S
C237 H225 0.950 1_565 S
C237 C233 1.393 . S
C237 C236 1.391 . S
C238 H228 0.950 . S
C238 C239 1.386 . S
C238 C240 1.391 . S
C239 C238 1.386 . S
C239 C243 1.393 . S
C240 H229 0.950 . S
C240 C238 1.391 . S
C240 C241 1.400 . S
C241 C235 1.491 . S
C241 C240 1.400 . S
C241 C242 1.398 . S
C242 H230 0.950 . S
C242 C241 1.398 . S
C242 C243 1.391 . S
C243 H231 0.950 . S
C243 C239 1.393 . S
C243 C242 1.391 . S
H244 C252 0.950 . S
H245 C257 0.950 . S
H246 C254 0.950 . S
H247 C256 0.950 . S
H248 C258 0.950 1_455 S
H249 C260 0.950 . S
H250 C262 0.950 . S
H251 C263 0.950 . S
C252 H244 0.950 . S
C252 C253 1.386 . S
C252 C254 1.391 . S
C253 C252 1.386 . S
C253 C257 1.393 . S
C254 H246 0.950 . S
C254 C252 1.391 . S
C254 C255 1.400 . S
C255 C254 1.400 . S
C255 C256 1.398 . S
C255 C261 1.491 . S
C256 H247 0.950 . S
C256 C255 1.398 . S
C256 C257 1.391 . S
C257 H245 0.950 . S
C257 C253 1.393 . S
C257 C256 1.391 . S
C258 H248 0.950 1_655 S
C258 C259 1.386 . S
C258 C260 1.391 . S
C259 C258 1.386 . S
C259 C263 1.393 . S
C260 H249 0.950 . S
C260 C258 1.391 . S
C260 C261 1.400 . S
C261 C255 1.491 . S
C261 C260 1.400 . S
C261 C262 1.398 . S
C262 H250 0.950 . S
C262 C261 1.398 . S
C262 C263 1.391 . S
C263 H251 0.950 . S
C263 C259 1.393 . S
C263 C262 1.391 . S
H264 C272 0.950 . S
H265 C277 0.950 1_565 S
H266 C274 0.950 . S
H267 C276 0.950 . S
H268 C278 0.950 . S
H269 C280 0.950 . S
H270 C282 0.950 . S
H271 C283 0.950 . S
C272 H264 0.950 . S
C272 C273 1.386 . S
C272 C274 1.391 . S
C273 C272 1.386 . S
C273 C277 1.393 . S
C274 H266 0.950 . S
C274 C272 1.391 . S
C274 C275 1.400 . S
C275 C274 1.400 . S
C275 C276 1.398 . S
C275 C281 1.491 1_556 S
C276 H267 0.950 . S
C276 C275 1.398 . S
C276 C277 1.391 . S
C277 H265 0.950 1_545 S
C277 C273 1.393 . S
C277 C276 1.391 . S
C278 H268 0.950 . S
C278 C279 1.386 . S
C278 C280 1.391 . S
C279 C278 1.386 . S
C279 C283 1.393 . S
C280 H269 0.950 . S
C280 C278 1.391 . S
C280 C281 1.400 . S
C281 C275 1.491 1_554 S
C281 C280 1.400 . S
C281 C282 1.398 . S
C282 H270 0.950 . S
C282 C281 1.398 . S
C282 C283 1.391 . S
C283 H271 0.950 . S
C283 C279 1.393 . S
C283 C282 1.391 . S
H284 C292 0.950 . S
H285 C297 0.950 . S
H286 C294 0.950 . S
H287 C296 0.950 . S
H288 C298 0.950 . S
H289 C300 0.950 . S
H290 C302 0.950 . S
H291 C303 0.950 . S
C292 H284 0.950 . S
C292 C293 1.386 . S
C292 C294 1.391 . S
C293 C292 1.386 . S
C293 C297 1.393 . S
C294 H286 0.950 . S
C294 C292 1.391 . S
C294 C295 1.400 . S
C295 C294 1.400 . S
C295 C296 1.398 . S
C295 C301 1.491 1_556 S
C296 H287 0.950 . S
C296 C295 1.398 . S
C296 C297 1.391 . S
C297 H285 0.950 . S
C297 C293 1.393 . S
C297 C296 1.391 . S
C298 H288 0.950 . S
C298 C299 1.386 . S
C298 C300 1.391 . S
C299 C298 1.386 . S
C299 C303 1.393 . S
C300 H289 0.950 . S
C300 C298 1.391 . S
C300 C301 1.400 . S
C301 C295 1.491 1_554 S
C301 C300 1.400 . S
C301 C302 1.398 . S
C302 H290 0.950 . S
C302 C301 1.398 . S
C302 C303 1.391 . S
C303 H291 0.950 . S
C303 C299 1.393 . S
C303 C302 1.391 . S
H304 C312 0.950 . S
H305 C317 0.950 . S
H306 C314 0.950 1_556 S
H307 C316 0.950 . S
H308 C318 0.950 . S
H309 C320 0.950 1_554 S
H310 C322 0.950 . S
H311 C323 0.950 . S
C312 H304 0.950 . S
C312 C313 1.386 . S
C312 C314 1.391 . S
C313 C312 1.386 . S
C313 C317 1.393 . S
C314 H306 0.950 1_554 S
C314 C312 1.391 . S
C314 C315 1.400 . S
C315 C314 1.400 . S
C315 C316 1.398 . S
C315 C321 1.491 1_554 S
C316 H307 0.950 . S
C316 C315 1.398 . S
C316 C317 1.391 . S
C317 H305 0.950 . S
C317 C313 1.393 . S
C317 C316 1.391 . S
C318 H308 0.950 . S
C318 C319 1.386 1_545 S
C318 C320 1.391 1_545 S
C319 C318 1.386 1_565 S
C319 C323 1.393 . S
C320 H309 0.950 1_556 S
C320 C318 1.391 1_565 S
C320 C321 1.400 . S
C321 C315 1.491 1_556 S
C321 C320 1.400 . S
C321 C322 1.398 . S
C322 H310 0.950 . S
C322 C321 1.398 . S
C322 C323 1.391 . S
C323 H311 0.950 . S
C323 C319 1.393 . S
C323 C322 1.391 . S
H324 C332 0.950 . S
H325 C337 0.950 . S
H326 C334 0.950 . S
H327 C336 0.950 . S
H328 C338 0.950 . S
H329 C340 0.950 . S
H330 C342 0.950 . S
H331 C343 0.950 . S
C332 H324 0.950 . S
C332 C333 1.386 . S
C332 C334 1.391 . S
C333 C332 1.386 . S
C333 C337 1.393 . S
C334 H326 0.950 . S
C334 C332 1.391 . S
C334 C335 1.400 . S
C335 C334 1.400 . S
C335 C336 1.398 . S
C335 C341 1.491 1_556 S
C336 H327 0.950 . S
C336 C335 1.398 . S
C336 C337 1.391 . S
C337 H325 0.950 . S
C337 C333 1.393 . S
C337 C336 1.391 . S
C338 H328 0.950 . S
C338 C339 1.386 . S
C338 C340 1.391 . S
C339 C338 1.386 . S
C339 C343 1.393 . S
C340 H329 0.950 . S
C340 C338 1.391 . S
C340 C341 1.400 . S
C341 C335 1.491 1_554 S
C341 C340 1.400 . S
C341 C342 1.398 . S
C342 H330 0.950 . S
C342 C341 1.398 . S
C342 C343 1.391 . S
C343 H331 0.950 . S
C343 C339 1.393 . S
C343 C342 1.391 . S
H344 C352 0.950 . S
H345 C357 0.950 . S
H346 C354 0.950 . S
H347 C356 0.950 . S
H348 C358 0.950 . S
H349 C360 0.950 . S
H350 C362 0.950 . S
H351 C363 0.950 . S
C352 H344 0.950 . S
C352 C353 1.386 . S
C352 C354 1.391 . S
C353 C352 1.386 . S
C353 C357 1.393 . S
C354 H346 0.950 . S
C354 C352 1.391 . S
C354 C355 1.400 . S
C355 C354 1.400 . S
C355 C356 1.398 . S
C355 C361 1.491 . S
C356 H347 0.950 . S
C356 C355 1.398 . S
C356 C357 1.391 . S
C357 H345 0.950 . S
C357 C353 1.393 . S
C357 C356 1.391 . S
C358 H348 0.950 . S
C358 C359 1.386 . S
C358 C360 1.391 . S
C359 C358 1.386 . S
C359 C363 1.393 . S
C360 H349 0.950 . S
C360 C358 1.391 . S
C360 C361 1.400 . S
C361 C355 1.491 . S
C361 C360 1.400 . S
C361 C362 1.398 . S
C362 H350 0.950 . S
C362 C361 1.398 . S
C362 C363 1.391 . S
C363 H351 0.950 . S
C363 C359 1.393 . S
C363 C362 1.391 . S
H364 C372 0.950 . S
H365 C377 0.950 . S
H366 C374 0.950 . S
H367 C376 0.950 . S
H368 C378 0.950 . S
H369 C380 0.950 . S
H370 C382 0.950 . S
H371 C383 0.950 . S
C372 H364 0.950 . S
C372 C373 1.386 . S
C372 C374 1.391 . S
C373 C372 1.386 . S
C373 C377 1.393 . S
C374 H366 0.950 . S
C374 C372 1.391 . S
C374 C375 1.400 . S
C375 C374 1.400 . S
C375 C376 1.398 . S
C375 C381 1.491 . S
C376 H367 0.950 . S
C376 C375 1.398 . S
C376 C377 1.391 . S
C377 H365 0.950 . S
C377 C373 1.393 . S
C377 C376 1.391 . S
C378 H368 0.950 . S
C378 C379 1.386 . S
C378 C380 1.391 . S
C379 C378 1.386 . S
C379 C383 1.393 . S
C380 H369 0.950 . S
C380 C378 1.391 . S
C380 C381 1.400 . S
C381 C375 1.491 . S
C381 C380 1.400 . S
C381 C382 1.398 . S
C382 H370 0.950 . S
C382 C381 1.398 . S
C382 C383 1.391 . S
C383 H371 0.950 . S
C383 C379 1.393 . S
C383 C382 1.391 . S
H384 C392 0.950 . S
H385 C397 0.950 . S
H386 C394 0.950 . S
H387 C396 0.950 . S
H388 C398 0.950 . S
H389 C400 0.950 . S
H390 C402 0.950 . S
H391 C403 0.950 . S
C392 H384 0.950 . S
C392 C393 1.386 . S
C392 C394 1.391 . S
C393 C392 1.386 . S
C393 C397 1.393 . S
C394 H386 0.950 . S
C394 C392 1.391 . S
C394 C395 1.400 . S
C395 C394 1.400 . S
C395 C396 1.398 . S
C395 C401 1.491 . S
C396 H387 0.950 . S
C396 C395 1.398 . S
C396 C397 1.391 . S
C397 H385 0.950 . S
C397 C393 1.393 . S
C397 C396 1.391 . S
C398 H388 0.950 . S
C398 C399 1.386 . S
C398 C400 1.391 . S
C399 C398 1.386 . S
C399 C403 1.393 . S
C400 H389 0.950 . S
C400 C398 1.391 . S
C400 C401 1.400 . S
C401 C395 1.491 . S
C401 C400 1.400 . S
C401 C402 1.398 . S
C402 H390 0.950 . S
C402 C401 1.398 . S
C402 C403 1.391 . S
C403 H391 0.950 . S
C403 C399 1.393 . S
C403 C402 1.391 . S
H404 C412 0.950 . S
H405 C417 0.950 . S
H406 C414 0.950 . S
H407 C416 0.950 . S
H408 C418 0.950 . S
H409 C420 0.950 . S
H410 C422 0.950 . S
H411 C423 0.950 . S
C412 H404 0.950 . S
C412 C413 1.386 . S
C412 C414 1.391 . S
C413 C412 1.386 . S
C413 C417 1.393 . S
C414 H406 0.950 . S
C414 C412 1.391 . S
C414 C415 1.400 . S
C415 C414 1.400 . S
C415 C416 1.398 . S
C415 C421 1.491 . S
C416 H407 0.950 . S
C416 C415 1.398 . S
C416 C417 1.391 . S
C417 H405 0.950 . S
C417 C413 1.393 . S
C417 C416 1.391 . S
C418 H408 0.950 . S
C418 C419 1.386 . S
C418 C420 1.391 . S
C419 C418 1.386 . S
C419 C423 1.393 . S
C420 H409 0.950 . S
C420 C418 1.391 . S
C420 C421 1.400 . S
C421 C415 1.491 . S
C421 C420 1.400 . S
C421 C422 1.398 . S
C422 H410 0.950 . S
C422 C421 1.398 . S
C422 C423 1.391 . S
C423 H411 0.950 . S
C423 C419 1.393 . S
C423 C422 1.391 . S
C113 C36 1.600 . S
C119 C10 1.599 . S
C133 C49 1.583 . S
C139 C23 1.582 . S
C153 C56 1.591 . S
C159 C88 1.585 . S
C173 C75 1.583 . S
C179 C95 1.587 . S
C193 C18 1.110 1_545 S
C199 C3 1.086 . S
C213 C16 1.111 . S
C219 C31 1.121 1_455 S
C233 C44 1.113 1_565 S
C239 C29 1.110 . S
C253 C42 1.092 . S
C259 C5 1.108 1_655 S
C273 C94 1.108 1_545 S
C279 C57 1.098 . S
C293 C68 1.096 . S
C299 C55 1.122 1_455 S
C313 C81 1.085 . S
C319 C70 1.113 1_565 S
C333 C96 1.101 . S
C339 C83 1.108 1_655 S
C353 C4 1.722 . S
C359 C69 1.723 . S
C373 C82 1.718 . S
C379 C17 1.722 . S
C393 C30 1.717 . S
C399 C101 1.721 . S
C413 C43 1.714 . S
C419 C62 1.714 . S
