# Generated by pormake.
# Topology uki, (4)-cn, num edge types: 1
# Building blocks:
#     Node 0, Type 0, BuildingBlock: ESEHIV_clean_sbu_0, # of connection points: 4
#     Node 1, Type 0, BuildingBlock: ESEHIV_clean_sbu_0, # of connection points: 4
#     Node 2, Type 0, BuildingBlock: ESEHIV_clean_sbu_0, # of connection points: 4
#     Node 3, Type 0, BuildingBlock: ESEHIV_clean_sbu_0, # of connection points: 4
#     Node 4, Type 0, BuildingBlock: ESEHIV_clean_sbu_0, # of connection points: 4
#     Node 5, Type 0, BuildingBlock: ESEHIV_clean_sbu_0, # of connection points: 4
#     Node 6, Type 0, BuildingBlock: ESEHIV_clean_sbu_0, # of connection points: 4
#     Node 7, Type 0, BuildingBlock: ESEHIV_clean_sbu_0, # of connection points: 4
#     Node 8, Type 0, BuildingBlock: ESEHIV_clean_sbu_0, # of connection points: 4
#     Node 9, Type 0, BuildingBlock: ESEHIV_clean_sbu_0, # of connection points: 4
#     Node 10, Type 0, BuildingBlock: ESEHIV_clean_sbu_0, # of connection points: 4
#     Node 11, Type 0, BuildingBlock: ESEHIV_clean_sbu_0, # of connection points: 4
#     Node 12, Type 0, BuildingBlock: ESEHIV_clean_sbu_0, # of connection points: 4
#     Node 13, Type 0, BuildingBlock: ESEHIV_clean_sbu_0, # of connection points: 4
#     Node 14, Type 0, BuildingBlock: ESEHIV_clean_sbu_0, # of connection points: 4
#     Node 15, Type 0, BuildingBlock: ESEHIV_clean_sbu_0, # of connection points: 4
#     Edge 16, Type (0, 0), BuildingBlock: OJICUG_clean_linker_0, # of connection points: 2
#     Edge 17, Type (0, 0), BuildingBlock: OJICUG_clean_linker_0, # of connection points: 2
#     Edge 18, Type (0, 0), BuildingBlock: OJICUG_clean_linker_0, # of connection points: 2
#     Edge 19, Type (0, 0), BuildingBlock: OJICUG_clean_linker_0, # of connection points: 2
#     Edge 20, Type (0, 0), BuildingBlock: OJICUG_clean_linker_0, # of connection points: 2
#     Edge 21, Type (0, 0), BuildingBlock: OJICUG_clean_linker_0, # of connection points: 2
#     Edge 22, Type (0, 0), BuildingBlock: OJICUG_clean_linker_0, # of connection points: 2
#     Edge 23, Type (0, 0), BuildingBlock: OJICUG_clean_linker_0, # of connection points: 2
#     Edge 24, Type (0, 0), BuildingBlock: OJICUG_clean_linker_0, # of connection points: 2
#     Edge 25, Type (0, 0), BuildingBlock: OJICUG_clean_linker_0, # of connection points: 2
#     Edge 26, Type (0, 0), BuildingBlock: OJICUG_clean_linker_0, # of connection points: 2
#     Edge 27, Type (0, 0), BuildingBlock: OJICUG_clean_linker_0, # of connection points: 2
#     Edge 28, Type (0, 0), BuildingBlock: OJICUG_clean_linker_0, # of connection points: 2
#     Edge 29, Type (0, 0), BuildingBlock: OJICUG_clean_linker_0, # of connection points: 2
#     Edge 30, Type (0, 0), BuildingBlock: OJICUG_clean_linker_0, # of connection points: 2
#     Edge 31, Type (0, 0), BuildingBlock: OJICUG_clean_linker_0, # of connection points: 2
#     Edge 32, Type (0, 0), BuildingBlock: OJICUG_clean_linker_0, # of connection points: 2
#     Edge 33, Type (0, 0), BuildingBlock: OJICUG_clean_linker_0, # of connection points: 2
#     Edge 34, Type (0, 0), BuildingBlock: OJICUG_clean_linker_0, # of connection points: 2
#     Edge 35, Type (0, 0), BuildingBlock: OJICUG_clean_linker_0, # of connection points: 2
#     Edge 36, Type (0, 0), BuildingBlock: OJICUG_clean_linker_0, # of connection points: 2
#     Edge 37, Type (0, 0), BuildingBlock: OJICUG_clean_linker_0, # of connection points: 2
#     Edge 38, Type (0, 0), BuildingBlock: OJICUG_clean_linker_0, # of connection points: 2
#     Edge 39, Type (0, 0), BuildingBlock: OJICUG_clean_linker_0, # of connection points: 2
#     Edge 40, Type (0, 0), BuildingBlock: OJICUG_clean_linker_0, # of connection points: 2
#     Edge 41, Type (0, 0), BuildingBlock: OJICUG_clean_linker_0, # of connection points: 2
#     Edge 42, Type (0, 0), BuildingBlock: OJICUG_clean_linker_0, # of connection points: 2
#     Edge 43, Type (0, 0), BuildingBlock: OJICUG_clean_linker_0, # of connection points: 2
#     Edge 44, Type (0, 0), BuildingBlock: OJICUG_clean_linker_0, # of connection points: 2
#     Edge 45, Type (0, 0), BuildingBlock: OJICUG_clean_linker_0, # of connection points: 2
#     Edge 46, Type (0, 0), BuildingBlock: OJICUG_clean_linker_0, # of connection points: 2
#     Edge 47, Type (0, 0), BuildingBlock: OJICUG_clean_linker_0, # of connection points: 2
# Relax obj value: 0.113
# Max RMSD: 0.200
# Mean RMSD: 0.175
data_MOF--net-uki--node1-ESEHIV_clean_sbu_0--edge1-OJICUG_clean_linker_0
_symmetry_space_group_name_H-M    P1
_symmetry_Int_Tables_number       1
_symmetry_cell_setting            triclinic
loop_
_symmetry_equiv_pos_as_xyz
'x, y, z'
_cell_length_a     26.850527
_cell_length_b     20.345916
_cell_length_c     63.07803
_cell_angle_alpha  89.938184
_cell_angle_beta   90.007597
_cell_angle_gamma 89.926043
loop_
_atom_site_label
_atom_site_type_symbol
_atom_site_fract_x
_atom_site_fract_y
_atom_site_fract_z
_atom_type_partial_charge
Cu0 Cu 0.11705 0.30391 0.33168 0.0
N1 N 0.05932 0.35262 0.32504 0.0
N2 N 1.00186 0.40592 0.30562 0.0
C3 C 0.04884 0.38172 0.30626 0.0
C4 C 0.98235 0.39183 0.32484 0.0
C5 C 1.01766 0.35893 0.33669 0.0
O6 O 0.16905 0.33586 0.31273 0.0
C7 C 0.06398 0.18532 0.31988 0.0
O8 O 0.03467 0.2255 0.30938 0.0
H9 H 0.07436 0.3821 0.29298 0.0
H10 H 1.01261 0.33871 0.3524 0.0
N11 N 0.14079 0.32112 0.35928 0.0
N12 N 0.1942 0.32874 0.38671 0.0
C13 C 0.18618 0.30469 0.36695 0.0
C14 C 0.11931 0.357 0.37466 0.0
C15 C 0.15188 0.36161 0.39152 0.0
C16 C 0.18019 0.39671 0.31436 0.0
O17 O 0.15628 0.43278 0.32833 0.0
H18 H 0.21294 0.27635 0.35796 0.0
H19 H 0.08316 0.38012 0.37348 0.0
O20 O 0.10221 0.20871 0.32938 0.0
H21 H 0.94484 0.40337 0.3299 0.0
H22 H 0.14525 0.38918 0.4059 0.0
Cu23 Cu 0.27255 1.00605 0.7167 0.0
N24 N 0.22118 1.04884 0.702 0.0
N25 N 0.14165 0.06208 0.69213 0.0
C26 C 0.17316 1.0363 0.70656 0.0
C27 C 0.17114 0.09229 0.67777 0.0
C28 C 0.22035 0.08409 0.68393 0.0
O29 O 0.2718 0.91698 0.70557 0.0
C30 C 0.25584 0.0805 0.7521 0.0
O31 O 0.23811 0.12036 0.73755 0.0
H32 H 0.16181 1.00544 0.71969 0.0
H33 H 0.25306 0.09989 0.67532 0.0
N34 N 0.33788 1.03582 0.71408 0.0
N35 N 0.40884 1.03253 0.73296 0.0
C36 C 0.37296 0.99745 0.72317 0.0
C37 C 0.35327 0.09786 0.7175 0.0
C38 C 0.39694 0.09596 0.72912 0.0
C39 C 0.28193 0.91468 0.68579 0.0
O40 O 0.29419 0.96946 0.67607 0.0
H41 H 0.36684 0.94569 0.72623 0.0
H42 H 0.33034 0.14096 0.71507 0.0
O43 O 0.26364 1.02053 0.74702 0.0
H44 H 0.1582 0.11734 0.66366 0.0
H45 H 0.41498 0.13787 0.73636 0.0
Cu46 Cu 0.94305 0.79711 0.32926 0.0
N47 N 0.99658 0.74077 0.32268 0.0
N48 N 0.048 0.67857 0.30296 0.0
C49 C 1.01147 0.72455 0.30289 0.0
C50 C 0.05633 0.66566 0.32369 0.0
C51 C 1.0246 0.70383 0.33575 0.0
O52 O 0.88793 0.76562 0.31195 0.0
C53 C 1.00362 0.9113 0.33077 0.0
O54 O 1.0316 0.87209 0.34229 0.0
H55 H 0.99453 0.74463 0.28873 0.0
H56 H 1.02154 0.7035 0.35283 0.0
N57 N 0.92179 0.79059 0.3577 0.0
N58 N 0.87072 0.78705 0.38598 0.0
C59 C 0.87407 0.78827 0.36453 0.0
C60 C 0.94965 0.79102 0.37541 0.0
C61 C 0.91845 0.78867 0.39279 0.0
C62 C 0.87619 0.70511 0.31405 0.0
O63 O 0.90082 0.66901 0.32781 0.0
H64 H 0.84243 0.7892 0.35391 0.0
H65 H 0.98985 0.79378 0.3757 0.0
O66 O 0.96286 0.88872 0.32322 0.0
H67 H 0.08343 0.63108 0.32979 0.0
H68 H 0.93027 0.78807 0.40919 0.0
Cu69 Cu 0.80145 0.08909 0.71787 0.0
N70 N 0.85096 1.04367 0.70288 0.0
N71 N 0.92997 1.02786 0.69266 0.0
C72 C 0.8993 0.05489 0.70715 0.0
C73 C 0.89959 0.99821 0.67854 0.0
C74 C 0.85067 1.00799 0.68491 0.0
O75 O 0.80421 0.1778 0.70637 0.0
C76 C 0.81968 1.01512 0.75344 0.0
O77 O 0.83747 0.97482 0.73906 0.0
H78 H 0.91153 0.08583 0.72009 0.0
H79 H 0.81746 0.99308 0.6765 0.0
N80 N 0.73476 0.06405 0.71614 0.0
N81 N 0.665 0.07735 0.73541 0.0
C82 C 0.70259 0.10705 0.72494 0.0
C83 C 0.71579 1.00436 0.72063 0.0
C84 C 0.67262 1.01249 0.7324 0.0
C85 C 0.79326 0.17976 0.68665 0.0
O86 O 0.77976 0.12503 0.67725 0.0
H87 H 0.71191 0.15836 0.72715 0.0
H88 H 0.73617 0.95877 0.71893 0.0
O89 O 0.81185 0.07493 0.74813 0.0
H90 H 0.91174 0.9726 0.66442 0.0
H91 H 0.65303 0.9739 0.74078 0.0
Cu92 Cu 0.12001 0.30025 0.99458 0.0
N93 N 0.06776 0.24257 1.00204 0.0
N94 N 1.02025 0.17609 1.02221 0.0
C95 C 0.05692 0.22188 1.0219 0.0
C96 C 1.00776 0.16794 1.00161 0.0
C97 C 0.03709 0.20853 0.98929 0.0
O98 O 0.17649 0.26928 1.01121 0.0
C99 C 0.05643 0.41386 0.99823 0.0
O100 O 1.02124 0.3714 0.99362 0.0
H101 H 0.07662 0.23913 0.03578 0.0
H102 H 0.03649 0.21212 0.9722 0.0
N103 N 0.14031 0.29253 0.96604 0.0
N104 N 0.19137 0.28688 0.93776 0.0
C105 C 0.18798 0.29002 0.95919 0.0
C106 C 0.11237 0.29153 0.94836 0.0
C107 C 0.14358 0.28778 0.93097 0.0
C108 C 0.18871 0.20916 1.00844 0.0
O109 O 0.16354 0.17392 0.99468 0.0
H110 H 0.21954 0.29186 0.96982 0.0
H111 H 0.07216 0.29414 0.94808 0.0
O112 O 0.1013 0.39312 1.00001 0.0
H113 H 0.97913 0.13541 0.9957 0.0
H114 H 0.13163 0.28561 0.91462 0.0
Cu115 Cu 0.29379 1.01615 0.10463 0.0
N116 N 0.34531 0.05946 0.11924 0.0
N117 N 0.4249 0.07218 0.12913 0.0
C118 C 0.39312 1.04281 0.11561 0.0
C119 C 0.39594 0.10902 0.14199 0.0
C120 C 0.34666 0.10135 0.13577 0.0
O121 O 0.29383 0.92733 0.11651 0.0
C122 C 0.32012 0.08418 0.06819 0.0
O123 O 0.34106 0.12364 0.082 0.0
H124 H 0.40419 1.00763 0.10363 0.0
H125 H 0.31421 0.12266 0.14326 0.0
N126 N 0.22723 1.04593 0.10633 0.0
N127 N 0.15094 1.03799 0.09155 0.0
C128 C 0.19991 1.04883 0.08834 0.0
C129 C 0.19354 1.03459 0.12175 0.0
C130 C 0.14663 1.02966 0.1127 0.0
C131 C 0.29249 0.92552 0.13678 0.0
O132 O 0.29096 0.98118 0.14725 0.0
H133 H 0.21633 1.04777 0.07278 0.0
H134 H 0.20268 1.02201 0.13793 0.0
O135 O 0.30738 1.02662 0.07432 0.0
H136 H 0.40934 0.13891 0.15497 0.0
H137 H 0.11297 1.01464 0.1208 0.0
Cu138 Cu 0.94131 0.80681 0.99444 0.0
N139 N 0.99348 0.86464 1.00182 0.0
N140 N 0.04097 0.93133 1.02188 0.0
C141 C 1.0043 0.88554 1.02165 0.0
C142 C 0.05348 0.93924 1.00126 0.0
C143 C 1.02416 0.89852 0.98901 0.0
O144 O 0.88463 0.83793 1.0109 0.0
C145 C 1.00485 0.69328 0.99794 0.0
O146 O 0.03972 0.73553 0.99272 0.0
H147 H 0.98459 0.86844 0.03555 0.0
H148 H 1.02477 0.8947 0.97193 0.0
N149 N 0.92156 0.81365 0.96582 0.0
N150 N 0.87134 0.81627 0.93724 0.0
C151 C 0.87407 0.81571 0.9587 0.0
C152 C 0.94998 0.81248 0.94827 0.0
C153 C 0.91927 0.81432 0.93069 0.0
C154 C 0.87243 0.89808 1.00815 0.0
O155 O 0.89762 0.93345 0.99441 0.0
H156 H 0.84213 0.81476 0.96914 0.0
H157 H 0.99018 0.80919 0.94824 0.0
O158 O 0.96012 0.71413 1.00015 0.0
H159 H 0.08213 0.9717 0.99531 0.0
H160 H 0.93155 0.81407 0.91436 0.0
Cu161 Cu 0.76681 0.09043 0.1048 0.0
N162 N 0.71555 1.04606 0.11927 0.0
N163 N 0.636 1.03264 0.12911 0.0
C164 C 0.66766 0.06216 0.11556 0.0
C165 C 0.66512 0.99625 0.14206 0.0
C166 C 0.71437 1.00433 0.13587 0.0
O167 O 0.76526 0.17915 0.11675 0.0
C168 C 0.74164 1.02195 0.06832 0.0
O169 O 0.72125 0.98202 0.08217 0.0
H170 H 0.65646 0.09724 0.10355 0.0
H171 H 0.74692 0.98361 0.14347 0.0
N172 N 0.83367 0.06188 0.10669 0.0
N173 N 0.91004 0.07025 0.09201 0.0
C174 C 0.86117 0.05876 0.08876 0.0
C175 C 0.86716 0.07406 0.12212 0.0
C176 C 0.91411 0.07923 0.11314 0.0
C177 C 0.76615 0.18063 0.13703 0.0
O178 O 0.76882 0.12486 0.14744 0.0
H179 H 0.84489 0.05905 0.07317 0.0
H180 H 0.85779 0.08695 0.13825 0.0
O181 O 0.7538 0.07972 0.07443 0.0
H182 H 0.65184 0.96651 0.15512 0.0
H183 H 0.94761 0.09479 0.12124 0.0
Cu184 Cu 0.62072 0.80207 0.82931 0.0
N185 N 0.56707 0.85827 0.82275 0.0
N186 N 0.51556 0.92049 0.80303 0.0
C187 C 0.55226 0.87476 0.80296 0.0
C188 C 0.50702 0.93295 0.82376 0.0
C189 C 0.53879 0.89476 0.83583 0.0
O190 O 0.67565 0.83371 0.8119 0.0
C191 C 0.56024 0.68777 0.8309 0.0
O192 O 0.53224 0.72691 0.84241 0.0
H193 H 0.56938 0.85506 0.7888 0.0
H194 H 0.5417 0.89472 0.85291 0.0
N195 N 0.64232 0.80875 0.8577 0.0
N196 N 0.69389 0.81361 0.8858 0.0
C197 C 0.69014 0.81174 0.86437 0.0
C198 C 0.6148 0.80827 0.87551 0.0
C199 C 0.64632 0.81149 0.89278 0.0
C200 C 0.68724 0.89427 0.81394 0.0
O201 O 0.66253 0.93032 0.82765 0.0
H202 H 0.72154 0.81251 0.85363 0.0
H203 H 0.57464 0.80462 0.87594 0.0
O204 O 0.601 0.71042 0.82334 0.0
H205 H 0.47973 0.96722 0.82987 0.0
H206 H 0.63491 0.81055 0.90923 0.0
Cu207 Cu 0.76236 0.51061 0.21782 0.0
N208 N 0.7128 0.55607 0.20283 0.0
N209 N 0.63376 0.57189 0.19264 0.0
C210 C 0.66447 0.54484 0.20712 0.0
C211 C 0.6641 0.60157 0.17848 0.0
C212 C 0.71304 0.59179 0.18484 0.0
O213 O 0.75957 0.42193 0.20634 0.0
C214 C 0.74431 0.58457 0.25334 0.0
O215 O 0.72667 0.62494 0.23893 0.0
H216 H 0.65228 0.51386 0.22008 0.0
H217 H 0.74622 0.60671 0.17641 0.0
N218 N 0.82904 0.53565 0.21601 0.0
N219 N 0.89885 0.52226 0.23526 0.0
C220 C 0.86124 0.49261 0.22481 0.0
C221 C 0.84802 0.59532 0.22048 0.0
C222 C 0.89122 0.58713 0.23224 0.0
C223 C 0.77046 0.42004 0.18661 0.0
O224 O 0.78393 0.47482 0.17719 0.0
H225 H 0.85191 0.44129 0.22705 0.0
H226 H 0.82763 0.64092 0.21879 0.0
O227 O 0.75209 0.52475 0.24808 0.0
H228 H 0.65191 0.6272 0.16436 0.0
H229 H 0.91081 0.62568 0.24061 0.0
Cu230 Cu 0.44657 0.29526 0.83165 0.0
N231 N 0.50428 0.2465 0.82507 0.0
N232 N 0.56178 0.19328 0.80569 0.0
C233 C 0.5148 0.21746 0.80631 0.0
C234 C 0.58126 0.20732 0.82491 0.0
C235 C 0.54592 0.24017 0.83674 0.0
O236 O 0.3946 0.26344 0.81269 0.0
C237 C 0.49982 0.41387 0.81992 0.0
O238 O 0.52923 0.37371 0.80949 0.0
H239 H 0.48932 0.21711 0.79301 0.0
H240 H 0.55094 0.26035 0.85245 0.0
N241 N 0.42275 0.27802 0.85925 0.0
N242 N 0.36929 0.27061 0.88668 0.0
C243 C 0.37741 0.2947 0.86691 0.0
C244 C 0.44409 0.24194 0.87464 0.0
C245 C 0.4115 0.23746 0.8915 0.0
C246 C 0.38338 0.2026 0.81435 0.0
O247 O 0.40719 0.16648 0.82836 0.0
H248 H 0.35076 0.32326 0.85791 0.0
H249 H 0.48017 0.21862 0.87348 0.0
O250 O 0.46148 0.39046 0.82935 0.0
H251 H 0.61878 0.1958 0.82999 0.0
H252 H 0.41803 0.20979 0.90589 0.0
Cu253 Cu 0.29123 0.59353 0.21673 0.0
N254 N 0.34258 0.55075 0.20205 0.0
N255 N 0.4221 0.53754 0.19217 0.0
C256 C 0.39061 0.56328 0.2066 0.0
C257 C 0.39259 0.50734 0.17783 0.0
C258 C 0.34339 0.51553 0.18399 0.0
O259 O 0.29202 0.68264 0.20558 0.0
C260 C 0.30791 0.51899 0.25216 0.0
O261 O 0.32565 0.47915 0.23763 0.0
H262 H 0.40197 0.59413 0.2197 0.0
H263 H 0.31066 0.49975 0.1754 0.0
N264 N 0.2259 0.56383 0.2141 0.0
N265 N 0.15489 0.56705 0.23293 0.0
C266 C 0.19082 0.60217 0.22318 0.0
C267 C 0.21046 0.50178 0.2175 0.0
C268 C 0.16676 0.50363 0.2291 0.0
C269 C 0.28192 0.68503 0.18579 0.0
O270 O 0.26965 0.63031 0.17608 0.0
H271 H 0.19697 0.65389 0.22624 0.0
H272 H 0.23337 0.45867 0.21507 0.0
O273 O 0.30013 0.57898 0.24705 0.0
H274 H 0.40551 0.48233 0.16373 0.0
H275 H 0.14866 0.46168 0.23631 0.0
Cu276 Cu 0.62228 0.79367 0.49435 0.0
N277 N 0.57007 0.7358 0.5017 0.0
N278 N 0.5226 0.66903 0.52178 0.0
C279 C 0.55928 0.71481 0.52153 0.0
C280 C 0.51006 0.66122 0.50117 0.0
C281 C 0.53938 0.702 0.4889 0.0
O282 O 0.6788 0.76255 0.51093 0.0
C283 C 0.55865 0.90717 0.49798 0.0
O284 O 0.52364 0.86487 0.49301 0.0
H285 H 0.57901 0.73184 0.53543 0.0
H286 H 0.53875 0.70591 0.47182 0.0
N287 N 0.64243 0.78684 0.46578 0.0
N288 N 0.69327 0.78416 0.43741 0.0
C289 C 0.69007 0.78527 0.45885 0.0
C290 C 0.61437 0.78724 0.44812 0.0
C291 C 0.64548 0.78525 0.43066 0.0
C292 C 0.69104 0.70241 0.50821 0.0
O293 O 0.66592 0.66709 0.49445 0.0
H294 H 0.72176 0.78528 0.46944 0.0
H295 H 0.57417 0.79043 0.44791 0.0
O296 O 0.60345 0.88636 0.49999 0.0
H297 H 0.4814 0.6288 0.49522 0.0
H298 H 0.63363 0.78659 0.41427 0.0
Cu299 Cu 0.79699 0.50973 0.60478 0.0
N300 N 0.84824 0.55402 0.61925 0.0
N301 N 0.92778 0.5674 0.6291 0.0
C302 C 0.89613 0.53794 0.61555 0.0
C303 C 0.89867 0.60375 0.64204 0.0
C304 C 0.84941 0.59569 0.63584 0.0
O305 O 0.79852 0.42096 0.61674 0.0
C306 C 0.82221 0.57833 0.56829 0.0
O307 O 0.84272 0.61816 0.58211 0.0
H308 H 0.90734 0.50291 0.60355 0.0
H309 H 0.81686 0.6164 0.64343 0.0
N310 N 0.73012 0.53826 0.60664 0.0
N311 N 0.65374 0.52992 0.59196 0.0
C312 C 0.70262 0.54136 0.5887 0.0
C313 C 0.69663 0.52612 0.62208 0.0
C314 C 0.64967 0.52097 0.6131 0.0
C315 C 0.7976 0.41939 0.63702 0.0
O316 O 0.79493 0.47512 0.64741 0.0
H317 H 0.7189 0.54104 0.57311 0.0
H318 H 0.70599 0.51325 0.63822 0.0
O319 O 0.81002 0.52056 0.57442 0.0
H320 H 0.91194 0.63345 0.65509 0.0
H321 H 0.61616 0.50545 0.62121 0.0
Cu322 Cu 0.44358 0.30026 0.49465 0.0
N323 N 0.49585 0.35792 0.50208 0.0
N324 N 0.5434 0.42433 0.52222 0.0
C325 C 0.50674 0.37852 0.52194 0.0
C326 C 0.55583 0.43257 0.50161 0.0
C327 C 0.52648 0.39203 0.48931 0.0
O328 O 0.38712 0.33121 0.51127 0.0
C329 C 0.50712 0.18661 0.49813 0.0
O330 O 0.54217 0.22901 0.49328 0.0
H331 H 0.48708 0.3612 0.53582 0.0
H332 H 0.52703 0.38853 0.47222 0.0
N333 N 0.42327 0.30799 0.46611 0.0
N334 N 0.37218 0.31343 0.43782 0.0
C335 C 0.37559 0.31031 0.45925 0.0
C336 C 0.4512 0.30908 0.44843 0.0
C337 C 0.41998 0.31271 0.43104 0.0
C338 C 0.3749 0.39134 0.50848 0.0
O339 O 0.40005 0.4266 0.49469 0.0
H340 H 0.34404 0.30835 0.46989 0.0
H341 H 0.49142 0.3066 0.44816 0.0
O342 O 0.46232 0.20739 0.50012 0.0
H343 H 0.58444 0.46515 0.49569 0.0
H344 H 0.43193 0.3149 0.41468 0.0
Cu345 Cu 0.27 0.58402 0.60464 0.0
N346 N 0.21848 0.54066 0.61926 0.0
N347 N 0.1389 0.5279 0.62915 0.0
C348 C 0.17067 0.55735 0.61563 0.0
C349 C 0.16786 0.49098 0.64201 0.0
C350 C 0.21713 0.49867 0.63579 0.0
O351 O 0.27001 0.67278 0.61652 0.0
C352 C 0.2436 0.5162 0.56821 0.0
O353 O 0.22263 0.4767 0.58203 0.0
H354 H 0.1596 0.5926 0.60364 0.0
H355 H 0.24958 0.47729 0.64328 0.0
N356 N 0.33655 0.55419 0.60633 0.0
N357 N 0.41281 0.56212 0.59153 0.0
C358 C 0.36383 0.55129 0.58834 0.0
C359 C 0.37028 0.5655 0.62174 0.0
C360 C 0.41717 0.57042 0.61267 0.0
C361 C 0.27136 0.67447 0.63679 0.0
O362 O 0.27288 0.61874 0.64726 0.0
H363 H 0.34737 0.55238 0.57278 0.0
H364 H 0.36117 0.57807 0.63791 0.0
O365 O 0.25638 0.57372 0.57433 0.0
H366 H 0.15446 0.461 0.65499 0.0
H367 H 0.45085 0.58543 0.62075 0.0
C368 C 0.22169 0.49712 0.29933 0.0
C369 C 0.21735 0.4281 0.30019 0.0
H370 H 0.25359 0.58045 0.28348 0.0
C371 C 0.24772 0.38997 0.28696 0.0
H372 H 0.19899 0.52807 0.30942 0.0
C373 C 0.27993 0.42005 0.2725 0.0
C374 C 0.28196 0.48909 0.27062 0.0
H375 H 0.24584 0.33681 0.28741 0.0
H376 H 0.30152 0.38876 0.26209 0.0
C377 C 0.25326 0.52732 0.28455 0.0
C378 C 0.48924 0.91819 0.76517 0.0
C379 C 0.49116 0.95053 0.7849 0.0
H380 H 0.4616 0.91923 0.73317 0.0
C381 C 0.4679 1.01237 0.78667 0.0
H382 H 0.5062 0.87034 0.76318 0.0
C383 C 0.44294 1.04052 0.76937 0.0
C384 C 0.44 1.00748 0.74987 0.0
H385 H 0.4691 1.03946 0.80141 0.0
H386 H 0.42491 0.08765 0.77144 0.0
C387 C 0.46365 0.94608 0.74795 0.0
C388 C 0.80055 0.57531 0.28518 0.0
C389 C 0.77085 0.6139 0.27172 0.0
H390 H 0.85733 0.5738 0.30901 0.0
C391 C 0.77276 0.68287 0.27383 0.0
H392 H 0.79974 0.52225 0.28412 0.0
C393 C 0.80603 0.71254 0.28791 0.0
C394 C 0.83776 0.67404 0.30047 0.0
H395 H 0.75026 0.71442 0.26383 0.0
H396 H 0.80774 0.76569 0.28854 0.0
C397 C 0.83363 0.60505 0.29942 0.0
C398 C 0.63931 0.17009 0.7857 0.0
C399 C 0.58741 0.16382 0.78783 0.0
H400 H 0.70409 0.14894 0.76713 0.0
C401 C 0.56126 0.12883 0.77211 0.0
H402 H 0.66073 0.19763 0.79717 0.0
C403 C 0.58653 0.09907 0.75509 0.0
C404 C 0.63829 0.10623 0.75298 0.0
H405 H 0.52134 0.12433 0.77308 0.0
H406 H 0.56567 0.07163 0.74338 0.0
C407 C 0.66422 0.14242 0.7684 0.0
C408 C 0.29325 0.18393 0.04794 0.0
C409 C 0.29492 0.11482 0.04965 0.0
H410 H 0.25796 0.26792 0.03392 0.0
C411 C 0.26557 0.07731 0.03577 0.0
H412 H 0.31556 0.21471 0.05821 0.0
C413 C 0.23249 0.10822 1.02177 0.0
C414 C 0.228 0.17724 1.02137 0.0
H415 H 0.26594 1.02414 0.03661 0.0
H416 H 0.2087 0.07777 1.012 0.0
C417 C 0.25988 0.21474 0.03411 0.0
C418 C 0.08437 0.96429 0.07795 0.0
C419 C 0.11639 1.01826 0.07507 0.0
H420 H 0.03608 0.89378 0.06348 0.0
C421 C 0.11907 1.04703 0.05482 0.0
H422 H 0.08167 0.94047 0.09325 0.0
C423 C 0.09293 1.02025 0.03764 0.0
C424 C 0.06343 0.96346 0.04014 0.0
H425 H 0.14279 0.08923 0.05214 0.0
H426 H 0.09679 1.04361 1.02233 0.0
C427 C 0.05833 0.9372 0.06073 0.0
C428 C 0.82919 0.99897 1.02181 0.0
C429 C 0.83327 0.92992 1.02117 0.0
H430 H 0.79625 0.08278 0.03696 0.0
C431 C 0.80117 0.89224 0.03377 0.0
H432 H 0.85319 1.02956 1.01216 0.0
C433 C 0.76797 0.92282 0.0477 0.0
C434 C 0.7667 0.99187 0.04966 0.0
H435 H 0.80277 0.83905 0.03339 0.0
H436 H 0.74547 0.89184 0.05785 0.0
C437 C 0.79629 1.02964 0.03593 0.0
C438 C 0.94213 0.06072 0.05533 0.0
C439 C 0.94466 0.08981 0.07552 0.0
H440 H 0.96459 0.0637 1.02285 0.0
C441 C 0.97662 0.14388 0.07831 0.0
H442 H 0.91848 1.01843 0.05271 0.0
C443 C 1.00273 0.17075 0.06105 0.0
C444 C 0.99777 0.14417 0.04052 0.0
H445 H 0.97923 0.16794 0.09356 0.0
H446 H 1.02493 0.21424 0.06373 0.0
C447 C 0.96834 0.08729 0.03812 0.0
C448 C 0.72979 0.99441 0.7993 0.0
C449 C 0.72572 0.92541 0.80038 0.0
H450 H 0.76381 0.07728 0.78405 0.0
C451 C 0.75761 0.88698 0.7879 0.0
H452 H 0.70597 1.0256 0.80883 0.0
C453 C 0.79103 0.91672 0.77388 0.0
C454 C 0.79293 0.98569 0.77176 0.0
H455 H 0.75593 0.83382 0.78856 0.0
H456 H 0.81367 0.88523 0.76395 0.0
C457 C 0.76303 1.02421 0.78513 0.0
C458 C 1.00252 0.4702 0.27195 0.0
C459 C 0.97629 0.4355 0.28773 0.0
H460 H 0.99824 0.52726 0.24315 0.0
C461 C 0.92434 0.42963 0.28565 0.0
H462 H 0.04247 0.47437 0.27288 0.0
C463 C 0.89948 0.45742 0.26834 0.0
C464 C 0.92551 0.49332 0.25285 0.0
H465 H 0.90284 0.40233 0.29717 0.0
H466 H 0.85957 0.45121 0.26709 0.0
C467 C 0.97731 0.50007 0.25491 0.0
C468 C 0.28391 0.17943 0.77236 0.0
C469 C 0.28175 0.11039 0.77055 0.0
H470 H 0.31806 0.26262 0.78723 0.0
C471 C 0.31027 0.07212 0.78457 0.0
H472 H 0.26247 0.21075 0.76188 0.0
C473 C 0.34179 0.10227 0.79936 0.0
C474 C 0.34626 0.17128 0.80016 0.0
H475 H 0.30983 1.01899 0.78356 0.0
H476 H 0.36433 0.07128 0.80952 0.0
C477 C 0.31607 0.20946 0.78683 0.0
C478 C 0.07457 0.6813 0.26513 0.0
C479 C 0.07242 0.64868 0.28483 0.0
H480 H 0.10241 0.68059 0.23317 0.0
C481 C 0.0955 0.5867 0.28658 0.0
H482 H 0.05775 0.72926 0.26316 0.0
C483 C 0.12053 0.55869 0.2693 0.0
C484 C 0.12368 0.59201 0.24982 0.0
H485 H 0.09412 0.55939 0.30129 0.0
H486 H 0.13843 0.51147 0.27136 0.0
C487 C 0.1002 0.65353 0.24793 0.0
C488 C 0.79556 0.67763 0.54775 0.0
C489 C 0.79701 0.60856 0.54967 0.0
H490 H 0.76054 0.76143 0.53349 0.0
C491 C 0.76748 0.57083 0.53592 0.0
H492 H 0.81801 0.70857 0.55791 0.0
C493 C 0.73448 0.60154 0.52183 0.0
C494 C 0.73024 0.67058 0.52122 0.0
H495 H 0.76767 0.51768 0.53691 0.0
H496 H 0.71055 0.57097 0.51216 0.0
C497 C 0.76226 0.70824 0.53384 0.0
C498 C 0.58714 0.45634 0.5783 0.0
C499 C 0.6191 0.51041 0.57548 0.0
H500 H 0.5388 0.38603 0.56376 0.0
C501 C 0.62159 0.53957 0.55528 0.0
H502 H 0.58456 0.43223 0.59356 0.0
C503 C 0.59535 0.51306 0.53809 0.0
C504 C 0.56592 0.45618 0.54051 0.0
H505 H 0.64524 0.58187 0.55265 0.0
H506 H 0.59907 0.53671 0.52281 0.0
C507 C 0.56099 0.42954 0.56106 0.0
C508 C 0.29813 0.52314 0.53578 0.0
C509 C 0.26878 0.48561 0.54967 0.0
H510 H 0.35496 0.52274 0.512 0.0
C511 C 0.27043 0.4165 0.54799 0.0
H512 H 0.29777 0.57631 0.5366 0.0
C513 C 0.30377 0.38572 0.53417 0.0
C514 C 0.33564 0.42324 0.52141 0.0
H515 H 0.24812 0.3857 0.55828 0.0
H516 H 0.30567 0.33253 0.53399 0.0
C517 C 0.33117 0.49226 0.52178 0.0
C518 C 0.47065 0.58008 0.53758 0.0
C519 C 0.50017 0.63684 0.54005 0.0
H520 H 0.42083 0.51104 0.55212 0.0
C521 C 0.50533 0.66301 0.56064 0.0
H522 H 0.46674 0.55678 0.52228 0.0
C523 C 0.47935 0.63585 0.57788 0.0
C524 C 0.44731 0.5819 0.57503 0.0
H525 H 0.5276 0.70641 0.56337 0.0
H526 H 0.4821 0.65962 0.59317 0.0
C527 C 0.44456 0.55322 0.55478 0.0
C528 C 0.32842 0.30215 0.40308 0.0
C529 C 0.3272 0.31637 0.42496 0.0
H530 H 0.28819 0.29533 0.37389 0.0
C531 C 0.28101 0.33379 0.43395 0.0
H532 H 0.3628 0.28784 0.39545 0.0
C533 C 0.23772 0.33713 0.42153 0.0
C534 C 0.23899 0.32351 0.39963 0.0
H535 H 0.27809 0.34573 0.4506 0.0
H536 H 0.20317 0.35022 0.42926 0.0
C537 C 0.28511 0.30574 0.39064 0.0
C538 C 0.28047 0.79731 0.63901 0.0
C539 C 0.2724 0.73668 0.64898 0.0
H540 H 0.29021 0.90087 0.64286 0.0
C541 C 0.26676 0.73508 0.67121 0.0
H542 H 0.28505 0.8002 0.62198 0.0
C543 C 0.26957 0.79265 0.68323 0.0
C544 C 0.27842 0.85316 0.67332 0.0
H545 H 0.26026 0.68913 0.67944 0.0
H546 H 0.2652 0.78962 0.70027 0.0
C547 C 0.28363 0.8549 0.65106 0.0
C548 C 0.78377 0.80668 0.4327 0.0
C549 C 0.73808 0.78436 0.42446 0.0
H550 H 0.8609 0.82616 0.42709 0.0
C551 C 0.73704 0.76282 0.40323 0.0
H552 H 0.78624 0.82471 0.44878 0.0
C553 C 0.78024 0.76365 0.39067 0.0
C554 C 0.82591 0.78605 0.39892 0.0
H555 H 0.70294 0.74442 0.39632 0.0
H556 H 0.77786 0.74583 0.37455 0.0
C557 C 0.82691 0.80753 0.42015 0.0
C558 C 0.79007 0.23875 0.65176 0.0
C559 C 0.79601 0.24105 0.67398 0.0
H560 H 0.78634 0.29291 0.62256 0.0
C561 C 0.80409 0.302 0.68368 0.0
H562 H 0.78406 0.19242 0.64372 0.0
C563 C 0.8052 0.35945 0.67151 0.0
C564 C 0.79861 0.35731 0.64933 0.0
H565 H 0.80893 0.30547 0.70069 0.0
H566 H 0.81101 0.40576 0.67959 0.0
C567 C 0.79155 0.29623 0.63956 0.0
C568 C 0.23517 0.29797 0.90302 0.0
C569 C 0.23635 0.28371 0.9249 0.0
H570 H 0.27543 0.30461 0.87383 0.0
C571 C 0.28247 0.266 0.93391 0.0
H572 H 0.20084 0.31251 0.89538 0.0
C573 C 0.32576 0.26242 0.92149 0.0
C574 C 0.32453 0.27608 0.89958 0.0
H575 H 0.28536 0.25401 0.95056 0.0
H576 H 0.36026 0.24911 0.92923 0.0
C577 C 0.27847 0.29415 0.89058 0.0
C578 C 0.28022 0.74501 0.15106 0.0
C579 C 0.28544 0.74662 0.17331 0.0
H580 H 0.2788 0.79989 0.12197 0.0
C581 C 0.29429 0.80706 0.18322 0.0
H582 H 0.27365 0.69908 0.14287 0.0
C583 C 0.2971 0.8647 0.1712 0.0
C584 C 0.29146 0.86324 0.14897 0.0
H585 H 0.29866 0.80999 0.20027 0.0
H586 H 0.3036 0.9106 0.17943 0.0
C587 C 0.28339 0.80267 0.13901 0.0
C588 C 0.82808 0.79438 0.90298 0.0
C589 C 0.82675 0.81656 0.92414 0.0
H590 H 0.78753 0.77525 0.87441 0.0
C591 C 0.78083 0.83864 0.93226 0.0
H592 H 0.86234 0.77614 0.89614 0.0
C593 C 0.73765 0.83808 0.91971 0.0
C594 C 0.7389 0.81544 0.89861 0.0
H595 H 0.77817 0.85715 0.94829 0.0
H596 H 0.70334 0.85615 0.92655 0.0
C597 C 0.7849 0.79387 0.89043 0.0
C598 C 0.75857 0.24041 0.17152 0.0
C599 C 0.76514 0.24265 0.14933 0.0
H600 H 0.75485 0.29425 0.20069 0.0
C601 C 0.77215 0.30379 0.13955 0.0
H602 H 0.75279 0.19405 0.17961 0.0
C603 C 0.77362 0.36121 0.15174 0.0
C604 C 0.76771 0.3588 0.17396 0.0
H605 H 0.77735 0.3072 0.12255 0.0
H606 H 0.7796 0.40758 0.14369 0.0
C607 C 0.75967 0.29781 0.18368 0.0
C608 C 0.06413 1.00453 0.33637 0.0
C609 C 1.01964 0.98093 0.32723 0.0
H610 H 0.11312 0.0865 0.34125 0.0
C611 C 0.99091 1.0248 0.31507 0.0
H612 H 0.08742 0.97238 0.34583 0.0
C613 C 1.0059 0.09047 0.31239 0.0
C614 C 0.05001 0.11431 0.32181 0.0
H615 H 0.95657 1.00861 0.30776 0.0
H616 H 0.98238 0.12282 0.30311 0.0
C617 C 0.07905 0.07019 0.33372 0.0
C618 C 1.01039 1.03949 0.71123 0.0
C619 C 0.98356 1.03449 0.69217 0.0
H620 H 0.08117 0.05296 0.72612 0.0
C621 C 1.00969 1.03922 0.67289 0.0
H622 H 0.99149 1.03564 0.72634 0.0
C623 C 0.06145 1.04958 0.67276 0.0
C624 C 0.08813 0.05438 0.69191 0.0
H625 H 0.99002 1.03621 0.65794 0.0
H626 H 0.08069 0.0528 0.65772 0.0
C627 C 0.06188 1.04906 0.7111 0.0
C628 C 0.99337 0.50601 1.00036 0.0
C629 C 0.04359 0.48543 0.9999 0.0
H630 H 0.94167 0.58679 1.00038 0.0
C631 C 0.08073 0.53409 0.99997 0.0
H632 H 0.9636 0.47015 1.0004 0.0
C633 C 0.06802 0.60119 0.99979 0.0
C634 C 1.01779 0.62176 0.99977 0.0
H635 H 0.11971 0.52041 0.99959 0.0
H636 H 0.09778 0.63704 0.99938 0.0
C637 C 0.98066 0.57312 1.00041 0.0
C638 C 0.50468 0.05741 0.11036 0.0
C639 C 0.47831 0.06362 0.12949 0.0
H640 H 0.57531 1.04267 0.09532 0.0
C641 C 0.50467 0.05849 0.14871 0.0
H642 H 0.48543 0.06136 0.09533 0.0
C643 C 0.5563 1.04653 0.14871 0.0
C644 C 0.58257 1.04103 0.12949 0.0
H645 H 0.48519 0.06249 0.16368 0.0
H646 H 0.57586 1.04287 0.16367 0.0
C647 C 0.55612 1.04687 0.11036 0.0
C648 C 0.48473 0.52891 0.83376 0.0
C649 C 0.51382 0.48486 0.82187 0.0
H650 H 0.47634 0.62663 0.84587 0.0
C651 C 0.558 0.50873 0.81251 0.0
H652 H 0.45061 0.51257 0.84124 0.0
C653 C 0.573 0.57437 0.81522 0.0
C654 C 0.54422 0.61817 0.82735 0.0
H655 H 0.58155 0.47643 0.80325 0.0
H656 H 0.6074 0.59058 0.80794 0.0
C657 C 0.49968 0.59453 0.83644 0.0
C658 C 0.554 0.56051 0.17289 0.0
C659 C 0.58018 0.56523 0.19216 0.0
H660 H 0.48299 0.54692 0.15774 0.0
C661 C 0.55339 0.56018 0.21123 0.0
H662 H 0.57365 0.56357 0.15794 0.0
C663 C 0.5019 0.55057 0.21112 0.0
C664 C 0.47561 0.54526 0.19194 0.0
H665 H 0.57231 0.56402 0.22633 0.0
H666 H 0.48264 0.54663 0.22614 0.0
C667 C 0.50225 0.55012 0.17278 0.0
C668 C 0.57022 0.09445 0.50007 0.0
C669 C 0.51999 0.11504 0.49984 0.0
H670 H 0.62191 1.01367 0.49994 0.0
C671 C 0.48285 0.06639 0.50016 0.0
H672 H 0.59999 0.1303 0.4999 0.0
C673 C 0.49555 0.99929 0.50002 0.0
C674 C 0.54577 0.9787 0.49977 0.0
H675 H 0.44386 0.08008 0.49996 0.0
H676 H 0.46578 0.96344 0.4998 0.0
C677 C 0.58292 1.02735 0.50015 0.0
C678 C 1.00767 0.55329 0.61036 0.0
C679 C 0.98122 0.55902 0.62948 0.0
H680 H 0.07835 0.5389 0.59534 0.0
C681 C 1.00749 0.55343 0.64871 0.0
H682 H 0.98847 0.55757 0.59532 0.0
C683 C 0.05912 0.54148 0.64872 0.0
C684 C 0.08548 0.53646 0.6295 0.0
H685 H 0.98794 0.55701 0.66367 0.0
H686 H 0.0786 0.5374 0.66369 0.0
C687 C 0.05911 0.54277 0.61037 0.0
loop_
_geom_bond_atom_site_label_1
_geom_bond_atom_site_label_2
_geom_bond_distance
_geom_bond_site_symmetry_2
_ccdc_geom_bond_type
Cu0 N1 1.999 . S
Cu0 O6 1.974 . S
Cu0 N11 1.985 . S
Cu0 O20 1.959 . S
N1 Cu0 1.999 . S
N1 C3 1.263 . S
N1 C5 1.389 1_455 S
N2 C3 1.358 1_655 S
N2 C4 1.400 . S
C3 N1 1.263 . S
C3 N2 1.358 1_455 S
C3 H9 0.930 . S
C4 N2 1.400 . S
C4 C5 1.351 . S
C4 H21 0.930 . S
C5 N1 1.389 1_655 S
C5 C4 1.351 . S
C5 H10 0.930 . S
O6 Cu0 1.974 . S
O6 C16 1.282 . S
C7 O8 1.261 . S
C7 O20 1.251 . S
O8 C7 1.261 . S
H9 C3 0.930 . S
H10 C5 0.930 . S
N11 Cu0 1.985 . S
N11 C13 1.335 . S
N11 C14 1.390 . S
N12 C13 1.345 . S
N12 C15 1.336 . S
C13 N11 1.335 . S
C13 N12 1.345 . S
C13 H18 0.930 . S
C14 N11 1.390 . S
C14 C15 1.346 . S
C14 H19 0.930 . S
C15 N12 1.336 . S
C15 C14 1.346 . S
C15 H22 0.929 . S
C16 O6 1.282 . S
C16 O17 1.216 . S
O17 C16 1.216 . S
H18 C13 0.930 . S
H19 C14 0.930 . S
O20 Cu0 1.959 . S
O20 C7 1.251 . S
H21 C4 0.930 . S
H22 C15 0.929 . S
Cu23 N24 1.999 . S
Cu23 O29 1.974 . S
Cu23 N34 1.985 . S
Cu23 O43 1.959 . S
N24 Cu23 1.999 . S
N24 C26 1.263 . S
N24 C28 1.389 . S
N25 C26 1.358 . S
N25 C27 1.400 1_565 S
C26 N24 1.263 . S
C26 N25 1.358 . S
C26 H32 0.930 . S
C27 N25 1.400 1_545 S
C27 C28 1.351 1_545 S
C27 H44 0.930 . S
C28 N24 1.389 . S
C28 C27 1.351 1_565 S
C28 H33 0.930 1_565 S
O29 Cu23 1.974 . S
O29 C39 1.282 . S
C30 O31 1.261 . S
C30 O43 1.251 1_545 S
O31 C30 1.261 . S
H32 C26 0.930 . S
H33 C28 0.930 1_545 S
N34 Cu23 1.985 . S
N34 C36 1.335 . S
N34 C37 1.390 . S
N35 C36 1.345 . S
N35 C38 1.336 . S
C36 N34 1.335 . S
C36 N35 1.345 . S
C36 H41 0.930 . S
C37 N34 1.390 . S
C37 C38 1.346 . S
C37 H42 0.930 . S
C38 N35 1.336 . S
C38 C37 1.346 . S
C38 H45 0.929 . S
C39 O29 1.282 . S
C39 O40 1.216 . S
O40 C39 1.216 . S
H41 C36 0.930 . S
H42 C37 0.930 . S
O43 Cu23 1.959 . S
O43 C30 1.251 1_565 S
H44 C27 0.930 . S
H45 C38 0.929 . S
Cu46 N47 1.999 . S
Cu46 O52 1.974 . S
Cu46 N57 1.985 . S
Cu46 O66 1.959 . S
N47 Cu46 1.999 . S
N47 C49 1.263 . S
N47 C51 1.389 1_655 S
N48 C49 1.358 1_455 S
N48 C50 1.400 . S
C49 N47 1.263 . S
C49 N48 1.358 1_655 S
C49 H55 0.930 . S
C50 N48 1.400 . S
C50 C51 1.351 . S
C50 H67 0.930 . S
C51 N47 1.389 1_455 S
C51 C50 1.351 . S
C51 H56 0.930 . S
O52 Cu46 1.974 . S
O52 C62 1.282 . S
C53 O54 1.261 . S
C53 O66 1.251 . S
O54 C53 1.261 . S
H55 C49 0.930 . S
H56 C51 0.930 . S
N57 Cu46 1.985 . S
N57 C59 1.335 . S
N57 C60 1.390 . S
N58 C59 1.345 . S
N58 C61 1.336 . S
C59 N57 1.335 . S
C59 N58 1.345 . S
C59 H64 0.930 . S
C60 N57 1.390 . S
C60 C61 1.346 . S
C60 H65 0.930 . S
C61 N58 1.336 . S
C61 C60 1.346 . S
C61 H68 0.929 . S
C62 O52 1.282 . S
C62 O63 1.216 . S
O63 C62 1.216 . S
H64 C59 0.930 . S
H65 C60 0.930 . S
O66 Cu46 1.959 . S
O66 C53 1.251 . S
H67 C50 0.930 . S
H68 C61 0.929 . S
Cu69 N70 1.999 . S
Cu69 O75 1.974 . S
Cu69 N80 1.985 . S
Cu69 O89 1.959 . S
N70 Cu69 1.999 . S
N70 C72 1.263 . S
N70 C74 1.389 . S
N71 C72 1.358 . S
N71 C73 1.400 1_545 S
C72 N70 1.263 . S
C72 N71 1.358 . S
C72 H78 0.930 . S
C73 N71 1.400 1_565 S
C73 C74 1.351 1_565 S
C73 H90 0.930 . S
C74 N70 1.389 . S
C74 C73 1.351 1_545 S
C74 H79 0.930 1_545 S
O75 Cu69 1.974 . S
O75 C85 1.282 . S
C76 O77 1.261 . S
C76 O89 1.251 1_565 S
O77 C76 1.261 . S
H78 C72 0.930 . S
H79 C74 0.930 1_565 S
N80 Cu69 1.985 . S
N80 C82 1.335 . S
N80 C83 1.390 . S
N81 C82 1.345 . S
N81 C84 1.336 . S
C82 N80 1.335 . S
C82 N81 1.345 . S
C82 H87 0.930 . S
C83 N80 1.390 . S
C83 C84 1.346 . S
C83 H88 0.930 . S
C84 N81 1.336 . S
C84 C83 1.346 . S
C84 H91 0.929 . S
C85 O75 1.282 . S
C85 O86 1.216 . S
O86 C85 1.216 . S
H87 C82 0.930 . S
H88 C83 0.930 . S
O89 Cu69 1.959 . S
O89 C76 1.251 1_545 S
H90 C73 0.930 . S
H91 C84 0.929 . S
Cu92 N93 1.999 . S
Cu92 O98 1.974 . S
Cu92 N103 1.985 . S
Cu92 O112 1.959 . S
N93 Cu92 1.999 . S
N93 C95 1.263 . S
N93 C97 1.389 1_455 S
N94 C95 1.358 1_655 S
N94 C96 1.400 . S
C95 N93 1.263 . S
C95 N94 1.358 1_455 S
C95 H101 0.930 . S
C96 N94 1.400 . S
C96 C97 1.351 . S
C96 H113 0.930 . S
C97 N93 1.389 1_655 S
C97 C96 1.351 . S
C97 H102 0.930 . S
O98 Cu92 1.974 . S
O98 C108 1.282 . S
C99 O100 1.261 . S
C99 O112 1.251 . S
O100 C99 1.261 . S
H101 C95 0.930 . S
H102 C97 0.930 . S
N103 Cu92 1.985 . S
N103 C105 1.335 . S
N103 C106 1.390 . S
N104 C105 1.345 . S
N104 C107 1.336 . S
C105 N103 1.335 . S
C105 N104 1.345 . S
C105 H110 0.930 . S
C106 N103 1.390 . S
C106 C107 1.346 . S
C106 H111 0.930 . S
C107 N104 1.336 . S
C107 C106 1.346 . S
C107 H114 0.929 . S
C108 O98 1.282 . S
C108 O109 1.216 . S
O109 C108 1.216 . S
H110 C105 0.930 . S
H111 C106 0.930 . S
O112 Cu92 1.959 . S
O112 C99 1.251 . S
H113 C96 0.930 . S
H114 C107 0.929 . S
Cu115 N116 1.999 . S
Cu115 O121 1.974 . S
Cu115 N126 1.985 . S
Cu115 O135 1.959 . S
N116 Cu115 1.999 . S
N116 C118 1.263 . S
N116 C120 1.389 . S
N117 C118 1.358 . S
N117 C119 1.400 1_565 S
C118 N116 1.263 . S
C118 N117 1.358 . S
C118 H124 0.930 . S
C119 N117 1.400 1_545 S
C119 C120 1.351 1_545 S
C119 H136 0.930 . S
C120 N116 1.389 . S
C120 C119 1.351 1_565 S
C120 H125 0.927 1_565 S
O121 Cu115 1.974 . S
O121 C131 1.282 . S
C122 O123 1.261 . S
C122 O135 1.251 1_545 S
O123 C122 1.261 . S
H124 C118 0.930 . S
H125 C120 0.927 1_545 S
N126 Cu115 1.985 . S
N126 C128 1.335 . S
N126 C129 1.390 . S
N127 C128 1.345 . S
N127 C130 1.336 . S
C128 N126 1.335 . S
C128 N127 1.345 . S
C128 H133 0.930 . S
C129 N126 1.390 . S
C129 C130 1.346 . S
C129 H134 0.930 . S
C130 N127 1.336 . S
C130 C129 1.346 . S
C130 H137 0.929 . S
C131 O121 1.282 . S
C131 O132 1.216 . S
O132 C131 1.216 . S
H133 C128 0.930 . S
H134 C129 0.930 . S
O135 Cu115 1.959 . S
O135 C122 1.251 1_565 S
H136 C119 0.930 . S
H137 C130 0.929 . S
Cu138 N139 1.999 . S
Cu138 O144 1.974 . S
Cu138 N149 1.985 . S
Cu138 O158 1.959 . S
N139 Cu138 1.999 . S
N139 C141 1.263 . S
N139 C143 1.389 1_655 S
N140 C141 1.358 1_455 S
N140 C142 1.400 . S
C141 N139 1.263 . S
C141 N140 1.358 1_655 S
C141 H147 0.930 . S
C142 N140 1.400 . S
C142 C143 1.351 . S
C142 H159 0.930 . S
C143 N139 1.389 1_455 S
C143 C142 1.351 . S
C143 H148 0.930 . S
O144 Cu138 1.974 . S
O144 C154 1.282 . S
C145 O146 1.261 . S
C145 O158 1.251 . S
O146 C145 1.261 . S
H147 C141 0.930 . S
H148 C143 0.930 . S
N149 Cu138 1.985 . S
N149 C151 1.335 . S
N149 C152 1.390 . S
N150 C151 1.345 . S
N150 C153 1.336 . S
C151 N149 1.335 . S
C151 N150 1.345 . S
C151 H156 0.930 . S
C152 N149 1.390 . S
C152 C153 1.346 . S
C152 H157 0.930 . S
C153 N150 1.336 . S
C153 C152 1.346 . S
C153 H160 0.929 . S
C154 O144 1.282 . S
C154 O155 1.216 . S
O155 C154 1.216 . S
H156 C151 0.930 . S
H157 C152 0.930 . S
O158 Cu138 1.959 . S
O158 C145 1.251 . S
H159 C142 0.930 . S
H160 C153 0.929 . S
Cu161 N162 1.999 . S
Cu161 O167 1.974 . S
Cu161 N172 1.985 . S
Cu161 O181 1.959 . S
N162 Cu161 1.999 . S
N162 C164 1.263 . S
N162 C166 1.389 . S
N163 C164 1.358 . S
N163 C165 1.400 1_545 S
C164 N162 1.263 . S
C164 N163 1.358 . S
C164 H170 0.930 . S
C165 N163 1.400 1_565 S
C165 C166 1.351 1_565 S
C165 H182 0.930 . S
C166 N162 1.389 . S
C166 C165 1.351 1_545 S
C166 H171 0.927 1_545 S
O167 Cu161 1.974 . S
O167 C177 1.282 . S
C168 O169 1.261 . S
C168 O181 1.251 1_565 S
O169 C168 1.261 . S
H170 C164 0.930 . S
H171 C166 0.927 1_565 S
N172 Cu161 1.985 . S
N172 C174 1.335 . S
N172 C175 1.390 . S
N173 C174 1.345 . S
N173 C176 1.336 . S
C174 N172 1.335 . S
C174 N173 1.345 . S
C174 H179 0.930 . S
C175 N172 1.390 . S
C175 C176 1.346 . S
C175 H180 0.930 . S
C176 N173 1.336 . S
C176 C175 1.346 . S
C176 H183 0.929 . S
C177 O167 1.282 . S
C177 O178 1.216 . S
O178 C177 1.216 . S
H179 C174 0.930 . S
H180 C175 0.930 . S
O181 Cu161 1.959 . S
O181 C168 1.251 1_545 S
H182 C165 0.930 . S
H183 C176 0.929 . S
Cu184 N185 1.999 . S
Cu184 O190 1.974 . S
Cu184 N195 1.985 . S
Cu184 O204 1.959 . S
N185 Cu184 1.999 . S
N185 C187 1.263 . S
N185 C189 1.389 . S
N186 C187 1.358 . S
N186 C188 1.400 . S
C187 N185 1.263 . S
C187 N186 1.358 . S
C187 H193 0.930 . S
C188 N186 1.400 . S
C188 C189 1.351 . S
C188 H205 0.930 . S
C189 N185 1.389 . S
C189 C188 1.351 . S
C189 H194 0.930 . S
O190 Cu184 1.974 . S
O190 C200 1.282 . S
C191 O192 1.261 . S
C191 O204 1.251 . S
O192 C191 1.261 . S
H193 C187 0.930 . S
H194 C189 0.930 . S
N195 Cu184 1.985 . S
N195 C197 1.335 . S
N195 C198 1.390 . S
N196 C197 1.345 . S
N196 C199 1.336 . S
C197 N195 1.335 . S
C197 N196 1.345 . S
C197 H202 0.930 . S
C198 N195 1.390 . S
C198 C199 1.346 . S
C198 H203 0.930 . S
C199 N196 1.336 . S
C199 C198 1.346 . S
C199 H206 0.929 . S
C200 O190 1.282 . S
C200 O201 1.216 . S
O201 C200 1.216 . S
H202 C197 0.930 . S
H203 C198 0.930 . S
O204 Cu184 1.959 . S
O204 C191 1.251 . S
H205 C188 0.930 . S
H206 C199 0.929 . S
Cu207 N208 1.999 . S
Cu207 O213 1.974 . S
Cu207 N218 1.985 . S
Cu207 O227 1.959 . S
N208 Cu207 1.999 . S
N208 C210 1.263 . S
N208 C212 1.389 . S
N209 C210 1.358 . S
N209 C211 1.400 . S
C210 N208 1.263 . S
C210 N209 1.358 . S
C210 H216 0.930 . S
C211 N209 1.400 . S
C211 C212 1.351 . S
C211 H228 0.930 . S
C212 N208 1.389 . S
C212 C211 1.351 . S
C212 H217 0.930 . S
O213 Cu207 1.974 . S
O213 C223 1.282 . S
C214 O215 1.261 . S
C214 O227 1.251 . S
O215 C214 1.261 . S
H216 C210 0.930 . S
H217 C212 0.930 . S
N218 Cu207 1.985 . S
N218 C220 1.335 . S
N218 C221 1.390 . S
N219 C220 1.345 . S
N219 C222 1.336 . S
C220 N218 1.335 . S
C220 N219 1.345 . S
C220 H225 0.930 . S
C221 N218 1.390 . S
C221 C222 1.346 . S
C221 H226 0.930 . S
C222 N219 1.336 . S
C222 C221 1.346 . S
C222 H229 0.929 . S
C223 O213 1.282 . S
C223 O224 1.216 . S
O224 C223 1.216 . S
H225 C220 0.930 . S
H226 C221 0.930 . S
O227 Cu207 1.959 . S
O227 C214 1.251 . S
H228 C211 0.930 . S
H229 C222 0.929 . S
Cu230 N231 1.999 . S
Cu230 O236 1.974 . S
Cu230 N241 1.985 . S
Cu230 O250 1.959 . S
N231 Cu230 1.999 . S
N231 C233 1.263 . S
N231 C235 1.389 . S
N232 C233 1.358 . S
N232 C234 1.400 . S
C233 N231 1.263 . S
C233 N232 1.358 . S
C233 H239 0.930 . S
C234 N232 1.400 . S
C234 C235 1.351 . S
C234 H251 0.930 . S
C235 N231 1.389 . S
C235 C234 1.351 . S
C235 H240 0.930 . S
O236 Cu230 1.974 . S
O236 C246 1.282 . S
C237 O238 1.261 . S
C237 O250 1.251 . S
O238 C237 1.261 . S
H239 C233 0.930 . S
H240 C235 0.930 . S
N241 Cu230 1.985 . S
N241 C243 1.335 . S
N241 C244 1.390 . S
N242 C243 1.345 . S
N242 C245 1.336 . S
C243 N241 1.335 . S
C243 N242 1.345 . S
C243 H248 0.930 . S
C244 N241 1.390 . S
C244 C245 1.346 . S
C244 H249 0.930 . S
C245 N242 1.336 . S
C245 C244 1.346 . S
C245 H252 0.929 . S
C246 O236 1.282 . S
C246 O247 1.216 . S
O247 C246 1.216 . S
H248 C243 0.930 . S
H249 C244 0.930 . S
O250 Cu230 1.959 . S
O250 C237 1.251 . S
H251 C234 0.930 . S
H252 C245 0.929 . S
Cu253 N254 1.999 . S
Cu253 O259 1.974 . S
Cu253 N264 1.985 . S
Cu253 O273 1.959 . S
N254 Cu253 1.999 . S
N254 C256 1.263 . S
N254 C258 1.389 . S
N255 C256 1.358 . S
N255 C257 1.400 . S
C256 N254 1.263 . S
C256 N255 1.358 . S
C256 H262 0.930 . S
C257 N255 1.400 . S
C257 C258 1.351 . S
C257 H274 0.930 . S
C258 N254 1.389 . S
C258 C257 1.351 . S
C258 H263 0.930 . S
O259 Cu253 1.974 . S
O259 C269 1.282 . S
C260 O261 1.261 . S
C260 O273 1.251 . S
O261 C260 1.261 . S
H262 C256 0.930 . S
H263 C258 0.930 . S
N264 Cu253 1.985 . S
N264 C266 1.335 . S
N264 C267 1.390 . S
N265 C266 1.345 . S
N265 C268 1.336 . S
C266 N264 1.335 . S
C266 N265 1.345 . S
C266 H271 0.930 . S
C267 N264 1.390 . S
C267 C268 1.346 . S
C267 H272 0.930 . S
C268 N265 1.336 . S
C268 C267 1.346 . S
C268 H275 0.929 . S
C269 O259 1.282 . S
C269 O270 1.216 . S
O270 C269 1.216 . S
H271 C266 0.930 . S
H272 C267 0.930 . S
O273 Cu253 1.959 . S
O273 C260 1.251 . S
H274 C257 0.930 . S
H275 C268 0.929 . S
Cu276 N277 1.999 . S
Cu276 O282 1.974 . S
Cu276 N287 1.985 . S
Cu276 O296 1.959 . S
N277 Cu276 1.999 . S
N277 C279 1.263 . S
N277 C281 1.389 . S
N278 C279 1.358 . S
N278 C280 1.400 . S
C279 N277 1.263 . S
C279 N278 1.358 . S
C279 H285 0.930 . S
C280 N278 1.400 . S
C280 C281 1.351 . S
C280 H297 0.930 . S
C281 N277 1.389 . S
C281 C280 1.351 . S
C281 H286 0.930 . S
O282 Cu276 1.974 . S
O282 C292 1.282 . S
C283 O284 1.261 . S
C283 O296 1.251 . S
O284 C283 1.261 . S
H285 C279 0.930 . S
H286 C281 0.930 . S
N287 Cu276 1.985 . S
N287 C289 1.335 . S
N287 C290 1.390 . S
N288 C289 1.345 . S
N288 C291 1.336 . S
C289 N287 1.335 . S
C289 N288 1.345 . S
C289 H294 0.930 . S
C290 N287 1.390 . S
C290 C291 1.346 . S
C290 H295 0.930 . S
C291 N288 1.336 . S
C291 C290 1.346 . S
C291 H298 0.929 . S
C292 O282 1.282 . S
C292 O293 1.216 . S
O293 C292 1.216 . S
H294 C289 0.930 . S
H295 C290 0.930 . S
O296 Cu276 1.959 . S
O296 C283 1.251 . S
H297 C280 0.930 . S
H298 C291 0.929 . S
Cu299 N300 1.999 . S
Cu299 O305 1.974 . S
Cu299 N310 1.985 . S
Cu299 O319 1.959 . S
N300 Cu299 1.999 . S
N300 C302 1.263 . S
N300 C304 1.389 . S
N301 C302 1.358 . S
N301 C303 1.400 . S
C302 N300 1.263 . S
C302 N301 1.358 . S
C302 H308 0.930 . S
C303 N301 1.400 . S
C303 C304 1.351 . S
C303 H320 0.930 . S
C304 N300 1.389 . S
C304 C303 1.351 . S
C304 H309 0.930 . S
O305 Cu299 1.974 . S
O305 C315 1.282 . S
C306 O307 1.261 . S
C306 O319 1.251 . S
O307 C306 1.261 . S
H308 C302 0.930 . S
H309 C304 0.930 . S
N310 Cu299 1.985 . S
N310 C312 1.335 . S
N310 C313 1.390 . S
N311 C312 1.345 . S
N311 C314 1.336 . S
C312 N310 1.335 . S
C312 N311 1.345 . S
C312 H317 0.930 . S
C313 N310 1.390 . S
C313 C314 1.346 . S
C313 H318 0.930 . S
C314 N311 1.336 . S
C314 C313 1.346 . S
C314 H321 0.929 . S
C315 O305 1.282 . S
C315 O316 1.216 . S
O316 C315 1.216 . S
H317 C312 0.930 . S
H318 C313 0.930 . S
O319 Cu299 1.959 . S
O319 C306 1.251 . S
H320 C303 0.930 . S
H321 C314 0.929 . S
Cu322 N323 1.999 . S
Cu322 O328 1.974 . S
Cu322 N333 1.985 . S
Cu322 O342 1.959 . S
N323 Cu322 1.999 . S
N323 C325 1.263 . S
N323 C327 1.389 . S
N324 C325 1.358 . S
N324 C326 1.400 . S
C325 N323 1.263 . S
C325 N324 1.358 . S
C325 H331 0.930 . S
C326 N324 1.400 . S
C326 C327 1.351 . S
C326 H343 0.930 . S
C327 N323 1.389 . S
C327 C326 1.351 . S
C327 H332 0.930 . S
O328 Cu322 1.974 . S
O328 C338 1.282 . S
C329 O330 1.261 . S
C329 O342 1.251 . S
O330 C329 1.261 . S
H331 C325 0.930 . S
H332 C327 0.930 . S
N333 Cu322 1.985 . S
N333 C335 1.335 . S
N333 C336 1.390 . S
N334 C335 1.345 . S
N334 C337 1.336 . S
C335 N333 1.335 . S
C335 N334 1.345 . S
C335 H340 0.930 . S
C336 N333 1.390 . S
C336 C337 1.346 . S
C336 H341 0.930 . S
C337 N334 1.336 . S
C337 C336 1.346 . S
C337 H344 0.929 . S
C338 O328 1.282 . S
C338 O339 1.216 . S
O339 C338 1.216 . S
H340 C335 0.930 . S
H341 C336 0.930 . S
O342 Cu322 1.959 . S
O342 C329 1.251 . S
H343 C326 0.930 . S
H344 C337 0.929 . S
Cu345 N346 1.999 . S
Cu345 O351 1.974 . S
Cu345 N356 1.985 . S
Cu345 O365 1.959 . S
N346 Cu345 1.999 . S
N346 C348 1.263 . S
N346 C350 1.389 . S
N347 C348 1.358 . S
N347 C349 1.400 . S
C348 N346 1.263 . S
C348 N347 1.358 . S
C348 H354 0.930 . S
C349 N347 1.400 . S
C349 C350 1.351 . S
C349 H366 0.930 . S
C350 N346 1.389 . S
C350 C349 1.351 . S
C350 H355 0.930 . S
O351 Cu345 1.974 . S
O351 C361 1.282 . S
C352 O353 1.261 . S
C352 O365 1.251 . S
O353 C352 1.261 . S
H354 C348 0.930 . S
H355 C350 0.930 . S
N356 Cu345 1.985 . S
N356 C358 1.335 . S
N356 C359 1.390 . S
N357 C358 1.345 . S
N357 C360 1.336 . S
C358 N356 1.335 . S
C358 N357 1.345 . S
C358 H363 0.930 . S
C359 N356 1.390 . S
C359 C360 1.346 . S
C359 H364 0.930 . S
C360 N357 1.336 . S
C360 C359 1.346 . S
C360 H367 0.929 . S
C361 O351 1.282 . S
C361 O362 1.216 . S
O362 C361 1.216 . S
H363 C358 0.930 . S
H364 C359 0.930 . S
O365 Cu345 1.959 . S
O365 C352 1.251 . S
H366 C349 0.930 . S
H367 C360 0.929 . S
C368 C369 1.387 . S
C368 H372 0.950 . S
C368 C377 1.390 . S
C369 C368 1.387 . S
C369 C371 1.387 . S
H370 C377 0.950 . S
C371 C369 1.387 . S
C371 C373 1.390 . S
C371 H375 0.950 . S
H372 C368 0.950 . S
C373 C371 1.390 . S
C373 C374 1.387 . S
C373 H376 0.950 . S
C374 C373 1.387 . S
C374 C377 1.387 . S
H375 C371 0.950 . S
H376 C373 0.950 . S
C377 C368 1.390 . S
C377 H370 0.950 . S
C377 C374 1.387 . S
C378 C379 1.387 . S
C378 H382 0.950 . S
C378 C387 1.390 . S
C379 C378 1.387 . S
C379 C381 1.387 . S
H380 C387 0.950 . S
C381 C379 1.387 . S
C381 C383 1.390 . S
C381 H385 0.950 . S
H382 C378 0.950 . S
C383 C381 1.390 . S
C383 C384 1.387 . S
C383 H386 0.950 . S
C384 C383 1.387 . S
C384 C387 1.387 . S
H385 C381 0.950 . S
H386 C383 0.950 . S
C387 C378 1.390 . S
C387 H380 0.950 . S
C387 C384 1.387 . S
C388 C389 1.387 . S
C388 H392 0.950 . S
C388 C397 1.390 . S
C389 C388 1.387 . S
C389 C391 1.387 . S
H390 C397 0.950 . S
C391 C389 1.387 . S
C391 C393 1.390 . S
C391 H395 0.950 . S
H392 C388 0.950 . S
C393 C391 1.390 . S
C393 C394 1.387 . S
C393 H396 0.950 . S
C394 C393 1.387 . S
C394 C397 1.387 . S
H395 C391 0.950 . S
H396 C393 0.950 . S
C397 C388 1.390 . S
C397 H390 0.950 . S
C397 C394 1.387 . S
C398 C399 1.387 . S
C398 H402 0.950 . S
C398 C407 1.390 . S
C399 C398 1.387 . S
C399 C401 1.387 . S
H400 C407 0.950 . S
C401 C399 1.387 . S
C401 C403 1.390 . S
C401 H405 0.950 . S
H402 C398 0.950 . S
C403 C401 1.390 . S
C403 C404 1.387 . S
C403 H406 0.950 . S
C404 C403 1.387 . S
C404 C407 1.387 . S
H405 C401 0.950 . S
H406 C403 0.950 . S
C407 C398 1.390 . S
C407 H400 0.950 . S
C407 C404 1.387 . S
C408 C409 1.387 . S
C408 H412 0.950 . S
C408 C417 1.390 . S
C409 C408 1.387 . S
C409 C411 1.387 . S
H410 C417 0.950 . S
C411 C409 1.387 . S
C411 C413 1.390 1_554 S
C411 H415 0.950 . S
H412 C408 0.950 . S
C413 C411 1.390 1_556 S
C413 C414 1.383 1_556 S
C413 H416 0.950 . S
C414 C413 1.383 1_554 S
C414 C417 1.413 . S
H415 C411 0.950 . S
H416 C413 0.950 . S
C417 C408 1.390 . S
C417 H410 0.950 . S
C417 C414 1.413 . S
C418 C419 1.387 . S
C418 H422 0.950 . S
C418 C427 1.390 . S
C419 C418 1.387 . S
C419 C421 1.387 . S
H420 C427 0.950 . S
C421 C419 1.387 . S
C421 C423 1.390 . S
C421 H425 0.950 . S
H422 C418 0.950 . S
C423 C421 1.390 . S
C423 C424 1.387 . S
C423 H426 0.950 1_554 S
C424 C423 1.387 . S
C424 C427 1.387 . S
H425 C421 0.950 . S
H426 C423 0.950 1_556 S
C427 C418 1.390 . S
C427 H420 0.950 . S
C427 C424 1.387 . S
C428 C429 1.401 . S
C428 H432 0.950 . S
C428 C437 1.390 . S
C429 C428 1.401 . S
C429 C431 1.392 . S
H430 C437 0.950 . S
C431 C429 1.392 . S
C431 C433 1.390 . S
C431 H435 0.950 1_554 S
H432 C428 0.950 . S
C433 C431 1.390 . S
C433 C434 1.387 . S
C433 H436 0.950 . S
C434 C433 1.387 . S
C434 C437 1.387 . S
H435 C431 0.950 1_556 S
H436 C433 0.950 . S
C437 C428 1.390 . S
C437 H430 0.950 . S
C437 C434 1.387 . S
C438 C439 1.387 . S
C438 H442 0.950 . S
C438 C447 1.390 . S
C439 C438 1.387 . S
C439 C441 1.387 . S
H440 C447 0.950 1_556 S
C441 C439 1.387 . S
C441 C443 1.390 . S
C441 H445 0.950 . S
H442 C438 0.950 . S
C443 C441 1.390 . S
C443 C444 1.387 . S
C443 H446 0.950 . S
C444 C443 1.387 . S
C444 C447 1.387 . S
H445 C441 0.950 . S
H446 C443 0.950 . S
C447 C438 1.390 . S
C447 H440 0.950 1_554 S
C447 C444 1.387 . S
C448 C449 1.387 . S
C448 H452 0.950 . S
C448 C457 1.390 . S
C449 C448 1.387 . S
C449 C451 1.387 . S
H450 C457 0.950 . S
C451 C449 1.387 . S
C451 C453 1.390 . S
C451 H455 0.950 . S
H452 C448 0.950 . S
C453 C451 1.390 . S
C453 C454 1.387 . S
C453 H456 0.950 . S
C454 C453 1.387 . S
C454 C457 1.387 . S
H455 C451 0.950 . S
H456 C453 0.950 . S
C457 C448 1.390 . S
C457 H450 0.950 . S
C457 C454 1.387 . S
C458 C459 1.387 . S
C458 H462 0.950 . S
C458 C467 1.390 . S
C459 C458 1.387 . S
C459 C461 1.387 . S
H460 C467 0.950 . S
C461 C459 1.387 . S
C461 C463 1.390 . S
C461 H465 0.950 . S
H462 C458 0.950 . S
C463 C461 1.390 . S
C463 C464 1.387 . S
C463 H466 0.950 . S
C464 C463 1.387 . S
C464 C467 1.387 . S
H465 C461 0.950 . S
H466 C463 0.950 . S
C467 C458 1.390 . S
C467 H460 0.950 . S
C467 C464 1.387 . S
C468 C469 1.387 . S
C468 H472 0.950 . S
C468 C477 1.390 . S
C469 C468 1.387 . S
C469 C471 1.387 . S
H470 C477 0.950 . S
C471 C469 1.387 . S
C471 C473 1.390 . S
C471 H475 0.950 . S
H472 C468 0.950 . S
C473 C471 1.390 . S
C473 C474 1.387 . S
C473 H476 0.950 . S
C474 C473 1.387 . S
C474 C477 1.387 . S
H475 C471 0.950 . S
H476 C473 0.950 . S
C477 C468 1.390 . S
C477 H470 0.950 . S
C477 C474 1.387 . S
C478 C479 1.387 . S
C478 H482 0.950 . S
C478 C487 1.390 . S
C479 C478 1.387 . S
C479 C481 1.387 . S
H480 C487 0.950 . S
C481 C479 1.387 . S
C481 C483 1.390 . S
C481 H485 0.950 . S
H482 C478 0.950 . S
C483 C481 1.390 . S
C483 C484 1.387 . S
C483 H486 0.950 . S
C484 C483 1.387 . S
C484 C487 1.387 . S
H485 C481 0.950 . S
H486 C483 0.950 . S
C487 C478 1.390 . S
C487 H480 0.950 . S
C487 C484 1.387 . S
C488 C489 1.387 . S
C488 H492 0.950 . S
C488 C497 1.390 . S
C489 C488 1.387 . S
C489 C491 1.387 . S
H490 C497 0.950 . S
C491 C489 1.387 . S
C491 C493 1.390 . S
C491 H495 0.950 . S
H492 C488 0.950 . S
C493 C491 1.390 . S
C493 C494 1.387 . S
C493 H496 0.950 . S
C494 C493 1.387 . S
C494 C497 1.387 . S
H495 C491 0.950 . S
H496 C493 0.950 . S
C497 C488 1.390 . S
C497 H490 0.950 . S
C497 C494 1.387 . S
C498 C499 1.387 . S
C498 H502 0.950 . S
C498 C507 1.390 . S
C499 C498 1.387 . S
C499 C501 1.387 . S
H500 C507 0.950 . S
C501 C499 1.387 . S
C501 C503 1.390 . S
C501 H505 0.950 . S
H502 C498 0.950 . S
C503 C501 1.390 . S
C503 C504 1.387 . S
C503 H506 0.950 . S
C504 C503 1.387 . S
C504 C507 1.387 . S
H505 C501 0.950 . S
H506 C503 0.950 . S
C507 C498 1.390 . S
C507 H500 0.950 . S
C507 C504 1.387 . S
C508 C509 1.387 . S
C508 H512 0.950 . S
C508 C517 1.390 . S
C509 C508 1.387 . S
C509 C511 1.387 . S
H510 C517 0.950 . S
C511 C509 1.387 . S
C511 C513 1.390 . S
C511 H515 0.950 . S
H512 C508 0.950 . S
C513 C511 1.390 . S
C513 C514 1.387 . S
C513 H516 0.950 . S
C514 C513 1.387 . S
C514 C517 1.387 . S
H515 C511 0.950 . S
H516 C513 0.950 . S
C517 C508 1.390 . S
C517 H510 0.950 . S
C517 C514 1.387 . S
C518 C519 1.387 . S
C518 H522 0.950 . S
C518 C527 1.390 . S
C519 C518 1.387 . S
C519 C521 1.387 . S
H520 C527 0.950 . S
C521 C519 1.387 . S
C521 C523 1.390 . S
C521 H525 0.950 . S
H522 C518 0.950 . S
C523 C521 1.390 . S
C523 C524 1.387 . S
C523 H526 0.950 . S
C524 C523 1.387 . S
C524 C527 1.387 . S
H525 C521 0.950 . S
H526 C523 0.950 . S
C527 C518 1.390 . S
C527 H520 0.950 . S
C527 C524 1.387 . S
C528 C529 1.387 . S
C528 H532 0.950 . S
C528 C537 1.390 . S
C529 C528 1.387 . S
C529 C531 1.387 . S
H530 C537 0.950 . S
C531 C529 1.387 . S
C531 C533 1.390 . S
C531 H535 0.950 . S
H532 C528 0.950 . S
C533 C531 1.390 . S
C533 C534 1.387 . S
C533 H536 0.950 . S
C534 C533 1.387 . S
C534 C537 1.387 . S
H535 C531 0.950 . S
H536 C533 0.950 . S
C537 C528 1.390 . S
C537 H530 0.950 . S
C537 C534 1.387 . S
C538 C539 1.387 . S
C538 H542 0.950 . S
C538 C547 1.390 . S
C539 C538 1.387 . S
C539 C541 1.387 . S
H540 C547 0.950 . S
C541 C539 1.387 . S
C541 C543 1.390 . S
C541 H545 0.950 . S
H542 C538 0.950 . S
C543 C541 1.390 . S
C543 C544 1.387 . S
C543 H546 0.950 . S
C544 C543 1.387 . S
C544 C547 1.387 . S
H545 C541 0.950 . S
H546 C543 0.950 . S
C547 C538 1.390 . S
C547 H540 0.950 . S
C547 C544 1.387 . S
C548 C549 1.387 . S
C548 H552 0.950 . S
C548 C557 1.390 . S
C549 C548 1.387 . S
C549 C551 1.387 . S
H550 C557 0.950 . S
C551 C549 1.387 . S
C551 C553 1.390 . S
C551 H555 0.950 . S
H552 C548 0.950 . S
C553 C551 1.390 . S
C553 C554 1.387 . S
C553 H556 0.950 . S
C554 C553 1.387 . S
C554 C557 1.387 . S
H555 C551 0.950 . S
H556 C553 0.950 . S
C557 C548 1.390 . S
C557 H550 0.950 . S
C557 C554 1.387 . S
C558 C559 1.387 . S
C558 H562 0.950 . S
C558 C567 1.390 . S
C559 C558 1.387 . S
C559 C561 1.387 . S
H560 C567 0.950 . S
C561 C559 1.387 . S
C561 C563 1.390 . S
C561 H565 0.950 . S
H562 C558 0.950 . S
C563 C561 1.390 . S
C563 C564 1.387 . S
C563 H566 0.950 . S
C564 C563 1.387 . S
C564 C567 1.387 . S
H565 C561 0.950 . S
H566 C563 0.950 . S
C567 C558 1.390 . S
C567 H560 0.950 . S
C567 C564 1.387 . S
C568 C569 1.387 . S
C568 H572 0.950 . S
C568 C577 1.390 . S
C569 C568 1.387 . S
C569 C571 1.387 . S
H570 C577 0.950 . S
C571 C569 1.387 . S
C571 C573 1.390 . S
C571 H575 0.950 . S
H572 C568 0.950 . S
C573 C571 1.390 . S
C573 C574 1.387 . S
C573 H576 0.950 . S
C574 C573 1.387 . S
C574 C577 1.387 . S
H575 C571 0.950 . S
H576 C573 0.950 . S
C577 C568 1.390 . S
C577 H570 0.950 . S
C577 C574 1.387 . S
C578 C579 1.387 . S
C578 H582 0.950 . S
C578 C587 1.390 . S
C579 C578 1.387 . S
C579 C581 1.387 . S
H580 C587 0.950 . S
C581 C579 1.387 . S
C581 C583 1.390 . S
C581 H585 0.950 . S
H582 C578 0.950 . S
C583 C581 1.390 . S
C583 C584 1.387 . S
C583 H586 0.950 . S
C584 C583 1.387 . S
C584 C587 1.387 . S
H585 C581 0.950 . S
H586 C583 0.950 . S
C587 C578 1.390 . S
C587 H580 0.950 . S
C587 C584 1.387 . S
C588 C589 1.387 . S
C588 H592 0.950 . S
C588 C597 1.390 . S
C589 C588 1.387 . S
C589 C591 1.387 . S
H590 C597 0.950 . S
C591 C589 1.387 . S
C591 C593 1.390 . S
C591 H595 0.950 . S
H592 C588 0.950 . S
C593 C591 1.390 . S
C593 C594 1.387 . S
C593 H596 0.950 . S
C594 C593 1.387 . S
C594 C597 1.387 . S
H595 C591 0.950 . S
H596 C593 0.950 . S
C597 C588 1.390 . S
C597 H590 0.950 . S
C597 C594 1.387 . S
C598 C599 1.387 . S
C598 H602 0.950 . S
C598 C607 1.390 . S
C599 C598 1.387 . S
C599 C601 1.387 . S
H600 C607 0.950 . S
C601 C599 1.387 . S
C601 C603 1.390 . S
C601 H605 0.950 . S
H602 C598 0.950 . S
C603 C601 1.390 . S
C603 C604 1.387 . S
C603 H606 0.950 . S
C604 C603 1.387 . S
C604 C607 1.387 . S
H605 C601 0.950 . S
H606 C603 0.950 . S
C607 C598 1.390 . S
C607 H600 0.950 . S
C607 C604 1.387 . S
C608 C609 1.387 . S
C608 H612 0.950 . S
C608 C617 1.390 1_665 S
C609 C608 1.387 . S
C609 C611 1.387 . S
H610 C617 0.950 . S
C611 C609 1.387 . S
C611 C613 1.390 1_665 S
C611 H615 0.950 . S
H612 C608 0.950 . S
C613 C611 1.390 1_445 S
C613 C614 1.387 . S
C613 H616 0.950 . S
C614 C613 1.387 . S
C614 C617 1.387 . S
H615 C611 0.950 . S
H616 C613 0.950 . S
C617 C608 1.390 1_445 S
C617 H610 0.950 . S
C617 C614 1.387 . S
C618 C619 1.388 . S
C618 H622 0.950 . S
C618 C627 1.390 1_645 S
C619 C618 1.388 . S
C619 C621 1.388 . S
H620 C627 0.950 . S
C621 C619 1.388 . S
C621 C623 1.390 1_645 S
C621 H625 0.950 . S
H622 C618 0.950 . S
C623 C621 1.390 1_465 S
C623 C624 1.388 . S
C623 H626 0.950 . S
C624 C623 1.388 . S
C624 C627 1.388 . S
H625 C621 0.950 . S
H626 C623 0.950 . S
C627 C618 1.390 1_465 S
C627 H620 0.950 . S
C627 C624 1.388 . S
C628 C629 1.387 . S
C628 H632 0.950 . S
C628 C637 1.390 1_455 S
C629 C628 1.387 . S
C629 C631 1.387 . S
H630 C637 0.950 . S
C631 C629 1.387 . S
C631 C633 1.390 1_455 S
C631 H635 0.950 . S
H632 C628 0.950 . S
C633 C631 1.390 1_655 S
C633 C634 1.387 . S
C633 H636 0.950 . S
C634 C633 1.387 . S
C634 C637 1.387 . S
H635 C631 0.950 . S
H636 C633 0.950 . S
C637 C628 1.390 1_655 S
C637 H630 0.950 . S
C637 C634 1.387 . S
C638 C639 1.388 . S
C638 H642 0.950 . S
C638 C647 1.390 1_565 S
C639 C638 1.388 . S
C639 C641 1.388 . S
H640 C647 0.950 . S
C641 C639 1.388 . S
C641 C643 1.390 1_565 S
C641 H645 0.950 . S
H642 C638 0.950 . S
C643 C641 1.390 1_545 S
C643 C644 1.388 . S
C643 H646 0.950 . S
C644 C643 1.388 . S
C644 C647 1.388 . S
H645 C641 0.950 . S
H646 C643 0.950 . S
C647 C638 1.390 1_545 S
C647 H640 0.950 . S
C647 C644 1.388 . S
C648 C649 1.387 . S
C648 H652 0.950 . S
C648 C657 1.390 . S
C649 C648 1.387 . S
C649 C651 1.387 . S
H650 C657 0.950 . S
C651 C649 1.387 . S
C651 C653 1.390 . S
C651 H655 0.950 . S
H652 C648 0.950 . S
C653 C651 1.390 . S
C653 C654 1.387 . S
C653 H656 0.950 . S
C654 C653 1.387 . S
C654 C657 1.387 . S
H655 C651 0.950 . S
H656 C653 0.950 . S
C657 C648 1.390 . S
C657 H650 0.950 . S
C657 C654 1.387 . S
C658 C659 1.387 . S
C658 H662 0.950 . S
C658 C667 1.390 . S
C659 C658 1.387 . S
C659 C661 1.387 . S
H660 C667 0.950 . S
C661 C659 1.387 . S
C661 C663 1.390 . S
C661 H665 0.950 . S
H662 C658 0.950 . S
C663 C661 1.390 . S
C663 C664 1.387 . S
C663 H666 0.950 . S
C664 C663 1.387 . S
C664 C667 1.387 . S
H665 C661 0.950 . S
H666 C663 0.950 . S
C667 C658 1.390 . S
C667 H660 0.950 . S
C667 C664 1.387 . S
C668 C669 1.387 . S
C668 H672 0.950 . S
C668 C677 1.390 1_545 S
C669 C668 1.387 . S
C669 C671 1.387 . S
H670 C677 0.950 . S
C671 C669 1.387 . S
C671 C673 1.390 1_545 S
C671 H675 0.950 . S
H672 C668 0.950 . S
C673 C671 1.390 1_565 S
C673 C674 1.387 . S
C673 H676 0.950 . S
C674 C673 1.387 . S
C674 C677 1.387 . S
H675 C671 0.950 . S
H676 C673 0.950 . S
C677 C668 1.390 1_565 S
C677 H670 0.950 . S
C677 C674 1.387 . S
C678 C679 1.387 . S
C678 H682 0.950 . S
C678 C687 1.390 1_655 S
C679 C678 1.387 . S
C679 C681 1.387 . S
H680 C687 0.950 . S
C681 C679 1.387 . S
C681 C683 1.390 1_655 S
C681 H685 0.950 . S
H682 C678 0.950 . S
C683 C681 1.390 1_455 S
C683 C684 1.387 . S
C683 H686 0.950 . S
C684 C683 1.387 . S
C684 C687 1.387 . S
H685 C681 0.950 . S
H686 C683 0.950 . S
C687 C678 1.390 1_455 S
C687 H680 0.950 . S
C687 C684 1.387 . S
C369 C16 1.759 . S
C374 C260 1.836 . S
C379 N186 1.358 . S
C384 N35 1.344 . S
C389 C214 1.836 . S
C394 C62 1.760 . S
C399 N232 1.359 . S
C404 N81 1.345 . S
C409 C122 1.834 . S
C414 C108 1.740 1_554 S
C419 N127 1.344 . S
C424 N140 1.358 1_554 S
C429 C154 1.744 1_554 S
C434 C168 1.835 . S
C439 N173 1.347 . S
C444 N94 1.357 1_554 S
C449 C200 1.759 . S
C454 C76 1.836 . S
C459 N2 1.358 . S
C464 N219 1.344 . S
C469 C30 1.834 . S
C474 C246 1.757 . S
C479 N48 1.358 . S
C484 N265 1.344 . S
C489 C306 1.834 . S
C494 C292 1.757 . S
C499 N311 1.344 . S
C504 N324 1.357 . S
C509 C352 1.835 . S
C514 C338 1.759 . S
C519 N278 1.356 . S
C524 N357 1.346 . S
C529 N334 1.723 . S
C534 N12 1.723 . S
C539 C361 1.901 . S
C544 C39 1.901 . S
C549 N288 1.723 . S
C554 N58 1.723 . S
C559 C85 1.900 . S
C564 C315 1.900 . S
C569 N104 1.723 . S
C574 N242 1.723 . S
C579 C269 1.901 . S
C584 C131 1.901 . S
C589 N150 1.723 . S
C594 N196 1.723 . S
C599 C177 1.901 . S
C604 C223 1.901 . S
C609 C53 1.761 . S
C614 C7 1.761 . S
C619 N71 1.668 . S
C624 N25 1.668 . S
C629 C99 1.759 . S
C634 C145 1.759 . S
C639 N117 1.668 . S
C644 N163 1.668 . S
C649 C237 1.760 . S
C654 C191 1.760 . S
C659 N209 1.669 . S
C664 N255 1.669 . S
C669 C329 1.759 . S
C674 C283 1.760 . S
C679 N301 1.668 . S
C684 N347 1.668 . S
