# Generated by pormake.
# Topology vmf, (6)-cn, num edge types: 1
# Building blocks:
#     Node 0, Type 0, BuildingBlock: OJICUG_clean_sbu_0, # of connection points: 6
#     Node 1, Type 0, BuildingBlock: OJICUG_clean_sbu_0, # of connection points: 6
#     Node 2, Type 0, BuildingBlock: OJICUG_clean_sbu_0, # of connection points: 6
#     Node 3, Type 0, BuildingBlock: OJICUG_clean_sbu_0, # of connection points: 6
#     Node 4, Type 0, BuildingBlock: OJICUG_clean_sbu_0, # of connection points: 6
#     Node 5, Type 0, BuildingBlock: OJICUG_clean_sbu_0, # of connection points: 6
#     Node 6, Type 0, BuildingBlock: OJICUG_clean_sbu_0, # of connection points: 6
#     Node 7, Type 0, BuildingBlock: OJICUG_clean_sbu_0, # of connection points: 6
#     Edge 8, Type (0, 0), BuildingBlock: AJUNOK_clean_linker_0, # of connection points: 2
#     Edge 9, Type (0, 0), BuildingBlock: AJUNOK_clean_linker_0, # of connection points: 2
#     Edge 10, Type (0, 0), BuildingBlock: AJUNOK_clean_linker_0, # of connection points: 2
#     Edge 11, Type (0, 0), BuildingBlock: AJUNOK_clean_linker_0, # of connection points: 2
#     Edge 12, Type (0, 0), BuildingBlock: AJUNOK_clean_linker_0, # of connection points: 2
#     Edge 13, Type (0, 0), BuildingBlock: AJUNOK_clean_linker_0, # of connection points: 2
#     Edge 14, Type (0, 0), BuildingBlock: AJUNOK_clean_linker_0, # of connection points: 2
#     Edge 15, Type (0, 0), BuildingBlock: AJUNOK_clean_linker_0, # of connection points: 2
#     Edge 16, Type (0, 0), BuildingBlock: AJUNOK_clean_linker_0, # of connection points: 2
#     Edge 17, Type (0, 0), BuildingBlock: AJUNOK_clean_linker_0, # of connection points: 2
#     Edge 18, Type (0, 0), BuildingBlock: AJUNOK_clean_linker_0, # of connection points: 2
#     Edge 19, Type (0, 0), BuildingBlock: AJUNOK_clean_linker_0, # of connection points: 2
#     Edge 20, Type (0, 0), BuildingBlock: AJUNOK_clean_linker_0, # of connection points: 2
#     Edge 21, Type (0, 0), BuildingBlock: AJUNOK_clean_linker_0, # of connection points: 2
#     Edge 22, Type (0, 0), BuildingBlock: AJUNOK_clean_linker_0, # of connection points: 2
#     Edge 23, Type (0, 0), BuildingBlock: AJUNOK_clean_linker_0, # of connection points: 2
#     Edge 24, Type (0, 0), BuildingBlock: AJUNOK_clean_linker_0, # of connection points: 2
#     Edge 25, Type (0, 0), BuildingBlock: AJUNOK_clean_linker_0, # of connection points: 2
#     Edge 26, Type (0, 0), BuildingBlock: AJUNOK_clean_linker_0, # of connection points: 2
#     Edge 27, Type (0, 0), BuildingBlock: AJUNOK_clean_linker_0, # of connection points: 2
#     Edge 28, Type (0, 0), BuildingBlock: AJUNOK_clean_linker_0, # of connection points: 2
#     Edge 29, Type (0, 0), BuildingBlock: AJUNOK_clean_linker_0, # of connection points: 2
#     Edge 30, Type (0, 0), BuildingBlock: AJUNOK_clean_linker_0, # of connection points: 2
#     Edge 31, Type (0, 0), BuildingBlock: AJUNOK_clean_linker_0, # of connection points: 2
# Relax obj value: 0.306
# Max RMSD: 0.281
# Mean RMSD: 0.281
data_MOF--net-vmf--node1-OJICUG_clean_sbu_0--edge1-AJUNOK_clean_linker_0
_symmetry_space_group_name_H-M    P1
_symmetry_Int_Tables_number       1
_symmetry_cell_setting            triclinic
loop_
_symmetry_equiv_pos_as_xyz
'x, y, z'
_cell_length_a     22.215525
_cell_length_b     33.698922
_cell_length_c     22.237922
_cell_angle_alpha  89.8751
_cell_angle_beta   105.561
_cell_angle_gamma 90.27926
loop_
_atom_site_label
_atom_site_type_symbol
_atom_site_fract_x
_atom_site_fract_y
_atom_site_fract_z
_atom_type_partial_charge
Sc0 Sc 0.24432 0.34179 0.19006 0.0
Sc1 Sc 0.23602 0.25012 0.25786 0.0
Sc2 Sc 0.12673 0.32241 0.26432 0.0
O3 O 0.20241 0.30524 0.23829 0.0
C4 C 0.2027 0.40317 0.28007 0.0
C5 C 0.36197 0.30026 0.26541 0.0
C6 C 0.21911 0.27764 0.38486 0.0
C7 C 0.24658 0.25767 0.12656 0.0
C8 C 0.09961 0.3513 0.11922 0.0
C9 C 0.09205 0.23298 0.24769 0.0
O10 O 0.23193 0.39375 0.24043 0.0
O11 O 0.3307 0.26822 0.26236 0.0
O12 O 0.16901 0.29762 0.36002 0.0
O13 O 0.26246 0.29384 0.13551 0.0
O14 O 0.08092 0.34497 0.16852 0.0
O15 O 0.14852 0.2218 0.26086 0.0
O16 O 0.15721 0.35069 0.12057 0.0
O17 O 0.22061 0.23788 0.16143 0.0
O18 O 0.07644 0.26867 0.23529 0.0
O19 O 0.33581 0.33383 0.25283 0.0
O20 O 0.1652 0.37971 0.29651 0.0
O21 O 0.25276 0.26238 0.3532 0.0
Sc22 Sc 0.87638 0.32695 0.72982 0.0
Sc23 Sc 0.78788 0.25395 0.77629 0.0
Sc24 Sc 0.77938 0.35376 0.82077 0.0
O25 O 0.81294 0.3112 0.77467 0.0
C26 C 0.92477 0.36268 0.86623 0.0
C27 C 0.92169 0.23818 0.76221 0.0
C28 C 0.80393 0.28262 0.91533 0.0
C29 C 0.78021 0.27258 0.63254 0.0
C30 C 0.79343 0.40513 0.71111 0.0
C31 C 0.66006 0.29906 0.77326 0.0
O32 O 0.93778 0.34257 0.8224 0.0
O33 O 0.88087 0.22894 0.79029 0.0
O34 O 0.79667 0.31915 0.9025 0.0
O35 O 0.81297 0.3049 0.64225 0.0
O36 O 0.75666 0.3918 0.74103 0.0
O37 O 0.69099 0.26944 0.76265 0.0
O38 O 0.84372 0.38736 0.71137 0.0
O39 O 0.77197 0.25077 0.67669 0.0
O40 O 0.6849 0.33201 0.79388 0.0
O41 O 0.92185 0.27143 0.73626 0.0
O42 O 0.87178 0.37938 0.8578 0.0
O43 O 0.80233 0.25538 0.87536 0.0
Sc44 Sc 0.86269 0.65173 0.72551 0.0
Sc45 Sc 0.76072 0.72526 0.74675 0.0
Sc46 Sc 0.74514 0.63005 0.79951 0.0
O47 O 0.78921 0.66858 0.75568 0.0
C48 C 0.78262 0.57193 0.70332 0.0
C49 C 0.77115 0.70353 0.61364 0.0
C50 C 0.63145 0.67719 0.72944 0.0
C51 C 0.90423 0.74054 0.75711 0.0
C52 C 0.89049 0.61888 0.86783 0.0
C53 C 0.75494 0.708 0.87899 0.0
O54 O 0.82323 0.59486 0.69114 0.0
O55 O 0.74333 0.72071 0.64922 0.0
O56 O 0.6542 0.64254 0.73904 0.0
O57 O 0.91644 0.70417 0.75458 0.0
O58 O 0.83273 0.61714 0.8658 0.0
O59 O 0.77879 0.72988 0.84495 0.0
O60 O 0.90962 0.62771 0.81962 0.0
O61 O 0.84958 0.75331 0.7515 0.0
O62 O 0.73101 0.67421 0.86255 0.0
O63 O 0.8173 0.67932 0.63322 0.0
O64 O 0.75241 0.58072 0.74221 0.0
O65 O 0.66542 0.70825 0.73837 0.0
Sc66 Sc 0.22196 0.62957 0.17392 0.0
Sc67 Sc 0.21404 0.72358 0.23463 0.0
Sc68 Sc 0.11295 0.64924 0.25759 0.0
O69 O 0.18319 0.6671 0.22311 0.0
C70 C 0.07556 0.61683 0.1146 0.0
C71 C 0.20915 0.71042 0.09859 0.0
C72 C 0.07309 0.73776 0.23692 0.0
C73 C 0.33955 0.67648 0.2339 0.0
C74 C 0.1932 0.57029 0.27408 0.0
C75 C 0.20922 0.69957 0.36841 0.0
O76 O 0.13194 0.61624 0.11166 0.0
O77 O 0.18949 0.73199 0.13614 0.0
O78 O 0.05926 0.70137 0.23034 0.0
O79 O 0.31568 0.64197 0.22931 0.0
O80 O 0.155 0.59293 0.29048 0.0
O81 O 0.2389 0.71513 0.3326 0.0
O82 O 0.21911 0.57949 0.23171 0.0
O83 O 0.30675 0.70763 0.23025 0.0
O84 O 0.16096 0.67688 0.34864 0.0
O85 O 0.22954 0.67542 0.11086 0.0
O86 O 0.06124 0.62511 0.16547 0.0
O87 O 0.1279 0.7507 0.24224 0.0
Sc88 Sc 0.73121 0.8495 0.18211 0.0
Sc89 Sc 0.71758 0.75512 0.23944 0.0
Sc90 Sc 0.61225 0.82822 0.25408 0.0
O91 O 0.68738 0.81142 0.22658 0.0
C92 C 0.69246 0.90745 0.27855 0.0
C93 C 0.84598 0.8041 0.25444 0.0
C94 C 0.70049 0.77664 0.36896 0.0
C95 C 0.72808 0.76897 0.10834 0.0
C96 C 0.58679 0.86162 0.11224 0.0
C97 C 0.57258 0.7398 0.22239 0.0
O98 O 0.72145 0.89916 0.23827 0.0
O99 O 0.81309 0.77261 0.24829 0.0
O100 O 0.65286 0.79923 0.34653 0.0
O101 O 0.74743 0.80419 0.12159 0.0
O102 O 0.56756 0.85402 0.16077 0.0
O103 O 0.62816 0.72708 0.23487 0.0
O104 O 0.64445 0.86147 0.11415 0.0
O105 O 0.70241 0.74798 0.14196 0.0
O106 O 0.55972 0.77631 0.21935 0.0
O107 O 0.82201 0.83837 0.24366 0.0
O108 O 0.65272 0.88423 0.29182 0.0
O109 O 0.73334 0.7618 0.33614 0.0
Sc110 Sc 0.36692 0.82446 0.72704 0.0
Sc111 Sc 0.26023 0.75383 0.74561 0.0
Sc112 Sc 0.25541 0.84863 0.80437 0.0
O113 O 0.29321 0.80977 0.75739 0.0
C114 C 0.40098 0.86205 0.86613 0.0
C115 C 0.40182 0.73793 0.7508 0.0
C116 C 0.26821 0.76885 0.88208 0.0
C117 C 0.27187 0.77289 0.61512 0.0
C118 C 0.28808 0.90335 0.70002 0.0
C119 C 0.13671 0.80269 0.74568 0.0
O120 O 0.4161 0.85321 0.81601 0.0
O121 O 0.34553 0.72616 0.73518 0.0
O122 O 0.24671 0.80359 0.86858 0.0
O123 O 0.32294 0.79263 0.63788 0.0
O124 O 0.26203 0.89663 0.74342 0.0
O125 O 0.16823 0.77089 0.75133 0.0
O126 O 0.32611 0.8794 0.68572 0.0
O127 O 0.23515 0.76284 0.64776 0.0
O128 O 0.16195 0.83671 0.7483 0.0
O129 O 0.41581 0.77302 0.76865 0.0
O130 O 0.34446 0.86193 0.86823 0.0
O131 O 0.28591 0.74622 0.84432 0.0
Sc132 Sc 0.37762 0.14652 0.73118 0.0
Sc133 Sc 0.28099 0.21883 0.76798 0.0
Sc134 Sc 0.27074 0.12068 0.81586 0.0
O135 O 0.30889 0.16186 0.77002 0.0
C136 C 0.29635 0.06741 0.70779 0.0
C137 C 0.28505 0.20325 0.62929 0.0
C138 C 0.1529 0.16944 0.75761 0.0
C139 C 0.42288 0.23415 0.76894 0.0
C140 C 0.41828 0.11034 0.87164 0.0
C141 C 0.28368 0.19554 0.90248 0.0
O142 O 0.33673 0.0904 0.69558 0.0
O143 O 0.26105 0.21975 0.66875 0.0
O144 O 0.17644 0.13494 0.76624 0.0
O145 O 0.43155 0.19847 0.75699 0.0
O146 O 0.36209 0.10593 0.87427 0.0
O147 O 0.30117 0.21997 0.86703 0.0
O148 O 0.43166 0.12173 0.82153 0.0
O149 O 0.37105 0.24688 0.7746 0.0
O150 O 0.26408 0.1609 0.88633 0.0
O151 O 0.32736 0.17617 0.64358 0.0
O152 O 0.27008 0.0745 0.75049 0.0
O153 O 0.18557 0.20093 0.76088 0.0
Sc154 Sc 0.74424 0.13307 0.1929 0.0
Sc155 Sc 0.73913 0.22417 0.26224 0.0
Sc156 Sc 0.62394 0.15443 0.26186 0.0
O157 O 0.70266 0.16995 0.23975 0.0
C158 C 0.60106 0.12324 0.11907 0.0
C159 C 0.75414 0.21794 0.1322 0.0
C160 C 0.59434 0.24274 0.24322 0.0
C161 C 0.8627 0.17251 0.2712 0.0
C162 C 0.6982 0.07379 0.28413 0.0
C163 C 0.71058 0.20188 0.38367 0.0
O164 O 0.65871 0.12519 0.12146 0.0
O165 O 0.72796 0.2379 0.1666 0.0
O166 O 0.57859 0.20802 0.22379 0.0
O167 O 0.83493 0.13943 0.25747 0.0
O168 O 0.66123 0.09783 0.30008 0.0
O169 O 0.75275 0.20975 0.35675 0.0
O170 O 0.72701 0.08202 0.24339 0.0
O171 O 0.83324 0.20504 0.2682 0.0
O172 O 0.65958 0.18342 0.35589 0.0
O173 O 0.76631 0.18118 0.13992 0.0
O174 O 0.5813 0.12847 0.1678 0.0
O175 O 0.65133 0.25279 0.26393 0.0
C176 C 0.51787 0.25048 0.30439 0.0
C177 C 0.54539 0.26634 0.25956 0.0
C178 C 0.4612 0.26498 0.31103 0.0
C179 C 0.42986 0.29596 0.27308 0.0
H180 H 0.53817 0.22477 0.3316 0.0
H181 H 0.43941 0.24982 0.34283 0.0
S182 S 0.48792 0.35183 0.15576 0.0
N183 N 0.54175 0.31766 0.18206 0.0
N184 N 0.43467 0.34546 0.19455 0.0
C185 C 0.46003 0.31473 0.23237 0.0
C186 C 0.51798 0.29967 0.22541 0.0
C187 C 0.55574 0.27461 0.71419 0.0
C188 C 0.59328 0.29277 0.76794 0.0
C189 C 0.49685 0.25952 0.7133 0.0
C190 C 0.47389 0.26146 0.7664 0.0
H191 H 0.57346 0.27006 0.67383 0.0
H192 H 0.47093 0.24354 0.67217 0.0
S193 S 0.55304 0.3078 0.91774 0.0
N194 N 0.60226 0.31423 0.8744 0.0
N195 N 0.49146 0.28469 0.87289 0.0
C196 C 0.50909 0.28175 0.81913 0.0
C197 C 0.56904 0.29768 0.81985 0.0
C198 C 0.47313 0.67922 0.76041 0.0
C199 C 0.45035 0.71543 0.73211 0.0
C200 C 0.5295 0.66349 0.75337 0.0
C201 C 0.56374 0.68364 0.71761 0.0
H202 H 0.45026 0.66483 0.79197 0.0
H203 H 0.54914 0.63769 0.78063 0.0
S204 S 0.51775 0.77592 0.62647 0.0
N205 N 0.46209 0.76832 0.66168 0.0
N206 N 0.56603 0.73822 0.64686 0.0
C207 C 0.5374 0.7174 0.68392 0.0
C208 C 0.48122 0.73357 0.69179 0.0
C209 C 0.40777 0.70353 0.173 0.0
C210 C 0.40253 0.6821 0.2257 0.0
C211 C 0.46529 0.71852 0.16909 0.0
C212 C 0.51971 0.71244 0.2176 0.0
H213 H 0.36631 0.71104 0.13632 0.0
H214 H 0.46641 0.7375 0.12998 0.0
S215 S 0.53183 0.65494 0.36265 0.0
N216 N 0.45684 0.6526 0.32491 0.0
N217 N 0.56594 0.68084 0.31765 0.0
C218 C 0.51611 0.68827 0.26823 0.0
C219 C 0.45708 0.67306 0.27231 0.0
C220 C 0.99706 0.75021 0.29704 0.0
C221 C 0.02555 0.76351 0.25131 0.0
C222 C 0.94213 0.76738 0.30334 0.0
C223 C 0.91359 0.79847 0.26407 0.0
H224 H 0.01518 0.72453 0.32549 0.0
H225 H 0.91899 0.75399 0.33556 0.0
S226 S 0.97624 0.84893 0.14508 0.0
N227 N 0.02696 0.81319 0.17254 0.0
N228 N 0.92254 0.84577 0.18397 0.0
C229 C 0.94525 0.81499 0.22283 0.0
C230 C 0.00166 0.79733 0.21643 0.0
C231 C 0.96323 0.78411 0.70317 0.0
C232 C 0.95572 0.76835 0.75942 0.0
C233 C 0.02131 0.79914 0.69959 0.0
C234 C 0.07292 0.79896 0.75233 0.0
H235 H 0.92566 0.78161 0.66063 0.0
H236 H 0.02705 0.80801 0.65458 0.0
S237 S 0.0749 0.7652 0.91166 0.0
N238 N 0.00267 0.75649 0.86952 0.0
N239 N 0.11133 0.78546 0.86342 0.0
C240 C 0.06435 0.78626 0.80974 0.0
C241 C 0.00571 0.77071 0.81316 0.0
C242 C 0.9935 0.21315 0.7031 0.0
C243 C 0.97156 0.21052 0.75696 0.0
C244 C 0.05005 0.19605 0.70106 0.0
C245 C 0.08606 0.17484 0.75216 0.0
H246 H 0.96883 0.23093 0.66356 0.0
H247 H 0.06774 0.20173 0.66091 0.0
S248 S 0.04624 0.1547 0.90098 0.0
N249 N 0.98749 0.18183 0.86029 0.0
N250 N 0.09372 0.14862 0.85584 0.0
C251 C 0.06211 0.16866 0.80401 0.0
C252 C 0.00459 0.18664 0.80649 0.0
C253 C 0.01109 0.17887 0.2215 0.0
C254 C 0.04449 0.20743 0.26342 0.0
C255 C 0.95481 0.16292 0.22906 0.0
C256 C 0.93033 0.17574 0.27801 0.0
H257 H 0.02581 0.17118 0.18036 0.0
H258 H 0.9274 0.14358 0.19304 0.0
S259 S 0.00486 0.24583 0.40408 0.0
N260 N 0.05304 0.24426 0.35904 0.0
N261 N 0.94728 0.21492 0.37236 0.0
C262 C 0.96632 0.20153 0.32286 0.0
C263 C 0.0234 0.21735 0.3156 0.0
C264 C 0.03317 0.35473 0.94043 0.0
C265 C 0.96953 0.36373 0.9309 0.0
C266 C 0.07424 0.35189 1.00097 0.0
C267 C 0.05386 0.35703 0.05571 0.0
H268 H 0.05154 0.34938 0.90072 0.0
H269 H 0.12247 0.34449 0.00463 0.0
S270 S 0.89123 0.38021 0.05751 0.0
N271 N 0.8881 0.37789 0.98258 0.0
N272 N 0.9647 0.37144 0.09535 0.0
C273 C 0.99032 0.36606 0.04695 0.0
C274 C 0.94856 0.36972 0.98515 0.0
C275 C 0.04223 0.60268 0.99813 0.0
C276 C 0.02556 0.61236 0.05362 0.0
C277 C -0.00121 0.60403 0.93864 0.0
C278 C 0.9361 0.61465 0.93144 0.0
H279 H 0.09003 0.59501 1.0002 0.0
H280 H 0.01475 0.59714 0.89793 0.0
S281 S 0.8676 0.6439 0.06063 0.0
N282 N 0.94104 0.6335 0.09619 0.0
N283 N 0.85986 0.63578 0.98581 0.0
C284 C 0.9184 0.62372 0.98661 0.0
C285 C 0.96274 0.62256 0.04705 0.0
C286 C 0.47666 0.87222 0.04255 0.0
C287 C 0.54087 0.8669 0.04886 0.0
C288 C 0.43277 0.87298 0.98337 0.0
C289 C 0.45042 0.86789 0.92714 0.0
H290 H 0.45978 0.87495 0.08372 0.0
H291 H 0.38396 0.87625 0.98212 0.0
S292 S 0.61307 0.85415 0.9167 0.0
N293 N 0.62002 0.85788 0.99221 0.0
N294 N 0.53778 0.85878 0.88241 0.0
C295 C 0.51469 0.86381 0.93263 0.0
C296 C 0.55959 0.86339 0.99281 0.0
C297 C 0.49514 0.10248 0.04832 0.0
C298 C 0.55622 0.11686 0.05542 0.0
C299 C 0.45258 0.09807 0.98872 0.0
C300 C 0.46849 0.1082 0.9329 0.0
H301 H 0.47973 0.09491 0.08917 0.0
H302 H 0.40586 0.08775 0.98677 0.0
S303 S 0.62256 0.14797 0.92524 0.0
N304 N 0.63039 0.14131 1.00046 0.0
N305 N 0.55086 0.13331 0.88987 0.0
C306 C 0.5299 0.12193 0.93938 0.0
C307 C 0.57335 0.12624 0.99997 0.0
C308 C 0.2567 0.50906 0.29542 0.0
C309 C 0.20223 0.52925 0.29801 0.0
C310 C 0.25897 0.46768 0.29663 0.0
C311 C 0.20684 0.44501 0.30049 0.0
H312 H 0.29609 0.52519 0.28725 0.0
H313 H 0.30009 0.45338 0.28948 0.0
S314 S 0.05827 0.4839 0.32264 0.0
N315 N 0.09906 0.52392 0.31566 0.0
N316 N 0.10328 0.4458 0.31806 0.0
C317 C 0.15516 0.46487 0.31136 0.0
C318 C 0.15286 0.5072 0.31011 0.0
C319 C 0.83284 0.51047 0.67899 0.0
C320 C 0.77816 0.53046 0.68145 0.0
C321 C 0.83567 0.46896 0.68176 0.0
C322 C 0.78389 0.44627 0.68705 0.0
H323 H 0.8755 0.52687 0.68148 0.0
H324 H 0.88041 0.45502 0.68575 0.0
S325 S 0.62473 0.48444 0.67528 0.0
N326 N 0.66752 0.52459 0.67487 0.0
N327 N 0.67252 0.44653 0.67956 0.0
C328 C 0.72662 0.4658 0.6803 0.0
C329 C 0.72385 0.50798 0.67763 0.0
C330 C 0.64615 0.96991 0.30569 0.0
C331 C 0.69947 0.94825 0.30331 0.0
C332 C 0.64757 0.01157 0.30722 0.0
C333 C 0.70235 0.03244 0.30647 0.0
H334 H 0.60167 0.95496 0.29986 0.0
H335 H 0.60414 0.02734 0.30243 0.0
S336 S 0.85799 0.98901 0.31793 0.0
N337 N 0.8111 0.9503 0.3134 0.0
N338 N 0.81378 0.02846 0.31636 0.0
C339 C 0.75766 0.01091 0.31263 0.0
C340 C 0.7562 0.96875 0.31101 0.0
C341 C 0.33593 0.9644 0.67017 0.0
C342 C 0.28193 0.94381 0.67422 0.0
C343 C 0.33816 0.00596 0.67268 0.0
C344 C 0.28643 0.02771 0.67931 0.0
H345 H 0.37878 0.94847 0.67266 0.0
H346 H 0.3826 0.02061 0.67678 0.0
S347 S 0.12875 0.9879 0.67134 0.0
N348 N 0.17164 0.94824 0.66962 0.0
N349 N 0.17583 0.02637 0.6744 0.0
C350 C 0.22961 0.00765 0.67332 0.0
C351 C 0.22733 0.96554 0.67068 0.0
C352 C 0.20697 0.23528 0.53959 0.0
C353 C 0.26822 0.2213 0.5662 0.0
C354 C 0.19158 0.25671 0.48312 0.0
C355 C 0.23708 0.2654 0.45165 0.0
H356 H 0.17047 0.22926 0.5624 0.0
H357 H 0.14352 0.26522 0.46307 0.0
S358 S 0.40665 0.24202 0.50809 0.0
N359 N 0.37571 0.22174 0.56056 0.0
N360 N 0.34795 0.26284 0.45615 0.0
C361 C 0.29937 0.25383 0.48029 0.0
C362 C 0.31457 0.2314 0.53679 0.0
C363 C 0.77442 0.27305 0.51832 0.0
C364 C 0.75422 0.25697 0.56773 0.0
C365 C 0.75802 0.25539 0.4592 0.0
C366 C 0.7205 0.22071 0.44623 0.0
H367 H 0.80508 0.2987 0.52566 0.0
H368 H 0.77616 0.26894 0.4234 0.0
S369 S 0.6486 0.16924 0.55689 0.0
N370 N 0.68903 0.20599 0.59793 0.0
N371 N 0.6591 0.17304 0.48635 0.0
C372 C 0.69677 0.20554 0.49387 0.0
C373 C 0.71353 0.22351 0.55461 0.0
C374 C 0.77988 0.75216 0.46319 0.0
C375 C 0.71685 0.76182 0.43409 0.0
C376 C 0.79702 0.7305 0.51909 0.0
C377 C 0.75181 0.71762 0.54825 0.0
H378 H 0.81644 0.76104 0.44197 0.0
H379 H 0.84612 0.7251 0.54068 0.0
S380 S 0.58033 0.7332 0.49048 0.0
N381 N 0.60913 0.75537 0.43789 0.0
N382 N 0.64103 0.71514 0.54346 0.0
C383 C 0.68857 0.72681 0.51958 0.0
C384 C 0.67118 0.74891 0.46265 0.0
C385 C 0.19677 0.74 0.52373 0.0
C386 C 0.25707 0.75582 0.55086 0.0
C387 C 0.18243 0.7196 0.4666 0.0
C388 C 0.22775 0.71402 0.43398 0.0
H389 H 0.1599 0.74344 0.54676 0.0
H390 H 0.13491 0.70939 0.44691 0.0
S391 S 0.39354 0.7472 0.48537 0.0
N392 N 0.36276 0.76307 0.54068 0.0
N393 N 0.33636 0.72434 0.43417 0.0
C394 C 0.28853 0.72893 0.46096 0.0
C395 C 0.30295 0.75002 0.51887 0.0
C396 C 0.21972 0.21017 0.0397 0.0
C397 C 0.26098 0.23847 0.07406 0.0
C398 C 0.22883 0.19542 0.98463 0.0
C399 C 0.27926 0.20878 0.96286 0.0
H400 H 0.17885 0.20074 0.05388 0.0
H401 H 0.19482 0.17465 0.95774 0.0
S402 S 0.40647 0.27685 0.04247 0.0
N403 N 0.35866 0.27527 0.08791 0.0
N404 N 0.37493 0.24758 0.98283 0.0
C405 C 0.32289 0.23517 0.99869 0.0
C406 C 0.31399 0.25 0.05499 0.0
C407 C 0.74332 0.27207 0.05499 0.0
C408 C 0.77431 0.23788 0.08279 0.0
C409 C 0.75709 0.28846 0.00281 0.0
C410 C 0.80187 0.27084 0.97725 0.0
H411 H 0.7061 0.28499 0.07148 0.0
H412 H 0.72953 0.31338 0.97994 0.0
S413 S 0.90544 0.18671 0.041 0.0
N414 N 0.85933 0.19113 0.08775 0.0
N415 N 0.88347 0.22177 0.98778 0.0
C416 C 0.83673 0.23882 0.00743 0.0
C417 C 0.82336 0.22232 0.06091 0.0
C418 C 0.6965 0.71429 0.95762 0.0
C419 C 0.75026 0.72308 0.93825 0.0
C420 C 0.69013 0.72859 0.01404 0.0
C421 C 0.73736 0.75199 0.05201 0.0
H422 H 0.65862 0.69693 0.92844 0.0
H423 H 0.6475 0.72223 0.02719 0.0
S424 S 0.89042 0.77851 0.02559 0.0
N425 N 0.85357 0.7532 0.96294 0.0
N426 N 0.84175 0.78042 0.0701 0.0
C427 C 0.79229 0.75985 0.03421 0.0
C428 C 0.79869 0.7453 0.97674 0.0
C429 C 0.21144 0.70316 0.98978 0.0
C430 C 0.21936 0.72756 0.04252 0.0
C431 C 0.23174 0.7156 0.93891 0.0
C432 C 0.26037 0.75274 0.93974 0.0
H433 H 0.18986 0.67411 0.9882 0.0
H434 H 0.2228 0.6968 0.89794 0.0
S435 S 0.29658 0.82599 0.06861 0.0
N436 N 0.26088 0.78918 0.09439 0.0
N437 N 0.29866 0.81303 0.99764 0.0
C438 C 0.26958 0.77711 0.99253 0.0
C439 C 0.24878 0.76449 0.04425 0.0
loop_
_geom_bond_atom_site_label_1
_geom_bond_atom_site_label_2
_geom_bond_distance
_geom_bond_site_symmetry_2
_ccdc_geom_bond_type
Sc0 O3 2.025 . S
Sc0 O10 2.105 . S
Sc0 O13 2.105 . S
Sc0 O16 2.105 . S
Sc0 O19 2.105 . S
Sc1 O3 2.025 . S
Sc1 O11 2.105 . S
Sc1 O15 2.105 . S
Sc1 O17 2.105 . S
Sc1 O21 2.105 . S
Sc2 O3 2.025 . S
Sc2 O12 2.105 . S
Sc2 O14 2.105 . S
Sc2 O18 2.105 . S
Sc2 O20 2.105 . S
O3 Sc0 2.025 . S
O3 Sc1 2.025 . S
O3 Sc2 2.025 . S
C4 O10 1.268 . S
C4 O20 1.268 . S
C5 O11 1.268 . S
C5 O19 1.268 . S
C6 O12 1.268 . S
C6 O21 1.268 . S
C7 O13 1.268 . S
C7 O17 1.268 . S
C8 O14 1.268 . S
C8 O16 1.268 . S
C9 O15 1.268 . S
C9 O18 1.268 . S
O10 Sc0 2.105 . S
O10 C4 1.268 . S
O11 Sc1 2.105 . S
O11 C5 1.268 . S
O12 Sc2 2.105 . S
O12 C6 1.268 . S
O13 Sc0 2.105 . S
O13 C7 1.268 . S
O14 Sc2 2.105 . S
O14 C8 1.268 . S
O15 Sc1 2.105 . S
O15 C9 1.268 . S
O16 Sc0 2.105 . S
O16 C8 1.268 . S
O17 Sc1 2.105 . S
O17 C7 1.268 . S
O18 Sc2 2.105 . S
O18 C9 1.268 . S
O19 Sc0 2.105 . S
O19 C5 1.268 . S
O20 Sc2 2.105 . S
O20 C4 1.268 . S
O21 Sc1 2.105 . S
O21 C6 1.268 . S
Sc22 O25 2.025 . S
Sc22 O32 2.105 . S
Sc22 O35 2.105 . S
Sc22 O38 2.105 . S
Sc22 O41 2.105 . S
Sc23 O25 2.025 . S
Sc23 O33 2.105 . S
Sc23 O37 2.105 . S
Sc23 O39 2.105 . S
Sc23 O43 2.105 . S
Sc24 O25 2.025 . S
Sc24 O34 2.105 . S
Sc24 O36 2.105 . S
Sc24 O40 2.105 . S
Sc24 O42 2.105 . S
O25 Sc22 2.025 . S
O25 Sc23 2.025 . S
O25 Sc24 2.025 . S
C26 O32 1.268 . S
C26 O42 1.268 . S
C27 O33 1.268 . S
C27 O41 1.268 . S
C28 O34 1.268 . S
C28 O43 1.268 . S
C29 O35 1.268 . S
C29 O39 1.268 . S
C30 O36 1.268 . S
C30 O38 1.268 . S
C31 O37 1.268 . S
C31 O40 1.268 . S
O32 Sc22 2.105 . S
O32 C26 1.268 . S
O33 Sc23 2.105 . S
O33 C27 1.268 . S
O34 Sc24 2.105 . S
O34 C28 1.268 . S
O35 Sc22 2.105 . S
O35 C29 1.268 . S
O36 Sc24 2.105 . S
O36 C30 1.268 . S
O37 Sc23 2.105 . S
O37 C31 1.268 . S
O38 Sc22 2.105 . S
O38 C30 1.268 . S
O39 Sc23 2.105 . S
O39 C29 1.268 . S
O40 Sc24 2.105 . S
O40 C31 1.268 . S
O41 Sc22 2.105 . S
O41 C27 1.268 . S
O42 Sc24 2.105 . S
O42 C26 1.268 . S
O43 Sc23 2.105 . S
O43 C28 1.268 . S
Sc44 O47 2.025 . S
Sc44 O54 2.105 . S
Sc44 O57 2.105 . S
Sc44 O60 2.105 . S
Sc44 O63 2.105 . S
Sc45 O47 2.025 . S
Sc45 O55 2.105 . S
Sc45 O59 2.105 . S
Sc45 O61 2.105 . S
Sc45 O65 2.105 . S
Sc46 O47 2.025 . S
Sc46 O56 2.105 . S
Sc46 O58 2.105 . S
Sc46 O62 2.105 . S
Sc46 O64 2.105 . S
O47 Sc44 2.025 . S
O47 Sc45 2.025 . S
O47 Sc46 2.025 . S
C48 O54 1.268 . S
C48 O64 1.268 . S
C49 O55 1.268 . S
C49 O63 1.268 . S
C50 O56 1.268 . S
C50 O65 1.268 . S
C51 O57 1.268 . S
C51 O61 1.268 . S
C52 O58 1.268 . S
C52 O60 1.268 . S
C53 O59 1.268 . S
C53 O62 1.268 . S
O54 Sc44 2.105 . S
O54 C48 1.268 . S
O55 Sc45 2.105 . S
O55 C49 1.268 . S
O56 Sc46 2.105 . S
O56 C50 1.268 . S
O57 Sc44 2.105 . S
O57 C51 1.268 . S
O58 Sc46 2.105 . S
O58 C52 1.268 . S
O59 Sc45 2.105 . S
O59 C53 1.268 . S
O60 Sc44 2.105 . S
O60 C52 1.268 . S
O61 Sc45 2.105 . S
O61 C51 1.268 . S
O62 Sc46 2.105 . S
O62 C53 1.268 . S
O63 Sc44 2.105 . S
O63 C49 1.268 . S
O64 Sc46 2.105 . S
O64 C48 1.268 . S
O65 Sc45 2.105 . S
O65 C50 1.268 . S
Sc66 O69 2.025 . S
Sc66 O76 2.105 . S
Sc66 O79 2.105 . S
Sc66 O82 2.105 . S
Sc66 O85 2.105 . S
Sc67 O69 2.025 . S
Sc67 O77 2.105 . S
Sc67 O81 2.105 . S
Sc67 O83 2.105 . S
Sc67 O87 2.105 . S
Sc68 O69 2.025 . S
Sc68 O78 2.105 . S
Sc68 O80 2.105 . S
Sc68 O84 2.105 . S
Sc68 O86 2.105 . S
O69 Sc66 2.025 . S
O69 Sc67 2.025 . S
O69 Sc68 2.025 . S
C70 O76 1.268 . S
C70 O86 1.268 . S
C71 O77 1.268 . S
C71 O85 1.268 . S
C72 O78 1.268 . S
C72 O87 1.268 . S
C73 O79 1.268 . S
C73 O83 1.268 . S
C74 O80 1.268 . S
C74 O82 1.268 . S
C75 O81 1.268 . S
C75 O84 1.268 . S
O76 Sc66 2.105 . S
O76 C70 1.268 . S
O77 Sc67 2.105 . S
O77 C71 1.268 . S
O78 Sc68 2.105 . S
O78 C72 1.268 . S
O79 Sc66 2.105 . S
O79 C73 1.268 . S
O80 Sc68 2.105 . S
O80 C74 1.268 . S
O81 Sc67 2.105 . S
O81 C75 1.268 . S
O82 Sc66 2.105 . S
O82 C74 1.268 . S
O83 Sc67 2.105 . S
O83 C73 1.268 . S
O84 Sc68 2.105 . S
O84 C75 1.268 . S
O85 Sc66 2.105 . S
O85 C71 1.268 . S
O86 Sc68 2.105 . S
O86 C70 1.268 . S
O87 Sc67 2.105 . S
O87 C72 1.268 . S
Sc88 O91 2.025 . S
Sc88 O98 2.105 . S
Sc88 O101 2.105 . S
Sc88 O104 2.105 . S
Sc88 O107 2.105 . S
Sc89 O91 2.025 . S
Sc89 O99 2.105 . S
Sc89 O103 2.105 . S
Sc89 O105 2.105 . S
Sc89 O109 2.105 . S
Sc90 O91 2.025 . S
Sc90 O100 2.105 . S
Sc90 O102 2.105 . S
Sc90 O106 2.105 . S
Sc90 O108 2.105 . S
O91 Sc88 2.025 . S
O91 Sc89 2.025 . S
O91 Sc90 2.025 . S
C92 O98 1.268 . S
C92 O108 1.268 . S
C93 O99 1.268 . S
C93 O107 1.268 . S
C94 O100 1.268 . S
C94 O109 1.268 . S
C95 O101 1.268 . S
C95 O105 1.268 . S
C96 O102 1.268 . S
C96 O104 1.268 . S
C97 O103 1.268 . S
C97 O106 1.268 . S
O98 Sc88 2.105 . S
O98 C92 1.268 . S
O99 Sc89 2.105 . S
O99 C93 1.268 . S
O100 Sc90 2.105 . S
O100 C94 1.268 . S
O101 Sc88 2.105 . S
O101 C95 1.268 . S
O102 Sc90 2.105 . S
O102 C96 1.268 . S
O103 Sc89 2.105 . S
O103 C97 1.268 . S
O104 Sc88 2.105 . S
O104 C96 1.268 . S
O105 Sc89 2.105 . S
O105 C95 1.268 . S
O106 Sc90 2.105 . S
O106 C97 1.268 . S
O107 Sc88 2.105 . S
O107 C93 1.268 . S
O108 Sc90 2.105 . S
O108 C92 1.268 . S
O109 Sc89 2.105 . S
O109 C94 1.268 . S
Sc110 O113 2.025 . S
Sc110 O120 2.105 . S
Sc110 O123 2.105 . S
Sc110 O126 2.105 . S
Sc110 O129 2.105 . S
Sc111 O113 2.025 . S
Sc111 O121 2.105 . S
Sc111 O125 2.105 . S
Sc111 O127 2.105 . S
Sc111 O131 2.105 . S
Sc112 O113 2.025 . S
Sc112 O122 2.105 . S
Sc112 O124 2.105 . S
Sc112 O128 2.105 . S
Sc112 O130 2.105 . S
O113 Sc110 2.025 . S
O113 Sc111 2.025 . S
O113 Sc112 2.025 . S
C114 O120 1.268 . S
C114 O130 1.268 . S
C115 O121 1.268 . S
C115 O129 1.268 . S
C116 O122 1.268 . S
C116 O131 1.268 . S
C117 O123 1.268 . S
C117 O127 1.268 . S
C118 O124 1.268 . S
C118 O126 1.268 . S
C119 O125 1.268 . S
C119 O128 1.268 . S
O120 Sc110 2.105 . S
O120 C114 1.268 . S
O121 Sc111 2.105 . S
O121 C115 1.268 . S
O122 Sc112 2.105 . S
O122 C116 1.268 . S
O123 Sc110 2.105 . S
O123 C117 1.268 . S
O124 Sc112 2.105 . S
O124 C118 1.268 . S
O125 Sc111 2.105 . S
O125 C119 1.268 . S
O126 Sc110 2.105 . S
O126 C118 1.268 . S
O127 Sc111 2.105 . S
O127 C117 1.268 . S
O128 Sc112 2.105 . S
O128 C119 1.268 . S
O129 Sc110 2.105 . S
O129 C115 1.268 . S
O130 Sc112 2.105 . S
O130 C114 1.268 . S
O131 Sc111 2.105 . S
O131 C116 1.268 . S
Sc132 O135 2.025 . S
Sc132 O142 2.105 . S
Sc132 O145 2.105 . S
Sc132 O148 2.105 . S
Sc132 O151 2.105 . S
Sc133 O135 2.025 . S
Sc133 O143 2.105 . S
Sc133 O147 2.105 . S
Sc133 O149 2.105 . S
Sc133 O153 2.105 . S
Sc134 O135 2.025 . S
Sc134 O144 2.105 . S
Sc134 O146 2.105 . S
Sc134 O150 2.105 . S
Sc134 O152 2.105 . S
O135 Sc132 2.025 . S
O135 Sc133 2.025 . S
O135 Sc134 2.025 . S
C136 O142 1.268 . S
C136 O152 1.268 . S
C137 O143 1.268 . S
C137 O151 1.268 . S
C138 O144 1.268 . S
C138 O153 1.268 . S
C139 O145 1.268 . S
C139 O149 1.268 . S
C140 O146 1.268 . S
C140 O148 1.268 . S
C141 O147 1.268 . S
C141 O150 1.268 . S
O142 Sc132 2.105 . S
O142 C136 1.268 . S
O143 Sc133 2.105 . S
O143 C137 1.268 . S
O144 Sc134 2.105 . S
O144 C138 1.268 . S
O145 Sc132 2.105 . S
O145 C139 1.268 . S
O146 Sc134 2.105 . S
O146 C140 1.268 . S
O147 Sc133 2.105 . S
O147 C141 1.268 . S
O148 Sc132 2.105 . S
O148 C140 1.268 . S
O149 Sc133 2.105 . S
O149 C139 1.268 . S
O150 Sc134 2.105 . S
O150 C141 1.268 . S
O151 Sc132 2.105 . S
O151 C137 1.268 . S
O152 Sc134 2.105 . S
O152 C136 1.268 . S
O153 Sc133 2.105 . S
O153 C138 1.268 . S
Sc154 O157 2.025 . S
Sc154 O164 2.105 . S
Sc154 O167 2.105 . S
Sc154 O170 2.105 . S
Sc154 O173 2.105 . S
Sc155 O157 2.025 . S
Sc155 O165 2.105 . S
Sc155 O169 2.105 . S
Sc155 O171 2.105 . S
Sc155 O175 2.105 . S
Sc156 O157 2.025 . S
Sc156 O166 2.105 . S
Sc156 O168 2.105 . S
Sc156 O172 2.105 . S
Sc156 O174 2.105 . S
O157 Sc154 2.025 . S
O157 Sc155 2.025 . S
O157 Sc156 2.025 . S
C158 O164 1.268 . S
C158 O174 1.268 . S
C159 O165 1.268 . S
C159 O173 1.268 . S
C160 O166 1.268 . S
C160 O175 1.268 . S
C161 O167 1.268 . S
C161 O171 1.268 . S
C162 O168 1.268 . S
C162 O170 1.268 . S
C163 O169 1.268 . S
C163 O172 1.268 . S
O164 Sc154 2.105 . S
O164 C158 1.268 . S
O165 Sc155 2.105 . S
O165 C159 1.268 . S
O166 Sc156 2.105 . S
O166 C160 1.268 . S
O167 Sc154 2.105 . S
O167 C161 1.268 . S
O168 Sc156 2.105 . S
O168 C162 1.268 . S
O169 Sc155 2.105 . S
O169 C163 1.268 . S
O170 Sc154 2.105 . S
O170 C162 1.268 . S
O171 Sc155 2.105 . S
O171 C161 1.268 . S
O172 Sc156 2.105 . S
O172 C163 1.268 . S
O173 Sc154 2.105 . S
O173 C159 1.268 . S
O174 Sc156 2.105 . S
O174 C158 1.268 . S
O175 Sc155 2.105 . S
O175 C160 1.268 . S
C176 C177 1.369 . S
C176 C178 1.419 . S
C176 H180 0.930 . S
C177 C176 1.369 . S
C177 C186 1.429 . S
C178 C176 1.419 . S
C178 C179 1.363 . S
C178 H181 0.929 . S
C179 C178 1.363 . S
C179 C185 1.428 . S
H180 C176 0.930 . S
H181 C178 0.929 . S
S182 N183 1.613 . S
S182 N184 1.610 . S
N183 S182 1.613 . S
N183 C186 1.350 . S
N184 S182 1.610 . S
N184 C185 1.351 . S
C185 C179 1.428 . S
C185 N184 1.351 . S
C185 C186 1.434 . S
C186 C177 1.429 . S
C186 N183 1.350 . S
C186 C185 1.434 . S
C187 C188 1.369 . S
C187 C189 1.419 . S
C187 H191 0.930 . S
C188 C187 1.369 . S
C188 C197 1.429 . S
C189 C187 1.419 . S
C189 C190 1.363 . S
C189 H192 0.929 . S
C190 C189 1.363 . S
C190 C196 1.428 . S
H191 C187 0.930 . S
H192 C189 0.929 . S
S193 N194 1.613 . S
S193 N195 1.610 . S
N194 S193 1.613 . S
N194 C197 1.350 . S
N195 S193 1.610 . S
N195 C196 1.351 . S
C196 C190 1.428 . S
C196 N195 1.351 . S
C196 C197 1.434 . S
C197 C188 1.429 . S
C197 N194 1.350 . S
C197 C196 1.434 . S
C198 C199 1.369 . S
C198 C200 1.419 . S
C198 H202 0.930 . S
C199 C198 1.369 . S
C199 C208 1.429 . S
C200 C198 1.419 . S
C200 C201 1.363 . S
C200 H203 0.929 . S
C201 C200 1.363 . S
C201 C207 1.428 . S
H202 C198 0.930 . S
H203 C200 0.929 . S
S204 N205 1.613 . S
S204 N206 1.610 . S
N205 S204 1.613 . S
N205 C208 1.350 . S
N206 S204 1.610 . S
N206 C207 1.351 . S
C207 C201 1.428 . S
C207 N206 1.351 . S
C207 C208 1.434 . S
C208 C199 1.429 . S
C208 N205 1.350 . S
C208 C207 1.434 . S
C209 C210 1.369 . S
C209 C211 1.419 . S
C209 H213 0.930 . S
C210 C209 1.369 . S
C210 C219 1.429 . S
C211 C209 1.419 . S
C211 C212 1.363 . S
C211 H214 0.929 . S
C212 C211 1.363 . S
C212 C218 1.428 . S
H213 C209 0.930 . S
H214 C211 0.929 . S
S215 N216 1.613 . S
S215 N217 1.610 . S
N216 S215 1.613 . S
N216 C219 1.350 . S
N217 S215 1.610 . S
N217 C218 1.351 . S
C218 C212 1.428 . S
C218 N217 1.351 . S
C218 C219 1.434 . S
C219 C210 1.429 . S
C219 N216 1.350 . S
C219 C218 1.434 . S
C220 C221 1.369 . S
C220 C222 1.419 1_455 S
C220 H224 0.930 . S
C221 C220 1.369 . S
C221 C230 1.429 . S
C222 C220 1.419 1_655 S
C222 C223 1.363 . S
C222 H225 0.929 . S
C223 C222 1.363 . S
C223 C229 1.428 . S
H224 C220 0.930 . S
H225 C222 0.929 . S
S226 N227 1.613 1_655 S
S226 N228 1.610 . S
N227 S226 1.613 1_455 S
N227 C230 1.350 . S
N228 S226 1.610 . S
N228 C229 1.351 . S
C229 C223 1.428 . S
C229 N228 1.351 . S
C229 C230 1.434 1_655 S
C230 C221 1.429 . S
C230 N227 1.350 . S
C230 C229 1.434 1_455 S
C231 C232 1.369 . S
C231 C233 1.419 1_655 S
C231 H235 0.930 . S
C232 C231 1.369 . S
C232 C241 1.429 . S
C233 C231 1.419 1_455 S
C233 C234 1.363 . S
C233 H236 0.929 . S
C234 C233 1.363 . S
C234 C240 1.428 . S
H235 C231 0.930 . S
H236 C233 0.929 . S
S237 N238 1.613 1_455 S
S237 N239 1.610 . S
N238 S237 1.613 1_655 S
N238 C241 1.350 . S
N239 S237 1.610 . S
N239 C240 1.351 . S
C240 C234 1.428 . S
C240 N239 1.351 . S
C240 C241 1.434 1_455 S
C241 C232 1.429 . S
C241 N238 1.350 . S
C241 C240 1.434 1_655 S
C242 C243 1.369 . S
C242 C244 1.419 1_655 S
C242 H246 0.930 . S
C243 C242 1.369 . S
C243 C252 1.429 1_655 S
C244 C242 1.419 1_455 S
C244 C245 1.363 . S
C244 H247 0.929 . S
C245 C244 1.363 . S
C245 C251 1.428 . S
H246 C242 0.930 . S
H247 C244 0.929 . S
S248 N249 1.618 . S
S248 N250 1.610 . S
N249 S248 1.618 . S
N249 C252 1.350 . S
N250 S248 1.610 . S
N250 C251 1.351 . S
C251 C245 1.428 . S
C251 N250 1.351 . S
C251 C252 1.434 . S
C252 C243 1.429 1_455 S
C252 N249 1.350 . S
C252 C251 1.434 . S
C253 C254 1.369 . S
C253 C255 1.419 1_455 S
C253 H257 0.930 . S
C254 C253 1.369 . S
C254 C263 1.429 . S
C255 C253 1.419 1_655 S
C255 C256 1.363 . S
C255 H258 0.929 . S
C256 C255 1.363 . S
C256 C262 1.428 . S
H257 C253 0.930 . S
H258 C255 0.929 . S
S259 N260 1.613 1_655 S
S259 N261 1.610 . S
N260 S259 1.613 1_455 S
N260 C263 1.350 . S
N261 S259 1.610 . S
N261 C262 1.351 . S
C262 C256 1.428 . S
C262 N261 1.351 . S
C262 C263 1.434 1_655 S
C263 C254 1.429 . S
C263 N260 1.350 . S
C263 C262 1.434 1_455 S
C264 C265 1.369 1_455 S
C264 C266 1.419 . S
C264 H268 0.930 . S
C265 C264 1.369 1_655 S
C265 C274 1.429 1_556 S
C266 C264 1.419 . S
C266 C267 1.363 1_556 S
C266 H269 0.929 . S
C267 C266 1.363 1_554 S
C267 C273 1.428 1_455 S
H268 C264 0.930 . S
H269 C266 0.929 . S
S270 N271 1.613 . S
S270 N272 1.610 . S
N271 S270 1.613 . S
N271 C274 1.350 . S
N272 S270 1.610 . S
N272 C273 1.351 . S
C273 C267 1.428 1_655 S
C273 N272 1.351 . S
C273 C274 1.434 . S
C274 C265 1.429 1_554 S
C274 N271 1.350 . S
C274 C273 1.434 . S
C275 C276 1.369 1_556 S
C275 C277 1.419 . S
C275 H279 0.930 . S
C276 C275 1.369 1_554 S
C276 C285 1.429 1_455 S
C277 C275 1.419 . S
C277 C278 1.363 1_455 S
C277 H280 0.929 . S
C278 C277 1.363 1_655 S
C278 C284 1.428 1_556 S
H279 C275 0.930 . S
H280 C277 0.929 . S
S281 N282 1.613 . S
S281 N283 1.610 . S
N282 S281 1.613 . S
N282 C285 1.350 . S
N283 S281 1.610 . S
N283 C284 1.351 . S
C284 C278 1.428 1_554 S
C284 N283 1.351 . S
C284 C285 1.434 . S
C285 C276 1.429 1_655 S
C285 N282 1.350 . S
C285 C284 1.434 . S
C286 C287 1.369 . S
C286 C288 1.419 . S
C286 H290 0.930 . S
C287 C286 1.369 . S
C287 C296 1.429 1_554 S
C288 C286 1.419 . S
C288 C289 1.363 1_554 S
C288 H291 0.929 . S
C289 C288 1.363 1_556 S
C289 C295 1.428 . S
H290 C286 0.930 . S
H291 C288 0.929 . S
S292 N293 1.613 . S
S292 N294 1.610 . S
N293 S292 1.613 . S
N293 C296 1.350 . S
N294 S292 1.610 . S
N294 C295 1.351 . S
C295 C289 1.428 . S
C295 N294 1.351 . S
C295 C296 1.434 . S
C296 C287 1.429 1_556 S
C296 N293 1.350 . S
C296 C295 1.434 . S
C297 C298 1.369 . S
C297 C299 1.419 1_554 S
C297 H301 0.930 . S
C298 C297 1.369 . S
C298 C307 1.429 . S
C299 C297 1.419 1_556 S
C299 C300 1.363 . S
C299 H302 0.929 . S
C300 C299 1.363 . S
C300 C306 1.428 . S
H301 C297 0.930 . S
H302 C299 0.929 . S
S303 N304 1.613 1_556 S
S303 N305 1.610 . S
N304 S303 1.613 1_554 S
N304 C307 1.350 . S
N305 S303 1.610 . S
N305 C306 1.351 . S
C306 C300 1.428 . S
C306 N305 1.351 . S
C306 C307 1.434 1_556 S
C307 C298 1.429 . S
C307 N304 1.350 . S
C307 C306 1.434 1_554 S
C308 C309 1.369 . S
C308 C310 1.419 . S
C308 H312 0.930 . S
C309 C308 1.369 . S
C309 C318 1.429 . S
C310 C308 1.419 . S
C310 C311 1.363 . S
C310 H313 0.929 . S
C311 C310 1.363 . S
C311 C317 1.428 . S
H312 C308 0.930 . S
H313 C310 0.929 . S
S314 N315 1.613 . S
S314 N316 1.610 . S
N315 S314 1.613 . S
N315 C318 1.350 . S
N316 S314 1.610 . S
N316 C317 1.351 . S
C317 C311 1.428 . S
C317 N316 1.351 . S
C317 C318 1.434 . S
C318 C309 1.429 . S
C318 N315 1.350 . S
C318 C317 1.434 . S
C319 C320 1.369 . S
C319 C321 1.419 . S
C319 H323 0.930 . S
C320 C319 1.369 . S
C320 C329 1.429 . S
C321 C319 1.419 . S
C321 C322 1.363 . S
C321 H324 0.929 . S
C322 C321 1.363 . S
C322 C328 1.428 . S
H323 C319 0.930 . S
H324 C321 0.929 . S
S325 N326 1.613 . S
S325 N327 1.610 . S
N326 S325 1.613 . S
N326 C329 1.350 . S
N327 S325 1.610 . S
N327 C328 1.351 . S
C328 C322 1.428 . S
C328 N327 1.351 . S
C328 C329 1.434 . S
C329 C320 1.429 . S
C329 N326 1.350 . S
C329 C328 1.434 . S
C330 C331 1.369 . S
C330 C332 1.419 1_565 S
C330 H334 0.930 . S
C331 C330 1.369 . S
C331 C340 1.429 . S
C332 C330 1.419 1_545 S
C332 C333 1.363 . S
C332 H335 0.929 . S
C333 C332 1.363 . S
C333 C339 1.428 . S
H334 C330 0.930 . S
H335 C332 0.929 . S
S336 N337 1.615 1_545 S
S336 N338 1.609 . S
N337 S336 1.615 1_565 S
N337 C340 1.350 . S
N338 S336 1.609 . S
N338 C339 1.351 . S
C339 C333 1.428 . S
C339 N338 1.351 . S
C339 C340 1.434 1_545 S
C340 C331 1.429 . S
C340 N337 1.350 . S
C340 C339 1.434 1_565 S
C341 C342 1.369 . S
C341 C343 1.419 1_565 S
C341 H345 0.930 . S
C342 C341 1.369 . S
C342 C351 1.429 . S
C343 C341 1.419 1_545 S
C343 C344 1.363 . S
C343 H346 0.929 . S
C344 C343 1.363 . S
C344 C350 1.428 . S
H345 C341 0.930 . S
H346 C343 0.929 . S
S347 N348 1.615 1_545 S
S347 N349 1.608 . S
N348 S347 1.615 1_565 S
N348 C351 1.350 . S
N349 S347 1.608 . S
N349 C350 1.351 . S
C350 C344 1.428 . S
C350 N349 1.351 . S
C350 C351 1.434 1_545 S
C351 C342 1.429 . S
C351 N348 1.350 . S
C351 C350 1.434 1_565 S
C352 C353 1.369 . S
C352 C354 1.419 . S
C352 H356 0.930 . S
C353 C352 1.369 . S
C353 C362 1.429 . S
C354 C352 1.419 . S
C354 C355 1.363 . S
C354 H357 0.929 . S
C355 C354 1.363 . S
C355 C361 1.428 . S
H356 C352 0.930 . S
H357 C354 0.929 . S
S358 N359 1.613 . S
S358 N360 1.610 . S
N359 S358 1.613 . S
N359 C362 1.350 . S
N360 S358 1.610 . S
N360 C361 1.351 . S
C361 C355 1.428 . S
C361 N360 1.351 . S
C361 C362 1.434 . S
C362 C353 1.429 . S
C362 N359 1.350 . S
C362 C361 1.434 . S
C363 C364 1.369 . S
C363 C365 1.419 . S
C363 H367 0.930 . S
C364 C363 1.369 . S
C364 C373 1.429 . S
C365 C363 1.419 . S
C365 C366 1.363 . S
C365 H368 0.929 . S
C366 C365 1.363 . S
C366 C372 1.428 . S
H367 C363 0.930 . S
H368 C365 0.929 . S
S369 N370 1.613 . S
S369 N371 1.610 . S
N370 S369 1.613 . S
N370 C373 1.350 . S
N371 S369 1.610 . S
N371 C372 1.351 . S
C372 C366 1.428 . S
C372 N371 1.351 . S
C372 C373 1.434 . S
C373 C364 1.429 . S
C373 N370 1.350 . S
C373 C372 1.434 . S
C374 C375 1.369 . S
C374 C376 1.419 . S
C374 H378 0.930 . S
C375 C374 1.369 . S
C375 C384 1.429 . S
C376 C374 1.419 . S
C376 C377 1.363 . S
C376 H379 0.929 . S
C377 C376 1.363 . S
C377 C383 1.428 . S
H378 C374 0.930 . S
H379 C376 0.929 . S
S380 N381 1.613 . S
S380 N382 1.610 . S
N381 S380 1.613 . S
N381 C384 1.350 . S
N382 S380 1.610 . S
N382 C383 1.351 . S
C383 C377 1.428 . S
C383 N382 1.351 . S
C383 C384 1.434 . S
C384 C375 1.429 . S
C384 N381 1.350 . S
C384 C383 1.434 . S
C385 C386 1.369 . S
C385 C387 1.419 . S
C385 H389 0.930 . S
C386 C385 1.369 . S
C386 C395 1.429 . S
C387 C385 1.419 . S
C387 C388 1.363 . S
C387 H390 0.929 . S
C388 C387 1.363 . S
C388 C394 1.428 . S
H389 C385 0.930 . S
H390 C387 0.929 . S
S391 N392 1.613 . S
S391 N393 1.610 . S
N392 S391 1.613 . S
N392 C395 1.350 . S
N393 S391 1.610 . S
N393 C394 1.351 . S
C394 C388 1.428 . S
C394 N393 1.351 . S
C394 C395 1.434 . S
C395 C386 1.429 . S
C395 N392 1.350 . S
C395 C394 1.434 . S
C396 C397 1.369 . S
C396 C398 1.419 1_554 S
C396 H400 0.930 . S
C397 C396 1.369 . S
C397 C406 1.429 . S
C398 C396 1.419 1_556 S
C398 C399 1.363 . S
C398 H401 0.929 . S
C399 C398 1.363 . S
C399 C405 1.428 . S
H400 C396 0.930 . S
H401 C398 0.929 . S
S402 N403 1.613 . S
S402 N404 1.610 1_554 S
N403 S402 1.613 . S
N403 C406 1.350 . S
N404 S402 1.610 1_556 S
N404 C405 1.351 . S
C405 C399 1.428 . S
C405 N404 1.351 . S
C405 C406 1.434 1_556 S
C406 C397 1.429 . S
C406 N403 1.350 . S
C406 C405 1.434 1_554 S
C407 C408 1.369 . S
C407 C409 1.419 1_554 S
C407 H411 0.930 . S
C408 C407 1.369 . S
C408 C417 1.429 . S
C409 C407 1.419 1_556 S
C409 C410 1.363 . S
C409 H412 0.929 . S
C410 C409 1.363 . S
C410 C416 1.428 . S
H411 C407 0.930 . S
H412 C409 0.929 . S
S413 N414 1.613 . S
S413 N415 1.610 1_554 S
N414 S413 1.613 . S
N414 C417 1.350 . S
N415 S413 1.610 1_556 S
N415 C416 1.351 . S
C416 C410 1.428 . S
C416 N415 1.351 . S
C416 C417 1.434 1_556 S
C417 C408 1.429 . S
C417 N414 1.350 . S
C417 C416 1.434 1_554 S
C418 C419 1.369 . S
C418 C420 1.419 1_556 S
C418 H422 0.930 . S
C419 C418 1.369 . S
C419 C428 1.429 . S
C420 C418 1.419 1_554 S
C420 C421 1.363 . S
C420 H423 0.929 . S
C421 C420 1.363 . S
C421 C427 1.428 . S
H422 C418 0.930 . S
H423 C420 0.929 . S
S424 N425 1.613 1_554 S
S424 N426 1.610 . S
N425 S424 1.613 1_556 S
N425 C428 1.350 . S
N426 S424 1.610 . S
N426 C427 1.351 . S
C427 C421 1.428 . S
C427 N426 1.351 . S
C427 C428 1.434 1_554 S
C428 C419 1.429 . S
C428 N425 1.350 . S
C428 C427 1.434 1_556 S
C429 C430 1.369 . S
C429 C431 1.419 1_554 S
C429 H433 0.930 . S
C430 C429 1.369 . S
C430 C439 1.429 . S
C431 C429 1.419 1_556 S
C431 C432 1.363 . S
C431 H434 0.929 . S
C432 C431 1.363 . S
C432 C438 1.428 . S
H433 C429 0.930 . S
H434 C431 0.929 . S
S435 N436 1.613 . S
S435 N437 1.610 1_554 S
N436 S435 1.613 . S
N436 C439 1.350 . S
N437 S435 1.610 1_556 S
N437 C438 1.351 . S
C438 C432 1.428 . S
C438 N437 1.351 . S
C438 C439 1.434 1_556 S
C439 C430 1.429 . S
C439 N436 1.350 . S
C439 C438 1.434 1_554 S
C177 C160 1.379 . S
C179 C5 1.324 . S
C188 C31 1.322 . S
C190 C139 1.373 . S
C199 C115 1.372 . S
C201 C50 1.321 . S
C210 C73 1.329 . S
C212 C97 1.376 . S
C221 C72 1.380 . S
C223 C93 1.322 . S
C232 C51 1.380 . S
C234 C119 1.324 . S
C243 C27 1.372 . S
C245 C138 1.322 . S
C254 C9 1.373 . S
C256 C161 1.326 . S
C265 C26 1.855 . S
C267 C8 1.855 . S
C276 C70 1.856 . S
C278 C52 1.855 . S
C287 C96 1.855 . S
C289 C114 1.855 . S
C298 C158 1.855 . S
C300 C140 1.856 . S
C309 C74 1.484 . S
C311 C4 1.485 . S
C320 C48 1.492 . S
C322 C30 1.492 . S
C331 C92 1.485 . S
C333 C162 1.486 . S
C342 C118 1.492 . S
C344 C136 1.492 . S
C353 C137 1.777 . S
C355 C6 1.773 . S
C364 C29 1.772 . S
C366 C163 1.778 . S
C375 C94 1.779 . S
C377 C49 1.772 . S
C386 C117 1.778 . S
C388 C75 1.774 . S
C397 C7 1.065 . S
C399 C141 1.081 . S
C408 C159 1.065 . S
C410 C28 1.081 . S
C419 C53 1.072 . S
C421 C95 1.075 . S
C430 C71 1.082 . S
C432 C116 1.068 . S
