# Generated by pormake.
# Topology gis, (4)-cn, num edge types: 1
# Building blocks:
#     Node 0, Type 0, BuildingBlock: GALJAG_clean_sbu_0, # of connection points: 4
#     Node 1, Type 0, BuildingBlock: GALJAG_clean_sbu_0, # of connection points: 4
#     Node 2, Type 0, BuildingBlock: GALJAG_clean_sbu_0, # of connection points: 4
#     Node 3, Type 0, BuildingBlock: GALJAG_clean_sbu_0, # of connection points: 4
#     Node 4, Type 0, BuildingBlock: GALJAG_clean_sbu_0, # of connection points: 4
#     Node 5, Type 0, BuildingBlock: GALJAG_clean_sbu_0, # of connection points: 4
#     Node 6, Type 0, BuildingBlock: GALJAG_clean_sbu_0, # of connection points: 4
#     Node 7, Type 0, BuildingBlock: GALJAG_clean_sbu_0, # of connection points: 4
#     Node 8, Type 0, BuildingBlock: GALJAG_clean_sbu_0, # of connection points: 4
#     Node 9, Type 0, BuildingBlock: GALJAG_clean_sbu_0, # of connection points: 4
#     Node 10, Type 0, BuildingBlock: GALJAG_clean_sbu_0, # of connection points: 4
#     Node 11, Type 0, BuildingBlock: GALJAG_clean_sbu_0, # of connection points: 4
#     Node 12, Type 0, BuildingBlock: GALJAG_clean_sbu_0, # of connection points: 4
#     Node 13, Type 0, BuildingBlock: GALJAG_clean_sbu_0, # of connection points: 4
#     Node 14, Type 0, BuildingBlock: GALJAG_clean_sbu_0, # of connection points: 4
#     Node 15, Type 0, BuildingBlock: GALJAG_clean_sbu_0, # of connection points: 4
#     Edge 16, Type (0, 0), BuildingBlock: XUDNAN_clean_linker_2, # of connection points: 2
#     Edge 17, Type (0, 0), BuildingBlock: XUDNAN_clean_linker_2, # of connection points: 2
#     Edge 18, Type (0, 0), BuildingBlock: XUDNAN_clean_linker_2, # of connection points: 2
#     Edge 19, Type (0, 0), BuildingBlock: XUDNAN_clean_linker_2, # of connection points: 2
#     Edge 20, Type (0, 0), BuildingBlock: XUDNAN_clean_linker_2, # of connection points: 2
#     Edge 21, Type (0, 0), BuildingBlock: XUDNAN_clean_linker_2, # of connection points: 2
#     Edge 22, Type (0, 0), BuildingBlock: XUDNAN_clean_linker_2, # of connection points: 2
#     Edge 23, Type (0, 0), BuildingBlock: XUDNAN_clean_linker_2, # of connection points: 2
#     Edge 24, Type (0, 0), BuildingBlock: XUDNAN_clean_linker_2, # of connection points: 2
#     Edge 25, Type (0, 0), BuildingBlock: XUDNAN_clean_linker_2, # of connection points: 2
#     Edge 26, Type (0, 0), BuildingBlock: XUDNAN_clean_linker_2, # of connection points: 2
#     Edge 27, Type (0, 0), BuildingBlock: XUDNAN_clean_linker_2, # of connection points: 2
#     Edge 28, Type (0, 0), BuildingBlock: XUDNAN_clean_linker_2, # of connection points: 2
#     Edge 29, Type (0, 0), BuildingBlock: XUDNAN_clean_linker_2, # of connection points: 2
#     Edge 30, Type (0, 0), BuildingBlock: XUDNAN_clean_linker_2, # of connection points: 2
#     Edge 31, Type (0, 0), BuildingBlock: XUDNAN_clean_linker_2, # of connection points: 2
#     Edge 32, Type (0, 0), BuildingBlock: XUDNAN_clean_linker_2, # of connection points: 2
#     Edge 33, Type (0, 0), BuildingBlock: XUDNAN_clean_linker_2, # of connection points: 2
#     Edge 34, Type (0, 0), BuildingBlock: XUDNAN_clean_linker_2, # of connection points: 2
#     Edge 35, Type (0, 0), BuildingBlock: XUDNAN_clean_linker_2, # of connection points: 2
#     Edge 36, Type (0, 0), BuildingBlock: XUDNAN_clean_linker_2, # of connection points: 2
#     Edge 37, Type (0, 0), BuildingBlock: XUDNAN_clean_linker_2, # of connection points: 2
#     Edge 38, Type (0, 0), BuildingBlock: XUDNAN_clean_linker_2, # of connection points: 2
#     Edge 39, Type (0, 0), BuildingBlock: XUDNAN_clean_linker_2, # of connection points: 2
#     Edge 40, Type (0, 0), BuildingBlock: XUDNAN_clean_linker_2, # of connection points: 2
#     Edge 41, Type (0, 0), BuildingBlock: XUDNAN_clean_linker_2, # of connection points: 2
#     Edge 42, Type (0, 0), BuildingBlock: XUDNAN_clean_linker_2, # of connection points: 2
#     Edge 43, Type (0, 0), BuildingBlock: XUDNAN_clean_linker_2, # of connection points: 2
#     Edge 44, Type (0, 0), BuildingBlock: XUDNAN_clean_linker_2, # of connection points: 2
#     Edge 45, Type (0, 0), BuildingBlock: XUDNAN_clean_linker_2, # of connection points: 2
#     Edge 46, Type (0, 0), BuildingBlock: XUDNAN_clean_linker_2, # of connection points: 2
#     Edge 47, Type (0, 0), BuildingBlock: XUDNAN_clean_linker_2, # of connection points: 2
# Relax obj value: 0.052
# Max RMSD: 0.088
# Mean RMSD: 0.088
data_MOF--net-gis--node1-GALJAG_clean_sbu_0--edge1-XUDNAN_clean_linker_2
_symmetry_space_group_name_H-M    P1
_symmetry_Int_Tables_number       1
_symmetry_cell_setting            triclinic
loop_
_symmetry_equiv_pos_as_xyz
'x, y, z'
_cell_length_a     53.57103
_cell_length_b     53.501712
_cell_length_c     37.197747
_cell_angle_alpha  90.115894
_cell_angle_beta   90.119489
_cell_angle_gamma 90.057137
loop_
_atom_site_label
_atom_site_type_symbol
_atom_site_fract_x
_atom_site_fract_y
_atom_site_fract_z
_atom_type_partial_charge
In0 In 0.14007 0.61697 0.10934 0.0
O1 O 0.16195 0.60699 0.16041 0.0
O2 O 0.18223 0.61646 0.11329 0.0
C3 C 0.09237 0.60952 0.13011 0.0
C4 C 0.13997 0.66689 0.09797 0.0
C5 C 0.14608 0.58127 0.05901 0.0
O6 O 0.11035 0.60826 0.15205 0.0
O7 O 0.09859 0.61422 0.09817 0.0
O8 O 0.14699 0.60433 0.05202 0.0
O9 O 0.14183 0.57609 0.09154 0.0
C10 C 0.18301 0.60988 0.14577 0.0
O11 O 0.1408 0.65122 0.07263 0.0
O12 O 0.13927 0.65739 0.12894 0.0
In13 In 0.64784 0.89769 0.37095 0.0
O14 O 0.65416 0.85936 0.39841 0.0
O15 O 0.64674 0.861 0.34206 0.0
C16 C 0.65589 0.93641 0.41579 0.0
C17 C 0.68778 0.90653 0.32992 0.0
C18 C 0.59865 0.90231 0.3583 0.0
O19 O 0.65387 0.91434 0.42793 0.0
O20 O 0.65363 0.93835 0.38225 0.0
O21 O 0.61483 0.90727 0.33468 0.0
O22 O 0.60736 0.89522 0.38815 0.0
C23 C 0.6514 0.84752 0.36903 0.0
O24 O 0.66604 0.91334 0.32082 0.0
O25 O 0.68928 0.89501 0.35951 0.0
In26 In 0.35848 0.38734 0.61843 0.0
O27 O 0.35612 0.40888 0.56532 0.0
O28 O 0.35839 0.42929 0.61456 0.0
C29 C 0.3532 0.33858 0.60229 0.0
C30 C 0.40667 0.38917 0.63927 0.0
C31 C 0.31486 0.39369 0.65272 0.0
O32 O 0.3532 0.35519 0.5781 0.0
O33 O 0.35609 0.3467 0.63389 0.0
O34 O 0.33545 0.39293 0.6695 0.0
O35 O 0.31647 0.39099 0.6191 0.0
C36 C 0.35655 0.43 0.58076 0.0
O37 O 0.38896 0.39248 0.6612 0.0
O38 O 0.39995 0.38481 0.60732 0.0
In39 In 0.85349 0.10293 0.87643 0.0
O40 O 0.89231 0.09689 0.85067 0.0
O41 O 0.88911 0.11896 0.89826 0.0
C42 C 0.81776 0.08492 0.83264 0.0
C43 C 0.84992 0.06708 0.92647 0.0
C44 C 0.83949 0.15118 0.87418 0.0
O45 O 0.83937 0.09004 0.82081 0.0
O46 O 0.81481 0.08844 0.86587 0.0
O47 O 0.84147 0.13961 0.90373 0.0
O48 O 0.84432 0.13833 0.84658 0.0
C49 C 0.90324 0.11008 0.87434 0.0
O50 O 0.83924 0.08806 0.92997 0.0
O51 O 0.86297 0.06464 0.89842 0.0
In52 In 0.13765 0.39293 0.86469 0.0
O53 O 0.15316 0.35684 0.88987 0.0
O54 O 0.13659 0.35579 0.83744 0.0
C55 C 0.14748 0.4345 0.90212 0.0
C56 C 0.16985 0.40222 0.81175 0.0
C57 C 0.08837 0.39008 0.87636 0.0
O58 O 0.15199 0.41307 0.91522 0.0
O59 O 0.13806 0.43453 0.87098 0.0
O60 O 0.09695 0.3974 0.84642 0.0
O61 O 0.10463 0.38457 0.89964 0.0
C62 C 0.14744 0.34398 0.8623 0.0
O63 O 0.14641 0.40345 0.80678 0.0
O64 O 0.17664 0.39688 0.84342 0.0
In65 In 0.8661 0.88555 0.12715 0.0
O66 O 0.87512 0.85291 0.08867 0.0
O67 O 0.84715 0.84738 0.12783 0.0
C68 C 0.85125 0.91543 0.07285 0.0
C69 C 0.8366 0.90214 0.1808 0.0
C70 C 0.9128 0.89242 0.15388 0.0
O71 O 0.83608 0.90583 0.09479 0.0
O72 O 0.87362 0.9086 0.07689 0.0
O73 O 0.90404 0.9047 0.12803 0.0
O74 O 0.89795 0.87662 0.16686 0.0
C75 C 0.85966 0.83808 0.10258 0.0
O76 O 0.84581 0.91651 0.15751 0.0
O77 O 0.84314 0.87959 0.17798 0.0
In78 In 0.35815 0.60752 0.36496 0.0
O79 O 0.35087 0.59652 0.42293 0.0
O80 O 0.3543 0.56724 0.38465 0.0
C81 C 0.35118 0.65687 0.37585 0.0
C82 C 0.40782 0.60186 0.35671 0.0
C83 C 0.32515 0.60035 0.31094 0.0
O84 O 0.34087 0.64046 0.39509 0.0
O85 O 0.36482 0.64836 0.3511 0.0
O86 O 0.34833 0.60219 0.30588 0.0
O87 O 0.31856 0.60166 0.34341 0.0
C88 C 0.35101 0.57331 0.41707 0.0
O89 O 0.39217 0.59225 0.33535 0.0
O90 O 0.39839 0.61419 0.38222 0.0
In91 In 0.63954 0.11597 0.62839 0.0
O92 O 0.60176 0.10871 0.65651 0.0
O93 O 0.60243 0.13033 0.60861 0.0
C94 C 0.67405 0.09856 0.67467 0.0
C95 C 0.64616 0.08188 0.57565 0.0
C96 C 0.65114 0.16502 0.63198 0.0
O97 O 0.65089 0.09719 0.68116 0.0
O98 O 0.67956 0.10865 0.64508 0.0
O99 O 0.64906 0.15375 0.60218 0.0
O100 O 0.64761 0.15153 0.65932 0.0
C101 C 0.58953 0.12127 0.63371 0.0
O102 O 0.65393 0.10413 0.5731 0.0
O103 O 0.63454 0.07713 0.60427 0.0
In104 In 0.85511 0.38201 0.88652 0.0
O105 O 0.8413 0.39362 0.94228 0.0
O106 O 0.8564 0.42159 0.90789 0.0
C107 C 0.84338 0.33318 0.88044 0.0
C108 C 0.90536 0.38009 0.8892 0.0
C109 C 0.82329 0.39913 0.83658 0.0
O110 O 0.84174 0.34457 0.91017 0.0
O111 O 0.85103 0.3463 0.85459 0.0
O112 O 0.84665 0.39872 0.83154 0.0
O113 O 0.81622 0.39129 0.86692 0.0
C114 C 0.847 0.41638 0.93802 0.0
O115 O 0.89399 0.38966 0.86279 0.0
O116 O 0.89139 0.37139 0.91335 0.0
In117 In 0.3582 0.10892 0.62795 0.0
O118 O 0.34715 0.1387 0.58686 0.0
O119 O 0.35091 0.14926 0.642 0.0
C120 C 0.3614 0.06578 0.59155 0.0
C121 C 0.31743 0.09832 0.66726 0.0
C122 C 0.40721 0.11774 0.63773 0.0
O123 O 0.35437 0.08583 0.57661 0.0
O124 O 0.36705 0.06778 0.62441 0.0
O125 O 0.39422 0.10807 0.66256 0.0
O126 O 0.39555 0.12228 0.60903 0.0
C127 C 0.34649 0.15604 0.61009 0.0
O128 O 0.33818 0.10339 0.6821 0.0
O129 O 0.3176 0.09878 0.63336 0.0
In130 In 0.64004 0.61352 0.37723 0.0
O131 O 0.60747 0.59885 0.34399 0.0
O132 O 0.59889 0.61912 0.39148 0.0
C133 C 0.67651 0.60077 0.33107 0.0
C134 C 0.64718 0.58133 0.43227 0.0
C135 C 0.6453 0.66373 0.37212 0.0
O136 O 0.65365 0.59697 0.32486 0.0
O137 O 0.68121 0.61057 0.36129 0.0
O138 O 0.64746 0.65266 0.40199 0.0
O139 O 0.64023 0.64959 0.34598 0.0
C140 C 0.59079 0.60734 0.36445 0.0
O141 O 0.64858 0.60475 0.43643 0.0
O142 O 0.64268 0.5744 0.40055 0.0
In143 In 0.14018 0.89815 0.13345 0.0
O144 O 0.11123 0.89836 0.17889 0.0
O145 O 0.09905 0.90536 0.12535 0.0
C146 C 0.18465 0.90022 0.1667 0.0
C147 C 0.14475 0.94083 0.09618 0.0
C148 C 0.13932 0.84996 0.11204 0.0
O149 O 0.16441 0.90353 0.18353 0.0
O150 O 0.18224 0.89574 0.13357 0.0
O151 O 0.1412 0.86771 0.0898 0.0
O152 O 0.13784 0.85667 0.14445 0.0
C153 C 0.09321 0.90296 0.15796 0.0
O154 O 0.14203 0.91987 0.0808 0.0
O155 O 0.14502 0.94012 0.13011 0.0
In156 In 0.86077 0.60802 0.12764 0.0
O157 O 0.84047 0.60554 0.18163 0.0
O158 O 0.81911 0.60402 0.1331 0.0
C159 C 0.90989 0.60598 0.14332 0.0
C160 C 0.85621 0.65587 0.10583 0.0
C161 C 0.85515 0.56404 0.09354 0.0
O162 O 0.8935 0.60522 0.16774 0.0
O163 O 0.90135 0.60783 0.11186 0.0
O164 O 0.85378 0.58466 0.07701 0.0
O165 O 0.85971 0.56578 0.12675 0.0
C166 C 0.81919 0.6033 0.16703 0.0
O167 O 0.8583 0.63803 0.0837 0.0
O168 O 0.85621 0.64947 0.13843 0.0
In169 In 0.13718 0.11327 0.87253 0.0
O170 O 0.09817 0.1036 0.84928 0.0
O171 O 0.10088 0.12768 0.89467 0.0
C172 C 0.17174 0.09727 0.82539 0.0
C173 C 0.14429 0.08128 0.92726 0.0
C174 C 0.14774 0.16202 0.86461 0.0
O175 O 0.14856 0.09543 0.81901 0.0
O176 O 0.17718 0.10641 0.85572 0.0
O177 O 0.15004 0.15121 0.89469 0.0
O178 O 0.14012 0.14826 0.83925 0.0
C179 C 0.08686 0.11686 0.87229 0.0
O180 O 0.14999 0.10416 0.92958 0.0
O181 O 0.13521 0.07466 0.89739 0.0
In182 In 0.63881 0.39725 0.63844 0.0
O183 O 0.60534 0.40274 0.67574 0.0
O184 O 0.5987 0.39075 0.62182 0.0
C185 C 0.6807 0.40802 0.67456 0.0
C186 C 0.64099 0.43886 0.59832 0.0
C187 C 0.64809 0.34784 0.63607 0.0
O188 O 0.65959 0.40749 0.68995 0.0
O189 O 0.68041 0.40325 0.64125 0.0
O190 O 0.64634 0.36045 0.60727 0.0
O191 O 0.64468 0.36012 0.66461 0.0
C192 C 0.58953 0.39655 0.65197 0.0
O193 O 0.64372 0.41739 0.5842 0.0
O194 O 0.63666 0.43881 0.63167 0.0
In195 In 0.36691 0.8891 0.37305 0.0
O196 O 0.36587 0.89898 0.43248 0.0
O197 O 0.36095 0.92852 0.39507 0.0
C198 C 0.35813 0.83987 0.38251 0.0
C199 C 0.41585 0.89593 0.35954 0.0
C200 C 0.33261 0.8978 0.32155 0.0
O201 O 0.34801 0.85644 0.4017 0.0
O202 O 0.3727 0.84813 0.35876 0.0
O203 O 0.35547 0.89478 0.31481 0.0
O204 O 0.32704 0.89684 0.35446 0.0
C205 C 0.36253 0.92204 0.42758 0.0
O206 O 0.39897 0.90509 0.33988 0.0
O207 O 0.40802 0.88334 0.38584 0.0
H208 H 0.13687 0.80983 0.15672 0.0
H209 H 0.14154 0.82993 0.04398 0.0
H210 H 0.1418 0.78499 0.02756 0.0
H211 H 0.17765 0.75725 0.15265 0.0
H212 H 0.15999 0.73916 0.18457 0.0
H213 H 0.15967 0.77277 0.18697 0.0
H214 H 0.11135 0.77252 0.18284 0.0
H215 H 0.11151 0.7389 0.18047 0.0
H216 H 0.09631 0.75679 0.14575 0.0
H217 H 0.14192 0.73749 0.02405 0.0
H218 H 0.14204 0.69171 0.03364 0.0
H219 H 0.13753 0.70364 0.14885 0.0
C220 C 0.13788 0.80483 0.12853 0.0
C221 C 0.13916 0.82332 0.10157 0.0
C222 C 0.14053 0.81601 0.06503 0.0
C223 C 0.14068 0.79057 0.05549 0.0
C224 C 0.13946 0.7728 0.08284 0.0
C225 C 0.13808 0.77967 0.11861 0.0
C226 C 0.13723 0.75711 0.14301 0.0
C227 C 0.15999 0.75655 0.16828 0.0
C228 C 0.11263 0.75629 0.16426 0.0
C229 C 0.1384 0.73637 0.11543 0.0
C230 C 0.13964 0.74573 0.08086 0.0
C231 C 0.14094 0.72999 0.05101 0.0
C232 C 0.14101 0.70404 0.05671 0.0
C233 C 0.13981 0.69417 0.09197 0.0
C234 C 0.13847 0.71063 0.12158 0.0
H235 H 0.45483 0.88246 0.40258 0.0
H236 H 0.43733 0.91778 0.30069 0.0
H237 H 0.48244 0.92353 0.289 0.0
H238 H 0.50643 0.92245 0.4256 0.0
H239 H 0.52427 0.89769 0.44601 0.0
H240 H 0.49069 0.89628 0.44598 0.0
H241 H 0.49231 0.85289 0.41493 0.0
H242 H 0.5259 0.85415 0.41485 0.0
H243 H 0.50915 0.8494 0.37331 0.0
H244 H 0.52968 0.92455 0.28819 0.0
H245 H 0.5752 0.92183 0.29915 0.0
H246 H 0.56106 0.88682 0.40226 0.0
C247 C 0.46048 0.89139 0.37778 0.0
C248 C 0.44267 0.89962 0.35246 0.0
C249 C 0.45074 0.91134 0.32043 0.0
C250 C 0.47628 0.91467 0.31356 0.0
C251 C 0.49339 0.90629 0.33911 0.0
C252 C 0.4858 0.895 0.37064 0.0
C253 C 0.50782 0.88784 0.39391 0.0
C254 C 0.50726 0.90191 0.43 0.0
C255 C 0.50885 0.85938 0.39956 0.0
C256 C 0.52905 0.89677 0.37049 0.0
C257 C 0.5204 0.90729 0.33894 0.0
C258 C 0.53666 0.91645 0.31287 0.0
C259 C 0.56244 0.91481 0.3193 0.0
C260 C 0.57159 0.90422 0.35159 0.0
C261 C 0.55461 0.89516 0.37742 0.0
H262 H 0.35174 0.30113 0.65141 0.0
H263 H 0.34729 0.31517 0.53676 0.0
H264 H 0.34228 0.26967 0.52576 0.0
H265 H 0.38757 0.24589 0.64608 0.0
H266 H 0.37199 0.23094 0.68318 0.0
H267 H 0.37397 0.26449 0.68143 0.0
H268 H 0.32577 0.26745 0.68645 0.0
H269 H 0.32364 0.23387 0.68803 0.0
H270 H 0.30647 0.25099 0.65444 0.0
H271 H 0.33956 0.22189 0.52795 0.0
H272 H 0.34041 0.17676 0.54297 0.0
H273 H 0.34619 0.19551 0.6562 0.0
C274 C 0.34957 0.29472 0.62394 0.0
C275 C 0.34988 0.31164 0.59491 0.0
C276 C 0.34708 0.30247 0.55939 0.0
C277 C 0.34417 0.2767 0.55293 0.0
C278 C 0.34399 0.26051 0.58231 0.0
C279 C 0.34662 0.26926 0.6171 0.0
C280 C 0.34667 0.2482 0.64407 0.0
C281 C 0.37153 0.24733 0.6649 0.0
C282 C 0.3243 0.25026 0.66975 0.0
C283 C 0.34397 0.22608 0.6191 0.0
C284 C 0.34231 0.23343 0.58357 0.0
C285 C 0.34064 0.21598 0.55572 0.0
C286 C 0.34108 0.19042 0.56448 0.0
C287 C 0.34323 0.18266 0.60074 0.0
C288 C 0.34431 0.20082 0.62824 0.0
H289 H 0.04988 0.09003 0.83642 0.0
H290 H 0.06185 0.15113 0.91162 0.0
H291 H 0.01658 0.1568 0.91715 0.0
H292 H 0.99455 0.11679 0.79211 0.0
H293 H 0.97876 0.08716 0.78791 0.0
H294 H 0.01239 0.08839 0.78777 0.0
H295 H 0.01377 0.05713 0.8408 0.0
H296 H 0.98017 0.05582 0.84112 0.0
H297 H 0.99691 0.06419 0.88147 0.0
H298 H 0.97104 0.15517 0.91755 0.0
H299 H 0.92623 0.1462 0.9129 0.0
H300 H 0.94152 0.08613 0.83736 0.0
C301 C 0.04289 0.10474 0.85369 0.0
C302 C 0.05944 0.12017 0.87356 0.0
C303 C 0.0496 0.13904 0.8962 0.0
C304 C 0.02388 0.14249 0.89947 0.0
C305 C 0.00807 0.12692 0.87995 0.0
C306 C 0.01701 0.10841 0.85747 0.0
C307 C 0.99552 0.09378 0.84079 0.0
C308 C 0.9953 0.09671 0.7997 0.0
C309 C 0.99667 0.06609 0.85171 0.0
C310 C 0.97328 0.10684 0.85785 0.0
C311 C 0.98117 0.12596 0.88018 0.0
C312 C 0.96455 0.14036 0.89999 0.0
C313 C 0.9391 0.13505 0.89721 0.0
C314 C 0.93034 0.11549 0.87475 0.0
C315 C 0.94768 0.10133 0.85449 0.0
H316 H 0.15132 0.30736 0.91442 0.0
H317 H 0.15595 0.32046 0.79953 0.0
H318 H 0.16128 0.27542 0.78896 0.0
H319 H 0.1958 0.25315 0.91715 0.0
H320 H 0.17744 0.23667 0.95003 0.0
H321 H 0.17769 0.27037 0.94961 0.0
H322 H 0.12946 0.27063 0.94454 0.0
H323 H 0.12906 0.23701 0.94477 0.0
H324 H 0.11459 0.25379 0.90831 0.0
H325 H 0.1611 0.22977 0.78932 0.0
H326 H 0.15567 0.18483 0.80078 0.0
H327 H 0.15101 0.19954 0.91539 0.0
C328 C 0.15416 0.30069 0.88723 0.0
C329 C 0.15338 0.3173 0.85777 0.0
C330 C 0.15649 0.30798 0.82243 0.0
C331 C 0.15966 0.28246 0.81615 0.0
C332 C 0.15968 0.26643 0.8455 0.0
C333 C 0.15711 0.27502 0.88039 0.0
C334 C 0.15552 0.25332 0.90655 0.0
C335 C 0.17795 0.25339 0.93236 0.0
C336 C 0.13068 0.25372 0.92724 0.0
C337 C 0.15673 0.23135 0.88069 0.0
C338 C 0.15947 0.23949 0.84569 0.0
C339 C 0.15937 0.22307 0.81663 0.0
C340 C 0.15615 0.1976 0.82341 0.0
C341 C 0.15307 0.18875 0.85894 0.0
C342 C 0.15375 0.20581 0.88802 0.0
H343 H 0.9493 0.91901 0.12091 0.0
H344 H 0.93535 0.87148 0.21301 0.0
H345 H 0.9802 0.87366 0.22926 0.0
H346 H 0.00398 0.89049 0.09524 0.0
H347 H 0.01924 0.91863 0.08023 0.0
H348 H 0.98576 0.91664 0.07962 0.0
H349 H 0.98298 0.9566 0.11896 0.0
H350 H 0.01656 0.95873 0.11968 0.0
H351 H 0.99939 0.95786 0.16129 0.0
H352 H 0.02743 0.87818 0.23194 0.0
H353 H 0.07256 0.88204 0.21829 0.0
H354 H 0.05469 0.92494 0.12293 0.0
C355 C 0.95554 0.90955 0.14501 0.0
C356 C 0.9389 0.89527 0.16592 0.0
C357 C 0.94785 0.88267 0.19678 0.0
C358 C 0.97323 0.88389 0.20628 0.0
C359 C 0.98929 0.89779 0.18459 0.0
C360 C 0.98072 0.91036 0.15455 0.0
C361 C 0.0019 0.92177 0.13343 0.0
C362 C 0.00276 0.91124 0.09487 0.0
C363 C 1.00009 0.95045 0.13335 0.0
C364 C 0.02387 0.91299 0.15553 0.0
C365 C 0.01631 0.89968 0.18542 0.0
C366 C 0.03353 0.8888 0.20883 0.0
C367 C 0.05908 0.89112 0.20096 0.0
C368 C 0.06696 0.90378 0.1696 0.0
C369 C 0.04912 0.91523 0.14716 0.0
H370 H 0.37308 0.69502 0.33892 0.0
H371 H 0.32248 0.67969 0.42714 0.0
H372 H 0.31822 0.7251 0.4383 0.0
H373 H 0.40495 0.74608 0.38037 0.0
H374 H 0.40811 0.76358 0.33927 0.0
H375 H 0.40656 0.72998 0.33781 0.0
H376 H 0.36904 0.73238 0.29382 0.0
H377 H 0.3705 0.766 0.29509 0.0
H378 H 0.34183 0.75019 0.30626 0.0
H379 H 0.32012 0.77232 0.44014 0.0
H380 H 0.32796 0.81758 0.43245 0.0
H381 H 0.37747 0.80139 0.3432 0.0
C382 C 0.36101 0.7012 0.36049 0.0
C383 C 0.34806 0.6839 0.38215 0.0
C384 C 0.33253 0.69269 0.41021 0.0
C385 C 0.33 0.71841 0.41673 0.0
C386 C 0.34314 0.73499 0.39495 0.0
C387 C 0.35832 0.72672 0.36738 0.0
C388 C 0.37068 0.74828 0.34812 0.0
C389 C 0.39927 0.74689 0.35162 0.0
C390 C 0.36251 0.74927 0.30847 0.0
C391 C 0.36019 0.77002 0.36923 0.0
C392 C 0.34431 0.76202 0.39609 0.0
C393 C 0.3325 0.77879 0.41917 0.0
C394 C 0.33707 0.80443 0.41462 0.0
C395 C 0.35332 0.81293 0.38726 0.0
C396 C 0.36496 0.79544 0.36436 0.0
H397 H 0.55321 0.09413 0.66968 0.0
H398 H 0.56473 0.15938 0.6025 0.0
H399 H 0.51963 0.16767 0.60275 0.0
H400 H 0.49839 0.07375 0.62569 0.0
H401 H 0.48265 0.06289 0.6655 0.0
H402 H 0.51623 0.06339 0.664 0.0
H403 H 0.51726 0.09066 0.72158 0.0
H404 H 0.48363 0.09028 0.72321 0.0
H405 H 0.50015 0.11965 0.7227 0.0
H406 H 0.47414 0.16734 0.60508 0.0
H407 H 0.42933 0.15761 0.60784 0.0
H408 H 0.44506 0.09255 0.67351 0.0
C409 C 0.54617 0.11038 0.65563 0.0
C410 C 0.56245 0.1262 0.63618 0.0
C411 C 0.5526 0.147 0.6175 0.0
C412 C 0.52701 0.15198 0.61766 0.0
C413 C 0.5114 0.13594 0.63656 0.0
C414 C 0.52042 0.11551 0.65517 0.0
C415 C 0.49904 0.10027 0.67073 0.0
C416 C 0.49909 0.07349 0.65556 0.0
C417 C 0.50009 0.10022 0.71201 0.0
C418 C 0.4767 0.11505 0.65714 0.0
C419 C 0.48449 0.1357 0.63787 0.0
C420 C 0.46775 0.15145 0.6205 0.0
C421 C 0.44235 0.14573 0.62215 0.0
C422 C 0.43381 0.1245 0.64113 0.0
C423 C 0.45113 0.1092 0.65952 0.0
H424 H 0.84276 0.18754 0.92669 0.0
H425 H 0.82342 0.1754 0.81464 0.0
H426 H 0.81802 0.22069 0.80639 0.0
H427 H 0.80042 0.24231 0.94175 0.0
H428 H 0.8229 0.25809 0.96992 0.0
H429 H 0.82192 0.22441 0.96871 0.0
H430 H 0.86875 0.2234 0.95162 0.0
H431 H 0.86984 0.25701 0.95255 0.0
H432 H 0.87924 0.24037 0.91263 0.0
H433 H 0.82001 0.26659 0.80756 0.0
H434 H 0.82787 0.3113 0.81875 0.0
H435 H 0.8451 0.29518 0.93033 0.0
C436 C 0.8367 0.19444 0.90075 0.0
C437 C 0.83335 0.178 0.87133 0.0
C438 C 0.82604 0.18768 0.83753 0.0
C439 C 0.82284 0.21338 0.8326 0.0
C440 C 0.82694 0.22919 0.86176 0.0
C441 C 0.83352 0.22021 0.89528 0.0
C442 C 0.83874 0.24158 0.92119 0.0
C443 C 0.81986 0.24159 0.95223 0.0
C444 C 0.86575 0.24052 0.93531 0.0
C445 C 0.83481 0.26385 0.89661 0.0
C446 C 0.82782 0.25616 0.86254 0.0
C447 C 0.825 0.27292 0.83427 0.0
C448 C 0.82963 0.29825 0.84084 0.0
C449 C 0.83684 0.30663 0.87543 0.0
C450 C 0.83909 0.28926 0.90383 0.0
H451 H 0.64509 0.70185 0.42308 0.0
H452 H 0.65377 0.68694 0.30896 0.0
H453 H 0.65879 0.73183 0.29756 0.0
H454 H 0.60869 0.75733 0.41225 0.0
H455 H 0.62244 0.77396 0.44955 0.0
H456 H 0.62127 0.74031 0.44994 0.0
H457 H 0.66916 0.73864 0.45923 0.0
H458 H 0.67047 0.77231 0.45888 0.0
H459 H 0.68933 0.75454 0.42797 0.0
H460 H 0.66085 0.77734 0.29698 0.0
H461 H 0.65914 0.82262 0.307 0.0
H462 H 0.6489 0.81044 0.42146 0.0
C463 C 0.64834 0.70812 0.39582 0.0
C464 C 0.64909 0.69088 0.36689 0.0
C465 C 0.65304 0.69976 0.33152 0.0
C466 C 0.65603 0.72524 0.32474 0.0
C467 C 0.65495 0.74177 0.35358 0.0
C468 C 0.65116 0.73376 0.38844 0.0
C469 C 0.64958 0.75598 0.41397 0.0
C470 C 0.62397 0.75694 0.43252 0.0
C471 C 0.67091 0.75532 0.44165 0.0
C472 C 0.6528 0.77757 0.38782 0.0
C473 C 0.65601 0.7687 0.35322 0.0
C474 C 0.6585 0.78458 0.32395 0.0
C475 C 0.65742 0.81031 0.32996 0.0
C476 C 0.65389 0.8201 0.365 0.0
C477 C 0.65185 0.80348 0.39445 0.0
H478 H 0.83848 0.69472 0.14543 0.0
H479 H 0.8717 0.6768 0.04239 0.0
H480 H 0.87363 0.72195 0.02769 0.0
H481 H 0.80064 0.7478 0.11316 0.0
H482 H 0.8052 0.76508 0.15431 0.0
H483 H 0.80483 0.7314 0.15503 0.0
H484 H 0.84831 0.73134 0.18576 0.0
H485 H 0.84886 0.76494 0.185 0.0
H486 H 0.87392 0.74751 0.16466 0.0
H487 H 0.87647 0.76955 0.02807 0.0
H488 H 0.87692 0.81499 0.04146 0.0
H489 H 0.83929 0.80084 0.14249 0.0
C490 C 0.84581 0.70028 0.11953 0.0
C491 C 0.855 0.68238 0.09503 0.0
C492 C 0.86444 0.69029 0.06141 0.0
C493 C 0.86564 0.71587 0.0529 0.0
C494 C 0.85685 0.73313 0.07804 0.0
C495 C 0.84672 0.72557 0.11042 0.0
C496 C 0.83916 0.74768 0.13331 0.0
C497 C 0.81077 0.748 0.13929 0.0
C498 C 0.85343 0.74787 0.16929 0.0
C499 C 0.84731 0.76893 0.10933 0.0
C500 C 0.85749 0.76026 0.07754 0.0
C501 C 0.86807 0.77654 0.05253 0.0
C502 C 0.8683 0.80227 0.06036 0.0
C503 C 0.85783 0.81139 0.09273 0.0
C504 C 0.84695 0.79446 0.11716 0.0
H505 H 0.64049 0.31078 0.58462 0.0
H506 H 0.66935 0.32416 0.6921 0.0
H507 H 0.6769 0.27923 0.69967 0.0
H508 H 0.60755 0.25598 0.60617 0.0
H509 H 0.614 0.23954 0.56488 0.0
H510 H 0.61353 0.27318 0.56545 0.0
H511 H 0.65835 0.2742 0.53951 0.0
H512 H 0.65892 0.2405 0.53878 0.0
H513 H 0.68297 0.25757 0.56229 0.0
H514 H 0.67743 0.23349 0.69906 0.0
H515 H 0.6713 0.18833 0.68974 0.0
H516 H 0.64257 0.20258 0.58256 0.0
C517 C 0.64892 0.3042 0.60933 0.0
C518 C 0.65442 0.32096 0.63774 0.0
C519 C 0.66493 0.31167 0.67002 0.0
C520 C 0.66942 0.28616 0.67455 0.0
C521 C 0.66331 0.27003 0.64656 0.0
C522 C 0.65338 0.27851 0.61449 0.0
C523 C 0.64689 0.25665 0.58998 0.0
C524 C 0.61883 0.25633 0.58111 0.0
C525 C 0.66273 0.25727 0.5556 0.0
C526 C 0.65413 0.23473 0.61378 0.0
C527 C 0.66376 0.24304 0.64614 0.0
C528 C 0.67028 0.22667 0.67363 0.0
C529 C 0.66665 0.20106 0.66814 0.0
C530 C 0.65668 0.19198 0.63537 0.0
C531 C 0.65069 0.20902 0.60761 0.0
H532 H 0.04824 0.40148 0.83247 0.0
H533 H 0.06777 0.3726 0.93791 0.0
H534 H 0.0233 0.36697 0.95183 0.0
H535 H 0.99319 0.4355 0.86135 0.0
H536 H 0.97547 0.42836 0.82138 0.0
H537 H 0.00901 0.43031 0.81925 0.0
H538 H 0.01076 0.38559 0.79254 0.0
H539 H 0.97723 0.38347 0.79468 0.0
H540 H 0.99624 0.36018 0.81645 0.0
H541 H 0.97753 0.36355 0.95454 0.0
H542 H 0.93194 0.36379 0.94668 0.0
H543 H 0.94075 0.39545 0.84 0.0
C544 C 0.04309 0.39403 0.85847 0.0
C545 C 0.06147 0.38744 0.88409 0.0
C546 C 0.05404 0.37778 0.91785 0.0
C547 C 0.02882 0.37448 0.92604 0.0
C548 C 0.01118 0.381 0.90026 0.0
C549 C 0.01785 0.39068 0.86723 0.0
C550 C 0.99489 0.3962 0.84462 0.0
C551 C 0.99303 0.42426 0.83616 0.0
C552 C 0.99478 0.38041 0.81002 0.0
C553 C 0.9744 0.38801 0.87015 0.0
C554 C 0.98436 0.37926 0.90201 0.0
C555 C 0.96944 0.37041 0.92977 0.0
C556 C 0.94356 0.37058 0.92499 0.0
C557 C 0.9328 0.37964 0.89274 0.0
C558 C 0.94847 0.38844 0.86494 0.0
H559 H 0.55129 0.62444 0.40416 0.0
H560 H 0.56973 0.58174 0.30851 0.0
H561 H 0.52484 0.57524 0.29638 0.0
H562 H 0.49871 0.58703 0.43125 0.0
H563 H 0.48074 0.61338 0.44677 0.0
H564 H 0.51433 0.61457 0.44799 0.0
H565 H 0.51367 0.65519 0.41011 0.0
H566 H 0.48008 0.65414 0.40881 0.0
H567 H 0.49757 0.65541 0.36751 0.0
H568 H 0.47798 0.57349 0.2946 0.0
H569 H 0.43235 0.57706 0.30302 0.0
H570 H 0.44467 0.62099 0.39968 0.0
C571 C 0.54588 0.61372 0.38069 0.0
C572 C 0.56394 0.60358 0.35727 0.0
C573 C 0.55616 0.58967 0.3268 0.0
C574 C 0.53073 0.58586 0.3197 0.0
C575 C 0.51337 0.59609 0.34333 0.0
C576 C 0.52059 0.60975 0.37318 0.0
C577 C 0.49819 0.61887 0.39418 0.0
C578 C 0.49799 0.6078 0.4323 0.0
C579 C 0.49734 0.64761 0.39519 0.0
C580 C 0.47726 0.60825 0.37142 0.0
C581 C 0.48639 0.59513 0.34225 0.0
C582 C 0.47059 0.5837 0.31735 0.0
C583 C 0.44474 0.58582 0.32235 0.0
C584 C 0.43502 0.59929 0.35198 0.0
C585 C 0.45156 0.61056 0.37679 0.0
H586 H 0.55289 0.38613 0.60325 0.0
H587 H 0.56467 0.4064 0.715 0.0
H588 H 0.51892 0.40605 0.72479 0.0
H589 H 0.4987 0.42368 0.58924 0.0
H590 H 0.48375 0.40121 0.56013 0.0
H591 H 0.51728 0.40259 0.56256 0.0
H592 H 0.5187 0.35558 0.57925 0.0
H593 H 0.48516 0.35405 0.57689 0.0
H594 H 0.50111 0.34455 0.61732 0.0
H595 H 0.47137 0.40371 0.72165 0.0
H596 H 0.42655 0.4002 0.70564 0.0
H597 H 0.44696 0.38178 0.59593 0.0
C598 C 0.5459 0.39043 0.62986 0.0
C599 C 0.56231 0.39625 0.65842 0.0
C600 C 0.55239 0.40187 0.69276 0.0
C601 C 0.52646 0.40169 0.69856 0.0
C602 C 0.51079 0.39589 0.66971 0.0
C603 C 0.5202 0.3904 0.63604 0.0
C604 C 0.49955 0.38514 0.60929 0.0
C605 C 0.49984 0.4043 0.5785 0.0
C606 C 0.50124 0.35823 0.59485 0.0
C607 C 0.47697 0.38855 0.63308 0.0
C608 C 0.48374 0.39469 0.66788 0.0
C609 C 0.46589 0.39888 0.69448 0.0
C610 C 0.44051 0.39683 0.68518 0.0
C611 C 0.4333 0.39071 0.64958 0.0
C612 C 0.45186 0.38646 0.62339 0.0
H613 H 0.05218 0.60787 0.08552 0.0
H614 H 0.0729 0.60488 0.19822 0.0
H615 H 0.02813 0.60235 0.2148 0.0
H616 H 0.9994 0.64639 0.09541 0.0
H617 H 0.9814 0.63065 0.06118 0.0
H618 H 0.01494 0.63089 0.05867 0.0
H619 H 0.01535 0.58245 0.05607 0.0
H620 H 0.98178 0.58206 0.05842 0.0
H621 H 0.99992 0.56486 0.09085 0.0
H622 H 0.98024 0.60205 0.21841 0.0
H623 H 0.9344 0.60323 0.2085 0.0
H624 H 0.9467 0.60627 0.09336 0.0
C625 C 0.04737 0.60649 0.11372 0.0
C626 C 0.06596 0.60657 0.14061 0.0
C627 C 0.05889 0.60476 0.17719 0.0
C628 C 0.03354 0.60334 0.18683 0.0
C629 C 0.01563 0.6036 0.15952 0.0
C630 C 0.02234 0.60498 0.12371 0.0
C631 C 0.99977 0.60547 0.09934 0.0
C632 C 0.99883 0.6298 0.07737 0.0
C633 C 0.99918 0.58233 0.07473 0.0
C634 C 0.9792 0.60455 0.12696 0.0
C635 C 0.98855 0.60337 0.16157 0.0
C636 C 0.97276 0.60284 0.19139 0.0
C637 C 0.9468 0.60354 0.18555 0.0
C638 C 0.93703 0.60483 0.1502 0.0
C639 C 0.95356 0.60525 0.12073 0.0
H640 H 0.14424 0.53018 0.06675 0.0
H641 H 0.15615 0.5889 0.9882 0.0
H642 H 0.1614 0.55714 0.94076 0.0
H643 H 0.18871 0.48524 0.0281 0.0
H644 H 0.16918 0.45863 0.03765 0.0
H645 H 0.16801 0.48584 0.06624 0.0
H646 H 0.12028 0.4891 0.05585 0.0
H647 H 0.12129 0.46189 0.02736 0.0
H648 H 0.10835 0.49069 0.01055 0.0
H649 H 0.16203 0.51996 0.90133 0.0
H650 H 0.15806 0.47898 0.87155 0.0
H651 H 0.14701 0.44348 0.97507 0.0
C652 C 0.1482 0.5363 0.03962 0.0
C653 C 0.14981 0.562 0.0311 0.0
C654 C 0.15485 0.56932 0.9953 0.0
C655 C 0.15795 0.55143 0.9682 0.0
C656 C 0.15611 0.52628 0.97739 0.0
C657 C 0.15142 0.51863 0.01217 0.0
C658 C 0.14923 0.4904 0.01431 0.0
C659 C 0.17003 0.47938 0.03798 0.0
C660 C 0.12325 0.48257 0.02781 0.0
C661 C 0.15287 0.48346 0.97513 0.0
C662 C 0.15694 0.50452 0.95444 0.0
C663 C 0.15921 0.50329 0.91724 0.0
C664 C 0.15686 0.47996 0.90059 0.0
C665 C 0.15246 0.45816 0.9211 0.0
C666 C 0.15089 0.45984 0.95891 0.0
H667 H 0.73054 0.8792 0.32562 0.0
H668 H 0.69437 0.94564 0.28412 0.0
H669 H 0.73149 0.95459 0.24675 0.0
H670 H 0.79498 0.90255 0.32583 0.0
H671 H 0.80764 0.87319 0.31059 0.0
H672 H 0.77961 0.87366 0.3373 0.0
H673 H 0.75617 0.8487 0.28784 0.0
H674 H 0.78413 0.84798 0.26118 0.0
H675 H 0.7557 0.86047 0.24246 0.0
H676 H 0.77176 0.95544 0.2126 0.0
H677 H 0.80967 0.94529 0.17789 0.0
H678 H 0.81822 0.87669 0.23868 0.0
C679 C 0.73067 0.89583 0.30906 0.0
C680 C 0.70987 0.91194 0.3079 0.0
C681 C 0.71026 0.93316 0.28531 0.0
C682 C 0.73129 0.93848 0.26428 0.0
C683 C 0.75155 0.92218 0.26592 0.0
C684 C 0.75126 0.90109 0.28733 0.0
C685 C 0.77426 0.88521 0.28137 0.0
C686 C 0.79005 0.88357 0.31583 0.0
C687 C 0.76713 0.85906 0.26737 0.0
C688 C 0.78733 0.90045 0.25281 0.0
C689 C 0.77423 0.922 0.24491 0.0
C690 C 0.78225 0.9387 0.21866 0.0
C691 C 0.80385 0.93283 0.19922 0.0
C692 C 0.81684 0.91024 0.20571 0.0
C693 C 0.80873 0.89416 0.23336 0.0
H694 H 0.35769 0.43815 0.50767 0.0
H695 H 0.35021 0.47594 0.6105 0.0
H696 H 0.34598 0.51629 0.57941 0.0
H697 H 0.39471 0.48571 0.46589 0.0
H698 H 0.38044 0.4822 0.42225 0.0
H699 H 0.38185 0.45596 0.45243 0.0
H700 H 0.33385 0.45076 0.44778 0.0
H701 H 0.33228 0.47706 0.41767 0.0
H702 H 0.3139 0.4769 0.4582 0.0
H703 H 0.34325 0.55246 0.538 0.0
H704 H 0.34397 0.58285 0.48827 0.0
H705 H 0.35376 0.52219 0.41188 0.0
C706 C 0.35505 0.45492 0.52355 0.0
C707 C 0.35423 0.45394 0.56146 0.0
C708 C 0.35094 0.47627 0.58141 0.0
C709 C 0.34842 0.49928 0.56402 0.0
C710 C 0.34931 0.49966 0.52667 0.0
C711 C 0.35266 0.47816 0.50659 0.0
C712 C 0.3538 0.48404 0.46678 0.0
C713 C 0.37921 0.47653 0.45092 0.0
C714 C 0.33216 0.47144 0.44641 0.0
C715 C 0.35071 0.51219 0.46777 0.0
C716 C 0.34798 0.52074 0.5026 0.0
C717 C 0.3453 0.54603 0.51056 0.0
C718 C 0.34571 0.56313 0.48215 0.0
C719 C 0.34888 0.55485 0.44628 0.0
C720 C 0.35117 0.52902 0.43904 0.0
H721 H 0.72439 0.10641 0.67046 0.0
H722 H 0.66744 0.07165 0.73646 0.0
H723 H 0.69983 0.05911 0.78031 0.0
H724 H 0.77512 0.06129 0.68956 0.0
H725 H 0.79861 0.08543 0.69075 0.0
H726 H 0.77152 0.08891 0.66238 0.0
H727 H 0.76143 0.13126 0.693 0.0
H728 H 0.78849 0.12796 0.72125 0.0
H729 H 0.75821 0.13257 0.74121 0.0
H730 H 0.73726 0.05421 0.81951 0.0
H731 H 0.77676 0.05895 0.853 0.0
H732 H 0.80981 0.09674 0.76171 0.0
C733 C 0.71879 0.09573 0.69381 0.0
C734 C 0.69343 0.08983 0.70001 0.0
C735 C 0.68678 0.07627 0.73117 0.0
C736 C 0.70506 0.06896 0.75608 0.0
C737 C 0.72987 0.07531 0.74935 0.0
C738 C 0.73677 0.08842 0.719 0.0
C739 C 0.76435 0.09485 0.71969 0.0
C740 C 0.77822 0.08184 0.68875 0.0
C741 C 0.76834 0.12335 0.71875 0.0
C742 C 0.77177 0.08396 0.75572 0.0
C743 C 0.75164 0.07246 0.7721 0.0
C744 C 0.75324 0.06278 0.80673 0.0
C745 C 0.77575 0.06556 0.82552 0.0
C746 C 0.79636 0.07791 0.80971 0.0
C747 C 0.79455 0.08661 0.77401 0.0
H748 H 0.85203 0.46688 0.93101 0.0
H749 H 0.836 0.40889 0.00906 0.0
H750 H 0.83473 0.44082 0.05727 0.0
H751 H 0.8922 0.50278 0.98527 0.0
H752 H 0.88135 0.5326 0.96912 0.0
H753 H 0.87946 0.50548 0.94054 0.0
H754 H 0.83194 0.51253 0.93233 0.0
H755 H 0.83369 0.53981 0.96072 0.0
H756 H 0.81223 0.51495 0.9714 0.0
H757 H 0.83879 0.4785 0.09731 0.0
H758 H 0.84499 0.51968 0.12611 0.0
H759 H 0.85671 0.5533 0.02143 0.0
C760 C 0.84796 0.46092 0.95819 0.0
C761 C 0.84413 0.43544 0.96642 0.0
C762 C 0.83889 0.42835 0.00224 0.0
C763 C 0.83818 0.44633 0.02975 0.0
C764 C 0.84246 0.47127 0.02079 0.0
C765 C 0.84694 0.47861 0.98582 0.0
C766 C 0.85143 0.50651 0.9834 0.0
C767 C 0.87767 0.51216 0.96872 0.0
C768 C 0.8311 0.5192 0.96062 0.0
C769 C 0.84926 0.51369 0.02262 0.0
C770 C 0.84412 0.49308 0.04374 0.0
C771 C 0.8425 0.49482 0.08101 0.0
C772 C 0.84616 0.51824 0.09711 0.0
C773 C 0.85119 0.53963 0.07593 0.0
C774 C 0.8526 0.5373 0.0382 0.0
H775 H 0.22199 0.10533 0.83126 0.0
H776 H 0.16532 0.07668 0.75849 0.0
H777 H 0.19749 0.07067 0.71168 0.0
H778 H 0.2545 0.14032 0.76743 0.0
H779 H 0.28512 0.1342 0.78555 0.0
H780 H 0.25832 0.13364 0.81461 0.0
H781 H 0.26941 0.08862 0.83455 0.0
H782 H 0.29637 0.08907 0.80565 0.0
H783 H 0.27345 0.06458 0.80104 0.0
H784 H 0.23479 0.0714 0.6714 0.0
H785 H 0.27474 0.07823 0.64021 0.0
H786 H 0.30754 0.10638 0.73912 0.0
C787 C 0.21642 0.09731 0.80572 0.0
C788 C 0.19117 0.0913 0.79853 0.0
C789 C 0.18456 0.08126 0.7646 0.0
C790 C 0.20271 0.07777 0.7379 0.0
C791 C 0.22735 0.08434 0.74565 0.0
C792 C 0.23426 0.09378 0.77878 0.0
C793 C 0.2617 0.10084 0.77948 0.0
C794 C 0.26509 0.12891 0.78721 0.0
C795 C 0.27608 0.08481 0.8068 0.0
C796 C 0.26905 0.0944 0.74128 0.0
C797 C 0.24897 0.08475 0.72234 0.0
C798 C 0.25071 0.07864 0.68606 0.0
C799 C 0.27348 0.08267 0.66857 0.0
C800 C 0.29427 0.09272 0.6873 0.0
C801 C 0.29207 0.09836 0.72426 0.0
H802 H 0.64547 0.53024 0.42825 0.0
H803 H 0.65302 0.5917 0.50388 0.0
H804 H 0.65353 0.56156 0.55418 0.0
H805 H 0.60451 0.49337 0.48073 0.0
H806 H 0.61809 0.46385 0.46801 0.0
H807 H 0.61967 0.49003 0.43776 0.0
H808 H 0.66782 0.48596 0.43522 0.0
H809 H 0.66639 0.45966 0.46533 0.0
H810 H 0.68557 0.48628 0.47644 0.0
H811 H 0.65055 0.52532 0.59605 0.0
H812 H 0.64628 0.48509 0.62738 0.0
H813 H 0.64162 0.44654 0.52476 0.0
C814 C 0.64751 0.53735 0.45538 0.0
C815 C 0.64924 0.56332 0.46223 0.0
C816 C 0.65175 0.57189 0.49806 0.0
C817 C 0.65203 0.55492 0.52676 0.0
C818 C 0.64994 0.52947 0.5191 0.0
C819 C 0.64793 0.52067 0.48431 0.0
C820 C 0.64541 0.49241 0.48354 0.0
C821 C 0.62043 0.48446 0.4665 0.0
C822 C 0.66762 0.48037 0.46397 0.0
C823 C 0.646 0.4867 0.52342 0.0
C824 C 0.6486 0.50841 0.54336 0.0
C825 C 0.64873 0.5082 0.58074 0.0
C826 C 0.64618 0.48522 0.59826 0.0
C827 C 0.64366 0.46266 0.5785 0.0
C828 C 0.6437 0.46345 0.54054 0.0
H829 H 0.28197 0.90242 0.32932 0.0
H830 H 0.34077 0.89955 0.24928 0.0
H831 H 0.30917 0.90168 0.20102 0.0
H832 H 0.23914 0.86384 0.28305 0.0
H833 H 0.21179 0.88114 0.29625 0.0
H834 H 0.23902 0.88116 0.32468 0.0
H835 H 0.24025 0.92957 0.32297 0.0
H836 H 0.21292 0.92972 0.29466 0.0
H837 H 0.24096 0.94535 0.28021 0.0
H838 H 0.27149 0.9013 0.16174 0.0
H839 H 0.22984 0.89981 0.13348 0.0
H840 H 0.19528 0.90347 0.23882 0.0
C841 C 0.28819 0.90258 0.30164 0.0
C842 C 0.31378 0.90088 0.29297 0.0
C843 C 0.32123 0.90091 0.25647 0.0
C844 C 0.30344 0.90212 0.2289 0.0
C845 C 0.27834 0.90341 0.23833 0.0
C846 C 0.27068 0.90382 0.27377 0.0
C847 C 0.24247 0.90445 0.27651 0.0
C848 C 0.23253 0.88127 0.29629 0.0
C849 C 0.23364 0.92872 0.29466 0.0
C850 C 0.23549 0.90393 0.23706 0.0
C851 C 0.25649 0.90339 0.21554 0.0
C852 C 0.25489 0.90195 0.17826 0.0
C853 C 0.23117 0.90103 0.16249 0.0
C854 C 0.20939 0.9016 0.18399 0.0
C855 C 0.21163 0.9032 0.22174 0.0
H856 H 0.63317 0.03225 0.57738 0.0
H857 H 0.67056 0.0879 0.51188 0.0
H858 H 0.67971 0.05559 0.4663 0.0
H859 H 0.67526 0.98072 0.55699 0.0
H860 H 0.65072 0.95765 0.55585 0.0
H861 H 0.64772 0.98488 0.58411 0.0
H862 H 0.6057 0.99583 0.55335 0.0
H863 H 0.60848 0.96856 0.52522 0.0
H864 H 0.60448 0.99892 0.50512 0.0
H865 H 0.68318 0.01829 0.427 0.0
H866 H 0.67984 0.97819 0.39479 0.0
H867 H 0.64109 0.94572 0.48577 0.0
C868 C 0.64332 0.03761 0.55346 0.0
C869 C 0.65115 0.0626 0.5481 0.0
C870 C 0.66438 0.06889 0.51649 0.0
C871 C 0.66974 0.05066 0.49055 0.0
C872 C 0.66187 0.0262 0.49673 0.0
C873 C 0.64892 0.0196 0.52732 0.0
C874 C 0.64198 0.99207 0.52674 0.0
C875 C 0.65468 0.97801 0.55777 0.0
C876 C 0.61347 0.98865 0.52765 0.0
C877 C 0.65271 0.98433 0.49071 0.0
C878 C 0.66421 0.00437 0.47406 0.0
C879 C 0.67445 0.00242 0.43987 0.0
C880 C 0.67244 0.97956 0.42182 0.0
C881 C 0.6604 0.95886 0.43796 0.0
C882 C 0.65083 0.96112 0.47316 0.0
H883 H 0.30522 0.39434 0.7251 0.0
H884 H 0.26976 0.40159 0.62063 0.0
H885 H 0.22892 0.40737 0.65007 0.0
H886 H 0.25679 0.35888 0.76532 0.0
H887 H 0.25982 0.37338 0.80889 0.0
H888 H 0.28645 0.37143 0.7796 0.0
H889 H 0.29223 0.41947 0.78381 0.0
H890 H 0.26553 0.42157 0.81305 0.0
H891 H 0.26656 0.43974 0.77232 0.0
H892 H 0.19164 0.41075 0.69082 0.0
H893 H 0.16062 0.40991 0.74005 0.0
H894 H 0.22052 0.40012 0.81747 0.0
C895 C 0.28889 0.39738 0.70847 0.0
C896 C 0.29063 0.3976 0.67064 0.0
C897 C 0.26883 0.40135 0.64971 0.0
C898 C 0.24556 0.40475 0.66616 0.0
C899 C 0.24443 0.40432 0.70354 0.0
C900 C 0.2655 0.40066 0.72444 0.0
C901 C 0.25903 0.39983 0.76398 0.0
C902 C 0.26592 0.37437 0.78039 0.0
C903 C 0.27158 0.42144 0.78449 0.0
C904 C 0.23103 0.4033 0.76199 0.0
C905 C 0.22296 0.40606 0.72695 0.0
C906 C 0.19774 0.40877 0.71842 0.0
C907 C 0.18027 0.4083 0.7465 0.0
C908 C 0.18818 0.40503 0.7825 0.0
C909 C 0.21391 0.40281 0.79022 0.0
H910 H 0.87952 0.02613 0.93629 0.0
H911 H 0.81064 0.06054 0.97217 0.0
H912 H 0.80169 0.02349 0.00977 0.0
H913 H 0.8579 0.96265 0.93257 0.0
H914 H 0.88649 0.94961 0.9499 0.0
H915 H 0.88716 0.97843 0.92495 0.0
H916 H 0.90939 1.00067 0.9781 0.0
H917 H 0.90917 0.97183 0.00293 0.0
H918 H 0.89559 0.99958 0.02223 0.0
H919 H 0.79983 0.98216 0.04207 0.0
H920 H 0.80813 0.94255 0.07394 0.0
H921 H 0.87932 0.93623 0.01926 0.0
C922 C 0.86259 0.02586 0.95215 0.0
C923 C 0.84569 0.04607 0.95132 0.0
C924 C 0.82386 0.04524 0.97264 0.0
C925 C 0.81853 0.02421 0.99378 0.0
C926 C 0.8354 0.00438 0.99357 0.0
C927 C 0.85722 0.00524 0.97385 0.0
C928 C 0.87292 0.9821 0.97988 0.0
C929 C 0.8763 0.96733 0.94473 0.0
C930 C 0.89826 0.98896 0.9968 0.0
C931 C 0.85653 0.96806 0.00609 0.0
C932 C 0.83477 0.98103 0.01318 0.0
C933 C 0.81681 0.97186 0.03678 0.0
C934 C 0.82161 0.94926 0.05455 0.0
C935 C 0.84433 0.93632 0.04897 0.0
C936 C 0.86173 0.94565 0.02387 0.0
H937 H 0.19072 0.6043 0.21837 0.0
H938 H 0.2292 0.60707 0.11588 0.0
H939 H 0.26955 0.60193 0.14698 0.0
H940 H 0.23529 0.64005 0.26667 0.0
H941 H 0.23256 0.62247 0.30777 0.0
H942 H 0.20646 0.62434 0.27734 0.0
H943 H 0.20447 0.57598 0.27428 0.0
H944 H 0.23061 0.57397 0.30471 0.0
H945 H 0.23192 0.55863 0.26156 0.0
H946 H 0.30568 0.59843 0.18884 0.0
H947 H 0.33564 0.59832 0.23931 0.0
H948 H 0.27406 0.59855 0.315 0.0
C949 C 0.20764 0.60351 0.20251 0.0
C950 C 0.20688 0.60597 0.16474 0.0
C951 C 0.22939 0.60521 0.14487 0.0
C952 C 0.25238 0.6022 0.16226 0.0
C953 C 0.25254 0.60003 0.19953 0.0
C954 C 0.23082 0.60071 0.2195 0.0
C955 C 0.23639 0.59936 0.2594 0.0
C956 C 0.22713 0.62296 0.27893 0.0
C957 C 0.22518 0.57556 0.27595 0.0
C958 C 0.26464 0.59819 0.25868 0.0
C959 C 0.27353 0.59834 0.22384 0.0
C960 C 0.29897 0.59813 0.21625 0.0
C961 C 0.31583 0.59808 0.24508 0.0
C962 C 0.30715 0.59837 0.281 0.0
C963 C 0.28122 0.59815 0.2878 0.0
H964 H 0.35436 0.05674 0.51953 0.0
H965 H 0.37034 0.02013 0.62105 0.0
H966 H 0.37104 0.97927 0.59027 0.0
H967 H 0.31424 0.00876 0.48305 0.0
H968 H 0.32579 0.01198 0.43782 0.0
H969 H 0.32609 0.03845 0.46783 0.0
H970 H 0.37362 0.0439 0.45756 0.0
H971 H 0.37345 0.01752 0.42741 0.0
H972 H 0.39424 0.01788 0.46557 0.0
H973 H 0.36993 0.94253 0.54896 0.0
H974 H 0.36901 0.91222 0.49888 0.0
H975 H 0.35455 0.97259 0.42386 0.0
C976 C 0.35797 0.04011 0.53524 0.0
C977 C 0.36225 0.04155 0.57265 0.0
C978 C 0.36704 0.01943 0.59232 0.0
C979 C 0.36741 0.99613 0.57513 0.0
C980 C 0.36305 0.99532 0.53826 0.0
C981 C 0.35857 0.01669 0.51845 0.0
C982 C 0.35504 0.01061 0.47898 0.0
C983 C 0.32872 0.01788 0.46618 0.0
C984 C 0.3753 0.02322 0.45604 0.0
C985 C 0.3583 0.9825 0.47975 0.0
C986 C 0.36275 0.97408 0.51425 0.0
C987 C 0.36646 0.94887 0.5218 0.0
C988 C 0.36587 0.93181 0.49321 0.0
C989 C 0.36171 0.94008 0.45756 0.0
C990 C 0.35773 0.96574 0.45087 0.0
H991 H 0.81067 0.61228 0.2389 0.0
H992 H 0.77533 0.58541 0.14105 0.0
H993 H 0.73604 0.57882 0.17397 0.0
H994 H 0.77819 0.57066 0.3014 0.0
H995 H 0.77495 0.59434 0.33561 0.0
H996 H 0.80108 0.59526 0.30519 0.0
H997 H 0.78919 0.64036 0.28655 0.0
H998 H 0.76312 0.63961 0.31698 0.0
H999 H 0.75813 0.64659 0.27012 0.0
H1000 H 0.70045 0.57636 0.21612 0.0
H1001 H 0.66948 0.58076 0.26455 0.0
H1002 H 0.7269 0.61044 0.33534 0.0
C1003 C 0.7947 0.60477 0.22461 0.0
C1004 C 0.79601 0.59924 0.18751 0.0
C1005 C 0.77469 0.5898 0.16948 0.0
C1006 C 0.75233 0.58585 0.18796 0.0
C1007 C 0.75155 0.59158 0.22444 0.0
C1008 C 0.77205 0.60099 0.24261 0.0
C1009 C 0.76559 0.60705 0.28133 0.0
C1010 C 0.78086 0.59086 0.30742 0.0
C1011 C 0.76922 0.63507 0.28919 0.0
C1012 C 0.73821 0.59986 0.28184 0.0
C1013 C 0.73065 0.59068 0.24882 0.0
C1014 C 0.70612 0.5834 0.24218 0.0
C1015 C 0.68868 0.58596 0.26987 0.0
C1016 C 0.6958 0.5959 0.30369 0.0
C1017 C 0.72098 0.60261 0.30984 0.0
H1018 H 0.13725 0.94872 0.02418 0.0
H1019 H 0.15771 0.98642 0.12337 0.0
H1020 H 0.16136 0.02633 0.09055 0.0
H1021 H 0.17777 0.98401 0.96503 0.0
H1022 H 0.15533 0.98486 0.92888 0.0
H1023 H 0.15538 0.95906 0.95992 0.0
H1024 H 0.10881 0.96732 0.97447 0.0
H1025 H 0.10861 0.99313 0.94348 0.0
H1026 H 0.09937 0.99793 0.98954 0.0
H1027 H 0.16221 0.06225 0.04707 0.0
H1028 H 0.1587 0.09184 0.9963 0.0
H1029 H 0.13669 0.03078 0.92603 0.0
C1030 C 0.14268 0.96534 0.03891 0.0
C1031 C 0.1473 0.96451 0.07625 0.0
C1032 C 0.1541 0.98668 0.09472 0.0
C1033 C 0.15628 0.00941 0.07632 0.0
C1034 C 0.15149 0.00964 0.03951 0.0
C1035 C 0.14474 0.98822 0.02102 0.0
C1036 C 0.13974 0.99372 0.98176 0.0
C1037 C 0.15816 0.97957 0.95747 0.0
C1038 C 0.11252 0.98767 0.97174 0.0
C1039 C 0.14461 0.02159 0.98113 0.0
C1040 C 0.15154 0.0304 0.01463 0.0
C1041 C 0.15683 0.05558 0.02068 0.0
C1042 C 0.15481 0.07222 0.99173 0.0
C1043 C 0.14741 0.06359 0.95732 0.0
C1044 C 0.14238 0.03792 0.95206 0.0
H1045 H 0.68878 0.40614 0.74723 0.0
H1046 H 0.72596 0.4192 0.64548 0.0
H1047 H 0.76637 0.4229 0.67708 0.0
H1048 H 0.72906 0.44733 0.80312 0.0
H1049 H 0.72859 0.42594 0.84049 0.0
H1050 H 0.70218 0.42771 0.8105 0.0
H1051 H 0.70538 0.38007 0.79855 0.0
H1052 H 0.73177 0.37817 0.82836 0.0
H1053 H 0.73443 0.36717 0.7827 0.0
H1054 H 0.80308 0.4213 0.71878 0.0
H1055 H 0.83351 0.41337 0.7675 0.0
H1056 H 0.77248 0.40058 0.84179 0.0
C1057 C 0.70535 0.41039 0.73176 0.0
C1058 C 0.70428 0.41259 0.694 0.0
C1059 C 0.72641 0.41754 0.67449 0.0
C1060 C 0.74941 0.41977 0.6922 0.0
C1061 C 0.74995 0.417 0.7294 0.0
C1062 C 0.72851 0.41244 0.74899 0.0
C1063 C 0.73448 0.40802 0.78825 0.0
C1064 C 0.72289 0.42848 0.81199 0.0
C1065 C 0.72602 0.3818 0.80014 0.0
C1066 C 0.76265 0.41012 0.78747 0.0
C1067 C 0.7712 0.41567 0.7534 0.0
C1068 C 0.79661 0.41726 0.74569 0.0
C1069 C 0.81375 0.41272 0.77349 0.0
C1070 C 0.80534 0.40646 0.80837 0.0
C1071 C 0.77946 0.40555 0.81545 0.0
loop_
_geom_bond_atom_site_label_1
_geom_bond_atom_site_label_2
_geom_bond_distance
_geom_bond_site_symmetry_2
_ccdc_geom_bond_type
In0 O1 2.294 . S
In0 O2 2.326 . S
In0 O6 2.266 . S
In0 O7 2.326 . S
In0 O8 2.266 . S
In0 O9 2.326 . S
In0 O11 2.294 . S
In0 O12 2.326 . S
O1 In0 2.294 . S
O1 C10 1.240 . S
O2 In0 2.326 . S
O2 C10 1.252 . S
C3 O6 1.252 . S
C3 O7 1.260 . S
C4 O11 1.240 . S
C4 O12 1.252 . S
C5 O8 1.252 . S
C5 O9 1.260 . S
O6 In0 2.266 . S
O6 C3 1.252 . S
O7 In0 2.326 . S
O7 C3 1.260 . S
O8 In0 2.266 . S
O8 C5 1.252 . S
O9 In0 2.326 . S
O9 C5 1.260 . S
C10 O1 1.240 . S
C10 O2 1.252 . S
O11 In0 2.294 . S
O11 C4 1.240 . S
O12 In0 2.326 . S
O12 C4 1.252 . S
In13 O14 2.294 . S
In13 O15 2.326 . S
In13 O19 2.266 . S
In13 O20 2.326 . S
In13 O21 2.266 . S
In13 O22 2.326 . S
In13 O24 2.294 . S
In13 O25 2.326 . S
O14 In13 2.294 . S
O14 C23 1.240 . S
O15 In13 2.326 . S
O15 C23 1.252 . S
C16 O19 1.252 . S
C16 O20 1.260 . S
C17 O24 1.240 . S
C17 O25 1.252 . S
C18 O21 1.252 . S
C18 O22 1.260 . S
O19 In13 2.266 . S
O19 C16 1.252 . S
O20 In13 2.326 . S
O20 C16 1.260 . S
O21 In13 2.266 . S
O21 C18 1.252 . S
O22 In13 2.326 . S
O22 C18 1.260 . S
C23 O14 1.240 . S
C23 O15 1.252 . S
O24 In13 2.294 . S
O24 C17 1.240 . S
O25 In13 2.326 . S
O25 C17 1.252 . S
In26 O27 2.294 . S
In26 O28 2.326 . S
In26 O32 2.266 . S
In26 O33 2.326 . S
In26 O34 2.266 . S
In26 O35 2.326 . S
In26 O37 2.294 . S
In26 O38 2.326 . S
O27 In26 2.294 . S
O27 C36 1.240 . S
O28 In26 2.326 . S
O28 C36 1.252 . S
C29 O32 1.252 . S
C29 O33 1.260 . S
C30 O37 1.240 . S
C30 O38 1.252 . S
C31 O34 1.252 . S
C31 O35 1.260 . S
O32 In26 2.266 . S
O32 C29 1.252 . S
O33 In26 2.326 . S
O33 C29 1.260 . S
O34 In26 2.266 . S
O34 C31 1.252 . S
O35 In26 2.326 . S
O35 C31 1.260 . S
C36 O27 1.240 . S
C36 O28 1.252 . S
O37 In26 2.294 . S
O37 C30 1.240 . S
O38 In26 2.326 . S
O38 C30 1.252 . S
In39 O40 2.294 . S
In39 O41 2.326 . S
In39 O45 2.266 . S
In39 O46 2.326 . S
In39 O47 2.266 . S
In39 O48 2.326 . S
In39 O50 2.294 . S
In39 O51 2.326 . S
O40 In39 2.294 . S
O40 C49 1.240 . S
O41 In39 2.326 . S
O41 C49 1.252 . S
C42 O45 1.252 . S
C42 O46 1.260 . S
C43 O50 1.240 . S
C43 O51 1.252 . S
C44 O47 1.252 . S
C44 O48 1.260 . S
O45 In39 2.266 . S
O45 C42 1.252 . S
O46 In39 2.326 . S
O46 C42 1.260 . S
O47 In39 2.266 . S
O47 C44 1.252 . S
O48 In39 2.326 . S
O48 C44 1.260 . S
C49 O40 1.240 . S
C49 O41 1.252 . S
O50 In39 2.294 . S
O50 C43 1.240 . S
O51 In39 2.326 . S
O51 C43 1.252 . S
In52 O53 2.294 . S
In52 O54 2.326 . S
In52 O58 2.266 . S
In52 O59 2.326 . S
In52 O60 2.266 . S
In52 O61 2.326 . S
In52 O63 2.294 . S
In52 O64 2.326 . S
O53 In52 2.294 . S
O53 C62 1.240 . S
O54 In52 2.326 . S
O54 C62 1.252 . S
C55 O58 1.252 . S
C55 O59 1.260 . S
C56 O63 1.240 . S
C56 O64 1.252 . S
C57 O60 1.252 . S
C57 O61 1.260 . S
O58 In52 2.266 . S
O58 C55 1.252 . S
O59 In52 2.326 . S
O59 C55 1.260 . S
O60 In52 2.266 . S
O60 C57 1.252 . S
O61 In52 2.326 . S
O61 C57 1.260 . S
C62 O53 1.240 . S
C62 O54 1.252 . S
O63 In52 2.294 . S
O63 C56 1.240 . S
O64 In52 2.326 . S
O64 C56 1.252 . S
In65 O66 2.294 . S
In65 O67 2.326 . S
In65 O71 2.266 . S
In65 O72 2.326 . S
In65 O73 2.266 . S
In65 O74 2.326 . S
In65 O76 2.294 . S
In65 O77 2.326 . S
O66 In65 2.294 . S
O66 C75 1.240 . S
O67 In65 2.326 . S
O67 C75 1.252 . S
C68 O71 1.252 . S
C68 O72 1.260 . S
C69 O76 1.240 . S
C69 O77 1.252 . S
C70 O73 1.252 . S
C70 O74 1.260 . S
O71 In65 2.266 . S
O71 C68 1.252 . S
O72 In65 2.326 . S
O72 C68 1.260 . S
O73 In65 2.266 . S
O73 C70 1.252 . S
O74 In65 2.326 . S
O74 C70 1.260 . S
C75 O66 1.240 . S
C75 O67 1.252 . S
O76 In65 2.294 . S
O76 C69 1.240 . S
O77 In65 2.326 . S
O77 C69 1.252 . S
In78 O79 2.294 . S
In78 O80 2.326 . S
In78 O84 2.266 . S
In78 O85 2.326 . S
In78 O86 2.266 . S
In78 O87 2.326 . S
In78 O89 2.294 . S
In78 O90 2.326 . S
O79 In78 2.294 . S
O79 C88 1.240 . S
O80 In78 2.326 . S
O80 C88 1.252 . S
C81 O84 1.252 . S
C81 O85 1.260 . S
C82 O89 1.240 . S
C82 O90 1.252 . S
C83 O86 1.252 . S
C83 O87 1.260 . S
O84 In78 2.266 . S
O84 C81 1.252 . S
O85 In78 2.326 . S
O85 C81 1.260 . S
O86 In78 2.266 . S
O86 C83 1.252 . S
O87 In78 2.326 . S
O87 C83 1.260 . S
C88 O79 1.240 . S
C88 O80 1.252 . S
O89 In78 2.294 . S
O89 C82 1.240 . S
O90 In78 2.326 . S
O90 C82 1.252 . S
In91 O92 2.294 . S
In91 O93 2.326 . S
In91 O97 2.266 . S
In91 O98 2.326 . S
In91 O99 2.266 . S
In91 O100 2.326 . S
In91 O102 2.294 . S
In91 O103 2.326 . S
O92 In91 2.294 . S
O92 C101 1.240 . S
O93 In91 2.326 . S
O93 C101 1.252 . S
C94 O97 1.252 . S
C94 O98 1.260 . S
C95 O102 1.240 . S
C95 O103 1.252 . S
C96 O99 1.252 . S
C96 O100 1.260 . S
O97 In91 2.266 . S
O97 C94 1.252 . S
O98 In91 2.326 . S
O98 C94 1.260 . S
O99 In91 2.266 . S
O99 C96 1.252 . S
O100 In91 2.326 . S
O100 C96 1.260 . S
C101 O92 1.240 . S
C101 O93 1.252 . S
O102 In91 2.294 . S
O102 C95 1.240 . S
O103 In91 2.326 . S
O103 C95 1.252 . S
In104 O105 2.294 . S
In104 O106 2.326 . S
In104 O110 2.266 . S
In104 O111 2.326 . S
In104 O112 2.266 . S
In104 O113 2.326 . S
In104 O115 2.294 . S
In104 O116 2.326 . S
O105 In104 2.294 . S
O105 C114 1.240 . S
O106 In104 2.326 . S
O106 C114 1.252 . S
C107 O110 1.252 . S
C107 O111 1.260 . S
C108 O115 1.240 . S
C108 O116 1.252 . S
C109 O112 1.252 . S
C109 O113 1.260 . S
O110 In104 2.266 . S
O110 C107 1.252 . S
O111 In104 2.326 . S
O111 C107 1.260 . S
O112 In104 2.266 . S
O112 C109 1.252 . S
O113 In104 2.326 . S
O113 C109 1.260 . S
C114 O105 1.240 . S
C114 O106 1.252 . S
O115 In104 2.294 . S
O115 C108 1.240 . S
O116 In104 2.326 . S
O116 C108 1.252 . S
In117 O118 2.294 . S
In117 O119 2.326 . S
In117 O123 2.266 . S
In117 O124 2.326 . S
In117 O125 2.266 . S
In117 O126 2.326 . S
In117 O128 2.294 . S
In117 O129 2.326 . S
O118 In117 2.294 . S
O118 C127 1.240 . S
O119 In117 2.326 . S
O119 C127 1.252 . S
C120 O123 1.252 . S
C120 O124 1.260 . S
C121 O128 1.240 . S
C121 O129 1.252 . S
C122 O125 1.252 . S
C122 O126 1.260 . S
O123 In117 2.266 . S
O123 C120 1.252 . S
O124 In117 2.326 . S
O124 C120 1.260 . S
O125 In117 2.266 . S
O125 C122 1.252 . S
O126 In117 2.326 . S
O126 C122 1.260 . S
C127 O118 1.240 . S
C127 O119 1.252 . S
O128 In117 2.294 . S
O128 C121 1.240 . S
O129 In117 2.326 . S
O129 C121 1.252 . S
In130 O131 2.294 . S
In130 O132 2.326 . S
In130 O136 2.266 . S
In130 O137 2.326 . S
In130 O138 2.266 . S
In130 O139 2.326 . S
In130 O141 2.294 . S
In130 O142 2.326 . S
O131 In130 2.294 . S
O131 C140 1.240 . S
O132 In130 2.326 . S
O132 C140 1.252 . S
C133 O136 1.252 . S
C133 O137 1.260 . S
C134 O141 1.240 . S
C134 O142 1.252 . S
C135 O138 1.252 . S
C135 O139 1.260 . S
O136 In130 2.266 . S
O136 C133 1.252 . S
O137 In130 2.326 . S
O137 C133 1.260 . S
O138 In130 2.266 . S
O138 C135 1.252 . S
O139 In130 2.326 . S
O139 C135 1.260 . S
C140 O131 1.240 . S
C140 O132 1.252 . S
O141 In130 2.294 . S
O141 C134 1.240 . S
O142 In130 2.326 . S
O142 C134 1.252 . S
In143 O144 2.294 . S
In143 O145 2.326 . S
In143 O149 2.266 . S
In143 O150 2.326 . S
In143 O151 2.266 . S
In143 O152 2.326 . S
In143 O154 2.294 . S
In143 O155 2.326 . S
O144 In143 2.294 . S
O144 C153 1.240 . S
O145 In143 2.326 . S
O145 C153 1.252 . S
C146 O149 1.252 . S
C146 O150 1.260 . S
C147 O154 1.240 . S
C147 O155 1.252 . S
C148 O151 1.252 . S
C148 O152 1.260 . S
O149 In143 2.266 . S
O149 C146 1.252 . S
O150 In143 2.326 . S
O150 C146 1.260 . S
O151 In143 2.266 . S
O151 C148 1.252 . S
O152 In143 2.326 . S
O152 C148 1.260 . S
C153 O144 1.240 . S
C153 O145 1.252 . S
O154 In143 2.294 . S
O154 C147 1.240 . S
O155 In143 2.326 . S
O155 C147 1.252 . S
In156 O157 2.294 . S
In156 O158 2.326 . S
In156 O162 2.266 . S
In156 O163 2.326 . S
In156 O164 2.266 . S
In156 O165 2.326 . S
In156 O167 2.294 . S
In156 O168 2.326 . S
O157 In156 2.294 . S
O157 C166 1.240 . S
O158 In156 2.326 . S
O158 C166 1.252 . S
C159 O162 1.252 . S
C159 O163 1.260 . S
C160 O167 1.240 . S
C160 O168 1.252 . S
C161 O164 1.252 . S
C161 O165 1.260 . S
O162 In156 2.266 . S
O162 C159 1.252 . S
O163 In156 2.326 . S
O163 C159 1.260 . S
O164 In156 2.266 . S
O164 C161 1.252 . S
O165 In156 2.326 . S
O165 C161 1.260 . S
C166 O157 1.240 . S
C166 O158 1.252 . S
O167 In156 2.294 . S
O167 C160 1.240 . S
O168 In156 2.326 . S
O168 C160 1.252 . S
In169 O170 2.294 . S
In169 O171 2.326 . S
In169 O175 2.266 . S
In169 O176 2.326 . S
In169 O177 2.266 . S
In169 O178 2.326 . S
In169 O180 2.294 . S
In169 O181 2.326 . S
O170 In169 2.294 . S
O170 C179 1.240 . S
O171 In169 2.326 . S
O171 C179 1.252 . S
C172 O175 1.252 . S
C172 O176 1.260 . S
C173 O180 1.240 . S
C173 O181 1.252 . S
C174 O177 1.252 . S
C174 O178 1.260 . S
O175 In169 2.266 . S
O175 C172 1.252 . S
O176 In169 2.326 . S
O176 C172 1.260 . S
O177 In169 2.266 . S
O177 C174 1.252 . S
O178 In169 2.326 . S
O178 C174 1.260 . S
C179 O170 1.240 . S
C179 O171 1.252 . S
O180 In169 2.294 . S
O180 C173 1.240 . S
O181 In169 2.326 . S
O181 C173 1.252 . S
In182 O183 2.294 . S
In182 O184 2.326 . S
In182 O188 2.266 . S
In182 O189 2.326 . S
In182 O190 2.266 . S
In182 O191 2.326 . S
In182 O193 2.294 . S
In182 O194 2.326 . S
O183 In182 2.294 . S
O183 C192 1.240 . S
O184 In182 2.326 . S
O184 C192 1.252 . S
C185 O188 1.252 . S
C185 O189 1.260 . S
C186 O193 1.240 . S
C186 O194 1.252 . S
C187 O190 1.252 . S
C187 O191 1.260 . S
O188 In182 2.266 . S
O188 C185 1.252 . S
O189 In182 2.326 . S
O189 C185 1.260 . S
O190 In182 2.266 . S
O190 C187 1.252 . S
O191 In182 2.326 . S
O191 C187 1.260 . S
C192 O183 1.240 . S
C192 O184 1.252 . S
O193 In182 2.294 . S
O193 C186 1.240 . S
O194 In182 2.326 . S
O194 C186 1.252 . S
In195 O196 2.294 . S
In195 O197 2.326 . S
In195 O201 2.266 . S
In195 O202 2.326 . S
In195 O203 2.266 . S
In195 O204 2.326 . S
In195 O206 2.294 . S
In195 O207 2.326 . S
O196 In195 2.294 . S
O196 C205 1.240 . S
O197 In195 2.326 . S
O197 C205 1.252 . S
C198 O201 1.252 . S
C198 O202 1.260 . S
C199 O206 1.240 . S
C199 O207 1.252 . S
C200 O203 1.252 . S
C200 O204 1.260 . S
O201 In195 2.266 . S
O201 C198 1.252 . S
O202 In195 2.326 . S
O202 C198 1.260 . S
O203 In195 2.266 . S
O203 C200 1.252 . S
O204 In195 2.326 . S
O204 C200 1.260 . S
C205 O196 1.240 . S
C205 O197 1.252 . S
O206 In195 2.294 . S
O206 C199 1.240 . S
O207 In195 2.326 . S
O207 C199 1.252 . S
H208 C220 0.930 . S
H209 C222 0.930 . S
H210 C223 0.930 . S
H211 C227 0.959 . S
H212 C227 0.959 . S
H213 C227 0.961 . S
H214 C228 0.960 . S
H215 C228 0.961 . S
H216 C228 0.959 . S
H217 C231 0.929 . S
H218 C232 0.931 . S
H219 C234 0.930 . S
C220 H208 0.930 . S
C220 C221 1.399 . S
C220 C225 1.399 . S
C221 C220 1.399 . S
C221 C222 1.376 . S
C222 H209 0.930 . S
C222 C221 1.376 . S
C222 C223 1.388 . S
C223 H210 0.930 . S
C223 C222 1.388 . S
C223 C224 1.390 . S
C224 C223 1.390 . S
C224 C225 1.394 . S
C224 C230 1.465 . S
C225 C220 1.399 . S
C225 C224 1.394 . S
C225 C226 1.516 . S
C226 C225 1.516 . S
C226 C227 1.502 . S
C226 C228 1.561 . S
C226 C229 1.526 . S
C227 H211 0.959 . S
C227 H212 0.959 . S
C227 H213 0.961 . S
C227 C226 1.502 . S
C228 H214 0.960 . S
C228 H215 0.961 . S
C228 H216 0.959 . S
C228 C226 1.561 . S
C229 C226 1.526 . S
C229 C230 1.396 . S
C229 C234 1.390 . S
C230 C224 1.465 . S
C230 C229 1.396 . S
C230 C231 1.399 . S
C231 H217 0.929 . S
C231 C230 1.399 . S
C231 C232 1.385 . S
C232 H218 0.931 . S
C232 C231 1.385 . S
C232 C233 1.389 . S
C233 C232 1.389 . S
C233 C234 1.387 . S
C234 H219 0.930 . S
C234 C229 1.390 . S
C234 C233 1.387 . S
H235 C247 0.930 . S
H236 C249 0.930 . S
H237 C250 0.930 . S
H238 C254 0.959 . S
H239 C254 0.959 . S
H240 C254 0.961 . S
H241 C255 0.960 . S
H242 C255 0.961 . S
H243 C255 0.959 . S
H244 C258 0.929 . S
H245 C259 0.931 . S
H246 C261 0.930 . S
C247 H235 0.930 . S
C247 C248 1.399 . S
C247 C252 1.399 . S
C248 C247 1.399 . S
C248 C249 1.376 . S
C249 H236 0.930 . S
C249 C248 1.376 . S
C249 C250 1.388 . S
C250 H237 0.930 . S
C250 C249 1.388 . S
C250 C251 1.390 . S
C251 C250 1.390 . S
C251 C252 1.394 . S
C251 C257 1.465 . S
C252 C247 1.399 . S
C252 C251 1.394 . S
C252 C253 1.516 . S
C253 C252 1.516 . S
C253 C254 1.502 . S
C253 C255 1.561 . S
C253 C256 1.526 . S
C254 H238 0.959 . S
C254 H239 0.959 . S
C254 H240 0.961 . S
C254 C253 1.502 . S
C255 H241 0.960 . S
C255 H242 0.961 . S
C255 H243 0.959 . S
C255 C253 1.561 . S
C256 C253 1.526 . S
C256 C257 1.396 . S
C256 C261 1.390 . S
C257 C251 1.465 . S
C257 C256 1.396 . S
C257 C258 1.399 . S
C258 H244 0.929 . S
C258 C257 1.399 . S
C258 C259 1.385 . S
C259 H245 0.931 . S
C259 C258 1.385 . S
C259 C260 1.389 . S
C260 C259 1.389 . S
C260 C261 1.387 . S
C261 H246 0.930 . S
C261 C256 1.390 . S
C261 C260 1.387 . S
H262 C274 0.930 . S
H263 C276 0.930 . S
H264 C277 0.930 . S
H265 C281 0.959 . S
H266 C281 0.959 . S
H267 C281 0.961 . S
H268 C282 0.960 . S
H269 C282 0.961 . S
H270 C282 0.959 . S
H271 C285 0.929 . S
H272 C286 0.931 . S
H273 C288 0.930 . S
C274 H262 0.930 . S
C274 C275 1.399 . S
C274 C279 1.399 . S
C275 C274 1.399 . S
C275 C276 1.376 . S
C276 H263 0.930 . S
C276 C275 1.376 . S
C276 C277 1.388 . S
C277 H264 0.930 . S
C277 C276 1.388 . S
C277 C278 1.390 . S
C278 C277 1.390 . S
C278 C279 1.394 . S
C278 C284 1.465 . S
C279 C274 1.399 . S
C279 C278 1.394 . S
C279 C280 1.516 . S
C280 C279 1.516 . S
C280 C281 1.502 . S
C280 C282 1.561 . S
C280 C283 1.526 . S
C281 H265 0.959 . S
C281 H266 0.959 . S
C281 H267 0.961 . S
C281 C280 1.502 . S
C282 H268 0.960 . S
C282 H269 0.961 . S
C282 H270 0.959 . S
C282 C280 1.561 . S
C283 C280 1.526 . S
C283 C284 1.396 . S
C283 C288 1.390 . S
C284 C278 1.465 . S
C284 C283 1.396 . S
C284 C285 1.399 . S
C285 H271 0.929 . S
C285 C284 1.399 . S
C285 C286 1.385 . S
C286 H272 0.931 . S
C286 C285 1.385 . S
C286 C287 1.389 . S
C287 C286 1.389 . S
C287 C288 1.387 . S
C288 H273 0.930 . S
C288 C283 1.390 . S
C288 C287 1.387 . S
H289 C301 0.930 . S
H290 C303 0.930 . S
H291 C304 0.930 . S
H292 C308 0.963 . S
H293 C308 0.988 . S
H294 C308 0.930 1_455 S
H295 C309 0.956 1_455 S
H296 C309 0.965 . S
H297 C309 0.959 . S
H298 C312 0.929 . S
H299 C313 0.931 . S
H300 C315 0.930 . S
C301 H289 0.930 . S
C301 C302 1.399 . S
C301 C306 1.399 . S
C302 C301 1.399 . S
C302 C303 1.376 . S
C303 H290 0.930 . S
C303 C302 1.376 . S
C303 C304 1.388 . S
C304 H291 0.930 . S
C304 C303 1.388 . S
C304 C305 1.390 . S
C305 C304 1.390 . S
C305 C306 1.394 . S
C305 C311 1.465 1_455 S
C306 C301 1.399 . S
C306 C305 1.394 . S
C306 C307 1.512 1_455 S
C307 C306 1.512 1_655 S
C307 C308 1.501 . S
C307 C309 1.561 . S
C307 C310 1.530 . S
C308 H292 0.963 . S
C308 H293 0.988 . S
C308 H294 0.930 1_655 S
C308 C307 1.501 . S
C309 H295 0.956 1_655 S
C309 H296 0.965 . S
C309 H297 0.959 . S
C309 C307 1.561 . S
C310 C307 1.530 . S
C310 C311 1.396 . S
C310 C315 1.390 . S
C311 C305 1.465 1_655 S
C311 C310 1.396 . S
C311 C312 1.399 . S
C312 H298 0.929 . S
C312 C311 1.399 . S
C312 C313 1.385 . S
C313 H299 0.931 . S
C313 C312 1.385 . S
C313 C314 1.389 . S
C314 C313 1.389 . S
C314 C315 1.387 . S
C315 H300 0.930 . S
C315 C310 1.390 . S
C315 C314 1.387 . S
H316 C328 0.930 . S
H317 C330 0.930 . S
H318 C331 0.930 . S
H319 C335 0.959 . S
H320 C335 0.959 . S
H321 C335 0.961 . S
H322 C336 0.960 . S
H323 C336 0.961 . S
H324 C336 0.959 . S
H325 C339 0.929 . S
H326 C340 0.931 . S
H327 C342 0.930 . S
C328 H316 0.930 . S
C328 C329 1.399 . S
C328 C333 1.399 . S
C329 C328 1.399 . S
C329 C330 1.376 . S
C330 H317 0.930 . S
C330 C329 1.376 . S
C330 C331 1.388 . S
C331 H318 0.930 . S
C331 C330 1.388 . S
C331 C332 1.390 . S
C332 C331 1.390 . S
C332 C333 1.394 . S
C332 C338 1.465 . S
C333 C328 1.399 . S
C333 C332 1.394 . S
C333 C334 1.516 . S
C334 C333 1.516 . S
C334 C335 1.502 . S
C334 C336 1.561 . S
C334 C337 1.526 . S
C335 H319 0.959 . S
C335 H320 0.959 . S
C335 H321 0.961 . S
C335 C334 1.502 . S
C336 H322 0.960 . S
C336 H323 0.961 . S
C336 H324 0.959 . S
C336 C334 1.561 . S
C337 C334 1.526 . S
C337 C338 1.396 . S
C337 C342 1.390 . S
C338 C332 1.465 . S
C338 C337 1.396 . S
C338 C339 1.399 . S
C339 H325 0.929 . S
C339 C338 1.399 . S
C339 C340 1.385 . S
C340 H326 0.931 . S
C340 C339 1.385 . S
C340 C341 1.389 . S
C341 C340 1.389 . S
C341 C342 1.387 . S
C342 H327 0.930 . S
C342 C337 1.390 . S
C342 C341 1.387 . S
H343 C355 0.930 . S
H344 C357 0.930 . S
H345 C358 0.930 . S
H346 C362 0.961 . S
H347 C362 0.972 . S
H348 C362 0.947 1_655 S
H349 C363 0.961 1_655 S
H350 C363 0.960 . S
H351 C363 0.959 . S
H352 C366 0.929 . S
H353 C367 0.931 . S
H354 C369 0.930 . S
C355 H343 0.930 . S
C355 C356 1.399 . S
C355 C360 1.399 . S
C356 C355 1.399 . S
C356 C357 1.376 . S
C357 H344 0.930 . S
C357 C356 1.376 . S
C357 C358 1.388 . S
C358 H345 0.930 . S
C358 C357 1.388 . S
C358 C359 1.390 . S
C359 C358 1.390 . S
C359 C360 1.394 . S
C359 C365 1.465 1_655 S
C360 C355 1.399 . S
C360 C359 1.394 . S
C360 C361 1.516 . S
C361 C360 1.516 . S
C361 C362 1.502 1_655 S
C361 C363 1.561 1_655 S
C361 C364 1.526 1_655 S
C362 H346 0.961 . S
C362 H347 0.972 . S
C362 H348 0.947 1_455 S
C362 C361 1.502 1_455 S
C363 H349 0.961 1_455 S
C363 H350 0.960 . S
C363 H351 0.959 . S
C363 C361 1.561 1_455 S
C364 C361 1.526 1_455 S
C364 C365 1.396 . S
C364 C369 1.390 . S
C365 C359 1.465 1_455 S
C365 C364 1.396 . S
C365 C366 1.399 . S
C366 H352 0.929 . S
C366 C365 1.399 . S
C366 C367 1.385 . S
C367 H353 0.931 . S
C367 C366 1.385 . S
C367 C368 1.389 . S
C368 C367 1.389 . S
C368 C369 1.387 . S
C369 H354 0.930 . S
C369 C364 1.390 . S
C369 C368 1.387 . S
H370 C382 0.930 . S
H371 C384 0.930 . S
H372 C385 0.930 . S
H373 C389 0.959 . S
H374 C389 0.959 . S
H375 C389 0.961 . S
H376 C390 0.960 . S
H377 C390 0.961 . S
H378 C390 0.959 . S
H379 C393 0.929 . S
H380 C394 0.931 . S
H381 C396 0.930 . S
C382 H370 0.930 . S
C382 C383 1.399 . S
C382 C387 1.399 . S
C383 C382 1.399 . S
C383 C384 1.376 . S
C384 H371 0.930 . S
C384 C383 1.376 . S
C384 C385 1.388 . S
C385 H372 0.930 . S
C385 C384 1.388 . S
C385 C386 1.390 . S
C386 C385 1.390 . S
C386 C387 1.394 . S
C386 C392 1.465 . S
C387 C382 1.399 . S
C387 C386 1.394 . S
C387 C388 1.516 . S
C388 C387 1.516 . S
C388 C389 1.502 . S
C388 C390 1.561 . S
C388 C391 1.526 . S
C389 H373 0.959 . S
C389 H374 0.959 . S
C389 H375 0.961 . S
C389 C388 1.502 . S
C390 H376 0.960 . S
C390 H377 0.961 . S
C390 H378 0.959 . S
C390 C388 1.561 . S
C391 C388 1.526 . S
C391 C392 1.396 . S
C391 C396 1.390 . S
C392 C386 1.465 . S
C392 C391 1.396 . S
C392 C393 1.399 . S
C393 H379 0.929 . S
C393 C392 1.399 . S
C393 C394 1.385 . S
C394 H380 0.931 . S
C394 C393 1.385 . S
C394 C395 1.389 . S
C395 C394 1.389 . S
C395 C396 1.387 . S
C396 H381 0.930 . S
C396 C391 1.390 . S
C396 C395 1.387 . S
H397 C409 0.930 . S
H398 C411 0.930 . S
H399 C412 0.930 . S
H400 C416 0.959 . S
H401 C416 0.959 . S
H402 C416 0.961 . S
H403 C417 0.960 . S
H404 C417 0.961 . S
H405 C417 0.959 . S
H406 C420 0.929 . S
H407 C421 0.931 . S
H408 C423 0.930 . S
C409 H397 0.930 . S
C409 C410 1.399 . S
C409 C414 1.399 . S
C410 C409 1.399 . S
C410 C411 1.376 . S
C411 H398 0.930 . S
C411 C410 1.376 . S
C411 C412 1.388 . S
C412 H399 0.930 . S
C412 C411 1.388 . S
C412 C413 1.390 . S
C413 C412 1.390 . S
C413 C414 1.394 . S
C413 C419 1.465 . S
C414 C409 1.399 . S
C414 C413 1.394 . S
C414 C415 1.516 . S
C415 C414 1.516 . S
C415 C416 1.502 . S
C415 C417 1.561 . S
C415 C418 1.526 . S
C416 H400 0.959 . S
C416 H401 0.959 . S
C416 H402 0.961 . S
C416 C415 1.502 . S
C417 H403 0.960 . S
C417 H404 0.961 . S
C417 H405 0.959 . S
C417 C415 1.561 . S
C418 C415 1.526 . S
C418 C419 1.396 . S
C418 C423 1.390 . S
C419 C413 1.465 . S
C419 C418 1.396 . S
C419 C420 1.399 . S
C420 H406 0.929 . S
C420 C419 1.399 . S
C420 C421 1.385 . S
C421 H407 0.931 . S
C421 C420 1.385 . S
C421 C422 1.389 . S
C422 C421 1.389 . S
C422 C423 1.387 . S
C423 H408 0.930 . S
C423 C418 1.390 . S
C423 C422 1.387 . S
H424 C436 0.930 . S
H425 C438 0.930 . S
H426 C439 0.930 . S
H427 C443 0.959 . S
H428 C443 0.959 . S
H429 C443 0.961 . S
H430 C444 0.960 . S
H431 C444 0.961 . S
H432 C444 0.959 . S
H433 C447 0.929 . S
H434 C448 0.931 . S
H435 C450 0.930 . S
C436 H424 0.930 . S
C436 C437 1.399 . S
C436 C441 1.399 . S
C437 C436 1.399 . S
C437 C438 1.376 . S
C438 H425 0.930 . S
C438 C437 1.376 . S
C438 C439 1.388 . S
C439 H426 0.930 . S
C439 C438 1.388 . S
C439 C440 1.390 . S
C440 C439 1.390 . S
C440 C441 1.394 . S
C440 C446 1.465 . S
C441 C436 1.399 . S
C441 C440 1.394 . S
C441 C442 1.516 . S
C442 C441 1.516 . S
C442 C443 1.502 . S
C442 C444 1.561 . S
C442 C445 1.526 . S
C443 H427 0.959 . S
C443 H428 0.959 . S
C443 H429 0.961 . S
C443 C442 1.502 . S
C444 H430 0.960 . S
C444 H431 0.961 . S
C444 H432 0.959 . S
C444 C442 1.561 . S
C445 C442 1.526 . S
C445 C446 1.396 . S
C445 C450 1.390 . S
C446 C440 1.465 . S
C446 C445 1.396 . S
C446 C447 1.399 . S
C447 H433 0.929 . S
C447 C446 1.399 . S
C447 C448 1.385 . S
C448 H434 0.931 . S
C448 C447 1.385 . S
C448 C449 1.389 . S
C449 C448 1.389 . S
C449 C450 1.387 . S
C450 H435 0.930 . S
C450 C445 1.390 . S
C450 C449 1.387 . S
H451 C463 0.930 . S
H452 C465 0.930 . S
H453 C466 0.930 . S
H454 C470 0.959 . S
H455 C470 0.959 . S
H456 C470 0.961 . S
H457 C471 0.960 . S
H458 C471 0.961 . S
H459 C471 0.959 . S
H460 C474 0.929 . S
H461 C475 0.931 . S
H462 C477 0.930 . S
C463 H451 0.930 . S
C463 C464 1.399 . S
C463 C468 1.399 . S
C464 C463 1.399 . S
C464 C465 1.376 . S
C465 H452 0.930 . S
C465 C464 1.376 . S
C465 C466 1.388 . S
C466 H453 0.930 . S
C466 C465 1.388 . S
C466 C467 1.390 . S
C467 C466 1.390 . S
C467 C468 1.394 . S
C467 C473 1.465 . S
C468 C463 1.399 . S
C468 C467 1.394 . S
C468 C469 1.516 . S
C469 C468 1.516 . S
C469 C470 1.502 . S
C469 C471 1.561 . S
C469 C472 1.526 . S
C470 H454 0.959 . S
C470 H455 0.959 . S
C470 H456 0.961 . S
C470 C469 1.502 . S
C471 H457 0.960 . S
C471 H458 0.961 . S
C471 H459 0.959 . S
C471 C469 1.561 . S
C472 C469 1.526 . S
C472 C473 1.396 . S
C472 C477 1.390 . S
C473 C467 1.465 . S
C473 C472 1.396 . S
C473 C474 1.399 . S
C474 H460 0.929 . S
C474 C473 1.399 . S
C474 C475 1.385 . S
C475 H461 0.931 . S
C475 C474 1.385 . S
C475 C476 1.389 . S
C476 C475 1.389 . S
C476 C477 1.387 . S
C477 H462 0.930 . S
C477 C472 1.390 . S
C477 C476 1.387 . S
H478 C490 0.930 . S
H479 C492 0.930 . S
H480 C493 0.930 . S
H481 C497 0.959 . S
H482 C497 0.959 . S
H483 C497 0.961 . S
H484 C498 0.960 . S
H485 C498 0.961 . S
H486 C498 0.959 . S
H487 C501 0.929 . S
H488 C502 0.931 . S
H489 C504 0.930 . S
C490 H478 0.930 . S
C490 C491 1.399 . S
C490 C495 1.399 . S
C491 C490 1.399 . S
C491 C492 1.376 . S
C492 H479 0.930 . S
C492 C491 1.376 . S
C492 C493 1.388 . S
C493 H480 0.930 . S
C493 C492 1.388 . S
C493 C494 1.390 . S
C494 C493 1.390 . S
C494 C495 1.394 . S
C494 C500 1.465 . S
C495 C490 1.399 . S
C495 C494 1.394 . S
C495 C496 1.516 . S
C496 C495 1.516 . S
C496 C497 1.502 . S
C496 C498 1.561 . S
C496 C499 1.526 . S
C497 H481 0.959 . S
C497 H482 0.959 . S
C497 H483 0.961 . S
C497 C496 1.502 . S
C498 H484 0.960 . S
C498 H485 0.961 . S
C498 H486 0.959 . S
C498 C496 1.561 . S
C499 C496 1.526 . S
C499 C500 1.396 . S
C499 C504 1.390 . S
C500 C494 1.465 . S
C500 C499 1.396 . S
C500 C501 1.399 . S
C501 H487 0.929 . S
C501 C500 1.399 . S
C501 C502 1.385 . S
C502 H488 0.931 . S
C502 C501 1.385 . S
C502 C503 1.389 . S
C503 C502 1.389 . S
C503 C504 1.387 . S
C504 H489 0.930 . S
C504 C499 1.390 . S
C504 C503 1.387 . S
H505 C517 0.930 . S
H506 C519 0.930 . S
H507 C520 0.930 . S
H508 C524 0.959 . S
H509 C524 0.959 . S
H510 C524 0.961 . S
H511 C525 0.960 . S
H512 C525 0.961 . S
H513 C525 0.959 . S
H514 C528 0.929 . S
H515 C529 0.931 . S
H516 C531 0.930 . S
C517 H505 0.930 . S
C517 C518 1.399 . S
C517 C522 1.399 . S
C518 C517 1.399 . S
C518 C519 1.376 . S
C519 H506 0.930 . S
C519 C518 1.376 . S
C519 C520 1.388 . S
C520 H507 0.930 . S
C520 C519 1.388 . S
C520 C521 1.390 . S
C521 C520 1.390 . S
C521 C522 1.394 . S
C521 C527 1.465 . S
C522 C517 1.399 . S
C522 C521 1.394 . S
C522 C523 1.516 . S
C523 C522 1.516 . S
C523 C524 1.502 . S
C523 C525 1.561 . S
C523 C526 1.526 . S
C524 H508 0.959 . S
C524 H509 0.959 . S
C524 H510 0.961 . S
C524 C523 1.502 . S
C525 H511 0.960 . S
C525 H512 0.961 . S
C525 H513 0.959 . S
C525 C523 1.561 . S
C526 C523 1.526 . S
C526 C527 1.396 . S
C526 C531 1.390 . S
C527 C521 1.465 . S
C527 C526 1.396 . S
C527 C528 1.399 . S
C528 H514 0.929 . S
C528 C527 1.399 . S
C528 C529 1.385 . S
C529 H515 0.931 . S
C529 C528 1.385 . S
C529 C530 1.389 . S
C530 C529 1.389 . S
C530 C531 1.387 . S
C531 H516 0.930 . S
C531 C526 1.390 . S
C531 C530 1.387 . S
H532 C544 0.930 . S
H533 C546 0.930 . S
H534 C547 0.930 . S
H535 C551 0.960 . S
H536 C551 0.966 . S
H537 C551 0.954 1_455 S
H538 C552 0.962 . S
H539 C552 0.959 1_655 S
H540 C552 0.959 1_655 S
H541 C555 0.929 . S
H542 C556 0.931 . S
H543 C558 0.930 . S
C544 H532 0.930 . S
C544 C545 1.399 . S
C544 C549 1.399 . S
C545 C544 1.399 . S
C545 C546 1.376 . S
C546 H533 0.930 . S
C546 C545 1.376 . S
C546 C547 1.388 . S
C547 H534 0.930 . S
C547 C546 1.388 . S
C547 C548 1.390 . S
C548 C547 1.390 . S
C548 C549 1.394 . S
C548 C554 1.465 1_455 S
C549 C544 1.399 . S
C549 C548 1.394 . S
C549 C550 1.524 . S
C550 C549 1.524 . S
C550 C551 1.502 1_455 S
C550 C552 1.561 . S
C550 C553 1.518 1_455 S
C551 H535 0.960 . S
C551 H536 0.966 . S
C551 H537 0.954 1_655 S
C551 C550 1.502 1_655 S
C552 H538 0.962 . S
C552 H539 0.959 1_455 S
C552 H540 0.959 1_455 S
C552 C550 1.561 . S
C553 C550 1.518 1_655 S
C553 C554 1.396 . S
C553 C558 1.390 . S
C554 C548 1.465 1_655 S
C554 C553 1.396 . S
C554 C555 1.399 . S
C555 H541 0.929 . S
C555 C554 1.399 . S
C555 C556 1.385 . S
C556 H542 0.931 . S
C556 C555 1.385 . S
C556 C557 1.389 . S
C557 C556 1.389 . S
C557 C558 1.387 . S
C558 H543 0.930 . S
C558 C553 1.390 . S
C558 C557 1.387 . S
H559 C571 0.930 . S
H560 C573 0.930 . S
H561 C574 0.930 . S
H562 C578 0.959 . S
H563 C578 0.959 . S
H564 C578 0.961 . S
H565 C579 0.960 . S
H566 C579 0.961 . S
H567 C579 0.959 . S
H568 C582 0.929 . S
H569 C583 0.931 . S
H570 C585 0.930 . S
C571 H559 0.930 . S
C571 C572 1.399 . S
C571 C576 1.399 . S
C572 C571 1.399 . S
C572 C573 1.376 . S
C573 H560 0.930 . S
C573 C572 1.376 . S
C573 C574 1.388 . S
C574 H561 0.930 . S
C574 C573 1.388 . S
C574 C575 1.390 . S
C575 C574 1.390 . S
C575 C576 1.394 . S
C575 C581 1.465 . S
C576 C571 1.399 . S
C576 C575 1.394 . S
C576 C577 1.516 . S
C577 C576 1.516 . S
C577 C578 1.502 . S
C577 C579 1.561 . S
C577 C580 1.526 . S
C578 H562 0.959 . S
C578 H563 0.959 . S
C578 H564 0.961 . S
C578 C577 1.502 . S
C579 H565 0.960 . S
C579 H566 0.961 . S
C579 H567 0.959 . S
C579 C577 1.561 . S
C580 C577 1.526 . S
C580 C581 1.396 . S
C580 C585 1.390 . S
C581 C575 1.465 . S
C581 C580 1.396 . S
C581 C582 1.399 . S
C582 H568 0.929 . S
C582 C581 1.399 . S
C582 C583 1.385 . S
C583 H569 0.931 . S
C583 C582 1.385 . S
C583 C584 1.389 . S
C584 C583 1.389 . S
C584 C585 1.387 . S
C585 H570 0.930 . S
C585 C580 1.390 . S
C585 C584 1.387 . S
H586 C598 0.930 . S
H587 C600 0.930 . S
H588 C601 0.930 . S
H589 C605 0.959 . S
H590 C605 0.959 . S
H591 C605 0.961 . S
H592 C606 0.960 . S
H593 C606 0.961 . S
H594 C606 0.959 . S
H595 C609 0.929 . S
H596 C610 0.931 . S
H597 C612 0.930 . S
C598 H586 0.930 . S
C598 C599 1.399 . S
C598 C603 1.399 . S
C599 C598 1.399 . S
C599 C600 1.376 . S
C600 H587 0.930 . S
C600 C599 1.376 . S
C600 C601 1.388 . S
C601 H588 0.930 . S
C601 C600 1.388 . S
C601 C602 1.390 . S
C602 C601 1.390 . S
C602 C603 1.394 . S
C602 C608 1.465 . S
C603 C598 1.399 . S
C603 C602 1.394 . S
C603 C604 1.516 . S
C604 C603 1.516 . S
C604 C605 1.502 . S
C604 C606 1.561 . S
C604 C607 1.526 . S
C605 H589 0.959 . S
C605 H590 0.959 . S
C605 H591 0.961 . S
C605 C604 1.502 . S
C606 H592 0.960 . S
C606 H593 0.961 . S
C606 H594 0.959 . S
C606 C604 1.561 . S
C607 C604 1.526 . S
C607 C608 1.396 . S
C607 C612 1.390 . S
C608 C602 1.465 . S
C608 C607 1.396 . S
C608 C609 1.399 . S
C609 H595 0.929 . S
C609 C608 1.399 . S
C609 C610 1.385 . S
C610 H596 0.931 . S
C610 C609 1.385 . S
C610 C611 1.389 . S
C611 C610 1.389 . S
C611 C612 1.387 . S
C612 H597 0.930 . S
C612 C607 1.390 . S
C612 C611 1.387 . S
H613 C625 0.930 . S
H614 C627 0.930 . S
H615 C628 0.930 . S
H616 C632 0.963 . S
H617 C632 0.986 . S
H618 C632 0.932 1_455 S
H619 C633 0.957 1_455 S
H620 C633 0.963 . S
H621 C633 0.959 . S
H622 C636 0.929 . S
H623 C637 0.931 . S
H624 C639 0.930 . S
C625 H613 0.930 . S
C625 C626 1.399 . S
C625 C630 1.399 . S
C626 C625 1.399 . S
C626 C627 1.376 . S
C627 H614 0.930 . S
C627 C626 1.376 . S
C627 C628 1.388 . S
C628 H615 0.930 . S
C628 C627 1.388 . S
C628 C629 1.390 . S
C629 C628 1.390 . S
C629 C630 1.394 . S
C629 C635 1.465 1_455 S
C630 C625 1.399 . S
C630 C629 1.394 . S
C630 C631 1.513 1_455 S
C631 C630 1.513 1_655 S
C631 C632 1.501 . S
C631 C633 1.561 . S
C631 C634 1.529 . S
C632 H616 0.963 . S
C632 H617 0.986 . S
C632 H618 0.932 1_655 S
C632 C631 1.501 . S
C633 H619 0.957 1_655 S
C633 H620 0.963 . S
C633 H621 0.959 . S
C633 C631 1.561 . S
C634 C631 1.529 . S
C634 C635 1.396 . S
C634 C639 1.390 . S
C635 C629 1.465 1_655 S
C635 C634 1.396 . S
C635 C636 1.399 . S
C636 H622 0.929 . S
C636 C635 1.399 . S
C636 C637 1.385 . S
C637 H623 0.931 . S
C637 C636 1.385 . S
C637 C638 1.389 . S
C638 C637 1.389 . S
C638 C639 1.387 . S
C639 H624 0.930 . S
C639 C634 1.390 . S
C639 C638 1.387 . S
H640 C652 0.930 . S
H641 C654 0.930 . S
H642 C655 0.951 . S
H643 C659 0.959 . S
H644 C659 0.959 . S
H645 C659 0.961 . S
H646 C660 0.960 . S
H647 C660 0.961 . S
H648 C660 0.959 . S
H649 C663 0.929 . S
H650 C664 0.931 . S
H651 C666 0.930 . S
C652 H640 0.930 . S
C652 C653 1.399 . S
C652 C657 1.399 . S
C653 C652 1.399 . S
C653 C654 1.376 . S
C654 H641 0.930 . S
C654 C653 1.376 . S
C654 C655 1.369 1_554 S
C655 H642 0.951 . S
C655 C654 1.369 1_556 S
C655 C656 1.388 1_556 S
C656 C655 1.388 1_554 S
C656 C657 1.394 . S
C656 C662 1.465 1_554 S
C657 C652 1.399 . S
C657 C656 1.394 . S
C657 C658 1.516 . S
C658 C657 1.516 . S
C658 C659 1.502 . S
C658 C660 1.561 . S
C658 C661 1.526 1_554 S
C659 H643 0.959 . S
C659 H644 0.959 . S
C659 H645 0.961 . S
C659 C658 1.502 . S
C660 H646 0.960 . S
C660 H647 0.961 . S
C660 H648 0.959 . S
C660 C658 1.561 . S
C661 C658 1.526 1_556 S
C661 C662 1.396 . S
C661 C666 1.390 . S
C662 C656 1.465 1_556 S
C662 C661 1.396 . S
C662 C663 1.399 . S
C663 H649 0.929 . S
C663 C662 1.399 . S
C663 C664 1.385 . S
C664 H650 0.931 . S
C664 C663 1.385 . S
C664 C665 1.389 . S
C665 C664 1.389 . S
C665 C666 1.387 . S
C666 H651 0.930 . S
C666 C661 1.390 . S
C666 C665 1.387 . S
H667 C679 0.930 . S
H668 C681 0.930 . S
H669 C682 0.930 . S
H670 C686 0.959 . S
H671 C686 0.959 . S
H672 C686 0.961 . S
H673 C687 0.960 . S
H674 C687 0.961 . S
H675 C687 0.959 . S
H676 C690 0.929 . S
H677 C691 0.931 . S
H678 C693 0.930 . S
C679 H667 0.930 . S
C679 C680 1.399 . S
C679 C684 1.399 . S
C680 C679 1.399 . S
C680 C681 1.376 . S
C681 H668 0.930 . S
C681 C680 1.376 . S
C681 C682 1.388 . S
C682 H669 0.930 . S
C682 C681 1.388 . S
C682 C683 1.390 . S
C683 C682 1.390 . S
C683 C684 1.394 . S
C683 C689 1.465 . S
C684 C679 1.399 . S
C684 C683 1.394 . S
C684 C685 1.516 . S
C685 C684 1.516 . S
C685 C686 1.502 . S
C685 C687 1.561 . S
C685 C688 1.526 . S
C686 H670 0.959 . S
C686 H671 0.959 . S
C686 H672 0.961 . S
C686 C685 1.502 . S
C687 H673 0.960 . S
C687 H674 0.961 . S
C687 H675 0.959 . S
C687 C685 1.561 . S
C688 C685 1.526 . S
C688 C689 1.396 . S
C688 C693 1.390 . S
C689 C683 1.465 . S
C689 C688 1.396 . S
C689 C690 1.399 . S
C690 H676 0.929 . S
C690 C689 1.399 . S
C690 C691 1.385 . S
C691 H677 0.931 . S
C691 C690 1.385 . S
C691 C692 1.389 . S
C692 C691 1.389 . S
C692 C693 1.387 . S
C693 H678 0.930 . S
C693 C688 1.390 . S
C693 C692 1.387 . S
H694 C706 0.930 . S
H695 C708 0.930 . S
H696 C709 0.930 . S
H697 C713 0.959 . S
H698 C713 0.959 . S
H699 C713 0.961 . S
H700 C714 0.960 . S
H701 C714 0.961 . S
H702 C714 0.959 . S
H703 C717 0.929 . S
H704 C718 0.931 . S
H705 C720 0.930 . S
C706 H694 0.930 . S
C706 C707 1.399 . S
C706 C711 1.399 . S
C707 C706 1.399 . S
C707 C708 1.376 . S
C708 H695 0.930 . S
C708 C707 1.376 . S
C708 C709 1.388 . S
C709 H696 0.930 . S
C709 C708 1.388 . S
C709 C710 1.390 . S
C710 C709 1.390 . S
C710 C711 1.394 . S
C710 C716 1.465 . S
C711 C706 1.399 . S
C711 C710 1.394 . S
C711 C712 1.516 . S
C712 C711 1.516 . S
C712 C713 1.502 . S
C712 C714 1.561 . S
C712 C715 1.526 . S
C713 H697 0.959 . S
C713 H698 0.959 . S
C713 H699 0.961 . S
C713 C712 1.502 . S
C714 H700 0.960 . S
C714 H701 0.961 . S
C714 H702 0.959 . S
C714 C712 1.561 . S
C715 C712 1.526 . S
C715 C716 1.396 . S
C715 C720 1.390 . S
C716 C710 1.465 . S
C716 C715 1.396 . S
C716 C717 1.399 . S
C717 H703 0.929 . S
C717 C716 1.399 . S
C717 C718 1.385 . S
C718 H704 0.931 . S
C718 C717 1.385 . S
C718 C719 1.389 . S
C719 C718 1.389 . S
C719 C720 1.387 . S
C720 H705 0.930 . S
C720 C715 1.390 . S
C720 C719 1.387 . S
H721 C733 0.930 . S
H722 C735 0.930 . S
H723 C736 0.930 . S
H724 C740 0.959 . S
H725 C740 0.959 . S
H726 C740 0.961 . S
H727 C741 0.960 . S
H728 C741 0.961 . S
H729 C741 0.959 . S
H730 C744 0.929 . S
H731 C745 0.931 . S
H732 C747 0.930 . S
C733 H721 0.930 . S
C733 C734 1.399 . S
C733 C738 1.399 . S
C734 C733 1.399 . S
C734 C735 1.376 . S
C735 H722 0.930 . S
C735 C734 1.376 . S
C735 C736 1.388 . S
C736 H723 0.930 . S
C736 C735 1.388 . S
C736 C737 1.390 . S
C737 C736 1.390 . S
C737 C738 1.394 . S
C737 C743 1.465 . S
C738 C733 1.399 . S
C738 C737 1.394 . S
C738 C739 1.516 . S
C739 C738 1.516 . S
C739 C740 1.502 . S
C739 C741 1.561 . S
C739 C742 1.526 . S
C740 H724 0.959 . S
C740 H725 0.959 . S
C740 H726 0.961 . S
C740 C739 1.502 . S
C741 H727 0.960 . S
C741 H728 0.961 . S
C741 H729 0.959 . S
C741 C739 1.561 . S
C742 C739 1.526 . S
C742 C743 1.396 . S
C742 C747 1.390 . S
C743 C737 1.465 . S
C743 C742 1.396 . S
C743 C744 1.399 . S
C744 H730 0.929 . S
C744 C743 1.399 . S
C744 C745 1.385 . S
C745 H731 0.931 . S
C745 C744 1.385 . S
C745 C746 1.389 . S
C746 C745 1.389 . S
C746 C747 1.387 . S
C747 H732 0.930 . S
C747 C742 1.390 . S
C747 C746 1.387 . S
H748 C760 0.930 . S
H749 C762 0.930 . S
H750 C763 0.930 . S
H751 C767 0.959 . S
H752 C767 0.959 . S
H753 C767 0.961 . S
H754 C768 0.960 . S
H755 C768 0.961 . S
H756 C768 0.959 . S
H757 C771 0.929 . S
H758 C772 0.931 . S
H759 C774 0.930 . S
C760 H748 0.930 . S
C760 C761 1.399 . S
C760 C765 1.399 . S
C761 C760 1.399 . S
C761 C762 1.376 . S
C762 H749 0.930 . S
C762 C761 1.376 . S
C762 C763 1.388 1_556 S
C763 H750 0.930 . S
C763 C762 1.388 1_554 S
C763 C764 1.390 . S
C764 C763 1.390 . S
C764 C765 1.394 1_554 S
C764 C770 1.465 . S
C765 C760 1.399 . S
C765 C764 1.394 1_556 S
C765 C766 1.516 . S
C766 C765 1.516 . S
C766 C767 1.502 . S
C766 C768 1.561 . S
C766 C769 1.526 1_556 S
C767 H751 0.959 . S
C767 H752 0.959 . S
C767 H753 0.961 . S
C767 C766 1.502 . S
C768 H754 0.960 . S
C768 H755 0.961 . S
C768 H756 0.959 . S
C768 C766 1.561 . S
C769 C766 1.526 1_554 S
C769 C770 1.396 . S
C769 C774 1.390 . S
C770 C764 1.465 . S
C770 C769 1.396 . S
C770 C771 1.399 . S
C771 H757 0.929 . S
C771 C770 1.399 . S
C771 C772 1.385 . S
C772 H758 0.931 . S
C772 C771 1.385 . S
C772 C773 1.389 . S
C773 C772 1.389 . S
C773 C774 1.387 . S
C774 H759 0.930 . S
C774 C769 1.390 . S
C774 C773 1.387 . S
H775 C787 0.930 . S
H776 C789 0.930 . S
H777 C790 0.930 . S
H778 C794 0.959 . S
H779 C794 0.959 . S
H780 C794 0.961 . S
H781 C795 0.960 . S
H782 C795 0.961 . S
H783 C795 0.959 . S
H784 C798 0.929 . S
H785 C799 0.931 . S
H786 C801 0.930 . S
C787 H775 0.930 . S
C787 C788 1.399 . S
C787 C792 1.399 . S
C788 C787 1.399 . S
C788 C789 1.376 . S
C789 H776 0.930 . S
C789 C788 1.376 . S
C789 C790 1.388 . S
C790 H777 0.930 . S
C790 C789 1.388 . S
C790 C791 1.390 . S
C791 C790 1.390 . S
C791 C792 1.394 . S
C791 C797 1.465 . S
C792 C787 1.399 . S
C792 C791 1.394 . S
C792 C793 1.516 . S
C793 C792 1.516 . S
C793 C794 1.502 . S
C793 C795 1.561 . S
C793 C796 1.526 . S
C794 H778 0.959 . S
C794 H779 0.959 . S
C794 H780 0.961 . S
C794 C793 1.502 . S
C795 H781 0.960 . S
C795 H782 0.961 . S
C795 H783 0.959 . S
C795 C793 1.561 . S
C796 C793 1.526 . S
C796 C797 1.396 . S
C796 C801 1.390 . S
C797 C791 1.465 . S
C797 C796 1.396 . S
C797 C798 1.399 . S
C798 H784 0.929 . S
C798 C797 1.399 . S
C798 C799 1.385 . S
C799 H785 0.931 . S
C799 C798 1.385 . S
C799 C800 1.389 . S
C800 C799 1.389 . S
C800 C801 1.387 . S
C801 H786 0.930 . S
C801 C796 1.390 . S
C801 C800 1.387 . S
H802 C814 0.930 . S
H803 C816 0.930 . S
H804 C817 0.930 . S
H805 C821 0.959 . S
H806 C821 0.959 . S
H807 C821 0.961 . S
H808 C822 0.960 . S
H809 C822 0.961 . S
H810 C822 0.959 . S
H811 C825 0.929 . S
H812 C826 0.931 . S
H813 C828 0.930 . S
C814 H802 0.930 . S
C814 C815 1.399 . S
C814 C819 1.399 . S
C815 C814 1.399 . S
C815 C816 1.376 . S
C816 H803 0.930 . S
C816 C815 1.376 . S
C816 C817 1.388 . S
C817 H804 0.930 . S
C817 C816 1.388 . S
C817 C818 1.390 . S
C818 C817 1.390 . S
C818 C819 1.394 . S
C818 C824 1.465 . S
C819 C814 1.399 . S
C819 C818 1.394 . S
C819 C820 1.516 . S
C820 C819 1.516 . S
C820 C821 1.502 . S
C820 C822 1.561 . S
C820 C823 1.526 . S
C821 H805 0.959 . S
C821 H806 0.959 . S
C821 H807 0.961 . S
C821 C820 1.502 . S
C822 H808 0.960 . S
C822 H809 0.961 . S
C822 H810 0.959 . S
C822 C820 1.561 . S
C823 C820 1.526 . S
C823 C824 1.396 . S
C823 C828 1.390 . S
C824 C818 1.465 . S
C824 C823 1.396 . S
C824 C825 1.399 . S
C825 H811 0.929 . S
C825 C824 1.399 . S
C825 C826 1.385 . S
C826 H812 0.931 . S
C826 C825 1.385 . S
C826 C827 1.389 . S
C827 C826 1.389 . S
C827 C828 1.387 . S
C828 H813 0.930 . S
C828 C823 1.390 . S
C828 C827 1.387 . S
H829 C841 0.930 . S
H830 C843 0.930 . S
H831 C844 0.930 . S
H832 C848 0.959 . S
H833 C848 0.959 . S
H834 C848 0.961 . S
H835 C849 0.960 . S
H836 C849 0.961 . S
H837 C849 0.959 . S
H838 C852 0.929 . S
H839 C853 0.931 . S
H840 C855 0.930 . S
C841 H829 0.930 . S
C841 C842 1.399 . S
C841 C846 1.399 . S
C842 C841 1.399 . S
C842 C843 1.376 . S
C843 H830 0.930 . S
C843 C842 1.376 . S
C843 C844 1.388 . S
C844 H831 0.930 . S
C844 C843 1.388 . S
C844 C845 1.390 . S
C845 C844 1.390 . S
C845 C846 1.394 . S
C845 C851 1.465 . S
C846 C841 1.399 . S
C846 C845 1.394 . S
C846 C847 1.516 . S
C847 C846 1.516 . S
C847 C848 1.502 . S
C847 C849 1.561 . S
C847 C850 1.526 . S
C848 H832 0.959 . S
C848 H833 0.959 . S
C848 H834 0.961 . S
C848 C847 1.502 . S
C849 H835 0.960 . S
C849 H836 0.961 . S
C849 H837 0.959 . S
C849 C847 1.561 . S
C850 C847 1.526 . S
C850 C851 1.396 . S
C850 C855 1.390 . S
C851 C845 1.465 . S
C851 C850 1.396 . S
C851 C852 1.399 . S
C852 H838 0.929 . S
C852 C851 1.399 . S
C852 C853 1.385 . S
C853 H839 0.931 . S
C853 C852 1.385 . S
C853 C854 1.389 . S
C854 C853 1.389 . S
C854 C855 1.387 . S
C855 H840 0.930 . S
C855 C850 1.390 . S
C855 C854 1.387 . S
H856 C868 0.930 . S
H857 C870 0.930 . S
H858 C871 0.930 . S
H859 C875 0.959 . S
H860 C875 0.959 . S
H861 C875 0.961 . S
H862 C876 0.960 . S
H863 C876 0.961 . S
H864 C876 0.959 . S
H865 C879 0.929 1_545 S
H866 C880 0.931 . S
H867 C882 0.930 . S
C868 H856 0.930 . S
C868 C869 1.399 . S
C868 C873 1.399 . S
C869 C868 1.399 . S
C869 C870 1.376 . S
C870 H857 0.930 . S
C870 C869 1.376 . S
C870 C871 1.388 . S
C871 H858 0.930 . S
C871 C870 1.388 . S
C871 C872 1.390 . S
C872 C871 1.390 . S
C872 C873 1.394 . S
C872 C878 1.465 1_545 S
C873 C868 1.399 . S
C873 C872 1.394 . S
C873 C874 1.516 1_545 S
C874 C873 1.516 1_565 S
C874 C875 1.502 . S
C874 C876 1.561 . S
C874 C877 1.526 . S
C875 H859 0.959 . S
C875 H860 0.959 . S
C875 H861 0.961 . S
C875 C874 1.502 . S
C876 H862 0.960 . S
C876 H863 0.961 . S
C876 H864 0.959 . S
C876 C874 1.561 . S
C877 C874 1.526 . S
C877 C878 1.396 . S
C877 C882 1.390 . S
C878 C872 1.465 1_565 S
C878 C877 1.396 . S
C878 C879 1.399 . S
C879 H865 0.929 1_565 S
C879 C878 1.399 . S
C879 C880 1.385 . S
C880 H866 0.931 . S
C880 C879 1.385 . S
C880 C881 1.389 . S
C881 C880 1.389 . S
C881 C882 1.387 . S
C882 H867 0.930 . S
C882 C877 1.390 . S
C882 C881 1.387 . S
H883 C895 0.930 . S
H884 C897 0.930 . S
H885 C898 0.930 . S
H886 C902 0.959 . S
H887 C902 0.959 . S
H888 C902 0.961 . S
H889 C903 0.960 . S
H890 C903 0.961 . S
H891 C903 0.959 . S
H892 C906 0.929 . S
H893 C907 0.931 . S
H894 C909 0.930 . S
C895 H883 0.930 . S
C895 C896 1.399 . S
C895 C900 1.399 . S
C896 C895 1.399 . S
C896 C897 1.376 . S
C897 H884 0.930 . S
C897 C896 1.376 . S
C897 C898 1.388 . S
C898 H885 0.930 . S
C898 C897 1.388 . S
C898 C899 1.390 . S
C899 C898 1.390 . S
C899 C900 1.394 . S
C899 C905 1.465 . S
C900 C895 1.399 . S
C900 C899 1.394 . S
C900 C901 1.516 . S
C901 C900 1.516 . S
C901 C902 1.502 . S
C901 C903 1.561 . S
C901 C904 1.526 . S
C902 H886 0.959 . S
C902 H887 0.959 . S
C902 H888 0.961 . S
C902 C901 1.502 . S
C903 H889 0.960 . S
C903 H890 0.961 . S
C903 H891 0.959 . S
C903 C901 1.561 . S
C904 C901 1.526 . S
C904 C905 1.396 . S
C904 C909 1.390 . S
C905 C899 1.465 . S
C905 C904 1.396 . S
C905 C906 1.399 . S
C906 H892 0.929 . S
C906 C905 1.399 . S
C906 C907 1.385 . S
C907 H893 0.931 . S
C907 C906 1.385 . S
C907 C908 1.389 . S
C908 C907 1.389 . S
C908 C909 1.387 . S
C909 H894 0.930 . S
C909 C904 1.390 . S
C909 C908 1.387 . S
H910 C922 0.930 . S
H911 C924 0.930 . S
H912 C925 0.930 . S
H913 C929 0.959 . S
H914 C929 0.959 . S
H915 C929 0.961 . S
H916 C930 0.960 . S
H917 C930 0.961 . S
H918 C930 0.959 . S
H919 C933 0.929 . S
H920 C934 0.931 . S
H921 C936 0.930 . S
C922 H910 0.930 . S
C922 C923 1.399 . S
C922 C927 1.399 . S
C923 C922 1.399 . S
C923 C924 1.376 . S
C924 H911 0.930 . S
C924 C923 1.376 . S
C924 C925 1.388 . S
C925 H912 0.930 . S
C925 C924 1.388 . S
C925 C926 1.390 . S
C926 C925 1.390 . S
C926 C927 1.394 . S
C926 C932 1.465 1_546 S
C927 C922 1.399 . S
C927 C926 1.394 . S
C927 C928 1.534 1_556 S
C928 C927 1.534 1_554 S
C928 C929 1.488 1_544 S
C928 C930 1.576 . S
C928 C931 1.508 1_545 S
C929 H913 0.959 . S
C929 H914 0.959 . S
C929 H915 0.961 . S
C929 C928 1.488 1_566 S
C930 H916 0.960 . S
C930 H917 0.961 . S
C930 H918 0.959 . S
C930 C928 1.576 . S
C931 C928 1.508 1_565 S
C931 C932 1.396 . S
C931 C936 1.390 . S
C932 C926 1.465 1_564 S
C932 C931 1.396 . S
C932 C933 1.399 . S
C933 H919 0.929 . S
C933 C932 1.399 . S
C933 C934 1.385 . S
C934 H920 0.931 . S
C934 C933 1.385 . S
C934 C935 1.389 . S
C935 C934 1.389 . S
C935 C936 1.387 . S
C936 H921 0.930 . S
C936 C931 1.390 . S
C936 C935 1.387 . S
H937 C949 0.930 . S
H938 C951 0.930 . S
H939 C952 0.930 . S
H940 C956 0.959 . S
H941 C956 0.959 . S
H942 C956 0.961 . S
H943 C957 0.960 . S
H944 C957 0.961 . S
H945 C957 0.959 . S
H946 C960 0.929 . S
H947 C961 0.931 . S
H948 C963 0.930 . S
C949 H937 0.930 . S
C949 C950 1.399 . S
C949 C954 1.399 . S
C950 C949 1.399 . S
C950 C951 1.376 . S
C951 H938 0.930 . S
C951 C950 1.376 . S
C951 C952 1.388 . S
C952 H939 0.930 . S
C952 C951 1.388 . S
C952 C953 1.390 . S
C953 C952 1.390 . S
C953 C954 1.394 . S
C953 C959 1.465 . S
C954 C949 1.399 . S
C954 C953 1.394 . S
C954 C955 1.516 . S
C955 C954 1.516 . S
C955 C956 1.502 . S
C955 C957 1.561 . S
C955 C958 1.526 . S
C956 H940 0.959 . S
C956 H941 0.959 . S
C956 H942 0.961 . S
C956 C955 1.502 . S
C957 H943 0.960 . S
C957 H944 0.961 . S
C957 H945 0.959 . S
C957 C955 1.561 . S
C958 C955 1.526 . S
C958 C959 1.396 . S
C958 C963 1.390 . S
C959 C953 1.465 . S
C959 C958 1.396 . S
C959 C960 1.399 . S
C960 H946 0.929 . S
C960 C959 1.399 . S
C960 C961 1.385 . S
C961 H947 0.931 . S
C961 C960 1.385 . S
C961 C962 1.389 . S
C962 C961 1.389 . S
C962 C963 1.387 . S
C963 H948 0.930 . S
C963 C958 1.390 . S
C963 C962 1.387 . S
H964 C976 0.930 . S
H965 C978 0.930 . S
H966 C979 0.930 1_565 S
H967 C983 0.959 . S
H968 C983 0.959 . S
H969 C983 0.961 . S
H970 C984 0.960 . S
H971 C984 0.961 . S
H972 C984 0.959 . S
H973 C987 0.929 . S
H974 C988 0.931 . S
H975 C990 0.930 . S
C976 H964 0.930 . S
C976 C977 1.399 . S
C976 C981 1.399 . S
C977 C976 1.399 . S
C977 C978 1.376 . S
C978 H965 0.930 . S
C978 C977 1.376 . S
C978 C979 1.388 . S
C979 H966 0.930 1_545 S
C979 C978 1.388 . S
C979 C980 1.390 . S
C980 C979 1.390 . S
C980 C981 1.394 . S
C980 C986 1.465 1_545 S
C981 C976 1.399 . S
C981 C980 1.394 . S
C981 C982 1.516 . S
C982 C981 1.516 . S
C982 C983 1.502 . S
C982 C984 1.561 . S
C982 C985 1.526 1_545 S
C983 H967 0.959 . S
C983 H968 0.959 . S
C983 H969 0.961 . S
C983 C982 1.502 . S
C984 H970 0.960 . S
C984 H971 0.961 . S
C984 H972 0.959 . S
C984 C982 1.561 . S
C985 C982 1.526 1_565 S
C985 C986 1.396 . S
C985 C990 1.390 . S
C986 C980 1.465 1_565 S
C986 C985 1.396 . S
C986 C987 1.399 . S
C987 H973 0.929 . S
C987 C986 1.399 . S
C987 C988 1.385 . S
C988 H974 0.931 . S
C988 C987 1.385 . S
C988 C989 1.389 . S
C989 C988 1.389 . S
C989 C990 1.387 . S
C990 H975 0.930 . S
C990 C985 1.390 . S
C990 C989 1.387 . S
H991 C1003 0.930 . S
H992 C1005 0.930 . S
H993 C1006 0.930 . S
H994 C1010 0.959 . S
H995 C1010 0.959 . S
H996 C1010 0.961 . S
H997 C1011 0.960 . S
H998 C1011 0.961 . S
H999 C1011 0.959 . S
H1000 C1014 0.929 . S
H1001 C1015 0.931 . S
H1002 C1017 0.930 . S
C1003 H991 0.930 . S
C1003 C1004 1.399 . S
C1003 C1008 1.399 . S
C1004 C1003 1.399 . S
C1004 C1005 1.376 . S
C1005 H992 0.930 . S
C1005 C1004 1.376 . S
C1005 C1006 1.388 . S
C1006 H993 0.930 . S
C1006 C1005 1.388 . S
C1006 C1007 1.390 . S
C1007 C1006 1.390 . S
C1007 C1008 1.394 . S
C1007 C1013 1.465 . S
C1008 C1003 1.399 . S
C1008 C1007 1.394 . S
C1008 C1009 1.516 . S
C1009 C1008 1.516 . S
C1009 C1010 1.502 . S
C1009 C1011 1.561 . S
C1009 C1012 1.526 . S
C1010 H994 0.959 . S
C1010 H995 0.959 . S
C1010 H996 0.961 . S
C1010 C1009 1.502 . S
C1011 H997 0.960 . S
C1011 H998 0.961 . S
C1011 H999 0.959 . S
C1011 C1009 1.561 . S
C1012 C1009 1.526 . S
C1012 C1013 1.396 . S
C1012 C1017 1.390 . S
C1013 C1007 1.465 . S
C1013 C1012 1.396 . S
C1013 C1014 1.399 . S
C1014 H1000 0.929 . S
C1014 C1013 1.399 . S
C1014 C1015 1.385 . S
C1015 H1001 0.931 . S
C1015 C1014 1.385 . S
C1015 C1016 1.389 . S
C1016 C1015 1.389 . S
C1016 C1017 1.387 . S
C1017 H1002 0.930 . S
C1017 C1012 1.390 . S
C1017 C1016 1.387 . S
H1018 C1030 0.930 . S
H1019 C1032 0.930 . S
H1020 C1033 0.930 . S
H1021 C1037 0.959 . S
H1022 C1037 0.959 . S
H1023 C1037 0.961 . S
H1024 C1038 0.960 1_565 S
H1025 C1038 0.959 1_556 S
H1026 C1038 0.959 . S
H1027 C1041 0.945 . S
H1028 C1042 0.931 . S
H1029 C1044 0.930 . S
C1030 H1018 0.930 . S
C1030 C1031 1.399 . S
C1030 C1035 1.399 . S
C1031 C1030 1.399 . S
C1031 C1032 1.376 . S
C1032 H1019 0.930 . S
C1032 C1031 1.376 . S
C1032 C1033 1.388 . S
C1033 H1020 0.930 . S
C1033 C1032 1.388 . S
C1033 C1034 1.390 . S
C1034 C1033 1.390 . S
C1034 C1035 1.394 . S
C1034 C1040 1.465 1_564 S
C1035 C1030 1.399 . S
C1035 C1034 1.394 . S
C1035 C1036 1.516 1_554 S
C1036 C1035 1.516 1_556 S
C1036 C1037 1.502 . S
C1036 C1038 1.561 1_566 S
C1036 C1039 1.526 1_565 S
C1037 H1021 0.959 . S
C1037 H1022 0.959 . S
C1037 H1023 0.961 . S
C1037 C1036 1.502 . S
C1038 H1024 0.960 1_545 S
C1038 H1025 0.959 1_554 S
C1038 H1026 0.959 . S
C1038 C1036 1.561 1_544 S
C1039 C1036 1.526 1_545 S
C1039 C1040 1.396 . S
C1039 C1044 1.390 . S
C1040 C1034 1.465 1_546 S
C1040 C1039 1.396 . S
C1040 C1041 1.399 . S
C1041 H1027 0.945 . S
C1041 C1040 1.399 . S
C1041 C1042 1.385 . S
C1042 H1028 0.931 . S
C1042 C1041 1.385 . S
C1042 C1043 1.389 . S
C1043 C1042 1.389 . S
C1043 C1044 1.387 . S
C1044 H1029 0.930 . S
C1044 C1039 1.390 . S
C1044 C1043 1.387 . S
H1045 C1057 0.930 . S
H1046 C1059 0.930 . S
H1047 C1060 0.930 . S
H1048 C1064 0.959 . S
H1049 C1064 0.959 . S
H1050 C1064 0.961 . S
H1051 C1065 0.960 . S
H1052 C1065 0.961 . S
H1053 C1065 0.959 . S
H1054 C1068 0.929 . S
H1055 C1069 0.931 . S
H1056 C1071 0.930 . S
C1057 H1045 0.930 . S
C1057 C1058 1.399 . S
C1057 C1062 1.399 . S
C1058 C1057 1.399 . S
C1058 C1059 1.376 . S
C1059 H1046 0.930 . S
C1059 C1058 1.376 . S
C1059 C1060 1.388 . S
C1060 H1047 0.930 . S
C1060 C1059 1.388 . S
C1060 C1061 1.390 . S
C1061 C1060 1.390 . S
C1061 C1062 1.394 . S
C1061 C1067 1.465 . S
C1062 C1057 1.399 . S
C1062 C1061 1.394 . S
C1062 C1063 1.516 . S
C1063 C1062 1.516 . S
C1063 C1064 1.502 . S
C1063 C1065 1.561 . S
C1063 C1066 1.526 . S
C1064 H1048 0.959 . S
C1064 H1049 0.959 . S
C1064 H1050 0.961 . S
C1064 C1063 1.502 . S
C1065 H1051 0.960 . S
C1065 H1052 0.961 . S
C1065 H1053 0.959 . S
C1065 C1063 1.561 . S
C1066 C1063 1.526 . S
C1066 C1067 1.396 . S
C1066 C1071 1.390 . S
C1067 C1061 1.465 . S
C1067 C1066 1.396 . S
C1067 C1068 1.399 . S
C1068 H1054 0.929 . S
C1068 C1067 1.399 . S
C1068 C1069 1.385 . S
C1069 H1055 0.931 . S
C1069 C1068 1.385 . S
C1069 C1070 1.389 . S
C1070 C1069 1.389 . S
C1070 C1071 1.387 . S
C1071 H1056 0.930 . S
C1071 C1066 1.390 . S
C1071 C1070 1.387 . S
C221 C148 1.460 . S
C233 C4 1.468 . S
C248 C199 1.476 . S
C260 C18 1.478 . S
C275 C29 1.477 . S
C287 C127 1.476 . S
C302 C179 1.451 . S
C314 C49 1.453 . S
C329 C62 1.459 . S
C341 C174 1.452 . S
C356 C70 1.459 . S
C368 C153 1.464 . S
C383 C81 1.487 . S
C395 C198 1.486 . S
C410 C101 1.466 . S
C422 C122 1.458 . S
C437 C44 1.460 . S
C449 C107 1.464 . S
C464 C135 1.476 . S
C476 C23 1.473 . S
C491 C160 1.460 . S
C503 C75 1.464 . S
C518 C187 1.472 . S
C530 C96 1.468 . S
C545 C57 1.450 . S
C557 C108 1.457 . S
C572 C140 1.465 . S
C584 C82 1.469 . S
C599 C192 1.461 . S
C611 C30 1.464 . S
C626 C3 1.469 . S
C638 C159 1.466 . S
C653 C5 1.393 . S
C665 C55 1.387 . S
C680 C17 1.387 . S
C692 C69 1.386 . S
C707 C36 1.389 . S
C719 C88 1.391 . S
C734 C94 1.398 . S
C746 C42 1.393 . S
C761 C114 1.390 . S
C773 C161 1.380 . S
C788 C172 1.387 . S
C800 C121 1.392 . S
C815 C134 1.393 . S
C827 C186 1.385 . S
C842 C200 1.395 . S
C854 C146 1.387 . S
C869 C95 1.388 . S
C881 C16 1.383 . S
C896 C31 1.378 . S
C908 C56 1.379 . S
C923 C43 1.401 . S
C935 C68 1.397 . S
C950 C10 1.374 . S
C962 C83 1.381 . S
C977 C120 1.382 . S
C989 C205 1.391 . S
C1004 C166 1.389 . S
C1016 C133 1.399 . S
C1031 C147 1.382 . S
C1043 C173 1.388 . S
C1058 C185 1.384 . S
C1070 C109 1.380 . S
