# Generated by pormake.
# Topology wjz, (5)-cn, num edge types: 1
# Building blocks:
#     Node 0, Type 0, BuildingBlock: BEQFEK_clean_sbu_0, # of connection points: 5
#     Node 1, Type 0, BuildingBlock: BEQFEK_clean_sbu_0, # of connection points: 5
#     Node 2, Type 0, BuildingBlock: BEQFEK_clean_sbu_0, # of connection points: 5
#     Node 3, Type 0, BuildingBlock: BEQFEK_clean_sbu_0, # of connection points: 5
#     Node 4, Type 0, BuildingBlock: BEQFEK_clean_sbu_0, # of connection points: 5
#     Node 5, Type 0, BuildingBlock: BEQFEK_clean_sbu_0, # of connection points: 5
#     Node 6, Type 0, BuildingBlock: BEQFEK_clean_sbu_0, # of connection points: 5
#     Node 7, Type 0, BuildingBlock: BEQFEK_clean_sbu_0, # of connection points: 5
#     Node 8, Type 0, BuildingBlock: BEQFEK_clean_sbu_0, # of connection points: 5
#     Node 9, Type 0, BuildingBlock: BEQFEK_clean_sbu_0, # of connection points: 5
#     Node 10, Type 0, BuildingBlock: BEQFEK_clean_sbu_0, # of connection points: 5
#     Node 11, Type 0, BuildingBlock: BEQFEK_clean_sbu_0, # of connection points: 5
#     Edge 12, Type (0, 0), BuildingBlock: CIFDUS_clean_linker_0, # of connection points: 2
#     Edge 13, Type (0, 0), BuildingBlock: CIFDUS_clean_linker_0, # of connection points: 2
#     Edge 14, Type (0, 0), BuildingBlock: CIFDUS_clean_linker_0, # of connection points: 2
#     Edge 15, Type (0, 0), BuildingBlock: CIFDUS_clean_linker_0, # of connection points: 2
#     Edge 16, Type (0, 0), BuildingBlock: CIFDUS_clean_linker_0, # of connection points: 2
#     Edge 17, Type (0, 0), BuildingBlock: CIFDUS_clean_linker_0, # of connection points: 2
#     Edge 18, Type (0, 0), BuildingBlock: CIFDUS_clean_linker_0, # of connection points: 2
#     Edge 19, Type (0, 0), BuildingBlock: CIFDUS_clean_linker_0, # of connection points: 2
#     Edge 20, Type (0, 0), BuildingBlock: CIFDUS_clean_linker_0, # of connection points: 2
#     Edge 21, Type (0, 0), BuildingBlock: CIFDUS_clean_linker_0, # of connection points: 2
#     Edge 22, Type (0, 0), BuildingBlock: CIFDUS_clean_linker_0, # of connection points: 2
#     Edge 23, Type (0, 0), BuildingBlock: CIFDUS_clean_linker_0, # of connection points: 2
#     Edge 24, Type (0, 0), BuildingBlock: CIFDUS_clean_linker_0, # of connection points: 2
#     Edge 25, Type (0, 0), BuildingBlock: CIFDUS_clean_linker_0, # of connection points: 2
#     Edge 26, Type (0, 0), BuildingBlock: CIFDUS_clean_linker_0, # of connection points: 2
#     Edge 27, Type (0, 0), BuildingBlock: CIFDUS_clean_linker_0, # of connection points: 2
#     Edge 28, Type (0, 0), BuildingBlock: CIFDUS_clean_linker_0, # of connection points: 2
#     Edge 29, Type (0, 0), BuildingBlock: CIFDUS_clean_linker_0, # of connection points: 2
#     Edge 30, Type (0, 0), BuildingBlock: CIFDUS_clean_linker_0, # of connection points: 2
#     Edge 31, Type (0, 0), BuildingBlock: CIFDUS_clean_linker_0, # of connection points: 2
#     Edge 32, Type (0, 0), BuildingBlock: CIFDUS_clean_linker_0, # of connection points: 2
#     Edge 33, Type (0, 0), BuildingBlock: CIFDUS_clean_linker_0, # of connection points: 2
#     Edge 34, Type (0, 0), BuildingBlock: CIFDUS_clean_linker_0, # of connection points: 2
#     Edge 35, Type (0, 0), BuildingBlock: CIFDUS_clean_linker_0, # of connection points: 2
#     Edge 36, Type (0, 0), BuildingBlock: CIFDUS_clean_linker_0, # of connection points: 2
#     Edge 37, Type (0, 0), BuildingBlock: CIFDUS_clean_linker_0, # of connection points: 2
#     Edge 38, Type (0, 0), BuildingBlock: CIFDUS_clean_linker_0, # of connection points: 2
#     Edge 39, Type (0, 0), BuildingBlock: CIFDUS_clean_linker_0, # of connection points: 2
#     Edge 40, Type (0, 0), BuildingBlock: CIFDUS_clean_linker_0, # of connection points: 2
#     Edge 41, Type (0, 0), BuildingBlock: CIFDUS_clean_linker_0, # of connection points: 2
# Relax obj value: 0.231
# Max RMSD: 0.202
# Mean RMSD: 0.201
data_MOF--net-wjz--node1-BEQFEK_clean_sbu_0--edge1-CIFDUS_clean_linker_0
_symmetry_space_group_name_H-M    P1
_symmetry_Int_Tables_number       1
_symmetry_cell_setting            triclinic
loop_
_symmetry_equiv_pos_as_xyz
'x, y, z'
_cell_length_a     62.96969
_cell_length_b     62.959258
_cell_length_c     16.736873
_cell_angle_alpha  90.14601
_cell_angle_beta   89.905444
_cell_angle_gamma 119.99475
loop_
_atom_site_label
_atom_site_type_symbol
_atom_site_fract_x
_atom_site_fract_y
_atom_site_fract_z
_atom_type_partial_charge
Co0 Co 0.34854 0.4642 0.06246 0.0
Co1 Co 0.36807 0.48464 0.23204 0.0
C2 C 0.3712 0.44192 0.16325 0.0
O3 O 0.36077 0.44215 0.09838 0.0
O4 O 0.37499 0.4572 0.21913 0.0
C5 C 0.32168 0.44063 0.90198 0.0
O6 O 0.3036 0.41924 0.92487 0.0
C7 C 0.37013 0.48168 0.4051 0.0
C8 C 0.38088 0.51939 0.44292 0.0
C9 C 0.37352 0.49611 0.47171 0.0
N10 N 0.37448 0.49557 0.33976 0.0
N11 N 0.38137 0.51822 0.36264 0.0
C12 C 0.36336 0.45526 0.40247 0.0
H13 H 0.34728 0.44489 0.36277 0.0
H14 H 0.35958 0.44678 0.4625 0.0
H15 H 0.37894 0.45412 0.37641 0.0
C16 C 0.30242 0.45992 0.13075 0.0
N17 N 0.3261 0.46562 0.13562 0.0
N18 N 0.33438 0.47397 0.20783 0.0
C19 C 0.31604 0.47333 0.25168 0.0
C20 C 0.2952 0.46463 0.20427 0.0
C21 C 0.2875 0.45133 0.05594 0.0
H22 H 0.29907 0.46125 0.00377 0.0
H23 H 0.28076 0.43147 0.04784 0.0
H24 H 0.27156 0.45429 0.05862 0.0
O25 O 0.37681 0.49713 0.04504 0.0
O26 O 0.39129 0.51299 0.16393 0.0
H27 H 0.33146 0.4985 0.34941 0.0
H28 H 0.30004 0.47482 0.36571 0.0
C29 C 0.31781 0.47892 0.33928 0.0
H30 H 0.32383 0.46745 0.37089 0.0
H31 H 0.38541 0.53261 0.32341 0.0
O32 O 0.33661 0.45561 0.95273 0.0
C33 C 0.39222 0.5147 0.08806 0.0
Co34 Co 0.88997 0.34744 0.22065 0.0
Co35 Co 0.88874 0.3693 0.38553 0.0
C36 C 0.93486 0.37198 0.32192 0.0
O37 O 0.92398 0.36019 0.25907 0.0
O38 O 0.92351 0.37683 0.37546 0.0
C39 C 0.90274 0.35105 0.06949 0.0
O40 O 0.91965 0.37106 0.10476 0.0
C41 C 0.8932 0.37251 0.55763 0.0
C42 C 0.87325 0.39184 0.59096 0.0
C43 C 0.88604 0.38117 0.62215 0.0
N44 N 0.88469 0.37743 0.49104 0.0
N45 N 0.87285 0.38906 0.51104 0.0
C46 C 0.9091 0.36106 0.55803 0.0
H47 H 0.9055 0.3494 0.50426 0.0
H48 H 0.90618 0.34995 0.61243 0.0
H49 H 0.92859 0.37585 0.55707 0.0
C50 C 0.84918 0.30202 0.29343 0.0
N51 N 0.86655 0.32592 0.29557 0.0
N52 N 0.86585 0.33523 0.36539 0.0
C53 C 0.84793 0.31744 0.41007 0.0
C54 C 0.83673 0.29575 0.36603 0.0
C55 C 0.84407 0.2859 0.22184 0.0
H56 H 0.85779 0.27975 0.21926 0.0
H57 H 0.82542 0.26956 0.22454 0.0
H58 H 0.84593 0.29639 0.16662 0.0
O59 O 0.88438 0.37502 0.19782 0.0
O60 O 0.88311 0.39124 0.31345 0.0
H61 H 0.82668 0.30438 0.52009 0.0
H62 H 0.85875 0.32468 0.53229 0.0
C63 C 0.84271 0.32085 0.49507 0.0
H64 H 0.83965 0.33669 0.49939 0.0
H65 H 0.86448 0.39505 0.4702 0.0
O66 O 0.88698 0.33373 0.1127 0.0
C67 C 0.88202 0.3909 0.23753 0.0
Co68 Co 0.54701 0.88782 0.38293 0.0
Co69 Co 0.5251 0.88348 0.55244 0.0
C70 C 0.56982 0.9301 0.49436 0.0
O71 O 0.57006 0.921 0.42644 0.0
O72 O 0.55356 0.91762 0.54659 0.0
C73 C 0.57093 0.88724 0.22185 0.0
O74 O 0.59362 0.89518 0.24472 0.0
C75 C 0.52613 0.8863 0.72669 0.0
C76 C 0.48965 0.85541 0.75881 0.0
C77 C 0.5119 0.87284 0.79096 0.0
N78 N 0.51326 0.87663 0.65939 0.0
N79 N 0.49127 0.85853 0.67902 0.0
C80 C 0.55125 0.90838 0.72836 0.0
H81 H 0.56429 0.90416 0.69721 0.0
H82 H 0.55771 0.91486 0.78994 0.0
H83 H 0.5508 0.92345 0.69586 0.0
C84 C 0.54973 0.84416 0.43928 0.0
N85 N 0.54413 0.86208 0.44939 0.0
N86 N 0.53525 0.86051 0.52173 0.0
C87 C 0.53557 0.84191 0.56072 0.0
C88 C 0.54446 0.83068 0.50962 0.0
C89 C 0.55894 0.83953 0.3625 0.0
H90 H 0.54827 0.84077 0.31188 0.0
H91 H 0.57841 0.85387 0.35426 0.0
H92 H 0.55744 0.82121 0.36183 0.0
O93 O 0.51485 0.88503 0.3664 0.0
O94 O 0.4975 0.88056 0.48447 0.0
H95 H 0.50976 0.82821 0.65687 0.0
H96 H 0.53569 0.82379 0.67099 0.0
C97 C 0.52978 0.83647 0.64764 0.0
H98 H 0.53945 0.8537 0.68232 0.0
H99 H 0.47778 0.84756 0.6377 0.0
O100 O 0.55475 0.88459 0.27222 0.0
C101 C 0.49685 0.88205 0.40873 0.0
Co102 Co 0.66534 0.54774 0.526 0.0
Co103 Co 0.64299 0.52346 0.68903 0.0
C104 C 0.6422 0.56865 0.63019 0.0
O105 O 0.65421 0.57004 0.56731 0.0
O106 O 0.63665 0.55162 0.68098 0.0
C107 C 0.66281 0.55798 0.37453 0.0
O108 O 0.64317 0.55606 0.40907 0.0
C109 C 0.6437 0.52524 0.86187 0.0
C110 C 0.6161 0.48734 0.89531 0.0
C111 C 0.63218 0.51026 0.9267 0.0
N112 N 0.63508 0.51177 0.79511 0.0
N113 N 0.61869 0.48909 0.8153 0.0
C114 C 0.66106 0.55235 0.86257 0.0
H115 H 0.66527 0.55977 0.801 0.0
H116 H 0.67847 0.5564 0.89181 0.0
H117 H 0.65303 0.56164 0.89753 0.0
C118 C 0.70925 0.548 0.59336 0.0
N119 N 0.68616 0.54399 0.59884 0.0
N120 N 0.67638 0.53277 0.66665 0.0
C121 C 0.69282 0.52879 0.70559 0.0
C122 C 0.71427 0.53858 0.66105 0.0
C123 C 0.72517 0.55849 0.52132 0.0
H124 H 0.71836 0.54445 0.47324 0.0
H125 H 0.72399 0.57448 0.49924 0.0
H126 H 0.74452 0.56405 0.53483 0.0
O127 O 0.63639 0.5153 0.5018 0.0
O128 O 0.62019 0.49674 0.61612 0.0
H129 H 0.66881 0.49819 0.77918 0.0
H130 H 0.70099 0.50807 0.79113 0.0
C131 C 0.68757 0.51432 0.78117 0.0
H132 H 0.68875 0.52603 0.83241 0.0
H133 H 0.60887 0.47496 0.77444 0.0
O134 O 0.67942 0.55828 0.41843 0.0
C135 C 0.6202 0.4969 0.54007 0.0
Co136 Co 0.1197 0.6696 0.70037 0.0
Co137 Co 0.1234 0.64692 0.86255 0.0
C138 C 0.07642 0.64461 0.80375 0.0
O139 O 0.08632 0.65847 0.7437 0.0
O140 O 0.08858 0.63852 0.84966 0.0
C141 C 0.10461 0.67351 0.54605 0.0
O142 O 0.08302 0.65964 0.57878 0.0
C143 C 0.11968 0.64821 0.03521 0.0
C144 C 0.14031 0.6306 0.07776 0.0
C145 C 0.12828 0.64273 0.10411 0.0
N146 N 0.12664 0.64005 0.97166 0.0
N147 N 0.13857 0.62911 -0.00254 0.0
C148 C 0.10792 0.66375 0.0282 0.0
H149 H 0.11091 0.67191 0.96768 0.0
H150 H 0.11539 0.67859 0.07366 0.0
H151 H 0.08789 0.65211 0.03796 0.0
C152 C 0.16237 0.71431 0.77047 0.0
N153 N 0.14448 0.69059 0.77333 0.0
N154 N 0.14631 0.68085 0.84069 0.0
C155 C 0.1657 0.69803 0.8823 0.0
C156 C 0.17651 0.71987 0.83948 0.0
C157 C 0.16643 0.73079 0.70092 0.0
H158 H 0.16619 0.72127 0.64475 0.0
H159 H 0.15115 0.73475 0.69789 0.0
H160 H 0.1841 0.74827 0.7058 0.0
O161 O 0.1232 0.64063 0.67772 0.0
O162 O 0.12903 0.62523 0.78891 0.0
H163 H 0.17353 0.67635 0.96263 0.0
H164 H 0.19132 0.7088 0.98217 0.0
C165 C 0.1732 0.69377 0.96295 0.0
H166 H 0.15974 0.69255 0.0079 0.0
H167 H 0.14646 0.62164 0.96017 0.0
O168 O 0.12352 0.6831 0.59064 0.0
C169 C 0.12723 0.62512 0.71299 0.0
Co170 Co 0.45458 0.11878 0.8216 0.0
Co171 Co 0.47897 0.12051 0.98655 0.0
C172 C 0.43446 0.07446 0.92354 0.0
O173 O 0.43285 0.08485 0.86054 0.0
O174 O 0.45123 0.08622 0.97494 0.0
C175 C 0.43334 0.10468 0.66812 0.0
O176 O 0.42288 0.08276 0.70038 0.0
C177 C 0.47404 0.1172 0.15896 0.0
C178 C 0.51235 0.13642 0.2015 0.0
C179 C 0.48822 0.12531 0.22782 0.0
N180 N 0.48908 0.12353 0.09544 0.0
N181 N 0.51196 0.13461 0.12121 0.0
C182 C 0.44686 0.1065 0.15192 0.0
H183 H 0.44191 0.10964 0.09128 0.0
H184 H 0.44009 0.11466 0.19703 0.0
H185 H 0.43768 0.08643 0.16221 0.0
C186 C 0.45284 0.16132 0.89363 0.0
N187 N 0.45797 0.14294 0.89677 0.0
N188 N 0.46908 0.14427 0.96474 0.0
C189 C 0.4717 0.16383 0.00653 0.0
C190 C 0.46141 0.17525 0.96316 0.0
C191 C 0.44155 0.16625 0.82272 0.0
H192 H 0.45249 0.16792 0.76865 0.0
H193 H 0.42285 0.15042 0.81325 0.0
H194 H 0.44057 0.18325 0.83028 0.0
O195 O 0.48701 0.12272 0.79961 0.0
O196 O 0.50622 0.12515 0.91292 0.0
H197 H 0.50074 0.17061 0.08784 0.0
H198 H 0.48728 0.18959 0.10591 0.0
C199 C 0.48341 0.17113 0.08739 0.0
H200 H 0.47077 0.15807 0.13238 0.0
H201 H 0.5273 0.14188 0.08391 0.0
O202 O 0.445 0.12337 0.71287 0.0
C203 C 0.5057 0.1252 0.83667 0.0
Co204 Co 0.54426 0.66083 0.81853 0.0
Co205 Co 0.52409 0.63633 0.65443 0.0
C206 C 0.56767 0.63663 0.73369 0.0
O207 O 0.56751 0.64893 0.7939 0.0
O208 O 0.55206 0.63083 0.67768 0.0
C209 C 0.56278 0.67285 0.97273 0.0
O210 O 0.57665 0.66375 0.95081 0.0
C211 C 0.52799 0.62678 0.48773 0.0
C212 C 0.49612 0.62745 0.43638 0.0
C213 C 0.51803 0.62855 0.41588 0.0
N214 N 0.51372 0.62666 0.54746 0.0
N215 N 0.49405 0.62582 0.51643 0.0
C216 C 0.54988 0.62382 0.50024 0.0
H217 H 0.54583 0.60998 0.54744 0.0
H218 H 0.56562 0.64159 0.51967 0.0
H219 H 0.55469 0.61732 0.44511 0.0
C220 C 0.54677 0.7037 0.73682 0.0
N221 N 0.54238 0.68043 0.73677 0.0
N222 N 0.53421 0.67052 0.66611 0.0
C223 C 0.53381 0.68765 0.61837 0.0
C224 C 0.54164 0.7091 0.66161 0.0
C225 C 0.55426 0.71986 0.80904 0.0
H226 H 0.57087 0.72088 0.83567 0.0
H227 H 0.55805 0.73861 0.79407 0.0
H228 H 0.53939 0.71169 0.85422 0.0
O229 O 0.51176 0.63227 0.84228 0.0
O230 O 0.49595 0.61516 0.72568 0.0
H231 H 0.53044 0.70138 0.50365 0.0
H232 H 0.53383 0.67463 0.50037 0.0
C233 C 0.52536 0.68374 0.5335 0.0
H234 H 0.50513 0.67208 0.53193 0.0
H235 H 0.48039 0.62645 0.54998 0.0
O236 O 0.55203 0.67833 0.91974 0.0
C237 C 0.4943 0.6158 0.8014 0.0
Co238 Co 0.88772 0.53915 0.94601 0.0
Co239 Co 0.88492 0.51373 0.78526 0.0
C240 C 0.93218 0.55667 0.85196 0.0
O241 O 0.92201 0.56126 0.90995 0.0
O242 O 0.91983 0.53873 0.80497 0.0
C243 C 0.89846 0.55483 0.10152 0.0
O244 O 0.92089 0.56212 0.07711 0.0
C245 C 0.89799 0.51464 0.61904 0.0
C246 C 0.86253 0.4877 0.56607 0.0
C247 C 0.88585 0.50655 0.54647 0.0
N248 N 0.88205 0.50252 0.67808 0.0
N249 N 0.86124 0.48559 0.64612 0.0
C250 C 0.92478 0.53183 0.63281 0.0
H251 H 0.93133 0.52487 0.6822 0.0
H252 H 0.92783 0.55021 0.64962 0.0
H253 H 0.93572 0.53329 0.57892 0.0
C254 C 0.84805 0.54486 0.87339 0.0
N255 N 0.86458 0.53722 0.87085 0.0
N256 N 0.86374 0.52741 0.80066 0.0
C257 C 0.84695 0.52922 0.75523 0.0
C258 C 0.8362 0.53999 0.80006 0.0
C259 C 0.84303 0.55539 0.94646 0.0
H260 H 0.83997 0.54318 -0.00189 0.0
H261 H 0.85932 0.57348 0.95995 0.0
H262 H 0.82671 0.55755 0.93911 0.0
O263 O 0.88307 0.50622 0.97105 0.0
O264 O 0.87669 0.48582 0.85767 0.0
H265 H 0.83026 0.50301 0.66131 0.0
H266 H 0.83402 0.5326 0.63897 0.0
C267 C 0.84267 0.52303 0.66828 0.0
H268 H 0.86034 0.52859 0.63811 0.0
H269 H 0.84552 0.47409 0.67894 0.0
O270 O 0.88168 0.54888 0.05009 0.0
C271 C 0.87827 0.48674 0.93353 0.0
Co272 Co 0.35055 0.88871 0.14328 0.0
Co273 Co 0.37271 0.88959 0.97565 0.0
C274 C 0.37168 0.93371 0.04361 0.0
O275 O 0.3611 0.92262 0.10773 0.0
O276 O 0.37694 0.92299 0.98895 0.0
C277 C 0.33905 0.90051 0.29547 0.0
O278 O 0.34709 0.92222 0.26335 0.0
C279 C 0.36988 0.8921 0.80391 0.0
C280 C 0.39205 0.87616 0.76045 0.0
C281 C 0.37699 0.88504 0.73487 0.0
N282 N 0.37999 0.88731 0.86687 0.0
N283 N 0.39358 0.87818 0.84064 0.0
C284 C 0.35149 0.90046 0.8118 0.0
H285 H 0.34371 0.89698 0.87302 0.0
H286 H 0.33645 0.89096 0.76774 0.0
H287 H 0.3607 0.92048 0.8005 0.0
C288 C 0.3067 0.84595 0.06969 0.0
N289 N 0.32995 0.86488 0.06692 0.0
N290 N 0.33983 0.86443 -0.00201 0.0
C291 C 0.32338 0.84473 0.95583 0.0
C292 C 0.30177 0.83258 -0.0008 0.0
C293 C 0.29031 0.83989 0.14085 0.0
H294 H 0.29701 0.83253 0.1887 0.0
H295 H 0.29117 0.85683 0.16407 0.0
H296 H 0.27109 0.82604 0.12596 0.0
O297 O 0.38013 0.88597 0.16338 0.0
O298 O 0.39639 0.88614 0.04579 0.0
H299 H 0.34729 0.83995 0.87546 0.0
H300 H 0.31532 0.81747 0.8634 0.0
C301 C 0.32843 0.83701 0.87659 0.0
H302 H 0.32651 0.84806 0.82879 0.0
H303 H 0.40302 0.87237 0.87759 0.0
O304 O 0.33579 0.88271 0.25107 0.0
C305 C 0.3966 0.88509 0.12184 0.0
Co306 Co 0.47185 0.35331 0.25306 0.0
Co307 Co 0.49528 0.37507 0.08721 0.0
C308 C 0.44973 0.37493 0.14889 0.0
O309 O 0.44887 0.36378 0.2132 0.0
O310 O 0.46657 0.38021 0.09743 0.0
C311 C 0.45037 0.34534 0.40647 0.0
O312 O 0.4393 0.35628 0.3748 0.0
C313 C 0.49039 0.37208 0.91541 0.0
C314 C 0.52863 0.39313 0.87256 0.0
C315 C 0.5046 0.37881 0.84661 0.0
N316 N 0.50531 0.38175 0.97865 0.0
N317 N 0.52814 0.39464 0.9528 0.0
C318 C 0.46344 0.35442 0.92271 0.0
H319 H 0.4589 0.3463 0.98342 0.0
H320 H 0.45739 0.33956 0.87757 0.0
H321 H 0.45328 0.36435 0.91268 0.0
C322 C 0.47039 0.30888 0.18321 0.0
N323 N 0.47545 0.33236 0.17935 0.0
N324 N 0.48662 0.34201 0.11134 0.0
C325 C 0.48965 0.32515 0.07084 0.0
C326 C 0.47923 0.30354 0.11444 0.0
C327 C 0.45884 0.29261 0.25383 0.0
H328 H 0.4723 0.29894 0.30351 0.0
H329 H 0.44285 0.29408 0.27422 0.0
H330 H 0.45304 0.27323 0.23961 0.0
O331 O 0.50406 0.38284 0.2738 0.0
O332 O 0.52221 0.39871 0.15828 0.0
H333 H 0.51913 0.34823 0.99193 0.0
H334 H 0.50836 0.31594 0.97987 0.0
C335 C 0.50269 0.32968 0.99238 0.0
H336 H 0.49019 0.32841 0.94379 0.0
H337 H 0.54341 0.40367 0.99001 0.0
O338 O 0.46267 0.33915 0.36149 0.0
C339 C 0.52224 0.39903 0.23444 0.0
Co340 Co 0.12262 0.45988 0.52456 0.0
Co341 Co 0.12262 0.48309 0.35962 0.0
C342 C 0.07709 0.43938 0.43028 0.0
O343 O 0.08819 0.43794 0.49171 0.0
O344 O 0.08834 0.45578 0.37737 0.0
C345 C 0.12999 0.43835 0.68599 0.0
O346 O 0.13021 0.41839 0.66451 0.0
C347 C 0.12012 0.47724 0.18648 0.0
C348 C 0.13435 0.51509 0.14331 0.0
C349 C 0.12645 0.49133 0.11746 0.0
N350 N 0.12471 0.4921 0.24987 0.0
N351 N 0.13297 0.51467 0.22367 0.0
C352 C 0.10952 0.45005 0.19279 0.0
H353 H 0.09886 0.44298 0.24862 0.0
H354 H 0.12456 0.44573 0.19424 0.0
H355 H 0.09755 0.44056 0.14077 0.0
C356 C 0.16479 0.45796 0.44812 0.0
N357 N 0.14587 0.46234 0.44691 0.0
N358 N 0.14651 0.47335 0.37933 0.0
C359 C 0.16618 0.47679 0.33655 0.0
C360 C 0.17805 0.4667 0.37772 0.0
C361 C 0.17115 0.44748 0.51795 0.0
H362 H 0.17289 0.45839 0.57222 0.0
H363 H 0.15605 0.42846 0.52815 0.0
H364 H 0.1885 0.44733 0.50781 0.0
O365 O 0.12698 0.49267 0.54414 0.0
O366 O 0.12842 0.51122 0.43044 0.0
H367 H 0.17176 0.50746 0.26494 0.0
H368 H 0.19516 0.49916 0.25314 0.0
C369 C 0.17524 0.49189 0.26202 0.0
H370 H 0.16559 0.48031 0.20959 0.0
H371 H 0.13823 0.52986 0.26068 0.0
O372 O 0.12738 0.4515 0.63397 0.0
C373 C 0.12921 0.51119 0.50659 0.0
Co374 Co 0.66455 0.11727 0.64063 0.0
Co375 Co 0.64317 0.12254 0.47769 0.0
C376 C 0.64228 0.07549 0.52887 0.0
O377 O 0.65373 0.08421 0.59431 0.0
O378 O 0.63735 0.08845 0.48245 0.0
C379 C 0.66817 0.10235 0.79549 0.0
O380 O 0.65366 0.08068 0.76403 0.0
C381 C 0.64717 0.12195 0.30559 0.0
C382 C 0.62666 0.13962 0.26247 0.0
C383 C 0.64072 0.12957 0.2367 0.0
N384 N 0.63746 0.12725 0.36883 0.0
N385 N 0.62498 0.1376 0.34275 0.0
C386 C 0.66459 0.11237 0.31267 0.0
H387 H 0.67261 0.11573 0.3735 0.0
H388 H 0.67949 0.12114 0.26776 0.0
H389 H 0.65452 0.09231 0.30166 0.0
C390 C 0.70901 0.16178 0.57811 0.0
N391 N 0.68574 0.14309 0.57105 0.0
N392 N 0.67621 0.1459 0.50471 0.0
C393 C 0.69294 0.16672 0.46842 0.0
C394 C 0.71432 0.17733 0.51312 0.0
C395 C 0.72495 0.16568 0.64903 0.0
H396 H 0.71883 0.17291 0.69914 0.0
H397 H 0.72296 0.14791 0.66821 0.0
H398 H 0.74445 0.17898 0.63554 0.0
O399 O 0.63532 0.12009 0.66314 0.0
O400 O 0.61978 0.12562 0.55173 0.0
H401 H 0.6698 0.17503 0.39692 0.0
H402 H 0.70217 0.19645 0.38503 0.0
C403 C 0.68824 0.1769 0.39403 0.0
H404 H 0.68895 0.16646 0.3417 0.0
H405 H 0.61592 0.14388 0.37978 0.0
O406 O 0.67802 0.12099 0.74998 0.0
C407 C 0.6195 0.12357 0.62764 0.0
H408 H 0.33184 0.457 0.52809 0.0
H409 H 0.40069 0.51882 0.60224 0.0
H410 H 0.39026 0.50698 0.7421 0.0
H411 H 0.36205 0.47952 0.84159 0.0
H412 H 0.29331 0.41674 0.77049 0.0
H413 H 0.3034 0.42847 0.62981 0.0
C414 C 0.34474 0.46754 0.57497 0.0
C415 C 0.3673 0.48835 0.55537 0.0
C416 C 0.3386 0.46063 0.65505 0.0
C417 C 0.38339 0.50258 0.61633 0.0
C418 C 0.37742 0.49586 0.696 0.0
C419 C 0.34911 0.4683 0.79569 0.0
C420 C 0.32687 0.44726 0.81662 0.0
C421 C 0.35511 0.47498 0.71583 0.0
C422 C 0.31053 0.433 0.75596 0.0
C423 C 0.3163 0.4397 0.67568 0.0
H424 H 0.91579 0.39147 0.98289 0.0
H425 H 0.87921 0.31258 0.96494 0.0
H426 H 0.8707 0.315 0.8231 0.0
H427 H 0.8733 0.33986 0.70556 0.0
H428 H 0.90815 0.41846 0.72773 0.0
H429 H 0.91732 0.41591 0.86836 0.0
C430 C 0.90625 0.37477 0.94778 0.0
C431 C 0.89853 0.35187 0.98349 0.0
C432 C 0.90092 0.37633 0.86782 0.0
C433 C 0.88553 0.33039 0.93808 0.0
C434 C 0.88062 0.33179 0.85739 0.0
C435 C 0.88317 0.35637 0.74132 0.0
C436 C 0.89065 0.37937 0.70691 0.0
C437 C 0.88819 0.35468 0.82182 0.0
C438 C 0.90254 0.40065 0.75358 0.0
C439 C 0.90783 0.39919 0.83349 0.0
H440 H 0.52681 0.876 0.16171 0.0
H441 H 0.59872 0.89018 0.09038 0.0
H442 H 0.58635 0.88605 0.94966 0.0
H443 H 0.55518 0.87915 0.84797 0.0
H444 H 0.48444 0.86739 0.92202 0.0
H445 H 0.49618 0.86915 0.06208 0.0
C446 C 0.53991 0.87814 0.11576 0.0
C447 C 0.56376 0.8835 0.13664 0.0
C448 C 0.53286 0.8762 0.03584 0.0
C449 C 0.5803 0.88612 0.07593 0.0
C450 C 0.57324 0.8838 0.99561 0.0
C451 C 0.5426 0.87765 0.89483 0.0
C452 C 0.5193 0.87407 0.87509 0.0
C453 C 0.54966 0.87915 0.975 0.0
C454 C 0.5026 0.87061 0.9361 0.0
C455 C 0.50932 0.87166 0.01593 0.0
H456 H 0.67385 0.53645 0.01333 0.0
H457 H 0.59497 0.49931 0.02931 0.0
H458 H 0.59775 0.51231 0.16848 0.0
H459 H 0.62242 0.53405 0.2842 0.0
H460 H 0.70134 0.56957 0.27296 0.0
H461 H 0.69885 0.55796 0.13166 0.0
C462 C 0.65734 0.53162 0.04706 0.0
C463 C 0.63424 0.51746 0.01119 0.0
C464 C 0.65912 0.53901 0.12706 0.0
C465 C 0.61291 0.51032 0.05605 0.0
C466 C 0.61451 0.51784 0.13523 0.0
C467 C 0.63915 0.53962 0.25067 0.0
C468 C 0.66208 0.55302 0.28828 0.0
C469 C 0.6375 0.53227 0.17104 0.0
C470 C 0.68352 0.55946 0.24474 0.0
C471 C 0.68207 0.55274 0.1643 0.0
H472 H 0.09172 0.64617 0.18109 0.0
H473 H 0.1643 0.65681 0.2151 0.0
H474 H 0.16466 0.67013 0.35254 0.0
H475 H 0.14366 0.67708 0.46479 0.0
H476 H 0.07056 0.66515 0.43197 0.0
H477 H 0.07152 0.65506 0.29131 0.0
C478 C 0.10784 0.65193 0.21786 0.0
C479 C 0.1281 0.65083 0.18735 0.0
C480 C 0.10793 0.6596 0.2969 0.0
C481 C 0.14844 0.65744 0.23712 0.0
C482 C 0.14873 0.66522 0.31559 0.0
C483 C 0.12818 0.67287 0.42637 0.0
C484 C 0.10714 0.67208 0.45858 0.0
C485 C 0.12853 0.66627 0.34626 0.0
C486 C 0.08701 0.66602 0.40843 0.0
C487 C 0.08748 0.66007 0.32817 0.0
H488 H 0.47045 0.14247 0.58764 0.0
H489 H 0.4063 0.07131 0.55329 0.0
H490 H 0.41739 0.07146 0.41317 0.0
H491 H 0.44719 0.09017 0.30417 0.0
H492 H 0.51175 0.16094 0.33936 0.0
H493 H 0.49905 0.16217 0.47643 0.0
C494 C 0.45857 0.12724 0.54908 0.0
C495 C 0.43748 0.10696 0.58075 0.0
C496 C 0.46546 0.1271 0.4693 0.0
C497 C 0.42257 0.08718 0.53025 0.0
C498 C 0.429 0.08717 0.4503 0.0
C499 C 0.45819 0.10613 0.34102 0.0
C500 C 0.48019 0.12561 0.31098 0.0
C501 C 0.4507 0.10678 0.41968 0.0
C502 C 0.49473 0.14568 0.361 0.0
C503 C 0.4874 0.14648 0.43923 0.0
H504 H 0.49674 0.62637 0.27401 0.0
H505 H 0.56795 0.65408 0.38311 0.0
H506 H 0.58771 0.66926 0.25619 0.0
H507 H 0.58523 0.67566 0.11272 0.0
H508 H 0.51483 0.65487 0.00875 0.0
H509 H 0.49456 0.6372 0.13525 0.0
C510 C 0.51657 0.63554 0.27004 0.0
C511 C 0.5305 0.63728 0.33776 0.0
C512 C 0.52815 0.64627 0.19777 0.0
C513 C 0.55629 0.65022 0.33175 0.0
C514 C 0.56786 0.65975 0.25904 0.0
C515 C 0.56552 0.66762 0.11851 0.0
C516 C 0.55157 0.66658 0.05218 0.0
C517 C 0.55399 0.65791 0.1917 0.0
C518 C 0.52601 0.65616 0.05968 0.0
C519 C 0.51435 0.64579 0.13165 0.0
H520 H 0.8637 0.488 0.40486 0.0
H521 H 0.92117 0.55468 0.5113 0.0
H522 H 0.93051 0.57483 0.38367 0.0
H523 H 0.92192 0.57431 0.2404 0.0
H524 H 0.85985 0.51047 0.13898 0.0
H525 H 0.85211 0.48897 0.26611 0.0
C526 C 0.87842 0.50688 0.40025 0.0
C527 C 0.89268 0.519 0.46768 0.0
C528 C 0.88242 0.51927 0.3275 0.0
C529 C 0.91106 0.54383 0.46052 0.0
C530 C 0.91604 0.55583 0.3873 0.0
C531 C 0.90647 0.55586 0.24694 0.0
C532 C 0.89141 0.54403 0.18128 0.0
C533 C 0.90179 0.54378 0.32049 0.0
C534 C 0.87144 0.52009 0.18958 0.0
C535 C 0.86717 0.50768 0.26186 0.0
H536 H 0.34202 0.8648 0.37643 0.0
H537 H 0.34164 0.9326 0.41027 0.0
H538 H 0.35296 0.93364 0.55047 0.0
H539 H 0.36678 0.91734 0.65917 0.0
H540 H 0.36797 0.85004 0.62395 0.0
H541 H 0.35339 0.84726 0.48719 0.0
C542 C 0.34388 0.87955 0.41477 0.0
C543 C 0.34096 0.8986 0.3829 0.0
C544 C 0.35114 0.88044 0.49443 0.0
C545 C 0.34375 0.9177 0.43336 0.0
C546 C 0.35041 0.91841 0.51335 0.0
C547 C 0.36326 0.90174 0.6224 0.0
C548 C 0.36809 0.88372 0.6522 0.0
C549 C 0.35474 0.90019 0.54394 0.0
C550 C 0.36443 0.86418 0.60237 0.0
C551 C 0.35592 0.86248 0.52437 0.0
H552 H 0.46307 0.37171 0.77164 0.0
H553 H 0.52903 0.36819 0.7342 0.0
H554 H 0.51662 0.35462 0.59664 0.0
H555 H 0.48791 0.34541 0.48594 0.0
H556 H 0.4225 0.35011 0.52214 0.0
H557 H 0.43324 0.36042 0.6628 0.0
C558 C 0.47444 0.36739 0.73413 0.0
C559 C 0.49674 0.37055 0.76354 0.0
C560 C 0.46715 0.35954 0.65524 0.0
C561 C 0.51177 0.3659 0.7129 0.0
C562 C 0.50462 0.35799 0.63445 0.0
C563 C 0.47569 0.34813 0.52496 0.0
C564 C 0.45435 0.34686 0.49376 0.0
C565 C 0.4824 0.35485 0.60491 0.0
C566 C 0.43898 0.35089 0.54486 0.0
C567 C 0.44521 0.35696 0.62508 0.0
H568 H 0.13652 0.45646 0.05909 0.0
H569 H 0.11728 0.51038 0.9859 0.0
H570 H 0.11743 0.49919 0.84627 0.0
H571 H 0.12212 0.47376 0.7461 0.0
H572 H 0.13968 0.41846 0.81762 0.0
H573 H 0.14042 0.43014 0.95789 0.0
C574 C 0.13162 0.46527 0.01307 0.0
C575 C 0.12615 0.48376 0.03332 0.0
C576 C 0.13146 0.45852 0.93285 0.0
C577 C 0.1213 0.49594 0.97205 0.0
C578 C 0.12134 0.48952 0.89223 0.0
C579 C 0.12617 0.46419 0.7921 0.0
C580 C 0.13087 0.44522 0.77122 0.0
C581 C 0.1263 0.4708 0.87211 0.0
C582 C 0.13597 0.43308 0.83197 0.0
C583 C 0.13639 0.43976 0.91213 0.0
H584 H 0.67188 0.14187 0.87357 0.0
H585 H 0.66098 0.06938 0.91212 0.0
H586 H 0.65236 0.07173 0.05347 0.0
H587 H 0.64447 0.09294 0.16282 0.0
H588 H 0.65329 0.16454 0.12277 0.0
H589 H 0.66554 0.16375 0.98448 0.0
C590 C 0.66821 0.12683 0.91334 0.0
C591 C 0.66734 0.10557 0.88273 0.0
C592 C 0.66236 0.12795 0.99374 0.0
C593 C 0.66193 0.08599 0.93453 0.0
C594 C 0.65683 0.08726 0.01514 0.0
C595 C 0.64962 0.1086 0.12445 0.0
C596 C 0.64837 0.12895 0.15337 0.0
C597 C 0.65648 0.10793 0.04498 0.0
C598 C 0.65413 0.14868 0.10183 0.0
C599 C 0.66126 0.14829 0.02294 0.0
H600 H 0.48683 0.60944 0.96237 0.0
H601 H 0.45217 0.57873 0.73569 0.0
H602 H 0.41709 0.54582 0.80507 0.0
H603 H 0.3973 0.52445 0.92882 0.0
H604 H 0.43192 0.55458 0.15594 0.0
H605 H 0.46597 0.58909 0.08719 0.0
C606 C 0.47155 0.59566 0.92793 0.0
C607 C 0.47229 0.59658 0.84363 0.0
C608 C 0.45149 0.57656 0.9682 0.0
C609 C 0.45225 0.57848 0.8004 0.0
C610 C 0.43216 0.55958 0.84007 0.0
C611 C 0.41219 0.5386 0.96366 0.0
C612 C 0.41205 0.53676 0.04768 0.0
C613 C 0.43176 0.55825 0.9238 0.0
C614 C 0.43151 0.55544 0.09137 0.0
C615 C 0.45103 0.57516 0.05203 0.0
H616 H 0.8769 0.39347 0.07711 0.0
H617 H 0.88062 0.43078 0.29811 0.0
H618 H 0.87854 0.46304 0.22346 0.0
H619 H 0.87771 0.48158 0.09533 0.0
H620 H 0.87416 0.44418 0.8747 0.0
H621 H 0.87403 0.41092 0.94982 0.0
C622 C 0.87711 0.40855 0.10929 0.0
C623 C 0.87906 0.4097 0.19334 0.0
C624 C 0.876 0.42705 0.06605 0.0
C625 C 0.87918 0.42939 0.23361 0.0
C626 C 0.87803 0.44788 0.19091 0.0
C627 C 0.8767 0.46608 0.06351 0.0
C628 C 0.87603 0.4655 0.97924 0.0
C629 C 0.87674 0.44704 0.10707 0.0
C630 C 0.87466 0.44517 0.93935 0.0
C631 C 0.87466 0.42615 0.98229 0.0
H632 H 0.4016 0.88101 0.2823 0.0
H633 H 0.43661 0.88544 0.05582 0.0
H634 H 0.47012 0.88429 0.12488 0.0
H635 H 0.48992 0.88293 0.24875 0.0
H636 H 0.45537 0.87874 0.47588 0.0
H637 H 0.42109 0.87869 0.40686 0.0
C638 C 0.4165 0.88163 0.2478 0.0
C639 C 0.41653 0.88339 0.16368 0.0
C640 C 0.43578 0.88098 0.28795 0.0
C641 C 0.43602 0.8841 0.12038 0.0
C642 C 0.45523 0.88344 0.15989 0.0
C643 C 0.47491 0.88195 0.28355 0.0
C644 C 0.47536 0.88094 0.36774 0.0
C645 C 0.45536 0.88203 0.24357 0.0
C646 C 0.45559 0.87956 0.41123 0.0
C647 C 0.43599 0.87957 0.37174 0.0
H648 H 0.529 0.40275 0.39548 0.0
H649 H 0.56284 0.43971 0.17474 0.0
H650 H 0.59636 0.47279 0.25005 0.0
H651 H 0.61533 0.49174 0.37828 0.0
H652 H 0.5813 0.45472 0.59881 0.0
H653 H 0.54854 0.42106 0.5233 0.0
C654 C 0.54371 0.41798 0.3635 0.0
C655 C 0.54327 0.41871 0.27929 0.0
C656 C 0.56286 0.43695 0.40712 0.0
C657 C 0.56263 0.43861 0.23933 0.0
C658 C 0.5818 0.45757 0.28241 0.0
C659 C 0.60082 0.47629 0.41009 0.0
C660 C 0.60081 0.47587 0.49441 0.0
C661 C 0.58199 0.45701 0.3663 0.0
C662 C 0.58182 0.4556 0.53416 0.0
C663 C 0.56305 0.43634 0.49097 0.0
H664 H 0.12805 0.5519 0.45466 0.0
H665 H 0.13578 0.51772 0.66759 0.0
H666 H 0.13669 0.55005 0.74967 0.0
H667 H 0.13348 0.5872 0.76279 0.0
H668 H 0.12546 0.62133 0.55025 0.0
H669 H 0.12659 0.59012 0.46739 0.0
C670 C 0.13015 0.55164 0.51888 0.0
C671 C 0.13169 0.53225 0.55444 0.0
C672 C 0.1305 0.57031 0.56647 0.0
C673 C 0.1344 0.53228 0.63809 0.0
C674 C 0.13492 0.5508 0.68547 0.0
C675 C 0.13212 0.5879 0.69837 0.0
C676 C 0.12924 0.60658 0.66334 0.0
C677 C 0.13267 0.56976 0.65052 0.0
C678 C 0.12756 0.60715 0.57942 0.0
C679 C 0.12821 0.58927 0.53162 0.0
H680 H 0.58108 0.12918 0.5784 0.0
H681 H 0.6156 0.12124 0.79019 0.0
H682 H 0.58444 0.12216 0.87363 0.0
H683 H 0.54635 0.12375 0.88737 0.0
H684 H 0.5117 0.13138 0.67545 0.0
H685 H 0.5438 0.13218 0.59249 0.0
C686 C 0.58184 0.12774 0.64277 0.0
C687 C 0.60066 0.12501 0.67738 0.0
C688 C 0.56373 0.12819 0.69105 0.0
C689 C 0.60131 0.12324 0.76127 0.0
C690 C 0.58347 0.12377 0.80945 0.0
C691 C 0.54593 0.12578 0.82316 0.0
C692 C 0.52649 0.12736 0.78817 0.0
C693 C 0.56445 0.12604 0.77508 0.0
C694 C 0.5263 0.12996 0.70452 0.0
C695 C 0.54469 0.13042 0.65664 0.0
H696 H 0.28627 0.49731 0.28105 0.0
H697 H 0.24983 0.42449 0.18064 0.0
H698 H 0.21017 0.41828 0.22713 0.0
H699 H 0.1859 0.43357 0.29902 0.0
H700 H 0.22304 0.50556 0.40502 0.0
H701 H 0.26254 0.51191 0.35641 0.0
C702 C 0.26965 0.48 0.27001 0.0
C703 C 0.27096 0.46132 0.228 0.0
C704 C 0.24713 0.47632 0.29919 0.0
C705 C 0.24925 0.4392 0.21243 0.0
C706 C 0.22662 0.43557 0.23966 0.0
C707 C 0.20277 0.45043 0.31223 0.0
C708 C 0.20185 0.469 0.35616 0.0
C709 C 0.22536 0.45392 0.28377 0.0
C710 C 0.22358 0.49098 0.37218 0.0
C711 C 0.24605 0.49465 0.34388 0.0
H712 H 0.79297 0.28607 0.42761 0.0
H713 H 0.8343 0.25129 0.35927 0.0
H714 H 0.80055 0.21145 0.40296 0.0
H715 H 0.75878 0.18642 0.45972 0.0
H716 H 0.71828 0.22181 0.53064 0.0
H717 H 0.75244 0.26167 0.48976 0.0
C718 C 0.79468 0.26979 0.42338 0.0
C719 C 0.81611 0.27157 0.39101 0.0
C720 C 0.77546 0.24715 0.45008 0.0
C721 C 0.8179 0.25029 0.38382 0.0
C722 C 0.7987 0.22758 0.40929 0.0
C723 C 0.75776 0.203 0.46729 0.0
C724 C 0.73631 0.20144 0.49848 0.0
C725 C 0.77738 0.22578 0.44269 0.0
C726 C 0.73482 0.22281 0.50728 0.0
C727 C 0.75422 0.2455 0.4834 0.0
H728 H 0.5112 0.78774 0.57726 0.0
H729 H 0.58473 0.82581 0.48321 0.0
H730 H 0.59048 0.79141 0.52103 0.0
H731 H 0.57479 0.75074 0.58539 0.0
H732 H 0.50194 0.71398 0.68457 0.0
H733 H 0.49578 0.74775 0.64215 0.0
C734 C 0.52851 0.78851 0.56535 0.0
C735 C 0.54753 0.80927 0.52772 0.0
C736 C 0.53185 0.769 0.58919 0.0
C737 C 0.56974 0.80991 0.51147 0.0
C738 C 0.57309 0.79035 0.53371 0.0
C739 C 0.55769 0.75034 0.59784 0.0
C740 C 0.53886 0.7302 0.63838 0.0
C741 C 0.55436 0.76988 0.57336 0.0
C742 C 0.51666 0.72953 0.65393 0.0
C743 C 0.51313 0.74874 0.62944 0.0
H744 H 0.79293 0.50714 0.73313 0.0
H745 H 0.83431 0.58231 0.81146 0.0
H746 H 0.80058 0.58898 0.77223 0.0
H747 H 0.75867 0.57293 0.71784 0.0
H748 H 0.71747 0.49767 0.64087 0.0
H749 H 0.75178 0.49148 0.67584 0.0
C750 C 0.79458 0.52501 0.74098 0.0
C751 C 0.81595 0.54418 0.7755 0.0
C752 C 0.77517 0.52866 0.7181 0.0
C753 C 0.81786 0.56721 0.78597 0.0
C754 C 0.79865 0.57104 0.76316 0.0
C755 C 0.75746 0.55531 0.70817 0.0
C756 C 0.73582 0.53577 0.67664 0.0
C757 C 0.77716 0.55187 0.72948 0.0
C758 C 0.73412 0.51292 0.66477 0.0
C759 C 0.75366 0.50939 0.68501 0.0
H760 H 0.25721 0.82577 0.95601 0.0
H761 H 0.29744 0.78775 0.98999 0.0
H762 H 0.2628 0.74984 0.93822 0.0
H763 H 0.22149 0.72781 0.8802 0.0
H764 H 0.18003 0.76476 0.85143 0.0
H765 H 0.21489 0.80304 0.90127 0.0
C766 C 0.25811 0.80903 0.95293 0.0
C767 C 0.27964 0.80932 0.97688 0.0
C768 C 0.23813 0.78734 0.92257 0.0
C769 C 0.2809 0.78774 0.97212 0.0
C770 C 0.26121 0.76618 0.94207 0.0
C771 C 0.22008 0.74424 0.88552 0.0
C772 C 0.19821 0.74349 0.86319 0.0
C773 C 0.23983 0.76582 0.9165 0.0
C774 C 0.19674 0.76497 0.86827 0.0
C775 C 0.21657 0.78676 0.8974 0.0
H776 H 0.44037 0.25931 0.07402 0.0
H777 H 0.51871 0.29744 0.10591 0.0
H778 H 0.52034 0.26156 0.05732 0.0
H779 H 0.4996 0.21976 0.00244 0.0
H780 H 0.4211 0.18055 0.97504 0.0
H781 H 0.4193 0.21656 0.02249 0.0
C782 C 0.45767 0.25951 0.07111 0.0
C783 C 0.47941 0.2808 0.09345 0.0
C784 C 0.45843 0.23882 0.04255 0.0
C785 C 0.50181 0.28112 0.08906 0.0
C786 C 0.50274 0.26071 0.06089 0.0
C787 C 0.4821 0.2191 0.00749 0.0
C788 C 0.46049 0.19755 0.98614 0.0
C789 C 0.48121 0.23956 0.03681 0.0
C790 C 0.43797 0.19702 0.99108 0.0
C791 C 0.43694 0.2175 0.01879 0.0
H792 H 0.38921 0.42549 0.04597 0.0
H793 H 0.37572 0.42093 0.29966 0.0
H794 H 0.39687 0.39761 0.31658 0.0
H795 H 0.42227 0.38167 0.26093 0.0
H796 H 0.4381 0.38858 0.00827 0.0
H797 H 0.41279 0.40752 0.98913 0.0
C798 C 0.39055 0.41901 0.10472 0.0
C799 C 0.38109 0.42509 0.17162 0.0
C800 C 0.40332 0.40615 0.11422 0.0
C801 C 0.38317 0.41681 0.24748 0.0
C802 C 0.39521 0.40342 0.25713 0.0
C803 C 0.41988 0.38696 0.20147 0.0
C804 C 0.43213 0.38376 0.1362 0.0
C805 C 0.40586 0.39848 0.1912 0.0
C806 C 0.42899 0.39094 0.05965 0.0
C807 C 0.41453 0.4018 0.04863 0.0
H808 H 0.96172 0.38137 0.45847 0.0
H809 H 0.96807 0.38507 0.20157 0.0
H810 H 0.01266 0.40526 0.21202 0.0
H811 H 0.05001 0.42431 0.29423 0.0
H812 H 0.04383 0.41858 0.55093 0.0
H813 H 0.9991 0.39654 0.54056 0.0
C814 C 0.97289 0.38646 0.4049 0.0
C815 C 0.96163 0.38196 0.32945 0.0
C816 C 0.99856 0.39772 0.41128 0.0
C817 C 0.97629 0.3883 0.26041 0.0
C818 C 1.0018 0.39994 0.26629 0.0
C819 C 0.03885 0.418 0.34782 0.0
C820 C 0.05021 0.42325 0.42322 0.0
C821 C 0.01316 0.40509 0.3414 0.0
C822 C 0.03553 0.4147 0.49215 0.0
C823 C 0.00995 0.40223 0.4863 0.0
H824 H 0.63296 0.03764 0.62898 0.0
H825 H 0.62972 0.05457 0.38121 0.0
H826 H 0.60947 0.01111 0.34716 0.0
H827 H 0.58912 0.96799 0.38943 0.0
H828 H 0.59001 0.95083 0.63807 0.0
H829 H 0.6147 0.99444 0.67003 0.0
C830 C 0.6282 0.03184 0.56736 0.0
C831 C 0.63284 0.04938 0.50782 0.0
C832 C 0.61584 0.00667 0.54843 0.0
C833 C 0.6263 0.04149 0.42834 0.0
C834 C 0.61466 0.0166 0.40874 0.0
C835 C 0.59509 0.97381 0.45035 0.0
C836 C 0.58751 0.95622 0.51146 0.0
C837 C 0.60882 0.99898 0.46853 0.0
C838 C 0.5952 0.96403 0.59023 0.0
C839 C 0.60941 0.98898 0.60849 0.0
H840 H 0.62628 0.58006 0.76736 0.0
H841 H 0.63573 0.59511 0.51426 0.0
H842 H 0.61487 0.61879 0.52496 0.0
H843 H 0.59117 0.6326 0.60388 0.0
H844 H 0.58274 0.61926 0.85737 0.0
H845 H 0.60632 0.59795 0.84928 0.0
C846 C 0.624 0.58876 0.71477 0.0
C847 C 0.63236 0.58557 0.63999 0.0
C848 C 0.61212 0.60261 0.72136 0.0
C849 C 0.62952 0.59722 0.57258 0.0
C850 C 0.61748 0.61071 0.5785 0.0
C851 C 0.59461 0.62513 0.65732 0.0
C852 C 0.58492 0.62713 0.73079 0.0
C853 C 0.60826 0.61309 0.65219 0.0
C854 C 0.59004 0.61794 0.80007 0.0
C855 C 0.60337 0.60563 0.79536 0.0
H856 H 0.04522 0.5964 0.81038 0.0
H857 H 0.04803 0.66608 0.82029 0.0
H858 H 1.00335 0.64515 0.84075 0.0
H859 H 0.96328 0.60641 0.85493 0.0
H860 H 0.96114 0.53722 0.8286 0.0
H861 H 1.00567 0.55838 0.81537 0.0
C862 C 0.03598 0.60694 0.8173 0.0
C863 C 0.04969 0.63262 0.81497 0.0
C864 C 0.01043 0.5948 0.82593 0.0
C865 C 0.03768 0.64623 0.82227 0.0
C866 C 0.01221 0.63427 0.834 0.0
C867 C 0.97269 0.59611 0.84646 0.0
C868 C 0.95909 0.57034 0.84336 0.0
C869 C 0.99835 0.6085 0.83591 0.0
C870 C 0.97131 0.55708 0.8311 0.0
C871 C 0.99674 0.56915 0.82368 0.0
H872 H 0.4206 0.04869 0.06249 0.0
H873 H 0.41243 0.04006 0.80665 0.0
H874 H 0.39109 0.99549 0.82117 0.0
H875 H 0.37794 0.95908 0.90603 0.0
H876 H 0.38416 0.9676 0.16221 0.0
H877 H 0.40285 0.01202 0.14819 0.0
C878 C 0.41385 0.03703 0.01004 0.0
C879 C 0.41831 0.04767 0.9336 0.0
C880 C 0.40138 0.01139 0.01885 0.0
C881 C 0.4092 0.03234 0.86619 0.0
C882 C 0.39712 0.00684 0.8744 0.0
C883 C 0.38315 0.97067 0.95875 0.0
C884 C 0.37994 0.96011 0.03496 0.0
C885 C 0.39361 0.99618 0.95031 0.0
C886 C 0.38644 0.97528 0.10286 0.0
C887 C 0.39724 1.0007 0.09489 0.0
loop_
_geom_bond_atom_site_label_1
_geom_bond_atom_site_label_2
_geom_bond_distance
_geom_bond_site_symmetry_2
_ccdc_geom_bond_type
Co0 O3 1.970 . S
Co0 N17 1.989 . S
Co0 O25 1.967 . S
Co0 O32 1.920 1_554 S
Co1 O4 1.966 . S
Co1 N10 2.022 . S
Co1 N18 1.993 . S
Co1 O26 1.941 . S
C2 O3 1.258 . S
C2 O4 1.263 . S
O3 Co0 1.970 . S
O3 C2 1.258 . S
O4 Co1 1.966 . S
O4 C2 1.263 . S
C5 O6 1.235 . S
C5 O32 1.289 . S
O6 C5 1.235 . S
C7 C9 1.400 . S
C7 N10 1.351 . S
C7 C12 1.501 . S
C8 C9 1.387 . S
C8 N11 1.341 . S
C9 C7 1.400 . S
C9 C8 1.387 . S
N10 Co1 2.022 . S
N10 C7 1.351 . S
N10 N11 1.365 . S
N11 C8 1.341 . S
N11 N10 1.365 . S
N11 H31 0.862 . S
C12 C7 1.501 . S
C12 H13 0.961 . S
C12 H14 0.961 . S
C12 H15 0.960 . S
H13 C12 0.961 . S
H14 C12 0.961 . S
H15 C12 0.960 . S
C16 N17 1.342 . S
C16 C20 1.401 . S
C16 C21 1.499 . S
N17 Co0 1.989 . S
N17 C16 1.342 . S
N17 N18 1.388 . S
N18 Co1 1.993 . S
N18 N17 1.388 . S
N18 C19 1.346 . S
C19 N18 1.346 . S
C19 C20 1.396 . S
C19 C29 1.510 . S
C20 C16 1.401 . S
C20 C19 1.396 . S
C21 C16 1.499 . S
C21 H22 0.959 1_554 S
C21 H23 0.960 . S
C21 H24 0.961 1_554 S
H22 C21 0.959 1_556 S
H23 C21 0.960 . S
H24 C21 0.961 1_556 S
O25 Co0 1.967 . S
O25 C33 1.258 . S
O26 Co1 1.941 . S
O26 C33 1.266 . S
H27 C29 0.959 . S
H28 C29 0.961 . S
C29 C19 1.510 . S
C29 H27 0.959 . S
C29 H28 0.961 . S
C29 H30 0.960 . S
H30 C29 0.960 . S
H31 N11 0.862 . S
O32 Co0 1.920 1_556 S
O32 C5 1.289 . S
C33 O25 1.258 . S
C33 O26 1.266 . S
Co34 O37 1.970 . S
Co34 N51 1.989 . S
Co34 O59 1.967 . S
Co34 O66 1.920 . S
Co35 O38 1.966 . S
Co35 N44 2.022 . S
Co35 N52 1.993 . S
Co35 O60 1.941 . S
C36 O37 1.258 . S
C36 O38 1.263 . S
O37 Co34 1.970 . S
O37 C36 1.258 . S
O38 Co35 1.966 . S
O38 C36 1.263 . S
C39 O40 1.235 . S
C39 O66 1.289 . S
O40 C39 1.235 . S
C41 C43 1.400 . S
C41 N44 1.351 . S
C41 C46 1.501 . S
C42 C43 1.387 . S
C42 N45 1.341 . S
C43 C41 1.400 . S
C43 C42 1.387 . S
N44 Co35 2.022 . S
N44 C41 1.351 . S
N44 N45 1.365 . S
N45 C42 1.341 . S
N45 N44 1.365 . S
N45 H65 0.862 . S
C46 C41 1.501 . S
C46 H47 0.961 . S
C46 H48 0.961 . S
C46 H49 0.960 . S
H47 C46 0.961 . S
H48 C46 0.961 . S
H49 C46 0.960 . S
C50 N51 1.342 . S
C50 C54 1.401 . S
C50 C55 1.499 . S
N51 Co34 1.989 . S
N51 C50 1.342 . S
N51 N52 1.388 . S
N52 Co35 1.993 . S
N52 N51 1.388 . S
N52 C53 1.346 . S
C53 N52 1.346 . S
C53 C54 1.396 . S
C53 C63 1.510 . S
C54 C50 1.401 . S
C54 C53 1.396 . S
C55 C50 1.499 . S
C55 H56 0.959 . S
C55 H57 0.960 . S
C55 H58 0.961 . S
H56 C55 0.959 . S
H57 C55 0.960 . S
H58 C55 0.961 . S
O59 Co34 1.967 . S
O59 C67 1.258 . S
O60 Co35 1.941 . S
O60 C67 1.266 . S
H61 C63 0.959 . S
H62 C63 0.961 . S
C63 C53 1.510 . S
C63 H61 0.959 . S
C63 H62 0.961 . S
C63 H64 0.960 . S
H64 C63 0.960 . S
H65 N45 0.862 . S
O66 Co34 1.920 . S
O66 C39 1.289 . S
C67 O59 1.258 . S
C67 O60 1.266 . S
Co68 O71 1.970 . S
Co68 N85 1.989 . S
Co68 O93 1.967 . S
Co68 O100 1.920 . S
Co69 O72 1.966 . S
Co69 N78 2.022 . S
Co69 N86 1.993 . S
Co69 O94 1.941 . S
C70 O71 1.258 . S
C70 O72 1.263 . S
O71 Co68 1.970 . S
O71 C70 1.258 . S
O72 Co69 1.966 . S
O72 C70 1.263 . S
C73 O74 1.235 . S
C73 O100 1.289 . S
O74 C73 1.235 . S
C75 C77 1.400 . S
C75 N78 1.351 . S
C75 C80 1.501 . S
C76 C77 1.387 . S
C76 N79 1.341 . S
C77 C75 1.400 . S
C77 C76 1.387 . S
N78 Co69 2.022 . S
N78 C75 1.351 . S
N78 N79 1.365 . S
N79 C76 1.341 . S
N79 N78 1.365 . S
N79 H99 0.862 . S
C80 C75 1.501 . S
C80 H81 0.961 . S
C80 H82 0.961 . S
C80 H83 0.960 . S
H81 C80 0.961 . S
H82 C80 0.961 . S
H83 C80 0.960 . S
C84 N85 1.342 . S
C84 C88 1.401 . S
C84 C89 1.499 . S
N85 Co68 1.989 . S
N85 C84 1.342 . S
N85 N86 1.388 . S
N86 Co69 1.993 . S
N86 N85 1.388 . S
N86 C87 1.346 . S
C87 N86 1.346 . S
C87 C88 1.396 . S
C87 C97 1.510 . S
C88 C84 1.401 . S
C88 C87 1.396 . S
C89 C84 1.499 . S
C89 H90 0.959 . S
C89 H91 0.960 . S
C89 H92 0.961 . S
H90 C89 0.959 . S
H91 C89 0.960 . S
H92 C89 0.961 . S
O93 Co68 1.967 . S
O93 C101 1.258 . S
O94 Co69 1.941 . S
O94 C101 1.266 . S
H95 C97 0.959 . S
H96 C97 0.961 . S
C97 C87 1.510 . S
C97 H95 0.959 . S
C97 H96 0.961 . S
C97 H98 0.960 . S
H98 C97 0.960 . S
H99 N79 0.862 . S
O100 Co68 1.920 . S
O100 C73 1.289 . S
C101 O93 1.258 . S
C101 O94 1.266 . S
Co102 O105 1.970 . S
Co102 N119 1.989 . S
Co102 O127 1.967 . S
Co102 O134 1.920 . S
Co103 O106 1.966 . S
Co103 N112 2.022 . S
Co103 N120 1.993 . S
Co103 O128 1.941 . S
C104 O105 1.258 . S
C104 O106 1.263 . S
O105 Co102 1.970 . S
O105 C104 1.258 . S
O106 Co103 1.966 . S
O106 C104 1.263 . S
C107 O108 1.235 . S
C107 O134 1.289 . S
O108 C107 1.235 . S
C109 C111 1.400 . S
C109 N112 1.351 . S
C109 C114 1.501 . S
C110 C111 1.387 . S
C110 N113 1.341 . S
C111 C109 1.400 . S
C111 C110 1.387 . S
N112 Co103 2.022 . S
N112 C109 1.351 . S
N112 N113 1.365 . S
N113 C110 1.341 . S
N113 N112 1.365 . S
N113 H133 0.862 . S
C114 C109 1.501 . S
C114 H115 0.961 . S
C114 H116 0.961 . S
C114 H117 0.960 . S
H115 C114 0.961 . S
H116 C114 0.961 . S
H117 C114 0.960 . S
C118 N119 1.342 . S
C118 C122 1.401 . S
C118 C123 1.499 . S
N119 Co102 1.989 . S
N119 C118 1.342 . S
N119 N120 1.388 . S
N120 Co103 1.993 . S
N120 N119 1.388 . S
N120 C121 1.346 . S
C121 N120 1.346 . S
C121 C122 1.396 . S
C121 C131 1.510 . S
C122 C118 1.401 . S
C122 C121 1.396 . S
C123 C118 1.499 . S
C123 H124 0.959 . S
C123 H125 0.960 . S
C123 H126 0.961 . S
H124 C123 0.959 . S
H125 C123 0.960 . S
H126 C123 0.961 . S
O127 Co102 1.967 . S
O127 C135 1.258 . S
O128 Co103 1.941 . S
O128 C135 1.266 . S
H129 C131 0.959 . S
H130 C131 0.961 . S
C131 C121 1.510 . S
C131 H129 0.959 . S
C131 H130 0.961 . S
C131 H132 0.960 . S
H132 C131 0.960 . S
H133 N113 0.862 . S
O134 Co102 1.920 . S
O134 C107 1.289 . S
C135 O127 1.258 . S
C135 O128 1.266 . S
Co136 O139 1.970 . S
Co136 N153 1.989 . S
Co136 O161 1.967 . S
Co136 O168 1.920 . S
Co137 O140 1.966 . S
Co137 N146 2.022 1_556 S
Co137 N154 1.993 . S
Co137 O162 1.941 . S
C138 O139 1.258 . S
C138 O140 1.263 . S
O139 Co136 1.970 . S
O139 C138 1.258 . S
O140 Co137 1.966 . S
O140 C138 1.263 . S
C141 O142 1.235 . S
C141 O168 1.289 . S
O142 C141 1.235 . S
C143 C145 1.400 . S
C143 N146 1.351 . S
C143 C148 1.501 . S
C144 C145 1.387 . S
C144 N147 1.341 . S
C145 C143 1.400 . S
C145 C144 1.387 . S
N146 Co137 2.022 1_554 S
N146 C143 1.351 . S
N146 N147 1.365 . S
N147 C144 1.341 . S
N147 N146 1.365 . S
N147 H167 0.862 . S
C148 C143 1.501 . S
C148 H149 0.961 1_554 S
C148 H150 0.961 . S
C148 H151 0.960 . S
H149 C148 0.961 1_556 S
H150 C148 0.961 . S
H151 C148 0.960 . S
C152 N153 1.342 . S
C152 C156 1.401 . S
C152 C157 1.499 . S
N153 Co136 1.989 . S
N153 C152 1.342 . S
N153 N154 1.388 . S
N154 Co137 1.993 . S
N154 N153 1.388 . S
N154 C155 1.346 . S
C155 N154 1.346 . S
C155 C156 1.396 . S
C155 C165 1.510 . S
C156 C152 1.401 . S
C156 C155 1.396 . S
C157 C152 1.499 . S
C157 H158 0.959 . S
C157 H159 0.960 . S
C157 H160 0.961 . S
H158 C157 0.959 . S
H159 C157 0.960 . S
H160 C157 0.961 . S
O161 Co136 1.967 . S
O161 C169 1.258 . S
O162 Co137 1.941 . S
O162 C169 1.266 . S
H163 C165 0.959 . S
H164 C165 0.958 1_554 S
C165 C155 1.510 . S
C165 H163 0.959 . S
C165 H164 0.958 1_556 S
C165 H166 0.960 1_556 S
H166 C165 0.960 1_554 S
H167 N147 0.862 . S
O168 Co136 1.920 . S
O168 C141 1.289 . S
C169 O161 1.258 . S
C169 O162 1.266 . S
Co170 O173 1.970 . S
Co170 N187 1.989 . S
Co170 O195 1.967 . S
Co170 O202 1.920 . S
Co171 O174 1.966 . S
Co171 N180 2.022 . S
Co171 N188 1.993 . S
Co171 O196 1.941 . S
C172 O173 1.258 . S
C172 O174 1.263 1_556 S
O173 Co170 1.970 . S
O173 C172 1.258 . S
O174 Co171 1.966 . S
O174 C172 1.263 1_554 S
C175 O176 1.235 . S
C175 O202 1.289 . S
O176 C175 1.235 . S
C177 C179 1.400 . S
C177 N180 1.351 . S
C177 C182 1.501 . S
C178 C179 1.387 . S
C178 N181 1.341 . S
C179 C177 1.400 . S
C179 C178 1.387 . S
N180 Co171 2.022 . S
N180 C177 1.351 . S
N180 N181 1.365 . S
N181 C178 1.341 . S
N181 N180 1.365 . S
N181 H201 0.862 . S
C182 C177 1.501 . S
C182 H183 0.961 . S
C182 H184 0.961 . S
C182 H185 0.960 . S
H183 C182 0.961 . S
H184 C182 0.961 . S
H185 C182 0.960 . S
C186 N187 1.342 . S
C186 C190 1.401 . S
C186 C191 1.499 . S
N187 Co170 1.989 . S
N187 C186 1.342 . S
N187 N188 1.388 1_556 S
N188 Co171 1.993 . S
N188 N187 1.388 1_554 S
N188 C189 1.346 . S
C189 N188 1.346 . S
C189 C190 1.396 1_554 S
C189 C199 1.510 . S
C190 C186 1.401 . S
C190 C189 1.396 1_556 S
C191 C186 1.499 . S
C191 H192 0.959 . S
C191 H193 0.960 . S
C191 H194 0.961 . S
H192 C191 0.959 . S
H193 C191 0.960 . S
H194 C191 0.961 . S
O195 Co170 1.967 . S
O195 C203 1.258 . S
O196 Co171 1.941 . S
O196 C203 1.266 1_554 S
H197 C199 0.959 . S
H198 C199 0.961 . S
C199 C189 1.510 . S
C199 H197 0.959 . S
C199 H198 0.961 . S
C199 H200 0.960 . S
H200 C199 0.960 . S
H201 N181 0.862 . S
O202 Co170 1.920 . S
O202 C175 1.289 . S
C203 O195 1.258 . S
C203 O196 1.266 1_556 S
Co204 O207 1.970 . S
Co204 N221 1.989 . S
Co204 O229 1.967 . S
Co204 O236 1.920 . S
Co205 O208 1.966 . S
Co205 N214 2.022 . S
Co205 N222 1.993 . S
Co205 O230 1.941 . S
C206 O207 1.258 . S
C206 O208 1.263 . S
O207 Co204 1.970 . S
O207 C206 1.258 . S
O208 Co205 1.966 . S
O208 C206 1.263 . S
C209 O210 1.235 . S
C209 O236 1.289 . S
O210 C209 1.235 . S
C211 C213 1.400 . S
C211 N214 1.351 . S
C211 C216 1.501 . S
C212 C213 1.387 . S
C212 N215 1.341 . S
C213 C211 1.400 . S
C213 C212 1.387 . S
N214 Co205 2.022 . S
N214 C211 1.351 . S
N214 N215 1.365 . S
N215 C212 1.341 . S
N215 N214 1.365 . S
N215 H235 0.862 . S
C216 C211 1.501 . S
C216 H217 0.961 . S
C216 H218 0.961 . S
C216 H219 0.960 . S
H217 C216 0.961 . S
H218 C216 0.961 . S
H219 C216 0.960 . S
C220 N221 1.342 . S
C220 C224 1.401 . S
C220 C225 1.499 . S
N221 Co204 1.989 . S
N221 C220 1.342 . S
N221 N222 1.388 . S
N222 Co205 1.993 . S
N222 N221 1.388 . S
N222 C223 1.346 . S
C223 N222 1.346 . S
C223 C224 1.396 . S
C223 C233 1.510 . S
C224 C220 1.401 . S
C224 C223 1.396 . S
C225 C220 1.499 . S
C225 H226 0.959 . S
C225 H227 0.960 . S
C225 H228 0.961 . S
H226 C225 0.959 . S
H227 C225 0.960 . S
H228 C225 0.961 . S
O229 Co204 1.967 . S
O229 C237 1.258 . S
O230 Co205 1.941 . S
O230 C237 1.266 . S
H231 C233 0.959 . S
H232 C233 0.961 . S
C233 C223 1.510 . S
C233 H231 0.959 . S
C233 H232 0.961 . S
C233 H234 0.960 . S
H234 C233 0.960 . S
H235 N215 0.862 . S
O236 Co204 1.920 . S
O236 C209 1.289 . S
C237 O229 1.258 . S
C237 O230 1.266 . S
Co238 O241 1.970 . S
Co238 N255 1.989 . S
Co238 O263 1.967 . S
Co238 O270 1.920 1_556 S
Co239 O242 1.966 . S
Co239 N248 2.022 . S
Co239 N256 1.993 . S
Co239 O264 1.941 . S
C240 O241 1.258 . S
C240 O242 1.263 . S
O241 Co238 1.970 . S
O241 C240 1.258 . S
O242 Co239 1.966 . S
O242 C240 1.263 . S
C243 O244 1.235 . S
C243 O270 1.289 . S
O244 C243 1.235 . S
C245 C247 1.400 . S
C245 N248 1.351 . S
C245 C250 1.501 . S
C246 C247 1.387 . S
C246 N249 1.341 . S
C247 C245 1.400 . S
C247 C246 1.387 . S
N248 Co239 2.022 . S
N248 C245 1.351 . S
N248 N249 1.365 . S
N249 C246 1.341 . S
N249 N248 1.365 . S
N249 H269 0.862 . S
C250 C245 1.501 . S
C250 H251 0.961 . S
C250 H252 0.961 . S
C250 H253 0.960 . S
H251 C250 0.961 . S
H252 C250 0.961 . S
H253 C250 0.960 . S
C254 N255 1.342 . S
C254 C258 1.401 . S
C254 C259 1.499 1_556 S
N255 Co238 1.989 . S
N255 C254 1.342 . S
N255 N256 1.388 . S
N256 Co239 1.993 . S
N256 N255 1.388 . S
N256 C257 1.346 . S
C257 N256 1.346 . S
C257 C258 1.396 . S
C257 C267 1.510 . S
C258 C254 1.401 . S
C258 C257 1.396 . S
C259 C254 1.499 1_554 S
C259 H260 0.959 . S
C259 H261 0.960 . S
C259 H262 0.961 . S
H260 C259 0.959 . S
H261 C259 0.960 . S
H262 C259 0.961 . S
O263 Co238 1.967 . S
O263 C271 1.258 . S
O264 Co239 1.941 . S
O264 C271 1.266 . S
H265 C267 0.959 . S
H266 C267 0.961 . S
C267 C257 1.510 . S
C267 H265 0.959 . S
C267 H266 0.961 . S
C267 H268 0.960 . S
H268 C267 0.960 . S
H269 N249 0.862 . S
O270 Co238 1.920 1_554 S
O270 C243 1.289 . S
C271 O263 1.258 . S
C271 O264 1.266 . S
Co272 O275 1.970 . S
Co272 N289 1.989 . S
Co272 O297 1.967 . S
Co272 O304 1.920 . S
Co273 O276 1.966 . S
Co273 N282 2.022 . S
Co273 N290 1.993 . S
Co273 O298 1.941 1_556 S
C274 O275 1.258 . S
C274 O276 1.263 1_554 S
O275 Co272 1.970 . S
O275 C274 1.258 . S
O276 Co273 1.966 . S
O276 C274 1.263 1_556 S
C277 O278 1.235 . S
C277 O304 1.289 . S
O278 C277 1.235 . S
C279 C281 1.400 . S
C279 N282 1.351 . S
C279 C284 1.501 . S
C280 C281 1.387 . S
C280 N283 1.341 . S
C281 C279 1.400 . S
C281 C280 1.387 . S
N282 Co273 2.022 . S
N282 C279 1.351 . S
N282 N283 1.365 . S
N283 C280 1.341 . S
N283 N282 1.365 . S
N283 H303 0.862 . S
C284 C279 1.501 . S
C284 H285 0.961 . S
C284 H286 0.961 . S
C284 H287 0.960 . S
H285 C284 0.961 . S
H286 C284 0.961 . S
H287 C284 0.960 . S
C288 N289 1.342 . S
C288 C292 1.401 . S
C288 C293 1.499 . S
N289 Co272 1.989 . S
N289 C288 1.342 . S
N289 N290 1.388 1_554 S
N290 Co273 1.993 . S
N290 N289 1.388 1_556 S
N290 C291 1.346 . S
C291 N290 1.346 . S
C291 C292 1.396 1_556 S
C291 C301 1.510 . S
C292 C288 1.401 . S
C292 C291 1.396 1_554 S
C293 C288 1.499 . S
C293 H294 0.959 . S
C293 H295 0.960 . S
C293 H296 0.961 . S
H294 C293 0.959 . S
H295 C293 0.960 . S
H296 C293 0.961 . S
O297 Co272 1.967 . S
O297 C305 1.258 . S
O298 Co273 1.941 1_554 S
O298 C305 1.266 . S
H299 C301 0.959 . S
H300 C301 0.961 . S
C301 C291 1.510 . S
C301 H299 0.959 . S
C301 H300 0.961 . S
C301 H302 0.960 . S
H302 C301 0.960 . S
H303 N283 0.862 . S
O304 Co272 1.920 . S
O304 C277 1.289 . S
C305 O297 1.258 . S
C305 O298 1.266 . S
Co306 O309 1.970 . S
Co306 N323 1.989 . S
Co306 O331 1.967 . S
Co306 O338 1.920 . S
Co307 O310 1.966 . S
Co307 N316 2.022 . S
Co307 N324 1.993 . S
Co307 O332 1.941 . S
C308 O309 1.258 . S
C308 O310 1.263 . S
O309 Co306 1.970 . S
O309 C308 1.258 . S
O310 Co307 1.966 . S
O310 C308 1.263 . S
C311 O312 1.235 . S
C311 O338 1.289 . S
O312 C311 1.235 . S
C313 C315 1.400 . S
C313 N316 1.351 1_556 S
C313 C318 1.501 . S
C314 C315 1.387 . S
C314 N317 1.341 . S
C315 C313 1.400 . S
C315 C314 1.387 . S
N316 Co307 2.022 . S
N316 C313 1.351 1_554 S
N316 N317 1.365 1_554 S
N317 C314 1.341 . S
N317 N316 1.365 1_556 S
N317 H337 0.862 . S
C318 C313 1.501 . S
C318 H319 0.961 1_556 S
C318 H320 0.961 . S
C318 H321 0.960 . S
H319 C318 0.961 1_554 S
H320 C318 0.961 . S
H321 C318 0.960 . S
C322 N323 1.342 . S
C322 C326 1.401 . S
C322 C327 1.499 . S
N323 Co306 1.989 . S
N323 C322 1.342 . S
N323 N324 1.388 . S
N324 Co307 1.993 . S
N324 N323 1.388 . S
N324 C325 1.346 . S
C325 N324 1.346 . S
C325 C326 1.396 . S
C325 C335 1.510 . S
C326 C322 1.401 . S
C326 C325 1.396 . S
C327 C322 1.499 . S
C327 H328 0.959 . S
C327 H329 0.960 . S
C327 H330 0.961 . S
H328 C327 0.959 . S
H329 C327 0.960 . S
H330 C327 0.961 . S
O331 Co306 1.967 . S
O331 C339 1.258 . S
O332 Co307 1.941 . S
O332 C339 1.266 . S
H333 C335 0.959 . S
H334 C335 0.961 . S
C335 C325 1.510 . S
C335 H333 0.959 . S
C335 H334 0.961 . S
C335 H336 0.960 . S
H336 C335 0.960 . S
H337 N317 0.862 . S
O338 Co306 1.920 . S
O338 C311 1.289 . S
C339 O331 1.258 . S
C339 O332 1.266 . S
Co340 O343 1.970 . S
Co340 N357 1.989 . S
Co340 O365 1.967 . S
Co340 O372 1.920 . S
Co341 O344 1.966 . S
Co341 N350 2.022 . S
Co341 N358 1.993 . S
Co341 O366 1.941 . S
C342 O343 1.258 . S
C342 O344 1.263 . S
O343 Co340 1.970 . S
O343 C342 1.258 . S
O344 Co341 1.966 . S
O344 C342 1.263 . S
C345 O346 1.235 . S
C345 O372 1.289 . S
O346 C345 1.235 . S
C347 C349 1.400 . S
C347 N350 1.351 . S
C347 C352 1.501 . S
C348 C349 1.387 . S
C348 N351 1.341 . S
C349 C347 1.400 . S
C349 C348 1.387 . S
N350 Co341 2.022 . S
N350 C347 1.351 . S
N350 N351 1.365 . S
N351 C348 1.341 . S
N351 N350 1.365 . S
N351 H371 0.862 . S
C352 C347 1.501 . S
C352 H353 0.961 . S
C352 H354 0.961 . S
C352 H355 0.960 . S
H353 C352 0.961 . S
H354 C352 0.961 . S
H355 C352 0.960 . S
C356 N357 1.342 . S
C356 C360 1.401 . S
C356 C361 1.499 . S
N357 Co340 1.989 . S
N357 C356 1.342 . S
N357 N358 1.388 . S
N358 Co341 1.993 . S
N358 N357 1.388 . S
N358 C359 1.346 . S
C359 N358 1.346 . S
C359 C360 1.396 . S
C359 C369 1.510 . S
C360 C356 1.401 . S
C360 C359 1.396 . S
C361 C356 1.499 . S
C361 H362 0.959 . S
C361 H363 0.960 . S
C361 H364 0.961 . S
H362 C361 0.959 . S
H363 C361 0.960 . S
H364 C361 0.961 . S
O365 Co340 1.967 . S
O365 C373 1.258 . S
O366 Co341 1.941 . S
O366 C373 1.266 . S
H367 C369 0.959 . S
H368 C369 0.961 . S
C369 C359 1.510 . S
C369 H367 0.959 . S
C369 H368 0.961 . S
C369 H370 0.960 . S
H370 C369 0.960 . S
H371 N351 0.862 . S
O372 Co340 1.920 . S
O372 C345 1.289 . S
C373 O365 1.258 . S
C373 O366 1.266 . S
Co374 O377 1.970 . S
Co374 N391 1.989 . S
Co374 O399 1.967 . S
Co374 O406 1.920 . S
Co375 O378 1.966 . S
Co375 N384 2.022 . S
Co375 N392 1.993 . S
Co375 O400 1.941 . S
C376 O377 1.258 . S
C376 O378 1.263 . S
O377 Co374 1.970 . S
O377 C376 1.258 . S
O378 Co375 1.966 . S
O378 C376 1.263 . S
C379 O380 1.235 . S
C379 O406 1.289 . S
O380 C379 1.235 . S
C381 C383 1.400 . S
C381 N384 1.351 . S
C381 C386 1.501 . S
C382 C383 1.387 . S
C382 N385 1.341 . S
C383 C381 1.400 . S
C383 C382 1.387 . S
N384 Co375 2.022 . S
N384 C381 1.351 . S
N384 N385 1.365 . S
N385 C382 1.341 . S
N385 N384 1.365 . S
N385 H405 0.862 . S
C386 C381 1.501 . S
C386 H387 0.961 . S
C386 H388 0.961 . S
C386 H389 0.960 . S
H387 C386 0.961 . S
H388 C386 0.961 . S
H389 C386 0.960 . S
C390 N391 1.342 . S
C390 C394 1.401 . S
C390 C395 1.499 . S
N391 Co374 1.989 . S
N391 C390 1.342 . S
N391 N392 1.388 . S
N392 Co375 1.993 . S
N392 N391 1.388 . S
N392 C393 1.346 . S
C393 N392 1.346 . S
C393 C394 1.396 . S
C393 C403 1.510 . S
C394 C390 1.401 . S
C394 C393 1.396 . S
C395 C390 1.499 . S
C395 H396 0.959 . S
C395 H397 0.960 . S
C395 H398 0.961 . S
H396 C395 0.959 . S
H397 C395 0.960 . S
H398 C395 0.961 . S
O399 Co374 1.967 . S
O399 C407 1.258 . S
O400 Co375 1.941 . S
O400 C407 1.266 . S
H401 C403 0.959 . S
H402 C403 0.961 . S
C403 C393 1.510 . S
C403 H401 0.959 . S
C403 H402 0.961 . S
C403 H404 0.960 . S
H404 C403 0.960 . S
H405 N385 0.862 . S
O406 Co374 1.920 . S
O406 C379 1.289 . S
C407 O399 1.258 . S
C407 O400 1.266 . S
H408 C414 0.930 . S
H409 C417 0.930 . S
H410 C418 0.930 . S
H411 C419 0.930 . S
H412 C422 0.930 . S
H413 C423 0.930 . S
C414 H408 0.930 . S
C414 C415 1.355 . S
C414 C416 1.415 . S
C415 C414 1.355 . S
C415 C417 1.419 . S
C416 C414 1.415 . S
C416 C421 1.425 . S
C416 C423 1.409 . S
C417 H409 0.930 . S
C417 C415 1.419 . S
C417 C418 1.362 . S
C418 H410 0.930 . S
C418 C417 1.362 . S
C418 C421 1.409 . S
C419 H411 0.930 . S
C419 C420 1.355 . S
C419 C421 1.415 . S
C420 C419 1.355 . S
C420 C422 1.419 . S
C421 C416 1.425 . S
C421 C418 1.409 . S
C421 C419 1.415 . S
C422 H412 0.930 . S
C422 C420 1.419 . S
C422 C423 1.362 . S
C423 H413 0.930 . S
C423 C416 1.409 . S
C423 C422 1.362 . S
H424 C430 0.930 . S
H425 C433 0.930 . S
H426 C434 0.930 . S
H427 C435 0.930 . S
H428 C438 0.930 . S
H429 C439 0.930 . S
C430 H424 0.930 . S
C430 C431 1.355 . S
C430 C432 1.415 . S
C431 C430 1.355 . S
C431 C433 1.419 . S
C432 C430 1.415 . S
C432 C437 1.425 . S
C432 C439 1.409 . S
C433 H425 0.930 . S
C433 C431 1.419 . S
C433 C434 1.362 . S
C434 H426 0.930 . S
C434 C433 1.362 . S
C434 C437 1.409 . S
C435 H427 0.930 . S
C435 C436 1.355 . S
C435 C437 1.415 . S
C436 C435 1.355 . S
C436 C438 1.419 . S
C437 C432 1.425 . S
C437 C434 1.409 . S
C437 C435 1.415 . S
C438 H428 0.930 . S
C438 C436 1.419 . S
C438 C439 1.362 . S
C439 H429 0.930 . S
C439 C432 1.409 . S
C439 C438 1.362 . S
H440 C446 0.930 . S
H441 C449 0.930 . S
H442 C450 0.930 1_556 S
H443 C451 0.930 . S
H444 C454 0.930 . S
H445 C455 0.930 . S
C446 H440 0.930 . S
C446 C447 1.355 . S
C446 C448 1.415 . S
C447 C446 1.355 . S
C447 C449 1.419 . S
C448 C446 1.415 . S
C448 C453 1.425 1_554 S
C448 C455 1.409 . S
C449 H441 0.930 . S
C449 C447 1.419 . S
C449 C450 1.362 . S
C450 H442 0.930 1_554 S
C450 C449 1.362 . S
C450 C453 1.409 1_554 S
C451 H443 0.930 . S
C451 C452 1.355 . S
C451 C453 1.415 . S
C452 C451 1.355 . S
C452 C454 1.419 . S
C453 C448 1.425 1_556 S
C453 C450 1.409 1_556 S
C453 C451 1.415 . S
C454 H444 0.930 . S
C454 C452 1.419 . S
C454 C455 1.362 1_556 S
C455 H445 0.930 . S
C455 C448 1.409 . S
C455 C454 1.362 1_554 S
H456 C462 0.930 . S
H457 C465 0.930 . S
H458 C466 0.930 . S
H459 C467 0.930 . S
H460 C470 0.930 . S
H461 C471 0.930 . S
C462 H456 0.930 . S
C462 C463 1.355 . S
C462 C464 1.415 . S
C463 C462 1.355 . S
C463 C465 1.419 . S
C464 C462 1.415 . S
C464 C469 1.425 . S
C464 C471 1.409 . S
C465 H457 0.930 . S
C465 C463 1.419 . S
C465 C466 1.362 . S
C466 H458 0.930 . S
C466 C465 1.362 . S
C466 C469 1.409 . S
C467 H459 0.930 . S
C467 C468 1.355 . S
C467 C469 1.415 . S
C468 C467 1.355 . S
C468 C470 1.419 . S
C469 C464 1.425 . S
C469 C466 1.409 . S
C469 C467 1.415 . S
C470 H460 0.930 . S
C470 C468 1.419 . S
C470 C471 1.362 . S
C471 H461 0.930 . S
C471 C464 1.409 . S
C471 C470 1.362 . S
H472 C478 0.930 . S
H473 C481 0.930 . S
H474 C482 0.930 . S
H475 C483 0.930 . S
H476 C486 0.930 . S
H477 C487 0.930 . S
C478 H472 0.930 . S
C478 C479 1.355 . S
C478 C480 1.415 . S
C479 C478 1.355 . S
C479 C481 1.419 . S
C480 C478 1.415 . S
C480 C485 1.425 . S
C480 C487 1.409 . S
C481 H473 0.930 . S
C481 C479 1.419 . S
C481 C482 1.362 . S
C482 H474 0.930 . S
C482 C481 1.362 . S
C482 C485 1.409 . S
C483 H475 0.930 . S
C483 C484 1.355 . S
C483 C485 1.415 . S
C484 C483 1.355 . S
C484 C486 1.419 . S
C485 C480 1.425 . S
C485 C482 1.409 . S
C485 C483 1.415 . S
C486 H476 0.930 . S
C486 C484 1.419 . S
C486 C487 1.362 . S
C487 H477 0.930 . S
C487 C480 1.409 . S
C487 C486 1.362 . S
H488 C494 0.930 . S
H489 C497 0.930 . S
H490 C498 0.930 . S
H491 C499 0.930 . S
H492 C502 0.930 . S
H493 C503 0.930 . S
C494 H488 0.930 . S
C494 C495 1.355 . S
C494 C496 1.415 . S
C495 C494 1.355 . S
C495 C497 1.419 . S
C496 C494 1.415 . S
C496 C501 1.425 . S
C496 C503 1.409 . S
C497 H489 0.930 . S
C497 C495 1.419 . S
C497 C498 1.362 . S
C498 H490 0.930 . S
C498 C497 1.362 . S
C498 C501 1.409 . S
C499 H491 0.930 . S
C499 C500 1.355 . S
C499 C501 1.415 . S
C500 C499 1.355 . S
C500 C502 1.419 . S
C501 C496 1.425 . S
C501 C498 1.409 . S
C501 C499 1.415 . S
C502 H492 0.930 . S
C502 C500 1.419 . S
C502 C503 1.362 . S
C503 H493 0.930 . S
C503 C496 1.409 . S
C503 C502 1.362 . S
H504 C510 0.930 . S
H505 C513 0.930 . S
H506 C514 0.930 . S
H507 C515 0.930 . S
H508 C518 0.930 1_556 S
H509 C519 0.930 . S
C510 H504 0.930 . S
C510 C511 1.355 . S
C510 C512 1.415 . S
C511 C510 1.355 . S
C511 C513 1.419 . S
C512 C510 1.415 . S
C512 C517 1.425 . S
C512 C519 1.409 . S
C513 H505 0.930 . S
C513 C511 1.419 . S
C513 C514 1.362 . S
C514 H506 0.930 . S
C514 C513 1.362 . S
C514 C517 1.409 . S
C515 H507 0.930 . S
C515 C516 1.355 . S
C515 C517 1.415 . S
C516 C515 1.355 . S
C516 C518 1.419 . S
C517 C512 1.425 . S
C517 C514 1.409 . S
C517 C515 1.415 . S
C518 H508 0.930 1_554 S
C518 C516 1.419 . S
C518 C519 1.362 . S
C519 H509 0.930 . S
C519 C512 1.409 . S
C519 C518 1.362 . S
H520 C526 0.930 . S
H521 C529 0.930 . S
H522 C530 0.930 . S
H523 C531 0.930 . S
H524 C534 0.930 . S
H525 C535 0.930 . S
C526 H520 0.930 . S
C526 C527 1.355 . S
C526 C528 1.415 . S
C527 C526 1.355 . S
C527 C529 1.419 . S
C528 C526 1.415 . S
C528 C533 1.425 . S
C528 C535 1.409 . S
C529 H521 0.930 . S
C529 C527 1.419 . S
C529 C530 1.362 . S
C530 H522 0.930 . S
C530 C529 1.362 . S
C530 C533 1.409 . S
C531 H523 0.930 . S
C531 C532 1.355 . S
C531 C533 1.415 . S
C532 C531 1.355 . S
C532 C534 1.419 . S
C533 C528 1.425 . S
C533 C530 1.409 . S
C533 C531 1.415 . S
C534 H524 0.930 . S
C534 C532 1.419 . S
C534 C535 1.362 . S
C535 H525 0.930 . S
C535 C528 1.409 . S
C535 C534 1.362 . S
H536 C542 0.930 . S
H537 C545 0.930 . S
H538 C546 0.930 . S
H539 C547 0.930 . S
H540 C550 0.930 . S
H541 C551 0.930 . S
C542 H536 0.930 . S
C542 C543 1.355 . S
C542 C544 1.415 . S
C543 C542 1.355 . S
C543 C545 1.419 . S
C544 C542 1.415 . S
C544 C549 1.425 . S
C544 C551 1.409 . S
C545 H537 0.930 . S
C545 C543 1.419 . S
C545 C546 1.362 . S
C546 H538 0.930 . S
C546 C545 1.362 . S
C546 C549 1.409 . S
C547 H539 0.930 . S
C547 C548 1.355 . S
C547 C549 1.415 . S
C548 C547 1.355 . S
C548 C550 1.419 . S
C549 C544 1.425 . S
C549 C546 1.409 . S
C549 C547 1.415 . S
C550 H540 0.930 . S
C550 C548 1.419 . S
C550 C551 1.362 . S
C551 H541 0.930 . S
C551 C544 1.409 . S
C551 C550 1.362 . S
H552 C558 0.930 . S
H553 C561 0.930 . S
H554 C562 0.930 . S
H555 C563 0.930 . S
H556 C566 0.930 . S
H557 C567 0.930 . S
C558 H552 0.930 . S
C558 C559 1.355 . S
C558 C560 1.415 . S
C559 C558 1.355 . S
C559 C561 1.419 . S
C560 C558 1.415 . S
C560 C565 1.425 . S
C560 C567 1.409 . S
C561 H553 0.930 . S
C561 C559 1.419 . S
C561 C562 1.362 . S
C562 H554 0.930 . S
C562 C561 1.362 . S
C562 C565 1.409 . S
C563 H555 0.930 . S
C563 C564 1.355 . S
C563 C565 1.415 . S
C564 C563 1.355 . S
C564 C566 1.419 . S
C565 C560 1.425 . S
C565 C562 1.409 . S
C565 C563 1.415 . S
C566 H556 0.930 . S
C566 C564 1.419 . S
C566 C567 1.362 . S
C567 H557 0.930 . S
C567 C560 1.409 . S
C567 C566 1.362 . S
H568 C574 0.930 . S
H569 C577 0.930 . S
H570 C578 0.930 . S
H571 C579 0.930 . S
H572 C582 0.930 . S
H573 C583 0.930 . S
C574 H568 0.930 . S
C574 C575 1.355 . S
C574 C576 1.415 . S
C575 C574 1.355 . S
C575 C577 1.419 . S
C576 C574 1.415 . S
C576 C581 1.425 . S
C576 C583 1.409 . S
C577 H569 0.930 . S
C577 C575 1.419 . S
C577 C578 1.362 . S
C578 H570 0.930 . S
C578 C577 1.362 . S
C578 C581 1.409 . S
C579 H571 0.930 . S
C579 C580 1.355 . S
C579 C581 1.415 . S
C580 C579 1.355 . S
C580 C582 1.419 . S
C581 C576 1.425 . S
C581 C578 1.409 . S
C581 C579 1.415 . S
C582 H572 0.930 . S
C582 C580 1.419 . S
C582 C583 1.362 . S
C583 H573 0.930 . S
C583 C576 1.409 . S
C583 C582 1.362 . S
H584 C590 0.930 . S
H585 C593 0.930 . S
H586 C594 0.930 . S
H587 C595 0.930 . S
H588 C598 0.930 . S
H589 C599 0.930 . S
C590 H584 0.930 . S
C590 C591 1.355 . S
C590 C592 1.415 . S
C591 C590 1.355 . S
C591 C593 1.419 . S
C592 C590 1.415 . S
C592 C597 1.425 1_556 S
C592 C599 1.409 1_556 S
C593 H585 0.930 . S
C593 C591 1.419 . S
C593 C594 1.362 . S
C594 H586 0.930 . S
C594 C593 1.362 . S
C594 C597 1.409 1_556 S
C595 H587 0.930 . S
C595 C596 1.355 . S
C595 C597 1.415 . S
C596 C595 1.355 . S
C596 C598 1.419 . S
C597 C592 1.425 1_554 S
C597 C594 1.409 1_554 S
C597 C595 1.415 . S
C598 H588 0.930 . S
C598 C596 1.419 . S
C598 C599 1.362 . S
C599 H589 0.930 . S
C599 C592 1.409 1_554 S
C599 C598 1.362 . S
H600 C606 0.930 . S
H601 C609 0.930 . S
H602 C610 0.930 . S
H603 C611 0.930 . S
H604 C614 0.930 . S
H605 C615 0.930 . S
C606 H600 0.930 . S
C606 C607 1.355 . S
C606 C608 1.415 . S
C607 C606 1.355 . S
C607 C609 1.419 . S
C608 C606 1.415 . S
C608 C613 1.425 . S
C608 C615 1.409 . S
C609 H601 0.930 . S
C609 C607 1.419 . S
C609 C610 1.362 . S
C610 H602 0.930 . S
C610 C609 1.362 . S
C610 C613 1.409 . S
C611 H603 0.930 . S
C611 C612 1.355 1_556 S
C611 C613 1.415 . S
C612 C611 1.355 1_554 S
C612 C614 1.419 . S
C613 C608 1.425 . S
C613 C610 1.409 . S
C613 C611 1.415 . S
C614 H604 0.930 . S
C614 C612 1.419 . S
C614 C615 1.362 1_554 S
C615 H605 0.930 . S
C615 C608 1.409 . S
C615 C614 1.362 1_556 S
H616 C622 0.930 . S
H617 C625 0.930 . S
H618 C626 0.930 . S
H619 C627 0.930 . S
H620 C630 0.930 . S
H621 C631 0.930 . S
C622 H616 0.930 . S
C622 C623 1.355 . S
C622 C624 1.415 . S
C623 C622 1.355 . S
C623 C625 1.419 . S
C624 C622 1.415 . S
C624 C629 1.425 . S
C624 C631 1.409 . S
C625 H617 0.930 . S
C625 C623 1.419 . S
C625 C626 1.362 . S
C626 H618 0.930 . S
C626 C625 1.362 . S
C626 C629 1.409 . S
C627 H619 0.930 . S
C627 C628 1.355 1_554 S
C627 C629 1.415 . S
C628 C627 1.355 1_556 S
C628 C630 1.419 . S
C629 C624 1.425 . S
C629 C626 1.409 . S
C629 C627 1.415 . S
C630 H620 0.930 . S
C630 C628 1.419 . S
C630 C631 1.362 1_556 S
C631 H621 0.930 . S
C631 C624 1.409 . S
C631 C630 1.362 1_554 S
H632 C638 0.930 . S
H633 C641 0.930 . S
H634 C642 0.930 . S
H635 C643 0.930 . S
H636 C646 0.930 . S
H637 C647 0.930 . S
C638 H632 0.930 . S
C638 C639 1.355 . S
C638 C640 1.415 . S
C639 C638 1.355 . S
C639 C641 1.419 . S
C640 C638 1.415 . S
C640 C645 1.425 . S
C640 C647 1.409 . S
C641 H633 0.930 . S
C641 C639 1.419 . S
C641 C642 1.362 . S
C642 H634 0.930 . S
C642 C641 1.362 . S
C642 C645 1.409 . S
C643 H635 0.930 . S
C643 C644 1.355 . S
C643 C645 1.415 . S
C644 C643 1.355 . S
C644 C646 1.419 . S
C645 C640 1.425 . S
C645 C642 1.409 . S
C645 C643 1.415 . S
C646 H636 0.930 . S
C646 C644 1.419 . S
C646 C647 1.362 . S
C647 H637 0.930 . S
C647 C640 1.409 . S
C647 C646 1.362 . S
H648 C654 0.930 . S
H649 C657 0.930 . S
H650 C658 0.930 . S
H651 C659 0.930 . S
H652 C662 0.930 . S
H653 C663 0.930 . S
C654 H648 0.930 . S
C654 C655 1.355 . S
C654 C656 1.415 . S
C655 C654 1.355 . S
C655 C657 1.419 . S
C656 C654 1.415 . S
C656 C661 1.425 . S
C656 C663 1.409 . S
C657 H649 0.930 . S
C657 C655 1.419 . S
C657 C658 1.362 . S
C658 H650 0.930 . S
C658 C657 1.362 . S
C658 C661 1.409 . S
C659 H651 0.930 . S
C659 C660 1.355 . S
C659 C661 1.415 . S
C660 C659 1.355 . S
C660 C662 1.419 . S
C661 C656 1.425 . S
C661 C658 1.409 . S
C661 C659 1.415 . S
C662 H652 0.930 . S
C662 C660 1.419 . S
C662 C663 1.362 . S
C663 H653 0.930 . S
C663 C656 1.409 . S
C663 C662 1.362 . S
H664 C670 0.930 . S
H665 C673 0.930 . S
H666 C674 0.930 . S
H667 C675 0.930 . S
H668 C678 0.930 . S
H669 C679 0.930 . S
C670 H664 0.930 . S
C670 C671 1.355 . S
C670 C672 1.415 . S
C671 C670 1.355 . S
C671 C673 1.419 . S
C672 C670 1.415 . S
C672 C677 1.425 . S
C672 C679 1.409 . S
C673 H665 0.930 . S
C673 C671 1.419 . S
C673 C674 1.362 . S
C674 H666 0.930 . S
C674 C673 1.362 . S
C674 C677 1.409 . S
C675 H667 0.930 . S
C675 C676 1.355 . S
C675 C677 1.415 . S
C676 C675 1.355 . S
C676 C678 1.419 . S
C677 C672 1.425 . S
C677 C674 1.409 . S
C677 C675 1.415 . S
C678 H668 0.930 . S
C678 C676 1.419 . S
C678 C679 1.362 . S
C679 H669 0.930 . S
C679 C672 1.409 . S
C679 C678 1.362 . S
H680 C686 0.930 . S
H681 C689 0.930 . S
H682 C690 0.930 . S
H683 C691 0.930 . S
H684 C694 0.930 . S
H685 C695 0.930 . S
C686 H680 0.930 . S
C686 C687 1.355 . S
C686 C688 1.415 . S
C687 C686 1.355 . S
C687 C689 1.419 . S
C688 C686 1.415 . S
C688 C693 1.425 . S
C688 C695 1.409 . S
C689 H681 0.930 . S
C689 C687 1.419 . S
C689 C690 1.362 . S
C690 H682 0.930 . S
C690 C689 1.362 . S
C690 C693 1.409 . S
C691 H683 0.930 . S
C691 C692 1.355 . S
C691 C693 1.415 . S
C692 C691 1.355 . S
C692 C694 1.419 . S
C693 C688 1.425 . S
C693 C690 1.409 . S
C693 C691 1.415 . S
C694 H684 0.930 . S
C694 C692 1.419 . S
C694 C695 1.362 . S
C695 H685 0.930 . S
C695 C688 1.409 . S
C695 C694 1.362 . S
H696 C702 0.930 . S
H697 C705 0.930 . S
H698 C706 0.930 . S
H699 C707 0.930 . S
H700 C710 0.930 . S
H701 C711 0.930 . S
C702 H696 0.930 . S
C702 C703 1.355 . S
C702 C704 1.415 . S
C703 C702 1.355 . S
C703 C705 1.419 . S
C704 C702 1.415 . S
C704 C709 1.425 . S
C704 C711 1.409 . S
C705 H697 0.930 . S
C705 C703 1.419 . S
C705 C706 1.362 . S
C706 H698 0.930 . S
C706 C705 1.362 . S
C706 C709 1.409 . S
C707 H699 0.930 . S
C707 C708 1.355 . S
C707 C709 1.415 . S
C708 C707 1.355 . S
C708 C710 1.419 . S
C709 C704 1.425 . S
C709 C706 1.409 . S
C709 C707 1.415 . S
C710 H700 0.930 . S
C710 C708 1.419 . S
C710 C711 1.362 . S
C711 H701 0.930 . S
C711 C704 1.409 . S
C711 C710 1.362 . S
H712 C718 0.930 . S
H713 C721 0.930 . S
H714 C722 0.930 . S
H715 C723 0.930 . S
H716 C726 0.930 . S
H717 C727 0.930 . S
C718 H712 0.930 . S
C718 C719 1.355 . S
C718 C720 1.415 . S
C719 C718 1.355 . S
C719 C721 1.419 . S
C720 C718 1.415 . S
C720 C725 1.425 . S
C720 C727 1.409 . S
C721 H713 0.930 . S
C721 C719 1.419 . S
C721 C722 1.362 . S
C722 H714 0.930 . S
C722 C721 1.362 . S
C722 C725 1.409 . S
C723 H715 0.930 . S
C723 C724 1.355 . S
C723 C725 1.415 . S
C724 C723 1.355 . S
C724 C726 1.419 . S
C725 C720 1.425 . S
C725 C722 1.409 . S
C725 C723 1.415 . S
C726 H716 0.930 . S
C726 C724 1.419 . S
C726 C727 1.362 . S
C727 H717 0.930 . S
C727 C720 1.409 . S
C727 C726 1.362 . S
H728 C734 0.930 . S
H729 C737 0.930 . S
H730 C738 0.930 . S
H731 C739 0.930 . S
H732 C742 0.930 . S
H733 C743 0.930 . S
C734 H728 0.930 . S
C734 C735 1.355 . S
C734 C736 1.415 . S
C735 C734 1.355 . S
C735 C737 1.419 . S
C736 C734 1.415 . S
C736 C741 1.425 . S
C736 C743 1.409 . S
C737 H729 0.930 . S
C737 C735 1.419 . S
C737 C738 1.362 . S
C738 H730 0.930 . S
C738 C737 1.362 . S
C738 C741 1.409 . S
C739 H731 0.930 . S
C739 C740 1.355 . S
C739 C741 1.415 . S
C740 C739 1.355 . S
C740 C742 1.419 . S
C741 C736 1.425 . S
C741 C738 1.409 . S
C741 C739 1.415 . S
C742 H732 0.930 . S
C742 C740 1.419 . S
C742 C743 1.362 . S
C743 H733 0.930 . S
C743 C736 1.409 . S
C743 C742 1.362 . S
H744 C750 0.930 . S
H745 C753 0.930 . S
H746 C754 0.930 . S
H747 C755 0.930 . S
H748 C758 0.930 . S
H749 C759 0.930 . S
C750 H744 0.930 . S
C750 C751 1.355 . S
C750 C752 1.415 . S
C751 C750 1.355 . S
C751 C753 1.419 . S
C752 C750 1.415 . S
C752 C757 1.425 . S
C752 C759 1.409 . S
C753 H745 0.930 . S
C753 C751 1.419 . S
C753 C754 1.362 . S
C754 H746 0.930 . S
C754 C753 1.362 . S
C754 C757 1.409 . S
C755 H747 0.930 . S
C755 C756 1.355 . S
C755 C757 1.415 . S
C756 C755 1.355 . S
C756 C758 1.419 . S
C757 C752 1.425 . S
C757 C754 1.409 . S
C757 C755 1.415 . S
C758 H748 0.930 . S
C758 C756 1.419 . S
C758 C759 1.362 . S
C759 H749 0.930 . S
C759 C752 1.409 . S
C759 C758 1.362 . S
H760 C766 0.930 1_554 S
H761 C769 0.930 . S
H762 C770 0.930 . S
H763 C771 0.930 . S
H764 C774 0.930 . S
H765 C775 0.930 . S
C766 H760 0.930 1_556 S
C766 C767 1.355 . S
C766 C768 1.415 . S
C767 C766 1.355 . S
C767 C769 1.419 . S
C768 C766 1.415 . S
C768 C773 1.425 . S
C768 C775 1.409 . S
C769 H761 0.930 . S
C769 C767 1.419 . S
C769 C770 1.362 . S
C770 H762 0.930 . S
C770 C769 1.362 . S
C770 C773 1.409 . S
C771 H763 0.930 . S
C771 C772 1.355 . S
C771 C773 1.415 . S
C772 C771 1.355 . S
C772 C774 1.419 . S
C773 C768 1.425 . S
C773 C770 1.409 . S
C773 C771 1.415 . S
C774 H764 0.930 . S
C774 C772 1.419 . S
C774 C775 1.362 . S
C775 H765 0.930 . S
C775 C768 1.409 . S
C775 C774 1.362 . S
H776 C782 0.930 . S
H777 C785 0.930 . S
H778 C786 0.930 . S
H779 C787 0.930 . S
H780 C790 0.930 1_556 S
H781 C791 0.930 . S
C782 H776 0.930 . S
C782 C783 1.355 . S
C782 C784 1.415 . S
C783 C782 1.355 . S
C783 C785 1.419 . S
C784 C782 1.415 . S
C784 C789 1.425 . S
C784 C791 1.409 . S
C785 H777 0.930 . S
C785 C783 1.419 . S
C785 C786 1.362 . S
C786 H778 0.930 . S
C786 C785 1.362 . S
C786 C789 1.409 . S
C787 H779 0.930 . S
C787 C788 1.355 . S
C787 C789 1.415 . S
C788 C787 1.355 . S
C788 C790 1.419 . S
C789 C784 1.425 . S
C789 C786 1.409 . S
C789 C787 1.415 . S
C790 H780 0.930 1_554 S
C790 C788 1.419 . S
C790 C791 1.362 . S
C791 H781 0.930 . S
C791 C784 1.409 . S
C791 C790 1.362 . S
H792 C798 0.930 . S
H793 C801 0.930 . S
H794 C802 0.930 . S
H795 C803 0.930 . S
H796 C806 0.930 . S
H797 C807 0.930 . S
C798 H792 0.930 . S
C798 C799 1.355 . S
C798 C800 1.415 . S
C799 C798 1.355 . S
C799 C801 1.419 . S
C800 C798 1.415 . S
C800 C805 1.425 . S
C800 C807 1.409 . S
C801 H793 0.930 . S
C801 C799 1.419 . S
C801 C802 1.362 . S
C802 H794 0.930 . S
C802 C801 1.362 . S
C802 C805 1.409 . S
C803 H795 0.930 . S
C803 C804 1.355 . S
C803 C805 1.415 . S
C804 C803 1.355 . S
C804 C806 1.419 . S
C805 C800 1.425 . S
C805 C802 1.409 . S
C805 C803 1.415 . S
C806 H796 0.930 . S
C806 C804 1.419 . S
C806 C807 1.362 . S
C807 H797 0.930 . S
C807 C800 1.409 . S
C807 C806 1.362 . S
H808 C814 0.930 . S
H809 C817 0.930 . S
H810 C818 0.930 . S
H811 C819 0.930 . S
H812 C822 0.930 . S
H813 C823 0.930 . S
C814 H808 0.930 . S
C814 C815 1.355 . S
C814 C816 1.415 . S
C815 C814 1.355 . S
C815 C817 1.419 . S
C816 C814 1.415 . S
C816 C821 1.425 1_655 S
C816 C823 1.409 1_655 S
C817 H809 0.930 . S
C817 C815 1.419 . S
C817 C818 1.362 . S
C818 H810 0.930 . S
C818 C817 1.362 . S
C818 C821 1.409 1_655 S
C819 H811 0.930 . S
C819 C820 1.355 . S
C819 C821 1.415 . S
C820 C819 1.355 . S
C820 C822 1.419 . S
C821 C816 1.425 1_455 S
C821 C818 1.409 1_455 S
C821 C819 1.415 . S
C822 H812 0.930 . S
C822 C820 1.419 . S
C822 C823 1.362 . S
C823 H813 0.930 . S
C823 C816 1.409 1_455 S
C823 C822 1.362 . S
H824 C830 0.930 . S
H825 C833 0.930 . S
H826 C834 0.930 . S
H827 C835 0.930 . S
H828 C838 0.930 . S
H829 C839 0.930 . S
C830 H824 0.930 . S
C830 C831 1.355 . S
C830 C832 1.415 . S
C831 C830 1.355 . S
C831 C833 1.419 . S
C832 C830 1.415 . S
C832 C837 1.425 1_545 S
C832 C839 1.409 1_545 S
C833 H825 0.930 . S
C833 C831 1.419 . S
C833 C834 1.362 . S
C834 H826 0.930 . S
C834 C833 1.362 . S
C834 C837 1.409 1_545 S
C835 H827 0.930 . S
C835 C836 1.355 . S
C835 C837 1.415 . S
C836 C835 1.355 . S
C836 C838 1.419 . S
C837 C832 1.425 1_565 S
C837 C834 1.409 1_565 S
C837 C835 1.415 . S
C838 H828 0.930 . S
C838 C836 1.419 . S
C838 C839 1.362 . S
C839 H829 0.930 . S
C839 C832 1.409 1_565 S
C839 C838 1.362 . S
H840 C846 0.930 . S
H841 C849 0.930 . S
H842 C850 0.930 . S
H843 C851 0.930 . S
H844 C854 0.930 . S
H845 C855 0.930 . S
C846 H840 0.930 . S
C846 C847 1.355 . S
C846 C848 1.415 . S
C847 C846 1.355 . S
C847 C849 1.419 . S
C848 C846 1.415 . S
C848 C853 1.425 . S
C848 C855 1.409 . S
C849 H841 0.930 . S
C849 C847 1.419 . S
C849 C850 1.362 . S
C850 H842 0.930 . S
C850 C849 1.362 . S
C850 C853 1.409 . S
C851 H843 0.930 . S
C851 C852 1.355 . S
C851 C853 1.415 . S
C852 C851 1.355 . S
C852 C854 1.419 . S
C853 C848 1.425 . S
C853 C850 1.409 . S
C853 C851 1.415 . S
C854 H844 0.930 . S
C854 C852 1.419 . S
C854 C855 1.362 . S
C855 H845 0.930 . S
C855 C848 1.409 . S
C855 C854 1.362 . S
H856 C862 0.930 . S
H857 C865 0.930 . S
H858 C866 0.930 . S
H859 C867 0.930 . S
H860 C870 0.930 . S
H861 C871 0.930 . S
C862 H856 0.930 . S
C862 C863 1.355 . S
C862 C864 1.415 . S
C863 C862 1.355 . S
C863 C865 1.419 . S
C864 C862 1.415 . S
C864 C869 1.425 1_455 S
C864 C871 1.409 1_455 S
C865 H857 0.930 . S
C865 C863 1.419 . S
C865 C866 1.362 . S
C866 H858 0.930 . S
C866 C865 1.362 . S
C866 C869 1.409 1_455 S
C867 H859 0.930 . S
C867 C868 1.355 . S
C867 C869 1.415 . S
C868 C867 1.355 . S
C868 C870 1.419 . S
C869 C864 1.425 1_655 S
C869 C866 1.409 1_655 S
C869 C867 1.415 . S
C870 H860 0.930 . S
C870 C868 1.419 . S
C870 C871 1.362 . S
C871 H861 0.930 . S
C871 C864 1.409 1_655 S
C871 C870 1.362 . S
H872 C878 0.929 1_554 S
H873 C881 0.930 . S
H874 C882 0.930 . S
H875 C883 0.930 . S
H876 C886 0.930 . S
H877 C887 0.930 . S
C878 H872 0.929 1_556 S
C878 C879 1.356 . S
C878 C880 1.414 1_556 S
C879 C878 1.356 . S
C879 C881 1.419 . S
C880 C878 1.414 1_554 S
C880 C885 1.425 1_545 S
C880 C887 1.409 1_545 S
C881 H873 0.930 . S
C881 C879 1.419 . S
C881 C882 1.362 . S
C882 H874 0.930 . S
C882 C881 1.362 . S
C882 C885 1.409 1_546 S
C883 H875 0.930 . S
C883 C884 1.355 . S
C883 C885 1.415 . S
C884 C883 1.355 . S
C884 C886 1.419 . S
C885 C880 1.425 1_565 S
C885 C882 1.409 1_564 S
C885 C883 1.415 . S
C886 H876 0.930 . S
C886 C884 1.419 . S
C886 C887 1.362 . S
C887 H877 0.930 . S
C887 C880 1.409 1_565 S
C887 C886 1.362 . S
C415 C9 1.166 . S
C420 C5 1.201 . S
C431 C39 1.196 1_556 S
C436 C43 1.191 . S
C447 C73 1.203 . S
C452 C77 1.172 . S
C463 C111 1.157 1_554 S
C468 C107 1.195 . S
C479 C145 1.172 . S
C484 C141 1.137 . S
C495 C175 1.185 . S
C500 C179 1.151 . S
C511 C213 1.201 . S
C516 C209 1.152 1_554 S
C527 C247 1.203 . S
C532 C243 1.160 . S
C543 C277 1.175 . S
C548 C281 1.149 . S
C559 C315 1.152 . S
C564 C311 1.158 . S
C575 C349 1.162 1_556 S
C580 C345 1.199 . S
C591 C379 1.165 . S
C596 C383 1.150 . S
C607 C237 1.636 . S
C612 C33 1.646 . S
C623 C67 1.663 . S
C628 C271 1.656 . S
C639 C305 1.645 . S
C644 C101 1.654 . S
C655 C339 1.655 . S
C660 C135 1.645 . S
C671 C373 1.608 . S
C676 C169 1.606 . S
C687 C407 1.620 . S
C692 C203 1.612 . S
C703 C20 1.578 . S
C708 C360 1.586 . S
C719 C54 1.565 . S
C724 C394 1.565 . S
C735 C88 1.597 . S
C740 C224 1.601 . S
C751 C258 1.567 . S
C756 C122 1.572 . S
C767 C292 1.582 1_556 S
C772 C156 1.575 . S
C783 C326 1.599 . S
C788 C190 1.593 1_554 S
C799 C2 1.566 . S
C804 C308 1.557 . S
C815 C36 1.568 . S
C820 C342 1.562 . S
C831 C376 1.556 . S
C836 C70 1.554 . S
C847 C104 1.557 . S
C852 C206 1.566 . S
C863 C138 1.564 . S
C868 C240 1.555 . S
C879 C172 1.568 . S
C884 C274 1.560 . S
