# Generated by pormake.
# Topology why, (6)-cn, num edge types: 1
# Building blocks:
#     Node 0, Type 0, BuildingBlock: KUMBOL_clean_sbu_1, # of connection points: 6
#     Node 1, Type 0, BuildingBlock: KUMBOL_clean_sbu_1, # of connection points: 6
#     Node 2, Type 0, BuildingBlock: KUMBOL_clean_sbu_1, # of connection points: 6
#     Node 3, Type 0, BuildingBlock: KUMBOL_clean_sbu_1, # of connection points: 6
#     Node 4, Type 0, BuildingBlock: KUMBOL_clean_sbu_1, # of connection points: 6
#     Node 5, Type 0, BuildingBlock: KUMBOL_clean_sbu_1, # of connection points: 6
#     Node 6, Type 0, BuildingBlock: KUMBOL_clean_sbu_1, # of connection points: 6
#     Node 7, Type 0, BuildingBlock: KUMBOL_clean_sbu_1, # of connection points: 6
#     Node 8, Type 0, BuildingBlock: KUMBOL_clean_sbu_1, # of connection points: 6
#     Node 9, Type 0, BuildingBlock: KUMBOL_clean_sbu_1, # of connection points: 6
#     Node 10, Type 0, BuildingBlock: KUMBOL_clean_sbu_1, # of connection points: 6
#     Node 11, Type 0, BuildingBlock: KUMBOL_clean_sbu_1, # of connection points: 6
#     Node 12, Type 0, BuildingBlock: KUMBOL_clean_sbu_1, # of connection points: 6
#     Node 13, Type 0, BuildingBlock: KUMBOL_clean_sbu_1, # of connection points: 6
#     Node 14, Type 0, BuildingBlock: KUMBOL_clean_sbu_1, # of connection points: 6
#     Node 15, Type 0, BuildingBlock: KUMBOL_clean_sbu_1, # of connection points: 6
#     Edge 16, Type (0, 0), BuildingBlock: CIFDUS_clean_linker_0, # of connection points: 2
#     Edge 17, Type (0, 0), BuildingBlock: CIFDUS_clean_linker_0, # of connection points: 2
#     Edge 18, Type (0, 0), BuildingBlock: CIFDUS_clean_linker_0, # of connection points: 2
#     Edge 19, Type (0, 0), BuildingBlock: CIFDUS_clean_linker_0, # of connection points: 2
#     Edge 20, Type (0, 0), BuildingBlock: CIFDUS_clean_linker_0, # of connection points: 2
#     Edge 21, Type (0, 0), BuildingBlock: CIFDUS_clean_linker_0, # of connection points: 2
#     Edge 22, Type (0, 0), BuildingBlock: CIFDUS_clean_linker_0, # of connection points: 2
#     Edge 23, Type (0, 0), BuildingBlock: CIFDUS_clean_linker_0, # of connection points: 2
#     Edge 24, Type (0, 0), BuildingBlock: CIFDUS_clean_linker_0, # of connection points: 2
#     Edge 25, Type (0, 0), BuildingBlock: CIFDUS_clean_linker_0, # of connection points: 2
#     Edge 26, Type (0, 0), BuildingBlock: CIFDUS_clean_linker_0, # of connection points: 2
#     Edge 27, Type (0, 0), BuildingBlock: CIFDUS_clean_linker_0, # of connection points: 2
#     Edge 28, Type (0, 0), BuildingBlock: CIFDUS_clean_linker_0, # of connection points: 2
#     Edge 29, Type (0, 0), BuildingBlock: CIFDUS_clean_linker_0, # of connection points: 2
#     Edge 30, Type (0, 0), BuildingBlock: CIFDUS_clean_linker_0, # of connection points: 2
#     Edge 31, Type (0, 0), BuildingBlock: CIFDUS_clean_linker_0, # of connection points: 2
#     Edge 32, Type (0, 0), BuildingBlock: CIFDUS_clean_linker_0, # of connection points: 2
#     Edge 33, Type (0, 0), BuildingBlock: CIFDUS_clean_linker_0, # of connection points: 2
#     Edge 34, Type (0, 0), BuildingBlock: CIFDUS_clean_linker_0, # of connection points: 2
#     Edge 35, Type (0, 0), BuildingBlock: CIFDUS_clean_linker_0, # of connection points: 2
#     Edge 36, Type (0, 0), BuildingBlock: CIFDUS_clean_linker_0, # of connection points: 2
#     Edge 37, Type (0, 0), BuildingBlock: CIFDUS_clean_linker_0, # of connection points: 2
#     Edge 38, Type (0, 0), BuildingBlock: CIFDUS_clean_linker_0, # of connection points: 2
#     Edge 39, Type (0, 0), BuildingBlock: CIFDUS_clean_linker_0, # of connection points: 2
#     Edge 40, Type (0, 0), BuildingBlock: CIFDUS_clean_linker_0, # of connection points: 2
#     Edge 41, Type (0, 0), BuildingBlock: CIFDUS_clean_linker_0, # of connection points: 2
#     Edge 42, Type (0, 0), BuildingBlock: CIFDUS_clean_linker_0, # of connection points: 2
#     Edge 43, Type (0, 0), BuildingBlock: CIFDUS_clean_linker_0, # of connection points: 2
#     Edge 44, Type (0, 0), BuildingBlock: CIFDUS_clean_linker_0, # of connection points: 2
#     Edge 45, Type (0, 0), BuildingBlock: CIFDUS_clean_linker_0, # of connection points: 2
#     Edge 46, Type (0, 0), BuildingBlock: CIFDUS_clean_linker_0, # of connection points: 2
#     Edge 47, Type (0, 0), BuildingBlock: CIFDUS_clean_linker_0, # of connection points: 2
#     Edge 48, Type (0, 0), BuildingBlock: CIFDUS_clean_linker_0, # of connection points: 2
#     Edge 49, Type (0, 0), BuildingBlock: CIFDUS_clean_linker_0, # of connection points: 2
#     Edge 50, Type (0, 0), BuildingBlock: CIFDUS_clean_linker_0, # of connection points: 2
#     Edge 51, Type (0, 0), BuildingBlock: CIFDUS_clean_linker_0, # of connection points: 2
#     Edge 52, Type (0, 0), BuildingBlock: CIFDUS_clean_linker_0, # of connection points: 2
#     Edge 53, Type (0, 0), BuildingBlock: CIFDUS_clean_linker_0, # of connection points: 2
#     Edge 54, Type (0, 0), BuildingBlock: CIFDUS_clean_linker_0, # of connection points: 2
#     Edge 55, Type (0, 0), BuildingBlock: CIFDUS_clean_linker_0, # of connection points: 2
#     Edge 56, Type (0, 0), BuildingBlock: CIFDUS_clean_linker_0, # of connection points: 2
#     Edge 57, Type (0, 0), BuildingBlock: CIFDUS_clean_linker_0, # of connection points: 2
#     Edge 58, Type (0, 0), BuildingBlock: CIFDUS_clean_linker_0, # of connection points: 2
#     Edge 59, Type (0, 0), BuildingBlock: CIFDUS_clean_linker_0, # of connection points: 2
#     Edge 60, Type (0, 0), BuildingBlock: CIFDUS_clean_linker_0, # of connection points: 2
#     Edge 61, Type (0, 0), BuildingBlock: CIFDUS_clean_linker_0, # of connection points: 2
#     Edge 62, Type (0, 0), BuildingBlock: CIFDUS_clean_linker_0, # of connection points: 2
#     Edge 63, Type (0, 0), BuildingBlock: CIFDUS_clean_linker_0, # of connection points: 2
# Relax obj value: 0.308
# Max RMSD: 0.224
# Mean RMSD: 0.224
data_MOF--net-why--node1-KUMBOL_clean_sbu_1--edge1-CIFDUS_clean_linker_0
_symmetry_space_group_name_H-M    P1
_symmetry_Int_Tables_number       1
_symmetry_cell_setting            triclinic
loop_
_symmetry_equiv_pos_as_xyz
'x, y, z'
_cell_length_a     43.352616
_cell_length_b     43.118549
_cell_length_c     37.915065
_cell_angle_alpha  89.818777
_cell_angle_beta   90.021166
_cell_angle_gamma 89.603783
loop_
_atom_site_label
_atom_site_type_symbol
_atom_site_fract_x
_atom_site_fract_y
_atom_site_fract_z
_atom_type_partial_charge
C0 C 0.40525 0.10197 0.99777 0.0
C1 C 0.42372 0.09226 0.93826 0.0
C2 C 0.42451 0.10953 0.96975 0.0
C3 C 0.40507 0.06584 0.93626 0.0
C4 C 0.38444 0.07713 0.99447 0.0
C5 C 0.38544 0.0583 0.96431 0.0
N6 N 0.40401 0.1215 0.02598 0.0
C7 C 0.37981 0.1197 0.04901 0.0
C8 C 0.36189 0.0732 0.02043 0.0
C9 C 0.35899 0.09514 0.0472 0.0
Gd10 Gd 0.40275 0.20621 0.08158 0.0
Gd11 Gd 0.44551 0.15721 0.02857 0.0
N12 N 0.44152 0.13578 0.97203 0.0
C13 C 0.4407 0.10282 0.90924 0.0
C14 C 0.45657 0.14725 0.94322 0.0
C15 C 0.4567 0.13075 0.91153 0.0
H16 H 0.46944 0.16856 0.94505 0.0
H17 H 0.46938 0.13943 0.88902 0.0
H18 H 0.46984 0.16641 0.10587 0.0
H19 H 0.37592 0.13748 0.0683 0.0
H20 H 0.50772 0.16924 0.15356 0.0
H21 H 0.44079 0.09012 0.88462 0.0
H22 H 0.40458 1.05193 0.91252 0.0
H23 H 0.37728 0.27813 0.06873 0.0
H24 H 0.34541 0.05447 0.01881 0.0
H25 H 0.34038 0.09347 0.06612 0.0
H26 H 0.48737 0.26722 0.20779 0.0
H27 H 0.37 1.03879 0.96165 0.0
H28 H 0.4143 0.33469 0.15123 0.0
H29 H 0.38048 0.32897 0.09906 0.0
N30 N 0.40822 0.25592 0.10411 0.0
C31 C 0.42763 0.25855 0.13215 0.0
C32 C 0.39198 0.28073 0.09155 0.0
C33 C 0.41282 0.31243 0.13819 0.0
C34 C 0.39378 0.30935 0.10863 0.0
C35 C 0.43044 0.28704 0.14992 0.0
H36 H 0.45361 0.31118 0.19225 0.0
N37 N 0.44486 0.20667 0.12163 0.0
C38 C 0.44637 0.23321 0.14126 0.0
C39 C 0.49014 0.21257 0.17341 0.0
C40 C 0.46884 0.2366 0.16792 0.0
C41 C 0.46773 0.18484 0.12458 0.0
C42 C 0.49008 0.187 0.15101 0.0
O43 O 0.40126 0.16697 0.9932 0.0
O44 O 0.36952 0.1906 0.03341 0.0
O45 O 0.35267 0.20903 0.08053 0.0
O46 O 0.37624 0.21893 0.1286 0.0
O47 O 0.44369 0.20287 0.99984 0.0
O48 O 0.40434 0.22938 0.02767 0.0
O49 O 0.44482 0.2389 0.06558 0.0
O50 O 0.47744 0.19987 0.04885 0.0
O51 O 0.49111 0.15425 1.00488 0.0
O52 O 0.47597 0.11786 0.0392 0.0
O53 O 0.40779 0.15868 0.11418 0.0
O54 O 0.43848 0.12745 0.08084 0.0
C55 C 0.37318 0.17817 1.001 0.0
C56 C 0.42321 0.22549 1.00068 0.0
C57 C 0.32943 0.24624 0.11849 0.0
C58 C 0.30241 0.28063 0.15966 0.0
C59 C 0.29718 0.28829 0.09631 0.0
C60 C 0.31647 0.26286 0.0901 0.0
C61 C 0.29018 0.29718 0.13077 0.0
C62 C 0.3222 0.25519 0.15318 0.0
C63 C 0.34998 0.21921 0.11249 0.0
C64 C 0.4705 0.26445 0.18695 0.0
C65 C 0.45134 0.28956 0.17802 0.0
H66 H 0.50781 0.21435 0.19351 0.0
C67 C 0.47361 0.23028 0.05709 0.0
C68 C 0.42241 0.13131 0.1105 0.0
C69 C 0.50549 0.10349 0.98887 0.0
C70 C 0.53011 0.09398 0.93174 0.0
C71 C 0.49729 0.05474 0.95865 0.0
C72 C 0.49205 0.07397 0.98754 0.0
C73 C 0.51561 0.06481 0.93065 0.0
C74 C 0.52548 0.11271 0.96168 0.0
C75 C 0.49636 0.12629 1.01606 0.0
H76 H 0.28758 0.30116 0.0743 0.0
H77 H 0.32143 0.25644 0.06309 0.0
H78 H 0.27533 0.31715 0.13479 0.0
H79 H 0.33156 0.24192 0.17508 0.0
H80 H 0.48626 1.03232 0.95739 0.0
H81 H 0.47658 0.06615 1.0081 0.0
H82 H 0.51768 1.04989 0.90789 0.0
H83 H 0.53658 0.13505 0.96361 0.0
C84 C 0.75004 0.66042 0.24726 0.0
C85 C 0.75714 0.68218 0.18863 0.0
C86 C 0.74088 0.6809 0.22079 0.0
C87 C 0.78378 0.66391 0.1842 0.0
C88 C 0.77539 0.64034 0.24171 0.0
C89 C 0.79285 0.64299 0.21065 0.0
N90 N 0.73209 0.65784 0.27662 0.0
C91 C 0.73643 0.63347 0.29932 0.0
C92 C 0.7815 0.61714 0.26668 0.0
C93 C 0.76147 0.61322 0.29512 0.0
Gd94 Gd 0.64876 0.65872 0.34019 0.0
Gd95 Gd 0.69448 0.69769 0.28262 0.0
N96 N 0.71452 0.69758 0.22537 0.0
C97 C 0.74547 0.70093 0.16141 0.0
C98 C 0.70198 0.71437 0.1983 0.0
C99 C 0.71749 0.71666 0.16607 0.0
H100 H 0.68048 0.7268 0.20195 0.0
H101 H 0.70795 0.73066 0.14494 0.0
H102 H 0.69096 0.72681 0.34925 0.0
H103 H 0.72041 0.62925 0.32047 0.0
H104 H 0.69517 0.76821 0.39298 0.0
H105 H 0.75738 0.70265 0.13637 0.0
H106 H 0.79683 0.6649 0.15986 0.0
H107 H 0.57599 0.63503 0.3427 0.0
H108 H 0.8007 0.60121 0.26332 0.0
H109 H 0.76511 0.59439 0.31364 0.0
H110 H 0.60739 0.75386 0.46745 0.0
H111 H 0.81269 0.62809 0.20622 0.0
H112 H 0.53274 0.67908 0.43131 0.0
H113 H 0.53051 0.64189 0.38178 0.0
N114 N 0.60311 0.66752 0.37061 0.0
C115 C 0.60472 0.68879 0.39692 0.0
C116 C 0.57679 0.6514 0.36424 0.0
C117 C 0.55265 0.6761 0.41435 0.0
C118 C 0.55122 0.65518 0.3863 0.0
C119 C 0.57937 0.69364 0.41955 0.0
H120 H 0.56197 0.72025 0.46372 0.0
N121 N 0.65403 0.70387 0.37512 0.0
C122 C 0.63089 0.70744 0.3993 0.0
C123 C 0.65579 0.75296 0.42271 0.0
C124 C 0.63148 0.73185 0.42404 0.0
C125 C 0.67569 0.72651 0.37143 0.0
C126 C 0.67746 0.75078 0.39566 0.0
O127 O 0.68496 0.65278 0.24848 0.0
O128 O 0.66439 0.62407 0.29332 0.0
O129 O 0.64022 0.60927 0.33888 0.0
O130 O 0.64206 0.63236 0.38877 0.0
O131 O 0.6499 0.69027 0.25278 0.0
O132 O 0.62105 0.65986 0.29048 0.0
O133 O 0.61415 0.69971 0.32427 0.0
O134 O 0.65096 0.7305 0.29958 0.0
O135 O 0.69469 0.74508 0.26321 0.0
O136 O 0.73343 0.72788 0.29301 0.0
O137 O 0.69651 0.66191 0.37034 0.0
O138 O 0.72671 0.68951 0.33321 0.0
C139 C 0.67438 0.6254 0.25955 0.0
C140 C 0.6253 0.6736 0.25994 0.0
C141 C 0.60971 0.58824 0.38469 0.0
C142 C 0.5757 0.57169 0.43209 0.0
C143 C 0.57027 0.54964 0.37364 0.0
C144 C 0.59467 0.56777 0.36163 0.0
C145 C 0.56089 0.55141 0.40877 0.0
C146 C 0.59996 0.59014 0.41992 0.0
C147 C 0.63631 0.60661 0.37261 0.0
C148 C 0.60702 0.73551 0.448 0.0
C149 C 0.58107 0.71643 0.4458 0.0
H150 H 0.65701 0.77207 0.44114 0.0
C151 C 0.62151 0.72759 0.31118 0.0
C152 C 0.72375 0.67503 0.36417 0.0
C153 C 0.74364 0.76338 0.24654 0.0
C154 C 0.74937 0.79574 0.1944 0.0
C155 C 0.79207 0.76347 0.21423 0.0
C156 C 0.77416 0.75269 0.24231 0.0
C157 C 0.77959 0.78455 0.18995 0.0
C158 C 0.73185 0.78563 0.22309 0.0
C159 C 0.72281 0.7502 0.27329 0.0
H160 H 0.55879 0.53396 0.35576 0.0
H161 H 0.60181 0.56562 0.33437 0.0
H162 H 0.54208 0.53698 0.41777 0.0
H163 H 0.61168 0.60541 0.43814 0.0
H164 H 0.8154 0.75489 0.2108 0.0
H165 H 0.78392 0.73551 0.26006 0.0
H166 H 0.79335 0.79195 0.16766 0.0
H167 H 0.70824 0.79374 0.22593 0.0
C168 C 0.16972 0.99285 0.4635 0.0
C169 C 0.1402 0.97758 0.4119 0.0
C170 C 0.14826 0.97349 0.44764 0.0
C171 C 0.15437 1.00107 0.39209 0.0
C172 C 0.18401 1.01641 0.44359 0.0
C173 C 0.17622 1.0204 0.40788 0.0
N174 N 0.17707 0.98818 0.49813 0.0
C175 C 0.19879 1.00625 0.51412 0.0
C176 C 0.20592 1.03514 0.46005 0.0
C177 C 0.21338 1.02996 0.49539 0.0
Gd178 Gd 0.19651 0.89883 0.58255 0.0
Gd179 Gd 0.15066 0.94711 0.52621 0.0
N180 N 0.13468 0.95112 0.46748 0.0
C181 C 0.11792 0.95808 0.3972 0.0
C182 C 0.11271 0.93227 0.45351 0.0
C183 C 0.10407 0.93538 0.41814 0.0
H184 H 0.10174 0.91497 0.46987 0.0
H185 H 0.08668 0.92037 0.40709 0.0
H186 H 0.13508 0.94219 0.61543 0.0
H187 H 0.20597 1.00185 0.54088 0.0
H188 H 0.09711 0.93743 0.66249 0.0
H189 H 0.1111 0.9605 0.36983 0.0
H190 H 0.14853 1.00454 0.36457 0.0
H191 H 0.21858 0.82676 0.56439 0.0
H192 H 0.21743 0.05344 0.44562 0.0
H193 H 0.23068 1.04402 0.50814 0.0
H194 H 0.11117 0.83407 0.70619 0.0
H195 H 0.18698 1.03839 0.39221 0.0
H196 H 0.18028 0.767 0.64345 0.0
H197 H 0.21358 0.77442 0.59112 0.0
N198 N 0.18925 0.84815 0.60195 0.0
C199 C 0.17027 0.84467 0.63022 0.0
C200 C 0.20421 0.82347 0.58737 0.0
C201 C 0.18264 0.78993 0.63205 0.0
C202 C 0.20136 0.79398 0.60239 0.0
C203 C 0.16637 0.8153 0.64594 0.0
H204 H 0.14256 0.78964 0.68677 0.0
N205 N 0.15513 0.89767 0.62345 0.0
C206 C 0.15259 0.87008 0.64117 0.0
C207 C 0.11097 0.891 0.67645 0.0
C208 C 0.13052 0.86617 0.66818 0.0
C209 C 0.1348 0.9212 0.63029 0.0
C210 C 0.1128 0.91842 0.65703 0.0
O211 O 0.1995 0.94273 0.49694 0.0
O212 O 0.22999 0.91996 0.53905 0.0
O213 O 0.24537 0.88848 0.58108 0.0
O214 O 0.2226 0.88844 0.63101 0.0
O215 O 0.15531 0.90076 0.50031 0.0
O216 O 0.19807 0.87912 0.52705 0.0
O217 O 0.15426 0.86685 0.56604 0.0
O218 O 0.12067 0.90065 0.53892 0.0
O219 O 0.11449 0.97914 0.51031 0.0
O220 O 0.11124 0.95506 0.56041 0.0
O221 O 0.19313 0.94751 0.6115 0.0
O222 O 0.16596 0.97911 0.57427 0.0
C223 C 0.2275 0.93261 0.50677 0.0
C224 C 0.17872 0.88132 0.50031 0.0
C225 C 0.26557 0.85392 0.62396 0.0
C226 C 0.29061 0.82129 0.66864 0.0
C227 C 0.2951 0.80827 0.60654 0.0
C228 C 0.27767 0.83439 0.59757 0.0
C229 C 0.30158 0.80173 0.64177 0.0
C230 C 0.27218 0.8472 0.65954 0.0
C231 C 0.24799 0.88234 0.61435 0.0
C232 C 0.12778 0.8373 0.68516 0.0
C233 C 0.14565 0.81197 0.67409 0.0
H234 H 0.0937 0.8889 0.69696 0.0
C235 C 0.12582 0.87224 0.55335 0.0
C236 C 0.181 0.97557 0.60481 0.0
C237 C 0.06519 0.96129 0.52691 0.0
C238 C 1.02682 0.95154 0.48124 0.0
C239 C 1.01948 0.93113 0.54038 0.0
C240 C 1.04728 0.94437 0.55105 0.0
C241 C 1.00956 0.93416 0.50548 0.0
C242 C 0.05398 0.96592 0.4924 0.0
C243 C 0.09664 0.9715 0.53649 0.0
H244 H 0.30393 0.79322 0.58604 0.0
H245 H 0.27368 0.83918 0.56989 0.0
H246 H 0.3153 0.78134 0.64801 0.0
H247 H 0.26383 0.86265 0.67997 0.0
H248 H 1.00608 0.91768 0.55894 0.0
H249 H 0.05516 0.94063 0.57786 0.0
H250 H 0.98857 0.92273 0.49728 0.0
H251 H 0.06733 0.979 0.47338 0.0
C252 C 0.8448 0.4441 0.7496 0.0
C253 C 0.83526 0.42398 0.6908 0.0
C254 C 0.85271 0.4242 0.72217 0.0
C255 C 0.80868 0.44263 0.68816 0.0
C256 C 0.81957 0.46466 0.74576 0.0
C257 C 0.80089 0.46298 0.71554 0.0
N258 N 0.86395 0.44583 0.77805 0.0
C259 C 0.86101 0.46987 0.8013 0.0
C260 C 0.81485 0.48744 0.77143 0.0
C261 C 0.83612 0.49054 0.79881 0.0
Gd262 Gd 0.94589 0.44375 0.83913 0.0
Gd263 Gd 0.90099 0.40518 0.78132 0.0
N264 N 0.87913 0.40725 0.72495 0.0
C265 C 0.84576 0.40598 0.66248 0.0
C266 C 0.89056 0.39127 0.69675 0.0
C267 C 0.87381 0.39001 0.66527 0.0
H268 H 0.91216 0.37872 0.69891 0.0
H269 H 0.88248 0.37663 0.64325 0.0
H270 H 0.90465 0.37496 0.84867 0.0
H271 H 0.8779 0.47329 0.82175 0.0
H272 H 0.90258 0.33244 0.89142 0.0
H273 H 0.83293 0.4051 0.63798 0.0
H274 H 0.79473 0.44245 0.66445 0.0
H275 H 1.01837 0.46911 0.83993 0.0
H276 H 0.79576 0.50371 0.76939 0.0
H277 H 0.83352 0.50903 0.81783 0.0
H278 H 0.99282 0.34591 0.96194 0.0
H279 H 0.78111 0.47825 0.71243 0.0
H280 H 0.06514 0.42275 0.92497 0.0
H281 H 0.0652 0.46161 0.8768 0.0
N282 N 0.99259 0.43536 0.86785 0.0
C283 C 0.99216 0.41309 0.8934 0.0
C284 C 1.0185 0.45205 0.8609 0.0
C285 C 1.04463 0.42601 0.90901 0.0
C286 C 1.04483 0.44789 0.88172 0.0
C287 C 1.01834 0.4079 0.91472 0.0
H288 H 1.03765 0.38018 0.95715 0.0
N289 N 0.94204 0.39793 0.87352 0.0
C290 C 0.96621 0.39401 0.89643 0.0
C291 C 0.94279 0.34749 0.91969 0.0
C292 C 0.96686 0.3689 0.92044 0.0
C293 C 0.92064 0.37501 0.87018 0.0
C294 C 0.9201 0.35008 0.89379 0.0
O295 O 0.90942 0.45081 0.74728 0.0
O296 O 0.93247 0.47875 0.79109 0.0
O297 O 0.94312 0.49412 0.84109 0.0
O298 O 0.95938 0.46913 0.88633 0.0
O299 O 0.94591 0.41154 0.75263 0.0
O300 O 0.97266 0.44549 0.78808 0.0
O301 O 0.98137 0.40392 0.82167 0.0
O302 O 0.94469 0.37252 0.79826 0.0
O303 O 0.90066 0.3587 0.75977 0.0
O304 O 0.86299 0.37381 0.79247 0.0
O305 O 0.89834 0.43835 0.87081 0.0
O306 O 0.86899 0.41229 0.83161 0.0
C307 C 0.92094 0.47798 0.75785 0.0
C308 C 0.96908 0.43045 0.75817 0.0
C309 C 0.98211 0.51781 0.87565 0.0
C310 C 1.02156 0.54044 0.91348 0.0
C311 C 1.01831 0.55513 0.85166 0.0
C312 C 0.99331 0.53524 0.84705 0.0
C313 C 1.03241 0.55778 0.88467 0.0
C314 C 0.99622 0.52075 0.90873 0.0
C315 C 0.95615 0.49609 0.87177 0.0
C316 C 0.99225 0.36484 0.94307 0.0
C317 C 1.01786 0.38429 0.94026 0.0
H318 H 0.94253 0.32785 0.9376 0.0
C319 C 0.97431 0.37584 0.80909 0.0
C320 C 0.87124 0.42526 0.86338 0.0
C321 C 0.85167 0.33944 0.74531 0.0
C322 C 0.8447 0.3076 0.69314 0.0
C323 C 0.80216 0.33878 0.71526 0.0
C324 C 0.82086 0.34959 0.7426 0.0
C325 C 0.81415 0.31824 0.69021 0.0
C326 C 0.86302 0.31772 0.72111 0.0
C327 C 0.87322 0.35247 0.77131 0.0
H328 H 1.02689 0.56843 0.82953 0.0
H329 H 0.98295 0.53343 0.82115 0.0
H330 H 0.05196 0.57306 0.88757 0.0
H331 H 0.98726 0.50771 0.93094 0.0
H332 H 0.77857 0.34691 0.71301 0.0
H333 H 0.81143 0.36631 0.76101 0.0
H334 H 0.79974 0.31082 0.66851 0.0
H335 H 0.88686 0.31001 0.72283 0.0
C336 C 0.66663 0.85148 0.89919 0.0
C337 C 0.624 0.87186 0.86435 0.0
C338 C 0.64672 0.87607 0.89055 0.0
C339 C 0.62264 0.8437 0.84587 0.0
C340 C 0.66461 0.82289 0.88147 0.0
C341 C 0.64291 0.81935 0.85434 0.0
N342 N 0.68702 0.85514 0.92618 0.0
C343 C 0.70537 0.83132 0.9374 0.0
C344 C 0.68408 0.7985 0.89207 0.0
C345 C 0.70438 0.80267 0.9203 0.0
Gd346 Gd 0.64732 0.94872 1.01105 0.0
Gd347 Gd 0.68976 0.90474 0.94983 0.0
N348 N 0.64812 0.90305 0.90947 0.0
C349 C 0.60262 0.89569 0.8582 0.0
C350 C 0.62629 0.92561 0.90452 0.0
C351 C 0.60353 0.92245 0.87869 0.0
H352 H 0.62606 0.94613 0.92019 0.0
H353 H 0.58656 0.94067 0.87474 0.0
H354 H 0.60843 0.91775 0.07781 0.0
H355 H 0.72123 0.83479 0.95902 0.0
H356 H 0.59889 0.9285 0.14109 0.0
H357 H 0.58479 0.8933 0.83837 0.0
H358 H 0.6055 0.84026 0.82548 0.0
H359 H 0.70845 0.9951 0.98776 0.0
H360 H 0.68329 0.77622 0.87897 0.0
H361 H 0.71932 0.78387 0.92881 0.0
H362 H 0.65922 1.01907 0.16468 0.0
H363 H 0.64113 0.7976 0.84026 0.0
H364 H 0.72428 0.05749 0.0728 0.0
H365 H 0.73598 1.03945 1.01248 0.0
N366 N 0.67823 0.98993 0.03187 0.0
C367 C 0.67261 0.9985 0.06593 0.0
C368 C 0.7015 1.00372 1.01322 0.0
C369 C 0.71124 1.03854 0.06166 0.0
C370 C 0.71785 1.02849 0.02755 0.0
C371 C 0.68895 1.02307 0.08161 0.0
H372 H 0.69561 1.04968 0.12939 0.0
N373 N 0.63767 0.9566 0.07094 0.0
C374 C 0.65221 0.98101 0.08615 0.0
C375 C 0.62777 0.969 0.14181 0.0
C376 C 0.64743 0.98798 0.12204 0.0
C377 C 0.6194 0.93732 0.09029 0.0
C378 C 0.6139 0.94343 0.12593 0.0
O379 O 0.64634 0.87168 0.96385 0.0
O380 O 0.617 0.90339 0.99903 0.0
O381 O 0.60933 0.97618 0.03162 0.0
O382 O 0.60781 0.95907 0.97785 0.0
O383 O 0.68362 0.95371 0.92182 0.0
O384 O 0.65953 0.98263 0.96365 0.0
O385 O 0.6952 0.94192 0.03963 0.0
O386 O 0.72449 0.91669 0.99843 0.0
O387 O 0.73973 0.9087 0.94798 0.0
O388 O 0.71553 0.89317 0.90219 0.0
O389 O 0.65452 0.90131 0.03565 0.0
O390 O 0.69137 0.878 1.0002 0.0
C391 C 0.61951 0.87647 0.98107 0.0
C392 C 0.67199 0.98104 0.93148 0.0
C393 C 0.56079 0.96005 1.00976 0.0
C394 C 0.52144 0.94018 0.04987 0.0
C395 C 0.51271 0.93988 0.98655 0.0
C396 C 0.54161 0.95321 0.981 0.0
C397 C 0.50279 0.93301 0.02074 0.0
C398 C 0.55008 0.95426 0.04414 0.0
C399 C 0.59233 0.97181 1.00375 0.0
C400 C 0.66274 1.01323 0.13719 0.0
C401 C 0.68342 1.03073 0.11705 0.0
H402 H 0.6235 0.97364 0.16946 0.0
C403 C 0.72254 0.92996 0.03067 0.0
C404 C 0.67495 0.87927 0.02921 0.0
C405 C 0.76476 0.87108 0.91214 0.0
C406 C 0.78789 0.83211 0.87355 0.0
C407 C 0.80396 0.8357 0.93479 0.0
C408 C 0.78334 0.8603 0.94007 0.0
C409 C 0.80629 0.82162 0.90173 0.0
C410 C 0.76739 0.85702 0.87899 0.0
C411 C 0.74221 0.89657 0.91686 0.0
H412 H 0.49816 0.93441 0.96425 0.0
H413 H 0.54918 0.95769 0.95425 0.0
H414 H 0.4805 0.92227 0.02445 0.0
H415 H 0.56434 0.9598 0.06661 0.0
H416 H 0.81811 0.82742 0.95643 0.0
H417 H 0.78183 0.87066 0.96601 0.0
H418 H 0.8222 0.80239 0.89829 0.0
H419 H 0.75352 0.86569 0.85724 0.0
C420 C 0.50195 0.4184 0.65286 0.0
C421 C 0.48306 0.37421 0.61978 0.0
C422 C 0.47786 0.39815 0.64442 0.0
C423 C 0.51174 0.3718 0.60269 0.0
C424 C 0.53095 0.41544 0.63642 0.0
C425 C 0.53554 0.39237 0.6109 0.0
N426 N 0.49734 0.44012 0.67843 0.0
C427 C 0.52044 0.45915 0.68917 0.0
C428 C 0.55468 0.43544 0.64661 0.0
C429 C 0.54944 0.45728 0.67319 0.0
Gd430 Gd 0.40242 0.40301 0.76351 0.0
Gd431 Gd 0.44748 0.44348 0.7007 0.0
N432 N 0.45034 0.4005 0.66209 0.0
C433 C 0.45964 0.35274 0.61373 0.0
C434 C 0.42795 0.37883 0.65698 0.0
C435 C 0.43214 0.3549 0.63265 0.0
H436 H 0.40667 0.37976 0.67124 0.0
H437 H 0.41413 0.33802 0.62859 0.0
H438 H 0.44455 0.35253 0.81121 0.0
H439 H 0.51611 0.47616 0.70952 0.0
H440 H 0.45048 0.33663 0.87341 0.0
H441 H 0.4628 0.33401 0.59507 0.0
H442 H 0.51595 0.35367 0.58353 0.0
H443 H 0.33937 0.45016 0.76108 0.0
H444 H 0.57725 0.43396 0.63444 0.0
H445 H 0.56771 0.47267 0.68131 0.0
H446 H 0.37427 0.3969 0.93487 0.0
H447 H 0.55764 0.38982 0.59786 0.0
H448 H 0.3069 0.46191 0.86654 0.0
H449 H 0.3024 0.47303 0.80275 0.0
N450 N 0.36487 0.42575 0.80061 0.0
C451 C 0.3673 0.41885 0.83559 0.0
C452 C 0.34149 0.44451 0.78866 0.0
C453 C 0.32322 0.45156 0.84832 0.0
C454 C 0.32055 0.45782 0.81231 0.0
C455 C 0.34662 0.43169 0.86037 0.0
H456 H 0.33405 0.43375 0.91565 0.0
N457 N 0.40897 0.38547 0.82183 0.0
C458 C 0.39014 0.39825 0.84651 0.0
C459 C 0.41489 0.36757 0.89208 0.0
C460 C 0.39266 0.38972 0.88236 0.0
C461 C 0.43024 0.36333 0.83107 0.0
C462 C 0.43359 0.35416 0.86626 0.0
O463 O 0.48037 0.40076 0.71715 0.0
O464 O 0.44599 0.37049 0.74722 0.0
O465 O 0.37067 0.36796 0.78181 0.0
O466 O 0.38886 0.36576 0.72851 0.0
O467 O 0.39942 0.4352 0.67257 0.0
O468 O 0.36869 0.4223 0.71863 0.0
O469 O 0.40463 0.45408 0.787 0.0
O470 O 0.43595 0.47901 0.74756 0.0
O471 O 0.43744 0.49279 0.69408 0.0
O472 O 0.46156 0.46824 0.65345 0.0
O473 O 0.45071 0.40762 0.78403 0.0
O474 O 0.47121 0.44887 0.75364 0.0
C475 C 0.47396 0.37309 0.73155 0.0
C476 C 0.37115 0.42938 0.68432 0.0
C477 C 0.38408 0.31834 0.75995 0.0
C478 C 0.40265 0.27783 0.80028 0.0
C479 C 0.40159 0.26878 0.73694 0.0
C480 C 0.38982 0.29862 0.73129 0.0
C481 C 0.40829 0.25851 0.77111 0.0
C482 C 0.38962 0.30731 0.79441 0.0
C483 C 0.37451 0.35093 0.75377 0.0
C484 C 0.37257 0.40302 0.90719 0.0
C485 C 0.34964 0.42398 0.89623 0.0
H486 H 0.41743 0.3603 0.91931 0.0
C487 C 0.41964 0.47983 0.77781 0.0
C488 C 0.47051 0.43026 0.78121 0.0
C489 C 0.47628 0.51985 0.6623 0.0
C490 C 0.51639 0.54444 0.62721 0.0
C491 C 0.50493 0.56328 0.68607 0.0
C492 C 0.48223 0.5406 0.68996 0.0
C493 C 0.52195 0.56531 0.65479 0.0
C494 C 0.49328 0.52215 0.63108 0.0
C495 C 0.45315 0.49509 0.6651 0.0
H496 H 0.40607 0.25374 0.71469 0.0
H497 H 0.38566 0.30648 0.70452 0.0
H498 H 0.41782 0.23544 0.77468 0.0
H499 H 0.38495 0.32215 0.81674 0.0
H500 H 0.50943 0.57925 0.7074 0.0
H501 H 0.46954 0.53927 0.71451 0.0
H502 H 0.53959 0.58285 0.6523 0.0
H503 H 0.4884 0.50645 0.6095 0.0
C504 C 0.93804 0.25791 0.39702 0.0
C505 C 0.98164 0.23657 0.36468 0.0
C506 C 0.95744 0.23267 0.38921 0.0
C507 C 0.98534 0.26519 0.34742 0.0
C508 C 0.94236 0.28686 0.38046 0.0
C509 C 0.96579 0.29021 0.35526 0.0
N510 N 0.91585 0.25446 0.42218 0.0
C511 C 0.89776 0.27875 0.43253 0.0
C512 C 0.92335 0.31181 0.39027 0.0
C513 C 0.90109 0.30778 0.41653 0.0
Gd514 Gd 0.95132 0.16045 0.51027 0.0
Gd515 Gd 0.91071 0.20479 0.44557 0.0
N516 N 0.95391 0.20521 0.40713 0.0
C517 C 1.00201 0.21187 0.35879 0.0
C518 C 0.97439 0.18144 0.40184 0.0
C519 C 0.99848 0.18434 0.37763 0.0
H520 H 0.97247 0.15995 0.41571 0.0
H521 H 1.01441 0.16524 0.37355 0.0
H522 H 0.99712 0.20201 0.56241 0.0
H523 H 0.88046 0.27543 0.4527 0.0
H524 H 1.01231 0.20393 0.62512 0.0
H525 H 1.02086 0.214 0.34021 0.0
H526 H 1.0037 0.2684 0.3284 0.0
H527 H 0.90211 0.09899 0.50312 0.0
H528 H 0.92597 0.3344 0.37807 0.0
H529 H 0.8865 0.327 0.42442 0.0
H530 H 0.95665 0.12032 0.67871 0.0
H531 H 0.96936 0.31225 0.34212 0.0
H532 H 0.89313 0.05761 0.60475 0.0
H533 H 0.88055 0.05881 0.54122 0.0
N534 N 0.92859 0.12024 0.54392 0.0
C535 C 0.93557 0.12002 0.57895 0.0
C536 C 0.90903 0.09847 0.53037 0.0
C537 C 0.90323 0.07522 0.58799 0.0
C538 C 0.89618 0.07575 0.55212 0.0
C539 C 0.92307 0.09751 0.60187 0.0
H540 H 0.92128 0.08084 0.65582 0.0
N541 N 0.96722 0.16357 0.56926 0.0
C542 C 0.95529 0.14244 0.592 0.0
C543 C 0.98396 0.1652 0.64001 0.0
C544 C 0.96333 0.14272 0.62805 0.0
C545 C 0.98739 0.18554 0.58074 0.0
C546 C 0.99612 0.18664 0.61621 0.0
O547 O 0.95374 0.23719 0.46199 0.0
O548 O 0.98227 0.20501 0.49763 0.0
O549 O 0.98876 0.13045 0.52722 0.0
O550 O 0.98881 0.15041 0.47432 0.0
O551 O 0.91714 0.15526 0.41969 0.0
O552 O 0.93474 0.12586 0.46538 0.0
O553 O 0.90075 0.16283 0.53234 0.0
O554 O 0.87527 0.19561 0.49428 0.0
O555 O 0.86193 0.19523 0.43744 0.0
O556 O 0.8867 0.22072 0.39825 0.0
O557 O 0.94194 0.2081 0.53296 0.0
O558 O 0.9058 0.23088 0.49601 0.0
C559 C 0.98017 0.23202 0.47977 0.0
C560 C 0.92497 0.12735 0.43192 0.0
C561 C 1.03672 0.1475 0.50443 0.0
C562 C 0.07642 0.16761 0.54405 0.0
C563 C 0.08441 0.16797 0.48051 0.0
C564 C 0.05547 0.15465 0.47539 0.0
C565 C 0.09474 0.17474 0.51454 0.0
C566 C 1.04784 0.15321 0.53867 0.0
C567 C 1.00493 0.13616 0.49885 0.0
C568 C 0.95081 0.12044 0.65091 0.0
C569 C 0.93071 0.09793 0.63787 0.0
H570 H 0.99082 0.16606 0.66748 0.0
C571 C 0.87515 0.17873 0.52448 0.0
C572 C 0.92139 0.22981 0.52569 0.0
C573 C 0.83482 0.23464 0.40594 0.0
C574 C 0.80361 0.26879 0.3685 0.0
C575 C 0.79667 0.26891 0.43221 0.0
C576 C 0.8197 0.24631 0.43589 0.0
C577 C 0.78864 0.28013 0.3988 0.0
C578 C 0.82661 0.24587 0.37243 0.0
C579 C 0.85997 0.21164 0.40876 0.0
H580 H 0.09867 0.17358 0.45798 0.0
H581 H 1.04751 0.15042 0.44876 0.0
H582 H 0.1171 0.18542 0.51775 0.0
H583 H 1.03378 0.14744 0.56124 0.0
H584 H 0.78517 0.27795 0.45538 0.0
H585 H 0.82586 0.23826 0.46207 0.0
H586 H 0.77107 0.29802 0.39673 0.0
H587 H 0.83816 0.23658 0.34936 0.0
C588 C 0.09783 0.69099 0.15783 0.0
C589 C 0.11953 0.73201 0.12178 0.0
C590 C 0.1231 0.70906 0.14813 0.0
C591 C 0.09108 0.73547 0.10436 0.0
C592 C 0.06893 0.69539 0.1415 0.0
C593 C 0.06589 0.71719 0.11414 0.0
N594 N 0.10097 0.67099 0.18543 0.0
C595 C 0.07641 0.65515 0.1985 0.0
C596 C 1.04369 0.67841 0.15393 0.0
C597 C 1.0474 0.65842 0.18275 0.0
Gd598 Gd 0.19766 0.70612 0.26633 0.0
Gd599 Gd 0.15104 0.66304 0.20581 0.0
N600 N 0.15029 0.70569 0.16616 0.0
C601 C 0.14434 0.7515 0.11437 0.0
C602 C 0.17413 0.72539 0.15953 0.0
C603 C 0.17159 0.74838 0.1336 0.0
H604 H 0.19535 0.72358 0.17362 0.0
H605 H 0.19077 0.76368 0.12842 0.0
H606 H 0.15943 0.75791 0.31506 0.0
H607 H 0.07949 0.63955 0.22063 0.0
H608 H 0.15749 0.77532 0.3771 0.0
H609 H 0.14248 0.76944 0.09439 0.0
H610 H 0.08811 0.7528 0.08385 0.0
H611 H 0.25842 0.65591 0.26091 0.0
H612 H 1.02112 0.68107 0.14197 0.0
H613 H 1.02796 0.64549 0.19278 0.0
H614 H 0.23584 0.71442 0.4348 0.0
H615 H 1.04392 0.72072 0.10105 0.0
H616 H 0.29706 0.64585 0.36395 0.0
H617 H 0.29713 0.63286 0.3005 0.0
N618 N 0.2366 0.68267 0.30117 0.0
C619 C 0.2365 0.69043 0.33598 0.0
C620 C 0.25839 0.66258 0.28826 0.0
C621 C 0.28007 0.65639 0.34661 0.0
C622 C 0.28025 0.64908 0.31078 0.0
C623 C 0.25816 0.67739 0.35962 0.0
H624 H 0.27384 0.67604 0.4139 0.0
N625 N 0.19497 0.72467 0.32428 0.0
C626 C 0.2149 0.71188 0.34789 0.0
C627 C 0.19349 0.74397 0.39413 0.0
C628 C 0.21463 0.72112 0.38354 0.0
C629 C 0.17471 0.74738 0.33425 0.0
C630 C 0.17361 0.75732 0.36929 0.0
O631 O 0.11832 0.70573 0.22257 0.0
O632 O 0.15269 0.73716 0.25107 0.0
O633 O 0.22932 0.74214 0.28208 0.0
O634 O 0.20911 0.74299 0.22967 0.0
O635 O 0.20032 0.66671 0.17796 0.0
O636 O 0.23052 0.68779 0.22073 0.0
O637 O 0.19497 0.65578 0.29209 0.0
O638 O 0.1708 0.62776 0.24909 0.0
O639 O 0.13855 0.61463 0.20498 0.0
O640 O 0.145 0.63818 0.15588 0.0
O641 O 0.15021 0.70148 0.28881 0.0
O642 O 0.13108 0.65853 0.261 0.0
C643 C 0.12446 0.73369 0.23623 0.0
C644 C 0.22824 0.67621 0.18814 0.0
C645 C 0.21437 0.79109 0.25915 0.0
C646 C 0.19657 0.83163 0.29936 0.0
C647 C 0.19243 0.83894 0.23589 0.0
C648 C 0.20544 0.80962 0.23034 0.0
C649 C 0.18749 0.84971 0.27018 0.0
C650 C 0.21116 0.80299 0.29348 0.0
C651 C 0.22422 0.75854 0.25366 0.0
C652 C 0.23579 0.70775 0.40727 0.0
C653 C 0.25747 0.68592 0.39535 0.0
H654 H 0.19264 0.75178 0.42125 0.0
C655 C 0.18411 0.62854 0.28114 0.0
C656 C 0.13203 0.67736 0.28823 0.0
C657 C 0.10807 0.5973 0.15745 0.0
C658 C 0.07631 0.58054 0.10803 0.0
C659 C 0.06294 0.56525 0.16774 0.0
C660 C 0.08853 0.58098 0.18058 0.0
C661 C 0.05688 0.56489 0.13168 0.0
C662 C 0.10169 0.59707 0.12108 0.0
C663 C 0.13594 0.61287 0.17108 0.0
H664 H 0.18532 0.85298 0.21358 0.0
H665 H 0.20785 0.80113 0.20361 0.0
H666 H 0.17643 0.87207 0.27389 0.0
H667 H 0.21841 0.78921 0.31593 0.0
H668 H 1.04795 0.55299 0.18576 0.0
H669 H 0.09295 0.5803 0.20869 0.0
H670 H 1.03701 0.55229 0.1222 0.0
H671 H 0.11694 0.6089 0.10288 0.0
C672 C 0.94381 0.61703 0.45677 0.0
C673 C 0.97473 0.63803 0.409 0.0
C674 C 0.96499 0.63855 0.44448 0.0
C675 C 0.96218 0.61616 0.38579 0.0
C676 C 0.93152 0.59475 0.43362 0.0
C677 C 0.94062 0.59461 0.39806 0.0
N678 N 0.93545 0.61776 0.49142 0.0
C679 C 0.91525 0.59639 0.50456 0.0
C680 C 0.9106 0.57311 0.44693 0.0
C681 C 0.90251 0.5739 0.48254 0.0
Gd682 Gd 0.91018 0.70335 0.58259 0.0
Gd683 Gd 0.95809 0.65744 0.52543 0.0
N684 N 0.97703 0.65917 0.46761 0.0
C685 C 0.9972 0.65917 0.39805 0.0
C686 C 0.99934 0.67946 0.45731 0.0
C687 C 1.0097 0.67984 0.42238 0.0
H688 H 1.00925 0.69529 0.47616 0.0
H689 H 1.02737 0.69598 0.4143 0.0
H690 H 0.97113 0.65978 0.6156 0.0
H691 H 0.90787 0.59718 0.53165 0.0
H692 H 1.00905 0.66403 0.66293 0.0
H693 H 1.00537 0.65943 0.37105 0.0
H694 H 0.96926 0.61549 0.3584 0.0
H695 H 0.88577 0.77526 0.56717 0.0
H696 H 0.90062 0.55565 0.42997 0.0
H697 H 0.88625 0.55732 0.49301 0.0
H698 H 0.99329 0.7662 0.709 0.0
H699 H 0.93133 0.57771 0.3799 0.0
H700 H 0.92252 0.83346 0.6483 0.0
H701 H 0.88936 0.82681 0.59574 0.0
N702 N 0.91622 0.75359 0.60359 0.0
C703 C 0.93498 0.75667 0.63207 0.0
C704 C 0.90039 0.77827 0.59 0.0
C705 C 0.92093 0.8109 0.63597 0.0
C706 C 0.90231 0.80729 0.60617 0.0
C707 C 0.93797 0.78557 0.64893 0.0
H708 H 0.96087 0.81046 0.69088 0.0
N709 N 0.9513 0.70431 0.62373 0.0
C710 C 0.95322 0.73139 0.6423 0.0
C711 C 0.9948 0.71013 0.67753 0.0
C712 C 0.97496 0.7349 0.6697 0.0
C713 C 0.97153 0.68067 0.63055 0.0
C714 C 0.99333 0.68309 0.65756 0.0
O715 O 0.90882 0.66017 0.49781 0.0
O716 O 0.87688 0.6843 0.53741 0.0
O717 O 0.86202 0.71659 0.58114 0.0
O718 O 0.88335 0.70848 0.63125 0.0
O719 O 0.95215 0.70446 0.50093 0.0
O720 O 0.90846 0.72394 0.52755 0.0
O721 O 0.95267 0.73617 0.56764 0.0
O722 O 0.98711 0.70377 0.53978 0.0
O723 O 0.9941 0.62504 0.51036 0.0
O724 O 0.99614 0.64775 0.56126 0.0
O725 O 0.91321 0.65396 0.61077 0.0
O726 O 0.93999 0.62447 0.57132 0.0
C727 C 0.88054 0.67069 0.50591 0.0
C728 C 0.92807 0.72305 0.50106 0.0
C729 C 0.84271 0.74615 0.62866 0.0
C730 C 0.82597 0.77828 0.67797 0.0
C731 C 0.80942 0.79097 0.61847 0.0
C732 C 0.82561 0.76537 0.60562 0.0
C733 C 0.80946 0.79737 0.65444 0.0
C734 C 0.84289 0.75288 0.66492 0.0
C735 C 0.85884 0.71832 0.61499 0.0
C736 C 0.97693 0.76328 0.68767 0.0
C737 C 0.95847 0.78851 0.67735 0.0
H738 H 1.01185 0.71193 0.69832 0.0
C739 C 0.98126 0.7317 0.55467 0.0
C740 C 0.92525 0.62638 0.60226 0.0
C741 C 1.04347 0.6396 0.53091 0.0
C742 C 0.08343 0.65531 0.48918 0.0
C743 C 0.09236 0.65931 0.55231 0.0
C744 C 0.06288 0.64779 0.55898 0.0
C745 C 0.10238 0.66366 0.51763 0.0
C746 C 0.0547 0.64184 0.49612 0.0
C747 C 1.011 0.63107 0.53788 0.0
H748 H 0.79653 0.80571 0.60051 0.0
H749 H 0.82466 0.76067 0.5776 0.0
H750 H 0.7965 0.81723 0.66395 0.0
H751 H 0.85537 0.73791 0.68308 0.0
H752 H 0.10709 0.66585 0.57407 0.0
H753 H 0.05499 0.6459 0.58601 0.0
H754 H 0.12477 0.6739 0.51301 0.0
H755 H 1.04042 0.63485 0.47417 0.0
C756 C 0.24731 0.17771 0.72523 0.0
C757 C 0.24358 0.20364 0.66818 0.0
C758 C 0.23308 0.19944 0.70306 0.0
C759 C 0.26911 0.18654 0.65612 0.0
C760 C 0.27208 0.15953 0.71243 0.0
C761 C 0.28333 0.16459 0.67817 0.0
N762 N 0.23521 0.17246 0.75799 0.0
C763 C 0.24547 0.14785 0.77775 0.0
C764 C 0.28404 0.13588 0.73386 0.0
C765 C 0.27032 0.12968 0.76635 0.0
Gd766 Gd 0.14482 0.16123 0.82594 0.0
Gd767 Gd 0.19478 0.20689 0.77413 0.0
N768 N 0.20833 0.21578 0.71526 0.0
C769 C 0.22774 0.22454 0.6462 0.0
C770 C 0.19217 0.2354 0.69366 0.0
C771 C 0.20178 0.24029 0.65892 0.0
H772 H 0.17263 0.24825 0.70385 0.0
H773 H 0.18932 0.25636 0.64207 0.0
H774 H 0.18444 0.22339 0.8608 0.0
H775 H 0.23389 0.14119 0.80167 0.0
H776 H 0.17934 0.25809 0.91147 0.0
H777 H 0.23513 0.22839 0.61926 0.0
H778 H 0.27765 0.18963 0.62949 0.0
H779 H 0.07345 0.13984 0.80541 0.0
H780 H 0.30302 0.12142 0.72493 0.0
H781 H 0.27848 0.11047 0.78234 0.0
H782 H 0.07876 0.23638 0.95726 0.0
H783 H 0.3025 0.151 0.6681 0.0
H784 H 1.01376 0.17026 0.88881 0.0
H785 H 1.02157 0.14164 0.83299 0.0
N786 N 0.09418 0.16674 0.84558 0.0
C787 C 0.09037 0.18328 0.87573 0.0
C788 C 0.06994 0.15256 0.82963 0.0
C789 C 1.03646 0.16947 0.8769 0.0
C790 C 1.04072 0.15344 0.84524 0.0
C791 C 0.06128 0.18518 0.89216 0.0
H792 H 1.03556 0.20501 0.93568 0.0
N793 N 0.14209 0.20036 0.86956 0.0
C794 C 0.11504 0.20074 0.88805 0.0
C795 C 0.13462 0.24092 0.9261 0.0
C796 C 0.11073 0.22085 0.91695 0.0
C797 C 0.16437 0.22157 0.8769 0.0
C798 C 0.16126 0.24173 0.90551 0.0
O799 O 0.18741 0.1604 0.74139 0.0
O800 O 0.1657 0.12755 0.78146 0.0
O801 O 0.12992 0.11375 0.82059 0.0
O802 O 0.13906 0.13135 0.8723 0.0
O803 O 0.14914 0.20692 0.74603 0.0
O804 O 0.12584 0.16411 0.77036 0.0
O805 O 0.11338 0.20602 0.81341 0.0
O806 O 0.14912 0.23777 0.78753 0.0
O807 O 0.22481 0.24346 0.75546 0.0
O808 O 0.20538 0.2461 0.80783 0.0
O809 O 0.19253 0.16351 0.85754 0.0
O810 O 0.22454 0.1934 0.82432 0.0
C811 C 0.17782 0.13173 0.74922 0.0
C812 C 0.12865 0.18463 0.74479 0.0
C813 C 0.10013 0.09262 0.8668 0.0
C814 C 0.06752 0.0749 0.91521 0.0
C815 C 0.05374 0.06304 0.85468 0.0
C816 C 0.08006 0.07819 0.84277 0.0
C817 C 1.04744 0.06136 0.89066 0.0
C818 C 0.09373 0.09075 0.90305 0.0
C819 C 0.1283 0.10836 0.85414 0.0
C820 C 0.08229 0.22138 0.93472 0.0
C821 C 0.05765 0.20354 0.9224 0.0
H822 H 0.13219 0.25678 0.94805 0.0
C823 C 0.12043 0.23442 0.80137 0.0
C824 C 0.22008 0.17717 0.85377 0.0
C825 C 0.20936 0.29302 0.77559 0.0
C826 C 0.19181 0.33218 0.7334 0.0
C827 C 0.18765 0.34172 0.79638 0.0
C828 C 0.20059 0.31258 0.80344 0.0
C829 C 0.1828 0.35133 0.76156 0.0
C830 C 0.20601 0.30363 0.74072 0.0
C831 C 0.21982 0.26093 0.78275 0.0
H832 H 1.03827 0.05236 0.83596 0.0
H833 H 0.08455 0.07874 0.81468 0.0
H834 H 1.02687 1.04942 0.89932 0.0
H835 H 0.10955 0.10092 0.92182 0.0
H836 H 0.18064 0.35657 0.81794 0.0
H837 H 0.20315 0.30508 0.83059 0.0
H838 H 0.17193 0.37362 0.75664 0.0
H839 H 0.21316 0.28911 0.71902 0.0
C840 C 0.66357 0.47732 0.95273 0.0
C841 C 0.63473 0.45119 0.90685 0.0
C842 C 0.64239 0.45503 0.94272 0.0
C843 C 0.64969 0.46916 0.88114 0.0
C844 C 0.67776 0.49621 0.92713 0.0
C845 C 0.67117 0.49159 0.89125 0.0
N846 N 0.66927 0.48138 0.98772 0.0
C847 C 0.68748 0.50519 0.99892 0.0
C848 C 0.6976 0.51966 0.93839 0.0
C849 C 0.7022 0.52438 0.97444 0.0
Gd850 Gd 0.68282 0.3996 0.09125 0.0
Gd851 Gd 0.64492 0.44624 0.02632 0.0
N852 N 0.62795 0.43838 0.96823 0.0
C853 C 0.61173 0.42997 0.89797 0.0
C854 C 0.60449 0.41873 0.95988 0.0
C855 C 0.59638 0.41387 0.92464 0.0
H856 H 0.59233 0.4064 0.98036 0.0
H857 H 0.57829 0.39772 0.91806 0.0
H858 H 0.62067 0.44752 0.11301 0.0
H859 H 0.69154 0.50881 0.02666 0.0
H860 H 0.576 0.44538 0.15191 0.0
H861 H 0.60519 0.42633 0.87072 0.0
H862 H 0.64431 0.46635 0.85343 0.0
H863 H 0.70814 0.32681 0.08584 0.0
H864 H 0.70898 0.53464 0.91952 0.0
H865 H 0.71713 0.54277 0.98339 0.0
H866 H 0.57916 0.34324 0.20109 0.0
H867 H 0.68205 0.50572 0.87117 0.0
H868 H 0.65519 0.27191 0.15803 0.0
H869 H 0.69716 0.27603 0.11411 0.0
N870 N 0.67309 0.35052 0.11423 0.0
C871 C 0.64948 0.3489 0.13795 0.0
C872 C 0.6898 0.32488 0.10503 0.0
C873 C 0.66001 0.29415 0.14592 0.0
C874 C 0.68368 0.29634 0.12101 0.0
C875 C 0.64232 0.32046 0.15433 0.0
H876 H 0.61161 0.29728 0.19075 0.0
N877 N 0.63716 0.40226 0.12565 0.0
C878 C 0.63113 0.37537 0.14381 0.0
C879 C 0.58563 0.39889 0.1696 0.0
C880 C 0.6052 0.37317 0.16622 0.0
C881 C 0.61714 0.42679 0.1279 0.0
C882 C 0.59145 0.42562 0.15006 0.0
O883 O 0.69634 0.44278 1.00526 0.0
O884 O 0.71991 0.41082 0.04565 0.0
O885 O 0.7314 0.4074 0.1027 0.0
O886 O 0.70449 0.38071 0.13872 0.0
O887 O 0.65131 0.39803 1.0047 0.0
O888 O 0.69001 0.37626 0.03866 0.0
O889 O 0.64167 0.36729 0.07099 0.0
O890 O 0.61168 0.40348 0.04258 0.0
O891 O 0.61578 0.48344 1.00706 0.0
O892 O 0.60344 0.45951 0.0553 0.0
O893 O 0.67643 0.44853 0.11839 0.0
O894 O 0.66405 0.47928 0.07161 0.0
C895 C 0.72158 0.42725 1.01529 0.0
C896 C 0.67362 0.37766 1.00941 0.0
C897 C 0.75636 0.36606 0.13305 0.0
C898 C 0.78721 0.33149 0.17033 0.0
C899 C 0.79374 0.33108 0.10656 0.0
C900 C 0.77104 0.35403 0.103 0.0
C901 C 0.80184 0.31985 0.13996 0.0
C902 C 0.76454 0.35475 0.16652 0.0
C903 C 0.7318 0.38966 0.13036 0.0
C904 C 0.59886 0.34512 0.18364 0.0
C905 C 0.61733 0.3189 0.17773 0.0
H906 H 0.5655 0.39806 0.1865 0.0
C907 C 0.61426 0.37466 0.05672 0.0
C908 C 0.67128 0.47695 0.1059 0.0
C909 C 0.56252 0.47885 0.01903 0.0
C910 C 0.52452 0.47871 0.97146 0.0
C911 C 0.50776 0.48191 0.03237 0.0
C912 C 0.53846 0.48092 0.04368 0.0
C913 C 0.50077 0.48101 0.9964 0.0
C914 C 0.55529 0.47776 0.98281 0.0
C915 C 0.5949 0.47959 0.03124 0.0
H916 H 0.80495 0.32181 0.08334 0.0
H917 H 0.76483 0.36216 0.07686 0.0
H918 H 0.81917 0.30173 0.14198 0.0
H919 H 0.75328 0.36428 0.18965 0.0
H920 H 0.48932 0.48342 0.05152 0.0
H921 H 0.54343 0.48208 0.07166 0.0
H922 H 0.47686 0.48164 0.98806 0.0
H923 H 0.57342 0.4766 0.96321 0.0
C924 C 0.36405 0.91644 0.20635 0.0
C925 C 0.38349 0.88553 0.15758 0.0
C926 C 0.38427 0.89403 0.19345 0.0
C927 C 0.36266 0.90044 0.13467 0.0
C928 C 0.34276 0.93108 0.1835 0.0
C929 C 0.34235 0.92314 0.14759 0.0
N930 N 0.36521 0.92385 0.24127 0.0
C931 C 0.34502 0.94514 0.25503 0.0
C932 C 0.32241 0.95319 0.19742 0.0
C933 C 0.32349 0.96014 0.23332 0.0
Gd934 Gd 0.45148 0.94258 0.33153 0.0
Gd935 Gd 0.40349 0.89756 0.27449 0.0
N936 N 0.40392 0.87971 0.21629 0.0
C937 C 0.40344 0.86203 0.14592 0.0
C938 C 0.42262 0.85605 0.20541 0.0
C939 C 0.42301 0.84717 0.16998 0.0
H940 H 0.43759 0.84435 0.22409 0.0
H941 H 0.43849 0.829 0.1612 0.0
H942 H 0.40643 0.8824 0.36247 0.0
H943 H 0.3461 0.95162 0.28241 0.0
H944 H 0.40832 0.84458 0.41057 0.0
H945 H 0.40368 0.85495 0.11852 0.0
H946 H 0.36183 0.89434 0.10698 0.0
H947 H 0.52439 0.96266 0.31709 0.0
H948 H 0.30575 0.96496 0.1807 0.0
H949 H 0.30787 0.97728 0.24427 0.0
H950 H 0.50869 0.85748 0.46106 0.0
H951 H 0.32623 0.93425 0.12963 0.0
H952 H 0.57913 0.92463 0.40119 0.0
H953 H 0.57484 0.9571 0.34743 0.0
N954 N 0.50092 0.93401 0.35374 0.0
C955 C 0.50275 0.91554 0.38279 0.0
C956 C 0.52634 0.94831 0.34044 0.0
C957 C 0.55703 0.92708 0.38809 0.0
C958 C 0.55476 0.94529 0.3576 0.0
C959 C 0.53099 0.91145 0.40066 0.0
H960 H 0.55404 0.88797 0.44396 0.0
N961 N 0.45055 0.90124 0.37281 0.0
C962 C 0.47687 0.89847 0.39248 0.0
C963 C 0.45383 0.85768 0.42727 0.0
C964 C 0.47909 0.87672 0.42028 0.0
C965 C 0.42656 0.88157 0.3786 0.0
C966 C 0.42768 0.8598 0.40597 0.0
O967 O 0.40848 0.9468 0.24676 0.0
O968 O 0.43291 0.97765 0.28681 0.0
O969 O 0.46921 0.98926 0.33012 0.0
O970 O 0.45483 0.97029 0.3797 0.0
O971 O 0.45065 0.89975 0.25069 0.0
O972 O 0.47102 0.94333 0.27613 0.0
O973 O 0.48306 0.89798 0.31786 0.0
O974 O 0.448 0.86631 0.29061 0.0
O975 O 0.36899 0.86444 0.25851 0.0
O976 O 0.3927 0.85824 0.30831 0.0
O977 O 0.40222 0.94156 0.3599 0.0
O978 O 0.37185 0.91604 0.32063 0.0
C979 C 0.41935 0.9748 0.25511 0.0
C980 C 0.46968 0.92322 0.25016 0.0
C981 C 0.49581 1.00715 0.38031 0.0
C982 C 0.52522 1.02138 0.43247 0.0
C983 C 0.5427 1.03749 0.37454 0.0
C984 C 0.51732 1.02313 0.35926 0.0
C985 C 0.54658 1.03682 0.41098 0.0
C986 C 0.50006 1.0062 0.41708 0.0
C987 C 0.4682 0.99331 0.3639 0.0
C988 C 0.50676 0.87381 0.43937 0.0
C989 C 0.53262 0.89117 0.42963 0.0
H990 H 0.45465 0.84065 0.44833 0.0
C991 C 0.47633 0.86968 0.30525 0.0
C992 C 0.37441 0.93044 0.35156 0.0
C993 C 0.38142 0.81303 0.275 0.0
C994 C 0.38793 0.77369 0.22952 0.0
C995 C 0.40295 0.76244 0.28987 0.0
C996 C 0.39361 0.7922 0.30005 0.0
C997 C 0.40069 0.75338 0.25461 0.0
C998 C 0.37753 0.80302 0.23998 0.0
C999 C 0.37483 0.84564 0.28461 0.0
H1000 H 0.55915 1.04957 0.35811 0.0
H1001 H 0.51453 1.02465 0.33092 0.0
H1002 H 0.56616 1.04855 0.42249 0.0
H1003 H 0.48339 0.99462 0.43378 0.0
H1004 H 0.4128 0.7467 0.30918 0.0
H1005 H 0.3966 0.79917 0.32726 0.0
H1006 H 0.40925 0.73076 0.24679 0.0
H1007 H 0.36813 0.81861 0.22016 0.0
C1008 C 0.15431 0.35731 0.39873 0.0
C1009 C 0.11299 0.38773 0.3722 0.0
C1010 C 0.13842 0.38557 0.39545 0.0
C1011 C 0.10519 0.36233 0.35095 0.0
C1012 C 0.14545 0.33136 0.37868 0.0
C1013 C 0.12138 0.33427 0.35414 0.0
N1014 N 0.17682 0.35453 0.4236 0.0
C1015 C 0.19069 0.32672 0.43061 0.0
C1016 C 0.16043 0.30291 0.3847 0.0
C1017 C 0.18291 0.30052 0.41102 0.0
Gd1018 Gd 0.14814 0.44917 0.50976 0.0
Gd1019 Gd 0.19124 0.40043 0.45085 0.0
N1020 N 0.14592 0.40976 0.41709 0.0
C1021 C 0.09514 0.41485 0.3721 0.0
C1022 C 0.12685 0.43505 0.41887 0.0
C1023 C 0.10173 0.4383 0.39606 0.0
H1024 H 0.13032 0.45259 0.43819 0.0
H1025 H 0.08715 0.45875 0.39739 0.0
H1026 H 0.16025 0.43016 0.59561 0.0
H1027 H 0.2078 0.325 0.45125 0.0
H1028 H 0.17494 0.45632 0.65066 0.0
H1029 H 0.07541 0.41733 0.35474 0.0
H1030 H 0.08595 0.36383 0.33276 0.0
H1031 H 0.11826 0.50637 0.45787 0.0
H1032 H 0.15427 0.28248 0.36976 0.0
H1033 H 0.19417 0.27851 0.41628 0.0
H1034 H 0.17604 0.56412 0.62019 0.0
H1035 H 0.11445 0.31465 0.33828 0.0
H1036 H 0.1362 0.59337 0.50741 0.0
H1037 H 0.11457 0.56351 0.45782 0.0
N1038 N 0.14358 0.50387 0.50604 0.0
C1039 C 0.15296 0.51969 0.53508 0.0
C1040 C 0.12799 0.51919 0.47963 0.0
C1041 C 0.13815 0.5683 0.50746 0.0
C1042 C 0.12582 0.55154 0.47948 0.0
C1043 C 0.15113 0.55242 0.53616 0.0
H1044 H 0.15979 0.59334 0.56759 0.0
N1045 N 0.15955 0.47166 0.56489 0.0
C1046 C 0.16143 0.50313 0.56519 0.0
C1047 C 0.17494 0.50186 0.62716 0.0
C1048 C 0.16923 0.51904 0.59644 0.0
C1049 C 0.16308 0.45499 0.59551 0.0
C1050 C 0.17139 0.46974 0.62681 0.0
O1051 O 0.15073 0.36726 0.47045 0.0
O1052 O 0.11802 0.40585 0.48829 0.0
O1053 O 0.11198 0.45283 0.5484 0.0
O1054 O 0.10048 0.45516 0.4924 0.0
O1055 O 0.18958 0.44917 0.42151 0.0
O1056 O 0.17168 0.48035 0.46531 0.0
O1057 O 0.19694 0.4437 0.53814 0.0
O1058 O 0.22555 0.41862 0.49593 0.0
O1059 O 0.24056 0.39169 0.44902 0.0
O1060 O 0.21439 0.38657 0.40179 0.0
O1061 O 0.15858 0.40445 0.53701 0.0
O1062 O 0.19354 0.3762 0.50397 0.0
C1063 C 0.12208 0.37558 0.47989 0.0
C1064 C 0.18254 0.4777 0.43245 0.0
C1065 C 0.06688 0.48062 0.53373 0.0
C1066 C 1.02821 0.49728 0.57623 0.0
C1067 C 1.03165 0.52288 0.5193 0.0
C1068 C 0.05591 0.50299 0.50969 0.0
C1069 C 1.01748 0.51979 0.5523 0.0
C1070 C 0.05312 0.47828 0.56693 0.0
C1071 C 0.09046 0.45725 0.52487 0.0
C1072 C 0.1698 0.55159 0.59654 0.0
C1073 C 0.16063 0.56823 0.56655 0.0
H1074 H 0.18107 0.51326 0.65159 0.0
C1075 C 0.22415 0.43183 0.52812 0.0
C1076 C 0.17755 0.38096 0.53303 0.0
C1077 C 0.25862 0.35415 0.40829 0.0
C1078 C 0.28363 0.32051 0.36484 0.0
C1079 C 0.2871 0.30832 0.42738 0.0
C1080 C 0.26972 0.3347 0.43539 0.0
C1081 C 0.29411 0.30126 0.39241 0.0
C1082 C 0.26558 0.34683 0.37301 0.0
C1083 C 0.24105 0.38279 0.41648 0.0
H1084 H 1.02319 0.54006 0.50073 0.0
H1085 H 0.06545 0.50472 0.48342 0.0
H1086 H 0.99791 0.53443 0.55887 0.0
H1087 H 0.06068 0.46015 0.58497 0.0
H1088 H 0.29534 0.29337 0.4484 0.0
H1089 H 0.26491 0.33977 0.46281 0.0
H1090 H 0.30765 0.28064 0.38689 0.0
H1091 H 0.25764 0.36208 0.35205 0.0
C1092 C 1.0059 0.919 0.15536 0.0
C1093 C 0.98402 0.88009 0.11687 0.0
C1094 C 0.98064 0.90156 0.14464 0.0
C1095 C 1.0121 0.8782 0.09845 0.0
C1096 C 1.03463 0.91575 0.13837 0.0
C1097 C 1.03732 0.89603 0.10913 0.0
N1098 N 1.00302 0.93688 0.18464 0.0
C1099 C 1.02789 0.95108 0.19926 0.0
C1100 C 0.06008 0.93151 0.15216 0.0
C1101 C 0.05678 0.9489 0.18301 0.0
Gd1102 Gd 0.90206 0.90195 0.25917 0.0
Gd1103 Gd 0.95292 0.94421 0.20531 0.0
N1104 N 0.95396 0.90329 0.16374 0.0
C1105 C 0.95963 0.86006 0.10955 0.0
C1106 C 0.9313 0.88204 0.15839 0.0
C1107 C 0.93346 0.86058 0.13092 0.0
H1108 H 0.91164 0.88121 0.17523 0.0
H1109 H 0.91504 0.84423 0.1265 0.0
H1110 H 0.92413 0.86679 0.33412 0.0
H1111 H 1.02513 0.96474 0.22293 0.0
H1112 H 0.90602 0.8627 0.39581 0.0
H1113 H 0.96135 0.84318 0.08851 0.0
H1114 H 1.0149 0.86214 0.07674 0.0
H1115 H 0.86686 0.96842 0.22712 0.0
H1116 H 0.08254 0.92968 0.13978 0.0
H1117 H 0.07642 0.9607 0.19419 0.0
H1118 H 0.81743 0.92985 0.40027 0.0
H1119 H 0.05912 0.8935 0.09544 0.0
H1120 H 0.79609 0.99357 0.2998 0.0
H1121 H 0.82278 1.00138 0.24298 0.0
N1122 N 0.86292 0.93886 0.27208 0.0
C1123 C 0.84985 0.93554 0.30468 0.0
C1124 C 0.85428 0.96312 0.25081 0.0
C1125 C 0.81479 0.97811 0.29238 0.0
C1126 C 0.82974 0.98255 0.26024 0.0
C1127 C 0.82537 0.95507 0.31553 0.0
H1128 H 0.7942 0.96668 0.35826 0.0
N1129 N 0.88798 0.89753 0.31859 0.0
C1130 C 0.86311 0.91478 0.32876 0.0
C1131 C 0.86737 0.89365 0.38776 0.0
C1132 C 0.85198 0.91299 0.36365 0.0
C1133 C 0.90405 0.87986 0.34242 0.0
C1134 C 0.89373 0.87733 0.37721 0.0
O1135 O 0.98418 0.90024 0.22006 0.0
O1136 O 0.94731 0.86969 0.24579 0.0
O1137 O 0.87326 0.86611 0.28211 0.0
O1138 O 0.88782 0.8623 0.22796 0.0
O1139 O 0.90529 0.94154 0.17319 0.0
O1140 O 0.87236 0.91425 0.20816 0.0
O1141 O 0.91167 0.94873 0.2914 0.0
O1142 O 0.93109 0.9789 0.2474 0.0
O1143 O 0.96835 0.9916 0.2096 0.0
O1144 O 0.95988 0.97293 0.15822 0.0
O1145 O 0.94793 0.90017 0.28556 0.0
O1146 O 0.97228 0.94247 0.26135 0.0
C1147 C 0.97643 0.87228 0.23255 0.0
C1148 C 0.87724 0.92898 0.17768 0.0
C1149 C 0.88612 0.81593 0.26142 0.0
C1150 C 0.90593 0.77618 0.30166 0.0
C1151 C 0.90313 0.76602 0.23875 0.0
C1152 C 0.89084 0.79565 0.23298 0.0
C1153 C 0.91099 0.75641 0.27283 0.0
C1154 C 0.89307 0.80567 0.29579 0.0
C1155 C 0.87555 0.84811 0.25489 0.0
C1156 C 0.82649 0.93116 0.37368 0.0
C1157 C 0.81321 0.95208 0.3497 0.0
H1158 H 0.85949 0.89169 0.41479 0.0
C1159 C 0.92113 0.97674 0.28082 0.0
C1160 C 0.96905 0.92172 0.28667 0.0
C1161 C 0.99886 1.01164 0.16334 0.0
C1162 C 1.03157 1.02915 0.11493 0.0
C1163 C 1.0455 1.04084 0.17546 0.0
C1164 C 1.01906 1.02589 0.18738 0.0
C1165 C 0.05178 1.04252 0.13947 0.0
C1166 C 1.00526 1.01348 0.1271 0.0
C1167 C 0.97048 0.99626 0.17595 0.0
H1168 H 0.90695 0.75061 0.21667 0.0
H1169 H 0.88548 0.80289 0.20627 0.0
H1170 H 0.92083 0.73349 0.27671 0.0
H1171 H 0.88943 0.82088 0.31805 0.0
H1172 H 0.06106 1.05139 0.19418 0.0
H1173 H 1.01458 1.02538 0.21547 0.0
H1174 H 0.07242 0.05433 0.13079 0.0
H1175 H 0.98934 1.00347 0.10833 0.0
C1176 C 0.43702 0.75309 0.89971 0.0
C1177 C 0.47781 0.7265 0.86776 0.0
C1178 C 0.45457 0.72624 0.89385 0.0
C1179 C 0.48124 0.75262 0.84588 0.0
C1180 C 0.44178 0.77996 0.87923 0.0
C1181 C 0.46326 0.77924 0.85156 0.0
N1182 N 0.41709 0.75367 0.92742 0.0
C1183 C 0.40232 0.78027 0.93717 0.0
C1184 C 0.42556 0.80711 0.88796 0.0
C1185 C 0.40606 0.80736 0.91734 0.0
Gd1186 Gd 0.45028 0.65833 1.01004 0.0
Gd1187 Gd 0.40791 0.70597 0.95395 0.0
N1188 N 0.45136 0.70144 0.91617 0.0
C1189 C 0.49821 0.70131 0.86577 0.0
C1190 C 0.47362 0.67886 0.91684 0.0
C1191 C 0.49668 0.67789 0.89111 0.0
H1192 H 0.47481 0.66232 0.93787 0.0
H1193 H 0.51376 0.65946 0.8914 0.0
H1194 H 0.48275 0.68077 0.08617 0.0
H1195 H 0.38731 0.78025 0.95992 0.0
H1196 H 0.48992 0.65962 0.14631 0.0
H1197 H 0.51643 0.70072 0.84622 0.0
H1198 H 0.49868 0.75294 0.82541 0.0
H1199 H 0.38368 0.62471 0.97929 0.0
H1200 H 0.42856 0.8282 0.87278 0.0
H1201 H 0.39391 0.82838 0.92466 0.0
H1202 H 0.42878 0.5672 0.14761 0.0
H1203 H 0.46697 0.79955 0.83525 0.0
H1204 H 0.36277 0.54944 0.04856 0.0
H1205 H 0.35255 0.57896 0.99374 0.0
N1206 N 0.4134 0.61976 0.02372 0.0
C1207 C 0.41814 0.60489 0.05503 0.0
C1208 C 0.3894 0.61134 1.00245 0.0
C1209 C 0.37708 0.56912 0.04193 0.0
C1210 C 0.37124 0.58572 1.01095 0.0
C1211 C 0.40022 0.57911 0.06488 0.0
H1212 H 0.39177 0.54489 0.10571 0.0
N1213 N 0.4538 0.64394 0.0696 0.0
C1214 C 0.43882 0.61759 0.07884 0.0
C1215 C 0.4614 0.61972 0.13705 0.0
C1216 C 0.44234 0.60466 0.11281 0.0
C1217 C 0.47125 0.65955 0.09361 0.0
C1218 C 0.47552 0.64755 0.12757 0.0
O1219 O 0.44975 0.73941 0.96962 0.0
O1220 O 0.48222 0.70125 0.98952 0.0
O1221 O 0.49788 0.65488 0.02712 0.0
O1222 O 0.47853 0.61805 0.99642 0.0
O1223 O 0.41006 0.65743 0.9231 0.0
O1224 O 0.43935 0.62773 0.95981 0.0
O1225 O 0.40453 0.66732 0.0439 0.0
O1226 O 0.37432 0.6875 0.99994 0.0
O1227 O 0.35843 0.71325 0.95586 0.0
O1228 O 0.38144 0.7187 0.90653 0.0
O1229 O 0.44895 0.70495 0.03523 0.0
O1230 O 0.40772 0.72897 1.008 0.0
C1231 C 0.47848 0.73131 0.97934 0.0
C1232 C 0.42401 0.63015 0.92945 0.0
C1233 C 0.51322 0.60442 0.04272 0.0
C1234 C 0.54399 0.59659 0.09571 0.0
C1235 C 0.50816 0.55698 0.07695 0.0
C1236 C 0.49969 0.57519 0.04789 0.0
C1237 C 0.52988 0.5678 0.10113 0.0
C1238 C 0.53615 0.61436 0.06607 0.0
C1239 C 0.5014 0.62662 1.01621 0.0
C1240 C 0.42605 0.57774 0.12181 0.0
C1241 C 0.40501 0.565 0.0979 0.0
H1242 H 0.46477 0.61048 0.16339 0.0
C1243 C 0.37656 0.67706 0.03347 0.0
C1244 C 0.42742 0.72636 0.03437 0.0
C1245 C 0.33692 0.75018 0.91639 0.0
C1246 C 0.31074 0.78468 0.87446 0.0
C1247 C 0.30695 0.79426 0.93746 0.0
C1248 C 0.32519 0.76816 0.94432 0.0
C1249 C 0.29971 0.8025 0.90283 0.0
C1250 C 0.32956 0.75859 0.88151 0.0
C1251 C 0.3557 0.72199 0.92335 0.0
H1252 H 0.49706 0.53494 0.08145 0.0
H1253 H 0.48179 0.56693 0.0304 0.0
H1254 H 0.53532 0.554 0.12426 0.0
H1255 H 0.54632 0.6371 0.06266 0.0
H1256 H 0.29828 0.8081 0.95912 0.0
H1257 H 0.33022 0.76223 0.97151 0.0
H1258 H 0.28559 0.82294 0.89823 0.0
H1259 H 0.33791 0.74439 0.85994 0.0
C1260 C 0.59754 0.19157 0.64351 0.0
C1261 C 0.62024 0.23623 0.61443 0.0
C1262 C 0.6227 0.21146 0.63875 0.0
C1263 C 0.59379 0.23922 0.59323 0.0
C1264 C 0.57037 0.19563 0.62355 0.0
C1265 C 0.56899 0.21897 0.59773 0.0
N1266 N 0.59892 0.16954 0.66932 0.0
C1267 C 0.57396 0.15194 0.67774 0.0
C1268 C 0.54501 0.17663 0.63084 0.0
C1269 C 0.54671 0.15495 0.6583 0.0
Gd1270 Gd 0.69233 0.2021 0.75376 0.0
Gd1271 Gd 0.64681 0.16344 0.69612 0.0
N1272 N 0.64794 0.2086 0.66033 0.0
C1273 C 0.64366 0.25836 0.61342 0.0
C1274 C 0.66887 0.23212 0.66192 0.0
C1275 C 0.6676 0.25674 0.63791 0.0
H1276 H 0.686 0.23276 0.68229 0.0
H1277 H 0.68473 0.27486 0.63886 0.0
H1278 H 0.6843 0.2214 0.83936 0.0
H1279 H 0.57558 0.135 0.69878 0.0
H1280 H 0.71633 0.21932 0.89333 0.0
H1281 H 0.64254 0.27775 0.59521 0.0
H1282 H 0.59181 0.25789 0.57414 0.0
H1283 H 0.7109 0.13443 0.70857 0.0
H1284 H 0.52379 0.179 0.61595 0.0
H1285 H 0.52708 0.14051 0.66438 0.0
H1286 H 0.80305 0.15586 0.86085 0.0
H1287 H 0.5484 0.22223 0.58188 0.0
H1288 H 0.79546 0.10063 0.7522 0.0
H1289 H 0.75458 0.09789 0.7069 0.0
N1290 N 0.72835 0.16031 0.75184 0.0
C1291 C 0.74909 0.1603 0.7789 0.0
C1292 C 0.72914 0.13693 0.72753 0.0
C1293 C 0.7767 0.11737 0.7525 0.0
C1294 C 0.75367 0.11573 0.7269 0.0
C1295 C 0.774 0.13906 0.7797 0.0
H1296 H 0.81379 0.12299 0.80939 0.0
N1297 N 0.71653 0.1958 0.80855 0.0
C1298 C 0.74293 0.17866 0.80822 0.0
C1299 C 0.75239 0.19213 0.8691 0.0
C1300 C 0.76167 0.17646 0.83854 0.0
C1301 C 0.70611 0.20908 0.83897 0.0
C1302 C 0.72416 0.20794 0.86953 0.0
O1303 O 0.61196 0.20357 0.71378 0.0
O1304 O 0.64913 0.23503 0.73607 0.0
O1305 O 0.69377 0.24638 0.7806 0.0
O1306 O 0.72914 0.2351 0.74304 0.0
O1307 O 0.69311 0.17111 0.66385 0.0
O1308 O 0.72391 0.19704 0.70189 0.0
O1309 O 0.68372 0.15682 0.78794 0.0
O1310 O 0.66056 0.12878 0.74424 0.0
O1311 O 0.65364 0.11343 0.69332 0.0
O1312 O 0.63239 0.13728 0.64995 0.0
O1313 O 0.64644 0.19629 0.78225 0.0
O1314 O 0.62094 0.16097 0.74728 0.0
C1315 C 0.61938 0.23171 0.72576 0.0
C1316 C 0.72045 0.18403 0.67011 0.0
C1317 C 0.74336 0.26763 0.79117 0.0
C1318 C 0.75538 0.29429 0.84646 0.0
C1319 C 0.7954 0.28564 0.80245 0.0
C1320 C 0.77414 0.27108 0.7804 0.0
C1321 C 0.78615 0.29732 0.83518 0.0
C1322 C 0.73436 0.27912 0.82424 0.0
C1323 C 0.71998 0.25447 0.76708 0.0
C1324 C 0.78808 0.15745 0.83802 0.0
C1325 C 0.79422 0.13876 0.80866 0.0
H1326 H 0.7662 0.19108 0.8929 0.0
C1327 C 0.67243 0.12964 0.7773 0.0
C1328 C 0.62358 0.17686 0.77667 0.0
C1329 C 0.61409 0.08712 0.66218 0.0
C1330 C 0.57406 0.06194 0.62749 0.0
C1331 C 0.58206 1.04733 0.68874 0.0
C1332 C 0.60585 0.06895 0.69152 0.0
C1333 C 0.56623 1.04373 0.65687 0.0
C1334 C 0.59822 0.08329 0.63035 0.0
C1335 C 0.63863 0.1106 0.66393 0.0
H1336 H 0.81904 0.28838 0.79386 0.0
H1337 H 0.78169 0.26294 0.75479 0.0
H1338 H 0.80293 0.30934 0.85115 0.0
H1339 H 0.7107 0.27628 0.83265 0.0
H1340 H 0.5758 1.0334 0.71139 0.0
H1341 H 0.6176 0.07148 0.71655 0.0
H1342 H 0.54773 1.02704 0.65528 0.0
H1343 H 0.60488 0.09696 0.60756 0.0
H1344 H 0.47901 0.29895 0.05044 0.0
H1345 H 0.53719 0.21875 0.06585 0.0
H1346 H 0.58251 0.25243 0.06838 0.0
H1347 H 0.60876 0.30613 0.06628 0.0
H1348 H 0.55097 0.38578 0.04574 0.0
H1349 H 0.50552 0.35229 0.0453 0.0
C1350 C 0.50142 0.28827 0.05437 0.0
C1351 C 0.50261 0.25444 0.05808 0.0
C1352 C 0.52902 0.30865 0.0549 0.0
C1353 C 0.53347 0.24347 0.06276 0.0
C1354 C 0.56021 0.26332 0.06428 0.0
C1355 C 0.58642 0.31671 0.06155 0.0
C1356 C 0.58536 0.35038 0.05614 0.0
C1357 C 0.55888 0.29625 0.06037 0.0
C1358 C 0.55463 0.36119 0.05005 0.0
C1359 C 0.52778 0.34145 0.04982 0.0
H1360 H 0.55286 0.7331 0.30757 0.0
H1361 H 0.63256 0.79183 0.31331 0.0
H1362 H 0.59878 0.8377 0.31353 0.0
H1363 H 0.54505 0.86436 0.31202 0.0
H1364 H 0.46576 0.80564 0.3006 0.0
H1365 H 0.49941 0.75981 0.30262 0.0
C1366 C 0.56341 0.75574 0.3089 0.0
C1367 C 0.59717 0.75688 0.31071 0.0
C1368 C 0.54291 0.78364 0.30796 0.0
C1369 C 0.60793 0.78807 0.31191 0.0
C1370 C 0.58799 0.81516 0.31207 0.0
C1371 C 0.53456 0.84172 0.30988 0.0
C1372 C 0.50091 0.84059 0.30628 0.0
C1373 C 0.55513 0.81385 0.31008 0.0
C1374 C 0.49029 0.80942 0.30342 0.0
C1375 C 0.51015 0.78233 0.30463 0.0
H1376 H 0.05665 0.86782 0.55435 0.0
H1377 H 0.13678 0.80835 0.55078 0.0
H1378 H 0.10343 0.76282 0.54937 0.0
H1379 H 0.05007 0.73653 0.5494 0.0
H1380 H 0.9701 0.79569 0.55895 0.0
H1381 H 1.00333 0.84136 0.55775 0.0
C1382 C 0.06737 0.84511 0.55305 0.0
C1383 C 0.10113 0.84366 0.5521 0.0
C1384 C 1.0471 0.81731 0.55336 0.0
C1385 C 0.1121 0.81236 0.55125 0.0
C1386 C 0.09245 0.78543 0.55047 0.0
C1387 C 1.03934 0.75922 0.55116 0.0
C1388 C 1.00566 0.76056 0.55386 0.0
C1389 C 0.0596 0.78699 0.55151 0.0
C1390 C 0.99471 0.79178 0.5566 0.0
C1391 C 1.01431 0.81878 0.55592 0.0
H1392 H 1.04311 0.37081 0.80355 0.0
H1393 H 0.96398 0.31156 0.81255 0.0
H1394 H 0.99807 0.26594 0.8124 0.0
H1395 H 0.05188 0.2396 0.80968 0.0
H1396 H 0.13055 0.29864 0.79511 0.0
H1397 H 0.09669 0.34432 0.79737 0.0
C1398 C 1.03273 0.34811 0.80553 0.0
C1399 C 0.99901 0.34677 0.80837 0.0
C1400 C 0.05343 0.32032 0.80436 0.0
C1401 C 0.98854 0.31549 0.81035 0.0
C1402 C 1.00867 0.28854 0.81029 0.0
C1403 C 0.06219 0.26227 0.80686 0.0
C1404 C 0.09577 0.26352 0.80231 0.0
C1405 C 1.04146 0.29004 0.80727 0.0
C1406 C 0.10612 0.29475 0.79868 0.0
C1407 C 0.08612 0.32176 0.80003 0.0
H1408 H 0.61365 0.80788 0.96711 0.0
H1409 H 0.55701 0.886 0.9965 0.0
H1410 H 0.51159 0.85267 0.99721 0.0
H1411 H 0.48456 0.79975 0.98986 0.0
H1412 H 0.54171 0.72044 0.96656 0.0
H1413 H 0.58699 0.75419 0.96343 0.0
C1414 C 0.59157 0.81819 0.97376 0.0
C1415 C 0.5909 0.85156 0.9814 0.0
C1416 C 0.56398 0.79761 0.9753 0.0
C1417 C 0.56043 0.86179 0.99013 0.0
C1418 C 0.53355 0.84208 0.99059 0.0
C1419 C 0.50672 0.78926 0.984 0.0
C1420 C 0.50753 0.75563 0.97821 0.0
C1421 C 0.53441 0.80964 0.98324 0.0
C1422 C 0.53819 0.74496 0.97128 0.0
C1423 C 0.56495 0.7649 0.9694 0.0
H1424 H 0.54202 0.36769 0.72068 0.0
H1425 H 0.46392 0.30935 0.74183 0.0
H1426 H 0.49775 0.2636 0.74073 0.0
H1427 H 0.55107 0.23696 0.73381 0.0
H1428 H 0.62983 0.2957 0.7184 0.0
H1429 H 0.59572 0.34132 0.71733 0.0
C1430 C 0.53186 0.34515 0.72519 0.0
C1431 C 0.49849 0.34403 0.7312 0.0
C1432 C 0.55257 0.31743 0.72552 0.0
C1433 C 0.48824 0.31305 0.73703 0.0
C1434 C 0.50819 0.28604 0.73637 0.0
C1435 C 0.56133 0.25956 0.73017 0.0
C1436 C 0.5949 0.26082 0.72593 0.0
C1437 C 0.5407 0.28733 0.73062 0.0
C1438 C 0.60535 0.29192 0.7218 0.0
C1439 C 0.58523 0.31883 0.72113 0.0
H1440 H 0.98697 0.3001 0.46408 0.0
H1441 H 1.04194 0.22207 0.49817 0.0
H1442 H 0.08762 0.25501 0.4998 0.0
H1443 H 0.11525 0.30752 0.49206 0.0
H1444 H 0.05956 0.38684 0.464 0.0
H1445 H 1.01412 0.35343 0.45989 0.0
C1446 C 1.00873 0.28976 0.47199 0.0
C1447 C 1.00893 0.25658 0.48064 0.0
C1448 C 1.0364 0.31009 0.47407 0.0
C1449 C 1.03896 0.24619 0.49094 0.0
C1450 C 0.06596 0.26565 0.49195 0.0
C1451 C 0.09337 0.31807 0.48498 0.0
C1452 C 0.09296 0.35155 0.47822 0.0
C1453 C 0.06558 0.29794 0.48362 0.0
C1454 C 0.06269 0.36238 0.46961 0.0
C1455 C 1.03586 0.34267 0.46715 0.0
H1456 H 0.05561 0.73723 0.23254 0.0
H1457 H 0.13378 0.79796 0.23953 0.0
H1458 H 0.09902 0.84299 0.23775 0.0
H1459 H 1.04492 0.86827 0.23389 0.0
H1460 H 0.9664 0.80769 0.23368 0.0
H1461 H 1.0012 0.76256 0.23323 0.0
C1462 C 0.06559 0.76015 0.23377 0.0
C1463 C 0.09928 0.76218 0.23593 0.0
C1464 C 1.04438 0.78749 0.2339 0.0
C1465 C 0.10927 0.7936 0.23777 0.0
C1466 C 0.08877 0.82017 0.23671 0.0
C1467 C 1.03485 0.84535 0.2338 0.0
C1468 C 1.00113 0.8434 0.23349 0.0
C1469 C 0.05598 0.818 0.23471 0.0
C1470 C 0.99097 0.81199 0.23381 0.0
C1471 C 1.0115 0.78537 0.23352 0.0
H1472 H 0.28757 0.18594 0.85452 0.0
H1473 H 0.21342 0.16602 0.92641 0.0
H1474 H 0.25008 0.16579 0.97571 0.0
H1475 H 0.30487 0.17123 1.00158 0.0
H1476 H 0.37939 0.18648 0.92862 0.0
H1477 H 0.34249 0.18849 0.87979 0.0
C1478 C 0.27893 0.1814 0.88081 0.0
C1479 C 0.24593 0.17601 0.88476 0.0
C1480 C 0.3012 0.18051 0.91044 0.0
C1481 C 0.23747 0.17014 0.92047 0.0
C1482 C 0.25901 0.17011 0.9495 0.0
C1483 C 0.3135 0.17509 0.97515 0.0
C1484 C 0.34669 0.17899 0.97078 0.0
C1485 C 0.29125 0.17528 0.94541 0.0
C1486 C 0.35522 0.18337 0.93483 0.0
C1487 C 0.33354 0.18456 0.90607 0.0
H1488 H 0.67061 0.4858 0.18311 0.0
H1489 H 0.67428 0.54017 0.08777 0.0
H1490 H 0.67622 0.5877 0.12301 0.0
H1491 H 0.67731 0.61673 0.18226 0.0
H1492 H 0.66994 0.56245 0.27737 0.0
H1493 H 0.6693 0.51491 0.24216 0.0
C1494 C 0.672 0.50784 0.16947 0.0
C1495 C 0.67265 0.50738 0.13099 0.0
C1496 C 0.67257 0.53657 0.19076 0.0
C1497 C 0.67392 0.53778 0.1162 0.0
C1498 C 0.67506 0.56576 0.13691 0.0
C1499 C 0.6756 0.59468 0.19584 0.0
C1500 C 0.67399 0.5951 0.23429 0.0
C1501 C 0.6745 0.56599 0.17449 0.0
C1502 C 0.67141 0.5648 0.24899 0.0
C1503 C 0.67103 0.53682 0.22829 0.0
H1504 H 0.36625 0.935 0.42925 0.0
H1505 H 0.31171 0.92932 0.33459 0.0
H1506 H 0.26453 0.9307 0.36998 0.0
H1507 H 0.23567 0.93294 0.42921 0.0
H1508 H 0.2902 0.93427 0.5241 0.0
H1509 H 0.3374 0.93522 0.48862 0.0
C1510 C 0.34424 0.93435 0.41578 0.0
C1511 C 0.34454 0.93257 0.37736 0.0
C1512 C 0.31566 0.93434 0.43728 0.0
C1513 C 0.31421 0.93101 0.36292 0.0
C1514 C 0.2864 0.93177 0.38373 0.0
C1515 C 0.25769 0.93372 0.44267 0.0
C1516 C 0.25742 0.93407 0.48113 0.0
C1517 C 0.28627 0.93342 0.42121 0.0
C1518 C 0.28773 0.93428 0.49568 0.0
C1519 C 0.31553 0.93479 0.47483 0.0
H1520 H 0.92634 0.61781 0.67998 0.0
H1521 H 0.92052 0.56328 0.58531 0.0
H1522 H 0.91722 0.51599 0.62104 0.0
H1523 H 0.91563 0.4871 0.68062 0.0
H1524 H 0.92778 0.54091 0.77495 0.0
H1525 H 0.92858 0.58849 0.73938 0.0
C1526 C 0.92417 0.59579 0.6666 0.0
C1527 C 0.92312 0.5962 0.62807 0.0
C1528 C 0.92339 0.56703 0.68822 0.0
C1529 C 0.92111 0.56577 0.6137 0.0
C1530 C 0.91925 0.53789 0.63472 0.0
C1531 C 0.91872 0.50901 0.69395 0.0
C1532 C 0.92152 0.50839 0.73233 0.0
C1533 C 0.92033 0.53766 0.67229 0.0
C1534 C 0.92541 0.53863 0.74665 0.0
C1535 C 0.9259 0.56665 0.72572 0.0
H1536 H 0.79208 0.92998 0.02916 0.0
H1537 H 0.71707 0.92892 0.10362 0.0
H1538 H 0.75389 0.92706 0.15224 0.0
H1539 H 0.80893 0.92625 0.17736 0.0
H1540 H 0.88428 0.93318 0.10396 0.0
H1541 H 0.84753 0.93252 0.05471 0.0
C1542 C 0.78325 0.92926 0.05585 0.0
C1543 C 0.74974 0.92901 0.0605 0.0
C1544 C 0.8057 0.92948 0.08562 0.0
C1545 C 0.74132 0.92872 0.0969 0.0
C1546 C 0.76302 0.92777 0.12567 0.0
C1547 C 0.81787 0.92771 0.15075 0.0
C1548 C 0.85129 0.9297 0.14649 0.0
C1549 C 0.79558 0.9282 0.12101 0.0
C1550 C 0.85998 0.93176 0.11026 0.0
C1551 C 0.83833 0.93127 0.08122 0.0
H1552 H 0.42231 0.62104 0.85141 0.0
H1553 H 0.4219 0.56761 0.94756 0.0
H1554 H 0.4192 0.51974 0.91327 0.0
H1555 H 0.41693 0.48989 0.8548 0.0
H1556 H 0.42315 0.5426 0.75853 0.0
H1557 H 0.42344 0.59082 0.79269 0.0
C1558 C 0.42138 0.59915 0.86541 0.0
C1559 C 0.42176 0.60001 0.90391 0.0
C1560 C 0.42079 0.57003 0.84461 0.0
C1561 C 0.42134 0.56972 0.9191 0.0
C1562 C 0.41977 0.5415 0.89896 0.0
C1563 C 0.41813 0.51174 0.84073 0.0
C1564 C 0.41945 0.51067 0.80231 0.0
C1565 C 0.41939 0.5408 0.86144 0.0
C1566 C 0.42182 0.54076 0.78697 0.0
C1567 C 0.422 0.56913 0.80706 0.0
H1568 H 0.78883 0.18006 0.67085 0.0
H1569 H 0.7139 0.18863 0.5969 0.0
H1570 H 0.75089 0.18944 0.54801 0.0
H1571 H 0.80631 0.18732 0.52293 0.0
H1572 H 0.88043 0.17315 0.5971 0.0
H1573 H 0.8437 0.17523 0.64578 0.0
C1574 C 0.78008 0.18229 0.6442 0.0
C1575 C 0.74675 0.18467 0.63958 0.0
C1576 C 0.8024 0.18174 0.61456 0.0
C1577 C 0.73818 0.18684 0.60334 0.0
C1578 C 0.75994 0.18732 0.57454 0.0
C1579 C 0.81494 0.18467 0.54957 0.0
C1580 C 0.84813 0.18031 0.55424 0.0
C1581 C 0.79247 0.18473 0.57918 0.0
C1582 C 0.85636 0.17666 0.59048 0.0
C1583 C 0.83474 0.17782 0.61925 0.0
H1584 H 0.17942 0.48766 0.35528 0.0
H1585 H 0.19066 0.53993 0.45093 0.0
H1586 H 0.19283 0.588 0.41645 0.0
H1587 H 0.19149 0.61821 0.35782 0.0
H1588 H 0.17723 0.56617 0.26251 0.0
H1589 H 0.17665 0.51799 0.29687 0.0
C1590 C 0.18266 0.50934 0.3691 0.0
C1591 C 0.18512 0.50816 0.40743 0.0
C1592 C 0.18346 0.53844 0.34828 0.0
C1593 C 0.18864 0.53814 0.42255 0.0
C1594 C 0.18997 0.56643 0.40229 0.0
C1595 C 0.18846 0.5965 0.344 0.0
C1596 C 0.18489 0.59774 0.30577 0.0
C1597 C 0.18743 0.56743 0.36487 0.0
C1598 C 0.1804 0.56787 0.29076 0.0
C1599 C 0.18001 0.53951 0.31095 0.0
H1600 H 0.79211 0.67452 0.36131 0.0
H1601 H 0.71849 0.67359 0.43749 0.0
H1602 H 0.75643 0.67313 0.4854 0.0
H1603 H 0.81213 0.67308 0.5088 0.0
H1604 H 0.88568 0.66908 0.43259 0.0
H1605 H 0.84781 0.67136 0.38473 0.0
C1606 C 0.78387 0.67427 0.38827 0.0
C1607 C 0.75061 0.67439 0.39392 0.0
C1608 C 0.80682 0.67302 0.41722 0.0
C1609 C 0.74268 0.67356 0.43036 0.0
C1610 C 0.76496 0.67332 0.45856 0.0
C1611 C 0.82037 0.67252 0.48186 0.0
C1612 C 0.8536 0.67079 0.47624 0.0
C1613 C 0.79743 0.67301 0.4529 0.0
C1614 C 0.86151 0.67011 0.43976 0.0
C1615 C 0.83926 0.67155 0.41156 0.0
H1616 H 0.18185 0.06273 0.75097 0.0
H1617 H 0.17501 0.13769 0.67601 0.0
H1618 H 0.17428 0.10021 0.62764 0.0
H1619 H 0.17546 1.04444 0.60332 0.0
H1620 H 0.18697 0.9698 0.67799 0.0
H1621 H 0.18608 1.00719 0.72644 0.0
C1622 C 0.18023 0.07139 0.7242 0.0
C1623 C 0.17834 0.10492 0.71916 0.0
C1624 C 0.18071 1.04872 0.69482 0.0
C1625 C 0.17661 0.11331 0.6828 0.0
C1626 C 0.17612 0.09127 0.65428 0.0
C1627 C 0.1779 1.03583 0.63003 0.0
C1628 C 0.18128 1.00237 0.63496 0.0
C1629 C 0.17817 0.05857 0.65935 0.0
C1630 C 0.18448 0.9941 0.67123 0.0
C1631 C 0.18387 1.0161 0.69981 0.0
H1632 H 0.73209 0.43481 0.93903 0.0
H1633 H 0.78373 0.41736 0.0341 0.0
H1634 H 0.83172 0.41661 0.99976 0.0
H1635 H 0.86198 0.42073 0.9412 0.0
H1636 H 0.80929 0.43249 0.84573 0.0
H1637 H 0.76176 0.43542 0.88043 0.0
C1638 C 0.75367 0.43092 0.95281 0.0
C1639 C 0.75239 0.42669 0.99097 0.0
C1640 C 0.78249 0.42943 0.93191 0.0
C1641 C 0.78207 0.42108 1.00591 0.0
C1642 C 0.8103 0.42061 0.98571 0.0
C1643 C 0.84032 0.4241 0.92746 0.0
C1644 C 0.84126 0.42681 0.88906 0.0
C1645 C 0.81138 0.4248 0.9484 0.0
C1646 C 0.81128 0.43043 0.87411 0.0
C1647 C 0.78329 0.43215 0.8945 0.0
H1648 H 0.41836 1.04407 0.25722 0.0
H1649 H 0.42163 0.96941 0.18207 0.0
H1650 H 0.42412 1.00709 0.13383 0.0
H1651 H 0.42544 0.06283 0.10962 0.0
H1652 H 0.41694 0.13764 0.18394 0.0
H1653 H 0.41638 0.1 0.23262 0.0
C1654 C 0.41953 1.03553 0.23043 0.0
C1655 C 0.41984 1.00198 0.2253 0.0
C1656 C 0.42005 0.0584 0.20108 0.0
C1657 C 0.42115 0.99377 0.18893 0.0
C1658 C 0.42269 1.01593 0.16049 0.0
C1659 C 0.42347 0.07142 0.13634 0.0
C1660 C 0.42152 0.10494 0.14118 0.0
C1661 C 0.42217 1.04862 0.16563 0.0
C1662 C 0.41855 0.11327 0.17736 0.0
C1663 C 0.41827 0.09113 0.20601 0.0
H1664 H 0.23245 0.4363 0.60565 0.0
H1665 H 0.28704 0.42631 0.51148 0.0
H1666 H 0.33408 0.42561 0.54733 0.0
H1667 H 0.36276 0.42755 0.60678 0.0
H1668 H 0.30803 0.4338 0.70126 0.0
H1669 H 0.26103 0.43609 0.66533 0.0
C1670 C 0.25445 0.43418 0.59236 0.0
C1671 C 0.25421 0.43191 0.55389 0.0
C1672 C 0.2829 0.43301 0.61416 0.0
C1673 C 0.2845 0.42847 0.53977 0.0
C1674 C 0.31221 0.42801 0.56087 0.0
C1675 C 0.34076 0.42955 0.62011 0.0
C1676 C 0.34101 0.43079 0.65862 0.0
C1677 C 0.31227 0.43027 0.59837 0.0
C1678 C 0.31063 0.43289 0.67289 0.0
C1679 C 0.28293 0.43423 0.65174 0.0
H1680 H 0.91981 0.11729 0.35506 0.0
H1681 H 0.92815 0.06432 0.45109 0.0
H1682 H 0.9268 1.01618 0.41692 0.0
H1683 H 0.92325 0.98609 0.35836 0.0
H1684 H 0.91852 1.03943 0.26228 0.0
H1685 H 0.9183 0.0874 0.29662 0.0
C1686 C 0.92121 0.09543 0.36911 0.0
C1687 C 0.92378 0.09648 0.40745 0.0
C1688 C 0.92095 0.06635 0.3484 0.0
C1689 C 0.92596 0.06628 0.42272 0.0
C1690 C 0.92516 1.03792 0.40264 0.0
C1691 C 0.92193 1.00801 0.34441 0.0
C1692 C 0.92043 1.00715 0.30596 0.0
C1693 C 0.92259 1.03709 0.36518 0.0
C1694 C 0.91947 1.03738 0.29072 0.0
C1695 C 0.91938 0.06563 0.31091 0.0
H1696 H 0.23718 0.67333 0.11033 0.0
H1697 H 0.29111 0.67823 0.20552 0.0
H1698 H 0.33848 0.67806 0.17037 0.0
H1699 H 0.36777 0.67654 0.11121 0.0
H1700 H 0.31376 0.67579 1.01592 0.0
H1701 H 0.2664 0.67422 0.05112 0.0
C1702 C 0.25909 0.6741 0.124 0.0
C1703 C 0.25847 0.67525 0.16252 0.0
C1704 C 0.28782 0.67472 0.10265 0.0
C1705 C 0.28875 0.67697 0.17713 0.0
C1706 C 0.31671 0.67689 0.15645 0.0
C1707 C 0.34584 0.67587 0.09756 0.0
C1708 C 0.34638 0.67593 0.05902 0.0
C1709 C 0.31711 0.67572 0.1189 0.0
C1710 C 0.31611 0.67563 0.04435 0.0
C1711 C 0.2882 0.67472 0.06506 0.0
H1712 H 0.6735 0.12084 0.85447 0.0
H1713 H 0.67103 0.06667 0.75936 0.0
H1714 H 0.67181 1.01894 0.79469 0.0
H1715 H 0.67332 0.98968 0.85399 0.0
H1716 H 0.67102 1.04402 0.94905 0.0
H1717 H 0.67188 0.09167 0.91368 0.0
C1718 C 0.67324 0.09877 0.84094 0.0
C1719 C 0.67262 0.09923 0.8025 0.0
C1720 C 0.67283 0.06999 0.86232 0.0
C1721 C 0.6717 0.06892 0.78778 0.0
C1722 C 0.67216 1.04086 0.80854 0.0
C1723 C 0.67314 1.01175 0.86752 0.0
C1724 C 0.67252 1.01131 0.90598 0.0
C1725 C 0.6728 1.04055 0.8461 0.0
C1726 C 0.67168 1.04169 0.92063 0.0
C1727 C 0.67219 0.06973 0.89986 0.0
H1728 H 0.53875 0.15424 0.90907 0.0
H1729 H 0.56475 0.05942 0.88527 0.0
H1730 H 0.59259 0.07706 0.83359 0.0
H1731 H 0.60952 0.11888 0.79509 0.0
H1732 H 0.5938 0.21405 0.82478 0.0
H1733 H 0.56183 0.19675 0.8747 0.0
C1734 C 0.55101 0.13728 0.8933 0.0
C1735 C 0.54893 0.10527 0.90126 0.0
C1736 C 0.5686 0.14767 0.86451 0.0
C1737 C 0.56474 0.08401 0.87953 0.0
C1738 C 0.58103 0.09409 0.85001 0.0
C1739 C 0.59933 0.13589 0.81265 0.0
C1740 C 0.60373 0.16766 0.80633 0.0
C1741 C 0.5829 0.12577 0.84219 0.0
C1742 C 0.5905 0.18946 0.82922 0.0
C1743 C 0.57238 0.17954 0.85768 0.0
H1744 H 0.74165 0.78221 0.12591 0.0
H1745 H 0.72252 0.85228 0.20379 0.0
H1746 H 0.69357 0.88281 0.1601 0.0
H1747 H 0.67505 0.8899 0.09933 0.0
H1748 H 0.69556 0.82022 0.02125 0.0
H1749 H 0.72155 0.7884 0.06578 0.0
C1750 C 0.7314 0.80436 0.13304 0.0
C1751 C 0.7345 0.81544 0.16753 0.0
C1752 C 0.71441 0.82132 0.10809 0.0
C1753 C 0.72059 0.84369 0.17706 0.0
C1754 C 0.70388 0.86092 0.15227 0.0
C1755 C 0.6846 0.86743 0.09234 0.0
C1756 C 0.68347 0.85731 0.05724 0.0
C1757 C 0.70058 0.8499 0.11772 0.0
C1758 C 0.69621 0.82836 0.04825 0.0
C1759 C 0.71132 0.81035 0.07355 0.0
H1760 H 0.98582 0.97311 0.32307 0.0
H1761 H 0.99175 0.87323 0.32373 0.0
H1762 H 1.01094 0.87383 0.38423 0.0
H1763 H 1.02117 0.90229 0.4387 0.0
H1764 H 1.01482 1.00199 0.43948 0.0
H1765 H 1.00021 1.00212 0.37686 0.0
C1766 C 0.99221 0.95163 0.33622 0.0
C1767 C 0.98756 0.92318 0.31911 0.0
C1768 C 1.00232 0.95211 0.37149 0.0
C1769 C 0.99529 0.89539 0.3365 0.0
C1770 C 1.00599 0.89569 0.37114 0.0
C1771 C 1.01651 0.92398 0.42505 0.0
C1772 C 1.01837 0.95202 0.44351 0.0
C1773 C 1.00862 0.92381 0.38922 0.0
C1774 C 1.01313 0.98013 0.42562 0.0
C1775 C 1.00494 0.98019 0.3899 0.0
H1776 H 0.92042 0.21738 0.59551 0.0
H1777 H 0.8971 0.28773 0.51868 0.0
H1778 H 0.86968 0.31745 0.56377 0.0
H1779 H 0.85028 0.32213 0.62443 0.0
H1780 H 0.87258 0.25136 0.70093 0.0
H1781 H 0.90176 0.22244 0.65631 0.0
C1782 C 0.90993 0.23955 0.58887 0.0
C1783 C 0.91091 0.25054 0.554 0.0
C1784 C 0.89328 0.25588 0.61457 0.0
C1785 C 0.89672 0.27897 0.54549 0.0
C1786 C 0.88081 0.29579 0.57113 0.0
C1787 C 0.86119 0.30014 0.63102 0.0
C1788 C 0.85904 0.28847 0.66547 0.0
C1789 C 0.87836 0.28411 0.60553 0.0
C1790 C 0.87379 0.26042 0.67428 0.0
C1791 C 0.89064 0.24411 0.64895 0.0
H1792 H 0.52393 0.97631 0.10853 0.0
H1793 H 0.49821 0.88519 0.0727 0.0
H1794 H 0.48371 0.87069 0.13278 0.0
H1795 H 0.47745 0.88427 0.19482 0.0
H1796 H 0.49917 0.97652 0.23029 0.0
H1797 H 0.51788 0.98973 0.17134 0.0
C1798 C 0.51528 0.95325 0.11397 0.0
C1799 C 0.51191 0.9319 0.08622 0.0
C1800 C 0.50685 0.94514 0.14852 0.0
C1801 C 0.50049 0.90217 0.09353 0.0
C1802 C 0.49249 0.89379 0.12789 0.0
C1803 C 0.48607 0.90732 0.18971 0.0
C1804 C 0.48639 0.92946 0.21686 0.0
C1805 C 0.4954 0.91515 0.15549 0.0
C1806 C 0.49874 0.95892 0.20997 0.0
C1807 C 0.50911 0.96662 0.17614 0.0
H1808 H 0.37142 0.28746 0.86218 0.0
H1809 H 0.45497 0.24684 0.82019 0.0
H1810 H 0.47022 0.23019 0.8792 0.0
H1811 H 0.459 0.22524 0.94199 0.0
H1812 H 0.37525 0.26488 0.98448 0.0
H1813 H 0.36177 0.28526 0.92618 0.0
C1814 C 0.39314 0.27528 0.86594 0.0
C1815 C 0.41177 0.26804 0.83656 0.0
C1816 C 0.402 0.26602 0.90009 0.0
C1817 C 0.43975 0.25203 0.84207 0.0
C1818 C 0.44869 0.24281 0.87589 0.0
C1819 C 0.43793 0.23861 0.93871 0.0
C1820 C 0.41809 0.24328 0.96763 0.0
C1821 C 0.42986 0.2494 0.905 0.0
C1822 C 0.39107 0.26102 0.9628 0.0
C1823 C 0.38316 0.2724 0.92935 0.0
H1824 H 0.1268 0.22244 0.68706 0.0
H1825 H 0.09324 0.13493 0.72649 0.0
H1826 H 0.07366 0.12222 0.66801 0.0
H1827 H 0.07011 0.13388 0.60472 0.0
H1828 H 0.10457 0.22102 0.56514 0.0
H1829 H 0.12103 0.23527 0.62446 0.0
C1830 C 0.11518 0.20061 0.68299 0.0
C1831 C 0.11193 0.17957 0.71118 0.0
C1832 C 0.10478 0.19302 0.64906 0.0
C1833 C 0.09609 0.15167 0.70541 0.0
C1834 C 0.08512 0.14421 0.67184 0.0
C1835 C 0.08088 0.15616 0.60906 0.0
C1836 C 0.08637 0.17617 0.58032 0.0
C1837 C 0.08999 0.16439 0.64331 0.0
C1838 C 0.10068 0.20482 0.58655 0.0
C1839 C 0.1098 0.21316 0.62055 0.0
H1840 H 0.14043 0.87448 0.4445 0.0
H1841 H 0.23216 0.85152 0.48071 0.0
H1842 H 0.24577 0.8335 0.42152 0.0
H1843 H 0.23279 0.82861 0.35833 0.0
H1844 H 0.14172 0.85481 0.32245 0.0
H1845 H 0.12711 0.86866 0.38252 0.0
C1846 C 0.16342 0.86556 0.43959 0.0
C1847 C 0.18532 0.86475 0.46697 0.0
C1848 C 0.17144 0.85658 0.40533 0.0
C1849 C 0.21476 0.85229 0.4602 0.0
C1850 C 0.22268 0.84233 0.42624 0.0
C1851 C 0.20972 0.83725 0.36373 0.0
C1852 C 0.1885 0.84108 0.33585 0.0
C1853 C 0.20142 0.84512 0.39841 0.0
C1854 C 0.15872 0.85235 0.34325 0.0
C1855 C 0.15022 0.85992 0.37764 0.0
H1856 H 0.08225 0.61901 0.43002 0.0
H1857 H 0.10243 0.71146 0.46615 0.0
H1858 H 0.11489 0.7274 0.40608 0.0
H1859 H 0.12158 0.71488 0.34406 0.0
H1860 H 0.10637 0.62166 0.30748 0.0
H1861 H 0.08889 0.60653 0.36652 0.0
C1862 C 0.08939 0.6426 0.4246 0.0
C1863 C 0.09189 0.66393 0.45253 0.0
C1864 C 0.09685 0.65158 0.38989 0.0
C1865 C 0.10102 0.69447 0.44523 0.0
C1866 C 0.10784 0.70368 0.41085 0.0
C1867 C 0.11458 0.69121 0.34889 0.0
C1868 C 0.11573 0.66941 0.32142 0.0
C1869 C 0.1061 0.68238 0.3831 0.0
C1870 C 0.10556 0.63903 0.32804 0.0
C1871 C 0.09593 0.63027 0.36193 0.0
H1872 H 0.22879 0.32737 0.67527 0.0
H1873 H 0.13725 0.35436 0.70854 0.0
H1874 H 0.12334 0.36646 0.6477 0.0
H1875 H 0.1378 0.37211 0.5862 0.0
H1876 H 0.23015 0.3493 0.55234 0.0
H1877 H 0.24267 0.33096 0.61205 0.0
C1878 C 0.20577 0.33577 0.6691 0.0
C1879 C 0.18419 0.34044 0.69643 0.0
C1880 C 0.19792 0.34272 0.63399 0.0
C1881 C 0.15447 0.35133 0.68812 0.0
C1882 C 0.14638 0.35786 0.65331 0.0
C1883 C 0.16058 0.36266 0.5917 0.0
C1884 C 0.18309 0.3622 0.56503 0.0
C1885 C 0.168 0.35394 0.6262 0.0
C1886 C 0.21234 0.34959 0.57238 0.0
C1887 C 0.21963 0.33962 0.60663 0.0
H1888 H 0.48061 0.48531 0.81304 0.0
H1889 H 0.50203 0.38776 0.81985 0.0
H1890 H 0.52326 0.39488 0.87904 0.0
H1891 H 0.52961 0.42765 0.93153 0.0
H1892 H 0.50246 0.52377 0.92756 0.0
H1893 H 0.48869 0.51858 0.86503 0.0
C1894 C 0.49057 0.46584 0.82726 0.0
C1895 C 0.49003 0.43613 0.8122 0.0
C1896 C 0.50087 0.46979 0.86212 0.0
C1897 C 0.50256 0.41089 0.83094 0.0
C1898 C 0.51435 0.41489 0.86488 0.0
C1899 C 0.52117 0.44746 0.91662 0.0
C1900 C 0.51723 0.47604 0.93361 0.0
C1901 C 0.51266 0.44401 0.88114 0.0
C1902 C 0.50563 0.50158 0.91468 0.0
C1903 C 0.49786 0.4986 0.87904 0.0
H1904 H 0.37414 0.74054 0.06835 0.0
H1905 H 0.47287 0.75092 0.07371 0.0
H1906 H 0.46911 0.76657 0.13538 0.0
H1907 H 0.43851 0.77145 0.1894 0.0
H1908 H 0.33993 0.7609 0.18537 0.0
H1909 H 0.3427 0.75009 0.12179 0.0
C1910 C 0.39463 0.74718 0.0828 0.0
C1911 C 0.42372 0.74472 0.06669 0.0
C1912 C 0.39239 0.75493 0.11872 0.0
C1913 C 0.45024 0.75289 0.08569 0.0
C1914 C 0.44815 0.7614 0.12102 0.0
C1915 C 0.41773 0.76668 0.17445 0.0
C1916 C 0.38918 0.76627 0.19168 0.0
C1917 C 0.41952 0.76132 0.1381 0.0
C1918 C 0.36217 0.76084 0.17235 0.0
C1919 C 0.36377 0.75494 0.1361 0.0
H1920 H 0.05142 0.49446 0.6425 0.0
H1921 H 0.9683 0.48129 0.58206 0.0
H1922 H 0.9441 0.45568 0.63242 0.0
H1923 H 0.9475 0.43518 0.69214 0.0
H1924 H 1.02827 0.45221 0.75547 0.0
H1925 H 0.05319 0.47744 0.70487 0.0
C1926 C 1.02773 0.48663 0.64084 0.0
C1927 C 1.01148 0.48978 0.6089 0.0
C1928 C 1.01407 0.47189 0.66985 0.0
C1929 C 0.98095 0.47949 0.60665 0.0
C1930 C 0.96735 0.46444 0.63519 0.0
C1931 C 0.97076 0.44397 0.69482 0.0
C1932 C 0.9864 0.44124 0.72717 0.0
C1933 C 0.98396 0.45996 0.66657 0.0
C1934 C 1.0161 0.45359 0.73054 0.0
C1935 C 1.03011 0.46831 0.70183 0.0
H1936 H 0.87184 0.78002 0.36174 0.0
H1937 H 0.96101 0.75177 0.32232 0.0
H1938 H 0.97701 0.73674 0.38182 0.0
H1939 H 0.96515 0.73041 0.44417 0.0
H1940 H 0.87465 0.75395 0.48343 0.0
H1941 H 0.8601 0.77365 0.42513 0.0
C1942 C 0.8948 0.77069 0.36631 0.0
C1943 C 0.91518 0.76675 0.33775 0.0
C1944 C 0.9037 0.76178 0.40053 0.0
C1945 C 0.94481 0.75453 0.34385 0.0
C1946 C 0.95403 0.7462 0.37786 0.0
C1947 C 0.9422 0.73967 0.4401 0.0
C1948 C 0.92096 0.74021 0.4681 0.0
C1949 C 0.93358 0.74951 0.40627 0.0
C1950 C 0.89157 0.75331 0.46243 0.0
C1951 C 0.88311 0.76427 0.42899 0.0
H1952 H 0.52832 0.60951 0.16257 0.0
H1953 H 0.60327 0.6159 0.08843 0.0
H1954 H 0.63421 0.64404 0.13187 0.0
H1955 H 0.6398 0.66612 0.19119 0.0
H1956 H 0.56461 0.65939 0.26527 0.0
H1957 H 0.53317 0.63327 0.22101 0.0
C1958 C 0.55154 0.61687 0.1562 0.0
C1959 C 0.56385 0.61041 0.12283 0.0
C1960 C 0.56867 0.63369 0.18083 0.0
C1961 C 0.59367 0.62044 0.11429 0.0
C1962 C 0.61115 0.63672 0.13892 0.0
C1963 C 0.61626 0.65963 0.1973 0.0
C1964 C 0.60436 0.66483 0.23123 0.0
C1965 C 0.59878 0.64367 0.17218 0.0
C1966 C 0.57409 0.65576 0.23915 0.0
C1967 C 0.55627 0.64054 0.21404 0.0
H1968 H 0.72855 0.34792 0.999 0.0
H1969 H 0.63972 0.36487 0.95091 0.0
H1970 H 0.65774 0.3419 0.89611 0.0
H1971 H 0.69936 0.32043 0.86086 0.0
H1972 H 0.7872 0.29884 0.90927 0.0
H1973 H 0.76918 0.32134 0.96467 0.0
C1974 C 0.71292 0.34598 0.97678 0.0
C1975 C 0.68288 0.35847 0.97894 0.0
C1976 C 0.72345 0.33258 0.9452 0.0
C1977 C 0.66306 0.35597 0.9498 0.0
C1978 C 0.67337 0.34282 0.91841 0.0
C1979 C 0.71448 0.31972 0.88362 0.0
C1980 C 0.74464 0.30765 0.88062 0.0
C1981 C 0.70366 0.33159 0.91565 0.0
C1982 C 0.76404 0.3083 0.91041 0.0
C1983 C 0.75363 0.32087 0.94229 0.0
H1984 H 0.34011 0.28284 0.21723 0.0
H1985 H 0.24589 0.2987 0.18466 0.0
H1986 H 0.23203 0.3136 0.24467 0.0
H1987 H 0.2463 0.32087 0.30696 0.0
H1988 H 0.34021 0.30376 0.33966 0.0
H1989 H 0.35437 0.29011 0.27931 0.0
C1990 C 0.31648 0.28928 0.2233 0.0
C1991 C 0.29413 0.28965 0.19637 0.0
C1992 C 0.30854 0.2975 0.25799 0.0
C1993 C 0.26371 0.29859 0.20469 0.0
C1994 C 0.25569 0.30695 0.23909 0.0
C1995 C 0.26991 0.31442 0.30076 0.0
C1996 C 0.29213 0.31324 0.32778 0.0
C1997 C 0.27789 0.30644 0.26598 0.0
C1998 C 0.32257 0.30449 0.31943 0.0
C1999 C 0.33073 0.29679 0.2849 0.0
H2000 H 0.57349 0.52355 0.47719 0.0
H2001 H 0.55851 0.62226 0.47041 0.0
H2002 H 0.54155 0.62331 0.53212 0.0
H2003 H 0.52744 0.59512 0.58649 0.0
H2004 H 0.54354 0.4964 0.59282 0.0
H2005 H 0.56403 0.49632 0.53288 0.0
C2006 C 0.5665 0.54523 0.48937 0.0
C2007 C 0.56667 0.57268 0.46951 0.0
C2008 C 0.55714 0.54562 0.52468 0.0
C2009 C 0.55828 0.60085 0.48543 0.0
C2010 C 0.54863 0.60142 0.52059 0.0
C2011 C 0.53609 0.57378 0.57494 0.0
C2012 C 0.53371 0.54577 0.59371 0.0
C2013 C 0.54758 0.57386 0.54033 0.0
C2014 C 0.54481 0.51817 0.57853 0.0
C2015 C 0.55644 0.51808 0.54431 0.0
H2016 H 0.25357 0.82271 0.72677 0.0
H2017 H 0.3474 0.8055 0.69396 0.0
H2018 H 0.36189 0.7926 0.75446 0.0
H2019 H 0.34795 0.78579 0.8167 0.0
H2020 H 0.25411 0.80258 0.84974 0.0
H2021 H 0.23975 0.81654 0.78942 0.0
C2022 C 0.27723 0.81643 0.73298 0.0
C2023 C 0.2993 0.81488 0.70587 0.0
C2024 C 0.28544 0.80898 0.76789 0.0
C2025 C 0.32984 0.80641 0.71426 0.0
C2026 C 0.3382 0.79915 0.74887 0.0
C2027 C 0.32431 0.79227 0.81063 0.0
C2028 C 0.30216 0.79311 0.83769 0.0
C2029 C 0.31616 0.80012 0.77586 0.0
C2030 C 0.27171 0.80206 0.82948 0.0
C2031 C 0.26343 0.80991 0.79495 0.0
H2032 H 0.06781 0.52853 0.07024 0.0
H2033 H 0.07167 0.62802 0.06038 0.0
H2034 H 0.05719 0.6244 0.99796 0.0
H2035 H 1.0394 0.59286 0.94773 0.0
H2036 H 1.03634 0.49322 0.9583 0.0
H2037 H 0.05445 0.49693 0.01904 0.0
C2038 C 0.06556 0.54938 0.0543 0.0
C2039 C 0.07036 0.5785 0.06974 0.0
C2040 C 0.05721 0.54707 0.01875 0.0
C2041 C 0.06802 0.60537 0.04888 0.0
C2042 C 0.05964 0.60329 1.01333 0.0
C2043 C 1.04324 0.57197 0.96316 0.0
C2044 C 1.03609 0.54285 0.94876 0.0
C2045 C 0.05365 0.57427 0.99815 0.0
C2046 C 1.04105 0.51595 0.96908 0.0
C2047 C 0.0515 0.51802 1.00374 0.0
H2048 H 0.83997 0.81578 0.83769 0.0
H2049 H 0.7406 0.8162 0.83012 0.0
H2050 H 0.74378 0.79837 0.76923 0.0
H2051 H 0.7747 0.78586 0.71711 0.0
H2052 H 0.87392 0.78443 0.72411 0.0
H2053 H 0.87099 0.79891 0.78657 0.0
C2054 C 0.81904 0.81143 0.82288 0.0
C2055 C 0.79011 0.81774 0.83818 0.0
C2056 C 0.82103 0.80116 0.78783 0.0
C2057 C 0.76316 0.81213 0.81865 0.0
C2058 C 0.76494 0.80185 0.78391 0.0
C2059 C 0.79564 0.78865 0.73243 0.0
C2060 C 0.82445 0.78452 0.71621 0.0
C2061 C 0.79372 0.79694 0.76804 0.0
C2062 C 0.85149 0.78757 0.73625 0.0
C2063 C 0.8498 0.79593 0.77182 0.0
H2064 H 0.74814 0.31724 0.22408 0.0
H2065 H 0.8447 0.31864 0.19653 0.0
H2066 H 0.85823 0.29942 0.25526 0.0
H2067 H 0.84271 0.28315 0.31474 0.0
H2068 H 0.74611 0.28152 0.34218 0.0
H2069 H 0.73261 0.30082 0.28351 0.0
C2070 C 0.77217 0.3136 0.23102 0.0
C2071 C 0.79537 0.31943 0.20593 0.0
C2072 C 0.7798 0.30276 0.2649 0.0
C2073 C 0.82636 0.31403 0.21517 0.0
C2074 C 0.83413 0.30323 0.24883 0.0
C2075 C 0.81867 0.28672 0.30779 0.0
C2076 C 0.79547 0.28084 0.33287 0.0
C2077 C 0.81105 0.29754 0.2739 0.0
C2078 C 0.76447 0.28619 0.32358 0.0
C2079 C 0.75671 0.29703 0.28995 0.0
H2080 H 0.05072 1.02282 0.95023 0.0
H2081 H 0.07144 0.11954 0.96593 0.0
H2082 H 0.0626 0.1137 0.0293 0.0
H2083 H 1.0484 0.08123 0.07994 0.0
H2084 H 1.02756 0.98454 0.06421 0.0
H2085 H 1.03644 0.99037 1.00084 0.0
C2086 C 0.05298 1.04268 0.9675 0.0
C2087 C 0.06166 0.07157 0.95349 0.0
C2088 C 1.04778 1.03917 1.00376 0.0
C2089 C 0.06506 0.097 0.9762 0.0
C2090 C 0.05989 0.0937 1.01235 0.0
C2091 C 1.04611 0.06137 0.06266 0.0
C2092 C 1.03742 1.03249 0.07666 0.0
C2093 C 0.0513 0.06489 0.02639 0.0
C2094 C 1.03398 1.00707 0.05394 0.0
C2095 C 1.03917 1.01036 1.01779 0.0
H2096 H 0.56018 1.0086 0.59277 0.0
H2097 H 0.55203 0.10823 0.58559 0.0
H2098 H 0.53375 0.1041 0.52495 0.0
H2099 H 0.52547 0.07264 0.47222 0.0
H2100 H 0.53298 0.97314 0.47842 0.0
H2101 H 0.54571 0.97653 0.54145 0.0
C2102 C 0.55371 1.0293 0.57814 0.0
C2103 C 0.55793 0.05869 0.59331 0.0
C2104 C 0.54342 1.02676 0.54312 0.0
C2105 C 0.54953 0.08539 0.57413 0.0
C2106 C 0.53907 0.08306 0.53952 0.0
C2107 C 0.52955 1.05175 0.48762 0.0
C2108 C 0.52875 1.02276 0.47106 0.0
C2109 C 0.53687 0.05396 0.52346 0.0
C2110 C 0.53361 0.99568 0.49095 0.0
C2111 C 0.54098 0.99766 0.52681 0.0
loop_
_geom_bond_atom_site_label_1
_geom_bond_atom_site_label_2
_geom_bond_distance
_geom_bond_site_symmetry_2
_ccdc_geom_bond_type
C0 C2 1.422 . S
C0 C4 1.415 . S
C0 N6 1.362 1_556 S
C1 C2 1.421 . S
C1 C3 1.417 . S
C1 C13 1.422 . S
C2 C0 1.422 . S
C2 C1 1.421 . S
C2 N12 1.359 . S
C3 C1 1.417 . S
C3 C5 1.329 . S
C3 H22 0.930 . S
C4 C0 1.415 . S
C4 C5 1.437 . S
C4 C8 1.413 . S
C5 C3 1.329 . S
C5 C4 1.437 . S
C5 H27 0.929 . S
N6 C0 1.362 1_554 S
N6 C7 1.345 . S
N6 Gd11 2.622 . S
C7 N6 1.345 . S
C7 C9 1.378 . S
C7 H19 0.929 . S
C8 C4 1.413 . S
C8 C9 1.348 1_556 S
C8 H24 0.931 . S
C9 C7 1.378 . S
C9 C8 1.348 1_554 S
C9 H25 0.930 . S
Gd10 N30 2.622 . S
Gd10 N37 2.570 . S
Gd10 O44 2.353 . S
Gd10 O45 2.468 . S
Gd10 O46 2.427 . S
Gd10 O48 2.388 . S
Gd10 O49 2.386 . S
Gd10 O53 2.307 . S
Gd10 C63 2.805 . S
Gd11 N6 2.622 . S
Gd11 N12 2.570 1_554 S
Gd11 O43 2.386 . S
Gd11 O47 2.307 1_554 S
Gd11 O50 2.353 . S
Gd11 O51 2.468 1_554 S
Gd11 O52 2.427 1_554 S
Gd11 O54 2.388 . S
Gd11 C75 2.805 1_554 S
N12 C2 1.359 . S
N12 Gd11 2.570 1_556 S
N12 C14 1.343 . S
C13 C1 1.422 . S
C13 C15 1.321 . S
C13 H21 0.931 . S
C14 N12 1.343 . S
C14 C15 1.390 . S
C14 H16 0.931 . S
C15 C13 1.321 . S
C15 C14 1.390 . S
C15 H17 0.930 . S
H16 C14 0.931 . S
H17 C15 0.930 . S
H18 C41 0.931 . S
H19 C7 0.929 . S
H20 C42 0.930 . S
H21 C13 0.931 . S
H22 C3 0.930 . S
H23 C32 0.929 . S
H24 C8 0.931 . S
H25 C9 0.930 . S
H26 C64 0.930 . S
H27 C5 0.929 . S
H28 C33 0.931 . S
H29 C34 0.930 . S
N30 Gd10 2.622 . S
N30 C31 1.369 . S
N30 C32 1.338 . S
C31 N30 1.369 . S
C31 C35 1.415 . S
C31 C38 1.422 . S
C32 H23 0.929 . S
C32 N30 1.338 . S
C32 C34 1.378 . S
C33 H28 0.931 . S
C33 C34 1.348 . S
C33 C35 1.413 . S
C34 H29 0.930 . S
C34 C32 1.378 . S
C34 C33 1.348 . S
C35 C31 1.415 . S
C35 C33 1.413 . S
C35 C65 1.437 . S
H36 C65 0.929 . S
N37 Gd10 2.570 . S
N37 C38 1.359 . S
N37 C41 1.343 . S
C38 C31 1.422 . S
C38 N37 1.359 . S
C38 C40 1.421 . S
C39 C40 1.422 . S
C39 C42 1.321 . S
C39 H66 0.931 . S
C40 C38 1.421 . S
C40 C39 1.422 . S
C40 C64 1.417 . S
C41 H18 0.931 . S
C41 N37 1.343 . S
C41 C42 1.390 . S
C42 H20 0.930 . S
C42 C39 1.321 . S
C42 C41 1.390 . S
O43 Gd11 2.386 . S
O43 C55 1.265 . S
O44 Gd10 2.353 . S
O44 C55 1.242 . S
O45 Gd10 2.468 . S
O45 C63 1.263 . S
O46 Gd10 2.427 . S
O46 C63 1.252 . S
O47 Gd11 2.307 1_556 S
O47 C56 1.261 . S
O48 Gd10 2.388 . S
O48 C56 1.252 1_554 S
O49 Gd10 2.386 . S
O49 C67 1.265 . S
O50 Gd11 2.353 . S
O50 C67 1.242 . S
O51 Gd11 2.468 1_556 S
O51 C75 1.263 . S
O52 Gd11 2.427 1_556 S
O52 C75 1.252 . S
O53 Gd10 2.307 . S
O53 C68 1.261 . S
O54 Gd11 2.388 . S
O54 C68 1.252 . S
C55 O43 1.265 . S
C55 O44 1.242 . S
C56 O47 1.261 . S
C56 O48 1.252 1_556 S
C57 C60 1.394 . S
C57 C62 1.370 . S
C57 C63 1.500 . S
C58 C61 1.383 . S
C58 C62 1.395 . S
C59 C60 1.396 . S
C59 C61 1.365 . S
C59 H76 0.929 . S
C60 C57 1.394 . S
C60 C59 1.396 . S
C60 H77 0.930 . S
C61 C58 1.383 . S
C61 C59 1.365 . S
C61 H78 0.931 . S
C62 C57 1.370 . S
C62 C58 1.395 . S
C62 H79 0.930 . S
C63 Gd10 2.805 . S
C63 O45 1.263 . S
C63 O46 1.252 . S
C63 C57 1.500 . S
C64 H26 0.930 . S
C64 C40 1.417 . S
C64 C65 1.329 . S
C65 C35 1.437 . S
C65 H36 0.929 . S
C65 C64 1.329 . S
H66 C39 0.931 . S
C67 O49 1.265 . S
C67 O50 1.242 . S
C68 O53 1.261 . S
C68 O54 1.252 . S
C69 C72 1.394 . S
C69 C74 1.370 . S
C69 C75 1.500 . S
C70 C73 1.383 . S
C70 C74 1.395 . S
C71 C72 1.396 . S
C71 C73 1.365 . S
C71 H80 0.929 . S
C72 C69 1.394 . S
C72 C71 1.396 . S
C72 H81 0.930 . S
C73 C70 1.383 . S
C73 C71 1.365 . S
C73 H82 0.931 . S
C74 C69 1.370 . S
C74 C70 1.395 . S
C74 H83 0.930 . S
C75 Gd11 2.805 1_556 S
C75 O51 1.263 . S
C75 O52 1.252 . S
C75 C69 1.500 . S
H76 C59 0.929 . S
H77 C60 0.930 . S
H78 C61 0.931 . S
H79 C62 0.930 . S
H80 C71 0.929 . S
H81 C72 0.930 . S
H82 C73 0.931 . S
H83 C74 0.930 . S
C84 C86 1.422 . S
C84 C88 1.415 . S
C84 N90 1.369 . S
C85 C86 1.421 . S
C85 C87 1.417 . S
C85 C97 1.422 . S
C86 C84 1.422 . S
C86 C85 1.421 . S
C86 N96 1.359 . S
C87 C85 1.417 . S
C87 C89 1.329 . S
C87 H106 0.930 . S
C88 C84 1.415 . S
C88 C89 1.437 . S
C88 C92 1.413 . S
C89 C87 1.329 . S
C89 C88 1.437 . S
C89 H111 0.929 . S
N90 C84 1.369 . S
N90 C91 1.338 . S
N90 Gd95 2.622 . S
C91 N90 1.338 . S
C91 C93 1.378 . S
C91 H103 0.929 . S
C92 C88 1.413 . S
C92 C93 1.348 . S
C92 H108 0.931 . S
C93 C91 1.378 . S
C93 C92 1.348 . S
C93 H109 0.930 . S
Gd94 N114 2.622 . S
Gd94 N121 2.570 . S
Gd94 O128 2.353 . S
Gd94 O129 2.468 . S
Gd94 O130 2.427 . S
Gd94 O132 2.388 . S
Gd94 O133 2.386 . S
Gd94 O137 2.307 . S
Gd94 C147 2.805 . S
Gd95 N90 2.622 . S
Gd95 N96 2.570 . S
Gd95 O127 2.386 . S
Gd95 O131 2.307 . S
Gd95 O134 2.353 . S
Gd95 O135 2.468 . S
Gd95 O136 2.427 . S
Gd95 O138 2.388 . S
Gd95 C159 2.805 . S
N96 C86 1.359 . S
N96 Gd95 2.570 . S
N96 C98 1.343 . S
C97 C85 1.422 . S
C97 C99 1.321 . S
C97 H105 0.931 . S
C98 N96 1.343 . S
C98 C99 1.390 . S
C98 H100 0.931 . S
C99 C97 1.321 . S
C99 C98 1.390 . S
C99 H101 0.930 . S
H100 C98 0.931 . S
H101 C99 0.930 . S
H102 C125 0.931 . S
H103 C91 0.929 . S
H104 C126 0.930 . S
H105 C97 0.931 . S
H106 C87 0.930 . S
H107 C116 0.929 . S
H108 C92 0.931 . S
H109 C93 0.930 . S
H110 C148 0.930 . S
H111 C89 0.929 . S
H112 C117 0.931 . S
H113 C118 0.930 . S
N114 Gd94 2.622 . S
N114 C115 1.369 . S
N114 C116 1.338 . S
C115 N114 1.369 . S
C115 C119 1.415 . S
C115 C122 1.422 . S
C116 H107 0.929 . S
C116 N114 1.338 . S
C116 C118 1.378 . S
C117 H112 0.931 . S
C117 C118 1.348 . S
C117 C119 1.413 . S
C118 H113 0.930 . S
C118 C116 1.378 . S
C118 C117 1.348 . S
C119 C115 1.415 . S
C119 C117 1.413 . S
C119 C149 1.437 . S
H120 C149 0.929 . S
N121 Gd94 2.570 . S
N121 C122 1.359 . S
N121 C125 1.343 . S
C122 C115 1.422 . S
C122 N121 1.359 . S
C122 C124 1.421 . S
C123 C124 1.422 . S
C123 C126 1.321 . S
C123 H150 0.931 . S
C124 C122 1.421 . S
C124 C123 1.422 . S
C124 C148 1.417 . S
C125 H102 0.931 . S
C125 N121 1.343 . S
C125 C126 1.390 . S
C126 H104 0.930 . S
C126 C123 1.321 . S
C126 C125 1.390 . S
O127 Gd95 2.386 . S
O127 C139 1.265 . S
O128 Gd94 2.353 . S
O128 C139 1.242 . S
O129 Gd94 2.468 . S
O129 C147 1.263 . S
O130 Gd94 2.427 . S
O130 C147 1.252 . S
O131 Gd95 2.307 . S
O131 C140 1.261 . S
O132 Gd94 2.388 . S
O132 C140 1.252 . S
O133 Gd94 2.386 . S
O133 C151 1.265 . S
O134 Gd95 2.353 . S
O134 C151 1.242 . S
O135 Gd95 2.468 . S
O135 C159 1.263 . S
O136 Gd95 2.427 . S
O136 C159 1.252 . S
O137 Gd94 2.307 . S
O137 C152 1.261 . S
O138 Gd95 2.388 . S
O138 C152 1.252 . S
C139 O127 1.265 . S
C139 O128 1.242 . S
C140 O131 1.261 . S
C140 O132 1.252 . S
C141 C144 1.394 . S
C141 C146 1.370 . S
C141 C147 1.500 . S
C142 C145 1.383 . S
C142 C146 1.395 . S
C143 C144 1.396 . S
C143 C145 1.365 . S
C143 H160 0.929 . S
C144 C141 1.394 . S
C144 C143 1.396 . S
C144 H161 0.930 . S
C145 C142 1.383 . S
C145 C143 1.365 . S
C145 H162 0.931 . S
C146 C141 1.370 . S
C146 C142 1.395 . S
C146 H163 0.930 . S
C147 Gd94 2.805 . S
C147 O129 1.263 . S
C147 O130 1.252 . S
C147 C141 1.500 . S
C148 H110 0.930 . S
C148 C124 1.417 . S
C148 C149 1.329 . S
C149 C119 1.437 . S
C149 H120 0.929 . S
C149 C148 1.329 . S
H150 C123 0.931 . S
C151 O133 1.265 . S
C151 O134 1.242 . S
C152 O137 1.261 . S
C152 O138 1.252 . S
C153 C156 1.394 . S
C153 C158 1.370 . S
C153 C159 1.500 . S
C154 C157 1.383 . S
C154 C158 1.395 . S
C155 C156 1.396 . S
C155 C157 1.365 . S
C155 H164 0.929 . S
C156 C153 1.394 . S
C156 C155 1.396 . S
C156 H165 0.930 . S
C157 C154 1.383 . S
C157 C155 1.365 . S
C157 H166 0.931 . S
C158 C153 1.370 . S
C158 C154 1.395 . S
C158 H167 0.930 . S
C159 Gd95 2.805 . S
C159 O135 1.263 . S
C159 O136 1.252 . S
C159 C153 1.500 . S
H160 C143 0.929 . S
H161 C144 0.930 . S
H162 C145 0.931 . S
H163 C146 0.930 . S
H164 C155 0.929 . S
H165 C156 0.930 . S
H166 C157 0.931 . S
H167 C158 0.930 . S
C168 C170 1.422 . S
C168 C172 1.415 . S
C168 N174 1.369 . S
C169 C170 1.421 . S
C169 C171 1.417 . S
C169 C181 1.422 . S
C170 C168 1.422 . S
C170 C169 1.421 . S
C170 N180 1.359 . S
C171 C169 1.417 . S
C171 C173 1.329 . S
C171 H190 0.930 . S
C172 C168 1.415 . S
C172 C173 1.437 . S
C172 C176 1.413 . S
C173 C171 1.329 . S
C173 C172 1.437 . S
C173 H195 0.929 . S
N174 C168 1.369 . S
N174 C175 1.338 . S
N174 Gd179 2.622 . S
C175 N174 1.338 . S
C175 C177 1.378 . S
C175 H187 0.929 . S
C176 C172 1.413 . S
C176 C177 1.348 . S
C176 H192 0.931 . S
C177 C175 1.378 . S
C177 C176 1.348 . S
C177 H193 0.930 . S
Gd178 N198 2.622 . S
Gd178 N205 2.570 . S
Gd178 O212 2.353 . S
Gd178 O213 2.468 . S
Gd178 O214 2.427 . S
Gd178 O216 2.388 . S
Gd178 O217 2.386 . S
Gd178 O221 2.307 . S
Gd178 C231 2.805 . S
Gd179 N174 2.622 . S
Gd179 N180 2.570 . S
Gd179 O211 2.386 . S
Gd179 O215 2.307 . S
Gd179 O218 2.353 . S
Gd179 O219 2.468 . S
Gd179 O220 2.427 . S
Gd179 O222 2.388 . S
Gd179 C243 2.805 . S
N180 C170 1.359 . S
N180 Gd179 2.570 . S
N180 C182 1.343 . S
C181 C169 1.422 . S
C181 C183 1.321 . S
C181 H189 0.931 . S
C182 N180 1.343 . S
C182 C183 1.390 . S
C182 H184 0.931 . S
C183 C181 1.321 . S
C183 C182 1.390 . S
C183 H185 0.930 . S
H184 C182 0.931 . S
H185 C183 0.930 . S
H186 C209 0.931 . S
H187 C175 0.929 . S
H188 C210 0.930 . S
H189 C181 0.931 . S
H190 C171 0.930 . S
H191 C200 0.929 . S
H192 C176 0.931 . S
H193 C177 0.930 . S
H194 C232 0.930 . S
H195 C173 0.929 . S
H196 C201 0.931 . S
H197 C202 0.930 . S
N198 Gd178 2.622 . S
N198 C199 1.369 . S
N198 C200 1.338 . S
C199 N198 1.369 . S
C199 C203 1.415 . S
C199 C206 1.422 . S
C200 H191 0.929 . S
C200 N198 1.338 . S
C200 C202 1.378 . S
C201 H196 0.931 . S
C201 C202 1.348 . S
C201 C203 1.413 . S
C202 H197 0.930 . S
C202 C200 1.378 . S
C202 C201 1.348 . S
C203 C199 1.415 . S
C203 C201 1.413 . S
C203 C233 1.437 . S
H204 C233 0.929 . S
N205 Gd178 2.570 . S
N205 C206 1.359 . S
N205 C209 1.343 . S
C206 C199 1.422 . S
C206 N205 1.359 . S
C206 C208 1.421 . S
C207 C208 1.422 . S
C207 C210 1.321 . S
C207 H234 0.931 . S
C208 C206 1.421 . S
C208 C207 1.422 . S
C208 C232 1.417 . S
C209 H186 0.931 . S
C209 N205 1.343 . S
C209 C210 1.390 . S
C210 H188 0.930 . S
C210 C207 1.321 . S
C210 C209 1.390 . S
O211 Gd179 2.386 . S
O211 C223 1.265 . S
O212 Gd178 2.353 . S
O212 C223 1.242 . S
O213 Gd178 2.468 . S
O213 C231 1.263 . S
O214 Gd178 2.427 . S
O214 C231 1.252 . S
O215 Gd179 2.307 . S
O215 C224 1.261 . S
O216 Gd178 2.388 . S
O216 C224 1.252 . S
O217 Gd178 2.386 . S
O217 C235 1.265 . S
O218 Gd179 2.353 . S
O218 C235 1.242 . S
O219 Gd179 2.468 . S
O219 C243 1.263 . S
O220 Gd179 2.427 . S
O220 C243 1.252 . S
O221 Gd178 2.307 . S
O221 C236 1.261 . S
O222 Gd179 2.388 . S
O222 C236 1.252 . S
C223 O211 1.265 . S
C223 O212 1.242 . S
C224 O215 1.261 . S
C224 O216 1.252 . S
C225 C228 1.394 . S
C225 C230 1.370 . S
C225 C231 1.500 . S
C226 C229 1.383 . S
C226 C230 1.395 . S
C227 C228 1.396 . S
C227 C229 1.365 . S
C227 H244 0.929 . S
C228 C225 1.394 . S
C228 C227 1.396 . S
C228 H245 0.930 . S
C229 C226 1.383 . S
C229 C227 1.365 . S
C229 H246 0.931 . S
C230 C225 1.370 . S
C230 C226 1.395 . S
C230 H247 0.930 . S
C231 Gd178 2.805 . S
C231 O213 1.263 . S
C231 O214 1.252 . S
C231 C225 1.500 . S
C232 H194 0.930 . S
C232 C208 1.417 . S
C232 C233 1.329 . S
C233 C203 1.437 . S
C233 H204 0.929 . S
C233 C232 1.329 . S
H234 C207 0.931 . S
C235 O217 1.265 . S
C235 O218 1.242 . S
C236 O221 1.261 . S
C236 O222 1.252 . S
C237 C240 1.394 . S
C237 C242 1.370 . S
C237 C243 1.500 . S
C238 C241 1.381 1_455 S
C238 C242 1.398 . S
C239 C240 1.396 1_655 S
C239 C241 1.365 . S
C239 H248 0.929 . S
C240 C237 1.394 . S
C240 C239 1.396 1_455 S
C240 H249 0.930 . S
C241 C238 1.381 1_655 S
C241 C239 1.365 . S
C241 H250 0.931 . S
C242 C237 1.370 . S
C242 C238 1.398 . S
C242 H251 0.930 . S
C243 Gd179 2.805 . S
C243 O219 1.263 . S
C243 O220 1.252 . S
C243 C237 1.500 . S
H244 C227 0.929 . S
H245 C228 0.930 . S
H246 C229 0.931 . S
H247 C230 0.930 . S
H248 C239 0.929 . S
H249 C240 0.930 . S
H250 C241 0.931 . S
H251 C242 0.930 . S
C252 C254 1.422 . S
C252 C256 1.415 . S
C252 N258 1.369 . S
C253 C254 1.421 . S
C253 C255 1.417 . S
C253 C265 1.422 . S
C254 C252 1.422 . S
C254 C253 1.421 . S
C254 N264 1.359 . S
C255 C253 1.417 . S
C255 C257 1.329 . S
C255 H274 0.930 . S
C256 C252 1.415 . S
C256 C257 1.437 . S
C256 C260 1.413 . S
C257 C255 1.329 . S
C257 C256 1.437 . S
C257 H279 0.929 . S
N258 C252 1.369 . S
N258 C259 1.338 . S
N258 Gd263 2.622 . S
C259 N258 1.338 . S
C259 C261 1.378 . S
C259 H271 0.929 . S
C260 C256 1.413 . S
C260 C261 1.348 . S
C260 H276 0.931 . S
C261 C259 1.378 . S
C261 C260 1.348 . S
C261 H277 0.930 . S
Gd262 N282 2.622 . S
Gd262 N289 2.570 . S
Gd262 O296 2.353 . S
Gd262 O297 2.468 . S
Gd262 O298 2.427 . S
Gd262 O300 2.388 . S
Gd262 O301 2.386 . S
Gd262 O305 2.307 . S
Gd262 C315 2.805 . S
Gd263 N258 2.622 . S
Gd263 N264 2.570 . S
Gd263 O295 2.386 . S
Gd263 O299 2.307 . S
Gd263 O302 2.353 . S
Gd263 O303 2.468 . S
Gd263 O304 2.427 . S
Gd263 O306 2.388 . S
Gd263 C327 2.805 . S
N264 C254 1.359 . S
N264 Gd263 2.570 . S
N264 C266 1.343 . S
C265 C253 1.422 . S
C265 C267 1.321 . S
C265 H273 0.931 . S
C266 N264 1.343 . S
C266 C267 1.390 . S
C266 H268 0.931 . S
C267 C265 1.321 . S
C267 C266 1.390 . S
C267 H269 0.930 . S
H268 C266 0.931 . S
H269 C267 0.930 . S
H270 C293 0.931 . S
H271 C259 0.929 . S
H272 C294 0.930 . S
H273 C265 0.931 . S
H274 C255 0.930 . S
H275 C284 0.929 . S
H276 C260 0.931 . S
H277 C261 0.930 . S
H278 C316 0.930 . S
H279 C257 0.929 . S
H280 C285 0.931 . S
H281 C286 0.930 . S
N282 Gd262 2.622 . S
N282 C283 1.369 1_655 S
N282 C284 1.338 1_655 S
C283 N282 1.369 1_455 S
C283 C287 1.415 . S
C283 C290 1.422 1_455 S
C284 H275 0.929 . S
C284 N282 1.338 1_455 S
C284 C286 1.378 . S
C285 H280 0.931 . S
C285 C286 1.348 . S
C285 C287 1.413 . S
C286 H281 0.930 . S
C286 C284 1.378 . S
C286 C285 1.348 . S
C287 C283 1.415 . S
C287 C285 1.413 . S
C287 C317 1.437 . S
H288 C317 0.929 . S
N289 Gd262 2.570 . S
N289 C290 1.359 . S
N289 C293 1.343 . S
C290 C283 1.422 1_655 S
C290 N289 1.359 . S
C290 C292 1.421 . S
C291 C292 1.422 . S
C291 C294 1.321 . S
C291 H318 0.931 . S
C292 C290 1.421 . S
C292 C291 1.422 . S
C292 C316 1.417 1_655 S
C293 H270 0.931 . S
C293 N289 1.343 . S
C293 C294 1.390 . S
C294 H272 0.930 . S
C294 C291 1.321 . S
C294 C293 1.390 . S
O295 Gd263 2.386 . S
O295 C307 1.265 . S
O296 Gd262 2.353 . S
O296 C307 1.242 . S
O297 Gd262 2.468 . S
O297 C315 1.263 . S
O298 Gd262 2.427 . S
O298 C315 1.252 . S
O299 Gd263 2.307 . S
O299 C308 1.261 . S
O300 Gd262 2.388 . S
O300 C308 1.252 . S
O301 Gd262 2.386 . S
O301 C319 1.265 . S
O302 Gd263 2.353 . S
O302 C319 1.242 . S
O303 Gd263 2.468 . S
O303 C327 1.263 . S
O304 Gd263 2.427 . S
O304 C327 1.252 . S
O305 Gd262 2.307 . S
O305 C320 1.261 . S
O306 Gd263 2.388 . S
O306 C320 1.252 . S
C307 O295 1.265 . S
C307 O296 1.242 . S
C308 O299 1.261 . S
C308 O300 1.252 . S
C309 C312 1.394 . S
C309 C314 1.370 . S
C309 C315 1.500 . S
C310 C313 1.383 . S
C310 C314 1.395 . S
C311 C312 1.396 . S
C311 C313 1.365 . S
C311 H328 0.929 1_655 S
C312 C309 1.394 . S
C312 C311 1.396 . S
C312 H329 0.930 . S
C313 C310 1.383 . S
C313 C311 1.365 . S
C313 H330 0.931 . S
C314 C309 1.370 . S
C314 C310 1.395 . S
C314 H331 0.930 . S
C315 Gd262 2.805 . S
C315 O297 1.263 . S
C315 O298 1.252 . S
C315 C309 1.500 . S
C316 H278 0.930 . S
C316 C292 1.417 1_455 S
C316 C317 1.329 . S
C317 C287 1.437 . S
C317 H288 0.929 . S
C317 C316 1.329 . S
H318 C291 0.931 . S
C319 O301 1.265 . S
C319 O302 1.242 . S
C320 O305 1.261 . S
C320 O306 1.252 . S
C321 C324 1.394 . S
C321 C326 1.370 . S
C321 C327 1.500 . S
C322 C325 1.383 . S
C322 C326 1.395 . S
C323 C324 1.396 . S
C323 C325 1.365 . S
C323 H332 0.929 . S
C324 C321 1.394 . S
C324 C323 1.396 . S
C324 H333 0.930 . S
C325 C322 1.383 . S
C325 C323 1.365 . S
C325 H334 0.931 . S
C326 C321 1.370 . S
C326 C322 1.395 . S
C326 H335 0.930 . S
C327 Gd263 2.805 . S
C327 O303 1.263 . S
C327 O304 1.252 . S
C327 C321 1.500 . S
H328 C311 0.929 1_455 S
H329 C312 0.930 . S
H330 C313 0.931 . S
H331 C314 0.930 . S
H332 C323 0.929 . S
H333 C324 0.930 . S
H334 C325 0.931 . S
H335 C326 0.930 . S
C336 C338 1.422 . S
C336 C340 1.415 . S
C336 N342 1.369 . S
C337 C338 1.421 . S
C337 C339 1.417 . S
C337 C349 1.422 . S
C338 C336 1.422 . S
C338 C337 1.421 . S
C338 N348 1.359 . S
C339 C337 1.417 . S
C339 C341 1.329 . S
C339 H358 0.930 . S
C340 C336 1.415 . S
C340 C341 1.437 . S
C340 C344 1.413 . S
C341 C339 1.329 . S
C341 C340 1.437 . S
C341 H363 0.929 . S
N342 C336 1.369 . S
N342 C343 1.338 . S
N342 Gd347 2.622 . S
C343 N342 1.338 . S
C343 C345 1.378 . S
C343 H355 0.929 . S
C344 C340 1.413 . S
C344 C345 1.348 . S
C344 H360 0.931 . S
C345 C343 1.378 . S
C345 C344 1.348 . S
C345 H361 0.930 . S
Gd346 N366 2.622 . S
Gd346 N373 2.570 1_556 S
Gd346 O380 2.353 . S
Gd346 O381 2.468 1_556 S
Gd346 O382 2.427 1_556 S
Gd346 O384 2.388 . S
Gd346 O385 2.386 . S
Gd346 O389 2.307 1_556 S
Gd346 C399 2.805 1_556 S
Gd347 N342 2.622 . S
Gd347 N348 2.570 . S
Gd347 O379 2.386 . S
Gd347 O383 2.307 . S
Gd347 O386 2.353 . S
Gd347 O387 2.468 . S
Gd347 O388 2.427 . S
Gd347 O390 2.388 . S
Gd347 C411 2.805 . S
N348 C338 1.359 . S
N348 Gd347 2.570 . S
N348 C350 1.343 . S
C349 C337 1.422 . S
C349 C351 1.321 . S
C349 H357 0.931 . S
C350 N348 1.343 . S
C350 C351 1.390 . S
C350 H352 0.931 . S
C351 C349 1.321 . S
C351 C350 1.390 . S
C351 H353 0.930 . S
H352 C350 0.931 . S
H353 C351 0.930 . S
H354 C377 0.931 . S
H355 C343 0.929 . S
H356 C378 0.930 . S
H357 C349 0.931 . S
H358 C339 0.930 . S
H359 C368 0.929 . S
H360 C344 0.931 . S
H361 C345 0.930 . S
H362 C400 0.930 . S
H363 C341 0.929 . S
H364 C369 0.931 . S
H365 C370 0.930 . S
N366 Gd346 2.622 . S
N366 C367 1.362 1_556 S
N366 C368 1.345 . S
C367 N366 1.362 1_554 S
C367 C371 1.415 . S
C367 C374 1.422 . S
C368 H359 0.929 . S
C368 N366 1.345 . S
C368 C370 1.378 . S
C369 H364 0.931 . S
C369 C370 1.348 1_554 S
C369 C371 1.413 . S
C370 H365 0.930 . S
C370 C368 1.378 . S
C370 C369 1.348 1_556 S
C371 C367 1.415 . S
C371 C369 1.413 . S
C371 C401 1.437 . S
H372 C401 0.929 . S
N373 Gd346 2.570 1_554 S
N373 C374 1.359 . S
N373 C377 1.343 . S
C374 C367 1.422 . S
C374 N373 1.359 . S
C374 C376 1.421 . S
C375 C376 1.422 . S
C375 C378 1.321 . S
C375 H402 0.931 . S
C376 C374 1.421 . S
C376 C375 1.422 . S
C376 C400 1.417 . S
C377 H354 0.931 . S
C377 N373 1.343 . S
C377 C378 1.390 . S
C378 H356 0.930 . S
C378 C375 1.321 . S
C378 C377 1.390 . S
O379 Gd347 2.386 . S
O379 C391 1.265 . S
O380 Gd346 2.353 . S
O380 C391 1.242 . S
O381 Gd346 2.468 1_554 S
O381 C399 1.263 . S
O382 Gd346 2.427 1_554 S
O382 C399 1.252 . S
O383 Gd347 2.307 . S
O383 C392 1.261 . S
O384 Gd346 2.388 . S
O384 C392 1.252 . S
O385 Gd346 2.386 . S
O385 C403 1.265 . S
O386 Gd347 2.353 . S
O386 C403 1.242 . S
O387 Gd347 2.468 . S
O387 C411 1.263 . S
O388 Gd347 2.427 . S
O388 C411 1.252 . S
O389 Gd346 2.307 1_554 S
O389 C404 1.261 . S
O390 Gd347 2.388 . S
O390 C404 1.252 1_556 S
C391 O379 1.265 . S
C391 O380 1.242 . S
C392 O383 1.261 . S
C392 O384 1.252 . S
C393 C396 1.394 . S
C393 C398 1.370 . S
C393 C399 1.500 . S
C394 C397 1.383 . S
C394 C398 1.395 . S
C395 C396 1.396 . S
C395 C397 1.365 . S
C395 H412 0.929 . S
C396 C393 1.394 . S
C396 C395 1.396 . S
C396 H413 0.930 . S
C397 C394 1.383 . S
C397 C395 1.365 . S
C397 H414 0.931 . S
C398 C393 1.370 . S
C398 C394 1.395 . S
C398 H415 0.930 . S
C399 Gd346 2.805 1_554 S
C399 O381 1.263 . S
C399 O382 1.252 . S
C399 C393 1.500 . S
C400 H362 0.930 . S
C400 C376 1.417 . S
C400 C401 1.329 . S
C401 C371 1.437 . S
C401 H372 0.929 . S
C401 C400 1.329 . S
H402 C375 0.931 . S
C403 O385 1.265 . S
C403 O386 1.242 . S
C404 O389 1.261 . S
C404 O390 1.252 1_554 S
C405 C408 1.394 . S
C405 C410 1.370 . S
C405 C411 1.500 . S
C406 C409 1.383 . S
C406 C410 1.395 . S
C407 C408 1.396 . S
C407 C409 1.365 . S
C407 H416 0.929 . S
C408 C405 1.394 . S
C408 C407 1.396 . S
C408 H417 0.930 . S
C409 C406 1.383 . S
C409 C407 1.365 . S
C409 H418 0.931 . S
C410 C405 1.370 . S
C410 C406 1.395 . S
C410 H419 0.930 . S
C411 Gd347 2.805 . S
C411 O387 1.263 . S
C411 O388 1.252 . S
C411 C405 1.500 . S
H412 C395 0.929 . S
H413 C396 0.930 . S
H414 C397 0.931 . S
H415 C398 0.930 . S
H416 C407 0.929 . S
H417 C408 0.930 . S
H418 C409 0.931 . S
H419 C410 0.930 . S
C420 C422 1.422 . S
C420 C424 1.415 . S
C420 N426 1.369 . S
C421 C422 1.421 . S
C421 C423 1.417 . S
C421 C433 1.422 . S
C422 C420 1.422 . S
C422 C421 1.421 . S
C422 N432 1.359 . S
C423 C421 1.417 . S
C423 C425 1.329 . S
C423 H442 0.930 . S
C424 C420 1.415 . S
C424 C425 1.437 . S
C424 C428 1.413 . S
C425 C423 1.329 . S
C425 C424 1.437 . S
C425 H447 0.929 . S
N426 C420 1.369 . S
N426 C427 1.338 . S
N426 Gd431 2.622 . S
C427 N426 1.338 . S
C427 C429 1.378 . S
C427 H439 0.929 . S
C428 C424 1.413 . S
C428 C429 1.348 . S
C428 H444 0.931 . S
C429 C427 1.378 . S
C429 C428 1.348 . S
C429 H445 0.930 . S
Gd430 N450 2.622 . S
Gd430 N457 2.570 . S
Gd430 O464 2.353 . S
Gd430 O465 2.468 . S
Gd430 O466 2.427 . S
Gd430 O468 2.388 . S
Gd430 O469 2.386 . S
Gd430 O473 2.307 . S
Gd430 C483 2.805 . S
Gd431 N426 2.622 . S
Gd431 N432 2.570 . S
Gd431 O463 2.386 . S
Gd431 O467 2.307 . S
Gd431 O470 2.353 . S
Gd431 O471 2.468 . S
Gd431 O472 2.427 . S
Gd431 O474 2.388 . S
Gd431 C495 2.805 . S
N432 C422 1.359 . S
N432 Gd431 2.570 . S
N432 C434 1.343 . S
C433 C421 1.422 . S
C433 C435 1.321 . S
C433 H441 0.931 . S
C434 N432 1.343 . S
C434 C435 1.390 . S
C434 H436 0.931 . S
C435 C433 1.321 . S
C435 C434 1.390 . S
C435 H437 0.930 . S
H436 C434 0.931 . S
H437 C435 0.930 . S
H438 C461 0.931 . S
H439 C427 0.929 . S
H440 C462 0.930 . S
H441 C433 0.931 . S
H442 C423 0.930 . S
H443 C452 0.929 . S
H444 C428 0.931 . S
H445 C429 0.930 . S
H446 C484 0.930 . S
H447 C425 0.929 . S
H448 C453 0.931 . S
H449 C454 0.930 . S
N450 Gd430 2.622 . S
N450 C451 1.369 . S
N450 C452 1.338 . S
C451 N450 1.369 . S
C451 C455 1.415 . S
C451 C458 1.422 . S
C452 H443 0.929 . S
C452 N450 1.338 . S
C452 C454 1.378 . S
C453 H448 0.931 . S
C453 C454 1.348 . S
C453 C455 1.413 . S
C454 H449 0.930 . S
C454 C452 1.378 . S
C454 C453 1.348 . S
C455 C451 1.415 . S
C455 C453 1.413 . S
C455 C485 1.437 . S
H456 C485 0.929 . S
N457 Gd430 2.570 . S
N457 C458 1.359 . S
N457 C461 1.343 . S
C458 C451 1.422 . S
C458 N457 1.359 . S
C458 C460 1.421 . S
C459 C460 1.422 . S
C459 C462 1.321 . S
C459 H486 0.931 . S
C460 C458 1.421 . S
C460 C459 1.422 . S
C460 C484 1.417 . S
C461 H438 0.931 . S
C461 N457 1.343 . S
C461 C462 1.390 . S
C462 H440 0.930 . S
C462 C459 1.321 . S
C462 C461 1.390 . S
O463 Gd431 2.386 . S
O463 C475 1.265 . S
O464 Gd430 2.353 . S
O464 C475 1.242 . S
O465 Gd430 2.468 . S
O465 C483 1.263 . S
O466 Gd430 2.427 . S
O466 C483 1.252 . S
O467 Gd431 2.307 . S
O467 C476 1.261 . S
O468 Gd430 2.388 . S
O468 C476 1.252 . S
O469 Gd430 2.386 . S
O469 C487 1.265 . S
O470 Gd431 2.353 . S
O470 C487 1.242 . S
O471 Gd431 2.468 . S
O471 C495 1.263 . S
O472 Gd431 2.427 . S
O472 C495 1.252 . S
O473 Gd430 2.307 . S
O473 C488 1.261 . S
O474 Gd431 2.388 . S
O474 C488 1.252 . S
C475 O463 1.265 . S
C475 O464 1.242 . S
C476 O467 1.261 . S
C476 O468 1.252 . S
C477 C480 1.394 . S
C477 C482 1.370 . S
C477 C483 1.500 . S
C478 C481 1.383 . S
C478 C482 1.395 . S
C479 C480 1.396 . S
C479 C481 1.365 . S
C479 H496 0.929 . S
C480 C477 1.394 . S
C480 C479 1.396 . S
C480 H497 0.930 . S
C481 C478 1.383 . S
C481 C479 1.365 . S
C481 H498 0.931 . S
C482 C477 1.370 . S
C482 C478 1.395 . S
C482 H499 0.930 . S
C483 Gd430 2.805 . S
C483 O465 1.263 . S
C483 O466 1.252 . S
C483 C477 1.500 . S
C484 H446 0.930 . S
C484 C460 1.417 . S
C484 C485 1.329 . S
C485 C455 1.437 . S
C485 H456 0.929 . S
C485 C484 1.329 . S
H486 C459 0.931 . S
C487 O469 1.265 . S
C487 O470 1.242 . S
C488 O473 1.261 . S
C488 O474 1.252 . S
C489 C492 1.394 . S
C489 C494 1.370 . S
C489 C495 1.500 . S
C490 C493 1.383 . S
C490 C494 1.395 . S
C491 C492 1.396 . S
C491 C493 1.365 . S
C491 H500 0.929 . S
C492 C489 1.394 . S
C492 C491 1.396 . S
C492 H501 0.930 . S
C493 C490 1.383 . S
C493 C491 1.365 . S
C493 H502 0.931 . S
C494 C489 1.370 . S
C494 C490 1.395 . S
C494 H503 0.930 . S
C495 Gd431 2.805 . S
C495 O471 1.263 . S
C495 O472 1.252 . S
C495 C489 1.500 . S
H496 C479 0.929 . S
H497 C480 0.930 . S
H498 C481 0.931 . S
H499 C482 0.930 . S
H500 C491 0.929 . S
H501 C492 0.930 . S
H502 C493 0.931 . S
H503 C494 0.930 . S
C504 C506 1.422 . S
C504 C508 1.415 . S
C504 N510 1.369 . S
C505 C506 1.421 . S
C505 C507 1.417 . S
C505 C517 1.422 . S
C506 C504 1.422 . S
C506 C505 1.421 . S
C506 N516 1.359 . S
C507 C505 1.417 . S
C507 C509 1.329 . S
C507 H526 0.930 . S
C508 C504 1.415 . S
C508 C509 1.437 . S
C508 C512 1.413 . S
C509 C507 1.329 . S
C509 C508 1.437 . S
C509 H531 0.929 . S
N510 C504 1.369 . S
N510 C511 1.338 . S
N510 Gd515 2.622 . S
C511 N510 1.338 . S
C511 C513 1.378 . S
C511 H523 0.929 . S
C512 C508 1.413 . S
C512 C513 1.348 . S
C512 H528 0.931 . S
C513 C511 1.378 . S
C513 C512 1.348 . S
C513 H529 0.930 . S
Gd514 N534 2.622 . S
Gd514 N541 2.570 . S
Gd514 O548 2.353 . S
Gd514 O549 2.468 . S
Gd514 O550 2.427 . S
Gd514 O552 2.388 . S
Gd514 O553 2.386 . S
Gd514 O557 2.307 . S
Gd514 C567 2.805 . S
Gd515 N510 2.622 . S
Gd515 N516 2.570 . S
Gd515 O547 2.386 . S
Gd515 O551 2.307 . S
Gd515 O554 2.353 . S
Gd515 O555 2.468 . S
Gd515 O556 2.427 . S
Gd515 O558 2.388 . S
Gd515 C579 2.805 . S
N516 C506 1.359 . S
N516 Gd515 2.570 . S
N516 C518 1.343 . S
C517 C505 1.422 . S
C517 C519 1.321 . S
C517 H525 0.931 . S
C518 N516 1.343 . S
C518 C519 1.390 . S
C518 H520 0.931 . S
C519 C517 1.321 . S
C519 C518 1.390 . S
C519 H521 0.930 . S
H520 C518 0.931 . S
H521 C519 0.930 . S
H522 C545 0.931 . S
H523 C511 0.929 . S
H524 C546 0.930 . S
H525 C517 0.931 . S
H526 C507 0.930 . S
H527 C536 0.929 . S
H528 C512 0.931 . S
H529 C513 0.930 . S
H530 C568 0.930 . S
H531 C509 0.929 . S
H532 C537 0.931 . S
H533 C538 0.930 . S
N534 Gd514 2.622 . S
N534 C535 1.369 . S
N534 C536 1.338 . S
C535 N534 1.369 . S
C535 C539 1.415 . S
C535 C542 1.422 . S
C536 H527 0.929 . S
C536 N534 1.338 . S
C536 C538 1.378 . S
C537 H532 0.931 . S
C537 C538 1.348 . S
C537 C539 1.413 . S
C538 H533 0.930 . S
C538 C536 1.378 . S
C538 C537 1.348 . S
C539 C535 1.415 . S
C539 C537 1.413 . S
C539 C569 1.437 . S
H540 C569 0.929 . S
N541 Gd514 2.570 . S
N541 C542 1.359 . S
N541 C545 1.343 . S
C542 C535 1.422 . S
C542 N541 1.359 . S
C542 C544 1.421 . S
C543 C544 1.422 . S
C543 C546 1.321 . S
C543 H570 0.931 . S
C544 C542 1.421 . S
C544 C543 1.422 . S
C544 C568 1.417 . S
C545 H522 0.931 . S
C545 N541 1.343 . S
C545 C546 1.390 . S
C546 H524 0.930 . S
C546 C543 1.321 . S
C546 C545 1.390 . S
O547 Gd515 2.386 . S
O547 C559 1.265 . S
O548 Gd514 2.353 . S
O548 C559 1.242 . S
O549 Gd514 2.468 . S
O549 C567 1.263 . S
O550 Gd514 2.427 . S
O550 C567 1.252 . S
O551 Gd515 2.307 . S
O551 C560 1.261 . S
O552 Gd514 2.388 . S
O552 C560 1.252 . S
O553 Gd514 2.386 . S
O553 C571 1.265 . S
O554 Gd515 2.353 . S
O554 C571 1.242 . S
O555 Gd515 2.468 . S
O555 C579 1.263 . S
O556 Gd515 2.427 . S
O556 C579 1.252 . S
O557 Gd514 2.307 . S
O557 C572 1.261 . S
O558 Gd515 2.388 . S
O558 C572 1.252 . S
C559 O547 1.265 . S
C559 O548 1.242 . S
C560 O551 1.261 . S
C560 O552 1.252 . S
C561 C564 1.394 . S
C561 C566 1.370 . S
C561 C567 1.500 . S
C562 C565 1.381 1_655 S
C562 C566 1.398 . S
C563 C564 1.396 1_455 S
C563 C565 1.365 . S
C563 H580 0.929 . S
C564 C561 1.394 . S
C564 C563 1.396 1_655 S
C564 H581 0.930 . S
C565 C562 1.381 1_455 S
C565 C563 1.365 . S
C565 H582 0.931 . S
C566 C561 1.370 . S
C566 C562 1.398 . S
C566 H583 0.930 . S
C567 Gd514 2.805 . S
C567 O549 1.263 . S
C567 O550 1.252 . S
C567 C561 1.500 . S
C568 H530 0.930 . S
C568 C544 1.417 . S
C568 C569 1.329 . S
C569 C539 1.437 . S
C569 H540 0.929 . S
C569 C568 1.329 . S
H570 C543 0.931 . S
C571 O553 1.265 . S
C571 O554 1.242 . S
C572 O557 1.261 . S
C572 O558 1.252 . S
C573 C576 1.394 . S
C573 C578 1.370 . S
C573 C579 1.500 . S
C574 C577 1.383 . S
C574 C578 1.395 . S
C575 C576 1.396 . S
C575 C577 1.365 . S
C575 H584 0.929 . S
C576 C573 1.394 . S
C576 C575 1.396 . S
C576 H585 0.930 . S
C577 C574 1.383 . S
C577 C575 1.365 . S
C577 H586 0.931 . S
C578 C573 1.370 . S
C578 C574 1.395 . S
C578 H587 0.930 . S
C579 Gd515 2.805 . S
C579 O555 1.263 . S
C579 O556 1.252 . S
C579 C573 1.500 . S
H580 C563 0.929 . S
H581 C564 0.930 . S
H582 C565 0.931 . S
H583 C566 0.930 . S
H584 C575 0.929 . S
H585 C576 0.930 . S
H586 C577 0.931 . S
H587 C578 0.930 . S
C588 C590 1.422 1_655 S
C588 C592 1.415 . S
C588 N594 1.369 1_655 S
C589 C590 1.421 . S
C589 C591 1.417 1_455 S
C589 C601 1.422 . S
C590 C588 1.422 1_455 S
C590 C589 1.421 . S
C590 N600 1.359 . S
C591 C589 1.417 1_655 S
C591 C593 1.329 . S
C591 H610 0.930 . S
C592 C588 1.415 . S
C592 C593 1.437 . S
C592 C596 1.413 . S
C593 C591 1.329 . S
C593 C592 1.437 . S
C593 H615 0.929 . S
N594 C588 1.369 1_455 S
N594 C595 1.338 1_455 S
N594 Gd599 2.622 . S
C595 N594 1.338 1_655 S
C595 C597 1.378 . S
C595 H607 0.929 . S
C596 C592 1.413 . S
C596 C597 1.348 . S
C596 H612 0.931 . S
C597 C595 1.378 . S
C597 C596 1.348 . S
C597 H613 0.930 . S
Gd598 N618 2.622 . S
Gd598 N625 2.570 . S
Gd598 O632 2.353 . S
Gd598 O633 2.468 . S
Gd598 O634 2.427 . S
Gd598 O636 2.388 . S
Gd598 O637 2.386 . S
Gd598 O641 2.307 . S
Gd598 C651 2.805 . S
Gd599 N594 2.622 . S
Gd599 N600 2.570 . S
Gd599 O631 2.386 . S
Gd599 O635 2.307 . S
Gd599 O638 2.353 . S
Gd599 O639 2.468 . S
Gd599 O640 2.427 . S
Gd599 O642 2.388 . S
Gd599 C663 2.805 . S
N600 C590 1.359 . S
N600 Gd599 2.570 . S
N600 C602 1.343 . S
C601 C589 1.422 . S
C601 C603 1.321 . S
C601 H609 0.931 . S
C602 N600 1.343 . S
C602 C603 1.390 . S
C602 H604 0.931 . S
C603 C601 1.321 . S
C603 C602 1.390 . S
C603 H605 0.930 . S
H604 C602 0.931 . S
H605 C603 0.930 . S
H606 C629 0.931 . S
H607 C595 0.929 . S
H608 C630 0.930 . S
H609 C601 0.931 . S
H610 C591 0.930 . S
H611 C620 0.929 . S
H612 C596 0.931 . S
H613 C597 0.930 . S
H614 C652 0.930 . S
H615 C593 0.929 . S
H616 C621 0.931 . S
H617 C622 0.930 . S
N618 Gd598 2.622 . S
N618 C619 1.369 . S
N618 C620 1.338 . S
C619 N618 1.369 . S
C619 C623 1.415 . S
C619 C626 1.422 . S
C620 H611 0.929 . S
C620 N618 1.338 . S
C620 C622 1.378 . S
C621 H616 0.931 . S
C621 C622 1.348 . S
C621 C623 1.413 . S
C622 H617 0.930 . S
C622 C620 1.378 . S
C622 C621 1.348 . S
C623 C619 1.415 . S
C623 C621 1.413 . S
C623 C653 1.437 . S
H624 C653 0.929 . S
N625 Gd598 2.570 . S
N625 C626 1.359 . S
N625 C629 1.343 . S
C626 C619 1.422 . S
C626 N625 1.359 . S
C626 C628 1.421 . S
C627 C628 1.422 . S
C627 C630 1.321 . S
C627 H654 0.931 . S
C628 C626 1.421 . S
C628 C627 1.422 . S
C628 C652 1.417 . S
C629 H606 0.931 . S
C629 N625 1.343 . S
C629 C630 1.390 . S
C630 H608 0.930 . S
C630 C627 1.321 . S
C630 C629 1.390 . S
O631 Gd599 2.386 . S
O631 C643 1.265 . S
O632 Gd598 2.353 . S
O632 C643 1.242 . S
O633 Gd598 2.468 . S
O633 C651 1.263 . S
O634 Gd598 2.427 . S
O634 C651 1.252 . S
O635 Gd599 2.307 . S
O635 C644 1.261 . S
O636 Gd598 2.388 . S
O636 C644 1.252 . S
O637 Gd598 2.386 . S
O637 C655 1.265 . S
O638 Gd599 2.353 . S
O638 C655 1.242 . S
O639 Gd599 2.468 . S
O639 C663 1.263 . S
O640 Gd599 2.427 . S
O640 C663 1.252 . S
O641 Gd598 2.307 . S
O641 C656 1.261 . S
O642 Gd599 2.388 . S
O642 C656 1.252 . S
C643 O631 1.265 . S
C643 O632 1.242 . S
C644 O635 1.261 . S
C644 O636 1.252 . S
C645 C648 1.394 . S
C645 C650 1.370 . S
C645 C651 1.500 . S
C646 C649 1.383 . S
C646 C650 1.395 . S
C647 C648 1.396 . S
C647 C649 1.365 . S
C647 H664 0.929 . S
C648 C645 1.394 . S
C648 C647 1.396 . S
C648 H665 0.930 . S
C649 C646 1.383 . S
C649 C647 1.365 . S
C649 H666 0.931 . S
C650 C645 1.370 . S
C650 C646 1.395 . S
C650 H667 0.930 . S
C651 Gd598 2.805 . S
C651 O633 1.263 . S
C651 O634 1.252 . S
C651 C645 1.500 . S
C652 H614 0.930 . S
C652 C628 1.417 . S
C652 C653 1.329 . S
C653 C623 1.437 . S
C653 H624 0.929 . S
C653 C652 1.329 . S
H654 C627 0.931 . S
C655 O637 1.265 . S
C655 O638 1.242 . S
C656 O641 1.261 . S
C656 O642 1.252 . S
C657 C660 1.394 . S
C657 C662 1.370 . S
C657 C663 1.500 . S
C658 C661 1.383 . S
C658 C662 1.395 . S
C659 C660 1.396 . S
C659 C661 1.365 . S
C659 H668 0.929 1_455 S
C660 C657 1.394 . S
C660 C659 1.396 . S
C660 H669 0.930 . S
C661 C658 1.383 . S
C661 C659 1.365 . S
C661 H670 0.931 . S
C662 C657 1.370 . S
C662 C658 1.395 . S
C662 H671 0.930 . S
C663 Gd599 2.805 . S
C663 O639 1.263 . S
C663 O640 1.252 . S
C663 C657 1.500 . S
H664 C647 0.929 . S
H665 C648 0.930 . S
H666 C649 0.931 . S
H667 C650 0.930 . S
H668 C659 0.929 1_655 S
H669 C660 0.930 . S
H670 C661 0.931 . S
H671 C662 0.930 . S
C672 C674 1.422 . S
C672 C676 1.415 . S
C672 N678 1.369 . S
C673 C674 1.421 . S
C673 C675 1.417 . S
C673 C685 1.422 . S
C674 C672 1.422 . S
C674 C673 1.421 . S
C674 N684 1.359 . S
C675 C673 1.417 . S
C675 C677 1.329 . S
C675 H694 0.930 . S
C676 C672 1.415 . S
C676 C677 1.437 . S
C676 C680 1.413 . S
C677 C675 1.329 . S
C677 C676 1.437 . S
C677 H699 0.929 . S
N678 C672 1.369 . S
N678 C679 1.338 . S
N678 Gd683 2.622 . S
C679 N678 1.338 . S
C679 C681 1.378 . S
C679 H691 0.929 . S
C680 C676 1.413 . S
C680 C681 1.348 . S
C680 H696 0.931 . S
C681 C679 1.378 . S
C681 C680 1.348 . S
C681 H697 0.930 . S
Gd682 N702 2.622 . S
Gd682 N709 2.570 . S
Gd682 O716 2.353 . S
Gd682 O717 2.468 . S
Gd682 O718 2.427 . S
Gd682 O720 2.388 . S
Gd682 O721 2.386 . S
Gd682 O725 2.307 . S
Gd682 C735 2.805 . S
Gd683 N678 2.622 . S
Gd683 N684 2.570 . S
Gd683 O715 2.386 . S
Gd683 O719 2.307 . S
Gd683 O722 2.353 . S
Gd683 O723 2.468 . S
Gd683 O724 2.427 . S
Gd683 O726 2.388 . S
Gd683 C747 2.805 . S
N684 C674 1.359 . S
N684 Gd683 2.570 . S
N684 C686 1.343 . S
C685 C673 1.422 . S
C685 C687 1.321 . S
C685 H693 0.931 . S
C686 N684 1.343 . S
C686 C687 1.390 . S
C686 H688 0.931 . S
C687 C685 1.321 . S
C687 C686 1.390 . S
C687 H689 0.930 . S
H688 C686 0.931 . S
H689 C687 0.930 . S
H690 C713 0.931 . S
H691 C679 0.929 . S
H692 C714 0.930 . S
H693 C685 0.931 . S
H694 C675 0.930 . S
H695 C704 0.929 . S
H696 C680 0.931 . S
H697 C681 0.930 . S
H698 C736 0.930 . S
H699 C677 0.929 . S
H700 C705 0.931 . S
H701 C706 0.930 . S
N702 Gd682 2.622 . S
N702 C703 1.369 . S
N702 C704 1.338 . S
C703 N702 1.369 . S
C703 C707 1.415 . S
C703 C710 1.422 . S
C704 H695 0.929 . S
C704 N702 1.338 . S
C704 C706 1.378 . S
C705 H700 0.931 . S
C705 C706 1.348 . S
C705 C707 1.413 . S
C706 H701 0.930 . S
C706 C704 1.378 . S
C706 C705 1.348 . S
C707 C703 1.415 . S
C707 C705 1.413 . S
C707 C737 1.437 . S
H708 C737 0.929 . S
N709 Gd682 2.570 . S
N709 C710 1.359 . S
N709 C713 1.343 . S
C710 C703 1.422 . S
C710 N709 1.359 . S
C710 C712 1.421 . S
C711 C712 1.422 . S
C711 C714 1.321 . S
C711 H738 0.931 . S
C712 C710 1.421 . S
C712 C711 1.422 . S
C712 C736 1.417 . S
C713 H690 0.931 . S
C713 N709 1.343 . S
C713 C714 1.390 . S
C714 H692 0.930 . S
C714 C711 1.321 . S
C714 C713 1.390 . S
O715 Gd683 2.386 . S
O715 C727 1.265 . S
O716 Gd682 2.353 . S
O716 C727 1.242 . S
O717 Gd682 2.468 . S
O717 C735 1.263 . S
O718 Gd682 2.427 . S
O718 C735 1.252 . S
O719 Gd683 2.307 . S
O719 C728 1.261 . S
O720 Gd682 2.388 . S
O720 C728 1.252 . S
O721 Gd682 2.386 . S
O721 C739 1.265 . S
O722 Gd683 2.353 . S
O722 C739 1.242 . S
O723 Gd683 2.468 . S
O723 C747 1.263 . S
O724 Gd683 2.427 . S
O724 C747 1.252 . S
O725 Gd682 2.307 . S
O725 C740 1.261 . S
O726 Gd683 2.388 . S
O726 C740 1.252 . S
C727 O715 1.265 . S
C727 O716 1.242 . S
C728 O719 1.261 . S
C728 O720 1.252 . S
C729 C732 1.394 . S
C729 C734 1.370 . S
C729 C735 1.500 . S
C730 C733 1.383 . S
C730 C734 1.395 . S
C731 C732 1.396 . S
C731 C733 1.365 . S
C731 H748 0.929 . S
C732 C729 1.394 . S
C732 C731 1.396 . S
C732 H749 0.930 . S
C733 C730 1.383 . S
C733 C731 1.365 . S
C733 H750 0.931 . S
C734 C729 1.370 . S
C734 C730 1.395 . S
C734 H751 0.930 . S
C735 Gd682 2.805 . S
C735 O717 1.263 . S
C735 O718 1.252 . S
C735 C729 1.500 . S
C736 H698 0.930 . S
C736 C712 1.417 . S
C736 C737 1.329 . S
C737 C707 1.437 . S
C737 H708 0.929 . S
C737 C736 1.329 . S
H738 C711 0.931 . S
C739 O721 1.265 . S
C739 O722 1.242 . S
C740 O725 1.261 . S
C740 O726 1.252 . S
C741 C744 1.394 . S
C741 C746 1.370 . S
C741 C747 1.500 . S
C742 C745 1.381 1_655 S
C742 C746 1.398 . S
C743 C744 1.396 1_455 S
C743 C745 1.365 . S
C743 H752 0.929 . S
C744 C741 1.394 . S
C744 C743 1.396 1_655 S
C744 H753 0.930 . S
C745 C742 1.381 1_455 S
C745 C743 1.365 . S
C745 H754 0.931 . S
C746 C741 1.370 . S
C746 C742 1.398 . S
C746 H755 0.930 . S
C747 Gd683 2.805 . S
C747 O723 1.263 . S
C747 O724 1.252 . S
C747 C741 1.500 . S
H748 C731 0.929 . S
H749 C732 0.930 . S
H750 C733 0.931 . S
H751 C734 0.930 . S
H752 C743 0.929 . S
H753 C744 0.930 . S
H754 C745 0.931 . S
H755 C746 0.930 . S
C756 C758 1.422 . S
C756 C760 1.415 . S
C756 N762 1.369 . S
C757 C758 1.421 . S
C757 C759 1.417 . S
C757 C769 1.422 . S
C758 C756 1.422 . S
C758 C757 1.421 . S
C758 N768 1.359 . S
C759 C757 1.417 . S
C759 C761 1.329 . S
C759 H778 0.930 . S
C760 C756 1.415 . S
C760 C761 1.437 . S
C760 C764 1.413 . S
C761 C759 1.329 . S
C761 C760 1.437 . S
C761 H783 0.929 . S
N762 C756 1.369 . S
N762 C763 1.338 . S
N762 Gd767 2.622 . S
C763 N762 1.338 . S
C763 C765 1.378 . S
C763 H775 0.929 . S
C764 C760 1.413 . S
C764 C765 1.348 . S
C764 H780 0.931 . S
C765 C763 1.378 . S
C765 C764 1.348 . S
C765 H781 0.930 . S
Gd766 N786 2.622 . S
Gd766 N793 2.570 . S
Gd766 O800 2.353 . S
Gd766 O801 2.468 . S
Gd766 O802 2.427 . S
Gd766 O804 2.388 . S
Gd766 O805 2.386 . S
Gd766 O809 2.307 . S
Gd766 C819 2.805 . S
Gd767 N762 2.622 . S
Gd767 N768 2.570 . S
Gd767 O799 2.386 . S
Gd767 O803 2.307 . S
Gd767 O806 2.353 . S
Gd767 O807 2.468 . S
Gd767 O808 2.427 . S
Gd767 O810 2.388 . S
Gd767 C831 2.805 . S
N768 C758 1.359 . S
N768 Gd767 2.570 . S
N768 C770 1.343 . S
C769 C757 1.422 . S
C769 C771 1.321 . S
C769 H777 0.931 . S
C770 N768 1.343 . S
C770 C771 1.390 . S
C770 H772 0.931 . S
C771 C769 1.321 . S
C771 C770 1.390 . S
C771 H773 0.930 . S
H772 C770 0.931 . S
H773 C771 0.930 . S
H774 C797 0.931 . S
H775 C763 0.929 . S
H776 C798 0.930 . S
H777 C769 0.931 . S
H778 C759 0.930 . S
H779 C788 0.929 . S
H780 C764 0.931 . S
H781 C765 0.930 . S
H782 C820 0.930 . S
H783 C761 0.929 . S
H784 C789 0.931 . S
H785 C790 0.930 . S
N786 Gd766 2.622 . S
N786 C787 1.369 1_455 S
N786 C788 1.338 1_455 S
C787 N786 1.369 1_655 S
C787 C791 1.415 . S
C787 C794 1.422 1_655 S
C788 H779 0.929 . S
C788 N786 1.338 1_655 S
C788 C790 1.378 . S
C789 H784 0.931 . S
C789 C790 1.348 . S
C789 C791 1.413 . S
C790 H785 0.930 . S
C790 C788 1.378 . S
C790 C789 1.348 . S
C791 C787 1.415 . S
C791 C789 1.413 . S
C791 C821 1.437 . S
H792 C821 0.929 . S
N793 Gd766 2.570 . S
N793 C794 1.359 . S
N793 C797 1.343 . S
C794 C787 1.422 1_455 S
C794 N793 1.359 . S
C794 C796 1.421 . S
C795 C796 1.422 . S
C795 C798 1.321 . S
C795 H822 0.931 . S
C796 C794 1.421 . S
C796 C795 1.422 . S
C796 C820 1.417 1_455 S
C797 H774 0.931 . S
C797 N793 1.343 . S
C797 C798 1.390 . S
C798 H776 0.930 . S
C798 C795 1.321 . S
C798 C797 1.390 . S
O799 Gd767 2.386 . S
O799 C811 1.265 . S
O800 Gd766 2.353 . S
O800 C811 1.242 . S
O801 Gd766 2.468 . S
O801 C819 1.263 . S
O802 Gd766 2.427 . S
O802 C819 1.252 . S
O803 Gd767 2.307 . S
O803 C812 1.261 . S
O804 Gd766 2.388 . S
O804 C812 1.252 . S
O805 Gd766 2.386 . S
O805 C823 1.265 . S
O806 Gd767 2.353 . S
O806 C823 1.242 . S
O807 Gd767 2.468 . S
O807 C831 1.263 . S
O808 Gd767 2.427 . S
O808 C831 1.252 . S
O809 Gd766 2.307 . S
O809 C824 1.261 . S
O810 Gd767 2.388 . S
O810 C824 1.252 . S
C811 O799 1.265 . S
C811 O800 1.242 . S
C812 O803 1.261 . S
C812 O804 1.252 . S
C813 C816 1.394 . S
C813 C818 1.370 . S
C813 C819 1.500 . S
C814 C817 1.383 1_545 S
C814 C818 1.395 . S
C815 C816 1.396 . S
C815 C817 1.365 1_545 S
C815 H832 0.929 1_445 S
C816 C813 1.394 . S
C816 C815 1.396 . S
C816 H833 0.930 . S
C817 C814 1.383 1_565 S
C817 C815 1.365 1_565 S
C817 H834 0.931 . S
C818 C813 1.370 . S
C818 C814 1.395 . S
C818 H835 0.930 . S
C819 Gd766 2.805 . S
C819 O801 1.263 . S
C819 O802 1.252 . S
C819 C813 1.500 . S
C820 H782 0.930 . S
C820 C796 1.417 1_655 S
C820 C821 1.329 . S
C821 C791 1.437 . S
C821 H792 0.929 . S
C821 C820 1.329 . S
H822 C795 0.931 . S
C823 O805 1.265 . S
C823 O806 1.242 . S
C824 O809 1.261 . S
C824 O810 1.252 . S
C825 C828 1.394 . S
C825 C830 1.370 . S
C825 C831 1.500 . S
C826 C829 1.383 . S
C826 C830 1.395 . S
C827 C828 1.396 . S
C827 C829 1.365 . S
C827 H836 0.929 . S
C828 C825 1.394 . S
C828 C827 1.396 . S
C828 H837 0.930 . S
C829 C826 1.383 . S
C829 C827 1.365 . S
C829 H838 0.931 . S
C830 C825 1.370 . S
C830 C826 1.395 . S
C830 H839 0.930 . S
C831 Gd767 2.805 . S
C831 O807 1.263 . S
C831 O808 1.252 . S
C831 C825 1.500 . S
H832 C815 0.929 1_665 S
H833 C816 0.930 . S
H834 C817 0.931 . S
H835 C818 0.930 . S
H836 C827 0.929 . S
H837 C828 0.930 . S
H838 C829 0.931 . S
H839 C830 0.930 . S
C840 C842 1.422 . S
C840 C844 1.415 . S
C840 N846 1.362 1_556 S
C841 C842 1.421 . S
C841 C843 1.417 . S
C841 C853 1.422 . S
C842 C840 1.422 . S
C842 C841 1.421 . S
C842 N852 1.359 . S
C843 C841 1.417 . S
C843 C845 1.329 . S
C843 H862 0.930 . S
C844 C840 1.415 . S
C844 C845 1.437 . S
C844 C848 1.413 . S
C845 C843 1.329 . S
C845 C844 1.437 . S
C845 H867 0.929 . S
N846 C840 1.362 1_554 S
N846 C847 1.345 . S
N846 Gd851 2.622 . S
C847 N846 1.345 . S
C847 C849 1.378 . S
C847 H859 0.929 . S
C848 C844 1.413 . S
C848 C849 1.348 1_556 S
C848 H864 0.931 . S
C849 C847 1.378 . S
C849 C848 1.348 1_554 S
C849 H865 0.930 . S
Gd850 N870 2.622 . S
Gd850 N877 2.570 . S
Gd850 O884 2.353 . S
Gd850 O885 2.468 . S
Gd850 O886 2.427 . S
Gd850 O888 2.388 . S
Gd850 O889 2.386 . S
Gd850 O893 2.307 . S
Gd850 C903 2.805 . S
Gd851 N846 2.622 . S
Gd851 N852 2.570 1_554 S
Gd851 O883 2.386 . S
Gd851 O887 2.307 1_554 S
Gd851 O890 2.353 . S
Gd851 O891 2.468 1_554 S
Gd851 O892 2.427 1_554 S
Gd851 O894 2.388 . S
Gd851 C915 2.805 1_554 S
N852 C842 1.359 . S
N852 Gd851 2.570 1_556 S
N852 C854 1.343 . S
C853 C841 1.422 . S
C853 C855 1.321 . S
C853 H861 0.931 . S
C854 N852 1.343 . S
C854 C855 1.390 . S
C854 H856 0.931 . S
C855 C853 1.321 . S
C855 C854 1.390 . S
C855 H857 0.930 . S
H856 C854 0.931 . S
H857 C855 0.930 . S
H858 C881 0.931 . S
H859 C847 0.929 . S
H860 C882 0.930 . S
H861 C853 0.931 . S
H862 C843 0.930 . S
H863 C872 0.929 . S
H864 C848 0.931 . S
H865 C849 0.930 . S
H866 C904 0.930 . S
H867 C845 0.929 . S
H868 C873 0.931 . S
H869 C874 0.930 . S
N870 Gd850 2.622 . S
N870 C871 1.369 . S
N870 C872 1.338 . S
C871 N870 1.369 . S
C871 C875 1.415 . S
C871 C878 1.422 . S
C872 H863 0.929 . S
C872 N870 1.338 . S
C872 C874 1.378 . S
C873 H868 0.931 . S
C873 C874 1.348 . S
C873 C875 1.413 . S
C874 H869 0.930 . S
C874 C872 1.378 . S
C874 C873 1.348 . S
C875 C871 1.415 . S
C875 C873 1.413 . S
C875 C905 1.437 . S
H876 C905 0.929 . S
N877 Gd850 2.570 . S
N877 C878 1.359 . S
N877 C881 1.343 . S
C878 C871 1.422 . S
C878 N877 1.359 . S
C878 C880 1.421 . S
C879 C880 1.422 . S
C879 C882 1.321 . S
C879 H906 0.931 . S
C880 C878 1.421 . S
C880 C879 1.422 . S
C880 C904 1.417 . S
C881 H858 0.931 . S
C881 N877 1.343 . S
C881 C882 1.390 . S
C882 H860 0.930 . S
C882 C879 1.321 . S
C882 C881 1.390 . S
O883 Gd851 2.386 . S
O883 C895 1.265 . S
O884 Gd850 2.353 . S
O884 C895 1.242 . S
O885 Gd850 2.468 . S
O885 C903 1.263 . S
O886 Gd850 2.427 . S
O886 C903 1.252 . S
O887 Gd851 2.307 1_556 S
O887 C896 1.261 . S
O888 Gd850 2.388 . S
O888 C896 1.252 1_554 S
O889 Gd850 2.386 . S
O889 C907 1.265 . S
O890 Gd851 2.353 . S
O890 C907 1.242 . S
O891 Gd851 2.468 1_556 S
O891 C915 1.263 . S
O892 Gd851 2.427 1_556 S
O892 C915 1.252 . S
O893 Gd850 2.307 . S
O893 C908 1.261 . S
O894 Gd851 2.388 . S
O894 C908 1.252 . S
C895 O883 1.265 . S
C895 O884 1.242 . S
C896 O887 1.261 . S
C896 O888 1.252 1_556 S
C897 C900 1.394 . S
C897 C902 1.370 . S
C897 C903 1.500 . S
C898 C901 1.383 . S
C898 C902 1.395 . S
C899 C900 1.396 . S
C899 C901 1.365 . S
C899 H916 0.929 . S
C900 C897 1.394 . S
C900 C899 1.396 . S
C900 H917 0.930 . S
C901 C898 1.383 . S
C901 C899 1.365 . S
C901 H918 0.931 . S
C902 C897 1.370 . S
C902 C898 1.395 . S
C902 H919 0.930 . S
C903 Gd850 2.805 . S
C903 O885 1.263 . S
C903 O886 1.252 . S
C903 C897 1.500 . S
C904 H866 0.930 . S
C904 C880 1.417 . S
C904 C905 1.329 . S
C905 C875 1.437 . S
C905 H876 0.929 . S
C905 C904 1.329 . S
H906 C879 0.931 . S
C907 O889 1.265 . S
C907 O890 1.242 . S
C908 O893 1.261 . S
C908 O894 1.252 . S
C909 C912 1.394 . S
C909 C914 1.370 . S
C909 C915 1.500 . S
C910 C913 1.383 . S
C910 C914 1.395 . S
C911 C912 1.396 . S
C911 C913 1.365 . S
C911 H920 0.929 . S
C912 C909 1.394 . S
C912 C911 1.396 . S
C912 H921 0.930 . S
C913 C910 1.383 . S
C913 C911 1.365 . S
C913 H922 0.931 . S
C914 C909 1.370 . S
C914 C910 1.395 . S
C914 H923 0.930 . S
C915 Gd851 2.805 1_556 S
C915 O891 1.263 . S
C915 O892 1.252 . S
C915 C909 1.500 . S
H916 C899 0.929 . S
H917 C900 0.930 . S
H918 C901 0.931 . S
H919 C902 0.930 . S
H920 C911 0.929 . S
H921 C912 0.930 . S
H922 C913 0.931 . S
H923 C914 0.930 . S
C924 C926 1.422 . S
C924 C928 1.415 . S
C924 N930 1.369 . S
C925 C926 1.421 . S
C925 C927 1.417 . S
C925 C937 1.422 . S
C926 C924 1.422 . S
C926 C925 1.421 . S
C926 N936 1.359 . S
C927 C925 1.417 . S
C927 C929 1.329 . S
C927 H946 0.930 . S
C928 C924 1.415 . S
C928 C929 1.437 . S
C928 C932 1.413 . S
C929 C927 1.329 . S
C929 C928 1.437 . S
C929 H951 0.929 . S
N930 C924 1.369 . S
N930 C931 1.338 . S
N930 Gd935 2.622 . S
C931 N930 1.338 . S
C931 C933 1.378 . S
C931 H943 0.929 . S
C932 C928 1.413 . S
C932 C933 1.348 . S
C932 H948 0.931 . S
C933 C931 1.378 . S
C933 C932 1.348 . S
C933 H949 0.930 . S
Gd934 N954 2.622 . S
Gd934 N961 2.570 . S
Gd934 O968 2.353 . S
Gd934 O969 2.468 . S
Gd934 O970 2.427 . S
Gd934 O972 2.388 . S
Gd934 O973 2.386 . S
Gd934 O977 2.307 . S
Gd934 C987 2.805 . S
Gd935 N930 2.622 . S
Gd935 N936 2.570 . S
Gd935 O967 2.386 . S
Gd935 O971 2.307 . S
Gd935 O974 2.353 . S
Gd935 O975 2.468 . S
Gd935 O976 2.427 . S
Gd935 O978 2.388 . S
Gd935 C999 2.805 . S
N936 C926 1.359 . S
N936 Gd935 2.570 . S
N936 C938 1.343 . S
C937 C925 1.422 . S
C937 C939 1.321 . S
C937 H945 0.931 . S
C938 N936 1.343 . S
C938 C939 1.390 . S
C938 H940 0.931 . S
C939 C937 1.321 . S
C939 C938 1.390 . S
C939 H941 0.930 . S
H940 C938 0.931 . S
H941 C939 0.930 . S
H942 C965 0.931 . S
H943 C931 0.929 . S
H944 C966 0.930 . S
H945 C937 0.931 . S
H946 C927 0.930 . S
H947 C956 0.929 . S
H948 C932 0.931 . S
H949 C933 0.930 . S
H950 C988 0.930 . S
H951 C929 0.929 . S
H952 C957 0.931 . S
H953 C958 0.930 . S
N954 Gd934 2.622 . S
N954 C955 1.369 . S
N954 C956 1.338 . S
C955 N954 1.369 . S
C955 C959 1.415 . S
C955 C962 1.422 . S
C956 H947 0.929 . S
C956 N954 1.338 . S
C956 C958 1.378 . S
C957 H952 0.931 . S
C957 C958 1.348 . S
C957 C959 1.413 . S
C958 H953 0.930 . S
C958 C956 1.378 . S
C958 C957 1.348 . S
C959 C955 1.415 . S
C959 C957 1.413 . S
C959 C989 1.437 . S
H960 C989 0.929 . S
N961 Gd934 2.570 . S
N961 C962 1.359 . S
N961 C965 1.343 . S
C962 C955 1.422 . S
C962 N961 1.359 . S
C962 C964 1.421 . S
C963 C964 1.422 . S
C963 C966 1.321 . S
C963 H990 0.931 . S
C964 C962 1.421 . S
C964 C963 1.422 . S
C964 C988 1.417 . S
C965 H942 0.931 . S
C965 N961 1.343 . S
C965 C966 1.390 . S
C966 H944 0.930 . S
C966 C963 1.321 . S
C966 C965 1.390 . S
O967 Gd935 2.386 . S
O967 C979 1.265 . S
O968 Gd934 2.353 . S
O968 C979 1.242 . S
O969 Gd934 2.468 . S
O969 C987 1.263 . S
O970 Gd934 2.427 . S
O970 C987 1.252 . S
O971 Gd935 2.307 . S
O971 C980 1.261 . S
O972 Gd934 2.388 . S
O972 C980 1.252 . S
O973 Gd934 2.386 . S
O973 C991 1.265 . S
O974 Gd935 2.353 . S
O974 C991 1.242 . S
O975 Gd935 2.468 . S
O975 C999 1.263 . S
O976 Gd935 2.427 . S
O976 C999 1.252 . S
O977 Gd934 2.307 . S
O977 C992 1.261 . S
O978 Gd935 2.388 . S
O978 C992 1.252 . S
C979 O967 1.265 . S
C979 O968 1.242 . S
C980 O971 1.261 . S
C980 O972 1.252 . S
C981 C984 1.394 . S
C981 C986 1.370 . S
C981 C987 1.500 . S
C982 C985 1.383 1_565 S
C982 C986 1.395 . S
C983 C984 1.396 . S
C983 C985 1.365 1_565 S
C983 H1000 0.929 1_565 S
C984 C981 1.394 . S
C984 C983 1.396 . S
C984 H1001 0.930 . S
C985 C982 1.383 1_545 S
C985 C983 1.365 1_545 S
C985 H1002 0.931 . S
C986 C981 1.370 . S
C986 C982 1.395 . S
C986 H1003 0.930 . S
C987 Gd934 2.805 . S
C987 O969 1.263 . S
C987 O970 1.252 . S
C987 C981 1.500 . S
C988 H950 0.930 . S
C988 C964 1.417 . S
C988 C989 1.329 . S
C989 C959 1.437 . S
C989 H960 0.929 . S
C989 C988 1.329 . S
H990 C963 0.931 . S
C991 O973 1.265 . S
C991 O974 1.242 . S
C992 O977 1.261 . S
C992 O978 1.252 . S
C993 C996 1.394 . S
C993 C998 1.370 . S
C993 C999 1.500 . S
C994 C997 1.383 . S
C994 C998 1.395 . S
C995 C996 1.396 . S
C995 C997 1.365 . S
C995 H1004 0.929 . S
C996 C993 1.394 . S
C996 C995 1.396 . S
C996 H1005 0.930 . S
C997 C994 1.383 . S
C997 C995 1.365 . S
C997 H1006 0.931 . S
C998 C993 1.370 . S
C998 C994 1.395 . S
C998 H1007 0.930 . S
C999 Gd935 2.805 . S
C999 O975 1.263 . S
C999 O976 1.252 . S
C999 C993 1.500 . S
H1000 C983 0.929 1_545 S
H1001 C984 0.930 . S
H1002 C985 0.931 . S
H1003 C986 0.930 . S
H1004 C995 0.929 . S
H1005 C996 0.930 . S
H1006 C997 0.931 . S
H1007 C998 0.930 . S
C1008 C1010 1.422 . S
C1008 C1012 1.415 . S
C1008 N1014 1.369 . S
C1009 C1010 1.421 . S
C1009 C1011 1.417 . S
C1009 C1021 1.422 . S
C1010 C1008 1.422 . S
C1010 C1009 1.421 . S
C1010 N1020 1.359 . S
C1011 C1009 1.417 . S
C1011 C1013 1.329 . S
C1011 H1030 0.930 . S
C1012 C1008 1.415 . S
C1012 C1013 1.437 . S
C1012 C1016 1.413 . S
C1013 C1011 1.329 . S
C1013 C1012 1.437 . S
C1013 H1035 0.929 . S
N1014 C1008 1.369 . S
N1014 C1015 1.338 . S
N1014 Gd1019 2.622 . S
C1015 N1014 1.338 . S
C1015 C1017 1.378 . S
C1015 H1027 0.929 . S
C1016 C1012 1.413 . S
C1016 C1017 1.348 . S
C1016 H1032 0.931 . S
C1017 C1015 1.378 . S
C1017 C1016 1.348 . S
C1017 H1033 0.930 . S
Gd1018 N1038 2.622 . S
Gd1018 N1045 2.570 . S
Gd1018 O1052 2.353 . S
Gd1018 O1053 2.468 . S
Gd1018 O1054 2.427 . S
Gd1018 O1056 2.388 . S
Gd1018 O1057 2.386 . S
Gd1018 O1061 2.307 . S
Gd1018 C1071 2.805 . S
Gd1019 N1014 2.622 . S
Gd1019 N1020 2.570 . S
Gd1019 O1051 2.386 . S
Gd1019 O1055 2.307 . S
Gd1019 O1058 2.353 . S
Gd1019 O1059 2.468 . S
Gd1019 O1060 2.427 . S
Gd1019 O1062 2.388 . S
Gd1019 C1083 2.805 . S
N1020 C1010 1.359 . S
N1020 Gd1019 2.570 . S
N1020 C1022 1.343 . S
C1021 C1009 1.422 . S
C1021 C1023 1.321 . S
C1021 H1029 0.931 . S
C1022 N1020 1.343 . S
C1022 C1023 1.390 . S
C1022 H1024 0.931 . S
C1023 C1021 1.321 . S
C1023 C1022 1.390 . S
C1023 H1025 0.930 . S
H1024 C1022 0.931 . S
H1025 C1023 0.930 . S
H1026 C1049 0.931 . S
H1027 C1015 0.929 . S
H1028 C1050 0.930 . S
H1029 C1021 0.931 . S
H1030 C1011 0.930 . S
H1031 C1040 0.929 . S
H1032 C1016 0.931 . S
H1033 C1017 0.930 . S
H1034 C1072 0.930 . S
H1035 C1013 0.929 . S
H1036 C1041 0.931 . S
H1037 C1042 0.930 . S
N1038 Gd1018 2.622 . S
N1038 C1039 1.369 . S
N1038 C1040 1.338 . S
C1039 N1038 1.369 . S
C1039 C1043 1.415 . S
C1039 C1046 1.422 . S
C1040 H1031 0.929 . S
C1040 N1038 1.338 . S
C1040 C1042 1.378 . S
C1041 H1036 0.931 . S
C1041 C1042 1.348 . S
C1041 C1043 1.413 . S
C1042 H1037 0.930 . S
C1042 C1040 1.378 . S
C1042 C1041 1.348 . S
C1043 C1039 1.415 . S
C1043 C1041 1.413 . S
C1043 C1073 1.437 . S
H1044 C1073 0.929 . S
N1045 Gd1018 2.570 . S
N1045 C1046 1.359 . S
N1045 C1049 1.343 . S
C1046 C1039 1.422 . S
C1046 N1045 1.359 . S
C1046 C1048 1.421 . S
C1047 C1048 1.422 . S
C1047 C1050 1.321 . S
C1047 H1074 0.931 . S
C1048 C1046 1.421 . S
C1048 C1047 1.422 . S
C1048 C1072 1.417 . S
C1049 H1026 0.931 . S
C1049 N1045 1.343 . S
C1049 C1050 1.390 . S
C1050 H1028 0.930 . S
C1050 C1047 1.321 . S
C1050 C1049 1.390 . S
O1051 Gd1019 2.386 . S
O1051 C1063 1.265 . S
O1052 Gd1018 2.353 . S
O1052 C1063 1.242 . S
O1053 Gd1018 2.468 . S
O1053 C1071 1.263 . S
O1054 Gd1018 2.427 . S
O1054 C1071 1.252 . S
O1055 Gd1019 2.307 . S
O1055 C1064 1.261 . S
O1056 Gd1018 2.388 . S
O1056 C1064 1.252 . S
O1057 Gd1018 2.386 . S
O1057 C1075 1.265 . S
O1058 Gd1019 2.353 . S
O1058 C1075 1.242 . S
O1059 Gd1019 2.468 . S
O1059 C1083 1.263 . S
O1060 Gd1019 2.427 . S
O1060 C1083 1.252 . S
O1061 Gd1018 2.307 . S
O1061 C1076 1.261 . S
O1062 Gd1019 2.388 . S
O1062 C1076 1.252 . S
C1063 O1051 1.265 . S
C1063 O1052 1.242 . S
C1064 O1055 1.261 . S
C1064 O1056 1.252 . S
C1065 C1068 1.394 . S
C1065 C1070 1.370 . S
C1065 C1071 1.500 . S
C1066 C1069 1.381 1_455 S
C1066 C1070 1.398 . S
C1067 C1068 1.396 1_655 S
C1067 C1069 1.365 . S
C1067 H1084 0.929 . S
C1068 C1065 1.394 . S
C1068 C1067 1.396 1_455 S
C1068 H1085 0.930 . S
C1069 C1066 1.381 1_655 S
C1069 C1067 1.365 . S
C1069 H1086 0.931 . S
C1070 C1065 1.370 . S
C1070 C1066 1.398 . S
C1070 H1087 0.930 . S
C1071 Gd1018 2.805 . S
C1071 O1053 1.263 . S
C1071 O1054 1.252 . S
C1071 C1065 1.500 . S
C1072 H1034 0.930 . S
C1072 C1048 1.417 . S
C1072 C1073 1.329 . S
C1073 C1043 1.437 . S
C1073 H1044 0.929 . S
C1073 C1072 1.329 . S
H1074 C1047 0.931 . S
C1075 O1057 1.265 . S
C1075 O1058 1.242 . S
C1076 O1061 1.261 . S
C1076 O1062 1.252 . S
C1077 C1080 1.394 . S
C1077 C1082 1.370 . S
C1077 C1083 1.500 . S
C1078 C1081 1.383 . S
C1078 C1082 1.395 . S
C1079 C1080 1.396 . S
C1079 C1081 1.365 . S
C1079 H1088 0.929 . S
C1080 C1077 1.394 . S
C1080 C1079 1.396 . S
C1080 H1089 0.930 . S
C1081 C1078 1.383 . S
C1081 C1079 1.365 . S
C1081 H1090 0.931 . S
C1082 C1077 1.370 . S
C1082 C1078 1.395 . S
C1082 H1091 0.930 . S
C1083 Gd1019 2.805 . S
C1083 O1059 1.263 . S
C1083 O1060 1.252 . S
C1083 C1077 1.500 . S
H1084 C1067 0.929 . S
H1085 C1068 0.930 . S
H1086 C1069 0.931 . S
H1087 C1070 0.930 . S
H1088 C1079 0.929 . S
H1089 C1080 0.930 . S
H1090 C1081 0.931 . S
H1091 C1082 0.930 . S
C1092 C1094 1.422 1_455 S
C1092 C1096 1.415 . S
C1092 N1098 1.369 1_455 S
C1093 C1094 1.421 . S
C1093 C1095 1.417 1_655 S
C1093 C1105 1.422 . S
C1094 C1092 1.422 1_655 S
C1094 C1093 1.421 . S
C1094 N1104 1.359 . S
C1095 C1093 1.417 1_455 S
C1095 C1097 1.329 . S
C1095 H1114 0.930 . S
C1096 C1092 1.415 . S
C1096 C1097 1.437 . S
C1096 C1100 1.413 . S
C1097 C1095 1.329 . S
C1097 C1096 1.437 . S
C1097 H1119 0.929 . S
N1098 C1092 1.369 1_655 S
N1098 C1099 1.338 1_655 S
N1098 Gd1103 2.622 . S
C1099 N1098 1.338 1_455 S
C1099 C1101 1.378 . S
C1099 H1111 0.929 . S
C1100 C1096 1.413 . S
C1100 C1101 1.348 . S
C1100 H1116 0.931 . S
C1101 C1099 1.378 . S
C1101 C1100 1.348 . S
C1101 H1117 0.930 . S
Gd1102 N1122 2.622 . S
Gd1102 N1129 2.570 . S
Gd1102 O1136 2.353 . S
Gd1102 O1137 2.468 . S
Gd1102 O1138 2.427 . S
Gd1102 O1140 2.388 . S
Gd1102 O1141 2.386 . S
Gd1102 O1145 2.307 . S
Gd1102 C1155 2.805 . S
Gd1103 N1098 2.622 . S
Gd1103 N1104 2.570 . S
Gd1103 O1135 2.386 . S
Gd1103 O1139 2.307 . S
Gd1103 O1142 2.353 . S
Gd1103 O1143 2.468 . S
Gd1103 O1144 2.427 . S
Gd1103 O1146 2.388 . S
Gd1103 C1167 2.805 . S
N1104 C1094 1.359 . S
N1104 Gd1103 2.570 . S
N1104 C1106 1.343 . S
C1105 C1093 1.422 . S
C1105 C1107 1.321 . S
C1105 H1113 0.931 . S
C1106 N1104 1.343 . S
C1106 C1107 1.390 . S
C1106 H1108 0.931 . S
C1107 C1105 1.321 . S
C1107 C1106 1.390 . S
C1107 H1109 0.930 . S
H1108 C1106 0.931 . S
H1109 C1107 0.930 . S
H1110 C1133 0.931 . S
H1111 C1099 0.929 . S
H1112 C1134 0.930 . S
H1113 C1105 0.931 . S
H1114 C1095 0.930 . S
H1115 C1124 0.929 . S
H1116 C1100 0.931 . S
H1117 C1101 0.930 . S
H1118 C1156 0.930 . S
H1119 C1097 0.929 . S
H1120 C1125 0.931 . S
H1121 C1126 0.930 . S
N1122 Gd1102 2.622 . S
N1122 C1123 1.369 . S
N1122 C1124 1.338 . S
C1123 N1122 1.369 . S
C1123 C1127 1.415 . S
C1123 C1130 1.422 . S
C1124 H1115 0.929 . S
C1124 N1122 1.338 . S
C1124 C1126 1.378 . S
C1125 H1120 0.931 . S
C1125 C1126 1.348 . S
C1125 C1127 1.413 . S
C1126 H1121 0.930 . S
C1126 C1124 1.378 . S
C1126 C1125 1.348 . S
C1127 C1123 1.415 . S
C1127 C1125 1.413 . S
C1127 C1157 1.437 . S
H1128 C1157 0.929 . S
N1129 Gd1102 2.570 . S
N1129 C1130 1.359 . S
N1129 C1133 1.343 . S
C1130 C1123 1.422 . S
C1130 N1129 1.359 . S
C1130 C1132 1.421 . S
C1131 C1132 1.422 . S
C1131 C1134 1.321 . S
C1131 H1158 0.931 . S
C1132 C1130 1.421 . S
C1132 C1131 1.422 . S
C1132 C1156 1.417 . S
C1133 H1110 0.931 . S
C1133 N1129 1.343 . S
C1133 C1134 1.390 . S
C1134 H1112 0.930 . S
C1134 C1131 1.321 . S
C1134 C1133 1.390 . S
O1135 Gd1103 2.386 . S
O1135 C1147 1.265 . S
O1136 Gd1102 2.353 . S
O1136 C1147 1.242 . S
O1137 Gd1102 2.468 . S
O1137 C1155 1.263 . S
O1138 Gd1102 2.427 . S
O1138 C1155 1.252 . S
O1139 Gd1103 2.307 . S
O1139 C1148 1.261 . S
O1140 Gd1102 2.388 . S
O1140 C1148 1.252 . S
O1141 Gd1102 2.386 . S
O1141 C1159 1.265 . S
O1142 Gd1103 2.353 . S
O1142 C1159 1.242 . S
O1143 Gd1103 2.468 . S
O1143 C1167 1.263 . S
O1144 Gd1103 2.427 . S
O1144 C1167 1.252 . S
O1145 Gd1102 2.307 . S
O1145 C1160 1.261 . S
O1146 Gd1103 2.388 . S
O1146 C1160 1.252 . S
C1147 O1135 1.265 . S
C1147 O1136 1.242 . S
C1148 O1139 1.261 . S
C1148 O1140 1.252 . S
C1149 C1152 1.394 . S
C1149 C1154 1.370 . S
C1149 C1155 1.500 . S
C1150 C1153 1.383 . S
C1150 C1154 1.395 . S
C1151 C1152 1.396 . S
C1151 C1153 1.365 . S
C1151 H1168 0.929 . S
C1152 C1149 1.394 . S
C1152 C1151 1.396 . S
C1152 H1169 0.930 . S
C1153 C1150 1.383 . S
C1153 C1151 1.365 . S
C1153 H1170 0.931 . S
C1154 C1149 1.370 . S
C1154 C1150 1.395 . S
C1154 H1171 0.930 . S
C1155 Gd1102 2.805 . S
C1155 O1137 1.263 . S
C1155 O1138 1.252 . S
C1155 C1149 1.500 . S
C1156 H1118 0.930 . S
C1156 C1132 1.417 . S
C1156 C1157 1.329 . S
C1157 C1127 1.437 . S
C1157 H1128 0.929 . S
C1157 C1156 1.329 . S
H1158 C1131 0.931 . S
C1159 O1141 1.265 . S
C1159 O1142 1.242 . S
C1160 O1145 1.261 . S
C1160 O1146 1.252 . S
C1161 C1164 1.394 . S
C1161 C1166 1.370 . S
C1161 C1167 1.500 . S
C1162 C1165 1.383 1_565 S
C1162 C1166 1.395 . S
C1163 C1164 1.396 . S
C1163 C1165 1.365 1_565 S
C1163 H1172 0.929 1_665 S
C1164 C1161 1.394 . S
C1164 C1163 1.396 . S
C1164 H1173 0.930 . S
C1165 C1162 1.383 1_545 S
C1165 C1163 1.365 1_545 S
C1165 H1174 0.931 . S
C1166 C1161 1.370 . S
C1166 C1162 1.395 . S
C1166 H1175 0.930 . S
C1167 Gd1103 2.805 . S
C1167 O1143 1.263 . S
C1167 O1144 1.252 . S
C1167 C1161 1.500 . S
H1168 C1151 0.929 . S
H1169 C1152 0.930 . S
H1170 C1153 0.931 . S
H1171 C1154 0.930 . S
H1172 C1163 0.929 1_445 S
H1173 C1164 0.930 . S
H1174 C1165 0.931 . S
H1175 C1166 0.930 . S
C1176 C1178 1.422 . S
C1176 C1180 1.415 . S
C1176 N1182 1.369 . S
C1177 C1178 1.421 . S
C1177 C1179 1.417 . S
C1177 C1189 1.422 . S
C1178 C1176 1.422 . S
C1178 C1177 1.421 . S
C1178 N1188 1.359 . S
C1179 C1177 1.417 . S
C1179 C1181 1.329 . S
C1179 H1198 0.930 . S
C1180 C1176 1.415 . S
C1180 C1181 1.437 . S
C1180 C1184 1.413 . S
C1181 C1179 1.329 . S
C1181 C1180 1.437 . S
C1181 H1203 0.929 . S
N1182 C1176 1.369 . S
N1182 C1183 1.338 . S
N1182 Gd1187 2.622 . S
C1183 N1182 1.338 . S
C1183 C1185 1.378 . S
C1183 H1195 0.929 . S
C1184 C1180 1.413 . S
C1184 C1185 1.348 . S
C1184 H1200 0.931 . S
C1185 C1183 1.378 . S
C1185 C1184 1.348 . S
C1185 H1201 0.930 . S
Gd1186 N1206 2.622 . S
Gd1186 N1213 2.570 1_556 S
Gd1186 O1220 2.353 . S
Gd1186 O1221 2.468 1_556 S
Gd1186 O1222 2.427 1_556 S
Gd1186 O1224 2.388 . S
Gd1186 O1225 2.386 . S
Gd1186 O1229 2.307 1_556 S
Gd1186 C1239 2.805 1_556 S
Gd1187 N1182 2.622 . S
Gd1187 N1188 2.570 . S
Gd1187 O1219 2.386 . S
Gd1187 O1223 2.307 . S
Gd1187 O1226 2.353 . S
Gd1187 O1227 2.468 . S
Gd1187 O1228 2.427 . S
Gd1187 O1230 2.388 . S
Gd1187 C1251 2.805 . S
N1188 C1178 1.359 . S
N1188 Gd1187 2.570 . S
N1188 C1190 1.343 . S
C1189 C1177 1.422 . S
C1189 C1191 1.321 . S
C1189 H1197 0.931 . S
C1190 N1188 1.343 . S
C1190 C1191 1.390 . S
C1190 H1192 0.931 . S
C1191 C1189 1.321 . S
C1191 C1190 1.390 . S
C1191 H1193 0.930 . S
H1192 C1190 0.931 . S
H1193 C1191 0.930 . S
H1194 C1217 0.931 . S
H1195 C1183 0.929 . S
H1196 C1218 0.930 . S
H1197 C1189 0.931 . S
H1198 C1179 0.930 . S
H1199 C1208 0.929 . S
H1200 C1184 0.931 . S
H1201 C1185 0.930 . S
H1202 C1240 0.930 . S
H1203 C1181 0.929 . S
H1204 C1209 0.931 . S
H1205 C1210 0.930 . S
N1206 Gd1186 2.622 . S
N1206 C1207 1.362 1_556 S
N1206 C1208 1.345 . S
C1207 N1206 1.362 1_554 S
C1207 C1211 1.415 . S
C1207 C1214 1.422 . S
C1208 H1199 0.929 . S
C1208 N1206 1.345 . S
C1208 C1210 1.378 . S
C1209 H1204 0.931 . S
C1209 C1210 1.348 1_554 S
C1209 C1211 1.413 . S
C1210 H1205 0.930 . S
C1210 C1208 1.378 . S
C1210 C1209 1.348 1_556 S
C1211 C1207 1.415 . S
C1211 C1209 1.413 . S
C1211 C1241 1.437 . S
H1212 C1241 0.929 . S
N1213 Gd1186 2.570 1_554 S
N1213 C1214 1.359 . S
N1213 C1217 1.343 . S
C1214 C1207 1.422 . S
C1214 N1213 1.359 . S
C1214 C1216 1.421 . S
C1215 C1216 1.422 . S
C1215 C1218 1.321 . S
C1215 H1242 0.931 . S
C1216 C1214 1.421 . S
C1216 C1215 1.422 . S
C1216 C1240 1.417 . S
C1217 H1194 0.931 . S
C1217 N1213 1.343 . S
C1217 C1218 1.390 . S
C1218 H1196 0.930 . S
C1218 C1215 1.321 . S
C1218 C1217 1.390 . S
O1219 Gd1187 2.386 . S
O1219 C1231 1.265 . S
O1220 Gd1186 2.353 . S
O1220 C1231 1.242 . S
O1221 Gd1186 2.468 1_554 S
O1221 C1239 1.263 . S
O1222 Gd1186 2.427 1_554 S
O1222 C1239 1.252 . S
O1223 Gd1187 2.307 . S
O1223 C1232 1.261 . S
O1224 Gd1186 2.388 . S
O1224 C1232 1.252 . S
O1225 Gd1186 2.386 . S
O1225 C1243 1.265 . S
O1226 Gd1187 2.353 . S
O1226 C1243 1.242 . S
O1227 Gd1187 2.468 . S
O1227 C1251 1.263 . S
O1228 Gd1187 2.427 . S
O1228 C1251 1.252 . S
O1229 Gd1186 2.307 1_554 S
O1229 C1244 1.261 . S
O1230 Gd1187 2.388 . S
O1230 C1244 1.252 1_556 S
C1231 O1219 1.265 . S
C1231 O1220 1.242 . S
C1232 O1223 1.261 . S
C1232 O1224 1.252 . S
C1233 C1236 1.394 . S
C1233 C1238 1.370 . S
C1233 C1239 1.500 . S
C1234 C1237 1.383 . S
C1234 C1238 1.395 . S
C1235 C1236 1.396 . S
C1235 C1237 1.365 . S
C1235 H1252 0.929 . S
C1236 C1233 1.394 . S
C1236 C1235 1.396 . S
C1236 H1253 0.930 . S
C1237 C1234 1.383 . S
C1237 C1235 1.365 . S
C1237 H1254 0.931 . S
C1238 C1233 1.370 . S
C1238 C1234 1.395 . S
C1238 H1255 0.930 . S
C1239 Gd1186 2.805 1_554 S
C1239 O1221 1.263 . S
C1239 O1222 1.252 . S
C1239 C1233 1.500 . S
C1240 H1202 0.930 . S
C1240 C1216 1.417 . S
C1240 C1241 1.329 . S
C1241 C1211 1.437 . S
C1241 H1212 0.929 . S
C1241 C1240 1.329 . S
H1242 C1215 0.931 . S
C1243 O1225 1.265 . S
C1243 O1226 1.242 . S
C1244 O1229 1.261 . S
C1244 O1230 1.252 1_554 S
C1245 C1248 1.394 . S
C1245 C1250 1.370 . S
C1245 C1251 1.500 . S
C1246 C1249 1.383 . S
C1246 C1250 1.395 . S
C1247 C1248 1.396 . S
C1247 C1249 1.365 . S
C1247 H1256 0.929 . S
C1248 C1245 1.394 . S
C1248 C1247 1.396 . S
C1248 H1257 0.930 . S
C1249 C1246 1.383 . S
C1249 C1247 1.365 . S
C1249 H1258 0.931 . S
C1250 C1245 1.370 . S
C1250 C1246 1.395 . S
C1250 H1259 0.930 . S
C1251 Gd1187 2.805 . S
C1251 O1227 1.263 . S
C1251 O1228 1.252 . S
C1251 C1245 1.500 . S
H1252 C1235 0.929 . S
H1253 C1236 0.930 . S
H1254 C1237 0.931 . S
H1255 C1238 0.930 . S
H1256 C1247 0.929 . S
H1257 C1248 0.930 . S
H1258 C1249 0.931 . S
H1259 C1250 0.930 . S
C1260 C1262 1.422 . S
C1260 C1264 1.415 . S
C1260 N1266 1.369 . S
C1261 C1262 1.421 . S
C1261 C1263 1.417 . S
C1261 C1273 1.422 . S
C1262 C1260 1.422 . S
C1262 C1261 1.421 . S
C1262 N1272 1.359 . S
C1263 C1261 1.417 . S
C1263 C1265 1.329 . S
C1263 H1282 0.930 . S
C1264 C1260 1.415 . S
C1264 C1265 1.437 . S
C1264 C1268 1.413 . S
C1265 C1263 1.329 . S
C1265 C1264 1.437 . S
C1265 H1287 0.929 . S
N1266 C1260 1.369 . S
N1266 C1267 1.338 . S
N1266 Gd1271 2.622 . S
C1267 N1266 1.338 . S
C1267 C1269 1.378 . S
C1267 H1279 0.929 . S
C1268 C1264 1.413 . S
C1268 C1269 1.348 . S
C1268 H1284 0.931 . S
C1269 C1267 1.378 . S
C1269 C1268 1.348 . S
C1269 H1285 0.930 . S
Gd1270 N1290 2.622 . S
Gd1270 N1297 2.570 . S
Gd1270 O1304 2.353 . S
Gd1270 O1305 2.468 . S
Gd1270 O1306 2.427 . S
Gd1270 O1308 2.388 . S
Gd1270 O1309 2.386 . S
Gd1270 O1313 2.307 . S
Gd1270 C1323 2.805 . S
Gd1271 N1266 2.622 . S
Gd1271 N1272 2.570 . S
Gd1271 O1303 2.386 . S
Gd1271 O1307 2.307 . S
Gd1271 O1310 2.353 . S
Gd1271 O1311 2.468 . S
Gd1271 O1312 2.427 . S
Gd1271 O1314 2.388 . S
Gd1271 C1335 2.805 . S
N1272 C1262 1.359 . S
N1272 Gd1271 2.570 . S
N1272 C1274 1.343 . S
C1273 C1261 1.422 . S
C1273 C1275 1.321 . S
C1273 H1281 0.931 . S
C1274 N1272 1.343 . S
C1274 C1275 1.390 . S
C1274 H1276 0.931 . S
C1275 C1273 1.321 . S
C1275 C1274 1.390 . S
C1275 H1277 0.930 . S
H1276 C1274 0.931 . S
H1277 C1275 0.930 . S
H1278 C1301 0.931 . S
H1279 C1267 0.929 . S
H1280 C1302 0.930 . S
H1281 C1273 0.931 . S
H1282 C1263 0.930 . S
H1283 C1292 0.929 . S
H1284 C1268 0.931 . S
H1285 C1269 0.930 . S
H1286 C1324 0.930 . S
H1287 C1265 0.929 . S
H1288 C1293 0.931 . S
H1289 C1294 0.930 . S
N1290 Gd1270 2.622 . S
N1290 C1291 1.369 . S
N1290 C1292 1.338 . S
C1291 N1290 1.369 . S
C1291 C1295 1.415 . S
C1291 C1298 1.422 . S
C1292 H1283 0.929 . S
C1292 N1290 1.338 . S
C1292 C1294 1.378 . S
C1293 H1288 0.931 . S
C1293 C1294 1.348 . S
C1293 C1295 1.413 . S
C1294 H1289 0.930 . S
C1294 C1292 1.378 . S
C1294 C1293 1.348 . S
C1295 C1291 1.415 . S
C1295 C1293 1.413 . S
C1295 C1325 1.437 . S
H1296 C1325 0.929 . S
N1297 Gd1270 2.570 . S
N1297 C1298 1.359 . S
N1297 C1301 1.343 . S
C1298 C1291 1.422 . S
C1298 N1297 1.359 . S
C1298 C1300 1.421 . S
C1299 C1300 1.422 . S
C1299 C1302 1.321 . S
C1299 H1326 0.931 . S
C1300 C1298 1.421 . S
C1300 C1299 1.422 . S
C1300 C1324 1.417 . S
C1301 H1278 0.931 . S
C1301 N1297 1.343 . S
C1301 C1302 1.390 . S
C1302 H1280 0.930 . S
C1302 C1299 1.321 . S
C1302 C1301 1.390 . S
O1303 Gd1271 2.386 . S
O1303 C1315 1.265 . S
O1304 Gd1270 2.353 . S
O1304 C1315 1.242 . S
O1305 Gd1270 2.468 . S
O1305 C1323 1.263 . S
O1306 Gd1270 2.427 . S
O1306 C1323 1.252 . S
O1307 Gd1271 2.307 . S
O1307 C1316 1.261 . S
O1308 Gd1270 2.388 . S
O1308 C1316 1.252 . S
O1309 Gd1270 2.386 . S
O1309 C1327 1.265 . S
O1310 Gd1271 2.353 . S
O1310 C1327 1.242 . S
O1311 Gd1271 2.468 . S
O1311 C1335 1.263 . S
O1312 Gd1271 2.427 . S
O1312 C1335 1.252 . S
O1313 Gd1270 2.307 . S
O1313 C1328 1.261 . S
O1314 Gd1271 2.388 . S
O1314 C1328 1.252 . S
C1315 O1303 1.265 . S
C1315 O1304 1.242 . S
C1316 O1307 1.261 . S
C1316 O1308 1.252 . S
C1317 C1320 1.394 . S
C1317 C1322 1.370 . S
C1317 C1323 1.500 . S
C1318 C1321 1.383 . S
C1318 C1322 1.395 . S
C1319 C1320 1.396 . S
C1319 C1321 1.365 . S
C1319 H1336 0.929 . S
C1320 C1317 1.394 . S
C1320 C1319 1.396 . S
C1320 H1337 0.930 . S
C1321 C1318 1.383 . S
C1321 C1319 1.365 . S
C1321 H1338 0.931 . S
C1322 C1317 1.370 . S
C1322 C1318 1.395 . S
C1322 H1339 0.930 . S
C1323 Gd1270 2.805 . S
C1323 O1305 1.263 . S
C1323 O1306 1.252 . S
C1323 C1317 1.500 . S
C1324 H1286 0.930 . S
C1324 C1300 1.417 . S
C1324 C1325 1.329 . S
C1325 C1295 1.437 . S
C1325 H1296 0.929 . S
C1325 C1324 1.329 . S
H1326 C1299 0.931 . S
C1327 O1309 1.265 . S
C1327 O1310 1.242 . S
C1328 O1313 1.261 . S
C1328 O1314 1.252 . S
C1329 C1332 1.394 . S
C1329 C1334 1.370 . S
C1329 C1335 1.500 . S
C1330 C1333 1.383 1_545 S
C1330 C1334 1.395 . S
C1331 C1332 1.396 . S
C1331 C1333 1.365 1_545 S
C1331 H1340 0.929 1_545 S
C1332 C1329 1.394 . S
C1332 C1331 1.396 . S
C1332 H1341 0.930 . S
C1333 C1330 1.383 1_565 S
C1333 C1331 1.365 1_565 S
C1333 H1342 0.931 . S
C1334 C1329 1.370 . S
C1334 C1330 1.395 . S
C1334 H1343 0.930 . S
C1335 Gd1271 2.805 . S
C1335 O1311 1.263 . S
C1335 O1312 1.252 . S
C1335 C1329 1.500 . S
H1336 C1319 0.929 . S
H1337 C1320 0.930 . S
H1338 C1321 0.931 . S
H1339 C1322 0.930 . S
H1340 C1331 0.929 1_565 S
H1341 C1332 0.930 . S
H1342 C1333 0.931 . S
H1343 C1334 0.930 . S
H1344 C1350 0.930 . S
H1345 C1353 0.930 . S
H1346 C1354 0.930 1_556 S
H1347 C1355 0.930 . S
H1348 C1358 0.930 . S
H1349 C1359 0.930 . S
C1350 H1344 0.930 . S
C1350 C1351 1.355 . S
C1350 C1352 1.415 . S
C1351 C1350 1.355 . S
C1351 C1353 1.419 . S
C1352 C1350 1.415 . S
C1352 C1357 1.425 . S
C1352 C1359 1.409 . S
C1353 H1345 0.930 . S
C1353 C1351 1.419 . S
C1353 C1354 1.362 . S
C1354 H1346 0.930 1_554 S
C1354 C1353 1.362 . S
C1354 C1357 1.409 . S
C1355 H1347 0.930 . S
C1355 C1356 1.355 . S
C1355 C1357 1.415 . S
C1356 C1355 1.355 . S
C1356 C1358 1.419 . S
C1357 C1352 1.425 . S
C1357 C1354 1.409 . S
C1357 C1355 1.415 . S
C1358 H1348 0.930 . S
C1358 C1356 1.419 . S
C1358 C1359 1.362 . S
C1359 H1349 0.930 . S
C1359 C1352 1.409 . S
C1359 C1358 1.362 . S
H1360 C1366 0.930 . S
H1361 C1369 0.930 . S
H1362 C1370 0.930 . S
H1363 C1371 0.930 . S
H1364 C1374 0.930 . S
H1365 C1375 0.930 . S
C1366 H1360 0.930 . S
C1366 C1367 1.355 . S
C1366 C1368 1.415 . S
C1367 C1366 1.355 . S
C1367 C1369 1.419 . S
C1368 C1366 1.415 . S
C1368 C1373 1.425 . S
C1368 C1375 1.409 . S
C1369 H1361 0.930 . S
C1369 C1367 1.419 . S
C1369 C1370 1.362 . S
C1370 H1362 0.930 . S
C1370 C1369 1.362 . S
C1370 C1373 1.409 . S
C1371 H1363 0.930 . S
C1371 C1372 1.355 . S
C1371 C1373 1.415 . S
C1372 C1371 1.355 . S
C1372 C1374 1.419 . S
C1373 C1368 1.425 . S
C1373 C1370 1.409 . S
C1373 C1371 1.415 . S
C1374 H1364 0.930 . S
C1374 C1372 1.419 . S
C1374 C1375 1.362 . S
C1375 H1365 0.930 . S
C1375 C1368 1.409 . S
C1375 C1374 1.362 . S
H1376 C1382 0.930 1_655 S
H1377 C1385 0.930 . S
H1378 C1386 0.930 . S
H1379 C1387 0.930 1_455 S
H1380 C1390 0.930 . S
H1381 C1391 0.930 . S
C1382 H1376 0.930 1_455 S
C1382 C1383 1.355 . S
C1382 C1384 1.415 1_455 S
C1383 C1382 1.355 . S
C1383 C1385 1.419 . S
C1384 C1382 1.415 1_655 S
C1384 C1389 1.425 1_655 S
C1384 C1391 1.409 . S
C1385 H1377 0.930 . S
C1385 C1383 1.419 . S
C1385 C1386 1.362 . S
C1386 H1378 0.930 . S
C1386 C1385 1.362 . S
C1386 C1389 1.409 . S
C1387 H1379 0.930 1_655 S
C1387 C1388 1.355 . S
C1387 C1389 1.415 1_655 S
C1388 C1387 1.355 . S
C1388 C1390 1.419 . S
C1389 C1384 1.425 1_455 S
C1389 C1386 1.409 . S
C1389 C1387 1.415 1_455 S
C1390 H1380 0.930 . S
C1390 C1388 1.419 . S
C1390 C1391 1.362 . S
C1391 H1381 0.930 . S
C1391 C1384 1.409 . S
C1391 C1390 1.362 . S
H1392 C1398 0.930 . S
H1393 C1401 0.930 . S
H1394 C1402 0.930 . S
H1395 C1403 0.930 . S
H1396 C1406 0.930 . S
H1397 C1407 0.930 . S
C1398 H1392 0.930 . S
C1398 C1399 1.355 . S
C1398 C1400 1.415 1_655 S
C1399 C1398 1.355 . S
C1399 C1401 1.419 . S
C1400 C1398 1.415 1_455 S
C1400 C1405 1.425 1_455 S
C1400 C1407 1.409 . S
C1401 H1393 0.930 . S
C1401 C1399 1.419 . S
C1401 C1402 1.362 . S
C1402 H1394 0.930 . S
C1402 C1401 1.362 . S
C1402 C1405 1.409 . S
C1403 H1395 0.930 . S
C1403 C1404 1.355 . S
C1403 C1405 1.415 1_455 S
C1404 C1403 1.355 . S
C1404 C1406 1.419 . S
C1405 C1400 1.425 1_655 S
C1405 C1402 1.409 . S
C1405 C1403 1.415 1_655 S
C1406 H1396 0.930 . S
C1406 C1404 1.419 . S
C1406 C1407 1.362 . S
C1407 H1397 0.930 . S
C1407 C1400 1.409 . S
C1407 C1406 1.362 . S
H1408 C1414 0.930 . S
H1409 C1417 0.930 . S
H1410 C1418 0.930 . S
H1411 C1419 0.930 . S
H1412 C1422 0.930 . S
H1413 C1423 0.930 1_554 S
C1414 H1408 0.930 . S
C1414 C1415 1.355 . S
C1414 C1416 1.415 . S
C1415 C1414 1.355 . S
C1415 C1417 1.419 . S
C1416 C1414 1.415 . S
C1416 C1421 1.425 . S
C1416 C1423 1.409 . S
C1417 H1409 0.930 . S
C1417 C1415 1.419 . S
C1417 C1418 1.362 . S
C1418 H1410 0.930 . S
C1418 C1417 1.362 . S
C1418 C1421 1.409 . S
C1419 H1411 0.930 . S
C1419 C1420 1.355 . S
C1419 C1421 1.415 . S
C1420 C1419 1.355 . S
C1420 C1422 1.419 . S
C1421 C1416 1.425 . S
C1421 C1418 1.409 . S
C1421 C1419 1.415 . S
C1422 H1412 0.930 . S
C1422 C1420 1.419 . S
C1422 C1423 1.362 . S
C1423 H1413 0.930 1_556 S
C1423 C1416 1.409 . S
C1423 C1422 1.362 . S
H1424 C1430 0.930 . S
H1425 C1433 0.930 . S
H1426 C1434 0.930 . S
H1427 C1435 0.930 . S
H1428 C1438 0.930 . S
H1429 C1439 0.930 . S
C1430 H1424 0.930 . S
C1430 C1431 1.355 . S
C1430 C1432 1.415 . S
C1431 C1430 1.355 . S
C1431 C1433 1.419 . S
C1432 C1430 1.415 . S
C1432 C1437 1.425 . S
C1432 C1439 1.409 . S
C1433 H1425 0.930 . S
C1433 C1431 1.419 . S
C1433 C1434 1.362 . S
C1434 H1426 0.930 . S
C1434 C1433 1.362 . S
C1434 C1437 1.409 . S
C1435 H1427 0.930 . S
C1435 C1436 1.355 . S
C1435 C1437 1.415 . S
C1436 C1435 1.355 . S
C1436 C1438 1.419 . S
C1437 C1432 1.425 . S
C1437 C1434 1.409 . S
C1437 C1435 1.415 . S
C1438 H1428 0.930 . S
C1438 C1436 1.419 . S
C1438 C1439 1.362 . S
C1439 H1429 0.930 . S
C1439 C1432 1.409 . S
C1439 C1438 1.362 . S
H1440 C1446 0.930 . S
H1441 C1449 0.930 . S
H1442 C1450 0.930 . S
H1443 C1451 0.930 . S
H1444 C1454 0.930 . S
H1445 C1455 0.930 . S
C1446 H1440 0.930 . S
C1446 C1447 1.355 . S
C1446 C1448 1.415 . S
C1447 C1446 1.355 . S
C1447 C1449 1.419 . S
C1448 C1446 1.415 . S
C1448 C1453 1.425 1_655 S
C1448 C1455 1.409 . S
C1449 H1441 0.930 . S
C1449 C1447 1.419 . S
C1449 C1450 1.362 1_655 S
C1450 H1442 0.930 . S
C1450 C1449 1.362 1_455 S
C1450 C1453 1.409 . S
C1451 H1443 0.930 . S
C1451 C1452 1.355 . S
C1451 C1453 1.415 . S
C1452 C1451 1.355 . S
C1452 C1454 1.419 . S
C1453 C1448 1.425 1_455 S
C1453 C1450 1.409 . S
C1453 C1451 1.415 . S
C1454 H1444 0.930 . S
C1454 C1452 1.419 . S
C1454 C1455 1.362 1_455 S
C1455 H1445 0.930 . S
C1455 C1448 1.409 . S
C1455 C1454 1.362 1_655 S
H1456 C1462 0.930 . S
H1457 C1465 0.930 . S
H1458 C1466 0.930 . S
H1459 C1467 0.930 . S
H1460 C1470 0.930 . S
H1461 C1471 0.930 . S
C1462 H1456 0.930 . S
C1462 C1463 1.355 . S
C1462 C1464 1.415 . S
C1463 C1462 1.355 . S
C1463 C1465 1.419 . S
C1464 C1462 1.415 . S
C1464 C1469 1.425 1_455 S
C1464 C1471 1.409 1_455 S
C1465 H1457 0.930 . S
C1465 C1463 1.419 . S
C1465 C1466 1.362 . S
C1466 H1458 0.930 . S
C1466 C1465 1.362 . S
C1466 C1469 1.409 1_455 S
C1467 H1459 0.930 . S
C1467 C1468 1.355 . S
C1467 C1469 1.415 . S
C1468 C1467 1.355 . S
C1468 C1470 1.419 . S
C1469 C1464 1.425 1_655 S
C1469 C1466 1.409 1_655 S
C1469 C1467 1.415 . S
C1470 H1460 0.930 . S
C1470 C1468 1.419 . S
C1470 C1471 1.362 . S
C1471 H1461 0.930 . S
C1471 C1464 1.409 1_655 S
C1471 C1470 1.362 . S
H1472 C1478 0.930 . S
H1473 C1481 0.930 . S
H1474 C1482 0.930 . S
H1475 C1483 0.917 1_554 S
H1476 C1486 0.930 . S
H1477 C1487 0.930 . S
C1478 H1472 0.930 . S
C1478 C1479 1.355 . S
C1478 C1480 1.415 . S
C1479 C1478 1.355 . S
C1479 C1481 1.419 . S
C1480 C1478 1.415 . S
C1480 C1485 1.425 . S
C1480 C1487 1.409 . S
C1481 H1473 0.930 . S
C1481 C1479 1.419 . S
C1481 C1482 1.362 . S
C1482 H1474 0.930 . S
C1482 C1481 1.362 . S
C1482 C1485 1.409 . S
C1483 H1475 0.917 1_556 S
C1483 C1484 1.355 . S
C1483 C1485 1.415 . S
C1484 C1483 1.355 . S
C1484 C1486 1.419 . S
C1485 C1480 1.425 . S
C1485 C1482 1.409 . S
C1485 C1483 1.415 . S
C1486 H1476 0.930 . S
C1486 C1484 1.419 . S
C1486 C1487 1.362 . S
C1487 H1477 0.930 . S
C1487 C1480 1.409 . S
C1487 C1486 1.362 . S
H1488 C1494 0.930 . S
H1489 C1497 0.930 . S
H1490 C1498 0.930 . S
H1491 C1499 0.930 . S
H1492 C1502 0.930 . S
H1493 C1503 0.930 . S
C1494 H1488 0.930 . S
C1494 C1495 1.355 . S
C1494 C1496 1.415 . S
C1495 C1494 1.355 . S
C1495 C1497 1.419 . S
C1496 C1494 1.415 . S
C1496 C1501 1.425 . S
C1496 C1503 1.409 . S
C1497 H1489 0.930 . S
C1497 C1495 1.419 . S
C1497 C1498 1.362 . S
C1498 H1490 0.930 . S
C1498 C1497 1.362 . S
C1498 C1501 1.409 . S
C1499 H1491 0.930 . S
C1499 C1500 1.355 . S
C1499 C1501 1.415 . S
C1500 C1499 1.355 . S
C1500 C1502 1.419 . S
C1501 C1496 1.425 . S
C1501 C1498 1.409 . S
C1501 C1499 1.415 . S
C1502 H1492 0.930 . S
C1502 C1500 1.419 . S
C1502 C1503 1.362 . S
C1503 H1493 0.930 . S
C1503 C1496 1.409 . S
C1503 C1502 1.362 . S
H1504 C1510 0.930 . S
H1505 C1513 0.930 . S
H1506 C1514 0.930 . S
H1507 C1515 0.930 . S
H1508 C1518 0.930 . S
H1509 C1519 0.930 . S
C1510 H1504 0.930 . S
C1510 C1511 1.355 . S
C1510 C1512 1.415 . S
C1511 C1510 1.355 . S
C1511 C1513 1.419 . S
C1512 C1510 1.415 . S
C1512 C1517 1.425 . S
C1512 C1519 1.409 . S
C1513 H1505 0.930 . S
C1513 C1511 1.419 . S
C1513 C1514 1.362 . S
C1514 H1506 0.930 . S
C1514 C1513 1.362 . S
C1514 C1517 1.409 . S
C1515 H1507 0.930 . S
C1515 C1516 1.355 . S
C1515 C1517 1.415 . S
C1516 C1515 1.355 . S
C1516 C1518 1.419 . S
C1517 C1512 1.425 . S
C1517 C1514 1.409 . S
C1517 C1515 1.415 . S
C1518 H1508 0.930 . S
C1518 C1516 1.419 . S
C1518 C1519 1.362 . S
C1519 H1509 0.930 . S
C1519 C1512 1.409 . S
C1519 C1518 1.362 . S
H1520 C1526 0.930 . S
H1521 C1529 0.930 . S
H1522 C1530 0.930 . S
H1523 C1531 0.930 . S
H1524 C1534 0.930 . S
H1525 C1535 0.930 . S
C1526 H1520 0.930 . S
C1526 C1527 1.355 . S
C1526 C1528 1.415 . S
C1527 C1526 1.355 . S
C1527 C1529 1.419 . S
C1528 C1526 1.415 . S
C1528 C1533 1.425 . S
C1528 C1535 1.409 . S
C1529 H1521 0.930 . S
C1529 C1527 1.419 . S
C1529 C1530 1.362 . S
C1530 H1522 0.930 . S
C1530 C1529 1.362 . S
C1530 C1533 1.409 . S
C1531 H1523 0.930 . S
C1531 C1532 1.355 . S
C1531 C1533 1.415 . S
C1532 C1531 1.355 . S
C1532 C1534 1.419 . S
C1533 C1528 1.425 . S
C1533 C1530 1.409 . S
C1533 C1531 1.415 . S
C1534 H1524 0.930 . S
C1534 C1532 1.419 . S
C1534 C1535 1.362 . S
C1535 H1525 0.930 . S
C1535 C1528 1.409 . S
C1535 C1534 1.362 . S
H1536 C1542 0.930 . S
H1537 C1545 0.930 . S
H1538 C1546 0.930 . S
H1539 C1547 0.930 . S
H1540 C1550 0.930 . S
H1541 C1551 0.930 . S
C1542 H1536 0.930 . S
C1542 C1543 1.355 . S
C1542 C1544 1.415 . S
C1543 C1542 1.355 . S
C1543 C1545 1.419 . S
C1544 C1542 1.415 . S
C1544 C1549 1.425 . S
C1544 C1551 1.409 . S
C1545 H1537 0.930 . S
C1545 C1543 1.419 . S
C1545 C1546 1.362 . S
C1546 H1538 0.930 . S
C1546 C1545 1.362 . S
C1546 C1549 1.409 . S
C1547 H1539 0.930 . S
C1547 C1548 1.355 . S
C1547 C1549 1.415 . S
C1548 C1547 1.355 . S
C1548 C1550 1.419 . S
C1549 C1544 1.425 . S
C1549 C1546 1.409 . S
C1549 C1547 1.415 . S
C1550 H1540 0.930 . S
C1550 C1548 1.419 . S
C1550 C1551 1.362 . S
C1551 H1541 0.930 . S
C1551 C1544 1.409 . S
C1551 C1550 1.362 . S
H1552 C1558 0.930 . S
H1553 C1561 0.930 . S
H1554 C1562 0.930 . S
H1555 C1563 0.930 . S
H1556 C1566 0.930 . S
H1557 C1567 0.930 . S
C1558 H1552 0.930 . S
C1558 C1559 1.355 . S
C1558 C1560 1.415 . S
C1559 C1558 1.355 . S
C1559 C1561 1.419 . S
C1560 C1558 1.415 . S
C1560 C1565 1.425 . S
C1560 C1567 1.409 . S
C1561 H1553 0.930 . S
C1561 C1559 1.419 . S
C1561 C1562 1.362 . S
C1562 H1554 0.930 . S
C1562 C1561 1.362 . S
C1562 C1565 1.409 . S
C1563 H1555 0.930 . S
C1563 C1564 1.355 . S
C1563 C1565 1.415 . S
C1564 C1563 1.355 . S
C1564 C1566 1.419 . S
C1565 C1560 1.425 . S
C1565 C1562 1.409 . S
C1565 C1563 1.415 . S
C1566 H1556 0.930 . S
C1566 C1564 1.419 . S
C1566 C1567 1.362 . S
C1567 H1557 0.930 . S
C1567 C1560 1.409 . S
C1567 C1566 1.362 . S
H1568 C1574 0.930 . S
H1569 C1577 0.930 . S
H1570 C1578 0.930 . S
H1571 C1579 0.930 . S
H1572 C1582 0.930 . S
H1573 C1583 0.930 . S
C1574 H1568 0.930 . S
C1574 C1575 1.355 . S
C1574 C1576 1.415 . S
C1575 C1574 1.355 . S
C1575 C1577 1.419 . S
C1576 C1574 1.415 . S
C1576 C1581 1.425 . S
C1576 C1583 1.409 . S
C1577 H1569 0.930 . S
C1577 C1575 1.419 . S
C1577 C1578 1.362 . S
C1578 H1570 0.930 . S
C1578 C1577 1.362 . S
C1578 C1581 1.409 . S
C1579 H1571 0.930 . S
C1579 C1580 1.355 . S
C1579 C1581 1.415 . S
C1580 C1579 1.355 . S
C1580 C1582 1.419 . S
C1581 C1576 1.425 . S
C1581 C1578 1.409 . S
C1581 C1579 1.415 . S
C1582 H1572 0.930 . S
C1582 C1580 1.419 . S
C1582 C1583 1.362 . S
C1583 H1573 0.930 . S
C1583 C1576 1.409 . S
C1583 C1582 1.362 . S
H1584 C1590 0.930 . S
H1585 C1593 0.930 . S
H1586 C1594 0.930 . S
H1587 C1595 0.930 . S
H1588 C1598 0.930 . S
H1589 C1599 0.930 . S
C1590 H1584 0.930 . S
C1590 C1591 1.355 . S
C1590 C1592 1.415 . S
C1591 C1590 1.355 . S
C1591 C1593 1.419 . S
C1592 C1590 1.415 . S
C1592 C1597 1.425 . S
C1592 C1599 1.409 . S
C1593 H1585 0.930 . S
C1593 C1591 1.419 . S
C1593 C1594 1.362 . S
C1594 H1586 0.930 . S
C1594 C1593 1.362 . S
C1594 C1597 1.409 . S
C1595 H1587 0.930 . S
C1595 C1596 1.355 . S
C1595 C1597 1.415 . S
C1596 C1595 1.355 . S
C1596 C1598 1.419 . S
C1597 C1592 1.425 . S
C1597 C1594 1.409 . S
C1597 C1595 1.415 . S
C1598 H1588 0.930 . S
C1598 C1596 1.419 . S
C1598 C1599 1.362 . S
C1599 H1589 0.930 . S
C1599 C1592 1.409 . S
C1599 C1598 1.362 . S
H1600 C1606 0.930 . S
H1601 C1609 0.930 . S
H1602 C1610 0.930 . S
H1603 C1611 0.930 . S
H1604 C1614 0.930 . S
H1605 C1615 0.930 . S
C1606 H1600 0.930 . S
C1606 C1607 1.355 . S
C1606 C1608 1.415 . S
C1607 C1606 1.355 . S
C1607 C1609 1.419 . S
C1608 C1606 1.415 . S
C1608 C1613 1.425 . S
C1608 C1615 1.409 . S
C1609 H1601 0.930 . S
C1609 C1607 1.419 . S
C1609 C1610 1.362 . S
C1610 H1602 0.930 . S
C1610 C1609 1.362 . S
C1610 C1613 1.409 . S
C1611 H1603 0.930 . S
C1611 C1612 1.355 . S
C1611 C1613 1.415 . S
C1612 C1611 1.355 . S
C1612 C1614 1.419 . S
C1613 C1608 1.425 . S
C1613 C1610 1.409 . S
C1613 C1611 1.415 . S
C1614 H1604 0.930 . S
C1614 C1612 1.419 . S
C1614 C1615 1.362 . S
C1615 H1605 0.930 . S
C1615 C1608 1.409 . S
C1615 C1614 1.362 . S
H1616 C1622 0.930 . S
H1617 C1625 0.930 . S
H1618 C1626 0.930 . S
H1619 C1627 0.930 . S
H1620 C1630 0.930 . S
H1621 C1631 0.930 . S
C1622 H1616 0.930 . S
C1622 C1623 1.355 1_565 S
C1622 C1624 1.415 . S
C1623 C1622 1.355 1_545 S
C1623 C1625 1.419 . S
C1624 C1622 1.415 . S
C1624 C1629 1.425 . S
C1624 C1631 1.409 . S
C1625 H1617 0.930 . S
C1625 C1623 1.419 . S
C1625 C1626 1.362 1_545 S
C1626 H1618 0.930 . S
C1626 C1625 1.362 1_565 S
C1626 C1629 1.409 . S
C1627 H1619 0.930 . S
C1627 C1628 1.355 . S
C1627 C1629 1.415 . S
C1628 C1627 1.355 . S
C1628 C1630 1.419 . S
C1629 C1624 1.425 . S
C1629 C1626 1.409 . S
C1629 C1627 1.415 . S
C1630 H1620 0.930 . S
C1630 C1628 1.419 . S
C1630 C1631 1.362 . S
C1631 H1621 0.930 . S
C1631 C1624 1.409 . S
C1631 C1630 1.362 . S
H1632 C1638 0.930 . S
H1633 C1641 0.930 . S
H1634 C1642 0.930 . S
H1635 C1643 0.930 . S
H1636 C1646 0.930 . S
H1637 C1647 0.930 . S
C1638 H1632 0.930 . S
C1638 C1639 1.355 . S
C1638 C1640 1.415 . S
C1639 C1638 1.355 . S
C1639 C1641 1.419 . S
C1640 C1638 1.415 . S
C1640 C1645 1.425 . S
C1640 C1647 1.409 . S
C1641 H1633 0.930 . S
C1641 C1639 1.419 . S
C1641 C1642 1.362 . S
C1642 H1634 0.930 . S
C1642 C1641 1.362 . S
C1642 C1645 1.409 . S
C1643 H1635 0.930 . S
C1643 C1644 1.355 . S
C1643 C1645 1.415 . S
C1644 C1643 1.355 . S
C1644 C1646 1.419 . S
C1645 C1640 1.425 . S
C1645 C1642 1.409 . S
C1645 C1643 1.415 . S
C1646 H1636 0.930 . S
C1646 C1644 1.419 . S
C1646 C1647 1.362 . S
C1647 H1637 0.930 . S
C1647 C1640 1.409 . S
C1647 C1646 1.362 . S
H1648 C1654 0.928 1_565 S
H1649 C1657 0.930 . S
H1650 C1658 0.930 . S
H1651 C1659 0.930 . S
H1652 C1662 0.930 . S
H1653 C1663 0.930 . S
C1654 H1648 0.928 1_545 S
C1654 C1655 1.350 1_545 S
C1654 C1656 1.421 . S
C1655 C1654 1.350 1_565 S
C1655 C1657 1.419 . S
C1656 C1654 1.421 . S
C1656 C1661 1.425 . S
C1656 C1663 1.409 . S
C1657 H1649 0.930 . S
C1657 C1655 1.419 . S
C1657 C1658 1.362 1_565 S
C1658 H1650 0.930 . S
C1658 C1657 1.362 1_545 S
C1658 C1661 1.409 . S
C1659 H1651 0.930 . S
C1659 C1660 1.355 . S
C1659 C1661 1.415 . S
C1660 C1659 1.355 . S
C1660 C1662 1.419 . S
C1661 C1656 1.425 . S
C1661 C1658 1.409 . S
C1661 C1659 1.415 . S
C1662 H1652 0.930 . S
C1662 C1660 1.419 . S
C1662 C1663 1.362 . S
C1663 H1653 0.930 . S
C1663 C1656 1.409 . S
C1663 C1662 1.362 . S
H1664 C1670 0.930 . S
H1665 C1673 0.930 . S
H1666 C1674 0.930 . S
H1667 C1675 0.930 . S
H1668 C1678 0.930 . S
H1669 C1679 0.930 . S
C1670 H1664 0.930 . S
C1670 C1671 1.355 . S
C1670 C1672 1.415 . S
C1671 C1670 1.355 . S
C1671 C1673 1.419 . S
C1672 C1670 1.415 . S
C1672 C1677 1.425 . S
C1672 C1679 1.409 . S
C1673 H1665 0.930 . S
C1673 C1671 1.419 . S
C1673 C1674 1.362 . S
C1674 H1666 0.930 . S
C1674 C1673 1.362 . S
C1674 C1677 1.409 . S
C1675 H1667 0.930 . S
C1675 C1676 1.355 . S
C1675 C1677 1.415 . S
C1676 C1675 1.355 . S
C1676 C1678 1.419 . S
C1677 C1672 1.425 . S
C1677 C1674 1.409 . S
C1677 C1675 1.415 . S
C1678 H1668 0.930 . S
C1678 C1676 1.419 . S
C1678 C1679 1.362 . S
C1679 H1669 0.930 . S
C1679 C1672 1.409 . S
C1679 C1678 1.362 . S
H1680 C1686 0.930 . S
H1681 C1689 0.930 . S
H1682 C1690 0.930 . S
H1683 C1691 0.930 . S
H1684 C1694 0.930 . S
H1685 C1695 0.930 . S
C1686 H1680 0.930 . S
C1686 C1687 1.355 . S
C1686 C1688 1.415 . S
C1687 C1686 1.355 . S
C1687 C1689 1.419 . S
C1688 C1686 1.415 . S
C1688 C1693 1.425 . S
C1688 C1695 1.409 . S
C1689 H1681 0.930 . S
C1689 C1687 1.419 . S
C1689 C1690 1.362 . S
C1690 H1682 0.930 . S
C1690 C1689 1.362 . S
C1690 C1693 1.409 . S
C1691 H1683 0.930 . S
C1691 C1692 1.355 . S
C1691 C1693 1.415 1_565 S
C1692 C1691 1.355 . S
C1692 C1694 1.419 . S
C1693 C1688 1.425 . S
C1693 C1690 1.409 . S
C1693 C1691 1.415 1_545 S
C1694 H1684 0.930 . S
C1694 C1692 1.419 . S
C1694 C1695 1.362 1_565 S
C1695 H1685 0.930 . S
C1695 C1688 1.409 . S
C1695 C1694 1.362 1_545 S
H1696 C1702 0.930 . S
H1697 C1705 0.930 . S
H1698 C1706 0.930 . S
H1699 C1707 0.930 . S
H1700 C1710 0.930 1_556 S
H1701 C1711 0.930 . S
C1702 H1696 0.930 . S
C1702 C1703 1.355 . S
C1702 C1704 1.415 . S
C1703 C1702 1.355 . S
C1703 C1705 1.419 . S
C1704 C1702 1.415 . S
C1704 C1709 1.425 . S
C1704 C1711 1.409 . S
C1705 H1697 0.930 . S
C1705 C1703 1.419 . S
C1705 C1706 1.362 . S
C1706 H1698 0.930 . S
C1706 C1705 1.362 . S
C1706 C1709 1.409 . S
C1707 H1699 0.930 . S
C1707 C1708 1.355 . S
C1707 C1709 1.415 . S
C1708 C1707 1.355 . S
C1708 C1710 1.419 . S
C1709 C1704 1.425 . S
C1709 C1706 1.409 . S
C1709 C1707 1.415 . S
C1710 H1700 0.930 1_554 S
C1710 C1708 1.419 . S
C1710 C1711 1.362 . S
C1711 H1701 0.930 . S
C1711 C1704 1.409 . S
C1711 C1710 1.362 . S
H1712 C1718 0.930 . S
H1713 C1721 0.930 . S
H1714 C1722 0.929 1_545 S
H1715 C1723 0.930 . S
H1716 C1726 0.930 . S
H1717 C1727 0.930 . S
C1718 H1712 0.930 . S
C1718 C1719 1.355 1_565 S
C1718 C1720 1.415 . S
C1719 C1718 1.355 1_545 S
C1719 C1721 1.419 . S
C1720 C1718 1.415 . S
C1720 C1725 1.425 . S
C1720 C1727 1.409 . S
C1721 H1713 0.930 . S
C1721 C1719 1.419 . S
C1721 C1722 1.355 1_545 S
C1722 H1714 0.929 1_565 S
C1722 C1721 1.355 1_565 S
C1722 C1725 1.418 . S
C1723 H1715 0.930 . S
C1723 C1724 1.355 . S
C1723 C1725 1.415 . S
C1724 C1723 1.355 . S
C1724 C1726 1.419 . S
C1725 C1720 1.425 . S
C1725 C1722 1.418 . S
C1725 C1723 1.415 . S
C1726 H1716 0.930 . S
C1726 C1724 1.419 . S
C1726 C1727 1.362 . S
C1727 H1717 0.930 . S
C1727 C1720 1.409 . S
C1727 C1726 1.362 . S
H1728 C1734 0.930 . S
H1729 C1737 0.930 . S
H1730 C1738 0.930 . S
H1731 C1739 0.930 . S
H1732 C1742 0.930 . S
H1733 C1743 0.930 . S
C1734 H1728 0.930 . S
C1734 C1735 1.355 . S
C1734 C1736 1.415 . S
C1735 C1734 1.355 . S
C1735 C1737 1.419 . S
C1736 C1734 1.415 . S
C1736 C1741 1.425 . S
C1736 C1743 1.409 . S
C1737 H1729 0.930 . S
C1737 C1735 1.419 . S
C1737 C1738 1.362 . S
C1738 H1730 0.930 . S
C1738 C1737 1.362 . S
C1738 C1741 1.409 . S
C1739 H1731 0.930 . S
C1739 C1740 1.355 . S
C1739 C1741 1.415 . S
C1740 C1739 1.355 . S
C1740 C1742 1.419 . S
C1741 C1736 1.425 . S
C1741 C1738 1.409 . S
C1741 C1739 1.415 . S
C1742 H1732 0.930 . S
C1742 C1740 1.419 . S
C1742 C1743 1.362 . S
C1743 H1733 0.930 . S
C1743 C1736 1.409 . S
C1743 C1742 1.362 . S
H1744 C1750 0.930 . S
H1745 C1753 0.930 . S
H1746 C1754 0.930 . S
H1747 C1755 0.930 . S
H1748 C1758 0.930 1_556 S
H1749 C1759 0.930 . S
C1750 H1744 0.930 . S
C1750 C1751 1.355 . S
C1750 C1752 1.415 . S
C1751 C1750 1.355 . S
C1751 C1753 1.419 . S
C1752 C1750 1.415 . S
C1752 C1757 1.425 . S
C1752 C1759 1.409 . S
C1753 H1745 0.930 . S
C1753 C1751 1.419 . S
C1753 C1754 1.362 . S
C1754 H1746 0.930 . S
C1754 C1753 1.362 . S
C1754 C1757 1.409 . S
C1755 H1747 0.930 . S
C1755 C1756 1.355 . S
C1755 C1757 1.415 . S
C1756 C1755 1.355 . S
C1756 C1758 1.419 . S
C1757 C1752 1.425 . S
C1757 C1754 1.409 . S
C1757 C1755 1.415 . S
C1758 H1748 0.930 1_554 S
C1758 C1756 1.419 . S
C1758 C1759 1.362 . S
C1759 H1749 0.930 . S
C1759 C1752 1.409 . S
C1759 C1758 1.362 . S
H1760 C1766 0.930 . S
H1761 C1769 0.930 . S
H1762 C1770 0.930 . S
H1763 C1771 0.930 . S
H1764 C1774 0.930 1_455 S
H1765 C1775 0.930 . S
C1766 H1760 0.930 . S
C1766 C1767 1.355 . S
C1766 C1768 1.415 . S
C1767 C1766 1.355 . S
C1767 C1769 1.419 . S
C1768 C1766 1.415 . S
C1768 C1773 1.425 . S
C1768 C1775 1.409 . S
C1769 H1761 0.930 . S
C1769 C1767 1.419 . S
C1769 C1770 1.362 . S
C1770 H1762 0.930 . S
C1770 C1769 1.362 . S
C1770 C1773 1.409 . S
C1771 H1763 0.930 . S
C1771 C1772 1.355 . S
C1771 C1773 1.415 . S
C1772 C1771 1.355 . S
C1772 C1774 1.419 . S
C1773 C1768 1.425 . S
C1773 C1770 1.409 . S
C1773 C1771 1.415 . S
C1774 H1764 0.930 1_655 S
C1774 C1772 1.419 . S
C1774 C1775 1.362 . S
C1775 H1765 0.930 . S
C1775 C1768 1.409 . S
C1775 C1774 1.362 . S
H1776 C1782 0.930 . S
H1777 C1785 0.930 . S
H1778 C1786 0.930 . S
H1779 C1787 0.930 . S
H1780 C1790 0.930 . S
H1781 C1791 0.930 . S
C1782 H1776 0.930 . S
C1782 C1783 1.355 . S
C1782 C1784 1.415 . S
C1783 C1782 1.355 . S
C1783 C1785 1.419 . S
C1784 C1782 1.415 . S
C1784 C1789 1.425 . S
C1784 C1791 1.409 . S
C1785 H1777 0.930 . S
C1785 C1783 1.419 . S
C1785 C1786 1.362 . S
C1786 H1778 0.930 . S
C1786 C1785 1.362 . S
C1786 C1789 1.409 . S
C1787 H1779 0.930 . S
C1787 C1788 1.355 . S
C1787 C1789 1.415 . S
C1788 C1787 1.355 . S
C1788 C1790 1.419 . S
C1789 C1784 1.425 . S
C1789 C1786 1.409 . S
C1789 C1787 1.415 . S
C1790 H1780 0.930 . S
C1790 C1788 1.419 . S
C1790 C1791 1.362 . S
C1791 H1781 0.930 . S
C1791 C1784 1.409 . S
C1791 C1790 1.362 . S
H1792 C1798 0.930 . S
H1793 C1801 0.930 . S
H1794 C1802 0.930 . S
H1795 C1803 0.930 . S
H1796 C1806 0.930 . S
H1797 C1807 0.930 . S
C1798 H1792 0.930 . S
C1798 C1799 1.355 . S
C1798 C1800 1.415 . S
C1799 C1798 1.355 . S
C1799 C1801 1.419 . S
C1800 C1798 1.415 . S
C1800 C1805 1.425 . S
C1800 C1807 1.409 . S
C1801 H1793 0.930 . S
C1801 C1799 1.419 . S
C1801 C1802 1.362 . S
C1802 H1794 0.930 . S
C1802 C1801 1.362 . S
C1802 C1805 1.409 . S
C1803 H1795 0.930 . S
C1803 C1804 1.355 . S
C1803 C1805 1.415 . S
C1804 C1803 1.355 . S
C1804 C1806 1.419 . S
C1805 C1800 1.425 . S
C1805 C1802 1.409 . S
C1805 C1803 1.415 . S
C1806 H1796 0.930 . S
C1806 C1804 1.419 . S
C1806 C1807 1.362 . S
C1807 H1797 0.930 . S
C1807 C1800 1.409 . S
C1807 C1806 1.362 . S
H1808 C1814 0.930 . S
H1809 C1817 0.930 . S
H1810 C1818 0.930 . S
H1811 C1819 0.930 . S
H1812 C1822 0.930 . S
H1813 C1823 0.930 . S
C1814 H1808 0.930 . S
C1814 C1815 1.355 . S
C1814 C1816 1.415 . S
C1815 C1814 1.355 . S
C1815 C1817 1.419 . S
C1816 C1814 1.415 . S
C1816 C1821 1.425 . S
C1816 C1823 1.409 . S
C1817 H1809 0.930 . S
C1817 C1815 1.419 . S
C1817 C1818 1.362 . S
C1818 H1810 0.930 . S
C1818 C1817 1.362 . S
C1818 C1821 1.409 . S
C1819 H1811 0.930 . S
C1819 C1820 1.355 . S
C1819 C1821 1.415 . S
C1820 C1819 1.355 . S
C1820 C1822 1.419 . S
C1821 C1816 1.425 . S
C1821 C1818 1.409 . S
C1821 C1819 1.415 . S
C1822 H1812 0.930 . S
C1822 C1820 1.419 . S
C1822 C1823 1.362 . S
C1823 H1813 0.930 . S
C1823 C1816 1.409 . S
C1823 C1822 1.362 . S
H1824 C1830 0.930 . S
H1825 C1833 0.930 . S
H1826 C1834 0.930 . S
H1827 C1835 0.930 . S
H1828 C1838 0.930 . S
H1829 C1839 0.930 . S
C1830 H1824 0.930 . S
C1830 C1831 1.355 . S
C1830 C1832 1.415 . S
C1831 C1830 1.355 . S
C1831 C1833 1.419 . S
C1832 C1830 1.415 . S
C1832 C1837 1.425 . S
C1832 C1839 1.409 . S
C1833 H1825 0.930 . S
C1833 C1831 1.419 . S
C1833 C1834 1.362 1_455 S
C1834 H1826 0.930 . S
C1834 C1833 1.362 1_655 S
C1834 C1837 1.409 1_655 S
C1835 H1827 0.930 . S
C1835 C1836 1.355 1_655 S
C1835 C1837 1.415 1_655 S
C1836 C1835 1.355 1_455 S
C1836 C1838 1.419 . S
C1837 C1832 1.425 . S
C1837 C1834 1.409 1_455 S
C1837 C1835 1.415 1_455 S
C1838 H1828 0.930 . S
C1838 C1836 1.419 . S
C1838 C1839 1.362 . S
C1839 H1829 0.930 . S
C1839 C1832 1.409 . S
C1839 C1838 1.362 . S
H1840 C1846 0.930 . S
H1841 C1849 0.930 . S
H1842 C1850 0.930 . S
H1843 C1851 0.930 . S
H1844 C1854 0.930 . S
H1845 C1855 0.930 . S
C1846 H1840 0.930 . S
C1846 C1847 1.355 . S
C1846 C1848 1.415 . S
C1847 C1846 1.355 . S
C1847 C1849 1.419 . S
C1848 C1846 1.415 . S
C1848 C1853 1.425 . S
C1848 C1855 1.409 . S
C1849 H1841 0.930 . S
C1849 C1847 1.419 . S
C1849 C1850 1.362 . S
C1850 H1842 0.930 . S
C1850 C1849 1.362 . S
C1850 C1853 1.409 . S
C1851 H1843 0.930 . S
C1851 C1852 1.355 . S
C1851 C1853 1.415 . S
C1852 C1851 1.355 . S
C1852 C1854 1.419 . S
C1853 C1848 1.425 . S
C1853 C1850 1.409 . S
C1853 C1851 1.415 . S
C1854 H1844 0.930 . S
C1854 C1852 1.419 . S
C1854 C1855 1.362 . S
C1855 H1845 0.930 . S
C1855 C1848 1.409 . S
C1855 C1854 1.362 . S
H1856 C1862 0.914 1_655 S
H1857 C1865 0.930 . S
H1858 C1866 0.930 . S
H1859 C1867 0.930 . S
H1860 C1870 0.930 . S
H1861 C1871 0.930 1_655 S
C1862 H1856 0.914 1_455 S
C1862 C1863 1.359 . S
C1862 C1864 1.426 . S
C1863 C1862 1.359 . S
C1863 C1865 1.419 . S
C1864 C1862 1.426 . S
C1864 C1869 1.425 . S
C1864 C1871 1.409 . S
C1865 H1857 0.930 . S
C1865 C1863 1.419 . S
C1865 C1866 1.362 . S
C1866 H1858 0.930 . S
C1866 C1865 1.362 . S
C1866 C1869 1.409 . S
C1867 H1859 0.930 . S
C1867 C1868 1.355 . S
C1867 C1869 1.415 . S
C1868 C1867 1.355 . S
C1868 C1870 1.419 . S
C1869 C1864 1.425 . S
C1869 C1866 1.409 . S
C1869 C1867 1.415 . S
C1870 H1860 0.930 . S
C1870 C1868 1.419 . S
C1870 C1871 1.362 . S
C1871 H1861 0.930 1_455 S
C1871 C1864 1.409 . S
C1871 C1870 1.362 . S
H1872 C1878 0.930 . S
H1873 C1881 0.930 . S
H1874 C1882 0.930 . S
H1875 C1883 0.930 . S
H1876 C1886 0.930 . S
H1877 C1887 0.930 . S
C1878 H1872 0.930 . S
C1878 C1879 1.355 . S
C1878 C1880 1.415 . S
C1879 C1878 1.355 . S
C1879 C1881 1.419 . S
C1880 C1878 1.415 . S
C1880 C1885 1.425 . S
C1880 C1887 1.409 . S
C1881 H1873 0.930 . S
C1881 C1879 1.419 . S
C1881 C1882 1.362 . S
C1882 H1874 0.930 . S
C1882 C1881 1.362 . S
C1882 C1885 1.409 . S
C1883 H1875 0.930 . S
C1883 C1884 1.355 . S
C1883 C1885 1.415 . S
C1884 C1883 1.355 . S
C1884 C1886 1.419 . S
C1885 C1880 1.425 . S
C1885 C1882 1.409 . S
C1885 C1883 1.415 . S
C1886 H1876 0.930 . S
C1886 C1884 1.419 . S
C1886 C1887 1.362 . S
C1887 H1877 0.930 . S
C1887 C1880 1.409 . S
C1887 C1886 1.362 . S
H1888 C1894 0.930 . S
H1889 C1897 0.930 . S
H1890 C1898 0.930 . S
H1891 C1899 0.930 . S
H1892 C1902 0.930 . S
H1893 C1903 0.930 . S
C1894 H1888 0.930 . S
C1894 C1895 1.355 . S
C1894 C1896 1.415 . S
C1895 C1894 1.355 . S
C1895 C1897 1.419 . S
C1896 C1894 1.415 . S
C1896 C1901 1.425 . S
C1896 C1903 1.409 . S
C1897 H1889 0.930 . S
C1897 C1895 1.419 . S
C1897 C1898 1.362 . S
C1898 H1890 0.930 . S
C1898 C1897 1.362 . S
C1898 C1901 1.409 . S
C1899 H1891 0.930 . S
C1899 C1900 1.355 . S
C1899 C1901 1.415 . S
C1900 C1899 1.355 . S
C1900 C1902 1.419 . S
C1901 C1896 1.425 . S
C1901 C1898 1.409 . S
C1901 C1899 1.415 . S
C1902 H1892 0.930 . S
C1902 C1900 1.419 . S
C1902 C1903 1.362 . S
C1903 H1893 0.930 . S
C1903 C1896 1.409 . S
C1903 C1902 1.362 . S
H1904 C1910 0.930 . S
H1905 C1913 0.930 . S
H1906 C1914 0.930 . S
H1907 C1915 0.930 . S
H1908 C1918 0.930 . S
H1909 C1919 0.930 . S
C1910 H1904 0.930 . S
C1910 C1911 1.355 . S
C1910 C1912 1.415 . S
C1911 C1910 1.355 . S
C1911 C1913 1.419 . S
C1912 C1910 1.415 . S
C1912 C1917 1.425 . S
C1912 C1919 1.409 . S
C1913 H1905 0.930 . S
C1913 C1911 1.419 . S
C1913 C1914 1.362 . S
C1914 H1906 0.930 . S
C1914 C1913 1.362 . S
C1914 C1917 1.409 . S
C1915 H1907 0.930 . S
C1915 C1916 1.355 . S
C1915 C1917 1.415 . S
C1916 C1915 1.355 . S
C1916 C1918 1.419 . S
C1917 C1912 1.425 . S
C1917 C1914 1.409 . S
C1917 C1915 1.415 . S
C1918 H1908 0.930 . S
C1918 C1916 1.419 . S
C1918 C1919 1.362 . S
C1919 H1909 0.930 . S
C1919 C1912 1.409 . S
C1919 C1918 1.362 . S
H1920 C1926 0.930 . S
H1921 C1929 0.930 . S
H1922 C1930 0.930 . S
H1923 C1931 0.930 . S
H1924 C1934 0.930 . S
H1925 C1935 0.930 . S
C1926 H1920 0.930 . S
C1926 C1927 1.355 1_455 S
C1926 C1928 1.415 1_455 S
C1927 C1926 1.355 1_655 S
C1927 C1929 1.419 . S
C1928 C1926 1.415 1_655 S
C1928 C1933 1.425 . S
C1928 C1935 1.409 1_655 S
C1929 H1921 0.930 . S
C1929 C1927 1.419 . S
C1929 C1930 1.362 . S
C1930 H1922 0.930 . S
C1930 C1929 1.362 . S
C1930 C1933 1.409 . S
C1931 H1923 0.930 . S
C1931 C1932 1.355 . S
C1931 C1933 1.415 . S
C1932 C1931 1.355 . S
C1932 C1934 1.419 . S
C1933 C1928 1.425 . S
C1933 C1930 1.409 . S
C1933 C1931 1.415 . S
C1934 H1924 0.930 . S
C1934 C1932 1.419 . S
C1934 C1935 1.362 1_655 S
C1935 H1925 0.930 . S
C1935 C1928 1.409 1_455 S
C1935 C1934 1.362 1_455 S
H1936 C1942 0.930 . S
H1937 C1945 0.930 . S
H1938 C1946 0.930 . S
H1939 C1947 0.930 . S
H1940 C1950 0.930 . S
H1941 C1951 0.930 . S
C1942 H1936 0.930 . S
C1942 C1943 1.355 . S
C1942 C1944 1.415 . S
C1943 C1942 1.355 . S
C1943 C1945 1.419 . S
C1944 C1942 1.415 . S
C1944 C1949 1.425 . S
C1944 C1951 1.409 . S
C1945 H1937 0.930 . S
C1945 C1943 1.419 . S
C1945 C1946 1.362 . S
C1946 H1938 0.930 . S
C1946 C1945 1.362 . S
C1946 C1949 1.409 . S
C1947 H1939 0.930 . S
C1947 C1948 1.355 . S
C1947 C1949 1.415 . S
C1948 C1947 1.355 . S
C1948 C1950 1.419 . S
C1949 C1944 1.425 . S
C1949 C1946 1.409 . S
C1949 C1947 1.415 . S
C1950 H1940 0.930 . S
C1950 C1948 1.419 . S
C1950 C1951 1.362 . S
C1951 H1941 0.930 . S
C1951 C1944 1.409 . S
C1951 C1950 1.362 . S
H1952 C1958 0.930 . S
H1953 C1961 0.930 . S
H1954 C1962 0.930 . S
H1955 C1963 0.930 . S
H1956 C1966 0.930 . S
H1957 C1967 0.930 . S
C1958 H1952 0.930 . S
C1958 C1959 1.355 . S
C1958 C1960 1.415 . S
C1959 C1958 1.355 . S
C1959 C1961 1.419 . S
C1960 C1958 1.415 . S
C1960 C1965 1.425 . S
C1960 C1967 1.409 . S
C1961 H1953 0.930 . S
C1961 C1959 1.419 . S
C1961 C1962 1.362 . S
C1962 H1954 0.930 . S
C1962 C1961 1.362 . S
C1962 C1965 1.409 . S
C1963 H1955 0.930 . S
C1963 C1964 1.355 . S
C1963 C1965 1.415 . S
C1964 C1963 1.355 . S
C1964 C1966 1.419 . S
C1965 C1960 1.425 . S
C1965 C1962 1.409 . S
C1965 C1963 1.415 . S
C1966 H1956 0.930 . S
C1966 C1964 1.419 . S
C1966 C1967 1.362 . S
C1967 H1957 0.930 . S
C1967 C1960 1.409 . S
C1967 C1966 1.362 . S
H1968 C1974 0.930 . S
H1969 C1977 0.930 . S
H1970 C1978 0.930 . S
H1971 C1979 0.930 . S
H1972 C1982 0.930 . S
H1973 C1983 0.930 . S
C1974 H1968 0.930 . S
C1974 C1975 1.355 . S
C1974 C1976 1.415 . S
C1975 C1974 1.355 . S
C1975 C1977 1.419 . S
C1976 C1974 1.415 . S
C1976 C1981 1.425 . S
C1976 C1983 1.409 . S
C1977 H1969 0.930 . S
C1977 C1975 1.419 . S
C1977 C1978 1.362 . S
C1978 H1970 0.930 . S
C1978 C1977 1.362 . S
C1978 C1981 1.409 . S
C1979 H1971 0.930 . S
C1979 C1980 1.355 . S
C1979 C1981 1.415 . S
C1980 C1979 1.355 . S
C1980 C1982 1.419 . S
C1981 C1976 1.425 . S
C1981 C1978 1.409 . S
C1981 C1979 1.415 . S
C1982 H1972 0.930 . S
C1982 C1980 1.419 . S
C1982 C1983 1.362 . S
C1983 H1973 0.930 . S
C1983 C1976 1.409 . S
C1983 C1982 1.362 . S
H1984 C1990 0.930 . S
H1985 C1993 0.930 . S
H1986 C1994 0.930 . S
H1987 C1995 0.930 . S
H1988 C1998 0.930 . S
H1989 C1999 0.930 . S
C1990 H1984 0.930 . S
C1990 C1991 1.355 . S
C1990 C1992 1.415 . S
C1991 C1990 1.355 . S
C1991 C1993 1.419 . S
C1992 C1990 1.415 . S
C1992 C1997 1.425 . S
C1992 C1999 1.409 . S
C1993 H1985 0.930 . S
C1993 C1991 1.419 . S
C1993 C1994 1.362 . S
C1994 H1986 0.930 . S
C1994 C1993 1.362 . S
C1994 C1997 1.409 . S
C1995 H1987 0.930 . S
C1995 C1996 1.355 . S
C1995 C1997 1.415 . S
C1996 C1995 1.355 . S
C1996 C1998 1.419 . S
C1997 C1992 1.425 . S
C1997 C1994 1.409 . S
C1997 C1995 1.415 . S
C1998 H1988 0.930 . S
C1998 C1996 1.419 . S
C1998 C1999 1.362 . S
C1999 H1989 0.930 . S
C1999 C1992 1.409 . S
C1999 C1998 1.362 . S
H2000 C2006 0.930 . S
H2001 C2009 0.930 . S
H2002 C2010 0.930 . S
H2003 C2011 0.930 . S
H2004 C2014 0.930 . S
H2005 C2015 0.930 . S
C2006 H2000 0.930 . S
C2006 C2007 1.355 . S
C2006 C2008 1.415 . S
C2007 C2006 1.355 . S
C2007 C2009 1.419 . S
C2008 C2006 1.415 . S
C2008 C2013 1.425 . S
C2008 C2015 1.409 . S
C2009 H2001 0.930 . S
C2009 C2007 1.419 . S
C2009 C2010 1.362 . S
C2010 H2002 0.930 . S
C2010 C2009 1.362 . S
C2010 C2013 1.409 . S
C2011 H2003 0.930 . S
C2011 C2012 1.355 . S
C2011 C2013 1.415 . S
C2012 C2011 1.355 . S
C2012 C2014 1.419 . S
C2013 C2008 1.425 . S
C2013 C2010 1.409 . S
C2013 C2011 1.415 . S
C2014 H2004 0.930 . S
C2014 C2012 1.419 . S
C2014 C2015 1.362 . S
C2015 H2005 0.930 . S
C2015 C2008 1.409 . S
C2015 C2014 1.362 . S
H2016 C2022 0.930 . S
H2017 C2025 0.930 . S
H2018 C2026 0.930 . S
H2019 C2027 0.930 . S
H2020 C2030 0.930 . S
H2021 C2031 0.930 . S
C2022 H2016 0.930 . S
C2022 C2023 1.355 . S
C2022 C2024 1.415 . S
C2023 C2022 1.355 . S
C2023 C2025 1.419 . S
C2024 C2022 1.415 . S
C2024 C2029 1.425 . S
C2024 C2031 1.409 . S
C2025 H2017 0.930 . S
C2025 C2023 1.419 . S
C2025 C2026 1.362 . S
C2026 H2018 0.930 . S
C2026 C2025 1.362 . S
C2026 C2029 1.409 . S
C2027 H2019 0.930 . S
C2027 C2028 1.355 . S
C2027 C2029 1.415 . S
C2028 C2027 1.355 . S
C2028 C2030 1.419 . S
C2029 C2024 1.425 . S
C2029 C2026 1.409 . S
C2029 C2027 1.415 . S
C2030 H2020 0.930 . S
C2030 C2028 1.419 . S
C2030 C2031 1.362 . S
C2031 H2021 0.930 . S
C2031 C2024 1.409 . S
C2031 C2030 1.362 . S
H2032 C2038 0.930 . S
H2033 C2041 0.930 . S
H2034 C2042 0.930 1_655 S
H2035 C2043 0.930 . S
H2036 C2046 0.930 . S
H2037 C2047 0.930 1_455 S
C2038 H2032 0.930 . S
C2038 C2039 1.355 . S
C2038 C2040 1.405 1_554 S
C2039 C2038 1.355 . S
C2039 C2041 1.419 . S
C2040 C2038 1.405 1_556 S
C2040 C2045 1.425 1_456 S
C2040 C2047 1.419 1_455 S
C2041 H2033 0.930 . S
C2041 C2039 1.419 . S
C2041 C2042 1.362 . S
C2042 H2034 0.930 1_455 S
C2042 C2041 1.362 . S
C2042 C2045 1.419 1_455 S
C2043 H2035 0.930 . S
C2043 C2044 1.355 . S
C2043 C2045 1.405 1_556 S
C2044 C2043 1.355 . S
C2044 C2046 1.419 . S
C2045 C2040 1.425 1_654 S
C2045 C2042 1.419 1_655 S
C2045 C2043 1.405 1_554 S
C2046 H2036 0.930 . S
C2046 C2044 1.419 . S
C2046 C2047 1.362 . S
C2047 H2037 0.930 1_655 S
C2047 C2040 1.419 1_655 S
C2047 C2046 1.362 . S
H2048 C2054 0.930 . S
H2049 C2057 0.930 . S
H2050 C2058 0.930 . S
H2051 C2059 0.930 . S
H2052 C2062 0.930 . S
H2053 C2063 0.930 . S
C2054 H2048 0.930 . S
C2054 C2055 1.355 . S
C2054 C2056 1.415 . S
C2055 C2054 1.355 . S
C2055 C2057 1.419 . S
C2056 C2054 1.415 . S
C2056 C2061 1.425 . S
C2056 C2063 1.409 . S
C2057 H2049 0.930 . S
C2057 C2055 1.419 . S
C2057 C2058 1.362 . S
C2058 H2050 0.930 . S
C2058 C2057 1.362 . S
C2058 C2061 1.409 . S
C2059 H2051 0.930 . S
C2059 C2060 1.355 . S
C2059 C2061 1.415 . S
C2060 C2059 1.355 . S
C2060 C2062 1.419 . S
C2061 C2056 1.425 . S
C2061 C2058 1.409 . S
C2061 C2059 1.415 . S
C2062 H2052 0.930 . S
C2062 C2060 1.419 . S
C2062 C2063 1.362 . S
C2063 H2053 0.930 . S
C2063 C2056 1.409 . S
C2063 C2062 1.362 . S
H2064 C2070 0.930 . S
H2065 C2073 0.930 . S
H2066 C2074 0.930 . S
H2067 C2075 0.930 . S
H2068 C2078 0.930 . S
H2069 C2079 0.930 . S
C2070 H2064 0.930 . S
C2070 C2071 1.355 . S
C2070 C2072 1.415 . S
C2071 C2070 1.355 . S
C2071 C2073 1.419 . S
C2072 C2070 1.415 . S
C2072 C2077 1.425 . S
C2072 C2079 1.409 . S
C2073 H2065 0.930 . S
C2073 C2071 1.419 . S
C2073 C2074 1.362 . S
C2074 H2066 0.930 . S
C2074 C2073 1.362 . S
C2074 C2077 1.409 . S
C2075 H2067 0.930 . S
C2075 C2076 1.355 . S
C2075 C2077 1.415 . S
C2076 C2075 1.355 . S
C2076 C2078 1.419 . S
C2077 C2072 1.425 . S
C2077 C2074 1.409 . S
C2077 C2075 1.415 . S
C2078 H2068 0.930 . S
C2078 C2076 1.419 . S
C2078 C2079 1.362 . S
C2079 H2069 0.930 . S
C2079 C2072 1.409 . S
C2079 C2078 1.362 . S
H2080 C2086 0.930 . S
H2081 C2089 0.930 . S
H2082 C2090 0.930 . S
H2083 C2091 0.930 . S
H2084 C2094 0.930 . S
H2085 C2095 0.930 . S
C2086 H2080 0.930 . S
C2086 C2087 1.355 1_565 S
C2086 C2088 1.415 1_556 S
C2087 C2086 1.355 1_545 S
C2087 C2089 1.419 . S
C2088 C2086 1.415 1_554 S
C2088 C2093 1.425 1_464 S
C2088 C2095 1.409 . S
C2089 H2081 0.930 . S
C2089 C2087 1.419 . S
C2089 C2090 1.362 1_455 S
C2090 H2082 0.930 . S
C2090 C2089 1.362 1_655 S
C2090 C2093 1.409 . S
C2091 H2083 0.930 . S
C2091 C2092 1.355 1_545 S
C2091 C2093 1.415 1_554 S
C2092 C2091 1.355 1_565 S
C2092 C2094 1.419 . S
C2093 C2088 1.425 1_646 S
C2093 C2090 1.409 . S
C2093 C2091 1.415 1_556 S
C2094 H2084 0.930 . S
C2094 C2092 1.419 . S
C2094 C2095 1.362 1_655 S
C2095 H2085 0.930 . S
C2095 C2088 1.409 . S
C2095 C2094 1.362 1_455 S
H2096 C2102 0.930 . S
H2097 C2105 0.930 . S
H2098 C2106 0.930 . S
H2099 C2107 0.930 . S
H2100 C2110 0.930 . S
H2101 C2111 0.930 . S
C2102 H2096 0.930 . S
C2102 C2103 1.355 1_565 S
C2102 C2104 1.415 . S
C2103 C2102 1.355 1_545 S
C2103 C2105 1.419 . S
C2104 C2102 1.415 . S
C2104 C2109 1.425 1_565 S
C2104 C2111 1.409 . S
C2105 H2097 0.930 . S
C2105 C2103 1.419 . S
C2105 C2106 1.362 . S
C2106 H2098 0.930 . S
C2106 C2105 1.362 . S
C2106 C2109 1.409 . S
C2107 H2099 0.930 . S
C2107 C2108 1.355 1_545 S
C2107 C2109 1.415 . S
C2108 C2107 1.355 1_565 S
C2108 C2110 1.419 . S
C2109 C2104 1.425 1_545 S
C2109 C2106 1.409 . S
C2109 C2107 1.415 . S
C2110 H2100 0.930 . S
C2110 C2108 1.419 . S
C2110 C2111 1.362 . S
C2111 H2101 0.930 . S
C2111 C2104 1.409 . S
C2111 C2110 1.362 . S
C1351 C67 2.220 . S
C1356 C907 2.250 . S
C1367 C151 2.262 . S
C1372 C991 2.269 . S
C1383 C235 2.227 . S
C1388 C739 2.207 . S
C1399 C319 2.246 . S
C1404 C823 2.269 . S
C1415 C391 2.235 . S
C1420 C1231 2.210 . S
C1431 C475 2.269 . S
C1436 C1315 2.247 . S
C1447 C559 2.261 . S
C1452 C1063 2.231 . S
C1463 C643 2.249 . S
C1468 C1147 2.218 . S
C1479 C824 3.534 . S
C1484 C55 3.543 1_556 S
C1495 C908 3.508 . S
C1500 C139 3.560 . S
C1511 C992 3.509 . S
C1516 C223 3.561 . S
C1527 C740 3.526 . S
C1532 C307 3.553 . S
C1543 C403 3.544 1_554 S
C1548 C1148 3.526 . S
C1559 C1232 3.509 . S
C1564 C487 3.561 . S
C1575 C1316 3.531 . S
C1580 C571 3.543 . S
C1591 C1064 3.528 . S
C1596 C655 3.552 . S
C1607 C152 3.534 . S
C1612 C727 3.544 . S
C1623 C811 3.555 . S
C1628 C236 3.511 . S
C1639 C895 3.559 1_556 S
C1644 C320 3.508 . S
C1655 C979 3.558 . S
C1660 C68 3.509 . S
C1671 C1075 3.558 . S
C1676 C476 3.518 . S
C1687 C560 3.534 . S
C1692 C1159 3.545 . S
C1703 C644 3.513 . S
C1708 C1243 3.560 1_554 S
C1719 C1327 3.545 . S
C1724 C392 3.534 . S
C1735 C70 0.530 . S
C1740 C1328 0.651 . S
C1751 C154 0.550 . S
C1756 C404 0.655 . S
C1767 C1160 0.648 . S
C1772 C238 0.525 1_655 S
C1783 C572 0.650 . S
C1788 C322 0.582 . S
C1799 C394 0.700 . S
C1804 C980 0.541 . S
C1815 C478 0.687 . S
C1820 C56 0.545 . S
C1831 C812 0.634 . S
C1836 C562 0.629 1_455 S
C1847 C224 0.651 . S
C1852 C646 0.580 . S
C1863 C742 0.687 1_455 S
C1868 C656 0.602 . S
C1879 C826 0.721 . S
C1884 C1076 0.570 . S
C1895 C488 0.644 . S
C1900 C910 0.526 . S
C1911 C1244 0.655 . S
C1916 C994 0.552 . S
C1927 C1066 0.617 1_655 S
C1932 C308 0.639 . S
C1943 C1150 0.727 . S
C1948 C728 0.547 . S
C1959 C1234 0.627 . S
C1964 C140 0.636 . S
C1975 C896 0.547 . S
C1980 C1318 0.680 . S
C1991 C58 1.430 . S
C1996 C1078 1.430 . S
C2007 C142 1.321 . S
C2012 C490 1.321 . S
C2023 C226 1.455 . S
C2028 C1246 1.455 . S
C2039 C658 1.362 . S
C2044 C310 1.362 . S
C2055 C406 1.367 . S
C2060 C730 1.367 . S
C2071 C898 1.378 . S
C2076 C574 1.378 . S
C2087 C814 1.309 . S
C2092 C1162 1.309 . S
C2103 C1330 1.334 . S
C2108 C982 1.334 . S
