# Generated by pormake.
# Topology umk, (4)-cn, num edge types: 1
# Building blocks:
#     Node 0, Type 0, BuildingBlock: GALJAG_clean_sbu_0, # of connection points: 4
#     Node 1, Type 0, BuildingBlock: GALJAG_clean_sbu_0, # of connection points: 4
#     Node 2, Type 0, BuildingBlock: GALJAG_clean_sbu_0, # of connection points: 4
#     Node 3, Type 0, BuildingBlock: GALJAG_clean_sbu_0, # of connection points: 4
#     Node 4, Type 0, BuildingBlock: GALJAG_clean_sbu_0, # of connection points: 4
#     Node 5, Type 0, BuildingBlock: GALJAG_clean_sbu_0, # of connection points: 4
#     Node 6, Type 0, BuildingBlock: GALJAG_clean_sbu_0, # of connection points: 4
#     Node 7, Type 0, BuildingBlock: GALJAG_clean_sbu_0, # of connection points: 4
#     Node 8, Type 0, BuildingBlock: GALJAG_clean_sbu_0, # of connection points: 4
#     Node 9, Type 0, BuildingBlock: GALJAG_clean_sbu_0, # of connection points: 4
#     Node 10, Type 0, BuildingBlock: GALJAG_clean_sbu_0, # of connection points: 4
#     Node 11, Type 0, BuildingBlock: GALJAG_clean_sbu_0, # of connection points: 4
#     Node 12, Type 0, BuildingBlock: GALJAG_clean_sbu_0, # of connection points: 4
#     Node 13, Type 0, BuildingBlock: GALJAG_clean_sbu_0, # of connection points: 4
#     Node 14, Type 0, BuildingBlock: GALJAG_clean_sbu_0, # of connection points: 4
#     Node 15, Type 0, BuildingBlock: GALJAG_clean_sbu_0, # of connection points: 4
#     Node 16, Type 0, BuildingBlock: GALJAG_clean_sbu_0, # of connection points: 4
#     Node 17, Type 0, BuildingBlock: GALJAG_clean_sbu_0, # of connection points: 4
#     Node 18, Type 0, BuildingBlock: GALJAG_clean_sbu_0, # of connection points: 4
#     Node 19, Type 0, BuildingBlock: GALJAG_clean_sbu_0, # of connection points: 4
#     Node 20, Type 0, BuildingBlock: GALJAG_clean_sbu_0, # of connection points: 4
#     Node 21, Type 0, BuildingBlock: GALJAG_clean_sbu_0, # of connection points: 4
#     Node 22, Type 0, BuildingBlock: GALJAG_clean_sbu_0, # of connection points: 4
#     Node 23, Type 0, BuildingBlock: GALJAG_clean_sbu_0, # of connection points: 4
#     Edge 24, Type (0, 0), BuildingBlock: OJICUG_clean_linker_0, # of connection points: 2
#     Edge 25, Type (0, 0), BuildingBlock: OJICUG_clean_linker_0, # of connection points: 2
#     Edge 26, Type (0, 0), BuildingBlock: OJICUG_clean_linker_0, # of connection points: 2
#     Edge 27, Type (0, 0), BuildingBlock: OJICUG_clean_linker_0, # of connection points: 2
#     Edge 28, Type (0, 0), BuildingBlock: OJICUG_clean_linker_0, # of connection points: 2
#     Edge 29, Type (0, 0), BuildingBlock: OJICUG_clean_linker_0, # of connection points: 2
#     Edge 30, Type (0, 0), BuildingBlock: OJICUG_clean_linker_0, # of connection points: 2
#     Edge 31, Type (0, 0), BuildingBlock: OJICUG_clean_linker_0, # of connection points: 2
#     Edge 32, Type (0, 0), BuildingBlock: OJICUG_clean_linker_0, # of connection points: 2
#     Edge 33, Type (0, 0), BuildingBlock: OJICUG_clean_linker_0, # of connection points: 2
#     Edge 34, Type (0, 0), BuildingBlock: OJICUG_clean_linker_0, # of connection points: 2
#     Edge 35, Type (0, 0), BuildingBlock: OJICUG_clean_linker_0, # of connection points: 2
#     Edge 36, Type (0, 0), BuildingBlock: OJICUG_clean_linker_0, # of connection points: 2
#     Edge 37, Type (0, 0), BuildingBlock: OJICUG_clean_linker_0, # of connection points: 2
#     Edge 38, Type (0, 0), BuildingBlock: OJICUG_clean_linker_0, # of connection points: 2
#     Edge 39, Type (0, 0), BuildingBlock: OJICUG_clean_linker_0, # of connection points: 2
#     Edge 40, Type (0, 0), BuildingBlock: OJICUG_clean_linker_0, # of connection points: 2
#     Edge 41, Type (0, 0), BuildingBlock: OJICUG_clean_linker_0, # of connection points: 2
#     Edge 42, Type (0, 0), BuildingBlock: OJICUG_clean_linker_0, # of connection points: 2
#     Edge 43, Type (0, 0), BuildingBlock: OJICUG_clean_linker_0, # of connection points: 2
#     Edge 44, Type (0, 0), BuildingBlock: OJICUG_clean_linker_0, # of connection points: 2
#     Edge 45, Type (0, 0), BuildingBlock: OJICUG_clean_linker_0, # of connection points: 2
#     Edge 46, Type (0, 0), BuildingBlock: OJICUG_clean_linker_0, # of connection points: 2
#     Edge 47, Type (0, 0), BuildingBlock: OJICUG_clean_linker_0, # of connection points: 2
#     Edge 48, Type (0, 0), BuildingBlock: OJICUG_clean_linker_0, # of connection points: 2
#     Edge 49, Type (0, 0), BuildingBlock: OJICUG_clean_linker_0, # of connection points: 2
#     Edge 50, Type (0, 0), BuildingBlock: OJICUG_clean_linker_0, # of connection points: 2
#     Edge 51, Type (0, 0), BuildingBlock: OJICUG_clean_linker_0, # of connection points: 2
#     Edge 52, Type (0, 0), BuildingBlock: OJICUG_clean_linker_0, # of connection points: 2
#     Edge 53, Type (0, 0), BuildingBlock: OJICUG_clean_linker_0, # of connection points: 2
#     Edge 54, Type (0, 0), BuildingBlock: OJICUG_clean_linker_0, # of connection points: 2
#     Edge 55, Type (0, 0), BuildingBlock: OJICUG_clean_linker_0, # of connection points: 2
#     Edge 56, Type (0, 0), BuildingBlock: OJICUG_clean_linker_0, # of connection points: 2
#     Edge 57, Type (0, 0), BuildingBlock: OJICUG_clean_linker_0, # of connection points: 2
#     Edge 58, Type (0, 0), BuildingBlock: OJICUG_clean_linker_0, # of connection points: 2
#     Edge 59, Type (0, 0), BuildingBlock: OJICUG_clean_linker_0, # of connection points: 2
#     Edge 60, Type (0, 0), BuildingBlock: OJICUG_clean_linker_0, # of connection points: 2
#     Edge 61, Type (0, 0), BuildingBlock: OJICUG_clean_linker_0, # of connection points: 2
#     Edge 62, Type (0, 0), BuildingBlock: OJICUG_clean_linker_0, # of connection points: 2
#     Edge 63, Type (0, 0), BuildingBlock: OJICUG_clean_linker_0, # of connection points: 2
#     Edge 64, Type (0, 0), BuildingBlock: OJICUG_clean_linker_0, # of connection points: 2
#     Edge 65, Type (0, 0), BuildingBlock: OJICUG_clean_linker_0, # of connection points: 2
#     Edge 66, Type (0, 0), BuildingBlock: OJICUG_clean_linker_0, # of connection points: 2
#     Edge 67, Type (0, 0), BuildingBlock: OJICUG_clean_linker_0, # of connection points: 2
#     Edge 68, Type (0, 0), BuildingBlock: OJICUG_clean_linker_0, # of connection points: 2
#     Edge 69, Type (0, 0), BuildingBlock: OJICUG_clean_linker_0, # of connection points: 2
#     Edge 70, Type (0, 0), BuildingBlock: OJICUG_clean_linker_0, # of connection points: 2
#     Edge 71, Type (0, 0), BuildingBlock: OJICUG_clean_linker_0, # of connection points: 2
# Relax obj value: 0.088
# Max RMSD: 0.064
# Mean RMSD: 0.064
data_MOF--net-umk--node1-GALJAG_clean_sbu_0--edge1-OJICUG_clean_linker_0
_symmetry_space_group_name_H-M    P1
_symmetry_Int_Tables_number       1
_symmetry_cell_setting            triclinic
loop_
_symmetry_equiv_pos_as_xyz
'x, y, z'
_cell_length_a     46.807153
_cell_length_b     46.694775
_cell_length_c     34.269011
_cell_angle_alpha  89.953774
_cell_angle_beta   90.111729
_cell_angle_gamma 120.13504
loop_
_atom_site_label
_atom_site_type_symbol
_atom_site_fract_x
_atom_site_fract_y
_atom_site_fract_z
_atom_type_partial_charge
In0 In 0.33038 0.47294 0.09411 0.0
O1 O 0.28384 0.44257 0.05691 0.0
O2 O 0.29447 0.48985 0.07763 0.0
C3 C 0.35749 0.43381 0.09485 0.0
C4 C 0.37591 0.52352 0.05066 0.0
C5 C 0.3178 0.47477 0.17077 0.0
O6 O 0.32868 0.42366 0.08189 0.0
O7 O 0.37208 0.46321 0.10713 0.0
O8 O 0.33763 0.50018 0.15173 0.0
O9 O 0.30362 0.44847 0.15093 0.0
C10 C 0.27579 0.46466 0.05751 0.0
O11 O 0.37342 0.52578 0.08707 0.0
O12 O 0.35556 0.49575 0.03624 0.0
In13 In 0.85948 0.32434 0.58967 0.0
O14 O 0.84909 0.2941 0.53368 0.0
O15 O 0.81652 0.2717 0.58152 0.0
C16 C 0.92459 0.34489 0.59465 0.0
C17 C 0.85375 0.37354 0.55506 0.0
C18 C 0.84037 0.31209 0.66492 0.0
O19 O 0.90689 0.32612 0.56739 0.0
O20 O 0.90927 0.35229 0.61899 0.0
O21 O 0.83616 0.33217 0.64432 0.0
O22 O 0.85268 0.29726 0.64694 0.0
C23 C 0.82333 0.2692 0.54654 0.0
O24 O 0.82984 0.34433 0.55752 0.0
O25 O 0.87985 0.37806 0.57116 0.0
In26 In 0.53241 0.868 0.08952 0.0
O27 O 0.5423 0.8529 0.03012 0.0
O28 O 0.54913 0.83011 0.08009 0.0
C29 C 0.5793 0.93272 0.09535 0.0
C30 C 0.47787 0.86313 0.05561 0.0
C31 C 0.52122 0.84504 0.1636 0.0
O32 O 0.57953 0.91468 0.0681 0.0
O33 O 0.55607 0.91797 0.11929 0.0
O34 O 0.49893 0.84497 0.14266 0.0
O35 O 0.54855 0.85535 0.14659 0.0
C36 C 0.54941 0.83205 0.04336 0.0
O37 O 0.48123 0.83827 0.06125 0.0
O38 O 0.50129 0.89003 0.0684 0.0
In39 In 0.66254 0.53057 0.59472 0.0
O40 O 0.71082 0.56015 0.5604 0.0
O41 O 0.69395 0.50964 0.574 0.0
C42 C 0.63807 0.5718 0.59803 0.0
C43 C 0.61452 0.48268 0.55077 0.0
C44 C 0.6759 0.52677 0.67062 0.0
O45 O 0.66451 0.57963 0.57992 0.0
O46 O 0.6247 0.54377 0.61411 0.0
O47 O 0.65519 0.50201 0.65122 0.0
O48 O 0.69076 0.55337 0.65138 0.0
C49 C 0.71516 0.53564 0.55702 0.0
O50 O 0.61715 0.47932 0.58694 0.0
O51 O 0.63592 0.51023 0.5369 0.0
In52 In 0.13171 0.66637 0.09498 0.0
O53 O 0.1481 0.71402 0.05902 0.0
O54 O 0.1822 0.69737 0.06912 0.0
C55 C 0.06627 0.64166 0.10106 0.0
C56 C 0.13148 0.618 0.0518 0.0
C57 C 0.14859 0.6792 0.17107 0.0
O58 O 0.08405 0.66664 0.0799 0.0
O59 O 0.08171 0.62995 0.11902 0.0
O60 O 0.14771 0.65519 0.1531 0.0
O61 O 0.14186 0.69741 0.15034 0.0
C62 C 0.1766 0.71824 0.05292 0.0
O63 O 0.15207 0.63249 0.07892 0.0
O64 O 0.11079 0.62742 0.0469 0.0
In65 In 0.47408 0.13872 0.59489 0.0
O66 O 0.52796 0.15664 0.57869 0.0
O67 O 0.49022 0.12122 0.54178 0.0
C68 C 0.47965 0.15548 0.67136 0.0
C69 C 0.46591 0.18375 0.55472 0.0
C70 C 0.43181 0.07308 0.60071 0.0
O71 O 0.50179 0.15308 0.65321 0.0
O72 O 0.45524 0.15048 0.65065 0.0
O73 O 0.42469 0.09178 0.58145 0.0
O74 O 0.45987 0.0876 0.6168 0.0
C75 C 0.52076 0.13926 0.5481 0.0
O76 O 0.44194 0.15513 0.56167 0.0
O77 O 0.49304 0.1897 0.56944 0.0
In78 In 0.53083 0.67085 0.91501 0.0
O79 O 0.56034 0.71219 0.95898 0.0
O80 O 0.52533 0.71616 0.92316 0.0
C81 C 0.56656 0.64002 0.91345 0.0
C82 C 0.47826 0.62746 0.95786 0.0
C83 C 0.5296 0.68365 0.83843 0.0
O84 O 0.57891 0.66964 0.92479 0.0
O85 O 0.53678 0.62655 0.90301 0.0
O86 O 0.50363 0.66707 0.85825 0.0
O87 O 0.55618 0.69435 0.85747 0.0
C88 C 0.54646 0.72855 0.95015 0.0
O89 O 0.47712 0.62897 0.92116 0.0
O90 O 0.50552 0.64821 0.97282 0.0
In91 In 0.85598 0.52408 0.4148 0.0
O92 O 0.83774 0.46967 0.42876 0.0
O93 O 0.87296 0.5062 0.46702 0.0
C94 C 0.83944 0.51929 0.33841 0.0
C95 C 0.81106 0.53193 0.45512 0.0
C96 C 0.92154 0.56597 0.40981 0.0
O97 O 0.84049 0.49643 0.35683 0.0
O98 O 0.8458 0.54431 0.3588 0.0
O99 O 0.9031 0.57285 0.42981 0.0
O100 O 0.9068 0.53835 0.39264 0.0
C101 C 0.8549 0.47583 0.45938 0.0
O102 O 0.83955 0.55607 0.44828 0.0
O103 O 0.80523 0.50486 0.4403 0.0
In104 In 0.32931 0.86182 0.91247 0.0
O105 O 0.3651 0.84377 0.92872 0.0
O106 O 0.36441 0.88043 0.96469 0.0
C107 C 0.31923 0.84537 0.83599 0.0
C108 C 0.27573 0.8159 0.95125 0.0
C109 C 0.35177 0.92713 0.90573 0.0
O110 O 0.34342 0.84767 0.855 0.0
O111 O 0.29946 0.85037 0.85586 0.0
O112 O 0.32686 0.90863 0.92645 0.0
O113 O 0.36485 0.91257 0.88884 0.0
C114 C 0.37642 0.86198 0.95851 0.0
O115 O 0.28062 0.84478 0.94575 0.0
O116 O 0.29696 0.81037 0.93605 0.0
In117 In 0.46542 0.33094 0.41258 0.0
O118 O 0.43639 0.28303 0.44805 0.0
O119 O 0.4866 0.29975 0.43376 0.0
C120 C 0.42575 0.35711 0.40931 0.0
C121 C 0.51341 0.37949 0.45574 0.0
C122 C 0.46637 0.31605 0.33666 0.0
O123 O 0.41741 0.33065 0.42791 0.0
O124 O 0.45341 0.36956 0.39266 0.0
O125 O 0.49202 0.33657 0.35492 0.0
O126 O 0.44048 0.30209 0.35711 0.0
C127 C 0.46091 0.27875 0.45139 0.0
O128 O 0.51707 0.376 0.41985 0.0
O129 O 0.4857 0.3586 0.46959 0.0
In130 In 0.13581 0.47291 0.90924 0.0
O131 O 0.15578 0.52699 0.92646 0.0
O132 O 0.11265 0.49004 0.95526 0.0
C133 C 0.1547 0.47837 0.83376 0.0
C134 C 0.17886 0.46558 0.95448 0.0
C135 C 0.07055 0.43115 0.90167 0.0
O136 O 0.1527 0.50091 0.85158 0.0
O137 O 0.14838 0.45351 0.85443 0.0
O138 O 0.08837 0.42412 0.9229 0.0
O139 O 0.08587 0.45867 0.88434 0.0
C140 C 0.13377 0.52034 0.95181 0.0
O141 O 0.15181 0.44085 0.94393 0.0
O142 O 0.18418 0.49291 0.94107 0.0
In143 In 0.66649 0.1352 0.4065 0.0
O144 O 0.69821 0.14441 0.46097 0.0
O145 O 0.71889 0.17865 0.41418 0.0
C146 C 0.64671 0.07 0.40082 0.0
C147 C 0.61872 0.14094 0.44446 0.0
C148 C 0.67793 0.15651 0.33178 0.0
O149 O 0.66495 0.0877 0.42837 0.0
O150 O 0.63945 0.08536 0.37624 0.0
O151 O 0.65649 0.15811 0.35262 0.0
O152 O 0.69405 0.14525 0.3491 0.0
C153 C 0.72248 0.17081 0.44832 0.0
O154 O 0.64808 0.16447 0.44217 0.0
O155 O 0.61321 0.11529 0.42626 0.0
In156 In 0.66094 0.52574 0.91475 0.0
O157 O 0.70775 0.55591 0.95158 0.0
O158 O 0.6947 0.50705 0.93437 0.0
C159 C 0.63381 0.56485 0.91361 0.0
C160 C 0.6147 0.47534 0.95751 0.0
C161 C 0.67477 0.52436 0.83842 0.0
O162 O 0.6622 0.5747 0.92779 0.0
O163 O 0.61968 0.53579 0.90028 0.0
O164 O 0.6542 0.49895 0.85692 0.0
O165 O 0.68914 0.5504 0.8587 0.0
C166 C 0.71413 0.53266 0.9534 0.0
O167 O 0.61787 0.47291 0.92125 0.0
O168 O 0.6346 0.50324 0.97201 0.0
In169 In 0.12971 0.66684 0.41434 0.0
O170 O 0.14853 0.71591 0.44774 0.0
O171 O 0.18173 0.69825 0.4368 0.0
C172 C 0.06381 0.64112 0.40912 0.0
C173 C 0.12831 0.61785 0.45751 0.0
C174 C 0.14782 0.68042 0.33879 0.0
O175 O 0.0816 0.66656 0.42954 0.0
O176 O 0.07939 0.62957 0.39151 0.0
O177 O 0.15123 0.65943 0.35836 0.0
O178 O 0.13629 0.69554 0.35775 0.0
C179 C 0.17721 0.72011 0.45236 0.0
O180 O 0.136 0.62179 0.42183 0.0
O181 O 0.12147 0.63869 0.47145 0.0
In182 In 0.46374 0.13465 0.91477 0.0
O183 O 0.44711 0.14619 0.97228 0.0
O184 O 0.45137 0.17589 0.92338 0.0
C185 C 0.42053 0.06944 0.9051 0.0
C186 C 0.51552 0.13974 0.95584 0.0
C187 C 0.4742 0.15405 0.83933 0.0
O188 O 0.41355 0.08748 0.92579 0.0
O189 O 0.44851 0.08449 0.88919 0.0
O190 O 0.49693 0.15575 0.86097 0.0
O191 O 0.44682 0.14387 0.85624 0.0
C192 C 0.44508 0.17031 0.95924 0.0
O193 O 0.51708 0.16447 0.93871 0.0
O194 O 0.48873 0.11307 0.95097 0.0
In195 In 0.33193 0.47124 0.4145 0.0
O196 O 0.28417 0.44083 0.44933 0.0
O197 O 0.29949 0.49098 0.4357 0.0
C198 C 0.35704 0.43054 0.41099 0.0
C199 C 0.37997 0.52005 0.45753 0.0
C200 C 0.31779 0.47416 0.33864 0.0
O201 O 0.33082 0.42265 0.42957 0.0
O202 O 0.37001 0.45845 0.39464 0.0
O203 O 0.33829 0.49926 0.35774 0.0
O204 O 0.30348 0.44771 0.3582 0.0
C205 C 0.27891 0.46474 0.45282 0.0
O206 O 0.37674 0.52305 0.42142 0.0
O207 O 0.35917 0.49242 0.47179 0.0
In208 In 0.86219 0.33205 0.90805 0.0
O209 O 0.8499 0.29066 0.95186 0.0
O210 O 0.81046 0.28886 0.91882 0.0
C211 C 0.9283 0.35919 0.90249 0.0
C212 C 0.85712 0.37713 0.95255 0.0
C213 C 0.84467 0.31781 0.83247 0.0
O214 O 0.91029 0.3309 0.91726 0.0
O215 O 0.91294 0.37328 0.89074 0.0
O216 O 0.83868 0.33716 0.85197 0.0
O217 O 0.85879 0.30516 0.8514 0.0
C218 C 0.81927 0.27579 0.94492 0.0
O219 O 0.8533 0.37577 0.916 0.0
O220 O 0.86299 0.35564 0.96644 0.0
In221 In 0.52533 0.8633 0.40624 0.0
O222 O 0.47154 0.84104 0.42513 0.0
O223 O 0.50564 0.88982 0.44423 0.0
C224 C 0.51698 0.84282 0.33098 0.0
C225 C 0.53328 0.82097 0.4526 0.0
C226 C 0.57194 0.9278 0.40122 0.0
O227 O 0.49693 0.8488 0.34858 0.0
O228 O 0.54071 0.846 0.35174 0.0
O229 O 0.57189 0.90958 0.42861 0.0
O230 O 0.54886 0.91331 0.37674 0.0
C231 C 0.47641 0.86586 0.44491 0.0
O232 O 0.55782 0.8461 0.43794 0.0
O233 O 0.50568 0.81712 0.44278 0.0
In234 In 0.46 0.32738 0.09234 0.0
O235 O 0.51368 0.36928 0.08645 0.0
O236 O 0.48542 0.3501 0.03468 0.0
C237 C 0.46259 0.31499 0.16877 0.0
C238 C 0.44416 0.27025 0.05556 0.0
C239 C 0.42428 0.35821 0.09464 0.0
O240 O 0.48819 0.33133 0.14826 0.0
O241 O 0.43565 0.30417 0.15044 0.0
O242 O 0.41148 0.3282 0.08469 0.0
O243 O 0.45444 0.37201 0.10341 0.0
C244 C 0.51262 0.37086 0.04975 0.0
O245 O 0.43149 0.28763 0.04636 0.0
O246 O 0.46401 0.28116 0.08396 0.0
In247 In 0.13107 0.46683 0.59132 0.0
O248 O 0.13292 0.51653 0.58577 0.0
O249 O 0.12231 0.48699 0.5348 0.0
C250 C 0.15158 0.47431 0.66626 0.0
C251 C 0.17929 0.46334 0.55282 0.0
C252 C 0.0663 0.42072 0.59522 0.0
O253 O 0.1518 0.49732 0.64667 0.0
O254 O 0.14201 0.44769 0.64761 0.0
O255 O 0.08524 0.41883 0.57052 0.0
O256 O 0.08012 0.44539 0.6176 0.0
C257 C 0.12677 0.51362 0.54965 0.0
O258 O 0.15231 0.43767 0.56128 0.0
O259 O 0.18214 0.49007 0.56517 0.0
In260 In 0.66724 0.1391 0.08929 0.0
O261 O 0.69153 0.15384 0.02952 0.0
O262 O 0.72136 0.17839 0.07876 0.0
C263 C 0.64984 0.07462 0.09562 0.0
C264 C 0.61704 0.14229 0.05447 0.0
C265 C 0.679 0.16001 0.1642 0.0
O266 O 0.66991 0.09319 0.06993 0.0
O267 O 0.63935 0.08874 0.11784 0.0
O268 O 0.65654 0.16043 0.14406 0.0
O269 O 0.6962 0.15057 0.14593 0.0
C270 C 0.71937 0.17555 0.04212 0.0
O271 O 0.64318 0.16808 0.06501 0.0
O272 O 0.61594 0.11554 0.06316 0.0
In273 In 0.53036 0.67214 0.59425 0.0
O274 O 0.47846 0.62752 0.58701 0.0
O275 O 0.50917 0.64524 0.53683 0.0
C276 C 0.5288 0.68579 0.67048 0.0
C277 C 0.53708 0.7259 0.55685 0.0
C278 C 0.5695 0.64534 0.59766 0.0
O279 O 0.50317 0.66638 0.65142 0.0
O280 O 0.55508 0.69934 0.65068 0.0
O281 O 0.57851 0.67233 0.57996 0.0
O282 O 0.54139 0.63262 0.61322 0.0
C283 C 0.4816 0.6243 0.55095 0.0
O284 O 0.56017 0.7193 0.55774 0.0
O285 O 0.5117 0.70627 0.57599 0.0
In286 In 0.85826 0.52595 0.09476 0.0
O287 O 0.8505 0.47409 0.0856 0.0
O288 O 0.86638 0.5069 0.03706 0.0
C289 C 0.84021 0.52061 0.17052 0.0
C290 C 0.81144 0.53196 0.05616 0.0
C291 C 0.92403 0.56767 0.09953 0.0
O292 O 0.83834 0.49675 0.15117 0.0
O293 O 0.85009 0.54698 0.15126 0.0
O294 O 0.90558 0.57489 0.08003 0.0
O295 O 0.90925 0.53991 0.11621 0.0
C296 C 0.85822 0.47848 0.04991 0.0
O297 O 0.83978 0.55666 0.06237 0.0
O298 O 0.80663 0.50517 0.07095 0.0
In299 In 0.33128 0.86486 0.59207 0.0
O300 O 0.36581 0.84584 0.57425 0.0
O301 O 0.36813 0.88592 0.54201 0.0
C302 C 0.32007 0.84685 0.66801 0.0
C303 C 0.2786 0.81984 0.55082 0.0
C304 C 0.35634 0.93049 0.60021 0.0
O305 O 0.34407 0.84872 0.64912 0.0
O306 O 0.30101 0.85304 0.64825 0.0
O307 O 0.33109 0.9131 0.57925 0.0
O308 O 0.36806 0.91457 0.617 0.0
C309 C 0.37874 0.86609 0.54646 0.0
O310 O 0.28243 0.84805 0.55856 0.0
O311 O 0.30037 0.81457 0.56496 0.0
C312 C 0.33236 0.50492 0.23449 0.0
C313 C 0.31402 0.47528 0.21355 0.0
H314 H 0.34767 0.52784 0.29058 0.0
C315 C 0.29419 0.44579 0.23417 0.0
H316 H 0.34777 0.52807 0.21942 0.0
C317 C 0.2941 0.44566 0.27499 0.0
C318 C 0.31384 0.47503 0.29592 0.0
H319 H 0.27971 0.42257 0.21881 0.0
H320 H 0.27958 0.42234 0.29011 0.0
C321 C 0.33228 0.5048 0.27527 0.0
C322 C 0.84433 0.28923 0.72928 0.0
C323 C 0.83587 0.30953 0.70774 0.0
H324 H 0.8536 0.27585 0.78566 0.0
C325 C 0.8268 0.32998 0.72783 0.0
H326 H 0.85135 0.27313 0.71466 0.0
C327 C 0.82806 0.3315 0.76865 0.0
C328 C 0.8385 0.31268 0.79002 0.0
H329 H 0.82016 0.34589 0.71202 0.0
H330 H 0.82225 0.34848 0.78332 0.0
C331 C 0.84569 0.29083 0.76999 0.0
C332 C 0.48854 0.83444 0.26655 0.0
C333 C 0.51527 0.83715 0.28835 0.0
H334 H 0.46922 0.83425 0.20976 0.0
C335 C 0.542 0.83813 0.26857 0.0
H336 H 0.46753 0.83351 0.28099 0.0
C337 C 0.54305 0.83875 0.22778 0.0
C338 C 0.51727 0.83815 0.20599 0.0
H339 H 0.56293 0.84017 0.28456 0.0
H340 H 0.56474 0.84119 0.21337 0.0
C341 C 0.48948 0.83481 0.22574 0.0
C342 C 0.69925 0.55386 0.77552 0.0
C343 C 0.67897 0.52423 0.79568 0.0
H344 H 0.71442 0.57787 0.71993 0.0
C345 C 0.66042 0.49488 0.77429 0.0
H346 H 0.71388 0.57686 0.79124 0.0
C347 C 0.66072 0.49546 0.73352 0.0
C348 C 0.67959 0.5254 0.71333 0.0
H349 H 0.64465 0.47163 0.789 0.0
H350 H 0.64517 0.47264 0.71786 0.0
C351 C 0.69956 0.55444 0.7347 0.0
C352 C 0.1613 0.66292 0.27588 0.0
C353 C 0.15311 0.68397 0.29613 0.0
H354 H 0.16644 0.64505 0.22035 0.0
C355 C 0.14692 0.70602 0.27482 0.0
H356 H 0.16628 0.64571 0.29147 0.0
C357 C 0.14718 0.70575 0.23398 0.0
C358 C 0.15343 0.68329 0.21377 0.0
H359 H 0.14061 0.72258 0.28963 0.0
H360 H 0.14102 0.72209 0.21829 0.0
C361 C 0.16136 0.66252 0.23512 0.0
C362 C 0.5062 0.16373 0.7773 0.0
C363 C 0.47793 0.15964 0.79663 0.0
H364 H 0.52899 0.16573 0.72236 0.0
C365 C 0.45173 0.1576 0.77434 0.0
H366 H 0.52678 0.16535 0.79367 0.0
C367 C 0.45304 0.15794 0.73357 0.0
C368 C 0.4805 0.16014 0.71419 0.0
H369 H 0.42965 0.15454 0.78837 0.0
H370 H 0.43192 0.15511 0.71726 0.0
C371 C 0.50744 0.16389 0.73646 0.0
C372 C 0.49884 0.67237 0.73425 0.0
C373 C 0.5286 0.68923 0.71336 0.0
H374 H 0.4758 0.65762 0.7903 0.0
C375 C 0.55844 0.70678 0.73409 0.0
H376 H 0.47545 0.65866 0.71908 0.0
C377 C 0.55865 0.70605 0.77488 0.0
C378 C 0.52903 0.68787 0.79572 0.0
H379 H 0.58177 0.72002 0.7188 0.0
H380 H 0.58214 0.71885 0.79002 0.0
C381 C 0.49904 0.67175 0.77504 0.0
C382 C 0.82796 0.48967 0.27452 0.0
C383 C 0.83472 0.51818 0.29563 0.0
H384 H 0.82396 0.46797 0.21834 0.0
C385 C 0.83984 0.54646 0.27514 0.0
H386 H 0.82378 0.46745 0.28949 0.0
C387 C 0.84006 0.5468 0.2343 0.0
C388 C 0.83502 0.51882 0.21323 0.0
H389 H 0.84507 0.5688 0.29062 0.0
H390 H 0.84543 0.56939 0.21928 0.0
C391 C 0.82804 0.48996 0.23374 0.0
C392 C 0.34044 0.83752 0.73159 0.0
C393 C 0.31681 0.84154 0.71073 0.0
H394 H 0.35954 0.8353 0.78761 0.0
C395 C 0.29193 0.84343 0.73145 0.0
H396 H 0.35987 0.83589 0.71647 0.0
C397 C 0.29172 0.84306 0.77229 0.0
C398 C 0.31642 0.84083 0.79315 0.0
H399 H 0.27334 0.84648 0.71617 0.0
H400 H 0.27299 0.84584 0.7875 0.0
C401 C 0.34025 0.83718 0.77238 0.0
C402 C 0.4358 0.2933 0.27393 0.0
C403 C 0.46593 0.31174 0.29387 0.0
H404 H 0.41112 0.27981 0.2186 0.0
C405 C 0.49527 0.32861 0.27221 0.0
H406 H 0.41277 0.28002 0.28982 0.0
C407 C 0.49433 0.32838 0.23142 0.0
C408 C 0.46401 0.31143 0.21151 0.0
H409 H 0.51887 0.34297 0.28676 0.0
H410 H 0.51724 0.34257 0.21554 0.0
C411 C 0.43484 0.29323 0.23314 0.0
C412 C 0.1542 0.44985 0.73035 0.0
C413 C 0.15801 0.47714 0.70875 0.0
H414 H 0.15058 0.42897 0.78709 0.0
C415 C 0.16471 0.50617 0.72865 0.0
H416 H 0.1491 0.42717 0.71581 0.0
C417 C 0.16546 0.50717 0.76941 0.0
C418 C 0.15965 0.47921 0.79108 0.0
H419 H 0.16789 0.52767 0.71282 0.0
H420 H 0.16921 0.5294 0.78393 0.0
C421 C 0.15508 0.4509 0.77117 0.0
C422 C 0.65832 0.16854 0.26887 0.0
C423 C 0.68145 0.16343 0.28935 0.0
H424 H 0.63951 0.17174 0.21286 0.0
C425 C 0.70617 0.16152 0.26832 0.0
H426 H 0.639 0.17015 0.2843 0.0
C427 C 0.70652 0.16253 0.22759 0.0
C428 C 0.68211 0.16539 0.20694 0.0
H429 H 0.72447 0.15781 0.28326 0.0
H430 H 0.72505 0.1595 0.21227 0.0
C431 C 0.65863 0.16947 0.22797 0.0
C432 C 0.22463 0.49262 1.00219 0.0
C433 C 0.20213 0.46382 0.98208 0.0
H434 H 0.26485 0.51512 0.04229 0.0
C435 C 0.20259 0.43434 0.98854 0.0
H436 H 0.22461 0.51563 0.99812 0.0
C437 C 0.22617 0.43415 0.01375 0.0
C438 C 0.24899 0.46325 0.03334 0.0
H439 H 0.18539 0.41179 0.97343 0.0
H440 H 0.22679 0.41144 0.01756 0.0
C441 C 0.24757 0.49227 0.02774 0.0
C442 C 0.74928 0.18891 0.51377 0.0
C443 C 0.75101 0.19296 0.47306 0.0
H444 H 0.77097 0.21005 0.5691 0.0
C445 C 0.77876 0.22035 0.45663 0.0
H446 H 0.72816 0.16804 0.52725 0.0
C447 C 0.80347 0.24418 0.48058 0.0
C448 C 0.8006 0.24127 0.52138 0.0
H449 H 0.78079 0.22402 0.42532 0.0
H450 H 0.82389 0.26573 0.46715 0.0
C451 C 0.77374 0.21298 0.53774 0.0
C452 C 0.56527 0.78878 0.03305 0.0
C453 C 0.55352 0.80892 0.01789 0.0
H454 H 0.57289 0.7478 0.02299 0.0
C455 C 0.54261 0.80451 0.97897 0.0
H456 H 0.57386 0.79171 0.06294 0.0
C457 C 0.54153 0.77909 0.9564 0.0
C458 C 0.55193 0.75805 0.97208 0.0
H459 H 0.53336 0.81963 0.96653 0.0
H460 H 0.53164 0.77532 0.92705 0.0
C461 C 0.56478 0.76374 0.01018 0.0
C462 C 0.73798 0.50546 0.52131 0.0
C463 C 0.74085 0.53579 0.53204 0.0
H464 H 0.75753 0.48064 0.48815 0.0
C465 C 0.76716 0.56535 0.51716 0.0
H466 H 0.71785 0.48223 0.53204 0.0
C467 C 0.79033 0.56444 0.49206 0.0
C468 C 0.78699 0.53392 0.48099 0.0
H469 H 0.76982 0.58905 0.52491 0.0
H470 H 0.81057 0.58746 0.48107 0.0
C471 C 0.7606 0.50453 0.49586 0.0
C472 C 0.25113 0.76336 0.9884 0.0
C473 C 0.24919 0.79101 0.97617 0.0
H474 H 0.23009 0.71929 0.02245 0.0
C475 C 0.22281 0.79481 0.98924 0.0
H476 H 0.27122 0.75978 0.97906 0.0
C477 C 0.19872 0.77111 0.01412 0.0
C478 C 0.2012 0.74378 0.02674 0.0
H479 H 0.22083 0.81599 0.98026 0.0
H480 H 0.1785 0.77433 0.02381 0.0
C481 C 0.22761 0.74022 0.01355 0.0
C482 C 0.49281 0.23434 0.51371 0.0
C483 C 0.46365 0.20775 0.52872 0.0
H484 H 0.5146 0.27698 0.47704 0.0
C485 C 0.43306 0.20403 0.51749 0.0
H486 H 0.51675 0.23772 0.52153 0.0
C487 C 0.43182 0.22695 0.49206 0.0
C488 C 0.46114 0.25341 0.47695 0.0
H489 H 0.41021 0.18363 0.52856 0.0
H490 H 0.40805 0.22395 0.48416 0.0
C491 C 0.49156 0.25671 0.48791 0.0
C492 C 0.78877 0.56315 0.01996 0.0
C493 C 0.7867 0.53306 0.03049 0.0
H494 H 0.76699 0.58672 0.98728 0.0
C495 C 0.7612 0.50337 0.01489 0.0
H496 H 0.80831 0.58639 0.03149 0.0
C497 C 0.73832 0.50363 0.98913 0.0
C498 C 0.73998 0.53353 0.97888 0.0
H499 H 0.75914 0.47982 0.02215 0.0
H500 H 0.71893 0.48022 0.97774 0.0
C501 C 0.76529 0.56335 0.99464 0.0
C502 C 0.19976 0.77319 0.49088 0.0
C503 C 0.20309 0.74681 0.47646 0.0
H504 H 0.22139 0.81756 0.52573 0.0
C505 C 0.23127 0.74508 0.48648 0.0
H506 H 0.17822 0.77506 0.48363 0.0
C507 C 0.25536 0.76877 0.51078 0.0
C508 C 0.25222 0.79514 0.52537 0.0
H509 H 0.23456 0.72504 0.47602 0.0
H510 H 0.27665 0.76643 0.51797 0.0
C511 C 0.22435 0.7974 0.51495 0.0
C512 C 0.43117 0.21501 0.96903 0.0
C513 C 0.43984 0.19264 0.98482 0.0
H514 H 0.42487 0.25675 0.97955 0.0
C515 C 0.44659 0.1939 0.02495 0.0
H516 H 0.42581 0.2145 0.93818 0.0
C517 C 0.44672 0.21843 0.04838 0.0
C518 C 0.43933 0.24161 0.03229 0.0
H519 H 0.45346 0.17702 0.03786 0.0
H520 H 0.45354 0.21985 0.07885 0.0
C521 C 0.43053 0.23906 0.9927 0.0
C522 C 0.20351 0.43316 0.51787 0.0
C523 C 0.20471 0.46293 0.52785 0.0
H524 H 0.22635 0.41029 0.48617 0.0
C525 C 0.22996 0.49284 0.51244 0.0
H526 H 0.18419 0.40974 0.52926 0.0
C527 C 0.25347 0.49308 0.48744 0.0
C528 C 0.2526 0.46347 0.47765 0.0
H529 H 0.2314 0.51617 0.51934 0.0
H530 H 0.27266 0.51664 0.47619 0.0
C531 C 0.22749 0.43345 0.49317 0.0
C532 C 0.80289 0.24226 0.00613 0.0
C533 C 0.79513 0.24726 0.96804 0.0
H534 H 0.78465 0.21564 0.05986 0.0
C535 C 0.76317 0.22656 0.95347 0.0
H536 H 0.82736 0.25802 0.01808 0.0
C537 C 0.739 0.20198 0.97705 0.0
C538 C 0.74619 0.1982 0.01588 0.0
H539 H 0.75663 0.22988 0.92415 0.0
H540 H 0.71427 0.18698 0.9654 0.0
C541 C 0.77848 0.21813 0.03005 0.0
C542 C 0.56529 0.79764 0.4858 0.0
C543 C 0.53577 0.79812 0.48035 0.0
H544 H 0.58898 0.77408 0.51447 0.0
C545 C 0.50767 0.77609 0.50178 0.0
H546 H 0.58733 0.81447 0.46972 0.0
C547 C 0.50873 0.75361 0.52755 0.0
C548 C 0.53781 0.75226 0.53227 0.0
H549 H 0.48462 0.77605 0.49853 0.0
H550 H 0.48637 0.73669 0.54308 0.0
C551 C 0.56624 0.77465 0.51141 0.0
C552 C 0.40604 0.42743 0.10942 0.0
C553 C 0.37356 0.41351 0.0954 0.0
H554 H 0.44728 0.42086 0.12019 0.0
C555 C 0.35726 0.38066 0.08181 0.0
H556 H 0.41927 0.45265 0.12018 0.0
C557 C 0.37343 0.36223 0.08193 0.0
C558 C 0.40612 0.37648 0.09552 0.0
H559 H 0.33218 0.36931 0.07089 0.0
H560 H 0.36053 0.33706 0.07102 0.0
C561 C 0.42212 0.40918 0.10943 0.0
C562 C 0.01352 0.37573 0.56578 0.0
C563 C 0.03038 0.39751 0.59676 0.0
H564 H 0.96631 0.34162 0.54069 0.0
C565 C 0.01227 0.39895 0.6285 0.0
H566 H 0.02696 0.37413 0.54097 0.0
C567 C 0.97793 0.38039 0.62845 0.0
C568 C 0.96084 0.36006 0.59655 0.0
H569 H 0.02459 0.41525 0.65299 0.0
H570 H 0.96474 0.38297 0.65289 0.0
C571 C 0.9789 0.35714 0.56563 0.0
C572 C 0.62302 0.98646 0.06636 0.0
C573 C 0.60195 0.96883 0.0975 0.0
H574 H 0.65521 0.0343 0.04137 0.0
C575 C 0.60016 0.98639 0.12974 0.0
H576 H 0.6249 0.9735 0.04118 0.0
C577 C 0.61729 0.02085 0.12981 0.0
C578 C 0.6367 0.03859 0.0977 0.0
H579 H 0.58439 0.97351 0.15436 0.0
H580 H 0.61427 0.0336 0.15447 0.0
C581 C 0.64035 0.02118 0.06648 0.0
C582 C 0.59444 0.58243 0.62251 0.0
C583 C 0.62273 0.5927 0.59955 0.0
H584 H 0.55581 0.59115 0.64002 0.0
C585 C 0.63482 0.62184 0.57735 0.0
H586 H 0.58462 0.56023 0.64017 0.0
C587 C 0.61813 0.63977 0.57727 0.0
C588 C 0.5892 0.62871 0.59937 0.0
H589 H 0.65664 0.6303 0.55942 0.0
H590 H 0.62737 0.66172 0.55927 0.0
C591 C 0.57789 0.60019 0.62242 0.0
C592 C 0.97748 0.61708 0.07807 0.0
C593 C 0.96027 0.58897 0.10188 0.0
H594 H 0.02493 0.65614 0.05911 0.0
C595 C 0.97816 0.58006 0.12715 0.0
H596 H 0.96426 0.6245 0.05836 0.0
C597 C 0.01252 0.59805 0.12767 0.0
C598 C 0.02991 0.62536 0.10286 0.0
H599 H 0.96562 0.55869 0.14609 0.0
H600 H 0.02548 0.58997 0.14694 0.0
C601 C 0.01212 0.63516 0.07853 0.0
C602 C 0.38165 0.02003 0.57959 0.0
C603 C 0.41014 0.03678 0.60291 0.0
H604 H 0.34196 0.97291 0.56042 0.0
C605 C 0.41902 0.01833 0.62728 0.0
H606 H 0.37422 0.03368 0.56057 0.0
C607 C 0.40066 0.98387 0.62729 0.0
C608 C 0.37298 0.96696 0.60286 0.0
H609 H 0.44069 0.0305 0.64581 0.0
H610 H 0.40875 0.97046 0.6458 0.0
C611 C 0.3632 0.98532 0.57953 0.0
C612 C 0.61706 0.63578 0.92777 0.0
C613 C 0.58482 0.62185 0.91276 0.0
H614 H 0.65807 0.62857 0.93996 0.0
C615 C 0.56942 0.58961 0.89747 0.0
H616 H 0.6295 0.66061 0.93975 0.0
C617 C 0.58563 0.57147 0.89752 0.0
C618 C 0.61765 0.58507 0.91296 0.0
H619 H 0.54463 0.57818 0.88559 0.0
H620 H 0.57286 0.5466 0.88569 0.0
C621 C 0.63336 0.61748 0.92793 0.0
C622 C 0.97474 0.61566 0.43151 0.0
C623 C 0.95777 0.58745 0.40774 0.0
H624 H 0.022 0.65512 0.45064 0.0
C625 C 0.9759 0.57869 0.38281 0.0
H626 H 0.96134 0.62299 0.45097 0.0
C627 C 0.01026 0.59694 0.38256 0.0
C628 C 0.02741 0.62441 0.40728 0.0
H629 H 0.96356 0.55724 0.36394 0.0
H630 H 0.0234 0.58899 0.36352 0.0
C631 C 0.00938 0.63403 0.4313 0.0
C632 C 0.37242 0.01523 0.92705 0.0
C633 C 0.39956 0.03312 0.90218 0.0
H634 H 0.3357 0.9672 0.94775 0.0
C635 C 0.40868 0.01578 0.87635 0.0
H636 H 0.3649 0.02801 0.94727 0.0
C637 C 0.39219 0.98133 0.87669 0.0
C638 C 0.36615 0.96334 0.90284 0.0
H639 H 0.42933 0.02885 0.85661 0.0
H640 H 0.40054 0.96882 0.85714 0.0
C641 C 0.35579 0.98051 0.92737 0.0
C642 C 0.40025 0.41976 0.38523 0.0
C643 C 0.37246 0.40971 0.40903 0.0
H644 H 0.43848 0.41085 0.36651 0.0
C645 C 0.36082 0.38077 0.4315 0.0
H646 H 0.40969 0.4418 0.36734 0.0
C647 C 0.3775 0.36283 0.43104 0.0
C648 C 0.40595 0.37366 0.40807 0.0
H649 H 0.33938 0.37246 0.45006 0.0
H650 H 0.36864 0.34105 0.44927 0.0
C651 C 0.41677 0.40197 0.38474 0.0
C652 C 0.01641 0.42191 0.87775 0.0
C653 C 0.03423 0.41055 0.89945 0.0
H654 H 0.96908 0.41454 0.86179 0.0
C655 C 0.01691 0.38078 0.92044 0.0
H656 H 0.02901 0.4447 0.86116 0.0
C657 C 0.98228 0.36326 0.9206 0.0
C658 C 0.9646 0.37547 0.90004 0.0
H659 H 0.03006 0.37146 0.93739 0.0
H660 H 0.9694 0.34078 0.93768 0.0
C661 C 0.98202 0.40465 0.87816 0.0
C662 C 0.59416 0.9818 0.36694 0.0
C663 C 0.59502 0.96387 0.39938 0.0
H664 H 0.6102 0.02934 0.34186 0.0
C665 C 0.61598 0.98108 0.43085 0.0
H666 H 0.57847 0.96924 0.3421 0.0
C667 C 0.6343 0.01579 0.43072 0.0
C668 C 0.63189 0.03367 0.3991 0.0
H669 H 0.61716 0.96785 0.45621 0.0
H670 H 0.64918 0.02858 0.45599 0.0
C671 C 0.61239 0.01628 0.36679 0.0
C672 C 0.45188 0.60412 0.02233 0.0
C673 C 0.45081 0.60203 0.98139 0.0
H674 H 0.42882 0.58103 0.07634 0.0
C675 C 0.42424 0.57452 0.96336 0.0
H676 H 0.47206 0.62506 0.03702 0.0
C677 C 0.39971 0.54911 0.98589 0.0
C678 C 0.40109 0.55096 0.02684 0.0
H679 H 0.42284 0.5722 0.93187 0.0
H680 H 0.37981 0.5279 0.97123 0.0
C681 C 0.42715 0.57893 0.04483 0.0
C682 C 0.82752 0.39191 0.50468 0.0
C683 C 0.85249 0.39983 0.53249 0.0
H684 H 0.80902 0.4098 0.45915 0.0
C685 C 0.87773 0.43294 0.53667 0.0
H686 H 0.8079 0.36653 0.50068 0.0
C687 C 0.87821 0.45766 0.51322 0.0
C688 C 0.85378 0.44966 0.48468 0.0
H689 H 0.89732 0.43974 0.55784 0.0
H690 H 0.89809 0.48295 0.51697 0.0
C691 C 0.82831 0.4166 0.48074 0.0
C692 C 0.40761 0.83507 0.98328 0.0
C693 C 0.40152 0.86161 0.98435 0.0
H694 H 0.4361 0.81437 0.0058 0.0
C695 C 0.4196 0.88784 0.01043 0.0
H696 H 0.39386 0.81441 0.96363 0.0
C697 C 0.444 0.888 0.03417 0.0
C698 C 0.45031 0.86161 0.03287 0.0
H699 H 0.41537 0.9086 0.0119 0.0
H700 H 0.45812 0.90893 0.05333 0.0
C701 C 0.43158 0.83492 0.0076 0.0
C702 C 0.53689 0.40428 0.52078 0.0
C703 C 0.53941 0.40588 0.47989 0.0
H704 H 0.55892 0.42722 0.5753 0.0
C705 C 0.5668 0.43292 0.46245 0.0
H706 H 0.51606 0.38367 0.535 0.0
C707 C 0.59109 0.45807 0.48552 0.0
C708 C 0.58867 0.45634 0.52642 0.0
H709 H 0.5693 0.43479 0.431 0.0
H710 H 0.61191 0.47873 0.47134 0.0
C711 C 0.56143 0.42916 0.54384 0.0
C712 C 0.16295 0.57268 0.99019 0.0
C713 C 0.1333 0.5457 0.97672 0.0
H714 H 0.18549 0.61635 0.0259 0.0
C715 C 0.10308 0.54243 0.9884 0.0
H716 H 0.18652 0.57547 0.98177 0.0
C717 C 0.10252 0.56619 0.01263 0.0
C718 C 0.13214 0.59283 0.02671 0.0
H719 H 0.07992 0.52174 0.97836 0.0
H720 H 0.07895 0.56349 0.02084 0.0
C721 C 0.16236 0.5958 0.01559 0.0
C722 C 0.53666 0.1162 0.49188 0.0
C723 C 0.54588 0.14035 0.52112 0.0
H724 H 0.55251 0.09751 0.4447 0.0
C725 C 0.57906 0.16567 0.52383 0.0
H726 H 0.51124 0.09645 0.48901 0.0
C727 C 0.60263 0.16661 0.49795 0.0
C728 C 0.59349 0.14199 0.4693 0.0
H729 H 0.5868 0.18475 0.5459 0.0
H730 H 0.62812 0.18614 0.501 0.0
C731 C 0.56026 0.11687 0.46643 0.0
C732 C 0.56625 0.42413 0.04452 0.0
C733 C 0.54001 0.39644 0.02636 0.0
H734 H 0.61034 0.47104 0.03684 0.0
C735 C 0.53913 0.39433 0.98543 0.0
H736 H 0.56748 0.42645 0.07601 0.0
C737 C 0.56378 0.41969 0.96303 0.0
C738 C 0.5895 0.44783 0.98115 0.0
H739 H 0.51919 0.37324 0.97066 0.0
H740 H 0.5623 0.41757 0.93152 0.0
C741 C 0.59066 0.44971 0.0221 0.0
C742 C 0.12815 0.56442 0.46295 0.0
C743 C 0.12736 0.59095 0.48112 0.0
H744 H 0.12809 0.51887 0.47048 0.0
C745 C 0.12574 0.59159 0.52202 0.0
H746 H 0.12928 0.56325 0.43146 0.0
C747 C 0.12544 0.56638 0.54439 0.0
C748 C 0.12622 0.53985 0.5262 0.0
H749 H 0.12513 0.61178 0.53678 0.0
H750 H 0.12456 0.56765 0.57589 0.0
C751 C 0.12733 0.53897 0.48527 0.0
C752 C 0.59472 0.17226 0.01492 0.0
C753 C 0.59077 0.14273 0.03092 0.0
H754 H 0.57405 0.19458 0.97803 0.0
C755 C 0.56208 0.1127 0.02208 0.0
H756 H 0.61672 0.19575 0.02104 0.0
C757 C 0.53799 0.11202 0.99755 0.0
C758 C 0.54195 0.14135 0.98109 0.0
H759 H 0.55831 0.0895 0.03381 0.0
H760 H 0.51624 0.08833 0.99137 0.0
C761 C 0.57048 0.17157 0.99011 0.0
C762 C 0.42841 0.57066 0.54499 0.0
C763 C 0.45535 0.59785 0.52711 0.0
H764 H 0.38359 0.52445 0.53686 0.0
C765 C 0.45726 0.59936 0.48618 0.0
H766 H 0.42638 0.56883 0.57648 0.0
C767 C 0.4326 0.57419 0.46352 0.0
C768 C 0.40586 0.54681 0.48139 0.0
H769 H 0.47774 0.62008 0.47164 0.0
H770 H 0.43464 0.57601 0.43202 0.0
C771 C 0.40401 0.54523 0.52233 0.0
C772 C 0.85447 0.39913 0.01802 0.0
C773 C 0.85616 0.40254 0.97721 0.0
H774 H 0.8535 0.42039 0.07302 0.0
C775 C 0.8581 0.4309 0.96043 0.0
H776 H 0.85293 0.37749 0.03174 0.0
C777 C 0.85894 0.45569 0.98411 0.0
C778 C 0.85735 0.45231 0.02493 0.0
H779 H 0.85956 0.43421 0.92907 0.0
H780 H 0.86074 0.47746 0.97044 0.0
C781 C 0.8548 0.42366 0.04165 0.0
C782 C 0.45152 0.89561 0.47831 0.0
C783 C 0.4507 0.86585 0.46956 0.0
H784 H 0.42868 0.91882 0.50912 0.0
C785 C 0.42608 0.83618 0.48622 0.0
H786 H 0.47037 0.91879 0.46587 0.0
C787 C 0.40303 0.83636 0.51192 0.0
C788 C 0.40363 0.86606 0.52034 0.0
H789 H 0.42519 0.81297 0.48018 0.0
H790 H 0.38445 0.81323 0.52476 0.0
C791 C 0.42778 0.89562 0.503 0.0
loop_
_geom_bond_atom_site_label_1
_geom_bond_atom_site_label_2
_geom_bond_distance
_geom_bond_site_symmetry_2
_ccdc_geom_bond_type
In0 O1 2.294 . S
In0 O2 2.326 . S
In0 O6 2.266 . S
In0 O7 2.326 . S
In0 O8 2.266 . S
In0 O9 2.326 . S
In0 O11 2.294 . S
In0 O12 2.326 . S
O1 In0 2.294 . S
O1 C10 1.240 . S
O2 In0 2.326 . S
O2 C10 1.252 . S
C3 O6 1.252 . S
C3 O7 1.260 . S
C4 O11 1.240 . S
C4 O12 1.252 . S
C5 O8 1.252 . S
C5 O9 1.260 . S
O6 In0 2.266 . S
O6 C3 1.252 . S
O7 In0 2.326 . S
O7 C3 1.260 . S
O8 In0 2.266 . S
O8 C5 1.252 . S
O9 In0 2.326 . S
O9 C5 1.260 . S
C10 O1 1.240 . S
C10 O2 1.252 . S
O11 In0 2.294 . S
O11 C4 1.240 . S
O12 In0 2.326 . S
O12 C4 1.252 . S
In13 O14 2.294 . S
In13 O15 2.326 . S
In13 O19 2.266 . S
In13 O20 2.326 . S
In13 O21 2.266 . S
In13 O22 2.326 . S
In13 O24 2.294 . S
In13 O25 2.326 . S
O14 In13 2.294 . S
O14 C23 1.240 . S
O15 In13 2.326 . S
O15 C23 1.252 . S
C16 O19 1.252 . S
C16 O20 1.260 . S
C17 O24 1.240 . S
C17 O25 1.252 . S
C18 O21 1.252 . S
C18 O22 1.260 . S
O19 In13 2.266 . S
O19 C16 1.252 . S
O20 In13 2.326 . S
O20 C16 1.260 . S
O21 In13 2.266 . S
O21 C18 1.252 . S
O22 In13 2.326 . S
O22 C18 1.260 . S
C23 O14 1.240 . S
C23 O15 1.252 . S
O24 In13 2.294 . S
O24 C17 1.240 . S
O25 In13 2.326 . S
O25 C17 1.252 . S
In26 O27 2.294 . S
In26 O28 2.326 . S
In26 O32 2.266 . S
In26 O33 2.326 . S
In26 O34 2.266 . S
In26 O35 2.326 . S
In26 O37 2.294 . S
In26 O38 2.326 . S
O27 In26 2.294 . S
O27 C36 1.240 . S
O28 In26 2.326 . S
O28 C36 1.252 . S
C29 O32 1.252 . S
C29 O33 1.260 . S
C30 O37 1.240 . S
C30 O38 1.252 . S
C31 O34 1.252 . S
C31 O35 1.260 . S
O32 In26 2.266 . S
O32 C29 1.252 . S
O33 In26 2.326 . S
O33 C29 1.260 . S
O34 In26 2.266 . S
O34 C31 1.252 . S
O35 In26 2.326 . S
O35 C31 1.260 . S
C36 O27 1.240 . S
C36 O28 1.252 . S
O37 In26 2.294 . S
O37 C30 1.240 . S
O38 In26 2.326 . S
O38 C30 1.252 . S
In39 O40 2.294 . S
In39 O41 2.326 . S
In39 O45 2.266 . S
In39 O46 2.326 . S
In39 O47 2.266 . S
In39 O48 2.326 . S
In39 O50 2.294 . S
In39 O51 2.326 . S
O40 In39 2.294 . S
O40 C49 1.240 . S
O41 In39 2.326 . S
O41 C49 1.252 . S
C42 O45 1.252 . S
C42 O46 1.260 . S
C43 O50 1.240 . S
C43 O51 1.252 . S
C44 O47 1.252 . S
C44 O48 1.260 . S
O45 In39 2.266 . S
O45 C42 1.252 . S
O46 In39 2.326 . S
O46 C42 1.260 . S
O47 In39 2.266 . S
O47 C44 1.252 . S
O48 In39 2.326 . S
O48 C44 1.260 . S
C49 O40 1.240 . S
C49 O41 1.252 . S
O50 In39 2.294 . S
O50 C43 1.240 . S
O51 In39 2.326 . S
O51 C43 1.252 . S
In52 O53 2.294 . S
In52 O54 2.326 . S
In52 O58 2.266 . S
In52 O59 2.326 . S
In52 O60 2.266 . S
In52 O61 2.326 . S
In52 O63 2.294 . S
In52 O64 2.326 . S
O53 In52 2.294 . S
O53 C62 1.240 . S
O54 In52 2.326 . S
O54 C62 1.252 . S
C55 O58 1.252 . S
C55 O59 1.260 . S
C56 O63 1.240 . S
C56 O64 1.252 . S
C57 O60 1.252 . S
C57 O61 1.260 . S
O58 In52 2.266 . S
O58 C55 1.252 . S
O59 In52 2.326 . S
O59 C55 1.260 . S
O60 In52 2.266 . S
O60 C57 1.252 . S
O61 In52 2.326 . S
O61 C57 1.260 . S
C62 O53 1.240 . S
C62 O54 1.252 . S
O63 In52 2.294 . S
O63 C56 1.240 . S
O64 In52 2.326 . S
O64 C56 1.252 . S
In65 O66 2.294 . S
In65 O67 2.326 . S
In65 O71 2.266 . S
In65 O72 2.326 . S
In65 O73 2.266 . S
In65 O74 2.326 . S
In65 O76 2.294 . S
In65 O77 2.326 . S
O66 In65 2.294 . S
O66 C75 1.240 . S
O67 In65 2.326 . S
O67 C75 1.252 . S
C68 O71 1.252 . S
C68 O72 1.260 . S
C69 O76 1.240 . S
C69 O77 1.252 . S
C70 O73 1.252 . S
C70 O74 1.260 . S
O71 In65 2.266 . S
O71 C68 1.252 . S
O72 In65 2.326 . S
O72 C68 1.260 . S
O73 In65 2.266 . S
O73 C70 1.252 . S
O74 In65 2.326 . S
O74 C70 1.260 . S
C75 O66 1.240 . S
C75 O67 1.252 . S
O76 In65 2.294 . S
O76 C69 1.240 . S
O77 In65 2.326 . S
O77 C69 1.252 . S
In78 O79 2.294 . S
In78 O80 2.326 . S
In78 O84 2.266 . S
In78 O85 2.326 . S
In78 O86 2.266 . S
In78 O87 2.326 . S
In78 O89 2.294 . S
In78 O90 2.326 . S
O79 In78 2.294 . S
O79 C88 1.240 . S
O80 In78 2.326 . S
O80 C88 1.252 . S
C81 O84 1.252 . S
C81 O85 1.260 . S
C82 O89 1.240 . S
C82 O90 1.252 . S
C83 O86 1.252 . S
C83 O87 1.260 . S
O84 In78 2.266 . S
O84 C81 1.252 . S
O85 In78 2.326 . S
O85 C81 1.260 . S
O86 In78 2.266 . S
O86 C83 1.252 . S
O87 In78 2.326 . S
O87 C83 1.260 . S
C88 O79 1.240 . S
C88 O80 1.252 . S
O89 In78 2.294 . S
O89 C82 1.240 . S
O90 In78 2.326 . S
O90 C82 1.252 . S
In91 O92 2.294 . S
In91 O93 2.326 . S
In91 O97 2.266 . S
In91 O98 2.326 . S
In91 O99 2.266 . S
In91 O100 2.326 . S
In91 O102 2.294 . S
In91 O103 2.326 . S
O92 In91 2.294 . S
O92 C101 1.240 . S
O93 In91 2.326 . S
O93 C101 1.252 . S
C94 O97 1.252 . S
C94 O98 1.260 . S
C95 O102 1.240 . S
C95 O103 1.252 . S
C96 O99 1.252 . S
C96 O100 1.260 . S
O97 In91 2.266 . S
O97 C94 1.252 . S
O98 In91 2.326 . S
O98 C94 1.260 . S
O99 In91 2.266 . S
O99 C96 1.252 . S
O100 In91 2.326 . S
O100 C96 1.260 . S
C101 O92 1.240 . S
C101 O93 1.252 . S
O102 In91 2.294 . S
O102 C95 1.240 . S
O103 In91 2.326 . S
O103 C95 1.252 . S
In104 O105 2.294 . S
In104 O106 2.326 . S
In104 O110 2.266 . S
In104 O111 2.326 . S
In104 O112 2.266 . S
In104 O113 2.326 . S
In104 O115 2.294 . S
In104 O116 2.326 . S
O105 In104 2.294 . S
O105 C114 1.240 . S
O106 In104 2.326 . S
O106 C114 1.252 . S
C107 O110 1.252 . S
C107 O111 1.260 . S
C108 O115 1.240 . S
C108 O116 1.252 . S
C109 O112 1.252 . S
C109 O113 1.260 . S
O110 In104 2.266 . S
O110 C107 1.252 . S
O111 In104 2.326 . S
O111 C107 1.260 . S
O112 In104 2.266 . S
O112 C109 1.252 . S
O113 In104 2.326 . S
O113 C109 1.260 . S
C114 O105 1.240 . S
C114 O106 1.252 . S
O115 In104 2.294 . S
O115 C108 1.240 . S
O116 In104 2.326 . S
O116 C108 1.252 . S
In117 O118 2.294 . S
In117 O119 2.326 . S
In117 O123 2.266 . S
In117 O124 2.326 . S
In117 O125 2.266 . S
In117 O126 2.326 . S
In117 O128 2.294 . S
In117 O129 2.326 . S
O118 In117 2.294 . S
O118 C127 1.240 . S
O119 In117 2.326 . S
O119 C127 1.252 . S
C120 O123 1.252 . S
C120 O124 1.260 . S
C121 O128 1.240 . S
C121 O129 1.252 . S
C122 O125 1.252 . S
C122 O126 1.260 . S
O123 In117 2.266 . S
O123 C120 1.252 . S
O124 In117 2.326 . S
O124 C120 1.260 . S
O125 In117 2.266 . S
O125 C122 1.252 . S
O126 In117 2.326 . S
O126 C122 1.260 . S
C127 O118 1.240 . S
C127 O119 1.252 . S
O128 In117 2.294 . S
O128 C121 1.240 . S
O129 In117 2.326 . S
O129 C121 1.252 . S
In130 O131 2.294 . S
In130 O132 2.326 . S
In130 O136 2.266 . S
In130 O137 2.326 . S
In130 O138 2.266 . S
In130 O139 2.326 . S
In130 O141 2.294 . S
In130 O142 2.326 . S
O131 In130 2.294 . S
O131 C140 1.240 . S
O132 In130 2.326 . S
O132 C140 1.252 . S
C133 O136 1.252 . S
C133 O137 1.260 . S
C134 O141 1.240 . S
C134 O142 1.252 . S
C135 O138 1.252 . S
C135 O139 1.260 . S
O136 In130 2.266 . S
O136 C133 1.252 . S
O137 In130 2.326 . S
O137 C133 1.260 . S
O138 In130 2.266 . S
O138 C135 1.252 . S
O139 In130 2.326 . S
O139 C135 1.260 . S
C140 O131 1.240 . S
C140 O132 1.252 . S
O141 In130 2.294 . S
O141 C134 1.240 . S
O142 In130 2.326 . S
O142 C134 1.252 . S
In143 O144 2.294 . S
In143 O145 2.326 . S
In143 O149 2.266 . S
In143 O150 2.326 . S
In143 O151 2.266 . S
In143 O152 2.326 . S
In143 O154 2.294 . S
In143 O155 2.326 . S
O144 In143 2.294 . S
O144 C153 1.240 . S
O145 In143 2.326 . S
O145 C153 1.252 . S
C146 O149 1.252 . S
C146 O150 1.260 . S
C147 O154 1.240 . S
C147 O155 1.252 . S
C148 O151 1.252 . S
C148 O152 1.260 . S
O149 In143 2.266 . S
O149 C146 1.252 . S
O150 In143 2.326 . S
O150 C146 1.260 . S
O151 In143 2.266 . S
O151 C148 1.252 . S
O152 In143 2.326 . S
O152 C148 1.260 . S
C153 O144 1.240 . S
C153 O145 1.252 . S
O154 In143 2.294 . S
O154 C147 1.240 . S
O155 In143 2.326 . S
O155 C147 1.252 . S
In156 O157 2.294 . S
In156 O158 2.326 . S
In156 O162 2.266 . S
In156 O163 2.326 . S
In156 O164 2.266 . S
In156 O165 2.326 . S
In156 O167 2.294 . S
In156 O168 2.326 . S
O157 In156 2.294 . S
O157 C166 1.240 . S
O158 In156 2.326 . S
O158 C166 1.252 . S
C159 O162 1.252 . S
C159 O163 1.260 . S
C160 O167 1.240 . S
C160 O168 1.252 . S
C161 O164 1.252 . S
C161 O165 1.260 . S
O162 In156 2.266 . S
O162 C159 1.252 . S
O163 In156 2.326 . S
O163 C159 1.260 . S
O164 In156 2.266 . S
O164 C161 1.252 . S
O165 In156 2.326 . S
O165 C161 1.260 . S
C166 O157 1.240 . S
C166 O158 1.252 . S
O167 In156 2.294 . S
O167 C160 1.240 . S
O168 In156 2.326 . S
O168 C160 1.252 . S
In169 O170 2.294 . S
In169 O171 2.326 . S
In169 O175 2.266 . S
In169 O176 2.326 . S
In169 O177 2.266 . S
In169 O178 2.326 . S
In169 O180 2.294 . S
In169 O181 2.326 . S
O170 In169 2.294 . S
O170 C179 1.240 . S
O171 In169 2.326 . S
O171 C179 1.252 . S
C172 O175 1.252 . S
C172 O176 1.260 . S
C173 O180 1.240 . S
C173 O181 1.252 . S
C174 O177 1.252 . S
C174 O178 1.260 . S
O175 In169 2.266 . S
O175 C172 1.252 . S
O176 In169 2.326 . S
O176 C172 1.260 . S
O177 In169 2.266 . S
O177 C174 1.252 . S
O178 In169 2.326 . S
O178 C174 1.260 . S
C179 O170 1.240 . S
C179 O171 1.252 . S
O180 In169 2.294 . S
O180 C173 1.240 . S
O181 In169 2.326 . S
O181 C173 1.252 . S
In182 O183 2.294 . S
In182 O184 2.326 . S
In182 O188 2.266 . S
In182 O189 2.326 . S
In182 O190 2.266 . S
In182 O191 2.326 . S
In182 O193 2.294 . S
In182 O194 2.326 . S
O183 In182 2.294 . S
O183 C192 1.240 . S
O184 In182 2.326 . S
O184 C192 1.252 . S
C185 O188 1.252 . S
C185 O189 1.260 . S
C186 O193 1.240 . S
C186 O194 1.252 . S
C187 O190 1.252 . S
C187 O191 1.260 . S
O188 In182 2.266 . S
O188 C185 1.252 . S
O189 In182 2.326 . S
O189 C185 1.260 . S
O190 In182 2.266 . S
O190 C187 1.252 . S
O191 In182 2.326 . S
O191 C187 1.260 . S
C192 O183 1.240 . S
C192 O184 1.252 . S
O193 In182 2.294 . S
O193 C186 1.240 . S
O194 In182 2.326 . S
O194 C186 1.252 . S
In195 O196 2.294 . S
In195 O197 2.326 . S
In195 O201 2.266 . S
In195 O202 2.326 . S
In195 O203 2.266 . S
In195 O204 2.326 . S
In195 O206 2.294 . S
In195 O207 2.326 . S
O196 In195 2.294 . S
O196 C205 1.240 . S
O197 In195 2.326 . S
O197 C205 1.252 . S
C198 O201 1.252 . S
C198 O202 1.260 . S
C199 O206 1.240 . S
C199 O207 1.252 . S
C200 O203 1.252 . S
C200 O204 1.260 . S
O201 In195 2.266 . S
O201 C198 1.252 . S
O202 In195 2.326 . S
O202 C198 1.260 . S
O203 In195 2.266 . S
O203 C200 1.252 . S
O204 In195 2.326 . S
O204 C200 1.260 . S
C205 O196 1.240 . S
C205 O197 1.252 . S
O206 In195 2.294 . S
O206 C199 1.240 . S
O207 In195 2.326 . S
O207 C199 1.252 . S
In208 O209 2.294 . S
In208 O210 2.326 . S
In208 O214 2.266 . S
In208 O215 2.326 . S
In208 O216 2.266 . S
In208 O217 2.326 . S
In208 O219 2.294 . S
In208 O220 2.326 . S
O209 In208 2.294 . S
O209 C218 1.240 . S
O210 In208 2.326 . S
O210 C218 1.252 . S
C211 O214 1.252 . S
C211 O215 1.260 . S
C212 O219 1.240 . S
C212 O220 1.252 . S
C213 O216 1.252 . S
C213 O217 1.260 . S
O214 In208 2.266 . S
O214 C211 1.252 . S
O215 In208 2.326 . S
O215 C211 1.260 . S
O216 In208 2.266 . S
O216 C213 1.252 . S
O217 In208 2.326 . S
O217 C213 1.260 . S
C218 O209 1.240 . S
C218 O210 1.252 . S
O219 In208 2.294 . S
O219 C212 1.240 . S
O220 In208 2.326 . S
O220 C212 1.252 . S
In221 O222 2.294 . S
In221 O223 2.326 . S
In221 O227 2.266 . S
In221 O228 2.326 . S
In221 O229 2.266 . S
In221 O230 2.326 . S
In221 O232 2.294 . S
In221 O233 2.326 . S
O222 In221 2.294 . S
O222 C231 1.240 . S
O223 In221 2.326 . S
O223 C231 1.252 . S
C224 O227 1.252 . S
C224 O228 1.260 . S
C225 O232 1.240 . S
C225 O233 1.252 . S
C226 O229 1.252 . S
C226 O230 1.260 . S
O227 In221 2.266 . S
O227 C224 1.252 . S
O228 In221 2.326 . S
O228 C224 1.260 . S
O229 In221 2.266 . S
O229 C226 1.252 . S
O230 In221 2.326 . S
O230 C226 1.260 . S
C231 O222 1.240 . S
C231 O223 1.252 . S
O232 In221 2.294 . S
O232 C225 1.240 . S
O233 In221 2.326 . S
O233 C225 1.252 . S
In234 O235 2.294 . S
In234 O236 2.326 . S
In234 O240 2.266 . S
In234 O241 2.326 . S
In234 O242 2.266 . S
In234 O243 2.326 . S
In234 O245 2.294 . S
In234 O246 2.326 . S
O235 In234 2.294 . S
O235 C244 1.240 . S
O236 In234 2.326 . S
O236 C244 1.252 . S
C237 O240 1.252 . S
C237 O241 1.260 . S
C238 O245 1.240 . S
C238 O246 1.252 . S
C239 O242 1.252 . S
C239 O243 1.260 . S
O240 In234 2.266 . S
O240 C237 1.252 . S
O241 In234 2.326 . S
O241 C237 1.260 . S
O242 In234 2.266 . S
O242 C239 1.252 . S
O243 In234 2.326 . S
O243 C239 1.260 . S
C244 O235 1.240 . S
C244 O236 1.252 . S
O245 In234 2.294 . S
O245 C238 1.240 . S
O246 In234 2.326 . S
O246 C238 1.252 . S
In247 O248 2.294 . S
In247 O249 2.326 . S
In247 O253 2.266 . S
In247 O254 2.326 . S
In247 O255 2.266 . S
In247 O256 2.326 . S
In247 O258 2.294 . S
In247 O259 2.326 . S
O248 In247 2.294 . S
O248 C257 1.240 . S
O249 In247 2.326 . S
O249 C257 1.252 . S
C250 O253 1.252 . S
C250 O254 1.260 . S
C251 O258 1.240 . S
C251 O259 1.252 . S
C252 O255 1.252 . S
C252 O256 1.260 . S
O253 In247 2.266 . S
O253 C250 1.252 . S
O254 In247 2.326 . S
O254 C250 1.260 . S
O255 In247 2.266 . S
O255 C252 1.252 . S
O256 In247 2.326 . S
O256 C252 1.260 . S
C257 O248 1.240 . S
C257 O249 1.252 . S
O258 In247 2.294 . S
O258 C251 1.240 . S
O259 In247 2.326 . S
O259 C251 1.252 . S
In260 O261 2.294 . S
In260 O262 2.326 . S
In260 O266 2.266 . S
In260 O267 2.326 . S
In260 O268 2.266 . S
In260 O269 2.326 . S
In260 O271 2.294 . S
In260 O272 2.326 . S
O261 In260 2.294 . S
O261 C270 1.240 . S
O262 In260 2.326 . S
O262 C270 1.252 . S
C263 O266 1.252 . S
C263 O267 1.260 . S
C264 O271 1.240 . S
C264 O272 1.252 . S
C265 O268 1.252 . S
C265 O269 1.260 . S
O266 In260 2.266 . S
O266 C263 1.252 . S
O267 In260 2.326 . S
O267 C263 1.260 . S
O268 In260 2.266 . S
O268 C265 1.252 . S
O269 In260 2.326 . S
O269 C265 1.260 . S
C270 O261 1.240 . S
C270 O262 1.252 . S
O271 In260 2.294 . S
O271 C264 1.240 . S
O272 In260 2.326 . S
O272 C264 1.252 . S
In273 O274 2.294 . S
In273 O275 2.326 . S
In273 O279 2.266 . S
In273 O280 2.326 . S
In273 O281 2.266 . S
In273 O282 2.326 . S
In273 O284 2.294 . S
In273 O285 2.326 . S
O274 In273 2.294 . S
O274 C283 1.240 . S
O275 In273 2.326 . S
O275 C283 1.252 . S
C276 O279 1.252 . S
C276 O280 1.260 . S
C277 O284 1.240 . S
C277 O285 1.252 . S
C278 O281 1.252 . S
C278 O282 1.260 . S
O279 In273 2.266 . S
O279 C276 1.252 . S
O280 In273 2.326 . S
O280 C276 1.260 . S
O281 In273 2.266 . S
O281 C278 1.252 . S
O282 In273 2.326 . S
O282 C278 1.260 . S
C283 O274 1.240 . S
C283 O275 1.252 . S
O284 In273 2.294 . S
O284 C277 1.240 . S
O285 In273 2.326 . S
O285 C277 1.252 . S
In286 O287 2.294 . S
In286 O288 2.326 . S
In286 O292 2.266 . S
In286 O293 2.326 . S
In286 O294 2.266 . S
In286 O295 2.326 . S
In286 O297 2.294 . S
In286 O298 2.326 . S
O287 In286 2.294 . S
O287 C296 1.240 . S
O288 In286 2.326 . S
O288 C296 1.252 . S
C289 O292 1.252 . S
C289 O293 1.260 . S
C290 O297 1.240 . S
C290 O298 1.252 . S
C291 O294 1.252 . S
C291 O295 1.260 . S
O292 In286 2.266 . S
O292 C289 1.252 . S
O293 In286 2.326 . S
O293 C289 1.260 . S
O294 In286 2.266 . S
O294 C291 1.252 . S
O295 In286 2.326 . S
O295 C291 1.260 . S
C296 O287 1.240 . S
C296 O288 1.252 . S
O297 In286 2.294 . S
O297 C290 1.240 . S
O298 In286 2.326 . S
O298 C290 1.252 . S
In299 O300 2.294 . S
In299 O301 2.326 . S
In299 O305 2.266 . S
In299 O306 2.326 . S
In299 O307 2.266 . S
In299 O308 2.326 . S
In299 O310 2.294 . S
In299 O311 2.326 . S
O300 In299 2.294 . S
O300 C309 1.240 . S
O301 In299 2.326 . S
O301 C309 1.252 . S
C302 O305 1.252 . S
C302 O306 1.260 . S
C303 O310 1.240 . S
C303 O311 1.252 . S
C304 O307 1.252 . S
C304 O308 1.260 . S
O305 In299 2.266 . S
O305 C302 1.252 . S
O306 In299 2.326 . S
O306 C302 1.260 . S
O307 In299 2.266 . S
O307 C304 1.252 . S
O308 In299 2.326 . S
O308 C304 1.260 . S
C309 O300 1.240 . S
C309 O301 1.252 . S
O310 In299 2.294 . S
O310 C303 1.240 . S
O311 In299 2.326 . S
O311 C303 1.252 . S
C312 C313 1.387 . S
C312 H316 0.950 . S
C312 C321 1.390 . S
C313 C312 1.387 . S
C313 C315 1.387 . S
H314 C321 0.950 . S
C315 C313 1.387 . S
C315 C317 1.390 . S
C315 H319 0.950 . S
H316 C312 0.950 . S
C317 C315 1.390 . S
C317 C318 1.387 . S
C317 H320 0.950 . S
C318 C317 1.387 . S
C318 C321 1.387 . S
H319 C315 0.950 . S
H320 C317 0.950 . S
C321 C312 1.390 . S
C321 H314 0.950 . S
C321 C318 1.387 . S
C322 C323 1.387 . S
C322 H326 0.950 . S
C322 C331 1.390 . S
C323 C322 1.387 . S
C323 C325 1.387 . S
H324 C331 0.950 . S
C325 C323 1.387 . S
C325 C327 1.390 . S
C325 H329 0.950 . S
H326 C322 0.950 . S
C327 C325 1.390 . S
C327 C328 1.387 . S
C327 H330 0.950 . S
C328 C327 1.387 . S
C328 C331 1.387 . S
H329 C325 0.950 . S
H330 C327 0.950 . S
C331 C322 1.390 . S
C331 H324 0.950 . S
C331 C328 1.387 . S
C332 C333 1.387 . S
C332 H336 0.950 . S
C332 C341 1.390 . S
C333 C332 1.387 . S
C333 C335 1.387 . S
H334 C341 0.950 . S
C335 C333 1.387 . S
C335 C337 1.390 . S
C335 H339 0.950 . S
H336 C332 0.950 . S
C337 C335 1.390 . S
C337 C338 1.387 . S
C337 H340 0.950 . S
C338 C337 1.387 . S
C338 C341 1.387 . S
H339 C335 0.950 . S
H340 C337 0.950 . S
C341 C332 1.390 . S
C341 H334 0.950 . S
C341 C338 1.387 . S
C342 C343 1.387 . S
C342 H346 0.950 . S
C342 C351 1.390 . S
C343 C342 1.387 . S
C343 C345 1.387 . S
H344 C351 0.950 . S
C345 C343 1.387 . S
C345 C347 1.390 . S
C345 H349 0.950 . S
H346 C342 0.950 . S
C347 C345 1.390 . S
C347 C348 1.387 . S
C347 H350 0.950 . S
C348 C347 1.387 . S
C348 C351 1.387 . S
H349 C345 0.950 . S
H350 C347 0.950 . S
C351 C342 1.390 . S
C351 H344 0.950 . S
C351 C348 1.387 . S
C352 C353 1.387 . S
C352 H356 0.950 . S
C352 C361 1.390 . S
C353 C352 1.387 . S
C353 C355 1.387 . S
H354 C361 0.950 . S
C355 C353 1.387 . S
C355 C357 1.390 . S
C355 H359 0.950 . S
H356 C352 0.950 . S
C357 C355 1.390 . S
C357 C358 1.387 . S
C357 H360 0.950 . S
C358 C357 1.387 . S
C358 C361 1.387 . S
H359 C355 0.950 . S
H360 C357 0.950 . S
C361 C352 1.390 . S
C361 H354 0.950 . S
C361 C358 1.387 . S
C362 C363 1.387 . S
C362 H366 0.950 . S
C362 C371 1.390 . S
C363 C362 1.387 . S
C363 C365 1.387 . S
H364 C371 0.950 . S
C365 C363 1.387 . S
C365 C367 1.390 . S
C365 H369 0.950 . S
H366 C362 0.950 . S
C367 C365 1.390 . S
C367 C368 1.387 . S
C367 H370 0.950 . S
C368 C367 1.387 . S
C368 C371 1.387 . S
H369 C365 0.950 . S
H370 C367 0.950 . S
C371 C362 1.390 . S
C371 H364 0.950 . S
C371 C368 1.387 . S
C372 C373 1.387 . S
C372 H376 0.950 . S
C372 C381 1.390 . S
C373 C372 1.387 . S
C373 C375 1.387 . S
H374 C381 0.950 . S
C375 C373 1.387 . S
C375 C377 1.390 . S
C375 H379 0.950 . S
H376 C372 0.950 . S
C377 C375 1.390 . S
C377 C378 1.387 . S
C377 H380 0.950 . S
C378 C377 1.387 . S
C378 C381 1.387 . S
H379 C375 0.950 . S
H380 C377 0.950 . S
C381 C372 1.390 . S
C381 H374 0.950 . S
C381 C378 1.387 . S
C382 C383 1.387 . S
C382 H386 0.950 . S
C382 C391 1.390 . S
C383 C382 1.387 . S
C383 C385 1.387 . S
H384 C391 0.950 . S
C385 C383 1.387 . S
C385 C387 1.390 . S
C385 H389 0.950 . S
H386 C382 0.950 . S
C387 C385 1.390 . S
C387 C388 1.387 . S
C387 H390 0.950 . S
C388 C387 1.387 . S
C388 C391 1.387 . S
H389 C385 0.950 . S
H390 C387 0.950 . S
C391 C382 1.390 . S
C391 H384 0.950 . S
C391 C388 1.387 . S
C392 C393 1.387 . S
C392 H396 0.950 . S
C392 C401 1.390 . S
C393 C392 1.387 . S
C393 C395 1.387 . S
H394 C401 0.950 . S
C395 C393 1.387 . S
C395 C397 1.390 . S
C395 H399 0.950 . S
H396 C392 0.950 . S
C397 C395 1.390 . S
C397 C398 1.387 . S
C397 H400 0.950 . S
C398 C397 1.387 . S
C398 C401 1.387 . S
H399 C395 0.950 . S
H400 C397 0.950 . S
C401 C392 1.390 . S
C401 H394 0.950 . S
C401 C398 1.387 . S
C402 C403 1.387 . S
C402 H406 0.950 . S
C402 C411 1.390 . S
C403 C402 1.387 . S
C403 C405 1.387 . S
H404 C411 0.950 . S
C405 C403 1.387 . S
C405 C407 1.390 . S
C405 H409 0.950 . S
H406 C402 0.950 . S
C407 C405 1.390 . S
C407 C408 1.387 . S
C407 H410 0.950 . S
C408 C407 1.387 . S
C408 C411 1.387 . S
H409 C405 0.950 . S
H410 C407 0.950 . S
C411 C402 1.390 . S
C411 H404 0.950 . S
C411 C408 1.387 . S
C412 C413 1.387 . S
C412 H416 0.950 . S
C412 C421 1.390 . S
C413 C412 1.387 . S
C413 C415 1.387 . S
H414 C421 0.950 . S
C415 C413 1.387 . S
C415 C417 1.390 . S
C415 H419 0.950 . S
H416 C412 0.950 . S
C417 C415 1.390 . S
C417 C418 1.387 . S
C417 H420 0.950 . S
C418 C417 1.387 . S
C418 C421 1.387 . S
H419 C415 0.950 . S
H420 C417 0.950 . S
C421 C412 1.390 . S
C421 H414 0.950 . S
C421 C418 1.387 . S
C422 C423 1.387 . S
C422 H426 0.950 . S
C422 C431 1.390 . S
C423 C422 1.387 . S
C423 C425 1.387 . S
H424 C431 0.950 . S
C425 C423 1.387 . S
C425 C427 1.390 . S
C425 H429 0.950 . S
H426 C422 0.950 . S
C427 C425 1.390 . S
C427 C428 1.387 . S
C427 H430 0.950 . S
C428 C427 1.387 . S
C428 C431 1.387 . S
H429 C425 0.950 . S
H430 C427 0.950 . S
C431 C422 1.390 . S
C431 H424 0.950 . S
C431 C428 1.387 . S
C432 C433 1.387 . S
C432 H436 0.950 . S
C432 C441 1.390 1_556 S
C433 C432 1.387 . S
C433 C435 1.387 . S
H434 C441 0.950 . S
C435 C433 1.387 . S
C435 C437 1.390 1_556 S
C435 H439 0.950 . S
H436 C432 0.950 . S
C437 C435 1.390 1_554 S
C437 C438 1.387 . S
C437 H440 0.950 . S
C438 C437 1.387 . S
C438 C441 1.387 . S
H439 C435 0.950 . S
H440 C437 0.950 . S
C441 C432 1.390 1_554 S
C441 H434 0.950 . S
C441 C438 1.387 . S
C442 C443 1.387 . S
C442 H446 0.950 . S
C442 C451 1.390 . S
C443 C442 1.387 . S
C443 C445 1.387 . S
H444 C451 0.950 . S
C445 C443 1.387 . S
C445 C447 1.390 . S
C445 H449 0.950 . S
H446 C442 0.950 . S
C447 C445 1.390 . S
C447 C448 1.387 . S
C447 H450 0.950 . S
C448 C447 1.387 . S
C448 C451 1.387 . S
H449 C445 0.950 . S
H450 C447 0.950 . S
C451 C442 1.390 . S
C451 H444 0.950 . S
C451 C448 1.387 . S
C452 C453 1.387 . S
C452 H456 0.950 . S
C452 C461 1.390 . S
C453 C452 1.387 . S
C453 C455 1.387 1_554 S
H454 C461 0.950 . S
C455 C453 1.387 1_556 S
C455 C457 1.390 . S
C455 H459 0.950 . S
H456 C452 0.950 . S
C457 C455 1.390 . S
C457 C458 1.387 . S
C457 H460 0.950 . S
C458 C457 1.387 . S
C458 C461 1.387 1_556 S
H459 C455 0.950 . S
H460 C457 0.950 . S
C461 C452 1.390 . S
C461 H454 0.950 . S
C461 C458 1.387 1_554 S
C462 C463 1.387 . S
C462 H466 0.950 . S
C462 C471 1.390 . S
C463 C462 1.387 . S
C463 C465 1.387 . S
H464 C471 0.950 . S
C465 C463 1.387 . S
C465 C467 1.390 . S
C465 H469 0.950 . S
H466 C462 0.950 . S
C467 C465 1.390 . S
C467 C468 1.387 . S
C467 H470 0.950 . S
C468 C467 1.387 . S
C468 C471 1.387 . S
H469 C465 0.950 . S
H470 C467 0.950 . S
C471 C462 1.390 . S
C471 H464 0.950 . S
C471 C468 1.387 . S
C472 C473 1.387 1_554 S
C472 H476 0.950 . S
C472 C481 1.390 . S
C473 C472 1.387 1_556 S
C473 C475 1.387 . S
H474 C481 0.950 . S
C475 C473 1.387 . S
C475 C477 1.390 . S
C475 H479 0.950 . S
H476 C472 0.950 . S
C477 C475 1.390 . S
C477 C478 1.387 1_556 S
C477 H480 0.950 . S
C478 C477 1.387 1_554 S
C478 C481 1.387 . S
H479 C475 0.950 . S
H480 C477 0.950 . S
C481 C472 1.390 . S
C481 H474 0.950 . S
C481 C478 1.387 . S
C482 C483 1.387 . S
C482 H486 0.950 . S
C482 C491 1.390 . S
C483 C482 1.387 . S
C483 C485 1.387 . S
H484 C491 0.950 . S
C485 C483 1.387 . S
C485 C487 1.390 . S
C485 H489 0.950 . S
H486 C482 0.950 . S
C487 C485 1.390 . S
C487 C488 1.387 . S
C487 H490 0.950 . S
C488 C487 1.387 . S
C488 C491 1.387 . S
H489 C485 0.950 . S
H490 C487 0.950 . S
C491 C482 1.390 . S
C491 H484 0.950 . S
C491 C488 1.387 . S
C492 C493 1.387 . S
C492 H496 0.950 . S
C492 C501 1.390 1_554 S
C493 C492 1.387 . S
C493 C495 1.387 . S
H494 C501 0.950 . S
C495 C493 1.387 . S
C495 C497 1.390 1_554 S
C495 H499 0.950 . S
H496 C492 0.950 . S
C497 C495 1.390 1_556 S
C497 C498 1.387 . S
C497 H500 0.950 . S
C498 C497 1.387 . S
C498 C501 1.387 . S
H499 C495 0.950 . S
H500 C497 0.950 . S
C501 C492 1.390 1_556 S
C501 H494 0.950 . S
C501 C498 1.387 . S
C502 C503 1.387 . S
C502 H506 0.950 . S
C502 C511 1.390 . S
C503 C502 1.387 . S
C503 C505 1.387 . S
H504 C511 0.950 . S
C505 C503 1.387 . S
C505 C507 1.390 . S
C505 H509 0.950 . S
H506 C502 0.950 . S
C507 C505 1.390 . S
C507 C508 1.387 . S
C507 H510 0.950 . S
C508 C507 1.387 . S
C508 C511 1.387 . S
H509 C505 0.950 . S
H510 C507 0.950 . S
C511 C502 1.390 . S
C511 H504 0.950 . S
C511 C508 1.387 . S
C512 C513 1.387 . S
C512 H516 0.950 . S
C512 C521 1.390 . S
C513 C512 1.387 . S
C513 C515 1.387 1_556 S
H514 C521 0.950 . S
C515 C513 1.387 1_554 S
C515 C517 1.390 . S
C515 H519 0.950 . S
H516 C512 0.950 . S
C517 C515 1.390 . S
C517 C518 1.387 . S
C517 H520 0.950 . S
C518 C517 1.387 . S
C518 C521 1.387 1_554 S
H519 C515 0.950 . S
H520 C517 0.950 . S
C521 C512 1.390 . S
C521 H514 0.950 . S
C521 C518 1.387 1_556 S
C522 C523 1.387 . S
C522 H526 0.950 . S
C522 C531 1.390 . S
C523 C522 1.387 . S
C523 C525 1.387 . S
H524 C531 0.950 . S
C525 C523 1.387 . S
C525 C527 1.390 . S
C525 H529 0.950 . S
H526 C522 0.950 . S
C527 C525 1.390 . S
C527 C528 1.387 . S
C527 H530 0.950 . S
C528 C527 1.387 . S
C528 C531 1.387 . S
H529 C525 0.950 . S
H530 C527 0.950 . S
C531 C522 1.390 . S
C531 H524 0.950 . S
C531 C528 1.387 . S
C532 C533 1.387 1_554 S
C532 H536 0.950 . S
C532 C541 1.390 . S
C533 C532 1.387 1_556 S
C533 C535 1.387 . S
H534 C541 0.950 . S
C535 C533 1.387 . S
C535 C537 1.390 . S
C535 H539 0.950 . S
H536 C532 0.950 . S
C537 C535 1.390 . S
C537 C538 1.387 1_556 S
C537 H540 0.950 . S
C538 C537 1.387 1_554 S
C538 C541 1.387 . S
H539 C535 0.950 . S
H540 C537 0.950 . S
C541 C532 1.390 . S
C541 H534 0.950 . S
C541 C538 1.387 . S
C542 C543 1.387 . S
C542 H546 0.950 . S
C542 C551 1.390 . S
C543 C542 1.387 . S
C543 C545 1.387 . S
H544 C551 0.950 . S
C545 C543 1.387 . S
C545 C547 1.390 . S
C545 H549 0.950 . S
H546 C542 0.950 . S
C547 C545 1.390 . S
C547 C548 1.387 . S
C547 H550 0.950 . S
C548 C547 1.387 . S
C548 C551 1.387 . S
H549 C545 0.950 . S
H550 C547 0.950 . S
C551 C542 1.390 . S
C551 H544 0.950 . S
C551 C548 1.387 . S
C552 C553 1.387 . S
C552 H556 0.950 . S
C552 C561 1.390 . S
C553 C552 1.387 . S
C553 C555 1.387 . S
H554 C561 0.950 . S
C555 C553 1.387 . S
C555 C557 1.390 . S
C555 H559 0.950 . S
H556 C552 0.950 . S
C557 C555 1.390 . S
C557 C558 1.387 . S
C557 H560 0.950 . S
C558 C557 1.387 . S
C558 C561 1.387 . S
H559 C555 0.950 . S
H560 C557 0.950 . S
C561 C552 1.390 . S
C561 H554 0.950 . S
C561 C558 1.387 . S
C562 C563 1.387 . S
C562 H566 0.950 . S
C562 C571 1.390 1_455 S
C563 C562 1.387 . S
C563 C565 1.387 . S
H564 C571 0.950 . S
C565 C563 1.387 . S
C565 C567 1.390 1_455 S
C565 H569 0.950 . S
H566 C562 0.950 . S
C567 C565 1.390 1_655 S
C567 C568 1.387 . S
C567 H570 0.950 . S
C568 C567 1.387 . S
C568 C571 1.387 . S
H569 C565 0.950 . S
H570 C567 0.950 . S
C571 C562 1.390 1_655 S
C571 H564 0.950 . S
C571 C568 1.387 . S
C572 C573 1.387 . S
C572 H576 0.950 . S
C572 C581 1.390 1_565 S
C573 C572 1.387 . S
C573 C575 1.387 . S
H574 C581 0.950 . S
C575 C573 1.387 . S
C575 C577 1.390 1_565 S
C575 H579 0.950 . S
H576 C572 0.950 . S
C577 C575 1.390 1_545 S
C577 C578 1.387 . S
C577 H580 0.950 . S
C578 C577 1.387 . S
C578 C581 1.387 . S
H579 C575 0.950 . S
H580 C577 0.950 . S
C581 C572 1.390 1_545 S
C581 H574 0.950 . S
C581 C578 1.387 . S
C582 C583 1.387 . S
C582 H586 0.950 . S
C582 C591 1.390 . S
C583 C582 1.387 . S
C583 C585 1.387 . S
H584 C591 0.950 . S
C585 C583 1.387 . S
C585 C587 1.390 . S
C585 H589 0.950 . S
H586 C582 0.950 . S
C587 C585 1.390 . S
C587 C588 1.387 . S
C587 H590 0.950 . S
C588 C587 1.387 . S
C588 C591 1.387 . S
H589 C585 0.950 . S
H590 C587 0.950 . S
C591 C582 1.390 . S
C591 H584 0.950 . S
C591 C588 1.387 . S
C592 C593 1.387 . S
C592 H596 0.950 . S
C592 C601 1.390 1_655 S
C593 C592 1.387 . S
C593 C595 1.387 . S
H594 C601 0.950 . S
C595 C593 1.387 . S
C595 C597 1.390 1_655 S
C595 H599 0.950 . S
H596 C592 0.950 . S
C597 C595 1.390 1_455 S
C597 C598 1.387 . S
C597 H600 0.950 . S
C598 C597 1.387 . S
C598 C601 1.387 . S
H599 C595 0.950 . S
H600 C597 0.950 . S
C601 C592 1.390 1_455 S
C601 H594 0.950 . S
C601 C598 1.387 . S
C602 C603 1.387 . S
C602 H606 0.950 . S
C602 C611 1.390 1_545 S
C603 C602 1.387 . S
C603 C605 1.387 . S
H604 C611 0.950 . S
C605 C603 1.387 . S
C605 C607 1.390 1_545 S
C605 H609 0.950 . S
H606 C602 0.950 . S
C607 C605 1.390 1_565 S
C607 C608 1.387 . S
C607 H610 0.950 . S
C608 C607 1.387 . S
C608 C611 1.387 . S
H609 C605 0.950 . S
H610 C607 0.950 . S
C611 C602 1.390 1_565 S
C611 H604 0.950 . S
C611 C608 1.387 . S
C612 C613 1.387 . S
C612 H616 0.950 . S
C612 C621 1.390 . S
C613 C612 1.387 . S
C613 C615 1.387 . S
H614 C621 0.950 . S
C615 C613 1.387 . S
C615 C617 1.390 . S
C615 H619 0.950 . S
H616 C612 0.950 . S
C617 C615 1.390 . S
C617 C618 1.387 . S
C617 H620 0.950 . S
C618 C617 1.387 . S
C618 C621 1.387 . S
H619 C615 0.950 . S
H620 C617 0.950 . S
C621 C612 1.390 . S
C621 H614 0.950 . S
C621 C618 1.387 . S
C622 C623 1.387 . S
C622 H626 0.950 . S
C622 C631 1.390 1_655 S
C623 C622 1.387 . S
C623 C625 1.387 . S
H624 C631 0.950 . S
C625 C623 1.387 . S
C625 C627 1.390 1_655 S
C625 H629 0.950 . S
H626 C622 0.950 . S
C627 C625 1.390 1_455 S
C627 C628 1.387 . S
C627 H630 0.950 . S
C628 C627 1.387 . S
C628 C631 1.387 . S
H629 C625 0.950 . S
H630 C627 0.950 . S
C631 C622 1.390 1_455 S
C631 H624 0.950 . S
C631 C628 1.387 . S
C632 C633 1.387 . S
C632 H636 0.950 . S
C632 C641 1.390 1_545 S
C633 C632 1.387 . S
C633 C635 1.387 . S
H634 C641 0.950 . S
C635 C633 1.387 . S
C635 C637 1.390 1_545 S
C635 H639 0.950 . S
H636 C632 0.950 . S
C637 C635 1.390 1_565 S
C637 C638 1.387 . S
C637 H640 0.950 . S
C638 C637 1.387 . S
C638 C641 1.387 . S
H639 C635 0.950 . S
H640 C637 0.950 . S
C641 C632 1.390 1_565 S
C641 H634 0.950 . S
C641 C638 1.387 . S
C642 C643 1.387 . S
C642 H646 0.950 . S
C642 C651 1.390 . S
C643 C642 1.387 . S
C643 C645 1.387 . S
H644 C651 0.950 . S
C645 C643 1.387 . S
C645 C647 1.390 . S
C645 H649 0.950 . S
H646 C642 0.950 . S
C647 C645 1.390 . S
C647 C648 1.387 . S
C647 H650 0.950 . S
C648 C647 1.387 . S
C648 C651 1.387 . S
H649 C645 0.950 . S
H650 C647 0.950 . S
C651 C642 1.390 . S
C651 H644 0.950 . S
C651 C648 1.387 . S
C652 C653 1.387 . S
C652 H656 0.950 . S
C652 C661 1.390 1_455 S
C653 C652 1.387 . S
C653 C655 1.387 . S
H654 C661 0.950 . S
C655 C653 1.387 . S
C655 C657 1.390 1_455 S
C655 H659 0.950 . S
H656 C652 0.950 . S
C657 C655 1.390 1_655 S
C657 C658 1.387 . S
C657 H660 0.950 . S
C658 C657 1.387 . S
C658 C661 1.387 . S
H659 C655 0.950 . S
H660 C657 0.950 . S
C661 C652 1.390 1_655 S
C661 H654 0.950 . S
C661 C658 1.387 . S
C662 C663 1.387 . S
C662 H666 0.950 . S
C662 C671 1.390 1_565 S
C663 C662 1.387 . S
C663 C665 1.387 . S
H664 C671 0.950 . S
C665 C663 1.387 . S
C665 C667 1.390 1_565 S
C665 H669 0.950 . S
H666 C662 0.950 . S
C667 C665 1.390 1_545 S
C667 C668 1.387 . S
C667 H670 0.950 . S
C668 C667 1.387 . S
C668 C671 1.387 . S
H669 C665 0.950 . S
H670 C667 0.950 . S
C671 C662 1.390 1_545 S
C671 H664 0.950 . S
C671 C668 1.387 . S
C672 C673 1.387 1_554 S
C672 H676 0.950 . S
C672 C681 1.390 . S
C673 C672 1.387 1_556 S
C673 C675 1.387 . S
H674 C681 0.950 . S
C675 C673 1.387 . S
C675 C677 1.390 . S
C675 H679 0.950 . S
H676 C672 0.950 . S
C677 C675 1.390 . S
C677 C678 1.387 1_556 S
C677 H680 0.950 . S
C678 C677 1.387 1_554 S
C678 C681 1.387 . S
H679 C675 0.950 . S
H680 C677 0.950 . S
C681 C672 1.390 . S
C681 H674 0.950 . S
C681 C678 1.387 . S
C682 C683 1.387 . S
C682 H686 0.950 . S
C682 C691 1.390 . S
C683 C682 1.387 . S
C683 C685 1.387 . S
H684 C691 0.950 . S
C685 C683 1.387 . S
C685 C687 1.390 . S
C685 H689 0.950 . S
H686 C682 0.950 . S
C687 C685 1.390 . S
C687 C688 1.387 . S
C687 H690 0.950 . S
C688 C687 1.387 . S
C688 C691 1.387 . S
H689 C685 0.950 . S
H690 C687 0.950 . S
C691 C682 1.390 . S
C691 H684 0.950 . S
C691 C688 1.387 . S
C692 C693 1.387 . S
C692 H696 0.950 . S
C692 C701 1.390 1_556 S
C693 C692 1.387 . S
C693 C695 1.387 . S
H694 C701 0.950 . S
C695 C693 1.387 . S
C695 C697 1.390 1_556 S
C695 H699 0.950 . S
H696 C692 0.950 . S
C697 C695 1.390 1_554 S
C697 C698 1.387 . S
C697 H700 0.950 . S
C698 C697 1.387 . S
C698 C701 1.387 . S
H699 C695 0.950 . S
H700 C697 0.950 . S
C701 C692 1.390 1_554 S
C701 H694 0.950 . S
C701 C698 1.387 . S
C702 C703 1.387 . S
C702 H706 0.950 . S
C702 C711 1.390 . S
C703 C702 1.387 . S
C703 C705 1.387 . S
H704 C711 0.950 . S
C705 C703 1.387 . S
C705 C707 1.390 . S
C705 H709 0.950 . S
H706 C702 0.950 . S
C707 C705 1.390 . S
C707 C708 1.387 . S
C707 H710 0.950 . S
C708 C707 1.387 . S
C708 C711 1.387 . S
H709 C705 0.950 . S
H710 C707 0.950 . S
C711 C702 1.390 . S
C711 H704 0.950 . S
C711 C708 1.387 . S
C712 C713 1.387 . S
C712 H716 0.950 . S
C712 C721 1.390 1_556 S
C713 C712 1.387 . S
C713 C715 1.387 . S
H714 C721 0.950 . S
C715 C713 1.387 . S
C715 C717 1.390 1_556 S
C715 H719 0.950 . S
H716 C712 0.950 . S
C717 C715 1.390 1_554 S
C717 C718 1.387 . S
C717 H720 0.950 . S
C718 C717 1.387 . S
C718 C721 1.387 . S
H719 C715 0.950 . S
H720 C717 0.950 . S
C721 C712 1.390 1_554 S
C721 H714 0.950 . S
C721 C718 1.387 . S
C722 C723 1.387 . S
C722 H726 0.950 . S
C722 C731 1.390 . S
C723 C722 1.387 . S
C723 C725 1.387 . S
H724 C731 0.950 . S
C725 C723 1.387 . S
C725 C727 1.390 . S
C725 H729 0.950 . S
H726 C722 0.950 . S
C727 C725 1.390 . S
C727 C728 1.387 . S
C727 H730 0.950 . S
C728 C727 1.387 . S
C728 C731 1.387 . S
H729 C725 0.950 . S
H730 C727 0.950 . S
C731 C722 1.390 . S
C731 H724 0.950 . S
C731 C728 1.387 . S
C732 C733 1.387 . S
C732 H736 0.950 . S
C732 C741 1.390 . S
C733 C732 1.387 . S
C733 C735 1.387 1_554 S
H734 C741 0.950 . S
C735 C733 1.387 1_556 S
C735 C737 1.390 . S
C735 H739 0.950 . S
H736 C732 0.950 . S
C737 C735 1.390 . S
C737 C738 1.387 . S
C737 H740 0.950 . S
C738 C737 1.387 . S
C738 C741 1.387 1_556 S
H739 C735 0.950 . S
H740 C737 0.950 . S
C741 C732 1.390 . S
C741 H734 0.950 . S
C741 C738 1.387 1_554 S
C742 C743 1.387 . S
C742 H746 0.950 . S
C742 C751 1.390 . S
C743 C742 1.387 . S
C743 C745 1.387 . S
H744 C751 0.950 . S
C745 C743 1.387 . S
C745 C747 1.390 . S
C745 H749 0.950 . S
H746 C742 0.950 . S
C747 C745 1.390 . S
C747 C748 1.387 . S
C747 H750 0.950 . S
C748 C747 1.387 . S
C748 C751 1.387 . S
H749 C745 0.950 . S
H750 C747 0.950 . S
C751 C742 1.390 . S
C751 H744 0.950 . S
C751 C748 1.387 . S
C752 C753 1.387 . S
C752 H756 0.950 . S
C752 C761 1.390 1_554 S
C753 C752 1.387 . S
C753 C755 1.387 . S
H754 C761 0.950 . S
C755 C753 1.387 . S
C755 C757 1.390 1_554 S
C755 H759 0.950 . S
H756 C752 0.950 . S
C757 C755 1.390 1_556 S
C757 C758 1.387 . S
C757 H760 0.950 . S
C758 C757 1.387 . S
C758 C761 1.387 . S
H759 C755 0.950 . S
H760 C757 0.950 . S
C761 C752 1.390 1_556 S
C761 H754 0.950 . S
C761 C758 1.387 . S
C762 C763 1.387 . S
C762 H766 0.950 . S
C762 C771 1.390 . S
C763 C762 1.387 . S
C763 C765 1.387 . S
H764 C771 0.950 . S
C765 C763 1.387 . S
C765 C767 1.390 . S
C765 H769 0.950 . S
H766 C762 0.950 . S
C767 C765 1.390 . S
C767 C768 1.387 . S
C767 H770 0.950 . S
C768 C767 1.387 . S
C768 C771 1.387 . S
H769 C765 0.950 . S
H770 C767 0.950 . S
C771 C762 1.390 . S
C771 H764 0.950 . S
C771 C768 1.387 . S
C772 C773 1.387 1_554 S
C772 H776 0.950 . S
C772 C781 1.390 . S
C773 C772 1.387 1_556 S
C773 C775 1.387 . S
H774 C781 0.950 . S
C775 C773 1.387 . S
C775 C777 1.390 . S
C775 H779 0.950 . S
H776 C772 0.950 . S
C777 C775 1.390 . S
C777 C778 1.387 1_556 S
C777 H780 0.950 . S
C778 C777 1.387 1_554 S
C778 C781 1.387 . S
H779 C775 0.950 . S
H780 C777 0.950 . S
C781 C772 1.390 . S
C781 H774 0.950 . S
C781 C778 1.387 . S
C782 C783 1.387 . S
C782 H786 0.950 . S
C782 C791 1.390 . S
C783 C782 1.387 . S
C783 C785 1.387 . S
H784 C791 0.950 . S
C785 C783 1.387 . S
C785 C787 1.390 . S
C785 H789 0.950 . S
H786 C782 0.950 . S
C787 C785 1.390 . S
C787 C788 1.387 . S
C787 H790 0.950 . S
C788 C787 1.387 . S
C788 C791 1.387 . S
H789 C785 0.950 . S
H790 C787 0.950 . S
C791 C782 1.390 . S
C791 H784 0.950 . S
C791 C788 1.387 . S
C313 C5 1.486 . S
C318 C200 1.486 . S
C323 C18 1.486 . S
C328 C213 1.485 . S
C333 C224 1.486 . S
C338 C31 1.485 . S
C343 C161 1.485 . S
C348 C44 1.486 . S
C353 C174 1.486 . S
C358 C57 1.486 . S
C363 C187 1.486 . S
C368 C68 1.485 . S
C373 C276 1.486 . S
C378 C83 1.486 . S
C383 C94 1.485 . S
C388 C289 1.486 . S
C393 C302 1.486 . S
C398 C107 1.485 . S
C403 C122 1.486 . S
C408 C237 1.486 . S
C413 C250 1.485 . S
C418 C133 1.486 . S
C423 C148 1.485 . S
C428 C265 1.486 . S
C433 C134 1.524 . S
C438 C10 1.524 . S
C443 C153 1.523 . S
C448 C23 1.523 . S
C453 C36 1.523 . S
C458 C88 1.523 . S
C463 C49 1.524 . S
C468 C95 1.524 . S
C473 C108 1.523 . S
C478 C62 1.524 . S
C483 C69 1.524 . S
C488 C127 1.523 . S
C493 C290 1.524 . S
C498 C166 1.524 . S
C503 C179 1.524 . S
C508 C303 1.524 . S
C513 C192 1.523 . S
C518 C238 1.523 . S
C523 C251 1.524 . S
C528 C205 1.524 . S
C533 C218 1.523 . S
C538 C270 1.523 . S
C543 C225 1.524 . S
C548 C277 1.524 . S
C553 C3 1.555 . S
C558 C239 1.556 . S
C563 C252 1.555 . S
C568 C16 1.556 . S
C573 C29 1.556 . S
C578 C263 1.555 . S
C583 C42 1.555 . S
C588 C278 1.556 . S
C593 C291 1.555 . S
C598 C55 1.556 . S
C603 C70 1.556 . S
C608 C304 1.555 . S
C613 C81 1.556 . S
C618 C159 1.555 . S
C623 C96 1.556 . S
C628 C172 1.555 . S
C633 C185 1.555 . S
C638 C109 1.556 . S
C643 C198 1.556 . S
C648 C120 1.555 . S
C653 C135 1.555 . S
C658 C211 1.556 . S
C663 C226 1.556 . S
C668 C146 1.555 . S
C673 C82 1.519 . S
C678 C4 1.519 . S
C683 C17 1.519 . S
C688 C101 1.519 . S
C693 C114 1.519 . S
C698 C30 1.519 . S
C703 C121 1.519 . S
C708 C43 1.519 . S
C713 C140 1.519 . S
C718 C56 1.519 . S
C723 C75 1.518 . S
C728 C147 1.518 . S
C733 C244 1.519 . S
C738 C160 1.519 . S
C743 C173 1.518 . S
C748 C257 1.519 . S
C753 C264 1.518 . S
C758 C186 1.518 . S
C763 C283 1.519 . S
C768 C199 1.519 . S
C773 C212 1.519 . S
C778 C296 1.519 . S
C783 C231 1.519 . S
C788 C309 1.519 . S
