# Generated by pormake.
# Topology umd, (4)-cn, num edge types: 1
# Building blocks:
#     Node 0, Type 0, BuildingBlock: MUDLON_clean_sbu_0, # of connection points: 4
#     Node 1, Type 0, BuildingBlock: MUDLON_clean_sbu_0, # of connection points: 4
#     Node 2, Type 0, BuildingBlock: MUDLON_clean_sbu_0, # of connection points: 4
#     Node 3, Type 0, BuildingBlock: MUDLON_clean_sbu_0, # of connection points: 4
#     Node 4, Type 0, BuildingBlock: MUDLON_clean_sbu_0, # of connection points: 4
#     Node 5, Type 0, BuildingBlock: MUDLON_clean_sbu_0, # of connection points: 4
#     Node 6, Type 0, BuildingBlock: MUDLON_clean_sbu_0, # of connection points: 4
#     Node 7, Type 0, BuildingBlock: MUDLON_clean_sbu_0, # of connection points: 4
#     Node 8, Type 0, BuildingBlock: MUDLON_clean_sbu_0, # of connection points: 4
#     Node 9, Type 0, BuildingBlock: MUDLON_clean_sbu_0, # of connection points: 4
#     Node 10, Type 0, BuildingBlock: MUDLON_clean_sbu_0, # of connection points: 4
#     Node 11, Type 0, BuildingBlock: MUDLON_clean_sbu_0, # of connection points: 4
#     Node 12, Type 0, BuildingBlock: MUDLON_clean_sbu_0, # of connection points: 4
#     Node 13, Type 0, BuildingBlock: MUDLON_clean_sbu_0, # of connection points: 4
#     Node 14, Type 0, BuildingBlock: MUDLON_clean_sbu_0, # of connection points: 4
#     Node 15, Type 0, BuildingBlock: MUDLON_clean_sbu_0, # of connection points: 4
#     Edge 16, Type (0, 0), BuildingBlock: XUDNAN_clean_linker_2, # of connection points: 2
#     Edge 17, Type (0, 0), BuildingBlock: XUDNAN_clean_linker_2, # of connection points: 2
#     Edge 18, Type (0, 0), BuildingBlock: XUDNAN_clean_linker_2, # of connection points: 2
#     Edge 19, Type (0, 0), BuildingBlock: XUDNAN_clean_linker_2, # of connection points: 2
#     Edge 20, Type (0, 0), BuildingBlock: XUDNAN_clean_linker_2, # of connection points: 2
#     Edge 21, Type (0, 0), BuildingBlock: XUDNAN_clean_linker_2, # of connection points: 2
#     Edge 22, Type (0, 0), BuildingBlock: XUDNAN_clean_linker_2, # of connection points: 2
#     Edge 23, Type (0, 0), BuildingBlock: XUDNAN_clean_linker_2, # of connection points: 2
#     Edge 24, Type (0, 0), BuildingBlock: XUDNAN_clean_linker_2, # of connection points: 2
#     Edge 25, Type (0, 0), BuildingBlock: XUDNAN_clean_linker_2, # of connection points: 2
#     Edge 26, Type (0, 0), BuildingBlock: XUDNAN_clean_linker_2, # of connection points: 2
#     Edge 27, Type (0, 0), BuildingBlock: XUDNAN_clean_linker_2, # of connection points: 2
#     Edge 28, Type (0, 0), BuildingBlock: XUDNAN_clean_linker_2, # of connection points: 2
#     Edge 29, Type (0, 0), BuildingBlock: XUDNAN_clean_linker_2, # of connection points: 2
#     Edge 30, Type (0, 0), BuildingBlock: XUDNAN_clean_linker_2, # of connection points: 2
#     Edge 31, Type (0, 0), BuildingBlock: XUDNAN_clean_linker_2, # of connection points: 2
#     Edge 32, Type (0, 0), BuildingBlock: XUDNAN_clean_linker_2, # of connection points: 2
#     Edge 33, Type (0, 0), BuildingBlock: XUDNAN_clean_linker_2, # of connection points: 2
#     Edge 34, Type (0, 0), BuildingBlock: XUDNAN_clean_linker_2, # of connection points: 2
#     Edge 35, Type (0, 0), BuildingBlock: XUDNAN_clean_linker_2, # of connection points: 2
#     Edge 36, Type (0, 0), BuildingBlock: XUDNAN_clean_linker_2, # of connection points: 2
#     Edge 37, Type (0, 0), BuildingBlock: XUDNAN_clean_linker_2, # of connection points: 2
#     Edge 38, Type (0, 0), BuildingBlock: XUDNAN_clean_linker_2, # of connection points: 2
#     Edge 39, Type (0, 0), BuildingBlock: XUDNAN_clean_linker_2, # of connection points: 2
#     Edge 40, Type (0, 0), BuildingBlock: XUDNAN_clean_linker_2, # of connection points: 2
#     Edge 41, Type (0, 0), BuildingBlock: XUDNAN_clean_linker_2, # of connection points: 2
#     Edge 42, Type (0, 0), BuildingBlock: XUDNAN_clean_linker_2, # of connection points: 2
#     Edge 43, Type (0, 0), BuildingBlock: XUDNAN_clean_linker_2, # of connection points: 2
#     Edge 44, Type (0, 0), BuildingBlock: XUDNAN_clean_linker_2, # of connection points: 2
#     Edge 45, Type (0, 0), BuildingBlock: XUDNAN_clean_linker_2, # of connection points: 2
#     Edge 46, Type (0, 0), BuildingBlock: XUDNAN_clean_linker_2, # of connection points: 2
#     Edge 47, Type (0, 0), BuildingBlock: XUDNAN_clean_linker_2, # of connection points: 2
# Relax obj value: 0.014
# Max RMSD: 0.192
# Mean RMSD: 0.192
data_MOF--net-umd--node1-MUDLON_clean_sbu_0--edge1-XUDNAN_clean_linker_2
_symmetry_space_group_name_H-M    P1
_symmetry_Int_Tables_number       1
_symmetry_cell_setting            triclinic
loop_
_symmetry_equiv_pos_as_xyz
'x, y, z'
_cell_length_a     41.191668
_cell_length_b     41.176201
_cell_length_c     59.601519
_cell_angle_alpha  90.114547
_cell_angle_beta   89.966629
_cell_angle_gamma 90.066855
loop_
_atom_site_label
_atom_site_type_symbol
_atom_site_fract_x
_atom_site_fract_y
_atom_site_fract_z
_atom_type_partial_charge
Mg0 Mg 0.19625 0.45086 0.15146 0.0
C1 C 0.20437 0.49601 0.10995 0.0
O2 O 0.18533 0.51613 0.1209 0.0
C3 C 0.21735 0.49755 0.18939 0.0
O4 O 0.2082 0.52031 0.17534 0.0
C5 C 0.2104 0.38123 0.1664 0.0
O6 O 0.20066 0.39198 0.18604 0.0
O7 O 0.20867 0.39982 0.14944 0.0
O8 O 0.2138 0.47008 0.11951 0.0
O9 O 0.14472 0.46051 0.15456 0.0
C10 C 0.12522 0.46385 0.13821 0.0
O11 O 0.13558 0.45861 0.11767 0.0
O12 O 0.21698 0.46807 0.18303 0.0
Mg13 Mg 0.56058 0.17594 0.64522 0.0
C14 C 0.51731 0.18915 0.60261 0.0
O15 O 0.49181 0.1814 0.61471 0.0
C16 C 0.54344 0.18838 0.69204 0.0
O17 O 0.56999 0.1708 0.69315 0.0
C18 C 0.60798 0.2282 0.64366 0.0
O19 O 0.58035 0.24144 0.63755 0.0
O20 O 0.60819 0.19817 0.64861 0.0
O21 O 0.54535 0.18903 0.61151 0.0
O22 O 0.56147 0.12334 0.64784 0.0
C23 C 0.53452 0.10819 0.64789 0.0
O24 O 0.50746 0.12491 0.64651 0.0
O25 O 0.53189 0.19508 0.6728 0.0
Mg26 Mg 0.83297 0.56406 0.1516 0.0
C27 C 0.81858 0.51777 0.11127 0.0
O28 O 0.83243 0.49489 0.12323 0.0
C29 C 0.83388 0.54555 0.1987 0.0
O30 O 0.85986 0.56361 0.19585 0.0
C31 C 0.78333 0.61263 0.15692 0.0
O32 O 0.76861 0.58435 0.15817 0.0
O33 O 0.81392 0.61299 0.15413 0.0
O34 O 0.81513 0.54599 0.11964 0.0
O35 O 0.88566 0.56118 0.15249 0.0
C36 C 0.90306 0.55081 0.13638 0.0
O37 O 0.88938 0.54429 0.11698 0.0
O38 O 0.81586 0.53971 0.18183 0.0
Mg39 Mg 0.44405 0.81643 0.64888 0.0
C40 C 0.48863 0.79247 0.60975 0.0
O41 O 0.51344 0.7998 0.62264 0.0
C42 C 0.45375 0.81091 0.69636 0.0
O43 O 0.43068 0.8325 0.69338 0.0
C44 C 0.37362 0.80159 0.63581 0.0
O45 O 0.38231 0.8139 0.61639 0.0
O46 O 0.39345 0.80247 0.65213 0.0
O47 O 0.45991 0.79587 0.61719 0.0
O48 O 0.45504 0.86825 0.64854 0.0
C49 C 0.48472 0.87433 0.65279 0.0
O50 O 0.50421 0.84988 0.65704 0.0
O51 O 0.4663 0.79762 0.67913 0.0
Mg52 Mg 0.19299 0.55878 0.39849 0.0
C53 C 0.198 0.51278 0.43946 0.0
O54 O 0.17253 0.49854 0.43056 0.0
C55 C 0.20821 0.51953 0.35323 0.0
O56 O 0.19592 0.49311 0.36217 0.0
C57 C 0.24296 0.60764 0.40293 0.0
O58 O 0.25802 0.57951 0.40287 0.0
O59 O 0.21218 0.60773 0.4015 0.0
O60 O 0.21218 0.53537 0.42868 0.0
O61 O 0.14026 0.55931 0.40025 0.0
C62 C 0.1234 0.5345 0.39507 0.0
O63 O 0.13815 0.50823 0.38783 0.0
O64 O 0.20992 0.54548 0.36482 0.0
Mg65 Mg 0.45342 0.1859 0.88821 0.0
C66 C 0.45655 0.18388 0.9361 0.0
O67 O 0.4325 0.16506 0.92962 0.0
C68 C 0.45908 0.2208 0.84387 0.0
O69 O 0.42844 0.22644 0.84848 0.0
C70 C 0.40407 0.23409 0.89691 0.0
O71 O 0.43203 0.24721 0.90251 0.0
O72 O 0.40403 0.20494 0.88973 0.0
O73 O 0.47344 0.19785 0.92105 0.0
O74 O 0.46003 0.13355 0.8851 0.0
C75 C 0.48879 0.12638 0.87902 0.0
O76 O 0.50922 0.15017 0.87489 0.0
O77 O 0.47656 0.20643 0.8584 0.0
Mg78 Mg 0.82881 0.45722 0.4028 0.0
C79 C 0.80099 0.4986 0.44374 0.0
O80 O 0.80093 0.52484 0.43124 0.0
C81 C 0.83197 0.4823 0.35697 0.0
O82 O 0.8606 0.46921 0.36038 0.0
C83 C 0.78069 0.40741 0.40049 0.0
O84 O 0.76562 0.43533 0.4029 0.0
O85 O 0.81153 0.40762 0.39933 0.0
O86 O 0.80989 0.47159 0.4354 0.0
O87 O 0.88114 0.46455 0.40457 0.0
C88 C 0.88867 0.49412 0.40806 0.0
O89 O 0.86517 0.51537 0.4105 0.0
O90 O 0.81145 0.48234 0.37294 0.0
Mg91 Mg 0.5643 0.82549 0.89268 0.0
C92 C 0.56529 0.82068 0.94111 0.0
O93 O 0.59421 0.83124 0.9353 0.0
C94 C 0.51684 0.81801 0.85409 0.0
O95 O 0.50634 0.84596 0.86186 0.0
C96 C 0.61103 0.77275 0.89483 0.0
O97 O 0.58245 0.75894 0.89727 0.0
O98 O 0.61219 0.80337 0.89223 0.0
O99 O 0.54452 0.81543 0.92575 0.0
O100 O 0.56499 0.87781 0.88768 0.0
C101 C 0.54142 0.89459 0.89521 0.0
O102 O 0.51821 0.87989 0.90642 0.0
O103 O 0.53907 0.80317 0.86466 0.0
Mg104 Mg 0.82453 0.54943 0.90052 0.0
C105 C 0.80748 0.5454 0.94913 0.0
O106 O 0.8081 0.57694 0.9459 0.0
C107 C 0.8143 0.5361 0.85284 0.0
O108 O 0.83533 0.56013 0.85307 0.0
C109 C 0.77383 0.59896 0.89963 0.0
O110 O 0.758 0.57123 0.90021 0.0
O111 O 0.80468 0.5983 0.89973 0.0
O112 O 0.8126 0.52667 0.9325 0.0
O113 O 0.87672 0.5472 0.89582 0.0
C114 C 0.89583 0.53996 0.91178 0.0
O115 O 0.88409 0.53665 0.93214 0.0
O116 O 0.80416 0.52498 0.87147 0.0
Mg117 Mg 0.46546 0.81943 0.40126 0.0
C118 C 0.46789 0.79842 0.44793 0.0
O119 O 0.43858 0.81037 0.44531 0.0
C120 C 0.46789 0.81295 0.35281 0.0
O121 O 0.4429 0.83186 0.35687 0.0
C122 C 0.41358 0.77363 0.4009 0.0
O123 O 0.44112 0.75756 0.4002 0.0
O124 O 0.41475 0.8045 0.40126 0.0
O125 O 0.48689 0.79786 0.4311 0.0
O126 O 0.47718 0.87069 0.40366 0.0
C127 C 0.46266 0.89514 0.39546 0.0
O128 O 0.43516 0.89111 0.38466 0.0
O129 O 0.48426 0.80235 0.36933 0.0
Mg130 Mg 0.19514 0.46249 0.89774 0.0
C131 C 0.21083 0.46581 0.94711 0.0
O132 O 0.20877 0.43429 0.94399 0.0
C133 C 0.20762 0.47521 0.84942 0.0
O134 O 0.19495 0.44591 0.84916 0.0
C135 C 0.24577 0.41174 0.89961 0.0
O136 O 0.26199 0.4385 0.90403 0.0
O137 O 0.21541 0.41375 0.89605 0.0
O138 O 0.20721 0.48452 0.93028 0.0
O139 O 0.14268 0.46303 0.89424 0.0
C140 C 0.12413 0.47114 0.91036 0.0
O141 O 0.13672 0.47641 0.93028 0.0
O142 O 0.21219 0.48906 0.8683 0.0
Mg143 Mg 0.56231 0.18859 0.39284 0.0
C144 C 0.55405 0.20063 0.441 0.0
O145 O 0.58492 0.19329 0.43877 0.0
C146 C 0.55849 0.21731 0.34662 0.0
O147 O 0.58939 0.22158 0.35115 0.0
C148 C 0.61103 0.24001 0.39896 0.0
O149 O 0.58313 0.25497 0.40169 0.0
O150 O 0.61076 0.20965 0.39503 0.0
O151 O 0.53646 0.20176 0.42348 0.0
O152 O 0.56224 0.13597 0.39265 0.0
C153 C 0.53555 0.12238 0.38739 0.0
O154 O 0.51092 0.1407 0.38145 0.0
O155 O 0.54019 0.20475 0.36149 0.0
Mg156 Mg 0.81914 0.45409 0.65289 0.0
C157 C 0.80628 0.46222 0.60535 0.0
O158 O 0.81965 0.43341 0.60739 0.0
C159 C 0.78513 0.46211 0.69767 0.0
O160 O 0.77006 0.43604 0.6904 0.0
C161 C 0.77028 0.4027 0.645 0.0
O162 O 0.75507 0.42943 0.63918 0.0
O163 O 0.79952 0.40485 0.65171 0.0
O164 O 0.80165 0.47899 0.62301 0.0
O165 O 0.87166 0.45601 0.64951 0.0
C166 C 0.8899 0.46712 0.66495 0.0
O167 O 0.87709 0.47483 0.68443 0.0
O168 O 0.80569 0.47601 0.68494 0.0
Mg169 Mg 0.56147 0.82567 0.15379 0.0
C170 C 0.56587 0.81536 0.10526 0.0
O171 O 0.59555 0.82308 0.11134 0.0
C172 C 0.51514 0.8166 0.19246 0.0
O173 O 0.50496 0.84499 0.18532 0.0
C174 C 0.61193 0.7773 0.15716 0.0
O175 O 0.58433 0.76127 0.15667 0.0
O176 O 0.61106 0.80813 0.15625 0.0
O177 O 0.54403 0.81368 0.1203 0.0
O178 O 0.55563 0.87741 0.15954 0.0
C179 C 0.55313 0.89774 0.14362 0.0
O180 O 0.55729 0.88785 0.12286 0.0
O181 O 0.53657 0.80158 0.18117 0.0
Mg182 Mg 0.18672 0.55658 0.64673 0.0
C183 C 0.21502 0.54589 0.60046 0.0
O184 O 0.21846 0.57747 0.60243 0.0
C185 C 0.20083 0.56009 0.69582 0.0
O186 O 0.19108 0.5897 0.69123 0.0
C187 C 0.23 0.61484 0.65024 0.0
O188 O 0.24809 0.59236 0.65958 0.0
O189 O 0.20185 0.6072 0.6432 0.0
O190 O 0.20458 0.52985 0.61726 0.0
O191 O 0.13433 0.55071 0.64425 0.0
C192 C 0.11634 0.54287 0.66074 0.0
O193 O 0.12909 0.54077 0.68087 0.0
O194 O 0.20201 0.53927 0.67998 0.0
Mg195 Mg 0.44754 0.18969 0.14985 0.0
C196 C 0.44643 0.18921 0.10066 0.0
O197 O 0.4223 0.17013 0.10656 0.0
C198 C 0.46403 0.20381 0.19637 0.0
O199 O 0.43797 0.18544 0.1975 0.0
C200 C 0.386 0.22769 0.14321 0.0
O201 O 0.40444 0.2409 0.12772 0.0
O202 O 0.39734 0.20451 0.15487 0.0
O203 O 0.46308 0.20271 0.11604 0.0
O204 O 0.4539 0.13764 0.15402 0.0
C205 C 0.4742 0.12264 0.1417 0.0
O206 O 0.48969 0.13864 0.12594 0.0
O207 O 0.47504 0.21131 0.1771 0.0
H208 H 0.07613 0.47338 0.10754 0.0
H209 H 0.09988 0.48449 0.17815 0.0
H210 H 0.04661 0.50982 0.18485 0.0
H211 H 0.03318 0.54856 0.10139 0.0
H212 H 1.00266 0.53209 0.08292 0.0
H213 H 0.04271 0.51458 0.08343 0.0
H214 H 0.01812 0.45805 0.0922 0.0
H215 H 0.97799 0.47532 0.09148 0.0
H216 H 0.9914 0.45349 0.11596 0.0
H217 H 0.99159 0.53507 0.18393 0.0
H218 H 0.93628 0.55465 0.17603 0.0
H219 H 0.94738 0.52639 0.10617 0.0
C220 C 0.07007 0.48097 0.12443 0.0
C221 C 0.09227 0.47696 0.1423 0.0
C222 C 0.08333 0.48722 0.16417 0.0
C223 C 0.05315 0.50178 0.16816 0.0
C224 C 0.03207 0.5058 0.15014 0.0
C225 C 0.03992 0.49542 0.12876 0.0
C226 C 0.0125 0.50216 0.11246 0.0
C227 C 0.02343 0.52575 0.09396 0.0
C228 C 0.99922 0.47036 0.10244 0.0
C229 C 0.98806 0.51792 0.12806 0.0
C230 C 0.99998 0.51999 0.14967 0.0
C231 C 0.98193 0.53354 0.16708 0.0
C232 C 0.95055 0.5447 0.16238 0.0
C233 C 0.93742 0.54208 0.14047 0.0
C234 C 0.9567 0.52884 0.12307 0.0
H235 H 0.45135 0.93224 0.64823 0.0
H236 H 0.54805 0.89231 0.65715 0.0
H237 H 0.57102 0.94747 0.65694 0.0
H238 H 0.47435 0.99718 0.61104 0.0
H239 H 0.44632 0.02606 0.62294 0.0
H240 H 0.43714 0.98331 0.62379 0.0
H241 H 0.4306 0.98648 0.66698 0.0
H242 H 0.43976 0.02926 0.66626 0.0
H243 H 0.46333 1.00253 0.68376 0.0
H244 H 0.58399 0.00667 0.65541 0.0
H245 H 0.58574 0.0665 0.65318 0.0
H246 H 0.48087 0.06858 0.64576 0.0
C247 C 0.47734 0.93512 0.65012 0.0
C248 C 0.49785 0.90787 0.65268 0.0
C249 C 0.53175 0.91273 0.65519 0.0
C250 C 0.54511 0.94401 0.65508 0.0
C251 C 0.52431 0.97031 0.65253 0.0
C252 C 0.49115 0.9663 0.65015 0.0
C253 C 0.47431 0.99884 0.64783 0.0
C254 C 0.45702 1.00149 0.62504 0.0
C255 C 0.4506 1.00461 0.66737 0.0
C256 C 0.50321 0.02163 0.64915 0.0
C257 C 0.5318 1.00464 0.65185 0.0
C258 C 0.56174 0.02029 0.65334 0.0
C259 C 0.5625 0.05429 0.65204 0.0
C260 C 0.53349 0.07229 0.64932 0.0
C261 C 0.5035 0.05558 0.64789 0.0
H262 H 0.08064 0.48413 0.38819 0.0
H263 H 0.08542 0.58516 0.40908 0.0
H264 H 0.02619 0.58516 0.41517 0.0
H265 H 1.00448 0.48973 0.35866 0.0
H266 H 0.99062 0.4502 0.36742 0.0
H267 H 0.03344 0.4581 0.36459 0.0
H268 H 0.04248 0.43993 0.40571 0.0
H269 H 0.99966 0.4321 0.4087 0.0
H270 H 0.01986 0.45928 0.42791 0.0
H271 H 0.96687 0.57447 0.41898 0.0
H272 H 0.91069 0.55413 0.41982 0.0
H273 H 0.94389 0.45968 0.39678 0.0
C274 C 0.06925 0.50631 0.39398 0.0
C275 C 0.08772 0.53468 0.39814 0.0
C276 C 0.07183 0.56314 0.40577 0.0
C277 C 0.03819 0.56338 0.4093 0.0
C278 C 0.02078 0.53497 0.40517 0.0
C279 C 0.03567 0.50696 0.39764 0.0
C280 C 0.01123 0.47974 0.3945 0.0
C281 C 0.00987 0.46881 0.36982 0.0
C282 C 0.01877 0.45107 0.41014 0.0
C283 C 0.98025 0.49687 0.40142 0.0
C284 C 0.98639 0.5287 0.4075 0.0
C285 C 0.96174 0.54959 0.41428 0.0
C286 C 0.92988 0.53776 0.41469 0.0
C287 C 0.92285 0.50528 0.40839 0.0
C288 C 0.9485 0.48455 0.40181 0.0
H289 H 0.49169 0.93612 0.90617 0.0
H290 H 0.58569 0.93273 0.8732 0.0
H291 H 0.58118 0.99112 0.86442 0.0
H292 H 0.45395 0.9918 0.86744 0.0
H293 H 0.43133 0.01286 0.88888 0.0
H294 H 0.44171 0.97071 0.89255 0.0
H295 H 0.46981 0.98439 0.93029 0.0
H296 H 0.45938 0.02653 0.9268 0.0
H297 H 0.50113 0.015 0.93101 0.0
H298 H 0.567 0.04963 0.85966 0.0
H299 H 0.54479 0.10508 0.85982 0.0
H300 H 0.45945 0.0709 0.89554 0.0
C301 C 0.51138 0.94762 0.89713 0.0
C302 C 0.5391 0.9298 0.89039 0.0
C303 C 0.56424 0.94583 0.87855 0.0
C304 C 0.56187 0.97898 0.87344 0.0
C305 C 0.53416 0.99574 0.88023 0.0
C306 C 0.50937 0.98068 0.89183 0.0
C307 C 0.48234 1.00441 0.89735 0.0
C308 C 0.45045 0.99434 0.88587 0.0
C309 C 0.47792 0.00778 0.92288 0.0
C310 C 0.49596 0.03527 0.88718 0.0
C311 C 0.52583 0.02961 0.87734 0.0
C312 C 0.5436 0.05434 0.86725 0.0
C313 C 0.53073 0.08579 0.86746 0.0
C314 C 0.50033 0.09237 0.87766 0.0
C315 C 0.48258 0.0666 0.88743 0.0
H316 H 0.94456 0.52795 0.94207 0.0
H317 H 0.92438 0.53215 0.87062 0.0
H318 H 0.98005 0.51339 0.86258 0.0
H319 H 0.02772 0.5566 0.93828 0.0
H320 H 0.04184 0.5304 0.96041 0.0
H321 H 1.00047 0.54452 0.96044 0.0
H322 H 0.98025 0.48495 0.96219 0.0
H323 H 0.02155 0.47064 0.9619 0.0
H324 H 0.99323 0.45645 0.94101 0.0
H325 H 0.0371 0.49195 0.86231 0.0
H326 H 0.09333 0.4744 0.8697 0.0
H327 H 0.07683 0.48553 0.94129 0.0
C328 C 0.9519 0.52516 0.92472 0.0
C329 C 0.93006 0.53147 0.90698 0.0
C330 C 0.94068 0.52757 0.88451 0.0
C331 C 0.97222 0.51677 0.87976 0.0
C332 C 0.99292 0.5102 0.89765 0.0
C333 C 0.98337 0.51464 0.91967 0.0
C334 C 0.01052 0.50628 0.93578 0.0
C335 C 0.02074 0.53624 0.94953 0.0
C336 C 1.0008 0.47789 0.95112 0.0
C337 C 0.03678 0.4963 0.91937 0.0
C338 C 0.02604 0.49849 0.89747 0.0
C339 C 0.04584 0.49028 0.87938 0.0
C340 C 0.07771 0.48019 0.88377 0.0
C341 C 0.08954 0.47862 0.90607 0.0
C342 C 0.06856 0.48649 0.92406 0.0
H343 H 0.48251 0.08612 0.37522 0.0
H344 H 0.57869 0.07825 0.40451 0.0
H345 H 0.57008 0.01942 0.41 0.0
H346 H 0.44296 0.02995 0.41163 0.0
H347 H 0.41726 0.01304 0.3901 0.0
H348 H 0.43114 0.05441 0.38795 0.0
H349 H 0.4557 0.04219 0.3488 0.0
H350 H 0.44169 1.00084 0.35075 0.0
H351 H 0.48403 0.00915 0.34566 0.0
H352 H 0.55035 0.96214 0.41354 0.0
H353 H 0.52234 0.90933 0.41293 0.0
H354 H 0.43909 0.95408 0.3807 0.0
C355 C 0.50187 0.07203 0.38268 0.0
C356 C 0.5313 0.08681 0.38947 0.0
C357 C 0.556 0.06747 0.39913 0.0
C358 C 0.55129 0.03406 0.40238 0.0
C359 C 0.52184 0.02037 0.39576 0.0
C360 C 0.49765 0.03865 0.38595 0.0
C361 C 0.46829 0.01795 0.38031 0.0
C362 C 0.43813 0.02953 0.39328 0.0
C363 C 0.46207 0.01751 0.35487 0.0
C364 C 0.47969 0.98515 0.3886 0.0
C365 C 0.5106 0.98717 0.39753 0.0
C366 C 0.52621 0.96022 0.4065 0.0
C367 C 0.50999 0.93032 0.40612 0.0
C368 C 0.47847 0.92746 0.39673 0.0
C369 C 0.46315 0.95539 0.38796 0.0
H370 H 0.93735 0.48571 0.69476 0.0
H371 H 0.91998 0.46744 0.62399 0.0
H372 H 0.97559 0.48579 0.61526 0.0
H373 H 0.98455 0.55741 0.68826 0.0
H374 H 0.01246 0.5481 0.71062 0.0
H375 H 0.97154 0.53273 0.71156 0.0
H376 H 0.99327 0.47396 0.71529 0.0
H377 H 0.03427 0.48919 0.71461 0.0
H378 H 0.02157 0.45864 0.69476 0.0
H379 H 0.03186 0.50904 0.61392 0.0
H380 H 0.08708 0.53032 0.62042 0.0
H381 H 0.06876 0.53169 0.69219 0.0
C382 C 0.94533 0.48528 0.67744 0.0
C383 C 0.92424 0.47517 0.66006 0.0
C384 C 0.93568 0.47494 0.63762 0.0
C385 C 0.96719 0.48548 0.63247 0.0
C386 C 0.98711 0.49587 0.64995 0.0
C387 C 0.97684 0.49541 0.67202 0.0
C388 C 1.00323 0.50755 0.68765 0.0
C389 C 0.99228 0.53827 0.70026 0.0
C390 C 0.01371 0.48073 0.70404 0.0
C391 C 0.02984 0.51516 0.67089 0.0
C392 C 0.01992 0.50848 0.64922 0.0
C393 C 0.04 0.51414 0.63083 0.0
C394 C 0.07128 0.5264 0.6347 0.0
C395 C 0.08232 0.53261 0.65682 0.0
C396 C 0.06111 0.52709 0.67509 0.0
H397 H 0.50459 0.08005 0.11339 0.0
H398 H 0.46256 0.08779 0.17998 0.0
H399 H 0.4798 0.03155 0.18816 0.0
H400 H 0.48088 0.9964 0.10395 0.0
H401 H 0.51738 0.98665 0.08867 0.0
H402 H 0.50174 0.02746 0.08826 0.0
H403 H 0.55717 0.049 0.10252 0.0
H404 H 0.57288 0.00821 0.10321 0.0
H405 H 0.57397 0.03302 0.12815 0.0
H406 H 0.50375 0.97533 0.18956 0.0
H407 H 0.52755 0.92119 0.18284 0.0
H408 H 0.55197 0.94956 0.11474 0.0
C409 C 0.49891 0.06988 0.12967 0.0
C410 C 0.48236 0.0883 0.1461 0.0
C411 C 0.47512 0.07405 0.16713 0.0
C412 C 0.48497 0.04221 0.17197 0.0
C413 C 0.50167 0.02488 0.1555 0.0
C414 C 0.50817 0.03804 0.13466 0.0
C415 C 0.52572 0.01401 0.11971 0.0
C416 C 0.5052 1.00563 0.09892 0.0
C417 C 0.55943 0.02684 0.11301 0.0
C418 C 0.52834 0.98534 0.13545 0.0
C419 C 0.51458 0.9922 0.15607 0.0
C420 C 0.51444 0.96962 0.17344 0.0
C421 C 0.52818 0.93899 0.16948 0.0
C422 C 0.54159 0.93111 0.14825 0.0
C423 C 0.54186 0.9548 0.13113 0.0
H424 H 0.20406 0.47035 0.32165 0.0
H425 H 0.23136 0.57163 0.32967 0.0
H426 H 0.24074 0.57577 0.28899 0.0
H427 H 0.26278 0.45186 0.27629 0.0
H428 H 0.23476 0.42544 0.26186 0.0
H429 H 0.23271 0.42953 0.29195 0.0
H430 H 0.17215 0.4459 0.28898 0.0
H431 H 0.17405 0.44194 0.25893 0.0
H432 H 0.16085 0.47961 0.27138 0.0
H433 H 0.24148 0.57086 0.24701 0.0
H434 H 0.23614 0.55609 0.20694 0.0
H435 H 0.21096 0.45756 0.22591 0.0
C436 C 0.21258 0.49324 0.31492 0.0
C437 C 0.21695 0.52064 0.32899 0.0
C438 C 0.22784 0.55022 0.31937 0.0
C439 C 0.23328 0.55285 0.29622 0.0
C440 C 0.22813 0.52563 0.28279 0.0
C441 C 0.21837 0.49626 0.29178 0.0
C442 C 0.21334 0.47112 0.27346 0.0
C443 C 0.23733 0.44281 0.27605 0.0
C444 C 0.178 0.45894 0.27318 0.0
C445 C 0.22102 0.49117 0.25278 0.0
C446 C 0.22954 0.52255 0.25854 0.0
C447 C 0.23542 0.54619 0.2423 0.0
C448 C 0.23228 0.53762 0.21958 0.0
C449 C 0.22362 0.5056 0.21327 0.0
C450 C 0.21837 0.48205 0.23017 0.0
H451 H 0.56025 0.17338 0.73517 0.0
H452 H 0.49124 0.22954 0.69627 0.0
H453 H 0.46534 0.24832 0.73144 0.0
H454 H 0.50462 0.14633 0.77614 0.0
H455 H 0.53317 0.14842 0.79901 0.0
H456 H 0.54745 0.14147 0.77088 0.0
H457 H 0.58555 0.19138 0.7743 0.0
H458 H 0.57117 0.19863 0.80242 0.0
H459 H 0.56877 0.23037 0.78171 0.0
H460 H 0.44529 0.25848 0.77079 0.0
H461 H 0.43079 0.25711 0.81096 0.0
H462 H 0.51323 0.19439 0.82403 0.0
C463 C 0.53988 0.18988 0.73399 0.0
C464 C 0.52783 0.2001 0.71294 0.0
C465 C 0.5009 0.22142 0.71219 0.0
C466 C 0.48615 0.23232 0.73208 0.0
C467 C 0.49867 0.22174 0.75255 0.0
C468 C 0.52487 0.20091 0.75362 0.0
C469 C 0.53259 0.19169 0.77763 0.0
C470 C 0.52924 0.1548 0.78111 0.0
C471 C 0.56653 0.20375 0.78441 0.0
C472 C 0.50627 0.21015 0.78994 0.0
C473 C 0.48715 0.22758 0.77519 0.0
C474 C 0.46028 0.24518 0.7825 0.0
C475 C 0.45226 0.24426 0.80537 0.0
C476 C 0.47099 0.22582 0.82068 0.0
C477 C 0.49877 0.20918 0.81285 0.0
H478 H 0.87564 0.53765 0.23337 0.0
H479 H 0.7741 0.52749 0.21551 0.0
H480 H 0.76129 0.51253 0.2549 0.0
H481 H 0.87839 0.46972 0.27108 0.0
H482 H 0.90646 0.48945 0.28988 0.0
H483 H 0.9067 0.4994 0.26049 0.0
H484 H 0.89866 0.56018 0.2705 0.0
H485 H 0.89795 0.55036 0.29992 0.0
H486 H 0.86451 0.5721 0.28755 0.0
H487 H 0.76014 0.50081 0.29742 0.0
H488 H 0.77166 0.48715 0.3372 0.0
H489 H 0.87425 0.50354 0.3254 0.0
C490 C 0.85067 0.53221 0.23768 0.0
C491 C 0.82581 0.53387 0.22147 0.0
C492 C 0.79352 0.52621 0.22772 0.0
C493 C 0.78603 0.51794 0.25005 0.0
C494 C 0.81119 0.51712 0.26575 0.0
C495 C 0.84293 0.52359 0.25966 0.0
C496 C 0.86588 0.52017 0.27926 0.0
C497 C 0.89081 0.49307 0.27491 0.0
C498 C 0.88273 0.55264 0.28462 0.0
C499 C 0.8422 0.51084 0.29748 0.0
C500 C 0.81068 0.50953 0.28958 0.0
C501 C 0.78477 0.50164 0.3037 0.0
C502 C 0.79147 0.49415 0.32628 0.0
C503 C 0.82383 0.49423 0.3343 0.0
C504 C 0.84927 0.50313 0.31971 0.0
H505 H 0.47024 0.84422 0.82696 0.0
H506 H 0.54218 0.76738 0.82967 0.0
H507 H 0.53142 0.75433 0.7899 0.0
H508 H 0.41368 0.80232 0.78813 0.0
H509 H 0.4036 0.83969 0.77407 0.0
H510 H 0.41443 0.84019 0.80336 0.0
H511 H 0.45966 0.8823 0.79495 0.0
H512 H 0.44925 0.88166 0.76566 0.0
H513 H 0.49024 0.87288 0.77429 0.0
H514 H 0.51718 0.7541 0.74844 0.0
H515 H 0.498 0.76461 0.70971 0.0
H516 H 0.43514 0.84091 0.73501 0.0
C517 C 0.48323 0.82415 0.81938 0.0
C518 C 0.50702 0.80683 0.83146 0.0
C519 C 0.52368 0.78092 0.82081 0.0
C520 C 0.51779 0.77334 0.79819 0.0
C521 C 0.4949 0.79164 0.78656 0.0
C522 C 0.47756 0.8162 0.79691 0.0
C523 C 0.45554 0.8334 0.78051 0.0
C524 C 0.41969 0.8286 0.7869 0.0
C525 C 0.46421 0.8697 0.77876 0.0
C526 C 0.46389 0.81536 0.75917 0.0
C527 C 0.48649 0.79122 0.76292 0.0
C528 C 0.49909 0.7726 0.74537 0.0
C529 C 0.48818 0.77881 0.72344 0.0
C530 C 0.46496 0.80344 0.71934 0.0
C531 C 0.45266 0.82167 0.73755 0.0
H532 H 0.83738 0.5504 0.81101 0.0
H533 H 0.76626 0.49085 0.84562 0.0
H534 H 0.74839 0.46814 0.80919 0.0
H535 H 0.78888 0.56794 0.76169 0.0
H536 H 0.82304 0.56549 0.74286 0.0
H537 H 0.829 0.5782 0.7715 0.0
H538 H 0.87153 0.53256 0.77703 0.0
H539 H 0.86582 0.51982 0.7484 0.0
H540 H 0.86049 0.4911 0.7709 0.0
H541 H 0.73971 0.45071 0.76902 0.0
H542 H 0.74239 0.43796 0.7286 0.0
H543 H 0.81962 0.50885 0.7205 0.0
C544 C 0.81785 0.53278 0.81097 0.0
C545 C 0.80311 0.52248 0.83117 0.0
C546 C 0.77788 0.49911 0.83036 0.0
C547 C 0.7675 0.48618 0.80974 0.0
C548 C 0.78262 0.49688 0.79015 0.0
C549 C 0.80733 0.51957 0.79062 0.0
C550 C 0.82059 0.52599 0.76734 0.0
C551 C 0.81504 0.56151 0.76045 0.0
C552 C 0.85674 0.51681 0.76584 0.0
C553 C 0.79972 0.50309 0.75366 0.0
C554 C 0.77779 0.48671 0.76709 0.0
C555 C 0.75665 0.46352 0.75834 0.0
C556 C 0.75837 0.45647 0.73533 0.0
C557 C 0.78116 0.47246 0.72133 0.0
C558 C 0.80171 0.49642 0.73066 0.0
H559 H 0.44577 0.84273 0.31508 0.0
H560 H 0.5103 0.7662 0.33755 0.0
H561 H 0.52502 0.75455 0.29802 0.0
H562 H 0.41805 0.80385 0.26343 0.0
H563 H 0.41791 0.8415 0.24804 0.0
H564 H 0.41036 0.84162 0.27783 0.0
H565 H 0.45746 0.88261 0.28367 0.0
H566 H 0.46497 0.88279 0.25395 0.0
H567 H 0.49731 0.8729 0.27311 0.0
H568 H 0.53435 0.75328 0.25597 0.0
H569 H 0.54132 0.76544 0.2157 0.0
H570 H 0.47139 0.84382 0.22147 0.0
C571 C 0.46268 0.82319 0.31173 0.0
C572 C 0.47673 0.80518 0.32936 0.0
C573 C 0.4992 0.78024 0.32426 0.0
C574 C 0.50754 0.77335 0.30188 0.0
C575 C 0.49322 0.79169 0.28488 0.0
C576 C 0.47143 0.81624 0.28961 0.0
C577 C 0.46129 0.83411 0.2686 0.0
C578 C 0.42473 0.83001 0.26422 0.0
C579 C 0.47084 0.87022 0.26992 0.0
C580 C 0.48121 0.81617 0.25126 0.0
C581 C 0.49909 0.79145 0.26088 0.0
C582 C 0.5203 0.77243 0.24826 0.0
C583 C 0.524 0.77947 0.22536 0.0
C584 C 0.50688 0.8056 0.2154 0.0
C585 C 0.48466 0.82356 0.22851 0.0
H586 H 0.19967 0.45159 0.80666 0.0
H587 H 0.22847 0.53804 0.84345 0.0
H588 H 0.23398 0.56779 0.80767 0.0
H589 H 0.25315 0.46425 0.7579 0.0
H590 H 0.22339 0.44907 0.73834 0.0
H591 H 0.2243 0.43386 0.76667 0.0
H592 H 0.16387 0.44963 0.77175 0.0
H593 H 0.16278 0.46493 0.7435 0.0
H594 H 0.15143 0.4909 0.76658 0.0
H595 H 0.23131 0.58944 0.76837 0.0
H596 H 0.22227 0.60121 0.72829 0.0
H597 H 0.19666 0.50037 0.71661 0.0
C598 C 0.20763 0.47665 0.80723 0.0
C599 C 0.21371 0.49246 0.82794 0.0
C600 C 0.22381 0.52535 0.82785 0.0
C601 C 0.22701 0.54244 0.80759 0.0
C602 C 0.22031 0.52625 0.78753 0.0
C603 C 0.21106 0.49401 0.78717 0.0
C604 C 0.20386 0.4827 0.76342 0.0
C605 C 0.2276 0.45588 0.75616 0.0
C606 C 0.16838 0.47138 0.76119 0.0
C607 C 0.20981 0.51382 0.75049 0.0
C608 C 0.21937 0.5386 0.76475 0.0
C609 C 0.2243 0.57011 0.75702 0.0
C610 C 0.219 0.57657 0.73423 0.0
C611 C 0.20906 0.55165 0.7193 0.0
C612 C 0.20489 0.51975 0.72753 0.0
H613 H 0.50152 0.19653 0.32729 0.0
H614 H 0.58885 0.25231 0.3139 0.0
H615 H 0.57214 0.25862 0.27442 0.0
H616 H 0.50239 0.15242 0.27727 0.0
H617 H 0.459 0.15201 0.27342 0.0
H618 H 0.47575 0.15511 0.30121 0.0
H619 H 0.44327 0.20807 0.3081 0.0
H620 H 0.42623 0.20503 0.28033 0.0
H621 H 0.44737 0.24142 0.28875 0.0
H622 H 0.54841 0.25477 0.2356 0.0
H623 H 0.51897 0.24136 0.20061 0.0
H624 H 0.44746 0.18797 0.2394 0.0
C625 C 0.51673 0.21072 0.31619 0.0
C626 C 0.5464 0.22407 0.32372 0.0
C627 C 0.56597 0.2419 0.30852 0.0
C628 C 0.55666 0.2457 0.28606 0.0
C629 C 0.52767 0.23158 0.27902 0.0
C630 C 0.50789 0.21459 0.29366 0.0
C631 C 0.47909 0.19994 0.28152 0.0
C632 C 0.47908 0.16267 0.28347 0.0
C633 C 0.4471 0.2145 0.29019 0.0
C634 C 0.48615 0.21075 0.25774 0.0
C635 C 0.51412 0.22921 0.25664 0.0
C636 C 0.52625 0.24066 0.23628 0.0
C637 C 0.50942 0.23287 0.21649 0.0
C638 C 0.48087 0.21372 0.21724 0.0
C639 C 0.46906 0.20288 0.23822 0.0
H640 H 0.22687 0.43224 0.98505 0.0
H641 H 0.20151 0.52865 0.96168 0.0
H642 H 0.20171 0.54851 1.00092 0.0
H643 H 0.17748 0.43198 0.03255 0.0
H644 H 0.20561 0.41009 0.05004 0.0
H645 H 0.20644 0.4045 1.02012 0.0
H646 H 0.26735 0.42034 1.01937 0.0
H647 H 0.26671 0.42593 0.04936 0.0
H648 H 0.28007 0.45849 0.0314 0.0
H649 H 0.19889 0.55608 0.04337 0.0
H650 H 0.19538 0.5511 0.0847 0.0
H651 H 0.22466 0.45017 0.0797 0.0
C652 C 0.22186 0.45768 0.9881 0.0
C653 C 0.2142 0.4789 0.97024 0.0
C654 C 0.20766 0.51197 0.97504 0.0
C655 C 0.20768 0.52346 0.9973 0.0
C656 C 0.21473 0.50169 1.01455 0.0
C657 C 0.22206 0.46956 1.01012 0.0
C658 C 0.22739 0.45065 0.03158 0.0
C659 C 0.20276 0.42267 0.03369 0.0
C660 C 0.26247 0.43812 0.033 0.0
C661 C 0.22111 0.47691 0.04886 0.0
C662 C 0.21393 0.50623 0.03877 0.0
C663 C 0.20504 0.53337 0.05142 0.0
C664 C 0.20308 0.53032 0.07489 0.0
C665 C 0.21013 0.50039 0.08552 0.0
C666 C 0.21978 0.4736 0.07221 0.0
H667 H 0.58751 0.21016 0.47975 0.0
H668 H 0.48969 0.19943 0.45386 0.0
H669 H 0.46832 0.1998 0.49277 0.0
H670 H 0.57955 0.15784 0.52475 0.0
H671 H 0.60427 0.18138 0.54372 0.0
H672 H 0.61103 0.18398 0.51398 0.0
H673 H 0.60329 0.24642 0.51558 0.0
H674 H 0.59668 0.24405 0.54542 0.0
H675 H 0.56676 0.26298 0.5277 0.0
H676 H 0.45881 0.19552 0.53521 0.0
H677 H 0.462 0.18883 0.57646 0.0
H678 H 0.56629 0.20336 0.57336 0.0
C679 C 0.5615 0.20844 0.48218 0.0
C680 C 0.54025 0.20475 0.46378 0.0
C681 C 0.5064 0.2025 0.46772 0.0
C682 C 0.49408 0.20264 0.48976 0.0
C683 C 0.51591 0.20549 0.50758 0.0
C684 C 0.54889 0.20875 0.50392 0.0
C685 C 0.56761 0.20978 0.52571 0.0
C686 C 0.59204 0.18156 0.52711 0.0
C687 C 0.58458 0.24277 0.52878 0.0
C688 C 0.54019 0.20559 0.5423 0.0
C689 C 0.51046 0.2034 0.53166 0.0
C690 C 0.48194 0.19767 0.54369 0.0
C691 C 0.48398 0.19386 0.56712 0.0
C692 C 0.51436 0.19566 0.57821 0.0
C693 C 0.54261 0.20206 0.56552 0.0
H694 H 0.7975 0.56302 0.0812 0.0
H695 H 0.82506 0.46161 0.08643 0.0
H696 H 0.81961 0.45581 0.04525 0.0
H697 H 0.73969 0.55428 0.03421 0.0
H698 H 0.75239 0.59219 1.02191 0.0
H699 H 0.75408 0.58683 0.05188 0.0
H700 H 0.81516 0.60207 0.05151 0.0
H701 H 0.81373 0.6073 1.02159 0.0
H702 H 0.84262 0.57961 0.03375 0.0
H703 H 0.81628 0.46295 1.00283 0.0
H704 H 0.81628 0.48251 0.96357 0.0
H705 H 0.79202 0.57934 0.98699 0.0
C706 C 0.80167 0.53932 0.07383 0.0
C707 C 0.81153 0.5127 0.08711 0.0
C708 C 0.81727 0.48231 0.07665 0.0
C709 C 0.81421 0.47879 0.05326 0.0
C710 C 0.80527 0.50584 0.04062 0.0
C711 C 0.79895 0.53547 0.05063 0.0
C712 C 0.79245 0.56154 0.03337 0.0
C713 C 0.75758 0.57446 0.03547 0.0
C714 C 0.81748 0.58924 0.03517 0.0
C715 C 0.79689 0.54222 1.01201 0.0
C716 C 0.80384 0.51004 1.01644 0.0
C717 C 0.81046 0.48802 0.9992 0.0
C718 C 0.8104 0.49934 0.97695 0.0
C719 C 0.8041 0.53245 0.97219 0.0
C720 C 0.79677 0.55386 0.99001 0.0
H721 H 0.44158 0.78278 0.57829 0.0
H722 H 0.54621 0.78611 0.5865 0.0
H723 H 0.5529 0.78059 0.54538 0.0
H724 H 0.43911 0.72637 0.5297 0.0
H725 H 0.40595 0.74828 0.51712 0.0
H726 H 0.40992 0.74695 0.54721 0.0
H727 H 0.40944 0.80988 0.54865 0.0
H728 H 0.40564 0.81143 0.51865 0.0
H729 H 0.43865 0.83233 0.53231 0.0
H730 H 0.54748 0.78119 0.50269 0.0
H731 H 0.53044 0.78946 0.46321 0.0
H732 H 0.42959 0.78693 0.48411 0.0
C733 C 0.466 0.7815 0.5716 0.0
C734 C 0.49338 0.78471 0.58567 0.0
C735 C 0.52485 0.78348 0.57607 0.0
C736 C 0.52888 0.78029 0.55273 0.0
C737 C 0.50122 0.77818 0.53928 0.0
C738 C 0.47039 0.77859 0.54847 0.0
C739 C 0.44448 0.77937 0.53055 0.0
C740 C 0.42365 0.74839 0.53119 0.0
C741 C 0.42334 0.81007 0.53267 0.0
C742 C 0.46546 0.78038 0.50977 0.0
C743 C 0.49812 0.77912 0.515 0.0
C744 C 0.52196 0.78173 0.49842 0.0
C745 C 0.51208 0.78638 0.47605 0.0
C746 C 0.47871 0.78884 0.47062 0.0
C747 C 0.45529 0.78505 0.4877 0.0
H748 H 0.23045 0.55365 0.46802 0.0
H749 H 0.18166 0.46034 0.46546 0.0
H750 H 0.18762 0.4551 0.5066 0.0
H751 H 0.28662 0.53559 0.51554 0.0
H752 H 0.28193 0.57585 0.52701 0.0
H753 H 0.27905 0.56945 0.49714 0.0
H754 H 0.22236 0.59666 0.49705 0.0
H755 H 0.22499 0.603 0.52683 0.0
H756 H 0.191 0.5811 0.51521 0.0
H757 H 0.19341 0.46305 0.54862 0.0
H758 H 0.1962 0.48449 0.58737 0.0
H759 H 0.23942 0.57342 0.56223 0.0
C760 C 0.22201 0.53158 0.47598 0.0
C761 C 0.20602 0.50715 0.46344 0.0
C762 C 0.19429 0.47921 0.47467 0.0
C763 C 0.19763 0.476 0.49805 0.0
C764 C 0.21267 0.501 0.51001 0.0
C765 C 0.22471 0.52825 0.4993 0.0
C766 C 0.23644 0.55333 0.5161 0.0
C767 C 0.2732 0.55887 0.51381 0.0
C768 C 0.21756 0.58539 0.51365 0.0
C769 C 0.22829 0.53639 0.53793 0.0
C770 C 0.21516 0.50598 0.53413 0.0
C771 C 0.20407 0.48665 0.55177 0.0
C772 C 0.2058 0.49902 0.57377 0.0
C773 C 0.21812 0.53061 0.57792 0.0
C774 C 0.23012 0.54908 0.55971 0.0
H775 H 0.42135 0.15866 0.97045 0.0
H776 H 0.50382 0.22127 0.95683 0.0
H777 H 0.51087 0.23012 0.99778 0.0
H778 H 0.38878 0.20485 1.01571 0.0
H779 H 0.37575 0.16954 0.03111 0.0
H780 H 0.37806 0.1681 1.00097 0.0
H781 H 0.41621 0.11814 1.00326 0.0
H782 H 0.41394 0.11935 0.03342 0.0
H783 H 0.45289 0.12073 1.01966 0.0
H784 H 0.5079 0.23175 0.04112 0.0
H785 H 0.49551 0.22584 0.08166 0.0
H786 H 0.4147 0.16251 0.06507 0.0
C787 C 0.44104 0.17419 0.97595 0.0
C788 C 0.4621 0.18922 0.9604 0.0
C789 C 0.48743 0.20944 0.96844 0.0
C790 C 0.49157 0.21461 0.99166 0.0
C791 C 0.47014 0.19943 1.0065 0.0
C792 C 0.44539 0.17963 0.99884 0.0
C793 C 0.42528 0.1662 1.01788 0.0
C794 C 0.38988 0.17788 1.01632 0.0
C795 C 0.42722 0.1289 1.01859 0.0
C796 C 0.44253 0.18138 0.03762 0.0
C797 C 0.46834 0.2005 0.03089 0.0
C798 C 0.48772 0.21683 0.04649 0.0
C799 C 0.48049 0.21335 0.06947 0.0
C800 C 0.45413 0.19373 0.07657 0.0
C801 C 0.43502 0.17772 0.0603 0.0
H802 H 0.79969 0.44817 0.47323 0.0
H803 H 0.78811 0.55278 0.46973 0.0
H804 H 0.78294 0.55491 0.51116 0.0
H805 H 0.74474 0.43366 0.52071 0.0
H806 H 0.77066 0.40248 0.53202 0.0
H807 H 0.76932 0.40928 0.50217 0.0
H808 H 0.83176 0.41734 0.5017 0.0
H809 H 0.83329 0.41074 0.53148 0.0
H810 H 0.84981 0.44754 0.51976 0.0
H811 H 0.78387 0.54527 0.55383 0.0
H812 H 0.79169 0.52504 0.59266 0.0
H813 H 0.80368 0.42729 0.56671 0.0
C814 C 0.79547 0.47157 0.48103 0.0
C815 C 0.79422 0.50032 0.46817 0.0
C816 C 0.78896 0.53038 0.4792 0.0
C817 C 0.78599 0.53181 0.50273 0.0
C818 C 0.78816 0.50295 0.51492 0.0
C819 C 0.79262 0.47341 0.50431 0.0
C820 C 0.79655 0.44608 0.52096 0.0
C821 C 0.76865 0.42143 0.51884 0.0
C822 C 0.82983 0.42948 0.51831 0.0
C823 C 0.79441 0.46485 0.54269 0.0
C824 C 0.78915 0.49756 0.53903 0.0
C825 C 0.78767 0.51964 0.55683 0.0
C826 C 0.79211 0.50797 0.57882 0.0
C827 C 0.79835 0.47462 0.5827 0.0
C828 C 0.79897 0.45293 0.56435 0.0
H829 H 0.60845 0.81784 0.07046 0.0
H830 H 0.50625 0.80411 0.08543 0.0
H831 H 0.49449 0.80093 0.04466 0.0
H832 H 0.5979 0.86941 0.02444 0.0
H833 H 0.63172 0.85322 1.00883 0.0
H834 H 0.63191 0.85171 0.03899 0.0
H835 H 0.64034 0.78932 0.03757 0.0
H836 H 0.64031 0.79065 1.00736 0.0
H837 H 0.61228 0.76444 1.02191 0.0
H838 H 0.49435 0.80213 1.00144 0.0
H839 H 0.50582 0.80809 0.96076 0.0
H840 H 0.60798 0.82175 0.9758 0.0
C841 C 0.58358 0.81379 0.06529 0.0
C842 C 0.55827 0.81116 0.08115 0.0
C843 C 0.52606 0.80606 0.07356 0.0
C844 C 0.51918 0.80423 0.05045 0.0
C845 C 0.54479 0.80742 0.03525 0.0
C846 C 0.57635 0.81199 0.04248 0.0
C847 C 0.59953 0.81615 1.02307 0.0
C848 C 0.61623 0.84961 0.02389 0.0
C849 C 0.62459 0.78849 1.02245 0.0
C850 C 0.57612 0.81377 1.00367 0.0
C851 C 0.54466 0.80845 1.01086 0.0
C852 C 0.51895 0.80612 0.99568 0.0
C853 C 0.52566 0.80953 0.97263 0.0
C854 C 0.55776 0.81547 0.96511 0.0
C855 C 0.58315 0.81732 0.98094 0.0
H856 H 0.24922 0.36141 0.13184 0.0
H857 H 0.21446 0.33228 0.19753 0.0
H858 H 0.25141 0.28496 0.19663 0.0
H859 H 0.26407 0.2787 0.10865 0.0
H860 H 0.30041 0.29191 0.09446 0.0
H861 H 0.2673 0.31987 0.09864 0.0
H862 H 0.30645 0.36 0.11847 0.0
H863 H 0.33955 0.33218 0.11451 0.0
H864 H 0.32963 0.34638 0.14231 0.0
H865 H 0.29662 0.2444 0.19026 0.0
H866 H 0.34695 0.21551 0.17964 0.0
H867 H 0.35292 0.27297 0.11881 0.0
C868 C 0.24857 0.34456 0.14576 0.0
C869 C 0.22867 0.35036 0.16467 0.0
C870 C 0.2293 0.32818 0.18279 0.0
C871 C 0.25017 0.3012 0.1824 0.0
C872 C 0.27022 0.29678 0.16377 0.0
C873 C 0.26947 0.31786 0.14575 0.0
C874 C 0.29579 0.31 0.12887 0.0
C875 C 0.281 0.29949 0.10632 0.0
C876 C 0.31923 0.33885 0.12588 0.0
C877 C 0.31215 0.28181 0.14049 0.0
C878 C 0.29673 0.2741 0.16039 0.0
C879 C 0.3086 0.24996 0.17457 0.0
C880 C 0.33722 0.23368 0.16839 0.0
C881 C 0.35386 0.24196 0.14839 0.0
C882 C 0.34071 0.26595 0.13416 0.0
H883 H 0.70784 0.39218 0.63185 0.0
H884 H 0.79222 0.34258 0.65862 0.0
H885 H 0.76062 0.29135 0.66029 0.0
H886 H 0.64948 0.35302 0.6657 0.0
H887 H 0.61905 0.35142 0.644 0.0
H888 H 0.64898 0.38328 0.64389 0.0
H889 H 0.66603 0.36721 0.60347 0.0
H890 H 0.63605 0.33534 0.60343 0.0
H891 H 0.67796 0.32593 0.59764 0.0
H892 H 0.71806 0.24571 0.66013 0.0
H893 H 0.66919 0.21058 0.65802 0.0
H894 H 0.61397 0.29168 0.63165 0.0
C895 C 0.71989 0.37055 0.63792 0.0
C896 C 0.75254 0.37139 0.64508 0.0
C897 C 0.76724 0.34248 0.65297 0.0
C898 C 0.74948 0.3133 0.65399 0.0
C899 C 0.71714 0.31349 0.647 0.0
C900 C 0.70262 0.34144 0.63905 0.0
C901 C 0.66741 0.3358 0.6331 0.0
C902 C 0.64492 0.35714 0.64754 0.0
C903 C 0.66154 0.34139 0.60791 0.0
C904 C 0.66414 0.30034 0.63912 0.0
C905 C 0.69301 0.2877 0.64702 0.0
C906 C 0.6954 0.25539 0.65387 0.0
C907 C 0.66754 0.23563 0.65263 0.0
C908 C 0.63775 0.24835 0.64469 0.0
C909 C 0.63631 0.28111 0.63781 0.0
H910 H 0.71814 0.61741 0.16304 0.0
H911 H 0.8045 0.67608 0.15299 0.0
H912 H 0.77051 0.72579 0.15339 0.0
H913 H 0.66652 0.66215 0.1276 0.0
H914 H 0.63123 0.65701 0.14513 0.0
H915 H 0.66276 0.62682 0.14523 0.0
H916 H 0.66862 0.6331 0.18835 0.0
H917 H 0.63704 0.6633 0.1884 0.0
H918 H 0.67623 0.67271 0.20018 0.0
H919 H 0.72548 0.7691 0.15364 0.0
H920 H 0.67445 0.80108 0.1534 0.0
H921 H 0.61931 0.71232 0.16304 0.0
C922 C 0.7301 0.64066 0.16107 0.0
C923 C 0.764 0.64286 0.158 0.0
C924 C 0.77854 0.67384 0.15542 0.0
C925 C 0.75944 0.70217 0.15563 0.0
C926 C 0.72594 0.699 0.15851 0.0
C927 C 0.71154 0.66893 0.16123 0.0
C928 C 0.67512 0.67156 0.16337 0.0
C929 C 0.65791 0.65331 0.14419 0.0
C930 C 0.66359 0.65946 0.18645 0.0
C931 C 0.67104 0.70782 0.1612 0.0
C932 C 0.7005 0.72344 0.15853 0.0
C933 C 0.70233 0.75707 0.15582 0.0
C934 C 0.67326 0.77503 0.15572 0.0
C935 C 0.6429 0.75921 0.15819 0.0
C936 C 0.64206 0.72522 0.1611 0.0
H937 H 0.27999 0.64288 0.67313 0.0
H938 H 0.21014 0.66136 0.62027 0.0
H939 H 0.23604 0.71466 0.61305 0.0
H940 H 0.28547 0.72765 0.69349 0.0
H941 H 0.32825 0.72403 0.6993 0.0
H942 H 0.30225 0.68894 0.70148 0.0
H943 H 0.33918 0.65778 0.67357 0.0
H944 H 0.36522 0.69269 0.67131 0.0
H945 H 0.3475 0.67517 0.64642 0.0
H946 H 0.27443 0.76265 0.60854 0.0
H947 H 0.31985 0.80215 0.60855 0.0
H948 H 0.36193 0.75327 0.66598 0.0
C949 C 0.26981 0.65834 0.66025 0.0
C950 C 0.24311 0.64801 0.64722 0.0
C951 C 0.23048 0.66893 0.63054 0.0
C952 C 0.24505 0.69921 0.62632 0.0
C953 C 0.27179 0.70841 0.63924 0.0
C954 C 0.2837 0.68873 0.65609 0.0
C955 C 0.31346 0.70342 0.66699 0.0
C956 C 0.30695 0.7115 0.69178 0.0
C957 C 0.34308 0.68093 0.6644 0.0
C958 C 0.31717 0.73396 0.65316 0.0
C959 C 0.29291 0.73654 0.63725 0.0
C960 C 0.29312 0.76126 0.62125 0.0
C961 C 0.319 0.78356 0.62136 0.0
C962 C 0.34414 0.78112 0.63747 0.0
C963 C 0.34267 0.75635 0.65381 0.0
H964 H 0.40653 0.7085 0.40538 0.0
H965 H 0.35076 0.79726 0.39857 0.0
H966 H 0.29981 0.76491 0.39952 0.0
H967 H 0.35783 0.65906 0.37055 0.0
H968 H 0.36284 0.62334 0.38763 0.0
H969 H 0.39409 0.65389 0.38709 0.0
H970 H 0.39075 0.65921 0.43041 0.0
H971 H 0.35945 0.62866 0.43109 0.0
H972 H 0.35223 0.66798 0.44345 0.0
H973 H 0.25481 0.72106 0.40013 0.0
H974 H 0.22112 0.67102 0.40035 0.0
H975 H 0.30841 0.61297 0.40711 0.0
C976 C 0.38368 0.72134 0.40413 0.0
C977 C 0.38262 0.75542 0.40184 0.0
C978 C 0.35211 0.77113 0.40035 0.0
C979 C 0.3231 0.75295 0.40088 0.0
C980 C 0.32516 0.71923 0.40305 0.0
C981 C 0.3548 0.70375 0.40472 0.0
C982 C 0.35102 0.6674 0.40664 0.0
C983 C 0.3674 0.64991 0.3868 0.0
C984 C 0.36413 0.6551 0.42924 0.0
C985 C 0.31455 0.66457 0.4055 0.0
C986 C 0.29984 0.69458 0.40352 0.0
C987 C 0.26616 0.69749 0.40178 0.0
C988 C 0.24723 0.66898 0.40193 0.0
C989 C 0.26211 0.63808 0.40375 0.0
C990 C 0.29618 0.63614 0.40572 0.0
H991 H 0.39947 0.29701 0.9104 0.0
H992 H 0.34166 0.21734 0.88421 0.0
H993 H 0.29345 0.25344 0.88335 0.0
H994 H 0.3373 0.33316 0.94541 0.0
H995 H 0.35056 0.37395 0.93934 0.0
H996 H 0.37937 0.34108 0.93908 0.0
H997 H 0.39599 0.35614 0.89843 0.0
H998 H 0.36717 0.38894 0.89852 0.0
H999 H 0.36528 0.35826 0.87695 0.0
H1000 H 0.25196 0.3001 0.88418 0.0
H1001 H 0.22188 0.35215 0.88627 0.0
H1002 H 0.30862 0.39992 0.91125 0.0
C1003 C 0.37666 0.28688 0.90467 0.0
C1004 C 0.37433 0.25428 0.89742 0.0
C1005 C 0.34398 0.24222 0.88993 0.0
C1006 C 0.3165 0.26255 0.88938 0.0
C1007 C 0.31987 0.29477 0.8964 0.0
C1008 C 0.34927 0.30671 0.90394 0.0
C1009 C 0.34723 0.34237 0.90981 0.0
C1010 C 0.35401 0.34795 0.9349 0.0
C1011 C 0.37028 0.36261 0.89504 0.0
C1012 C 0.31213 0.34893 0.90417 0.0
C1013 C 0.29653 0.32125 0.89661 0.0
C1014 C 0.26397 0.32184 0.89016 0.0
C1015 C 0.24709 0.3515 0.8914 0.0
C1016 C 0.2629 0.38014 0.89888 0.0
C1017 C 0.29578 0.37855 0.90541 0.0
H1018 H 0.61757 0.30524 0.40493 0.0
H1019 H 0.67369 0.21762 0.39353 0.0
H1020 H 0.72419 0.25046 0.39302 0.0
H1021 H 0.66311 0.35645 0.36885 0.0
H1022 H 0.65931 0.39159 0.38674 0.0
H1023 H 0.62823 0.36084 0.38688 0.0
H1024 H 0.63507 0.3541 0.42988 0.0
H1025 H 0.66611 0.38492 0.42989 0.0
H1026 H 0.67465 0.34529 0.44123 0.0
H1027 H 0.76881 0.29436 0.39328 0.0
H1028 H 0.8024 0.34446 0.3943 0.0
H1029 H 0.71532 0.40166 0.40507 0.0
C1030 C 0.64043 0.29279 0.40244 0.0
C1031 C 0.64167 0.25884 0.39931 0.0
C1032 C 0.67217 0.24363 0.39601 0.0
C1033 C 0.70096 0.26208 0.39569 0.0
C1034 C 0.69875 0.29564 0.39868 0.0
C1035 C 0.66917 0.31072 0.40201 0.0
C1036 C 0.67288 0.34703 0.40445 0.0
C1037 C 0.65482 0.36502 0.38561 0.0
C1038 C 0.66151 0.35849 0.42775 0.0
C1039 C 0.70921 0.35022 0.40191 0.0
C1040 C 0.72391 0.32044 0.39865 0.0
C1041 C 0.75747 0.31777 0.39585 0.0
C1042 C 0.77636 0.34631 0.39644 0.0
C1043 C 0.76152 0.37698 0.39973 0.0
C1044 C 0.72752 0.37867 0.40248 0.0
H1045 H 0.7082 0.60664 0.90129 0.0
H1046 H 0.79808 0.66125 0.89627 0.0
H1047 H 0.76654 0.71244 0.89457 0.0
H1048 H 0.66194 0.65483 0.8634 0.0
H1049 H 0.62496 0.65117 0.87938 0.0
H1050 H 0.65485 0.61936 0.8804 0.0
H1051 H 0.65716 0.62435 0.92376 0.0
H1052 H 0.62724 0.65616 0.92287 0.0
H1053 H 0.66575 0.66326 0.93637 0.0
H1054 H 0.72397 0.75787 0.89296 0.0
H1055 H 0.67491 0.79271 0.89212 0.0
H1056 H 0.61431 0.70692 0.89845 0.0
C1057 C 0.72139 0.62931 0.89985 0.0
C1058 C 0.75563 0.62993 0.89888 0.0
C1059 C 0.77184 0.66019 0.89704 0.0
C1060 C 0.75413 0.68937 0.89606 0.0
C1061 C 0.7203 0.68779 0.89699 0.0
C1062 C 0.70421 0.65845 0.8989 0.0
C1063 C 0.66783 0.66297 0.89957 0.0
C1064 C 0.65144 0.64609 0.87949 0.0
C1065 C 0.65368 0.65098 0.92198 0.0
C1066 C 0.6658 0.69948 0.89767 0.0
C1067 C 0.69621 0.71352 0.89618 0.0
C1068 C 0.70006 0.74707 0.89416 0.0
C1069 C 0.67209 0.76666 0.89367 0.0
C1070 C 0.64077 0.75257 0.89523 0.0
C1071 C 0.63784 0.71854 0.89726 0.0
loop_
_geom_bond_atom_site_label_1
_geom_bond_atom_site_label_2
_geom_bond_distance
_geom_bond_site_symmetry_2
_ccdc_geom_bond_type
Mg0 O7 2.141 . S
Mg0 O8 2.048 . S
Mg0 O9 2.048 . S
Mg0 O12 2.141 . S
C1 O2 1.313 . S
C1 O8 1.195 . S
O2 C1 1.313 . S
C3 O4 1.245 . S
C3 O12 1.289 . S
O4 C3 1.245 . S
C5 O6 1.245 . S
C5 O7 1.289 . S
O6 C5 1.245 . S
O7 Mg0 2.141 . S
O7 C5 1.289 . S
O8 Mg0 2.048 . S
O8 C1 1.195 . S
O9 Mg0 2.048 . S
O9 C10 1.195 . S
C10 O9 1.195 . S
C10 O11 1.313 . S
O11 C10 1.313 . S
O12 Mg0 2.141 . S
O12 C3 1.289 . S
Mg13 O20 2.141 . S
Mg13 O21 2.048 . S
Mg13 O22 2.048 . S
Mg13 O25 2.141 . S
C14 O15 1.313 . S
C14 O21 1.195 . S
O15 C14 1.313 . S
C16 O17 1.245 . S
C16 O25 1.289 . S
O17 C16 1.245 . S
C18 O19 1.245 . S
C18 O20 1.289 . S
O19 C18 1.245 . S
O20 Mg13 2.141 . S
O20 C18 1.289 . S
O21 Mg13 2.048 . S
O21 C14 1.195 . S
O22 Mg13 2.048 . S
O22 C23 1.195 . S
C23 O22 1.195 . S
C23 O24 1.313 . S
O24 C23 1.313 . S
O25 Mg13 2.141 . S
O25 C16 1.289 . S
Mg26 O33 2.141 . S
Mg26 O34 2.048 . S
Mg26 O35 2.048 . S
Mg26 O38 2.141 . S
C27 O28 1.313 . S
C27 O34 1.195 . S
O28 C27 1.313 . S
C29 O30 1.245 . S
C29 O38 1.289 . S
O30 C29 1.245 . S
C31 O32 1.245 . S
C31 O33 1.289 . S
O32 C31 1.245 . S
O33 Mg26 2.141 . S
O33 C31 1.289 . S
O34 Mg26 2.048 . S
O34 C27 1.195 . S
O35 Mg26 2.048 . S
O35 C36 1.195 . S
C36 O35 1.195 . S
C36 O37 1.313 . S
O37 C36 1.313 . S
O38 Mg26 2.141 . S
O38 C29 1.289 . S
Mg39 O46 2.141 . S
Mg39 O47 2.048 . S
Mg39 O48 2.048 . S
Mg39 O51 2.141 . S
C40 O41 1.313 . S
C40 O47 1.195 . S
O41 C40 1.313 . S
C42 O43 1.245 . S
C42 O51 1.289 . S
O43 C42 1.245 . S
C44 O45 1.245 . S
C44 O46 1.289 . S
O45 C44 1.245 . S
O46 Mg39 2.141 . S
O46 C44 1.289 . S
O47 Mg39 2.048 . S
O47 C40 1.195 . S
O48 Mg39 2.048 . S
O48 C49 1.195 . S
C49 O48 1.195 . S
C49 O50 1.313 . S
O50 C49 1.313 . S
O51 Mg39 2.141 . S
O51 C42 1.289 . S
Mg52 O59 2.141 . S
Mg52 O60 2.048 . S
Mg52 O61 2.048 . S
Mg52 O64 2.141 . S
C53 O54 1.313 . S
C53 O60 1.195 . S
O54 C53 1.313 . S
C55 O56 1.245 . S
C55 O64 1.289 . S
O56 C55 1.245 . S
C57 O58 1.245 . S
C57 O59 1.289 . S
O58 C57 1.245 . S
O59 Mg52 2.141 . S
O59 C57 1.289 . S
O60 Mg52 2.048 . S
O60 C53 1.195 . S
O61 Mg52 2.048 . S
O61 C62 1.195 . S
C62 O61 1.195 . S
C62 O63 1.313 . S
O63 C62 1.313 . S
O64 Mg52 2.141 . S
O64 C55 1.289 . S
Mg65 O72 2.141 . S
Mg65 O73 2.048 . S
Mg65 O74 2.048 . S
Mg65 O77 2.141 . S
C66 O67 1.313 . S
C66 O73 1.195 . S
O67 C66 1.313 . S
C68 O69 1.245 . S
C68 O77 1.289 . S
O69 C68 1.245 . S
C70 O71 1.245 . S
C70 O72 1.289 . S
O71 C70 1.245 . S
O72 Mg65 2.141 . S
O72 C70 1.289 . S
O73 Mg65 2.048 . S
O73 C66 1.195 . S
O74 Mg65 2.048 . S
O74 C75 1.195 . S
C75 O74 1.195 . S
C75 O76 1.313 . S
O76 C75 1.313 . S
O77 Mg65 2.141 . S
O77 C68 1.289 . S
Mg78 O85 2.141 . S
Mg78 O86 2.048 . S
Mg78 O87 2.048 . S
Mg78 O90 2.141 . S
C79 O80 1.313 . S
C79 O86 1.195 . S
O80 C79 1.313 . S
C81 O82 1.245 . S
C81 O90 1.289 . S
O82 C81 1.245 . S
C83 O84 1.245 . S
C83 O85 1.289 . S
O84 C83 1.245 . S
O85 Mg78 2.141 . S
O85 C83 1.289 . S
O86 Mg78 2.048 . S
O86 C79 1.195 . S
O87 Mg78 2.048 . S
O87 C88 1.195 . S
C88 O87 1.195 . S
C88 O89 1.313 . S
O89 C88 1.313 . S
O90 Mg78 2.141 . S
O90 C81 1.289 . S
Mg91 O98 2.141 . S
Mg91 O99 2.048 . S
Mg91 O100 2.048 . S
Mg91 O103 2.141 . S
C92 O93 1.313 . S
C92 O99 1.195 . S
O93 C92 1.313 . S
C94 O95 1.245 . S
C94 O103 1.289 . S
O95 C94 1.245 . S
C96 O97 1.245 . S
C96 O98 1.289 . S
O97 C96 1.245 . S
O98 Mg91 2.141 . S
O98 C96 1.289 . S
O99 Mg91 2.048 . S
O99 C92 1.195 . S
O100 Mg91 2.048 . S
O100 C101 1.195 . S
C101 O100 1.195 . S
C101 O102 1.313 . S
O102 C101 1.313 . S
O103 Mg91 2.141 . S
O103 C94 1.289 . S
Mg104 O111 2.141 . S
Mg104 O112 2.048 . S
Mg104 O113 2.048 . S
Mg104 O116 2.141 . S
C105 O106 1.313 . S
C105 O112 1.195 . S
O106 C105 1.313 . S
C107 O108 1.245 . S
C107 O116 1.289 . S
O108 C107 1.245 . S
C109 O110 1.245 . S
C109 O111 1.289 . S
O110 C109 1.245 . S
O111 Mg104 2.141 . S
O111 C109 1.289 . S
O112 Mg104 2.048 . S
O112 C105 1.195 . S
O113 Mg104 2.048 . S
O113 C114 1.195 . S
C114 O113 1.195 . S
C114 O115 1.313 . S
O115 C114 1.313 . S
O116 Mg104 2.141 . S
O116 C107 1.289 . S
Mg117 O124 2.141 . S
Mg117 O125 2.048 . S
Mg117 O126 2.048 . S
Mg117 O129 2.141 . S
C118 O119 1.313 . S
C118 O125 1.195 . S
O119 C118 1.313 . S
C120 O121 1.245 . S
C120 O129 1.289 . S
O121 C120 1.245 . S
C122 O123 1.245 . S
C122 O124 1.289 . S
O123 C122 1.245 . S
O124 Mg117 2.141 . S
O124 C122 1.289 . S
O125 Mg117 2.048 . S
O125 C118 1.195 . S
O126 Mg117 2.048 . S
O126 C127 1.195 . S
C127 O126 1.195 . S
C127 O128 1.313 . S
O128 C127 1.313 . S
O129 Mg117 2.141 . S
O129 C120 1.289 . S
Mg130 O137 2.141 . S
Mg130 O138 2.048 . S
Mg130 O139 2.048 . S
Mg130 O142 2.141 . S
C131 O132 1.313 . S
C131 O138 1.195 . S
O132 C131 1.313 . S
C133 O134 1.245 . S
C133 O142 1.289 . S
O134 C133 1.245 . S
C135 O136 1.245 . S
C135 O137 1.289 . S
O136 C135 1.245 . S
O137 Mg130 2.141 . S
O137 C135 1.289 . S
O138 Mg130 2.048 . S
O138 C131 1.195 . S
O139 Mg130 2.048 . S
O139 C140 1.195 . S
C140 O139 1.195 . S
C140 O141 1.313 . S
O141 C140 1.313 . S
O142 Mg130 2.141 . S
O142 C133 1.289 . S
Mg143 O150 2.141 . S
Mg143 O151 2.048 . S
Mg143 O152 2.048 . S
Mg143 O155 2.141 . S
C144 O145 1.313 . S
C144 O151 1.195 . S
O145 C144 1.313 . S
C146 O147 1.245 . S
C146 O155 1.289 . S
O147 C146 1.245 . S
C148 O149 1.245 . S
C148 O150 1.289 . S
O149 C148 1.245 . S
O150 Mg143 2.141 . S
O150 C148 1.289 . S
O151 Mg143 2.048 . S
O151 C144 1.195 . S
O152 Mg143 2.048 . S
O152 C153 1.195 . S
C153 O152 1.195 . S
C153 O154 1.313 . S
O154 C153 1.313 . S
O155 Mg143 2.141 . S
O155 C146 1.289 . S
Mg156 O163 2.141 . S
Mg156 O164 2.048 . S
Mg156 O165 2.048 . S
Mg156 O168 2.141 . S
C157 O158 1.313 . S
C157 O164 1.195 . S
O158 C157 1.313 . S
C159 O160 1.245 . S
C159 O168 1.289 . S
O160 C159 1.245 . S
C161 O162 1.245 . S
C161 O163 1.289 . S
O162 C161 1.245 . S
O163 Mg156 2.141 . S
O163 C161 1.289 . S
O164 Mg156 2.048 . S
O164 C157 1.195 . S
O165 Mg156 2.048 . S
O165 C166 1.195 . S
C166 O165 1.195 . S
C166 O167 1.313 . S
O167 C166 1.313 . S
O168 Mg156 2.141 . S
O168 C159 1.289 . S
Mg169 O176 2.141 . S
Mg169 O177 2.048 . S
Mg169 O178 2.048 . S
Mg169 O181 2.141 . S
C170 O171 1.313 . S
C170 O177 1.195 . S
O171 C170 1.313 . S
C172 O173 1.245 . S
C172 O181 1.289 . S
O173 C172 1.245 . S
C174 O175 1.245 . S
C174 O176 1.289 . S
O175 C174 1.245 . S
O176 Mg169 2.141 . S
O176 C174 1.289 . S
O177 Mg169 2.048 . S
O177 C170 1.195 . S
O178 Mg169 2.048 . S
O178 C179 1.195 . S
C179 O178 1.195 . S
C179 O180 1.313 . S
O180 C179 1.313 . S
O181 Mg169 2.141 . S
O181 C172 1.289 . S
Mg182 O189 2.141 . S
Mg182 O190 2.048 . S
Mg182 O191 2.048 . S
Mg182 O194 2.141 . S
C183 O184 1.313 . S
C183 O190 1.195 . S
O184 C183 1.313 . S
C185 O186 1.245 . S
C185 O194 1.289 . S
O186 C185 1.245 . S
C187 O188 1.245 . S
C187 O189 1.289 . S
O188 C187 1.245 . S
O189 Mg182 2.141 . S
O189 C187 1.289 . S
O190 Mg182 2.048 . S
O190 C183 1.195 . S
O191 Mg182 2.048 . S
O191 C192 1.195 . S
C192 O191 1.195 . S
C192 O193 1.313 . S
O193 C192 1.313 . S
O194 Mg182 2.141 . S
O194 C185 1.289 . S
Mg195 O202 2.141 . S
Mg195 O203 2.048 . S
Mg195 O204 2.048 . S
Mg195 O207 2.141 . S
C196 O197 1.313 . S
C196 O203 1.195 . S
O197 C196 1.313 . S
C198 O199 1.245 . S
C198 O207 1.289 . S
O199 C198 1.245 . S
C200 O201 1.245 . S
C200 O202 1.289 . S
O201 C200 1.245 . S
O202 Mg195 2.141 . S
O202 C200 1.289 . S
O203 Mg195 2.048 . S
O203 C196 1.195 . S
O204 Mg195 2.048 . S
O204 C205 1.195 . S
C205 O204 1.195 . S
C205 O206 1.313 . S
O206 C205 1.313 . S
O207 Mg195 2.141 . S
O207 C198 1.289 . S
H208 C220 0.930 . S
H209 C222 0.930 . S
H210 C223 0.930 . S
H211 C227 0.963 . S
H212 C227 0.979 . S
H213 C227 0.939 1_455 S
H214 C228 0.960 . S
H215 C228 0.961 1_655 S
H216 C228 0.958 1_655 S
H217 C231 0.929 . S
H218 C232 0.931 . S
H219 C234 0.930 . S
C220 H208 0.930 . S
C220 C221 1.399 . S
C220 C225 1.399 . S
C221 C220 1.399 . S
C221 C222 1.376 . S
C222 H209 0.930 . S
C222 C221 1.376 . S
C222 C223 1.388 . S
C223 H210 0.930 . S
C223 C222 1.388 . S
C223 C224 1.390 . S
C224 C223 1.390 . S
C224 C225 1.394 . S
C224 C230 1.465 1_455 S
C225 C220 1.399 . S
C225 C224 1.394 . S
C225 C226 1.524 . S
C226 C225 1.524 . S
C226 C227 1.501 1_455 S
C226 C228 1.562 . S
C226 C229 1.518 1_455 S
C227 H211 0.963 . S
C227 H212 0.979 . S
C227 H213 0.939 1_655 S
C227 C226 1.501 1_655 S
C228 H214 0.960 . S
C228 H215 0.961 1_455 S
C228 H216 0.958 1_455 S
C228 C226 1.562 . S
C229 C226 1.518 1_655 S
C229 C230 1.396 . S
C229 C234 1.390 . S
C230 C224 1.465 1_655 S
C230 C229 1.396 . S
C230 C231 1.399 . S
C231 H217 0.929 . S
C231 C230 1.399 . S
C231 C232 1.385 . S
C232 H218 0.931 . S
C232 C231 1.385 . S
C232 C233 1.389 . S
C233 C232 1.389 . S
C233 C234 1.387 . S
C234 H219 0.930 . S
C234 C229 1.390 . S
C234 C233 1.387 . S
H235 C247 0.930 . S
H236 C249 0.930 . S
H237 C250 0.930 . S
H238 C254 0.957 1_545 S
H239 C254 0.935 1_545 S
H240 C254 0.988 . S
H241 C255 0.959 . S
H242 C255 0.961 1_545 S
H243 C255 0.959 1_545 S
H244 C258 0.929 . S
H245 C259 0.931 . S
H246 C261 0.930 . S
C247 H235 0.930 . S
C247 C248 1.399 . S
C247 C252 1.399 . S
C248 C247 1.399 . S
C248 C249 1.376 . S
C249 H236 0.930 . S
C249 C248 1.376 . S
C249 C250 1.388 . S
C250 H237 0.930 . S
C250 C249 1.388 . S
C250 C251 1.390 . S
C251 C250 1.390 . S
C251 C252 1.394 . S
C251 C257 1.465 1_565 S
C252 C247 1.399 . S
C252 C251 1.394 . S
C252 C253 1.529 . S
C253 C252 1.529 . S
C253 C254 1.502 . S
C253 C255 1.561 . S
C253 C256 1.512 1_565 S
C254 H238 0.957 1_565 S
C254 H239 0.935 1_565 S
C254 H240 0.988 . S
C254 C253 1.502 . S
C255 H241 0.959 . S
C255 H242 0.961 1_565 S
C255 H243 0.959 1_565 S
C255 C253 1.561 . S
C256 C253 1.512 1_545 S
C256 C257 1.396 . S
C256 C261 1.390 . S
C257 C251 1.465 1_545 S
C257 C256 1.396 . S
C257 C258 1.399 . S
C258 H244 0.929 . S
C258 C257 1.399 . S
C258 C259 1.385 . S
C259 H245 0.931 . S
C259 C258 1.385 . S
C259 C260 1.389 . S
C260 C259 1.389 . S
C260 C261 1.387 . S
C261 H246 0.930 . S
C261 C256 1.390 . S
C261 C260 1.387 . S
H262 C274 0.930 . S
H263 C276 0.930 . S
H264 C277 0.930 . S
H265 C281 0.962 . S
H266 C281 0.984 . S
H267 C281 0.934 1_455 S
H268 C282 0.960 1_455 S
H269 C282 0.961 . S
H270 C282 0.959 . S
H271 C285 0.929 . S
H272 C286 0.931 . S
H273 C288 0.930 . S
C274 H262 0.930 . S
C274 C275 1.399 . S
C274 C279 1.399 . S
C275 C274 1.399 . S
C275 C276 1.376 . S
C276 H263 0.930 . S
C276 C275 1.376 . S
C276 C277 1.388 . S
C277 H264 0.930 . S
C277 C276 1.388 . S
C277 C278 1.390 . S
C278 C277 1.390 . S
C278 C279 1.394 . S
C278 C284 1.465 1_455 S
C279 C274 1.399 . S
C279 C278 1.394 . S
C279 C280 1.499 1_455 S
C280 C279 1.499 1_655 S
C280 C281 1.502 . S
C280 C282 1.562 . S
C280 C283 1.542 . S
C281 H265 0.962 . S
C281 H266 0.984 . S
C281 H267 0.934 1_655 S
C281 C280 1.502 . S
C282 H268 0.960 1_655 S
C282 H269 0.961 . S
C282 H270 0.959 . S
C282 C280 1.562 . S
C283 C280 1.542 . S
C283 C284 1.396 . S
C283 C288 1.390 . S
C284 C278 1.465 1_655 S
C284 C283 1.396 . S
C284 C285 1.399 . S
C285 H271 0.929 . S
C285 C284 1.399 . S
C285 C286 1.385 . S
C286 H272 0.931 . S
C286 C285 1.385 . S
C286 C287 1.389 . S
C287 C286 1.389 . S
C287 C288 1.387 . S
C288 H273 0.930 . S
C288 C283 1.390 . S
C288 C287 1.387 . S
H289 C301 0.930 . S
H290 C303 0.930 . S
H291 C304 0.930 . S
H292 C308 0.959 . S
H293 C308 0.959 . S
H294 C308 0.961 1_565 S
H295 C309 0.964 . S
H296 C309 0.957 1_545 S
H297 C309 0.959 1_545 S
H298 C312 0.929 . S
H299 C313 0.931 . S
H300 C315 0.930 . S
C301 H289 0.930 . S
C301 C302 1.399 . S
C301 C306 1.399 . S
C302 C301 1.399 . S
C302 C303 1.376 . S
C303 H290 0.930 . S
C303 C302 1.376 . S
C303 C304 1.388 . S
C304 H291 0.930 . S
C304 C303 1.388 . S
C304 C305 1.390 . S
C305 C304 1.390 . S
C305 C306 1.394 . S
C305 C311 1.465 1_565 S
C306 C301 1.399 . S
C306 C305 1.394 . S
C306 C307 1.508 1_565 S
C307 C306 1.508 1_545 S
C307 C308 1.502 . S
C307 C309 1.561 1_545 S
C307 C310 1.534 . S
C308 H292 0.959 . S
C308 H293 0.959 . S
C308 H294 0.961 1_545 S
C308 C307 1.502 . S
C309 H295 0.964 . S
C309 H296 0.957 1_565 S
C309 H297 0.959 1_565 S
C309 C307 1.561 1_565 S
C310 C307 1.534 . S
C310 C311 1.396 . S
C310 C315 1.390 . S
C311 C305 1.465 1_545 S
C311 C310 1.396 . S
C311 C312 1.399 . S
C312 H298 0.929 . S
C312 C311 1.399 . S
C312 C313 1.385 . S
C313 H299 0.931 . S
C313 C312 1.385 . S
C313 C314 1.389 . S
C314 C313 1.389 . S
C314 C315 1.387 . S
C315 H300 0.930 . S
C315 C310 1.390 . S
C315 C314 1.387 . S
H316 C328 0.930 . S
H317 C330 0.930 . S
H318 C331 0.930 . S
H319 C335 0.959 . S
H320 C335 0.957 . S
H321 C335 0.963 1_655 S
H322 C336 0.960 1_655 S
H323 C336 0.961 . S
H324 C336 0.959 . S
H325 C339 0.929 . S
H326 C340 0.931 . S
H327 C342 0.930 . S
C328 H316 0.930 . S
C328 C329 1.399 . S
C328 C333 1.399 . S
C329 C328 1.399 . S
C329 C330 1.376 . S
C330 H317 0.930 . S
C330 C329 1.376 . S
C330 C331 1.388 . S
C331 H318 0.930 . S
C331 C330 1.388 . S
C331 C332 1.390 . S
C332 C331 1.390 . S
C332 C333 1.394 . S
C332 C338 1.465 1_655 S
C333 C328 1.399 . S
C333 C332 1.394 . S
C333 C334 1.514 1_655 S
C334 C333 1.514 1_455 S
C334 C335 1.502 . S
C334 C336 1.561 . S
C334 C337 1.528 . S
C335 H319 0.959 . S
C335 H320 0.957 . S
C335 H321 0.963 1_455 S
C335 C334 1.502 . S
C336 H322 0.960 1_455 S
C336 H323 0.961 . S
C336 H324 0.959 . S
C336 C334 1.561 . S
C337 C334 1.528 . S
C337 C338 1.396 . S
C337 C342 1.390 . S
C338 C332 1.465 1_455 S
C338 C337 1.396 . S
C338 C339 1.399 . S
C339 H325 0.929 . S
C339 C338 1.399 . S
C339 C340 1.385 . S
C340 H326 0.931 . S
C340 C339 1.385 . S
C340 C341 1.389 . S
C341 C340 1.389 . S
C341 C342 1.387 . S
C342 H327 0.930 . S
C342 C337 1.390 . S
C342 C341 1.387 . S
H343 C355 0.930 . S
H344 C357 0.930 . S
H345 C358 0.930 . S
H346 C362 0.959 . S
H347 C362 0.959 . S
H348 C362 0.961 1_545 S
H349 C363 0.932 1_545 S
H350 C363 0.987 . S
H351 C363 0.961 . S
H352 C366 0.929 . S
H353 C367 0.931 . S
H354 C369 0.930 . S
C355 H343 0.930 . S
C355 C356 1.399 . S
C355 C360 1.399 . S
C356 C355 1.399 . S
C356 C357 1.376 . S
C357 H344 0.930 . S
C357 C356 1.376 . S
C357 C358 1.388 . S
C358 H345 0.930 . S
C358 C357 1.388 . S
C358 C359 1.390 . S
C359 C358 1.390 . S
C359 C360 1.394 . S
C359 C365 1.465 1_545 S
C360 C355 1.399 . S
C360 C359 1.394 . S
C360 C361 1.490 1_545 S
C361 C360 1.490 1_565 S
C361 C362 1.504 . S
C361 C363 1.561 . S
C361 C364 1.552 . S
C362 H346 0.959 . S
C362 H347 0.959 . S
C362 H348 0.961 1_565 S
C362 C361 1.504 . S
C363 H349 0.932 1_565 S
C363 H350 0.987 . S
C363 H351 0.961 . S
C363 C361 1.561 . S
C364 C361 1.552 . S
C364 C365 1.396 . S
C364 C369 1.390 . S
C365 C359 1.465 1_565 S
C365 C364 1.396 . S
C365 C366 1.399 . S
C366 H352 0.929 . S
C366 C365 1.399 . S
C366 C367 1.385 . S
C367 H353 0.931 . S
C367 C366 1.385 . S
C367 C368 1.389 . S
C368 C367 1.389 . S
C368 C369 1.387 . S
C369 H354 0.930 . S
C369 C364 1.390 . S
C369 C368 1.387 . S
H370 C382 0.930 . S
H371 C384 0.930 . S
H372 C385 0.930 . S
H373 C389 0.959 . S
H374 C389 0.959 . S
H375 C389 0.961 1_655 S
H376 C390 0.959 . S
H377 C390 0.962 1_455 S
H378 C390 0.959 1_455 S
H379 C393 0.929 . S
H380 C394 0.931 . S
H381 C396 0.930 . S
C382 H370 0.930 . S
C382 C383 1.399 . S
C382 C387 1.399 . S
C383 C382 1.399 . S
C383 C384 1.376 . S
C384 H371 0.930 . S
C384 C383 1.376 . S
C384 C385 1.388 . S
C385 H372 0.930 . S
C385 C384 1.388 . S
C385 C386 1.390 . S
C386 C385 1.390 . S
C386 C387 1.394 . S
C386 C392 1.465 1_655 S
C387 C382 1.399 . S
C387 C386 1.394 . S
C387 C388 1.505 1_655 S
C388 C387 1.505 1_455 S
C388 C389 1.502 . S
C388 C390 1.561 1_455 S
C388 C391 1.537 . S
C389 H373 0.959 . S
C389 H374 0.959 . S
C389 H375 0.961 1_455 S
C389 C388 1.502 . S
C390 H376 0.959 . S
C390 H377 0.962 1_655 S
C390 H378 0.959 1_655 S
C390 C388 1.561 1_655 S
C391 C388 1.537 . S
C391 C392 1.396 . S
C391 C396 1.390 . S
C392 C386 1.465 1_455 S
C392 C391 1.396 . S
C392 C393 1.399 . S
C393 H379 0.929 . S
C393 C392 1.399 . S
C393 C394 1.385 . S
C394 H380 0.931 . S
C394 C393 1.385 . S
C394 C395 1.389 . S
C395 C394 1.389 . S
C395 C396 1.387 . S
C396 H381 0.930 . S
C396 C391 1.390 . S
C396 C395 1.387 . S
H397 C409 0.930 . S
H398 C411 0.930 . S
H399 C412 0.930 . S
H400 C416 0.957 1_565 S
H401 C416 0.937 1_565 S
H402 C416 0.986 . S
H403 C417 0.962 1_545 S
H404 C417 0.959 . S
H405 C417 0.959 . S
H406 C420 0.929 . S
H407 C421 0.931 . S
H408 C423 0.930 . S
C409 H397 0.930 . S
C409 C410 1.399 . S
C409 C414 1.399 . S
C410 C409 1.399 . S
C410 C411 1.376 . S
C411 H398 0.930 . S
C411 C410 1.376 . S
C411 C412 1.388 . S
C412 H399 0.930 . S
C412 C411 1.388 . S
C412 C413 1.390 . S
C413 C412 1.390 . S
C413 C414 1.394 . S
C413 C419 1.465 1_545 S
C414 C409 1.399 . S
C414 C413 1.394 . S
C414 C415 1.527 . S
C415 C414 1.527 . S
C415 C416 1.502 . S
C415 C417 1.561 1_545 S
C415 C418 1.514 1_545 S
C416 H400 0.957 1_545 S
C416 H401 0.937 1_545 S
C416 H402 0.986 . S
C416 C415 1.502 . S
C417 H403 0.962 1_565 S
C417 H404 0.959 . S
C417 H405 0.959 . S
C417 C415 1.561 1_565 S
C418 C415 1.514 1_565 S
C418 C419 1.396 . S
C418 C423 1.390 . S
C419 C413 1.465 1_565 S
C419 C418 1.396 . S
C419 C420 1.399 . S
C420 H406 0.929 . S
C420 C419 1.399 . S
C420 C421 1.385 . S
C421 H407 0.931 . S
C421 C420 1.385 . S
C421 C422 1.389 . S
C422 C421 1.389 . S
C422 C423 1.387 . S
C423 H408 0.930 . S
C423 C418 1.390 . S
C423 C422 1.387 . S
H424 C436 0.930 . S
H425 C438 0.930 . S
H426 C439 0.930 . S
H427 C443 0.959 . S
H428 C443 0.959 . S
H429 C443 0.961 . S
H430 C444 0.960 . S
H431 C444 0.961 . S
H432 C444 0.959 . S
H433 C447 0.929 . S
H434 C448 0.931 . S
H435 C450 0.930 . S
C436 H424 0.930 . S
C436 C437 1.399 . S
C436 C441 1.399 . S
C437 C436 1.399 . S
C437 C438 1.376 . S
C438 H425 0.930 . S
C438 C437 1.376 . S
C438 C439 1.388 . S
C439 H426 0.930 . S
C439 C438 1.388 . S
C439 C440 1.390 . S
C440 C439 1.390 . S
C440 C441 1.394 . S
C440 C446 1.465 . S
C441 C436 1.399 . S
C441 C440 1.394 . S
C441 C442 1.516 . S
C442 C441 1.516 . S
C442 C443 1.502 . S
C442 C444 1.561 . S
C442 C445 1.526 . S
C443 H427 0.959 . S
C443 H428 0.959 . S
C443 H429 0.961 . S
C443 C442 1.502 . S
C444 H430 0.960 . S
C444 H431 0.961 . S
C444 H432 0.959 . S
C444 C442 1.561 . S
C445 C442 1.526 . S
C445 C446 1.396 . S
C445 C450 1.390 . S
C446 C440 1.465 . S
C446 C445 1.396 . S
C446 C447 1.399 . S
C447 H433 0.929 . S
C447 C446 1.399 . S
C447 C448 1.385 . S
C448 H434 0.931 . S
C448 C447 1.385 . S
C448 C449 1.389 . S
C449 C448 1.389 . S
C449 C450 1.387 . S
C450 H435 0.930 . S
C450 C445 1.390 . S
C450 C449 1.387 . S
H451 C463 0.930 . S
H452 C465 0.930 . S
H453 C466 0.930 . S
H454 C470 0.959 . S
H455 C470 0.959 . S
H456 C470 0.961 . S
H457 C471 0.960 . S
H458 C471 0.961 . S
H459 C471 0.959 . S
H460 C474 0.929 . S
H461 C475 0.931 . S
H462 C477 0.930 . S
C463 H451 0.930 . S
C463 C464 1.399 . S
C463 C468 1.399 . S
C464 C463 1.399 . S
C464 C465 1.376 . S
C465 H452 0.930 . S
C465 C464 1.376 . S
C465 C466 1.388 . S
C466 H453 0.930 . S
C466 C465 1.388 . S
C466 C467 1.390 . S
C467 C466 1.390 . S
C467 C468 1.394 . S
C467 C473 1.465 . S
C468 C463 1.399 . S
C468 C467 1.394 . S
C468 C469 1.516 . S
C469 C468 1.516 . S
C469 C470 1.502 . S
C469 C471 1.561 . S
C469 C472 1.526 . S
C470 H454 0.959 . S
C470 H455 0.959 . S
C470 H456 0.961 . S
C470 C469 1.502 . S
C471 H457 0.960 . S
C471 H458 0.961 . S
C471 H459 0.959 . S
C471 C469 1.561 . S
C472 C469 1.526 . S
C472 C473 1.396 . S
C472 C477 1.390 . S
C473 C467 1.465 . S
C473 C472 1.396 . S
C473 C474 1.399 . S
C474 H460 0.929 . S
C474 C473 1.399 . S
C474 C475 1.385 . S
C475 H461 0.931 . S
C475 C474 1.385 . S
C475 C476 1.389 . S
C476 C475 1.389 . S
C476 C477 1.387 . S
C477 H462 0.930 . S
C477 C472 1.390 . S
C477 C476 1.387 . S
H478 C490 0.930 . S
H479 C492 0.930 . S
H480 C493 0.930 . S
H481 C497 0.959 . S
H482 C497 0.959 . S
H483 C497 0.961 . S
H484 C498 0.960 . S
H485 C498 0.961 . S
H486 C498 0.959 . S
H487 C501 0.929 . S
H488 C502 0.931 . S
H489 C504 0.930 . S
C490 H478 0.930 . S
C490 C491 1.399 . S
C490 C495 1.399 . S
C491 C490 1.399 . S
C491 C492 1.376 . S
C492 H479 0.930 . S
C492 C491 1.376 . S
C492 C493 1.388 . S
C493 H480 0.930 . S
C493 C492 1.388 . S
C493 C494 1.390 . S
C494 C493 1.390 . S
C494 C495 1.394 . S
C494 C500 1.465 . S
C495 C490 1.399 . S
C495 C494 1.394 . S
C495 C496 1.516 . S
C496 C495 1.516 . S
C496 C497 1.502 . S
C496 C498 1.561 . S
C496 C499 1.526 . S
C497 H481 0.959 . S
C497 H482 0.959 . S
C497 H483 0.961 . S
C497 C496 1.502 . S
C498 H484 0.960 . S
C498 H485 0.961 . S
C498 H486 0.959 . S
C498 C496 1.561 . S
C499 C496 1.526 . S
C499 C500 1.396 . S
C499 C504 1.390 . S
C500 C494 1.465 . S
C500 C499 1.396 . S
C500 C501 1.399 . S
C501 H487 0.929 . S
C501 C500 1.399 . S
C501 C502 1.385 . S
C502 H488 0.931 . S
C502 C501 1.385 . S
C502 C503 1.389 . S
C503 C502 1.389 . S
C503 C504 1.387 . S
C504 H489 0.930 . S
C504 C499 1.390 . S
C504 C503 1.387 . S
H505 C517 0.930 . S
H506 C519 0.930 . S
H507 C520 0.930 . S
H508 C524 0.959 . S
H509 C524 0.959 . S
H510 C524 0.961 . S
H511 C525 0.960 . S
H512 C525 0.961 . S
H513 C525 0.959 . S
H514 C528 0.929 . S
H515 C529 0.931 . S
H516 C531 0.930 . S
C517 H505 0.930 . S
C517 C518 1.399 . S
C517 C522 1.399 . S
C518 C517 1.399 . S
C518 C519 1.376 . S
C519 H506 0.930 . S
C519 C518 1.376 . S
C519 C520 1.388 . S
C520 H507 0.930 . S
C520 C519 1.388 . S
C520 C521 1.390 . S
C521 C520 1.390 . S
C521 C522 1.394 . S
C521 C527 1.465 . S
C522 C517 1.399 . S
C522 C521 1.394 . S
C522 C523 1.516 . S
C523 C522 1.516 . S
C523 C524 1.502 . S
C523 C525 1.561 . S
C523 C526 1.526 . S
C524 H508 0.959 . S
C524 H509 0.959 . S
C524 H510 0.961 . S
C524 C523 1.502 . S
C525 H511 0.960 . S
C525 H512 0.961 . S
C525 H513 0.959 . S
C525 C523 1.561 . S
C526 C523 1.526 . S
C526 C527 1.396 . S
C526 C531 1.390 . S
C527 C521 1.465 . S
C527 C526 1.396 . S
C527 C528 1.399 . S
C528 H514 0.929 . S
C528 C527 1.399 . S
C528 C529 1.385 . S
C529 H515 0.931 . S
C529 C528 1.385 . S
C529 C530 1.389 . S
C530 C529 1.389 . S
C530 C531 1.387 . S
C531 H516 0.930 . S
C531 C526 1.390 . S
C531 C530 1.387 . S
H532 C544 0.930 . S
H533 C546 0.930 . S
H534 C547 0.930 . S
H535 C551 0.959 . S
H536 C551 0.959 . S
H537 C551 0.961 . S
H538 C552 0.960 . S
H539 C552 0.961 . S
H540 C552 0.959 . S
H541 C555 0.929 . S
H542 C556 0.931 . S
H543 C558 0.930 . S
C544 H532 0.930 . S
C544 C545 1.399 . S
C544 C549 1.399 . S
C545 C544 1.399 . S
C545 C546 1.376 . S
C546 H533 0.930 . S
C546 C545 1.376 . S
C546 C547 1.388 . S
C547 H534 0.930 . S
C547 C546 1.388 . S
C547 C548 1.390 . S
C548 C547 1.390 . S
C548 C549 1.394 . S
C548 C554 1.465 . S
C549 C544 1.399 . S
C549 C548 1.394 . S
C549 C550 1.516 . S
C550 C549 1.516 . S
C550 C551 1.502 . S
C550 C552 1.561 . S
C550 C553 1.526 . S
C551 H535 0.959 . S
C551 H536 0.959 . S
C551 H537 0.961 . S
C551 C550 1.502 . S
C552 H538 0.960 . S
C552 H539 0.961 . S
C552 H540 0.959 . S
C552 C550 1.561 . S
C553 C550 1.526 . S
C553 C554 1.396 . S
C553 C558 1.390 . S
C554 C548 1.465 . S
C554 C553 1.396 . S
C554 C555 1.399 . S
C555 H541 0.929 . S
C555 C554 1.399 . S
C555 C556 1.385 . S
C556 H542 0.931 . S
C556 C555 1.385 . S
C556 C557 1.389 . S
C557 C556 1.389 . S
C557 C558 1.387 . S
C558 H543 0.930 . S
C558 C553 1.390 . S
C558 C557 1.387 . S
H559 C571 0.930 . S
H560 C573 0.930 . S
H561 C574 0.930 . S
H562 C578 0.959 . S
H563 C578 0.959 . S
H564 C578 0.961 . S
H565 C579 0.960 . S
H566 C579 0.961 . S
H567 C579 0.959 . S
H568 C582 0.929 . S
H569 C583 0.931 . S
H570 C585 0.930 . S
C571 H559 0.930 . S
C571 C572 1.399 . S
C571 C576 1.399 . S
C572 C571 1.399 . S
C572 C573 1.376 . S
C573 H560 0.930 . S
C573 C572 1.376 . S
C573 C574 1.388 . S
C574 H561 0.930 . S
C574 C573 1.388 . S
C574 C575 1.390 . S
C575 C574 1.390 . S
C575 C576 1.394 . S
C575 C581 1.465 . S
C576 C571 1.399 . S
C576 C575 1.394 . S
C576 C577 1.516 . S
C577 C576 1.516 . S
C577 C578 1.502 . S
C577 C579 1.561 . S
C577 C580 1.526 . S
C578 H562 0.959 . S
C578 H563 0.959 . S
C578 H564 0.961 . S
C578 C577 1.502 . S
C579 H565 0.960 . S
C579 H566 0.961 . S
C579 H567 0.959 . S
C579 C577 1.561 . S
C580 C577 1.526 . S
C580 C581 1.396 . S
C580 C585 1.390 . S
C581 C575 1.465 . S
C581 C580 1.396 . S
C581 C582 1.399 . S
C582 H568 0.929 . S
C582 C581 1.399 . S
C582 C583 1.385 . S
C583 H569 0.931 . S
C583 C582 1.385 . S
C583 C584 1.389 . S
C584 C583 1.389 . S
C584 C585 1.387 . S
C585 H570 0.930 . S
C585 C580 1.390 . S
C585 C584 1.387 . S
H586 C598 0.930 . S
H587 C600 0.930 . S
H588 C601 0.930 . S
H589 C605 0.959 . S
H590 C605 0.959 . S
H591 C605 0.961 . S
H592 C606 0.960 . S
H593 C606 0.961 . S
H594 C606 0.959 . S
H595 C609 0.929 . S
H596 C610 0.931 . S
H597 C612 0.930 . S
C598 H586 0.930 . S
C598 C599 1.399 . S
C598 C603 1.399 . S
C599 C598 1.399 . S
C599 C600 1.376 . S
C600 H587 0.930 . S
C600 C599 1.376 . S
C600 C601 1.388 . S
C601 H588 0.930 . S
C601 C600 1.388 . S
C601 C602 1.390 . S
C602 C601 1.390 . S
C602 C603 1.394 . S
C602 C608 1.465 . S
C603 C598 1.399 . S
C603 C602 1.394 . S
C603 C604 1.516 . S
C604 C603 1.516 . S
C604 C605 1.502 . S
C604 C606 1.561 . S
C604 C607 1.526 . S
C605 H589 0.959 . S
C605 H590 0.959 . S
C605 H591 0.961 . S
C605 C604 1.502 . S
C606 H592 0.960 . S
C606 H593 0.961 . S
C606 H594 0.959 . S
C606 C604 1.561 . S
C607 C604 1.526 . S
C607 C608 1.396 . S
C607 C612 1.390 . S
C608 C602 1.465 . S
C608 C607 1.396 . S
C608 C609 1.399 . S
C609 H595 0.929 . S
C609 C608 1.399 . S
C609 C610 1.385 . S
C610 H596 0.931 . S
C610 C609 1.385 . S
C610 C611 1.389 . S
C611 C610 1.389 . S
C611 C612 1.387 . S
C612 H597 0.930 . S
C612 C607 1.390 . S
C612 C611 1.387 . S
H613 C625 0.930 . S
H614 C627 0.930 . S
H615 C628 0.930 . S
H616 C632 0.959 . S
H617 C632 0.959 . S
H618 C632 0.961 . S
H619 C633 0.960 . S
H620 C633 0.961 . S
H621 C633 0.959 . S
H622 C636 0.929 . S
H623 C637 0.931 . S
H624 C639 0.930 . S
C625 H613 0.930 . S
C625 C626 1.399 . S
C625 C630 1.399 . S
C626 C625 1.399 . S
C626 C627 1.376 . S
C627 H614 0.930 . S
C627 C626 1.376 . S
C627 C628 1.388 . S
C628 H615 0.930 . S
C628 C627 1.388 . S
C628 C629 1.390 . S
C629 C628 1.390 . S
C629 C630 1.394 . S
C629 C635 1.465 . S
C630 C625 1.399 . S
C630 C629 1.394 . S
C630 C631 1.516 . S
C631 C630 1.516 . S
C631 C632 1.502 . S
C631 C633 1.561 . S
C631 C634 1.526 . S
C632 H616 0.959 . S
C632 H617 0.959 . S
C632 H618 0.961 . S
C632 C631 1.502 . S
C633 H619 0.960 . S
C633 H620 0.961 . S
C633 H621 0.959 . S
C633 C631 1.561 . S
C634 C631 1.526 . S
C634 C635 1.396 . S
C634 C639 1.390 . S
C635 C629 1.465 . S
C635 C634 1.396 . S
C635 C636 1.399 . S
C636 H622 0.929 . S
C636 C635 1.399 . S
C636 C637 1.385 . S
C637 H623 0.931 . S
C637 C636 1.385 . S
C637 C638 1.389 . S
C638 C637 1.389 . S
C638 C639 1.387 . S
C639 H624 0.930 . S
C639 C634 1.390 . S
C639 C638 1.387 . S
H640 C652 0.930 . S
H641 C654 0.930 . S
H642 C655 0.930 . S
H643 C659 0.962 . S
H644 C659 0.978 . S
H645 C659 0.940 1_556 S
H646 C660 0.958 1_556 S
H647 C660 0.963 . S
H648 C660 0.959 . S
H649 C663 0.929 . S
H650 C664 0.931 . S
H651 C666 0.930 . S
C652 H640 0.930 . S
C652 C653 1.399 . S
C652 C657 1.399 . S
C653 C652 1.399 . S
C653 C654 1.376 . S
C654 H641 0.930 . S
C654 C653 1.376 . S
C654 C655 1.388 . S
C655 H642 0.930 . S
C655 C654 1.388 . S
C655 C656 1.390 . S
C656 C655 1.390 . S
C656 C657 1.394 . S
C656 C662 1.465 1_556 S
C657 C652 1.399 . S
C657 C656 1.394 . S
C657 C658 1.517 1_556 S
C658 C657 1.517 1_554 S
C658 C659 1.502 . S
C658 C660 1.561 . S
C658 C661 1.525 . S
C659 H643 0.962 . S
C659 H644 0.978 . S
C659 H645 0.940 1_554 S
C659 C658 1.502 . S
C660 H646 0.958 1_554 S
C660 H647 0.963 . S
C660 H648 0.959 . S
C660 C658 1.561 . S
C661 C658 1.525 . S
C661 C662 1.396 . S
C661 C666 1.390 . S
C662 C656 1.465 1_554 S
C662 C661 1.396 . S
C662 C663 1.399 . S
C663 H649 0.929 . S
C663 C662 1.399 . S
C663 C664 1.385 . S
C664 H650 0.931 . S
C664 C663 1.385 . S
C664 C665 1.389 . S
C665 C664 1.389 . S
C665 C666 1.387 . S
C666 H651 0.930 . S
C666 C661 1.390 . S
C666 C665 1.387 . S
H667 C679 0.930 . S
H668 C681 0.930 . S
H669 C682 0.930 . S
H670 C686 0.959 . S
H671 C686 0.959 . S
H672 C686 0.961 . S
H673 C687 0.960 . S
H674 C687 0.961 . S
H675 C687 0.959 . S
H676 C690 0.929 . S
H677 C691 0.931 . S
H678 C693 0.930 . S
C679 H667 0.930 . S
C679 C680 1.399 . S
C679 C684 1.399 . S
C680 C679 1.399 . S
C680 C681 1.376 . S
C681 H668 0.930 . S
C681 C680 1.376 . S
C681 C682 1.388 . S
C682 H669 0.930 . S
C682 C681 1.388 . S
C682 C683 1.390 . S
C683 C682 1.390 . S
C683 C684 1.394 . S
C683 C689 1.465 . S
C684 C679 1.399 . S
C684 C683 1.394 . S
C684 C685 1.516 . S
C685 C684 1.516 . S
C685 C686 1.502 . S
C685 C687 1.561 . S
C685 C688 1.526 . S
C686 H670 0.959 . S
C686 H671 0.959 . S
C686 H672 0.961 . S
C686 C685 1.502 . S
C687 H673 0.960 . S
C687 H674 0.961 . S
C687 H675 0.959 . S
C687 C685 1.561 . S
C688 C685 1.526 . S
C688 C689 1.396 . S
C688 C693 1.390 . S
C689 C683 1.465 . S
C689 C688 1.396 . S
C689 C690 1.399 . S
C690 H676 0.929 . S
C690 C689 1.399 . S
C690 C691 1.385 . S
C691 H677 0.931 . S
C691 C690 1.385 . S
C691 C692 1.389 . S
C692 C691 1.389 . S
C692 C693 1.387 . S
C693 H678 0.930 . S
C693 C688 1.390 . S
C693 C692 1.387 . S
H694 C706 0.930 . S
H695 C708 0.930 . S
H696 C709 0.930 . S
H697 C713 0.962 . S
H698 C713 0.978 . S
H699 C713 0.940 1_554 S
H700 C714 0.958 1_554 S
H701 C714 0.963 . S
H702 C714 0.959 . S
H703 C717 0.929 . S
H704 C718 0.931 . S
H705 C720 0.930 . S
C706 H694 0.930 . S
C706 C707 1.399 . S
C706 C711 1.399 . S
C707 C706 1.399 . S
C707 C708 1.376 . S
C708 H695 0.930 . S
C708 C707 1.376 . S
C708 C709 1.388 . S
C709 H696 0.930 . S
C709 C708 1.388 . S
C709 C710 1.390 . S
C710 C709 1.390 . S
C710 C711 1.394 . S
C710 C716 1.465 1_554 S
C711 C706 1.399 . S
C711 C710 1.394 . S
C711 C712 1.517 1_554 S
C712 C711 1.517 1_556 S
C712 C713 1.502 . S
C712 C714 1.561 . S
C712 C715 1.525 . S
C713 H697 0.962 . S
C713 H698 0.978 . S
C713 H699 0.940 1_556 S
C713 C712 1.502 . S
C714 H700 0.958 1_556 S
C714 H701 0.963 . S
C714 H702 0.959 . S
C714 C712 1.561 . S
C715 C712 1.525 . S
C715 C716 1.396 . S
C715 C720 1.390 . S
C716 C710 1.465 1_556 S
C716 C715 1.396 . S
C716 C717 1.399 . S
C717 H703 0.929 . S
C717 C716 1.399 . S
C717 C718 1.385 . S
C718 H704 0.931 . S
C718 C717 1.385 . S
C718 C719 1.389 . S
C719 C718 1.389 . S
C719 C720 1.387 . S
C720 H705 0.930 . S
C720 C715 1.390 . S
C720 C719 1.387 . S
H721 C733 0.930 . S
H722 C735 0.930 . S
H723 C736 0.930 . S
H724 C740 0.959 . S
H725 C740 0.959 . S
H726 C740 0.961 . S
H727 C741 0.960 . S
H728 C741 0.961 . S
H729 C741 0.959 . S
H730 C744 0.929 . S
H731 C745 0.931 . S
H732 C747 0.930 . S
C733 H721 0.930 . S
C733 C734 1.399 . S
C733 C738 1.399 . S
C734 C733 1.399 . S
C734 C735 1.376 . S
C735 H722 0.930 . S
C735 C734 1.376 . S
C735 C736 1.388 . S
C736 H723 0.930 . S
C736 C735 1.388 . S
C736 C737 1.390 . S
C737 C736 1.390 . S
C737 C738 1.394 . S
C737 C743 1.465 . S
C738 C733 1.399 . S
C738 C737 1.394 . S
C738 C739 1.516 . S
C739 C738 1.516 . S
C739 C740 1.502 . S
C739 C741 1.561 . S
C739 C742 1.526 . S
C740 H724 0.959 . S
C740 H725 0.959 . S
C740 H726 0.961 . S
C740 C739 1.502 . S
C741 H727 0.960 . S
C741 H728 0.961 . S
C741 H729 0.959 . S
C741 C739 1.561 . S
C742 C739 1.526 . S
C742 C743 1.396 . S
C742 C747 1.390 . S
C743 C737 1.465 . S
C743 C742 1.396 . S
C743 C744 1.399 . S
C744 H730 0.929 . S
C744 C743 1.399 . S
C744 C745 1.385 . S
C745 H731 0.931 . S
C745 C744 1.385 . S
C745 C746 1.389 . S
C746 C745 1.389 . S
C746 C747 1.387 . S
C747 H732 0.930 . S
C747 C742 1.390 . S
C747 C746 1.387 . S
H748 C760 0.930 . S
H749 C762 0.930 . S
H750 C763 0.930 . S
H751 C767 0.959 . S
H752 C767 0.959 . S
H753 C767 0.961 . S
H754 C768 0.960 . S
H755 C768 0.961 . S
H756 C768 0.959 . S
H757 C771 0.929 . S
H758 C772 0.931 . S
H759 C774 0.930 . S
C760 H748 0.930 . S
C760 C761 1.399 . S
C760 C765 1.399 . S
C761 C760 1.399 . S
C761 C762 1.376 . S
C762 H749 0.930 . S
C762 C761 1.376 . S
C762 C763 1.388 . S
C763 H750 0.930 . S
C763 C762 1.388 . S
C763 C764 1.390 . S
C764 C763 1.390 . S
C764 C765 1.394 . S
C764 C770 1.465 . S
C765 C760 1.399 . S
C765 C764 1.394 . S
C765 C766 1.516 . S
C766 C765 1.516 . S
C766 C767 1.502 . S
C766 C768 1.561 . S
C766 C769 1.526 . S
C767 H751 0.959 . S
C767 H752 0.959 . S
C767 H753 0.961 . S
C767 C766 1.502 . S
C768 H754 0.960 . S
C768 H755 0.961 . S
C768 H756 0.959 . S
C768 C766 1.561 . S
C769 C766 1.526 . S
C769 C770 1.396 . S
C769 C774 1.390 . S
C770 C764 1.465 . S
C770 C769 1.396 . S
C770 C771 1.399 . S
C771 H757 0.929 . S
C771 C770 1.399 . S
C771 C772 1.385 . S
C772 H758 0.931 . S
C772 C771 1.385 . S
C772 C773 1.389 . S
C773 C772 1.389 . S
C773 C774 1.387 . S
C774 H759 0.930 . S
C774 C769 1.390 . S
C774 C773 1.387 . S
H775 C787 0.930 . S
H776 C789 0.930 . S
H777 C790 0.930 . S
H778 C794 0.962 . S
H779 C794 0.978 . S
H780 C794 0.940 1_556 S
H781 C795 0.958 1_556 S
H782 C795 0.963 . S
H783 C795 0.959 . S
H784 C798 0.929 . S
H785 C799 0.931 . S
H786 C801 0.930 . S
C787 H775 0.930 . S
C787 C788 1.399 . S
C787 C792 1.399 . S
C788 C787 1.399 . S
C788 C789 1.376 . S
C789 H776 0.930 . S
C789 C788 1.376 . S
C789 C790 1.388 . S
C790 H777 0.930 . S
C790 C789 1.388 . S
C790 C791 1.390 . S
C791 C790 1.390 . S
C791 C792 1.394 . S
C791 C797 1.465 1_556 S
C792 C787 1.399 . S
C792 C791 1.394 . S
C792 C793 1.517 1_556 S
C793 C792 1.517 1_554 S
C793 C794 1.502 . S
C793 C795 1.561 . S
C793 C796 1.525 . S
C794 H778 0.962 . S
C794 H779 0.978 . S
C794 H780 0.940 1_554 S
C794 C793 1.502 . S
C795 H781 0.958 1_554 S
C795 H782 0.963 . S
C795 H783 0.959 . S
C795 C793 1.561 . S
C796 C793 1.525 . S
C796 C797 1.396 . S
C796 C801 1.390 . S
C797 C791 1.465 1_554 S
C797 C796 1.396 . S
C797 C798 1.399 . S
C798 H784 0.929 . S
C798 C797 1.399 . S
C798 C799 1.385 . S
C799 H785 0.931 . S
C799 C798 1.385 . S
C799 C800 1.389 . S
C800 C799 1.389 . S
C800 C801 1.387 . S
C801 H786 0.930 . S
C801 C796 1.390 . S
C801 C800 1.387 . S
H802 C814 0.930 . S
H803 C816 0.930 . S
H804 C817 0.930 . S
H805 C821 0.959 . S
H806 C821 0.959 . S
H807 C821 0.961 . S
H808 C822 0.960 . S
H809 C822 0.961 . S
H810 C822 0.959 . S
H811 C825 0.929 . S
H812 C826 0.931 . S
H813 C828 0.930 . S
C814 H802 0.930 . S
C814 C815 1.399 . S
C814 C819 1.399 . S
C815 C814 1.399 . S
C815 C816 1.376 . S
C816 H803 0.930 . S
C816 C815 1.376 . S
C816 C817 1.388 . S
C817 H804 0.930 . S
C817 C816 1.388 . S
C817 C818 1.390 . S
C818 C817 1.390 . S
C818 C819 1.394 . S
C818 C824 1.465 . S
C819 C814 1.399 . S
C819 C818 1.394 . S
C819 C820 1.516 . S
C820 C819 1.516 . S
C820 C821 1.502 . S
C820 C822 1.561 . S
C820 C823 1.526 . S
C821 H805 0.959 . S
C821 H806 0.959 . S
C821 H807 0.961 . S
C821 C820 1.502 . S
C822 H808 0.960 . S
C822 H809 0.961 . S
C822 H810 0.959 . S
C822 C820 1.561 . S
C823 C820 1.526 . S
C823 C824 1.396 . S
C823 C828 1.390 . S
C824 C818 1.465 . S
C824 C823 1.396 . S
C824 C825 1.399 . S
C825 H811 0.929 . S
C825 C824 1.399 . S
C825 C826 1.385 . S
C826 H812 0.931 . S
C826 C825 1.385 . S
C826 C827 1.389 . S
C827 C826 1.389 . S
C827 C828 1.387 . S
C828 H813 0.930 . S
C828 C823 1.390 . S
C828 C827 1.387 . S
H829 C841 0.930 . S
H830 C843 0.930 . S
H831 C844 0.930 . S
H832 C848 0.962 . S
H833 C848 0.978 . S
H834 C848 0.940 1_554 S
H835 C849 0.958 1_554 S
H836 C849 0.963 . S
H837 C849 0.959 . S
H838 C852 0.929 . S
H839 C853 0.931 . S
H840 C855 0.930 . S
C841 H829 0.930 . S
C841 C842 1.399 . S
C841 C846 1.399 . S
C842 C841 1.399 . S
C842 C843 1.376 . S
C843 H830 0.930 . S
C843 C842 1.376 . S
C843 C844 1.388 . S
C844 H831 0.930 . S
C844 C843 1.388 . S
C844 C845 1.390 . S
C845 C844 1.390 . S
C845 C846 1.394 . S
C845 C851 1.465 1_554 S
C846 C841 1.399 . S
C846 C845 1.394 . S
C846 C847 1.517 1_554 S
C847 C846 1.517 1_556 S
C847 C848 1.502 . S
C847 C849 1.561 . S
C847 C850 1.525 . S
C848 H832 0.962 . S
C848 H833 0.978 . S
C848 H834 0.940 1_556 S
C848 C847 1.502 . S
C849 H835 0.958 1_556 S
C849 H836 0.963 . S
C849 H837 0.959 . S
C849 C847 1.561 . S
C850 C847 1.525 . S
C850 C851 1.396 . S
C850 C855 1.390 . S
C851 C845 1.465 1_556 S
C851 C850 1.396 . S
C851 C852 1.399 . S
C852 H838 0.929 . S
C852 C851 1.399 . S
C852 C853 1.385 . S
C853 H839 0.931 . S
C853 C852 1.385 . S
C853 C854 1.389 . S
C854 C853 1.389 . S
C854 C855 1.387 . S
C855 H840 0.930 . S
C855 C850 1.390 . S
C855 C854 1.387 . S
H856 C868 0.930 . S
H857 C870 0.930 . S
H858 C871 0.930 . S
H859 C875 0.959 . S
H860 C875 0.959 . S
H861 C875 0.961 . S
H862 C876 0.960 . S
H863 C876 0.961 . S
H864 C876 0.959 . S
H865 C879 0.929 . S
H866 C880 0.931 . S
H867 C882 0.930 . S
C868 H856 0.930 . S
C868 C869 1.399 . S
C868 C873 1.399 . S
C869 C868 1.399 . S
C869 C870 1.376 . S
C870 H857 0.930 . S
C870 C869 1.376 . S
C870 C871 1.388 . S
C871 H858 0.930 . S
C871 C870 1.388 . S
C871 C872 1.390 . S
C872 C871 1.390 . S
C872 C873 1.394 . S
C872 C878 1.465 . S
C873 C868 1.399 . S
C873 C872 1.394 . S
C873 C874 1.516 . S
C874 C873 1.516 . S
C874 C875 1.502 . S
C874 C876 1.561 . S
C874 C877 1.526 . S
C875 H859 0.959 . S
C875 H860 0.959 . S
C875 H861 0.961 . S
C875 C874 1.502 . S
C876 H862 0.960 . S
C876 H863 0.961 . S
C876 H864 0.959 . S
C876 C874 1.561 . S
C877 C874 1.526 . S
C877 C878 1.396 . S
C877 C882 1.390 . S
C878 C872 1.465 . S
C878 C877 1.396 . S
C878 C879 1.399 . S
C879 H865 0.929 . S
C879 C878 1.399 . S
C879 C880 1.385 . S
C880 H866 0.931 . S
C880 C879 1.385 . S
C880 C881 1.389 . S
C881 C880 1.389 . S
C881 C882 1.387 . S
C882 H867 0.930 . S
C882 C877 1.390 . S
C882 C881 1.387 . S
H883 C895 0.930 . S
H884 C897 0.930 . S
H885 C898 0.930 . S
H886 C902 0.959 . S
H887 C902 0.959 . S
H888 C902 0.961 . S
H889 C903 0.960 . S
H890 C903 0.961 . S
H891 C903 0.959 . S
H892 C906 0.929 . S
H893 C907 0.931 . S
H894 C909 0.930 . S
C895 H883 0.930 . S
C895 C896 1.399 . S
C895 C900 1.399 . S
C896 C895 1.399 . S
C896 C897 1.376 . S
C897 H884 0.930 . S
C897 C896 1.376 . S
C897 C898 1.388 . S
C898 H885 0.930 . S
C898 C897 1.388 . S
C898 C899 1.390 . S
C899 C898 1.390 . S
C899 C900 1.394 . S
C899 C905 1.465 . S
C900 C895 1.399 . S
C900 C899 1.394 . S
C900 C901 1.516 . S
C901 C900 1.516 . S
C901 C902 1.502 . S
C901 C903 1.561 . S
C901 C904 1.526 . S
C902 H886 0.959 . S
C902 H887 0.959 . S
C902 H888 0.961 . S
C902 C901 1.502 . S
C903 H889 0.960 . S
C903 H890 0.961 . S
C903 H891 0.959 . S
C903 C901 1.561 . S
C904 C901 1.526 . S
C904 C905 1.396 . S
C904 C909 1.390 . S
C905 C899 1.465 . S
C905 C904 1.396 . S
C905 C906 1.399 . S
C906 H892 0.929 . S
C906 C905 1.399 . S
C906 C907 1.385 . S
C907 H893 0.931 . S
C907 C906 1.385 . S
C907 C908 1.389 . S
C908 C907 1.389 . S
C908 C909 1.387 . S
C909 H894 0.930 . S
C909 C904 1.390 . S
C909 C908 1.387 . S
H910 C922 0.930 . S
H911 C924 0.930 . S
H912 C925 0.930 . S
H913 C929 0.959 . S
H914 C929 0.959 . S
H915 C929 0.961 . S
H916 C930 0.960 . S
H917 C930 0.961 . S
H918 C930 0.959 . S
H919 C933 0.929 . S
H920 C934 0.931 . S
H921 C936 0.930 . S
C922 H910 0.930 . S
C922 C923 1.399 . S
C922 C927 1.399 . S
C923 C922 1.399 . S
C923 C924 1.376 . S
C924 H911 0.930 . S
C924 C923 1.376 . S
C924 C925 1.388 . S
C925 H912 0.930 . S
C925 C924 1.388 . S
C925 C926 1.390 . S
C926 C925 1.390 . S
C926 C927 1.394 . S
C926 C932 1.465 . S
C927 C922 1.399 . S
C927 C926 1.394 . S
C927 C928 1.516 . S
C928 C927 1.516 . S
C928 C929 1.502 . S
C928 C930 1.561 . S
C928 C931 1.526 . S
C929 H913 0.959 . S
C929 H914 0.959 . S
C929 H915 0.961 . S
C929 C928 1.502 . S
C930 H916 0.960 . S
C930 H917 0.961 . S
C930 H918 0.959 . S
C930 C928 1.561 . S
C931 C928 1.526 . S
C931 C932 1.396 . S
C931 C936 1.390 . S
C932 C926 1.465 . S
C932 C931 1.396 . S
C932 C933 1.399 . S
C933 H919 0.929 . S
C933 C932 1.399 . S
C933 C934 1.385 . S
C934 H920 0.931 . S
C934 C933 1.385 . S
C934 C935 1.389 . S
C935 C934 1.389 . S
C935 C936 1.387 . S
C936 H921 0.930 . S
C936 C931 1.390 . S
C936 C935 1.387 . S
H937 C949 0.930 . S
H938 C951 0.930 . S
H939 C952 0.930 . S
H940 C956 0.959 . S
H941 C956 0.959 . S
H942 C956 0.961 . S
H943 C957 0.960 . S
H944 C957 0.961 . S
H945 C957 0.959 . S
H946 C960 0.929 . S
H947 C961 0.931 . S
H948 C963 0.930 . S
C949 H937 0.930 . S
C949 C950 1.399 . S
C949 C954 1.399 . S
C950 C949 1.399 . S
C950 C951 1.376 . S
C951 H938 0.930 . S
C951 C950 1.376 . S
C951 C952 1.388 . S
C952 H939 0.930 . S
C952 C951 1.388 . S
C952 C953 1.390 . S
C953 C952 1.390 . S
C953 C954 1.394 . S
C953 C959 1.465 . S
C954 C949 1.399 . S
C954 C953 1.394 . S
C954 C955 1.516 . S
C955 C954 1.516 . S
C955 C956 1.502 . S
C955 C957 1.561 . S
C955 C958 1.526 . S
C956 H940 0.959 . S
C956 H941 0.959 . S
C956 H942 0.961 . S
C956 C955 1.502 . S
C957 H943 0.960 . S
C957 H944 0.961 . S
C957 H945 0.959 . S
C957 C955 1.561 . S
C958 C955 1.526 . S
C958 C959 1.396 . S
C958 C963 1.390 . S
C959 C953 1.465 . S
C959 C958 1.396 . S
C959 C960 1.399 . S
C960 H946 0.929 . S
C960 C959 1.399 . S
C960 C961 1.385 . S
C961 H947 0.931 . S
C961 C960 1.385 . S
C961 C962 1.389 . S
C962 C961 1.389 . S
C962 C963 1.387 . S
C963 H948 0.930 . S
C963 C958 1.390 . S
C963 C962 1.387 . S
H964 C976 0.930 . S
H965 C978 0.930 . S
H966 C979 0.930 . S
H967 C983 0.959 . S
H968 C983 0.959 . S
H969 C983 0.961 . S
H970 C984 0.960 . S
H971 C984 0.961 . S
H972 C984 0.959 . S
H973 C987 0.929 . S
H974 C988 0.931 . S
H975 C990 0.930 . S
C976 H964 0.930 . S
C976 C977 1.399 . S
C976 C981 1.399 . S
C977 C976 1.399 . S
C977 C978 1.376 . S
C978 H965 0.930 . S
C978 C977 1.376 . S
C978 C979 1.388 . S
C979 H966 0.930 . S
C979 C978 1.388 . S
C979 C980 1.390 . S
C980 C979 1.390 . S
C980 C981 1.394 . S
C980 C986 1.465 . S
C981 C976 1.399 . S
C981 C980 1.394 . S
C981 C982 1.516 . S
C982 C981 1.516 . S
C982 C983 1.502 . S
C982 C984 1.561 . S
C982 C985 1.526 . S
C983 H967 0.959 . S
C983 H968 0.959 . S
C983 H969 0.961 . S
C983 C982 1.502 . S
C984 H970 0.960 . S
C984 H971 0.961 . S
C984 H972 0.959 . S
C984 C982 1.561 . S
C985 C982 1.526 . S
C985 C986 1.396 . S
C985 C990 1.390 . S
C986 C980 1.465 . S
C986 C985 1.396 . S
C986 C987 1.399 . S
C987 H973 0.929 . S
C987 C986 1.399 . S
C987 C988 1.385 . S
C988 H974 0.931 . S
C988 C987 1.385 . S
C988 C989 1.389 . S
C989 C988 1.389 . S
C989 C990 1.387 . S
C990 H975 0.930 . S
C990 C985 1.390 . S
C990 C989 1.387 . S
H991 C1003 0.930 . S
H992 C1005 0.930 . S
H993 C1006 0.930 . S
H994 C1010 0.959 . S
H995 C1010 0.959 . S
H996 C1010 0.961 . S
H997 C1011 0.960 . S
H998 C1011 0.961 . S
H999 C1011 0.959 . S
H1000 C1014 0.929 . S
H1001 C1015 0.931 . S
H1002 C1017 0.930 . S
C1003 H991 0.930 . S
C1003 C1004 1.399 . S
C1003 C1008 1.399 . S
C1004 C1003 1.399 . S
C1004 C1005 1.376 . S
C1005 H992 0.930 . S
C1005 C1004 1.376 . S
C1005 C1006 1.388 . S
C1006 H993 0.930 . S
C1006 C1005 1.388 . S
C1006 C1007 1.390 . S
C1007 C1006 1.390 . S
C1007 C1008 1.394 . S
C1007 C1013 1.465 . S
C1008 C1003 1.399 . S
C1008 C1007 1.394 . S
C1008 C1009 1.516 . S
C1009 C1008 1.516 . S
C1009 C1010 1.502 . S
C1009 C1011 1.561 . S
C1009 C1012 1.526 . S
C1010 H994 0.959 . S
C1010 H995 0.959 . S
C1010 H996 0.961 . S
C1010 C1009 1.502 . S
C1011 H997 0.960 . S
C1011 H998 0.961 . S
C1011 H999 0.959 . S
C1011 C1009 1.561 . S
C1012 C1009 1.526 . S
C1012 C1013 1.396 . S
C1012 C1017 1.390 . S
C1013 C1007 1.465 . S
C1013 C1012 1.396 . S
C1013 C1014 1.399 . S
C1014 H1000 0.929 . S
C1014 C1013 1.399 . S
C1014 C1015 1.385 . S
C1015 H1001 0.931 . S
C1015 C1014 1.385 . S
C1015 C1016 1.389 . S
C1016 C1015 1.389 . S
C1016 C1017 1.387 . S
C1017 H1002 0.930 . S
C1017 C1012 1.390 . S
C1017 C1016 1.387 . S
H1018 C1030 0.930 . S
H1019 C1032 0.930 . S
H1020 C1033 0.930 . S
H1021 C1037 0.959 . S
H1022 C1037 0.959 . S
H1023 C1037 0.961 . S
H1024 C1038 0.960 . S
H1025 C1038 0.961 . S
H1026 C1038 0.959 . S
H1027 C1041 0.929 . S
H1028 C1042 0.931 . S
H1029 C1044 0.930 . S
C1030 H1018 0.930 . S
C1030 C1031 1.399 . S
C1030 C1035 1.399 . S
C1031 C1030 1.399 . S
C1031 C1032 1.376 . S
C1032 H1019 0.930 . S
C1032 C1031 1.376 . S
C1032 C1033 1.388 . S
C1033 H1020 0.930 . S
C1033 C1032 1.388 . S
C1033 C1034 1.390 . S
C1034 C1033 1.390 . S
C1034 C1035 1.394 . S
C1034 C1040 1.465 . S
C1035 C1030 1.399 . S
C1035 C1034 1.394 . S
C1035 C1036 1.516 . S
C1036 C1035 1.516 . S
C1036 C1037 1.502 . S
C1036 C1038 1.561 . S
C1036 C1039 1.526 . S
C1037 H1021 0.959 . S
C1037 H1022 0.959 . S
C1037 H1023 0.961 . S
C1037 C1036 1.502 . S
C1038 H1024 0.960 . S
C1038 H1025 0.961 . S
C1038 H1026 0.959 . S
C1038 C1036 1.561 . S
C1039 C1036 1.526 . S
C1039 C1040 1.396 . S
C1039 C1044 1.390 . S
C1040 C1034 1.465 . S
C1040 C1039 1.396 . S
C1040 C1041 1.399 . S
C1041 H1027 0.929 . S
C1041 C1040 1.399 . S
C1041 C1042 1.385 . S
C1042 H1028 0.931 . S
C1042 C1041 1.385 . S
C1042 C1043 1.389 . S
C1043 C1042 1.389 . S
C1043 C1044 1.387 . S
C1044 H1029 0.930 . S
C1044 C1039 1.390 . S
C1044 C1043 1.387 . S
H1045 C1057 0.930 . S
H1046 C1059 0.930 . S
H1047 C1060 0.930 . S
H1048 C1064 0.959 . S
H1049 C1064 0.959 . S
H1050 C1064 0.961 . S
H1051 C1065 0.960 . S
H1052 C1065 0.961 . S
H1053 C1065 0.959 . S
H1054 C1068 0.929 . S
H1055 C1069 0.931 . S
H1056 C1071 0.930 . S
C1057 H1045 0.930 . S
C1057 C1058 1.399 . S
C1057 C1062 1.399 . S
C1058 C1057 1.399 . S
C1058 C1059 1.376 . S
C1059 H1046 0.930 . S
C1059 C1058 1.376 . S
C1059 C1060 1.388 . S
C1060 H1047 0.930 . S
C1060 C1059 1.388 . S
C1060 C1061 1.390 . S
C1061 C1060 1.390 . S
C1061 C1062 1.394 . S
C1061 C1067 1.465 . S
C1062 C1057 1.399 . S
C1062 C1061 1.394 . S
C1062 C1063 1.516 . S
C1063 C1062 1.516 . S
C1063 C1064 1.502 . S
C1063 C1065 1.561 . S
C1063 C1066 1.526 . S
C1064 H1048 0.959 . S
C1064 H1049 0.959 . S
C1064 H1050 0.961 . S
C1064 C1063 1.502 . S
C1065 H1051 0.960 . S
C1065 H1052 0.961 . S
C1065 H1053 0.959 . S
C1065 C1063 1.561 . S
C1066 C1063 1.526 . S
C1066 C1067 1.396 . S
C1066 C1071 1.390 . S
C1067 C1061 1.465 . S
C1067 C1066 1.396 . S
C1067 C1068 1.399 . S
C1068 H1054 0.929 . S
C1068 C1067 1.399 . S
C1068 C1069 1.385 . S
C1069 H1055 0.931 . S
C1069 C1068 1.385 . S
C1069 C1070 1.389 . S
C1070 C1069 1.389 . S
C1070 C1071 1.387 . S
C1071 H1056 0.930 . S
C1071 C1066 1.390 . S
C1071 C1070 1.387 . S
C221 C10 1.918 . S
C233 C36 1.917 . S
C248 C49 1.934 . S
C260 C23 1.900 . S
C275 C62 1.914 . S
C287 C88 1.919 . S
C302 C101 1.906 . S
C314 C75 1.929 . S
C329 C114 1.854 . S
C341 C140 1.828 . S
C356 C153 1.795 . S
C368 C127 1.867 . S
C383 C166 1.803 . S
C395 C192 1.853 . S
C410 C205 1.869 . S
C422 C179 1.808 . S
C437 C55 1.538 . S
C449 C3 1.511 . S
C464 C16 1.531 . S
C476 C68 1.498 . S
C491 C29 1.522 . S
C503 C81 1.505 . S
C518 C94 1.507 . S
C530 C42 1.540 . S
C545 C107 1.548 . S
C557 C159 1.544 . S
C572 C120 1.554 . S
C584 C172 1.552 . S
C599 C133 1.544 . S
C611 C185 1.542 . S
C626 C146 1.542 . S
C638 C198 1.545 . S
C653 C131 1.538 . S
C665 C1 1.501 . S
C680 C144 1.526 . S
C692 C14 1.508 . S
C707 C27 1.506 . S
C719 C105 1.527 . S
C734 C40 1.498 . S
C746 C118 1.533 . S
C761 C53 1.513 . S
C773 C183 1.524 . S
C788 C66 1.535 . S
C800 C196 1.521 . S
C815 C79 1.506 . S
C827 C157 1.527 . S
C842 C170 1.527 . S
C854 C92 1.506 . S
C869 C5 1.831 . S
C881 C200 1.783 . S
C896 C161 1.742 . S
C908 C18 1.827 . S
C923 C31 1.827 . S
C935 C174 1.756 . S
C950 C187 1.793 . S
C962 C44 1.832 . S
C977 C122 1.746 . S
C989 C57 1.828 . S
C1004 C70 1.831 . S
C1016 C135 1.779 . S
C1031 C148 1.745 . S
C1043 C83 1.827 . S
C1058 C109 1.739 . S
C1070 C96 1.827 . S
