# Generated by pormake.
# Topology uol, (4)-cn, num edge types: 1
# Building blocks:
#     Node 0, Type 0, BuildingBlock: ESEHIV_clean_sbu_0, # of connection points: 4
#     Node 1, Type 0, BuildingBlock: ESEHIV_clean_sbu_0, # of connection points: 4
#     Node 2, Type 0, BuildingBlock: ESEHIV_clean_sbu_0, # of connection points: 4
#     Node 3, Type 0, BuildingBlock: ESEHIV_clean_sbu_0, # of connection points: 4
#     Node 4, Type 0, BuildingBlock: ESEHIV_clean_sbu_0, # of connection points: 4
#     Node 5, Type 0, BuildingBlock: ESEHIV_clean_sbu_0, # of connection points: 4
#     Node 6, Type 0, BuildingBlock: ESEHIV_clean_sbu_0, # of connection points: 4
#     Node 7, Type 0, BuildingBlock: ESEHIV_clean_sbu_0, # of connection points: 4
#     Node 8, Type 0, BuildingBlock: ESEHIV_clean_sbu_0, # of connection points: 4
#     Node 9, Type 0, BuildingBlock: ESEHIV_clean_sbu_0, # of connection points: 4
#     Node 10, Type 0, BuildingBlock: ESEHIV_clean_sbu_0, # of connection points: 4
#     Node 11, Type 0, BuildingBlock: ESEHIV_clean_sbu_0, # of connection points: 4
#     Edge 12, Type (0, 0), BuildingBlock: EZIPEK_clean_linker_0, # of connection points: 2
#     Edge 13, Type (0, 0), BuildingBlock: EZIPEK_clean_linker_0, # of connection points: 2
#     Edge 14, Type (0, 0), BuildingBlock: EZIPEK_clean_linker_0, # of connection points: 2
#     Edge 15, Type (0, 0), BuildingBlock: EZIPEK_clean_linker_0, # of connection points: 2
#     Edge 16, Type (0, 0), BuildingBlock: EZIPEK_clean_linker_0, # of connection points: 2
#     Edge 17, Type (0, 0), BuildingBlock: EZIPEK_clean_linker_0, # of connection points: 2
#     Edge 18, Type (0, 0), BuildingBlock: EZIPEK_clean_linker_0, # of connection points: 2
#     Edge 19, Type (0, 0), BuildingBlock: EZIPEK_clean_linker_0, # of connection points: 2
#     Edge 20, Type (0, 0), BuildingBlock: EZIPEK_clean_linker_0, # of connection points: 2
#     Edge 21, Type (0, 0), BuildingBlock: EZIPEK_clean_linker_0, # of connection points: 2
#     Edge 22, Type (0, 0), BuildingBlock: EZIPEK_clean_linker_0, # of connection points: 2
#     Edge 23, Type (0, 0), BuildingBlock: EZIPEK_clean_linker_0, # of connection points: 2
#     Edge 24, Type (0, 0), BuildingBlock: EZIPEK_clean_linker_0, # of connection points: 2
#     Edge 25, Type (0, 0), BuildingBlock: EZIPEK_clean_linker_0, # of connection points: 2
#     Edge 26, Type (0, 0), BuildingBlock: EZIPEK_clean_linker_0, # of connection points: 2
#     Edge 27, Type (0, 0), BuildingBlock: EZIPEK_clean_linker_0, # of connection points: 2
#     Edge 28, Type (0, 0), BuildingBlock: EZIPEK_clean_linker_0, # of connection points: 2
#     Edge 29, Type (0, 0), BuildingBlock: EZIPEK_clean_linker_0, # of connection points: 2
#     Edge 30, Type (0, 0), BuildingBlock: EZIPEK_clean_linker_0, # of connection points: 2
#     Edge 31, Type (0, 0), BuildingBlock: EZIPEK_clean_linker_0, # of connection points: 2
#     Edge 32, Type (0, 0), BuildingBlock: EZIPEK_clean_linker_0, # of connection points: 2
#     Edge 33, Type (0, 0), BuildingBlock: EZIPEK_clean_linker_0, # of connection points: 2
#     Edge 34, Type (0, 0), BuildingBlock: EZIPEK_clean_linker_0, # of connection points: 2
#     Edge 35, Type (0, 0), BuildingBlock: EZIPEK_clean_linker_0, # of connection points: 2
# Relax obj value: 0.162
# Max RMSD: 0.228
# Mean RMSD: 0.228
data_MOF--net-uol--node1-ESEHIV_clean_sbu_0--edge1-EZIPEK_clean_linker_0
_symmetry_space_group_name_H-M    P1
_symmetry_Int_Tables_number       1
_symmetry_cell_setting            triclinic
loop_
_symmetry_equiv_pos_as_xyz
'x, y, z'
_cell_length_a     29.595765
_cell_length_b     29.400343
_cell_length_c     41.296051
_cell_angle_alpha  88.725652
_cell_angle_beta   90.353648
_cell_angle_gamma 119.95662
loop_
_atom_site_label
_atom_site_type_symbol
_atom_site_fract_x
_atom_site_fract_y
_atom_site_fract_z
_atom_type_partial_charge
Cu0 Cu 0.14903 0.3586 0.10246 0.0
N1 N 0.19997 0.37482 0.13397 0.0
N2 N 0.25715 0.36572 0.16479 0.0
C3 C 0.21844 0.34302 0.1431 0.0
C4 C 0.26323 0.41356 0.16994 0.0
C5 C 0.22788 0.41921 0.15067 0.0
O6 O 0.16449 0.32302 0.06858 0.0
C7 C 0.06661 0.26587 0.13123 0.0
O8 O 0.09742 0.24662 0.12583 0.0
H9 H 0.20442 0.30422 0.13362 0.0
H10 H 0.22345 0.4535 0.14866 0.0
N11 N 0.15213 0.41999 0.08575 0.0
N12 N 0.15437 0.49701 0.08211 0.0
C13 C 0.14894 0.45757 0.10209 0.0
C14 C 0.15937 0.43628 0.05449 0.0
C15 C 0.16101 0.48397 0.05219 0.0
C16 C 0.20938 0.34655 0.05515 0.0
O17 O 0.2427 0.39513 0.06295 0.0
H18 H 0.14357 0.45652 0.12805 0.0
H19 H 0.16373 0.4152 0.03475 0.0
O20 O 0.08084 0.31286 0.12221 0.0
H21 H 0.29143 0.44226 0.18615 0.0
H22 H 0.16711 0.50754 0.0304 0.0
Cu23 Cu 0.82051 0.13995 0.26661 0.0
N24 N 0.85123 0.18132 0.3025 0.0
N25 N 0.91534 0.23079 0.3363 0.0
C26 C 0.90274 0.21441 0.30567 0.0
C27 C 0.87016 0.20747 0.35315 0.0
C28 C 0.83046 0.17687 0.33212 0.0
O29 O 0.87655 0.16496 0.23451 0.0
C30 C 0.82675 0.05456 0.29302 0.0
O31 O 0.87689 0.08887 0.29199 0.0
H32 H 0.93098 0.22315 0.28656 0.0
H33 H 0.79001 0.1505 0.33842 0.0
N34 N 0.76608 0.14977 0.25131 0.0
N35 N 0.69459 0.15726 0.24883 0.0
C36 C 0.72425 0.14442 0.26767 0.0
C37 C 0.76249 0.16663 0.22132 0.0
C38 C 0.71843 0.17128 0.21971 0.0
C39 C 0.8758 0.14718 0.20658 0.0
O40 O 0.83353 0.10551 0.19648 0.0
H41 H 0.71624 0.13248 0.29293 0.0
H42 H 0.79062 0.17601 0.20214 0.0
O43 O 0.79478 0.06746 0.28118 0.0
H44 H 0.86667 0.21005 0.37903 0.0
H45 H 0.70536 0.18487 0.19905 0.0
Cu46 Cu 0.71196 0.81111 0.4337 0.0
N47 N 0.70298 0.84421 0.46891 0.0
N48 N 0.71798 0.90968 0.50143 0.0
C49 C 0.72573 0.89656 0.47181 0.0
C50 C 0.68909 0.86401 0.51792 0.0
C51 C 0.67972 0.82343 0.49765 0.0
O52 O 0.74167 0.86581 0.40002 0.0
C53 C 0.80214 0.81724 0.46015 0.0
O54 O 0.81718 0.86751 0.46005 0.0
H55 H 0.74986 0.92463 0.45319 0.0
H56 H 0.65951 0.78196 0.50385 0.0
N57 N 0.64683 0.75678 0.42077 0.0
N58 N 0.56812 0.68443 0.4211 0.0
C59 C 0.61491 0.71044 0.43596 0.0
C60 C 0.61948 0.75967 0.39545 0.0
C61 C 0.57101 0.71516 0.39557 0.0
C62 C 0.75542 0.86354 0.37125 0.0
O63 O 0.75232 0.82002 0.36116 0.0
H64 H 0.62484 0.69709 0.4581 0.0
H65 H 0.63327 0.79279 0.3787 0.0
O66 O 0.75825 0.78521 0.44786 0.0
H67 H 0.67746 0.86049 0.54307 0.0
H68 H 0.53966 0.70652 0.37875 0.0
Cu69 Cu 0.92769 0.69821 0.59947 0.0
N70 N 0.88062 0.67955 0.63364 0.0
N71 N 0.82982 0.69152 0.66788 0.0
C72 C 0.85226 0.70303 0.63837 0.0
C73 C 0.84444 0.65953 0.68254 0.0
C74 C 0.87603 0.65221 0.66125 0.0
O75 O 0.8984 0.72167 0.56495 0.0
C76 C 1.02372 0.74481 0.63225 0.0
O77 O 1.01434 0.69618 0.63386 0.0
H78 H 0.85154 0.73146 0.62156 0.0
H79 H 0.89726 0.63184 0.6665 0.0
N80 N 0.93497 0.6414 0.58647 0.0
N81 N 0.93102 0.56355 0.58517 0.0
C82 C 0.91349 0.59253 0.5997 0.0
C83 C 0.96676 0.6429 0.56274 0.0
C84 C 0.96443 0.59489 0.56189 0.0
C85 C 0.92026 0.74738 0.53905 0.0
O86 O 0.96873 0.76057 0.53256 0.0
H87 H 0.88641 0.57863 0.61986 0.0
H88 H 0.99093 0.67705 0.54763 0.0
O89 O 0.99303 0.75522 0.61611 0.0
H90 H 0.83583 0.64557 0.70745 0.0
H91 H 0.98615 0.58402 0.5459 0.0
Cu92 Cu 0.25967 0.92338 0.76695 0.0
N93 N 0.22613 0.87388 0.80046 0.0
N94 N 0.16068 0.81788 0.83259 0.0
C95 C 0.17594 0.85485 0.80893 0.0
C96 C 0.20305 0.8141 0.84014 0.0
C97 C 0.24361 0.84893 0.82023 0.0
O98 O 0.21961 0.89318 0.72754 0.0
C99 C 0.28511 1.00653 0.80671 0.0
O100 O 0.3044 0.98139 0.82309 0.0
H101 H 0.15063 0.86715 0.7976 0.0
H102 H 0.28287 0.85536 0.82023 0.0
N103 N 0.32869 0.9387 0.76082 0.0
N104 N 0.40213 0.93496 0.7588 0.0
C105 C 0.35017 0.90775 0.76436 0.0
C106 C 0.36848 0.98655 0.75242 0.0
C107 C 0.41386 0.98441 0.75123 0.0
C108 C 0.17669 0.8918 0.72156 0.0
O109 O 0.16005 0.91496 0.74112 0.0
H110 H 0.32857 0.86647 0.77104 0.0
H111 H 0.36477 1.02085 0.74781 0.0
O112 O 0.26193 0.9879 0.78005 0.0
H113 H 0.20427 0.78779 0.85843 0.0
H114 H 0.45257 1.01664 0.74568 0.0
Cu115 Cu 0.37454 0.25358 0.93506 0.0
N116 N 0.38677 0.21299 0.96551 0.0
N117 N 0.37209 0.14317 0.99591 0.0
C118 C 0.3576 0.1605 0.96955 0.0
C119 C 0.41176 0.18615 1.00913 0.0
C120 C 0.42078 0.2293 0.99027 0.0
O121 O 0.33507 0.20797 0.89947 0.0
C122 C 0.28901 0.25214 0.96692 0.0
O123 O 0.26402 0.20192 0.9604 0.0
H124 H 0.32484 0.13569 0.95441 0.0
H125 H 0.4486 0.26983 0.99512 0.0
N126 N 0.43734 0.30992 0.91913 0.0
N127 N 0.51583 0.38219 0.91567 0.0
C128 C 0.47834 0.34666 0.93575 0.0
C129 C 0.44943 0.32331 0.88765 0.0
C130 C 0.49795 0.36778 0.88543 0.0
C131 C 0.35353 0.1821 0.886 0.0
O132 O 0.39948 0.18989 0.89498 0.0
H133 H 0.48049 0.34797 0.96189 0.0
H134 H 0.42421 0.30266 0.8677 0.0
O135 O 0.33585 0.28114 0.95726 0.0
H136 H 0.43139 0.18639 0.03138 0.0
H137 H 0.51833 0.38835 0.86344 0.0
Cu138 Cu 0.69969 0.89017 0.77176 0.0
N139 N 0.70794 0.85183 0.73912 0.0
N140 N 0.73162 0.80285 0.71142 0.0
C141 C 0.7333 0.82442 0.74016 0.0
C142 C 0.7041 0.8167 0.69152 0.0
C143 C 0.68937 0.84684 0.70876 0.0
O144 O 0.71555 0.86923 0.81372 0.0
C145 C 0.78508 0.98458 0.7459 0.0
O146 O 0.80634 0.95529 0.74135 0.0
H147 H 0.75325 0.82075 0.76118 0.0
H148 H 0.66697 0.86432 0.69977 0.0
N149 N 0.62901 0.87007 0.77235 0.0
N150 N 0.55372 0.87008 0.76988 0.0
C151 C 0.60625 0.89989 0.76946 0.0
C152 C 0.5895 0.8201 0.7746 0.0
C153 C 0.54292 0.81997 0.77307 0.0
C154 C 0.75866 0.87183 0.82095 0.0
O155 O 0.79884 0.89672 0.80133 0.0
H156 H 0.62753 0.94226 0.76677 0.0
H157 H 0.59442 0.7861 0.77686 0.0
O158 O 0.74097 0.96495 0.76018 0.0
H159 H 0.69592 0.80624 0.66634 0.0
H160 H 0.50415 0.78592 0.77404 0.0
Cu161 Cu 0.84543 0.69763 0.94116 0.0
N162 N 0.8806 0.68663 0.90782 0.0
N163 N 0.94997 0.70643 0.87703 0.0
C164 C 0.93246 0.70566 0.9072 0.0
C165 C 0.90747 0.68631 0.85795 0.0
C166 C 0.86459 0.67411 0.87706 0.0
O167 O 0.89558 0.72324 0.97656 0.0
C168 C 0.78457 0.74574 0.92176 0.0
O169 O 0.74508 0.70659 0.93708 0.0
H170 H 0.95764 0.72379 0.92771 0.0
H171 H 0.82551 0.66172 0.86868 0.0
N172 N 0.78556 0.63395 0.95303 0.0
N173 N 0.70956 0.55864 0.95144 0.0
C174 C 0.74506 0.60123 0.93435 0.0
C175 C 0.77507 0.61063 0.98265 0.0
C176 C 0.72823 0.56426 0.98174 0.0
C177 C 0.88898 0.73183 1.00574 0.0
O178 O 0.84438 0.72722 1.01478 0.0
H179 H 0.7417 0.60825 0.90886 0.0
H180 H 0.79983 0.62596 1.00355 0.0
O181 O 0.82955 0.75013 0.92318 0.0
H182 H 0.9081 0.68446 0.83181 0.0
H183 H 0.70926 0.53671 1.00169 0.0
Cu184 Cu 0.16549 0.82647 0.11007 0.0
N185 N 0.21524 0.86399 0.0778 0.0
N186 N 0.2675 0.93261 0.04589 0.0
C187 C 0.24548 0.91664 0.07548 0.0
C188 C 0.25113 0.88854 0.02892 0.0
C189 C 0.21882 0.84621 0.04868 0.0
O190 O 0.18556 0.86859 0.14898 0.0
C191 C 0.05617 0.77101 0.0955 0.0
O192 O 0.0534 0.73361 0.11484 0.0
H193 H 0.24801 0.94319 0.094 0.0
H194 H 0.19628 0.80578 0.04146 0.0
N195 N 0.16366 0.76318 0.12068 0.0
N196 N 0.16038 0.6857 0.11894 0.0
C197 C 0.1609 0.72533 0.1014 0.0
C198 C 0.16481 0.74656 0.15117 0.0
C199 C 0.16285 0.69882 0.15018 0.0
C200 C 0.18522 0.91151 0.15106 0.0
O201 O 0.16528 0.92643 0.12743 0.0
H202 H 0.15925 0.72659 0.07525 0.0
H203 H 0.16702 0.76789 0.17268 0.0
O204 O 0.0992 0.81377 0.09207 0.0
H205 H 0.25918 0.88742 1.0035 0.0
H206 H 0.16348 0.67558 0.1707 0.0
Cu207 Cu 0.37339 0.15986 0.27655 0.0
N208 N 0.38027 0.20693 0.24294 0.0
N209 N 0.36029 0.25814 0.2124 0.0
C210 C 0.3613 0.24021 0.2426 0.0
C211 C 0.38046 0.23635 0.19302 0.0
C212 C 0.39292 0.20493 0.21194 0.0
O213 O 0.3487 0.17797 0.31541 0.0
C214 C 0.29064 0.07859 0.24155 0.0
O215 O 0.27939 0.11532 0.23405 0.0
H216 H 0.34426 0.24769 0.2634 0.0
H217 H 0.40641 0.17926 0.20337 0.0
N218 N 0.43835 0.16685 0.28672 0.0
N219 N 0.51401 0.16721 0.2851 0.0
C220 C 0.47237 0.16122 0.26791 0.0
C221 C 0.4594 0.17668 0.31653 0.0
C222 C 0.50604 0.17697 0.31561 0.0
C223 C 0.30585 0.17804 0.31742 0.0
O224 O 0.27216 0.15941 0.29367 0.0
H225 H 0.46665 0.15251 0.24239 0.0
H226 H 0.4417 0.18275 0.33761 0.0
O227 O 0.32726 0.08836 0.26154 0.0
H228 H 0.38308 0.2405 0.16687 0.0
H229 H 0.53214 0.18369 0.33571 0.0
Cu230 Cu 0.23977 0.36387 0.44105 0.0
N231 N 0.19586 0.36689 0.40968 0.0
N232 N 0.12403 0.34655 0.38165 0.0
C233 C 0.14374 0.33601 0.40837 0.0
C234 C 0.16493 0.38549 0.36547 0.0
C235 C 0.20943 0.3981 0.38295 0.0
O236 O 0.195 0.32792 0.47864 0.0
C237 C 0.24122 0.28218 0.40764 0.0
O238 O 0.19065 0.26365 0.40675 0.0
H239 H 0.12091 0.30517 0.42598 0.0
H240 H 0.24904 0.42701 0.3763 0.0
N241 N 0.29172 0.43347 0.44848 0.0
N242 N 0.36816 0.50868 0.44711 0.0
C243 C 0.3442 0.45557 0.44719 0.0
C244 C 0.28269 0.47401 0.44926 0.0
C245 C 0.32957 0.52025 0.44863 0.0
C246 C 0.18444 0.35135 0.50037 0.0
O247 O 0.20909 0.40283 0.50046 0.0
H248 H 0.36424 0.43355 0.44434 0.0
H249 H 0.24441 0.47019 0.44842 0.0
O250 O 0.2699 0.32392 0.42319 0.0
H251 H 0.16281 0.40223 0.34229 0.0
H252 H 0.33502 0.55952 0.44784 0.0
Cu253 Cu 0.90594 0.22976 0.60828 0.0
N254 N 0.86288 0.18975 0.57499 0.0
N255 N 0.81409 0.11982 0.5452 0.0
C256 C 0.84118 0.1374 0.57281 0.0
C257 C 0.81864 0.16248 0.52932 0.0
C258 C 0.84879 0.20581 0.54793 0.0
O259 O 0.8923 0.17887 0.64349 0.0
C260 C 0.99763 0.23941 0.57975 0.0
O261 O 0.97179 0.18786 0.58081 0.0
H262 H 0.84628 0.11279 0.59064 0.0
H263 H 0.86059 0.24624 0.54189 0.0
N264 N 0.8876 0.28019 0.61856 0.0
N265 N 0.8853 0.35498 0.61729 0.0
C266 C 0.91237 0.33119 0.60899 0.0
C267 C 0.84332 0.27163 0.63309 0.0
C268 C 0.84188 0.31784 0.63244 0.0
C269 C 0.88336 0.18219 0.67322 0.0
O270 O 0.88867 0.22616 0.68417 0.0
H271 H 0.94832 0.34993 0.59512 0.0
H272 H 0.81328 0.23393 0.64245 0.0
O273 O 0.97729 0.26461 0.59176 0.0
H274 H 0.80229 0.16228 0.50577 0.0
H275 H 0.81074 0.32344 0.64139 0.0
C276 C 0.20589 0.63696 0.10695 0.0
C277 C 0.15922 0.63925 0.10735 0.0
C278 C 0.1098 0.54827 0.08917 0.0
C279 C 0.15587 0.54492 0.0909 0.0
N280 N 0.24688 0.58321 0.10309 0.0
N281 N 0.06639 0.59773 0.10147 0.0
C282 C 0.20378 0.58862 0.10024 0.0
C283 C 0.11101 0.59508 0.09895 0.0
N284 N 0.25221 0.68167 0.11234 0.0
N285 N 0.06518 0.50659 0.07786 0.0
H286 H 0.06664 0.63187 0.10817 0.0
H287 H 1.02906 0.56585 0.09862 0.0
H288 H 0.06319 0.47142 0.07166 0.0
H289 H 1.03107 0.50745 0.07303 0.0
H290 H 0.28853 0.68457 0.10995 0.0
H291 H 0.25442 0.71741 0.11717 0.0
H292 H 0.28219 0.61157 0.11263 0.0
H293 H 0.24646 0.54861 0.09738 0.0
C294 C 0.6535 0.2083 0.26571 0.0
C295 C 0.64881 0.1594 0.25812 0.0
C296 C 0.55443 0.11527 0.26809 0.0
C297 C 0.55874 0.16463 0.2739 0.0
N298 N 0.60988 0.25867 0.27383 0.0
N299 N 0.59549 0.06756 0.24773 0.0
C300 C 0.60773 0.21137 0.27145 0.0
C301 C 0.59933 0.11315 0.25806 0.0
N302 N 0.70203 0.25139 0.2682 0.0
N303 N 0.50776 0.07049 0.27342 0.0
H304 H 0.62804 0.06509 0.24083 0.0
H305 H 0.56018 0.03334 0.24395 0.0
H306 H 0.4744 0.07112 0.28071 0.0
H307 H 0.50279 0.0329 0.27277 0.0
H308 H 0.70889 0.28738 0.27664 0.0
H309 H 0.73603 0.24998 0.26399 0.0
H310 H 0.64345 0.29467 0.2695 0.0
H311 H 0.57667 0.2617 0.27764 0.0
C312 C 0.50108 0.5935 0.4089 0.0
C313 C 0.52239 0.63562 0.43073 0.0
C314 C 0.4481 0.58469 0.46735 0.0
C315 C 0.42283 0.54699 0.44307 0.0
N316 N 0.42283 0.51871 0.38871 0.0
N317 N 0.51311 0.67425 0.47933 0.0
C318 C 0.44891 0.55173 0.4134 0.0
C319 C 0.49549 0.63179 0.45989 0.0
N320 N 0.53108 0.59367 0.38389 0.0
N321 N 0.42634 0.5752 0.49754 0.0
H322 H 0.54651 0.71003 0.47409 0.0
H323 H 0.49216 0.6755 0.49913 0.0
H324 H 0.39188 0.54062 0.50346 0.0
H325 H 0.44488 0.59884 0.51724 0.0
H326 H 0.51961 0.562 0.36866 0.0
H327 H 0.56965 0.62359 0.38051 0.0
H328 H 0.43814 0.52383 0.36541 0.0
H329 H 0.38412 0.48877 0.39064 0.0
C330 C 0.94256 0.50166 0.62104 0.0
C331 C 0.91887 0.51078 0.59364 0.0
C332 C 0.87631 0.41739 0.58052 0.0
C333 C 0.89745 0.40778 0.60899 0.0
N334 N 0.94577 0.43799 0.65825 0.0
N335 N 0.85908 0.47817 0.54926 0.0
C336 C 0.92927 0.44926 0.62981 0.0
C337 C 0.88463 0.46877 0.57385 0.0
N338 N 0.97904 0.54348 0.63791 0.0
N339 N 0.84917 0.37731 0.55968 0.0
H340 H 0.86464 0.51553 0.54407 0.0
H341 H 0.82993 0.44887 0.5355 0.0
H342 H 0.84203 0.33926 0.56437 0.0
H343 H 0.83664 0.38218 0.53694 0.0
H344 H 1.00157 0.54048 0.65636 0.0
H345 H 0.98935 0.58213 0.63189 0.0
H346 H 0.9649 0.46523 0.67625 0.0
H347 H 0.93735 0.40001 0.6647 0.0
C348 C 0.49695 0.89075 0.73613 0.0
C349 C 0.51612 0.8874 0.76707 0.0
C350 C 0.45976 0.91553 0.79259 0.0
C351 C 0.43885 0.91654 0.76182 0.0
N352 N 0.43254 0.90106 0.70479 0.0
N353 N 0.51354 0.89097 0.82495 0.0
C354 C 0.45616 0.90302 0.73366 0.0
C355 C 0.49683 0.89825 0.79541 0.0
N356 N 0.51862 0.88286 0.70924 0.0
N357 N 0.44507 0.93268 0.81883 0.0
H358 H 0.5418 0.87982 0.82744 0.0
H359 H 0.49772 0.89312 0.84691 0.0
H360 H 0.41737 0.94469 0.81736 0.0
H361 H 0.46214 0.9379 0.84155 0.0
H362 H 0.51 0.8888 0.68561 0.0
H363 H 0.54789 0.87296 0.71068 0.0
H364 H 0.43987 0.88758 0.68349 0.0
H365 H 0.40279 0.91018 0.70262 0.0
C366 C 0.5665 0.47427 0.93299 0.0
C367 C 0.56482 0.42707 0.92441 0.0
C368 C 0.65994 0.46945 0.92964 0.0
C369 C 0.66117 0.51549 0.9403 0.0
N370 N 0.61703 0.56192 0.95475 0.0
N371 N 0.60751 0.37693 0.91682 0.0
C372 C 0.61474 0.51799 0.94259 0.0
C373 C 0.61104 0.42399 0.92322 0.0
N374 N 0.52197 0.47727 0.93112 0.0
N375 N 0.70589 0.46987 0.92543 0.0
H376 H 0.57204 0.34331 0.91199 0.0
H377 H 0.63873 0.37009 0.91817 0.0
H378 H 0.74193 0.50262 0.93048 0.0
H379 H 0.70885 0.43948 0.91516 0.0
H380 H 0.52077 0.51168 0.93414 0.0
H381 H 0.4862 0.44546 0.92451 0.0
H382 H 0.58439 0.56497 0.96021 0.0
H383 H 0.65218 0.59489 0.961 0.0
C384 C 0.28129 0.26721 0.20854 0.0
C385 C 0.33517 0.28735 0.20211 0.0
C386 C 0.33769 0.3603 0.17059 0.0
C387 C 0.28515 0.34227 0.17937 0.0
N388 N 0.21057 0.28601 0.21233 0.0
N389 N 0.41708 0.35839 0.18257 0.0
C390 C 0.25819 0.29806 0.20024 0.0
C391 C 0.36414 0.33561 0.18475 0.0
N392 N 0.25135 0.2173 0.22059 0.0
N393 N 0.36144 0.39942 0.1477 0.0
H394 H 0.43746 0.34171 0.19345 0.0
H395 H 0.44096 0.39586 0.17271 0.0
H396 H 0.34273 0.41773 0.13668 0.0
H397 H 0.39789 0.4106 0.13779 0.0
H398 H 0.21094 0.19888 0.22291 0.0
H399 H 0.26606 0.19222 0.22489 0.0
H400 H 0.19082 0.25695 0.23005 0.0
H401 H 0.19339 0.3088 0.20695 0.0
C402 C 0.98658 0.311 0.36043 0.0
C403 C 0.96729 0.2594 0.34919 0.0
C404 C 0.05288 0.26723 0.35735 0.0
C405 C 0.07114 0.31735 0.37059 0.0
N406 N 0.05495 0.38457 0.38934 0.0
N407 N 0.97812 0.18423 0.34295 0.0
C408 C 1.03776 0.33859 0.37348 0.0
C409 C 0.99941 0.23631 0.34935 0.0
N410 N 0.95649 0.33404 0.35748 0.0
N411 N 0.08723 0.25008 0.35156 0.0
H412 H 0.93871 0.16035 0.33791 0.0
H413 H 0.9982 0.16369 0.34565 0.0
H414 H 0.12679 0.27228 0.35696 0.0
H415 H 0.07753 0.21613 0.33894 0.0
H416 H 0.96988 0.37334 0.36234 0.0
H417 H 0.919 0.3146 0.34786 0.0
H418 H 1.03112 0.39998 0.3951 0.0
H419 H 0.09245 0.40542 0.39885 0.0
C420 C 0.82075 0.04531 0.52475 0.0
C421 C 0.78948 0.06686 0.53393 0.0
C422 C 0.71053 0.98475 0.52056 0.0
C423 C 0.7417 0.96199 0.51379 0.0
N424 N 0.82507 0.96653 0.51527 0.0
N425 N 0.70518 0.05596 0.54553 0.0
C426 C 0.79653 0.9912 0.51755 0.0
C427 C 0.7344 0.03622 0.5332 0.0
N428 N 0.8735 0.0772 0.5219 0.0
N429 N 0.65849 0.95771 0.5138 0.0
H430 H 0.72193 0.09352 0.555 0.0
H431 H 0.6649 0.03392 0.54865 0.0
H432 H 0.64025 0.92004 0.50441 0.0
H433 H 0.63433 0.97393 0.51516 0.0
H434 H 0.89811 0.06506 0.51231 0.0
H435 H 0.89212 0.1173 0.52643 0.0
H436 H 0.86462 0.98437 0.5207 0.0
H437 H 0.80799 0.92652 0.51093 0.0
C438 C 0.75036 0.69146 0.68565 0.0
C439 C 0.80529 0.71764 0.68254 0.0
C440 C 0.81157 0.80016 0.6988 0.0
C441 C 0.75675 0.77365 0.70298 0.0
N442 N 0.6745 0.69346 0.70603 0.0
N443 N 0.88922 0.79309 0.69201 0.0
C444 C 0.72625 0.71893 0.69811 0.0
C445 C 0.83624 0.77094 0.69102 0.0
N446 N 0.72147 0.64098 0.67555 0.0
N447 N 0.83954 0.85359 0.70079 0.0
H448 H 0.90807 0.77218 0.68663 0.0
H449 H 0.91406 0.83037 0.70081 0.0
H450 H 0.82229 0.87605 0.706 0.0
H451 H 0.87893 0.87602 0.69481 0.0
H452 H 0.68097 0.62099 0.67402 0.0
H453 H 0.73857 0.62003 0.6668 0.0
H454 H 0.65064 0.65283 0.70579 0.0
H455 H 0.65629 0.71301 0.71531 0.0
C456 C 1.02528 0.70626 0.85147 0.0
C457 C 1.00362 0.73402 0.86638 0.0
C458 C 0.08871 0.81451 0.86394 0.0
C459 C 0.10886 0.78822 0.84597 0.0
N460 N 0.0947 0.71147 0.81782 0.0
N461 N 1.01161 0.81701 0.88011 0.0
C462 C 0.07675 0.73457 0.83848 0.0
C463 C 1.03454 0.78891 0.8709 0.0
N464 N 0.99697 0.65278 0.85048 0.0
N465 N 0.12181 0.86373 0.87478 0.0
H466 H 0.97146 0.80004 0.88343 0.0
H467 H 1.03155 0.85785 0.881 0.0
H468 H 0.16196 0.88245 0.87068 0.0
H469 H 0.11033 0.88344 0.89043 0.0
H470 H 1.01228 0.62978 0.84266 0.0
H471 H 0.95936 0.63123 0.86011 0.0
H472 H 0.07131 0.67402 0.80878 0.0
H473 H 0.13196 0.73151 0.8076 0.0
C474 C 0.26688 1.01393 0.03014 0.0
C475 C 0.29407 0.98574 0.03315 0.0
C476 C 0.37209 0.06074 1.00929 0.0
C477 C 0.34631 0.09039 1.00917 0.0
N478 N 0.27309 0.09916 0.02517 0.0
N479 N 0.37402 0.98371 0.02996 0.0
C480 C 0.29473 0.06806 0.02123 0.0
C481 C 0.3472 1.00958 0.02389 0.0
N482 N 0.21405 0.9883 0.03444 0.0
N483 N 0.41957 0.08097 0.99445 0.0
H484 H 0.35656 0.94632 0.04077 0.0
H485 H 0.41414 1.00073 0.02666 0.0
H486 H 0.43828 0.11815 0.98334 0.0
H487 H 0.43838 0.05953 0.9909 0.0
H488 H 0.19135 1.00559 0.0296 0.0
H489 H 0.19222 0.94816 0.03974 0.0
H490 H 0.23745 0.08634 0.03676 0.0
H491 H 0.29316 0.13931 1.01964 0.0
C492 C 0.26759 0.3094 0.04316 0.0
C493 C 0.22648 0.31837 0.03327 0.0
C494 C 0.22582 0.2832 0.97963 0.0
C495 C 0.26592 0.27316 0.98989 0.0
N496 N 0.31754 0.26612 0.03296 0.0
N497 N 0.16137 0.30767 0.99403 0.0
C498 C 0.28474 0.28334 0.0221 0.0
C499 C 0.20379 0.30303 1.00213 0.0
N500 N 0.29066 0.32624 0.07263 0.0
N501 N 0.21039 0.27579 0.94797 0.0
H502 H 0.14588 0.32448 1.00913 0.0
H503 H 0.13937 0.29202 0.97327 0.0
H504 H 0.22511 0.26055 0.9311 0.0
H505 H 0.18562 0.28767 0.93777 0.0
H506 H 0.32511 0.32737 0.0795 0.0
H507 H 0.27706 0.34192 0.08985 0.0
H508 H 0.3281 0.26679 0.0571 0.0
H509 H 0.3309 0.24679 1.0183 0.0
C510 C 0.92229 0.19585 0.15501 0.0
C511 C 0.92357 0.17404 0.18586 0.0
C512 C 1.01892 0.21577 0.1817 0.0
C513 C 1.01724 0.2341 0.14985 0.0
N514 N 0.96645 0.23331 0.10378 0.0
N515 N 0.97164 0.15348 0.22521 0.0
C516 C 0.96864 0.22179 0.1358 0.0
C517 C 0.97152 0.18119 0.19822 0.0
N518 N 0.87751 0.19402 0.14458 0.0
N519 N 0.06578 0.23328 0.19685 0.0
H520 H 0.93758 0.12656 0.23739 0.0
H521 H 1.00471 0.15301 0.23352 0.0
H522 H 0.10137 0.25959 0.18596 0.0
H523 H 0.06915 0.22582 0.22126 0.0
H524 H 0.87591 0.21466 0.1242 0.0
H525 H 0.84269 0.17536 0.15767 0.0
H526 H 0.93162 0.22019 0.09124 0.0
H527 H 0.99942 0.252 0.08891 0.0
C528 C 0.82499 1.00723 0.34481 0.0
C529 C 0.80779 1.00486 0.31239 0.0
C530 C 0.75329 0.90898 0.3187 0.0
C531 C 0.77559 0.91118 0.34968 0.0
N532 N 0.84256 0.96217 0.38841 0.0
N533 N 0.76215 0.95233 0.2665 0.0
C534 C 0.81446 0.96027 0.36157 0.0
C535 C 0.77379 0.95536 0.29872 0.0
N536 N 0.84884 0.05401 0.36039 0.0
N537 N 0.71086 0.86352 0.30895 0.0
H538 H 0.77663 0.98529 0.25111 0.0
H539 H 0.74204 0.91688 0.25451 0.0
H540 H 0.69361 0.82911 0.32307 0.0
H541 H 0.68974 0.86133 0.28819 0.0
H542 H 0.85779 0.05703 0.38498 0.0
H543 H 0.85382 0.08877 0.34986 0.0
H544 H 0.87458 0.99675 0.39628 0.0
H545 H 0.83769 0.92856 0.40062 0.0
C546 C 0.87258 0.79737 0.53162 0.0
C547 C 0.8918 0.7664 0.51796 0.0
C548 C 0.8548 0.77114 0.46526 0.0
C549 C 0.8315 0.79773 0.47988 0.0
N550 N 0.80844 0.82535 0.52867 0.0
N551 N 0.89473 0.71688 0.47302 0.0
C552 C 0.83769 0.80784 0.51355 0.0
C553 C 0.88131 0.75149 0.48504 0.0
N554 N 0.88922 0.81859 0.56147 0.0
N555 N 0.85296 0.76605 0.43239 0.0
H556 H 0.91391 0.70152 0.48674 0.0
H557 H 0.88316 0.70007 0.45037 0.0
H558 H 0.83346 0.77946 0.4173 0.0
H559 H 0.87399 0.75227 0.41987 0.0
H560 H 0.88072 0.8459 0.57116 0.0
H561 H 0.91601 0.81327 0.57518 0.0
H562 H 0.80734 0.82822 0.55372 0.0
H563 H 0.78097 0.83168 0.51659 0.0
C564 C 0.10251 0.80308 0.70837 0.0
C565 C 0.14001 0.85435 0.69759 0.0
C566 C 0.10365 0.83345 0.64263 0.0
C567 C 0.06297 0.78415 0.65447 0.0
N568 N 1.01635 0.72901 0.70075 0.0
N569 N 0.17332 0.92121 0.65547 0.0
C570 C 0.06036 0.7709 0.68795 0.0
C571 C 0.1397 0.87046 0.66496 0.0
N572 N 0.10776 0.7844 0.73789 0.0
N573 N 0.10903 0.8441 0.61006 0.0
H574 H 0.2012 0.94852 0.67095 0.0
H575 H 0.17138 0.93706 0.63306 0.0
H576 H 0.08358 0.8179 0.59313 0.0
H577 H 0.14087 0.87697 0.59965 0.0
H578 H 0.08426 0.74552 0.74567 0.0
H579 H 0.1393 0.80605 0.75297 0.0
H580 H 1.01045 0.72091 0.72555 0.0
H581 H 0.98321 0.70597 0.6871 0.0
C582 C 0.27844 0.09464 0.86964 0.0
C583 C 0.32433 0.14229 0.86091 0.0
C584 C 0.32805 0.10446 0.8091 0.0
C585 C 0.28927 0.05451 0.82085 0.0
N586 N 0.22269 1.00137 0.85976 0.0
N587 N 0.39015 0.19524 0.82126 0.0
C588 C 0.26237 0.04969 0.85016 0.0
C589 C 0.34779 0.14817 0.83001 0.0
N590 N 0.25088 0.09217 0.89671 0.0
N591 N 0.3461 0.10972 0.77809 0.0
H592 H 0.4031 0.22878 0.83501 0.0
H593 H 0.41338 0.20099 0.80105 0.0
H594 H 0.33155 0.07827 0.76239 0.0
H595 H 0.37175 0.14551 0.76691 0.0
H596 H 0.21508 0.05999 0.90323 0.0
H597 H 0.26163 0.12403 0.9116 0.0
H598 H 0.20516 0.99272 0.88253 0.0
H599 H 0.20796 0.96904 0.8447 0.0
C600 C 0.79605 0.86474 0.87473 0.0
C601 C 0.76144 0.83982 0.8486 0.0
C602 C 0.74314 0.75363 0.87022 0.0
C603 C 0.77505 0.77819 0.89744 0.0
N604 N 0.82595 0.85599 0.9283 0.0
N605 N 0.69522 0.7597 0.82429 0.0
C606 C 0.79994 0.83352 0.90042 0.0
C607 C 0.73254 0.78404 0.84742 0.0
N608 N 0.82549 0.9183 0.87484 0.0
N609 N 0.7259 0.70175 0.86479 0.0
H610 H 0.68803 0.77952 0.80562 0.0
H611 H 0.66842 0.7196 0.82499 0.0
H612 H 0.7338 0.67809 0.8802 0.0
H613 H 0.70813 0.68323 0.84339 0.0
H614 H 0.85595 0.93884 0.89089 0.0
H615 H 0.82122 0.94244 0.85768 0.0
H616 H 0.84055 0.89533 0.9336 0.0
H617 H 0.8294 0.83423 0.94748 0.0
C618 C 0.94953 0.70565 0.03238 0.0
C619 C 0.93 0.74106 0.03009 0.0
C620 C 0.98862 0.79232 0.07411 0.0
C621 C 1.01201 0.76031 0.07359 0.0
N622 N 1.02207 0.69347 0.04703 0.0
N623 N 0.9366 0.82288 0.04548 0.0
C624 C 0.99445 0.71883 0.05133 0.0
C625 C 0.95088 0.78563 0.05019 0.0
N626 N 0.92405 0.65827 1.0175 0.0
N627 N 1.0015 0.8282 0.09795 0.0
H628 H 0.90992 0.81998 0.02789 0.0
H629 H 0.95459 0.85885 0.05698 0.0
H630 H 1.02891 0.83411 0.11579 0.0
H631 H 0.98185 0.84877 0.10173 0.0
H632 H 0.93349 0.62884 0.02123 0.0
H633 H 0.89 0.64594 1.00421 0.0
H634 H 1.01428 0.66704 0.02853 0.0
H635 H 0.05608 0.70263 0.05967 0.0
C636 C 0.18271 0.96037 0.1997 0.0
C637 C 0.21187 0.94747 0.17835 0.0
C638 C 0.29361 1.01616 0.20184 0.0
C639 C 0.26441 0.02881 0.22337 0.0
N640 N 0.1821 1.00583 0.24802 0.0
N641 N 0.29447 0.95492 0.16395 0.0
C642 C 0.20914 0.99858 0.22388 0.0
C643 C 0.26705 0.97236 0.18124 0.0
N644 N 0.12976 0.93658 0.19652 0.0
N645 N 0.34645 0.04829 0.19912 0.0
H646 H 0.27761 0.92517 0.14715 0.0
H647 H 0.33359 0.96712 0.16813 0.0
H648 H 0.36793 0.08074 0.21353 0.0
H649 H 0.36882 0.04537 0.1808 0.0
H650 H 0.1068 0.94867 0.20844 0.0
H651 H 0.10877 0.90594 0.18067 0.0
H652 H 0.14213 0.98208 0.25174 0.0
H653 H 0.20057 0.03289 0.26632 0.0
C654 C 0.324 0.26019 0.3459 0.0
C655 C 0.29603 0.20451 0.34457 0.0
C656 C 0.24237 0.20113 0.3907 0.0
C657 C 0.26413 0.25647 0.38816 0.0
N658 N 0.32005 0.33786 0.35893 0.0
N659 N 0.22696 0.12129 0.36486 0.0
C660 C 0.30398 0.28601 0.36489 0.0
C661 C 0.25475 0.17476 0.3668 0.0
N662 N 0.36944 0.28873 0.32885 0.0
N663 N 0.21113 0.17399 0.41654 0.0
H664 H 0.23695 0.1005 0.34904 0.0
H665 H 0.19247 0.09784 0.37768 0.0
H666 H 0.20278 0.19232 0.43504 0.0
H667 H 0.1979 0.13439 0.4214 0.0
H668 H 0.39394 0.32895 0.33163 0.0
H669 H 0.38561 0.27177 0.31451 0.0
H670 H 0.34448 0.35941 0.33965 0.0
H671 H 0.30503 0.35829 0.37089 0.0
C672 C 0.09071 0.32265 0.51168 0.0
C673 C 0.13659 0.32142 0.52051 0.0
C674 C 0.09224 0.26851 0.56926 0.0
C675 C 0.04569 0.26764 0.55955 0.0
N676 N 0.99728 0.28432 0.51836 0.0
N677 N 0.17976 0.28782 0.55484 0.0
C678 C 0.04405 0.29225 0.52993 0.0
C679 C 0.1369 0.29255 0.54844 0.0
N680 N 0.09174 0.35319 0.48587 0.0
N681 N 0.09422 0.248 0.59893 0.0
H682 H 0.21355 0.3063 0.54066 0.0
H683 H 0.18076 0.2629 0.57277 0.0
H684 H 0.06222 0.22995 0.61461 0.0
H685 H 0.12829 0.25208 0.60908 0.0
H686 H 0.06181 0.36106 0.4807 0.0
H687 H 0.12395 0.37362 0.47059 0.0
H688 H 0.99238 0.29593 0.49523 0.0
H689 H 0.96207 0.2618 0.5307 0.0
C690 C 0.78378 0.04333 0.70121 0.0
C691 C 0.80818 0.03694 0.7293 0.0
C692 C 0.88272 0.12617 0.72074 0.0
C693 C 0.85707 0.13327 0.69357 0.0
N694 N 0.77864 0.10319 0.66207 0.0
N695 N 0.87654 0.07409 0.76889 0.0
C696 C 0.80624 0.09315 0.68503 0.0
C697 C 0.85646 0.07899 0.73998 0.0
N698 N 0.74038 1.00112 0.68902 0.0
N699 N 0.93289 0.16365 0.72737 0.0
H700 H 0.85833 0.04003 0.78337 0.0
H701 H 0.90879 0.10487 0.7798 0.0
H702 H 0.9529 0.19878 0.71404 0.0
H703 H 0.95599 0.15862 0.74455 0.0
H704 H 0.72473 1.00166 0.66645 0.0
H705 H 0.72218 0.96403 0.70018 0.0
H706 H 0.73938 0.07766 0.65734 0.0
H707 H 0.79341 0.13918 0.64974 0.0
loop_
_geom_bond_atom_site_label_1
_geom_bond_atom_site_label_2
_geom_bond_distance
_geom_bond_site_symmetry_2
_ccdc_geom_bond_type
Cu0 N1 1.999 . S
Cu0 O6 1.974 . S
Cu0 N11 1.985 . S
Cu0 O20 1.959 . S
N1 Cu0 1.999 . S
N1 C3 1.263 . S
N1 C5 1.389 . S
N2 C3 1.358 . S
N2 C4 1.400 . S
C3 N1 1.263 . S
C3 N2 1.358 . S
C3 H9 0.930 . S
C4 N2 1.400 . S
C4 C5 1.351 . S
C4 H21 0.930 . S
C5 N1 1.389 . S
C5 C4 1.351 . S
C5 H10 0.930 . S
O6 Cu0 1.974 . S
O6 C16 1.282 . S
C7 O8 1.261 . S
C7 O20 1.251 . S
O8 C7 1.261 . S
H9 C3 0.930 . S
H10 C5 0.930 . S
N11 Cu0 1.985 . S
N11 C13 1.335 . S
N11 C14 1.390 . S
N12 C13 1.345 . S
N12 C15 1.336 . S
C13 N11 1.335 . S
C13 N12 1.345 . S
C13 H18 0.930 . S
C14 N11 1.390 . S
C14 C15 1.346 . S
C14 H19 0.930 . S
C15 N12 1.336 . S
C15 C14 1.346 . S
C15 H22 0.929 . S
C16 O6 1.282 . S
C16 O17 1.216 . S
O17 C16 1.216 . S
H18 C13 0.930 . S
H19 C14 0.930 . S
O20 Cu0 1.959 . S
O20 C7 1.251 . S
H21 C4 0.930 . S
H22 C15 0.929 . S
Cu23 N24 1.999 . S
Cu23 O29 1.974 . S
Cu23 N34 1.985 . S
Cu23 O43 1.959 . S
N24 Cu23 1.999 . S
N24 C26 1.263 . S
N24 C28 1.389 . S
N25 C26 1.358 . S
N25 C27 1.400 . S
C26 N24 1.263 . S
C26 N25 1.358 . S
C26 H32 0.930 . S
C27 N25 1.400 . S
C27 C28 1.351 . S
C27 H44 0.930 . S
C28 N24 1.389 . S
C28 C27 1.351 . S
C28 H33 0.930 . S
O29 Cu23 1.974 . S
O29 C39 1.282 . S
C30 O31 1.261 . S
C30 O43 1.251 . S
O31 C30 1.261 . S
H32 C26 0.930 . S
H33 C28 0.930 . S
N34 Cu23 1.985 . S
N34 C36 1.335 . S
N34 C37 1.390 . S
N35 C36 1.345 . S
N35 C38 1.336 . S
C36 N34 1.335 . S
C36 N35 1.345 . S
C36 H41 0.930 . S
C37 N34 1.390 . S
C37 C38 1.346 . S
C37 H42 0.930 . S
C38 N35 1.336 . S
C38 C37 1.346 . S
C38 H45 0.929 . S
C39 O29 1.282 . S
C39 O40 1.216 . S
O40 C39 1.216 . S
H41 C36 0.930 . S
H42 C37 0.930 . S
O43 Cu23 1.959 . S
O43 C30 1.251 . S
H44 C27 0.930 . S
H45 C38 0.929 . S
Cu46 N47 1.999 . S
Cu46 O52 1.974 . S
Cu46 N57 1.985 . S
Cu46 O66 1.959 . S
N47 Cu46 1.999 . S
N47 C49 1.263 . S
N47 C51 1.389 . S
N48 C49 1.358 . S
N48 C50 1.400 . S
C49 N47 1.263 . S
C49 N48 1.358 . S
C49 H55 0.930 . S
C50 N48 1.400 . S
C50 C51 1.351 . S
C50 H67 0.930 . S
C51 N47 1.389 . S
C51 C50 1.351 . S
C51 H56 0.930 . S
O52 Cu46 1.974 . S
O52 C62 1.282 . S
C53 O54 1.261 . S
C53 O66 1.251 . S
O54 C53 1.261 . S
H55 C49 0.930 . S
H56 C51 0.930 . S
N57 Cu46 1.985 . S
N57 C59 1.335 . S
N57 C60 1.390 . S
N58 C59 1.345 . S
N58 C61 1.336 . S
C59 N57 1.335 . S
C59 N58 1.345 . S
C59 H64 0.930 . S
C60 N57 1.390 . S
C60 C61 1.346 . S
C60 H65 0.930 . S
C61 N58 1.336 . S
C61 C60 1.346 . S
C61 H68 0.929 . S
C62 O52 1.282 . S
C62 O63 1.216 . S
O63 C62 1.216 . S
H64 C59 0.930 . S
H65 C60 0.930 . S
O66 Cu46 1.959 . S
O66 C53 1.251 . S
H67 C50 0.930 . S
H68 C61 0.929 . S
Cu69 N70 1.999 . S
Cu69 O75 1.974 . S
Cu69 N80 1.985 . S
Cu69 O89 1.959 . S
N70 Cu69 1.999 . S
N70 C72 1.263 . S
N70 C74 1.389 . S
N71 C72 1.358 . S
N71 C73 1.400 . S
C72 N70 1.263 . S
C72 N71 1.358 . S
C72 H78 0.930 . S
C73 N71 1.400 . S
C73 C74 1.351 . S
C73 H90 0.930 . S
C74 N70 1.389 . S
C74 C73 1.351 . S
C74 H79 0.930 . S
O75 Cu69 1.974 . S
O75 C85 1.282 . S
C76 O77 1.261 . S
C76 O89 1.251 . S
O77 C76 1.261 . S
H78 C72 0.930 . S
H79 C74 0.930 . S
N80 Cu69 1.985 . S
N80 C82 1.335 . S
N80 C83 1.390 . S
N81 C82 1.345 . S
N81 C84 1.336 . S
C82 N80 1.335 . S
C82 N81 1.345 . S
C82 H87 0.930 . S
C83 N80 1.390 . S
C83 C84 1.346 . S
C83 H88 0.930 . S
C84 N81 1.336 . S
C84 C83 1.346 . S
C84 H91 0.929 . S
C85 O75 1.282 . S
C85 O86 1.216 . S
O86 C85 1.216 . S
H87 C82 0.930 . S
H88 C83 0.930 . S
O89 Cu69 1.959 . S
O89 C76 1.251 . S
H90 C73 0.930 . S
H91 C84 0.929 . S
Cu92 N93 1.999 . S
Cu92 O98 1.974 . S
Cu92 N103 1.985 . S
Cu92 O112 1.959 . S
N93 Cu92 1.999 . S
N93 C95 1.263 . S
N93 C97 1.389 . S
N94 C95 1.358 . S
N94 C96 1.400 . S
C95 N93 1.263 . S
C95 N94 1.358 . S
C95 H101 0.930 . S
C96 N94 1.400 . S
C96 C97 1.351 . S
C96 H113 0.930 . S
C97 N93 1.389 . S
C97 C96 1.351 . S
C97 H102 0.930 . S
O98 Cu92 1.974 . S
O98 C108 1.282 . S
C99 O100 1.261 . S
C99 O112 1.251 . S
O100 C99 1.261 . S
H101 C95 0.930 . S
H102 C97 0.930 . S
N103 Cu92 1.985 . S
N103 C105 1.335 . S
N103 C106 1.390 . S
N104 C105 1.345 . S
N104 C107 1.336 . S
C105 N103 1.335 . S
C105 N104 1.345 . S
C105 H110 0.930 . S
C106 N103 1.390 . S
C106 C107 1.346 . S
C106 H111 0.930 . S
C107 N104 1.336 . S
C107 C106 1.346 . S
C107 H114 0.929 . S
C108 O98 1.282 . S
C108 O109 1.216 . S
O109 C108 1.216 . S
H110 C105 0.930 . S
H111 C106 0.930 . S
O112 Cu92 1.959 . S
O112 C99 1.251 . S
H113 C96 0.930 . S
H114 C107 0.929 . S
Cu115 N116 1.999 . S
Cu115 O121 1.974 . S
Cu115 N126 1.985 . S
Cu115 O135 1.959 . S
N116 Cu115 1.999 . S
N116 C118 1.263 . S
N116 C120 1.389 . S
N117 C118 1.358 . S
N117 C119 1.400 . S
C118 N116 1.263 . S
C118 N117 1.358 . S
C118 H124 0.930 . S
C119 N117 1.400 . S
C119 C120 1.351 . S
C119 H136 0.930 1_556 S
C120 N116 1.389 . S
C120 C119 1.351 . S
C120 H125 0.930 1_556 S
O121 Cu115 1.974 . S
O121 C131 1.282 . S
C122 O123 1.261 . S
C122 O135 1.251 . S
O123 C122 1.261 . S
H124 C118 0.930 . S
H125 C120 0.930 1_554 S
N126 Cu115 1.985 . S
N126 C128 1.335 . S
N126 C129 1.390 . S
N127 C128 1.345 . S
N127 C130 1.336 . S
C128 N126 1.335 . S
C128 N127 1.345 . S
C128 H133 0.930 . S
C129 N126 1.390 . S
C129 C130 1.346 . S
C129 H134 0.930 . S
C130 N127 1.336 . S
C130 C129 1.346 . S
C130 H137 0.929 . S
C131 O121 1.282 . S
C131 O132 1.216 . S
O132 C131 1.216 . S
H133 C128 0.930 . S
H134 C129 0.930 . S
O135 Cu115 1.959 . S
O135 C122 1.251 . S
H136 C119 0.930 1_554 S
H137 C130 0.929 . S
Cu138 N139 1.999 . S
Cu138 O144 1.974 . S
Cu138 N149 1.985 . S
Cu138 O158 1.959 . S
N139 Cu138 1.999 . S
N139 C141 1.263 . S
N139 C143 1.389 . S
N140 C141 1.358 . S
N140 C142 1.400 . S
C141 N139 1.263 . S
C141 N140 1.358 . S
C141 H147 0.930 . S
C142 N140 1.400 . S
C142 C143 1.351 . S
C142 H159 0.930 . S
C143 N139 1.389 . S
C143 C142 1.351 . S
C143 H148 0.930 . S
O144 Cu138 1.974 . S
O144 C154 1.282 . S
C145 O146 1.261 . S
C145 O158 1.251 . S
O146 C145 1.261 . S
H147 C141 0.930 . S
H148 C143 0.930 . S
N149 Cu138 1.985 . S
N149 C151 1.335 . S
N149 C152 1.390 . S
N150 C151 1.345 . S
N150 C153 1.336 . S
C151 N149 1.335 . S
C151 N150 1.345 . S
C151 H156 0.930 . S
C152 N149 1.390 . S
C152 C153 1.346 . S
C152 H157 0.930 . S
C153 N150 1.336 . S
C153 C152 1.346 . S
C153 H160 0.929 . S
C154 O144 1.282 . S
C154 O155 1.216 . S
O155 C154 1.216 . S
H156 C151 0.930 . S
H157 C152 0.930 . S
O158 Cu138 1.959 . S
O158 C145 1.251 . S
H159 C142 0.930 . S
H160 C153 0.929 . S
Cu161 N162 1.999 . S
Cu161 O167 1.974 . S
Cu161 N172 1.985 . S
Cu161 O181 1.959 . S
N162 Cu161 1.999 . S
N162 C164 1.263 . S
N162 C166 1.389 . S
N163 C164 1.358 . S
N163 C165 1.400 . S
C164 N162 1.263 . S
C164 N163 1.358 . S
C164 H170 0.930 . S
C165 N163 1.400 . S
C165 C166 1.351 . S
C165 H182 0.930 . S
C166 N162 1.389 . S
C166 C165 1.351 . S
C166 H171 0.930 . S
O167 Cu161 1.974 . S
O167 C177 1.282 . S
C168 O169 1.261 . S
C168 O181 1.251 . S
O169 C168 1.261 . S
H170 C164 0.930 . S
H171 C166 0.930 . S
N172 Cu161 1.985 . S
N172 C174 1.335 . S
N172 C175 1.390 . S
N173 C174 1.345 . S
N173 C176 1.336 . S
C174 N172 1.335 . S
C174 N173 1.345 . S
C174 H179 0.930 . S
C175 N172 1.390 . S
C175 C176 1.346 . S
C175 H180 0.930 . S
C176 N173 1.336 . S
C176 C175 1.346 . S
C176 H183 0.929 . S
C177 O167 1.282 . S
C177 O178 1.216 . S
O178 C177 1.216 . S
H179 C174 0.930 . S
H180 C175 0.930 . S
O181 Cu161 1.959 . S
O181 C168 1.251 . S
H182 C165 0.930 . S
H183 C176 0.929 . S
Cu184 N185 1.999 . S
Cu184 O190 1.974 . S
Cu184 N195 1.985 . S
Cu184 O204 1.959 . S
N185 Cu184 1.999 . S
N185 C187 1.263 . S
N185 C189 1.389 . S
N186 C187 1.358 . S
N186 C188 1.400 . S
C187 N185 1.263 . S
C187 N186 1.358 . S
C187 H193 0.930 . S
C188 N186 1.400 . S
C188 C189 1.351 . S
C188 H205 0.930 1_554 S
C189 N185 1.389 . S
C189 C188 1.351 . S
C189 H194 0.930 1_554 S
O190 Cu184 1.974 . S
O190 C200 1.282 . S
C191 O192 1.261 . S
C191 O204 1.251 . S
O192 C191 1.261 . S
H193 C187 0.930 . S
H194 C189 0.930 1_556 S
N195 Cu184 1.985 . S
N195 C197 1.335 . S
N195 C198 1.390 . S
N196 C197 1.345 . S
N196 C199 1.336 . S
C197 N195 1.335 . S
C197 N196 1.345 . S
C197 H202 0.930 . S
C198 N195 1.390 . S
C198 C199 1.346 . S
C198 H203 0.930 . S
C199 N196 1.336 . S
C199 C198 1.346 . S
C199 H206 0.929 . S
C200 O190 1.282 . S
C200 O201 1.216 . S
O201 C200 1.216 . S
H202 C197 0.930 . S
H203 C198 0.930 . S
O204 Cu184 1.959 . S
O204 C191 1.251 . S
H205 C188 0.930 1_556 S
H206 C199 0.929 . S
Cu207 N208 1.999 . S
Cu207 O213 1.974 . S
Cu207 N218 1.985 . S
Cu207 O227 1.959 . S
N208 Cu207 1.999 . S
N208 C210 1.263 . S
N208 C212 1.389 . S
N209 C210 1.358 . S
N209 C211 1.400 . S
C210 N208 1.263 . S
C210 N209 1.358 . S
C210 H216 0.930 . S
C211 N209 1.400 . S
C211 C212 1.351 . S
C211 H228 0.930 . S
C212 N208 1.389 . S
C212 C211 1.351 . S
C212 H217 0.930 . S
O213 Cu207 1.974 . S
O213 C223 1.282 . S
C214 O215 1.261 . S
C214 O227 1.251 . S
O215 C214 1.261 . S
H216 C210 0.930 . S
H217 C212 0.930 . S
N218 Cu207 1.985 . S
N218 C220 1.335 . S
N218 C221 1.390 . S
N219 C220 1.345 . S
N219 C222 1.336 . S
C220 N218 1.335 . S
C220 N219 1.345 . S
C220 H225 0.930 . S
C221 N218 1.390 . S
C221 C222 1.346 . S
C221 H226 0.930 . S
C222 N219 1.336 . S
C222 C221 1.346 . S
C222 H229 0.929 . S
C223 O213 1.282 . S
C223 O224 1.216 . S
O224 C223 1.216 . S
H225 C220 0.930 . S
H226 C221 0.930 . S
O227 Cu207 1.959 . S
O227 C214 1.251 . S
H228 C211 0.930 . S
H229 C222 0.929 . S
Cu230 N231 1.999 . S
Cu230 O236 1.974 . S
Cu230 N241 1.985 . S
Cu230 O250 1.959 . S
N231 Cu230 1.999 . S
N231 C233 1.263 . S
N231 C235 1.389 . S
N232 C233 1.358 . S
N232 C234 1.400 . S
C233 N231 1.263 . S
C233 N232 1.358 . S
C233 H239 0.930 . S
C234 N232 1.400 . S
C234 C235 1.351 . S
C234 H251 0.930 . S
C235 N231 1.389 . S
C235 C234 1.351 . S
C235 H240 0.930 . S
O236 Cu230 1.974 . S
O236 C246 1.282 . S
C237 O238 1.261 . S
C237 O250 1.251 . S
O238 C237 1.261 . S
H239 C233 0.930 . S
H240 C235 0.930 . S
N241 Cu230 1.985 . S
N241 C243 1.335 . S
N241 C244 1.390 . S
N242 C243 1.345 . S
N242 C245 1.336 . S
C243 N241 1.335 . S
C243 N242 1.345 . S
C243 H248 0.930 . S
C244 N241 1.390 . S
C244 C245 1.346 . S
C244 H249 0.930 . S
C245 N242 1.336 . S
C245 C244 1.346 . S
C245 H252 0.929 . S
C246 O236 1.282 . S
C246 O247 1.216 . S
O247 C246 1.216 . S
H248 C243 0.930 . S
H249 C244 0.930 . S
O250 Cu230 1.959 . S
O250 C237 1.251 . S
H251 C234 0.930 . S
H252 C245 0.929 . S
Cu253 N254 1.999 . S
Cu253 O259 1.974 . S
Cu253 N264 1.985 . S
Cu253 O273 1.959 . S
N254 Cu253 1.999 . S
N254 C256 1.263 . S
N254 C258 1.389 . S
N255 C256 1.358 . S
N255 C257 1.400 . S
C256 N254 1.263 . S
C256 N255 1.358 . S
C256 H262 0.930 . S
C257 N255 1.400 . S
C257 C258 1.351 . S
C257 H274 0.930 . S
C258 N254 1.389 . S
C258 C257 1.351 . S
C258 H263 0.930 . S
O259 Cu253 1.974 . S
O259 C269 1.282 . S
C260 O261 1.261 . S
C260 O273 1.251 . S
O261 C260 1.261 . S
H262 C256 0.930 . S
H263 C258 0.930 . S
N264 Cu253 1.985 . S
N264 C266 1.335 . S
N264 C267 1.390 . S
N265 C266 1.345 . S
N265 C268 1.336 . S
C266 N264 1.335 . S
C266 N265 1.345 . S
C266 H271 0.930 . S
C267 N264 1.390 . S
C267 C268 1.346 . S
C267 H272 0.930 . S
C268 N265 1.336 . S
C268 C267 1.346 . S
C268 H275 0.929 . S
C269 O259 1.282 . S
C269 O270 1.216 . S
O270 C269 1.216 . S
H271 C266 0.930 . S
H272 C267 0.930 . S
O273 Cu253 1.959 . S
O273 C260 1.251 . S
H274 C257 0.930 . S
H275 C268 0.929 . S
C276 C277 1.363 . S
C276 C282 1.379 . S
C276 N284 1.356 . S
C277 C276 1.363 . S
C277 C283 1.363 . S
C278 C279 1.363 . S
C278 C283 1.379 . S
C278 N285 1.356 . S
C279 C278 1.363 . S
C279 C282 1.363 . S
N280 C282 1.356 . S
N280 H292 0.984 . S
N280 H293 0.985 . S
N281 C283 1.356 . S
N281 H286 0.984 . S
N281 H287 0.985 . S
C282 C276 1.379 . S
C282 C279 1.363 . S
C282 N280 1.356 . S
C283 C277 1.363 . S
C283 C278 1.379 . S
C283 N281 1.356 . S
N284 C276 1.356 . S
N284 H290 0.984 . S
N284 H291 0.984 . S
N285 C278 1.356 . S
N285 H288 0.984 . S
N285 H289 0.985 . S
H286 N281 0.984 . S
H287 N281 0.985 . S
H288 N285 0.984 . S
H289 N285 0.985 . S
H290 N284 0.984 . S
H291 N284 0.984 . S
H292 N280 0.984 . S
H293 N280 0.985 . S
C294 C295 1.363 . S
C294 C300 1.379 . S
C294 N302 1.356 . S
C295 C294 1.363 . S
C295 C301 1.363 . S
C296 C297 1.363 . S
C296 C301 1.379 . S
C296 N303 1.356 . S
C297 C296 1.363 . S
C297 C300 1.363 . S
N298 C300 1.356 . S
N298 H310 0.984 . S
N298 H311 0.985 . S
N299 C301 1.356 . S
N299 H304 0.984 . S
N299 H305 0.985 1_545 S
C300 C294 1.379 . S
C300 C297 1.363 . S
C300 N298 1.356 . S
C301 C295 1.363 . S
C301 C296 1.379 . S
C301 N299 1.356 . S
N302 C294 1.356 . S
N302 H308 0.984 . S
N302 H309 0.984 . S
N303 C296 1.356 . S
N303 H306 0.984 . S
N303 H307 0.985 1_545 S
H304 N299 0.984 . S
H305 N299 0.985 1_565 S
H306 N303 0.984 . S
H307 N303 0.985 1_565 S
H308 N302 0.984 . S
H309 N302 0.984 . S
H310 N298 0.984 . S
H311 N298 0.985 . S
C312 C313 1.363 . S
C312 C318 1.379 . S
C312 N320 1.356 . S
C313 C312 1.363 . S
C313 C319 1.363 . S
C314 C315 1.363 . S
C314 C319 1.379 . S
C314 N321 1.356 . S
C315 C314 1.363 . S
C315 C318 1.363 . S
N316 C318 1.356 . S
N316 H328 0.984 . S
N316 H329 0.985 . S
N317 C319 1.356 . S
N317 H322 0.984 . S
N317 H323 0.985 . S
C318 C312 1.379 . S
C318 C315 1.363 . S
C318 N316 1.356 . S
C319 C313 1.363 . S
C319 C314 1.379 . S
C319 N317 1.356 . S
N320 C312 1.356 . S
N320 H326 0.984 . S
N320 H327 0.984 . S
N321 C314 1.356 . S
N321 H324 0.984 . S
N321 H325 0.985 . S
H322 N317 0.984 . S
H323 N317 0.985 . S
H324 N321 0.984 . S
H325 N321 0.985 . S
H326 N320 0.984 . S
H327 N320 0.984 . S
H328 N316 0.984 . S
H329 N316 0.985 . S
C330 C331 1.363 . S
C330 C336 1.379 . S
C330 N338 1.356 . S
C331 C330 1.363 . S
C331 C337 1.363 . S
C332 C333 1.363 . S
C332 C337 1.379 . S
C332 N339 1.356 . S
C333 C332 1.363 . S
C333 C336 1.363 . S
N334 C336 1.356 . S
N334 H346 0.985 1_655 S
N334 H347 0.985 . S
N335 C337 1.356 . S
N335 H340 0.984 . S
N335 H341 0.985 . S
C336 C330 1.379 . S
C336 C333 1.363 . S
C336 N334 1.356 . S
C337 C331 1.363 . S
C337 C332 1.379 . S
C337 N335 1.356 . S
N338 C330 1.356 . S
N338 H344 0.985 1_655 S
N338 H345 0.984 . S
N339 C332 1.356 . S
N339 H342 0.984 . S
N339 H343 0.985 . S
H340 N335 0.984 . S
H341 N335 0.985 . S
H342 N339 0.984 . S
H343 N339 0.985 . S
H344 N338 0.985 1_455 S
H345 N338 0.984 . S
H346 N334 0.985 1_455 S
H347 N334 0.985 . S
C348 C349 1.363 . S
C348 C354 1.379 . S
C348 N356 1.356 . S
C349 C348 1.363 . S
C349 C355 1.363 . S
C350 C351 1.363 . S
C350 C355 1.379 . S
C350 N357 1.356 . S
C351 C350 1.363 . S
C351 C354 1.363 . S
N352 C354 1.356 . S
N352 H364 0.984 . S
N352 H365 0.985 . S
N353 C355 1.356 . S
N353 H358 0.984 . S
N353 H359 0.985 1_565 S
C354 C348 1.379 . S
C354 C351 1.363 . S
C354 N352 1.356 . S
C355 C349 1.363 . S
C355 C350 1.379 . S
C355 N353 1.356 . S
N356 C348 1.356 . S
N356 H362 0.984 . S
N356 H363 0.984 . S
N357 C350 1.356 . S
N357 H360 0.984 . S
N357 H361 0.985 1_565 S
H358 N353 0.984 . S
H359 N353 0.985 1_545 S
H360 N357 0.984 . S
H361 N357 0.985 1_545 S
H362 N356 0.984 . S
H363 N356 0.984 . S
H364 N352 0.984 . S
H365 N352 0.985 . S
C366 C367 1.363 . S
C366 C372 1.379 . S
C366 N374 1.356 . S
C367 C366 1.363 . S
C367 C373 1.363 . S
C368 C369 1.363 . S
C368 C373 1.379 . S
C368 N375 1.356 . S
C369 C368 1.363 . S
C369 C372 1.363 . S
N370 C372 1.356 . S
N370 H382 0.984 . S
N370 H383 0.985 . S
N371 C373 1.356 . S
N371 H376 0.984 . S
N371 H377 0.985 . S
C372 C366 1.379 . S
C372 C369 1.363 . S
C372 N370 1.356 . S
C373 C367 1.363 . S
C373 C368 1.379 . S
C373 N371 1.356 . S
N374 C366 1.356 . S
N374 H380 0.984 . S
N374 H381 0.984 . S
N375 C368 1.356 . S
N375 H378 0.984 . S
N375 H379 0.985 . S
H376 N371 0.984 . S
H377 N371 0.985 . S
H378 N375 0.984 . S
H379 N375 0.985 . S
H380 N374 0.984 . S
H381 N374 0.984 . S
H382 N370 0.984 . S
H383 N370 0.985 . S
C384 C385 1.363 . S
C384 C390 1.379 . S
C384 N392 1.356 . S
C385 C384 1.363 . S
C385 C391 1.363 . S
C386 C387 1.363 . S
C386 C391 1.379 . S
C386 N393 1.356 . S
C387 C386 1.363 . S
C387 C390 1.363 . S
N388 C390 1.356 . S
N388 H400 0.984 . S
N388 H401 0.985 . S
N389 C391 1.356 . S
N389 H394 0.984 . S
N389 H395 0.985 . S
C390 C384 1.379 . S
C390 C387 1.363 . S
C390 N388 1.356 . S
C391 C385 1.363 . S
C391 C386 1.379 . S
C391 N389 1.356 . S
N392 C384 1.356 . S
N392 H398 0.984 . S
N392 H399 0.984 . S
N393 C386 1.356 . S
N393 H396 0.984 . S
N393 H397 0.985 . S
H394 N389 0.984 . S
H395 N389 0.985 . S
H396 N393 0.984 . S
H397 N393 0.985 . S
H398 N392 0.984 . S
H399 N392 0.984 . S
H400 N388 0.984 . S
H401 N388 0.985 . S
C402 C403 1.363 1_455 S
C402 C408 1.379 . S
C402 N410 1.356 . S
C403 C402 1.363 1_655 S
C403 C409 1.363 . S
C404 C405 1.363 1_655 S
C404 C409 1.379 . S
C404 N411 1.356 . S
C405 C404 1.363 1_455 S
C405 C408 1.363 . S
N406 C408 1.356 . S
N406 H418 0.984 . S
N406 H419 0.985 . S
N407 C409 1.356 . S
N407 H412 0.984 . S
N407 H413 0.985 . S
C408 C402 1.379 . S
C408 C405 1.363 . S
C408 N406 1.356 . S
C409 C403 1.363 . S
C409 C404 1.379 . S
C409 N407 1.356 . S
N410 C402 1.356 . S
N410 H416 0.984 . S
N410 H417 0.984 1_455 S
N411 C404 1.356 . S
N411 H414 0.984 1_655 S
N411 H415 0.985 . S
H412 N407 0.984 . S
H413 N407 0.985 . S
H414 N411 0.984 1_455 S
H415 N411 0.985 . S
H416 N410 0.984 . S
H417 N410 0.984 1_655 S
H418 N406 0.984 . S
H419 N406 0.985 . S
C420 C421 1.363 1_565 S
C420 C426 1.379 . S
C420 N428 1.356 . S
C421 C420 1.363 1_545 S
C421 C427 1.363 . S
C422 C423 1.363 1_545 S
C422 C427 1.379 . S
C422 N429 1.356 . S
C423 C422 1.363 1_565 S
C423 C426 1.363 . S
N424 C426 1.356 . S
N424 H436 0.984 . S
N424 H437 0.985 . S
N425 C427 1.356 . S
N425 H430 0.984 . S
N425 H431 0.985 . S
C426 C420 1.379 . S
C426 C423 1.363 . S
C426 N424 1.356 . S
C427 C421 1.363 . S
C427 C422 1.379 . S
C427 N425 1.356 . S
N428 C420 1.356 . S
N428 H434 0.984 . S
N428 H435 0.984 1_565 S
N429 C422 1.356 . S
N429 H432 0.984 1_545 S
N429 H433 0.985 . S
H430 N425 0.984 . S
H431 N425 0.985 . S
H432 N429 0.984 1_565 S
H433 N429 0.985 . S
H434 N428 0.984 . S
H435 N428 0.984 1_545 S
H436 N424 0.984 . S
H437 N424 0.985 . S
C438 C439 1.363 . S
C438 C444 1.379 . S
C438 N446 1.356 . S
C439 C438 1.363 . S
C439 C445 1.363 . S
C440 C441 1.363 . S
C440 C445 1.379 . S
C440 N447 1.356 . S
C441 C440 1.363 . S
C441 C444 1.363 . S
N442 C444 1.356 . S
N442 H454 0.984 . S
N442 H455 0.985 . S
N443 C445 1.356 . S
N443 H448 0.984 . S
N443 H449 0.985 . S
C444 C438 1.379 . S
C444 C441 1.363 . S
C444 N442 1.356 . S
C445 C439 1.363 . S
C445 C440 1.379 . S
C445 N443 1.356 . S
N446 C438 1.356 . S
N446 H452 0.984 . S
N446 H453 0.984 . S
N447 C440 1.356 . S
N447 H450 0.984 . S
N447 H451 0.985 . S
H448 N443 0.984 . S
H449 N443 0.985 . S
H450 N447 0.984 . S
H451 N447 0.985 . S
H452 N446 0.984 . S
H453 N446 0.984 . S
H454 N442 0.984 . S
H455 N442 0.985 . S
C456 C457 1.363 . S
C456 C462 1.379 1_655 S
C456 N464 1.356 . S
C457 C456 1.363 . S
C457 C463 1.363 . S
C458 C459 1.363 . S
C458 C463 1.379 1_455 S
C458 N465 1.356 . S
C459 C458 1.363 . S
C459 C462 1.363 . S
N460 C462 1.356 . S
N460 H472 0.984 1_455 S
N460 H473 0.985 . S
N461 C463 1.356 . S
N461 H466 0.984 . S
N461 H467 0.985 1_655 S
C462 C456 1.379 1_455 S
C462 C459 1.363 . S
C462 N460 1.356 . S
C463 C457 1.363 . S
C463 C458 1.379 1_655 S
C463 N461 1.356 . S
N464 C456 1.356 . S
N464 H470 0.984 . S
N464 H471 0.984 . S
N465 C458 1.356 . S
N465 H468 0.984 . S
N465 H469 0.985 . S
H466 N461 0.984 . S
H467 N461 0.985 1_455 S
H468 N465 0.984 . S
H469 N465 0.985 . S
H470 N464 0.984 . S
H471 N464 0.984 . S
H472 N460 0.984 1_655 S
H473 N460 0.985 . S
C474 C475 1.363 1_545 S
C474 C480 1.379 . S
C474 N482 1.356 1_545 S
C475 C474 1.363 1_565 S
C475 C481 1.363 1_554 S
C476 C477 1.363 1_565 S
C476 C481 1.379 . S
C476 N483 1.356 1_565 S
C477 C476 1.363 1_545 S
C477 C480 1.363 1_556 S
N478 C480 1.356 . S
N478 H490 0.984 . S
N478 H491 0.985 1_554 S
N479 C481 1.356 . S
N479 H484 0.984 1_556 S
N479 H485 0.985 . S
C480 C474 1.379 . S
C480 C477 1.363 1_554 S
C480 N478 1.356 . S
C481 C475 1.363 1_556 S
C481 C476 1.379 . S
C481 N479 1.356 . S
N482 C474 1.356 1_565 S
N482 H488 0.984 1_565 S
N482 H489 0.984 . S
N483 C476 1.356 1_545 S
N483 H486 0.984 . S
N483 H487 0.985 1_545 S
H484 N479 0.984 1_554 S
H485 N479 0.985 . S
H486 N483 0.984 . S
H487 N483 0.985 1_565 S
H488 N482 0.984 1_545 S
H489 N482 0.984 . S
H490 N478 0.984 . S
H491 N478 0.985 1_556 S
C492 C493 1.363 . S
C492 C498 1.379 . S
C492 N500 1.356 . S
C493 C492 1.363 . S
C493 C499 1.363 1_554 S
C494 C495 1.363 . S
C494 C499 1.379 . S
C494 N501 1.356 . S
C495 C494 1.363 . S
C495 C498 1.363 1_556 S
N496 C498 1.356 . S
N496 H508 0.984 . S
N496 H509 0.985 . S
N497 C499 1.356 . S
N497 H502 0.984 1_556 S
N497 H503 0.985 . S
C498 C492 1.379 . S
C498 C495 1.363 1_554 S
C498 N496 1.356 . S
C499 C493 1.363 1_556 S
C499 C494 1.379 . S
C499 N497 1.356 . S
N500 C492 1.356 . S
N500 H506 0.984 . S
N500 H507 0.984 . S
N501 C494 1.356 . S
N501 H504 0.984 . S
N501 H505 0.985 . S
H502 N497 0.984 1_554 S
H503 N497 0.985 . S
H504 N501 0.984 . S
H505 N501 0.985 . S
H506 N500 0.984 . S
H507 N500 0.984 . S
H508 N496 0.984 . S
H509 N496 0.985 . S
C510 C511 1.363 . S
C510 C516 1.379 . S
C510 N518 1.356 . S
C511 C510 1.363 . S
C511 C517 1.363 . S
C512 C513 1.363 . S
C512 C517 1.379 . S
C512 N519 1.356 1_655 S
C513 C512 1.363 . S
C513 C516 1.363 . S
N514 C516 1.356 . S
N514 H526 0.984 . S
N514 H527 0.985 . S
N515 C517 1.356 . S
N515 H520 0.984 . S
N515 H521 0.985 . S
C516 C510 1.379 . S
C516 C513 1.363 . S
C516 N514 1.356 . S
C517 C511 1.363 . S
C517 C512 1.379 . S
C517 N515 1.356 . S
N518 C510 1.356 . S
N518 H524 0.984 . S
N518 H525 0.984 . S
N519 C512 1.356 1_455 S
N519 H522 0.984 . S
N519 H523 0.985 . S
H520 N515 0.984 . S
H521 N515 0.985 . S
H522 N519 0.984 . S
H523 N519 0.985 . S
H524 N518 0.984 . S
H525 N518 0.984 . S
H526 N514 0.984 . S
H527 N514 0.985 . S
C528 C529 1.363 . S
C528 C534 1.379 . S
C528 N536 1.356 1_565 S
C529 C528 1.363 . S
C529 C535 1.363 . S
C530 C531 1.363 . S
C530 C535 1.379 . S
C530 N537 1.356 . S
C531 C530 1.363 . S
C531 C534 1.363 . S
N532 C534 1.356 . S
N532 H544 0.984 . S
N532 H545 0.985 . S
N533 C535 1.356 . S
N533 H538 0.984 . S
N533 H539 0.985 . S
C534 C528 1.379 . S
C534 C531 1.363 . S
C534 N532 1.356 . S
C535 C529 1.363 . S
C535 C530 1.379 . S
C535 N533 1.356 . S
N536 C528 1.356 1_545 S
N536 H542 0.984 . S
N536 H543 0.984 . S
N537 C530 1.356 . S
N537 H540 0.984 . S
N537 H541 0.985 . S
H538 N533 0.984 . S
H539 N533 0.985 . S
H540 N537 0.984 . S
H541 N537 0.985 . S
H542 N536 0.984 . S
H543 N536 0.984 . S
H544 N532 0.984 . S
H545 N532 0.985 . S
C546 C547 1.363 . S
C546 C552 1.379 . S
C546 N554 1.356 . S
C547 C546 1.363 . S
C547 C553 1.363 . S
C548 C549 1.363 . S
C548 C553 1.379 . S
C548 N555 1.356 . S
C549 C548 1.363 . S
C549 C552 1.363 . S
N550 C552 1.356 . S
N550 H562 0.984 . S
N550 H563 0.985 . S
N551 C553 1.356 . S
N551 H556 0.984 . S
N551 H557 0.985 . S
C552 C546 1.379 . S
C552 C549 1.363 . S
C552 N550 1.356 . S
C553 C547 1.363 . S
C553 C548 1.379 . S
C553 N551 1.356 . S
N554 C546 1.356 . S
N554 H560 0.984 . S
N554 H561 0.984 . S
N555 C548 1.356 . S
N555 H558 0.984 . S
N555 H559 0.985 . S
H556 N551 0.984 . S
H557 N551 0.985 . S
H558 N555 0.984 . S
H559 N555 0.985 . S
H560 N554 0.984 . S
H561 N554 0.984 . S
H562 N550 0.984 . S
H563 N550 0.985 . S
C564 C565 1.363 . S
C564 C570 1.379 . S
C564 N572 1.356 . S
C565 C564 1.363 . S
C565 C571 1.363 . S
C566 C567 1.363 . S
C566 C571 1.379 . S
C566 N573 1.356 . S
C567 C566 1.363 . S
C567 C570 1.363 . S
N568 C570 1.356 1_655 S
N568 H580 0.984 . S
N568 H581 0.985 . S
N569 C571 1.356 . S
N569 H574 0.984 . S
N569 H575 0.985 . S
C570 C564 1.379 . S
C570 C567 1.363 . S
C570 N568 1.356 1_455 S
C571 C565 1.363 . S
C571 C566 1.379 . S
C571 N569 1.356 . S
N572 C564 1.356 . S
N572 H578 0.984 . S
N572 H579 0.984 . S
N573 C566 1.356 . S
N573 H576 0.984 . S
N573 H577 0.985 . S
H574 N569 0.984 . S
H575 N569 0.985 . S
H576 N573 0.984 . S
H577 N573 0.985 . S
H578 N572 0.984 . S
H579 N572 0.984 . S
H580 N568 0.984 . S
H581 N568 0.985 . S
C582 C583 1.363 . S
C582 C588 1.379 . S
C582 N590 1.356 . S
C583 C582 1.363 . S
C583 C589 1.363 . S
C584 C585 1.363 . S
C584 C589 1.379 . S
C584 N591 1.356 1_545 S
C585 C584 1.363 . S
C585 C588 1.363 . S
N586 C588 1.356 . S
N586 H598 0.984 . S
N586 H599 0.985 . S
N587 C589 1.356 . S
N587 H592 0.984 . S
N587 H593 0.985 . S
C588 C582 1.379 . S
C588 C585 1.363 . S
C588 N586 1.356 . S
C589 C583 1.363 . S
C589 C584 1.379 . S
C589 N587 1.356 . S
N590 C582 1.356 . S
N590 H596 0.984 . S
N590 H597 0.984 . S
N591 C584 1.356 1_565 S
N591 H594 0.984 . S
N591 H595 0.985 . S
H592 N587 0.984 . S
H593 N587 0.985 . S
H594 N591 0.984 . S
H595 N591 0.985 . S
H596 N590 0.984 . S
H597 N590 0.984 . S
H598 N586 0.984 . S
H599 N586 0.985 . S
C600 C601 1.363 . S
C600 C606 1.379 . S
C600 N608 1.356 . S
C601 C600 1.363 . S
C601 C607 1.363 . S
C602 C603 1.363 . S
C602 C607 1.379 . S
C602 N609 1.356 . S
C603 C602 1.363 . S
C603 C606 1.363 . S
N604 C606 1.356 . S
N604 H616 0.984 . S
N604 H617 0.985 . S
N605 C607 1.356 . S
N605 H610 0.984 . S
N605 H611 0.985 . S
C606 C600 1.379 . S
C606 C603 1.363 . S
C606 N604 1.356 . S
C607 C601 1.363 . S
C607 C602 1.379 . S
C607 N605 1.356 . S
N608 C600 1.356 . S
N608 H614 0.984 . S
N608 H615 0.984 . S
N609 C602 1.356 . S
N609 H612 0.984 . S
N609 H613 0.985 . S
H610 N605 0.984 . S
H611 N605 0.985 . S
H612 N609 0.984 . S
H613 N609 0.985 . S
H614 N608 0.984 . S
H615 N608 0.984 . S
H616 N604 0.984 . S
H617 N604 0.985 . S
C618 C619 1.363 . S
C618 C624 1.379 1_556 S
C618 N626 1.356 . S
C619 C618 1.363 . S
C619 C625 1.363 . S
C620 C621 1.353 1_556 S
C620 C625 1.396 . S
C620 N627 1.345 1_656 S
C621 C620 1.353 1_554 S
C621 C624 1.363 . S
N622 C624 1.356 . S
N622 H634 0.984 . S
N622 H635 0.985 . S
N623 C625 1.356 . S
N623 H628 0.984 . S
N623 H629 0.985 . S
C624 C618 1.379 1_554 S
C624 C621 1.363 . S
C624 N622 1.356 . S
C625 C619 1.363 . S
C625 C620 1.396 . S
C625 N623 1.356 . S
N626 C618 1.356 . S
N626 H632 0.984 . S
N626 H633 0.984 . S
N627 C620 1.345 1_454 S
N627 H630 0.984 . S
N627 H631 0.985 . S
H628 N623 0.984 . S
H629 N623 0.985 . S
H630 N627 0.984 . S
H631 N627 0.985 . S
H632 N626 0.984 . S
H633 N626 0.984 . S
H634 N622 0.984 . S
H635 N622 0.985 . S
C636 C637 1.363 . S
C636 C642 1.379 . S
C636 N644 1.356 . S
C637 C636 1.363 . S
C637 C643 1.363 . S
C638 C639 1.363 . S
C638 C643 1.379 . S
C638 N645 1.356 1_565 S
C639 C638 1.363 . S
C639 C642 1.363 . S
N640 C642 1.356 . S
N640 H652 0.984 . S
N640 H653 0.985 . S
N641 C643 1.356 . S
N641 H646 0.984 . S
N641 H647 0.985 . S
C642 C636 1.379 . S
C642 C639 1.363 . S
C642 N640 1.356 . S
C643 C637 1.363 . S
C643 C638 1.379 . S
C643 N641 1.356 . S
N644 C636 1.356 . S
N644 H650 0.984 . S
N644 H651 0.984 . S
N645 C638 1.356 1_545 S
N645 H648 0.984 . S
N645 H649 0.985 . S
H646 N641 0.984 . S
H647 N641 0.985 . S
H648 N645 0.984 . S
H649 N645 0.985 . S
H650 N644 0.984 . S
H651 N644 0.984 . S
H652 N640 0.984 . S
H653 N640 0.985 . S
C654 C655 1.363 . S
C654 C660 1.379 . S
C654 N662 1.356 . S
C655 C654 1.363 . S
C655 C661 1.363 . S
C656 C657 1.363 . S
C656 C661 1.379 . S
C656 N663 1.356 . S
C657 C656 1.363 . S
C657 C660 1.363 . S
N658 C660 1.356 . S
N658 H670 0.984 . S
N658 H671 0.985 . S
N659 C661 1.356 . S
N659 H664 0.984 . S
N659 H665 0.985 . S
C660 C654 1.379 . S
C660 C657 1.363 . S
C660 N658 1.356 . S
C661 C655 1.363 . S
C661 C656 1.379 . S
C661 N659 1.356 . S
N662 C654 1.356 . S
N662 H668 0.984 . S
N662 H669 0.984 . S
N663 C656 1.356 . S
N663 H666 0.984 . S
N663 H667 0.985 . S
H664 N659 0.984 . S
H665 N659 0.985 . S
H666 N663 0.984 . S
H667 N663 0.985 . S
H668 N662 0.984 . S
H669 N662 0.984 . S
H670 N658 0.984 . S
H671 N658 0.985 . S
C672 C673 1.363 . S
C672 C678 1.379 . S
C672 N680 1.356 . S
C673 C672 1.363 . S
C673 C679 1.363 . S
C674 C675 1.363 . S
C674 C679 1.379 . S
C674 N681 1.356 . S
C675 C674 1.363 . S
C675 C678 1.363 . S
N676 C678 1.356 1_655 S
N676 H688 0.984 . S
N676 H689 0.985 . S
N677 C679 1.356 . S
N677 H682 0.984 . S
N677 H683 0.985 . S
C678 C672 1.379 . S
C678 C675 1.363 . S
C678 N676 1.356 1_455 S
C679 C673 1.363 . S
C679 C674 1.379 . S
C679 N677 1.356 . S
N680 C672 1.356 . S
N680 H686 0.984 . S
N680 H687 0.984 . S
N681 C674 1.356 . S
N681 H684 0.984 . S
N681 H685 0.985 . S
H682 N677 0.984 . S
H683 N677 0.985 . S
H684 N681 0.984 . S
H685 N681 0.985 . S
H686 N680 0.984 . S
H687 N680 0.984 . S
H688 N676 0.984 . S
H689 N676 0.985 . S
C690 C691 1.363 . S
C690 C696 1.379 . S
C690 N698 1.356 1_545 S
C691 C690 1.363 . S
C691 C697 1.363 . S
C692 C693 1.363 . S
C692 C697 1.379 . S
C692 N699 1.356 . S
C693 C692 1.363 . S
C693 C696 1.363 . S
N694 C696 1.356 . S
N694 H706 0.984 . S
N694 H707 0.985 . S
N695 C697 1.356 . S
N695 H700 0.984 . S
N695 H701 0.985 . S
C696 C690 1.379 . S
C696 C693 1.363 . S
C696 N694 1.356 . S
C697 C691 1.363 . S
C697 C692 1.379 . S
C697 N695 1.356 . S
N698 C690 1.356 1_565 S
N698 H704 0.984 . S
N698 H705 0.984 . S
N699 C692 1.356 . S
N699 H702 0.984 . S
N699 H703 0.985 . S
H700 N695 0.984 . S
H701 N695 0.985 . S
H702 N699 0.984 . S
H703 N699 0.985 . S
H704 N698 0.984 . S
H705 N698 0.984 . S
H706 N694 0.984 . S
H707 N694 0.985 . S
C277 N196 1.770 . S
C279 N12 1.770 . S
C295 N35 1.770 . S
C297 N219 1.770 . S
C313 N58 1.770 . S
C315 N242 1.770 . S
C331 N81 1.770 . S
C333 N265 1.770 . S
C349 N150 1.770 . S
C351 N104 1.770 . S
C367 N127 1.770 . S
C369 N173 1.770 . S
C385 N209 1.288 . S
C387 N2 1.288 . S
C403 N25 1.288 . S
C405 N232 1.288 . S
C421 N255 1.288 . S
C423 N48 1.288 . S
C439 N71 1.288 . S
C441 N140 1.288 . S
C457 N163 1.288 . S
C459 N94 1.288 . S
C475 N186 1.288 . S
C477 N117 1.288 . S
C493 C16 1.914 . S
C495 C122 1.870 . S
C511 C39 1.914 . S
C513 C7 1.870 1_655 S
C529 C30 1.870 1_565 S
C531 C62 1.914 . S
C547 C85 1.914 . S
C549 C53 1.870 . S
C565 C108 1.914 . S
C567 C76 1.870 1_455 S
C583 C131 1.914 . S
C585 C99 1.870 1_545 S
C601 C154 1.914 . S
C603 C168 1.870 . S
C619 C177 1.914 . S
C621 C191 1.870 1_655 S
C637 C200 1.914 . S
C639 C214 1.870 1_565 S
C655 C223 1.914 . S
C657 C237 1.870 . S
C673 C246 1.914 . S
C675 C260 1.870 1_455 S
C691 C145 1.870 1_545 S
C693 C269 1.914 . S
