# Generated by pormake.
# Topology oof, (8)-cn, num edge types: 1
# Building blocks:
#     Node 0, Type 0, BuildingBlock: VETTIZ_charged_sbu_0, # of connection points: 8
#     Node 1, Type 0, BuildingBlock: VETTIZ_charged_sbu_0, # of connection points: 8
#     Node 2, Type 0, BuildingBlock: VETTIZ_charged_sbu_0, # of connection points: 8
#     Node 3, Type 0, BuildingBlock: VETTIZ_charged_sbu_0, # of connection points: 8
#     Edge 4, Type (0, 0), BuildingBlock: XIVTED_clean_linker_0, # of connection points: 2
#     Edge 5, Type (0, 0), BuildingBlock: XIVTED_clean_linker_0, # of connection points: 2
#     Edge 6, Type (0, 0), BuildingBlock: XIVTED_clean_linker_0, # of connection points: 2
#     Edge 7, Type (0, 0), BuildingBlock: XIVTED_clean_linker_0, # of connection points: 2
#     Edge 8, Type (0, 0), BuildingBlock: XIVTED_clean_linker_0, # of connection points: 2
#     Edge 9, Type (0, 0), BuildingBlock: XIVTED_clean_linker_0, # of connection points: 2
#     Edge 10, Type (0, 0), BuildingBlock: XIVTED_clean_linker_0, # of connection points: 2
#     Edge 11, Type (0, 0), BuildingBlock: XIVTED_clean_linker_0, # of connection points: 2
#     Edge 12, Type (0, 0), BuildingBlock: XIVTED_clean_linker_0, # of connection points: 2
#     Edge 13, Type (0, 0), BuildingBlock: XIVTED_clean_linker_0, # of connection points: 2
#     Edge 14, Type (0, 0), BuildingBlock: XIVTED_clean_linker_0, # of connection points: 2
#     Edge 15, Type (0, 0), BuildingBlock: XIVTED_clean_linker_0, # of connection points: 2
#     Edge 16, Type (0, 0), BuildingBlock: XIVTED_clean_linker_0, # of connection points: 2
#     Edge 17, Type (0, 0), BuildingBlock: XIVTED_clean_linker_0, # of connection points: 2
#     Edge 18, Type (0, 0), BuildingBlock: XIVTED_clean_linker_0, # of connection points: 2
#     Edge 19, Type (0, 0), BuildingBlock: XIVTED_clean_linker_0, # of connection points: 2
# Relax obj value: 0.130
# Max RMSD: 0.230
# Mean RMSD: 0.230
data_MOF--net-oof--node1-VETTIZ_charged_sbu_0--edge1-XIVTED_clean_linker_0
_symmetry_space_group_name_H-M    P1
_symmetry_Int_Tables_number       1
_symmetry_cell_setting            triclinic
loop_
_symmetry_equiv_pos_as_xyz
'x, y, z'
_cell_length_a     16.802143
_cell_length_b     54.50788
_cell_length_c     16.572474
_cell_angle_alpha  89.975387
_cell_angle_beta   96.301371
_cell_angle_gamma 88.191375
loop_
_atom_site_label
_atom_site_type_symbol
_atom_site_fract_x
_atom_site_fract_y
_atom_site_fract_z
_atom_type_partial_charge
Fe0 Fe 0.07963 0.14745 0.35194 0.0
O1 O 0.01487 0.17283 0.28383 0.0
Fe2 Fe 0.08862 0.09913 0.21423 0.0
Fe3 Fe 0.94745 0.19795 0.33236 0.0
O4 O 0.02863 0.12441 0.26958 0.0
O5 O 0.02338 0.12454 0.26209 0.0
O6 O 0.00694 0.17267 0.27745 0.0
Fe7 Fe 0.95578 0.14944 0.19477 0.0
C8 C 0.96894 0.16005 0.47124 0.0
O9 O 0.12641 0.1764 0.426 0.0
O10 O 0.058 0.21102 0.3693 0.0
O11 O 0.04581 0.15491 0.123 0.0
O12 O 0.08037 0.11605 0.101 0.0
O13 O 0.19875 0.11374 0.24435 0.0
O14 O 0.17647 0.1518 0.28698 0.0
O15 O 0.93267 0.21263 0.2176 0.0
O16 O 0.89317 0.17991 0.13549 0.0
C17 C 0.22264 0.13512 0.2623 0.0
O18 O 0.91391 0.12033 0.1161 0.0
O19 O 0.97718 0.08663 0.1811 0.0
O20 O 0.98873 0.14323 0.42366 0.0
O21 O 0.95784 0.18208 0.44653 0.0
C22 C 0.11655 0.20009 0.41441 0.0
C23 C 0.90095 0.20333 0.1501 0.0
C24 C 0.81474 0.16069 0.28611 0.0
O25 O 0.8382 0.18225 0.30313 0.0
O26 O 0.86091 0.14402 0.26112 0.0
C27 C 0.06977 0.13826 0.0768 0.0
O28 O 0.10065 0.08424 0.32737 0.0
O29 O 0.13385 0.11633 0.41462 0.0
C30 C 0.92504 0.0966 0.12697 0.0
C31 C 0.12169 0.09317 0.39845 0.0
Fe32 Fe 0.91683 0.94931 0.8087 0.0
O33 O 0.97683 0.92399 0.75354 0.0
Fe34 Fe 0.051 0.89932 0.82865 0.0
Fe35 Fe 0.92539 0.90053 0.67285 0.0
O36 O 0.98224 0.9239 0.761 0.0
O37 O 0.99933 0.87577 0.74766 0.0
O38 O 0.99132 0.87558 0.74152 0.0
Fe39 Fe 0.05763 0.85023 0.69307 0.0
C40 C 0.78318 0.91299 0.76297 0.0
O41 O 0.90343 0.96381 0.695 0.0
O42 O 0.87003 0.93135 0.60932 0.0
O43 O 0.167 0.8662 0.71885 0.0
O44 O 0.14496 0.90452 0.76086 0.0
O45 O 0.09301 0.92877 0.90573 0.0
O46 O 0.02809 0.96215 0.84033 0.0
O47 O 0.01533 0.90452 0.59994 0.0
O48 O 0.04467 0.86551 0.57782 0.0
C49 C 0.0811 0.95244 0.89415 0.0
O50 O 0.07489 0.83615 0.80844 0.0
O51 O 0.11499 0.86921 0.88854 0.0
O52 O 0.80683 0.93446 0.77996 0.0
O53 O 0.82961 0.89626 0.73916 0.0
C54 C 0.88198 0.9546 0.62441 0.0
C55 C 0.03411 0.88751 0.55258 0.0
C56 C 0.88662 0.84763 0.61672 0.0
O57 O 0.87813 0.87115 0.60089 0.0
O58 O 0.94653 0.83702 0.66079 0.0
C59 C 0.19071 0.88778 0.73549 0.0
O60 O 0.96189 0.89392 0.90143 0.0
O61 O 0.92643 0.93274 0.92263 0.0
C62 C 0.10768 0.84573 0.87497 0.0
C63 C 0.93769 0.9106 0.94731 0.0
Fe64 Fe 0.58473 0.6475 0.33976 0.0
O65 O 0.51868 0.6724 0.27098 0.0
Fe66 Fe 0.59313 0.59863 0.20423 0.0
Fe67 Fe 0.45238 0.69777 0.31937 0.0
O68 O 0.53327 0.624 0.25927 0.0
O69 O 0.52782 0.62409 0.25183 0.0
O70 O 0.51068 0.67221 0.26484 0.0
Fe71 Fe 0.45898 0.64861 0.18405 0.0
C72 C 0.476 0.66053 0.46002 0.0
O73 O 0.63197 0.67693 0.41152 0.0
O74 O 0.56345 0.71101 0.35149 0.0
O75 O 0.54804 0.65396 0.11114 0.0
O76 O 0.58327 0.6151 0.09014 0.0
O77 O 0.70315 0.61353 0.23254 0.0
O78 O 0.68043 0.65174 0.27332 0.0
O79 O 0.435 0.71179 0.20393 0.0
O80 O 0.39493 0.67868 0.12401 0.0
C81 C 0.72681 0.635 0.24945 0.0
O82 O 0.41696 0.61911 0.10721 0.0
O83 O 0.48175 0.5858 0.17308 0.0
O84 O 0.49483 0.64351 0.41272 0.0
O85 O 0.46545 0.68252 0.4347 0.0
C86 C 0.62341 0.70044 0.39556 0.0
C87 C 0.40222 0.70217 0.13746 0.0
C88 C 0.31932 0.66019 0.2772 0.0
O89 O 0.34302 0.68178 0.29374 0.0
O90 O 0.36509 0.64344 0.25194 0.0
C91 C 0.57212 0.63724 0.06532 0.0
O92 O 0.60685 0.58424 0.31806 0.0
O93 O 0.64032 0.61675 0.40346 0.0
C94 C 0.42886 0.59544 0.119 0.0
C95 C 0.62858 0.59349 0.38851 0.0
Fe96 Fe 0.42462 0.44901 0.79946 0.0
O97 O 0.48445 0.42369 0.74423 0.0
Fe98 Fe 0.55739 0.39871 0.81915 0.0
Fe99 Fe 0.43339 0.40061 0.66208 0.0
O100 O 0.48973 0.42356 0.7517 0.0
O101 O 0.50618 0.37543 0.73668 0.0
O102 O 0.49826 0.37527 0.73029 0.0
Fe103 Fe 0.56565 0.35013 0.68184 0.0
C104 C 0.29052 0.41298 0.75189 0.0
O105 O 0.41227 0.4638 0.68618 0.0
O106 O 0.37896 0.43165 0.59922 0.0
O107 O 0.67492 0.36584 0.71094 0.0
O108 O 0.65221 0.4041 0.75271 0.0
O109 O 0.5993 0.42787 0.89758 0.0
O110 O 0.53618 0.4615 0.83212 0.0
O111 O 0.52425 0.40483 0.59028 0.0
O112 O 0.55519 0.36597 0.56759 0.0
C113 C 0.58819 0.45159 0.88651 0.0
O114 O 0.58052 0.33551 0.79667 0.0
O115 O 0.62002 0.36827 0.87859 0.0
O116 O 0.31444 0.43437 0.76976 0.0
O117 O 0.33665 0.39629 0.72719 0.0
C118 C 0.39092 0.45483 0.61524 0.0
C119 C 0.5441 0.38799 0.54278 0.0
C120 C 0.39653 0.34793 0.59991 0.0
O121 O 0.38662 0.37162 0.58821 0.0
O122 O 0.45512 0.33703 0.64505 0.0
C123 C 0.69839 0.38741 0.72785 0.0
O124 O 0.4674 0.39331 0.89106 0.0
O125 O 0.4331 0.4322 0.91286 0.0
C126 C 0.61225 0.34484 0.86411 0.0
C127 C 0.44357 0.41 0.9372 0.0
H128 H 0.1334 0.11025 0.96074 0.0
H129 H 0.89475 0.18471 0.58773 0.0
H130 H 0.9954 0.17716 0.99004 0.0
H131 H 0.07059 0.12707 0.55844 0.0
H132 H 0.92443 0.18071 0.73549 0.0
H133 H 0.10746 0.11508 0.81341 0.0
C134 C 0.09881 0.12619 0.93629 0.0
C135 C 0.06675 0.14333 0.98825 0.0
C136 C 0.9557 0.16868 0.69668 0.0
C137 C 0.03522 0.1487 0.81899 0.0
C138 C 0.9383 0.17082 0.61232 0.0
C139 C 0.9781 0.15557 0.56031 0.0
C140 C 0.0138 0.15124 0.72955 0.0
C141 C 0.03537 0.13831 0.59574 0.0
C142 C 0.08355 0.12886 0.85202 0.0
C143 C 0.02187 0.16354 0.95269 0.0
N144 N 0.05139 0.13661 0.67787 0.0
N145 N 0.00682 0.16553 0.87046 0.0
H146 H 0.10783 0.86268 0.43605 0.0
H147 H 0.87597 0.939 0.0637 0.0
H148 H 0.93262 0.92049 0.46549 0.0
H149 H 0.00916 0.87121 0.03359 0.0
H150 H 0.90041 0.9337 0.21097 0.0
H151 H 0.07924 0.86707 0.28824 0.0
C152 C 0.0646 0.87666 0.41149 0.0
C153 C 0.0248 0.89189 0.46351 0.0
C154 C 0.92359 0.91985 0.17215 0.0
C155 C 0.99045 0.89669 0.29434 0.0
C156 C 0.90924 0.92279 0.08793 0.0
C157 C 0.94034 0.90552 0.0358 0.0
C158 C 0.97009 0.8996 0.20494 0.0
C159 C 0.9835 0.88495 0.07108 0.0
C160 C 0.04785 0.87904 0.32713 0.0
C161 C 0.96793 0.90928 0.42817 0.0
N162 N 0.99771 0.8827 0.15327 0.0
N163 N 0.95262 0.91124 0.34606 0.0
H164 H 0.63179 0.60842 0.94874 0.0
H165 H 0.40541 0.68625 0.57681 0.0
H166 H 0.50269 0.67694 0.97911 0.0
H167 H 0.57342 0.62645 0.54697 0.0
H168 H 0.4339 0.68176 0.72453 0.0
H169 H 0.60718 0.61373 0.80151 0.0
C170 C 0.59942 0.62479 0.92458 0.0
C171 C 0.56948 0.64226 0.97679 0.0
C172 C 0.46373 0.66939 0.68558 0.0
C173 C 0.53958 0.64821 0.80765 0.0
C174 C 0.44703 0.67183 0.60125 0.0
C175 C 0.48494 0.65612 0.54911 0.0
C176 C 0.51916 0.65117 0.71827 0.0
C177 C 0.53969 0.63813 0.58435 0.0
C178 C 0.58494 0.62773 0.84037 0.0
C179 C 0.52742 0.66303 0.94157 0.0
N180 N 0.55503 0.63613 0.66645 0.0
N181 N 0.51313 0.6653 0.85939 0.0
H182 H 0.38194 0.43844 0.05345 0.0
H183 H 0.61522 0.36243 0.42607 0.0
H184 H 0.51593 0.37077 0.0239 0.0
H185 H 0.44655 0.42208 0.4557 0.0
H186 H 0.58564 0.36655 0.2784 0.0
H187 H 0.40807 0.4336 0.20072 0.0
C188 C 0.41566 0.42233 0.07783 0.0
C189 C 0.44658 0.40498 0.0258 0.0
C190 C 0.55591 0.37897 0.31726 0.0
C191 C 0.47827 0.39958 0.19505 0.0
C192 C 0.57326 0.37676 0.40158 0.0
C193 C 0.53534 0.39248 0.45369 0.0
C194 C 0.49975 0.39698 0.28447 0.0
C195 C 0.48018 0.41035 0.41834 0.0
C196 C 0.43105 0.41966 0.16208 0.0
C197 C 0.49038 0.38456 0.06129 0.0
N198 N 0.46412 0.41211 0.33622 0.0
N199 N 0.50551 0.38256 0.14351 0.0
H200 H 0.70237 0.19009 0.34949 0.0
H201 H 0.33458 0.10592 0.1972 0.0
H202 H 0.7294 0.12096 0.2266 0.0
H203 H 0.30851 0.17442 0.32365 0.0
H204 H 0.47854 0.11149 0.20526 0.0
H205 H 0.55852 0.18448 0.3412 0.0
C206 C 0.67825 0.1736 0.32119 0.0
C207 C 0.72847 0.15598 0.2885 0.0
C208 C 0.44141 0.12537 0.23101 0.0
C209 C 0.56271 0.14958 0.27825 0.0
C210 C 0.35893 0.12226 0.22625 0.0
C211 C 0.30898 0.13974 0.25998 0.0
C212 C 0.47475 0.1461 0.26993 0.0
C213 C 0.34439 0.16054 0.29651 0.0
C214 C 0.59581 0.17047 0.3163 0.0
C215 C 0.6933 0.135 0.25286 0.0
N216 N 0.42508 0.16309 0.30081 0.0
N217 N 0.61258 0.13245 0.24837 0.0
H218 H 0.67023 0.94271 0.82409 0.0
H219 H 0.30339 0.85789 0.6743 0.0
H220 H 0.69826 0.87304 0.70467 0.0
H221 H 0.27591 0.92779 0.79243 0.0
H222 H 0.44743 0.86335 0.68342 0.0
H223 H 0.52629 0.93718 0.81462 0.0
C224 C 0.6463 0.92612 0.79631 0.0
C225 C 0.69682 0.90834 0.76488 0.0
C226 C 0.40996 0.87756 0.70705 0.0
C227 C 0.53096 0.90203 0.75325 0.0
C228 C 0.32742 0.87452 0.70163 0.0
C229 C 0.27702 0.8924 0.73283 0.0
C230 C 0.44294 0.89861 0.7441 0.0
C231 C 0.31211 0.91354 0.76734 0.0
C232 C 0.56381 0.92304 0.79071 0.0
C233 C 0.66191 0.88723 0.7299 0.0
N234 N 0.39288 0.91599 0.77236 0.0
N235 N 0.58112 0.88472 0.72472 0.0
H236 H 0.83979 0.60525 0.1885 0.0
H237 H 0.20655 0.69013 0.33808 0.0
H238 H 0.8117 0.67499 0.30747 0.0
H239 H 0.23416 0.62016 0.22042 0.0
H240 H 0.06251 0.68467 0.32882 0.0
H241 H 0.98374 0.61078 0.19799 0.0
C242 C 0.86371 0.62185 0.21618 0.0
C243 C 0.81317 0.63965 0.24749 0.0
C244 C 0.1 0.67045 0.30532 0.0
C245 C 0.97904 0.64596 0.25915 0.0
C246 C 0.18255 0.67348 0.31082 0.0
C247 C 0.23299 0.65558 0.2798 0.0
C248 C 0.06705 0.64938 0.26837 0.0
C249 C 0.19793 0.63442 0.24538 0.0
C250 C 0.9462 0.62493 0.22179 0.0
C251 C 0.84807 0.66078 0.28234 0.0
N252 N 0.11715 0.63197 0.24027 0.0
N253 N 0.92885 0.66329 0.28755 0.0
H254 H 0.81094 0.35789 0.66522 0.0
H255 H 0.17845 0.44231 0.81633 0.0
H256 H 0.78362 0.42722 0.78684 0.0
H257 H 0.20478 0.37357 0.69134 0.0
H258 H 0.03449 0.43673 0.80826 0.0
H259 H 0.95479 0.3635 0.67365 0.0
C260 C 0.83499 0.37442 0.69326 0.0
C261 C 0.78469 0.3921 0.72554 0.0
C262 C 0.07168 0.4228 0.78284 0.0
C263 C 0.95046 0.3985 0.73596 0.0
C264 C 0.15416 0.42591 0.7876 0.0
C265 C 0.20419 0.40837 0.75427 0.0
C266 C 0.03842 0.402 0.74432 0.0
C267 C 0.16884 0.3875 0.71815 0.0
C268 C 0.91744 0.37755 0.69823 0.0
C269 C 0.81978 0.41313 0.76088 0.0
N270 N 0.08816 0.38495 0.71383 0.0
N271 N 0.90051 0.41568 0.76546 0.0
H272 H 0.2545 0.33425 0.64486 0.0
H273 H 0.25862 0.21375 0.36955 0.0
H274 H 0.41989 0.32131 0.46754 0.0
H275 H 0.09322 0.22668 0.54687 0.0
H276 H 0.32289 0.2523 0.40871 0.0
H277 H 0.19028 0.29569 0.60578 0.0
C278 C 0.27468 0.32379 0.59504 0.0
C279 C 0.34067 0.33112 0.55752 0.0
C280 C 0.27368 0.24648 0.44043 0.0
C281 C 0.27175 0.28641 0.51617 0.0
C282 C 0.23845 0.22421 0.4194 0.0
C283 C 0.17244 0.21687 0.45689 0.0
C284 C 0.24142 0.26157 0.49832 0.0
C285 C 0.14553 0.23156 0.51828 0.0
C286 C 0.23948 0.30151 0.57404 0.0
C287 C 0.3676 0.31643 0.49615 0.0
N288 N 0.17966 0.25338 0.53667 0.0
N289 N 0.3335 0.2946 0.47781 0.0
H290 H 0.54679 0.30292 0.90832 0.0
H291 H 0.96638 0.2453 0.10622 0.0
H292 H 0.76238 0.34408 0.94717 0.0
H293 H 0.75087 0.20411 0.06693 0.0
H294 H 0.89395 0.28121 0.04367 0.0
H295 H 0.61922 0.26702 0.97095 0.0
C296 C 0.60906 0.30453 0.93229 0.0
C297 C 0.64874 0.32647 0.92313 0.0
C298 C 0.86256 0.26427 0.04754 0.0
C299 C 0.73286 0.28521 0.99202 0.0
C300 C 0.90413 0.24368 0.08217 0.0
C301 C 0.86448 0.22173 0.09117 0.0
C302 C 0.78036 0.26301 0.02237 0.0
C303 C 0.7838 0.2206 0.05997 0.0
C304 C 0.65063 0.28395 0.96696 0.0
C305 C 0.72944 0.3276 0.95424 0.0
N306 N 0.74401 0.2411 0.02775 0.0
N307 N 0.76923 0.30711 0.98651 0.0
H308 H 0.66143 0.70974 0.55621 0.0
H309 H 0.84888 0.83832 0.45604 0.0
H310 H 0.7086 0.73158 0.31663 0.0
H311 H 0.80107 0.81655 0.69548 0.0
H312 H 0.79205 0.79996 0.40205 0.0
H313 H 0.71824 0.74811 0.61015 0.0
C314 C 0.6869 0.7222 0.51575 0.0
C315 C 0.68168 0.71757 0.43241 0.0
C316 C 0.79254 0.80378 0.46621 0.0
C317 C 0.74239 0.76175 0.49199 0.0
C318 C 0.82326 0.82588 0.49645 0.0
C319 C 0.8283 0.83052 0.57978 0.0
C320 C 0.76759 0.78635 0.52014 0.0
C321 C 0.79707 0.81357 0.63055 0.0
C322 C 0.71761 0.7443 0.54597 0.0
C323 C 0.71274 0.73454 0.38158 0.0
N324 N 0.76876 0.79208 0.60011 0.0
N325 N 0.74105 0.75604 0.412 0.0
H326 H 0.24965 0.70227 0.06081 0.0
H327 H 0.2602 0.84561 0.95174 0.0
H328 H 0.46392 0.74428 0.08963 0.0
H329 H 0.04598 0.80358 0.92247 0.0
H330 H 0.33541 0.80906 0.00825 0.0
H331 H 0.17442 0.73881 1.00422 0.0
C332 C 0.28129 0.71893 0.05231 0.0
C333 C 0.36293 0.72032 0.07933 0.0
C334 C 0.27164 0.80794 0.99069 0.0
C335 C 0.27733 0.76234 0.01849 0.0
C336 C 0.22856 0.82894 0.96012 0.0
C337 C 0.14695 0.82755 0.93301 0.0
C338 C 0.23253 0.78552 0.99376 0.0
C339 C 0.10899 0.80534 0.94303 0.0
C340 C 0.23821 0.73993 0.02169 0.0
C341 C 0.40089 0.74253 0.06915 0.0
N342 N 0.15219 0.78513 0.97176 0.0
N343 N 0.35769 0.76273 0.04039 0.0
H344 H 0.83795 0.05561 0.13614 0.0
H345 H 0.16733 0.99351 0.88236 0.0
H346 H 0.96941 0.0958 0.97437 0.0
H347 H 0.03817 0.9537 0.04717 0.0
H348 H 0.10421 0.03174 0.92373 0.0
H349 H 0.90126 1.01746 0.0943 0.0
C350 C 0.87664 0.0563 0.08804 0.0
C351 C 0.90185 0.07906 0.06201 0.0
C352 C 0.09063 1.01471 0.95219 0.0
C353 C 0.97708 0.03565 0.01612 0.0
C354 C 0.12927 0.99292 0.93102 0.0
C355 C 0.10467 0.97022 0.95821 0.0
C356 C 0.02957 1.01373 1.00351 0.0
C357 C 0.05638 0.97072 0.02217 0.0
C358 C 0.91537 0.03456 0.06663 0.0
C359 C 0.95083 0.07873 0.99862 0.0
N360 N 0.01743 0.99197 0.04017 0.0
N361 N 0.98982 0.0575 0.98034 0.0
H362 H 0.99916 0.09649 0.48905 0.0
H363 H 1.00444 0.95108 0.53384 0.0
H364 H 0.19845 0.04954 0.43899 0.0
H365 H 0.80437 0.99798 0.582 0.0
H366 H 0.07238 0.9865 0.48975 0.0
H367 H 0.93088 0.06099 0.53229 0.0
C368 C 0.0313 0.07895 0.49282 0.0
C369 C 0.1061 0.07618 0.46305 0.0
C370 C 0.01253 0.98905 0.50746 0.0
C371 C 0.02456 0.0349 0.50501 0.0
C372 C 0.972 0.96857 0.52939 0.0
C373 C 0.89712 0.97135 0.55898 0.0
C374 C 0.97835 1.01259 0.51616 0.0
C375 C 0.86116 0.99495 0.5578 0.0
C376 C 0.99062 0.05844 0.5143 0.0
C377 C 0.14175 0.05254 0.4634 0.0
N378 N 0.90272 1.01474 0.5384 0.0
N379 N 0.10008 0.03275 0.48247 0.0
H380 H 0.46833 0.5953 0.96475 0.0
H381 H 0.54732 0.45128 0.04036 0.0
H382 H 0.34716 0.55336 0.13084 0.0
H383 H 0.67075 0.49362 0.87723 0.0
H384 H 0.48085 0.48889 0.08268 0.0
H385 H 0.53446 0.5576 0.92277 0.0
C386 C 0.45208 0.57797 0.98926 0.0
C387 C 0.40585 0.57764 0.05477 0.0
C388 C 0.52371 0.49009 0.03869 0.0
C389 C 0.4824 0.53446 0.00885 0.0
C390 C 0.56393 0.46866 0.01657 0.0
C391 C 0.61086 0.46915 0.95162 0.0
C392 C 0.53407 0.51223 0.99802 0.0
C393 C 0.63266 0.49233 0.92563 0.0
C394 C 0.49216 0.5565 0.96735 0.0
C395 C 0.38464 0.55453 0.08189 0.0
N396 N 0.59139 0.51287 0.946 0.0
N397 N 0.42576 0.53394 0.06164 0.0
H398 H 0.309 0.49733 0.57103 0.0
H399 H 0.71122 0.55125 0.43457 0.0
H400 H 0.51601 0.45276 0.52802 0.0
H401 H 0.50355 0.59578 0.4757 0.0
H402 H 0.6438 0.51501 0.47677 0.0
H403 H 0.37662 0.53362 0.52958 0.0
C404 C 0.36663 0.49498 0.54792 0.0
C405 C 0.40577 0.47183 0.55048 0.0
C406 C 0.61392 0.53285 0.47913 0.0
C407 C 0.48604 0.51338 0.50867 0.0
C408 C 0.65351 0.55363 0.45748 0.0
C409 C 0.6141 0.57674 0.45408 0.0
C410 C 0.53409 0.53524 0.49678 0.0
C411 C 0.53776 0.57861 0.48098 0.0
C412 C 0.40633 0.51578 0.52668 0.0
C413 C 0.48202 0.46997 0.5234 0.0
N414 N 0.49964 0.5581 0.49965 0.0
N415 N 0.52027 0.4905 0.50513 0.0
loop_
_geom_bond_atom_site_label_1
_geom_bond_atom_site_label_2
_geom_bond_distance
_geom_bond_site_symmetry_2
_ccdc_geom_bond_type
Fe0 O1 1.886 . S
Fe0 O4 1.715 . S
Fe0 O9 2.077 . S
Fe0 O14 1.935 . S
Fe0 O20 2.077 . S
Fe0 O29 1.935 . S
O1 Fe0 1.886 . S
O1 Fe3 1.715 1_455 S
Fe2 O4 1.886 . S
Fe2 O5 1.715 1_455 S
Fe2 O12 1.935 . S
Fe2 O13 2.077 . S
Fe2 O19 1.935 1_455 S
Fe2 O28 2.077 . S
Fe3 O1 1.715 1_655 S
Fe3 O6 1.886 . S
Fe3 O10 1.935 1_655 S
Fe3 O15 2.077 . S
Fe3 O21 1.935 . S
Fe3 O25 2.077 . S
O4 Fe0 1.715 . S
O4 Fe2 1.886 . S
O5 Fe2 1.715 1_655 S
O5 Fe7 1.886 . S
O6 Fe3 1.886 . S
O6 Fe7 1.715 . S
Fe7 O5 1.886 . S
Fe7 O6 1.715 . S
Fe7 O11 2.077 . S
Fe7 O16 1.935 . S
Fe7 O18 2.077 . S
Fe7 O26 1.935 . S
C8 O20 1.381 1_655 S
C8 O21 1.421 . S
O9 Fe0 2.077 . S
O9 C22 1.381 . S
O10 Fe3 1.935 1_455 S
O10 C22 1.421 . S
O11 Fe7 2.077 . S
O11 C27 1.381 1_655 S
O12 Fe2 1.935 . S
O12 C27 1.421 . S
O13 Fe2 2.077 . S
O13 C17 1.381 . S
O14 Fe0 1.935 . S
O14 C17 1.421 . S
O15 Fe3 2.077 . S
O15 C23 1.381 . S
O16 Fe7 1.935 . S
O16 C23 1.421 . S
C17 O13 1.381 . S
C17 O14 1.421 . S
O18 Fe7 2.077 . S
O18 C30 1.381 . S
O19 Fe2 1.935 1_655 S
O19 C30 1.421 . S
O20 Fe0 2.077 . S
O20 C8 1.381 1_455 S
O21 Fe3 1.935 . S
O21 C8 1.421 . S
C22 O9 1.381 . S
C22 O10 1.421 . S
C23 O15 1.381 . S
C23 O16 1.421 . S
C24 O25 1.381 . S
C24 O26 1.421 . S
O25 Fe3 2.077 . S
O25 C24 1.381 . S
O26 Fe7 1.935 . S
O26 C24 1.421 . S
C27 O11 1.381 1_455 S
C27 O12 1.421 . S
O28 Fe2 2.077 . S
O28 C31 1.381 . S
O29 Fe0 1.935 . S
O29 C31 1.421 . S
C30 O18 1.381 . S
C30 O19 1.421 . S
C31 O28 1.381 . S
C31 O29 1.421 . S
Fe32 O33 1.886 . S
Fe32 O36 1.715 1_655 S
Fe32 O41 2.077 . S
Fe32 O46 1.935 1_655 S
Fe32 O52 2.077 . S
Fe32 O61 1.935 . S
O33 Fe32 1.886 . S
O33 Fe35 1.715 . S
Fe34 O36 1.886 . S
Fe34 O37 1.715 . S
Fe34 O44 1.935 . S
Fe34 O45 2.077 . S
Fe34 O51 1.935 . S
Fe34 O60 2.077 . S
Fe35 O33 1.715 . S
Fe35 O38 1.886 . S
Fe35 O42 1.935 . S
Fe35 O47 2.077 . S
Fe35 O53 1.935 . S
Fe35 O57 2.077 . S
O36 Fe32 1.715 1_455 S
O36 Fe34 1.886 . S
O37 Fe34 1.715 . S
O37 Fe39 1.886 . S
O38 Fe35 1.886 . S
O38 Fe39 1.715 1_655 S
Fe39 O37 1.886 . S
Fe39 O38 1.715 1_455 S
Fe39 O43 2.077 . S
Fe39 O48 1.935 . S
Fe39 O50 2.077 . S
Fe39 O58 1.935 1_455 S
C40 O52 1.381 . S
C40 O53 1.421 . S
O41 Fe32 2.077 . S
O41 C54 1.381 . S
O42 Fe35 1.935 . S
O42 C54 1.421 . S
O43 Fe39 2.077 . S
O43 C59 1.381 . S
O44 Fe34 1.935 . S
O44 C59 1.421 . S
O45 Fe34 2.077 . S
O45 C49 1.381 . S
O46 Fe32 1.935 1_455 S
O46 C49 1.421 . S
O47 Fe35 2.077 . S
O47 C55 1.381 1_655 S
O48 Fe39 1.935 . S
O48 C55 1.421 . S
C49 O45 1.381 . S
C49 O46 1.421 . S
O50 Fe39 2.077 . S
O50 C62 1.381 . S
O51 Fe34 1.935 . S
O51 C62 1.421 . S
O52 Fe32 2.077 . S
O52 C40 1.381 . S
O53 Fe35 1.935 . S
O53 C40 1.421 . S
C54 O41 1.381 . S
C54 O42 1.421 . S
C55 O47 1.381 1_455 S
C55 O48 1.421 . S
C56 O57 1.381 . S
C56 O58 1.421 . S
O57 Fe35 2.077 . S
O57 C56 1.381 . S
O58 Fe39 1.935 1_655 S
O58 C56 1.421 . S
C59 O43 1.381 . S
C59 O44 1.421 . S
O60 Fe34 2.077 . S
O60 C63 1.381 1_455 S
O61 Fe32 1.935 . S
O61 C63 1.421 . S
C62 O50 1.381 . S
C62 O51 1.421 . S
C63 O60 1.381 1_655 S
C63 O61 1.421 . S
Fe64 O65 1.886 . S
Fe64 O68 1.715 . S
Fe64 O73 2.077 . S
Fe64 O78 1.935 . S
Fe64 O84 2.077 . S
Fe64 O93 1.935 . S
O65 Fe64 1.886 . S
O65 Fe67 1.715 . S
Fe66 O68 1.886 . S
Fe66 O69 1.715 . S
Fe66 O76 1.935 . S
Fe66 O77 2.077 . S
Fe66 O83 1.935 . S
Fe66 O92 2.077 . S
Fe67 O65 1.715 . S
Fe67 O70 1.886 . S
Fe67 O74 1.935 . S
Fe67 O79 2.077 . S
Fe67 O85 1.935 . S
Fe67 O89 2.077 . S
O68 Fe64 1.715 . S
O68 Fe66 1.886 . S
O69 Fe66 1.715 . S
O69 Fe71 1.886 . S
O70 Fe67 1.886 . S
O70 Fe71 1.715 . S
Fe71 O69 1.886 . S
Fe71 O70 1.715 . S
Fe71 O75 2.077 . S
Fe71 O80 1.935 . S
Fe71 O82 2.077 . S
Fe71 O90 1.935 . S
C72 O84 1.381 . S
C72 O85 1.421 . S
O73 Fe64 2.077 . S
O73 C86 1.381 . S
O74 Fe67 1.935 . S
O74 C86 1.421 . S
O75 Fe71 2.077 . S
O75 C91 1.381 . S
O76 Fe66 1.935 . S
O76 C91 1.421 . S
O77 Fe66 2.077 . S
O77 C81 1.381 . S
O78 Fe64 1.935 . S
O78 C81 1.421 . S
O79 Fe67 2.077 . S
O79 C87 1.381 . S
O80 Fe71 1.935 . S
O80 C87 1.421 . S
C81 O77 1.381 . S
C81 O78 1.421 . S
O82 Fe71 2.077 . S
O82 C94 1.381 . S
O83 Fe66 1.935 . S
O83 C94 1.421 . S
O84 Fe64 2.077 . S
O84 C72 1.381 . S
O85 Fe67 1.935 . S
O85 C72 1.421 . S
C86 O73 1.381 . S
C86 O74 1.421 . S
C87 O79 1.381 . S
C87 O80 1.421 . S
C88 O89 1.381 . S
C88 O90 1.421 . S
O89 Fe67 2.077 . S
O89 C88 1.381 . S
O90 Fe71 1.935 . S
O90 C88 1.421 . S
C91 O75 1.381 . S
C91 O76 1.421 . S
O92 Fe66 2.077 . S
O92 C95 1.381 . S
O93 Fe64 1.935 . S
O93 C95 1.421 . S
C94 O82 1.381 . S
C94 O83 1.421 . S
C95 O92 1.381 . S
C95 O93 1.421 . S
Fe96 O97 1.886 . S
Fe96 O100 1.715 . S
Fe96 O105 2.077 . S
Fe96 O110 1.935 . S
Fe96 O116 2.077 . S
Fe96 O125 1.935 . S
O97 Fe96 1.886 . S
O97 Fe99 1.715 . S
Fe98 O100 1.886 . S
Fe98 O101 1.715 . S
Fe98 O108 1.935 . S
Fe98 O109 2.077 . S
Fe98 O115 1.935 . S
Fe98 O124 2.077 . S
Fe99 O97 1.715 . S
Fe99 O102 1.886 . S
Fe99 O106 1.935 . S
Fe99 O111 2.077 . S
Fe99 O117 1.935 . S
Fe99 O121 2.077 . S
O100 Fe96 1.715 . S
O100 Fe98 1.886 . S
O101 Fe98 1.715 . S
O101 Fe103 1.886 . S
O102 Fe99 1.886 . S
O102 Fe103 1.715 . S
Fe103 O101 1.886 . S
Fe103 O102 1.715 . S
Fe103 O107 2.077 . S
Fe103 O112 1.935 . S
Fe103 O114 2.077 . S
Fe103 O122 1.935 . S
C104 O116 1.381 . S
C104 O117 1.421 . S
O105 Fe96 2.077 . S
O105 C118 1.381 . S
O106 Fe99 1.935 . S
O106 C118 1.421 . S
O107 Fe103 2.077 . S
O107 C123 1.381 . S
O108 Fe98 1.935 . S
O108 C123 1.421 . S
O109 Fe98 2.077 . S
O109 C113 1.381 . S
O110 Fe96 1.935 . S
O110 C113 1.421 . S
O111 Fe99 2.077 . S
O111 C119 1.381 . S
O112 Fe103 1.935 . S
O112 C119 1.421 . S
C113 O109 1.381 . S
C113 O110 1.421 . S
O114 Fe103 2.077 . S
O114 C126 1.381 . S
O115 Fe98 1.935 . S
O115 C126 1.421 . S
O116 Fe96 2.077 . S
O116 C104 1.381 . S
O117 Fe99 1.935 . S
O117 C104 1.421 . S
C118 O105 1.381 . S
C118 O106 1.421 . S
C119 O111 1.381 . S
C119 O112 1.421 . S
C120 O121 1.381 . S
C120 O122 1.421 . S
O121 Fe99 2.077 . S
O121 C120 1.381 . S
O122 Fe103 1.935 . S
O122 C120 1.421 . S
C123 O107 1.381 . S
C123 O108 1.421 . S
O124 Fe98 2.077 . S
O124 C127 1.381 . S
O125 Fe96 1.935 . S
O125 C127 1.421 . S
C126 O114 1.381 . S
C126 O115 1.421 . S
C127 O124 1.381 . S
C127 O125 1.421 . S
H128 C134 0.930 . S
H129 C138 0.930 . S
H130 C143 0.929 . S
H131 C141 0.929 . S
H132 C136 0.929 . S
H133 C142 0.929 . S
C134 H128 0.930 . S
C134 C135 1.367 . S
C134 C142 1.378 . S
C135 C134 1.367 . S
C135 C143 1.433 1_455 S
C136 H132 0.929 . S
C136 C138 1.378 . S
C136 C140 1.350 . S
C137 C140 1.463 1_455 S
C137 C142 1.350 . S
C137 N145 1.427 1_455 S
C138 H129 0.930 . S
C138 C136 1.378 . S
C138 C139 1.367 . S
C139 C138 1.367 . S
C139 C141 1.433 1_655 S
C140 C136 1.350 . S
C140 C137 1.463 1_655 S
C140 N144 1.427 1_655 S
C141 H131 0.929 . S
C141 C139 1.433 1_455 S
C141 N144 1.384 . S
C142 H133 0.929 . S
C142 C134 1.378 . S
C142 C137 1.350 . S
C143 H130 0.929 . S
C143 C135 1.433 1_655 S
C143 N145 1.384 . S
N144 C140 1.427 1_455 S
N144 C141 1.384 . S
N145 C137 1.427 1_655 S
N145 C143 1.384 . S
H146 C152 0.930 . S
H147 C156 0.930 . S
H148 C161 0.929 . S
H149 C159 0.929 . S
H150 C154 0.929 . S
H151 C160 0.929 . S
C152 H146 0.930 . S
C152 C153 1.367 . S
C152 C160 1.378 . S
C153 C152 1.367 . S
C153 C161 1.433 1_455 S
C154 H150 0.929 . S
C154 C156 1.378 . S
C154 C158 1.350 . S
C155 C158 1.463 1_455 S
C155 C160 1.350 . S
C155 N163 1.427 1_455 S
C156 H147 0.930 . S
C156 C154 1.378 . S
C156 C157 1.367 . S
C157 C156 1.367 . S
C157 C159 1.433 1_655 S
C158 C154 1.350 . S
C158 C155 1.463 1_655 S
C158 N162 1.427 1_655 S
C159 H149 0.929 . S
C159 C157 1.433 1_455 S
C159 N162 1.384 . S
C160 H151 0.929 . S
C160 C152 1.378 . S
C160 C155 1.350 . S
C161 H148 0.929 . S
C161 C153 1.433 1_655 S
C161 N163 1.384 . S
N162 C158 1.427 1_455 S
N162 C159 1.384 . S
N163 C155 1.427 1_655 S
N163 C161 1.384 . S
H164 C170 0.930 . S
H165 C174 0.930 . S
H166 C179 0.929 . S
H167 C177 0.929 . S
H168 C172 0.929 . S
H169 C178 0.929 . S
C170 H164 0.930 . S
C170 C171 1.367 . S
C170 C178 1.378 . S
C171 C170 1.367 . S
C171 C179 1.433 . S
C172 H168 0.929 . S
C172 C174 1.378 . S
C172 C176 1.350 . S
C173 C176 1.463 . S
C173 C178 1.350 . S
C173 N181 1.427 . S
C174 H165 0.930 . S
C174 C172 1.378 . S
C174 C175 1.367 . S
C175 C174 1.367 . S
C175 C177 1.433 . S
C176 C172 1.350 . S
C176 C173 1.463 . S
C176 N180 1.427 . S
C177 H167 0.929 . S
C177 C175 1.433 . S
C177 N180 1.384 . S
C178 H169 0.929 . S
C178 C170 1.378 . S
C178 C173 1.350 . S
C179 H166 0.929 . S
C179 C171 1.433 . S
C179 N181 1.384 . S
N180 C176 1.427 . S
N180 C177 1.384 . S
N181 C173 1.427 . S
N181 C179 1.384 . S
H182 C188 0.930 . S
H183 C192 0.930 . S
H184 C197 0.929 . S
H185 C195 0.929 . S
H186 C190 0.929 . S
H187 C196 0.929 . S
C188 H182 0.930 . S
C188 C189 1.367 . S
C188 C196 1.378 . S
C189 C188 1.367 . S
C189 C197 1.433 . S
C190 H186 0.929 . S
C190 C192 1.378 . S
C190 C194 1.350 . S
C191 C194 1.463 . S
C191 C196 1.350 . S
C191 N199 1.427 . S
C192 H183 0.930 . S
C192 C190 1.378 . S
C192 C193 1.367 . S
C193 C192 1.367 . S
C193 C195 1.433 . S
C194 C190 1.350 . S
C194 C191 1.463 . S
C194 N198 1.427 . S
C195 H185 0.929 . S
C195 C193 1.433 . S
C195 N198 1.384 . S
C196 H187 0.929 . S
C196 C188 1.378 . S
C196 C191 1.350 . S
C197 H184 0.929 . S
C197 C189 1.433 . S
C197 N199 1.384 . S
N198 C194 1.427 . S
N198 C195 1.384 . S
N199 C191 1.427 . S
N199 C197 1.384 . S
H200 C206 0.930 . S
H201 C210 0.930 . S
H202 C215 0.929 . S
H203 C213 0.929 . S
H204 C208 0.929 . S
H205 C214 0.929 . S
C206 H200 0.930 . S
C206 C207 1.367 . S
C206 C214 1.378 . S
C207 C206 1.367 . S
C207 C215 1.433 . S
C208 H204 0.929 . S
C208 C210 1.378 . S
C208 C212 1.350 . S
C209 C212 1.463 . S
C209 C214 1.350 . S
C209 N217 1.427 . S
C210 H201 0.930 . S
C210 C208 1.378 . S
C210 C211 1.367 . S
C211 C210 1.367 . S
C211 C213 1.433 . S
C212 C208 1.350 . S
C212 C209 1.463 . S
C212 N216 1.427 . S
C213 H203 0.929 . S
C213 C211 1.433 . S
C213 N216 1.384 . S
C214 H205 0.929 . S
C214 C206 1.378 . S
C214 C209 1.350 . S
C215 H202 0.929 . S
C215 C207 1.433 . S
C215 N217 1.384 . S
N216 C212 1.427 . S
N216 C213 1.384 . S
N217 C209 1.427 . S
N217 C215 1.384 . S
H218 C224 0.930 . S
H219 C228 0.930 . S
H220 C233 0.929 . S
H221 C231 0.929 . S
H222 C226 0.929 . S
H223 C232 0.929 . S
C224 H218 0.930 . S
C224 C225 1.367 . S
C224 C232 1.378 . S
C225 C224 1.367 . S
C225 C233 1.433 . S
C226 H222 0.929 . S
C226 C228 1.378 . S
C226 C230 1.350 . S
C227 C230 1.463 . S
C227 C232 1.350 . S
C227 N235 1.427 . S
C228 H219 0.930 . S
C228 C226 1.378 . S
C228 C229 1.367 . S
C229 C228 1.367 . S
C229 C231 1.433 . S
C230 C226 1.350 . S
C230 C227 1.463 . S
C230 N234 1.427 . S
C231 H221 0.929 . S
C231 C229 1.433 . S
C231 N234 1.384 . S
C232 H223 0.929 . S
C232 C224 1.378 . S
C232 C227 1.350 . S
C233 H220 0.929 . S
C233 C225 1.433 . S
C233 N235 1.384 . S
N234 C230 1.427 . S
N234 C231 1.384 . S
N235 C227 1.427 . S
N235 C233 1.384 . S
H236 C242 0.930 . S
H237 C246 0.930 . S
H238 C251 0.929 . S
H239 C249 0.929 . S
H240 C244 0.929 . S
H241 C250 0.929 . S
C242 H236 0.930 . S
C242 C243 1.367 . S
C242 C250 1.378 . S
C243 C242 1.367 . S
C243 C251 1.433 . S
C244 H240 0.929 . S
C244 C246 1.378 . S
C244 C248 1.350 . S
C245 C248 1.463 1_655 S
C245 C250 1.350 . S
C245 N253 1.427 . S
C246 H237 0.930 . S
C246 C244 1.378 . S
C246 C247 1.367 . S
C247 C246 1.367 . S
C247 C249 1.433 . S
C248 C244 1.350 . S
C248 C245 1.463 1_455 S
C248 N252 1.427 . S
C249 H239 0.929 . S
C249 C247 1.433 . S
C249 N252 1.384 . S
C250 H241 0.929 . S
C250 C242 1.378 . S
C250 C245 1.350 . S
C251 H238 0.929 . S
C251 C243 1.433 . S
C251 N253 1.384 . S
N252 C248 1.427 . S
N252 C249 1.384 . S
N253 C245 1.427 . S
N253 C251 1.384 . S
H254 C260 0.930 . S
H255 C264 0.930 . S
H256 C269 0.929 . S
H257 C267 0.929 . S
H258 C262 0.929 . S
H259 C268 0.929 . S
C260 H254 0.930 . S
C260 C261 1.367 . S
C260 C268 1.378 . S
C261 C260 1.367 . S
C261 C269 1.433 . S
C262 H258 0.929 . S
C262 C264 1.378 . S
C262 C266 1.350 . S
C263 C266 1.463 1_655 S
C263 C268 1.350 . S
C263 N271 1.427 . S
C264 H255 0.930 . S
C264 C262 1.378 . S
C264 C265 1.367 . S
C265 C264 1.367 . S
C265 C267 1.433 . S
C266 C262 1.350 . S
C266 C263 1.463 1_455 S
C266 N270 1.427 . S
C267 H257 0.929 . S
C267 C265 1.433 . S
C267 N270 1.384 . S
C268 H259 0.929 . S
C268 C260 1.378 . S
C268 C263 1.350 . S
C269 H256 0.929 . S
C269 C261 1.433 . S
C269 N271 1.384 . S
N270 C266 1.427 . S
N270 C267 1.384 . S
N271 C263 1.427 . S
N271 C269 1.384 . S
H272 C278 0.930 . S
H273 C282 0.930 . S
H274 C287 0.929 . S
H275 C285 0.929 . S
H276 C280 0.929 . S
H277 C286 0.929 . S
C278 H272 0.930 . S
C278 C279 1.367 . S
C278 C286 1.378 . S
C279 C278 1.367 . S
C279 C287 1.433 . S
C280 H276 0.929 . S
C280 C282 1.378 . S
C280 C284 1.350 . S
C281 C284 1.463 . S
C281 C286 1.350 . S
C281 N289 1.427 . S
C282 H273 0.930 . S
C282 C280 1.378 . S
C282 C283 1.367 . S
C283 C282 1.367 . S
C283 C285 1.433 . S
C284 C280 1.350 . S
C284 C281 1.463 . S
C284 N288 1.427 . S
C285 H275 0.929 . S
C285 C283 1.433 . S
C285 N288 1.384 . S
C286 H277 0.929 . S
C286 C278 1.378 . S
C286 C281 1.350 . S
C287 H274 0.929 . S
C287 C279 1.433 . S
C287 N289 1.384 . S
N288 C284 1.427 . S
N288 C285 1.384 . S
N289 C281 1.427 . S
N289 C287 1.384 . S
H290 C296 0.930 . S
H291 C300 0.930 . S
H292 C305 0.929 . S
H293 C303 0.929 . S
H294 C298 0.929 . S
H295 C304 0.929 . S
C296 H290 0.930 . S
C296 C297 1.367 . S
C296 C304 1.378 . S
C297 C296 1.367 . S
C297 C305 1.433 . S
C298 H294 0.929 . S
C298 C300 1.378 . S
C298 C302 1.350 . S
C299 C302 1.463 1_556 S
C299 C304 1.350 . S
C299 N307 1.427 . S
C300 H291 0.930 . S
C300 C298 1.378 . S
C300 C301 1.367 . S
C301 C300 1.367 . S
C301 C303 1.433 . S
C302 C298 1.350 . S
C302 C299 1.463 1_554 S
C302 N306 1.427 . S
C303 H293 0.929 . S
C303 C301 1.433 . S
C303 N306 1.384 . S
C304 H295 0.929 . S
C304 C296 1.378 . S
C304 C299 1.350 . S
C305 H292 0.929 . S
C305 C297 1.433 . S
C305 N307 1.384 . S
N306 C302 1.427 . S
N306 C303 1.384 . S
N307 C299 1.427 . S
N307 C305 1.384 . S
H308 C314 0.930 . S
H309 C318 0.930 . S
H310 C323 0.929 . S
H311 C321 0.929 . S
H312 C316 0.929 . S
H313 C322 0.929 . S
C314 H308 0.930 . S
C314 C315 1.367 . S
C314 C322 1.378 . S
C315 C314 1.367 . S
C315 C323 1.433 . S
C316 H312 0.929 . S
C316 C318 1.378 . S
C316 C320 1.350 . S
C317 C320 1.463 . S
C317 C322 1.350 . S
C317 N325 1.427 . S
C318 H309 0.930 . S
C318 C316 1.378 . S
C318 C319 1.367 . S
C319 C318 1.367 . S
C319 C321 1.433 . S
C320 C316 1.350 . S
C320 C317 1.463 . S
C320 N324 1.427 . S
C321 H311 0.929 . S
C321 C319 1.433 . S
C321 N324 1.384 . S
C322 H313 0.929 . S
C322 C314 1.378 . S
C322 C317 1.350 . S
C323 H310 0.929 . S
C323 C315 1.433 . S
C323 N325 1.384 . S
N324 C320 1.427 . S
N324 C321 1.384 . S
N325 C317 1.427 . S
N325 C323 1.384 . S
H326 C332 0.930 . S
H327 C336 0.930 . S
H328 C341 0.929 . S
H329 C339 0.929 . S
H330 C334 0.929 . S
H331 C340 0.929 . S
C332 H326 0.930 . S
C332 C333 1.367 . S
C332 C340 1.378 1_554 S
C333 C332 1.367 . S
C333 C341 1.433 . S
C334 H330 0.929 . S
C334 C336 1.378 1_554 S
C334 C338 1.350 1_554 S
C335 C338 1.463 1_554 S
C335 C340 1.350 1_554 S
C335 N343 1.427 . S
C336 H327 0.930 . S
C336 C334 1.378 1_556 S
C336 C337 1.367 . S
C337 C336 1.367 . S
C337 C339 1.433 . S
C338 C334 1.350 1_556 S
C338 C335 1.463 1_556 S
C338 N342 1.427 . S
C339 H329 0.929 . S
C339 C337 1.433 . S
C339 N342 1.384 . S
C340 H331 0.929 . S
C340 C332 1.378 1_556 S
C340 C335 1.350 1_556 S
C341 H328 0.929 . S
C341 C333 1.433 . S
C341 N343 1.384 . S
N342 C338 1.427 . S
N342 C339 1.384 . S
N343 C335 1.427 . S
N343 C341 1.384 . S
H344 C350 0.930 . S
H345 C354 0.930 . S
H346 C359 0.928 1_455 S
H347 C357 0.929 1_655 S
H348 C352 0.929 . S
H349 C358 0.929 . S
C350 H344 0.930 . S
C350 C351 1.367 . S
C350 C358 1.378 1_554 S
C351 C350 1.367 . S
C351 C359 1.436 . S
C352 H348 0.929 . S
C352 C354 1.378 1_554 S
C352 C356 1.350 1_554 S
C353 C356 1.463 1_644 S
C353 C358 1.350 1_554 S
C353 N361 1.427 1_655 S
C354 H345 0.930 . S
C354 C352 1.378 1_556 S
C354 C355 1.367 . S
C355 C354 1.367 . S
C355 C357 1.433 . S
C356 C352 1.350 1_556 S
C356 C353 1.463 1_466 S
C356 N360 1.427 1_455 S
C357 H347 0.929 1_455 S
C357 C355 1.433 . S
C357 N360 1.384 1_455 S
C358 H349 0.929 . S
C358 C350 1.378 1_556 S
C358 C353 1.350 1_556 S
C359 H346 0.928 1_655 S
C359 C351 1.436 . S
C359 N361 1.382 1_655 S
N360 C356 1.427 1_655 S
N360 C357 1.384 1_655 S
N361 C353 1.427 1_455 S
N361 C359 1.382 1_455 S
H362 C368 0.930 . S
H363 C372 0.930 . S
H364 C377 0.929 . S
H365 C375 0.929 . S
H366 C370 0.929 . S
H367 C376 0.929 . S
C368 H362 0.930 . S
C368 C369 1.367 . S
C368 C376 1.378 . S
C369 C368 1.367 . S
C369 C377 1.433 . S
C370 H366 0.929 . S
C370 C372 1.378 . S
C370 C374 1.350 . S
C371 C374 1.463 1_445 S
C371 C376 1.350 . S
C371 N379 1.427 . S
C372 H363 0.930 . S
C372 C370 1.378 . S
C372 C373 1.367 . S
C373 C372 1.367 . S
C373 C375 1.433 . S
C374 C370 1.350 . S
C374 C371 1.463 1_665 S
C374 N378 1.427 . S
C375 H365 0.929 . S
C375 C373 1.433 . S
C375 N378 1.384 . S
C376 H367 0.929 . S
C376 C368 1.378 . S
C376 C371 1.350 . S
C377 H364 0.929 . S
C377 C369 1.433 . S
C377 N379 1.384 . S
N378 C374 1.427 . S
N378 C375 1.384 . S
N379 C371 1.427 . S
N379 C377 1.384 . S
H380 C386 0.930 1_556 S
H381 C390 0.930 1_554 S
H382 C395 0.929 . S
H383 C393 0.929 . S
H384 C388 0.929 . S
H385 C394 0.929 . S
C386 H380 0.930 1_554 S
C386 C387 1.367 . S
C386 C394 1.378 1_554 S
C387 C386 1.367 . S
C387 C395 1.433 . S
C388 H384 0.929 . S
C388 C390 1.378 1_554 S
C388 C392 1.350 1_554 S
C389 C392 1.463 1_554 S
C389 C394 1.350 1_554 S
C389 N397 1.427 . S
C390 H381 0.930 1_556 S
C390 C388 1.378 1_556 S
C390 C391 1.367 . S
C391 C390 1.367 . S
C391 C393 1.433 . S
C392 C388 1.350 1_556 S
C392 C389 1.463 1_556 S
C392 N396 1.427 . S
C393 H383 0.929 . S
C393 C391 1.433 . S
C393 N396 1.384 . S
C394 H385 0.929 . S
C394 C386 1.378 1_556 S
C394 C389 1.350 1_556 S
C395 H382 0.929 . S
C395 C387 1.433 . S
C395 N397 1.384 . S
N396 C392 1.427 . S
N396 C393 1.384 . S
N397 C389 1.427 . S
N397 C395 1.384 . S
H398 C404 0.930 . S
H399 C408 0.930 . S
H400 C413 0.929 . S
H401 C411 0.929 . S
H402 C406 0.929 . S
H403 C412 0.929 . S
C404 H398 0.930 . S
C404 C405 1.367 . S
C404 C412 1.378 . S
C405 C404 1.367 . S
C405 C413 1.433 . S
C406 H402 0.929 . S
C406 C408 1.378 . S
C406 C410 1.350 . S
C407 C410 1.463 . S
C407 C412 1.350 . S
C407 N415 1.427 . S
C408 H399 0.930 . S
C408 C406 1.378 . S
C408 C409 1.367 . S
C409 C408 1.367 . S
C409 C411 1.433 . S
C410 C406 1.350 . S
C410 C407 1.463 . S
C410 N414 1.427 . S
C411 H401 0.929 . S
C411 C409 1.433 . S
C411 N414 1.384 . S
C412 H403 0.929 . S
C412 C404 1.378 . S
C412 C407 1.350 . S
C413 H400 0.929 . S
C413 C405 1.433 . S
C413 N415 1.384 . S
N414 C410 1.427 . S
N414 C411 1.384 . S
N415 C407 1.427 . S
N415 C413 1.384 . S
C135 C27 1.283 1_556 S
C139 C8 1.283 . S
C153 C55 1.282 . S
C157 C63 1.282 1_554 S
C171 C91 1.264 1_556 S
C175 C72 1.264 . S
C189 C127 1.274 1_554 S
C193 C119 1.274 . S
C207 C24 1.240 . S
C211 C17 1.240 . S
C225 C40 1.225 . S
C229 C59 1.225 . S
C243 C81 1.225 . S
C247 C88 1.225 . S
C261 C123 1.236 . S
C265 C104 1.236 . S
C279 C120 1.623 . S
C283 C22 1.623 . S
C297 C126 1.596 . S
C301 C23 1.596 . S
C315 C86 1.617 . S
C319 C56 1.617 . S
C333 C87 1.582 . S
C337 C62 1.582 . S
C351 C30 1.691 . S
C355 C49 1.691 . S
C369 C31 1.906 . S
C373 C54 1.906 . S
C387 C94 1.676 . S
C391 C113 1.676 . S
C405 C118 1.908 . S
C409 C95 1.908 . S
