# Generated by pormake.
# Topology unj, (4)-cn, num edge types: 1
# Building blocks:
#     Node 0, Type 0, BuildingBlock: TATPOV_clean_sbu_0, # of connection points: 4
#     Node 1, Type 0, BuildingBlock: TATPOV_clean_sbu_0, # of connection points: 4
#     Node 2, Type 0, BuildingBlock: TATPOV_clean_sbu_0, # of connection points: 4
#     Node 3, Type 0, BuildingBlock: TATPOV_clean_sbu_0, # of connection points: 4
#     Node 4, Type 0, BuildingBlock: TATPOV_clean_sbu_0, # of connection points: 4
#     Node 5, Type 0, BuildingBlock: TATPOV_clean_sbu_0, # of connection points: 4
#     Edge 6, Type (0, 0), BuildingBlock: EZIPEK_clean_linker_0, # of connection points: 2
#     Edge 7, Type (0, 0), BuildingBlock: EZIPEK_clean_linker_0, # of connection points: 2
#     Edge 8, Type (0, 0), BuildingBlock: EZIPEK_clean_linker_0, # of connection points: 2
#     Edge 9, Type (0, 0), BuildingBlock: EZIPEK_clean_linker_0, # of connection points: 2
#     Edge 10, Type (0, 0), BuildingBlock: EZIPEK_clean_linker_0, # of connection points: 2
#     Edge 11, Type (0, 0), BuildingBlock: EZIPEK_clean_linker_0, # of connection points: 2
#     Edge 12, Type (0, 0), BuildingBlock: EZIPEK_clean_linker_0, # of connection points: 2
#     Edge 13, Type (0, 0), BuildingBlock: EZIPEK_clean_linker_0, # of connection points: 2
#     Edge 14, Type (0, 0), BuildingBlock: EZIPEK_clean_linker_0, # of connection points: 2
#     Edge 15, Type (0, 0), BuildingBlock: EZIPEK_clean_linker_0, # of connection points: 2
#     Edge 16, Type (0, 0), BuildingBlock: EZIPEK_clean_linker_0, # of connection points: 2
#     Edge 17, Type (0, 0), BuildingBlock: EZIPEK_clean_linker_0, # of connection points: 2
# Relax obj value: 0.021
# Max RMSD: 0.060
# Mean RMSD: 0.060
data_MOF--net-unj--node1-TATPOV_clean_sbu_0--edge1-EZIPEK_clean_linker_0
_symmetry_space_group_name_H-M    P1
_symmetry_Int_Tables_number       1
_symmetry_cell_setting            triclinic
loop_
_symmetry_equiv_pos_as_xyz
'x, y, z'
_cell_length_a     26.353053
_cell_length_b     26.272017
_cell_length_c     24.454819
_cell_angle_alpha  89.890932
_cell_angle_beta   89.809479
_cell_angle_gamma 120.80925
loop_
_atom_site_label
_atom_site_type_symbol
_atom_site_fract_x
_atom_site_fract_y
_atom_site_fract_z
_atom_type_partial_charge
Zn0 Zn 0.36499 0.1153 0.67218 0.0
Zn1 Zn 0.42813 0.18792 0.58803 0.0
O2 O 0.37594 0.22026 0.61321 0.0
O3 O 0.32409 0.16154 0.68174 0.0
O4 O 0.47193 0.24048 0.52403 0.0
O5 O 0.33332 0.0457 0.62198 0.0
O6 O 0.38519 0.10493 0.55368 0.0
C7 C 0.33807 0.20594 0.65143 0.0
C8 C 0.48993 0.18291 0.69187 0.0
O9 O 0.4927 0.20441 0.64442 0.0
O10 O 0.44114 0.14337 0.71194 0.0
C11 C 0.4969 0.2963 0.52905 0.0
O12 O 0.49403 0.31895 0.57596 0.0
C13 C 0.34925 0.05341 0.57238 0.0
Zn14 Zn 0.20174 0.34533 0.86096 0.0
Zn15 Zn 0.20709 0.42214 0.78203 0.0
O16 O 0.12085 0.37817 0.80655 0.0
O17 O 0.1147 0.31449 0.8691 0.0
O18 O 0.20751 0.47346 0.721 0.0
O19 O 0.23175 0.31015 0.80565 0.0
O20 O 0.23568 0.37276 0.74309 0.0
C21 C 0.09105 0.33757 0.84147 0.0
C22 C 0.27661 0.46972 0.88783 0.0
O23 O 0.2618 0.4791 0.84101 0.0
O24 O 0.25775 0.41748 0.90499 0.0
C25 C 0.18536 0.50594 0.72809 0.0
O26 O 0.16407 0.5076 0.77626 0.0
C27 C 0.24308 0.33048 0.75738 0.0
Zn28 Zn 0.78998 0.2236 1.02531 0.0
Zn29 Zn 0.7371 0.24072 0.93754 0.0
O30 O 0.68112 0.15332 0.95652 0.0
O31 O 0.72467 0.13825 1.02645 0.0
O32 O 0.70098 0.24921 0.86889 0.0
O33 O 0.86322 0.24906 0.98056 0.0
O34 O 0.81921 0.26281 0.91025 0.0
C35 C 0.68257 0.11935 0.99275 0.0
C36 C 0.75264 0.30859 0.04306 0.0
O37 O 0.73452 0.29739 0.99381 0.0
O38 O 0.77816 0.28395 0.06486 0.0
C39 C 0.64827 0.23837 0.86926 0.0
O40 O 0.61891 0.22587 0.91561 0.0
C41 C 0.86379 0.26386 0.93125 0.0
Zn42 Zn 0.5496 0.83664 0.17911 0.0
Zn43 Zn 0.47925 0.75977 0.10139 0.0
O44 O 0.54153 0.73678 0.11525 0.0
O45 O 0.59947 0.79872 0.1778 0.0
O46 O 0.42901 0.70241 0.0432 0.0
O47 O 0.56799 0.90327 0.12691 0.0
O48 O 0.5114 0.84009 0.06351 0.0
C49 C 0.58683 0.75623 0.14552 0.0
C50 C 0.42892 0.76357 0.21367 0.0
O51 O 0.4218 0.74215 0.1657 0.0
O52 O 0.47914 0.8043 0.2295 0.0
C53 C 0.41214 0.64793 0.04859 0.0
O54 O 0.42547 0.62931 0.0931 0.0
C55 C 0.54655 0.89288 0.07924 0.0
Zn56 Zn 0.70839 0.60025 0.34891 0.0
Zn57 Zn 0.70622 0.53013 0.26573 0.0
O58 O 0.78987 0.56632 0.29593 0.0
O59 O 0.79445 0.62732 0.36033 0.0
O60 O 0.70696 0.48323 0.20161 0.0
O61 O 0.68423 0.64314 0.29604 0.0
O62 O 0.68516 0.58695 0.22963 0.0
C63 C 0.81838 0.60434 0.33287 0.0
C64 C 0.62822 0.47395 0.36602 0.0
O65 O 0.64484 0.46869 0.31847 0.0
O66 O 0.64783 0.52457 0.38726 0.0
C67 C 0.72296 0.44561 0.20814 0.0
O68 O 0.73819 0.43725 0.25692 0.0
C69 C 0.67737 0.62831 0.24619 0.0
Zn70 Zn 0.1052 0.71338 0.53162 0.0
Zn71 Zn 0.16537 0.69829 0.44853 0.0
O72 O 0.21499 0.78702 0.46417 0.0
O73 O 0.16598 0.80059 0.53032 0.0
O74 O 0.20905 0.69048 0.38488 0.0
O75 O 0.03392 0.68159 0.48332 0.0
O76 O 0.08379 0.67094 0.41605 0.0
C77 C 0.20946 0.82081 0.49769 0.0
C78 C 0.14901 0.63595 0.55877 0.0
O79 O 0.16894 0.64644 0.5099 0.0
O80 O 0.11982 0.65827 0.5773 0.0
C81 C 0.26418 0.71096 0.38894 0.0
O82 O 0.29054 0.7321 0.43595 0.0
C83 C 0.03684 0.66726 0.43457 0.0
C84 C 0.27312 -0.01502 0.5062 0.0
C85 C 0.32475 0.00112 0.53674 0.0
C86 C 0.30913 0.90151 0.5276 0.0
C87 C 0.25497 0.8841 0.50088 0.0
N88 N 0.19352 0.91046 0.45053 0.0
N89 N 0.40157 -0.01754 0.56278 0.0
C90 C 0.23984 0.92655 0.48522 0.0
C91 C 0.34615 0.96182 0.54247 0.0
N92 N 0.25439 0.02449 0.50011 0.0
N93 N 0.32312 0.85983 0.54191 0.0
H94 H 0.42919 0.02672 0.57383 0.0
H95 H 0.4221 0.95759 0.56409 0.0
H96 H 0.29768 0.81546 0.53058 0.0
H97 H 0.35833 0.86838 0.56714 0.0
H98 H 0.21355 0.01355 0.48398 0.0
H99 H 0.27922 0.06832 0.51329 0.0
H100 H 0.18268 0.94015 0.43393 0.0
H101 H 0.16892 0.86776 0.43453 0.0
C102 C 0.35266 0.30212 0.68622 0.0
C103 C 0.31432 0.24441 0.66518 0.0
C104 C 0.2279 0.24828 0.69574 0.0
C105 C 0.2663 0.3051 0.71799 0.0
N106 N 0.36297 0.39293 0.72202 0.0
N107 N 0.21714 0.16905 0.63677 0.0
C108 C 0.32797 0.3345 0.70856 0.0
C109 C 0.2523 0.21965 0.66561 0.0
N110 N 0.41217 0.3241 0.68909 0.0
N111 N 0.1684 0.22117 0.70494 0.0
H112 H 0.23438 0.14788 0.61379 0.0
H113 H 0.17195 0.1511 0.63152 0.0
H114 H 0.149 0.24239 0.72436 0.0
H115 H 0.13857 0.17704 0.69553 0.0
H116 H 0.4412 0.36237 0.71037 0.0
H117 H 0.43253 0.30204 0.67373 0.0
H118 H 0.40733 0.41846 0.71091 0.0
H119 H 0.34647 0.41748 0.74011 0.0
C120 C 0.92836 0.24193 0.87333 0.0
C121 C 0.91772 0.2841 0.89858 0.0
C122 C 0.01897 0.36329 0.87986 0.0
C123 C 0.0299 0.32114 0.85455 0.0
N124 N -0.00693 0.22435 0.81575 0.0
N125 N 0.94639 0.3858 0.91458 0.0
C126 C -0.01619 0.26157 0.84762 0.0
C127 C -0.0391 0.34521 0.89777 0.0
N128 N 0.88609 0.18306 0.87547 0.0
N129 N 0.06469 0.41935 0.8904 0.0
H130 H 0.90443 0.37379 0.92914 0.0
H131 H -0.02587 0.43136 0.90962 0.0
H132 H 0.1082 0.43474 0.87853 0.0
H133 H 0.0605 0.44949 0.91473 0.0
H134 H 0.89346 0.14934 0.86359 0.0
H135 H 0.84402 0.16757 0.89184 0.0
H136 H -0.04012 0.18186 0.80497 0.0
H137 H 0.03322 0.23799 0.79597 0.0
C138 C 0.54991 -0.01408 0.05366 0.0
C139 C 0.56589 0.94332 0.04148 0.0
C140 C 0.64114 0.01204 0.97699 0.0
C141 C 0.63368 0.05773 0.99836 0.0
N142 N 0.57843 0.08971 0.05197 0.0
N143 N 0.62295 0.91236 0.98892 0.0
C144 C 0.58627 0.04486 0.03427 0.0
C145 C 0.60934 0.95476 1.00112 0.0
N146 N 0.50035 0.96961 0.08423 0.0
N147 N 0.67941 0.02419 0.93438 0.0
H148 H 0.59943 0.86944 1.00478 0.0
H149 H 0.65886 0.92007 0.96484 0.0
H150 H 0.703 0.06621 0.91647 0.0
H151 H 0.68394 -0.0079 0.91377 0.0
H152 H 0.48346 -0.0029 0.09174 0.0
H153 H 0.47313 0.92624 0.0983 0.0
H154 H 0.54911 0.08499 0.08291 0.0
H155 H 0.60302 0.13277 0.03647 0.0
C156 C 0.69981 0.72242 0.19964 0.0
C157 C 0.66139 0.66047 0.20692 0.0
C158 C 0.59137 0.6628 0.1433 0.0
C159 C 0.62083 0.72508 0.14941 0.0
N160 N 0.71214 0.81561 0.1666 0.0
N161 N 0.56978 0.57056 0.18534 0.0
C162 C 0.67846 0.75543 0.172 0.0
C163 C 0.60739 0.63001 0.17783 0.0
N164 N 0.7565 0.74894 0.21856 0.0
N165 N 0.55022 0.63534 0.1033 0.0
H166 H 0.57922 0.54463 0.21078 0.0
H167 H 0.52705 0.54798 0.16966 0.0
H168 H 0.54352 0.65901 0.0728 0.0
H169 H 0.53003 0.59015 0.09524 0.0
H170 H 0.78815 0.79336 0.21252 0.0
H171 H 0.77344 0.7252 0.23754 0.0
H172 H 0.75189 0.84214 0.18669 0.0
H173 H 0.69981 0.83908 0.14073 0.0
C174 C -0.01724 0.68295 0.3585 0.0
C175 C -0.01562 0.64561 0.39964 0.0
C176 C 0.87818 0.57689 0.39093 0.0
C177 C 0.87625 0.61467 0.3505 0.0
N178 N 0.92635 0.69542 0.28672 0.0
N179 N 0.93861 0.55097 0.44527 0.0
C180 C 0.92864 0.66503 0.33115 0.0
C181 C 0.93354 0.59045 0.41261 0.0
N182 N 0.03203 0.73679 0.3478 0.0
N183 N 0.82681 0.52963 0.41037 0.0
H184 H -0.02109 0.5598 0.46147 0.0
H185 H 0.90437 0.5077 0.45227 0.0
H186 H 0.78544 0.51736 0.39448 0.0
H187 H 0.8246 0.50465 0.44436 0.0
H188 H 0.03207 0.76901 0.32295 0.0
H189 H 0.07269 0.75081 0.36628 0.0
H190 H -0.03639 0.72933 0.26727 0.0
H191 H 0.88698 0.6833 0.26642 0.0
C192 C 0.57943 0.34167 0.46042 0.0
C193 C 0.52652 0.33579 0.48167 0.0
C194 C 0.53383 0.41115 0.41727 0.0
C195 C 0.58942 0.42079 0.39947 0.0
N196 N 0.66727 0.39809 0.40455 0.0
N197 N 0.44679 0.35518 0.47499 0.0
C198 C 0.61222 0.3859 0.42024 0.0
C199 C 0.50181 0.36787 0.45854 0.0
N200 N 0.59837 0.30498 0.47883 0.0
N201 N 0.51262 0.44447 0.3951 0.0
H202 H 0.42171 0.32266 0.50406 0.0
H203 H 0.42396 0.37403 0.45834 0.0
H204 H 0.53323 0.47343 0.36228 0.0
H205 H 0.47534 0.44455 0.40892 0.0
H206 H 0.63216 0.30152 0.46054 0.0
H207 H 0.578 0.27484 0.51081 0.0
H208 H 0.69022 0.38043 0.42338 0.0
H209 H 0.69217 0.42865 0.37413 0.0
C210 C 0.11226 0.54384 0.61415 0.0
C211 C 0.16059 0.59846 0.59564 0.0
C212 C 0.22709 0.58693 0.65759 0.0
C213 C 0.17744 0.5363 0.68083 0.0
N214 N 0.07248 0.46614 0.68299 0.0
N215 N 0.26325 0.67515 0.60132 0.0
C216 C 0.11989 0.51451 0.65949 0.0
C217 C 0.21807 0.62053 0.61719 0.0
N218 N 0.05954 0.51938 0.58715 0.0
N219 N 0.28278 0.60304 0.67441 0.0
H220 H 0.25869 0.7007 0.57125 0.0
H221 H 0.30435 0.69706 0.6202 0.0
H222 H 0.29098 0.58133 0.70582 0.0
H223 H 0.32108 0.63531 0.65491 0.0
H224 H 0.02398 0.47701 0.59491 0.0
H225 H 0.05296 0.53959 0.55334 0.0
H226 H 0.02874 0.45242 0.67404 0.0
H227 H 0.07657 0.44095 0.71378 0.0
C228 C 0.59976 0.17866 0.78557 0.0
C229 C 0.61709 0.23035 0.81711 0.0
C230 C 0.56132 0.25859 0.75712 0.0
C231 C 0.54276 0.20609 0.72662 0.0
N232 N 0.55522 0.12477 0.70179 0.0
N233 N 0.62675 0.32609 0.82661 0.0
C234 C 0.5659 0.16907 0.73756 0.0
C235 C 0.6019 0.27258 0.80071 0.0
N236 N 0.61269 0.13714 0.80321 0.0
N237 N 0.53772 0.29327 0.74617 0.0
H238 H 0.65636 0.33724 0.8589 0.0
H239 H 0.62199 0.36112 0.81347 0.0
H240 H 0.50987 0.28562 0.71309 0.0
H241 H 0.54346 0.32793 0.77102 0.0
H242 H 0.59548 0.09552 0.78554 0.0
H243 H 0.63765 0.14249 0.83804 0.0
H244 H 0.57504 0.09929 0.70445 0.0
H245 H 0.53056 0.11728 0.66623 0.0
C246 C 0.37194 0.55905 0.91685 0.0
C247 C 0.31073 0.51947 0.92567 0.0
C248 C 0.31595 0.56466 1.01466 0.0
C249 C 0.37686 0.60534 1.00534 0.0
N250 N 0.46191 0.64773 0.94546 0.0
N251 N 0.22154 0.49161 0.9764 0.0
C252 C 0.4045 0.60476 0.95555 0.0
C253 C 0.28187 0.52429 0.97276 0.0
N254 N 0.39932 0.55109 0.87288 0.0
N255 N 0.29085 0.56416 0.06388 0.0
H256 H 0.19504 0.46195 0.9462 0.0
H257 H 0.1972 0.4974 1.00676 0.0
H258 H 0.31336 0.59534 0.09442 0.0
H259 H 0.24877 0.53091 0.07589 0.0
H260 H 0.4449 0.57389 0.86719 0.0
H261 H 0.37656 0.51867 0.84336 0.0
H262 H 0.48269 0.65386 0.90773 0.0
H263 H 0.48815 0.67999 0.97397 0.0
C264 C 0.68577 0.33256 0.09575 0.0
C265 C 0.74334 0.34972 0.07674 0.0
C266 C 0.78714 0.43268 0.14096 0.0
C267 C 0.72964 0.41532 0.16029 0.0
N268 N 0.62389 0.35748 0.1494 0.0
N269 N 0.84698 0.42263 0.07095 0.0
C270 C 0.67878 0.36828 0.13518 0.0
C271 C 0.79352 0.40196 0.09623 0.0
N272 N 0.63827 0.28027 0.07873 0.0
N273 N 0.8356 0.4779 0.16603 0.0
H274 H 0.85257 0.40134 0.03748 0.0
H275 H 0.88446 0.46329 0.07961 0.0
H276 H 0.83269 0.50386 0.19669 0.0
H277 H 0.87868 0.48802 0.15849 0.0
H278 H 0.59631 0.26153 0.09607 0.0
H279 H 0.64135 0.25331 0.0493 0.0
H280 H 0.58555 0.3282 0.12845 0.0
H281 H 0.61693 0.38104 0.17983 0.0
C282 C 0.33208 0.68767 0.33767 0.0
C283 C 0.29984 0.71734 0.33979 0.0
C284 C 0.34055 0.76343 0.25059 0.0
C285 C 0.37892 0.74065 0.2525 0.0
N286 N 0.41328 0.68208 0.29711 0.0
N287 N 0.27742 0.78847 0.30151 0.0
C288 C 0.37496 0.70262 0.29568 0.0
C289 C 0.30437 0.7559 0.29671 0.0
N290 N 0.32057 0.64427 0.37511 0.0
N291 N 0.33922 0.79276 0.20488 0.0
H292 H 0.2514 0.7854 0.33498 0.0
H293 H 0.2847 0.82229 0.27454 0.0
H294 H 0.36627 0.80021 0.17093 0.0
H295 H 0.30791 0.80509 0.19859 0.0
H296 H 0.33833 0.61691 0.37288 0.0
H297 H 0.28909 0.6321 0.40614 0.0
H298 H 0.4178 0.66028 0.33064 0.0
H299 H 0.44287 0.68935 0.26538 0.0
loop_
_geom_bond_atom_site_label_1
_geom_bond_atom_site_label_2
_geom_bond_distance
_geom_bond_site_symmetry_2
_ccdc_geom_bond_type
Zn0 O3 2.031 . S
Zn0 O5 2.049 . S
Zn0 O10 2.067 . S
Zn1 O2 1.962 . S
Zn1 O4 1.986 . S
Zn1 O6 1.996 . S
Zn1 O9 1.943 . S
O2 Zn1 1.962 . S
O2 C7 1.254 . S
O3 Zn0 2.031 . S
O3 C7 1.269 . S
O4 Zn1 1.986 . S
O4 C11 1.262 . S
O5 Zn0 2.049 . S
O5 C13 1.260 . S
O6 Zn1 1.996 . S
O6 C13 1.257 . S
C7 O2 1.254 . S
C7 O3 1.269 . S
C8 O9 1.249 . S
C8 O10 1.270 . S
O9 Zn1 1.943 . S
O9 C8 1.249 . S
O10 Zn0 2.067 . S
O10 C8 1.270 . S
C11 O4 1.262 . S
C11 O12 1.232 . S
O12 C11 1.232 . S
C13 O5 1.260 . S
C13 O6 1.257 . S
Zn14 O17 2.031 . S
Zn14 O19 2.049 . S
Zn14 O24 2.067 . S
Zn15 O16 1.962 . S
Zn15 O18 1.986 . S
Zn15 O20 1.996 . S
Zn15 O23 1.943 . S
O16 Zn15 1.962 . S
O16 C21 1.254 . S
O17 Zn14 2.031 . S
O17 C21 1.269 . S
O18 Zn15 1.986 . S
O18 C25 1.262 . S
O19 Zn14 2.049 . S
O19 C27 1.260 . S
O20 Zn15 1.996 . S
O20 C27 1.257 . S
C21 O16 1.254 . S
C21 O17 1.269 . S
C22 O23 1.249 . S
C22 O24 1.270 . S
O23 Zn15 1.943 . S
O23 C22 1.249 . S
O24 Zn14 2.067 . S
O24 C22 1.270 . S
C25 O18 1.262 . S
C25 O26 1.232 . S
O26 C25 1.232 . S
C27 O19 1.260 . S
C27 O20 1.257 . S
Zn28 O31 2.031 . S
Zn28 O33 2.049 . S
Zn28 O38 2.067 1_556 S
Zn29 O30 1.962 . S
Zn29 O32 1.986 . S
Zn29 O34 1.996 . S
Zn29 O37 1.943 . S
O30 Zn29 1.962 . S
O30 C35 1.254 . S
O31 Zn28 2.031 . S
O31 C35 1.269 . S
O32 Zn29 1.986 . S
O32 C39 1.262 . S
O33 Zn28 2.049 . S
O33 C41 1.260 . S
O34 Zn29 1.996 . S
O34 C41 1.257 . S
C35 O30 1.254 . S
C35 O31 1.269 . S
C36 O37 1.249 . S
C36 O38 1.270 1_556 S
O37 Zn29 1.943 . S
O37 C36 1.249 . S
O38 Zn28 2.067 1_554 S
O38 C36 1.270 1_554 S
C39 O32 1.262 . S
C39 O40 1.232 . S
O40 C39 1.232 . S
C41 O33 1.260 . S
C41 O34 1.257 . S
Zn42 O45 2.031 . S
Zn42 O47 2.049 . S
Zn42 O52 2.067 . S
Zn43 O44 1.962 . S
Zn43 O46 1.986 1_554 S
Zn43 O48 1.996 . S
Zn43 O51 1.943 . S
O44 Zn43 1.962 . S
O44 C49 1.254 . S
O45 Zn42 2.031 . S
O45 C49 1.269 . S
O46 Zn43 1.986 1_556 S
O46 C53 1.263 . S
O47 Zn42 2.049 . S
O47 C55 1.260 . S
O48 Zn43 1.996 . S
O48 C55 1.257 . S
C49 O44 1.254 . S
C49 O45 1.269 . S
C50 O51 1.249 . S
C50 O52 1.270 . S
O51 Zn43 1.943 . S
O51 C50 1.249 . S
O52 Zn42 2.067 . S
O52 C50 1.270 . S
C53 O46 1.263 . S
C53 O54 1.223 1_556 S
O54 C53 1.223 1_554 S
C55 O47 1.260 . S
C55 O48 1.257 . S
Zn56 O59 2.031 . S
Zn56 O61 2.049 . S
Zn56 O66 2.067 . S
Zn57 O58 1.962 . S
Zn57 O60 1.986 . S
Zn57 O62 1.996 . S
Zn57 O65 1.943 . S
O58 Zn57 1.962 . S
O58 C63 1.254 . S
O59 Zn56 2.031 . S
O59 C63 1.269 . S
O60 Zn57 1.986 . S
O60 C67 1.262 . S
O61 Zn56 2.049 . S
O61 C69 1.260 . S
O62 Zn57 1.996 . S
O62 C69 1.257 . S
C63 O58 1.254 . S
C63 O59 1.269 . S
C64 O65 1.249 . S
C64 O66 1.270 . S
O65 Zn57 1.943 . S
O65 C64 1.249 . S
O66 Zn56 2.067 . S
O66 C64 1.270 . S
C67 O60 1.262 . S
C67 O68 1.232 . S
O68 C67 1.232 . S
C69 O61 1.260 . S
C69 O62 1.257 . S
Zn70 O73 2.031 . S
Zn70 O75 2.049 . S
Zn70 O80 2.067 . S
Zn71 O72 1.962 . S
Zn71 O74 1.986 . S
Zn71 O76 1.996 . S
Zn71 O79 1.943 . S
O72 Zn71 1.962 . S
O72 C77 1.254 . S
O73 Zn70 2.031 . S
O73 C77 1.269 . S
O74 Zn71 1.986 . S
O74 C81 1.262 . S
O75 Zn70 2.049 . S
O75 C83 1.260 . S
O76 Zn71 1.996 . S
O76 C83 1.257 . S
C77 O72 1.254 . S
C77 O73 1.269 . S
C78 O79 1.249 . S
C78 O80 1.270 . S
O79 Zn71 1.943 . S
O79 C78 1.249 . S
O80 Zn70 2.067 . S
O80 C78 1.270 . S
C81 O74 1.262 . S
C81 O82 1.232 . S
O82 C81 1.232 . S
C83 O75 1.260 . S
C83 O76 1.257 . S
C84 C85 1.363 . S
C84 C90 1.379 1_545 S
C84 N92 1.356 . S
C85 C84 1.363 . S
C85 C91 1.363 . S
C86 C87 1.363 . S
C86 C91 1.379 1_565 S
C86 N93 1.356 . S
C87 C86 1.363 . S
C87 C90 1.363 . S
N88 C90 1.356 . S
N88 H100 0.984 . S
N88 H101 0.985 . S
N89 C91 1.356 . S
N89 H94 0.984 . S
N89 H95 0.985 . S
C90 C84 1.379 1_565 S
C90 C87 1.363 . S
C90 N88 1.356 . S
C91 C85 1.363 . S
C91 C86 1.379 1_545 S
C91 N89 1.356 . S
N92 C84 1.356 . S
N92 H98 0.984 . S
N92 H99 0.984 . S
N93 C86 1.356 . S
N93 H96 0.984 . S
N93 H97 0.985 . S
H94 N89 0.984 . S
H95 N89 0.985 . S
H96 N93 0.984 . S
H97 N93 0.985 . S
H98 N92 0.984 . S
H99 N92 0.984 . S
H100 N88 0.984 . S
H101 N88 0.985 . S
C102 C103 1.363 . S
C102 C108 1.379 . S
C102 N110 1.356 . S
C103 C102 1.363 . S
C103 C109 1.363 . S
C104 C105 1.363 . S
C104 C109 1.379 . S
C104 N111 1.356 . S
C105 C104 1.363 . S
C105 C108 1.363 . S
N106 C108 1.356 . S
N106 H118 0.984 . S
N106 H119 0.985 . S
N107 C109 1.356 . S
N107 H112 0.984 . S
N107 H113 0.985 . S
C108 C102 1.379 . S
C108 C105 1.363 . S
C108 N106 1.356 . S
C109 C103 1.363 . S
C109 C104 1.379 . S
C109 N107 1.356 . S
N110 C102 1.356 . S
N110 H116 0.984 . S
N110 H117 0.984 . S
N111 C104 1.356 . S
N111 H114 0.984 . S
N111 H115 0.985 . S
H112 N107 0.984 . S
H113 N107 0.985 . S
H114 N111 0.984 . S
H115 N111 0.985 . S
H116 N110 0.984 . S
H117 N110 0.984 . S
H118 N106 0.984 . S
H119 N106 0.985 . S
C120 C121 1.363 . S
C120 C126 1.379 1_655 S
C120 N128 1.356 . S
C121 C120 1.363 . S
C121 C127 1.363 . S
C122 C123 1.363 . S
C122 C127 1.379 1_455 S
C122 N129 1.356 . S
C123 C122 1.363 . S
C123 C126 1.363 . S
N124 C126 1.356 . S
N124 H136 0.984 . S
N124 H137 0.985 . S
N125 C127 1.356 . S
N125 H130 0.984 . S
N125 H131 0.985 . S
C126 C120 1.379 1_455 S
C126 C123 1.363 . S
C126 N124 1.356 . S
C127 C121 1.363 . S
C127 C122 1.379 1_655 S
C127 N125 1.356 . S
N128 C120 1.356 . S
N128 H134 0.984 . S
N128 H135 0.984 . S
N129 C122 1.356 . S
N129 H132 0.984 . S
N129 H133 0.985 . S
H130 N125 0.984 . S
H131 N125 0.985 . S
H132 N129 0.984 . S
H133 N129 0.985 . S
H134 N128 0.984 . S
H135 N128 0.984 . S
H136 N124 0.984 . S
H137 N124 0.985 . S
C138 C139 1.363 . S
C138 C144 1.379 1_565 S
C138 N146 1.356 . S
C139 C138 1.363 . S
C139 C145 1.363 1_554 S
C140 C141 1.363 . S
C140 C145 1.379 1_545 S
C140 N147 1.356 . S
C141 C140 1.363 . S
C141 C144 1.363 1_556 S
N142 C144 1.356 . S
N142 H154 0.984 . S
N142 H155 0.985 . S
N143 C145 1.356 . S
N143 H148 0.984 . S
N143 H149 0.985 . S
C144 C138 1.379 1_545 S
C144 C141 1.363 1_554 S
C144 N142 1.356 . S
C145 C139 1.363 1_556 S
C145 C140 1.379 1_565 S
C145 N143 1.356 . S
N146 C138 1.356 . S
N146 H152 0.984 . S
N146 H153 0.984 . S
N147 C140 1.356 . S
N147 H150 0.984 . S
N147 H151 0.985 . S
H148 N143 0.984 . S
H149 N143 0.985 . S
H150 N147 0.984 . S
H151 N147 0.985 . S
H152 N146 0.984 . S
H153 N146 0.984 . S
H154 N142 0.984 . S
H155 N142 0.985 . S
C156 C157 1.363 . S
C156 C162 1.379 . S
C156 N164 1.356 . S
C157 C156 1.363 . S
C157 C163 1.363 . S
C158 C159 1.363 . S
C158 C163 1.379 . S
C158 N165 1.356 . S
C159 C158 1.363 . S
C159 C162 1.363 . S
N160 C162 1.356 . S
N160 H172 0.984 . S
N160 H173 0.985 . S
N161 C163 1.356 . S
N161 H166 0.984 . S
N161 H167 0.985 . S
C162 C156 1.379 . S
C162 C159 1.363 . S
C162 N160 1.356 . S
C163 C157 1.363 . S
C163 C158 1.379 . S
C163 N161 1.356 . S
N164 C156 1.356 . S
N164 H170 0.984 . S
N164 H171 0.984 . S
N165 C158 1.356 . S
N165 H168 0.984 . S
N165 H169 0.985 . S
H166 N161 0.984 . S
H167 N161 0.985 . S
H168 N165 0.984 . S
H169 N165 0.985 . S
H170 N164 0.984 . S
H171 N164 0.984 . S
H172 N160 0.984 . S
H173 N160 0.985 . S
C174 C175 1.363 . S
C174 C180 1.379 1_455 S
C174 N182 1.356 . S
C175 C174 1.363 . S
C175 C181 1.363 . S
C176 C177 1.363 . S
C176 C181 1.379 1_655 S
C176 N183 1.356 . S
C177 C176 1.363 . S
C177 C180 1.363 . S
N178 C180 1.356 . S
N178 H190 0.984 . S
N178 H191 0.985 . S
N179 C181 1.356 . S
N179 H184 0.984 . S
N179 H185 0.986 1_455 S
C180 C174 1.379 1_655 S
C180 C177 1.363 . S
C180 N178 1.356 . S
C181 C175 1.363 . S
C181 C176 1.379 1_455 S
C181 N179 1.356 . S
N182 C174 1.356 . S
N182 H188 0.984 . S
N182 H189 0.984 . S
N183 C176 1.356 . S
N183 H186 0.984 . S
N183 H187 0.985 . S
H184 N179 0.984 . S
H185 N179 0.986 1_655 S
H186 N183 0.984 . S
H187 N183 0.985 . S
H188 N182 0.984 . S
H189 N182 0.984 . S
H190 N178 0.984 . S
H191 N178 0.985 . S
C192 C193 1.363 . S
C192 C198 1.379 . S
C192 N200 1.356 . S
C193 C192 1.363 . S
C193 C199 1.363 . S
C194 C195 1.363 . S
C194 C199 1.379 . S
C194 N201 1.356 . S
C195 C194 1.363 . S
C195 C198 1.363 . S
N196 C198 1.356 . S
N196 H208 0.984 . S
N196 H209 0.985 . S
N197 C199 1.356 . S
N197 H202 0.984 . S
N197 H203 0.985 . S
C198 C192 1.379 . S
C198 C195 1.363 . S
C198 N196 1.356 . S
C199 C193 1.363 . S
C199 C194 1.379 . S
C199 N197 1.356 . S
N200 C192 1.356 . S
N200 H206 0.984 . S
N200 H207 0.984 . S
N201 C194 1.356 . S
N201 H204 0.984 . S
N201 H205 0.985 . S
H202 N197 0.984 . S
H203 N197 0.985 . S
H204 N201 0.984 . S
H205 N201 0.985 . S
H206 N200 0.984 . S
H207 N200 0.984 . S
H208 N196 0.984 . S
H209 N196 0.985 . S
C210 C211 1.363 . S
C210 C216 1.379 . S
C210 N218 1.356 . S
C211 C210 1.363 . S
C211 C217 1.363 . S
C212 C213 1.363 . S
C212 C217 1.379 . S
C212 N219 1.356 . S
C213 C212 1.363 . S
C213 C216 1.363 . S
N214 C216 1.356 . S
N214 H226 0.984 . S
N214 H227 0.985 . S
N215 C217 1.356 . S
N215 H220 0.984 . S
N215 H221 0.985 . S
C216 C210 1.379 . S
C216 C213 1.363 . S
C216 N214 1.356 . S
C217 C211 1.363 . S
C217 C212 1.379 . S
C217 N215 1.356 . S
N218 C210 1.356 . S
N218 H224 0.984 . S
N218 H225 0.984 . S
N219 C212 1.356 . S
N219 H222 0.984 . S
N219 H223 0.985 . S
H220 N215 0.984 . S
H221 N215 0.985 . S
H222 N219 0.984 . S
H223 N219 0.985 . S
H224 N218 0.984 . S
H225 N218 0.984 . S
H226 N214 0.984 . S
H227 N214 0.985 . S
C228 C229 1.363 . S
C228 C234 1.379 . S
C228 N236 1.356 . S
C229 C228 1.363 . S
C229 C235 1.363 . S
C230 C231 1.363 . S
C230 C235 1.379 . S
C230 N237 1.356 . S
C231 C230 1.363 . S
C231 C234 1.363 . S
N232 C234 1.356 . S
N232 H244 0.984 . S
N232 H245 0.985 . S
N233 C235 1.356 . S
N233 H238 0.984 . S
N233 H239 0.985 . S
C234 C228 1.379 . S
C234 C231 1.363 . S
C234 N232 1.356 . S
C235 C229 1.363 . S
C235 C230 1.379 . S
C235 N233 1.356 . S
N236 C228 1.356 . S
N236 H242 0.984 . S
N236 H243 0.984 . S
N237 C230 1.356 . S
N237 H240 0.984 . S
N237 H241 0.985 . S
H238 N233 0.984 . S
H239 N233 0.985 . S
H240 N237 0.984 . S
H241 N237 0.985 . S
H242 N236 0.984 . S
H243 N236 0.984 . S
H244 N232 0.984 . S
H245 N232 0.985 . S
C246 C247 1.363 . S
C246 C252 1.379 . S
C246 N254 1.356 . S
C247 C246 1.363 . S
C247 C253 1.363 . S
C248 C249 1.363 . S
C248 C253 1.379 . S
C248 N255 1.356 1_556 S
C249 C248 1.363 . S
C249 C252 1.363 . S
N250 C252 1.356 . S
N250 H262 0.984 . S
N250 H263 0.985 . S
N251 C253 1.356 . S
N251 H256 0.984 . S
N251 H257 0.985 . S
C252 C246 1.379 . S
C252 C249 1.363 . S
C252 N250 1.356 . S
C253 C247 1.363 . S
C253 C248 1.379 . S
C253 N251 1.356 . S
N254 C246 1.356 . S
N254 H260 0.984 . S
N254 H261 0.984 . S
N255 C248 1.356 1_554 S
N255 H258 0.984 . S
N255 H259 0.985 . S
H256 N251 0.984 . S
H257 N251 0.985 . S
H258 N255 0.984 . S
H259 N255 0.985 . S
H260 N254 0.984 . S
H261 N254 0.984 . S
H262 N250 0.984 . S
H263 N250 0.985 . S
C264 C265 1.363 . S
C264 C270 1.379 . S
C264 N272 1.356 . S
C265 C264 1.363 . S
C265 C271 1.363 . S
C266 C267 1.363 . S
C266 C271 1.379 . S
C266 N273 1.356 . S
C267 C266 1.363 . S
C267 C270 1.363 . S
N268 C270 1.356 . S
N268 H280 0.984 . S
N268 H281 0.985 . S
N269 C271 1.356 . S
N269 H274 0.984 1_554 S
N269 H275 0.985 . S
C270 C264 1.379 . S
C270 C267 1.363 . S
C270 N268 1.356 . S
C271 C265 1.363 . S
C271 C266 1.379 . S
C271 N269 1.356 . S
N272 C264 1.356 . S
N272 H278 0.984 . S
N272 H279 0.984 . S
N273 C266 1.356 . S
N273 H276 0.984 . S
N273 H277 0.985 . S
H274 N269 0.984 1_556 S
H275 N269 0.985 . S
H276 N273 0.984 . S
H277 N273 0.985 . S
H278 N272 0.984 . S
H279 N272 0.984 . S
H280 N268 0.984 . S
H281 N268 0.985 . S
C282 C283 1.363 . S
C282 C288 1.379 . S
C282 N290 1.356 . S
C283 C282 1.363 . S
C283 C289 1.363 . S
C284 C285 1.363 . S
C284 C289 1.379 . S
C284 N291 1.356 . S
C285 C284 1.363 . S
C285 C288 1.363 . S
N286 C288 1.356 . S
N286 H298 0.984 . S
N286 H299 0.985 . S
N287 C289 1.356 . S
N287 H292 0.984 . S
N287 H293 0.985 . S
C288 C282 1.379 . S
C288 C285 1.363 . S
C288 N286 1.356 . S
C289 C283 1.363 . S
C289 C284 1.379 . S
C289 N287 1.356 . S
N290 C282 1.356 . S
N290 H296 0.984 . S
N290 H297 0.984 . S
N291 C284 1.356 . S
N291 H294 0.984 . S
N291 H295 0.985 . S
H292 N287 0.984 . S
H293 N287 0.985 . S
H294 N291 0.984 . S
H295 N291 0.985 . S
H296 N290 0.984 . S
H297 N290 0.984 . S
H298 N286 0.984 . S
H299 N286 0.985 . S
C85 C13 1.387 . S
C87 C77 1.449 . S
C103 C7 1.448 . S
C105 C27 1.387 . S
C121 C41 1.387 . S
C123 C21 1.449 . S
C139 C55 1.387 . S
C141 C35 1.449 . S
C157 C69 1.387 . S
C159 C49 1.449 . S
C175 C83 1.387 . S
C177 C63 1.449 . S
C193 C11 1.520 . S
C195 C64 1.494 . S
C211 C78 1.494 . S
C213 C25 1.520 . S
C229 C39 1.520 . S
C231 C8 1.494 . S
C247 C22 1.494 . S
C249 C53 1.529 . S
C265 C36 1.494 1_554 S
C267 C67 1.520 . S
C283 C81 1.520 . S
C285 C50 1.494 . S
