# Generated by pormake.
# Topology vbk, (5)-cn, num edge types: 1
# Building blocks:
#     Node 0, Type 0, BuildingBlock: XOMCOT_clean_sbu_1, # of connection points: 5
#     Node 1, Type 0, BuildingBlock: XOMCOT_clean_sbu_1, # of connection points: 5
#     Node 2, Type 0, BuildingBlock: XOMCOT_clean_sbu_1, # of connection points: 5
#     Node 3, Type 0, BuildingBlock: XOMCOT_clean_sbu_1, # of connection points: 5
#     Node 4, Type 0, BuildingBlock: XOMCOT_clean_sbu_1, # of connection points: 5
#     Node 5, Type 0, BuildingBlock: XOMCOT_clean_sbu_1, # of connection points: 5
#     Node 6, Type 0, BuildingBlock: XOMCOT_clean_sbu_1, # of connection points: 5
#     Node 7, Type 0, BuildingBlock: XOMCOT_clean_sbu_1, # of connection points: 5
#     Node 8, Type 0, BuildingBlock: XOMCOT_clean_sbu_1, # of connection points: 5
#     Node 9, Type 0, BuildingBlock: XOMCOT_clean_sbu_1, # of connection points: 5
#     Node 10, Type 0, BuildingBlock: XOMCOT_clean_sbu_1, # of connection points: 5
#     Node 11, Type 0, BuildingBlock: XOMCOT_clean_sbu_1, # of connection points: 5
#     Node 12, Type 0, BuildingBlock: XOMCOT_clean_sbu_1, # of connection points: 5
#     Node 13, Type 0, BuildingBlock: XOMCOT_clean_sbu_1, # of connection points: 5
#     Node 14, Type 0, BuildingBlock: XOMCOT_clean_sbu_1, # of connection points: 5
#     Node 15, Type 0, BuildingBlock: XOMCOT_clean_sbu_1, # of connection points: 5
#     Edge 16, Type (0, 0), BuildingBlock: CIFDUS_clean_linker_0, # of connection points: 2
#     Edge 17, Type (0, 0), BuildingBlock: CIFDUS_clean_linker_0, # of connection points: 2
#     Edge 18, Type (0, 0), BuildingBlock: CIFDUS_clean_linker_0, # of connection points: 2
#     Edge 19, Type (0, 0), BuildingBlock: CIFDUS_clean_linker_0, # of connection points: 2
#     Edge 20, Type (0, 0), BuildingBlock: CIFDUS_clean_linker_0, # of connection points: 2
#     Edge 21, Type (0, 0), BuildingBlock: CIFDUS_clean_linker_0, # of connection points: 2
#     Edge 22, Type (0, 0), BuildingBlock: CIFDUS_clean_linker_0, # of connection points: 2
#     Edge 23, Type (0, 0), BuildingBlock: CIFDUS_clean_linker_0, # of connection points: 2
#     Edge 24, Type (0, 0), BuildingBlock: CIFDUS_clean_linker_0, # of connection points: 2
#     Edge 25, Type (0, 0), BuildingBlock: CIFDUS_clean_linker_0, # of connection points: 2
#     Edge 26, Type (0, 0), BuildingBlock: CIFDUS_clean_linker_0, # of connection points: 2
#     Edge 27, Type (0, 0), BuildingBlock: CIFDUS_clean_linker_0, # of connection points: 2
#     Edge 28, Type (0, 0), BuildingBlock: CIFDUS_clean_linker_0, # of connection points: 2
#     Edge 29, Type (0, 0), BuildingBlock: CIFDUS_clean_linker_0, # of connection points: 2
#     Edge 30, Type (0, 0), BuildingBlock: CIFDUS_clean_linker_0, # of connection points: 2
#     Edge 31, Type (0, 0), BuildingBlock: CIFDUS_clean_linker_0, # of connection points: 2
#     Edge 32, Type (0, 0), BuildingBlock: CIFDUS_clean_linker_0, # of connection points: 2
#     Edge 33, Type (0, 0), BuildingBlock: CIFDUS_clean_linker_0, # of connection points: 2
#     Edge 34, Type (0, 0), BuildingBlock: CIFDUS_clean_linker_0, # of connection points: 2
#     Edge 35, Type (0, 0), BuildingBlock: CIFDUS_clean_linker_0, # of connection points: 2
#     Edge 36, Type (0, 0), BuildingBlock: CIFDUS_clean_linker_0, # of connection points: 2
#     Edge 37, Type (0, 0), BuildingBlock: CIFDUS_clean_linker_0, # of connection points: 2
#     Edge 38, Type (0, 0), BuildingBlock: CIFDUS_clean_linker_0, # of connection points: 2
#     Edge 39, Type (0, 0), BuildingBlock: CIFDUS_clean_linker_0, # of connection points: 2
#     Edge 40, Type (0, 0), BuildingBlock: CIFDUS_clean_linker_0, # of connection points: 2
#     Edge 41, Type (0, 0), BuildingBlock: CIFDUS_clean_linker_0, # of connection points: 2
#     Edge 42, Type (0, 0), BuildingBlock: CIFDUS_clean_linker_0, # of connection points: 2
#     Edge 43, Type (0, 0), BuildingBlock: CIFDUS_clean_linker_0, # of connection points: 2
#     Edge 44, Type (0, 0), BuildingBlock: CIFDUS_clean_linker_0, # of connection points: 2
#     Edge 45, Type (0, 0), BuildingBlock: CIFDUS_clean_linker_0, # of connection points: 2
#     Edge 46, Type (0, 0), BuildingBlock: CIFDUS_clean_linker_0, # of connection points: 2
#     Edge 47, Type (0, 0), BuildingBlock: CIFDUS_clean_linker_0, # of connection points: 2
#     Edge 48, Type (0, 0), BuildingBlock: CIFDUS_clean_linker_0, # of connection points: 2
#     Edge 49, Type (0, 0), BuildingBlock: CIFDUS_clean_linker_0, # of connection points: 2
#     Edge 50, Type (0, 0), BuildingBlock: CIFDUS_clean_linker_0, # of connection points: 2
#     Edge 51, Type (0, 0), BuildingBlock: CIFDUS_clean_linker_0, # of connection points: 2
#     Edge 52, Type (0, 0), BuildingBlock: CIFDUS_clean_linker_0, # of connection points: 2
#     Edge 53, Type (0, 0), BuildingBlock: CIFDUS_clean_linker_0, # of connection points: 2
#     Edge 54, Type (0, 0), BuildingBlock: CIFDUS_clean_linker_0, # of connection points: 2
#     Edge 55, Type (0, 0), BuildingBlock: CIFDUS_clean_linker_0, # of connection points: 2
# Relax obj value: 0.082
# Max RMSD: 0.146
# Mean RMSD: 0.146
data_MOF--net-vbk--node1-XOMCOT_clean_sbu_1--edge1-CIFDUS_clean_linker_0
_symmetry_space_group_name_H-M    P1
_symmetry_Int_Tables_number       1
_symmetry_cell_setting            triclinic
loop_
_symmetry_equiv_pos_as_xyz
'x, y, z'
_cell_length_a     60.103728
_cell_length_b     40.420984
_cell_length_c     24.58878
_cell_angle_alpha  90.092429
_cell_angle_beta   90.105582
_cell_angle_gamma 90.006927
loop_
_atom_site_label
_atom_site_type_symbol
_atom_site_fract_x
_atom_site_fract_y
_atom_site_fract_z
_atom_type_partial_charge
C0 C 0.11314 0.20937 0.14451 0.0
C1 C 0.09032 0.20757 0.14513 0.0
N2 N 0.08407 0.18095 0.11611 0.0
N3 N 0.12152 0.18379 0.11575 0.0
C4 C 0.10324 0.16691 0.09851 0.0
H5 H 0.12299 0.22853 0.16355 0.0
Co6 Co 0.15256 0.17735 0.10801 0.0
C7 C 0.15716 0.11459 0.04774 0.0
O8 O 0.17113 0.13003 0.0156 0.0
N9 N 0.18487 0.17113 0.10266 0.0
C10 C 0.22109 0.17646 0.08281 0.0
C11 C 0.19962 0.18115 0.06445 0.0
C12 C 0.19828 0.15916 0.14287 0.0
N13 N 0.22029 0.163 0.13277 0.0
O14 O 0.15385 0.16732 0.18391 0.0
H15 H 0.19541 0.19179 0.02557 0.0
H16 H 0.19207 0.14913 0.18053 0.0
O17 O 0.14806 0.13034 0.08727 0.0
C18 C 0.16081 0.19469 0.20373 0.0
O19 O 0.16603 0.21878 0.17023 0.0
N20 N 0.15033 0.19304 0.03641 0.0
C21 C 0.14202 0.23081 0.94301 0.0
C22 C 0.1326 0.19911 0.94943 0.0
C23 C 0.13693 0.18066 -0.00363 0.0
C24 C 0.15858 0.22434 0.03217 0.0
C25 C 0.15531 0.24313 0.9854 0.0
H26 H 0.12867 0.15718 0.0013 0.0
H27 H 0.16785 0.23491 0.06567 0.0
H28 H 0.10388 0.14483 0.07365 0.0
H29 H 0.07911 0.2252 0.16377 0.0
H30 H 0.23609 0.183 0.0611 0.0
H31 H 0.12142 0.18881 0.91932 0.0
H32 H 0.16322 0.26712 0.98296 0.0
C33 C 0.42722 0.81704 0.61282 0.0
C34 C 0.44941 0.81036 0.60629 0.0
N35 N 0.46039 0.83917 0.60051 0.0
N36 N 0.42391 0.85 0.61074 0.0
C37 C 0.44458 0.86302 0.6039 0.0
H38 H 0.41413 0.79889 0.61715 0.0
Co39 Co 0.39499 0.86822 0.61552 0.0
C40 C 0.4054 0.92531 0.53779 0.0
O41 O 0.39816 0.90921 0.49496 0.0
N42 N 0.36572 0.88657 0.62227 0.0
C43 C 0.33378 0.91196 0.60269 0.0
C44 C 0.35519 0.9061 0.58587 0.0
C45 C 0.35008 0.88104 0.66119 0.0
N46 N 0.33043 0.89604 0.65 0.0
O47 O 0.40192 0.88234 0.68769 0.0
H48 H 0.36206 0.91452 0.54796 0.0
H49 H 0.35262 0.86506 0.69581 0.0
O50 O 0.40522 0.91136 0.58475 0.0
C51 C 0.39767 0.85602 0.7144 0.0
O52 O 0.38878 0.83073 0.68866 0.0
N53 N 0.38759 0.84857 0.54753 0.0
C54 C 0.37899 0.80104 0.46738 0.0
C55 C 0.39871 0.81952 0.46641 0.0
C56 C 0.40277 0.84299 0.50705 0.0
C57 C 0.36837 0.83045 0.54867 0.0
C58 C 0.36353 0.80723 0.50846 0.0
H59 H 0.41868 0.85544 0.50738 0.0
H60 H 0.35726 0.8319 0.58296 0.0
H61 H 0.44786 0.8892 0.59938 0.0
H62 H 0.45692 0.78602 0.60495 0.0
H63 H 0.32151 0.92647 0.58104 0.0
H64 H 0.41111 0.81532 0.43525 0.0
H65 H 0.34836 0.79287 0.51133 0.0
C66 C 0.12008 0.8328 0.83164 0.0
C67 C 0.09722 0.83307 0.83127 0.0
N68 N 0.09028 0.86074 0.85645 0.0
N69 N 0.12776 0.86039 0.85635 0.0
C70 C 0.10907 0.8769 0.87146 0.0
H71 H 0.13043 0.81331 0.81539 0.0
Co72 Co 0.15845 0.87055 0.86313 0.0
C73 C 0.15183 0.92736 0.94412 0.0
O74 O 0.15664 0.90912 0.98657 0.0
N75 N 0.18978 0.88127 0.8688 0.0
C76 C 0.22313 0.89438 0.90295 0.0
C77 C 0.20088 0.8904 0.91429 0.0
C78 C 0.206 0.88008 0.83031 0.0
N79 N 0.22642 0.8878 0.84991 0.0
O80 O 0.15748 0.88858 0.79113 0.0
H81 H 0.1936 0.89285 0.95406 0.0
H82 H 0.20324 0.87275 0.78878 0.0
O83 O 0.1517 0.91453 0.89624 0.0
C84 C 0.16239 0.86271 0.76363 0.0
O85 O 0.16817 0.83572 0.78989 0.0
N86 N 0.15949 0.8467 0.92884 0.0
C87 C 0.16031 0.7959 0.00605 0.0
C88 C 0.14379 0.8205 0.00774 0.0
C89 C 0.14335 0.84526 0.9679 0.0
C90 C 0.17506 0.82218 0.92578 0.0
C91 C 0.17596 0.79699 0.96405 0.0
H92 H 0.12975 0.86272 0.96782 0.0
H93 H 0.18634 0.82103 0.89168 0.0
H94 H 0.10915 0.9001 0.89347 0.0
H95 H 0.08646 0.81379 0.81556 0.0
H96 H 0.23587 0.90143 0.93187 0.0
H97 H 0.13117 0.82047 0.03912 0.0
H98 H 0.18841 0.77783 0.95945 0.0
C99 C 0.42775 0.22069 0.3978 0.0
C100 C 0.45042 0.2238 0.40142 0.0
N101 N 0.45968 0.19397 0.39234 0.0
N102 N 0.42243 0.18887 0.38738 0.0
C103 C 0.44234 0.17317 0.38335 0.0
H104 H 0.41577 0.24047 0.40244 0.0
Co105 Co 0.39266 0.17431 0.37704 0.0
C106 C 0.397 0.11413 0.45012 0.0
O107 O 0.38467 0.12794 0.48787 0.0
N108 N 0.36261 0.16011 0.36338 0.0
C109 C 0.33053 0.1325 0.35834 0.0
C110 C 0.35065 0.13504 0.38475 0.0
C111 C 0.34901 0.17246 0.32401 0.0
N112 N 0.32935 0.15602 0.31964 0.0
O113 O 0.39999 0.16192 0.30435 0.0
H114 H 0.35605 0.11863 0.41646 0.0
H115 H 0.35362 0.19316 0.29875 0.0
O116 O 0.40073 0.12953 0.40533 0.0
C117 C 0.39959 0.18981 0.28011 0.0
O118 O 0.39453 0.21645 0.30817 0.0
N119 N 0.38502 0.19167 0.44639 0.0
C120 C 0.37973 0.23761 0.53061 0.0
C121 C 0.39717 0.21462 0.53188 0.0
C122 C 0.39955 0.19187 0.4894 0.0
C123 C 0.36755 0.21328 0.44576 0.0
C124 C 0.36438 0.23602 0.48782 0.0
H125 H 0.41404 0.17601 0.48915 0.0
H126 H 0.35692 0.21507 0.41049 0.0
H127 H 0.44409 0.14711 0.37412 0.0
H128 H 0.45947 0.24651 0.40905 0.0
H129 H 0.31809 0.11383 0.36643 0.0
H130 H 0.40932 0.21497 0.56446 0.0
H131 H 0.35087 0.25367 0.485 0.0
C132 C 0.93241 0.8302 0.93049 0.0
C133 C 0.95518 0.83184 0.92726 0.0
N134 N 0.96057 0.85715 0.89458 0.0
N135 N 0.92319 0.855 0.90121 0.0
C136 C 0.94097 0.87047 0.87841 0.0
H137 H 0.92328 0.81131 0.95201 0.0
Co138 Co 0.89196 0.86282 0.89218 0.0
C139 C 0.90747 0.92694 0.94801 0.0
O140 O 0.92714 0.9164 0.96363 0.0
N141 N 0.86098 0.87049 0.88323 0.0
C142 C 0.82631 0.88593 0.90268 0.0
C143 C 0.84803 0.88593 0.92025 0.0
C144 C 0.84659 0.86131 0.84332 0.0
N145 N 0.82539 0.87054 0.85418 0.0
O146 O 0.89707 0.87764 0.81952 0.0
H147 H 0.85396 0.89617 0.95828 0.0
H148 H 0.85134 0.84712 0.80807 0.0
O149 O 0.8944 0.90777 0.92153 0.0
C150 C 0.89851 0.85025 0.79393 0.0
O151 O 0.89671 0.82252 0.82137 0.0
N152 N 0.88623 0.84395 0.95988 0.0
C153 C 0.88262 0.79894 0.04461 0.0
C154 C 0.89273 0.82987 0.05317 0.0
C155 C 0.89416 0.85243 0.01006 0.0
C156 C 0.87558 0.81456 0.9519 0.0
C157 C 0.87335 0.79187 -0.00618 0.0
H158 H 0.90295 0.87533 0.01623 0.0
H159 H 0.86989 0.80786 0.91162 0.0
H160 H 0.9396 0.8911 0.8506 0.0
H161 H 0.96691 0.81489 0.94571 0.0
H162 H 0.81225 0.89669 0.92373 0.0
H163 H 0.89997 0.83608 0.09224 0.0
H164 H 0.86556 0.76819 0.98569 0.0
C165 C 0.62519 0.22476 0.4071 0.0
C166 C 0.60312 0.23189 0.41403 0.0
N167 N 0.59112 0.20457 0.40278 0.0
N168 N 0.62755 0.19281 0.39233 0.0
C169 C 0.60631 0.18141 0.38802 0.0
H170 H 0.63883 0.24182 0.41319 0.0
Co171 Co 0.65632 0.17477 0.38066 0.0
C172 C 0.63393 0.11314 0.43436 0.0
O173 O 0.61689 0.12702 0.4587 0.0
N174 N 0.68538 0.15746 0.36807 0.0
C175 C 0.71665 0.1284 0.37689 0.0
C176 C 0.69542 0.13304 0.39629 0.0
C177 C 0.70111 0.16751 0.33211 0.0
N178 N 0.72038 0.15018 0.33642 0.0
O179 O 0.64814 0.16448 0.30771 0.0
H180 H 0.688 0.11973 0.42976 0.0
H181 H 0.69878 0.18803 0.30472 0.0
O182 O 0.64757 0.1306 0.40657 0.0
C183 C 0.65206 0.19208 0.28453 0.0
O184 O 0.65967 0.2168 0.31397 0.0
N185 N 0.66523 0.18936 0.44974 0.0
C186 C 0.67219 0.23391 0.53451 0.0
C187 C 0.65656 0.20832 0.53972 0.0
C188 C 0.65344 0.18599 0.4968 0.0
C189 C 0.68138 0.21296 0.44564 0.0
C190 C 0.68534 0.23518 0.48779 0.0
H191 H 0.64012 0.16843 0.49968 0.0
H192 H 0.68986 0.21677 0.40748 0.0
H193 H 0.60206 0.15655 0.37541 0.0
H194 H 0.5964 0.25549 0.42685 0.0
H195 H 0.72837 0.11019 0.39168 0.0
H196 H 0.64616 0.20655 0.57554 0.0
H197 H 0.69741 0.25478 0.48206 0.0
C198 C 0.92615 0.21443 0.05464 0.0
C199 C 0.94891 0.21206 0.05668 0.0
N200 N 0.95427 0.18444 0.08405 0.0
N201 N 0.91693 0.18803 0.07961 0.0
C202 C 0.93462 0.17041 0.09823 0.0
H203 H 0.91686 0.23425 0.03584 0.0
Co204 Co 0.88567 0.181 0.08311 0.0
C205 C 0.88058 0.11142 0.04822 0.0
O206 O 0.8646 0.12177 0.01626 0.0
N207 N 0.85338 0.1748 0.08781 0.0
C208 C 0.81716 0.17256 0.06656 0.0
C209 C 0.83837 0.17388 0.04655 0.0
C210 C 0.8402 0.17386 0.13305 0.0
N211 N 0.81813 0.17289 0.1211 0.0
O212 O 0.88741 0.18273 0.16078 0.0
H213 H 0.8422 0.17407 0.0037 0.0
H214 H 0.8465 0.17505 0.17421 0.0
O215 O 0.89065 0.13228 0.07904 0.0
C216 C 0.88555 0.21419 0.16574 0.0
O217 O 0.88291 0.23177 0.12125 0.0
N218 N 0.88464 0.18583 0.00754 0.0
C219 C 0.89385 0.21616 0.9085 0.0
C220 C 0.9031 0.18513 0.92108 0.0
C221 C 0.89838 0.17037 0.97129 0.0
C222 C 0.87493 0.21528 -0.00533 0.0
C223 C 0.87882 0.23037 0.94505 0.0
H224 H 0.90756 0.14854 0.98309 0.0
H225 H 0.86516 0.22834 0.02465 0.0
H226 H 0.93316 0.14777 0.1214 0.0
H227 H 0.9607 0.22978 0.04062 0.0
H228 H 0.8021 0.17148 0.04241 0.0
H229 H 0.91505 0.17353 0.89423 0.0
H230 H 0.8709 0.25388 0.93666 0.0
C231 C 0.62373 0.82194 0.59676 0.0
C232 C 0.60103 0.81856 0.59376 0.0
N233 N 0.59168 0.84868 0.59932 0.0
N234 N 0.62893 0.85412 0.60352 0.0
C235 C 0.609 0.86986 0.60572 0.0
H236 H 0.63579 0.80213 0.5941 0.0
Co237 Co 0.65846 0.86978 0.61036 0.0
C238 C 0.65536 0.92722 0.53402 0.0
O239 O 0.67109 0.91398 0.50398 0.0
N240 N 0.68866 0.88537 0.62038 0.0
C241 C 0.71943 0.91634 0.62676 0.0
C242 C 0.69774 0.91527 0.60915 0.0
C243 C 0.70524 0.86952 0.64793 0.0
N244 N 0.72416 0.88758 0.65128 0.0
O245 O 0.65189 0.88448 0.68206 0.0
H246 H 0.68919 0.93629 0.59246 0.0
H247 H 0.70348 0.84523 0.66577 0.0
O248 O 0.64922 0.9126 0.57781 0.0
C249 C 0.65571 0.85765 0.70769 0.0
O250 O 0.66171 0.83126 0.68006 0.0
N251 N 0.66529 0.85035 0.54241 0.0
C252 C 0.67055 0.80446 0.45833 0.0
C253 C 0.65363 0.82832 0.45592 0.0
C254 C 0.65121 0.85101 0.49857 0.0
C255 C 0.68179 0.82723 0.54483 0.0
C256 C 0.68497 0.80456 0.50296 0.0
H257 H 0.63717 0.86773 0.498 0.0
H258 H 0.69154 0.82427 0.58116 0.0
H259 H 0.60722 0.89627 0.61157 0.0
H260 H 0.59206 0.79551 0.58895 0.0
H261 H 0.73054 0.93738 0.62434 0.0
H262 H 0.64207 0.82889 0.4221 0.0
H263 H 0.69786 0.78598 0.50706 0.0
C264 C 0.62622 0.72014 0.09308 0.0
C265 C 0.60333 0.71959 0.09255 0.0
N266 N 0.59659 0.68854 0.10314 0.0
N267 N 0.63402 0.68937 0.1027 0.0
C268 C 0.61549 0.67072 0.10981 0.0
H269 H 0.6366 0.74162 0.08645 0.0
Co270 Co 0.66451 0.67764 0.10588 0.0
C271 C 0.65927 0.6174 0.03223 0.0
O272 O 0.66703 0.63287 0.98946 0.0
N273 N 0.69548 0.66533 0.11033 0.0
C274 C 0.72984 0.64989 0.08692 0.0
C275 C 0.70823 0.65343 0.06949 0.0
C276 C 0.71003 0.66842 0.15253 0.0
N277 N 0.73104 0.65941 0.13927 0.0
O278 O 0.66026 0.66414 0.17953 0.0
H279 H 0.70262 0.64898 0.02853 0.0
H280 H 0.70562 0.67812 0.19184 0.0
O281 O 0.65762 0.6325 0.07805 0.0
C282 C 0.6628 0.69214 0.20302 0.0
O283 O 0.66799 0.718 0.17327 0.0
N284 N 0.66887 0.69713 0.03696 0.0
C285 C 0.67131 0.74572 0.95647 0.0
C286 C 0.65482 0.72114 0.95428 0.0
C287 C 0.65371 0.69724 -0.00466 0.0
C288 C 0.68494 0.72099 0.03921 0.0
C289 C 0.68671 0.745 -0.00091 0.0
H290 H 0.63977 0.68032 -0.00427 0.0
H291 H 0.69555 0.72317 0.07453 0.0
H292 H 0.61581 0.64464 0.11969 0.0
H293 H 0.59243 0.7406 0.08644 0.0
H294 H 0.74367 0.64128 0.06258 0.0
H295 H 0.64247 0.72103 0.92217 0.0
H296 H 0.69927 0.76407 0.00331 0.0
C297 C 0.92491 0.32919 0.53359 0.0
C298 C 0.94684 0.32325 0.52214 0.0
N299 N 0.95908 0.34889 0.54058 0.0
N300 N 0.92296 0.35857 0.55913 0.0
C301 C 0.94417 0.36994 0.56336 0.0
H302 H 0.91115 0.31293 0.52411 0.0
Co303 Co 0.89507 0.37506 0.58258 0.0
C304 C 0.91519 0.44182 0.6009 0.0
O305 O 0.92228 0.43407 0.64979 0.0
N306 N 0.86716 0.39132 0.60621 0.0
C307 C 0.83613 0.42116 0.61243 0.0
C308 C 0.85593 0.41719 0.58505 0.0
C309 C 0.85378 0.37996 0.6464 0.0
N310 N 0.83476 0.39772 0.65121 0.0
O311 O 0.90493 0.37187 0.65619 0.0
H312 H 0.86174 0.43223 0.55161 0.0
H313 H 0.85772 0.35872 0.67127 0.0
O314 O 0.90497 0.42036 0.57227 0.0
C315 C 0.90171 0.34099 0.66417 0.0
O316 O 0.89232 0.32361 0.6251 0.0
N317 N 0.88488 0.37316 0.51151 0.0
C318 C 0.87978 0.34367 0.41037 0.0
C319 C 0.89395 0.37109 0.41695 0.0
C320 C 0.89629 0.38563 0.46825 0.0
C321 C 0.8694 0.3489 0.50464 0.0
C322 C 0.86652 0.33383 0.45422 0.0
H323 H 0.90908 0.40407 0.47433 0.0
H324 H 0.86096 0.33873 0.53963 0.0
H325 H 0.94861 0.39316 0.58237 0.0
H326 H 0.9533 0.30128 0.50255 0.0
H327 H 0.82388 0.44024 0.60486 0.0
H328 H 0.90455 0.37937 0.38413 0.0
H329 H 0.85508 0.31323 0.45052 0.0
C330 C 0.62477 0.32214 0.88017 0.0
C331 C 0.60223 0.31937 0.8871 0.0
N332 N 0.59358 0.34994 0.89167 0.0
N333 N 0.63059 0.35436 0.88083 0.0
C334 C 0.61109 0.37091 0.8875 0.0
H335 H 0.63638 0.30182 0.87681 0.0
Co336 Co 0.66074 0.36705 0.87675 0.0
C337 C 0.65984 0.42779 0.94656 0.0
O338 O 0.67274 0.41333 0.9824 0.0
N339 N 0.6919 0.37971 0.87118 0.0
C340 C 0.72798 0.38836 0.8892 0.0
C341 C 0.70734 0.38234 0.91119 0.0
C342 C 0.70393 0.38513 0.82516 0.0
N343 N 0.72587 0.38992 0.83485 0.0
O344 O 0.65589 0.37957 0.80286 0.0
H345 H 0.7043 0.3786 0.95398 0.0
H346 H 0.69705 0.38458 0.78468 0.0
O347 O 0.65365 0.41206 0.90375 0.0
C348 C 0.65998 0.35173 0.78019 0.0
O349 O 0.66697 0.32708 0.81052 0.0
N350 N 0.66512 0.34851 0.94572 0.0
C351 C 0.66645 0.30184 0.02907 0.0
C352 C 0.65169 0.32875 0.03171 0.0
C353 C 0.65109 0.35172 0.98912 0.0
C354 C 0.67924 0.32216 0.94255 0.0
C355 C 0.68051 0.29902 0.98408 0.0
H356 H 0.63852 0.37086 0.98943 0.0
H357 H 0.68883 0.31802 0.90602 0.0
H358 H 0.60986 0.3975 0.89163 0.0
H359 H 0.59289 0.29653 0.89001 0.0
H360 H 0.74339 0.39091 0.91164 0.0
H361 H 0.64035 0.33151 0.0656 0.0
H362 H 0.69163 0.27811 0.9796 0.0
C363 C 0.92448 0.72754 0.42323 0.0
C364 C 0.94652 0.73568 0.42692 0.0
N365 N 0.95876 0.70921 0.41243 0.0
N366 N 0.92236 0.69574 0.40738 0.0
C367 C 0.94367 0.68562 0.39871 0.0
H368 H 0.91078 0.74408 0.43148 0.0
Co369 Co 0.89374 0.67641 0.39697 0.0
C370 C 0.91824 0.61945 0.45605 0.0
O371 O 0.93484 0.63717 0.47497 0.0
N372 N 0.86497 0.65829 0.3854 0.0
C373 C 0.83339 0.6305 0.39778 0.0
C374 C 0.85467 0.63565 0.41684 0.0
C375 C 0.84946 0.66659 0.34757 0.0
N376 N 0.83007 0.65 0.35412 0.0
O377 O 0.90215 0.66422 0.32508 0.0
H378 H 0.86194 0.62413 0.45233 0.0
H379 H 0.85195 0.68545 0.31714 0.0
O380 O 0.90306 0.633 0.42695 0.0
C381 C 0.89818 0.69125 0.30014 0.0
O382 O 0.89031 0.71653 0.32775 0.0
N383 N 0.8845 0.69281 0.46467 0.0
C384 C 0.87895 0.74007 0.54588 0.0
C385 C 0.89245 0.71225 0.55468 0.0
C386 C 0.89492 0.68866 0.51351 0.0
C387 C 0.86963 0.71796 0.45764 0.0
C388 C 0.86651 0.74184 0.49785 0.0
H389 H 0.90659 0.66903 0.51978 0.0
H390 H 0.86186 0.72159 0.41843 0.0
H391 H 0.94805 0.66123 0.384 0.0
H392 H 0.95302 0.75949 0.43934 0.0
H393 H 0.82127 0.6137 0.41494 0.0
H394 H 0.90193 0.70966 0.59194 0.0
H395 H 0.8559 0.76289 0.48946 0.0
C396 C 0.43375 0.32934 0.88332 0.0
C397 C 0.45649 0.32912 0.88656 0.0
N398 N 0.46379 0.36054 0.88433 0.0
N399 N 0.42641 0.3608 0.87972 0.0
C400 C 0.44523 0.37945 0.87966 0.0
H401 H 0.42309 0.3078 0.88446 0.0
Co402 Co 0.39563 0.36965 0.87841 0.0
C403 C 0.39241 0.43195 0.94309 0.0
O404 O 0.37925 0.41664 0.97728 0.0
N405 N 0.36379 0.37782 0.87579 0.0
C406 C 0.32748 0.38038 0.89546 0.0
C407 C 0.34852 0.37546 0.91604 0.0
C408 C 0.35119 0.38469 0.83115 0.0
N409 N 0.32909 0.38595 0.8417 0.0
O410 O 0.39815 0.38083 0.80309 0.0
H411 H 0.35209 0.36978 0.95806 0.0
H412 H 0.35793 0.38783 0.7909 0.0
O413 O 0.40049 0.41632 0.90211 0.0
C414 C 0.39481 0.35245 0.78145 0.0
O415 O 0.39026 0.32728 0.81326 0.0
N416 N 0.39393 0.35256 0.949 0.0
C417 C 0.401 0.30706 0.033 0.0
C418 C 0.41071 0.33882 0.03467 0.0
C419 C 0.40754 0.36081 -0.00858 0.0
C420 C 0.38372 0.32246 0.9478 0.0
C421 C 0.38702 0.29945 0.98898 0.0
H422 H 0.41728 0.38328 0.9902 0.0
H423 H 0.37434 0.31513 0.91222 0.0
H424 H 0.44533 0.4062 0.8776 0.0
H425 H 0.46696 0.30743 0.89009 0.0
H426 H 0.3122 0.37963 0.91861 0.0
H427 H 0.42149 0.34627 0.06777 0.0
H428 H 0.3797 0.27519 0.98409 0.0
C429 C 0.12153 0.72906 0.38078 0.0
C430 C 0.0989 0.73201 0.38586 0.0
N431 N 0.08978 0.70167 0.38179 0.0
N432 N 0.12695 0.69689 0.3745 0.0
C433 C 0.10713 0.68073 0.37436 0.0
H434 H 0.13343 0.74914 0.38188 0.0
Co435 Co 0.15663 0.68231 0.36487 0.0
C436 C 0.15299 0.62491 0.44435 0.0
O437 O 0.16523 0.64002 0.48103 0.0
N438 N 0.1867 0.66797 0.35209 0.0
C439 C 0.21929 0.64145 0.35006 0.0
C440 C 0.19893 0.64378 0.37542 0.0
C441 C 0.20033 0.67995 0.31264 0.0
N442 N 0.22024 0.66416 0.31009 0.0
O443 O 0.14873 0.66647 0.29423 0.0
H444 H 0.1937 0.62823 0.40843 0.0
H445 H 0.19563 0.69995 0.28604 0.0
O446 O 0.1491 0.6389 0.3984 0.0
C447 C 0.14954 0.69289 0.26603 0.0
O448 O 0.15499 0.72077 0.29018 0.0
N449 N 0.16467 0.70277 0.43158 0.0
C450 C 0.17094 0.75161 0.51099 0.0
C451 C 0.15366 0.72847 0.51577 0.0
C452 C 0.15074 0.70434 0.47553 0.0
C453 C 0.18181 0.72479 0.42723 0.0
C454 C 0.18545 0.74897 0.46676 0.0
H455 H 0.13636 0.68832 0.47788 0.0
H456 H 0.1918 0.72562 0.39089 0.0
H457 H 0.10547 0.65423 0.36936 0.0
H458 H 0.08975 0.75484 0.39136 0.0
H459 H 0.23239 0.62432 0.36082 0.0
H460 H 0.14212 0.72959 0.54948 0.0
H461 H 0.19873 0.76672 0.46096 0.0
C462 C 0.43756 0.69501 0.17705 0.0
C463 C 0.46034 0.693 0.17617 0.0
N464 N 0.46644 0.67758 0.13015 0.0
N465 N 0.429 0.68034 0.13229 0.0
C466 C 0.44718 0.67032 0.10386 0.0
H467 H 0.42797 0.70755 0.20786 0.0
Co468 Co 0.39807 0.67858 0.1178 0.0
C469 C 0.39076 0.61744 0.05246 0.0
O470 O 0.37613 0.63336 0.0226 0.0
N471 N 0.36625 0.6774 0.10496 0.0
C472 C 0.33163 0.69448 0.08731 0.0
C473 C 0.35377 0.69781 0.07383 0.0
C474 C 0.35092 0.66113 0.13563 0.0
N475 N 0.32982 0.67177 0.12704 0.0
O476 O 0.39326 0.66389 0.19126 0.0
H477 H 0.36018 0.71564 0.04525 0.0
H478 H 0.35533 0.64373 0.16723 0.0
O479 O 0.40095 0.63256 0.09108 0.0
C480 C 0.38532 0.68919 0.21565 0.0
O481 O 0.38169 0.7162 0.18728 0.0
N482 N 0.40342 0.69822 0.0501 0.0
C483 C 0.41255 0.7419 0.96492 0.0
C484 C 0.41456 0.70743 0.95767 0.0
C485 C 0.41035 0.68594 0.00122 0.0
C486 C 0.40245 0.73153 0.05832 0.0
C487 C 0.40679 0.75372 0.01654 0.0
H488 H 0.41328 0.65988 -0.00444 0.0
H489 H 0.39819 0.74098 0.09808 0.0
H490 H 0.44638 0.65839 0.06449 0.0
H491 H 0.47165 0.70358 0.2058 0.0
H492 H 0.31805 0.70886 0.07064 0.0
H493 H 0.41928 0.69706 0.91875 0.0
H494 H 0.40584 0.77998 0.025 0.0
C495 C 0.12188 0.32755 0.57242 0.0
C496 C 0.09931 0.32469 0.5651 0.0
N497 N 0.08992 0.35435 0.5748 0.0
N498 N 0.12694 0.35909 0.58564 0.0
C499 C 0.107 0.37478 0.58776 0.0
H500 H 0.13396 0.30789 0.56799 0.0
Co501 Co 0.1562 0.37424 0.60085 0.0
C502 C 0.15082 0.43705 0.53467 0.0
O503 O 0.1617 0.42391 0.49386 0.0
N504 N 0.18558 0.38965 0.61864 0.0
C505 C 0.21837 0.41557 0.61853 0.0
C506 C 0.1983 0.41201 0.59224 0.0
C507 C 0.19862 0.37993 0.66092 0.0
N508 N 0.21868 0.3953 0.66193 0.0
O509 O 0.14723 0.38074 0.67511 0.0
H510 H 0.19373 0.42483 0.55564 0.0
H511 H 0.19374 0.36131 0.68992 0.0
O512 O 0.14782 0.42045 0.5787 0.0
C513 C 0.14959 0.35057 0.69014 0.0
O514 O 0.15876 0.32963 0.65578 0.0
N515 N 0.16542 0.3607 0.53028 0.0
C516 C 0.17309 0.31596 0.44567 0.0
C517 C 0.15475 0.33729 0.44398 0.0
C518 C 0.15119 0.35949 0.48667 0.0
C519 C 0.18387 0.3409 0.53083 0.0
C520 C 0.18823 0.31889 0.48853 0.0
H521 H 0.13598 0.3738 0.48669 0.0
H522 H 0.19431 0.3394 0.56646 0.0
H523 H 0.10505 0.40062 0.5983 0.0
H524 H 0.0904 0.30233 0.55438 0.0
H525 H 0.2316 0.43213 0.60647 0.0
H526 H 0.14271 0.33575 0.41123 0.0
H527 H 0.2024 0.30242 0.49158 0.0
H528 H 0.26152 0.19128 0.13114 0.0
H529 H 0.221 0.12183 0.22023 0.0
H530 H 0.25075 0.11457 0.28639 0.0
H531 H 0.28796 0.12807 0.31998 0.0
H532 H 0.32944 0.19559 0.22918 0.0
H533 H 0.29962 0.2033 0.16339 0.0
C534 C 0.25919 0.17419 0.16451 0.0
C535 C 0.2387 0.15729 0.17022 0.0
C536 C 0.27659 0.16985 0.20268 0.0
C537 C 0.23622 0.13566 0.21465 0.0
C538 C 0.25337 0.13134 0.25264 0.0
C539 C 0.29081 0.14431 0.2858 0.0
C540 C 0.31137 0.16109 0.28049 0.0
C541 C 0.27359 0.1484 0.24727 0.0
C542 C 0.31404 0.18236 0.23553 0.0
C543 C 0.2969 0.18673 0.19734 0.0
H544 H 0.2327 0.89486 0.74133 0.0
H545 H 0.26799 0.88069 0.8925 0.0
H546 H 0.30337 0.88151 0.84414 0.0
H547 H 0.32464 0.8869 0.75847 0.0
H548 H 0.28889 0.89987 0.6077 0.0
H549 H 0.25364 0.89851 0.65615 0.0
C550 C 0.24805 0.89159 0.76383 0.0
C551 C 0.24743 0.88784 0.82081 0.0
C552 C 0.26846 0.89192 0.73568 0.0
C553 C 0.26775 0.88415 0.84891 0.0
C554 C 0.28809 0.8844 0.82115 0.0
C555 C 0.30914 0.88916 0.73621 0.0
C556 C 0.3096 0.89383 0.6794 0.0
C557 C 0.2887 0.88836 0.76449 0.0
C558 C 0.28923 0.89693 0.65142 0.0
C559 C 0.26896 0.89596 0.67911 0.0
H560 H 0.72945 0.86313 0.75258 0.0
H561 H 0.76535 0.896 0.61147 0.0
H562 H 0.80072 0.88985 0.66017 0.0
H563 H 0.82124 0.88003 0.74603 0.0
H564 H 0.78489 0.85196 0.88938 0.0
H565 H 0.75012 0.85092 0.83734 0.0
C566 C 0.74507 0.86825 0.73238 0.0
C567 C 0.74484 0.8798 0.67845 0.0
C568 C 0.7653 0.86579 0.76141 0.0
C569 C 0.76518 0.88706 0.65297 0.0
C570 C 0.78537 0.88362 0.68085 0.0
C571 C 0.80574 0.87311 0.76542 0.0
C572 C 0.80562 0.86605 0.82144 0.0
C573 C 0.78565 0.87371 0.73552 0.0
C574 C 0.78535 0.85763 0.84638 0.0
C575 C 0.76547 0.85707 0.81663 0.0
H576 H 0.72519 0.17957 0.23782 0.0
H577 H 0.76211 0.12941 0.3638 0.0
H578 H 0.79584 0.13286 0.30947 0.0
H579 H 0.81502 0.14845 0.22396 0.0
H580 H 0.77792 0.20002 0.10001 0.0
H581 H 0.74458 0.19802 0.15574 0.0
C582 C 0.74059 0.16972 0.25393 0.0
C583 C 0.74072 0.15393 0.30502 0.0
C584 C 0.76015 0.17195 0.2225 0.0
C585 C 0.76109 0.14113 0.32439 0.0
C586 C 0.78058 0.14328 0.29336 0.0
C587 C 0.79972 0.15956 0.20948 0.0
C588 C 0.79907 0.17387 0.15725 0.0
C589 C 0.78033 0.15835 0.24203 0.0
C590 C 0.77894 0.1881 0.1393 0.0
C591 C 0.75978 0.18715 0.17136 0.0
H592 H 0.7343 0.6507 0.24831 0.0
H593 H 0.77298 0.67189 0.10508 0.0
H594 H 0.80706 0.67217 0.15917 0.0
H595 H 0.82632 0.66439 0.24694 0.0
H596 H 0.78781 0.64204 0.38996 0.0
H597 H 0.75352 0.64426 0.33667 0.0
C598 C 0.75016 0.65566 0.22908 0.0
C599 C 0.75098 0.66102 0.17249 0.0
C600 C 0.76987 0.6554 0.2605 0.0
C601 C 0.7718 0.66714 0.14828 0.0
C602 C 0.79135 0.66746 0.17929 0.0
C603 C 0.81041 0.66035 0.26653 0.0
C604 C 0.80977 0.65289 0.32248 0.0
C605 C 0.79066 0.66129 0.23538 0.0
C606 C 0.78893 0.64735 0.34693 0.0
C607 C 0.76924 0.64876 0.31646 0.0
H608 H 0.79142 0.41481 0.63929 0.0
H609 H 0.83779 0.37061 0.75187 0.0
H610 H 0.80812 0.36427 0.81876 0.0
H611 H 0.76902 0.37169 0.8459 0.0
H612 H 0.72267 0.41618 0.73363 0.0
H613 H 0.75225 0.42201 0.6663 0.0
C614 C 0.79511 0.404 0.67855 0.0
C615 C 0.81696 0.39329 0.69028 0.0
C616 C 0.77792 0.40047 0.71706 0.0
C617 C 0.8212 0.37877 0.74123 0.0
C618 C 0.80422 0.37532 0.77976 0.0
C619 C 0.76539 0.38298 0.80696 0.0
C620 C 0.74354 0.39362 0.79522 0.0
C621 C 0.78253 0.38619 0.76824 0.0
C622 C 0.73919 0.40753 0.74386 0.0
C623 C 0.75616 0.411 0.70532 0.0
H624 H 0.26222 0.41168 0.64881 0.0
H625 H 0.21617 0.36932 0.76398 0.0
H626 H 0.2463 0.36239 0.82938 0.0
H627 H 0.2857 0.36839 0.85436 0.0
H628 H 0.33127 0.41332 0.74067 0.0
H629 H 0.3013 0.4192 0.67472 0.0
C630 C 0.25857 0.40124 0.6883 0.0
C631 C 0.23668 0.39107 0.70085 0.0
C632 C 0.27599 0.3977 0.7263 0.0
C633 C 0.23271 0.37704 0.75233 0.0
C634 C 0.24999 0.37324 0.79014 0.0
C635 C 0.28916 0.37985 0.81553 0.0
C636 C 0.311 0.39029 0.80305 0.0
C637 C 0.27169 0.38354 0.77764 0.0
C638 C 0.3149 0.40456 0.75171 0.0
C639 C 0.29766 0.40813 0.71383 0.0
H640 H 0.25457 0.62258 0.28601 0.0
H641 H 0.22778 0.71901 0.2482 0.0
H642 H 0.25868 0.72913 0.18648 0.0
H643 H 0.2942 0.71176 0.1455 0.0
H644 H 0.32128 0.61578 0.18419 0.0
H645 H 0.28969 0.60483 0.24392 0.0
C646 C 0.25545 0.64599 0.26484 0.0
C647 C 0.23859 0.66998 0.27263 0.0
C648 C 0.27351 0.6519 0.22948 0.0
C649 C 0.24015 0.69983 0.24333 0.0
C650 C 0.25799 0.70577 0.20798 0.0
C651 C 0.29312 0.68821 0.16626 0.0
C652 C 0.31031 0.66463 0.15993 0.0
C653 C 0.27484 0.68208 0.20088 0.0
C654 C 0.30856 0.63456 0.18838 0.0
C655 C 0.2904 0.62823 0.22253 0.0
H656 H 0.98842 0.17479 0.01578 0.0
H657 H 0.97039 0.17452 0.18496 0.0
H658 H 1.00981 0.17059 0.21084 0.0
H659 H 0.04962 0.17404 0.18466 0.0
H660 H 0.06758 0.1713 0.01542 0.0
H661 H 0.02811 0.16911 0.98968 0.0
C662 C 0.99321 0.17301 0.05821 0.0
C663 C 0.97664 0.17496 0.09855 0.0
C664 C 1.01587 0.17051 0.07252 0.0
C665 C 0.98288 0.17271 0.15341 0.0
C666 C 1.00541 0.17078 0.16808 0.0
C667 C 0.0448 0.17218 0.14226 0.0
C668 C 0.06139 0.17293 0.10187 0.0
C669 C 1.02208 0.17063 0.128 0.0
C670 C 0.05507 0.17046 0.04705 0.0
C671 C 0.03252 0.1695 0.03243 0.0
H672 H 0.56037 0.81735 0.54097 0.0
H673 H 0.56962 0.89544 0.65812 0.0
H674 H 0.52908 0.90211 0.66563 0.0
H675 H 0.49063 0.8817 0.64445 0.0
H676 H 0.4828 0.80253 0.52843 0.0
H677 H 0.52292 0.80029 0.51481 0.0
C678 C 0.55354 0.8359 0.5681 0.0
C679 C 0.56803 0.85553 0.59948 0.0
C680 C 0.53034 0.83927 0.57253 0.0
C681 C 0.55887 0.88001 0.63344 0.0
C682 C 0.53566 0.88368 0.63796 0.0
C683 C 0.49779 0.86447 0.61555 0.0
C684 C 0.48377 0.84206 0.58782 0.0
C685 C 0.52116 0.86295 0.60848 0.0
C686 C 0.49326 0.81969 0.55069 0.0
C687 C 0.5162 0.8184 0.54288 0.0
H688 H 0.99521 0.87218 0.9587 0.0
H689 H 0.9759 0.85802 0.79179 0.0
H690 H 1.0151 0.86007 0.76369 0.0
H691 H 0.05514 0.85998 0.78869 0.0
H692 H 0.07429 0.87733 0.95502 0.0
H693 H 0.03502 0.88045 0.98171 0.0
C694 C 0.99968 0.87035 0.9161 0.0
C695 C 0.98284 0.86496 0.87722 0.0
C696 C 1.0222 0.87187 0.90046 0.0
C697 C 0.98863 0.86252 0.82212 0.0
C698 C 1.01102 0.86341 0.80626 0.0
C699 C 0.0506 0.86508 0.83053 0.0
C700 C 0.06749 0.86827 0.87001 0.0
C701 C 0.02799 0.86721 0.84527 0.0
C702 C 0.06155 0.87504 0.92405 0.0
C703 C 0.03911 0.87656 0.93927 0.0
H704 H 0.56136 0.16756 0.34433 0.0
H705 H 0.5672 0.23389 0.48129 0.0
H706 H 0.52707 0.23452 0.49201 0.0
H707 H 0.49009 0.21971 0.45949 0.0
H708 H 0.48252 0.15346 0.32363 0.0
H709 H 0.52325 0.14863 0.31609 0.0
C710 C 0.55379 0.18176 0.37683 0.0
C711 C 0.56737 0.20128 0.41118 0.0
C712 C 0.53033 0.18207 0.38294 0.0
C713 C 0.55724 0.21941 0.45331 0.0
C714 C 0.53423 0.21965 0.45975 0.0
C715 C 0.49736 0.20406 0.42839 0.0
C716 C 0.48333 0.18728 0.39183 0.0
C717 C 0.5206 0.20172 0.42418 0.0
C718 C 0.49297 0.16656 0.35239 0.0
C719 C 0.51626 0.16402 0.34788 0.0
H720 H 0.50099 0.65307 0.18618 0.0
H721 H 0.48276 0.69697 0.03319 0.0
H722 H 0.52222 0.70278 0.00912 0.0
H723 H 0.56199 0.70056 0.03653 0.0
H724 H 0.58012 0.65388 0.18741 0.0
H725 H 0.54076 0.64358 0.20762 0.0
C726 C 0.50576 0.6632 0.14709 0.0
C727 C 0.48909 0.67465 0.11145 0.0
C728 C 0.52844 0.66623 0.13362 0.0
C729 C 0.49533 0.68772 0.06089 0.0
C730 C 0.51787 0.69131 0.04746 0.0
C731 C 0.55723 0.68767 0.07334 0.0
C732 C 0.57384 0.67816 0.11072 0.0
C733 C 0.53458 0.68146 0.08416 0.0
C734 C 0.56761 0.66123 0.15809 0.0
C735 C 0.54512 0.65555 0.1697 0.0
H736 H 0.06137 0.33254 0.49949 0.0
H737 H 0.06559 0.39193 0.64446 0.0
H738 H 1.02483 0.39772 0.64556 0.0
H739 H 0.98762 0.38152 0.6086 0.0
H740 H 0.98485 0.32322 0.4615 0.0
H741 H 1.02519 0.32129 0.45801 0.0
C742 C 0.05334 0.34694 0.53109 0.0
C743 C 0.06639 0.36147 0.57212 0.0
C744 C 0.03007 0.35006 0.53134 0.0
C745 C 0.05586 0.38058 0.61236 0.0
C746 C 0.03256 0.38368 0.61312 0.0
C747 C 0.99586 0.36886 0.57541 0.0
C748 C 0.98304 0.35184 0.53609 0.0
C749 C 1.0194 0.36796 0.57332 0.0
C750 C 0.99413 0.33568 0.49324 0.0
C751 C 1.01728 0.3347 0.49095 0.0
H752 H 0.49377 0.33874 0.95566 0.0
H753 H 0.48577 0.40286 0.81769 0.0
H754 H 0.52644 0.40918 0.81111 0.0
H755 H 0.56455 0.38976 0.83801 0.0
H756 H 0.57116 0.32423 0.97495 0.0
H757 H 0.53099 0.32533 0.98928 0.0
C758 C 0.50098 0.35462 0.92486 0.0
C759 C 0.4869 0.37013 0.88701 0.0
C760 C 0.5242 0.35759 0.92103 0.0
C761 C 0.49632 0.39085 0.84744 0.0
C762 C 0.51957 0.39418 0.84346 0.0
C763 C 0.55713 0.37656 0.87175 0.0
C764 C 0.57072 0.3568 0.90538 0.0
C765 C 0.53375 0.37678 0.87903 0.0
C766 C 0.56096 0.33944 0.94861 0.0
C767 C 0.53801 0.33998 0.95664 0.0
H768 H 0.98738 0.6721 0.35086 0.0
H769 H 0.98458 0.74087 0.48519 0.0
H770 H 1.02484 0.74294 0.48908 0.0
H771 H 0.06101 0.72847 0.4515 0.0
H772 H 0.06566 0.65913 0.3192 0.0
H773 H 1.02485 0.65338 0.31797 0.0
C774 C 0.99563 0.6872 0.38127 0.0
C775 C 0.98278 0.70702 0.4167 0.0
C776 C 1.01921 0.68819 0.38369 0.0
C777 C 0.99386 0.72623 0.45618 0.0
C778 C 1.01698 0.72727 0.45881 0.0
C779 C 0.05307 0.71192 0.42264 0.0
C780 C 0.06626 0.69453 0.38519 0.0
C781 C 0.0298 0.70896 0.42217 0.0
C782 C 0.05583 0.6727 0.34858 0.0
C783 C 0.0325 0.66963 0.34768 0.0
H784 H 0.16002 0.08304 0.95052 0.0
H785 H 0.14239 0.06689 0.11834 0.0
H786 H 0.13764 1.00764 0.09997 0.0
H787 H 0.14133 0.95998 0.03762 0.0
H788 H 0.15793 0.97666 0.86922 0.0
H789 H 0.15996 0.03625 0.88626 0.0
C790 C 0.155 0.0666 0.98308 0.0
C791 C 0.15187 0.07933 0.03601 0.0
C792 C 0.15213 0.03267 0.97205 0.0
C793 C 0.14496 0.05777 0.07738 0.0
C794 C 0.14233 0.02386 0.06687 0.0
C795 C 0.14515 0.97667 0.00444 0.0
C796 C 0.14968 0.96373 0.95222 0.0
C797 C 0.14628 1.01096 0.01459 0.0
C798 C 0.15433 0.98582 0.90967 0.0
C799 C 0.15564 1.01992 0.91952 0.0
H800 H 0.41309 0.95991 0.44486 0.0
H801 H 0.40501 0.9726 0.61802 0.0
H802 H 0.40364 0.03264 0.6061 0.0
H803 H 0.40059 0.0809 0.54559 0.0
H804 H 0.40852 0.06837 0.37242 0.0
H805 H 0.41426 1.00889 0.38532 0.0
C806 C 0.41137 0.9758 0.48018 0.0
C807 C 0.40892 0.96162 0.53229 0.0
C808 C 0.41033 1.01032 0.47291 0.0
C809 C 0.40696 0.9827 0.57753 0.0
C810 C 0.406 1.01708 0.57065 0.0
C811 C 0.40382 0.06523 0.51063 0.0
C812 C 0.40381 0.07907 0.45795 0.0
C813 C 0.40701 0.03107 0.5184 0.0
C814 C 0.40837 0.05845 0.41332 0.0
C815 C 0.41155 0.02438 0.4207 0.0
H816 H 0.92843 0.97292 0.01322 0.0
H817 H 0.86841 0.95643 0.91994 0.0
H818 H 0.85454 1.01052 0.94652 0.0
H819 H 0.85946 0.06282 -0.00648 0.0
H820 H 0.91933 0.08192 0.0854 0.0
H821 H 0.93302 0.02625 0.06293 0.0
C822 C 0.91233 0.98118 -0.00134 0.0
C823 C 0.89956 0.96042 0.96435 0.0
C824 C 0.90433 1.01269 0.01414 0.0
C825 C 0.87867 0.97163 0.94623 0.0
C826 C 0.87067 1.00265 0.96149 0.0
C827 C 0.8755 0.05493 0.00905 0.0
C828 C 0.88836 0.07671 0.04105 0.0
C829 C 0.88336 1.02338 -0.00486 0.0
C830 C 0.90901 0.0657 0.06095 0.0
C831 C 0.9169 0.03393 0.04773 0.0
H832 H 0.61596 0.07207 0.51107 0.0
H833 H 0.66286 0.07389 0.37828 0.0
H834 H 0.67276 1.01644 0.39626 0.0
H835 H 0.66929 0.96648 0.45135 0.0
H836 H 0.62332 0.96421 0.58595 0.0
H837 H 0.61178 1.02096 0.56527 0.0
C838 C 0.6282 0.05983 0.48574 0.0
C839 C 0.6387 0.07747 0.44345 0.0
C840 C 0.63405 0.02672 0.49672 0.0
C841 C 0.65462 0.06114 0.4113 0.0
C842 C 0.66029 0.02821 0.42152 0.0
C843 C 0.65664 0.97822 0.47617 0.0
C844 C 0.64726 0.961 0.52036 0.0
C845 C 0.6503 1.01089 0.46445 0.0
C846 C 0.63089 0.97681 0.55183 0.0
C847 C 0.62429 1.0093 0.54002 0.0
H848 H 0.64953 0.58286 0.94051 0.0
H849 H 0.65992 0.57075 0.11299 0.0
H850 H 0.65909 0.51054 0.10195 0.0
H851 H 0.6593 0.46168 0.0419 0.0
H852 H 0.64837 0.47374 0.86961 0.0
H853 H 0.64527 0.5337 0.88202 0.0
C854 C 0.65134 0.56705 0.97584 0.0
C855 C 0.65508 0.58131 0.02747 0.0
C856 C 0.65089 0.53248 0.96911 0.0
C857 C 0.65704 0.56048 0.07287 0.0
C858 C 0.6567 0.52603 0.06649 0.0
C859 C 0.65597 0.47739 0.0071 0.0
C860 C 0.65437 0.46327 0.95472 0.0
C861 C 0.65424 0.51181 0.0146 0.0
C862 C 0.64971 0.48392 0.91027 0.0
C863 C 0.64806 0.51823 0.91735 0.0
H864 H 0.89505 0.47048 0.51308 0.0
H865 H 0.94346 0.48938 0.63927 0.0
H866 H 0.94927 0.54518 0.60411 0.0
H867 H 0.94016 0.58901 0.53893 0.0
H868 H 0.89046 0.57152 0.41529 0.0
H869 H 0.88565 0.51479 0.44801 0.0
C870 C 0.90694 0.48675 0.53281 0.0
C871 C 0.91883 0.47563 0.57882 0.0
C872 C 0.90996 0.5191 0.51284 0.0
C873 C 0.93403 0.49722 0.60399 0.0
C874 C 0.93739 0.52917 0.58383 0.0
C875 C 0.92837 0.57278 0.51877 0.0
C876 C 0.91578 0.58458 0.47441 0.0
C877 C 0.92539 0.54042 0.53844 0.0
C878 C 0.90039 0.56317 0.44941 0.0
C879 C 0.89763 0.53071 0.46815 0.0
H880 H 0.3998 0.46202 0.03972 0.0
H881 H 0.39394 0.48194 0.8682 0.0
H882 H 0.39378 0.54164 0.8868 0.0
H883 H 0.39175 0.58787 0.95304 0.0
H884 H 0.40008 0.56781 0.12401 0.0
H885 H 0.40299 0.50847 0.10462 0.0
C886 C 0.3989 0.4795 0.00635 0.0
C887 C 0.39674 0.46764 0.95264 0.0
C888 C 0.39903 0.5137 0.01743 0.0
C889 C 0.39576 0.49047 0.90976 0.0
C890 C 0.39547 0.52458 0.9205 0.0
C891 C 0.39444 0.57048 0.98595 0.0
C892 C 0.3954 0.58214 0.04004 0.0
C893 C 0.39653 0.53644 0.9743 0.0
C894 C 0.39926 0.55946 0.08216 0.0
C895 C 0.40083 0.52552 0.07106 0.0
H896 H 0.1513 0.59246 0.54133 0.0
H897 H 0.14101 0.57814 0.3691 0.0
H898 H 0.13656 0.51869 0.38361 0.0
H899 H 0.14 0.47035 0.44349 0.0
H900 H 0.15036 0.48404 0.61559 0.0
H901 H 0.14992 0.54428 0.6031 0.0
C902 C 0.1478 0.57639 0.507 0.0
C903 C 0.14684 0.58976 0.45399 0.0
C904 C 0.14532 0.54214 0.51567 0.0
C905 C 0.14194 0.56861 0.41019 0.0
C906 C 0.13948 0.53456 0.41847 0.0
C907 C 0.14173 0.48655 0.47848 0.0
C908 C 0.1454 0.47277 0.53039 0.0
C909 C 0.14177 0.52099 0.47077 0.0
C910 C 0.14739 0.494 0.57535 0.0
C911 C 0.14737 0.52843 0.56805 0.0
H912 H 0.13571 0.28922 0.70677 0.0
H913 H 0.14793 0.38082 0.79169 0.0
H914 H 0.14391 0.35182 0.87931 0.0
H915 H 0.14125 0.29896 0.93009 0.0
H916 H 0.13509 0.20728 0.8398 0.0
H917 H 0.13203 0.23801 0.75599 0.0
C918 C 0.13731 0.30306 0.74447 0.0
C919 C 0.14241 0.33699 0.74297 0.0
C920 C 0.13621 0.28604 0.79369 0.0
C921 C 0.14394 0.35469 0.79193 0.0
C922 C 0.14191 0.33798 0.84184 0.0
C923 C 0.13946 0.28551 0.89221 0.0
C924 C 0.13853 0.25046 0.89213 0.0
C925 C 0.13886 0.30337 0.84306 0.0
C926 C 0.13546 0.23399 0.84221 0.0
C927 C 0.13393 0.25159 0.79378 0.0
H928 H 0.40677 0.75142 0.43587 0.0
H929 H 0.34126 0.79176 0.40853 0.0
H930 H 0.33495 0.75206 0.33518 0.0
H931 H 0.35057 0.71321 0.26941 0.0
H932 H 0.41663 0.67454 0.29252 0.0
H933 H 0.41995 0.70497 0.37848 0.0
C934 C 0.39108 0.75124 0.414 0.0
C935 C 0.37468 0.7749 0.42652 0.0
C936 C 0.38761 0.72839 0.37172 0.0
C937 C 0.35418 0.77398 0.39912 0.0
C938 C 0.35055 0.75127 0.35731 0.0
C939 C 0.36528 0.71031 0.29469 0.0
C940 C 0.38341 0.69209 0.27486 0.0
C941 C 0.36743 0.7292 0.34212 0.0
C942 C 0.40243 0.68833 0.30738 0.0
C943 C 0.40448 0.70631 0.35587 0.0
H944 H 0.12594 0.76206 0.05379 0.0
H945 H 0.19766 0.76936 0.0514 0.0
H946 H 0.20035 0.72784 0.12232 0.0
H947 H 0.18254 0.69698 0.1949 0.0
H948 H 0.1112 0.69549 0.20771 0.0
H949 H 0.108 0.72578 0.1217 0.0
C950 C 0.14214 0.75453 0.06875 0.0
C951 C 0.16154 0.76916 0.04746 0.0
C952 C 0.14361 0.73117 0.11096 0.0
C953 C 0.18242 0.75848 0.06656 0.0
C954 C 0.18402 0.73472 0.10731 0.0
C955 C 0.1663 0.70199 0.17745 0.0
C956 C 0.14714 0.69383 0.2069 0.0
C957 C 0.16474 0.72168 0.13085 0.0
C958 C 0.12615 0.70089 0.18479 0.0
C959 C 0.12437 0.71894 0.1364 0.0
H960 H 0.35909 0.33321 0.72589 0.0
H961 H 0.4289 0.35429 0.70889 0.0
H962 H 0.43016 0.32119 0.62515 0.0
H963 H 0.41252 0.27878 0.5664 0.0
H964 H 0.34293 0.25614 0.58727 0.0
H965 H 0.34034 0.29717 0.66009 0.0
C966 C 0.37432 0.33172 0.70233 0.0
C967 C 0.39381 0.3464 0.72271 0.0
C968 C 0.37505 0.31142 0.65612 0.0
C969 C 0.41361 0.34383 0.69298 0.0
C970 C 0.41439 0.32431 0.64586 0.0
C971 C 0.3968 0.283 0.58685 0.0
C972 C 0.37803 0.26402 0.57236 0.0
C973 C 0.39546 0.30668 0.6287 0.0
C974 C 0.35761 0.27025 0.59807 0.0
C975 C 0.35613 0.29373 0.6396 0.0
H976 H 0.86579 0.69314 0.22641 0.0
H977 H 0.9365 0.70426 0.24677 0.0
H978 H 0.93816 0.73908 0.16535 0.0
H979 H 0.9182 0.77413 0.09881 0.0
H980 H 0.84701 0.76506 0.08294 0.0
H981 H 0.84657 0.72219 0.15301 0.0
C982 C 0.88168 0.70193 0.21138 0.0
C983 C 0.90103 0.69592 0.24171 0.0
C984 C 0.88218 0.72352 0.16694 0.0
C985 C 0.92151 0.70794 0.22296 0.0
C986 C 0.92234 0.72852 0.1773 0.0
C987 C 0.90265 0.7627 0.11093 0.0
C988 C 0.88259 0.77314 0.08703 0.0
C989 C 0.90258 0.73791 0.15089 0.0
C990 C 0.86257 0.75764 0.10159 0.0
C991 C 0.86234 0.73304 0.14127 0.0
H992 H 0.63852 0.27103 0.57579 0.0
H993 H 0.70966 0.25754 0.58273 0.0
H994 H 0.71263 0.30121 0.65121 0.0
H995 H 0.69448 0.3372 0.71744 0.0
H996 H 0.62332 0.34874 0.71554 0.0
H997 H 0.62079 0.31308 0.6349 0.0
C998 C 0.65463 0.27774 0.59246 0.0
C999 C 0.67381 0.26067 0.5754 0.0
C1000 C 0.65619 0.30296 0.63167 0.0
C1001 C 0.69468 0.2701 0.5959 0.0
C1002 C 0.69638 0.29514 0.63475 0.0
C1003 C 0.67856 0.33317 0.69761 0.0
C1004 C 0.65914 0.34579 0.72154 0.0
C1005 C 0.67722 0.31117 0.65375 0.0
C1006 C 0.6385 0.3399 0.69674 0.0
C1007 C 0.63704 0.31886 0.65155 0.0
H1008 H 0.90174 0.28233 0.89972 0.0
H1009 H 0.90086 0.19175 0.80621 0.0
H1010 H 0.90728 0.2232 0.72309 0.0
H1011 H 0.90825 0.27612 0.67639 0.0
H1012 H 0.90534 0.36738 0.76731 0.0
H1013 H 0.90546 0.33586 0.85274 0.0
C1014 C 0.90286 0.26945 0.86111 0.0
C1015 C 0.90031 0.23473 0.859 0.0
C1016 C 0.9058 0.28778 0.81333 0.0
C1017 C 0.90269 0.21835 0.809 0.0
C1018 C 0.90622 0.23635 0.76145 0.0
C1019 C 0.90788 0.28923 0.71494 0.0
C1020 C 0.90641 0.32396 0.7158 0.0
C1021 C 0.90709 0.27103 0.76308 0.0
C1022 C 0.90644 0.34065 0.76582 0.0
C1023 C 0.90631 0.32261 0.81445 0.0
H1024 H 0.63815 0.76543 0.41393 0.0
H1025 H 0.70864 0.78547 0.40827 0.0
H1026 H 0.71319 0.74449 0.3363 0.0
H1027 H 0.69652 0.7093 0.26721 0.0
H1028 H 0.62599 0.69096 0.26718 0.0
H1029 H 0.62204 0.72394 0.35058 0.0
C1030 C 0.65447 0.76071 0.39685 0.0
C1031 C 0.67299 0.77881 0.41565 0.0
C1032 C 0.65697 0.73706 0.35527 0.0
C1033 C 0.69414 0.77198 0.39422 0.0
C1034 C 0.69677 0.74851 0.35321 0.0
C1035 C 0.68045 0.71116 0.28694 0.0
C1036 C 0.66163 0.69731 0.2619 0.0
C1037 C 0.67825 0.73151 0.33266 0.0
C1038 C 0.64078 0.70069 0.28679 0.0
C1039 C 0.63848 0.72018 0.33367 0.0
H1040 H 0.63669 0.78211 0.91667 0.0
H1041 H 0.708 0.77085 0.90685 0.0
H1042 H 0.70977 0.81414 0.83815 0.0
H1043 H 0.6906 0.84809 0.77109 0.0
H1044 H 0.61925 0.85549 0.77286 0.0
H1045 H 0.61783 0.82209 0.85601 0.0
C1046 C 0.65258 0.78919 0.89943 0.0
C1047 C 0.67214 0.77289 0.91611 0.0
C1048 C 0.65345 0.81386 0.85928 0.0
C1049 C 0.69271 0.78291 0.89455 0.0
C1050 C 0.69375 0.8077 0.85535 0.0
C1051 C 0.67487 0.84376 0.79148 0.0
C1052 C 0.65511 0.85442 0.76679 0.0
C1053 C 0.67419 0.82263 0.83642 0.0
C1054 C 0.63469 0.84813 0.7922 0.0
C1055 C 0.63388 0.82832 0.83885 0.0
H1056 H 0.88605 0.27995 0.17823 0.0
H1057 H 0.88463 0.18931 0.27088 0.0
H1058 H 0.88244 0.22183 0.3555 0.0
H1059 H 0.88062 0.27634 0.40188 0.0
H1060 H 0.88095 0.36575 0.30586 0.0
H1061 H 0.88386 0.33295 0.22291 0.0
C1062 C 0.88522 0.26698 0.21676 0.0
C1063 C 0.8854 0.23214 0.21821 0.0
C1064 C 0.88369 0.28565 0.26435 0.0
C1065 C 0.88456 0.21607 0.2687 0.0
C1066 C 0.88321 0.23467 0.3169 0.0
C1067 C 0.88099 0.2886 0.36271 0.0
C1068 C 0.88041 0.32352 0.35997 0.0
C1069 C 0.8826 0.26951 0.31505 0.0
C1070 C 0.88146 0.33904 0.30907 0.0
C1071 C 0.88309 0.32029 0.2617 0.0
H1072 H 0.68573 0.20066 0.21654 0.0
H1073 H 0.61427 0.19991 0.22497 0.0
H1074 H 0.6122 0.23354 0.14204 0.0
H1075 H 0.63123 0.27069 0.07686 0.0
H1076 H 0.70302 0.27453 0.07584 0.0
H1077 H 0.70459 0.23251 0.14664 0.0
C1078 C 0.66972 0.20668 0.19879 0.0
C1079 C 0.65019 0.19757 0.22596 0.0
C1080 C 0.66882 0.22764 0.15368 0.0
C1081 C 0.62948 0.20601 0.20363 0.0
C1082 C 0.62836 0.22587 0.15705 0.0
C1083 C 0.64718 0.26229 0.09229 0.0
C1084 C 0.66698 0.27601 0.07173 0.0
C1085 C 0.64796 0.23823 0.13348 0.0
C1086 C 0.68755 0.2644 0.0911 0.0
C1087 C 0.68848 0.24033 0.13147 0.0
H1088 H 0.91514 0.76924 0.59086 0.0
H1089 H 0.84352 0.77513 0.58516 0.0
H1090 H 0.84412 0.81984 0.65236 0.0
H1091 H 0.8646 0.85044 0.72249 0.0
H1092 H 0.93564 0.83968 0.73533 0.0
H1093 H 0.93599 0.80539 0.65328 0.0
C1094 C 0.89968 0.78035 0.60439 0.0
C1095 C 0.87928 0.76834 0.58433 0.0
C1096 C 0.90016 0.80573 0.64335 0.0
C1097 C 0.8594 0.78369 0.60064 0.0
C1098 C 0.85975 0.80929 0.63887 0.0
C1099 C 0.88022 0.84162 0.70609 0.0
C1100 C 0.90006 0.84744 0.73475 0.0
C1101 C 0.87998 0.81976 0.66172 0.0
C1102 C 0.92023 0.83596 0.71319 0.0
C1103 C 0.92033 0.81566 0.66714 0.0
H1104 H 0.3748 0.25539 0.06774 0.0
H1105 H 0.43967 0.29955 0.09214 0.0
H1106 H 0.44722 0.26057 0.1649 0.0
H1107 H 0.43334 0.21913 0.22941 0.0
H1108 H 0.36956 0.17357 0.20264 0.0
H1109 H 0.36438 0.20628 0.11992 0.0
C1110 C 0.39091 0.25615 0.08752 0.0
C1111 C 0.4063 0.2814 0.07489 0.0
C1112 C 0.39558 0.23279 0.12817 0.0
C1113 C 0.42695 0.28164 0.10215 0.0
C1114 C 0.43153 0.25888 0.1433 0.0
C1115 C 0.4189 0.21511 0.20363 0.0
C1116 C 0.40193 0.19392 0.22142 0.0
C1117 C 0.41573 0.23496 0.15757 0.0
C1118 C 0.38301 0.1893 0.18888 0.0
C1119 C 0.37985 0.2086 0.14235 0.0
H1120 H 0.19667 0.8498 0.69859 0.0
H1121 H 0.12591 0.86587 0.69858 0.0
H1122 H 0.12233 0.83362 0.61447 0.0
H1123 H 0.13865 0.7919 0.55237 0.0
H1124 H 0.20929 0.77307 0.55836 0.0
H1125 H 0.21368 0.81512 0.62882 0.0
C1126 C 0.18063 0.84764 0.67854 0.0
C1127 C 0.1616 0.86038 0.70418 0.0
C1128 C 0.17863 0.82738 0.63252 0.0
C1129 C 0.14083 0.85693 0.67873 0.0
C1130 C 0.13875 0.83776 0.63144 0.0
C1131 C 0.15499 0.79717 0.56902 0.0
C1132 C 0.17356 0.77892 0.55098 0.0
C1133 C 0.15738 0.82128 0.60995 0.0
C1134 C 0.19473 0.78659 0.57178 0.0
C1135 C 0.19726 0.81066 0.61203 0.0
H1136 H 0.43125 0.81809 0.74647 0.0
H1137 H 0.37733 0.87793 0.80612 0.0
H1138 H 0.37848 0.84861 0.89331 0.0
H1139 H 0.3901 0.79937 0.94435 0.0
H1140 H 0.44325 0.738 0.88261 0.0
H1141 H 0.44676 0.77398 0.80354 0.0
C1142 C 0.42053 0.8257 0.77971 0.0
C1143 C 0.40455 0.85046 0.77074 0.0
C1144 C 0.42052 0.8075 0.8282 0.0
C1145 C 0.39018 0.85959 0.81298 0.0
C1146 C 0.39054 0.8423 0.86226 0.0
C1147 C 0.40287 0.79422 0.91445 0.0
C1148 C 0.41614 0.76553 0.91922 0.0
C1149 C 0.4049 0.81515 0.86917 0.0
C1150 C 0.43237 0.75925 0.8794 0.0
C1151 C 0.43457 0.78005 0.83442 0.0
H1152 H 0.19622 0.21835 0.2555 0.0
H1153 H 0.12782 0.19035 0.27906 0.0
H1154 H 0.12596 0.22505 0.36091 0.0
H1155 H 0.14207 0.27081 0.41512 0.0
H1156 H 0.21005 0.30048 0.38744 0.0
H1157 H 0.21388 0.25793 0.31728 0.0
C1158 C 0.18122 0.21883 0.28007 0.0
C1159 C 0.16222 0.2019 0.26194 0.0
C1160 C 0.18003 0.24007 0.32493 0.0
C1161 C 0.14274 0.20275 0.29317 0.0
C1162 C 0.14157 0.22317 0.33914 0.0
C1163 C 0.15771 0.2678 0.39369 0.0
C1164 C 0.17561 0.28915 0.40523 0.0
C1165 C 0.15976 0.24326 0.35354 0.0
C1166 C 0.196 0.28454 0.37858 0.0
C1167 C 0.19821 0.26019 0.3387 0.0
loop_
_geom_bond_atom_site_label_1
_geom_bond_atom_site_label_2
_geom_bond_distance
_geom_bond_site_symmetry_2
_ccdc_geom_bond_type
C0 C1 1.351 . S
C0 N3 1.368 . S
C0 H5 0.931 . S
C1 C0 1.351 . S
C1 N2 1.373 . S
C1 H29 0.930 . S
N2 C1 1.373 . S
N2 C4 1.340 . S
N3 C0 1.368 . S
N3 C4 1.321 . S
N3 Co6 2.135 . S
C4 N2 1.340 . S
C4 N3 1.321 . S
C4 H28 0.930 . S
H5 C0 0.931 . S
Co6 N3 2.135 . S
Co6 N9 2.121 . S
Co6 O14 2.055 . S
Co6 O17 2.039 . S
Co6 N20 2.140 . S
C7 O8 1.227 . S
C7 O17 1.265 . S
O8 C7 1.227 . S
N9 Co6 2.121 . S
N9 C11 1.375 . S
N9 C12 1.313 . S
C10 C11 1.338 . S
C10 N13 1.377 . S
C10 H30 0.930 . S
C11 N9 1.375 . S
C11 C10 1.338 . S
C11 H15 0.931 . S
C12 N9 1.313 . S
C12 N13 1.344 . S
C12 H16 0.930 . S
N13 C10 1.377 . S
N13 C12 1.344 . S
O14 Co6 2.055 . S
O14 C18 1.253 . S
H15 C11 0.931 . S
H16 C12 0.930 . S
O17 Co6 2.039 . S
O17 C7 1.265 . S
C18 O14 1.253 . S
C18 O19 1.227 . S
O19 C18 1.227 . S
N20 Co6 2.140 . S
N20 C23 1.346 . S
N20 C24 1.345 . S
C21 C22 1.387 . S
C21 C25 1.391 . S
C22 C21 1.387 . S
C22 C23 1.369 1_556 S
C22 H31 0.929 . S
C23 N20 1.346 . S
C23 C22 1.369 1_554 S
C23 H26 0.928 . S
C24 N20 1.345 . S
C24 C25 1.371 1_554 S
C24 H27 0.931 . S
C25 C21 1.391 . S
C25 C24 1.371 1_556 S
C25 H32 0.930 . S
H26 C23 0.928 . S
H27 C24 0.931 . S
H28 C4 0.930 . S
H29 C1 0.930 . S
H30 C10 0.930 . S
H31 C22 0.929 . S
H32 C25 0.930 . S
C33 C34 1.351 . S
C33 N36 1.368 . S
C33 H38 0.931 . S
C34 C33 1.351 . S
C34 N35 1.373 . S
C34 H62 0.930 . S
N35 C34 1.373 . S
N35 C37 1.340 . S
N36 C33 1.368 . S
N36 C37 1.321 . S
N36 Co39 2.135 . S
C37 N35 1.340 . S
C37 N36 1.321 . S
C37 H61 0.930 . S
H38 C33 0.931 . S
Co39 N36 2.135 . S
Co39 N42 2.121 . S
Co39 O47 2.055 . S
Co39 O50 2.039 . S
Co39 N53 2.140 . S
C40 O41 1.227 . S
C40 O50 1.265 . S
O41 C40 1.227 . S
N42 Co39 2.121 . S
N42 C44 1.375 . S
N42 C45 1.313 . S
C43 C44 1.338 . S
C43 N46 1.377 . S
C43 H63 0.930 . S
C44 N42 1.375 . S
C44 C43 1.338 . S
C44 H48 0.931 . S
C45 N42 1.313 . S
C45 N46 1.344 . S
C45 H49 0.930 . S
N46 C43 1.377 . S
N46 C45 1.344 . S
O47 Co39 2.055 . S
O47 C51 1.253 . S
H48 C44 0.931 . S
H49 C45 0.930 . S
O50 Co39 2.039 . S
O50 C40 1.265 . S
C51 O47 1.253 . S
C51 O52 1.227 . S
O52 C51 1.227 . S
N53 Co39 2.140 . S
N53 C56 1.346 . S
N53 C57 1.345 . S
C54 C55 1.387 . S
C54 C58 1.391 . S
C55 C54 1.387 . S
C55 C56 1.369 . S
C55 H64 0.929 . S
C56 N53 1.346 . S
C56 C55 1.369 . S
C56 H59 0.928 . S
C57 N53 1.345 . S
C57 C58 1.371 . S
C57 H60 0.931 . S
C58 C54 1.391 . S
C58 C57 1.371 . S
C58 H65 0.930 . S
H59 C56 0.928 . S
H60 C57 0.931 . S
H61 C37 0.930 . S
H62 C34 0.930 . S
H63 C43 0.930 . S
H64 C55 0.929 . S
H65 C58 0.930 . S
C66 C67 1.351 . S
C66 N69 1.368 . S
C66 H71 0.931 . S
C67 C66 1.351 . S
C67 N68 1.373 . S
C67 H95 0.930 . S
N68 C67 1.373 . S
N68 C70 1.340 . S
N69 C66 1.368 . S
N69 C70 1.321 . S
N69 Co72 2.135 . S
C70 N68 1.340 . S
C70 N69 1.321 . S
C70 H94 0.930 . S
H71 C66 0.931 . S
Co72 N69 2.135 . S
Co72 N75 2.121 . S
Co72 O80 2.055 . S
Co72 O83 2.039 . S
Co72 N86 2.140 . S
C73 O74 1.227 . S
C73 O83 1.265 . S
O74 C73 1.227 . S
N75 Co72 2.121 . S
N75 C77 1.375 . S
N75 C78 1.313 . S
C76 C77 1.338 . S
C76 N79 1.377 . S
C76 H96 0.930 . S
C77 N75 1.375 . S
C77 C76 1.338 . S
C77 H81 0.931 . S
C78 N75 1.313 . S
C78 N79 1.344 . S
C78 H82 0.930 . S
N79 C76 1.377 . S
N79 C78 1.344 . S
O80 Co72 2.055 . S
O80 C84 1.253 . S
H81 C77 0.931 . S
H82 C78 0.930 . S
O83 Co72 2.039 . S
O83 C73 1.265 . S
C84 O80 1.253 . S
C84 O85 1.227 . S
O85 C84 1.227 . S
N86 Co72 2.140 . S
N86 C89 1.346 . S
N86 C90 1.345 . S
C87 C88 1.387 . S
C87 C91 1.391 . S
C88 C87 1.387 . S
C88 C89 1.369 1_554 S
C88 H97 0.929 . S
C89 N86 1.346 . S
C89 C88 1.369 1_556 S
C89 H92 0.928 . S
C90 N86 1.345 . S
C90 C91 1.371 1_556 S
C90 H93 0.931 . S
C91 C87 1.391 . S
C91 C90 1.371 1_554 S
C91 H98 0.930 . S
H92 C89 0.928 . S
H93 C90 0.931 . S
H94 C70 0.930 . S
H95 C67 0.930 . S
H96 C76 0.930 . S
H97 C88 0.929 . S
H98 C91 0.930 . S
C99 C100 1.351 . S
C99 N102 1.368 . S
C99 H104 0.931 . S
C100 C99 1.351 . S
C100 N101 1.373 . S
C100 H128 0.930 . S
N101 C100 1.373 . S
N101 C103 1.340 . S
N102 C99 1.368 . S
N102 C103 1.321 . S
N102 Co105 2.135 . S
C103 N101 1.340 . S
C103 N102 1.321 . S
C103 H127 0.930 . S
H104 C99 0.931 . S
Co105 N102 2.135 . S
Co105 N108 2.121 . S
Co105 O113 2.055 . S
Co105 O116 2.039 . S
Co105 N119 2.140 . S
C106 O107 1.227 . S
C106 O116 1.265 . S
O107 C106 1.227 . S
N108 Co105 2.121 . S
N108 C110 1.375 . S
N108 C111 1.313 . S
C109 C110 1.338 . S
C109 N112 1.377 . S
C109 H129 0.930 . S
C110 N108 1.375 . S
C110 C109 1.338 . S
C110 H114 0.931 . S
C111 N108 1.313 . S
C111 N112 1.344 . S
C111 H115 0.930 . S
N112 C109 1.377 . S
N112 C111 1.344 . S
O113 Co105 2.055 . S
O113 C117 1.253 . S
H114 C110 0.931 . S
H115 C111 0.930 . S
O116 Co105 2.039 . S
O116 C106 1.265 . S
C117 O113 1.253 . S
C117 O118 1.227 . S
O118 C117 1.227 . S
N119 Co105 2.140 . S
N119 C122 1.346 . S
N119 C123 1.345 . S
C120 C121 1.387 . S
C120 C124 1.391 . S
C121 C120 1.387 . S
C121 C122 1.369 . S
C121 H130 0.929 . S
C122 N119 1.346 . S
C122 C121 1.369 . S
C122 H125 0.928 . S
C123 N119 1.345 . S
C123 C124 1.371 . S
C123 H126 0.931 . S
C124 C120 1.391 . S
C124 C123 1.371 . S
C124 H131 0.930 . S
H125 C122 0.928 . S
H126 C123 0.931 . S
H127 C103 0.930 . S
H128 C100 0.930 . S
H129 C109 0.930 . S
H130 C121 0.929 . S
H131 C124 0.930 . S
C132 C133 1.351 . S
C132 N135 1.368 . S
C132 H137 0.931 . S
C133 C132 1.351 . S
C133 N134 1.373 . S
C133 H161 0.930 . S
N134 C133 1.373 . S
N134 C136 1.340 . S
N135 C132 1.368 . S
N135 C136 1.321 . S
N135 Co138 2.135 . S
C136 N134 1.340 . S
C136 N135 1.321 . S
C136 H160 0.930 . S
H137 C132 0.931 . S
Co138 N135 2.135 . S
Co138 N141 2.121 . S
Co138 O146 2.055 . S
Co138 O149 2.039 . S
Co138 N152 2.140 . S
C139 O140 1.227 . S
C139 O149 1.265 . S
O140 C139 1.227 . S
N141 Co138 2.121 . S
N141 C143 1.375 . S
N141 C144 1.313 . S
C142 C143 1.338 . S
C142 N145 1.377 . S
C142 H162 0.930 . S
C143 N141 1.375 . S
C143 C142 1.338 . S
C143 H147 0.931 . S
C144 N141 1.313 . S
C144 N145 1.344 . S
C144 H148 0.930 . S
N145 C142 1.377 . S
N145 C144 1.344 . S
O146 Co138 2.055 . S
O146 C150 1.253 . S
H147 C143 0.931 . S
H148 C144 0.930 . S
O149 Co138 2.039 . S
O149 C139 1.265 . S
C150 O146 1.253 . S
C150 O151 1.227 . S
O151 C150 1.227 . S
N152 Co138 2.140 . S
N152 C155 1.346 . S
N152 C156 1.345 . S
C153 C154 1.387 . S
C153 C157 1.391 . S
C154 C153 1.387 . S
C154 C155 1.369 1_554 S
C154 H163 0.929 . S
C155 N152 1.346 . S
C155 C154 1.369 1_556 S
C155 H158 0.928 . S
C156 N152 1.345 . S
C156 C157 1.371 1_556 S
C156 H159 0.931 . S
C157 C153 1.391 . S
C157 C156 1.371 1_554 S
C157 H164 0.930 . S
H158 C155 0.928 . S
H159 C156 0.931 . S
H160 C136 0.930 . S
H161 C133 0.930 . S
H162 C142 0.930 . S
H163 C154 0.929 . S
H164 C157 0.930 . S
C165 C166 1.351 . S
C165 N168 1.368 . S
C165 H170 0.931 . S
C166 C165 1.351 . S
C166 N167 1.373 . S
C166 H194 0.930 . S
N167 C166 1.373 . S
N167 C169 1.340 . S
N168 C165 1.368 . S
N168 C169 1.321 . S
N168 Co171 2.135 . S
C169 N167 1.340 . S
C169 N168 1.321 . S
C169 H193 0.930 . S
H170 C165 0.931 . S
Co171 N168 2.135 . S
Co171 N174 2.121 . S
Co171 O179 2.055 . S
Co171 O182 2.039 . S
Co171 N185 2.140 . S
C172 O173 1.227 . S
C172 O182 1.265 . S
O173 C172 1.227 . S
N174 Co171 2.121 . S
N174 C176 1.375 . S
N174 C177 1.313 . S
C175 C176 1.338 . S
C175 N178 1.377 . S
C175 H195 0.930 . S
C176 N174 1.375 . S
C176 C175 1.338 . S
C176 H180 0.931 . S
C177 N174 1.313 . S
C177 N178 1.344 . S
C177 H181 0.930 . S
N178 C175 1.377 . S
N178 C177 1.344 . S
O179 Co171 2.055 . S
O179 C183 1.253 . S
H180 C176 0.931 . S
H181 C177 0.930 . S
O182 Co171 2.039 . S
O182 C172 1.265 . S
C183 O179 1.253 . S
C183 O184 1.227 . S
O184 C183 1.227 . S
N185 Co171 2.140 . S
N185 C188 1.346 . S
N185 C189 1.345 . S
C186 C187 1.387 . S
C186 C190 1.391 . S
C187 C186 1.387 . S
C187 C188 1.369 . S
C187 H196 0.929 . S
C188 N185 1.346 . S
C188 C187 1.369 . S
C188 H191 0.928 . S
C189 N185 1.345 . S
C189 C190 1.371 . S
C189 H192 0.931 . S
C190 C186 1.391 . S
C190 C189 1.371 . S
C190 H197 0.930 . S
H191 C188 0.928 . S
H192 C189 0.931 . S
H193 C169 0.930 . S
H194 C166 0.930 . S
H195 C175 0.930 . S
H196 C187 0.929 . S
H197 C190 0.930 . S
C198 C199 1.351 . S
C198 N201 1.368 . S
C198 H203 0.931 . S
C199 C198 1.351 . S
C199 N200 1.373 . S
C199 H227 0.930 . S
N200 C199 1.373 . S
N200 C202 1.340 . S
N201 C198 1.368 . S
N201 C202 1.321 . S
N201 Co204 2.135 . S
C202 N200 1.340 . S
C202 N201 1.321 . S
C202 H226 0.930 . S
H203 C198 0.931 . S
Co204 N201 2.135 . S
Co204 N207 2.121 . S
Co204 O212 2.055 . S
Co204 O215 2.039 . S
Co204 N218 2.140 . S
C205 O206 1.227 . S
C205 O215 1.265 . S
O206 C205 1.227 . S
N207 Co204 2.121 . S
N207 C209 1.375 . S
N207 C210 1.313 . S
C208 C209 1.338 . S
C208 N211 1.377 . S
C208 H228 0.930 . S
C209 N207 1.375 . S
C209 C208 1.338 . S
C209 H213 0.931 . S
C210 N207 1.313 . S
C210 N211 1.344 . S
C210 H214 0.930 . S
N211 C208 1.377 . S
N211 C210 1.344 . S
O212 Co204 2.055 . S
O212 C216 1.253 . S
H213 C209 0.931 . S
H214 C210 0.930 . S
O215 Co204 2.039 . S
O215 C205 1.265 . S
C216 O212 1.253 . S
C216 O217 1.227 . S
O217 C216 1.227 . S
N218 Co204 2.140 . S
N218 C221 1.346 . S
N218 C222 1.345 . S
C219 C220 1.387 . S
C219 C223 1.391 . S
C220 C219 1.387 . S
C220 C221 1.369 1_556 S
C220 H229 0.929 . S
C221 N218 1.346 . S
C221 C220 1.369 1_554 S
C221 H224 0.928 . S
C222 N218 1.345 . S
C222 C223 1.371 1_554 S
C222 H225 0.931 . S
C223 C219 1.391 . S
C223 C222 1.371 1_556 S
C223 H230 0.930 . S
H224 C221 0.928 . S
H225 C222 0.931 . S
H226 C202 0.930 . S
H227 C199 0.930 . S
H228 C208 0.930 . S
H229 C220 0.929 . S
H230 C223 0.930 . S
C231 C232 1.351 . S
C231 N234 1.368 . S
C231 H236 0.931 . S
C232 C231 1.351 . S
C232 N233 1.373 . S
C232 H260 0.930 . S
N233 C232 1.373 . S
N233 C235 1.340 . S
N234 C231 1.368 . S
N234 C235 1.321 . S
N234 Co237 2.135 . S
C235 N233 1.340 . S
C235 N234 1.321 . S
C235 H259 0.930 . S
H236 C231 0.931 . S
Co237 N234 2.135 . S
Co237 N240 2.121 . S
Co237 O245 2.055 . S
Co237 O248 2.039 . S
Co237 N251 2.140 . S
C238 O239 1.227 . S
C238 O248 1.265 . S
O239 C238 1.227 . S
N240 Co237 2.121 . S
N240 C242 1.375 . S
N240 C243 1.313 . S
C241 C242 1.338 . S
C241 N244 1.377 . S
C241 H261 0.930 . S
C242 N240 1.375 . S
C242 C241 1.338 . S
C242 H246 0.931 . S
C243 N240 1.313 . S
C243 N244 1.344 . S
C243 H247 0.930 . S
N244 C241 1.377 . S
N244 C243 1.344 . S
O245 Co237 2.055 . S
O245 C249 1.253 . S
H246 C242 0.931 . S
H247 C243 0.930 . S
O248 Co237 2.039 . S
O248 C238 1.265 . S
C249 O245 1.253 . S
C249 O250 1.227 . S
O250 C249 1.227 . S
N251 Co237 2.140 . S
N251 C254 1.346 . S
N251 C255 1.345 . S
C252 C253 1.387 . S
C252 C256 1.391 . S
C253 C252 1.387 . S
C253 C254 1.369 . S
C253 H262 0.929 . S
C254 N251 1.346 . S
C254 C253 1.369 . S
C254 H257 0.928 . S
C255 N251 1.345 . S
C255 C256 1.371 . S
C255 H258 0.931 . S
C256 C252 1.391 . S
C256 C255 1.371 . S
C256 H263 0.930 . S
H257 C254 0.928 . S
H258 C255 0.931 . S
H259 C235 0.930 . S
H260 C232 0.930 . S
H261 C241 0.930 . S
H262 C253 0.929 . S
H263 C256 0.930 . S
C264 C265 1.351 . S
C264 N267 1.368 . S
C264 H269 0.931 . S
C265 C264 1.351 . S
C265 N266 1.373 . S
C265 H293 0.930 . S
N266 C265 1.373 . S
N266 C268 1.340 . S
N267 C264 1.368 . S
N267 C268 1.321 . S
N267 Co270 2.135 . S
C268 N266 1.340 . S
C268 N267 1.321 . S
C268 H292 0.930 . S
H269 C264 0.931 . S
Co270 N267 2.135 . S
Co270 N273 2.121 . S
Co270 O278 2.055 . S
Co270 O281 2.039 . S
Co270 N284 2.140 . S
C271 O272 1.227 . S
C271 O281 1.265 . S
O272 C271 1.227 . S
N273 Co270 2.121 . S
N273 C275 1.375 . S
N273 C276 1.313 . S
C274 C275 1.338 . S
C274 N277 1.377 . S
C274 H294 0.930 . S
C275 N273 1.375 . S
C275 C274 1.338 . S
C275 H279 0.931 . S
C276 N273 1.313 . S
C276 N277 1.344 . S
C276 H280 0.930 . S
N277 C274 1.377 . S
N277 C276 1.344 . S
O278 Co270 2.055 . S
O278 C282 1.253 . S
H279 C275 0.931 . S
H280 C276 0.930 . S
O281 Co270 2.039 . S
O281 C271 1.265 . S
C282 O278 1.253 . S
C282 O283 1.227 . S
O283 C282 1.227 . S
N284 Co270 2.140 . S
N284 C287 1.346 . S
N284 C288 1.345 . S
C285 C286 1.387 . S
C285 C289 1.391 . S
C286 C285 1.387 . S
C286 C287 1.369 1_556 S
C286 H295 0.929 . S
C287 N284 1.346 . S
C287 C286 1.369 1_554 S
C287 H290 0.928 . S
C288 N284 1.345 . S
C288 C289 1.371 1_554 S
C288 H291 0.931 . S
C289 C285 1.391 . S
C289 C288 1.371 1_556 S
C289 H296 0.930 . S
H290 C287 0.928 . S
H291 C288 0.931 . S
H292 C268 0.930 . S
H293 C265 0.930 . S
H294 C274 0.930 . S
H295 C286 0.929 . S
H296 C289 0.930 . S
C297 C298 1.351 . S
C297 N300 1.368 . S
C297 H302 0.931 . S
C298 C297 1.351 . S
C298 N299 1.373 . S
C298 H326 0.930 . S
N299 C298 1.373 . S
N299 C301 1.340 . S
N300 C297 1.368 . S
N300 C301 1.321 . S
N300 Co303 2.135 . S
C301 N299 1.340 . S
C301 N300 1.321 . S
C301 H325 0.930 . S
H302 C297 0.931 . S
Co303 N300 2.135 . S
Co303 N306 2.121 . S
Co303 O311 2.055 . S
Co303 O314 2.039 . S
Co303 N317 2.140 . S
C304 O305 1.227 . S
C304 O314 1.265 . S
O305 C304 1.227 . S
N306 Co303 2.121 . S
N306 C308 1.375 . S
N306 C309 1.313 . S
C307 C308 1.338 . S
C307 N310 1.377 . S
C307 H327 0.930 . S
C308 N306 1.375 . S
C308 C307 1.338 . S
C308 H312 0.931 . S
C309 N306 1.313 . S
C309 N310 1.344 . S
C309 H313 0.930 . S
N310 C307 1.377 . S
N310 C309 1.344 . S
O311 Co303 2.055 . S
O311 C315 1.253 . S
H312 C308 0.931 . S
H313 C309 0.930 . S
O314 Co303 2.039 . S
O314 C304 1.265 . S
C315 O311 1.253 . S
C315 O316 1.227 . S
O316 C315 1.227 . S
N317 Co303 2.140 . S
N317 C320 1.346 . S
N317 C321 1.345 . S
C318 C319 1.387 . S
C318 C322 1.391 . S
C319 C318 1.387 . S
C319 C320 1.369 . S
C319 H328 0.929 . S
C320 N317 1.346 . S
C320 C319 1.369 . S
C320 H323 0.928 . S
C321 N317 1.345 . S
C321 C322 1.371 . S
C321 H324 0.931 . S
C322 C318 1.391 . S
C322 C321 1.371 . S
C322 H329 0.930 . S
H323 C320 0.928 . S
H324 C321 0.931 . S
H325 C301 0.930 . S
H326 C298 0.930 . S
H327 C307 0.930 . S
H328 C319 0.929 . S
H329 C322 0.930 . S
C330 C331 1.351 . S
C330 N333 1.368 . S
C330 H335 0.931 . S
C331 C330 1.351 . S
C331 N332 1.373 . S
C331 H359 0.930 . S
N332 C331 1.373 . S
N332 C334 1.340 . S
N333 C330 1.368 . S
N333 C334 1.321 . S
N333 Co336 2.135 . S
C334 N332 1.340 . S
C334 N333 1.321 . S
C334 H358 0.930 . S
H335 C330 0.931 . S
Co336 N333 2.135 . S
Co336 N339 2.121 . S
Co336 O344 2.055 . S
Co336 O347 2.039 . S
Co336 N350 2.140 . S
C337 O338 1.227 . S
C337 O347 1.265 . S
O338 C337 1.227 . S
N339 Co336 2.121 . S
N339 C341 1.375 . S
N339 C342 1.313 . S
C340 C341 1.338 . S
C340 N343 1.377 . S
C340 H360 0.930 . S
C341 N339 1.375 . S
C341 C340 1.338 . S
C341 H345 0.931 . S
C342 N339 1.313 . S
C342 N343 1.344 . S
C342 H346 0.930 . S
N343 C340 1.377 . S
N343 C342 1.344 . S
O344 Co336 2.055 . S
O344 C348 1.253 . S
H345 C341 0.931 . S
H346 C342 0.930 . S
O347 Co336 2.039 . S
O347 C337 1.265 . S
C348 O344 1.253 . S
C348 O349 1.227 . S
O349 C348 1.227 . S
N350 Co336 2.140 . S
N350 C353 1.346 . S
N350 C354 1.345 . S
C351 C352 1.387 . S
C351 C355 1.391 . S
C352 C351 1.387 . S
C352 C353 1.369 1_554 S
C352 H361 0.929 . S
C353 N350 1.346 . S
C353 C352 1.369 1_556 S
C353 H356 0.928 . S
C354 N350 1.345 . S
C354 C355 1.371 1_556 S
C354 H357 0.931 . S
C355 C351 1.391 . S
C355 C354 1.371 1_554 S
C355 H362 0.930 . S
H356 C353 0.928 . S
H357 C354 0.931 . S
H358 C334 0.930 . S
H359 C331 0.930 . S
H360 C340 0.930 . S
H361 C352 0.929 . S
H362 C355 0.930 . S
C363 C364 1.351 . S
C363 N366 1.368 . S
C363 H368 0.931 . S
C364 C363 1.351 . S
C364 N365 1.373 . S
C364 H392 0.930 . S
N365 C364 1.373 . S
N365 C367 1.340 . S
N366 C363 1.368 . S
N366 C367 1.321 . S
N366 Co369 2.135 . S
C367 N365 1.340 . S
C367 N366 1.321 . S
C367 H391 0.930 . S
H368 C363 0.931 . S
Co369 N366 2.135 . S
Co369 N372 2.121 . S
Co369 O377 2.055 . S
Co369 O380 2.039 . S
Co369 N383 2.140 . S
C370 O371 1.227 . S
C370 O380 1.265 . S
O371 C370 1.227 . S
N372 Co369 2.121 . S
N372 C374 1.375 . S
N372 C375 1.313 . S
C373 C374 1.338 . S
C373 N376 1.377 . S
C373 H393 0.930 . S
C374 N372 1.375 . S
C374 C373 1.338 . S
C374 H378 0.931 . S
C375 N372 1.313 . S
C375 N376 1.344 . S
C375 H379 0.930 . S
N376 C373 1.377 . S
N376 C375 1.344 . S
O377 Co369 2.055 . S
O377 C381 1.253 . S
H378 C374 0.931 . S
H379 C375 0.930 . S
O380 Co369 2.039 . S
O380 C370 1.265 . S
C381 O377 1.253 . S
C381 O382 1.227 . S
O382 C381 1.227 . S
N383 Co369 2.140 . S
N383 C386 1.346 . S
N383 C387 1.345 . S
C384 C385 1.387 . S
C384 C388 1.391 . S
C385 C384 1.387 . S
C385 C386 1.369 . S
C385 H394 0.929 . S
C386 N383 1.346 . S
C386 C385 1.369 . S
C386 H389 0.928 . S
C387 N383 1.345 . S
C387 C388 1.371 . S
C387 H390 0.931 . S
C388 C384 1.391 . S
C388 C387 1.371 . S
C388 H395 0.930 . S
H389 C386 0.928 . S
H390 C387 0.931 . S
H391 C367 0.930 . S
H392 C364 0.930 . S
H393 C373 0.930 . S
H394 C385 0.929 . S
H395 C388 0.930 . S
C396 C397 1.351 . S
C396 N399 1.368 . S
C396 H401 0.931 . S
C397 C396 1.351 . S
C397 N398 1.373 . S
C397 H425 0.930 . S
N398 C397 1.373 . S
N398 C400 1.340 . S
N399 C396 1.368 . S
N399 C400 1.321 . S
N399 Co402 2.135 . S
C400 N398 1.340 . S
C400 N399 1.321 . S
C400 H424 0.930 . S
H401 C396 0.931 . S
Co402 N399 2.135 . S
Co402 N405 2.121 . S
Co402 O410 2.055 . S
Co402 O413 2.039 . S
Co402 N416 2.140 . S
C403 O404 1.227 . S
C403 O413 1.265 . S
O404 C403 1.227 . S
N405 Co402 2.121 . S
N405 C407 1.375 . S
N405 C408 1.313 . S
C406 C407 1.338 . S
C406 N409 1.377 . S
C406 H426 0.930 . S
C407 N405 1.375 . S
C407 C406 1.338 . S
C407 H411 0.931 . S
C408 N405 1.313 . S
C408 N409 1.344 . S
C408 H412 0.930 . S
N409 C406 1.377 . S
N409 C408 1.344 . S
O410 Co402 2.055 . S
O410 C414 1.253 . S
H411 C407 0.931 . S
H412 C408 0.930 . S
O413 Co402 2.039 . S
O413 C403 1.265 . S
C414 O410 1.253 . S
C414 O415 1.227 . S
O415 C414 1.227 . S
N416 Co402 2.140 . S
N416 C419 1.346 . S
N416 C420 1.345 . S
C417 C418 1.387 . S
C417 C421 1.391 . S
C418 C417 1.387 . S
C418 C419 1.369 1_554 S
C418 H427 0.929 . S
C419 N416 1.346 . S
C419 C418 1.369 1_556 S
C419 H422 0.928 . S
C420 N416 1.345 . S
C420 C421 1.371 1_556 S
C420 H423 0.931 . S
C421 C417 1.391 . S
C421 C420 1.371 1_554 S
C421 H428 0.930 . S
H422 C419 0.928 . S
H423 C420 0.931 . S
H424 C400 0.930 . S
H425 C397 0.930 . S
H426 C406 0.930 . S
H427 C418 0.929 . S
H428 C421 0.930 . S
C429 C430 1.351 . S
C429 N432 1.368 . S
C429 H434 0.931 . S
C430 C429 1.351 . S
C430 N431 1.373 . S
C430 H458 0.930 . S
N431 C430 1.373 . S
N431 C433 1.340 . S
N432 C429 1.368 . S
N432 C433 1.321 . S
N432 Co435 2.135 . S
C433 N431 1.340 . S
C433 N432 1.321 . S
C433 H457 0.930 . S
H434 C429 0.931 . S
Co435 N432 2.135 . S
Co435 N438 2.121 . S
Co435 O443 2.055 . S
Co435 O446 2.039 . S
Co435 N449 2.140 . S
C436 O437 1.227 . S
C436 O446 1.265 . S
O437 C436 1.227 . S
N438 Co435 2.121 . S
N438 C440 1.375 . S
N438 C441 1.313 . S
C439 C440 1.338 . S
C439 N442 1.377 . S
C439 H459 0.930 . S
C440 N438 1.375 . S
C440 C439 1.338 . S
C440 H444 0.931 . S
C441 N438 1.313 . S
C441 N442 1.344 . S
C441 H445 0.930 . S
N442 C439 1.377 . S
N442 C441 1.344 . S
O443 Co435 2.055 . S
O443 C447 1.253 . S
H444 C440 0.931 . S
H445 C441 0.930 . S
O446 Co435 2.039 . S
O446 C436 1.265 . S
C447 O443 1.253 . S
C447 O448 1.227 . S
O448 C447 1.227 . S
N449 Co435 2.140 . S
N449 C452 1.346 . S
N449 C453 1.345 . S
C450 C451 1.387 . S
C450 C454 1.391 . S
C451 C450 1.387 . S
C451 C452 1.369 . S
C451 H460 0.929 . S
C452 N449 1.346 . S
C452 C451 1.369 . S
C452 H455 0.928 . S
C453 N449 1.345 . S
C453 C454 1.371 . S
C453 H456 0.931 . S
C454 C450 1.391 . S
C454 C453 1.371 . S
C454 H461 0.930 . S
H455 C452 0.928 . S
H456 C453 0.931 . S
H457 C433 0.930 . S
H458 C430 0.930 . S
H459 C439 0.930 . S
H460 C451 0.929 . S
H461 C454 0.930 . S
C462 C463 1.351 . S
C462 N465 1.368 . S
C462 H467 0.931 . S
C463 C462 1.351 . S
C463 N464 1.373 . S
C463 H491 0.930 . S
N464 C463 1.373 . S
N464 C466 1.340 . S
N465 C462 1.368 . S
N465 C466 1.321 . S
N465 Co468 2.135 . S
C466 N464 1.340 . S
C466 N465 1.321 . S
C466 H490 0.930 . S
H467 C462 0.931 . S
Co468 N465 2.135 . S
Co468 N471 2.121 . S
Co468 O476 2.055 . S
Co468 O479 2.039 . S
Co468 N482 2.140 . S
C469 O470 1.227 . S
C469 O479 1.265 . S
O470 C469 1.227 . S
N471 Co468 2.121 . S
N471 C473 1.375 . S
N471 C474 1.313 . S
C472 C473 1.338 . S
C472 N475 1.377 . S
C472 H492 0.930 . S
C473 N471 1.375 . S
C473 C472 1.338 . S
C473 H477 0.931 . S
C474 N471 1.313 . S
C474 N475 1.344 . S
C474 H478 0.930 . S
N475 C472 1.377 . S
N475 C474 1.344 . S
O476 Co468 2.055 . S
O476 C480 1.253 . S
H477 C473 0.931 . S
H478 C474 0.930 . S
O479 Co468 2.039 . S
O479 C469 1.265 . S
C480 O476 1.253 . S
C480 O481 1.227 . S
O481 C480 1.227 . S
N482 Co468 2.140 . S
N482 C485 1.346 . S
N482 C486 1.345 . S
C483 C484 1.387 . S
C483 C487 1.391 . S
C484 C483 1.387 . S
C484 C485 1.369 1_556 S
C484 H493 0.929 . S
C485 N482 1.346 . S
C485 C484 1.369 1_554 S
C485 H488 0.928 . S
C486 N482 1.345 . S
C486 C487 1.371 1_554 S
C486 H489 0.931 . S
C487 C483 1.391 . S
C487 C486 1.371 1_556 S
C487 H494 0.930 . S
H488 C485 0.928 . S
H489 C486 0.931 . S
H490 C466 0.930 . S
H491 C463 0.930 . S
H492 C472 0.930 . S
H493 C484 0.929 . S
H494 C487 0.930 . S
C495 C496 1.351 . S
C495 N498 1.368 . S
C495 H500 0.931 . S
C496 C495 1.351 . S
C496 N497 1.373 . S
C496 H524 0.930 . S
N497 C496 1.373 . S
N497 C499 1.340 . S
N498 C495 1.368 . S
N498 C499 1.321 . S
N498 Co501 2.135 . S
C499 N497 1.340 . S
C499 N498 1.321 . S
C499 H523 0.930 . S
H500 C495 0.931 . S
Co501 N498 2.135 . S
Co501 N504 2.121 . S
Co501 O509 2.055 . S
Co501 O512 2.039 . S
Co501 N515 2.140 . S
C502 O503 1.227 . S
C502 O512 1.265 . S
O503 C502 1.227 . S
N504 Co501 2.121 . S
N504 C506 1.375 . S
N504 C507 1.313 . S
C505 C506 1.338 . S
C505 N508 1.377 . S
C505 H525 0.930 . S
C506 N504 1.375 . S
C506 C505 1.338 . S
C506 H510 0.931 . S
C507 N504 1.313 . S
C507 N508 1.344 . S
C507 H511 0.930 . S
N508 C505 1.377 . S
N508 C507 1.344 . S
O509 Co501 2.055 . S
O509 C513 1.253 . S
H510 C506 0.931 . S
H511 C507 0.930 . S
O512 Co501 2.039 . S
O512 C502 1.265 . S
C513 O509 1.253 . S
C513 O514 1.227 . S
O514 C513 1.227 . S
N515 Co501 2.140 . S
N515 C518 1.346 . S
N515 C519 1.345 . S
C516 C517 1.387 . S
C516 C520 1.391 . S
C517 C516 1.387 . S
C517 C518 1.369 . S
C517 H526 0.929 . S
C518 N515 1.346 . S
C518 C517 1.369 . S
C518 H521 0.928 . S
C519 N515 1.345 . S
C519 C520 1.371 . S
C519 H522 0.931 . S
C520 C516 1.391 . S
C520 C519 1.371 . S
C520 H527 0.930 . S
H521 C518 0.928 . S
H522 C519 0.931 . S
H523 C499 0.930 . S
H524 C496 0.930 . S
H525 C505 0.930 . S
H526 C517 0.929 . S
H527 C520 0.930 . S
H528 C534 0.930 . S
H529 C537 0.930 . S
H530 C538 0.930 . S
H531 C539 0.930 . S
H532 C542 0.930 . S
H533 C543 0.930 . S
C534 H528 0.930 . S
C534 C535 1.355 . S
C534 C536 1.415 . S
C535 C534 1.355 . S
C535 C537 1.419 . S
C536 C534 1.415 . S
C536 C541 1.425 . S
C536 C543 1.409 . S
C537 H529 0.930 . S
C537 C535 1.419 . S
C537 C538 1.362 . S
C538 H530 0.930 . S
C538 C537 1.362 . S
C538 C541 1.409 . S
C539 H531 0.930 . S
C539 C540 1.355 . S
C539 C541 1.415 . S
C540 C539 1.355 . S
C540 C542 1.419 . S
C541 C536 1.425 . S
C541 C538 1.409 . S
C541 C539 1.415 . S
C542 H532 0.930 . S
C542 C540 1.419 . S
C542 C543 1.362 . S
C543 H533 0.930 . S
C543 C536 1.409 . S
C543 C542 1.362 . S
H544 C550 0.930 . S
H545 C553 0.930 . S
H546 C554 0.930 . S
H547 C555 0.930 . S
H548 C558 0.930 . S
H549 C559 0.930 . S
C550 H544 0.930 . S
C550 C551 1.355 . S
C550 C552 1.415 . S
C551 C550 1.355 . S
C551 C553 1.419 . S
C552 C550 1.415 . S
C552 C557 1.425 . S
C552 C559 1.409 . S
C553 H545 0.930 . S
C553 C551 1.419 . S
C553 C554 1.362 . S
C554 H546 0.930 . S
C554 C553 1.362 . S
C554 C557 1.409 . S
C555 H547 0.930 . S
C555 C556 1.355 . S
C555 C557 1.415 . S
C556 C555 1.355 . S
C556 C558 1.419 . S
C557 C552 1.425 . S
C557 C554 1.409 . S
C557 C555 1.415 . S
C558 H548 0.930 . S
C558 C556 1.419 . S
C558 C559 1.362 . S
C559 H549 0.930 . S
C559 C552 1.409 . S
C559 C558 1.362 . S
H560 C566 0.930 . S
H561 C569 0.930 . S
H562 C570 0.930 . S
H563 C571 0.930 . S
H564 C574 0.930 . S
H565 C575 0.930 . S
C566 H560 0.930 . S
C566 C567 1.355 . S
C566 C568 1.415 . S
C567 C566 1.355 . S
C567 C569 1.419 . S
C568 C566 1.415 . S
C568 C573 1.425 . S
C568 C575 1.409 . S
C569 H561 0.930 . S
C569 C567 1.419 . S
C569 C570 1.362 . S
C570 H562 0.930 . S
C570 C569 1.362 . S
C570 C573 1.409 . S
C571 H563 0.930 . S
C571 C572 1.355 . S
C571 C573 1.415 . S
C572 C571 1.355 . S
C572 C574 1.419 . S
C573 C568 1.425 . S
C573 C570 1.409 . S
C573 C571 1.415 . S
C574 H564 0.930 . S
C574 C572 1.419 . S
C574 C575 1.362 . S
C575 H565 0.930 . S
C575 C568 1.409 . S
C575 C574 1.362 . S
H576 C582 0.930 . S
H577 C585 0.930 . S
H578 C586 0.930 . S
H579 C587 0.930 . S
H580 C590 0.930 . S
H581 C591 0.930 . S
C582 H576 0.930 . S
C582 C583 1.355 . S
C582 C584 1.415 . S
C583 C582 1.355 . S
C583 C585 1.419 . S
C584 C582 1.415 . S
C584 C589 1.425 . S
C584 C591 1.409 . S
C585 H577 0.930 . S
C585 C583 1.419 . S
C585 C586 1.362 . S
C586 H578 0.930 . S
C586 C585 1.362 . S
C586 C589 1.409 . S
C587 H579 0.930 . S
C587 C588 1.355 . S
C587 C589 1.415 . S
C588 C587 1.355 . S
C588 C590 1.419 . S
C589 C584 1.425 . S
C589 C586 1.409 . S
C589 C587 1.415 . S
C590 H580 0.930 . S
C590 C588 1.419 . S
C590 C591 1.362 . S
C591 H581 0.930 . S
C591 C584 1.409 . S
C591 C590 1.362 . S
H592 C598 0.930 . S
H593 C601 0.930 . S
H594 C602 0.930 . S
H595 C603 0.930 . S
H596 C606 0.930 . S
H597 C607 0.930 . S
C598 H592 0.930 . S
C598 C599 1.355 . S
C598 C600 1.415 . S
C599 C598 1.355 . S
C599 C601 1.419 . S
C600 C598 1.415 . S
C600 C605 1.425 . S
C600 C607 1.409 . S
C601 H593 0.930 . S
C601 C599 1.419 . S
C601 C602 1.362 . S
C602 H594 0.930 . S
C602 C601 1.362 . S
C602 C605 1.409 . S
C603 H595 0.930 . S
C603 C604 1.355 . S
C603 C605 1.415 . S
C604 C603 1.355 . S
C604 C606 1.419 . S
C605 C600 1.425 . S
C605 C602 1.409 . S
C605 C603 1.415 . S
C606 H596 0.930 . S
C606 C604 1.419 . S
C606 C607 1.362 . S
C607 H597 0.930 . S
C607 C600 1.409 . S
C607 C606 1.362 . S
H608 C614 0.930 . S
H609 C617 0.930 . S
H610 C618 0.930 . S
H611 C619 0.930 . S
H612 C622 0.930 . S
H613 C623 0.930 . S
C614 H608 0.930 . S
C614 C615 1.355 . S
C614 C616 1.415 . S
C615 C614 1.355 . S
C615 C617 1.419 . S
C616 C614 1.415 . S
C616 C621 1.425 . S
C616 C623 1.409 . S
C617 H609 0.930 . S
C617 C615 1.419 . S
C617 C618 1.362 . S
C618 H610 0.930 . S
C618 C617 1.362 . S
C618 C621 1.409 . S
C619 H611 0.930 . S
C619 C620 1.355 . S
C619 C621 1.415 . S
C620 C619 1.355 . S
C620 C622 1.419 . S
C621 C616 1.425 . S
C621 C618 1.409 . S
C621 C619 1.415 . S
C622 H612 0.930 . S
C622 C620 1.419 . S
C622 C623 1.362 . S
C623 H613 0.930 . S
C623 C616 1.409 . S
C623 C622 1.362 . S
H624 C630 0.930 . S
H625 C633 0.930 . S
H626 C634 0.930 . S
H627 C635 0.930 . S
H628 C638 0.930 . S
H629 C639 0.930 . S
C630 H624 0.930 . S
C630 C631 1.355 . S
C630 C632 1.415 . S
C631 C630 1.355 . S
C631 C633 1.419 . S
C632 C630 1.415 . S
C632 C637 1.425 . S
C632 C639 1.409 . S
C633 H625 0.930 . S
C633 C631 1.419 . S
C633 C634 1.362 . S
C634 H626 0.930 . S
C634 C633 1.362 . S
C634 C637 1.409 . S
C635 H627 0.930 . S
C635 C636 1.355 . S
C635 C637 1.415 . S
C636 C635 1.355 . S
C636 C638 1.419 . S
C637 C632 1.425 . S
C637 C634 1.409 . S
C637 C635 1.415 . S
C638 H628 0.930 . S
C638 C636 1.419 . S
C638 C639 1.362 . S
C639 H629 0.930 . S
C639 C632 1.409 . S
C639 C638 1.362 . S
H640 C646 0.930 . S
H641 C649 0.930 . S
H642 C650 0.930 . S
H643 C651 0.930 . S
H644 C654 0.930 . S
H645 C655 0.930 . S
C646 H640 0.930 . S
C646 C647 1.355 . S
C646 C648 1.415 . S
C647 C646 1.355 . S
C647 C649 1.419 . S
C648 C646 1.415 . S
C648 C653 1.425 . S
C648 C655 1.409 . S
C649 H641 0.930 . S
C649 C647 1.419 . S
C649 C650 1.362 . S
C650 H642 0.930 . S
C650 C649 1.362 . S
C650 C653 1.409 . S
C651 H643 0.930 . S
C651 C652 1.355 . S
C651 C653 1.415 . S
C652 C651 1.355 . S
C652 C654 1.419 . S
C653 C648 1.425 . S
C653 C650 1.409 . S
C653 C651 1.415 . S
C654 H644 0.930 . S
C654 C652 1.419 . S
C654 C655 1.362 . S
C655 H645 0.930 . S
C655 C648 1.409 . S
C655 C654 1.362 . S
H656 C662 0.930 . S
H657 C665 0.930 . S
H658 C666 0.930 . S
H659 C667 0.930 . S
H660 C670 0.930 . S
H661 C671 0.930 . S
C662 H656 0.930 . S
C662 C663 1.355 . S
C662 C664 1.415 . S
C663 C662 1.355 . S
C663 C665 1.419 . S
C664 C662 1.415 . S
C664 C669 1.425 1_655 S
C664 C671 1.409 1_655 S
C665 H657 0.930 . S
C665 C663 1.419 . S
C665 C666 1.362 . S
C666 H658 0.930 . S
C666 C665 1.362 . S
C666 C669 1.409 1_655 S
C667 H659 0.930 . S
C667 C668 1.355 . S
C667 C669 1.415 . S
C668 C667 1.355 . S
C668 C670 1.419 . S
C669 C664 1.425 1_455 S
C669 C666 1.409 1_455 S
C669 C667 1.415 . S
C670 H660 0.930 . S
C670 C668 1.419 . S
C670 C671 1.362 . S
C671 H661 0.930 . S
C671 C664 1.409 1_455 S
C671 C670 1.362 . S
H672 C678 0.930 . S
H673 C681 0.930 . S
H674 C682 0.930 . S
H675 C683 0.930 . S
H676 C686 0.930 . S
H677 C687 0.930 . S
C678 H672 0.930 . S
C678 C679 1.355 . S
C678 C680 1.415 . S
C679 C678 1.355 . S
C679 C681 1.419 . S
C680 C678 1.415 . S
C680 C685 1.425 . S
C680 C687 1.409 . S
C681 H673 0.930 . S
C681 C679 1.419 . S
C681 C682 1.362 . S
C682 H674 0.930 . S
C682 C681 1.362 . S
C682 C685 1.409 . S
C683 H675 0.930 . S
C683 C684 1.355 . S
C683 C685 1.415 . S
C684 C683 1.355 . S
C684 C686 1.419 . S
C685 C680 1.425 . S
C685 C682 1.409 . S
C685 C683 1.415 . S
C686 H676 0.930 . S
C686 C684 1.419 . S
C686 C687 1.362 . S
C687 H677 0.930 . S
C687 C680 1.409 . S
C687 C686 1.362 . S
H688 C694 0.930 . S
H689 C697 0.930 . S
H690 C698 0.930 . S
H691 C699 0.930 . S
H692 C702 0.930 1_554 S
H693 C703 0.930 1_554 S
C694 H688 0.930 . S
C694 C695 1.355 . S
C694 C696 1.415 . S
C695 C694 1.355 . S
C695 C697 1.419 . S
C696 C694 1.415 . S
C696 C701 1.425 1_655 S
C696 C703 1.409 1_655 S
C697 H689 0.930 . S
C697 C695 1.419 . S
C697 C698 1.362 . S
C698 H690 0.930 . S
C698 C697 1.362 . S
C698 C701 1.409 1_655 S
C699 H691 0.930 . S
C699 C700 1.355 . S
C699 C701 1.415 . S
C700 C699 1.355 . S
C700 C702 1.419 . S
C701 C696 1.425 1_455 S
C701 C698 1.409 1_455 S
C701 C699 1.415 . S
C702 H692 0.930 1_556 S
C702 C700 1.419 . S
C702 C703 1.362 . S
C703 H693 0.930 1_556 S
C703 C696 1.409 1_455 S
C703 C702 1.362 . S
H704 C710 0.930 . S
H705 C713 0.930 . S
H706 C714 0.930 . S
H707 C715 0.930 . S
H708 C718 0.930 . S
H709 C719 0.930 . S
C710 H704 0.930 . S
C710 C711 1.355 . S
C710 C712 1.415 . S
C711 C710 1.355 . S
C711 C713 1.419 . S
C712 C710 1.415 . S
C712 C717 1.425 . S
C712 C719 1.409 . S
C713 H705 0.930 . S
C713 C711 1.419 . S
C713 C714 1.362 . S
C714 H706 0.930 . S
C714 C713 1.362 . S
C714 C717 1.409 . S
C715 H707 0.930 . S
C715 C716 1.355 . S
C715 C717 1.415 . S
C716 C715 1.355 . S
C716 C718 1.419 . S
C717 C712 1.425 . S
C717 C714 1.409 . S
C717 C715 1.415 . S
C718 H708 0.930 . S
C718 C716 1.419 . S
C718 C719 1.362 . S
C719 H709 0.930 . S
C719 C712 1.409 . S
C719 C718 1.362 . S
H720 C726 0.930 . S
H721 C729 0.930 1_556 S
H722 C730 0.930 1_556 S
H723 C731 0.930 . S
H724 C734 0.930 . S
H725 C735 0.930 . S
C726 H720 0.930 . S
C726 C727 1.355 . S
C726 C728 1.415 . S
C727 C726 1.355 . S
C727 C729 1.419 . S
C728 C726 1.415 . S
C728 C733 1.425 . S
C728 C735 1.409 . S
C729 H721 0.930 1_554 S
C729 C727 1.419 . S
C729 C730 1.362 . S
C730 H722 0.930 1_554 S
C730 C729 1.362 . S
C730 C733 1.409 . S
C731 H723 0.930 . S
C731 C732 1.355 . S
C731 C733 1.415 . S
C732 C731 1.355 . S
C732 C734 1.419 . S
C733 C728 1.425 . S
C733 C730 1.409 . S
C733 C731 1.415 . S
C734 H724 0.930 . S
C734 C732 1.419 . S
C734 C735 1.362 . S
C735 H725 0.930 . S
C735 C728 1.409 . S
C735 C734 1.362 . S
H736 C742 0.930 . S
H737 C745 0.930 . S
H738 C746 0.930 . S
H739 C747 0.930 . S
H740 C750 0.930 . S
H741 C751 0.930 . S
C742 H736 0.930 . S
C742 C743 1.355 . S
C742 C744 1.415 . S
C743 C742 1.355 . S
C743 C745 1.419 . S
C744 C742 1.415 . S
C744 C749 1.425 1_455 S
C744 C751 1.409 1_455 S
C745 H737 0.930 . S
C745 C743 1.419 . S
C745 C746 1.362 . S
C746 H738 0.930 . S
C746 C745 1.362 . S
C746 C749 1.409 1_455 S
C747 H739 0.930 . S
C747 C748 1.355 . S
C747 C749 1.415 . S
C748 C747 1.355 . S
C748 C750 1.419 . S
C749 C744 1.425 1_655 S
C749 C746 1.409 1_655 S
C749 C747 1.415 . S
C750 H740 0.930 . S
C750 C748 1.419 . S
C750 C751 1.362 . S
C751 H741 0.930 . S
C751 C744 1.409 1_655 S
C751 C750 1.362 . S
H752 C758 0.930 . S
H753 C761 0.930 . S
H754 C762 0.930 . S
H755 C763 0.930 . S
H756 C766 0.930 1_554 S
H757 C767 0.930 1_554 S
C758 H752 0.930 . S
C758 C759 1.355 . S
C758 C760 1.415 . S
C759 C758 1.355 . S
C759 C761 1.419 . S
C760 C758 1.415 . S
C760 C765 1.425 . S
C760 C767 1.409 . S
C761 H753 0.930 . S
C761 C759 1.419 . S
C761 C762 1.362 . S
C762 H754 0.930 . S
C762 C761 1.362 . S
C762 C765 1.409 . S
C763 H755 0.930 . S
C763 C764 1.355 . S
C763 C765 1.415 . S
C764 C763 1.355 . S
C764 C766 1.419 . S
C765 C760 1.425 . S
C765 C762 1.409 . S
C765 C763 1.415 . S
C766 H756 0.930 1_556 S
C766 C764 1.419 . S
C766 C767 1.362 . S
C767 H757 0.930 1_556 S
C767 C760 1.409 . S
C767 C766 1.362 . S
H768 C774 0.930 . S
H769 C777 0.930 . S
H770 C778 0.930 . S
H771 C779 0.930 . S
H772 C782 0.930 . S
H773 C783 0.930 . S
C774 H768 0.930 . S
C774 C775 1.355 . S
C774 C776 1.415 . S
C775 C774 1.355 . S
C775 C777 1.419 . S
C776 C774 1.415 . S
C776 C781 1.425 1_655 S
C776 C783 1.409 1_655 S
C777 H769 0.930 . S
C777 C775 1.419 . S
C777 C778 1.362 . S
C778 H770 0.930 . S
C778 C777 1.362 . S
C778 C781 1.409 1_655 S
C779 H771 0.930 . S
C779 C780 1.355 . S
C779 C781 1.415 . S
C780 C779 1.355 . S
C780 C782 1.419 . S
C781 C776 1.425 1_455 S
C781 C778 1.409 1_455 S
C781 C779 1.415 . S
C782 H772 0.930 . S
C782 C780 1.419 . S
C782 C783 1.362 . S
C783 H773 0.930 . S
C783 C776 1.409 1_455 S
C783 C782 1.362 . S
H784 C790 0.929 1_556 S
H785 C793 0.930 . S
H786 C794 0.930 1_565 S
H787 C795 0.929 1_554 S
H788 C798 0.930 . S
H789 C799 0.930 1_545 S
C790 H784 0.929 1_554 S
C790 C791 1.355 . S
C790 C792 1.415 1_554 S
C791 C790 1.355 . S
C791 C793 1.419 . S
C792 C790 1.415 1_556 S
C792 C797 1.425 1_546 S
C792 C799 1.409 1_545 S
C793 H785 0.930 . S
C793 C791 1.419 . S
C793 C794 1.362 . S
C794 H786 0.930 1_545 S
C794 C793 1.362 . S
C794 C797 1.409 1_545 S
C795 H787 0.929 1_556 S
C795 C796 1.355 . S
C795 C797 1.415 1_556 S
C796 C795 1.355 . S
C796 C798 1.419 . S
C797 C792 1.425 1_564 S
C797 C794 1.409 1_565 S
C797 C795 1.415 1_554 S
C798 H788 0.930 . S
C798 C796 1.419 . S
C798 C799 1.362 . S
C799 H789 0.930 1_565 S
C799 C792 1.409 1_565 S
C799 C798 1.362 . S
H800 C806 0.930 . S
H801 C809 0.930 . S
H802 C810 0.930 1_545 S
H803 C811 0.930 . S
H804 C814 0.930 . S
H805 C815 0.930 1_565 S
C806 H800 0.930 . S
C806 C807 1.355 . S
C806 C808 1.415 . S
C807 C806 1.355 . S
C807 C809 1.419 . S
C808 C806 1.415 . S
C808 C813 1.425 1_565 S
C808 C815 1.409 1_565 S
C809 H801 0.930 . S
C809 C807 1.419 . S
C809 C810 1.362 . S
C810 H802 0.930 1_565 S
C810 C809 1.362 . S
C810 C813 1.409 1_565 S
C811 H803 0.930 . S
C811 C812 1.355 . S
C811 C813 1.415 . S
C812 C811 1.355 . S
C812 C814 1.419 . S
C813 C808 1.425 1_545 S
C813 C810 1.409 1_545 S
C813 C811 1.415 . S
C814 H804 0.930 . S
C814 C812 1.419 . S
C814 C815 1.362 . S
C815 H805 0.930 1_545 S
C815 C808 1.409 1_545 S
C815 C814 1.362 . S
H816 C822 0.930 . S
H817 C825 0.930 . S
H818 C826 0.930 . S
H819 C827 0.930 . S
H820 C830 0.930 . S
H821 C831 0.930 . S
C822 H816 0.930 . S
C822 C823 1.355 . S
C822 C824 1.415 1_565 S
C823 C822 1.355 . S
C823 C825 1.419 1_556 S
C824 C822 1.415 1_545 S
C824 C829 1.425 1_546 S
C824 C831 1.409 . S
C825 H817 0.930 . S
C825 C823 1.419 1_554 S
C825 C826 1.362 . S
C826 H818 0.930 . S
C826 C825 1.362 . S
C826 C829 1.409 . S
C827 H819 0.930 . S
C827 C828 1.355 . S
C827 C829 1.415 1_545 S
C828 C827 1.355 . S
C828 C830 1.419 1_554 S
C829 C824 1.425 1_564 S
C829 C826 1.409 . S
C829 C827 1.415 1_565 S
C830 H820 0.930 . S
C830 C828 1.419 1_556 S
C830 C831 1.362 . S
C831 H821 0.930 . S
C831 C824 1.409 . S
C831 C830 1.362 . S
H832 C838 0.930 . S
H833 C841 0.930 . S
H834 C842 0.930 . S
H835 C843 0.930 . S
H836 C846 0.930 . S
H837 C847 0.930 . S
C838 H832 0.930 . S
C838 C839 1.355 . S
C838 C840 1.416 . S
C839 C838 1.355 . S
C839 C841 1.419 . S
C840 C838 1.416 . S
C840 C845 1.425 1_545 S
C840 C847 1.408 1_545 S
C841 H833 0.930 . S
C841 C839 1.419 . S
C841 C842 1.362 . S
C842 H834 0.930 . S
C842 C841 1.362 . S
C842 C845 1.408 1_545 S
C843 H835 0.930 . S
C843 C844 1.355 . S
C843 C845 1.416 . S
C844 C843 1.355 . S
C844 C846 1.419 . S
C845 C840 1.425 1_565 S
C845 C842 1.408 1_565 S
C845 C843 1.416 . S
C846 H836 0.930 . S
C846 C844 1.419 . S
C846 C847 1.362 . S
C847 H837 0.930 . S
C847 C840 1.408 1_565 S
C847 C846 1.362 . S
H848 C854 0.930 1_556 S
H849 C857 0.930 . S
H850 C858 0.930 . S
H851 C859 0.930 1_554 S
H852 C862 0.930 . S
H853 C863 0.930 . S
C854 H848 0.930 1_554 S
C854 C855 1.355 . S
C854 C856 1.415 1_554 S
C855 C854 1.355 . S
C855 C857 1.419 . S
C856 C854 1.415 1_556 S
C856 C861 1.425 1_556 S
C856 C863 1.409 . S
C857 H849 0.930 . S
C857 C855 1.419 . S
C857 C858 1.362 . S
C858 H850 0.930 . S
C858 C857 1.362 . S
C858 C861 1.409 . S
C859 H851 0.930 1_556 S
C859 C860 1.355 . S
C859 C861 1.415 1_556 S
C860 C859 1.355 . S
C860 C862 1.419 . S
C861 C856 1.425 1_554 S
C861 C858 1.409 . S
C861 C859 1.415 1_554 S
C862 H852 0.930 . S
C862 C860 1.419 . S
C862 C863 1.362 . S
C863 H853 0.930 . S
C863 C856 1.409 . S
C863 C862 1.362 . S
H864 C870 0.930 . S
H865 C873 0.930 . S
H866 C874 0.930 . S
H867 C875 0.930 . S
H868 C878 0.930 . S
H869 C879 0.930 . S
C870 H864 0.930 . S
C870 C871 1.355 . S
C870 C872 1.415 . S
C871 C870 1.355 . S
C871 C873 1.419 . S
C872 C870 1.415 . S
C872 C877 1.425 . S
C872 C879 1.409 . S
C873 H865 0.930 . S
C873 C871 1.419 . S
C873 C874 1.362 . S
C874 H866 0.930 . S
C874 C873 1.362 . S
C874 C877 1.409 . S
C875 H867 0.930 . S
C875 C876 1.355 . S
C875 C877 1.415 . S
C876 C875 1.355 . S
C876 C878 1.419 . S
C877 C872 1.425 . S
C877 C874 1.409 . S
C877 C875 1.415 . S
C878 H868 0.930 . S
C878 C876 1.419 . S
C878 C879 1.362 . S
C879 H869 0.930 . S
C879 C872 1.409 . S
C879 C878 1.362 . S
H880 C886 0.930 . S
H881 C889 0.930 . S
H882 C890 0.925 1_554 S
H883 C891 0.930 . S
H884 C894 0.930 . S
H885 C895 0.925 1_556 S
C886 H880 0.930 . S
C886 C887 1.355 . S
C886 C888 1.415 . S
C887 C886 1.355 . S
C887 C889 1.419 . S
C888 C886 1.415 . S
C888 C893 1.425 1_556 S
C888 C895 1.406 1_556 S
C889 H881 0.930 . S
C889 C887 1.419 . S
C889 C890 1.372 . S
C890 H882 0.925 1_556 S
C890 C889 1.372 . S
C890 C893 1.406 1_556 S
C891 H883 0.930 . S
C891 C892 1.355 . S
C891 C893 1.415 . S
C892 C891 1.355 . S
C892 C894 1.419 . S
C893 C888 1.425 1_554 S
C893 C890 1.406 1_554 S
C893 C891 1.415 . S
C894 H884 0.930 . S
C894 C892 1.419 . S
C894 C895 1.372 . S
C895 H885 0.925 1_554 S
C895 C888 1.406 1_554 S
C895 C894 1.372 . S
H896 C902 0.930 . S
H897 C905 0.930 . S
H898 C906 0.930 . S
H899 C907 0.930 . S
H900 C910 0.930 . S
H901 C911 0.930 . S
C902 H896 0.930 . S
C902 C903 1.355 . S
C902 C904 1.415 . S
C903 C902 1.355 . S
C903 C905 1.419 . S
C904 C902 1.415 . S
C904 C909 1.425 . S
C904 C911 1.409 . S
C905 H897 0.930 . S
C905 C903 1.419 . S
C905 C906 1.362 . S
C906 H898 0.930 . S
C906 C905 1.362 . S
C906 C909 1.409 . S
C907 H899 0.930 . S
C907 C908 1.355 . S
C907 C909 1.415 . S
C908 C907 1.355 . S
C908 C910 1.419 . S
C909 C904 1.425 . S
C909 C906 1.409 . S
C909 C907 1.415 . S
C910 H900 0.930 . S
C910 C908 1.419 . S
C910 C911 1.362 . S
C911 H901 0.930 . S
C911 C904 1.409 . S
C911 C910 1.362 . S
H912 C918 0.930 . S
H913 C921 0.930 . S
H914 C922 0.930 . S
H915 C923 0.930 . S
H916 C926 0.930 . S
H917 C927 0.930 . S
C918 H912 0.930 . S
C918 C919 1.355 . S
C918 C920 1.415 . S
C919 C918 1.355 . S
C919 C921 1.419 . S
C920 C918 1.415 . S
C920 C925 1.425 . S
C920 C927 1.409 . S
C921 H913 0.930 . S
C921 C919 1.419 . S
C921 C922 1.362 . S
C922 H914 0.930 . S
C922 C921 1.362 . S
C922 C925 1.409 . S
C923 H915 0.930 . S
C923 C924 1.355 . S
C923 C925 1.415 . S
C924 C923 1.355 . S
C924 C926 1.419 . S
C925 C920 1.425 . S
C925 C922 1.409 . S
C925 C923 1.415 . S
C926 H916 0.930 . S
C926 C924 1.419 . S
C926 C927 1.362 . S
C927 H917 0.930 . S
C927 C920 1.409 . S
C927 C926 1.362 . S
H928 C934 0.930 . S
H929 C937 0.930 . S
H930 C938 0.930 . S
H931 C939 0.930 . S
H932 C942 0.930 . S
H933 C943 0.930 . S
C934 H928 0.930 . S
C934 C935 1.355 . S
C934 C936 1.415 . S
C935 C934 1.355 . S
C935 C937 1.419 . S
C936 C934 1.415 . S
C936 C941 1.425 . S
C936 C943 1.409 . S
C937 H929 0.930 . S
C937 C935 1.419 . S
C937 C938 1.362 . S
C938 H930 0.930 . S
C938 C937 1.362 . S
C938 C941 1.409 . S
C939 H931 0.930 . S
C939 C940 1.355 . S
C939 C941 1.415 . S
C940 C939 1.355 . S
C940 C942 1.419 . S
C941 C936 1.425 . S
C941 C938 1.409 . S
C941 C939 1.415 . S
C942 H932 0.930 . S
C942 C940 1.419 . S
C942 C943 1.362 . S
C943 H933 0.930 . S
C943 C936 1.409 . S
C943 C942 1.362 . S
H944 C950 0.930 . S
H945 C953 0.930 . S
H946 C954 0.930 . S
H947 C955 0.930 . S
H948 C958 0.930 . S
H949 C959 0.930 . S
C950 H944 0.930 . S
C950 C951 1.355 . S
C950 C952 1.415 . S
C951 C950 1.355 . S
C951 C953 1.419 . S
C952 C950 1.415 . S
C952 C957 1.425 . S
C952 C959 1.409 . S
C953 H945 0.930 . S
C953 C951 1.419 . S
C953 C954 1.362 . S
C954 H946 0.930 . S
C954 C953 1.362 . S
C954 C957 1.409 . S
C955 H947 0.930 . S
C955 C956 1.355 . S
C955 C957 1.415 . S
C956 C955 1.355 . S
C956 C958 1.419 . S
C957 C952 1.425 . S
C957 C954 1.409 . S
C957 C955 1.415 . S
C958 H948 0.930 . S
C958 C956 1.419 . S
C958 C959 1.362 . S
C959 H949 0.930 . S
C959 C952 1.409 . S
C959 C958 1.362 . S
H960 C966 0.930 . S
H961 C969 0.930 . S
H962 C970 0.930 . S
H963 C971 0.930 . S
H964 C974 0.930 . S
H965 C975 0.930 . S
C966 H960 0.930 . S
C966 C967 1.355 . S
C966 C968 1.415 . S
C967 C966 1.355 . S
C967 C969 1.419 . S
C968 C966 1.415 . S
C968 C973 1.425 . S
C968 C975 1.409 . S
C969 H961 0.930 . S
C969 C967 1.419 . S
C969 C970 1.362 . S
C970 H962 0.930 . S
C970 C969 1.362 . S
C970 C973 1.409 . S
C971 H963 0.930 . S
C971 C972 1.355 . S
C971 C973 1.415 . S
C972 C971 1.355 . S
C972 C974 1.419 . S
C973 C968 1.425 . S
C973 C970 1.409 . S
C973 C971 1.415 . S
C974 H964 0.930 . S
C974 C972 1.419 . S
C974 C975 1.362 . S
C975 H965 0.930 . S
C975 C968 1.409 . S
C975 C974 1.362 . S
H976 C982 0.930 . S
H977 C985 0.930 . S
H978 C986 0.930 . S
H979 C987 0.930 . S
H980 C990 0.930 . S
H981 C991 0.930 . S
C982 H976 0.930 . S
C982 C983 1.355 . S
C982 C984 1.415 . S
C983 C982 1.355 . S
C983 C985 1.419 . S
C984 C982 1.415 . S
C984 C989 1.425 . S
C984 C991 1.409 . S
C985 H977 0.930 . S
C985 C983 1.419 . S
C985 C986 1.362 . S
C986 H978 0.930 . S
C986 C985 1.362 . S
C986 C989 1.409 . S
C987 H979 0.930 . S
C987 C988 1.355 . S
C987 C989 1.415 . S
C988 C987 1.355 . S
C988 C990 1.419 . S
C989 C984 1.425 . S
C989 C986 1.409 . S
C989 C987 1.415 . S
C990 H980 0.930 . S
C990 C988 1.419 . S
C990 C991 1.362 . S
C991 H981 0.930 . S
C991 C984 1.409 . S
C991 C990 1.362 . S
H992 C998 0.930 . S
H993 C1001 0.930 . S
H994 C1002 0.930 . S
H995 C1003 0.930 . S
H996 C1006 0.930 . S
H997 C1007 0.930 . S
C998 H992 0.930 . S
C998 C999 1.355 . S
C998 C1000 1.415 . S
C999 C998 1.355 . S
C999 C1001 1.419 . S
C1000 C998 1.415 . S
C1000 C1005 1.425 . S
C1000 C1007 1.409 . S
C1001 H993 0.930 . S
C1001 C999 1.419 . S
C1001 C1002 1.362 . S
C1002 H994 0.930 . S
C1002 C1001 1.362 . S
C1002 C1005 1.409 . S
C1003 H995 0.930 . S
C1003 C1004 1.355 . S
C1003 C1005 1.415 . S
C1004 C1003 1.355 . S
C1004 C1006 1.419 . S
C1005 C1000 1.425 . S
C1005 C1002 1.409 . S
C1005 C1003 1.415 . S
C1006 H996 0.930 . S
C1006 C1004 1.419 . S
C1006 C1007 1.362 . S
C1007 H997 0.930 . S
C1007 C1000 1.409 . S
C1007 C1006 1.362 . S
H1008 C1014 0.930 . S
H1009 C1017 0.930 . S
H1010 C1018 0.930 . S
H1011 C1019 0.930 . S
H1012 C1022 0.930 . S
H1013 C1023 0.930 . S
C1014 H1008 0.930 . S
C1014 C1015 1.355 . S
C1014 C1016 1.415 . S
C1015 C1014 1.355 . S
C1015 C1017 1.419 . S
C1016 C1014 1.415 . S
C1016 C1021 1.425 . S
C1016 C1023 1.409 . S
C1017 H1009 0.930 . S
C1017 C1015 1.419 . S
C1017 C1018 1.362 . S
C1018 H1010 0.930 . S
C1018 C1017 1.362 . S
C1018 C1021 1.409 . S
C1019 H1011 0.930 . S
C1019 C1020 1.355 . S
C1019 C1021 1.415 . S
C1020 C1019 1.355 . S
C1020 C1022 1.419 . S
C1021 C1016 1.425 . S
C1021 C1018 1.409 . S
C1021 C1019 1.415 . S
C1022 H1012 0.930 . S
C1022 C1020 1.419 . S
C1022 C1023 1.362 . S
C1023 H1013 0.930 . S
C1023 C1016 1.409 . S
C1023 C1022 1.362 . S
H1024 C1030 0.930 . S
H1025 C1033 0.930 . S
H1026 C1034 0.930 . S
H1027 C1035 0.930 . S
H1028 C1038 0.930 . S
H1029 C1039 0.930 . S
C1030 H1024 0.930 . S
C1030 C1031 1.355 . S
C1030 C1032 1.415 . S
C1031 C1030 1.355 . S
C1031 C1033 1.419 . S
C1032 C1030 1.415 . S
C1032 C1037 1.425 . S
C1032 C1039 1.409 . S
C1033 H1025 0.930 . S
C1033 C1031 1.419 . S
C1033 C1034 1.362 . S
C1034 H1026 0.930 . S
C1034 C1033 1.362 . S
C1034 C1037 1.409 . S
C1035 H1027 0.930 . S
C1035 C1036 1.355 . S
C1035 C1037 1.415 . S
C1036 C1035 1.355 . S
C1036 C1038 1.419 . S
C1037 C1032 1.425 . S
C1037 C1034 1.409 . S
C1037 C1035 1.415 . S
C1038 H1028 0.930 . S
C1038 C1036 1.419 . S
C1038 C1039 1.362 . S
C1039 H1029 0.930 . S
C1039 C1032 1.409 . S
C1039 C1038 1.362 . S
H1040 C1046 0.930 . S
H1041 C1049 0.930 . S
H1042 C1050 0.930 . S
H1043 C1051 0.930 . S
H1044 C1054 0.930 . S
H1045 C1055 0.930 . S
C1046 H1040 0.930 . S
C1046 C1047 1.355 . S
C1046 C1048 1.415 . S
C1047 C1046 1.355 . S
C1047 C1049 1.419 . S
C1048 C1046 1.415 . S
C1048 C1053 1.425 . S
C1048 C1055 1.409 . S
C1049 H1041 0.930 . S
C1049 C1047 1.419 . S
C1049 C1050 1.362 . S
C1050 H1042 0.930 . S
C1050 C1049 1.362 . S
C1050 C1053 1.409 . S
C1051 H1043 0.930 . S
C1051 C1052 1.355 . S
C1051 C1053 1.415 . S
C1052 C1051 1.355 . S
C1052 C1054 1.419 . S
C1053 C1048 1.425 . S
C1053 C1050 1.409 . S
C1053 C1051 1.415 . S
C1054 H1044 0.930 . S
C1054 C1052 1.419 . S
C1054 C1055 1.362 . S
C1055 H1045 0.930 . S
C1055 C1048 1.409 . S
C1055 C1054 1.362 . S
H1056 C1062 0.930 . S
H1057 C1065 0.930 . S
H1058 C1066 0.930 . S
H1059 C1067 0.930 . S
H1060 C1070 0.930 . S
H1061 C1071 0.930 . S
C1062 H1056 0.930 . S
C1062 C1063 1.355 . S
C1062 C1064 1.415 . S
C1063 C1062 1.355 . S
C1063 C1065 1.419 . S
C1064 C1062 1.415 . S
C1064 C1069 1.425 . S
C1064 C1071 1.409 . S
C1065 H1057 0.930 . S
C1065 C1063 1.419 . S
C1065 C1066 1.362 . S
C1066 H1058 0.930 . S
C1066 C1065 1.362 . S
C1066 C1069 1.409 . S
C1067 H1059 0.930 . S
C1067 C1068 1.355 . S
C1067 C1069 1.415 . S
C1068 C1067 1.355 . S
C1068 C1070 1.419 . S
C1069 C1064 1.425 . S
C1069 C1066 1.409 . S
C1069 C1067 1.415 . S
C1070 H1060 0.930 . S
C1070 C1068 1.419 . S
C1070 C1071 1.362 . S
C1071 H1061 0.930 . S
C1071 C1064 1.409 . S
C1071 C1070 1.362 . S
H1072 C1078 0.930 . S
H1073 C1081 0.930 . S
H1074 C1082 0.930 . S
H1075 C1083 0.930 . S
H1076 C1086 0.930 . S
H1077 C1087 0.930 . S
C1078 H1072 0.930 . S
C1078 C1079 1.355 . S
C1078 C1080 1.415 . S
C1079 C1078 1.355 . S
C1079 C1081 1.419 . S
C1080 C1078 1.415 . S
C1080 C1085 1.425 . S
C1080 C1087 1.409 . S
C1081 H1073 0.930 . S
C1081 C1079 1.419 . S
C1081 C1082 1.362 . S
C1082 H1074 0.930 . S
C1082 C1081 1.362 . S
C1082 C1085 1.409 . S
C1083 H1075 0.930 . S
C1083 C1084 1.355 . S
C1083 C1085 1.415 . S
C1084 C1083 1.355 . S
C1084 C1086 1.419 . S
C1085 C1080 1.425 . S
C1085 C1082 1.409 . S
C1085 C1083 1.415 . S
C1086 H1076 0.930 . S
C1086 C1084 1.419 . S
C1086 C1087 1.362 . S
C1087 H1077 0.930 . S
C1087 C1080 1.409 . S
C1087 C1086 1.362 . S
H1088 C1094 0.930 . S
H1089 C1097 0.930 . S
H1090 C1098 0.930 . S
H1091 C1099 0.930 . S
H1092 C1102 0.930 . S
H1093 C1103 0.930 . S
C1094 H1088 0.930 . S
C1094 C1095 1.355 . S
C1094 C1096 1.415 . S
C1095 C1094 1.355 . S
C1095 C1097 1.419 . S
C1096 C1094 1.415 . S
C1096 C1101 1.425 . S
C1096 C1103 1.409 . S
C1097 H1089 0.930 . S
C1097 C1095 1.419 . S
C1097 C1098 1.362 . S
C1098 H1090 0.930 . S
C1098 C1097 1.362 . S
C1098 C1101 1.409 . S
C1099 H1091 0.930 . S
C1099 C1100 1.355 . S
C1099 C1101 1.415 . S
C1100 C1099 1.355 . S
C1100 C1102 1.419 . S
C1101 C1096 1.425 . S
C1101 C1098 1.409 . S
C1101 C1099 1.415 . S
C1102 H1092 0.930 . S
C1102 C1100 1.419 . S
C1102 C1103 1.362 . S
C1103 H1093 0.930 . S
C1103 C1096 1.409 . S
C1103 C1102 1.362 . S
H1104 C1110 0.930 . S
H1105 C1113 0.930 . S
H1106 C1114 0.930 . S
H1107 C1115 0.930 . S
H1108 C1118 0.930 . S
H1109 C1119 0.930 . S
C1110 H1104 0.930 . S
C1110 C1111 1.355 . S
C1110 C1112 1.415 . S
C1111 C1110 1.355 . S
C1111 C1113 1.419 . S
C1112 C1110 1.415 . S
C1112 C1117 1.425 . S
C1112 C1119 1.409 . S
C1113 H1105 0.930 . S
C1113 C1111 1.419 . S
C1113 C1114 1.362 . S
C1114 H1106 0.930 . S
C1114 C1113 1.362 . S
C1114 C1117 1.409 . S
C1115 H1107 0.930 . S
C1115 C1116 1.355 . S
C1115 C1117 1.415 . S
C1116 C1115 1.355 . S
C1116 C1118 1.419 . S
C1117 C1112 1.425 . S
C1117 C1114 1.409 . S
C1117 C1115 1.415 . S
C1118 H1108 0.930 . S
C1118 C1116 1.419 . S
C1118 C1119 1.362 . S
C1119 H1109 0.930 . S
C1119 C1112 1.409 . S
C1119 C1118 1.362 . S
H1120 C1126 0.930 . S
H1121 C1129 0.930 . S
H1122 C1130 0.930 . S
H1123 C1131 0.930 . S
H1124 C1134 0.930 . S
H1125 C1135 0.930 . S
C1126 H1120 0.930 . S
C1126 C1127 1.355 . S
C1126 C1128 1.415 . S
C1127 C1126 1.355 . S
C1127 C1129 1.419 . S
C1128 C1126 1.415 . S
C1128 C1133 1.425 . S
C1128 C1135 1.409 . S
C1129 H1121 0.930 . S
C1129 C1127 1.419 . S
C1129 C1130 1.362 . S
C1130 H1122 0.930 . S
C1130 C1129 1.362 . S
C1130 C1133 1.409 . S
C1131 H1123 0.930 . S
C1131 C1132 1.355 . S
C1131 C1133 1.415 . S
C1132 C1131 1.355 . S
C1132 C1134 1.419 . S
C1133 C1128 1.425 . S
C1133 C1130 1.409 . S
C1133 C1131 1.415 . S
C1134 H1124 0.930 . S
C1134 C1132 1.419 . S
C1134 C1135 1.362 . S
C1135 H1125 0.930 . S
C1135 C1128 1.409 . S
C1135 C1134 1.362 . S
H1136 C1142 0.930 . S
H1137 C1145 0.930 . S
H1138 C1146 0.930 . S
H1139 C1147 0.930 . S
H1140 C1150 0.930 . S
H1141 C1151 0.930 . S
C1142 H1136 0.930 . S
C1142 C1143 1.355 . S
C1142 C1144 1.415 . S
C1143 C1142 1.355 . S
C1143 C1145 1.419 . S
C1144 C1142 1.415 . S
C1144 C1149 1.425 . S
C1144 C1151 1.409 . S
C1145 H1137 0.930 . S
C1145 C1143 1.419 . S
C1145 C1146 1.362 . S
C1146 H1138 0.930 . S
C1146 C1145 1.362 . S
C1146 C1149 1.409 . S
C1147 H1139 0.930 . S
C1147 C1148 1.355 . S
C1147 C1149 1.415 . S
C1148 C1147 1.355 . S
C1148 C1150 1.419 . S
C1149 C1144 1.425 . S
C1149 C1146 1.409 . S
C1149 C1147 1.415 . S
C1150 H1140 0.930 . S
C1150 C1148 1.419 . S
C1150 C1151 1.362 . S
C1151 H1141 0.930 . S
C1151 C1144 1.409 . S
C1151 C1150 1.362 . S
H1152 C1158 0.930 . S
H1153 C1161 0.930 . S
H1154 C1162 0.930 . S
H1155 C1163 0.930 . S
H1156 C1166 0.930 . S
H1157 C1167 0.930 . S
C1158 H1152 0.930 . S
C1158 C1159 1.355 . S
C1158 C1160 1.415 . S
C1159 C1158 1.355 . S
C1159 C1161 1.419 . S
C1160 C1158 1.415 . S
C1160 C1165 1.425 . S
C1160 C1167 1.409 . S
C1161 H1153 0.930 . S
C1161 C1159 1.419 . S
C1161 C1162 1.362 . S
C1162 H1154 0.930 . S
C1162 C1161 1.362 . S
C1162 C1165 1.409 . S
C1163 H1155 0.930 . S
C1163 C1164 1.355 . S
C1163 C1165 1.415 . S
C1164 C1163 1.355 . S
C1164 C1166 1.419 . S
C1165 C1160 1.425 . S
C1165 C1162 1.409 . S
C1165 C1163 1.415 . S
C1166 H1156 0.930 . S
C1166 C1164 1.419 . S
C1166 C1167 1.362 . S
C1167 H1157 0.930 . S
C1167 C1160 1.409 . S
C1167 C1166 1.362 . S
C535 N13 1.729 . S
C540 N112 1.716 . S
C551 N79 1.748 . S
C556 N46 1.740 . S
C567 N244 1.735 . S
C572 N145 1.751 . S
C583 N178 1.743 . S
C588 N211 1.745 . S
C599 N277 1.739 . S
C604 N376 1.749 . S
C615 N310 1.717 . S
C620 N343 1.727 . S
C631 N508 1.727 . S
C636 N409 1.717 . S
C647 N442 1.728 . S
C652 N475 1.717 . S
C663 N200 1.582 . S
C668 N2 1.531 . S
C679 N233 1.584 . S
C684 N35 1.528 . S
C695 N134 1.540 . S
C700 N68 1.573 . S
C711 N167 1.534 . S
C716 N101 1.579 . S
C727 N464 1.581 . S
C732 N266 1.532 . S
C743 N497 1.557 . S
C748 N299 1.557 . S
C759 N398 1.532 . S
C764 N332 1.581 . S
C775 N365 1.560 . S
C780 N431 1.553 . S
C791 C7 1.560 . S
C796 C73 1.570 . S
C807 C40 1.577 . S
C812 C106 1.568 . S
C823 C139 1.526 . S
C828 C205 1.524 . S
C839 C172 1.533 . S
C844 C238 1.527 . S
C855 C271 1.582 . S
C860 C337 1.585 . S
C871 C304 1.525 . S
C876 C370 1.524 . S
C887 C403 1.553 . S
C892 C469 1.563 . S
C903 C436 1.578 . S
C908 C502 1.583 . S
C919 C513 1.191 . S
C924 C21 1.184 . S
C935 C54 1.192 . S
C940 C480 1.192 . S
C951 C87 1.184 . S
C956 C447 1.167 . S
C967 C414 1.180 . S
C972 C120 1.190 . S
C983 C381 1.159 . S
C988 C153 1.179 . S
C999 C186 1.172 . S
C1004 C348 1.150 . S
C1015 C219 1.191 . S
C1020 C315 1.181 . S
C1031 C252 1.162 . S
C1036 C282 1.141 . S
C1047 C285 1.192 . S
C1052 C249 1.190 . S
C1063 C216 1.194 . S
C1068 C318 1.190 . S
C1079 C183 1.158 . S
C1084 C351 1.178 . S
C1095 C384 1.187 . S
C1100 C150 1.172 . S
C1111 C417 1.162 . S
C1116 C117 1.164 . S
C1127 C84 1.193 . S
C1132 C450 1.191 . S
C1143 C51 1.140 . S
C1148 C483 1.157 . S
C1159 C18 1.194 . S
C1164 C516 1.190 . S
