# Generated by pormake.
# Topology pcl, (4)-cn, num edge types: 1
# Building blocks:
#     Node 0, Type 0, BuildingBlock: ICAMEG_clean_sbu_1, # of connection points: 4
#     Node 1, Type 0, BuildingBlock: ICAMEG_clean_sbu_1, # of connection points: 4
#     Node 2, Type 0, BuildingBlock: ICAMEG_clean_sbu_1, # of connection points: 4
#     Node 3, Type 0, BuildingBlock: ICAMEG_clean_sbu_1, # of connection points: 4
#     Node 4, Type 0, BuildingBlock: ICAMEG_clean_sbu_1, # of connection points: 4
#     Node 5, Type 0, BuildingBlock: ICAMEG_clean_sbu_1, # of connection points: 4
#     Node 6, Type 0, BuildingBlock: ICAMEG_clean_sbu_1, # of connection points: 4
#     Node 7, Type 0, BuildingBlock: ICAMEG_clean_sbu_1, # of connection points: 4
#     Node 8, Type 0, BuildingBlock: ICAMEG_clean_sbu_1, # of connection points: 4
#     Node 9, Type 0, BuildingBlock: ICAMEG_clean_sbu_1, # of connection points: 4
#     Node 10, Type 0, BuildingBlock: ICAMEG_clean_sbu_1, # of connection points: 4
#     Node 11, Type 0, BuildingBlock: ICAMEG_clean_sbu_1, # of connection points: 4
#     Node 12, Type 0, BuildingBlock: ICAMEG_clean_sbu_1, # of connection points: 4
#     Node 13, Type 0, BuildingBlock: ICAMEG_clean_sbu_1, # of connection points: 4
#     Node 14, Type 0, BuildingBlock: ICAMEG_clean_sbu_1, # of connection points: 4
#     Node 15, Type 0, BuildingBlock: ICAMEG_clean_sbu_1, # of connection points: 4
#     Edge 16, Type (0, 0), BuildingBlock: UVAHIK_clean_linker_0, # of connection points: 2
#     Edge 17, Type (0, 0), BuildingBlock: UVAHIK_clean_linker_0, # of connection points: 2
#     Edge 18, Type (0, 0), BuildingBlock: UVAHIK_clean_linker_0, # of connection points: 2
#     Edge 19, Type (0, 0), BuildingBlock: UVAHIK_clean_linker_0, # of connection points: 2
#     Edge 20, Type (0, 0), BuildingBlock: UVAHIK_clean_linker_0, # of connection points: 2
#     Edge 21, Type (0, 0), BuildingBlock: UVAHIK_clean_linker_0, # of connection points: 2
#     Edge 22, Type (0, 0), BuildingBlock: UVAHIK_clean_linker_0, # of connection points: 2
#     Edge 23, Type (0, 0), BuildingBlock: UVAHIK_clean_linker_0, # of connection points: 2
#     Edge 24, Type (0, 0), BuildingBlock: UVAHIK_clean_linker_0, # of connection points: 2
#     Edge 25, Type (0, 0), BuildingBlock: UVAHIK_clean_linker_0, # of connection points: 2
#     Edge 26, Type (0, 0), BuildingBlock: UVAHIK_clean_linker_0, # of connection points: 2
#     Edge 27, Type (0, 0), BuildingBlock: UVAHIK_clean_linker_0, # of connection points: 2
#     Edge 28, Type (0, 0), BuildingBlock: UVAHIK_clean_linker_0, # of connection points: 2
#     Edge 29, Type (0, 0), BuildingBlock: UVAHIK_clean_linker_0, # of connection points: 2
#     Edge 30, Type (0, 0), BuildingBlock: UVAHIK_clean_linker_0, # of connection points: 2
#     Edge 31, Type (0, 0), BuildingBlock: UVAHIK_clean_linker_0, # of connection points: 2
#     Edge 32, Type (0, 0), BuildingBlock: UVAHIK_clean_linker_0, # of connection points: 2
#     Edge 33, Type (0, 0), BuildingBlock: UVAHIK_clean_linker_0, # of connection points: 2
#     Edge 34, Type (0, 0), BuildingBlock: UVAHIK_clean_linker_0, # of connection points: 2
#     Edge 35, Type (0, 0), BuildingBlock: UVAHIK_clean_linker_0, # of connection points: 2
#     Edge 36, Type (0, 0), BuildingBlock: UVAHIK_clean_linker_0, # of connection points: 2
#     Edge 37, Type (0, 0), BuildingBlock: UVAHIK_clean_linker_0, # of connection points: 2
#     Edge 38, Type (0, 0), BuildingBlock: UVAHIK_clean_linker_0, # of connection points: 2
#     Edge 39, Type (0, 0), BuildingBlock: UVAHIK_clean_linker_0, # of connection points: 2
#     Edge 40, Type (0, 0), BuildingBlock: UVAHIK_clean_linker_0, # of connection points: 2
#     Edge 41, Type (0, 0), BuildingBlock: UVAHIK_clean_linker_0, # of connection points: 2
#     Edge 42, Type (0, 0), BuildingBlock: UVAHIK_clean_linker_0, # of connection points: 2
#     Edge 43, Type (0, 0), BuildingBlock: UVAHIK_clean_linker_0, # of connection points: 2
#     Edge 44, Type (0, 0), BuildingBlock: UVAHIK_clean_linker_0, # of connection points: 2
#     Edge 45, Type (0, 0), BuildingBlock: UVAHIK_clean_linker_0, # of connection points: 2
#     Edge 46, Type (0, 0), BuildingBlock: UVAHIK_clean_linker_0, # of connection points: 2
#     Edge 47, Type (0, 0), BuildingBlock: UVAHIK_clean_linker_0, # of connection points: 2
# Relax obj value: 0.090
# Max RMSD: 0.122
# Mean RMSD: 0.117
data_MOF--net-pcl--node1-ICAMEG_clean_sbu_1--edge1-UVAHIK_clean_linker_0
_symmetry_space_group_name_H-M    P1
_symmetry_Int_Tables_number       1
_symmetry_cell_setting            triclinic
loop_
_symmetry_equiv_pos_as_xyz
'x, y, z'
_cell_length_a     70.975601
_cell_length_b     55.217667
_cell_length_c     59.949185
_cell_angle_alpha  89.974355
_cell_angle_beta   90.016359
_cell_angle_gamma 89.977387
loop_
_atom_site_label
_atom_site_type_symbol
_atom_site_fract_x
_atom_site_fract_y
_atom_site_fract_z
_atom_type_partial_charge
Co0 Co 0.14189 0.35997 0.09839 0.0
Co1 Co 0.13618 0.29993 0.08251 0.0
O2 O 0.14586 0.33287 0.07783 0.0
C3 C 0.12351 0.39707 0.0705 0.0
O4 O 0.11004 0.39656 0.08549 0.0
C5 C 0.17766 0.29246 0.0765 0.0
O6 O 0.18067 0.31077 0.09001 0.0
O7 O 0.145 0.29941 0.11428 0.0
O8 O 0.14634 0.33852 0.12464 0.0
H9 H 0.10054 0.23488 0.12318 0.0
H10 H 0.16925 0.3646 0.06138 0.0
O11 O 0.13741 0.38243 0.07224 0.0
H12 H 0.2064 0.37669 0.12999 0.0
H13 H 0.15004 0.44568 0.12585 0.0
H14 H 0.1207 0.36632 0.14053 0.0
H15 H 0.17214 0.36965 0.13195 0.0
H16 H 0.15496 0.41151 0.10001 0.0
O17 O 0.16086 0.28577 0.07224 0.0
H18 H 0.11274 0.27617 0.11711 0.0
H19 H 0.13919 0.25362 0.05706 0.0
H20 H 0.11545 0.4 0.16684 0.0
H21 H 0.20345 0.37192 0.0586 0.0
H22 H 0.13017 0.44003 0.15955 0.0
H23 H 0.22228 0.37792 0.09308 0.0
O24 O 0.11428 0.3527 0.09991 0.0
H25 H 0.14254 0.31414 1.00005 0.0
H26 H 0.09991 0.28736 0.06012 0.0
H27 H 0.08845 0.2881 0.02129 0.0
H28 H 0.10986 0.30147 0.99092 0.0
H29 H 0.15336 0.31336 0.03914 0.0
H30 H 0.1274 0.21205 0.06257 0.0
H31 H 0.10787 0.20247 0.0958 0.0
O32 O 0.11128 0.31308 0.09226 0.0
C33 C 0.14752 0.31594 0.1289 0.0
C34 C 0.10902 0.23883 0.10863 0.0
C35 C 0.12412 0.22601 0.07463 0.0
N36 N 0.12666 0.26731 0.08675 0.0
C37 C 0.11595 0.26218 0.10509 0.0
C38 C 0.13082 0.24957 0.07164 0.0
C39 C 0.11315 0.22065 0.09327 0.0
C40 C 0.17732 0.3674 0.07645 0.0
N41 N 0.16871 0.36665 0.09682 0.0
C42 C 0.19669 0.37145 0.07478 0.0
C43 C 0.20726 0.37477 0.09413 0.0
C44 C 0.19836 0.37405 0.11484 0.0
C45 C 0.17897 0.36991 0.11587 0.0
C46 C 0.14357 0.42832 0.12922 0.0
C47 C 0.12719 0.38367 0.13729 0.0
C48 C 0.14631 0.4089 0.11466 0.0
N49 N 0.13816 0.38691 0.1188 0.0
C50 C 0.12415 0.40268 0.15222 0.0
C51 C 0.13241 0.42513 0.14812 0.0
C52 C 0.10436 0.33356 0.09771 0.0
C53 C 0.13309 0.30823 0.01313 0.0
C54 C 0.10928 0.29334 0.04702 0.0
C55 C 0.10272 0.29365 0.02505 0.0
C56 C 0.11475 0.30114 0.00802 0.0
N57 N 0.12732 0.30021 0.05189 0.0
C58 C 0.13916 0.30768 0.03529 0.0
Co59 Co 0.86454 0.63809 0.6044 0.0
Co60 Co 0.87046 0.69695 0.58522 0.0
O61 O 0.85985 0.66409 0.58272 0.0
C62 C 0.87566 0.61464 0.5614 0.0
O63 O 0.88334 0.63499 0.55465 0.0
C64 C 0.829 0.70487 0.57859 0.0
O65 O 0.82563 0.68561 0.59077 0.0
O66 O 0.86248 0.6998 0.61715 0.0
O67 O 0.86179 0.66139 0.62961 0.0
H68 H 0.90874 0.76282 0.62109 0.0
H69 H 0.835 0.6323 0.57 0.0
O70 O 0.86726 0.61352 0.58011 0.0
H71 H 0.80203 0.6237 0.64196 0.0
H72 H 0.85824 0.55385 0.63591 0.0
H73 H 0.88734 0.63425 0.64563 0.0
H74 H 0.83638 0.63033 0.64073 0.0
H75 H 0.85197 0.58665 0.60899 0.0
O76 O 0.84589 0.7118 0.57523 0.0
H77 H 0.89531 0.7218 0.6177 0.0
H78 H 0.86801 0.74168 0.55735 0.0
H79 H 0.89385 0.60201 0.67309 0.0
H80 H 0.80066 0.6253 0.57037 0.0
H81 H 0.87926 0.56146 0.6683 0.0
H82 H 0.78394 0.62109 0.60656 0.0
O83 O 0.89229 0.64396 0.60318 0.0
H84 H 0.86148 0.67759 0.50401 0.0
H85 H 0.90644 0.70628 0.56089 0.0
H86 H 0.91685 0.70217 0.52184 0.0
H87 H 0.89429 0.68779 0.49308 0.0
H88 H 0.85171 0.68174 0.5433 0.0
H89 H 0.88102 0.78297 0.56018 0.0
H90 H 0.90161 0.79374 0.59219 0.0
O91 O 0.89533 0.6834 0.59477 0.0
C92 C 0.8606 0.68418 0.63271 0.0
C93 C 0.89981 0.75834 0.60705 0.0
C94 C 0.88424 0.76966 0.57288 0.0
N95 N 0.88093 0.72933 0.58734 0.0
C96 C 0.89219 0.73513 0.60503 0.0
C97 C 0.87686 0.74626 0.57141 0.0
C98 C 0.89579 0.77569 0.59083 0.0
C99 C 0.82782 0.63035 0.5858 0.0
N100 N 0.83763 0.63202 0.60535 0.0
C101 C 0.80838 0.62644 0.58591 0.0
C102 C 0.799 0.62412 0.60622 0.0
C103 C 0.80913 0.62564 0.62608 0.0
C104 C 0.82855 0.6296 0.62532 0.0
C105 C 0.86466 0.57145 0.6382 0.0
C106 C 0.88084 0.61669 0.64352 0.0
C107 C 0.8612 0.59008 0.62298 0.0
N108 N 0.86919 0.6124 0.62582 0.0
C109 C 0.88462 0.59849 0.65908 0.0
C110 C 0.87645 0.57574 0.65637 0.0
C111 C 0.90228 0.66289 0.60013 0.0
C112 C 0.87143 0.68396 0.51638 0.0
C113 C 0.89654 0.69994 0.5485 0.0
C114 C 0.90252 0.6977 0.5264 0.0
C115 C 0.88984 0.68965 0.51026 0.0
N116 N 0.87844 0.69438 0.55435 0.0
C117 C 0.86595 0.68644 0.53863 0.0
Co118 Co 0.14573 0.64378 0.90242 0.0
Co119 Co 0.13798 0.70202 0.92194 0.0
O120 O 0.14976 0.66996 0.9239 0.0
C121 C 0.13389 0.61905 0.94437 0.0
O122 O 0.12223 0.63701 0.94835 0.0
C123 C 0.17921 0.71282 0.92571 0.0
O124 O 0.18255 0.69557 0.91117 0.0
O125 O 0.14495 0.70537 0.88964 0.0
O126 O 0.14726 0.66708 0.87708 0.0
H127 H 0.09655 0.76589 0.88783 0.0
H128 H 0.17601 0.64035 0.93628 0.0
O129 O 0.14448 0.6195 0.92724 0.0
H130 H 0.20817 0.63331 0.86367 0.0
H131 H 0.15465 0.55961 0.87179 0.0
H132 H 0.1228 0.63821 0.86143 0.0
H133 H 0.1736 0.63756 0.86559 0.0
H134 H 0.15996 0.59306 0.89829 0.0
O135 O 0.16231 0.71785 0.93121 0.0
H136 H 0.11137 0.72558 0.8906 0.0
H137 H 0.13984 0.74681 0.94976 0.0
H138 H 0.11722 0.60531 0.8344 0.0
H139 H 0.21059 0.63584 0.93519 0.0
H140 H 0.13321 0.56566 0.83951 0.0
H141 H 0.22689 0.6324 0.89867 0.0
O142 O 0.11774 0.64817 0.90377 0.0
H143 H 0.14979 0.68163 1.00244 0.0
H144 H 0.10277 0.71051 0.94806 0.0
H145 H 0.09361 0.70547 0.98745 0.0
H146 H 0.11723 0.69099 0.01498 0.0
H147 H 0.15826 0.68668 0.96282 0.0
H148 H 0.12546 0.78741 0.94754 0.0
H149 H 0.10359 0.79714 0.91644 0.0
O150 O 0.11336 0.68712 0.91334 0.0
C151 C 0.14732 0.68993 0.87402 0.0
C152 C 0.10604 0.76186 0.90148 0.0
C153 C 0.12229 0.77395 0.93497 0.0
N154 N 0.12643 0.73383 0.92033 0.0
C155 C 0.11445 0.73906 0.90315 0.0
C156 C 0.13045 0.75096 0.93609 0.0
C157 C 0.11001 0.77939 0.91752 0.0
C158 C 0.18301 0.63873 0.92034 0.0
N159 N 0.17283 0.63941 0.901 0.0
C160 C 0.20259 0.63623 0.91982 0.0
C161 C 0.21173 0.63434 0.89933 0.0
C162 C 0.20124 0.63489 0.87968 0.0
C163 C 0.18168 0.63745 0.88085 0.0
C164 C 0.14763 0.57682 0.86936 0.0
C165 C 0.12991 0.62106 0.86367 0.0
C166 C 0.15055 0.59581 0.88435 0.0
N167 N 0.1418 0.61763 0.88131 0.0
C168 C 0.12665 0.60248 0.84836 0.0
C169 C 0.1356 0.58023 0.85125 0.0
C170 C 0.1071 0.6664 0.9075 0.0
C171 C 0.13937 0.68797 0.99061 0.0
C172 C 0.11307 0.70402 0.95988 0.0
C173 C 0.10783 0.7013 0.98219 0.0
C174 C 0.1211 0.6932 0.99763 0.0
N175 N 0.13101 0.69887 0.95312 0.0
C176 C 0.1441 0.69092 0.96816 0.0
Co177 Co 0.86519 0.36177 0.39966 0.0
Co178 Co 0.87266 0.30463 0.42182 0.0
O179 O 0.8611 0.33701 0.4226 0.0
C180 C 0.8754 0.38852 0.44113 0.0
O181 O 0.88442 0.36928 0.44834 0.0
C182 C 0.83159 0.2942 0.4275 0.0
O183 O 0.82809 0.31019 0.41182 0.0
O184 O 0.86436 0.29927 0.39027 0.0
O185 O 0.86379 0.33683 0.37573 0.0
H186 H 0.91197 0.23778 0.38916 0.0
H187 H 0.83473 0.368 0.43284 0.0
O188 O 0.86652 0.38793 0.4227 0.0
H189 H 0.80298 0.36849 0.35966 0.0
H190 H 0.8561 0.44325 0.36336 0.0
H191 H 0.88868 0.3645 0.35891 0.0
H192 H 0.83753 0.36448 0.36218 0.0
H193 H 0.85064 0.41185 0.3919 0.0
O194 O 0.84856 0.28979 0.4332 0.0
H195 H 0.89753 0.2784 0.39029 0.0
H196 H 0.87179 0.26201 0.45243 0.0
H197 H 0.89442 0.39532 0.32988 0.0
H198 H 0.80014 0.37231 0.43111 0.0
H199 H 0.87807 0.43503 0.33202 0.0
H200 H 0.78405 0.37247 0.39431 0.0
O201 O 0.89306 0.3576 0.40187 0.0
H202 H 0.86418 0.32926 0.50187 0.0
H203 H 0.90919 0.29863 0.44592 0.0
H204 H 0.91999 0.30599 0.48442 0.0
H205 H 0.8974 0.32137 0.51271 0.0
H206 H 0.85401 0.32187 0.46312 0.0
H207 H 0.88581 0.22114 0.45188 0.0
H208 H 0.90613 0.20883 0.42012 0.0
O209 O 0.8971 0.31847 0.41094 0.0
C210 C 0.86265 0.31391 0.37392 0.0
C211 C 0.90317 0.24295 0.40311 0.0
C212 C 0.88847 0.2336 0.4383 0.0
N213 N 0.8839 0.27261 0.42143 0.0
C214 C 0.89499 0.26594 0.40386 0.0
C215 C 0.88052 0.25674 0.43848 0.0
C216 C 0.89988 0.22671 0.42048 0.0
C217 C 0.82782 0.36825 0.41677 0.0
N218 N 0.83811 0.36596 0.39764 0.0
C219 C 0.80824 0.37061 0.4159 0.0
C220 C 0.79922 0.37067 0.39524 0.0
C221 C 0.80983 0.36842 0.3758 0.0
C222 C 0.82938 0.36606 0.37732 0.0
C223 C 0.86328 0.42601 0.36223 0.0
C224 C 0.88143 0.38169 0.35987 0.0
C225 C 0.86029 0.40818 0.37837 0.0
N226 N 0.86925 0.38631 0.37699 0.0
C227 C 0.88477 0.39909 0.34342 0.0
C228 C 0.87561 0.42138 0.34464 0.0
C229 C 0.90352 0.33915 0.4052 0.0
C230 C 0.87414 0.32249 0.48971 0.0
C231 C 0.89928 0.3054 0.45811 0.0
C232 C 0.90547 0.30948 0.4799 0.0
C233 C 0.89279 0.31809 0.49577 0.0
N234 N 0.88095 0.30971 0.4523 0.0
C235 C 0.86845 0.31817 0.46777 0.0
Co236 Co 0.86687 0.63855 0.90144 0.0
Co237 Co 0.87233 0.67381 0.94824 0.0
O238 O 0.86012 0.66668 0.91969 0.0
C239 C 0.87027 0.67766 0.86714 0.0
O240 O 0.88206 0.68919 0.88027 0.0
C241 C 0.83147 0.67622 0.96057 0.0
O242 O 0.82885 0.65551 0.95026 0.0
O243 O 0.86668 0.64043 0.9594 0.0
O244 O 0.87102 0.61812 0.92853 0.0
H245 H 0.91553 0.65673 0.01276 0.0
H246 H 0.83107 0.66449 0.89271 0.0
O247 O 0.86271 0.65791 0.87354 0.0
H248 H 0.81259 0.58077 0.91117 0.0
H249 H 0.85987 0.58225 0.83588 0.0
H250 H 0.8967 0.60097 0.90347 0.0
H251 H 0.84609 0.5925 0.91029 0.0
H252 H 0.85137 0.61706 0.85961 0.0
O253 O 0.84778 0.68586 0.9609 0.0
H254 H 0.90017 0.64835 0.97665 0.0
H255 H 0.86987 0.71452 0.98089 0.0
H256 H 0.90559 0.56588 0.88032 0.0
H257 H 0.79739 0.65348 0.89319 0.0
H258 H 0.88711 0.55633 0.84625 0.0
H259 H 0.78797 0.61136 0.90254 0.0
O260 O 0.89396 0.64795 0.90182 0.0
H261 H 0.85639 0.75215 0.91003 0.0
H262 H 0.90637 0.70569 0.94789 0.0
H263 H 0.91352 0.74628 0.933 0.0
H264 H 0.8884 0.76984 0.91394 0.0
H265 H 0.84994 0.71136 0.925 0.0
H266 H 0.88474 0.7235 0.01714 0.0
H267 H 0.90782 0.69454 0.03326 0.0
O268 O 0.89742 0.66263 0.9365 0.0
C269 C 0.86882 0.62011 0.94955 0.0
C270 C 0.90553 0.66951 0.00588 0.0
C271 C 0.88823 0.70698 0.00836 0.0
N272 N 0.88422 0.68098 0.97662 0.0
C273 C 0.89682 0.66489 0.98542 0.0
C274 C 0.8798 0.70175 0.98786 0.0
C275 C 0.90118 0.69072 0.01739 0.0
C276 C 0.82708 0.64608 0.89659 0.0
N277 N 0.84053 0.62915 0.90136 0.0
C278 C 0.80799 0.63997 0.89692 0.0
C279 C 0.80271 0.61634 0.9022 0.0
C280 C 0.81651 0.59918 0.90706 0.0
C281 C 0.83547 0.60595 0.90659 0.0
C282 C 0.868 0.5862 0.85072 0.0
C283 C 0.88851 0.59683 0.88876 0.0
C284 C 0.86328 0.60591 0.8642 0.0
N285 N 0.87344 0.61092 0.88302 0.0
C286 C 0.89365 0.57698 0.87567 0.0
C287 C 0.88329 0.57165 0.85654 0.0
C288 C 0.90422 0.65507 0.91802 0.0
C289 C 0.86745 0.74208 0.91832 0.0
C290 C 0.89542 0.71574 0.93948 0.0
C291 C 0.89952 0.73877 0.93116 0.0
C292 C 0.88542 0.75198 0.92049 0.0
N293 N 0.87777 0.70614 0.93729 0.0
C294 C 0.86387 0.719 0.92687 0.0
Co295 Co 0.14417 0.36527 0.39829 0.0
Co296 Co 0.1373 0.33251 0.44632 0.0
O297 O 0.14992 0.33761 0.41759 0.0
C298 C 0.13977 0.32569 0.36435 0.0
O299 O 0.12713 0.3151 0.37704 0.0
C300 C 0.17795 0.32845 0.45883 0.0
O301 O 0.18104 0.34862 0.44781 0.0
O302 O 0.14402 0.36591 0.45629 0.0
O303 O 0.14045 0.38702 0.42463 0.0
H304 H 0.09481 0.35504 0.51004 0.0
H305 H 0.17926 0.33734 0.39124 0.0
O306 O 0.1481 0.3448 0.37102 0.0
H307 H 0.19997 0.42101 0.40621 0.0
H308 H 0.15301 0.41878 0.33102 0.0
H309 H 0.11536 0.40416 0.39882 0.0
H310 H 0.16617 0.4108 0.40533 0.0
H311 H 0.1605 0.38457 0.35596 0.0
O312 O 0.16139 0.31956 0.45956 0.0
H313 H 0.11047 0.36093 0.47372 0.0
H314 H 0.13809 0.29305 0.48035 0.0
H315 H 0.10749 0.43871 0.37445 0.0
H316 H 0.21324 0.34679 0.39175 0.0
H317 H 0.12638 0.44619 0.34026 0.0
H318 H 0.22378 0.38888 0.39934 0.0
O319 O 0.11685 0.35684 0.39861 0.0
H320 H 0.15023 0.25134 0.41176 0.0
H321 H 0.10184 0.30339 0.44619 0.0
H322 H 0.09311 0.26266 0.43289 0.0
H323 H 0.11741 0.2363 0.41558 0.0
H324 H 0.15832 0.29229 0.42514 0.0
H325 H 0.12284 0.28651 0.51683 0.0
H326 H 0.10096 0.3176 0.53186 0.0
O327 O 0.11273 0.3448 0.43405 0.0
C328 C 0.14256 0.38591 0.44574 0.0
C329 C 0.10427 0.34133 0.50364 0.0
C330 C 0.12002 0.30288 0.50746 0.0
N331 N 0.12507 0.32729 0.47486 0.0
C332 C 0.11314 0.34454 0.48306 0.0
C333 C 0.12865 0.30671 0.48682 0.0
C334 C 0.10774 0.32033 0.51588 0.0
C335 C 0.18375 0.35573 0.39438 0.0
N336 N 0.17075 0.37349 0.39821 0.0
C337 C 0.203 0.36096 0.39472 0.0
C338 C 0.2089 0.38457 0.39902 0.0
C339 C 0.19556 0.4026 0.40289 0.0
C340 C 0.17643 0.39669 0.40244 0.0
C341 C 0.14469 0.41572 0.34588 0.0
C342 C 0.12371 0.40736 0.38403 0.0
C343 C 0.14884 0.39634 0.36004 0.0
N344 N 0.13844 0.39244 0.3789 0.0
C345 C 0.11916 0.42693 0.37027 0.0
C346 C 0.12975 0.4311 0.35108 0.0
C347 C 0.10628 0.35123 0.41504 0.0
C348 C 0.13953 0.26262 0.41933 0.0
C349 C 0.11249 0.29206 0.43861 0.0
C350 C 0.10747 0.26899 0.43116 0.0
C351 C 0.12111 0.25421 0.42145 0.0
N352 N 0.1306 0.30015 0.43653 0.0
C353 C 0.14404 0.28579 0.427 0.0
Co354 Co 0.86392 0.36281 0.10542 0.0
Co355 Co 0.86967 0.33364 0.05533 0.0
O356 O 0.85763 0.33653 0.08469 0.0
C357 C 0.86976 0.32249 0.13852 0.0
O358 O 0.88401 0.31423 0.1268 0.0
C359 C 0.82854 0.32783 0.04529 0.0
O360 O 0.82477 0.34473 0.06001 0.0
O361 O 0.86232 0.36753 0.04775 0.0
O362 O 0.86759 0.38633 0.08029 0.0
H363 H 0.91079 0.36159 0.99217 0.0
H364 H 0.8286 0.33527 0.11255 0.0
O365 O 0.86011 0.34043 0.13151 0.0
H366 H 0.80872 0.42005 0.10173 0.0
H367 H 0.85658 0.41142 0.17597 0.0
H368 H 0.89316 0.40114 0.10669 0.0
H369 H 0.84237 0.40903 0.10077 0.0
H370 H 0.84841 0.37922 0.14917 0.0
O371 O 0.84552 0.32142 0.04173 0.0
H372 H 0.89575 0.36445 0.02916 0.0
H373 H 0.86853 0.29688 0.01882 0.0
H374 H 0.90171 0.43371 0.13293 0.0
H375 H 0.79479 0.34556 0.11395 0.0
H376 H 0.88336 0.43901 0.16787 0.0
H377 H 0.78466 0.38821 0.10842 0.0
O378 O 0.89108 0.35408 0.10394 0.0
H379 H 0.85809 0.24996 0.08518 0.0
H380 H 0.9053 0.30496 0.05239 0.0
H381 H 0.91459 0.26343 0.0628 0.0
H382 H 0.89088 0.23559 0.07927 0.0
H383 H 0.84945 0.29174 0.0747 0.0
H384 H 0.88314 0.2934 0.98164 0.0
H385 H 0.9045 0.32586 0.96813 0.0
O386 O 0.89445 0.34522 0.06766 0.0
C387 C 0.86456 0.3867 0.05931 0.0
C388 C 0.90154 0.3473 0.99789 0.0
C389 C 0.88601 0.30904 0.99197 0.0
N390 N 0.88138 0.33079 0.02621 0.0
C391 C 0.89302 0.34879 0.01884 0.0
C392 C 0.87774 0.31114 0.01302 0.0
C393 C 0.898 0.32726 0.9844 0.0
C394 C 0.82431 0.35391 0.11036 0.0
N395 N 0.83745 0.37152 0.10661 0.0
C396 C 0.80514 0.35961 0.11107 0.0
C397 C 0.79947 0.38353 0.10793 0.0
C398 C 0.81296 0.4014 0.10414 0.0
C399 C 0.83199 0.39503 0.10352 0.0
C400 C 0.86465 0.40934 0.16077 0.0
C401 C 0.88502 0.40343 0.12178 0.0
C402 C 0.86011 0.39111 0.14555 0.0
N403 N 0.87019 0.38844 0.12628 0.0
C404 C 0.88997 0.42186 0.13661 0.0
C405 C 0.87968 0.42481 0.15622 0.0
C406 C 0.90131 0.34979 0.08691 0.0
C407 C 0.86854 0.2619 0.07796 0.0
C408 C 0.89492 0.29299 0.05962 0.0
C409 C 0.90025 0.26947 0.06543 0.0
C410 C 0.88694 0.25386 0.07466 0.0
N411 N 0.87682 0.30072 0.06284 0.0
C412 C 0.86371 0.28554 0.07194 0.0
Co413 Co 0.14349 0.63912 0.60696 0.0
Co414 Co 0.13708 0.67007 0.55762 0.0
O415 O 0.14922 0.6662 0.58687 0.0
C416 C 0.1371 0.67948 0.63974 0.0
O417 O 0.12398 0.68864 0.62678 0.0
C418 C 0.17819 0.67565 0.54749 0.0
O419 O 0.18185 0.65827 0.56179 0.0
O420 O 0.14405 0.63634 0.54897 0.0
O421 O 0.14085 0.61624 0.58125 0.0
H422 H 0.09544 0.64464 0.49403 0.0
H423 H 0.17781 0.66834 0.61498 0.0
O424 O 0.14633 0.66083 0.63362 0.0
H425 H 0.20056 0.58497 0.60293 0.0
H426 H 0.15166 0.58873 0.67637 0.0
H427 H 0.11557 0.59921 0.60673 0.0
H428 H 0.16658 0.59417 0.60187 0.0
H429 H 0.15906 0.62218 0.65056 0.0
O430 O 0.16126 0.68243 0.54416 0.0
H431 H 0.11064 0.64042 0.53083 0.0
H432 H 0.13826 0.70799 0.52213 0.0
H433 H 0.10781 0.56538 0.63198 0.0
H434 H 0.21192 0.6599 0.61649 0.0
H435 H 0.12592 0.55998 0.6671 0.0
H436 H 0.2235 0.61797 0.61035 0.0
O437 O 0.11602 0.64653 0.60543 0.0
H438 H 0.14945 0.75265 0.5895 0.0
H439 H 0.10161 0.69916 0.5559 0.0
H440 H 0.09267 0.74042 0.56751 0.0
H441 H 0.11669 0.76751 0.58439 0.0
H442 H 0.15774 0.71115 0.57782 0.0
H443 H 0.12348 0.71286 0.48516 0.0
H444 H 0.10183 0.68108 0.47093 0.0
O445 O 0.1124 0.65832 0.56986 0.0
C446 C 0.14293 0.6167 0.56012 0.0
C447 C 0.1048 0.65865 0.50008 0.0
C448 C 0.12055 0.69692 0.49509 0.0
N449 N 0.12522 0.67401 0.52869 0.0
C450 C 0.11341 0.65638 0.52092 0.0
C451 C 0.12892 0.69404 0.51602 0.0
C452 C 0.10841 0.67909 0.48711 0.0
C453 C 0.18273 0.65001 0.6125 0.0
N454 N 0.17021 0.63178 0.60833 0.0
C455 C 0.20207 0.64536 0.61329 0.0
C456 C 0.20855 0.62184 0.6098 0.0
C457 C 0.19569 0.60332 0.6056 0.0
C458 C 0.17646 0.60866 0.60492 0.0
C459 C 0.14369 0.59087 0.6611 0.0
C460 C 0.12358 0.5969 0.62192 0.0
C461 C 0.14778 0.60982 0.64644 0.0
N462 N 0.13783 0.61256 0.62708 0.0
C463 C 0.11909 0.57775 0.63618 0.0
C464 C 0.12925 0.57474 0.65589 0.0
C465 C 0.10568 0.65191 0.58872 0.0
C466 C 0.13887 0.74104 0.58211 0.0
C467 C 0.11213 0.7108 0.5633 0.0
C468 C 0.10699 0.73417 0.56979 0.0
C469 C 0.12048 0.74936 0.57926 0.0
N470 N 0.13022 0.70281 0.56608 0.0
C471 C 0.1435 0.71757 0.5754 0.0
Co472 Co 0.64467 0.86274 0.10659 0.0
Co473 Co 0.63784 0.80666 0.08178 0.0
O474 O 0.64951 0.8389 0.08301 0.0
C475 C 0.6352 0.89015 0.0654 0.0
O476 O 0.62665 0.87075 0.0578 0.0
C477 C 0.67919 0.79615 0.07827 0.0
O478 O 0.68235 0.81227 0.09393 0.0
O479 O 0.64427 0.80004 0.11379 0.0
O480 O 0.64569 0.83694 0.12966 0.0
H481 H 0.59625 0.73936 0.10921 0.0
H482 H 0.6757 0.87125 0.07453 0.0
O483 O 0.64355 0.88964 0.08419 0.0
H484 H 0.7061 0.86746 0.14843 0.0
H485 H 0.6526 0.94294 0.14545 0.0
H486 H 0.62046 0.86378 0.14685 0.0
H487 H 0.67165 0.86322 0.14483 0.0
H488 H 0.65873 0.91261 0.11613 0.0
O489 O 0.66238 0.7918 0.07196 0.0
H490 H 0.61102 0.77977 0.11042 0.0
H491 H 0.64021 0.76505 0.05008 0.0
H492 H 0.61404 0.8935 0.17661 0.0
H493 H 0.7102 0.87582 0.07739 0.0
H494 H 0.63016 0.93342 0.17601 0.0
H495 H 0.72562 0.87385 0.11455 0.0
O496 O 0.61683 0.8584 0.10371 0.0
H497 H 0.65131 0.83497 0.00374 0.0
H498 H 0.60314 0.80104 0.05403 0.0
H499 H 0.59479 0.81016 0.015 0.0
H500 H 0.619 0.82722 0.98954 0.0
H501 H 0.65897 0.82584 0.04298 0.0
H502 H 0.6259 0.72441 0.04834 0.0
H503 H 0.60368 0.71136 0.07801 0.0
O504 O 0.61293 0.8205 0.09092 0.0
C505 C 0.64609 0.81394 0.13067 0.0
C506 C 0.60588 0.74485 0.09616 0.0
C507 C 0.62254 0.73645 0.06202 0.0
N508 N 0.62639 0.7748 0.0803 0.0
C509 C 0.61425 0.76773 0.09673 0.0
C510 C 0.63065 0.75946 0.06314 0.0
C511 C 0.61006 0.72914 0.07866 0.0
C512 C 0.6823 0.87062 0.09077 0.0
N513 N 0.67167 0.86707 0.10948 0.0
C514 C 0.70184 0.87311 0.09228 0.0
C515 C 0.71049 0.87197 0.11313 0.0
C516 C 0.69955 0.86837 0.13215 0.0
C517 C 0.68005 0.86592 0.13 0.0
C518 C 0.64551 0.9256 0.14591 0.0
C519 C 0.62761 0.88106 0.14656 0.0
C520 C 0.64889 0.90837 0.12933 0.0
N521 N 0.64004 0.8864 0.12986 0.0
C522 C 0.62388 0.89784 0.16341 0.0
C523 C 0.63292 0.92024 0.16306 0.0
C524 C 0.60641 0.84054 0.09821 0.0
C525 C 0.64065 0.82753 0.01466 0.0
C526 C 0.61369 0.80864 0.04312 0.0
C527 C 0.60892 0.81366 0.021 0.0
C528 C 0.62251 0.8232 0.00671 0.0
N529 N 0.6315 0.81295 0.05081 0.0
C530 C 0.64492 0.82225 0.03688 0.0
Co531 Co 0.365 0.1425 0.60557 0.0
Co532 Co 0.37143 0.19905 0.58146 0.0
O533 O 0.36008 0.16658 0.58219 0.0
C534 C 0.37476 0.1154 0.56418 0.0
O535 O 0.38304 0.1349 0.55638 0.0
C536 C 0.32997 0.20893 0.57772 0.0
O537 O 0.32689 0.19262 0.59324 0.0
O538 O 0.36479 0.20515 0.61351 0.0
O539 O 0.36349 0.16798 0.62886 0.0
H540 H 0.41222 0.26663 0.60997 0.0
H541 H 0.33425 0.1343 0.57307 0.0
O542 O 0.36651 0.11586 0.58302 0.0
H543 H 0.30341 0.13547 0.64677 0.0
H544 H 0.35776 0.06171 0.64366 0.0
H545 H 0.38896 0.14145 0.64604 0.0
H546 H 0.33783 0.14041 0.64355 0.0
H547 H 0.35145 0.09224 0.61456 0.0
O548 O 0.34677 0.21364 0.57159 0.0
H549 H 0.39787 0.22595 0.61058 0.0
H550 H 0.36877 0.2411 0.55025 0.0
H551 H 0.39555 0.11153 0.6756 0.0
H552 H 0.29978 0.12905 0.57552 0.0
H553 H 0.37989 0.07132 0.67451 0.0
H554 H 0.28414 0.12971 0.61258 0.0
O555 O 0.39281 0.14734 0.60295 0.0
H556 H 0.35861 0.17173 0.50297 0.0
H557 H 0.40619 0.20568 0.55403 0.0
H558 H 0.41481 0.19734 0.51495 0.0
H559 H 0.3909 0.18028 0.4891 0.0
H560 H 0.35069 0.18008 0.54227 0.0
H561 H 0.38265 0.28201 0.5491 0.0
H562 H 0.40461 0.29498 0.57906 0.0
O563 O 0.39644 0.18548 0.5906 0.0
C564 C 0.36292 0.19096 0.63019 0.0
C565 C 0.4027 0.26117 0.59679 0.0
C566 C 0.38608 0.26982 0.56264 0.0
N567 N 0.38256 0.23112 0.58043 0.0
C568 C 0.39457 0.23815 0.59702 0.0
C569 C 0.37821 0.24666 0.56343 0.0
C570 C 0.39841 0.27708 0.57946 0.0
C571 C 0.32755 0.1344 0.58926 0.0
N572 N 0.33803 0.13763 0.60814 0.0
C573 C 0.30803 0.1315 0.59054 0.0
C574 C 0.29926 0.13191 0.61133 0.0
C575 C 0.31005 0.13516 0.63052 0.0
C576 C 0.32954 0.13802 0.6286 0.0
C577 C 0.36464 0.07918 0.64434 0.0
C578 C 0.38201 0.12404 0.64553 0.0
C579 C 0.36116 0.09652 0.62787 0.0
N580 N 0.36975 0.11866 0.62867 0.0
C581 C 0.38584 0.10715 0.66228 0.0
C582 C 0.37706 0.08458 0.66164 0.0
C583 C 0.40311 0.16542 0.59768 0.0
C584 C 0.36915 0.17918 0.51407 0.0
C585 C 0.39578 0.19807 0.54296 0.0
C586 C 0.4007 0.19349 0.5208 0.0
C587 C 0.38728 0.18395 0.5063 0.0
N588 N 0.37798 0.19333 0.55046 0.0
C589 C 0.36473 0.18402 0.53632 0.0
Co590 Co 0.64419 0.13864 0.89945 0.0
Co591 Co 0.63885 0.19673 0.92098 0.0
O592 O 0.64952 0.16382 0.92174 0.0
C593 C 0.63362 0.11464 0.9423 0.0
O594 O 0.62661 0.13519 0.94955 0.0
C595 C 0.68066 0.20412 0.92573 0.0
O596 O 0.68367 0.18436 0.91413 0.0
O597 O 0.64501 0.20063 0.88852 0.0
O598 O 0.64699 0.16272 0.87496 0.0
H599 H 0.59854 0.26353 0.8899 0.0
H600 H 0.67399 0.1305 0.93321 0.0
O601 O 0.64136 0.11342 0.9232 0.0
H602 H 0.70613 0.12471 0.8605 0.0
H603 H 0.64911 0.05534 0.86567 0.0
H604 H 0.62104 0.13668 0.85837 0.0
H605 H 0.67191 0.13222 0.86247 0.0
H606 H 0.65601 0.08711 0.89339 0.0
O607 O 0.66389 0.21142 0.92933 0.0
H608 H 0.61218 0.22246 0.8912 0.0
H609 H 0.64289 0.24067 0.94966 0.0
H610 H 0.6139 0.10549 0.83015 0.0
H611 H 0.70819 0.12258 0.93205 0.0
H612 H 0.62797 0.06448 0.83372 0.0
H613 H 0.7245 0.11977 0.89549 0.0
O614 O 0.6165 0.14507 0.90106 0.0
H615 H 0.65255 0.17404 1.00054 0.0
H616 H 0.6047 0.20613 0.94876 0.0
H617 H 0.59663 0.20065 0.98844 0.0
H618 H 0.62068 0.18454 0.01465 0.0
H619 H 0.65992 0.17955 0.96068 0.0
H620 H 0.62971 0.28199 0.94887 0.0
H621 H 0.60731 0.29362 0.91888 0.0
O622 O 0.61352 0.18336 0.91319 0.0
C623 C 0.64734 0.18564 0.87253 0.0
C624 C 0.60826 0.25866 0.90308 0.0
C625 C 0.62578 0.26904 0.93616 0.0
N626 N 0.62826 0.22914 0.92052 0.0
C627 C 0.616 0.23542 0.90392 0.0
C628 C 0.63324 0.24563 0.93647 0.0
C629 C 0.6132 0.27555 0.91933 0.0
C630 C 0.68097 0.12911 0.91724 0.0
N631 N 0.671 0.132 0.89792 0.0
C632 C 0.70035 0.12471 0.91669 0.0
C633 C 0.70949 0.12318 0.89617 0.0
C634 C 0.6992 0.12599 0.87653 0.0
C635 C 0.67985 0.13041 0.87774 0.0
C636 C 0.64291 0.07315 0.86391 0.0
C637 C 0.62731 0.11891 0.85995 0.0
C638 C 0.64673 0.0912 0.87959 0.0
N639 N 0.63902 0.11378 0.87742 0.0
C640 C 0.62317 0.10131 0.84396 0.0
C641 C 0.63106 0.0783 0.84599 0.0
C642 C 0.60652 0.16345 0.90626 0.0
C643 C 0.64196 0.18112 0.9893 0.0
C644 C 0.61518 0.19896 0.96001 0.0
C645 C 0.61057 0.19599 0.98249 0.0
C646 C 0.62407 0.18698 0.99719 0.0
N647 N 0.63276 0.19319 0.95238 0.0
C648 C 0.64608 0.18437 0.96671 0.0
Co649 Co 0.36433 0.86347 0.40253 0.0
Co650 Co 0.36932 0.80574 0.42504 0.0
O651 O 0.35863 0.8387 0.4251 0.0
C652 C 0.37436 0.88854 0.44497 0.0
O653 O 0.38164 0.86829 0.45257 0.0
C654 C 0.32745 0.79846 0.42942 0.0
O655 O 0.32454 0.81806 0.41754 0.0
O656 O 0.3634 0.80121 0.39257 0.0
O657 O 0.36216 0.83894 0.37845 0.0
H658 H 0.40981 0.73834 0.39554 0.0
H659 H 0.3338 0.87267 0.4351 0.0
O660 O 0.36656 0.88919 0.42587 0.0
H661 H 0.30317 0.87528 0.36129 0.0
H662 H 0.35965 0.94592 0.36693 0.0
H663 H 0.38847 0.86479 0.36224 0.0
H664 H 0.33735 0.86802 0.36452 0.0
H665 H 0.35232 0.91469 0.39504 0.0
O666 O 0.34419 0.79121 0.43331 0.0
H667 H 0.39613 0.77942 0.39595 0.0
H668 H 0.36507 0.76237 0.45444 0.0
H669 H 0.39607 0.89542 0.33366 0.0
H670 H 0.29961 0.88034 0.43263 0.0
H671 H 0.38162 0.93633 0.33591 0.0
H672 H 0.28407 0.88157 0.39552 0.0
O673 O 0.39197 0.85725 0.40516 0.0
H674 H 0.35498 0.83022 0.50396 0.0
H675 H 0.40317 0.79669 0.45347 0.0
H676 H 0.41091 0.80304 0.49313 0.0
H677 H 0.38669 0.81988 0.5187 0.0
H678 H 0.34794 0.82385 0.46412 0.0
H679 H 0.37827 0.72105 0.45453 0.0
H680 H 0.40087 0.70884 0.42498 0.0
O681 O 0.39477 0.81896 0.4174 0.0
C682 C 0.36155 0.81603 0.37636 0.0
C683 C 0.40001 0.74347 0.40853 0.0
C684 C 0.38228 0.73375 0.44162 0.0
N685 N 0.37989 0.77333 0.42525 0.0
C686 C 0.39225 0.76672 0.40888 0.0
C687 C 0.37481 0.75716 0.44144 0.0
C688 C 0.39497 0.72691 0.42504 0.0
C689 C 0.32716 0.87341 0.41889 0.0
N690 N 0.33754 0.86985 0.39999 0.0
C691 C 0.30779 0.87766 0.4176 0.0
C692 C 0.29907 0.87831 0.39677 0.0
C693 C 0.30977 0.87475 0.37756 0.0
C694 C 0.32911 0.87052 0.3795 0.0
C695 C 0.36602 0.92815 0.36575 0.0
C696 C 0.38204 0.88251 0.36326 0.0
C697 C 0.36195 0.91041 0.38165 0.0
N698 N 0.36987 0.88789 0.3802 0.0
C699 C 0.38644 0.8998 0.34706 0.0
C700 C 0.37834 0.92275 0.34835 0.0
C701 C 0.40187 0.83889 0.41063 0.0
C702 C 0.36564 0.82284 0.493 0.0
C703 C 0.39261 0.80419 0.46443 0.0
C704 C 0.39704 0.80765 0.48691 0.0
C705 C 0.38344 0.81707 0.50125 0.0
N706 N 0.37513 0.80989 0.45645 0.0
C707 C 0.36171 0.8191 0.47043 0.0
Co708 Co 0.36535 0.13986 0.89902 0.0
Co709 Co 0.37229 0.17241 0.94747 0.0
O710 O 0.35982 0.16725 0.91869 0.0
C711 C 0.37232 0.17909 0.86521 0.0
O712 O 0.38636 0.18741 0.87725 0.0
C713 C 0.33148 0.17429 0.95997 0.0
O714 O 0.32886 0.15424 0.9486 0.0
O715 O 0.36679 0.13838 0.95705 0.0
O716 O 0.36795 0.11751 0.92498 0.0
H717 H 0.41603 0.15113 0.01039 0.0
H718 H 0.33114 0.16953 0.89146 0.0
O719 O 0.36247 0.16131 0.87214 0.0
H720 H 0.30796 0.08652 0.90438 0.0
H721 H 0.35652 0.08876 0.83023 0.0
H722 H 0.39288 0.09945 0.89964 0.0
H723 H 0.34202 0.09525 0.90464 0.0
H724 H 0.34951 0.12265 0.85569 0.0
O725 O 0.34785 0.18372 0.96099 0.0
H726 H 0.4004 0.14516 0.97405 0.0
H727 H 0.37011 0.21089 0.98236 0.0
H728 H 0.40024 0.06519 0.87474 0.0
H729 H 0.29695 0.16156 0.89085 0.0
H730 H 0.382 0.05969 0.83974 0.0
H731 H 0.28516 0.11981 0.8974 0.0
O732 O 0.39294 0.14672 0.90033 0.0
H733 H 0.35622 0.25313 0.91378 0.0
H734 H 0.40635 0.20416 0.94852 0.0
H735 H 0.41348 0.24564 0.93585 0.0
H736 H 0.38828 0.27046 0.91838 0.0
H737 H 0.34979 0.21145 0.92649 0.0
H738 H 0.38528 0.21747 0.01887 0.0
H739 H 0.40849 0.18751 0.03307 0.0
O740 O 0.39713 0.16191 0.93476 0.0
C741 C 0.36708 0.11847 0.94619 0.0
C742 C 0.40598 0.16435 0.00436 0.0
C743 C 0.3887 0.20156 0.00914 0.0
N744 N 0.38445 0.17773 0.97603 0.0
C745 C 0.39713 0.1611 0.98377 0.0
C746 C 0.38011 0.1977 0.98848 0.0
C747 C 0.40173 0.18475 0.01709 0.0
C748 C 0.32612 0.15128 0.89414 0.0
N749 N 0.33857 0.13287 0.89801 0.0
C750 C 0.30674 0.14689 0.89385 0.0
C751 C 0.30014 0.12347 0.89756 0.0
C752 C 0.31292 0.10479 0.90149 0.0
C753 C 0.3322 0.10985 0.90169 0.0
C754 C 0.36455 0.09095 0.84545 0.0
C755 C 0.3848 0.0971 0.8845 0.0
C756 C 0.36067 0.11014 0.85991 0.0
N757 N 0.3707 0.11294 0.87921 0.0
C758 C 0.38907 0.0777 0.87044 0.0
C759 C 0.37884 0.07463 0.8508 0.0
C760 C 0.40352 0.15384 0.91627 0.0
C761 C 0.36732 0.2425 0.92137 0.0
C762 C 0.39537 0.21476 0.94077 0.0
C763 C 0.39946 0.23828 0.93372 0.0
C764 C 0.38531 0.25221 0.92394 0.0
N765 N 0.3777 0.20536 0.93821 0.0
C766 C 0.36375 0.21891 0.92864 0.0
Co767 Co 0.64254 0.86089 0.40148 0.0
Co768 Co 0.63777 0.83153 0.45247 0.0
O769 O 0.64869 0.83462 0.42242 0.0
C770 C 0.62918 0.83382 0.3618 0.0
O771 O 0.61303 0.84509 0.3644 0.0
C772 C 0.67965 0.82753 0.46008 0.0
O773 O 0.68275 0.84218 0.44325 0.0
O774 O 0.64328 0.86627 0.45929 0.0
O775 O 0.64273 0.8852 0.42612 0.0
H776 H 0.59674 0.85736 0.51645 0.0
H777 H 0.67479 0.82869 0.39107 0.0
O778 O 0.64241 0.83692 0.37599 0.0
H779 H 0.702 0.91054 0.39754 0.0
H780 H 0.6485 0.90751 0.3295 0.0
H781 H 0.61611 0.90244 0.40212 0.0
H782 H 0.6679 0.90407 0.40257 0.0
H783 H 0.6562 0.87486 0.35606 0.0
O784 O 0.66286 0.82192 0.46555 0.0
H785 H 0.6106 0.86048 0.47883 0.0
H786 H 0.64201 0.79607 0.48983 0.0
H787 H 0.60803 0.93545 0.37608 0.0
H788 H 0.70894 0.83441 0.38557 0.0
H789 H 0.62427 0.93812 0.33947 0.0
H790 H 0.72276 0.87557 0.38889 0.0
O791 O 0.61501 0.85581 0.40629 0.0
H792 H 0.65353 0.74841 0.42397 0.0
H793 H 0.60427 0.79933 0.45802 0.0
H794 H 0.59728 0.75667 0.44917 0.0
H795 H 0.62205 0.73086 0.4321 0.0
H796 H 0.65982 0.79127 0.43286 0.0
H797 H 0.62862 0.79238 0.52763 0.0
H798 H 0.60575 0.82311 0.54114 0.0
O799 O 0.61225 0.8404 0.44076 0.0
C800 C 0.64371 0.88544 0.44736 0.0
C801 C 0.60665 0.84381 0.51073 0.0
C802 C 0.62456 0.80736 0.51702 0.0
N803 N 0.62699 0.8284 0.48208 0.0
C804 C 0.6145 0.84545 0.48943 0.0
C805 C 0.63213 0.80959 0.49562 0.0
C806 C 0.61172 0.82461 0.52458 0.0
C807 C 0.68067 0.8467 0.39229 0.0
N808 N 0.66934 0.86602 0.39707 0.0
C809 C 0.70003 0.84981 0.38927 0.0
C810 C 0.70778 0.87289 0.39118 0.0
C811 C 0.69614 0.89252 0.39606 0.0
C812 C 0.67685 0.88872 0.399 0.0
C813 C 0.64134 0.90656 0.34541 0.0
C814 C 0.62328 0.90352 0.38624 0.0
C815 C 0.64563 0.88811 0.36052 0.0
N816 N 0.63664 0.88677 0.38065 0.0
C817 C 0.61863 0.92224 0.37156 0.0
C818 C 0.62774 0.92372 0.35101 0.0
C819 C 0.60511 0.8486 0.42274 0.0
C820 C 0.64263 0.75946 0.43143 0.0
C821 C 0.61505 0.7883 0.45041 0.0
C822 C 0.61105 0.76411 0.44553 0.0
C823 C 0.62496 0.74963 0.43597 0.0
N824 N 0.63243 0.79779 0.44596 0.0
C825 C 0.64612 0.78373 0.43655 0.0
Co826 Co 0.36547 0.86524 0.10654 0.0
Co827 Co 0.37195 0.83295 0.05789 0.0
O828 O 0.35969 0.83797 0.0868 0.0
C829 C 0.37244 0.82624 0.14069 0.0
O830 O 0.38672 0.81801 0.12901 0.0
C831 C 0.33111 0.83097 0.0455 0.0
O832 O 0.3284 0.85094 0.05695 0.0
O833 O 0.36629 0.86699 0.04849 0.0
O834 O 0.36816 0.88765 0.08062 0.0
H835 H 0.41517 0.85467 0.99462 0.0
H836 H 0.33109 0.83597 0.11412 0.0
O837 O 0.3625 0.84378 0.1334 0.0
H838 H 0.30844 0.91932 0.10156 0.0
H839 H 0.35719 0.91626 0.17547 0.0
H840 H 0.3933 0.9053 0.10593 0.0
H841 H 0.34244 0.91016 0.10113 0.0
H842 H 0.34987 0.88254 0.14995 0.0
O843 O 0.34749 0.82158 0.04451 0.0
H844 H 0.39975 0.86046 0.03111 0.0
H845 H 0.36974 0.79452 0.02295 0.0
H846 H 0.40097 0.93938 0.13089 0.0
H847 H 0.29695 0.84437 0.1149 0.0
H848 H 0.38286 0.94503 0.16596 0.0
H849 H 0.28543 0.88629 0.10852 0.0
O850 O 0.39303 0.85805 0.10508 0.0
H851 H 0.35634 0.75198 0.09132 0.0
H852 H 0.40617 0.80142 0.05661 0.0
H853 H 0.41349 0.75991 0.06905 0.0
H854 H 0.38845 0.73485 0.0865 0.0
H855 H 0.34971 0.7937 0.07883 0.0
H856 H 0.3847 0.78813 0.9863 0.0
H857 H 0.40766 0.81829 0.97195 0.0
O858 O 0.39682 0.84354 0.07037 0.0
C859 C 0.36693 0.88683 0.05942 0.0
C860 C 0.40523 0.84137 1.00072 0.0
C861 C 0.38811 0.80404 0.99603 0.0
N862 N 0.38395 0.82779 0.0292 0.0
C863 C 0.39649 0.84452 0.02138 0.0
C864 C 0.37963 0.8078 0.01677 0.0
C865 C 0.40099 0.82096 0.988 0.0
C866 C 0.32618 0.8543 0.11151 0.0
N867 N 0.33875 0.87256 0.10765 0.0
C868 C 0.30684 0.85892 0.1119 0.0
C869 C 0.30038 0.88244 0.10829 0.0
C870 C 0.31329 0.90098 0.10436 0.0
C871 C 0.33253 0.89567 0.10407 0.0
C872 C 0.36517 0.91401 0.16022 0.0
C873 C 0.38528 0.90771 0.1211 0.0
C874 C 0.36112 0.89492 0.14573 0.0
N875 N 0.37107 0.89203 0.12639 0.0
C876 C 0.38972 0.92701 0.13519 0.0
C877 C 0.37956 0.93015 0.15487 0.0
C878 C 0.40344 0.85125 0.08887 0.0
C879 C 0.36737 0.76271 0.08372 0.0
C880 C 0.39525 0.79072 0.06434 0.0
C881 C 0.39945 0.76718 0.07126 0.0
C882 C 0.38539 0.75312 0.08103 0.0
N883 N 0.37754 0.8 0.06701 0.0
C884 C 0.36369 0.78632 0.07658 0.0
Co885 Co 0.64399 0.13916 0.60515 0.0
Co886 Co 0.63799 0.17253 0.55702 0.0
O887 O 0.65011 0.16676 0.58593 0.0
C888 C 0.63816 0.17893 0.63852 0.0
O889 O 0.62559 0.18893 0.62533 0.0
C890 C 0.67897 0.17469 0.54517 0.0
O891 O 0.68161 0.15465 0.55656 0.0
O892 O 0.64356 0.13866 0.54703 0.0
O893 O 0.64123 0.11739 0.5788 0.0
H894 H 0.59493 0.15261 0.49309 0.0
H895 H 0.67859 0.16769 0.61361 0.0
O896 O 0.64693 0.15992 0.6324 0.0
H897 H 0.70055 0.08435 0.59952 0.0
H898 H 0.65149 0.08632 0.67309 0.0
H899 H 0.61575 0.09963 0.6036 0.0
H900 H 0.66664 0.09403 0.599 0.0
H901 H 0.65925 0.12054 0.64829 0.0
O902 O 0.66257 0.18402 0.54399 0.0
H903 H 0.61019 0.14585 0.52955 0.0
H904 H 0.64051 0.21175 0.52283 0.0
H905 H 0.60763 0.06507 0.62783 0.0
H906 H 0.71264 0.15876 0.61449 0.0
H907 H 0.62556 0.05825 0.66286 0.0
H908 H 0.72382 0.11685 0.60735 0.0
O909 O 0.61653 0.14689 0.60372 0.0
H910 H 0.6538 0.25251 0.59224 0.0
H911 H 0.60394 0.20439 0.55607 0.0
H912 H 0.59674 0.24561 0.56936 0.0
H913 H 0.6218 0.27 0.58756 0.0
H914 H 0.66032 0.21109 0.57888 0.0
H915 H 0.62571 0.21912 0.48622 0.0
H916 H 0.60268 0.18947 0.47117 0.0
O917 O 0.61297 0.16188 0.56914 0.0
C918 C 0.64267 0.11861 0.55763 0.0
C919 C 0.60491 0.16569 0.4995 0.0
C920 C 0.62221 0.203 0.49563 0.0
N921 N 0.62614 0.17845 0.52836 0.0
C922 C 0.61356 0.16199 0.52015 0.0
C923 C 0.63059 0.19869 0.51634 0.0
C924 C 0.60928 0.18636 0.4872 0.0
C925 C 0.68334 0.14937 0.61067 0.0
N926 N 0.67064 0.13139 0.60632 0.0
C927 C 0.70264 0.14444 0.61111 0.0
C928 C 0.7089 0.12092 0.60707 0.0
C929 C 0.69586 0.10268 0.60266 0.0
C930 C 0.67667 0.10829 0.60232 0.0
C931 C 0.6436 0.08908 0.65785 0.0
C932 C 0.62369 0.0967 0.61876 0.0
C933 C 0.6479 0.10846 0.64376 0.0
N934 N 0.63804 0.11199 0.62444 0.0
C935 C 0.61899 0.07714 0.63244 0.0
C936 C 0.62905 0.07333 0.6521 0.0
C937 C 0.60623 0.15402 0.58753 0.0
C938 C 0.64277 0.24207 0.58432 0.0
C939 C 0.61487 0.2148 0.56411 0.0
C940 C 0.61073 0.23818 0.57152 0.0
C941 C 0.6248 0.25186 0.58171 0.0
N942 N 0.63252 0.20532 0.56672 0.0
C943 C 0.64639 0.21863 0.57668 0.0
C944 C 0.0722 0.3145 0.09767 0.0
C945 C 0.08352 0.33523 0.10036 0.0
C946 C 0.05255 0.31621 0.09812 0.0
C947 C 0.01254 0.35661 0.11374 0.0
H948 H 0.98569 0.31768 0.07034 0.0
C949 C 0.93068 0.35122 0.11058 0.0
C950 C 0.92217 0.34969 0.08942 0.0
C951 C 0.95032 0.34995 0.11282 0.0
C952 C 0.99293 0.32887 0.08244 0.0
H953 H 0.08277 0.37387 0.10686 0.0
H954 H 0.04854 0.37695 0.10704 0.0
H955 H 0.01974 0.31469 0.07289 0.0
H956 H 0.92784 0.34634 0.05396 0.0
H957 H 0.96186 0.34464 0.05784 0.0
H958 H 0.98565 0.37136 0.12275 0.0
C959 C 0.05489 0.3593 0.10473 0.0
C960 C 0.01251 0.32687 0.08415 0.0
C961 C 0.07459 0.35756 0.10442 0.0
C962 C 0.93382 0.34738 0.07056 0.0
C963 C 0.9534 0.34623 0.0728 0.0
C964 C 0.9929 0.35868 0.11198 0.0
C965 C 0.04359 0.3387 0.10118 0.0
C966 C 0.02262 0.3407 0.0998 0.0
C967 C 0.96194 0.3472 0.09396 0.0
C968 C 0.98284 0.3449 0.09622 0.0
H969 H 0.07847 0.29689 0.09483 0.0
H970 H 0.04437 0.29984 0.09589 0.0
H971 H 0.0198 0.36739 0.12614 0.0
H972 H 0.92217 0.35296 0.12549 0.0
H973 H 0.95635 0.35054 0.1294 0.0
C974 C 0.93219 0.6384 0.60353 0.0
C975 C 0.92315 0.66104 0.60197 0.0
C976 C 0.95192 0.63683 0.60361 0.0
C977 C 0.99416 0.67203 0.58673 0.0
H978 H 0.02134 0.62416 0.62143 0.0
C979 C 0.07319 0.65507 0.57242 0.0
C980 C 0.0848 0.65119 0.59111 0.0
C981 C 0.05359 0.65539 0.57452 0.0
C982 C 0.01399 0.63778 0.61177 0.0
H983 H 0.92796 0.69983 0.60022 0.0
H984 H 0.96209 0.69709 0.60082 0.0
H985 H 0.98708 0.62686 0.62456 0.0
H986 H 0.08468 0.6442 0.62673 0.0
H987 H 0.05039 0.64513 0.63045 0.0
H988 H 0.02095 0.68337 0.57431 0.0
C989 C 0.95401 0.68047 0.6014 0.0
C990 C 0.99429 0.63914 0.61336 0.0
C991 C 0.93435 0.68204 0.6012 0.0
C992 C 0.07621 0.64723 0.61196 0.0
C993 C 0.05651 0.64764 0.61407 0.0
C994 C 0.01378 0.67071 0.58518 0.0
C995 C 0.9631 0.65784 0.60222 0.0
C996 C 0.9841 0.6563 0.60084 0.0
C997 C 0.04494 0.65198 0.5954 0.0
C998 C 0.02399 0.65349 0.59756 0.0
H999 H 0.92405 0.62183 0.60411 0.0
H1000 H 0.95839 0.61907 0.60407 0.0
H1001 H 0.98685 0.68526 0.57657 0.0
H1002 H 0.07921 0.65797 0.55603 0.0
H1003 H 0.04518 0.65826 0.55967 0.0
C1004 C 0.93374 0.64175 0.89795 0.0
C1005 C 0.92509 0.65438 0.91558 0.0
C1006 C 0.95345 0.6408 0.89616 0.0
C1007 C 0.99732 0.65264 0.9295 0.0
H1008 H 0.02167 0.65219 0.87159 0.0
C1009 C 0.07428 0.68133 0.91485 0.0
C1010 C 0.08628 0.66333 0.90615 0.0
C1011 C 0.05477 0.67813 0.91503 0.0
C1012 C 0.015 0.65208 0.88784 0.0
H1013 H 0.93061 0.67609 0.94503 0.0
H1014 H 0.96449 0.67562 0.94128 0.0
H1015 H 0.98725 0.65113 0.87387 0.0
H1016 H 0.08686 0.62822 0.8899 0.0
H1017 H 0.05245 0.6231 0.88958 0.0
H1018 H 0.02515 0.65495 0.94329 0.0
C1019 C 0.95626 0.66563 0.92919 0.0
C1020 C 0.99527 0.65137 0.88922 0.0
C1021 C 0.93665 0.6662 0.9312 0.0
C1022 C 0.0781 0.64238 0.89687 0.0
C1023 C 0.05844 0.63944 0.89661 0.0
C1024 C 0.01695 0.65385 0.92807 0.0
C1025 C 0.96503 0.65273 0.91179 0.0
C1026 C 0.9861 0.65198 0.9101 0.0
C1027 C 0.04666 0.65715 0.90604 0.0
C1028 C 0.02596 0.65381 0.90726 0.0
H1029 H 0.92531 0.63225 0.8857 0.0
H1030 H 0.95956 0.63038 0.8827 0.0
H1031 H 0.99099 0.65237 0.94591 0.0
H1032 H 0.07991 0.69783 0.9219 0.0
H1033 H 0.04596 0.69213 0.92223 0.0
C1034 C 0.07719 0.3534 0.39089 0.0
C1035 C 0.08546 0.3521 0.41221 0.0
C1036 C 0.05753 0.35338 0.38845 0.0
C1037 C 0.01337 0.36651 0.41861 0.0
H1038 H 0.99012 0.32257 0.37633 0.0
C1039 C 0.93273 0.36494 0.40262 0.0
C1040 C 0.92431 0.34187 0.40311 0.0
C1041 C 0.95238 0.36736 0.40208 0.0
C1042 C 0.99641 0.33496 0.38818 0.0
H1043 H 0.07937 0.35017 0.44767 0.0
H1044 H 0.04527 0.35048 0.44335 0.0
H1045 H 0.02451 0.32496 0.3787 0.0
H1046 H 0.9301 0.30326 0.40278 0.0
H1047 H 0.96426 0.30755 0.40154 0.0
H1048 H 0.98532 0.37634 0.42828 0.0
C1049 C 0.05397 0.35148 0.42854 0.0
C1050 C 0.0161 0.33646 0.38941 0.0
C1051 C 0.07356 0.35116 0.43098 0.0
C1052 C 0.93604 0.32132 0.40245 0.0
C1053 C 0.95565 0.32375 0.40162 0.0
C1054 C 0.99371 0.36524 0.41717 0.0
C1055 C 0.0457 0.35245 0.40726 0.0
C1056 C 0.02481 0.35202 0.40485 0.0
C1057 C 0.96408 0.34679 0.40169 0.0
C1058 C 0.98499 0.34923 0.40215 0.0
H1059 H 0.0859 0.35409 0.37607 0.0
H1060 H 0.05157 0.35428 0.37183 0.0
H1061 H 0.01966 0.3788 0.43056 0.0
H1062 H 0.92416 0.38117 0.40315 0.0
H1063 H 0.95844 0.38536 0.40198 0.0
C1064 C 0.4359 0.84084 0.07544 0.0
C1065 C 0.4243 0.85212 0.09137 0.0
C1066 C 0.45548 0.84144 0.07743 0.0
C1067 C 0.49458 0.85419 0.11754 0.0
H1068 H 0.5241 0.85308 0.06311 0.0
C1069 C 0.57722 0.86289 0.11088 0.0
C1070 C 0.58556 0.84329 0.09953 0.0
C1071 C 0.55755 0.86561 0.11133 0.0
C1072 C 0.51602 0.85344 0.07844 0.0
H1073 H 0.42446 0.87327 0.12184 0.0
H1074 H 0.45877 0.87515 0.12488 0.0
H1075 H 0.48995 0.85588 0.0609 0.0
H1076 H 0.5795 0.81092 0.08023 0.0
H1077 H 0.5455 0.8163 0.08033 0.0
H1078 H 0.52109 0.85242 0.13491 0.0
C1079 C 0.45265 0.86518 0.11112 0.0
C1080 C 0.49639 0.85481 0.07724 0.0
C1081 C 0.43293 0.86423 0.10932 0.0
C1082 C 0.57372 0.82639 0.08892 0.0
C1083 C 0.55419 0.82942 0.08896 0.0
C1084 C 0.51433 0.85331 0.11872 0.0
C1085 C 0.46423 0.85382 0.09514 0.0
C1086 C 0.4853 0.85458 0.09673 0.0
C1087 C 0.54591 0.84909 0.10005 0.0
C1088 C 0.52517 0.8524 0.09916 0.0
H1089 H 0.4299 0.83134 0.06135 0.0
H1090 H 0.46374 0.83187 0.06506 0.0
H1091 H 0.48664 0.85377 0.13294 0.0
H1092 H 0.58587 0.87616 0.11937 0.0
H1093 H 0.55147 0.88094 0.12 0.0
C1094 C 0.57384 0.16516 0.57423 0.0
C1095 C 0.58534 0.15338 0.58995 0.0
C1096 C 0.55424 0.16483 0.57624 0.0
C1097 C 0.51509 0.15155 0.61625 0.0
H1098 H 0.48537 0.15462 0.56202 0.0
C1099 C 0.43246 0.14308 0.60991 0.0
C1100 C 0.42398 0.16287 0.59895 0.0
C1101 C 0.45214 0.14047 0.6102 0.0
C1102 C 0.49351 0.15374 0.5773 0.0
H1103 H 0.58501 0.13156 0.62004 0.0
H1104 H 0.55072 0.13011 0.62307 0.0
H1105 H 0.5195 0.15167 0.55957 0.0
H1106 H 0.42983 0.19571 0.58023 0.0
H1107 H 0.46387 0.19055 0.58005 0.0
H1108 H 0.48866 0.1529 0.63378 0.0
C1109 C 0.5569 0.1403 0.60949 0.0
C1110 C 0.51313 0.15227 0.57596 0.0
C1111 C 0.57662 0.141 0.60769 0.0
C1112 C 0.43571 0.18009 0.58861 0.0
C1113 C 0.45526 0.17719 0.58849 0.0
C1114 C 0.49535 0.15252 0.61755 0.0
C1115 C 0.54539 0.15221 0.59375 0.0
C1116 C 0.52431 0.15174 0.5954 0.0
C1117 C 0.46368 0.15731 0.59916 0.0
C1118 C 0.48443 0.15411 0.59807 0.0
H1119 H 0.57992 0.17486 0.56031 0.0
H1120 H 0.54607 0.17479 0.56406 0.0
H1121 H 0.52308 0.1514 0.63163 0.0
H1122 H 0.4239 0.12955 0.61819 0.0
H1123 H 0.45832 0.12499 0.61855 0.0
C1124 C 0.57418 0.17937 0.91472 0.0
C1125 C 0.58562 0.16163 0.90474 0.0
C1126 C 0.55457 0.17765 0.91393 0.0
C1127 C 0.51523 0.1343 0.90265 0.0
H1128 H 0.48586 0.19354 0.90331 0.0
C1129 C 0.43268 0.14059 0.89537 0.0
C1130 C 0.42434 0.15328 0.9132 0.0
C1131 C 0.45233 0.14049 0.8926 0.0
C1132 C 0.4939 0.17686 0.90308 0.0
H1133 H 0.58518 0.12831 0.8856 0.0
H1134 H 0.55088 0.12579 0.88344 0.0
H1135 H 0.52003 0.19575 0.90066 0.0
H1136 H 0.43038 0.17541 0.94229 0.0
H1137 H 0.46433 0.17597 0.93686 0.0
H1138 H 0.48871 0.11559 0.9045 0.0
C1139 C 0.55711 0.14072 0.89251 0.0
C1140 C 0.51354 0.17806 0.90177 0.0
C1141 C 0.57683 0.14224 0.89362 0.0
C1142 C 0.43615 0.1657 0.9282 0.0
C1143 C 0.45566 0.16603 0.92514 0.0
C1144 C 0.49549 0.13312 0.90352 0.0
C1145 C 0.54566 0.1584 0.90272 0.0
C1146 C 0.52458 0.15684 0.90209 0.0
C1147 C 0.46395 0.15349 0.90731 0.0
C1148 C 0.48469 0.15442 0.90421 0.0
H1149 H 0.58034 0.19456 0.92348 0.0
H1150 H 0.54642 0.19135 0.92252 0.0
H1151 H 0.52312 0.11754 0.90317 0.0
H1152 H 0.42406 0.13068 0.88359 0.0
H1153 H 0.45841 0.13067 0.87872 0.0
C1154 C 0.43408 0.82352 0.42073 0.0
C1155 C 0.42278 0.84095 0.41 0.0
C1156 C 0.45366 0.82599 0.42139 0.0
C1157 C 0.49436 0.85092 0.39313 0.0
H1158 H 0.51819 0.84866 0.45128 0.0
C1159 C 0.57532 0.86267 0.40375 0.0
C1160 C 0.58421 0.84944 0.42084 0.0
C1161 C 0.55561 0.86327 0.40209 0.0
C1162 C 0.51191 0.84893 0.43484 0.0
H1163 H 0.4235 0.87424 0.39074 0.0
H1164 H 0.45793 0.87808 0.39138 0.0
H1165 H 0.48407 0.84594 0.44842 0.0
H1166 H 0.57912 0.82639 0.44953 0.0
H1167 H 0.54518 0.8264 0.44603 0.0
H1168 H 0.52214 0.85278 0.37935 0.0
C1169 C 0.45141 0.86274 0.39957 0.0
C1170 C 0.49228 0.84756 0.43326 0.0
C1171 C 0.43171 0.86055 0.39928 0.0
C1172 C 0.57287 0.8368 0.43615 0.0
C1173 C 0.55325 0.83705 0.43427 0.0
C1174 C 0.51408 0.85181 0.39464 0.0
C1175 C 0.46253 0.84566 0.41094 0.0
C1176 C 0.48332 0.84837 0.41241 0.0
C1177 C 0.54425 0.85039 0.4173 0.0
C1178 C 0.52318 0.8506 0.41554 0.0
H1179 H 0.42783 0.80806 0.42897 0.0
H1180 H 0.46192 0.81243 0.43006 0.0
H1181 H 0.48778 0.85144 0.37683 0.0
H1182 H 0.58357 0.8728 0.39175 0.0
H1183 H 0.54931 0.8741 0.389 0.0
C1184 C 0.14233 0.28824 0.16173 0.0
C1185 C 0.15075 0.30904 0.15253 0.0
C1186 C 0.14291 0.2841 0.18484 0.0
C1187 C 0.16787 0.30114 0.23669 0.0
H1188 H 0.11945 0.29391 0.26584 0.0
C1189 C 0.15661 0.32917 0.32779 0.0
C1190 C 0.14326 0.31719 0.34117 0.0
C1191 C 0.15881 0.32317 0.30533 0.0
C1192 C 0.13316 0.29538 0.25806 0.0
H1193 H 0.16726 0.34096 0.16027 0.0
H1194 H 0.1687 0.33344 0.20018 0.0
H1195 H 0.12145 0.29165 0.22523 0.0
H1196 H 0.12223 0.28872 0.34141 0.0
H1197 H 0.12634 0.27786 0.30213 0.0
H1198 H 0.17964 0.30514 0.26931 0.0
C1199 C 0.1615 0.32045 0.18967 0.0
C1200 C 0.13429 0.29412 0.23474 0.0
C1201 C 0.1606 0.32482 0.16675 0.0
C1202 C 0.13262 0.29837 0.33161 0.0
C1203 C 0.13488 0.29228 0.30902 0.0
C1204 C 0.1668 0.30214 0.25997 0.0
C1205 C 0.1523 0.30038 0.19908 0.0
C1206 C 0.15157 0.2977 0.22378 0.0
C1207 C 0.14784 0.30484 0.29548 0.0
C1208 C 0.14934 0.30008 0.27098 0.0
H1209 H 0.13453 0.27581 0.15126 0.0
H1210 H 0.13576 0.26842 0.19163 0.0
H1211 H 0.18143 0.30363 0.22873 0.0
H1212 H 0.16509 0.34376 0.3345 0.0
H1213 H 0.1687 0.3336 0.29549 0.0
C1214 C 0.86752 0.71253 0.66456 0.0
C1215 C 0.85778 0.6924 0.656 0.0
C1216 C 0.86719 0.71753 0.68754 0.0
C1217 C 0.84153 0.70368 0.74003 0.0
H1218 H 0.89041 0.7084 0.76857 0.0
C1219 C 0.85341 0.67418 0.8306 0.0
C1220 C 0.86675 0.68616 0.84398 0.0
C1221 C 0.85109 0.68041 0.8082 0.0
C1222 C 0.8766 0.70762 0.76093 0.0
H1223 H 0.83911 0.66283 0.66457 0.0
H1224 H 0.83828 0.67165 0.7042 0.0
H1225 H 0.88814 0.71037 0.72795 0.0
H1226 H 0.88769 0.71474 0.84434 0.0
H1227 H 0.88351 0.72579 0.80507 0.0
H1228 H 0.82998 0.70031 0.77284 0.0
C1229 C 0.84629 0.68351 0.69338 0.0
C1230 C 0.87531 0.70876 0.73761 0.0
C1231 C 0.84687 0.67831 0.67062 0.0
C1232 C 0.87731 0.70512 0.83451 0.0
C1233 C 0.875 0.71134 0.81197 0.0
C1234 C 0.84279 0.70267 0.76329 0.0
C1235 C 0.85679 0.7028 0.70224 0.0
C1236 C 0.85782 0.70602 0.72688 0.0
C1237 C 0.86199 0.69886 0.79845 0.0
C1238 C 0.8604 0.70381 0.77403 0.0
H1239 H 0.87613 0.72365 0.65373 0.0
H1240 H 0.87535 0.73261 0.69387 0.0
H1241 H 0.82781 0.70191 0.73228 0.0
H1242 H 0.845 0.6595 0.83727 0.0
H1243 H 0.84115 0.6701 0.79831 0.0
C1244 C 0.16151 0.68573 0.83619 0.0
C1245 C 0.14946 0.69834 0.85069 0.0
C1246 C 0.16156 0.69067 0.81336 0.0
C1247 C 0.13026 0.71085 0.76903 0.0
H1248 H 0.17586 0.70909 0.73349 0.0
C1249 C 0.12785 0.70608 0.67221 0.0
C1250 C 0.14014 0.68898 0.66267 0.0
C1251 C 0.12976 0.71282 0.69469 0.0
C1252 C 0.16296 0.70953 0.74312 0.0
H1253 H 0.12843 0.72668 0.85272 0.0
H1254 H 0.12828 0.73517 0.81246 0.0
H1255 H 0.17807 0.71124 0.77403 0.0
H1256 H 0.16453 0.6663 0.66918 0.0
H1257 H 0.16768 0.67772 0.708 0.0
H1258 H 0.11513 0.70798 0.73821 0.0
C1259 C 0.13776 0.72149 0.81892 0.0
C1260 C 0.16425 0.71087 0.76637 0.0
C1261 C 0.13796 0.71679 0.84196 0.0
C1262 C 0.15476 0.6795 0.6759 0.0
C1263 C 0.15667 0.68623 0.69823 0.0
C1264 C 0.12896 0.70935 0.74573 0.0
C1265 C 0.14936 0.70817 0.80432 0.0
C1266 C 0.14793 0.71087 0.77964 0.0
C1267 C 0.14405 0.7027 0.70808 0.0
C1268 C 0.14531 0.70795 0.7325 0.0
H1269 H 0.1706 0.67154 0.84241 0.0
H1270 H 0.17054 0.67993 0.80262 0.0
H1271 H 0.11741 0.71061 0.77878 0.0
H1272 H 0.11643 0.71375 0.66252 0.0
H1273 H 0.1199 0.72575 0.70163 0.0
C1274 C 0.84985 0.32059 0.1729 0.0
C1275 C 0.86626 0.31352 0.1615 0.0
C1276 C 0.84764 0.31552 0.19557 0.0
C1277 C 0.86647 0.28024 0.24368 0.0
H1278 H 0.8479 0.33529 0.27721 0.0
C1279 C 0.87377 0.29146 0.34022 0.0
C1280 C 0.85958 0.30453 0.35121 0.0
C1281 C 0.873 0.28822 0.31701 0.0
C1282 C 0.85277 0.31951 0.26817 0.0
H1283 H 0.89279 0.29437 0.16483 0.0
H1284 H 0.88903 0.28577 0.20461 0.0
H1285 H 0.84951 0.33756 0.23693 0.0
H1286 H 0.83284 0.32277 0.34717 0.0
H1287 H 0.83108 0.31646 0.30699 0.0
H1288 H 0.87005 0.26243 0.27528 0.0
C1289 C 0.87778 0.29507 0.1959 0.0
C1290 C 0.85372 0.32083 0.24496 0.0
C1291 C 0.87996 0.30004 0.17309 0.0
C1292 C 0.84399 0.31274 0.339 0.0
C1293 C 0.8431 0.3093 0.31596 0.0
C1294 C 0.8655 0.2789 0.26705 0.0
C1295 C 0.86183 0.3034 0.20757 0.0
C1296 C 0.86053 0.30124 0.23235 0.0
C1297 C 0.85799 0.29796 0.30449 0.0
C1298 C 0.85858 0.29853 0.27959 0.0
H1299 H 0.83889 0.33075 0.16446 0.0
H1300 H 0.83495 0.32169 0.20386 0.0
H1301 H 0.87172 0.26477 0.23448 0.0
H1302 H 0.88608 0.28531 0.34928 0.0
H1303 H 0.88474 0.27948 0.30876 0.0
C1304 C 0.65169 0.81887 0.33256 0.0
C1305 C 0.63309 0.82166 0.34022 0.0
C1306 C 0.65523 0.81144 0.31061 0.0
C1307 C 0.634 0.78369 0.26016 0.0
H1308 H 0.66663 0.82796 0.22821 0.0
C1309 C 0.63193 0.7947 0.16415 0.0
C1310 C 0.64792 0.80355 0.15314 0.0
C1311 C 0.63213 0.79135 0.18733 0.0
C1312 C 0.65784 0.81494 0.2368 0.0
H1313 H 0.60368 0.81728 0.33132 0.0
H1314 H 0.60987 0.80396 0.29321 0.0
H1315 H 0.66346 0.83157 0.26834 0.0
H1316 H 0.67692 0.81465 0.15716 0.0
H1317 H 0.67779 0.80738 0.19731 0.0
H1318 H 0.62828 0.7671 0.22858 0.0
C1319 C 0.62171 0.80763 0.3041 0.0
C1320 C 0.65598 0.81712 0.25992 0.0
C1321 C 0.61817 0.81537 0.32592 0.0
C1322 C 0.66448 0.80751 0.16534 0.0
C1323 C 0.66483 0.80373 0.1884 0.0
C1324 C 0.63606 0.78127 0.237 0.0
C1325 C 0.64025 0.80629 0.29597 0.0
C1326 C 0.64378 0.80185 0.27183 0.0
C1327 C 0.64841 0.79664 0.19992 0.0
C1328 C 0.64774 0.79717 0.22489 0.0
H1329 H 0.66352 0.82365 0.3431 0.0
H1330 H 0.66968 0.81037 0.30488 0.0
H1331 H 0.6246 0.77152 0.26892 0.0
H1332 H 0.61886 0.79212 0.1551 0.0
H1333 H 0.61912 0.78616 0.19545 0.0
C1334 C 0.35251 0.1816 0.83078 0.0
C1335 C 0.36903 0.18817 0.84221 0.0
C1336 C 0.35029 0.18708 0.80819 0.0
C1337 C 0.36937 0.22287 0.76053 0.0
H1338 H 0.34915 0.16935 0.72625 0.0
C1339 C 0.375 0.21307 0.66359 0.0
C1340 C 0.36026 0.20087 0.65277 0.0
C1341 C 0.37465 0.21609 0.68685 0.0
C1342 C 0.3545 0.18471 0.73552 0.0
H1343 H 0.3958 0.20675 0.83904 0.0
H1344 H 0.39204 0.216 0.79936 0.0
H1345 H 0.35132 0.166 0.76643 0.0
H1346 H 0.33305 0.18394 0.65718 0.0
H1347 H 0.33204 0.18995 0.69744 0.0
H1348 H 0.37289 0.24129 0.72921 0.0
C1349 C 0.38071 0.20681 0.80799 0.0
C1350 C 0.35577 0.18277 0.75867 0.0
C1351 C 0.38289 0.20146 0.83074 0.0
C1352 C 0.34457 0.19341 0.6652 0.0
C1353 C 0.34412 0.19663 0.68829 0.0
C1354 C 0.36811 0.22481 0.73721 0.0
C1355 C 0.36459 0.19907 0.79629 0.0
C1356 C 0.36313 0.20181 0.77156 0.0
C1357 C 0.35954 0.20696 0.69957 0.0
C1358 C 0.36056 0.20576 0.72442 0.0
H1359 H 0.34143 0.17162 0.83915 0.0
H1360 H 0.33747 0.18138 0.79991 0.0
H1361 H 0.37505 0.23793 0.76993 0.0
H1362 H 0.38739 0.21857 0.65435 0.0
H1363 H 0.38679 0.22406 0.69497 0.0
C1364 C 0.6383 0.21332 0.84098 0.0
C1365 C 0.64975 0.1947 0.84947 0.0
C1366 C 0.63829 0.21855 0.81804 0.0
C1367 C 0.66507 0.20875 0.76549 0.0
H1368 H 0.61603 0.2067 0.73704 0.0
C1369 C 0.65553 0.17807 0.67485 0.0
C1370 C 0.64116 0.18808 0.66156 0.0
C1371 C 0.65742 0.1846 0.69724 0.0
C1372 C 0.62984 0.20784 0.74466 0.0
H1373 H 0.67102 0.16817 0.84096 0.0
H1374 H 0.67127 0.17743 0.80133 0.0
H1375 H 0.61817 0.20876 0.77765 0.0
H1376 H 0.6179 0.21354 0.66135 0.0
H1377 H 0.6213 0.22512 0.70058 0.0
H1378 H 0.67678 0.2072 0.73264 0.0
C1379 C 0.66219 0.18794 0.81216 0.0
C1380 C 0.63106 0.20902 0.76798 0.0
C1381 C 0.66196 0.18248 0.83489 0.0
C1382 C 0.62911 0.20546 0.67109 0.0
C1383 C 0.63098 0.21197 0.69363 0.0
C1384 C 0.66386 0.20769 0.74222 0.0
C1385 C 0.65001 0.20558 0.80332 0.0
C1386 C 0.64869 0.20872 0.77868 0.0
C1387 C 0.64503 0.20137 0.70707 0.0
C1388 C 0.64624 0.20641 0.73151 0.0
H1389 H 0.62863 0.2229 0.85182 0.0
H1390 H 0.62882 0.23234 0.81174 0.0
H1391 H 0.67887 0.20889 0.77321 0.0
H1392 H 0.66511 0.16466 0.66813 0.0
H1393 H 0.66822 0.17575 0.70706 0.0
C1394 C 0.38264 0.80398 0.17542 0.0
C1395 C 0.369 0.8175 0.16378 0.0
C1396 C 0.38037 0.79899 0.19823 0.0
C1397 C 0.35627 0.82477 0.24721 0.0
H1398 H 0.37104 0.7656 0.27738 0.0
C1399 C 0.34399 0.81584 0.34066 0.0
C1400 C 0.35901 0.80694 0.35345 0.0
C1401 C 0.34374 0.81271 0.31757 0.0
C1402 C 0.36695 0.78228 0.2692 0.0
H1403 H 0.34166 0.83484 0.16666 0.0
H1404 H 0.33762 0.82584 0.20604 0.0
H1405 H 0.37352 0.76834 0.23664 0.0
H1406 H 0.38513 0.78679 0.35245 0.0
H1407 H 0.38494 0.78156 0.31179 0.0
H1408 H 0.35011 0.83905 0.27943 0.0
C1409 C 0.3503 0.81961 0.19779 0.0
C1410 C 0.36838 0.78385 0.24586 0.0
C1411 C 0.35258 0.82466 0.17513 0.0
C1412 C 0.37325 0.79349 0.34292 0.0
C1413 C 0.37314 0.7906 0.31964 0.0
C1414 C 0.35489 0.82323 0.27037 0.0
C1415 C 0.36441 0.80738 0.20983 0.0
C1416 C 0.36293 0.80511 0.23458 0.0
C1417 C 0.35874 0.80104 0.3066 0.0
C1418 C 0.36007 0.80195 0.28174 0.0
H1419 H 0.39546 0.79821 0.16719 0.0
H1420 H 0.39154 0.78958 0.20699 0.0
H1421 H 0.35245 0.84167 0.23921 0.0
H1422 H 0.33282 0.82619 0.34845 0.0
H1423 H 0.33214 0.82038 0.30819 0.0
C1424 C 0.31866 0.20689 0.98501 0.0
C1425 C 0.31553 0.18611 0.97192 0.0
C1426 C 0.30383 0.21805 0.99647 0.0
C1427 C 0.25174 0.22351 0.99752 0.0
H1428 H 0.26009 0.24798 0.05732 0.0
C1429 C 0.19042 0.25946 0.05187 0.0
C1430 C 0.19369 0.2799 0.06536 0.0
C1431 C 0.20529 0.2479 0.04081 0.0
C1432 C 0.25754 0.24154 0.04054 0.0
H1433 H 0.29415 0.16091 0.96063 0.0
H1434 H 0.26826 0.18033 0.9807 0.0
H1435 H 0.28572 0.22803 0.03744 0.0
H1436 H 0.21533 0.30412 0.07772 0.0
H1437 H 0.24125 0.28413 0.05822 0.0
H1438 H 0.22361 0.23713 1.00052 0.0
C1439 C 0.28222 0.1881 0.98196 0.0
C1440 C 0.27227 0.23004 0.02911 0.0
C1441 C 0.29711 0.17687 0.97053 0.0
C1442 C 0.21228 0.28836 0.06759 0.0
C1443 C 0.22718 0.2768 0.05645 0.0
C1444 C 0.23702 0.23506 0.00892 0.0
C1445 C 0.28539 0.20882 0.99515 0.0
C1446 C 0.26959 0.22086 0.00743 0.0
C1447 C 0.22389 0.25645 0.04281 0.0
C1448 C 0.23968 0.24424 0.03061 0.0
H1449 H 0.33263 0.21462 0.98645 0.0
H1450 H 0.3068 0.23415 0.00616 0.0
H1451 H 0.2492 0.21704 0.98073 0.0
H1452 H 0.17632 0.25232 0.0498 0.0
H1453 H 0.20217 0.23207 0.03082 0.0
C1454 C 0.79637 0.7062 0.5622 0.0
C1455 C 0.8133 0.71808 0.56759 0.0
C1456 C 0.78205 0.7184 0.55058 0.0
C1457 C 0.76139 0.77746 0.54052 0.0
H1458 H 0.74363 0.75195 0.48399 0.0
C1459 C 0.69314 0.80892 0.49475 0.0
C1460 C 0.6956 0.81654 0.47254 0.0
C1461 C 0.70787 0.79777 0.50643 0.0
C1462 C 0.74848 0.75927 0.49973 0.0
H1463 H 0.82826 0.75223 0.56546 0.0
H1464 H 0.80292 0.77374 0.546 0.0
H1465 H 0.76821 0.73024 0.50484 0.0
H1466 H 0.71546 0.81822 0.44513 0.0
H1467 H 0.74106 0.79785 0.4654 0.0
H1468 H 0.74125 0.80608 0.53576 0.0
C1469 C 0.8009 0.7549 0.55046 0.0
C1470 C 0.76243 0.7468 0.5117 0.0
C1471 C 0.8154 0.74256 0.56155 0.0
C1472 C 0.71316 0.8127 0.46226 0.0
C1473 C 0.72776 0.80094 0.47379 0.0
C1474 C 0.7471 0.78959 0.52883 0.0
C1475 C 0.78417 0.74288 0.54463 0.0
C1476 C 0.76909 0.75583 0.53216 0.0
C1477 C 0.72526 0.79341 0.49601 0.0
C1478 C 0.74058 0.7807 0.50826 0.0
H1479 H 0.79437 0.68731 0.56648 0.0
H1480 H 0.76926 0.70874 0.54635 0.0
H1481 H 0.76624 0.78479 0.55626 0.0
H1482 H 0.67979 0.81164 0.50316 0.0
H1483 H 0.70554 0.79207 0.52351 0.0
C1484 C 0.31864 0.79896 0.01961 0.0
C1485 C 0.31528 0.81928 0.03323 0.0
C1486 C 0.30396 0.788 0.00774 0.0
C1487 C 0.25203 0.78159 0.00624 0.0
H1488 H 0.26079 0.75987 0.94561 0.0
C1489 C 0.19133 0.74559 0.95101 0.0
C1490 C 0.19502 0.72584 0.93682 0.0
C1491 C 0.20598 0.75734 0.96229 0.0
C1492 C 0.25812 0.76552 0.96262 0.0
H1493 H 0.29364 0.84382 0.04507 0.0
H1494 H 0.26798 0.82468 0.02432 0.0
H1495 H 0.28608 0.77964 0.96624 0.0
H1496 H 0.21716 0.70309 0.92339 0.0
H1497 H 0.24271 0.72336 0.94329 0.0
H1498 H 0.22416 0.76729 1.00275 0.0
C1499 C 0.28203 0.81716 0.02294 0.0
C1500 C 0.27266 0.77693 0.97446 0.0
C1501 C 0.29677 0.82823 0.03476 0.0
C1502 C 0.2138 0.71832 0.93405 0.0
C1503 C 0.22848 0.73004 0.94543 0.0
C1504 C 0.23751 0.7701 0.99443 0.0
C1505 C 0.28544 0.79694 0.00919 0.0
C1506 C 0.26983 0.78511 0.99645 0.0
C1507 C 0.22477 0.74965 0.95984 0.0
C1508 C 0.24033 0.76189 0.97243 0.0
H1509 H 0.33268 0.79147 0.01802 0.0
H1510 H 0.3071 0.77228 0.99761 0.0
H1511 H 0.2494 0.78729 0.02324 0.0
H1512 H 0.17707 0.75201 0.9535 0.0
H1513 H 0.20254 0.77261 0.97285 0.0
C1514 C 0.69158 0.20657 0.51921 0.0
C1515 C 0.69491 0.18657 0.53325 0.0
C1516 C 0.70639 0.21774 0.50771 0.0
C1517 C 0.75818 0.22579 0.50808 0.0
H1518 H 0.75074 0.24563 0.44665 0.0
C1519 C 0.81965 0.26266 0.45429 0.0
C1520 C 0.81587 0.28149 0.43911 0.0
C1521 C 0.805 0.25085 0.46554 0.0
C1522 C 0.75303 0.24054 0.46388 0.0
H1523 H 0.71663 0.16283 0.54626 0.0
H1524 H 0.74252 0.18238 0.52621 0.0
H1525 H 0.72528 0.22554 0.4667 0.0
H1526 H 0.79354 0.30269 0.424 0.0
H1527 H 0.768 0.28243 0.44386 0.0
H1528 H 0.78582 0.24102 0.50541 0.0
C1529 C 0.72839 0.18946 0.52418 0.0
C1530 C 0.7384 0.22893 0.47539 0.0
C1531 C 0.71352 0.17816 0.5356 0.0
C1532 C 0.797 0.28817 0.43545 0.0
C1533 C 0.78231 0.27642 0.4468 0.0
C1534 C 0.77278 0.23752 0.49661 0.0
C1535 C 0.72501 0.20935 0.51 0.0
C1536 C 0.74075 0.2214 0.49766 0.0
C1537 C 0.78609 0.25759 0.46206 0.0
C1538 C 0.77045 0.24509 0.47432 0.0
H1539 H 0.67747 0.21364 0.51698 0.0
H1540 H 0.70326 0.23319 0.49722 0.0
H1541 H 0.76043 0.22059 0.52529 0.0
H1542 H 0.834 0.25691 0.45748 0.0
H1543 H 0.80853 0.2362 0.4768 0.0
C1544 C 0.69154 0.76402 0.05245 0.0
C1545 C 0.69511 0.78334 0.06717 0.0
C1546 C 0.70632 0.75224 0.04143 0.0
C1547 C 0.75552 0.76076 0.02291 0.0
H1548 H 0.75526 0.69086 0.01673 0.0
C1549 C 0.81909 0.70895 0.98574 0.0
C1550 C 0.81566 0.68839 0.97247 0.0
C1551 C 0.80443 0.72034 0.99731 0.0
C1552 C 0.75546 0.71042 0.01798 0.0
H1553 H 0.71717 0.80534 0.08181 0.0
H1554 H 0.74301 0.78479 0.0625 0.0
H1555 H 0.72995 0.7109 0.03712 0.0
H1556 H 0.79391 0.66391 0.96087 0.0
H1557 H 0.76823 0.68406 0.98067 0.0
H1558 H 0.78084 0.76042 0.00353 0.0
C1559 C 0.7287 0.77883 0.05945 0.0
C1560 C 0.74094 0.72192 0.02978 0.0
C1561 C 0.7139 0.79051 0.07064 0.0
C1562 C 0.7971 0.67962 0.97099 0.0
C1563 C 0.78238 0.69113 0.9825 0.0
C1564 C 0.76998 0.74929 0.01099 0.0
C1565 C 0.72511 0.75954 0.04467 0.0
C1566 C 0.74077 0.74725 0.03242 0.0
C1567 C 0.78583 0.71165 0.99588 0.0
C1568 C 0.77021 0.72392 0.00837 0.0
H1569 H 0.67727 0.75797 0.04932 0.0
H1570 H 0.70298 0.73767 0.03001 0.0
H1571 H 0.7557 0.78031 0.02429 0.0
H1572 H 0.8332 0.71619 0.98743 0.0
H1573 H 0.8078 0.73578 0.0077 0.0
C1574 C 0.31744 0.24073 0.55161 0.0
C1575 C 0.31398 0.22155 0.56654 0.0
C1576 C 0.30259 0.25235 0.54056 0.0
C1577 C 0.25316 0.24377 0.52262 0.0
H1578 H 0.25386 0.31353 0.51524 0.0
C1579 C 0.18987 0.29595 0.48467 0.0
C1580 C 0.19357 0.31608 0.47095 0.0
C1581 C 0.20441 0.28448 0.49645 0.0
C1582 C 0.25352 0.294 0.51684 0.0
H1583 H 0.292 0.19965 0.58149 0.0
H1584 H 0.26605 0.21996 0.56216 0.0
H1585 H 0.27914 0.29362 0.53578 0.0
H1586 H 0.21567 0.33971 0.45874 0.0
H1587 H 0.24107 0.31948 0.47892 0.0
H1588 H 0.22769 0.24406 0.50347 0.0
C1589 C 0.28033 0.22591 0.55895 0.0
C1590 C 0.26804 0.28257 0.52872 0.0
C1591 C 0.29521 0.21436 0.57016 0.0
C1592 C 0.21226 0.32434 0.46922 0.0
C1593 C 0.22684 0.31279 0.48094 0.0
C1594 C 0.23869 0.25519 0.51065 0.0
C1595 C 0.28383 0.24507 0.54398 0.0
C1596 C 0.26809 0.25729 0.53175 0.0
C1597 C 0.22313 0.29272 0.4948 0.0
C1598 C 0.23864 0.28049 0.50754 0.0
H1599 H 0.33169 0.24678 0.54834 0.0
H1600 H 0.30588 0.2668 0.52897 0.0
H1601 H 0.25286 0.22425 0.52432 0.0
H1602 H 0.17566 0.28911 0.48653 0.0
H1603 H 0.20087 0.26937 0.50717 0.0
C1604 C 0.79486 0.31414 0.04155 0.0
C1605 C 0.81313 0.31592 0.03264 0.0
C1606 C 0.78058 0.30205 0.02977 0.0
C1607 C 0.7639 0.28719 0.97458 0.0
H1608 H 0.73961 0.23082 1.00039 0.0
C1609 C 0.69494 0.242 0.94145 0.0
C1610 C 0.6966 0.21724 0.93628 0.0
C1611 C 0.70952 0.25421 0.95247 0.0
C1612 C 0.74629 0.24653 0.99302 0.0
H1613 H 0.83063 0.3069 0.00417 0.0
H1614 H 0.80548 0.28671 0.98328 0.0
H1615 H 0.76396 0.25252 0.02163 0.0
H1616 H 0.71481 0.18585 0.93878 0.0
H1617 H 0.74007 0.2071 0.95881 0.0
H1618 H 0.74584 0.28165 0.94625 0.0
C1619 C 0.80234 0.29428 0.99953 0.0
C1620 C 0.76011 0.25899 0.00518 0.0
C1621 C 0.81671 0.30577 0.01153 0.0
C1622 C 0.71319 0.20496 0.94237 0.0
C1623 C 0.72757 0.21705 0.95393 0.0
C1624 C 0.74975 0.27512 0.96266 0.0
C1625 C 0.78418 0.29211 0.00861 0.0
C1626 C 0.76913 0.27935 0.99602 0.0
C1627 C 0.72586 0.24178 0.95909 0.0
C1628 C 0.74091 0.25457 0.9717 0.0
H1629 H 0.79169 0.32167 0.0578 0.0
H1630 H 0.76667 0.30066 0.03709 0.0
H1631 H 0.77064 0.30285 0.96717 0.0
H1632 H 0.68233 0.25195 0.937 0.0
H1633 H 0.70785 0.27326 0.95631 0.0
C1634 C 0.19016 0.69839 0.51415 0.0
C1635 C 0.19369 0.68763 0.53502 0.0
C1636 C 0.20465 0.70984 0.5023 0.0
C1637 C 0.24726 0.74413 0.50821 0.0
H1638 H 0.26157 0.72171 0.44924 0.0
C1639 C 0.29475 0.7978 0.44558 0.0
C1640 C 0.31141 0.78546 0.43989 0.0
C1641 C 0.28022 0.78584 0.45701 0.0
C1642 C 0.25765 0.72818 0.46566 0.0
H1643 H 0.21516 0.68076 0.55994 0.0
H1644 H 0.24038 0.70169 0.53951 0.0
H1645 H 0.23646 0.70075 0.46987 0.0
H1646 H 0.32566 0.75075 0.44122 0.0
H1647 H 0.2999 0.72966 0.46029 0.0
H1648 H 0.26805 0.77202 0.50371 0.0
C1649 C 0.22642 0.70081 0.53225 0.0
C1650 C 0.24332 0.71624 0.47741 0.0
C1651 C 0.21203 0.68877 0.54386 0.0
C1652 C 0.313 0.76076 0.44536 0.0
C1653 C 0.29828 0.74867 0.45624 0.0
C1654 C 0.26125 0.75647 0.4962 0.0
C1655 C 0.22288 0.71134 0.5113 0.0
C1656 C 0.23809 0.724 0.49886 0.0
C1657 C 0.28186 0.76116 0.46244 0.0
C1658 C 0.26665 0.74851 0.47487 0.0
H1659 H 0.17621 0.69776 0.50684 0.0
H1660 H 0.20156 0.71787 0.48621 0.0
H1661 H 0.24341 0.75052 0.52467 0.0
H1662 H 0.29316 0.81688 0.44176 0.0
H1663 H 0.26767 0.79585 0.46158 0.0
C1664 C 0.11915 0.5926 0.97371 0.0
C1665 C 0.13386 0.59706 0.95859 0.0
C1666 C 0.11839 0.57076 0.98558 0.0
C1667 C 0.13693 0.50761 0.9842 0.0
H1668 H 0.11766 0.50549 0.04464 0.0
C1669 C 0.14017 0.42221 0.04145 0.0
C1670 C 0.12409 0.41755 0.05448 0.0
C1671 C 0.14143 0.44349 0.02875 0.0
C1672 C 0.12292 0.50575 0.02768 0.0
H1673 H 0.15973 0.58246 0.94475 0.0
H1674 H 0.15871 0.54486 0.96585 0.0
H1675 H 0.12019 0.54425 0.02548 0.0
H1676 H 0.09637 0.43108 0.06343 0.0
H1677 H 0.0986 0.46789 0.04135 0.0
H1678 H 0.1399 0.46903 0.98667 0.0
C1679 C 0.14742 0.55783 0.96811 0.0
C1680 C 0.12434 0.52799 0.01666 0.0
C1681 C 0.14809 0.57953 0.95613 0.0
C1682 C 0.10904 0.43412 0.05375 0.0
C1683 C 0.11035 0.45535 0.04121 0.0
C1684 C 0.13566 0.48536 0.99532 0.0
C1685 C 0.13242 0.55295 0.98276 0.0
C1686 C 0.13127 0.52925 0.99471 0.0
C1687 C 0.1267 0.46056 0.02894 0.0
C1688 C 0.1285 0.48416 0.01712 0.0
H1689 H 0.1079 0.60565 0.9759 0.0
H1690 H 0.10649 0.56759 0.9965 0.0
H1691 H 0.14204 0.50774 0.96718 0.0
H1692 H 0.15204 0.40989 0.04169 0.0
H1693 H 0.15423 0.44703 0.01947 0.0
C1694 C 0.87979 0.59284 0.52481 0.0
C1695 C 0.87735 0.59218 0.54806 0.0
C1696 C 0.88062 0.57123 0.51253 0.0
C1697 C 0.89183 0.50663 0.51711 0.0
H1698 H 0.85672 0.49746 0.46836 0.0
C1699 C 0.88078 0.41254 0.47626 0.0
C1700 C 0.87639 0.41175 0.45344 0.0
C1701 C 0.88151 0.43477 0.48755 0.0
C1702 C 0.8669 0.49975 0.48162 0.0
H1703 H 0.87451 0.56843 0.57673 0.0
H1704 H 0.87642 0.53098 0.55541 0.0
H1705 H 0.85795 0.5363 0.48754 0.0
H1706 H 0.86993 0.43371 0.4244 0.0
H1707 H 0.87197 0.47217 0.44365 0.0
H1708 H 0.90117 0.47041 0.51105 0.0
C1709 C 0.87747 0.5481 0.54665 0.0
C1710 C 0.86753 0.52206 0.49264 0.0
C1711 C 0.87625 0.56957 0.55881 0.0
C1712 C 0.87306 0.43362 0.44208 0.0
C1713 C 0.87412 0.45578 0.45322 0.0
C1714 C 0.89146 0.48443 0.50585 0.0
C1715 C 0.87949 0.54867 0.52338 0.0
C1716 C 0.87986 0.52564 0.51063 0.0
C1717 C 0.87819 0.45674 0.47617 0.0
C1718 C 0.87887 0.48056 0.48804 0.0
H1719 H 0.88065 0.60999 0.5161 0.0
H1720 H 0.88223 0.57212 0.49458 0.0
H1721 H 0.90155 0.50898 0.53087 0.0
H1722 H 0.88335 0.39598 0.48546 0.0
H1723 H 0.88439 0.43463 0.50528 0.0
C1724 C 0.85577 0.41374 0.02706 0.0
C1725 C 0.86412 0.41071 0.04813 0.0
C1726 C 0.85519 0.43663 0.01694 0.0
C1727 C 0.86205 0.50279 0.0293 0.0
H1728 H 0.86623 0.50714 0.96503 0.0
C1729 C 0.85808 0.59499 0.98228 0.0
C1730 C 0.86872 0.59734 0.96266 0.0
C1731 C 0.85682 0.57253 0.99319 0.0
C1732 C 0.8653 0.50638 0.98304 0.0
H1733 H 0.87875 0.42937 0.07486 0.0
H1734 H 0.87852 0.46871 0.05696 0.0
H1735 H 0.86578 0.46772 0.98272 0.0
H1736 H 0.88716 0.57837 0.93974 0.0
H1737 H 0.88578 0.53991 0.95912 0.0
H1738 H 0.86263 0.54153 0.02966 0.0
C1739 C 0.87175 0.45376 0.04847 0.0
C1740 C 0.86468 0.4836 0.99322 0.0
C1741 C 0.87204 0.43103 0.05871 0.0
C1742 C 0.87862 0.57709 0.95466 0.0
C1743 C 0.87765 0.55488 0.96571 0.0
C1744 C 0.86297 0.52561 0.01914 0.0
C1745 C 0.86324 0.457 0.02747 0.0
C1746 C 0.86316 0.4814 0.01653 0.0
C1747 C 0.86644 0.55205 0.98488 0.0
C1748 C 0.86477 0.52777 0.99585 0.0
H1749 H 0.84941 0.3985 0.01853 0.0
H1750 H 0.84823 0.43834 1.00096 0.0
H1751 H 0.86048 0.502 0.04724 0.0
H1752 H 0.85019 0.61025 0.98875 0.0
H1753 H 0.8479 0.57114 0.00777 0.0
C1754 C 0.14431 0.40983 0.48163 0.0
C1755 C 0.14317 0.40921 0.4582 0.0
C1756 C 0.14475 0.43203 0.49301 0.0
C1757 C 0.15535 0.4972 0.48475 0.0
H1758 H 0.12485 0.50636 0.53768 0.0
C1759 C 0.14426 0.5918 0.52482 0.0
C1760 C 0.14369 0.59304 0.54825 0.0
C1761 C 0.14454 0.56933 0.51392 0.0
C1762 C 0.13366 0.50407 0.52309 0.0
H1763 H 0.14143 0.43173 0.4285 0.0
H1764 H 0.14225 0.47 0.44825 0.0
H1765 H 0.12513 0.46708 0.51913 0.0
H1766 H 0.14309 0.57134 0.5785 0.0
H1767 H 0.144 0.53255 0.55962 0.0
H1768 H 0.16396 0.53411 0.48871 0.0
C1769 C 0.14303 0.45341 0.45785 0.0
C1770 C 0.1338 0.4815 0.51245 0.0
C1771 C 0.14248 0.43134 0.44652 0.0
C1772 C 0.14352 0.57124 0.56044 0.0
C1773 C 0.14388 0.54886 0.54958 0.0
C1774 C 0.15527 0.51974 0.49543 0.0
C1775 C 0.14419 0.45409 0.48122 0.0
C1776 C 0.14458 0.47781 0.49309 0.0
C1777 C 0.14429 0.54755 0.52618 0.0
C1778 C 0.14438 0.52352 0.51472 0.0
H1779 H 0.14482 0.39319 0.49119 0.0
H1780 H 0.14576 0.43192 0.51104 0.0
H1781 H 0.16401 0.49489 0.47004 0.0
H1782 H 0.14429 0.60817 0.51486 0.0
H1783 H 0.14461 0.56905 0.49586 0.0
C1784 C 0.63329 0.06956 0.94531 0.0
C1785 C 0.63227 0.09228 0.95585 0.0
C1786 C 0.6324 0.04822 0.95774 0.0
C1787 C 0.64316 0.02296 0.01201 0.0
H1788 H 0.60947 0.97094 0.99476 0.0
C1789 C 0.63782 0.93527 0.06396 0.0
C1790 C 0.63444 0.91327 0.05288 0.0
C1791 C 0.63681 0.95727 0.05253 0.0
C1792 C 0.6192 0.98507 0.99964 0.0
H1793 H 0.62955 0.11042 0.98772 0.0
H1794 H 0.62852 0.07283 0.00966 0.0
H1795 H 0.60886 0.00915 0.97435 0.0
H1796 H 0.62756 0.89709 0.021 0.0
H1797 H 0.62658 0.93542 1.00073 0.0
H1798 H 0.65416 0.9988 0.03661 0.0
C1799 C 0.62981 0.07173 0.99168 0.0
C1800 C 0.61871 0.00705 0.98803 0.0
C1801 C 0.63031 0.09318 0.97916 0.0
C1802 C 0.63014 0.91376 0.03002 0.0
C1803 C 0.62944 0.93581 0.01846 0.0
C1804 C 0.64389 1.00085 0.02339 0.0
C1805 C 0.63081 0.04905 0.98105 0.0
C1806 C 0.63069 0.0262 0.99409 0.0
C1807 C 0.63272 0.95792 0.02957 0.0
C1808 C 0.63192 0.98154 0.01738 0.0
H1809 H 0.63469 0.06823 0.92735 0.0
H1810 H 0.63336 0.03101 0.94913 0.0
H1811 H 0.65274 0.03731 0.01681 0.0
H1812 H 0.64094 0.93556 0.08165 0.0
H1813 H 0.639 0.97381 0.06187 0.0
C1814 C 0.37825 0.91104 0.4812 0.0
C1815 C 0.3757 0.91128 0.45795 0.0
C1816 C 0.37896 0.93284 0.49318 0.0
C1817 C 0.38964 0.99749 0.48756 0.0
H1818 H 0.35576 0.00656 0.53753 0.0
C1819 C 0.37926 0.09149 0.52885 0.0
C1820 C 0.37563 0.09219 0.55186 0.0
C1821 C 0.37976 0.0693 0.5175 0.0
C1822 C 0.3656 0.00429 0.52389 0.0
H1823 H 0.37243 0.93453 0.42899 0.0
H1824 H 0.37408 0.97234 0.44981 0.0
H1825 H 0.35666 0.96768 0.51839 0.0
H1826 H 0.37027 0.07013 0.58114 0.0
H1827 H 0.37189 0.03172 0.56173 0.0
H1828 H 0.39897 0.03379 0.49323 0.0
C1829 C 0.37535 0.95539 0.45879 0.0
C1830 C 0.36603 0.98197 0.5129 0.0
C1831 C 0.37428 0.9337 0.44691 0.0
C1832 C 0.37283 0.07027 0.56332 0.0
C1833 C 0.37364 0.04816 0.55211 0.0
C1834 C 0.38945 0.01971 0.49879 0.0
C1835 C 0.37756 0.95521 0.48204 0.0
C1836 C 0.37795 0.9784 0.49452 0.0
C1837 C 0.37694 0.04728 0.52898 0.0
C1838 C 0.37733 0.02351 0.51705 0.0
H1839 H 0.37936 0.89405 0.49014 0.0
H1840 H 0.38073 0.93224 0.51112 0.0
H1841 H 0.39906 0.99514 0.47351 0.0
H1842 H 0.3814 0.10809 0.51956 0.0
H1843 H 0.38205 0.06949 0.49965 0.0
C1844 C 0.36588 0.91153 0.02389 0.0
C1845 C 0.3664 0.91038 0.04733 0.0
C1846 C 0.36569 0.93399 0.0129 0.0
C1847 C 0.37703 0.99908 0.02184 0.0
H1848 H 0.34549 0.00911 0.96988 0.0
C1849 C 0.36626 0.09401 0.98187 0.0
C1850 C 0.36646 0.095 0.95842 0.0
C1851 C 0.36592 0.07163 0.99297 0.0
C1852 C 0.35451 0.00657 0.98427 0.0
H1853 H 0.36702 0.93226 0.07748 0.0
H1854 H 0.36638 0.97092 0.05846 0.0
H1855 H 0.34586 0.96963 0.98814 0.0
H1856 H 0.36655 0.07292 0.92837 0.0
H1857 H 0.36605 0.03438 0.94763 0.0
H1858 H 0.38567 0.03602 0.01796 0.0
C1859 C 0.36643 0.95457 0.04849 0.0
C1860 C 0.35475 0.98388 0.99471 0.0
C1861 C 0.36665 0.93225 0.05942 0.0
C1862 C 0.36628 0.07305 0.94643 0.0
C1863 C 0.36588 0.05081 0.95749 0.0
C1864 C 0.37676 0.02177 0.01142 0.0
C1865 C 0.36604 0.9558 0.02509 0.0
C1866 C 0.36601 0.97983 0.01364 0.0
C1867 C 0.3657 0.04974 0.98089 0.0
C1868 C 0.36553 0.02581 0.99246 0.0
H1869 H 0.36576 0.89511 0.01402 0.0
H1870 H 0.36557 0.93424 0.99484 0.0
H1871 H 0.38611 0.99654 0.03617 0.0
H1872 H 0.36641 0.11049 0.99165 0.0
H1873 H 0.36564 0.07147 0.01103 0.0
C1874 C 0.64241 0.07322 0.55703 0.0
C1875 C 0.64319 0.09526 0.54521 0.0
C1876 C 0.64266 0.05107 0.54585 0.0
C1877 C 0.65553 0.02193 0.49247 0.0
H1878 H 0.62351 0.97033 0.51462 0.0
C1879 C 0.64583 0.93086 0.44575 0.0
C1880 C 0.64482 0.90948 0.45854 0.0
C1881 C 0.64604 0.9536 0.45601 0.0
C1882 C 0.63272 0.98442 0.50837 0.0
H1883 H 0.64489 0.111 0.51212 0.0
H1884 H 0.64519 0.07208 0.4925 0.0
H1885 H 0.6226 0.00996 0.53236 0.0
H1886 H 0.64345 0.89551 0.49234 0.0
H1887 H 0.64395 0.93522 0.51022 0.0
H1888 H 0.6656 0.99629 0.46843 0.0
C1889 C 0.64457 0.07212 0.51054 0.0
C1890 C 0.63218 0.00721 0.51853 0.0
C1891 C 0.64432 0.09444 0.52179 0.0
C1892 C 0.64424 0.91152 0.48192 0.0
C1893 C 0.64439 0.93432 0.49219 0.0
C1894 C 0.65605 0.9991 0.48227 0.0
C1895 C 0.64364 0.05015 0.52247 0.0
C1896 C 0.64368 0.02624 0.51085 0.0
C1897 C 0.64518 0.95567 0.47935 0.0
C1898 C 0.64472 0.98 0.49018 0.0
H1899 H 0.64157 0.07294 0.57506 0.0
H1900 H 0.64229 0.03459 0.55565 0.0
H1901 H 0.66474 0.03604 0.48628 0.0
H1902 H 0.64622 0.93014 0.42771 0.0
H1903 H 0.64642 0.96961 0.44557 0.0
loop_
_geom_bond_atom_site_label_1
_geom_bond_atom_site_label_2
_geom_bond_distance
_geom_bond_site_symmetry_2
_ccdc_geom_bond_type
Co0 O2 2.143 . S
Co0 O8 2.074 . S
Co0 O11 2.093 . S
Co0 O24 2.097 . S
Co0 N41 2.151 . S
Co0 N49 2.214 . S
Co1 O2 2.160 . S
Co1 O7 2.058 . S
Co1 O17 2.057 . S
Co1 O32 2.037 . S
Co1 N36 2.145 . S
Co1 N57 2.257 . S
O2 Co0 2.143 . S
O2 Co1 2.160 . S
C3 O4 1.278 . S
C3 O11 1.224 . S
O4 C3 1.278 . S
C5 O6 1.245 . S
C5 O17 1.232 . S
O6 C5 1.245 . S
O7 Co1 2.058 . S
O7 C33 1.269 . S
O8 Co0 2.074 . S
O8 C33 1.257 . S
H9 C34 0.930 . S
H10 C40 0.930 . S
O11 Co0 2.093 . S
O11 C3 1.224 . S
H12 C44 0.929 . S
H13 C46 0.930 . S
H14 C47 0.930 . S
H15 C45 0.929 . S
H16 C48 0.928 . S
O17 Co1 2.057 . S
O17 C5 1.232 . S
H18 C37 0.929 . S
H19 C38 0.929 . S
H20 C50 0.931 . S
H21 C42 0.929 . S
H22 C51 0.930 . S
H23 C43 0.931 . S
O24 Co0 2.097 . S
O24 C52 1.214 . S
H25 C53 0.911 1_556 S
H26 C54 0.929 . S
H27 C55 0.930 . S
H28 C56 0.929 . S
H29 C58 0.930 . S
H30 C35 0.930 . S
H31 C39 0.930 . S
O32 Co1 2.037 . S
O32 C52 1.234 . S
C33 O7 1.269 . S
C33 O8 1.257 . S
C34 H9 0.930 . S
C34 C37 1.388 . S
C34 C39 1.418 . S
C35 H30 0.930 . S
C35 C38 1.404 . S
C35 C39 1.353 . S
N36 Co1 2.145 . S
N36 C37 1.397 . S
N36 C38 1.334 . S
C37 H18 0.929 . S
C37 C34 1.388 . S
C37 N36 1.397 . S
C38 H19 0.929 . S
C38 C35 1.404 . S
C38 N36 1.334 . S
C39 H31 0.930 . S
C39 C34 1.418 . S
C39 C35 1.353 . S
C40 H10 0.930 . S
C40 N41 1.330 . S
C40 C42 1.446 . S
N41 Co0 2.151 . S
N41 C40 1.330 . S
N41 C45 1.418 . S
C42 H21 0.929 . S
C42 C40 1.446 . S
C42 C43 1.332 . S
C43 H23 0.931 . S
C43 C42 1.332 . S
C43 C44 1.267 . S
C44 H12 0.929 . S
C44 C43 1.267 . S
C44 C45 1.251 . S
C45 H15 0.929 . S
C45 N41 1.418 . S
C45 C44 1.251 . S
C46 H13 0.930 . S
C46 C48 1.406 . S
C46 C51 1.261 . S
C47 H14 0.930 . S
C47 N49 1.325 . S
C47 C50 1.357 . S
C48 H16 0.928 . S
C48 C46 1.406 . S
C48 N49 1.261 . S
N49 Co0 2.214 . S
N49 C47 1.325 . S
N49 C48 1.261 . S
C50 H20 0.931 . S
C50 C47 1.357 . S
C50 C51 1.312 . S
C51 H22 0.930 . S
C51 C46 1.261 . S
C51 C50 1.312 . S
C52 O24 1.214 . S
C52 O32 1.234 . S
C53 H25 0.911 1_554 S
C53 C56 1.385 1_554 S
C53 C58 1.415 . S
C54 H26 0.929 . S
C54 C55 1.390 . S
C54 N57 1.391 . S
C55 H27 0.930 . S
C55 C54 1.390 . S
C55 C56 1.392 1_554 S
C56 H28 0.929 . S
C56 C53 1.385 1_556 S
C56 C55 1.392 1_556 S
N57 Co1 2.257 . S
N57 C54 1.391 . S
N57 C58 1.388 . S
C58 H29 0.930 . S
C58 C53 1.415 . S
C58 N57 1.388 . S
Co59 O61 2.143 . S
Co59 O67 2.074 . S
Co59 O70 2.093 . S
Co59 O83 2.097 . S
Co59 N100 2.151 . S
Co59 N108 2.214 . S
Co60 O61 2.160 . S
Co60 O66 2.058 . S
Co60 O76 2.057 . S
Co60 O91 2.037 . S
Co60 N95 2.145 . S
Co60 N116 2.257 . S
O61 Co59 2.143 . S
O61 Co60 2.160 . S
C62 O63 1.278 . S
C62 O70 1.224 . S
O63 C62 1.278 . S
C64 O65 1.245 . S
C64 O76 1.232 . S
O65 C64 1.245 . S
O66 Co60 2.058 . S
O66 C92 1.269 . S
O67 Co59 2.074 . S
O67 C92 1.257 . S
H68 C93 0.930 . S
H69 C99 0.930 . S
O70 Co59 2.093 . S
O70 C62 1.224 . S
H71 C103 0.929 . S
H72 C105 0.930 . S
H73 C106 0.930 . S
H74 C104 0.929 . S
H75 C107 0.928 . S
O76 Co60 2.057 . S
O76 C64 1.232 . S
H77 C96 0.929 . S
H78 C97 0.929 . S
H79 C109 0.931 . S
H80 C101 0.929 . S
H81 C110 0.930 . S
H82 C102 0.931 . S
O83 Co59 2.097 . S
O83 C111 1.214 . S
H84 C112 0.929 . S
H85 C113 0.929 . S
H86 C114 0.930 . S
H87 C115 0.929 . S
H88 C117 0.930 . S
H89 C94 0.930 . S
H90 C98 0.930 . S
O91 Co60 2.037 . S
O91 C111 1.234 . S
C92 O66 1.269 . S
C92 O67 1.257 . S
C93 H68 0.930 . S
C93 C96 1.388 . S
C93 C98 1.418 . S
C94 H89 0.930 . S
C94 C97 1.404 . S
C94 C98 1.353 . S
N95 Co60 2.145 . S
N95 C96 1.397 . S
N95 C97 1.334 . S
C96 H77 0.929 . S
C96 C93 1.388 . S
C96 N95 1.397 . S
C97 H78 0.929 . S
C97 C94 1.404 . S
C97 N95 1.334 . S
C98 H90 0.930 . S
C98 C93 1.418 . S
C98 C94 1.353 . S
C99 H69 0.930 . S
C99 N100 1.330 . S
C99 C101 1.446 . S
N100 Co59 2.151 . S
N100 C99 1.330 . S
N100 C104 1.418 . S
C101 H80 0.929 . S
C101 C99 1.446 . S
C101 C102 1.332 . S
C102 H82 0.931 . S
C102 C101 1.332 . S
C102 C103 1.267 . S
C103 H71 0.929 . S
C103 C102 1.267 . S
C103 C104 1.251 . S
C104 H74 0.929 . S
C104 N100 1.418 . S
C104 C103 1.251 . S
C105 H72 0.930 . S
C105 C107 1.406 . S
C105 C110 1.261 . S
C106 H73 0.930 . S
C106 N108 1.325 . S
C106 C109 1.357 . S
C107 H75 0.928 . S
C107 C105 1.406 . S
C107 N108 1.261 . S
N108 Co59 2.214 . S
N108 C106 1.325 . S
N108 C107 1.261 . S
C109 H79 0.931 . S
C109 C106 1.357 . S
C109 C110 1.312 . S
C110 H81 0.930 . S
C110 C105 1.261 . S
C110 C109 1.312 . S
C111 O83 1.214 . S
C111 O91 1.234 . S
C112 H84 0.929 . S
C112 C115 1.391 . S
C112 C117 1.391 . S
C113 H85 0.929 . S
C113 C114 1.390 . S
C113 N116 1.391 . S
C114 H86 0.930 . S
C114 C113 1.390 . S
C114 C115 1.392 . S
C115 H87 0.929 . S
C115 C112 1.391 . S
C115 C114 1.392 . S
N116 Co60 2.257 . S
N116 C113 1.391 . S
N116 C117 1.388 . S
C117 H88 0.930 . S
C117 C112 1.391 . S
C117 N116 1.388 . S
Co118 O120 2.143 . S
Co118 O126 2.074 . S
Co118 O129 2.093 . S
Co118 O142 2.097 . S
Co118 N159 2.151 . S
Co118 N167 2.214 . S
Co119 O120 2.160 . S
Co119 O125 2.058 . S
Co119 O135 2.057 . S
Co119 O150 2.037 . S
Co119 N154 2.145 . S
Co119 N175 2.257 . S
O120 Co118 2.143 . S
O120 Co119 2.160 . S
C121 O122 1.278 . S
C121 O129 1.224 . S
O122 C121 1.278 . S
C123 O124 1.245 . S
C123 O135 1.232 . S
O124 C123 1.245 . S
O125 Co119 2.058 . S
O125 C151 1.269 . S
O126 Co118 2.074 . S
O126 C151 1.257 . S
H127 C152 0.930 . S
H128 C158 0.930 . S
O129 Co118 2.093 . S
O129 C121 1.224 . S
H130 C162 0.929 . S
H131 C164 0.930 . S
H132 C165 0.930 . S
H133 C163 0.929 . S
H134 C166 0.928 . S
O135 Co119 2.057 . S
O135 C123 1.232 . S
H136 C155 0.929 . S
H137 C156 0.929 . S
H138 C168 0.931 . S
H139 C160 0.929 . S
H140 C169 0.930 . S
H141 C161 0.931 . S
O142 Co118 2.097 . S
O142 C170 1.214 . S
H143 C171 0.911 1_554 S
H144 C172 0.929 . S
H145 C173 0.930 . S
H146 C174 0.929 . S
H147 C176 0.930 . S
H148 C153 0.930 . S
H149 C157 0.930 . S
O150 Co119 2.037 . S
O150 C170 1.234 . S
C151 O125 1.269 . S
C151 O126 1.257 . S
C152 H127 0.930 . S
C152 C155 1.388 . S
C152 C157 1.418 . S
C153 H148 0.930 . S
C153 C156 1.404 . S
C153 C157 1.353 . S
N154 Co119 2.145 . S
N154 C155 1.397 . S
N154 C156 1.334 . S
C155 H136 0.929 . S
C155 C152 1.388 . S
C155 N154 1.397 . S
C156 H137 0.929 . S
C156 C153 1.404 . S
C156 N154 1.334 . S
C157 H149 0.930 . S
C157 C152 1.418 . S
C157 C153 1.353 . S
C158 H128 0.930 . S
C158 N159 1.330 . S
C158 C160 1.446 . S
N159 Co118 2.151 . S
N159 C158 1.330 . S
N159 C163 1.418 . S
C160 H139 0.929 . S
C160 C158 1.446 . S
C160 C161 1.332 . S
C161 H141 0.931 . S
C161 C160 1.332 . S
C161 C162 1.267 . S
C162 H130 0.929 . S
C162 C161 1.267 . S
C162 C163 1.251 . S
C163 H133 0.929 . S
C163 N159 1.418 . S
C163 C162 1.251 . S
C164 H131 0.930 . S
C164 C166 1.406 . S
C164 C169 1.261 . S
C165 H132 0.930 . S
C165 N167 1.325 . S
C165 C168 1.357 . S
C166 H134 0.928 . S
C166 C164 1.406 . S
C166 N167 1.261 . S
N167 Co118 2.214 . S
N167 C165 1.325 . S
N167 C166 1.261 . S
C168 H138 0.931 . S
C168 C165 1.357 . S
C168 C169 1.312 . S
C169 H140 0.930 . S
C169 C164 1.261 . S
C169 C168 1.312 . S
C170 O142 1.214 . S
C170 O150 1.234 . S
C171 H143 0.911 1_556 S
C171 C174 1.385 1_556 S
C171 C176 1.415 . S
C172 H144 0.929 . S
C172 C173 1.390 . S
C172 N175 1.391 . S
C173 H145 0.930 . S
C173 C172 1.390 . S
C173 C174 1.392 1_556 S
C174 H146 0.929 . S
C174 C171 1.385 1_554 S
C174 C173 1.392 1_554 S
N175 Co119 2.257 . S
N175 C172 1.391 . S
N175 C176 1.388 . S
C176 H147 0.930 . S
C176 C171 1.415 . S
C176 N175 1.388 . S
Co177 O179 2.143 . S
Co177 O185 2.074 . S
Co177 O188 2.093 . S
Co177 O201 2.097 . S
Co177 N218 2.151 . S
Co177 N226 2.214 . S
Co178 O179 2.160 . S
Co178 O184 2.058 . S
Co178 O194 2.057 . S
Co178 O209 2.037 . S
Co178 N213 2.145 . S
Co178 N234 2.257 . S
O179 Co177 2.143 . S
O179 Co178 2.160 . S
C180 O181 1.278 . S
C180 O188 1.224 . S
O181 C180 1.278 . S
C182 O183 1.245 . S
C182 O194 1.232 . S
O183 C182 1.245 . S
O184 Co178 2.058 . S
O184 C210 1.269 . S
O185 Co177 2.074 . S
O185 C210 1.257 . S
H186 C211 0.930 . S
H187 C217 0.930 . S
O188 Co177 2.093 . S
O188 C180 1.224 . S
H189 C221 0.929 . S
H190 C223 0.930 . S
H191 C224 0.930 . S
H192 C222 0.929 . S
H193 C225 0.928 . S
O194 Co178 2.057 . S
O194 C182 1.232 . S
H195 C214 0.929 . S
H196 C215 0.929 . S
H197 C227 0.931 . S
H198 C219 0.929 . S
H199 C228 0.930 . S
H200 C220 0.931 . S
O201 Co177 2.097 . S
O201 C229 1.214 . S
H202 C230 0.929 . S
H203 C231 0.929 . S
H204 C232 0.930 . S
H205 C233 0.929 . S
H206 C235 0.930 . S
H207 C212 0.930 . S
H208 C216 0.930 . S
O209 Co178 2.037 . S
O209 C229 1.234 . S
C210 O184 1.269 . S
C210 O185 1.257 . S
C211 H186 0.930 . S
C211 C214 1.388 . S
C211 C216 1.418 . S
C212 H207 0.930 . S
C212 C215 1.404 . S
C212 C216 1.353 . S
N213 Co178 2.145 . S
N213 C214 1.397 . S
N213 C215 1.334 . S
C214 H195 0.929 . S
C214 C211 1.388 . S
C214 N213 1.397 . S
C215 H196 0.929 . S
C215 C212 1.404 . S
C215 N213 1.334 . S
C216 H208 0.930 . S
C216 C211 1.418 . S
C216 C212 1.353 . S
C217 H187 0.930 . S
C217 N218 1.330 . S
C217 C219 1.446 . S
N218 Co177 2.151 . S
N218 C217 1.330 . S
N218 C222 1.418 . S
C219 H198 0.929 . S
C219 C217 1.446 . S
C219 C220 1.332 . S
C220 H200 0.931 . S
C220 C219 1.332 . S
C220 C221 1.267 . S
C221 H189 0.929 . S
C221 C220 1.267 . S
C221 C222 1.251 . S
C222 H192 0.929 . S
C222 N218 1.418 . S
C222 C221 1.251 . S
C223 H190 0.930 . S
C223 C225 1.406 . S
C223 C228 1.261 . S
C224 H191 0.930 . S
C224 N226 1.325 . S
C224 C227 1.357 . S
C225 H193 0.928 . S
C225 C223 1.406 . S
C225 N226 1.261 . S
N226 Co177 2.214 . S
N226 C224 1.325 . S
N226 C225 1.261 . S
C227 H197 0.931 . S
C227 C224 1.357 . S
C227 C228 1.312 . S
C228 H199 0.930 . S
C228 C223 1.261 . S
C228 C227 1.312 . S
C229 O201 1.214 . S
C229 O209 1.234 . S
C230 H202 0.929 . S
C230 C233 1.391 . S
C230 C235 1.391 . S
C231 H203 0.929 . S
C231 C232 1.390 . S
C231 N234 1.391 . S
C232 H204 0.930 . S
C232 C231 1.390 . S
C232 C233 1.392 . S
C233 H205 0.929 . S
C233 C230 1.391 . S
C233 C232 1.392 . S
N234 Co178 2.257 . S
N234 C231 1.391 . S
N234 C235 1.388 . S
C235 H206 0.930 . S
C235 C230 1.391 . S
C235 N234 1.388 . S
Co236 O238 2.143 . S
Co236 O244 2.074 . S
Co236 O247 2.093 . S
Co236 O260 2.097 . S
Co236 N277 2.151 . S
Co236 N285 2.214 . S
Co237 O238 2.160 . S
Co237 O243 2.058 . S
Co237 O253 2.057 . S
Co237 O268 2.037 . S
Co237 N272 2.145 . S
Co237 N293 2.257 . S
O238 Co236 2.143 . S
O238 Co237 2.160 . S
C239 O240 1.278 . S
C239 O247 1.224 . S
O240 C239 1.278 . S
C241 O242 1.245 . S
C241 O253 1.232 . S
O242 C241 1.245 . S
O243 Co237 2.058 . S
O243 C269 1.269 . S
O244 Co236 2.074 . S
O244 C269 1.257 . S
H245 C270 0.930 . S
H246 C276 0.930 . S
O247 Co236 2.093 . S
O247 C239 1.224 . S
H248 C280 0.929 . S
H249 C282 0.930 . S
H250 C283 0.930 . S
H251 C281 0.929 . S
H252 C284 0.928 . S
O253 Co237 2.057 . S
O253 C241 1.232 . S
H254 C273 0.929 . S
H255 C274 0.929 . S
H256 C286 0.931 . S
H257 C278 0.929 . S
H258 C287 0.930 . S
H259 C279 0.931 . S
O260 Co236 2.097 . S
O260 C288 1.214 . S
H261 C289 0.929 . S
H262 C290 0.929 . S
H263 C291 0.930 . S
H264 C292 0.929 . S
H265 C294 0.930 . S
H266 C271 0.930 . S
H267 C275 0.930 . S
O268 Co237 2.037 . S
O268 C288 1.234 . S
C269 O243 1.269 . S
C269 O244 1.257 . S
C270 H245 0.930 . S
C270 C273 1.388 1_554 S
C270 C275 1.418 . S
C271 H266 0.930 . S
C271 C274 1.404 1_554 S
C271 C275 1.353 . S
N272 Co237 2.145 . S
N272 C273 1.397 . S
N272 C274 1.334 . S
C273 H254 0.929 . S
C273 C270 1.388 1_556 S
C273 N272 1.397 . S
C274 H255 0.929 . S
C274 C271 1.404 1_556 S
C274 N272 1.334 . S
C275 H267 0.930 . S
C275 C270 1.418 . S
C275 C271 1.353 . S
C276 H246 0.930 . S
C276 N277 1.330 . S
C276 C278 1.446 . S
N277 Co236 2.151 . S
N277 C276 1.330 . S
N277 C281 1.418 . S
C278 H257 0.929 . S
C278 C276 1.446 . S
C278 C279 1.332 . S
C279 H259 0.931 . S
C279 C278 1.332 . S
C279 C280 1.267 . S
C280 H248 0.929 . S
C280 C279 1.267 . S
C280 C281 1.251 . S
C281 H251 0.929 . S
C281 N277 1.418 . S
C281 C280 1.251 . S
C282 H249 0.930 . S
C282 C284 1.406 . S
C282 C287 1.261 . S
C283 H250 0.930 . S
C283 N285 1.325 . S
C283 C286 1.357 . S
C284 H252 0.928 . S
C284 C282 1.406 . S
C284 N285 1.261 . S
N285 Co236 2.214 . S
N285 C283 1.325 . S
N285 C284 1.261 . S
C286 H256 0.931 . S
C286 C283 1.357 . S
C286 C287 1.312 . S
C287 H258 0.930 . S
C287 C282 1.261 . S
C287 C286 1.312 . S
C288 O260 1.214 . S
C288 O268 1.234 . S
C289 H261 0.929 . S
C289 C292 1.391 . S
C289 C294 1.391 . S
C290 H262 0.929 . S
C290 C291 1.390 . S
C290 N293 1.391 . S
C291 H263 0.930 . S
C291 C290 1.390 . S
C291 C292 1.392 . S
C292 H264 0.929 . S
C292 C289 1.391 . S
C292 C291 1.392 . S
N293 Co237 2.257 . S
N293 C290 1.391 . S
N293 C294 1.388 . S
C294 H265 0.930 . S
C294 C289 1.391 . S
C294 N293 1.388 . S
Co295 O297 2.143 . S
Co295 O303 2.074 . S
Co295 O306 2.093 . S
Co295 O319 2.097 . S
Co295 N336 2.151 . S
Co295 N344 2.214 . S
Co296 O297 2.160 . S
Co296 O302 2.058 . S
Co296 O312 2.057 . S
Co296 O327 2.037 . S
Co296 N331 2.145 . S
Co296 N352 2.257 . S
O297 Co295 2.143 . S
O297 Co296 2.160 . S
C298 O299 1.278 . S
C298 O306 1.224 . S
O299 C298 1.278 . S
C300 O301 1.245 . S
C300 O312 1.232 . S
O301 C300 1.245 . S
O302 Co296 2.058 . S
O302 C328 1.269 . S
O303 Co295 2.074 . S
O303 C328 1.257 . S
H304 C329 0.930 . S
H305 C335 0.930 . S
O306 Co295 2.093 . S
O306 C298 1.224 . S
H307 C339 0.929 . S
H308 C341 0.930 . S
H309 C342 0.930 . S
H310 C340 0.929 . S
H311 C343 0.928 . S
O312 Co296 2.057 . S
O312 C300 1.232 . S
H313 C332 0.929 . S
H314 C333 0.929 . S
H315 C345 0.931 . S
H316 C337 0.929 . S
H317 C346 0.930 . S
H318 C338 0.931 . S
O319 Co295 2.097 . S
O319 C347 1.214 . S
H320 C348 0.929 . S
H321 C349 0.929 . S
H322 C350 0.930 . S
H323 C351 0.929 . S
H324 C353 0.930 . S
H325 C330 0.930 . S
H326 C334 0.930 . S
O327 Co296 2.037 . S
O327 C347 1.234 . S
C328 O302 1.269 . S
C328 O303 1.257 . S
C329 H304 0.930 . S
C329 C332 1.388 . S
C329 C334 1.418 . S
C330 H325 0.930 . S
C330 C333 1.404 . S
C330 C334 1.353 . S
N331 Co296 2.145 . S
N331 C332 1.397 . S
N331 C333 1.334 . S
C332 H313 0.929 . S
C332 C329 1.388 . S
C332 N331 1.397 . S
C333 H314 0.929 . S
C333 C330 1.404 . S
C333 N331 1.334 . S
C334 H326 0.930 . S
C334 C329 1.418 . S
C334 C330 1.353 . S
C335 H305 0.930 . S
C335 N336 1.330 . S
C335 C337 1.446 . S
N336 Co295 2.151 . S
N336 C335 1.330 . S
N336 C340 1.418 . S
C337 H316 0.929 . S
C337 C335 1.446 . S
C337 C338 1.332 . S
C338 H318 0.931 . S
C338 C337 1.332 . S
C338 C339 1.267 . S
C339 H307 0.929 . S
C339 C338 1.267 . S
C339 C340 1.251 . S
C340 H310 0.929 . S
C340 N336 1.418 . S
C340 C339 1.251 . S
C341 H308 0.930 . S
C341 C343 1.406 . S
C341 C346 1.261 . S
C342 H309 0.930 . S
C342 N344 1.325 . S
C342 C345 1.357 . S
C343 H311 0.928 . S
C343 C341 1.406 . S
C343 N344 1.261 . S
N344 Co295 2.214 . S
N344 C342 1.325 . S
N344 C343 1.261 . S
C345 H315 0.931 . S
C345 C342 1.357 . S
C345 C346 1.312 . S
C346 H317 0.930 . S
C346 C341 1.261 . S
C346 C345 1.312 . S
C347 O319 1.214 . S
C347 O327 1.234 . S
C348 H320 0.929 . S
C348 C351 1.391 . S
C348 C353 1.391 . S
C349 H321 0.929 . S
C349 C350 1.390 . S
C349 N352 1.391 . S
C350 H322 0.930 . S
C350 C349 1.390 . S
C350 C351 1.392 . S
C351 H323 0.929 . S
C351 C348 1.391 . S
C351 C350 1.392 . S
N352 Co296 2.257 . S
N352 C349 1.391 . S
N352 C353 1.388 . S
C353 H324 0.930 . S
C353 C348 1.391 . S
C353 N352 1.388 . S
Co354 O356 2.143 . S
Co354 O362 2.074 . S
Co354 O365 2.093 . S
Co354 O378 2.097 . S
Co354 N395 2.151 . S
Co354 N403 2.214 . S
Co355 O356 2.160 . S
Co355 O361 2.058 . S
Co355 O371 2.057 . S
Co355 O386 2.037 . S
Co355 N390 2.145 . S
Co355 N411 2.257 . S
O356 Co354 2.143 . S
O356 Co355 2.160 . S
C357 O358 1.278 . S
C357 O365 1.224 . S
O358 C357 1.278 . S
C359 O360 1.245 . S
C359 O371 1.232 . S
O360 C359 1.245 . S
O361 Co355 2.058 . S
O361 C387 1.269 . S
O362 Co354 2.074 . S
O362 C387 1.257 . S
H363 C388 0.930 . S
H364 C394 0.930 . S
O365 Co354 2.093 . S
O365 C357 1.224 . S
H366 C398 0.929 . S
H367 C400 0.930 . S
H368 C401 0.930 . S
H369 C399 0.929 . S
H370 C402 0.928 . S
O371 Co355 2.057 . S
O371 C359 1.232 . S
H372 C391 0.929 . S
H373 C392 0.929 . S
H374 C404 0.931 . S
H375 C396 0.929 . S
H376 C405 0.930 . S
H377 C397 0.931 . S
O378 Co354 2.097 . S
O378 C406 1.214 . S
H379 C407 0.929 . S
H380 C408 0.929 . S
H381 C409 0.930 . S
H382 C410 0.929 . S
H383 C412 0.930 . S
H384 C389 0.930 . S
H385 C393 0.930 . S
O386 Co355 2.037 . S
O386 C406 1.234 . S
C387 O361 1.269 . S
C387 O362 1.257 . S
C388 H363 0.930 . S
C388 C391 1.388 1_556 S
C388 C393 1.418 . S
C389 H384 0.930 . S
C389 C392 1.404 1_556 S
C389 C393 1.353 . S
N390 Co355 2.145 . S
N390 C391 1.397 . S
N390 C392 1.334 . S
C391 H372 0.929 . S
C391 C388 1.388 1_554 S
C391 N390 1.397 . S
C392 H373 0.929 . S
C392 C389 1.404 1_554 S
C392 N390 1.334 . S
C393 H385 0.930 . S
C393 C388 1.418 . S
C393 C389 1.353 . S
C394 H364 0.930 . S
C394 N395 1.330 . S
C394 C396 1.446 . S
N395 Co354 2.151 . S
N395 C394 1.330 . S
N395 C399 1.418 . S
C396 H375 0.929 . S
C396 C394 1.446 . S
C396 C397 1.332 . S
C397 H377 0.931 . S
C397 C396 1.332 . S
C397 C398 1.267 . S
C398 H366 0.929 . S
C398 C397 1.267 . S
C398 C399 1.251 . S
C399 H369 0.929 . S
C399 N395 1.418 . S
C399 C398 1.251 . S
C400 H367 0.930 . S
C400 C402 1.406 . S
C400 C405 1.261 . S
C401 H368 0.930 . S
C401 N403 1.325 . S
C401 C404 1.357 . S
C402 H370 0.928 . S
C402 C400 1.406 . S
C402 N403 1.261 . S
N403 Co354 2.214 . S
N403 C401 1.325 . S
N403 C402 1.261 . S
C404 H374 0.931 . S
C404 C401 1.357 . S
C404 C405 1.312 . S
C405 H376 0.930 . S
C405 C400 1.261 . S
C405 C404 1.312 . S
C406 O378 1.214 . S
C406 O386 1.234 . S
C407 H379 0.929 . S
C407 C410 1.391 . S
C407 C412 1.391 . S
C408 H380 0.929 . S
C408 C409 1.390 . S
C408 N411 1.391 . S
C409 H381 0.930 . S
C409 C408 1.390 . S
C409 C410 1.392 . S
C410 H382 0.929 . S
C410 C407 1.391 . S
C410 C409 1.392 . S
N411 Co355 2.257 . S
N411 C408 1.391 . S
N411 C412 1.388 . S
C412 H383 0.930 . S
C412 C407 1.391 . S
C412 N411 1.388 . S
Co413 O415 2.143 . S
Co413 O421 2.074 . S
Co413 O424 2.093 . S
Co413 O437 2.097 . S
Co413 N454 2.151 . S
Co413 N462 2.214 . S
Co414 O415 2.160 . S
Co414 O420 2.058 . S
Co414 O430 2.057 . S
Co414 O445 2.037 . S
Co414 N449 2.145 . S
Co414 N470 2.257 . S
O415 Co413 2.143 . S
O415 Co414 2.160 . S
C416 O417 1.278 . S
C416 O424 1.224 . S
O417 C416 1.278 . S
C418 O419 1.245 . S
C418 O430 1.232 . S
O419 C418 1.245 . S
O420 Co414 2.058 . S
O420 C446 1.269 . S
O421 Co413 2.074 . S
O421 C446 1.257 . S
H422 C447 0.930 . S
H423 C453 0.930 . S
O424 Co413 2.093 . S
O424 C416 1.224 . S
H425 C457 0.929 . S
H426 C459 0.930 . S
H427 C460 0.930 . S
H428 C458 0.929 . S
H429 C461 0.928 . S
O430 Co414 2.057 . S
O430 C418 1.232 . S
H431 C450 0.929 . S
H432 C451 0.929 . S
H433 C463 0.931 . S
H434 C455 0.929 . S
H435 C464 0.930 . S
H436 C456 0.931 . S
O437 Co413 2.097 . S
O437 C465 1.214 . S
H438 C466 0.929 . S
H439 C467 0.929 . S
H440 C468 0.930 . S
H441 C469 0.929 . S
H442 C471 0.930 . S
H443 C448 0.930 . S
H444 C452 0.930 . S
O445 Co414 2.037 . S
O445 C465 1.234 . S
C446 O420 1.269 . S
C446 O421 1.257 . S
C447 H422 0.930 . S
C447 C450 1.388 . S
C447 C452 1.418 . S
C448 H443 0.930 . S
C448 C451 1.404 . S
C448 C452 1.353 . S
N449 Co414 2.145 . S
N449 C450 1.397 . S
N449 C451 1.334 . S
C450 H431 0.929 . S
C450 C447 1.388 . S
C450 N449 1.397 . S
C451 H432 0.929 . S
C451 C448 1.404 . S
C451 N449 1.334 . S
C452 H444 0.930 . S
C452 C447 1.418 . S
C452 C448 1.353 . S
C453 H423 0.930 . S
C453 N454 1.330 . S
C453 C455 1.446 . S
N454 Co413 2.151 . S
N454 C453 1.330 . S
N454 C458 1.418 . S
C455 H434 0.929 . S
C455 C453 1.446 . S
C455 C456 1.332 . S
C456 H436 0.931 . S
C456 C455 1.332 . S
C456 C457 1.267 . S
C457 H425 0.929 . S
C457 C456 1.267 . S
C457 C458 1.251 . S
C458 H428 0.929 . S
C458 N454 1.418 . S
C458 C457 1.251 . S
C459 H426 0.930 . S
C459 C461 1.406 . S
C459 C464 1.261 . S
C460 H427 0.930 . S
C460 N462 1.325 . S
C460 C463 1.357 . S
C461 H429 0.928 . S
C461 C459 1.406 . S
C461 N462 1.261 . S
N462 Co413 2.214 . S
N462 C460 1.325 . S
N462 C461 1.261 . S
C463 H433 0.931 . S
C463 C460 1.357 . S
C463 C464 1.312 . S
C464 H435 0.930 . S
C464 C459 1.261 . S
C464 C463 1.312 . S
C465 O437 1.214 . S
C465 O445 1.234 . S
C466 H438 0.929 . S
C466 C469 1.391 . S
C466 C471 1.391 . S
C467 H439 0.929 . S
C467 C468 1.390 . S
C467 N470 1.391 . S
C468 H440 0.930 . S
C468 C467 1.390 . S
C468 C469 1.392 . S
C469 H441 0.929 . S
C469 C466 1.391 . S
C469 C468 1.392 . S
N470 Co414 2.257 . S
N470 C467 1.391 . S
N470 C471 1.388 . S
C471 H442 0.930 . S
C471 C466 1.391 . S
C471 N470 1.388 . S
Co472 O474 2.143 . S
Co472 O480 2.074 . S
Co472 O483 2.093 . S
Co472 O496 2.097 . S
Co472 N513 2.151 . S
Co472 N521 2.214 . S
Co473 O474 2.160 . S
Co473 O479 2.058 . S
Co473 O489 2.057 . S
Co473 O504 2.037 . S
Co473 N508 2.145 . S
Co473 N529 2.257 . S
O474 Co472 2.143 . S
O474 Co473 2.160 . S
C475 O476 1.278 . S
C475 O483 1.224 . S
O476 C475 1.278 . S
C477 O478 1.245 . S
C477 O489 1.232 . S
O478 C477 1.245 . S
O479 Co473 2.058 . S
O479 C505 1.269 . S
O480 Co472 2.074 . S
O480 C505 1.257 . S
H481 C506 0.930 . S
H482 C512 0.930 . S
O483 Co472 2.093 . S
O483 C475 1.224 . S
H484 C516 0.929 . S
H485 C518 0.930 . S
H486 C519 0.930 . S
H487 C517 0.929 . S
H488 C520 0.928 . S
O489 Co473 2.057 . S
O489 C477 1.232 . S
H490 C509 0.929 . S
H491 C510 0.929 . S
H492 C522 0.931 . S
H493 C514 0.929 . S
H494 C523 0.930 . S
H495 C515 0.931 . S
O496 Co472 2.097 . S
O496 C524 1.214 . S
H497 C525 0.911 1_556 S
H498 C526 0.929 . S
H499 C527 0.930 . S
H500 C528 0.929 . S
H501 C530 0.930 . S
H502 C507 0.930 . S
H503 C511 0.930 . S
O504 Co473 2.037 . S
O504 C524 1.234 . S
C505 O479 1.269 . S
C505 O480 1.257 . S
C506 H481 0.930 . S
C506 C509 1.388 . S
C506 C511 1.418 . S
C507 H502 0.930 . S
C507 C510 1.404 . S
C507 C511 1.353 . S
N508 Co473 2.145 . S
N508 C509 1.397 . S
N508 C510 1.334 . S
C509 H490 0.929 . S
C509 C506 1.388 . S
C509 N508 1.397 . S
C510 H491 0.929 . S
C510 C507 1.404 . S
C510 N508 1.334 . S
C511 H503 0.930 . S
C511 C506 1.418 . S
C511 C507 1.353 . S
C512 H482 0.930 . S
C512 N513 1.330 . S
C512 C514 1.446 . S
N513 Co472 2.151 . S
N513 C512 1.330 . S
N513 C517 1.418 . S
C514 H493 0.929 . S
C514 C512 1.446 . S
C514 C515 1.332 . S
C515 H495 0.931 . S
C515 C514 1.332 . S
C515 C516 1.267 . S
C516 H484 0.929 . S
C516 C515 1.267 . S
C516 C517 1.251 . S
C517 H487 0.929 . S
C517 N513 1.418 . S
C517 C516 1.251 . S
C518 H485 0.930 . S
C518 C520 1.406 . S
C518 C523 1.261 . S
C519 H486 0.930 . S
C519 N521 1.325 . S
C519 C522 1.357 . S
C520 H488 0.928 . S
C520 C518 1.406 . S
C520 N521 1.261 . S
N521 Co472 2.214 . S
N521 C519 1.325 . S
N521 C520 1.261 . S
C522 H492 0.931 . S
C522 C519 1.357 . S
C522 C523 1.312 . S
C523 H494 0.930 . S
C523 C518 1.261 . S
C523 C522 1.312 . S
C524 O496 1.214 . S
C524 O504 1.234 . S
C525 H497 0.911 1_554 S
C525 C528 1.385 1_554 S
C525 C530 1.415 . S
C526 H498 0.929 . S
C526 C527 1.390 . S
C526 N529 1.391 . S
C527 H499 0.930 . S
C527 C526 1.390 . S
C527 C528 1.392 1_554 S
C528 H500 0.929 . S
C528 C525 1.385 1_556 S
C528 C527 1.392 1_556 S
N529 Co473 2.257 . S
N529 C526 1.391 . S
N529 C530 1.388 . S
C530 H501 0.930 . S
C530 C525 1.415 . S
C530 N529 1.388 . S
Co531 O533 2.143 . S
Co531 O539 2.074 . S
Co531 O542 2.093 . S
Co531 O555 2.097 . S
Co531 N572 2.151 . S
Co531 N580 2.214 . S
Co532 O533 2.160 . S
Co532 O538 2.058 . S
Co532 O548 2.057 . S
Co532 O563 2.037 . S
Co532 N567 2.145 . S
Co532 N588 2.257 . S
O533 Co531 2.143 . S
O533 Co532 2.160 . S
C534 O535 1.278 . S
C534 O542 1.224 . S
O535 C534 1.278 . S
C536 O537 1.245 . S
C536 O548 1.232 . S
O537 C536 1.245 . S
O538 Co532 2.058 . S
O538 C564 1.269 . S
O539 Co531 2.074 . S
O539 C564 1.257 . S
H540 C565 0.930 . S
H541 C571 0.930 . S
O542 Co531 2.093 . S
O542 C534 1.224 . S
H543 C575 0.929 . S
H544 C577 0.930 . S
H545 C578 0.930 . S
H546 C576 0.929 . S
H547 C579 0.928 . S
O548 Co532 2.057 . S
O548 C536 1.232 . S
H549 C568 0.929 . S
H550 C569 0.929 . S
H551 C581 0.931 . S
H552 C573 0.929 . S
H553 C582 0.930 . S
H554 C574 0.931 . S
O555 Co531 2.097 . S
O555 C583 1.214 . S
H556 C584 0.929 . S
H557 C585 0.929 . S
H558 C586 0.930 . S
H559 C587 0.929 . S
H560 C589 0.930 . S
H561 C566 0.930 . S
H562 C570 0.930 . S
O563 Co532 2.037 . S
O563 C583 1.234 . S
C564 O538 1.269 . S
C564 O539 1.257 . S
C565 H540 0.930 . S
C565 C568 1.388 . S
C565 C570 1.418 . S
C566 H561 0.930 . S
C566 C569 1.404 . S
C566 C570 1.353 . S
N567 Co532 2.145 . S
N567 C568 1.397 . S
N567 C569 1.334 . S
C568 H549 0.929 . S
C568 C565 1.388 . S
C568 N567 1.397 . S
C569 H550 0.929 . S
C569 C566 1.404 . S
C569 N567 1.334 . S
C570 H562 0.930 . S
C570 C565 1.418 . S
C570 C566 1.353 . S
C571 H541 0.930 . S
C571 N572 1.330 . S
C571 C573 1.446 . S
N572 Co531 2.151 . S
N572 C571 1.330 . S
N572 C576 1.418 . S
C573 H552 0.929 . S
C573 C571 1.446 . S
C573 C574 1.332 . S
C574 H554 0.931 . S
C574 C573 1.332 . S
C574 C575 1.267 . S
C575 H543 0.929 . S
C575 C574 1.267 . S
C575 C576 1.251 . S
C576 H546 0.929 . S
C576 N572 1.418 . S
C576 C575 1.251 . S
C577 H544 0.930 . S
C577 C579 1.406 . S
C577 C582 1.261 . S
C578 H545 0.930 . S
C578 N580 1.325 . S
C578 C581 1.357 . S
C579 H547 0.928 . S
C579 C577 1.406 . S
C579 N580 1.261 . S
N580 Co531 2.214 . S
N580 C578 1.325 . S
N580 C579 1.261 . S
C581 H551 0.931 . S
C581 C578 1.357 . S
C581 C582 1.312 . S
C582 H553 0.930 . S
C582 C577 1.261 . S
C582 C581 1.312 . S
C583 O555 1.214 . S
C583 O563 1.234 . S
C584 H556 0.929 . S
C584 C587 1.391 . S
C584 C589 1.391 . S
C585 H557 0.929 . S
C585 C586 1.390 . S
C585 N588 1.391 . S
C586 H558 0.930 . S
C586 C585 1.390 . S
C586 C587 1.392 . S
C587 H559 0.929 . S
C587 C584 1.391 . S
C587 C586 1.392 . S
N588 Co532 2.257 . S
N588 C585 1.391 . S
N588 C589 1.388 . S
C589 H560 0.930 . S
C589 C584 1.391 . S
C589 N588 1.388 . S
Co590 O592 2.143 . S
Co590 O598 2.074 . S
Co590 O601 2.093 . S
Co590 O614 2.097 . S
Co590 N631 2.151 . S
Co590 N639 2.214 . S
Co591 O592 2.160 . S
Co591 O597 2.058 . S
Co591 O607 2.057 . S
Co591 O622 2.037 . S
Co591 N626 2.145 . S
Co591 N647 2.257 . S
O592 Co590 2.143 . S
O592 Co591 2.160 . S
C593 O594 1.278 . S
C593 O601 1.224 . S
O594 C593 1.278 . S
C595 O596 1.245 . S
C595 O607 1.232 . S
O596 C595 1.245 . S
O597 Co591 2.058 . S
O597 C623 1.269 . S
O598 Co590 2.074 . S
O598 C623 1.257 . S
H599 C624 0.930 . S
H600 C630 0.930 . S
O601 Co590 2.093 . S
O601 C593 1.224 . S
H602 C634 0.929 . S
H603 C636 0.930 . S
H604 C637 0.930 . S
H605 C635 0.929 . S
H606 C638 0.928 . S
O607 Co591 2.057 . S
O607 C595 1.232 . S
H608 C627 0.929 . S
H609 C628 0.929 . S
H610 C640 0.931 . S
H611 C632 0.929 . S
H612 C641 0.930 . S
H613 C633 0.931 . S
O614 Co590 2.097 . S
O614 C642 1.214 . S
H615 C643 0.911 1_554 S
H616 C644 0.929 . S
H617 C645 0.930 . S
H618 C646 0.929 . S
H619 C648 0.930 . S
H620 C625 0.930 . S
H621 C629 0.930 . S
O622 Co591 2.037 . S
O622 C642 1.234 . S
C623 O597 1.269 . S
C623 O598 1.257 . S
C624 H599 0.930 . S
C624 C627 1.388 . S
C624 C629 1.418 . S
C625 H620 0.930 . S
C625 C628 1.404 . S
C625 C629 1.353 . S
N626 Co591 2.145 . S
N626 C627 1.397 . S
N626 C628 1.334 . S
C627 H608 0.929 . S
C627 C624 1.388 . S
C627 N626 1.397 . S
C628 H609 0.929 . S
C628 C625 1.404 . S
C628 N626 1.334 . S
C629 H621 0.930 . S
C629 C624 1.418 . S
C629 C625 1.353 . S
C630 H600 0.930 . S
C630 N631 1.330 . S
C630 C632 1.446 . S
N631 Co590 2.151 . S
N631 C630 1.330 . S
N631 C635 1.418 . S
C632 H611 0.929 . S
C632 C630 1.446 . S
C632 C633 1.332 . S
C633 H613 0.931 . S
C633 C632 1.332 . S
C633 C634 1.267 . S
C634 H602 0.929 . S
C634 C633 1.267 . S
C634 C635 1.251 . S
C635 H605 0.929 . S
C635 N631 1.418 . S
C635 C634 1.251 . S
C636 H603 0.930 . S
C636 C638 1.406 . S
C636 C641 1.261 . S
C637 H604 0.930 . S
C637 N639 1.325 . S
C637 C640 1.357 . S
C638 H606 0.928 . S
C638 C636 1.406 . S
C638 N639 1.261 . S
N639 Co590 2.214 . S
N639 C637 1.325 . S
N639 C638 1.261 . S
C640 H610 0.931 . S
C640 C637 1.357 . S
C640 C641 1.312 . S
C641 H612 0.930 . S
C641 C636 1.261 . S
C641 C640 1.312 . S
C642 O614 1.214 . S
C642 O622 1.234 . S
C643 H615 0.911 1_556 S
C643 C646 1.385 1_556 S
C643 C648 1.415 . S
C644 H616 0.929 . S
C644 C645 1.390 . S
C644 N647 1.391 . S
C645 H617 0.930 . S
C645 C644 1.390 . S
C645 C646 1.392 1_556 S
C646 H618 0.929 . S
C646 C643 1.385 1_554 S
C646 C645 1.392 1_554 S
N647 Co591 2.257 . S
N647 C644 1.391 . S
N647 C648 1.388 . S
C648 H619 0.930 . S
C648 C643 1.415 . S
C648 N647 1.388 . S
Co649 O651 2.143 . S
Co649 O657 2.074 . S
Co649 O660 2.093 . S
Co649 O673 2.097 . S
Co649 N690 2.151 . S
Co649 N698 2.214 . S
Co650 O651 2.160 . S
Co650 O656 2.058 . S
Co650 O666 2.057 . S
Co650 O681 2.037 . S
Co650 N685 2.145 . S
Co650 N706 2.257 . S
O651 Co649 2.143 . S
O651 Co650 2.160 . S
C652 O653 1.278 . S
C652 O660 1.224 . S
O653 C652 1.278 . S
C654 O655 1.245 . S
C654 O666 1.232 . S
O655 C654 1.245 . S
O656 Co650 2.058 . S
O656 C682 1.269 . S
O657 Co649 2.074 . S
O657 C682 1.257 . S
H658 C683 0.930 . S
H659 C689 0.930 . S
O660 Co649 2.093 . S
O660 C652 1.224 . S
H661 C693 0.929 . S
H662 C695 0.930 . S
H663 C696 0.930 . S
H664 C694 0.929 . S
H665 C697 0.928 . S
O666 Co650 2.057 . S
O666 C654 1.232 . S
H667 C686 0.929 . S
H668 C687 0.929 . S
H669 C699 0.931 . S
H670 C691 0.929 . S
H671 C700 0.930 . S
H672 C692 0.931 . S
O673 Co649 2.097 . S
O673 C701 1.214 . S
H674 C702 0.929 . S
H675 C703 0.929 . S
H676 C704 0.930 . S
H677 C705 0.929 . S
H678 C707 0.930 . S
H679 C684 0.930 . S
H680 C688 0.930 . S
O681 Co650 2.037 . S
O681 C701 1.234 . S
C682 O656 1.269 . S
C682 O657 1.257 . S
C683 H658 0.930 . S
C683 C686 1.388 . S
C683 C688 1.418 . S
C684 H679 0.930 . S
C684 C687 1.404 . S
C684 C688 1.353 . S
N685 Co650 2.145 . S
N685 C686 1.397 . S
N685 C687 1.334 . S
C686 H667 0.929 . S
C686 C683 1.388 . S
C686 N685 1.397 . S
C687 H668 0.929 . S
C687 C684 1.404 . S
C687 N685 1.334 . S
C688 H680 0.930 . S
C688 C683 1.418 . S
C688 C684 1.353 . S
C689 H659 0.930 . S
C689 N690 1.330 . S
C689 C691 1.446 . S
N690 Co649 2.151 . S
N690 C689 1.330 . S
N690 C694 1.418 . S
C691 H670 0.929 . S
C691 C689 1.446 . S
C691 C692 1.332 . S
C692 H672 0.931 . S
C692 C691 1.332 . S
C692 C693 1.267 . S
C693 H661 0.929 . S
C693 C692 1.267 . S
C693 C694 1.251 . S
C694 H664 0.929 . S
C694 N690 1.418 . S
C694 C693 1.251 . S
C695 H662 0.930 . S
C695 C697 1.406 . S
C695 C700 1.261 . S
C696 H663 0.930 . S
C696 N698 1.325 . S
C696 C699 1.357 . S
C697 H665 0.928 . S
C697 C695 1.406 . S
C697 N698 1.261 . S
N698 Co649 2.214 . S
N698 C696 1.325 . S
N698 C697 1.261 . S
C699 H669 0.931 . S
C699 C696 1.357 . S
C699 C700 1.312 . S
C700 H671 0.930 . S
C700 C695 1.261 . S
C700 C699 1.312 . S
C701 O673 1.214 . S
C701 O681 1.234 . S
C702 H674 0.929 . S
C702 C705 1.391 . S
C702 C707 1.391 . S
C703 H675 0.929 . S
C703 C704 1.390 . S
C703 N706 1.391 . S
C704 H676 0.930 . S
C704 C703 1.390 . S
C704 C705 1.392 . S
C705 H677 0.929 . S
C705 C702 1.391 . S
C705 C704 1.392 . S
N706 Co650 2.257 . S
N706 C703 1.391 . S
N706 C707 1.388 . S
C707 H678 0.930 . S
C707 C702 1.391 . S
C707 N706 1.388 . S
Co708 O710 2.143 . S
Co708 O716 2.074 . S
Co708 O719 2.093 . S
Co708 O732 2.097 . S
Co708 N749 2.151 . S
Co708 N757 2.214 . S
Co709 O710 2.160 . S
Co709 O715 2.058 . S
Co709 O725 2.057 . S
Co709 O740 2.037 . S
Co709 N744 2.145 . S
Co709 N765 2.257 . S
O710 Co708 2.143 . S
O710 Co709 2.160 . S
C711 O712 1.278 . S
C711 O719 1.224 . S
O712 C711 1.278 . S
C713 O714 1.245 . S
C713 O725 1.232 . S
O714 C713 1.245 . S
O715 Co709 2.058 . S
O715 C741 1.269 . S
O716 Co708 2.074 . S
O716 C741 1.257 . S
H717 C742 0.930 . S
H718 C748 0.930 . S
O719 Co708 2.093 . S
O719 C711 1.224 . S
H720 C752 0.929 . S
H721 C754 0.930 . S
H722 C755 0.930 . S
H723 C753 0.929 . S
H724 C756 0.928 . S
O725 Co709 2.057 . S
O725 C713 1.232 . S
H726 C745 0.929 . S
H727 C746 0.929 . S
H728 C758 0.931 . S
H729 C750 0.929 . S
H730 C759 0.930 . S
H731 C751 0.931 . S
O732 Co708 2.097 . S
O732 C760 1.214 . S
H733 C761 0.929 . S
H734 C762 0.929 . S
H735 C763 0.930 . S
H736 C764 0.929 . S
H737 C766 0.930 . S
H738 C743 0.930 . S
H739 C747 0.930 . S
O740 Co709 2.037 . S
O740 C760 1.234 . S
C741 O715 1.269 . S
C741 O716 1.257 . S
C742 H717 0.930 . S
C742 C745 1.388 1_554 S
C742 C747 1.418 . S
C743 H738 0.930 . S
C743 C746 1.404 1_554 S
C743 C747 1.353 . S
N744 Co709 2.145 . S
N744 C745 1.397 . S
N744 C746 1.334 . S
C745 H726 0.929 . S
C745 C742 1.388 1_556 S
C745 N744 1.397 . S
C746 H727 0.929 . S
C746 C743 1.404 1_556 S
C746 N744 1.334 . S
C747 H739 0.930 . S
C747 C742 1.418 . S
C747 C743 1.353 . S
C748 H718 0.930 . S
C748 N749 1.330 . S
C748 C750 1.446 . S
N749 Co708 2.151 . S
N749 C748 1.330 . S
N749 C753 1.418 . S
C750 H729 0.929 . S
C750 C748 1.446 . S
C750 C751 1.332 . S
C751 H731 0.931 . S
C751 C750 1.332 . S
C751 C752 1.267 . S
C752 H720 0.929 . S
C752 C751 1.267 . S
C752 C753 1.251 . S
C753 H723 0.929 . S
C753 N749 1.418 . S
C753 C752 1.251 . S
C754 H721 0.930 . S
C754 C756 1.406 . S
C754 C759 1.261 . S
C755 H722 0.930 . S
C755 N757 1.325 . S
C755 C758 1.357 . S
C756 H724 0.928 . S
C756 C754 1.406 . S
C756 N757 1.261 . S
N757 Co708 2.214 . S
N757 C755 1.325 . S
N757 C756 1.261 . S
C758 H728 0.931 . S
C758 C755 1.357 . S
C758 C759 1.312 . S
C759 H730 0.930 . S
C759 C754 1.261 . S
C759 C758 1.312 . S
C760 O732 1.214 . S
C760 O740 1.234 . S
C761 H733 0.929 . S
C761 C764 1.391 . S
C761 C766 1.391 . S
C762 H734 0.929 . S
C762 C763 1.390 . S
C762 N765 1.391 . S
C763 H735 0.930 . S
C763 C762 1.390 . S
C763 C764 1.392 . S
C764 H736 0.929 . S
C764 C761 1.391 . S
C764 C763 1.392 . S
N765 Co709 2.257 . S
N765 C762 1.391 . S
N765 C766 1.388 . S
C766 H737 0.930 . S
C766 C761 1.391 . S
C766 N765 1.388 . S
Co767 O769 2.143 . S
Co767 O775 2.074 . S
Co767 O778 2.093 . S
Co767 O791 2.097 . S
Co767 N808 2.151 . S
Co767 N816 2.214 . S
Co768 O769 2.160 . S
Co768 O774 2.058 . S
Co768 O784 2.057 . S
Co768 O799 2.037 . S
Co768 N803 2.145 . S
Co768 N824 2.257 . S
O769 Co767 2.143 . S
O769 Co768 2.160 . S
C770 O771 1.278 . S
C770 O778 1.224 . S
O771 C770 1.278 . S
C772 O773 1.245 . S
C772 O784 1.232 . S
O773 C772 1.245 . S
O774 Co768 2.058 . S
O774 C800 1.269 . S
O775 Co767 2.074 . S
O775 C800 1.257 . S
H776 C801 0.930 . S
H777 C807 0.930 . S
O778 Co767 2.093 . S
O778 C770 1.224 . S
H779 C811 0.929 . S
H780 C813 0.930 . S
H781 C814 0.930 . S
H782 C812 0.929 . S
H783 C815 0.928 . S
O784 Co768 2.057 . S
O784 C772 1.232 . S
H785 C804 0.929 . S
H786 C805 0.929 . S
H787 C817 0.931 . S
H788 C809 0.929 . S
H789 C818 0.930 . S
H790 C810 0.931 . S
O791 Co767 2.097 . S
O791 C819 1.214 . S
H792 C820 0.929 . S
H793 C821 0.929 . S
H794 C822 0.930 . S
H795 C823 0.929 . S
H796 C825 0.930 . S
H797 C802 0.930 . S
H798 C806 0.930 . S
O799 Co768 2.037 . S
O799 C819 1.234 . S
C800 O774 1.269 . S
C800 O775 1.257 . S
C801 H776 0.930 . S
C801 C804 1.388 . S
C801 C806 1.418 . S
C802 H797 0.930 . S
C802 C805 1.404 . S
C802 C806 1.353 . S
N803 Co768 2.145 . S
N803 C804 1.397 . S
N803 C805 1.334 . S
C804 H785 0.929 . S
C804 C801 1.388 . S
C804 N803 1.397 . S
C805 H786 0.929 . S
C805 C802 1.404 . S
C805 N803 1.334 . S
C806 H798 0.930 . S
C806 C801 1.418 . S
C806 C802 1.353 . S
C807 H777 0.930 . S
C807 N808 1.330 . S
C807 C809 1.446 . S
N808 Co767 2.151 . S
N808 C807 1.330 . S
N808 C812 1.418 . S
C809 H788 0.929 . S
C809 C807 1.446 . S
C809 C810 1.332 . S
C810 H790 0.931 . S
C810 C809 1.332 . S
C810 C811 1.267 . S
C811 H779 0.929 . S
C811 C810 1.267 . S
C811 C812 1.251 . S
C812 H782 0.929 . S
C812 N808 1.418 . S
C812 C811 1.251 . S
C813 H780 0.930 . S
C813 C815 1.406 . S
C813 C818 1.261 . S
C814 H781 0.930 . S
C814 N816 1.325 . S
C814 C817 1.357 . S
C815 H783 0.928 . S
C815 C813 1.406 . S
C815 N816 1.261 . S
N816 Co767 2.214 . S
N816 C814 1.325 . S
N816 C815 1.261 . S
C817 H787 0.931 . S
C817 C814 1.357 . S
C817 C818 1.312 . S
C818 H789 0.930 . S
C818 C813 1.261 . S
C818 C817 1.312 . S
C819 O791 1.214 . S
C819 O799 1.234 . S
C820 H792 0.929 . S
C820 C823 1.391 . S
C820 C825 1.391 . S
C821 H793 0.929 . S
C821 C822 1.390 . S
C821 N824 1.391 . S
C822 H794 0.930 . S
C822 C821 1.390 . S
C822 C823 1.392 . S
C823 H795 0.929 . S
C823 C820 1.391 . S
C823 C822 1.392 . S
N824 Co768 2.257 . S
N824 C821 1.391 . S
N824 C825 1.388 . S
C825 H796 0.930 . S
C825 C820 1.391 . S
C825 N824 1.388 . S
Co826 O828 2.143 . S
Co826 O834 2.074 . S
Co826 O837 2.093 . S
Co826 O850 2.097 . S
Co826 N867 2.151 . S
Co826 N875 2.214 . S
Co827 O828 2.160 . S
Co827 O833 2.058 . S
Co827 O843 2.057 . S
Co827 O858 2.037 . S
Co827 N862 2.145 . S
Co827 N883 2.257 . S
O828 Co826 2.143 . S
O828 Co827 2.160 . S
C829 O830 1.278 . S
C829 O837 1.224 . S
O830 C829 1.278 . S
C831 O832 1.245 . S
C831 O843 1.232 . S
O832 C831 1.245 . S
O833 Co827 2.058 . S
O833 C859 1.269 . S
O834 Co826 2.074 . S
O834 C859 1.257 . S
H835 C860 0.930 . S
H836 C866 0.930 . S
O837 Co826 2.093 . S
O837 C829 1.224 . S
H838 C870 0.929 . S
H839 C872 0.930 . S
H840 C873 0.930 . S
H841 C871 0.929 . S
H842 C874 0.928 . S
O843 Co827 2.057 . S
O843 C831 1.232 . S
H844 C863 0.929 . S
H845 C864 0.929 . S
H846 C876 0.931 . S
H847 C868 0.929 . S
H848 C877 0.930 . S
H849 C869 0.931 . S
O850 Co826 2.097 . S
O850 C878 1.214 . S
H851 C879 0.929 . S
H852 C880 0.929 . S
H853 C881 0.930 . S
H854 C882 0.929 . S
H855 C884 0.930 . S
H856 C861 0.930 . S
H857 C865 0.930 . S
O858 Co827 2.037 . S
O858 C878 1.234 . S
C859 O833 1.269 . S
C859 O834 1.257 . S
C860 H835 0.930 . S
C860 C863 1.388 1_556 S
C860 C865 1.418 . S
C861 H856 0.930 . S
C861 C864 1.404 1_556 S
C861 C865 1.353 . S
N862 Co827 2.145 . S
N862 C863 1.397 . S
N862 C864 1.334 . S
C863 H844 0.929 . S
C863 C860 1.388 1_554 S
C863 N862 1.397 . S
C864 H845 0.929 . S
C864 C861 1.404 1_554 S
C864 N862 1.334 . S
C865 H857 0.930 . S
C865 C860 1.418 . S
C865 C861 1.353 . S
C866 H836 0.930 . S
C866 N867 1.330 . S
C866 C868 1.446 . S
N867 Co826 2.151 . S
N867 C866 1.330 . S
N867 C871 1.418 . S
C868 H847 0.929 . S
C868 C866 1.446 . S
C868 C869 1.332 . S
C869 H849 0.931 . S
C869 C868 1.332 . S
C869 C870 1.267 . S
C870 H838 0.929 . S
C870 C869 1.267 . S
C870 C871 1.251 . S
C871 H841 0.929 . S
C871 N867 1.418 . S
C871 C870 1.251 . S
C872 H839 0.930 . S
C872 C874 1.406 . S
C872 C877 1.261 . S
C873 H840 0.930 . S
C873 N875 1.325 . S
C873 C876 1.357 . S
C874 H842 0.928 . S
C874 C872 1.406 . S
C874 N875 1.261 . S
N875 Co826 2.214 . S
N875 C873 1.325 . S
N875 C874 1.261 . S
C876 H846 0.931 . S
C876 C873 1.357 . S
C876 C877 1.312 . S
C877 H848 0.930 . S
C877 C872 1.261 . S
C877 C876 1.312 . S
C878 O850 1.214 . S
C878 O858 1.234 . S
C879 H851 0.929 . S
C879 C882 1.391 . S
C879 C884 1.391 . S
C880 H852 0.929 . S
C880 C881 1.390 . S
C880 N883 1.391 . S
C881 H853 0.930 . S
C881 C880 1.390 . S
C881 C882 1.392 . S
C882 H854 0.929 . S
C882 C879 1.391 . S
C882 C881 1.392 . S
N883 Co827 2.257 . S
N883 C880 1.391 . S
N883 C884 1.388 . S
C884 H855 0.930 . S
C884 C879 1.391 . S
C884 N883 1.388 . S
Co885 O887 2.143 . S
Co885 O893 2.074 . S
Co885 O896 2.093 . S
Co885 O909 2.097 . S
Co885 N926 2.151 . S
Co885 N934 2.214 . S
Co886 O887 2.160 . S
Co886 O892 2.058 . S
Co886 O902 2.057 . S
Co886 O917 2.037 . S
Co886 N921 2.145 . S
Co886 N942 2.257 . S
O887 Co885 2.143 . S
O887 Co886 2.160 . S
C888 O889 1.278 . S
C888 O896 1.224 . S
O889 C888 1.278 . S
C890 O891 1.245 . S
C890 O902 1.232 . S
O891 C890 1.245 . S
O892 Co886 2.058 . S
O892 C918 1.269 . S
O893 Co885 2.074 . S
O893 C918 1.257 . S
H894 C919 0.930 . S
H895 C925 0.930 . S
O896 Co885 2.093 . S
O896 C888 1.224 . S
H897 C929 0.929 . S
H898 C931 0.930 . S
H899 C932 0.930 . S
H900 C930 0.929 . S
H901 C933 0.928 . S
O902 Co886 2.057 . S
O902 C890 1.232 . S
H903 C922 0.929 . S
H904 C923 0.929 . S
H905 C935 0.931 . S
H906 C927 0.929 . S
H907 C936 0.930 . S
H908 C928 0.931 . S
O909 Co885 2.097 . S
O909 C937 1.214 . S
H910 C938 0.929 . S
H911 C939 0.929 . S
H912 C940 0.930 . S
H913 C941 0.929 . S
H914 C943 0.930 . S
H915 C920 0.930 . S
H916 C924 0.930 . S
O917 Co886 2.037 . S
O917 C937 1.234 . S
C918 O892 1.269 . S
C918 O893 1.257 . S
C919 H894 0.930 . S
C919 C922 1.388 . S
C919 C924 1.418 . S
C920 H915 0.930 . S
C920 C923 1.404 . S
C920 C924 1.353 . S
N921 Co886 2.145 . S
N921 C922 1.397 . S
N921 C923 1.334 . S
C922 H903 0.929 . S
C922 C919 1.388 . S
C922 N921 1.397 . S
C923 H904 0.929 . S
C923 C920 1.404 . S
C923 N921 1.334 . S
C924 H916 0.930 . S
C924 C919 1.418 . S
C924 C920 1.353 . S
C925 H895 0.930 . S
C925 N926 1.330 . S
C925 C927 1.446 . S
N926 Co885 2.151 . S
N926 C925 1.330 . S
N926 C930 1.418 . S
C927 H906 0.929 . S
C927 C925 1.446 . S
C927 C928 1.332 . S
C928 H908 0.931 . S
C928 C927 1.332 . S
C928 C929 1.267 . S
C929 H897 0.929 . S
C929 C928 1.267 . S
C929 C930 1.251 . S
C930 H900 0.929 . S
C930 N926 1.418 . S
C930 C929 1.251 . S
C931 H898 0.930 . S
C931 C933 1.406 . S
C931 C936 1.261 . S
C932 H899 0.930 . S
C932 N934 1.325 . S
C932 C935 1.357 . S
C933 H901 0.928 . S
C933 C931 1.406 . S
C933 N934 1.261 . S
N934 Co885 2.214 . S
N934 C932 1.325 . S
N934 C933 1.261 . S
C935 H905 0.931 . S
C935 C932 1.357 . S
C935 C936 1.312 . S
C936 H907 0.930 . S
C936 C931 1.261 . S
C936 C935 1.312 . S
C937 O909 1.214 . S
C937 O917 1.234 . S
C938 H910 0.929 . S
C938 C941 1.391 . S
C938 C943 1.391 . S
C939 H911 0.929 . S
C939 C940 1.390 . S
C939 N942 1.391 . S
C940 H912 0.930 . S
C940 C939 1.390 . S
C940 C941 1.392 . S
C941 H913 0.929 . S
C941 C938 1.391 . S
C941 C940 1.392 . S
N942 Co886 2.257 . S
N942 C939 1.391 . S
N942 C943 1.388 . S
C943 H914 0.930 . S
C943 C938 1.391 . S
C943 N942 1.388 . S
C944 C945 1.349 . S
C944 C946 1.327 . S
C944 H969 0.950 . S
C945 C944 1.349 . S
C945 C961 1.349 . S
C946 C944 1.327 . S
C946 C965 1.429 . S
C946 H970 0.950 . S
C947 C964 1.574 1_455 S
C947 C966 1.368 . S
C947 H971 0.949 . S
H948 C952 0.949 . S
C949 C950 1.349 . S
C949 C951 1.327 . S
C949 H972 0.950 . S
C950 C949 1.349 . S
C950 C962 1.349 . S
C951 C949 1.327 . S
C951 C967 1.429 . S
C951 H973 0.950 . S
C952 H948 0.949 . S
C952 C960 1.574 1_655 S
C952 C968 1.368 . S
H953 C961 0.950 . S
H954 C959 0.950 . S
H955 C960 0.949 . S
H956 C962 0.950 . S
H957 C963 0.950 . S
H958 C964 0.949 . S
C959 H954 0.950 . S
C959 C961 1.327 . S
C959 C965 1.429 . S
C960 C952 1.574 1_455 S
C960 H955 0.949 . S
C960 C966 1.368 . S
C961 C945 1.349 . S
C961 H953 0.950 . S
C961 C959 1.327 . S
C962 C950 1.349 . S
C962 H956 0.950 . S
C962 C963 1.327 . S
C963 H957 0.950 . S
C963 C962 1.327 . S
C963 C967 1.429 . S
C964 C947 1.574 1_655 S
C964 H958 0.949 . S
C964 C968 1.368 . S
C965 C946 1.429 . S
C965 C959 1.429 . S
C965 C966 1.523 . S
C966 C947 1.368 . S
C966 C960 1.368 . S
C966 C965 1.523 . S
C967 C951 1.429 . S
C967 C963 1.429 . S
C967 C968 1.523 . S
C968 C952 1.368 . S
C968 C964 1.368 . S
C968 C967 1.523 . S
H969 C944 0.950 . S
H970 C946 0.950 . S
H971 C947 0.949 . S
H972 C949 0.950 . S
H973 C951 0.950 . S
C974 C975 1.349 . S
C974 C976 1.327 . S
C974 H999 0.950 . S
C975 C974 1.349 . S
C975 C991 1.349 . S
C976 C974 1.327 . S
C976 C995 1.429 . S
C976 H1000 0.950 . S
C977 C994 1.574 1_655 S
C977 C996 1.368 . S
C977 H1001 0.949 . S
H978 C982 0.949 . S
C979 C980 1.349 . S
C979 C981 1.327 . S
C979 H1002 0.950 . S
C980 C979 1.349 . S
C980 C992 1.349 . S
C981 C979 1.327 . S
C981 C997 1.429 . S
C981 H1003 0.950 . S
C982 H978 0.949 . S
C982 C990 1.574 1_455 S
C982 C998 1.368 . S
H983 C991 0.950 . S
H984 C989 0.950 . S
H985 C990 0.949 . S
H986 C992 0.950 . S
H987 C993 0.950 . S
H988 C994 0.949 . S
C989 H984 0.950 . S
C989 C991 1.327 . S
C989 C995 1.429 . S
C990 C982 1.574 1_655 S
C990 H985 0.949 . S
C990 C996 1.368 . S
C991 C975 1.349 . S
C991 H983 0.950 . S
C991 C989 1.327 . S
C992 C980 1.349 . S
C992 H986 0.950 . S
C992 C993 1.327 . S
C993 H987 0.950 . S
C993 C992 1.327 . S
C993 C997 1.429 . S
C994 C977 1.574 1_455 S
C994 H988 0.949 . S
C994 C998 1.368 . S
C995 C976 1.429 . S
C995 C989 1.429 . S
C995 C996 1.523 . S
C996 C977 1.368 . S
C996 C990 1.368 . S
C996 C995 1.523 . S
C997 C981 1.429 . S
C997 C993 1.429 . S
C997 C998 1.523 . S
C998 C982 1.368 . S
C998 C994 1.368 . S
C998 C997 1.523 . S
H999 C974 0.950 . S
H1000 C976 0.950 . S
H1001 C977 0.949 . S
H1002 C979 0.950 . S
H1003 C981 0.950 . S
C1004 C1005 1.349 . S
C1004 C1006 1.327 . S
C1004 H1029 0.950 . S
C1005 C1004 1.349 . S
C1005 C1021 1.349 . S
C1006 C1004 1.327 . S
C1006 C1025 1.429 . S
C1006 H1030 0.950 . S
C1007 C1024 1.574 1_655 S
C1007 C1026 1.368 . S
C1007 H1031 0.949 . S
H1008 C1012 0.949 . S
C1009 C1010 1.349 . S
C1009 C1011 1.327 . S
C1009 H1032 0.950 . S
C1010 C1009 1.349 . S
C1010 C1022 1.349 . S
C1011 C1009 1.327 . S
C1011 C1027 1.429 . S
C1011 H1033 0.950 . S
C1012 H1008 0.949 . S
C1012 C1020 1.574 1_455 S
C1012 C1028 1.368 . S
H1013 C1021 0.950 . S
H1014 C1019 0.950 . S
H1015 C1020 0.949 . S
H1016 C1022 0.950 . S
H1017 C1023 0.950 . S
H1018 C1024 0.949 . S
C1019 H1014 0.950 . S
C1019 C1021 1.327 . S
C1019 C1025 1.429 . S
C1020 C1012 1.574 1_655 S
C1020 H1015 0.949 . S
C1020 C1026 1.368 . S
C1021 C1005 1.349 . S
C1021 H1013 0.950 . S
C1021 C1019 1.327 . S
C1022 C1010 1.349 . S
C1022 H1016 0.950 . S
C1022 C1023 1.327 . S
C1023 H1017 0.950 . S
C1023 C1022 1.327 . S
C1023 C1027 1.429 . S
C1024 C1007 1.574 1_455 S
C1024 H1018 0.949 . S
C1024 C1028 1.368 . S
C1025 C1006 1.429 . S
C1025 C1019 1.429 . S
C1025 C1026 1.523 . S
C1026 C1007 1.368 . S
C1026 C1020 1.368 . S
C1026 C1025 1.523 . S
C1027 C1011 1.429 . S
C1027 C1023 1.429 . S
C1027 C1028 1.523 . S
C1028 C1012 1.368 . S
C1028 C1024 1.368 . S
C1028 C1027 1.523 . S
H1029 C1004 0.950 . S
H1030 C1006 0.950 . S
H1031 C1007 0.949 . S
H1032 C1009 0.950 . S
H1033 C1011 0.950 . S
C1034 C1035 1.349 . S
C1034 C1036 1.327 . S
C1034 H1059 0.950 . S
C1035 C1034 1.349 . S
C1035 C1051 1.349 . S
C1036 C1034 1.327 . S
C1036 C1055 1.429 . S
C1036 H1060 0.950 . S
C1037 C1054 1.574 1_455 S
C1037 C1056 1.368 . S
C1037 H1061 0.949 . S
H1038 C1042 0.949 . S
C1039 C1040 1.349 . S
C1039 C1041 1.327 . S
C1039 H1062 0.950 . S
C1040 C1039 1.349 . S
C1040 C1052 1.349 . S
C1041 C1039 1.327 . S
C1041 C1057 1.429 . S
C1041 H1063 0.950 . S
C1042 H1038 0.949 . S
C1042 C1050 1.574 1_655 S
C1042 C1058 1.368 . S
H1043 C1051 0.950 . S
H1044 C1049 0.950 . S
H1045 C1050 0.949 . S
H1046 C1052 0.950 . S
H1047 C1053 0.950 . S
H1048 C1054 0.949 . S
C1049 H1044 0.950 . S
C1049 C1051 1.327 . S
C1049 C1055 1.429 . S
C1050 C1042 1.574 1_455 S
C1050 H1045 0.949 . S
C1050 C1056 1.368 . S
C1051 C1035 1.349 . S
C1051 H1043 0.950 . S
C1051 C1049 1.327 . S
C1052 C1040 1.349 . S
C1052 H1046 0.950 . S
C1052 C1053 1.327 . S
C1053 H1047 0.950 . S
C1053 C1052 1.327 . S
C1053 C1057 1.429 . S
C1054 C1037 1.574 1_655 S
C1054 H1048 0.949 . S
C1054 C1058 1.368 . S
C1055 C1036 1.429 . S
C1055 C1049 1.429 . S
C1055 C1056 1.523 . S
C1056 C1037 1.368 . S
C1056 C1050 1.368 . S
C1056 C1055 1.523 . S
C1057 C1041 1.429 . S
C1057 C1053 1.429 . S
C1057 C1058 1.523 . S
C1058 C1042 1.368 . S
C1058 C1054 1.368 . S
C1058 C1057 1.523 . S
H1059 C1034 0.950 . S
H1060 C1036 0.950 . S
H1061 C1037 0.949 . S
H1062 C1039 0.950 . S
H1063 C1041 0.950 . S
C1064 C1065 1.349 . S
C1064 C1066 1.327 . S
C1064 H1089 0.950 . S
C1065 C1064 1.349 . S
C1065 C1081 1.349 . S
C1066 C1064 1.327 . S
C1066 C1085 1.429 . S
C1066 H1090 0.950 . S
C1067 C1084 1.574 . S
C1067 C1086 1.368 . S
C1067 H1091 0.949 . S
H1068 C1072 0.949 . S
C1069 C1070 1.349 . S
C1069 C1071 1.327 . S
C1069 H1092 0.950 . S
C1070 C1069 1.349 . S
C1070 C1082 1.349 . S
C1071 C1069 1.327 . S
C1071 C1087 1.429 . S
C1071 H1093 0.950 . S
C1072 H1068 0.949 . S
C1072 C1080 1.574 . S
C1072 C1088 1.368 . S
H1073 C1081 0.950 . S
H1074 C1079 0.950 . S
H1075 C1080 0.949 . S
H1076 C1082 0.950 . S
H1077 C1083 0.950 . S
H1078 C1084 0.949 . S
C1079 H1074 0.950 . S
C1079 C1081 1.327 . S
C1079 C1085 1.429 . S
C1080 C1072 1.574 . S
C1080 H1075 0.949 . S
C1080 C1086 1.368 . S
C1081 C1065 1.349 . S
C1081 H1073 0.950 . S
C1081 C1079 1.327 . S
C1082 C1070 1.349 . S
C1082 H1076 0.950 . S
C1082 C1083 1.327 . S
C1083 H1077 0.950 . S
C1083 C1082 1.327 . S
C1083 C1087 1.429 . S
C1084 C1067 1.574 . S
C1084 H1078 0.949 . S
C1084 C1088 1.368 . S
C1085 C1066 1.429 . S
C1085 C1079 1.429 . S
C1085 C1086 1.523 . S
C1086 C1067 1.368 . S
C1086 C1080 1.368 . S
C1086 C1085 1.523 . S
C1087 C1071 1.429 . S
C1087 C1083 1.429 . S
C1087 C1088 1.523 . S
C1088 C1072 1.368 . S
C1088 C1084 1.368 . S
C1088 C1087 1.523 . S
H1089 C1064 0.950 . S
H1090 C1066 0.950 . S
H1091 C1067 0.949 . S
H1092 C1069 0.950 . S
H1093 C1071 0.950 . S
C1094 C1095 1.349 . S
C1094 C1096 1.327 . S
C1094 H1119 0.950 . S
C1095 C1094 1.349 . S
C1095 C1111 1.349 . S
C1096 C1094 1.327 . S
C1096 C1115 1.429 . S
C1096 H1120 0.950 . S
C1097 C1114 1.574 . S
C1097 C1116 1.368 . S
C1097 H1121 0.949 . S
H1098 C1102 0.949 . S
C1099 C1100 1.349 . S
C1099 C1101 1.327 . S
C1099 H1122 0.950 . S
C1100 C1099 1.349 . S
C1100 C1112 1.349 . S
C1101 C1099 1.327 . S
C1101 C1117 1.429 . S
C1101 H1123 0.950 . S
C1102 H1098 0.949 . S
C1102 C1110 1.574 . S
C1102 C1118 1.368 . S
H1103 C1111 0.950 . S
H1104 C1109 0.950 . S
H1105 C1110 0.949 . S
H1106 C1112 0.950 . S
H1107 C1113 0.950 . S
H1108 C1114 0.949 . S
C1109 H1104 0.950 . S
C1109 C1111 1.327 . S
C1109 C1115 1.429 . S
C1110 C1102 1.574 . S
C1110 H1105 0.949 . S
C1110 C1116 1.368 . S
C1111 C1095 1.349 . S
C1111 H1103 0.950 . S
C1111 C1109 1.327 . S
C1112 C1100 1.349 . S
C1112 H1106 0.950 . S
C1112 C1113 1.327 . S
C1113 H1107 0.950 . S
C1113 C1112 1.327 . S
C1113 C1117 1.429 . S
C1114 C1097 1.574 . S
C1114 H1108 0.949 . S
C1114 C1118 1.368 . S
C1115 C1096 1.429 . S
C1115 C1109 1.429 . S
C1115 C1116 1.523 . S
C1116 C1097 1.368 . S
C1116 C1110 1.368 . S
C1116 C1115 1.523 . S
C1117 C1101 1.429 . S
C1117 C1113 1.429 . S
C1117 C1118 1.523 . S
C1118 C1102 1.368 . S
C1118 C1114 1.368 . S
C1118 C1117 1.523 . S
H1119 C1094 0.950 . S
H1120 C1096 0.950 . S
H1121 C1097 0.949 . S
H1122 C1099 0.950 . S
H1123 C1101 0.950 . S
C1124 C1125 1.349 . S
C1124 C1126 1.327 . S
C1124 H1149 0.950 . S
C1125 C1124 1.349 . S
C1125 C1141 1.349 . S
C1126 C1124 1.327 . S
C1126 C1145 1.429 . S
C1126 H1150 0.950 . S
C1127 C1144 1.574 . S
C1127 C1146 1.368 . S
C1127 H1151 0.949 . S
H1128 C1132 0.949 . S
C1129 C1130 1.349 . S
C1129 C1131 1.327 . S
C1129 H1152 0.950 . S
C1130 C1129 1.349 . S
C1130 C1142 1.349 . S
C1131 C1129 1.327 . S
C1131 C1147 1.429 . S
C1131 H1153 0.950 . S
C1132 H1128 0.949 . S
C1132 C1140 1.574 . S
C1132 C1148 1.368 . S
H1133 C1141 0.950 . S
H1134 C1139 0.950 . S
H1135 C1140 0.949 . S
H1136 C1142 0.950 . S
H1137 C1143 0.950 . S
H1138 C1144 0.949 . S
C1139 H1134 0.950 . S
C1139 C1141 1.327 . S
C1139 C1145 1.429 . S
C1140 C1132 1.574 . S
C1140 H1135 0.949 . S
C1140 C1146 1.368 . S
C1141 C1125 1.349 . S
C1141 H1133 0.950 . S
C1141 C1139 1.327 . S
C1142 C1130 1.349 . S
C1142 H1136 0.950 . S
C1142 C1143 1.327 . S
C1143 H1137 0.950 . S
C1143 C1142 1.327 . S
C1143 C1147 1.429 . S
C1144 C1127 1.574 . S
C1144 H1138 0.949 . S
C1144 C1148 1.368 . S
C1145 C1126 1.429 . S
C1145 C1139 1.429 . S
C1145 C1146 1.523 . S
C1146 C1127 1.368 . S
C1146 C1140 1.368 . S
C1146 C1145 1.523 . S
C1147 C1131 1.429 . S
C1147 C1143 1.429 . S
C1147 C1148 1.523 . S
C1148 C1132 1.368 . S
C1148 C1144 1.368 . S
C1148 C1147 1.523 . S
H1149 C1124 0.950 . S
H1150 C1126 0.950 . S
H1151 C1127 0.949 . S
H1152 C1129 0.950 . S
H1153 C1131 0.950 . S
C1154 C1155 1.349 . S
C1154 C1156 1.327 . S
C1154 H1179 0.950 . S
C1155 C1154 1.349 . S
C1155 C1171 1.349 . S
C1156 C1154 1.327 . S
C1156 C1175 1.429 . S
C1156 H1180 0.950 . S
C1157 C1174 1.574 . S
C1157 C1176 1.368 . S
C1157 H1181 0.949 . S
H1158 C1162 0.949 . S
C1159 C1160 1.349 . S
C1159 C1161 1.327 . S
C1159 H1182 0.950 . S
C1160 C1159 1.349 . S
C1160 C1172 1.349 . S
C1161 C1159 1.327 . S
C1161 C1177 1.429 . S
C1161 H1183 0.950 . S
C1162 H1158 0.949 . S
C1162 C1170 1.574 . S
C1162 C1178 1.368 . S
H1163 C1171 0.950 . S
H1164 C1169 0.950 . S
H1165 C1170 0.949 . S
H1166 C1172 0.950 . S
H1167 C1173 0.950 . S
H1168 C1174 0.949 . S
C1169 H1164 0.950 . S
C1169 C1171 1.327 . S
C1169 C1175 1.429 . S
C1170 C1162 1.574 . S
C1170 H1165 0.949 . S
C1170 C1176 1.368 . S
C1171 C1155 1.349 . S
C1171 H1163 0.950 . S
C1171 C1169 1.327 . S
C1172 C1160 1.349 . S
C1172 H1166 0.950 . S
C1172 C1173 1.327 . S
C1173 H1167 0.950 . S
C1173 C1172 1.327 . S
C1173 C1177 1.429 . S
C1174 C1157 1.574 . S
C1174 H1168 0.949 . S
C1174 C1178 1.368 . S
C1175 C1156 1.429 . S
C1175 C1169 1.429 . S
C1175 C1176 1.523 . S
C1176 C1157 1.368 . S
C1176 C1170 1.368 . S
C1176 C1175 1.523 . S
C1177 C1161 1.429 . S
C1177 C1173 1.429 . S
C1177 C1178 1.523 . S
C1178 C1162 1.368 . S
C1178 C1174 1.368 . S
C1178 C1177 1.523 . S
H1179 C1154 0.950 . S
H1180 C1156 0.950 . S
H1181 C1157 0.949 . S
H1182 C1159 0.950 . S
H1183 C1161 0.950 . S
C1184 C1185 1.349 . S
C1184 C1186 1.327 . S
C1184 H1209 0.950 . S
C1185 C1184 1.349 . S
C1185 C1201 1.349 . S
C1186 C1184 1.327 . S
C1186 C1205 1.429 . S
C1186 H1210 0.950 . S
C1187 C1204 1.574 . S
C1187 C1206 1.368 . S
C1187 H1211 0.949 . S
H1188 C1192 0.949 . S
C1189 C1190 1.349 . S
C1189 C1191 1.327 . S
C1189 H1212 0.950 . S
C1190 C1189 1.349 . S
C1190 C1202 1.349 . S
C1191 C1189 1.327 . S
C1191 C1207 1.429 . S
C1191 H1213 0.950 . S
C1192 H1188 0.949 . S
C1192 C1200 1.574 . S
C1192 C1208 1.368 . S
H1193 C1201 0.950 . S
H1194 C1199 0.950 . S
H1195 C1200 0.949 . S
H1196 C1202 0.950 . S
H1197 C1203 0.950 . S
H1198 C1204 0.949 . S
C1199 H1194 0.950 . S
C1199 C1201 1.327 . S
C1199 C1205 1.429 . S
C1200 C1192 1.574 . S
C1200 H1195 0.949 . S
C1200 C1206 1.368 . S
C1201 C1185 1.349 . S
C1201 H1193 0.950 . S
C1201 C1199 1.327 . S
C1202 C1190 1.349 . S
C1202 H1196 0.950 . S
C1202 C1203 1.327 . S
C1203 H1197 0.950 . S
C1203 C1202 1.327 . S
C1203 C1207 1.429 . S
C1204 C1187 1.574 . S
C1204 H1198 0.949 . S
C1204 C1208 1.368 . S
C1205 C1186 1.429 . S
C1205 C1199 1.429 . S
C1205 C1206 1.523 . S
C1206 C1187 1.368 . S
C1206 C1200 1.368 . S
C1206 C1205 1.523 . S
C1207 C1191 1.429 . S
C1207 C1203 1.429 . S
C1207 C1208 1.523 . S
C1208 C1192 1.368 . S
C1208 C1204 1.368 . S
C1208 C1207 1.523 . S
H1209 C1184 0.950 . S
H1210 C1186 0.950 . S
H1211 C1187 0.949 . S
H1212 C1189 0.950 . S
H1213 C1191 0.950 . S
C1214 C1215 1.349 . S
C1214 C1216 1.327 . S
C1214 H1239 0.950 . S
C1215 C1214 1.349 . S
C1215 C1231 1.349 . S
C1216 C1214 1.327 . S
C1216 C1235 1.429 . S
C1216 H1240 0.950 . S
C1217 C1234 1.574 . S
C1217 C1236 1.368 . S
C1217 H1241 0.949 . S
H1218 C1222 0.949 . S
C1219 C1220 1.349 . S
C1219 C1221 1.327 . S
C1219 H1242 0.950 . S
C1220 C1219 1.349 . S
C1220 C1232 1.349 . S
C1221 C1219 1.327 . S
C1221 C1237 1.429 . S
C1221 H1243 0.950 . S
C1222 H1218 0.949 . S
C1222 C1230 1.574 . S
C1222 C1238 1.368 . S
H1223 C1231 0.950 . S
H1224 C1229 0.950 . S
H1225 C1230 0.949 . S
H1226 C1232 0.950 . S
H1227 C1233 0.950 . S
H1228 C1234 0.949 . S
C1229 H1224 0.950 . S
C1229 C1231 1.327 . S
C1229 C1235 1.429 . S
C1230 C1222 1.574 . S
C1230 H1225 0.949 . S
C1230 C1236 1.368 . S
C1231 C1215 1.349 . S
C1231 H1223 0.950 . S
C1231 C1229 1.327 . S
C1232 C1220 1.349 . S
C1232 H1226 0.950 . S
C1232 C1233 1.327 . S
C1233 H1227 0.950 . S
C1233 C1232 1.327 . S
C1233 C1237 1.429 . S
C1234 C1217 1.574 . S
C1234 H1228 0.949 . S
C1234 C1238 1.368 . S
C1235 C1216 1.429 . S
C1235 C1229 1.429 . S
C1235 C1236 1.523 . S
C1236 C1217 1.368 . S
C1236 C1230 1.368 . S
C1236 C1235 1.523 . S
C1237 C1221 1.429 . S
C1237 C1233 1.429 . S
C1237 C1238 1.523 . S
C1238 C1222 1.368 . S
C1238 C1234 1.368 . S
C1238 C1237 1.523 . S
H1239 C1214 0.950 . S
H1240 C1216 0.950 . S
H1241 C1217 0.949 . S
H1242 C1219 0.950 . S
H1243 C1221 0.950 . S
C1244 C1245 1.349 . S
C1244 C1246 1.327 . S
C1244 H1269 0.950 . S
C1245 C1244 1.349 . S
C1245 C1261 1.349 . S
C1246 C1244 1.327 . S
C1246 C1265 1.429 . S
C1246 H1270 0.950 . S
C1247 C1264 1.574 . S
C1247 C1266 1.368 . S
C1247 H1271 0.949 . S
H1248 C1252 0.949 . S
C1249 C1250 1.349 . S
C1249 C1251 1.327 . S
C1249 H1272 0.950 . S
C1250 C1249 1.349 . S
C1250 C1262 1.349 . S
C1251 C1249 1.327 . S
C1251 C1267 1.429 . S
C1251 H1273 0.950 . S
C1252 H1248 0.949 . S
C1252 C1260 1.574 . S
C1252 C1268 1.368 . S
H1253 C1261 0.950 . S
H1254 C1259 0.950 . S
H1255 C1260 0.949 . S
H1256 C1262 0.950 . S
H1257 C1263 0.950 . S
H1258 C1264 0.949 . S
C1259 H1254 0.950 . S
C1259 C1261 1.327 . S
C1259 C1265 1.429 . S
C1260 C1252 1.574 . S
C1260 H1255 0.949 . S
C1260 C1266 1.368 . S
C1261 C1245 1.349 . S
C1261 H1253 0.950 . S
C1261 C1259 1.327 . S
C1262 C1250 1.349 . S
C1262 H1256 0.950 . S
C1262 C1263 1.327 . S
C1263 H1257 0.950 . S
C1263 C1262 1.327 . S
C1263 C1267 1.429 . S
C1264 C1247 1.574 . S
C1264 H1258 0.949 . S
C1264 C1268 1.368 . S
C1265 C1246 1.429 . S
C1265 C1259 1.429 . S
C1265 C1266 1.523 . S
C1266 C1247 1.368 . S
C1266 C1260 1.368 . S
C1266 C1265 1.523 . S
C1267 C1251 1.429 . S
C1267 C1263 1.429 . S
C1267 C1268 1.523 . S
C1268 C1252 1.368 . S
C1268 C1264 1.368 . S
C1268 C1267 1.523 . S
H1269 C1244 0.950 . S
H1270 C1246 0.950 . S
H1271 C1247 0.949 . S
H1272 C1249 0.950 . S
H1273 C1251 0.950 . S
C1274 C1275 1.349 . S
C1274 C1276 1.327 . S
C1274 H1299 0.950 . S
C1275 C1274 1.349 . S
C1275 C1291 1.349 . S
C1276 C1274 1.327 . S
C1276 C1295 1.429 . S
C1276 H1300 0.950 . S
C1277 C1294 1.574 . S
C1277 C1296 1.368 . S
C1277 H1301 0.949 . S
H1278 C1282 0.949 . S
C1279 C1280 1.349 . S
C1279 C1281 1.327 . S
C1279 H1302 0.950 . S
C1280 C1279 1.349 . S
C1280 C1292 1.349 . S
C1281 C1279 1.327 . S
C1281 C1297 1.429 . S
C1281 H1303 0.950 . S
C1282 H1278 0.949 . S
C1282 C1290 1.574 . S
C1282 C1298 1.368 . S
H1283 C1291 0.950 . S
H1284 C1289 0.950 . S
H1285 C1290 0.949 . S
H1286 C1292 0.950 . S
H1287 C1293 0.950 . S
H1288 C1294 0.949 . S
C1289 H1284 0.950 . S
C1289 C1291 1.327 . S
C1289 C1295 1.429 . S
C1290 C1282 1.574 . S
C1290 H1285 0.949 . S
C1290 C1296 1.368 . S
C1291 C1275 1.349 . S
C1291 H1283 0.950 . S
C1291 C1289 1.327 . S
C1292 C1280 1.349 . S
C1292 H1286 0.950 . S
C1292 C1293 1.327 . S
C1293 H1287 0.950 . S
C1293 C1292 1.327 . S
C1293 C1297 1.429 . S
C1294 C1277 1.574 . S
C1294 H1288 0.949 . S
C1294 C1298 1.368 . S
C1295 C1276 1.429 . S
C1295 C1289 1.429 . S
C1295 C1296 1.523 . S
C1296 C1277 1.368 . S
C1296 C1290 1.368 . S
C1296 C1295 1.523 . S
C1297 C1281 1.429 . S
C1297 C1293 1.429 . S
C1297 C1298 1.523 . S
C1298 C1282 1.368 . S
C1298 C1294 1.368 . S
C1298 C1297 1.523 . S
H1299 C1274 0.950 . S
H1300 C1276 0.950 . S
H1301 C1277 0.949 . S
H1302 C1279 0.950 . S
H1303 C1281 0.950 . S
C1304 C1305 1.349 . S
C1304 C1306 1.327 . S
C1304 H1329 0.950 . S
C1305 C1304 1.349 . S
C1305 C1321 1.349 . S
C1306 C1304 1.327 . S
C1306 C1325 1.429 . S
C1306 H1330 0.950 . S
C1307 C1324 1.574 . S
C1307 C1326 1.368 . S
C1307 H1331 0.949 . S
H1308 C1312 0.949 . S
C1309 C1310 1.349 . S
C1309 C1311 1.327 . S
C1309 H1332 0.950 . S
C1310 C1309 1.349 . S
C1310 C1322 1.349 . S
C1311 C1309 1.327 . S
C1311 C1327 1.429 . S
C1311 H1333 0.950 . S
C1312 H1308 0.949 . S
C1312 C1320 1.574 . S
C1312 C1328 1.368 . S
H1313 C1321 0.950 . S
H1314 C1319 0.950 . S
H1315 C1320 0.949 . S
H1316 C1322 0.950 . S
H1317 C1323 0.950 . S
H1318 C1324 0.949 . S
C1319 H1314 0.950 . S
C1319 C1321 1.327 . S
C1319 C1325 1.429 . S
C1320 C1312 1.574 . S
C1320 H1315 0.949 . S
C1320 C1326 1.368 . S
C1321 C1305 1.349 . S
C1321 H1313 0.950 . S
C1321 C1319 1.327 . S
C1322 C1310 1.349 . S
C1322 H1316 0.950 . S
C1322 C1323 1.327 . S
C1323 H1317 0.950 . S
C1323 C1322 1.327 . S
C1323 C1327 1.429 . S
C1324 C1307 1.574 . S
C1324 H1318 0.949 . S
C1324 C1328 1.368 . S
C1325 C1306 1.429 . S
C1325 C1319 1.429 . S
C1325 C1326 1.523 . S
C1326 C1307 1.368 . S
C1326 C1320 1.368 . S
C1326 C1325 1.523 . S
C1327 C1311 1.429 . S
C1327 C1323 1.429 . S
C1327 C1328 1.523 . S
C1328 C1312 1.368 . S
C1328 C1324 1.368 . S
C1328 C1327 1.523 . S
H1329 C1304 0.950 . S
H1330 C1306 0.950 . S
H1331 C1307 0.949 . S
H1332 C1309 0.950 . S
H1333 C1311 0.950 . S
C1334 C1335 1.349 . S
C1334 C1336 1.327 . S
C1334 H1359 0.950 . S
C1335 C1334 1.349 . S
C1335 C1351 1.349 . S
C1336 C1334 1.327 . S
C1336 C1355 1.429 . S
C1336 H1360 0.950 . S
C1337 C1354 1.574 . S
C1337 C1356 1.368 . S
C1337 H1361 0.949 . S
H1338 C1342 0.949 . S
C1339 C1340 1.349 . S
C1339 C1341 1.327 . S
C1339 H1362 0.950 . S
C1340 C1339 1.349 . S
C1340 C1352 1.349 . S
C1341 C1339 1.327 . S
C1341 C1357 1.429 . S
C1341 H1363 0.950 . S
C1342 H1338 0.949 . S
C1342 C1350 1.574 . S
C1342 C1358 1.368 . S
H1343 C1351 0.950 . S
H1344 C1349 0.950 . S
H1345 C1350 0.949 . S
H1346 C1352 0.950 . S
H1347 C1353 0.950 . S
H1348 C1354 0.949 . S
C1349 H1344 0.950 . S
C1349 C1351 1.327 . S
C1349 C1355 1.429 . S
C1350 C1342 1.574 . S
C1350 H1345 0.949 . S
C1350 C1356 1.368 . S
C1351 C1335 1.349 . S
C1351 H1343 0.950 . S
C1351 C1349 1.327 . S
C1352 C1340 1.349 . S
C1352 H1346 0.950 . S
C1352 C1353 1.327 . S
C1353 H1347 0.950 . S
C1353 C1352 1.327 . S
C1353 C1357 1.429 . S
C1354 C1337 1.574 . S
C1354 H1348 0.949 . S
C1354 C1358 1.368 . S
C1355 C1336 1.429 . S
C1355 C1349 1.429 . S
C1355 C1356 1.523 . S
C1356 C1337 1.368 . S
C1356 C1350 1.368 . S
C1356 C1355 1.523 . S
C1357 C1341 1.429 . S
C1357 C1353 1.429 . S
C1357 C1358 1.523 . S
C1358 C1342 1.368 . S
C1358 C1354 1.368 . S
C1358 C1357 1.523 . S
H1359 C1334 0.950 . S
H1360 C1336 0.950 . S
H1361 C1337 0.949 . S
H1362 C1339 0.950 . S
H1363 C1341 0.950 . S
C1364 C1365 1.349 . S
C1364 C1366 1.327 . S
C1364 H1389 0.950 . S
C1365 C1364 1.349 . S
C1365 C1381 1.349 . S
C1366 C1364 1.327 . S
C1366 C1385 1.429 . S
C1366 H1390 0.950 . S
C1367 C1384 1.574 . S
C1367 C1386 1.368 . S
C1367 H1391 0.949 . S
H1368 C1372 0.949 . S
C1369 C1370 1.349 . S
C1369 C1371 1.327 . S
C1369 H1392 0.950 . S
C1370 C1369 1.349 . S
C1370 C1382 1.349 . S
C1371 C1369 1.327 . S
C1371 C1387 1.429 . S
C1371 H1393 0.950 . S
C1372 H1368 0.949 . S
C1372 C1380 1.574 . S
C1372 C1388 1.368 . S
H1373 C1381 0.950 . S
H1374 C1379 0.950 . S
H1375 C1380 0.949 . S
H1376 C1382 0.950 . S
H1377 C1383 0.950 . S
H1378 C1384 0.949 . S
C1379 H1374 0.950 . S
C1379 C1381 1.327 . S
C1379 C1385 1.429 . S
C1380 C1372 1.574 . S
C1380 H1375 0.949 . S
C1380 C1386 1.368 . S
C1381 C1365 1.349 . S
C1381 H1373 0.950 . S
C1381 C1379 1.327 . S
C1382 C1370 1.349 . S
C1382 H1376 0.950 . S
C1382 C1383 1.327 . S
C1383 H1377 0.950 . S
C1383 C1382 1.327 . S
C1383 C1387 1.429 . S
C1384 C1367 1.574 . S
C1384 H1378 0.949 . S
C1384 C1388 1.368 . S
C1385 C1366 1.429 . S
C1385 C1379 1.429 . S
C1385 C1386 1.523 . S
C1386 C1367 1.368 . S
C1386 C1380 1.368 . S
C1386 C1385 1.523 . S
C1387 C1371 1.429 . S
C1387 C1383 1.429 . S
C1387 C1388 1.523 . S
C1388 C1372 1.368 . S
C1388 C1384 1.368 . S
C1388 C1387 1.523 . S
H1389 C1364 0.950 . S
H1390 C1366 0.950 . S
H1391 C1367 0.949 . S
H1392 C1369 0.950 . S
H1393 C1371 0.950 . S
C1394 C1395 1.349 . S
C1394 C1396 1.327 . S
C1394 H1419 0.950 . S
C1395 C1394 1.349 . S
C1395 C1411 1.349 . S
C1396 C1394 1.327 . S
C1396 C1415 1.429 . S
C1396 H1420 0.950 . S
C1397 C1414 1.574 . S
C1397 C1416 1.368 . S
C1397 H1421 0.949 . S
H1398 C1402 0.949 . S
C1399 C1400 1.349 . S
C1399 C1401 1.327 . S
C1399 H1422 0.950 . S
C1400 C1399 1.349 . S
C1400 C1412 1.349 . S
C1401 C1399 1.327 . S
C1401 C1417 1.429 . S
C1401 H1423 0.950 . S
C1402 H1398 0.949 . S
C1402 C1410 1.574 . S
C1402 C1418 1.368 . S
H1403 C1411 0.950 . S
H1404 C1409 0.950 . S
H1405 C1410 0.949 . S
H1406 C1412 0.950 . S
H1407 C1413 0.950 . S
H1408 C1414 0.949 . S
C1409 H1404 0.950 . S
C1409 C1411 1.327 . S
C1409 C1415 1.429 . S
C1410 C1402 1.574 . S
C1410 H1405 0.949 . S
C1410 C1416 1.368 . S
C1411 C1395 1.349 . S
C1411 H1403 0.950 . S
C1411 C1409 1.327 . S
C1412 C1400 1.349 . S
C1412 H1406 0.950 . S
C1412 C1413 1.327 . S
C1413 H1407 0.950 . S
C1413 C1412 1.327 . S
C1413 C1417 1.429 . S
C1414 C1397 1.574 . S
C1414 H1408 0.949 . S
C1414 C1418 1.368 . S
C1415 C1396 1.429 . S
C1415 C1409 1.429 . S
C1415 C1416 1.523 . S
C1416 C1397 1.368 . S
C1416 C1410 1.368 . S
C1416 C1415 1.523 . S
C1417 C1401 1.429 . S
C1417 C1413 1.429 . S
C1417 C1418 1.523 . S
C1418 C1402 1.368 . S
C1418 C1414 1.368 . S
C1418 C1417 1.523 . S
H1419 C1394 0.950 . S
H1420 C1396 0.950 . S
H1421 C1397 0.949 . S
H1422 C1399 0.950 . S
H1423 C1401 0.950 . S
C1424 C1425 1.349 . S
C1424 C1426 1.327 . S
C1424 H1449 0.950 . S
C1425 C1424 1.349 . S
C1425 C1441 1.349 . S
C1426 C1424 1.327 . S
C1426 C1445 1.429 . S
C1426 H1450 0.950 1_556 S
C1427 C1444 1.574 . S
C1427 C1446 1.368 . S
C1427 H1451 0.949 . S
H1428 C1432 0.949 . S
C1429 C1430 1.349 . S
C1429 C1431 1.327 . S
C1429 H1452 0.950 . S
C1430 C1429 1.349 . S
C1430 C1442 1.349 . S
C1431 C1429 1.327 . S
C1431 C1447 1.429 . S
C1431 H1453 0.950 1_554 S
C1432 H1428 0.949 . S
C1432 C1440 1.574 . S
C1432 C1448 1.368 . S
H1433 C1441 0.950 . S
H1434 C1439 0.950 . S
H1435 C1440 0.949 . S
H1436 C1442 0.950 . S
H1437 C1443 0.950 . S
H1438 C1444 0.949 . S
C1439 H1434 0.950 . S
C1439 C1441 1.327 . S
C1439 C1445 1.429 . S
C1440 C1432 1.574 . S
C1440 H1435 0.949 . S
C1440 C1446 1.368 1_554 S
C1441 C1425 1.349 . S
C1441 H1433 0.950 . S
C1441 C1439 1.327 . S
C1442 C1430 1.349 . S
C1442 H1436 0.950 . S
C1442 C1443 1.327 . S
C1443 H1437 0.950 . S
C1443 C1442 1.327 . S
C1443 C1447 1.429 . S
C1444 C1427 1.574 . S
C1444 H1438 0.949 . S
C1444 C1448 1.368 1_556 S
C1445 C1426 1.429 . S
C1445 C1439 1.429 . S
C1445 C1446 1.523 . S
C1446 C1427 1.368 . S
C1446 C1440 1.368 1_556 S
C1446 C1445 1.523 . S
C1447 C1431 1.429 . S
C1447 C1443 1.429 . S
C1447 C1448 1.523 . S
C1448 C1432 1.368 . S
C1448 C1444 1.368 1_554 S
C1448 C1447 1.523 . S
H1449 C1424 0.950 . S
H1450 C1426 0.950 1_554 S
H1451 C1427 0.949 . S
H1452 C1429 0.950 . S
H1453 C1431 0.950 1_556 S
C1454 C1455 1.349 . S
C1454 C1456 1.327 . S
C1454 H1479 0.950 . S
C1455 C1454 1.349 . S
C1455 C1471 1.349 . S
C1456 C1454 1.327 . S
C1456 C1475 1.429 . S
C1456 H1480 0.950 . S
C1457 C1474 1.574 . S
C1457 C1476 1.368 . S
C1457 H1481 0.949 . S
H1458 C1462 0.949 . S
C1459 C1460 1.349 . S
C1459 C1461 1.327 . S
C1459 H1482 0.950 . S
C1460 C1459 1.349 . S
C1460 C1472 1.349 . S
C1461 C1459 1.327 . S
C1461 C1477 1.429 . S
C1461 H1483 0.950 . S
C1462 H1458 0.949 . S
C1462 C1470 1.574 . S
C1462 C1478 1.368 . S
H1463 C1471 0.950 . S
H1464 C1469 0.950 . S
H1465 C1470 0.949 . S
H1466 C1472 0.950 . S
H1467 C1473 0.950 . S
H1468 C1474 0.949 . S
C1469 H1464 0.950 . S
C1469 C1471 1.327 . S
C1469 C1475 1.429 . S
C1470 C1462 1.574 . S
C1470 H1465 0.949 . S
C1470 C1476 1.368 . S
C1471 C1455 1.349 . S
C1471 H1463 0.950 . S
C1471 C1469 1.327 . S
C1472 C1460 1.349 . S
C1472 H1466 0.950 . S
C1472 C1473 1.327 . S
C1473 H1467 0.950 . S
C1473 C1472 1.327 . S
C1473 C1477 1.429 . S
C1474 C1457 1.574 . S
C1474 H1468 0.949 . S
C1474 C1478 1.368 . S
C1475 C1456 1.429 . S
C1475 C1469 1.429 . S
C1475 C1476 1.523 . S
C1476 C1457 1.368 . S
C1476 C1470 1.368 . S
C1476 C1475 1.523 . S
C1477 C1461 1.429 . S
C1477 C1473 1.429 . S
C1477 C1478 1.523 . S
C1478 C1462 1.368 . S
C1478 C1474 1.368 . S
C1478 C1477 1.523 . S
H1479 C1454 0.950 . S
H1480 C1456 0.950 . S
H1481 C1457 0.949 . S
H1482 C1459 0.950 . S
H1483 C1461 0.950 . S
C1484 C1485 1.349 . S
C1484 C1486 1.327 . S
C1484 H1509 0.950 . S
C1485 C1484 1.349 . S
C1485 C1501 1.349 . S
C1486 C1484 1.327 . S
C1486 C1505 1.429 . S
C1486 H1510 0.950 . S
C1487 C1504 1.574 . S
C1487 C1506 1.368 . S
C1487 H1511 0.949 . S
H1488 C1492 0.949 . S
C1489 C1490 1.349 . S
C1489 C1491 1.327 . S
C1489 H1512 0.950 . S
C1490 C1489 1.349 . S
C1490 C1502 1.349 . S
C1491 C1489 1.327 . S
C1491 C1507 1.429 . S
C1491 H1513 0.950 . S
C1492 H1488 0.949 . S
C1492 C1500 1.574 . S
C1492 C1508 1.368 . S
H1493 C1501 0.950 . S
H1494 C1499 0.950 . S
H1495 C1500 0.949 . S
H1496 C1502 0.950 . S
H1497 C1503 0.950 . S
H1498 C1504 0.949 . S
C1499 H1494 0.950 . S
C1499 C1501 1.327 . S
C1499 C1505 1.429 . S
C1500 C1492 1.574 . S
C1500 H1495 0.949 . S
C1500 C1506 1.368 1_556 S
C1501 C1485 1.349 . S
C1501 H1493 0.950 . S
C1501 C1499 1.327 . S
C1502 C1490 1.349 . S
C1502 H1496 0.950 . S
C1502 C1503 1.327 . S
C1503 H1497 0.950 . S
C1503 C1502 1.327 . S
C1503 C1507 1.429 . S
C1504 C1487 1.574 . S
C1504 H1498 0.949 . S
C1504 C1508 1.368 1_554 S
C1505 C1486 1.429 . S
C1505 C1499 1.429 . S
C1505 C1506 1.523 . S
C1506 C1487 1.368 . S
C1506 C1500 1.368 1_554 S
C1506 C1505 1.523 . S
C1507 C1491 1.429 . S
C1507 C1503 1.429 . S
C1507 C1508 1.523 . S
C1508 C1492 1.368 . S
C1508 C1504 1.368 1_556 S
C1508 C1507 1.523 . S
H1509 C1484 0.950 . S
H1510 C1486 0.950 . S
H1511 C1487 0.949 . S
H1512 C1489 0.950 . S
H1513 C1491 0.950 . S
C1514 C1515 1.349 . S
C1514 C1516 1.327 . S
C1514 H1539 0.950 . S
C1515 C1514 1.349 . S
C1515 C1531 1.349 . S
C1516 C1514 1.327 . S
C1516 C1535 1.429 . S
C1516 H1540 0.950 . S
C1517 C1534 1.574 . S
C1517 C1536 1.368 . S
C1517 H1541 0.949 . S
H1518 C1522 0.949 . S
C1519 C1520 1.349 . S
C1519 C1521 1.327 . S
C1519 H1542 0.950 . S
C1520 C1519 1.349 . S
C1520 C1532 1.349 . S
C1521 C1519 1.327 . S
C1521 C1537 1.429 . S
C1521 H1543 0.950 . S
C1522 H1518 0.949 . S
C1522 C1530 1.574 . S
C1522 C1538 1.368 . S
H1523 C1531 0.950 . S
H1524 C1529 0.950 . S
H1525 C1530 0.949 . S
H1526 C1532 0.950 . S
H1527 C1533 0.950 . S
H1528 C1534 0.949 . S
C1529 H1524 0.950 . S
C1529 C1531 1.327 . S
C1529 C1535 1.429 . S
C1530 C1522 1.574 . S
C1530 H1525 0.949 . S
C1530 C1536 1.368 . S
C1531 C1515 1.349 . S
C1531 H1523 0.950 . S
C1531 C1529 1.327 . S
C1532 C1520 1.349 . S
C1532 H1526 0.950 . S
C1532 C1533 1.327 . S
C1533 H1527 0.950 . S
C1533 C1532 1.327 . S
C1533 C1537 1.429 . S
C1534 C1517 1.574 . S
C1534 H1528 0.949 . S
C1534 C1538 1.368 . S
C1535 C1516 1.429 . S
C1535 C1529 1.429 . S
C1535 C1536 1.523 . S
C1536 C1517 1.368 . S
C1536 C1530 1.368 . S
C1536 C1535 1.523 . S
C1537 C1521 1.429 . S
C1537 C1533 1.429 . S
C1537 C1538 1.523 . S
C1538 C1522 1.368 . S
C1538 C1534 1.368 . S
C1538 C1537 1.523 . S
H1539 C1514 0.950 . S
H1540 C1516 0.950 . S
H1541 C1517 0.949 . S
H1542 C1519 0.950 . S
H1543 C1521 0.950 . S
C1544 C1545 1.349 . S
C1544 C1546 1.327 . S
C1544 H1569 0.950 . S
C1545 C1544 1.349 . S
C1545 C1561 1.349 . S
C1546 C1544 1.327 . S
C1546 C1565 1.429 . S
C1546 H1570 0.950 . S
C1547 C1564 1.574 1_554 S
C1547 C1566 1.368 . S
C1547 H1571 0.949 . S
H1548 C1552 0.949 . S
C1549 C1550 1.349 . S
C1549 C1551 1.327 . S
C1549 H1572 0.950 . S
C1550 C1549 1.349 . S
C1550 C1562 1.349 . S
C1551 C1549 1.327 . S
C1551 C1567 1.429 . S
C1551 H1573 0.950 . S
C1552 H1548 0.949 . S
C1552 C1560 1.574 1_556 S
C1552 C1568 1.368 . S
H1553 C1561 0.950 . S
H1554 C1559 0.950 . S
H1555 C1560 0.949 . S
H1556 C1562 0.950 . S
H1557 C1563 0.950 . S
H1558 C1564 0.949 . S
C1559 H1554 0.950 . S
C1559 C1561 1.327 . S
C1559 C1565 1.429 . S
C1560 C1552 1.574 1_554 S
C1560 H1555 0.949 . S
C1560 C1566 1.368 . S
C1561 C1545 1.349 . S
C1561 H1553 0.950 . S
C1561 C1559 1.327 . S
C1562 C1550 1.349 . S
C1562 H1556 0.950 . S
C1562 C1563 1.327 . S
C1563 H1557 0.950 . S
C1563 C1562 1.327 . S
C1563 C1567 1.429 . S
C1564 C1547 1.574 1_556 S
C1564 H1558 0.949 . S
C1564 C1568 1.368 . S
C1565 C1546 1.429 . S
C1565 C1559 1.429 . S
C1565 C1566 1.523 . S
C1566 C1547 1.368 . S
C1566 C1560 1.368 . S
C1566 C1565 1.523 . S
C1567 C1551 1.429 . S
C1567 C1563 1.429 . S
C1567 C1568 1.523 . S
C1568 C1552 1.368 . S
C1568 C1564 1.368 . S
C1568 C1567 1.523 . S
H1569 C1544 0.950 . S
H1570 C1546 0.950 . S
H1571 C1547 0.949 . S
H1572 C1549 0.950 . S
H1573 C1551 0.950 . S
C1574 C1575 1.349 . S
C1574 C1576 1.327 . S
C1574 H1599 0.950 . S
C1575 C1574 1.349 . S
C1575 C1591 1.349 . S
C1576 C1574 1.327 . S
C1576 C1595 1.429 . S
C1576 H1600 0.950 . S
C1577 C1594 1.574 . S
C1577 C1596 1.368 . S
C1577 H1601 0.949 . S
H1578 C1582 0.949 . S
C1579 C1580 1.349 . S
C1579 C1581 1.327 . S
C1579 H1602 0.950 . S
C1580 C1579 1.349 . S
C1580 C1592 1.349 . S
C1581 C1579 1.327 . S
C1581 C1597 1.429 . S
C1581 H1603 0.950 . S
C1582 H1578 0.949 . S
C1582 C1590 1.574 . S
C1582 C1598 1.368 . S
H1583 C1591 0.950 . S
H1584 C1589 0.950 . S
H1585 C1590 0.949 . S
H1586 C1592 0.950 . S
H1587 C1593 0.950 . S
H1588 C1594 0.949 . S
C1589 H1584 0.950 . S
C1589 C1591 1.327 . S
C1589 C1595 1.429 . S
C1590 C1582 1.574 . S
C1590 H1585 0.949 . S
C1590 C1596 1.368 . S
C1591 C1575 1.349 . S
C1591 H1583 0.950 . S
C1591 C1589 1.327 . S
C1592 C1580 1.349 . S
C1592 H1586 0.950 . S
C1592 C1593 1.327 . S
C1593 H1587 0.950 . S
C1593 C1592 1.327 . S
C1593 C1597 1.429 . S
C1594 C1577 1.574 . S
C1594 H1588 0.949 . S
C1594 C1598 1.368 . S
C1595 C1576 1.429 . S
C1595 C1589 1.429 . S
C1595 C1596 1.523 . S
C1596 C1577 1.368 . S
C1596 C1590 1.368 . S
C1596 C1595 1.523 . S
C1597 C1581 1.429 . S
C1597 C1593 1.429 . S
C1597 C1598 1.523 . S
C1598 C1582 1.368 . S
C1598 C1594 1.368 . S
C1598 C1597 1.523 . S
H1599 C1574 0.950 . S
H1600 C1576 0.950 . S
H1601 C1577 0.949 . S
H1602 C1579 0.950 . S
H1603 C1581 0.950 . S
C1604 C1605 1.349 . S
C1604 C1606 1.327 . S
C1604 H1629 0.950 . S
C1605 C1604 1.349 . S
C1605 C1621 1.349 . S
C1606 C1604 1.327 . S
C1606 C1625 1.429 . S
C1606 H1630 0.950 . S
C1607 C1624 1.574 . S
C1607 C1626 1.368 1_556 S
C1607 H1631 0.949 . S
H1608 C1612 0.949 . S
C1609 C1610 1.349 . S
C1609 C1611 1.327 . S
C1609 H1632 0.950 . S
C1610 C1609 1.349 . S
C1610 C1622 1.349 . S
C1611 C1609 1.327 . S
C1611 C1627 1.429 . S
C1611 H1633 0.950 . S
C1612 H1608 0.949 . S
C1612 C1620 1.574 . S
C1612 C1628 1.368 1_554 S
H1613 C1621 0.950 . S
H1614 C1619 0.950 1_556 S
H1615 C1620 0.949 . S
H1616 C1622 0.950 . S
H1617 C1623 0.896 1_554 S
H1618 C1624 0.949 . S
C1619 H1614 0.950 1_554 S
C1619 C1621 1.327 . S
C1619 C1625 1.429 . S
C1620 C1612 1.574 . S
C1620 H1615 0.949 . S
C1620 C1626 1.368 . S
C1621 C1605 1.349 . S
C1621 H1613 0.950 . S
C1621 C1619 1.327 . S
C1622 C1610 1.349 . S
C1622 H1616 0.950 . S
C1622 C1623 1.327 . S
C1623 H1617 0.896 1_556 S
C1623 C1622 1.327 . S
C1623 C1627 1.429 . S
C1624 C1607 1.574 . S
C1624 H1618 0.949 . S
C1624 C1628 1.368 . S
C1625 C1606 1.429 . S
C1625 C1619 1.429 . S
C1625 C1626 1.523 . S
C1626 C1607 1.368 1_554 S
C1626 C1620 1.368 . S
C1626 C1625 1.523 . S
C1627 C1611 1.429 . S
C1627 C1623 1.429 . S
C1627 C1628 1.523 . S
C1628 C1612 1.368 1_556 S
C1628 C1624 1.368 . S
C1628 C1627 1.523 . S
H1629 C1604 0.950 . S
H1630 C1606 0.950 . S
H1631 C1607 0.949 . S
H1632 C1609 0.950 . S
H1633 C1611 0.950 . S
C1634 C1635 1.349 . S
C1634 C1636 1.327 . S
C1634 H1659 0.950 . S
C1635 C1634 1.349 . S
C1635 C1651 1.349 . S
C1636 C1634 1.327 . S
C1636 C1655 1.429 . S
C1636 H1660 0.950 . S
C1637 C1654 1.574 . S
C1637 C1656 1.368 . S
C1637 H1661 0.949 . S
H1638 C1642 0.949 . S
C1639 C1640 1.349 . S
C1639 C1641 1.327 . S
C1639 H1662 0.950 . S
C1640 C1639 1.349 . S
C1640 C1652 1.349 . S
C1641 C1639 1.327 . S
C1641 C1657 1.429 . S
C1641 H1663 0.950 . S
C1642 H1638 0.949 . S
C1642 C1650 1.574 . S
C1642 C1658 1.368 . S
H1643 C1651 0.950 . S
H1644 C1649 0.950 . S
H1645 C1650 0.949 . S
H1646 C1652 0.950 . S
H1647 C1653 0.950 . S
H1648 C1654 0.949 . S
C1649 H1644 0.950 . S
C1649 C1651 1.327 . S
C1649 C1655 1.429 . S
C1650 C1642 1.574 . S
C1650 H1645 0.949 . S
C1650 C1656 1.368 . S
C1651 C1635 1.349 . S
C1651 H1643 0.950 . S
C1651 C1649 1.327 . S
C1652 C1640 1.349 . S
C1652 H1646 0.950 . S
C1652 C1653 1.327 . S
C1653 H1647 0.950 . S
C1653 C1652 1.327 . S
C1653 C1657 1.429 . S
C1654 C1637 1.574 . S
C1654 H1648 0.949 . S
C1654 C1658 1.368 . S
C1655 C1636 1.429 . S
C1655 C1649 1.429 . S
C1655 C1656 1.523 . S
C1656 C1637 1.368 . S
C1656 C1650 1.368 . S
C1656 C1655 1.523 . S
C1657 C1641 1.429 . S
C1657 C1653 1.429 . S
C1657 C1658 1.523 . S
C1658 C1642 1.368 . S
C1658 C1654 1.368 . S
C1658 C1657 1.523 . S
H1659 C1634 0.950 . S
H1660 C1636 0.950 . S
H1661 C1637 0.949 . S
H1662 C1639 0.950 . S
H1663 C1641 0.950 . S
C1664 C1665 1.349 . S
C1664 C1666 1.327 . S
C1664 H1689 0.950 . S
C1665 C1664 1.349 . S
C1665 C1681 1.349 . S
C1666 C1664 1.327 . S
C1666 C1685 1.429 . S
C1666 H1690 0.950 . S
C1667 C1684 1.574 . S
C1667 C1686 1.368 . S
C1667 H1691 0.949 . S
H1668 C1672 0.949 . S
C1669 C1670 1.349 . S
C1669 C1671 1.327 . S
C1669 H1692 0.950 . S
C1670 C1669 1.349 . S
C1670 C1682 1.349 . S
C1671 C1669 1.327 . S
C1671 C1687 1.429 . S
C1671 H1693 0.950 . S
C1672 H1668 0.949 . S
C1672 C1680 1.574 . S
C1672 C1688 1.368 . S
H1673 C1681 0.950 . S
H1674 C1679 0.950 . S
H1675 C1680 0.949 . S
H1676 C1682 0.950 . S
H1677 C1683 0.950 . S
H1678 C1684 0.949 . S
C1679 H1674 0.950 . S
C1679 C1681 1.327 . S
C1679 C1685 1.429 . S
C1680 C1672 1.574 . S
C1680 H1675 0.949 . S
C1680 C1686 1.368 1_554 S
C1681 C1665 1.349 . S
C1681 H1673 0.950 . S
C1681 C1679 1.327 . S
C1682 C1670 1.349 . S
C1682 H1676 0.950 . S
C1682 C1683 1.327 . S
C1683 H1677 0.950 . S
C1683 C1682 1.327 . S
C1683 C1687 1.429 . S
C1684 C1667 1.574 . S
C1684 H1678 0.949 . S
C1684 C1688 1.368 1_556 S
C1685 C1666 1.429 . S
C1685 C1679 1.429 . S
C1685 C1686 1.523 . S
C1686 C1667 1.368 . S
C1686 C1680 1.368 1_556 S
C1686 C1685 1.523 . S
C1687 C1671 1.429 . S
C1687 C1683 1.429 . S
C1687 C1688 1.523 . S
C1688 C1672 1.368 . S
C1688 C1684 1.368 1_554 S
C1688 C1687 1.523 . S
H1689 C1664 0.950 . S
H1690 C1666 0.950 . S
H1691 C1667 0.949 . S
H1692 C1669 0.950 . S
H1693 C1671 0.950 . S
C1694 C1695 1.349 . S
C1694 C1696 1.327 . S
C1694 H1719 0.950 . S
C1695 C1694 1.349 . S
C1695 C1711 1.349 . S
C1696 C1694 1.327 . S
C1696 C1715 1.429 . S
C1696 H1720 0.950 . S
C1697 C1714 1.574 . S
C1697 C1716 1.368 . S
C1697 H1721 0.949 . S
H1698 C1702 0.949 . S
C1699 C1700 1.349 . S
C1699 C1701 1.327 . S
C1699 H1722 0.950 . S
C1700 C1699 1.349 . S
C1700 C1712 1.349 . S
C1701 C1699 1.327 . S
C1701 C1717 1.429 . S
C1701 H1723 0.950 . S
C1702 H1698 0.949 . S
C1702 C1710 1.574 . S
C1702 C1718 1.368 . S
H1703 C1711 0.950 . S
H1704 C1709 0.950 . S
H1705 C1710 0.949 . S
H1706 C1712 0.950 . S
H1707 C1713 0.950 . S
H1708 C1714 0.949 . S
C1709 H1704 0.950 . S
C1709 C1711 1.327 . S
C1709 C1715 1.429 . S
C1710 C1702 1.574 . S
C1710 H1705 0.949 . S
C1710 C1716 1.368 . S
C1711 C1695 1.349 . S
C1711 H1703 0.950 . S
C1711 C1709 1.327 . S
C1712 C1700 1.349 . S
C1712 H1706 0.950 . S
C1712 C1713 1.327 . S
C1713 H1707 0.950 . S
C1713 C1712 1.327 . S
C1713 C1717 1.429 . S
C1714 C1697 1.574 . S
C1714 H1708 0.949 . S
C1714 C1718 1.368 . S
C1715 C1696 1.429 . S
C1715 C1709 1.429 . S
C1715 C1716 1.523 . S
C1716 C1697 1.368 . S
C1716 C1710 1.368 . S
C1716 C1715 1.523 . S
C1717 C1701 1.429 . S
C1717 C1713 1.429 . S
C1717 C1718 1.523 . S
C1718 C1702 1.368 . S
C1718 C1714 1.368 . S
C1718 C1717 1.523 . S
H1719 C1694 0.950 . S
H1720 C1696 0.950 . S
H1721 C1697 0.949 . S
H1722 C1699 0.950 . S
H1723 C1701 0.950 . S
C1724 C1725 1.349 . S
C1724 C1726 1.327 . S
C1724 H1749 0.950 . S
C1725 C1724 1.349 . S
C1725 C1741 1.349 . S
C1726 C1724 1.327 . S
C1726 C1745 1.429 . S
C1726 H1750 0.950 1_554 S
C1727 C1744 1.574 . S
C1727 C1746 1.368 . S
C1727 H1751 0.949 . S
H1728 C1732 0.949 . S
C1729 C1730 1.349 . S
C1729 C1731 1.327 . S
C1729 H1752 0.950 . S
C1730 C1729 1.349 . S
C1730 C1742 1.349 . S
C1731 C1729 1.327 . S
C1731 C1747 1.429 . S
C1731 H1753 0.950 1_556 S
C1732 H1728 0.949 . S
C1732 C1740 1.574 . S
C1732 C1748 1.368 . S
H1733 C1741 0.950 . S
H1734 C1739 0.950 . S
H1735 C1740 0.949 . S
H1736 C1742 0.950 . S
H1737 C1743 0.950 . S
H1738 C1744 0.949 . S
C1739 H1734 0.950 . S
C1739 C1741 1.327 . S
C1739 C1745 1.429 . S
C1740 C1732 1.574 . S
C1740 H1735 0.949 . S
C1740 C1746 1.368 1_556 S
C1741 C1725 1.349 . S
C1741 H1733 0.950 . S
C1741 C1739 1.327 . S
C1742 C1730 1.349 . S
C1742 H1736 0.950 . S
C1742 C1743 1.327 . S
C1743 H1737 0.950 . S
C1743 C1742 1.327 . S
C1743 C1747 1.429 . S
C1744 C1727 1.574 . S
C1744 H1738 0.949 . S
C1744 C1748 1.368 1_554 S
C1745 C1726 1.429 . S
C1745 C1739 1.429 . S
C1745 C1746 1.523 . S
C1746 C1727 1.368 . S
C1746 C1740 1.368 1_554 S
C1746 C1745 1.523 . S
C1747 C1731 1.429 . S
C1747 C1743 1.429 . S
C1747 C1748 1.523 . S
C1748 C1732 1.368 . S
C1748 C1744 1.368 1_556 S
C1748 C1747 1.523 . S
H1749 C1724 0.950 . S
H1750 C1726 0.950 1_556 S
H1751 C1727 0.949 . S
H1752 C1729 0.950 . S
H1753 C1731 0.950 1_554 S
C1754 C1755 1.349 . S
C1754 C1756 1.327 . S
C1754 H1779 0.950 . S
C1755 C1754 1.349 . S
C1755 C1771 1.349 . S
C1756 C1754 1.327 . S
C1756 C1775 1.429 . S
C1756 H1780 0.950 . S
C1757 C1774 1.574 . S
C1757 C1776 1.368 . S
C1757 H1781 0.949 . S
H1758 C1762 0.949 . S
C1759 C1760 1.349 . S
C1759 C1761 1.327 . S
C1759 H1782 0.950 . S
C1760 C1759 1.349 . S
C1760 C1772 1.349 . S
C1761 C1759 1.327 . S
C1761 C1777 1.429 . S
C1761 H1783 0.950 . S
C1762 H1758 0.949 . S
C1762 C1770 1.574 . S
C1762 C1778 1.368 . S
H1763 C1771 0.950 . S
H1764 C1769 0.950 . S
H1765 C1770 0.949 . S
H1766 C1772 0.950 . S
H1767 C1773 0.950 . S
H1768 C1774 0.949 . S
C1769 H1764 0.950 . S
C1769 C1771 1.327 . S
C1769 C1775 1.429 . S
C1770 C1762 1.574 . S
C1770 H1765 0.949 . S
C1770 C1776 1.368 . S
C1771 C1755 1.349 . S
C1771 H1763 0.950 . S
C1771 C1769 1.327 . S
C1772 C1760 1.349 . S
C1772 H1766 0.950 . S
C1772 C1773 1.327 . S
C1773 H1767 0.950 . S
C1773 C1772 1.327 . S
C1773 C1777 1.429 . S
C1774 C1757 1.574 . S
C1774 H1768 0.949 . S
C1774 C1778 1.368 . S
C1775 C1756 1.429 . S
C1775 C1769 1.429 . S
C1775 C1776 1.523 . S
C1776 C1757 1.368 . S
C1776 C1770 1.368 . S
C1776 C1775 1.523 . S
C1777 C1761 1.429 . S
C1777 C1773 1.429 . S
C1777 C1778 1.523 . S
C1778 C1762 1.368 . S
C1778 C1774 1.368 . S
C1778 C1777 1.523 . S
H1779 C1754 0.950 . S
H1780 C1756 0.950 . S
H1781 C1757 0.949 . S
H1782 C1759 0.950 . S
H1783 C1761 0.950 . S
C1784 C1785 1.349 . S
C1784 C1786 1.327 . S
C1784 H1809 0.950 . S
C1785 C1784 1.349 . S
C1785 C1801 1.349 . S
C1786 C1784 1.327 . S
C1786 C1805 1.429 . S
C1786 H1810 0.950 . S
C1787 C1804 1.574 1_545 S
C1787 C1806 1.368 1_554 S
C1787 H1811 0.949 . S
H1788 C1792 0.949 . S
C1789 C1790 1.349 . S
C1789 C1791 1.327 . S
C1789 H1812 0.950 . S
C1790 C1789 1.349 . S
C1790 C1802 1.349 . S
C1791 C1789 1.327 . S
C1791 C1807 1.429 . S
C1791 H1813 0.950 . S
C1792 H1788 0.949 . S
C1792 C1800 1.574 1_565 S
C1792 C1808 1.368 1_556 S
H1793 C1801 0.950 . S
H1794 C1799 0.950 1_554 S
H1795 C1800 0.949 . S
H1796 C1802 0.950 . S
H1797 C1803 0.950 1_556 S
H1798 C1804 0.949 . S
C1799 H1794 0.950 1_556 S
C1799 C1801 1.327 . S
C1799 C1805 1.429 . S
C1800 C1792 1.574 1_545 S
C1800 H1795 0.949 . S
C1800 C1806 1.368 . S
C1801 C1785 1.349 . S
C1801 H1793 0.950 . S
C1801 C1799 1.327 . S
C1802 C1790 1.349 . S
C1802 H1796 0.950 . S
C1802 C1803 1.327 . S
C1803 H1797 0.950 1_554 S
C1803 C1802 1.327 . S
C1803 C1807 1.429 . S
C1804 C1787 1.574 1_565 S
C1804 H1798 0.949 . S
C1804 C1808 1.368 . S
C1805 C1786 1.429 . S
C1805 C1799 1.429 . S
C1805 C1806 1.523 . S
C1806 C1787 1.368 1_556 S
C1806 C1800 1.368 . S
C1806 C1805 1.523 . S
C1807 C1791 1.429 . S
C1807 C1803 1.429 . S
C1807 C1808 1.523 . S
C1808 C1792 1.368 1_554 S
C1808 C1804 1.368 . S
C1808 C1807 1.523 . S
H1809 C1784 0.950 . S
H1810 C1786 0.950 . S
H1811 C1787 0.949 . S
H1812 C1789 0.950 . S
H1813 C1791 0.950 . S
C1814 C1815 1.349 . S
C1814 C1816 1.327 . S
C1814 H1839 0.950 . S
C1815 C1814 1.349 . S
C1815 C1831 1.349 . S
C1816 C1814 1.327 . S
C1816 C1835 1.429 . S
C1816 H1840 0.950 . S
C1817 C1834 1.574 1_565 S
C1817 C1836 1.368 . S
C1817 H1841 0.949 . S
H1818 C1822 0.949 . S
C1819 C1820 1.349 . S
C1819 C1821 1.327 . S
C1819 H1842 0.950 . S
C1820 C1819 1.349 . S
C1820 C1832 1.349 . S
C1821 C1819 1.327 . S
C1821 C1837 1.429 . S
C1821 H1843 0.950 . S
C1822 H1818 0.949 . S
C1822 C1830 1.574 1_545 S
C1822 C1838 1.368 . S
H1823 C1831 0.950 . S
H1824 C1829 0.950 . S
H1825 C1830 0.949 . S
H1826 C1832 0.950 . S
H1827 C1833 0.950 . S
H1828 C1834 0.949 . S
C1829 H1824 0.950 . S
C1829 C1831 1.327 . S
C1829 C1835 1.429 . S
C1830 C1822 1.574 1_565 S
C1830 H1825 0.949 . S
C1830 C1836 1.368 . S
C1831 C1815 1.349 . S
C1831 H1823 0.950 . S
C1831 C1829 1.327 . S
C1832 C1820 1.349 . S
C1832 H1826 0.950 . S
C1832 C1833 1.327 . S
C1833 H1827 0.950 . S
C1833 C1832 1.327 . S
C1833 C1837 1.429 . S
C1834 C1817 1.574 1_545 S
C1834 H1828 0.949 . S
C1834 C1838 1.368 . S
C1835 C1816 1.429 . S
C1835 C1829 1.429 . S
C1835 C1836 1.523 . S
C1836 C1817 1.368 . S
C1836 C1830 1.368 . S
C1836 C1835 1.523 . S
C1837 C1821 1.429 . S
C1837 C1833 1.429 . S
C1837 C1838 1.523 . S
C1838 C1822 1.368 . S
C1838 C1834 1.368 . S
C1838 C1837 1.523 . S
H1839 C1814 0.950 . S
H1840 C1816 0.950 . S
H1841 C1817 0.949 . S
H1842 C1819 0.950 . S
H1843 C1821 0.950 . S
C1844 C1845 1.349 . S
C1844 C1846 1.327 . S
C1844 H1869 0.950 . S
C1845 C1844 1.349 . S
C1845 C1861 1.349 . S
C1846 C1844 1.327 . S
C1846 C1865 1.429 . S
C1846 H1870 0.969 . S
C1847 C1864 1.574 1_565 S
C1847 C1866 1.368 . S
C1847 H1871 0.949 . S
H1848 C1852 0.949 . S
C1849 C1850 1.349 . S
C1849 C1851 1.327 . S
C1849 H1872 0.950 . S
C1850 C1849 1.349 . S
C1850 C1862 1.349 . S
C1851 C1849 1.327 . S
C1851 C1867 1.429 . S
C1851 H1873 0.969 . S
C1852 H1848 0.949 . S
C1852 C1860 1.574 1_545 S
C1852 C1868 1.368 . S
H1853 C1861 0.950 . S
H1854 C1859 0.950 . S
H1855 C1860 0.949 . S
H1856 C1862 0.950 . S
H1857 C1863 0.950 . S
H1858 C1864 0.949 . S
C1859 H1854 0.950 . S
C1859 C1861 1.327 . S
C1859 C1865 1.429 . S
C1860 C1852 1.574 1_565 S
C1860 H1855 0.949 . S
C1860 C1866 1.368 1_556 S
C1861 C1845 1.349 . S
C1861 H1853 0.950 . S
C1861 C1859 1.327 . S
C1862 C1850 1.349 . S
C1862 H1856 0.950 . S
C1862 C1863 1.327 . S
C1863 H1857 0.950 . S
C1863 C1862 1.327 . S
C1863 C1867 1.429 . S
C1864 C1847 1.574 1_545 S
C1864 H1858 0.949 . S
C1864 C1868 1.368 1_554 S
C1865 C1846 1.429 . S
C1865 C1859 1.429 . S
C1865 C1866 1.523 . S
C1866 C1847 1.368 . S
C1866 C1860 1.368 1_554 S
C1866 C1865 1.523 . S
C1867 C1851 1.429 . S
C1867 C1863 1.429 . S
C1867 C1868 1.523 . S
C1868 C1852 1.368 . S
C1868 C1864 1.368 1_556 S
C1868 C1867 1.523 . S
H1869 C1844 0.950 . S
H1870 C1846 0.969 . S
H1871 C1847 0.949 . S
H1872 C1849 0.950 . S
H1873 C1851 0.969 . S
C1874 C1875 1.349 . S
C1874 C1876 1.327 . S
C1874 H1899 0.950 . S
C1875 C1874 1.349 . S
C1875 C1891 1.349 . S
C1876 C1874 1.327 . S
C1876 C1895 1.429 . S
C1876 H1900 0.950 . S
C1877 C1894 1.574 1_545 S
C1877 C1896 1.368 . S
C1877 H1901 0.949 . S
H1878 C1882 0.949 . S
C1879 C1880 1.349 . S
C1879 C1881 1.327 . S
C1879 H1902 0.950 . S
C1880 C1879 1.349 . S
C1880 C1892 1.349 . S
C1881 C1879 1.327 . S
C1881 C1897 1.429 . S
C1881 H1903 0.950 . S
C1882 H1878 0.949 . S
C1882 C1890 1.574 1_565 S
C1882 C1898 1.368 . S
H1883 C1891 0.950 . S
H1884 C1889 0.950 . S
H1885 C1890 0.949 . S
H1886 C1892 0.950 . S
H1887 C1893 0.950 . S
H1888 C1894 0.949 . S
C1889 H1884 0.950 . S
C1889 C1891 1.327 . S
C1889 C1895 1.429 . S
C1890 C1882 1.574 1_545 S
C1890 H1885 0.949 . S
C1890 C1896 1.368 . S
C1891 C1875 1.349 . S
C1891 H1883 0.950 . S
C1891 C1889 1.327 . S
C1892 C1880 1.349 . S
C1892 H1886 0.950 . S
C1892 C1893 1.327 . S
C1893 H1887 0.950 . S
C1893 C1892 1.327 . S
C1893 C1897 1.429 . S
C1894 C1877 1.574 1_565 S
C1894 H1888 0.949 . S
C1894 C1898 1.368 . S
C1895 C1876 1.429 . S
C1895 C1889 1.429 . S
C1895 C1896 1.523 . S
C1896 C1877 1.368 . S
C1896 C1890 1.368 . S
C1896 C1895 1.523 . S
C1897 C1881 1.429 . S
C1897 C1893 1.429 . S
C1897 C1898 1.523 . S
C1898 C1882 1.368 . S
C1898 C1894 1.368 . S
C1898 C1897 1.523 . S
H1899 C1874 0.950 . S
H1900 C1876 0.950 . S
H1901 C1877 0.949 . S
H1902 C1879 0.950 . S
H1903 C1881 0.950 . S
C945 C52 1.533 . S
C950 C406 1.537 . S
C975 C111 1.533 . S
C980 C465 1.537 . S
C1005 C288 1.537 . S
C1010 C170 1.533 . S
C1035 C347 1.537 . S
C1040 C229 1.533 . S
C1065 C878 1.537 . S
C1070 C524 1.533 . S
C1095 C937 1.537 . S
C1100 C583 1.533 . S
C1125 C642 1.533 . S
C1130 C760 1.537 . S
C1155 C701 1.533 . S
C1160 C819 1.537 . S
C1185 C33 1.604 . S
C1190 C298 1.588 . S
C1215 C92 1.604 . S
C1220 C239 1.588 . S
C1245 C151 1.604 . S
C1250 C416 1.588 . S
C1275 C357 1.588 . S
C1280 C210 1.604 . S
C1305 C770 1.588 . S
C1310 C505 1.604 . S
C1335 C711 1.588 . S
C1340 C564 1.604 . S
C1365 C623 1.604 . S
C1370 C888 1.588 . S
C1395 C829 1.588 . S
C1400 C682 1.604 . S
C1425 C713 1.563 . S
C1430 C5 1.567 . S
C1455 C64 1.567 . S
C1460 C772 1.563 . S
C1485 C831 1.563 . S
C1490 C123 1.567 . S
C1515 C890 1.563 . S
C1520 C182 1.567 . S
C1545 C477 1.567 . S
C1550 C241 1.563 . S
C1575 C536 1.567 . S
C1580 C300 1.563 . S
C1605 C359 1.563 . S
C1610 C595 1.567 . S
C1635 C418 1.563 . S
C1640 C654 1.567 . S
C1665 C121 1.135 . S
C1670 C3 1.135 . S
C1695 C62 1.135 . S
C1700 C180 1.135 . S
C1725 C387 2.003 . S
C1730 C269 2.003 . S
C1755 C328 2.003 . S
C1760 C446 2.003 . S
C1785 C593 1.135 . S
C1790 C475 1.135 . S
C1815 C652 1.135 . S
C1820 C534 1.135 . S
C1845 C859 2.003 . S
C1850 C741 2.003 . S
C1875 C918 2.003 . S
C1880 C800 2.003 . S
